# Generated by pormake.
# Topology umz, (4)-cn, num edge types: 1
# Building blocks:
#     Node 0, Type 0, BuildingBlock: CEKHIL_clean_sbu_0, # of connection points: 4
#     Node 1, Type 0, BuildingBlock: CEKHIL_clean_sbu_0, # of connection points: 4
#     Node 2, Type 0, BuildingBlock: CEKHIL_clean_sbu_0, # of connection points: 4
#     Node 3, Type 0, BuildingBlock: CEKHIL_clean_sbu_0, # of connection points: 4
#     Node 4, Type 0, BuildingBlock: CEKHIL_clean_sbu_0, # of connection points: 4
#     Node 5, Type 0, BuildingBlock: CEKHIL_clean_sbu_0, # of connection points: 4
#     Node 6, Type 0, BuildingBlock: CEKHIL_clean_sbu_0, # of connection points: 4
#     Node 7, Type 0, BuildingBlock: CEKHIL_clean_sbu_0, # of connection points: 4
#     Node 8, Type 0, BuildingBlock: CEKHIL_clean_sbu_0, # of connection points: 4
#     Node 9, Type 0, BuildingBlock: CEKHIL_clean_sbu_0, # of connection points: 4
#     Node 10, Type 0, BuildingBlock: CEKHIL_clean_sbu_0, # of connection points: 4
#     Node 11, Type 0, BuildingBlock: CEKHIL_clean_sbu_0, # of connection points: 4
#     Node 12, Type 0, BuildingBlock: CEKHIL_clean_sbu_0, # of connection points: 4
#     Node 13, Type 0, BuildingBlock: CEKHIL_clean_sbu_0, # of connection points: 4
#     Node 14, Type 0, BuildingBlock: CEKHIL_clean_sbu_0, # of connection points: 4
#     Node 15, Type 0, BuildingBlock: CEKHIL_clean_sbu_0, # of connection points: 4
#     Edge 16, Type (0, 0), BuildingBlock: KIFKEQ_clean_linker_1, # of connection points: 2
#     Edge 17, Type (0, 0), BuildingBlock: KIFKEQ_clean_linker_1, # of connection points: 2
#     Edge 18, Type (0, 0), BuildingBlock: KIFKEQ_clean_linker_1, # of connection points: 2
#     Edge 19, Type (0, 0), BuildingBlock: KIFKEQ_clean_linker_1, # of connection points: 2
#     Edge 20, Type (0, 0), BuildingBlock: KIFKEQ_clean_linker_1, # of connection points: 2
#     Edge 21, Type (0, 0), BuildingBlock: KIFKEQ_clean_linker_1, # of connection points: 2
#     Edge 22, Type (0, 0), BuildingBlock: KIFKEQ_clean_linker_1, # of connection points: 2
#     Edge 23, Type (0, 0), BuildingBlock: KIFKEQ_clean_linker_1, # of connection points: 2
#     Edge 24, Type (0, 0), BuildingBlock: KIFKEQ_clean_linker_1, # of connection points: 2
#     Edge 25, Type (0, 0), BuildingBlock: KIFKEQ_clean_linker_1, # of connection points: 2
#     Edge 26, Type (0, 0), BuildingBlock: KIFKEQ_clean_linker_1, # of connection points: 2
#     Edge 27, Type (0, 0), BuildingBlock: KIFKEQ_clean_linker_1, # of connection points: 2
#     Edge 28, Type (0, 0), BuildingBlock: KIFKEQ_clean_linker_1, # of connection points: 2
#     Edge 29, Type (0, 0), BuildingBlock: KIFKEQ_clean_linker_1, # of connection points: 2
#     Edge 30, Type (0, 0), BuildingBlock: KIFKEQ_clean_linker_1, # of connection points: 2
#     Edge 31, Type (0, 0), BuildingBlock: KIFKEQ_clean_linker_1, # of connection points: 2
#     Edge 32, Type (0, 0), BuildingBlock: KIFKEQ_clean_linker_1, # of connection points: 2
#     Edge 33, Type (0, 0), BuildingBlock: KIFKEQ_clean_linker_1, # of connection points: 2
#     Edge 34, Type (0, 0), BuildingBlock: KIFKEQ_clean_linker_1, # of connection points: 2
#     Edge 35, Type (0, 0), BuildingBlock: KIFKEQ_clean_linker_1, # of connection points: 2
#     Edge 36, Type (0, 0), BuildingBlock: KIFKEQ_clean_linker_1, # of connection points: 2
#     Edge 37, Type (0, 0), BuildingBlock: KIFKEQ_clean_linker_1, # of connection points: 2
#     Edge 38, Type (0, 0), BuildingBlock: KIFKEQ_clean_linker_1, # of connection points: 2
#     Edge 39, Type (0, 0), BuildingBlock: KIFKEQ_clean_linker_1, # of connection points: 2
#     Edge 40, Type (0, 0), BuildingBlock: KIFKEQ_clean_linker_1, # of connection points: 2
#     Edge 41, Type (0, 0), BuildingBlock: KIFKEQ_clean_linker_1, # of connection points: 2
#     Edge 42, Type (0, 0), BuildingBlock: KIFKEQ_clean_linker_1, # of connection points: 2
#     Edge 43, Type (0, 0), BuildingBlock: KIFKEQ_clean_linker_1, # of connection points: 2
#     Edge 44, Type (0, 0), BuildingBlock: KIFKEQ_clean_linker_1, # of connection points: 2
#     Edge 45, Type (0, 0), BuildingBlock: KIFKEQ_clean_linker_1, # of connection points: 2
#     Edge 46, Type (0, 0), BuildingBlock: KIFKEQ_clean_linker_1, # of connection points: 2
#     Edge 47, Type (0, 0), BuildingBlock: KIFKEQ_clean_linker_1, # of connection points: 2
# Relax obj value: 0.260
# Max RMSD: 0.165
# Mean RMSD: 0.165
data_MOF--net-umz--node1-CEKHIL_clean_sbu_0--edge1-KIFKEQ_clean_linker_1
_symmetry_space_group_name_H-M    P1
_symmetry_Int_Tables_number       1
_symmetry_cell_setting            triclinic
loop_
_symmetry_equiv_pos_as_xyz
'x, y, z'
_cell_length_a     59.248761
_cell_length_b     59.249793
_cell_length_c     23.131213
_cell_angle_alpha  90.027889
_cell_angle_beta   90.001947
_cell_angle_gamma 89.950596
loop_
_atom_site_label
_atom_site_type_symbol
_atom_site_fract_x
_atom_site_fract_y
_atom_site_fract_z
_atom_type_partial_charge
Co0 Co 0.00614 0.63028 0.07105 0.0
O1 O 0.99293 0.65528 0.03033 0.0
O2 O 0.02653 0.65584 0.07214 0.0
C3 C 0.97511 0.62113 0.12297 0.0
O4 O 0.02475 0.60825 0.11929 0.0
Co5 Co 0.98674 0.58177 0.05381 0.0
O6 O 0.00925 0.57356 0.1137 0.0
C7 C 0.01339 0.60304 0.96174 0.0
C8 C 0.01097 0.66658 0.04346 0.0
C9 C 0.02402 0.58722 0.13327 0.0
O10 O 0.02015 0.61851 -0.00314 0.0
O11 O 0.99796 0.58876 0.97425 0.0
O12 O 0.98817 0.63746 0.13997 0.0
O13 O 0.97998 0.6127 0.07317 0.0
Co14 Co 0.86676 0.00305 0.56755 0.0
O15 O 0.84125 0.99117 0.52645 0.0
O16 O 0.84218 0.0248 0.5679 0.0
C17 C 0.87388 0.97169 0.61995 0.0
O18 O 0.88974 0.02037 0.61614 0.0
Co19 Co 0.91402 0.98066 0.55254 0.0
O20 O 0.92163 -0.00022 0.6203 0.0
C21 C 0.8954 0.00927 0.45986 0.0
C22 C 0.83078 0.00975 0.53907 0.0
C23 C 0.90958 0.01646 0.63671 0.0
O24 O 0.87948 0.0162 0.49346 0.0
O25 O 0.9092 0.9935 0.47345 0.0
O26 O 0.8585 0.98588 0.63689 0.0
O27 O 0.88263 0.97578 0.57009 0.0
Co28 Co 0.49362 0.86978 0.06359 0.0
O29 O 0.50611 0.84422 0.02352 0.0
O30 O 0.47286 0.84455 0.06713 0.0
C31 C 0.52517 0.87897 0.11342 0.0
O32 O 0.47575 0.89251 0.11168 0.0
Co33 Co 0.5135 0.91791 0.04368 0.0
O34 O 0.49423 0.92567 0.11102 0.0
C35 C 0.48543 0.8966 0.954 0.0
C36 C 0.488 0.83333 0.03816 0.0
C37 C 0.4785 0.91291 0.12968 0.0
O38 O 0.47917 0.88111 0.98962 0.0
O39 O 0.5008 0.9111 0.96541 0.0
O40 O 0.51207 0.86293 0.13191 0.0
O41 O 0.52002 0.887 0.06339 0.0
Co42 Co 0.63354 0.49503 0.58391 0.0
O43 O 0.65749 0.50673 0.5363 0.0
O44 O 0.65962 0.47543 0.58822 0.0
C45 C 0.62441 0.52798 0.62729 0.0
O46 O 0.61325 0.47819 0.64027 0.0
Co47 Co 0.5839 0.51211 0.57146 0.0
O48 O 0.57828 0.49311 0.64043 0.0
C49 C 0.60173 0.47768 0.49063 0.0
C50 C 0.66947 0.48968 0.55375 0.0
C51 C 0.59292 0.47924 0.65965 0.0
O52 O 0.62086 0.47695 0.51702 0.0
O53 O 0.58574 0.49125 0.5038 0.0
O54 O 0.64134 0.5161 0.64597 0.0
O55 O 0.61509 0.52083 0.58038 0.0
Co56 Co 0.00619 0.86752 0.91174 0.0
O57 O 0.99465 0.84485 0.96354 0.0
O58 O 0.02585 0.84145 0.91163 0.0
C59 C 0.97298 0.87523 0.86809 0.0
O60 O 0.02297 0.88628 0.85163 0.0
Co61 Co 0.98947 0.9173 0.91335 0.0
O62 O 0.00327 0.91806 0.83538 0.0
C63 C 0.02394 0.90205 -0.00234 0.0
C64 C 0.0117 0.83248 0.94792 0.0
C65 C 0.01878 0.90413 0.82183 0.0
O66 O 0.02401 0.88195 0.97647 0.0
O67 O 0.01109 0.91796 0.97978 0.0
O68 O 0.98498 0.85801 0.85166 0.0
O69 O 0.98041 0.88598 0.91268 0.0
Co70 Co 0.62737 0.00599 0.43057 0.0
O71 O 0.65256 0.99301 0.47107 0.0
O72 O 0.6526 0.02686 0.43076 0.0
C73 C 0.61892 0.97506 0.37733 0.0
O74 O 0.60501 0.02454 0.38281 0.0
Co75 Co 0.5791 0.98554 0.44416 0.0
O76 O 0.57212 0.00566 0.37812 0.0
C77 C 0.59895 0.01267 0.53847 0.0
C78 C 0.66356 0.01135 0.45906 0.0
C79 C 0.5849 0.02188 0.36261 0.0
O80 O 0.61525 0.01912 0.50543 0.0
O81 O 0.58443 0.99777 0.52351 0.0
O82 O 0.63497 0.98856 0.36084 0.0
O83 O 0.61034 0.97954 0.42714 0.0
Co84 Co 0.48812 0.63204 0.91002 0.0
O85 O 0.50012 0.65446 0.96189 0.0
O86 O 0.46876 0.65835 0.91089 0.0
C87 C 0.52112 0.62419 0.86552 0.0
O88 O 0.47088 0.61362 0.85 0.0
Co89 Co 0.50429 0.58213 0.90993 0.0
O90 O 0.4903 0.5818 0.83216 0.0
C91 C 0.47023 0.5974 -0.00455 0.0
C92 C 0.48319 0.66709 0.94685 0.0
C93 C 0.47482 0.59589 0.8195 0.0
O94 O 0.47039 0.61762 0.97496 0.0
O95 O 0.48281 0.58142 0.9767 0.0
O96 O 0.50917 0.64149 0.84952 0.0
O97 O 0.51374 0.61334 0.90997 0.0
Co98 Co 0.87084 0.49528 0.42768 0.0
O99 O 0.84783 0.50616 0.4794 0.0
O100 O 0.8452 0.47503 0.4269 0.0
C101 C 0.87782 0.52885 0.38442 0.0
O102 O 0.89034 0.47922 0.36748 0.0
Co103 Co 0.92007 0.51414 0.43105 0.0
O104 O 0.92228 0.49906 0.35487 0.0
C105 C 0.90578 0.47879 0.51442 0.0
C106 C 0.8358 0.48899 0.46306 0.0
C107 C 0.9088 0.48332 0.34003 0.0
O108 O 0.88584 0.47754 0.49222 0.0
O109 O 0.92082 0.49288 0.49788 0.0
O110 O 0.86081 0.5166 0.36793 0.0
O111 O 0.88846 0.52149 0.42913 0.0
Co112 Co 0.99183 0.36382 0.92716 0.0
O113 O 0.0014 0.33856 0.97363 0.0
O114 O 0.96992 0.33975 0.92199 0.0
C115 C 0.02521 0.37035 0.88253 0.0
O116 O 0.97677 0.38616 0.87233 0.0
Co117 Co 0.01364 0.41137 0.94301 0.0
O118 O 0.9972 0.41815 0.87032 0.0
C119 C 0.98189 0.39376 0.03016 0.0
C120 C 0.98322 0.32843 0.95604 0.0
C121 C 0.9813 0.40573 0.85111 0.0
O122 O 0.97582 0.37762 -0.00385 0.0
O123 O 0.99826 0.40717 0.01918 0.0
O124 O 0.01191 0.35449 0.86393 0.0
O125 O 0.01908 0.37969 0.93032 0.0
Co126 Co 0.13275 0.99421 0.41075 0.0
O127 O 0.15636 0.00443 0.46204 0.0
O128 O 0.15884 0.97492 0.40353 0.0
C129 C 0.1235 0.02816 0.37249 0.0
O130 O 0.11295 0.97882 0.35055 0.0
Co131 Co 0.08282 0.01057 0.42396 0.0
O132 O 0.07764 0.99289 0.35253 0.0
C133 C 0.10054 0.97455 0.50004 0.0
C134 C 0.16841 0.98791 0.44157 0.0
C135 C 0.09259 0.97984 0.3313 0.0
O136 O 0.11969 0.97432 0.47367 0.0
O137 O 0.08462 0.98846 0.48884 0.0
O138 O 0.14094 0.01712 0.35341 0.0
O139 O 0.11399 0.01966 0.41764 0.0
Co140 Co 0.50639 0.13102 0.92891 0.0
O141 O 0.49209 0.15619 0.96676 0.0
O142 O 0.52596 0.15715 0.92639 0.0
C143 C 0.47619 0.11992 0.87617 0.0
O144 O 0.52606 0.10905 0.88356 0.0
Co145 Co 0.48879 0.08211 0.95003 0.0
O146 O 0.51194 0.07387 0.89171 0.0
C147 C 0.51417 0.10557 0.04091 0.0
C148 C 0.50994 0.1678 0.95359 0.0
C149 C 0.52627 0.08785 0.87145 0.0
O150 O 0.52036 0.12085 0.00462 0.0
O151 O 0.49944 0.09047 0.02931 0.0
O152 O 0.48871 0.13656 0.85857 0.0
O153 O 0.48088 0.11243 0.92708 0.0
Co154 Co 0.36063 0.50597 0.4091 0.0
O155 O 0.33719 0.49536 0.46024 0.0
O156 O 0.33414 0.52475 0.40158 0.0
C157 C 0.37042 0.4721 0.37131 0.0
O158 O 0.38032 0.52161 0.349 0.0
Co159 Co 0.41076 0.49036 0.42339 0.0
O160 O 0.41586 0.50814 0.35213 0.0
C161 C 0.3922 0.526 0.49938 0.0
C162 C 0.32482 0.51159 0.43963 0.0
C163 C 0.40078 0.52091 0.33036 0.0
O164 O 0.37324 0.52613 0.4721 0.0
O165 O 0.4083 0.51222 0.48879 0.0
O166 O 0.3529 0.48288 0.35181 0.0
O167 O 0.37974 0.48082 0.41645 0.0
Co168 Co 0.99066 0.1273 0.0685 0.0
O169 O 0.00111 0.1531 0.0256 0.0
O170 O 0.96852 0.1513 0.07238 0.0
C171 C 0.02309 0.12048 0.11721 0.0
O172 O 0.97459 0.1041 0.119 0.0
Co173 Co 0.01317 0.08019 0.05092 0.0
O174 O 0.99495 0.07203 0.11983 0.0
C175 C 0.98318 0.09887 0.96117 0.0
C176 C 0.98253 0.16301 0.04118 0.0
C177 C 0.97861 0.0841 0.13826 0.0
O178 O 0.9763 0.11439 -0.00394 0.0
O179 O -0.00058 0.08537 0.97291 0.0
O180 O 0.00919 0.13593 0.13529 0.0
O181 O 0.0181 0.11165 0.06791 0.0
Co182 Co 0.36988 0.99406 0.56411 0.0
O183 O 0.34442 0.0062 0.52269 0.0
O184 O 0.34467 0.97338 0.56859 0.0
C185 C 0.37911 0.02575 0.61335 0.0
O186 O 0.39251 0.97648 0.61303 0.0
Co187 Co 0.41805 0.01382 0.54386 0.0
O188 O 0.4258 0.99471 0.61148 0.0
C189 C 0.39681 0.98534 0.45492 0.0
C190 C 0.33359 0.98814 0.53811 0.0
C191 C 0.41296 0.97915 0.63069 0.0
O192 O 0.38135 0.97918 0.49077 0.0
O193 O 0.41125 0.00081 0.46587 0.0
O194 O 0.36291 0.01283 0.63176 0.0
O195 O 0.38713 0.02047 0.56336 0.0
Co196 Co 0.50574 0.36943 0.08215 0.0
O197 O 0.49375 0.3467 0.03107 0.0
O198 O 0.52483 0.34295 0.08332 0.0
C199 C 0.47266 0.37821 0.12548 0.0
O200 O 0.52288 0.38824 0.1416 0.0
Co201 Co 0.49011 0.41961 0.07788 0.0
O202 O 0.50403 0.42072 0.15563 0.0
C203 C 0.52419 0.40291 -0.00562 0.0
C204 C 0.51054 0.33407 0.04725 0.0
C205 C 0.51919 0.40655 0.17007 0.0
O206 O 0.52394 0.38304 0.01694 0.0
O207 O 0.51163 0.41922 0.0112 0.0
O208 O 0.48415 0.36069 0.14221 0.0
O209 O 0.48045 0.38849 0.08058 0.0
Co210 Co 0.12445 0.50035 0.57095 0.0
O211 O 0.1495 0.48881 0.52665 0.0
O212 O 0.14918 0.5216 0.5727 0.0
C213 C 0.117 0.46825 0.62051 0.0
O214 O 0.10249 0.51766 0.62261 0.0
Co215 Co 0.0762 0.47989 0.5593 0.0
O216 O 0.06957 0.49893 0.6277 0.0
C217 C 0.09455 0.50901 0.46672 0.0
C218 C 0.16014 0.50711 0.54113 0.0
C219 C 0.08259 0.51487 0.64383 0.0
O220 O 0.11134 0.51485 0.4989 0.0
O221 O 0.08026 0.49384 0.48128 0.0
O222 O 0.13306 0.48164 0.63749 0.0
O223 O 0.10772 0.47358 0.57203 0.0
H224 H 0.97851 0.69346 -0.00285 0.0
H225 H 0.04756 0.69461 0.05713 0.0
H226 H 0.98033 0.73373 0.97742 0.0
H227 H 0.04937 0.73524 0.03699 0.0
H228 H 0.04601 0.80259 0.92543 0.0
H229 H 0.04732 0.76239 0.95011 0.0
H230 H 0.98344 0.76872 0.0384 0.0
H231 H 0.98207 0.80868 0.01398 0.0
C232 C 0.99414 0.70229 0.00589 0.0
C233 C 0.01288 0.69083 0.02886 0.0
C234 C 0.99512 0.72541 -0.00507 0.0
C235 C 0.01491 0.73767 0.0062 0.0
C236 C 0.0339 0.72619 0.02782 0.0
C237 C 0.03285 0.70298 0.03944 0.0
C238 C 0.03238 0.79542 0.95067 0.0
C239 C 0.01386 0.80878 0.96741 0.0
C240 C 0.03319 0.77245 0.96493 0.0
C241 C 0.01537 0.76239 -0.00437 0.0
C242 C 0.99725 0.77594 0.01395 0.0
C243 C 0.99654 0.79887 0.00019 0.0
H244 H 0.68995 0.98023 0.51264 0.0
H245 H 0.69198 0.04736 0.43989 0.0
H246 H 0.73027 0.98196 0.53128 0.0
H247 H 0.73275 0.04903 0.45879 0.0
H248 H 0.80279 0.04595 0.56148 0.0
H249 H 0.76199 0.04834 0.54308 0.0
H250 H 0.76372 0.98222 0.46474 0.0
H251 H 0.80401 0.97979 0.4828 0.0
C252 C 0.69896 0.99546 0.50094 0.0
C253 C 0.68775 0.01359 0.47434 0.0
C254 C 0.72212 0.99639 0.51142 0.0
C255 C 0.73472 0.01552 0.49585 0.0
C256 C 0.72345 0.03408 0.47129 0.0
C257 C 0.70016 0.03309 0.46034 0.0
C258 C 0.79444 0.03206 0.53983 0.0
C259 C 0.80662 0.01262 0.52402 0.0
C260 C 0.77114 0.03345 0.52921 0.0
C261 C 0.75964 0.01533 0.50319 0.0
C262 C 0.77203 0.99629 0.48581 0.0
C263 C 0.79518 0.99497 0.49594 0.0
H264 H 0.51967 0.80543 0.99208 0.0
H265 H 0.45088 0.80619 0.05408 0.0
H266 H 0.51684 0.76511 0.97375 0.0
H267 H 0.44806 0.7655 0.03532 0.0
H268 H 0.4494 0.69765 0.925 0.0
H269 H 0.44908 0.73795 0.94901 0.0
H270 H 0.51315 0.73045 0.03577 0.0
H271 H 0.51352 0.69039 0.01206 0.0
C272 C 0.50388 0.79701 0.00158 0.0
C273 C 0.48551 0.80902 0.02468 0.0
C274 C 0.50232 0.77385 0.99142 0.0
C275 C 0.4823 0.76211 0.00361 0.0
C276 C 0.46369 0.77415 0.02544 0.0
C277 C 0.46533 0.79739 0.03628 0.0
C278 C 0.46326 0.70457 0.94981 0.0
C279 C 0.48155 0.69086 0.96628 0.0
C280 C 0.46303 0.72761 0.96367 0.0
C281 C 0.48121 0.73737 0.99369 0.0
C282 C 0.49907 0.72346 0.01184 0.0
C283 C 0.49921 0.70048 -0.00151 0.0
H284 H 0.69556 0.52086 0.49925 0.0
H285 H 0.69803 0.45394 0.57311 0.0
H286 H 0.73591 0.51902 0.47948 0.0
H287 H 0.73863 0.45207 0.55263 0.0
H288 H 0.80661 0.45393 0.44184 0.0
H289 H 0.76611 0.45253 0.46378 0.0
H290 H 0.77059 0.51792 0.5452 0.0
H291 H 0.81081 0.51932 0.52397 0.0
C292 C 0.70467 0.50566 0.51081 0.0
C293 C 0.69361 0.48757 0.53796 0.0
C294 C 0.72781 0.50467 0.49978 0.0
C295 C 0.74042 0.48549 0.515 0.0
C296 C 0.72928 0.46705 0.54039 0.0
C297 C 0.70609 0.46815 0.5522 0.0
C298 C 0.79897 0.46786 0.46504 0.0
C299 C 0.8119 0.48677 0.48096 0.0
C300 C 0.77583 0.46703 0.47765 0.0
C301 C 0.7652 0.48523 0.5056 0.0
C302 C 0.77828 0.50379 0.52289 0.0
C303 C 0.80137 0.50451 0.51101 0.0
H304 H 0.95891 0.29745 0.89483 0.0
H305 H 0.99802 0.30563 0.05098 0.0
H306 H 0.95548 0.25689 0.91468 0.0
H307 H 0.99385 0.26527 0.07161 0.0
H308 H 0.9577 0.19389 0.10172 0.0
H309 H 0.95464 0.23459 0.08258 0.0
H310 H 0.99461 0.2265 0.92817 0.0
H311 H 0.99841 0.18607 0.94815 0.0
C312 C 0.96633 0.29068 0.93395 0.0
C313 C 0.97878 0.30463 0.97133 0.0
C314 C 0.9644 0.26754 0.94514 0.0
C315 C 0.97434 0.25815 -0.0053 0.0
C316 C 0.98592 0.27224 0.03336 0.0
C317 C 0.98836 0.29525 0.02143 0.0
C318 C 0.96556 0.20078 0.06331 0.0
C319 C 0.97832 0.18689 0.02642 0.0
C320 C 0.96385 0.22399 0.05255 0.0
C321 C 0.97433 0.23348 0.00387 0.0
C322 C 0.98628 0.21946 0.96575 0.0
C323 C 0.98849 0.19641 0.97729 0.0
H324 H 0.31133 0.00581 0.4459 0.0
H325 H 0.30161 0.96404 0.59678 0.0
H326 H 0.27103 0.00294 0.42356 0.0
H327 H 0.26103 0.96188 0.57528 0.0
H328 H 0.18925 0.0025 0.54005 0.0
H329 H 0.22948 -0.00035 0.56424 0.0
H330 H 0.24182 0.96461 0.40388 0.0
H331 H 0.20153 0.96673 0.38035 0.0
C332 C 0.30058 0.99596 0.47412 0.0
C333 C 0.30956 0.98512 0.523 0.0
C334 C 0.2776 0.99428 0.46124 0.0
C335 C 0.26308 0.98221 0.4978 0.0
C336 C 0.27199 0.97126 0.54654 0.0
C337 C 0.29514 0.97243 0.55862 0.0
C338 C 0.20051 0.99392 0.51038 0.0
C339 C 0.19229 0.98484 0.45834 0.0
C340 C 0.22343 0.99223 0.52433 0.0
C341 C 0.23858 0.98191 0.48584 0.0
C342 C 0.23037 0.97259 0.43419 0.0
C343 C 0.20737 0.97378 0.42089 0.0
H344 H 0.54625 0.19612 0.94061 0.0
H345 H 0.47675 0.19465 -0.00295 0.0
H346 H 0.54767 0.23675 0.96034 0.0
H347 H 0.47821 0.23499 0.01658 0.0
H348 H 0.48044 0.3103 0.98227 0.0
H349 H 0.48147 0.27028 0.95812 0.0
H350 H 0.54543 0.26364 0.04595 0.0
H351 H 0.54446 0.30387 0.0702 0.0
C352 C 0.53133 0.20443 0.95737 0.0
C353 C 0.51138 0.19218 0.96719 0.0
C354 C 0.53217 0.22765 0.9688 0.0
C355 C 0.513 0.23907 0.98957 0.0
C356 C 0.49316 0.22674 -0.00022 0.0
C357 C 0.49238 0.20357 0.98895 0.0
C358 C 0.49484 0.30039 -0.00397 0.0
C359 C 0.51232 0.31024 0.02842 0.0
C360 C 0.49536 0.27743 0.98247 0.0
C361 C 0.51343 0.26378 0.00061 0.0
C362 C 0.53133 0.27376 0.03119 0.0
C363 C 0.53073 0.29676 0.04523 0.0
H364 H 0.30463 0.4973 0.53904 0.0
H365 H 0.29094 0.53112 0.37742 0.0
H366 H 0.26439 0.49901 0.56354 0.0
H367 H 0.2506 0.53208 0.4013 0.0
H368 H 0.18223 0.48936 0.44843 0.0
H369 H 0.2223 0.49328 0.42402 0.0
H370 H 0.23209 0.53578 0.57331 0.0
H371 H 0.1918 0.53256 0.59683 0.0
C372 C 0.29305 0.50521 0.50899 0.0
C373 C 0.30088 0.51409 0.45637 0.0
C374 C 0.27011 0.50624 0.52309 0.0
C375 C 0.25456 0.51567 0.4842 0.0
C376 C 0.26236 0.52477 0.4319 0.0
C377 C 0.28538 0.52426 0.41843 0.0
C378 C 0.19288 0.49976 0.47562 0.0
C379 C 0.18394 0.51069 0.52445 0.0
C380 C 0.21572 0.50204 0.46156 0.0
C381 C 0.23012 0.51481 0.49688 0.0
C382 C 0.22123 0.52587 0.5455 0.0
C383 C 0.19823 0.52408 0.55874 0.0
H384 H 0.99452 0.59527 0.85739 0.0
H385 H 0.05886 0.6008 0.94343 0.0
H386 H 0.01279 0.57777 0.77436 0.0
H387 H 0.07723 0.58238 0.86099 0.0
H388 H 0.1032 0.55311 0.68693 0.0
H389 H 0.08774 0.58003 0.75708 0.0
H390 H 0.02722 0.53975 0.76997 0.0
H391 H 0.04223 0.51337 0.70014 0.0
C392 C 0.01271 0.59329 0.85769 0.0
C393 C 0.02529 0.59923 0.9067 0.0
C394 C 0.02316 0.58304 0.8105 0.0
C395 C 0.04636 0.57804 0.81183 0.0
C396 C 0.05933 0.58594 0.85865 0.0
C397 C 0.04885 0.59657 0.90576 0.0
C398 C 0.08657 0.55007 0.70471 0.0
C399 C 0.07392 0.5311 0.6875 0.0
C400 C 0.07775 0.5655 0.7449 0.0
C401 C 0.05608 0.56229 0.76833 0.0
C402 C 0.04368 0.54315 0.75159 0.0
C403 C 0.05243 0.52783 0.71177 0.0
H404 H 0.93867 0.10115 0.18147 0.0
H405 H 0.98454 0.04467 0.19688 0.0
H406 H 0.91378 0.08374 0.25333 0.0
H407 H 0.9602 0.02778 0.26866 0.0
H408 H 0.90765 0.99041 0.35814 0.0
H409 H 0.92432 0.00948 0.27541 0.0
H410 H 0.91203 0.074 0.3568 0.0
H411 H 0.89442 0.05471 0.43894 0.0
C412 C 0.94349 0.0851 0.20017 0.0
C413 C 0.96355 0.07424 0.18293 0.0
C414 C 0.92924 0.07516 0.24139 0.0
C415 C 0.93477 0.05417 0.26605 0.0
C416 C 0.95502 0.04362 0.24939 0.0
C417 C 0.96914 0.05345 0.20839 0.0
C418 C 0.90793 0.0087 0.35754 0.0
C419 C 0.89995 0.0211 0.405 0.0
C420 C 0.91769 0.01964 0.31046 0.0
C421 C 0.92014 0.04324 0.31025 0.0
C422 C 0.91045 0.0558 0.35562 0.0
C423 C 0.90031 0.04479 0.4026 0.0
H424 H 0.43988 0.89837 0.93705 0.0
H425 H 0.50374 0.90337 0.84857 0.0
H426 H 0.42088 0.9152 0.85339 0.0
H427 H 0.48486 0.91914 0.76423 0.0
H428 H 0.45416 0.98144 0.68255 0.0
H429 H 0.47006 0.95646 0.75424 0.0
H430 H 0.40954 0.91585 0.75093 0.0
H431 H 0.39314 0.94145 0.67906 0.0
C432 C 0.44966 0.90217 0.8987 0.0
C433 C 0.47324 0.89982 0.89917 0.0
C434 C 0.43882 0.91186 0.85084 0.0
C435 C 0.45145 0.91909 0.80273 0.0
C436 C 0.47473 0.91442 0.80127 0.0
C437 C 0.48553 0.90516 0.84924 0.0
C438 C 0.44416 0.96717 0.69661 0.0
C439 C 0.42236 0.96348 0.67464 0.0
C440 C 0.45342 0.95264 0.73754 0.0
C441 C 0.44126 0.93386 0.75768 0.0
C442 C 0.41936 0.93015 0.73623 0.0
C443 C 0.41 0.9448 0.69502 0.0
H444 H 0.56352 0.3951 0.18844 0.0
H445 H 0.50733 0.43106 0.26403 0.0
H446 H 0.5878 0.40762 0.26862 0.0
H447 H 0.53128 0.44312 0.34365 0.0
H448 H 0.57053 0.44564 0.5034 0.0
H449 H 0.55297 0.42337 0.427 0.0
H450 H 0.6013 0.4493 0.30423 0.0
H451 H 0.6191 0.47166 0.38166 0.0
C452 C 0.55632 0.40536 0.22255 0.0
C453 C 0.53357 0.41216 0.22012 0.0
C454 C 0.57021 0.41259 0.26802 0.0
C455 C 0.56134 0.42619 0.31227 0.0
C456 C 0.53848 0.43242 0.3104 0.0
C457 C 0.5248 0.42562 0.26469 0.0
C458 C 0.57787 0.44594 0.46047 0.0
C459 C 0.59604 0.46028 0.44798 0.0
C460 C 0.56779 0.4333 0.41684 0.0
C461 C 0.57562 0.43489 0.35977 0.0
C462 C 0.59506 0.44774 0.34807 0.0
C463 C 0.60523 0.46047 0.39212 0.0
H464 H 0.11854 0.96395 0.24216 0.0
H465 H 0.05134 0.96117 0.31423 0.0
H466 H 0.10611 0.94027 0.16095 0.0
H467 H 0.03922 0.93717 0.23432 0.0
H468 H 0.02858 0.88148 0.1025 0.0
H469 H 0.04896 0.8967 0.18664 0.0
H470 H 0.0746 0.95102 0.08119 0.0
H471 H 0.05379 0.93626 -0.00186 0.0
C472 C 0.10126 0.95801 0.24104 0.0
C473 C 0.08582 0.96458 0.28398 0.0
C474 C 0.09421 0.94446 0.19485 0.0
C475 C 0.07181 0.93678 0.19194 0.0
C476 C 0.05666 0.94262 0.23609 0.0
C477 C 0.06353 0.95657 0.28135 0.0
C478 C 0.0391 0.89629 0.09726 0.0
C479 C 0.03967 0.90783 0.04438 0.0
C480 C 0.05064 0.905 0.14515 0.0
C481 C 0.06328 0.92499 0.14009 0.0
C482 C 0.06515 0.93548 0.08598 0.0
C483 C 0.05321 0.92712 0.03868 0.0
H484 H 0.54788 0.04762 0.87774 0.0
H485 H 0.54334 0.10813 0.77469 0.0
H486 H 0.57225 0.03045 0.80535 0.0
H487 H 0.56673 0.0905 0.70009 0.0
H488 H 0.61336 0.05451 0.57569 0.0
H489 H 0.60141 0.0742 0.66394 0.0
H490 H 0.56334 0.01524 0.71502 0.0
H491 H 0.57575 0.9957 0.62936 0.0
C492 C 0.55225 0.05728 0.83958 0.0
C493 C 0.54347 0.07902 0.83125 0.0
C494 C 0.56613 0.04743 0.79793 0.0
C495 C 0.57104 0.05884 0.74609 0.0
C496 C 0.56343 0.08123 0.73951 0.0
C497 C 0.5499 0.0913 0.78203 0.0
C498 C 0.60293 0.04566 0.60672 0.0
C499 C 0.59532 0.02364 0.59526 0.0
C500 C 0.5959 0.05699 0.65695 0.0
C501 C 0.58131 0.04639 0.69666 0.0
C502 C 0.57483 0.02394 0.68626 0.0
C503 C 0.58179 0.01273 0.63652 0.0
H504 H 0.37522 0.5357 0.23922 0.0
H505 H 0.44166 0.54056 0.31505 0.0
H506 H 0.38788 0.55897 0.1575 0.0
H507 H 0.454 0.56415 0.23461 0.0
H508 H 0.46476 0.61867 0.09935 0.0
H509 H 0.44415 0.60385 0.18355 0.0
H510 H 0.42016 0.54811 0.08027 0.0
H511 H 0.44118 0.56248 -0.00276 0.0
C512 C 0.39236 0.54204 0.23884 0.0
C513 C 0.40755 0.53614 0.28297 0.0
C514 C 0.39956 0.55534 0.19233 0.0
C515 C 0.42183 0.56346 0.19026 0.0
C516 C 0.43666 0.55835 0.23566 0.0
C517 C 0.42967 0.54464 0.28126 0.0
C518 C 0.45458 0.60361 0.09457 0.0
C519 C 0.45455 0.59159 0.04233 0.0
C520 C 0.4429 0.59511 0.14251 0.0
C521 C 0.43061 0.57487 0.13812 0.0
C522 C 0.42931 0.56384 0.08458 0.0
C523 C 0.4414 0.57199 0.03729 0.0
H524 H 0.99137 0.44118 0.78117 0.0
H525 H 0.9407 0.38983 0.80924 0.0
H526 H 0.97026 0.45519 0.69891 0.0
H527 H 0.91939 0.40417 0.72574 0.0
H528 H 0.88236 0.46375 0.61025 0.0
H529 H 0.89873 0.44306 0.69286 0.0
H530 H 0.96177 0.4371 0.60051 0.0
H531 H 0.94575 0.45767 0.5195 0.0
C532 C 0.97566 0.43291 0.77003 0.0
C533 C 0.9678 0.4143 0.8018 0.0
C534 C 0.96361 0.4409 0.72263 0.0
C535 C 0.94331 0.43062 0.70574 0.0
C536 C 0.93501 0.41236 0.73801 0.0
C537 C 0.94727 0.40413 0.78547 0.0
C538 C 0.8995 0.45747 0.60741 0.0
C539 C 0.91298 0.46265 0.55925 0.0
C540 C 0.90884 0.44568 0.65445 0.0
C541 C 0.93164 0.43896 0.65331 0.0
C542 C 0.94432 0.44252 0.60298 0.0
C543 C 0.93513 0.45428 0.55665 0.0
H544 H 0.99828 0.40629 0.13393 0.0
H545 H 0.93584 0.39406 0.04309 0.0
H546 H 0.97768 0.42542 0.21064 0.0
H547 H 0.91502 0.41369 0.12031 0.0
H548 H 0.8904 0.44259 0.30604 0.0
H549 H 0.90588 0.41616 0.23423 0.0
H550 H 0.9587 0.46382 0.19469 0.0
H551 H 0.94354 0.48999 0.26519 0.0
C552 C 0.98004 0.40716 0.13127 0.0
C553 C 0.96865 0.39895 0.08244 0.0
C554 C 0.96827 0.41822 0.17495 0.0
C555 C 0.94487 0.42151 0.17055 0.0
C556 C 0.93309 0.41142 0.12451 0.0
C557 C 0.94496 0.40013 0.08058 0.0
C558 C 0.90515 0.44749 0.28145 0.0
C559 C 0.91595 0.46827 0.29213 0.0
C560 C 0.91398 0.43236 0.24051 0.0
C561 C 0.93376 0.43777 0.21009 0.0
C562 C 0.94376 0.45897 0.21868 0.0
C563 C 0.93498 0.47402 0.25903 0.0
H564 H 0.00654 0.92803 0.72709 0.0
H565 H 0.063 0.89248 0.80256 0.0
H566 H 0.03015 0.93948 0.6463 0.0
H567 H 0.08692 0.9043 0.72111 0.0
H568 H 0.11874 0.96702 0.60726 0.0
H569 H 0.10096 0.94461 0.6844 0.0
H570 H 0.05118 0.92064 0.5627 0.0
H571 H 0.06871 0.94306 0.4866 0.0
C572 C 0.024 0.92255 0.72618 0.0
C573 C 0.03296 0.90944 0.77115 0.0
C574 C 0.03748 0.92897 0.67972 0.0
C575 C 0.06033 0.92266 0.6774 0.0
C576 C 0.06934 0.90934 0.72199 0.0
C577 C 0.05566 0.90252 0.76825 0.0
C578 C 0.10456 0.95622 0.59688 0.0
C579 C 0.09495 0.95668 0.54149 0.0
C580 C 0.09438 0.94346 0.64081 0.0
C581 C 0.07451 0.93121 0.62949 0.0
C582 C 0.0663 0.93015 0.57266 0.0
C583 C 0.07638 0.94285 0.52916 0.0
H584 H 0.5436 0.02098 0.3111 0.0
H585 H 0.60529 0.05988 0.31702 0.0
H586 H 0.52816 0.04679 0.2409 0.0
H587 H 0.58934 0.08636 0.24644 0.0
H588 H 0.5596 0.10409 0.05914 0.0
H589 H 0.57822 0.08748 0.14359 0.0
H590 H 0.51395 0.08437 0.23157 0.0
H591 H 0.49542 0.09988 0.14634 0.0
C592 C 0.55387 0.0352 0.29793 0.0
C593 C 0.57574 0.0383 0.32007 0.0
C594 C 0.54485 0.05022 0.25786 0.0
C595 C 0.55732 0.06894 0.23868 0.0
C596 C 0.57927 0.07213 0.26046 0.0
C597 C 0.58838 0.05698 0.30093 0.0
C598 C 0.54968 0.10059 0.09744 0.0
C599 C 0.5261 0.10304 0.09635 0.0
C600 C 0.5603 0.09102 0.14577 0.0
C601 C 0.54747 0.08401 0.19373 0.0
C602 C 0.52423 0.08893 0.19467 0.0
C603 C 0.51363 0.09805 0.1462 0.0
H604 H 0.37497 0.53198 0.60813 0.0
H605 H 0.42237 0.55902 0.4849 0.0
H606 H 0.39279 0.55445 0.6851 0.0
H607 H 0.44 0.58144 0.56097 0.0
H608 H 0.48677 0.57335 0.72235 0.0
H609 H 0.46267 0.56218 0.64211 0.0
H610 H 0.40584 0.59523 0.7228 0.0
H611 H 0.43025 0.60683 0.80354 0.0
C612 C 0.38852 0.54348 0.59723 0.0
C613 C 0.39739 0.54391 0.54104 0.0
C614 C 0.39873 0.55627 0.64107 0.0
C615 C 0.41795 0.56939 0.62891 0.0
C616 C 0.42537 0.57129 0.57152 0.0
C617 C 0.41523 0.55859 0.52804 0.0
C618 C 0.4692 0.57844 0.72278 0.0
C619 C 0.46036 0.59088 0.76917 0.0
C620 C 0.45544 0.57219 0.67668 0.0
C621 C 0.43243 0.57796 0.67622 0.0
C622 C 0.42354 0.59064 0.72222 0.0
C623 C 0.4375 0.59732 0.76808 0.0
H624 H 0.94988 0.01219 0.69227 0.0
H625 H 0.8912 0.05547 0.68248 0.0
H626 H 0.96614 0.03655 0.76481 0.0
H627 H 0.90798 0.08041 0.7554 0.0
H628 H 0.93753 0.09796 0.94275 0.0
H629 H 0.91839 0.08094 0.8594 0.0
H630 H 0.98271 0.07331 0.7735 0.0
H631 H 0.00167 0.08935 0.85728 0.0
C632 C 0.94047 0.02705 0.70512 0.0
C633 C 0.91923 0.03186 0.68103 0.0
C634 C 0.94994 0.04119 0.74661 0.0
C635 C 0.93857 0.06071 0.76528 0.0
C636 C 0.91719 0.06553 0.74184 0.0
C637 C 0.90762 0.05127 0.69999 0.0
C638 C 0.9474 0.09322 0.90524 0.0
C639 C 0.97106 0.09467 0.90653 0.0
C640 C 0.93648 0.08344 0.85755 0.0
C641 C 0.9491 0.07522 0.81042 0.0
C642 C 0.97255 0.07882 0.8098 0.0
C643 C 0.98342 0.0882 0.85753 0.0
H644 H 0.39915 0.93975 0.43855 0.0
H645 H 0.40281 0.00346 0.34903 0.0
H646 H 0.41567 0.92076 0.35439 0.0
H647 H 0.41824 0.98459 0.26423 0.0
H648 H 0.48035 0.95441 0.18011 0.0
H649 H 0.4556 0.97022 0.25246 0.0
H650 H 0.41579 0.90916 0.25208 0.0
H651 H 0.44119 0.89286 0.17951 0.0
C652 C 0.4026 0.94949 0.39992 0.0
C653 C 0.39995 0.97305 0.40017 0.0
C654 C 0.4121 0.93866 0.35176 0.0
C655 C 0.41885 0.95127 0.30313 0.0
C656 C 0.4139 0.97448 0.30162 0.0
C657 C 0.40483 0.98529 0.34987 0.0
C658 C 0.4663 0.94427 0.19493 0.0
C659 C 0.4628 0.92233 0.1736 0.0
C660 C 0.4519 0.95348 0.23625 0.0
C661 C 0.43342 0.94114 0.25748 0.0
C662 C 0.42986 0.91912 0.23657 0.0
C663 C 0.44439 0.90982 0.19492 0.0
H664 H 0.52631 0.38262 0.88882 0.0
H665 H 0.55622 0.43511 0.99281 0.0
H666 H 0.54641 0.39705 0.80344 0.0
H667 H 0.57674 0.44909 0.90844 0.0
H668 H 0.61898 0.46124 0.74565 0.0
H669 H 0.60632 0.43751 0.82634 0.0
H670 H 0.53871 0.4377 0.75692 0.0
H671 H 0.55112 0.46172 0.67734 0.0
C672 C 0.53781 0.3967 0.89365 0.0
C673 C 0.53982 0.40784 0.94688 0.0
C674 C 0.54918 0.40499 0.84503 0.0
C675 C 0.56307 0.42415 0.84961 0.0
C676 C 0.56632 0.43417 0.90394 0.0
C677 C 0.55457 0.42624 0.95204 0.0
C678 C 0.60149 0.45595 0.74738 0.0
C679 C 0.58596 0.46349 0.70573 0.0
C680 C 0.5943 0.44239 0.79334 0.0
C681 C 0.57161 0.4357 0.7974 0.0
C682 C 0.55635 0.4424 0.7543 0.0
C683 C 0.5634 0.45634 0.7092 0.0
H684 H 0.06932 0.49383 0.37722 0.0
H685 H 0.10966 0.55085 0.4308 0.0
H686 H 0.05718 0.51419 0.29264 0.0
H687 H 0.09784 0.57139 0.34363 0.0
H688 H 0.04105 0.60731 0.23067 0.0
H689 H 0.06338 0.58906 0.30667 0.0
H690 H 0.06782 0.52873 0.2021 0.0
H691 H 0.04461 0.54652 0.12831 0.0
C692 C 0.07595 0.51066 0.37041 0.0
C693 C 0.09031 0.52077 0.41119 0.0
C694 C 0.06913 0.52232 0.32127 0.0
C695 C 0.07656 0.54447 0.31094 0.0
C696 C 0.09167 0.5544 0.35051 0.0
C697 C 0.09859 0.54259 0.40013 0.0
C698 C 0.04718 0.59028 0.22382 0.0
C699 C 0.04077 0.57812 0.17434 0.0
C700 C 0.06007 0.57985 0.26713 0.0
C701 C 0.06701 0.55723 0.26108 0.0
C702 C 0.06219 0.54591 0.20906 0.0
C703 C 0.04896 0.55611 0.16662 0.0
H704 H 0.91289 0.55624 0.41175 0.0
H705 H 0.86563 0.54165 0.2746 0.0
H706 H 0.93356 0.58132 0.34814 0.0
H707 H 0.88602 0.56753 0.21087 0.0
H708 H 0.94826 0.58517 0.0983 0.0
H709 H 0.92163 0.56629 0.16173 0.0
H710 H 0.93484 0.61577 0.29488 0.0
H711 H 0.96219 0.63428 0.23163 0.0
C712 C 0.90664 0.55875 0.36822 0.0
C713 C 0.88778 0.54675 0.34796 0.0
C714 C 0.91843 0.57333 0.33178 0.0
C715 C 0.9116 0.57637 0.27414 0.0
C716 C 0.89196 0.56528 0.25476 0.0
C717 C 0.88016 0.5506 0.29135 0.0
C718 C 0.94539 0.59214 0.14097 0.0
C719 C 0.95752 0.61107 0.16023 0.0
C720 C 0.92991 0.58142 0.17721 0.0
C721 C 0.92607 0.58944 0.23356 0.0
C722 C 0.93761 0.60893 0.25204 0.0
C723 C 0.95322 0.61961 0.21577 0.0
H724 H 0.89007 0.9306 0.58985 0.0
H725 H 0.88088 0.97483 0.73597 0.0
H726 H 0.91043 0.9039 0.6505 0.0
H727 H 0.90281 0.94926 0.79612 0.0
H728 H 0.93505 0.89641 0.90462 0.0
H729 H 0.90743 0.91654 0.84613 0.0
H730 H 0.94479 0.89847 0.69192 0.0
H731 H 0.97112 0.87689 0.75067 0.0
C732 C 0.8924 0.9345 0.63523 0.0
C733 C 0.88386 0.95462 0.65847 0.0
C734 C 0.90434 0.91935 0.67 0.0
C735 C 0.90871 0.92436 0.72849 0.0
C736 C 0.89956 0.9444 0.75182 0.0
C737 C 0.88702 0.9592 0.71733 0.0
C738 C 0.93693 0.8964 0.85802 0.0
C739 C 0.95503 0.88502 0.83196 0.0
C740 C 0.92128 0.90819 0.82437 0.0
C741 C 0.92382 0.90954 0.76391 0.0
C742 C 0.94179 0.89759 0.738 0.0
C743 C 0.95703 0.88522 0.77163 0.0
H744 H 0.53826 0.8672 0.22296 0.0
H745 H 0.55096 0.91554 0.08716 0.0
H746 H 0.56434 0.88749 0.2861 0.0
H747 H 0.57615 0.93629 0.15056 0.0
H748 H 0.63049 0.96419 0.26571 0.0
H749 H 0.61104 0.93788 0.2012 0.0
H750 H 0.56397 0.92191 0.33801 0.0
H751 H 0.58383 0.94731 0.40241 0.0
C752 C 0.5467 0.88209 0.20654 0.0
C753 C 0.54238 0.88989 0.15033 0.0
C754 C 0.56154 0.89381 0.24278 0.0
C755 C 0.57225 0.9137 0.22371 0.0
C756 C 0.5685 0.92094 0.16665 0.0
C757 C 0.55383 0.90913 0.13038 0.0
C758 C 0.61618 0.95479 0.28203 0.0
C759 C 0.6086 0.95796 0.33896 0.0
C760 C 0.60493 0.93982 0.24503 0.0
C761 C 0.58582 0.9278 0.2642 0.0
C762 C 0.57878 0.93054 0.3218 0.0
C763 C 0.59007 0.94534 0.3587 0.0
H764 H 0.61948 0.52847 0.7441 0.0
H765 H 0.60377 0.56612 0.58988 0.0
H766 H 0.59623 0.55396 0.80092 0.0
H767 H 0.58203 0.59302 0.64683 0.0
H768 H 0.52139 0.61909 0.74877 0.0
H769 H 0.5484 0.59773 0.69145 0.0
H770 H 0.58926 0.58734 0.8445 0.0
H771 H 0.56096 0.60698 0.90192 0.0
C772 C 0.61159 0.54272 0.72279 0.0
C773 C 0.61337 0.54541 0.66281 0.0
C774 C 0.59828 0.55752 0.75536 0.0
C775 C 0.58693 0.57576 0.72888 0.0
C776 C 0.58983 0.57895 0.66895 0.0
C777 C 0.60255 0.56371 0.63621 0.0
C778 C 0.53636 0.61246 0.76965 0.0
C779 C 0.53921 0.61464 0.8295 0.0
C780 C 0.552 0.60024 0.73683 0.0
C781 C 0.57122 0.59047 0.76295 0.0
C782 C 0.5745 0.59388 0.82269 0.0
C783 C 0.55845 0.60543 0.85568 0.0
H784 H 0.08154 0.44081 0.59585 0.0
H785 H 0.13037 0.4554 0.72929 0.0
H786 H 0.06267 0.41436 0.6595 0.0
H787 H 0.11192 0.42809 0.79286 0.0
H788 H 0.05283 0.40536 0.91031 0.0
H789 H 0.07783 0.42619 0.8467 0.0
H790 H 0.06344 0.37919 0.70855 0.0
H791 H 0.03757 0.3588 0.77206 0.0
C792 C 0.08848 0.43809 0.6386 0.0
C793 C 0.10731 0.45041 0.65776 0.0
C794 C 0.07776 0.42269 0.67503 0.0
C795 C 0.08568 0.41904 0.73155 0.0
C796 C 0.10513 0.43071 0.74992 0.0
C797 C 0.1158 0.44627 0.71344 0.0
C798 C 0.05515 0.3993 0.86653 0.0
C799 C 0.04296 0.38061 0.84598 0.0
C800 C 0.0697 0.41117 0.83008 0.0
C801 C 0.07258 0.40455 0.77218 0.0
C802 C 0.06131 0.38505 0.75256 0.0
C803 C 0.04661 0.37324 0.78905 0.0
H804 H 0.05277 0.08718 0.08923 0.0
H805 H 0.03383 0.13173 0.22889 0.0
H806 H 0.0795 0.06818 0.15227 0.0
H807 H 0.06118 0.11304 0.292 0.0
H808 H 0.0856 0.05174 0.40072 0.0
H809 H 0.06389 0.077 0.33938 0.0
H810 H 0.11428 0.07062 0.20527 0.0
H811 H 0.13573 0.04469 0.26637 0.0
C812 C 0.05458 0.09315 0.13324 0.0
C813 C 0.04103 0.11083 0.15423 0.0
C814 C 0.07008 0.08236 0.16934 0.0
C815 C 0.07251 0.08901 0.22737 0.0
C816 C 0.05954 0.10729 0.24776 0.0
C817 C 0.04396 0.11809 0.21155 0.0
C818 C 0.0922 0.05591 0.3584 0.0
C819 C 0.11225 0.04599 0.33814 0.0
C820 C 0.07981 0.07057 0.32331 0.0
C821 C 0.08722 0.07575 0.26712 0.0
C822 C 0.10789 0.06669 0.24796 0.0
C823 C 0.12027 0.05196 0.28309 0.0
H824 H 0.36896 0.03711 0.72528 0.0
H825 H 0.41514 0.05215 0.58612 0.0
H826 H 0.39009 0.06233 0.78899 0.0
H827 H 0.43664 0.07662 0.64987 0.0
H828 H 0.46363 0.13137 0.76606 0.0
H829 H 0.43754 0.11121 0.70266 0.0
H830 H 0.42572 0.06216 0.83753 0.0
H831 H 0.45111 0.08268 0.90114 0.0
C832 C 0.38352 0.04591 0.70821 0.0
C833 C 0.39045 0.04252 0.65081 0.0
C834 C 0.39575 0.06023 0.7448 0.0
C835 C 0.41521 0.07142 0.72478 0.0
C836 C 0.42162 0.06855 0.66672 0.0
C837 C 0.40937 0.05434 0.63019 0.0
C838 C 0.45527 0.1164 0.78223 0.0
C839 C 0.45953 0.10855 0.83846 0.0
C840 C 0.44041 0.10476 0.74583 0.0
C841 C 0.42954 0.08497 0.76481 0.0
C842 C 0.43347 0.07748 0.82161 0.0
C843 C 0.44822 0.08916 0.858 0.0
H844 H 0.45859 0.36588 0.23393 0.0
H845 H 0.44544 0.41331 0.09624 0.0
H846 H 0.43067 0.38511 0.2945 0.0
H847 H 0.41795 0.43263 0.15665 0.0
H848 H 0.40724 0.44754 0.40305 0.0
H849 H 0.42919 0.42171 0.34352 0.0
H850 H 0.3813 0.42993 0.20425 0.0
H851 H 0.35949 0.45619 0.2637 0.0
C852 C 0.44956 0.38023 0.21639 0.0
C853 C 0.45429 0.38817 0.16049 0.0
C854 C 0.43367 0.39131 0.25114 0.0
C855 C 0.42211 0.41045 0.23047 0.0
C856 C 0.42629 0.41779 0.17371 0.0
C857 C 0.44221 0.4068 0.1392 0.0
C858 C 0.40122 0.44362 0.36 0.0
C859 C 0.38177 0.45409 0.33783 0.0
C860 C 0.41373 0.42866 0.32599 0.0
C861 C 0.4071 0.42386 0.26897 0.0
C862 C 0.38703 0.43352 0.24776 0.0
C863 C 0.37446 0.44846 0.2819 0.0
loop_
_geom_bond_atom_site_label_1
_geom_bond_atom_site_label_2
_geom_bond_distance
_geom_bond_site_symmetry_2
_ccdc_geom_bond_type
Co0 O1 2.216 1_455 S
Co0 O2 2.091 . S
Co0 O4 2.004 . S
Co0 O10 2.021 . S
Co0 O12 2.137 1_455 S
Co0 O13 2.244 1_455 S
O1 Co0 2.216 1_655 S
O1 C8 1.247 1_655 S
O2 Co0 2.091 . S
O2 C8 1.261 . S
C3 O12 1.247 . S
C3 O13 1.272 . S
O4 Co0 2.004 . S
O4 C9 1.259 . S
Co5 O6 2.061 . S
Co5 O11 2.052 . S
Co5 O13 2.135 1_455 S
O6 Co5 2.061 . S
O6 C9 1.235 . S
C7 O10 1.238 . S
C7 O11 1.241 . S
C8 O1 1.247 1_455 S
C8 O2 1.261 . S
C9 O4 1.259 . S
C9 O6 1.235 . S
O10 Co0 2.021 . S
O10 C7 1.238 . S
O11 Co5 2.052 . S
O11 C7 1.241 . S
O12 Co0 2.137 1_655 S
O12 C3 1.247 . S
O13 Co0 2.244 1_655 S
O13 C3 1.272 . S
O13 Co5 2.135 1_655 S
Co14 O15 2.216 1_545 S
Co14 O16 2.091 . S
Co14 O18 2.004 . S
Co14 O24 2.021 . S
Co14 O26 2.137 1_545 S
Co14 O27 2.244 1_545 S
O15 Co14 2.216 1_565 S
O15 C22 1.247 1_565 S
O16 Co14 2.091 . S
O16 C22 1.261 . S
C17 O26 1.247 . S
C17 O27 1.272 . S
O18 Co14 2.004 . S
O18 C23 1.259 . S
Co19 O20 2.061 . S
Co19 O25 2.052 . S
Co19 O27 2.135 1_545 S
O20 Co19 2.061 . S
O20 C23 1.235 . S
C21 O24 1.238 . S
C21 O25 1.241 . S
C22 O15 1.247 1_545 S
C22 O16 1.261 . S
C23 O18 1.259 . S
C23 O20 1.235 . S
O24 Co14 2.021 . S
O24 C21 1.238 . S
O25 Co19 2.052 . S
O25 C21 1.241 . S
O26 Co14 2.137 1_565 S
O26 C17 1.247 . S
O27 Co14 2.244 1_565 S
O27 C17 1.272 . S
O27 Co19 2.135 1_565 S
Co28 O29 2.216 . S
Co28 O30 2.091 . S
Co28 O32 2.004 . S
Co28 O38 2.021 . S
Co28 O40 2.137 . S
Co28 O41 2.244 . S
O29 Co28 2.216 . S
O29 C36 1.247 . S
O30 Co28 2.091 . S
O30 C36 1.261 . S
C31 O40 1.247 . S
C31 O41 1.272 . S
O32 Co28 2.004 . S
O32 C37 1.259 . S
Co33 O34 2.061 . S
Co33 O39 2.052 . S
Co33 O41 2.135 . S
O34 Co33 2.061 . S
O34 C37 1.235 . S
C35 O38 1.238 . S
C35 O39 1.241 . S
C36 O29 1.247 . S
C36 O30 1.261 . S
C37 O32 1.259 . S
C37 O34 1.235 . S
O38 Co28 2.021 . S
O38 C35 1.238 . S
O39 Co33 2.052 . S
O39 C35 1.241 . S
O40 Co28 2.137 . S
O40 C31 1.247 . S
O41 Co28 2.244 . S
O41 C31 1.272 . S
O41 Co33 2.135 . S
Co42 O43 2.216 . S
Co42 O44 2.091 . S
Co42 O46 2.004 . S
Co42 O52 2.021 . S
Co42 O54 2.137 . S
Co42 O55 2.244 . S
O43 Co42 2.216 . S
O43 C50 1.247 . S
O44 Co42 2.091 . S
O44 C50 1.261 . S
C45 O54 1.247 . S
C45 O55 1.272 . S
O46 Co42 2.004 . S
O46 C51 1.259 . S
Co47 O48 2.061 . S
Co47 O53 2.052 . S
Co47 O55 2.135 . S
O48 Co47 2.061 . S
O48 C51 1.235 . S
C49 O52 1.238 . S
C49 O53 1.241 . S
C50 O43 1.247 . S
C50 O44 1.261 . S
C51 O46 1.259 . S
C51 O48 1.235 . S
O52 Co42 2.021 . S
O52 C49 1.238 . S
O53 Co47 2.052 . S
O53 C49 1.241 . S
O54 Co42 2.137 . S
O54 C45 1.247 . S
O55 Co42 2.244 . S
O55 C45 1.272 . S
O55 Co47 2.135 . S
Co56 O57 2.216 1_455 S
Co56 O58 2.091 . S
Co56 O60 2.004 . S
Co56 O66 2.021 . S
Co56 O68 2.137 1_455 S
Co56 O69 2.244 1_455 S
O57 Co56 2.216 1_655 S
O57 C64 1.247 1_655 S
O58 Co56 2.091 . S
O58 C64 1.261 . S
C59 O68 1.247 . S
C59 O69 1.272 . S
O60 Co56 2.004 . S
O60 C65 1.259 . S
Co61 O62 2.061 . S
Co61 O67 2.052 . S
Co61 O69 2.135 1_455 S
O62 Co61 2.061 . S
O62 C65 1.235 . S
C63 O66 1.238 . S
C63 O67 1.241 . S
C64 O57 1.247 1_455 S
C64 O58 1.261 . S
C65 O60 1.259 . S
C65 O62 1.235 . S
O66 Co56 2.021 . S
O66 C63 1.238 . S
O67 Co61 2.052 . S
O67 C63 1.241 . S
O68 Co56 2.137 1_655 S
O68 C59 1.247 . S
O69 Co56 2.244 1_655 S
O69 C59 1.272 . S
O69 Co61 2.135 1_655 S
Co70 O71 2.216 1_545 S
Co70 O72 2.091 . S
Co70 O74 2.004 . S
Co70 O80 2.021 . S
Co70 O82 2.137 1_545 S
Co70 O83 2.244 1_545 S
O71 Co70 2.216 1_565 S
O71 C78 1.247 1_565 S
O72 Co70 2.091 . S
O72 C78 1.261 . S
C73 O82 1.247 . S
C73 O83 1.272 . S
O74 Co70 2.004 . S
O74 C79 1.259 . S
Co75 O76 2.061 . S
Co75 O81 2.052 . S
Co75 O83 2.135 1_545 S
O76 Co75 2.061 . S
O76 C79 1.235 . S
C77 O80 1.238 . S
C77 O81 1.241 . S
C78 O71 1.247 1_545 S
C78 O72 1.261 . S
C79 O74 1.259 . S
C79 O76 1.235 . S
O80 Co70 2.021 . S
O80 C77 1.238 . S
O81 Co75 2.052 . S
O81 C77 1.241 . S
O82 Co70 2.137 1_565 S
O82 C73 1.247 . S
O83 Co70 2.244 1_565 S
O83 C73 1.272 . S
O83 Co75 2.135 1_565 S
Co84 O85 2.216 . S
Co84 O86 2.091 . S
Co84 O88 2.004 . S
Co84 O94 2.021 . S
Co84 O96 2.137 . S
Co84 O97 2.244 . S
O85 Co84 2.216 . S
O85 C92 1.247 . S
O86 Co84 2.091 . S
O86 C92 1.261 . S
C87 O96 1.247 . S
C87 O97 1.272 . S
O88 Co84 2.004 . S
O88 C93 1.259 . S
Co89 O90 2.061 . S
Co89 O95 2.052 . S
Co89 O97 2.135 . S
O90 Co89 2.061 . S
O90 C93 1.235 . S
C91 O94 1.238 . S
C91 O95 1.241 . S
C92 O85 1.247 . S
C92 O86 1.261 . S
C93 O88 1.259 . S
C93 O90 1.235 . S
O94 Co84 2.021 . S
O94 C91 1.238 . S
O95 Co89 2.052 . S
O95 C91 1.241 . S
O96 Co84 2.137 . S
O96 C87 1.247 . S
O97 Co84 2.244 . S
O97 C87 1.272 . S
O97 Co89 2.135 . S
Co98 O99 2.216 . S
Co98 O100 2.091 . S
Co98 O102 2.004 . S
Co98 O108 2.021 . S
Co98 O110 2.137 . S
Co98 O111 2.244 . S
O99 Co98 2.216 . S
O99 C106 1.247 . S
O100 Co98 2.091 . S
O100 C106 1.261 . S
C101 O110 1.247 . S
C101 O111 1.272 . S
O102 Co98 2.004 . S
O102 C107 1.259 . S
Co103 O104 2.061 . S
Co103 O109 2.052 . S
Co103 O111 2.135 . S
O104 Co103 2.061 . S
O104 C107 1.235 . S
C105 O108 1.238 . S
C105 O109 1.241 . S
C106 O99 1.247 . S
C106 O100 1.261 . S
C107 O102 1.259 . S
C107 O104 1.235 . S
O108 Co98 2.021 . S
O108 C105 1.238 . S
O109 Co103 2.052 . S
O109 C105 1.241 . S
O110 Co98 2.137 . S
O110 C101 1.247 . S
O111 Co98 2.244 . S
O111 C101 1.272 . S
O111 Co103 2.135 . S
Co112 O113 2.216 1_655 S
Co112 O114 2.091 . S
Co112 O116 2.004 . S
Co112 O122 2.021 . S
Co112 O124 2.137 1_655 S
Co112 O125 2.244 1_655 S
O113 Co112 2.216 1_455 S
O113 C120 1.247 1_455 S
O114 Co112 2.091 . S
O114 C120 1.261 . S
C115 O124 1.247 . S
C115 O125 1.272 . S
O116 Co112 2.004 . S
O116 C121 1.259 . S
Co117 O118 2.061 . S
Co117 O123 2.052 . S
Co117 O125 2.135 1_655 S
O118 Co117 2.061 . S
O118 C121 1.235 . S
C119 O122 1.238 . S
C119 O123 1.241 . S
C120 O113 1.247 1_655 S
C120 O114 1.261 . S
C121 O116 1.259 . S
C121 O118 1.235 . S
O122 Co112 2.021 . S
O122 C119 1.238 . S
O123 Co117 2.052 . S
O123 C119 1.241 . S
O124 Co112 2.137 1_455 S
O124 C115 1.247 . S
O125 Co112 2.244 1_455 S
O125 C115 1.272 . S
O125 Co117 2.135 1_455 S
Co126 O127 2.216 1_565 S
Co126 O128 2.091 . S
Co126 O130 2.004 . S
Co126 O136 2.021 . S
Co126 O138 2.137 1_565 S
Co126 O139 2.244 1_565 S
O127 Co126 2.216 1_545 S
O127 C134 1.247 1_545 S
O128 Co126 2.091 . S
O128 C134 1.261 . S
C129 O138 1.247 . S
C129 O139 1.272 . S
O130 Co126 2.004 . S
O130 C135 1.259 . S
Co131 O132 2.061 . S
Co131 O137 2.052 . S
Co131 O139 2.135 1_565 S
O132 Co131 2.061 . S
O132 C135 1.235 . S
C133 O136 1.238 . S
C133 O137 1.241 . S
C134 O127 1.247 1_565 S
C134 O128 1.261 . S
C135 O130 1.259 . S
C135 O132 1.235 . S
O136 Co126 2.021 . S
O136 C133 1.238 . S
O137 Co131 2.052 . S
O137 C133 1.241 . S
O138 Co126 2.137 1_545 S
O138 C129 1.247 . S
O139 Co126 2.244 1_545 S
O139 C129 1.272 . S
O139 Co131 2.135 1_545 S
Co140 O141 2.216 . S
Co140 O142 2.091 . S
Co140 O144 2.004 . S
Co140 O150 2.021 . S
Co140 O152 2.137 . S
Co140 O153 2.244 . S
O141 Co140 2.216 . S
O141 C148 1.247 . S
O142 Co140 2.091 . S
O142 C148 1.261 . S
C143 O152 1.247 . S
C143 O153 1.272 . S
O144 Co140 2.004 . S
O144 C149 1.259 . S
Co145 O146 2.061 . S
Co145 O151 2.052 . S
Co145 O153 2.135 . S
O146 Co145 2.061 . S
O146 C149 1.235 . S
C147 O150 1.238 . S
C147 O151 1.241 . S
C148 O141 1.247 . S
C148 O142 1.261 . S
C149 O144 1.259 . S
C149 O146 1.235 . S
O150 Co140 2.021 . S
O150 C147 1.238 . S
O151 Co145 2.052 . S
O151 C147 1.241 . S
O152 Co140 2.137 . S
O152 C143 1.247 . S
O153 Co140 2.244 . S
O153 C143 1.272 . S
O153 Co145 2.135 . S
Co154 O155 2.216 . S
Co154 O156 2.091 . S
Co154 O158 2.004 . S
Co154 O164 2.021 . S
Co154 O166 2.137 . S
Co154 O167 2.244 . S
O155 Co154 2.216 . S
O155 C162 1.247 . S
O156 Co154 2.091 . S
O156 C162 1.261 . S
C157 O166 1.247 . S
C157 O167 1.272 . S
O158 Co154 2.004 . S
O158 C163 1.259 . S
Co159 O160 2.061 . S
Co159 O165 2.052 . S
Co159 O167 2.135 . S
O160 Co159 2.061 . S
O160 C163 1.235 . S
C161 O164 1.238 . S
C161 O165 1.241 . S
C162 O155 1.247 . S
C162 O156 1.261 . S
C163 O158 1.259 . S
C163 O160 1.235 . S
O164 Co154 2.021 . S
O164 C161 1.238 . S
O165 Co159 2.052 . S
O165 C161 1.241 . S
O166 Co154 2.137 . S
O166 C157 1.247 . S
O167 Co154 2.244 . S
O167 C157 1.272 . S
O167 Co159 2.135 . S
Co168 O169 2.216 1_655 S
Co168 O170 2.091 . S
Co168 O172 2.004 . S
Co168 O178 2.021 . S
Co168 O180 2.137 1_655 S
Co168 O181 2.244 1_655 S
O169 Co168 2.216 1_455 S
O169 C176 1.247 1_455 S
O170 Co168 2.091 . S
O170 C176 1.261 . S
C171 O180 1.247 . S
C171 O181 1.272 . S
O172 Co168 2.004 . S
O172 C177 1.259 . S
Co173 O174 2.061 . S
Co173 O179 2.052 . S
Co173 O181 2.135 1_655 S
O174 Co173 2.061 . S
O174 C177 1.235 . S
C175 O178 1.238 . S
C175 O179 1.241 . S
C176 O169 1.247 1_655 S
C176 O170 1.261 . S
C177 O172 1.259 . S
C177 O174 1.235 . S
O178 Co168 2.021 . S
O178 C175 1.238 . S
O179 Co173 2.052 . S
O179 C175 1.241 . S
O180 Co168 2.137 1_455 S
O180 C171 1.247 . S
O181 Co168 2.244 1_455 S
O181 C171 1.272 . S
O181 Co173 2.135 1_455 S
Co182 O183 2.216 1_565 S
Co182 O184 2.091 . S
Co182 O186 2.004 . S
Co182 O192 2.021 . S
Co182 O194 2.137 1_565 S
Co182 O195 2.244 1_565 S
O183 Co182 2.216 1_545 S
O183 C190 1.247 1_545 S
O184 Co182 2.091 . S
O184 C190 1.261 . S
C185 O194 1.247 . S
C185 O195 1.272 . S
O186 Co182 2.004 . S
O186 C191 1.259 . S
Co187 O188 2.061 . S
Co187 O193 2.052 . S
Co187 O195 2.135 1_565 S
O188 Co187 2.061 . S
O188 C191 1.235 . S
C189 O192 1.238 . S
C189 O193 1.241 . S
C190 O183 1.247 1_565 S
C190 O184 1.261 . S
C191 O186 1.259 . S
C191 O188 1.235 . S
O192 Co182 2.021 . S
O192 C189 1.238 . S
O193 Co187 2.052 . S
O193 C189 1.241 . S
O194 Co182 2.137 1_545 S
O194 C185 1.247 . S
O195 Co182 2.244 1_545 S
O195 C185 1.272 . S
O195 Co187 2.135 1_545 S
Co196 O197 2.216 . S
Co196 O198 2.091 . S
Co196 O200 2.004 . S
Co196 O206 2.021 . S
Co196 O208 2.137 . S
Co196 O209 2.244 . S
O197 Co196 2.216 . S
O197 C204 1.247 . S
O198 Co196 2.091 . S
O198 C204 1.261 . S
C199 O208 1.247 . S
C199 O209 1.272 . S
O200 Co196 2.004 . S
O200 C205 1.259 . S
Co201 O202 2.061 . S
Co201 O207 2.052 . S
Co201 O209 2.135 . S
O202 Co201 2.061 . S
O202 C205 1.235 . S
C203 O206 1.238 . S
C203 O207 1.241 . S
C204 O197 1.247 . S
C204 O198 1.261 . S
C205 O200 1.259 . S
C205 O202 1.235 . S
O206 Co196 2.021 . S
O206 C203 1.238 . S
O207 Co201 2.052 . S
O207 C203 1.241 . S
O208 Co196 2.137 . S
O208 C199 1.247 . S
O209 Co196 2.244 . S
O209 C199 1.272 . S
O209 Co201 2.135 . S
Co210 O211 2.216 . S
Co210 O212 2.091 . S
Co210 O214 2.004 . S
Co210 O220 2.021 . S
Co210 O222 2.137 . S
Co210 O223 2.244 . S
O211 Co210 2.216 . S
O211 C218 1.247 . S
O212 Co210 2.091 . S
O212 C218 1.261 . S
C213 O222 1.247 . S
C213 O223 1.272 . S
O214 Co210 2.004 . S
O214 C219 1.259 . S
Co215 O216 2.061 . S
Co215 O221 2.052 . S
Co215 O223 2.135 . S
O216 Co215 2.061 . S
O216 C219 1.235 . S
C217 O220 1.238 . S
C217 O221 1.241 . S
C218 O211 1.247 . S
C218 O212 1.261 . S
C219 O214 1.259 . S
C219 O216 1.235 . S
O220 Co210 2.021 . S
O220 C217 1.238 . S
O221 Co215 2.052 . S
O221 C217 1.241 . S
O222 Co210 2.137 . S
O222 C213 1.247 . S
O223 Co210 2.244 . S
O223 C213 1.272 . S
O223 Co215 2.135 . S
H224 C232 0.950 . S
H225 C237 0.950 . S
H226 C234 0.950 . S
H227 C236 0.950 1_556 S
H228 C238 0.950 . S
H229 C240 0.950 . S
H230 C242 0.950 1_554 S
H231 C243 0.950 . S
C232 H224 0.950 . S
C232 C233 1.386 1_655 S
C232 C234 1.391 . S
C233 C232 1.386 1_455 S
C233 C237 1.393 . S
C234 H226 0.950 . S
C234 C232 1.391 . S
C234 C235 1.400 1_655 S
C235 C234 1.400 1_455 S
C235 C236 1.398 . S
C235 C241 1.491 1_554 S
C236 H227 0.950 1_554 S
C236 C235 1.398 . S
C236 C237 1.391 . S
C237 H225 0.950 . S
C237 C233 1.393 . S
C237 C236 1.391 . S
C238 H228 0.950 . S
C238 C239 1.386 . S
C238 C240 1.391 . S
C239 C238 1.386 . S
C239 C243 1.393 1_455 S
C240 H229 0.950 . S
C240 C238 1.391 . S
C240 C241 1.400 . S
C241 C235 1.491 1_556 S
C241 C240 1.400 . S
C241 C242 1.398 1_455 S
C242 H230 0.950 1_556 S
C242 C241 1.398 1_655 S
C242 C243 1.391 . S
C243 H231 0.950 . S
C243 C239 1.393 1_655 S
C243 C242 1.391 . S
H244 C252 0.950 . S
H245 C257 0.950 . S
H246 C254 0.950 . S
H247 C256 0.950 . S
H248 C258 0.950 . S
H249 C260 0.950 . S
H250 C262 0.950 . S
H251 C263 0.950 . S
C252 H244 0.950 . S
C252 C253 1.386 1_565 S
C252 C254 1.391 . S
C253 C252 1.386 1_545 S
C253 C257 1.393 . S
C254 H246 0.950 . S
C254 C252 1.391 . S
C254 C255 1.400 1_565 S
C255 C254 1.400 1_545 S
C255 C256 1.398 . S
C255 C261 1.491 . S
C256 H247 0.950 . S
C256 C255 1.398 . S
C256 C257 1.391 . S
C257 H245 0.950 . S
C257 C253 1.393 . S
C257 C256 1.391 . S
C258 H248 0.950 . S
C258 C259 1.386 . S
C258 C260 1.391 . S
C259 C258 1.386 . S
C259 C263 1.393 1_545 S
C260 H249 0.950 . S
C260 C258 1.391 . S
C260 C261 1.400 . S
C261 C255 1.491 . S
C261 C260 1.400 . S
C261 C262 1.398 1_545 S
C262 H250 0.950 . S
C262 C261 1.398 1_565 S
C262 C263 1.391 . S
C263 H251 0.950 . S
C263 C259 1.393 1_565 S
C263 C262 1.391 . S
H264 C272 0.950 . S
H265 C277 0.950 . S
H266 C274 0.950 1_556 S
H267 C276 0.950 . S
H268 C278 0.950 . S
H269 C280 0.950 1_554 S
H270 C282 0.950 . S
H271 C283 0.950 . S
C272 H264 0.950 . S
C272 C273 1.386 . S
C272 C274 1.391 . S
C273 C272 1.386 . S
C273 C277 1.393 . S
C274 H266 0.950 1_554 S
C274 C272 1.391 . S
C274 C275 1.400 . S
C275 C274 1.400 . S
C275 C276 1.398 . S
C275 C281 1.491 1_554 S
C276 H267 0.950 . S
C276 C275 1.398 . S
C276 C277 1.391 . S
C277 H265 0.950 . S
C277 C273 1.393 . S
C277 C276 1.391 . S
C278 H268 0.950 . S
C278 C279 1.386 . S
C278 C280 1.391 . S
C279 C278 1.386 . S
C279 C283 1.393 . S
C280 H269 0.950 1_556 S
C280 C278 1.391 . S
C280 C281 1.400 . S
C281 C275 1.491 1_556 S
C281 C280 1.400 . S
C281 C282 1.398 . S
C282 H270 0.950 . S
C282 C281 1.398 . S
C282 C283 1.391 . S
C283 H271 0.950 . S
C283 C279 1.393 . S
C283 C282 1.391 . S
H284 C292 0.950 . S
H285 C297 0.950 . S
H286 C294 0.950 . S
H287 C296 0.950 . S
H288 C298 0.950 . S
H289 C300 0.950 . S
H290 C302 0.950 . S
H291 C303 0.950 . S
C292 H284 0.950 . S
C292 C293 1.386 . S
C292 C294 1.391 . S
C293 C292 1.386 . S
C293 C297 1.393 . S
C294 H286 0.950 . S
C294 C292 1.391 . S
C294 C295 1.400 . S
C295 C294 1.400 . S
C295 C296 1.398 . S
C295 C301 1.491 . S
C296 H287 0.950 . S
C296 C295 1.398 . S
C296 C297 1.391 . S
C297 H285 0.950 . S
C297 C293 1.393 . S
C297 C296 1.391 . S
C298 H288 0.950 . S
C298 C299 1.386 . S
C298 C300 1.391 . S
C299 C298 1.386 . S
C299 C303 1.393 . S
C300 H289 0.950 . S
C300 C298 1.391 . S
C300 C301 1.400 . S
C301 C295 1.491 . S
C301 C300 1.400 . S
C301 C302 1.398 . S
C302 H290 0.950 . S
C302 C301 1.398 . S
C302 C303 1.391 . S
C303 H291 0.950 . S
C303 C299 1.393 . S
C303 C302 1.391 . S
H304 C312 0.950 . S
H305 C317 0.950 1_554 S
H306 C314 0.950 . S
H307 C316 0.950 . S
H308 C318 0.950 . S
H309 C320 0.950 . S
H310 C322 0.947 1_455 S
H311 C323 0.948 1_456 S
C312 H304 0.950 . S
C312 C313 1.386 1_455 S
C312 C314 1.391 . S
C313 C312 1.386 1_655 S
C313 C317 1.393 . S
C314 H306 0.950 . S
C314 C312 1.391 . S
C314 C315 1.400 1_455 S
C315 C314 1.400 1_655 S
C315 C316 1.398 1_556 S
C315 C321 1.491 1_556 S
C316 H307 0.950 . S
C316 C315 1.398 1_554 S
C316 C317 1.391 1_554 S
C317 H305 0.950 1_556 S
C317 C313 1.393 . S
C317 C316 1.391 1_556 S
C318 H308 0.950 . S
C318 C319 1.386 . S
C318 C320 1.391 . S
C319 C318 1.386 . S
C319 C323 1.395 . S
C320 H309 0.950 . S
C320 C318 1.391 . S
C320 C321 1.400 . S
C321 C315 1.491 1_554 S
C321 C320 1.400 . S
C321 C322 1.402 1_554 S
C322 H310 0.947 1_655 S
C322 C321 1.402 1_556 S
C322 C323 1.391 1_556 S
C323 H311 0.948 1_654 S
C323 C319 1.395 . S
C323 C322 1.391 1_554 S
H324 C332 0.950 . S
H325 C337 0.956 . S
H326 C334 0.950 . S
H327 C336 0.950 . S
H328 C338 0.947 1_545 S
H329 C340 0.946 1_545 S
H330 C342 0.950 . S
H331 C343 0.950 . S
C332 H324 0.950 . S
C332 C333 1.386 . S
C332 C334 1.391 . S
C333 C332 1.386 . S
C333 C337 1.393 . S
C334 H326 0.950 . S
C334 C332 1.391 . S
C334 C335 1.400 . S
C335 C334 1.400 . S
C335 C336 1.398 . S
C335 C341 1.491 . S
C336 H327 0.950 . S
C336 C335 1.398 . S
C336 C337 1.391 . S
C337 H325 0.956 . S
C337 C333 1.393 . S
C337 C336 1.391 . S
C338 H328 0.947 1_565 S
C338 C339 1.388 . S
C338 C340 1.391 . S
C339 C338 1.388 . S
C339 C343 1.393 . S
C340 H329 0.946 1_565 S
C340 C338 1.391 . S
C340 C341 1.404 . S
C341 C335 1.491 . S
C341 C340 1.404 . S
C341 C342 1.398 . S
C342 H330 0.950 . S
C342 C341 1.398 . S
C342 C343 1.391 . S
C343 H331 0.950 . S
C343 C339 1.393 . S
C343 C342 1.391 . S
H344 C352 0.950 . S
H345 C357 0.950 . S
H346 C354 0.950 . S
H347 C356 0.950 . S
H348 C358 0.950 . S
H349 C360 0.950 . S
H350 C362 0.950 . S
H351 C363 0.950 . S
C352 H344 0.950 . S
C352 C353 1.386 . S
C352 C354 1.391 . S
C353 C352 1.386 . S
C353 C357 1.393 . S
C354 H346 0.950 . S
C354 C352 1.391 . S
C354 C355 1.400 . S
C355 C354 1.400 . S
C355 C356 1.398 . S
C355 C361 1.491 1_556 S
C356 H347 0.950 . S
C356 C355 1.398 . S
C356 C357 1.391 . S
C357 H345 0.950 . S
C357 C353 1.393 . S
C357 C356 1.391 . S
C358 H348 0.950 . S
C358 C359 1.386 . S
C358 C360 1.391 . S
C359 C358 1.386 . S
C359 C363 1.393 . S
C360 H349 0.950 . S
C360 C358 1.391 . S
C360 C361 1.400 . S
C361 C355 1.491 1_554 S
C361 C360 1.400 . S
C361 C362 1.398 . S
C362 H350 0.950 . S
C362 C361 1.398 . S
C362 C363 1.391 . S
C363 H351 0.950 . S
C363 C359 1.393 . S
C363 C362 1.391 . S
H364 C372 0.950 . S
H365 C377 0.950 . S
H366 C374 0.950 . S
H367 C376 0.950 . S
H368 C378 0.950 . S
H369 C380 0.950 . S
H370 C382 0.950 . S
H371 C383 0.950 . S
C372 H364 0.950 . S
C372 C373 1.386 . S
C372 C374 1.391 . S
C373 C372 1.386 . S
C373 C377 1.393 . S
C374 H366 0.950 . S
C374 C372 1.391 . S
C374 C375 1.400 . S
C375 C374 1.400 . S
C375 C376 1.398 . S
C375 C381 1.491 . S
C376 H367 0.950 . S
C376 C375 1.398 . S
C376 C377 1.391 . S
C377 H365 0.950 . S
C377 C373 1.393 . S
C377 C376 1.391 . S
C378 H368 0.950 . S
C378 C379 1.386 . S
C378 C380 1.391 . S
C379 C378 1.386 . S
C379 C383 1.393 . S
C380 H369 0.950 . S
C380 C378 1.391 . S
C380 C381 1.400 . S
C381 C375 1.491 . S
C381 C380 1.400 . S
C381 C382 1.398 . S
C382 H370 0.950 . S
C382 C381 1.398 . S
C382 C383 1.391 . S
C383 H371 0.950 . S
C383 C379 1.393 . S
C383 C382 1.391 . S
H384 C392 0.950 . S
H385 C397 0.950 1_554 S
H386 C394 0.950 . S
H387 C396 0.950 . S
H388 C398 0.950 . S
H389 C400 0.950 . S
H390 C402 0.950 . S
H391 C403 0.950 . S
C392 H384 0.950 . S
C392 C393 1.386 . S
C392 C394 1.391 . S
C393 C392 1.386 . S
C393 C397 1.393 . S
C394 H386 0.950 . S
C394 C392 1.391 . S
C394 C395 1.400 . S
C395 C394 1.400 . S
C395 C396 1.398 . S
C395 C401 1.491 . S
C396 H387 0.950 . S
C396 C395 1.398 . S
C396 C397 1.391 . S
C397 H385 0.950 1_556 S
C397 C393 1.393 . S
C397 C396 1.391 . S
C398 H388 0.950 . S
C398 C399 1.386 . S
C398 C400 1.391 . S
C399 C398 1.386 . S
C399 C403 1.393 . S
C400 H389 0.950 . S
C400 C398 1.391 . S
C400 C401 1.400 . S
C401 C395 1.491 . S
C401 C400 1.400 . S
C401 C402 1.398 . S
C402 H390 0.950 . S
C402 C401 1.398 . S
C402 C403 1.391 . S
C403 H391 0.950 . S
C403 C399 1.393 . S
C403 C402 1.391 . S
H404 C412 0.950 . S
H405 C417 0.950 . S
H406 C414 0.950 . S
H407 C416 0.950 . S
H408 C418 0.950 . S
H409 C420 0.950 . S
H410 C422 0.950 . S
H411 C423 0.950 . S
C412 H404 0.950 . S
C412 C413 1.386 . S
C412 C414 1.391 . S
C413 C412 1.386 . S
C413 C417 1.393 . S
C414 H406 0.950 . S
C414 C412 1.391 . S
C414 C415 1.400 . S
C415 C414 1.400 . S
C415 C416 1.398 . S
C415 C421 1.491 . S
C416 H407 0.950 . S
C416 C415 1.398 . S
C416 C417 1.391 . S
C417 H405 0.950 . S
C417 C413 1.393 . S
C417 C416 1.391 . S
C418 H408 0.950 . S
C418 C419 1.386 . S
C418 C420 1.391 . S
C419 C418 1.386 . S
C419 C423 1.393 . S
C420 H409 0.950 . S
C420 C418 1.391 . S
C420 C421 1.400 . S
C421 C415 1.491 . S
C421 C420 1.400 . S
C421 C422 1.398 . S
C422 H410 0.950 . S
C422 C421 1.398 . S
C422 C423 1.391 . S
C423 H411 0.950 . S
C423 C419 1.393 . S
C423 C422 1.391 . S
H424 C432 0.950 1_554 S
H425 C437 0.950 . S
H426 C434 0.950 . S
H427 C436 0.950 . S
H428 C438 0.950 . S
H429 C440 0.950 . S
H430 C442 0.950 . S
H431 C443 0.950 . S
C432 H424 0.950 1_556 S
C432 C433 1.386 . S
C432 C434 1.391 . S
C433 C432 1.386 . S
C433 C437 1.392 . S
C434 H426 0.950 . S
C434 C432 1.391 . S
C434 C435 1.400 . S
C435 C434 1.400 . S
C435 C436 1.398 . S
C435 C441 1.491 . S
C436 H427 0.950 . S
C436 C435 1.398 . S
C436 C437 1.391 . S
C437 H425 0.950 . S
C437 C433 1.392 . S
C437 C436 1.391 . S
C438 H428 0.950 . S
C438 C439 1.386 . S
C438 C440 1.391 . S
C439 C438 1.386 . S
C439 C443 1.393 . S
C440 H429 0.950 . S
C440 C438 1.391 . S
C440 C441 1.400 . S
C441 C435 1.491 . S
C441 C440 1.400 . S
C441 C442 1.398 . S
C442 H430 0.950 . S
C442 C441 1.398 . S
C442 C443 1.391 . S
C443 H431 0.950 . S
C443 C439 1.393 . S
C443 C442 1.391 . S
H444 C452 0.950 . S
H445 C457 0.950 . S
H446 C454 0.950 . S
H447 C456 0.950 . S
H448 C458 0.950 . S
H449 C460 0.950 . S
H450 C462 0.950 . S
H451 C463 0.950 . S
C452 H444 0.950 . S
C452 C453 1.386 . S
C452 C454 1.391 . S
C453 C452 1.386 . S
C453 C457 1.393 . S
C454 H446 0.950 . S
C454 C452 1.391 . S
C454 C455 1.400 . S
C455 C454 1.400 . S
C455 C456 1.398 . S
C455 C461 1.491 . S
C456 H447 0.950 . S
C456 C455 1.398 . S
C456 C457 1.391 . S
C457 H445 0.950 . S
C457 C453 1.393 . S
C457 C456 1.391 . S
C458 H448 0.950 . S
C458 C459 1.386 . S
C458 C460 1.391 . S
C459 C458 1.386 . S
C459 C463 1.393 . S
C460 H449 0.950 . S
C460 C458 1.391 . S
C460 C461 1.400 . S
C461 C455 1.491 . S
C461 C460 1.400 . S
C461 C462 1.398 . S
C462 H450 0.950 . S
C462 C461 1.398 . S
C462 C463 1.391 . S
C463 H451 0.950 . S
C463 C459 1.393 . S
C463 C462 1.391 . S
H464 C472 0.950 . S
H465 C477 0.950 . S
H466 C474 0.950 . S
H467 C476 0.950 . S
H468 C478 0.950 . S
H469 C480 0.950 . S
H470 C482 0.950 . S
H471 C483 0.951 1_556 S
C472 H464 0.950 . S
C472 C473 1.386 . S
C472 C474 1.391 . S
C473 C472 1.386 . S
C473 C477 1.393 . S
C474 H466 0.950 . S
C474 C472 1.391 . S
C474 C475 1.400 . S
C475 C474 1.400 . S
C475 C476 1.398 . S
C475 C481 1.491 . S
C476 H467 0.950 . S
C476 C475 1.398 . S
C476 C477 1.391 . S
C477 H465 0.950 . S
C477 C473 1.393 . S
C477 C476 1.391 . S
C478 H468 0.950 . S
C478 C479 1.386 . S
C478 C480 1.391 . S
C479 C478 1.386 . S
C479 C483 1.393 . S
C480 H469 0.950 . S
C480 C478 1.391 . S
C480 C481 1.400 . S
C481 C475 1.491 . S
C481 C480 1.400 . S
C481 C482 1.398 . S
C482 H470 0.950 . S
C482 C481 1.398 . S
C482 C483 1.389 . S
C483 H471 0.951 1_554 S
C483 C479 1.393 . S
C483 C482 1.389 . S
H484 C492 0.950 . S
H485 C497 0.950 . S
H486 C494 0.950 . S
H487 C496 0.950 . S
H488 C498 0.950 . S
H489 C500 0.950 . S
H490 C502 0.950 . S
H491 C503 0.950 . S
C492 H484 0.950 . S
C492 C493 1.386 . S
C492 C494 1.391 . S
C493 C492 1.386 . S
C493 C497 1.393 . S
C494 H486 0.950 . S
C494 C492 1.391 . S
C494 C495 1.400 . S
C495 C494 1.400 . S
C495 C496 1.398 . S
C495 C501 1.491 . S
C496 H487 0.950 . S
C496 C495 1.398 . S
C496 C497 1.391 . S
C497 H485 0.950 . S
C497 C493 1.393 . S
C497 C496 1.391 . S
C498 H488 0.950 . S
C498 C499 1.386 . S
C498 C500 1.391 . S
C499 C498 1.386 . S
C499 C503 1.393 . S
C500 H489 0.950 . S
C500 C498 1.391 . S
C500 C501 1.400 . S
C501 C495 1.491 . S
C501 C500 1.400 . S
C501 C502 1.398 . S
C502 H490 0.950 . S
C502 C501 1.398 . S
C502 C503 1.391 . S
C503 H491 0.950 . S
C503 C499 1.393 . S
C503 C502 1.391 . S
H504 C512 0.950 . S
H505 C517 0.950 . S
H506 C514 0.950 . S
H507 C516 0.950 . S
H508 C518 0.950 . S
H509 C520 0.950 . S
H510 C522 0.950 . S
H511 C523 0.950 1_556 S
C512 H504 0.950 . S
C512 C513 1.386 . S
C512 C514 1.391 . S
C513 C512 1.386 . S
C513 C517 1.393 . S
C514 H506 0.950 . S
C514 C512 1.391 . S
C514 C515 1.400 . S
C515 C514 1.400 . S
C515 C516 1.398 . S
C515 C521 1.491 . S
C516 H507 0.950 . S
C516 C515 1.398 . S
C516 C517 1.391 . S
C517 H505 0.950 . S
C517 C513 1.393 . S
C517 C516 1.391 . S
C518 H508 0.950 . S
C518 C519 1.386 . S
C518 C520 1.391 . S
C519 C518 1.386 . S
C519 C523 1.393 . S
C520 H509 0.950 . S
C520 C518 1.391 . S
C520 C521 1.400 . S
C521 C515 1.491 . S
C521 C520 1.400 . S
C521 C522 1.398 . S
C522 H510 0.950 . S
C522 C521 1.398 . S
C522 C523 1.391 . S
C523 H511 0.950 1_554 S
C523 C519 1.393 . S
C523 C522 1.391 . S
H524 C532 0.950 . S
H525 C537 0.950 . S
H526 C534 0.950 . S
H527 C536 0.950 . S
H528 C538 0.950 . S
H529 C540 0.950 . S
H530 C542 0.950 . S
H531 C543 0.950 . S
C532 H524 0.950 . S
C532 C533 1.386 . S
C532 C534 1.391 . S
C533 C532 1.386 . S
C533 C537 1.393 . S
C534 H526 0.950 . S
C534 C532 1.391 . S
C534 C535 1.400 . S
C535 C534 1.400 . S
C535 C536 1.398 . S
C535 C541 1.491 . S
C536 H527 0.950 . S
C536 C535 1.398 . S
C536 C537 1.391 . S
C537 H525 0.950 . S
C537 C533 1.393 . S
C537 C536 1.391 . S
C538 H528 0.950 . S
C538 C539 1.386 . S
C538 C540 1.391 . S
C539 C538 1.386 . S
C539 C543 1.393 . S
C540 H529 0.950 . S
C540 C538 1.391 . S
C540 C541 1.400 . S
C541 C535 1.491 . S
C541 C540 1.400 . S
C541 C542 1.398 . S
C542 H530 0.950 . S
C542 C541 1.398 . S
C542 C543 1.391 . S
C543 H531 0.950 . S
C543 C539 1.393 . S
C543 C542 1.391 . S
H544 C552 0.943 1_556 S
H545 C557 0.950 . S
H546 C554 0.950 . S
H547 C556 0.950 . S
H548 C558 0.950 . S
H549 C560 0.950 . S
H550 C562 0.950 . S
H551 C563 0.950 . S
C552 H544 0.943 1_554 S
C552 C553 1.385 1_554 S
C552 C554 1.391 . S
C553 C552 1.385 1_556 S
C553 C557 1.392 1_556 S
C554 H546 0.950 . S
C554 C552 1.391 . S
C554 C555 1.400 . S
C555 C554 1.400 . S
C555 C556 1.398 . S
C555 C561 1.491 . S
C556 H547 0.950 . S
C556 C555 1.398 . S
C556 C557 1.391 . S
C557 H545 0.950 . S
C557 C553 1.392 1_554 S
C557 C556 1.391 . S
C558 H548 0.950 . S
C558 C559 1.386 . S
C558 C560 1.391 . S
C559 C558 1.386 . S
C559 C563 1.393 . S
C560 H549 0.950 . S
C560 C558 1.391 . S
C560 C561 1.400 . S
C561 C555 1.491 . S
C561 C560 1.400 . S
C561 C562 1.398 . S
C562 H550 0.950 . S
C562 C561 1.398 . S
C562 C563 1.391 . S
C563 H551 0.950 . S
C563 C559 1.393 . S
C563 C562 1.391 . S
H564 C572 0.950 . S
H565 C577 0.950 . S
H566 C574 0.950 . S
H567 C576 0.950 . S
H568 C578 0.950 . S
H569 C580 0.950 . S
H570 C582 0.950 . S
H571 C583 0.950 . S
C572 H564 0.950 . S
C572 C573 1.386 . S
C572 C574 1.391 . S
C573 C572 1.386 . S
C573 C577 1.393 . S
C574 H566 0.950 . S
C574 C572 1.391 . S
C574 C575 1.400 . S
C575 C574 1.400 . S
C575 C576 1.398 . S
C575 C581 1.491 . S
C576 H567 0.950 . S
C576 C575 1.398 . S
C576 C577 1.391 . S
C577 H565 0.950 . S
C577 C573 1.393 . S
C577 C576 1.391 . S
C578 H568 0.950 . S
C578 C579 1.386 . S
C578 C580 1.391 . S
C579 C578 1.386 . S
C579 C583 1.393 . S
C580 H569 0.950 . S
C580 C578 1.391 . S
C580 C581 1.400 . S
C581 C575 1.491 . S
C581 C580 1.400 . S
C581 C582 1.398 . S
C582 H570 0.950 . S
C582 C581 1.398 . S
C582 C583 1.391 . S
C583 H571 0.950 . S
C583 C579 1.393 . S
C583 C582 1.391 . S
H584 C592 0.950 . S
H585 C597 0.950 . S
H586 C594 0.950 . S
H587 C596 0.950 . S
H588 C598 0.950 . S
H589 C600 0.950 . S
H590 C602 0.950 . S
H591 C603 0.949 1_556 S
C592 H584 0.950 . S
C592 C593 1.386 . S
C592 C594 1.391 . S
C593 C592 1.386 . S
C593 C597 1.393 . S
C594 H586 0.950 . S
C594 C592 1.391 . S
C594 C595 1.400 . S
C595 C594 1.400 . S
C595 C596 1.398 . S
C595 C601 1.491 . S
C596 H587 0.950 . S
C596 C595 1.398 . S
C596 C597 1.391 . S
C597 H585 0.950 . S
C597 C593 1.393 . S
C597 C596 1.391 . S
C598 H588 0.950 . S
C598 C599 1.385 1_554 S
C598 C600 1.391 . S
C599 C598 1.385 1_556 S
C599 C603 1.392 1_556 S
C600 H589 0.950 . S
C600 C598 1.391 . S
C600 C601 1.400 . S
C601 C595 1.491 . S
C601 C600 1.400 . S
C601 C602 1.398 . S
C602 H590 0.950 . S
C602 C601 1.398 . S
C602 C603 1.391 . S
C603 H591 0.949 1_554 S
C603 C599 1.392 1_554 S
C603 C602 1.391 . S
H604 C612 0.950 . S
H605 C617 0.950 . S
H606 C614 0.950 . S
H607 C616 0.950 . S
H608 C618 0.950 . S
H609 C620 0.950 . S
H610 C622 0.950 . S
H611 C623 0.950 . S
C612 H604 0.950 . S
C612 C613 1.386 . S
C612 C614 1.391 . S
C613 C612 1.386 . S
C613 C617 1.393 . S
C614 H606 0.950 . S
C614 C612 1.391 . S
C614 C615 1.400 . S
C615 C614 1.400 . S
C615 C616 1.398 . S
C615 C621 1.491 . S
C616 H607 0.950 . S
C616 C615 1.398 . S
C616 C617 1.391 . S
C617 H605 0.950 . S
C617 C613 1.393 . S
C617 C616 1.391 . S
C618 H608 0.950 . S
C618 C619 1.386 . S
C618 C620 1.391 . S
C619 C618 1.386 . S
C619 C623 1.393 . S
C620 H609 0.950 . S
C620 C618 1.391 . S
C620 C621 1.400 . S
C621 C615 1.491 . S
C621 C620 1.400 . S
C621 C622 1.398 . S
C622 H610 0.950 . S
C622 C621 1.398 . S
C622 C623 1.391 . S
C623 H611 0.950 . S
C623 C619 1.393 . S
C623 C622 1.391 . S
H624 C632 0.950 . S
H625 C637 0.950 . S
H626 C634 0.950 . S
H627 C636 0.950 . S
H628 C638 0.950 1_554 S
H629 C640 0.950 . S
H630 C642 0.950 . S
H631 C643 0.950 . S
C632 H624 0.950 . S
C632 C633 1.386 . S
C632 C634 1.391 . S
C633 C632 1.386 . S
C633 C637 1.393 . S
C634 H626 0.950 . S
C634 C632 1.391 . S
C634 C635 1.400 . S
C635 C634 1.400 . S
C635 C636 1.398 . S
C635 C641 1.491 . S
C636 H627 0.950 . S
C636 C635 1.398 . S
C636 C637 1.391 . S
C637 H625 0.950 . S
C637 C633 1.393 . S
C637 C636 1.391 . S
C638 H628 0.950 1_556 S
C638 C639 1.386 . S
C638 C640 1.391 . S
C639 C638 1.386 . S
C639 C643 1.393 . S
C640 H629 0.950 . S
C640 C638 1.391 . S
C640 C641 1.400 . S
C641 C635 1.491 . S
C641 C640 1.400 . S
C641 C642 1.398 . S
C642 H630 0.950 . S
C642 C641 1.398 . S
C642 C643 1.391 . S
C643 H631 0.950 . S
C643 C639 1.393 . S
C643 C642 1.391 . S
H644 C652 0.950 . S
H645 C657 0.950 . S
H646 C654 0.950 . S
H647 C656 0.950 . S
H648 C658 0.950 . S
H649 C660 0.950 . S
H650 C662 0.950 . S
H651 C663 0.950 . S
C652 H644 0.950 . S
C652 C653 1.386 . S
C652 C654 1.391 . S
C653 C652 1.386 . S
C653 C657 1.393 . S
C654 H646 0.950 . S
C654 C652 1.391 . S
C654 C655 1.400 . S
C655 C654 1.400 . S
C655 C656 1.398 . S
C655 C661 1.491 . S
C656 H647 0.950 . S
C656 C655 1.398 . S
C656 C657 1.391 . S
C657 H645 0.950 . S
C657 C653 1.393 . S
C657 C656 1.391 . S
C658 H648 0.950 . S
C658 C659 1.386 . S
C658 C660 1.391 . S
C659 C658 1.386 . S
C659 C663 1.393 . S
C660 H649 0.950 . S
C660 C658 1.391 . S
C660 C661 1.400 . S
C661 C655 1.491 . S
C661 C660 1.400 . S
C661 C662 1.398 . S
C662 H650 0.950 . S
C662 C661 1.398 . S
C662 C663 1.391 . S
C663 H651 0.950 . S
C663 C659 1.393 . S
C663 C662 1.391 . S
H664 C672 0.950 . S
H665 C677 0.950 1_554 S
H666 C674 0.950 . S
H667 C676 0.950 . S
H668 C678 0.950 . S
H669 C680 0.950 . S
H670 C682 0.950 . S
H671 C683 0.950 . S
C672 H664 0.950 . S
C672 C673 1.385 1_556 S
C672 C674 1.391 . S
C673 C672 1.385 1_554 S
C673 C677 1.393 1_554 S
C674 H666 0.950 . S
C674 C672 1.391 . S
C674 C675 1.400 . S
C675 C674 1.400 . S
C675 C676 1.398 . S
C675 C681 1.491 . S
C676 H667 0.950 . S
C676 C675 1.398 . S
C676 C677 1.391 . S
C677 H665 0.950 1_556 S
C677 C673 1.393 1_556 S
C677 C676 1.391 . S
C678 H668 0.950 . S
C678 C679 1.386 . S
C678 C680 1.391 . S
C679 C678 1.386 . S
C679 C683 1.393 . S
C680 H669 0.950 . S
C680 C678 1.391 . S
C680 C681 1.400 . S
C681 C675 1.491 . S
C681 C680 1.400 . S
C681 C682 1.398 . S
C682 H670 0.950 . S
C682 C681 1.398 . S
C682 C683 1.391 . S
C683 H671 0.950 . S
C683 C679 1.393 . S
C683 C682 1.391 . S
H684 C692 0.950 . S
H685 C697 0.950 . S
H686 C694 0.950 . S
H687 C696 0.950 . S
H688 C698 0.950 . S
H689 C700 0.950 . S
H690 C702 0.950 . S
H691 C703 0.950 . S
C692 H684 0.950 . S
C692 C693 1.386 . S
C692 C694 1.391 . S
C693 C692 1.386 . S
C693 C697 1.393 . S
C694 H686 0.950 . S
C694 C692 1.391 . S
C694 C695 1.400 . S
C695 C694 1.400 . S
C695 C696 1.398 . S
C695 C701 1.491 . S
C696 H687 0.950 . S
C696 C695 1.398 . S
C696 C697 1.391 . S
C697 H685 0.950 . S
C697 C693 1.393 . S
C697 C696 1.391 . S
C698 H688 0.950 . S
C698 C699 1.386 . S
C698 C700 1.391 . S
C699 C698 1.386 . S
C699 C703 1.393 . S
C700 H689 0.950 . S
C700 C698 1.391 . S
C700 C701 1.400 . S
C701 C695 1.491 . S
C701 C700 1.400 . S
C701 C702 1.398 . S
C702 H690 0.950 . S
C702 C701 1.398 . S
C702 C703 1.391 . S
C703 H691 0.950 . S
C703 C699 1.393 . S
C703 C702 1.391 . S
H704 C712 0.950 . S
H705 C717 0.950 . S
H706 C714 0.950 . S
H707 C716 0.950 . S
H708 C718 0.950 . S
H709 C720 0.950 . S
H710 C722 0.950 . S
H711 C723 0.950 . S
C712 H704 0.950 . S
C712 C713 1.386 . S
C712 C714 1.391 . S
C713 C712 1.386 . S
C713 C717 1.393 . S
C714 H706 0.950 . S
C714 C712 1.391 . S
C714 C715 1.400 . S
C715 C714 1.400 . S
C715 C716 1.398 . S
C715 C721 1.491 . S
C716 H707 0.950 . S
C716 C715 1.398 . S
C716 C717 1.391 . S
C717 H705 0.950 . S
C717 C713 1.393 . S
C717 C716 1.391 . S
C718 H708 0.950 . S
C718 C719 1.386 . S
C718 C720 1.391 . S
C719 C718 1.386 . S
C719 C723 1.393 . S
C720 H709 0.950 . S
C720 C718 1.391 . S
C720 C721 1.400 . S
C721 C715 1.491 . S
C721 C720 1.400 . S
C721 C722 1.398 . S
C722 H710 0.950 . S
C722 C721 1.398 . S
C722 C723 1.391 . S
C723 H711 0.950 . S
C723 C719 1.393 . S
C723 C722 1.391 . S
H724 C732 0.950 . S
H725 C737 0.950 . S
H726 C734 0.950 . S
H727 C736 0.950 . S
H728 C738 0.950 . S
H729 C740 0.950 . S
H730 C742 0.950 . S
H731 C743 0.950 . S
C732 H724 0.950 . S
C732 C733 1.386 . S
C732 C734 1.391 . S
C733 C732 1.386 . S
C733 C737 1.393 . S
C734 H726 0.950 . S
C734 C732 1.391 . S
C734 C735 1.400 . S
C735 C734 1.400 . S
C735 C736 1.398 . S
C735 C741 1.491 . S
C736 H727 0.950 . S
C736 C735 1.398 . S
C736 C737 1.391 . S
C737 H725 0.950 . S
C737 C733 1.393 . S
C737 C736 1.391 . S
C738 H728 0.950 . S
C738 C739 1.386 . S
C738 C740 1.391 . S
C739 C738 1.386 . S
C739 C743 1.393 . S
C740 H729 0.950 . S
C740 C738 1.391 . S
C740 C741 1.400 . S
C741 C735 1.491 . S
C741 C740 1.400 . S
C741 C742 1.398 . S
C742 H730 0.950 . S
C742 C741 1.398 . S
C742 C743 1.391 . S
C743 H731 0.950 . S
C743 C739 1.393 . S
C743 C742 1.391 . S
H744 C752 0.950 . S
H745 C757 0.950 . S
H746 C754 0.950 . S
H747 C756 0.950 . S
H748 C758 0.950 . S
H749 C760 0.950 . S
H750 C762 0.950 . S
H751 C763 0.950 . S
C752 H744 0.950 . S
C752 C753 1.386 . S
C752 C754 1.391 . S
C753 C752 1.386 . S
C753 C757 1.393 . S
C754 H746 0.950 . S
C754 C752 1.391 . S
C754 C755 1.400 . S
C755 C754 1.400 . S
C755 C756 1.398 . S
C755 C761 1.491 . S
C756 H747 0.950 . S
C756 C755 1.398 . S
C756 C757 1.391 . S
C757 H745 0.950 . S
C757 C753 1.393 . S
C757 C756 1.391 . S
C758 H748 0.950 . S
C758 C759 1.386 . S
C758 C760 1.391 . S
C759 C758 1.386 . S
C759 C763 1.393 . S
C760 H749 0.950 . S
C760 C758 1.391 . S
C760 C761 1.400 . S
C761 C755 1.491 . S
C761 C760 1.400 . S
C761 C762 1.398 . S
C762 H750 0.950 . S
C762 C761 1.398 . S
C762 C763 1.391 . S
C763 H751 0.950 . S
C763 C759 1.393 . S
C763 C762 1.391 . S
H764 C772 0.950 . S
H765 C777 0.950 . S
H766 C774 0.950 . S
H767 C776 0.950 . S
H768 C778 0.950 . S
H769 C780 0.950 . S
H770 C782 0.950 . S
H771 C783 0.950 . S
C772 H764 0.950 . S
C772 C773 1.386 . S
C772 C774 1.391 . S
C773 C772 1.386 . S
C773 C777 1.393 . S
C774 H766 0.950 . S
C774 C772 1.391 . S
C774 C775 1.400 . S
C775 C774 1.400 . S
C775 C776 1.398 . S
C775 C781 1.491 . S
C776 H767 0.950 . S
C776 C775 1.398 . S
C776 C777 1.391 . S
C777 H765 0.950 . S
C777 C773 1.393 . S
C777 C776 1.391 . S
C778 H768 0.950 . S
C778 C779 1.386 . S
C778 C780 1.391 . S
C779 C778 1.386 . S
C779 C783 1.393 . S
C780 H769 0.950 . S
C780 C778 1.391 . S
C780 C781 1.400 . S
C781 C775 1.491 . S
C781 C780 1.400 . S
C781 C782 1.398 . S
C782 H770 0.950 . S
C782 C781 1.398 . S
C782 C783 1.391 . S
C783 H771 0.950 . S
C783 C779 1.393 . S
C783 C782 1.391 . S
H784 C792 0.950 . S
H785 C797 0.950 . S
H786 C794 0.950 . S
H787 C796 0.950 . S
H788 C798 0.950 . S
H789 C800 0.950 . S
H790 C802 0.950 . S
H791 C803 0.950 . S
C792 H784 0.950 . S
C792 C793 1.386 . S
C792 C794 1.391 . S
C793 C792 1.386 . S
C793 C797 1.393 . S
C794 H786 0.950 . S
C794 C792 1.391 . S
C794 C795 1.400 . S
C795 C794 1.400 . S
C795 C796 1.398 . S
C795 C801 1.491 . S
C796 H787 0.950 . S
C796 C795 1.398 . S
C796 C797 1.391 . S
C797 H785 0.950 . S
C797 C793 1.393 . S
C797 C796 1.391 . S
C798 H788 0.950 . S
C798 C799 1.386 . S
C798 C800 1.391 . S
C799 C798 1.386 . S
C799 C803 1.393 . S
C800 H789 0.950 . S
C800 C798 1.391 . S
C800 C801 1.400 . S
C801 C795 1.491 . S
C801 C800 1.400 . S
C801 C802 1.398 . S
C802 H790 0.950 . S
C802 C801 1.398 . S
C802 C803 1.391 . S
C803 H791 0.950 . S
C803 C799 1.393 . S
C803 C802 1.391 . S
H804 C812 0.950 . S
H805 C817 0.950 . S
H806 C814 0.950 . S
H807 C816 0.950 . S
H808 C818 0.950 . S
H809 C820 0.950 . S
H810 C822 0.950 . S
H811 C823 0.950 . S
C812 H804 0.950 . S
C812 C813 1.386 . S
C812 C814 1.391 . S
C813 C812 1.386 . S
C813 C817 1.393 . S
C814 H806 0.950 . S
C814 C812 1.391 . S
C814 C815 1.400 . S
C815 C814 1.400 . S
C815 C816 1.398 . S
C815 C821 1.491 . S
C816 H807 0.950 . S
C816 C815 1.398 . S
C816 C817 1.391 . S
C817 H805 0.950 . S
C817 C813 1.393 . S
C817 C816 1.391 . S
C818 H808 0.950 . S
C818 C819 1.386 . S
C818 C820 1.391 . S
C819 C818 1.386 . S
C819 C823 1.393 . S
C820 H809 0.950 . S
C820 C818 1.391 . S
C820 C821 1.400 . S
C821 C815 1.491 . S
C821 C820 1.400 . S
C821 C822 1.398 . S
C822 H810 0.950 . S
C822 C821 1.398 . S
C822 C823 1.391 . S
C823 H811 0.950 . S
C823 C819 1.393 . S
C823 C822 1.391 . S
H824 C832 0.950 . S
H825 C837 0.950 . S
H826 C834 0.950 . S
H827 C836 0.950 . S
H828 C838 0.950 . S
H829 C840 0.950 . S
H830 C842 0.950 . S
H831 C843 0.950 . S
C832 H824 0.950 . S
C832 C833 1.386 . S
C832 C834 1.391 . S
C833 C832 1.386 . S
C833 C837 1.393 . S
C834 H826 0.950 . S
C834 C832 1.391 . S
C834 C835 1.400 . S
C835 C834 1.400 . S
C835 C836 1.398 . S
C835 C841 1.491 . S
C836 H827 0.950 . S
C836 C835 1.398 . S
C836 C837 1.391 . S
C837 H825 0.950 . S
C837 C833 1.393 . S
C837 C836 1.391 . S
C838 H828 0.950 . S
C838 C839 1.386 . S
C838 C840 1.391 . S
C839 C838 1.386 . S
C839 C843 1.393 . S
C840 H829 0.950 . S
C840 C838 1.391 . S
C840 C841 1.400 . S
C841 C835 1.491 . S
C841 C840 1.400 . S
C841 C842 1.398 . S
C842 H830 0.950 . S
C842 C841 1.398 . S
C842 C843 1.391 . S
C843 H831 0.950 . S
C843 C839 1.393 . S
C843 C842 1.391 . S
H844 C852 0.950 . S
H845 C857 0.950 . S
H846 C854 0.950 . S
H847 C856 0.950 . S
H848 C858 0.950 . S
H849 C860 0.950 . S
H850 C862 0.950 . S
H851 C863 0.950 . S
C852 H844 0.950 . S
C852 C853 1.386 . S
C852 C854 1.391 . S
C853 C852 1.386 . S
C853 C857 1.393 . S
C854 H846 0.950 . S
C854 C852 1.391 . S
C854 C855 1.400 . S
C855 C854 1.400 . S
C855 C856 1.398 . S
C855 C861 1.491 . S
C856 H847 0.950 . S
C856 C855 1.398 . S
C856 C857 1.391 . S
C857 H845 0.950 . S
C857 C853 1.393 . S
C857 C856 1.391 . S
C858 H848 0.950 . S
C858 C859 1.386 . S
C858 C860 1.391 . S
C859 C858 1.386 . S
C859 C863 1.393 . S
C860 H849 0.950 . S
C860 C858 1.391 . S
C860 C861 1.400 . S
C861 C855 1.491 . S
C861 C860 1.400 . S
C861 C862 1.398 . S
C862 H850 0.950 . S
C862 C861 1.398 . S
C862 C863 1.391 . S
C863 H851 0.950 . S
C863 C859 1.393 . S
C863 C862 1.391 . S
C233 C8 1.082 . S
C239 C64 1.092 . S
C253 C78 1.090 . S
C259 C22 1.086 . S
C273 C36 1.090 . S
C279 C92 1.085 . S
C293 C50 1.085 . S
C299 C106 1.090 . S
C313 C120 1.091 . S
C319 C176 1.079 . S
C333 C190 1.080 . S
C339 C134 1.092 . S
C353 C148 1.089 . S
C359 C204 1.086 . S
C373 C162 1.080 . S
C379 C218 1.092 . S
C393 C7 1.447 1_556 S
C399 C219 1.446 . S
C413 C177 1.449 . S
C419 C21 1.423 . S
C433 C35 1.423 1_556 S
C439 C191 1.451 . S
C453 C205 1.438 . S
C459 C49 1.444 . S
C473 C135 1.459 . S
C479 C63 1.432 1_554 S
C493 C149 1.440 . S
C499 C77 1.446 . S
C513 C163 1.458 . S
C519 C91 1.434 1_554 S
C533 C121 1.459 . S
C539 C105 1.424 . S
C553 C119 1.429 . S
C559 C107 1.442 . S
C573 C65 1.438 . S
C579 C133 1.441 . S
C593 C79 1.445 . S
C599 C147 1.427 . S
C613 C161 1.426 . S
C619 C93 1.459 . S
C633 C23 1.452 . S
C639 C175 1.421 1_556 S
C653 C189 1.445 . S
C659 C37 1.449 . S
C673 C203 1.425 . S
C679 C51 1.447 . S
C693 C217 1.422 . S
C699 C9 1.457 . S
C713 C101 1.094 . S
C719 C3 1.117 . S
C733 C17 1.100 . S
C739 C59 1.116 . S
C753 C31 1.117 . S
C759 C73 1.097 . S
C773 C45 1.109 . S
C779 C87 1.096 . S
C793 C213 1.111 . S
C799 C115 1.106 . S
C813 C171 1.112 . S
C819 C129 1.095 . S
C833 C185 1.097 . S
C839 C143 1.117 . S
C853 C199 1.095 . S
C859 C157 1.110 . S
