# Generated by pormake.
# Topology yfy, (5)-cn, num edge types: 1
# Building blocks:
#     Node 0, Type 0, BuildingBlock: BEQFEK_clean_sbu_0, # of connection points: 5
#     Node 1, Type 0, BuildingBlock: BEQFEK_clean_sbu_0, # of connection points: 5
#     Node 2, Type 0, BuildingBlock: BEQFEK_clean_sbu_0, # of connection points: 5
#     Node 3, Type 0, BuildingBlock: BEQFEK_clean_sbu_0, # of connection points: 5
#     Node 4, Type 0, BuildingBlock: BEQFEK_clean_sbu_0, # of connection points: 5
#     Node 5, Type 0, BuildingBlock: BEQFEK_clean_sbu_0, # of connection points: 5
#     Node 6, Type 0, BuildingBlock: BEQFEK_clean_sbu_0, # of connection points: 5
#     Node 7, Type 0, BuildingBlock: BEQFEK_clean_sbu_0, # of connection points: 5
#     Node 8, Type 0, BuildingBlock: BEQFEK_clean_sbu_0, # of connection points: 5
#     Node 9, Type 0, BuildingBlock: BEQFEK_clean_sbu_0, # of connection points: 5
#     Node 10, Type 0, BuildingBlock: BEQFEK_clean_sbu_0, # of connection points: 5
#     Node 11, Type 0, BuildingBlock: BEQFEK_clean_sbu_0, # of connection points: 5
#     Node 12, Type 0, BuildingBlock: BEQFEK_clean_sbu_0, # of connection points: 5
#     Node 13, Type 0, BuildingBlock: BEQFEK_clean_sbu_0, # of connection points: 5
#     Node 14, Type 0, BuildingBlock: BEQFEK_clean_sbu_0, # of connection points: 5
#     Node 15, Type 0, BuildingBlock: BEQFEK_clean_sbu_0, # of connection points: 5
#     Edge 16, Type (0, 0), BuildingBlock: XUDNAN_clean_linker_2, # of connection points: 2
#     Edge 17, Type (0, 0), BuildingBlock: XUDNAN_clean_linker_2, # of connection points: 2
#     Edge 18, Type (0, 0), BuildingBlock: XUDNAN_clean_linker_2, # of connection points: 2
#     Edge 19, Type (0, 0), BuildingBlock: XUDNAN_clean_linker_2, # of connection points: 2
#     Edge 20, Type (0, 0), BuildingBlock: XUDNAN_clean_linker_2, # of connection points: 2
#     Edge 21, Type (0, 0), BuildingBlock: XUDNAN_clean_linker_2, # of connection points: 2
#     Edge 22, Type (0, 0), BuildingBlock: XUDNAN_clean_linker_2, # of connection points: 2
#     Edge 23, Type (0, 0), BuildingBlock: XUDNAN_clean_linker_2, # of connection points: 2
#     Edge 24, Type (0, 0), BuildingBlock: XUDNAN_clean_linker_2, # of connection points: 2
#     Edge 25, Type (0, 0), BuildingBlock: XUDNAN_clean_linker_2, # of connection points: 2
#     Edge 26, Type (0, 0), BuildingBlock: XUDNAN_clean_linker_2, # of connection points: 2
#     Edge 27, Type (0, 0), BuildingBlock: XUDNAN_clean_linker_2, # of connection points: 2
#     Edge 28, Type (0, 0), BuildingBlock: XUDNAN_clean_linker_2, # of connection points: 2
#     Edge 29, Type (0, 0), BuildingBlock: XUDNAN_clean_linker_2, # of connection points: 2
#     Edge 30, Type (0, 0), BuildingBlock: XUDNAN_clean_linker_2, # of connection points: 2
#     Edge 31, Type (0, 0), BuildingBlock: XUDNAN_clean_linker_2, # of connection points: 2
#     Edge 32, Type (0, 0), BuildingBlock: XUDNAN_clean_linker_2, # of connection points: 2
#     Edge 33, Type (0, 0), BuildingBlock: XUDNAN_clean_linker_2, # of connection points: 2
#     Edge 34, Type (0, 0), BuildingBlock: XUDNAN_clean_linker_2, # of connection points: 2
#     Edge 35, Type (0, 0), BuildingBlock: XUDNAN_clean_linker_2, # of connection points: 2
#     Edge 36, Type (0, 0), BuildingBlock: XUDNAN_clean_linker_2, # of connection points: 2
#     Edge 37, Type (0, 0), BuildingBlock: XUDNAN_clean_linker_2, # of connection points: 2
#     Edge 38, Type (0, 0), BuildingBlock: XUDNAN_clean_linker_2, # of connection points: 2
#     Edge 39, Type (0, 0), BuildingBlock: XUDNAN_clean_linker_2, # of connection points: 2
#     Edge 40, Type (0, 0), BuildingBlock: XUDNAN_clean_linker_2, # of connection points: 2
#     Edge 41, Type (0, 0), BuildingBlock: XUDNAN_clean_linker_2, # of connection points: 2
#     Edge 42, Type (0, 0), BuildingBlock: XUDNAN_clean_linker_2, # of connection points: 2
#     Edge 43, Type (0, 0), BuildingBlock: XUDNAN_clean_linker_2, # of connection points: 2
#     Edge 44, Type (0, 0), BuildingBlock: XUDNAN_clean_linker_2, # of connection points: 2
#     Edge 45, Type (0, 0), BuildingBlock: XUDNAN_clean_linker_2, # of connection points: 2
#     Edge 46, Type (0, 0), BuildingBlock: XUDNAN_clean_linker_2, # of connection points: 2
#     Edge 47, Type (0, 0), BuildingBlock: XUDNAN_clean_linker_2, # of connection points: 2
#     Edge 48, Type (0, 0), BuildingBlock: XUDNAN_clean_linker_2, # of connection points: 2
#     Edge 49, Type (0, 0), BuildingBlock: XUDNAN_clean_linker_2, # of connection points: 2
#     Edge 50, Type (0, 0), BuildingBlock: XUDNAN_clean_linker_2, # of connection points: 2
#     Edge 51, Type (0, 0), BuildingBlock: XUDNAN_clean_linker_2, # of connection points: 2
#     Edge 52, Type (0, 0), BuildingBlock: XUDNAN_clean_linker_2, # of connection points: 2
#     Edge 53, Type (0, 0), BuildingBlock: XUDNAN_clean_linker_2, # of connection points: 2
#     Edge 54, Type (0, 0), BuildingBlock: XUDNAN_clean_linker_2, # of connection points: 2
#     Edge 55, Type (0, 0), BuildingBlock: XUDNAN_clean_linker_2, # of connection points: 2
# Relax obj value: 0.039
# Max RMSD: 0.074
# Mean RMSD: 0.074
data_MOF--net-yfy--node1-BEQFEK_clean_sbu_0--edge1-XUDNAN_clean_linker_2
_symmetry_space_group_name_H-M    P1
_symmetry_Int_Tables_number       1
_symmetry_cell_setting            triclinic
loop_
_symmetry_equiv_pos_as_xyz
'x, y, z'
_cell_length_a     47.485983
_cell_length_b     47.584396
_cell_length_c     43.688912
_cell_angle_alpha  90.040597
_cell_angle_beta   89.946009
_cell_angle_gamma 90.065164
loop_
_atom_site_label
_atom_site_type_symbol
_atom_site_fract_x
_atom_site_fract_y
_atom_site_fract_z
_atom_type_partial_charge
Co0 Co 0.1302 0.29874 0.3422 0.0
Co1 Co 0.08739 0.34954 0.33954 0.0
C2 C 0.07026 0.29262 0.31877 0.0
O3 O 0.09467 0.28315 0.32488 0.0
O4 O 0.06401 0.31833 0.32304 0.0
C5 C 0.15901 0.25628 0.30996 0.0
O6 O 0.14044 0.26418 0.28944 0.0
C7 C 0.0513 0.39524 0.31528 0.0
C8 C 0.04901 0.42313 0.35561 0.0
C9 C 0.04001 0.42071 0.3255 0.0
N10 N 0.06621 0.3837 0.33827 0.0
N11 N 0.06454 0.40041 0.36232 0.0
C12 C 0.0498 0.38253 0.284 0.0
H13 H 0.06609 0.36599 0.28131 0.0
H14 H 0.05284 0.39893 0.26624 0.0
H15 H 0.02882 0.37268 0.28075 0.0
C16 C 0.16645 0.34131 0.31141 0.0
N17 N 0.14109 0.33254 0.32166 0.0
N18 N 0.12307 0.35352 0.31991 0.0
C19 C 0.13654 0.3763 0.30875 0.0
C20 C 0.16443 0.36935 0.30283 0.0
C21 C 0.19283 0.32428 0.31367 0.0
H22 H 0.19401 0.31421 0.33654 0.0
H23 H 0.19221 0.30735 0.29622 0.0
H24 H 0.2119 0.33732 0.30981 0.0
O25 O 0.12398 0.3062 0.38717 0.0
O26 O 0.09435 0.34228 0.38319 0.0
H27 H 0.11664 0.41175 0.32975 0.0
H28 H 0.1389 0.42068 0.29754 0.0
C29 C 0.12381 0.405 0.30672 0.0
H30 H 0.10531 0.40428 0.29137 0.0
H31 H 0.0743 0.39646 0.38327 0.0
O32 O 0.15951 0.2689 0.33569 0.0
C33 C 0.10853 0.32515 0.39933 0.0
Co34 Co 0.86978 0.13074 0.33787 0.0
Co35 Co 0.81838 0.08871 0.33925 0.0
C36 C 0.87344 0.07048 0.31497 0.0
O37 O 0.8846 0.09394 0.32214 0.0
O38 O 0.8473 0.06589 0.3187 0.0
C39 C 0.91484 0.15765 0.30656 0.0
O40 O 0.90992 0.13706 0.28724 0.0
C41 C 0.77433 0.04777 0.32164 0.0
C42 C 0.74189 0.05601 0.35685 0.0
C43 C 0.74769 0.03955 0.33146 0.0
N44 N 0.78352 0.06846 0.34016 0.0
N45 N 0.76408 0.07315 0.36121 0.0
C46 C 0.79201 0.03482 0.29698 0.0
H47 H 0.81203 0.02731 0.30706 0.0
H48 H 0.79726 0.05102 0.27961 0.0
H49 H 0.78159 0.01666 0.28589 0.0
C50 C 0.8263 0.16668 0.3081 0.0
N51 N 0.83518 0.1417 0.31914 0.0
N52 N 0.81379 0.12408 0.31966 0.0
C53 C 0.7908 0.13719 0.30861 0.0
C54 C 0.7978 0.16466 0.3011 0.0
C55 C 0.84396 0.19273 0.30788 0.0
H56 H 0.85367 0.19575 0.33074 0.0
H57 H 0.86127 0.19012 0.29105 0.0
H58 H 0.83142 0.21157 0.30175 0.0
O59 O 0.86406 0.12604 0.38259 0.0
O60 O 0.83007 0.09381 0.38268 0.0
H61 H 0.75326 0.1225 0.33034 0.0
H62 H 0.74765 0.13711 0.29273 0.0
C63 C 0.7621 0.12425 0.30692 0.0
H64 H 0.76359 0.10291 0.29689 0.0
H65 H 0.766 0.08807 0.3786 0.0
O66 O 0.89956 0.15978 0.33039 0.0
C67 C 0.84775 0.10922 0.39686 0.0
Co68 Co 0.03597 0.8697 0.33275 0.0
Co69 Co 0.07677 0.81737 0.33146 0.0
C70 C 0.09287 0.87356 0.30483 0.0
O71 O 0.06855 0.88383 0.30937 0.0
O72 O 0.09893 0.84865 0.31304 0.0
C73 C 1.00035 0.90868 0.30322 0.0
O74 O 0.01127 0.89633 0.27907 0.0
C75 C 0.11293 0.77642 0.3003 0.0
C76 C 0.1126 0.74018 0.33186 0.0
C77 C 0.12245 0.74897 0.30356 0.0
N78 N 0.09761 0.78324 0.32514 0.0
N79 N 0.09779 0.7616 0.3441 0.0
C80 C 0.11911 0.79659 0.27483 0.0
H81 H 0.13037 0.81506 0.28427 0.0
H82 H 0.09905 0.80414 0.26477 0.0
H83 H 0.13264 0.78734 0.25681 0.0
C84 C 0.99689 0.8274 0.3055 0.0
N85 N 0.0223 0.83518 0.31643 0.0
N86 N 0.03974 0.81376 0.31431 0.0
C87 C 0.02605 0.79188 0.30128 0.0
C88 C 0.99843 0.79982 0.29524 0.0
C89 C 0.97091 0.84513 0.30709 0.0
H90 H 0.97177 0.85925 0.32725 0.0
H91 H 0.9693 0.858 0.28602 0.0
H92 H 0.95176 0.83179 0.30867 0.0
O93 O 0.04857 0.86495 0.37592 0.0
O94 O 0.07438 0.82579 0.37611 0.0
H95 H 0.04571 0.75349 0.31488 0.0
H96 H 0.02547 0.7506 0.27999 0.0
C97 C 0.03959 0.7644 0.29348 0.0
H98 H 0.05885 0.7683 0.27984 0.0
H99 H 0.08727 0.76122 0.36508 0.0
O100 O 1.00737 0.90028 0.32978 0.0
C101 C 0.06328 0.84662 0.39003 0.0
Co102 Co 0.29035 0.03637 0.33136 0.0
Co103 Co 0.34297 0.07574 0.33886 0.0
C104 C 0.28842 0.09622 0.31134 0.0
O105 O 0.27731 0.07197 0.31291 0.0
O106 O 0.31343 0.10061 0.32065 0.0
C107 C 0.24587 1.00998 0.2987 0.0
O108 O 0.25142 0.03054 0.27957 0.0
C109 C 0.39037 0.10548 0.31248 0.0
C110 C 0.4134 0.1214 0.35286 0.0
C111 C 0.4137 0.1209 0.32117 0.0
N112 N 0.37691 0.0969 0.3378 0.0
N113 N 0.39069 0.10653 0.36193 0.0
C114 C 0.37992 0.10059 0.28061 0.0
H115 H 0.37759 0.12106 0.26871 0.0
H116 H 0.35941 0.08938 0.28088 0.0
H117 H 0.39548 0.08804 0.26753 0.0
C118 C 0.33354 0.99949 0.3028 0.0
N119 N 0.32551 0.02434 0.31486 0.0
N120 N 0.34788 0.04028 0.31881 0.0
C121 C 0.371 0.02563 0.31027 0.0
C122 C 0.3627 0.99935 0.29954 0.0
C123 C 0.31352 0.97621 0.29516 0.0
H124 H 0.29613 0.98463 0.281 0.0
H125 H 0.32396 0.95906 0.28226 0.0
H126 H 0.30429 0.96772 0.31659 0.0
O127 O 0.29336 0.04313 0.37677 0.0
O128 O 0.33212 0.06922 0.38165 0.0
H129 H 0.40136 0.04797 0.33761 0.0
H130 H 0.41454 0.01617 0.32034 0.0
C131 C 0.40063 0.03461 0.31685 0.0
H132 H 0.40888 0.04674 0.29714 0.0
H133 H 0.38452 0.10307 0.38456 0.0
O134 O 0.26046 1.00773 0.32302 0.0
C135 C 0.31116 0.05639 0.39334 0.0
Co136 Co 0.13376 0.86759 0.66914 0.0
Co137 Co 0.09075 0.81738 0.66407 0.0
C138 C 0.07379 0.87357 0.68947 0.0
O139 O 0.09891 0.88275 0.68765 0.0
O140 O 0.06739 0.84887 0.68061 0.0
C141 C 0.16927 0.9046 0.70358 0.0
O142 O 0.15694 0.89257 0.72709 0.0
C143 C 0.04914 0.77368 0.68249 0.0
C144 C 0.0527 0.74427 0.64352 0.0
C145 C 0.03845 0.74863 0.67079 0.0
N146 N 0.0689 0.78346 0.66304 0.0
N147 N 0.07091 0.76569 0.63989 0.0
C148 C 0.03981 0.78872 0.71086 0.0
H149 H 0.04583 0.81113 0.71021 0.0
H150 H 0.05018 0.77913 0.73105 0.0
H151 H 0.01667 0.78684 0.71381 0.0
C152 C 0.16723 0.82316 0.70102 0.0
N153 N 0.14378 0.83226 0.68668 0.0
N154 N 0.12517 0.81171 0.6861 0.0
C155 C 0.13605 0.78912 0.70062 0.0
C156 C 0.16304 0.7957 0.71072 0.0
C157 C 0.19418 0.83938 0.70317 0.0
H158 H 0.1962 0.85406 0.68362 0.0
H159 H 0.19447 0.85146 0.72488 0.0
H160 H 0.21253 0.82495 0.70331 0.0
O161 O 0.12723 0.86418 0.62425 0.0
O162 O 0.09892 0.82705 0.62076 0.0
H163 H 0.11656 0.75193 0.68319 0.0
H164 H 0.13221 0.74755 0.72063 0.0
C165 C 0.12045 0.76218 0.7056 0.0
H166 H 0.09979 0.76677 0.71626 0.0
H167 H 0.08453 0.76836 0.62135 0.0
O168 O 0.16303 0.89679 0.67656 0.0
C169 C 0.113 0.84677 0.60829 0.0
Co170 Co 0.29708 0.12425 0.67321 0.0
Co171 Co 0.35109 0.08659 0.66574 0.0
C172 C 0.29804 0.06489 0.69518 0.0
O173 O 0.28538 0.08818 0.69148 0.0
O174 O 0.32357 0.0615 0.68702 0.0
C175 C 0.24145 0.14867 0.68017 0.0
O176 O 0.23214 0.12469 0.6692 0.0
C177 C 0.40029 0.05309 0.68486 0.0
C178 C 0.42497 0.05168 0.64201 0.0
C179 C 0.42499 0.04237 0.6721 0.0
N180 N 0.38665 0.06794 0.66327 0.0
N181 N 0.4016 0.0671 0.63778 0.0
C182 C 0.38897 0.04851 0.71646 0.0
H183 H 0.36655 0.05457 0.71795 0.0
H184 H 0.40078 0.06189 0.73282 0.0
H185 H 0.39145 0.02619 0.72329 0.0
C186 C 0.33955 0.16253 0.70049 0.0
N187 N 0.33225 0.13743 0.68855 0.0
N188 N 0.35504 0.12209 0.68502 0.0
C189 C 0.37767 0.13716 0.69411 0.0
C190 C 0.36861 0.16337 0.70425 0.0
C191 C 0.3189 0.1852 0.70814 0.0
H192 H 0.30149 0.17614 0.7219 0.0
H193 H 0.32879 0.20248 0.72138 0.0
H194 H 0.30982 0.19373 0.68667 0.0
O195 O 0.29852 0.1177 0.62824 0.0
O196 O 0.33714 0.09157 0.62328 0.0
H197 H 0.42269 0.14525 0.69307 0.0
H198 H 0.41228 0.1108 0.70622 0.0
C199 C 0.4075 0.12782 0.6897 0.0
H200 H 0.41018 0.11932 0.66626 0.0
H201 H 0.39565 0.07678 0.61736 0.0
O202 O 0.2678 0.15255 0.6829 0.0
C203 C 0.31581 0.10386 0.61172 0.0
Co204 Co 0.03435 0.2945 0.66883 0.0
Co205 Co 0.07454 0.34588 0.68337 0.0
C206 C 0.09143 0.2872 0.6981 0.0
O207 O 0.06838 0.27746 0.68773 0.0
O208 O 0.09625 0.31345 0.69837 0.0
C209 C 0.99906 0.25517 0.69638 0.0
O210 O 1.01032 0.26777 0.72019 0.0
C211 C 0.10674 0.38639 0.72089 0.0
C212 C 0.11422 0.42083 0.68802 0.0
C213 C 0.11917 0.41282 0.71805 0.0
N214 N 0.09476 0.37949 0.69398 0.0
N215 N 0.0994 0.40016 0.67443 0.0
C216 C 0.10709 0.36739 0.74822 0.0
H217 H 0.10274 0.3454 0.74164 0.0
H218 H 0.09036 0.37393 0.76446 0.0
H219 H 0.12773 0.3686 0.76005 0.0
C220 C 0.99331 0.33411 0.69807 0.0
N221 N 0.01992 0.32639 0.69096 0.0
N222 N 0.03712 0.347 0.69848 0.0
C223 C 0.02212 0.36812 0.7111 0.0
C224 C 0.99389 0.36061 0.71147 0.0
C225 C 0.96761 0.31737 0.69011 0.0
H226 H 0.97096 0.3058 0.66837 0.0
H227 H 0.96349 0.30198 0.70862 0.0
H228 H 0.94872 0.33088 0.68804 0.0
O229 O 0.04565 0.30618 0.62637 0.0
O230 O 0.07322 0.34267 0.6381 0.0
H231 H 0.0444 0.4052 0.69761 0.0
H232 H 0.01734 0.41155 0.72568 0.0
C233 C 0.03388 0.3966 0.71823 0.0
H234 H 0.04973 0.3947 0.73668 0.0
H235 H 0.09247 0.40015 0.65177 0.0
O236 O 1.00594 0.26335 0.66963 0.0
C237 C 0.06183 0.32643 0.61838 0.0
Co238 Co 0.87057 0.03337 0.6697 0.0
Co239 Co 0.81686 0.07203 0.67564 0.0
C240 C 0.8719 0.09244 0.69693 0.0
O241 O 0.88354 0.0703 0.68654 0.0
O242 O 0.84526 0.09532 0.69698 0.0
C243 C 0.91855 1.0089 0.69754 0.0
O244 O 0.91312 0.02886 0.71747 0.0
C245 C 0.77187 0.11059 0.6964 0.0
C246 C 0.73934 0.10319 0.66112 0.0
C247 C 0.74528 0.11919 0.68682 0.0
N248 N 0.78094 0.09029 0.6773 0.0
N249 N 0.76135 0.08597 0.65635 0.0
C250 C 0.79003 0.12358 0.7206 0.0
H251 H 0.80811 0.13424 0.70945 0.0
H252 H 0.79861 0.10683 0.73559 0.0
H253 H 0.77867 0.13933 0.73454 0.0
C254 C 0.83161 0.99326 0.70081 0.0
N255 N 0.83765 0.01901 0.68965 0.0
N256 N 0.81502 0.03484 0.69157 0.0
C257 C 0.79377 0.01962 0.70375 0.0
C258 C 0.8035 0.99259 0.71005 0.0
C259 C 0.85268 0.96995 0.70284 0.0
H260 H 0.87144 0.97747 0.7155 0.0
H261 H 0.84417 0.95131 0.71491 0.0
H262 H 0.85955 0.96395 0.67945 0.0
O263 O 0.86317 0.04112 0.6256 0.0
O264 O 0.82845 0.07201 0.63197 0.0
H265 H 0.75651 0.03544 0.68275 0.0
H266 H 0.74952 0.01434 0.71583 0.0
C267 C 0.7641 0.03008 0.70598 0.0
H268 H 0.76362 0.0495 0.72005 0.0
H269 H 0.76333 0.07171 0.63832 0.0
O270 O 0.90259 1.00625 0.6743 0.0
C271 C 0.84588 0.05907 0.61487 0.0
Co272 Co 0.62381 0.79767 0.84536 0.0
Co273 Co 0.58714 0.8508 0.82985 0.0
C274 C 0.56637 0.79327 0.81581 0.0
O275 O 0.58847 0.78246 0.82723 0.0
O276 O 0.56323 0.81975 0.81432 0.0
C277 C 0.65838 0.75283 0.8234 0.0
O278 O 0.65299 0.76424 0.79669 0.0
C279 C 0.55378 0.89138 0.79452 0.0
C280 C 0.56086 0.93087 0.82006 0.0
C281 C 0.5479 0.91998 0.79424 0.0
N282 N 0.57008 0.88583 0.81893 0.0
N283 N 0.57395 0.90946 0.8343 0.0
C284 C 0.54295 0.86918 0.77322 0.0
H285 H 0.53114 0.85331 0.78663 0.0
H286 H 0.56097 0.85841 0.76207 0.0
H287 H 0.52847 0.87767 0.75569 0.0
C288 C 0.66701 0.83259 0.81165 0.0
N289 N 0.6405 0.82752 0.82168 0.0
N290 N 0.62447 0.849 0.81409 0.0
C291 C 0.64004 0.8679 0.79843 0.0
C292 C 0.66752 0.85825 0.79648 0.0
C293 C 0.69212 0.81498 0.81928 0.0
H294 H 0.68839 0.80291 0.8406 0.0
H295 H 0.69626 0.80016 0.80019 0.0
H296 H 0.71111 0.82837 0.8221 0.0
O297 O 0.61394 0.81124 0.88718 0.0
O298 O 0.58823 0.84887 0.87543 0.0
H299 H 0.62485 0.90986 0.80388 0.0
H300 H 0.64369 0.90409 0.76856 0.0
C301 C 0.62877 0.89461 0.78516 0.0
H302 H 0.60864 0.89033 0.77325 0.0
H303 H 0.58599 0.91105 0.8542 0.0
O304 O 0.64887 0.7642 0.84768 0.0
C305 C 0.59911 0.83237 0.89517 0.0
Co306 Co 0.36862 0.6265 0.83761 0.0
Co307 Co 0.31601 0.58627 0.8438 0.0
C308 C 0.37104 0.56677 0.81674 0.0
O309 O 0.38167 0.59131 0.81804 0.0
O310 O 0.34622 0.56176 0.8264 0.0
C311 C 0.40839 0.66043 0.80434 0.0
O312 O 0.39736 0.6476 0.78056 0.0
C313 C 0.26947 0.54844 0.82416 0.0
C314 C 0.24158 0.55076 0.86455 0.0
C315 C 0.24403 0.53834 0.83593 0.0
N316 N 0.28108 0.56597 0.84487 0.0
N317 N 0.26424 0.56721 0.86891 0.0
C318 C 0.28317 0.54107 0.79436 0.0
H319 H 0.30562 0.54725 0.79427 0.0
H320 H 0.27258 0.55265 0.7756 0.0
H321 H 0.28131 0.51817 0.78988 0.0
C322 C 0.32448 0.66347 0.81003 0.0
N323 N 0.33324 0.63861 0.82147 0.0
N324 N 0.3116 0.62131 0.82289 0.0
C325 C 0.28851 0.63453 0.81204 0.0
C326 C 0.29587 0.66169 0.80348 0.0
C327 C 0.34308 0.68866 0.80622 0.0
H328 H 0.35672 0.68549 0.78593 0.0
H329 H 0.33088 0.70818 0.80248 0.0
H330 H 0.35673 0.69117 0.82663 0.0
O331 O 0.36574 0.61892 0.88248 0.0
O332 O 0.32678 0.59321 0.8869 0.0
H333 H 0.25423 0.61677 0.83719 0.0
H334 H 0.24336 0.63754 0.80482 0.0
C335 C 0.25939 0.62251 0.81325 0.0
H336 H 0.25857 0.60316 0.79914 0.0
H337 H 0.26832 0.57922 0.88841 0.0
O338 O 0.39901 0.65502 0.83099 0.0
C339 C 0.34781 0.6057 0.89883 0.0
Co340 Co 0.53085 0.36482 0.84319 0.0
Co341 Co 0.57632 0.31751 0.83022 0.0
C342 C 0.59173 0.37759 0.82645 0.0
O343 O 0.56679 0.38418 0.83422 0.0
O344 O 0.59872 0.35208 0.82222 0.0
C345 C 0.50283 0.40877 0.81515 0.0
O346 O 0.52213 0.40186 0.79494 0.0
C347 C 0.61672 0.28031 0.798 0.0
C348 C 0.61248 0.24111 0.82469 0.0
C349 C 0.62572 0.25251 0.79929 0.0
N350 N 0.59847 0.2848 0.82111 0.0
N351 N 0.59636 0.26136 0.83716 0.0
C352 C 0.62573 0.30249 0.77574 0.0
H353 H 0.6278 0.323 0.78745 0.0
H354 H 0.60952 0.30467 0.75763 0.0
H355 H 0.64623 0.29718 0.76501 0.0
C356 C 0.49797 0.32826 0.8014 0.0
N357 N 0.52241 0.33535 0.81511 0.0
N358 N 0.54153 0.31623 0.80868 0.0
C359 C 0.52985 0.29649 0.79043 0.0
C360 C 0.50183 0.3034 0.78527 0.0
C361 C 0.47067 0.34323 0.80666 0.0
H362 H 0.46979 0.3515 0.83038 0.0
H363 H 0.46916 0.36118 0.79056 0.0
H364 H 0.45241 0.32909 0.80278 0.0
O365 O 0.53593 0.34978 0.88535 0.0
O366 O 0.56834 0.31712 0.87495 0.0
H367 H 0.54912 0.2565 0.79782 0.0
H368 H 0.53282 0.26013 0.76066 0.0
C369 C 0.54507 0.27118 0.77862 0.0
H370 H 0.56553 0.27766 0.76875 0.0
H371 H 0.58338 0.259 0.85629 0.0
O372 O 0.50144 0.39483 0.83999 0.0
C373 C 0.55279 0.33041 0.89392 0.0
Co374 Co 0.80353 0.53469 0.8496 0.0
Co375 Co 0.84514 0.58101 0.82533 0.0
C376 C 0.78468 0.59034 0.82047 0.0
O377 O 0.78129 0.56692 0.83403 0.0
O378 O 0.80916 0.59886 0.81308 0.0
C379 C 0.76219 0.49432 0.83243 0.0
O380 O 0.77078 0.50071 0.80472 0.0
C381 C 0.88062 0.61929 0.7875 0.0
C382 C 0.92011 0.61875 0.81423 0.0
C383 C 0.90814 0.62942 0.78779 0.0
N384 N 0.87683 0.60296 0.81235 0.0
N385 N 0.90047 0.60298 0.82829 0.0
C386 C 0.85796 0.62593 0.76482 0.0
H387 H 0.83719 0.62672 0.77625 0.0
H388 H 0.85724 0.60919 0.74716 0.0
H389 H 0.86192 0.64641 0.75349 0.0
C390 C 0.84122 0.49824 0.81213 0.0
N391 N 0.8326 0.52358 0.82239 0.0
N392 N 0.8489 0.54323 0.81065 0.0
C393 C 0.86768 0.531 0.79162 0.0
C394 C 0.86343 0.50217 0.79202 0.0
C395 C 0.82934 0.47065 0.82228 0.0
H396 H 0.81386 0.46319 0.80508 0.0
H397 H 0.84623 0.45462 0.82387 0.0
H398 H 0.81877 0.47281 0.84479 0.0
O399 O 0.81938 0.54707 0.88917 0.0
O400 O 0.84538 0.58231 0.87114 0.0
H401 H 0.9015 0.53235 0.75835 0.0
H402 H 0.8807 0.56403 0.76163 0.0
C403 C 0.8902 0.54638 0.7745 0.0
H404 H 0.90559 0.55517 0.79101 0.0
H405 H 0.90331 0.59185 0.84863 0.0
O406 O 0.77448 0.50516 0.85547 0.0
C407 C 0.83524 0.56833 0.89351 0.0
Co408 Co 0.62409 0.35921 0.16591 0.0
Co409 Co 0.58301 0.30797 0.1745 0.0
C410 C 0.56542 0.36557 0.19248 0.0
O411 O 0.58864 0.3758 0.18289 0.0
O412 O 0.56051 0.33925 0.19185 0.0
C413 C 0.65099 0.41453 0.16899 0.0
O414 O 0.62551 0.42484 0.16573 0.0
C415 C 0.54849 0.26281 0.20203 0.0
C416 C 0.54821 0.232 0.16414 0.0
C417 C 0.53883 0.23614 0.19386 0.0
N418 N 0.56297 0.27349 0.17824 0.0
N419 N 0.56249 0.25507 0.15563 0.0
C420 C 0.54597 0.27739 0.23226 0.0
H421 H 0.56201 0.29428 0.23423 0.0
H422 H 0.54853 0.26217 0.25129 0.0
H423 H 0.52483 0.28715 0.23406 0.0
C424 C 0.66097 0.32104 0.20293 0.0
N425 N 0.63632 0.32699 0.18892 0.0
N426 N 0.619 0.30564 0.19273 0.0
C427 C 0.6321 0.2855 0.2091 0.0
C428 C 0.65904 0.29462 0.21627 0.0
C429 C 0.68549 0.34072 0.20436 0.0
H430 H 0.67889 0.36043 0.21587 0.0
H431 H 0.70347 0.33145 0.21702 0.0
H432 H 0.69224 0.34609 0.18076 0.0
O433 O 0.61668 0.34923 0.12204 0.0
O434 O 0.58745 0.31348 0.13012 0.0
H435 H 0.63603 0.24247 0.22469 0.0
H436 H 0.60361 0.25983 0.23462 0.0
C437 C 0.61974 0.25736 0.21649 0.0
H438 H 0.60958 0.24837 0.19587 0.0
H439 H 0.57237 0.25804 0.13454 0.0
O440 O 0.6545 0.38802 0.16862 0.0
C441 C 0.60073 0.3297 0.11205 0.0
Co442 Co 0.79587 0.62635 0.16953 0.0
Co443 Co 0.84912 0.58682 0.17281 0.0
C444 C 0.79162 0.56502 0.18677 0.0
O445 O 0.7804 0.58859 0.18049 0.0
O446 O 0.8182 0.56196 0.18615 0.0
C447 C 0.74619 0.64928 0.19544 0.0
O448 O 0.74971 0.62735 0.21327 0.0
C449 C 0.89316 0.55643 0.20565 0.0
C450 C 0.92094 0.54163 0.1684 0.0
C451 C 0.91734 0.54104 0.19985 0.0
N452 N 0.88301 0.56594 0.1789 0.0
N453 N 0.89968 0.55699 0.15669 0.0
C454 C 0.8786 0.5601 0.23578 0.0
H455 H 0.8577 0.5701 0.23266 0.0
H456 H 0.89157 0.57346 0.25105 0.0
H457 H 0.8761 0.53936 0.24708 0.0
C458 C 0.83312 0.66243 0.20708 0.0
N459 N 0.82719 0.6374 0.19412 0.0
N460 N 0.85006 0.62178 0.19413 0.0
C461 C 0.87146 0.63672 0.20642 0.0
C462 C 0.86142 0.66294 0.21529 0.0
C463 C 0.81244 0.68603 0.20958 0.0
H464 H 0.80707 0.69368 0.18632 0.0
H465 H 0.79284 0.67824 0.22046 0.0
H466 H 0.82083 0.70367 0.22348 0.0
O467 O 0.8084 0.62439 0.12578 0.0
O468 O 0.84395 0.59377 0.12851 0.0
H469 H 0.90556 0.61542 0.18372 0.0
H470 H 0.91587 0.64689 0.20374 0.0
C471 C 0.90181 0.62827 0.20448 0.0
H472 H 0.90737 0.61572 0.22495 0.0
H473 H 0.89638 0.56111 0.13351 0.0
O474 O 0.7641 0.65391 0.1743 0.0
C475 C 0.82748 0.60945 0.11309 0.0
Co476 Co 0.5349 0.79895 0.16838 0.0
Co477 Co 0.57852 0.84788 0.17948 0.0
C478 C 0.59342 0.78815 0.19246 0.0
O479 O 0.56869 0.78028 0.18538 0.0
O480 O 0.60063 0.81386 0.19095 0.0
C481 C 0.49951 0.76014 0.19709 0.0
O482 O 0.51197 0.7717 0.22081 0.0
C483 C 0.6176 0.88499 0.21275 0.0
C484 C 0.61428 0.9245 0.18645 0.0
C485 C 0.62661 0.9128 0.21218 0.0
N486 N 0.60019 0.88074 0.18891 0.0
N487 N 0.5986 0.90434 0.17306 0.0
C488 C 0.62597 0.86238 0.23476 0.0
H489 H 0.63338 0.84376 0.22184 0.0
H490 H 0.60736 0.85592 0.24844 0.0
H491 H 0.64323 0.86915 0.25015 0.0
C492 C 0.49849 0.83849 0.20404 0.0
N493 N 0.52366 0.83067 0.19242 0.0
N494 N 0.54247 0.85011 0.19899 0.0
C495 C 0.52992 0.87054 0.21565 0.0
C496 C 0.5016 0.86388 0.21941 0.0
C497 C 0.47125 0.8238 0.1975 0.0
H498 H 0.47256 0.81209 0.17561 0.0
H499 H 0.46657 0.80887 0.21631 0.0
H500 H 0.45366 0.83911 0.19624 0.0
O501 O 0.54365 0.81096 0.12539 0.0
O502 O 0.57271 0.84691 0.1345 0.0
H503 H 0.54954 0.91047 0.20877 0.0
H504 H 0.53192 0.90707 0.24524 0.0
C505 C 0.54479 0.8959 0.2279 0.0
H506 H 0.56488 0.88948 0.23864 0.0
H507 H 0.58625 0.90688 0.15352 0.0
O508 O 0.50549 0.76892 0.17033 0.0
C509 C 0.55914 0.83119 0.11599 0.0
Co510 Co 0.37174 0.53654 0.17677 0.0
Co511 Co 0.31833 0.57644 0.1747 0.0
C512 C 0.37389 0.59673 0.19817 0.0
O513 O 0.3856 0.57305 0.19343 0.0
O514 O 0.34791 0.60074 0.19264 0.0
C515 C 0.41242 0.50312 0.20895 0.0
O516 O 0.40152 0.51565 0.233 0.0
C517 C 0.27147 0.61408 0.19524 0.0
C518 C 0.24125 0.60762 0.1575 0.0
C519 C 0.24484 0.62198 0.18485 0.0
N520 N 0.2827 0.59574 0.17504 0.0
N521 N 0.26446 0.5921 0.15257 0.0
C522 C 0.28644 0.62446 0.2232 0.0
H523 H 0.30932 0.6207 0.22164 0.0
H524 H 0.27847 0.61299 0.24354 0.0
H525 H 0.28259 0.64726 0.22652 0.0
C526 C 0.32941 0.49992 0.20946 0.0
N527 N 0.33716 0.52406 0.19536 0.0
N528 N 0.31553 0.5414 0.1955 0.0
C529 C 0.29384 0.52921 0.21041 0.0
C530 C 0.30188 0.50259 0.21974 0.0
C531 C 0.34783 0.47467 0.21311 0.0
H532 H 0.36215 0.47259 0.1932 0.0
H533 H 0.36054 0.477 0.23423 0.0
H534 H 0.33502 0.45526 0.21538 0.0
O535 O 0.36667 0.54318 0.13241 0.0
O536 O 0.32884 0.57072 0.13083 0.0
H537 H 0.25641 0.54769 0.19228 0.0
H538 H 0.25079 0.52828 0.22711 0.0
C539 C 0.26556 0.54244 0.21488 0.0
H540 H 0.26799 0.56215 0.22815 0.0
H541 H 0.26788 0.57897 0.1338 0.0
O542 O 0.40272 0.50863 0.18249 0.0
C543 C 0.34878 0.55763 0.11744 0.0
H544 H 0.09575 0.28558 0.44344 0.0
H545 H 0.11613 0.37355 0.42998 0.0
H546 H 0.10687 0.38294 0.48459 0.0
H547 H 0.03813 0.29758 0.49305 0.0
H548 H 0.04447 0.2679 0.51771 0.0
H549 H 0.05574 0.26685 0.47835 0.0
H550 H 0.10686 0.25625 0.4954 0.0
H551 H 0.09565 0.25683 0.53482 0.0
H552 H 0.12397 0.27934 0.52234 0.0
H553 H 0.09348 0.3837 0.53917 0.0
H554 H 0.07754 0.37566 0.59206 0.0
H555 H 0.06295 0.28761 0.57113 0.0
C556 C 0.09903 0.30657 0.45236 0.0
C557 C 0.10719 0.32881 0.4328 0.0
C558 C 0.11029 0.35625 0.44481 0.0
C559 C 0.10499 0.36178 0.47573 0.0
C560 C 0.09625 0.33969 0.49431 0.0
C561 C 0.09333 0.3126 0.48328 0.0
C562 C 0.08197 0.29321 0.50804 0.0
C563 C 0.05338 0.28065 0.49872 0.0
C564 C 0.10339 0.27004 0.5156 0.0
C565 C 0.07878 0.31374 0.53448 0.0
C566 C 0.08737 0.34036 0.52596 0.0
C567 C 0.08675 0.36294 0.54619 0.0
C568 C 0.07759 0.35816 0.57618 0.0
C569 C 0.06886 0.33107 0.58572 0.0
C570 C 0.06915 0.30863 0.5644 0.0
H571 H 0.83421 0.03296 0.55984 0.0
H572 H 0.86573 0.11001 0.60023 0.0
H573 H 0.8708 0.13099 0.54878 0.0
H574 H 0.87807 0.03428 0.49084 0.0
H575 H 0.85043 0.02131 0.46634 0.0
H576 H 0.8511 0.01159 0.50619 0.0
H577 H 0.80036 0.03065 0.51278 0.0
H578 H 0.7996 0.04056 0.47301 0.0
H579 H 0.7927 0.06645 0.5022 0.0
H580 H 0.87232 0.14373 0.49338 0.0
H581 H 0.86814 0.14825 0.4372 0.0
H582 H 0.83283 0.06416 0.43249 0.0
C583 C 0.84251 0.05407 0.55761 0.0
C584 C 0.84992 0.0699 0.58369 0.0
C585 C 0.86017 0.09764 0.58028 0.0
C586 C 0.86312 0.10968 0.55124 0.0
C587 C 0.85541 0.09377 0.52585 0.0
C588 C 0.84518 0.06663 0.52866 0.0
C589 C 0.83717 0.05475 0.49764 0.0
C590 C 0.85528 0.02896 0.4898 0.0
C591 C 0.80558 0.0477 0.49634 0.0
C592 C 0.84433 0.07949 0.47715 0.0
C593 C 0.85515 0.10163 0.49387 0.0
C594 C 0.8638 0.12657 0.48 0.0
C595 C 0.86136 0.12895 0.44811 0.0
C596 C 0.84997 0.10669 0.43053 0.0
C597 C 0.8413 0.08169 0.44537 0.0
H598 H 0.1008 0.80776 0.56369 0.0
H599 H 0.11739 0.89654 0.57785 0.0
H600 H 0.10599 0.90588 0.52372 0.0
H601 H 0.13126 0.80511 0.48606 0.0
H602 H 0.1056 0.78003 0.47264 0.0
H603 H 0.11587 0.78024 0.51233 0.0
H604 H 0.06356 0.78567 0.52813 0.0
H605 H 0.05317 0.78587 0.4885 0.0
H606 H 0.04335 0.81461 0.51319 0.0
H607 H 0.08793 0.90637 0.47003 0.0
H608 H 0.07201 0.89712 0.41723 0.0
H609 H 0.07118 0.80757 0.43584 0.0
C610 C 0.10243 0.82909 0.55524 0.0
C611 C 0.10996 0.85145 0.57498 0.0
C612 C 0.1119 0.87907 0.5631 0.0
C613 C 0.10527 0.88462 0.53244 0.0
C614 C 0.09729 0.86223 0.51379 0.0
C615 C 0.09652 0.83492 0.52446 0.0
C616 C 0.08776 0.81468 0.49933 0.0
C617 C 0.11154 0.79378 0.49217 0.0
C618 C 0.06033 0.79931 0.50781 0.0
C619 C 0.08319 0.83499 0.47306 0.0
C620 C 0.08843 0.86234 0.48211 0.0
C621 C 0.08419 0.88501 0.46252 0.0
C622 C 0.07491 0.87957 0.43267 0.0
C623 C 0.07046 0.85165 0.42248 0.0
C624 C 0.07464 0.82909 0.443 0.0
H625 H 0.35325 0.09483 0.565 0.0
H626 H 0.26397 0.10128 0.58495 0.0
H627 H 0.25295 0.08718 0.5318 0.0
H628 H 0.3482 0.12358 0.48782 0.0
H629 H 0.37548 0.10102 0.47304 0.0
H630 H 0.376 0.11156 0.51263 0.0
H631 H 0.37753 0.0592 0.52884 0.0
H632 H 0.37653 0.04848 0.48931 0.0
H633 H 0.35038 0.03558 0.51575 0.0
H634 H 0.2518 0.06908 0.47738 0.0
H635 H 0.26052 0.05632 0.42327 0.0
H636 H 0.35044 0.06498 0.43811 0.0
C637 C 0.33139 0.09355 0.55806 0.0
C638 C 0.30944 0.09911 0.57903 0.0
C639 C 0.2811 0.09735 0.56913 0.0
C640 C 0.27464 0.08911 0.53909 0.0
C641 C 0.29677 0.08317 0.51915 0.0
C642 C 0.32458 0.08596 0.52801 0.0
C643 C 0.34442 0.07945 0.5018 0.0
C644 C 0.36206 0.10545 0.49332 0.0
C645 C 0.36332 0.05417 0.5094 0.0
C646 C 0.32345 0.07227 0.47691 0.0
C647 C 0.29608 0.07409 0.48748 0.0
C648 C 0.27314 0.06782 0.46877 0.0
C649 C 0.27829 0.06035 0.43817 0.0
C650 C 0.30612 0.05969 0.42654 0.0
C651 C 0.32893 0.06536 0.44637 0.0
H652 H 0.5936 0.79357 0.94138 0.0
H653 H 0.591 0.88307 0.92274 0.0
H654 H 0.57955 0.8923 0.97701 0.0
H655 H 0.5344 0.79346 0.99312 0.0
H656 H 0.54895 0.76709 0.01811 0.0
H657 H 0.55826 0.7674 0.97812 0.0
H658 H 0.61116 0.76988 0.99232 0.0
H659 H 0.60203 0.76935 0.03234 0.0
H660 H 0.62343 0.79746 0.01731 0.0
H661 H 0.57029 0.89199 0.0334 0.0
H662 H 0.56127 0.88204 0.08806 0.0
H663 H 0.56555 0.79259 0.06969 0.0
C664 C 0.59091 0.8151 0.94886 0.0
C665 C 0.59349 0.83767 0.92799 0.0
C666 C 0.58921 0.86552 0.93841 0.0
C667 C 0.58271 0.87096 0.96916 0.0
C668 C 0.58004 0.84827 0.9891 0.0
C669 C 0.58376 0.82087 0.97939 0.0
C670 C 0.57867 0.8003 0.00535 0.0
C671 C 0.55358 0.78092 0.99824 0.0
C672 C 0.60542 0.78325 0.01224 0.0
C673 C 0.57181 0.82044 0.03123 0.0
C674 C 0.57299 0.84802 0.02136 0.0
C675 C 0.56896 0.87049 0.04133 0.0
C676 C 0.56384 0.86466 0.07228 0.0
C677 C 0.56227 0.8366 0.08288 0.0
C678 C 0.56599 0.81421 0.06199 0.0
H679 H 0.30907 0.59777 0.9448 0.0
H680 H 0.39883 0.60376 0.92717 0.0
H681 H 0.40855 0.5906 0.98079 0.0
H682 H 0.31271 0.62761 0.02234 0.0
H683 H 0.28507 0.60521 0.03673 0.0
H684 H 0.28527 0.6155 0.99705 0.0
H685 H 0.28376 0.56307 0.98112 0.0
H686 H 0.28401 0.5526 0.02072 0.0
H687 H 0.31055 0.53946 0.99492 0.0
H688 H 0.40859 0.57244 0.03453 0.0
H689 H 0.3992 0.55867 0.08799 0.0
H690 H 0.30946 0.56847 0.07262 0.0
C691 C 0.33075 0.59667 0.95239 0.0
C692 C 0.35323 0.60174 0.93186 0.0
C693 C 0.38131 0.6002 0.94259 0.0
C694 C 0.38704 0.59251 0.97292 0.0
C695 C 0.36444 0.587 0.99238 0.0
C696 C 0.33685 0.5897 0.98283 0.0
C697 C 0.31649 0.5834 0.00873 0.0
C698 C 0.29885 0.60949 0.01668 0.0
C699 C 0.29759 0.55813 1.00089 0.0
C700 C 0.33697 0.5763 0.03416 0.0
C701 C 0.3645 0.57807 0.02404 0.0
C702 C 0.38714 0.57133 0.04286 0.0
C703 C 0.38158 0.56328 0.0731 0.0
C704 C 0.35362 0.56253 0.08443 0.0
C705 C 0.33104 0.56898 0.06458 0.0
H706 H 0.55533 0.36851 0.94089 0.0
H707 H 0.56144 0.27955 0.92036 0.0
H708 H 0.57505 0.27006 0.97394 0.0
H709 H 0.61599 0.37094 0.98821 0.0
H710 H 0.60195 0.39611 0.01502 0.0
H711 H 0.58988 0.39599 0.97595 0.0
H712 H 0.53828 0.39039 0.99425 0.0
H713 H 0.55013 0.391 0.03341 0.0
H714 H 0.52924 0.36196 0.0197 0.0
H715 H 0.58845 0.27015 0.02895 0.0
H716 H 0.60087 0.27971 0.08282 0.0
H717 H 0.59011 0.36906 0.06738 0.0
C718 C 0.55881 0.34699 0.94799 0.0
C719 C 0.55682 0.32463 0.92677 0.0
C720 C 0.56252 0.29685 0.93646 0.0
C721 C 0.57035 0.2913 0.96676 0.0
C722 C 0.57286 0.31384 0.98694 0.0
C723 C 0.56729 0.34114 0.97806 0.0
C724 C 0.57312 0.36162 0.00397 0.0
C725 C 0.59664 0.38239 0.99525 0.0
C726 C 0.54608 0.37715 0.01339 0.0
C727 C 0.58276 0.34153 0.02878 0.0
C728 C 0.58223 0.31407 0.01842 0.0
C729 C 0.58915 0.29156 0.03728 0.0
C730 C 0.59627 0.29719 0.06776 0.0
C731 C 0.59688 0.3251 0.07896 0.0
C732 C 0.59046 0.34761 0.0591 0.0
H733 H 0.83085 0.56362 0.07621 0.0
H734 H 0.82945 0.65466 0.07464 0.0
H735 H 0.83531 0.65384 0.01819 0.0
H736 H 0.88049 0.55207 0.01468 0.0
H737 H 0.86165 0.52237 0.99926 0.0
H738 H 0.85959 0.53017 0.03957 0.0
H739 H 0.80514 0.5322 0.03618 0.0
H740 H 0.80702 0.52418 0.99596 0.0
H741 H 0.78883 0.55528 0.00873 0.0
H742 H 0.84263 0.64276 0.9623 0.0
H743 H 0.84304 0.62291 0.91012 0.0
H744 H 0.83466 0.53894 0.94776 0.0
C745 C 0.832 0.58334 0.0639 0.0
C746 C 0.8301 0.60924 0.07953 0.0
C747 C 0.83098 0.63468 0.06287 0.0
C748 C 0.83448 0.63436 0.03095 0.0
C749 C 0.83644 0.60842 0.01615 0.0
C750 C 0.83464 0.58338 0.03202 0.0
C751 C 0.83491 0.55839 0.01049 0.0
C752 C 0.8607 0.53965 0.01636 0.0
C753 C 0.80734 0.54153 0.01299 0.0
C754 C 0.83717 0.57327 0.97996 0.0
C755 C 0.83867 0.60208 0.98381 0.0
C756 C 0.84132 0.62026 0.95901 0.0
C757 C 0.84172 0.60874 0.92947 0.0
C758 C 0.83885 0.57938 0.92491 0.0
C759 C 0.83684 0.56145 0.95057 0.0
H760 H 0.20815 0.2409 0.33951 0.0
H761 H 0.15217 0.21686 0.26545 0.0
H762 H 0.18163 0.17542 0.25489 0.0
H763 H 0.27353 0.21827 0.30095 0.0
H764 H 0.2894 0.2059 0.33589 0.0
H765 H 0.26469 0.23462 0.33693 0.0
H766 H 0.23408 0.20748 0.37618 0.0
H767 H 0.25874 0.1788 0.37536 0.0
H768 H 0.2221 0.1725 0.36705 0.0
H769 H 0.21399 0.1341 0.25565 0.0
H770 H 0.24875 0.09671 0.26635 0.0
H771 H 0.28627 0.14862 0.33701 0.0
C772 C 0.20226 0.22701 0.32094 0.0
C773 C 0.1778 0.23214 0.30334 0.0
C774 C 0.17085 0.2135 0.27917 0.0
C775 C 0.18746 0.18986 0.27296 0.0
C776 C 0.21132 0.18529 0.29076 0.0
C777 C 0.21895 0.20346 0.31404 0.0
C778 C 0.2454 0.19327 0.33003 0.0
C779 C 0.26969 0.21427 0.32568 0.0
C780 C 0.23973 0.18768 0.36417 0.0
C781 C 0.25089 0.16616 0.31268 0.0
C782 C 0.23095 0.162 0.29011 0.0
C783 C 0.23011 0.13739 0.27278 0.0
C784 C 0.24991 0.11629 0.27897 0.0
C785 C 0.27053 0.12009 0.30195 0.0
C786 C 0.2713 0.14558 0.31861 0.0
H787 H 0.92528 0.20916 0.33338 0.0
H788 H 0.95935 0.14917 0.26827 0.0
H789 H 1.00126 0.1791 0.26141 0.0
H790 H 0.95125 0.27234 0.29325 0.0
H791 H 0.9588 0.2908 0.32834 0.0
H792 H 0.93065 0.26538 0.3271 0.0
H793 H 0.95323 0.23842 0.37234 0.0
H794 H 0.98138 0.26374 0.37374 0.0
H795 H 0.9893 0.22691 0.36939 0.0
H796 H 0.04166 0.21254 0.26582 0.0
H797 H 0.07658 0.2493 0.2787 0.0
H798 H 0.01536 0.28986 0.33761 0.0
C799 C 0.94145 0.20248 0.31748 0.0
C800 C 0.93905 0.17677 0.30142 0.0
C801 C 0.96063 0.16881 0.28074 0.0
C802 C 0.98456 0.18567 0.27668 0.0
C803 C 0.98644 0.21072 0.29304 0.0
C804 C 0.96534 0.21934 0.31273 0.0
C805 C 0.97292 0.24703 0.3279 0.0
C806 C 0.95217 0.27026 0.31858 0.0
C807 C 0.97429 0.24382 0.36291 0.0
C808 C 1.00189 0.25216 0.31431 0.0
C809 C 1.00928 0.23089 0.2943 0.0
C810 C 0.0359 0.22965 0.28089 0.0
C811 C 0.05559 0.25055 0.28834 0.0
C812 C 0.0484 0.27263 0.30858 0.0
C813 C 0.02106 0.27364 0.32134 0.0
H814 H 0.9216 0.05263 0.34229 0.0
H815 H 0.8645 0.03422 0.26763 0.0
H816 H 0.89226 0.99166 0.25491 0.0
H817 H 0.98668 0.02593 0.30797 0.0
H818 H 0.99886 0.01084 0.34338 0.0
H819 H 0.97663 0.04149 0.34399 0.0
H820 H 0.94136 0.01534 0.37921 0.0
H821 H 0.96332 0.98454 0.37849 0.0
H822 H 0.92694 0.9821 0.36704 0.0
H823 H 0.92618 0.95105 0.25081 0.0
H824 H 0.96122 0.91317 0.25806 0.0
H825 H 0.99278 0.95533 0.3391 0.0
C826 C 0.91547 0.03998 0.32278 0.0
C827 C 0.89148 0.04693 0.30532 0.0
C828 C 0.88319 0.02937 0.2808 0.0
C829 C 0.89879 1.00523 0.2735 0.0
C830 C 0.92216 0.99867 0.29145 0.0
C831 C 0.93028 0.01537 0.3158 0.0
C832 C 0.95453 1.00228 0.33324 0.0
C833 C 0.98073 0.02127 0.33206 0.0
C834 C 0.94601 0.99567 0.36645 0.0
C835 C 0.95884 0.97562 0.31487 0.0
C836 C 0.94027 0.97418 0.29055 0.0
C837 C 0.94071 0.95188 0.26986 0.0
C838 C 0.96066 0.93051 0.27413 0.0
C839 C 0.97943 0.93129 0.29926 0.0
C840 C 0.97838 0.95408 0.31994 0.0
H841 H 0.23499 0.95877 0.32562 0.0
H842 H 0.20396 0.01669 0.25676 0.0
H843 H 0.16368 0.98527 0.24685 0.0
H844 H 0.21371 0.89393 0.28509 0.0
H845 H 0.20411 0.87616 0.32001 0.0
H846 H 0.23168 0.90223 0.32029 0.0
H847 H 0.20537 0.9298 0.36275 0.0
H848 H 0.17786 0.90378 0.36269 0.0
H849 H 0.16933 0.94025 0.35658 0.0
H850 H 0.12399 0.95079 0.24882 0.0
H851 H 0.08863 0.91426 0.26119 0.0
H852 H 0.14678 0.8767 0.32566 0.0
C853 C 0.21987 0.96467 0.30825 0.0
C854 C 0.22259 0.99022 0.29201 0.0
C855 C 0.20238 0.99719 0.26942 0.0
C856 C 0.17943 0.97946 0.26358 0.0
C857 C 0.1772 0.95456 0.28013 0.0
C858 C 0.197 0.94698 0.30178 0.0
C859 C 0.18907 0.91954 0.31713 0.0
C860 C 0.21095 0.89661 0.31021 0.0
C861 C 0.18517 0.9236 0.35183 0.0
C862 C 0.1613 0.91337 0.3014 0.0
C863 C 0.15486 0.93384 0.2801 0.0
C864 C 0.12907 0.93425 0.26486 0.0
C865 C 0.10914 0.91347 0.27198 0.0
C866 C 0.11532 0.89239 0.29375 0.0
C867 C 0.14195 0.89203 0.30812 0.0
H868 H 0.24757 0.04961 0.67226 0.0
H869 H 0.31192 0.02373 0.73652 0.0
H870 H 0.28446 0.98049 0.74808 0.0
H871 H 0.18612 0.02135 0.71125 0.0
H872 H 0.16984 1.00982 0.67615 0.0
H873 H 0.19292 0.03989 0.67603 0.0
H874 H 0.22351 0.01637 0.63407 0.0
H875 H 0.20064 0.98618 0.63417 0.0
H876 H 0.23786 0.98185 0.64074 0.0
H877 H 0.24898 0.94029 0.75257 0.0
H878 H 0.21193 0.90408 0.74531 0.0
H879 H 0.17472 0.95418 0.67316 0.0
C880 C 0.25552 0.03511 0.6893 0.0
C881 C 0.28136 0.04016 0.70422 0.0
C882 C 0.29185 0.02029 0.72537 0.0
C883 C 0.27641 0.99578 0.73201 0.0
C884 C 0.251 0.99129 0.71665 0.0
C885 C 0.24092 0.01025 0.69537 0.0
C886 C 0.21463 0.99943 0.67974 0.0
C887 C 0.18939 0.01877 0.68619 0.0
C888 C 0.21947 0.99573 0.64514 0.0
C889 C 0.21132 0.97139 0.69558 0.0
C890 C 0.23214 0.96727 0.71725 0.0
C891 C 0.23276 0.94322 0.73549 0.0
C892 C 0.21168 0.92284 0.73128 0.0
C893 C 0.19083 0.92637 0.70849 0.0
C894 C 0.19072 0.9509 0.69044 0.0
H895 H 0.09569 0.23127 0.68364 0.0
H896 H 0.14024 0.29949 0.72859 0.0
H897 H 0.18237 0.26952 0.73298 0.0
H898 H 0.13001 0.17234 0.72647 0.0
H899 H 0.13101 0.15046 0.69279 0.0
H900 H 0.10301 0.17561 0.69772 0.0
H901 H 0.11533 0.19753 0.64513 0.0
H902 H 0.14359 0.17281 0.64021 0.0
H903 H 0.15064 0.20999 0.63819 0.0
H904 H 0.2213 0.23499 0.72609 0.0
H905 H 0.25382 0.19712 0.71112 0.0
H906 H 0.18425 0.15104 0.67051 0.0
C907 C 0.11397 0.2396 0.69536 0.0
C908 C 0.11459 0.26769 0.70595 0.0
C909 C 0.13921 0.27801 0.72043 0.0
C910 C 0.16326 0.26114 0.72304 0.0
C911 C 0.16232 0.23395 0.71121 0.0
C912 C 0.13822 0.22309 0.69799 0.0
C913 C 0.14352 0.19412 0.68472 0.0
C914 C 0.12584 0.17181 0.70143 0.0
C915 C 0.13794 0.19361 0.65001 0.0
C916 C 0.17458 0.19079 0.69168 0.0
C917 C 0.18492 0.21391 0.70721 0.0
C918 C 0.21335 0.21655 0.71442 0.0
C919 C 0.2317 0.19495 0.70565 0.0
C920 C 0.2216 0.171 0.68976 0.0
C921 C 0.19258 0.1689 0.68293 0.0
H922 H 0.91893 0.10983 0.66692 0.0
H923 H 0.86365 0.13128 0.74238 0.0
H924 H 0.89114 0.17488 0.75129 0.0
H925 H 0.98434 0.13859 0.6974 0.0
H926 H 0.99565 0.15191 0.66077 0.0
H927 H 0.97349 0.1212 0.66267 0.0
H928 H 0.93733 0.14541 0.62702 0.0
H929 H 0.95922 0.17629 0.62524 0.0
H930 H 0.92311 0.17916 0.63761 0.0
H931 H 0.92494 0.2159 0.7518 0.0
H932 H 0.96018 0.25308 0.74189 0.0
H933 H 0.99008 0.20731 0.66242 0.0
C934 C 0.91308 0.12338 0.68581 0.0
C935 C 0.88967 0.11694 0.70455 0.0
C936 C 0.88184 0.13569 0.72819 0.0
C937 C 0.89728 0.16046 0.73332 0.0
C938 C 0.92004 0.16641 0.71412 0.0
C939 C 0.92773 0.14853 0.69064 0.0
C940 C 0.95154 0.16082 0.67172 0.0
C941 C 0.97781 0.14201 0.67325 0.0
C942 C 0.94223 0.16571 0.63843 0.0
C943 C 0.95622 0.18839 0.68832 0.0
C944 C 0.93809 0.19099 0.71298 0.0
C945 C 0.93907 0.21417 0.73244 0.0
C946 C 0.95914 0.23515 0.72664 0.0
C947 C 0.97757 0.23315 0.70123 0.0
C948 C 0.97591 0.20955 0.68171 0.0
H949 H 0.01989 0.87717 0.66755 0.0
H950 H 0.078 0.91533 0.73188 0.0
H951 H 0.04296 0.95222 0.74341 0.0
H952 H 0.99663 0.94059 0.63604 0.0
H953 H 0.9606 0.92979 0.63047 0.0
H954 H 0.98827 0.90398 0.63043 0.0
H955 H 0.96302 0.87647 0.67363 0.0
H956 H 0.93507 0.90207 0.67361 0.0
H957 H 0.95364 0.89436 0.70857 0.0
H958 H 1.00326 0.98642 0.74555 0.0
H959 H 0.96199 0.01679 0.7373 0.0
H960 H 0.93034 0.95838 0.66907 0.0
C961 C 0.02484 0.89283 0.68474 0.0
C962 C 0.05143 0.89318 0.69929 0.0
C963 C 0.05762 0.91456 0.72078 0.0
C964 C 0.03786 0.93556 0.72746 0.0
C965 C 0.01212 0.93507 0.71217 0.0
C966 C 1.00553 0.91432 0.69121 0.0
C967 C 0.97743 0.92016 0.67594 0.0
C968 C 0.98096 0.92385 0.64116 0.0
C969 C 0.95602 0.89688 0.68339 0.0
C970 C 0.96947 0.94764 0.69128 0.0
C971 C 0.98962 0.95559 0.7124 0.0
C972 C 0.98727 0.98035 0.7292 0.0
C973 C 0.96372 0.99747 0.7243 0.0
C974 C 0.94294 0.99003 0.70248 0.0
C975 C 0.94591 0.9647 0.68581 0.0
H976 H 0.7073 0.73785 0.79442 0.0
H977 H 0.64259 0.70696 0.85587 0.0
H978 H 0.66553 0.66031 0.85669 0.0
H979 H 0.71951 0.67339 0.75149 0.0
H980 H 0.75719 0.67787 0.75005 0.0
H981 H 0.73453 0.7082 0.75189 0.0
H982 H 0.76071 0.72569 0.80032 0.0
H983 H 0.78363 0.69563 0.79836 0.0
H984 H 0.76398 0.70264 0.83285 0.0
H985 H 0.69462 0.61731 0.85024 0.0
H986 H 0.73247 0.58254 0.84512 0.0
H987 H 0.78152 0.64213 0.7917 0.0
C988 C 0.69799 0.72112 0.80786 0.0
C989 C 0.67311 0.72568 0.82489 0.0
C990 C 0.66168 0.7037 0.84274 0.0
C991 C 0.67441 0.67715 0.8431 0.0
C992 C 0.69884 0.67317 0.82593 0.0
C993 C 0.71093 0.69467 0.8092 0.0
C994 C 0.73871 0.68545 0.79521 0.0
C995 C 0.73739 0.68628 0.76007 0.0
C996 C 0.7632 0.70342 0.80743 0.0
C997 C 0.74036 0.65545 0.80685 0.0
C998 C 0.71676 0.6487 0.82386 0.0
C999 C 0.71328 0.62236 0.8371 0.0
C1000 C 0.73495 0.60268 0.8339 0.0
C1001 C 0.76017 0.60956 0.81811 0.0
C1002 C 0.76254 0.63616 0.80383 0.0
H1003 H 0.54747 0.74693 0.84602 0.0
H1004 H 0.53127 0.79891 0.76656 0.0
H1005 H 0.48994 0.76928 0.75366 0.0
H1006 H 0.52502 0.67975 0.81467 0.0
H1007 H 0.5085 0.66865 0.84981 0.0
H1008 H 0.53816 0.69227 0.85091 0.0
H1009 H 0.50865 0.72797 0.88219 0.0
H1010 H 0.47887 0.70454 0.88106 0.0
H1011 H 0.47543 0.74004 0.86721 0.0
H1012 H 0.45068 0.73328 0.74937 0.0
H1013 H 0.41394 0.6969 0.75663 0.0
H1014 H 0.45305 0.67188 0.84198 0.0
C1015 C 0.53549 0.7517 0.82558 0.0
C1016 C 0.54277 0.77478 0.80686 0.0
C1017 C 0.52612 0.78108 0.78093 0.0
C1018 C 0.50269 0.76437 0.77345 0.0
C1019 C 0.49589 0.74186 0.79257 0.0
C1020 C 0.51161 0.73576 0.81833 0.0
C1021 C 0.49862 0.71188 0.83644 0.0
C1022 C 0.51878 0.68664 0.83804 0.0
C1023 C 0.48987 0.72171 0.86862 0.0
C1024 C 0.47316 0.70537 0.81681 0.0
C1025 C 0.47222 0.72257 0.79133 0.0
C1026 C 0.45111 0.71986 0.76935 0.0
C1027 C 0.4304 0.69913 0.77361 0.0
C1028 C 0.4306 0.68183 0.79996 0.0
C1029 C 0.45223 0.6851 0.82183 0.0
H1030 H 0.4536 0.42358 0.84503 0.0
H1031 H 0.50925 0.44844 0.77089 0.0
H1032 H 0.47916 0.48936 0.76037 0.0
H1033 H 0.38791 0.44506 0.80695 0.0
H1034 H 0.37196 0.4574 0.84191 0.0
H1035 H 0.39713 0.42909 0.84297 0.0
H1036 H 0.42745 0.45696 0.88186 0.0
H1037 H 0.40232 0.48522 0.88104 0.0
H1038 H 0.43882 0.49207 0.87246 0.0
H1039 H 0.44605 0.52998 0.76091 0.0
H1040 H 0.41065 0.56682 0.77157 0.0
H1041 H 0.37415 0.51463 0.84261 0.0
C1042 C 0.45931 0.43756 0.82648 0.0
C1043 C 0.48384 0.43279 0.80884 0.0
C1044 C 0.49055 0.45154 0.78469 0.0
C1045 C 0.47356 0.47488 0.77848 0.0
C1046 C 0.44963 0.47906 0.79628 0.0
C1047 C 0.4423 0.46085 0.81963 0.0
C1048 C 0.41574 0.47069 0.8357 0.0
C1049 C 0.39177 0.44928 0.83163 0.0
C1050 C 0.42144 0.47659 0.86978 0.0
C1051 C 0.40978 0.49759 0.81824 0.0
C1052 C 0.42962 0.502 0.79559 0.0
C1053 C 0.43002 0.52651 0.77812 0.0
C1054 C 0.40987 0.5473 0.78428 0.0
C1055 C 0.38937 0.54324 0.80737 0.0
C1056 C 0.38905 0.51784 0.82414 0.0
H1057 H 0.7438 0.44774 0.80113 0.0
H1058 H 0.72047 0.50677 0.87245 0.0
H1059 H 0.67345 0.48476 0.87598 0.0
H1060 H 0.67691 0.44233 0.76399 0.0
H1061 H 0.6789 0.40498 0.7574 0.0
H1062 H 0.71071 0.42556 0.75963 0.0
H1063 H 0.72946 0.39344 0.80289 0.0
H1064 H 0.69789 0.37253 0.80048 0.0
H1065 H 0.70822 0.38777 0.83656 0.0
H1066 H 0.62839 0.45916 0.86917 0.0
H1067 H 0.59006 0.42545 0.86007 0.0
H1068 H 0.64342 0.37905 0.79704 0.0
C1069 C 0.72877 0.45579 0.8176 0.0
C1070 C 0.73555 0.47894 0.8365 0.0
C1071 C 0.71563 0.4889 0.85799 0.0
C1072 C 0.68885 0.47672 0.85995 0.0
C1073 C 0.6826 0.45421 0.84071 0.0
C1074 C 0.70215 0.44328 0.82054 0.0
C1075 C 0.69037 0.41784 0.80387 0.0
C1076 C 0.68916 0.423 0.76916 0.0
C1077 C 0.70751 0.39132 0.81141 0.0
C1078 C 0.66106 0.41644 0.81764 0.0
C1079 C 0.65695 0.43804 0.83833 0.0
C1080 C 0.63141 0.44196 0.8533 0.0
C1081 C 0.60968 0.42278 0.84774 0.0
C1082 C 0.61375 0.39957 0.82787 0.0
C1083 C 0.63974 0.39654 0.81238 0.0
H1084 H 0.6526 0.47237 0.16606 0.0
H1085 H 0.70456 0.3994 0.18502 0.0
H1086 H 0.74484 0.4304 0.19606 0.0
H1087 H 0.70605 0.5114 0.1274 0.0
H1088 H 0.69499 0.54498 0.14225 0.0
H1089 H 0.66971 0.51709 0.13764 0.0
H1090 H 0.65605 0.52155 0.19488 0.0
H1091 H 0.68152 0.5493 0.19971 0.0
H1092 H 0.68297 0.51858 0.22377 0.0
H1093 H 0.77986 0.46893 0.20378 0.0
H1094 H 0.80834 0.51224 0.20368 0.0
H1095 H 0.7342 0.56054 0.17892 0.0
C1096 C 0.6724 0.46291 0.17271 0.0
C1097 C 0.67529 0.43338 0.17486 0.0
C1098 C 0.7017 0.42189 0.1833 0.0
C1099 C 0.72472 0.43936 0.18976 0.0
C1100 C 0.72112 0.46832 0.18759 0.0
C1101 C 0.69572 0.48006 0.17903 0.0
C1102 C 0.69798 0.5118 0.17686 0.0
C1103 C 0.69183 0.5219 0.14409 0.0
C1104 C 0.67847 0.52615 0.2002 0.0
C1105 C 0.7287 0.51599 0.18518 0.0
C1106 C 0.74154 0.49064 0.19163 0.0
C1107 C 0.77003 0.48894 0.19891 0.0
C1108 C 0.78603 0.51371 0.19883 0.0
C1109 C 0.77358 0.53988 0.19134 0.0
C1110 C 0.74435 0.54098 0.18507 0.0
H1111 H 0.73771 0.70339 0.17416 0.0
H1112 H 0.69854 0.63685 0.22725 0.0
H1113 H 0.65663 0.66643 0.23497 0.0
H1114 H 0.71045 0.7614 0.22073 0.0
H1115 H 0.70516 0.78426 0.18837 0.0
H1116 H 0.73266 0.75819 0.18742 0.0
H1117 H 0.71198 0.73764 0.13731 0.0
H1118 H 0.68454 0.7637 0.13804 0.0
H1119 H 0.67556 0.72692 0.13633 0.0
H1120 H 0.61759 0.70128 0.23374 0.0
H1121 H 0.58437 0.74043 0.22517 0.0
H1122 H 0.64921 0.7862 0.17605 0.0
C1123 C 0.72032 0.69512 0.18746 0.0
C1124 C 0.72141 0.66774 0.20004 0.0
C1125 C 0.69829 0.65775 0.21747 0.0
C1126 C 0.67434 0.67441 0.22201 0.0
C1127 C 0.6739 0.70123 0.20935 0.0
C1128 C 0.69631 0.7117 0.19264 0.0
C1129 C 0.69013 0.74123 0.18136 0.0
C1130 C 0.71083 0.76253 0.19531 0.0
C1131 C 0.69057 0.74243 0.14617 0.0
C1132 C 0.66057 0.74542 0.19383 0.0
C1133 C 0.65165 0.72201 0.20984 0.0
C1134 C 0.62447 0.71994 0.2217 0.0
C1135 C 0.60576 0.74223 0.21674 0.0
C1136 C 0.6144 0.76646 0.20046 0.0
C1137 C 0.64232 0.76822 0.1893 0.0
H1138 H 0.49167 0.71172 0.16414 0.0
H1139 H 0.45992 0.75865 0.2419 0.0
H1140 H 0.42481 0.72129 0.25187 0.0
H1141 H 0.42586 0.68245 0.13846 0.0
H1142 H 0.4407 0.64871 0.12893 0.0
H1143 H 0.4623 0.67979 0.1272 0.0
H1144 H 0.49813 0.65666 0.16411 0.0
H1145 H 0.47649 0.6256 0.16617 0.0
H1146 H 0.48626 0.64384 0.20074 0.0
H1147 H 0.39124 0.68008 0.25122 0.0
H1148 H 0.36425 0.63613 0.24243 0.0
H1149 H 0.42163 0.61348 0.16933 0.0
C1150 C 0.4771 0.71416 0.18305 0.0
C1151 C 0.47811 0.73814 0.20203 0.0
C1152 C 0.45927 0.74044 0.22703 0.0
C1153 C 0.43931 0.71936 0.23286 0.0
C1154 C 0.43896 0.6958 0.21391 0.0
C1155 C 0.4576 0.69289 0.18976 0.0
C1156 C 0.4536 0.66492 0.17373 0.0
C1157 C 0.4451 0.66924 0.14009 0.0
C1158 C 0.4802 0.64668 0.17636 0.0
C1159 C 0.42956 0.65277 0.19234 0.0
C1160 C 0.42117 0.67105 0.21519 0.0
C1161 C 0.39797 0.66533 0.23383 0.0
C1162 C 0.38283 0.64038 0.22879 0.0
C1163 C 0.39145 0.62123 0.20588 0.0
C1164 C 0.41527 0.62739 0.18771 0.0
H1165 H 0.54886 0.41382 0.16433 0.0
H1166 H 0.53004 0.35965 0.24139 0.0
H1167 H 0.49014 0.39058 0.25572 0.0
H1168 H 0.52904 0.48086 0.19856 0.0
H1169 H 0.51309 0.49377 0.1639 0.0
H1170 H 0.54182 0.46914 0.16184 0.0
H1171 H 0.51107 0.43565 0.12908 0.0
H1172 H 0.48222 0.4601 0.13114 0.0
H1173 H 0.47735 0.4243 0.14352 0.0
H1174 H 0.45251 0.42785 0.26158 0.0
H1175 H 0.41692 0.46542 0.25556 0.0
H1176 H 0.45718 0.49196 0.17128 0.0
C1177 C 0.53663 0.40885 0.18456 0.0
C1178 C 0.54276 0.38479 0.20223 0.0
C1179 C 0.52579 0.37825 0.22788 0.0
C1180 C 0.50317 0.3957 0.23616 0.0
C1181 C 0.49748 0.41918 0.21809 0.0
C1182 C 0.51349 0.42554 0.19257 0.0
C1183 C 0.5015 0.4505 0.17545 0.0
C1184 C 0.52262 0.47502 0.17492 0.0
C1185 C 0.4925 0.44212 0.14287 0.0
C1186 C 0.47624 0.45725 0.19532 0.0
C1187 C 0.4746 0.43928 0.22013 0.0
C1188 C 0.45349 0.4419 0.24215 0.0
C1189 C 0.43344 0.46331 0.2386 0.0
C1190 C 0.43426 0.48136 0.21287 0.0
C1191 C 0.45593 0.47822 0.19098 0.0
H1192 H 0.27966 0.45146 0.20322 0.0
H1193 H 0.28576 0.5104 0.2785 0.0
H1194 H 0.25409 0.48044 0.30952 0.0
H1195 H 0.20749 0.43711 0.21175 0.0
H1196 H 0.20966 0.40032 0.20217 0.0
H1197 H 0.23523 0.42459 0.18706 0.0
H1198 H 0.27559 0.39472 0.21002 0.0
H1199 H 0.25011 0.37025 0.22511 0.0
H1200 H 0.27532 0.38658 0.25032 0.0
H1201 H 0.21902 0.44655 0.33066 0.0
H1202 H 0.18246 0.41064 0.34074 0.0
H1203 H 0.19842 0.3731 0.25206 0.0
C1204 C 0.27478 0.45755 0.22651 0.0
C1205 C 0.28532 0.48292 0.23882 0.0
C1206 C 0.27803 0.49083 0.26898 0.0
C1207 C 0.26011 0.47396 0.28669 0.0
C1208 C 0.24966 0.44924 0.27385 0.0
C1209 C 0.25676 0.44094 0.2445 0.0
C1210 C 0.2411 0.41433 0.23556 0.0
C1211 C 0.22225 0.4194 0.20748 0.0
C1212 C 0.26177 0.39003 0.22992 0.0
C1213 C 0.22366 0.40934 0.26419 0.0
C1214 C 0.22915 0.42964 0.28606 0.0
C1215 C 0.21477 0.43038 0.31386 0.0
C1216 C 0.19405 0.41 0.31938 0.0
C1217 C 0.18784 0.38925 0.2972 0.0
C1218 C 0.20308 0.38866 0.26945 0.0
H1219 H 0.79316 0.19793 0.24983 0.0
H1220 H 0.75666 0.18255 0.33918 0.0
H1221 H 0.71967 0.21776 0.32877 0.0
H1222 H 0.77707 0.27446 0.24647 0.0
H1223 H 0.76873 0.27335 0.20624 0.0
H1224 H 0.79422 0.24928 0.2219 0.0
H1225 H 0.76568 0.20728 0.20036 0.0
H1226 H 0.74012 0.23117 0.18472 0.0
H1227 H 0.72901 0.20365 0.21038 0.0
H1228 H 0.6843 0.25068 0.3072 0.0
H1229 H 0.65255 0.27985 0.27561 0.0
H1230 H 0.71134 0.27491 0.19993 0.0
C1231 C 0.77769 0.20256 0.26733 0.0
C1232 C 0.77769 0.18781 0.29537 0.0
C1233 C 0.75691 0.19381 0.31763 0.0
C1234 C 0.73592 0.21378 0.31194 0.0
C1235 C 0.73604 0.22764 0.28386 0.0
C1236 C 0.7564 0.22245 0.26191 0.0
C1237 C 0.75042 0.23893 0.23287 0.0
C1238 C 0.77402 0.26028 0.2265 0.0
C1239 C 0.74605 0.21907 0.20547 0.0
C1240 C 0.72322 0.25361 0.24171 0.0
C1241 C 0.71549 0.24694 0.27135 0.0
C1242 C 0.69034 0.25643 0.28415 0.0
C1243 C 0.67245 0.27294 0.26611 0.0
C1244 C 0.67979 0.27983 0.23567 0.0
C1245 C 0.70564 0.27036 0.22342 0.0
H1246 H 0.89953 0.66653 0.26223 0.0
H1247 H 0.86286 0.71445 0.18796 0.0
H1248 H 0.893 0.75501 0.2013 0.0
H1249 H 0.90695 0.72491 0.31585 0.0
H1250 H 0.94015 0.71264 0.33066 0.0
H1251 H 0.91476 0.68784 0.31613 0.0
H1252 H 0.95221 0.66812 0.27869 0.0
H1253 H 0.97767 0.69294 0.29299 0.0
H1254 H 0.96984 0.69168 0.25265 0.0
H1255 H 0.92821 0.78968 0.2214 0.0
H1256 H 0.96601 0.81638 0.24727 0.0
H1257 H 0.97998 0.74638 0.30886 0.0
C1258 C 0.89773 0.68571 0.24904 0.0
C1259 C 0.87854 0.68764 0.22444 0.0
C1260 C 0.87694 0.71284 0.20736 0.0
C1261 C 0.8941 0.73589 0.21464 0.0
C1262 C 0.91284 0.73336 0.23901 0.0
C1263 C 0.91474 0.70895 0.25603 0.0
C1264 C 0.93709 0.71159 0.28066 0.0
C1265 C 0.92395 0.7091 0.31272 0.0
C1266 C 0.96059 0.68978 0.27595 0.0
C1267 C 0.94763 0.74117 0.27463 0.0
C1268 C 0.93328 0.75335 0.25054 0.0
C1269 C 0.93947 0.78042 0.2404 0.0
C1270 C 0.96088 0.79546 0.25527 0.0
C1271 C 0.97587 0.78341 0.27996 0.0
C1272 C 0.96903 0.75596 0.28981 0.0
H1273 H 0.40714 0.99891 0.2592 0.0
H1274 H 0.36045 0.94579 0.32188 0.0
H1275 H 0.39087 0.90556 0.30825 0.0
H1276 H 0.41863 0.94675 0.20078 0.0
H1277 H 0.4538 0.95845 0.19183 0.0
H1278 H 0.42828 0.98304 0.20641 0.0
H1279 H 0.4622 0.99626 0.25055 0.0
H1280 H 0.48782 0.97167 0.23612 0.0
H1281 H 0.47572 0.96902 0.27513 0.0
H1282 H 0.42604 0.87096 0.28749 0.0
H1283 H 0.46407 0.84456 0.26157 0.0
H1284 H 0.48858 0.91997 0.21266 0.0
C1285 C 0.40341 0.97878 0.27002 0.0
C1286 C 0.38115 0.97529 0.29122 0.0
C1287 C 0.37695 0.94872 0.30506 0.0
C1288 C 0.39425 0.92582 0.29762 0.0
C1289 C 0.41585 0.92984 0.27644 0.0
C1290 C 0.42057 0.95567 0.26289 0.0
C1291 C 0.44531 0.95431 0.2409 0.0
C1292 C 0.43593 0.96103 0.20803 0.0
C1293 C 0.46918 0.97398 0.25131 0.0
C1294 C 0.45369 0.92368 0.24414 0.0
C1295 C 0.43639 0.90997 0.26477 0.0
C1296 C 0.43974 0.8815 0.27134 0.0
C1297 C 0.46129 0.86665 0.25644 0.0
C1298 C 0.4793 0.88025 0.23528 0.0
C1299 C 0.47538 0.90915 0.22909 0.0
H1300 H 0.26104 0.66406 0.75342 0.0
H1301 H 0.2869 0.71084 0.83376 0.0
H1302 H 0.2552 0.74979 0.81908 0.0
H1303 H 0.25564 0.72294 0.70231 0.0
H1304 H 0.22485 0.70991 0.68279 0.0
H1305 H 0.24938 0.68563 0.69971 0.0
H1306 H 0.20892 0.66336 0.73131 0.0
H1307 H 0.18426 0.68761 0.71451 0.0
H1308 H 0.18755 0.68541 0.75553 0.0
H1309 H 0.22166 0.78391 0.79527 0.0
H1310 H 0.1877 0.81095 0.7642 0.0
H1311 H 0.1826 0.74213 0.69937 0.0
C1312 C 0.25991 0.68255 0.76784 0.0
C1313 C 0.27664 0.68477 0.79447 0.0
C1314 C 0.27459 0.70907 0.81299 0.0
C1315 C 0.25655 0.73117 0.80492 0.0
C1316 C 0.2405 0.72852 0.77837 0.0
C1317 C 0.24188 0.70481 0.76014 0.0
C1318 C 0.22236 0.7074 0.73277 0.0
C1319 C 0.23906 0.70642 0.70262 0.0
C1320 C 0.19941 0.68459 0.73359 0.0
C1321 C 0.21 0.73635 0.73836 0.0
C1322 C 0.22077 0.74811 0.76483 0.0
C1323 C 0.21301 0.77489 0.77456 0.0
C1324 C 0.19382 0.79012 0.75674 0.0
C1325 C 0.18252 0.77856 0.72955 0.0
C1326 C 0.19067 0.75127 0.72031 0.0
H1327 H 0.41099 0.16604 0.74684 0.0
H1328 H 0.36598 0.21606 0.68003 0.0
H1329 H 0.39491 0.25747 0.69363 0.0
H1330 H 0.41897 0.22025 0.80375 0.0
H1331 H 0.45394 0.20957 0.81473 0.0
H1332 H 0.42945 0.18401 0.79997 0.0
H1333 H 0.46537 0.17009 0.75793 0.0
H1334 H 0.48996 0.19564 0.77255 0.0
H1335 H 0.47942 0.1968 0.73295 0.0
H1336 H 0.42866 0.29349 0.71468 0.0
H1337 H 0.46545 0.32129 0.74121 0.0
H1338 H 0.48898 0.24777 0.79375 0.0
C1339 C 0.40734 0.18574 0.73509 0.0
C1340 C 0.38613 0.18803 0.7126 0.0
C1341 C 0.38186 0.21406 0.69767 0.0
C1342 C 0.39827 0.23762 0.70512 0.0
C1343 C 0.41899 0.23473 0.72746 0.0
C1344 C 0.42365 0.20945 0.74219 0.0
C1345 C 0.4474 0.21196 0.76518 0.0
C1346 C 0.4368 0.20611 0.79784 0.0
C1347 C 0.47199 0.19246 0.75663 0.0
C1348 C 0.45533 0.24259 0.76112 0.0
C1349 C 0.43867 0.25537 0.73928 0.0
C1350 C 0.44188 0.28368 0.73176 0.0
C1351 C 0.46273 0.29931 0.74694 0.0
C1352 C 0.48011 0.28657 0.76921 0.0
C1353 C 0.47624 0.25788 0.77642 0.0
H1354 H 0.97998 0.38335 0.76682 0.0
H1355 H 0.95512 0.38122 0.6715 0.0
H1356 H 0.91765 0.41609 0.6821 0.0
H1357 H 0.90896 0.3916 0.799 0.0
H1358 H 0.92065 0.41504 0.82883 0.0
H1359 H 0.9442 0.38867 0.81398 0.0
H1360 H 0.98093 0.42729 0.80139 0.0
H1361 H 0.95746 0.4538 0.81602 0.0
H1362 H 0.97088 0.45649 0.77752 0.0
H1363 H 0.88517 0.45355 0.70247 0.0
H1364 H 0.85854 0.48948 0.73175 0.0
H1365 H 0.90385 0.46676 0.81402 0.0
C1366 C 0.96623 0.38993 0.7484 0.0
C1367 C 0.96989 0.37934 0.71849 0.0
C1368 C 0.95208 0.38872 0.69468 0.0
C1369 C 0.93092 0.40859 0.70048 0.0
C1370 C 0.9279 0.41883 0.73022 0.0
C1371 C 0.94493 0.40968 0.75385 0.0
C1372 C 0.93788 0.42465 0.78352 0.0
C1373 C 0.92729 0.40374 0.80776 0.0
C1374 C 0.9633 0.44156 0.7953 0.0
C1375 C 0.91444 0.44387 0.77285 0.0
C1376 C 0.90904 0.44022 0.742 0.0
C1377 C 0.889 0.45637 0.72669 0.0
C1378 C 0.87405 0.47669 0.74338 0.0
C1379 C 0.87913 0.48049 0.77496 0.0
C1380 C 0.8995 0.46389 0.78989 0.0
H1381 H 0.68708 0.91121 0.80873 0.0
H1382 H 0.70248 0.83804 0.75213 0.0
H1383 H 0.74044 0.86377 0.72492 0.0
H1384 H 0.69704 0.96265 0.75162 0.0
H1385 H 0.71462 0.98758 0.77613 0.0
H1386 H 0.68985 0.96296 0.79215 0.0
H1387 H 0.72789 0.9451 0.82988 0.0
H1388 H 0.75275 0.96984 0.81414 0.0
H1389 H 0.76122 0.93293 0.8152 0.0
H1390 H 0.7733 0.89932 0.70064 0.0
H1391 H 0.80144 0.94035 0.68407 0.0
H1392 H 0.76747 0.98918 0.7593 0.0
C1393 C 0.69871 0.90059 0.7908 0.0
C1394 C 0.69191 0.87274 0.7823 0.0
C1395 C 0.70755 0.85935 0.75894 0.0
C1396 C 0.72902 0.87383 0.74335 0.0
C1397 C 0.73486 0.90153 0.75182 0.0
C1398 C 0.72045 0.91461 0.77535 0.0
C1399 C 0.73063 0.94455 0.77984 0.0
C1400 C 0.7066 0.96567 0.77462 0.0
C1401 C 0.74392 0.94832 0.81166 0.0
C1402 C 0.75263 0.94651 0.75476 0.0
C1403 C 0.75465 0.92151 0.73876 0.0
C1404 C 0.7723 0.91879 0.71341 0.0
C1405 C 0.78831 0.94216 0.70425 0.0
C1406 C 0.7869 0.96784 0.72059 0.0
C1407 C 0.76896 0.96984 0.74633 0.0
H1408 H 0.02657 0.73583 0.73116 0.0
H1409 H 1.00007 0.71867 0.63798 0.0
H1410 H 0.96275 0.6872 0.65754 0.0
H1411 H 0.01573 0.66758 0.76047 0.0
H1412 H 1.00288 0.67926 0.79716 0.0
H1413 H 0.02703 0.70091 0.77583 0.0
H1414 H 0.99172 0.74236 0.77806 0.0
H1415 H 0.96749 0.72088 0.79954 0.0
H1416 H 0.95624 0.73732 0.76447 0.0
H1417 H 0.92944 0.65634 0.6873 0.0
H1418 H 0.90268 0.62846 0.72498 0.0
H1419 H 0.94929 0.66807 0.79873 0.0
C1420 C 0.01249 0.7262 0.71483 0.0
C1421 C 0.01583 0.73032 0.68303 0.0
C1422 C 0.99777 0.71597 0.66247 0.0
C1423 C 0.97646 0.69814 0.67335 0.0
C1424 C 0.97352 0.69485 0.70486 0.0
C1425 C 0.99102 0.70849 0.7253 0.0
C1426 C 0.98387 0.70086 0.75804 0.0
C1427 C 1.00886 0.68628 0.77379 0.0
C1428 C 0.97426 0.72691 0.77608 0.0
C1429 C 0.95972 0.68064 0.7528 0.0
C1430 C 0.95405 0.67746 0.72199 0.0
C1431 C 0.93331 0.65908 0.71153 0.0
C1432 C 0.91794 0.64357 0.73316 0.0
C1433 C 0.92317 0.6468 0.76489 0.0
C1434 C 0.94448 0.66549 0.77466 0.0
H1435 H 0.44152 0.03629 0.73303 0.0
H1436 H 0.45803 1.00523 0.64122 0.0
H1437 H 0.49282 0.97207 0.66216 0.0
H1438 H 0.51161 0.02991 0.76254 0.0
H1439 H 0.50026 0.01814 0.79977 0.0
H1440 H 0.47793 0.04081 0.77744 0.0
H1441 H 0.43731 1.00456 0.78132 0.0
H1442 H 0.45945 0.98185 0.80378 0.0
H1443 H 0.44329 0.96882 0.76925 0.0
H1444 H 0.52538 0.94189 0.69299 0.0
H1445 H 0.55202 0.91538 0.73194 0.0
H1446 H 0.51107 0.96315 0.80386 0.0
C1447 C 0.45175 0.0222 0.71722 0.0
C1448 C 0.44631 0.02306 0.68542 0.0
C1449 C 0.46166 1.00501 0.66568 0.0
C1450 C 0.48147 0.98603 0.67735 0.0
C1451 C 0.48573 0.98529 0.70884 0.0
C1452 C 0.47127 1.00282 0.72852 0.0
C1453 C 0.4791 0.99714 0.76156 0.0
C1454 C 0.49306 0.02304 0.77618 0.0
C1455 C 0.45325 0.98751 0.78006 0.0
C1456 C 0.50002 0.97346 0.75735 0.0
C1457 C 0.50377 0.96718 0.72673 0.0
C1458 C 0.52229 0.94631 0.71707 0.0
C1459 C 0.53704 0.93113 0.73934 0.0
C1460 C 0.53269 0.93647 0.77088 0.0
C1461 C 0.51439 0.95833 0.77989 0.0
H1462 H 0.16143 0.45065 0.7072 0.0
H1463 H 0.11153 0.41492 0.78086 0.0
H1464 H 0.13913 0.44168 0.8184 0.0
H1465 H 0.22772 0.4536 0.74624 0.0
H1466 H 0.23764 0.48723 0.73061 0.0
H1467 H 0.21476 0.46425 0.70925 0.0
H1468 H 0.17729 0.50367 0.70581 0.0
H1469 H 0.20015 0.52684 0.72695 0.0
H1470 H 0.16488 0.52019 0.74043 0.0
H1471 H 0.17258 0.47185 0.84819 0.0
H1472 H 0.20763 0.50539 0.86796 0.0
H1473 H 0.23253 0.52525 0.7747 0.0
C1474 C 0.15634 0.44835 0.73124 0.0
C1475 C 0.13504 0.42957 0.74103 0.0
C1476 C 0.12869 0.42775 0.77268 0.0
C1477 C 0.14403 0.44328 0.79426 0.0
C1478 C 0.16528 0.46106 0.78385 0.0
C1479 C 0.17119 0.46401 0.75308 0.0
C1480 C 0.19438 0.48543 0.74791 0.0
C1481 C 0.22015 0.4718 0.7326 0.0
C1482 C 0.18351 0.51052 0.72917 0.0
C1483 C 0.20071 0.49384 0.78065 0.0
C1484 C 0.18379 0.47941 0.80099 0.0
C1485 C 0.18591 0.48335 0.83246 0.0
C1486 C 0.2059 0.50254 0.84344 0.0
C1487 C 0.22354 0.51776 0.82308 0.0
C1488 C 0.2205 0.51344 0.7912 0.0
H1489 H 0.66277 0.21021 0.81213 0.0
H1490 H 0.6269 0.25727 0.73662 0.0
H1491 H 0.65528 0.22969 0.70019 0.0
H1492 H 0.73305 0.20158 0.78045 0.0
H1493 H 0.73686 0.16616 0.79441 0.0
H1494 H 0.71508 0.19083 0.81489 0.0
H1495 H 0.67281 0.15652 0.81113 0.0
H1496 H 0.69445 0.13174 0.79071 0.0
H1497 H 0.6619 0.14378 0.77411 0.0
H1498 H 0.68614 0.19598 0.67176 0.0
H1499 H 0.71738 0.15812 0.6532 0.0
H1500 H 0.73147 0.13117 0.74675 0.0
C1501 C 0.66116 0.2149 0.78794 0.0
C1502 C 0.64343 0.23665 0.77733 0.0
C1503 C 0.64135 0.24171 0.74546 0.0
C1504 C 0.65713 0.22588 0.72452 0.0
C1505 C 0.67465 0.20483 0.73576 0.0
C1506 C 0.67669 0.1992 0.7667 0.0
C1507 C 0.69624 0.17464 0.77265 0.0
C1508 C 0.72182 0.18386 0.79173 0.0
C1509 C 0.68039 0.15023 0.78805 0.0
C1510 C 0.70475 0.16726 0.74019 0.0
C1511 C 0.69212 0.18501 0.7193 0.0
C1512 C 0.69632 0.18208 0.68791 0.0
C1513 C 0.71401 0.1605 0.6776 0.0
C1514 C 0.72738 0.14222 0.69858 0.0
C1515 C 0.72239 0.1455 0.73026 0.0
H1516 H 1.00574 0.41569 0.27343 0.0
H1517 H 0.035 0.47569 0.34147 0.0
H1518 H 1.00649 0.51248 0.31725 0.0
H1519 H 1.00805 0.46463 0.20948 0.0
H1520 H 0.97714 0.44999 0.19159 0.0
H1521 H 0.99956 0.428 0.21463 0.0
H1522 H 0.95668 0.41415 0.2481 0.0
H1523 H 0.93418 0.43628 0.22536 0.0
H1524 H 0.93608 0.44129 0.26621 0.0
H1525 H 0.97397 0.54267 0.28685 0.0
H1526 H 0.94155 0.56496 0.24989 0.0
H1527 H 0.93599 0.48669 0.1994 0.0
C1528 C 1.00698 0.43657 0.28292 0.0
C1529 C 0.02324 0.44258 0.30928 0.0
C1530 C 0.02283 0.4703 0.32136 0.0
C1531 C 1.00672 0.49147 0.30773 0.0
C1532 C 0.99116 0.48483 0.28178 0.0
C1533 C 0.99134 0.45817 0.26927 0.0
C1534 C 0.97291 0.45679 0.24097 0.0
C1535 C 0.99046 0.44942 0.21248 0.0
C1536 C 0.94852 0.43589 0.24545 0.0
C1537 C 0.96231 0.48681 0.23969 0.0
C1538 C 0.9729 0.50253 0.26367 0.0
C1539 C 0.96557 0.53062 0.26793 0.0
C1540 C 0.94699 0.54302 0.24704 0.0
C1541 C 0.93617 0.52741 0.22214 0.0
C1542 C 0.94409 0.49903 0.2183 0.0
H1543 H 0.66622 0.95331 0.20157 0.0
H1544 H 0.62312 0.90904 0.27466 0.0
H1545 H 0.6507 0.93547 0.31291 0.0
H1546 H 0.73456 0.95817 0.23763 0.0
H1547 H 0.74143 0.99323 0.22389 0.0
H1548 H 0.71927 0.96987 0.2021 0.0
H1549 H 0.67912 1.00672 0.20314 0.0
H1550 H 0.70119 0.03022 0.22482 0.0
H1551 H 0.66707 0.02031 0.23939 0.0
H1552 H 0.68236 0.96716 0.34322 0.0
H1553 H 0.71538 1.00276 0.36356 0.0
H1554 H 0.73581 0.02848 0.27093 0.0
C1555 C 0.66282 0.94905 0.22564 0.0
C1556 C 0.64339 0.92833 0.23516 0.0
C1557 C 0.63891 0.92382 0.26683 0.0
C1558 C 0.65422 0.93898 0.28874 0.0
C1559 C 0.6736 0.95889 0.27859 0.0
C1560 C 0.67782 0.96413 0.24781 0.0
C1561 C 0.6992 0.98739 0.24306 0.0
C1562 C 0.72515 0.9765 0.22564 0.0
C1563 C 0.68584 0.01265 0.22664 0.0
C1564 C 0.70635 0.99437 0.27597 0.0
C1565 C 0.69142 0.97762 0.29609 0.0
C1566 C 0.69428 0.9803 0.32769 0.0
C1567 C 0.71302 1.00058 0.33902 0.0
C1568 C 0.72871 0.01779 0.31882 0.0
C1569 C 0.72497 0.01485 0.2869 0.0
H1570 H 0.16547 0.71199 0.31446 0.0
H1571 H 0.11205 0.74437 0.24221 0.0
H1572 H 0.138 0.71598 0.20425 0.0
H1573 H 0.22984 0.70886 0.27176 0.0
H1574 H 0.24136 0.67613 0.28823 0.0
H1575 H 0.21891 0.69928 0.30988 0.0
H1576 H 0.1827 0.65905 0.31719 0.0
H1577 H 0.20516 0.63571 0.29578 0.0
H1578 H 0.16915 0.6409 0.28409 0.0
H1579 H 0.17049 0.68524 0.17401 0.0
H1580 H 0.20575 0.65224 0.15362 0.0
H1581 H 0.23557 0.6366 0.24604 0.0
C1582 C 0.15934 0.7131 0.29062 0.0
C1583 C 0.13757 0.73128 0.28101 0.0
C1584 C 0.12961 0.73167 0.2498 0.0
C1585 C 0.144 0.71536 0.22813 0.0
C1586 C 0.16592 0.69828 0.23817 0.0
C1587 C 0.17336 0.69672 0.26869 0.0
C1588 C 0.19732 0.67612 0.27341 0.0
C1589 C 0.2234 0.691 0.2866 0.0
C1590 C 0.18802 0.65148 0.29382 0.0
C1591 C 0.20236 0.66664 0.24072 0.0
C1592 C 0.18406 0.67976 0.22079 0.0
C1593 C 0.18489 0.67476 0.18942 0.0
C1594 C 0.20501 0.65591 0.17808 0.0
C1595 C 0.22411 0.64213 0.19799 0.0
C1596 C 0.22233 0.64741 0.22983 0.0
H1597 H 0.42929 0.17602 0.31744 0.0
H1598 H 0.44613 0.09342 0.27985 0.0
H1599 H 0.48157 0.11393 0.24481 0.0
H1600 H 0.43346 0.21244 0.246 0.0
H1601 H 0.44965 0.2435 0.26181 0.0
H1602 H 0.42703 0.22209 0.2853 0.0
H1603 H 0.4671 0.2168 0.32513 0.0
H1604 H 0.48989 0.2381 0.30165 0.0
H1605 H 0.50084 0.20341 0.31309 0.0
H1606 H 0.51424 0.14317 0.2137 0.0
H1607 H 0.54099 0.17958 0.18626 0.0
H1608 H 0.50067 0.24393 0.24162 0.0
C1609 C 0.44073 0.16236 0.30199 0.0
C1610 C 0.43522 0.13325 0.3011 0.0
C1611 C 0.45009 0.11583 0.28048 0.0
C1612 C 0.47029 0.12725 0.26071 0.0
C1613 C 0.47511 0.15612 0.26182 0.0
C1614 C 0.46066 0.17351 0.28172 0.0
C1615 C 0.46879 0.20402 0.27698 0.0
C1616 C 0.44321 0.22153 0.26692 0.0
C1617 C 0.48247 0.2163 0.30594 0.0
C1618 C 0.49005 0.20101 0.25131 0.0
C1619 C 0.49353 0.17317 0.24318 0.0
C1620 C 0.51175 0.16505 0.21989 0.0
C1621 C 0.52678 0.18596 0.20438 0.0
C1622 C 0.52344 0.21473 0.21204 0.0
C1623 C 0.50466 0.22224 0.2358 0.0
loop_
_geom_bond_atom_site_label_1
_geom_bond_atom_site_label_2
_geom_bond_distance
_geom_bond_site_symmetry_2
_ccdc_geom_bond_type
Co0 O3 1.970 . S
Co0 N17 1.989 . S
Co0 O25 1.967 . S
Co0 O32 1.920 . S
Co1 O4 1.966 . S
Co1 N10 2.022 . S
Co1 N18 1.993 . S
Co1 O26 1.941 . S
C2 O3 1.258 . S
C2 O4 1.263 . S
O3 Co0 1.970 . S
O3 C2 1.258 . S
O4 Co1 1.966 . S
O4 C2 1.263 . S
C5 O6 1.235 . S
C5 O32 1.289 . S
O6 C5 1.235 . S
C7 C9 1.400 . S
C7 N10 1.351 . S
C7 C12 1.501 . S
C8 C9 1.387 . S
C8 N11 1.341 . S
C9 C7 1.400 . S
C9 C8 1.387 . S
N10 Co1 2.022 . S
N10 C7 1.351 . S
N10 N11 1.365 . S
N11 C8 1.341 . S
N11 N10 1.365 . S
N11 H31 0.862 . S
C12 C7 1.501 . S
C12 H13 0.961 . S
C12 H14 0.961 . S
C12 H15 0.960 1_455 S
H13 C12 0.961 . S
H14 C12 0.961 . S
H15 C12 0.960 1_655 S
C16 N17 1.342 . S
C16 C20 1.401 . S
C16 C21 1.499 . S
N17 Co0 1.989 . S
N17 C16 1.342 . S
N17 N18 1.388 . S
N18 Co1 1.993 . S
N18 N17 1.388 . S
N18 C19 1.346 . S
C19 N18 1.346 . S
C19 C20 1.396 . S
C19 C29 1.510 . S
C20 C16 1.401 . S
C20 C19 1.396 . S
C21 C16 1.499 . S
C21 H22 0.959 . S
C21 H23 0.960 . S
C21 H24 0.961 . S
H22 C21 0.959 . S
H23 C21 0.960 . S
H24 C21 0.961 . S
O25 Co0 1.967 . S
O25 C33 1.258 . S
O26 Co1 1.941 . S
O26 C33 1.266 . S
H27 C29 0.959 . S
H28 C29 0.961 . S
C29 C19 1.510 . S
C29 H27 0.959 . S
C29 H28 0.961 . S
C29 H30 0.960 . S
H30 C29 0.960 . S
H31 N11 0.862 . S
O32 Co0 1.920 . S
O32 C5 1.289 . S
C33 O25 1.258 . S
C33 O26 1.266 . S
Co34 O37 1.970 . S
Co34 N51 1.989 . S
Co34 O59 1.967 . S
Co34 O66 1.920 . S
Co35 O38 1.966 . S
Co35 N44 2.022 . S
Co35 N52 1.993 . S
Co35 O60 1.941 . S
C36 O37 1.258 . S
C36 O38 1.263 . S
O37 Co34 1.970 . S
O37 C36 1.258 . S
O38 Co35 1.966 . S
O38 C36 1.263 . S
C39 O40 1.235 . S
C39 O66 1.289 . S
O40 C39 1.235 . S
C41 C43 1.400 . S
C41 N44 1.351 . S
C41 C46 1.501 . S
C42 C43 1.387 . S
C42 N45 1.341 . S
C43 C41 1.400 . S
C43 C42 1.387 . S
N44 Co35 2.022 . S
N44 C41 1.351 . S
N44 N45 1.365 . S
N45 C42 1.341 . S
N45 N44 1.365 . S
N45 H65 0.862 . S
C46 C41 1.501 . S
C46 H47 0.961 . S
C46 H48 0.961 . S
C46 H49 0.960 1_545 S
H47 C46 0.961 . S
H48 C46 0.961 . S
H49 C46 0.960 1_565 S
C50 N51 1.342 . S
C50 C54 1.401 . S
C50 C55 1.499 . S
N51 Co34 1.989 . S
N51 C50 1.342 . S
N51 N52 1.388 . S
N52 Co35 1.993 . S
N52 N51 1.388 . S
N52 C53 1.346 . S
C53 N52 1.346 . S
C53 C54 1.396 . S
C53 C63 1.510 . S
C54 C50 1.401 . S
C54 C53 1.396 . S
C55 C50 1.499 . S
C55 H56 0.959 . S
C55 H57 0.960 . S
C55 H58 0.961 . S
H56 C55 0.959 . S
H57 C55 0.960 . S
H58 C55 0.961 . S
O59 Co34 1.967 . S
O59 C67 1.258 . S
O60 Co35 1.941 . S
O60 C67 1.266 . S
H61 C63 0.959 . S
H62 C63 0.961 . S
C63 C53 1.510 . S
C63 H61 0.959 . S
C63 H62 0.961 . S
C63 H64 0.960 . S
H64 C63 0.960 . S
H65 N45 0.862 . S
O66 Co34 1.920 . S
O66 C39 1.289 . S
C67 O59 1.258 . S
C67 O60 1.266 . S
Co68 O71 1.970 . S
Co68 N85 1.989 . S
Co68 O93 1.967 . S
Co68 O100 1.940 . S
Co69 O72 1.966 . S
Co69 N78 2.022 . S
Co69 N86 1.993 . S
Co69 O94 1.941 . S
C70 O71 1.258 . S
C70 O72 1.263 . S
O71 Co68 1.970 . S
O71 C70 1.258 . S
O72 Co69 1.966 . S
O72 C70 1.263 . S
C73 O74 1.240 . S
C73 O100 1.280 1_655 S
O74 C73 1.240 . S
C75 C77 1.400 . S
C75 N78 1.351 . S
C75 C80 1.501 . S
C76 C77 1.387 . S
C76 N79 1.341 . S
C77 C75 1.400 . S
C77 C76 1.387 . S
N78 Co69 2.022 . S
N78 C75 1.351 . S
N78 N79 1.365 . S
N79 C76 1.341 . S
N79 N78 1.365 . S
N79 H99 0.862 . S
C80 C75 1.501 . S
C80 H81 0.961 . S
C80 H82 0.961 . S
C80 H83 0.960 . S
H81 C80 0.961 . S
H82 C80 0.961 . S
H83 C80 0.960 . S
C84 N85 1.342 1_655 S
C84 C88 1.399 1_655 S
C84 C89 1.499 . S
N85 Co68 1.989 . S
N85 C84 1.342 1_455 S
N85 N86 1.388 . S
N86 Co69 1.993 . S
N86 N85 1.388 . S
N86 C87 1.346 . S
C87 N86 1.346 . S
C87 C88 1.410 . S
C87 C97 1.510 . S
C88 C84 1.399 1_455 S
C88 C87 1.410 . S
C89 C84 1.499 . S
C89 H90 0.959 . S
C89 H91 0.960 . S
C89 H92 0.961 . S
H90 C89 0.959 . S
H91 C89 0.960 . S
H92 C89 0.961 . S
O93 Co68 1.967 . S
O93 C101 1.258 . S
O94 Co69 1.941 . S
O94 C101 1.266 . S
H95 C97 0.959 . S
H96 C97 0.961 . S
C97 C87 1.510 . S
C97 H95 0.959 . S
C97 H96 0.961 . S
C97 H98 0.960 . S
H98 C97 0.960 . S
H99 N79 0.862 . S
O100 Co68 1.940 . S
O100 C73 1.280 1_455 S
C101 O93 1.258 . S
C101 O94 1.266 . S
Co102 O105 1.970 . S
Co102 N119 1.989 . S
Co102 O127 1.967 . S
Co102 O134 1.940 . S
Co103 O106 1.966 . S
Co103 N112 2.022 . S
Co103 N120 1.993 . S
Co103 O128 1.941 . S
C104 O105 1.258 . S
C104 O106 1.263 . S
O105 Co102 1.970 . S
O105 C104 1.258 . S
O106 Co103 1.966 . S
O106 C104 1.263 . S
C107 O108 1.240 . S
C107 O134 1.280 1_565 S
O108 C107 1.240 . S
C109 C111 1.400 . S
C109 N112 1.351 . S
C109 C114 1.501 . S
C110 C111 1.387 . S
C110 N113 1.341 . S
C111 C109 1.400 . S
C111 C110 1.387 . S
N112 Co103 2.022 . S
N112 C109 1.351 . S
N112 N113 1.365 . S
N113 C110 1.341 . S
N113 N112 1.365 . S
N113 H133 0.862 . S
C114 C109 1.501 . S
C114 H115 0.961 . S
C114 H116 0.961 . S
C114 H117 0.960 . S
H115 C114 0.961 . S
H116 C114 0.961 . S
H117 C114 0.960 . S
C118 N119 1.342 1_565 S
C118 C122 1.399 1_565 S
C118 C123 1.499 . S
N119 Co102 1.989 . S
N119 C118 1.342 1_545 S
N119 N120 1.388 . S
N120 Co103 1.993 . S
N120 N119 1.388 . S
N120 C121 1.346 . S
C121 N120 1.346 . S
C121 C122 1.410 . S
C121 C131 1.510 . S
C122 C118 1.399 1_545 S
C122 C121 1.410 . S
C123 C118 1.499 . S
C123 H124 0.959 . S
C123 H125 0.960 . S
C123 H126 0.961 . S
H124 C123 0.959 . S
H125 C123 0.960 . S
H126 C123 0.961 . S
O127 Co102 1.967 . S
O127 C135 1.258 . S
O128 Co103 1.941 . S
O128 C135 1.266 . S
H129 C131 0.959 . S
H130 C131 0.961 . S
C131 C121 1.510 . S
C131 H129 0.959 . S
C131 H130 0.961 . S
C131 H132 0.960 . S
H132 C131 0.960 . S
H133 N113 0.862 . S
O134 Co102 1.940 . S
O134 C107 1.280 1_545 S
C135 O127 1.258 . S
C135 O128 1.266 . S
Co136 O139 1.970 . S
Co136 N153 1.989 . S
Co136 O161 1.967 . S
Co136 O168 1.920 . S
Co137 O140 1.966 . S
Co137 N146 2.022 . S
Co137 N154 1.993 . S
Co137 O162 1.941 . S
C138 O139 1.258 . S
C138 O140 1.263 . S
O139 Co136 1.970 . S
O139 C138 1.258 . S
O140 Co137 1.966 . S
O140 C138 1.263 . S
C141 O142 1.235 . S
C141 O168 1.289 . S
O142 C141 1.235 . S
C143 C145 1.400 . S
C143 N146 1.351 . S
C143 C148 1.501 . S
C144 C145 1.387 . S
C144 N147 1.341 . S
C145 C143 1.400 . S
C145 C144 1.387 . S
N146 Co137 2.022 . S
N146 C143 1.351 . S
N146 N147 1.365 . S
N147 C144 1.341 . S
N147 N146 1.365 . S
N147 H167 0.862 . S
C148 C143 1.501 . S
C148 H149 0.961 . S
C148 H150 0.961 . S
C148 H151 0.960 1_455 S
H149 C148 0.961 . S
H150 C148 0.961 . S
H151 C148 0.960 1_655 S
C152 N153 1.342 . S
C152 C156 1.401 . S
C152 C157 1.499 . S
N153 Co136 1.989 . S
N153 C152 1.342 . S
N153 N154 1.388 . S
N154 Co137 1.993 . S
N154 N153 1.388 . S
N154 C155 1.346 . S
C155 N154 1.346 . S
C155 C156 1.396 . S
C155 C165 1.510 . S
C156 C152 1.401 . S
C156 C155 1.396 . S
C157 C152 1.499 . S
C157 H158 0.959 . S
C157 H159 0.960 . S
C157 H160 0.961 . S
H158 C157 0.959 . S
H159 C157 0.960 . S
H160 C157 0.961 . S
O161 Co136 1.967 . S
O161 C169 1.258 . S
O162 Co137 1.941 . S
O162 C169 1.266 . S
H163 C165 0.959 . S
H164 C165 0.961 . S
C165 C155 1.510 . S
C165 H163 0.959 . S
C165 H164 0.961 . S
C165 H166 0.960 . S
H166 C165 0.960 . S
H167 N147 0.862 . S
O168 Co136 1.920 . S
O168 C141 1.289 . S
C169 O161 1.258 . S
C169 O162 1.266 . S
Co170 O173 1.970 . S
Co170 N187 1.989 . S
Co170 O195 1.967 . S
Co170 O202 1.920 . S
Co171 O174 1.966 . S
Co171 N180 2.022 . S
Co171 N188 1.993 . S
Co171 O196 1.941 . S
C172 O173 1.258 . S
C172 O174 1.263 . S
O173 Co170 1.970 . S
O173 C172 1.258 . S
O174 Co171 1.966 . S
O174 C172 1.263 . S
C175 O176 1.235 . S
C175 O202 1.289 . S
O176 C175 1.235 . S
C177 C179 1.400 . S
C177 N180 1.351 . S
C177 C182 1.501 . S
C178 C179 1.387 . S
C178 N181 1.341 . S
C179 C177 1.400 . S
C179 C178 1.387 . S
N180 Co171 2.022 . S
N180 C177 1.351 . S
N180 N181 1.365 . S
N181 C178 1.341 . S
N181 N180 1.365 . S
N181 H201 0.862 . S
C182 C177 1.501 . S
C182 H183 0.961 . S
C182 H184 0.961 . S
C182 H185 0.960 1_545 S
H183 C182 0.961 . S
H184 C182 0.961 . S
H185 C182 0.960 1_565 S
C186 N187 1.342 . S
C186 C190 1.401 . S
C186 C191 1.499 . S
N187 Co170 1.989 . S
N187 C186 1.342 . S
N187 N188 1.388 . S
N188 Co171 1.993 . S
N188 N187 1.388 . S
N188 C189 1.346 . S
C189 N188 1.346 . S
C189 C190 1.396 . S
C189 C199 1.510 . S
C190 C186 1.401 . S
C190 C189 1.396 . S
C191 C186 1.499 . S
C191 H192 0.959 . S
C191 H193 0.960 . S
C191 H194 0.961 . S
H192 C191 0.959 . S
H193 C191 0.960 . S
H194 C191 0.961 . S
O195 Co170 1.967 . S
O195 C203 1.258 . S
O196 Co171 1.941 . S
O196 C203 1.266 . S
H197 C199 0.959 . S
H198 C199 0.961 . S
C199 C189 1.510 . S
C199 H197 0.959 . S
C199 H198 0.961 . S
C199 H200 0.960 . S
H200 C199 0.960 . S
H201 N181 0.862 . S
O202 Co170 1.920 . S
O202 C175 1.289 . S
C203 O195 1.258 . S
C203 O196 1.266 . S
Co204 O207 1.970 . S
Co204 N221 1.989 . S
Co204 O229 1.967 . S
Co204 O236 1.940 . S
Co205 O208 1.966 . S
Co205 N214 2.022 . S
Co205 N222 1.993 . S
Co205 O230 1.941 . S
C206 O207 1.258 . S
C206 O208 1.263 . S
O207 Co204 1.970 . S
O207 C206 1.258 . S
O208 Co205 1.966 . S
O208 C206 1.263 . S
C209 O210 1.240 . S
C209 O236 1.280 1_655 S
O210 C209 1.240 . S
C211 C213 1.400 . S
C211 N214 1.351 . S
C211 C216 1.501 . S
C212 C213 1.387 . S
C212 N215 1.341 . S
C213 C211 1.400 . S
C213 C212 1.387 . S
N214 Co205 2.022 . S
N214 C211 1.351 . S
N214 N215 1.365 . S
N215 C212 1.341 . S
N215 N214 1.365 . S
N215 H235 0.862 . S
C216 C211 1.501 . S
C216 H217 0.961 . S
C216 H218 0.961 . S
C216 H219 0.960 . S
H217 C216 0.961 . S
H218 C216 0.961 . S
H219 C216 0.960 . S
C220 N221 1.342 1_655 S
C220 C224 1.399 1_655 S
C220 C225 1.499 . S
N221 Co204 1.989 . S
N221 C220 1.342 1_455 S
N221 N222 1.388 . S
N222 Co205 1.993 . S
N222 N221 1.388 . S
N222 C223 1.346 . S
C223 N222 1.346 . S
C223 C224 1.410 . S
C223 C233 1.510 . S
C224 C220 1.399 1_455 S
C224 C223 1.410 . S
C225 C220 1.499 . S
C225 H226 0.959 . S
C225 H227 0.960 . S
C225 H228 0.961 . S
H226 C225 0.959 . S
H227 C225 0.960 . S
H228 C225 0.961 . S
O229 Co204 1.967 . S
O229 C237 1.258 . S
O230 Co205 1.941 . S
O230 C237 1.266 . S
H231 C233 0.959 . S
H232 C233 0.961 . S
C233 C223 1.510 . S
C233 H231 0.959 . S
C233 H232 0.961 . S
C233 H234 0.960 . S
H234 C233 0.960 . S
H235 N215 0.862 . S
O236 Co204 1.940 . S
O236 C209 1.280 1_455 S
C237 O229 1.258 . S
C237 O230 1.266 . S
Co238 O241 1.970 . S
Co238 N255 1.989 . S
Co238 O263 1.967 . S
Co238 O270 1.940 . S
Co239 O242 1.966 . S
Co239 N248 2.022 . S
Co239 N256 1.993 . S
Co239 O264 1.941 . S
C240 O241 1.258 . S
C240 O242 1.263 . S
O241 Co238 1.970 . S
O241 C240 1.258 . S
O242 Co239 1.966 . S
O242 C240 1.263 . S
C243 O244 1.240 . S
C243 O270 1.280 1_565 S
O244 C243 1.240 . S
C245 C247 1.400 . S
C245 N248 1.351 . S
C245 C250 1.501 . S
C246 C247 1.387 . S
C246 N249 1.341 . S
C247 C245 1.400 . S
C247 C246 1.387 . S
N248 Co239 2.022 . S
N248 C245 1.351 . S
N248 N249 1.365 . S
N249 C246 1.341 . S
N249 N248 1.365 . S
N249 H269 0.862 . S
C250 C245 1.501 . S
C250 H251 0.961 . S
C250 H252 0.961 . S
C250 H253 0.960 . S
H251 C250 0.961 . S
H252 C250 0.961 . S
H253 C250 0.960 . S
C254 N255 1.342 1_565 S
C254 C258 1.399 1_565 S
C254 C259 1.499 . S
N255 Co238 1.989 . S
N255 C254 1.342 1_545 S
N255 N256 1.388 . S
N256 Co239 1.993 . S
N256 N255 1.388 . S
N256 C257 1.346 . S
C257 N256 1.346 . S
C257 C258 1.410 . S
C257 C267 1.510 . S
C258 C254 1.399 1_545 S
C258 C257 1.410 . S
C259 C254 1.499 . S
C259 H260 0.959 . S
C259 H261 0.960 . S
C259 H262 0.961 . S
H260 C259 0.959 . S
H261 C259 0.960 . S
H262 C259 0.961 . S
O263 Co238 1.967 . S
O263 C271 1.258 . S
O264 Co239 1.941 . S
O264 C271 1.266 . S
H265 C267 0.959 . S
H266 C267 0.961 . S
C267 C257 1.510 . S
C267 H265 0.959 . S
C267 H266 0.961 . S
C267 H268 0.960 . S
H268 C267 0.960 . S
H269 N249 0.862 . S
O270 Co238 1.940 . S
O270 C243 1.280 1_545 S
C271 O263 1.258 . S
C271 O264 1.266 . S
Co272 O275 1.970 . S
Co272 N289 1.989 . S
Co272 O297 1.967 . S
Co272 O304 1.920 . S
Co273 O276 1.966 . S
Co273 N282 2.022 . S
Co273 N290 1.993 . S
Co273 O298 1.941 . S
C274 O275 1.258 . S
C274 O276 1.263 . S
O275 Co272 1.970 . S
O275 C274 1.258 . S
O276 Co273 1.966 . S
O276 C274 1.263 . S
C277 O278 1.235 . S
C277 O304 1.289 . S
O278 C277 1.235 . S
C279 C281 1.400 . S
C279 N282 1.351 . S
C279 C284 1.501 . S
C280 C281 1.387 . S
C280 N283 1.341 . S
C281 C279 1.400 . S
C281 C280 1.387 . S
N282 Co273 2.022 . S
N282 C279 1.351 . S
N282 N283 1.365 . S
N283 C280 1.341 . S
N283 N282 1.365 . S
N283 H303 0.862 . S
C284 C279 1.501 . S
C284 H285 0.961 . S
C284 H286 0.961 . S
C284 H287 0.960 . S
H285 C284 0.961 . S
H286 C284 0.961 . S
H287 C284 0.960 . S
C288 N289 1.342 . S
C288 C292 1.401 . S
C288 C293 1.499 . S
N289 Co272 1.989 . S
N289 C288 1.342 . S
N289 N290 1.388 . S
N290 Co273 1.993 . S
N290 N289 1.388 . S
N290 C291 1.346 . S
C291 N290 1.346 . S
C291 C292 1.396 . S
C291 C301 1.510 . S
C292 C288 1.401 . S
C292 C291 1.396 . S
C293 C288 1.499 . S
C293 H294 0.959 . S
C293 H295 0.960 . S
C293 H296 0.961 . S
H294 C293 0.959 . S
H295 C293 0.960 . S
H296 C293 0.961 . S
O297 Co272 1.967 . S
O297 C305 1.258 . S
O298 Co273 1.941 . S
O298 C305 1.266 . S
H299 C301 0.959 . S
H300 C301 0.961 . S
C301 C291 1.510 . S
C301 H299 0.959 . S
C301 H300 0.961 . S
C301 H302 0.960 . S
H302 C301 0.960 . S
H303 N283 0.862 . S
O304 Co272 1.920 . S
O304 C277 1.289 . S
C305 O297 1.258 . S
C305 O298 1.266 . S
Co306 O309 1.970 . S
Co306 N323 1.989 . S
Co306 O331 1.967 . S
Co306 O338 1.920 . S
Co307 O310 1.966 . S
Co307 N316 2.022 . S
Co307 N324 1.993 . S
Co307 O332 1.941 . S
C308 O309 1.258 . S
C308 O310 1.263 . S
O309 Co306 1.970 . S
O309 C308 1.258 . S
O310 Co307 1.966 . S
O310 C308 1.263 . S
C311 O312 1.235 . S
C311 O338 1.289 . S
O312 C311 1.235 . S
C313 C315 1.400 . S
C313 N316 1.351 . S
C313 C318 1.501 . S
C314 C315 1.387 . S
C314 N317 1.341 . S
C315 C313 1.400 . S
C315 C314 1.387 . S
N316 Co307 2.022 . S
N316 C313 1.351 . S
N316 N317 1.365 . S
N317 C314 1.341 . S
N317 N316 1.365 . S
N317 H337 0.862 . S
C318 C313 1.501 . S
C318 H319 0.961 . S
C318 H320 0.961 . S
C318 H321 0.960 . S
H319 C318 0.961 . S
H320 C318 0.961 . S
H321 C318 0.960 . S
C322 N323 1.342 . S
C322 C326 1.401 . S
C322 C327 1.499 . S
N323 Co306 1.989 . S
N323 C322 1.342 . S
N323 N324 1.388 . S
N324 Co307 1.993 . S
N324 N323 1.388 . S
N324 C325 1.346 . S
C325 N324 1.346 . S
C325 C326 1.396 . S
C325 C335 1.510 . S
C326 C322 1.401 . S
C326 C325 1.396 . S
C327 C322 1.499 . S
C327 H328 0.959 . S
C327 H329 0.960 . S
C327 H330 0.961 . S
H328 C327 0.959 . S
H329 C327 0.960 . S
H330 C327 0.961 . S
O331 Co306 1.967 . S
O331 C339 1.258 . S
O332 Co307 1.941 . S
O332 C339 1.266 . S
H333 C335 0.959 . S
H334 C335 0.961 . S
C335 C325 1.510 . S
C335 H333 0.959 . S
C335 H334 0.961 . S
C335 H336 0.960 . S
H336 C335 0.960 . S
H337 N317 0.862 . S
O338 Co306 1.920 . S
O338 C311 1.289 . S
C339 O331 1.258 . S
C339 O332 1.266 . S
Co340 O343 1.970 . S
Co340 N357 1.989 . S
Co340 O365 1.967 . S
Co340 O372 1.920 . S
Co341 O344 1.966 . S
Co341 N350 2.022 . S
Co341 N358 1.993 . S
Co341 O366 1.941 . S
C342 O343 1.258 . S
C342 O344 1.263 . S
O343 Co340 1.970 . S
O343 C342 1.258 . S
O344 Co341 1.966 . S
O344 C342 1.263 . S
C345 O346 1.235 . S
C345 O372 1.289 . S
O346 C345 1.235 . S
C347 C349 1.400 . S
C347 N350 1.351 . S
C347 C352 1.501 . S
C348 C349 1.387 . S
C348 N351 1.341 . S
C349 C347 1.400 . S
C349 C348 1.387 . S
N350 Co341 2.022 . S
N350 C347 1.351 . S
N350 N351 1.365 . S
N351 C348 1.341 . S
N351 N350 1.365 . S
N351 H371 0.862 . S
C352 C347 1.501 . S
C352 H353 0.961 . S
C352 H354 0.961 . S
C352 H355 0.960 . S
H353 C352 0.961 . S
H354 C352 0.961 . S
H355 C352 0.960 . S
C356 N357 1.342 . S
C356 C360 1.401 . S
C356 C361 1.499 . S
N357 Co340 1.989 . S
N357 C356 1.342 . S
N357 N358 1.388 . S
N358 Co341 1.993 . S
N358 N357 1.388 . S
N358 C359 1.346 . S
C359 N358 1.346 . S
C359 C360 1.396 . S
C359 C369 1.510 . S
C360 C356 1.401 . S
C360 C359 1.396 . S
C361 C356 1.499 . S
C361 H362 0.959 . S
C361 H363 0.960 . S
C361 H364 0.961 . S
H362 C361 0.959 . S
H363 C361 0.960 . S
H364 C361 0.961 . S
O365 Co340 1.967 . S
O365 C373 1.258 . S
O366 Co341 1.941 . S
O366 C373 1.266 . S
H367 C369 0.959 . S
H368 C369 0.961 . S
C369 C359 1.510 . S
C369 H367 0.959 . S
C369 H368 0.961 . S
C369 H370 0.960 . S
H370 C369 0.960 . S
H371 N351 0.862 . S
O372 Co340 1.920 . S
O372 C345 1.289 . S
C373 O365 1.258 . S
C373 O366 1.266 . S
Co374 O377 1.970 . S
Co374 N391 1.989 . S
Co374 O399 1.967 . S
Co374 O406 1.920 . S
Co375 O378 1.966 . S
Co375 N384 2.022 . S
Co375 N392 1.993 . S
Co375 O400 1.941 . S
C376 O377 1.258 . S
C376 O378 1.263 . S
O377 Co374 1.970 . S
O377 C376 1.258 . S
O378 Co375 1.966 . S
O378 C376 1.263 . S
C379 O380 1.235 . S
C379 O406 1.289 . S
O380 C379 1.235 . S
C381 C383 1.400 . S
C381 N384 1.351 . S
C381 C386 1.501 . S
C382 C383 1.387 . S
C382 N385 1.341 . S
C383 C381 1.400 . S
C383 C382 1.387 . S
N384 Co375 2.022 . S
N384 C381 1.351 . S
N384 N385 1.365 . S
N385 C382 1.341 . S
N385 N384 1.365 . S
N385 H405 0.862 . S
C386 C381 1.501 . S
C386 H387 0.961 . S
C386 H388 0.961 . S
C386 H389 0.960 . S
H387 C386 0.961 . S
H388 C386 0.961 . S
H389 C386 0.960 . S
C390 N391 1.342 . S
C390 C394 1.401 . S
C390 C395 1.499 . S
N391 Co374 1.989 . S
N391 C390 1.342 . S
N391 N392 1.388 . S
N392 Co375 1.993 . S
N392 N391 1.388 . S
N392 C393 1.346 . S
C393 N392 1.346 . S
C393 C394 1.396 . S
C393 C403 1.510 . S
C394 C390 1.401 . S
C394 C393 1.396 . S
C395 C390 1.499 . S
C395 H396 0.959 . S
C395 H397 0.960 . S
C395 H398 0.961 . S
H396 C395 0.959 . S
H397 C395 0.960 . S
H398 C395 0.961 . S
O399 Co374 1.967 . S
O399 C407 1.258 . S
O400 Co375 1.941 . S
O400 C407 1.266 . S
H401 C403 0.959 . S
H402 C403 0.961 . S
C403 C393 1.510 . S
C403 H401 0.959 . S
C403 H402 0.961 . S
C403 H404 0.960 . S
H404 C403 0.960 . S
H405 N385 0.862 . S
O406 Co374 1.920 . S
O406 C379 1.289 . S
C407 O399 1.258 . S
C407 O400 1.266 . S
Co408 O411 1.970 . S
Co408 N425 1.989 . S
Co408 O433 1.967 . S
Co408 O440 1.920 . S
Co409 O412 1.966 . S
Co409 N418 2.022 . S
Co409 N426 1.993 . S
Co409 O434 1.941 . S
C410 O411 1.258 . S
C410 O412 1.263 . S
O411 Co408 1.970 . S
O411 C410 1.258 . S
O412 Co409 1.966 . S
O412 C410 1.263 . S
C413 O414 1.235 . S
C413 O440 1.289 . S
O414 C413 1.235 . S
C415 C417 1.400 . S
C415 N418 1.351 . S
C415 C420 1.501 . S
C416 C417 1.387 . S
C416 N419 1.341 . S
C417 C415 1.400 . S
C417 C416 1.387 . S
N418 Co409 2.022 . S
N418 C415 1.351 . S
N418 N419 1.365 . S
N419 C416 1.341 . S
N419 N418 1.365 . S
N419 H439 0.862 . S
C420 C415 1.501 . S
C420 H421 0.961 . S
C420 H422 0.961 . S
C420 H423 0.960 . S
H421 C420 0.961 . S
H422 C420 0.961 . S
H423 C420 0.960 . S
C424 N425 1.342 . S
C424 C428 1.401 . S
C424 C429 1.499 . S
N425 Co408 1.989 . S
N425 C424 1.342 . S
N425 N426 1.388 . S
N426 Co409 1.993 . S
N426 N425 1.388 . S
N426 C427 1.346 . S
C427 N426 1.346 . S
C427 C428 1.396 . S
C427 C437 1.510 . S
C428 C424 1.401 . S
C428 C427 1.396 . S
C429 C424 1.499 . S
C429 H430 0.959 . S
C429 H431 0.960 . S
C429 H432 0.961 . S
H430 C429 0.959 . S
H431 C429 0.960 . S
H432 C429 0.961 . S
O433 Co408 1.967 . S
O433 C441 1.258 . S
O434 Co409 1.941 . S
O434 C441 1.266 . S
H435 C437 0.959 . S
H436 C437 0.961 . S
C437 C427 1.510 . S
C437 H435 0.959 . S
C437 H436 0.961 . S
C437 H438 0.960 . S
H438 C437 0.960 . S
H439 N419 0.862 . S
O440 Co408 1.920 . S
O440 C413 1.289 . S
C441 O433 1.258 . S
C441 O434 1.266 . S
Co442 O445 1.970 . S
Co442 N459 1.989 . S
Co442 O467 1.967 . S
Co442 O474 1.920 . S
Co443 O446 1.966 . S
Co443 N452 2.022 . S
Co443 N460 1.993 . S
Co443 O468 1.941 . S
C444 O445 1.258 . S
C444 O446 1.263 . S
O445 Co442 1.970 . S
O445 C444 1.258 . S
O446 Co443 1.966 . S
O446 C444 1.263 . S
C447 O448 1.235 . S
C447 O474 1.289 . S
O448 C447 1.235 . S
C449 C451 1.400 . S
C449 N452 1.351 . S
C449 C454 1.501 . S
C450 C451 1.387 . S
C450 N453 1.341 . S
C451 C449 1.400 . S
C451 C450 1.387 . S
N452 Co443 2.022 . S
N452 C449 1.351 . S
N452 N453 1.365 . S
N453 C450 1.341 . S
N453 N452 1.365 . S
N453 H473 0.862 . S
C454 C449 1.501 . S
C454 H455 0.961 . S
C454 H456 0.961 . S
C454 H457 0.960 . S
H455 C454 0.961 . S
H456 C454 0.961 . S
H457 C454 0.960 . S
C458 N459 1.342 . S
C458 C462 1.401 . S
C458 C463 1.499 . S
N459 Co442 1.989 . S
N459 C458 1.342 . S
N459 N460 1.388 . S
N460 Co443 1.993 . S
N460 N459 1.388 . S
N460 C461 1.346 . S
C461 N460 1.346 . S
C461 C462 1.396 . S
C461 C471 1.510 . S
C462 C458 1.401 . S
C462 C461 1.396 . S
C463 C458 1.499 . S
C463 H464 0.959 . S
C463 H465 0.960 . S
C463 H466 0.961 . S
H464 C463 0.959 . S
H465 C463 0.960 . S
H466 C463 0.961 . S
O467 Co442 1.967 . S
O467 C475 1.258 . S
O468 Co443 1.941 . S
O468 C475 1.266 . S
H469 C471 0.959 . S
H470 C471 0.961 . S
C471 C461 1.510 . S
C471 H469 0.959 . S
C471 H470 0.961 . S
C471 H472 0.960 . S
H472 C471 0.960 . S
H473 N453 0.862 . S
O474 Co442 1.920 . S
O474 C447 1.289 . S
C475 O467 1.258 . S
C475 O468 1.266 . S
Co476 O479 1.970 . S
Co476 N493 1.989 . S
Co476 O501 1.967 . S
Co476 O508 1.920 . S
Co477 O480 1.966 . S
Co477 N486 2.022 . S
Co477 N494 1.993 . S
Co477 O502 1.941 . S
C478 O479 1.258 . S
C478 O480 1.263 . S
O479 Co476 1.970 . S
O479 C478 1.258 . S
O480 Co477 1.966 . S
O480 C478 1.263 . S
C481 O482 1.235 . S
C481 O508 1.289 . S
O482 C481 1.235 . S
C483 C485 1.400 . S
C483 N486 1.351 . S
C483 C488 1.501 . S
C484 C485 1.387 . S
C484 N487 1.341 . S
C485 C483 1.400 . S
C485 C484 1.387 . S
N486 Co477 2.022 . S
N486 C483 1.351 . S
N486 N487 1.365 . S
N487 C484 1.341 . S
N487 N486 1.365 . S
N487 H507 0.862 . S
C488 C483 1.501 . S
C488 H489 0.961 . S
C488 H490 0.961 . S
C488 H491 0.960 . S
H489 C488 0.961 . S
H490 C488 0.961 . S
H491 C488 0.960 . S
C492 N493 1.342 . S
C492 C496 1.401 . S
C492 C497 1.499 . S
N493 Co476 1.989 . S
N493 C492 1.342 . S
N493 N494 1.388 . S
N494 Co477 1.993 . S
N494 N493 1.388 . S
N494 C495 1.346 . S
C495 N494 1.346 . S
C495 C496 1.396 . S
C495 C505 1.510 . S
C496 C492 1.401 . S
C496 C495 1.396 . S
C497 C492 1.499 . S
C497 H498 0.959 . S
C497 H499 0.960 . S
C497 H500 0.961 . S
H498 C497 0.959 . S
H499 C497 0.960 . S
H500 C497 0.961 . S
O501 Co476 1.967 . S
O501 C509 1.258 . S
O502 Co477 1.941 . S
O502 C509 1.266 . S
H503 C505 0.959 . S
H504 C505 0.961 . S
C505 C495 1.510 . S
C505 H503 0.959 . S
C505 H504 0.961 . S
C505 H506 0.960 . S
H506 C505 0.960 . S
H507 N487 0.862 . S
O508 Co476 1.920 . S
O508 C481 1.289 . S
C509 O501 1.258 . S
C509 O502 1.266 . S
Co510 O513 1.970 . S
Co510 N527 1.989 . S
Co510 O535 1.967 . S
Co510 O542 1.920 . S
Co511 O514 1.966 . S
Co511 N520 2.022 . S
Co511 N528 1.993 . S
Co511 O536 1.941 . S
C512 O513 1.258 . S
C512 O514 1.263 . S
O513 Co510 1.970 . S
O513 C512 1.258 . S
O514 Co511 1.966 . S
O514 C512 1.263 . S
C515 O516 1.235 . S
C515 O542 1.289 . S
O516 C515 1.235 . S
C517 C519 1.400 . S
C517 N520 1.351 . S
C517 C522 1.501 . S
C518 C519 1.387 . S
C518 N521 1.341 . S
C519 C517 1.400 . S
C519 C518 1.387 . S
N520 Co511 2.022 . S
N520 C517 1.351 . S
N520 N521 1.365 . S
N521 C518 1.341 . S
N521 N520 1.365 . S
N521 H541 0.862 . S
C522 C517 1.501 . S
C522 H523 0.961 . S
C522 H524 0.961 . S
C522 H525 0.960 . S
H523 C522 0.961 . S
H524 C522 0.961 . S
H525 C522 0.960 . S
C526 N527 1.342 . S
C526 C530 1.401 . S
C526 C531 1.499 . S
N527 Co510 1.989 . S
N527 C526 1.342 . S
N527 N528 1.388 . S
N528 Co511 1.993 . S
N528 N527 1.388 . S
N528 C529 1.346 . S
C529 N528 1.346 . S
C529 C530 1.396 . S
C529 C539 1.510 . S
C530 C526 1.401 . S
C530 C529 1.396 . S
C531 C526 1.499 . S
C531 H532 0.959 . S
C531 H533 0.960 . S
C531 H534 0.961 . S
H532 C531 0.959 . S
H533 C531 0.960 . S
H534 C531 0.961 . S
O535 Co510 1.967 . S
O535 C543 1.258 . S
O536 Co511 1.941 . S
O536 C543 1.266 . S
H537 C539 0.959 . S
H538 C539 0.961 . S
C539 C529 1.510 . S
C539 H537 0.959 . S
C539 H538 0.961 . S
C539 H540 0.960 . S
H540 C539 0.960 . S
H541 N521 0.862 . S
O542 Co510 1.920 . S
O542 C515 1.289 . S
C543 O535 1.258 . S
C543 O536 1.266 . S
H544 C556 0.930 . S
H545 C558 0.930 . S
H546 C559 0.930 . S
H547 C563 0.959 . S
H548 C563 0.959 . S
H549 C563 0.961 . S
H550 C564 0.960 . S
H551 C564 0.961 . S
H552 C564 0.959 . S
H553 C567 0.929 . S
H554 C568 0.931 . S
H555 C570 0.930 . S
C556 H544 0.930 . S
C556 C557 1.399 . S
C556 C561 1.399 . S
C557 C556 1.399 . S
C557 C558 1.376 . S
C558 H545 0.930 . S
C558 C557 1.376 . S
C558 C559 1.388 . S
C559 H546 0.930 . S
C559 C558 1.388 . S
C559 C560 1.390 . S
C560 C559 1.390 . S
C560 C561 1.394 . S
C560 C566 1.465 . S
C561 C556 1.399 . S
C561 C560 1.394 . S
C561 C562 1.516 . S
C562 C561 1.516 . S
C562 C563 1.502 . S
C562 C564 1.561 . S
C562 C565 1.526 . S
C563 H547 0.959 . S
C563 H548 0.959 . S
C563 H549 0.961 . S
C563 C562 1.502 . S
C564 H550 0.960 . S
C564 H551 0.961 . S
C564 H552 0.959 . S
C564 C562 1.561 . S
C565 C562 1.526 . S
C565 C566 1.396 . S
C565 C570 1.390 . S
C566 C560 1.465 . S
C566 C565 1.396 . S
C566 C567 1.399 . S
C567 H553 0.929 . S
C567 C566 1.399 . S
C567 C568 1.385 . S
C568 H554 0.931 . S
C568 C567 1.385 . S
C568 C569 1.389 . S
C569 C568 1.389 . S
C569 C570 1.387 . S
C570 H555 0.930 . S
C570 C565 1.390 . S
C570 C569 1.387 . S
H571 C583 0.930 . S
H572 C585 0.930 . S
H573 C586 0.930 . S
H574 C590 0.959 . S
H575 C590 0.959 . S
H576 C590 0.961 . S
H577 C591 0.960 . S
H578 C591 0.961 . S
H579 C591 0.959 . S
H580 C594 0.929 . S
H581 C595 0.931 . S
H582 C597 0.930 . S
C583 H571 0.930 . S
C583 C584 1.399 . S
C583 C588 1.399 . S
C584 C583 1.399 . S
C584 C585 1.376 . S
C585 H572 0.930 . S
C585 C584 1.376 . S
C585 C586 1.388 . S
C586 H573 0.930 . S
C586 C585 1.388 . S
C586 C587 1.390 . S
C587 C586 1.390 . S
C587 C588 1.394 . S
C587 C593 1.465 . S
C588 C583 1.399 . S
C588 C587 1.394 . S
C588 C589 1.516 . S
C589 C588 1.516 . S
C589 C590 1.502 . S
C589 C591 1.561 . S
C589 C592 1.526 . S
C590 H574 0.959 . S
C590 H575 0.959 . S
C590 H576 0.961 . S
C590 C589 1.502 . S
C591 H577 0.960 . S
C591 H578 0.961 . S
C591 H579 0.959 . S
C591 C589 1.561 . S
C592 C589 1.526 . S
C592 C593 1.396 . S
C592 C597 1.390 . S
C593 C587 1.465 . S
C593 C592 1.396 . S
C593 C594 1.399 . S
C594 H580 0.929 . S
C594 C593 1.399 . S
C594 C595 1.385 . S
C595 H581 0.931 . S
C595 C594 1.385 . S
C595 C596 1.389 . S
C596 C595 1.389 . S
C596 C597 1.387 . S
C597 H582 0.930 . S
C597 C592 1.390 . S
C597 C596 1.387 . S
H598 C610 0.930 . S
H599 C612 0.930 . S
H600 C613 0.930 . S
H601 C617 0.959 . S
H602 C617 0.959 . S
H603 C617 0.961 . S
H604 C618 0.960 . S
H605 C618 0.961 . S
H606 C618 0.959 . S
H607 C621 0.929 . S
H608 C622 0.931 . S
H609 C624 0.930 . S
C610 H598 0.930 . S
C610 C611 1.399 . S
C610 C615 1.399 . S
C611 C610 1.399 . S
C611 C612 1.376 . S
C612 H599 0.930 . S
C612 C611 1.376 . S
C612 C613 1.388 . S
C613 H600 0.930 . S
C613 C612 1.388 . S
C613 C614 1.390 . S
C614 C613 1.390 . S
C614 C615 1.394 . S
C614 C620 1.465 . S
C615 C610 1.399 . S
C615 C614 1.394 . S
C615 C616 1.516 . S
C616 C615 1.516 . S
C616 C617 1.502 . S
C616 C618 1.561 . S
C616 C619 1.526 . S
C617 H601 0.959 . S
C617 H602 0.959 . S
C617 H603 0.961 . S
C617 C616 1.502 . S
C618 H604 0.960 . S
C618 H605 0.961 . S
C618 H606 0.959 . S
C618 C616 1.561 . S
C619 C616 1.526 . S
C619 C620 1.396 . S
C619 C624 1.390 . S
C620 C614 1.465 . S
C620 C619 1.396 . S
C620 C621 1.399 . S
C621 H607 0.929 . S
C621 C620 1.399 . S
C621 C622 1.385 . S
C622 H608 0.931 . S
C622 C621 1.385 . S
C622 C623 1.389 . S
C623 C622 1.389 . S
C623 C624 1.387 . S
C624 H609 0.930 . S
C624 C619 1.390 . S
C624 C623 1.387 . S
H625 C637 0.930 . S
H626 C639 0.930 . S
H627 C640 0.930 . S
H628 C644 0.959 . S
H629 C644 0.959 . S
H630 C644 0.961 . S
H631 C645 0.960 . S
H632 C645 0.961 . S
H633 C645 0.959 . S
H634 C648 0.929 . S
H635 C649 0.931 . S
H636 C651 0.930 . S
C637 H625 0.930 . S
C637 C638 1.399 . S
C637 C642 1.399 . S
C638 C637 1.399 . S
C638 C639 1.376 . S
C639 H626 0.930 . S
C639 C638 1.376 . S
C639 C640 1.388 . S
C640 H627 0.930 . S
C640 C639 1.388 . S
C640 C641 1.390 . S
C641 C640 1.390 . S
C641 C642 1.394 . S
C641 C647 1.465 . S
C642 C637 1.399 . S
C642 C641 1.394 . S
C642 C643 1.516 . S
C643 C642 1.516 . S
C643 C644 1.502 . S
C643 C645 1.561 . S
C643 C646 1.526 . S
C644 H628 0.959 . S
C644 H629 0.959 . S
C644 H630 0.961 . S
C644 C643 1.502 . S
C645 H631 0.960 . S
C645 H632 0.961 . S
C645 H633 0.959 . S
C645 C643 1.561 . S
C646 C643 1.526 . S
C646 C647 1.396 . S
C646 C651 1.390 . S
C647 C641 1.465 . S
C647 C646 1.396 . S
C647 C648 1.399 . S
C648 H634 0.929 . S
C648 C647 1.399 . S
C648 C649 1.385 . S
C649 H635 0.931 . S
C649 C648 1.385 . S
C649 C650 1.389 . S
C650 C649 1.389 . S
C650 C651 1.387 . S
C651 H636 0.930 . S
C651 C646 1.390 . S
C651 C650 1.387 . S
H652 C664 0.930 . S
H653 C666 0.930 . S
H654 C667 0.930 . S
H655 C671 0.959 . S
H656 C671 0.959 1_554 S
H657 C671 0.961 . S
H658 C672 0.960 1_556 S
H659 C672 0.961 . S
H660 C672 0.959 . S
H661 C675 0.929 . S
H662 C676 0.931 . S
H663 C678 0.930 . S
C664 H652 0.930 . S
C664 C665 1.399 . S
C664 C669 1.399 . S
C665 C664 1.399 . S
C665 C666 1.376 . S
C666 H653 0.930 . S
C666 C665 1.376 . S
C666 C667 1.388 . S
C667 H654 0.930 . S
C667 C666 1.388 . S
C667 C668 1.390 . S
C668 C667 1.390 . S
C668 C669 1.394 . S
C668 C674 1.465 1_556 S
C669 C664 1.399 . S
C669 C668 1.394 . S
C669 C670 1.516 . S
C670 C669 1.516 . S
C670 C671 1.502 . S
C670 C672 1.561 1_556 S
C670 C673 1.526 1_556 S
C671 H655 0.959 . S
C671 H656 0.959 1_556 S
C671 H657 0.961 . S
C671 C670 1.502 . S
C672 H658 0.960 1_554 S
C672 H659 0.961 . S
C672 H660 0.959 . S
C672 C670 1.561 1_554 S
C673 C670 1.526 1_554 S
C673 C674 1.396 . S
C673 C678 1.390 . S
C674 C668 1.465 1_554 S
C674 C673 1.396 . S
C674 C675 1.399 . S
C675 H661 0.929 . S
C675 C674 1.399 . S
C675 C676 1.385 . S
C676 H662 0.931 . S
C676 C675 1.385 . S
C676 C677 1.389 . S
C677 C676 1.389 . S
C677 C678 1.387 . S
C678 H663 0.930 . S
C678 C673 1.390 . S
C678 C677 1.387 . S
H679 C691 0.930 . S
H680 C693 0.930 . S
H681 C694 0.930 . S
H682 C698 0.959 . S
H683 C698 0.959 . S
H684 C698 0.961 1_556 S
H685 C699 0.960 1_556 S
H686 C699 0.961 . S
H687 C699 0.959 . S
H688 C702 0.929 . S
H689 C703 0.931 . S
H690 C705 0.930 . S
C691 H679 0.930 . S
C691 C692 1.399 . S
C691 C696 1.399 . S
C692 C691 1.399 . S
C692 C693 1.376 . S
C693 H680 0.930 . S
C693 C692 1.376 . S
C693 C694 1.388 . S
C694 H681 0.930 . S
C694 C693 1.388 . S
C694 C695 1.390 . S
C695 C694 1.390 . S
C695 C696 1.394 . S
C695 C701 1.465 1_556 S
C696 C691 1.399 . S
C696 C695 1.394 . S
C696 C697 1.516 1_556 S
C697 C696 1.516 1_554 S
C697 C698 1.502 . S
C697 C699 1.561 . S
C697 C700 1.526 . S
C698 H682 0.959 . S
C698 H683 0.959 . S
C698 H684 0.961 1_554 S
C698 C697 1.502 . S
C699 H685 0.960 1_554 S
C699 H686 0.961 . S
C699 H687 0.959 . S
C699 C697 1.561 . S
C700 C697 1.526 . S
C700 C701 1.396 . S
C700 C705 1.390 . S
C701 C695 1.465 1_554 S
C701 C700 1.396 . S
C701 C702 1.399 . S
C702 H688 0.929 . S
C702 C701 1.399 . S
C702 C703 1.385 . S
C703 H689 0.931 . S
C703 C702 1.385 . S
C703 C704 1.389 . S
C704 C703 1.389 . S
C704 C705 1.387 . S
C705 H690 0.930 . S
C705 C700 1.390 . S
C705 C704 1.387 . S
H706 C718 0.930 . S
H707 C720 0.930 . S
H708 C721 0.930 . S
H709 C725 0.959 . S
H710 C725 0.959 . S
H711 C725 0.961 1_556 S
H712 C726 0.960 1_556 S
H713 C726 0.961 . S
H714 C726 0.959 . S
H715 C729 0.929 . S
H716 C730 0.931 . S
H717 C732 0.930 . S
C718 H706 0.930 . S
C718 C719 1.399 . S
C718 C723 1.399 . S
C719 C718 1.399 . S
C719 C720 1.376 . S
C720 H707 0.930 . S
C720 C719 1.376 . S
C720 C721 1.388 . S
C721 H708 0.930 . S
C721 C720 1.388 . S
C721 C722 1.390 . S
C722 C721 1.390 . S
C722 C723 1.394 . S
C722 C728 1.465 1_556 S
C723 C718 1.399 . S
C723 C722 1.394 . S
C723 C724 1.516 1_556 S
C724 C723 1.516 1_554 S
C724 C725 1.502 . S
C724 C726 1.561 . S
C724 C727 1.526 . S
C725 H709 0.959 . S
C725 H710 0.959 . S
C725 H711 0.961 1_554 S
C725 C724 1.502 . S
C726 H712 0.960 1_554 S
C726 H713 0.961 . S
C726 H714 0.959 . S
C726 C724 1.561 . S
C727 C724 1.526 . S
C727 C728 1.396 . S
C727 C732 1.390 . S
C728 C722 1.465 1_554 S
C728 C727 1.396 . S
C728 C729 1.399 . S
C729 H715 0.929 . S
C729 C728 1.399 . S
C729 C730 1.385 . S
C730 H716 0.931 . S
C730 C729 1.385 . S
C730 C731 1.389 . S
C731 C730 1.389 . S
C731 C732 1.387 . S
C732 H717 0.930 . S
C732 C727 1.390 . S
C732 C731 1.387 . S
H733 C745 0.930 . S
H734 C747 0.930 . S
H735 C748 0.930 . S
H736 C752 0.959 . S
H737 C752 0.959 1_556 S
H738 C752 0.961 . S
H739 C753 0.960 . S
H740 C753 0.961 1_556 S
H741 C753 0.959 . S
H742 C756 0.929 . S
H743 C757 0.931 . S
H744 C759 0.930 . S
C745 H733 0.930 . S
C745 C746 1.399 . S
C745 C750 1.399 . S
C746 C745 1.399 . S
C746 C747 1.376 . S
C747 H734 0.930 . S
C747 C746 1.376 . S
C747 C748 1.388 . S
C748 H735 0.930 . S
C748 C747 1.388 . S
C748 C749 1.390 . S
C749 C748 1.390 . S
C749 C750 1.394 . S
C749 C755 1.465 1_554 S
C750 C745 1.399 . S
C750 C749 1.394 . S
C750 C751 1.516 . S
C751 C750 1.516 . S
C751 C752 1.502 . S
C751 C753 1.561 . S
C751 C754 1.526 1_554 S
C752 H736 0.959 . S
C752 H737 0.959 1_554 S
C752 H738 0.961 . S
C752 C751 1.502 . S
C753 H739 0.960 . S
C753 H740 0.961 1_554 S
C753 H741 0.959 . S
C753 C751 1.561 . S
C754 C751 1.526 1_556 S
C754 C755 1.396 . S
C754 C759 1.390 . S
C755 C749 1.465 1_556 S
C755 C754 1.396 . S
C755 C756 1.399 . S
C756 H742 0.929 . S
C756 C755 1.399 . S
C756 C757 1.385 . S
C757 H743 0.931 . S
C757 C756 1.385 . S
C757 C758 1.389 . S
C758 C757 1.389 . S
C758 C759 1.387 . S
C759 H744 0.930 . S
C759 C754 1.390 . S
C759 C758 1.387 . S
H760 C772 0.930 . S
H761 C774 0.930 . S
H762 C775 0.930 . S
H763 C779 0.959 . S
H764 C779 0.959 . S
H765 C779 0.961 . S
H766 C780 0.960 . S
H767 C780 0.961 . S
H768 C780 0.959 . S
H769 C783 0.929 . S
H770 C784 0.931 . S
H771 C786 0.930 . S
C772 H760 0.930 . S
C772 C773 1.399 . S
C772 C777 1.399 . S
C773 C772 1.399 . S
C773 C774 1.376 . S
C774 H761 0.930 . S
C774 C773 1.376 . S
C774 C775 1.388 . S
C775 H762 0.930 . S
C775 C774 1.388 . S
C775 C776 1.390 . S
C776 C775 1.390 . S
C776 C777 1.394 . S
C776 C782 1.465 . S
C777 C772 1.399 . S
C777 C776 1.394 . S
C777 C778 1.516 . S
C778 C777 1.516 . S
C778 C779 1.502 . S
C778 C780 1.561 . S
C778 C781 1.526 . S
C779 H763 0.959 . S
C779 H764 0.959 . S
C779 H765 0.961 . S
C779 C778 1.502 . S
C780 H766 0.960 . S
C780 H767 0.961 . S
C780 H768 0.959 . S
C780 C778 1.561 . S
C781 C778 1.526 . S
C781 C782 1.396 . S
C781 C786 1.390 . S
C782 C776 1.465 . S
C782 C781 1.396 . S
C782 C783 1.399 . S
C783 H769 0.929 . S
C783 C782 1.399 . S
C783 C784 1.385 . S
C784 H770 0.931 . S
C784 C783 1.385 . S
C784 C785 1.389 . S
C785 C784 1.389 . S
C785 C786 1.387 . S
C786 H771 0.930 . S
C786 C781 1.390 . S
C786 C785 1.387 . S
H787 C799 0.930 . S
H788 C801 0.930 . S
H789 C802 0.930 . S
H790 C806 0.959 . S
H791 C806 0.959 . S
H792 C806 0.961 . S
H793 C807 0.960 . S
H794 C807 0.961 . S
H795 C807 0.959 . S
H796 C810 0.929 . S
H797 C811 0.931 . S
H798 C813 0.930 . S
C799 H787 0.930 . S
C799 C800 1.399 . S
C799 C804 1.399 . S
C800 C799 1.399 . S
C800 C801 1.376 . S
C801 H788 0.930 . S
C801 C800 1.376 . S
C801 C802 1.388 . S
C802 H789 0.930 . S
C802 C801 1.388 . S
C802 C803 1.390 . S
C803 C802 1.390 . S
C803 C804 1.394 . S
C803 C809 1.465 . S
C804 C799 1.399 . S
C804 C803 1.394 . S
C804 C805 1.516 . S
C805 C804 1.516 . S
C805 C806 1.502 . S
C805 C807 1.561 . S
C805 C808 1.526 . S
C806 H790 0.959 . S
C806 H791 0.959 . S
C806 H792 0.961 . S
C806 C805 1.502 . S
C807 H793 0.960 . S
C807 H794 0.961 . S
C807 H795 0.959 . S
C807 C805 1.561 . S
C808 C805 1.526 . S
C808 C809 1.396 . S
C808 C813 1.390 1_655 S
C809 C803 1.465 . S
C809 C808 1.396 . S
C809 C810 1.399 1_655 S
C810 H796 0.929 . S
C810 C809 1.399 1_455 S
C810 C811 1.385 . S
C811 H797 0.931 . S
C811 C810 1.385 . S
C811 C812 1.389 . S
C812 C811 1.389 . S
C812 C813 1.387 . S
C813 H798 0.930 . S
C813 C808 1.390 1_455 S
C813 C812 1.387 . S
H814 C826 0.930 . S
H815 C828 0.930 . S
H816 C829 0.930 . S
H817 C833 0.959 . S
H818 C833 0.959 1_565 S
H819 C833 0.961 . S
H820 C834 0.960 . S
H821 C834 0.961 . S
H822 C834 0.959 . S
H823 C837 0.929 . S
H824 C838 0.931 . S
H825 C840 0.930 . S
C826 H814 0.930 . S
C826 C827 1.399 . S
C826 C831 1.399 1_545 S
C827 C826 1.399 . S
C827 C828 1.376 . S
C828 H815 0.930 . S
C828 C827 1.376 . S
C828 C829 1.388 1_545 S
C829 H816 0.930 . S
C829 C828 1.388 1_565 S
C829 C830 1.390 . S
C830 C829 1.390 . S
C830 C831 1.394 . S
C830 C836 1.465 . S
C831 C826 1.399 1_565 S
C831 C830 1.394 . S
C831 C832 1.516 . S
C832 C831 1.516 . S
C832 C833 1.502 1_565 S
C832 C834 1.561 . S
C832 C835 1.526 . S
C833 H817 0.959 . S
C833 H818 0.959 1_545 S
C833 H819 0.961 . S
C833 C832 1.502 1_545 S
C834 H820 0.960 . S
C834 H821 0.961 . S
C834 H822 0.959 . S
C834 C832 1.561 . S
C835 C832 1.526 . S
C835 C836 1.396 . S
C835 C840 1.390 . S
C836 C830 1.465 . S
C836 C835 1.396 . S
C836 C837 1.399 . S
C837 H823 0.929 . S
C837 C836 1.399 . S
C837 C838 1.385 . S
C838 H824 0.931 . S
C838 C837 1.385 . S
C838 C839 1.389 . S
C839 C838 1.389 . S
C839 C840 1.387 . S
C840 H825 0.930 . S
C840 C835 1.390 . S
C840 C839 1.387 . S
H841 C853 0.930 . S
H842 C855 0.930 . S
H843 C856 0.930 . S
H844 C860 0.959 . S
H845 C860 0.959 . S
H846 C860 0.961 . S
H847 C861 0.960 . S
H848 C861 0.961 . S
H849 C861 0.959 . S
H850 C864 0.929 . S
H851 C865 0.931 . S
H852 C867 0.930 . S
C853 H841 0.930 . S
C853 C854 1.399 . S
C853 C858 1.399 . S
C854 C853 1.399 . S
C854 C855 1.376 . S
C855 H842 0.930 . S
C855 C854 1.376 . S
C855 C856 1.388 . S
C856 H843 0.930 . S
C856 C855 1.388 . S
C856 C857 1.390 . S
C857 C856 1.390 . S
C857 C858 1.394 . S
C857 C863 1.465 . S
C858 C853 1.399 . S
C858 C857 1.394 . S
C858 C859 1.516 . S
C859 C858 1.516 . S
C859 C860 1.502 . S
C859 C861 1.561 . S
C859 C862 1.526 . S
C860 H844 0.959 . S
C860 H845 0.959 . S
C860 H846 0.961 . S
C860 C859 1.502 . S
C861 H847 0.960 . S
C861 H848 0.961 . S
C861 H849 0.959 . S
C861 C859 1.561 . S
C862 C859 1.526 . S
C862 C863 1.396 . S
C862 C867 1.390 . S
C863 C857 1.465 . S
C863 C862 1.396 . S
C863 C864 1.399 . S
C864 H850 0.929 . S
C864 C863 1.399 . S
C864 C865 1.385 . S
C865 H851 0.931 . S
C865 C864 1.385 . S
C865 C866 1.389 . S
C866 C865 1.389 . S
C866 C867 1.387 . S
C867 H852 0.930 . S
C867 C862 1.390 . S
C867 C866 1.387 . S
H868 C880 0.930 . S
H869 C882 0.930 . S
H870 C883 0.930 . S
H871 C887 0.961 1_545 S
H872 C887 0.957 . S
H873 C887 0.964 1_545 S
H874 C888 0.960 . S
H875 C888 0.961 . S
H876 C888 0.959 . S
H877 C891 0.929 . S
H878 C892 0.931 . S
H879 C894 0.930 . S
C880 H868 0.930 . S
C880 C881 1.399 . S
C880 C885 1.399 1_545 S
C881 C880 1.399 . S
C881 C882 1.376 . S
C882 H869 0.930 . S
C882 C881 1.376 . S
C882 C883 1.388 1_545 S
C883 H870 0.930 . S
C883 C882 1.388 1_565 S
C883 C884 1.390 . S
C884 C883 1.390 . S
C884 C885 1.394 . S
C884 C890 1.465 . S
C885 C880 1.399 1_565 S
C885 C884 1.394 . S
C885 C886 1.516 . S
C886 C885 1.516 . S
C886 C887 1.499 . S
C886 C888 1.561 . S
C886 C889 1.526 . S
C887 H871 0.961 1_565 S
C887 H872 0.957 . S
C887 H873 0.964 1_565 S
C887 C886 1.499 . S
C888 H874 0.960 . S
C888 H875 0.961 . S
C888 H876 0.959 . S
C888 C886 1.561 . S
C889 C886 1.526 . S
C889 C890 1.396 . S
C889 C894 1.390 . S
C890 C884 1.465 . S
C890 C889 1.396 . S
C890 C891 1.399 . S
C891 H877 0.929 . S
C891 C890 1.399 . S
C891 C892 1.385 . S
C892 H878 0.931 . S
C892 C891 1.385 . S
C892 C893 1.389 . S
C893 C892 1.389 . S
C893 C894 1.387 . S
C894 H879 0.930 . S
C894 C889 1.390 . S
C894 C893 1.387 . S
H895 C907 0.930 . S
H896 C909 0.930 . S
H897 C910 0.930 . S
H898 C914 0.959 . S
H899 C914 0.959 . S
H900 C914 0.961 . S
H901 C915 0.960 . S
H902 C915 0.961 . S
H903 C915 0.959 . S
H904 C918 0.929 . S
H905 C919 0.931 . S
H906 C921 0.930 . S
C907 H895 0.930 . S
C907 C908 1.399 . S
C907 C912 1.399 . S
C908 C907 1.399 . S
C908 C909 1.376 . S
C909 H896 0.930 . S
C909 C908 1.376 . S
C909 C910 1.388 . S
C910 H897 0.930 . S
C910 C909 1.388 . S
C910 C911 1.390 . S
C911 C910 1.390 . S
C911 C912 1.394 . S
C911 C917 1.465 . S
C912 C907 1.399 . S
C912 C911 1.394 . S
C912 C913 1.516 . S
C913 C912 1.516 . S
C913 C914 1.502 . S
C913 C915 1.561 . S
C913 C916 1.526 . S
C914 H898 0.959 . S
C914 H899 0.959 . S
C914 H900 0.961 . S
C914 C913 1.502 . S
C915 H901 0.960 . S
C915 H902 0.961 . S
C915 H903 0.959 . S
C915 C913 1.561 . S
C916 C913 1.526 . S
C916 C917 1.396 . S
C916 C921 1.390 . S
C917 C911 1.465 . S
C917 C916 1.396 . S
C917 C918 1.399 . S
C918 H904 0.929 . S
C918 C917 1.399 . S
C918 C919 1.385 . S
C919 H905 0.931 . S
C919 C918 1.385 . S
C919 C920 1.389 . S
C920 C919 1.389 . S
C920 C921 1.387 . S
C921 H906 0.930 . S
C921 C916 1.390 . S
C921 C920 1.387 . S
H922 C934 0.930 . S
H923 C936 0.930 . S
H924 C937 0.930 . S
H925 C941 0.959 . S
H926 C941 0.959 . S
H927 C941 0.961 . S
H928 C942 0.960 . S
H929 C942 0.961 . S
H930 C942 0.959 . S
H931 C945 0.929 . S
H932 C946 0.931 . S
H933 C948 0.930 . S
C934 H922 0.930 . S
C934 C935 1.399 . S
C934 C939 1.399 . S
C935 C934 1.399 . S
C935 C936 1.376 . S
C936 H923 0.930 . S
C936 C935 1.376 . S
C936 C937 1.388 . S
C937 H924 0.930 . S
C937 C936 1.388 . S
C937 C938 1.390 . S
C938 C937 1.390 . S
C938 C939 1.394 . S
C938 C944 1.465 . S
C939 C934 1.399 . S
C939 C938 1.394 . S
C939 C940 1.516 . S
C940 C939 1.516 . S
C940 C941 1.502 . S
C940 C942 1.561 . S
C940 C943 1.526 . S
C941 H925 0.959 . S
C941 H926 0.959 . S
C941 H927 0.961 . S
C941 C940 1.502 . S
C942 H928 0.960 . S
C942 H929 0.961 . S
C942 H930 0.959 . S
C942 C940 1.561 . S
C943 C940 1.526 . S
C943 C944 1.396 . S
C943 C948 1.390 . S
C944 C938 1.465 . S
C944 C943 1.396 . S
C944 C945 1.399 . S
C945 H931 0.929 . S
C945 C944 1.399 . S
C945 C946 1.385 . S
C946 H932 0.931 . S
C946 C945 1.385 . S
C946 C947 1.389 . S
C947 C946 1.389 . S
C947 C948 1.387 . S
C948 H933 0.930 . S
C948 C943 1.390 . S
C948 C947 1.387 . S
H949 C961 0.930 . S
H950 C963 0.930 . S
H951 C964 0.930 . S
H952 C968 0.959 . S
H953 C968 0.959 . S
H954 C968 0.961 . S
H955 C969 0.960 . S
H956 C969 0.961 . S
H957 C969 0.959 . S
H958 C972 0.929 . S
H959 C973 0.931 . S
H960 C975 0.930 . S
C961 H949 0.930 . S
C961 C962 1.399 . S
C961 C966 1.399 1_455 S
C962 C961 1.399 . S
C962 C963 1.376 . S
C963 H950 0.930 . S
C963 C962 1.376 . S
C963 C964 1.388 . S
C964 H951 0.930 . S
C964 C963 1.388 . S
C964 C965 1.390 1_455 S
C965 C964 1.390 1_655 S
C965 C966 1.394 . S
C965 C971 1.465 . S
C966 C961 1.399 1_655 S
C966 C965 1.394 . S
C966 C967 1.516 . S
C967 C966 1.516 . S
C967 C968 1.502 . S
C967 C969 1.561 . S
C967 C970 1.526 . S
C968 H952 0.959 . S
C968 H953 0.959 . S
C968 H954 0.961 . S
C968 C967 1.502 . S
C969 H955 0.960 . S
C969 H956 0.961 . S
C969 H957 0.959 . S
C969 C967 1.561 . S
C970 C967 1.526 . S
C970 C971 1.396 . S
C970 C975 1.390 . S
C971 C965 1.465 . S
C971 C970 1.396 . S
C971 C972 1.399 . S
C972 H958 0.929 . S
C972 C971 1.399 . S
C972 C973 1.385 . S
C973 H959 0.931 . S
C973 C972 1.385 . S
C973 C974 1.389 . S
C974 C973 1.389 . S
C974 C975 1.387 . S
C975 H960 0.930 . S
C975 C970 1.390 . S
C975 C974 1.387 . S
H976 C988 0.930 . S
H977 C990 0.930 . S
H978 C991 0.930 . S
H979 C995 0.959 . S
H980 C995 0.959 . S
H981 C995 0.961 . S
H982 C996 0.960 . S
H983 C996 0.961 . S
H984 C996 0.959 . S
H985 C999 0.929 . S
H986 C1000 0.931 . S
H987 C1002 0.930 . S
C988 H976 0.930 . S
C988 C989 1.399 . S
C988 C993 1.399 . S
C989 C988 1.399 . S
C989 C990 1.376 . S
C990 H977 0.930 . S
C990 C989 1.376 . S
C990 C991 1.388 . S
C991 H978 0.930 . S
C991 C990 1.388 . S
C991 C992 1.390 . S
C992 C991 1.390 . S
C992 C993 1.394 . S
C992 C998 1.465 . S
C993 C988 1.399 . S
C993 C992 1.394 . S
C993 C994 1.516 . S
C994 C993 1.516 . S
C994 C995 1.502 . S
C994 C996 1.561 . S
C994 C997 1.526 . S
C995 H979 0.959 . S
C995 H980 0.959 . S
C995 H981 0.961 . S
C995 C994 1.502 . S
C996 H982 0.960 . S
C996 H983 0.961 . S
C996 H984 0.959 . S
C996 C994 1.561 . S
C997 C994 1.526 . S
C997 C998 1.396 . S
C997 C1002 1.390 . S
C998 C992 1.465 . S
C998 C997 1.396 . S
C998 C999 1.399 . S
C999 H985 0.929 . S
C999 C998 1.399 . S
C999 C1000 1.385 . S
C1000 H986 0.931 . S
C1000 C999 1.385 . S
C1000 C1001 1.389 . S
C1001 C1000 1.389 . S
C1001 C1002 1.387 . S
C1002 H987 0.930 . S
C1002 C997 1.390 . S
C1002 C1001 1.387 . S
H1003 C1015 0.930 . S
H1004 C1017 0.930 . S
H1005 C1018 0.930 . S
H1006 C1022 0.959 . S
H1007 C1022 0.959 . S
H1008 C1022 0.961 . S
H1009 C1023 0.960 . S
H1010 C1023 0.961 . S
H1011 C1023 0.959 . S
H1012 C1026 0.929 . S
H1013 C1027 0.931 . S
H1014 C1029 0.930 . S
C1015 H1003 0.930 . S
C1015 C1016 1.399 . S
C1015 C1020 1.399 . S
C1016 C1015 1.399 . S
C1016 C1017 1.376 . S
C1017 H1004 0.930 . S
C1017 C1016 1.376 . S
C1017 C1018 1.388 . S
C1018 H1005 0.930 . S
C1018 C1017 1.388 . S
C1018 C1019 1.390 . S
C1019 C1018 1.390 . S
C1019 C1020 1.394 . S
C1019 C1025 1.465 . S
C1020 C1015 1.399 . S
C1020 C1019 1.394 . S
C1020 C1021 1.516 . S
C1021 C1020 1.516 . S
C1021 C1022 1.502 . S
C1021 C1023 1.561 . S
C1021 C1024 1.526 . S
C1022 H1006 0.959 . S
C1022 H1007 0.959 . S
C1022 H1008 0.961 . S
C1022 C1021 1.502 . S
C1023 H1009 0.960 . S
C1023 H1010 0.961 . S
C1023 H1011 0.959 . S
C1023 C1021 1.561 . S
C1024 C1021 1.526 . S
C1024 C1025 1.396 . S
C1024 C1029 1.390 . S
C1025 C1019 1.465 . S
C1025 C1024 1.396 . S
C1025 C1026 1.399 . S
C1026 H1012 0.929 . S
C1026 C1025 1.399 . S
C1026 C1027 1.385 . S
C1027 H1013 0.931 . S
C1027 C1026 1.385 . S
C1027 C1028 1.389 . S
C1028 C1027 1.389 . S
C1028 C1029 1.387 . S
C1029 H1014 0.930 . S
C1029 C1024 1.390 . S
C1029 C1028 1.387 . S
H1030 C1042 0.930 . S
H1031 C1044 0.930 . S
H1032 C1045 0.930 . S
H1033 C1049 0.959 . S
H1034 C1049 0.959 . S
H1035 C1049 0.961 . S
H1036 C1050 0.960 . S
H1037 C1050 0.961 . S
H1038 C1050 0.959 . S
H1039 C1053 0.929 . S
H1040 C1054 0.931 . S
H1041 C1056 0.930 . S
C1042 H1030 0.930 . S
C1042 C1043 1.399 . S
C1042 C1047 1.399 . S
C1043 C1042 1.399 . S
C1043 C1044 1.376 . S
C1044 H1031 0.930 . S
C1044 C1043 1.376 . S
C1044 C1045 1.388 . S
C1045 H1032 0.930 . S
C1045 C1044 1.388 . S
C1045 C1046 1.390 . S
C1046 C1045 1.390 . S
C1046 C1047 1.394 . S
C1046 C1052 1.465 . S
C1047 C1042 1.399 . S
C1047 C1046 1.394 . S
C1047 C1048 1.516 . S
C1048 C1047 1.516 . S
C1048 C1049 1.502 . S
C1048 C1050 1.561 . S
C1048 C1051 1.526 . S
C1049 H1033 0.959 . S
C1049 H1034 0.959 . S
C1049 H1035 0.961 . S
C1049 C1048 1.502 . S
C1050 H1036 0.960 . S
C1050 H1037 0.961 . S
C1050 H1038 0.959 . S
C1050 C1048 1.561 . S
C1051 C1048 1.526 . S
C1051 C1052 1.396 . S
C1051 C1056 1.390 . S
C1052 C1046 1.465 . S
C1052 C1051 1.396 . S
C1052 C1053 1.399 . S
C1053 H1039 0.929 . S
C1053 C1052 1.399 . S
C1053 C1054 1.385 . S
C1054 H1040 0.931 . S
C1054 C1053 1.385 . S
C1054 C1055 1.389 . S
C1055 C1054 1.389 . S
C1055 C1056 1.387 . S
C1056 H1041 0.930 . S
C1056 C1051 1.390 . S
C1056 C1055 1.387 . S
H1057 C1069 0.930 . S
H1058 C1071 0.930 . S
H1059 C1072 0.930 . S
H1060 C1076 0.959 . S
H1061 C1076 0.959 . S
H1062 C1076 0.961 . S
H1063 C1077 0.960 . S
H1064 C1077 0.961 . S
H1065 C1077 0.959 . S
H1066 C1080 0.929 . S
H1067 C1081 0.931 . S
H1068 C1083 0.930 . S
C1069 H1057 0.930 . S
C1069 C1070 1.399 . S
C1069 C1074 1.399 . S
C1070 C1069 1.399 . S
C1070 C1071 1.376 . S
C1071 H1058 0.930 . S
C1071 C1070 1.376 . S
C1071 C1072 1.388 . S
C1072 H1059 0.930 . S
C1072 C1071 1.388 . S
C1072 C1073 1.390 . S
C1073 C1072 1.390 . S
C1073 C1074 1.394 . S
C1073 C1079 1.465 . S
C1074 C1069 1.399 . S
C1074 C1073 1.394 . S
C1074 C1075 1.516 . S
C1075 C1074 1.516 . S
C1075 C1076 1.502 . S
C1075 C1077 1.561 . S
C1075 C1078 1.526 . S
C1076 H1060 0.959 . S
C1076 H1061 0.959 . S
C1076 H1062 0.961 . S
C1076 C1075 1.502 . S
C1077 H1063 0.960 . S
C1077 H1064 0.961 . S
C1077 H1065 0.959 . S
C1077 C1075 1.561 . S
C1078 C1075 1.526 . S
C1078 C1079 1.396 . S
C1078 C1083 1.390 . S
C1079 C1073 1.465 . S
C1079 C1078 1.396 . S
C1079 C1080 1.399 . S
C1080 H1066 0.929 . S
C1080 C1079 1.399 . S
C1080 C1081 1.385 . S
C1081 H1067 0.931 . S
C1081 C1080 1.385 . S
C1081 C1082 1.389 . S
C1082 C1081 1.389 . S
C1082 C1083 1.387 . S
C1083 H1068 0.930 . S
C1083 C1078 1.390 . S
C1083 C1082 1.387 . S
H1084 C1096 0.930 . S
H1085 C1098 0.930 . S
H1086 C1099 0.930 . S
H1087 C1103 0.959 . S
H1088 C1103 0.959 . S
H1089 C1103 0.961 . S
H1090 C1104 0.960 . S
H1091 C1104 0.961 . S
H1092 C1104 0.959 . S
H1093 C1107 0.929 . S
H1094 C1108 0.931 . S
H1095 C1110 0.930 . S
C1096 H1084 0.930 . S
C1096 C1097 1.399 . S
C1096 C1101 1.399 . S
C1097 C1096 1.399 . S
C1097 C1098 1.376 . S
C1098 H1085 0.930 . S
C1098 C1097 1.376 . S
C1098 C1099 1.388 . S
C1099 H1086 0.930 . S
C1099 C1098 1.388 . S
C1099 C1100 1.390 . S
C1100 C1099 1.390 . S
C1100 C1101 1.394 . S
C1100 C1106 1.465 . S
C1101 C1096 1.399 . S
C1101 C1100 1.394 . S
C1101 C1102 1.516 . S
C1102 C1101 1.516 . S
C1102 C1103 1.502 . S
C1102 C1104 1.561 . S
C1102 C1105 1.526 . S
C1103 H1087 0.959 . S
C1103 H1088 0.959 . S
C1103 H1089 0.961 . S
C1103 C1102 1.502 . S
C1104 H1090 0.960 . S
C1104 H1091 0.961 . S
C1104 H1092 0.959 . S
C1104 C1102 1.561 . S
C1105 C1102 1.526 . S
C1105 C1106 1.396 . S
C1105 C1110 1.390 . S
C1106 C1100 1.465 . S
C1106 C1105 1.396 . S
C1106 C1107 1.399 . S
C1107 H1093 0.929 . S
C1107 C1106 1.399 . S
C1107 C1108 1.385 . S
C1108 H1094 0.931 . S
C1108 C1107 1.385 . S
C1108 C1109 1.389 . S
C1109 C1108 1.389 . S
C1109 C1110 1.387 . S
C1110 H1095 0.930 . S
C1110 C1105 1.390 . S
C1110 C1109 1.387 . S
H1111 C1123 0.930 . S
H1112 C1125 0.930 . S
H1113 C1126 0.930 . S
H1114 C1130 0.959 . S
H1115 C1130 0.959 . S
H1116 C1130 0.961 . S
H1117 C1131 0.960 . S
H1118 C1131 0.961 . S
H1119 C1131 0.959 . S
H1120 C1134 0.929 . S
H1121 C1135 0.931 . S
H1122 C1137 0.930 . S
C1123 H1111 0.930 . S
C1123 C1124 1.399 . S
C1123 C1128 1.399 . S
C1124 C1123 1.399 . S
C1124 C1125 1.376 . S
C1125 H1112 0.930 . S
C1125 C1124 1.376 . S
C1125 C1126 1.388 . S
C1126 H1113 0.930 . S
C1126 C1125 1.388 . S
C1126 C1127 1.390 . S
C1127 C1126 1.390 . S
C1127 C1128 1.394 . S
C1127 C1133 1.465 . S
C1128 C1123 1.399 . S
C1128 C1127 1.394 . S
C1128 C1129 1.516 . S
C1129 C1128 1.516 . S
C1129 C1130 1.502 . S
C1129 C1131 1.561 . S
C1129 C1132 1.526 . S
C1130 H1114 0.959 . S
C1130 H1115 0.959 . S
C1130 H1116 0.961 . S
C1130 C1129 1.502 . S
C1131 H1117 0.960 . S
C1131 H1118 0.961 . S
C1131 H1119 0.959 . S
C1131 C1129 1.561 . S
C1132 C1129 1.526 . S
C1132 C1133 1.396 . S
C1132 C1137 1.390 . S
C1133 C1127 1.465 . S
C1133 C1132 1.396 . S
C1133 C1134 1.399 . S
C1134 H1120 0.929 . S
C1134 C1133 1.399 . S
C1134 C1135 1.385 . S
C1135 H1121 0.931 . S
C1135 C1134 1.385 . S
C1135 C1136 1.389 . S
C1136 C1135 1.389 . S
C1136 C1137 1.387 . S
C1137 H1122 0.930 . S
C1137 C1132 1.390 . S
C1137 C1136 1.387 . S
H1138 C1150 0.930 . S
H1139 C1152 0.930 . S
H1140 C1153 0.930 . S
H1141 C1157 0.959 . S
H1142 C1157 0.959 . S
H1143 C1157 0.961 . S
H1144 C1158 0.960 . S
H1145 C1158 0.961 . S
H1146 C1158 0.959 . S
H1147 C1161 0.929 . S
H1148 C1162 0.931 . S
H1149 C1164 0.930 . S
C1150 H1138 0.930 . S
C1150 C1151 1.399 . S
C1150 C1155 1.399 . S
C1151 C1150 1.399 . S
C1151 C1152 1.376 . S
C1152 H1139 0.930 . S
C1152 C1151 1.376 . S
C1152 C1153 1.388 . S
C1153 H1140 0.930 . S
C1153 C1152 1.388 . S
C1153 C1154 1.390 . S
C1154 C1153 1.390 . S
C1154 C1155 1.394 . S
C1154 C1160 1.465 . S
C1155 C1150 1.399 . S
C1155 C1154 1.394 . S
C1155 C1156 1.516 . S
C1156 C1155 1.516 . S
C1156 C1157 1.502 . S
C1156 C1158 1.561 . S
C1156 C1159 1.526 . S
C1157 H1141 0.959 . S
C1157 H1142 0.959 . S
C1157 H1143 0.961 . S
C1157 C1156 1.502 . S
C1158 H1144 0.960 . S
C1158 H1145 0.961 . S
C1158 H1146 0.959 . S
C1158 C1156 1.561 . S
C1159 C1156 1.526 . S
C1159 C1160 1.396 . S
C1159 C1164 1.390 . S
C1160 C1154 1.465 . S
C1160 C1159 1.396 . S
C1160 C1161 1.399 . S
C1161 H1147 0.929 . S
C1161 C1160 1.399 . S
C1161 C1162 1.385 . S
C1162 H1148 0.931 . S
C1162 C1161 1.385 . S
C1162 C1163 1.389 . S
C1163 C1162 1.389 . S
C1163 C1164 1.387 . S
C1164 H1149 0.930 . S
C1164 C1159 1.390 . S
C1164 C1163 1.387 . S
H1165 C1177 0.930 . S
H1166 C1179 0.930 . S
H1167 C1180 0.930 . S
H1168 C1184 0.959 . S
H1169 C1184 0.959 . S
H1170 C1184 0.961 . S
H1171 C1185 0.960 . S
H1172 C1185 0.961 . S
H1173 C1185 0.959 . S
H1174 C1188 0.929 . S
H1175 C1189 0.931 . S
H1176 C1191 0.930 . S
C1177 H1165 0.930 . S
C1177 C1178 1.399 . S
C1177 C1182 1.399 . S
C1178 C1177 1.399 . S
C1178 C1179 1.376 . S
C1179 H1166 0.930 . S
C1179 C1178 1.376 . S
C1179 C1180 1.388 . S
C1180 H1167 0.930 . S
C1180 C1179 1.388 . S
C1180 C1181 1.390 . S
C1181 C1180 1.390 . S
C1181 C1182 1.394 . S
C1181 C1187 1.465 . S
C1182 C1177 1.399 . S
C1182 C1181 1.394 . S
C1182 C1183 1.516 . S
C1183 C1182 1.516 . S
C1183 C1184 1.502 . S
C1183 C1185 1.561 . S
C1183 C1186 1.526 . S
C1184 H1168 0.959 . S
C1184 H1169 0.959 . S
C1184 H1170 0.961 . S
C1184 C1183 1.502 . S
C1185 H1171 0.960 . S
C1185 H1172 0.961 . S
C1185 H1173 0.959 . S
C1185 C1183 1.561 . S
C1186 C1183 1.526 . S
C1186 C1187 1.396 . S
C1186 C1191 1.390 . S
C1187 C1181 1.465 . S
C1187 C1186 1.396 . S
C1187 C1188 1.399 . S
C1188 H1174 0.929 . S
C1188 C1187 1.399 . S
C1188 C1189 1.385 . S
C1189 H1175 0.931 . S
C1189 C1188 1.385 . S
C1189 C1190 1.389 . S
C1190 C1189 1.389 . S
C1190 C1191 1.387 . S
C1191 H1176 0.930 . S
C1191 C1186 1.390 . S
C1191 C1190 1.387 . S
H1192 C1204 0.930 . S
H1193 C1206 0.930 . S
H1194 C1207 0.930 . S
H1195 C1211 0.959 . S
H1196 C1211 0.959 . S
H1197 C1211 0.961 . S
H1198 C1212 0.960 . S
H1199 C1212 0.961 . S
H1200 C1212 0.959 . S
H1201 C1215 0.929 . S
H1202 C1216 0.931 . S
H1203 C1218 0.930 . S
C1204 H1192 0.930 . S
C1204 C1205 1.399 . S
C1204 C1209 1.399 . S
C1205 C1204 1.399 . S
C1205 C1206 1.376 . S
C1206 H1193 0.930 . S
C1206 C1205 1.376 . S
C1206 C1207 1.388 . S
C1207 H1194 0.930 . S
C1207 C1206 1.388 . S
C1207 C1208 1.390 . S
C1208 C1207 1.390 . S
C1208 C1209 1.394 . S
C1208 C1214 1.465 . S
C1209 C1204 1.399 . S
C1209 C1208 1.394 . S
C1209 C1210 1.516 . S
C1210 C1209 1.516 . S
C1210 C1211 1.502 . S
C1210 C1212 1.561 . S
C1210 C1213 1.526 . S
C1211 H1195 0.959 . S
C1211 H1196 0.959 . S
C1211 H1197 0.961 . S
C1211 C1210 1.502 . S
C1212 H1198 0.960 . S
C1212 H1199 0.961 . S
C1212 H1200 0.959 . S
C1212 C1210 1.561 . S
C1213 C1210 1.526 . S
C1213 C1214 1.396 . S
C1213 C1218 1.390 . S
C1214 C1208 1.465 . S
C1214 C1213 1.396 . S
C1214 C1215 1.399 . S
C1215 H1201 0.929 . S
C1215 C1214 1.399 . S
C1215 C1216 1.385 . S
C1216 H1202 0.931 . S
C1216 C1215 1.385 . S
C1216 C1217 1.389 . S
C1217 C1216 1.389 . S
C1217 C1218 1.387 . S
C1218 H1203 0.930 . S
C1218 C1213 1.390 . S
C1218 C1217 1.387 . S
H1219 C1231 0.930 . S
H1220 C1233 0.930 . S
H1221 C1234 0.930 . S
H1222 C1238 0.959 . S
H1223 C1238 0.959 . S
H1224 C1238 0.961 . S
H1225 C1239 0.960 . S
H1226 C1239 0.961 . S
H1227 C1239 0.959 . S
H1228 C1242 0.929 . S
H1229 C1243 0.931 . S
H1230 C1245 0.930 . S
C1231 H1219 0.930 . S
C1231 C1232 1.399 . S
C1231 C1236 1.399 . S
C1232 C1231 1.399 . S
C1232 C1233 1.376 . S
C1233 H1220 0.930 . S
C1233 C1232 1.376 . S
C1233 C1234 1.388 . S
C1234 H1221 0.930 . S
C1234 C1233 1.388 . S
C1234 C1235 1.390 . S
C1235 C1234 1.390 . S
C1235 C1236 1.394 . S
C1235 C1241 1.465 . S
C1236 C1231 1.399 . S
C1236 C1235 1.394 . S
C1236 C1237 1.516 . S
C1237 C1236 1.516 . S
C1237 C1238 1.502 . S
C1237 C1239 1.561 . S
C1237 C1240 1.526 . S
C1238 H1222 0.959 . S
C1238 H1223 0.959 . S
C1238 H1224 0.961 . S
C1238 C1237 1.502 . S
C1239 H1225 0.960 . S
C1239 H1226 0.961 . S
C1239 H1227 0.959 . S
C1239 C1237 1.561 . S
C1240 C1237 1.526 . S
C1240 C1241 1.396 . S
C1240 C1245 1.390 . S
C1241 C1235 1.465 . S
C1241 C1240 1.396 . S
C1241 C1242 1.399 . S
C1242 H1228 0.929 . S
C1242 C1241 1.399 . S
C1242 C1243 1.385 . S
C1243 H1229 0.931 . S
C1243 C1242 1.385 . S
C1243 C1244 1.389 . S
C1244 C1243 1.389 . S
C1244 C1245 1.387 . S
C1245 H1230 0.930 . S
C1245 C1240 1.390 . S
C1245 C1244 1.387 . S
H1246 C1258 0.930 . S
H1247 C1260 0.930 . S
H1248 C1261 0.930 . S
H1249 C1265 0.959 . S
H1250 C1265 0.959 . S
H1251 C1265 0.961 . S
H1252 C1266 0.960 . S
H1253 C1266 0.961 . S
H1254 C1266 0.959 . S
H1255 C1269 0.929 . S
H1256 C1270 0.931 . S
H1257 C1272 0.930 . S
C1258 H1246 0.930 . S
C1258 C1259 1.399 . S
C1258 C1263 1.399 . S
C1259 C1258 1.399 . S
C1259 C1260 1.376 . S
C1260 H1247 0.930 . S
C1260 C1259 1.376 . S
C1260 C1261 1.388 . S
C1261 H1248 0.930 . S
C1261 C1260 1.388 . S
C1261 C1262 1.390 . S
C1262 C1261 1.390 . S
C1262 C1263 1.394 . S
C1262 C1268 1.465 . S
C1263 C1258 1.399 . S
C1263 C1262 1.394 . S
C1263 C1264 1.516 . S
C1264 C1263 1.516 . S
C1264 C1265 1.502 . S
C1264 C1266 1.561 . S
C1264 C1267 1.526 . S
C1265 H1249 0.959 . S
C1265 H1250 0.959 . S
C1265 H1251 0.961 . S
C1265 C1264 1.502 . S
C1266 H1252 0.960 . S
C1266 H1253 0.961 . S
C1266 H1254 0.959 . S
C1266 C1264 1.561 . S
C1267 C1264 1.526 . S
C1267 C1268 1.396 . S
C1267 C1272 1.390 . S
C1268 C1262 1.465 . S
C1268 C1267 1.396 . S
C1268 C1269 1.399 . S
C1269 H1255 0.929 . S
C1269 C1268 1.399 . S
C1269 C1270 1.385 . S
C1270 H1256 0.931 . S
C1270 C1269 1.385 . S
C1270 C1271 1.389 . S
C1271 C1270 1.389 . S
C1271 C1272 1.387 . S
C1272 H1257 0.930 . S
C1272 C1267 1.390 . S
C1272 C1271 1.387 . S
H1273 C1285 0.930 . S
H1274 C1287 0.930 . S
H1275 C1288 0.930 . S
H1276 C1292 0.959 . S
H1277 C1292 0.959 . S
H1278 C1292 0.961 . S
H1279 C1293 0.960 . S
H1280 C1293 0.961 . S
H1281 C1293 0.959 . S
H1282 C1296 0.929 . S
H1283 C1297 0.931 . S
H1284 C1299 0.930 . S
C1285 H1273 0.930 . S
C1285 C1286 1.399 . S
C1285 C1290 1.399 . S
C1286 C1285 1.399 . S
C1286 C1287 1.376 . S
C1287 H1274 0.930 . S
C1287 C1286 1.376 . S
C1287 C1288 1.388 . S
C1288 H1275 0.930 . S
C1288 C1287 1.388 . S
C1288 C1289 1.390 . S
C1289 C1288 1.390 . S
C1289 C1290 1.394 . S
C1289 C1295 1.465 . S
C1290 C1285 1.399 . S
C1290 C1289 1.394 . S
C1290 C1291 1.516 . S
C1291 C1290 1.516 . S
C1291 C1292 1.502 . S
C1291 C1293 1.561 . S
C1291 C1294 1.526 . S
C1292 H1276 0.959 . S
C1292 H1277 0.959 . S
C1292 H1278 0.961 . S
C1292 C1291 1.502 . S
C1293 H1279 0.960 . S
C1293 H1280 0.961 . S
C1293 H1281 0.959 . S
C1293 C1291 1.561 . S
C1294 C1291 1.526 . S
C1294 C1295 1.396 . S
C1294 C1299 1.390 . S
C1295 C1289 1.465 . S
C1295 C1294 1.396 . S
C1295 C1296 1.399 . S
C1296 H1282 0.929 . S
C1296 C1295 1.399 . S
C1296 C1297 1.385 . S
C1297 H1283 0.931 . S
C1297 C1296 1.385 . S
C1297 C1298 1.389 . S
C1298 C1297 1.389 . S
C1298 C1299 1.387 . S
C1299 H1284 0.930 . S
C1299 C1294 1.390 . S
C1299 C1298 1.387 . S
H1300 C1312 0.930 . S
H1301 C1314 0.930 . S
H1302 C1315 0.930 . S
H1303 C1319 0.959 . S
H1304 C1319 0.959 . S
H1305 C1319 0.961 . S
H1306 C1320 0.960 . S
H1307 C1320 0.961 . S
H1308 C1320 0.959 . S
H1309 C1323 0.929 . S
H1310 C1324 0.931 . S
H1311 C1326 0.930 . S
C1312 H1300 0.930 . S
C1312 C1313 1.399 . S
C1312 C1317 1.399 . S
C1313 C1312 1.399 . S
C1313 C1314 1.376 . S
C1314 H1301 0.930 . S
C1314 C1313 1.376 . S
C1314 C1315 1.388 . S
C1315 H1302 0.930 . S
C1315 C1314 1.388 . S
C1315 C1316 1.390 . S
C1316 C1315 1.390 . S
C1316 C1317 1.394 . S
C1316 C1322 1.465 . S
C1317 C1312 1.399 . S
C1317 C1316 1.394 . S
C1317 C1318 1.516 . S
C1318 C1317 1.516 . S
C1318 C1319 1.502 . S
C1318 C1320 1.561 . S
C1318 C1321 1.526 . S
C1319 H1303 0.959 . S
C1319 H1304 0.959 . S
C1319 H1305 0.961 . S
C1319 C1318 1.502 . S
C1320 H1306 0.960 . S
C1320 H1307 0.961 . S
C1320 H1308 0.959 . S
C1320 C1318 1.561 . S
C1321 C1318 1.526 . S
C1321 C1322 1.396 . S
C1321 C1326 1.390 . S
C1322 C1316 1.465 . S
C1322 C1321 1.396 . S
C1322 C1323 1.399 . S
C1323 H1309 0.929 . S
C1323 C1322 1.399 . S
C1323 C1324 1.385 . S
C1324 H1310 0.931 . S
C1324 C1323 1.385 . S
C1324 C1325 1.389 . S
C1325 C1324 1.389 . S
C1325 C1326 1.387 . S
C1326 H1311 0.930 . S
C1326 C1321 1.390 . S
C1326 C1325 1.387 . S
H1327 C1339 0.930 . S
H1328 C1341 0.930 . S
H1329 C1342 0.930 . S
H1330 C1346 0.959 . S
H1331 C1346 0.959 . S
H1332 C1346 0.961 . S
H1333 C1347 0.960 . S
H1334 C1347 0.961 . S
H1335 C1347 0.959 . S
H1336 C1350 0.929 . S
H1337 C1351 0.931 . S
H1338 C1353 0.930 . S
C1339 H1327 0.930 . S
C1339 C1340 1.399 . S
C1339 C1344 1.399 . S
C1340 C1339 1.399 . S
C1340 C1341 1.376 . S
C1341 H1328 0.930 . S
C1341 C1340 1.376 . S
C1341 C1342 1.388 . S
C1342 H1329 0.930 . S
C1342 C1341 1.388 . S
C1342 C1343 1.390 . S
C1343 C1342 1.390 . S
C1343 C1344 1.394 . S
C1343 C1349 1.465 . S
C1344 C1339 1.399 . S
C1344 C1343 1.394 . S
C1344 C1345 1.516 . S
C1345 C1344 1.516 . S
C1345 C1346 1.502 . S
C1345 C1347 1.561 . S
C1345 C1348 1.526 . S
C1346 H1330 0.959 . S
C1346 H1331 0.959 . S
C1346 H1332 0.961 . S
C1346 C1345 1.502 . S
C1347 H1333 0.960 . S
C1347 H1334 0.961 . S
C1347 H1335 0.959 . S
C1347 C1345 1.561 . S
C1348 C1345 1.526 . S
C1348 C1349 1.396 . S
C1348 C1353 1.390 . S
C1349 C1343 1.465 . S
C1349 C1348 1.396 . S
C1349 C1350 1.399 . S
C1350 H1336 0.929 . S
C1350 C1349 1.399 . S
C1350 C1351 1.385 . S
C1351 H1337 0.931 . S
C1351 C1350 1.385 . S
C1351 C1352 1.389 . S
C1352 C1351 1.389 . S
C1352 C1353 1.387 . S
C1353 H1338 0.930 . S
C1353 C1348 1.390 . S
C1353 C1352 1.387 . S
H1354 C1366 0.930 . S
H1355 C1368 0.930 . S
H1356 C1369 0.930 . S
H1357 C1373 0.959 . S
H1358 C1373 0.959 . S
H1359 C1373 0.961 . S
H1360 C1374 0.960 . S
H1361 C1374 0.961 . S
H1362 C1374 0.959 . S
H1363 C1377 0.929 . S
H1364 C1378 0.931 . S
H1365 C1380 0.930 . S
C1366 H1354 0.930 . S
C1366 C1367 1.399 . S
C1366 C1371 1.399 . S
C1367 C1366 1.399 . S
C1367 C1368 1.376 . S
C1368 H1355 0.930 . S
C1368 C1367 1.376 . S
C1368 C1369 1.388 . S
C1369 H1356 0.930 . S
C1369 C1368 1.388 . S
C1369 C1370 1.390 . S
C1370 C1369 1.390 . S
C1370 C1371 1.394 . S
C1370 C1376 1.465 . S
C1371 C1366 1.399 . S
C1371 C1370 1.394 . S
C1371 C1372 1.516 . S
C1372 C1371 1.516 . S
C1372 C1373 1.502 . S
C1372 C1374 1.561 . S
C1372 C1375 1.526 . S
C1373 H1357 0.959 . S
C1373 H1358 0.959 . S
C1373 H1359 0.961 . S
C1373 C1372 1.502 . S
C1374 H1360 0.960 . S
C1374 H1361 0.961 . S
C1374 H1362 0.959 . S
C1374 C1372 1.561 . S
C1375 C1372 1.526 . S
C1375 C1376 1.396 . S
C1375 C1380 1.390 . S
C1376 C1370 1.465 . S
C1376 C1375 1.396 . S
C1376 C1377 1.399 . S
C1377 H1363 0.929 . S
C1377 C1376 1.399 . S
C1377 C1378 1.385 . S
C1378 H1364 0.931 . S
C1378 C1377 1.385 . S
C1378 C1379 1.389 . S
C1379 C1378 1.389 . S
C1379 C1380 1.387 . S
C1380 H1365 0.930 . S
C1380 C1375 1.390 . S
C1380 C1379 1.387 . S
H1381 C1393 0.930 . S
H1382 C1395 0.930 . S
H1383 C1396 0.930 . S
H1384 C1400 0.959 . S
H1385 C1400 0.959 . S
H1386 C1400 0.961 . S
H1387 C1401 0.960 . S
H1388 C1401 0.961 . S
H1389 C1401 0.959 . S
H1390 C1404 0.929 . S
H1391 C1405 0.931 . S
H1392 C1407 0.930 . S
C1393 H1381 0.930 . S
C1393 C1394 1.399 . S
C1393 C1398 1.399 . S
C1394 C1393 1.399 . S
C1394 C1395 1.376 . S
C1395 H1382 0.930 . S
C1395 C1394 1.376 . S
C1395 C1396 1.388 . S
C1396 H1383 0.930 . S
C1396 C1395 1.388 . S
C1396 C1397 1.390 . S
C1397 C1396 1.390 . S
C1397 C1398 1.394 . S
C1397 C1403 1.465 . S
C1398 C1393 1.399 . S
C1398 C1397 1.394 . S
C1398 C1399 1.516 . S
C1399 C1398 1.516 . S
C1399 C1400 1.502 . S
C1399 C1401 1.561 . S
C1399 C1402 1.526 . S
C1400 H1384 0.959 . S
C1400 H1385 0.959 . S
C1400 H1386 0.961 . S
C1400 C1399 1.502 . S
C1401 H1387 0.960 . S
C1401 H1388 0.961 . S
C1401 H1389 0.959 . S
C1401 C1399 1.561 . S
C1402 C1399 1.526 . S
C1402 C1403 1.396 . S
C1402 C1407 1.390 . S
C1403 C1397 1.465 . S
C1403 C1402 1.396 . S
C1403 C1404 1.399 . S
C1404 H1390 0.929 . S
C1404 C1403 1.399 . S
C1404 C1405 1.385 . S
C1405 H1391 0.931 . S
C1405 C1404 1.385 . S
C1405 C1406 1.389 . S
C1406 C1405 1.389 . S
C1406 C1407 1.387 . S
C1407 H1392 0.930 . S
C1407 C1402 1.390 . S
C1407 C1406 1.387 . S
H1408 C1420 0.930 . S
H1409 C1422 0.928 . S
H1410 C1423 0.930 . S
H1411 C1427 0.959 . S
H1412 C1427 0.959 . S
H1413 C1427 0.961 . S
H1414 C1428 0.960 . S
H1415 C1428 0.961 . S
H1416 C1428 0.959 . S
H1417 C1431 0.929 . S
H1418 C1432 0.931 . S
H1419 C1434 0.930 . S
C1420 H1408 0.930 . S
C1420 C1421 1.398 1_655 S
C1420 C1425 1.399 . S
C1421 C1420 1.398 1_455 S
C1421 C1422 1.375 1_455 S
C1422 H1409 0.928 . S
C1422 C1421 1.375 1_655 S
C1422 C1423 1.388 . S
C1423 H1410 0.930 . S
C1423 C1422 1.388 . S
C1423 C1424 1.390 . S
C1424 C1423 1.390 . S
C1424 C1425 1.394 . S
C1424 C1430 1.465 . S
C1425 C1420 1.399 . S
C1425 C1424 1.394 . S
C1425 C1426 1.516 . S
C1426 C1425 1.516 . S
C1426 C1427 1.502 . S
C1426 C1428 1.561 . S
C1426 C1429 1.526 . S
C1427 H1411 0.959 . S
C1427 H1412 0.959 . S
C1427 H1413 0.961 . S
C1427 C1426 1.502 . S
C1428 H1414 0.960 . S
C1428 H1415 0.961 . S
C1428 H1416 0.959 . S
C1428 C1426 1.561 . S
C1429 C1426 1.526 . S
C1429 C1430 1.396 . S
C1429 C1434 1.390 . S
C1430 C1424 1.465 . S
C1430 C1429 1.396 . S
C1430 C1431 1.399 . S
C1431 H1417 0.929 . S
C1431 C1430 1.399 . S
C1431 C1432 1.385 . S
C1432 H1418 0.931 . S
C1432 C1431 1.385 . S
C1432 C1433 1.389 . S
C1433 C1432 1.389 . S
C1433 C1434 1.387 . S
C1434 H1419 0.930 . S
C1434 C1429 1.390 . S
C1434 C1433 1.387 . S
H1435 C1447 0.930 . S
H1436 C1449 0.930 1_545 S
H1437 C1450 0.930 . S
H1438 C1454 0.959 . S
H1439 C1454 0.959 . S
H1440 C1454 0.961 . S
H1441 C1455 0.960 . S
H1442 C1455 0.961 . S
H1443 C1455 0.959 . S
H1444 C1458 0.929 . S
H1445 C1459 0.931 . S
H1446 C1461 0.930 . S
C1447 H1435 0.930 . S
C1447 C1448 1.392 1_565 S
C1447 C1452 1.399 . S
C1448 C1447 1.392 1_545 S
C1448 C1449 1.374 1_545 S
C1449 H1436 0.930 1_565 S
C1449 C1448 1.374 1_565 S
C1449 C1450 1.388 . S
C1450 H1437 0.930 . S
C1450 C1449 1.388 . S
C1450 C1451 1.390 . S
C1451 C1450 1.390 . S
C1451 C1452 1.394 . S
C1451 C1457 1.465 . S
C1452 C1447 1.399 . S
C1452 C1451 1.394 . S
C1452 C1453 1.516 . S
C1453 C1452 1.516 . S
C1453 C1454 1.502 . S
C1453 C1455 1.561 . S
C1453 C1456 1.526 . S
C1454 H1438 0.959 . S
C1454 H1439 0.959 . S
C1454 H1440 0.961 . S
C1454 C1453 1.502 . S
C1455 H1441 0.960 . S
C1455 H1442 0.961 . S
C1455 H1443 0.959 . S
C1455 C1453 1.561 . S
C1456 C1453 1.526 . S
C1456 C1457 1.396 . S
C1456 C1461 1.390 . S
C1457 C1451 1.465 . S
C1457 C1456 1.396 . S
C1457 C1458 1.399 . S
C1458 H1444 0.929 . S
C1458 C1457 1.399 . S
C1458 C1459 1.385 . S
C1459 H1445 0.931 . S
C1459 C1458 1.385 . S
C1459 C1460 1.389 . S
C1460 C1459 1.389 . S
C1460 C1461 1.387 . S
C1461 H1446 0.930 . S
C1461 C1456 1.390 . S
C1461 C1460 1.387 . S
H1462 C1474 0.930 . S
H1463 C1476 0.930 . S
H1464 C1477 0.930 . S
H1465 C1481 0.959 . S
H1466 C1481 0.959 . S
H1467 C1481 0.961 . S
H1468 C1482 0.960 . S
H1469 C1482 0.961 . S
H1470 C1482 0.959 . S
H1471 C1485 0.929 . S
H1472 C1486 0.931 . S
H1473 C1488 0.930 . S
C1474 H1462 0.930 . S
C1474 C1475 1.399 . S
C1474 C1479 1.399 . S
C1475 C1474 1.399 . S
C1475 C1476 1.376 . S
C1476 H1463 0.930 . S
C1476 C1475 1.376 . S
C1476 C1477 1.388 . S
C1477 H1464 0.930 . S
C1477 C1476 1.388 . S
C1477 C1478 1.390 . S
C1478 C1477 1.390 . S
C1478 C1479 1.394 . S
C1478 C1484 1.465 . S
C1479 C1474 1.399 . S
C1479 C1478 1.394 . S
C1479 C1480 1.516 . S
C1480 C1479 1.516 . S
C1480 C1481 1.502 . S
C1480 C1482 1.561 . S
C1480 C1483 1.526 . S
C1481 H1465 0.959 . S
C1481 H1466 0.959 . S
C1481 H1467 0.961 . S
C1481 C1480 1.502 . S
C1482 H1468 0.960 . S
C1482 H1469 0.961 . S
C1482 H1470 0.959 . S
C1482 C1480 1.561 . S
C1483 C1480 1.526 . S
C1483 C1484 1.396 . S
C1483 C1488 1.390 . S
C1484 C1478 1.465 . S
C1484 C1483 1.396 . S
C1484 C1485 1.399 . S
C1485 H1471 0.929 . S
C1485 C1484 1.399 . S
C1485 C1486 1.385 . S
C1486 H1472 0.931 . S
C1486 C1485 1.385 . S
C1486 C1487 1.389 . S
C1487 C1486 1.389 . S
C1487 C1488 1.387 . S
C1488 H1473 0.930 . S
C1488 C1483 1.390 . S
C1488 C1487 1.387 . S
H1489 C1501 0.930 . S
H1490 C1503 0.930 . S
H1491 C1504 0.930 . S
H1492 C1508 0.959 . S
H1493 C1508 0.959 . S
H1494 C1508 0.961 . S
H1495 C1509 0.960 . S
H1496 C1509 0.961 . S
H1497 C1509 0.959 . S
H1498 C1512 0.929 . S
H1499 C1513 0.931 . S
H1500 C1515 0.930 . S
C1501 H1489 0.930 . S
C1501 C1502 1.399 . S
C1501 C1506 1.399 . S
C1502 C1501 1.399 . S
C1502 C1503 1.376 . S
C1503 H1490 0.930 . S
C1503 C1502 1.376 . S
C1503 C1504 1.388 . S
C1504 H1491 0.930 . S
C1504 C1503 1.388 . S
C1504 C1505 1.390 . S
C1505 C1504 1.390 . S
C1505 C1506 1.394 . S
C1505 C1511 1.465 . S
C1506 C1501 1.399 . S
C1506 C1505 1.394 . S
C1506 C1507 1.516 . S
C1507 C1506 1.516 . S
C1507 C1508 1.502 . S
C1507 C1509 1.561 . S
C1507 C1510 1.526 . S
C1508 H1492 0.959 . S
C1508 H1493 0.959 . S
C1508 H1494 0.961 . S
C1508 C1507 1.502 . S
C1509 H1495 0.960 . S
C1509 H1496 0.961 . S
C1509 H1497 0.959 . S
C1509 C1507 1.561 . S
C1510 C1507 1.526 . S
C1510 C1511 1.396 . S
C1510 C1515 1.390 . S
C1511 C1505 1.465 . S
C1511 C1510 1.396 . S
C1511 C1512 1.399 . S
C1512 H1498 0.929 . S
C1512 C1511 1.399 . S
C1512 C1513 1.385 . S
C1513 H1499 0.931 . S
C1513 C1512 1.385 . S
C1513 C1514 1.389 . S
C1514 C1513 1.389 . S
C1514 C1515 1.387 . S
C1515 H1500 0.930 . S
C1515 C1510 1.390 . S
C1515 C1514 1.387 . S
H1516 C1528 0.930 . S
H1517 C1530 0.930 . S
H1518 C1531 0.929 . S
H1519 C1535 0.959 . S
H1520 C1535 0.959 . S
H1521 C1535 0.961 . S
H1522 C1536 0.960 . S
H1523 C1536 0.961 . S
H1524 C1536 0.959 . S
H1525 C1539 0.929 . S
H1526 C1540 0.931 . S
H1527 C1542 0.930 . S
C1528 H1516 0.930 . S
C1528 C1529 1.399 1_655 S
C1528 C1533 1.399 . S
C1529 C1528 1.399 1_455 S
C1529 C1530 1.376 . S
C1530 H1517 0.930 . S
C1530 C1529 1.376 . S
C1530 C1531 1.388 1_455 S
C1531 H1518 0.929 . S
C1531 C1530 1.388 1_655 S
C1531 C1532 1.390 . S
C1532 C1531 1.390 . S
C1532 C1533 1.394 . S
C1532 C1538 1.465 . S
C1533 C1528 1.399 . S
C1533 C1532 1.394 . S
C1533 C1534 1.516 . S
C1534 C1533 1.516 . S
C1534 C1535 1.502 . S
C1534 C1536 1.561 . S
C1534 C1537 1.526 . S
C1535 H1519 0.959 . S
C1535 H1520 0.959 . S
C1535 H1521 0.961 . S
C1535 C1534 1.502 . S
C1536 H1522 0.960 . S
C1536 H1523 0.961 . S
C1536 H1524 0.959 . S
C1536 C1534 1.561 . S
C1537 C1534 1.526 . S
C1537 C1538 1.396 . S
C1537 C1542 1.390 . S
C1538 C1532 1.465 . S
C1538 C1537 1.396 . S
C1538 C1539 1.399 . S
C1539 H1525 0.929 . S
C1539 C1538 1.399 . S
C1539 C1540 1.385 . S
C1540 H1526 0.931 . S
C1540 C1539 1.385 . S
C1540 C1541 1.389 . S
C1541 C1540 1.389 . S
C1541 C1542 1.387 . S
C1542 H1527 0.930 . S
C1542 C1537 1.390 . S
C1542 C1541 1.387 . S
H1543 C1555 0.930 . S
H1544 C1557 0.930 . S
H1545 C1558 0.930 . S
H1546 C1562 0.959 . S
H1547 C1562 0.959 . S
H1548 C1562 0.961 . S
H1549 C1563 0.960 . S
H1550 C1563 0.961 1_545 S
H1551 C1563 0.959 . S
H1552 C1566 0.929 . S
H1553 C1567 0.931 . S
H1554 C1569 0.930 1_545 S
C1555 H1543 0.930 . S
C1555 C1556 1.399 . S
C1555 C1560 1.399 . S
C1556 C1555 1.399 . S
C1556 C1557 1.376 . S
C1557 H1544 0.930 . S
C1557 C1556 1.376 . S
C1557 C1558 1.388 . S
C1558 H1545 0.930 . S
C1558 C1557 1.388 . S
C1558 C1559 1.390 . S
C1559 C1558 1.390 . S
C1559 C1560 1.394 . S
C1559 C1565 1.465 . S
C1560 C1555 1.399 . S
C1560 C1559 1.394 . S
C1560 C1561 1.516 . S
C1561 C1560 1.516 . S
C1561 C1562 1.502 . S
C1561 C1563 1.561 . S
C1561 C1564 1.526 . S
C1562 H1546 0.959 . S
C1562 H1547 0.959 . S
C1562 H1548 0.961 . S
C1562 C1561 1.502 . S
C1563 H1549 0.960 . S
C1563 H1550 0.961 1_565 S
C1563 H1551 0.959 . S
C1563 C1561 1.561 . S
C1564 C1561 1.526 . S
C1564 C1565 1.396 . S
C1564 C1569 1.390 . S
C1565 C1559 1.465 . S
C1565 C1564 1.396 . S
C1565 C1566 1.399 . S
C1566 H1552 0.929 . S
C1566 C1565 1.399 . S
C1566 C1567 1.385 . S
C1567 H1553 0.931 . S
C1567 C1566 1.385 . S
C1567 C1568 1.381 1_565 S
C1568 C1567 1.381 1_545 S
C1568 C1569 1.384 1_545 S
C1569 H1554 0.930 1_565 S
C1569 C1564 1.390 . S
C1569 C1568 1.384 1_565 S
H1570 C1582 0.930 . S
H1571 C1584 0.930 . S
H1572 C1585 0.930 . S
H1573 C1589 0.959 . S
H1574 C1589 0.959 . S
H1575 C1589 0.961 . S
H1576 C1590 0.960 . S
H1577 C1590 0.961 . S
H1578 C1590 0.959 . S
H1579 C1593 0.929 . S
H1580 C1594 0.931 . S
H1581 C1596 0.930 . S
C1582 H1570 0.930 . S
C1582 C1583 1.399 . S
C1582 C1587 1.399 . S
C1583 C1582 1.399 . S
C1583 C1584 1.376 . S
C1584 H1571 0.930 . S
C1584 C1583 1.376 . S
C1584 C1585 1.388 . S
C1585 H1572 0.930 . S
C1585 C1584 1.388 . S
C1585 C1586 1.390 . S
C1586 C1585 1.390 . S
C1586 C1587 1.394 . S
C1586 C1592 1.465 . S
C1587 C1582 1.399 . S
C1587 C1586 1.394 . S
C1587 C1588 1.516 . S
C1588 C1587 1.516 . S
C1588 C1589 1.502 . S
C1588 C1590 1.561 . S
C1588 C1591 1.526 . S
C1589 H1573 0.959 . S
C1589 H1574 0.959 . S
C1589 H1575 0.961 . S
C1589 C1588 1.502 . S
C1590 H1576 0.960 . S
C1590 H1577 0.961 . S
C1590 H1578 0.959 . S
C1590 C1588 1.561 . S
C1591 C1588 1.526 . S
C1591 C1592 1.396 . S
C1591 C1596 1.390 . S
C1592 C1586 1.465 . S
C1592 C1591 1.396 . S
C1592 C1593 1.399 . S
C1593 H1579 0.929 . S
C1593 C1592 1.399 . S
C1593 C1594 1.385 . S
C1594 H1580 0.931 . S
C1594 C1593 1.385 . S
C1594 C1595 1.389 . S
C1595 C1594 1.389 . S
C1595 C1596 1.387 . S
C1596 H1581 0.930 . S
C1596 C1591 1.390 . S
C1596 C1595 1.387 . S
H1597 C1609 0.930 . S
H1598 C1611 0.930 . S
H1599 C1612 0.930 . S
H1600 C1616 0.959 . S
H1601 C1616 0.959 . S
H1602 C1616 0.961 . S
H1603 C1617 0.960 . S
H1604 C1617 0.961 . S
H1605 C1617 0.959 . S
H1606 C1620 0.929 . S
H1607 C1621 0.931 . S
H1608 C1623 0.930 . S
C1609 H1597 0.930 . S
C1609 C1610 1.399 . S
C1609 C1614 1.399 . S
C1610 C1609 1.399 . S
C1610 C1611 1.376 . S
C1611 H1598 0.930 . S
C1611 C1610 1.376 . S
C1611 C1612 1.388 . S
C1612 H1599 0.930 . S
C1612 C1611 1.388 . S
C1612 C1613 1.390 . S
C1613 C1612 1.390 . S
C1613 C1614 1.394 . S
C1613 C1619 1.465 . S
C1614 C1609 1.399 . S
C1614 C1613 1.394 . S
C1614 C1615 1.516 . S
C1615 C1614 1.516 . S
C1615 C1616 1.502 . S
C1615 C1617 1.561 . S
C1615 C1618 1.526 . S
C1616 H1600 0.959 . S
C1616 H1601 0.959 . S
C1616 H1602 0.961 . S
C1616 C1615 1.502 . S
C1617 H1603 0.960 . S
C1617 H1604 0.961 . S
C1617 H1605 0.959 . S
C1617 C1615 1.561 . S
C1618 C1615 1.526 . S
C1618 C1619 1.396 . S
C1618 C1623 1.390 . S
C1619 C1613 1.465 . S
C1619 C1618 1.396 . S
C1619 C1620 1.399 . S
C1620 H1606 0.929 . S
C1620 C1619 1.399 . S
C1620 C1621 1.385 . S
C1621 H1607 0.931 . S
C1621 C1620 1.385 . S
C1621 C1622 1.389 . S
C1622 C1621 1.389 . S
C1622 C1623 1.387 . S
C1623 H1608 0.930 . S
C1623 C1618 1.390 . S
C1623 C1622 1.387 . S
C557 C33 1.574 . S
C569 C237 1.559 . S
C584 C271 1.557 . S
C596 C67 1.576 . S
C611 C169 1.553 . S
C623 C101 1.576 . S
C638 C203 1.554 . S
C650 C135 1.578 . S
C665 C305 1.575 . S
C677 C509 1.558 . S
C692 C339 1.556 . S
C704 C543 1.577 . S
C719 C373 1.563 . S
C731 C441 1.570 . S
C746 C475 1.577 . S
C758 C407 1.553 . S
C773 C5 1.476 . S
C785 C104 1.448 . S
C800 C39 1.435 . S
C812 C2 1.475 . S
C827 C36 1.470 . S
C839 C73 1.437 . S
C854 C107 1.420 . S
C866 C70 1.482 . S
C881 C172 1.473 . S
C893 C141 1.433 . S
C908 C206 1.448 . S
C920 C175 1.475 . S
C935 C240 1.472 . S
C947 C209 1.435 . S
C962 C138 1.455 . S
C974 C243 1.467 . S
C989 C277 1.474 . S
C1001 C376 1.449 . S
C1016 C274 1.474 . S
C1028 C311 1.432 . S
C1043 C345 1.422 . S
C1055 C308 1.481 . S
C1070 C379 1.476 . S
C1082 C342 1.448 . S
C1097 C413 1.476 . S
C1109 C444 1.448 . S
C1124 C447 1.428 . S
C1136 C478 1.479 . S
C1151 C481 1.420 . S
C1163 C512 1.482 . S
C1178 C410 1.467 . S
C1190 C515 1.442 . S
C1205 C530 1.810 . S
C1217 C20 1.796 . S
C1232 C54 1.800 . S
C1244 C428 1.805 . S
C1259 C462 1.796 . S
C1271 C88 1.800 1_655 S
C1286 C122 1.786 1_565 S
C1298 C496 1.810 . S
C1313 C326 1.796 . S
C1325 C156 1.810 . S
C1340 C190 1.797 . S
C1352 C360 1.810 . S
C1367 C224 1.791 1_655 S
C1379 C394 1.805 . S
C1394 C292 1.808 . S
C1406 C258 1.789 1_565 S
C1421 C145 1.153 . S
C1433 C383 1.214 . S
C1448 C179 1.159 . S
C1460 C281 1.211 . S
C1475 C213 1.199 . S
C1487 C315 1.143 . S
C1502 C349 1.210 . S
C1514 C247 1.148 . S
C1529 C9 1.143 . S
C1541 C451 1.185 . S
C1556 C485 1.212 . S
C1568 C43 1.160 . S
C1583 C77 1.207 . S
C1595 C519 1.146 . S
C1610 C111 1.171 . S
C1622 C417 1.148 . S
