# Generated by pormake.
# Topology snk, (6)-cn, num edge types: 1
# Building blocks:
#     Node 0, Type 0, BuildingBlock: BETDIP_clean_sbu_0, # of connection points: 6
#     Node 1, Type 0, BuildingBlock: BETDIP_clean_sbu_0, # of connection points: 6
#     Node 2, Type 0, BuildingBlock: BETDIP_clean_sbu_0, # of connection points: 6
#     Node 3, Type 0, BuildingBlock: BETDIP_clean_sbu_0, # of connection points: 6
#     Node 4, Type 0, BuildingBlock: BETDIP_clean_sbu_0, # of connection points: 6
#     Node 5, Type 0, BuildingBlock: BETDIP_clean_sbu_0, # of connection points: 6
#     Node 6, Type 0, BuildingBlock: BETDIP_clean_sbu_0, # of connection points: 6
#     Node 7, Type 0, BuildingBlock: BETDIP_clean_sbu_0, # of connection points: 6
#     Edge 8, Type (0, 0), BuildingBlock: TEMPAE_clean_linker_10, # of connection points: 2
#     Edge 9, Type (0, 0), BuildingBlock: TEMPAE_clean_linker_10, # of connection points: 2
#     Edge 10, Type (0, 0), BuildingBlock: TEMPAE_clean_linker_10, # of connection points: 2
#     Edge 11, Type (0, 0), BuildingBlock: TEMPAE_clean_linker_10, # of connection points: 2
#     Edge 12, Type (0, 0), BuildingBlock: TEMPAE_clean_linker_10, # of connection points: 2
#     Edge 13, Type (0, 0), BuildingBlock: TEMPAE_clean_linker_10, # of connection points: 2
#     Edge 14, Type (0, 0), BuildingBlock: TEMPAE_clean_linker_10, # of connection points: 2
#     Edge 15, Type (0, 0), BuildingBlock: TEMPAE_clean_linker_10, # of connection points: 2
#     Edge 16, Type (0, 0), BuildingBlock: TEMPAE_clean_linker_10, # of connection points: 2
#     Edge 17, Type (0, 0), BuildingBlock: TEMPAE_clean_linker_10, # of connection points: 2
#     Edge 18, Type (0, 0), BuildingBlock: TEMPAE_clean_linker_10, # of connection points: 2
#     Edge 19, Type (0, 0), BuildingBlock: TEMPAE_clean_linker_10, # of connection points: 2
#     Edge 20, Type (0, 0), BuildingBlock: TEMPAE_clean_linker_10, # of connection points: 2
#     Edge 21, Type (0, 0), BuildingBlock: TEMPAE_clean_linker_10, # of connection points: 2
#     Edge 22, Type (0, 0), BuildingBlock: TEMPAE_clean_linker_10, # of connection points: 2
#     Edge 23, Type (0, 0), BuildingBlock: TEMPAE_clean_linker_10, # of connection points: 2
#     Edge 24, Type (0, 0), BuildingBlock: TEMPAE_clean_linker_10, # of connection points: 2
#     Edge 25, Type (0, 0), BuildingBlock: TEMPAE_clean_linker_10, # of connection points: 2
#     Edge 26, Type (0, 0), BuildingBlock: TEMPAE_clean_linker_10, # of connection points: 2
#     Edge 27, Type (0, 0), BuildingBlock: TEMPAE_clean_linker_10, # of connection points: 2
#     Edge 28, Type (0, 0), BuildingBlock: TEMPAE_clean_linker_10, # of connection points: 2
#     Edge 29, Type (0, 0), BuildingBlock: TEMPAE_clean_linker_10, # of connection points: 2
#     Edge 30, Type (0, 0), BuildingBlock: TEMPAE_clean_linker_10, # of connection points: 2
#     Edge 31, Type (0, 0), BuildingBlock: TEMPAE_clean_linker_10, # of connection points: 2
# Relax obj value: 0.093
# Max RMSD: 0.159
# Mean RMSD: 0.131
data_MOF--net-snk--node1-BETDIP_clean_sbu_0--edge1-TEMPAE_clean_linker_10
_symmetry_space_group_name_H-M    P1
_symmetry_Int_Tables_number       1
_symmetry_cell_setting            triclinic
loop_
_symmetry_equiv_pos_as_xyz
'x, y, z'
_cell_length_a     37.897443
_cell_length_b     37.911678
_cell_length_c     25.496286
_cell_angle_alpha  96.785056
_cell_angle_beta   96.75644
_cell_angle_gamma 90.801216
loop_
_atom_site_label
_atom_site_type_symbol
_atom_site_fract_x
_atom_site_fract_y
_atom_site_fract_z
_atom_type_partial_charge
Tb0 Tb 0.99424 0.98797 0.46475 0.0
Tb1 Tb 0.02495 0.02281 0.57391 0.0
C2 C 0.96897 0.975 0.36817 0.0
C3 C 0.97777 0.98171 0.31486 0.0
C4 C 0.97714 0.01596 0.29863 0.0
C5 C 0.98368 0.02101 0.24693 0.0
C6 C 0.99108 0.992 0.21034 0.0
C7 C 0.99195 0.9579 0.22694 0.0
C8 C 0.98526 0.95284 0.27838 0.0
C9 C 0.04247 0.95196 0.51734 0.0
C10 C 0.05858 0.04598 0.47767 0.0
C11 C 0.05044 0.0358 0.67039 0.0
C12 C 0.0417 0.02973 0.72393 0.0
C13 C 0.03798 0.99541 0.73884 0.0
C14 C 0.03173 0.99084 0.79086 0.0
C15 C 0.02912 0.02044 0.82913 0.0
C16 C 0.03226 0.05465 0.8136 0.0
C17 C 0.03859 0.05919 0.76183 0.0
C18 C 0.97644 0.05862 0.52152 0.0
C19 C 0.9602 0.96504 0.5607 0.0
O20 O 0.95976 1.00201 0.40022 0.0
O21 O 0.98962 0.95351 0.39337 0.0
O22 O 0.04294 0.98499 0.51568 0.0
O23 O 0.01528 0.93748 0.48635 0.0
O24 O 0.03079 0.02975 0.44735 0.0
O25 O 0.06508 0.04247 0.529 0.0
O26 O 0.05895 0.00835 0.63859 0.0
O27 O 0.03021 0.05755 0.64509 0.0
O28 O 0.97622 0.02563 0.52322 0.0
O29 O 1.00357 0.07326 0.5525 0.0
O30 O 0.98791 0.98131 0.59128 0.0
O31 O 0.95398 0.96843 0.50932 0.0
H32 H 0.97133 0.03882 0.32562 0.0
H33 H 0.9831 0.04768 0.23566 0.0
H34 H 0.99701 0.93489 0.1997 0.0
H35 H 0.98549 0.92612 0.28948 0.0
H36 H 0.04035 0.9721 0.71064 0.0
H37 H 0.02978 0.9641 0.80139 0.0
H38 H 0.02976 0.07808 0.8415 0.0
H39 H 0.0414 0.08592 0.75149 0.0
Tb40 Tb 0.26383 0.74004 0.72248 0.0
Tb41 Tb 0.23941 0.76934 0.83011 0.0
C42 C 0.27174 0.70483 0.6353 0.0
C43 C 0.27263 0.71236 0.57994 0.0
C44 C 0.25193 0.69114 0.53849 0.0
C45 C 0.25229 0.69766 0.4857 0.0
C46 C 0.27352 0.72553 0.47318 0.0
C47 C 0.29414 0.74689 0.51492 0.0
C48 C 0.29363 0.74045 0.56775 0.0
C49 C 0.29447 0.80024 0.76705 0.0
C50 C 0.21184 0.80441 0.72873 0.0
C51 C 0.23378 0.79165 0.92572 0.0
C52 C 0.24419 0.78153 0.97972 0.0
C53 C 0.26961 0.80216 1.01552 0.0
C54 C 0.27638 0.7953 0.06856 0.0
C55 C 0.25749 0.76797 0.08691 0.0
C56 C 0.23298 0.74663 0.05065 0.0
C57 C 0.22642 0.75327 0.99774 0.0
C58 C 0.1953 0.72588 0.76596 0.0
C59 C 0.29291 0.70479 0.8252 0.0
O60 O 0.24084 0.70835 0.6536 0.0
O61 O 0.29839 0.7176 0.67039 0.0
O62 O 0.28499 0.77503 0.79057 0.0
O63 O 0.29134 0.79033 0.71628 0.0
O64 O 0.22132 0.77546 0.69973 0.0
O65 O 0.22105 0.81054 0.78101 0.0
O66 O 0.25883 0.80286 0.89989 0.0
O67 O 0.21025 0.77084 0.8947 0.0
O68 O 0.22842 0.72351 0.77384 0.0
O69 O 0.18527 0.75307 0.79568 0.0
O70 O 0.27312 0.72607 0.85412 0.0
O71 O 0.29316 0.70568 0.7735 0.0
H72 H 0.23531 0.66952 0.547 0.0
H73 H 0.23557 0.6811 0.45474 0.0
H74 H 0.31105 0.76835 0.50674 0.0
H75 H 0.30974 0.75741 0.59897 0.0
H76 H 0.28349 0.82428 1.00291 0.0
H77 H 0.29532 0.81228 0.0957 0.0
H78 H 0.21839 0.72506 0.06347 0.0
H79 H 0.20661 0.7368 0.97145 0.0
Tb80 Tb 0.51869 1.00052 0.05412 0.0
Tb81 Tb 0.49716 0.03247 0.94989 0.0
C82 C 0.54895 0.98362 0.14038 0.0
C83 C 0.54079 0.98335 0.1958 0.0
C84 C 0.55724 0.00884 0.23602 0.0
C85 C 0.55072 0.00867 0.2888 0.0
C86 C 0.52785 0.98273 0.30289 0.0
C87 C 0.51137 0.95718 0.2626 0.0
C88 C 0.51779 0.95744 0.20965 0.0
C89 C 0.46013 0.97381 0.99773 0.0
C90 C 0.45721 0.0554 0.04916 0.0
C91 C 0.47979 0.04568 0.85611 0.0
C92 C 0.4848 0.03311 0.80035 0.0
C93 C 0.46923 1.00114 0.77329 0.0
C94 C 0.47239 0.99182 0.71912 0.0
C95 C 0.49092 0.01444 0.69111 0.0
C96 C 0.50711 0.04588 0.7188 0.0
C97 C 0.50393 0.05514 0.77256 0.0
C98 C 0.53685 0.07336 0.02427 0.0
C99 C 0.55727 0.9743 0.95331 0.0
O100 O 0.55258 0.01497 0.12455 0.0
O101 O 0.53161 0.96075 0.10331 0.0
O102 O 0.48767 0.98371 0.97977 0.0
O103 O 0.46623 0.97499 0.04901 0.0
O104 O 0.48377 0.04267 0.07946 0.0
O105 O 0.45408 0.04986 0.9963 0.0
O106 O 0.45992 0.02641 0.88127 0.0
O107 O 0.50808 0.05942 0.88652 0.0
O108 O 0.53949 0.04034 1.01339 0.0
O109 O 0.51351 0.08516 0.99002 0.0
O110 O 0.53742 0.99537 0.92481 0.0
O111 O 0.5547 0.97265 1.00424 0.0
H112 H 0.5753 0.02897 0.22668 0.0
H113 H 0.56344 0.02912 0.31854 0.0
H114 H 0.49393 0.93658 0.2721 0.0
H115 H 0.50491 0.93719 0.17974 0.0
H116 H 0.45411 0.98368 0.79357 0.0
H117 H 0.4595 0.96748 0.69885 0.0
H118 H 0.52214 0.06356 0.69878 0.0
H119 H 0.51605 0.08001 0.7923 0.0
Tb120 Tb 0.2767 0.2699 0.32259 0.0
Tb121 Tb 0.23803 0.24396 0.21375 0.0
C122 C 0.29355 0.2923 0.41951 0.0
C123 C 0.2853 0.28573 0.47294 0.0
C124 C 0.25036 0.28491 0.48631 0.0
C125 C 0.24405 0.28011 0.53824 0.0
C126 C 0.27254 0.27605 0.57776 0.0
C127 C 0.30733 0.27625 0.56364 0.0
C128 C 0.31358 0.28115 0.51202 0.0
C129 C 0.31016 0.22343 0.26295 0.0
C130 C 0.21671 0.20765 0.30896 0.0
C131 C 0.22277 0.22074 0.11672 0.0
C132 C 0.22942 0.22973 0.06351 0.0
C133 C 0.26319 0.22658 0.04586 0.0
C134 C 0.2681 0.23283 0.99404 0.0
C135 C 0.23941 0.24237 0.95865 0.0
C136 C 0.20581 0.2459 0.97669 0.0
C137 C 0.20088 0.23953 0.02834 0.0
C138 C 0.2046 0.29069 0.27288 0.0
C139 C 0.29797 0.30708 0.228 0.0
O140 O 0.26919 0.30669 0.38845 0.0
O141 O 0.31016 0.26713 0.39352 0.0
O142 O 0.27735 0.22312 0.26687 0.0
O143 O 0.32587 0.24913 0.29575 0.0
O144 O 0.23443 0.23414 0.3402 0.0
O145 O 0.21835 0.20288 0.25697 0.0
O146 O 0.2496 0.20985 0.14737 0.0
O147 O 0.20264 0.24212 0.14347 0.0
O148 O 0.23745 0.29087 0.26913 0.0
O149 O 0.18881 0.26492 0.24016 0.0
O150 O 0.27752 0.2829 0.19581 0.0
O151 O 0.29925 0.30961 0.28042 0.0
H152 H 0.22798 0.28833 0.45693 0.0
H153 H 0.21693 0.28033 0.54768 0.0
H154 H 0.32988 0.27247 0.5925 0.0
H155 H 0.34074 0.28156 0.50267 0.0
H156 H 0.28578 0.21889 0.07177 0.0
H157 H 0.29442 0.23022 0.9817 0.0
H158 H 0.18301 0.25269 0.9504 0.0
H159 H 0.17448 0.24171 0.04054 0.0
Tb160 Tb 0.77058 0.23921 0.21804 0.0
Tb161 Tb 0.75647 0.27751 0.32669 0.0
C162 C 0.76277 0.20823 0.12417 0.0
C163 C 0.75981 0.21849 0.06971 0.0
C164 C 0.74261 0.1953 0.02718 0.0
C165 C 0.74207 0.20316 0.97475 0.0
C166 C 0.75888 0.23436 0.96376 0.0
C167 C 0.77523 0.25805 1.00677 0.0
C168 C 0.7756 0.25026 0.05921 0.0
C169 C 0.81972 0.28585 0.26293 0.0
C170 C 0.72527 0.31074 0.22568 0.0
C171 C 0.76147 0.30793 0.42083 0.0
C172 C 0.76636 0.29773 0.47534 0.0
C173 C 0.7803 0.32286 0.51775 0.0
C174 C 0.78184 0.31509 0.57031 0.0
C175 C 0.76931 0.28199 0.58166 0.0
C176 C 0.75655 0.25636 0.53873 0.0
C177 C 0.75514 0.26414 0.48611 0.0
C178 C 0.70792 0.2307 0.27949 0.0
C179 C 0.80179 0.20617 0.31978 0.0
O180 O 0.73618 0.21599 0.1516 0.0
O181 O 0.79362 0.21484 0.1529 0.0
O182 O 0.7869 0.28818 0.26507 0.0
O183 O 0.82596 0.2585 0.23035 0.0
O184 O 0.73436 0.2816 0.1966 0.0
O185 O 0.736 0.31742 0.27734 0.0
O186 O 0.7885 0.304 0.39327 0.0
O187 O 0.73134 0.2977 0.3922 0.0
O188 O 0.74086 0.22844 0.27997 0.0
O189 O 0.70083 0.25892 0.30975 0.0
O190 O 0.79226 0.23512 0.34877 0.0
O191 O 0.79144 0.19954 0.26794 0.0
H192 H 0.73024 0.17068 0.03442 0.0
H193 H 0.72943 0.18422 0.94268 0.0
H194 H 0.7879 0.28259 0.99985 0.0
H195 H 0.78878 0.26872 0.09147 0.0
H196 H 0.78932 0.34886 0.51029 0.0
H197 H 0.79256 0.33521 0.60213 0.0
H198 H 0.74648 0.23069 0.54577 0.0
H199 H 0.74438 0.24426 0.45393 0.0
Tb200 Tb 0.77399 0.7712 0.81991 0.0
Tb201 Tb 0.73821 0.74195 0.71072 0.0
C202 C 0.78566 0.79703 0.91631 0.0
C203 C 0.78035 0.7872 0.96971 0.0
C204 C 0.74953 0.79704 0.99306 0.0
C205 C 0.74571 0.79013 0.04491 0.0
C206 C 0.77267 0.7734 0.07495 0.0
C207 C 0.80331 0.76324 0.05136 0.0
C208 C 0.80715 0.77016 0.99953 0.0
C209 C 0.80882 0.72235 0.76693 0.0
C210 C 0.71532 0.707 0.80678 0.0
C211 C 0.72493 0.71697 0.61411 0.0
C212 C 0.73289 0.72473 0.56088 0.0
C213 C 0.76645 0.71875 0.5435 0.0
C214 C 0.7723 0.72414 0.49163 0.0
C215 C 0.7447 0.73547 0.45594 0.0
C216 C 0.71142 0.74194 0.47389 0.0
C217 C 0.70557 0.73648 0.52547 0.0
C218 C 0.70344 0.79095 0.76381 0.0
C219 C 0.79754 0.80508 0.72421 0.0
O220 O 0.75722 0.80333 0.88466 0.0
O221 O 0.80906 0.77934 0.89061 0.0
O222 O 0.77574 0.72273 0.76826 0.0
O223 O 0.82405 0.74876 0.79894 0.0
O224 O 0.73501 0.73205 0.83833 0.0
O225 O 0.71499 0.70324 0.75438 0.0
O226 O 0.75073 0.70602 0.64664 0.0
O227 O 0.70474 0.73942 0.63878 0.0
O228 O 0.73651 0.79052 0.76226 0.0
O229 O 0.68832 0.76445 0.732 0.0
O230 O 0.78076 0.77776 0.69347 0.0
O231 O 0.79417 0.81125 0.77558 0.0
H232 H 0.7285 0.81056 0.97155 0.0
H233 H 0.72157 0.79797 0.06149 0.0
H234 H 0.82484 0.75078 0.07348 0.0
H235 H 0.83149 0.76272 0.98322 0.0
H236 H 0.78805 0.70939 0.56957 0.0
H237 H 0.79818 0.71857 0.47909 0.0
H238 H 0.68971 0.75127 0.448 0.0
H239 H 0.67938 0.7411 0.53752 0.0
Tb240 Tb 0.49777 0.48734 0.96876 0.0
Tb241 Tb 0.52209 0.52695 0.07738 0.0
C242 C 0.4752 0.47145 0.8717 0.0
C243 C 0.48333 0.47927 0.81864 0.0
C244 C 0.47895 0.51321 0.80203 0.0
C245 C 0.48475 0.5191 0.75039 0.0
C246 C 0.4951 0.49124 0.71428 0.0
C247 C 0.49983 0.45748 0.7313 0.0
C248 C 0.4939 0.45157 0.78272 0.0
C249 C 0.54466 0.4551 0.02908 0.0
C250 C 0.55945 0.54835 0.98262 0.0
C251 C 0.54517 0.54266 0.17428 0.0
C252 C 0.53716 0.53554 0.22765 0.0
C253 C 0.53766 0.50112 0.24314 0.0
C254 C 0.53222 0.49579 0.29517 0.0
C255 C 0.52623 0.52474 0.33282 0.0
C256 C 0.5251 0.55899 0.3167 0.0
C257 C 0.53062 0.56429 0.2649 0.0
C258 C 0.47526 0.55943 0.01735 0.0
C259 C 0.45992 0.46616 0.06297 0.0
O260 O 0.4623 0.49695 0.90264 0.0
O261 O 0.49843 0.4529 0.89813 0.0
O262 O 0.54434 0.48792 0.02512 0.0
O263 O 0.51948 0.43874 0.99589 0.0
O264 O 0.53596 0.52719 0.9505 0.0
O265 O 0.5615 0.55027 0.03509 0.0
O266 O 0.55726 0.51659 0.14341 0.0
O267 O 0.52232 0.56164 0.14797 0.0
O268 O 0.47557 0.52655 0.02105 0.0
O269 O 0.50032 0.57563 0.05096 0.0
O270 O 0.48336 0.48733 0.09532 0.0
O271 O 0.45815 0.46422 1.01056 0.0
H272 H 0.47072 0.53515 0.82864 0.0
H273 H 0.48119 0.54551 0.73877 0.0
H274 H 0.50728 0.4353 0.70439 0.0
H275 H 0.49707 0.42506 0.79418 0.0
H276 H 0.54277 0.47837 0.21542 0.0
H277 H 0.53359 0.46909 0.30624 0.0
H278 H 0.51994 0.58183 0.34418 0.0
H279 H 0.53016 0.59108 0.25407 0.0
Tb280 Tb 0.025 0.50041 0.56958 0.0
Tb281 Tb 0.98668 0.51522 0.46127 0.0
C282 C 0.05497 0.50358 0.6638 0.0
C283 C 0.04501 0.51001 0.71839 0.0
C284 C 0.07064 0.52383 0.76021 0.0
C285 C 0.06316 0.52634 0.81301 0.0
C286 C 0.02987 0.51491 0.82521 0.0
C287 C 1.00373 0.5024 0.78284 0.0
C288 C 0.0112 0.50005 0.73 0.0
C289 C 0.97915 0.45167 0.52055 0.0
C290 C 0.95376 0.5458 0.56338 0.0
C291 C 0.95572 0.5077 0.36741 0.0
C292 C 0.96613 0.50502 0.31305 0.0
C293 C 0.9428 0.48845 0.27017 0.0
C294 C 0.95087 0.48815 0.21788 0.0
C295 C 0.98241 0.50459 0.20739 0.0
C296 C 1.0062 0.52034 0.25072 0.0
C297 C 0.9982 0.52045 0.30302 0.0
C298 C 0.03287 0.56439 0.50723 0.0
C299 C 0.05859 0.47036 0.46842 0.0
O300 O 0.05392 0.53054 0.63602 0.0
O301 O 0.04212 0.47425 0.63535 0.0
O302 O 0.97602 0.48462 0.52235 0.0
O303 O 1.00804 0.44464 0.5493 0.0
O304 O 0.98282 0.5363 0.59213 0.0
O305 O 0.94701 0.53562 0.51151 0.0
O306 O 0.96352 0.48101 0.39457 0.0
O307 O 0.96222 0.53846 0.39643 0.0
O308 O 0.03537 0.53155 0.50877 0.0
O309 O 1.0059 0.57065 0.47397 0.0
O310 O 0.02945 0.47954 0.43941 0.0
O311 O 0.06515 0.48067 0.52021 0.0
H312 H 0.09682 0.53188 0.75213 0.0
H313 H 0.08369 0.53686 0.84435 0.0
H314 H 0.97788 0.49316 0.79052 0.0
H315 H 0.99092 0.48941 0.69833 0.0
H316 H 0.91793 0.47639 0.27704 0.0
H317 H 0.93184 0.47598 0.18555 0.0
H318 H 0.03098 0.53271 0.24417 0.0
H319 H 0.01675 0.53315 0.33558 0.0
C320 C 0.06873 0.08674 0.41007 0.0
C321 C 0.08242 0.069 0.45301 0.0
C322 C 0.09048 0.1093 0.38668 0.0
C323 C 0.1272 0.11346 0.40546 0.0
C324 C 0.1413 0.09507 0.44825 0.0
C325 C 0.11865 0.07357 0.47207 0.0
C326 C 0.07396 0.12914 0.3424 0.0
C327 C 0.18039 0.09789 0.46862 0.0
C328 C 0.18755 0.14783 0.31119 0.0
C329 C 0.19406 0.1833 0.33339 0.0
C330 C 0.16653 0.12463 0.33483 0.0
C331 C 0.15065 0.13744 0.38084 0.0
C332 C 0.15679 0.17343 0.40289 0.0
C333 C 0.17879 0.19569 0.37943 0.0
C334 C 0.16158 0.08628 0.31081 0.0
C335 C 0.13964 0.18863 0.45084 0.0
H336 H 0.04067 0.08364 0.39546 0.0
H337 H 0.12945 0.05975 0.50498 0.0
H338 H 0.07873 0.15816 0.35353 0.0
H339 H 0.08655 0.1216 0.30572 0.0
H340 H 0.04486 0.12373 0.33328 0.0
H341 H 0.18752 0.08062 0.50035 0.0
H342 H 0.19636 0.09034 0.43544 0.0
H343 H 0.18799 0.12576 0.48475 0.0
H344 H 0.19947 0.138 0.27587 0.0
H345 H 0.18342 0.22316 0.39658 0.0
H346 H 0.13307 0.08014 0.297 0.0
H347 H 0.16997 0.06856 0.34138 0.0
H348 H 0.17702 0.08003 0.27661 0.0
H349 H 0.11031 0.18524 0.44236 0.0
H350 H 0.14642 0.21732 0.46244 0.0
H351 H 0.1482 0.17408 0.4852 0.0
C352 C 0.05814 0.89886 0.56331 0.0
C353 C 0.06736 0.93288 0.55227 0.0
C354 C 0.08167 0.87993 0.59558 0.0
C355 C 0.11548 0.8952 0.61655 0.0
C356 C 0.12467 0.92984 0.60612 0.0
C357 C 0.10037 0.94838 0.57432 0.0
C358 C 0.07059 0.84331 0.60639 0.0
C359 C 0.16056 0.94689 0.62723 0.0
C360 C 0.16771 0.85331 0.72933 0.0
C361 C 0.18901 0.82972 0.70128 0.0
C362 C 0.14396 0.87526 0.70246 0.0
C363 C 0.14192 0.87391 0.64639 0.0
C364 C 0.16424 0.85098 0.6182 0.0
C365 C 0.18727 0.82903 0.64589 0.0
C366 C 0.12026 0.89904 0.73381 0.0
C367 C 0.16329 0.84906 0.55853 0.0
H368 H 0.03244 0.887 0.54671 0.0
H369 H 0.1075 0.97471 0.56574 0.0
H370 H 0.08789 0.8232 0.58808 0.0
H371 H 0.07392 0.84162 0.64984 0.0
H372 H 0.04251 0.83631 0.59034 0.0
H373 H 0.16293 0.97463 0.61777 0.0
H374 H 0.16547 0.94702 0.67101 0.0
H375 H 0.18173 0.93116 0.6098 0.0
H376 H 0.16876 0.85383 0.77209 0.0
H377 H 0.20385 0.81111 0.62391 0.0
H378 H 0.09204 0.89059 0.72157 0.0
H379 H 0.12313 0.92688 0.72524 0.0
H380 H 0.1263 0.89836 0.77738 0.0
H381 H 0.1368 0.8389 0.53896 0.0
H382 H 0.18384 0.83143 0.54299 0.0
H383 H 0.16743 0.87599 0.54697 0.0
C384 C 0.30113 0.85257 0.83532 0.0
C385 C 0.31474 0.83157 0.79404 0.0
C386 C 0.32228 0.87912 0.86744 0.0
C387 C 0.35772 0.88466 0.85739 0.0
C388 C 0.37074 0.86508 0.81321 0.0
C389 C 0.34888 0.83867 0.78173 0.0
C390 C 0.30732 0.89985 0.9137 0.0
C391 C 0.40838 0.8705 0.80119 0.0
C392 C 0.41124 0.96621 0.92362 0.0
C393 C 0.43161 0.95227 0.96517 0.0
C394 C 0.38648 0.94468 0.88842 0.0
C395 C 0.38211 0.90854 0.89569 0.0
C396 C 0.40173 0.89476 0.93915 0.0
C397 C 0.42627 0.91697 0.97366 0.0
C398 C 0.3656 0.96035 0.84301 0.0
C399 C 0.3976 0.85633 0.94821 0.0
H400 H 0.2741 0.84792 0.84293 0.0
H401 H 0.3591 0.82235 0.74935 0.0
H402 H 0.32049 0.89192 0.95156 0.0
H403 H 0.31272 0.92874 0.9143 0.0
H404 H 0.2782 0.89512 0.91229 0.0
H405 H 0.4133 0.8554 0.7628 0.0
H406 H 0.41429 0.89909 0.7998 0.0
H407 H 0.42723 0.86167 0.83343 0.0
H408 H 0.41452 0.99396 0.91889 0.0
H409 H 0.44219 0.90645 1.00615 0.0
H410 H 0.3367 0.95574 0.84369 0.0
H411 H 0.37242 0.94699 0.80455 0.0
H412 H 0.37104 0.98935 0.84452 0.0
H413 H 0.36941 0.84986 0.95182 0.0
H414 H 0.41426 0.85011 0.98463 0.0
H415 H 0.40518 0.83879 0.91356 0.0
C416 C 0.42981 0.07756 0.13083 0.0
C417 C 0.43114 0.07763 0.07606 0.0
C418 C 0.40741 0.10023 0.15829 0.0
C419 C 0.38595 0.1239 0.13053 0.0
C420 C 0.38633 0.12345 0.07494 0.0
C421 C 0.40881 0.10017 0.04827 0.0
C422 C 0.40756 0.09954 0.21745 0.0
C423 C 0.36399 0.14847 0.04403 0.0
C424 C 0.31175 0.16667 0.20221 0.0
C425 C 0.32832 0.19872 0.22645 0.0
C426 C 0.32976 0.1424 0.16948 0.0
C427 C 0.36503 0.15058 0.16067 0.0
C428 C 0.38138 0.18347 0.18386 0.0
C429 C 0.3629 0.20703 0.21671 0.0
C430 C 0.31149 0.10755 0.14576 0.0
C431 C 0.41879 0.19343 0.17509 0.0
H432 H 0.44667 0.06002 0.15263 0.0
H433 H 0.40971 0.10047 1.006 0.0
H434 H 0.41833 0.12527 0.23909 0.0
H435 H 0.38004 0.09605 0.22714 0.0
H436 H 0.42388 0.07789 0.23242 0.0
H437 H 0.36512 0.14293 1.0005 0.0
H438 H 0.33586 0.14655 0.05174 0.0
H439 H 0.37348 0.17626 0.05742 0.0
H440 H 0.28502 0.16018 0.20987 0.0
H441 H 0.37564 0.23196 0.23509 0.0
H442 H 0.32557 0.08534 0.16298 0.0
H443 H 0.31256 0.10336 0.10218 0.0
H444 H 0.28325 0.10627 0.15333 0.0
H445 H 0.43775 0.17492 0.19306 0.0
H446 H 0.42671 0.22099 0.19284 0.0
H447 H 0.42128 0.19095 0.1319 0.0
C448 C 0.89993 0.93743 0.56416 0.0
C449 C 0.93584 0.94237 0.58498 0.0
C450 C 0.87673 0.916 0.58704 0.0
C451 C 0.88994 0.89811 0.63081 0.0
C452 C 0.92633 0.90271 0.65152 0.0
C453 C 0.94865 0.92515 0.6289 0.0
C454 C 0.838 0.9127 0.56459 0.0
C455 C 0.94187 0.88346 0.69707 0.0
C456 C 0.82668 0.86477 0.72168 0.0
C457 C 0.82072 0.8291 0.70014 0.0
C458 C 0.84855 0.88766 0.69897 0.0
C459 C 0.86583 0.87434 0.65459 0.0
C460 C 0.86022 0.83818 0.63316 0.0
C461 C 0.83738 0.81619 0.65566 0.0
C462 C 0.85296 0.92619 0.72224 0.0
C463 C 0.87878 0.82251 0.5869 0.0
H464 H 0.8898 0.95084 0.53045 0.0
H465 H 0.97646 0.92856 0.64488 0.0
H466 H 0.83088 0.88466 0.54881 0.0
H467 H 0.82111 0.92047 0.59655 0.0
H468 H 0.83156 0.92953 0.53211 0.0
H469 H 0.97083 0.88918 0.70771 0.0
H470 H 0.92826 0.89124 0.7327 0.0
H471 H 0.9375 0.85436 0.68639 0.0
H472 H 0.81372 0.87499 0.75583 0.0
H473 H 0.83319 0.78856 0.63911 0.0
H474 H 0.84535 0.94354 0.69085 0.0
H475 H 0.88123 0.93252 0.73752 0.0
H476 H 0.83657 0.93277 0.75526 0.0
H477 H 0.87107 0.83657 0.55172 0.0
H478 H 0.87235 0.79372 0.57579 0.0
H479 H 0.90799 0.82618 0.59706 0.0
C480 C 0.95829 0.11221 0.47849 0.0
C481 C 0.95022 0.07776 0.48888 0.0
C482 C 0.93349 0.1312 0.4484 0.0
C483 C 0.89956 0.11556 0.42916 0.0
C484 C 0.89142 0.08058 0.43921 0.0
C485 C 0.91702 0.06194 0.46862 0.0
C486 C 0.94349 0.16817 0.4377 0.0
C487 C 0.85542 0.06317 0.41999 0.0
C488 C 0.82687 0.1813 0.40231 0.0
C489 C 0.82439 0.18058 0.34686 0.0
C490 C 0.85028 0.15931 0.42931 0.0
C491 C 0.87228 0.13647 0.40031 0.0
C492 C 0.8694 0.13506 0.34419 0.0
C493 C 0.84524 0.15694 0.31806 0.0
C494 C 0.85208 0.16119 0.48908 0.0
C495 C 0.8928 0.11148 0.31196 0.0
H496 H 0.98413 0.12431 0.49375 0.0
H497 H 0.91078 0.03528 0.47676 0.0
H498 H 0.93938 0.17005 0.39432 0.0
H499 H 0.92608 0.18778 0.45687 0.0
H500 H 0.9716 0.17568 0.45288 0.0
H501 H 0.85362 0.0355 0.42994 0.0
H502 H 0.83452 0.07883 0.43828 0.0
H503 H 0.84956 0.06276 0.37626 0.0
H504 H 0.81068 0.19935 0.42484 0.0
H505 H 0.84365 0.15645 0.27526 0.0
H506 H 0.87856 0.17191 0.50787 0.0
H507 H 0.8488 0.13418 0.50082 0.0
H508 H 0.83139 0.17836 0.50523 0.0
H509 H 0.92102 0.12025 0.32314 0.0
H510 H 0.886 0.11202 0.26848 0.0
H511 H 0.89048 0.08364 0.32077 0.0
C512 C 0.69152 0.17355 0.22404 0.0
C513 C 0.68177 0.20734 0.24474 0.0
C514 C 0.66737 0.15132 0.18899 0.0
C515 C 0.63305 0.16364 0.17384 0.0
C516 C 0.62307 0.19779 0.19484 0.0
C517 C 0.64758 0.2192 0.23067 0.0
C518 C 0.67866 0.11484 0.16783 0.0
C519 C 0.58685 0.21193 0.17867 0.0
C520 C 0.58453 0.11961 0.04413 0.0
C521 C 0.56134 0.0962 0.06242 0.0
C522 C 0.60793 0.14212 0.08014 0.0
C523 C 0.60778 0.14089 0.1354 0.0
C524 C 0.5838 0.11764 0.15389 0.0
C525 C 0.56042 0.09583 0.11692 0.0
C526 C 0.63282 0.16708 0.05919 0.0
C527 C 0.58305 0.11556 0.21255 0.0
H528 H 0.71807 0.16453 0.23526 0.0
H529 H 0.64033 0.24555 0.24657 0.0
H530 H 0.65979 0.09427 0.17654 0.0
H531 H 0.67806 0.11276 0.12397 0.0
H532 H 0.70586 0.10885 0.1853 0.0
H533 H 0.58331 0.23904 0.19887 0.0
H534 H 0.58291 0.21277 0.13503 0.0
H535 H 0.56578 0.19395 0.18818 0.0
H536 H 0.58446 0.12012 1.00167 0.0
H537 H 0.541 0.0791 0.1307 0.0
H538 H 0.66082 0.16088 0.07197 0.0
H539 H 0.62875 0.19488 0.07597 0.0
H540 H 0.62886 0.16534 1.01508 0.0
H541 H 0.60908 0.10661 0.23016 0.0
H542 H 0.56188 0.09692 0.2202 0.0
H543 H 0.57871 0.14222 0.23346 0.0
C544 C 0.64779 0.81423 0.79593 0.0
C545 C 0.68418 0.81903 0.79293 0.0
C546 C 0.62859 0.84064 0.82253 0.0
C547 C 0.64616 0.8728 0.84637 0.0
C548 C 0.68299 0.87778 0.84346 0.0
C549 C 0.70162 0.85073 0.81687 0.0
C550 C 0.58947 0.83407 0.82521 0.0
C551 C 0.70262 0.91172 0.86819 0.0
C552 C 0.58606 0.95088 0.87276 0.0
C553 C 0.58216 0.95022 0.92672 0.0
C554 C 0.60775 0.92659 0.84651 0.0
C555 C 0.62585 0.90088 0.87475 0.0
C556 C 0.62279 0.90067 0.9295 0.0
C557 C 0.6011 0.92535 0.95481 0.0
C558 C 0.61053 0.92783 0.78816 0.0
C559 C 0.6415 0.87359 0.96098 0.0
H560 H 0.63428 0.78967 0.77757 0.0
H561 H 0.72975 0.85454 0.81434 0.0
H562 H 0.58422 0.83598 0.86735 0.0
H563 H 0.57374 0.85473 0.8065 0.0
H564 H 0.57985 0.80755 0.8049 0.0
H565 H 0.73115 0.91156 0.86202 0.0
H566 H 0.69018 0.93473 0.8509 0.0
H567 H 0.7007 0.91581 0.91155 0.0
H568 H 0.57171 0.97001 0.85067 0.0
H569 H 0.5984 0.92454 0.9965 0.0
H570 H 0.59867 0.90307 0.76478 0.0
H571 H 0.63885 0.92932 0.78127 0.0
H572 H 0.59673 0.95086 0.7728 0.0
H573 H 0.63089 0.84654 0.94494 0.0
H574 H 0.63808 0.87826 1.0039 0.0
H575 H 0.67034 0.87406 0.95702 0.0
C576 C 0.58707 0.60745 0.97444 0.0
C577 C 0.58388 0.57079 0.95847 0.0
C578 C 0.60821 0.62951 0.94921 0.0
C579 C 0.62786 0.61434 0.90852 0.0
C580 C 0.62542 0.57707 0.89341 0.0
C581 C 0.60282 0.55589 0.91769 0.0
C582 C 0.60881 0.66917 0.96519 0.0
C583 C 0.64685 0.55952 0.85181 0.0
C584 C 0.65901 0.67179 0.80823 0.0
C585 C 0.69349 0.68226 0.83155 0.0
C586 C 0.63722 0.65016 0.83316 0.0
C587 C 0.6507 0.63747 0.88156 0.0
C588 C 0.68594 0.64722 0.90441 0.0
C589 C 0.70659 0.67007 0.87975 0.0
C590 C 0.59945 0.64163 0.80837 0.0
C591 C 0.70194 0.63335 0.95478 0.0
H592 H 0.57199 0.61903 1.00545 0.0
H593 H 0.60037 0.52751 0.90538 0.0
H594 H 0.6362 0.67881 0.98097 0.0
H595 H 0.60054 0.68292 0.92982 0.0
H596 H 0.59095 0.67691 0.99592 0.0
H597 H 0.64382 0.53009 0.84713 0.0
H598 H 0.63842 0.56893 0.81283 0.0
H599 H 0.67544 0.56696 0.86264 0.0
H600 H 0.64865 0.68155 0.77133 0.0
H601 H 0.7333 0.678 0.89779 0.0
H602 H 0.58074 0.65051 0.83733 0.0
H603 H 0.5953 0.6125 0.79816 0.0
H604 H 0.59259 0.65455 0.77174 0.0
H605 H 0.68712 0.64325 0.98829 0.0
H606 H 0.73038 0.64155 0.96556 0.0
H607 H 0.6997 0.60389 0.95 0.0
C608 C 0.68115 0.35928 0.229 0.0
C609 C 0.70208 0.33625 0.19933 0.0
C610 C 0.65633 0.38098 0.20384 0.0
C611 C 0.65284 0.38008 0.14777 0.0
C612 C 0.67497 0.35795 0.11788 0.0
C613 C 0.69904 0.33604 0.14394 0.0
C614 C 0.63278 0.40368 0.23703 0.0
C615 C 0.67256 0.35666 0.05813 0.0
C616 C 0.56508 0.40225 0.07217 0.0
C617 C 0.57175 0.43709 0.06206 0.0
C618 C 0.5909 0.38383 0.10134 0.0
C619 C 0.62451 0.40041 0.11991 0.0
C620 C 0.63121 0.43583 0.11034 0.0
C621 C 0.60456 0.4539 0.08191 0.0
C622 C 0.58236 0.3464 0.11163 0.0
C623 C 0.66683 0.45424 0.12881 0.0
H624 H 0.68314 0.35936 0.27177 0.0
H625 H 0.71529 0.31846 0.12077 0.0
H626 H 0.6341 0.43165 0.22845 0.0
H627 H 0.60474 0.39414 0.22658 0.0
H628 H 0.64026 0.40306 0.28036 0.0
H629 H 0.69361 0.34037 0.04129 0.0
H630 H 0.64628 0.34522 0.03965 0.0
H631 H 0.67476 0.38391 0.04683 0.0
H632 H 0.53957 0.38934 0.05718 0.0
H633 H 0.60976 0.48084 0.07393 0.0
H634 H 0.58731 0.34415 0.15486 0.0
H635 H 0.6 0.32755 0.09142 0.0
H636 H 0.55431 0.33814 0.09726 0.0
H637 H 0.67348 0.45422 0.17235 0.0
H638 H 0.66746 0.48214 0.11957 0.0
H639 H 0.68786 0.43956 0.10935 0.0
C640 C 0.97434 0.39771 0.45495 0.0
C641 C 0.95797 0.42597 0.48207 0.0
C642 C 0.95444 0.37409 0.41579 0.0
C643 C 0.91732 0.37833 0.40551 0.0
C644 C 0.90074 0.4067 0.43349 0.0
C645 C 0.92152 0.43071 0.47083 0.0
C646 C 0.97309 0.34488 0.38524 0.0
C647 C 0.86104 0.41138 0.42461 0.0
C648 C 0.86152 0.33768 0.2797 0.0
C649 C 0.84705 0.30775 0.29725 0.0
C650 C 0.88619 0.36009 0.31383 0.0
C651 C 0.89539 0.35256 0.36674 0.0
C652 C 0.88151 0.32158 0.3838 0.0
C653 C 0.85809 0.29903 0.34815 0.0
C654 C 0.90153 0.39228 0.29391 0.0
C655 C 0.88991 0.31319 0.44033 0.0
H656 H 1.0028 0.39473 0.46332 0.0
H657 H 0.90921 0.45284 0.49201 0.0
H658 H 0.96351 0.31858 0.39361 0.0
H659 H 0.96677 0.34593 0.34184 0.0
H660 H 1.00243 0.34682 0.39559 0.0
H661 H 0.85232 0.43433 0.45079 0.0
H662 H 0.85277 0.41547 0.38262 0.0
H663 H 0.84691 0.38699 0.4322 0.0
H664 H 0.85317 0.34377 0.23968 0.0
H665 H 0.84756 0.27514 0.36069 0.0
H666 H 0.93086 0.39375 0.30379 0.0
H667 H 0.89095 0.4168 0.31389 0.0
H668 H 0.89495 0.39198 0.25023 0.0
H669 H 0.91906 0.31238 0.45119 0.0
H670 H 0.87773 0.2874 0.4465 0.0
H671 H 0.87985 0.33448 0.468 0.0
C672 C 0.81114 0.66301 0.71329 0.0
C673 C 0.8276 0.69581 0.73417 0.0
C674 C 0.82936 0.63713 0.68369 0.0
C675 C 0.86461 0.64458 0.67405 0.0
C676 C 0.88093 0.67811 0.69396 0.0
C677 C 0.86233 0.70319 0.72425 0.0
C678 C 0.81123 0.60156 0.6638 0.0
C679 C 0.91819 0.68739 0.68369 0.0
C680 C 0.92892 0.57066 0.6461 0.0
C681 C 0.92836 0.56855 0.59071 0.0
C682 C 0.90729 0.59434 0.67341 0.0
C683 C 0.88503 0.61701 0.64481 0.0
C684 C 0.88377 0.61449 0.58872 0.0
C685 C 0.90524 0.59005 0.56227 0.0
C686 C 0.90897 0.5957 0.7331 0.0
C687 C 0.86083 0.63862 0.55692 0.0
H688 H 0.78426 0.6573 0.7211 0.0
H689 H 0.87494 0.72871 0.73999 0.0
H690 H 0.81084 0.59599 0.62004 0.0
H691 H 0.82637 0.58021 0.6817 0.0
H692 H 0.78348 0.60026 0.67363 0.0
H693 H 0.9263 0.71527 0.69943 0.0
H694 H 0.93731 0.66941 0.70258 0.0
H695 H 0.9202 0.68353 0.64033 0.0
H696 H 0.94657 0.55399 0.66833 0.0
H697 H 0.90491 0.58877 0.51952 0.0
H698 H 0.88184 0.59292 0.74466 0.0
H699 H 0.92023 0.62185 0.75242 0.0
H700 H 0.9256 0.57452 0.74888 0.0
H701 H 0.83291 0.63686 0.56561 0.0
H702 H 0.86136 0.63205 0.51339 0.0
H703 H 0.87023 0.66661 0.56859 0.0
C704 C 0.35627 0.3383 0.22612 0.0
C705 C 0.32077 0.33153 0.2044 0.0
C706 C 0.37891 0.36 0.20276 0.0
C707 C 0.36533 0.37659 0.15785 0.0
C708 C 0.32915 0.37046 0.13662 0.0
C709 C 0.30755 0.34738 0.15941 0.0
C710 C 0.41756 0.3645 0.22545 0.0
C711 C 0.31317 0.38853 0.09008 0.0
C712 C 0.41845 0.45751 0.13038 0.0
C713 C 0.4351 0.44368 0.08646 0.0
C714 C 0.39491 0.4363 0.15302 0.0
C715 C 0.38911 0.39993 0.13277 0.0
C716 C 0.40649 0.38574 0.08896 0.0
C717 C 0.42865 0.40797 0.06567 0.0
C718 C 0.37603 0.45292 0.19833 0.0
C719 C 0.40235 0.34687 0.06742 0.0
H720 H 0.36667 0.32565 0.26047 0.0
H721 H 0.28005 0.34225 0.14267 0.0
H722 H 0.43467 0.35625 0.19395 0.0
H723 H 0.42412 0.39285 0.23974 0.0
H724 H 0.42429 0.34864 0.25904 0.0
H725 H 0.28415 0.38281 0.08048 0.0
H726 H 0.31773 0.41773 0.09892 0.0
H727 H 0.32629 0.37965 0.05436 0.0
H728 H 0.4233 0.48517 0.14638 0.0
H729 H 0.44188 0.39711 0.03212 0.0
H730 H 0.38445 0.44046 0.23483 0.0
H731 H 0.3469 0.44812 0.18868 0.0
H732 H 0.38153 0.48202 0.20705 0.0
H733 H 0.41019 0.3303 0.09974 0.0
H734 H 0.41873 0.33969 0.03457 0.0
H735 H 0.37412 0.34007 0.05247 0.0
C736 C 0.41568 0.56036 0.96321 0.0
C737 C 0.44749 0.57793 0.98639 0.0
C738 C 0.38861 0.5787 0.93611 0.0
C739 C 0.39374 0.61531 0.93182 0.0
C740 C 0.42614 0.63291 0.95446 0.0
C741 C 0.45252 0.61404 0.98165 0.0
C742 C 0.3544 0.55908 0.91269 0.0
C743 C 0.43293 0.67177 0.95017 0.0
C744 C 0.34066 0.65972 0.82328 0.0
C745 C 0.31656 0.67958 0.85176 0.0
C746 C 0.36516 0.63783 0.84848 0.0
C747 C 0.3655 0.63547 0.90351 0.0
C748 C 0.34046 0.65442 0.93215 0.0
C749 C 0.31639 0.67634 0.906 0.0
C750 C 0.39158 0.61828 0.8166 0.0
C751 C 0.33981 0.65239 0.99081 0.0
H752 H 0.4117 0.53246 0.9671 0.0
H753 H 0.4772 0.62763 0.99934 0.0
H754 H 0.33174 0.57168 0.93079 0.0
H755 H 0.3496 0.56079 0.86931 0.0
H756 H 0.35467 0.53061 0.91916 0.0
H757 H 0.45979 0.68132 0.96918 0.0
H758 H 0.43031 0.67636 0.90773 0.0
H759 H 0.4128 0.68803 0.96935 0.0
H760 H 0.34112 0.66193 0.78137 0.0
H761 H 0.29782 0.6914 0.92838 0.0
H762 H 0.39101 0.58963 0.82164 0.0
H763 H 0.41885 0.62883 0.83141 0.0
H764 H 0.3863 0.621 0.77349 0.0
H765 H 0.33827 0.62424 0.99852 0.0
H766 H 0.31704 0.66655 1.00641 0.0
H767 H 0.3648 0.66432 1.01337 0.0
C768 C 0.18028 0.66946 0.70825 0.0
C769 C 0.17244 0.70484 0.72325 0.0
C770 C 0.15766 0.64832 0.66934 0.0
C771 C 0.1273 0.66352 0.64402 0.0
C772 C 0.12036 0.69986 0.65724 0.0
C773 C 0.14279 0.72003 0.69764 0.0
C774 C 0.16537 0.60942 0.6571 0.0
C775 C 0.08888 0.71716 0.6297 0.0
C776 C 0.08293 0.60831 0.51989 0.0
C777 C 0.05545 0.59164 0.54053 0.0
C778 C 0.10589 0.63318 0.55272 0.0
C779 C 0.1013 0.64052 0.60722 0.0
C780 C 0.07274 0.62437 0.6275 0.0
C781 C 0.04959 0.60068 0.59333 0.0
C782 C 0.1354 0.65093 0.52958 0.0
C783 C 0.06738 0.63099 0.68562 0.0
H784 H 0.20344 0.65804 0.7283 0.0
H785 H 0.13731 0.74771 0.70895 0.0
H786 H 0.14343 0.59295 0.66772 0.0
H787 H 0.16677 0.6026 0.6139 0.0
H788 H 0.19071 0.60212 0.67923 0.0
H789 H 0.09004 0.74654 0.63957 0.0
H790 H 0.08754 0.71063 0.58591 0.0
H791 H 0.06395 0.70678 0.6418 0.0
H792 H 0.08672 0.60152 0.47844 0.0
H793 H 0.0273 0.58872 0.60824 0.0
H794 H 0.16152 0.64192 0.54671 0.0
H795 H 0.13513 0.68017 0.54009 0.0
H796 H 0.13317 0.64488 0.48558 0.0
H797 H 0.09124 0.62292 0.71047 0.0
H798 H 0.04384 0.61609 0.69476 0.0
H799 H 0.06397 0.65973 0.69738 0.0
C800 C 0.15123 0.3106 0.31516 0.0
C801 C 0.18608 0.31761 0.30538 0.0
C802 C 0.13241 0.33628 0.34398 0.0
C803 C 0.14864 0.37004 0.36255 0.0
C804 C 0.18406 0.37708 0.35329 0.0
C805 C 0.20252 0.3506 0.3252 0.0
C806 C 0.09498 0.32739 0.354 0.0
C807 C 0.2021 0.41287 0.37181 0.0
C808 C 0.08384 0.44418 0.38656 0.0
C809 C 0.08411 0.44725 0.44196 0.0
C810 C 0.10579 0.42016 0.36047 0.0
C811 C 0.12801 0.39812 0.39035 0.0
C812 C 0.12891 0.40159 0.44641 0.0
C813 C 0.10718 0.42635 0.47159 0.0
C814 C 0.1045 0.41774 0.30072 0.0
C815 C 0.15172 0.37812 0.47958 0.0
H816 H 0.13862 0.28495 0.30021 0.0
H817 H 0.22947 0.35604 0.31749 0.0
H818 H 0.09259 0.33222 0.3972 0.0
H819 H 0.07602 0.34493 0.3338 0.0
H820 H 0.08696 0.29931 0.33946 0.0
H821 H 0.22999 0.41383 0.36254 0.0
H822 H 0.18715 0.43376 0.35242 0.0
H823 H 0.20205 0.41944 0.41536 0.0
H824 H 0.0662 0.46037 0.36343 0.0
H825 H 0.10727 0.42832 0.51437 0.0
H826 H 0.09328 0.39138 0.28225 0.0
H827 H 0.13175 0.42018 0.28943 0.0
H828 H 0.08802 0.43865 0.28386 0.0
H829 H 0.14245 0.35002 0.46885 0.0
H830 H 0.15089 0.38542 0.52291 0.0
H831 H 0.17973 0.37975 0.47126 0.0
C832 C 0.04162 0.03859 0.92798 0.0
C833 C 0.02371 0.01593 0.88522 0.0
C834 C 0.03653 0.03518 0.98093 0.0
C835 C 0.01306 0.00832 0.99181 0.0
C836 C 0.99505 0.98517 0.94897 0.0
C837 C 1.00056 0.98925 0.89631 0.0
C838 C 0.05637 0.06036 0.0253 0.0
C839 C 0.96981 0.95616 0.95876 0.0
C840 C 0.02411 0.97854 0.13049 0.0
C841 C 0.99724 0.99694 0.15478 0.0
C842 C 0.02954 0.982 0.07767 0.0
C843 C 1.00754 1.00436 0.04805 0.0
C844 C 0.98049 0.02317 0.07237 0.0
C845 C 0.97573 0.01931 0.12536 0.0
C846 C 0.05886 0.96169 0.05353 0.0
C847 C 0.95638 0.04722 0.04226 0.0
H848 H 0.06006 0.05888 0.92013 0.0
H849 H 0.98626 0.97184 0.86372 0.0
H850 H 0.03726 0.07497 0.04897 0.0
H851 H 0.07331 0.04517 0.05266 0.0
H852 H 0.07347 0.07999 1.01024 0.0
H853 H 0.958 0.94024 0.92126 0.0
H854 H 0.98397 0.93806 0.98472 0.0
H855 H 0.94801 0.96793 0.97991 0.0
H856 H 0.04118 0.96156 0.15303 0.0
H857 H 0.95462 0.03329 0.14345 0.0
H858 H 0.07794 0.98044 0.04072 0.0
H859 H 0.04759 0.94391 0.01757 0.0
H860 H 0.07363 0.94537 0.08176 0.0
H861 H 0.9724 0.06829 0.02856 0.0
H862 H 0.93667 0.06004 0.06679 0.0
H863 H 0.94188 0.03178 1.0063 0.0
C864 C 0.27372 0.70397 0.37613 0.0
C865 C 0.27393 0.73238 0.41685 0.0
C866 C 0.27287 0.70994 0.32268 0.0
C867 C 0.27237 0.74519 0.30947 0.0
C868 C 0.27333 0.77401 0.35041 0.0
C869 C 0.27402 0.76727 0.40354 0.0
C870 C 0.27189 0.67848 0.28021 0.0
C871 C 0.27278 0.81198 0.33797 0.0
C872 C 0.29557 0.76175 0.17282 0.0
C873 C 0.26174 0.76269 0.14414 0.0
C874 C 0.29952 0.75614 0.22675 0.0
C875 C 0.26891 0.75177 0.25262 0.0
C876 C 0.23473 0.75324 0.22397 0.0
C877 C 0.23158 0.75856 0.17012 0.0
C878 C 0.3364 0.75451 0.25589 0.0
C879 C 0.20141 0.74908 0.25015 0.0
H880 H 0.27428 0.67695 0.38606 0.0
H881 H 0.27375 0.78939 0.43456 0.0
H882 H 0.24669 0.67799 0.2531 0.0
H883 H 0.29399 0.68087 0.25581 0.0
H884 H 0.27392 0.65281 0.29721 0.0
H885 H 0.27567 0.83142 0.3745 0.0
H886 H 0.29453 0.81708 0.31406 0.0
H887 H 0.24736 0.81665 0.31375 0.0
H888 H 0.31893 0.76475 0.1528 0.0
H889 H 0.20537 0.75986 0.14834 0.0
H890 H 0.34005 0.7282 0.27044 0.0
H891 H 0.33992 0.77487 0.29125 0.0
H892 H 0.35746 0.75888 0.2303 0.0
H893 H 0.2007 0.72276 0.26498 0.0
H894 H 0.17685 0.75148 0.22253 0.0
H895 H 0.20141 0.76957 0.28503 0.0
C896 C 0.50016 0.97183 0.61055 0.0
C897 C 0.49292 1.00618 0.63296 0.0
C898 C 0.50438 0.9647 0.55623 0.0
C899 C 0.50131 0.9926 0.52367 0.0
C900 C 0.49293 0.02703 0.5458 0.0
C901 C 0.48873 0.03334 0.59998 0.0
C902 C 0.51308 0.9276 0.53401 0.0
C903 C 0.48931 0.05752 0.51254 0.0
C904 C 0.5493 0.99015 0.40069 0.0
C905 C 0.52133 0.98257 0.35942 0.0
C906 C 0.54331 0.99233 0.45425 0.0
C907 C 0.50852 0.98655 0.4671 0.0
C908 C 0.48037 0.97761 0.42575 0.0
C909 C 0.48707 0.97584 0.37242 0.0
C910 C 0.57408 1.00194 0.49712 0.0
C911 C 0.44293 0.97109 0.4378 0.0
H912 H 0.50358 0.95075 0.6358 0.0
H913 H 0.48237 0.05978 0.61671 0.0
H914 H 0.49427 0.9183 0.49816 0.0
H915 H 0.54014 0.92767 0.5215 0.0
H916 H 0.51201 0.90835 0.56347 0.0
H917 H 0.48145 0.08238 0.53534 0.0
H918 H 0.51496 0.06267 0.49746 0.0
H919 H 0.46918 0.05059 0.47743 0.0
H920 H 0.57598 0.99464 0.39111 0.0
H921 H 0.46522 0.97024 0.34092 0.0
H922 H 0.57614 0.98194 0.52568 0.0
H923 H 0.56947 0.02795 0.51982 0.0
H924 H 0.59982 1.00372 0.48062 0.0
H925 H 0.44269 0.95142 0.4667 0.0
H926 H 0.42471 0.96128 0.40147 0.0
H927 H 0.43249 0.99614 0.45637 0.0
C928 C 0.26484 0.22473 0.87273 0.0
C929 C 0.24419 0.24788 0.9028 0.0
C930 C 0.26888 0.22911 0.8197 0.0
C931 C 0.25194 0.25738 0.79595 0.0
C932 C 0.23114 0.28089 0.8261 0.0
C933 C 0.22751 0.27586 0.87902 0.0
C934 C 0.29126 0.20341 0.78902 0.0
C935 C 0.21281 0.31149 0.8025 0.0
C936 C 0.28957 0.28877 0.67673 0.0
C937 C 0.26639 0.27196 0.63366 0.0
C938 C 0.2851 0.28433 0.72953 0.0
C939 C 0.25656 0.26274 0.73993 0.0
C940 C 0.23271 0.24611 0.6968 0.0
C941 C 0.23792 0.25088 0.64427 0.0
C942 C 0.31111 0.30263 0.77422 0.0
C943 C 0.20189 0.22294 0.70614 0.0
H944 H 0.27742 0.20274 0.8904 0.0
H945 H 0.21186 0.29415 0.90205 0.0
H946 H 0.27503 0.19013 0.75284 0.0
H947 H 0.31349 0.21801 0.77565 0.0
H948 H 0.3025 0.18271 0.81305 0.0
H949 H 0.1972 0.3271 0.83089 0.0
H950 H 0.23279 0.32952 0.79022 0.0
H951 H 0.19468 0.3014 0.76628 0.0
H952 H 0.31126 0.30567 0.66921 0.0
H953 H 0.22005 0.23748 0.61142 0.0
H954 H 0.32446 0.28259 0.79747 0.0
H955 H 0.29678 0.32033 0.80188 0.0
H956 H 0.33178 0.31868 0.75953 0.0
H957 H 0.21194 0.20014 0.72652 0.0
H958 H 0.18528 0.21251 0.66851 0.0
H959 H 0.18483 0.23824 0.73263 0.0
C960 C 0.73032 0.23521 0.86951 0.0
C961 C 0.76028 0.24162 0.90768 0.0
C962 C 0.73156 0.24141 0.81639 0.0
C963 C 0.76358 0.2542 0.80078 0.0
C964 C 0.79392 0.26066 0.83908 0.0
C965 C 0.79189 0.25438 0.89194 0.0
C966 C 0.69852 0.23439 0.77698 0.0
C967 C 0.82862 0.27413 0.82416 0.0
C968 C 0.77652 0.24123 0.65351 0.0
C969 C 0.76838 0.2748 0.63798 0.0
C970 C 0.77503 0.23413 0.7062 0.0
C971 C 0.76524 0.26124 0.74456 0.0
C972 C 0.75709 0.29518 0.72923 0.0
C973 C 0.75867 0.3015 0.67629 0.0
C974 C 0.78397 0.19759 0.72085 0.0
C975 C 0.7465 0.32484 0.76874 0.0
H976 H 0.70569 0.22571 0.88134 0.0
H977 H 0.81534 0.25889 0.92087 0.0
H978 H 0.69067 0.25919 0.76011 0.0
H979 H 0.70398 0.21466 0.74338 0.0
H980 H 0.6758 0.22428 0.79528 0.0
H981 H 0.84983 0.27766 0.8585 0.0
H982 H 0.83779 0.25526 0.79223 0.0
H983 H 0.82478 0.29998 0.80823 0.0
H984 H 0.78444 0.22051 0.62455 0.0
H985 H 0.75167 0.32734 0.6647 0.0
H986 H 0.76105 0.18574 0.73659 0.0
H987 H 0.80668 0.19954 0.75285 0.0
H988 H 0.79093 0.17936 0.68641 0.0
H989 H 0.72223 0.31674 0.78525 0.0
H990 H 0.74124 0.3498 0.75066 0.0
H991 H 0.76786 0.33033 0.80257 0.0
C992 C 0.78177 0.7553 0.38814 0.0
C993 C 0.75012 0.73998 0.39992 0.0
C994 C 0.78658 0.76042 0.3356 0.0
C995 C 0.75909 0.75006 0.29368 0.0
C996 C 0.72728 0.73423 0.30521 0.0
C997 C 0.72325 0.7293 0.35797 0.0
C998 C 0.82093 0.77734 0.32503 0.0
C999 C 0.69732 0.72271 0.2618 0.0
C1000 C 0.75517 0.79353 0.16577 0.0
C1001 C 0.76926 0.76734 0.13105 0.0
C1002 C 0.75201 0.78837 0.21876 0.0
C1003 C 0.76324 0.75624 0.23783 0.0
C1004 C 0.77763 0.72975 0.20313 0.0
C1005 C 0.78045 0.7356 0.15027 0.0
C1006 C 0.73653 0.81732 0.25436 0.0
C1007 C 0.78982 0.69508 0.22175 0.0
H1008 H 0.80257 0.76396 0.42018 0.0
H1009 H 0.69897 0.7168 0.36633 0.0
H1010 H 0.83358 0.75961 0.29528 0.0
H1011 H 0.81544 0.80258 0.30798 0.0
H1012 H 0.84008 0.78304 0.36167 0.0
H1013 H 0.67443 0.71049 0.27723 0.0
H1014 H 0.68789 0.74593 0.24191 0.0
H1015 H 0.70692 0.70322 0.23105 0.0
H1016 H 0.74699 0.81838 0.15169 0.0
H1017 H 0.79099 0.71502 0.12371 0.0
H1018 H 0.75587 0.82589 0.28988 0.0
H1019 H 0.71234 0.807 0.26874 0.0
H1020 H 0.72939 0.8409 0.2337 0.0
H1021 H 0.8102 0.70027 0.25692 0.0
H1022 H 0.80118 0.67753 0.1903 0.0
H1023 H 0.76712 0.68073 0.2343 0.0
C1024 C 0.47602 0.51681 0.62899 0.0
C1025 C 0.50023 0.49697 0.65868 0.0
C1026 C 0.47988 0.52135 0.57596 0.0
C1027 C 0.50871 0.5058 0.55191 0.0
C1028 C 0.5334 0.48599 0.58179 0.0
C1029 C 0.52885 0.4818 0.63468 0.0
C1030 C 0.45292 0.5426 0.54551 0.0
C1031 C 0.56465 0.46919 0.55787 0.0
C1032 C 0.50194 0.49049 0.40036 0.0
C1033 C 0.52185 0.51956 0.38895 0.0
C1034 C 0.49747 0.48566 0.4531 0.0
C1035 C 0.51323 0.51048 0.49564 0.0
C1036 C 0.53344 0.53978 0.48443 0.0
C1037 C 0.53756 0.5439 0.4314 0.0
C1038 C 0.47572 0.45406 0.46331 0.0
C1039 C 0.5508 0.5668 0.52852 0.0
H1040 H 0.45358 0.52823 0.6469 0.0
H1041 H 0.54794 0.46681 0.65747 0.0
H1042 H 0.46639 0.56529 0.53152 0.0
H1043 H 0.43988 0.52578 0.50973 0.0
H1044 H 0.43209 0.55307 0.56992 0.0
H1045 H 0.58144 0.45459 0.58633 0.0
H1046 H 0.5551 0.45042 0.5221 0.0
H1047 H 0.58142 0.48994 0.5448 0.0
H1048 H 0.48936 0.47175 0.36794 0.0
H1049 H 0.55352 0.5661 0.42322 0.0
H1050 H 0.4529 0.46323 0.48438 0.0
H1051 H 0.49211 0.43762 0.48948 0.0
H1052 H 0.46538 0.43707 0.42598 0.0
H1053 H 0.53037 0.5791 0.55207 0.0
H1054 H 0.56549 0.58819 0.51318 0.0
H1055 H 0.56962 0.55353 0.55606 0.0
C1056 C 0.9897 0.52344 0.89779 0.0
C1057 C 0.02302 0.51461 0.88181 0.0
C1058 C 0.98277 0.52214 0.9506 0.0
C1059 C 0.00981 0.51187 0.98864 0.0
C1060 C 0.04356 0.50321 0.97293 0.0
C1061 C 0.0497 0.50458 0.91986 0.0
C1062 C 0.94644 0.53164 0.96566 0.0
C1063 C 0.07315 0.49215 1.01212 0.0
C1064 C 1.00321 0.53777 0.13631 0.0
C1065 C 0.98993 0.50622 0.15147 0.0
C1066 C 0.00965 0.54003 0.08355 0.0
C1067 C 1.0028 0.50997 0.04481 0.0
C1068 C 0.98954 0.47799 0.05988 0.0
C1069 C 0.9832 0.47653 0.11289 0.0
C1070 C 0.02364 0.57467 0.06921 0.0
C1071 C 0.9821 0.44525 0.01999 0.0
H1072 H 0.96901 0.53165 0.86905 0.0
H1073 H 0.07534 0.49706 0.90796 0.0
H1074 H 0.93418 0.50876 0.98094 0.0
H1075 H 0.94883 0.55409 0.9981 0.0
H1076 H 0.92832 0.5392 0.93154 0.0
H1077 H 0.09807 0.48685 0.99389 0.0
H1078 H 0.07882 0.51324 0.04628 0.0
H1079 H 0.06487 0.46779 0.02817 0.0
H1080 H 1.00801 0.56102 0.16558 0.0
H1081 H 0.9733 0.45193 0.12429 0.0
H1082 H 1.00488 0.58436 0.03763 0.0
H1083 H 0.04939 0.57055 0.05303 0.0
H1084 H 0.02756 0.59561 0.10389 0.0
H1085 H 0.9624 0.45113 0.98663 0.0
H1086 H 0.97175 0.42249 0.03794 0.0
H1087 H 1.00679 0.43723 1.00286 0.0
loop_
_geom_bond_atom_site_label_1
_geom_bond_atom_site_label_2
_geom_bond_distance
_geom_bond_site_symmetry_2
_ccdc_geom_bond_type
Tb0 C2 2.809 1_655 S
Tb0 O20 2.484 . S
Tb0 O21 2.440 1_655 S
Tb0 O22 2.658 1_655 S
Tb0 O23 2.409 1_655 S
Tb0 O24 2.378 1_665 S
Tb0 O28 2.325 1_565 S
Tb0 O31 2.341 . S
Tb1 C11 2.809 1_455 S
Tb1 O22 2.325 1_545 S
Tb1 O25 2.341 . S
Tb1 O26 2.484 . S
Tb1 O27 2.440 1_455 S
Tb1 O28 2.658 1_455 S
Tb1 O29 2.409 1_455 S
Tb1 O30 2.378 1_445 S
C2 Tb0 2.809 1_455 S
C2 C3 1.514 . S
C2 O20 1.248 1_455 S
C2 O21 1.266 . S
C3 C2 1.514 . S
C3 C4 1.350 1_465 S
C3 C8 1.348 . S
C4 C3 1.350 1_645 S
C4 C5 1.370 1_655 S
C4 H32 0.949 . S
C5 C4 1.370 1_455 S
C5 C6 1.347 1_545 S
C5 H33 0.931 1_455 S
C6 C5 1.347 1_565 S
C6 C7 1.369 . S
C7 C6 1.369 . S
C7 C8 1.408 . S
C7 H34 0.930 . S
C8 C3 1.348 . S
C8 C7 1.408 . S
C8 H35 0.930 . S
C9 O22 1.281 . S
C9 O23 1.254 . S
C10 O24 1.236 . S
C10 O25 1.266 . S
C11 Tb1 2.809 1_655 S
C11 C12 1.514 . S
C11 O26 1.248 1_655 S
C11 O27 1.266 . S
C12 C11 1.514 . S
C12 C13 1.359 1_645 S
C12 C17 1.348 . S
C13 C12 1.359 1_465 S
C13 C14 1.380 1_455 S
C13 H36 0.929 . S
C14 C13 1.380 1_655 S
C14 C15 1.347 1_565 S
C14 H37 0.931 1_655 S
C15 C14 1.347 1_545 S
C15 C16 1.369 . S
C16 C15 1.369 . S
C16 C17 1.408 . S
C16 H38 0.930 . S
C17 C12 1.348 . S
C17 C16 1.408 . S
C17 H39 0.930 . S
C18 O28 1.281 . S
C18 O29 1.254 . S
C19 O30 1.236 . S
C19 O31 1.266 . S
O20 Tb0 2.484 . S
O20 C2 1.248 1_655 S
O21 Tb0 2.440 1_455 S
O21 C2 1.266 . S
O22 Tb0 2.658 1_455 S
O22 Tb1 2.325 1_565 S
O22 C9 1.281 . S
O23 Tb0 2.409 1_455 S
O23 C9 1.254 . S
O24 Tb0 2.378 1_445 S
O24 C10 1.236 . S
O25 Tb1 2.341 . S
O25 C10 1.266 . S
O26 Tb1 2.484 . S
O26 C11 1.248 1_455 S
O27 Tb1 2.440 1_655 S
O27 C11 1.266 . S
O28 Tb0 2.325 1_545 S
O28 Tb1 2.658 1_655 S
O28 C18 1.281 . S
O29 Tb1 2.409 1_655 S
O29 C18 1.254 . S
O30 Tb1 2.378 1_665 S
O30 C19 1.236 . S
O31 Tb0 2.341 . S
O31 C19 1.266 . S
H32 C4 0.949 . S
H33 C5 0.931 1_655 S
H34 C7 0.930 . S
H35 C8 0.930 . S
H36 C13 0.929 . S
H37 C14 0.931 1_455 S
H38 C16 0.930 . S
H39 C17 0.930 . S
Tb40 C42 2.809 . S
Tb40 O60 2.484 . S
Tb40 O61 2.440 . S
Tb40 O62 2.658 . S
Tb40 O63 2.409 . S
Tb40 O64 2.378 . S
Tb40 O68 2.325 . S
Tb40 O71 2.341 . S
Tb41 C51 2.809 . S
Tb41 O62 2.325 . S
Tb41 O65 2.341 . S
Tb41 O66 2.484 . S
Tb41 O67 2.440 . S
Tb41 O68 2.658 . S
Tb41 O69 2.409 . S
Tb41 O70 2.378 . S
C42 Tb40 2.809 . S
C42 C43 1.514 . S
C42 O60 1.248 . S
C42 O61 1.266 . S
C43 C42 1.514 . S
C43 C44 1.359 . S
C43 C48 1.348 . S
C44 C43 1.359 . S
C44 C45 1.380 . S
C44 H72 0.929 . S
C45 C44 1.380 . S
C45 C46 1.347 . S
C45 H73 0.931 . S
C46 C45 1.347 . S
C46 C47 1.369 . S
C47 C46 1.369 . S
C47 C48 1.408 . S
C47 H74 0.930 . S
C48 C43 1.348 . S
C48 C47 1.408 . S
C48 H75 0.930 . S
C49 O62 1.281 . S
C49 O63 1.254 . S
C50 O64 1.236 . S
C50 O65 1.266 . S
C51 Tb41 2.809 . S
C51 C52 1.514 . S
C51 O66 1.248 . S
C51 O67 1.266 . S
C52 C51 1.514 . S
C52 C53 1.359 . S
C52 C57 1.348 . S
C53 C52 1.359 . S
C53 C54 1.380 1_556 S
C53 H76 0.929 . S
C54 C53 1.380 1_554 S
C54 C55 1.347 . S
C54 H77 0.931 . S
C55 C54 1.347 . S
C55 C56 1.369 . S
C56 C55 1.369 . S
C56 C57 1.408 1_554 S
C56 H78 0.930 . S
C57 C52 1.348 . S
C57 C56 1.408 1_556 S
C57 H79 0.930 . S
C58 O68 1.281 . S
C58 O69 1.254 . S
C59 O70 1.236 . S
C59 O71 1.266 . S
O60 Tb40 2.484 . S
O60 C42 1.248 . S
O61 Tb40 2.440 . S
O61 C42 1.266 . S
O62 Tb40 2.658 . S
O62 Tb41 2.325 . S
O62 C49 1.281 . S
O63 Tb40 2.409 . S
O63 C49 1.254 . S
O64 Tb40 2.378 . S
O64 C50 1.236 . S
O65 Tb41 2.341 . S
O65 C50 1.266 . S
O66 Tb41 2.484 . S
O66 C51 1.248 . S
O67 Tb41 2.440 . S
O67 C51 1.266 . S
O68 Tb40 2.325 . S
O68 Tb41 2.658 . S
O68 C58 1.281 . S
O69 Tb41 2.409 . S
O69 C58 1.254 . S
O70 Tb41 2.378 . S
O70 C59 1.236 . S
O71 Tb40 2.341 . S
O71 C59 1.266 . S
H72 C44 0.929 . S
H73 C45 0.931 . S
H74 C47 0.930 . S
H75 C48 0.930 . S
H76 C53 0.929 . S
H77 C54 0.931 . S
H78 C56 0.930 . S
H79 C57 0.930 . S
Tb80 C82 2.809 . S
Tb80 O100 2.484 1_565 S
Tb80 O101 2.440 . S
Tb80 O102 2.658 1_554 S
Tb80 O103 2.409 . S
Tb80 O104 2.378 1_565 S
Tb80 O108 2.325 1_565 S
Tb80 O111 2.341 1_554 S
Tb81 C91 2.809 . S
Tb81 O102 2.325 1_545 S
Tb81 O105 2.341 1_556 S
Tb81 O106 2.484 1_545 S
Tb81 O107 2.440 . S
Tb81 O108 2.658 1_556 S
Tb81 O109 2.409 . S
Tb81 O110 2.378 1_545 S
C82 Tb80 2.809 . S
C82 C83 1.514 . S
C82 O100 1.248 1_565 S
C82 O101 1.266 . S
C83 C82 1.514 . S
C83 C84 1.359 1_565 S
C83 C88 1.348 . S
C84 C83 1.359 1_545 S
C84 C85 1.380 . S
C84 H112 0.929 . S
C85 C84 1.380 . S
C85 C86 1.347 . S
C85 H113 0.931 . S
C86 C85 1.347 . S
C86 C87 1.369 1_545 S
C87 C86 1.369 1_565 S
C87 C88 1.408 . S
C87 H114 0.930 . S
C88 C83 1.348 . S
C88 C87 1.408 . S
C88 H115 0.930 . S
C89 O102 1.281 . S
C89 O103 1.254 1_556 S
C90 O104 1.236 . S
C90 O105 1.266 . S
C91 Tb81 2.809 . S
C91 C92 1.514 . S
C91 O106 1.248 1_545 S
C91 O107 1.266 . S
C92 C91 1.514 . S
C92 C93 1.359 1_545 S
C92 C97 1.348 . S
C93 C92 1.359 1_565 S
C93 C94 1.380 . S
C93 H116 0.929 . S
C94 C93 1.380 . S
C94 C95 1.347 . S
C94 H117 0.931 . S
C95 C94 1.347 . S
C95 C96 1.369 1_565 S
C96 C95 1.369 1_545 S
C96 C97 1.408 . S
C96 H118 0.930 . S
C97 C92 1.348 . S
C97 C96 1.408 . S
C97 H119 0.930 . S
C98 O108 1.281 . S
C98 O109 1.254 1_554 S
C99 O110 1.236 . S
C99 O111 1.266 . S
O100 Tb80 2.484 1_545 S
O100 C82 1.248 1_545 S
O101 Tb80 2.440 . S
O101 C82 1.266 . S
O102 Tb80 2.658 1_556 S
O102 Tb81 2.325 1_565 S
O102 C89 1.281 . S
O103 Tb80 2.409 . S
O103 C89 1.254 1_554 S
O104 Tb80 2.378 1_545 S
O104 C90 1.236 . S
O105 Tb81 2.341 1_554 S
O105 C90 1.266 . S
O106 Tb81 2.484 1_565 S
O106 C91 1.248 1_565 S
O107 Tb81 2.440 . S
O107 C91 1.266 . S
O108 Tb80 2.325 1_545 S
O108 Tb81 2.658 1_554 S
O108 C98 1.281 . S
O109 Tb81 2.409 . S
O109 C98 1.254 1_556 S
O110 Tb81 2.378 1_565 S
O110 C99 1.236 . S
O111 Tb80 2.341 1_556 S
O111 C99 1.266 . S
H112 C84 0.929 . S
H113 C85 0.931 . S
H114 C87 0.930 . S
H115 C88 0.930 . S
H116 C93 0.929 . S
H117 C94 0.931 . S
H118 C96 0.930 . S
H119 C97 0.930 . S
Tb120 C122 2.809 . S
Tb120 O140 2.484 . S
Tb120 O141 2.440 . S
Tb120 O142 2.658 . S
Tb120 O143 2.409 . S
Tb120 O144 2.378 . S
Tb120 O148 2.325 . S
Tb120 O151 2.341 . S
Tb121 C131 2.809 . S
Tb121 O142 2.325 . S
Tb121 O145 2.341 . S
Tb121 O146 2.484 . S
Tb121 O147 2.440 . S
Tb121 O148 2.658 . S
Tb121 O149 2.409 . S
Tb121 O150 2.378 . S
C122 Tb120 2.809 . S
C122 C123 1.514 . S
C122 O140 1.248 . S
C122 O141 1.266 . S
C123 C122 1.514 . S
C123 C124 1.359 . S
C123 C128 1.348 . S
C124 C123 1.359 . S
C124 C125 1.380 . S
C124 H152 0.929 . S
C125 C124 1.380 . S
C125 C126 1.347 . S
C125 H153 0.931 . S
C126 C125 1.347 . S
C126 C127 1.369 . S
C127 C126 1.369 . S
C127 C128 1.408 . S
C127 H154 0.930 . S
C128 C123 1.348 . S
C128 C127 1.408 . S
C128 H155 0.930 . S
C129 O142 1.281 . S
C129 O143 1.254 . S
C130 O144 1.236 . S
C130 O145 1.266 . S
C131 Tb121 2.809 . S
C131 C132 1.514 . S
C131 O146 1.248 . S
C131 O147 1.266 . S
C132 C131 1.514 . S
C132 C133 1.359 . S
C132 C137 1.348 . S
C133 C132 1.359 . S
C133 C134 1.380 1_554 S
C133 H156 0.929 . S
C134 C133 1.380 1_556 S
C134 C135 1.347 . S
C134 H157 0.931 . S
C135 C134 1.347 . S
C135 C136 1.369 . S
C136 C135 1.369 . S
C136 C137 1.408 1_556 S
C136 H158 0.930 . S
C137 C132 1.348 . S
C137 C136 1.408 1_554 S
C137 H159 0.930 . S
C138 O148 1.281 . S
C138 O149 1.254 . S
C139 O150 1.236 . S
C139 O151 1.266 . S
O140 Tb120 2.484 . S
O140 C122 1.248 . S
O141 Tb120 2.440 . S
O141 C122 1.266 . S
O142 Tb120 2.658 . S
O142 Tb121 2.325 . S
O142 C129 1.281 . S
O143 Tb120 2.409 . S
O143 C129 1.254 . S
O144 Tb120 2.378 . S
O144 C130 1.236 . S
O145 Tb121 2.341 . S
O145 C130 1.266 . S
O146 Tb121 2.484 . S
O146 C131 1.248 . S
O147 Tb121 2.440 . S
O147 C131 1.266 . S
O148 Tb120 2.325 . S
O148 Tb121 2.658 . S
O148 C138 1.281 . S
O149 Tb121 2.409 . S
O149 C138 1.254 . S
O150 Tb121 2.378 . S
O150 C139 1.236 . S
O151 Tb120 2.341 . S
O151 C139 1.266 . S
H152 C124 0.929 . S
H153 C125 0.931 . S
H154 C127 0.930 . S
H155 C128 0.930 . S
H156 C133 0.929 . S
H157 C134 0.931 . S
H158 C136 0.930 . S
H159 C137 0.930 . S
Tb160 C162 2.809 . S
Tb160 O180 2.484 . S
Tb160 O181 2.440 . S
Tb160 O182 2.658 . S
Tb160 O183 2.409 . S
Tb160 O184 2.378 . S
Tb160 O188 2.325 . S
Tb160 O191 2.341 . S
Tb161 C171 2.809 . S
Tb161 O182 2.325 . S
Tb161 O185 2.341 . S
Tb161 O186 2.484 . S
Tb161 O187 2.440 . S
Tb161 O188 2.658 . S
Tb161 O189 2.409 . S
Tb161 O190 2.378 . S
C162 Tb160 2.809 . S
C162 C163 1.514 . S
C162 O180 1.248 . S
C162 O181 1.266 . S
C163 C162 1.514 . S
C163 C164 1.359 . S
C163 C168 1.348 . S
C164 C163 1.359 . S
C164 C165 1.380 1_554 S
C164 H192 0.929 . S
C165 C164 1.380 1_556 S
C165 C166 1.347 . S
C165 H193 0.931 . S
C166 C165 1.347 . S
C166 C167 1.369 . S
C167 C166 1.369 . S
C167 C168 1.408 1_556 S
C167 H194 0.930 . S
C168 C163 1.348 . S
C168 C167 1.408 1_554 S
C168 H195 0.930 . S
C169 O182 1.281 . S
C169 O183 1.254 . S
C170 O184 1.236 . S
C170 O185 1.266 . S
C171 Tb161 2.809 . S
C171 C172 1.514 . S
C171 O186 1.248 . S
C171 O187 1.266 . S
C172 C171 1.514 . S
C172 C173 1.359 . S
C172 C177 1.348 . S
C173 C172 1.359 . S
C173 C174 1.380 . S
C173 H196 0.929 . S
C174 C173 1.380 . S
C174 C175 1.347 . S
C174 H197 0.931 . S
C175 C174 1.347 . S
C175 C176 1.369 . S
C176 C175 1.369 . S
C176 C177 1.408 . S
C176 H198 0.930 . S
C177 C172 1.348 . S
C177 C176 1.408 . S
C177 H199 0.930 . S
C178 O188 1.281 . S
C178 O189 1.254 . S
C179 O190 1.236 . S
C179 O191 1.266 . S
O180 Tb160 2.484 . S
O180 C162 1.248 . S
O181 Tb160 2.440 . S
O181 C162 1.266 . S
O182 Tb160 2.658 . S
O182 Tb161 2.325 . S
O182 C169 1.281 . S
O183 Tb160 2.409 . S
O183 C169 1.254 . S
O184 Tb160 2.378 . S
O184 C170 1.236 . S
O185 Tb161 2.341 . S
O185 C170 1.266 . S
O186 Tb161 2.484 . S
O186 C171 1.248 . S
O187 Tb161 2.440 . S
O187 C171 1.266 . S
O188 Tb160 2.325 . S
O188 Tb161 2.658 . S
O188 C178 1.281 . S
O189 Tb161 2.409 . S
O189 C178 1.254 . S
O190 Tb161 2.378 . S
O190 C179 1.236 . S
O191 Tb160 2.341 . S
O191 C179 1.266 . S
H192 C164 0.929 . S
H193 C165 0.931 . S
H194 C167 0.930 . S
H195 C168 0.930 . S
H196 C173 0.929 . S
H197 C174 0.931 . S
H198 C176 0.930 . S
H199 C177 0.930 . S
Tb200 C202 2.809 . S
Tb200 O220 2.484 . S
Tb200 O221 2.440 . S
Tb200 O222 2.658 . S
Tb200 O223 2.409 . S
Tb200 O224 2.378 . S
Tb200 O228 2.325 . S
Tb200 O231 2.341 . S
Tb201 C211 2.809 . S
Tb201 O222 2.325 . S
Tb201 O225 2.341 . S
Tb201 O226 2.484 . S
Tb201 O227 2.440 . S
Tb201 O228 2.658 . S
Tb201 O229 2.409 . S
Tb201 O230 2.378 . S
C202 Tb200 2.809 . S
C202 C203 1.514 . S
C202 O220 1.248 . S
C202 O221 1.266 . S
C203 C202 1.514 . S
C203 C204 1.359 . S
C203 C208 1.348 . S
C204 C203 1.359 . S
C204 C205 1.380 1_556 S
C204 H232 0.929 . S
C205 C204 1.380 1_554 S
C205 C206 1.347 . S
C205 H233 0.931 . S
C206 C205 1.347 . S
C206 C207 1.369 . S
C207 C206 1.369 . S
C207 C208 1.408 1_554 S
C207 H234 0.930 . S
C208 C203 1.348 . S
C208 C207 1.408 1_556 S
C208 H235 0.930 . S
C209 O222 1.281 . S
C209 O223 1.254 . S
C210 O224 1.236 . S
C210 O225 1.266 . S
C211 Tb201 2.809 . S
C211 C212 1.514 . S
C211 O226 1.248 . S
C211 O227 1.266 . S
C212 C211 1.514 . S
C212 C213 1.359 . S
C212 C217 1.348 . S
C213 C212 1.359 . S
C213 C214 1.380 . S
C213 H236 0.929 . S
C214 C213 1.380 . S
C214 C215 1.347 . S
C214 H237 0.931 . S
C215 C214 1.347 . S
C215 C216 1.369 . S
C216 C215 1.369 . S
C216 C217 1.408 . S
C216 H238 0.930 . S
C217 C212 1.348 . S
C217 C216 1.408 . S
C217 H239 0.930 . S
C218 O228 1.281 . S
C218 O229 1.254 . S
C219 O230 1.236 . S
C219 O231 1.266 . S
O220 Tb200 2.484 . S
O220 C202 1.248 . S
O221 Tb200 2.440 . S
O221 C202 1.266 . S
O222 Tb200 2.658 . S
O222 Tb201 2.325 . S
O222 C209 1.281 . S
O223 Tb200 2.409 . S
O223 C209 1.254 . S
O224 Tb200 2.378 . S
O224 C210 1.236 . S
O225 Tb201 2.341 . S
O225 C210 1.266 . S
O226 Tb201 2.484 . S
O226 C211 1.248 . S
O227 Tb201 2.440 . S
O227 C211 1.266 . S
O228 Tb200 2.325 . S
O228 Tb201 2.658 . S
O228 C218 1.281 . S
O229 Tb201 2.409 . S
O229 C218 1.254 . S
O230 Tb201 2.378 . S
O230 C219 1.236 . S
O231 Tb200 2.341 . S
O231 C219 1.266 . S
H232 C204 0.929 . S
H233 C205 0.931 . S
H234 C207 0.930 . S
H235 C208 0.930 . S
H236 C213 0.929 . S
H237 C214 0.931 . S
H238 C216 0.930 . S
H239 C217 0.930 . S
Tb240 C242 2.809 . S
Tb240 O260 2.484 . S
Tb240 O261 2.440 . S
Tb240 O262 2.658 1_556 S
Tb240 O263 2.409 . S
Tb240 O264 2.378 . S
Tb240 O268 2.325 . S
Tb240 O271 2.341 . S
Tb241 C251 2.809 . S
Tb241 O262 2.325 . S
Tb241 O265 2.341 . S
Tb241 O266 2.484 . S
Tb241 O267 2.440 . S
Tb241 O268 2.658 1_554 S
Tb241 O269 2.409 . S
Tb241 O270 2.378 . S
C242 Tb240 2.809 . S
C242 C243 1.514 . S
C242 O260 1.248 . S
C242 O261 1.266 . S
C243 C242 1.514 . S
C243 C244 1.359 . S
C243 C248 1.348 . S
C244 C243 1.359 . S
C244 C245 1.380 . S
C244 H272 0.929 . S
C245 C244 1.380 . S
C245 C246 1.347 . S
C245 H273 0.931 . S
C246 C245 1.347 . S
C246 C247 1.369 . S
C247 C246 1.369 . S
C247 C248 1.408 . S
C247 H274 0.930 . S
C248 C243 1.348 . S
C248 C247 1.408 . S
C248 H275 0.930 . S
C249 O262 1.281 . S
C249 O263 1.254 1_554 S
C250 O264 1.236 . S
C250 O265 1.266 1_556 S
C251 Tb241 2.809 . S
C251 C252 1.514 . S
C251 O266 1.248 . S
C251 O267 1.266 . S
C252 C251 1.514 . S
C252 C253 1.359 . S
C252 C257 1.348 . S
C253 C252 1.359 . S
C253 C254 1.380 . S
C253 H276 0.929 . S
C254 C253 1.380 . S
C254 C255 1.347 . S
C254 H277 0.931 . S
C255 C254 1.347 . S
C255 C256 1.369 . S
C256 C255 1.369 . S
C256 C257 1.408 . S
C256 H278 0.930 . S
C257 C252 1.348 . S
C257 C256 1.408 . S
C257 H279 0.930 . S
C258 O268 1.281 . S
C258 O269 1.254 1_556 S
C259 O270 1.236 . S
C259 O271 1.266 1_554 S
O260 Tb240 2.484 . S
O260 C242 1.248 . S
O261 Tb240 2.440 . S
O261 C242 1.266 . S
O262 Tb240 2.658 1_554 S
O262 Tb241 2.325 . S
O262 C249 1.281 . S
O263 Tb240 2.409 . S
O263 C249 1.254 1_556 S
O264 Tb240 2.378 . S
O264 C250 1.236 . S
O265 Tb241 2.341 . S
O265 C250 1.266 1_554 S
O266 Tb241 2.484 . S
O266 C251 1.248 . S
O267 Tb241 2.440 . S
O267 C251 1.266 . S
O268 Tb240 2.325 . S
O268 Tb241 2.658 1_556 S
O268 C258 1.281 . S
O269 Tb241 2.409 . S
O269 C258 1.254 1_554 S
O270 Tb241 2.378 . S
O270 C259 1.236 . S
O271 Tb240 2.341 . S
O271 C259 1.266 1_556 S
H272 C244 0.929 . S
H273 C245 0.931 . S
H274 C247 0.930 . S
H275 C248 0.930 . S
H276 C253 0.929 . S
H277 C254 0.931 . S
H278 C256 0.930 . S
H279 C257 0.930 . S
Tb280 C282 2.809 1_455 S
Tb280 O300 2.484 . S
Tb280 O301 2.440 1_455 S
Tb280 O302 2.658 1_455 S
Tb280 O303 2.409 1_455 S
Tb280 O304 2.378 1_455 S
Tb280 O308 2.325 . S
Tb280 O311 2.341 . S
Tb281 C291 2.809 1_655 S
Tb281 O302 2.325 . S
Tb281 O305 2.341 . S
Tb281 O306 2.484 . S
Tb281 O307 2.440 1_655 S
Tb281 O308 2.658 1_655 S
Tb281 O309 2.409 1_655 S
Tb281 O310 2.378 1_655 S
C282 Tb280 2.809 1_655 S
C282 C283 1.514 . S
C282 O300 1.248 1_655 S
C282 O301 1.266 . S
C283 C282 1.514 . S
C283 C284 1.359 1_655 S
C283 C288 1.348 . S
C284 C283 1.359 1_455 S
C284 C285 1.380 1_455 S
C284 H312 0.929 . S
C285 C284 1.380 1_655 S
C285 C286 1.347 . S
C285 H313 0.931 1_655 S
C286 C285 1.347 . S
C286 C287 1.369 . S
C287 C286 1.369 . S
C287 C288 1.408 . S
C287 H314 0.930 . S
C288 C283 1.348 . S
C288 C287 1.408 . S
C288 H315 0.930 . S
C289 O302 1.281 . S
C289 O303 1.254 . S
C290 O304 1.236 . S
C290 O305 1.266 . S
C291 Tb281 2.809 1_455 S
C291 C292 1.514 . S
C291 O306 1.248 1_455 S
C291 O307 1.266 . S
C292 C291 1.514 . S
C292 C293 1.359 1_455 S
C292 C297 1.348 . S
C293 C292 1.359 1_655 S
C293 C294 1.380 1_655 S
C293 H316 0.929 . S
C294 C293 1.380 1_455 S
C294 C295 1.347 . S
C294 H317 0.931 1_455 S
C295 C294 1.347 . S
C295 C296 1.369 . S
C296 C295 1.369 . S
C296 C297 1.408 . S
C296 H318 0.930 . S
C297 C292 1.348 . S
C297 C296 1.408 . S
C297 H319 0.930 . S
C298 O308 1.281 . S
C298 O309 1.254 . S
C299 O310 1.236 . S
C299 O311 1.266 . S
O300 Tb280 2.484 . S
O300 C282 1.248 1_455 S
O301 Tb280 2.440 1_655 S
O301 C282 1.266 . S
O302 Tb280 2.658 1_655 S
O302 Tb281 2.325 . S
O302 C289 1.281 . S
O303 Tb280 2.409 1_655 S
O303 C289 1.254 . S
O304 Tb280 2.378 1_655 S
O304 C290 1.236 . S
O305 Tb281 2.341 . S
O305 C290 1.266 . S
O306 Tb281 2.484 . S
O306 C291 1.248 1_655 S
O307 Tb281 2.440 1_455 S
O307 C291 1.266 . S
O308 Tb280 2.325 . S
O308 Tb281 2.658 1_455 S
O308 C298 1.281 . S
O309 Tb281 2.409 1_455 S
O309 C298 1.254 . S
O310 Tb281 2.378 1_455 S
O310 C299 1.236 . S
O311 Tb280 2.341 . S
O311 C299 1.266 . S
H312 C284 0.929 . S
H313 C285 0.931 1_455 S
H314 C287 0.930 . S
H315 C288 0.930 . S
H316 C293 0.929 . S
H317 C294 0.931 1_655 S
H318 C296 0.930 . S
H319 C297 0.930 . S
C320 C321 1.391 . S
C320 C322 1.394 . S
C320 H336 0.931 . S
C321 C320 1.391 . S
C321 C325 1.376 . S
C322 C320 1.394 . S
C322 C323 1.369 . S
C322 C326 1.531 . S
C323 C322 1.369 . S
C323 C324 1.410 . S
C323 C331 1.503 . S
C324 C323 1.410 . S
C324 C325 1.392 . S
C324 C327 1.511 . S
C325 C321 1.376 . S
C325 C324 1.392 . S
C325 H337 0.929 . S
C326 C322 1.531 . S
C326 H338 0.960 . S
C326 H339 0.962 . S
C326 H340 0.960 . S
C327 C324 1.511 . S
C327 H341 0.961 . S
C327 H342 0.961 . S
C327 H343 0.961 . S
C328 C329 1.370 . S
C328 C330 1.363 . S
C328 H344 0.931 . S
C329 C328 1.370 . S
C329 C333 1.408 . S
C330 C328 1.363 . S
C330 C331 1.370 . S
C330 C334 1.524 . S
C331 C323 1.503 . S
C331 C330 1.370 . S
C331 C332 1.403 . S
C332 C331 1.403 . S
C332 C333 1.404 . S
C332 C335 1.539 . S
C333 C329 1.408 . S
C333 C332 1.404 . S
C333 H345 0.930 . S
C334 C330 1.524 . S
C334 H346 0.956 . S
C334 H347 0.961 . S
C334 H348 0.961 . S
C335 C332 1.539 . S
C335 H349 0.958 . S
C335 H350 0.961 . S
C335 H351 0.960 . S
H336 C320 0.931 . S
H337 C325 0.929 . S
H338 C326 0.960 . S
H339 C326 0.962 . S
H340 C326 0.960 . S
H341 C327 0.961 . S
H342 C327 0.961 . S
H343 C327 0.961 . S
H344 C328 0.931 . S
H345 C333 0.930 . S
H346 C334 0.956 . S
H347 C334 0.961 . S
H348 C334 0.961 . S
H349 C335 0.958 . S
H350 C335 0.961 . S
H351 C335 0.960 . S
C352 C353 1.391 . S
C352 C354 1.394 . S
C352 H368 0.931 . S
C353 C352 1.391 . S
C353 C357 1.376 . S
C354 C352 1.394 . S
C354 C355 1.369 . S
C354 C358 1.531 . S
C355 C354 1.369 . S
C355 C356 1.410 . S
C355 C363 1.503 . S
C356 C355 1.410 . S
C356 C357 1.392 . S
C356 C359 1.511 . S
C357 C353 1.376 . S
C357 C356 1.392 . S
C357 H369 0.929 . S
C358 C354 1.531 . S
C358 H370 0.960 . S
C358 H371 0.962 . S
C358 H372 0.960 . S
C359 C356 1.511 . S
C359 H373 0.961 . S
C359 H374 0.961 . S
C359 H375 0.961 . S
C360 C361 1.370 . S
C360 C362 1.363 . S
C360 H376 0.931 . S
C361 C360 1.370 . S
C361 C365 1.408 . S
C362 C360 1.363 . S
C362 C363 1.370 . S
C362 C366 1.524 . S
C363 C355 1.503 . S
C363 C362 1.370 . S
C363 C364 1.403 . S
C364 C363 1.403 . S
C364 C365 1.404 . S
C364 C367 1.539 . S
C365 C361 1.408 . S
C365 C364 1.404 . S
C365 H377 0.930 . S
C366 C362 1.524 . S
C366 H378 0.956 . S
C366 H379 0.961 . S
C366 H380 0.961 . S
C367 C364 1.539 . S
C367 H381 0.958 . S
C367 H382 0.961 . S
C367 H383 0.960 . S
H368 C352 0.931 . S
H369 C357 0.929 . S
H370 C358 0.960 . S
H371 C358 0.962 . S
H372 C358 0.960 . S
H373 C359 0.961 . S
H374 C359 0.961 . S
H375 C359 0.961 . S
H376 C360 0.931 . S
H377 C365 0.930 . S
H378 C366 0.956 . S
H379 C366 0.961 . S
H380 C366 0.961 . S
H381 C367 0.958 . S
H382 C367 0.961 . S
H383 C367 0.960 . S
C384 C385 1.391 . S
C384 C386 1.394 . S
C384 H400 0.931 . S
C385 C384 1.391 . S
C385 C389 1.376 . S
C386 C384 1.394 . S
C386 C387 1.369 . S
C386 C390 1.531 . S
C387 C386 1.369 . S
C387 C388 1.410 . S
C387 C395 1.503 . S
C388 C387 1.410 . S
C388 C389 1.392 . S
C388 C391 1.511 . S
C389 C385 1.376 . S
C389 C388 1.392 . S
C389 H401 0.929 . S
C390 C386 1.531 . S
C390 H402 0.960 . S
C390 H403 0.962 . S
C390 H404 0.960 . S
C391 C388 1.511 . S
C391 H405 0.961 . S
C391 H406 0.961 . S
C391 H407 0.961 . S
C392 C393 1.370 . S
C392 C394 1.363 . S
C392 H408 0.931 . S
C393 C392 1.370 . S
C393 C397 1.408 . S
C394 C392 1.363 . S
C394 C395 1.370 . S
C394 C398 1.524 . S
C395 C387 1.503 . S
C395 C394 1.370 . S
C395 C396 1.403 . S
C396 C395 1.403 . S
C396 C397 1.404 . S
C396 C399 1.539 . S
C397 C393 1.408 . S
C397 C396 1.404 . S
C397 H409 0.930 . S
C398 C394 1.524 . S
C398 H410 0.956 . S
C398 H411 0.961 . S
C398 H412 0.961 . S
C399 C396 1.539 . S
C399 H413 0.958 . S
C399 H414 0.961 . S
C399 H415 0.960 . S
H400 C384 0.931 . S
H401 C389 0.929 . S
H402 C390 0.960 . S
H403 C390 0.962 . S
H404 C390 0.960 . S
H405 C391 0.961 . S
H406 C391 0.961 . S
H407 C391 0.961 . S
H408 C392 0.931 . S
H409 C397 0.930 . S
H410 C398 0.956 . S
H411 C398 0.961 . S
H412 C398 0.961 . S
H413 C399 0.958 . S
H414 C399 0.961 . S
H415 C399 0.960 . S
C416 C417 1.391 . S
C416 C418 1.394 . S
C416 H432 0.931 . S
C417 C416 1.391 . S
C417 C421 1.376 . S
C418 C416 1.394 . S
C418 C419 1.369 . S
C418 C422 1.531 . S
C419 C418 1.369 . S
C419 C420 1.410 . S
C419 C427 1.503 . S
C420 C419 1.410 . S
C420 C421 1.392 . S
C420 C423 1.511 . S
C421 C417 1.376 . S
C421 C420 1.392 . S
C421 H433 0.929 . S
C422 C418 1.531 . S
C422 H434 0.960 . S
C422 H435 0.962 . S
C422 H436 0.960 . S
C423 C420 1.511 . S
C423 H437 0.961 . S
C423 H438 0.961 . S
C423 H439 0.961 . S
C424 C425 1.370 . S
C424 C426 1.363 . S
C424 H440 0.931 . S
C425 C424 1.370 . S
C425 C429 1.408 . S
C426 C424 1.363 . S
C426 C427 1.370 . S
C426 C430 1.524 . S
C427 C419 1.503 . S
C427 C426 1.370 . S
C427 C428 1.403 . S
C428 C427 1.403 . S
C428 C429 1.404 . S
C428 C431 1.539 . S
C429 C425 1.408 . S
C429 C428 1.404 . S
C429 H441 0.930 . S
C430 C426 1.524 . S
C430 H442 0.956 . S
C430 H443 0.961 . S
C430 H444 0.961 . S
C431 C428 1.539 . S
C431 H445 0.958 . S
C431 H446 0.961 . S
C431 H447 0.960 . S
H432 C416 0.931 . S
H433 C421 0.929 . S
H434 C422 0.960 . S
H435 C422 0.962 . S
H436 C422 0.960 . S
H437 C423 0.961 . S
H438 C423 0.961 . S
H439 C423 0.961 . S
H440 C424 0.931 . S
H441 C429 0.930 . S
H442 C430 0.956 . S
H443 C430 0.961 . S
H444 C430 0.961 . S
H445 C431 0.958 . S
H446 C431 0.961 . S
H447 C431 0.960 . S
C448 C449 1.391 . S
C448 C450 1.394 . S
C448 H464 0.931 . S
C449 C448 1.391 . S
C449 C453 1.376 . S
C450 C448 1.394 . S
C450 C451 1.369 . S
C450 C454 1.531 . S
C451 C450 1.369 . S
C451 C452 1.410 . S
C451 C459 1.503 . S
C452 C451 1.410 . S
C452 C453 1.392 . S
C452 C455 1.511 . S
C453 C449 1.376 . S
C453 C452 1.392 . S
C453 H465 0.929 . S
C454 C450 1.531 . S
C454 H466 0.960 . S
C454 H467 0.962 . S
C454 H468 0.960 . S
C455 C452 1.511 . S
C455 H469 0.961 . S
C455 H470 0.961 . S
C455 H471 0.961 . S
C456 C457 1.370 . S
C456 C458 1.363 . S
C456 H472 0.931 . S
C457 C456 1.370 . S
C457 C461 1.408 . S
C458 C456 1.363 . S
C458 C459 1.370 . S
C458 C462 1.524 . S
C459 C451 1.503 . S
C459 C458 1.370 . S
C459 C460 1.403 . S
C460 C459 1.403 . S
C460 C461 1.404 . S
C460 C463 1.539 . S
C461 C457 1.408 . S
C461 C460 1.404 . S
C461 H473 0.930 . S
C462 C458 1.524 . S
C462 H474 0.956 . S
C462 H475 0.961 . S
C462 H476 0.961 . S
C463 C460 1.539 . S
C463 H477 0.958 . S
C463 H478 0.961 . S
C463 H479 0.960 . S
H464 C448 0.931 . S
H465 C453 0.929 . S
H466 C454 0.960 . S
H467 C454 0.962 . S
H468 C454 0.960 . S
H469 C455 0.961 . S
H470 C455 0.961 . S
H471 C455 0.961 . S
H472 C456 0.931 . S
H473 C461 0.930 . S
H474 C462 0.956 . S
H475 C462 0.961 . S
H476 C462 0.961 . S
H477 C463 0.958 . S
H478 C463 0.961 . S
H479 C463 0.960 . S
C480 C481 1.391 . S
C480 C482 1.394 . S
C480 H496 0.931 . S
C481 C480 1.391 . S
C481 C485 1.376 . S
C482 C480 1.394 . S
C482 C483 1.369 . S
C482 C486 1.531 . S
C483 C482 1.369 . S
C483 C484 1.410 . S
C483 C491 1.503 . S
C484 C483 1.410 . S
C484 C485 1.392 . S
C484 C487 1.511 . S
C485 C481 1.376 . S
C485 C484 1.392 . S
C485 H497 0.929 . S
C486 C482 1.531 . S
C486 H498 0.960 . S
C486 H499 0.962 . S
C486 H500 0.960 . S
C487 C484 1.511 . S
C487 H501 0.961 . S
C487 H502 0.961 . S
C487 H503 0.961 . S
C488 C489 1.370 . S
C488 C490 1.363 . S
C488 H504 0.931 . S
C489 C488 1.370 . S
C489 C493 1.408 . S
C490 C488 1.363 . S
C490 C491 1.370 . S
C490 C494 1.524 . S
C491 C483 1.503 . S
C491 C490 1.370 . S
C491 C492 1.403 . S
C492 C491 1.403 . S
C492 C493 1.404 . S
C492 C495 1.539 . S
C493 C489 1.408 . S
C493 C492 1.404 . S
C493 H505 0.930 . S
C494 C490 1.524 . S
C494 H506 0.956 . S
C494 H507 0.961 . S
C494 H508 0.961 . S
C495 C492 1.539 . S
C495 H509 0.958 . S
C495 H510 0.961 . S
C495 H511 0.960 . S
H496 C480 0.931 . S
H497 C485 0.929 . S
H498 C486 0.960 . S
H499 C486 0.962 . S
H500 C486 0.960 . S
H501 C487 0.961 . S
H502 C487 0.961 . S
H503 C487 0.961 . S
H504 C488 0.931 . S
H505 C493 0.930 . S
H506 C494 0.956 . S
H507 C494 0.961 . S
H508 C494 0.961 . S
H509 C495 0.958 . S
H510 C495 0.961 . S
H511 C495 0.960 . S
C512 C513 1.391 . S
C512 C514 1.394 . S
C512 H528 0.931 . S
C513 C512 1.391 . S
C513 C517 1.376 . S
C514 C512 1.394 . S
C514 C515 1.369 . S
C514 C518 1.531 . S
C515 C514 1.369 . S
C515 C516 1.410 . S
C515 C523 1.503 . S
C516 C515 1.410 . S
C516 C517 1.392 . S
C516 C519 1.511 . S
C517 C513 1.376 . S
C517 C516 1.392 . S
C517 H529 0.929 . S
C518 C514 1.531 . S
C518 H530 0.960 . S
C518 H531 0.962 . S
C518 H532 0.960 . S
C519 C516 1.511 . S
C519 H533 0.961 . S
C519 H534 0.961 . S
C519 H535 0.961 . S
C520 C521 1.370 . S
C520 C522 1.363 . S
C520 H536 0.931 . S
C521 C520 1.370 . S
C521 C525 1.408 . S
C522 C520 1.363 . S
C522 C523 1.370 . S
C522 C526 1.524 . S
C523 C515 1.503 . S
C523 C522 1.370 . S
C523 C524 1.403 . S
C524 C523 1.403 . S
C524 C525 1.404 . S
C524 C527 1.539 . S
C525 C521 1.408 . S
C525 C524 1.404 . S
C525 H537 0.930 . S
C526 C522 1.524 . S
C526 H538 0.956 . S
C526 H539 0.961 . S
C526 H540 0.961 . S
C527 C524 1.539 . S
C527 H541 0.958 . S
C527 H542 0.961 . S
C527 H543 0.960 . S
H528 C512 0.931 . S
H529 C517 0.929 . S
H530 C518 0.960 . S
H531 C518 0.962 . S
H532 C518 0.960 . S
H533 C519 0.961 . S
H534 C519 0.961 . S
H535 C519 0.961 . S
H536 C520 0.931 . S
H537 C525 0.930 . S
H538 C526 0.956 . S
H539 C526 0.961 . S
H540 C526 0.961 . S
H541 C527 0.958 . S
H542 C527 0.961 . S
H543 C527 0.960 . S
C544 C545 1.391 . S
C544 C546 1.394 . S
C544 H560 0.931 . S
C545 C544 1.391 . S
C545 C549 1.376 . S
C546 C544 1.394 . S
C546 C547 1.369 . S
C546 C550 1.531 . S
C547 C546 1.369 . S
C547 C548 1.410 . S
C547 C555 1.503 . S
C548 C547 1.410 . S
C548 C549 1.392 . S
C548 C551 1.511 . S
C549 C545 1.376 . S
C549 C548 1.392 . S
C549 H561 0.929 . S
C550 C546 1.531 . S
C550 H562 0.960 . S
C550 H563 0.962 . S
C550 H564 0.960 . S
C551 C548 1.511 . S
C551 H565 0.961 . S
C551 H566 0.961 . S
C551 H567 0.961 . S
C552 C553 1.370 . S
C552 C554 1.363 . S
C552 H568 0.931 . S
C553 C552 1.370 . S
C553 C557 1.408 . S
C554 C552 1.363 . S
C554 C555 1.370 . S
C554 C558 1.524 . S
C555 C547 1.503 . S
C555 C554 1.370 . S
C555 C556 1.403 . S
C556 C555 1.403 . S
C556 C557 1.404 . S
C556 C559 1.539 . S
C557 C553 1.408 . S
C557 C556 1.404 . S
C557 H569 0.930 . S
C558 C554 1.524 . S
C558 H570 0.956 . S
C558 H571 0.961 . S
C558 H572 0.961 . S
C559 C556 1.539 . S
C559 H573 0.958 . S
C559 H574 0.961 . S
C559 H575 0.960 . S
H560 C544 0.931 . S
H561 C549 0.929 . S
H562 C550 0.960 . S
H563 C550 0.962 . S
H564 C550 0.960 . S
H565 C551 0.961 . S
H566 C551 0.961 . S
H567 C551 0.961 . S
H568 C552 0.931 . S
H569 C557 0.930 . S
H570 C558 0.956 . S
H571 C558 0.961 . S
H572 C558 0.961 . S
H573 C559 0.958 . S
H574 C559 0.961 . S
H575 C559 0.960 . S
C576 C577 1.391 . S
C576 C578 1.394 . S
C576 H592 0.931 . S
C577 C576 1.391 . S
C577 C581 1.376 . S
C578 C576 1.394 . S
C578 C579 1.369 . S
C578 C582 1.531 . S
C579 C578 1.369 . S
C579 C580 1.410 . S
C579 C587 1.503 . S
C580 C579 1.410 . S
C580 C581 1.392 . S
C580 C583 1.511 . S
C581 C577 1.376 . S
C581 C580 1.392 . S
C581 H593 0.929 . S
C582 C578 1.531 . S
C582 H594 0.960 . S
C582 H595 0.962 . S
C582 H596 0.960 . S
C583 C580 1.511 . S
C583 H597 0.961 . S
C583 H598 0.961 . S
C583 H599 0.961 . S
C584 C585 1.370 . S
C584 C586 1.363 . S
C584 H600 0.931 . S
C585 C584 1.370 . S
C585 C589 1.408 . S
C586 C584 1.363 . S
C586 C587 1.370 . S
C586 C590 1.524 . S
C587 C579 1.503 . S
C587 C586 1.370 . S
C587 C588 1.403 . S
C588 C587 1.403 . S
C588 C589 1.404 . S
C588 C591 1.539 . S
C589 C585 1.408 . S
C589 C588 1.404 . S
C589 H601 0.930 . S
C590 C586 1.524 . S
C590 H602 0.956 . S
C590 H603 0.961 . S
C590 H604 0.961 . S
C591 C588 1.539 . S
C591 H605 0.958 . S
C591 H606 0.961 . S
C591 H607 0.960 . S
H592 C576 0.931 . S
H593 C581 0.929 . S
H594 C582 0.960 . S
H595 C582 0.962 . S
H596 C582 0.960 . S
H597 C583 0.961 . S
H598 C583 0.961 . S
H599 C583 0.961 . S
H600 C584 0.931 . S
H601 C589 0.930 . S
H602 C590 0.956 . S
H603 C590 0.961 . S
H604 C590 0.961 . S
H605 C591 0.958 . S
H606 C591 0.961 . S
H607 C591 0.960 . S
C608 C609 1.391 . S
C608 C610 1.394 . S
C608 H624 0.931 . S
C609 C608 1.391 . S
C609 C613 1.376 . S
C610 C608 1.394 . S
C610 C611 1.369 . S
C610 C614 1.531 . S
C611 C610 1.369 . S
C611 C612 1.410 . S
C611 C619 1.503 . S
C612 C611 1.410 . S
C612 C613 1.392 . S
C612 C615 1.511 . S
C613 C609 1.376 . S
C613 C612 1.392 . S
C613 H625 0.929 . S
C614 C610 1.531 . S
C614 H626 0.960 . S
C614 H627 0.962 . S
C614 H628 0.960 . S
C615 C612 1.511 . S
C615 H629 0.961 . S
C615 H630 0.961 . S
C615 H631 0.961 . S
C616 C617 1.370 . S
C616 C618 1.363 . S
C616 H632 0.931 . S
C617 C616 1.370 . S
C617 C621 1.408 . S
C618 C616 1.363 . S
C618 C619 1.370 . S
C618 C622 1.524 . S
C619 C611 1.503 . S
C619 C618 1.370 . S
C619 C620 1.403 . S
C620 C619 1.403 . S
C620 C621 1.404 . S
C620 C623 1.539 1_554 S
C621 C617 1.408 . S
C621 C620 1.404 . S
C621 H633 0.930 1_554 S
C622 C618 1.524 . S
C622 H634 0.956 . S
C622 H635 0.961 . S
C622 H636 0.961 . S
C623 C620 1.539 1_556 S
C623 H637 0.958 . S
C623 H638 0.961 . S
C623 H639 0.960 1_556 S
H624 C608 0.931 . S
H625 C613 0.929 . S
H626 C614 0.960 . S
H627 C614 0.962 . S
H628 C614 0.960 . S
H629 C615 0.961 . S
H630 C615 0.961 . S
H631 C615 0.961 . S
H632 C616 0.931 . S
H633 C621 0.930 1_556 S
H634 C622 0.956 . S
H635 C622 0.961 . S
H636 C622 0.961 . S
H637 C623 0.958 . S
H638 C623 0.961 . S
H639 C623 0.960 1_554 S
C640 C641 1.391 . S
C640 C642 1.394 . S
C640 H656 0.931 . S
C641 C640 1.391 . S
C641 C645 1.376 . S
C642 C640 1.394 . S
C642 C643 1.369 . S
C642 C646 1.531 . S
C643 C642 1.369 . S
C643 C644 1.410 . S
C643 C651 1.503 . S
C644 C643 1.410 . S
C644 C645 1.392 . S
C644 C647 1.511 . S
C645 C641 1.376 . S
C645 C644 1.392 . S
C645 H657 0.929 . S
C646 C642 1.531 . S
C646 H658 0.960 . S
C646 H659 0.962 . S
C646 H660 0.960 . S
C647 C644 1.511 . S
C647 H661 0.961 . S
C647 H662 0.961 . S
C647 H663 0.961 . S
C648 C649 1.370 . S
C648 C650 1.363 . S
C648 H664 0.931 . S
C649 C648 1.370 . S
C649 C653 1.408 . S
C650 C648 1.363 . S
C650 C651 1.370 . S
C650 C654 1.524 . S
C651 C643 1.503 . S
C651 C650 1.370 . S
C651 C652 1.403 . S
C652 C651 1.403 . S
C652 C653 1.404 . S
C652 C655 1.539 . S
C653 C649 1.408 . S
C653 C652 1.404 . S
C653 H665 0.930 . S
C654 C650 1.524 . S
C654 H666 0.956 . S
C654 H667 0.961 . S
C654 H668 0.961 . S
C655 C652 1.539 . S
C655 H669 0.958 . S
C655 H670 0.961 . S
C655 H671 0.960 . S
H656 C640 0.931 . S
H657 C645 0.929 . S
H658 C646 0.960 . S
H659 C646 0.962 . S
H660 C646 0.960 . S
H661 C647 0.961 . S
H662 C647 0.961 . S
H663 C647 0.961 . S
H664 C648 0.931 . S
H665 C653 0.930 . S
H666 C654 0.956 . S
H667 C654 0.961 . S
H668 C654 0.961 . S
H669 C655 0.958 . S
H670 C655 0.961 . S
H671 C655 0.960 . S
C672 C673 1.391 . S
C672 C674 1.394 . S
C672 H688 0.931 . S
C673 C672 1.391 . S
C673 C677 1.376 . S
C674 C672 1.394 . S
C674 C675 1.369 . S
C674 C678 1.531 . S
C675 C674 1.369 . S
C675 C676 1.410 . S
C675 C683 1.503 . S
C676 C675 1.410 . S
C676 C677 1.392 . S
C676 C679 1.511 . S
C677 C673 1.376 . S
C677 C676 1.392 . S
C677 H689 0.929 . S
C678 C674 1.531 . S
C678 H690 0.960 . S
C678 H691 0.962 . S
C678 H692 0.960 . S
C679 C676 1.511 . S
C679 H693 0.961 . S
C679 H694 0.961 . S
C679 H695 0.961 . S
C680 C681 1.370 . S
C680 C682 1.363 . S
C680 H696 0.931 . S
C681 C680 1.370 . S
C681 C685 1.408 . S
C682 C680 1.363 . S
C682 C683 1.370 . S
C682 C686 1.524 . S
C683 C675 1.503 . S
C683 C682 1.370 . S
C683 C684 1.403 . S
C684 C683 1.403 . S
C684 C685 1.404 . S
C684 C687 1.539 . S
C685 C681 1.408 . S
C685 C684 1.404 . S
C685 H697 0.930 . S
C686 C682 1.524 . S
C686 H698 0.956 . S
C686 H699 0.961 . S
C686 H700 0.961 . S
C687 C684 1.539 . S
C687 H701 0.958 . S
C687 H702 0.961 . S
C687 H703 0.960 . S
H688 C672 0.931 . S
H689 C677 0.929 . S
H690 C678 0.960 . S
H691 C678 0.962 . S
H692 C678 0.960 . S
H693 C679 0.961 . S
H694 C679 0.961 . S
H695 C679 0.961 . S
H696 C680 0.931 . S
H697 C685 0.930 . S
H698 C686 0.956 . S
H699 C686 0.961 . S
H700 C686 0.961 . S
H701 C687 0.958 . S
H702 C687 0.961 . S
H703 C687 0.960 . S
C704 C705 1.391 . S
C704 C706 1.394 . S
C704 H720 0.931 . S
C705 C704 1.391 . S
C705 C709 1.376 . S
C706 C704 1.394 . S
C706 C707 1.369 . S
C706 C710 1.531 . S
C707 C706 1.369 . S
C707 C708 1.410 . S
C707 C715 1.503 . S
C708 C707 1.410 . S
C708 C709 1.392 . S
C708 C711 1.511 . S
C709 C705 1.376 . S
C709 C708 1.392 . S
C709 H721 0.929 . S
C710 C706 1.531 . S
C710 H722 0.960 . S
C710 H723 0.962 . S
C710 H724 0.960 . S
C711 C708 1.511 . S
C711 H725 0.961 . S
C711 H726 0.961 . S
C711 H727 0.961 . S
C712 C713 1.370 . S
C712 C714 1.363 . S
C712 H728 0.931 . S
C713 C712 1.370 . S
C713 C717 1.408 . S
C714 C712 1.363 . S
C714 C715 1.370 . S
C714 C718 1.524 . S
C715 C707 1.503 . S
C715 C714 1.370 . S
C715 C716 1.403 . S
C716 C715 1.403 . S
C716 C717 1.404 . S
C716 C719 1.539 . S
C717 C713 1.408 . S
C717 C716 1.404 . S
C717 H729 0.930 . S
C718 C714 1.524 . S
C718 H730 0.956 . S
C718 H731 0.961 . S
C718 H732 0.961 . S
C719 C716 1.539 . S
C719 H733 0.958 . S
C719 H734 0.961 1_554 S
C719 H735 0.960 . S
H720 C704 0.931 . S
H721 C709 0.929 . S
H722 C710 0.960 . S
H723 C710 0.962 . S
H724 C710 0.960 . S
H725 C711 0.961 . S
H726 C711 0.961 . S
H727 C711 0.961 . S
H728 C712 0.931 . S
H729 C717 0.930 . S
H730 C718 0.956 . S
H731 C718 0.961 . S
H732 C718 0.961 . S
H733 C719 0.958 . S
H734 C719 0.961 1_556 S
H735 C719 0.960 . S
C736 C737 1.391 . S
C736 C738 1.394 . S
C736 H752 0.931 . S
C737 C736 1.391 . S
C737 C741 1.376 . S
C738 C736 1.394 . S
C738 C739 1.369 . S
C738 C742 1.531 . S
C739 C738 1.369 . S
C739 C740 1.410 . S
C739 C747 1.503 . S
C740 C739 1.410 . S
C740 C741 1.392 . S
C740 C743 1.511 . S
C741 C737 1.376 . S
C741 C740 1.392 . S
C741 H753 0.929 . S
C742 C738 1.531 . S
C742 H754 0.960 . S
C742 H755 0.962 . S
C742 H756 0.960 . S
C743 C740 1.511 . S
C743 H757 0.961 . S
C743 H758 0.961 . S
C743 H759 0.961 . S
C744 C745 1.370 . S
C744 C746 1.363 . S
C744 H760 0.931 . S
C745 C744 1.370 . S
C745 C749 1.408 . S
C746 C744 1.363 . S
C746 C747 1.370 . S
C746 C750 1.524 . S
C747 C739 1.503 . S
C747 C746 1.370 . S
C747 C748 1.403 . S
C748 C747 1.403 . S
C748 C749 1.404 . S
C748 C751 1.539 . S
C749 C745 1.408 . S
C749 C748 1.404 . S
C749 H761 0.930 . S
C750 C746 1.524 . S
C750 H762 0.956 . S
C750 H763 0.961 . S
C750 H764 0.961 . S
C751 C748 1.539 . S
C751 H765 0.958 . S
C751 H766 0.961 . S
C751 H767 0.960 . S
H752 C736 0.931 . S
H753 C741 0.929 . S
H754 C742 0.960 . S
H755 C742 0.962 . S
H756 C742 0.960 . S
H757 C743 0.961 . S
H758 C743 0.961 . S
H759 C743 0.961 . S
H760 C744 0.931 . S
H761 C749 0.930 . S
H762 C750 0.956 . S
H763 C750 0.961 . S
H764 C750 0.961 . S
H765 C751 0.958 . S
H766 C751 0.961 . S
H767 C751 0.960 . S
C768 C769 1.391 . S
C768 C770 1.394 . S
C768 H784 0.931 . S
C769 C768 1.391 . S
C769 C773 1.376 . S
C770 C768 1.394 . S
C770 C771 1.369 . S
C770 C774 1.531 . S
C771 C770 1.369 . S
C771 C772 1.410 . S
C771 C779 1.503 . S
C772 C771 1.410 . S
C772 C773 1.392 . S
C772 C775 1.511 . S
C773 C769 1.376 . S
C773 C772 1.392 . S
C773 H785 0.929 . S
C774 C770 1.531 . S
C774 H786 0.960 . S
C774 H787 0.962 . S
C774 H788 0.960 . S
C775 C772 1.511 . S
C775 H789 0.961 . S
C775 H790 0.961 . S
C775 H791 0.961 . S
C776 C777 1.370 . S
C776 C778 1.363 . S
C776 H792 0.931 . S
C777 C776 1.370 . S
C777 C781 1.408 . S
C778 C776 1.363 . S
C778 C779 1.370 . S
C778 C782 1.524 . S
C779 C771 1.503 . S
C779 C778 1.370 . S
C779 C780 1.403 . S
C780 C779 1.403 . S
C780 C781 1.404 . S
C780 C783 1.539 . S
C781 C777 1.408 . S
C781 C780 1.404 . S
C781 H793 0.930 . S
C782 C778 1.524 . S
C782 H794 0.956 . S
C782 H795 0.961 . S
C782 H796 0.961 . S
C783 C780 1.539 . S
C783 H797 0.958 . S
C783 H798 0.961 . S
C783 H799 0.960 . S
H784 C768 0.931 . S
H785 C773 0.929 . S
H786 C774 0.960 . S
H787 C774 0.962 . S
H788 C774 0.960 . S
H789 C775 0.961 . S
H790 C775 0.961 . S
H791 C775 0.961 . S
H792 C776 0.931 . S
H793 C781 0.930 . S
H794 C782 0.956 . S
H795 C782 0.961 . S
H796 C782 0.961 . S
H797 C783 0.958 . S
H798 C783 0.961 . S
H799 C783 0.960 . S
C800 C801 1.391 . S
C800 C802 1.394 . S
C800 H816 0.931 . S
C801 C800 1.391 . S
C801 C805 1.376 . S
C802 C800 1.394 . S
C802 C803 1.369 . S
C802 C806 1.531 . S
C803 C802 1.369 . S
C803 C804 1.410 . S
C803 C811 1.503 . S
C804 C803 1.410 . S
C804 C805 1.392 . S
C804 C807 1.511 . S
C805 C801 1.376 . S
C805 C804 1.392 . S
C805 H817 0.929 . S
C806 C802 1.531 . S
C806 H818 0.960 . S
C806 H819 0.962 . S
C806 H820 0.960 . S
C807 C804 1.511 . S
C807 H821 0.961 . S
C807 H822 0.961 . S
C807 H823 0.961 . S
C808 C809 1.370 . S
C808 C810 1.363 . S
C808 H824 0.931 . S
C809 C808 1.370 . S
C809 C813 1.408 . S
C810 C808 1.363 . S
C810 C811 1.370 . S
C810 C814 1.524 . S
C811 C803 1.503 . S
C811 C810 1.370 . S
C811 C812 1.403 . S
C812 C811 1.403 . S
C812 C813 1.404 . S
C812 C815 1.539 . S
C813 C809 1.408 . S
C813 C812 1.404 . S
C813 H825 0.930 . S
C814 C810 1.524 . S
C814 H826 0.956 . S
C814 H827 0.961 . S
C814 H828 0.961 . S
C815 C812 1.539 . S
C815 H829 0.958 . S
C815 H830 0.961 . S
C815 H831 0.960 . S
H816 C800 0.931 . S
H817 C805 0.929 . S
H818 C806 0.960 . S
H819 C806 0.962 . S
H820 C806 0.960 . S
H821 C807 0.961 . S
H822 C807 0.961 . S
H823 C807 0.961 . S
H824 C808 0.931 . S
H825 C813 0.930 . S
H826 C814 0.956 . S
H827 C814 0.961 . S
H828 C814 0.961 . S
H829 C815 0.958 . S
H830 C815 0.961 . S
H831 C815 0.960 . S
C832 C833 1.391 1_455 S
C832 C834 1.394 . S
C832 H848 0.931 . S
C833 C832 1.391 1_655 S
C833 C837 1.376 1_545 S
C834 C832 1.394 . S
C834 C835 1.369 1_455 S
C834 C838 1.531 . S
C835 C834 1.369 1_655 S
C835 C836 1.410 1_545 S
C835 C843 1.515 1_656 S
C836 C835 1.410 1_565 S
C836 C837 1.392 . S
C836 C839 1.511 . S
C837 C833 1.376 1_565 S
C837 C836 1.392 . S
C837 H849 0.929 . S
C838 C834 1.531 . S
C838 H850 0.960 1_556 S
C838 H851 0.962 . S
C838 H852 0.960 . S
C839 C836 1.511 . S
C839 H853 0.961 . S
C839 H854 0.961 . S
C839 H855 0.961 . S
C840 C841 1.370 . S
C840 C842 1.363 . S
C840 H856 0.931 . S
C841 C840 1.370 . S
C841 C845 1.408 1_465 S
C842 C840 1.363 . S
C842 C843 1.348 1_565 S
C842 C846 1.524 1_554 S
C843 C835 1.515 1_454 S
C843 C842 1.348 1_545 S
C843 C844 1.414 1_455 S
C844 C843 1.414 1_655 S
C844 C845 1.404 . S
C844 C847 1.539 . S
C845 C841 1.408 1_645 S
C845 C844 1.404 . S
C845 H857 0.930 . S
C846 C842 1.524 1_556 S
C846 H858 0.956 . S
C846 H859 0.961 . S
C846 H860 0.961 1_556 S
C847 C844 1.539 . S
C847 H861 0.958 . S
C847 H862 0.961 . S
C847 H863 0.960 . S
H848 C832 0.931 . S
H849 C837 0.929 . S
H850 C838 0.960 1_554 S
H851 C838 0.962 . S
H852 C838 0.960 . S
H853 C839 0.961 . S
H854 C839 0.961 . S
H855 C839 0.961 . S
H856 C840 0.931 . S
H857 C845 0.930 . S
H858 C846 0.956 . S
H859 C846 0.961 . S
H860 C846 0.961 1_554 S
H861 C847 0.958 . S
H862 C847 0.961 . S
H863 C847 0.960 . S
C864 C865 1.391 . S
C864 C866 1.394 . S
C864 H880 0.931 . S
C865 C864 1.391 . S
C865 C869 1.376 . S
C866 C864 1.394 . S
C866 C867 1.369 . S
C866 C870 1.531 . S
C867 C866 1.369 . S
C867 C868 1.410 . S
C867 C875 1.503 . S
C868 C867 1.410 . S
C868 C869 1.392 . S
C868 C871 1.511 . S
C869 C865 1.376 . S
C869 C868 1.392 . S
C869 H881 0.929 . S
C870 C866 1.531 . S
C870 H882 0.960 . S
C870 H883 0.962 . S
C870 H884 0.960 . S
C871 C868 1.511 . S
C871 H885 0.961 . S
C871 H886 0.961 . S
C871 H887 0.961 . S
C872 C873 1.370 . S
C872 C874 1.363 . S
C872 H888 0.931 . S
C873 C872 1.370 . S
C873 C877 1.408 . S
C874 C872 1.363 . S
C874 C875 1.370 . S
C874 C878 1.524 . S
C875 C867 1.503 . S
C875 C874 1.370 . S
C875 C876 1.403 . S
C876 C875 1.403 . S
C876 C877 1.404 . S
C876 C879 1.539 . S
C877 C873 1.408 . S
C877 C876 1.404 . S
C877 H889 0.930 . S
C878 C874 1.524 . S
C878 H890 0.956 . S
C878 H891 0.961 . S
C878 H892 0.961 . S
C879 C876 1.539 . S
C879 H893 0.958 . S
C879 H894 0.961 . S
C879 H895 0.960 . S
H880 C864 0.931 . S
H881 C869 0.929 . S
H882 C870 0.960 . S
H883 C870 0.962 . S
H884 C870 0.960 . S
H885 C871 0.961 . S
H886 C871 0.961 . S
H887 C871 0.961 . S
H888 C872 0.931 . S
H889 C877 0.930 . S
H890 C878 0.956 . S
H891 C878 0.961 . S
H892 C878 0.961 . S
H893 C879 0.958 . S
H894 C879 0.961 . S
H895 C879 0.960 . S
C896 C897 1.391 . S
C896 C898 1.394 . S
C896 H912 0.931 . S
C897 C896 1.391 . S
C897 C901 1.376 1_565 S
C898 C896 1.394 . S
C898 C899 1.369 . S
C898 C902 1.531 . S
C899 C898 1.369 . S
C899 C900 1.410 1_565 S
C899 C907 1.503 . S
C900 C899 1.410 1_545 S
C900 C901 1.392 . S
C900 C903 1.511 . S
C901 C897 1.376 1_545 S
C901 C900 1.392 . S
C901 H913 0.929 . S
C902 C898 1.531 . S
C902 H914 0.960 . S
C902 H915 0.962 . S
C902 H916 0.960 . S
C903 C900 1.511 . S
C903 H917 0.961 . S
C903 H918 0.961 . S
C903 H919 0.961 . S
C904 C905 1.370 . S
C904 C906 1.363 . S
C904 H920 0.931 . S
C905 C904 1.370 . S
C905 C909 1.408 1_545 S
C906 C904 1.363 . S
C906 C907 1.370 1_545 S
C906 C910 1.524 . S
C907 C899 1.503 . S
C907 C906 1.370 1_565 S
C907 C908 1.403 . S
C908 C907 1.403 . S
C908 C909 1.404 . S
C908 C911 1.539 . S
C909 C905 1.408 1_565 S
C909 C908 1.404 . S
C909 H921 0.930 . S
C910 C906 1.524 . S
C910 H922 0.956 . S
C910 H923 0.961 . S
C910 H924 0.961 . S
C911 C908 1.539 . S
C911 H925 0.958 . S
C911 H926 0.961 . S
C911 H927 0.960 . S
H912 C896 0.931 . S
H913 C901 0.929 . S
H914 C902 0.960 . S
H915 C902 0.962 . S
H916 C902 0.960 . S
H917 C903 0.961 . S
H918 C903 0.961 . S
H919 C903 0.961 . S
H920 C904 0.931 . S
H921 C909 0.930 . S
H922 C910 0.956 . S
H923 C910 0.961 . S
H924 C910 0.961 . S
H925 C911 0.958 . S
H926 C911 0.961 . S
H927 C911 0.960 . S
C928 C929 1.391 . S
C928 C930 1.394 . S
C928 H944 0.931 . S
C929 C928 1.391 . S
C929 C933 1.376 . S
C930 C928 1.394 . S
C930 C931 1.369 . S
C930 C934 1.531 . S
C931 C930 1.369 . S
C931 C932 1.410 . S
C931 C939 1.503 . S
C932 C931 1.410 . S
C932 C933 1.392 . S
C932 C935 1.511 . S
C933 C929 1.376 . S
C933 C932 1.392 . S
C933 H945 0.929 . S
C934 C930 1.531 . S
C934 H946 0.960 . S
C934 H947 0.962 . S
C934 H948 0.960 . S
C935 C932 1.511 . S
C935 H949 0.961 . S
C935 H950 0.961 . S
C935 H951 0.961 . S
C936 C937 1.370 . S
C936 C938 1.363 . S
C936 H952 0.931 . S
C937 C936 1.370 . S
C937 C941 1.408 . S
C938 C936 1.363 . S
C938 C939 1.370 . S
C938 C942 1.524 . S
C939 C931 1.503 . S
C939 C938 1.370 . S
C939 C940 1.403 . S
C940 C939 1.403 . S
C940 C941 1.404 . S
C940 C943 1.539 . S
C941 C937 1.408 . S
C941 C940 1.404 . S
C941 H953 0.930 . S
C942 C938 1.524 . S
C942 H954 0.956 . S
C942 H955 0.961 . S
C942 H956 0.961 . S
C943 C940 1.539 . S
C943 H957 0.958 . S
C943 H958 0.961 . S
C943 H959 0.960 . S
H944 C928 0.931 . S
H945 C933 0.929 . S
H946 C934 0.960 . S
H947 C934 0.962 . S
H948 C934 0.960 . S
H949 C935 0.961 . S
H950 C935 0.961 . S
H951 C935 0.961 . S
H952 C936 0.931 . S
H953 C941 0.930 . S
H954 C942 0.956 . S
H955 C942 0.961 . S
H956 C942 0.961 . S
H957 C943 0.958 . S
H958 C943 0.961 . S
H959 C943 0.960 . S
C960 C961 1.391 . S
C960 C962 1.394 . S
C960 H976 0.931 . S
C961 C960 1.391 . S
C961 C965 1.376 . S
C962 C960 1.394 . S
C962 C963 1.369 . S
C962 C966 1.531 . S
C963 C962 1.369 . S
C963 C964 1.410 . S
C963 C971 1.503 . S
C964 C963 1.410 . S
C964 C965 1.392 . S
C964 C967 1.511 . S
C965 C961 1.376 . S
C965 C964 1.392 . S
C965 H977 0.929 . S
C966 C962 1.531 . S
C966 H978 0.960 . S
C966 H979 0.962 . S
C966 H980 0.960 . S
C967 C964 1.511 . S
C967 H981 0.961 . S
C967 H982 0.961 . S
C967 H983 0.961 . S
C968 C969 1.370 . S
C968 C970 1.363 . S
C968 H984 0.931 . S
C969 C968 1.370 . S
C969 C973 1.408 . S
C970 C968 1.363 . S
C970 C971 1.370 . S
C970 C974 1.524 . S
C971 C963 1.503 . S
C971 C970 1.370 . S
C971 C972 1.403 . S
C972 C971 1.403 . S
C972 C973 1.404 . S
C972 C975 1.539 . S
C973 C969 1.408 . S
C973 C972 1.404 . S
C973 H985 0.930 . S
C974 C970 1.524 . S
C974 H986 0.956 . S
C974 H987 0.961 . S
C974 H988 0.961 . S
C975 C972 1.539 . S
C975 H989 0.958 . S
C975 H990 0.961 . S
C975 H991 0.960 . S
H976 C960 0.931 . S
H977 C965 0.929 . S
H978 C966 0.960 . S
H979 C966 0.962 . S
H980 C966 0.960 . S
H981 C967 0.961 . S
H982 C967 0.961 . S
H983 C967 0.961 . S
H984 C968 0.931 . S
H985 C973 0.930 . S
H986 C974 0.956 . S
H987 C974 0.961 . S
H988 C974 0.961 . S
H989 C975 0.958 . S
H990 C975 0.961 . S
H991 C975 0.960 . S
C992 C993 1.391 . S
C992 C994 1.394 . S
C992 H1008 0.931 . S
C993 C992 1.391 . S
C993 C997 1.376 . S
C994 C992 1.394 . S
C994 C995 1.369 . S
C994 C998 1.531 . S
C995 C994 1.369 . S
C995 C996 1.410 . S
C995 C1003 1.503 . S
C996 C995 1.410 . S
C996 C997 1.392 . S
C996 C999 1.511 . S
C997 C993 1.376 . S
C997 C996 1.392 . S
C997 H1009 0.929 . S
C998 C994 1.531 . S
C998 H1010 0.960 . S
C998 H1011 0.962 . S
C998 H1012 0.960 . S
C999 C996 1.511 . S
C999 H1013 0.961 . S
C999 H1014 0.961 . S
C999 H1015 0.961 . S
C1000 C1001 1.370 . S
C1000 C1002 1.363 . S
C1000 H1016 0.931 . S
C1001 C1000 1.370 . S
C1001 C1005 1.408 . S
C1002 C1000 1.363 . S
C1002 C1003 1.370 . S
C1002 C1006 1.524 . S
C1003 C995 1.503 . S
C1003 C1002 1.370 . S
C1003 C1004 1.403 . S
C1004 C1003 1.403 . S
C1004 C1005 1.404 . S
C1004 C1007 1.539 . S
C1005 C1001 1.408 . S
C1005 C1004 1.404 . S
C1005 H1017 0.930 . S
C1006 C1002 1.524 . S
C1006 H1018 0.956 . S
C1006 H1019 0.961 . S
C1006 H1020 0.961 . S
C1007 C1004 1.539 . S
C1007 H1021 0.958 . S
C1007 H1022 0.961 . S
C1007 H1023 0.960 . S
H1008 C992 0.931 . S
H1009 C997 0.929 . S
H1010 C998 0.960 . S
H1011 C998 0.962 . S
H1012 C998 0.960 . S
H1013 C999 0.961 . S
H1014 C999 0.961 . S
H1015 C999 0.961 . S
H1016 C1000 0.931 . S
H1017 C1005 0.930 . S
H1018 C1006 0.956 . S
H1019 C1006 0.961 . S
H1020 C1006 0.961 . S
H1021 C1007 0.958 . S
H1022 C1007 0.961 . S
H1023 C1007 0.960 . S
C1024 C1025 1.391 . S
C1024 C1026 1.394 . S
C1024 H1040 0.931 . S
C1025 C1024 1.391 . S
C1025 C1029 1.376 . S
C1026 C1024 1.394 . S
C1026 C1027 1.369 . S
C1026 C1030 1.531 . S
C1027 C1026 1.369 . S
C1027 C1028 1.410 . S
C1027 C1035 1.503 . S
C1028 C1027 1.410 . S
C1028 C1029 1.392 . S
C1028 C1031 1.511 . S
C1029 C1025 1.376 . S
C1029 C1028 1.392 . S
C1029 H1041 0.929 . S
C1030 C1026 1.531 . S
C1030 H1042 0.960 . S
C1030 H1043 0.962 . S
C1030 H1044 0.960 . S
C1031 C1028 1.511 . S
C1031 H1045 0.961 . S
C1031 H1046 0.961 . S
C1031 H1047 0.961 . S
C1032 C1033 1.370 . S
C1032 C1034 1.363 . S
C1032 H1048 0.931 . S
C1033 C1032 1.370 . S
C1033 C1037 1.408 . S
C1034 C1032 1.363 . S
C1034 C1035 1.370 . S
C1034 C1038 1.524 . S
C1035 C1027 1.503 . S
C1035 C1034 1.370 . S
C1035 C1036 1.403 . S
C1036 C1035 1.403 . S
C1036 C1037 1.404 . S
C1036 C1039 1.539 . S
C1037 C1033 1.408 . S
C1037 C1036 1.404 . S
C1037 H1049 0.930 . S
C1038 C1034 1.524 . S
C1038 H1050 0.956 . S
C1038 H1051 0.961 . S
C1038 H1052 0.961 . S
C1039 C1036 1.539 . S
C1039 H1053 0.958 . S
C1039 H1054 0.961 . S
C1039 H1055 0.960 . S
H1040 C1024 0.931 . S
H1041 C1029 0.929 . S
H1042 C1030 0.960 . S
H1043 C1030 0.962 . S
H1044 C1030 0.960 . S
H1045 C1031 0.961 . S
H1046 C1031 0.961 . S
H1047 C1031 0.961 . S
H1048 C1032 0.931 . S
H1049 C1037 0.930 . S
H1050 C1038 0.956 . S
H1051 C1038 0.961 . S
H1052 C1038 0.961 . S
H1053 C1039 0.958 . S
H1054 C1039 0.961 . S
H1055 C1039 0.960 . S
C1056 C1057 1.391 . S
C1056 C1058 1.394 . S
C1056 H1072 0.931 . S
C1057 C1056 1.391 . S
C1057 C1061 1.376 1_655 S
C1058 C1056 1.394 . S
C1058 C1059 1.392 . S
C1058 C1062 1.531 . S
C1059 C1058 1.392 . S
C1059 C1060 1.390 1_655 S
C1059 C1067 1.502 1_656 S
C1060 C1059 1.390 1_455 S
C1060 C1061 1.392 . S
C1060 C1063 1.511 . S
C1061 C1057 1.376 1_455 S
C1061 C1060 1.392 . S
C1061 H1073 0.929 . S
C1062 C1058 1.531 . S
C1062 H1074 0.960 . S
C1062 H1075 0.962 . S
C1062 H1076 0.960 . S
C1063 C1060 1.511 . S
C1063 H1077 0.961 . S
C1063 H1078 0.961 1_556 S
C1063 H1079 0.961 . S
C1064 C1065 1.370 . S
C1064 C1066 1.363 1_455 S
C1064 H1080 0.931 1_455 S
C1065 C1064 1.370 . S
C1065 C1069 1.408 . S
C1066 C1064 1.363 1_655 S
C1066 C1067 1.370 1_655 S
C1066 C1070 1.524 . S
C1067 C1059 1.502 1_454 S
C1067 C1066 1.370 1_455 S
C1067 C1068 1.403 . S
C1068 C1067 1.403 . S
C1068 C1069 1.404 . S
C1068 C1071 1.539 . S
C1069 C1065 1.408 . S
C1069 C1068 1.404 . S
C1069 H1081 0.930 . S
C1070 C1066 1.524 . S
C1070 H1082 0.956 . S
C1070 H1083 0.961 . S
C1070 H1084 0.961 . S
C1071 C1068 1.539 . S
C1071 H1085 0.958 1_554 S
C1071 H1086 0.961 . S
C1071 H1087 0.960 1_554 S
H1072 C1056 0.931 . S
H1073 C1061 0.929 . S
H1074 C1062 0.960 . S
H1075 C1062 0.962 . S
H1076 C1062 0.960 . S
H1077 C1063 0.961 . S
H1078 C1063 0.961 1_554 S
H1079 C1063 0.961 . S
H1080 C1064 0.931 1_655 S
H1081 C1069 0.930 . S
H1082 C1070 0.956 . S
H1083 C1070 0.961 . S
H1084 C1070 0.961 . S
H1085 C1071 0.958 1_556 S
H1086 C1071 0.961 . S
H1087 C1071 0.960 1_556 S
C321 C10 2.049 . S
C329 C130 2.050 . S
C353 C9 1.485 . S
C361 C50 1.542 . S
C385 C49 0.896 . S
C393 C89 0.892 . S
C417 C90 1.540 . S
C425 C129 1.501 . S
C449 C19 2.042 . S
C457 C219 2.056 . S
C481 C18 1.506 . S
C489 C179 1.536 . S
C513 C178 0.868 . S
C521 C98 0.905 . S
C545 C218 1.524 . S
C553 C99 1.536 . S
C577 C250 2.043 . S
C585 C210 2.053 . S
C609 C170 1.545 . S
C617 C249 1.502 . S
C641 C289 0.870 . S
C649 C169 0.915 . S
C673 C209 1.530 . S
C681 C290 1.535 . S
C705 C139 2.050 . S
C713 C259 2.049 . S
C737 C258 1.485 . S
C745 C59 1.544 . S
C769 C58 0.872 . S
C777 C298 0.908 . S
C801 C138 1.527 . S
C809 C299 1.531 . S
C833 C15 1.563 . S
C841 C6 1.533 . S
C865 C46 1.446 . S
C873 C55 1.418 . S
C897 C95 1.412 . S
C905 C86 1.434 . S
C929 C135 1.528 . S
C937 C126 1.546 . S
C961 C166 1.444 . S
C969 C175 1.420 . S
C993 C215 1.514 . S
C1001 C206 1.553 . S
C1025 C246 1.544 . S
C1033 C255 1.540 . S
C1057 C286 1.404 . S
C1065 C295 1.437 . S
