# Generated by pormake.
# Topology rob, (6)-cn, num edge types: 1
# Building blocks:
#     Node 0, Type 0, BuildingBlock: BETDAH_clean_sbu_0, # of connection points: 6
#     Node 1, Type 0, BuildingBlock: BETDAH_clean_sbu_0, # of connection points: 6
#     Node 2, Type 0, BuildingBlock: BETDAH_clean_sbu_0, # of connection points: 6
#     Node 3, Type 0, BuildingBlock: BETDAH_clean_sbu_0, # of connection points: 6
#     Edge 4, Type (0, 0), BuildingBlock: UKIBUN_clean_linker_0, # of connection points: 2
#     Edge 5, Type (0, 0), BuildingBlock: UKIBUN_clean_linker_0, # of connection points: 2
#     Edge 6, Type (0, 0), BuildingBlock: UKIBUN_clean_linker_0, # of connection points: 2
#     Edge 7, Type (0, 0), BuildingBlock: UKIBUN_clean_linker_0, # of connection points: 2
#     Edge 8, Type (0, 0), BuildingBlock: UKIBUN_clean_linker_0, # of connection points: 2
#     Edge 9, Type (0, 0), BuildingBlock: UKIBUN_clean_linker_0, # of connection points: 2
#     Edge 10, Type (0, 0), BuildingBlock: UKIBUN_clean_linker_0, # of connection points: 2
#     Edge 11, Type (0, 0), BuildingBlock: UKIBUN_clean_linker_0, # of connection points: 2
#     Edge 12, Type (0, 0), BuildingBlock: UKIBUN_clean_linker_0, # of connection points: 2
#     Edge 13, Type (0, 0), BuildingBlock: UKIBUN_clean_linker_0, # of connection points: 2
#     Edge 14, Type (0, 0), BuildingBlock: UKIBUN_clean_linker_0, # of connection points: 2
#     Edge 15, Type (0, 0), BuildingBlock: UKIBUN_clean_linker_0, # of connection points: 2
# Relax obj value: 0.073
# Max RMSD: 0.156
# Mean RMSD: 0.156
data_MOF--net-rob--node1-BETDAH_clean_sbu_0--edge1-UKIBUN_clean_linker_0
_symmetry_space_group_name_H-M    P1
_symmetry_Int_Tables_number       1
_symmetry_cell_setting            triclinic
loop_
_symmetry_equiv_pos_as_xyz
'x, y, z'
_cell_length_a     23.825413
_cell_length_b     41.808469
_cell_length_c     55.596576
_cell_angle_alpha  90.004747
_cell_angle_beta   116.59112
_cell_angle_gamma 89.941267
loop_
_atom_site_label
_atom_site_type_symbol
_atom_site_fract_x
_atom_site_fract_y
_atom_site_fract_z
_atom_type_partial_charge
Ho0 Ho 0.15834 0.27698 -0.00512 0.0
Ho1 Ho 0.27044 0.24565 0.98358 0.0
C2 C 0.29629 0.25771 0.04435 0.0
C3 C 0.08529 0.28131 0.01831 0.0
C4 C 0.08869 0.28762 0.04553 0.0
C5 C 0.09195 0.26181 0.06246 0.0
C6 C 0.07994 0.26634 0.08467 0.0
C7 C 0.0649 0.2968 0.09067 0.0
C8 C 0.06726 0.3231 0.07544 0.0
C9 C 0.07896 0.31856 0.05307 0.0
C10 C 0.23593 0.3217 -0.00863 0.0
C11 C 0.1345 0.26561 0.93391 0.0
C12 C 0.34243 0.24242 0.95948 0.0
C13 C 0.34307 0.23698 0.933 0.0
C14 C 0.34644 0.26349 0.9181 0.0
C15 C 0.35916 0.25952 0.89609 0.0
C16 C 0.36765 0.22885 0.88794 0.0
C17 C 0.36217 0.20215 0.90211 0.0
C18 C 0.35006 0.20616 0.92442 0.0
C19 C 0.19196 0.20328 -0.01035 0.0
O20 O 0.23822 0.26826 0.03509 0.0
O21 O 0.32328 0.24891 0.02892 0.0
O22 O 0.09408 0.30501 0.00492 0.0
O23 O 0.10966 0.25459 0.01514 0.0
O24 O 0.18409 0.32791 -0.00717 0.0
O25 O 0.24693 0.2919 -0.0042 0.0
O26 O 0.18747 0.24932 0.94407 0.0
O27 O 0.10957 0.27854 0.94899 0.0
O28 O 0.3342 0.21827 0.97262 0.0
O29 O 0.31499 0.26842 0.96188 0.0
O30 O 0.2481 0.19617 -0.00745 0.0
O31 O 0.17807 0.23129 0.97989 0.0
H32 H 0.10004 0.23769 0.05764 0.0
H33 H 0.07985 0.24577 0.09653 0.0
H34 H 0.05613 0.3469 0.07977 0.0
H35 H 0.07662 0.33907 0.04078 0.0
H36 H 0.34202 0.2876 0.92416 0.0
H37 H 0.36384 0.28067 0.88587 0.0
H38 H 0.36722 0.17814 0.89598 0.0
H39 H 0.348 0.18518 0.93539 0.0
Ho40 Ho 0.65739 0.77874 -0.0059 0.0
Ho41 Ho 0.77197 0.74712 0.98326 0.0
C42 C 0.79522 0.75953 0.04387 0.0
C43 C 0.58656 0.7826 0.01853 0.0
C44 C 0.58841 0.78816 0.04544 0.0
C45 C 0.58686 0.76156 0.06057 0.0
C46 C 0.57438 0.76515 0.08261 0.0
C47 C 0.56435 0.79557 0.0907 0.0
C48 C 0.56939 0.82256 0.07667 0.0
C49 C 0.58132 0.8189 0.05423 0.0
C50 C 0.73297 0.82183 0.98768 0.0
C51 C 0.63418 0.76677 0.9336 0.0
C52 C 0.8471 0.7424 0.96082 0.0
C53 C 0.84561 0.73715 0.93382 0.0
C54 C 0.84776 0.76362 0.9186 0.0
C55 C 0.85924 0.75961 0.89624 0.0
C56 C 0.86757 0.72895 0.888 0.0
C57 C 0.86238 0.70226 0.90225 0.0
C58 C 0.85147 0.7063 0.92489 0.0
C59 C 0.69071 0.7025 0.98512 0.0
O60 O 0.74127 0.77511 0.0336 0.0
O61 O 0.82068 0.74658 0.029 0.0
O62 O 0.59496 0.80662 0.00535 0.0
O63 O 0.61213 0.7562 0.01556 0.0
O64 O 0.67893 0.82865 0.98708 0.0
O65 O 0.74837 0.79339 -0.00356 0.0
O66 O 0.69247 0.7564 0.94298 0.0
O67 O 0.60625 0.77515 0.94878 0.0
O68 O 0.83483 0.71838 0.97287 0.0
O69 O 0.82461 0.76943 0.96467 0.0
O70 O 0.74205 0.6959 0.98334 0.0
O71 O 0.68682 0.73266 0.98525 0.0
H72 H 0.59148 0.73753 0.0544 0.0
H73 H 0.5695 0.74372 0.09245 0.0
H74 H 0.56261 0.84638 0.08261 0.0
H75 H 0.58221 0.83998 0.0431 0.0
H76 H 0.8436 0.78773 0.92472 0.0
H77 H 0.8634 0.78075 0.88588 0.0
H78 H 0.86703 0.67825 0.89601 0.0
H79 H 0.84983 0.68529 0.93592 0.0
Ho80 Ho 0.26925 0.77688 0.48203 0.0
Ho81 Ho 0.16101 0.74798 0.4953 0.0
C82 C 0.13129 0.75644 0.43351 0.0
C83 C 0.34382 0.7823 0.4593 0.0
C84 C 0.34224 0.78815 0.43244 0.0
C85 C 0.33853 0.76201 0.41581 0.0
C86 C 0.35076 0.76589 0.3937 0.0
C87 C 0.36679 0.79597 0.38753 0.0
C88 C 0.36554 0.8227 0.40255 0.0
C89 C 0.35357 0.8188 0.42492 0.0
C90 C 0.19531 0.82117 0.48833 0.0
C91 C 0.2987 0.76668 0.54421 0.0
C92 C 0.08843 0.74365 0.51914 0.0
C93 C 0.09025 0.73745 0.54608 0.0
C94 C 0.09262 0.76328 0.56283 0.0
C95 C 0.0799 0.75875 0.58485 0.0
C96 C 0.06479 0.72829 0.59076 0.0
C97 C 0.06738 0.70201 0.57556 0.0
C98 C 0.07986 0.70655 0.55341 0.0
C99 C 0.23736 0.7039 0.48948 0.0
O100 O 0.19003 0.76563 0.44176 0.0
O101 O 0.10575 0.75033 0.45 0.0
O102 O 0.33195 0.80599 0.47174 0.0
O103 O 0.32055 0.75529 0.46254 0.0
O104 O 0.24999 0.82709 0.48948 0.0
O105 O 0.17799 0.79323 0.4789 0.0
O106 O 0.24103 0.75583 0.53523 0.0
O107 O 0.32367 0.77555 0.52796 0.0
O108 O 0.09754 0.71991 0.50589 0.0
O109 O 0.11345 0.77023 0.51621 0.0
O110 O 0.18086 0.69812 0.48651 0.0
O111 O 0.253 0.73192 0.49896 0.0
H112 H 0.32922 0.73812 0.42062 0.0
H113 H 0.3491 0.74511 0.38173 0.0
H114 H 0.37654 0.84628 0.39775 0.0
H115 H 0.35623 0.83953 0.43704 0.0
H116 H 0.1008 0.78741 0.55807 0.0
H117 H 0.07948 0.77931 0.59666 0.0
H118 H 0.05603 0.67822 0.57978 0.0
H119 H 0.07783 0.68605 0.54116 0.0
Ho120 Ho 0.76977 0.27678 0.48261 0.0
Ho121 Ho 0.66248 0.2475 0.49591 0.0
C122 C 0.63204 0.25801 0.43375 0.0
C123 C 0.84409 0.28141 0.45972 0.0
C124 C 0.8443 0.28734 0.4332 0.0
C125 C 0.84734 0.26108 0.41801 0.0
C126 C 0.85958 0.26537 0.39593 0.0
C127 C 0.86777 0.29614 0.38791 0.0
C128 C 0.86238 0.32268 0.40229 0.0
C129 C 0.85083 0.31833 0.42474 0.0
C130 C 0.69605 0.32108 0.48895 0.0
C131 C 0.79939 0.26875 0.54453 0.0
C132 C 0.58875 0.24242 0.51919 0.0
C133 C 0.58997 0.23671 0.54606 0.0
C134 C 0.59222 0.26279 0.5626 0.0
C135 C 0.57958 0.25855 0.58468 0.0
C136 C 0.56461 0.22816 0.5908 0.0
C137 C 0.56706 0.20172 0.57575 0.0
C138 C 0.57947 0.20596 0.55357 0.0
C139 C 0.73994 0.20411 0.49002 0.0
O140 O 0.69 0.26838 0.44267 0.0
O141 O 0.60712 0.24933 0.45007 0.0
O142 O 0.83372 0.30517 0.47257 0.0
O143 O 0.81844 0.25484 0.46222 0.0
O144 O 0.75164 0.3265 0.49086 0.0
O145 O 0.67794 0.29319 0.47936 0.0
O146 O 0.74136 0.25847 0.53632 0.0
O147 O 0.82454 0.27542 0.52799 0.0
O148 O 0.60011 0.21864 0.50666 0.0
O149 O 0.61255 0.26922 0.516 0.0
O150 O 0.68398 0.19758 0.48733 0.0
O151 O 0.75462 0.23199 0.49975 0.0
H152 H 0.8431 0.23687 0.42391 0.0
H153 H 0.8642 0.24435 0.38556 0.0
H154 H 0.86718 0.34676 0.39624 0.0
H155 H 0.84888 0.33916 0.43589 0.0
H156 H 0.60043 0.28683 0.55768 0.0
H157 H 0.57921 0.27923 0.59637 0.0
H158 H 0.55572 0.178 0.58012 0.0
H159 H 0.57743 0.18532 0.54145 0.0
C160 C 0.59757 0.6808 -0.00844 0.0
C161 C 0.6456 0.67715 0.98362 0.0
C162 C 0.55746 0.65503 -0.01074 0.0
C163 C 0.40844 0.54551 0.97697 0.0
C164 C 0.31801 0.3457 0.97858 0.0
C165 C 0.27528 0.34829 -0.01043 0.0
C166 C 0.34511 0.37337 0.97377 0.0
C167 C 0.44195 0.48999 0.95831 0.0
H168 H 0.59086 0.70304 -0.00045 0.0
H169 H 0.52069 0.65809 -0.00452 0.0
H170 H 0.39578 0.56677 0.98459 0.0
H171 H 0.32917 0.32294 0.97295 0.0
H172 H 0.37691 0.37118 0.96474 0.0
H173 H 0.45597 0.46853 0.95146 0.0
C174 C 0.65257 0.64728 0.97357 0.0
C175 C 0.61251 0.62195 0.97101 0.0
C176 C 0.4715 0.51898 0.95869 0.0
C177 C 0.2628 0.3789 -0.00331 0.0
C178 C 0.28961 0.40618 -0.00801 0.0
C179 C 0.3789 0.51649 0.97661 0.0
C180 C 0.56461 0.62566 0.97868 0.0
C181 C 0.52319 0.59911 0.97528 0.0
C182 C 0.49093 0.57567 0.97172 0.0
C183 C 0.45573 0.54668 0.96854 0.0
H184 H 0.68883 0.64344 0.96717 0.0
H185 H 0.61887 0.59944 0.96285 0.0
H186 H 0.50794 0.51953 0.95208 0.0
H187 H 0.23075 0.38202 0.00549 0.0
H188 H 0.27785 0.42936 -0.00275 0.0
H189 H 0.34385 0.51569 0.984 0.0
C190 C 0.32987 0.40366 0.98008 0.0
C191 C 0.35435 0.43254 0.97437 0.0
C192 C 0.37221 0.45806 0.97047 0.0
C193 C 0.3966 0.48856 0.96779 0.0
C194 C 0.33617 0.6812 0.48922 0.0
C195 C 0.28196 0.67729 0.49299 0.0
C196 C 0.376 0.65511 0.49217 0.0
C197 C 0.52303 0.54447 0.50517 0.0
C198 C 0.60677 0.34505 0.49644 0.0
C199 C 0.65647 0.34824 0.4895 0.0
C200 C 0.57851 0.37235 0.50108 0.0
C201 C 0.47857 0.4877 0.51718 0.0
H202 H 0.34792 0.70413 0.48397 0.0
H203 H 0.41722 0.65851 0.48894 0.0
H204 H 0.54003 0.56624 0.50011 0.0
H205 H 0.59071 0.32189 0.49896 0.0
H206 H 0.54151 0.36959 0.5072 0.0
H207 H 0.46038 0.4658 0.52142 0.0
C208 C 0.26914 0.64681 0.50008 0.0
C209 C 0.30939 0.62105 0.50353 0.0
C210 C 0.44937 0.51678 0.51695 0.0
C211 C 0.67433 0.37917 0.48566 0.0
C212 C 0.64578 0.40618 0.48989 0.0
C213 C 0.55225 0.51535 0.50538 0.0
C214 C 0.36295 0.62502 0.49961 0.0
C215 C 0.40415 0.5981 0.50355 0.0
C216 C 0.43616 0.57448 0.50723 0.0
C217 C 0.47068 0.54516 0.5104 0.0
H218 H 0.22818 0.64288 0.50336 0.0
H219 H 0.29861 0.59797 0.50932 0.0
H220 H 0.409 0.51695 0.52107 0.0
H221 H 0.7117 0.38268 0.47989 0.0
H222 H 0.66144 0.42966 0.48722 0.0
H223 H 0.59141 0.51499 0.50045 0.0
C224 C 0.59889 0.40295 0.49821 0.0
C225 C 0.57278 0.43138 0.50378 0.0
C226 C 0.55397 0.45653 0.50791 0.0
C227 C 0.52918 0.48684 0.51085 0.0
C228 C 0.10457 0.17888 -0.0026 0.0
C229 C 0.14495 0.17786 0.98518 0.0
C230 C 0.06345 0.1535 -0.00573 0.0
C231 C 0.91314 0.0467 0.98358 0.0
C232 C 0.80906 0.84785 0.97364 0.0
C233 C 0.77597 0.84803 -0.01087 0.0
C234 C 0.83582 0.87616 0.96993 0.0
C235 C 0.92744 0.99386 0.95586 0.0
H236 H 0.10648 0.19838 0.01033 0.0
H237 H 0.03334 0.15456 0.00419 0.0
H238 H 0.90804 0.06687 -0.00531 0.0
H239 H 0.81019 0.82678 0.96273 0.0
H240 H 0.85924 0.87597 0.95712 0.0
H241 H 0.93415 0.97338 0.94546 0.0
C242 C 0.14329 0.15091 0.96974 0.0
C243 C 0.10237 0.12555 0.96665 0.0
C244 C 0.95772 0.0226 0.95629 0.0
C245 C 0.77295 0.87659 0.00191 0.0
C246 C 0.79886 0.90477 -0.00203 0.0
C247 C 0.88284 0.01791 0.98316 0.0
C248 C 0.06243 0.12671 0.97895 0.0
C249 C 0.02154 0.1001 0.97619 0.0
C250 C -0.01184 0.0773 0.97333 0.0
C251 C 0.95167 0.04889 0.9706 0.0
H252 H 0.17407 0.14935 0.96018 0.0
H253 H 0.10233 0.10492 0.95484 0.0
H254 H -0.01268 0.02397 0.94616 0.0
H255 H 0.74745 0.87756 0.01387 0.0
H256 H 0.79347 0.92674 0.0071 0.0
H257 H 0.85483 0.01615 -0.00599 0.0
C258 C 0.82892 0.90482 0.98144 0.0
C259 C 0.85041 0.93468 0.97584 0.0
C260 C 0.86704 0.96061 0.97216 0.0
C261 C 0.89107 0.99127 0.96974 0.0
C262 C 0.82439 0.17915 0.48041 0.0
C263 C 0.78598 0.17841 0.4936 0.0
C264 C 0.86507 0.15366 0.48302 0.0
C265 C 0.01624 0.04676 0.49327 0.0
C266 C 0.12281 0.84801 0.50401 0.0
C267 C 0.15393 0.84785 0.48769 0.0
C268 C 0.09676 0.87643 0.50802 0.0
C269 C 0.00512 0.99444 0.52228 0.0
H270 H 0.82142 0.19859 0.46725 0.0
H271 H 0.89383 0.15458 0.47246 0.0
H272 H 0.02014 0.0667 0.48167 0.0
H273 H 0.12243 0.8271 0.5152 0.0
H274 H 0.07472 0.87641 0.52137 0.0
H275 H -0.00038 0.97416 0.53318 0.0
C276 C 0.78864 0.15147 0.5092 0.0
C277 C 0.82919 0.12603 0.5118 0.0
C278 C -0.02532 0.02319 0.52183 0.0
C279 C 0.15626 0.87628 0.47468 0.0
C280 C 0.13082 0.90458 0.47883 0.0
C281 C 0.0467 0.01796 0.49371 0.0
C282 C 0.86763 0.12701 0.49876 0.0
C283 C 0.90874 0.10044 0.50136 0.0
C284 C 0.94228 0.07764 0.50415 0.0
C285 C -0.02094 0.04923 0.50687 0.0
H286 H 0.75914 0.15005 0.51937 0.0
H287 H 0.83025 0.10551 0.5239 0.0
H288 H 0.94619 0.02476 0.53247 0.0
H289 H 0.18051 0.87698 0.46221 0.0
H290 H 0.13526 0.92641 0.46932 0.0
H291 H 0.07359 0.01601 0.48238 0.0
C292 C 0.10234 0.90493 0.49599 0.0
C293 C 0.08094 0.93487 0.50164 0.0
C294 C 0.0642 0.96081 0.50537 0.0
C295 C 0.04005 0.99155 0.50776 0.0
C296 C 0.55198 0.23557 0.38907 0.0
C297 C 0.59683 0.25866 0.40392 0.0
C298 C 0.52473 0.23585 0.36077 0.0
C299 C 0.40353 0.24537 0.24946 0.0
C300 C 0.36596 0.27897 0.0898 0.0
C301 C 0.32715 0.25443 0.07374 0.0
C302 C 0.37773 0.28191 0.11679 0.0
C303 C 0.44109 0.29185 0.22345 0.0
H304 H 0.53865 0.21719 0.39922 0.0
H305 H 0.4895 0.21817 0.34955 0.0
H306 H 0.38914 0.22699 0.25927 0.0
H307 H 0.38424 0.29689 0.08111 0.0
H308 H 0.40726 0.30122 0.12881 0.0
H309 H 0.45685 0.30965 0.21367 0.0
C310 C 0.6155 0.28111 0.38983 0.0
C311 C 0.58842 0.28134 0.3618 0.0
C312 C 0.46738 0.29136 0.25161 0.0
C313 C 0.29983 0.23314 0.08508 0.0
C314 C 0.31137 0.23613 0.11197 0.0
C315 C 0.37723 0.24587 0.2213 0.0
C316 C 0.54168 0.25923 0.34706 0.0
C317 C 0.50854 0.26198 0.31804 0.0
C318 C 0.48171 0.2649 0.29381 0.0
C319 C 0.44984 0.26763 0.26477 0.0
H320 H 0.65113 0.29888 0.40053 0.0
H321 H 0.60305 0.2993 0.35169 0.0
H322 H 0.50279 0.30887 0.2631 0.0
H323 H 0.2666 0.21523 0.07263 0.0
H324 H 0.28904 0.21969 0.12009 0.0
H325 H 0.34314 0.2278 0.20983 0.0
C326 C 0.3503 0.26061 0.12796 0.0
C327 C 0.36374 0.26344 0.15596 0.0
C328 C 0.37609 0.26657 0.17945 0.0
C329 C 0.39688 0.26868 0.20818 0.0
C330 C 0.49757 0.81946 0.11075 0.0
C331 C 0.54528 0.79814 0.11267 0.0
C332 C 0.47336 0.81796 0.12941 0.0
C333 C 0.38808 0.80785 0.20572 0.0
C334 C 0.42518 0.77642 0.36276 0.0
C335 C 0.38385 0.79881 0.3652 0.0
C336 C 0.4314 0.77465 0.3391 0.0
C337 C 0.44436 0.76158 0.24594 0.0
H338 H 0.47695 0.8362 0.09421 0.0
H339 H 0.43558 0.8339 0.12741 0.0
H340 H 0.36747 0.82626 0.19052 0.0
H341 H 0.45028 0.75935 0.37865 0.0
H342 H 0.46107 0.75634 0.3369 0.0
H343 H 0.46741 0.74418 0.26182 0.0
C344 C 0.57039 0.77666 0.13448 0.0
C345 C 0.54559 0.77491 0.15278 0.0
C346 C 0.45712 0.76189 0.22391 0.0
C347 C 0.35319 0.82119 0.34461 0.0
C348 C 0.35943 0.81935 0.32093 0.0
C349 C 0.37533 0.80755 0.22774 0.0
C350 C 0.4964 0.7951 0.14987 0.0
C351 C 0.46939 0.7919 0.16784 0.0
C352 C 0.44853 0.78815 0.1835 0.0
C353 C 0.42948 0.78528 0.20408 0.0
H354 H 0.60822 0.76054 0.13701 0.0
H355 H 0.56411 0.75745 0.1689 0.0
H356 H 0.48998 0.7447 0.22281 0.0
H357 H 0.32134 0.83867 0.3461 0.0
H358 H 0.33311 0.83566 0.30454 0.0
H359 H 0.34494 0.82573 0.22952 0.0
C360 C 0.39673 0.7954 0.31799 0.0
C361 C 0.39712 0.79112 0.29286 0.0
C362 C 0.398 0.78718 0.27187 0.0
C363 C 0.40418 0.78468 0.24788 0.0
C364 C 0.631 0.79166 0.89294 0.0
C365 C 0.60367 0.77024 0.90421 0.0
C366 C 0.61926 0.78887 0.866 0.0
C367 C 0.5533 0.77918 0.75663 0.0
C368 C 0.31476 0.74393 0.58812 0.0
C369 C 0.33361 0.76628 0.57404 0.0
C370 C 0.34159 0.74378 0.6161 0.0
C371 C 0.46306 0.7338 0.72621 0.0
H372 H 0.66427 0.8095 0.90546 0.0
H373 H 0.64156 0.80537 0.85792 0.0
H374 H 0.58742 0.79722 0.76813 0.0
H375 H 0.27921 0.72611 0.57749 0.0
H376 H 0.32686 0.72587 0.62619 0.0
H377 H 0.42759 0.71634 0.71467 0.0
C378 C 0.56457 0.74588 0.88803 0.0
C379 C 0.55273 0.74311 0.86103 0.0
C380 C 0.48929 0.73322 0.75438 0.0
C381 C 0.37839 0.78942 0.58887 0.0
C382 C 0.4056 0.78917 0.61719 0.0
C383 C 0.52706 0.77977 0.72848 0.0
C384 C 0.58023 0.76445 0.84993 0.0
C385 C 0.56682 0.76166 0.82192 0.0
C386 C 0.55435 0.75848 0.79843 0.0
C387 C 0.53355 0.75636 0.76969 0.0
H388 H 0.54616 0.72795 0.89665 0.0
H389 H 0.52308 0.72388 0.84894 0.0
H390 H 0.47349 0.7154 0.76413 0.0
H391 H 0.39174 0.80774 0.57865 0.0
H392 H 0.44091 0.80682 0.62842 0.0
H393 H 0.54154 0.79818 0.71872 0.0
C394 C 0.38837 0.76578 0.63086 0.0
C395 C 0.42121 0.76278 0.65985 0.0
C396 C 0.44874 0.76032 0.68409 0.0
C397 C 0.48069 0.75758 0.71312 0.0
C398 C 0.49494 0.24521 0.61122 0.0
C399 C 0.54168 0.22449 0.61134 0.0
C400 C 0.47166 0.24137 0.62994 0.0
C401 C 0.39019 0.23122 0.70597 0.0
C402 C 0.42049 0.2014 0.86307 0.0
C403 C 0.37922 0.22502 0.86402 0.0
C404 C 0.42789 0.19727 0.83973 0.0
C405 C 0.44596 0.18476 0.74607 0.0
H406 H 0.47573 0.26406 0.59637 0.0
H407 H 0.43552 0.25743 0.6296 0.0
H408 H 0.36965 0.2496 0.69074 0.0
H409 H 0.44664 0.18612 0.88021 0.0
H410 H 0.45891 0.17873 0.83895 0.0
H411 H 0.46869 0.1672 0.76184 0.0
C412 C 0.56458 0.19983 0.63053 0.0
C413 C 0.54138 0.19612 0.64935 0.0
C414 C 0.45875 0.18507 0.7241 0.0
C415 C 0.34718 0.24483 0.8415 0.0
C416 C 0.35501 0.24082 0.81844 0.0
C417 C 0.37738 0.23092 0.72802 0.0
C418 C 0.49486 0.21683 0.64885 0.0
C419 C 0.47105 0.21324 0.66789 0.0
C420 C 0.45037 0.21067 0.6837 0.0
C421 C 0.43143 0.20848 0.70434 0.0
H422 H 0.60063 0.18365 0.63106 0.0
H423 H 0.55958 0.17715 0.66418 0.0
H424 H 0.49131 0.16772 0.72295 0.0
H425 H 0.31441 0.26288 0.84133 0.0
H426 H 0.32915 0.25602 0.80114 0.0
H427 H 0.34698 0.24909 0.72983 0.0
C428 C 0.39436 0.21679 0.81747 0.0
C429 C 0.39855 0.21208 0.79316 0.0
C430 C 0.39965 0.20959 0.77208 0.0
C431 C 0.40606 0.20789 0.7481 0.0
C432 C 0.79739 0.77607 0.0872 0.0
C433 C 0.82156 0.7559 0.07356 0.0
C434 C 0.81045 0.77065 0.11385 0.0
C435 C 0.87925 0.76158 0.22173 0.0
C436 C 0.11695 0.72838 0.39194 0.0
C437 C 0.09606 0.7518 0.40425 0.0
C438 C 0.09022 0.72594 0.36386 0.0
C439 C -0.03093 0.71588 0.2521 0.0
H440 H 0.76688 0.79606 0.07713 0.0
H441 H 0.7907 0.78659 0.12347 0.0
H442 H 0.84517 0.77967 0.21021 0.0
H443 H 0.15432 0.71207 0.40413 0.0
H444 H 0.10625 0.70731 0.35485 0.0
H445 H 0.0043 0.69825 0.26356 0.0
C446 C 0.85967 0.73001 0.08772 0.0
C447 C 0.87366 0.72489 0.11491 0.0
C448 C 0.94282 0.71537 0.22398 0.0
C449 C 0.05068 0.77398 0.38804 0.0
C450 C 0.0243 0.77172 0.35992 0.0
C451 C 0.9056 0.76209 0.24995 0.0
C452 C 0.84911 0.74531 0.12802 0.0
C453 C 0.86557 0.74176 0.1563 0.0
C454 C 0.87787 0.73986 0.17987 0.0
C455 C 0.89876 0.73853 0.20865 0.0
H456 H 0.87712 0.71338 0.07771 0.0
H457 H 0.90347 0.70499 0.12566 0.0
H458 H 0.95839 0.69741 0.21423 0.0
H459 H 0.0366 0.79338 0.39708 0.0
H460 H -0.01108 0.78889 0.3477 0.0
H461 H 0.89129 0.78052 0.25977 0.0
C462 C 0.04288 0.7473 0.34769 0.0
C463 C 0.01144 0.74372 0.31868 0.0
C464 C -0.01626 0.74174 0.29438 0.0
C465 C 0.95172 0.73963 0.26528 0.0
C466 C 0.84719 0.28036 0.34142 0.0
C467 C 0.87913 0.30016 0.36395 0.0
C468 C 0.85511 0.28434 0.31839 0.0
C469 C 0.87747 0.2942 0.22799 0.0
C470 C 0.06465 0.32523 0.13039 0.0
C471 C 0.04183 0.30059 0.1112 0.0
C472 C 0.04149 0.32893 0.14924 0.0
C473 C 0.95881 0.33997 0.22407 0.0
H474 H 0.81445 0.26232 0.34123 0.0
H475 H 0.82934 0.26915 0.3011 0.0
H476 H 0.84707 0.27606 0.22979 0.0
H477 H 0.10066 0.34139 0.13091 0.0
H478 H 0.05967 0.34787 0.16408 0.0
H479 H -0.00864 0.35729 0.22292 0.0
C480 C 0.92039 0.32374 0.36302 0.0
C481 C 0.92787 0.32786 0.3397 0.0
C482 C 0.94599 0.3403 0.24603 0.0
C483 C -0.00486 0.27989 0.11111 0.0
C484 C -0.02813 0.28373 0.12985 0.0
C485 C 0.89031 0.29387 0.20594 0.0
C486 C 0.89442 0.30835 0.31743 0.0
C487 C 0.89862 0.31305 0.29312 0.0
C488 C 0.89969 0.31552 0.27204 0.0
C489 C 0.90611 0.31721 0.24806 0.0
H490 H 0.9465 0.33899 0.38017 0.0
H491 H 0.95888 0.34637 0.33892 0.0
H492 H -0.03131 0.35784 0.2618 0.0
H493 H -0.02403 0.26105 0.09628 0.0
H494 H 0.93577 0.26768 0.12951 0.0
H495 H 0.86979 0.2755 0.19072 0.0
C496 C -0.00498 0.30823 0.14877 0.0
C497 C -0.02878 0.31181 0.16784 0.0
C498 C 0.95053 0.31436 0.18366 0.0
C499 C 0.93155 0.31657 0.2043 0.0
C500 C 0.87973 0.25119 0.58993 0.0
C501 C 0.8345 0.27344 0.57375 0.0
C502 C 0.90606 0.2534 0.61803 0.0
C503 C 0.02484 0.26297 0.72796 0.0
C504 C 0.07043 0.29529 0.89009 0.0
C505 C 0.10842 0.26939 0.90425 0.0
C506 C 0.05653 0.30037 0.86291 0.0
C507 C -0.0124 0.3097 0.75392 0.0
H508 H 0.89376 0.2318 0.58086 0.0
H509 H 0.94139 0.2362 0.63024 0.0
H510 H 0.03915 0.24454 0.71814 0.0
H511 H 0.05294 0.31193 0.90008 0.0
H512 H 0.02674 0.32026 0.85213 0.0
H513 H -0.02798 0.32765 0.76366 0.0
C514 C 0.81355 0.29683 0.58605 0.0
C515 C 0.84021 0.29921 0.61413 0.0
C516 C 0.96136 0.30918 0.72581 0.0
C517 C 0.13261 0.24917 0.89063 0.0
C518 C 0.11971 0.25457 0.86401 0.0
C519 C 0.05119 0.26349 0.75618 0.0
C520 C 0.88751 0.27781 0.63027 0.0
C521 C 0.91897 0.28136 0.65926 0.0
C522 C 0.94671 0.28332 0.68355 0.0
C523 C -0.02128 0.28543 0.71264 0.0
H524 H 0.7762 0.31315 0.57386 0.0
H525 H 0.82419 0.31782 0.62316 0.0
H526 H 0.92612 0.32681 0.71434 0.0
H527 H 0.163 0.22913 0.90066 0.0
H528 H 0.13948 0.2386 0.85441 0.0
H529 H 0.08527 0.2454 0.7677 0.0
C530 C 0.08112 0.27991 0.84984 0.0
C531 C 0.06474 0.28339 0.82157 0.0
C532 C 0.05251 0.28523 0.79801 0.0
C533 C 0.03166 0.28654 0.76924 0.0
C534 C -0.0051 0.74516 0.61113 0.0
C535 C 0.04162 0.72444 0.61122 0.0
C536 C -0.02831 0.74132 0.62988 0.0
C537 C 0.89024 0.73122 0.70596 0.0
C538 C 0.92037 0.70146 0.86309 0.0
C539 C 0.87908 0.72508 0.86404 0.0
C540 C 0.92781 0.6973 0.83975 0.0
C541 C 0.94601 0.68477 0.74606 0.0
H542 H -0.0243 0.76402 0.5963 0.0
H543 H 0.93559 0.7574 0.62956 0.0
H544 H 0.86968 0.7496 0.69073 0.0
H545 H 0.94652 0.68618 0.88023 0.0
H546 H 0.95883 0.67876 0.83898 0.0
H547 H -0.03126 0.66721 0.76183 0.0
C548 C 0.06453 0.69977 0.6304 0.0
C549 C 0.0414 0.69607 0.64925 0.0
C550 C 0.95881 0.68508 0.7241 0.0
C551 C 0.84712 0.7449 0.84152 0.0
C552 C 0.85496 0.74086 0.81845 0.0
C553 C 0.87741 0.73091 0.72801 0.0
C554 C -0.00508 0.71679 0.6488 0.0
C555 C -0.02885 0.71322 0.66786 0.0
C556 C 0.95047 0.71068 0.68369 0.0
C557 C 0.93151 0.7085 0.70433 0.0
H558 H 0.10058 0.6836 0.63091 0.0
H559 H 0.05964 0.67711 0.66409 0.0
H560 H -0.00861 0.66774 0.72295 0.0
H561 H 0.8144 0.76297 0.84134 0.0
H562 H 0.82914 0.75606 0.80115 0.0
H563 H 0.84699 0.74908 0.72981 0.0
C564 C 0.89429 0.71681 0.81747 0.0
C565 C 0.89852 0.71209 0.79316 0.0
C566 C 0.89966 0.70959 0.77208 0.0
C567 C 0.90609 0.70789 0.74809 0.0
loop_
_geom_bond_atom_site_label_1
_geom_bond_atom_site_label_2
_geom_bond_distance
_geom_bond_site_symmetry_2
_ccdc_geom_bond_type
Ho0 C3 2.811 . S
Ho0 O20 2.322 . S
Ho0 O22 2.378 . S
Ho0 O23 2.524 . S
Ho0 O24 2.381 . S
Ho0 O25 2.669 1_554 S
Ho0 O27 2.346 1_554 S
Ho0 O31 2.305 . S
Ho1 C12 2.811 . S
Ho1 O21 2.346 1_556 S
Ho1 O25 2.305 . S
Ho1 O26 2.322 . S
Ho1 O28 2.378 . S
Ho1 O29 2.524 . S
Ho1 O30 2.381 . S
Ho1 O31 2.669 1_556 S
C2 O20 1.259 . S
C2 O21 1.268 . S
C3 Ho0 2.811 . S
C3 C4 1.488 . S
C3 O22 1.215 . S
C3 O23 1.289 . S
C4 C3 1.488 . S
C4 C5 1.348 . S
C4 C9 1.413 . S
C5 C4 1.348 . S
C5 C6 1.442 . S
C5 H32 0.930 . S
C6 C5 1.442 . S
C6 C7 1.381 . S
C6 H33 0.931 . S
C7 C6 1.381 . S
C7 C8 1.321 . S
C8 C7 1.321 . S
C8 C9 1.403 . S
C8 H34 0.934 . S
C9 C4 1.413 . S
C9 C8 1.403 . S
C9 H35 0.930 . S
C10 O24 1.275 . S
C10 O25 1.256 1_554 S
C11 O26 1.259 . S
C11 O27 1.268 . S
C12 Ho1 2.811 . S
C12 C13 1.488 . S
C12 O28 1.215 . S
C12 O29 1.289 . S
C13 C12 1.488 . S
C13 C14 1.348 . S
C13 C18 1.413 . S
C14 C13 1.348 . S
C14 C15 1.442 . S
C14 H36 0.930 . S
C15 C14 1.442 . S
C15 C16 1.381 . S
C15 H37 0.931 . S
C16 C15 1.381 . S
C16 C17 1.321 . S
C17 C16 1.321 . S
C17 C18 1.403 . S
C17 H38 0.934 . S
C18 C13 1.413 . S
C18 C17 1.403 . S
C18 H39 0.930 . S
C19 O30 1.275 . S
C19 O31 1.256 1_556 S
O20 Ho0 2.322 . S
O20 C2 1.259 . S
O21 Ho1 2.346 1_554 S
O21 C2 1.268 . S
O22 Ho0 2.378 . S
O22 C3 1.215 . S
O23 Ho0 2.524 . S
O23 C3 1.289 . S
O24 Ho0 2.381 . S
O24 C10 1.275 . S
O25 Ho0 2.669 1_556 S
O25 Ho1 2.305 . S
O25 C10 1.256 1_556 S
O26 Ho1 2.322 . S
O26 C11 1.259 . S
O27 Ho0 2.346 1_556 S
O27 C11 1.268 . S
O28 Ho1 2.378 . S
O28 C12 1.215 . S
O29 Ho1 2.524 . S
O29 C12 1.289 . S
O30 Ho1 2.381 . S
O30 C19 1.275 . S
O31 Ho0 2.305 . S
O31 Ho1 2.669 1_554 S
O31 C19 1.256 1_554 S
H32 C5 0.930 . S
H33 C6 0.931 . S
H34 C8 0.934 . S
H35 C9 0.930 . S
H36 C14 0.930 . S
H37 C15 0.931 . S
H38 C17 0.934 . S
H39 C18 0.930 . S
Ho40 C43 2.811 . S
Ho40 O60 2.322 . S
Ho40 O62 2.378 . S
Ho40 O63 2.524 . S
Ho40 O64 2.381 . S
Ho40 O65 2.669 1_554 S
Ho40 O67 2.346 1_554 S
Ho40 O71 2.305 . S
Ho41 C52 2.811 . S
Ho41 O61 2.346 1_556 S
Ho41 O65 2.305 . S
Ho41 O66 2.322 . S
Ho41 O68 2.378 . S
Ho41 O69 2.524 . S
Ho41 O70 2.381 . S
Ho41 O71 2.669 1_556 S
C42 O60 1.259 . S
C42 O61 1.268 . S
C43 Ho40 2.811 . S
C43 C44 1.488 . S
C43 O62 1.215 . S
C43 O63 1.289 . S
C44 C43 1.488 . S
C44 C45 1.348 . S
C44 C49 1.413 . S
C45 C44 1.348 . S
C45 C46 1.442 . S
C45 H72 0.930 . S
C46 C45 1.442 . S
C46 C47 1.381 . S
C46 H73 0.931 . S
C47 C46 1.381 . S
C47 C48 1.321 . S
C48 C47 1.321 . S
C48 C49 1.403 . S
C48 H74 0.934 . S
C49 C44 1.413 . S
C49 C48 1.403 . S
C49 H75 0.930 . S
C50 O64 1.275 . S
C50 O65 1.256 1_554 S
C51 O66 1.259 . S
C51 O67 1.268 . S
C52 Ho41 2.811 . S
C52 C53 1.488 . S
C52 O68 1.215 . S
C52 O69 1.289 . S
C53 C52 1.488 . S
C53 C54 1.348 . S
C53 C58 1.413 . S
C54 C53 1.348 . S
C54 C55 1.442 . S
C54 H76 0.930 . S
C55 C54 1.442 . S
C55 C56 1.381 . S
C55 H77 0.931 . S
C56 C55 1.381 . S
C56 C57 1.321 . S
C57 C56 1.321 . S
C57 C58 1.403 . S
C57 H78 0.934 . S
C58 C53 1.413 . S
C58 C57 1.403 . S
C58 H79 0.930 . S
C59 O70 1.275 . S
C59 O71 1.256 1_556 S
O60 Ho40 2.322 . S
O60 C42 1.259 . S
O61 Ho41 2.346 1_554 S
O61 C42 1.268 . S
O62 Ho40 2.378 . S
O62 C43 1.215 . S
O63 Ho40 2.524 . S
O63 C43 1.289 . S
O64 Ho40 2.381 . S
O64 C50 1.275 . S
O65 Ho40 2.669 1_556 S
O65 Ho41 2.305 . S
O65 C50 1.256 1_556 S
O66 Ho41 2.322 . S
O66 C51 1.259 . S
O67 Ho40 2.346 1_556 S
O67 C51 1.268 . S
O68 Ho41 2.378 . S
O68 C52 1.215 . S
O69 Ho41 2.524 . S
O69 C52 1.289 . S
O70 Ho41 2.381 . S
O70 C59 1.275 . S
O71 Ho40 2.305 . S
O71 Ho41 2.669 1_554 S
O71 C59 1.256 1_554 S
H72 C45 0.930 . S
H73 C46 0.931 . S
H74 C48 0.934 . S
H75 C49 0.930 . S
H76 C54 0.930 . S
H77 C55 0.931 . S
H78 C57 0.934 . S
H79 C58 0.930 . S
Ho80 C83 2.811 . S
Ho80 O100 2.322 . S
Ho80 O102 2.378 . S
Ho80 O103 2.524 . S
Ho80 O104 2.381 . S
Ho80 O105 2.669 . S
Ho80 O107 2.346 . S
Ho80 O111 2.305 . S
Ho81 C92 2.811 . S
Ho81 O101 2.346 . S
Ho81 O105 2.305 . S
Ho81 O106 2.322 . S
Ho81 O108 2.378 . S
Ho81 O109 2.524 . S
Ho81 O110 2.381 . S
Ho81 O111 2.669 . S
C82 O100 1.259 . S
C82 O101 1.268 . S
C83 Ho80 2.811 . S
C83 C84 1.488 . S
C83 O102 1.215 . S
C83 O103 1.289 . S
C84 C83 1.488 . S
C84 C85 1.348 . S
C84 C89 1.413 . S
C85 C84 1.348 . S
C85 C86 1.442 . S
C85 H112 0.930 . S
C86 C85 1.442 . S
C86 C87 1.381 . S
C86 H113 0.931 . S
C87 C86 1.381 . S
C87 C88 1.321 . S
C88 C87 1.321 . S
C88 C89 1.403 . S
C88 H114 0.934 . S
C89 C84 1.413 . S
C89 C88 1.403 . S
C89 H115 0.930 . S
C90 O104 1.275 . S
C90 O105 1.256 . S
C91 O106 1.259 . S
C91 O107 1.268 . S
C92 Ho81 2.811 . S
C92 C93 1.488 . S
C92 O108 1.215 . S
C92 O109 1.289 . S
C93 C92 1.488 . S
C93 C94 1.348 . S
C93 C98 1.413 . S
C94 C93 1.348 . S
C94 C95 1.442 . S
C94 H116 0.930 . S
C95 C94 1.442 . S
C95 C96 1.381 . S
C95 H117 0.931 . S
C96 C95 1.381 . S
C96 C97 1.321 . S
C97 C96 1.321 . S
C97 C98 1.403 . S
C97 H118 0.934 . S
C98 C93 1.413 . S
C98 C97 1.403 . S
C98 H119 0.930 . S
C99 O110 1.275 . S
C99 O111 1.256 . S
O100 Ho80 2.322 . S
O100 C82 1.259 . S
O101 Ho81 2.346 . S
O101 C82 1.268 . S
O102 Ho80 2.378 . S
O102 C83 1.215 . S
O103 Ho80 2.524 . S
O103 C83 1.289 . S
O104 Ho80 2.381 . S
O104 C90 1.275 . S
O105 Ho80 2.669 . S
O105 Ho81 2.305 . S
O105 C90 1.256 . S
O106 Ho81 2.322 . S
O106 C91 1.259 . S
O107 Ho80 2.346 . S
O107 C91 1.268 . S
O108 Ho81 2.378 . S
O108 C92 1.215 . S
O109 Ho81 2.524 . S
O109 C92 1.289 . S
O110 Ho81 2.381 . S
O110 C99 1.275 . S
O111 Ho80 2.305 . S
O111 Ho81 2.669 . S
O111 C99 1.256 . S
H112 C85 0.930 . S
H113 C86 0.931 . S
H114 C88 0.934 . S
H115 C89 0.930 . S
H116 C94 0.930 . S
H117 C95 0.931 . S
H118 C97 0.934 . S
H119 C98 0.930 . S
Ho120 C123 2.811 . S
Ho120 O140 2.322 . S
Ho120 O142 2.378 . S
Ho120 O143 2.524 . S
Ho120 O144 2.381 . S
Ho120 O145 2.669 . S
Ho120 O147 2.346 . S
Ho120 O151 2.305 . S
Ho121 C132 2.811 . S
Ho121 O141 2.346 . S
Ho121 O145 2.305 . S
Ho121 O146 2.322 . S
Ho121 O148 2.378 . S
Ho121 O149 2.524 . S
Ho121 O150 2.381 . S
Ho121 O151 2.669 . S
C122 O140 1.259 . S
C122 O141 1.268 . S
C123 Ho120 2.811 . S
C123 C124 1.488 . S
C123 O142 1.215 . S
C123 O143 1.289 . S
C124 C123 1.488 . S
C124 C125 1.348 . S
C124 C129 1.413 . S
C125 C124 1.348 . S
C125 C126 1.442 . S
C125 H152 0.930 . S
C126 C125 1.442 . S
C126 C127 1.381 . S
C126 H153 0.931 . S
C127 C126 1.381 . S
C127 C128 1.321 . S
C128 C127 1.321 . S
C128 C129 1.403 . S
C128 H154 0.934 . S
C129 C124 1.413 . S
C129 C128 1.403 . S
C129 H155 0.930 . S
C130 O144 1.275 . S
C130 O145 1.256 . S
C131 O146 1.259 . S
C131 O147 1.268 . S
C132 Ho121 2.811 . S
C132 C133 1.488 . S
C132 O148 1.215 . S
C132 O149 1.289 . S
C133 C132 1.488 . S
C133 C134 1.348 . S
C133 C138 1.413 . S
C134 C133 1.348 . S
C134 C135 1.442 . S
C134 H156 0.930 . S
C135 C134 1.442 . S
C135 C136 1.381 . S
C135 H157 0.931 . S
C136 C135 1.381 . S
C136 C137 1.321 . S
C137 C136 1.321 . S
C137 C138 1.403 . S
C137 H158 0.934 . S
C138 C133 1.413 . S
C138 C137 1.403 . S
C138 H159 0.930 . S
C139 O150 1.275 . S
C139 O151 1.256 . S
O140 Ho120 2.322 . S
O140 C122 1.259 . S
O141 Ho121 2.346 . S
O141 C122 1.268 . S
O142 Ho120 2.378 . S
O142 C123 1.215 . S
O143 Ho120 2.524 . S
O143 C123 1.289 . S
O144 Ho120 2.381 . S
O144 C130 1.275 . S
O145 Ho120 2.669 . S
O145 Ho121 2.305 . S
O145 C130 1.256 . S
O146 Ho121 2.322 . S
O146 C131 1.259 . S
O147 Ho120 2.346 . S
O147 C131 1.268 . S
O148 Ho121 2.378 . S
O148 C132 1.215 . S
O149 Ho121 2.524 . S
O149 C132 1.289 . S
O150 Ho121 2.381 . S
O150 C139 1.275 . S
O151 Ho120 2.305 . S
O151 Ho121 2.669 . S
O151 C139 1.256 . S
H152 C125 0.930 . S
H153 C126 0.931 . S
H154 C128 0.934 . S
H155 C129 0.930 . S
H156 C134 0.930 . S
H157 C135 0.931 . S
H158 C137 0.934 . S
H159 C138 0.930 . S
C160 C161 1.420 1_554 S
C160 C162 1.385 . S
C160 H168 0.928 . S
C161 C160 1.420 1_556 S
C161 C174 1.420 . S
C162 C160 1.385 . S
C162 H169 0.929 . S
C162 C180 1.407 1_554 S
C163 H170 0.928 . S
C163 C179 1.374 . S
C163 C183 1.388 . S
C164 C165 1.401 1_556 S
C164 C166 1.385 . S
C164 H171 0.928 . S
C165 C164 1.401 1_554 S
C165 C177 1.430 . S
C166 C164 1.385 . S
C166 H172 0.929 . S
C166 C190 1.407 . S
C167 H173 0.928 . S
C167 C176 1.374 . S
C167 C193 1.388 . S
H168 C160 0.928 . S
H169 C162 0.929 . S
H170 C163 0.928 . S
H171 C164 0.928 . S
H172 C166 0.929 . S
H173 C167 0.928 . S
C174 C161 1.420 . S
C174 C175 1.385 . S
C174 H184 0.928 . S
C175 C174 1.385 . S
C175 C180 1.407 . S
C175 H185 0.929 . S
C176 C167 1.374 . S
C176 C183 1.388 . S
C176 H186 0.928 . S
C177 C165 1.430 . S
C177 C178 1.385 . S
C177 H187 0.928 . S
C178 C177 1.385 . S
C178 H188 0.929 . S
C178 C190 1.407 1_554 S
C179 C163 1.374 . S
C179 H189 0.928 . S
C179 C193 1.388 . S
C180 C162 1.407 1_556 S
C180 C175 1.407 . S
C180 C181 1.428 . S
C181 C180 1.428 . S
C181 C182 1.230 . S
C182 C181 1.230 . S
C182 C183 1.405 . S
C183 C163 1.388 . S
C183 C176 1.388 . S
C183 C182 1.405 . S
H184 C174 0.928 . S
H185 C175 0.929 . S
H186 C176 0.928 . S
H187 C177 0.928 . S
H188 C178 0.929 . S
H189 C179 0.928 . S
C190 C166 1.407 . S
C190 C178 1.407 1_556 S
C190 C191 1.428 . S
C191 C190 1.428 . S
C191 C192 1.230 . S
C192 C191 1.230 . S
C192 C193 1.405 . S
C193 C167 1.388 . S
C193 C179 1.388 . S
C193 C192 1.405 . S
C194 C195 1.420 . S
C194 C196 1.385 . S
C194 H202 0.928 . S
C195 C194 1.420 . S
C195 C208 1.420 . S
C196 C194 1.385 . S
C196 H203 0.929 . S
C196 C214 1.407 . S
C197 H204 0.928 . S
C197 C213 1.374 . S
C197 C217 1.388 . S
C198 C199 1.420 . S
C198 C200 1.385 . S
C198 H205 0.928 . S
C199 C198 1.420 . S
C199 C211 1.420 . S
C200 C198 1.385 . S
C200 H206 0.929 . S
C200 C224 1.407 . S
C201 H207 0.928 . S
C201 C210 1.374 . S
C201 C227 1.388 . S
H202 C194 0.928 . S
H203 C196 0.929 . S
H204 C197 0.928 . S
H205 C198 0.928 . S
H206 C200 0.929 . S
H207 C201 0.928 . S
C208 C195 1.420 . S
C208 C209 1.385 . S
C208 H218 0.928 . S
C209 C208 1.385 . S
C209 C214 1.407 . S
C209 H219 0.929 . S
C210 C201 1.374 . S
C210 C217 1.388 . S
C210 H220 0.928 . S
C211 C199 1.420 . S
C211 C212 1.385 . S
C211 H221 0.928 . S
C212 C211 1.385 . S
C212 H222 0.929 . S
C212 C224 1.407 . S
C213 C197 1.374 . S
C213 H223 0.928 . S
C213 C227 1.388 . S
C214 C196 1.407 . S
C214 C209 1.407 . S
C214 C215 1.428 . S
C215 C214 1.428 . S
C215 C216 1.230 . S
C216 C215 1.230 . S
C216 C217 1.405 . S
C217 C197 1.388 . S
C217 C210 1.388 . S
C217 C216 1.405 . S
H218 C208 0.928 . S
H219 C209 0.929 . S
H220 C210 0.928 . S
H221 C211 0.928 . S
H222 C212 0.929 . S
H223 C213 0.928 . S
C224 C200 1.407 . S
C224 C212 1.407 . S
C224 C225 1.428 . S
C225 C224 1.428 . S
C225 C226 1.230 . S
C226 C225 1.230 . S
C226 C227 1.405 . S
C227 C201 1.388 . S
C227 C213 1.388 . S
C227 C226 1.405 . S
C228 C229 1.420 1_554 S
C228 C230 1.385 . S
C228 H236 0.928 . S
C229 C228 1.420 1_556 S
C229 C242 1.420 . S
C230 C228 1.385 . S
C230 H237 0.929 . S
C230 C248 1.407 1_554 S
C231 H238 0.928 1_556 S
C231 C247 1.374 . S
C231 C251 1.388 . S
C232 C233 1.394 1_556 S
C232 C234 1.385 . S
C232 H239 0.928 . S
C233 C232 1.394 1_554 S
C233 C245 1.436 . S
C234 C232 1.385 . S
C234 H240 0.929 . S
C234 C258 1.407 . S
C235 H241 0.928 . S
C235 C244 1.374 1_565 S
C235 C261 1.388 . S
H236 C228 0.928 . S
H237 C230 0.929 . S
H238 C231 0.928 1_554 S
H239 C232 0.928 . S
H240 C234 0.929 . S
H241 C235 0.928 . S
C242 C229 1.420 . S
C242 C243 1.385 . S
C242 H252 0.928 . S
C243 C242 1.385 . S
C243 C248 1.407 . S
C243 H253 0.929 . S
C244 C235 1.374 1_545 S
C244 C251 1.388 . S
C244 H254 0.928 1_655 S
C245 C233 1.436 . S
C245 C246 1.385 . S
C245 H255 0.928 . S
C246 C245 1.385 . S
C246 H256 0.929 . S
C246 C258 1.407 1_554 S
C247 C231 1.374 . S
C247 H257 0.928 1_556 S
C247 C261 1.388 1_545 S
C248 C230 1.407 1_556 S
C248 C243 1.407 . S
C248 C249 1.428 . S
C249 C248 1.428 . S
C249 C250 1.230 . S
C250 C249 1.230 . S
C250 C251 1.405 1_455 S
C251 C231 1.388 . S
C251 C244 1.388 . S
C251 C250 1.405 1_655 S
H252 C242 0.928 . S
H253 C243 0.929 . S
H254 C244 0.928 1_455 S
H255 C245 0.928 . S
H256 C246 0.929 . S
H257 C247 0.928 1_554 S
C258 C234 1.407 . S
C258 C246 1.407 1_556 S
C258 C259 1.428 . S
C259 C258 1.428 . S
C259 C260 1.230 . S
C260 C259 1.230 . S
C260 C261 1.405 . S
C261 C235 1.388 . S
C261 C247 1.388 1_565 S
C261 C260 1.405 . S
C262 C263 1.420 . S
C262 C264 1.385 . S
C262 H270 0.928 . S
C263 C262 1.420 . S
C263 C276 1.420 . S
C264 C262 1.385 . S
C264 H271 0.929 . S
C264 C282 1.407 . S
C265 H272 0.928 . S
C265 C281 1.374 . S
C265 C285 1.388 . S
C266 C267 1.420 . S
C266 C268 1.385 . S
C266 H273 0.928 . S
C267 C266 1.420 . S
C267 C279 1.420 . S
C268 C266 1.385 . S
C268 H274 0.929 . S
C268 C292 1.407 . S
C269 H275 0.928 . S
C269 C278 1.374 1_565 S
C269 C295 1.388 . S
H270 C262 0.928 . S
H271 C264 0.929 . S
H272 C265 0.928 . S
H273 C266 0.928 . S
H274 C268 0.929 . S
H275 C269 0.928 . S
C276 C263 1.420 . S
C276 C277 1.385 . S
C276 H286 0.928 . S
C277 C276 1.385 . S
C277 C282 1.407 . S
C277 H287 0.929 . S
C278 C269 1.374 1_545 S
C278 C285 1.388 . S
C278 H288 0.928 1_455 S
C279 C267 1.420 . S
C279 C280 1.385 . S
C279 H289 0.928 . S
C280 C279 1.385 . S
C280 H290 0.929 . S
C280 C292 1.407 . S
C281 C265 1.374 . S
C281 H291 0.928 . S
C281 C295 1.388 1_545 S
C282 C264 1.407 . S
C282 C277 1.407 . S
C282 C283 1.428 . S
C283 C282 1.428 . S
C283 C284 1.230 . S
C284 C283 1.230 . S
C284 C285 1.405 1_655 S
C285 C265 1.388 . S
C285 C278 1.388 . S
C285 C284 1.405 1_455 S
H286 C276 0.928 . S
H287 C277 0.929 . S
H288 C278 0.928 1_655 S
H289 C279 0.928 . S
H290 C280 0.929 . S
H291 C281 0.928 . S
C292 C268 1.407 . S
C292 C280 1.407 . S
C292 C293 1.428 . S
C293 C292 1.428 . S
C293 C294 1.230 . S
C294 C293 1.230 . S
C294 C295 1.405 . S
C295 C269 1.388 . S
C295 C281 1.388 1_565 S
C295 C294 1.405 . S
C296 C297 1.420 . S
C296 C298 1.385 . S
C296 H304 0.928 . S
C297 C296 1.420 . S
C297 C310 1.420 . S
C298 C296 1.385 . S
C298 H305 0.929 . S
C298 C316 1.407 . S
C299 H306 0.928 . S
C299 C315 1.374 . S
C299 C319 1.388 . S
C300 C301 1.420 . S
C300 C302 1.385 . S
C300 H307 0.928 . S
C301 C300 1.420 . S
C301 C313 1.420 . S
C302 C300 1.385 . S
C302 H308 0.929 . S
C302 C326 1.407 . S
C303 H309 0.928 . S
C303 C312 1.374 . S
C303 C329 1.388 . S
H304 C296 0.928 . S
H305 C298 0.929 . S
H306 C299 0.928 . S
H307 C300 0.928 . S
H308 C302 0.929 . S
H309 C303 0.928 . S
C310 C297 1.420 . S
C310 C311 1.385 . S
C310 H320 0.928 . S
C311 C310 1.385 . S
C311 C316 1.407 . S
C311 H321 0.929 . S
C312 C303 1.374 . S
C312 C319 1.388 . S
C312 H322 0.928 . S
C313 C301 1.420 . S
C313 C314 1.385 . S
C313 H323 0.928 . S
C314 C313 1.385 . S
C314 H324 0.929 . S
C314 C326 1.407 . S
C315 C299 1.374 . S
C315 H325 0.928 . S
C315 C329 1.388 . S
C316 C298 1.407 . S
C316 C311 1.407 . S
C316 C317 1.428 . S
C317 C316 1.428 . S
C317 C318 1.230 . S
C318 C317 1.230 . S
C318 C319 1.405 . S
C319 C299 1.388 . S
C319 C312 1.388 . S
C319 C318 1.405 . S
H320 C310 0.928 . S
H321 C311 0.929 . S
H322 C312 0.928 . S
H323 C313 0.928 . S
H324 C314 0.929 . S
H325 C315 0.928 . S
C326 C302 1.407 . S
C326 C314 1.407 . S
C326 C327 1.428 . S
C327 C326 1.428 . S
C327 C328 1.230 . S
C328 C327 1.230 . S
C328 C329 1.405 . S
C329 C303 1.388 . S
C329 C315 1.388 . S
C329 C328 1.405 . S
C330 C331 1.420 . S
C330 C332 1.385 . S
C330 H338 0.928 . S
C331 C330 1.420 . S
C331 C344 1.420 . S
C332 C330 1.385 . S
C332 H339 0.929 . S
C332 C350 1.407 . S
C333 H340 0.928 . S
C333 C349 1.374 . S
C333 C353 1.388 . S
C334 C335 1.420 . S
C334 C336 1.385 . S
C334 H341 0.928 . S
C335 C334 1.420 . S
C335 C347 1.420 . S
C336 C334 1.385 . S
C336 H342 0.929 . S
C336 C360 1.407 . S
C337 H343 0.928 . S
C337 C346 1.374 . S
C337 C363 1.388 . S
H338 C330 0.928 . S
H339 C332 0.929 . S
H340 C333 0.928 . S
H341 C334 0.928 . S
H342 C336 0.929 . S
H343 C337 0.928 . S
C344 C331 1.420 . S
C344 C345 1.385 . S
C344 H354 0.928 . S
C345 C344 1.385 . S
C345 C350 1.407 . S
C345 H355 0.929 . S
C346 C337 1.374 . S
C346 C353 1.388 . S
C346 H356 0.928 . S
C347 C335 1.420 . S
C347 C348 1.385 . S
C347 H357 0.928 . S
C348 C347 1.385 . S
C348 H358 0.929 . S
C348 C360 1.407 . S
C349 C333 1.374 . S
C349 H359 0.928 . S
C349 C363 1.388 . S
C350 C332 1.407 . S
C350 C345 1.407 . S
C350 C351 1.428 . S
C351 C350 1.428 . S
C351 C352 1.230 . S
C352 C351 1.230 . S
C352 C353 1.405 . S
C353 C333 1.388 . S
C353 C346 1.388 . S
C353 C352 1.405 . S
H354 C344 0.928 . S
H355 C345 0.929 . S
H356 C346 0.928 . S
H357 C347 0.928 . S
H358 C348 0.929 . S
H359 C349 0.928 . S
C360 C336 1.407 . S
C360 C348 1.407 . S
C360 C361 1.428 . S
C361 C360 1.428 . S
C361 C362 1.230 . S
C362 C361 1.230 . S
C362 C363 1.405 . S
C363 C337 1.388 . S
C363 C349 1.388 . S
C363 C362 1.405 . S
C364 C365 1.420 . S
C364 C366 1.385 . S
C364 H372 0.928 . S
C365 C364 1.420 . S
C365 C378 1.420 . S
C366 C364 1.385 . S
C366 H373 0.929 . S
C366 C384 1.407 . S
C367 H374 0.928 . S
C367 C383 1.374 . S
C367 C387 1.388 . S
C368 C369 1.420 . S
C368 C370 1.385 . S
C368 H375 0.928 . S
C369 C368 1.420 . S
C369 C381 1.420 . S
C370 C368 1.385 . S
C370 H376 0.929 . S
C370 C394 1.407 . S
C371 H377 0.928 . S
C371 C380 1.374 . S
C371 C397 1.388 . S
H372 C364 0.928 . S
H373 C366 0.929 . S
H374 C367 0.928 . S
H375 C368 0.928 . S
H376 C370 0.929 . S
H377 C371 0.928 . S
C378 C365 1.420 . S
C378 C379 1.385 . S
C378 H388 0.928 . S
C379 C378 1.385 . S
C379 C384 1.407 . S
C379 H389 0.929 . S
C380 C371 1.374 . S
C380 C387 1.388 . S
C380 H390 0.928 . S
C381 C369 1.420 . S
C381 C382 1.385 . S
C381 H391 0.928 . S
C382 C381 1.385 . S
C382 H392 0.929 . S
C382 C394 1.407 . S
C383 C367 1.374 . S
C383 H393 0.928 . S
C383 C397 1.388 . S
C384 C366 1.407 . S
C384 C379 1.407 . S
C384 C385 1.428 . S
C385 C384 1.428 . S
C385 C386 1.230 . S
C386 C385 1.230 . S
C386 C387 1.405 . S
C387 C367 1.388 . S
C387 C380 1.388 . S
C387 C386 1.405 . S
H388 C378 0.928 . S
H389 C379 0.929 . S
H390 C380 0.928 . S
H391 C381 0.928 . S
H392 C382 0.929 . S
H393 C383 0.928 . S
C394 C370 1.407 . S
C394 C382 1.407 . S
C394 C395 1.428 . S
C395 C394 1.428 . S
C395 C396 1.230 . S
C396 C395 1.230 . S
C396 C397 1.405 . S
C397 C371 1.388 . S
C397 C383 1.388 . S
C397 C396 1.405 . S
C398 C399 1.420 . S
C398 C400 1.385 . S
C398 H406 0.928 . S
C399 C398 1.420 . S
C399 C412 1.420 . S
C400 C398 1.385 . S
C400 H407 0.929 . S
C400 C418 1.407 . S
C401 H408 0.928 . S
C401 C417 1.374 . S
C401 C421 1.388 . S
C402 C403 1.420 . S
C402 C404 1.385 . S
C402 H409 0.928 . S
C403 C402 1.420 . S
C403 C415 1.420 . S
C404 C402 1.385 . S
C404 H410 0.929 . S
C404 C428 1.407 . S
C405 H411 0.928 . S
C405 C414 1.374 . S
C405 C431 1.388 . S
H406 C398 0.928 . S
H407 C400 0.929 . S
H408 C401 0.928 . S
H409 C402 0.928 . S
H410 C404 0.929 . S
H411 C405 0.928 . S
C412 C399 1.420 . S
C412 C413 1.385 . S
C412 H422 0.928 . S
C413 C412 1.385 . S
C413 C418 1.407 . S
C413 H423 0.929 . S
C414 C405 1.374 . S
C414 C421 1.388 . S
C414 H424 0.928 . S
C415 C403 1.420 . S
C415 C416 1.385 . S
C415 H425 0.928 . S
C416 C415 1.385 . S
C416 H426 0.929 . S
C416 C428 1.407 . S
C417 C401 1.374 . S
C417 H427 0.928 . S
C417 C431 1.388 . S
C418 C400 1.407 . S
C418 C413 1.407 . S
C418 C419 1.428 . S
C419 C418 1.428 . S
C419 C420 1.230 . S
C420 C419 1.230 . S
C420 C421 1.405 . S
C421 C401 1.388 . S
C421 C414 1.388 . S
C421 C420 1.405 . S
H422 C412 0.928 . S
H423 C413 0.929 . S
H424 C414 0.928 . S
H425 C415 0.928 . S
H426 C416 0.929 . S
H427 C417 0.928 . S
C428 C404 1.407 . S
C428 C416 1.407 . S
C428 C429 1.428 . S
C429 C428 1.428 . S
C429 C430 1.230 . S
C430 C429 1.230 . S
C430 C431 1.405 . S
C431 C405 1.388 . S
C431 C417 1.388 . S
C431 C430 1.405 . S
C432 C433 1.420 . S
C432 C434 1.385 . S
C432 H440 0.928 . S
C433 C432 1.420 . S
C433 C446 1.420 . S
C434 C432 1.385 . S
C434 H441 0.929 . S
C434 C452 1.407 . S
C435 H442 0.928 . S
C435 C451 1.374 . S
C435 C455 1.388 . S
C436 C437 1.420 . S
C436 C438 1.385 . S
C436 H443 0.928 . S
C437 C436 1.420 . S
C437 C449 1.420 . S
C438 C436 1.385 . S
C438 H444 0.929 . S
C438 C462 1.407 . S
C439 H445 0.928 . S
C439 C448 1.374 1_455 S
C439 C465 1.388 1_455 S
H440 C432 0.928 . S
H441 C434 0.929 . S
H442 C435 0.928 . S
H443 C436 0.928 . S
H444 C438 0.929 . S
H445 C439 0.928 . S
C446 C433 1.420 . S
C446 C447 1.385 . S
C446 H456 0.928 . S
C447 C446 1.385 . S
C447 C452 1.407 . S
C447 H457 0.929 . S
C448 C439 1.374 1_655 S
C448 C455 1.388 . S
C448 H458 0.928 . S
C449 C437 1.420 . S
C449 C450 1.385 . S
C449 H459 0.928 . S
C450 C449 1.385 . S
C450 H460 0.929 . S
C450 C462 1.407 . S
C451 C435 1.374 . S
C451 H461 0.928 . S
C451 C465 1.388 . S
C452 C434 1.407 . S
C452 C447 1.407 . S
C452 C453 1.428 . S
C453 C452 1.428 . S
C453 C454 1.230 . S
C454 C453 1.230 . S
C454 C455 1.405 . S
C455 C435 1.388 . S
C455 C448 1.388 . S
C455 C454 1.405 . S
H456 C446 0.928 . S
H457 C447 0.929 . S
H458 C448 0.928 . S
H459 C449 0.928 . S
H460 C450 0.929 . S
H461 C451 0.928 . S
C462 C438 1.407 . S
C462 C450 1.407 . S
C462 C463 1.428 . S
C463 C462 1.428 . S
C463 C464 1.230 . S
C464 C463 1.230 . S
C464 C465 1.405 1_455 S
C465 C439 1.388 1_655 S
C465 C451 1.388 . S
C465 C464 1.405 1_655 S
C466 C467 1.420 . S
C466 C468 1.385 . S
C466 H474 0.928 . S
C467 C466 1.420 . S
C467 C480 1.420 . S
C468 C466 1.385 . S
C468 H475 0.929 . S
C468 C486 1.407 . S
C469 H476 0.928 . S
C469 C485 1.374 . S
C469 C489 1.388 . S
C470 C471 1.420 . S
C470 C472 1.385 . S
C470 H477 0.928 . S
C471 C470 1.420 . S
C471 C483 1.420 . S
C472 C470 1.385 . S
C472 H478 0.929 . S
C472 C496 1.407 . S
C473 H479 0.928 1_655 S
C473 C482 1.374 . S
C473 C499 1.388 . S
H474 C466 0.928 . S
H475 C468 0.929 . S
H476 C469 0.928 . S
H477 C470 0.928 . S
H478 C472 0.929 . S
H479 C473 0.928 1_455 S
C480 C467 1.420 . S
C480 C481 1.385 . S
C480 H490 0.928 . S
C481 C480 1.385 . S
C481 C486 1.407 . S
C481 H491 0.929 . S
C482 C473 1.374 . S
C482 C489 1.388 . S
C482 H492 0.928 . S
C483 C471 1.420 . S
C483 C484 1.385 . S
C483 H493 0.928 . S
C484 C483 1.385 . S
C484 H494 0.929 1_455 S
C484 C496 1.407 . S
C485 C469 1.374 . S
C485 H495 0.928 . S
C485 C499 1.388 . S
C486 C468 1.407 . S
C486 C481 1.407 . S
C486 C487 1.428 . S
C487 C486 1.428 . S
C487 C488 1.230 . S
C488 C487 1.230 . S
C488 C489 1.405 . S
C489 C469 1.388 . S
C489 C482 1.388 . S
C489 C488 1.405 . S
H490 C480 0.928 . S
H491 C481 0.929 . S
H492 C482 0.928 . S
H493 C483 0.928 . S
H494 C484 0.929 1_655 S
H495 C485 0.928 . S
C496 C472 1.407 . S
C496 C484 1.407 . S
C496 C497 1.428 . S
C497 C496 1.428 . S
C497 C498 1.230 1_455 S
C498 C497 1.230 1_655 S
C498 C499 1.405 . S
C499 C473 1.388 . S
C499 C485 1.388 . S
C499 C498 1.405 . S
C500 C501 1.420 . S
C500 C502 1.385 . S
C500 H508 0.928 . S
C501 C500 1.420 . S
C501 C514 1.420 . S
C502 C500 1.385 . S
C502 H509 0.929 . S
C502 C520 1.407 . S
C503 H510 0.928 . S
C503 C519 1.374 . S
C503 C523 1.388 . S
C504 C505 1.420 . S
C504 C506 1.385 . S
C504 H511 0.928 . S
C505 C504 1.420 . S
C505 C517 1.420 . S
C506 C504 1.385 . S
C506 H512 0.929 . S
C506 C530 1.407 . S
C507 H513 0.928 . S
C507 C516 1.374 1_455 S
C507 C533 1.388 . S
H508 C500 0.928 . S
H509 C502 0.929 . S
H510 C503 0.928 . S
H511 C504 0.928 . S
H512 C506 0.929 . S
H513 C507 0.928 . S
C514 C501 1.420 . S
C514 C515 1.385 . S
C514 H524 0.928 . S
C515 C514 1.385 . S
C515 C520 1.407 . S
C515 H525 0.929 . S
C516 C507 1.374 1_655 S
C516 C523 1.388 1_655 S
C516 H526 0.928 . S
C517 C505 1.420 . S
C517 C518 1.385 . S
C517 H527 0.928 . S
C518 C517 1.385 . S
C518 H528 0.929 . S
C518 C530 1.407 . S
C519 C503 1.374 . S
C519 H529 0.928 . S
C519 C533 1.388 . S
C520 C502 1.407 . S
C520 C515 1.407 . S
C520 C521 1.428 . S
C521 C520 1.428 . S
C521 C522 1.230 . S
C522 C521 1.230 . S
C522 C523 1.405 1_655 S
C523 C503 1.388 . S
C523 C516 1.388 1_455 S
C523 C522 1.405 1_455 S
H524 C514 0.928 . S
H525 C515 0.929 . S
H526 C516 0.928 . S
H527 C517 0.928 . S
H528 C518 0.929 . S
H529 C519 0.928 . S
C530 C506 1.407 . S
C530 C518 1.407 . S
C530 C531 1.428 . S
C531 C530 1.428 . S
C531 C532 1.230 . S
C532 C531 1.230 . S
C532 C533 1.405 . S
C533 C507 1.388 . S
C533 C519 1.388 . S
C533 C532 1.405 . S
C534 C535 1.420 . S
C534 C536 1.385 . S
C534 H542 0.928 . S
C535 C534 1.420 . S
C535 C548 1.420 . S
C536 C534 1.385 . S
C536 H543 0.929 1_455 S
C536 C554 1.407 . S
C537 H544 0.928 . S
C537 C553 1.374 . S
C537 C557 1.388 . S
C538 C539 1.420 . S
C538 C540 1.385 . S
C538 H545 0.928 . S
C539 C538 1.420 . S
C539 C551 1.420 . S
C540 C538 1.385 . S
C540 H546 0.929 . S
C540 C564 1.407 . S
C541 H547 0.928 . S
C541 C550 1.374 . S
C541 C567 1.388 . S
H542 C534 0.928 . S
H543 C536 0.929 1_655 S
H544 C537 0.928 . S
H545 C538 0.928 . S
H546 C540 0.929 . S
H547 C541 0.928 . S
C548 C535 1.420 . S
C548 C549 1.385 . S
C548 H558 0.928 . S
C549 C548 1.385 . S
C549 C554 1.407 . S
C549 H559 0.929 . S
C550 C541 1.374 . S
C550 C557 1.388 . S
C550 H560 0.928 1_655 S
C551 C539 1.420 . S
C551 C552 1.385 . S
C551 H561 0.928 . S
C552 C551 1.385 . S
C552 H562 0.929 . S
C552 C564 1.407 . S
C553 C537 1.374 . S
C553 H563 0.928 . S
C553 C567 1.388 . S
C554 C536 1.407 . S
C554 C549 1.407 . S
C554 C555 1.428 . S
C555 C554 1.428 . S
C555 C556 1.230 1_455 S
C556 C555 1.230 1_655 S
C556 C557 1.405 . S
C557 C537 1.388 . S
C557 C550 1.388 . S
C557 C556 1.405 . S
H558 C548 0.928 . S
H559 C549 0.929 . S
H560 C550 0.928 1_455 S
H561 C551 0.928 . S
H562 C552 0.929 . S
H563 C553 0.928 . S
C564 C540 1.407 . S
C564 C552 1.407 . S
C564 C565 1.428 . S
C565 C564 1.428 . S
C565 C566 1.230 . S
C566 C565 1.230 . S
C566 C567 1.405 . S
C567 C541 1.388 . S
C567 C553 1.388 . S
C567 C566 1.405 . S
C161 C59 1.514 . S
C165 C10 1.518 . S
C195 C99 1.513 . S
C199 C130 1.511 . S
C229 C19 1.516 . S
C233 C50 1.519 . S
C263 C139 1.516 . S
C267 C90 1.508 . S
C297 C122 1.376 . S
C301 C2 1.377 . S
C331 C47 0.823 . S
C335 C87 0.812 . S
C365 C51 1.377 . S
C369 C91 1.376 . S
C399 C136 0.830 . S
C403 C16 0.819 . S
C433 C42 1.385 . S
C437 C82 1.384 . S
C467 C127 0.819 . S
C471 C7 0.830 . S
C501 C131 1.384 . S
C505 C11 1.385 . S
C535 C96 0.830 . S
C539 C56 0.819 . S
