# Generated by pormake.
# Topology unf, (4)-cn, num edge types: 1
# Building blocks:
#     Node 0, Type 0, BuildingBlock: GALJAG_clean_sbu_0, # of connection points: 4
#     Node 1, Type 0, BuildingBlock: GALJAG_clean_sbu_0, # of connection points: 4
#     Node 2, Type 0, BuildingBlock: GALJAG_clean_sbu_0, # of connection points: 4
#     Node 3, Type 0, BuildingBlock: GALJAG_clean_sbu_0, # of connection points: 4
#     Node 4, Type 0, BuildingBlock: GALJAG_clean_sbu_0, # of connection points: 4
#     Node 5, Type 0, BuildingBlock: GALJAG_clean_sbu_0, # of connection points: 4
#     Node 6, Type 0, BuildingBlock: GALJAG_clean_sbu_0, # of connection points: 4
#     Node 7, Type 0, BuildingBlock: GALJAG_clean_sbu_0, # of connection points: 4
#     Node 8, Type 0, BuildingBlock: GALJAG_clean_sbu_0, # of connection points: 4
#     Node 9, Type 0, BuildingBlock: GALJAG_clean_sbu_0, # of connection points: 4
#     Node 10, Type 0, BuildingBlock: GALJAG_clean_sbu_0, # of connection points: 4
#     Node 11, Type 0, BuildingBlock: GALJAG_clean_sbu_0, # of connection points: 4
#     Edge 12, Type (0, 0), BuildingBlock: EZIPEK_clean_linker_0, # of connection points: 2
#     Edge 13, Type (0, 0), BuildingBlock: EZIPEK_clean_linker_0, # of connection points: 2
#     Edge 14, Type (0, 0), BuildingBlock: EZIPEK_clean_linker_0, # of connection points: 2
#     Edge 15, Type (0, 0), BuildingBlock: EZIPEK_clean_linker_0, # of connection points: 2
#     Edge 16, Type (0, 0), BuildingBlock: EZIPEK_clean_linker_0, # of connection points: 2
#     Edge 17, Type (0, 0), BuildingBlock: EZIPEK_clean_linker_0, # of connection points: 2
#     Edge 18, Type (0, 0), BuildingBlock: EZIPEK_clean_linker_0, # of connection points: 2
#     Edge 19, Type (0, 0), BuildingBlock: EZIPEK_clean_linker_0, # of connection points: 2
#     Edge 20, Type (0, 0), BuildingBlock: EZIPEK_clean_linker_0, # of connection points: 2
#     Edge 21, Type (0, 0), BuildingBlock: EZIPEK_clean_linker_0, # of connection points: 2
#     Edge 22, Type (0, 0), BuildingBlock: EZIPEK_clean_linker_0, # of connection points: 2
#     Edge 23, Type (0, 0), BuildingBlock: EZIPEK_clean_linker_0, # of connection points: 2
#     Edge 24, Type (0, 0), BuildingBlock: EZIPEK_clean_linker_0, # of connection points: 2
#     Edge 25, Type (0, 0), BuildingBlock: EZIPEK_clean_linker_0, # of connection points: 2
#     Edge 26, Type (0, 0), BuildingBlock: EZIPEK_clean_linker_0, # of connection points: 2
#     Edge 27, Type (0, 0), BuildingBlock: EZIPEK_clean_linker_0, # of connection points: 2
#     Edge 28, Type (0, 0), BuildingBlock: EZIPEK_clean_linker_0, # of connection points: 2
#     Edge 29, Type (0, 0), BuildingBlock: EZIPEK_clean_linker_0, # of connection points: 2
#     Edge 30, Type (0, 0), BuildingBlock: EZIPEK_clean_linker_0, # of connection points: 2
#     Edge 31, Type (0, 0), BuildingBlock: EZIPEK_clean_linker_0, # of connection points: 2
#     Edge 32, Type (0, 0), BuildingBlock: EZIPEK_clean_linker_0, # of connection points: 2
#     Edge 33, Type (0, 0), BuildingBlock: EZIPEK_clean_linker_0, # of connection points: 2
#     Edge 34, Type (0, 0), BuildingBlock: EZIPEK_clean_linker_0, # of connection points: 2
#     Edge 35, Type (0, 0), BuildingBlock: EZIPEK_clean_linker_0, # of connection points: 2
# Relax obj value: 0.104
# Max RMSD: 0.121
# Mean RMSD: 0.121
data_MOF--net-unf--node1-GALJAG_clean_sbu_0--edge1-EZIPEK_clean_linker_0
_symmetry_space_group_name_H-M    P1
_symmetry_Int_Tables_number       1
_symmetry_cell_setting            triclinic
loop_
_symmetry_equiv_pos_as_xyz
'x, y, z'
_cell_length_a     29.301662
_cell_length_b     29.262175
_cell_length_c     25.600856
_cell_angle_alpha  89.986723
_cell_angle_beta   89.962452
_cell_angle_gamma 120.04909
loop_
_atom_site_label
_atom_site_type_symbol
_atom_site_fract_x
_atom_site_fract_y
_atom_site_fract_z
_atom_type_partial_charge
In0 In 0.08676 0.39094 0.08022 0.0
O1 O 0.10847 0.36714 0.15654 0.0
O2 O 0.15357 0.44791 0.13403 0.0
C3 C 0.98893 0.30761 0.08023 0.0
C4 C 0.15224 0.37841 0.01688 0.0
C5 C 0.05573 0.45904 0.04767 0.0
O6 O 0.00719 0.33772 0.11934 0.0
O7 O 0.02053 0.31802 0.04277 0.0
O8 O 0.07026 0.43488 0.01724 0.0
O9 O 0.05878 0.44988 0.0953 0.0
C10 C 0.14656 0.41249 0.16646 0.0
O11 O 0.15332 0.42198 0.02058 0.0
O12 O 0.11722 0.34111 0.04367 0.0
In13 In 0.60877 0.69373 0.07285 0.0
O14 O 0.6222 0.71759 0.1584 0.0
O15 O 0.5586 0.71893 0.12003 0.0
C16 C 0.69503 0.68521 0.0607 0.0
C17 C 0.63246 0.7807 0.01759 0.0
C18 C 0.53513 0.59353 0.04555 0.0
O19 O 0.67698 0.68552 0.1054 0.0
O20 O 0.67036 0.6903 0.02293 0.0
O21 O 0.55116 0.63281 0.01566 0.0
O22 O 0.55565 0.60558 0.09037 0.0
C23 C 0.58642 0.72954 0.16066 0.0
O24 O 0.58881 0.73844 0.01266 0.0
O25 O 0.6646 0.77828 0.04859 0.0
In26 In 0.28445 0.90102 0.05337 0.0
O27 O 0.25506 0.83592 0.99158 0.0
O28 O 0.20357 0.86317 0.0168 0.0
C29 C 0.38828 0.94298 0.03495 0.0
C30 C 0.24706 0.84257 0.14086 0.0
C31 C 0.28734 0.99357 0.04298 0.0
O32 O 0.35379 0.91939 0.00032 0.0
O33 O 0.37056 0.94254 0.08 0.0
O34 O 0.28699 0.97449 0.08728 0.0
O35 O 0.28382 0.96494 0.00469 0.0
C36 C 0.21012 0.83172 0.9884 0.0
O37 O 0.2401 0.88068 0.13017 0.0
O38 O 0.2753 0.835 0.10862 0.0
In39 In 0.60729 0.91107 0.42347 0.0
O40 O 0.58836 0.83976 0.47423 0.0
O41 O 0.66835 0.8917 0.45211 0.0
C42 C 0.53706 0.93881 0.4542 0.0
C43 C 0.58621 0.85836 0.33247 0.0
C44 C 0.69094 0.00553 0.4432 0.0
O45 O 0.5495 0.91128 0.48216 0.0
O46 O 0.55506 0.94697 0.40824 0.0
O47 O 0.68208 0.98633 0.39757 0.0
O48 O 0.65874 0.9766 0.47772 0.0
C49 C 0.6358 0.85028 0.47585 0.0
O50 O 0.61619 0.90781 0.33533 0.0
O51 O 0.56328 0.83644 0.37454 0.0
In52 In 0.07335 0.68939 0.40948 0.0
O53 O 0.0836 0.72114 0.32633 0.0
O54 O 0.141 0.70322 0.35506 0.0
C55 C 0.98402 0.68726 0.43553 0.0
C56 C 0.14204 0.76783 0.47054 0.0
C57 C 0.03446 0.58679 0.43002 0.0
O58 O 0.00164 0.69751 0.38931 0.0
O59 O 0.01203 0.6796 0.46766 0.0
O60 O 0.06845 0.6231 0.45829 0.0
O61 O 0.02369 0.60189 0.38793 0.0
C62 C 0.12618 0.72136 0.31826 0.0
O63 O 0.14261 0.72518 0.46602 0.0
O64 O 0.10715 0.77081 0.44456 0.0
In65 In 0.28998 0.37893 0.43268 0.0
O66 O 0.25062 0.36071 0.35321 0.0
O67 O 0.29238 0.44126 0.37666 0.0
C68 C 0.29462 0.29059 0.4432 0.0
C69 C 0.20755 0.36478 0.49006 0.0
C70 C 0.38986 0.44041 0.46334 0.0
O71 O 0.2951 0.30935 0.39857 0.0
O72 O 0.28996 0.31532 0.4812 0.0
O73 O 0.35127 0.43152 0.49207 0.0
O74 O 0.37829 0.42124 0.41792 0.0
C75 C 0.26327 0.40777 0.34304 0.0
O76 O 0.24874 0.40941 0.48624 0.0
O77 O 0.20813 0.32793 0.46527 0.0
In78 In 0.90684 0.61072 0.92526 0.0
O79 O 0.83542 0.59418 0.97411 0.0
O80 O 0.89955 0.67308 0.97143 0.0
C81 C 0.92601 0.5341 0.95799 0.0
C82 C 0.84406 0.58974 0.84164 0.0
C83 C 0.00849 0.68464 0.91861 0.0
O84 O 0.90792 0.55578 0.98756 0.0
O85 O 0.93186 0.54992 0.91136 0.0
O86 O 0.98171 0.66316 0.878 0.0
O87 O 0.98379 0.66998 0.96124 0.0
C88 C 0.8533 0.6418 0.98685 0.0
O89 O 0.88121 0.63566 0.85179 0.0
O90 O 0.84027 0.55397 0.87191 0.0
In91 In 0.36776 0.29047 0.9261 0.0
O92 O 0.3401 0.25422 0.84536 0.0
O93 O 0.4154 0.26886 0.87117 0.0
C94 C 0.29551 0.31979 0.93572 0.0
C95 C 0.33511 0.20104 0.98042 0.0
C96 C 0.44844 0.38577 0.95624 0.0
O97 O 0.31293 0.31691 0.89134 0.0
O98 O 0.3134 0.30667 0.97411 0.0
O99 O 0.42718 0.34608 0.98602 0.0
O100 O 0.43035 0.37581 0.91039 0.0
C101 C 0.3801 0.24981 0.83651 0.0
O102 O 0.38333 0.23346 0.97248 0.0
O103 O 0.30376 0.21547 0.96401 0.0
In104 In 0.70643 0.08807 0.94382 0.0
O105 O 0.74949 0.1085 0.86598 0.0
O106 O 0.71297 0.15272 0.88814 0.0
C107 C 0.6916 0.9899 0.95097 0.0
C108 C 0.78718 0.15389 0.00502 0.0
C109 C 0.60706 0.05796 0.97262 0.0
O110 O 0.6856 0.00814 0.90856 0.0
O111 O 0.70672 0.02144 0.98898 0.0
O112 O 0.64611 0.08587 0.00152 0.0
O113 O 0.61834 0.04906 0.92758 0.0
C114 C 0.74099 0.14558 0.85534 0.0
O115 O 0.74214 0.14937 0.00865 0.0
O116 O 0.7908 0.1238 0.97205 0.0
In117 In 0.36138 0.06884 0.5723 0.0
O118 O 0.38323 0.14213 0.52374 0.0
O119 O 0.30185 0.08595 0.53522 0.0
C120 C 0.43665 0.04656 0.54532 0.0
C121 C 0.3745 0.12263 0.66133 0.0
C122 C 0.28552 0.96919 0.55612 0.0
O123 O 0.41594 0.06325 0.51297 0.0
O124 O 0.42388 0.04694 0.59228 0.0
O125 O 0.30574 0.98454 0.60096 0.0
O126 O 0.30162 0.00439 0.52139 0.0
C127 C 0.33573 0.1299 0.51654 0.0
O128 O 0.33397 0.0782 0.65312 0.0
O129 O 0.4094 0.1383 0.62625 0.0
In130 In 0.90577 0.29372 0.58138 0.0
O131 O 0.8314 0.24286 0.53397 0.0
O132 O 0.88441 0.21423 0.5491 0.0
C133 C 0.93016 0.38563 0.53483 0.0
C134 C 0.85485 0.26301 0.67369 0.0
C135 C 0.00428 0.31195 0.57044 0.0
O136 O 0.90878 0.34231 0.51069 0.0
O137 O 0.93493 0.38219 0.58343 0.0
O138 O -0.00779 0.33314 0.60689 0.0
O139 O 0.96623 0.27909 0.54313 0.0
C140 C 0.84182 0.20604 0.5287 0.0
O141 O 0.89506 0.25947 0.66347 0.0
O142 O 0.8422 0.28516 0.63894 0.0
In143 In 0.69826 0.61597 0.579 0.0
O144 O 0.7131 0.6246 0.66691 0.0
O145 O 0.70939 0.55853 0.62974 0.0
C146 C 0.68742 0.69945 0.55863 0.0
C147 C 0.78882 0.64498 0.52842 0.0
C148 C 0.60119 0.54669 0.5455 0.0
O149 O 0.69658 0.69007 0.60456 0.0
O150 O 0.68533 0.66777 0.52408 0.0
O151 O 0.64201 0.55267 0.5227 0.0
O152 O 0.6092 0.57251 0.58724 0.0
C153 C 0.71569 0.58302 0.67195 0.0
O154 O 0.75012 0.59854 0.52622 0.0
O155 O 0.7817 0.67654 0.55595 0.0
C156 C 0.24541 0.40172 0.99796 0.0
C157 C 0.19083 0.37142 0.98605 0.0
C158 C 0.20659 0.31213 0.93119 0.0
C159 C 0.26075 0.34191 0.94399 0.0
N160 N 0.33424 0.42301 0.97517 0.0
N161 N 0.1216 0.30762 0.93091 0.0
C162 C 0.28095 0.38955 0.97251 0.0
C163 C 0.17212 0.32976 0.9491 0.0
N164 N 0.26299 0.43935 0.03622 0.0
N165 N 0.18775 0.26575 0.9044 0.0
H166 H 0.09583 0.3205 0.9428 0.0
H167 H 0.10689 0.28022 0.90064 0.0
H168 H 0.21228 0.25252 0.88957 0.0
H169 H 0.14776 0.23903 0.89933 0.0
H170 H 0.30129 0.45775 0.05083 0.0
H171 H 0.23861 0.44952 0.05662 0.0
H172 H 0.35141 0.46069 0.99133 0.0
H173 H 0.36112 0.41511 0.95629 0.0
C174 C 0.69254 0.86121 0.96554 0.0
C175 C 0.64411 0.83095 0.99262 0.0
C176 C 0.62198 0.89998 0.97695 0.0
C177 C 0.67379 0.93352 0.95836 0.0
N178 N 0.75988 0.94811 0.93613 0.0
N179 N 0.56624 0.82563 0.03178 0.0
C180 C 0.70952 0.91466 0.95263 0.0
C181 C 0.6093 0.851 -0.00014 0.0
N182 N 0.72146 0.83838 0.95104 0.0
N183 N 0.58481 0.91491 0.97263 0.0
H184 H 0.55608 0.79067 0.05144 0.0
H185 H 0.5434 0.8421 0.04302 0.0
H186 H 0.59275 0.95045 0.95551 0.0
H187 H 0.54505 0.88986 0.98113 0.0
H188 H 0.75481 0.85698 0.9274 0.0
H189 H 0.70911 0.79879 0.95841 0.0
H190 H 0.7896 0.93846 0.9368 0.0
H191 H 0.77269 0.98686 0.92444 0.0
C192 C 0.14757 0.73785 0.96099 0.0
C193 C 0.16699 0.79286 0.95487 0.0
C194 C 0.08662 0.77497 0.9085 0.0
C195 C 0.06587 0.72059 0.91832 0.0
N196 N 0.08058 0.64862 0.93736 0.0
N197 N 0.1638 0.86274 0.9084 0.0
C198 C 0.09805 0.70156 0.93877 0.0
C199 C 0.13933 0.81101 0.92354 0.0
N200 N 0.17408 0.72018 0.99109 0.0
N201 N 0.05501 0.7922 0.8876 0.0
H202 H 0.20292 0.8895 0.9181 0.0
H203 H 0.1474 0.87784 0.88235 0.0
H204 H 0.01684 0.76628 0.87452 0.0
H205 H 0.06564 0.83183 0.88525 0.0
H206 H 0.15812 0.68104 0.00283 0.0
H207 H 0.2112 0.7448 0.00687 0.0
H208 H 0.10371 0.63221 0.94755 0.0
H209 H 0.04434 0.62154 0.92096 0.0
C210 C 0.70594 0.77303 0.49858 0.0
C211 C 0.68041 0.74442 0.54432 0.0
C212 C 0.63392 0.79415 0.55113 0.0
C213 C 0.65196 0.81491 0.50037 0.0
N214 N 0.69617 0.81352 0.42082 0.0
N215 N 0.61375 0.72245 0.61083 0.0
C216 C 0.68588 0.80185 0.47273 0.0
C217 C 0.64295 0.75375 0.5702 0.0
N218 N 0.74964 0.77298 0.47996 0.0
N219 N 0.6095 0.81381 0.58167 0.0
H220 H 0.61803 0.69166 0.62563 0.0
H221 H 0.58198 0.72419 0.62691 0.0
H222 H 0.60375 0.84465 0.56975 0.0
H223 H 0.60006 0.80335 0.62076 0.0
H224 H 0.77214 0.79687 0.44905 0.0
H225 H 0.76674 0.75384 0.49923 0.0
H226 H 0.71686 0.80026 0.39827 0.0
H227 H 0.67878 0.83059 0.3987 0.0
C228 C 0.23383 0.84245 0.47994 0.0
C229 C 0.182 0.81333 0.50014 0.0
C230 C 0.20005 0.8834 0.56316 0.0
C231 C 0.25152 0.91317 0.54204 0.0
N232 N 0.32158 0.91758 0.48858 0.0
N233 N 0.11868 0.79881 0.56729 0.0
C234 C 0.26971 0.89142 0.50313 0.0
C235 C 0.1661 0.83154 0.54398 0.0
N236 N 0.2478 0.8249 0.43658 0.0
N237 N 0.18274 0.9058 0.59917 0.0
H238 H 0.09341 0.76048 0.55405 0.0
H239 H 0.10631 0.8076 0.60205 0.0
H240 H 0.20681 0.94349 0.61441 0.0
H241 H 0.14383 0.88854 0.61181 0.0
H242 H 0.28218 0.84783 0.41532 0.0
H243 H 0.22359 0.78818 0.41953 0.0
H244 H 0.33888 0.90111 0.46548 0.0
H245 H 0.34873 0.95462 0.50298 0.0
C246 C 0.07195 0.34875 0.50032 0.0
C247 C 0.05905 0.33176 0.553 0.0
C248 C 0.14882 0.34848 0.56726 0.0
C249 C 0.15846 0.35766 0.51295 0.0
N250 N 0.12783 0.36084 0.42619 0.0
N251 N 0.08333 0.31206 0.63644 0.0
C252 C 0.11973 0.35638 0.47905 0.0
C253 C 0.0972 0.33136 0.58681 0.0
N254 N 0.03941 0.35946 0.47097 0.0
N255 N 0.18888 0.35582 0.59982 0.0
H256 H 0.04585 0.29906 0.65185 0.0
H257 H 0.10762 0.30548 0.66119 0.0
H258 H 0.22667 0.36712 0.58622 0.0
H259 H 0.1859 0.35463 0.64037 0.0
H260 H 0.04995 0.37784 0.43459 0.0
H261 H 0.00427 0.35552 0.48501 0.0
H262 H 0.0983 0.35348 0.39924 0.0
H263 H 0.16294 0.36798 0.40875 0.0
C264 C 0.74491 0.63629 0.0711 0.0
C265 C 0.74218 0.68034 0.05188 0.0
C266 C 0.81608 0.70282 0.99311 0.0
C267 C 0.82014 0.6597 0.01339 0.0
N268 N 0.7992 0.59615 0.08249 0.0
N269 N 0.78582 0.76484 0.00872 0.0
C270 C 0.78804 0.62993 0.05603 0.0
C271 C 0.7815 0.71678 0.01766 0.0
N272 N 0.70498 0.59874 0.10086 0.0
N273 N 0.84162 0.72803 0.94821 0.0
H274 H 0.76184 0.77675 0.02742 0.0
H275 H 0.8168 0.7948 0.98762 0.0
H276 H 0.86543 0.71814 0.9265 0.0
H277 H 0.83466 0.75547 0.92925 0.0
H278 H 0.70239 0.56294 0.11063 0.0
H279 H 0.67216 0.60117 0.11234 0.0
H280 H 0.7799 0.57696 0.11675 0.0
H281 H 0.83159 0.59188 0.0734 0.0
C282 C 0.34255 0.14226 0.04667 0.0
C283 C 0.31689 0.14784 0.00226 0.0
C284 C 0.26091 0.05187 0.99785 0.0
C285 C 0.2935 0.04639 0.03511 0.0
N286 N 0.3715 0.08783 0.08971 0.0
N287 N 0.25768 0.10618 0.92898 0.0
C288 C 0.3357 0.09187 0.05875 0.0
C289 C 0.27717 0.10226 0.97626 0.0
N290 N 0.37293 0.18487 0.07767 0.0
N291 N 0.2143 0.00894 0.98313 0.0
H292 H 0.27054 0.14162 0.90916 0.0
H293 H 0.23285 0.07333 0.90646 0.0
H294 H 0.20045 0.97155 0.99938 0.0
H295 H 0.18693 0.01178 0.95939 0.0
H296 H 0.38864 0.18183 0.11315 0.0
H297 H 0.37751 0.22209 0.07079 0.0
H298 H 0.406 0.12062 0.10291 0.0
H299 H 0.36978 0.05221 0.09823 0.0
C300 C 0.89713 0.28415 0.05884 0.0
C301 C 0.93285 0.26756 0.07469 0.0
C302 C 0.86527 0.17543 0.06073 0.0
C303 C 0.83338 0.19264 0.03552 0.0
N304 N 0.82048 0.26445 0.00721 0.0
N305 N 0.95259 0.19834 0.09112 0.0
C306 C 0.84903 0.24719 0.03461 0.0
C307 C 0.91723 0.21335 0.07624 0.0
N308 N 0.90971 0.33549 0.06588 0.0
N309 N 0.84529 0.12292 0.07078 0.0
H310 H 0.99003 0.22509 0.10535 0.0
H311 H 0.94582 0.16003 0.087 0.0
H312 H 0.80666 0.0944 0.06144 0.0
H313 H 0.86492 0.10825 0.09293 0.0
H314 H 0.88312 0.34879 0.06004 0.0
H315 H 0.94524 0.364 0.08226 0.0
H316 H 0.83393 0.30412 0.99938 0.0
H317 H 0.78508 0.23951 0.98847 0.0
C318 C 0.28084 0.17377 0.51533 0.0
C319 C 0.32077 0.16634 0.49218 0.0
C320 C 0.34137 0.23853 0.43111 0.0
C321 C 0.29901 0.24313 0.4522 0.0
N322 N 0.21795 0.20295 0.50143 0.0
N323 N 0.37791 0.18127 0.41826 0.0
C324 C 0.26513 0.20643 0.48984 0.0
C325 C 0.34756 0.1954 0.44687 0.0
N326 N 0.26062 0.15344 0.5635 0.0
N327 N 0.3776 0.27659 0.39879 0.0
H328 H 0.38161 0.14854 0.42741 0.0
H329 H 0.39446 0.19842 0.38238 0.0
H330 H 0.37557 0.30951 0.38679 0.0
H331 H 0.41229 0.27767 0.38741 0.0
H332 H 0.2352 0.16257 0.58346 0.0
H333 H 0.27373 0.13302 0.58655 0.0
H334 H 0.18991 0.17367 0.52563 0.0
H335 H 0.20454 0.22539 0.48207 0.0
C336 C 0.79346 0.1077 0.52965 0.0
C337 C 0.80557 0.15523 0.50359 0.0
C338 C 0.74491 0.10446 0.43297 0.0
C339 C 0.73616 0.05722 0.45752 0.0
N340 N 0.7651 0.01527 0.51984 0.0
N341 N 0.80297 0.19888 0.42445 0.0
C342 C 0.76484 0.05939 0.50278 0.0
C343 C 0.78438 0.15374 0.45335 0.0
N344 N 0.80622 0.10803 0.58109 0.0
N345 N 0.71409 0.1027 0.39212 0.0
H346 H 0.83286 0.23551 0.43746 0.0
H347 H 0.79246 0.19902 0.3856 0.0
H348 H 0.68496 0.06763 0.3756 0.0
H349 H 0.71481 0.13618 0.37718 0.0
H350 H 0.79344 0.07359 0.60282 0.0
H351 H 0.82414 0.14212 0.60384 0.0
H352 H 0.78915 0.01596 0.55018 0.0
H353 H 0.746 0.97947 0.49974 0.0
C354 C 0.93533 0.70892 0.5007 0.0
C355 C 0.93467 0.68457 0.45269 0.0
C356 C 0.83899 0.64577 0.44877 0.0
C357 C 0.83918 0.66106 0.50143 0.0
N358 N 0.88851 0.69966 0.58093 0.0
N359 N 0.88428 0.62382 0.38334 0.0
C360 C 0.88761 0.69109 0.52835 0.0
C361 C 0.88617 0.65175 0.42685 0.0
N362 N 0.98158 0.74931 0.51972 0.0
N363 N 0.79434 0.62697 0.41922 0.0
H364 H 0.91751 0.62611 0.36601 0.0
H365 H 0.84899 0.5948 0.36702 0.0
H366 H 0.75959 0.6242 0.43318 0.0
H367 H 0.79368 0.61983 0.37927 0.0
H368 H 0.9834 0.77124 0.55254 0.0
H369 H 0.01706 0.76474 0.4992 0.0
H370 H 0.92323 0.71706 0.6027 0.0
H371 H 0.85471 0.68421 0.60402 0.0
C372 C 0.21108 0.44471 0.3 0.0
C373 C 0.24327 0.42116 0.29569 0.0
C374 C 0.21781 0.39937 0.20403 0.0
C375 C 0.18429 0.42117 0.20883 0.0
N376 N 0.15832 0.47578 0.25573 0.0
N377 N 0.28935 0.39066 0.24101 0.0
C378 C 0.18432 0.4479 0.25494 0.0
C379 C 0.25038 0.40304 0.24673 0.0
N380 N 0.20322 0.46085 0.3476 0.0
N381 N 0.21766 0.37416 0.15898 0.0
H382 H 0.3147 0.39442 0.27143 0.0
H383 H 0.30006 0.38178 0.20529 0.0
H384 H 0.19686 0.37345 0.12567 0.0
H385 H 0.23607 0.35177 0.15521 0.0
H386 H 0.17484 0.47159 0.35451 0.0
H387 H 0.22273 0.46059 0.38145 0.0
H388 H 0.1613 0.50072 0.28616 0.0
H389 H 0.13696 0.47738 0.22389 0.0
C390 C 0.53683 0.74996 0.22911 0.0
C391 C 0.58468 0.76315 0.20313 0.0
C392 C 0.63325 0.83674 0.26338 0.0
C393 C 0.58505 0.82714 0.28624 0.0
N394 N 0.48995 0.7806 0.2839 0.0
N395 N 0.67523 0.82968 0.18536 0.0
C396 C 0.53642 0.78542 0.26708 0.0
C397 C 0.63193 0.80969 0.21716 0.0
N398 N 0.49234 0.70288 0.21904 0.0
N399 N 0.68049 0.86917 0.28708 0.0
H400 H 0.67549 0.81313 0.14942 0.0
H401 H 0.70875 0.86632 0.19178 0.0
H402 H 0.6841 0.88766 0.32281 0.0
H403 H 0.71588 0.8727 0.27418 0.0
H404 H 0.45774 0.68876 0.24067 0.0
H405 H 0.4914 0.67573 0.19206 0.0
H406 H 0.45353 0.75408 0.26768 0.0
H407 H 0.48826 0.80671 0.31051 0.0
C408 C 0.18464 0.75427 0.18155 0.0
C409 C 0.22208 0.8089 0.18734 0.0
C410 C 0.19695 0.80535 0.27911 0.0
C411 C 0.16107 0.75042 0.27391 0.0
N412 N 0.12789 0.67023 0.22422 0.0
N413 N 0.27312 0.88304 0.24396 0.0
C414 C 0.15741 0.72405 0.2264 0.0
C415 C 0.23107 0.83337 0.23694 0.0
N416 N 0.17257 0.73201 0.13294 0.0
N417 N 0.19714 0.83122 0.32367 0.0
H418 H 0.29955 0.90421 0.21403 0.0
H419 H 0.28492 0.90106 0.28037 0.0
H420 H 0.17312 0.81214 0.35573 0.0
H421 H 0.21813 0.87214 0.32745 0.0
H422 H 0.14148 0.69409 0.12563 0.0
H423 H 0.19096 0.7528 0.09905 0.0
H424 H 0.12791 0.6482 0.19229 0.0
H425 H 0.10662 0.64726 0.25618 0.0
C426 C 0.7708 0.60245 0.8084 0.0
C427 C 0.80347 0.57971 0.80191 0.0
C428 C 0.75748 0.53787 0.72073 0.0
C429 C 0.73358 0.56974 0.72154 0.0
N430 N 0.69739 0.61082 0.77561 0.0
N431 N 0.82892 0.5261 0.75204 0.0
C432 C 0.73433 0.59591 0.76836 0.0
C433 C 0.79654 0.54679 0.75853 0.0
N434 N 0.77511 0.63057 0.85262 0.0
N435 N 0.74034 0.49678 0.68645 0.0
H436 H 0.85784 0.53147 0.77904 0.0
H437 H 0.82988 0.50715 0.71797 0.0
H438 H 0.70664 0.48425 0.66376 0.0
H439 H 0.75397 0.47004 0.68649 0.0
H440 H 0.75761 0.65367 0.85743 0.0
H441 H 0.79757 0.6319 0.88473 0.0
H442 H 0.69313 0.62762 0.80971 0.0
H443 H 0.66675 0.60077 0.74911 0.0
C444 C 0.3782 0.16909 0.8008 0.0
C445 C 0.38241 0.21902 0.79179 0.0
C446 C 0.37969 0.20485 0.69729 0.0
C447 C 0.37869 0.15637 0.70625 0.0
N448 N 0.38625 0.09651 0.76543 0.0
N449 N 0.39621 0.28875 0.73263 0.0
C450 C 0.38056 0.13964 0.75774 0.0
C451 C 0.38578 0.23816 0.74032 0.0
N452 N 0.36967 0.14874 0.85026 0.0
N453 N 0.37242 0.21797 0.64794 0.0
H454 H 0.40069 0.31409 0.76335 0.0
H455 H 0.4049 0.30715 0.69625 0.0
H456 H 0.36801 0.19494 0.61522 0.0
H457 H 0.36647 0.24946 0.63976 0.0
H458 H 0.35983 0.11002 0.85854 0.0
H459 H 0.36836 0.16916 0.88302 0.0
H460 H 0.39371 0.08565 0.80177 0.0
H461 H 0.38804 0.07399 0.73476 0.0
C462 C 0.81029 0.2303 0.81529 0.0
C463 C 0.76498 0.17959 0.80896 0.0
C464 C 0.77316 0.18902 0.71365 0.0
C465 C 0.82158 0.23714 0.72008 0.0
N466 N 0.8875 0.30401 0.77548 0.0
N467 N 0.70318 0.10921 0.7537 0.0
C468 C 0.84029 0.25813 0.77053 0.0
C469 C 0.74611 0.15876 0.75851 0.0
N470 N 0.82469 0.25154 0.86421 0.0
N471 N 0.75323 0.17216 0.66461 0.0
H472 H 0.68063 0.08734 0.78562 0.0
H473 H 0.69098 0.08853 0.71869 0.0
H474 H 0.77288 0.19168 0.63061 0.0
H475 H 0.7157 0.14058 0.6572 0.0
H476 H 0.85401 0.29021 0.87163 0.0
H477 H 0.80495 0.23132 0.8979 0.0
H478 H 0.90679 0.31878 0.81083 0.0
H479 H 0.90894 0.3267 0.74346 0.0
C480 C 0.98917 0.48982 0.05837 0.0
C481 C 0.0277 0.48639 0.02749 0.0
C482 C 0.98858 0.49926 0.9483 0.0
C483 C 0.95107 0.50419 0.97905 0.0
N484 N 0.90269 0.48151 0.05985 0.0
N485 N 0.07548 0.50938 0.9461 0.0
C486 C 0.94753 0.49284 0.0332 0.0
C487 C 0.0307 0.49736 0.97325 0.0
N488 N -0.00561 0.49465 0.11139 0.0
N489 N 0.98194 0.49227 0.89556 0.0
H490 H 0.1092 0.51363 0.96444 0.0
H491 H 0.08155 0.52223 0.90741 0.0
H492 H 0.94747 0.48553 0.87695 0.0
H493 H 0.00637 0.48471 0.87192 0.0
H494 H 0.96925 0.50103 0.13516 0.0
H495 H 0.02832 0.50116 0.1308 0.0
H496 H 0.89569 0.4682 0.09836 0.0
H497 H 0.86954 0.47816 0.04108 0.0
C498 C 0.50047 0.49524 0.05607 0.0
C499 C 0.50487 0.53784 0.02555 0.0
C500 C 0.48591 0.48395 0.94659 0.0
C501 C 0.48047 0.44096 0.97694 0.0
N502 N 0.50383 0.41423 0.05678 0.0
N503 N 0.47759 0.56182 0.94619 0.0
C504 C 0.49383 0.44901 0.03074 0.0
C505 C 0.49062 0.52912 0.972 0.0
N506 N 0.49793 0.49682 0.10924 0.0
N507 N 0.49045 0.48353 0.89355 0.0
H508 H 0.47367 0.59112 0.96536 0.0
H509 H 0.46289 0.55461 0.90817 0.0
H510 H 0.49502 0.45475 0.87415 0.0
H511 H 0.49826 0.51579 0.87012 0.0
H512 H 0.49062 0.4651 0.13323 0.0
H513 H 0.49468 0.52631 0.12877 0.0
H514 H 0.51818 0.42035 0.09487 0.0
H515 H 0.50506 0.38334 0.03776 0.0
C516 C 0.46235 0.0175 0.9866 0.0
C517 C 0.44501 0.97452 0.02197 0.0
C518 C 0.53582 0.99293 0.03199 0.0
C519 C 0.55207 0.03188 0.99198 0.0
N520 N 0.53076 0.07885 0.92808 0.0
N521 N 0.46318 0.91715 0.07437 0.0
C522 C 0.51524 0.04335 0.96827 0.0
C523 C 0.48127 0.96144 0.04409 0.0
N524 N 0.42891 0.03529 0.97251 0.0
N525 N 0.5723 0.9855 0.05813 0.0
H526 H 0.42353 0.89322 0.08417 0.0
H527 H 0.48656 0.90161 0.08643 0.0
H528 H 0.61208 0.00428 0.04817 0.0
H529 H 0.56374 0.96272 0.09183 0.0
H530 H 0.44068 0.06979 0.9513 0.0
H531 H 0.39032 0.01842 0.98624 0.0
H532 H 0.50447 0.08383 0.90475 0.0
H533 H 0.5699 0.10145 0.916 0.0
C534 C 0.46488 0.93821 0.50679 0.0
C535 C 0.51153 0.96687 0.47709 0.0
C536 C 0.51134 0.04918 0.49518 0.0
C537 C 0.46657 0.02089 0.52767 0.0
N538 N 0.40787 0.93973 0.57391 0.0
N539 N 0.58706 0.05157 0.45483 0.0
C540 C 0.44593 0.96596 0.53694 0.0
C541 C 0.53697 0.02293 0.47427 0.0
N542 N 0.43697 0.8843 0.50402 0.0
N543 N 0.52981 0.10135 0.48462 0.0
H544 H 0.6086 0.03457 0.4412 0.0
H545 H 0.60952 0.09255 0.45716 0.0
H546 H 0.51537 0.12337 0.50299 0.0
H547 H 0.55772 0.12207 0.45573 0.0
H548 H 0.39945 0.86146 0.51998 0.0
H549 H 0.44877 0.86257 0.4811 0.0
H550 H 0.39656 0.90157 0.58623 0.0
H551 H 0.38983 0.95659 0.59516 0.0
C552 C 0.01177 0.46631 0.50358 0.0
C553 C 0.95581 0.43665 0.50668 0.0
C554 C 0.95022 0.50434 0.45539 0.0
C555 C 0.00599 0.53164 0.44897 0.0
N556 N 0.08768 0.53118 0.45512 0.0
N557 N 0.87127 0.42234 0.47795 0.0
C558 C 0.03605 0.51024 0.46946 0.0
C559 C 0.92486 0.45381 0.4797 0.0
N560 N 0.0421 0.45344 0.5338 0.0
N561 N 0.92173 0.52793 0.4419 0.0
H562 H 0.85103 0.38652 0.49792 0.0
H563 H 0.84731 0.43011 0.45385 0.0
H564 H 0.93827 0.56527 0.42513 0.0
H565 H 0.88212 0.51236 0.45149 0.0
H566 H 0.08284 0.47732 0.53716 0.0
H567 H 0.02656 0.42117 0.55884 0.0
H568 H 0.11019 0.51385 0.46454 0.0
H569 H 0.10624 0.56262 0.42893 0.0
C570 C 0.45722 0.44375 0.52552 0.0
C571 C 0.44439 0.46672 0.48323 0.0
C572 C 0.5366 0.53664 0.47621 0.0
C573 C 0.54819 0.51693 0.52211 0.0
N574 N 0.51947 0.45491 0.59355 0.0
N575 N 0.46931 0.53816 0.42234 0.0
C576 C 0.5084 0.47149 0.54779 0.0
C577 C 0.48346 0.51381 0.45932 0.0
N578 N 0.42137 0.39421 0.54268 0.0
N579 N 0.57619 0.5773 0.44877 0.0
H580 H 0.43065 0.52279 0.40924 0.0
H581 H 0.49477 0.57575 0.40775 0.0
H582 H 0.61536 0.59718 0.46077 0.0
H583 H 0.571 0.58897 0.41188 0.0
H584 H 0.43029 0.37302 0.56942 0.0
H585 H 0.38382 0.37197 0.5267 0.0
H586 H 0.49065 0.42621 0.61754 0.0
H587 H 0.55735 0.47197 0.60923 0.0
loop_
_geom_bond_atom_site_label_1
_geom_bond_atom_site_label_2
_geom_bond_distance
_geom_bond_site_symmetry_2
_ccdc_geom_bond_type
In0 O1 2.294 . S
In0 O2 2.326 . S
In0 O6 2.266 . S
In0 O7 2.326 1_554 S
In0 O8 2.266 . S
In0 O9 2.326 . S
In0 O11 2.294 . S
In0 O12 2.326 . S
O1 In0 2.294 . S
O1 C10 1.240 . S
O2 In0 2.326 . S
O2 C10 1.252 . S
C3 O6 1.252 1_655 S
C3 O7 1.260 1_654 S
C4 O11 1.240 . S
C4 O12 1.252 . S
C5 O8 1.252 . S
C5 O9 1.260 . S
O6 In0 2.266 . S
O6 C3 1.252 1_455 S
O7 In0 2.326 1_556 S
O7 C3 1.260 1_456 S
O8 In0 2.266 . S
O8 C5 1.252 . S
O9 In0 2.326 . S
O9 C5 1.260 . S
C10 O1 1.240 . S
C10 O2 1.252 . S
O11 In0 2.294 . S
O11 C4 1.240 . S
O12 In0 2.326 . S
O12 C4 1.252 . S
In13 O14 2.294 . S
In13 O15 2.326 . S
In13 O19 2.266 . S
In13 O20 2.326 1_554 S
In13 O21 2.266 . S
In13 O22 2.326 . S
In13 O24 2.294 . S
In13 O25 2.326 . S
O14 In13 2.294 . S
O14 C23 1.240 . S
O15 In13 2.326 . S
O15 C23 1.252 . S
C16 O19 1.252 . S
C16 O20 1.260 1_554 S
C17 O24 1.240 . S
C17 O25 1.252 . S
C18 O21 1.252 . S
C18 O22 1.260 . S
O19 In13 2.266 . S
O19 C16 1.252 . S
O20 In13 2.326 1_556 S
O20 C16 1.260 1_556 S
O21 In13 2.266 . S
O21 C18 1.252 . S
O22 In13 2.326 . S
O22 C18 1.260 . S
C23 O14 1.240 . S
C23 O15 1.252 . S
O24 In13 2.294 . S
O24 C17 1.240 . S
O25 In13 2.326 . S
O25 C17 1.252 . S
In26 O27 2.294 . S
In26 O28 2.326 . S
In26 O32 2.266 . S
In26 O33 2.326 . S
In26 O34 2.266 . S
In26 O35 2.326 1_554 S
In26 O37 2.294 . S
In26 O38 2.326 . S
O27 In26 2.294 . S
O27 C36 1.240 . S
O28 In26 2.326 . S
O28 C36 1.252 . S
C29 O32 1.252 . S
C29 O33 1.260 . S
C30 O37 1.240 . S
C30 O38 1.252 . S
C31 O34 1.252 1_545 S
C31 O35 1.260 1_544 S
O32 In26 2.266 . S
O32 C29 1.252 . S
O33 In26 2.326 . S
O33 C29 1.260 . S
O34 In26 2.266 . S
O34 C31 1.252 1_565 S
O35 In26 2.326 1_556 S
O35 C31 1.260 1_566 S
C36 O27 1.240 . S
C36 O28 1.252 . S
O37 In26 2.294 . S
O37 C30 1.240 . S
O38 In26 2.326 . S
O38 C30 1.252 . S
In39 O40 2.294 . S
In39 O41 2.326 . S
In39 O45 2.266 . S
In39 O46 2.326 . S
In39 O47 2.266 . S
In39 O48 2.326 . S
In39 O50 2.294 . S
In39 O51 2.326 . S
O40 In39 2.294 . S
O40 C49 1.240 . S
O41 In39 2.326 . S
O41 C49 1.252 . S
C42 O45 1.252 . S
C42 O46 1.260 . S
C43 O50 1.240 . S
C43 O51 1.252 . S
C44 O47 1.252 1_545 S
C44 O48 1.260 1_545 S
O45 In39 2.266 . S
O45 C42 1.252 . S
O46 In39 2.326 . S
O46 C42 1.260 . S
O47 In39 2.266 . S
O47 C44 1.252 1_565 S
O48 In39 2.326 . S
O48 C44 1.260 1_565 S
C49 O40 1.240 . S
C49 O41 1.252 . S
O50 In39 2.294 . S
O50 C43 1.240 . S
O51 In39 2.326 . S
O51 C43 1.252 . S
In52 O53 2.294 . S
In52 O54 2.326 . S
In52 O58 2.266 . S
In52 O59 2.326 . S
In52 O60 2.266 . S
In52 O61 2.326 . S
In52 O63 2.294 . S
In52 O64 2.326 . S
O53 In52 2.294 . S
O53 C62 1.240 . S
O54 In52 2.326 . S
O54 C62 1.252 . S
C55 O58 1.252 1_655 S
C55 O59 1.260 1_655 S
C56 O63 1.240 . S
C56 O64 1.252 . S
C57 O60 1.252 . S
C57 O61 1.260 . S
O58 In52 2.266 . S
O58 C55 1.252 1_455 S
O59 In52 2.326 . S
O59 C55 1.260 1_455 S
O60 In52 2.266 . S
O60 C57 1.252 . S
O61 In52 2.326 . S
O61 C57 1.260 . S
C62 O53 1.240 . S
C62 O54 1.252 . S
O63 In52 2.294 . S
O63 C56 1.240 . S
O64 In52 2.326 . S
O64 C56 1.252 . S
In65 O66 2.294 . S
In65 O67 2.326 . S
In65 O71 2.266 . S
In65 O72 2.326 . S
In65 O73 2.266 . S
In65 O74 2.326 . S
In65 O76 2.294 . S
In65 O77 2.326 . S
O66 In65 2.294 . S
O66 C75 1.240 . S
O67 In65 2.326 . S
O67 C75 1.252 . S
C68 O71 1.252 . S
C68 O72 1.260 . S
C69 O76 1.240 . S
C69 O77 1.252 . S
C70 O73 1.252 . S
C70 O74 1.260 . S
O71 In65 2.266 . S
O71 C68 1.252 . S
O72 In65 2.326 . S
O72 C68 1.260 . S
O73 In65 2.266 . S
O73 C70 1.252 . S
O74 In65 2.326 . S
O74 C70 1.260 . S
C75 O66 1.240 . S
C75 O67 1.252 . S
O76 In65 2.294 . S
O76 C69 1.240 . S
O77 In65 2.326 . S
O77 C69 1.252 . S
In78 O79 2.294 . S
In78 O80 2.326 . S
In78 O84 2.266 . S
In78 O85 2.326 . S
In78 O86 2.266 . S
In78 O87 2.326 1_556 S
In78 O89 2.294 . S
In78 O90 2.326 . S
O79 In78 2.294 . S
O79 C88 1.240 . S
O80 In78 2.326 . S
O80 C88 1.252 . S
C81 O84 1.252 . S
C81 O85 1.260 . S
C82 O89 1.240 . S
C82 O90 1.252 . S
C83 O86 1.252 1_455 S
C83 O87 1.260 1_456 S
O84 In78 2.266 . S
O84 C81 1.252 . S
O85 In78 2.326 . S
O85 C81 1.260 . S
O86 In78 2.266 . S
O86 C83 1.252 1_655 S
O87 In78 2.326 1_554 S
O87 C83 1.260 1_654 S
C88 O79 1.240 . S
C88 O80 1.252 . S
O89 In78 2.294 . S
O89 C82 1.240 . S
O90 In78 2.326 . S
O90 C82 1.252 . S
In91 O92 2.294 . S
In91 O93 2.326 . S
In91 O97 2.266 . S
In91 O98 2.326 1_556 S
In91 O99 2.266 . S
In91 O100 2.326 . S
In91 O102 2.294 . S
In91 O103 2.326 . S
O92 In91 2.294 . S
O92 C101 1.240 . S
O93 In91 2.326 . S
O93 C101 1.252 . S
C94 O97 1.252 . S
C94 O98 1.260 1_556 S
C95 O102 1.240 . S
C95 O103 1.252 . S
C96 O99 1.252 . S
C96 O100 1.260 . S
O97 In91 2.266 . S
O97 C94 1.252 . S
O98 In91 2.326 1_554 S
O98 C94 1.260 1_554 S
O99 In91 2.266 . S
O99 C96 1.252 . S
O100 In91 2.326 . S
O100 C96 1.260 . S
C101 O92 1.240 . S
C101 O93 1.252 . S
O102 In91 2.294 . S
O102 C95 1.240 . S
O103 In91 2.326 . S
O103 C95 1.252 . S
In104 O105 2.294 . S
In104 O106 2.326 . S
In104 O110 2.266 . S
In104 O111 2.326 1_556 S
In104 O112 2.266 . S
In104 O113 2.326 . S
In104 O115 2.294 . S
In104 O116 2.326 . S
O105 In104 2.294 . S
O105 C114 1.240 . S
O106 In104 2.326 . S
O106 C114 1.252 . S
C107 O110 1.252 1_565 S
C107 O111 1.260 1_566 S
C108 O115 1.240 . S
C108 O116 1.252 . S
C109 O112 1.252 . S
C109 O113 1.260 . S
O110 In104 2.266 . S
O110 C107 1.252 1_545 S
O111 In104 2.326 1_554 S
O111 C107 1.260 1_544 S
O112 In104 2.266 . S
O112 C109 1.252 . S
O113 In104 2.326 . S
O113 C109 1.260 . S
C114 O105 1.240 . S
C114 O106 1.252 . S
O115 In104 2.294 . S
O115 C108 1.240 . S
O116 In104 2.326 . S
O116 C108 1.252 . S
In117 O118 2.294 . S
In117 O119 2.326 . S
In117 O123 2.266 . S
In117 O124 2.326 . S
In117 O125 2.266 . S
In117 O126 2.326 . S
In117 O128 2.294 . S
In117 O129 2.326 . S
O118 In117 2.294 . S
O118 C127 1.240 . S
O119 In117 2.326 . S
O119 C127 1.252 . S
C120 O123 1.252 . S
C120 O124 1.260 . S
C121 O128 1.240 . S
C121 O129 1.252 . S
C122 O125 1.252 1_565 S
C122 O126 1.260 1_565 S
O123 In117 2.266 . S
O123 C120 1.252 . S
O124 In117 2.326 . S
O124 C120 1.260 . S
O125 In117 2.266 . S
O125 C122 1.252 1_545 S
O126 In117 2.326 . S
O126 C122 1.260 1_545 S
C127 O118 1.240 . S
C127 O119 1.252 . S
O128 In117 2.294 . S
O128 C121 1.240 . S
O129 In117 2.326 . S
O129 C121 1.252 . S
In130 O131 2.294 . S
In130 O132 2.326 . S
In130 O136 2.266 . S
In130 O137 2.326 . S
In130 O138 2.266 . S
In130 O139 2.326 . S
In130 O141 2.294 . S
In130 O142 2.326 . S
O131 In130 2.294 . S
O131 C140 1.240 . S
O132 In130 2.326 . S
O132 C140 1.252 . S
C133 O136 1.252 . S
C133 O137 1.260 . S
C134 O141 1.240 . S
C134 O142 1.252 . S
C135 O138 1.252 1_455 S
C135 O139 1.260 1_455 S
O136 In130 2.266 . S
O136 C133 1.252 . S
O137 In130 2.326 . S
O137 C133 1.260 . S
O138 In130 2.266 . S
O138 C135 1.252 1_655 S
O139 In130 2.326 . S
O139 C135 1.260 1_655 S
C140 O131 1.240 . S
C140 O132 1.252 . S
O141 In130 2.294 . S
O141 C134 1.240 . S
O142 In130 2.326 . S
O142 C134 1.252 . S
In143 O144 2.294 . S
In143 O145 2.326 . S
In143 O149 2.266 . S
In143 O150 2.326 . S
In143 O151 2.266 . S
In143 O152 2.326 . S
In143 O154 2.294 . S
In143 O155 2.326 . S
O144 In143 2.294 . S
O144 C153 1.240 . S
O145 In143 2.326 . S
O145 C153 1.252 . S
C146 O149 1.252 . S
C146 O150 1.260 . S
C147 O154 1.240 . S
C147 O155 1.252 . S
C148 O151 1.252 . S
C148 O152 1.260 . S
O149 In143 2.266 . S
O149 C146 1.252 . S
O150 In143 2.326 . S
O150 C146 1.260 . S
O151 In143 2.266 . S
O151 C148 1.252 . S
O152 In143 2.326 . S
O152 C148 1.260 . S
C153 O144 1.240 . S
C153 O145 1.252 . S
O154 In143 2.294 . S
O154 C147 1.240 . S
O155 In143 2.326 . S
O155 C147 1.252 . S
C156 C157 1.363 . S
C156 C162 1.379 . S
C156 N164 1.356 . S
C157 C156 1.363 . S
C157 C163 1.363 1_554 S
C158 C159 1.363 . S
C158 C163 1.379 . S
C158 N165 1.356 . S
C159 C158 1.363 . S
C159 C162 1.363 1_556 S
N160 C162 1.356 . S
N160 H172 0.984 . S
N160 H173 0.985 . S
N161 C163 1.356 . S
N161 H166 0.984 . S
N161 H167 0.985 . S
C162 C156 1.379 . S
C162 C159 1.363 1_554 S
C162 N160 1.356 . S
C163 C157 1.363 1_556 S
C163 C158 1.379 . S
C163 N161 1.356 . S
N164 C156 1.356 . S
N164 H170 0.984 . S
N164 H171 0.984 . S
N165 C158 1.356 . S
N165 H168 0.984 . S
N165 H169 0.985 . S
H166 N161 0.984 . S
H167 N161 0.985 . S
H168 N165 0.984 . S
H169 N165 0.985 . S
H170 N164 0.984 . S
H171 N164 0.984 . S
H172 N160 0.984 . S
H173 N160 0.985 . S
C174 C175 1.363 1_556 S
C174 C180 1.379 . S
C174 N182 1.356 . S
C175 C174 1.363 1_554 S
C175 C181 1.363 . S
C176 C177 1.363 1_554 S
C176 C181 1.379 . S
C176 N183 1.356 . S
C177 C176 1.363 1_556 S
C177 C180 1.363 . S
N178 C180 1.356 . S
N178 H190 0.984 . S
N178 H191 0.985 . S
N179 C181 1.356 . S
N179 H184 0.984 . S
N179 H185 0.985 . S
C180 C174 1.379 . S
C180 C177 1.363 . S
C180 N178 1.356 . S
C181 C175 1.363 . S
C181 C176 1.379 . S
C181 N179 1.356 . S
N182 C174 1.356 . S
N182 H188 0.984 . S
N182 H189 0.984 . S
N183 C176 1.356 . S
N183 H186 0.984 1_565 S
N183 H187 0.985 . S
H184 N179 0.984 . S
H185 N179 0.985 . S
H186 N183 0.984 1_545 S
H187 N183 0.985 . S
H188 N182 0.984 . S
H189 N182 0.984 . S
H190 N178 0.984 . S
H191 N178 0.985 . S
C192 C193 1.363 . S
C192 C198 1.379 . S
C192 N200 1.356 . S
C193 C192 1.363 . S
C193 C199 1.363 1_554 S
C194 C195 1.363 . S
C194 C199 1.379 . S
C194 N201 1.356 . S
C195 C194 1.363 . S
C195 C198 1.363 1_556 S
N196 C198 1.356 . S
N196 H208 0.984 . S
N196 H209 0.985 . S
N197 C199 1.356 . S
N197 H202 0.984 . S
N197 H203 0.985 . S
C198 C192 1.379 . S
C198 C195 1.363 1_554 S
C198 N196 1.356 . S
C199 C193 1.363 1_556 S
C199 C194 1.379 . S
C199 N197 1.356 . S
N200 C192 1.356 . S
N200 H206 0.984 . S
N200 H207 0.984 . S
N201 C194 1.356 . S
N201 H204 0.984 1_455 S
N201 H205 0.985 . S
H202 N197 0.984 . S
H203 N197 0.985 . S
H204 N201 0.984 1_655 S
H205 N201 0.985 . S
H206 N200 0.984 . S
H207 N200 0.984 . S
H208 N196 0.984 . S
H209 N196 0.985 . S
C210 C211 1.363 . S
C210 C216 1.379 . S
C210 N218 1.356 . S
C211 C210 1.363 . S
C211 C217 1.363 . S
C212 C213 1.363 . S
C212 C217 1.379 . S
C212 N219 1.356 . S
C213 C212 1.363 . S
C213 C216 1.363 . S
N214 C216 1.356 . S
N214 H226 0.984 . S
N214 H227 0.985 . S
N215 C217 1.356 . S
N215 H220 0.984 . S
N215 H221 0.985 . S
C216 C210 1.379 . S
C216 C213 1.363 . S
C216 N214 1.356 . S
C217 C211 1.363 . S
C217 C212 1.379 . S
C217 N215 1.356 . S
N218 C210 1.356 . S
N218 H224 0.984 . S
N218 H225 0.984 . S
N219 C212 1.356 . S
N219 H222 0.984 . S
N219 H223 0.985 . S
H220 N215 0.984 . S
H221 N215 0.985 . S
H222 N219 0.984 . S
H223 N219 0.985 . S
H224 N218 0.984 . S
H225 N218 0.984 . S
H226 N214 0.984 . S
H227 N214 0.985 . S
C228 C229 1.363 . S
C228 C234 1.379 . S
C228 N236 1.356 . S
C229 C228 1.363 . S
C229 C235 1.363 . S
C230 C231 1.363 . S
C230 C235 1.379 . S
C230 N237 1.356 . S
C231 C230 1.363 . S
C231 C234 1.363 . S
N232 C234 1.356 . S
N232 H244 0.984 . S
N232 H245 0.985 1_565 S
N233 C235 1.356 . S
N233 H238 0.984 . S
N233 H239 0.985 . S
C234 C228 1.379 . S
C234 C231 1.363 . S
C234 N232 1.356 . S
C235 C229 1.363 . S
C235 C230 1.379 . S
C235 N233 1.356 . S
N236 C228 1.356 . S
N236 H242 0.984 . S
N236 H243 0.984 . S
N237 C230 1.356 . S
N237 H240 0.984 . S
N237 H241 0.985 . S
H238 N233 0.984 . S
H239 N233 0.985 . S
H240 N237 0.984 . S
H241 N237 0.985 . S
H242 N236 0.984 . S
H243 N236 0.984 . S
H244 N232 0.984 . S
H245 N232 0.985 1_545 S
C246 C247 1.363 . S
C246 C252 1.379 . S
C246 N254 1.356 . S
C247 C246 1.363 . S
C247 C253 1.363 . S
C248 C249 1.363 . S
C248 C253 1.379 . S
C248 N255 1.356 . S
C249 C248 1.363 . S
C249 C252 1.363 . S
N250 C252 1.356 . S
N250 H262 0.984 . S
N250 H263 0.985 . S
N251 C253 1.356 . S
N251 H256 0.984 . S
N251 H257 0.985 . S
C252 C246 1.379 . S
C252 C249 1.363 . S
C252 N250 1.356 . S
C253 C247 1.363 . S
C253 C248 1.379 . S
C253 N251 1.356 . S
N254 C246 1.356 . S
N254 H260 0.984 . S
N254 H261 0.984 1_455 S
N255 C248 1.356 . S
N255 H258 0.984 . S
N255 H259 0.985 . S
H256 N251 0.984 . S
H257 N251 0.985 . S
H258 N255 0.984 . S
H259 N255 0.985 . S
H260 N254 0.984 . S
H261 N254 0.984 1_655 S
H262 N250 0.984 . S
H263 N250 0.985 . S
C264 C265 1.363 . S
C264 C270 1.379 . S
C264 N272 1.356 . S
C265 C264 1.363 . S
C265 C271 1.363 1_554 S
C266 C267 1.363 . S
C266 C271 1.379 . S
C266 N273 1.356 . S
C267 C266 1.363 . S
C267 C270 1.363 1_556 S
N268 C270 1.356 . S
N268 H280 0.984 . S
N268 H281 0.985 . S
N269 C271 1.356 . S
N269 H274 0.984 . S
N269 H275 0.985 . S
C270 C264 1.379 . S
C270 C267 1.363 1_554 S
C270 N268 1.356 . S
C271 C265 1.363 1_556 S
C271 C266 1.379 . S
C271 N269 1.356 . S
N272 C264 1.356 . S
N272 H278 0.984 . S
N272 H279 0.984 . S
N273 C266 1.356 . S
N273 H276 0.984 . S
N273 H277 0.985 . S
H274 N269 0.984 . S
H275 N269 0.985 . S
H276 N273 0.984 . S
H277 N273 0.985 . S
H278 N272 0.984 . S
H279 N272 0.984 . S
H280 N268 0.984 . S
H281 N268 0.985 . S
C282 C283 1.363 1_554 S
C282 C288 1.379 . S
C282 N290 1.356 . S
C283 C282 1.363 1_556 S
C283 C289 1.363 . S
C284 C285 1.363 1_556 S
C284 C289 1.379 . S
C284 N291 1.356 . S
C285 C284 1.363 1_554 S
C285 C288 1.363 . S
N286 C288 1.356 . S
N286 H298 0.984 . S
N286 H299 0.985 . S
N287 C289 1.356 . S
N287 H292 0.984 . S
N287 H293 0.985 . S
C288 C282 1.379 . S
C288 C285 1.363 . S
C288 N286 1.356 . S
C289 C283 1.363 . S
C289 C284 1.379 . S
C289 N287 1.356 . S
N290 C282 1.356 . S
N290 H296 0.984 . S
N290 H297 0.984 . S
N291 C284 1.356 . S
N291 H294 0.984 1_545 S
N291 H295 0.985 . S
H292 N287 0.984 . S
H293 N287 0.985 . S
H294 N291 0.984 1_565 S
H295 N291 0.985 . S
H296 N290 0.984 . S
H297 N290 0.984 . S
H298 N286 0.984 . S
H299 N286 0.985 . S
C300 C301 1.363 1_556 S
C300 C306 1.379 . S
C300 N308 1.356 . S
C301 C300 1.363 1_554 S
C301 C307 1.363 . S
C302 C303 1.363 1_554 S
C302 C307 1.379 . S
C302 N309 1.356 . S
C303 C302 1.363 1_556 S
C303 C306 1.363 . S
N304 C306 1.356 . S
N304 H316 0.984 . S
N304 H317 0.985 . S
N305 C307 1.356 . S
N305 H310 0.984 1_655 S
N305 H311 0.985 . S
C306 C300 1.379 . S
C306 C303 1.363 . S
C306 N304 1.356 . S
C307 C301 1.363 . S
C307 C302 1.379 . S
C307 N305 1.356 . S
N308 C300 1.356 . S
N308 H314 0.984 . S
N308 H315 0.984 . S
N309 C302 1.356 . S
N309 H312 0.984 . S
N309 H313 0.985 . S
H310 N305 0.984 1_455 S
H311 N305 0.985 . S
H312 N309 0.984 . S
H313 N309 0.985 . S
H314 N308 0.984 . S
H315 N308 0.984 . S
H316 N304 0.984 . S
H317 N304 0.985 . S
C318 C319 1.363 . S
C318 C324 1.379 . S
C318 N326 1.356 . S
C319 C318 1.363 . S
C319 C325 1.363 . S
C320 C321 1.363 . S
C320 C325 1.379 . S
C320 N327 1.356 . S
C321 C320 1.363 . S
C321 C324 1.363 . S
N322 C324 1.356 . S
N322 H334 0.984 . S
N322 H335 0.985 . S
N323 C325 1.356 . S
N323 H328 0.984 . S
N323 H329 0.985 . S
C324 C318 1.379 . S
C324 C321 1.363 . S
C324 N322 1.356 . S
C325 C319 1.363 . S
C325 C320 1.379 . S
C325 N323 1.356 . S
N326 C318 1.356 . S
N326 H332 0.984 . S
N326 H333 0.984 . S
N327 C320 1.356 . S
N327 H330 0.984 . S
N327 H331 0.985 . S
H328 N323 0.984 . S
H329 N323 0.985 . S
H330 N327 0.984 . S
H331 N327 0.985 . S
H332 N326 0.984 . S
H333 N326 0.984 . S
H334 N322 0.984 . S
H335 N322 0.985 . S
C336 C337 1.363 . S
C336 C342 1.379 . S
C336 N344 1.356 . S
C337 C336 1.363 . S
C337 C343 1.363 . S
C338 C339 1.363 . S
C338 C343 1.379 . S
C338 N345 1.356 . S
C339 C338 1.363 . S
C339 C342 1.363 . S
N340 C342 1.356 . S
N340 H352 0.984 . S
N340 H353 0.985 1_545 S
N341 C343 1.356 . S
N341 H346 0.984 . S
N341 H347 0.985 . S
C342 C336 1.379 . S
C342 C339 1.363 . S
C342 N340 1.356 . S
C343 C337 1.363 . S
C343 C338 1.379 . S
C343 N341 1.356 . S
N344 C336 1.356 . S
N344 H350 0.984 . S
N344 H351 0.984 . S
N345 C338 1.356 . S
N345 H348 0.984 . S
N345 H349 0.985 . S
H346 N341 0.984 . S
H347 N341 0.985 . S
H348 N345 0.984 . S
H349 N345 0.985 . S
H350 N344 0.984 . S
H351 N344 0.984 . S
H352 N340 0.984 . S
H353 N340 0.985 1_565 S
C354 C355 1.363 . S
C354 C360 1.379 . S
C354 N362 1.356 . S
C355 C354 1.363 . S
C355 C361 1.363 . S
C356 C357 1.363 . S
C356 C361 1.379 . S
C356 N363 1.356 . S
C357 C356 1.363 . S
C357 C360 1.363 . S
N358 C360 1.356 . S
N358 H370 0.984 . S
N358 H371 0.985 . S
N359 C361 1.356 . S
N359 H364 0.984 . S
N359 H365 0.985 . S
C360 C354 1.379 . S
C360 C357 1.363 . S
C360 N358 1.356 . S
C361 C355 1.363 . S
C361 C356 1.379 . S
C361 N359 1.356 . S
N362 C354 1.356 . S
N362 H368 0.984 . S
N362 H369 0.984 1_655 S
N363 C356 1.356 . S
N363 H366 0.984 . S
N363 H367 0.985 . S
H364 N359 0.984 . S
H365 N359 0.985 . S
H366 N363 0.984 . S
H367 N363 0.985 . S
H368 N362 0.984 . S
H369 N362 0.984 1_455 S
H370 N358 0.984 . S
H371 N358 0.985 . S
C372 C373 1.363 . S
C372 C378 1.379 . S
C372 N380 1.356 . S
C373 C372 1.363 . S
C373 C379 1.363 . S
C374 C375 1.363 . S
C374 C379 1.379 . S
C374 N381 1.356 . S
C375 C374 1.363 . S
C375 C378 1.363 . S
N376 C378 1.356 . S
N376 H388 0.984 . S
N376 H389 0.985 . S
N377 C379 1.356 . S
N377 H382 0.984 . S
N377 H383 0.985 . S
C378 C372 1.379 . S
C378 C375 1.363 . S
C378 N376 1.356 . S
C379 C373 1.363 . S
C379 C374 1.379 . S
C379 N377 1.356 . S
N380 C372 1.356 . S
N380 H386 0.984 . S
N380 H387 0.984 . S
N381 C374 1.356 . S
N381 H384 0.984 . S
N381 H385 0.985 . S
H382 N377 0.984 . S
H383 N377 0.985 . S
H384 N381 0.984 . S
H385 N381 0.985 . S
H386 N380 0.984 . S
H387 N380 0.984 . S
H388 N376 0.984 . S
H389 N376 0.985 . S
C390 C391 1.363 . S
C390 C396 1.379 . S
C390 N398 1.356 . S
C391 C390 1.363 . S
C391 C397 1.363 . S
C392 C393 1.363 . S
C392 C397 1.379 . S
C392 N399 1.356 . S
C393 C392 1.363 . S
C393 C396 1.363 . S
N394 C396 1.356 . S
N394 H406 0.984 . S
N394 H407 0.985 . S
N395 C397 1.356 . S
N395 H400 0.984 . S
N395 H401 0.985 . S
C396 C390 1.379 . S
C396 C393 1.363 . S
C396 N394 1.356 . S
C397 C391 1.363 . S
C397 C392 1.379 . S
C397 N395 1.356 . S
N398 C390 1.356 . S
N398 H404 0.984 . S
N398 H405 0.984 . S
N399 C392 1.356 . S
N399 H402 0.984 . S
N399 H403 0.985 . S
H400 N395 0.984 . S
H401 N395 0.985 . S
H402 N399 0.984 . S
H403 N399 0.985 . S
H404 N398 0.984 . S
H405 N398 0.984 . S
H406 N394 0.984 . S
H407 N394 0.985 . S
C408 C409 1.363 . S
C408 C414 1.379 . S
C408 N416 1.356 . S
C409 C408 1.363 . S
C409 C415 1.363 . S
C410 C411 1.363 . S
C410 C415 1.379 . S
C410 N417 1.356 . S
C411 C410 1.363 . S
C411 C414 1.363 . S
N412 C414 1.356 . S
N412 H424 0.984 . S
N412 H425 0.985 . S
N413 C415 1.356 . S
N413 H418 0.984 . S
N413 H419 0.985 . S
C414 C408 1.379 . S
C414 C411 1.363 . S
C414 N412 1.356 . S
C415 C409 1.363 . S
C415 C410 1.379 . S
C415 N413 1.356 . S
N416 C408 1.356 . S
N416 H422 0.984 . S
N416 H423 0.984 . S
N417 C410 1.356 . S
N417 H420 0.984 . S
N417 H421 0.985 . S
H418 N413 0.984 . S
H419 N413 0.985 . S
H420 N417 0.984 . S
H421 N417 0.985 . S
H422 N416 0.984 . S
H423 N416 0.984 . S
H424 N412 0.984 . S
H425 N412 0.985 . S
C426 C427 1.363 . S
C426 C432 1.379 . S
C426 N434 1.356 . S
C427 C426 1.363 . S
C427 C433 1.363 . S
C428 C429 1.363 . S
C428 C433 1.379 . S
C428 N435 1.356 . S
C429 C428 1.363 . S
C429 C432 1.363 . S
N430 C432 1.356 . S
N430 H442 0.984 . S
N430 H443 0.985 . S
N431 C433 1.356 . S
N431 H436 0.984 . S
N431 H437 0.985 . S
C432 C426 1.379 . S
C432 C429 1.363 . S
C432 N430 1.356 . S
C433 C427 1.363 . S
C433 C428 1.379 . S
C433 N431 1.356 . S
N434 C426 1.356 . S
N434 H440 0.984 . S
N434 H441 0.984 . S
N435 C428 1.356 . S
N435 H438 0.984 . S
N435 H439 0.985 . S
H436 N431 0.984 . S
H437 N431 0.985 . S
H438 N435 0.984 . S
H439 N435 0.985 . S
H440 N434 0.984 . S
H441 N434 0.984 . S
H442 N430 0.984 . S
H443 N430 0.985 . S
C444 C445 1.363 . S
C444 C450 1.379 . S
C444 N452 1.356 . S
C445 C444 1.363 . S
C445 C451 1.363 . S
C446 C447 1.363 . S
C446 C451 1.379 . S
C446 N453 1.356 . S
C447 C446 1.363 . S
C447 C450 1.363 . S
N448 C450 1.356 . S
N448 H460 0.984 . S
N448 H461 0.985 . S
N449 C451 1.356 . S
N449 H454 0.984 . S
N449 H455 0.985 . S
C450 C444 1.379 . S
C450 C447 1.363 . S
C450 N448 1.356 . S
C451 C445 1.363 . S
C451 C446 1.379 . S
C451 N449 1.356 . S
N452 C444 1.356 . S
N452 H458 0.984 . S
N452 H459 0.984 . S
N453 C446 1.356 . S
N453 H456 0.984 . S
N453 H457 0.985 . S
H454 N449 0.984 . S
H455 N449 0.985 . S
H456 N453 0.984 . S
H457 N453 0.985 . S
H458 N452 0.984 . S
H459 N452 0.984 . S
H460 N448 0.984 . S
H461 N448 0.985 . S
C462 C463 1.363 . S
C462 C468 1.379 . S
C462 N470 1.356 . S
C463 C462 1.363 . S
C463 C469 1.363 . S
C464 C465 1.363 . S
C464 C469 1.379 . S
C464 N471 1.356 . S
C465 C464 1.363 . S
C465 C468 1.363 . S
N466 C468 1.356 . S
N466 H478 0.984 . S
N466 H479 0.985 . S
N467 C469 1.356 . S
N467 H472 0.984 . S
N467 H473 0.985 . S
C468 C462 1.379 . S
C468 C465 1.363 . S
C468 N466 1.356 . S
C469 C463 1.363 . S
C469 C464 1.379 . S
C469 N467 1.356 . S
N470 C462 1.356 . S
N470 H476 0.984 . S
N470 H477 0.984 . S
N471 C464 1.356 . S
N471 H474 0.984 . S
N471 H475 0.985 . S
H472 N467 0.984 . S
H473 N467 0.985 . S
H474 N471 0.984 . S
H475 N471 0.985 . S
H476 N470 0.984 . S
H477 N470 0.984 . S
H478 N466 0.984 . S
H479 N466 0.985 . S
C480 C481 1.363 1_655 S
C480 C486 1.379 . S
C480 N488 1.356 . S
C481 C480 1.363 1_455 S
C481 C487 1.363 1_554 S
C482 C483 1.363 1_455 S
C482 C487 1.379 . S
C482 N489 1.356 . S
C483 C482 1.363 1_655 S
C483 C486 1.363 1_556 S
N484 C486 1.356 . S
N484 H496 0.984 . S
N484 H497 0.985 . S
N485 C487 1.356 . S
N485 H490 0.984 . S
N485 H491 0.985 . S
C486 C480 1.379 . S
C486 C483 1.363 1_554 S
C486 N484 1.356 . S
C487 C481 1.363 1_556 S
C487 C482 1.379 . S
C487 N485 1.356 . S
N488 C480 1.356 . S
N488 H494 0.984 . S
N488 H495 0.984 1_655 S
N489 C482 1.356 . S
N489 H492 0.984 1_455 S
N489 H493 0.985 . S
H490 N485 0.984 . S
H491 N485 0.985 . S
H492 N489 0.984 1_655 S
H493 N489 0.985 . S
H494 N488 0.984 . S
H495 N488 0.984 1_455 S
H496 N484 0.984 . S
H497 N484 0.985 . S
C498 C499 1.363 . S
C498 C504 1.379 . S
C498 N506 1.356 . S
C499 C498 1.363 . S
C499 C505 1.363 1_554 S
C500 C501 1.363 . S
C500 C505 1.379 . S
C500 N507 1.356 . S
C501 C500 1.363 . S
C501 C504 1.363 1_556 S
N502 C504 1.356 . S
N502 H514 0.984 . S
N502 H515 0.991 . S
N503 C505 1.356 . S
N503 H508 0.991 . S
N503 H509 0.985 . S
C504 C498 1.379 . S
C504 C501 1.363 1_554 S
C504 N502 1.356 . S
C505 C499 1.363 1_556 S
C505 C500 1.379 . S
C505 N503 1.356 . S
N506 C498 1.356 . S
N506 H512 0.984 . S
N506 H513 0.984 . S
N507 C500 1.356 . S
N507 H510 0.984 . S
N507 H511 0.985 . S
H508 N503 0.991 . S
H509 N503 0.985 . S
H510 N507 0.984 . S
H511 N507 0.985 . S
H512 N506 0.984 . S
H513 N506 0.984 . S
H514 N502 0.984 . S
H515 N502 0.991 . S
C516 C517 1.363 1_556 S
C516 C522 1.379 1_565 S
C516 N524 1.356 . S
C517 C516 1.363 1_554 S
C517 C523 1.363 . S
C518 C519 1.363 1_554 S
C518 C523 1.379 1_545 S
C518 N525 1.356 . S
C519 C518 1.363 1_556 S
C519 C522 1.363 . S
N520 C522 1.356 . S
N520 H532 0.984 . S
N520 H533 0.985 . S
N521 C523 1.356 . S
N521 H526 0.984 . S
N521 H527 0.985 . S
C522 C516 1.379 1_545 S
C522 C519 1.363 . S
C522 N520 1.356 . S
C523 C517 1.363 . S
C523 C518 1.379 1_565 S
C523 N521 1.356 . S
N524 C516 1.356 . S
N524 H530 0.984 1_565 S
N524 H531 0.984 1_556 S
N525 C518 1.356 . S
N525 H528 0.984 1_554 S
N525 H529 0.985 1_545 S
H526 N521 0.984 . S
H527 N521 0.985 . S
H528 N525 0.984 1_556 S
H529 N525 0.985 1_565 S
H530 N524 0.984 1_545 S
H531 N524 0.984 1_554 S
H532 N520 0.984 . S
H533 N520 0.985 . S
C534 C535 1.363 . S
C534 C540 1.379 . S
C534 N542 1.356 . S
C535 C534 1.363 . S
C535 C541 1.363 1_565 S
C536 C537 1.363 . S
C536 C541 1.379 . S
C536 N543 1.356 . S
C537 C536 1.363 . S
C537 C540 1.363 1_545 S
N538 C540 1.356 . S
N538 H550 0.984 . S
N538 H551 0.985 1_565 S
N539 C541 1.356 . S
N539 H544 0.984 1_545 S
N539 H545 0.985 . S
C540 C534 1.379 . S
C540 C537 1.363 1_565 S
C540 N538 1.356 . S
C541 C535 1.363 1_545 S
C541 C536 1.379 . S
C541 N539 1.356 . S
N542 C534 1.356 . S
N542 H548 0.984 . S
N542 H549 0.984 . S
N543 C536 1.356 . S
N543 H546 0.984 . S
N543 H547 0.985 . S
H544 N539 0.984 1_565 S
H545 N539 0.985 . S
H546 N543 0.984 . S
H547 N543 0.985 . S
H548 N542 0.984 . S
H549 N542 0.984 . S
H550 N538 0.984 . S
H551 N538 0.985 1_545 S
C552 C553 1.363 1_455 S
C552 C558 1.379 . S
C552 N560 1.356 . S
C553 C552 1.363 1_655 S
C553 C559 1.363 . S
C554 C555 1.363 1_655 S
C554 C559 1.379 . S
C554 N561 1.356 . S
C555 C554 1.363 1_455 S
C555 C558 1.363 . S
N556 C558 1.356 . S
N556 H568 0.984 . S
N556 H569 0.985 . S
N557 C559 1.356 . S
N557 H562 0.984 . S
N557 H563 0.985 . S
C558 C552 1.379 . S
C558 C555 1.363 . S
C558 N556 1.356 . S
C559 C553 1.363 . S
C559 C554 1.379 . S
C559 N557 1.356 . S
N560 C552 1.356 . S
N560 H566 0.984 . S
N560 H567 0.984 1_455 S
N561 C554 1.356 . S
N561 H564 0.984 1_655 S
N561 H565 0.985 . S
H562 N557 0.984 . S
H563 N557 0.985 . S
H564 N561 0.984 1_455 S
H565 N561 0.985 . S
H566 N560 0.984 . S
H567 N560 0.984 1_655 S
H568 N556 0.984 . S
H569 N556 0.985 . S
C570 C571 1.363 . S
C570 C576 1.379 . S
C570 N578 1.356 . S
C571 C570 1.363 . S
C571 C577 1.363 . S
C572 C573 1.363 . S
C572 C577 1.379 . S
C572 N579 1.356 . S
C573 C572 1.363 . S
C573 C576 1.363 . S
N574 C576 1.356 . S
N574 H586 0.984 . S
N574 H587 0.985 . S
N575 C577 1.356 . S
N575 H580 0.984 . S
N575 H581 0.985 . S
C576 C570 1.379 . S
C576 C573 1.363 . S
C576 N574 1.356 . S
C577 C571 1.363 . S
C577 C572 1.379 . S
C577 N575 1.356 . S
N578 C570 1.356 . S
N578 H584 0.984 . S
N578 H585 0.984 . S
N579 C572 1.356 . S
N579 H582 0.984 . S
N579 H583 0.985 . S
H580 N575 0.984 . S
H581 N575 0.985 . S
H582 N579 0.984 . S
H583 N579 0.985 . S
H584 N578 0.984 . S
H585 N578 0.984 . S
H586 N574 0.984 . S
H587 N574 0.985 . S
C157 C4 1.219 . S
C159 C94 1.223 . S
C175 C17 1.219 . S
C177 C107 1.223 . S
C193 C36 1.219 . S
C195 C83 1.223 . S
C211 C146 1.223 . S
C213 C49 1.219 . S
C229 C56 1.219 . S
C231 C122 1.223 . S
C247 C135 1.223 . S
C249 C69 1.219 . S
C265 C16 1.223 . S
C267 C88 1.219 . S
C283 C95 1.219 . S
C285 C31 1.223 . S
C301 C3 1.223 . S
C303 C108 1.219 . S
C319 C127 1.219 . S
C321 C68 1.223 . S
C337 C140 1.219 . S
C339 C44 1.223 . S
C355 C55 1.223 . S
C357 C147 1.219 . S
C373 C75 1.570 . S
C375 C10 1.570 . S
C391 C23 1.570 . S
C393 C43 1.570 . S
C409 C30 1.570 . S
C411 C62 1.570 . S
C427 C82 1.570 . S
C429 C153 1.570 . S
C445 C101 1.570 . S
C447 C121 1.570 . S
C463 C114 1.570 . S
C465 C134 1.570 . S
C481 C5 1.571 . S
C483 C81 1.571 . S
C499 C18 1.571 . S
C501 C96 1.571 . S
C517 C29 1.571 . S
C519 C109 1.571 . S
C535 C42 1.572 . S
C537 C120 1.572 . S
C553 C133 1.571 . S
C555 C57 1.571 . S
C571 C70 1.572 . S
C573 C148 1.572 . S
