# Generated by pormake.
# Topology ukf, (4)-cn, num edge types: 1
# Building blocks:
#     Node 0, Type 0, BuildingBlock: NAHDIM_clean_sbu_0, # of connection points: 4
#     Node 1, Type 0, BuildingBlock: NAHDIM_clean_sbu_0, # of connection points: 4
#     Node 2, Type 0, BuildingBlock: NAHDIM_clean_sbu_0, # of connection points: 4
#     Node 3, Type 0, BuildingBlock: NAHDIM_clean_sbu_0, # of connection points: 4
#     Node 4, Type 0, BuildingBlock: NAHDIM_clean_sbu_0, # of connection points: 4
#     Node 5, Type 0, BuildingBlock: NAHDIM_clean_sbu_0, # of connection points: 4
#     Node 6, Type 0, BuildingBlock: NAHDIM_clean_sbu_0, # of connection points: 4
#     Node 7, Type 0, BuildingBlock: NAHDIM_clean_sbu_0, # of connection points: 4
#     Node 8, Type 0, BuildingBlock: NAHDIM_clean_sbu_0, # of connection points: 4
#     Node 9, Type 0, BuildingBlock: NAHDIM_clean_sbu_0, # of connection points: 4
#     Node 10, Type 0, BuildingBlock: NAHDIM_clean_sbu_0, # of connection points: 4
#     Node 11, Type 0, BuildingBlock: NAHDIM_clean_sbu_0, # of connection points: 4
#     Edge 12, Type (0, 0), BuildingBlock: OJICUG_clean_linker_0, # of connection points: 2
#     Edge 13, Type (0, 0), BuildingBlock: OJICUG_clean_linker_0, # of connection points: 2
#     Edge 14, Type (0, 0), BuildingBlock: OJICUG_clean_linker_0, # of connection points: 2
#     Edge 15, Type (0, 0), BuildingBlock: OJICUG_clean_linker_0, # of connection points: 2
#     Edge 16, Type (0, 0), BuildingBlock: OJICUG_clean_linker_0, # of connection points: 2
#     Edge 17, Type (0, 0), BuildingBlock: OJICUG_clean_linker_0, # of connection points: 2
#     Edge 18, Type (0, 0), BuildingBlock: OJICUG_clean_linker_0, # of connection points: 2
#     Edge 19, Type (0, 0), BuildingBlock: OJICUG_clean_linker_0, # of connection points: 2
#     Edge 20, Type (0, 0), BuildingBlock: OJICUG_clean_linker_0, # of connection points: 2
#     Edge 21, Type (0, 0), BuildingBlock: OJICUG_clean_linker_0, # of connection points: 2
#     Edge 22, Type (0, 0), BuildingBlock: OJICUG_clean_linker_0, # of connection points: 2
#     Edge 23, Type (0, 0), BuildingBlock: OJICUG_clean_linker_0, # of connection points: 2
#     Edge 24, Type (0, 0), BuildingBlock: OJICUG_clean_linker_0, # of connection points: 2
#     Edge 25, Type (0, 0), BuildingBlock: OJICUG_clean_linker_0, # of connection points: 2
#     Edge 26, Type (0, 0), BuildingBlock: OJICUG_clean_linker_0, # of connection points: 2
#     Edge 27, Type (0, 0), BuildingBlock: OJICUG_clean_linker_0, # of connection points: 2
#     Edge 28, Type (0, 0), BuildingBlock: OJICUG_clean_linker_0, # of connection points: 2
#     Edge 29, Type (0, 0), BuildingBlock: OJICUG_clean_linker_0, # of connection points: 2
#     Edge 30, Type (0, 0), BuildingBlock: OJICUG_clean_linker_0, # of connection points: 2
#     Edge 31, Type (0, 0), BuildingBlock: OJICUG_clean_linker_0, # of connection points: 2
#     Edge 32, Type (0, 0), BuildingBlock: OJICUG_clean_linker_0, # of connection points: 2
#     Edge 33, Type (0, 0), BuildingBlock: OJICUG_clean_linker_0, # of connection points: 2
#     Edge 34, Type (0, 0), BuildingBlock: OJICUG_clean_linker_0, # of connection points: 2
#     Edge 35, Type (0, 0), BuildingBlock: OJICUG_clean_linker_0, # of connection points: 2
# Relax obj value: 0.168
# Max RMSD: 0.178
# Mean RMSD: 0.169
data_MOF--net-ukf--node1-NAHDIM_clean_sbu_0--edge1-OJICUG_clean_linker_0
_symmetry_space_group_name_H-M    P1
_symmetry_Int_Tables_number       1
_symmetry_cell_setting            triclinic
loop_
_symmetry_equiv_pos_as_xyz
'x, y, z'
_cell_length_a     24.226867
_cell_length_b     23.973443
_cell_length_c     45.198518
_cell_angle_alpha  89.785026
_cell_angle_beta   90.301025
_cell_angle_gamma 120.38555
loop_
_atom_site_label
_atom_site_type_symbol
_atom_site_fract_x
_atom_site_fract_y
_atom_site_fract_z
_atom_type_partial_charge
C0 C 0.45316 0.35927 0.05562 0.0
O1 O 0.48268 0.33939 0.07346 0.0
O2 O 0.47632 0.23956 0.01914 0.0
Zn3 Zn 0.39975 0.23029 0.03993 0.0
O4 O 0.40337 0.20593 0.08233 0.0
C5 C 0.28226 0.10742 0.03017 0.0
O6 O 0.28543 0.10013 0.05882 0.0
O7 O 0.41024 0.31903 0.03815 0.0
C8 C 0.37011 0.21153 0.10246 0.0
O9 O 0.32968 0.2307 0.09529 0.0
C10 C 0.49534 0.19938 0.02232 0.0
O11 O 0.46401 0.14963 0.04009 0.0
O12 O 0.32279 0.16063 0.01817 0.0
C13 C 0.10015 0.47969 0.38009 0.0
O14 O 0.15653 0.51187 0.39294 0.0
O15 O 0.22962 0.48346 0.35227 0.0
Zn16 Zn 0.15725 0.40785 0.37273 0.0
O17 O 0.17794 0.4109 0.41615 0.0
C18 C 0.18167 0.30456 0.36516 0.0
O19 O 0.21644 0.33318 0.38869 0.0
O20 O 0.08368 0.42491 0.36859 0.0
C21 C 0.14427 0.3624 0.43264 0.0
O22 O 0.09555 0.31044 0.42113 0.0
C23 C 0.28836 0.50019 0.35301 0.0
O24 O 0.30669 0.46562 0.36827 0.0
O25 O 0.14772 0.32615 0.3539 0.0
C26 C 0.88944 0.15576 0.68318 0.0
O27 O 0.89225 0.1537 0.71216 0.0
O28 O 0.79697 0.16623 0.73849 0.0
Zn29 Zn 0.77327 0.15776 0.69541 0.0
O30 O 0.77763 0.23987 0.68249 0.0
C31 C 0.65246 0.04323 0.70908 0.0
O32 O 0.68646 0.03797 0.73048 0.0
O33 O 0.83961 0.15102 0.67109 0.0
C34 C 0.75622 0.24067 0.65688 0.0
O35 O 0.73283 0.18848 0.6404 0.0
C36 C 0.76479 0.17569 0.75783 0.0
O37 O 0.71503 0.17994 0.74943 0.0
O38 O 0.68073 0.08721 0.68973 0.0
C39 C 0.54173 0.63163 0.0556 0.0
O40 O 0.52743 0.65553 0.07843 0.0
O41 O 0.53065 0.77221 0.01644 0.0
Zn42 Zn 0.59853 0.76297 0.03741 0.0
O43 O 0.5973 0.785 0.08019 0.0
C44 C 0.71671 0.8822 0.02793 0.0
O45 O 0.70323 0.89508 0.05423 0.0
O46 O 0.57414 0.66888 0.03443 0.0
C47 C 0.6369 0.78885 0.09974 0.0
O48 O 0.68603 0.78315 0.09203 0.0
C49 C 0.4761 0.75242 0.0279 0.0
O50 O 0.46372 0.72494 0.05411 0.0
O51 O 0.68136 0.826 0.01716 0.0
C52 C 0.94088 0.59591 0.37883 0.0
O53 O 0.95128 0.63925 0.39913 0.0
O54 O 0.7398 0.52132 0.35772 0.0
Zn55 Zn 0.8225 0.59621 0.37196 0.0
O56 O 0.8167 0.6023 0.41622 0.0
C57 C 0.79336 0.69381 0.36206 0.0
O58 O 0.75407 0.65984 0.38349 0.0
O59 O 0.89094 0.57407 0.36283 0.0
C60 C 0.84564 0.65514 0.43051 0.0
O61 O 0.88232 0.70933 0.41622 0.0
C62 C 0.71511 0.46801 0.37166 0.0
O63 O 0.74392 0.46356 0.3955 0.0
O64 O 0.83194 0.67683 0.35233 0.0
C65 C 0.13137 0.84848 0.69133 0.0
O66 O 0.12486 0.84585 0.72021 0.0
O67 O 0.21884 0.83569 0.74877 0.0
Zn68 Zn 0.24394 0.84175 0.70571 0.0
O69 O 0.22661 0.75467 0.69151 0.0
C70 C 0.37669 0.91115 0.72093 0.0
O71 O 0.35163 0.87956 0.74561 0.0
O72 O 0.18328 0.85649 0.68041 0.0
C73 C 0.26768 0.73662 0.69123 0.0
O74 O 0.32514 0.77493 0.70203 0.0
C75 C 0.21705 0.79269 0.76592 0.0
O76 O 0.23321 0.7517 0.75576 0.0
O77 O 0.33933 0.90639 0.69989 0.0
C78 C 0.65653 0.59622 0.60919 0.0
O79 O 0.69005 0.64116 0.58954 0.0
O80 O 0.78225 0.51981 0.62904 0.0
Zn81 Zn 0.77465 0.59516 0.61533 0.0
O82 O 0.78655 0.60219 0.57108 0.0
C83 C 0.90139 0.69345 0.62549 0.0
O84 O 0.90736 0.66102 0.60358 0.0
O85 O 0.68408 0.57281 0.62455 0.0
C86 C 0.81028 0.65505 0.55678 0.0
O87 O 0.82792 0.7092 0.57105 0.0
C88 C 0.75314 0.46694 0.61484 0.0
O89 O 0.71966 0.46344 0.59123 0.0
O90 O 0.84561 0.67526 0.63531 0.0
C91 C 0.08515 0.62249 0.93774 0.0
O92 O 0.13743 0.6438 0.92197 0.0
O93 O 0.22603 0.7489 0.97291 0.0
Zn94 Zn 0.15535 0.7519 0.95123 0.0
O95 O 0.17894 0.76922 0.90812 0.0
C96 C 0.17921 0.87992 0.95915 0.0
O97 O 0.212 0.88775 0.9349 0.0
O98 O 0.07862 0.66191 0.95407 0.0
C99 C 0.14797 0.78069 0.88866 0.0
O100 O 0.09868 0.78593 0.89656 0.0
C101 C 0.28347 0.77854 0.96389 0.0
O102 O 0.29784 0.81306 0.93951 0.0
O103 O 0.14629 0.82338 0.97001 0.0
C104 C 0.27099 0.16178 0.30006 0.0
O105 O 0.26779 0.16259 0.27107 0.0
O106 O 0.37431 0.17124 0.24484 0.0
Zn107 Zn 0.38851 0.16216 0.28807 0.0
O108 O 0.46603 0.24393 0.30146 0.0
C109 C 0.39479 0.04713 0.27528 0.0
O110 O 0.35611 0.04146 0.25353 0.0
O111 O 0.31494 0.1551 0.31216 0.0
C112 C 0.48682 0.24393 0.32733 0.0
O113 O 0.45678 0.19137 0.34356 0.0
C114 C 0.41497 0.17872 0.22528 0.0
O115 O 0.46787 0.18021 0.23339 0.0
O116 O 0.41021 0.09159 0.29428 0.0
C117 C 0.38101 0.48031 0.60722 0.0
O118 O 0.35703 0.51296 0.59462 0.0
O119 O 0.25386 0.48195 0.63463 0.0
Zn120 Zn 0.2518 0.4075 0.61368 0.0
O121 O 0.23524 0.41153 0.57019 0.0
C122 C 0.12406 0.30459 0.62045 0.0
O123 O 0.11868 0.33555 0.59763 0.0
O124 O 0.34246 0.42489 0.61816 0.0
C125 C 0.22015 0.36286 0.55383 0.0
O126 O 0.21642 0.31081 0.56554 0.0
C127 C 0.21368 0.5009 0.63242 0.0
O128 O 0.16361 0.46972 0.61503 0.0
O129 O 0.17932 0.32477 0.63176 0.0
C130 C 0.89991 0.35124 0.92816 0.0
O131 O 0.86684 0.33027 0.90353 0.0
O132 O 0.74336 0.20446 0.96484 0.0
Zn133 Zn 0.82138 0.21757 0.94382 0.0
O134 O 0.79792 0.19753 0.90081 0.0
C135 C 0.82381 0.09928 0.95145 0.0
O136 O 0.79871 0.0875 0.92478 0.0
O137 O 0.89028 0.31151 0.949 0.0
C138 C 0.83621 0.19935 0.88124 0.0
O139 O 0.89383 0.2125 0.88915 0.0
C140 C 0.71844 0.23869 0.95883 0.0
O141 O 0.74445 0.28357 0.93833 0.0
O142 O 0.84264 0.15444 0.96294 0.0
C143 C 0.72037 0.85237 0.29774 0.0
O144 O 0.7259 0.85213 0.26886 0.0
O145 O 0.62126 0.83918 0.23999 0.0
Zn146 Zn 0.60088 0.84479 0.28282 0.0
O147 O 0.53057 0.7573 0.29643 0.0
C148 C 0.53808 0.91422 0.26664 0.0
O149 O 0.53253 0.88271 0.2421 0.0
O150 O 0.67553 0.85895 0.30856 0.0
C151 C 0.47163 0.73996 0.29719 0.0
O152 O 0.45309 0.7796 0.2875 0.0
C153 C 0.57995 0.79697 0.22264 0.0
O154 O 0.52221 0.75666 0.23249 0.0
O155 O 0.56987 0.90944 0.28807 0.0
C156 C 0.17892 0.93298 0.0068 0.0
C157 C 0.19163 0.93757 0.97632 0.0
H158 H 0.19731 0.98361 0.0479 0.0
C159 C 0.22481 -0.00092 0.96314 0.0
H160 H 0.15316 0.88627 0.01759 0.0
C161 C 0.24987 0.05483 0.98045 0.0
C162 C 0.24267 0.0502 0.01135 0.0
H163 H 0.23462 0.00422 0.93962 0.0
H164 H 0.27842 0.10131 0.96976 0.0
C165 C 0.20438 0.98884 0.02419 0.0
C166 C 0.22464 0.22948 0.36428 0.0
C167 C 0.19113 0.25554 0.34986 0.0
H168 H 0.27514 0.17822 0.36002 0.0
C169 C 0.17462 0.24061 0.31992 0.0
H170 H 0.23727 0.23923 0.38748 0.0
C171 C 0.19642 0.20538 0.30411 0.0
C172 C 0.235 0.18444 0.31797 0.0
H173 H 0.14853 0.25963 0.30823 0.0
H174 H 0.18634 0.19815 0.28061 0.0
C175 C 0.24625 0.19425 0.34854 0.0
C176 C 0.00781 0.19968 0.67979 0.0
C177 C 0.94879 0.17986 0.66562 0.0
H178 H 0.11017 0.25459 0.67653 0.0
C179 C 0.94856 0.19237 0.63526 0.0
H180 H 0.00973 0.19039 0.70313 0.0
C181 C 0.00603 0.22914 0.62012 0.0
C182 C 0.06505 0.25408 0.63494 0.0
H183 H 0.90407 0.17725 0.62355 0.0
H184 H 0.00406 0.24095 0.59712 0.0
C185 C 0.06548 0.23647 0.66456 0.0
C186 C 0.75825 0.92796 0.97766 0.0
C187 C 0.76037 0.93638 0.00848 0.0
H188 H 0.77783 0.97356 0.93519 0.0
C189 C 0.79614 -0.00078 0.02009 0.0
H190 H 0.73178 0.88015 0.96799 0.0
C191 C 0.82273 0.05285 0.00127 0.0
C192 C 0.81372 0.04455 0.9705 0.0
H193 H 0.79964 0.0073 0.04376 0.0
H194 H 0.84579 0.10068 0.011 0.0
C195 C 0.78461 0.98162 0.95883 0.0
C196 C 0.79386 0.80789 0.30381 0.0
C197 C 0.75218 0.8259 0.31651 0.0
H198 H 0.84013 0.75208 0.30833 0.0
C199 C 0.73294 0.80833 0.34599 0.0
H200 H 0.81001 0.82101 0.2812 0.0
C201 C 0.74982 0.76849 0.36138 0.0
C202 C 0.78673 0.74576 0.34775 0.0
H203 H 0.70131 0.8217 0.3566 0.0
H204 H 0.73121 0.75292 0.3835 0.0
C205 C 0.8111 0.76828 0.31932 0.0
C206 C 0.95698 0.7653 0.66905 0.0
C207 C 0.95959 0.74475 0.6403 0.0
H208 H 0.00983 0.81556 0.70776 0.0
C209 C 0.0196 0.76868 0.62682 0.0
H210 H 0.91145 0.74816 0.67994 0.0
C211 C 0.07594 0.80766 0.64261 0.0
C212 C 0.0735 0.82313 0.67235 0.0
H213 H 0.02322 0.75464 0.60448 0.0
H214 H 0.12126 0.82194 0.63208 0.0
C215 C 0.01346 0.80404 0.68496 0.0
C216 C 0.6307 0.17725 -0.00463 0.0
C217 C 0.66111 0.22826 0.97494 0.0
H218 H 0.55432 0.12794 0.02634 0.0
C219 C 0.63641 0.26937 0.97016 0.0
H220 H 0.64855 0.14465 -0.00048 0.0
C221 C 0.5826 0.25991 0.98559 0.0
C222 C 0.55218 0.20895 0.00604 0.0
H223 H 0.65877 0.30912 0.95459 0.0
H224 H 0.56487 0.29261 0.98143 0.0
C225 C 0.57667 0.16761 0.01073 0.0
C226 C 0.31513 0.59856 0.3232 0.0
C227 C 0.33543 0.5599 0.33762 0.0
H228 H 0.34208 0.68542 0.29911 0.0
C229 C 0.40079 0.57974 0.33767 0.0
H230 H 0.26506 0.58464 0.32268 0.0
C231 C 0.44506 0.63768 0.324 0.0
C232 C 0.42477 0.67693 0.31015 0.0
H233 H 0.41788 0.55093 0.34851 0.0
H234 H 0.49527 0.65217 0.32473 0.0
C235 C 0.3593 0.65644 0.30967 0.0
C236 C 0.72726 0.29761 0.61879 0.0
C237 C 0.75665 0.29902 0.64589 0.0
H238 H 0.70302 0.34947 0.58776 0.0
C239 C 0.7859 0.35647 0.66245 0.0
H240 H 0.70431 0.25409 0.6055 0.0
C241 C 0.78541 0.41126 0.6522 0.0
C242 C 0.75535 0.4096 0.62527 0.0
H243 H 0.80909 0.35916 0.68338 0.0
H244 H 0.80809 0.4547 0.66556 0.0
C245 C 0.72647 0.35228 0.60863 0.0
C246 C 0.39536 0.79976 0.96915 0.0
C247 C 0.33317 0.773 0.98048 0.0
H248 H 0.48927 0.81408 0.97519 0.0
C249 C 0.31857 0.74008 0.0077 0.0
H250 H 0.4081 0.82535 0.94823 0.0
C251 C 0.36511 0.73377 0.02321 0.0
C252 C 0.42712 0.75997 0.01174 0.0
H253 H 0.27109 0.71902 0.01708 0.0
H254 H 0.35227 0.70796 0.04408 0.0
C255 C 0.44183 0.79318 0.98459 0.0
C256 C 0.57383 0.35967 0.32264 0.0
C257 C 0.54447 0.30171 0.33889 0.0
H258 H 0.65053 0.45778 0.32031 0.0
C259 C 0.57102 0.29925 0.36624 0.0
H260 H 0.55444 0.36317 0.30152 0.0
C261 C 0.62623 0.35339 0.37697 0.0
C262 C 0.65582 0.41122 0.36064 0.0
H263 H 0.54953 0.25531 0.3793 0.0
H264 H 0.64575 0.34977 0.39802 0.0
C265 C 0.62884 0.41393 0.33344 0.0
C266 C 0.18121 0.58085 0.64739 0.0
C267 C 0.22551 0.55949 0.64852 0.0
H268 H 0.15955 0.65351 0.66023 0.0
C269 C 0.2825 0.59554 0.66475 0.0
H270 H 0.13682 0.55405 0.63515 0.0
C271 C 0.2956 0.65244 0.67901 0.0
C272 C 0.2519 0.67447 0.67749 0.0
H273 H 0.31766 0.58039 0.66613 0.0
H274 H 0.34034 0.67947 0.69097 0.0
C275 C 0.19421 0.63775 0.66182 0.0
C276 C 0.4311 0.19167 0.14191 0.0
C277 C 0.37993 0.2005 0.13376 0.0
H278 H 0.48256 0.1783 0.17719 0.0
C279 C 0.33965 0.20083 0.15591 0.0
H280 H 0.46312 0.19131 0.12537 0.0
C281 C 0.35064 0.19304 0.18561 0.0
C282 C 0.40248 0.18535 0.19379 0.0
H283 H 0.29977 0.20743 0.15035 0.0
H284 H 0.31892 0.19389 0.20217 0.0
C285 C 0.44242 0.18445 0.17162 0.0
C286 C 0.14307 0.30412 0.47877 0.0
C287 C 0.16307 0.36262 0.46374 0.0
H288 H 0.14652 0.25839 0.51894 0.0
C289 C 0.20252 0.42128 0.47846 0.0
H290 H 0.113 0.25818 0.4679 0.0
C291 C 0.22105 0.4214 0.50779 0.0
C292 C 0.20155 0.36287 0.52272 0.0
H293 H 0.21861 0.46709 0.46738 0.0
H294 H 0.25107 0.4673 0.5187 0.0
C295 C 0.16265 0.30424 0.5079 0.0
C296 C 0.75961 0.18755 0.84109 0.0
C297 C 0.8172 0.19119 0.84972 0.0
H298 H 0.69811 0.18022 0.80533 0.0
C299 C 0.85705 0.18888 0.82791 0.0
H300 H 0.72788 0.18937 0.85736 0.0
C301 C 0.83981 0.18341 0.79805 0.0
C302 C 0.7826 0.18061 0.78942 0.0
H303 H 0.90169 0.19155 0.83385 0.0
H304 H 0.87166 0.18197 0.78174 0.0
C305 C 0.74261 0.18255 0.81125 0.0
C306 C 0.67265 0.81715 0.15241 0.0
C307 C 0.6235 0.79298 0.13115 0.0
H308 H 0.69741 0.8384 0.19827 0.0
C309 C 0.56029 0.77059 0.14021 0.0
H310 H 0.72175 0.83467 0.14596 0.0
C311 C 0.54625 0.77134 0.17001 0.0
C312 C 0.59531 0.79586 0.19127 0.0
H313 H 0.52134 0.75123 0.12432 0.0
H314 H 0.497 0.75331 0.17637 0.0
C315 C 0.65876 0.81936 0.18223 0.0
C316 C 0.85279 0.71398 0.50886 0.0
C317 C 0.8191 0.65539 0.52445 0.0
H318 H 0.88802 0.75992 0.46693 0.0
C319 C 0.7944 0.59686 0.50891 0.0
H320 H 0.87255 0.75989 0.52023 0.0
C321 C 0.80305 0.59687 0.47841 0.0
C322 C 0.83695 0.65542 0.46282 0.0
H323 H 0.76815 0.55086 0.52026 0.0
H324 H 0.7833 0.55088 0.4671 0.0
C325 C 0.86183 0.714 0.47834 0.0
C326 C 0.14698 0.81555 0.83642 0.0
C327 C 0.16602 0.78495 0.85727 0.0
H328 H 0.1491 0.84286 0.79102 0.0
C329 C 0.20201 0.75724 0.84785 0.0
H330 H 0.1193 0.83738 0.8431 0.0
C331 C 0.21805 0.75938 0.81812 0.0
C332 C 0.1995 0.79035 0.79727 0.0
H333 H 0.21705 0.73298 0.86341 0.0
H334 H 0.24553 0.73726 0.81153 0.0
C335 C 0.16417 0.81883 0.80669 0.0
C336 C 0.51405 0.52954 0.08169 0.0
C337 C 0.51949 0.56207 0.05502 0.0
H338 H 0.48924 0.43963 0.10258 0.0
C339 C 0.50095 0.52707 0.02841 0.0
H340 H 0.52793 0.5555 0.1025 0.0
C341 C 0.47674 0.46021 0.0286 0.0
C342 C 0.47267 0.42814 0.05528 0.0
H343 H 0.50417 0.55115 0.00762 0.0
H344 H 0.46288 0.43397 0.00788 0.0
C345 C 0.4918 0.46337 0.08176 0.0
C346 C 0.04023 0.59567 0.3934 0.0
C347 C 0.98277 0.56755 0.37726 0.0
H348 H 0.12164 0.59002 0.40697 0.0
C349 C 0.96411 0.51008 0.36148 0.0
H350 H 0.05605 0.63981 0.40581 0.0
C351 C 0.00175 0.48085 0.36234 0.0
C352 C 0.05888 0.50885 0.37883 0.0
H353 H 0.91981 0.48695 0.34897 0.0
H354 H 0.98607 0.43643 0.3502 0.0
C355 C 0.07781 0.56685 0.39411 0.0
C356 C 0.54374 0.01308 0.68868 0.0
C357 C 0.58155 0.00617 0.71053 0.0
H358 H 0.44918 0.98865 0.67473 0.0
C359 C 0.55117 0.96731 0.73531 0.0
H360 H 0.56571 0.04294 0.66935 0.0
C361 C 0.48498 0.93728 0.73856 0.0
C362 C 0.44708 0.9447 0.71701 0.0
H363 H 0.57862 0.96105 0.75265 0.0
H364 H 0.46359 0.90811 0.75813 0.0
C365 C 0.47706 0.98235 0.69182 0.0
C366 C 0.55735 0.59736 0.59517 0.0
C367 C 0.58626 0.56797 0.61067 0.0
H368 H 0.47059 0.59279 0.58192 0.0
C369 C 0.54702 0.50941 0.62569 0.0
H370 H 0.58602 0.64238 0.58337 0.0
C371 C 0.48016 0.48032 0.62466 0.0
C372 C 0.45145 0.50953 0.60876 0.0
H373 H 0.56786 0.48531 0.6377 0.0
H374 H 0.45109 0.43501 0.63618 0.0
C375 C 0.49093 0.56865 0.5943 0.0
C376 C 0.02483 0.52194 0.90848 0.0
C377 C 0.03547 0.55384 0.93569 0.0
H378 H 0.97278 0.43284 0.88484 0.0
C379 C 0.00132 0.51875 0.96073 0.0
H380 H 0.05069 0.54805 0.88888 0.0
C381 C 0.95808 0.45214 0.95861 0.0
C382 C 0.94722 0.42051 0.93124 0.0
H383 H 0.0093 0.5424 0.98199 0.0
H384 H 0.93246 0.42562 0.97817 0.0
C385 C 0.98041 0.45613 0.90618 0.0
C386 C 0.50812 0.98595 0.29469 0.0
C387 C 0.50116 0.94782 0.26984 0.0
H388 H 0.47965 0.04718 0.3161 0.0
C389 C 0.45658 0.94012 0.24782 0.0
H390 H 0.54171 0.99247 0.31212 0.0
C391 C 0.42053 0.97039 0.25027 0.0
C392 C 0.42838 0.00979 0.27469 0.0
H393 H 0.44932 0.91056 0.22849 0.0
H394 H 0.38745 0.96391 0.23259 0.0
C395 C 0.47228 0.01693 0.29702 0.0
loop_
_geom_bond_atom_site_label_1
_geom_bond_atom_site_label_2
_geom_bond_distance
_geom_bond_site_symmetry_2
_ccdc_geom_bond_type
C0 O1 1.160 . S
C0 O7 1.185 . S
O1 C0 1.160 . S
O2 Zn3 1.899 . S
O2 C10 1.284 . S
Zn3 O2 1.899 . S
Zn3 O4 2.032 . S
Zn3 O7 2.086 . S
Zn3 O12 1.977 . S
O4 Zn3 2.032 . S
O4 C8 1.278 . S
C5 O6 1.203 . S
C5 O12 1.267 . S
O6 C5 1.203 . S
O7 C0 1.185 . S
O7 Zn3 2.086 . S
C8 O4 1.278 . S
C8 O9 1.211 . S
O9 C8 1.211 . S
C10 O2 1.284 . S
C10 O11 1.273 . S
O11 C10 1.273 . S
O12 Zn3 1.977 . S
O12 C5 1.267 . S
C13 O14 1.160 . S
C13 O20 1.185 . S
O14 C13 1.160 . S
O15 Zn16 1.899 . S
O15 C23 1.284 . S
Zn16 O15 1.899 . S
Zn16 O17 2.032 . S
Zn16 O20 2.086 . S
Zn16 O25 1.977 . S
O17 Zn16 2.032 . S
O17 C21 1.278 . S
C18 O19 1.203 . S
C18 O25 1.267 . S
O19 C18 1.203 . S
O20 C13 1.185 . S
O20 Zn16 2.086 . S
C21 O17 1.278 . S
C21 O22 1.211 . S
O22 C21 1.211 . S
C23 O15 1.284 . S
C23 O24 1.273 . S
O24 C23 1.273 . S
O25 Zn16 1.977 . S
O25 C18 1.267 . S
C26 O27 1.160 . S
C26 O33 1.185 . S
O27 C26 1.160 . S
O28 Zn29 1.899 . S
O28 C36 1.284 . S
Zn29 O28 1.899 . S
Zn29 O30 2.032 . S
Zn29 O33 2.086 . S
Zn29 O38 1.977 . S
O30 Zn29 2.032 . S
O30 C34 1.278 . S
C31 O32 1.203 . S
C31 O38 1.267 . S
O32 C31 1.203 . S
O33 C26 1.185 . S
O33 Zn29 2.086 . S
C34 O30 1.278 . S
C34 O35 1.211 . S
O35 C34 1.211 . S
C36 O28 1.284 . S
C36 O37 1.273 . S
O37 C36 1.273 . S
O38 Zn29 1.977 . S
O38 C31 1.267 . S
C39 O40 1.160 . S
C39 O46 1.185 . S
O40 C39 1.160 . S
O41 Zn42 1.899 . S
O41 C49 1.284 . S
Zn42 O41 1.899 . S
Zn42 O43 2.032 . S
Zn42 O46 2.086 . S
Zn42 O51 1.977 . S
O43 Zn42 2.032 . S
O43 C47 1.278 . S
C44 O45 1.203 . S
C44 O51 1.267 . S
O45 C44 1.203 . S
O46 C39 1.185 . S
O46 Zn42 2.086 . S
C47 O43 1.278 . S
C47 O48 1.211 . S
O48 C47 1.211 . S
C49 O41 1.284 . S
C49 O50 1.273 . S
O50 C49 1.273 . S
O51 Zn42 1.977 . S
O51 C44 1.267 . S
C52 O53 1.160 . S
C52 O59 1.185 . S
O53 C52 1.160 . S
O54 Zn55 1.899 . S
O54 C62 1.284 . S
Zn55 O54 1.899 . S
Zn55 O56 2.032 . S
Zn55 O59 2.086 . S
Zn55 O64 1.977 . S
O56 Zn55 2.032 . S
O56 C60 1.278 . S
C57 O58 1.203 . S
C57 O64 1.267 . S
O58 C57 1.203 . S
O59 C52 1.185 . S
O59 Zn55 2.086 . S
C60 O56 1.278 . S
C60 O61 1.211 . S
O61 C60 1.211 . S
C62 O54 1.284 . S
C62 O63 1.273 . S
O63 C62 1.273 . S
O64 Zn55 1.977 . S
O64 C57 1.267 . S
C65 O66 1.160 . S
C65 O72 1.185 . S
O66 C65 1.160 . S
O67 Zn68 1.899 . S
O67 C75 1.284 . S
Zn68 O67 1.899 . S
Zn68 O69 2.032 . S
Zn68 O72 2.086 . S
Zn68 O77 1.977 . S
O69 Zn68 2.032 . S
O69 C73 1.278 . S
C70 O71 1.203 . S
C70 O77 1.267 . S
O71 C70 1.203 . S
O72 C65 1.185 . S
O72 Zn68 2.086 . S
C73 O69 1.278 . S
C73 O74 1.211 . S
O74 C73 1.211 . S
C75 O67 1.284 . S
C75 O76 1.273 . S
O76 C75 1.273 . S
O77 Zn68 1.977 . S
O77 C70 1.267 . S
C78 O79 1.160 . S
C78 O85 1.185 . S
O79 C78 1.160 . S
O80 Zn81 1.899 . S
O80 C88 1.284 . S
Zn81 O80 1.899 . S
Zn81 O82 2.032 . S
Zn81 O85 2.086 . S
Zn81 O90 1.977 . S
O82 Zn81 2.032 . S
O82 C86 1.278 . S
C83 O84 1.203 . S
C83 O90 1.267 . S
O84 C83 1.203 . S
O85 C78 1.185 . S
O85 Zn81 2.086 . S
C86 O82 1.278 . S
C86 O87 1.211 . S
O87 C86 1.211 . S
C88 O80 1.284 . S
C88 O89 1.273 . S
O89 C88 1.273 . S
O90 Zn81 1.977 . S
O90 C83 1.267 . S
C91 O92 1.160 . S
C91 O98 1.185 . S
O92 C91 1.160 . S
O93 Zn94 1.899 . S
O93 C101 1.284 . S
Zn94 O93 1.899 . S
Zn94 O95 2.032 . S
Zn94 O98 2.086 . S
Zn94 O103 1.977 . S
O95 Zn94 2.032 . S
O95 C99 1.278 . S
C96 O97 1.203 . S
C96 O103 1.267 . S
O97 C96 1.203 . S
O98 C91 1.185 . S
O98 Zn94 2.086 . S
C99 O95 1.278 . S
C99 O100 1.211 . S
O100 C99 1.211 . S
C101 O93 1.284 . S
C101 O102 1.273 . S
O102 C101 1.273 . S
O103 Zn94 1.977 . S
O103 C96 1.267 . S
C104 O105 1.160 . S
C104 O111 1.185 . S
O105 C104 1.160 . S
O106 Zn107 1.899 . S
O106 C114 1.284 . S
Zn107 O106 1.899 . S
Zn107 O108 2.032 . S
Zn107 O111 2.086 . S
Zn107 O116 1.977 . S
O108 Zn107 2.032 . S
O108 C112 1.278 . S
C109 O110 1.203 . S
C109 O116 1.267 . S
O110 C109 1.203 . S
O111 C104 1.185 . S
O111 Zn107 2.086 . S
C112 O108 1.278 . S
C112 O113 1.211 . S
O113 C112 1.211 . S
C114 O106 1.284 . S
C114 O115 1.273 . S
O115 C114 1.273 . S
O116 Zn107 1.977 . S
O116 C109 1.267 . S
C117 O118 1.160 . S
C117 O124 1.185 . S
O118 C117 1.160 . S
O119 Zn120 1.899 . S
O119 C127 1.284 . S
Zn120 O119 1.899 . S
Zn120 O121 2.032 . S
Zn120 O124 2.086 . S
Zn120 O129 1.977 . S
O121 Zn120 2.032 . S
O121 C125 1.278 . S
C122 O123 1.203 . S
C122 O129 1.267 . S
O123 C122 1.203 . S
O124 C117 1.185 . S
O124 Zn120 2.086 . S
C125 O121 1.278 . S
C125 O126 1.211 . S
O126 C125 1.211 . S
C127 O119 1.284 . S
C127 O128 1.273 . S
O128 C127 1.273 . S
O129 Zn120 1.977 . S
O129 C122 1.267 . S
C130 O131 1.160 . S
C130 O137 1.185 . S
O131 C130 1.160 . S
O132 Zn133 1.899 . S
O132 C140 1.284 . S
Zn133 O132 1.899 . S
Zn133 O134 2.032 . S
Zn133 O137 2.086 . S
Zn133 O142 1.977 . S
O134 Zn133 2.032 . S
O134 C138 1.278 . S
C135 O136 1.203 . S
C135 O142 1.267 . S
O136 C135 1.203 . S
O137 C130 1.185 . S
O137 Zn133 2.086 . S
C138 O134 1.278 . S
C138 O139 1.211 . S
O139 C138 1.211 . S
C140 O132 1.284 . S
C140 O141 1.273 . S
O141 C140 1.273 . S
O142 Zn133 1.977 . S
O142 C135 1.267 . S
C143 O144 1.160 . S
C143 O150 1.185 . S
O144 C143 1.160 . S
O145 Zn146 1.899 . S
O145 C153 1.284 . S
Zn146 O145 1.899 . S
Zn146 O147 2.032 . S
Zn146 O150 2.086 . S
Zn146 O155 1.977 . S
O147 Zn146 2.032 . S
O147 C151 1.278 . S
C148 O149 1.203 . S
C148 O155 1.267 . S
O149 C148 1.203 . S
O150 C143 1.185 . S
O150 Zn146 2.086 . S
C151 O147 1.278 . S
C151 O152 1.211 . S
O152 C151 1.211 . S
C153 O145 1.284 . S
C153 O154 1.273 . S
O154 C153 1.273 . S
O155 Zn146 1.977 . S
O155 C148 1.267 . S
C156 C157 1.387 . S
C156 H160 0.950 . S
C156 C165 1.390 1_566 S
C157 C156 1.387 . S
C157 C159 1.387 . S
H158 C165 0.950 . S
C159 C157 1.387 . S
C159 C161 1.390 1_566 S
C159 H163 0.950 . S
H160 C156 0.950 . S
C161 C159 1.390 1_544 S
C161 C162 1.387 . S
C161 H164 0.950 . S
C162 C161 1.387 . S
C162 C165 1.387 . S
H163 C159 0.950 . S
H164 C161 0.950 . S
C165 C156 1.390 1_544 S
C165 H158 0.950 . S
C165 C162 1.387 . S
C166 C167 1.387 . S
C166 H170 0.950 . S
C166 C175 1.390 . S
C167 C166 1.387 . S
C167 C169 1.387 . S
H168 C175 0.950 . S
C169 C167 1.387 . S
C169 C171 1.390 . S
C169 H173 0.950 . S
H170 C166 0.950 . S
C171 C169 1.390 . S
C171 C172 1.387 . S
C171 H174 0.950 . S
C172 C171 1.387 . S
C172 C175 1.387 . S
H173 C169 0.950 . S
H174 C171 0.950 . S
C175 C166 1.390 . S
C175 H168 0.950 . S
C175 C172 1.387 . S
C176 C177 1.387 . S
C176 H180 0.950 . S
C176 C185 1.390 1_655 S
C177 C176 1.387 . S
C177 C179 1.387 . S
H178 C185 0.950 . S
C179 C177 1.387 . S
C179 C181 1.390 1_655 S
C179 H183 0.950 . S
H180 C176 0.950 . S
C181 C179 1.390 1_455 S
C181 C182 1.387 . S
C181 H184 0.950 . S
C182 C181 1.387 . S
C182 C185 1.387 . S
H183 C179 0.950 . S
H184 C181 0.950 . S
C185 C176 1.390 1_455 S
C185 H178 0.950 . S
C185 C182 1.387 . S
C186 C187 1.387 . S
C186 H190 0.950 . S
C186 C195 1.390 1_564 S
C187 C186 1.387 . S
C187 C189 1.387 . S
H188 C195 0.950 . S
C189 C187 1.387 . S
C189 C191 1.390 1_564 S
C189 H193 0.950 . S
H190 C186 0.950 . S
C191 C189 1.390 1_546 S
C191 C192 1.387 . S
C191 H194 0.950 . S
C192 C191 1.387 . S
C192 C195 1.387 . S
H193 C189 0.950 . S
H194 C191 0.950 . S
C195 C186 1.390 1_546 S
C195 H188 0.950 . S
C195 C192 1.387 . S
C196 C197 1.387 . S
C196 H200 0.950 . S
C196 C205 1.390 . S
C197 C196 1.387 . S
C197 C199 1.387 . S
H198 C205 0.950 . S
C199 C197 1.387 . S
C199 C201 1.390 . S
C199 H203 0.950 . S
H200 C196 0.950 . S
C201 C199 1.390 . S
C201 C202 1.387 . S
C201 H204 0.950 . S
C202 C201 1.387 . S
C202 C205 1.387 . S
H203 C199 0.950 . S
H204 C201 0.950 . S
C205 C196 1.390 . S
C205 H198 0.950 . S
C205 C202 1.387 . S
C206 C207 1.387 . S
C206 H210 0.950 . S
C206 C215 1.390 1_655 S
C207 C206 1.387 . S
C207 C209 1.387 . S
H208 C215 0.950 . S
C209 C207 1.387 . S
C209 C211 1.390 1_655 S
C209 H213 0.950 . S
H210 C206 0.950 . S
C211 C209 1.390 1_455 S
C211 C212 1.387 . S
C211 H214 0.950 . S
C212 C211 1.387 . S
C212 C215 1.387 . S
H213 C209 0.950 . S
H214 C211 0.950 . S
C215 C206 1.390 1_455 S
C215 H208 0.950 . S
C215 C212 1.387 . S
C216 C217 1.387 . S
C216 H220 0.950 . S
C216 C225 1.390 1_556 S
C217 C216 1.387 . S
C217 C219 1.387 . S
H218 C225 0.950 . S
C219 C217 1.387 . S
C219 C221 1.390 1_556 S
C219 H223 0.950 . S
H220 C216 0.950 . S
C221 C219 1.390 1_554 S
C221 C222 1.387 . S
C221 H224 0.950 . S
C222 C221 1.387 . S
C222 C225 1.387 . S
H223 C219 0.950 . S
H224 C221 0.950 . S
C225 C216 1.390 1_554 S
C225 H218 0.950 . S
C225 C222 1.387 . S
C226 C227 1.387 . S
C226 H230 0.950 . S
C226 C235 1.390 . S
C227 C226 1.387 . S
C227 C229 1.387 . S
H228 C235 0.950 . S
C229 C227 1.387 . S
C229 C231 1.390 . S
C229 H233 0.950 . S
H230 C226 0.950 . S
C231 C229 1.390 . S
C231 C232 1.387 . S
C231 H234 0.950 . S
C232 C231 1.387 . S
C232 C235 1.387 . S
H233 C229 0.950 . S
H234 C231 0.950 . S
C235 C226 1.390 . S
C235 H228 0.950 . S
C235 C232 1.387 . S
C236 C237 1.387 . S
C236 H240 0.950 . S
C236 C245 1.390 . S
C237 C236 1.387 . S
C237 C239 1.387 . S
H238 C245 0.950 . S
C239 C237 1.387 . S
C239 C241 1.390 . S
C239 H243 0.950 . S
H240 C236 0.950 . S
C241 C239 1.390 . S
C241 C242 1.387 . S
C241 H244 0.950 . S
C242 C241 1.387 . S
C242 C245 1.387 . S
H243 C239 0.950 . S
H244 C241 0.950 . S
C245 C236 1.390 . S
C245 H238 0.950 . S
C245 C242 1.387 . S
C246 C247 1.387 . S
C246 H250 0.950 . S
C246 C255 1.390 1_556 S
C247 C246 1.387 . S
C247 C249 1.387 . S
H248 C255 0.950 . S
C249 C247 1.387 . S
C249 C251 1.390 1_556 S
C249 H253 0.950 . S
H250 C246 0.950 . S
C251 C249 1.390 1_554 S
C251 C252 1.387 . S
C251 H254 0.950 . S
C252 C251 1.387 . S
C252 C255 1.387 . S
H253 C249 0.950 . S
H254 C251 0.950 . S
C255 C246 1.390 1_554 S
C255 H248 0.950 . S
C255 C252 1.387 . S
C256 C257 1.387 . S
C256 H260 0.950 . S
C256 C265 1.390 . S
C257 C256 1.387 . S
C257 C259 1.387 . S
H258 C265 0.950 . S
C259 C257 1.387 . S
C259 C261 1.390 . S
C259 H263 0.950 . S
H260 C256 0.950 . S
C261 C259 1.390 . S
C261 C262 1.387 . S
C261 H264 0.950 . S
C262 C261 1.387 . S
C262 C265 1.387 . S
H263 C259 0.950 . S
H264 C261 0.950 . S
C265 C256 1.390 . S
C265 H258 0.950 . S
C265 C262 1.387 . S
C266 C267 1.387 . S
C266 H270 0.950 . S
C266 C275 1.390 . S
C267 C266 1.387 . S
C267 C269 1.387 . S
H268 C275 0.950 . S
C269 C267 1.387 . S
C269 C271 1.390 . S
C269 H273 0.950 . S
H270 C266 0.950 . S
C271 C269 1.390 . S
C271 C272 1.387 . S
C271 H274 0.950 . S
C272 C271 1.387 . S
C272 C275 1.387 . S
H273 C269 0.950 . S
H274 C271 0.950 . S
C275 C266 1.390 . S
C275 H268 0.950 . S
C275 C272 1.387 . S
C276 C277 1.387 . S
C276 H280 0.950 . S
C276 C285 1.390 . S
C277 C276 1.387 . S
C277 C279 1.387 . S
H278 C285 0.950 . S
C279 C277 1.387 . S
C279 C281 1.390 . S
C279 H283 0.950 . S
H280 C276 0.950 . S
C281 C279 1.390 . S
C281 C282 1.387 . S
C281 H284 0.950 . S
C282 C281 1.387 . S
C282 C285 1.387 . S
H283 C279 0.950 . S
H284 C281 0.950 . S
C285 C276 1.390 . S
C285 H278 0.950 . S
C285 C282 1.387 . S
C286 C287 1.387 . S
C286 H290 0.950 . S
C286 C295 1.390 . S
C287 C286 1.387 . S
C287 C289 1.387 . S
H288 C295 0.950 . S
C289 C287 1.387 . S
C289 C291 1.390 . S
C289 H293 0.950 . S
H290 C286 0.950 . S
C291 C289 1.390 . S
C291 C292 1.387 . S
C291 H294 0.950 . S
C292 C291 1.387 . S
C292 C295 1.387 . S
H293 C289 0.950 . S
H294 C291 0.950 . S
C295 C286 1.390 . S
C295 H288 0.950 . S
C295 C292 1.387 . S
C296 C297 1.387 . S
C296 H300 0.950 . S
C296 C305 1.390 . S
C297 C296 1.387 . S
C297 C299 1.387 . S
H298 C305 0.950 . S
C299 C297 1.387 . S
C299 C301 1.390 . S
C299 H303 0.950 . S
H300 C296 0.950 . S
C301 C299 1.390 . S
C301 C302 1.387 . S
C301 H304 0.950 . S
C302 C301 1.387 . S
C302 C305 1.387 . S
H303 C299 0.950 . S
H304 C301 0.950 . S
C305 C296 1.390 . S
C305 H298 0.950 . S
C305 C302 1.387 . S
C306 C307 1.387 . S
C306 H310 0.950 . S
C306 C315 1.390 . S
C307 C306 1.387 . S
C307 C309 1.387 . S
H308 C315 0.950 . S
C309 C307 1.387 . S
C309 C311 1.390 . S
C309 H313 0.950 . S
H310 C306 0.950 . S
C311 C309 1.390 . S
C311 C312 1.387 . S
C311 H314 0.950 . S
C312 C311 1.387 . S
C312 C315 1.387 . S
H313 C309 0.950 . S
H314 C311 0.950 . S
C315 C306 1.390 . S
C315 H308 0.950 . S
C315 C312 1.387 . S
C316 C317 1.387 . S
C316 H320 0.950 . S
C316 C325 1.390 . S
C317 C316 1.387 . S
C317 C319 1.387 . S
H318 C325 0.950 . S
C319 C317 1.387 . S
C319 C321 1.390 . S
C319 H323 0.950 . S
H320 C316 0.950 . S
C321 C319 1.390 . S
C321 C322 1.387 . S
C321 H324 0.950 . S
C322 C321 1.387 . S
C322 C325 1.387 . S
H323 C319 0.950 . S
H324 C321 0.950 . S
C325 C316 1.390 . S
C325 H318 0.950 . S
C325 C322 1.387 . S
C326 C327 1.387 . S
C326 H330 0.950 . S
C326 C335 1.390 . S
C327 C326 1.387 . S
C327 C329 1.387 . S
H328 C335 0.950 . S
C329 C327 1.387 . S
C329 C331 1.390 . S
C329 H333 0.950 . S
H330 C326 0.950 . S
C331 C329 1.390 . S
C331 C332 1.387 . S
C331 H334 0.950 . S
C332 C331 1.387 . S
C332 C335 1.387 . S
H333 C329 0.950 . S
H334 C331 0.950 . S
C335 C326 1.390 . S
C335 H328 0.950 . S
C335 C332 1.387 . S
C336 C337 1.387 . S
C336 H340 0.950 . S
C336 C345 1.390 . S
C337 C336 1.387 . S
C337 C339 1.387 . S
H338 C345 0.950 . S
C339 C337 1.387 . S
C339 C341 1.390 . S
C339 H343 0.950 1_554 S
H340 C336 0.950 . S
C341 C339 1.390 . S
C341 C342 1.387 . S
C341 H344 0.950 1_554 S
C342 C341 1.387 . S
C342 C345 1.387 . S
H343 C339 0.950 1_556 S
H344 C341 0.950 1_556 S
C345 C336 1.390 . S
C345 H338 0.950 . S
C345 C342 1.387 . S
C346 C347 1.387 . S
C346 H350 0.950 . S
C346 C355 1.390 1_655 S
C347 C346 1.387 . S
C347 C349 1.387 . S
H348 C355 0.950 . S
C349 C347 1.387 . S
C349 C351 1.390 1_655 S
C349 H353 0.950 . S
H350 C346 0.950 . S
C351 C349 1.390 1_455 S
C351 C352 1.387 . S
C351 H354 0.950 . S
C352 C351 1.387 . S
C352 C355 1.387 . S
H353 C349 0.950 . S
H354 C351 0.950 . S
C355 C346 1.390 1_455 S
C355 H348 0.950 . S
C355 C352 1.387 . S
C356 C357 1.387 . S
C356 H360 0.950 . S
C356 C365 1.390 1_545 S
C357 C356 1.387 . S
C357 C359 1.387 . S
H358 C365 0.950 . S
C359 C357 1.387 . S
C359 C361 1.390 1_545 S
C359 H363 0.950 . S
H360 C356 0.950 . S
C361 C359 1.390 1_565 S
C361 C362 1.387 . S
C361 H364 0.950 . S
C362 C361 1.387 . S
C362 C365 1.387 . S
H363 C359 0.950 . S
H364 C361 0.950 . S
C365 C356 1.390 1_565 S
C365 H358 0.950 . S
C365 C362 1.387 . S
C366 C367 1.387 . S
C366 H370 0.950 . S
C366 C375 1.390 . S
C367 C366 1.387 . S
C367 C369 1.387 . S
H368 C375 0.950 . S
C369 C367 1.387 . S
C369 C371 1.390 . S
C369 H373 0.950 . S
H370 C366 0.950 . S
C371 C369 1.390 . S
C371 C372 1.387 . S
C371 H374 0.950 . S
C372 C371 1.387 . S
C372 C375 1.387 . S
H373 C369 0.950 . S
H374 C371 0.950 . S
C375 C366 1.390 . S
C375 H368 0.950 . S
C375 C372 1.387 . S
C376 C377 1.387 . S
C376 H380 0.950 . S
C376 C385 1.390 1_455 S
C377 C376 1.387 . S
C377 C379 1.387 . S
H378 C385 0.950 . S
C379 C377 1.387 . S
C379 C381 1.390 1_455 S
C379 H383 0.950 1_556 S
H380 C376 0.950 . S
C381 C379 1.390 1_655 S
C381 C382 1.387 . S
C381 H384 0.950 1_556 S
C382 C381 1.387 . S
C382 C385 1.387 . S
H383 C379 0.950 1_554 S
H384 C381 0.950 1_554 S
C385 C376 1.390 1_655 S
C385 H378 0.950 . S
C385 C382 1.387 . S
C386 C387 1.387 . S
C386 H390 0.950 . S
C386 C395 1.390 1_565 S
C387 C386 1.387 . S
C387 C389 1.387 . S
H388 C395 0.950 . S
C389 C387 1.387 . S
C389 C391 1.390 1_565 S
C389 H393 0.950 . S
H390 C386 0.950 . S
C391 C389 1.390 1_545 S
C391 C392 1.387 . S
C391 H394 0.950 . S
C392 C391 1.387 . S
C392 C395 1.387 . S
H393 C389 0.950 . S
H394 C391 0.950 . S
C395 C386 1.390 1_545 S
C395 H388 0.950 . S
C395 C392 1.387 . S
C157 C96 1.254 . S
C162 C5 1.254 . S
C167 C18 1.393 . S
C172 C104 1.386 . S
C177 C26 1.384 . S
C182 C122 1.397 . S
C187 C44 1.254 . S
C192 C135 1.254 . S
C197 C143 1.383 . S
C202 C57 1.396 . S
C207 C83 1.397 . S
C212 C65 1.385 . S
C217 C140 1.225 . S
C222 C10 1.225 . S
C227 C23 1.277 . S
C232 C151 1.268 . S
C237 C34 1.270 . S
C242 C88 1.278 . S
C247 C101 1.225 . S
C252 C49 1.225 . S
C257 C112 1.269 . S
C262 C62 1.276 . S
C267 C127 1.277 . S
C272 C73 1.270 . S
C277 C8 1.547 . S
C282 C114 1.553 . S
C287 C21 1.537 . S
C292 C125 1.537 . S
C297 C138 1.546 . S
C302 C36 1.551 . S
C307 C47 1.547 . S
C312 C153 1.552 . S
C317 C86 1.537 . S
C322 C60 1.537 . S
C327 C99 1.547 . S
C332 C75 1.551 . S
C337 C39 1.374 . S
C342 C0 1.374 . S
C347 C52 1.358 . S
C352 C13 1.358 . S
C357 C31 1.479 . S
C362 C70 1.479 . S
C367 C78 1.358 . S
C372 C117 1.358 . S
C377 C91 1.373 . S
C382 C130 1.373 . S
C387 C148 1.479 . S
C392 C109 1.479 . S
