# Generated by pormake.
# Topology ttw, (5)-cn, num edge types: 1
# Building blocks:
#     Node 0, Type 0, BuildingBlock: BEQFEK_clean_sbu_0, # of connection points: 5
#     Node 1, Type 0, BuildingBlock: BEQFEK_clean_sbu_0, # of connection points: 5
#     Node 2, Type 0, BuildingBlock: BEQFEK_clean_sbu_0, # of connection points: 5
#     Node 3, Type 0, BuildingBlock: BEQFEK_clean_sbu_0, # of connection points: 5
#     Node 4, Type 0, BuildingBlock: BEQFEK_clean_sbu_0, # of connection points: 5
#     Node 5, Type 0, BuildingBlock: BEQFEK_clean_sbu_0, # of connection points: 5
#     Edge 6, Type (0, 0), BuildingBlock: XIVTED_clean_linker_0, # of connection points: 2
#     Edge 7, Type (0, 0), BuildingBlock: XIVTED_clean_linker_0, # of connection points: 2
#     Edge 8, Type (0, 0), BuildingBlock: XIVTED_clean_linker_0, # of connection points: 2
#     Edge 9, Type (0, 0), BuildingBlock: XIVTED_clean_linker_0, # of connection points: 2
#     Edge 10, Type (0, 0), BuildingBlock: XIVTED_clean_linker_0, # of connection points: 2
#     Edge 11, Type (0, 0), BuildingBlock: XIVTED_clean_linker_0, # of connection points: 2
#     Edge 12, Type (0, 0), BuildingBlock: XIVTED_clean_linker_0, # of connection points: 2
#     Edge 13, Type (0, 0), BuildingBlock: XIVTED_clean_linker_0, # of connection points: 2
#     Edge 14, Type (0, 0), BuildingBlock: XIVTED_clean_linker_0, # of connection points: 2
#     Edge 15, Type (0, 0), BuildingBlock: XIVTED_clean_linker_0, # of connection points: 2
#     Edge 16, Type (0, 0), BuildingBlock: XIVTED_clean_linker_0, # of connection points: 2
#     Edge 17, Type (0, 0), BuildingBlock: XIVTED_clean_linker_0, # of connection points: 2
#     Edge 18, Type (0, 0), BuildingBlock: XIVTED_clean_linker_0, # of connection points: 2
#     Edge 19, Type (0, 0), BuildingBlock: XIVTED_clean_linker_0, # of connection points: 2
#     Edge 20, Type (0, 0), BuildingBlock: XIVTED_clean_linker_0, # of connection points: 2
# Relax obj value: 0.108
# Max RMSD: 0.172
# Mean RMSD: 0.159
data_MOF--net-ttw--node1-BEQFEK_clean_sbu_0--edge1-XIVTED_clean_linker_0
_symmetry_space_group_name_H-M    P1
_symmetry_Int_Tables_number       1
_symmetry_cell_setting            triclinic
loop_
_symmetry_equiv_pos_as_xyz
'x, y, z'
_cell_length_a     55.644529
_cell_length_b     58.019356
_cell_length_c     19.721833
_cell_angle_alpha  91.162085
_cell_angle_beta   90.122086
_cell_angle_gamma 125.72514
loop_
_atom_site_label
_atom_site_type_symbol
_atom_site_fract_x
_atom_site_fract_y
_atom_site_fract_z
_atom_type_partial_charge
Co0 Co 0.1776 0.52577 0.99584 0.0
Co1 Co 0.1784 0.5295 0.15421 0.0
C2 C 0.22109 0.52326 0.08066 0.0
O3 O 0.20997 0.5227 0.02349 0.0
O4 O 0.2107 0.52531 0.1362 0.0
C5 C 0.17378 0.50356 0.85886 0.0
O6 O 0.18151 0.48804 0.88467 0.0
C7 C 0.17657 0.52054 0.30336 0.0
C8 C 0.1555 0.54148 0.33557 0.0
C9 C 0.16659 0.52716 0.35999 0.0
N10 N 0.1712 0.5303 0.24821 0.0
N11 N 0.1587 0.54282 0.26808 0.0
C12 C 0.19211 0.50647 0.30178 0.0
H13 H 0.2064 0.51292 0.257 0.0
H14 H 0.17537 0.4831 0.29856 0.0
H15 H 0.20584 0.51197 0.3484 0.0
C16 C 0.11401 0.48123 0.01957 0.0
N17 N 0.14211 0.50017 0.04188 0.0
N18 N 0.14271 0.50091 0.10855 0.0
C19 C 0.1151 0.48197 0.1309 0.0
C20 C 0.09591 0.46907 0.0754 0.0
C21 C 0.10455 0.47748 0.94668 0.0
H22 H 0.11565 0.49856 0.92339 0.0
H23 H 0.11156 0.46552 0.9191 0.0
H24 H 0.08024 0.46587 0.94083 0.0
O25 O 0.19144 0.56543 0.0124 0.0
O26 O 0.19222 0.56772 0.12455 0.0
H27 H 0.10607 0.49356 0.22594 0.0
H28 H 0.08527 0.45577 0.21022 0.0
C29 C 0.1071 0.4764 0.20409 0.0
H30 H 0.12415 0.47612 0.23234 0.0
H31 H 0.15231 0.55229 0.23528 0.0
O32 O 0.17095 0.51957 0.89747 0.0
C33 C 0.19655 0.57935 0.06763 0.0
Co34 Co 0.4794 0.16478 0.15436 0.0
Co35 Co 0.47622 0.16192 0.99532 0.0
C36 C 0.47481 0.20557 0.06993 0.0
O37 O 0.47685 0.19601 0.12562 0.0
O38 O 0.47346 0.19395 0.01317 0.0
C39 C 0.46411 0.17179 0.29087 0.0
O40 O 0.45909 0.18918 0.26408 0.0
C41 C 0.46173 0.1577 0.84847 0.0
C42 C 0.48323 0.13806 0.80934 0.0
C43 C 0.46723 0.14821 0.78912 0.0
N44 N 0.47401 0.15331 0.90086 0.0
N45 N 0.48685 0.14164 0.87697 0.0
C46 C 0.44403 0.16943 0.85636 0.0
H47 H 0.43389 0.16456 0.90721 0.0
H48 H 0.42649 0.16051 0.81641 0.0
H49 H 0.45894 0.19285 0.85197 0.0
C50 C 0.4376 0.10321 0.13183 0.0
N51 N 0.4516 0.1298 0.10928 0.0
N52 N 0.44792 0.12884 0.04323 0.0
C53 C 0.42993 0.10147 0.02197 0.0
C54 C 0.42322 0.08411 0.07715 0.0
C55 C 0.44342 0.09694 0.20094 0.0
H56 H 0.46567 0.1147 0.21993 0.0
H57 H 0.42663 0.09442 0.23642 0.0
H58 H 0.44246 0.07732 0.20049 0.0
O59 O 0.51945 0.17567 0.13508 0.0
O60 O 0.51674 0.17448 0.02263 0.0
H61 H 0.4382 0.09277 0.9221 0.0
H62 H 0.39989 0.07028 0.9461 0.0
C63 C 0.42052 0.09222 0.94954 0.0
H64 H 0.41681 0.1069 0.92469 0.0
H65 H 0.49814 0.13612 0.90703 0.0
O66 O 0.47293 0.16007 0.25355 0.0
C67 C 0.53114 0.17882 0.07744 0.0
Co68 Co 0.48981 0.65449 0.00878 0.0
Co69 Co 0.49165 0.65636 0.16673 0.0
C70 C 0.5023 0.7051 0.09337 0.0
O71 O 0.49843 0.69177 0.03751 0.0
O72 O 0.50093 0.69432 0.15023 0.0
C73 C 0.51318 0.67576 0.87585 0.0
O74 O 0.53236 0.70025 0.907 0.0
C75 C 0.49934 0.66407 0.31749 0.0
C76 C 0.48265 0.62013 0.34262 0.0
C77 C 0.49371 0.64655 0.37143 0.0
N78 N 0.49215 0.64855 0.25956 0.0
N79 N 0.48217 0.62237 0.27518 0.0
C80 C 0.50887 0.6941 0.32077 0.0
H81 H 0.49834 0.69783 0.27885 0.0
H82 H 0.53323 0.7086 0.31506 0.0
H83 H 0.5029 0.69905 0.36985 0.0
C84 C 0.53163 0.63919 0.03082 0.0
N85 N 0.51507 0.6477 0.05324 0.0
N86 N 0.5179 0.65118 0.11947 0.0
C87 C 0.53762 0.64649 0.14122 0.0
C88 C 0.54666 0.63815 0.08599 0.0
C89 C 0.53023 0.62923 0.95931 0.0
H90 H 0.50837 0.62082 0.93577 0.0
H91 H 0.54762 0.64743 0.92951 0.0
H92 H 0.53381 0.61232 0.95729 0.0
O93 O 0.44816 0.62416 0.02665 0.0
O94 O 0.44971 0.62689 0.13878 0.0
H95 H 0.53419 0.6319 0.24198 0.0
H96 H 0.5716 0.65711 0.21485 0.0
C97 C 0.5488 0.65148 0.21298 0.0
H98 H 0.5488 0.66888 0.23735 0.0
H99 H 0.4747 0.60589 0.2395 0.0
O100 O 0.49425 0.65444 0.91011 0.0
C101 C 0.43532 0.61584 0.08328 0.0
Co102 Co 0.79748 0.34003 0.15442 0.0
Co103 Co 0.79953 0.34492 -0.00393 0.0
C104 C 0.74844 0.29421 0.06282 0.0
O105 O 0.76034 0.30454 0.12109 0.0
O106 O 0.76134 0.30728 0.00877 0.0
C107 C 0.78254 0.31862 0.29076 0.0
O108 O 0.75645 0.29875 0.26445 0.0
C109 C 0.7999 0.33447 0.84898 0.0
C110 C 0.82548 0.37843 0.81249 0.0
C111 C 0.81097 0.35039 0.79075 0.0
N112 N 0.80761 0.3524 0.90238 0.0
N113 N 0.82276 0.37859 0.88013 0.0
C114 C 0.78383 0.3031 0.85499 0.0
H115 H 0.78845 0.29817 0.9054 0.0
H116 H 0.79043 0.29443 0.81431 0.0
H117 H 0.75966 0.29272 0.85034 0.0
C118 C 0.85654 0.35295 0.13189 0.0
N119 N 0.83058 0.34658 0.10821 0.0
N120 N 0.83156 0.34839 0.04179 0.0
C121 C 0.85832 0.35604 0.02101 0.0
C122 C 0.87513 0.35933 0.07757 0.0
C123 C 0.86381 0.35426 0.20562 0.0
H124 H 0.84629 0.33407 0.22926 0.0
H125 H 0.88546 0.35772 0.21343 0.0
H126 H 0.86425 0.37172 0.23118 0.0
O127 O 0.79372 0.37172 0.1422 0.0
O128 O 0.79469 0.37415 0.03013 0.0
H129 H 0.89097 0.36846 0.94283 0.0
H130 H 0.85276 0.34614 0.91453 0.0
C131 C 0.8688 0.3638 0.94974 0.0
H132 H 0.86994 0.38289 0.93652 0.0
H133 H 0.83136 0.39662 0.9113 0.0
O134 O 0.8025 0.33767 0.25293 0.0
C135 C 0.79262 0.38275 0.08816 0.0
Co136 Co 0.39563 0.83336 0.16775 0.0
Co137 Co 0.39748 0.83616 0.00818 0.0
C138 C 0.43925 0.8299 0.08232 0.0
O139 O 0.4278 0.83022 0.13796 0.0
O140 O 0.43014 0.83249 0.02558 0.0
C141 C 0.41971 0.85807 0.30192 0.0
O142 O 0.44114 0.88016 0.26946 0.0
C143 C 0.41037 0.84555 0.8604 0.0
C144 C 0.37284 0.84605 0.826 0.0
C145 C 0.39795 0.8489 0.80363 0.0
N146 N 0.39341 0.84121 0.91413 0.0
N147 N 0.37086 0.8412 0.89282 0.0
C148 C 0.43843 0.84765 0.8644 0.0
H149 H 0.45208 0.86158 0.9083 0.0
H150 H 0.45127 0.85612 0.81716 0.0
H151 H 0.43294 0.82624 0.87302 0.0
C152 C 0.39599 0.88447 0.15097 0.0
N153 N 0.39825 0.86392 0.12668 0.0
N154 N 0.40223 0.86657 0.06079 0.0
C155 C 0.40453 0.88993 0.04174 0.0
C156 C 0.3999 0.90173 0.09784 0.0
C157 C 0.38677 0.88538 0.22164 0.0
H158 H 0.37431 0.86396 0.24359 0.0
H159 H 0.40676 0.90006 0.25365 0.0
H160 H 0.37275 0.89324 0.22213 0.0
O161 O 0.3575 0.79775 0.1428 0.0
O162 O 0.3595 0.79937 0.03046 0.0
H163 H 0.39334 0.89361 0.94051 0.0
H164 H 0.42621 0.92551 0.97516 0.0
C165 C 0.4134 0.902 0.97237 0.0
H166 H 0.42711 0.8961 0.94811 0.0
H167 H 0.35429 0.83827 0.92432 0.0
O168 O 0.39836 0.83684 0.26852 0.0
C169 C 0.34619 0.78678 0.0846 0.0
Co170 Co 0.6328 0.46281 0.16363 0.0
Co171 Co 0.63331 0.46236 0.00476 0.0
C172 C 0.68011 0.46451 0.08077 0.0
O173 O 0.6678 0.46371 0.13601 0.0
O174 O 0.66963 0.46476 0.02347 0.0
C175 C 0.65771 0.47779 0.29998 0.0
O176 O 0.681 0.48118 0.2724 0.0
C177 C 0.64524 0.47362 0.85795 0.0
C178 C 0.6 0.4561 0.82046 0.0
C179 C 0.62889 0.46935 0.79951 0.0
N180 N 0.62669 0.46335 0.9106 0.0
N181 N 0.59973 0.45283 0.88769 0.0
C182 C 0.67802 0.48893 0.8651 0.0
H183 H 0.68565 0.49856 0.91683 0.0
H184 H 0.68977 0.50571 0.8269 0.0
H185 H 0.68353 0.47353 0.85729 0.0
C186 C 0.62719 0.50982 0.14 0.0
N187 N 0.63127 0.49025 0.11781 0.0
N188 N 0.63395 0.49153 0.0516 0.0
C189 C 0.63302 0.51282 0.02963 0.0
C190 C 0.62826 0.52499 0.08475 0.0
C191 C 0.61907 0.51148 0.21138 0.0
H192 H 0.6063 0.49013 0.23369 0.0
H193 H 0.6396 0.52567 0.24223 0.0
H194 H 0.60556 0.51987 0.21363 0.0
O195 O 0.5967 0.4243 0.14388 0.0
O196 O 0.59864 0.42431 0.03167 0.0
H197 H 0.61677 0.50779 0.9281 0.0
H198 H 0.64495 0.54419 0.95404 0.0
C199 C 0.63773 0.52193 0.95752 0.0
H200 H 0.65486 0.52026 0.9348 0.0
H201 H 0.58114 0.44364 0.91826 0.0
O202 O 0.63539 0.47023 0.2629 0.0
C203 C 0.58624 0.41179 0.08644 0.0
H204 H 0.05666 0.41848 0.00766 0.0
H205 H 0.91547 0.40774 0.14822 0.0
H206 H 0.06126 0.47974 0.14496 0.0
H207 H 0.90793 0.34425 0.01378 0.0
H208 H 0.96916 0.43336 0.15004 0.0
H209 H 0.00229 0.39007 0.00995 0.0
C210 C 0.04613 0.42583 0.03832 0.0
C211 C 0.06325 0.45128 0.07648 0.0
C212 C 0.95588 0.41378 0.12026 0.0
C213 C 0.00154 0.41919 0.07961 0.0
C214 C 0.92524 0.3991 0.11957 0.0
C215 C 0.90746 0.37392 0.08093 0.0
C216 C 0.96889 0.40326 0.08169 0.0
C217 C 0.92108 0.36374 0.04393 0.0
C218 C 0.01522 0.40966 0.03981 0.0
C219 C 0.04878 0.46 0.11558 0.0
N220 N 0.9511 0.37852 0.04499 0.0
N221 N 0.0188 0.44402 0.11606 0.0
H222 H 0.4204 0.94405 0.19538 0.0
H223 H 0.43501 0.05654 0.98345 0.0
H224 H 0.37336 0.91422 0.00306 0.0
H225 H 0.38781 0.04303 0.16891 0.0
H226 H 0.42232 0.00875 0.98939 0.0
H227 H 0.41856 0.98529 0.19138 0.0
C228 C 0.40939 0.94592 0.15282 0.0
C229 C 0.39747 0.92587 0.09888 0.0
C230 C 0.41437 0.01619 0.02804 0.0
C231 C 0.39613 0.9731 0.09346 0.0
C232 C 0.4212 0.04334 0.02434 0.0
C233 C 0.41213 0.0538 0.07538 0.0
C234 C 0.3994 -0.00017 0.08441 0.0
C235 C 0.39545 0.03587 0.12884 0.0
C236 C 0.40841 0.9694 0.15065 0.0
C237 C 0.38385 0.92965 0.04448 0.0
N238 N 0.39019 0.00991 0.13299 0.0
N239 N 0.38413 0.95318 0.04235 0.0
H240 H 0.64623 0.56891 0.17571 0.0
H241 H 0.58756 0.64548 0.99408 0.0
H242 H 0.59454 0.52919 0.99162 0.0
H243 H 0.54538 0.60345 0.18019 0.0
H244 H 0.61199 0.62123 0.99184 0.0
H245 H 0.63054 0.60077 0.17768 0.0
C246 C 0.6319 0.56707 0.13543 0.0
C247 C 0.62161 0.54629 0.08351 0.0
C248 C 0.59779 0.61797 0.03363 0.0
C249 C 0.6051 0.58334 0.08393 0.0
C250 C 0.58368 0.63149 0.03476 0.0
C251 C 0.56429 0.62644 0.0873 0.0
C252 C 0.59317 0.60013 0.08652 0.0
C253 C 0.56061 0.60858 0.13955 0.0
C254 C 0.62327 0.58536 0.13639 0.0
C255 C 0.60356 0.54523 0.0318 0.0
N256 N 0.57495 0.59606 0.13791 0.0
N257 N 0.59589 0.56355 0.03322 0.0
H258 H 0.16227 0.48184 0.41891 0.0
H259 H 0.15893 0.53433 0.79257 0.0
H260 H 0.17204 0.5599 0.4669 0.0
H261 H 0.18031 0.47455 0.75662 0.0
H262 H 0.15636 0.53847 0.6711 0.0
H263 H 0.16319 0.47441 0.54048 0.0
C264 C 0.16524 0.49772 0.45467 0.0
C265 C 0.16782 0.52193 0.43254 0.0
C266 C 0.16162 0.52443 0.68962 0.0
C267 C 0.16753 0.51284 0.5712 0.0
C268 C 0.16301 0.52195 0.75912 0.0
C269 C 0.17017 0.50427 0.78491 0.0
C270 C 0.16727 0.50903 0.64509 0.0
C271 C 0.17491 0.48857 0.73883 0.0
C272 C 0.16538 0.49325 0.52405 0.0
C273 C 0.17009 0.54099 0.48152 0.0
N274 N 0.17345 0.49137 0.67085 0.0
N275 N 0.16986 0.53602 0.54837 0.0
H276 H 0.46241 0.13009 0.35728 0.0
H277 H 0.46467 0.18906 0.72709 0.0
H278 H 0.45632 0.20025 0.3913 0.0
H279 H 0.45489 0.11054 0.68738 0.0
H280 H 0.45909 0.19265 0.60551 0.0
H281 H 0.45795 0.12201 0.4787 0.0
C282 C 0.46008 0.14379 0.39033 0.0
C283 C 0.46001 0.16605 0.36416 0.0
C284 C 0.45767 0.1744 0.6236 0.0
C285 C 0.45494 0.15695 0.50371 0.0
C286 C 0.46053 0.17217 0.69321 0.0
C287 C 0.45996 0.1493 0.71759 0.0
C288 C 0.4546 0.1538 0.57823 0.0
C289 C 0.45559 0.12859 0.67077 0.0
C290 C 0.4574 0.13909 0.45975 0.0
C291 C 0.45659 0.18291 0.4094 0.0
N292 N 0.4533 0.13145 0.60345 0.0
N293 N 0.45447 0.17819 0.47714 0.0
H294 H 0.54815 0.7168 0.78298 0.0
H295 H 0.45729 0.61089 0.46792 0.0
H296 H 0.47577 0.62812 0.79852 0.0
H297 H 0.53688 0.6953 0.44276 0.0
H298 H 0.46275 0.61871 0.59008 0.0
H299 H 0.54386 0.71107 0.65886 0.0
C300 C 0.53147 0.69615 0.76039 0.0
C301 C 0.51222 0.67293 0.80117 0.0
C302 C 0.47901 0.63566 0.55809 0.0
C303 C 0.50711 0.66634 0.65996 0.0
C304 C 0.47587 0.6312 0.48823 0.0
C305 C 0.49645 0.6526 0.44515 0.0
C306 C 0.50306 0.6617 0.58552 0.0
C307 C 0.5201 0.6785 0.47419 0.0
C308 C 0.52902 0.69293 0.68968 0.0
C309 C 0.49103 0.64667 0.76929 0.0
N310 N 0.52282 0.68235 0.54284 0.0
N311 N 0.48902 0.64415 0.70077 0.0
H312 H 0.76287 0.30326 0.72548 0.0
H313 H 0.8346 0.35551 0.36013 0.0
H314 H 0.85173 0.37707 0.6924 0.0
H315 H 0.74368 0.28467 0.38932 0.0
H316 H 0.8429 0.35975 0.48248 0.0
H317 H 0.7572 0.29202 0.60369 0.0
C318 C 0.78144 0.31669 0.69292 0.0
C319 C 0.80793 0.341 0.71912 0.0
C320 C 0.82115 0.34316 0.46221 0.0
C321 C 0.80132 0.32873 0.57968 0.0
C322 C 0.81639 0.34074 0.39225 0.0
C323 C 0.78829 0.31992 0.36445 0.0
C324 C 0.79765 0.32471 0.50494 0.0
C325 C 0.76563 0.30119 0.4086 0.0
C326 C 0.77808 0.31045 0.62325 0.0
C327 C 0.83091 0.35816 0.67419 0.0
N328 N 0.77074 0.30417 0.47676 0.0
N329 N 0.82703 0.35178 0.60672 0.0
H330 H 0.39534 0.81203 0.38226 0.0
H331 H 0.40736 0.89051 0.72233 0.0
H332 H 0.44507 0.90337 0.3916 0.0
H333 H 0.40905 0.81721 0.72354 0.0
H334 H 0.41688 0.89455 0.60011 0.0
H335 H 0.39509 0.81169 0.50655 0.0
C336 C 0.40621 0.83201 0.41054 0.0
C337 C 0.42016 0.85778 0.37678 0.0
C338 C 0.41564 0.87787 0.62736 0.0
C339 C 0.41962 0.85746 0.51849 0.0
C340 C 0.4102 0.87555 0.69682 0.0
C341 C 0.40771 0.85366 0.73267 0.0
C342 C 0.41757 0.85755 0.5933 0.0
C343 C 0.41121 0.83458 0.69755 0.0
C344 C 0.40624 0.8318 0.4813 0.0
C345 C 0.43412 0.88307 0.41579 0.0
N346 N 0.41549 0.83667 0.62938 0.0
N347 N 0.43313 0.88226 0.48471 0.0
H348 H 0.61779 0.48137 0.37047 0.0
H349 H 0.67233 0.46909 0.73262 0.0
H350 H 0.69532 0.48226 0.39808 0.0
H351 H 0.60583 0.4843 0.7035 0.0
H352 H 0.68295 0.47594 0.61156 0.0
H353 H 0.61438 0.484 0.4932 0.0
C354 C 0.63418 0.48223 0.4024 0.0
C355 C 0.65672 0.48133 0.37404 0.0
C356 C 0.66637 0.47821 0.63193 0.0
C357 C 0.65288 0.48423 0.51485 0.0
C358 C 0.6605 0.4746 0.70128 0.0
C359 C 0.63836 0.47643 0.72842 0.0
C360 C 0.6497 0.48332 0.58952 0.0
C361 C 0.623 0.48258 0.68466 0.0
C362 C 0.63229 0.48383 0.47254 0.0
C363 C 0.67752 0.4828 0.41786 0.0
N364 N 0.62882 0.48562 0.61743 0.0
N365 N 0.67493 0.48389 0.4862 0.0
H366 H 0.25166 0.52233 0.97295 0.0
H367 H 0.39983 0.59369 0.19442 0.0
H368 H 0.25555 0.53157 0.19137 0.0
H369 H 0.39653 0.58903 0.97541 0.0
H370 H 0.34581 0.56287 0.19526 0.0
H371 H 0.30291 0.53782 0.97444 0.0
C372 C 0.26306 0.52708 0.02139 0.0
C373 C 0.24938 0.52618 0.08205 0.0
C374 C 0.35691 0.56832 0.14703 0.0
C375 C 0.30829 0.5443 0.08393 0.0
C376 C 0.38779 0.58596 0.14647 0.0
C377 C 0.4028 0.5944 0.0847 0.0
C378 C 0.34085 0.55909 0.0854 0.0
C379 C 0.38595 0.58341 0.02426 0.0
C380 C 0.29242 0.53604 0.02214 0.0
C381 C 0.26525 0.5323 0.14324 0.0
N382 N 0.3559 0.56661 0.02613 0.0
N383 N 0.294 0.54154 0.14251 0.0
H384 H 0.56878 0.18824 0.1819 0.0
H385 H 0.71129 0.27052 0.95111 0.0
H386 H 0.56495 0.1925 0.96412 0.0
H387 H 0.7141 0.26047 0.16674 0.0
H388 H 0.65752 0.23601 0.95191 0.0
H389 H 0.62154 0.20924 0.17502 0.0
C390 C 0.57895 0.19338 0.13257 0.0
C391 C 0.56245 0.18899 0.07364 0.0
C392 C 0.66996 0.24104 -0.00113 0.0
C393 C 0.62297 0.21316 0.06537 0.0
C394 C 0.70072 0.26066 -0.00161 0.0
C395 C 0.71724 0.26891 0.05923 0.0
C396 C 0.65564 0.22971 0.06064 0.0
C397 C 0.70228 0.25522 0.1188 0.0
C398 C 0.60911 0.20531 0.12863 0.0
C399 C 0.57682 0.19579 0.01102 0.0
N400 N 0.67232 0.23667 0.11819 0.0
N401 N 0.60631 0.20785 0.00864 0.0
H402 H 0.50676 0.73477 0.98195 0.0
H403 H 0.46531 0.82475 0.19335 0.0
H404 H 0.50341 0.73674 0.20061 0.0
H405 H 0.461 0.81686 0.9747 0.0
H406 H 0.49071 0.80194 0.19636 0.0
H407 H 0.50144 0.77357 0.97865 0.0
C408 C 0.50538 0.74363 0.02942 0.0
C409 C 0.5049 0.732 0.09166 0.0
C410 C 0.48464 0.80559 0.14765 0.0
C411 C 0.49859 0.77642 0.08802 0.0
C412 C 0.47016 0.8187 0.14582 0.0
C413 C 0.46037 0.82218 0.08369 0.0
C414 C 0.48925 0.79572 0.08699 0.0
C415 C 0.46773 0.81427 0.02382 0.0
C416 C 0.50231 0.76581 0.02741 0.0
C417 C 0.50347 0.7447 0.15141 0.0
N418 N 0.48127 0.80096 0.02703 0.0
N419 N 0.4999 0.76592 0.14804 0.0
H420 H 0.77926 0.40192 0.20041 0.0
H421 H 0.71189 0.4642 0.97479 0.0
H422 H 0.78918 0.411 0.98344 0.0
H423 H 0.70499 0.45841 0.19276 0.0
H424 H 0.74705 0.45197 0.9792 0.0
H425 H 0.75912 0.42973 0.20107 0.0
C426 C 0.77767 0.41013 0.15307 0.0
C427 C 0.78543 0.40363 0.09162 0.0
C428 C 0.73816 0.45377 0.02618 0.0
C429 C 0.76209 0.43525 0.09191 0.0
C430 C 0.71807 0.46078 0.02369 0.0
C431 C 0.70503 0.46189 0.08337 0.0
C432 C 0.7451 0.44759 0.08872 0.0
C433 C 0.71416 0.4575 0.14531 0.0
C434 C 0.7661 0.42597 0.15344 0.0
C435 C 0.78306 0.41506 0.03193 0.0
N436 N 0.73328 0.45015 0.14625 0.0
N437 N 0.77123 0.42994 0.03346 0.0
H438 H 0.21636 0.61358 0.95706 0.0
H439 H 0.30982 0.75469 0.18804 0.0
H440 H 0.21001 0.61588 0.17501 0.0
H441 H 0.31859 0.75292 0.97079 0.0
H442 H 0.26729 0.70505 0.18145 0.0
H443 H 0.24746 0.66545 0.9585 0.0
C444 C 0.22108 0.62494 0.00512 0.0
C445 C 0.21095 0.61031 0.06616 0.0
C446 C 0.2783 0.71557 0.13508 0.0
C447 C 0.24675 0.6697 0.06812 0.0
C448 C 0.30264 0.74397 0.1388 0.0
C449 C 0.31814 0.75791 0.08 0.0
C450 C 0.26945 0.70088 0.07219 0.0
C451 C 0.30753 0.74296 0.01755 0.0
C452 C 0.23893 0.65459 0.00589 0.0
C453 C 0.21765 0.62621 0.12678 0.0
N454 N 0.28407 0.71514 0.0154 0.0
N455 N 0.23542 0.65503 0.12628 0.0
H456 H 0.47726 0.23617 0.18084 0.0
H457 H 0.55765 0.3783 0.97296 0.0
H458 H 0.48313 0.2388 0.96249 0.0
H459 H 0.55698 0.37574 0.19169 0.0
H460 H 0.52125 0.32686 0.96763 0.0
H461 H 0.49638 0.28616 0.18444 0.0
C462 C 0.482 0.24706 0.13347 0.0
C463 C 0.47919 0.23334 0.07134 0.0
C464 C 0.52875 0.33758 0.01682 0.0
C465 C 0.50152 0.29084 0.0753 0.0
C466 C 0.54959 0.367 0.01997 0.0
C467 C 0.56087 0.38138 0.08292 0.0
C468 C 0.51918 0.32232 0.077 0.0
C469 C 0.54924 0.36557 0.14201 0.0
C470 C 0.49303 0.2757 0.13563 0.0
C471 C 0.48531 0.24855 0.01165 0.0
N472 N 0.52935 0.33686 0.13757 0.0
N473 N 0.49671 0.27662 0.01521 0.0
loop_
_geom_bond_atom_site_label_1
_geom_bond_atom_site_label_2
_geom_bond_distance
_geom_bond_site_symmetry_2
_ccdc_geom_bond_type
Co0 O3 1.970 . S
Co0 N17 1.989 . S
Co0 O25 1.967 . S
Co0 O32 1.920 1_554 S
Co1 O4 1.966 . S
Co1 N10 2.022 . S
Co1 N18 1.993 . S
Co1 O26 1.941 . S
C2 O3 1.258 . S
C2 O4 1.263 . S
O3 Co0 1.970 . S
O3 C2 1.258 . S
O4 Co1 1.966 . S
O4 C2 1.263 . S
C5 O6 1.235 . S
C5 O32 1.289 . S
O6 C5 1.235 . S
C7 C9 1.400 . S
C7 N10 1.351 . S
C7 C12 1.501 . S
C8 C9 1.387 . S
C8 N11 1.341 . S
C9 C7 1.400 . S
C9 C8 1.387 . S
N10 Co1 2.022 . S
N10 C7 1.351 . S
N10 N11 1.365 . S
N11 C8 1.341 . S
N11 N10 1.365 . S
N11 H31 0.862 . S
C12 C7 1.501 . S
C12 H13 0.961 . S
C12 H14 0.961 . S
C12 H15 0.960 . S
H13 C12 0.961 . S
H14 C12 0.961 . S
H15 C12 0.960 . S
C16 N17 1.342 . S
C16 C20 1.401 . S
C16 C21 1.499 1_554 S
N17 Co0 1.989 . S
N17 C16 1.342 . S
N17 N18 1.388 . S
N18 Co1 1.993 . S
N18 N17 1.388 . S
N18 C19 1.346 . S
C19 N18 1.346 . S
C19 C20 1.396 . S
C19 C29 1.510 . S
C20 C16 1.401 . S
C20 C19 1.396 . S
C21 C16 1.499 1_556 S
C21 H22 0.959 . S
C21 H23 0.960 . S
C21 H24 0.961 . S
H22 C21 0.959 . S
H23 C21 0.960 . S
H24 C21 0.961 . S
O25 Co0 1.967 . S
O25 C33 1.258 . S
O26 Co1 1.941 . S
O26 C33 1.266 . S
H27 C29 0.959 . S
H28 C29 0.961 . S
C29 C19 1.510 . S
C29 H27 0.959 . S
C29 H28 0.961 . S
C29 H30 0.960 . S
H30 C29 0.960 . S
H31 N11 0.862 . S
O32 Co0 1.920 1_556 S
O32 C5 1.289 . S
C33 O25 1.258 . S
C33 O26 1.266 . S
Co34 O37 1.970 . S
Co34 N51 1.989 . S
Co34 O59 1.967 . S
Co34 O66 1.920 . S
Co35 O38 1.966 1_556 S
Co35 N44 2.022 . S
Co35 N52 1.993 1_556 S
Co35 O60 1.941 1_556 S
C36 O37 1.258 . S
C36 O38 1.263 . S
O37 Co34 1.970 . S
O37 C36 1.258 . S
O38 Co35 1.966 1_554 S
O38 C36 1.263 . S
C39 O40 1.235 . S
C39 O66 1.289 . S
O40 C39 1.235 . S
C41 C43 1.400 . S
C41 N44 1.351 . S
C41 C46 1.501 . S
C42 C43 1.387 . S
C42 N45 1.341 . S
C43 C41 1.400 . S
C43 C42 1.387 . S
N44 Co35 2.022 . S
N44 C41 1.351 . S
N44 N45 1.365 . S
N45 C42 1.341 . S
N45 N44 1.365 . S
N45 H65 0.862 . S
C46 C41 1.501 . S
C46 H47 0.961 . S
C46 H48 0.961 . S
C46 H49 0.960 . S
H47 C46 0.961 . S
H48 C46 0.961 . S
H49 C46 0.960 . S
C50 N51 1.342 . S
C50 C54 1.401 . S
C50 C55 1.499 . S
N51 Co34 1.989 . S
N51 C50 1.342 . S
N51 N52 1.388 . S
N52 Co35 1.993 1_554 S
N52 N51 1.388 . S
N52 C53 1.346 . S
C53 N52 1.346 . S
C53 C54 1.396 . S
C53 C63 1.510 1_554 S
C54 C50 1.401 . S
C54 C53 1.396 . S
C55 C50 1.499 . S
C55 H56 0.959 . S
C55 H57 0.960 . S
C55 H58 0.961 . S
H56 C55 0.959 . S
H57 C55 0.960 . S
H58 C55 0.961 . S
O59 Co34 1.967 . S
O59 C67 1.258 . S
O60 Co35 1.941 1_554 S
O60 C67 1.266 . S
H61 C63 0.959 . S
H62 C63 0.961 . S
C63 C53 1.510 1_556 S
C63 H61 0.959 . S
C63 H62 0.961 . S
C63 H64 0.960 . S
H64 C63 0.960 . S
H65 N45 0.862 . S
O66 Co34 1.920 . S
O66 C39 1.289 . S
C67 O59 1.258 . S
C67 O60 1.266 . S
Co68 O71 1.970 . S
Co68 N85 1.989 . S
Co68 O93 1.967 . S
Co68 O100 1.920 1_554 S
Co69 O72 1.966 . S
Co69 N78 2.022 . S
Co69 N86 1.993 . S
Co69 O94 1.941 . S
C70 O71 1.258 . S
C70 O72 1.263 . S
O71 Co68 1.970 . S
O71 C70 1.258 . S
O72 Co69 1.966 . S
O72 C70 1.263 . S
C73 O74 1.235 . S
C73 O100 1.289 . S
O74 C73 1.235 . S
C75 C77 1.400 . S
C75 N78 1.351 . S
C75 C80 1.501 . S
C76 C77 1.387 . S
C76 N79 1.341 . S
C77 C75 1.400 . S
C77 C76 1.387 . S
N78 Co69 2.022 . S
N78 C75 1.351 . S
N78 N79 1.365 . S
N79 C76 1.341 . S
N79 N78 1.365 . S
N79 H99 0.862 . S
C80 C75 1.501 . S
C80 H81 0.961 . S
C80 H82 0.961 . S
C80 H83 0.960 . S
H81 C80 0.961 . S
H82 C80 0.961 . S
H83 C80 0.960 . S
C84 N85 1.342 . S
C84 C88 1.401 . S
C84 C89 1.499 1_554 S
N85 Co68 1.989 . S
N85 C84 1.342 . S
N85 N86 1.388 . S
N86 Co69 1.993 . S
N86 N85 1.388 . S
N86 C87 1.346 . S
C87 N86 1.346 . S
C87 C88 1.396 . S
C87 C97 1.510 . S
C88 C84 1.401 . S
C88 C87 1.396 . S
C89 C84 1.499 1_556 S
C89 H90 0.959 . S
C89 H91 0.960 . S
C89 H92 0.961 . S
H90 C89 0.959 . S
H91 C89 0.960 . S
H92 C89 0.961 . S
O93 Co68 1.967 . S
O93 C101 1.258 . S
O94 Co69 1.941 . S
O94 C101 1.266 . S
H95 C97 0.959 . S
H96 C97 0.961 . S
C97 C87 1.510 . S
C97 H95 0.959 . S
C97 H96 0.961 . S
C97 H98 0.960 . S
H98 C97 0.960 . S
H99 N79 0.862 . S
O100 Co68 1.920 1_556 S
O100 C73 1.289 . S
C101 O93 1.258 . S
C101 O94 1.266 . S
Co102 O105 1.970 . S
Co102 N119 1.989 . S
Co102 O127 1.967 . S
Co102 O134 1.920 . S
Co103 O106 1.966 . S
Co103 N112 2.022 1_554 S
Co103 N120 1.993 . S
Co103 O128 1.941 . S
C104 O105 1.258 . S
C104 O106 1.263 . S
O105 Co102 1.970 . S
O105 C104 1.258 . S
O106 Co103 1.966 . S
O106 C104 1.263 . S
C107 O108 1.235 . S
C107 O134 1.289 . S
O108 C107 1.235 . S
C109 C111 1.400 . S
C109 N112 1.351 . S
C109 C114 1.501 . S
C110 C111 1.387 . S
C110 N113 1.341 . S
C111 C109 1.400 . S
C111 C110 1.387 . S
N112 Co103 2.022 1_556 S
N112 C109 1.351 . S
N112 N113 1.365 . S
N113 C110 1.341 . S
N113 N112 1.365 . S
N113 H133 0.862 . S
C114 C109 1.501 . S
C114 H115 0.961 . S
C114 H116 0.961 . S
C114 H117 0.960 . S
H115 C114 0.961 . S
H116 C114 0.961 . S
H117 C114 0.960 . S
C118 N119 1.342 . S
C118 C122 1.401 . S
C118 C123 1.499 . S
N119 Co102 1.989 . S
N119 C118 1.342 . S
N119 N120 1.388 . S
N120 Co103 1.993 . S
N120 N119 1.388 . S
N120 C121 1.346 . S
C121 N120 1.346 . S
C121 C122 1.396 . S
C121 C131 1.510 1_554 S
C122 C118 1.401 . S
C122 C121 1.396 . S
C123 C118 1.499 . S
C123 H124 0.959 . S
C123 H125 0.960 . S
C123 H126 0.961 . S
H124 C123 0.959 . S
H125 C123 0.960 . S
H126 C123 0.961 . S
O127 Co102 1.967 . S
O127 C135 1.258 . S
O128 Co103 1.941 . S
O128 C135 1.266 . S
H129 C131 0.959 . S
H130 C131 0.961 . S
C131 C121 1.510 1_556 S
C131 H129 0.959 . S
C131 H130 0.961 . S
C131 H132 0.960 . S
H132 C131 0.960 . S
H133 N113 0.862 . S
O134 Co102 1.920 . S
O134 C107 1.289 . S
C135 O127 1.258 . S
C135 O128 1.266 . S
Co136 O139 1.970 . S
Co136 N153 1.989 . S
Co136 O161 1.967 . S
Co136 O168 1.920 . S
Co137 O140 1.966 . S
Co137 N146 2.022 . S
Co137 N154 1.993 1_556 S
Co137 O162 1.941 . S
C138 O139 1.258 . S
C138 O140 1.263 1_554 S
O139 Co136 1.970 . S
O139 C138 1.258 . S
O140 Co137 1.966 . S
O140 C138 1.263 1_556 S
C141 O142 1.235 . S
C141 O168 1.289 . S
O142 C141 1.235 . S
C143 C145 1.400 . S
C143 N146 1.351 . S
C143 C148 1.501 . S
C144 C145 1.387 . S
C144 N147 1.341 . S
C145 C143 1.400 . S
C145 C144 1.387 . S
N146 Co137 2.022 . S
N146 C143 1.351 . S
N146 N147 1.365 . S
N147 C144 1.341 . S
N147 N146 1.365 . S
N147 H167 0.862 . S
C148 C143 1.501 . S
C148 H149 0.961 . S
C148 H150 0.961 . S
C148 H151 0.960 . S
H149 C148 0.961 . S
H150 C148 0.961 . S
H151 C148 0.960 . S
C152 N153 1.342 . S
C152 C156 1.401 . S
C152 C157 1.499 . S
N153 Co136 1.989 . S
N153 C152 1.342 . S
N153 N154 1.388 . S
N154 Co137 1.993 1_554 S
N154 N153 1.388 . S
N154 C155 1.346 1_554 S
C155 N154 1.346 1_556 S
C155 C156 1.396 1_556 S
C155 C165 1.510 . S
C156 C152 1.401 . S
C156 C155 1.396 1_554 S
C157 C152 1.499 . S
C157 H158 0.959 . S
C157 H159 0.960 . S
C157 H160 0.961 . S
H158 C157 0.959 . S
H159 C157 0.960 . S
H160 C157 0.961 . S
O161 Co136 1.967 . S
O161 C169 1.258 . S
O162 Co137 1.941 . S
O162 C169 1.266 1_556 S
H163 C165 0.959 . S
H164 C165 0.961 . S
C165 C155 1.510 . S
C165 H163 0.959 . S
C165 H164 0.961 . S
C165 H166 0.960 . S
H166 C165 0.960 . S
H167 N147 0.862 . S
O168 Co136 1.920 . S
O168 C141 1.289 . S
C169 O161 1.258 . S
C169 O162 1.266 1_554 S
Co170 O173 1.970 . S
Co170 N187 1.989 . S
Co170 O195 1.967 . S
Co170 O202 1.920 . S
Co171 O174 1.966 . S
Co171 N180 2.022 1_554 S
Co171 N188 1.993 . S
Co171 O196 1.941 . S
C172 O173 1.258 . S
C172 O174 1.263 . S
O173 Co170 1.970 . S
O173 C172 1.258 . S
O174 Co171 1.966 . S
O174 C172 1.263 . S
C175 O176 1.235 . S
C175 O202 1.289 . S
O176 C175 1.235 . S
C177 C179 1.400 . S
C177 N180 1.351 . S
C177 C182 1.501 . S
C178 C179 1.387 . S
C178 N181 1.341 . S
C179 C177 1.400 . S
C179 C178 1.387 . S
N180 Co171 2.022 1_556 S
N180 C177 1.351 . S
N180 N181 1.365 . S
N181 C178 1.341 . S
N181 N180 1.365 . S
N181 H201 0.862 . S
C182 C177 1.501 . S
C182 H183 0.961 . S
C182 H184 0.961 . S
C182 H185 0.960 . S
H183 C182 0.961 . S
H184 C182 0.961 . S
H185 C182 0.960 . S
C186 N187 1.342 . S
C186 C190 1.401 . S
C186 C191 1.499 . S
N187 Co170 1.989 . S
N187 C186 1.342 . S
N187 N188 1.388 . S
N188 Co171 1.993 . S
N188 N187 1.388 . S
N188 C189 1.346 . S
C189 N188 1.346 . S
C189 C190 1.396 . S
C189 C199 1.510 1_554 S
C190 C186 1.401 . S
C190 C189 1.396 . S
C191 C186 1.499 . S
C191 H192 0.959 . S
C191 H193 0.960 . S
C191 H194 0.961 . S
H192 C191 0.959 . S
H193 C191 0.960 . S
H194 C191 0.961 . S
O195 Co170 1.967 . S
O195 C203 1.258 . S
O196 Co171 1.941 . S
O196 C203 1.266 . S
H197 C199 0.959 . S
H198 C199 0.961 . S
C199 C189 1.510 1_556 S
C199 H197 0.959 . S
C199 H198 0.961 . S
C199 H200 0.960 . S
H200 C199 0.960 . S
H201 N181 0.862 . S
O202 Co170 1.920 . S
O202 C175 1.289 . S
C203 O195 1.258 . S
C203 O196 1.266 . S
H204 C210 0.930 1_556 S
H205 C214 0.930 . S
H206 C219 0.929 . S
H207 C217 0.929 1_556 S
H208 C212 0.929 . S
H209 C218 0.929 1_556 S
C210 H204 0.930 1_554 S
C210 C211 1.367 . S
C210 C218 1.378 . S
C211 C210 1.367 . S
C211 C219 1.433 . S
C212 H208 0.929 . S
C212 C214 1.378 . S
C212 C216 1.350 . S
C213 C216 1.463 1_455 S
C213 C218 1.350 . S
C213 N221 1.427 . S
C214 H205 0.930 . S
C214 C212 1.378 . S
C214 C215 1.367 . S
C215 C214 1.367 . S
C215 C217 1.433 . S
C216 C212 1.350 . S
C216 C213 1.463 1_655 S
C216 N220 1.427 . S
C217 H207 0.929 1_554 S
C217 C215 1.433 . S
C217 N220 1.384 . S
C218 H209 0.929 1_554 S
C218 C210 1.378 . S
C218 C213 1.350 . S
C219 H206 0.929 . S
C219 C211 1.433 . S
C219 N221 1.384 . S
N220 C216 1.427 . S
N220 C217 1.384 . S
N221 C213 1.427 . S
N221 C219 1.384 . S
H222 C228 0.930 . S
H223 C232 0.930 1_556 S
H224 C237 0.929 . S
H225 C235 0.929 . S
H226 C230 0.927 . S
H227 C236 0.929 . S
C228 H222 0.930 . S
C228 C229 1.367 . S
C228 C236 1.378 . S
C229 C228 1.367 . S
C229 C237 1.433 1_554 S
C230 H226 0.927 . S
C230 C232 1.378 1_556 S
C230 C234 1.351 1_556 S
C231 C234 1.463 1_565 S
C231 C236 1.350 . S
C231 N239 1.427 1_554 S
C232 H223 0.930 1_554 S
C232 C230 1.378 1_554 S
C232 C233 1.367 . S
C233 C232 1.367 . S
C233 C235 1.433 . S
C234 C230 1.351 1_554 S
C234 C231 1.463 1_545 S
C234 N238 1.427 . S
C235 H225 0.929 . S
C235 C233 1.433 . S
C235 N238 1.384 . S
C236 H227 0.929 . S
C236 C228 1.378 . S
C236 C231 1.350 . S
C237 H224 0.929 . S
C237 C229 1.433 1_556 S
C237 N239 1.384 . S
N238 C234 1.427 . S
N238 C235 1.384 . S
N239 C231 1.427 1_556 S
N239 C237 1.384 . S
H240 C246 0.930 . S
H241 C250 0.930 1_556 S
H242 C255 0.929 1_556 S
H243 C253 0.929 . S
H244 C248 0.929 1_556 S
H245 C254 0.929 . S
C246 H240 0.930 . S
C246 C247 1.367 . S
C246 C254 1.378 . S
C247 C246 1.367 . S
C247 C255 1.433 . S
C248 H244 0.929 1_554 S
C248 C250 1.378 . S
C248 C252 1.350 . S
C249 C252 1.463 . S
C249 C254 1.350 . S
C249 N257 1.427 . S
C250 H241 0.930 1_554 S
C250 C248 1.378 . S
C250 C251 1.367 . S
C251 C250 1.367 . S
C251 C253 1.433 . S
C252 C248 1.350 . S
C252 C249 1.463 . S
C252 N256 1.427 . S
C253 H243 0.929 . S
C253 C251 1.433 . S
C253 N256 1.384 . S
C254 H245 0.929 . S
C254 C246 1.378 . S
C254 C249 1.350 . S
C255 H242 0.929 1_554 S
C255 C247 1.433 . S
C255 N257 1.384 . S
N256 C252 1.427 . S
N256 C253 1.384 . S
N257 C249 1.427 . S
N257 C255 1.384 . S
H258 C264 0.930 . S
H259 C268 0.930 . S
H260 C273 0.929 . S
H261 C271 0.929 . S
H262 C266 0.929 . S
H263 C272 0.929 . S
C264 H258 0.930 . S
C264 C265 1.367 . S
C264 C272 1.378 . S
C265 C264 1.367 . S
C265 C273 1.433 . S
C266 H262 0.929 . S
C266 C268 1.378 . S
C266 C270 1.350 . S
C267 C270 1.463 . S
C267 C272 1.350 . S
C267 N275 1.427 . S
C268 H259 0.930 . S
C268 C266 1.378 . S
C268 C269 1.367 . S
C269 C268 1.367 . S
C269 C271 1.433 . S
C270 C266 1.350 . S
C270 C267 1.463 . S
C270 N274 1.427 . S
C271 H261 0.929 . S
C271 C269 1.433 . S
C271 N274 1.384 . S
C272 H263 0.929 . S
C272 C264 1.378 . S
C272 C267 1.350 . S
C273 H260 0.929 . S
C273 C265 1.433 . S
C273 N275 1.384 . S
N274 C270 1.427 . S
N274 C271 1.384 . S
N275 C267 1.427 . S
N275 C273 1.384 . S
H276 C282 0.930 . S
H277 C286 0.930 . S
H278 C291 0.929 . S
H279 C289 0.929 . S
H280 C284 0.929 . S
H281 C290 0.929 . S
C282 H276 0.930 . S
C282 C283 1.367 . S
C282 C290 1.378 . S
C283 C282 1.367 . S
C283 C291 1.433 . S
C284 H280 0.929 . S
C284 C286 1.378 . S
C284 C288 1.350 . S
C285 C288 1.463 . S
C285 C290 1.350 . S
C285 N293 1.427 . S
C286 H277 0.930 . S
C286 C284 1.378 . S
C286 C287 1.367 . S
C287 C286 1.367 . S
C287 C289 1.433 . S
C288 C284 1.350 . S
C288 C285 1.463 . S
C288 N292 1.427 . S
C289 H279 0.929 . S
C289 C287 1.433 . S
C289 N292 1.384 . S
C290 H281 0.929 . S
C290 C282 1.378 . S
C290 C285 1.350 . S
C291 H278 0.929 . S
C291 C283 1.433 . S
C291 N293 1.384 . S
N292 C288 1.427 . S
N292 C289 1.384 . S
N293 C285 1.427 . S
N293 C291 1.384 . S
H294 C300 0.930 . S
H295 C304 0.930 . S
H296 C309 0.929 . S
H297 C307 0.929 . S
H298 C302 0.929 . S
H299 C308 0.929 . S
C300 H294 0.930 . S
C300 C301 1.367 . S
C300 C308 1.378 . S
C301 C300 1.367 . S
C301 C309 1.433 . S
C302 H298 0.929 . S
C302 C304 1.378 . S
C302 C306 1.350 . S
C303 C306 1.463 . S
C303 C308 1.350 . S
C303 N311 1.427 . S
C304 H295 0.930 . S
C304 C302 1.378 . S
C304 C305 1.367 . S
C305 C304 1.367 . S
C305 C307 1.433 . S
C306 C302 1.350 . S
C306 C303 1.463 . S
C306 N310 1.427 . S
C307 H297 0.929 . S
C307 C305 1.433 . S
C307 N310 1.384 . S
C308 H299 0.929 . S
C308 C300 1.378 . S
C308 C303 1.350 . S
C309 H296 0.929 . S
C309 C301 1.433 . S
C309 N311 1.384 . S
N310 C306 1.427 . S
N310 C307 1.384 . S
N311 C303 1.427 . S
N311 C309 1.384 . S
H312 C318 0.930 . S
H313 C322 0.930 . S
H314 C327 0.929 . S
H315 C325 0.929 . S
H316 C320 0.929 . S
H317 C326 0.929 . S
C318 H312 0.930 . S
C318 C319 1.367 . S
C318 C326 1.378 . S
C319 C318 1.367 . S
C319 C327 1.433 . S
C320 H316 0.929 . S
C320 C322 1.378 . S
C320 C324 1.350 . S
C321 C324 1.463 . S
C321 C326 1.350 . S
C321 N329 1.427 . S
C322 H313 0.930 . S
C322 C320 1.378 . S
C322 C323 1.367 . S
C323 C322 1.367 . S
C323 C325 1.433 . S
C324 C320 1.350 . S
C324 C321 1.463 . S
C324 N328 1.427 . S
C325 H315 0.929 . S
C325 C323 1.433 . S
C325 N328 1.384 . S
C326 H317 0.929 . S
C326 C318 1.378 . S
C326 C321 1.350 . S
C327 H314 0.929 . S
C327 C319 1.433 . S
C327 N329 1.384 . S
N328 C324 1.427 . S
N328 C325 1.384 . S
N329 C321 1.427 . S
N329 C327 1.384 . S
H330 C336 0.930 . S
H331 C340 0.930 . S
H332 C345 0.929 . S
H333 C343 0.929 . S
H334 C338 0.929 . S
H335 C344 0.929 . S
C336 H330 0.930 . S
C336 C337 1.367 . S
C336 C344 1.378 . S
C337 C336 1.367 . S
C337 C345 1.433 . S
C338 H334 0.929 . S
C338 C340 1.378 . S
C338 C342 1.350 . S
C339 C342 1.463 . S
C339 C344 1.350 . S
C339 N347 1.427 . S
C340 H331 0.930 . S
C340 C338 1.378 . S
C340 C341 1.367 . S
C341 C340 1.367 . S
C341 C343 1.433 . S
C342 C338 1.350 . S
C342 C339 1.463 . S
C342 N346 1.427 . S
C343 H333 0.929 . S
C343 C341 1.433 . S
C343 N346 1.384 . S
C344 H335 0.929 . S
C344 C336 1.378 . S
C344 C339 1.350 . S
C345 H332 0.929 . S
C345 C337 1.433 . S
C345 N347 1.384 . S
N346 C342 1.427 . S
N346 C343 1.384 . S
N347 C339 1.427 . S
N347 C345 1.384 . S
H348 C354 0.930 . S
H349 C358 0.930 . S
H350 C363 0.929 . S
H351 C361 0.929 . S
H352 C356 0.929 . S
H353 C362 0.929 . S
C354 H348 0.930 . S
C354 C355 1.367 . S
C354 C362 1.378 . S
C355 C354 1.367 . S
C355 C363 1.433 . S
C356 H352 0.929 . S
C356 C358 1.378 . S
C356 C360 1.350 . S
C357 C360 1.463 . S
C357 C362 1.350 . S
C357 N365 1.427 . S
C358 H349 0.930 . S
C358 C356 1.378 . S
C358 C359 1.367 . S
C359 C358 1.367 . S
C359 C361 1.433 . S
C360 C356 1.350 . S
C360 C357 1.463 . S
C360 N364 1.427 . S
C361 H351 0.929 . S
C361 C359 1.433 . S
C361 N364 1.384 . S
C362 H353 0.929 . S
C362 C354 1.378 . S
C362 C357 1.350 . S
C363 H350 0.929 . S
C363 C355 1.433 . S
C363 N365 1.384 . S
N364 C360 1.427 . S
N364 C361 1.384 . S
N365 C357 1.427 . S
N365 C363 1.384 . S
H366 C372 0.936 . S
H367 C376 0.930 . S
H368 C381 0.929 . S
H369 C379 0.929 1_556 S
H370 C374 0.929 . S
H371 C380 0.929 1_556 S
C372 H366 0.936 . S
C372 C373 1.367 . S
C372 C380 1.378 . S
C373 C372 1.367 . S
C373 C381 1.433 . S
C374 H370 0.929 . S
C374 C376 1.378 . S
C374 C378 1.350 . S
C375 C378 1.463 . S
C375 C380 1.350 . S
C375 N383 1.427 . S
C376 H367 0.930 . S
C376 C374 1.378 . S
C376 C377 1.367 . S
C377 C376 1.367 . S
C377 C379 1.433 . S
C378 C374 1.350 . S
C378 C375 1.463 . S
C378 N382 1.427 . S
C379 H369 0.929 1_554 S
C379 C377 1.433 . S
C379 N382 1.384 . S
C380 H371 0.929 1_554 S
C380 C372 1.378 . S
C380 C375 1.350 . S
C381 H368 0.929 . S
C381 C373 1.433 . S
C381 N383 1.384 . S
N382 C378 1.427 . S
N382 C379 1.384 . S
N383 C375 1.427 . S
N383 C381 1.384 . S
H384 C390 0.930 . S
H385 C394 0.930 1_556 S
H386 C399 0.937 . S
H387 C397 0.929 . S
H388 C392 0.917 1_556 S
H389 C398 0.929 . S
C390 H384 0.930 . S
C390 C391 1.367 . S
C390 C398 1.378 . S
C391 C390 1.367 . S
C391 C399 1.433 . S
C392 H388 0.917 1_554 S
C392 C394 1.378 . S
C392 C396 1.350 . S
C393 C396 1.463 . S
C393 C398 1.350 . S
C393 N401 1.427 . S
C394 H385 0.930 1_554 S
C394 C392 1.378 . S
C394 C395 1.367 . S
C395 C394 1.367 . S
C395 C397 1.433 . S
C396 C392 1.350 . S
C396 C393 1.463 . S
C396 N400 1.427 . S
C397 H387 0.929 . S
C397 C395 1.433 . S
C397 N400 1.384 . S
C398 H389 0.929 . S
C398 C390 1.378 . S
C398 C393 1.350 . S
C399 H386 0.937 . S
C399 C391 1.433 . S
C399 N401 1.384 . S
N400 C396 1.427 . S
N400 C397 1.384 . S
N401 C393 1.427 . S
N401 C399 1.384 . S
H402 C408 0.930 1_556 S
H403 C412 0.930 . S
H404 C417 0.929 . S
H405 C415 0.929 . S
H406 C410 0.929 . S
H407 C416 0.929 1_556 S
C408 H402 0.930 1_554 S
C408 C409 1.367 . S
C408 C416 1.378 . S
C409 C408 1.367 . S
C409 C417 1.433 . S
C410 H406 0.929 . S
C410 C412 1.378 . S
C410 C414 1.350 . S
C411 C414 1.463 . S
C411 C416 1.350 . S
C411 N419 1.427 . S
C412 H403 0.930 . S
C412 C410 1.378 . S
C412 C413 1.367 . S
C413 C412 1.367 . S
C413 C415 1.433 1_554 S
C414 C410 1.350 . S
C414 C411 1.463 . S
C414 N418 1.427 . S
C415 H405 0.929 . S
C415 C413 1.433 1_556 S
C415 N418 1.384 1_556 S
C416 H407 0.929 1_554 S
C416 C408 1.378 . S
C416 C411 1.350 . S
C417 H404 0.929 . S
C417 C409 1.433 . S
C417 N419 1.384 . S
N418 C414 1.427 . S
N418 C415 1.384 1_554 S
N419 C411 1.427 . S
N419 C417 1.384 . S
H420 C426 0.930 . S
H421 C430 0.930 1_556 S
H422 C435 0.929 1_556 S
H423 C433 0.929 . S
H424 C428 0.929 1_556 S
H425 C434 0.929 . S
C426 H420 0.930 . S
C426 C427 1.367 . S
C426 C434 1.378 . S
C427 C426 1.367 . S
C427 C435 1.433 . S
C428 H424 0.929 1_554 S
C428 C430 1.378 . S
C428 C432 1.350 . S
C429 C432 1.463 . S
C429 C434 1.350 . S
C429 N437 1.427 . S
C430 H421 0.930 1_554 S
C430 C428 1.378 . S
C430 C431 1.367 . S
C431 C430 1.367 . S
C431 C433 1.433 . S
C432 C428 1.350 . S
C432 C429 1.463 . S
C432 N436 1.427 . S
C433 H423 0.929 . S
C433 C431 1.433 . S
C433 N436 1.384 . S
C434 H425 0.929 . S
C434 C426 1.378 . S
C434 C429 1.350 . S
C435 H422 0.929 1_554 S
C435 C427 1.433 . S
C435 N437 1.384 . S
N436 C432 1.427 . S
N436 C433 1.384 . S
N437 C429 1.427 . S
N437 C435 1.384 . S
H438 C444 0.930 . S
H439 C448 0.930 . S
H440 C453 0.929 . S
H441 C451 0.929 1_556 S
H442 C446 0.929 . S
H443 C452 0.929 1_556 S
C444 H438 0.930 . S
C444 C445 1.367 . S
C444 C452 1.378 . S
C445 C444 1.367 . S
C445 C453 1.433 . S
C446 H442 0.929 . S
C446 C448 1.378 . S
C446 C450 1.350 . S
C447 C450 1.463 . S
C447 C452 1.350 . S
C447 N455 1.427 . S
C448 H439 0.930 . S
C448 C446 1.378 . S
C448 C449 1.367 . S
C449 C448 1.367 . S
C449 C451 1.433 . S
C450 C446 1.350 . S
C450 C447 1.463 . S
C450 N454 1.427 . S
C451 H441 0.929 1_554 S
C451 C449 1.433 . S
C451 N454 1.384 . S
C452 H443 0.929 1_554 S
C452 C444 1.378 . S
C452 C447 1.350 . S
C453 H440 0.929 . S
C453 C445 1.433 . S
C453 N455 1.384 . S
N454 C450 1.427 . S
N454 C451 1.384 . S
N455 C447 1.427 . S
N455 C453 1.384 . S
H456 C462 0.930 . S
H457 C466 0.930 . S
H458 C471 0.929 . S
H459 C469 0.929 . S
H460 C464 0.929 . S
H461 C470 0.929 . S
C462 H456 0.930 . S
C462 C463 1.367 . S
C462 C470 1.378 . S
C463 C462 1.367 . S
C463 C471 1.433 . S
C464 H460 0.929 . S
C464 C466 1.378 . S
C464 C468 1.350 . S
C465 C468 1.463 . S
C465 C470 1.350 . S
C465 N473 1.427 . S
C466 H457 0.930 . S
C466 C464 1.378 . S
C466 C467 1.367 . S
C467 C466 1.367 . S
C467 C469 1.433 . S
C468 C464 1.350 . S
C468 C465 1.463 . S
C468 N472 1.427 . S
C469 H459 0.929 . S
C469 C467 1.433 . S
C469 N472 1.384 . S
C470 H461 0.929 . S
C470 C462 1.378 . S
C470 C465 1.350 . S
C471 H458 0.929 . S
C471 C463 1.433 . S
C471 N473 1.384 . S
N472 C468 1.427 . S
N472 C469 1.384 . S
N473 C465 1.427 . S
N473 C471 1.384 . S
C211 C20 1.310 . S
C215 C122 1.310 . S
C229 C156 1.464 . S
C233 C54 1.452 . S
C247 C190 1.330 . S
C251 C88 1.329 . S
C265 C9 1.423 . S
C269 C5 1.495 . S
C283 C39 1.501 . S
C287 C43 1.405 . S
C301 C73 1.501 . S
C305 C77 1.384 . S
C319 C111 1.407 . S
C323 C107 1.501 . S
C337 C141 1.489 . S
C341 C145 1.400 . S
C355 C175 1.501 . S
C359 C179 1.408 . S
C373 C2 1.035 . S
C377 C101 1.050 . S
C391 C67 1.128 . S
C395 C104 1.101 . S
C409 C70 1.060 . S
C413 C138 1.075 . S
C427 C135 0.924 . S
C431 C172 0.916 . S
C445 C33 0.903 . S
C449 C169 0.886 . S
C463 C36 1.213 . S
C467 C203 1.284 . S
