# Generated by pormake.
# Topology upa, (4)-cn, num edge types: 1
# Building blocks:
#     Node 0, Type 0, BuildingBlock: CEKHIL_clean_sbu_0, # of connection points: 4
#     Node 1, Type 0, BuildingBlock: CEKHIL_clean_sbu_0, # of connection points: 4
#     Node 2, Type 0, BuildingBlock: CEKHIL_clean_sbu_0, # of connection points: 4
#     Node 3, Type 0, BuildingBlock: CEKHIL_clean_sbu_0, # of connection points: 4
#     Node 4, Type 0, BuildingBlock: CEKHIL_clean_sbu_0, # of connection points: 4
#     Node 5, Type 0, BuildingBlock: CEKHIL_clean_sbu_0, # of connection points: 4
#     Node 6, Type 0, BuildingBlock: CEKHIL_clean_sbu_0, # of connection points: 4
#     Node 7, Type 0, BuildingBlock: CEKHIL_clean_sbu_0, # of connection points: 4
#     Edge 8, Type (0, 0), BuildingBlock: MIFKUJ_clean_linker_0, # of connection points: 2
#     Edge 9, Type (0, 0), BuildingBlock: MIFKUJ_clean_linker_0, # of connection points: 2
#     Edge 10, Type (0, 0), BuildingBlock: MIFKUJ_clean_linker_0, # of connection points: 2
#     Edge 11, Type (0, 0), BuildingBlock: MIFKUJ_clean_linker_0, # of connection points: 2
#     Edge 12, Type (0, 0), BuildingBlock: MIFKUJ_clean_linker_0, # of connection points: 2
#     Edge 13, Type (0, 0), BuildingBlock: MIFKUJ_clean_linker_0, # of connection points: 2
#     Edge 14, Type (0, 0), BuildingBlock: MIFKUJ_clean_linker_0, # of connection points: 2
#     Edge 15, Type (0, 0), BuildingBlock: MIFKUJ_clean_linker_0, # of connection points: 2
#     Edge 16, Type (0, 0), BuildingBlock: MIFKUJ_clean_linker_0, # of connection points: 2
#     Edge 17, Type (0, 0), BuildingBlock: MIFKUJ_clean_linker_0, # of connection points: 2
#     Edge 18, Type (0, 0), BuildingBlock: MIFKUJ_clean_linker_0, # of connection points: 2
#     Edge 19, Type (0, 0), BuildingBlock: MIFKUJ_clean_linker_0, # of connection points: 2
#     Edge 20, Type (0, 0), BuildingBlock: MIFKUJ_clean_linker_0, # of connection points: 2
#     Edge 21, Type (0, 0), BuildingBlock: MIFKUJ_clean_linker_0, # of connection points: 2
#     Edge 22, Type (0, 0), BuildingBlock: MIFKUJ_clean_linker_0, # of connection points: 2
#     Edge 23, Type (0, 0), BuildingBlock: MIFKUJ_clean_linker_0, # of connection points: 2
# Relax obj value: 0.234
# Max RMSD: 0.138
# Mean RMSD: 0.138
data_MOF--net-upa--node1-CEKHIL_clean_sbu_0--edge1-MIFKUJ_clean_linker_0
_symmetry_space_group_name_H-M    P1
_symmetry_Int_Tables_number       1
_symmetry_cell_setting            triclinic
loop_
_symmetry_equiv_pos_as_xyz
'x, y, z'
_cell_length_a     33.424089
_cell_length_b     33.393667
_cell_length_c     56.30358
_cell_angle_alpha  90.00551
_cell_angle_beta   90.080977
_cell_angle_gamma 89.961851
loop_
_atom_site_label
_atom_site_type_symbol
_atom_site_fract_x
_atom_site_fract_y
_atom_site_fract_z
_atom_type_partial_charge
Co0 Co 0.18244 0.23601 0.3324 0.0
O1 O 0.22687 0.26946 0.32275 0.0
O2 O 0.23026 0.20397 0.32786 0.0
C3 C 0.13566 0.26057 0.30689 0.0
O4 O 0.14329 0.19119 0.34038 0.0
Co5 Co 0.1057 0.27218 0.35507 0.0
O6 O 0.08298 0.21927 0.34645 0.0
C7 C 0.17718 0.26015 0.38521 0.0
C8 C 0.24806 0.23688 0.32153 0.0
C9 C 0.10504 0.18874 0.3428 0.0
O10 O 0.1957 0.2437 0.36756 0.0
O11 O 0.14229 0.27566 0.38321 0.0
O12 O 0.16235 0.23506 0.2997 0.0
O13 O 0.14145 0.27428 0.32812 0.0
Co14 Co 0.25979 0.67379 0.8345 0.0
O15 O 0.22739 0.71832 0.82359 0.0
O16 O 0.29252 0.72117 0.83004 0.0
C17 C 0.23646 0.62609 0.80923 0.0
O18 O 0.30354 0.63436 0.84396 0.0
Co19 Co 0.22069 0.59923 0.85806 0.0
O20 O 0.2747 0.57576 0.85371 0.0
C21 C 0.23228 0.67192 0.88686 0.0
C22 C 0.26018 0.73919 0.8229 0.0
C23 C 0.30555 0.59685 0.84923 0.0
O24 O 0.25068 0.68857 0.86927 0.0
O25 O 0.21533 0.63766 0.88524 0.0
O26 O 0.26231 0.65251 0.80215 0.0
O27 O 0.22146 0.63286 0.83004 0.0
Co28 Co 0.82259 0.76504 0.33281 0.0
O29 O 0.77628 0.73345 0.32382 0.0
O30 O 0.77625 0.79919 0.32856 0.0
C31 C 0.86789 0.73962 0.30681 0.0
O32 O 0.86381 0.80808 0.34049 0.0
Co33 Co 0.89833 0.72532 0.3547 0.0
O34 O 0.92285 0.77806 0.34775 0.0
C35 C 0.8285 0.74068 0.38554 0.0
C36 C 0.75671 0.76704 0.32271 0.0
C37 C 0.90193 0.80933 0.34388 0.0
O38 O 0.81011 0.75777 0.36805 0.0
O39 O 0.8626 0.72363 0.38324 0.0
O40 O 0.84152 0.76577 0.30001 0.0
O41 O 0.86207 0.72523 0.32789 0.0
Co42 Co 0.73736 0.32838 0.83356 0.0
O43 O 0.77044 0.28432 0.82279 0.0
O44 O 0.70561 0.28019 0.82989 0.0
C45 C 0.75878 0.37573 0.80746 0.0
O46 O 0.69296 0.36689 0.84318 0.0
Co47 Co 0.77462 0.40544 0.85537 0.0
O48 O 0.72034 0.42744 0.84968 0.0
C49 C 0.76499 0.3339 0.88575 0.0
C50 C 0.73811 0.26271 0.82259 0.0
C51 C 0.68999 0.40488 0.84676 0.0
O52 O 0.74816 0.31501 0.86836 0.0
O53 O 0.77976 0.36907 0.88353 0.0
O54 O 0.73312 0.34865 0.80101 0.0
O55 O 0.77458 0.37 0.82819 0.0
Co56 Co 0.68281 0.26609 0.18123 0.0
O57 O 0.72724 0.23289 0.19147 0.0
O58 O 0.73035 0.29828 0.18589 0.0
C59 C 0.63512 0.24258 0.20639 0.0
O60 O 0.64396 0.31062 0.17246 0.0
Co61 Co 0.60695 0.22923 0.15784 0.0
O62 O 0.58377 0.28193 0.16687 0.0
C63 C 0.67951 0.23982 0.12879 0.0
C64 C 0.74832 0.26556 0.19244 0.0
C65 C 0.60569 0.31262 0.17031 0.0
O66 O 0.69681 0.25775 0.14635 0.0
O67 O 0.64492 0.22357 0.13043 0.0
O68 O 0.6619 0.26796 0.21366 0.0
O69 O 0.6416 0.22801 0.18543 0.0
Co70 Co 0.23799 0.17391 0.68097 0.0
O71 O 0.27073 0.21795 0.6922 0.0
O72 O 0.20578 0.22172 0.68529 0.0
C73 C 0.26049 0.12591 0.70639 0.0
O74 O 0.19394 0.1352 0.67101 0.0
Co75 Co 0.27649 0.09864 0.65775 0.0
O76 O 0.22223 0.07583 0.66231 0.0
C77 C 0.26673 0.17168 0.62892 0.0
C78 C 0.2382 0.23928 0.69268 0.0
C79 C 0.19154 0.09757 0.66614 0.0
O80 O 0.24801 0.18863 0.6463 0.0
O81 O 0.28321 0.13718 0.63072 0.0
O82 O 0.23463 0.15248 0.71329 0.0
O83 O 0.27579 0.1325 0.68564 0.0
Co84 Co 0.32209 0.73654 0.18246 0.0
O85 O 0.27692 0.7693 0.19212 0.0
O86 O 0.27504 0.70366 0.18713 0.0
C87 C 0.36883 0.76077 0.20808 0.0
O88 O 0.36175 0.69236 0.17419 0.0
Co89 Co 0.39802 0.77444 0.15986 0.0
O90 O 0.42092 0.72028 0.16482 0.0
C91 C 0.32637 0.76238 0.12994 0.0
C92 C 0.25654 0.73623 0.19338 0.0
C93 C 0.3993 0.68977 0.16929 0.0
O94 O 0.3086 0.74453 0.14736 0.0
O95 O 0.3607 0.77901 0.13211 0.0
O96 O 0.34223 0.73506 0.21506 0.0
O97 O 0.36272 0.77527 0.18706 0.0
Co98 Co 0.76164 0.82848 0.67952 0.0
O99 O 0.72864 0.7855 0.69165 0.0
O100 O 0.7931 0.78004 0.68361 0.0
C101 C 0.74155 0.87752 0.70486 0.0
O102 O 0.80574 0.86613 0.66848 0.0
Co103 Co 0.72272 0.90336 0.65615 0.0
O104 O 0.77773 0.92527 0.6589 0.0
C105 C 0.73092 0.82981 0.62778 0.0
C106 C 0.76066 0.76343 0.69165 0.0
C107 C 0.80835 0.90334 0.66264 0.0
O108 O 0.74976 0.81312 0.64521 0.0
O109 O 0.71483 0.86452 0.62933 0.0
O110 O 0.76731 0.85063 0.71151 0.0
O111 O 0.72478 0.87061 0.68452 0.0
H112 H 0.13929 0.11448 0.34774 0.0
H113 H 0.10545 0.04949 0.34666 0.0
H114 H 0.99301 0.10871 0.33276 0.0
H115 H 0.02627 0.17352 0.33447 0.0
H116 H 0.98321 0.05537 0.36573 0.0
H117 H 0.04658 0.05641 0.28908 0.0
H118 H 0.10245 0.06113 0.26065 0.0
H119 H 0.15963 0.96026 0.29368 0.0
H120 H 0.1043 0.95517 0.32244 0.0
H121 H 0.86989 0.88332 0.33434 0.0
H122 H 0.90496 0.94751 0.33304 0.0
H123 H 0.01575 0.88827 0.35082 0.0
H124 H 0.9813 0.82404 0.35178 0.0
H125 H 0.02648 0.94108 0.31569 0.0
H126 H 0.96342 0.94085 0.39253 0.0
H127 H 0.90677 0.93524 0.42035 0.0
H128 H 0.84859 0.03459 0.38633 0.0
H129 H 0.90469 0.04046 0.3581 0.0
C130 C 0.1074 0.11358 0.34435 0.0
C131 C 0.08543 0.14914 0.34136 0.0
C132 C 0.08812 0.07642 0.34362 0.0
C133 C 0.0467 0.07419 0.33944 0.0
C134 C 0.02493 0.10967 0.33611 0.0
C135 C 0.04402 0.14673 0.33712 0.0
C136 C 0.02553 0.03516 0.33945 0.0
C137 C 0.99239 0.03059 0.35452 0.0
C138 C 0.03804 0.00245 0.32527 0.0
C139 C 0.07149 0.0057 0.30809 0.0
C140 C 0.07124 0.03545 0.29041 0.0
C141 C 0.10276 0.03812 0.27419 0.0
C142 C 0.13459 0.01103 0.27537 0.0
C143 C 0.13494 0.98119 0.29276 0.0
C144 C 0.1035 0.97839 0.30901 0.0
C145 C 0.90169 0.88392 0.33802 0.0
C146 C 0.92268 0.84849 0.34329 0.0
C147 C 0.92167 0.92066 0.33732 0.0
C148 C 0.96288 0.92267 0.34208 0.0
C149 C 0.98394 0.88737 0.3471 0.0
C150 C 0.96409 0.85067 0.34773 0.0
C151 C 0.9842 0.96153 0.34185 0.0
C152 C 0.01736 0.96598 0.32682 0.0
C153 C 0.97171 0.99419 0.35602 0.0
C154 C 0.93807 0.99084 0.37307 0.0
C155 C 0.93841 0.96132 0.39088 0.0
C156 C 0.90643 0.95812 0.40674 0.0
C157 C 0.87405 0.98448 0.40507 0.0
C158 C 0.87366 0.01416 0.38758 0.0
C159 C 0.90556 0.01746 0.37166 0.0
H160 H 0.84932 0.98195 0.41736 0.0
H161 H 0.15895 0.01313 0.26279 0.0
H162 H 0.37851 0.628 0.8367 0.0
H163 H 0.44309 0.59354 0.83643 0.0
H164 H 0.38668 0.48601 0.8624 0.0
H165 H 0.32222 0.5201 0.86297 0.0
H166 H 0.45509 0.49966 0.88546 0.0
H167 H 0.41184 0.49292 0.80533 0.0
H168 H 0.38676 0.51695 0.76669 0.0
H169 H 0.49183 0.58946 0.75817 0.0
H170 H 0.5173 0.5663 0.79696 0.0
H171 H 0.61736 0.36764 0.85172 0.0
H172 H 0.55117 0.39932 0.85297 0.0
H173 H 0.60573 0.51539 0.84467 0.0
H174 H 0.67184 0.48434 0.84361 0.0
H175 H 0.53751 0.49426 0.81226 0.0
H176 H 0.57783 0.49893 0.89517 0.0
H177 H 0.60127 0.46871 0.93265 0.0
H178 H 0.49828 0.39195 0.93393 0.0
H179 H 0.47453 0.42134 0.89623 0.0
C180 C 0.37983 0.59708 0.84246 0.0
C181 C 0.3451 0.57684 0.8498 0.0
C182 C 0.41673 0.57738 0.84216 0.0
C183 C 0.41955 0.5371 0.84915 0.0
C184 C 0.38514 0.51707 0.85691 0.0
C185 C 0.34827 0.53666 0.85715 0.0
C186 C 0.45841 0.51582 0.84843 0.0
C187 C 0.47286 0.4981 0.86937 0.0
C188 C 0.48162 0.51384 0.82744 0.0
C189 C 0.46623 0.52829 0.80423 0.0
C190 C 0.4294 0.51436 0.79535 0.0
C191 C 0.41515 0.52774 0.77339 0.0
C192 C 0.43761 0.55485 0.76003 0.0
C193 C 0.47441 0.56855 0.76858 0.0
C194 C 0.48878 0.55529 0.79055 0.0
C195 C 0.61527 0.3999 0.85017 0.0
C196 C 0.64986 0.42347 0.8476 0.0
C197 C 0.57751 0.41789 0.85094 0.0
C198 C 0.57384 0.45957 0.8489 0.0
C199 C 0.60815 0.48314 0.84628 0.0
C200 C 0.64587 0.4653 0.84577 0.0
C201 C 0.53413 0.47881 0.8493 0.0
C202 C 0.51957 0.49596 0.82828 0.0
C203 C 0.51048 0.47955 0.87005 0.0
C204 C 0.52467 0.46198 0.89274 0.0
C205 C 0.5604 0.47532 0.90331 0.0
C206 C 0.57369 0.45841 0.92462 0.0
C207 C 0.55135 0.42834 0.93562 0.0
C208 C 0.5156 0.4152 0.92536 0.0
C209 C 0.5022 0.43198 0.90403 0.0
H210 H 0.56168 0.41529 0.95213 0.0
H211 H 0.42656 0.56514 0.74301 0.0
H212 H 0.53535 0.32875 0.19166 0.0
H213 H 0.49942 0.39265 0.19279 0.0
H214 H 0.59629 0.44887 0.15469 0.0
H215 H 0.63237 0.38479 0.1538 0.0
H216 H 0.56936 0.49624 0.18966 0.0
H217 H 0.50984 0.4201 0.12606 0.0
H218 H 0.47703 0.36137 0.108 0.0
H219 H 0.37862 0.37333 0.15642 0.0
H220 H 0.41109 0.43189 0.17496 0.0
H221 H 0.47185 0.67004 0.15045 0.0
H222 H 0.50538 0.6053 0.15148 0.0
H223 H 0.40505 0.55444 0.18897 0.0
H224 H 0.37062 0.61917 0.18746 0.0
H225 H 0.43234 0.50372 0.15578 0.0
H226 H 0.49084 0.58069 0.2188 0.0
H227 H 0.52171 0.64153 0.23537 0.0
H228 H 0.62156 0.62823 0.18811 0.0
H229 H 0.59099 0.56741 0.17104 0.0
C230 C 0.5486 0.35475 0.18333 0.0
C231 C 0.5859 0.35184 0.17209 0.0
C232 C 0.52826 0.39119 0.18407 0.0
C233 C 0.54476 0.42529 0.17332 0.0
C234 C 0.5829 0.42282 0.16293 0.0
C235 C 0.60343 0.38632 0.1624 0.0
C236 C 0.52194 0.46333 0.17259 0.0
C237 C 0.53959 0.49796 0.18202 0.0
C238 C 0.48266 0.46534 0.16317 0.0
C239 C 0.46303 0.43021 0.152 0.0
C240 C 0.48132 0.41006 0.13295 0.0
C241 C 0.46275 0.37684 0.1226 0.0
C242 C 0.42574 0.36368 0.13104 0.0
C243 C 0.40724 0.38364 0.14987 0.0
C244 C 0.4257 0.41686 0.16029 0.0
C245 C 0.45677 0.64512 0.15888 0.0
C246 C 0.41865 0.64988 0.16905 0.0
C247 C 0.47608 0.60812 0.15952 0.0
C248 C 0.45808 0.57524 0.17073 0.0
C249 C 0.41956 0.5795 0.18033 0.0
C250 C 0.39996 0.61651 0.17947 0.0
C251 C 0.47987 0.53667 0.17268 0.0
C252 C 0.46203 0.50193 0.16353 0.0
C253 C 0.51892 0.5345 0.18241 0.0
C254 C 0.53842 0.56977 0.19348 0.0
C255 C 0.51935 0.59079 0.21191 0.0
C256 C 0.53677 0.62531 0.22137 0.0
C257 C 0.5734 0.63897 0.21263 0.0
C258 C 0.59307 0.6177 0.19475 0.0
C259 C 0.57575 0.58316 0.18521 0.0
H260 H 0.58654 0.66607 0.21965 0.0
H261 H 0.41138 0.33799 0.12298 0.0
H262 H 0.17496 0.0176 0.66454 0.0
H263 H 0.10969 0.98554 0.66227 0.0
H264 H 0.0524 0.10137 0.66205 0.0
H265 H 0.11785 0.13388 0.6649 0.0
H266 H 0.0145 0.05247 0.69084 0.0
H267 H 0.06033 0.04471 0.61094 0.0
H268 H 0.10723 0.0297 0.57837 0.0
H269 H 0.10428 0.90484 0.59649 0.0
H270 H 0.05778 0.91917 0.6294 0.0
H271 H 0.82577 0.98014 0.64952 0.0
H272 H 0.89103 0.01279 0.64934 0.0
H273 H 0.94726 0.90197 0.67005 0.0
H274 H 0.8818 0.86899 0.67098 0.0
H275 H 0.98433 0.94922 0.63 0.0
H276 H 0.93842 0.9599 0.71098 0.0
H277 H 0.89276 0.97767 0.74367 0.0
H278 H 0.89474 0.10078 0.72175 0.0
H279 H 0.93987 0.08362 0.68862 0.0
C280 C 0.14855 0.03639 0.6639 0.0
C281 C 0.15168 0.07838 0.66475 0.0
C282 C 0.11121 0.01795 0.6625 0.0
C283 C 0.07617 0.04104 0.66155 0.0
C284 C 0.07908 0.08296 0.66265 0.0
C285 C 0.1165 0.10149 0.66426 0.0
C286 C 0.03654 0.02124 0.66003 0.0
C287 C 0.0077 0.0304 0.67728 0.0
C288 C 0.02792 0.99187 0.64259 0.0
C289 C 0.05584 0.98308 0.62279 0.0
C290 C 0.06993 0.01409 0.6081 0.0
C291 C 0.0964 0.0057 0.58956 0.0
C292 C 0.1088 0.96636 0.5854 0.0
C293 C 0.09468 0.93531 0.59975 0.0
C294 C 0.06823 0.94354 0.61834 0.0
C295 C 0.85192 0.96255 0.65408 0.0
C296 C 0.8484 0.92204 0.66066 0.0
C297 C 0.88918 0.98133 0.65392 0.0
C298 C 0.92368 0.95984 0.65996 0.0
C299 C 0.92075 0.91901 0.66549 0.0
C300 C 0.88334 0.90027 0.66601 0.0
C301 C 0.96272 0.98042 0.66085 0.0
C302 C 0.99127 0.97144 0.64345 0.0
C303 C 0.97087 0.01035 0.67794 0.0
C304 C 0.94224 0.02038 0.69716 0.0
C305 C 0.92867 0.99065 0.7129 0.0
C306 C 0.90307 1.00066 0.7316 0.0
C307 C 0.89113 0.04038 0.73489 0.0
C308 C 0.90427 0.07008 0.71928 0.0
C309 C 0.92979 0.06021 0.70051 0.0
H310 H 0.87147 0.0481 0.74945 0.0
H311 H 0.12929 0.95993 0.57103 0.0
H312 H 0.24823 0.22529 0.39997 0.0
H313 H 0.27207 0.21688 0.44089 0.0
H314 H 0.16903 0.28128 0.4667 0.0
H315 H 0.14588 0.29091 0.42623 0.0
H316 H 0.22995 0.30133 0.49244 0.0
H317 H 0.17553 0.17509 0.46551 0.0
H318 H 0.17062 0.11642 0.43903 0.0
H319 H 0.29274 0.08574 0.45437 0.0
H320 H 0.29849 0.14453 0.48073 0.0
H321 H 0.21323 0.22663 0.6111 0.0
H322 H 0.20557 0.24766 0.56971 0.0
H323 H 0.31068 0.17984 0.55073 0.0
H324 H 0.31764 0.15773 0.59184 0.0
H325 H 0.25487 0.16307 0.52093 0.0
H326 H 0.30644 0.28711 0.55136 0.0
H327 H 0.3092 0.34517 0.57839 0.0
H328 H 0.19069 0.37976 0.55714 0.0
H329 H 0.18701 0.32161 0.5302 0.0
C330 C 0.23096 0.23818 0.41432 0.0
C331 C 0.19489 0.25852 0.40961 0.0
C332 C 0.24448 0.23308 0.4378 0.0
C333 C 0.222 0.24775 0.4571 0.0
C334 C 0.187 0.26953 0.45229 0.0
C335 C 0.17368 0.27489 0.42896 0.0
C336 C 0.23348 0.23921 0.48233 0.0
C337 C 0.23519 0.27104 0.49868 0.0
C338 C 0.24108 0.19985 0.4906 0.0
C339 C 0.23757 0.16442 0.47487 0.0
C340 C 0.2014 0.15596 0.46311 0.0
C341 C 0.19846 0.12268 0.44814 0.0
C342 C 0.23138 0.09744 0.44497 0.0
C343 C 0.26729 0.10536 0.45681 0.0
C344 C 0.2704 0.13864 0.47177 0.0
C345 C 0.23523 0.21691 0.59823 0.0
C346 C 0.26604 0.19043 0.60488 0.0
C347 C 0.23085 0.229 0.57447 0.0
C348 C 0.25765 0.21557 0.55689 0.0
C349 C 0.28941 0.19053 0.56378 0.0
C350 C 0.29349 0.17805 0.5874 0.0
C351 C 0.25118 0.22517 0.53116 0.0
C352 C 0.25021 0.19347 0.51471 0.0
C353 C 0.24405 0.26463 0.52287 0.0
C354 C 0.24636 0.29982 0.53889 0.0
C355 C 0.28088 0.30696 0.55256 0.0
C356 C 0.28262 0.33991 0.56785 0.0
C357 C 0.25011 0.36609 0.56952 0.0
C358 C 0.21584 0.35945 0.55584 0.0
C359 C 0.21393 0.32653 0.54053 0.0
H360 H 0.25151 0.39156 0.58138 0.0
H361 H 0.22905 0.07169 0.43337 0.0
H362 H 0.28159 0.73255 0.90255 0.0
H363 H 0.2917 0.75469 0.94362 0.0
H364 H 0.19825 0.67503 0.96698 0.0
H365 H 0.1877 0.65305 0.92611 0.0
H366 H 0.19601 0.74442 0.99196 0.0
H367 H 0.29465 0.64659 0.97054 0.0
H368 H 0.34867 0.61743 0.94627 0.0
H369 H 0.42233 0.72019 0.95999 0.0
H370 H 0.36845 0.75027 0.98406 0.0
H371 H 0.26024 0.72028 0.114 0.0
H372 H 0.23826 0.71149 0.0727 0.0
H373 H 0.33122 0.79157 0.0492 0.0
H374 H 0.35325 0.80055 0.09004 0.0
H375 H 0.33252 0.72305 0.02425 0.0
H376 H 0.23345 0.81944 0.04748 0.0
H377 H 0.17902 0.84683 0.07214 0.0
H378 H 0.10596 0.74471 0.05585 0.0
H379 H 0.1602 0.71641 0.03134 0.0
C380 C 0.26259 0.72033 0.91632 0.0
C381 C 0.23406 0.69069 0.91092 0.0
C382 C 0.2686 0.73284 0.93987 0.0
C383 C 0.24621 0.71604 0.95854 0.0
C384 C 0.21605 0.68836 0.95299 0.0
C385 C 0.21015 0.67572 0.92952 0.0
C386 C 0.25595 0.72505 0.98391 0.0
C387 C 0.22579 0.73945 0.99907 0.0
C388 C 0.29485 0.71893 0.99327 0.0
C389 C 0.32735 0.70089 0.97887 0.0
C390 C 0.32224 0.66313 0.96822 0.0
C391 C 0.35285 0.64641 0.95452 0.0
C392 C 0.38886 0.667 0.95153 0.0
C393 C 0.39438 0.70432 0.96228 0.0
C394 C 0.36382 0.72121 0.97596 0.0
C395 C 0.27555 0.73659 0.1001 0.0
C396 C 0.30873 0.76097 0.10552 0.0
C397 C 0.26295 0.73152 0.07644 0.0
C398 C 0.28317 0.75076 0.05773 0.0
C399 C 0.31527 0.77616 0.06323 0.0
C400 C 0.32775 0.78134 0.08673 0.0
C401 C 0.27272 0.74289 0.03232 0.0
C402 C 0.30278 0.72836 0.01715 0.0
C403 C 0.23371 0.74868 0.02307 0.0
C404 C 0.20105 0.76561 0.03778 0.0
C405 C 0.20591 0.80265 0.04933 0.0
C406 C 0.17506 0.81837 0.06324 0.0
C407 C 0.13909 0.79747 0.06562 0.0
C408 C 0.13386 0.76084 0.05403 0.0
C409 C 0.16464 0.74496 0.04011 0.0
H410 H 0.11524 0.80971 0.07639 0.0
H411 H 0.41253 0.654 0.94092 0.0
H412 H 0.78573 0.77601 0.61074 0.0
H413 H 0.79557 0.75582 0.56935 0.0
H414 H 0.68965 0.82097 0.54893 0.0
H415 H 0.67994 0.84196 0.59023 0.0
H416 H 0.70121 0.74366 0.52441 0.0
H417 H 0.76834 0.86754 0.54126 0.0
H418 H 0.81258 0.91232 0.56413 0.0
H419 H 0.91188 0.83356 0.55144 0.0
H420 H 0.868 0.78789 0.52883 0.0
H421 H 0.75518 0.77065 0.40014 0.0
H422 H 0.73193 0.78032 0.44116 0.0
H423 H 0.84113 0.72779 0.46749 0.0
H424 H 0.86428 0.71762 0.42704 0.0
H425 H 0.82445 0.80028 0.48865 0.0
H426 H 0.75776 0.67652 0.47155 0.0
H427 H 0.71352 0.63095 0.44925 0.0
H428 H 0.6137 0.70894 0.46215 0.0
H429 H 0.65752 0.75534 0.48426 0.0
C430 C 0.76391 0.78523 0.5976 0.0
C431 C 0.73212 0.81078 0.60386 0.0
C432 C 0.7697 0.77381 0.57389 0.0
C433 C 0.74353 0.78716 0.556 0.0
C434 C 0.7102 0.8103 0.56242 0.0
C435 C 0.70476 0.82233 0.58605 0.0
C436 C 0.75321 0.78027 0.53049 0.0
C437 C 0.72787 0.75641 0.51647 0.0
C438 C 0.7882 0.79656 0.52018 0.0
C439 C 0.81477 0.82405 0.53361 0.0
C440 C 0.79952 0.85956 0.54355 0.0
C441 C 0.82454 0.88514 0.55643 0.0
C442 C 0.86499 0.87572 0.5593 0.0
C443 C 0.88052 0.84076 0.54924 0.0
C444 C 0.85558 0.81502 0.53639 0.0
C445 C 0.77401 0.76068 0.41465 0.0
C446 C 0.81169 0.74338 0.41009 0.0
C447 C 0.76066 0.76622 0.43811 0.0
C448 C 0.78486 0.75489 0.45746 0.0
C449 C 0.82198 0.73694 0.45292 0.0
C450 C 0.83509 0.73099 0.42963 0.0
C451 C 0.77277 0.76317 0.4825 0.0
C452 C 0.79769 0.78753 0.49648 0.0
C453 C 0.73741 0.74733 0.49267 0.0
C454 C 0.71103 0.71967 0.47928 0.0
C455 C 0.72647 0.68419 0.46941 0.0
C456 C 0.70145 0.65816 0.45686 0.0
C457 C 0.66085 0.66712 0.45421 0.0
C458 C 0.64517 0.7021 0.46417 0.0
C459 C 0.67009 0.72827 0.47672 0.0
H460 H 0.64152 0.6469 0.44451 0.0
H461 H 0.88433 0.89558 0.56927 0.0
H462 H 0.79083 0.36854 0.92704 0.0
H463 H 0.7827 0.34463 0.96739 0.0
H464 H 0.72969 0.23549 0.94117 0.0
H465 H 0.73645 0.26007 0.90029 0.0
H466 H 0.68665 0.26335 0.97612 0.0
H467 H 0.82731 0.23997 0.9673 0.0
H468 H 0.89691 0.25734 0.95713 0.0
H469 H 0.89632 0.35051 0.00968 0.0
H470 H 0.82655 0.33406 0.01997 0.0
H471 H 0.67006 0.18656 0.09231 0.0
H472 H 0.69202 0.19393 0.05117 0.0
H473 H 0.75041 0.30507 0.0692 0.0
H474 H 0.73009 0.29674 0.11068 0.0
H475 H 0.7931 0.26918 0.03749 0.0
H476 H 0.65189 0.29839 0.04324 0.0
H477 H 0.58149 0.28394 0.05317 0.0
H478 H 0.58268 0.1827 1.00614 0.0
H479 H 0.65324 0.19629 0.99615 0.0
C480 C 0.77793 0.33914 0.92963 0.0
C481 C 0.76438 0.31627 0.91016 0.0
C482 C 0.7735 0.32534 0.95291 0.0
C483 C 0.75614 0.28787 0.95754 0.0
C484 C 0.74334 0.26446 0.93816 0.0
C485 C 0.74741 0.27847 0.91473 0.0
C486 C 0.74912 0.27468 0.98261 0.0
C487 C 0.7102 0.2638 0.9894 0.0
C488 C 0.77943 0.27629 1.00027 0.0
C489 C 0.8216 0.2859 0.99431 0.0
C490 C 0.84195 0.26429 0.97661 0.0
C491 C 0.88145 0.27396 0.97083 0.0
C492 C 0.901 0.30504 0.98273 0.0
C493 C 0.88114 0.32644 1.00048 0.0
C494 C 0.84164 0.3169 1.00632 0.0
C495 C 0.68818 0.21224 0.0876 0.0
C496 C 0.69811 0.24119 0.10479 0.0
C497 C 0.70044 0.21663 0.06397 0.0
C498 C 0.7219 0.25072 0.05674 0.0
C499 C 0.73366 0.2786 0.07415 0.0
C500 C 0.7221 0.27378 0.09794 0.0
C501 C 0.73056 0.25826 0.03101 0.0
C502 C 0.76972 0.2682 0.02413 0.0
C503 C 0.70042 0.25611 0.01327 0.0
C504 C 0.65793 0.24811 0.01914 0.0
C505 C 0.63719 0.27292 0.03513 0.0
C506 C 0.59726 0.2649 0.04075 0.0
C507 C 0.57766 0.23236 0.03034 0.0
C508 C 0.59791 0.20785 0.01422 0.0
C509 C 0.63786 0.21571 0.00856 0.0
H510 H 0.54675 0.22619 0.03473 0.0
H511 H 0.93157 0.31251 0.97821 0.0
H512 H 0.57056 0.19592 0.19394 0.0
H513 H 0.50495 0.19296 0.2133 0.0
H514 H 0.54498 0.27847 0.2656 0.0
H515 H 0.6106 0.28079 0.24671 0.0
H516 H 0.50532 0.22214 0.287 0.0
H517 H 0.47311 0.30754 0.21739 0.0
H518 H 0.46814 0.32266 0.17444 0.0
H519 H 0.40623 0.21192 0.16274 0.0
H520 H 0.40987 0.19663 0.20559 0.0
H521 H 0.2866 0.29823 0.29899 0.0
H522 H 0.35232 0.29694 0.27988 0.0
H523 H 0.36854 0.17435 0.30188 0.0
H524 H 0.30252 0.17528 0.32088 0.0
H525 H 0.3791 0.24758 0.24309 0.0
H526 H 0.47095 0.16302 0.31337 0.0
H527 H 0.4715 0.15163 0.35667 0.0
H528 H 0.41381 0.26502 0.36776 0.0
H529 H 0.41342 0.27731 0.32457 0.0
C530 C 0.56543 0.21388 0.20966 0.0
C531 C 0.59597 0.23849 0.21879 0.0
C532 C 0.52769 0.21251 0.22059 0.0
C533 C 0.51953 0.23597 0.2408 0.0
C534 C 0.55027 0.26006 0.25007 0.0
C535 C 0.58794 0.26132 0.23924 0.0
C536 C 0.47951 0.23504 0.25272 0.0
C537 C 0.47778 0.22761 0.2773 0.0
C538 C 0.44324 0.24207 0.24031 0.0
C539 C 0.44225 0.25073 0.21455 0.0
C540 C 0.45875 0.28632 0.20558 0.0
C541 C 0.45603 0.29499 0.18132 0.0
C542 C 0.43735 0.26809 0.16588 0.0
C543 C 0.42087 0.23265 0.17469 0.0
C544 C 0.42303 0.22408 0.19896 0.0
C545 C 0.30424 0.27106 0.29996 0.0
C546 C 0.28928 0.23688 0.31155 0.0
C547 C 0.34174 0.2703 0.28887 0.0
C548 C 0.36545 0.23558 0.28941 0.0
C549 C 0.35092 0.20157 0.30131 0.0
C550 C 0.31316 0.20216 0.31219 0.0
C551 C 0.40513 0.23499 0.27728 0.0
C552 C 0.4067 0.24195 0.25271 0.0
C553 C 0.44122 0.22761 0.28971 0.0
C554 C 0.44178 0.22084 0.31573 0.0
C555 C 0.45851 0.18556 0.32506 0.0
C556 C 0.45878 0.17895 0.34958 0.0
C557 C 0.44258 0.20752 0.36495 0.0
C558 C 0.42621 0.24284 0.35584 0.0
C559 C 0.4259 0.24961 0.33134 0.0
H560 H 0.44278 0.20232 0.38393 0.0
H561 H 0.43547 0.27477 0.14711 0.0
H562 H 0.31995 0.79512 0.82654 0.0
H563 H 0.32208 0.86211 0.80888 0.0
H564 H 0.20578 0.84236 0.77762 0.0
H565 H 0.2028 0.77637 0.79619 0.0
H566 H 0.3249 0.88911 0.767 0.0
H567 H 0.15519 0.92702 0.7686 0.0
H568 H 0.09595 0.91385 0.7935 0.0
H569 H 0.17169 0.89502 0.85415 0.0
H570 H 0.23132 0.90858 0.8297 0.0
H571 H 0.28963 0.0541 0.68985 0.0
H572 H 0.29123 0.98992 0.71064 0.0
H573 H 0.24725 0.04742 0.77414 0.0
H574 H 0.24299 0.11098 0.75282 0.0
H575 H 0.21056 0.98348 0.77105 0.0
H576 H 0.35019 0.01218 0.76494 0.0
H577 H 0.41349 0.02956 0.74498 0.0
H578 H 0.40534 0.92316 0.70242 0.0
H579 H 0.34173 0.90539 0.72193 0.0
C580 C 0.29463 0.8053 0.81614 0.0
C581 C 0.26103 0.78051 0.813 0.0
C582 C 0.29595 0.8436 0.8059 0.0
C583 C 0.26389 0.85792 0.79206 0.0
C584 C 0.23053 0.83283 0.78869 0.0
C585 C 0.2289 0.79487 0.79927 0.0
C586 C 0.26559 0.89865 0.78084 0.0
C587 C 0.29989 0.90975 0.76798 0.0
C588 C 0.23345 0.92628 0.78234 0.0
C589 C 0.19773 0.91843 0.79725 0.0
C590 C 0.15918 0.92022 0.78727 0.0
C591 C 0.12554 0.91266 0.8013 0.0
C592 C 0.13006 0.90348 0.82537 0.0
C593 C 0.16823 0.90198 0.83548 0.0
C594 C 0.20197 0.90956 0.82154 0.0
C595 C 0.28051 0.05312 0.70827 0.0
C596 C 0.26605 0.08772 0.71963 0.0
C597 C 0.28171 0.0163 0.72028 0.0
C598 C 0.26984 0.01343 0.74422 0.0
C599 C 0.2564 0.04838 0.7557 0.0
C600 C 0.25422 0.08491 0.74352 0.0
C601 C 0.26985 0.97402 0.75709 0.0
C602 C 0.23573 0.96302 0.77016 0.0
C603 C 0.30274 0.94713 0.75647 0.0
C604 C 0.34102 0.95765 0.74475 0.0
C605 C 0.36178 0.99263 0.75122 0.0
C606 C 0.39773 0.00252 0.74 0.0
C607 C 0.41338 0.97752 0.7224 0.0
C608 C 0.39316 0.94251 0.71603 0.0
C609 C 0.35718 0.93249 0.72718 0.0
H610 H 0.44121 0.98524 0.71374 0.0
H611 H 0.10398 0.89761 0.83619 0.0
H612 H 0.69614 0.71295 0.32875 0.0
H613 H 0.62904 0.71489 0.31132 0.0
H614 H 0.65859 0.82554 0.27571 0.0
H615 H 0.7242 0.82527 0.29493 0.0
H616 H 0.58804 0.83214 0.28588 0.0
H617 H 0.65673 0.72313 0.24869 0.0
H618 H 0.69396 0.65958 0.2453 0.0
H619 H 0.59754 0.59703 0.27927 0.0
H620 H 0.55995 0.66028 0.28314 0.0
H621 H 0.43187 0.81071 0.19754 0.0
H622 H 0.49682 0.81475 0.21789 0.0
H623 H 0.45797 0.72542 0.26807 0.0
H624 H 0.39325 0.72142 0.24802 0.0
H625 H 0.53253 0.709 0.24949 0.0
H626 H 0.46411 0.82284 0.28422 0.0
H627 H 0.42787 0.88715 0.28249 0.0
H628 H 0.5275 0.94143 0.2468 0.0
H629 H 0.56413 0.87729 0.24805 0.0
C630 C 0.68801 0.73785 0.3174 0.0
C631 C 0.71535 0.76894 0.31319 0.0
C632 C 0.64974 0.73876 0.30713 0.0
C633 C 0.63862 0.76975 0.29143 0.0
C634 C 0.66595 0.80118 0.28763 0.0
C635 C 0.70362 0.80101 0.29861 0.0
C636 C 0.59886 0.76949 0.2789 0.0
C637 C 0.57641 0.80517 0.27767 0.0
C638 C 0.58277 0.73446 0.26822 0.0
C639 C 0.60574 0.69654 0.26646 0.0
C640 C 0.64367 0.6959 0.25567 0.0
C641 C 0.66479 0.65991 0.25362 0.0
C642 C 0.64819 0.62432 0.26214 0.0
C643 C 0.61043 0.62464 0.27275 0.0
C644 C 0.5892 0.66054 0.27489 0.0
C645 C 0.43703 0.79228 0.21307 0.0
C646 C 0.40724 0.76587 0.22118 0.0
C647 C 0.47418 0.79463 0.22471 0.0
C648 C 0.48233 0.77049 0.24462 0.0
C649 C 0.45248 0.74435 0.25278 0.0
C650 C 0.41535 0.74225 0.24132 0.0
C651 C 0.52222 0.7713 0.25662 0.0
C652 C 0.54454 0.73575 0.25771 0.0
C653 C 0.53861 0.80658 0.26658 0.0
C654 C 0.5167 0.84518 0.26604 0.0
C655 C 0.47817 0.84842 0.27586 0.0
C656 C 0.45758 0.88486 0.27499 0.0
C657 C 0.47533 0.91833 0.26449 0.0
C658 C 0.51377 0.91547 0.25491 0.0
C659 C 0.53446 0.8791 0.25571 0.0
H660 H 0.45934 0.9465 0.26383 0.0
H661 H 0.66453 0.59648 0.26046 0.0
H662 H 0.67557 0.20952 0.82112 0.0
H663 H 0.67406 0.14332 0.80234 0.0
H664 H 0.79807 0.15616 0.78275 0.0
H665 H 0.79975 0.2223 0.80141 0.0
H666 H 0.75542 0.12966 0.74585 0.0
H667 H 0.77097 0.09413 0.82746 0.0
H668 H 0.75476 0.09366 0.87017 0.0
H669 H 0.64002 0.04185 0.85492 0.0
H670 H 0.65533 0.04254 0.81206 0.0
H671 H 0.77467 0.89778 0.74753 0.0
H672 H 0.77159 0.9621 0.76811 0.0
H673 H 0.69572 0.0091 0.7127 0.0
H674 H 0.69892 0.94462 0.69188 0.0
H675 H 0.71382 0.00555 0.78741 0.0
H676 H 0.71938 0.10865 0.70427 0.0
H677 H 0.74837 0.1096 0.66394 0.0
H678 H 0.83852 0.02572 0.68594 0.0
H679 H 0.80916 0.02311 0.72587 0.0
C680 C 0.70264 0.1981 0.81301 0.0
C681 C 0.73781 0.22126 0.81284 0.0
C682 C 0.70174 0.16018 0.80228 0.0
C683 C 0.73598 0.14457 0.79112 0.0
C684 C 0.77121 0.16751 0.79115 0.0
C685 C 0.77219 0.20529 0.80197 0.0
C686 C 0.73496 0.10479 0.77895 0.0
C687 C 0.74596 0.10262 0.75492 0.0
C688 C 0.72349 0.06919 0.7908 0.0
C689 C 0.71411 0.06883 0.81654 0.0
C690 C 0.74213 0.08299 0.8332 0.0
C691 C 0.73314 0.08261 0.85744 0.0
C692 C 0.69633 0.06785 0.86525 0.0
C693 C 0.66848 0.05335 0.84884 0.0
C694 C 0.67731 0.0537 0.82457 0.0
C695 C 0.75705 0.92167 0.73976 0.0
C696 C 0.73707 0.91597 0.718 0.0
C697 C 0.75523 0.95849 0.75162 0.0
C698 C 0.73363 0.99072 0.74197 0.0
C699 C 0.71295 0.98491 0.72045 0.0
C700 C 0.71464 0.94793 0.70859 0.0
C701 C 0.73376 0.03051 0.7542 0.0
C702 C 0.72259 0.03271 0.77823 0.0
C703 C 0.746 0.06603 0.74252 0.0
C704 C 0.762 0.06555 0.71801 0.0
C705 C 0.74515 0.09011 0.70036 0.0
C706 C 0.76152 0.09075 0.67751 0.0
C707 C 0.79507 0.0674 0.67224 0.0
C708 C 0.81213 0.04321 0.68978 0.0
C709 C 0.79552 0.04197 0.71249 0.0
H710 H 0.80798 0.0682 0.65462 0.0
H711 H 0.68943 0.06756 0.88403 0.0
H712 H 0.11636 0.23383 0.26241 0.0
H713 H 0.05155 0.23793 0.24223 0.0
H714 H 0.00291 0.30296 0.30171 0.0
H715 H 0.06782 0.29942 0.32189 0.0
H716 H 0.95369 0.24104 0.28748 0.0
H717 H 0.02144 0.3519 0.2519 0.0
H718 H 0.07639 0.38617 0.23099 0.0
H719 H 0.06005 0.30913 0.17069 0.0
H720 H 0.00532 0.27401 0.19139 0.0
H721 H 0.79762 0.33018 0.1988 0.0
H722 H 0.86375 0.33152 0.21748 0.0
H723 H 0.8595 0.20332 0.22637 0.0
H724 H 0.79303 0.20187 0.20807 0.0
H725 H 0.93464 0.30035 0.20746 0.0
H726 H 0.90733 0.17738 0.27778 0.0
H727 H 0.85135 0.14751 0.30013 0.0
H728 H 0.78477 0.25699 0.2936 0.0
H729 H 0.84056 0.28768 0.27151 0.0
C730 C 0.09202 0.24943 0.2711 0.0
C731 C 0.09735 0.26628 0.2938 0.0
C732 C 0.05494 0.25174 0.25952 0.0
C733 C 0.02227 0.27077 0.27042 0.0
C734 C 0.02761 0.28803 0.29296 0.0
C735 C 0.06484 0.28613 0.30444 0.0
C736 C 0.98233 0.27178 0.25853 0.0
C737 C 0.94955 0.25398 0.26997 0.0
C738 C 0.97668 0.28904 0.2358 0.0
C739 C 0.00955 0.31007 0.22329 0.0
C740 C 0.0298 0.34203 0.23426 0.0
C741 C 0.06086 0.36166 0.22243 0.0
C742 C 0.07178 0.34976 0.19955 0.0
C743 C 0.05159 0.31827 0.18843 0.0
C744 C 0.02052 0.29852 0.2002 0.0
C745 C 0.81083 0.30221 0.20459 0.0
C746 C 0.78986 0.26593 0.20202 0.0
C747 C 0.84875 0.30302 0.21526 0.0
C748 C 0.86657 0.26762 0.22369 0.0
C749 C 0.84621 0.23117 0.22044 0.0
C750 C 0.80823 0.23035 0.20983 0.0
C751 C 0.90601 0.26903 0.23624 0.0
C752 C 0.93875 0.28726 0.22493 0.0
C753 C 0.91151 0.25259 0.25924 0.0
C754 C 0.87797 0.23465 0.27278 0.0
C755 C 0.8808 0.19511 0.28119 0.0
C756 C 0.8491 0.17804 0.2938 0.0
C757 C 0.81447 0.20029 0.29821 0.0
C758 C 0.81155 0.23973 0.2901 0.0
C759 C 0.84318 0.25697 0.27751 0.0
H760 H 0.78995 0.187 0.30795 0.0
H761 H 0.09583 0.36501 0.19041 0.0
H762 H 0.17878 0.29564 0.68914 0.0
H763 H 0.17694 0.36248 0.70699 0.0
H764 H 0.29328 0.342 0.73806 0.0
H765 H 0.29594 0.27607 0.71934 0.0
H766 H 0.17417 0.38843 0.74908 0.0
H767 H 0.34359 0.42813 0.74778 0.0
H768 H 0.4032 0.41596 0.72302 0.0
H769 H 0.32817 0.39559 0.66223 0.0
H770 H 0.26816 0.40822 0.68654 0.0
H771 H 0.2079 0.55426 0.82609 0.0
H772 H 0.20704 0.4898 0.80555 0.0
H773 H 0.25019 0.54702 0.74179 0.0
H774 H 0.25372 0.61085 0.76283 0.0
H775 H 0.28781 0.48351 0.74528 0.0
H776 H 0.14754 0.51097 0.75138 0.0
H777 H 0.08425 0.5277 0.77157 0.0
H778 H 0.09424 0.42154 0.81421 0.0
H779 H 0.15784 0.40442 0.79445 0.0
C780 C 0.20417 0.30561 0.69954 0.0
C781 C 0.23765 0.2806 0.70262 0.0
C782 C 0.20302 0.34383 0.70988 0.0
C783 C 0.23515 0.35789 0.72376 0.0
C784 C 0.26846 0.33264 0.727 0.0
C785 C 0.2699 0.29473 0.71633 0.0
C786 C 0.2334 0.39842 0.73522 0.0
C787 C 0.19904 0.40922 0.74814 0.0
C788 C 0.26542 0.42619 0.73387 0.0
C789 C 0.30135 0.41864 0.71907 0.0
C790 C 0.33982 0.42114 0.72912 0.0
C791 C 0.37368 0.41417 0.71516 0.0
C792 C 0.36947 0.40485 0.69109 0.0
C793 C 0.33139 0.40264 0.6809 0.0
C794 C 0.29743 0.40965 0.69477 0.0
C795 C 0.21697 0.55315 0.80766 0.0
C796 C 0.23099 0.58776 0.79614 0.0
C797 C 0.21621 0.51617 0.7958 0.0
C798 C 0.2281 0.51315 0.77186 0.0
C799 C 0.24105 0.5481 0.76023 0.0
C800 C 0.24279 0.58478 0.77225 0.0
C801 C 0.22855 0.47363 0.75913 0.0
C802 C 0.26281 0.46287 0.74611 0.0
C803 C 0.19592 0.44649 0.75974 0.0
C804 C 0.15761 0.45661 0.77158 0.0
C805 C 0.13635 0.49133 0.76516 0.0
C806 C 0.10041 0.50086 0.77651 0.0
C807 C 0.08528 0.47574 0.7942 0.0
C808 C 0.10601 0.44098 0.80052 0.0
C809 C 0.14198 0.43133 0.78924 0.0
H810 H 0.05746 0.48318 0.80298 0.0
H811 H 0.39572 0.39944 0.68032 0.0
H812 H 0.1982 0.79371 0.19046 0.0
H813 H 0.13159 0.79255 0.2085 0.0
H814 H 0.15756 0.67678 0.23911 0.0
H815 H 0.22256 0.67662 0.21936 0.0
H816 H 0.08726 0.67363 0.22839 0.0
H817 H 0.15858 0.77547 0.27035 0.0
H818 H 0.19794 0.83715 0.27618 0.0
H819 H 0.10287 0.90695 0.2458 0.0
H820 H 0.06319 0.84559 0.23938 0.0
H821 H 0.93039 0.68847 0.31662 0.0
H822 H 0.99598 0.68589 0.29699 0.0
H823 H 0.95878 0.77926 0.24892 0.0
H824 H 0.89337 0.7817 0.26816 0.0
H825 H 0.03411 0.79325 0.26989 0.0
H826 H 0.96391 0.6855 0.22946 0.0
H827 H 0.92625 0.62203 0.22823 0.0
H828 H 0.02371 0.56144 0.26267 0.0
H829 H 0.06173 0.62469 0.26438 0.0
C830 C 0.1894 0.76791 0.20088 0.0
C831 C 0.21553 0.73523 0.20346 0.0
C832 C 0.15143 0.76741 0.21149 0.0
C833 C 0.13938 0.73503 0.22588 0.0
C834 C 0.1656 0.70222 0.22819 0.0
C835 C 0.20294 0.70212 0.21689 0.0
C836 C 0.09956 0.73489 0.23829 0.0
C837 C 0.07621 0.69977 0.23775 0.0
C838 C 0.08418 0.76888 0.25046 0.0
C839 C 0.10811 0.80583 0.25412 0.0
C840 C 0.14621 0.80392 0.26471 0.0
C841 C 0.16855 0.83883 0.26814 0.0
C842 C 0.15298 0.87591 0.26126 0.0
C843 C 0.11494 0.87818 0.25103 0.0
C844 C 0.09252 0.84334 0.24749 0.0
C845 C 0.93604 0.70808 0.30168 0.0
C846 C 0.90649 0.73513 0.29391 0.0
C847 C 0.97356 0.70663 0.29049 0.0
C848 C 0.98236 0.7324 0.27144 0.0
C849 C 0.95278 0.75915 0.26359 0.0
C850 C 0.91524 0.7603 0.27455 0.0
C851 C 0.02252 0.73224 0.25986 0.0
C852 C 0.04568 0.76727 0.26057 0.0
C853 C 0.03824 0.69792 0.24849 0.0
C854 C 0.01549 0.65989 0.24724 0.0
C855 C 0.97718 0.6587 0.23692 0.0
C856 C 0.95579 0.62276 0.23611 0.0
C857 C 0.97253 0.58775 0.24542 0.0
C858 C 0.01075 0.58858 0.25549 0.0
C859 C 0.03225 0.62446 0.25636 0.0
H860 H 0.95592 0.55996 0.24478 0.0
H861 H 0.17036 0.90287 0.26389 0.0
H862 H 0.79675 0.44471 0.82152 0.0
H863 H 0.79708 0.50956 0.80133 0.0
H864 H 0.73126 0.45824 0.74281 0.0
H865 H 0.72942 0.39386 0.76341 0.0
H866 H 0.82587 0.53857 0.76329 0.0
H867 H 0.67142 0.52686 0.71623 0.0
H868 H 0.60487 0.49675 0.7225 0.0
H869 H 0.62561 0.49407 0.79767 0.0
H870 H 0.69213 0.52451 0.79197 0.0
H871 H 0.81277 0.70174 0.68262 0.0
H872 H 0.81324 0.63487 0.70051 0.0
H873 H 0.71049 0.66676 0.7429 0.0
H874 H 0.70847 0.73238 0.72387 0.0
H875 H 0.70023 0.59637 0.73126 0.0
H876 H 0.81482 0.66288 0.76414 0.0
H877 H 0.87887 0.69954 0.76335 0.0
H878 H 0.93417 0.60175 0.72628 0.0
H879 H 0.87031 0.56471 0.7266 0.0
C880 C 0.78242 0.44719 0.80433 0.0
C881 C 0.76275 0.4141 0.79421 0.0
C882 C 0.78268 0.48437 0.79273 0.0
C883 C 0.76354 0.48933 0.77064 0.0
C884 C 0.74534 0.45577 0.76008 0.0
C885 C 0.74462 0.41876 0.77181 0.0
C886 C 0.76252 0.5295 0.75878 0.0
C887 C 0.79833 0.55114 0.7563 0.0
C888 C 0.72661 0.54662 0.74993 0.0
C889 C 0.68698 0.52755 0.75361 0.0
C890 C 0.6618 0.51982 0.73411 0.0
C891 C 0.62408 0.50271 0.73759 0.0
C892 C 0.61111 0.49337 0.7605 0.0
C893 C 0.63584 0.50113 0.77998 0.0
C894 C 0.67358 0.51824 0.77663 0.0
C895 C 0.79016 0.69429 0.69564 0.0
C896 C 0.76059 0.72236 0.70182 0.0
C897 C 0.79063 0.6561 0.70608 0.0
C898 C 0.76242 0.64559 0.72358 0.0
C899 C 0.73263 0.67368 0.72949 0.0
C900 C 0.73152 0.71137 0.71861 0.0
C901 C 0.7636 0.6056 0.73576 0.0
C902 C 0.72781 0.58385 0.73821 0.0
C903 C 0.79927 0.58906 0.74534 0.0
C904 C 0.83771 0.61121 0.74519 0.0
C905 C 0.84059 0.64931 0.75569 0.0
C906 C 0.87686 0.67014 0.75535 0.0
C907 C 0.91054 0.65302 0.74472 0.0
C908 C 0.90804 0.61499 0.73447 0.0
C909 C 0.87184 0.59406 0.73475 0.0
H910 H 0.93858 0.6692 0.74446 0.0
H911 H 0.58186 0.48025 0.76318 0.0
loop_
_geom_bond_atom_site_label_1
_geom_bond_atom_site_label_2
_geom_bond_distance
_geom_bond_site_symmetry_2
_ccdc_geom_bond_type
Co0 O1 2.216 . S
Co0 O2 2.091 . S
Co0 O4 2.004 . S
Co0 O10 2.021 . S
Co0 O12 2.137 . S
Co0 O13 2.244 . S
O1 Co0 2.216 . S
O1 C8 1.247 . S
O2 Co0 2.091 . S
O2 C8 1.261 . S
C3 O12 1.247 . S
C3 O13 1.272 . S
O4 Co0 2.004 . S
O4 C9 1.259 . S
Co5 O6 2.061 . S
Co5 O11 2.052 . S
Co5 O13 2.135 . S
O6 Co5 2.061 . S
O6 C9 1.235 . S
C7 O10 1.238 . S
C7 O11 1.241 . S
C8 O1 1.247 . S
C8 O2 1.261 . S
C9 O4 1.259 . S
C9 O6 1.235 . S
O10 Co0 2.021 . S
O10 C7 1.238 . S
O11 Co5 2.052 . S
O11 C7 1.241 . S
O12 Co0 2.137 . S
O12 C3 1.247 . S
O13 Co0 2.244 . S
O13 C3 1.272 . S
O13 Co5 2.135 . S
Co14 O15 2.216 . S
Co14 O16 2.091 . S
Co14 O18 2.004 . S
Co14 O24 2.021 . S
Co14 O26 2.137 . S
Co14 O27 2.244 . S
O15 Co14 2.216 . S
O15 C22 1.247 . S
O16 Co14 2.091 . S
O16 C22 1.261 . S
C17 O26 1.247 . S
C17 O27 1.272 . S
O18 Co14 2.004 . S
O18 C23 1.259 . S
Co19 O20 2.061 . S
Co19 O25 2.052 . S
Co19 O27 2.135 . S
O20 Co19 2.061 . S
O20 C23 1.235 . S
C21 O24 1.238 . S
C21 O25 1.241 . S
C22 O15 1.247 . S
C22 O16 1.261 . S
C23 O18 1.259 . S
C23 O20 1.235 . S
O24 Co14 2.021 . S
O24 C21 1.238 . S
O25 Co19 2.052 . S
O25 C21 1.241 . S
O26 Co14 2.137 . S
O26 C17 1.247 . S
O27 Co14 2.244 . S
O27 C17 1.272 . S
O27 Co19 2.135 . S
Co28 O29 2.216 . S
Co28 O30 2.091 . S
Co28 O32 2.004 . S
Co28 O38 2.021 . S
Co28 O40 2.137 . S
Co28 O41 2.244 . S
O29 Co28 2.216 . S
O29 C36 1.247 . S
O30 Co28 2.091 . S
O30 C36 1.261 . S
C31 O40 1.247 . S
C31 O41 1.272 . S
O32 Co28 2.004 . S
O32 C37 1.259 . S
Co33 O34 2.061 . S
Co33 O39 2.052 . S
Co33 O41 2.135 . S
O34 Co33 2.061 . S
O34 C37 1.235 . S
C35 O38 1.238 . S
C35 O39 1.241 . S
C36 O29 1.247 . S
C36 O30 1.261 . S
C37 O32 1.259 . S
C37 O34 1.235 . S
O38 Co28 2.021 . S
O38 C35 1.238 . S
O39 Co33 2.052 . S
O39 C35 1.241 . S
O40 Co28 2.137 . S
O40 C31 1.247 . S
O41 Co28 2.244 . S
O41 C31 1.272 . S
O41 Co33 2.135 . S
Co42 O43 2.216 . S
Co42 O44 2.091 . S
Co42 O46 2.004 . S
Co42 O52 2.021 . S
Co42 O54 2.137 . S
Co42 O55 2.244 . S
O43 Co42 2.216 . S
O43 C50 1.247 . S
O44 Co42 2.091 . S
O44 C50 1.261 . S
C45 O54 1.247 . S
C45 O55 1.272 . S
O46 Co42 2.004 . S
O46 C51 1.259 . S
Co47 O48 2.061 . S
Co47 O53 2.052 . S
Co47 O55 2.135 . S
O48 Co47 2.061 . S
O48 C51 1.235 . S
C49 O52 1.238 . S
C49 O53 1.241 . S
C50 O43 1.247 . S
C50 O44 1.261 . S
C51 O46 1.259 . S
C51 O48 1.235 . S
O52 Co42 2.021 . S
O52 C49 1.238 . S
O53 Co47 2.052 . S
O53 C49 1.241 . S
O54 Co42 2.137 . S
O54 C45 1.247 . S
O55 Co42 2.244 . S
O55 C45 1.272 . S
O55 Co47 2.135 . S
Co56 O57 2.216 . S
Co56 O58 2.091 . S
Co56 O60 2.004 . S
Co56 O66 2.021 . S
Co56 O68 2.137 . S
Co56 O69 2.244 . S
O57 Co56 2.216 . S
O57 C64 1.247 . S
O58 Co56 2.091 . S
O58 C64 1.261 . S
C59 O68 1.247 . S
C59 O69 1.272 . S
O60 Co56 2.004 . S
O60 C65 1.259 . S
Co61 O62 2.061 . S
Co61 O67 2.052 . S
Co61 O69 2.135 . S
O62 Co61 2.061 . S
O62 C65 1.235 . S
C63 O66 1.238 . S
C63 O67 1.241 . S
C64 O57 1.247 . S
C64 O58 1.261 . S
C65 O60 1.259 . S
C65 O62 1.235 . S
O66 Co56 2.021 . S
O66 C63 1.238 . S
O67 Co61 2.052 . S
O67 C63 1.241 . S
O68 Co56 2.137 . S
O68 C59 1.247 . S
O69 Co56 2.244 . S
O69 C59 1.272 . S
O69 Co61 2.135 . S
Co70 O71 2.216 . S
Co70 O72 2.091 . S
Co70 O74 2.004 . S
Co70 O80 2.021 . S
Co70 O82 2.137 . S
Co70 O83 2.244 . S
O71 Co70 2.216 . S
O71 C78 1.247 . S
O72 Co70 2.091 . S
O72 C78 1.261 . S
C73 O82 1.247 . S
C73 O83 1.272 . S
O74 Co70 2.004 . S
O74 C79 1.259 . S
Co75 O76 2.061 . S
Co75 O81 2.052 . S
Co75 O83 2.135 . S
O76 Co75 2.061 . S
O76 C79 1.235 . S
C77 O80 1.238 . S
C77 O81 1.241 . S
C78 O71 1.247 . S
C78 O72 1.261 . S
C79 O74 1.259 . S
C79 O76 1.235 . S
O80 Co70 2.021 . S
O80 C77 1.238 . S
O81 Co75 2.052 . S
O81 C77 1.241 . S
O82 Co70 2.137 . S
O82 C73 1.247 . S
O83 Co70 2.244 . S
O83 C73 1.272 . S
O83 Co75 2.135 . S
Co84 O85 2.216 . S
Co84 O86 2.091 . S
Co84 O88 2.004 . S
Co84 O94 2.021 . S
Co84 O96 2.137 . S
Co84 O97 2.244 . S
O85 Co84 2.216 . S
O85 C92 1.247 . S
O86 Co84 2.091 . S
O86 C92 1.261 . S
C87 O96 1.247 . S
C87 O97 1.272 . S
O88 Co84 2.004 . S
O88 C93 1.259 . S
Co89 O90 2.061 . S
Co89 O95 2.052 . S
Co89 O97 2.135 . S
O90 Co89 2.061 . S
O90 C93 1.235 . S
C91 O94 1.238 . S
C91 O95 1.241 . S
C92 O85 1.247 . S
C92 O86 1.261 . S
C93 O88 1.259 . S
C93 O90 1.235 . S
O94 Co84 2.021 . S
O94 C91 1.238 . S
O95 Co89 2.052 . S
O95 C91 1.241 . S
O96 Co84 2.137 . S
O96 C87 1.247 . S
O97 Co84 2.244 . S
O97 C87 1.272 . S
O97 Co89 2.135 . S
Co98 O99 2.216 . S
Co98 O100 2.091 . S
Co98 O102 2.004 . S
Co98 O108 2.021 . S
Co98 O110 2.137 . S
Co98 O111 2.244 . S
O99 Co98 2.216 . S
O99 C106 1.247 . S
O100 Co98 2.091 . S
O100 C106 1.261 . S
C101 O110 1.247 . S
C101 O111 1.272 . S
O102 Co98 2.004 . S
O102 C107 1.259 . S
Co103 O104 2.061 . S
Co103 O109 2.052 . S
Co103 O111 2.135 . S
O104 Co103 2.061 . S
O104 C107 1.235 . S
C105 O108 1.238 . S
C105 O109 1.241 . S
C106 O99 1.247 . S
C106 O100 1.261 . S
C107 O102 1.259 . S
C107 O104 1.235 . S
O108 Co98 2.021 . S
O108 C105 1.238 . S
O109 Co103 2.052 . S
O109 C105 1.241 . S
O110 Co98 2.137 . S
O110 C101 1.247 . S
O111 Co98 2.244 . S
O111 C101 1.272 . S
O111 Co103 2.135 . S
H112 C130 0.951 . S
H113 C132 0.951 . S
H114 C134 0.950 . S
H115 C135 0.950 . S
H116 C137 0.950 . S
H117 C140 0.950 . S
H118 C141 0.950 . S
H119 C143 0.950 . S
H120 C144 0.950 . S
H121 C145 0.951 . S
H122 C147 0.951 . S
H123 C149 0.950 . S
H124 C150 0.950 . S
H125 C152 0.950 . S
H126 C155 0.950 . S
H127 C156 0.950 . S
H128 C158 0.950 . S
H129 C159 0.950 . S
C130 H112 0.951 . S
C130 C131 1.366 . S
C130 C132 1.388 . S
C131 C130 1.366 . S
C131 C135 1.385 . S
C132 H113 0.951 . S
C132 C130 1.388 . S
C132 C133 1.366 . S
C133 C132 1.366 . S
C133 C134 1.414 . S
C133 C136 1.499 . S
C134 H114 0.950 . S
C134 C133 1.414 . S
C134 C135 1.374 . S
C135 H115 0.950 . S
C135 C131 1.385 . S
C135 C134 1.374 . S
C136 C133 1.499 . S
C136 C137 1.373 1_455 S
C136 C138 1.389 1_545 S
C137 H116 0.950 . S
C137 C136 1.373 1_655 S
C137 C153 1.377 . S
C138 C136 1.389 1_565 S
C138 C139 1.524 . S
C138 C152 1.377 . S
C139 C138 1.524 . S
C139 C140 1.397 1_565 S
C139 C144 1.363 . S
C140 H117 0.950 . S
C140 C139 1.397 1_545 S
C140 C141 1.334 . S
C141 H118 0.950 . S
C141 C140 1.334 . S
C141 C142 1.287 1_545 S
C142 C141 1.287 1_565 S
C142 C143 1.524 . S
C142 H161 0.913 . S
C143 H119 0.950 . S
C143 C142 1.524 . S
C143 C144 1.415 . S
C144 H120 0.950 . S
C144 C139 1.363 . S
C144 C143 1.415 . S
C145 H121 0.951 . S
C145 C146 1.366 . S
C145 C147 1.388 . S
C146 C145 1.366 . S
C146 C150 1.385 . S
C147 H122 0.951 . S
C147 C145 1.388 . S
C147 C148 1.366 . S
C148 C147 1.366 . S
C148 C149 1.414 . S
C148 C151 1.499 . S
C149 H123 0.950 . S
C149 C148 1.414 . S
C149 C150 1.374 . S
C150 H124 0.950 . S
C150 C146 1.385 . S
C150 C149 1.374 . S
C151 C148 1.499 . S
C151 C152 1.373 1_655 S
C151 C153 1.389 1_565 S
C152 H125 0.950 . S
C152 C138 1.377 . S
C152 C151 1.373 1_455 S
C153 C137 1.377 . S
C153 C151 1.389 1_545 S
C153 C154 1.524 . S
C154 C153 1.524 . S
C154 C155 1.397 1_545 S
C154 C159 1.363 . S
C155 H126 0.950 . S
C155 C154 1.397 1_565 S
C155 C156 1.334 . S
C156 H127 0.950 . S
C156 C155 1.334 . S
C156 C157 1.287 1_565 S
C157 C156 1.287 1_545 S
C157 C158 1.524 . S
C157 H160 0.999 . S
C158 H128 0.950 . S
C158 C157 1.524 . S
C158 C159 1.415 . S
C159 H129 0.950 . S
C159 C154 1.363 . S
C159 C158 1.415 . S
H160 C157 0.999 . S
H161 C142 0.913 . S
H162 C180 0.951 . S
H163 C182 0.951 . S
H164 C184 0.950 . S
H165 C185 0.950 . S
H166 C187 0.950 . S
H167 C190 0.950 . S
H168 C191 0.950 . S
H169 C193 0.950 . S
H170 C194 0.950 . S
H171 C195 0.951 . S
H172 C197 0.951 . S
H173 C199 0.950 . S
H174 C200 0.950 . S
H175 C202 0.950 . S
H176 C205 0.950 . S
H177 C206 0.950 . S
H178 C208 0.950 . S
H179 C209 0.950 . S
C180 H162 0.951 . S
C180 C181 1.366 . S
C180 C182 1.388 . S
C181 C180 1.366 . S
C181 C185 1.385 . S
C182 H163 0.951 . S
C182 C180 1.388 . S
C182 C183 1.366 . S
C183 C182 1.366 . S
C183 C184 1.414 . S
C183 C186 1.499 . S
C184 H164 0.950 . S
C184 C183 1.414 . S
C184 C185 1.374 . S
C185 H165 0.950 . S
C185 C181 1.385 . S
C185 C184 1.374 . S
C186 C183 1.499 . S
C186 C187 1.373 . S
C186 C188 1.389 . S
C187 H166 0.950 . S
C187 C186 1.373 . S
C187 C203 1.377 . S
C188 C186 1.389 . S
C188 C189 1.524 . S
C188 C202 1.377 . S
C189 C188 1.524 . S
C189 C190 1.397 . S
C189 C194 1.363 . S
C190 H167 0.950 . S
C190 C189 1.397 . S
C190 C191 1.334 . S
C191 H168 0.950 . S
C191 C190 1.334 . S
C191 C192 1.287 . S
C192 C191 1.287 . S
C192 C193 1.524 . S
C192 H211 0.913 . S
C193 H169 0.950 . S
C193 C192 1.524 . S
C193 C194 1.415 . S
C194 H170 0.950 . S
C194 C189 1.363 . S
C194 C193 1.415 . S
C195 H171 0.951 . S
C195 C196 1.366 . S
C195 C197 1.388 . S
C196 C195 1.366 . S
C196 C200 1.385 . S
C197 H172 0.951 . S
C197 C195 1.388 . S
C197 C198 1.366 . S
C198 C197 1.366 . S
C198 C199 1.414 . S
C198 C201 1.499 . S
C199 H173 0.950 . S
C199 C198 1.414 . S
C199 C200 1.374 . S
C200 H174 0.950 . S
C200 C196 1.385 . S
C200 C199 1.374 . S
C201 C198 1.499 . S
C201 C202 1.373 . S
C201 C203 1.389 . S
C202 H175 0.950 . S
C202 C188 1.377 . S
C202 C201 1.373 . S
C203 C187 1.377 . S
C203 C201 1.389 . S
C203 C204 1.524 . S
C204 C203 1.524 . S
C204 C205 1.397 . S
C204 C209 1.363 . S
C205 H176 0.950 . S
C205 C204 1.397 . S
C205 C206 1.334 . S
C206 H177 0.950 . S
C206 C205 1.334 . S
C206 C207 1.287 . S
C207 C206 1.287 . S
C207 C208 1.524 . S
C207 H210 0.999 . S
C208 H178 0.950 . S
C208 C207 1.524 . S
C208 C209 1.415 . S
C209 H179 0.950 . S
C209 C204 1.363 . S
C209 C208 1.415 . S
H210 C207 0.999 . S
H211 C192 0.913 . S
H212 C230 0.951 . S
H213 C232 0.951 . S
H214 C234 0.950 . S
H215 C235 0.950 . S
H216 C237 0.950 . S
H217 C240 0.950 . S
H218 C241 0.950 . S
H219 C243 0.950 . S
H220 C244 0.950 . S
H221 C245 0.951 . S
H222 C247 0.951 . S
H223 C249 0.950 . S
H224 C250 0.950 . S
H225 C252 0.950 . S
H226 C255 0.950 . S
H227 C256 0.950 . S
H228 C258 0.950 . S
H229 C259 0.950 . S
C230 H212 0.951 . S
C230 C231 1.366 . S
C230 C232 1.388 . S
C231 C230 1.366 . S
C231 C235 1.385 . S
C232 H213 0.951 . S
C232 C230 1.388 . S
C232 C233 1.366 . S
C233 C232 1.366 . S
C233 C234 1.414 . S
C233 C236 1.499 . S
C234 H214 0.950 . S
C234 C233 1.414 . S
C234 C235 1.374 . S
C235 H215 0.950 . S
C235 C231 1.385 . S
C235 C234 1.374 . S
C236 C233 1.499 . S
C236 C237 1.373 . S
C236 C238 1.389 . S
C237 H216 0.950 . S
C237 C236 1.373 . S
C237 C253 1.377 . S
C238 C236 1.389 . S
C238 C239 1.524 . S
C238 C252 1.377 . S
C239 C238 1.524 . S
C239 C240 1.397 . S
C239 C244 1.363 . S
C240 H217 0.950 . S
C240 C239 1.397 . S
C240 C241 1.334 . S
C241 H218 0.950 . S
C241 C240 1.334 . S
C241 C242 1.287 . S
C242 C241 1.287 . S
C242 C243 1.524 . S
C242 H261 0.913 . S
C243 H219 0.950 . S
C243 C242 1.524 . S
C243 C244 1.415 . S
C244 H220 0.950 . S
C244 C239 1.363 . S
C244 C243 1.415 . S
C245 H221 0.951 . S
C245 C246 1.366 . S
C245 C247 1.388 . S
C246 C245 1.366 . S
C246 C250 1.385 . S
C247 H222 0.951 . S
C247 C245 1.388 . S
C247 C248 1.366 . S
C248 C247 1.366 . S
C248 C249 1.414 . S
C248 C251 1.499 . S
C249 H223 0.950 . S
C249 C248 1.414 . S
C249 C250 1.374 . S
C250 H224 0.950 . S
C250 C246 1.385 . S
C250 C249 1.374 . S
C251 C248 1.499 . S
C251 C252 1.373 . S
C251 C253 1.389 . S
C252 H225 0.950 . S
C252 C238 1.377 . S
C252 C251 1.373 . S
C253 C237 1.377 . S
C253 C251 1.389 . S
C253 C254 1.524 . S
C254 C253 1.524 . S
C254 C255 1.397 . S
C254 C259 1.363 . S
C255 H226 0.950 . S
C255 C254 1.397 . S
C255 C256 1.334 . S
C256 H227 0.950 . S
C256 C255 1.334 . S
C256 C257 1.287 . S
C257 C256 1.287 . S
C257 C258 1.524 . S
C257 H260 0.999 . S
C258 H228 0.950 . S
C258 C257 1.524 . S
C258 C259 1.415 . S
C259 H229 0.950 . S
C259 C254 1.363 . S
C259 C258 1.415 . S
H260 C257 0.999 . S
H261 C242 0.913 . S
H262 C280 0.951 . S
H263 C282 0.951 . S
H264 C284 0.950 . S
H265 C285 0.950 . S
H266 C287 0.950 . S
H267 C290 0.950 . S
H268 C291 0.950 1_545 S
H269 C293 0.950 . S
H270 C294 0.950 . S
H271 C295 0.951 . S
H272 C297 0.951 . S
H273 C299 0.950 . S
H274 C300 0.950 . S
H275 C302 0.950 . S
H276 C305 0.950 . S
H277 C306 0.950 1_565 S
H278 C308 0.950 . S
H279 C309 0.950 . S
C280 H262 0.951 . S
C280 C281 1.366 . S
C280 C282 1.388 . S
C281 C280 1.366 . S
C281 C285 1.385 . S
C282 H263 0.951 . S
C282 C280 1.388 . S
C282 C283 1.366 . S
C283 C282 1.366 . S
C283 C284 1.414 . S
C283 C286 1.499 . S
C284 H264 0.950 . S
C284 C283 1.414 . S
C284 C285 1.374 . S
C285 H265 0.950 . S
C285 C281 1.385 . S
C285 C284 1.374 . S
C286 C283 1.499 . S
C286 C287 1.373 . S
C286 C288 1.389 1_545 S
C287 H266 0.950 . S
C287 C286 1.373 . S
C287 C303 1.377 1_455 S
C288 C286 1.389 1_565 S
C288 C289 1.524 . S
C288 C302 1.377 1_455 S
C289 C288 1.524 . S
C289 C290 1.397 1_565 S
C289 C294 1.363 . S
C290 H267 0.950 . S
C290 C289 1.397 1_545 S
C290 C291 1.334 1_545 S
C291 H268 0.950 1_565 S
C291 C290 1.334 1_565 S
C291 C292 1.287 . S
C292 C291 1.287 . S
C292 C293 1.524 . S
C292 H311 0.913 . S
C293 H269 0.950 . S
C293 C292 1.524 . S
C293 C294 1.415 . S
C294 H270 0.950 . S
C294 C289 1.363 . S
C294 C293 1.415 . S
C295 H271 0.951 . S
C295 C296 1.366 . S
C295 C297 1.388 . S
C296 C295 1.366 . S
C296 C300 1.385 . S
C297 H272 0.951 . S
C297 C295 1.388 . S
C297 C298 1.366 . S
C298 C297 1.366 . S
C298 C299 1.414 . S
C298 C301 1.499 . S
C299 H273 0.950 . S
C299 C298 1.414 . S
C299 C300 1.374 . S
C300 H274 0.950 . S
C300 C296 1.385 . S
C300 C299 1.374 . S
C301 C298 1.499 . S
C301 C302 1.373 . S
C301 C303 1.389 1_565 S
C302 H275 0.950 . S
C302 C288 1.377 1_655 S
C302 C301 1.373 . S
C303 C287 1.377 1_655 S
C303 C301 1.389 1_545 S
C303 C304 1.524 . S
C304 C303 1.524 . S
C304 C305 1.397 1_545 S
C304 C309 1.363 . S
C305 H276 0.950 . S
C305 C304 1.397 1_565 S
C305 C306 1.334 1_565 S
C306 H277 0.950 1_545 S
C306 C305 1.334 1_545 S
C306 C307 1.287 . S
C307 C306 1.287 . S
C307 C308 1.524 . S
C307 H310 0.999 . S
C308 H278 0.950 . S
C308 C307 1.524 . S
C308 C309 1.415 . S
C309 H279 0.950 . S
C309 C304 1.363 . S
C309 C308 1.415 . S
H310 C307 0.999 . S
H311 C292 0.913 . S
H312 C330 0.951 . S
H313 C332 0.951 . S
H314 C334 0.950 . S
H315 C335 0.950 . S
H316 C337 0.950 . S
H317 C340 0.950 . S
H318 C341 0.950 . S
H319 C343 0.950 . S
H320 C344 0.950 . S
H321 C345 0.951 . S
H322 C347 0.951 . S
H323 C349 0.950 . S
H324 C350 0.950 . S
H325 C352 0.950 . S
H326 C355 0.950 . S
H327 C356 0.950 . S
H328 C358 0.950 . S
H329 C359 0.950 . S
C330 H312 0.951 . S
C330 C331 1.366 . S
C330 C332 1.388 . S
C331 C330 1.366 . S
C331 C335 1.385 . S
C332 H313 0.951 . S
C332 C330 1.388 . S
C332 C333 1.366 . S
C333 C332 1.366 . S
C333 C334 1.414 . S
C333 C336 1.499 . S
C334 H314 0.950 . S
C334 C333 1.414 . S
C334 C335 1.374 . S
C335 H315 0.950 . S
C335 C331 1.385 . S
C335 C334 1.374 . S
C336 C333 1.499 . S
C336 C337 1.373 . S
C336 C338 1.389 . S
C337 H316 0.950 . S
C337 C336 1.373 . S
C337 C353 1.377 . S
C338 C336 1.389 . S
C338 C339 1.524 . S
C338 C352 1.377 . S
C339 C338 1.524 . S
C339 C340 1.397 . S
C339 C344 1.363 . S
C340 H317 0.950 . S
C340 C339 1.397 . S
C340 C341 1.334 . S
C341 H318 0.950 . S
C341 C340 1.334 . S
C341 C342 1.287 . S
C342 C341 1.287 . S
C342 C343 1.524 . S
C342 H361 0.913 . S
C343 H319 0.950 . S
C343 C342 1.524 . S
C343 C344 1.415 . S
C344 H320 0.950 . S
C344 C339 1.363 . S
C344 C343 1.415 . S
C345 H321 0.951 . S
C345 C346 1.366 . S
C345 C347 1.388 . S
C346 C345 1.366 . S
C346 C350 1.385 . S
C347 H322 0.951 . S
C347 C345 1.388 . S
C347 C348 1.366 . S
C348 C347 1.366 . S
C348 C349 1.414 . S
C348 C351 1.499 . S
C349 H323 0.950 . S
C349 C348 1.414 . S
C349 C350 1.374 . S
C350 H324 0.950 . S
C350 C346 1.385 . S
C350 C349 1.374 . S
C351 C348 1.499 . S
C351 C352 1.373 . S
C351 C353 1.389 . S
C352 H325 0.950 . S
C352 C338 1.377 . S
C352 C351 1.373 . S
C353 C337 1.377 . S
C353 C351 1.389 . S
C353 C354 1.524 . S
C354 C353 1.524 . S
C354 C355 1.397 . S
C354 C359 1.363 . S
C355 H326 0.950 . S
C355 C354 1.397 . S
C355 C356 1.334 . S
C356 H327 0.950 . S
C356 C355 1.334 . S
C356 C357 1.287 . S
C357 C356 1.287 . S
C357 C358 1.524 . S
C357 H360 0.999 . S
C358 H328 0.950 . S
C358 C357 1.524 . S
C358 C359 1.415 . S
C359 H329 0.950 . S
C359 C354 1.363 . S
C359 C358 1.415 . S
H360 C357 0.999 . S
H361 C342 0.913 . S
H362 C380 0.951 . S
H363 C382 0.951 . S
H364 C384 0.950 . S
H365 C385 0.950 . S
H366 C387 0.950 . S
H367 C390 0.950 . S
H368 C391 0.950 . S
H369 C393 0.950 . S
H370 C394 0.950 . S
H371 C395 0.951 . S
H372 C397 0.951 . S
H373 C399 0.950 . S
H374 C400 0.950 . S
H375 C402 0.950 . S
H376 C405 0.950 . S
H377 C406 0.950 . S
H378 C408 0.950 . S
H379 C409 0.950 . S
C380 H362 0.951 . S
C380 C381 1.366 . S
C380 C382 1.388 . S
C381 C380 1.366 . S
C381 C385 1.385 . S
C382 H363 0.951 . S
C382 C380 1.388 . S
C382 C383 1.366 . S
C383 C382 1.366 . S
C383 C384 1.414 . S
C383 C386 1.499 . S
C384 H364 0.950 . S
C384 C383 1.414 . S
C384 C385 1.374 . S
C385 H365 0.950 . S
C385 C381 1.385 . S
C385 C384 1.374 . S
C386 C383 1.499 . S
C386 C387 1.373 . S
C386 C388 1.389 . S
C387 H366 0.950 . S
C387 C386 1.373 . S
C387 C403 1.377 1_556 S
C388 C386 1.389 . S
C388 C389 1.524 . S
C388 C402 1.377 1_556 S
C389 C388 1.524 . S
C389 C390 1.397 . S
C389 C394 1.363 . S
C390 H367 0.950 . S
C390 C389 1.397 . S
C390 C391 1.334 . S
C391 H368 0.950 . S
C391 C390 1.334 . S
C391 C392 1.287 . S
C392 C391 1.287 . S
C392 C393 1.524 . S
C392 H411 0.913 . S
C393 H369 0.950 . S
C393 C392 1.524 . S
C393 C394 1.415 . S
C394 H370 0.950 . S
C394 C389 1.363 . S
C394 C393 1.415 . S
C395 H371 0.951 . S
C395 C396 1.366 . S
C395 C397 1.388 . S
C396 C395 1.366 . S
C396 C400 1.385 . S
C397 H372 0.951 . S
C397 C395 1.388 . S
C397 C398 1.366 . S
C398 C397 1.366 . S
C398 C399 1.414 . S
C398 C401 1.499 . S
C399 H373 0.950 . S
C399 C398 1.414 . S
C399 C400 1.374 . S
C400 H374 0.950 . S
C400 C396 1.385 . S
C400 C399 1.374 . S
C401 C398 1.499 . S
C401 C402 1.373 . S
C401 C403 1.389 . S
C402 H375 0.950 . S
C402 C388 1.377 1_554 S
C402 C401 1.373 . S
C403 C387 1.377 1_554 S
C403 C401 1.389 . S
C403 C404 1.524 . S
C404 C403 1.524 . S
C404 C405 1.397 . S
C404 C409 1.363 . S
C405 H376 0.950 . S
C405 C404 1.397 . S
C405 C406 1.334 . S
C406 H377 0.950 . S
C406 C405 1.334 . S
C406 C407 1.287 . S
C407 C406 1.287 . S
C407 C408 1.524 . S
C407 H410 0.999 . S
C408 H378 0.950 . S
C408 C407 1.524 . S
C408 C409 1.415 . S
C409 H379 0.950 . S
C409 C404 1.363 . S
C409 C408 1.415 . S
H410 C407 0.999 . S
H411 C392 0.913 . S
H412 C430 0.951 . S
H413 C432 0.951 . S
H414 C434 0.950 . S
H415 C435 0.950 . S
H416 C437 0.950 . S
H417 C440 0.950 . S
H418 C441 0.950 . S
H419 C443 0.950 . S
H420 C444 0.950 . S
H421 C445 0.951 . S
H422 C447 0.951 . S
H423 C449 0.950 . S
H424 C450 0.950 . S
H425 C452 0.950 . S
H426 C455 0.950 . S
H427 C456 0.950 . S
H428 C458 0.950 . S
H429 C459 0.950 . S
C430 H412 0.951 . S
C430 C431 1.366 . S
C430 C432 1.388 . S
C431 C430 1.366 . S
C431 C435 1.385 . S
C432 H413 0.951 . S
C432 C430 1.388 . S
C432 C433 1.366 . S
C433 C432 1.366 . S
C433 C434 1.414 . S
C433 C436 1.499 . S
C434 H414 0.950 . S
C434 C433 1.414 . S
C434 C435 1.374 . S
C435 H415 0.950 . S
C435 C431 1.385 . S
C435 C434 1.374 . S
C436 C433 1.499 . S
C436 C437 1.373 . S
C436 C438 1.389 . S
C437 H416 0.950 . S
C437 C436 1.373 . S
C437 C453 1.377 . S
C438 C436 1.389 . S
C438 C439 1.524 . S
C438 C452 1.377 . S
C439 C438 1.524 . S
C439 C440 1.397 . S
C439 C444 1.363 . S
C440 H417 0.950 . S
C440 C439 1.397 . S
C440 C441 1.334 . S
C441 H418 0.950 . S
C441 C440 1.334 . S
C441 C442 1.287 . S
C442 C441 1.287 . S
C442 C443 1.524 . S
C442 H461 0.913 . S
C443 H419 0.950 . S
C443 C442 1.524 . S
C443 C444 1.415 . S
C444 H420 0.950 . S
C444 C439 1.363 . S
C444 C443 1.415 . S
C445 H421 0.951 . S
C445 C446 1.366 . S
C445 C447 1.388 . S
C446 C445 1.366 . S
C446 C450 1.385 . S
C447 H422 0.951 . S
C447 C445 1.388 . S
C447 C448 1.366 . S
C448 C447 1.366 . S
C448 C449 1.414 . S
C448 C451 1.499 . S
C449 H423 0.950 . S
C449 C448 1.414 . S
C449 C450 1.374 . S
C450 H424 0.950 . S
C450 C446 1.385 . S
C450 C449 1.374 . S
C451 C448 1.499 . S
C451 C452 1.373 . S
C451 C453 1.389 . S
C452 H425 0.950 . S
C452 C438 1.377 . S
C452 C451 1.373 . S
C453 C437 1.377 . S
C453 C451 1.389 . S
C453 C454 1.524 . S
C454 C453 1.524 . S
C454 C455 1.397 . S
C454 C459 1.363 . S
C455 H426 0.950 . S
C455 C454 1.397 . S
C455 C456 1.334 . S
C456 H427 0.950 . S
C456 C455 1.334 . S
C456 C457 1.287 . S
C457 C456 1.287 . S
C457 C458 1.524 . S
C457 H460 0.999 . S
C458 H428 0.950 . S
C458 C457 1.524 . S
C458 C459 1.415 . S
C459 H429 0.950 . S
C459 C454 1.363 . S
C459 C458 1.415 . S
H460 C457 0.999 . S
H461 C442 0.913 . S
H462 C480 0.951 . S
H463 C482 0.951 . S
H464 C484 0.950 . S
H465 C485 0.950 . S
H466 C487 0.950 . S
H467 C490 0.950 . S
H468 C491 0.950 . S
H469 C493 0.950 1_554 S
H470 C494 0.926 1_554 S
H471 C495 0.951 . S
H472 C497 0.951 . S
H473 C499 0.950 . S
H474 C500 0.950 . S
H475 C502 0.950 . S
H476 C505 0.950 . S
H477 C506 0.950 . S
H478 C508 0.950 1_556 S
H479 C509 0.926 1_556 S
C480 H462 0.951 . S
C480 C481 1.366 . S
C480 C482 1.388 . S
C481 C480 1.366 . S
C481 C485 1.385 . S
C482 H463 0.951 . S
C482 C480 1.388 . S
C482 C483 1.366 . S
C483 C482 1.366 . S
C483 C484 1.414 . S
C483 C486 1.499 . S
C484 H464 0.950 . S
C484 C483 1.414 . S
C484 C485 1.374 . S
C485 H465 0.950 . S
C485 C481 1.385 . S
C485 C484 1.374 . S
C486 C483 1.499 . S
C486 C487 1.373 . S
C486 C488 1.389 . S
C487 H466 0.950 . S
C487 C486 1.373 . S
C487 C503 1.377 1_556 S
C488 C486 1.389 . S
C488 C489 1.524 . S
C488 C502 1.377 1_556 S
C489 C488 1.524 . S
C489 C490 1.397 . S
C489 C494 1.382 . S
C490 H467 0.950 . S
C490 C489 1.397 . S
C490 C491 1.334 . S
C491 H468 0.950 . S
C491 C490 1.334 . S
C491 C492 1.287 . S
C492 C491 1.287 . S
C492 C493 1.524 . S
C492 H511 0.913 . S
C493 H469 0.950 1_556 S
C493 C492 1.524 . S
C493 C494 1.422 . S
C494 H470 0.926 1_556 S
C494 C489 1.382 . S
C494 C493 1.422 . S
C495 H471 0.951 . S
C495 C496 1.366 . S
C495 C497 1.388 . S
C496 C495 1.366 . S
C496 C500 1.385 . S
C497 H472 0.951 . S
C497 C495 1.388 . S
C497 C498 1.366 . S
C498 C497 1.366 . S
C498 C499 1.414 . S
C498 C501 1.499 . S
C499 H473 0.950 . S
C499 C498 1.414 . S
C499 C500 1.374 . S
C500 H474 0.950 . S
C500 C496 1.385 . S
C500 C499 1.374 . S
C501 C498 1.499 . S
C501 C502 1.373 . S
C501 C503 1.389 . S
C502 H475 0.950 . S
C502 C488 1.377 1_554 S
C502 C501 1.373 . S
C503 C487 1.377 1_554 S
C503 C501 1.389 . S
C503 C504 1.524 . S
C504 C503 1.524 . S
C504 C505 1.397 . S
C504 C509 1.382 . S
C505 H476 0.950 . S
C505 C504 1.397 . S
C505 C506 1.334 . S
C506 H477 0.950 . S
C506 C505 1.334 . S
C506 C507 1.287 . S
C507 C506 1.287 . S
C507 C508 1.524 . S
C507 H510 0.999 . S
C508 H478 0.950 1_554 S
C508 C507 1.524 . S
C508 C509 1.422 . S
C509 H479 0.926 1_554 S
C509 C504 1.382 . S
C509 C508 1.422 . S
H510 C507 0.999 . S
H511 C492 0.913 . S
H512 C530 0.951 . S
H513 C532 0.951 . S
H514 C534 0.950 . S
H515 C535 0.950 . S
H516 C537 0.950 . S
H517 C540 0.950 . S
H518 C541 0.950 . S
H519 C543 0.950 . S
H520 C544 0.950 . S
H521 C545 0.951 . S
H522 C547 0.951 . S
H523 C549 0.950 . S
H524 C550 0.950 . S
H525 C552 0.950 . S
H526 C555 0.950 . S
H527 C556 0.950 . S
H528 C558 0.950 . S
H529 C559 0.950 . S
C530 H512 0.951 . S
C530 C531 1.366 . S
C530 C532 1.388 . S
C531 C530 1.366 . S
C531 C535 1.385 . S
C532 H513 0.951 . S
C532 C530 1.388 . S
C532 C533 1.366 . S
C533 C532 1.366 . S
C533 C534 1.414 . S
C533 C536 1.499 . S
C534 H514 0.950 . S
C534 C533 1.414 . S
C534 C535 1.374 . S
C535 H515 0.950 . S
C535 C531 1.385 . S
C535 C534 1.374 . S
C536 C533 1.499 . S
C536 C537 1.373 . S
C536 C538 1.389 . S
C537 H516 0.950 . S
C537 C536 1.373 . S
C537 C553 1.377 . S
C538 C536 1.389 . S
C538 C539 1.524 . S
C538 C552 1.377 . S
C539 C538 1.524 . S
C539 C540 1.397 . S
C539 C544 1.363 . S
C540 H517 0.950 . S
C540 C539 1.397 . S
C540 C541 1.334 . S
C541 H518 0.950 . S
C541 C540 1.334 . S
C541 C542 1.287 . S
C542 C541 1.287 . S
C542 C543 1.524 . S
C542 H561 0.913 . S
C543 H519 0.950 . S
C543 C542 1.524 . S
C543 C544 1.415 . S
C544 H520 0.950 . S
C544 C539 1.363 . S
C544 C543 1.415 . S
C545 H521 0.951 . S
C545 C546 1.366 . S
C545 C547 1.388 . S
C546 C545 1.366 . S
C546 C550 1.385 . S
C547 H522 0.951 . S
C547 C545 1.388 . S
C547 C548 1.366 . S
C548 C547 1.366 . S
C548 C549 1.414 . S
C548 C551 1.499 . S
C549 H523 0.950 . S
C549 C548 1.414 . S
C549 C550 1.374 . S
C550 H524 0.950 . S
C550 C546 1.385 . S
C550 C549 1.374 . S
C551 C548 1.499 . S
C551 C552 1.373 . S
C551 C553 1.389 . S
C552 H525 0.950 . S
C552 C538 1.377 . S
C552 C551 1.373 . S
C553 C537 1.377 . S
C553 C551 1.389 . S
C553 C554 1.524 . S
C554 C553 1.524 . S
C554 C555 1.397 . S
C554 C559 1.363 . S
C555 H526 0.950 . S
C555 C554 1.397 . S
C555 C556 1.334 . S
C556 H527 0.950 . S
C556 C555 1.334 . S
C556 C557 1.287 . S
C557 C556 1.287 . S
C557 C558 1.524 . S
C557 H560 0.999 . S
C558 H528 0.950 . S
C558 C557 1.524 . S
C558 C559 1.415 . S
C559 H529 0.950 . S
C559 C554 1.363 . S
C559 C558 1.415 . S
H560 C557 0.999 . S
H561 C542 0.913 . S
H562 C580 0.951 . S
H563 C582 0.951 . S
H564 C584 0.950 . S
H565 C585 0.950 . S
H566 C587 0.950 . S
H567 C590 0.950 . S
H568 C591 0.950 . S
H569 C593 0.950 . S
H570 C594 0.950 . S
H571 C595 0.951 . S
H572 C597 0.951 . S
H573 C599 0.950 . S
H574 C600 0.950 . S
H575 C602 0.950 . S
H576 C605 0.950 . S
H577 C606 0.950 . S
H578 C608 0.950 . S
H579 C609 0.950 . S
C580 H562 0.951 . S
C580 C581 1.366 . S
C580 C582 1.388 . S
C581 C580 1.366 . S
C581 C585 1.385 . S
C582 H563 0.951 . S
C582 C580 1.388 . S
C582 C583 1.366 . S
C583 C582 1.366 . S
C583 C584 1.414 . S
C583 C586 1.499 . S
C584 H564 0.950 . S
C584 C583 1.414 . S
C584 C585 1.374 . S
C585 H565 0.950 . S
C585 C581 1.385 . S
C585 C584 1.374 . S
C586 C583 1.499 . S
C586 C587 1.373 . S
C586 C588 1.389 . S
C587 H566 0.950 . S
C587 C586 1.373 . S
C587 C603 1.377 . S
C588 C586 1.389 . S
C588 C589 1.524 . S
C588 C602 1.377 . S
C589 C588 1.524 . S
C589 C590 1.397 . S
C589 C594 1.363 . S
C590 H567 0.950 . S
C590 C589 1.397 . S
C590 C591 1.334 . S
C591 H568 0.950 . S
C591 C590 1.334 . S
C591 C592 1.287 . S
C592 C591 1.287 . S
C592 C593 1.524 . S
C592 H611 0.913 . S
C593 H569 0.950 . S
C593 C592 1.524 . S
C593 C594 1.415 . S
C594 H570 0.950 . S
C594 C589 1.363 . S
C594 C593 1.415 . S
C595 H571 0.951 . S
C595 C596 1.366 . S
C595 C597 1.388 1_545 S
C596 C595 1.366 . S
C596 C600 1.385 . S
C597 H572 0.951 . S
C597 C595 1.388 1_565 S
C597 C598 1.366 . S
C598 C597 1.366 . S
C598 C599 1.414 1_565 S
C598 C601 1.499 . S
C599 H573 0.950 . S
C599 C598 1.414 1_545 S
C599 C600 1.374 . S
C600 H574 0.950 . S
C600 C596 1.385 . S
C600 C599 1.374 . S
C601 C598 1.499 . S
C601 C602 1.373 . S
C601 C603 1.389 . S
C602 H575 0.950 . S
C602 C588 1.377 . S
C602 C601 1.373 . S
C603 C587 1.377 . S
C603 C601 1.389 . S
C603 C604 1.524 . S
C604 C603 1.524 . S
C604 C605 1.397 . S
C604 C609 1.363 . S
C605 H576 0.950 . S
C605 C604 1.397 . S
C605 C606 1.334 . S
C606 H577 0.950 . S
C606 C605 1.334 . S
C606 C607 1.287 . S
C607 C606 1.287 . S
C607 C608 1.524 . S
C607 H610 0.999 . S
C608 H578 0.950 . S
C608 C607 1.524 . S
C608 C609 1.415 . S
C609 H579 0.950 . S
C609 C604 1.363 . S
C609 C608 1.415 . S
H610 C607 0.999 . S
H611 C592 0.913 . S
H612 C630 0.951 . S
H613 C632 0.951 . S
H614 C634 0.950 . S
H615 C635 0.950 . S
H616 C637 0.950 . S
H617 C640 0.950 . S
H618 C641 0.950 . S
H619 C643 0.950 . S
H620 C644 0.950 . S
H621 C645 0.951 . S
H622 C647 0.951 . S
H623 C649 0.950 . S
H624 C650 0.950 . S
H625 C652 0.950 . S
H626 C655 0.950 . S
H627 C656 0.950 . S
H628 C658 0.950 . S
H629 C659 0.950 . S
C630 H612 0.951 . S
C630 C631 1.366 . S
C630 C632 1.388 . S
C631 C630 1.366 . S
C631 C635 1.385 . S
C632 H613 0.951 . S
C632 C630 1.388 . S
C632 C633 1.366 . S
C633 C632 1.366 . S
C633 C634 1.414 . S
C633 C636 1.499 . S
C634 H614 0.950 . S
C634 C633 1.414 . S
C634 C635 1.374 . S
C635 H615 0.950 . S
C635 C631 1.385 . S
C635 C634 1.374 . S
C636 C633 1.499 . S
C636 C637 1.373 . S
C636 C638 1.389 . S
C637 H616 0.950 . S
C637 C636 1.373 . S
C637 C653 1.377 . S
C638 C636 1.389 . S
C638 C639 1.524 . S
C638 C652 1.377 . S
C639 C638 1.524 . S
C639 C640 1.397 . S
C639 C644 1.363 . S
C640 H617 0.950 . S
C640 C639 1.397 . S
C640 C641 1.334 . S
C641 H618 0.950 . S
C641 C640 1.334 . S
C641 C642 1.287 . S
C642 C641 1.287 . S
C642 C643 1.524 . S
C642 H661 0.913 . S
C643 H619 0.950 . S
C643 C642 1.524 . S
C643 C644 1.415 . S
C644 H620 0.950 . S
C644 C639 1.363 . S
C644 C643 1.415 . S
C645 H621 0.951 . S
C645 C646 1.366 . S
C645 C647 1.388 . S
C646 C645 1.366 . S
C646 C650 1.385 . S
C647 H622 0.951 . S
C647 C645 1.388 . S
C647 C648 1.366 . S
C648 C647 1.366 . S
C648 C649 1.414 . S
C648 C651 1.499 . S
C649 H623 0.950 . S
C649 C648 1.414 . S
C649 C650 1.374 . S
C650 H624 0.950 . S
C650 C646 1.385 . S
C650 C649 1.374 . S
C651 C648 1.499 . S
C651 C652 1.373 . S
C651 C653 1.389 . S
C652 H625 0.950 . S
C652 C638 1.377 . S
C652 C651 1.373 . S
C653 C637 1.377 . S
C653 C651 1.389 . S
C653 C654 1.524 . S
C654 C653 1.524 . S
C654 C655 1.397 . S
C654 C659 1.363 . S
C655 H626 0.950 . S
C655 C654 1.397 . S
C655 C656 1.334 . S
C656 H627 0.950 . S
C656 C655 1.334 . S
C656 C657 1.287 . S
C657 C656 1.287 . S
C657 C658 1.524 . S
C657 H660 0.999 . S
C658 H628 0.950 . S
C658 C657 1.524 . S
C658 C659 1.415 . S
C659 H629 0.950 . S
C659 C654 1.363 . S
C659 C658 1.415 . S
H660 C657 0.999 . S
H661 C642 0.913 . S
H662 C680 0.951 . S
H663 C682 0.951 . S
H664 C684 0.950 . S
H665 C685 0.950 . S
H666 C687 0.950 . S
H667 C690 0.950 . S
H668 C691 0.950 . S
H669 C693 0.950 . S
H670 C694 0.950 . S
H671 C695 0.951 . S
H672 C697 0.951 . S
H673 C699 0.950 1_545 S
H674 C700 0.950 . S
H675 C702 0.950 . S
H676 C705 0.950 . S
H677 C706 0.950 . S
H678 C708 0.950 . S
H679 C709 0.950 . S
C680 H662 0.951 . S
C680 C681 1.366 . S
C680 C682 1.388 . S
C681 C680 1.366 . S
C681 C685 1.385 . S
C682 H663 0.951 . S
C682 C680 1.388 . S
C682 C683 1.366 . S
C683 C682 1.366 . S
C683 C684 1.414 . S
C683 C686 1.499 . S
C684 H664 0.950 . S
C684 C683 1.414 . S
C684 C685 1.374 . S
C685 H665 0.950 . S
C685 C681 1.385 . S
C685 C684 1.374 . S
C686 C683 1.499 . S
C686 C687 1.373 . S
C686 C688 1.389 . S
C687 H666 0.950 . S
C687 C686 1.373 . S
C687 C703 1.377 . S
C688 C686 1.389 . S
C688 C689 1.524 . S
C688 C702 1.377 . S
C689 C688 1.524 . S
C689 C690 1.397 . S
C689 C694 1.363 . S
C690 H667 0.950 . S
C690 C689 1.397 . S
C690 C691 1.334 . S
C691 H668 0.950 . S
C691 C690 1.334 . S
C691 C692 1.287 . S
C692 C691 1.287 . S
C692 C693 1.524 . S
C692 H711 0.913 . S
C693 H669 0.950 . S
C693 C692 1.524 . S
C693 C694 1.415 . S
C694 H670 0.950 . S
C694 C689 1.363 . S
C694 C693 1.415 . S
C695 H671 0.951 . S
C695 C696 1.366 . S
C695 C697 1.388 1_565 S
C696 C695 1.366 . S
C696 C700 1.385 . S
C697 H672 0.951 . S
C697 C695 1.388 1_545 S
C697 C698 1.366 . S
C698 C697 1.366 . S
C698 C699 1.411 1_545 S
C698 C701 1.499 . S
C699 H673 0.950 1_565 S
C699 C698 1.411 1_565 S
C699 C700 1.378 . S
C700 H674 0.950 . S
C700 C696 1.385 . S
C700 C699 1.378 . S
C701 C698 1.499 . S
C701 C702 1.373 . S
C701 C703 1.389 . S
C702 H675 0.950 . S
C702 C688 1.377 . S
C702 C701 1.373 . S
C703 C687 1.377 . S
C703 C701 1.389 . S
C703 C704 1.524 . S
C704 C703 1.524 . S
C704 C705 1.397 . S
C704 C709 1.363 . S
C705 H676 0.950 . S
C705 C704 1.397 . S
C705 C706 1.334 . S
C706 H677 0.950 . S
C706 C705 1.334 . S
C706 C707 1.287 . S
C707 C706 1.287 . S
C707 C708 1.524 . S
C707 H710 0.999 . S
C708 H678 0.950 . S
C708 C707 1.524 . S
C708 C709 1.415 . S
C709 H679 0.950 . S
C709 C704 1.363 . S
C709 C708 1.415 . S
H710 C707 0.999 . S
H711 C692 0.913 . S
H712 C730 0.951 . S
H713 C732 0.951 . S
H714 C734 0.950 . S
H715 C735 0.950 . S
H716 C737 0.950 . S
H717 C740 0.950 . S
H718 C741 0.950 1_455 S
H719 C743 0.950 1_455 S
H720 C744 0.950 . S
H721 C745 0.951 . S
H722 C747 0.951 . S
H723 C749 0.950 . S
H724 C750 0.950 . S
H725 C752 0.950 . S
H726 C755 0.950 . S
H727 C756 0.950 . S
H728 C758 0.950 . S
H729 C759 0.950 . S
C730 H712 0.951 . S
C730 C731 1.366 . S
C730 C732 1.388 . S
C731 C730 1.366 . S
C731 C735 1.385 . S
C732 H713 0.951 . S
C732 C730 1.388 . S
C732 C733 1.366 1_455 S
C733 C732 1.366 1_655 S
C733 C734 1.414 . S
C733 C736 1.499 . S
C734 H714 0.950 . S
C734 C733 1.414 . S
C734 C735 1.374 1_655 S
C735 H715 0.950 . S
C735 C731 1.385 . S
C735 C734 1.374 1_455 S
C736 C733 1.499 . S
C736 C737 1.373 . S
C736 C738 1.389 . S
C737 H716 0.950 . S
C737 C736 1.373 . S
C737 C753 1.377 . S
C738 C736 1.389 . S
C738 C739 1.524 . S
C738 C752 1.377 . S
C739 C738 1.524 . S
C739 C740 1.397 . S
C739 C744 1.363 . S
C740 H717 0.950 . S
C740 C739 1.397 . S
C740 C741 1.334 . S
C741 H718 0.950 1_655 S
C741 C740 1.334 . S
C741 C742 1.287 1_655 S
C742 C741 1.287 1_455 S
C742 C743 1.524 1_455 S
C742 H761 0.913 . S
C743 H719 0.950 1_655 S
C743 C742 1.524 1_655 S
C743 C744 1.415 . S
C744 H720 0.950 . S
C744 C739 1.363 . S
C744 C743 1.415 . S
C745 H721 0.951 . S
C745 C746 1.366 . S
C745 C747 1.388 . S
C746 C745 1.366 . S
C746 C750 1.385 . S
C747 H722 0.951 . S
C747 C745 1.388 . S
C747 C748 1.366 . S
C748 C747 1.366 . S
C748 C749 1.414 . S
C748 C751 1.499 . S
C749 H723 0.950 . S
C749 C748 1.414 . S
C749 C750 1.374 . S
C750 H724 0.950 . S
C750 C746 1.385 . S
C750 C749 1.374 . S
C751 C748 1.499 . S
C751 C752 1.373 . S
C751 C753 1.389 . S
C752 H725 0.950 . S
C752 C738 1.377 . S
C752 C751 1.373 . S
C753 C737 1.377 . S
C753 C751 1.389 . S
C753 C754 1.524 . S
C754 C753 1.524 . S
C754 C755 1.397 . S
C754 C759 1.363 . S
C755 H726 0.950 . S
C755 C754 1.397 . S
C755 C756 1.334 . S
C756 H727 0.950 . S
C756 C755 1.334 . S
C756 C757 1.287 . S
C757 C756 1.287 . S
C757 C758 1.524 . S
C757 H760 0.999 . S
C758 H728 0.950 . S
C758 C757 1.524 . S
C758 C759 1.415 . S
C759 H729 0.950 . S
C759 C754 1.363 . S
C759 C758 1.415 . S
H760 C757 0.999 . S
H761 C742 0.913 . S
H762 C780 0.951 . S
H763 C782 0.951 . S
H764 C784 0.950 . S
H765 C785 0.950 . S
H766 C787 0.950 . S
H767 C790 0.950 . S
H768 C791 0.950 . S
H769 C793 0.950 . S
H770 C794 0.950 . S
H771 C795 0.951 . S
H772 C797 0.951 . S
H773 C799 0.950 . S
H774 C800 0.950 . S
H775 C802 0.950 . S
H776 C805 0.950 . S
H777 C806 0.950 . S
H778 C808 0.950 . S
H779 C809 0.950 . S
C780 H762 0.951 . S
C780 C781 1.366 . S
C780 C782 1.388 . S
C781 C780 1.366 . S
C781 C785 1.385 . S
C782 H763 0.951 . S
C782 C780 1.388 . S
C782 C783 1.366 . S
C783 C782 1.366 . S
C783 C784 1.414 . S
C783 C786 1.499 . S
C784 H764 0.950 . S
C784 C783 1.414 . S
C784 C785 1.374 . S
C785 H765 0.950 . S
C785 C781 1.385 . S
C785 C784 1.374 . S
C786 C783 1.499 . S
C786 C787 1.373 . S
C786 C788 1.389 . S
C787 H766 0.950 . S
C787 C786 1.373 . S
C787 C803 1.377 . S
C788 C786 1.389 . S
C788 C789 1.524 . S
C788 C802 1.377 . S
C789 C788 1.524 . S
C789 C790 1.397 . S
C789 C794 1.363 . S
C790 H767 0.950 . S
C790 C789 1.397 . S
C790 C791 1.334 . S
C791 H768 0.950 . S
C791 C790 1.334 . S
C791 C792 1.287 . S
C792 C791 1.287 . S
C792 C793 1.524 . S
C792 H811 0.913 . S
C793 H769 0.950 . S
C793 C792 1.524 . S
C793 C794 1.415 . S
C794 H770 0.950 . S
C794 C789 1.363 . S
C794 C793 1.415 . S
C795 H771 0.951 . S
C795 C796 1.366 . S
C795 C797 1.388 . S
C796 C795 1.366 . S
C796 C800 1.385 . S
C797 H772 0.951 . S
C797 C795 1.388 . S
C797 C798 1.366 . S
C798 C797 1.366 . S
C798 C799 1.414 . S
C798 C801 1.499 . S
C799 H773 0.950 . S
C799 C798 1.414 . S
C799 C800 1.374 . S
C800 H774 0.950 . S
C800 C796 1.385 . S
C800 C799 1.374 . S
C801 C798 1.499 . S
C801 C802 1.373 . S
C801 C803 1.389 . S
C802 H775 0.950 . S
C802 C788 1.377 . S
C802 C801 1.373 . S
C803 C787 1.377 . S
C803 C801 1.389 . S
C803 C804 1.524 . S
C804 C803 1.524 . S
C804 C805 1.397 . S
C804 C809 1.363 . S
C805 H776 0.950 . S
C805 C804 1.397 . S
C805 C806 1.334 . S
C806 H777 0.950 . S
C806 C805 1.334 . S
C806 C807 1.287 . S
C807 C806 1.287 . S
C807 C808 1.524 . S
C807 H810 0.999 . S
C808 H778 0.950 . S
C808 C807 1.524 . S
C808 C809 1.415 . S
C809 H779 0.950 . S
C809 C804 1.363 . S
C809 C808 1.415 . S
H810 C807 0.999 . S
H811 C792 0.913 . S
H812 C830 0.951 . S
H813 C832 0.951 . S
H814 C834 0.950 . S
H815 C835 0.950 . S
H816 C837 0.950 . S
H817 C840 0.950 . S
H818 C841 0.950 . S
H819 C843 0.950 . S
H820 C844 0.950 . S
H821 C845 0.951 . S
H822 C847 0.951 . S
H823 C849 0.950 . S
H824 C850 0.950 . S
H825 C852 0.950 . S
H826 C855 0.950 . S
H827 C856 0.950 . S
H828 C858 0.950 . S
H829 C859 0.950 . S
C830 H812 0.951 . S
C830 C831 1.366 . S
C830 C832 1.388 . S
C831 C830 1.366 . S
C831 C835 1.385 . S
C832 H813 0.951 . S
C832 C830 1.388 . S
C832 C833 1.366 . S
C833 C832 1.366 . S
C833 C834 1.414 . S
C833 C836 1.499 . S
C834 H814 0.950 . S
C834 C833 1.414 . S
C834 C835 1.374 . S
C835 H815 0.950 . S
C835 C831 1.385 . S
C835 C834 1.374 . S
C836 C833 1.499 . S
C836 C837 1.373 . S
C836 C838 1.389 . S
C837 H816 0.950 . S
C837 C836 1.373 . S
C837 C853 1.377 . S
C838 C836 1.389 . S
C838 C839 1.524 . S
C838 C852 1.377 . S
C839 C838 1.524 . S
C839 C840 1.397 . S
C839 C844 1.363 . S
C840 H817 0.950 . S
C840 C839 1.397 . S
C840 C841 1.334 . S
C841 H818 0.950 . S
C841 C840 1.334 . S
C841 C842 1.287 . S
C842 C841 1.287 . S
C842 C843 1.524 . S
C842 H861 0.913 . S
C843 H819 0.950 . S
C843 C842 1.524 . S
C843 C844 1.415 . S
C844 H820 0.950 . S
C844 C839 1.363 . S
C844 C843 1.415 . S
C845 H821 0.951 . S
C845 C846 1.366 . S
C845 C847 1.388 1_655 S
C846 C845 1.366 . S
C846 C850 1.385 . S
C847 H822 0.951 . S
C847 C845 1.388 1_455 S
C847 C848 1.366 . S
C848 C847 1.366 . S
C848 C849 1.414 1_455 S
C848 C851 1.499 . S
C849 H823 0.950 . S
C849 C848 1.414 1_655 S
C849 C850 1.374 . S
C850 H824 0.950 . S
C850 C846 1.385 . S
C850 C849 1.374 . S
C851 C848 1.499 . S
C851 C852 1.373 . S
C851 C853 1.389 . S
C852 H825 0.950 . S
C852 C838 1.377 . S
C852 C851 1.373 . S
C853 C837 1.377 . S
C853 C851 1.389 . S
C853 C854 1.524 . S
C854 C853 1.524 . S
C854 C855 1.397 . S
C854 C859 1.363 . S
C855 H826 0.950 . S
C855 C854 1.397 . S
C855 C856 1.334 . S
C856 H827 0.950 . S
C856 C855 1.334 . S
C856 C857 1.287 . S
C857 C856 1.287 . S
C857 C858 1.524 . S
C857 H860 0.999 . S
C858 H828 0.950 . S
C858 C857 1.524 . S
C858 C859 1.415 . S
C859 H829 0.950 . S
C859 C854 1.363 . S
C859 C858 1.415 . S
H860 C857 0.999 . S
H861 C842 0.913 . S
H862 C880 0.951 . S
H863 C882 0.951 . S
H864 C884 0.950 . S
H865 C885 0.950 . S
H866 C887 0.950 . S
H867 C890 0.950 . S
H868 C891 0.950 . S
H869 C893 0.950 . S
H870 C894 0.950 . S
H871 C895 0.951 . S
H872 C897 0.951 . S
H873 C899 0.950 . S
H874 C900 0.950 . S
H875 C902 0.950 . S
H876 C905 0.950 . S
H877 C906 0.950 . S
H878 C908 0.950 . S
H879 C909 0.950 . S
C880 H862 0.951 . S
C880 C881 1.366 . S
C880 C882 1.388 . S
C881 C880 1.366 . S
C881 C885 1.385 . S
C882 H863 0.951 . S
C882 C880 1.388 . S
C882 C883 1.366 . S
C883 C882 1.366 . S
C883 C884 1.414 . S
C883 C886 1.499 . S
C884 H864 0.950 . S
C884 C883 1.414 . S
C884 C885 1.374 . S
C885 H865 0.950 . S
C885 C881 1.385 . S
C885 C884 1.374 . S
C886 C883 1.499 . S
C886 C887 1.373 . S
C886 C888 1.389 . S
C887 H866 0.950 . S
C887 C886 1.373 . S
C887 C903 1.377 . S
C888 C886 1.389 . S
C888 C889 1.524 . S
C888 C902 1.377 . S
C889 C888 1.524 . S
C889 C890 1.397 . S
C889 C894 1.363 . S
C890 H867 0.950 . S
C890 C889 1.397 . S
C890 C891 1.334 . S
C891 H868 0.950 . S
C891 C890 1.334 . S
C891 C892 1.287 . S
C892 C891 1.287 . S
C892 C893 1.524 . S
C892 H911 0.913 . S
C893 H869 0.950 . S
C893 C892 1.524 . S
C893 C894 1.415 . S
C894 H870 0.950 . S
C894 C889 1.363 . S
C894 C893 1.415 . S
C895 H871 0.951 . S
C895 C896 1.366 . S
C895 C897 1.388 . S
C896 C895 1.366 . S
C896 C900 1.385 . S
C897 H872 0.951 . S
C897 C895 1.388 . S
C897 C898 1.366 . S
C898 C897 1.366 . S
C898 C899 1.414 . S
C898 C901 1.499 . S
C899 H873 0.950 . S
C899 C898 1.414 . S
C899 C900 1.374 . S
C900 H874 0.950 . S
C900 C896 1.385 . S
C900 C899 1.374 . S
C901 C898 1.499 . S
C901 C902 1.373 . S
C901 C903 1.389 . S
C902 H875 0.950 . S
C902 C888 1.377 . S
C902 C901 1.373 . S
C903 C887 1.377 . S
C903 C901 1.389 . S
C903 C904 1.524 . S
C904 C903 1.524 . S
C904 C905 1.397 . S
C904 C909 1.363 . S
C905 H876 0.950 . S
C905 C904 1.397 . S
C905 C906 1.334 . S
C906 H877 0.950 . S
C906 C905 1.334 . S
C906 C907 1.287 . S
C907 C906 1.287 . S
C907 C908 1.524 . S
C907 H910 0.999 . S
C908 H878 0.950 . S
C908 C907 1.524 . S
C908 C909 1.415 . S
C909 H879 0.950 . S
C909 C904 1.363 . S
C909 C908 1.415 . S
H910 C907 0.999 . S
H911 C892 0.913 . S
C131 C9 0.313 . S
C146 C37 0.314 . S
C181 C23 0.315 . S
C196 C51 0.316 . S
C231 C65 0.317 . S
C246 C93 0.317 . S
C281 C79 0.316 . S
C296 C107 0.316 . S
C331 C7 1.273 . S
C346 C77 1.272 . S
C381 C21 1.273 . S
C396 C91 1.272 . S
C431 C105 1.273 . S
C446 C35 1.272 . S
C481 C49 1.273 . S
C496 C63 1.273 . S
C531 C59 1.715 . S
C546 C8 1.749 . S
C581 C22 1.749 . S
C596 C73 1.714 . S
C631 C36 1.749 . S
C646 C87 1.714 . S
C681 C50 1.749 . S
C696 C101 1.714 . S
C731 C3 1.714 . S
C746 C64 1.749 . S
C781 C78 1.749 . S
C796 C17 1.714 . S
C831 C92 1.749 . S
C846 C31 1.714 . S
C881 C45 1.715 . S
C896 C106 1.749 . S
