# Generated by pormake.
# Topology snl, (6)-cn, num edge types: 1
# Building blocks:
#     Node 0, Type 0, BuildingBlock: MIFKUJ_clean_sbu_0, # of connection points: 6
#     Node 1, Type 0, BuildingBlock: MIFKUJ_clean_sbu_0, # of connection points: 6
#     Node 2, Type 0, BuildingBlock: MIFKUJ_clean_sbu_0, # of connection points: 6
#     Node 3, Type 0, BuildingBlock: MIFKUJ_clean_sbu_0, # of connection points: 6
#     Node 4, Type 0, BuildingBlock: MIFKUJ_clean_sbu_0, # of connection points: 6
#     Node 5, Type 0, BuildingBlock: MIFKUJ_clean_sbu_0, # of connection points: 6
#     Node 6, Type 0, BuildingBlock: MIFKUJ_clean_sbu_0, # of connection points: 6
#     Node 7, Type 0, BuildingBlock: MIFKUJ_clean_sbu_0, # of connection points: 6
#     Node 8, Type 0, BuildingBlock: MIFKUJ_clean_sbu_0, # of connection points: 6
#     Node 9, Type 0, BuildingBlock: MIFKUJ_clean_sbu_0, # of connection points: 6
#     Node 10, Type 0, BuildingBlock: MIFKUJ_clean_sbu_0, # of connection points: 6
#     Node 11, Type 0, BuildingBlock: MIFKUJ_clean_sbu_0, # of connection points: 6
#     Node 12, Type 0, BuildingBlock: MIFKUJ_clean_sbu_0, # of connection points: 6
#     Node 13, Type 0, BuildingBlock: MIFKUJ_clean_sbu_0, # of connection points: 6
#     Node 14, Type 0, BuildingBlock: MIFKUJ_clean_sbu_0, # of connection points: 6
#     Node 15, Type 0, BuildingBlock: MIFKUJ_clean_sbu_0, # of connection points: 6
#     Edge 16, Type (0, 0), BuildingBlock: EZIPEK_clean_linker_0, # of connection points: 2
#     Edge 17, Type (0, 0), BuildingBlock: EZIPEK_clean_linker_0, # of connection points: 2
#     Edge 18, Type (0, 0), BuildingBlock: EZIPEK_clean_linker_0, # of connection points: 2
#     Edge 19, Type (0, 0), BuildingBlock: EZIPEK_clean_linker_0, # of connection points: 2
#     Edge 20, Type (0, 0), BuildingBlock: EZIPEK_clean_linker_0, # of connection points: 2
#     Edge 21, Type (0, 0), BuildingBlock: EZIPEK_clean_linker_0, # of connection points: 2
#     Edge 22, Type (0, 0), BuildingBlock: EZIPEK_clean_linker_0, # of connection points: 2
#     Edge 23, Type (0, 0), BuildingBlock: EZIPEK_clean_linker_0, # of connection points: 2
#     Edge 24, Type (0, 0), BuildingBlock: EZIPEK_clean_linker_0, # of connection points: 2
#     Edge 25, Type (0, 0), BuildingBlock: EZIPEK_clean_linker_0, # of connection points: 2
#     Edge 26, Type (0, 0), BuildingBlock: EZIPEK_clean_linker_0, # of connection points: 2
#     Edge 27, Type (0, 0), BuildingBlock: EZIPEK_clean_linker_0, # of connection points: 2
#     Edge 28, Type (0, 0), BuildingBlock: EZIPEK_clean_linker_0, # of connection points: 2
#     Edge 29, Type (0, 0), BuildingBlock: EZIPEK_clean_linker_0, # of connection points: 2
#     Edge 30, Type (0, 0), BuildingBlock: EZIPEK_clean_linker_0, # of connection points: 2
#     Edge 31, Type (0, 0), BuildingBlock: EZIPEK_clean_linker_0, # of connection points: 2
#     Edge 32, Type (0, 0), BuildingBlock: EZIPEK_clean_linker_0, # of connection points: 2
#     Edge 33, Type (0, 0), BuildingBlock: EZIPEK_clean_linker_0, # of connection points: 2
#     Edge 34, Type (0, 0), BuildingBlock: EZIPEK_clean_linker_0, # of connection points: 2
#     Edge 35, Type (0, 0), BuildingBlock: EZIPEK_clean_linker_0, # of connection points: 2
#     Edge 36, Type (0, 0), BuildingBlock: EZIPEK_clean_linker_0, # of connection points: 2
#     Edge 37, Type (0, 0), BuildingBlock: EZIPEK_clean_linker_0, # of connection points: 2
#     Edge 38, Type (0, 0), BuildingBlock: EZIPEK_clean_linker_0, # of connection points: 2
#     Edge 39, Type (0, 0), BuildingBlock: EZIPEK_clean_linker_0, # of connection points: 2
#     Edge 40, Type (0, 0), BuildingBlock: EZIPEK_clean_linker_0, # of connection points: 2
#     Edge 41, Type (0, 0), BuildingBlock: EZIPEK_clean_linker_0, # of connection points: 2
#     Edge 42, Type (0, 0), BuildingBlock: EZIPEK_clean_linker_0, # of connection points: 2
#     Edge 43, Type (0, 0), BuildingBlock: EZIPEK_clean_linker_0, # of connection points: 2
#     Edge 44, Type (0, 0), BuildingBlock: EZIPEK_clean_linker_0, # of connection points: 2
#     Edge 45, Type (0, 0), BuildingBlock: EZIPEK_clean_linker_0, # of connection points: 2
#     Edge 46, Type (0, 0), BuildingBlock: EZIPEK_clean_linker_0, # of connection points: 2
#     Edge 47, Type (0, 0), BuildingBlock: EZIPEK_clean_linker_0, # of connection points: 2
#     Edge 48, Type (0, 0), BuildingBlock: EZIPEK_clean_linker_0, # of connection points: 2
#     Edge 49, Type (0, 0), BuildingBlock: EZIPEK_clean_linker_0, # of connection points: 2
#     Edge 50, Type (0, 0), BuildingBlock: EZIPEK_clean_linker_0, # of connection points: 2
#     Edge 51, Type (0, 0), BuildingBlock: EZIPEK_clean_linker_0, # of connection points: 2
#     Edge 52, Type (0, 0), BuildingBlock: EZIPEK_clean_linker_0, # of connection points: 2
#     Edge 53, Type (0, 0), BuildingBlock: EZIPEK_clean_linker_0, # of connection points: 2
#     Edge 54, Type (0, 0), BuildingBlock: EZIPEK_clean_linker_0, # of connection points: 2
#     Edge 55, Type (0, 0), BuildingBlock: EZIPEK_clean_linker_0, # of connection points: 2
#     Edge 56, Type (0, 0), BuildingBlock: EZIPEK_clean_linker_0, # of connection points: 2
#     Edge 57, Type (0, 0), BuildingBlock: EZIPEK_clean_linker_0, # of connection points: 2
#     Edge 58, Type (0, 0), BuildingBlock: EZIPEK_clean_linker_0, # of connection points: 2
#     Edge 59, Type (0, 0), BuildingBlock: EZIPEK_clean_linker_0, # of connection points: 2
#     Edge 60, Type (0, 0), BuildingBlock: EZIPEK_clean_linker_0, # of connection points: 2
#     Edge 61, Type (0, 0), BuildingBlock: EZIPEK_clean_linker_0, # of connection points: 2
#     Edge 62, Type (0, 0), BuildingBlock: EZIPEK_clean_linker_0, # of connection points: 2
#     Edge 63, Type (0, 0), BuildingBlock: EZIPEK_clean_linker_0, # of connection points: 2
# Relax obj value: 0.129
# Max RMSD: 0.184
# Mean RMSD: 0.165
data_MOF--net-snl--node1-MIFKUJ_clean_sbu_0--edge1-EZIPEK_clean_linker_0
_symmetry_space_group_name_H-M    P1
_symmetry_Int_Tables_number       1
_symmetry_cell_setting            triclinic
loop_
_symmetry_equiv_pos_as_xyz
'x, y, z'
_cell_length_a     45.590795
_cell_length_b     46.688837
_cell_length_c     14.629531
_cell_angle_alpha  89.201005
_cell_angle_beta   91.302038
_cell_angle_gamma 90.050922
loop_
_atom_site_label
_atom_site_type_symbol
_atom_site_fract_x
_atom_site_fract_y
_atom_site_fract_z
_atom_type_partial_charge
Zn0 Zn 0.12463 0.61677 0.26733 0.0
Zn1 Zn 0.11232 0.62755 0.03772 0.0
C2 C 0.18647 0.62645 0.28783 0.0
O3 O 0.17801 0.6508 0.32232 0.0
C4 C 0.05195 0.64306 0.02953 0.0
O5 O 0.06271 0.66703 0.99628 0.0
O6 O 0.11627 0.61041 0.40161 0.0
O7 O 0.11814 0.65904 0.24019 0.0
O8 O 0.12313 0.66562 0.09136 0.0
C9 C 0.11943 0.63047 0.45903 0.0
O10 O 0.12716 0.65615 0.43085 0.0
O11 O 0.16759 0.60923 0.25548 0.0
C12 C 0.10766 0.61278 0.84853 0.0
O13 O 0.09462 0.59002 0.88212 0.0
O14 O 0.11774 0.63175 0.90215 0.0
O15 O 0.13223 0.59053 0.07769 0.0
O16 O 0.10406 0.58498 0.19693 0.0
O17 O 0.06912 0.62291 0.05438 0.0
C18 C 0.12078 0.67562 0.17121 0.0
C19 C 0.11818 0.57429 0.13163 0.0
Zn20 Zn 0.60488 0.90026 0.47725 0.0
Zn21 Zn 0.60226 0.84995 0.2404 0.0
C22 C 0.62173 0.95821 0.52487 0.0
O23 O 0.64542 0.94523 0.55697 0.0
C24 C 0.58965 0.78775 0.23982 0.0
O25 O 0.56348 0.79492 0.2078 0.0
O26 O 0.61191 0.88595 0.608 0.0
O27 O 0.56436 0.88732 0.4289 0.0
O28 O 0.56438 0.86284 0.29964 0.0
C29 C 0.5921 0.88545 0.66783 0.0
O30 O 0.56538 0.89378 0.64504 0.0
O31 O 0.60183 0.94365 0.48465 0.0
C32 C 0.61796 0.85833 0.04969 0.0
O33 O 0.64475 0.85298 0.08009 0.0
O34 O 0.59682 0.858 0.10491 0.0
O35 O 0.6412 0.86649 0.28105 0.0
O36 O 0.64251 0.89163 0.40929 0.0
O37 O 0.60835 0.80722 0.25726 0.0
C38 C 0.55063 0.87506 0.36331 0.0
C39 C 0.65521 0.88042 0.34188 0.0
Zn40 Zn 0.34893 0.37835 0.77108 0.0
Zn41 Zn 0.38897 0.37066 0.52649 0.0
C42 C 0.28811 0.38951 0.81112 0.0
O43 O 0.29884 0.41363 0.84274 0.0
C44 C 0.44899 0.36286 0.51448 0.0
O45 O 0.43862 0.34292 0.46011 0.0
O46 O 0.36711 0.37827 0.89817 0.0
O47 O 0.36334 0.34648 0.69817 0.0
O48 O 0.38278 0.33097 0.57327 0.0
C49 C 0.3529 0.37091 0.96836 0.0
O50 O 0.32587 0.36168 0.95949 0.0
O51 O 0.30517 0.37201 0.77378 0.0
C52 C 0.39279 0.38784 0.33809 0.0
O53 O 0.40636 0.41041 0.37073 0.0
O54 O 0.38346 0.36851 0.39167 0.0
O55 O 0.35924 0.40001 0.57026 0.0
O56 O 0.3589 0.41602 0.71101 0.0
O57 O 0.43123 0.37918 0.55444 0.0
C58 C 0.37258 0.32598 0.65148 0.0
C59 C 0.3631 0.42035 0.62628 0.0
Zn60 Zn 0.86754 0.10159 0.04631 0.0
Zn61 Zn 0.87318 0.1523 0.79586 0.0
C62 C 0.85638 0.04197 0.06327 0.0
O63 O 0.82947 0.05076 0.04594 0.0
C64 C 0.88228 0.21222 0.79343 0.0
O65 O 0.90953 0.20354 0.78686 0.0
O66 O 0.86266 0.11839 0.17118 0.0
O67 O 0.89944 0.12079 0.96938 0.0
O68 O 0.91357 0.14683 0.85045 0.0
C69 C 0.88086 0.11364 0.23664 0.0
O70 O 0.90514 0.09952 0.2213 0.0
O71 O 0.87725 0.06 0.06587 0.0
C72 C 0.85249 0.13973 0.61025 0.0
O73 O 0.82711 0.14974 0.63612 0.0
O74 O 0.87392 0.13814 0.66697 0.0
O75 O 0.84879 0.12961 0.87891 0.0
O76 O 0.82772 0.10406 0.98284 0.0
O77 O 0.86181 0.19381 0.7968 0.0
C78 C 0.91974 0.13242 0.92302 0.0
C79 C 0.82586 0.11788 0.9081 0.0
Zn80 Zn 0.12605 0.39345 0.03963 0.0
Zn81 Zn 0.11426 0.35663 0.80207 0.0
C82 C 0.11343 0.45209 0.07429 0.0
O83 O 0.09009 0.44019 0.1094 0.0
C84 C 0.10453 0.29658 0.81602 0.0
O85 O 0.07761 0.30586 0.80141 0.0
O86 O 0.13069 0.38252 0.17299 0.0
O87 O 0.08414 0.385 -0.00247 0.0
O88 O 0.07661 0.36465 0.86207 0.0
C89 C 0.10935 0.38133 0.22725 0.0
O90 O 0.08254 0.38626 0.19647 0.0
O91 O 0.13207 0.43651 0.03502 0.0
C92 C 0.12796 0.35826 0.61331 0.0
O93 O 0.15326 0.3486 0.64546 0.0
O94 O 0.10729 0.36304 0.66779 0.0
O95 O 0.14638 0.38375 0.83466 0.0
O96 O 0.16012 0.37498 0.97735 0.0
O97 O 0.12536 0.31472 0.82099 0.0
C98 C 0.06714 0.3751 0.93532 0.0
C99 C 0.16596 0.37659 0.89311 0.0
Zn100 Zn 0.84451 0.87342 0.28161 0.0
Zn101 Zn 0.89688 0.86816 0.04446 0.0
C102 C 0.78269 0.88937 0.32285 0.0
O103 O 0.79487 0.91103 0.36564 0.0
C104 C 0.96161 0.86044 0.03372 0.0
O105 O 0.95557 0.84166 0.97005 0.0
O106 O 0.85992 0.87981 0.41107 0.0
O107 O 0.85812 0.83414 0.2415 0.0
O108 O 0.88274 0.83332 0.1122 0.0
C109 C 0.85129 0.86472 0.47831 0.0
O110 O 0.83208 0.84419 0.46445 0.0
O111 O 0.79907 0.87163 0.28229 0.0
C112 C 0.89362 0.88154 0.85048 0.0
O113 O 0.90519 0.90595 0.87668 0.0
O114 O 0.88902 0.86189 0.90949 0.0
O115 O 0.87927 0.90575 0.07435 0.0
O116 O 0.85631 0.90827 0.20622 0.0
O117 O 0.9408 0.87348 0.07198 0.0
C118 C 0.87058 0.82044 0.17841 0.0
C119 C 0.8669 0.92017 0.13537 0.0
Zn120 Zn 0.35196 0.59819 0.48803 0.0
Zn121 Zn 0.36533 0.62766 0.24684 0.0
C122 C 0.36561 0.53926 0.51657 0.0
O123 O 0.39123 0.55046 0.53773 0.0
C124 C 0.37634 0.68856 0.28564 0.0
O125 O 0.39759 0.67938 0.34047 0.0
O126 O 0.34933 0.60935 0.61956 0.0
O127 O 0.39348 0.6055 0.45553 0.0
O128 O 0.40247 0.61882 0.31284 0.0
C129 C 0.37141 0.60668 0.67371 0.0
O130 O 0.39646 0.59743 0.64305 0.0
O131 O 0.3451 0.55546 0.48645 0.0
C132 C 0.35926 0.63157 0.05485 0.0
O133 O 0.34037 0.65153 0.07542 0.0
O134 O 0.37278 0.61767 0.11776 0.0
O135 O 0.32844 0.60627 0.27764 0.0
O136 O 0.31875 0.61804 0.41975 0.0
O137 O 0.35972 0.67072 0.24502 0.0
C138 C 0.41106 0.61192 0.39288 0.0
C139 C 0.31066 0.61464 0.33699 0.0
Zn140 Zn 0.64632 0.11755 0.75757 0.0
Zn141 Zn 0.59314 0.12758 0.50991 0.0
C142 C 0.70573 0.10886 0.80631 0.0
O143 O 0.69443 0.08608 0.84582 0.0
C144 C 0.53318 0.14185 0.52815 0.0
O145 O 0.54471 0.16755 0.53372 0.0
O146 O 0.63382 0.11286 0.88915 0.0
O147 O 0.62747 0.15143 0.68773 0.0
O148 O 0.60173 0.16588 0.56537 0.0
C149 C 0.62784 0.13294 0.94341 0.0
O150 O 0.62833 0.15962 0.91398 0.0
O151 O 0.68919 0.12589 0.76098 0.0
C152 C 0.60981 0.10808 0.32796 0.0
O153 O 0.60867 0.08201 0.36263 0.0
O154 O 0.60477 0.12941 0.37812 0.0
O155 O 0.61489 0.09918 0.58799 0.0
O156 O 0.64086 0.07892 0.6972 0.0
O157 O 0.54972 0.12046 0.51536 0.0
C158 C 0.61511 0.17134 0.64035 0.0
C159 C 0.62609 0.07672 0.62326 0.0
Zn160 Zn 0.88086 0.38185 0.96062 0.0
Zn161 Zn 0.85956 0.3928 0.72544 0.0
C162 C 0.94109 0.36916 0.95933 0.0
O163 O 0.93053 0.34452 0.98802 0.0
C164 C 0.80081 0.37682 0.69068 0.0
O165 O 0.81417 0.35378 0.66265 0.0
O166 O 0.87876 0.37628 0.0959 0.0
O167 O 0.856 0.4162 0.92621 0.0
O168 O 0.87734 0.42611 0.79566 0.0
C169 C 0.87402 0.39697 0.14888 0.0
O170 O 0.87006 0.42291 0.11499 0.0
O171 O 0.9235 0.3895 0.93924 0.0
C172 C 0.87394 0.37732 0.53981 0.0
O173 O 0.87628 0.35129 0.57418 0.0
O174 O 0.86842 0.39818 0.59171 0.0
O175 O 0.86821 0.35152 0.75876 0.0
O176 O 0.87121 0.34384 0.90845 0.0
O177 O 0.81572 0.39696 0.72624 0.0
C178 C 0.86625 0.43428 0.86986 0.0
C179 C 0.86999 0.33464 0.82739 0.0
Zn180 Zn 0.36669 0.14626 0.74615 0.0
Zn181 Zn 0.35636 0.12534 0.51163 0.0
C182 C 0.37814 0.20566 0.72744 0.0
O183 O 0.40465 0.19676 0.75056 0.0
C184 C 0.35273 0.06715 0.46633 0.0
O185 O 0.32918 0.07762 0.42478 0.0
O186 O 0.37501 0.14432 0.88099 0.0
O187 O 0.33034 0.12311 0.72694 0.0
O188 O 0.3185 0.12879 0.57912 0.0
C189 C 0.35377 0.14874 0.93374 0.0
O190 O 0.32779 0.1552 0.8987 0.0
O191 O 0.35757 0.1875 0.71887 0.0
C192 C 0.36965 0.13456 0.32494 0.0
O193 O 0.39598 0.12818 0.35739 0.0
O194 O 0.34813 0.13493 0.37867 0.0
O195 O 0.39009 0.15029 0.5474 0.0
O196 O 0.40314 0.13406 0.68416 0.0
O197 O 0.36884 0.08363 0.51442 0.0
C198 C 0.3117 0.123 0.66124 0.0
C199 C 0.40974 0.14135 0.60331 0.0
Zn200 Zn 0.5961 0.62027 0.44229 0.0
Zn201 Zn 0.6426 0.61609 0.19683 0.0
C202 C 0.53487 0.62788 0.43357 0.0
O203 O 0.54278 0.65492 0.43426 0.0
C204 C 0.70056 0.61871 0.12178 0.0
O205 O 0.68766 0.60824 0.04867 0.0
O206 O 0.61137 0.61975 0.57047 0.0
O207 O 0.61805 0.59687 0.35936 0.0
O208 O 0.64135 0.5761 0.25332 0.0
C209 C 0.59678 0.60686 0.63128 0.0
O210 O 0.57318 0.59228 0.60856 0.0
O211 O 0.55423 0.60843 0.43746 0.0
C212 C 0.62871 0.62908 0.0064 0.0
O213 O 0.64431 0.65234 0.02054 0.0
O214 O 0.62372 0.61212 0.07258 0.0
O215 O 0.62323 0.64908 0.26612 0.0
O216 O 0.59933 0.66 0.39136 0.0
O217 O 0.68558 0.62462 0.19099 0.0
C218 C 0.6288 0.57418 0.32899 0.0
C219 C 0.61054 0.66743 0.3158 0.0
Zn220 Zn 0.1331 0.85891 0.25015 0.0
Zn221 Zn 0.14138 0.89135 0.01319 0.0
C222 C 0.11615 0.79973 0.18376 0.0
O223 O 0.09605 0.81132 0.12955 0.0
C224 C 0.15025 0.95144 0.96947 0.0
O225 O 0.17587 0.94188 0.94427 0.0
O226 O 0.12757 0.86409 0.38445 0.0
O227 O 0.17454 0.87255 0.22884 0.0
O228 O 0.18056 0.88695 0.08513 0.0
C229 C 0.14793 0.8577 0.44176 0.0
O230 O 0.1729 0.84749 0.41331 0.0
O231 O 0.13263 0.81537 0.23362 0.0
C232 C 0.12961 0.88291 0.82189 0.0
O233 O 0.10407 0.89351 0.84349 0.0
O234 O 0.14942 0.87945 0.88367 0.0
O235 O 0.10293 0.87071 0.04559 0.0
O236 O 0.09777 0.87973 0.19202 0.0
O237 O 0.13202 0.93402 0.00442 0.0
C238 C 0.19087 0.8813 0.16508 0.0
C239 C 0.08655 0.87456 0.11378 0.0
Zn240 Zn 0.87815 0.63561 0.19528 0.0
Zn241 Zn 0.86946 0.61664 0.9654 0.0
C242 C 0.87962 0.69704 0.21278 0.0
O243 O 0.89383 0.69008 0.28885 0.0
C244 C 0.86261 0.55695 0.90989 0.0
O245 O 0.85529 0.56899 0.83114 0.0
O246 O 0.88157 0.63365 0.33309 0.0
O247 O 0.84371 0.6112 0.16136 0.0
O248 O 0.83474 0.63323 0.02959 0.0
C249 C 0.85951 0.63034 0.38387 0.0
O250 O 0.83317 0.62751 0.34686 0.0
O251 O 0.8707 0.67746 0.1592 0.0
C252 C 0.88296 0.62852 0.77451 0.0
O253 O 0.91036 0.62802 0.80422 0.0
O254 O 0.86234 0.62534 0.83082 0.0
O255 O 0.91033 0.63095 -0.00185 0.0
O256 O 0.91702 0.62384 0.14792 0.0
O257 O 0.86862 0.57272 0.9784 0.0
C258 C 0.82581 0.62226 0.10374 0.0
C259 C 0.92702 0.62861 0.06881 0.0
Zn260 Zn 0.10515 0.12377 0.98838 0.0
Zn261 Zn 0.12928 0.11665 0.75839 0.0
C262 C 0.04459 0.13294 0.97999 0.0
O263 O 0.05414 0.15751 0.01171 0.0
C264 C 0.18889 0.10347 0.72065 0.0
O265 O 0.1766 0.08468 0.6659 0.0
O266 O 0.10704 0.12953 0.12335 0.0
O267 O 0.13163 0.0904 0.96426 0.0
O268 O 0.11567 0.08063 0.82471 0.0
C269 C 0.11127 0.10884 0.17923 0.0
O270 O 0.11462 0.08275 0.14878 0.0
O271 O 0.06304 0.11362 0.96128 0.0
C272 C 0.12021 0.13155 0.5664 0.0
O273 O 0.1231 0.15792 0.5954 0.0
O274 O 0.12111 0.11075 0.62347 0.0
O275 O 0.11671 0.15701 0.78576 0.0
O276 O 0.11356 0.16263 0.93535 0.0
O277 O 0.17305 0.11843 0.77183 0.0
C278 C 0.12615 0.07239 0.902 0.0
C279 C 0.11457 0.17299 0.85486 0.0
Zn280 Zn 0.62294 0.35289 0.71286 0.0
Zn281 Zn 0.62893 0.3972 0.47344 0.0
C282 C 0.61118 0.29275 0.70682 0.0
O283 O 0.5851 0.30206 0.72858 0.0
C284 C 0.63933 0.45676 0.42903 0.0
O285 O 0.65695 0.44564 0.36934 0.0
O286 O 0.61513 0.3574 0.84701 0.0
O287 O 0.65873 0.37697 0.68699 0.0
O288 O 0.66623 0.38354 0.53792 0.0
C289 C 0.63462 0.36686 0.90239 0.0
O290 O 0.66074 0.37359 0.87283 0.0
O291 O 0.63183 0.31075 0.69633 0.0
C292 C 0.61287 0.37847 0.28822 0.0
O293 O 0.58754 0.37155 0.32337 0.0
O294 O 0.6331 0.38904 0.33869 0.0
O295 O 0.58982 0.38267 0.51161 0.0
O296 O 0.58508 0.36097 0.64675 0.0
O297 O 0.62558 0.44036 0.48322 0.0
C298 C 0.67567 0.37964 0.61968 0.0
C299 C 0.57429 0.37092 0.5723 0.0
Zn300 Zn 0.37286 0.87015 0.18018 0.0
Zn301 Zn 0.36381 0.88493 0.40867 0.0
C302 C 0.38178 0.80859 0.18272 0.0
O303 O 0.40221 0.81534 0.12428 0.0
C304 C 0.35915 0.94858 0.37108 0.0
O305 O 0.34978 0.94353 0.28738 0.0
O306 O 0.37777 0.87334 0.04334 0.0
O307 O 0.33449 0.89117 0.19919 0.0
O308 O 0.32539 0.87464 0.33792 0.0
C309 C 0.36379 0.85777 0.98655 0.0
O310 O 0.34661 0.83726 0.01613 0.0
O311 O 0.36617 0.82842 0.215 0.0
C312 C 0.3731 0.88347 0.60051 0.0
O313 O 0.39099 0.9044 0.57848 0.0
O314 O 0.35834 0.87087 0.53806 0.0
O315 O 0.40538 0.87113 0.38144 0.0
O316 O 0.41215 0.88332 0.23668 0.0
O317 O 0.36604 0.92796 0.42474 0.0
C318 C 0.3163 0.88354 0.25949 0.0
C319 C 0.42241 0.87709 0.31619 0.0
C320 C 0.12879 0.5986 0.69936 0.0
C321 C 0.10993 0.61663 0.74846 0.0
C322 C 0.0945 0.64108 0.60573 0.0
C323 C 0.11544 0.62492 0.55803 0.0
N324 N 0.15613 0.5919 0.56147 0.0
N325 N 0.07638 0.65654 0.75152 0.0
C326 C 0.13339 0.60443 0.60518 0.0
C327 C 0.09332 0.63841 0.70256 0.0
N328 N 0.14252 0.57602 0.7428 0.0
N329 N 0.07485 0.65798 0.55791 0.0
H330 H 0.07311 0.65397 0.82141 0.0
H331 H 0.06682 0.67509 0.72408 0.0
H332 H 0.07463 0.66 0.4868 0.0
H333 H 0.05711 0.66804 0.5874 0.0
H334 H 0.15355 0.56006 0.70839 0.0
H335 H 0.14132 0.57207 0.81294 0.0
H336 H 0.172 0.57918 0.59434 0.0
H337 H 0.16083 0.59643 0.49356 0.0
C338 C 0.6164 0.84407 0.8845 0.0
C339 C 0.61244 0.8654 0.95151 0.0
C340 C 0.59703 0.90008 0.83203 0.0
C341 C 0.59978 0.8785 0.76516 0.0
N342 N 0.61513 0.83111 0.72383 0.0
N343 N 0.59707 0.91288 0.99224 0.0
C344 C 0.61049 0.85083 0.79031 0.0
C345 C 0.60216 0.89315 0.92609 0.0
N346 N 0.62407 0.81688 0.91191 0.0
N347 N 0.59152 0.92774 0.80471 0.0
H348 H 0.60296 0.90969 0.06091 0.0
H349 H 0.58568 0.93192 0.98043 0.0
H350 H 0.58877 0.93387 0.73639 0.0
H351 H 0.59228 0.94519 0.84812 0.0
H352 H 0.62483 0.7994 0.8688 0.0
H353 H 0.6282 0.81108 0.98008 0.0
H354 H 0.626 0.81176 0.73474 0.0
H355 H 0.60912 0.83451 0.65537 0.0
C356 C 0.40005 0.36641 0.18541 0.0
C357 C 0.38512 0.38617 0.24031 0.0
C358 C 0.35241 0.39906 0.1118 0.0
C359 C 0.36502 0.37685 0.06032 0.0
N360 N 0.3986 0.33726 0.04946 0.0
N361 N 0.34542 0.41941 0.26114 0.0
C362 C 0.38842 0.36003 0.09715 0.0
C363 C 0.36094 0.40215 0.20489 0.0
N364 N 0.4256 0.35419 0.21726 0.0
N365 N 0.33289 0.41768 0.07085 0.0
H366 H 0.35146 0.4229 0.3293 0.0
H367 H 0.32543 0.42877 0.2423 0.0
H368 H 0.32629 0.41625 0.00242 0.0
H369 H 0.32524 0.43606 0.102 0.0
H370 H 0.43903 0.34163 0.17749 0.0
H371 H 0.43479 0.35879 0.28135 0.0
H372 H 0.41336 0.32225 0.07678 0.0
H373 H 0.3906 0.33208 0.98442 0.0
C374 C 0.85885 0.1555 0.44722 0.0
C375 C 0.85736 0.13289 0.51314 0.0
C376 C 0.86966 0.09778 0.39673 0.0
C377 C 0.87273 0.12046 0.33171 0.0
N378 N 0.8677 0.17038 0.29006 0.0
N379 N 0.8639 0.08318 0.55517 0.0
C380 C 0.86642 0.14919 0.3555 0.0
C381 C 0.86349 0.10423 0.48907 0.0
N382 N 0.8549 0.18319 0.47415 0.0
N383 N 0.87065 0.06993 0.36877 0.0
H384 H 0.85737 0.08657 0.62205 0.0
H385 H 0.87222 0.06272 0.54551 0.0
H386 H 0.87409 0.06413 0.30131 0.0
H387 H 0.86538 0.05244 0.4101 0.0
H388 H 0.85812 0.20116 0.43287 0.0
H389 H 0.8496 0.1887 0.54057 0.0
H390 H 0.8602 0.19117 0.29834 0.0
H391 H 0.87561 0.16705 0.22475 0.0
C392 C 0.13243 0.39396 0.37876 0.0
C393 C 0.11476 0.37512 0.32559 0.0
C394 C 0.10396 0.34663 0.46252 0.0
C395 C 0.12361 0.36396 0.51424 0.0
N396 N 0.15928 0.4022 0.52096 0.0
N397 N 0.08813 0.33069 0.31239 0.0
C398 C 0.13887 0.38692 0.47195 0.0
C399 C 0.10165 0.3507 0.36627 0.0
N400 N 0.14163 0.41938 0.34166 0.0
N401 N 0.08726 0.32641 0.50539 0.0
H402 H 0.08644 0.33267 0.24137 0.0
H403 H 0.08099 0.3109 0.33687 0.0
H404 H 0.08903 0.32205 0.57525 0.0
H405 H 0.07012 0.31546 0.4731 0.0
H406 H 0.15192 0.43542 0.37931 0.0
H407 H 0.13656 0.42569 0.27454 0.0
H408 H 0.17363 0.41679 0.49127 0.0
H409 H 0.16322 0.3991 0.59089 0.0
C410 C 0.8621 0.89653 0.71505 0.0
C411 C 0.88364 0.87778 0.754 0.0
C412 C 0.88322 0.84983 0.61289 0.0
C413 C 0.86326 0.86979 0.57192 0.0
N414 N 0.83723 0.91466 0.57802 0.0
N415 N 0.91852 0.83964 0.7357 0.0
C416 C 0.85392 0.89401 0.62107 0.0
C417 C 0.8952 0.85518 0.70182 0.0
N418 N 0.84815 0.91568 0.76912 0.0
N419 N 0.89065 0.82569 0.5669 0.0
H420 H 0.92815 0.84325 0.79982 0.0
H421 H 0.93001 0.82491 0.69756 0.0
H422 H 0.8838 0.82185 0.49966 0.0
H423 H 0.90216 0.80863 0.59699 0.0
H424 H 0.83 0.92765 0.7472 0.0
H425 H 0.85285 0.91777 0.83879 0.0
H426 H 0.83262 0.93436 0.60692 0.0
H427 H 0.82984 0.91308 0.5104 0.0
C428 C 0.34605 0.5991 0.82221 0.0
C429 C 0.36864 0.61258 0.77198 0.0
C430 C 0.38809 0.63413 0.91225 0.0
C431 C 0.36318 0.624 0.95893 0.0
N432 N 0.31679 0.59907 0.95824 0.0
N433 N 0.40849 0.6467 0.76596 0.0
C434 C 0.34157 0.60725 0.91374 0.0
C435 C 0.38909 0.63103 0.81614 0.0
N436 N 0.33005 0.5773 0.78445 0.0
N437 N 0.41085 0.64648 0.95968 0.0
H438 H 0.40914 0.646 0.69489 0.0
H439 H 0.42192 0.66256 0.79374 0.0
H440 H 0.41083 0.64914 0.03029 0.0
H441 H 0.43084 0.65158 0.93042 0.0
H442 H 0.31537 0.56476 0.82107 0.0
H443 H 0.33372 0.56967 0.71918 0.0
H444 H 0.29876 0.58976 0.92528 0.0
H445 H 0.3134 0.60329 0.02705 0.0
C446 C 0.64365 0.13678 0.10865 0.0
C447 C 0.62331 0.12628 0.0419 0.0
C448 C 0.59519 0.10226 0.16254 0.0
C449 C 0.6154 0.11291 0.22927 0.0
N450 N 0.65794 0.1412 0.26902 0.0
N451 N 0.5821 0.09607 0.00228 0.0
C452 C 0.63937 0.13045 0.20307 0.0
C453 C 0.59987 0.10803 0.06805 0.0
N454 N 0.66817 0.15117 0.08103 0.0
N455 N 0.57029 0.08848 0.18991 0.0
H456 H 0.5829 0.10173 0.93321 0.0
H457 H 0.56751 0.07941 0.01498 0.0
H458 H 0.56559 0.08427 0.25817 0.0
H459 H 0.55294 0.08308 0.14606 0.0
H460 H 0.68541 0.15721 0.12427 0.0
H461 H 0.67258 0.15559 0.01275 0.0
H462 H 0.67331 0.15723 0.25751 0.0
H463 H 0.65745 0.13472 0.33747 0.0
C464 C 0.89595 0.4051 0.30486 0.0
C465 C 0.87408 0.39193 0.24885 0.0
C466 C 0.8527 0.3687 0.38318 0.0
C467 C 0.87451 0.3819 0.43951 0.0
N468 N 0.91567 0.41391 0.45771 0.0
N469 N 0.83402 0.35849 0.23064 0.0
C470 C 0.89577 0.40052 0.40133 0.0
C471 C 0.85324 0.37285 0.28686 0.0
N472 N 0.918 0.42041 0.26491 0.0
N473 N 0.83016 0.35393 0.42235 0.0
H474 H 0.83151 0.36292 0.16088 0.0
H475 H 0.82149 0.34108 0.25179 0.0
H476 H 0.82847 0.35072 0.49254 0.0
H477 H 0.81167 0.34671 0.38658 0.0
H478 H 0.9362 0.4285 0.29995 0.0
H479 H 0.91939 0.42354 0.19445 0.0
H480 H 0.92939 0.43046 0.43706 0.0
H481 H 0.91787 0.40923 0.52743 0.0
C482 C 0.36864 0.11436 0.16753 0.0
C483 C 0.36478 0.13825 0.22505 0.0
C484 C 0.35336 0.16904 0.09149 0.0
C485 C 0.35775 0.14522 0.03393 0.0
N486 N 0.37151 0.0958 0.01399 0.0
N487 N 0.35034 0.1873 0.24593 0.0
C488 C 0.36607 0.11807 0.07108 0.0
C489 C 0.35615 0.16531 0.18817 0.0
N490 N 0.37266 0.0877 0.20583 0.0
N491 N 0.34831 0.19555 0.05312 0.0
H492 H 0.35379 0.18585 0.31656 0.0
H493 H 0.34073 0.20659 0.22535 0.0
H494 H 0.34672 0.1992 0.9827 0.0
H495 H 0.34761 0.21445 0.08974 0.0
H496 H 0.3729 0.06878 0.16925 0.0
H497 H 0.37326 0.08404 0.27618 0.0
H498 H 0.38177 0.07684 0.03485 0.0
H499 H 0.3669 0.0965 0.9439 0.0
C500 C 0.60011 0.64159 0.86368 0.0
C501 C 0.61856 0.62194 0.91257 0.0
C502 C 0.62173 0.59177 0.77684 0.0
C503 C 0.60389 0.61174 0.7281 0.0
N504 N 0.57798 0.65669 0.71832 0.0
N505 N 0.64215 0.57534 0.92203 0.0
C506 C 0.59345 0.63689 0.76976 0.0
C507 C 0.62798 0.59612 0.87116 0.0
N508 N 0.58763 0.6638 0.90886 0.0
N509 N 0.63389 0.5694 0.73145 0.0
H510 H 0.64773 0.57722 0.99084 0.0
H511 H 0.64641 0.55488 0.8984 0.0
H512 H 0.62911 0.56512 0.6629 0.0
H513 H 0.65034 0.55623 0.75897 0.0
H514 H 0.57161 0.67729 0.88059 0.0
H515 H 0.59152 0.66748 0.97814 0.0
H516 H 0.57262 0.67702 0.74073 0.0
H517 H 0.57178 0.6535 0.65013 0.0
C518 C 0.15941 0.88653 0.58068 0.0
C519 C 0.14406 0.86342 0.53975 0.0
C520 C 0.11877 0.85342 0.68297 0.0
C521 C 0.13524 0.87563 0.72552 0.0
N522 N 0.17288 0.91197 0.71867 0.0
N523 N 0.11218 0.82246 0.55189 0.0
C524 C 0.1562 0.89165 0.67557 0.0
C525 C 0.12446 0.84625 0.59079 0.0
N526 N 0.17586 0.90448 0.52758 0.0
N527 N 0.09761 0.83927 0.73071 0.0
H528 H 0.11579 0.81666 0.48445 0.0
H529 H 0.10014 0.80723 0.58765 0.0
H530 H 0.09431 0.84223 0.80024 0.0
H531 H 0.08228 0.82554 0.70087 0.0
H532 H 0.18491 0.92364 0.55026 0.0
H533 H 0.17884 0.90138 0.45793 0.0
H534 H 0.19105 0.92177 0.68995 0.0
H535 H 0.16953 0.91815 0.78569 0.0
C536 C 0.85821 0.65081 0.63548 0.0
C537 C 0.87617 0.6288 0.6748 0.0
C538 C 0.88107 0.60667 0.52447 0.0
C539 C 0.86374 0.62901 0.48464 0.0
N540 N 0.83647 0.6729 0.49834 0.0
N541 N 0.89945 0.58263 0.66206 0.0
C542 C 0.85205 0.65101 0.53938 0.0
C543 C 0.88637 0.60596 0.62064 0.0
N544 N 0.84709 0.67146 0.69045 0.0
N545 N 0.89268 0.58619 0.46988 0.0
H546 H 0.90351 0.58091 0.73229 0.0
H547 H 0.90426 0.56375 0.62857 0.0
H548 H 0.887 0.58418 0.40081 0.0
H549 H 0.90893 0.57184 0.4915 0.0
H550 H 0.83139 0.68645 0.6697 0.0
H551 H 0.85297 0.67332 0.7594 0.0
H552 H 0.82929 0.69106 0.53144 0.0
H553 H 0.83144 0.67369 0.42858 0.0
C554 C 0.09311 0.11062 0.43166 0.0
C555 C 0.11769 0.12593 0.46702 0.0
C556 C 0.13698 0.13153 0.31245 0.0
C557 C 0.11355 0.11446 0.27821 0.0
N558 N 0.07046 0.08566 0.30386 0.0
N559 N 0.16546 0.14689 0.44427 0.0
C560 C 0.09205 0.10321 0.33759 0.0
C561 C 0.14017 0.13552 0.40817 0.0
N562 N 0.07006 0.10452 0.48704 0.0
N563 N 0.15639 0.14379 0.25355 0.0
H564 H 0.16899 0.14967 0.51398 0.0
H565 H 0.18406 0.15124 0.4065 0.0
H566 H 0.15678 0.13927 0.18401 0.0
H567 H 0.17122 0.15973 0.2725 0.0
H568 H 0.05019 0.09604 0.46378 0.0
H569 H 0.06972 0.11017 0.55572 0.0
H570 H 0.0564 0.07385 0.34489 0.0
H571 H 0.06747 0.08156 0.23439 0.0
C572 C 0.60132 0.39169 0.12446 0.0
C573 C 0.61763 0.37475 0.18916 0.0
C574 C 0.64424 0.35201 0.06531 0.0
C575 C 0.62836 0.36933 0.00082 0.0
N576 N 0.59023 0.40373 0.96517 0.0
N577 N 0.65594 0.34049 0.22437 0.0
C578 C 0.60636 0.38856 0.02935 0.0
C579 C 0.63951 0.35541 0.16039 0.0
N580 N 0.58235 0.41204 0.15458 0.0
N581 N 0.66253 0.33108 0.03505 0.0
H582 H 0.65157 0.3405 0.29402 0.0
H583 H 0.67477 0.32903 0.20975 0.0
H584 H 0.66609 0.32747 0.96599 0.0
H585 H 0.67262 0.31571 0.07712 0.0
H586 H 0.57209 0.42737 0.11281 0.0
H587 H 0.57794 0.41493 0.22341 0.0
H588 H 0.57147 0.41537 0.97924 0.0
H589 H 0.59482 0.40388 0.89568 0.0
C590 C 0.39315 0.85945 0.8438 0.0
C591 C 0.36596 0.86357 0.88716 0.0
C592 C 0.3429 0.87912 0.74125 0.0
C593 C 0.37015 0.87513 0.69792 0.0
N594 N 0.42168 0.86341 0.70596 0.0
N595 N 0.31428 0.87475 0.87879 0.0
C596 C 0.39541 0.86582 0.74877 0.0
C597 C 0.34059 0.8725 0.83615 0.0
N598 N 0.41631 0.84787 0.89271 0.0
N599 N 0.31986 0.89125 0.69308 0.0
H600 H 0.31211 0.87292 0.94941 0.0
H601 H 0.29419 0.87724 0.84451 0.0
H602 H 0.32075 0.89692 0.62404 0.0
H603 H 0.30036 0.89769 0.72197 0.0
H604 H 0.43594 0.84155 0.86441 0.0
H605 H 0.41542 0.8427 0.96212 0.0
H606 H 0.44179 0.86078 0.73996 0.0
H607 H 0.42372 0.86501 0.63522 0.0
C608 C 0.14205 0.72419 0.13357 0.0
C609 C 0.12152 0.70744 0.18332 0.0
C610 C 0.10229 0.75178 0.24892 0.0
C611 C 0.11934 0.76815 0.18758 0.0
N612 N 0.15377 0.77028 0.0653 0.0
N613 N 0.07931 0.70629 0.28188 0.0
C614 C 0.13875 0.75445 0.12813 0.0
C615 C 0.10107 0.72144 0.24026 0.0
N616 N 0.16566 0.71138 0.09533 0.0
N617 N 0.08737 0.76523 0.31606 0.0
H618 H 0.07664 0.68425 0.27699 0.0
H619 H 0.06197 0.71595 0.31481 0.0
H620 H 0.0873 0.78744 0.32317 0.0
H621 H 0.07736 0.7543 0.36952 0.0
H622 H 0.1828 0.72278 0.06609 0.0
H623 H 0.16992 0.68954 0.10207 0.0
H624 H 0.1655 0.76116 0.0128 0.0
H625 H 0.15278 0.7926 0.06152 0.0
C626 C 0.50205 0.85025 0.3305 0.0
C627 C 0.51746 0.87522 0.35915 0.0
C628 C 0.46963 0.89934 0.37658 0.0
C629 C 0.45502 0.87615 0.33332 0.0
N630 N 0.45792 0.83007 0.26246 0.0
N631 N 0.51501 0.92575 0.39497 0.0
C632 C 0.4715 0.85189 0.30773 0.0
C633 C 0.50101 0.90032 0.37938 0.0
N634 N 0.51609 0.82439 0.33097 0.0
N635 N 0.45358 0.92056 0.41496 0.0
H636 H 0.5376 0.92847 0.39071 0.0
H637 H 0.50394 0.94508 0.4019 0.0
H638 H 0.43071 0.92117 0.41129 0.0
H639 H 0.46287 0.9361 0.45709 0.0
H640 H 0.50543 0.80508 0.31799 0.0
H641 H 0.53757 0.82168 0.35548 0.0
H642 H 0.46928 0.81374 0.23078 0.0
H643 H 0.4353 0.82933 0.25255 0.0
C644 C 0.35236 0.27731 0.62704 0.0
C645 C 0.36894 0.29613 0.68274 0.0
C646 C 0.38326 0.25599 0.78267 0.0
C647 C 0.37227 0.23672 0.7157 0.0
N648 N 0.34828 0.22946 0.56817 0.0
N649 N 0.40139 0.30376 0.81286 0.0
C650 C 0.35686 0.2474 0.63683 0.0
C651 C 0.38444 0.28569 0.76126 0.0
N652 N 0.33217 0.28811 0.56529 0.0
N653 N 0.39166 0.24603 0.86757 0.0
H654 H 0.40256 0.32576 0.80025 0.0
H655 H 0.41586 0.29659 0.86436 0.0
H656 H 0.3898 0.22454 0.88707 0.0
H657 H 0.3973 0.25946 0.92148 0.0
H658 H 0.31739 0.2753 0.529 0.0
H659 H 0.32809 0.31004 0.55797 0.0
H660 H 0.33965 0.2368 0.50559 0.0
H661 H 0.35233 0.20751 0.56938 0.0
C662 C 0.96354 0.1369 0.03003 0.0
C663 C 0.95101 0.12718 0.94656 0.0
C664 C -0.00011 0.11838 0.88687 0.0
C665 C 0.01255 0.12781 0.97077 0.0
N666 N 0.00637 0.13714 0.1311 0.0
N667 N 0.95649 0.10002 0.80912 0.0
C668 C -0.00568 0.13429 0.04529 0.0
C669 C 0.969 0.11505 0.87943 0.0
N670 N 0.9464 0.14987 0.09275 0.0
N671 N 0.01693 0.11439 0.8124 0.0
H672 H 0.93389 0.09666 0.80297 0.0
H673 H 0.96864 0.08836 0.76303 0.0
H674 H 0.03957 0.11746 0.8132 0.0
H675 H 0.00825 0.11054 0.74724 0.0
H676 H 0.95495 0.16033 0.14989 0.0
H677 H 0.92373 0.15201 0.08451 0.0
H678 H -0.00612 0.13932 0.18935 0.0
H679 H 0.0287 0.13417 0.14543 0.0
C680 C 0.12671 0.25278 0.89536 0.0
C681 C 0.1101 0.26514 0.82162 0.0
C682 C 0.09519 0.21718 0.77249 0.0
C683 C 0.11373 0.20468 0.84137 0.0
N684 N 0.15377 0.21123 0.95049 0.0
N685 N 0.08647 0.25835 0.67411 0.0
C686 C 0.13151 0.22266 0.89761 0.0
C687 C 0.0968 0.24709 0.75523 0.0
N688 N 0.13678 0.26937 0.9656 0.0
N689 N 0.07483 0.20097 0.72662 0.0
H690 H 0.08846 0.27999 0.65727 0.0
H691 H 0.07919 0.24574 0.6199 0.0
H692 H 0.07135 0.17931 0.74068 0.0
H693 H 0.05909 0.20981 0.68183 0.0
H694 H 0.14629 0.26079 0.02536 0.0
H695 H 0.13315 0.29137 0.96845 0.0
H696 H 0.16898 0.22375 0.98616 0.0
H697 H 0.15917 0.18953 0.95038 0.0
C698 C 0.0405 0.888 0.02363 0.0
C699 C 0.05372 0.87361 0.10044 0.0
C700 C 0.00462 0.85668 0.14464 0.0
C701 C 0.99276 0.8667 0.0596 0.0
N702 N -0.00049 0.89114 0.91538 0.0
N703 N 0.04779 0.84222 0.23252 0.0
C704 C 0.01078 0.88206 -0.00182 0.0
C705 C 0.03558 0.85772 0.16139 0.0
N706 N 0.05578 0.90879 0.97835 0.0
N707 N 0.98631 0.84609 0.20973 0.0
H708 H 0.07006 0.84209 0.24932 0.0
H709 H 0.0361 0.82741 0.27117 0.0
H710 H 0.96376 0.84385 0.19897 0.0
H711 H 0.99307 0.84182 0.27703 0.0
H712 H 0.04655 0.9219 0.92724 0.0
H713 H 0.07673 0.91527 -0.00079 0.0
H714 H 0.01243 0.89933 0.86332 0.0
H715 H 0.97742 0.8889 0.89652 0.0
C716 C 0.36911 0.7402 0.32473 0.0
C717 C 0.37503 0.71923 0.25874 0.0
C718 C 0.37797 0.75676 0.14092 0.0
C719 C 0.37712 0.77803 0.20935 0.0
N720 N 0.37648 0.78922 0.37078 0.0
N721 N 0.39051 0.70793 0.10653 0.0
C722 C 0.37361 0.76964 0.30257 0.0
C723 C 0.38085 0.72757 0.16736 0.0
N724 N 0.35883 0.73204 0.40815 0.0
N725 N 0.37493 0.76422 0.05053 0.0
H726 H 0.39378 0.68642 0.12365 0.0
H727 H 0.39808 0.71356 0.04203 0.0
H728 H 0.37103 0.78518 0.02805 0.0
H729 H 0.37279 0.7492 -0.00125 0.0
H730 H 0.3511 0.74656 0.45539 0.0
H731 H 0.35539 0.71063 0.42642 0.0
H732 H 0.37682 0.78356 0.43993 0.0
H733 H 0.38169 0.81067 0.35936 0.0
C734 C 0.48909 0.11776 0.59708 0.0
C735 C 0.5011 0.13849 0.53669 0.0
C736 C 0.45329 0.16174 0.52022 0.0
C737 C 0.44072 0.13973 0.57499 0.0
N738 N 0.44544 0.09148 0.63627 0.0
N739 N 0.49212 0.17356 0.41652 0.0
C740 C 0.45821 0.11602 0.60432 0.0
C741 C 0.48235 0.1583 0.49016 0.0
N742 N 0.50681 0.10081 0.6515 0.0
N743 N 0.4386 0.18673 0.50166 0.0
H744 H 0.51296 0.17062 0.39014 0.0
H745 H 0.47835 0.18646 0.37566 0.0
H746 H 0.41834 0.19166 0.52883 0.0
H747 H 0.44825 0.20408 0.4682 0.0
H748 H 0.49863 0.08751 0.70281 0.0
H749 H 0.52962 0.10205 0.65234 0.0
H750 H 0.45737 0.0729 0.65142 0.0
H751 H 0.42277 0.0885 0.63666 0.0
C752 C 0.88883 0.26175 0.73082 0.0
C753 C 0.87587 0.24326 0.79606 0.0
C754 C 0.85325 0.28474 0.86661 0.0
C755 C 0.87082 0.30326 0.81277 0.0
N756 N 0.91028 0.30827 0.70531 0.0
N757 N 0.84921 0.23777 0.93654 0.0
C758 C 0.88985 0.29154 0.74739 0.0
C759 C 0.85882 0.25484 0.86668 0.0
N760 N 0.89965 0.25096 0.65206 0.0
N761 N 0.83068 0.2955 0.91554 0.0
H762 H 0.8536 0.21591 0.94168 0.0
H763 H 0.83936 0.24592 0.99427 0.0
H764 H 0.82492 0.31711 0.91376 0.0
H765 H 0.81566 0.28251 0.94929 0.0
H766 H 0.90688 0.26399 0.59863 0.0
H767 H 0.89823 0.2293 0.63588 0.0
H768 H 0.92623 0.29991 0.6633 0.0
H769 H 0.91359 0.32981 0.72016 0.0
C770 C 0.59106 0.73667 0.18634 0.0
C771 C 0.59745 0.75704 0.25531 0.0
C772 C 0.62011 0.71891 0.34989 0.0
C773 C 0.60909 0.69813 0.28831 0.0
N774 N 0.58 0.68716 0.15328 0.0
N775 N 0.61386 0.76627 0.4108 0.0
C776 C 0.59361 0.70694 0.20754 0.0
C777 C 0.61111 0.74791 0.33912 0.0
N778 N 0.58365 0.7456 0.09952 0.0
N779 N 0.6395 0.71097 0.41822 0.0
H780 H 0.60602 0.78722 0.4086 0.0
H781 H 0.62104 0.75975 0.47594 0.0
H782 H 0.64697 0.68996 0.42688 0.0
H783 H 0.65046 0.72567 0.45968 0.0
H784 H 0.58145 0.7316 0.04493 0.0
H785 H 0.58294 0.76715 0.07986 0.0
H786 H 0.56534 0.69282 0.10041 0.0
H787 H 0.58133 0.66515 0.16573 0.0
C788 C 0.85115 0.74238 0.23463 0.0
C789 C 0.87414 0.7277 0.19168 0.0
C790 C 0.89615 0.77335 0.14829 0.0
C791 C 0.87155 0.78837 0.18254 0.0
N792 N 0.82123 0.78502 0.23288 0.0
N793 N 0.91287 0.72915 0.08277 0.0
C794 C 0.84771 0.77231 0.21868 0.0
C795 C 0.89467 0.74318 0.13978 0.0
N796 N 0.83264 0.72785 0.29084 0.0
N797 N 0.92184 0.78724 0.1304 0.0
H798 H 0.91133 0.70715 0.07241 0.0
H799 H 0.92674 0.73984 0.03799 0.0
H800 H 0.92568 0.80857 0.14666 0.0
H801 H 0.94077 0.77653 0.11151 0.0
H802 H 0.81769 0.73809 0.33217 0.0
H803 H 0.83367 0.70571 0.3005 0.0
H804 H 0.80276 0.77357 0.25287 0.0
H805 H 0.81647 0.80608 0.21342 0.0
C806 C 0.60338 0.21238 0.7429 0.0
C807 C 0.61831 0.20173 0.66665 0.0
C808 C 0.62967 0.25077 0.61678 0.0
C809 C 0.61609 0.26147 0.69595 0.0
N810 N 0.59782 0.25173 0.84699 0.0
N811 N 0.65214 0.21002 0.54502 0.0
C812 C 0.60532 0.24203 0.76298 0.0
C813 C 0.63363 0.22073 0.60829 0.0
N814 N 0.58616 0.19455 0.7936 0.0
N815 N 0.63696 0.26888 0.54666 0.0
H816 H 0.65567 0.1881 0.5376 0.0
H817 H 0.66614 0.22285 0.50675 0.0
H818 H 0.63325 0.29088 0.54722 0.0
H819 H 0.64403 0.26172 0.48373 0.0
H820 H 0.57212 0.20189 0.84336 0.0
H821 H 0.58424 0.17268 0.78121 0.0
H822 H 0.59232 0.23813 0.901 0.0
H823 H 0.60029 0.27307 0.86593 0.0
C824 C 0.98642 0.38449 0.87604 0.0
C825 C 0.97327 0.37342 0.95616 0.0
C826 C 0.02189 0.36322 0.02352 0.0
C827 C 0.03499 0.37628 0.94648 0.0
N828 N 0.02957 0.4063 0.81141 0.0
N829 N 0.97872 0.36033 0.1161 0.0
C830 C 0.01719 0.38912 0.8764 0.0
C831 C 0.99108 0.36525 0.03307 0.0
N832 N 0.96996 0.38915 0.79799 0.0
N833 N 0.03847 0.34756 0.08506 0.0
H834 H 0.95636 0.36296 0.12708 0.0
H835 H 0.9911 0.35689 0.17601 0.0
H836 H 0.06097 0.34449 0.07874 0.0
H837 H 0.02939 0.3353 0.13735 0.0
H838 H 0.97913 0.39436 0.73532 0.0
H839 H 0.9475 0.38508 0.79327 0.0
H840 H 0.01725 0.41833 0.76392 0.0
H841 H 0.05196 0.41096 0.81117 0.0
C842 C 0.45408 0.63221 0.47874 0.0
C843 C 0.44267 0.61258 0.41398 0.0
C844 C 0.49203 0.60159 0.36397 0.0
C845 C 0.50353 0.62037 0.43141 0.0
N846 N 0.49621 0.64636 0.57062 0.0
N847 N 0.4506 0.5728 0.31432 0.0
C848 C 0.48476 0.63344 0.49447 0.0
C849 C 0.46164 0.59533 0.36289 0.0
N850 N 0.43593 0.6508 0.52153 0.0
N851 N 0.50958 0.59116 0.29755 0.0
H852 H 0.42836 0.56744 0.31346 0.0
H853 H 0.4638 0.5578 0.28298 0.0
H854 H 0.53182 0.59599 0.29312 0.0
H855 H 0.50147 0.57982 0.24159 0.0
H856 H 0.44368 0.66772 0.56104 0.0
H857 H 0.41322 0.65095 0.51174 0.0
H858 H 0.48331 0.65386 0.62307 0.0
H859 H 0.51865 0.6467 0.58626 0.0
C860 C 0.49736 0.34059 0.55683 0.0
C861 C 0.48098 0.36535 0.53092 0.0
C862 C 0.52561 0.39439 0.54117 0.0
C863 C 0.5423 0.36907 0.5563 0.0
N864 N 0.54473 0.31743 0.55638 0.0
N865 N 0.48057 0.41471 0.47894 0.0
C866 C 0.52839 0.34194 0.55782 0.0
C867 C 0.49535 0.39202 0.5178 0.0
N868 N 0.48338 0.31613 0.58425 0.0
N869 N 0.53834 0.42069 0.55199 0.0
H870 H 0.45872 0.41347 0.45705 0.0
H871 H 0.4908 0.43376 0.45968 0.0
H872 H 0.56037 0.4234 0.57065 0.0
H873 H 0.52639 0.43971 0.55101 0.0
H874 H 0.49449 0.29843 0.61198 0.0
H875 H 0.46063 0.3146 0.58879 0.0
H876 H 0.53549 0.29716 0.54854 0.0
H877 H 0.56757 0.31758 0.55317 0.0
C878 C 0.00479 0.61896 0.98535 0.0
C879 C 0.01997 0.63959 0.0387 0.0
C880 C 0.97392 0.65439 0.10675 0.0
C881 C 0.95906 0.63221 0.05892 0.0
N882 N 0.96083 0.59053 0.96346 0.0
N883 N 0.02029 0.6743 0.15905 0.0
C884 C 0.97462 0.61371 0.00098 0.0
C885 C 0.00488 0.65665 0.10168 0.0
N886 N 0.01894 0.60524 0.91715 0.0
N887 N 0.95837 0.67403 0.15429 0.0
H888 H 0.04293 0.67699 0.15588 0.0
H889 H 0.0111 0.68461 0.21417 0.0
H890 H 0.93577 0.67284 0.16186 0.0
H891 H 0.96744 0.69278 0.18035 0.0
H892 H 0.00837 0.59219 0.86957 0.0
H893 H 0.0409 0.60893 0.90271 0.0
H894 H 0.97175 0.57433 0.92987 0.0
H895 H 0.93866 0.58622 0.97221 0.0
C896 C 0.1388 0.52486 0.15989 0.0
C897 C 0.11754 0.5429 0.11589 0.0
C898 C 0.0968 0.50169 0.03432 0.0
C899 C 0.11727 0.48353 0.08066 0.0
N900 N 0.16072 0.4775 0.17589 0.0
N901 N 0.0732 0.5481 0.02441 0.0
C902 C 0.13925 0.49505 0.13992 0.0
C903 C 0.0958 0.53123 0.05615 0.0
N904 N 0.1575 0.53608 0.22445 0.0
N905 N 0.07913 0.49076 0.96647 0.0
H906 H 0.07144 0.56965 0.04054 0.0
H907 H 0.05489 0.54039 0.98878 0.0
H908 H 0.07967 0.46926 0.94791 0.0
H909 H 0.06598 0.50327 0.92274 0.0
H910 H 0.17176 0.52409 0.26609 0.0
H911 H 0.15734 0.55762 0.24148 0.0
H912 H 0.179 0.48461 0.21281 0.0
H913 H 0.16147 0.45559 0.16371 0.0
C914 C 0.7011 0.90885 0.31263 0.0
C915 C 0.68778 0.88239 0.33581 0.0
C916 C 0.73667 0.86003 0.35168 0.0
C917 C 0.7499 0.88607 0.32215 0.0
N918 N 0.74366 0.93278 0.25234 0.0
N919 N 0.69235 0.83151 0.36426 0.0
C920 C 0.7318 0.90985 0.29703 0.0
C921 C 0.70542 0.85755 0.35062 0.0
N922 N 0.6844 0.93309 0.30451 0.0
N923 N 0.75378 0.83819 0.38604 0.0
H924 H 0.66976 0.82895 0.37067 0.0
H925 H 0.70371 0.81218 0.36331 0.0
H926 H 0.77658 0.8392 0.39029 0.0
H927 H 0.74537 0.82 0.41801 0.0
H928 H 0.69333 0.95357 0.29918 0.0
H929 H 0.66162 0.93298 0.30934 0.0
H930 H 0.73137 0.94967 0.2244 0.0
H931 H 0.76544 0.93311 0.23333 0.0
C932 C 0.33706 0.46766 0.60705 0.0
C933 C 0.36189 0.4503 0.59099 0.0
C934 C 0.38318 0.48925 0.50104 0.0
C935 C 0.3612 0.5081 0.53104 0.0
N936 N 0.31825 0.51565 0.62247 0.0
N937 N 0.41139 0.44694 0.53816 0.0
C938 C 0.33818 0.49744 0.58609 0.0
C939 C 0.38564 0.46163 0.5414 0.0
N940 N 0.31211 0.45559 0.64008 0.0
N941 N 0.40155 0.49763 0.43318 0.0
H942 H 0.41456 0.42757 0.57282 0.0
H943 H 0.43036 0.45561 0.51052 0.0
H944 H 0.39967 0.51751 0.39998 0.0
H945 H 0.41627 0.48369 0.40334 0.0
H946 H 0.29243 0.46674 0.64491 0.0
H947 H 0.3103 0.43368 0.65324 0.0
H948 H 0.30368 0.50933 0.6728 0.0
H949 H 0.31745 0.53748 0.60775 0.0
C950 C 0.78735 0.0951 0.81063 0.0
C951 C 0.79754 0.11947 0.85833 0.0
C952 C 0.74803 0.13933 0.85951 0.0
C953 C 0.73754 0.11439 0.81469 0.0
N954 N 0.74749 0.0727 0.72524 0.0
N955 N 0.79021 0.16796 0.90575 0.0
C956 C 0.75736 0.09355 0.78302 0.0
C957 C 0.7787 0.14277 0.87463 0.0
N958 N 0.80623 0.07308 0.79472 0.0
N959 N 0.7287 0.15869 0.89321 0.0
H960 H 0.81265 0.1708 0.91804 0.0
H961 H 0.77806 0.18671 0.91116 0.0
H962 H 0.70605 0.15705 0.88382 0.0
H963 H 0.73488 0.17537 0.936 0.0
H964 H 0.79956 0.05317 0.77069 0.0
H965 H 0.82871 0.07441 0.80925 0.0
H966 H 0.76122 0.05834 0.69322 0.0
H967 H 0.72567 0.07137 0.70259 0.0
C968 C 0.8885 0.50975 0.93985 0.0
C969 C 0.86238 0.52507 0.91678 0.0
C970 C 0.83777 0.48011 0.87372 0.0
C971 C 0.86455 0.46525 0.88997 0.0
N972 N 0.91585 0.46524 0.93286 0.0
N973 N 0.81051 0.52469 0.88157 0.0
C974 C 0.88996 0.47984 0.9225 0.0
C975 C 0.83651 0.51014 0.8893 0.0
N976 N 0.91181 0.52367 0.97941 0.0
N977 N 0.81395 0.46565 0.8391 0.0
H978 H 0.80878 0.54656 0.89372 0.0
H979 H 0.79019 0.51508 0.87029 0.0
H980 H 0.81382 0.44357 0.82965 0.0
H981 H 0.79471 0.47539 0.81521 0.0
H982 H 0.93028 0.51344 0.00713 0.0
H983 H 0.9119 0.5455 0.99181 0.0
H984 H 0.9361 0.47489 0.94517 0.0
H985 H 0.91754 0.44326 0.92346 0.0
C986 C 0.23008 0.13626 0.67822 0.0
C987 C 0.22059 0.10949 0.71444 0.0
C988 C 0.2712 0.09179 0.71928 0.0
C989 C 0.28059 0.11852 0.68286 0.0
N990 N 0.27071 0.16831 0.64842 0.0
N991 N 0.23187 0.06398 0.78615 0.0
C992 C 0.26051 0.14138 0.66816 0.0
C993 C 0.24112 0.08787 0.73988 0.0
N994 N 0.20996 0.15646 0.65039 0.0
N995 N 0.29087 0.06988 0.73125 0.0
H996 H 0.20992 0.06037 0.80125 0.0
H997 H 0.24597 0.04883 0.8159 0.0
H998 H 0.31323 0.07215 0.71951 0.0
H999 H 0.28498 0.04891 0.74733 0.0
H1000 H 0.21519 0.17454 0.6116 0.0
H1001 H 0.18754 0.15444 0.6609 0.0
H1002 H 0.25757 0.18653 0.64676 0.0
H1003 H 0.29294 0.17305 0.64183 0.0
C1004 C 0.60624 0.52566 0.33238 0.0
C1005 C 0.62527 0.54585 0.37407 0.0
C1006 C 0.64636 0.50806 0.47351 0.0
C1007 C 0.63128 0.48741 0.42007 0.0
N1008 N 0.59532 0.47566 0.30326 0.0
N1009 N 0.66193 0.55767 0.48827 0.0
C1010 C 0.61038 0.49599 0.35169 0.0
C1011 C 0.64449 0.53754 0.44727 0.0
N1012 N 0.58411 0.53513 0.27501 0.0
N1013 N 0.66244 0.49933 0.54878 0.0
H1014 H 0.66007 0.5795 0.47295 0.0
H1015 H 0.67878 0.55288 0.53512 0.0
H1016 H 0.66415 0.47784 0.5687 0.0
H1017 H 0.67214 0.51327 0.5954 0.0
H1018 H 0.56782 0.52196 0.24761 0.0
H1019 H 0.58054 0.55686 0.2612 0.0
H1020 H 0.58234 0.48011 0.24539 0.0
H1021 H 0.5967 0.45385 0.31921 0.0
C1022 C 0.27288 0.8627 0.17191 0.0
C1023 C 0.28407 0.88314 0.23513 0.0
C1024 C 0.23467 0.90454 0.24312 0.0
C1025 C 0.22325 0.88306 0.18429 0.0
N1026 N 0.23047 0.8397 0.10047 0.0
N1027 N 0.27518 0.92159 0.33904 0.0
C1028 C 0.24216 0.86176 0.15007 0.0
C1029 C 0.26478 0.90349 0.27317 0.0
N1030 N 0.2917 0.84385 0.13336 0.0
N1031 N 0.21686 0.92657 0.26766 0.0
H1032 H 0.29715 0.92212 0.36024 0.0
H1033 H 0.26187 0.93475 0.37719 0.0
H1034 H 0.19488 0.928 0.24662 0.0
H1035 H 0.22422 0.94457 0.30247 0.0
H1036 H 0.28618 0.83111 0.07778 0.0
H1037 H 0.31352 0.84177 0.15485 0.0
H1038 H 0.24217 0.82161 0.08231 0.0
H1039 H 0.20828 0.83842 0.08207 0.0
C1040 C 0.59747 0.00074 0.59581 0.0
C1041 C 0.61868 0.98969 0.53598 0.0
C1042 C 0.6403 0.03764 0.51756 0.0
C1043 C 0.62089 0.04806 0.58378 0.0
N1044 N 0.58121 0.04062 0.68727 0.0
N1045 N 0.655 0.99816 0.42207 0.0
C1046 C 0.5992 0.02999 0.62221 0.0
C1047 C 0.63858 0.00837 0.49155 0.0
N1048 N 0.57552 0.98334 0.62636 0.0
N1049 N 0.66127 0.05549 0.48306 0.0
H1050 H 0.65357 0.97701 0.40047 0.0
H1051 H 0.66817 0.01082 0.38074 0.0
H1052 H 0.66227 0.07728 0.49785 0.0
H1053 H 0.67837 0.0488 0.44265 0.0
H1054 H 0.55785 0.99036 0.66377 0.0
H1055 H 0.57358 0.96189 0.60875 0.0
H1056 H 0.5674 0.02815 0.72706 0.0
H1057 H 0.5809 0.06223 0.70456 0.0
C1058 C 0.20763 0.40463 0.82975 0.0
C1059 C 0.19696 0.37866 0.86758 0.0
C1060 C 0.24599 0.35747 0.86044 0.0
C1061 C 0.25628 0.38331 0.81899 0.0
N1062 N 0.24402 0.42639 0.73432 0.0
N1063 N 0.20393 0.32844 0.90144 0.0
C1064 C 0.23617 0.40534 0.79453 0.0
C1065 C 0.21553 0.35446 0.87773 0.0
N1066 N 0.19114 0.42906 0.83126 0.0
N1067 N 0.26511 0.33622 0.8865 0.0
H1068 H 0.18179 0.32554 0.9156 0.0
H1069 H 0.21564 0.30932 0.89974 0.0
H1070 H 0.28709 0.33606 0.86953 0.0
H1071 H 0.25938 0.31908 0.92881 0.0
H1072 H 0.1993 0.44909 0.81233 0.0
H1073 H 0.17054 0.43 0.86056 0.0
H1074 H 0.22932 0.44158 0.70756 0.0
H1075 H 0.26413 0.42618 0.70228 0.0
C1076 C 0.88774 0.96659 0.07267 0.0
C1077 C 0.86568 0.95204 0.12336 0.0
C1078 C 0.84393 0.99864 0.1553 0.0
C1079 C 0.86154 0.01166 0.08821 0.0
N1080 N 0.89744 0.00642 0.97058 0.0
N1081 N 0.81826 0.95563 0.19506 0.0
C1082 C 0.8827 0.99523 0.04306 0.0
C1083 C 0.84261 0.96841 0.16069 0.0
N1084 N 0.91418 0.95399 0.05725 0.0
N1085 N 0.82864 0.01502 0.21448 0.0
H1086 H 0.81384 0.93389 0.18876 0.0
H1087 H 0.8005 0.96743 0.21752 0.0
H1088 H 0.82982 0.03735 0.21436 0.0
H1089 H 0.81768 0.00628 0.27012 0.0
H1090 H 0.93126 0.96474 0.02522 0.0
H1091 H 0.92065 0.93465 0.08784 0.0
H1092 H 0.91093 0.99402 0.93027 0.0
H1093 H 0.89403 0.0272 0.94549 0.0
C1094 C 0.23675 0.6373 0.23542 0.0
C1095 C 0.21799 0.61944 0.28653 0.0
C1096 C 0.26046 0.5938 0.35229 0.0
C1097 C 0.27899 0.61498 0.3139 0.0
N1098 N 0.28532 0.65725 0.21967 0.0
N1099 N 0.21108 0.57945 0.39016 0.0
C1100 C 0.26734 0.63662 0.25455 0.0
C1101 C 0.22956 0.59704 0.34314 0.0
N1102 N 0.22523 0.65423 0.16669 0.0
N1103 N 0.2725 0.57017 0.39474 0.0
H1104 H 0.18846 0.57947 0.37904 0.0
H1105 H 0.21799 0.56549 0.44238 0.0
H1106 H 0.29508 0.56689 0.40053 0.0
H1107 H 0.26036 0.5526 0.41683 0.0
H1108 H 0.23788 0.66588 0.12089 0.0
H1109 H 0.20291 0.65414 0.14943 0.0
H1110 H 0.27777 0.67544 0.18456 0.0
H1111 H 0.30788 0.65716 0.23127 0.0
C1112 C 0.34095 0.98674 0.47514 0.0
C1113 C 0.36025 0.97833 0.4053 0.0
C1114 C 0.3813 0.02676 0.40102 0.0
C1115 C 0.35893 0.03611 0.45926 0.0
N1116 N 0.31837 0.0257 0.55652 0.0
N1117 N 0.39885 0.98982 0.30081 0.0
C1118 C 0.33927 0.01616 0.49866 0.0
C1119 C 0.38058 0.99818 0.36832 0.0
N1120 N 0.32399 0.9667 0.51814 0.0
N1121 N 0.40344 0.04509 0.3783 0.0
H1122 H 0.40033 0.96868 0.2792 0.0
H1123 H 0.41147 0.00401 0.26277 0.0
H1124 H 0.40472 0.06598 0.40232 0.0
H1125 H 0.42187 0.039 0.34264 0.0
H1126 H 0.31225 0.9707 0.57676 0.0
H1127 H 0.32271 0.94537 0.49858 0.0
H1128 H 0.30105 0.0133 0.57988 0.0
H1129 H 0.31777 0.04679 0.57889 0.0
C1130 C 0.77911 0.64452 0.15244 0.0
C1131 C 0.79415 0.62038 0.11932 0.0
C1132 C 0.74829 0.59348 0.11103 0.0
C1133 C 0.73279 0.6191 0.12834 0.0
N1134 N 0.73286 0.66966 0.16142 0.0
N1135 N 0.79371 0.57191 0.06454 0.0
C1136 C 0.748 0.64478 0.14916 0.0
C1137 C 0.77895 0.59477 0.09833 0.0
N1138 N 0.79459 0.66686 0.18873 0.0
N1139 N 0.73385 0.56776 0.11062 0.0
H1140 H 0.81641 0.57164 0.05774 0.0
H1141 H 0.7833 0.55386 0.03826 0.0
H1142 H 0.71156 0.56579 0.12394 0.0
H1143 H 0.7444 0.54806 0.10688 0.0
H1144 H 0.78493 0.68374 0.22273 0.0
H1145 H 0.81742 0.66703 0.19277 0.0
H1146 H 0.7429 0.68961 0.16723 0.0
H1147 H 0.71002 0.67084 0.15876 0.0
C1148 C 0.15898 0.03247 0.96159 0.0
C1149 C 0.13185 0.04135 0.92057 0.0
C1150 C 0.11721 0.99092 0.90655 0.0
C1151 C 0.14293 0.98235 0.95639 0.0
N1152 N 0.18459 0.9959 0.05086 0.0
N1153 N 0.08217 0.02887 0.87508 0.0
C1154 C 0.16272 0.00342 0.98975 0.0
C1155 C 0.11007 0.02054 0.89896 0.0
N1156 N 0.18181 0.05132 0.96979 0.0
N1157 N 0.10021 0.97102 0.86284 0.0
H1158 H 0.07549 0.05022 0.87308 0.0
H1159 H 0.06486 0.01446 0.86723 0.0
H1160 H 0.10499 0.94922 0.86436 0.0
H1161 H 0.08305 0.97647 0.81763 0.0
H1162 H 0.20287 0.04511 0.9909 0.0
H1163 H 0.18077 0.07242 0.94567 0.0
H1164 H 0.19778 0.01089 0.08434 0.0
H1165 H 0.18748 0.97501 0.07567 0.0
C1166 C 0.72547 0.40276 0.6083 0.0
C1167 C 0.70776 0.37967 0.63902 0.0
C1168 C 0.75048 0.35837 0.7187 0.0
C1169 C 0.76869 0.37926 0.67794 0.0
N1170 N 0.77436 0.41876 0.5713 0.0
N1171 N 0.70469 0.33253 0.70875 0.0
C1172 C 0.75645 0.40085 0.61941 0.0
C1173 C 0.72058 0.3567 0.69067 0.0
N1174 N 0.71274 0.42699 0.57196 0.0
N1175 N 0.76161 0.34048 0.78563 0.0
H1176 H 0.68325 0.32969 0.68473 0.0
H1177 H 0.71376 0.31408 0.73859 0.0
H1178 H 0.78342 0.34135 0.80869 0.0
H1179 H 0.74859 0.32684 0.82448 0.0
H1180 H 0.72451 0.44553 0.55688 0.0
H1181 H 0.69009 0.42969 0.56553 0.0
H1182 H 0.76662 0.43268 0.51998 0.0
H1183 H 0.79719 0.41798 0.57678 0.0
loop_
_geom_bond_atom_site_label_1
_geom_bond_atom_site_label_2
_geom_bond_distance
_geom_bond_site_symmetry_2
_ccdc_geom_bond_type
Zn0 O6 1.969 . S
Zn0 O7 1.965 . S
Zn0 O11 2.024 . S
Zn0 O16 1.969 . S
Zn1 O8 1.969 . S
Zn1 O14 1.969 1_554 S
Zn1 O15 1.965 . S
Zn1 O17 2.024 . S
C2 O3 1.229 . S
C2 O11 1.058 . S
O3 C2 1.229 . S
C4 O5 1.229 1_554 S
C4 O17 1.058 . S
O5 C4 1.229 1_556 S
O6 Zn0 1.969 . S
O6 C9 1.267 . S
O7 Zn0 1.965 . S
O7 C18 1.260 . S
O8 Zn1 1.969 . S
O8 C18 1.258 . S
C9 O6 1.267 . S
C9 O10 1.228 . S
O10 C9 1.228 . S
O11 Zn0 2.024 . S
O11 C2 1.058 . S
C12 O13 1.228 . S
C12 O14 1.267 . S
O13 C12 1.228 . S
O14 Zn1 1.969 1_556 S
O14 C12 1.267 . S
O15 Zn1 1.965 . S
O15 C19 1.260 . S
O16 Zn0 1.969 . S
O16 C19 1.258 . S
O17 Zn1 2.024 . S
O17 C4 1.058 . S
C18 O7 1.260 . S
C18 O8 1.258 . S
C19 O15 1.260 . S
C19 O16 1.258 . S
Zn20 O26 1.969 . S
Zn20 O27 1.965 . S
Zn20 O31 2.024 . S
Zn20 O36 1.969 . S
Zn21 O28 1.969 . S
Zn21 O34 1.969 . S
Zn21 O35 1.965 . S
Zn21 O37 2.024 . S
C22 O23 1.229 . S
C22 O31 1.058 . S
O23 C22 1.229 . S
C24 O25 1.229 . S
C24 O37 1.058 . S
O25 C24 1.229 . S
O26 Zn20 1.969 . S
O26 C29 1.267 . S
O27 Zn20 1.965 . S
O27 C38 1.260 . S
O28 Zn21 1.969 . S
O28 C38 1.258 . S
C29 O26 1.267 . S
C29 O30 1.228 . S
O30 C29 1.228 . S
O31 Zn20 2.024 . S
O31 C22 1.058 . S
C32 O33 1.228 . S
C32 O34 1.267 . S
O33 C32 1.228 . S
O34 Zn21 1.969 . S
O34 C32 1.267 . S
O35 Zn21 1.965 . S
O35 C39 1.260 . S
O36 Zn20 1.969 . S
O36 C39 1.258 . S
O37 Zn21 2.024 . S
O37 C24 1.058 . S
C38 O27 1.260 . S
C38 O28 1.258 . S
C39 O35 1.260 . S
C39 O36 1.258 . S
Zn40 O46 1.969 . S
Zn40 O47 1.965 . S
Zn40 O51 2.024 . S
Zn40 O56 1.969 . S
Zn41 O48 1.969 . S
Zn41 O54 1.969 . S
Zn41 O55 1.965 . S
Zn41 O57 2.024 . S
C42 O43 1.229 . S
C42 O51 1.058 . S
O43 C42 1.229 . S
C44 O45 1.229 . S
C44 O57 1.058 . S
O45 C44 1.229 . S
O46 Zn40 1.969 . S
O46 C49 1.267 . S
O47 Zn40 1.965 . S
O47 C58 1.260 . S
O48 Zn41 1.969 . S
O48 C58 1.258 . S
C49 O46 1.267 . S
C49 O50 1.228 . S
O50 C49 1.228 . S
O51 Zn40 2.024 . S
O51 C42 1.058 . S
C52 O53 1.228 . S
C52 O54 1.267 . S
O53 C52 1.228 . S
O54 Zn41 1.969 . S
O54 C52 1.267 . S
O55 Zn41 1.965 . S
O55 C59 1.260 . S
O56 Zn40 1.969 . S
O56 C59 1.258 . S
O57 Zn41 2.024 . S
O57 C44 1.058 . S
C58 O47 1.260 . S
C58 O48 1.258 . S
C59 O55 1.260 . S
C59 O56 1.258 . S
Zn60 O66 1.969 . S
Zn60 O67 1.965 . S
Zn60 O71 2.024 . S
Zn60 O76 1.969 1_554 S
Zn61 O68 1.969 . S
Zn61 O74 1.969 . S
Zn61 O75 1.965 . S
Zn61 O77 2.024 . S
C62 O63 1.229 . S
C62 O71 1.058 . S
O63 C62 1.229 . S
C64 O65 1.229 . S
C64 O77 1.058 . S
O65 C64 1.229 . S
O66 Zn60 1.969 . S
O66 C69 1.267 . S
O67 Zn60 1.965 . S
O67 C78 1.260 1_554 S
O68 Zn61 1.969 . S
O68 C78 1.258 . S
C69 O66 1.267 . S
C69 O70 1.228 . S
O70 C69 1.228 . S
O71 Zn60 2.024 . S
O71 C62 1.058 . S
C72 O73 1.228 . S
C72 O74 1.267 . S
O73 C72 1.228 . S
O74 Zn61 1.969 . S
O74 C72 1.267 . S
O75 Zn61 1.965 . S
O75 C79 1.260 . S
O76 Zn60 1.969 1_556 S
O76 C79 1.258 . S
O77 Zn61 2.024 . S
O77 C64 1.058 . S
C78 O67 1.260 1_556 S
C78 O68 1.258 . S
C79 O75 1.260 . S
C79 O76 1.258 . S
Zn80 O86 1.969 . S
Zn80 O87 1.965 . S
Zn80 O91 2.024 . S
Zn80 O96 1.969 1_554 S
Zn81 O88 1.969 . S
Zn81 O94 1.969 . S
Zn81 O95 1.965 . S
Zn81 O97 2.024 . S
C82 O83 1.229 . S
C82 O91 1.058 . S
O83 C82 1.229 . S
C84 O85 1.229 . S
C84 O97 1.058 . S
O85 C84 1.229 . S
O86 Zn80 1.969 . S
O86 C89 1.267 . S
O87 Zn80 1.965 . S
O87 C98 1.260 1_554 S
O88 Zn81 1.969 . S
O88 C98 1.258 . S
C89 O86 1.267 . S
C89 O90 1.228 . S
O90 C89 1.228 . S
O91 Zn80 2.024 . S
O91 C82 1.058 . S
C92 O93 1.228 . S
C92 O94 1.267 . S
O93 C92 1.228 . S
O94 Zn81 1.969 . S
O94 C92 1.267 . S
O95 Zn81 1.965 . S
O95 C99 1.260 . S
O96 Zn80 1.969 1_556 S
O96 C99 1.258 . S
O97 Zn81 2.024 . S
O97 C84 1.058 . S
C98 O87 1.260 1_556 S
C98 O88 1.258 . S
C99 O95 1.260 . S
C99 O96 1.258 . S
Zn100 O106 1.969 . S
Zn100 O107 1.965 . S
Zn100 O111 2.024 . S
Zn100 O116 1.969 . S
Zn101 O108 1.969 . S
Zn101 O114 1.969 1_554 S
Zn101 O115 1.965 . S
Zn101 O117 2.024 . S
C102 O103 1.229 . S
C102 O111 1.058 . S
O103 C102 1.229 . S
C104 O105 1.229 . S
C104 O117 1.058 . S
O105 C104 1.229 . S
O106 Zn100 1.969 . S
O106 C109 1.267 . S
O107 Zn100 1.965 . S
O107 C118 1.260 . S
O108 Zn101 1.969 . S
O108 C118 1.258 . S
C109 O106 1.267 . S
C109 O110 1.228 . S
O110 C109 1.228 . S
O111 Zn100 2.024 . S
O111 C102 1.058 . S
C112 O113 1.228 . S
C112 O114 1.267 . S
O113 C112 1.228 . S
O114 Zn101 1.969 1_556 S
O114 C112 1.267 . S
O115 Zn101 1.965 . S
O115 C119 1.260 . S
O116 Zn100 1.969 . S
O116 C119 1.258 . S
O117 Zn101 2.024 . S
O117 C104 1.058 . S
C118 O107 1.260 . S
C118 O108 1.258 . S
C119 O115 1.260 . S
C119 O116 1.258 . S
Zn120 O126 1.969 . S
Zn120 O127 1.965 . S
Zn120 O131 2.024 . S
Zn120 O136 1.969 . S
Zn121 O128 1.969 . S
Zn121 O134 1.969 . S
Zn121 O135 1.965 . S
Zn121 O137 2.024 . S
C122 O123 1.229 . S
C122 O131 1.058 . S
O123 C122 1.229 . S
C124 O125 1.229 . S
C124 O137 1.058 . S
O125 C124 1.229 . S
O126 Zn120 1.969 . S
O126 C129 1.267 . S
O127 Zn120 1.965 . S
O127 C138 1.260 . S
O128 Zn121 1.969 . S
O128 C138 1.258 . S
C129 O126 1.267 . S
C129 O130 1.228 . S
O130 C129 1.228 . S
O131 Zn120 2.024 . S
O131 C122 1.058 . S
C132 O133 1.228 . S
C132 O134 1.267 . S
O133 C132 1.228 . S
O134 Zn121 1.969 . S
O134 C132 1.267 . S
O135 Zn121 1.965 . S
O135 C139 1.260 . S
O136 Zn120 1.969 . S
O136 C139 1.258 . S
O137 Zn121 2.024 . S
O137 C124 1.058 . S
C138 O127 1.260 . S
C138 O128 1.258 . S
C139 O135 1.260 . S
C139 O136 1.258 . S
Zn140 O146 1.969 . S
Zn140 O147 1.965 . S
Zn140 O151 2.024 . S
Zn140 O156 1.969 . S
Zn141 O148 1.969 . S
Zn141 O154 1.969 . S
Zn141 O155 1.965 . S
Zn141 O157 2.024 . S
C142 O143 1.229 . S
C142 O151 1.058 . S
O143 C142 1.229 . S
C144 O145 1.229 . S
C144 O157 1.058 . S
O145 C144 1.229 . S
O146 Zn140 1.969 . S
O146 C149 1.267 . S
O147 Zn140 1.965 . S
O147 C158 1.260 . S
O148 Zn141 1.969 . S
O148 C158 1.258 . S
C149 O146 1.267 . S
C149 O150 1.228 . S
O150 C149 1.228 . S
O151 Zn140 2.024 . S
O151 C142 1.058 . S
C152 O153 1.228 . S
C152 O154 1.267 . S
O153 C152 1.228 . S
O154 Zn141 1.969 . S
O154 C152 1.267 . S
O155 Zn141 1.965 . S
O155 C159 1.260 . S
O156 Zn140 1.969 . S
O156 C159 1.258 . S
O157 Zn141 2.024 . S
O157 C144 1.058 . S
C158 O147 1.260 . S
C158 O148 1.258 . S
C159 O155 1.260 . S
C159 O156 1.258 . S
Zn160 O166 1.969 1_556 S
Zn160 O167 1.965 . S
Zn160 O171 2.024 . S
Zn160 O176 1.969 . S
Zn161 O168 1.969 . S
Zn161 O174 1.969 . S
Zn161 O175 1.965 . S
Zn161 O177 2.024 . S
C162 O163 1.229 1_556 S
C162 O171 1.058 . S
O163 C162 1.229 1_554 S
C164 O165 1.229 . S
C164 O177 1.058 . S
O165 C164 1.229 . S
O166 Zn160 1.969 1_554 S
O166 C169 1.267 . S
O167 Zn160 1.965 . S
O167 C178 1.260 . S
O168 Zn161 1.969 . S
O168 C178 1.258 . S
C169 O166 1.267 . S
C169 O170 1.228 . S
O170 C169 1.228 . S
O171 Zn160 2.024 . S
O171 C162 1.058 . S
C172 O173 1.228 . S
C172 O174 1.267 . S
O173 C172 1.228 . S
O174 Zn161 1.969 . S
O174 C172 1.267 . S
O175 Zn161 1.965 . S
O175 C179 1.260 . S
O176 Zn160 1.969 . S
O176 C179 1.258 . S
O177 Zn161 2.024 . S
O177 C164 1.058 . S
C178 O167 1.260 . S
C178 O168 1.258 . S
C179 O175 1.260 . S
C179 O176 1.258 . S
Zn180 O186 1.969 . S
Zn180 O187 1.965 . S
Zn180 O191 2.024 . S
Zn180 O196 1.969 . S
Zn181 O188 1.969 . S
Zn181 O194 1.969 . S
Zn181 O195 1.965 . S
Zn181 O197 2.024 . S
C182 O183 1.229 . S
C182 O191 1.058 . S
O183 C182 1.229 . S
C184 O185 1.229 . S
C184 O197 1.058 . S
O185 C184 1.229 . S
O186 Zn180 1.969 . S
O186 C189 1.267 . S
O187 Zn180 1.965 . S
O187 C198 1.260 . S
O188 Zn181 1.969 . S
O188 C198 1.258 . S
C189 O186 1.267 . S
C189 O190 1.228 . S
O190 C189 1.228 . S
O191 Zn180 2.024 . S
O191 C182 1.058 . S
C192 O193 1.228 . S
C192 O194 1.267 . S
O193 C192 1.228 . S
O194 Zn181 1.969 . S
O194 C192 1.267 . S
O195 Zn181 1.965 . S
O195 C199 1.260 . S
O196 Zn180 1.969 . S
O196 C199 1.258 . S
O197 Zn181 2.024 . S
O197 C184 1.058 . S
C198 O187 1.260 . S
C198 O188 1.258 . S
C199 O195 1.260 . S
C199 O196 1.258 . S
Zn200 O206 1.969 . S
Zn200 O207 1.965 . S
Zn200 O211 2.024 . S
Zn200 O216 1.969 . S
Zn201 O208 1.969 . S
Zn201 O214 1.969 . S
Zn201 O215 1.965 . S
Zn201 O217 2.024 . S
C202 O203 1.229 . S
C202 O211 1.058 . S
O203 C202 1.229 . S
C204 O205 1.229 . S
C204 O217 1.058 . S
O205 C204 1.229 . S
O206 Zn200 1.969 . S
O206 C209 1.267 . S
O207 Zn200 1.965 . S
O207 C218 1.260 . S
O208 Zn201 1.969 . S
O208 C218 1.258 . S
C209 O206 1.267 . S
C209 O210 1.228 . S
O210 C209 1.228 . S
O211 Zn200 2.024 . S
O211 C202 1.058 . S
C212 O213 1.228 . S
C212 O214 1.267 . S
O213 C212 1.228 . S
O214 Zn201 1.969 . S
O214 C212 1.267 . S
O215 Zn201 1.965 . S
O215 C219 1.260 . S
O216 Zn200 1.969 . S
O216 C219 1.258 . S
O217 Zn201 2.024 . S
O217 C204 1.058 . S
C218 O207 1.260 . S
C218 O208 1.258 . S
C219 O215 1.260 . S
C219 O216 1.258 . S
Zn220 O226 1.969 . S
Zn220 O227 1.965 . S
Zn220 O231 2.024 . S
Zn220 O236 1.969 . S
Zn221 O228 1.969 1_556 S
Zn221 O234 1.969 . S
Zn221 O235 1.965 1_556 S
Zn221 O237 2.024 1_556 S
C222 O223 1.229 . S
C222 O231 1.058 . S
O223 C222 1.229 . S
C224 O225 1.229 . S
C224 O237 1.058 1_556 S
O225 C224 1.229 . S
O226 Zn220 1.969 . S
O226 C229 1.267 . S
O227 Zn220 1.965 . S
O227 C238 1.260 . S
O228 Zn221 1.969 1_554 S
O228 C238 1.258 . S
C229 O226 1.267 . S
C229 O230 1.228 . S
O230 C229 1.228 . S
O231 Zn220 2.024 . S
O231 C222 1.058 . S
C232 O233 1.228 . S
C232 O234 1.267 . S
O233 C232 1.228 . S
O234 Zn221 1.969 . S
O234 C232 1.267 . S
O235 Zn221 1.965 1_554 S
O235 C239 1.260 . S
O236 Zn220 1.969 . S
O236 C239 1.258 . S
O237 Zn221 2.024 1_554 S
O237 C224 1.058 1_554 S
C238 O227 1.260 . S
C238 O228 1.258 . S
C239 O235 1.260 . S
C239 O236 1.258 . S
Zn240 O246 1.969 . S
Zn240 O247 1.965 . S
Zn240 O251 2.024 . S
Zn240 O256 1.969 . S
Zn241 O248 1.969 1_556 S
Zn241 O254 1.969 . S
Zn241 O255 1.965 . S
Zn241 O257 2.024 . S
C242 O243 1.229 . S
C242 O251 1.058 . S
O243 C242 1.229 . S
C244 O245 1.229 . S
C244 O257 1.058 . S
O245 C244 1.229 . S
O246 Zn240 1.969 . S
O246 C249 1.267 . S
O247 Zn240 1.965 . S
O247 C258 1.260 . S
O248 Zn241 1.969 1_554 S
O248 C258 1.258 . S
C249 O246 1.267 . S
C249 O250 1.228 . S
O250 C249 1.228 . S
O251 Zn240 2.024 . S
O251 C242 1.058 . S
C252 O253 1.228 . S
C252 O254 1.267 . S
O253 C252 1.228 . S
O254 Zn241 1.969 . S
O254 C252 1.267 . S
O255 Zn241 1.965 . S
O255 C259 1.260 1_556 S
O256 Zn240 1.969 . S
O256 C259 1.258 . S
O257 Zn241 2.024 . S
O257 C244 1.058 . S
C258 O247 1.260 . S
C258 O248 1.258 . S
C259 O255 1.260 1_554 S
C259 O256 1.258 . S
Zn260 O266 1.969 1_556 S
Zn260 O267 1.965 . S
Zn260 O271 2.024 . S
Zn260 O276 1.969 . S
Zn261 O268 1.969 . S
Zn261 O274 1.969 . S
Zn261 O275 1.965 . S
Zn261 O277 2.024 . S
C262 O263 1.229 1_556 S
C262 O271 1.058 . S
O263 C262 1.229 1_554 S
C264 O265 1.229 . S
C264 O277 1.058 . S
O265 C264 1.229 . S
O266 Zn260 1.969 1_554 S
O266 C269 1.267 . S
O267 Zn260 1.965 . S
O267 C278 1.260 . S
O268 Zn261 1.969 . S
O268 C278 1.258 . S
C269 O266 1.267 . S
C269 O270 1.228 . S
O270 C269 1.228 . S
O271 Zn260 2.024 . S
O271 C262 1.058 . S
C272 O273 1.228 . S
C272 O274 1.267 . S
O273 C272 1.228 . S
O274 Zn261 1.969 . S
O274 C272 1.267 . S
O275 Zn261 1.965 . S
O275 C279 1.260 . S
O276 Zn260 1.969 . S
O276 C279 1.258 . S
O277 Zn261 2.024 . S
O277 C264 1.058 . S
C278 O267 1.260 . S
C278 O268 1.258 . S
C279 O275 1.260 . S
C279 O276 1.258 . S
Zn280 O286 1.969 . S
Zn280 O287 1.965 . S
Zn280 O291 2.024 . S
Zn280 O296 1.969 . S
Zn281 O288 1.969 . S
Zn281 O294 1.969 . S
Zn281 O295 1.965 . S
Zn281 O297 2.024 . S
C282 O283 1.229 . S
C282 O291 1.058 . S
O283 C282 1.229 . S
C284 O285 1.229 . S
C284 O297 1.058 . S
O285 C284 1.229 . S
O286 Zn280 1.969 . S
O286 C289 1.267 . S
O287 Zn280 1.965 . S
O287 C298 1.260 . S
O288 Zn281 1.969 . S
O288 C298 1.258 . S
C289 O286 1.267 . S
C289 O290 1.228 . S
O290 C289 1.228 . S
O291 Zn280 2.024 . S
O291 C282 1.058 . S
C292 O293 1.228 . S
C292 O294 1.267 . S
O293 C292 1.228 . S
O294 Zn281 1.969 . S
O294 C292 1.267 . S
O295 Zn281 1.965 . S
O295 C299 1.260 . S
O296 Zn280 1.969 . S
O296 C299 1.258 . S
O297 Zn281 2.024 . S
O297 C284 1.058 . S
C298 O287 1.260 . S
C298 O288 1.258 . S
C299 O295 1.260 . S
C299 O296 1.258 . S
Zn300 O306 1.969 . S
Zn300 O307 1.965 . S
Zn300 O311 2.024 . S
Zn300 O316 1.969 . S
Zn301 O308 1.969 . S
Zn301 O314 1.969 . S
Zn301 O315 1.965 . S
Zn301 O317 2.024 . S
C302 O303 1.229 . S
C302 O311 1.058 . S
O303 C302 1.229 . S
C304 O305 1.229 . S
C304 O317 1.058 . S
O305 C304 1.229 . S
O306 Zn300 1.969 . S
O306 C309 1.267 1_554 S
O307 Zn300 1.965 . S
O307 C318 1.260 . S
O308 Zn301 1.969 . S
O308 C318 1.258 . S
C309 O306 1.267 1_556 S
C309 O310 1.228 1_556 S
O310 C309 1.228 1_554 S
O311 Zn300 2.024 . S
O311 C302 1.058 . S
C312 O313 1.228 . S
C312 O314 1.267 . S
O313 C312 1.228 . S
O314 Zn301 1.969 . S
O314 C312 1.267 . S
O315 Zn301 1.965 . S
O315 C319 1.260 . S
O316 Zn300 1.969 . S
O316 C319 1.258 . S
O317 Zn301 2.024 . S
O317 C304 1.058 . S
C318 O307 1.260 . S
C318 O308 1.258 . S
C319 O315 1.260 . S
C319 O316 1.258 . S
C320 C321 1.363 . S
C320 C326 1.379 . S
C320 N328 1.356 . S
C321 C320 1.363 . S
C321 C327 1.363 . S
C322 C323 1.363 . S
C322 C327 1.379 . S
C322 N329 1.356 . S
C323 C322 1.363 . S
C323 C326 1.363 . S
N324 C326 1.356 . S
N324 H336 0.984 . S
N324 H337 0.985 . S
N325 C327 1.356 . S
N325 H330 0.984 . S
N325 H331 0.985 . S
C326 C320 1.379 . S
C326 C323 1.363 . S
C326 N324 1.356 . S
C327 C321 1.363 . S
C327 C322 1.379 . S
C327 N325 1.356 . S
N328 C320 1.356 . S
N328 H334 0.984 . S
N328 H335 0.984 . S
N329 C322 1.356 . S
N329 H332 0.984 . S
N329 H333 0.985 . S
H330 N325 0.984 . S
H331 N325 0.985 . S
H332 N329 0.984 . S
H333 N329 0.985 . S
H334 N328 0.984 . S
H335 N328 0.984 . S
H336 N324 0.984 . S
H337 N324 0.985 . S
C338 C339 1.363 . S
C338 C344 1.379 . S
C338 N346 1.356 . S
C339 C338 1.363 . S
C339 C345 1.363 . S
C340 C341 1.363 . S
C340 C345 1.379 . S
C340 N347 1.356 . S
C341 C340 1.363 . S
C341 C344 1.363 . S
N342 C344 1.356 . S
N342 H354 0.984 . S
N342 H355 0.985 . S
N343 C345 1.356 1_554 S
N343 H348 0.984 . S
N343 H349 0.985 . S
C344 C338 1.379 . S
C344 C341 1.363 . S
C344 N342 1.356 . S
C345 C339 1.363 . S
C345 C340 1.379 . S
C345 N343 1.356 1_556 S
N346 C338 1.356 . S
N346 H352 0.984 . S
N346 H353 0.984 1_556 S
N347 C340 1.356 . S
N347 H350 0.984 . S
N347 H351 0.985 . S
H348 N343 0.984 . S
H349 N343 0.985 . S
H350 N347 0.984 . S
H351 N347 0.985 . S
H352 N346 0.984 . S
H353 N346 0.984 1_554 S
H354 N342 0.984 . S
H355 N342 0.985 . S
C356 C357 1.363 . S
C356 C362 1.379 . S
C356 N364 1.356 . S
C357 C356 1.363 . S
C357 C363 1.363 . S
C358 C359 1.363 . S
C358 C363 1.379 . S
C358 N365 1.356 . S
C359 C358 1.363 . S
C359 C362 1.363 . S
N360 C362 1.356 . S
N360 H372 0.984 . S
N360 H373 0.985 1_554 S
N361 C363 1.356 . S
N361 H366 0.984 . S
N361 H367 0.985 . S
C362 C356 1.379 . S
C362 C359 1.363 . S
C362 N360 1.356 . S
C363 C357 1.363 . S
C363 C358 1.379 . S
C363 N361 1.356 . S
N364 C356 1.356 . S
N364 H370 0.984 . S
N364 H371 0.984 . S
N365 C358 1.356 . S
N365 H368 0.984 . S
N365 H369 0.985 . S
H366 N361 0.984 . S
H367 N361 0.985 . S
H368 N365 0.984 . S
H369 N365 0.985 . S
H370 N364 0.984 . S
H371 N364 0.984 . S
H372 N360 0.984 . S
H373 N360 0.985 1_556 S
C374 C375 1.363 . S
C374 C380 1.379 . S
C374 N382 1.356 . S
C375 C374 1.363 . S
C375 C381 1.363 . S
C376 C377 1.363 . S
C376 C381 1.379 . S
C376 N383 1.356 . S
C377 C376 1.363 . S
C377 C380 1.363 . S
N378 C380 1.356 . S
N378 H390 0.984 . S
N378 H391 0.985 . S
N379 C381 1.356 . S
N379 H384 0.984 . S
N379 H385 0.985 . S
C380 C374 1.379 . S
C380 C377 1.363 . S
C380 N378 1.356 . S
C381 C375 1.363 . S
C381 C376 1.379 . S
C381 N379 1.356 . S
N382 C374 1.356 . S
N382 H388 0.984 . S
N382 H389 0.984 . S
N383 C376 1.356 . S
N383 H386 0.984 . S
N383 H387 0.985 . S
H384 N379 0.984 . S
H385 N379 0.985 . S
H386 N383 0.984 . S
H387 N383 0.985 . S
H388 N382 0.984 . S
H389 N382 0.984 . S
H390 N378 0.984 . S
H391 N378 0.985 . S
C392 C393 1.363 . S
C392 C398 1.379 . S
C392 N400 1.356 . S
C393 C392 1.363 . S
C393 C399 1.363 . S
C394 C395 1.363 . S
C394 C399 1.379 . S
C394 N401 1.356 . S
C395 C394 1.363 . S
C395 C398 1.363 . S
N396 C398 1.356 . S
N396 H408 0.984 . S
N396 H409 0.985 . S
N397 C399 1.356 . S
N397 H402 0.984 . S
N397 H403 0.985 . S
C398 C392 1.379 . S
C398 C395 1.363 . S
C398 N396 1.356 . S
C399 C393 1.363 . S
C399 C394 1.379 . S
C399 N397 1.356 . S
N400 C392 1.356 . S
N400 H406 0.984 . S
N400 H407 0.984 . S
N401 C394 1.356 . S
N401 H404 0.984 . S
N401 H405 0.985 . S
H402 N397 0.984 . S
H403 N397 0.985 . S
H404 N401 0.984 . S
H405 N401 0.985 . S
H406 N400 0.984 . S
H407 N400 0.984 . S
H408 N396 0.984 . S
H409 N396 0.985 . S
C410 C411 1.363 . S
C410 C416 1.379 . S
C410 N418 1.356 . S
C411 C410 1.363 . S
C411 C417 1.363 . S
C412 C413 1.363 . S
C412 C417 1.379 . S
C412 N419 1.356 . S
C413 C412 1.363 . S
C413 C416 1.363 . S
N414 C416 1.356 . S
N414 H426 0.984 . S
N414 H427 0.985 . S
N415 C417 1.356 . S
N415 H420 0.984 . S
N415 H421 0.985 . S
C416 C410 1.379 . S
C416 C413 1.363 . S
C416 N414 1.356 . S
C417 C411 1.363 . S
C417 C412 1.379 . S
C417 N415 1.356 . S
N418 C410 1.356 . S
N418 H424 0.984 . S
N418 H425 0.984 . S
N419 C412 1.356 . S
N419 H422 0.984 . S
N419 H423 0.985 . S
H420 N415 0.984 . S
H421 N415 0.985 . S
H422 N419 0.984 . S
H423 N419 0.985 . S
H424 N418 0.984 . S
H425 N418 0.984 . S
H426 N414 0.984 . S
H427 N414 0.985 . S
C428 C429 1.363 . S
C428 C434 1.379 . S
C428 N436 1.356 . S
C429 C428 1.363 . S
C429 C435 1.363 . S
C430 C431 1.363 . S
C430 C435 1.379 . S
C430 N437 1.356 . S
C431 C430 1.363 . S
C431 C434 1.363 . S
N432 C434 1.358 . S
N432 H444 0.985 . S
N432 H445 0.983 1_556 S
N433 C435 1.356 . S
N433 H438 0.984 . S
N433 H439 0.985 . S
C434 C428 1.379 . S
C434 C431 1.363 . S
C434 N432 1.358 . S
C435 C429 1.363 . S
C435 C430 1.379 . S
C435 N433 1.356 . S
N436 C428 1.356 . S
N436 H442 0.984 . S
N436 H443 0.984 . S
N437 C430 1.356 . S
N437 H440 0.984 1_556 S
N437 H441 0.985 . S
H438 N433 0.984 . S
H439 N433 0.985 . S
H440 N437 0.984 1_554 S
H441 N437 0.985 . S
H442 N436 0.984 . S
H443 N436 0.984 . S
H444 N432 0.985 . S
H445 N432 0.983 1_554 S
C446 C447 1.363 . S
C446 C452 1.379 . S
C446 N454 1.356 . S
C447 C446 1.363 . S
C447 C453 1.363 . S
C448 C449 1.363 . S
C448 C453 1.379 . S
C448 N455 1.356 . S
C449 C448 1.363 . S
C449 C452 1.363 . S
N450 C452 1.356 . S
N450 H462 0.984 . S
N450 H463 0.985 . S
N451 C453 1.356 . S
N451 H456 0.984 1_554 S
N451 H457 0.985 . S
C452 C446 1.379 . S
C452 C449 1.363 . S
C452 N450 1.356 . S
C453 C447 1.363 . S
C453 C448 1.379 . S
C453 N451 1.356 . S
N454 C446 1.356 . S
N454 H460 0.984 . S
N454 H461 0.984 . S
N455 C448 1.356 . S
N455 H458 0.984 . S
N455 H459 0.985 . S
H456 N451 0.984 1_556 S
H457 N451 0.985 . S
H458 N455 0.984 . S
H459 N455 0.985 . S
H460 N454 0.984 . S
H461 N454 0.984 . S
H462 N450 0.984 . S
H463 N450 0.985 . S
C464 C465 1.363 . S
C464 C470 1.379 . S
C464 N472 1.356 . S
C465 C464 1.363 . S
C465 C471 1.363 . S
C466 C467 1.363 . S
C466 C471 1.379 . S
C466 N473 1.356 . S
C467 C466 1.363 . S
C467 C470 1.363 . S
N468 C470 1.356 . S
N468 H480 0.984 . S
N468 H481 0.985 . S
N469 C471 1.356 . S
N469 H474 0.984 . S
N469 H475 0.985 . S
C470 C464 1.379 . S
C470 C467 1.363 . S
C470 N468 1.356 . S
C471 C465 1.363 . S
C471 C466 1.379 . S
C471 N469 1.356 . S
N472 C464 1.356 . S
N472 H478 0.984 . S
N472 H479 0.984 . S
N473 C466 1.356 . S
N473 H476 0.984 . S
N473 H477 0.985 . S
H474 N469 0.984 . S
H475 N469 0.985 . S
H476 N473 0.984 . S
H477 N473 0.985 . S
H478 N472 0.984 . S
H479 N472 0.984 . S
H480 N468 0.984 . S
H481 N468 0.985 . S
C482 C483 1.363 . S
C482 C488 1.379 . S
C482 N490 1.356 . S
C483 C482 1.363 . S
C483 C489 1.363 . S
C484 C485 1.363 . S
C484 C489 1.379 . S
C484 N491 1.356 . S
C485 C484 1.363 . S
C485 C488 1.363 . S
N486 C488 1.356 1_556 S
N486 H498 0.984 . S
N486 H499 0.985 . S
N487 C489 1.356 . S
N487 H492 0.984 . S
N487 H493 0.985 . S
C488 C482 1.379 . S
C488 C485 1.363 . S
C488 N486 1.356 1_554 S
C489 C483 1.363 . S
C489 C484 1.379 . S
C489 N487 1.356 . S
N490 C482 1.356 . S
N490 H496 0.984 . S
N490 H497 0.984 . S
N491 C484 1.356 . S
N491 H494 0.984 1_554 S
N491 H495 0.985 . S
H492 N487 0.984 . S
H493 N487 0.985 . S
H494 N491 0.984 1_556 S
H495 N491 0.985 . S
H496 N490 0.984 . S
H497 N490 0.984 . S
H498 N486 0.984 . S
H499 N486 0.985 . S
C500 C501 1.363 . S
C500 C506 1.379 . S
C500 N508 1.356 . S
C501 C500 1.363 . S
C501 C507 1.363 . S
C502 C503 1.363 . S
C502 C507 1.379 . S
C502 N509 1.356 . S
C503 C502 1.363 . S
C503 C506 1.363 . S
N504 C506 1.356 . S
N504 H516 0.984 . S
N504 H517 0.985 . S
N505 C507 1.356 . S
N505 H510 0.984 . S
N505 H511 0.985 . S
C506 C500 1.379 . S
C506 C503 1.363 . S
C506 N504 1.356 . S
C507 C501 1.363 . S
C507 C502 1.379 . S
C507 N505 1.356 . S
N508 C500 1.356 . S
N508 H514 0.984 . S
N508 H515 0.984 . S
N509 C502 1.356 . S
N509 H512 0.984 . S
N509 H513 0.985 . S
H510 N505 0.984 . S
H511 N505 0.985 . S
H512 N509 0.984 . S
H513 N509 0.985 . S
H514 N508 0.984 . S
H515 N508 0.984 . S
H516 N504 0.984 . S
H517 N504 0.985 . S
C518 C519 1.363 . S
C518 C524 1.379 . S
C518 N526 1.356 . S
C519 C518 1.363 . S
C519 C525 1.363 . S
C520 C521 1.363 . S
C520 C525 1.379 . S
C520 N527 1.356 . S
C521 C520 1.363 . S
C521 C524 1.363 . S
N522 C524 1.356 . S
N522 H534 0.984 . S
N522 H535 0.985 . S
N523 C525 1.356 . S
N523 H528 0.984 . S
N523 H529 0.985 . S
C524 C518 1.379 . S
C524 C521 1.363 . S
C524 N522 1.356 . S
C525 C519 1.363 . S
C525 C520 1.379 . S
C525 N523 1.356 . S
N526 C518 1.356 . S
N526 H532 0.984 . S
N526 H533 0.984 . S
N527 C520 1.356 . S
N527 H530 0.984 . S
N527 H531 0.985 . S
H528 N523 0.984 . S
H529 N523 0.985 . S
H530 N527 0.984 . S
H531 N527 0.985 . S
H532 N526 0.984 . S
H533 N526 0.984 . S
H534 N522 0.984 . S
H535 N522 0.985 . S
C536 C537 1.363 . S
C536 C542 1.379 . S
C536 N544 1.356 . S
C537 C536 1.363 . S
C537 C543 1.363 . S
C538 C539 1.363 . S
C538 C543 1.379 . S
C538 N545 1.356 . S
C539 C538 1.363 . S
C539 C542 1.363 . S
N540 C542 1.356 . S
N540 H552 0.984 . S
N540 H553 0.985 . S
N541 C543 1.356 . S
N541 H546 0.984 . S
N541 H547 0.985 . S
C542 C536 1.379 . S
C542 C539 1.363 . S
C542 N540 1.356 . S
C543 C537 1.363 . S
C543 C538 1.379 . S
C543 N541 1.356 . S
N544 C536 1.356 . S
N544 H550 0.984 . S
N544 H551 0.984 . S
N545 C538 1.356 . S
N545 H548 0.984 . S
N545 H549 0.985 . S
H546 N541 0.984 . S
H547 N541 0.985 . S
H548 N545 0.984 . S
H549 N545 0.985 . S
H550 N544 0.984 . S
H551 N544 0.984 . S
H552 N540 0.984 . S
H553 N540 0.985 . S
C554 C555 1.363 . S
C554 C560 1.379 . S
C554 N562 1.356 . S
C555 C554 1.363 . S
C555 C561 1.363 . S
C556 C557 1.363 . S
C556 C561 1.379 . S
C556 N563 1.356 . S
C557 C556 1.363 . S
C557 C560 1.363 . S
N558 C560 1.356 . S
N558 H570 0.984 . S
N558 H571 0.985 . S
N559 C561 1.356 . S
N559 H564 0.984 . S
N559 H565 0.985 . S
C560 C554 1.379 . S
C560 C557 1.363 . S
C560 N558 1.356 . S
C561 C555 1.363 . S
C561 C556 1.379 . S
C561 N559 1.356 . S
N562 C554 1.356 . S
N562 H568 0.984 . S
N562 H569 0.984 . S
N563 C556 1.356 . S
N563 H566 0.984 . S
N563 H567 0.985 . S
H564 N559 0.984 . S
H565 N559 0.985 . S
H566 N563 0.984 . S
H567 N563 0.985 . S
H568 N562 0.984 . S
H569 N562 0.984 . S
H570 N558 0.984 . S
H571 N558 0.985 . S
C572 C573 1.363 . S
C572 C578 1.379 . S
C572 N580 1.356 . S
C573 C572 1.363 . S
C573 C579 1.363 . S
C574 C575 1.363 1_554 S
C574 C579 1.379 . S
C574 N581 1.356 . S
C575 C574 1.363 1_556 S
C575 C578 1.363 1_556 S
N576 C578 1.356 1_556 S
N576 H588 0.984 . S
N576 H589 0.985 . S
N577 C579 1.356 . S
N577 H582 0.984 . S
N577 H583 0.985 . S
C578 C572 1.379 . S
C578 C575 1.363 1_554 S
C578 N576 1.356 1_554 S
C579 C573 1.363 . S
C579 C574 1.379 . S
C579 N577 1.356 . S
N580 C572 1.356 . S
N580 H586 0.984 . S
N580 H587 0.984 . S
N581 C574 1.356 . S
N581 H584 0.984 1_554 S
N581 H585 0.985 . S
H582 N577 0.984 . S
H583 N577 0.985 . S
H584 N581 0.984 1_556 S
H585 N581 0.985 . S
H586 N580 0.984 . S
H587 N580 0.984 . S
H588 N576 0.984 . S
H589 N576 0.985 . S
C590 C591 1.363 . S
C590 C596 1.379 . S
C590 N598 1.356 . S
C591 C590 1.363 . S
C591 C597 1.363 . S
C592 C593 1.363 . S
C592 C597 1.379 . S
C592 N599 1.356 . S
C593 C592 1.363 . S
C593 C596 1.363 . S
N594 C596 1.356 . S
N594 H606 0.984 . S
N594 H607 0.985 . S
N595 C597 1.356 . S
N595 H600 0.984 . S
N595 H601 0.985 . S
C596 C590 1.379 . S
C596 C593 1.363 . S
C596 N594 1.356 . S
C597 C591 1.363 . S
C597 C592 1.379 . S
C597 N595 1.356 . S
N598 C590 1.356 . S
N598 H604 0.984 . S
N598 H605 0.984 . S
N599 C592 1.356 . S
N599 H602 0.984 . S
N599 H603 0.985 . S
H600 N595 0.984 . S
H601 N595 0.985 . S
H602 N599 0.984 . S
H603 N599 0.985 . S
H604 N598 0.984 . S
H605 N598 0.984 . S
H606 N594 0.984 . S
H607 N594 0.985 . S
C608 C609 1.363 . S
C608 C614 1.379 . S
C608 N616 1.356 . S
C609 C608 1.363 . S
C609 C615 1.363 . S
C610 C611 1.363 . S
C610 C615 1.379 . S
C610 N617 1.356 . S
C611 C610 1.363 . S
C611 C614 1.363 . S
N612 C614 1.356 . S
N612 H624 0.984 . S
N612 H625 0.985 . S
N613 C615 1.356 . S
N613 H618 0.984 . S
N613 H619 0.985 . S
C614 C608 1.379 . S
C614 C611 1.363 . S
C614 N612 1.356 . S
C615 C609 1.363 . S
C615 C610 1.379 . S
C615 N613 1.356 . S
N616 C608 1.356 . S
N616 H622 0.984 . S
N616 H623 0.984 . S
N617 C610 1.356 . S
N617 H620 0.984 . S
N617 H621 0.985 . S
H618 N613 0.984 . S
H619 N613 0.985 . S
H620 N617 0.984 . S
H621 N617 0.985 . S
H622 N616 0.984 . S
H623 N616 0.984 . S
H624 N612 0.984 . S
H625 N612 0.985 . S
C626 C627 1.363 . S
C626 C632 1.379 . S
C626 N634 1.356 . S
C627 C626 1.363 . S
C627 C633 1.363 . S
C628 C629 1.363 . S
C628 C633 1.379 . S
C628 N635 1.356 . S
C629 C628 1.363 . S
C629 C632 1.363 . S
N630 C632 1.356 . S
N630 H642 0.984 . S
N630 H643 0.985 . S
N631 C633 1.356 . S
N631 H636 0.984 . S
N631 H637 0.985 . S
C632 C626 1.379 . S
C632 C629 1.363 . S
C632 N630 1.356 . S
C633 C627 1.363 . S
C633 C628 1.379 . S
C633 N631 1.356 . S
N634 C626 1.356 . S
N634 H640 0.984 . S
N634 H641 0.984 . S
N635 C628 1.356 . S
N635 H638 0.984 . S
N635 H639 0.985 . S
H636 N631 0.984 . S
H637 N631 0.985 . S
H638 N635 0.984 . S
H639 N635 0.985 . S
H640 N634 0.984 . S
H641 N634 0.984 . S
H642 N630 0.984 . S
H643 N630 0.985 . S
C644 C645 1.363 . S
C644 C650 1.379 . S
C644 N652 1.356 . S
C645 C644 1.363 . S
C645 C651 1.363 . S
C646 C647 1.363 . S
C646 C651 1.379 . S
C646 N653 1.356 . S
C647 C646 1.363 . S
C647 C650 1.363 . S
N648 C650 1.356 . S
N648 H660 0.984 . S
N648 H661 0.985 . S
N649 C651 1.356 . S
N649 H654 0.984 . S
N649 H655 0.985 . S
C650 C644 1.379 . S
C650 C647 1.363 . S
C650 N648 1.356 . S
C651 C645 1.363 . S
C651 C646 1.379 . S
C651 N649 1.356 . S
N652 C644 1.356 . S
N652 H658 0.984 . S
N652 H659 0.984 . S
N653 C646 1.356 . S
N653 H656 0.984 . S
N653 H657 0.985 . S
H654 N649 0.984 . S
H655 N649 0.985 . S
H656 N653 0.984 . S
H657 N653 0.985 . S
H658 N652 0.984 . S
H659 N652 0.984 . S
H660 N648 0.984 . S
H661 N648 0.985 . S
C662 C663 1.363 1_554 S
C662 C668 1.379 . S
C662 N670 1.356 . S
C663 C662 1.363 1_556 S
C663 C669 1.363 . S
C664 C665 1.363 1_655 S
C664 C669 1.379 . S
C664 N671 1.356 1_655 S
C665 C664 1.363 1_455 S
C665 C668 1.363 1_456 S
N666 C668 1.356 1_455 S
N666 H678 0.984 . S
N666 H679 0.985 . S
N667 C669 1.356 . S
N667 H672 0.984 . S
N667 H673 0.985 . S
C668 C662 1.379 . S
C668 C665 1.363 1_654 S
C668 N666 1.356 1_655 S
C669 C663 1.363 . S
C669 C664 1.379 . S
C669 N667 1.356 . S
N670 C662 1.356 . S
N670 H676 0.984 . S
N670 H677 0.984 . S
N671 C664 1.356 1_455 S
N671 H674 0.984 . S
N671 H675 0.985 . S
H672 N667 0.984 . S
H673 N667 0.985 . S
H674 N671 0.984 . S
H675 N671 0.985 . S
H676 N670 0.984 . S
H677 N670 0.984 . S
H678 N666 0.984 . S
H679 N666 0.985 . S
C680 C681 1.363 . S
C680 C686 1.379 . S
C680 N688 1.356 . S
C681 C680 1.363 . S
C681 C687 1.363 . S
C682 C683 1.363 . S
C682 C687 1.379 . S
C682 N689 1.356 . S
C683 C682 1.363 . S
C683 C686 1.363 . S
N684 C686 1.356 . S
N684 H696 0.991 . S
N684 H697 0.985 . S
N685 C687 1.356 . S
N685 H690 0.984 . S
N685 H691 0.985 . S
C686 C680 1.379 . S
C686 C683 1.363 . S
C686 N684 1.356 . S
C687 C681 1.363 . S
C687 C682 1.379 . S
C687 N685 1.356 . S
N688 C680 1.356 . S
N688 H694 0.984 1_556 S
N688 H695 0.984 . S
N689 C682 1.356 . S
N689 H692 0.984 . S
N689 H693 0.985 . S
H690 N685 0.984 . S
H691 N685 0.985 . S
H692 N689 0.984 . S
H693 N689 0.985 . S
H694 N688 0.984 1_554 S
H695 N688 0.984 . S
H696 N684 0.991 . S
H697 N684 0.985 . S
C698 C699 1.363 . S
C698 C704 1.379 . S
C698 N706 1.356 1_554 S
C699 C698 1.363 . S
C699 C705 1.363 . S
C700 C701 1.363 1_455 S
C700 C705 1.379 . S
C700 N707 1.356 1_455 S
C701 C700 1.363 1_655 S
C701 C704 1.363 1_655 S
N702 C704 1.356 1_656 S
N702 H714 0.984 . S
N702 H715 0.985 . S
N703 C705 1.356 . S
N703 H708 0.984 . S
N703 H709 0.985 . S
C704 C698 1.379 . S
C704 C701 1.363 1_455 S
C704 N702 1.356 1_454 S
C705 C699 1.363 . S
C705 C700 1.379 . S
C705 N703 1.356 . S
N706 C698 1.356 1_556 S
N706 H712 0.984 . S
N706 H713 0.984 . S
N707 C700 1.356 1_655 S
N707 H710 0.984 . S
N707 H711 0.985 . S
H708 N703 0.984 . S
H709 N703 0.985 . S
H710 N707 0.984 . S
H711 N707 0.985 . S
H712 N706 0.984 . S
H713 N706 0.984 . S
H714 N702 0.984 . S
H715 N702 0.985 . S
C716 C717 1.363 . S
C716 C722 1.379 . S
C716 N724 1.356 . S
C717 C716 1.363 . S
C717 C723 1.363 . S
C718 C719 1.363 . S
C718 C723 1.379 . S
C718 N725 1.356 . S
C719 C718 1.363 . S
C719 C722 1.363 . S
N720 C722 1.356 . S
N720 H732 0.984 . S
N720 H733 0.985 . S
N721 C723 1.356 . S
N721 H726 0.984 . S
N721 H727 0.985 . S
C722 C716 1.379 . S
C722 C719 1.363 . S
C722 N720 1.356 . S
C723 C717 1.363 . S
C723 C718 1.379 . S
C723 N721 1.356 . S
N724 C716 1.356 . S
N724 H730 0.984 . S
N724 H731 0.984 . S
N725 C718 1.356 . S
N725 H728 0.984 . S
N725 H729 0.985 . S
H726 N721 0.984 . S
H727 N721 0.985 . S
H728 N725 0.984 . S
H729 N725 0.985 . S
H730 N724 0.984 . S
H731 N724 0.984 . S
H732 N720 0.984 . S
H733 N720 0.985 . S
C734 C735 1.363 . S
C734 C740 1.379 . S
C734 N742 1.356 . S
C735 C734 1.363 . S
C735 C741 1.363 . S
C736 C737 1.363 . S
C736 C741 1.379 . S
C736 N743 1.356 . S
C737 C736 1.363 . S
C737 C740 1.363 . S
N738 C740 1.356 . S
N738 H750 0.984 . S
N738 H751 0.985 . S
N739 C741 1.356 . S
N739 H744 0.984 . S
N739 H745 0.985 . S
C740 C734 1.379 . S
C740 C737 1.363 . S
C740 N738 1.356 . S
C741 C735 1.363 . S
C741 C736 1.379 . S
C741 N739 1.356 . S
N742 C734 1.356 . S
N742 H748 0.984 . S
N742 H749 0.984 . S
N743 C736 1.356 . S
N743 H746 0.984 . S
N743 H747 0.985 . S
H744 N739 0.984 . S
H745 N739 0.985 . S
H746 N743 0.984 . S
H747 N743 0.985 . S
H748 N742 0.984 . S
H749 N742 0.984 . S
H750 N738 0.984 . S
H751 N738 0.985 . S
C752 C753 1.363 . S
C752 C758 1.379 . S
C752 N760 1.356 . S
C753 C752 1.363 . S
C753 C759 1.363 . S
C754 C755 1.363 . S
C754 C759 1.379 . S
C754 N761 1.356 . S
C755 C754 1.363 . S
C755 C758 1.363 . S
N756 C758 1.356 . S
N756 H768 0.984 . S
N756 H769 0.985 . S
N757 C759 1.356 . S
N757 H762 0.984 . S
N757 H763 0.985 1_556 S
C758 C752 1.379 . S
C758 C755 1.363 . S
C758 N756 1.356 . S
C759 C753 1.363 . S
C759 C754 1.379 . S
C759 N757 1.356 . S
N760 C752 1.356 . S
N760 H766 0.984 . S
N760 H767 0.984 . S
N761 C754 1.356 . S
N761 H764 0.984 . S
N761 H765 0.985 . S
H762 N757 0.984 . S
H763 N757 0.985 1_554 S
H764 N761 0.984 . S
H765 N761 0.985 . S
H766 N760 0.984 . S
H767 N760 0.984 . S
H768 N756 0.984 . S
H769 N756 0.985 . S
C770 C771 1.363 . S
C770 C776 1.379 . S
C770 N778 1.356 . S
C771 C770 1.363 . S
C771 C777 1.363 . S
C772 C773 1.363 . S
C772 C777 1.379 . S
C772 N779 1.356 . S
C773 C772 1.363 . S
C773 C776 1.363 . S
N774 C776 1.356 . S
N774 H786 0.984 . S
N774 H787 0.985 . S
N775 C777 1.356 . S
N775 H780 0.984 . S
N775 H781 0.985 . S
C776 C770 1.379 . S
C776 C773 1.363 . S
C776 N774 1.356 . S
C777 C771 1.363 . S
C777 C772 1.379 . S
C777 N775 1.356 . S
N778 C770 1.356 . S
N778 H784 0.984 . S
N778 H785 0.984 . S
N779 C772 1.356 . S
N779 H782 0.984 . S
N779 H783 0.985 . S
H780 N775 0.984 . S
H781 N775 0.985 . S
H782 N779 0.984 . S
H783 N779 0.985 . S
H784 N778 0.984 . S
H785 N778 0.984 . S
H786 N774 0.984 . S
H787 N774 0.985 . S
C788 C789 1.363 . S
C788 C794 1.379 . S
C788 N796 1.356 . S
C789 C788 1.363 . S
C789 C795 1.363 . S
C790 C791 1.363 . S
C790 C795 1.379 . S
C790 N797 1.356 . S
C791 C790 1.363 . S
C791 C794 1.363 . S
N792 C794 1.356 . S
N792 H804 0.984 . S
N792 H805 0.985 . S
N793 C795 1.356 . S
N793 H798 0.984 . S
N793 H799 0.985 . S
C794 C788 1.379 . S
C794 C791 1.363 . S
C794 N792 1.356 . S
C795 C789 1.363 . S
C795 C790 1.379 . S
C795 N793 1.356 . S
N796 C788 1.356 . S
N796 H802 0.984 . S
N796 H803 0.984 . S
N797 C790 1.356 . S
N797 H800 0.984 . S
N797 H801 0.985 . S
H798 N793 0.984 . S
H799 N793 0.985 . S
H800 N797 0.984 . S
H801 N797 0.985 . S
H802 N796 0.984 . S
H803 N796 0.984 . S
H804 N792 0.984 . S
H805 N792 0.985 . S
C806 C807 1.363 . S
C806 C812 1.379 . S
C806 N814 1.356 . S
C807 C806 1.363 . S
C807 C813 1.363 . S
C808 C809 1.363 . S
C808 C813 1.379 . S
C808 N815 1.356 . S
C809 C808 1.363 . S
C809 C812 1.363 . S
N810 C812 1.356 . S
N810 H822 0.984 . S
N810 H823 0.985 . S
N811 C813 1.356 . S
N811 H816 0.984 . S
N811 H817 0.985 . S
C812 C806 1.379 . S
C812 C809 1.363 . S
C812 N810 1.356 . S
C813 C807 1.363 . S
C813 C808 1.379 . S
C813 N811 1.356 . S
N814 C806 1.356 . S
N814 H820 0.984 . S
N814 H821 0.984 . S
N815 C808 1.356 . S
N815 H818 0.984 . S
N815 H819 0.985 . S
H816 N811 0.984 . S
H817 N811 0.985 . S
H818 N815 0.984 . S
H819 N815 0.985 . S
H820 N814 0.984 . S
H821 N814 0.984 . S
H822 N810 0.984 . S
H823 N810 0.985 . S
C824 C825 1.363 1_455 S
C824 C830 1.379 . S
C824 N832 1.356 1_455 S
C825 C824 1.363 1_655 S
C825 C831 1.363 1_656 S
C826 C827 1.363 1_554 S
C826 C831 1.379 . S
C826 N833 1.356 . S
C827 C826 1.363 1_556 S
C827 C830 1.363 . S
N828 C830 1.356 . S
N828 H840 0.984 . S
N828 H841 0.985 . S
N829 C831 1.356 1_655 S
N829 H834 0.984 . S
N829 H835 0.985 . S
C830 C824 1.379 . S
C830 C827 1.363 . S
C830 N828 1.356 . S
C831 C825 1.363 1_454 S
C831 C826 1.379 . S
C831 N829 1.356 1_455 S
N832 C824 1.356 1_655 S
N832 H838 0.984 . S
N832 H839 0.984 . S
N833 C826 1.356 . S
N833 H836 0.984 . S
N833 H837 0.985 . S
H834 N829 0.984 . S
H835 N829 0.985 . S
H836 N833 0.984 . S
H837 N833 0.985 . S
H838 N832 0.984 . S
H839 N832 0.984 . S
H840 N828 0.984 . S
H841 N828 0.985 . S
C842 C843 1.363 . S
C842 C848 1.379 . S
C842 N850 1.356 . S
C843 C842 1.363 . S
C843 C849 1.363 . S
C844 C845 1.363 . S
C844 C849 1.379 . S
C844 N851 1.356 . S
C845 C844 1.363 . S
C845 C848 1.363 . S
N846 C848 1.356 . S
N846 H858 0.984 . S
N846 H859 0.985 . S
N847 C849 1.356 . S
N847 H852 0.984 . S
N847 H853 0.985 . S
C848 C842 1.379 . S
C848 C845 1.363 . S
C848 N846 1.356 . S
C849 C843 1.363 . S
C849 C844 1.379 . S
C849 N847 1.356 . S
N850 C842 1.356 . S
N850 H856 0.984 . S
N850 H857 0.984 . S
N851 C844 1.356 . S
N851 H854 0.984 . S
N851 H855 0.985 . S
H852 N847 0.984 . S
H853 N847 0.985 . S
H854 N851 0.984 . S
H855 N851 0.985 . S
H856 N850 0.984 . S
H857 N850 0.984 . S
H858 N846 0.984 . S
H859 N846 0.985 . S
C860 C861 1.363 . S
C860 C866 1.379 . S
C860 N868 1.356 . S
C861 C860 1.363 . S
C861 C867 1.363 . S
C862 C863 1.363 . S
C862 C867 1.379 . S
C862 N869 1.356 . S
C863 C862 1.363 . S
C863 C866 1.363 . S
N864 C866 1.356 . S
N864 H876 0.984 . S
N864 H877 0.985 . S
N865 C867 1.356 . S
N865 H870 0.984 . S
N865 H871 0.985 . S
C866 C860 1.379 . S
C866 C863 1.363 . S
C866 N864 1.356 . S
C867 C861 1.363 . S
C867 C862 1.379 . S
C867 N865 1.356 . S
N868 C860 1.356 . S
N868 H874 0.984 . S
N868 H875 0.984 . S
N869 C862 1.356 . S
N869 H872 0.984 . S
N869 H873 0.985 . S
H870 N865 0.984 . S
H871 N865 0.985 . S
H872 N869 0.984 . S
H873 N869 0.985 . S
H874 N868 0.984 . S
H875 N868 0.984 . S
H876 N864 0.984 . S
H877 N864 0.985 . S
C878 C879 1.363 1_655 S
C878 C884 1.379 . S
C878 N886 1.356 1_654 S
C879 C878 1.363 1_455 S
C879 C885 1.363 1_455 S
C880 C881 1.363 . S
C880 C885 1.379 . S
C880 N887 1.356 . S
C881 C880 1.363 . S
C881 C884 1.363 . S
N882 C884 1.356 1_556 S
N882 H894 0.984 . S
N882 H895 0.985 . S
N883 C885 1.356 1_455 S
N883 H888 0.984 . S
N883 H889 0.985 . S
C884 C878 1.379 . S
C884 C881 1.363 . S
C884 N882 1.356 1_554 S
C885 C879 1.363 1_655 S
C885 C880 1.379 . S
C885 N883 1.356 1_655 S
N886 C878 1.356 1_456 S
N886 H892 0.984 . S
N886 H893 0.984 . S
N887 C880 1.356 . S
N887 H890 0.984 . S
N887 H891 0.985 . S
H888 N883 0.984 . S
H889 N883 0.985 . S
H890 N887 0.984 . S
H891 N887 0.985 . S
H892 N886 0.984 . S
H893 N886 0.984 . S
H894 N882 0.984 . S
H895 N882 0.985 . S
C896 C897 1.363 . S
C896 C902 1.379 . S
C896 N904 1.356 . S
C897 C896 1.363 . S
C897 C903 1.363 . S
C898 C899 1.363 . S
C898 C903 1.379 . S
C898 N905 1.356 1_554 S
C899 C898 1.363 . S
C899 C902 1.363 . S
N900 C902 1.356 . S
N900 H912 0.984 . S
N900 H913 0.985 . S
N901 C903 1.356 . S
N901 H906 0.984 . S
N901 H907 0.985 1_554 S
C902 C896 1.379 . S
C902 C899 1.363 . S
C902 N900 1.356 . S
C903 C897 1.363 . S
C903 C898 1.379 . S
C903 N901 1.356 . S
N904 C896 1.356 . S
N904 H910 0.984 . S
N904 H911 0.984 . S
N905 C898 1.356 1_556 S
N905 H908 0.984 . S
N905 H909 0.985 . S
H906 N901 0.984 . S
H907 N901 0.985 1_556 S
H908 N905 0.984 . S
H909 N905 0.985 . S
H910 N904 0.984 . S
H911 N904 0.984 . S
H912 N900 0.984 . S
H913 N900 0.985 . S
C914 C915 1.363 . S
C914 C920 1.379 . S
C914 N922 1.356 . S
C915 C914 1.363 . S
C915 C921 1.363 . S
C916 C917 1.363 . S
C916 C921 1.379 . S
C916 N923 1.356 . S
C917 C916 1.363 . S
C917 C920 1.363 . S
N918 C920 1.356 . S
N918 H930 0.984 . S
N918 H931 0.985 . S
N919 C921 1.356 . S
N919 H924 0.984 . S
N919 H925 0.985 . S
C920 C914 1.379 . S
C920 C917 1.363 . S
C920 N918 1.356 . S
C921 C915 1.363 . S
C921 C916 1.379 . S
C921 N919 1.356 . S
N922 C914 1.356 . S
N922 H928 0.984 . S
N922 H929 0.984 . S
N923 C916 1.356 . S
N923 H926 0.984 . S
N923 H927 0.985 . S
H924 N919 0.984 . S
H925 N919 0.985 . S
H926 N923 0.984 . S
H927 N923 0.985 . S
H928 N922 0.984 . S
H929 N922 0.984 . S
H930 N918 0.984 . S
H931 N918 0.985 . S
C932 C933 1.363 . S
C932 C938 1.379 . S
C932 N940 1.356 . S
C933 C932 1.363 . S
C933 C939 1.363 . S
C934 C935 1.363 . S
C934 C939 1.379 . S
C934 N941 1.356 . S
C935 C934 1.363 . S
C935 C938 1.363 . S
N936 C938 1.356 . S
N936 H948 0.984 . S
N936 H949 0.985 . S
N937 C939 1.356 . S
N937 H942 0.984 . S
N937 H943 0.985 . S
C938 C932 1.379 . S
C938 C935 1.363 . S
C938 N936 1.356 . S
C939 C933 1.363 . S
C939 C934 1.379 . S
C939 N937 1.356 . S
N940 C932 1.356 . S
N940 H946 0.984 . S
N940 H947 0.984 . S
N941 C934 1.356 . S
N941 H944 0.984 . S
N941 H945 0.985 . S
H942 N937 0.984 . S
H943 N937 0.985 . S
H944 N941 0.984 . S
H945 N941 0.985 . S
H946 N940 0.984 . S
H947 N940 0.984 . S
H948 N936 0.984 . S
H949 N936 0.985 . S
C950 C951 1.363 . S
C950 C956 1.379 . S
C950 N958 1.356 . S
C951 C950 1.363 . S
C951 C957 1.363 . S
C952 C953 1.363 . S
C952 C957 1.379 . S
C952 N959 1.356 . S
C953 C952 1.363 . S
C953 C956 1.363 . S
N954 C956 1.356 . S
N954 H966 0.984 . S
N954 H967 0.985 . S
N955 C957 1.356 . S
N955 H960 0.984 . S
N955 H961 0.985 . S
C956 C950 1.379 . S
C956 C953 1.363 . S
C956 N954 1.356 . S
C957 C951 1.363 . S
C957 C952 1.379 . S
C957 N955 1.356 . S
N958 C950 1.356 . S
N958 H964 0.984 . S
N958 H965 0.984 . S
N959 C952 1.356 . S
N959 H962 0.984 . S
N959 H963 0.985 . S
H960 N955 0.984 . S
H961 N955 0.985 . S
H962 N959 0.984 . S
H963 N959 0.985 . S
H964 N958 0.984 . S
H965 N958 0.984 . S
H966 N954 0.984 . S
H967 N954 0.985 . S
C968 C969 1.363 . S
C968 C974 1.379 . S
C968 N976 1.356 1_556 S
C969 C968 1.363 . S
C969 C975 1.363 . S
C970 C971 1.363 . S
C970 C975 1.379 . S
C970 N977 1.356 . S
C971 C970 1.363 . S
C971 C974 1.363 . S
N972 C974 1.356 . S
N972 H984 0.984 . S
N972 H985 0.985 . S
N973 C975 1.356 . S
N973 H978 0.984 . S
N973 H979 0.985 . S
C974 C968 1.379 . S
C974 C971 1.363 . S
C974 N972 1.356 . S
C975 C969 1.363 . S
C975 C970 1.379 . S
C975 N973 1.356 . S
N976 C968 1.356 1_554 S
N976 H982 0.984 . S
N976 H983 0.984 . S
N977 C970 1.356 . S
N977 H980 0.984 . S
N977 H981 0.985 . S
H978 N973 0.984 . S
H979 N973 0.985 . S
H980 N977 0.984 . S
H981 N977 0.985 . S
H982 N976 0.984 . S
H983 N976 0.984 . S
H984 N972 0.984 . S
H985 N972 0.985 . S
C986 C987 1.363 . S
C986 C992 1.379 . S
C986 N994 1.356 . S
C987 C986 1.363 . S
C987 C993 1.363 . S
C988 C989 1.363 . S
C988 C993 1.379 . S
C988 N995 1.356 . S
C989 C988 1.363 . S
C989 C992 1.363 . S
N990 C992 1.356 . S
N990 H1002 0.984 . S
N990 H1003 0.985 . S
N991 C993 1.356 . S
N991 H996 0.984 . S
N991 H997 0.985 . S
C992 C986 1.379 . S
C992 C989 1.363 . S
C992 N990 1.356 . S
C993 C987 1.363 . S
C993 C988 1.379 . S
C993 N991 1.356 . S
N994 C986 1.356 . S
N994 H1000 0.984 . S
N994 H1001 0.984 . S
N995 C988 1.356 . S
N995 H998 0.984 . S
N995 H999 0.985 . S
H996 N991 0.984 . S
H997 N991 0.985 . S
H998 N995 0.984 . S
H999 N995 0.985 . S
H1000 N994 0.984 . S
H1001 N994 0.984 . S
H1002 N990 0.984 . S
H1003 N990 0.985 . S
C1004 C1005 1.363 . S
C1004 C1010 1.379 . S
C1004 N1012 1.356 . S
C1005 C1004 1.363 . S
C1005 C1011 1.363 . S
C1006 C1007 1.363 . S
C1006 C1011 1.379 . S
C1006 N1013 1.356 . S
C1007 C1006 1.363 . S
C1007 C1010 1.363 . S
N1008 C1010 1.356 . S
N1008 H1020 0.984 . S
N1008 H1021 0.985 . S
N1009 C1011 1.356 . S
N1009 H1014 0.984 . S
N1009 H1015 0.985 . S
C1010 C1004 1.379 . S
C1010 C1007 1.363 . S
C1010 N1008 1.356 . S
C1011 C1005 1.363 . S
C1011 C1006 1.379 . S
C1011 N1009 1.356 . S
N1012 C1004 1.356 . S
N1012 H1018 0.984 . S
N1012 H1019 0.984 . S
N1013 C1006 1.356 . S
N1013 H1016 0.984 . S
N1013 H1017 0.985 . S
H1014 N1009 0.984 . S
H1015 N1009 0.985 . S
H1016 N1013 0.984 . S
H1017 N1013 0.985 . S
H1018 N1012 0.984 . S
H1019 N1012 0.984 . S
H1020 N1008 0.984 . S
H1021 N1008 0.985 . S
C1022 C1023 1.363 . S
C1022 C1028 1.379 . S
C1022 N1030 1.356 . S
C1023 C1022 1.363 . S
C1023 C1029 1.363 . S
C1024 C1025 1.363 . S
C1024 C1029 1.379 . S
C1024 N1031 1.356 . S
C1025 C1024 1.363 . S
C1025 C1028 1.363 . S
N1026 C1028 1.356 . S
N1026 H1038 0.984 . S
N1026 H1039 0.985 . S
N1027 C1029 1.356 . S
N1027 H1032 0.984 . S
N1027 H1033 0.985 . S
C1028 C1022 1.379 . S
C1028 C1025 1.363 . S
C1028 N1026 1.356 . S
C1029 C1023 1.363 . S
C1029 C1024 1.379 . S
C1029 N1027 1.356 . S
N1030 C1022 1.356 . S
N1030 H1036 0.984 . S
N1030 H1037 0.984 . S
N1031 C1024 1.356 . S
N1031 H1034 0.984 . S
N1031 H1035 0.985 . S
H1032 N1027 0.984 . S
H1033 N1027 0.985 . S
H1034 N1031 0.984 . S
H1035 N1031 0.985 . S
H1036 N1030 0.984 . S
H1037 N1030 0.984 . S
H1038 N1026 0.984 . S
H1039 N1026 0.985 . S
C1040 C1041 1.363 . S
C1040 C1046 1.379 1_565 S
C1040 N1048 1.356 . S
C1041 C1040 1.363 . S
C1041 C1047 1.363 1_565 S
C1042 C1043 1.363 . S
C1042 C1047 1.379 . S
C1042 N1049 1.356 . S
C1043 C1042 1.363 . S
C1043 C1046 1.363 . S
N1044 C1046 1.356 . S
N1044 H1056 0.984 . S
N1044 H1057 0.985 . S
N1045 C1047 1.356 . S
N1045 H1050 0.984 1_545 S
N1045 H1051 0.985 . S
C1046 C1040 1.379 1_545 S
C1046 C1043 1.363 . S
C1046 N1044 1.356 . S
C1047 C1041 1.363 1_545 S
C1047 C1042 1.379 . S
C1047 N1045 1.356 . S
N1048 C1040 1.356 . S
N1048 H1054 0.984 . S
N1048 H1055 0.984 . S
N1049 C1042 1.356 . S
N1049 H1052 0.984 . S
N1049 H1053 0.985 . S
H1050 N1045 0.984 1_565 S
H1051 N1045 0.985 . S
H1052 N1049 0.984 . S
H1053 N1049 0.985 . S
H1054 N1048 0.984 . S
H1055 N1048 0.984 . S
H1056 N1044 0.984 . S
H1057 N1044 0.985 . S
C1058 C1059 1.363 . S
C1058 C1064 1.379 . S
C1058 N1066 1.356 . S
C1059 C1058 1.363 . S
C1059 C1065 1.363 . S
C1060 C1061 1.363 . S
C1060 C1065 1.379 . S
C1060 N1067 1.356 . S
C1061 C1060 1.363 . S
C1061 C1064 1.363 . S
N1062 C1064 1.356 . S
N1062 H1074 0.984 . S
N1062 H1075 0.985 . S
N1063 C1065 1.356 . S
N1063 H1068 0.984 . S
N1063 H1069 0.985 . S
C1064 C1058 1.379 . S
C1064 C1061 1.363 . S
C1064 N1062 1.356 . S
C1065 C1059 1.363 . S
C1065 C1060 1.379 . S
C1065 N1063 1.356 . S
N1066 C1058 1.356 . S
N1066 H1072 0.984 . S
N1066 H1073 0.984 . S
N1067 C1060 1.356 . S
N1067 H1070 0.984 . S
N1067 H1071 0.985 . S
H1068 N1063 0.984 . S
H1069 N1063 0.985 . S
H1070 N1067 0.984 . S
H1071 N1067 0.985 . S
H1072 N1066 0.984 . S
H1073 N1066 0.984 . S
H1074 N1062 0.984 . S
H1075 N1062 0.985 . S
C1076 C1077 1.363 . S
C1076 C1082 1.379 . S
C1076 N1084 1.356 . S
C1077 C1076 1.363 . S
C1077 C1083 1.363 . S
C1078 C1079 1.363 . S
C1078 C1083 1.379 1_545 S
C1078 N1085 1.356 . S
C1079 C1078 1.363 . S
C1079 C1082 1.363 1_545 S
N1080 C1082 1.356 1_546 S
N1080 H1092 0.984 1_545 S
N1080 H1093 0.985 . S
N1081 C1083 1.356 . S
N1081 H1086 0.984 . S
N1081 H1087 0.985 . S
C1082 C1076 1.379 . S
C1082 C1079 1.363 1_565 S
C1082 N1080 1.356 1_564 S
C1083 C1077 1.363 . S
C1083 C1078 1.379 1_565 S
C1083 N1081 1.356 . S
N1084 C1076 1.356 . S
N1084 H1090 0.984 1_554 S
N1084 H1091 0.984 . S
N1085 C1078 1.356 . S
N1085 H1088 0.984 . S
N1085 H1089 0.985 . S
H1086 N1081 0.984 . S
H1087 N1081 0.985 . S
H1088 N1085 0.984 . S
H1089 N1085 0.985 . S
H1090 N1084 0.984 1_556 S
H1091 N1084 0.984 . S
H1092 N1080 0.984 1_565 S
H1093 N1080 0.985 . S
C1094 C1095 1.363 . S
C1094 C1100 1.379 . S
C1094 N1102 1.356 . S
C1095 C1094 1.363 . S
C1095 C1101 1.363 . S
C1096 C1097 1.363 . S
C1096 C1101 1.379 . S
C1096 N1103 1.356 . S
C1097 C1096 1.363 . S
C1097 C1100 1.363 . S
N1098 C1100 1.356 . S
N1098 H1110 0.984 . S
N1098 H1111 0.985 . S
N1099 C1101 1.356 . S
N1099 H1104 0.984 . S
N1099 H1105 0.985 . S
C1100 C1094 1.379 . S
C1100 C1097 1.363 . S
C1100 N1098 1.356 . S
C1101 C1095 1.363 . S
C1101 C1096 1.379 . S
C1101 N1099 1.356 . S
N1102 C1094 1.356 . S
N1102 H1108 0.984 . S
N1102 H1109 0.984 . S
N1103 C1096 1.356 . S
N1103 H1106 0.984 . S
N1103 H1107 0.985 . S
H1104 N1099 0.984 . S
H1105 N1099 0.985 . S
H1106 N1103 0.984 . S
H1107 N1103 0.985 . S
H1108 N1102 0.984 . S
H1109 N1102 0.984 . S
H1110 N1098 0.984 . S
H1111 N1098 0.985 . S
C1112 C1113 1.363 . S
C1112 C1118 1.379 1_565 S
C1112 N1120 1.356 . S
C1113 C1112 1.363 . S
C1113 C1119 1.363 1_565 S
C1114 C1115 1.363 . S
C1114 C1119 1.379 . S
C1114 N1121 1.356 . S
C1115 C1114 1.363 . S
C1115 C1118 1.363 . S
N1116 C1118 1.356 . S
N1116 H1128 0.984 . S
N1116 H1129 0.985 . S
N1117 C1119 1.364 . S
N1117 H1122 0.964 1_545 S
N1117 H1123 0.998 . S
C1118 C1112 1.379 1_545 S
C1118 C1115 1.363 . S
C1118 N1116 1.356 . S
C1119 C1113 1.363 1_545 S
C1119 C1114 1.379 . S
C1119 N1117 1.364 . S
N1120 C1112 1.356 . S
N1120 H1126 0.984 . S
N1120 H1127 0.984 . S
N1121 C1114 1.356 . S
N1121 H1124 0.984 . S
N1121 H1125 0.985 . S
H1122 N1117 0.964 1_565 S
H1123 N1117 0.998 . S
H1124 N1121 0.984 . S
H1125 N1121 0.985 . S
H1126 N1120 0.984 . S
H1127 N1120 0.984 . S
H1128 N1116 0.984 . S
H1129 N1116 0.985 . S
C1130 C1131 1.363 . S
C1130 C1136 1.379 . S
C1130 N1138 1.356 . S
C1131 C1130 1.363 . S
C1131 C1137 1.363 . S
C1132 C1133 1.363 . S
C1132 C1137 1.379 . S
C1132 N1139 1.356 . S
C1133 C1132 1.363 . S
C1133 C1136 1.363 . S
N1134 C1136 1.356 . S
N1134 H1146 0.984 . S
N1134 H1147 0.985 . S
N1135 C1137 1.356 . S
N1135 H1140 0.984 . S
N1135 H1141 0.985 . S
C1136 C1130 1.379 . S
C1136 C1133 1.363 . S
C1136 N1134 1.356 . S
C1137 C1131 1.363 . S
C1137 C1132 1.379 . S
C1137 N1135 1.356 . S
N1138 C1130 1.356 . S
N1138 H1144 0.984 . S
N1138 H1145 0.984 . S
N1139 C1132 1.356 . S
N1139 H1142 0.984 . S
N1139 H1143 0.985 . S
H1140 N1135 0.984 . S
H1141 N1135 0.985 . S
H1142 N1139 0.984 . S
H1143 N1139 0.985 . S
H1144 N1138 0.984 . S
H1145 N1138 0.984 . S
H1146 N1134 0.984 . S
H1147 N1134 0.985 . S
C1148 C1149 1.363 . S
C1148 C1154 1.379 1_556 S
C1148 N1156 1.356 . S
C1149 C1148 1.363 . S
C1149 C1155 1.363 . S
C1150 C1151 1.363 . S
C1150 C1155 1.379 1_565 S
C1150 N1157 1.356 . S
C1151 C1150 1.363 . S
C1151 C1154 1.363 1_566 S
N1152 C1154 1.341 1_565 S
N1152 H1164 0.966 1_565 S
N1152 H1165 1.019 . S
N1153 C1155 1.356 . S
N1153 H1158 0.984 . S
N1153 H1159 0.985 . S
C1154 C1148 1.379 1_554 S
C1154 C1151 1.363 1_544 S
C1154 N1152 1.341 1_545 S
C1155 C1149 1.363 . S
C1155 C1150 1.379 1_545 S
C1155 N1153 1.356 . S
N1156 C1148 1.356 . S
N1156 H1162 0.984 1_556 S
N1156 H1163 0.984 . S
N1157 C1150 1.356 . S
N1157 H1160 0.984 . S
N1157 H1161 0.985 . S
H1158 N1153 0.984 . S
H1159 N1153 0.985 . S
H1160 N1157 0.984 . S
H1161 N1157 0.985 . S
H1162 N1156 0.984 1_554 S
H1163 N1156 0.984 . S
H1164 N1152 0.966 1_545 S
H1165 N1152 1.019 . S
C1166 C1167 1.363 . S
C1166 C1172 1.379 . S
C1166 N1174 1.356 . S
C1167 C1166 1.363 . S
C1167 C1173 1.363 . S
C1168 C1169 1.363 . S
C1168 C1173 1.379 . S
C1168 N1175 1.356 . S
C1169 C1168 1.363 . S
C1169 C1172 1.363 . S
N1170 C1172 1.356 . S
N1170 H1182 0.984 . S
N1170 H1183 0.985 . S
N1171 C1173 1.356 . S
N1171 H1176 0.984 . S
N1171 H1177 0.985 . S
C1172 C1166 1.379 . S
C1172 C1169 1.363 . S
C1172 N1170 1.356 . S
C1173 C1167 1.363 . S
C1173 C1168 1.379 . S
C1173 N1171 1.356 . S
N1174 C1166 1.356 . S
N1174 H1180 0.984 . S
N1174 H1181 0.984 . S
N1175 C1168 1.356 . S
N1175 H1178 0.984 . S
N1175 H1179 0.985 . S
H1176 N1171 0.984 . S
H1177 N1171 0.985 . S
H1178 N1175 0.984 . S
H1179 N1175 0.985 . S
H1180 N1174 0.984 . S
H1181 N1174 0.984 . S
H1182 N1170 0.984 . S
H1183 N1170 0.985 . S
C321 C12 1.626 . S
C323 C9 1.626 . S
C339 C32 1.588 1_556 S
C341 C29 1.588 . S
C357 C52 1.571 . S
C359 C49 1.571 1_554 S
C375 C72 1.632 . S
C377 C69 1.632 . S
C393 C89 1.600 . S
C395 C92 1.600 . S
C411 C112 1.650 . S
C413 C109 1.650 . S
C429 C129 1.614 . S
C431 C132 1.614 1_556 S
C447 C149 1.631 1_554 S
C449 C152 1.631 . S
C465 C169 1.609 . S
C467 C172 1.609 . S
C483 C192 1.568 . S
C485 C189 1.568 1_554 S
C501 C212 1.606 1_556 S
C503 C209 1.606 . S
C519 C229 1.657 . S
C521 C232 1.657 . S
C537 C252 1.593 . S
C539 C249 1.593 . S
C555 C272 1.609 . S
C557 C269 1.609 . S
C573 C292 1.626 . S
C575 C289 1.626 . S
C591 C309 1.656 . S
C593 C312 1.656 . S
C609 C18 1.825 . S
C611 C222 1.809 . S
C627 C38 2.001 . S
C629 C319 2.027 . S
C645 C58 1.413 . S
C647 C182 1.412 . S
C663 C78 1.559 . S
C665 C262 1.551 . S
C681 C84 1.672 . S
C683 C279 1.681 . S
C699 C239 1.800 . S
C701 C104 1.793 . S
C717 C124 1.375 . S
C719 C302 1.427 . S
C735 C144 1.511 . S
C737 C199 1.529 . S
C753 C64 1.723 . S
C755 C179 1.731 . S
C771 C24 1.822 . S
C773 C219 1.812 . S
C789 C242 1.696 . S
C791 C118 1.706 . S
C807 C158 1.690 . S
C809 C282 1.687 . S
C825 C162 1.519 . S
C827 C98 1.526 . S
C843 C138 1.445 . S
C845 C202 1.460 . S
C861 C44 1.525 . S
C863 C299 1.534 . S
C879 C4 1.560 . S
C881 C259 1.566 . S
C897 C19 1.602 . S
C899 C82 1.526 . S
C915 C39 1.745 . S
C917 C102 1.671 . S
C933 C59 1.344 . S
C935 C122 1.247 . S
C951 C79 1.512 . S
C953 C142 1.432 . S
C969 C244 1.599 . S
C971 C178 1.678 . S
C987 C264 1.368 . S
C989 C198 1.428 . S
C1005 C218 1.620 . S
C1007 C284 1.536 . S
C1023 C318 1.967 . S
C1025 C238 1.952 . S
C1041 C22 1.683 . S
C1043 C159 1.813 . S
C1059 C99 1.524 . S
C1061 C42 1.441 . S
C1077 C119 1.615 . S
C1079 C62 1.545 . S
C1095 C2 1.296 . S
C1097 C139 1.366 . S
C1113 C304 1.148 . S
C1115 C184 1.166 . S
C1131 C258 1.515 . S
C1133 C204 1.432 . S
C1149 C278 1.686 . S
C1151 C224 1.613 . S
C1167 C298 1.453 . S
C1169 C164 1.378 . S
