# Generated by pormake.
# Topology vby, (6)-cn, num edge types: 1
# Building blocks:
#     Node 0, Type 0, BuildingBlock: BETGAK_clean_sbu_0, # of connection points: 6
#     Node 1, Type 0, BuildingBlock: BETGAK_clean_sbu_0, # of connection points: 6
#     Node 2, Type 0, BuildingBlock: BETGAK_clean_sbu_0, # of connection points: 6
#     Node 3, Type 0, BuildingBlock: BETGAK_clean_sbu_0, # of connection points: 6
#     Node 4, Type 0, BuildingBlock: BETGAK_clean_sbu_0, # of connection points: 6
#     Node 5, Type 0, BuildingBlock: BETGAK_clean_sbu_0, # of connection points: 6
#     Node 6, Type 0, BuildingBlock: BETGAK_clean_sbu_0, # of connection points: 6
#     Node 7, Type 0, BuildingBlock: BETGAK_clean_sbu_0, # of connection points: 6
#     Edge 8, Type (0, 0), BuildingBlock: OJICUG_clean_linker_0, # of connection points: 2
#     Edge 9, Type (0, 0), BuildingBlock: OJICUG_clean_linker_0, # of connection points: 2
#     Edge 10, Type (0, 0), BuildingBlock: OJICUG_clean_linker_0, # of connection points: 2
#     Edge 11, Type (0, 0), BuildingBlock: OJICUG_clean_linker_0, # of connection points: 2
#     Edge 12, Type (0, 0), BuildingBlock: OJICUG_clean_linker_0, # of connection points: 2
#     Edge 13, Type (0, 0), BuildingBlock: OJICUG_clean_linker_0, # of connection points: 2
#     Edge 14, Type (0, 0), BuildingBlock: OJICUG_clean_linker_0, # of connection points: 2
#     Edge 15, Type (0, 0), BuildingBlock: OJICUG_clean_linker_0, # of connection points: 2
#     Edge 16, Type (0, 0), BuildingBlock: OJICUG_clean_linker_0, # of connection points: 2
#     Edge 17, Type (0, 0), BuildingBlock: OJICUG_clean_linker_0, # of connection points: 2
#     Edge 18, Type (0, 0), BuildingBlock: OJICUG_clean_linker_0, # of connection points: 2
#     Edge 19, Type (0, 0), BuildingBlock: OJICUG_clean_linker_0, # of connection points: 2
#     Edge 20, Type (0, 0), BuildingBlock: OJICUG_clean_linker_0, # of connection points: 2
#     Edge 21, Type (0, 0), BuildingBlock: OJICUG_clean_linker_0, # of connection points: 2
#     Edge 22, Type (0, 0), BuildingBlock: OJICUG_clean_linker_0, # of connection points: 2
#     Edge 23, Type (0, 0), BuildingBlock: OJICUG_clean_linker_0, # of connection points: 2
#     Edge 24, Type (0, 0), BuildingBlock: OJICUG_clean_linker_0, # of connection points: 2
#     Edge 25, Type (0, 0), BuildingBlock: OJICUG_clean_linker_0, # of connection points: 2
#     Edge 26, Type (0, 0), BuildingBlock: OJICUG_clean_linker_0, # of connection points: 2
#     Edge 27, Type (0, 0), BuildingBlock: OJICUG_clean_linker_0, # of connection points: 2
#     Edge 28, Type (0, 0), BuildingBlock: OJICUG_clean_linker_0, # of connection points: 2
#     Edge 29, Type (0, 0), BuildingBlock: OJICUG_clean_linker_0, # of connection points: 2
#     Edge 30, Type (0, 0), BuildingBlock: OJICUG_clean_linker_0, # of connection points: 2
#     Edge 31, Type (0, 0), BuildingBlock: OJICUG_clean_linker_0, # of connection points: 2
# Relax obj value: 0.198
# Max RMSD: 0.219
# Mean RMSD: 0.219
data_MOF--net-vby--node1-BETGAK_clean_sbu_0--edge1-OJICUG_clean_linker_0
_symmetry_space_group_name_H-M    P1
_symmetry_Int_Tables_number       1
_symmetry_cell_setting            triclinic
loop_
_symmetry_equiv_pos_as_xyz
'x, y, z'
_cell_length_a     11.311475
_cell_length_b     86.865914
_cell_length_c     20.927733
_cell_angle_alpha  89.949395
_cell_angle_beta   86.422301
_cell_angle_gamma 90.017537
loop_
_atom_site_label
_atom_site_type_symbol
_atom_site_fract_x
_atom_site_fract_y
_atom_site_fract_z
_atom_type_partial_charge
La0 La 0.06458 0.42136 0.03331 0.0
La1 La 1.0505 0.38772 0.03602 0.0
C2 C 1.04951 0.45014 0.02456 0.0
C3 C 1.03824 0.46714 0.02215 0.0
C4 C 0.98456 0.47511 0.0747 0.0
C5 C 0.98583 0.4912 0.07665 0.0
C6 C 1.04104 0.49977 0.02614 0.0
C7 C 0.09135 0.49179 0.97251 0.0
C8 C 0.09007 0.47564 0.97058 0.0
C9 C 0.08619 0.40853 0.14694 0.0
C10 C 0.81539 0.40503 0.0375 0.0
C11 C 0.06009 0.35941 0.06429 0.0
C12 C 0.1291 0.34499 0.05684 0.0
C13 C 0.16843 0.33927 0.99639 0.0
C14 C 0.21689 0.32445 0.99041 0.0
C15 C 0.22695 0.31503 0.04469 0.0
C16 C 0.19157 0.32107 0.10526 0.0
C17 C 0.14311 0.33585 0.11116 0.0
C18 C 1.03137 0.3997 0.92047 0.0
C19 C 0.30499 0.40434 0.02381 0.0
O20 O 1.00934 0.44229 0.07458 0.0
O21 O 0.09436 0.44163 0.97735 0.0
O22 O 0.1498 0.41981 0.12402 0.0
O23 O 1.01279 0.40486 0.10682 0.0
O24 O 0.87922 0.41666 1.01323 0.0
O25 O 0.86773 0.39322 0.06332 0.0
O26 O 1.0111 0.36482 1.01401 0.0
O27 O 0.10082 0.37037 0.09972 0.0
O28 O 0.97674 0.38753 0.94208 0.0
O29 O 0.10123 0.40411 0.96144 0.0
O30 O 0.2437 0.39152 0.03617 0.0
O31 O 0.25182 0.41753 1.01336 0.0
H32 H 0.94374 0.46892 0.11527 0.0
H33 H 0.94415 0.49693 0.11812 0.0
H34 H 0.13539 0.49799 0.93291 0.0
H35 H 0.13293 0.46983 0.92965 0.0
H36 H 0.15863 0.34605 0.95359 0.0
H37 H 0.24503 0.32028 0.94314 0.0
H38 H 0.19666 0.31414 0.14804 0.0
H39 H 0.11219 0.33993 0.1582 0.0
La40 La 0.06183 0.67867 0.03325 0.0
La41 La 1.04776 0.64503 0.03624 0.0
C42 C 1.05206 0.70693 1.0043 0.0
C43 C 0.98315 0.72136 1.01169 0.0
C44 C 0.94446 0.72715 0.07213 0.0
C45 C 0.89597 0.74198 0.07796 0.0
C46 C 0.88527 0.75132 0.02354 0.0
C47 C 0.92006 0.74522 0.96301 0.0
C48 C 0.96854 0.73044 0.95725 0.0
C49 C 0.08079 0.66684 0.14894 0.0
C50 C 0.80732 0.66205 0.04582 0.0
C51 C 0.06283 0.61625 0.0449 0.0
C52 C 0.07409 0.59925 0.04729 0.0
C53 C 0.1278 0.59127 0.99473 0.0
C54 C 0.12657 0.57518 0.99278 0.0
C55 C 0.07135 0.56661 0.04328 0.0
C56 C 1.021 0.57459 0.09691 0.0
C57 C 1.02225 0.59074 0.09884 0.0
C58 C 1.0261 0.6579 0.92256 0.0
C59 C 0.2969 0.66136 0.03218 0.0
O60 O 0.10174 0.70159 0.05449 0.0
O61 O 1.01077 0.69592 0.96932 0.0
O62 O 0.13499 0.67903 0.12722 0.0
O63 O 1.01126 0.66229 0.10803 0.0
O64 O 0.8686 0.67486 0.03334 0.0
O65 O 0.86053 0.64886 0.05628 0.0
O66 O 0.10315 0.6241 0.99494 0.0
O67 O 1.01782 0.62475 0.0921 0.0
O68 O 0.96231 0.64663 0.94551 0.0
O69 O 0.09969 0.66147 0.96268 0.0
O70 O 0.233 0.64974 0.05652 0.0
O71 O 0.24463 0.67315 1.00615 0.0
H72 H 0.95474 0.72042 0.11502 0.0
H73 H 0.86831 0.7462 0.12522 0.0
H74 H 0.91448 0.7521 0.92012 0.0
H75 H 0.99897 0.7263 0.91022 0.0
H76 H 0.16863 0.59747 0.95418 0.0
H77 H 0.16826 0.56946 0.9513 0.0
H78 H 0.97697 0.56839 0.1365 0.0
H79 H 0.97937 0.59655 0.13978 0.0
La80 La 1.05067 0.67859 0.53834 0.0
La81 La 0.06468 0.64497 0.53529 0.0
C82 C 0.06147 0.70684 0.56708 0.0
C83 C 0.1303 0.72127 0.55805 0.0
C84 C 0.15455 0.7278 0.49713 0.0
C85 C 0.20267 0.74263 0.49095 0.0
C86 C 0.22748 0.75126 0.54548 0.0
C87 C 0.20736 0.74442 0.60616 0.0
C88 C 0.1591 0.72962 0.6123 0.0
C89 C 1.03216 0.66684 0.42254 0.0
C90 C 0.30519 0.66198 0.52585 0.0
C91 C 1.04948 0.61621 0.52622 0.0
C92 C 1.03836 0.59921 0.52369 0.0
C93 C 0.98936 0.59112 0.57722 0.0
C94 C 0.99029 0.57503 0.57853 0.0
C95 C 1.04038 0.56657 0.52635 0.0
C96 C 0.08655 0.57468 0.47201 0.0
C97 C 0.0855 0.59082 0.4707 0.0
C98 C 0.08626 0.65777 0.64902 0.0
C99 C 0.8156 0.66128 0.53966 0.0
O100 O 1.00796 0.70148 0.5182 0.0
O101 O 0.10523 0.69584 0.60122 0.0
O102 O 0.97818 0.67904 0.44418 0.0
O103 O 0.10146 0.66227 0.46353 0.0
O104 O 0.24391 0.67479 0.53826 0.0
O105 O 0.25197 0.6488 0.51536 0.0
O106 O 1.01014 0.62399 0.57652 0.0
O107 O 0.09362 0.62478 0.47894 0.0
O108 O 0.15003 0.64652 0.62606 0.0
O109 O 1.01269 0.66137 0.60891 0.0
O110 O 0.87944 0.64971 0.51512 0.0
O111 O 0.86802 0.67303 0.56586 0.0
H112 H 0.13313 0.72166 0.45434 0.0
H113 H 0.21887 0.74744 0.44344 0.0
H114 H 0.22415 0.75075 0.64924 0.0
H115 H 0.13991 0.72493 0.65982 0.0
H116 H 0.95309 0.59722 0.61909 0.0
H117 H 0.95526 0.56924 0.62148 0.0
H118 H 0.12432 0.56854 0.43059 0.0
H119 H 0.12423 0.59673 0.42885 0.0
La120 La 1.048 0.42135 0.53414 0.0
La121 La 0.06201 0.38771 0.53132 0.0
C122 C 0.0631 0.45011 0.54331 0.0
C123 C 0.07419 0.4671 0.54586 0.0
C124 C 0.12311 0.4752 0.49233 0.0
C125 C 0.12213 0.49129 0.49103 0.0
C126 C 0.07206 0.49975 0.54322 0.0
C127 C 1.02596 0.49163 0.59757 0.0
C128 C 1.02706 0.47549 0.59887 0.0
C129 C 1.02648 0.40859 0.42046 0.0
C130 C 0.29718 0.40502 0.52972 0.0
C131 C 1.05182 0.35943 0.50308 0.0
C132 C 0.98257 0.34501 0.51097 0.0
C133 C 0.95305 0.33861 0.57162 0.0
C134 C 0.9048 0.32377 0.57713 0.0
C135 C 0.88549 0.31499 0.52217 0.0
C136 C 0.91071 0.32171 0.46166 0.0
C137 C 0.95886 0.33652 0.4562 0.0
C138 C 0.08093 0.39963 0.64692 0.0
C139 C 0.80754 0.40433 0.5435 0.0
O140 O 0.10221 0.44234 0.49293 0.0
O141 O 1.01928 0.44152 0.59063 0.0
O142 O 0.96288 0.41986 0.44339 0.0
O143 O 0.09984 0.4049 0.46058 0.0
O144 O 0.23343 0.41663 0.55402 0.0
O145 O 0.24474 0.39322 0.50388 0.0
O146 O 0.10215 0.36482 0.55295 0.0
O147 O 1.01057 0.37041 0.46788 0.0
O148 O 0.13554 0.38747 0.62533 0.0
O149 O 1.01116 0.40406 0.60593 0.0
O150 O 0.86881 0.39151 0.53112 0.0
O151 O 0.86074 0.41751 0.55402 0.0
H152 H 0.15937 0.4691 0.45044 0.0
H153 H 0.15711 0.49709 0.44807 0.0
H154 H 0.9882 0.49777 0.639 0.0
H155 H 0.98838 0.46958 0.64073 0.0
H156 H 0.971 0.34483 0.6148 0.0
H157 H 0.88723 0.31894 0.6245 0.0
H158 H 0.89496 0.31543 0.41833 0.0
H159 H 0.98147 0.34116 0.40891 0.0
La160 La 0.56415 0.92134 0.03262 0.0
La161 La 0.55001 0.88768 0.03586 0.0
C162 C 0.54908 0.9501 0.02323 0.0
C163 C 0.53795 0.9671 0.02064 0.0
C164 C 0.48888 0.97517 0.07414 0.0
C165 C 0.48971 0.99126 0.07542 0.0
C166 C 0.53977 0.99975 0.02324 0.0
C167 C 0.58606 0.99167 0.96893 0.0
C168 C 0.58511 0.97552 0.96764 0.0
C169 C 0.58566 0.90861 0.14643 0.0
C170 C 0.31489 0.905 0.03715 0.0
C171 C 0.55968 0.85941 0.06458 0.0
C172 C 0.62882 0.84499 0.05735 0.0
C173 C 0.66779 0.83919 0.99698 0.0
C174 C 0.71635 0.82437 0.99126 0.0
C175 C 0.72685 0.81503 0.04572 0.0
C176 C 0.69186 0.82115 0.1062 0.0
C177 C 0.64329 0.83593 0.11185 0.0
C178 C 0.53097 0.89957 0.92016 0.0
C179 C 0.80452 0.9043 0.02342 0.0
O180 O 0.50991 0.94233 0.07364 0.0
O181 O 0.59298 0.94153 0.97599 0.0
O182 O 0.64929 0.91988 0.12337 0.0
O183 O 0.51229 0.9049 0.10634 0.0
O184 O 0.37871 0.91661 1.01278 0.0
O185 O 0.36723 0.89319 0.06307 0.0
O186 O 0.51069 0.86477 1.01421 0.0
O187 O 0.60032 0.8704 0.09986 0.0
O188 O 0.47631 0.88741 0.9419 0.0
O189 O 0.6008 0.90401 0.96108 0.0
O190 O 0.7432 0.89149 0.036 0.0
O191 O 0.75138 0.91748 1.01272 0.0
H192 H 0.45259 0.96905 0.11602 0.0
H193 H 0.45462 0.99703 0.11836 0.0
H194 H 0.62384 0.99782 0.9275 0.0
H195 H 0.6239 0.96963 0.92582 0.0
H196 H 0.65764 0.84591 0.95404 0.0
H197 H 0.74418 0.82014 0.94403 0.0
H198 H 0.69731 0.81428 0.14912 0.0
H199 H 0.61266 0.84007 0.15884 0.0
La200 La 0.56141 0.17866 0.03047 0.0
La201 La 0.5473 0.14502 0.03329 0.0
C202 C 0.55166 0.20693 1.00172 0.0
C203 C 0.4828 0.22137 1.00924 0.0
C204 C 0.4436 0.22708 0.06971 0.0
C205 C 0.39518 0.24191 0.07574 0.0
C206 C 0.38505 0.25133 0.02148 0.0
C207 C 0.42034 0.24529 0.96089 0.0
C208 C 0.46875 0.23051 0.95494 0.0
C209 C 0.58034 0.16679 0.14611 0.0
C210 C 0.3069 0.16204 0.04296 0.0
C211 C 0.56224 0.11624 0.04189 0.0
C212 C 0.57325 0.09923 0.04407 0.0
C213 C 0.62212 0.09122 0.99037 0.0
C214 C 0.62112 0.07513 0.98873 0.0
C215 C 0.57105 0.06658 0.04074 0.0
C216 C 0.52497 0.07461 0.09526 0.0
C217 C 0.52611 0.09076 0.0969 0.0
C218 C 0.5257 0.15792 0.91968 0.0
C219 C 0.79651 0.16134 0.02921 0.0
O220 O 0.60138 0.20157 0.05185 0.0
O221 O 0.51027 0.19594 0.96668 0.0
O222 O 0.6346 0.17899 0.12444 0.0
O223 O 0.51079 0.16227 0.10516 0.0
O224 O 0.36818 0.17486 0.0305 0.0
O225 O 0.3601 0.14885 0.05342 0.0
O226 O 0.60158 0.12408 0.99172 0.0
O227 O 0.5183 0.12474 0.08934 0.0
O228 O 0.46182 0.14666 0.94259 0.0
O229 O 0.5993 0.16148 0.95982 0.0
O230 O 0.73264 0.14972 0.05343 0.0
O231 O 0.74421 0.17315 1.00331 0.0
H232 H 0.45343 0.22029 0.1125 0.0
H233 H 0.36711 0.24607 0.12303 0.0
H234 H 0.41521 0.25223 0.91812 0.0
H235 H 0.49958 0.22643 0.90789 0.0
H236 H 0.65839 0.09738 0.9486 0.0
H237 H 0.65608 0.0694 0.94565 0.0
H238 H 0.48722 0.06841 0.13657 0.0
H239 H 0.48746 0.09659 0.13888 0.0
La240 La 0.55067 0.17857 0.53541 0.0
La241 La 0.56459 0.14494 0.5325 0.0
C242 C 0.56095 0.20682 0.56426 0.0
C243 C 0.62985 0.22126 0.55625 0.0
C244 C 0.65915 0.22765 0.49556 0.0
C245 C 0.70718 0.2425 0.48997 0.0
C246 C 0.7265 0.2513 0.54488 0.0
C247 C 0.7015 0.24459 0.60542 0.0
C248 C 0.65356 0.22976 0.61097 0.0
C249 C 0.53186 0.16679 0.41969 0.0
C250 C 0.80513 0.16196 0.52295 0.0
C251 C 0.5494 0.11617 0.5237 0.0
C252 C 0.53811 0.09918 0.52113 0.0
C253 C 0.48364 0.09116 0.57342 0.0
C254 C 0.4849 0.07507 0.57525 0.0
C255 C 0.54089 0.06655 0.5249 0.0
C256 C 0.59198 0.07458 0.47152 0.0
C257 C 0.59069 0.09072 0.4697 0.0
C258 C 0.58619 0.15777 0.64617 0.0
C259 C 0.31556 0.16126 0.53658 0.0
O260 O 0.50961 0.20148 0.51462 0.0
O261 O 0.6032 0.1958 0.59891 0.0
O262 O 0.47781 0.17899 0.44135 0.0
O263 O 0.60127 0.16223 0.46065 0.0
O264 O 0.7439 0.17477 0.53531 0.0
O265 O 0.75187 0.14877 0.51257 0.0
O266 O 0.50894 0.12399 0.57368 0.0
O267 O 0.59462 0.12471 0.47659 0.0
O268 O 0.64991 0.14651 0.62328 0.0
O269 O 0.51267 0.16136 0.60602 0.0
O270 O 0.37941 0.14967 0.51215 0.0
O271 O 0.36791 0.17303 0.56268 0.0
H272 H 0.64121 0.22141 0.45243 0.0
H273 H 0.72462 0.24732 0.44257 0.0
H274 H 0.71726 0.25088 0.64872 0.0
H275 H 0.63115 0.22514 0.65829 0.0
H276 H 0.44223 0.09732 0.61386 0.0
H277 H 0.44264 0.0693 0.61652 0.0
H278 H 0.63662 0.06841 0.43207 0.0
H279 H 0.63416 0.09658 0.42898 0.0
La280 La 0.54773 0.92134 0.53366 0.0
La281 La 0.56171 0.88773 0.53094 0.0
C282 C 0.56305 0.9501 0.54265 0.0
C283 C 0.57444 0.96709 0.5453 0.0
C284 C 0.62897 0.97512 0.49306 0.0
C285 C 0.62773 0.99121 0.49127 0.0
C286 C 0.57169 0.99972 0.54163 0.0
C287 C 0.52057 0.99169 0.59498 0.0
C288 C 0.52184 0.97554 0.59675 0.0
C289 C 0.52614 0.90858 0.41997 0.0
C290 C 0.79679 0.90503 0.5293 0.0
C291 C 0.55105 0.85944 0.50288 0.0
C292 C 0.48199 0.84503 0.51193 0.0
C293 C 0.45769 0.8385 0.57285 0.0
C294 C 0.40944 0.82367 0.57905 0.0
C295 C 0.38456 0.81504 0.52453 0.0
C296 C 0.40471 0.82188 0.46385 0.0
C297 C 0.45309 0.83667 0.45769 0.0
C298 C 0.58046 0.89963 0.64659 0.0
C299 C 0.3072 0.90434 0.54306 0.0
O300 O 0.60341 0.9423 0.4926 0.0
O301 O 0.51788 0.94155 0.58972 0.0
O302 O 0.46261 0.91986 0.44292 0.0
O303 O 0.59952 0.90489 0.46008 0.0
O304 O 0.73299 0.91661 0.55383 0.0
O305 O 0.74432 0.89327 0.50323 0.0
O306 O 0.60379 0.86486 0.5519 0.0
O307 O 0.50799 0.8704 0.46824 0.0
O308 O 0.63483 0.88745 0.62505 0.0
O309 O 0.51082 0.90407 0.60556 0.0
O310 O 0.36849 0.89152 0.53082 0.0
O311 O 0.36042 0.91753 0.55345 0.0
H312 H 0.67041 0.96897 0.4526 0.0
H313 H 0.67003 0.99699 0.45003 0.0
H314 H 0.47589 0.99784 0.63444 0.0
H315 H 0.47831 0.96968 0.63744 0.0
H316 H 0.47919 0.84464 0.61564 0.0
H317 H 0.39322 0.81887 0.62657 0.0
H318 H 0.38786 0.81555 0.42078 0.0
H319 H 0.47233 0.84135 0.41016 0.0
C320 C 0.49595 0.39128 0.04675 0.0
C321 C 0.43614 0.40419 0.02439 0.0
H322 H 0.66193 0.38148 0.06907 0.0
C323 C 0.50245 0.41736 1.00588 0.0
H324 H 0.44775 0.38099 0.06171 0.0
C325 C 0.62539 0.41766 1.01012 0.0
C326 C 0.68494 0.40483 0.03339 0.0
H327 H 0.4594 0.42753 0.98845 0.0
H328 H 0.67353 0.42799 0.99556 0.0
C329 C 0.61884 0.39162 0.05138 0.0
C330 C 0.48687 0.64874 0.05974 0.0
C331 C 0.42734 0.66156 0.03636 0.0
H332 H 0.65288 0.63887 0.08146 0.0
C333 C 0.49346 0.67476 0.01826 0.0
H334 H 0.43872 0.63842 0.07438 0.0
C335 C 0.61635 0.6751 0.02287 0.0
C336 C 0.67616 0.6622 0.04532 0.0
H337 H 0.45039 0.6849 1.00047 0.0
H338 H 0.66456 0.68538 1.0078 0.0
C339 C 0.60983 0.64904 0.06396 0.0
C340 C 0.61903 0.67467 0.55379 0.0
C341 C 0.68515 0.66149 0.53552 0.0
H342 H 0.44793 0.68527 0.56432 0.0
C343 C 0.62562 0.6487 0.51194 0.0
H344 H 0.66211 0.68478 0.57174 0.0
C345 C 0.50268 0.649 0.50766 0.0
C346 C 0.43635 0.66213 0.52644 0.0
H347 H 0.67377 0.6384 0.49715 0.0
H348 H 0.45965 0.63886 0.48998 0.0
C349 C 0.49615 0.675 0.54912 0.0
C350 C 0.61013 0.41733 0.56143 0.0
C351 C 0.6764 0.40418 0.54286 0.0
H352 H 0.4391 0.42795 0.57179 0.0
C353 C 0.61657 0.39129 0.52039 0.0
H354 H 0.6532 0.42749 0.57895 0.0
C355 C 0.49369 0.39162 0.51573 0.0
C356 C 0.42763 0.40482 0.5338 0.0
H357 H 0.66475 0.381 0.50536 0.0
H358 H 0.45058 0.3815 0.49795 0.0
C359 C 0.48721 0.41763 0.55716 0.0
C360 C 1.00201 0.9173 1.00531 0.0
C361 C 0.93565 0.90416 0.02403 0.0
H362 H 0.17312 0.92792 0.99483 0.0
C363 C 0.99541 0.89127 0.04662 0.0
H364 H 0.959 0.92746 0.98769 0.0
C365 C 0.1183 0.8916 0.05126 0.0
C366 C 0.18444 0.9048 0.03305 0.0
H367 H 0.94717 0.88099 0.06176 0.0
H368 H 0.16134 0.88148 0.06913 0.0
C369 C 0.12494 0.9176 1.00956 0.0
C370 C 0.10942 0.14902 0.06094 0.0
C371 C 0.17574 0.16219 0.04242 0.0
H372 H 0.93834 0.13839 0.07125 0.0
C373 C 0.11593 0.17509 0.02004 0.0
H374 H 0.15248 0.13885 0.07839 0.0
C375 C 0.99305 0.17476 1.0154 0.0
C376 C 0.92694 0.16154 0.03338 0.0
H377 H 0.16413 0.18539 1.00506 0.0
H378 H 0.94997 0.1849 0.99767 0.0
C379 C 0.98649 0.14872 0.05668 0.0
C380 C 0.12552 0.14866 0.50902 0.0
C381 C 0.18511 0.16146 0.53242 0.0
H382 H 0.95948 0.1388 0.48728 0.0
C383 C 0.11905 0.17466 0.55056 0.0
H384 H 0.17363 0.13835 0.49435 0.0
C385 C 0.99615 0.17499 0.54595 0.0
C386 C 0.93629 0.1621 0.52347 0.0
H387 H 0.16217 0.18478 0.56836 0.0
H388 H 0.94798 0.18527 0.56104 0.0
C389 C 1.00257 0.14896 0.50481 0.0
C390 C 0.99335 0.89164 0.51522 0.0
C391 C 0.92725 0.90483 0.53339 0.0
H392 H 0.16445 0.88103 0.50478 0.0
C393 C 0.98681 0.91762 0.55684 0.0
H394 H 0.95025 0.88152 0.49738 0.0
C395 C 0.10974 0.91733 0.5611 0.0
C396 C 0.17605 0.90419 0.54244 0.0
H397 H 0.93868 0.92794 0.57154 0.0
H398 H 0.15279 0.92748 0.57869 0.0
C399 C 0.11624 0.8913 0.51988 0.0
C400 C 1.04091 0.54227 0.98077 0.0
C401 C 0.06381 0.54948 0.03899 0.0
H402 H 1.01415 0.5211 0.93117 0.0
C403 C 0.07889 0.54017 0.09288 0.0
H404 H 1.02668 0.54906 0.93851 0.0
C405 C 0.07154 0.52411 0.08864 0.0
C406 C 1.04862 0.51691 0.03041 0.0
H407 H 0.0983 0.54528 0.13824 0.0
H408 H 0.08576 0.51732 0.1309 0.0
C409 C 1.03356 0.52621 0.97652 0.0
C410 C 0.96248 0.5247 0.56389 0.0
C411 C 0.06471 0.51689 0.53978 0.0
H412 H 0.87337 0.54631 0.57731 0.0
C413 C 0.15835 0.52558 0.51064 0.0
H414 H 0.88771 0.51839 0.58555 0.0
C415 C 0.14996 0.54162 0.5057 0.0
C416 C 1.04773 0.54942 0.52981 0.0
H417 H 0.23907 0.52001 0.49228 0.0
H418 H 0.22473 0.54793 0.48405 0.0
C419 C 0.95409 0.54073 0.55895 0.0
C420 C 0.45327 1.02555 0.05595 0.0
C421 C 0.54693 1.01691 0.0267 0.0
H422 H 0.3868 0.04786 0.08283 0.0
C423 C 0.64902 1.02476 1.00256 0.0
H424 H 0.37262 1.01995 0.07431 0.0
C425 C 0.6573 0.04079 1.00765 0.0
C426 C 0.56371 0.04944 0.03698 0.0
H427 H 0.7238 1.01848 0.9808 0.0
H428 H 0.73796 0.0464 0.9893 0.0
C429 C 0.46157 0.04159 0.06105 0.0
C430 C 0.57072 0.04217 0.58737 0.0
C431 C 0.54851 0.04942 0.52909 0.0
H432 H 0.59707 1.02097 0.63692 0.0
C433 C 0.53428 0.04016 0.47504 0.0
H434 H 0.58427 0.04893 0.62976 0.0
C435 C 0.54179 1.0241 0.47918 0.0
C436 C 0.56402 1.01685 0.53746 0.0
H437 H 0.51543 0.0453 0.42963 0.0
H438 H 0.52824 1.01735 0.43679 0.0
C439 C 0.57822 1.02611 0.59152 0.0
C440 C 0.34228 0.29233 0.08315 0.0
C441 C 0.26912 0.29878 0.0382 0.0
H442 H 0.43681 0.27248 0.1129 0.0
C443 C 0.23332 0.28941 0.98809 0.0
H444 H 0.37285 0.29923 0.12191 0.0
C445 C 0.26966 0.27403 0.98306 0.0
C446 C 0.34285 0.26758 0.028 0.0
H447 H 0.17514 0.29388 0.9533 0.0
H448 H 0.23909 0.26713 0.9443 0.0
C449 C 0.37863 0.27695 0.07812 0.0
C450 C 0.84268 0.7924 0.08441 0.0
C451 C 0.76906 0.79878 0.03951 0.0
H452 H 0.93766 0.77261 0.11435 0.0
C453 C 0.73287 0.78934 0.98972 0.0
H454 H 0.87353 0.79936 0.12293 0.0
C455 C 0.7693 0.77395 0.98495 0.0
C456 C 0.84297 0.76757 0.02982 0.0
H457 H 0.67434 0.79374 0.955 0.0
H458 H 0.73843 0.76699 0.94644 0.0
C459 C 0.87912 0.77701 0.07963 0.0
C460 C 0.3549 0.7733 0.57912 0.0
C461 C 0.26914 0.76755 0.5395 0.0
H462 H 0.45915 0.79263 0.60511 0.0
C463 C 0.22071 0.77762 0.49535 0.0
H464 H 0.39522 0.76585 0.6131 0.0
C465 C 0.25708 0.79301 0.49092 0.0
C466 C 0.34285 0.79876 0.53054 0.0
H467 H 0.15284 0.77368 0.46492 0.0
H468 H 0.21677 0.80046 0.45693 0.0
C469 C 0.39127 0.78869 0.57469 0.0
C470 C 0.89209 0.28731 0.48594 0.0
C471 C 0.84385 0.2987 0.52776 0.0
H472 H 0.89486 0.26352 0.45906 0.0
C473 C 0.75722 0.29431 0.57541 0.0
H474 H 0.96059 0.29019 0.44942 0.0
C475 C 0.71974 0.27898 0.58102 0.0
C476 C 0.768 0.2676 0.53922 0.0
H477 H 0.71697 0.30278 0.6079 0.0
H478 H 0.65125 0.2761 0.61755 0.0
C479 C 0.8546 0.27198 0.49155 0.0
C480 C 0.1699 0.40526 0.25342 0.0
C481 C 0.07065 0.40561 0.21634 0.0
H482 H 0.23347 0.40532 0.34797 0.0
C483 C 0.95679 0.40511 0.24707 0.0
H484 H 0.2585 0.4057 0.23059 0.0
C485 C 0.94251 0.40541 0.31401 0.0
C486 C 1.04178 0.40565 0.35108 0.0
H487 H 0.87895 0.40551 0.21944 0.0
H488 H 0.85395 0.40596 0.33682 0.0
C489 C 0.1556 0.40501 0.32036 0.0
C490 C 0.95534 0.66298 0.25035 0.0
C491 C 0.0679 0.66356 0.21823 0.0
H492 H 0.85638 0.66383 0.34133 0.0
C493 C 0.16889 0.66325 0.25408 0.0
H494 H 0.87625 0.66341 0.22374 0.0
C495 C 0.15761 0.66298 0.32116 0.0
C496 C 1.04505 0.66356 0.35328 0.0
H497 H 0.25657 0.66381 0.23018 0.0
H498 H 0.23671 0.66339 0.34777 0.0
C499 C 0.94406 0.66326 0.31742 0.0
C500 C 0.94264 0.66116 0.81602 0.0
C501 C 1.04182 0.6608 0.85314 0.0
H502 H 0.8792 0.66111 0.72143 0.0
C503 C 0.15573 0.66125 0.82246 0.0
H504 H 0.854 0.66076 0.83881 0.0
C505 C 0.1701 0.66093 0.75552 0.0
C506 C 0.07088 0.66072 0.7184 0.0
H507 H 0.23352 0.66083 0.85012 0.0
H508 H 0.25868 0.66035 0.73275 0.0
C509 C 0.95704 0.6614 0.74908 0.0
C510 C 0.9553 0.40361 0.74817 0.0
C511 C 0.06793 0.40294 0.71616 0.0
H512 H 0.85601 0.40287 0.83906 0.0
C513 C 0.16879 0.40318 0.75211 0.0
H514 H 0.87628 0.40325 0.72148 0.0
C515 C 0.15731 0.40349 0.81918 0.0
C516 C 1.04463 0.40299 0.8512 0.0
H517 H 0.25652 0.40256 0.7283 0.0
H518 H 0.23629 0.40301 0.84587 0.0
C519 C 0.94379 0.40336 0.81524 0.0
C520 C 0.45654 0.90506 0.24658 0.0
C521 C 0.57035 0.90568 0.21584 0.0
H522 H 0.35371 0.90578 0.33637 0.0
C523 C 0.66964 0.90544 0.25289 0.0
H524 H 0.37866 0.90538 0.21898 0.0
C525 C 0.65541 0.90516 0.31984 0.0
C526 C 0.54157 0.90567 0.35058 0.0
H527 H 0.7582 0.90598 0.23006 0.0
H528 H 0.73327 0.90555 0.34744 0.0
C529 C 0.44229 0.90533 0.31353 0.0
C530 C 0.45485 0.16297 0.24752 0.0
C531 C 0.56741 0.1635 0.21538 0.0
H532 H 0.35596 0.16385 0.33851 0.0
C533 C 0.66841 0.16315 0.25122 0.0
H534 H 0.37575 0.16343 0.22092 0.0
C535 C 0.65716 0.16287 0.3183 0.0
C536 C 0.54463 0.16351 0.35043 0.0
H537 H 0.75609 0.16367 0.2273 0.0
H538 H 0.73628 0.16325 0.34489 0.0
C539 C 0.44362 0.16325 0.31459 0.0
C540 C 0.65547 0.16126 0.81963 0.0
C541 C 0.54152 0.16083 0.85027 0.0
H542 H 0.75852 0.16034 0.72995 0.0
C543 C 0.4424 0.1612 0.8131 0.0
H544 H 0.73321 0.16083 0.84732 0.0
C545 C 0.45688 0.16143 0.74616 0.0
C546 C 0.57075 0.16073 0.71553 0.0
H547 H 0.35373 0.16081 0.83586 0.0
H548 H 0.37908 0.16115 0.71849 0.0
C549 C 0.66992 0.16094 0.75269 0.0
C550 C 0.45447 0.90337 0.74787 0.0
C551 C 0.56716 0.90291 0.71584 0.0
H552 H 0.3553 0.90242 0.83876 0.0
C553 C 0.668 0.90332 0.75179 0.0
H554 H 0.3755 0.90287 0.72118 0.0
C555 C 0.65651 0.90358 0.81886 0.0
C556 C 0.5439 0.90287 0.85088 0.0
H557 H 0.75578 0.90285 0.72796 0.0
H558 H 0.73555 0.90324 0.84553 0.0
C559 C 0.44302 0.90308 0.81493 0.0
loop_
_geom_bond_atom_site_label_1
_geom_bond_atom_site_label_2
_geom_bond_distance
_geom_bond_site_symmetry_2
_ccdc_geom_bond_type
La0 C2 2.928 1_455 S
La0 O20 2.521 . S
La0 O21 2.628 1_454 S
La0 O22 2.554 . S
La0 O23 2.757 . S
La0 O24 2.470 1_455 S
La0 O29 2.482 1_554 S
La0 O31 2.503 . S
La1 C11 2.928 . S
La1 O23 2.482 . S
La1 O25 2.503 1_455 S
La1 O26 2.521 1_554 S
La1 O27 2.628 . S
La1 O28 2.554 1_554 S
La1 O29 2.757 1_554 S
La1 O30 2.470 1_554 S
C2 La0 2.928 1_655 S
C2 C3 1.503 . S
C2 O20 1.261 1_655 S
C2 O21 1.243 1_554 S
C3 C2 1.503 . S
C3 C4 1.394 . S
C3 C8 1.373 1_554 S
C4 C3 1.394 . S
C4 C5 1.380 . S
C4 H32 0.930 . S
C5 C4 1.380 . S
C5 C6 1.376 . S
C5 H33 0.930 . S
C6 C5 1.376 . S
C6 C7 1.370 1_554 S
C7 C6 1.370 1_556 S
C7 C8 1.396 . S
C7 H34 0.929 . S
C8 C3 1.373 1_556 S
C8 C7 1.396 . S
C8 H35 0.929 . S
C9 O22 1.240 . S
C9 O23 1.289 . S
C10 O24 1.258 . S
C10 O25 1.256 . S
C11 La1 2.928 . S
C11 C12 1.503 . S
C11 O26 1.261 1_554 S
C11 O27 1.243 . S
C12 C11 1.503 . S
C12 C13 1.394 1_554 S
C12 C17 1.373 . S
C13 C12 1.394 1_556 S
C13 C14 1.380 . S
C13 H36 0.930 . S
C14 C13 1.380 . S
C14 C15 1.376 1_556 S
C14 H37 0.930 . S
C15 C14 1.376 1_554 S
C15 C16 1.370 . S
C16 C15 1.370 . S
C16 C17 1.396 . S
C16 H38 0.929 . S
C17 C12 1.373 . S
C17 C16 1.396 . S
C17 H39 0.929 . S
C18 O28 1.240 . S
C18 O29 1.289 . S
C19 O30 1.258 1_554 S
C19 O31 1.256 . S
O20 La0 2.521 . S
O20 C2 1.261 1_455 S
O21 La0 2.628 1_656 S
O21 C2 1.243 1_556 S
O22 La0 2.554 . S
O22 C9 1.240 . S
O23 La0 2.757 . S
O23 La1 2.482 . S
O23 C9 1.289 . S
O24 La0 2.470 1_655 S
O24 C10 1.258 . S
O25 La1 2.503 1_655 S
O25 C10 1.256 . S
O26 La1 2.521 1_556 S
O26 C11 1.261 1_556 S
O27 La1 2.628 . S
O27 C11 1.243 . S
O28 La1 2.554 1_556 S
O28 C18 1.240 . S
O29 La0 2.482 1_556 S
O29 La1 2.757 1_556 S
O29 C18 1.289 . S
O30 La1 2.470 1_556 S
O30 C19 1.258 1_556 S
O31 La0 2.503 . S
O31 C19 1.256 . S
H32 C4 0.930 . S
H33 C5 0.930 . S
H34 C7 0.929 . S
H35 C8 0.929 . S
H36 C13 0.930 . S
H37 C14 0.930 . S
H38 C16 0.929 . S
H39 C17 0.929 . S
La40 C42 2.928 . S
La40 O60 2.521 . S
La40 O61 2.628 1_554 S
La40 O62 2.554 . S
La40 O63 2.757 . S
La40 O64 2.470 . S
La40 O69 2.482 1_554 S
La40 O71 2.503 1_655 S
La41 C51 2.928 1_655 S
La41 O63 2.482 . S
La41 O65 2.503 . S
La41 O66 2.521 1_554 S
La41 O67 2.628 1_655 S
La41 O68 2.554 1_554 S
La41 O69 2.757 1_554 S
La41 O70 2.470 1_654 S
C42 La40 2.928 . S
C42 C43 1.503 . S
C42 O60 1.261 . S
C42 O61 1.243 1_554 S
C43 C42 1.503 . S
C43 C44 1.394 . S
C43 C48 1.373 1_554 S
C44 C43 1.394 . S
C44 C45 1.380 . S
C44 H72 0.930 . S
C45 C44 1.380 . S
C45 C46 1.376 . S
C45 H73 0.930 . S
C46 C45 1.376 . S
C46 C47 1.370 1_554 S
C47 C46 1.370 1_556 S
C47 C48 1.396 . S
C47 H74 0.929 . S
C48 C43 1.373 1_556 S
C48 C47 1.396 . S
C48 H75 0.929 . S
C49 O62 1.240 . S
C49 O63 1.289 . S
C50 O64 1.258 . S
C50 O65 1.256 . S
C51 La41 2.928 1_455 S
C51 C52 1.503 . S
C51 O66 1.261 1_454 S
C51 O67 1.243 . S
C52 C51 1.503 . S
C52 C53 1.394 1_554 S
C52 C57 1.373 . S
C53 C52 1.394 1_556 S
C53 C54 1.380 . S
C53 H76 0.930 . S
C54 C53 1.380 . S
C54 C55 1.376 1_556 S
C54 H77 0.930 . S
C55 C54 1.376 1_554 S
C55 C56 1.370 . S
C56 C55 1.370 . S
C56 C57 1.396 . S
C56 H78 0.929 . S
C57 C52 1.373 . S
C57 C56 1.396 . S
C57 H79 0.929 . S
C58 O68 1.240 . S
C58 O69 1.289 . S
C59 O70 1.258 1_554 S
C59 O71 1.256 . S
O60 La40 2.521 . S
O60 C42 1.261 . S
O61 La40 2.628 1_556 S
O61 C42 1.243 1_556 S
O62 La40 2.554 . S
O62 C49 1.240 . S
O63 La40 2.757 . S
O63 La41 2.482 . S
O63 C49 1.289 . S
O64 La40 2.470 . S
O64 C50 1.258 . S
O65 La41 2.503 . S
O65 C50 1.256 . S
O66 La41 2.521 1_556 S
O66 C51 1.261 1_656 S
O67 La41 2.628 1_455 S
O67 C51 1.243 . S
O68 La41 2.554 1_556 S
O68 C58 1.240 . S
O69 La40 2.482 1_556 S
O69 La41 2.757 1_556 S
O69 C58 1.289 . S
O70 La41 2.470 1_456 S
O70 C59 1.258 1_556 S
O71 La40 2.503 1_455 S
O71 C59 1.256 . S
H72 C44 0.930 . S
H73 C45 0.930 . S
H74 C47 0.929 . S
H75 C48 0.929 . S
H76 C53 0.930 . S
H77 C54 0.930 . S
H78 C56 0.929 . S
H79 C57 0.929 . S
La80 C82 2.928 . S
La80 O100 2.521 . S
La80 O101 2.628 . S
La80 O102 2.554 . S
La80 O103 2.757 . S
La80 O104 2.470 . S
La80 O109 2.482 . S
La80 O111 2.503 1_455 S
La81 C91 2.928 1_455 S
La81 O103 2.482 . S
La81 O105 2.503 . S
La81 O106 2.521 . S
La81 O107 2.628 1_455 S
La81 O108 2.554 . S
La81 O109 2.757 . S
La81 O110 2.470 1_455 S
C82 La80 2.928 . S
C82 C83 1.503 . S
C82 O100 1.261 . S
C82 O101 1.243 . S
C83 C82 1.503 . S
C83 C84 1.394 . S
C83 C88 1.373 . S
C84 C83 1.394 . S
C84 C85 1.380 . S
C84 H112 0.930 . S
C85 C84 1.380 . S
C85 C86 1.376 . S
C85 H113 0.930 . S
C86 C85 1.376 . S
C86 C87 1.370 . S
C87 C86 1.370 . S
C87 C88 1.396 . S
C87 H114 0.929 . S
C88 C83 1.373 . S
C88 C87 1.396 . S
C88 H115 0.929 . S
C89 O102 1.240 . S
C89 O103 1.289 . S
C90 O104 1.258 . S
C90 O105 1.256 . S
C91 La81 2.928 1_655 S
C91 C92 1.503 . S
C91 O106 1.261 1_655 S
C91 O107 1.243 . S
C92 C91 1.503 . S
C92 C93 1.394 . S
C92 C97 1.373 . S
C93 C92 1.394 . S
C93 C94 1.380 . S
C93 H116 0.930 . S
C94 C93 1.380 . S
C94 C95 1.376 . S
C94 H117 0.930 . S
C95 C94 1.376 . S
C95 C96 1.370 . S
C96 C95 1.370 . S
C96 C97 1.396 . S
C96 H118 0.929 . S
C97 C92 1.373 . S
C97 C96 1.396 . S
C97 H119 0.929 . S
C98 O108 1.240 . S
C98 O109 1.289 . S
C99 O110 1.258 . S
C99 O111 1.256 . S
O100 La80 2.521 . S
O100 C82 1.261 . S
O101 La80 2.628 . S
O101 C82 1.243 . S
O102 La80 2.554 . S
O102 C89 1.240 . S
O103 La80 2.757 . S
O103 La81 2.482 . S
O103 C89 1.289 . S
O104 La80 2.470 . S
O104 C90 1.258 . S
O105 La81 2.503 . S
O105 C90 1.256 . S
O106 La81 2.521 . S
O106 C91 1.261 1_455 S
O107 La81 2.628 1_655 S
O107 C91 1.243 . S
O108 La81 2.554 . S
O108 C98 1.240 . S
O109 La80 2.482 . S
O109 La81 2.757 . S
O109 C98 1.289 . S
O110 La81 2.470 1_655 S
O110 C99 1.258 . S
O111 La80 2.503 1_655 S
O111 C99 1.256 . S
H112 C84 0.930 . S
H113 C85 0.930 . S
H114 C87 0.929 . S
H115 C88 0.929 . S
H116 C93 0.930 . S
H117 C94 0.930 . S
H118 C96 0.929 . S
H119 C97 0.929 . S
La120 C122 2.928 1_655 S
La120 O140 2.521 . S
La120 O141 2.628 1_655 S
La120 O142 2.554 . S
La120 O143 2.757 . S
La120 O144 2.470 1_655 S
La120 O149 2.482 . S
La120 O151 2.503 . S
La121 C131 2.928 . S
La121 O143 2.482 . S
La121 O145 2.503 1_655 S
La121 O146 2.521 . S
La121 O147 2.628 . S
La121 O148 2.554 . S
La121 O149 2.757 . S
La121 O150 2.470 . S
C122 La120 2.928 1_455 S
C122 C123 1.503 . S
C122 O140 1.261 1_455 S
C122 O141 1.243 . S
C123 C122 1.503 . S
C123 C124 1.394 . S
C123 C128 1.373 . S
C124 C123 1.394 . S
C124 C125 1.380 . S
C124 H152 0.930 . S
C125 C124 1.380 . S
C125 C126 1.376 . S
C125 H153 0.930 . S
C126 C125 1.376 . S
C126 C127 1.370 . S
C127 C126 1.370 . S
C127 C128 1.396 . S
C127 H154 0.929 . S
C128 C123 1.373 . S
C128 C127 1.396 . S
C128 H155 0.929 . S
C129 O142 1.240 . S
C129 O143 1.289 . S
C130 O144 1.258 . S
C130 O145 1.256 . S
C131 La121 2.928 . S
C131 C132 1.503 . S
C131 O146 1.261 . S
C131 O147 1.243 . S
C132 C131 1.503 . S
C132 C133 1.394 . S
C132 C137 1.373 . S
C133 C132 1.394 . S
C133 C134 1.380 . S
C133 H156 0.930 . S
C134 C133 1.380 . S
C134 C135 1.376 . S
C134 H157 0.930 . S
C135 C134 1.376 . S
C135 C136 1.370 . S
C136 C135 1.370 . S
C136 C137 1.396 . S
C136 H158 0.929 . S
C137 C132 1.373 . S
C137 C136 1.396 . S
C137 H159 0.929 . S
C138 O148 1.240 . S
C138 O149 1.289 . S
C139 O150 1.258 . S
C139 O151 1.256 . S
O140 La120 2.521 . S
O140 C122 1.261 1_655 S
O141 La120 2.628 1_455 S
O141 C122 1.243 . S
O142 La120 2.554 . S
O142 C129 1.240 . S
O143 La120 2.757 . S
O143 La121 2.482 . S
O143 C129 1.289 . S
O144 La120 2.470 1_455 S
O144 C130 1.258 . S
O145 La121 2.503 1_455 S
O145 C130 1.256 . S
O146 La121 2.521 . S
O146 C131 1.261 . S
O147 La121 2.628 . S
O147 C131 1.243 . S
O148 La121 2.554 . S
O148 C138 1.240 . S
O149 La120 2.482 . S
O149 La121 2.757 . S
O149 C138 1.289 . S
O150 La121 2.470 . S
O150 C139 1.258 . S
O151 La120 2.503 . S
O151 C139 1.256 . S
H152 C124 0.930 . S
H153 C125 0.930 . S
H154 C127 0.929 . S
H155 C128 0.929 . S
H156 C133 0.930 . S
H157 C134 0.930 . S
H158 C136 0.929 . S
H159 C137 0.929 . S
La160 C162 2.928 . S
La160 O180 2.521 . S
La160 O181 2.628 1_554 S
La160 O182 2.554 . S
La160 O183 2.757 . S
La160 O184 2.470 . S
La160 O189 2.482 1_554 S
La160 O191 2.503 . S
La161 C171 2.928 . S
La161 O183 2.482 . S
La161 O185 2.503 . S
La161 O186 2.521 1_554 S
La161 O187 2.628 . S
La161 O188 2.554 1_554 S
La161 O189 2.757 1_554 S
La161 O190 2.470 1_554 S
C162 La160 2.928 . S
C162 C163 1.503 . S
C162 O180 1.261 . S
C162 O181 1.243 1_554 S
C163 C162 1.503 . S
C163 C164 1.394 . S
C163 C168 1.373 1_554 S
C164 C163 1.394 . S
C164 C165 1.380 . S
C164 H192 0.930 . S
C165 C164 1.380 . S
C165 C166 1.376 . S
C165 H193 0.930 . S
C166 C165 1.376 . S
C166 C167 1.370 1_554 S
C167 C166 1.370 1_556 S
C167 C168 1.396 . S
C167 H194 0.929 . S
C168 C163 1.373 1_556 S
C168 C167 1.396 . S
C168 H195 0.929 . S
C169 O182 1.240 . S
C169 O183 1.289 . S
C170 O184 1.258 . S
C170 O185 1.256 . S
C171 La161 2.928 . S
C171 C172 1.503 . S
C171 O186 1.261 1_554 S
C171 O187 1.243 . S
C172 C171 1.503 . S
C172 C173 1.394 1_554 S
C172 C177 1.373 . S
C173 C172 1.394 1_556 S
C173 C174 1.380 . S
C173 H196 0.930 . S
C174 C173 1.380 . S
C174 C175 1.376 1_556 S
C174 H197 0.930 . S
C175 C174 1.376 1_554 S
C175 C176 1.370 . S
C176 C175 1.370 . S
C176 C177 1.396 . S
C176 H198 0.929 . S
C177 C172 1.373 . S
C177 C176 1.396 . S
C177 H199 0.929 . S
C178 O188 1.240 . S
C178 O189 1.289 . S
C179 O190 1.258 1_554 S
C179 O191 1.256 . S
O180 La160 2.521 . S
O180 C162 1.261 . S
O181 La160 2.628 1_556 S
O181 C162 1.243 1_556 S
O182 La160 2.554 . S
O182 C169 1.240 . S
O183 La160 2.757 . S
O183 La161 2.482 . S
O183 C169 1.289 . S
O184 La160 2.470 . S
O184 C170 1.258 . S
O185 La161 2.503 . S
O185 C170 1.256 . S
O186 La161 2.521 1_556 S
O186 C171 1.261 1_556 S
O187 La161 2.628 . S
O187 C171 1.243 . S
O188 La161 2.554 1_556 S
O188 C178 1.240 . S
O189 La160 2.482 1_556 S
O189 La161 2.757 1_556 S
O189 C178 1.289 . S
O190 La161 2.470 1_556 S
O190 C179 1.258 1_556 S
O191 La160 2.503 . S
O191 C179 1.256 . S
H192 C164 0.930 . S
H193 C165 0.930 . S
H194 C167 0.929 . S
H195 C168 0.929 . S
H196 C173 0.930 . S
H197 C174 0.930 . S
H198 C176 0.929 . S
H199 C177 0.929 . S
La200 C202 2.928 . S
La200 O220 2.521 . S
La200 O221 2.628 1_554 S
La200 O222 2.554 . S
La200 O223 2.757 . S
La200 O224 2.470 . S
La200 O229 2.482 1_554 S
La200 O231 2.503 . S
La201 C211 2.928 . S
La201 O223 2.482 . S
La201 O225 2.503 . S
La201 O226 2.521 1_554 S
La201 O227 2.628 . S
La201 O228 2.554 1_554 S
La201 O229 2.757 1_554 S
La201 O230 2.470 1_554 S
C202 La200 2.928 . S
C202 C203 1.503 . S
C202 O220 1.261 . S
C202 O221 1.243 1_554 S
C203 C202 1.503 . S
C203 C204 1.394 . S
C203 C208 1.373 1_554 S
C204 C203 1.394 . S
C204 C205 1.380 . S
C204 H232 0.930 . S
C205 C204 1.380 . S
C205 C206 1.376 . S
C205 H233 0.930 . S
C206 C205 1.376 . S
C206 C207 1.370 1_554 S
C207 C206 1.370 1_556 S
C207 C208 1.396 . S
C207 H234 0.929 . S
C208 C203 1.373 1_556 S
C208 C207 1.396 . S
C208 H235 0.929 . S
C209 O222 1.240 . S
C209 O223 1.289 . S
C210 O224 1.258 . S
C210 O225 1.256 . S
C211 La201 2.928 . S
C211 C212 1.503 . S
C211 O226 1.261 1_554 S
C211 O227 1.243 . S
C212 C211 1.503 . S
C212 C213 1.394 1_554 S
C212 C217 1.373 . S
C213 C212 1.394 1_556 S
C213 C214 1.380 . S
C213 H236 0.930 . S
C214 C213 1.380 . S
C214 C215 1.376 1_556 S
C214 H237 0.930 . S
C215 C214 1.376 1_554 S
C215 C216 1.370 . S
C216 C215 1.370 . S
C216 C217 1.396 . S
C216 H238 0.929 . S
C217 C212 1.373 . S
C217 C216 1.396 . S
C217 H239 0.929 . S
C218 O228 1.240 . S
C218 O229 1.289 . S
C219 O230 1.258 1_554 S
C219 O231 1.256 . S
O220 La200 2.521 . S
O220 C202 1.261 . S
O221 La200 2.628 1_556 S
O221 C202 1.243 1_556 S
O222 La200 2.554 . S
O222 C209 1.240 . S
O223 La200 2.757 . S
O223 La201 2.482 . S
O223 C209 1.289 . S
O224 La200 2.470 . S
O224 C210 1.258 . S
O225 La201 2.503 . S
O225 C210 1.256 . S
O226 La201 2.521 1_556 S
O226 C211 1.261 1_556 S
O227 La201 2.628 . S
O227 C211 1.243 . S
O228 La201 2.554 1_556 S
O228 C218 1.240 . S
O229 La200 2.482 1_556 S
O229 La201 2.757 1_556 S
O229 C218 1.289 . S
O230 La201 2.470 1_556 S
O230 C219 1.258 1_556 S
O231 La200 2.503 . S
O231 C219 1.256 . S
H232 C204 0.930 . S
H233 C205 0.930 . S
H234 C207 0.929 . S
H235 C208 0.929 . S
H236 C213 0.930 . S
H237 C214 0.930 . S
H238 C216 0.929 . S
H239 C217 0.929 . S
La240 C242 2.928 . S
La240 O260 2.521 . S
La240 O261 2.628 . S
La240 O262 2.554 . S
La240 O263 2.757 . S
La240 O264 2.470 . S
La240 O269 2.482 . S
La240 O271 2.503 . S
La241 C251 2.928 . S
La241 O263 2.482 . S
La241 O265 2.503 . S
La241 O266 2.521 . S
La241 O267 2.628 . S
La241 O268 2.554 . S
La241 O269 2.757 . S
La241 O270 2.470 . S
C242 La240 2.928 . S
C242 C243 1.503 . S
C242 O260 1.261 . S
C242 O261 1.243 . S
C243 C242 1.503 . S
C243 C244 1.394 . S
C243 C248 1.373 . S
C244 C243 1.394 . S
C244 C245 1.380 . S
C244 H272 0.930 . S
C245 C244 1.380 . S
C245 C246 1.376 . S
C245 H273 0.930 . S
C246 C245 1.376 . S
C246 C247 1.370 . S
C247 C246 1.370 . S
C247 C248 1.396 . S
C247 H274 0.929 . S
C248 C243 1.373 . S
C248 C247 1.396 . S
C248 H275 0.929 . S
C249 O262 1.240 . S
C249 O263 1.289 . S
C250 O264 1.258 . S
C250 O265 1.256 . S
C251 La241 2.928 . S
C251 C252 1.503 . S
C251 O266 1.261 . S
C251 O267 1.243 . S
C252 C251 1.503 . S
C252 C253 1.394 . S
C252 C257 1.373 . S
C253 C252 1.394 . S
C253 C254 1.380 . S
C253 H276 0.930 . S
C254 C253 1.380 . S
C254 C255 1.376 . S
C254 H277 0.930 . S
C255 C254 1.376 . S
C255 C256 1.370 . S
C256 C255 1.370 . S
C256 C257 1.396 . S
C256 H278 0.929 . S
C257 C252 1.373 . S
C257 C256 1.396 . S
C257 H279 0.929 . S
C258 O268 1.240 . S
C258 O269 1.289 . S
C259 O270 1.258 . S
C259 O271 1.256 . S
O260 La240 2.521 . S
O260 C242 1.261 . S
O261 La240 2.628 . S
O261 C242 1.243 . S
O262 La240 2.554 . S
O262 C249 1.240 . S
O263 La240 2.757 . S
O263 La241 2.482 . S
O263 C249 1.289 . S
O264 La240 2.470 . S
O264 C250 1.258 . S
O265 La241 2.503 . S
O265 C250 1.256 . S
O266 La241 2.521 . S
O266 C251 1.261 . S
O267 La241 2.628 . S
O267 C251 1.243 . S
O268 La241 2.554 . S
O268 C258 1.240 . S
O269 La240 2.482 . S
O269 La241 2.757 . S
O269 C258 1.289 . S
O270 La241 2.470 . S
O270 C259 1.258 . S
O271 La240 2.503 . S
O271 C259 1.256 . S
H272 C244 0.930 . S
H273 C245 0.930 . S
H274 C247 0.929 . S
H275 C248 0.929 . S
H276 C253 0.930 . S
H277 C254 0.930 . S
H278 C256 0.929 . S
H279 C257 0.929 . S
La280 C282 2.928 . S
La280 O300 2.521 . S
La280 O301 2.628 . S
La280 O302 2.554 . S
La280 O303 2.757 . S
La280 O304 2.470 . S
La280 O309 2.482 . S
La280 O311 2.503 . S
La281 C291 2.928 . S
La281 O303 2.482 . S
La281 O305 2.503 . S
La281 O306 2.521 . S
La281 O307 2.628 . S
La281 O308 2.554 . S
La281 O309 2.757 . S
La281 O310 2.470 . S
C282 La280 2.928 . S
C282 C283 1.503 . S
C282 O300 1.261 . S
C282 O301 1.243 . S
C283 C282 1.503 . S
C283 C284 1.394 . S
C283 C288 1.373 . S
C284 C283 1.394 . S
C284 C285 1.380 . S
C284 H312 0.930 . S
C285 C284 1.380 . S
C285 C286 1.376 . S
C285 H313 0.930 . S
C286 C285 1.376 . S
C286 C287 1.370 . S
C287 C286 1.370 . S
C287 C288 1.396 . S
C287 H314 0.929 . S
C288 C283 1.373 . S
C288 C287 1.396 . S
C288 H315 0.929 . S
C289 O302 1.240 . S
C289 O303 1.289 . S
C290 O304 1.258 . S
C290 O305 1.256 . S
C291 La281 2.928 . S
C291 C292 1.503 . S
C291 O306 1.261 . S
C291 O307 1.243 . S
C292 C291 1.503 . S
C292 C293 1.394 . S
C292 C297 1.373 . S
C293 C292 1.394 . S
C293 C294 1.380 . S
C293 H316 0.930 . S
C294 C293 1.380 . S
C294 C295 1.376 . S
C294 H317 0.930 . S
C295 C294 1.376 . S
C295 C296 1.370 . S
C296 C295 1.370 . S
C296 C297 1.396 . S
C296 H318 0.929 . S
C297 C292 1.373 . S
C297 C296 1.396 . S
C297 H319 0.929 . S
C298 O308 1.240 . S
C298 O309 1.289 . S
C299 O310 1.258 . S
C299 O311 1.256 . S
O300 La280 2.521 . S
O300 C282 1.261 . S
O301 La280 2.628 . S
O301 C282 1.243 . S
O302 La280 2.554 . S
O302 C289 1.240 . S
O303 La280 2.757 . S
O303 La281 2.482 . S
O303 C289 1.289 . S
O304 La280 2.470 . S
O304 C290 1.258 . S
O305 La281 2.503 . S
O305 C290 1.256 . S
O306 La281 2.521 . S
O306 C291 1.261 . S
O307 La281 2.628 . S
O307 C291 1.243 . S
O308 La281 2.554 . S
O308 C298 1.240 . S
O309 La280 2.482 . S
O309 La281 2.757 . S
O309 C298 1.289 . S
O310 La281 2.470 . S
O310 C299 1.258 . S
O311 La280 2.503 . S
O311 C299 1.256 . S
H312 C284 0.930 . S
H313 C285 0.930 . S
H314 C287 0.929 . S
H315 C288 0.929 . S
H316 C293 0.930 . S
H317 C294 0.930 . S
H318 C296 0.929 . S
H319 C297 0.929 . S
C320 C321 1.387 . S
C320 H324 0.950 . S
C320 C329 1.390 . S
C321 C320 1.387 . S
C321 C323 1.387 1_554 S
H322 C329 0.950 . S
C323 C321 1.387 1_556 S
C323 C325 1.390 . S
C323 H327 0.950 . S
H324 C320 0.950 . S
C325 C323 1.390 . S
C325 C326 1.387 1_556 S
C325 H328 0.950 . S
C326 C325 1.387 1_554 S
C326 C329 1.387 . S
H327 C323 0.950 . S
H328 C325 0.950 . S
C329 C320 1.390 . S
C329 H322 0.950 . S
C329 C326 1.387 . S
C330 C331 1.387 1_556 S
C330 H334 0.950 . S
C330 C339 1.390 . S
C331 C330 1.387 1_554 S
C331 C333 1.387 . S
H332 C339 0.950 . S
C333 C331 1.387 . S
C333 C335 1.390 . S
C333 H337 0.950 . S
H334 C330 0.950 . S
C335 C333 1.390 . S
C335 C336 1.387 . S
C335 H338 0.950 . S
C336 C335 1.387 . S
C336 C339 1.387 1_554 S
H337 C333 0.950 . S
H338 C335 0.950 . S
C339 C330 1.390 . S
C339 H332 0.950 . S
C339 C336 1.387 1_556 S
C340 C341 1.387 . S
C340 H344 0.950 . S
C340 C349 1.390 . S
C341 C340 1.387 . S
C341 C343 1.387 . S
H342 C349 0.950 . S
C343 C341 1.387 . S
C343 C345 1.390 . S
C343 H347 0.950 . S
H344 C340 0.950 . S
C345 C343 1.390 . S
C345 C346 1.387 . S
C345 H348 0.950 . S
C346 C345 1.387 . S
C346 C349 1.387 . S
H347 C343 0.950 . S
H348 C345 0.950 . S
C349 C340 1.390 . S
C349 H342 0.950 . S
C349 C346 1.387 . S
C350 C351 1.387 . S
C350 H354 0.950 . S
C350 C359 1.390 . S
C351 C350 1.387 . S
C351 C353 1.387 . S
H352 C359 0.950 . S
C353 C351 1.387 . S
C353 C355 1.390 . S
C353 H357 0.950 . S
H354 C350 0.950 . S
C355 C353 1.390 . S
C355 C356 1.387 . S
C355 H358 0.950 . S
C356 C355 1.387 . S
C356 C359 1.387 . S
H357 C353 0.950 . S
H358 C355 0.950 . S
C359 C350 1.390 . S
C359 H352 0.950 . S
C359 C356 1.387 . S
C360 C361 1.387 1_456 S
C360 H364 0.950 1_455 S
C360 C369 1.390 . S
C361 C360 1.387 1_654 S
C361 C363 1.387 1_655 S
H362 C369 0.950 . S
C363 C361 1.387 1_455 S
C363 C365 1.390 . S
C363 H367 0.950 1_455 S
H364 C360 0.950 1_655 S
C365 C363 1.390 . S
C365 C366 1.387 . S
C365 H368 0.950 . S
C366 C365 1.387 . S
C366 C369 1.387 1_554 S
H367 C363 0.950 1_655 S
H368 C365 0.950 . S
C369 C360 1.390 . S
C369 H362 0.950 . S
C369 C366 1.387 1_556 S
C370 C371 1.387 1_655 S
C370 H374 0.950 1_655 S
C370 C379 1.390 . S
C371 C370 1.387 1_455 S
C371 C373 1.387 1_454 S
H372 C379 0.950 . S
C373 C371 1.387 1_656 S
C373 C375 1.390 . S
C373 H377 0.950 1_655 S
H374 C370 0.950 1_455 S
C375 C373 1.390 . S
C375 C376 1.387 1_556 S
C375 H378 0.950 . S
C376 C375 1.387 1_554 S
C376 C379 1.387 . S
H377 C373 0.950 1_455 S
H378 C375 0.950 . S
C379 C370 1.390 . S
C379 H372 0.950 . S
C379 C376 1.387 . S
C380 C381 1.387 . S
C380 H384 0.950 . S
C380 C389 1.390 . S
C381 C380 1.387 . S
C381 C383 1.387 . S
H382 C389 0.950 1_655 S
C383 C381 1.387 . S
C383 C385 1.395 . S
C383 H387 0.950 . S
H384 C380 0.950 . S
C385 C383 1.395 . S
C385 C386 1.385 1_455 S
C385 H388 0.947 1_455 S
C386 C385 1.385 1_655 S
C386 C389 1.387 1_655 S
H387 C383 0.950 . S
H388 C385 0.947 1_655 S
C389 C380 1.390 . S
C389 H382 0.950 1_455 S
C389 C386 1.387 1_455 S
C390 C391 1.387 . S
C390 H394 0.950 . S
C390 C399 1.390 . S
C391 C390 1.387 . S
C391 C393 1.387 . S
H392 C399 0.950 1_455 S
C393 C391 1.387 . S
C393 C395 1.390 . S
C393 H397 0.950 . S
H394 C390 0.950 . S
C395 C393 1.390 . S
C395 C396 1.387 1_655 S
C395 H398 0.950 1_655 S
C396 C395 1.387 1_455 S
C396 C399 1.387 1_455 S
H397 C393 0.950 . S
H398 C395 0.950 1_455 S
C399 C390 1.390 . S
C399 H392 0.950 1_655 S
C399 C396 1.387 1_655 S
C400 C401 1.387 1_556 S
C400 H404 0.950 . S
C400 C409 1.390 1_455 S
C401 C400 1.387 1_554 S
C401 C403 1.387 . S
H402 C409 0.950 . S
C403 C401 1.387 . S
C403 C405 1.390 1_455 S
C403 H407 0.950 . S
H404 C400 0.950 . S
C405 C403 1.390 1_655 S
C405 C406 1.387 . S
C405 H408 0.950 . S
C406 C405 1.387 . S
C406 C409 1.387 1_554 S
H407 C403 0.950 . S
H408 C405 0.950 . S
C409 C400 1.390 1_655 S
C409 H402 0.950 . S
C409 C406 1.387 1_556 S
C410 C411 1.387 . S
C410 H414 0.950 . S
C410 C419 1.390 1_455 S
C411 C410 1.387 . S
C411 C413 1.387 . S
H412 C419 0.950 . S
C413 C411 1.387 . S
C413 C415 1.390 1_455 S
C413 H417 0.950 . S
H414 C410 0.950 . S
C415 C413 1.390 1_655 S
C415 C416 1.387 . S
C415 H418 0.950 . S
C416 C415 1.387 . S
C416 C419 1.387 . S
H417 C413 0.950 . S
H418 C415 0.950 . S
C419 C410 1.390 1_655 S
C419 H412 0.950 . S
C419 C416 1.387 . S
C420 C421 1.387 . S
C420 H424 0.950 . S
C420 C429 1.390 1_565 S
C421 C420 1.387 . S
C421 C423 1.387 1_554 S
H422 C429 0.950 . S
C423 C421 1.387 1_556 S
C423 C425 1.390 1_565 S
C423 H427 0.950 . S
H424 C420 0.950 . S
C425 C423 1.390 1_545 S
C425 C426 1.387 1_556 S
C425 H428 0.950 . S
C426 C425 1.387 1_554 S
C426 C429 1.387 . S
H427 C423 0.950 . S
H428 C425 0.950 . S
C429 C420 1.390 1_545 S
C429 H422 0.950 . S
C429 C426 1.387 . S
C430 C431 1.387 . S
C430 H434 0.950 . S
C430 C439 1.390 1_545 S
C431 C430 1.387 . S
C431 C433 1.387 . S
H432 C439 0.950 . S
C433 C431 1.387 . S
C433 C435 1.390 1_545 S
C433 H437 0.950 . S
H434 C430 0.950 . S
C435 C433 1.390 1_565 S
C435 C436 1.387 . S
C435 H438 0.950 . S
C436 C435 1.387 . S
C436 C439 1.387 . S
H437 C433 0.950 . S
H438 C435 0.950 . S
C439 C430 1.390 1_565 S
C439 H432 0.950 . S
C439 C436 1.387 . S
C440 C441 1.387 . S
C440 H444 0.950 . S
C440 C449 1.390 . S
C441 C440 1.387 . S
C441 C443 1.387 1_554 S
H442 C449 0.950 . S
C443 C441 1.387 1_556 S
C443 C445 1.390 . S
C443 H447 0.950 . S
H444 C440 0.950 . S
C445 C443 1.390 . S
C445 C446 1.387 1_556 S
C445 H448 0.950 . S
C446 C445 1.387 1_554 S
C446 C449 1.387 . S
H447 C443 0.950 . S
H448 C445 0.950 . S
C449 C440 1.390 . S
C449 H442 0.950 . S
C449 C446 1.387 . S
C450 C451 1.387 . S
C450 H454 0.950 . S
C450 C459 1.390 . S
C451 C450 1.387 . S
C451 C453 1.387 1_554 S
H452 C459 0.950 . S
C453 C451 1.387 1_556 S
C453 C455 1.390 . S
C453 H457 0.950 . S
H454 C450 0.950 . S
C455 C453 1.390 . S
C455 C456 1.387 1_556 S
C455 H458 0.950 . S
C456 C455 1.387 1_554 S
C456 C459 1.387 . S
H457 C453 0.950 . S
H458 C455 0.950 . S
C459 C450 1.390 . S
C459 H452 0.950 . S
C459 C456 1.387 . S
C460 C461 1.387 . S
C460 H464 0.950 . S
C460 C469 1.390 . S
C461 C460 1.387 . S
C461 C463 1.387 . S
H462 C469 0.950 . S
C463 C461 1.387 . S
C463 C465 1.390 . S
C463 H467 0.950 . S
H464 C460 0.950 . S
C465 C463 1.390 . S
C465 C466 1.387 . S
C465 H468 0.950 . S
C466 C465 1.387 . S
C466 C469 1.387 . S
H467 C463 0.950 . S
H468 C465 0.950 . S
C469 C460 1.390 . S
C469 H462 0.950 . S
C469 C466 1.387 . S
C470 C471 1.387 . S
C470 H474 0.950 . S
C470 C479 1.390 . S
C471 C470 1.387 . S
C471 C473 1.387 . S
H472 C479 0.950 . S
C473 C471 1.387 . S
C473 C475 1.390 . S
C473 H477 0.950 . S
H474 C470 0.950 . S
C475 C473 1.390 . S
C475 C476 1.387 . S
C475 H478 0.950 . S
C476 C475 1.387 . S
C476 C479 1.387 . S
H477 C473 0.950 . S
H478 C475 0.950 . S
C479 C470 1.390 . S
C479 H472 0.950 . S
C479 C476 1.387 . S
C480 C481 1.387 . S
C480 H484 0.950 . S
C480 C489 1.390 1_455 S
C481 C480 1.387 . S
C481 C483 1.387 . S
H482 C489 0.950 . S
C483 C481 1.387 . S
C483 C485 1.390 1_455 S
C483 H487 0.950 . S
H484 C480 0.950 . S
C485 C483 1.390 1_655 S
C485 C486 1.387 . S
C485 H488 0.950 . S
C486 C485 1.387 . S
C486 C489 1.387 . S
H487 C483 0.950 . S
H488 C485 0.950 . S
C489 C480 1.390 1_655 S
C489 H482 0.950 . S
C489 C486 1.387 . S
C490 C491 1.387 . S
C490 H494 0.950 . S
C490 C499 1.390 1_655 S
C491 C490 1.387 . S
C491 C493 1.387 . S
H492 C499 0.950 . S
C493 C491 1.387 . S
C493 C495 1.390 1_655 S
C493 H497 0.950 . S
H494 C490 0.950 . S
C495 C493 1.390 1_455 S
C495 C496 1.387 . S
C495 H498 0.950 . S
C496 C495 1.387 . S
C496 C499 1.387 . S
H497 C493 0.950 . S
H498 C495 0.950 . S
C499 C490 1.390 1_455 S
C499 H492 0.950 . S
C499 C496 1.387 . S
C500 C501 1.387 . S
C500 H504 0.950 . S
C500 C509 1.390 1_655 S
C501 C500 1.387 . S
C501 C503 1.387 . S
H502 C509 0.950 . S
C503 C501 1.387 . S
C503 C505 1.390 1_655 S
C503 H507 0.950 . S
H504 C500 0.950 . S
C505 C503 1.390 1_455 S
C505 C506 1.387 . S
C505 H508 0.950 . S
C506 C505 1.387 . S
C506 C509 1.387 . S
H507 C503 0.950 . S
H508 C505 0.950 . S
C509 C500 1.390 1_455 S
C509 H502 0.950 . S
C509 C506 1.387 . S
C510 C511 1.387 . S
C510 H514 0.950 . S
C510 C519 1.390 1_655 S
C511 C510 1.387 . S
C511 C513 1.387 . S
H512 C519 0.950 . S
C513 C511 1.387 . S
C513 C515 1.390 1_655 S
C513 H517 0.950 . S
H514 C510 0.950 . S
C515 C513 1.390 1_455 S
C515 C516 1.387 . S
C515 H518 0.950 . S
C516 C515 1.387 . S
C516 C519 1.387 . S
H517 C513 0.950 . S
H518 C515 0.950 . S
C519 C510 1.390 1_455 S
C519 H512 0.950 . S
C519 C516 1.387 . S
C520 C521 1.387 . S
C520 H524 0.950 . S
C520 C529 1.390 . S
C521 C520 1.387 . S
C521 C523 1.387 . S
H522 C529 0.950 . S
C523 C521 1.387 . S
C523 C525 1.390 . S
C523 H527 0.950 . S
H524 C520 0.950 . S
C525 C523 1.390 . S
C525 C526 1.387 . S
C525 H528 0.950 . S
C526 C525 1.387 . S
C526 C529 1.387 . S
H527 C523 0.950 . S
H528 C525 0.950 . S
C529 C520 1.390 . S
C529 H522 0.950 . S
C529 C526 1.387 . S
C530 C531 1.387 . S
C530 H534 0.950 . S
C530 C539 1.390 . S
C531 C530 1.387 . S
C531 C533 1.387 . S
H532 C539 0.950 . S
C533 C531 1.387 . S
C533 C535 1.390 . S
C533 H537 0.950 . S
H534 C530 0.950 . S
C535 C533 1.390 . S
C535 C536 1.387 . S
C535 H538 0.950 . S
C536 C535 1.387 . S
C536 C539 1.387 . S
H537 C533 0.950 . S
H538 C535 0.950 . S
C539 C530 1.390 . S
C539 H532 0.950 . S
C539 C536 1.387 . S
C540 C541 1.387 . S
C540 H544 0.950 . S
C540 C549 1.390 . S
C541 C540 1.387 . S
C541 C543 1.387 . S
H542 C549 0.950 . S
C543 C541 1.387 . S
C543 C545 1.390 . S
C543 H547 0.950 . S
H544 C540 0.950 . S
C545 C543 1.390 . S
C545 C546 1.387 . S
C545 H548 0.950 . S
C546 C545 1.387 . S
C546 C549 1.387 . S
H547 C543 0.950 . S
H548 C545 0.950 . S
C549 C540 1.390 . S
C549 H542 0.950 . S
C549 C546 1.387 . S
C550 C551 1.387 . S
C550 H554 0.950 . S
C550 C559 1.390 . S
C551 C550 1.387 . S
C551 C553 1.387 . S
H552 C559 0.950 . S
C553 C551 1.387 . S
C553 C555 1.390 . S
C553 H557 0.950 . S
H554 C550 0.950 . S
C555 C553 1.390 . S
C555 C556 1.387 . S
C555 H558 0.950 . S
C556 C555 1.387 . S
C556 C559 1.387 . S
H557 C553 0.950 . S
H558 C555 0.950 . S
C559 C550 1.390 . S
C559 H552 0.950 . S
C559 C556 1.387 . S
C321 C19 2.250 . S
C326 C10 2.250 . S
C331 C59 2.251 . S
C336 C50 2.251 . S
C341 C99 2.251 . S
C346 C90 2.251 . S
C351 C139 2.251 . S
C356 C130 2.251 . S
C361 C179 2.251 . S
C366 C170 2.251 . S
C371 C210 2.249 . S
C376 C219 2.249 . S
C381 C259 2.249 . S
C386 C250 2.249 . S
C391 C290 2.249 . S
C396 C299 2.249 . S
C401 C55 2.919 . S
C406 C6 2.919 . S
C411 C126 2.916 . S
C416 C95 2.916 . S
C421 C166 2.919 . S
C426 C215 2.919 . S
C431 C255 2.919 . S
C436 C286 2.919 . S
C441 C15 2.035 . S
C446 C206 2.035 . S
C451 C175 2.033 . S
C456 C46 2.033 . S
C461 C86 2.033 . S
C466 C295 2.033 . S
C471 C135 2.033 . S
C476 C246 2.033 . S
C481 C9 1.494 . S
C486 C129 1.494 . S
C491 C49 1.572 . S
C496 C89 1.572 . S
C501 C58 1.494 . S
C506 C98 1.495 . S
C511 C138 1.572 . S
C516 C18 1.572 . S
C521 C169 1.494 . S
C526 C289 1.494 . S
C531 C209 1.573 . S
C536 C249 1.573 . S
C541 C218 1.493 . S
C546 C258 1.493 . S
C551 C298 1.574 . S
C556 C178 1.574 . S
