# Generated by pormake.
# Topology uka, (4)-cn, num edge types: 1
# Building blocks:
#     Node 0, Type 0, BuildingBlock: GALJAG_clean_sbu_0, # of connection points: 4
#     Node 1, Type 0, BuildingBlock: GALJAG_clean_sbu_0, # of connection points: 4
#     Node 2, Type 0, BuildingBlock: GALJAG_clean_sbu_0, # of connection points: 4
#     Node 3, Type 0, BuildingBlock: GALJAG_clean_sbu_0, # of connection points: 4
#     Node 4, Type 0, BuildingBlock: GALJAG_clean_sbu_0, # of connection points: 4
#     Node 5, Type 0, BuildingBlock: GALJAG_clean_sbu_0, # of connection points: 4
#     Node 6, Type 0, BuildingBlock: GALJAG_clean_sbu_0, # of connection points: 4
#     Node 7, Type 0, BuildingBlock: GALJAG_clean_sbu_0, # of connection points: 4
#     Node 8, Type 0, BuildingBlock: GALJAG_clean_sbu_0, # of connection points: 4
#     Node 9, Type 0, BuildingBlock: GALJAG_clean_sbu_0, # of connection points: 4
#     Node 10, Type 0, BuildingBlock: GALJAG_clean_sbu_0, # of connection points: 4
#     Node 11, Type 0, BuildingBlock: GALJAG_clean_sbu_0, # of connection points: 4
#     Node 12, Type 0, BuildingBlock: GALJAG_clean_sbu_0, # of connection points: 4
#     Node 13, Type 0, BuildingBlock: GALJAG_clean_sbu_0, # of connection points: 4
#     Node 14, Type 0, BuildingBlock: GALJAG_clean_sbu_0, # of connection points: 4
#     Node 15, Type 0, BuildingBlock: GALJAG_clean_sbu_0, # of connection points: 4
#     Node 16, Type 0, BuildingBlock: GALJAG_clean_sbu_0, # of connection points: 4
#     Node 17, Type 0, BuildingBlock: GALJAG_clean_sbu_0, # of connection points: 4
#     Node 18, Type 0, BuildingBlock: GALJAG_clean_sbu_0, # of connection points: 4
#     Node 19, Type 0, BuildingBlock: GALJAG_clean_sbu_0, # of connection points: 4
#     Node 20, Type 0, BuildingBlock: GALJAG_clean_sbu_0, # of connection points: 4
#     Node 21, Type 0, BuildingBlock: GALJAG_clean_sbu_0, # of connection points: 4
#     Node 22, Type 0, BuildingBlock: GALJAG_clean_sbu_0, # of connection points: 4
#     Node 23, Type 0, BuildingBlock: GALJAG_clean_sbu_0, # of connection points: 4
#     Node 24, Type 0, BuildingBlock: GALJAG_clean_sbu_0, # of connection points: 4
#     Node 25, Type 0, BuildingBlock: GALJAG_clean_sbu_0, # of connection points: 4
#     Node 26, Type 0, BuildingBlock: GALJAG_clean_sbu_0, # of connection points: 4
#     Node 27, Type 0, BuildingBlock: GALJAG_clean_sbu_0, # of connection points: 4
#     Node 28, Type 0, BuildingBlock: GALJAG_clean_sbu_0, # of connection points: 4
#     Node 29, Type 0, BuildingBlock: GALJAG_clean_sbu_0, # of connection points: 4
#     Node 30, Type 0, BuildingBlock: GALJAG_clean_sbu_0, # of connection points: 4
#     Node 31, Type 0, BuildingBlock: GALJAG_clean_sbu_0, # of connection points: 4
#     Edge 32, Type (0, 0), BuildingBlock: UVAHIK_clean_linker_0, # of connection points: 2
#     Edge 33, Type (0, 0), BuildingBlock: UVAHIK_clean_linker_0, # of connection points: 2
#     Edge 34, Type (0, 0), BuildingBlock: UVAHIK_clean_linker_0, # of connection points: 2
#     Edge 35, Type (0, 0), BuildingBlock: UVAHIK_clean_linker_0, # of connection points: 2
#     Edge 36, Type (0, 0), BuildingBlock: UVAHIK_clean_linker_0, # of connection points: 2
#     Edge 37, Type (0, 0), BuildingBlock: UVAHIK_clean_linker_0, # of connection points: 2
#     Edge 38, Type (0, 0), BuildingBlock: UVAHIK_clean_linker_0, # of connection points: 2
#     Edge 39, Type (0, 0), BuildingBlock: UVAHIK_clean_linker_0, # of connection points: 2
#     Edge 40, Type (0, 0), BuildingBlock: UVAHIK_clean_linker_0, # of connection points: 2
#     Edge 41, Type (0, 0), BuildingBlock: UVAHIK_clean_linker_0, # of connection points: 2
#     Edge 42, Type (0, 0), BuildingBlock: UVAHIK_clean_linker_0, # of connection points: 2
#     Edge 43, Type (0, 0), BuildingBlock: UVAHIK_clean_linker_0, # of connection points: 2
#     Edge 44, Type (0, 0), BuildingBlock: UVAHIK_clean_linker_0, # of connection points: 2
#     Edge 45, Type (0, 0), BuildingBlock: UVAHIK_clean_linker_0, # of connection points: 2
#     Edge 46, Type (0, 0), BuildingBlock: UVAHIK_clean_linker_0, # of connection points: 2
#     Edge 47, Type (0, 0), BuildingBlock: UVAHIK_clean_linker_0, # of connection points: 2
#     Edge 48, Type (0, 0), BuildingBlock: UVAHIK_clean_linker_0, # of connection points: 2
#     Edge 49, Type (0, 0), BuildingBlock: UVAHIK_clean_linker_0, # of connection points: 2
#     Edge 50, Type (0, 0), BuildingBlock: UVAHIK_clean_linker_0, # of connection points: 2
#     Edge 51, Type (0, 0), BuildingBlock: UVAHIK_clean_linker_0, # of connection points: 2
#     Edge 52, Type (0, 0), BuildingBlock: UVAHIK_clean_linker_0, # of connection points: 2
#     Edge 53, Type (0, 0), BuildingBlock: UVAHIK_clean_linker_0, # of connection points: 2
#     Edge 54, Type (0, 0), BuildingBlock: UVAHIK_clean_linker_0, # of connection points: 2
#     Edge 55, Type (0, 0), BuildingBlock: UVAHIK_clean_linker_0, # of connection points: 2
#     Edge 56, Type (0, 0), BuildingBlock: UVAHIK_clean_linker_0, # of connection points: 2
#     Edge 57, Type (0, 0), BuildingBlock: UVAHIK_clean_linker_0, # of connection points: 2
#     Edge 58, Type (0, 0), BuildingBlock: UVAHIK_clean_linker_0, # of connection points: 2
#     Edge 59, Type (0, 0), BuildingBlock: UVAHIK_clean_linker_0, # of connection points: 2
#     Edge 60, Type (0, 0), BuildingBlock: UVAHIK_clean_linker_0, # of connection points: 2
#     Edge 61, Type (0, 0), BuildingBlock: UVAHIK_clean_linker_0, # of connection points: 2
#     Edge 62, Type (0, 0), BuildingBlock: UVAHIK_clean_linker_0, # of connection points: 2
#     Edge 63, Type (0, 0), BuildingBlock: UVAHIK_clean_linker_0, # of connection points: 2
#     Edge 64, Type (0, 0), BuildingBlock: UVAHIK_clean_linker_0, # of connection points: 2
#     Edge 65, Type (0, 0), BuildingBlock: UVAHIK_clean_linker_0, # of connection points: 2
#     Edge 66, Type (0, 0), BuildingBlock: UVAHIK_clean_linker_0, # of connection points: 2
#     Edge 67, Type (0, 0), BuildingBlock: UVAHIK_clean_linker_0, # of connection points: 2
#     Edge 68, Type (0, 0), BuildingBlock: UVAHIK_clean_linker_0, # of connection points: 2
#     Edge 69, Type (0, 0), BuildingBlock: UVAHIK_clean_linker_0, # of connection points: 2
#     Edge 70, Type (0, 0), BuildingBlock: UVAHIK_clean_linker_0, # of connection points: 2
#     Edge 71, Type (0, 0), BuildingBlock: UVAHIK_clean_linker_0, # of connection points: 2
#     Edge 72, Type (0, 0), BuildingBlock: UVAHIK_clean_linker_0, # of connection points: 2
#     Edge 73, Type (0, 0), BuildingBlock: UVAHIK_clean_linker_0, # of connection points: 2
#     Edge 74, Type (0, 0), BuildingBlock: UVAHIK_clean_linker_0, # of connection points: 2
#     Edge 75, Type (0, 0), BuildingBlock: UVAHIK_clean_linker_0, # of connection points: 2
#     Edge 76, Type (0, 0), BuildingBlock: UVAHIK_clean_linker_0, # of connection points: 2
#     Edge 77, Type (0, 0), BuildingBlock: UVAHIK_clean_linker_0, # of connection points: 2
#     Edge 78, Type (0, 0), BuildingBlock: UVAHIK_clean_linker_0, # of connection points: 2
#     Edge 79, Type (0, 0), BuildingBlock: UVAHIK_clean_linker_0, # of connection points: 2
#     Edge 80, Type (0, 0), BuildingBlock: UVAHIK_clean_linker_0, # of connection points: 2
#     Edge 81, Type (0, 0), BuildingBlock: UVAHIK_clean_linker_0, # of connection points: 2
#     Edge 82, Type (0, 0), BuildingBlock: UVAHIK_clean_linker_0, # of connection points: 2
#     Edge 83, Type (0, 0), BuildingBlock: UVAHIK_clean_linker_0, # of connection points: 2
#     Edge 84, Type (0, 0), BuildingBlock: UVAHIK_clean_linker_0, # of connection points: 2
#     Edge 85, Type (0, 0), BuildingBlock: UVAHIK_clean_linker_0, # of connection points: 2
#     Edge 86, Type (0, 0), BuildingBlock: UVAHIK_clean_linker_0, # of connection points: 2
#     Edge 87, Type (0, 0), BuildingBlock: UVAHIK_clean_linker_0, # of connection points: 2
#     Edge 88, Type (0, 0), BuildingBlock: UVAHIK_clean_linker_0, # of connection points: 2
#     Edge 89, Type (0, 0), BuildingBlock: UVAHIK_clean_linker_0, # of connection points: 2
#     Edge 90, Type (0, 0), BuildingBlock: UVAHIK_clean_linker_0, # of connection points: 2
#     Edge 91, Type (0, 0), BuildingBlock: UVAHIK_clean_linker_0, # of connection points: 2
#     Edge 92, Type (0, 0), BuildingBlock: UVAHIK_clean_linker_0, # of connection points: 2
#     Edge 93, Type (0, 0), BuildingBlock: UVAHIK_clean_linker_0, # of connection points: 2
#     Edge 94, Type (0, 0), BuildingBlock: UVAHIK_clean_linker_0, # of connection points: 2
#     Edge 95, Type (0, 0), BuildingBlock: UVAHIK_clean_linker_0, # of connection points: 2
# Relax obj value: 0.105
# Max RMSD: 0.149
# Mean RMSD: 0.149
data_MOF--net-uka--node1-GALJAG_clean_sbu_0--edge1-UVAHIK_clean_linker_0
_symmetry_space_group_name_H-M    P1
_symmetry_Int_Tables_number       1
_symmetry_cell_setting            triclinic
loop_
_symmetry_equiv_pos_as_xyz
'x, y, z'
_cell_length_a     73.291196
_cell_length_b     73.28745
_cell_length_c     60.329796
_cell_angle_alpha  89.985428
_cell_angle_beta   89.993181
_cell_angle_gamma 90.011351
loop_
_atom_site_label
_atom_site_type_symbol
_atom_site_fract_x
_atom_site_fract_y
_atom_site_fract_z
_atom_type_partial_charge
In0 In 0.105 0.25511 0.25513 0.0
O1 O 0.13104 0.27056 0.26374 0.0
O2 O 0.13091 0.25375 0.23494 0.0
C3 C 0.08366 0.26855 0.28751 0.0
C4 C 0.08893 0.26607 0.2173 0.0
C5 C 0.11033 0.22106 0.27071 0.0
O6 O 0.09851 0.27602 0.282 0.0
O7 O 0.07956 0.25448 0.27656 0.0
O8 O 0.09762 0.22467 0.25723 0.0
O9 O 0.12012 0.23449 0.27599 0.0
C10 C 0.13992 0.2641 0.24759 0.0
O11 O 0.09299 0.24957 0.22077 0.0
O12 O 0.09277 0.2768 0.23295 0.0
In13 In 0.96071 0.86761 0.51568 0.0
O14 O 0.96521 0.84535 0.48982 0.0
O15 O 0.94658 0.86643 0.48187 0.0
C16 C 0.98281 0.84783 0.54211 0.0
C17 C 0.97461 0.90081 0.50714 0.0
C18 C 0.93267 0.87131 0.54423 0.0
O19 O 0.98834 0.86161 0.53154 0.0
O20 O 0.96627 0.84385 0.53901 0.0
O21 O 0.94684 0.88101 0.54516 0.0
O22 O 0.93238 0.85999 0.52845 0.0
C23 C 0.9543 0.8519 0.47585 0.0
O24 O 0.95785 0.89817 0.5107 0.0
O25 O 0.9843 0.88657 0.50715 0.0
In26 In 0.37149 0.73768 0.76037 0.0
O27 O 0.38567 0.74158 0.72688 0.0
O28 O 0.37886 0.71464 0.73703 0.0
C29 C 0.37036 0.77197 0.77629 0.0
C30 C 0.33583 0.73253 0.75301 0.0
C31 C 0.39138 0.72195 0.7927 0.0
O32 O 0.38149 0.7673 0.76131 0.0
O33 O 0.35985 0.75946 0.7828 0.0
O34 O 0.37537 0.71689 0.78811 0.0
O35 O 0.39744 0.73467 0.78072 0.0
C36 C 0.38574 0.72475 0.72235 0.0
O37 O 0.34444 0.72406 0.76794 0.0
O38 O 0.34533 0.74336 0.74152 0.0
In39 In 0.50229 0.12975 0.01816 0.0
O40 O 0.51803 0.10332 0.02267 0.0
O41 O 0.49872 0.1049 0.99628 0.0
C42 C 0.51679 0.14853 0.05232 0.0
C43 C 0.51339 0.14755 0.98152 0.0
C44 C 0.46822 0.12525 0.03402 0.0
O45 O 0.52272 0.13309 0.04653 0.0
O46 O 0.5039 0.15456 0.04063 0.0
O47 O 0.47228 0.13806 0.0209 0.0
O48 O 0.48119 0.11462 0.03858 0.0
C49 C 0.51034 0.09539 0.00658 0.0
O50 O 0.49675 0.14631 0.98672 0.0
O51 O 0.52427 0.14003 0.99487 0.0
In52 In 0.11736 0.73083 0.24626 0.0
O53 O 0.1458 0.72084 0.23724 0.0
O54 O 0.1432 0.74017 0.26341 0.0
C55 C 0.09753 0.71387 0.21493 0.0
C56 C 0.10584 0.71548 0.28432 0.0
C57 C 0.11392 0.76497 0.23038 0.0
O58 O 0.11421 0.71035 0.21802 0.0
O59 O 0.09087 0.72556 0.22797 0.0
O60 O 0.10492 0.75961 0.24707 0.0
O61 O 0.12444 0.7532 0.22214 0.0
C62 C 0.15371 0.7308 0.25136 0.0
O63 O 0.10469 0.73244 0.28084 0.0
O64 O 0.11274 0.70642 0.26865 0.0
In65 In 0.54352 0.86391 0.47273 0.0
O66 O 0.54274 0.83769 0.49326 0.0
O67 O 0.55882 0.85967 0.50519 0.0
C68 C 0.51177 0.85274 0.45473 0.0
C69 C 0.53855 0.89798 0.48785 0.0
C70 C 0.56737 0.86293 0.43851 0.0
O71 O 0.52491 0.84196 0.4582 0.0
O72 O 0.51448 0.86892 0.46099 0.0
O73 O 0.5512 0.86844 0.43669 0.0
O74 O 0.57177 0.85799 0.4578 0.0
C75 C 0.55315 0.84363 0.50825 0.0
O76 O 0.55101 0.89397 0.47424 0.0
O77 O 0.52888 0.8847 0.49416 0.0
In78 In 0.38079 0.25156 0.73784 0.0
O79 O 0.39775 0.24696 0.76926 0.0
O80 O 0.38841 0.27379 0.76224 0.0
C81 C 0.37665 0.21726 0.72274 0.0
C82 C 0.34534 0.25749 0.74609 0.0
C83 C 0.40051 0.26683 0.70488 0.0
O84 O 0.38828 0.22115 0.73748 0.0
O85 O 0.36742 0.23058 0.71579 0.0
O86 O 0.38547 0.2733 0.71129 0.0
O87 O 0.40567 0.25282 0.71523 0.0
C88 C 0.3972 0.26349 0.77511 0.0
O89 O 0.35382 0.26546 0.73064 0.0
O90 O 0.35495 0.24699 0.7579 0.0
In91 In 0.96865 0.12646 0.96975 0.0
O92 O 0.96775 0.09562 0.96685 0.0
O93 O 0.99064 0.10737 0.9831 0.0
C94 C 0.94322 0.12546 0.93744 0.0
C95 C 0.95738 0.13834 0.00988 0.0
C96 C 0.99246 0.1496 0.95065 0.0
O97 O 0.95961 0.12094 0.93439 0.0
O98 O 0.93945 0.13015 0.95705 0.0
O99 O 0.97612 0.1539 0.95465 0.0
O100 O -0.00305 0.13378 0.9569 0.0
C101 C 0.9828 0.09305 0.97646 0.0
O102 O 0.96878 0.14691 -0.00176 0.0
O103 O 0.95167 0.12373 0.00135 0.0
In104 In 0.88237 0.74896 0.73686 0.0
O105 O 0.85567 0.7355 0.72741 0.0
O106 O 0.85599 0.75251 0.75609 0.0
C107 C 0.90055 0.73494 0.70191 0.0
C108 C 0.89725 0.73435 0.77374 0.0
C109 C 0.88174 0.78435 0.72457 0.0
O110 O 0.88473 0.72976 0.7072 0.0
O111 O 0.90725 0.747 0.71437 0.0
O112 O 0.89514 0.77746 0.73472 0.0
O113 O 0.86869 0.77353 0.72118 0.0
C114 C 0.84677 0.74251 0.7432 0.0
O115 O 0.89539 0.75136 0.77131 0.0
O116 O 0.89178 0.72493 0.75761 0.0
In117 In 0.04418 0.11806 0.47915 0.0
O118 O 0.03555 0.13686 0.50732 0.0
O119 O 0.06371 0.1306 0.50451 0.0
C120 C 0.01742 0.13418 0.45571 0.0
C121 C 0.03853 0.08424 0.49544 0.0
C122 C 0.06766 0.11621 0.44487 0.0
O123 O 0.03209 0.14229 0.46061 0.0
O124 O 0.01612 0.11812 0.46309 0.0
O125 O 0.05219 0.10868 0.44463 0.0
O126 O 0.07158 0.12427 0.46275 0.0
C127 C 0.05142 0.13911 0.51484 0.0
O128 O 0.05367 0.08915 0.48755 0.0
O129 O 0.02651 0.0965 0.49565 0.0
In130 In 0.62185 0.27981 0.23995 0.0
O131 O 0.6526 0.27993 0.2356 0.0
O132 O 0.64109 0.25935 0.25615 0.0
C133 C 0.62139 0.30286 0.20508 0.0
C134 C 0.61192 0.29414 0.2793 0.0
C135 C 0.59883 0.25455 0.22334 0.0
O136 O 0.61402 0.30675 0.22339 0.0
O137 O 0.62944 0.28767 0.20469 0.0
O138 O 0.59402 0.27077 0.2271 0.0
O139 O 0.61504 0.25093 0.22869 0.0
C140 C 0.65526 0.26599 0.24743 0.0
O141 O 0.60419 0.28042 0.27091 0.0
O142 O 0.62477 0.30068 0.26786 0.0
In143 In 0.47402 0.87221 0.96852 0.0
O144 O 0.47235 0.90276 0.96336 0.0
O145 O 0.49319 0.8929 0.98475 0.0
C146 C 0.4473 0.87152 0.9377 0.0
C147 C 0.46377 0.85901 0.00839 0.0
C148 C 0.49989 0.85164 0.94902 0.0
O149 O 0.46355 0.87575 0.93337 0.0
O150 O 0.44434 0.8677 0.95777 0.0
O151 O 0.48463 0.84526 0.95484 0.0
O152 O 0.50229 0.86825 0.95367 0.0
C153 C 0.48576 0.9065 0.97561 0.0
O154 O 0.47544 0.85118 0.99633 0.0
O155 O 0.45735 0.87356 0.00042 0.0
In156 In 0.8695 0.26426 0.75785 0.0
O157 O 0.88334 0.26126 0.72407 0.0
O158 O 0.87297 0.28732 0.73319 0.0
C159 C 0.87096 0.23031 0.77467 0.0
C160 C 0.83325 0.26523 0.75246 0.0
C161 C 0.89001 0.28164 0.78829 0.0
O162 O 0.88097 0.23512 0.75861 0.0
O163 O 0.86046 0.24253 0.78191 0.0
O164 O 0.87363 0.28601 0.78456 0.0
O165 O 0.89603 0.26888 0.77635 0.0
C166 C 0.88091 0.27775 0.71874 0.0
O167 O 0.84132 0.27488 0.76681 0.0
O168 O 0.84359 0.25562 0.74045 0.0
In169 In 0.45408 0.11098 0.52569 0.0
O170 O 0.45325 0.13287 0.49883 0.0
O171 O 0.43571 0.11003 0.49517 0.0
C172 C 0.47993 0.13204 0.54448 0.0
C173 C 0.46718 0.07764 0.51608 0.0
C174 C 0.42966 0.10917 0.55906 0.0
O175 O 0.48335 0.11655 0.53639 0.0
O176 O 0.46357 0.13715 0.54251 0.0
O177 O 0.44609 0.10443 0.56115 0.0
O178 O 0.42535 0.11455 0.53988 0.0
C179 C 0.44125 0.12499 0.48734 0.0
O180 O 0.45324 0.08006 0.52797 0.0
O181 O 0.47427 0.09205 0.50855 0.0
In182 In 0.62028 0.7257 0.25513 0.0
O183 O 0.64752 0.71254 0.26319 0.0
O184 O 0.64587 0.73002 0.23495 0.0
C185 C 0.59958 0.71259 0.28838 0.0
C186 C 0.60514 0.71161 0.21832 0.0
C187 C 0.62398 0.76036 0.26905 0.0
O188 O 0.61496 0.70585 0.28369 0.0
O189 O 0.59464 0.72556 0.27605 0.0
O190 O 0.61238 0.75603 0.25443 0.0
O191 O 0.63347 0.74733 0.27627 0.0
C192 C 0.65576 0.72019 0.24728 0.0
O193 O 0.60463 0.7285 0.22252 0.0
O194 O 0.61312 0.70202 0.23271 0.0
In195 In 0.04043 0.87442 0.02268 0.0
O196 O 0.05255 0.90273 0.01643 0.0
O197 O 0.02515 0.89789 0.00672 0.0
C198 C 0.06025 0.87396 0.06024 0.0
C199 C 0.04966 0.85584 0.98573 0.0
C200 C 0.01146 0.85717 0.04033 0.0
O201 O 0.0456 0.88286 0.05835 0.0
O202 O 0.06525 0.86571 0.04289 0.0
O203 O 0.02609 0.84901 0.03553 0.0
O204 O 0.01133 0.87399 0.03586 0.0
C205 C 0.03817 0.90905 0.00793 0.0
O206 O 0.03347 0.86011 0.99043 0.0
O207 O 0.0614 0.86102 -0.00032 0.0
In208 In 0.61558 0.73814 0.74799 0.0
O209 O 0.60261 0.73508 0.71358 0.0
O210 O 0.61023 0.76159 0.72458 0.0
C211 C 0.61199 0.70324 0.7618 0.0
C212 C 0.65138 0.74327 0.7416 0.0
C213 C 0.59893 0.75567 0.78175 0.0
O214 O 0.5991 0.71165 0.75239 0.0
O215 O 0.62654 0.71222 0.76339 0.0
O216 O 0.61565 0.7517 0.78202 0.0
O217 O 0.59059 0.75087 0.76444 0.0
C218 C 0.60342 0.75196 0.70937 0.0
O219 O 0.64229 0.75243 0.75549 0.0
O220 O 0.64226 0.73181 0.73053 0.0
In221 In 0.47818 0.3562 0.0141 0.0
O222 O 0.46468 0.38413 0.01479 0.0
O223 O 0.48963 0.38126 -0.00299 0.0
C224 C 0.45666 0.33943 0.04407 0.0
C225 C 0.46875 0.34028 0.97552 0.0
C226 C 0.51071 0.35527 0.03494 0.0
O227 O 0.45645 0.35646 0.04118 0.0
O228 O 0.46744 0.33085 0.03157 0.0
O229 O 0.50828 0.34777 0.01633 0.0
O230 O 0.49683 0.36307 0.0428 0.0
C231 C 0.47695 0.3917 0.00334 0.0
O232 O 0.48283 0.33563 0.98618 0.0
O233 O 0.45953 0.35286 0.98434 0.0
In234 In 0.87366 0.21517 0.25664 0.0
O235 O 0.84677 0.20118 0.26522 0.0
O236 O 0.84755 0.2189 0.23725 0.0
C237 C 0.89606 0.20089 0.28747 0.0
C238 C 0.88903 0.20348 0.21871 0.0
C239 C 0.86964 0.24932 0.27234 0.0
O240 O 0.88066 0.19402 0.28317 0.0
O241 O 0.90017 0.21467 0.276 0.0
O242 O 0.87844 0.24606 0.25476 0.0
O243 O 0.86306 0.23544 0.28174 0.0
C244 C 0.83811 0.20864 0.24953 0.0
O245 O 0.88955 0.22 0.22464 0.0
O246 O 0.88086 0.19296 0.23196 0.0
In247 In 0.02643 0.61582 0.52112 0.0
O248 O 0.03203 0.5858 0.5137 0.0
O249 O 0.00505 0.59575 0.50913 0.0
C250 C 0.04453 0.61033 0.55941 0.0
C251 C 0.0403 0.62995 0.4834 0.0
C252 C 0.00359 0.64135 0.53738 0.0
O253 O 0.02818 0.60552 0.55655 0.0
O254 O 0.05201 0.61745 0.54264 0.0
O255 O 0.02022 0.64451 0.53365 0.0
O256 O -0.00161 0.62549 0.53229 0.0
C257 C 0.01574 0.5823 0.5084 0.0
O258 O 0.02344 0.62773 0.48651 0.0
O259 O 0.05029 0.62491 0.4993 0.0
In260 In 0.60626 0.23358 0.74521 0.0
O261 O 0.5868 0.23784 0.77441 0.0
O262 O 0.60024 0.21224 0.77133 0.0
C263 C 0.60962 0.26723 0.72791 0.0
C264 C 0.64152 0.23037 0.75613 0.0
C265 C 0.58823 0.21637 0.71232 0.0
O266 O 0.59849 0.2639 0.74341 0.0
O267 O 0.6187 0.25368 0.72131 0.0
O268 O 0.60376 0.21128 0.71887 0.0
O269 O 0.58174 0.22985 0.72261 0.0
C270 C 0.58928 0.22203 0.78219 0.0
O271 O 0.63418 0.2207 0.74125 0.0
O272 O 0.63084 0.24115 0.76607 0.0
In273 In 0.03393 0.37359 0.97731 0.0
O274 O 0.02514 0.35717 0.0075 0.0
O275 O 0.05353 0.35941 0.00131 0.0
C276 C 0.00717 0.35636 0.95511 0.0
C277 C 0.02937 0.40782 0.99278 0.0
C278 C 0.05654 0.37637 0.94232 0.0
O279 O 0.00547 0.37238 0.96248 0.0
O280 O 0.02229 0.34885 0.95934 0.0
O281 O 0.04061 0.38285 0.94236 0.0
O282 O 0.06129 0.3687 0.96018 0.0
C283 C 0.04107 0.35308 0.0135 0.0
O284 O 0.04461 0.40194 0.98631 0.0
O285 O 0.01663 0.39632 0.99199 0.0
In286 In 0.88115 0.75672 0.23558 0.0
O287 O 0.85264 0.76821 0.23167 0.0
O288 O 0.85734 0.74904 0.25765 0.0
C289 C 0.89793 0.77385 0.20183 0.0
C290 C 0.8981 0.76993 0.27172 0.0
C291 C 0.87914 0.7231 0.21792 0.0
O292 O 0.88263 0.77896 0.20916 0.0
O293 O 0.90482 0.76038 0.21178 0.0
O294 O 0.89124 0.72716 0.23206 0.0
O295 O 0.86836 0.73587 0.21307 0.0
C296 C 0.84601 0.75888 0.24734 0.0
O297 O 0.89864 0.75318 0.26679 0.0
O298 O 0.88918 0.77975 0.25842 0.0
In299 In 0.45147 0.63049 0.47661 0.0
O300 O 0.45237 0.65357 0.50187 0.0
O301 O 0.43327 0.63228 0.50728 0.0
C302 C 0.47997 0.64803 0.45827 0.0
C303 C 0.46026 0.59638 0.4889 0.0
C304 C 0.42852 0.63074 0.44164 0.0
O305 O 0.46452 0.65537 0.46071 0.0
O306 O 0.48121 0.63199 0.46573 0.0
O307 O 0.44431 0.62402 0.44089 0.0
O308 O 0.42393 0.63689 0.46038 0.0
C309 C 0.44002 0.64708 0.51406 0.0
O310 O 0.44642 0.5999 0.47724 0.0
O311 O 0.46951 0.61012 0.49464 0.0
In312 In 0.36136 0.20707 0.24103 0.0
O313 O 0.37821 0.21087 0.27254 0.0
O314 O 0.36278 0.18647 0.26903 0.0
C315 C 0.37291 0.23546 0.21633 0.0
C316 C 0.327 0.21668 0.25093 0.0
C317 C 0.3705 0.1805 0.21224 0.0
O318 O 0.38205 0.22951 0.23254 0.0
O319 O 0.35802 0.22733 0.21304 0.0
O320 O 0.35417 0.18503 0.21578 0.0
O321 O 0.38214 0.18905 0.22361 0.0
C322 C 0.37357 0.19573 0.2808 0.0
O323 O 0.33089 0.20233 0.24039 0.0
O324 O 0.34055 0.22603 0.2571 0.0
In325 In 0.52559 0.61604 0.97909 0.0
O326 O 0.52332 0.63609 0.0078 0.0
O327 O 0.54564 0.6177 0.00813 0.0
C328 C 0.50039 0.63784 0.96063 0.0
C329 C 0.51526 0.58162 0.98832 0.0
C330 C 0.5477 0.61484 0.94342 0.0
O331 O 0.51674 0.64274 0.96351 0.0
O332 O 0.49659 0.62207 0.96775 0.0
O333 O 0.53149 0.60915 0.94324 0.0
O334 O 0.55306 0.62098 0.96188 0.0
C335 C 0.53745 0.63063 0.01763 0.0
O336 O 0.53053 0.58558 0.98003 0.0
O337 O 0.50522 0.59514 0.99264 0.0
In338 In 0.10462 0.74391 0.74701 0.0
O339 O 0.09356 0.74287 0.78253 0.0
O340 O 0.09933 0.76877 0.76835 0.0
C341 C 0.10027 0.70935 0.73279 0.0
C342 C 0.141 0.74502 0.75154 0.0
C343 C 0.08576 0.76122 0.71503 0.0
O344 O 0.0905 0.71593 0.74812 0.0
O345 O 0.11204 0.72013 0.72507 0.0
O346 O 0.10255 0.76392 0.7183 0.0
O347 O 0.07842 0.74995 0.7281 0.0
C348 C 0.09386 0.75998 0.78501 0.0
O349 O 0.13265 0.75412 0.73696 0.0
O350 O 0.13093 0.73566 0.76415 0.0
In351 In 0.93509 0.36743 0.46594 0.0
O352 O 0.93078 0.39809 0.46916 0.0
O353 O 0.95596 0.38698 0.48039 0.0
C354 C 0.91052 0.36773 0.43259 0.0
C355 C 0.92527 0.35242 0.50505 0.0
C356 C 0.9614 0.34824 0.44527 0.0
O357 O 0.90789 0.3591 0.45041 0.0
O358 O 0.92518 0.37671 0.43202 0.0
O359 O 0.94599 0.34154 0.44982 0.0
O360 O 0.96364 0.36452 0.4515 0.0
C361 C 0.9463 0.40102 0.47751 0.0
O362 O 0.93806 0.34626 0.4933 0.0
O363 O 0.91727 0.36616 0.49705 0.0
In364 In 0.3783 0.77376 0.2501 0.0
O365 O 0.39514 0.7697 0.21864 0.0
O366 O 0.38401 0.79604 0.22503 0.0
C367 C 0.37848 0.74031 0.26867 0.0
C368 C 0.34298 0.77535 0.23892 0.0
C369 C 0.39529 0.79245 0.28256 0.0
O370 O 0.39009 0.74479 0.25416 0.0
O371 O 0.36717 0.75258 0.27352 0.0
O372 O 0.37822 0.79286 0.28001 0.0
O373 O 0.40376 0.78294 0.26853 0.0
C374 C 0.39335 0.78606 0.21231 0.0
O375 O 0.35011 0.78642 0.25246 0.0
O376 O 0.3539 0.76404 0.23034 0.0
In377 In 0.9631 0.62817 0.01242 0.0
O378 O 0.95851 0.5977 0.00955 0.0
O379 O 0.98459 0.60799 0.00039 0.0
C380 C 0.93719 0.62539 0.044 0.0
C381 C 0.95445 0.6454 0.97414 0.0
C382 C 0.98843 0.64675 0.0355 0.0
O383 O 0.95313 0.61928 0.04625 0.0
O384 O 0.93399 0.63261 0.02538 0.0
O385 O 0.99232 0.63274 0.02426 0.0
O386 O 0.97197 0.65169 0.03435 0.0
C387 C 0.97446 0.59422 0.00297 0.0
O388 O 0.96394 0.65269 0.98909 0.0
O389 O 0.9493 0.62939 0.9784 0.0
In390 In 0.11501 0.25242 0.74714 0.0
O391 O 0.10364 0.25555 0.71191 0.0
O392 O 0.10316 0.2293 0.72681 0.0
C393 C 0.116 0.28718 0.76164 0.0
C394 C 0.15062 0.24592 0.74051 0.0
C395 C 0.09641 0.23775 0.78124 0.0
O396 O 0.1033 0.28144 0.74929 0.0
O397 O 0.1281 0.27556 0.76605 0.0
O398 O 0.1119 0.23198 0.77536 0.0
O399 O 0.09023 0.25072 0.76973 0.0
C400 C 0.09959 0.23888 0.71003 0.0
O401 O 0.1417 0.23847 0.75597 0.0
O402 O 0.1414 0.25618 0.72797 0.0
In403 In 0.53753 0.37958 0.52655 0.0
O404 O 0.53555 0.36124 0.49616 0.0
O405 O 0.558 0.37947 0.498 0.0
C406 C 0.51215 0.3574 0.54439 0.0
C407 C 0.52619 0.41375 0.51787 0.0
C408 C 0.56102 0.37902 0.56088 0.0
O409 O 0.52802 0.35201 0.53961 0.0
O410 O 0.50892 0.37385 0.53959 0.0
O411 O 0.54509 0.38537 0.56235 0.0
O412 O 0.56533 0.37327 0.54186 0.0
C413 C 0.54988 0.3672 0.48717 0.0
O414 O 0.54073 0.41037 0.52822 0.0
O415 O 0.51746 0.39987 0.51156 0.0
C416 C 0.07112 0.11457 0.40389 0.0
C417 C 0.07894 0.11785 0.42475 0.0
C418 C 0.08022 0.11984 0.3846 0.0
C419 C 0.11336 0.15493 0.36855 0.0
H420 H 0.10242 0.13708 0.30951 0.0
C421 C 0.12823 0.19987 0.29442 0.0
C422 C 0.11259 0.2032 0.2816 0.0
C423 C 0.12905 0.18476 0.30842 0.0
C424 C 0.10572 0.14212 0.32591 0.0
H425 H 0.10317 0.12724 0.44183 0.0
H426 H 0.11948 0.13569 0.4081 0.0
H427 H 0.09582 0.11791 0.34173 0.0
H428 H 0.08624 0.19253 0.27178 0.0
H429 H 0.0875 0.16619 0.29661 0.0
H430 H 0.12273 0.17928 0.35293 0.0
C431 C 0.10599 0.12978 0.4066 0.0
C432 C 0.10189 0.1312 0.34437 0.0
C433 C 0.09673 0.12483 0.42593 0.0
C434 C 0.09842 0.1903 0.28156 0.0
C435 C 0.09921 0.17518 0.29569 0.0
C436 C 0.11737 0.16569 0.35016 0.0
C437 C 0.09745 0.12824 0.38576 0.0
C438 C 0.10503 0.13778 0.36599 0.0
C439 C 0.11419 0.17273 0.30997 0.0
C440 C 0.11303 0.15969 0.3287 0.0
H441 H 0.05742 0.10916 0.40248 0.0
H442 H 0.07307 0.11852 0.36898 0.0
H443 H 0.11568 0.16071 0.38482 0.0
H444 H 0.13949 0.20946 0.29452 0.0
H445 H 0.1409 0.18304 0.31895 0.0
C446 C 0.01281 0.8426 0.56077 0.0
C447 C 0.99444 0.83773 0.55782 0.0
C448 C 0.02347 0.83378 0.57669 0.0
C449 C 0.02543 0.79241 0.61191 0.0
H450 H 0.05681 0.82229 0.64882 0.0
C451 C 0.05726 0.76582 0.69303 0.0
C452 C 0.07564 0.77017 0.69693 0.0
C453 C 0.04783 0.77388 0.67547 0.0
C454 C 0.04827 0.81374 0.63849 0.0
H455 H 0.97287 0.81964 0.56891 0.0
H456 H 0.99136 0.80442 0.59688 0.0
H457 H 0.03973 0.83637 0.61867 0.0
H458 H 0.09856 0.78645 0.68566 0.0
H459 H 0.08207 0.80054 0.65496 0.0
H460 H 0.03381 0.76983 0.63198 0.0
C461 C -0.00235 0.81485 0.58671 0.0
C462 C 0.03851 0.82179 0.62119 0.0
C463 C 0.98702 0.82364 0.57076 0.0
C464 C 0.08437 0.78287 0.68308 0.0
C465 C 0.07492 0.79099 0.66556 0.0
C466 C 0.03514 0.78438 0.62927 0.0
C467 C 0.01594 0.81994 0.59001 0.0
C468 C 0.02691 0.81123 0.60778 0.0
C469 C 0.05658 0.78651 0.66152 0.0
C470 C 0.04658 0.79498 0.64281 0.0
H471 H 0.0189 0.85339 0.55096 0.0
H472 H 0.03759 0.83783 0.5786 0.0
H473 H 0.01683 0.78385 0.60167 0.0
H474 H 0.05018 0.75609 0.70347 0.0
H475 H 0.03363 0.77036 0.67294 0.0
C476 C 0.43844 0.87118 0.89787 0.0
C477 C 0.43336 0.86966 0.92023 0.0
C478 C 0.4261 0.86684 0.8811 0.0
C479 C 0.38687 0.83677 0.87326 0.0
H480 H 0.39062 0.85432 0.81277 0.0
C481 C 0.35766 0.79418 0.80341 0.0
C482 C 0.37095 0.78983 0.7875 0.0
C483 C 0.36003 0.80913 0.81741 0.0
C484 C 0.3893 0.84939 0.82962 0.0
H485 H 0.41096 0.86396 0.94263 0.0
H486 H 0.38916 0.85676 0.91328 0.0
H487 H 0.40418 0.87202 0.8429 0.0
H488 H 0.39627 0.79858 0.7723 0.0
H489 H 0.40062 0.82457 0.79701 0.0
H490 H 0.37267 0.81385 0.86003 0.0
C491 C 0.40285 0.86083 0.90869 0.0
C492 C 0.3971 0.85947 0.84687 0.0
C493 C 0.4153 0.86501 0.92551 0.0
C494 C 0.38585 0.8016 0.7845 0.0
C495 C 0.38827 0.81655 0.79858 0.0
C496 C 0.37897 0.82682 0.85609 0.0
C497 C 0.40832 0.86104 0.88632 0.0
C498 C 0.39663 0.85287 0.86878 0.0
C499 C 0.37579 0.81996 0.81581 0.0
C500 C 0.38071 0.83264 0.834 0.0
H501 H 0.45227 0.87483 0.89329 0.0
H502 H 0.43092 0.86696 0.86414 0.0
H503 H 0.38642 0.83108 0.88981 0.0
H504 H 0.34588 0.78547 0.80587 0.0
H505 H 0.35004 0.81163 0.83029 0.0
C506 C 0.36277 0.16089 0.1796 0.0
C507 C 0.37578 0.16754 0.19469 0.0
C508 C 0.36824 0.15062 0.16123 0.0
C509 C 0.40775 0.12571 0.13721 0.0
H510 H 0.38973 0.14416 0.08108 0.0
C511 C 0.43957 0.13981 0.04757 0.0
C512 C 0.4507 0.1243 0.04593 0.0
C513 C 0.42545 0.14038 0.06309 0.0
C514 C 0.39482 0.13875 0.0966 0.0
H515 H 0.40453 0.16788 0.20311 0.0
H516 H 0.41408 0.15012 0.17117 0.0
H517 H 0.37508 0.15359 0.1155 0.0
H518 H 0.45457 0.0965 0.05723 0.0
H519 H 0.42952 0.09725 0.08381 0.0
H520 H 0.42836 0.11205 0.11867 0.0
C521 C 0.39965 0.15264 0.1735 0.0
C522 C 0.38629 0.14399 0.11633 0.0
C523 C 0.3942 0.16295 0.19175 0.0
C524 C 0.44633 0.10874 0.05842 0.0
C525 C 0.43206 0.10921 0.07373 0.0
C526 C 0.41632 0.12056 0.11755 0.0
C527 C 0.3868 0.14672 0.15775 0.0
C528 C 0.39317 0.13812 0.13688 0.0
C529 C 0.42208 0.12536 0.07708 0.0
C530 C 0.41042 0.12759 0.09707 0.0
H531 H 0.34845 0.16421 0.1815 0.0
H532 H 0.35803 0.1461 0.14948 0.0
H533 H 0.41316 0.1207 0.15278 0.0
H534 H 0.44265 0.152 0.03811 0.0
H535 H 0.41815 0.15311 0.06526 0.0
C536 C 0.09775 0.79504 0.22683 0.0
C537 C 0.11158 0.78304 0.21999 0.0
C538 C 0.09427 0.81102 0.21481 0.0
C539 C 0.11231 0.84011 0.16859 0.0
H540 H 0.06114 0.84508 0.15362 0.0
C541 C 0.08563 0.86135 0.08324 0.0
C542 C 0.06943 0.87148 0.0818 0.0
C543 C 0.09262 0.85635 0.1039 0.0
C544 C 0.07546 0.84422 0.15795 0.0
H545 H 0.13335 0.77888 0.19616 0.0
H546 H 0.12711 0.80626 0.1751 0.0
H547 H 0.07001 0.82551 0.18425 0.0
H548 H 0.0485 0.88542 0.10078 0.0
H549 H 0.06065 0.87649 0.13689 0.0
H550 H 0.11771 0.85787 0.14113 0.0
C551 C 0.11905 0.80367 0.18981 0.0
C552 C 0.08057 0.83301 0.17559 0.0
C553 C 0.12252 0.7878 0.20178 0.0
C554 C 0.06099 0.87753 0.10139 0.0
C555 C 0.06789 0.87239 0.12205 0.0
C556 C 0.1072 0.85118 0.15079 0.0
C557 C 0.10458 0.81525 0.19578 0.0
C558 C 0.0991 0.83024 0.18057 0.0
C559 C 0.08345 0.86128 0.12348 0.0
C560 C 0.08876 0.85281 0.14482 0.0
H561 H 0.08918 0.79175 0.2409 0.0
H562 H 0.08317 0.81977 0.22002 0.0
H563 H 0.12669 0.8386 0.17231 0.0
H564 H 0.09244 0.85656 0.06841 0.0
H565 H 0.10456 0.84765 0.10448 0.0
C566 C 0.39492 0.80624 0.32045 0.0
C567 C 0.40461 0.80147 0.3012 0.0
C568 C 0.40411 0.81337 0.33882 0.0
C569 C 0.4451 0.83768 0.35567 0.0
H570 H 0.44139 0.81147 0.41141 0.0
C571 C 0.49243 0.82911 0.43625 0.0
C572 C 0.49548 0.84744 0.44192 0.0
C573 C 0.47846 0.82447 0.42152 0.0
C574 C 0.4424 0.81898 0.39599 0.0
H575 H 0.43128 0.80094 0.28571 0.0
H576 H 0.44725 0.81391 0.31759 0.0
H577 H 0.42236 0.80229 0.37986 0.0
H578 H 0.48584 0.87519 0.43751 0.0
H579 H 0.46167 0.86707 0.41144 0.0
H580 H 0.4653 0.8542 0.37158 0.0
C581 C 0.43261 0.81196 0.31852 0.0
C582 C 0.43149 0.81381 0.37805 0.0
C583 C 0.42351 0.80449 0.30035 0.0
C584 C 0.48381 0.86094 0.43342 0.0
C585 C 0.47004 0.85633 0.41845 0.0
C586 C 0.45575 0.84305 0.37369 0.0
C587 C 0.42304 0.81621 0.338 0.0
C588 C 0.43304 0.8229 0.35763 0.0
C589 C 0.46751 0.83811 0.412 0.0
C590 C 0.45474 0.83354 0.39387 0.0
H591 H 0.38034 0.80396 0.32154 0.0
H592 H 0.39647 0.81661 0.35368 0.0
H593 H 0.44648 0.84489 0.34008 0.0
H594 H 0.50121 0.81843 0.44259 0.0
H595 H 0.47684 0.81032 0.41668 0.0
C596 C 0.35979 0.19516 0.69914 0.0
C597 C 0.37486 0.19903 0.71272 0.0
C598 C 0.35946 0.17937 0.68627 0.0
C599 C 0.384 0.13616 0.67326 0.0
H600 H 0.37575 0.15173 0.61268 0.0
C601 C 0.42425 0.10883 0.59978 0.0
C602 C 0.41727 0.1106 0.57822 0.0
C603 C 0.41372 0.11384 0.61803 0.0
C604 C 0.37761 0.14678 0.62944 0.0
H605 H 0.40064 0.18876 0.72505 0.0
H606 H 0.40035 0.16134 0.70207 0.0
H607 H 0.36672 0.17137 0.6428 0.0
H608 H 0.39319 0.11697 0.55889 0.0
H609 H 0.37451 0.12519 0.59086 0.0
H610 H 0.39565 0.11182 0.65964 0.0
C611 C 0.38866 0.17036 0.70157 0.0
C612 C 0.37244 0.15814 0.64682 0.0
C613 C 0.3889 0.18612 0.71463 0.0
C614 C 0.39899 0.11576 0.57534 0.0
C615 C 0.38834 0.12054 0.59366 0.0
C616 C 0.38906 0.12466 0.6558 0.0
C617 C 0.37429 0.16724 0.68655 0.0
C618 C 0.37623 0.15331 0.66888 0.0
C619 C 0.39589 0.12054 0.61512 0.0
C620 C 0.38664 0.13021 0.63364 0.0
H621 H 0.34861 0.20476 0.69766 0.0
H622 H 0.34804 0.17716 0.67519 0.0
H623 H 0.38683 0.13197 0.69013 0.0
H624 H 0.43829 0.10477 0.6025 0.0
H625 H 0.4201 0.11376 0.63421 0.0
C626 C 0.06975 0.23784 0.80701 0.0
C627 C 0.08637 0.2301 0.80029 0.0
C628 C 0.06024 0.23067 0.82507 0.0
C629 C 0.06568 0.2014 0.87466 0.0
H630 H 0.01323 0.196 0.86942 0.0
C631 C 0.02229 0.15532 0.93184 0.0
C632 C 0.00475 0.16139 0.93763 0.0
C633 C 0.03303 0.16541 0.91714 0.0
C634 C 0.02783 0.19768 0.87131 0.0
H635 H 0.10615 0.20885 0.80719 0.0
H636 H 0.08937 0.19609 0.83851 0.0
H637 H 0.03034 0.21003 0.83937 0.0
H638 H 0.98504 0.18319 0.93354 0.0
H639 H 0.00385 0.20088 0.90801 0.0
H640 H 0.06312 0.18867 0.90649 0.0
C641 C 0.08382 0.20789 0.83006 0.0
C642 C 0.03765 0.20572 0.85407 0.0
C643 C 0.09336 0.2151 0.81203 0.0
C644 C -0.00152 0.17813 0.92928 0.0
C645 C 0.00919 0.1882 0.91456 0.0
C646 C 0.05585 0.19331 0.89191 0.0
C647 C 0.06712 0.21556 0.83675 0.0
C648 C 0.05669 0.20757 0.85548 0.0
C649 C 0.0264 0.18173 0.90793 0.0
C650 C 0.03683 0.19128 0.89035 0.0
H651 H 0.06409 0.24949 0.79836 0.0
H652 H 0.04754 0.23705 0.82998 0.0
H653 H 0.08031 0.20289 0.87639 0.0
H654 H 0.02748 0.14245 0.93803 0.0
H655 H 0.04617 0.15999 0.91223 0.0
C656 C 0.91953 0.8847 0.57876 0.0
C657 C 0.91911 0.87118 0.56227 0.0
C658 C 0.90957 0.88251 0.59833 0.0
C659 C 0.87676 0.85104 0.62713 0.0
H660 H 0.90834 0.86019 0.67744 0.0
C661 C 0.89901 0.81073 0.7092 0.0
C662 C 0.88224 0.80254 0.71422 0.0
C663 C 0.89976 0.8255 0.69461 0.0
C664 C 0.8993 0.85755 0.66361 0.0
H665 H 0.9068 0.84557 0.5524 0.0
H666 H 0.89001 0.84134 0.58662 0.0
H667 H 0.91536 0.87399 0.64195 0.0
H668 H 0.85293 0.80453 0.71016 0.0
H669 H 0.85412 0.83086 0.68549 0.0
H670 H 0.86181 0.83309 0.64813 0.0
C671 C 0.89765 0.85386 0.58452 0.0
C672 C 0.90315 0.86574 0.64324 0.0
C673 C 0.9074 0.8562 0.56485 0.0
C674 C 0.86608 0.81048 0.70627 0.0
C675 C 0.86679 0.82548 0.692 0.0
C676 C 0.8731 0.8426 0.64739 0.0
C677 C 0.89922 0.8666 0.60191 0.0
C678 C 0.89244 0.86185 0.62445 0.0
C679 C 0.88369 0.83256 0.68504 0.0
C680 C 0.88485 0.84505 0.66561 0.0
H681 H 0.92829 0.89653 0.57703 0.0
H682 H 0.91073 0.89282 0.61109 0.0
H683 H 0.8679 0.84816 0.6132 0.0
H684 H 0.91167 0.80483 0.71508 0.0
H685 H 0.91307 0.83039 0.68959 0.0
C686 C 0.98752 0.13262 0.43594 0.0
C687 C 0.00356 0.14227 0.44098 0.0
C688 C 0.97518 0.13948 0.42038 0.0
C689 C 0.97374 0.1693 0.37177 0.0
H690 H 0.92128 0.1674 0.37982 0.0
C691 C 0.92438 0.20311 0.31019 0.0
C692 C 0.90817 0.19382 0.305 0.0
C693 C 0.93569 0.19685 0.32715 0.0
C694 C 0.93589 0.16781 0.37722 0.0
H695 H 0.019 0.1669 0.43431 0.0
H696 H -0.00259 0.17891 0.40717 0.0
H697 H 0.94138 0.1569 0.40949 0.0
H698 H 0.89112 0.17065 0.31334 0.0
H699 H 0.9111 0.15947 0.34279 0.0
H700 H 0.96837 0.17994 0.33945 0.0
C701 C 0.99448 0.16597 0.41507 0.0
C702 C 0.94738 0.16186 0.39423 0.0
C703 C 0.00677 0.15916 0.43071 0.0
C704 C 0.90353 0.17809 0.31702 0.0
C705 C 0.9149 0.17177 0.33397 0.0
C706 C 0.96228 0.17516 0.35474 0.0
C707 C 0.97871 0.15606 0.4095 0.0
C708 C 0.96643 0.16261 0.3917 0.0
C709 C 0.9311 0.18111 0.33925 0.0
C710 C 0.94322 0.17454 0.35728 0.0
H711 H 0.9847 0.11955 0.4436 0.0
H712 H 0.96321 0.13149 0.4163 0.0
H713 H 0.98836 0.1697 0.36917 0.0
H714 H 0.92825 0.21535 0.3013 0.0
H715 H 0.9479 0.20454 0.33101 0.0
C716 C 0.51556 0.1749 0.07835 0.0
C717 C 0.52393 0.15859 0.07161 0.0
C718 C 0.52203 0.18439 0.09677 0.0
C719 C 0.55033 0.17935 0.14721 0.0
H720 H 0.55379 0.23203 0.14294 0.0
C721 C 0.59393 0.22422 0.20551 0.0
C722 C 0.58724 0.24158 0.21108 0.0
C723 C 0.58426 0.21303 0.19092 0.0
C724 C 0.55262 0.21736 0.14456 0.0
H725 H 0.54558 0.13935 0.07885 0.0
H726 H 0.55718 0.15616 0.11084 0.0
H727 H 0.54121 0.21474 0.11215 0.0
H728 H 0.56467 0.26039 0.20696 0.0
H729 H 0.54768 0.24077 0.18162 0.0
H730 H 0.5622 0.18205 0.17951 0.0
C731 C 0.54541 0.16145 0.1021 0.0
C732 C 0.54543 0.20743 0.12689 0.0
C733 C 0.53887 0.1519 0.08369 0.0
C734 C 0.5702 0.24711 0.20285 0.0
C735 C 0.56054 0.23594 0.18824 0.0
C736 C 0.55759 0.1893 0.1649 0.0
C737 C 0.53708 0.17783 0.10881 0.0
C738 C 0.54429 0.18831 0.12795 0.0
C739 C 0.56773 0.21902 0.18163 0.0
C740 C 0.55889 0.2084 0.16369 0.0
H741 H 0.50391 0.18031 0.06946 0.0
H742 H 0.51513 0.19682 0.10169 0.0
H743 H 0.54938 0.16465 0.14866 0.0
H744 H 0.60704 0.21959 0.21162 0.0
H745 H 0.5902 0.20011 0.18604 0.0
C746 C 0.52734 0.85003 0.92467 0.0
C747 C 0.51303 0.84108 0.93571 0.0
C748 C 0.53832 0.84056 0.90967 0.0
C749 C 0.54694 0.82017 0.86685 0.0
H750 H 0.56848 0.77274 0.87831 0.0
C751 C 0.57226 0.77245 0.79747 0.0
C752 C 0.58986 0.76522 0.80021 0.0
C753 C 0.56376 0.78173 0.81484 0.0
C754 C 0.56259 0.78601 0.87496 0.0
H755 H 0.49955 0.81506 0.94065 0.0
H756 H 0.519 0.79841 0.91466 0.0
H757 H 0.55269 0.78897 0.90824 0.0
H758 H 0.61228 0.76176 0.82328 0.0
H759 H 0.59724 0.77776 0.85383 0.0
H760 H 0.55647 0.81709 0.8335 0.0
C761 C 0.52163 0.81276 0.91755 0.0
C762 C 0.55352 0.79523 0.892 0.0
C763 C 0.51048 0.82229 0.93234 0.0
C764 C 0.59872 0.76724 0.82071 0.0
C765 C 0.59011 0.7763 0.8382 0.0
C766 C 0.55575 0.81085 0.84976 0.0
C767 C 0.53533 0.82192 0.90568 0.0
C768 C 0.54562 0.81238 0.88806 0.0
C769 C 0.57261 0.78372 0.83535 0.0
C770 C 0.56361 0.79368 0.85364 0.0
H771 H 0.52962 0.86452 0.92694 0.0
H772 H 0.54892 0.84787 0.90085 0.0
H773 H 0.54078 0.83329 0.86334 0.0
H774 H 0.56512 0.77108 0.78184 0.0
H775 H 0.5502 0.78721 0.81232 0.0
C776 C 0.85911 0.20738 0.8014 0.0
C777 C 0.87239 0.21246 0.78579 0.0
C778 C 0.86182 0.19225 0.815 0.0
C779 C 0.8916 0.15228 0.82619 0.0
H780 H 0.88603 0.16792 0.8872 0.0
C781 C 0.93656 0.12638 0.89699 0.0
C782 C 0.93024 0.12737 0.91893 0.0
C783 C 0.9253 0.13155 0.87944 0.0
C784 C 0.88724 0.16296 0.87036 0.0
H785 H 0.89819 0.20494 0.77085 0.0
H786 H 0.90316 0.17861 0.79501 0.0
H787 H 0.87371 0.1865 0.85772 0.0
H788 H 0.90669 0.13274 0.93963 0.0
H789 H 0.88676 0.14123 0.9089 0.0
H790 H 0.90573 0.12896 0.83898 0.0
C791 C 0.89055 0.18621 0.79657 0.0
C792 C 0.88018 0.17371 0.85337 0.0
C793 C 0.88777 0.20133 0.78282 0.0
C794 C 0.91198 0.1321 0.92288 0.0
C795 C 0.90061 0.13705 0.90527 0.0
C796 C 0.89856 0.14139 0.84327 0.0
C797 C 0.87793 0.18198 0.81339 0.0
C798 C 0.88276 0.1688 0.83109 0.0
C799 C 0.9074 0.13764 0.88344 0.0
C800 C 0.897 0.14693 0.86554 0.0
H801 H 0.84697 0.21557 0.8038 0.0
H802 H 0.8517 0.18911 0.82753 0.0
H803 H 0.8936 0.14806 0.80916 0.0
H804 H 0.95057 0.12271 0.89344 0.0
H805 H 0.9311 0.13196 0.86295 0.0
C806 C 0.56168 0.21462 0.68656 0.0
C807 C 0.57862 0.20777 0.69355 0.0
C808 C 0.55274 0.20695 0.66839 0.0
C809 C 0.54982 0.16503 0.6353 0.0
H810 H 0.52495 0.19646 0.5933 0.0
C811 C 0.5112 0.13552 0.56042 0.0
C812 C 0.49356 0.14252 0.55721 0.0
C813 C 0.52339 0.14429 0.57469 0.0
C814 C 0.53177 0.18751 0.60494 0.0
H815 H 0.59951 0.18753 0.68708 0.0
H816 H 0.58387 0.17409 0.65523 0.0
H817 H 0.54276 0.20995 0.62328 0.0
H818 H 0.47506 0.16454 0.5656 0.0
H819 H 0.49626 0.17977 0.59061 0.0
H820 H 0.53855 0.14259 0.61727 0.0
C821 C 0.57746 0.18532 0.66391 0.0
C822 C 0.54194 0.19522 0.62211 0.0
C823 C 0.58643 0.19303 0.6821 0.0
C824 C 0.48859 0.15885 0.56775 0.0
C825 C 0.50077 0.16762 0.582 0.0
C826 C 0.53964 0.15731 0.61814 0.0
C827 C 0.56055 0.19226 0.65682 0.0
C828 C 0.55085 0.18407 0.63768 0.0
C829 C 0.51817 0.16022 0.58599 0.0
C830 C 0.53029 0.16847 0.60295 0.0
H831 H 0.55531 0.22596 0.69508 0.0
H832 H 0.53959 0.2124 0.66357 0.0
H833 H 0.55635 0.15607 0.64717 0.0
H834 H 0.51542 0.12298 0.55244 0.0
H835 H 0.53679 0.13841 0.57717 0.0
C836 C 0.64014 0.78292 0.29266 0.0
C837 C 0.62514 0.77861 0.27916 0.0
C838 C 0.63968 0.79822 0.30636 0.0
C839 C 0.61291 0.83923 0.32248 0.0
H840 H 0.62159 0.82096 0.38186 0.0
C841 C 0.57223 0.86291 0.3977 0.0
C842 C 0.57942 0.86085 0.41912 0.0
C843 C 0.5826 0.85825 0.37918 0.0
C844 C 0.61957 0.82666 0.36549 0.0
H845 H 0.59869 0.78777 0.26768 0.0
H846 H 0.59767 0.81439 0.29203 0.0
H847 H 0.63157 0.8033 0.35036 0.0
H848 H 0.6036 0.85396 0.43798 0.0
H849 H 0.62202 0.84632 0.40554 0.0
H850 H 0.6003 0.86236 0.33779 0.0
C851 C 0.60987 0.80607 0.29188 0.0
C852 C 0.62529 0.81644 0.34732 0.0
C853 C 0.6104 0.79078 0.27801 0.0
C854 C 0.59765 0.85541 0.42164 0.0
C855 C 0.60815 0.85098 0.40305 0.0
C856 C 0.60734 0.8496 0.34073 0.0
C857 C 0.62414 0.8094 0.30696 0.0
C858 C 0.62143 0.82226 0.32563 0.0
C859 C 0.6005 0.85163 0.38165 0.0
C860 C 0.60993 0.84305 0.36246 0.0
H861 H 0.65183 0.7739 0.29358 0.0
H862 H 0.65102 0.80066 0.3175 0.0
H863 H 0.60996 0.84414 0.30593 0.0
H864 H 0.55822 0.86717 0.39525 0.0
H865 H 0.57611 0.85875 0.36307 0.0
C866 C 0.92263 0.77468 0.17347 0.0
C867 C 0.90695 0.78259 0.18274 0.0
C868 C 0.93116 0.78272 0.15526 0.0
C869 C 0.93776 0.82648 0.12789 0.0
H870 H 0.95606 0.79668 0.07962 0.0
C871 C 0.98038 0.8578 0.05739 0.0
C872 C -0.00373 0.84808 0.05193 0.0
C873 C 0.96683 0.8497 0.07038 0.0
C874 C 0.95109 0.80518 0.09301 0.0
H875 H 0.88781 0.80505 0.18025 0.0
H876 H 0.90294 0.81929 0.14845 0.0
H877 H 0.93735 0.78277 0.10851 0.0
H878 H 0.01018 0.8221 0.05503 0.0
H879 H 0.98677 0.80809 0.07799 0.0
H880 H 0.95205 0.84873 0.11297 0.0
C881 C 0.90857 0.80685 0.15531 0.0
C882 C 0.94037 0.79722 0.10951 0.0
C883 C 0.89992 0.7987 0.17345 0.0
C884 C -0.00194 0.82991 0.05896 0.0
C885 C 0.98457 0.82185 0.07201 0.0
C886 C 0.94858 0.83442 0.11146 0.0
C887 C 0.92426 0.7989 0.14604 0.0
C888 C 0.93392 0.80772 0.12734 0.0
C889 C 0.96895 0.83176 0.07822 0.0
C890 C 0.95569 0.82378 0.09409 0.0
H891 H 0.92834 0.76224 0.18026 0.0
H892 H 0.94339 0.77644 0.14866 0.0
H893 H 0.9331 0.83485 0.14155 0.0
H894 H 0.9786 0.8718 0.05208 0.0
H895 H 0.95484 0.85761 0.0746 0.0
C896 C 0.57736 0.62005 0.92381 0.0
C897 C 0.5587 0.61586 0.92302 0.0
C898 C 0.5871 0.62311 0.90421 0.0
C899 C 0.58273 0.62205 0.84199 0.0
H900 H 0.61412 0.66445 0.84621 0.0
C901 C 0.59233 0.67763 0.77537 0.0
C902 C 0.60965 0.68567 0.77338 0.0
C903 C 0.58946 0.66351 0.79058 0.0
C904 C 0.6057 0.65236 0.84475 0.0
H905 H 0.53575 0.61071 0.90123 0.0
H906 H 0.5523 0.6169 0.86735 0.0
H907 H 0.60319 0.65005 0.87978 0.0
H908 H 0.6379 0.68406 0.78399 0.0
H909 H 0.63279 0.65962 0.81066 0.0
H910 H 0.5842 0.62557 0.80669 0.0
C911 C 0.55975 0.61731 0.88283 0.0
C912 C 0.59946 0.644 0.86406 0.0
C913 C 0.55015 0.61392 0.90234 0.0
C914 C 0.62435 0.67826 0.78534 0.0
C915 C 0.62146 0.66428 0.80061 0.0
C916 C 0.58872 0.63067 0.82262 0.0
C917 C 0.57824 0.62242 0.88349 0.0
C918 C 0.58745 0.62905 0.86298 0.0
C919 C 0.60385 0.65734 0.80405 0.0
C920 C 0.5999 0.64617 0.82389 0.0
H921 H 0.58433 0.6214 0.93956 0.0
H922 H 0.60143 0.62656 0.90539 0.0
H923 H 0.57387 0.61029 0.84047 0.0
H924 H 0.58078 0.68304 0.76631 0.0
H925 H 0.57572 0.65844 0.793 0.0
C926 C 0.62572 0.3078 0.16448 0.0
C927 C 0.61859 0.3138 0.18483 0.0
C928 C 0.62015 0.31591 0.14466 0.0
C929 C 0.59353 0.35443 0.1206 0.0
H930 H 0.5754 0.31706 0.08078 0.0
C931 C 0.52969 0.3635 0.06765 0.0
C932 C 0.52807 0.35442 0.04726 0.0
C933 C 0.54532 0.36144 0.08057 0.0
C934 C 0.58074 0.32776 0.09131 0.0
H935 H 0.60126 0.33394 0.20059 0.0
H936 H 0.59136 0.34798 0.16604 0.0
H937 H 0.59553 0.3086 0.11098 0.0
H938 H 0.54192 0.33685 0.02377 0.0
H939 H 0.5694 0.33324 0.04641 0.0
H940 H 0.57797 0.37346 0.10141 0.0
C941 C 0.60135 0.33711 0.16532 0.0
C942 C 0.59232 0.3229 0.10869 0.0
C943 C 0.60693 0.32899 0.18514 0.0
C944 C 0.54277 0.3439 0.03951 0.0
C945 C 0.55845 0.34181 0.05249 0.0
C946 C 0.58197 0.3593 0.10315 0.0
C947 C 0.60733 0.33018 0.14483 0.0
C948 C 0.59829 0.33607 0.12401 0.0
C949 C 0.55972 0.35025 0.07339 0.0
C950 C 0.57488 0.3459 0.08884 0.0
H951 H 0.63487 0.29621 0.16375 0.0
H952 H 0.62522 0.31048 0.12915 0.0
H953 H 0.59815 0.36491 0.13193 0.0
H954 H 0.51862 0.37177 0.07402 0.0
H955 H 0.54568 0.36791 0.0967 0.0
C956 C 0.8579 0.27006 0.30171 0.0
C957 C 0.86797 0.26769 0.28212 0.0
C958 C 0.85792 0.28679 0.31267 0.0
C959 C 0.88814 0.32566 0.32052 0.0
H960 H 0.84915 0.3414 0.35957 0.0
C961 C 0.9043 0.37293 0.39241 0.0
C962 C 0.89912 0.36506 0.4127 0.0
C963 C 0.89631 0.36709 0.37263 0.0
C964 C 0.86011 0.3373 0.3486 0.0
H965 H 0.88495 0.2813 0.25779 0.0
H966 H 0.88491 0.31073 0.27695 0.0
H967 H 0.84272 0.31942 0.33013 0.0
H968 H 0.88026 0.34634 0.42849 0.0
H969 H 0.86642 0.33604 0.39403 0.0
H970 H 0.90572 0.34276 0.33957 0.0
C971 C 0.8772 0.29953 0.28398 0.0
C972 C 0.85645 0.3247 0.33179 0.0
C973 C 0.8772 0.28271 0.27298 0.0
C974 C 0.8846 0.35257 0.41308 0.0
C975 C 0.87659 0.34675 0.3933 0.0
C976 C 0.89176 0.33831 0.33723 0.0
C977 C 0.86797 0.3016 0.30429 0.0
C978 C 0.87063 0.3181 0.31824 0.0
C979 C 0.88297 0.35332 0.3728 0.0
C980 C 0.87797 0.34365 0.35207 0.0
H981 H 0.85056 0.25876 0.3091 0.0
H982 H 0.85087 0.28775 0.32841 0.0
H983 H 0.89943 0.32079 0.31058 0.0
H984 H 0.91535 0.38273 0.39164 0.0
H985 H 0.9013 0.3726 0.35711 0.0
C986 C 0.90302 0.71321 0.67011 0.0
C987 C 0.91046 0.72754 0.68262 0.0
C988 C 0.91257 0.70604 0.65206 0.0
C989 C 0.95917 0.70217 0.62973 0.0
H990 H 0.93423 0.68623 0.57644 0.0
C991 C -0.00124 0.67097 0.55698 0.0
C992 C 0.99168 0.6544 0.54906 0.0
C993 C 0.98826 0.68215 0.57071 0.0
C994 C 0.94136 0.6906 0.59124 0.0
H995 H 0.93349 0.74593 0.68581 0.0
H996 H 0.95006 0.7336 0.65415 0.0
H997 H 0.91702 0.70143 0.60579 0.0
H998 H 0.96777 0.63698 0.54828 0.0
H999 H 0.94946 0.65644 0.57233 0.0
H1000 H 0.98343 0.69112 0.6154 0.0
C1001 C 0.937 0.72766 0.65848 0.0
C1002 C 0.93151 0.69924 0.60807 0.0
C1003 C 0.92749 0.73477 0.67656 0.0
C1004 C 0.97359 0.64968 0.55416 0.0
C1005 C 0.96307 0.66087 0.56785 0.0
C1006 C 0.96901 0.69359 0.61291 0.0
C1007 C 0.92972 0.71312 0.64612 0.0
C1008 C 0.94027 0.70492 0.62762 0.0
C1009 C 0.97046 0.67698 0.57674 0.0
C1010 C 0.96018 0.68752 0.5936 0.0
H1011 H 0.88991 0.70736 0.67442 0.0
H1012 H 0.90669 0.69467 0.64309 0.0
H1013 H 0.9663 0.7061 0.64471 0.0
H1014 H 0.01265 0.675 0.55324 0.0
H1015 H 0.99421 0.69462 0.57706 0.0
C1016 C 0.56522 0.37811 0.60181 0.0
C1017 C 0.57268 0.37627 0.58049 0.0
C1018 C 0.57485 0.37198 0.62031 0.0
C1019 C 0.6085 0.3366 0.63235 0.0
H1020 H 0.59995 0.35184 0.69302 0.0
C1021 C 0.62597 0.28846 0.70268 0.0
C1022 C 0.61119 0.2851 0.71691 0.0
C1023 C 0.62619 0.30392 0.68925 0.0
C1024 C 0.60254 0.3475 0.67615 0.0
H1025 H 0.59675 0.36847 0.56192 0.0
H1026 H 0.61387 0.35831 0.59434 0.0
H1027 H 0.59214 0.37239 0.6625 0.0
H1028 H 0.58575 0.29589 0.72963 0.0
H1029 H 0.58585 0.3228 0.70567 0.0
H1030 H 0.61822 0.31153 0.64575 0.0
C1031 C 0.60033 0.36389 0.59673 0.0
C1032 C 0.59806 0.35923 0.65868 0.0
C1033 C 0.59058 0.36979 0.57817 0.0
C1034 C 0.59727 0.29816 0.71873 0.0
C1035 C 0.59741 0.31361 0.7051 0.0
C1036 C 0.61308 0.32499 0.64974 0.0
C1037 C 0.59222 0.36408 0.61788 0.0
C1038 C 0.6004 0.35364 0.63653 0.0
C1039 C 0.61152 0.31624 0.68961 0.0
C1040 C 0.60962 0.33006 0.6718 0.0
H1041 H 0.55145 0.38314 0.60409 0.0
H1042 H 0.56806 0.37224 0.63625 0.0
H1043 H 0.6102 0.3316 0.61558 0.0
H1044 H 0.63705 0.27874 0.70124 0.0
H1045 H 0.63742 0.30578 0.6778 0.0
C1046 C 0.97637 0.35643 0.93742 0.0
C1047 C 0.99313 0.34768 0.94116 0.0
C1048 C 0.9637 0.34902 0.92266 0.0
C1049 C 0.95199 0.30668 0.89201 0.0
H1050 H 0.92848 0.3402 0.85123 0.0
C1051 C 0.91828 0.2828 0.81117 0.0
C1052 C 0.90104 0.29 0.80602 0.0
C1053 C 0.92843 0.28993 0.82869 0.0
C1054 C 0.93477 0.3307 0.86268 0.0
H1055 H 0.00964 0.32411 0.93287 0.0
H1056 H 0.98771 0.31132 0.90684 0.0
H1057 H 0.94796 0.35212 0.88063 0.0
H1058 H 0.881 0.3105 0.81488 0.0
H1059 H 0.89893 0.32315 0.84549 0.0
H1060 H 0.93916 0.28526 0.87362 0.0
C1061 C 0.98417 0.32375 0.91553 0.0
C1062 C 0.94589 0.33751 0.87957 0.0
C1063 C -0.00321 0.33111 0.93037 0.0
C1064 C 0.89427 0.3047 0.81848 0.0
C1065 C 0.90452 0.31196 0.83594 0.0
C1066 C 0.94098 0.29989 0.87504 0.0
C1067 C 0.96758 0.33274 0.91127 0.0
C1068 C 0.95479 0.32556 0.89428 0.0
C1069 C 0.92162 0.3045 0.84134 0.0
C1070 C 0.93244 0.31182 0.86006 0.0
H1071 H 0.97316 0.36919 0.9456 0.0
H1072 H 0.95093 0.35613 0.92004 0.0
H1073 H 0.95836 0.29713 0.9033 0.0
H1074 H 0.92386 0.27146 0.80185 0.0
H1075 H 0.94169 0.2841 0.83227 0.0
C1076 C 0.90659 0.63296 0.05999 0.0
C1077 C 0.92439 0.62634 0.06282 0.0
C1078 C 0.89581 0.63705 0.07846 0.0
C1079 C 0.89547 0.63622 0.14096 0.0
H1080 H 0.87374 0.68395 0.13288 0.0
C1081 C 0.89339 0.69354 0.20629 0.0
C1082 C 0.8785 0.70557 0.20596 0.0
C1083 C 0.89409 0.6789 0.19142 0.0
C1084 C 0.87937 0.67044 0.13544 0.0
H1085 H 0.94437 0.61739 0.087 0.0
H1086 H 0.92612 0.62525 0.11898 0.0
H1087 H 0.88338 0.66676 0.10082 0.0
H1088 H 0.85185 0.71072 0.19159 0.0
H1089 H 0.8531 0.68523 0.16577 0.0
H1090 H 0.89265 0.64087 0.17593 0.0
C1091 C 0.92011 0.62695 0.10272 0.0
C1092 C 0.88485 0.66047 0.11695 0.0
C1093 C 0.93071 0.62258 0.0843 0.0
C1094 C 0.86365 0.70182 0.19196 0.0
C1095 C 0.86433 0.68723 0.17718 0.0
C1096 C 0.89021 0.64637 0.15953 0.0
C1097 C 0.9028 0.63495 0.10008 0.0
C1098 C 0.89354 0.64349 0.11945 0.0
C1099 C 0.87989 0.67612 0.17609 0.0
C1100 C 0.88258 0.6638 0.15692 0.0
H1101 H 0.90129 0.63575 0.04357 0.0
H1102 H 0.88234 0.6427 0.07577 0.0
H1103 H 0.90173 0.62301 0.14353 0.0
H1104 H 0.90499 0.6961 0.21697 0.0
H1105 H 0.90631 0.6706 0.19085 0.0
C1106 C 0.59353 0.69104 0.31978 0.0
C1107 C 0.58838 0.7063 0.30718 0.0
C1108 C 0.58281 0.68533 0.33768 0.0
C1109 C 0.53598 0.68921 0.3598 0.0
H1110 H 0.55772 0.67193 0.41453 0.0
C1111 C 0.49181 0.67386 0.43556 0.0
C1112 C 0.49468 0.65673 0.44538 0.0
C1113 C 0.5045 0.68094 0.42062 0.0
C1114 C 0.5515 0.67666 0.3993 0.0
H1115 H 0.56824 0.72779 0.30361 0.0
H1116 H 0.54979 0.71808 0.33493 0.0
H1117 H 0.57738 0.68192 0.38407 0.0
H1118 H 0.51352 0.63405 0.44834 0.0
H1119 H 0.53573 0.64645 0.42215 0.0
H1120 H 0.51015 0.684 0.37492 0.0
C1121 C 0.56184 0.71024 0.33079 0.0
C1122 C 0.56273 0.68231 0.38184 0.0
C1123 C 0.57246 0.71585 0.31289 0.0
C1124 C 0.51096 0.64729 0.44098 0.0
C1125 C 0.52369 0.6544 0.42605 0.0
C1126 C 0.5248 0.68369 0.37723 0.0
C1127 C 0.5668 0.69485 0.34331 0.0
C1128 C 0.55507 0.68867 0.36191 0.0
C1129 C 0.52031 0.67104 0.41524 0.0
C1130 C 0.53242 0.67739 0.39717 0.0
H1131 H 0.60576 0.68344 0.31573 0.0
H1132 H 0.58691 0.67331 0.34685 0.0
H1133 H 0.52963 0.69366 0.34452 0.0
H1134 H 0.47944 0.6815 0.43874 0.0
H1135 H 0.5017 0.69395 0.41281 0.0
C1136 C 0.43657 0.34059 0.07755 0.0
C1137 C 0.44591 0.3303 0.0615 0.0
C1138 C 0.42733 0.33188 0.09484 0.0
C1139 C 0.40672 0.28813 0.11067 0.0
H1140 H 0.41458 0.30443 0.17111 0.0
C1141 C 0.39726 0.25691 0.20321 0.0
C1142 C 0.37958 0.24973 0.20111 0.0
C1143 C 0.40415 0.26879 0.1871 0.0
C1144 C 0.41227 0.29976 0.15431 0.0
H1145 H 0.45265 0.30292 0.05066 0.0
H1146 H 0.43639 0.28773 0.08072 0.0
H1147 H 0.42886 0.32095 0.14038 0.0
H1148 H 0.35489 0.25009 0.18126 0.0
H1149 H 0.36689 0.27083 0.15331 0.0
H1150 H 0.39048 0.26675 0.12448 0.0
C1151 C 0.43618 0.30249 0.07993 0.0
C1152 C 0.4203 0.30928 0.13675 0.0
C1153 C 0.44554 0.31118 0.06278 0.0
C1154 C 0.36863 0.25529 0.18323 0.0
C1155 C 0.37552 0.26709 0.16716 0.0
C1156 C 0.3986 0.27872 0.12817 0.0
C1157 C 0.42711 0.31275 0.09623 0.0
C1158 C 0.41775 0.30342 0.11478 0.0
C1159 C 0.39348 0.27362 0.16864 0.0
C1160 C 0.40141 0.28434 0.15018 0.0
H1161 H 0.43666 0.35536 0.07697 0.0
H1162 H 0.42031 0.3401 0.10709 0.0
H1163 H 0.40442 0.2834 0.09389 0.0
H1164 H 0.40598 0.25285 0.21684 0.0
H1165 H 0.4181 0.27354 0.1886 0.0
C1166 C 0.49295 0.6656 0.93852 0.0
C1167 C 0.48738 0.6489 0.94772 0.0
C1168 C 0.48166 0.67488 0.92371 0.0
C1169 C 0.43465 0.67826 0.90216 0.0
H1170 H 0.45893 0.6936 0.84815 0.0
C1171 C 0.39514 0.69924 0.8233 0.0
C1172 C 0.40201 0.71402 0.81106 0.0
C1173 C 0.40513 0.69198 0.84094 0.0
C1174 C 0.45196 0.68966 0.86324 0.0
H1175 H 0.46527 0.62929 0.94963 0.0
H1176 H 0.44552 0.64554 0.92367 0.0
H1177 H 0.47675 0.6805 0.8782 0.0
H1178 H 0.42459 0.73295 0.80777 0.0
H1179 H 0.4419 0.72049 0.83872 0.0
H1180 H 0.40982 0.6874 0.88711 0.0
C1181 C 0.45859 0.65147 0.92797 0.0
C1182 C 0.46218 0.68216 0.88047 0.0
C1183 C 0.46991 0.64214 0.94277 0.0
C1184 C 0.41902 0.72145 0.81681 0.0
C1185 C 0.42896 0.71427 0.83449 0.0
C1186 C 0.42441 0.68586 0.88493 0.0
C1187 C 0.46457 0.66767 0.91785 0.0
C1188 C 0.45364 0.67634 0.90008 0.0
C1189 C 0.42216 0.69942 0.84673 0.0
C1190 C 0.43296 0.69159 0.86524 0.0
H1191 H 0.50631 0.67119 0.94214 0.0
H1192 H 0.48649 0.68751 0.91645 0.0
H1193 H 0.42773 0.67402 0.91717 0.0
H1194 H 0.38206 0.69323 0.8192 0.0
H1195 H 0.39962 0.68039 0.84984 0.0
C1196 C 0.08229 0.68037 0.72912 0.0
C1197 C 0.09731 0.69114 0.72301 0.0
C1198 C 0.07815 0.66448 0.71726 0.0
C1199 C 0.09542 0.6337 0.67216 0.0
H1200 H 0.04476 0.63415 0.65378 0.0
C1201 C 0.07068 0.61747 0.58452 0.0
C1202 C 0.0532 0.61005 0.58148 0.0
C1203 C 0.07737 0.62059 0.60586 0.0
C1204 C 0.05887 0.63343 0.65906 0.0
H1205 H 0.12056 0.69309 0.70088 0.0
H1206 H 0.11319 0.66588 0.68 0.0
H1207 H 0.05414 0.6523 0.68534 0.0
H1208 H 0.02969 0.59854 0.59829 0.0
H1209 H 0.04138 0.60406 0.63556 0.0
H1210 H 0.10025 0.61581 0.64467 0.0
C1211 C 0.10466 0.66936 0.69403 0.0
C1212 C 0.06427 0.64385 0.67726 0.0
C1213 C 0.10879 0.68513 0.70589 0.0
C1214 C 0.04316 0.60444 0.60013 0.0
C1215 C 0.04982 0.60763 0.62147 0.0
C1216 C 0.09003 0.62339 0.6538 0.0
C1217 C 0.08896 0.65915 0.69907 0.0
C1218 C 0.08274 0.64474 0.68345 0.0
C1219 C 0.06667 0.6164 0.62454 0.0
C1220 C 0.07182 0.62373 0.64657 0.0
H1221 H 0.07329 0.68462 0.74239 0.0
H1222 H 0.06611 0.65677 0.72178 0.0
H1223 H 0.10969 0.63376 0.67681 0.0
H1224 H 0.07875 0.62185 0.57045 0.0
H1225 H 0.09036 0.6275 0.60767 0.0
C1226 C 0.97156 0.32069 0.4243 0.0
C1227 C 0.97528 0.33825 0.43241 0.0
C1228 C 0.98404 0.31187 0.41049 0.0
C1229 C 0.03201 0.31231 0.39156 0.0
H1230 H 0.0119 0.29023 0.3385 0.0
C1231 C 0.0764 0.29191 0.31642 0.0
C1232 C 0.07194 0.27564 0.30541 0.0
C1233 C 0.06509 0.29867 0.33315 0.0
C1234 C 0.01774 0.29609 0.35338 0.0
H1235 H -0.0048 0.36013 0.43313 0.0
H1236 H 0.01697 0.34477 0.40891 0.0
H1237 H 0.99146 0.30318 0.36611 0.0
H1238 H 0.05239 0.25347 0.30351 0.0
H1239 H 0.03279 0.26513 0.33287 0.0
H1240 H 0.05832 0.30532 0.37869 0.0
C1241 C 0.00448 0.33775 0.41333 0.0
C1242 C 0.00602 0.3035 0.36921 0.0
C1243 C 0.99197 0.34659 0.4271 0.0
C1244 C 0.0561 0.26613 0.3116 0.0
C1245 C 0.04484 0.27285 0.32836 0.0
C1246 C 0.04376 0.30484 0.37573 0.0
C1247 C 0.0005 0.32044 0.40458 0.0
C1248 C 0.01302 0.31178 0.38841 0.0
C1249 C 0.04913 0.28926 0.33922 0.0
C1250 C 0.03674 0.29674 0.35641 0.0
H1251 H 0.95882 0.31391 0.4282 0.0
H1252 H 0.98073 0.29842 0.40424 0.0
H1253 H 0.03779 0.31843 0.40632 0.0
H1254 H 0.08853 0.29952 0.31196 0.0
H1255 H 0.06866 0.31147 0.34102 0.0
C1256 C 0.39975 0.64054 0.42281 0.0
C1257 C 0.41757 0.63367 0.42146 0.0
C1258 C 0.39079 0.64657 0.40372 0.0
C1259 C 0.39541 0.65073 0.3418 0.0
H1260 H 0.3733 0.69789 0.35286 0.0
C1261 C 0.39391 0.71122 0.28005 0.0
C1262 C 0.37861 0.72274 0.28058 0.0
C1263 C 0.39494 0.69622 0.29437 0.0
C1264 C 0.3791 0.68458 0.34943 0.0
H1265 H 0.43949 0.62636 0.399 0.0
H1266 H 0.42432 0.63753 0.366 0.0
H1267 H 0.38119 0.67851 0.38381 0.0
H1268 H 0.35175 0.72674 0.2949 0.0
H1269 H 0.35355 0.70061 0.31969 0.0
H1270 H 0.39429 0.65766 0.30724 0.0
C1271 C 0.41695 0.63797 0.38154 0.0
C1272 C 0.38356 0.67336 0.36724 0.0
C1273 C 0.42575 0.63167 0.40055 0.0
C1274 C 0.36384 0.71825 0.29439 0.0
C1275 C 0.36485 0.7033 0.30859 0.0
C1276 C 0.39112 0.66212 0.32392 0.0
C1277 C 0.39965 0.64618 0.38299 0.0
C1278 C 0.39217 0.65646 0.36375 0.0
C1279 C 0.38068 0.69256 0.30935 0.0
C1280 C 0.38324 0.67931 0.32763 0.0
H1281 H 0.39304 0.64201 0.43871 0.0
H1282 H 0.37726 0.65233 0.40538 0.0
H1283 H 0.40174 0.63767 0.33845 0.0
H1284 H 0.40545 0.71436 0.2695 0.0
H1285 H 0.40736 0.68821 0.2947 0.0
C1286 C 0.01915 0.64834 0.05349 0.0
C1287 C 0.00145 0.65538 0.05089 0.0
C1288 C 0.03053 0.65492 0.07029 0.0
C1289 C 0.02723 0.67594 0.12506 0.0
H1290 H 0.07877 0.6864 0.11801 0.0
C1291 C 0.06877 0.71147 0.19311 0.0
C1292 C 0.08681 0.70579 0.19672 0.0
C1293 C 0.05884 0.70473 0.17519 0.0
C1294 C 0.06445 0.68328 0.1203 0.0
H1295 H 0.9821 0.67544 0.063 0.0
H1296 H 0.00197 0.68695 0.09218 0.0
H1297 H 0.06085 0.67653 0.08599 0.0
H1298 H 0.10857 0.6884 0.18465 0.0
H1299 H 0.09106 0.67631 0.15344 0.0
H1300 H 0.03072 0.68246 0.1593 0.0
C1301 C 0.00697 0.67619 0.08148 0.0
C1302 C 0.0542 0.6777 0.10196 0.0
C1303 C -0.00435 0.66968 0.06467 0.0
C1304 C 0.09467 0.69301 0.18224 0.0
C1305 C 0.0847 0.68621 0.16429 0.0
C1306 C 0.03746 0.68139 0.14338 0.0
C1307 C 0.02434 0.66857 0.08481 0.0
C1308 C 0.03545 0.67419 0.10414 0.0
C1309 C 0.0667 0.69208 0.1605 0.0
C1310 C 0.05614 0.68532 0.14118 0.0
H1311 H 0.02397 0.63729 0.0431 0.0
H1312 H 0.04384 0.64877 0.07253 0.0
H1313 H 0.01288 0.67292 0.12734 0.0
H1314 H 0.06238 0.72139 0.20392 0.0
H1315 H 0.04512 0.70976 0.17257 0.0
C1316 C 0.0994 0.31525 0.77388 0.0
C1317 C 0.11555 0.30498 0.77302 0.0
C1318 C 0.09772 0.32959 0.78906 0.0
C1319 C 0.11373 0.33836 0.84434 0.0
H1320 H 0.08502 0.3826 0.83996 0.0
C1321 C 0.08633 0.37106 0.9232 0.0
C1322 C 0.06786 0.37599 0.92215 0.0
C1323 C 0.09625 0.36813 0.90374 0.0
C1324 C 0.09304 0.37027 0.84149 0.0
H1325 H 0.14327 0.30288 0.78537 0.0
H1326 H 0.14031 0.32787 0.81174 0.0
H1327 H 0.09495 0.36705 0.80618 0.0
H1328 H 0.04554 0.38283 0.9001 0.0
H1329 H 0.06243 0.3769 0.86631 0.0
H1330 H 0.11078 0.34049 0.87931 0.0
C1331 C 0.12888 0.3247 0.80102 0.0
C1332 C 0.0988 0.36145 0.82213 0.0
C1333 C 0.13056 0.31041 0.78592 0.0
C1334 C 0.05978 0.37901 0.90139 0.0
C1335 C 0.06957 0.37575 0.88195 0.0
C1336 C 0.10778 0.34697 0.8636 0.0
C1337 C 0.11216 0.33381 0.80352 0.0
C1338 C 0.10879 0.34515 0.82342 0.0
C1339 C 0.08777 0.36968 0.88286 0.0
C1340 C 0.09688 0.36273 0.86247 0.0
H1341 H 0.08764 0.31138 0.76407 0.0
H1342 H 0.08463 0.33633 0.79069 0.0
H1343 H 0.12116 0.32565 0.84589 0.0
H1344 H 0.09295 0.36889 0.93904 0.0
H1345 H 0.11038 0.36396 0.9051 0.0
C1346 C 0.48197 0.35295 0.56292 0.0
C1347 C 0.49901 0.3459 0.55658 0.0
C1348 C 0.47042 0.34287 0.57669 0.0
C1349 C 0.47267 0.30741 0.61937 0.0
H1350 H 0.42 0.3066 0.6134 0.0
C1351 C 0.42726 0.2664 0.67924 0.0
C1352 C 0.41118 0.27488 0.68658 0.0
C1353 C 0.43743 0.27401 0.66198 0.0
C1354 C 0.43469 0.30684 0.61539 0.0
H1355 H 0.51697 0.32246 0.55877 0.0
H1356 H 0.49673 0.3048 0.58267 0.0
H1357 H 0.43853 0.32143 0.58496 0.0
H1358 H 0.39304 0.29788 0.68159 0.0
H1359 H 0.41098 0.31137 0.6517 0.0
H1360 H 0.46891 0.29319 0.64995 0.0
C1361 C 0.49242 0.31822 0.57727 0.0
C1362 C 0.44529 0.31529 0.59907 0.0
C1363 C 0.50395 0.32828 0.56347 0.0
C1364 C 0.40538 0.29104 0.67625 0.0
C1365 C 0.41559 0.29869 0.65902 0.0
C1366 C 0.4621 0.29902 0.63568 0.0
C1367 C 0.4757 0.32556 0.58441 0.0
C1368 C 0.46439 0.31574 0.60096 0.0
C1369 C 0.43178 0.29029 0.65175 0.0
C1370 C 0.44297 0.29872 0.63396 0.0
H1371 H 0.4778 0.36651 0.55786 0.0
H1372 H 0.45769 0.34896 0.58204 0.0
H1373 H 0.48734 0.30783 0.62153 0.0
H1374 H 0.43199 0.25386 0.68679 0.0
H1375 H 0.44968 0.26705 0.65657 0.0
C1376 C 0.29381 0.21305 0.24388 0.0
C1377 C 0.30802 0.22273 0.25405 0.0
C1378 C 0.27596 0.21947 0.24499 0.0
C1379 C 0.24922 0.26141 0.2542 0.0
H1380 H 0.20928 0.22673 0.25603 0.0
C1381 C 0.17002 0.27466 0.26237 0.0
C1382 C 0.15991 0.26561 0.24588 0.0
C1383 C 0.18895 0.2724 0.26355 0.0
C1384 C 0.22034 0.23654 0.2555 0.0
H1385 H 0.31475 0.24647 0.27387 0.0
H1386 H 0.28331 0.25751 0.27635 0.0
H1387 H 0.24046 0.21592 0.2604 0.0
H1388 H 0.16175 0.24856 0.21657 0.0
H1389 H 0.19468 0.24445 0.2189 0.0
H1390 H 0.22868 0.28205 0.24969 0.0
C1391 C 0.28605 0.24513 0.26714 0.0
C1392 C 0.23818 0.23038 0.25791 0.0
C1393 C 0.30401 0.23875 0.26587 0.0
C1394 C 0.16916 0.25558 0.22955 0.0
C1395 C 0.18797 0.25319 0.23088 0.0
C1396 C 0.23125 0.26763 0.25213 0.0
C1397 C 0.27186 0.23563 0.25651 0.0
C1398 C 0.25288 0.24265 0.25668 0.0
C1399 C 0.19786 0.26099 0.24836 0.0
C1400 C 0.21678 0.25513 0.25221 0.0
H1401 H 0.29651 0.20074 0.23449 0.0
H1402 H 0.26546 0.21199 0.23622 0.0
H1403 H 0.26024 0.27121 0.25303 0.0
H1404 H 0.16322 0.28251 0.27514 0.0
H1405 H 0.19641 0.27851 0.27716 0.0
C1406 C 0.97135 0.93463 0.5084 0.0
C1407 C 0.98246 0.91925 0.50527 0.0
C1408 C 0.97898 0.95205 0.50888 0.0
C1409 C 0.01874 0.97878 0.49174 0.0
H1410 H 0.00271 0.01176 0.53811 0.0
C1411 C 0.04772 0.05152 0.49895 0.0
C1412 C 0.03452 0.06522 0.50168 0.0
C1413 C 0.04309 0.0332 0.50207 0.0
C1414 C 0.00727 0.00274 0.52501 0.0
H1415 H 0.01016 0.90999 0.49953 0.0
H1416 H 0.02351 0.94057 0.50016 0.0
H1417 H 0.99089 0.98067 0.53697 0.0
H1418 H 0.00643 0.07067 0.51081 0.0
H1419 H -0.0017 0.0388 0.51598 0.0
H1420 H 0.03473 0.00096 0.47938 0.0
C1421 C 0.00891 0.9391 0.50227 0.0
C1422 C 0.00048 0.98496 0.52435 0.0
C1423 C 0.00128 0.92164 0.50193 0.0
C1424 C 0.01688 0.06039 0.50859 0.0
C1425 C 0.01226 0.04211 0.51167 0.0
C1426 C 0.02546 -0.0034 0.49233 0.0
C1427 C -0.00214 0.95444 0.50612 0.0
C1428 C 0.00593 0.97291 0.5075 0.0
C1429 C 0.02519 0.02828 0.50797 0.0
C1430 C 0.01957 0.00886 0.50877 0.0
H1431 H 0.95679 0.9332 0.51101 0.0
H1432 H 0.9701 0.96368 0.51149 0.0
H1433 H 0.02308 0.96979 0.47849 0.0
H1434 H 0.06145 0.05488 0.4937 0.0
H1435 H 0.05342 0.02286 0.49942 0.0
C1436 C 0.30674 0.74191 0.73486 0.0
C1437 C 0.3159 0.73115 0.75057 0.0
C1438 C 0.28771 0.74217 0.7342 0.0
C1439 C 0.24836 0.73482 0.77042 0.0
H1440 H 0.22077 0.73656 0.71563 0.0
C1441 C 0.16972 0.73278 0.76797 0.0
C1442 C 0.16105 0.74426 0.75262 0.0
C1443 C 0.18867 0.73092 0.76781 0.0
C1444 C 0.22832 0.73628 0.73105 0.0
H1445 H 0.31247 0.71159 0.77722 0.0
H1446 H 0.2792 0.7119 0.77593 0.0
H1447 H 0.25381 0.73262 0.71432 0.0
H1448 H 0.1653 0.76318 0.72546 0.0
H1449 H 0.19844 0.76014 0.72538 0.0
H1450 H 0.22293 0.73864 0.78716 0.0
C1451 C 0.28672 0.72035 0.76437 0.0
C1452 C 0.24721 0.73398 0.73029 0.0
C1453 C 0.30574 0.72008 0.76501 0.0
C1454 C 0.17165 0.7542 0.73745 0.0
C1455 C 0.19059 0.75234 0.73729 0.0
C1456 C 0.22949 0.73714 0.77118 0.0
C1457 C 0.27752 0.73167 0.74926 0.0
C1458 C 0.25741 0.73328 0.74997 0.0
C1459 C 0.19927 0.74052 0.75229 0.0
C1460 C 0.21929 0.73798 0.7515 0.0
H1461 H 0.31425 0.75059 0.72353 0.0
H1462 H 0.281 0.75113 0.72249 0.0
H1463 H 0.25592 0.73466 0.78585 0.0
H1464 H 0.16186 0.72491 0.77981 0.0
H1465 H 0.19497 0.7216 0.77945 0.0
C1466 C 0.52534 0.06543 0.01438 0.0
C1467 C 0.5137 0.07609 0.00116 0.0
C1468 C 0.52703 0.04671 0.01052 0.0
C1469 C 0.51685 0.01037 0.9695 0.0
H1470 H 0.51032 0.97989 0.02148 0.0
C1471 C 0.48499 0.93937 0.96543 0.0
C1472 C 0.49248 0.92531 0.97833 0.0
C1473 C 0.49134 0.95719 0.96758 0.0
C1474 C 0.51251 0.98817 0.00684 0.0
H1475 H 0.49534 0.07576 0.97299 0.0
H1476 H 0.4981 0.04315 0.9664 0.0
H1477 H 0.51534 0.01257 0.02597 0.0
H1478 H 0.5125 0.91876 0.00356 0.0
H1479 H 0.52349 0.95018 0.00756 0.0
H1480 H 0.51322 0.98606 0.95037 0.0
C1481 C 0.50609 0.0492 0.97959 0.0
C1482 C 0.51542 0.00688 0.0094 0.0
C1483 C 0.50439 0.06787 0.98346 0.0
C1484 C 0.50647 0.92939 0.99345 0.0
C1485 C 0.51274 0.94731 0.99574 0.0
C1486 C 0.51388 0.99169 0.96695 0.0
C1487 C 0.51715 0.03835 0.99333 0.0
C1488 C 0.51707 0.01825 0.99072 0.0
C1489 C 0.50524 0.96136 0.98277 0.0
C1490 C 0.51115 0.98052 0.98558 0.0
H1491 H 0.53274 0.07145 0.02809 0.0
H1492 H 0.53579 0.03872 0.02123 0.0
H1493 H 0.51844 0.01874 0.95482 0.0
H1494 H 0.4742 0.93663 0.95362 0.0
H1495 H 0.48508 0.9678 0.95764 0.0
C1496 C 0.18481 0.72401 0.23658 0.0
C1497 C 0.17366 0.73322 0.25183 0.0
C1498 C 0.20333 0.72828 0.23494 0.0
C1499 C 0.24116 0.75178 0.26395 0.0
H1500 H 0.2608 0.75734 0.2046 0.0
C1501 C 0.31127 0.78406 0.24947 0.0
C1502 C 0.32308 0.77378 0.23608 0.0
C1503 C 0.29265 0.78012 0.24994 0.0
C1504 C 0.25551 0.75576 0.22125 0.0
H1505 H 0.17319 0.75355 0.27794 0.0
H1506 H 0.2054 0.76113 0.27496 0.0
H1507 H 0.22943 0.74691 0.20953 0.0
H1508 H 0.3246 0.75221 0.21153 0.0
H1509 H 0.29204 0.74539 0.21228 0.0
H1510 H 0.26719 0.76075 0.27565 0.0
C1511 C 0.19996 0.7505 0.26439 0.0
C1512 C 0.2376 0.74968 0.2241 0.0
C1513 C 0.18148 0.74619 0.26607 0.0
C1514 C 0.31579 0.76034 0.22204 0.0
C1515 C 0.29715 0.75645 0.22244 0.0
C1516 C 0.25901 0.75794 0.26109 0.0
C1517 C 0.21101 0.74187 0.2485 0.0
C1518 C 0.23023 0.74764 0.24549 0.0
C1519 C 0.28552 0.7659 0.23694 0.0
C1520 C 0.26634 0.76002 0.23972 0.0
H1521 H 0.17913 0.71391 0.22543 0.0
H1522 H 0.21158 0.72116 0.22281 0.0
H1523 H 0.23598 0.7501 0.28064 0.0
H1524 H 0.31651 0.79454 0.26041 0.0
H1525 H 0.2839 0.78782 0.26098 0.0
C1526 C 0.51958 0.92076 0.50808 0.0
C1527 C 0.53448 0.91693 0.49422 0.0
C1528 C 0.51432 0.93876 0.51198 0.0
C1529 C 0.51619 0.98364 0.48561 0.0
H1530 H 0.49734 0.00041 0.5421 0.0
C1531 C 0.49146 0.05755 0.50038 0.0
C1532 C 0.47528 0.05949 0.51262 0.0
C1533 C 0.49983 0.04051 0.4985 0.0
C1534 C 0.50244 -0.00415 0.52619 0.0
H1535 H 0.55614 0.92886 0.47446 0.0
H1536 H 0.54704 0.96037 0.48147 0.0
H1537 H 0.51093 0.97011 0.53936 0.0
H1538 H 0.45492 0.04517 0.53207 0.0
H1539 H 0.46941 0.01538 0.52855 0.0
H1540 H 0.50747 0.00928 0.47238 0.0
C1541 C 0.53926 0.94944 0.48902 0.0
C1542 C 0.51026 0.97855 0.52464 0.0
C1543 C 0.54454 0.93143 0.48513 0.0
C1544 C 0.46742 0.04407 0.52257 0.0
C1545 C 0.47579 0.02705 0.52072 0.0
C1546 C 0.50839 0.00096 0.48717 0.0
C1547 C 0.52387 0.95327 0.5021 0.0
C1548 C 0.51701 0.97218 0.50427 0.0
C1549 C 0.49217 0.02514 0.50886 0.0
C1550 C 0.50123 0.00713 0.50741 0.0
H1551 H 0.51158 0.90984 0.5153 0.0
H1552 H 0.50229 0.94126 0.52196 0.0
H1553 H 0.52102 0.979 0.46961 0.0
H1554 H 0.49785 0.06924 0.4926 0.0
H1555 H 0.51251 0.03945 0.48936 0.0
C1556 C 0.18016 0.25496 0.72318 0.0
C1557 C 0.17064 0.24464 0.73901 0.0
C1558 C 0.19917 0.2559 0.72378 0.0
C1559 C 0.2404 0.234 0.74658 0.0
H1560 H 0.26103 0.28256 0.74121 0.0
C1561 C 0.31624 0.24781 0.7641 0.0
C1562 C 0.32535 0.25851 0.74828 0.0
C1563 C 0.29722 0.24675 0.76409 0.0
C1564 C 0.25549 0.2689 0.74257 0.0
H1565 H 0.17349 0.22648 0.76719 0.0
H1566 H 0.20671 0.22812 0.76825 0.0
H1567 H 0.2282 0.27828 0.73738 0.0
H1568 H 0.32176 0.27715 0.7207 0.0
H1569 H 0.28859 0.27524 0.72058 0.0
H1570 H 0.2677 0.2246 0.75167 0.0
C1571 C 0.19951 0.23545 0.75534 0.0
C1572 C 0.23671 0.26643 0.7403 0.0
C1573 C 0.18049 0.23454 0.75477 0.0
C1574 C 0.31509 0.26881 0.73312 0.0
C1575 C 0.29609 0.26775 0.73309 0.0
C1576 C 0.2592 0.23646 0.74882 0.0
C1577 C 0.209 0.2465 0.7402 0.0
C1578 C 0.22898 0.24895 0.74221 0.0
C1579 C 0.28697 0.25639 0.74825 0.0
C1580 C 0.26694 0.25393 0.74679 0.0
H1581 H 0.17292 0.26283 0.71079 0.0
H1582 H 0.20616 0.26425 0.71164 0.0
H1583 H 0.23484 0.22035 0.74794 0.0
H1584 H 0.32381 0.23976 0.77603 0.0
H1585 H 0.29055 0.23814 0.77622 0.0
C1586 C 0.98155 0.05943 0.97072 0.0
C1587 C 0.99087 0.07475 0.97885 0.0
C1588 C 0.98936 0.04214 0.97216 0.0
C1589 C 0.02326 0.0155 0.00297 0.0
H1590 H 0.01715 0.9817 0.95404 0.0
C1591 C 0.04949 0.94124 0.00677 0.0
C1592 C 0.03622 0.92824 0.00108 0.0
C1593 C 0.04669 0.9597 0.00198 0.0
C1594 C 0.01897 0.991 0.96782 0.0
H1595 H 0.01562 0.08407 0.99497 0.0
H1596 H 0.02935 0.05372 -0.00255 0.0
H1597 H 0.00692 0.01319 0.95008 0.0
H1598 H 0.01 0.92412 0.9852 0.0
H1599 H 0.00513 0.95622 0.9768 0.0
H1600 H 0.03495 0.99315 0.02086 0.0
C1601 C 0.01594 0.05511 0.99008 0.0
C1602 C 0.01308 0.00899 0.96559 0.0
C1603 C 0.00811 0.07246 0.98863 0.0
C1604 C 0.02045 0.93386 0.98981 0.0
C1605 C 0.01772 0.95223 0.98487 0.0
C1606 C 0.0292 -0.00251 0.00518 0.0
C1607 C 0.00668 0.03979 0.98174 0.0
C1608 C 0.01474 0.02131 0.98333 0.0
C1609 C 0.03066 0.96537 0.99122 0.0
C1610 C 0.02671 0.98496 0.98781 0.0
H1611 H 0.96821 0.06079 0.96315 0.0
H1612 H 0.98172 0.03055 0.96598 0.0
H1613 H 0.0246 0.02464 0.01698 0.0
H1614 H 0.06179 0.93725 0.01548 0.0
H1615 H 0.05693 0.96955 0.00691 0.0
C1616 C 0.81715 0.75084 0.76087 0.0
C1617 C 0.82683 0.74066 0.74506 0.0
C1618 C 0.79811 0.7507 0.76097 0.0
C1619 C 0.75785 0.72543 0.74121 0.0
H1620 H 0.73398 0.77257 0.745 0.0
C1621 C 0.68101 0.73361 0.72494 0.0
C1622 C 0.67138 0.74464 0.73994 0.0
C1623 C 0.70005 0.73353 0.72496 0.0
C1624 C 0.74043 0.75929 0.74414 0.0
H1625 H 0.8243 0.72179 0.71753 0.0
H1626 H 0.79103 0.72154 0.71773 0.0
H1627 H 0.76712 0.77074 0.74766 0.0
H1628 H 0.67401 0.76463 0.76624 0.0
H1629 H 0.70724 0.76436 0.76644 0.0
H1630 H 0.73118 0.71396 0.73781 0.0
C1631 C 0.79814 0.72958 0.73008 0.0
C1632 C 0.75939 0.75824 0.74571 0.0
C1633 C 0.81717 0.72977 0.72992 0.0
C1634 C 0.68109 0.75602 0.75445 0.0
C1635 C 0.70013 0.75591 0.75451 0.0
C1636 C 0.73888 0.72647 0.73972 0.0
C1637 C 0.78843 0.74032 0.74532 0.0
C1638 C 0.76828 0.7413 0.74426 0.0
C1639 C 0.7098 0.74445 0.74001 0.0
C1640 C 0.72997 0.74342 0.74114 0.0
H1641 H 0.82425 0.75932 0.77277 0.0
H1642 H 0.79095 0.7589 0.77312 0.0
H1643 H 0.76435 0.71218 0.74026 0.0
H1644 H 0.67385 0.72474 0.71351 0.0
H1645 H 0.70714 0.72479 0.71332 0.0
C1646 C 0.67612 0.24263 0.26394 0.0
C1647 C 0.67325 0.25718 0.24916 0.0
C1648 C 0.69283 0.23343 0.26422 0.0
C1649 C 0.73196 0.22306 0.22893 0.0
H1650 H 0.75971 0.21829 0.28332 0.0
C1651 C 0.8094 0.21674 0.22992 0.0
C1652 C 0.81814 0.20738 0.2472 0.0
C1653 C 0.79046 0.2182 0.22952 0.0
C1654 C 0.75198 0.21906 0.26805 0.0
H1655 H 0.68558 0.27368 0.22333 0.0
H1656 H 0.71465 0.25753 0.22372 0.0
H1657 H 0.72868 0.23031 0.28461 0.0
H1658 H 0.81395 0.19114 0.27682 0.0
H1659 H 0.78067 0.19349 0.27595 0.0
H1660 H 0.75524 0.21212 0.21225 0.0
C1661 C 0.70398 0.2532 0.23499 0.0
C1662 C 0.73426 0.22604 0.26882 0.0
C1663 C 0.68742 0.26253 0.23492 0.0
C1664 C 0.80754 0.19852 0.26335 0.0
C1665 C 0.78852 0.19997 0.26293 0.0
C1666 C 0.74958 0.21592 0.22817 0.0
C1667 C 0.70677 0.23847 0.24948 0.0
C1668 C 0.72436 0.22866 0.24917 0.0
C1669 C 0.77982 0.21028 0.24635 0.0
C1670 C 0.76003 0.21445 0.24762 0.0
H1671 H 0.66539 0.23822 0.27507 0.0
H1672 H 0.69473 0.22214 0.27557 0.0
H1673 H 0.72443 0.22467 0.2136 0.0
H1674 H 0.81723 0.22368 0.21723 0.0
H1675 H 0.78427 0.22644 0.21665 0.0
C1676 C 0.66908 0.24332 0.77459 0.0
C1677 C 0.66142 0.23101 0.75937 0.0
C1678 C 0.6879 0.24626 0.77498 0.0
C1679 C 0.72698 0.24431 0.73758 0.0
H1680 H 0.75565 0.25132 0.79091 0.0
C1681 C 0.80515 0.25145 0.73641 0.0
C1682 C 0.81325 0.26361 0.75146 0.0
C1683 C 0.78645 0.24806 0.73722 0.0
C1684 C 0.74775 0.24966 0.77587 0.0
H1685 H 0.66746 0.21124 0.73364 0.0
H1686 H 0.70035 0.21625 0.73449 0.0
H1687 H 0.72358 0.24265 0.79394 0.0
H1688 H 0.80809 0.28236 0.77853 0.0
H1689 H 0.77526 0.27668 0.7797 0.0
H1690 H 0.75103 0.25145 0.71949 0.0
C1691 C 0.69178 0.22385 0.74583 0.0
C1692 C 0.72944 0.2446 0.77762 0.0
C1693 C 0.67298 0.22088 0.74548 0.0
C1694 C 0.80219 0.27289 0.76676 0.0
C1695 C 0.78345 0.26951 0.76756 0.0
C1696 C 0.74525 0.24942 0.73583 0.0
C1697 C 0.69935 0.23695 0.76013 0.0
C1698 C 0.71891 0.2418 0.75848 0.0
C1699 C 0.77545 0.2568 0.75307 0.0
C1700 C 0.75585 0.2521 0.75495 0.0
H1701 H 0.66048 0.25131 0.7855 0.0
H1702 H 0.69335 0.25648 0.78613 0.0
H1703 H 0.71909 0.24263 0.72254 0.0
H1704 H 0.81335 0.24406 0.72447 0.0
H1705 H 0.78073 0.23807 0.72596 0.0
C1706 C 0.81403 0.76573 0.23617 0.0
C1707 C 0.82621 0.75722 0.25086 0.0
C1708 C 0.79552 0.76139 0.23668 0.0
C1709 C 0.7591 0.74026 0.26976 0.0
H1710 H 0.73874 0.72829 0.2122 0.0
C1711 C 0.68657 0.71141 0.26132 0.0
C1712 C 0.67576 0.72003 0.24521 0.0
C1713 C 0.70544 0.71403 0.26155 0.0
C1714 C 0.74419 0.73169 0.22837 0.0
H1715 H 0.82848 0.73853 0.27861 0.0
H1716 H 0.79603 0.73105 0.27959 0.0
H1717 H 0.77025 0.73869 0.21489 0.0
H1718 H 0.67623 0.73723 0.21595 0.0
H1719 H 0.70904 0.74194 0.21645 0.0
H1720 H 0.73296 0.73357 0.28322 0.0
C1721 C 0.80082 0.74099 0.26764 0.0
C1722 C 0.76219 0.7377 0.2299 0.0
C1723 C 0.81938 0.74526 0.26706 0.0
C1724 C 0.68423 0.73041 0.22857 0.0
C1725 C 0.70305 0.73306 0.22882 0.0
C1726 C 0.74105 0.73434 0.26822 0.0
C1727 C 0.78885 0.74856 0.25197 0.0
C1728 C 0.76975 0.74221 0.25057 0.0
C1729 C 0.71379 0.72532 0.24567 0.0
C1730 C 0.73336 0.73014 0.24748 0.0
H1731 H 0.81892 0.77506 0.22356 0.0
H1732 H 0.78648 0.76767 0.22469 0.0
H1733 H 0.76461 0.74371 0.28589 0.0
H1734 H 0.68038 0.70328 0.2743 0.0
H1735 H 0.71342 0.70763 0.2745 0.0
C1736 C 0.46352 0.42287 0.00761 0.0
C1737 C 0.47716 0.41147 -0.00109 0.0
C1738 C 0.46469 0.44178 0.00504 0.0
C1739 C 0.48847 0.47786 0.97308 0.0
H1740 H 0.48094 0.50718 0.02584 0.0
C1741 C 0.52037 0.54837 0.98313 0.0
C1742 C 0.50922 0.56257 0.9909 0.0
C1743 C 0.51424 0.53039 0.98364 0.0
C1744 C 0.48282 0.49919 0.01091 0.0
H1745 H 0.50238 0.41077 0.98014 0.0
H1746 H 0.50455 0.44368 0.97586 0.0
H1747 H 0.4736 0.47466 0.02654 0.0
H1748 H 0.48315 0.56911 0.00592 0.0
H1749 H 0.47248 0.53741 0.00711 0.0
H1750 H 0.4983 0.50225 0.95772 0.0
C1751 C 0.49282 0.43809 0.98442 0.0
C1752 C 0.47858 0.4806 0.01126 0.0
C1753 C 0.49165 0.41923 0.98699 0.0
C1754 C 0.49201 0.5584 -0.00017 0.0
C1755 C 0.48592 0.54031 0.00052 0.0
C1756 C 0.4928 0.49637 0.97278 0.0
C1757 C 0.4795 0.4496 0.99368 0.0
C1758 C 0.48177 0.46967 0.9925 0.0
C1759 C 0.49688 0.52621 0.99207 0.0
C1760 C 0.49042 0.50711 0.99184 0.0
H1761 H 0.45216 0.41722 0.01683 0.0
H1762 H 0.45412 0.45029 0.01214 0.0
H1763 H 0.49072 0.46987 0.95822 0.0
H1764 H 0.53372 0.55115 0.9762 0.0
H1765 H 0.52309 0.51973 0.97741 0.0
C1766 C 0.9711 0.4221 0.48963 0.0
C1767 C 0.9531 0.41953 0.48227 0.0
C1768 C 0.97799 0.43967 0.49268 0.0
C1769 C 0.96425 0.4874 0.50117 0.0
H1770 H 0.01229 0.49839 0.47766 0.0
C1771 C 0.99115 0.56086 0.49678 0.0
C1772 C 0.00933 0.56374 0.50322 0.0
C1773 C 0.98456 0.54321 0.49358 0.0
C1774 C -0.00105 0.49548 0.48452 0.0
H1775 H 0.92807 0.43322 0.47277 0.0
H1776 H 0.94013 0.46396 0.47812 0.0
H1777 H 9e-05 0.46753 0.47436 0.0
H1778 H 0.03502 0.5505 0.51086 0.0
H1779 H 0.02345 0.51957 0.50554 0.0
H1780 H 0.96311 0.51527 0.51147 0.0
C1781 C 0.94887 0.45239 0.48163 0.0
C1782 C 0.99197 0.47783 0.48264 0.0
C1783 C 0.94199 0.43482 0.4785 0.0
C1784 C 0.02095 0.54866 0.50583 0.0
C1785 C 0.01434 0.53097 0.50271 0.0
C1786 C 0.97125 0.50503 0.50312 0.0
C1787 C 0.967 0.45499 0.48851 0.0
C1788 C 0.97453 0.47363 0.4909 0.0
C1789 C -0.00401 0.52805 0.49685 0.0
C1790 C 0.98864 0.50929 0.49474 0.0
H1791 H 0.97996 0.41055 0.49269 0.0
H1792 H 0.99194 0.44127 0.49828 0.0
H1793 H 0.95088 0.48449 0.50795 0.0
H1794 H 0.98191 0.57225 0.49451 0.0
H1795 H 0.97046 0.54142 0.48864 0.0
C1796 C 0.04004 0.44011 0.99565 0.0
C1797 C 0.0262 0.42707 -0.00142 0.0
C1798 C 0.03626 0.45866 -0.00168 0.0
C1799 C 0.00235 0.49105 0.02104 0.0
H1800 H 0.01842 0.52239 0.97301 0.0
C1801 C 0.96951 0.56065 0.00511 0.0
C1802 C 0.9812 0.57538 0.00069 0.0
C1803 C 0.97623 0.54287 0.00541 0.0
C1804 C 0.01404 0.51387 0.98668 0.0
H1805 H -0.00215 0.42304 0.00764 0.0
H1806 H 0.99124 0.45535 0.01223 0.0
H1807 H 0.02866 0.49073 0.97439 0.0
H1808 H 0.00895 0.58308 0.99239 0.0
H1809 H 0.02073 0.55188 0.99288 0.0
H1810 H 0.98745 0.51408 0.03311 0.0
C1811 C 0.00502 0.45131 0.008 0.0
C1812 C 0.01994 0.49577 0.98752 0.0
C1813 C 0.00878 0.4328 0.00527 0.0
C1814 C -0.00038 0.57195 0.9958 0.0
C1815 C 0.00636 0.55412 0.99606 0.0
C1816 C -0.00356 0.50912 0.02019 0.0
C1817 C 0.0186 0.46445 0.00407 0.0
C1818 C 0.01392 0.4841 0.00452 0.0
C1819 C 0.99478 0.53945 0.00128 0.0
C1820 C 0.00197 0.52062 0.00279 0.0
H1821 H 0.05361 0.43605 0.99054 0.0
H1822 H 0.04704 0.46849 0.99547 0.0
H1823 H -0.00229 0.48245 0.03452 0.0
H1824 H 0.95523 0.56288 0.00886 0.0
H1825 H 0.96691 0.53178 0.00903 0.0
C1826 C 0.52946 0.44738 0.52263 0.0
C1827 C 0.51954 0.43248 0.51434 0.0
C1828 C 0.5228 0.46509 0.52023 0.0
C1829 C 0.48031 0.49066 0.51101 0.0
H1830 H 0.51319 0.53008 0.49537 0.0
C1831 C 0.45568 0.56271 0.48639 0.0
C1832 C 0.46587 0.57759 0.49421 0.0
C1833 C 0.46178 0.5449 0.48991 0.0
C1834 C 0.50389 0.51926 0.50003 0.0
H1835 H 0.49505 0.42437 0.49676 0.0
H1836 H 0.48349 0.4554 0.4923 0.0
H1837 H 0.52494 0.49911 0.49859 0.0
H1838 H 0.49008 0.58561 0.51244 0.0
H1839 H 0.50065 0.55448 0.51877 0.0
H1840 H 0.45923 0.51085 0.51233 0.0
C1841 C 0.49629 0.45335 0.50094 0.0
C1842 C 0.51061 0.50152 0.50183 0.0
C1843 C 0.50295 0.43561 0.50335 0.0
C1844 C 0.48199 0.57437 0.50615 0.0
C1845 C 0.4881 0.55658 0.50965 0.0
C1846 C 0.47357 0.50841 0.50918 0.0
C1847 C 0.5061 0.46825 0.50947 0.0
C1848 C 0.4989 0.48704 0.50734 0.0
C1849 C 0.47819 0.54168 0.50128 0.0
C1850 C 0.48531 0.52288 0.50369 0.0
H1851 H 0.54226 0.44534 0.53126 0.0
H1852 H 0.53057 0.47628 0.5272 0.0
H1853 H 0.47101 0.47981 0.51561 0.0
H1854 H 0.4432 0.56481 0.47711 0.0
H1855 H 0.45393 0.53369 0.48311 0.0
C1856 C 0.06274 0.33814 0.0399 0.0
C1857 C 0.04476 0.34186 0.0333 0.0
C1858 C 0.06614 0.3279 0.059 0.0
C1859 C 0.04488 0.31505 0.11187 0.0
H1860 H 0.08467 0.28026 0.11492 0.0
C1861 C 0.07595 0.29102 0.19414 0.0
C1862 C 0.08118 0.27267 0.19622 0.0
C1863 C 0.06979 0.29778 0.17388 0.0
C1864 C 0.07336 0.28976 0.11425 0.0
H1865 H 0.01621 0.33747 0.04116 0.0
H1866 H 0.02213 0.31949 0.07439 0.0
H1867 H 0.07737 0.29489 0.07965 0.0
H1868 H 0.08368 0.24687 0.17893 0.0
H1869 H 0.07285 0.25874 0.14334 0.0
H1870 H 0.0409 0.30999 0.14646 0.0
C1871 C 0.03361 0.32468 0.065 0.0
C1872 C 0.06932 0.29829 0.09413 0.0
C1873 C 0.03023 0.33492 0.04593 0.0
C1874 C 0.07974 0.26108 0.17777 0.0
C1875 C 0.07365 0.26789 0.1574 0.0
C1876 C 0.04894 0.30656 0.13198 0.0
C1877 C 0.0516 0.32119 0.07185 0.0
C1878 C 0.05519 0.31121 0.0928 0.0
C1879 C 0.06877 0.28636 0.15523 0.0
C1880 C 0.06339 0.29403 0.13346 0.0
H1881 H 0.0742 0.34334 0.03047 0.0
H1882 H 0.08015 0.32564 0.06399 0.0
H1883 H 0.034 0.32505 0.11145 0.0
H1884 H 0.07693 0.30028 0.20808 0.0
H1885 H 0.06636 0.31212 0.17268 0.0
C1886 C 0.9044 0.79622 0.29667 0.0
C1887 C 0.90667 0.77763 0.29176 0.0
C1888 C 0.91179 0.80363 0.31594 0.0
C1889 C 0.92764 0.79083 0.3717 0.0
H1890 H 0.94616 0.84043 0.37181 0.0
C1891 C 0.95752 0.82557 0.44985 0.0
C1892 C 0.95072 0.84312 0.4543 0.0
C1893 C 0.95385 0.81708 0.42961 0.0
C1894 C 0.94097 0.82659 0.37201 0.0
H1895 H 0.91875 0.75226 0.30293 0.0
H1896 H 0.932 0.76531 0.33663 0.0
H1897 H 0.93736 0.82622 0.33687 0.0
H1898 H 0.93497 0.86565 0.44105 0.0
H1899 H 0.92867 0.85087 0.40558 0.0
H1900 H 0.93127 0.7913 0.40693 0.0
C1901 C 0.92424 0.77409 0.32568 0.0
C1902 C 0.9359 0.81845 0.35204 0.0
C1903 C 0.91675 0.76663 0.30636 0.0
C1904 C 0.94037 0.85211 0.43806 0.0
C1905 C 0.93687 0.84371 0.41773 0.0
C1906 C 0.93286 0.79894 0.39167 0.0
C1907 C 0.92175 0.79267 0.33074 0.0
C1908 C 0.92884 0.8006 0.35168 0.0
C1909 C 0.9435 0.82608 0.41336 0.0
C1910 C 0.93926 0.81701 0.39205 0.0
H1911 H 0.89663 0.80504 0.28578 0.0
H1912 H 0.9093 0.8179 0.31949 0.0
H1913 H 0.92205 0.77716 0.37206 0.0
H1914 H 0.96555 0.81832 0.46209 0.0
H1915 H 0.95922 0.80354 0.42659 0.0
C1916 C 0.40175 0.7286 0.68595 0.0
C1917 C 0.3927 0.71736 0.70126 0.0
C1918 C 0.40784 0.72148 0.66576 0.0
C1919 C 0.41768 0.67752 0.63742 0.0
H1920 H 0.41217 0.70631 0.58389 0.0
C1921 C 0.42321 0.64646 0.55005 0.0
C1922 C 0.43439 0.65582 0.53496 0.0
C1923 C 0.4186 0.65442 0.57032 0.0
C1924 C 0.41391 0.69819 0.59875 0.0
H1925 H 0.38287 0.68992 0.7075 0.0
H1926 H 0.39301 0.67764 0.67222 0.0
H1927 H 0.40362 0.71943 0.61961 0.0
H1928 H 0.44922 0.68095 0.52894 0.0
H1929 H 0.44092 0.69497 0.5643 0.0
H1930 H 0.42752 0.65615 0.61641 0.0
C1931 C 0.39585 0.69183 0.67589 0.0
C1932 C 0.40911 0.70571 0.61921 0.0
C1933 C 0.38991 0.69889 0.69608 0.0
C1934 C 0.44059 0.67343 0.54029 0.0
C1935 C 0.4358 0.68147 0.56045 0.0
C1936 C 0.42229 0.66996 0.61695 0.0
C1937 C 0.40488 0.70301 0.66045 0.0
C1938 C 0.41081 0.69541 0.63879 0.0
C1939 C 0.42491 0.67196 0.57573 0.0
C1940 C 0.42034 0.68018 0.59742 0.0
H1941 H 0.40412 0.74288 0.68957 0.0
H1942 H 0.41496 0.73042 0.65437 0.0
H1943 H 0.41954 0.66933 0.65219 0.0
H1944 H 0.41825 0.63287 0.54636 0.0
H1945 H 0.41003 0.64688 0.58173 0.0
C1946 C 0.56496 0.2244 0.81121 0.0
C1947 C 0.58019 0.21534 0.80239 0.0
C1948 C 0.55616 0.21755 0.83005 0.0
C1949 C 0.55239 0.17519 0.86387 0.0
H1950 H 0.53341 0.20788 0.90885 0.0
C1951 C 0.53739 0.1528 0.95307 0.0
C1952 C 0.51974 0.15639 0.96098 0.0
C1953 C 0.54335 0.16044 0.93319 0.0
C1954 C 0.53851 0.19865 0.89628 0.0
H1955 H 0.59852 0.19239 0.80657 0.0
H1956 H 0.58376 0.18089 0.83976 0.0
H1957 H 0.5468 0.22051 0.87502 0.0
H1958 H 0.49461 0.1711 0.95471 0.0
H1959 H 0.50534 0.18498 0.92 0.0
H1960 H 0.54484 0.15341 0.88568 0.0
C1961 C 0.57809 0.19287 0.83184 0.0
C1962 C 0.54611 0.20583 0.87687 0.0
C1963 C 0.58667 0.19954 0.81289 0.0
C1964 C 0.50827 0.16809 0.9489 0.0
C1965 C 0.51439 0.17605 0.92916 0.0
C1966 C 0.5451 0.16807 0.88338 0.0
C1967 C 0.5626 0.20165 0.84055 0.0
C1968 C 0.55339 0.19417 0.86056 0.0
C1969 C 0.5319 0.17208 0.92106 0.0
C1970 C 0.53831 0.17974 0.89983 0.0
H1971 H 0.55966 0.23658 0.80334 0.0
H1972 H 0.54417 0.22457 0.83614 0.0
H1973 H 0.55737 0.16576 0.85145 0.0
H1974 H 0.54651 0.1438 0.96203 0.0
H1975 H 0.55696 0.15732 0.92731 0.0
C1976 C 0.06624 0.64246 0.46108 0.0
C1977 C 0.04763 0.63816 0.46292 0.0
C1978 C 0.07298 0.65071 0.44185 0.0
C1979 C 0.0629 0.65713 0.38271 0.0
H1980 H 0.09551 0.69866 0.38728 0.0
C1981 C 0.09973 0.68765 0.30695 0.0
C1982 C 0.0996 0.70675 0.30502 0.0
C1983 C 0.09372 0.67924 0.32638 0.0
C1984 C 0.08635 0.68713 0.38578 0.0
H1985 H 0.02149 0.63895 0.44609 0.0
H1986 H 0.03327 0.65325 0.41252 0.0
H1987 H 0.08437 0.68382 0.42098 0.0
H1988 H 0.09325 0.73206 0.32192 0.0
H1989 H 0.08276 0.71732 0.35602 0.0
H1990 H 0.06473 0.6605 0.34755 0.0
C1991 C 0.04266 0.65019 0.42587 0.0
C1992 C 0.08013 0.67853 0.40503 0.0
C1993 C 0.03591 0.64208 0.44513 0.0
C1994 C 0.09348 0.71731 0.32296 0.0
C1995 C 0.08759 0.70889 0.3425 0.0
C1996 C 0.06922 0.66563 0.36348 0.0
C1997 C 0.06124 0.65466 0.42406 0.0
C1998 C 0.06827 0.6635 0.40368 0.0
C1999 C 0.08757 0.68976 0.34434 0.0
C2000 C 0.08096 0.68074 0.36481 0.0
H2001 H 0.07558 0.63958 0.47455 0.0
H2002 H 0.0874 0.65385 0.44081 0.0
H2003 H 0.05388 0.64548 0.38117 0.0
H2004 H 0.10441 0.67916 0.2934 0.0
H2005 H 0.09405 0.66449 0.32742 0.0
C2006 C 0.59953 0.77882 0.68459 0.0
C2007 C 0.59706 0.76008 0.68836 0.0
C2008 C 0.59364 0.78679 0.66488 0.0
C2009 C 0.58143 0.77638 0.607 0.0
H2010 H 0.56058 0.82499 0.60935 0.0
C2011 C 0.5524 0.81464 0.53022 0.0
C2012 C 0.55786 0.83295 0.52817 0.0
C2013 C 0.55641 0.8048 0.54948 0.0
C2014 C 0.56647 0.81145 0.60843 0.0
H2015 H 0.5865 0.73494 0.67449 0.0
H2016 H 0.57591 0.74897 0.63995 0.0
H2017 H 0.5684 0.80934 0.64366 0.0
H2018 H 0.57193 0.85526 0.54446 0.0
H2019 H 0.57884 0.83812 0.57806 0.0
H2020 H 0.57941 0.7786 0.57164 0.0
C2021 C 0.58261 0.75744 0.6522 0.0
C2022 C 0.57098 0.80249 0.62807 0.0
C2023 C 0.58859 0.74942 0.67198 0.0
C2024 C 0.56752 0.84118 0.54559 0.0
C2025 C 0.57138 0.83141 0.56487 0.0
C2026 C 0.5768 0.78533 0.58731 0.0
C2027 C 0.58503 0.77624 0.64848 0.0
C2028 C 0.57884 0.785 0.62759 0.0
C2029 C 0.56577 0.81317 0.56708 0.0
C2030 C 0.56958 0.80308 0.58785 0.0
H2031 H 0.60613 0.78738 0.69683 0.0
H2032 H 0.59608 0.80122 0.66239 0.0
H2033 H 0.5876 0.76297 0.60605 0.0
H2034 H 0.54494 0.80796 0.51702 0.0
H2035 H 0.55187 0.79078 0.5508 0.0
C2036 C 0.4028 0.28839 0.80233 0.0
C2037 C 0.40611 0.27044 0.79533 0.0
C2038 C 0.41122 0.29523 0.82131 0.0
C2039 C 0.43448 0.28103 0.8729 0.0
H2040 H 0.4488 0.33199 0.87396 0.0
C2041 C 0.47156 0.31547 0.94717 0.0
C2042 C 0.46337 0.33176 0.95437 0.0
C2043 C 0.46608 0.30734 0.92727 0.0
C2044 C 0.44485 0.31774 0.87388 0.0
H2045 H 0.42087 0.24553 0.8026 0.0
H2046 H 0.43599 0.25762 0.83562 0.0
H2047 H 0.43677 0.3188 0.83991 0.0
H2048 H 0.44326 0.35244 0.94639 0.0
H2049 H 0.43394 0.33841 0.91153 0.0
H2050 H 0.44275 0.28009 0.90699 0.0
C2051 C 0.42661 0.26632 0.82664 0.0
C2052 C 0.43787 0.31019 0.85443 0.0
C2053 C 0.41803 0.25942 0.80769 0.0
C2054 C 0.4498 0.33988 0.94125 0.0
C2055 C 0.44453 0.33192 0.92126 0.0
C2056 C 0.44167 0.28856 0.89233 0.0
C2057 C 0.42333 0.28435 0.83363 0.0
C2058 C 0.43223 0.29185 0.85382 0.0
C2059 C 0.45257 0.31555 0.91411 0.0
C2060 C 0.44656 0.30708 0.89309 0.0
H2061 H 0.39356 0.29717 0.79323 0.0
H2062 H 0.40802 0.30902 0.82645 0.0
H2063 H 0.43012 0.26691 0.8731 0.0
H2064 H 0.48204 0.30892 0.95701 0.0
H2065 H 0.47252 0.29475 0.92205 0.0
C2066 C 0.90727 0.20869 0.18422 0.0
C2067 C 0.89702 0.19693 0.19774 0.0
C2068 C 0.91457 0.20246 0.16421 0.0
C2069 C 0.92613 0.15997 0.13385 0.0
H2070 H 0.92482 0.1916 0.08233 0.0
C2071 C 0.93974 0.13416 0.04498 0.0
C2072 C 0.95111 0.14501 0.03165 0.0
C2073 C 0.93373 0.14055 0.06554 0.0
C2074 C 0.92543 0.18269 0.09664 0.0
H2075 H 0.88632 0.16948 0.20096 0.0
H2076 H 0.89869 0.1587 0.16589 0.0
H2077 H 0.91327 0.20271 0.11775 0.0
H2078 H 0.96509 0.17102 0.02928 0.0
H2079 H 0.95449 0.18222 0.06516 0.0
H2080 H 0.938 0.13984 0.11255 0.0
C2081 C 0.90144 0.17262 0.17088 0.0
C2082 C 0.91887 0.18906 0.11694 0.0
C2083 C 0.89425 0.17883 0.19092 0.0
C2084 C 0.95634 0.16236 0.03922 0.0
C2085 C 0.9502 0.16881 0.05969 0.0
C2086 C 0.93257 0.15357 0.11351 0.0
C2087 C 0.91168 0.18436 0.15726 0.0
C2088 C 0.91909 0.17776 0.13579 0.0
C2089 C 0.93885 0.15797 0.07305 0.0
C2090 C 0.93225 0.16485 0.09469 0.0
H2091 H 0.90968 0.22271 0.18912 0.0
H2092 H 0.92261 0.21178 0.15427 0.0
H2093 H 0.92681 0.15102 0.14811 0.0
H2094 H 0.93549 0.12073 0.03955 0.0
H2095 H 0.92484 0.13198 0.0754 0.0
C2096 C 0.94112 0.64554 0.93601 0.0
C2097 C 0.94971 0.65494 0.9534 0.0
C2098 C 0.93664 0.65461 0.91639 0.0
C2099 C 0.9266 0.6999 0.89403 0.0
H2100 H 0.93727 0.67751 0.83726 0.0
C2101 C 0.91199 0.7367 0.81111 0.0
C2102 C 0.90475 0.72594 0.79399 0.0
C2103 C 0.91869 0.72854 0.83043 0.0
C2104 C 0.93401 0.68387 0.85297 0.0
H2105 H 0.96029 0.68116 0.96399 0.0
H2106 H 0.95228 0.69705 0.92973 0.0
H2107 H 0.94632 0.66212 0.87136 0.0
H2108 H 0.89881 0.69824 0.7836 0.0
H2109 H 0.91004 0.68406 0.81735 0.0
H2110 H 0.91387 0.72142 0.87575 0.0
C2111 C 0.94903 0.68269 0.93131 0.0
C2112 C 0.93924 0.67506 0.87248 0.0
C2113 C 0.95368 0.67358 0.95084 0.0
C2114 C 0.90441 0.70689 0.79647 0.0
C2115 C 0.91097 0.69875 0.81578 0.0
C2116 C 0.92122 0.70865 0.87451 0.0
C2117 C 0.9405 0.67328 0.91388 0.0
C2118 C 0.93547 0.68293 0.89319 0.0
C2119 C 0.91818 0.70945 0.83302 0.0
C2120 C 0.92473 0.70066 0.85375 0.0
H2121 H 0.9379 0.63117 0.93754 0.0
H2122 H 0.9299 0.64707 0.90329 0.0
H2123 H 0.92337 0.70618 0.9098 0.0
H2124 H 0.91248 0.75142 0.80959 0.0
H2125 H 0.92436 0.73717 0.84326 0.0
C2126 C 0.09119 0.24092 0.66983 0.0
C2127 C 0.092 0.23084 0.68961 0.0
C2128 C 0.08518 0.23267 0.65023 0.0
C2129 C 0.0594 0.19309 0.62887 0.0
H2130 H 0.08932 0.19907 0.57634 0.0
C2131 C 0.04088 0.15966 0.54528 0.0
C2132 C 0.05524 0.15095 0.53406 0.0
C2133 C 0.04442 0.17083 0.56352 0.0
C2134 C 0.08085 0.19726 0.59089 0.0
H2135 H 0.08669 0.20445 0.70459 0.0
H2136 H 0.07621 0.19014 0.67051 0.0
H2137 H 0.09664 0.21624 0.60988 0.0
H2138 H 0.08457 0.14722 0.53295 0.0
H2139 H 0.09077 0.16667 0.56493 0.0
H2140 H 0.04393 0.17374 0.61014 0.0
C2141 C 0.08011 0.20439 0.6701 0.0
C2142 C 0.08491 0.20724 0.60999 0.0
C2143 C 0.08623 0.21257 0.68959 0.0
C2144 C 0.07323 0.15376 0.54129 0.0
C2145 C 0.07678 0.165 0.55949 0.0
C2146 C 0.05529 0.18319 0.60975 0.0
C2147 C 0.07972 0.21428 0.65016 0.0
C2148 C 0.07439 0.20504 0.62928 0.0
C2149 C 0.0624 0.17359 0.57085 0.0
C2150 C 0.06613 0.18497 0.59066 0.0
H2151 H 0.09556 0.25503 0.6694 0.0
H2152 H 0.08488 0.24065 0.63512 0.0
H2153 H 0.05096 0.19124 0.64344 0.0
H2154 H 0.02687 0.1578 0.54001 0.0
H2155 H 0.03308 0.17742 0.5718 0.0
C2156 C 0.57236 0.36771 0.45595 0.0
C2157 C 0.5567 0.36018 0.46581 0.0
C2158 C 0.5789 0.36085 0.43585 0.0
C2159 C 0.57767 0.3198 0.40082 0.0
H2160 H 0.59282 0.35262 0.35385 0.0
C2161 C 0.59134 0.29447 0.31223 0.0
C2162 C 0.60626 0.30192 0.30077 0.0
C2163 C 0.58587 0.30177 0.33252 0.0
C2164 C 0.58887 0.34328 0.36691 0.0
H2165 H 0.53554 0.3397 0.46235 0.0
H2166 H 0.54692 0.32776 0.42726 0.0
H2167 H 0.5822 0.3651 0.38908 0.0
H2168 H 0.62719 0.32282 0.30152 0.0
H2169 H 0.61776 0.33546 0.3372 0.0
H2170 H 0.58434 0.29798 0.37876 0.0
C2171 C 0.55424 0.33883 0.43515 0.0
C2172 C 0.58278 0.35043 0.38707 0.0
C2173 C 0.54767 0.34573 0.45517 0.0
C2174 C 0.61561 0.31683 0.30998 0.0
C2175 C 0.61015 0.32412 0.33034 0.0
C2176 C 0.58381 0.31266 0.38073 0.0
C2177 C 0.56995 0.34627 0.42531 0.0
C2178 C 0.57697 0.33876 0.40415 0.0
C2179 C 0.59523 0.31665 0.34185 0.0
C2180 C 0.58934 0.32431 0.36347 0.0
H2181 H 0.5796 0.37885 0.46381 0.0
H2182 H 0.59112 0.36675 0.42875 0.0
H2183 H 0.57359 0.31047 0.41383 0.0
H2184 H 0.58381 0.28304 0.30547 0.0
H2185 H 0.57413 0.29589 0.34077 0.0
C2186 C 0.4457 0.86136 0.04339 0.0
C2187 C 0.45781 0.85151 0.0299 0.0
C2188 C 0.43976 0.8541 0.06355 0.0
C2189 C 0.43327 0.81068 0.09272 0.0
H2190 H 0.4308 0.84123 0.1451 0.0
C2191 C 0.41301 0.78215 0.17868 0.0
C2192 C 0.40151 0.79312 0.19167 0.0
C2193 C 0.42075 0.78903 0.15921 0.0
C2194 C 0.43122 0.83256 0.13057 0.0
H2195 H 0.47329 0.82641 0.02689 0.0
H2196 H 0.46285 0.8137 0.06212 0.0
H2197 H 0.44267 0.85381 0.11059 0.0
H2198 H 0.38894 0.81982 0.19442 0.0
H2199 H 0.4021 0.83168 0.16033 0.0
H2200 H 0.42152 0.78952 0.11255 0.0
C2201 C 0.45789 0.82699 0.05705 0.0
C2202 C 0.43806 0.83977 0.11083 0.0
C2203 C 0.46393 0.8343 0.03697 0.0
C2204 C 0.39784 0.81106 0.18481 0.0
C2205 C 0.40549 0.8179 0.16534 0.0
C2206 C 0.42634 0.80349 0.11245 0.0
C2207 C 0.44572 0.8368 0.07053 0.0
C2208 C 0.43904 0.82895 0.09167 0.0
C2209 C 0.41708 0.807 0.15232 0.0
C2210 C 0.42511 0.81439 0.13157 0.0
H2211 H 0.44073 0.87464 0.03835 0.0
H2212 H 0.43022 0.86188 0.07348 0.0
H2213 H 0.43368 0.80208 0.07813 0.0
H2214 H 0.41612 0.76828 0.18363 0.0
H2215 H 0.42978 0.78034 0.1497 0.0
C2216 C 0.9082 0.35333 0.54091 0.0
C2217 C 0.92039 0.34437 0.52665 0.0
C2218 C 0.90413 0.34596 0.5617 0.0
C2219 C 0.90375 0.30315 0.5931 0.0
H2220 H 0.9055 0.33468 0.64465 0.0
C2221 C 0.89661 0.27486 0.68204 0.0
C2222 C 0.88634 0.28528 0.69704 0.0
C2223 C 0.90131 0.28199 0.66131 0.0
C2224 C 0.90472 0.32572 0.63041 0.0
H2225 H 0.93767 0.32057 0.52269 0.0
H2226 H 0.9304 0.3076 0.55892 0.0
H2227 H 0.91196 0.34725 0.60808 0.0
H2228 H 0.87287 0.31128 0.70218 0.0
H2229 H 0.88063 0.32354 0.66595 0.0
H2230 H 0.89618 0.28168 0.61528 0.0
C2231 C 0.92401 0.32031 0.55404 0.0
C2232 C 0.90845 0.33294 0.60948 0.0
C2233 C 0.92822 0.32777 0.53337 0.0
C2234 C 0.8809 0.30297 0.691 0.0
C2235 C 0.88546 0.31004 0.67026 0.0
C2236 C 0.89985 0.29595 0.61401 0.0
C2237 C 0.91203 0.3294 0.56846 0.0
C2238 C 0.90798 0.32173 0.59063 0.0
C2239 C 0.8957 0.29964 0.65513 0.0
C2240 C 0.90026 0.30717 0.63293 0.0
H2241 H 0.90197 0.36615 0.53614 0.0
H2242 H 0.89472 0.35315 0.57243 0.0
H2243 H 0.90313 0.29424 0.57879 0.0
H2244 H 0.90104 0.2612 0.68631 0.0
H2245 H 0.90944 0.27372 0.6502 0.0
C2246 C 0.39298 0.19941 0.31465 0.0
C2247 C 0.38038 0.18912 0.30236 0.0
C2248 C 0.39967 0.19284 0.33483 0.0
C2249 C 0.40573 0.15006 0.36627 0.0
H2250 H 0.41134 0.1823 0.41677 0.0
C2251 C 0.42125 0.12306 0.45389 0.0
C2252 C 0.43429 0.13263 0.46636 0.0
C2253 C 0.41478 0.13021 0.43394 0.0
C2254 C 0.41003 0.17318 0.40274 0.0
H2255 H 0.36469 0.16403 0.30162 0.0
H2256 H 0.37617 0.15267 0.33689 0.0
H2257 H 0.39984 0.19443 0.38177 0.0
H2258 H 0.45073 0.1572 0.46785 0.0
H2259 H 0.43949 0.16967 0.4329 0.0
H2260 H 0.41584 0.1288 0.38722 0.0
C2261 C 0.38112 0.16567 0.33083 0.0
C2262 C 0.40345 0.18012 0.3827 0.0
C2263 C 0.37447 0.17223 0.31068 0.0
C2264 C 0.44066 0.14954 0.45858 0.0
C2265 C 0.43415 0.15672 0.43864 0.0
C2266 C 0.41226 0.14312 0.38629 0.0
C2267 C 0.39388 0.17584 0.34307 0.0
C2268 C 0.40116 0.16862 0.36427 0.0
C2269 C 0.42118 0.1471 0.42608 0.0
C2270 C 0.41442 0.15458 0.40476 0.0
H2271 H 0.3978 0.21247 0.30859 0.0
H2272 H 0.40961 0.20091 0.34378 0.0
H2273 H 0.40443 0.14091 0.35226 0.0
H2274 H 0.41605 0.11002 0.45953 0.0
H2275 H 0.40461 0.1226 0.42476 0.0
C2276 C 0.55762 0.63047 0.05103 0.0
C2277 C 0.54393 0.63894 0.03843 0.0
C2278 C 0.56368 0.6384 0.07076 0.0
C2279 C 0.56775 0.68208 0.09924 0.0
H2280 H 0.57114 0.65286 0.15266 0.0
C2281 C 0.58615 0.71389 0.18394 0.0
C2282 C 0.5974 0.70358 0.19799 0.0
C2283 C 0.57896 0.70611 0.16466 0.0
C2284 C 0.57053 0.66117 0.13784 0.0
H2285 H 0.52592 0.66236 0.03638 0.0
H2286 H 0.53674 0.67636 0.0707 0.0
H2287 H 0.56034 0.63894 0.11839 0.0
H2288 H 0.61018 0.6772 0.20286 0.0
H2289 H 0.5982 0.66385 0.16901 0.0
H2290 H 0.57839 0.7042 0.11837 0.0
C2291 C 0.54271 0.66358 0.06535 0.0
C2292 C 0.56428 0.65319 0.11826 0.0
C2293 C 0.53648 0.65552 0.0458 0.0
C2294 C 0.60141 0.68543 0.19241 0.0
C2295 C 0.59443 0.67774 0.17306 0.0
C2296 C 0.57422 0.69002 0.11875 0.0
C2297 C 0.55632 0.65506 0.07803 0.0
C2298 C 0.56285 0.66356 0.09879 0.0
C2299 C 0.58307 0.68794 0.15895 0.0
C2300 C 0.57574 0.67966 0.1383 0.0
H2301 H 0.56358 0.61767 0.04572 0.0
H2302 H 0.57429 0.63164 0.08019 0.0
H2303 H 0.56692 0.69032 0.08436 0.0
H2304 H 0.58278 0.7279 0.18793 0.0
H2305 H 0.57005 0.7143 0.15437 0.0
C2306 C 0.08841 0.78831 0.80684 0.0
C2307 C 0.08871 0.76916 0.80584 0.0
C2308 C 0.084 0.79721 0.82654 0.0
C2309 C 0.08287 0.79115 0.88688 0.0
H2310 H 0.05053 0.83301 0.88498 0.0
C2311 C 0.07234 0.84007 0.96126 0.0
C2312 C 0.0543 0.8455 0.96553 0.0
C2313 C 0.07653 0.83025 0.94204 0.0
C2314 C 0.0595 0.82129 0.8858 0.0
H2315 H 0.08464 0.74429 0.82464 0.0
H2316 H 0.07686 0.75991 0.85925 0.0
H2317 H 0.05735 0.81646 0.85094 0.0
H2318 H 0.0265 0.84485 0.9532 0.0
H2319 H 0.03382 0.82774 0.91976 0.0
H2320 H 0.08489 0.79596 0.92184 0.0
C2321 C 0.08015 0.76799 0.84476 0.0
C2322 C 0.06353 0.81191 0.86629 0.0
C2323 C 0.08448 0.75906 0.82495 0.0
C2324 C 0.04055 0.84091 0.95031 0.0
C2325 C 0.04474 0.83118 0.93111 0.0
C2326 C 0.07891 0.80061 0.90642 0.0
C2327 C 0.07986 0.78716 0.84572 0.0
C2328 C 0.07528 0.79677 0.86661 0.0
C2329 C 0.06278 0.82579 0.92673 0.0
C2330 C 0.06716 0.81577 0.90607 0.0
H2331 H 0.09167 0.79646 0.79239 0.0
H2332 H 0.08411 0.81198 0.82685 0.0
H2333 H 0.0921 0.77963 0.88758 0.0
H2334 H 0.0832 0.84343 0.97272 0.0
H2335 H 0.09058 0.82641 0.93899 0.0
loop_
_geom_bond_atom_site_label_1
_geom_bond_atom_site_label_2
_geom_bond_distance
_geom_bond_site_symmetry_2
_ccdc_geom_bond_type
In0 O1 2.294 . S
In0 O2 2.326 . S
In0 O6 2.266 . S
In0 O7 2.326 . S
In0 O8 2.266 . S
In0 O9 2.326 . S
In0 O11 2.294 . S
In0 O12 2.326 . S
O1 In0 2.294 . S
O1 C10 1.240 . S
O2 In0 2.326 . S
O2 C10 1.252 . S
C3 O6 1.252 . S
C3 O7 1.260 . S
C4 O11 1.240 . S
C4 O12 1.252 . S
C5 O8 1.252 . S
C5 O9 1.260 . S
O6 In0 2.266 . S
O6 C3 1.252 . S
O7 In0 2.326 . S
O7 C3 1.260 . S
O8 In0 2.266 . S
O8 C5 1.252 . S
O9 In0 2.326 . S
O9 C5 1.260 . S
C10 O1 1.240 . S
C10 O2 1.252 . S
O11 In0 2.294 . S
O11 C4 1.240 . S
O12 In0 2.326 . S
O12 C4 1.252 . S
In13 O14 2.294 . S
In13 O15 2.326 . S
In13 O19 2.266 . S
In13 O20 2.326 . S
In13 O21 2.266 . S
In13 O22 2.326 . S
In13 O24 2.294 . S
In13 O25 2.326 . S
O14 In13 2.294 . S
O14 C23 1.240 . S
O15 In13 2.326 . S
O15 C23 1.252 . S
C16 O19 1.252 . S
C16 O20 1.260 . S
C17 O24 1.240 . S
C17 O25 1.252 . S
C18 O21 1.252 . S
C18 O22 1.260 . S
O19 In13 2.266 . S
O19 C16 1.252 . S
O20 In13 2.326 . S
O20 C16 1.260 . S
O21 In13 2.266 . S
O21 C18 1.252 . S
O22 In13 2.326 . S
O22 C18 1.260 . S
C23 O14 1.240 . S
C23 O15 1.252 . S
O24 In13 2.294 . S
O24 C17 1.240 . S
O25 In13 2.326 . S
O25 C17 1.252 . S
In26 O27 2.294 . S
In26 O28 2.326 . S
In26 O32 2.266 . S
In26 O33 2.326 . S
In26 O34 2.266 . S
In26 O35 2.326 . S
In26 O37 2.294 . S
In26 O38 2.326 . S
O27 In26 2.294 . S
O27 C36 1.240 . S
O28 In26 2.326 . S
O28 C36 1.252 . S
C29 O32 1.252 . S
C29 O33 1.260 . S
C30 O37 1.240 . S
C30 O38 1.252 . S
C31 O34 1.252 . S
C31 O35 1.260 . S
O32 In26 2.266 . S
O32 C29 1.252 . S
O33 In26 2.326 . S
O33 C29 1.260 . S
O34 In26 2.266 . S
O34 C31 1.252 . S
O35 In26 2.326 . S
O35 C31 1.260 . S
C36 O27 1.240 . S
C36 O28 1.252 . S
O37 In26 2.294 . S
O37 C30 1.240 . S
O38 In26 2.326 . S
O38 C30 1.252 . S
In39 O40 2.294 . S
In39 O41 2.326 . S
In39 O45 2.266 . S
In39 O46 2.326 . S
In39 O47 2.266 . S
In39 O48 2.326 . S
In39 O50 2.294 1_554 S
In39 O51 2.326 . S
O40 In39 2.294 . S
O40 C49 1.240 . S
O41 In39 2.326 . S
O41 C49 1.252 . S
C42 O45 1.252 . S
C42 O46 1.260 . S
C43 O50 1.240 . S
C43 O51 1.252 1_556 S
C44 O47 1.252 . S
C44 O48 1.260 . S
O45 In39 2.266 . S
O45 C42 1.252 . S
O46 In39 2.326 . S
O46 C42 1.260 . S
O47 In39 2.266 . S
O47 C44 1.252 . S
O48 In39 2.326 . S
O48 C44 1.260 . S
C49 O40 1.240 . S
C49 O41 1.252 . S
O50 In39 2.294 1_556 S
O50 C43 1.240 . S
O51 In39 2.326 . S
O51 C43 1.252 1_554 S
In52 O53 2.294 . S
In52 O54 2.326 . S
In52 O58 2.266 . S
In52 O59 2.326 . S
In52 O60 2.266 . S
In52 O61 2.326 . S
In52 O63 2.294 . S
In52 O64 2.326 . S
O53 In52 2.294 . S
O53 C62 1.240 . S
O54 In52 2.326 . S
O54 C62 1.252 . S
C55 O58 1.252 . S
C55 O59 1.260 . S
C56 O63 1.240 . S
C56 O64 1.252 . S
C57 O60 1.252 . S
C57 O61 1.260 . S
O58 In52 2.266 . S
O58 C55 1.252 . S
O59 In52 2.326 . S
O59 C55 1.260 . S
O60 In52 2.266 . S
O60 C57 1.252 . S
O61 In52 2.326 . S
O61 C57 1.260 . S
C62 O53 1.240 . S
C62 O54 1.252 . S
O63 In52 2.294 . S
O63 C56 1.240 . S
O64 In52 2.326 . S
O64 C56 1.252 . S
In65 O66 2.294 . S
In65 O67 2.326 . S
In65 O71 2.266 . S
In65 O72 2.326 . S
In65 O73 2.266 . S
In65 O74 2.326 . S
In65 O76 2.294 . S
In65 O77 2.326 . S
O66 In65 2.294 . S
O66 C75 1.240 . S
O67 In65 2.326 . S
O67 C75 1.252 . S
C68 O71 1.252 . S
C68 O72 1.260 . S
C69 O76 1.240 . S
C69 O77 1.252 . S
C70 O73 1.252 . S
C70 O74 1.260 . S
O71 In65 2.266 . S
O71 C68 1.252 . S
O72 In65 2.326 . S
O72 C68 1.260 . S
O73 In65 2.266 . S
O73 C70 1.252 . S
O74 In65 2.326 . S
O74 C70 1.260 . S
C75 O66 1.240 . S
C75 O67 1.252 . S
O76 In65 2.294 . S
O76 C69 1.240 . S
O77 In65 2.326 . S
O77 C69 1.252 . S
In78 O79 2.294 . S
In78 O80 2.326 . S
In78 O84 2.266 . S
In78 O85 2.326 . S
In78 O86 2.266 . S
In78 O87 2.326 . S
In78 O89 2.294 . S
In78 O90 2.326 . S
O79 In78 2.294 . S
O79 C88 1.240 . S
O80 In78 2.326 . S
O80 C88 1.252 . S
C81 O84 1.252 . S
C81 O85 1.260 . S
C82 O89 1.240 . S
C82 O90 1.252 . S
C83 O86 1.252 . S
C83 O87 1.260 . S
O84 In78 2.266 . S
O84 C81 1.252 . S
O85 In78 2.326 . S
O85 C81 1.260 . S
O86 In78 2.266 . S
O86 C83 1.252 . S
O87 In78 2.326 . S
O87 C83 1.260 . S
C88 O79 1.240 . S
C88 O80 1.252 . S
O89 In78 2.294 . S
O89 C82 1.240 . S
O90 In78 2.326 . S
O90 C82 1.252 . S
In91 O92 2.294 . S
In91 O93 2.326 . S
In91 O97 2.266 . S
In91 O98 2.326 . S
In91 O99 2.266 . S
In91 O100 2.326 . S
In91 O102 2.294 1_556 S
In91 O103 2.326 . S
O92 In91 2.294 . S
O92 C101 1.240 . S
O93 In91 2.326 . S
O93 C101 1.252 . S
C94 O97 1.252 . S
C94 O98 1.260 . S
C95 O102 1.240 . S
C95 O103 1.252 1_554 S
C96 O99 1.252 . S
C96 O100 1.260 . S
O97 In91 2.266 . S
O97 C94 1.252 . S
O98 In91 2.326 . S
O98 C94 1.260 . S
O99 In91 2.266 . S
O99 C96 1.252 . S
O100 In91 2.326 . S
O100 C96 1.260 . S
C101 O92 1.240 . S
C101 O93 1.252 . S
O102 In91 2.294 1_554 S
O102 C95 1.240 . S
O103 In91 2.326 . S
O103 C95 1.252 1_556 S
In104 O105 2.294 . S
In104 O106 2.326 . S
In104 O110 2.266 . S
In104 O111 2.326 . S
In104 O112 2.266 . S
In104 O113 2.326 . S
In104 O115 2.294 . S
In104 O116 2.326 . S
O105 In104 2.294 . S
O105 C114 1.240 . S
O106 In104 2.326 . S
O106 C114 1.252 . S
C107 O110 1.252 . S
C107 O111 1.260 . S
C108 O115 1.240 . S
C108 O116 1.252 . S
C109 O112 1.252 . S
C109 O113 1.260 . S
O110 In104 2.266 . S
O110 C107 1.252 . S
O111 In104 2.326 . S
O111 C107 1.260 . S
O112 In104 2.266 . S
O112 C109 1.252 . S
O113 In104 2.326 . S
O113 C109 1.260 . S
C114 O105 1.240 . S
C114 O106 1.252 . S
O115 In104 2.294 . S
O115 C108 1.240 . S
O116 In104 2.326 . S
O116 C108 1.252 . S
In117 O118 2.294 . S
In117 O119 2.326 . S
In117 O123 2.266 . S
In117 O124 2.326 . S
In117 O125 2.266 . S
In117 O126 2.326 . S
In117 O128 2.294 . S
In117 O129 2.326 . S
O118 In117 2.294 . S
O118 C127 1.240 . S
O119 In117 2.326 . S
O119 C127 1.252 . S
C120 O123 1.252 . S
C120 O124 1.260 . S
C121 O128 1.240 . S
C121 O129 1.252 . S
C122 O125 1.252 . S
C122 O126 1.260 . S
O123 In117 2.266 . S
O123 C120 1.252 . S
O124 In117 2.326 . S
O124 C120 1.260 . S
O125 In117 2.266 . S
O125 C122 1.252 . S
O126 In117 2.326 . S
O126 C122 1.260 . S
C127 O118 1.240 . S
C127 O119 1.252 . S
O128 In117 2.294 . S
O128 C121 1.240 . S
O129 In117 2.326 . S
O129 C121 1.252 . S
In130 O131 2.294 . S
In130 O132 2.326 . S
In130 O136 2.266 . S
In130 O137 2.326 . S
In130 O138 2.266 . S
In130 O139 2.326 . S
In130 O141 2.294 . S
In130 O142 2.326 . S
O131 In130 2.294 . S
O131 C140 1.240 . S
O132 In130 2.326 . S
O132 C140 1.252 . S
C133 O136 1.252 . S
C133 O137 1.260 . S
C134 O141 1.240 . S
C134 O142 1.252 . S
C135 O138 1.252 . S
C135 O139 1.260 . S
O136 In130 2.266 . S
O136 C133 1.252 . S
O137 In130 2.326 . S
O137 C133 1.260 . S
O138 In130 2.266 . S
O138 C135 1.252 . S
O139 In130 2.326 . S
O139 C135 1.260 . S
C140 O131 1.240 . S
C140 O132 1.252 . S
O141 In130 2.294 . S
O141 C134 1.240 . S
O142 In130 2.326 . S
O142 C134 1.252 . S
In143 O144 2.294 . S
In143 O145 2.326 . S
In143 O149 2.266 . S
In143 O150 2.326 . S
In143 O151 2.266 . S
In143 O152 2.326 . S
In143 O154 2.294 1_556 S
In143 O155 2.326 . S
O144 In143 2.294 . S
O144 C153 1.240 . S
O145 In143 2.326 . S
O145 C153 1.252 . S
C146 O149 1.252 . S
C146 O150 1.260 . S
C147 O154 1.240 . S
C147 O155 1.252 1_554 S
C148 O151 1.252 . S
C148 O152 1.260 . S
O149 In143 2.266 . S
O149 C146 1.252 . S
O150 In143 2.326 . S
O150 C146 1.260 . S
O151 In143 2.266 . S
O151 C148 1.252 . S
O152 In143 2.326 . S
O152 C148 1.260 . S
C153 O144 1.240 . S
C153 O145 1.252 . S
O154 In143 2.294 1_554 S
O154 C147 1.240 . S
O155 In143 2.326 . S
O155 C147 1.252 1_556 S
In156 O157 2.294 . S
In156 O158 2.326 . S
In156 O162 2.266 . S
In156 O163 2.326 . S
In156 O164 2.266 . S
In156 O165 2.326 . S
In156 O167 2.294 . S
In156 O168 2.326 . S
O157 In156 2.294 . S
O157 C166 1.240 . S
O158 In156 2.326 . S
O158 C166 1.252 . S
C159 O162 1.252 . S
C159 O163 1.260 . S
C160 O167 1.240 . S
C160 O168 1.252 . S
C161 O164 1.252 . S
C161 O165 1.260 . S
O162 In156 2.266 . S
O162 C159 1.252 . S
O163 In156 2.326 . S
O163 C159 1.260 . S
O164 In156 2.266 . S
O164 C161 1.252 . S
O165 In156 2.326 . S
O165 C161 1.260 . S
C166 O157 1.240 . S
C166 O158 1.252 . S
O167 In156 2.294 . S
O167 C160 1.240 . S
O168 In156 2.326 . S
O168 C160 1.252 . S
In169 O170 2.294 . S
In169 O171 2.326 . S
In169 O175 2.266 . S
In169 O176 2.326 . S
In169 O177 2.266 . S
In169 O178 2.326 . S
In169 O180 2.294 . S
In169 O181 2.326 . S
O170 In169 2.294 . S
O170 C179 1.240 . S
O171 In169 2.326 . S
O171 C179 1.252 . S
C172 O175 1.252 . S
C172 O176 1.260 . S
C173 O180 1.240 . S
C173 O181 1.252 . S
C174 O177 1.252 . S
C174 O178 1.260 . S
O175 In169 2.266 . S
O175 C172 1.252 . S
O176 In169 2.326 . S
O176 C172 1.260 . S
O177 In169 2.266 . S
O177 C174 1.252 . S
O178 In169 2.326 . S
O178 C174 1.260 . S
C179 O170 1.240 . S
C179 O171 1.252 . S
O180 In169 2.294 . S
O180 C173 1.240 . S
O181 In169 2.326 . S
O181 C173 1.252 . S
In182 O183 2.294 . S
In182 O184 2.326 . S
In182 O188 2.266 . S
In182 O189 2.326 . S
In182 O190 2.266 . S
In182 O191 2.326 . S
In182 O193 2.294 . S
In182 O194 2.326 . S
O183 In182 2.294 . S
O183 C192 1.240 . S
O184 In182 2.326 . S
O184 C192 1.252 . S
C185 O188 1.252 . S
C185 O189 1.260 . S
C186 O193 1.240 . S
C186 O194 1.252 . S
C187 O190 1.252 . S
C187 O191 1.260 . S
O188 In182 2.266 . S
O188 C185 1.252 . S
O189 In182 2.326 . S
O189 C185 1.260 . S
O190 In182 2.266 . S
O190 C187 1.252 . S
O191 In182 2.326 . S
O191 C187 1.260 . S
C192 O183 1.240 . S
C192 O184 1.252 . S
O193 In182 2.294 . S
O193 C186 1.240 . S
O194 In182 2.326 . S
O194 C186 1.252 . S
In195 O196 2.294 . S
In195 O197 2.326 . S
In195 O201 2.266 . S
In195 O202 2.326 . S
In195 O203 2.266 . S
In195 O204 2.326 . S
In195 O206 2.294 1_554 S
In195 O207 2.326 . S
O196 In195 2.294 . S
O196 C205 1.240 . S
O197 In195 2.326 . S
O197 C205 1.252 . S
C198 O201 1.252 . S
C198 O202 1.260 . S
C199 O206 1.240 . S
C199 O207 1.252 1_556 S
C200 O203 1.252 . S
C200 O204 1.260 . S
O201 In195 2.266 . S
O201 C198 1.252 . S
O202 In195 2.326 . S
O202 C198 1.260 . S
O203 In195 2.266 . S
O203 C200 1.252 . S
O204 In195 2.326 . S
O204 C200 1.260 . S
C205 O196 1.240 . S
C205 O197 1.252 . S
O206 In195 2.294 1_556 S
O206 C199 1.240 . S
O207 In195 2.326 . S
O207 C199 1.252 1_554 S
In208 O209 2.294 . S
In208 O210 2.326 . S
In208 O214 2.266 . S
In208 O215 2.326 . S
In208 O216 2.266 . S
In208 O217 2.326 . S
In208 O219 2.294 . S
In208 O220 2.326 . S
O209 In208 2.294 . S
O209 C218 1.240 . S
O210 In208 2.326 . S
O210 C218 1.252 . S
C211 O214 1.252 . S
C211 O215 1.260 . S
C212 O219 1.240 . S
C212 O220 1.252 . S
C213 O216 1.252 . S
C213 O217 1.260 . S
O214 In208 2.266 . S
O214 C211 1.252 . S
O215 In208 2.326 . S
O215 C211 1.260 . S
O216 In208 2.266 . S
O216 C213 1.252 . S
O217 In208 2.326 . S
O217 C213 1.260 . S
C218 O209 1.240 . S
C218 O210 1.252 . S
O219 In208 2.294 . S
O219 C212 1.240 . S
O220 In208 2.326 . S
O220 C212 1.252 . S
In221 O222 2.294 . S
In221 O223 2.326 . S
In221 O227 2.266 . S
In221 O228 2.326 . S
In221 O229 2.266 . S
In221 O230 2.326 . S
In221 O232 2.294 1_554 S
In221 O233 2.326 . S
O222 In221 2.294 . S
O222 C231 1.240 . S
O223 In221 2.326 . S
O223 C231 1.252 . S
C224 O227 1.252 . S
C224 O228 1.260 . S
C225 O232 1.240 . S
C225 O233 1.252 1_556 S
C226 O229 1.252 . S
C226 O230 1.260 . S
O227 In221 2.266 . S
O227 C224 1.252 . S
O228 In221 2.326 . S
O228 C224 1.260 . S
O229 In221 2.266 . S
O229 C226 1.252 . S
O230 In221 2.326 . S
O230 C226 1.260 . S
C231 O222 1.240 . S
C231 O223 1.252 . S
O232 In221 2.294 1_556 S
O232 C225 1.240 . S
O233 In221 2.326 . S
O233 C225 1.252 1_554 S
In234 O235 2.294 . S
In234 O236 2.326 . S
In234 O240 2.266 . S
In234 O241 2.326 . S
In234 O242 2.266 . S
In234 O243 2.326 . S
In234 O245 2.294 . S
In234 O246 2.326 . S
O235 In234 2.294 . S
O235 C244 1.240 . S
O236 In234 2.326 . S
O236 C244 1.252 . S
C237 O240 1.252 . S
C237 O241 1.260 . S
C238 O245 1.240 . S
C238 O246 1.252 . S
C239 O242 1.252 . S
C239 O243 1.260 . S
O240 In234 2.266 . S
O240 C237 1.252 . S
O241 In234 2.326 . S
O241 C237 1.260 . S
O242 In234 2.266 . S
O242 C239 1.252 . S
O243 In234 2.326 . S
O243 C239 1.260 . S
C244 O235 1.240 . S
C244 O236 1.252 . S
O245 In234 2.294 . S
O245 C238 1.240 . S
O246 In234 2.326 . S
O246 C238 1.252 . S
In247 O248 2.294 . S
In247 O249 2.326 . S
In247 O253 2.266 . S
In247 O254 2.326 . S
In247 O255 2.266 . S
In247 O256 2.326 . S
In247 O258 2.294 . S
In247 O259 2.326 . S
O248 In247 2.294 . S
O248 C257 1.240 . S
O249 In247 2.326 . S
O249 C257 1.252 . S
C250 O253 1.252 . S
C250 O254 1.260 . S
C251 O258 1.240 . S
C251 O259 1.252 . S
C252 O255 1.252 . S
C252 O256 1.260 . S
O253 In247 2.266 . S
O253 C250 1.252 . S
O254 In247 2.326 . S
O254 C250 1.260 . S
O255 In247 2.266 . S
O255 C252 1.252 . S
O256 In247 2.326 . S
O256 C252 1.260 . S
C257 O248 1.240 . S
C257 O249 1.252 . S
O258 In247 2.294 . S
O258 C251 1.240 . S
O259 In247 2.326 . S
O259 C251 1.252 . S
In260 O261 2.294 . S
In260 O262 2.326 . S
In260 O266 2.266 . S
In260 O267 2.326 . S
In260 O268 2.266 . S
In260 O269 2.326 . S
In260 O271 2.294 . S
In260 O272 2.326 . S
O261 In260 2.294 . S
O261 C270 1.240 . S
O262 In260 2.326 . S
O262 C270 1.252 . S
C263 O266 1.252 . S
C263 O267 1.260 . S
C264 O271 1.240 . S
C264 O272 1.252 . S
C265 O268 1.252 . S
C265 O269 1.260 . S
O266 In260 2.266 . S
O266 C263 1.252 . S
O267 In260 2.326 . S
O267 C263 1.260 . S
O268 In260 2.266 . S
O268 C265 1.252 . S
O269 In260 2.326 . S
O269 C265 1.260 . S
C270 O261 1.240 . S
C270 O262 1.252 . S
O271 In260 2.294 . S
O271 C264 1.240 . S
O272 In260 2.326 . S
O272 C264 1.252 . S
In273 O274 2.294 1_556 S
In273 O275 2.326 . S
In273 O279 2.266 . S
In273 O280 2.326 . S
In273 O281 2.266 . S
In273 O282 2.326 . S
In273 O284 2.294 . S
In273 O285 2.326 . S
O274 In273 2.294 1_554 S
O274 C283 1.240 . S
O275 In273 2.326 . S
O275 C283 1.252 1_556 S
C276 O279 1.252 . S
C276 O280 1.260 . S
C277 O284 1.240 . S
C277 O285 1.252 . S
C278 O281 1.252 . S
C278 O282 1.260 . S
O279 In273 2.266 . S
O279 C276 1.252 . S
O280 In273 2.326 . S
O280 C276 1.260 . S
O281 In273 2.266 . S
O281 C278 1.252 . S
O282 In273 2.326 . S
O282 C278 1.260 . S
C283 O274 1.240 . S
C283 O275 1.252 1_554 S
O284 In273 2.294 . S
O284 C277 1.240 . S
O285 In273 2.326 . S
O285 C277 1.252 . S
In286 O287 2.294 . S
In286 O288 2.326 . S
In286 O292 2.266 . S
In286 O293 2.326 . S
In286 O294 2.266 . S
In286 O295 2.326 . S
In286 O297 2.294 . S
In286 O298 2.326 . S
O287 In286 2.294 . S
O287 C296 1.240 . S
O288 In286 2.326 . S
O288 C296 1.252 . S
C289 O292 1.252 . S
C289 O293 1.260 . S
C290 O297 1.240 . S
C290 O298 1.252 . S
C291 O294 1.252 . S
C291 O295 1.260 . S
O292 In286 2.266 . S
O292 C289 1.252 . S
O293 In286 2.326 . S
O293 C289 1.260 . S
O294 In286 2.266 . S
O294 C291 1.252 . S
O295 In286 2.326 . S
O295 C291 1.260 . S
C296 O287 1.240 . S
C296 O288 1.252 . S
O297 In286 2.294 . S
O297 C290 1.240 . S
O298 In286 2.326 . S
O298 C290 1.252 . S
In299 O300 2.294 . S
In299 O301 2.326 . S
In299 O305 2.266 . S
In299 O306 2.326 . S
In299 O307 2.266 . S
In299 O308 2.326 . S
In299 O310 2.294 . S
In299 O311 2.326 . S
O300 In299 2.294 . S
O300 C309 1.240 . S
O301 In299 2.326 . S
O301 C309 1.252 . S
C302 O305 1.252 . S
C302 O306 1.260 . S
C303 O310 1.240 . S
C303 O311 1.252 . S
C304 O307 1.252 . S
C304 O308 1.260 . S
O305 In299 2.266 . S
O305 C302 1.252 . S
O306 In299 2.326 . S
O306 C302 1.260 . S
O307 In299 2.266 . S
O307 C304 1.252 . S
O308 In299 2.326 . S
O308 C304 1.260 . S
C309 O300 1.240 . S
C309 O301 1.252 . S
O310 In299 2.294 . S
O310 C303 1.240 . S
O311 In299 2.326 . S
O311 C303 1.252 . S
In312 O313 2.294 . S
In312 O314 2.326 . S
In312 O318 2.266 . S
In312 O319 2.326 . S
In312 O320 2.266 . S
In312 O321 2.326 . S
In312 O323 2.294 . S
In312 O324 2.326 . S
O313 In312 2.294 . S
O313 C322 1.240 . S
O314 In312 2.326 . S
O314 C322 1.252 . S
C315 O318 1.252 . S
C315 O319 1.260 . S
C316 O323 1.240 . S
C316 O324 1.252 . S
C317 O320 1.252 . S
C317 O321 1.260 . S
O318 In312 2.266 . S
O318 C315 1.252 . S
O319 In312 2.326 . S
O319 C315 1.260 . S
O320 In312 2.266 . S
O320 C317 1.252 . S
O321 In312 2.326 . S
O321 C317 1.260 . S
C322 O313 1.240 . S
C322 O314 1.252 . S
O323 In312 2.294 . S
O323 C316 1.240 . S
O324 In312 2.326 . S
O324 C316 1.252 . S
In325 O326 2.294 1_556 S
In325 O327 2.326 . S
In325 O331 2.266 . S
In325 O332 2.326 . S
In325 O333 2.266 . S
In325 O334 2.326 . S
In325 O336 2.294 . S
In325 O337 2.326 . S
O326 In325 2.294 1_554 S
O326 C335 1.240 . S
O327 In325 2.326 . S
O327 C335 1.252 1_556 S
C328 O331 1.252 . S
C328 O332 1.260 . S
C329 O336 1.240 . S
C329 O337 1.252 . S
C330 O333 1.252 . S
C330 O334 1.260 . S
O331 In325 2.266 . S
O331 C328 1.252 . S
O332 In325 2.326 . S
O332 C328 1.260 . S
O333 In325 2.266 . S
O333 C330 1.252 . S
O334 In325 2.326 . S
O334 C330 1.260 . S
C335 O326 1.240 . S
C335 O327 1.252 1_554 S
O336 In325 2.294 . S
O336 C329 1.240 . S
O337 In325 2.326 . S
O337 C329 1.252 . S
In338 O339 2.294 . S
In338 O340 2.326 . S
In338 O344 2.266 . S
In338 O345 2.326 . S
In338 O346 2.266 . S
In338 O347 2.326 . S
In338 O349 2.294 . S
In338 O350 2.326 . S
O339 In338 2.294 . S
O339 C348 1.240 . S
O340 In338 2.326 . S
O340 C348 1.252 . S
C341 O344 1.252 . S
C341 O345 1.260 . S
C342 O349 1.240 . S
C342 O350 1.252 . S
C343 O346 1.252 . S
C343 O347 1.260 . S
O344 In338 2.266 . S
O344 C341 1.252 . S
O345 In338 2.326 . S
O345 C341 1.260 . S
O346 In338 2.266 . S
O346 C343 1.252 . S
O347 In338 2.326 . S
O347 C343 1.260 . S
C348 O339 1.240 . S
C348 O340 1.252 . S
O349 In338 2.294 . S
O349 C342 1.240 . S
O350 In338 2.326 . S
O350 C342 1.252 . S
In351 O352 2.294 . S
In351 O353 2.326 . S
In351 O357 2.266 . S
In351 O358 2.326 . S
In351 O359 2.266 . S
In351 O360 2.326 . S
In351 O362 2.294 . S
In351 O363 2.326 . S
O352 In351 2.294 . S
O352 C361 1.240 . S
O353 In351 2.326 . S
O353 C361 1.252 . S
C354 O357 1.252 . S
C354 O358 1.260 . S
C355 O362 1.240 . S
C355 O363 1.252 . S
C356 O359 1.252 . S
C356 O360 1.260 . S
O357 In351 2.266 . S
O357 C354 1.252 . S
O358 In351 2.326 . S
O358 C354 1.260 . S
O359 In351 2.266 . S
O359 C356 1.252 . S
O360 In351 2.326 . S
O360 C356 1.260 . S
C361 O352 1.240 . S
C361 O353 1.252 . S
O362 In351 2.294 . S
O362 C355 1.240 . S
O363 In351 2.326 . S
O363 C355 1.252 . S
In364 O365 2.294 . S
In364 O366 2.326 . S
In364 O370 2.266 . S
In364 O371 2.326 . S
In364 O372 2.266 . S
In364 O373 2.326 . S
In364 O375 2.294 . S
In364 O376 2.326 . S
O365 In364 2.294 . S
O365 C374 1.240 . S
O366 In364 2.326 . S
O366 C374 1.252 . S
C367 O370 1.252 . S
C367 O371 1.260 . S
C368 O375 1.240 . S
C368 O376 1.252 . S
C369 O372 1.252 . S
C369 O373 1.260 . S
O370 In364 2.266 . S
O370 C367 1.252 . S
O371 In364 2.326 . S
O371 C367 1.260 . S
O372 In364 2.266 . S
O372 C369 1.252 . S
O373 In364 2.326 . S
O373 C369 1.260 . S
C374 O365 1.240 . S
C374 O366 1.252 . S
O375 In364 2.294 . S
O375 C368 1.240 . S
O376 In364 2.326 . S
O376 C368 1.252 . S
In377 O378 2.294 . S
In377 O379 2.326 . S
In377 O383 2.266 . S
In377 O384 2.326 . S
In377 O385 2.266 . S
In377 O386 2.326 . S
In377 O388 2.294 1_554 S
In377 O389 2.326 . S
O378 In377 2.294 . S
O378 C387 1.240 . S
O379 In377 2.326 . S
O379 C387 1.252 . S
C380 O383 1.252 . S
C380 O384 1.260 . S
C381 O388 1.240 . S
C381 O389 1.252 1_556 S
C382 O385 1.252 . S
C382 O386 1.260 . S
O383 In377 2.266 . S
O383 C380 1.252 . S
O384 In377 2.326 . S
O384 C380 1.260 . S
O385 In377 2.266 . S
O385 C382 1.252 . S
O386 In377 2.326 . S
O386 C382 1.260 . S
C387 O378 1.240 . S
C387 O379 1.252 . S
O388 In377 2.294 1_556 S
O388 C381 1.240 . S
O389 In377 2.326 . S
O389 C381 1.252 1_554 S
In390 O391 2.294 . S
In390 O392 2.326 . S
In390 O396 2.266 . S
In390 O397 2.326 . S
In390 O398 2.266 . S
In390 O399 2.326 . S
In390 O401 2.294 . S
In390 O402 2.326 . S
O391 In390 2.294 . S
O391 C400 1.240 . S
O392 In390 2.326 . S
O392 C400 1.252 . S
C393 O396 1.252 . S
C393 O397 1.260 . S
C394 O401 1.240 . S
C394 O402 1.252 . S
C395 O398 1.252 . S
C395 O399 1.260 . S
O396 In390 2.266 . S
O396 C393 1.252 . S
O397 In390 2.326 . S
O397 C393 1.260 . S
O398 In390 2.266 . S
O398 C395 1.252 . S
O399 In390 2.326 . S
O399 C395 1.260 . S
C400 O391 1.240 . S
C400 O392 1.252 . S
O401 In390 2.294 . S
O401 C394 1.240 . S
O402 In390 2.326 . S
O402 C394 1.252 . S
In403 O404 2.294 . S
In403 O405 2.326 . S
In403 O409 2.266 . S
In403 O410 2.326 . S
In403 O411 2.266 . S
In403 O412 2.326 . S
In403 O414 2.294 . S
In403 O415 2.326 . S
O404 In403 2.294 . S
O404 C413 1.240 . S
O405 In403 2.326 . S
O405 C413 1.252 . S
C406 O409 1.252 . S
C406 O410 1.260 . S
C407 O414 1.240 . S
C407 O415 1.252 . S
C408 O411 1.252 . S
C408 O412 1.260 . S
O409 In403 2.266 . S
O409 C406 1.252 . S
O410 In403 2.326 . S
O410 C406 1.260 . S
O411 In403 2.266 . S
O411 C408 1.252 . S
O412 In403 2.326 . S
O412 C408 1.260 . S
C413 O404 1.240 . S
C413 O405 1.252 . S
O414 In403 2.294 . S
O414 C407 1.240 . S
O415 In403 2.326 . S
O415 C407 1.252 . S
C416 C417 1.349 . S
C416 C418 1.327 . S
C416 H441 0.950 . S
C417 C416 1.349 . S
C417 C433 1.349 . S
C418 C416 1.327 . S
C418 C437 1.429 . S
C418 H442 0.950 . S
C419 C436 1.574 . S
C419 C438 1.368 . S
C419 H443 0.949 . S
H420 C424 0.949 . S
C421 C422 1.349 . S
C421 C423 1.327 . S
C421 H444 0.950 . S
C422 C421 1.349 . S
C422 C434 1.349 . S
C423 C421 1.327 . S
C423 C439 1.429 . S
C423 H445 0.950 . S
C424 H420 0.949 . S
C424 C432 1.574 . S
C424 C440 1.368 . S
H425 C433 0.950 . S
H426 C431 0.950 . S
H427 C432 0.949 . S
H428 C434 0.950 . S
H429 C435 0.950 . S
H430 C436 0.949 . S
C431 H426 0.950 . S
C431 C433 1.327 . S
C431 C437 1.429 . S
C432 C424 1.574 . S
C432 H427 0.949 . S
C432 C438 1.368 . S
C433 C417 1.349 . S
C433 H425 0.950 . S
C433 C431 1.327 . S
C434 C422 1.349 . S
C434 H428 0.950 . S
C434 C435 1.327 . S
C435 H429 0.950 . S
C435 C434 1.327 . S
C435 C439 1.429 . S
C436 C419 1.574 . S
C436 H430 0.949 . S
C436 C440 1.368 . S
C437 C418 1.429 . S
C437 C431 1.429 . S
C437 C438 1.523 . S
C438 C419 1.368 . S
C438 C432 1.368 . S
C438 C437 1.523 . S
C439 C423 1.429 . S
C439 C435 1.429 . S
C439 C440 1.523 . S
C440 C424 1.368 . S
C440 C436 1.368 . S
C440 C439 1.523 . S
H441 C416 0.950 . S
H442 C418 0.950 . S
H443 C419 0.949 . S
H444 C421 0.950 . S
H445 C423 0.950 . S
C446 C447 1.349 . S
C446 C448 1.327 1_655 S
C446 H471 0.950 . S
C447 C446 1.349 . S
C447 C463 1.349 . S
C448 C446 1.327 1_455 S
C448 C467 1.429 . S
C448 H472 0.950 . S
C449 C466 1.574 . S
C449 C468 1.368 . S
C449 H473 0.949 . S
H450 C454 0.949 . S
C451 C452 1.349 . S
C451 C453 1.327 . S
C451 H474 0.950 . S
C452 C451 1.349 . S
C452 C464 1.349 . S
C453 C451 1.327 . S
C453 C469 1.429 . S
C453 H475 0.950 . S
C454 H450 0.949 . S
C454 C462 1.574 . S
C454 C470 1.368 . S
H455 C463 0.950 . S
H456 C461 0.950 . S
H457 C462 0.949 . S
H458 C464 0.950 . S
H459 C465 0.950 . S
H460 C466 0.949 . S
C461 H456 0.950 . S
C461 C463 1.327 1_455 S
C461 C467 1.429 . S
C462 C454 1.574 . S
C462 H457 0.949 . S
C462 C468 1.368 . S
C463 C447 1.349 . S
C463 H455 0.950 . S
C463 C461 1.327 1_655 S
C464 C452 1.349 . S
C464 H458 0.950 . S
C464 C465 1.327 . S
C465 H459 0.950 . S
C465 C464 1.327 . S
C465 C469 1.429 . S
C466 C449 1.574 . S
C466 H460 0.949 . S
C466 C470 1.368 . S
C467 C448 1.429 . S
C467 C461 1.429 . S
C467 C468 1.523 . S
C468 C449 1.368 . S
C468 C462 1.368 . S
C468 C467 1.523 . S
C469 C453 1.429 . S
C469 C465 1.429 . S
C469 C470 1.523 . S
C470 C454 1.368 . S
C470 C466 1.368 . S
C470 C469 1.523 . S
H471 C446 0.950 . S
H472 C448 0.950 . S
H473 C449 0.949 . S
H474 C451 0.950 . S
H475 C453 0.950 . S
C476 C477 1.349 . S
C476 C478 1.327 . S
C476 H501 0.950 . S
C477 C476 1.349 . S
C477 C493 1.349 . S
C478 C476 1.327 . S
C478 C497 1.429 . S
C478 H502 0.950 . S
C479 C496 1.574 . S
C479 C498 1.368 . S
C479 H503 0.949 . S
H480 C484 0.949 . S
C481 C482 1.349 . S
C481 C483 1.327 . S
C481 H504 0.950 . S
C482 C481 1.349 . S
C482 C494 1.349 . S
C483 C481 1.327 . S
C483 C499 1.429 . S
C483 H505 0.950 . S
C484 H480 0.949 . S
C484 C492 1.574 . S
C484 C500 1.368 . S
H485 C493 0.950 . S
H486 C491 0.950 . S
H487 C492 0.949 . S
H488 C494 0.950 . S
H489 C495 0.950 . S
H490 C496 0.949 . S
C491 H486 0.950 . S
C491 C493 1.327 . S
C491 C497 1.429 . S
C492 C484 1.574 . S
C492 H487 0.949 . S
C492 C498 1.368 . S
C493 C477 1.349 . S
C493 H485 0.950 . S
C493 C491 1.327 . S
C494 C482 1.349 . S
C494 H488 0.950 . S
C494 C495 1.327 . S
C495 H489 0.950 . S
C495 C494 1.327 . S
C495 C499 1.429 . S
C496 C479 1.574 . S
C496 H490 0.949 . S
C496 C500 1.368 . S
C497 C478 1.429 . S
C497 C491 1.429 . S
C497 C498 1.523 . S
C498 C479 1.368 . S
C498 C492 1.368 . S
C498 C497 1.523 . S
C499 C483 1.429 . S
C499 C495 1.429 . S
C499 C500 1.523 . S
C500 C484 1.368 . S
C500 C496 1.368 . S
C500 C499 1.523 . S
H501 C476 0.950 . S
H502 C478 0.950 . S
H503 C479 0.949 . S
H504 C481 0.950 . S
H505 C483 0.950 . S
C506 C507 1.349 . S
C506 C508 1.327 . S
C506 H531 0.950 . S
C507 C506 1.349 . S
C507 C523 1.349 . S
C508 C506 1.327 . S
C508 C527 1.429 . S
C508 H532 0.950 . S
C509 C526 1.574 . S
C509 C528 1.368 . S
C509 H533 0.949 . S
H510 C514 0.949 . S
C511 C512 1.349 . S
C511 C513 1.327 . S
C511 H534 0.950 . S
C512 C511 1.349 . S
C512 C524 1.349 . S
C513 C511 1.327 . S
C513 C529 1.429 . S
C513 H535 0.950 . S
C514 H510 0.949 . S
C514 C522 1.574 . S
C514 C530 1.368 . S
H515 C523 0.950 . S
H516 C521 0.950 . S
H517 C522 0.949 . S
H518 C524 0.950 . S
H519 C525 0.950 . S
H520 C526 0.949 . S
C521 H516 0.950 . S
C521 C523 1.327 . S
C521 C527 1.429 . S
C522 C514 1.574 . S
C522 H517 0.949 . S
C522 C528 1.368 . S
C523 C507 1.349 . S
C523 H515 0.950 . S
C523 C521 1.327 . S
C524 C512 1.349 . S
C524 H518 0.950 . S
C524 C525 1.327 . S
C525 H519 0.950 . S
C525 C524 1.327 . S
C525 C529 1.429 . S
C526 C509 1.574 . S
C526 H520 0.949 . S
C526 C530 1.368 . S
C527 C508 1.429 . S
C527 C521 1.429 . S
C527 C528 1.523 . S
C528 C509 1.368 . S
C528 C522 1.368 . S
C528 C527 1.523 . S
C529 C513 1.429 . S
C529 C525 1.429 . S
C529 C530 1.523 . S
C530 C514 1.368 . S
C530 C526 1.368 . S
C530 C529 1.523 . S
H531 C506 0.950 . S
H532 C508 0.950 . S
H533 C509 0.949 . S
H534 C511 0.950 . S
H535 C513 0.950 . S
C536 C537 1.349 . S
C536 C538 1.327 . S
C536 H561 0.950 . S
C537 C536 1.349 . S
C537 C553 1.349 . S
C538 C536 1.327 . S
C538 C557 1.429 . S
C538 H562 0.950 . S
C539 C556 1.574 . S
C539 C558 1.368 . S
C539 H563 0.949 . S
H540 C544 0.949 . S
C541 C542 1.349 . S
C541 C543 1.327 . S
C541 H564 0.950 . S
C542 C541 1.349 . S
C542 C554 1.349 . S
C543 C541 1.327 . S
C543 C559 1.429 . S
C543 H565 0.950 . S
C544 H540 0.949 . S
C544 C552 1.574 . S
C544 C560 1.368 . S
H545 C553 0.950 . S
H546 C551 0.950 . S
H547 C552 0.949 . S
H548 C554 0.950 . S
H549 C555 0.950 . S
H550 C556 0.949 . S
C551 H546 0.950 . S
C551 C553 1.327 . S
C551 C557 1.429 . S
C552 C544 1.574 . S
C552 H547 0.949 . S
C552 C558 1.368 . S
C553 C537 1.349 . S
C553 H545 0.950 . S
C553 C551 1.327 . S
C554 C542 1.349 . S
C554 H548 0.950 . S
C554 C555 1.327 . S
C555 H549 0.950 . S
C555 C554 1.327 . S
C555 C559 1.429 . S
C556 C539 1.574 . S
C556 H550 0.949 . S
C556 C560 1.368 . S
C557 C538 1.429 . S
C557 C551 1.429 . S
C557 C558 1.523 . S
C558 C539 1.368 . S
C558 C552 1.368 . S
C558 C557 1.523 . S
C559 C543 1.429 . S
C559 C555 1.429 . S
C559 C560 1.523 . S
C560 C544 1.368 . S
C560 C556 1.368 . S
C560 C559 1.523 . S
H561 C536 0.950 . S
H562 C538 0.950 . S
H563 C539 0.949 . S
H564 C541 0.950 . S
H565 C543 0.950 . S
C566 C567 1.349 . S
C566 C568 1.327 . S
C566 H591 0.950 . S
C567 C566 1.349 . S
C567 C583 1.349 . S
C568 C566 1.327 . S
C568 C587 1.429 . S
C568 H592 0.950 . S
C569 C586 1.574 . S
C569 C588 1.368 . S
C569 H593 0.949 . S
H570 C574 0.949 . S
C571 C572 1.349 . S
C571 C573 1.327 . S
C571 H594 0.950 . S
C572 C571 1.349 . S
C572 C584 1.349 . S
C573 C571 1.327 . S
C573 C589 1.429 . S
C573 H595 0.950 . S
C574 H570 0.949 . S
C574 C582 1.574 . S
C574 C590 1.368 . S
H575 C583 0.950 . S
H576 C581 0.950 . S
H577 C582 0.949 . S
H578 C584 0.950 . S
H579 C585 0.950 . S
H580 C586 0.949 . S
C581 H576 0.950 . S
C581 C583 1.327 . S
C581 C587 1.429 . S
C582 C574 1.574 . S
C582 H577 0.949 . S
C582 C588 1.368 . S
C583 C567 1.349 . S
C583 H575 0.950 . S
C583 C581 1.327 . S
C584 C572 1.349 . S
C584 H578 0.950 . S
C584 C585 1.327 . S
C585 H579 0.950 . S
C585 C584 1.327 . S
C585 C589 1.429 . S
C586 C569 1.574 . S
C586 H580 0.949 . S
C586 C590 1.368 . S
C587 C568 1.429 . S
C587 C581 1.429 . S
C587 C588 1.523 . S
C588 C569 1.368 . S
C588 C582 1.368 . S
C588 C587 1.523 . S
C589 C573 1.429 . S
C589 C585 1.429 . S
C589 C590 1.523 . S
C590 C574 1.368 . S
C590 C586 1.368 . S
C590 C589 1.523 . S
H591 C566 0.950 . S
H592 C568 0.950 . S
H593 C569 0.949 . S
H594 C571 0.950 . S
H595 C573 0.950 . S
C596 C597 1.349 . S
C596 C598 1.327 . S
C596 H621 0.950 . S
C597 C596 1.349 . S
C597 C613 1.349 . S
C598 C596 1.327 . S
C598 C617 1.429 . S
C598 H622 0.950 . S
C599 C616 1.574 . S
C599 C618 1.368 . S
C599 H623 0.949 . S
H600 C604 0.949 . S
C601 C602 1.349 . S
C601 C603 1.327 . S
C601 H624 0.950 . S
C602 C601 1.349 . S
C602 C614 1.349 . S
C603 C601 1.327 . S
C603 C619 1.429 . S
C603 H625 0.950 . S
C604 H600 0.949 . S
C604 C612 1.574 . S
C604 C620 1.368 . S
H605 C613 0.950 . S
H606 C611 0.950 . S
H607 C612 0.949 . S
H608 C614 0.950 . S
H609 C615 0.950 . S
H610 C616 0.949 . S
C611 H606 0.950 . S
C611 C613 1.327 . S
C611 C617 1.429 . S
C612 C604 1.574 . S
C612 H607 0.949 . S
C612 C618 1.368 . S
C613 C597 1.349 . S
C613 H605 0.950 . S
C613 C611 1.327 . S
C614 C602 1.349 . S
C614 H608 0.950 . S
C614 C615 1.327 . S
C615 H609 0.950 . S
C615 C614 1.327 . S
C615 C619 1.429 . S
C616 C599 1.574 . S
C616 H610 0.949 . S
C616 C620 1.368 . S
C617 C598 1.429 . S
C617 C611 1.429 . S
C617 C618 1.523 . S
C618 C599 1.368 . S
C618 C612 1.368 . S
C618 C617 1.523 . S
C619 C603 1.429 . S
C619 C615 1.429 . S
C619 C620 1.523 . S
C620 C604 1.368 . S
C620 C616 1.368 . S
C620 C619 1.523 . S
H621 C596 0.950 . S
H622 C598 0.950 . S
H623 C599 0.949 . S
H624 C601 0.950 . S
H625 C603 0.950 . S
C626 C627 1.349 . S
C626 C628 1.327 . S
C626 H651 0.950 . S
C627 C626 1.349 . S
C627 C643 1.349 . S
C628 C626 1.327 . S
C628 C647 1.429 . S
C628 H652 0.950 . S
C629 C646 1.574 . S
C629 C648 1.368 . S
C629 H653 0.949 . S
H630 C634 0.949 . S
C631 C632 1.349 . S
C631 C633 1.327 1_655 S
C631 H654 0.950 . S
C632 C631 1.349 . S
C632 C644 1.349 . S
C633 C631 1.327 1_455 S
C633 C649 1.429 . S
C633 H655 0.950 . S
C634 H630 0.949 . S
C634 C642 1.574 . S
C634 C650 1.368 . S
H635 C643 0.950 . S
H636 C641 0.950 . S
H637 C642 0.949 . S
H638 C644 0.950 . S
H639 C645 0.950 . S
H640 C646 0.949 . S
C641 H636 0.950 . S
C641 C643 1.327 . S
C641 C647 1.429 . S
C642 C634 1.574 . S
C642 H637 0.949 . S
C642 C648 1.368 . S
C643 C627 1.349 . S
C643 H635 0.950 . S
C643 C641 1.327 . S
C644 C632 1.349 . S
C644 H638 0.950 . S
C644 C645 1.327 1_655 S
C645 H639 0.950 . S
C645 C644 1.327 1_455 S
C645 C649 1.429 . S
C646 C629 1.574 . S
C646 H640 0.949 . S
C646 C650 1.368 . S
C647 C628 1.429 . S
C647 C641 1.429 . S
C647 C648 1.523 . S
C648 C629 1.368 . S
C648 C642 1.368 . S
C648 C647 1.523 . S
C649 C633 1.429 . S
C649 C645 1.429 . S
C649 C650 1.523 . S
C650 C634 1.368 . S
C650 C646 1.368 . S
C650 C649 1.523 . S
H651 C626 0.950 . S
H652 C628 0.950 . S
H653 C629 0.949 . S
H654 C631 0.950 . S
H655 C633 0.950 . S
C656 C657 1.349 . S
C656 C658 1.327 . S
C656 H681 0.950 . S
C657 C656 1.349 . S
C657 C673 1.349 . S
C658 C656 1.327 . S
C658 C677 1.429 . S
C658 H682 0.950 . S
C659 C676 1.574 . S
C659 C678 1.368 . S
C659 H683 0.949 . S
H660 C664 0.949 . S
C661 C662 1.349 . S
C661 C663 1.327 . S
C661 H684 0.950 . S
C662 C661 1.349 . S
C662 C674 1.349 . S
C663 C661 1.327 . S
C663 C679 1.429 . S
C663 H685 0.950 . S
C664 H660 0.949 . S
C664 C672 1.574 . S
C664 C680 1.368 . S
H665 C673 0.950 . S
H666 C671 0.950 . S
H667 C672 0.949 . S
H668 C674 0.950 . S
H669 C675 0.950 . S
H670 C676 0.949 . S
C671 H666 0.950 . S
C671 C673 1.327 . S
C671 C677 1.429 . S
C672 C664 1.574 . S
C672 H667 0.949 . S
C672 C678 1.368 . S
C673 C657 1.349 . S
C673 H665 0.950 . S
C673 C671 1.327 . S
C674 C662 1.349 . S
C674 H668 0.950 . S
C674 C675 1.327 . S
C675 H669 0.950 . S
C675 C674 1.327 . S
C675 C679 1.429 . S
C676 C659 1.574 . S
C676 H670 0.949 . S
C676 C680 1.368 . S
C677 C658 1.429 . S
C677 C671 1.429 . S
C677 C678 1.523 . S
C678 C659 1.368 . S
C678 C672 1.368 . S
C678 C677 1.523 . S
C679 C663 1.429 . S
C679 C675 1.429 . S
C679 C680 1.523 . S
C680 C664 1.368 . S
C680 C676 1.368 . S
C680 C679 1.523 . S
H681 C656 0.950 . S
H682 C658 0.950 . S
H683 C659 0.949 . S
H684 C661 0.950 . S
H685 C663 0.950 . S
C686 C687 1.349 1_655 S
C686 C688 1.327 . S
C686 H711 0.950 . S
C687 C686 1.349 1_455 S
C687 C703 1.349 . S
C688 C686 1.327 . S
C688 C707 1.429 . S
C688 H712 0.950 . S
C689 C706 1.574 . S
C689 C708 1.368 . S
C689 H713 0.949 . S
H690 C694 0.949 . S
C691 C692 1.349 . S
C691 C693 1.327 . S
C691 H714 0.950 . S
C692 C691 1.349 . S
C692 C704 1.349 . S
C693 C691 1.327 . S
C693 C709 1.429 . S
C693 H715 0.950 . S
C694 H690 0.949 . S
C694 C702 1.574 . S
C694 C710 1.368 . S
H695 C703 0.950 . S
H696 C701 0.949 1_455 S
H697 C702 0.949 . S
H698 C704 0.950 . S
H699 C705 0.950 . S
H700 C706 0.949 . S
C701 H696 0.949 1_655 S
C701 C703 1.303 1_655 S
C701 C707 1.454 . S
C702 C694 1.574 . S
C702 H697 0.949 . S
C702 C708 1.368 . S
C703 C687 1.349 . S
C703 H695 0.950 . S
C703 C701 1.303 1_455 S
C704 C692 1.349 . S
C704 H698 0.950 . S
C704 C705 1.327 . S
C705 H699 0.950 . S
C705 C704 1.327 . S
C705 C709 1.429 . S
C706 C689 1.574 . S
C706 H700 0.949 . S
C706 C710 1.368 . S
C707 C688 1.429 . S
C707 C701 1.454 . S
C707 C708 1.523 . S
C708 C689 1.368 . S
C708 C702 1.368 . S
C708 C707 1.523 . S
C709 C693 1.429 . S
C709 C705 1.429 . S
C709 C710 1.523 . S
C710 C694 1.368 . S
C710 C706 1.368 . S
C710 C709 1.523 . S
H711 C686 0.950 . S
H712 C688 0.950 . S
H713 C689 0.949 . S
H714 C691 0.950 . S
H715 C693 0.950 . S
C716 C717 1.349 . S
C716 C718 1.327 . S
C716 H741 0.950 . S
C717 C716 1.349 . S
C717 C733 1.349 . S
C718 C716 1.327 . S
C718 C737 1.429 . S
C718 H742 0.950 . S
C719 C736 1.574 . S
C719 C738 1.368 . S
C719 H743 0.949 . S
H720 C724 0.949 . S
C721 C722 1.349 . S
C721 C723 1.327 . S
C721 H744 0.950 . S
C722 C721 1.349 . S
C722 C734 1.349 . S
C723 C721 1.327 . S
C723 C739 1.429 . S
C723 H745 0.950 . S
C724 H720 0.949 . S
C724 C732 1.574 . S
C724 C740 1.368 . S
H725 C733 0.950 . S
H726 C731 0.950 . S
H727 C732 0.949 . S
H728 C734 0.950 . S
H729 C735 0.950 . S
H730 C736 0.949 . S
C731 H726 0.950 . S
C731 C733 1.327 . S
C731 C737 1.429 . S
C732 C724 1.574 . S
C732 H727 0.949 . S
C732 C738 1.368 . S
C733 C717 1.349 . S
C733 H725 0.950 . S
C733 C731 1.327 . S
C734 C722 1.349 . S
C734 H728 0.950 . S
C734 C735 1.327 . S
C735 H729 0.950 . S
C735 C734 1.327 . S
C735 C739 1.429 . S
C736 C719 1.574 . S
C736 H730 0.949 . S
C736 C740 1.368 . S
C737 C718 1.429 . S
C737 C731 1.429 . S
C737 C738 1.523 . S
C738 C719 1.368 . S
C738 C732 1.368 . S
C738 C737 1.523 . S
C739 C723 1.429 . S
C739 C735 1.429 . S
C739 C740 1.523 . S
C740 C724 1.368 . S
C740 C736 1.368 . S
C740 C739 1.523 . S
H741 C716 0.950 . S
H742 C718 0.950 . S
H743 C719 0.949 . S
H744 C721 0.950 . S
H745 C723 0.950 . S
C746 C747 1.349 . S
C746 C748 1.327 . S
C746 H771 0.950 . S
C747 C746 1.349 . S
C747 C763 1.349 . S
C748 C746 1.327 . S
C748 C767 1.429 . S
C748 H772 0.950 . S
C749 C766 1.574 . S
C749 C768 1.368 . S
C749 H773 0.949 . S
H750 C754 0.949 . S
C751 C752 1.349 . S
C751 C753 1.327 . S
C751 H774 0.950 . S
C752 C751 1.349 . S
C752 C764 1.349 . S
C753 C751 1.327 . S
C753 C769 1.429 . S
C753 H775 0.950 . S
C754 H750 0.949 . S
C754 C762 1.574 . S
C754 C770 1.368 . S
H755 C763 0.950 . S
H756 C761 0.950 . S
H757 C762 0.949 . S
H758 C764 0.950 . S
H759 C765 0.950 . S
H760 C766 0.949 . S
C761 H756 0.950 . S
C761 C763 1.327 . S
C761 C767 1.429 . S
C762 C754 1.574 . S
C762 H757 0.949 . S
C762 C768 1.368 . S
C763 C747 1.349 . S
C763 H755 0.950 . S
C763 C761 1.327 . S
C764 C752 1.349 . S
C764 H758 0.950 . S
C764 C765 1.327 . S
C765 H759 0.950 . S
C765 C764 1.327 . S
C765 C769 1.429 . S
C766 C749 1.574 . S
C766 H760 0.949 . S
C766 C770 1.368 . S
C767 C748 1.429 . S
C767 C761 1.429 . S
C767 C768 1.523 . S
C768 C749 1.368 . S
C768 C762 1.368 . S
C768 C767 1.523 . S
C769 C753 1.429 . S
C769 C765 1.429 . S
C769 C770 1.523 . S
C770 C754 1.368 . S
C770 C766 1.368 . S
C770 C769 1.523 . S
H771 C746 0.950 . S
H772 C748 0.950 . S
H773 C749 0.949 . S
H774 C751 0.950 . S
H775 C753 0.950 . S
C776 C777 1.349 . S
C776 C778 1.327 . S
C776 H801 0.950 . S
C777 C776 1.349 . S
C777 C793 1.349 . S
C778 C776 1.327 . S
C778 C797 1.429 . S
C778 H802 0.950 . S
C779 C796 1.574 . S
C779 C798 1.368 . S
C779 H803 0.949 . S
H780 C784 0.949 . S
C781 C782 1.349 . S
C781 C783 1.327 . S
C781 H804 0.950 . S
C782 C781 1.349 . S
C782 C794 1.349 . S
C783 C781 1.327 . S
C783 C799 1.429 . S
C783 H805 0.950 . S
C784 H780 0.949 . S
C784 C792 1.574 . S
C784 C800 1.368 . S
H785 C793 0.950 . S
H786 C791 0.950 . S
H787 C792 0.949 . S
H788 C794 0.950 . S
H789 C795 0.950 . S
H790 C796 0.949 . S
C791 H786 0.950 . S
C791 C793 1.327 . S
C791 C797 1.429 . S
C792 C784 1.574 . S
C792 H787 0.949 . S
C792 C798 1.368 . S
C793 C777 1.349 . S
C793 H785 0.950 . S
C793 C791 1.327 . S
C794 C782 1.349 . S
C794 H788 0.950 . S
C794 C795 1.327 . S
C795 H789 0.950 . S
C795 C794 1.327 . S
C795 C799 1.429 . S
C796 C779 1.574 . S
C796 H790 0.949 . S
C796 C800 1.368 . S
C797 C778 1.429 . S
C797 C791 1.429 . S
C797 C798 1.523 . S
C798 C779 1.368 . S
C798 C792 1.368 . S
C798 C797 1.523 . S
C799 C783 1.429 . S
C799 C795 1.429 . S
C799 C800 1.523 . S
C800 C784 1.368 . S
C800 C796 1.368 . S
C800 C799 1.523 . S
H801 C776 0.950 . S
H802 C778 0.950 . S
H803 C779 0.949 . S
H804 C781 0.950 . S
H805 C783 0.950 . S
C806 C807 1.349 . S
C806 C808 1.327 . S
C806 H831 0.950 . S
C807 C806 1.349 . S
C807 C823 1.349 . S
C808 C806 1.327 . S
C808 C827 1.429 . S
C808 H832 0.950 . S
C809 C826 1.574 . S
C809 C828 1.368 . S
C809 H833 0.949 . S
H810 C814 0.949 . S
C811 C812 1.349 . S
C811 C813 1.327 . S
C811 H834 0.950 . S
C812 C811 1.349 . S
C812 C824 1.349 . S
C813 C811 1.327 . S
C813 C829 1.429 . S
C813 H835 0.950 . S
C814 H810 0.949 . S
C814 C822 1.574 . S
C814 C830 1.368 . S
H815 C823 0.950 . S
H816 C821 0.950 . S
H817 C822 0.949 . S
H818 C824 0.950 . S
H819 C825 0.950 . S
H820 C826 0.949 . S
C821 H816 0.950 . S
C821 C823 1.327 . S
C821 C827 1.429 . S
C822 C814 1.574 . S
C822 H817 0.949 . S
C822 C828 1.368 . S
C823 C807 1.349 . S
C823 H815 0.950 . S
C823 C821 1.327 . S
C824 C812 1.349 . S
C824 H818 0.950 . S
C824 C825 1.327 . S
C825 H819 0.950 . S
C825 C824 1.327 . S
C825 C829 1.429 . S
C826 C809 1.574 . S
C826 H820 0.949 . S
C826 C830 1.368 . S
C827 C808 1.429 . S
C827 C821 1.429 . S
C827 C828 1.523 . S
C828 C809 1.368 . S
C828 C822 1.368 . S
C828 C827 1.523 . S
C829 C813 1.429 . S
C829 C825 1.429 . S
C829 C830 1.523 . S
C830 C814 1.368 . S
C830 C826 1.368 . S
C830 C829 1.523 . S
H831 C806 0.950 . S
H832 C808 0.950 . S
H833 C809 0.949 . S
H834 C811 0.950 . S
H835 C813 0.950 . S
C836 C837 1.349 . S
C836 C838 1.327 . S
C836 H861 0.950 . S
C837 C836 1.349 . S
C837 C853 1.349 . S
C838 C836 1.327 . S
C838 C857 1.429 . S
C838 H862 0.950 . S
C839 C856 1.574 . S
C839 C858 1.368 . S
C839 H863 0.949 . S
H840 C844 0.949 . S
C841 C842 1.349 . S
C841 C843 1.327 . S
C841 H864 0.950 . S
C842 C841 1.349 . S
C842 C854 1.349 . S
C843 C841 1.327 . S
C843 C859 1.429 . S
C843 H865 0.950 . S
C844 H840 0.949 . S
C844 C852 1.574 . S
C844 C860 1.368 . S
H845 C853 0.950 . S
H846 C851 0.950 . S
H847 C852 0.949 . S
H848 C854 0.950 . S
H849 C855 0.950 . S
H850 C856 0.949 . S
C851 H846 0.950 . S
C851 C853 1.327 . S
C851 C857 1.429 . S
C852 C844 1.574 . S
C852 H847 0.949 . S
C852 C858 1.368 . S
C853 C837 1.349 . S
C853 H845 0.950 . S
C853 C851 1.327 . S
C854 C842 1.349 . S
C854 H848 0.950 . S
C854 C855 1.327 . S
C855 H849 0.950 . S
C855 C854 1.327 . S
C855 C859 1.429 . S
C856 C839 1.574 . S
C856 H850 0.949 . S
C856 C860 1.368 . S
C857 C838 1.429 . S
C857 C851 1.429 . S
C857 C858 1.523 . S
C858 C839 1.368 . S
C858 C852 1.368 . S
C858 C857 1.523 . S
C859 C843 1.429 . S
C859 C855 1.429 . S
C859 C860 1.523 . S
C860 C844 1.368 . S
C860 C856 1.368 . S
C860 C859 1.523 . S
H861 C836 0.950 . S
H862 C838 0.950 . S
H863 C839 0.949 . S
H864 C841 0.950 . S
H865 C843 0.950 . S
C866 C867 1.349 . S
C866 C868 1.327 . S
C866 H891 0.950 . S
C867 C866 1.349 . S
C867 C883 1.349 . S
C868 C866 1.327 . S
C868 C887 1.429 . S
C868 H892 0.950 . S
C869 C886 1.574 . S
C869 C888 1.368 . S
C869 H893 0.949 . S
H870 C874 0.949 . S
C871 C872 1.349 . S
C871 C873 1.327 1_455 S
C871 H894 0.950 . S
C872 C871 1.349 . S
C872 C884 1.349 . S
C873 C871 1.327 1_655 S
C873 C889 1.429 . S
C873 H895 0.950 . S
C874 H870 0.949 . S
C874 C882 1.574 . S
C874 C890 1.368 . S
H875 C883 0.950 . S
H876 C881 0.950 . S
H877 C882 0.949 . S
H878 C884 0.950 . S
H879 C885 0.950 . S
H880 C886 0.949 . S
C881 H876 0.950 . S
C881 C883 1.327 . S
C881 C887 1.429 . S
C882 C874 1.574 . S
C882 H877 0.949 . S
C882 C888 1.368 . S
C883 C867 1.349 . S
C883 H875 0.950 . S
C883 C881 1.327 . S
C884 C872 1.349 . S
C884 H878 0.950 . S
C884 C885 1.327 1_455 S
C885 H879 0.950 . S
C885 C884 1.327 1_655 S
C885 C889 1.429 . S
C886 C869 1.574 . S
C886 H880 0.949 . S
C886 C890 1.368 . S
C887 C868 1.429 . S
C887 C881 1.429 . S
C887 C888 1.523 . S
C888 C869 1.368 . S
C888 C882 1.368 . S
C888 C887 1.523 . S
C889 C873 1.429 . S
C889 C885 1.429 . S
C889 C890 1.523 . S
C890 C874 1.368 . S
C890 C886 1.368 . S
C890 C889 1.523 . S
H891 C866 0.950 . S
H892 C868 0.950 . S
H893 C869 0.949 . S
H894 C871 0.950 . S
H895 C873 0.950 . S
C896 C897 1.349 . S
C896 C898 1.327 . S
C896 H921 0.950 . S
C897 C896 1.349 . S
C897 C913 1.349 . S
C898 C896 1.327 . S
C898 C917 1.429 . S
C898 H922 0.950 . S
C899 C916 1.574 . S
C899 C918 1.368 . S
C899 H923 0.949 . S
H900 C904 0.949 . S
C901 C902 1.349 . S
C901 C903 1.327 . S
C901 H924 0.950 . S
C902 C901 1.349 . S
C902 C914 1.349 . S
C903 C901 1.327 . S
C903 C919 1.429 . S
C903 H925 0.950 . S
C904 H900 0.949 . S
C904 C912 1.574 . S
C904 C920 1.368 . S
H905 C913 0.950 . S
H906 C911 0.950 . S
H907 C912 0.949 . S
H908 C914 0.950 . S
H909 C915 0.950 . S
H910 C916 0.949 . S
C911 H906 0.950 . S
C911 C913 1.327 . S
C911 C917 1.429 . S
C912 C904 1.574 . S
C912 H907 0.949 . S
C912 C918 1.368 . S
C913 C897 1.349 . S
C913 H905 0.950 . S
C913 C911 1.327 . S
C914 C902 1.349 . S
C914 H908 0.950 . S
C914 C915 1.327 . S
C915 H909 0.950 . S
C915 C914 1.327 . S
C915 C919 1.429 . S
C916 C899 1.574 . S
C916 H910 0.949 . S
C916 C920 1.368 . S
C917 C898 1.429 . S
C917 C911 1.429 . S
C917 C918 1.523 . S
C918 C899 1.368 . S
C918 C912 1.368 . S
C918 C917 1.523 . S
C919 C903 1.429 . S
C919 C915 1.429 . S
C919 C920 1.523 . S
C920 C904 1.368 . S
C920 C916 1.368 . S
C920 C919 1.523 . S
H921 C896 0.950 . S
H922 C898 0.950 . S
H923 C899 0.949 . S
H924 C901 0.950 . S
H925 C903 0.950 . S
C926 C927 1.349 . S
C926 C928 1.327 . S
C926 H951 0.950 . S
C927 C926 1.349 . S
C927 C943 1.349 . S
C928 C926 1.327 . S
C928 C947 1.429 . S
C928 H952 0.950 . S
C929 C946 1.574 . S
C929 C948 1.368 . S
C929 H953 0.949 . S
H930 C934 0.949 . S
C931 C932 1.349 . S
C931 C933 1.327 . S
C931 H954 0.950 . S
C932 C931 1.349 . S
C932 C944 1.349 . S
C933 C931 1.327 . S
C933 C949 1.429 . S
C933 H955 0.950 . S
C934 H930 0.949 . S
C934 C942 1.574 . S
C934 C950 1.368 . S
H935 C943 0.950 . S
H936 C941 0.950 . S
H937 C942 0.949 . S
H938 C944 0.950 . S
H939 C945 0.950 . S
H940 C946 0.949 . S
C941 H936 0.950 . S
C941 C943 1.327 . S
C941 C947 1.429 . S
C942 C934 1.574 . S
C942 H937 0.949 . S
C942 C948 1.368 . S
C943 C927 1.349 . S
C943 H935 0.950 . S
C943 C941 1.327 . S
C944 C932 1.349 . S
C944 H938 0.950 . S
C944 C945 1.327 . S
C945 H939 0.950 . S
C945 C944 1.327 . S
C945 C949 1.429 . S
C946 C929 1.574 . S
C946 H940 0.949 . S
C946 C950 1.368 . S
C947 C928 1.429 . S
C947 C941 1.429 . S
C947 C948 1.523 . S
C948 C929 1.368 . S
C948 C942 1.368 . S
C948 C947 1.523 . S
C949 C933 1.429 . S
C949 C945 1.429 . S
C949 C950 1.523 . S
C950 C934 1.368 . S
C950 C946 1.368 . S
C950 C949 1.523 . S
H951 C926 0.950 . S
H952 C928 0.950 . S
H953 C929 0.949 . S
H954 C931 0.950 . S
H955 C933 0.950 . S
C956 C957 1.349 . S
C956 C958 1.327 . S
C956 H981 0.950 . S
C957 C956 1.349 . S
C957 C973 1.349 . S
C958 C956 1.327 . S
C958 C977 1.429 . S
C958 H982 0.950 . S
C959 C976 1.574 . S
C959 C978 1.368 . S
C959 H983 0.949 . S
H960 C964 0.949 . S
C961 C962 1.349 . S
C961 C963 1.327 . S
C961 H984 0.950 . S
C962 C961 1.349 . S
C962 C974 1.349 . S
C963 C961 1.327 . S
C963 C979 1.429 . S
C963 H985 0.950 . S
C964 H960 0.949 . S
C964 C972 1.574 . S
C964 C980 1.368 . S
H965 C973 0.950 . S
H966 C971 0.950 . S
H967 C972 0.949 . S
H968 C974 0.950 . S
H969 C975 0.950 . S
H970 C976 0.949 . S
C971 H966 0.950 . S
C971 C973 1.327 . S
C971 C977 1.429 . S
C972 C964 1.574 . S
C972 H967 0.949 . S
C972 C978 1.368 . S
C973 C957 1.349 . S
C973 H965 0.950 . S
C973 C971 1.327 . S
C974 C962 1.349 . S
C974 H968 0.950 . S
C974 C975 1.327 . S
C975 H969 0.950 . S
C975 C974 1.327 . S
C975 C979 1.429 . S
C976 C959 1.574 . S
C976 H970 0.949 . S
C976 C980 1.368 . S
C977 C958 1.429 . S
C977 C971 1.429 . S
C977 C978 1.523 . S
C978 C959 1.368 . S
C978 C972 1.368 . S
C978 C977 1.523 . S
C979 C963 1.429 . S
C979 C975 1.429 . S
C979 C980 1.523 . S
C980 C964 1.368 . S
C980 C976 1.368 . S
C980 C979 1.523 . S
H981 C956 0.950 . S
H982 C958 0.950 . S
H983 C959 0.949 . S
H984 C961 0.950 . S
H985 C963 0.950 . S
C986 C987 1.349 . S
C986 C988 1.327 . S
C986 H1011 0.950 . S
C987 C986 1.349 . S
C987 C1003 1.349 . S
C988 C986 1.327 . S
C988 C1007 1.429 . S
C988 H1012 0.950 . S
C989 C1006 1.574 . S
C989 C1008 1.368 . S
C989 H1013 0.949 . S
H990 C994 0.949 . S
C991 C992 1.349 . S
C991 C993 1.327 1_455 S
C991 H1014 0.950 . S
C992 C991 1.349 . S
C992 C1004 1.317 1_455 S
C993 C991 1.327 1_655 S
C993 C1009 1.429 . S
C993 H1015 0.950 . S
C994 H990 0.949 . S
C994 C1002 1.574 . S
C994 C1010 1.368 . S
H995 C1003 0.950 . S
H996 C1001 0.950 . S
H997 C1002 0.949 . S
H998 C1004 0.949 . S
H999 C1005 0.950 . S
H1000 C1006 0.949 . S
C1001 H996 0.950 . S
C1001 C1003 1.327 . S
C1001 C1007 1.429 . S
C1002 C994 1.574 . S
C1002 H997 0.949 . S
C1002 C1008 1.368 . S
C1003 C987 1.349 . S
C1003 H995 0.950 . S
C1003 C1001 1.327 . S
C1004 C992 1.317 1_655 S
C1004 H998 0.949 . S
C1004 C1005 1.361 . S
C1005 H999 0.950 . S
C1005 C1004 1.361 . S
C1005 C1009 1.429 . S
C1006 C989 1.574 . S
C1006 H1000 0.949 . S
C1006 C1010 1.368 . S
C1007 C988 1.429 . S
C1007 C1001 1.429 . S
C1007 C1008 1.523 . S
C1008 C989 1.368 . S
C1008 C1002 1.368 . S
C1008 C1007 1.523 . S
C1009 C993 1.429 . S
C1009 C1005 1.429 . S
C1009 C1010 1.523 . S
C1010 C994 1.368 . S
C1010 C1006 1.368 . S
C1010 C1009 1.523 . S
H1011 C986 0.950 . S
H1012 C988 0.950 . S
H1013 C989 0.949 . S
H1014 C991 0.950 . S
H1015 C993 0.950 . S
C1016 C1017 1.349 . S
C1016 C1018 1.327 . S
C1016 H1041 0.950 . S
C1017 C1016 1.349 . S
C1017 C1033 1.349 . S
C1018 C1016 1.327 . S
C1018 C1037 1.429 . S
C1018 H1042 0.950 . S
C1019 C1036 1.574 . S
C1019 C1038 1.368 . S
C1019 H1043 0.949 . S
H1020 C1024 0.949 . S
C1021 C1022 1.349 . S
C1021 C1023 1.327 . S
C1021 H1044 0.950 . S
C1022 C1021 1.349 . S
C1022 C1034 1.349 . S
C1023 C1021 1.327 . S
C1023 C1039 1.429 . S
C1023 H1045 0.950 . S
C1024 H1020 0.949 . S
C1024 C1032 1.574 . S
C1024 C1040 1.368 . S
H1025 C1033 0.950 . S
H1026 C1031 0.950 . S
H1027 C1032 0.949 . S
H1028 C1034 0.950 . S
H1029 C1035 0.950 . S
H1030 C1036 0.949 . S
C1031 H1026 0.950 . S
C1031 C1033 1.327 . S
C1031 C1037 1.429 . S
C1032 C1024 1.574 . S
C1032 H1027 0.949 . S
C1032 C1038 1.368 . S
C1033 C1017 1.349 . S
C1033 H1025 0.950 . S
C1033 C1031 1.327 . S
C1034 C1022 1.349 . S
C1034 H1028 0.950 . S
C1034 C1035 1.327 . S
C1035 H1029 0.950 . S
C1035 C1034 1.327 . S
C1035 C1039 1.429 . S
C1036 C1019 1.574 . S
C1036 H1030 0.949 . S
C1036 C1040 1.368 . S
C1037 C1018 1.429 . S
C1037 C1031 1.429 . S
C1037 C1038 1.523 . S
C1038 C1019 1.368 . S
C1038 C1032 1.368 . S
C1038 C1037 1.523 . S
C1039 C1023 1.429 . S
C1039 C1035 1.429 . S
C1039 C1040 1.523 . S
C1040 C1024 1.368 . S
C1040 C1036 1.368 . S
C1040 C1039 1.523 . S
H1041 C1016 0.950 . S
H1042 C1018 0.950 . S
H1043 C1019 0.949 . S
H1044 C1021 0.950 . S
H1045 C1023 0.950 . S
C1046 C1047 1.349 1_655 S
C1046 C1048 1.327 . S
C1046 H1071 0.950 . S
C1047 C1046 1.349 1_455 S
C1047 C1063 1.349 . S
C1048 C1046 1.327 . S
C1048 C1067 1.429 . S
C1048 H1072 0.950 . S
C1049 C1066 1.574 . S
C1049 C1068 1.368 . S
C1049 H1073 0.949 . S
H1050 C1054 0.949 . S
C1051 C1052 1.349 . S
C1051 C1053 1.327 . S
C1051 H1074 0.950 . S
C1052 C1051 1.349 . S
C1052 C1064 1.349 . S
C1053 C1051 1.327 . S
C1053 C1069 1.429 . S
C1053 H1075 0.950 . S
C1054 H1050 0.949 . S
C1054 C1062 1.574 . S
C1054 C1070 1.368 . S
H1055 C1063 0.950 . S
H1056 C1061 0.957 . S
H1057 C1062 0.949 . S
H1058 C1064 0.950 . S
H1059 C1065 0.950 . S
H1060 C1066 0.949 . S
C1061 H1056 0.957 . S
C1061 C1063 1.366 . S
C1061 C1067 1.385 1_455 S
C1062 C1054 1.574 . S
C1062 H1057 0.949 . S
C1062 C1068 1.368 . S
C1063 C1047 1.349 . S
C1063 H1055 0.950 . S
C1063 C1061 1.366 . S
C1064 C1052 1.349 . S
C1064 H1058 0.950 . S
C1064 C1065 1.327 . S
C1065 H1059 0.950 . S
C1065 C1064 1.327 . S
C1065 C1069 1.429 . S
C1066 C1049 1.574 . S
C1066 H1060 0.949 . S
C1066 C1070 1.368 . S
C1067 C1048 1.429 . S
C1067 C1061 1.385 1_655 S
C1067 C1068 1.523 . S
C1068 C1049 1.368 . S
C1068 C1062 1.368 . S
C1068 C1067 1.523 . S
C1069 C1053 1.429 . S
C1069 C1065 1.429 . S
C1069 C1070 1.523 . S
C1070 C1054 1.368 . S
C1070 C1066 1.368 . S
C1070 C1069 1.523 . S
H1071 C1046 0.950 . S
H1072 C1048 0.950 . S
H1073 C1049 0.949 . S
H1074 C1051 0.950 . S
H1075 C1053 0.950 . S
C1076 C1077 1.349 . S
C1076 C1078 1.327 . S
C1076 H1101 0.950 . S
C1077 C1076 1.349 . S
C1077 C1093 1.349 . S
C1078 C1076 1.327 . S
C1078 C1097 1.429 . S
C1078 H1102 0.950 . S
C1079 C1096 1.574 . S
C1079 C1098 1.368 . S
C1079 H1103 0.949 . S
H1080 C1084 0.949 . S
C1081 C1082 1.349 . S
C1081 C1083 1.327 . S
C1081 H1104 0.950 . S
C1082 C1081 1.349 . S
C1082 C1094 1.349 . S
C1083 C1081 1.327 . S
C1083 C1099 1.429 . S
C1083 H1105 0.950 . S
C1084 H1080 0.949 . S
C1084 C1092 1.574 . S
C1084 C1100 1.368 . S
H1085 C1093 0.950 . S
H1086 C1091 0.950 . S
H1087 C1092 0.949 . S
H1088 C1094 0.950 . S
H1089 C1095 0.950 . S
H1090 C1096 0.949 . S
C1091 H1086 0.950 . S
C1091 C1093 1.327 . S
C1091 C1097 1.429 . S
C1092 C1084 1.574 . S
C1092 H1087 0.949 . S
C1092 C1098 1.368 . S
C1093 C1077 1.349 . S
C1093 H1085 0.950 . S
C1093 C1091 1.327 . S
C1094 C1082 1.349 . S
C1094 H1088 0.950 . S
C1094 C1095 1.327 . S
C1095 H1089 0.950 . S
C1095 C1094 1.327 . S
C1095 C1099 1.429 . S
C1096 C1079 1.574 . S
C1096 H1090 0.949 . S
C1096 C1100 1.368 . S
C1097 C1078 1.429 . S
C1097 C1091 1.429 . S
C1097 C1098 1.523 . S
C1098 C1079 1.368 . S
C1098 C1092 1.368 . S
C1098 C1097 1.523 . S
C1099 C1083 1.429 . S
C1099 C1095 1.429 . S
C1099 C1100 1.523 . S
C1100 C1084 1.368 . S
C1100 C1096 1.368 . S
C1100 C1099 1.523 . S
H1101 C1076 0.950 . S
H1102 C1078 0.950 . S
H1103 C1079 0.949 . S
H1104 C1081 0.950 . S
H1105 C1083 0.950 . S
C1106 C1107 1.349 . S
C1106 C1108 1.327 . S
C1106 H1131 0.950 . S
C1107 C1106 1.349 . S
C1107 C1123 1.349 . S
C1108 C1106 1.327 . S
C1108 C1127 1.429 . S
C1108 H1132 0.950 . S
C1109 C1126 1.574 . S
C1109 C1128 1.368 . S
C1109 H1133 0.949 . S
H1110 C1114 0.949 . S
C1111 C1112 1.349 . S
C1111 C1113 1.327 . S
C1111 H1134 0.950 . S
C1112 C1111 1.349 . S
C1112 C1124 1.349 . S
C1113 C1111 1.327 . S
C1113 C1129 1.429 . S
C1113 H1135 0.950 . S
C1114 H1110 0.949 . S
C1114 C1122 1.574 . S
C1114 C1130 1.368 . S
H1115 C1123 0.950 . S
H1116 C1121 0.950 . S
H1117 C1122 0.949 . S
H1118 C1124 0.950 . S
H1119 C1125 0.950 . S
H1120 C1126 0.949 . S
C1121 H1116 0.950 . S
C1121 C1123 1.327 . S
C1121 C1127 1.429 . S
C1122 C1114 1.574 . S
C1122 H1117 0.949 . S
C1122 C1128 1.368 . S
C1123 C1107 1.349 . S
C1123 H1115 0.950 . S
C1123 C1121 1.327 . S
C1124 C1112 1.349 . S
C1124 H1118 0.950 . S
C1124 C1125 1.327 . S
C1125 H1119 0.950 . S
C1125 C1124 1.327 . S
C1125 C1129 1.429 . S
C1126 C1109 1.574 . S
C1126 H1120 0.949 . S
C1126 C1130 1.368 . S
C1127 C1108 1.429 . S
C1127 C1121 1.429 . S
C1127 C1128 1.523 . S
C1128 C1109 1.368 . S
C1128 C1122 1.368 . S
C1128 C1127 1.523 . S
C1129 C1113 1.429 . S
C1129 C1125 1.429 . S
C1129 C1130 1.523 . S
C1130 C1114 1.368 . S
C1130 C1126 1.368 . S
C1130 C1129 1.523 . S
H1131 C1106 0.950 . S
H1132 C1108 0.950 . S
H1133 C1109 0.949 . S
H1134 C1111 0.950 . S
H1135 C1113 0.950 . S
C1136 C1137 1.349 . S
C1136 C1138 1.327 . S
C1136 H1161 0.950 . S
C1137 C1136 1.349 . S
C1137 C1153 1.349 . S
C1138 C1136 1.327 . S
C1138 C1157 1.429 . S
C1138 H1162 0.950 . S
C1139 C1156 1.574 . S
C1139 C1158 1.368 . S
C1139 H1163 0.949 . S
H1140 C1144 0.949 . S
C1141 C1142 1.349 . S
C1141 C1143 1.327 . S
C1141 H1164 0.950 . S
C1142 C1141 1.349 . S
C1142 C1154 1.349 . S
C1143 C1141 1.327 . S
C1143 C1159 1.429 . S
C1143 H1165 0.950 . S
C1144 H1140 0.949 . S
C1144 C1152 1.574 . S
C1144 C1160 1.368 . S
H1145 C1153 0.950 . S
H1146 C1151 0.950 . S
H1147 C1152 0.949 . S
H1148 C1154 0.950 . S
H1149 C1155 0.950 . S
H1150 C1156 0.949 . S
C1151 H1146 0.950 . S
C1151 C1153 1.327 . S
C1151 C1157 1.429 . S
C1152 C1144 1.574 . S
C1152 H1147 0.949 . S
C1152 C1158 1.368 . S
C1153 C1137 1.349 . S
C1153 H1145 0.950 . S
C1153 C1151 1.327 . S
C1154 C1142 1.349 . S
C1154 H1148 0.950 . S
C1154 C1155 1.327 . S
C1155 H1149 0.950 . S
C1155 C1154 1.327 . S
C1155 C1159 1.429 . S
C1156 C1139 1.574 . S
C1156 H1150 0.949 . S
C1156 C1160 1.368 . S
C1157 C1138 1.429 . S
C1157 C1151 1.429 . S
C1157 C1158 1.523 . S
C1158 C1139 1.368 . S
C1158 C1152 1.368 . S
C1158 C1157 1.523 . S
C1159 C1143 1.429 . S
C1159 C1155 1.429 . S
C1159 C1160 1.523 . S
C1160 C1144 1.368 . S
C1160 C1156 1.368 . S
C1160 C1159 1.523 . S
H1161 C1136 0.950 . S
H1162 C1138 0.950 . S
H1163 C1139 0.949 . S
H1164 C1141 0.950 . S
H1165 C1143 0.950 . S
C1166 C1167 1.349 . S
C1166 C1168 1.327 . S
C1166 H1191 0.950 . S
C1167 C1166 1.349 . S
C1167 C1183 1.349 . S
C1168 C1166 1.327 . S
C1168 C1187 1.429 . S
C1168 H1192 0.950 . S
C1169 C1186 1.574 . S
C1169 C1188 1.368 . S
C1169 H1193 0.949 . S
H1170 C1174 0.949 . S
C1171 C1172 1.349 . S
C1171 C1173 1.327 . S
C1171 H1194 0.950 . S
C1172 C1171 1.349 . S
C1172 C1184 1.349 . S
C1173 C1171 1.327 . S
C1173 C1189 1.429 . S
C1173 H1195 0.950 . S
C1174 H1170 0.949 . S
C1174 C1182 1.574 . S
C1174 C1190 1.368 . S
H1175 C1183 0.950 . S
H1176 C1181 0.950 . S
H1177 C1182 0.949 . S
H1178 C1184 0.950 . S
H1179 C1185 0.950 . S
H1180 C1186 0.949 . S
C1181 H1176 0.950 . S
C1181 C1183 1.327 . S
C1181 C1187 1.429 . S
C1182 C1174 1.574 . S
C1182 H1177 0.949 . S
C1182 C1188 1.368 . S
C1183 C1167 1.349 . S
C1183 H1175 0.950 . S
C1183 C1181 1.327 . S
C1184 C1172 1.349 . S
C1184 H1178 0.950 . S
C1184 C1185 1.327 . S
C1185 H1179 0.950 . S
C1185 C1184 1.327 . S
C1185 C1189 1.429 . S
C1186 C1169 1.574 . S
C1186 H1180 0.949 . S
C1186 C1190 1.368 . S
C1187 C1168 1.429 . S
C1187 C1181 1.429 . S
C1187 C1188 1.523 . S
C1188 C1169 1.368 . S
C1188 C1182 1.368 . S
C1188 C1187 1.523 . S
C1189 C1173 1.429 . S
C1189 C1185 1.429 . S
C1189 C1190 1.523 . S
C1190 C1174 1.368 . S
C1190 C1186 1.368 . S
C1190 C1189 1.523 . S
H1191 C1166 0.950 . S
H1192 C1168 0.950 . S
H1193 C1169 0.949 . S
H1194 C1171 0.950 . S
H1195 C1173 0.950 . S
C1196 C1197 1.349 . S
C1196 C1198 1.327 . S
C1196 H1221 0.950 . S
C1197 C1196 1.349 . S
C1197 C1213 1.349 . S
C1198 C1196 1.327 . S
C1198 C1217 1.429 . S
C1198 H1222 0.950 . S
C1199 C1216 1.574 . S
C1199 C1218 1.368 . S
C1199 H1223 0.949 . S
H1200 C1204 0.949 . S
C1201 C1202 1.349 . S
C1201 C1203 1.327 . S
C1201 H1224 0.950 . S
C1202 C1201 1.349 . S
C1202 C1214 1.349 . S
C1203 C1201 1.327 . S
C1203 C1219 1.429 . S
C1203 H1225 0.950 . S
C1204 H1200 0.949 . S
C1204 C1212 1.574 . S
C1204 C1220 1.368 . S
H1205 C1213 0.950 . S
H1206 C1211 0.950 . S
H1207 C1212 0.949 . S
H1208 C1214 0.950 . S
H1209 C1215 0.950 . S
H1210 C1216 0.949 . S
C1211 H1206 0.950 . S
C1211 C1213 1.327 . S
C1211 C1217 1.429 . S
C1212 C1204 1.574 . S
C1212 H1207 0.949 . S
C1212 C1218 1.368 . S
C1213 C1197 1.349 . S
C1213 H1205 0.950 . S
C1213 C1211 1.327 . S
C1214 C1202 1.349 . S
C1214 H1208 0.950 . S
C1214 C1215 1.327 . S
C1215 H1209 0.950 . S
C1215 C1214 1.327 . S
C1215 C1219 1.429 . S
C1216 C1199 1.574 . S
C1216 H1210 0.949 . S
C1216 C1220 1.368 . S
C1217 C1198 1.429 . S
C1217 C1211 1.429 . S
C1217 C1218 1.523 . S
C1218 C1199 1.368 . S
C1218 C1212 1.368 . S
C1218 C1217 1.523 . S
C1219 C1203 1.429 . S
C1219 C1215 1.429 . S
C1219 C1220 1.523 . S
C1220 C1204 1.368 . S
C1220 C1216 1.368 . S
C1220 C1219 1.523 . S
H1221 C1196 0.950 . S
H1222 C1198 0.950 . S
H1223 C1199 0.949 . S
H1224 C1201 0.950 . S
H1225 C1203 0.950 . S
C1226 C1227 1.349 . S
C1226 C1228 1.283 1_655 S
C1226 H1251 0.950 . S
C1227 C1226 1.349 . S
C1227 C1243 1.302 1_655 S
C1228 C1226 1.283 1_455 S
C1228 C1247 1.475 . S
C1228 H1252 0.949 . S
C1229 C1246 1.574 . S
C1229 C1248 1.368 . S
C1229 H1253 0.949 . S
H1230 C1234 0.949 . S
C1231 C1232 1.349 . S
C1231 C1233 1.327 . S
C1231 H1254 0.950 . S
C1232 C1231 1.349 . S
C1232 C1244 1.349 . S
C1233 C1231 1.327 . S
C1233 C1249 1.429 . S
C1233 H1255 0.950 . S
C1234 H1230 0.949 . S
C1234 C1242 1.574 . S
C1234 C1250 1.368 . S
H1235 C1243 0.950 . S
H1236 C1241 0.950 . S
H1237 C1242 0.949 . S
H1238 C1244 0.950 . S
H1239 C1245 0.950 . S
H1240 C1246 0.949 . S
C1241 H1236 0.950 . S
C1241 C1243 1.377 . S
C1241 C1247 1.429 . S
C1242 C1234 1.574 . S
C1242 H1237 0.949 . S
C1242 C1248 1.368 . S
C1243 C1227 1.302 1_455 S
C1243 H1235 0.950 . S
C1243 C1241 1.377 . S
C1244 C1232 1.349 . S
C1244 H1238 0.950 . S
C1244 C1245 1.327 . S
C1245 H1239 0.950 . S
C1245 C1244 1.327 . S
C1245 C1249 1.429 . S
C1246 C1229 1.574 . S
C1246 H1240 0.949 . S
C1246 C1250 1.368 . S
C1247 C1228 1.475 . S
C1247 C1241 1.429 . S
C1247 C1248 1.523 . S
C1248 C1229 1.368 . S
C1248 C1242 1.368 . S
C1248 C1247 1.523 . S
C1249 C1233 1.429 . S
C1249 C1245 1.429 . S
C1249 C1250 1.523 . S
C1250 C1234 1.368 . S
C1250 C1246 1.368 . S
C1250 C1249 1.523 . S
H1251 C1226 0.950 . S
H1252 C1228 0.949 . S
H1253 C1229 0.949 . S
H1254 C1231 0.950 . S
H1255 C1233 0.950 . S
C1256 C1257 1.349 . S
C1256 C1258 1.327 . S
C1256 H1281 0.950 . S
C1257 C1256 1.349 . S
C1257 C1273 1.349 . S
C1258 C1256 1.327 . S
C1258 C1277 1.429 . S
C1258 H1282 0.950 . S
C1259 C1276 1.574 . S
C1259 C1278 1.368 . S
C1259 H1283 0.949 . S
H1260 C1264 0.949 . S
C1261 C1262 1.349 . S
C1261 C1263 1.327 . S
C1261 H1284 0.950 . S
C1262 C1261 1.349 . S
C1262 C1274 1.349 . S
C1263 C1261 1.327 . S
C1263 C1279 1.429 . S
C1263 H1285 0.950 . S
C1264 H1260 0.949 . S
C1264 C1272 1.574 . S
C1264 C1280 1.368 . S
H1265 C1273 0.950 . S
H1266 C1271 0.950 . S
H1267 C1272 0.949 . S
H1268 C1274 0.950 . S
H1269 C1275 0.950 . S
H1270 C1276 0.949 . S
C1271 H1266 0.950 . S
C1271 C1273 1.327 . S
C1271 C1277 1.429 . S
C1272 C1264 1.574 . S
C1272 H1267 0.949 . S
C1272 C1278 1.368 . S
C1273 C1257 1.349 . S
C1273 H1265 0.950 . S
C1273 C1271 1.327 . S
C1274 C1262 1.349 . S
C1274 H1268 0.950 . S
C1274 C1275 1.327 . S
C1275 H1269 0.950 . S
C1275 C1274 1.327 . S
C1275 C1279 1.429 . S
C1276 C1259 1.574 . S
C1276 H1270 0.949 . S
C1276 C1280 1.368 . S
C1277 C1258 1.429 . S
C1277 C1271 1.429 . S
C1277 C1278 1.523 . S
C1278 C1259 1.368 . S
C1278 C1272 1.368 . S
C1278 C1277 1.523 . S
C1279 C1263 1.429 . S
C1279 C1275 1.429 . S
C1279 C1280 1.523 . S
C1280 C1264 1.368 . S
C1280 C1276 1.368 . S
C1280 C1279 1.523 . S
H1281 C1256 0.950 . S
H1282 C1258 0.950 . S
H1283 C1259 0.949 . S
H1284 C1261 0.950 . S
H1285 C1263 0.950 . S
C1286 C1287 1.349 . S
C1286 C1288 1.327 1_655 S
C1286 H1311 0.950 . S
C1287 C1286 1.349 . S
C1287 C1303 1.346 1_655 S
C1288 C1286 1.327 1_455 S
C1288 C1307 1.429 . S
C1288 H1312 0.950 . S
C1289 C1306 1.574 . S
C1289 C1308 1.368 . S
C1289 H1313 0.949 . S
H1290 C1294 0.949 . S
C1291 C1292 1.349 . S
C1291 C1293 1.327 . S
C1291 H1314 0.950 . S
C1292 C1291 1.349 . S
C1292 C1304 1.349 . S
C1293 C1291 1.327 . S
C1293 C1309 1.429 . S
C1293 H1315 0.950 . S
C1294 H1290 0.949 . S
C1294 C1302 1.574 . S
C1294 C1310 1.368 . S
H1295 C1303 0.948 1_655 S
H1296 C1301 0.950 . S
H1297 C1302 0.949 . S
H1298 C1304 0.950 . S
H1299 C1305 0.950 . S
H1300 C1306 0.949 . S
C1301 H1296 0.950 . S
C1301 C1303 1.331 . S
C1301 C1307 1.429 . S
C1302 C1294 1.574 . S
C1302 H1297 0.949 . S
C1302 C1308 1.368 . S
C1303 C1287 1.346 1_455 S
C1303 H1295 0.948 1_455 S
C1303 C1301 1.331 . S
C1304 C1292 1.349 . S
C1304 H1298 0.950 . S
C1304 C1305 1.327 . S
C1305 H1299 0.950 . S
C1305 C1304 1.327 . S
C1305 C1309 1.429 . S
C1306 C1289 1.574 . S
C1306 H1300 0.949 . S
C1306 C1310 1.368 . S
C1307 C1288 1.429 . S
C1307 C1301 1.429 . S
C1307 C1308 1.523 . S
C1308 C1289 1.368 . S
C1308 C1302 1.368 . S
C1308 C1307 1.523 . S
C1309 C1293 1.429 . S
C1309 C1305 1.429 . S
C1309 C1310 1.523 . S
C1310 C1294 1.368 . S
C1310 C1306 1.368 . S
C1310 C1309 1.523 . S
H1311 C1286 0.950 . S
H1312 C1288 0.950 . S
H1313 C1289 0.949 . S
H1314 C1291 0.950 . S
H1315 C1293 0.950 . S
C1316 C1317 1.349 . S
C1316 C1318 1.327 . S
C1316 H1341 0.950 . S
C1317 C1316 1.349 . S
C1317 C1333 1.349 . S
C1318 C1316 1.327 . S
C1318 C1337 1.429 . S
C1318 H1342 0.950 . S
C1319 C1336 1.574 . S
C1319 C1338 1.368 . S
C1319 H1343 0.949 . S
H1320 C1324 0.949 . S
C1321 C1322 1.349 . S
C1321 C1323 1.327 . S
C1321 H1344 0.950 . S
C1322 C1321 1.349 . S
C1322 C1334 1.349 . S
C1323 C1321 1.327 . S
C1323 C1339 1.429 . S
C1323 H1345 0.950 . S
C1324 H1320 0.949 . S
C1324 C1332 1.574 . S
C1324 C1340 1.368 . S
H1325 C1333 0.950 . S
H1326 C1331 0.950 . S
H1327 C1332 0.949 . S
H1328 C1334 0.950 . S
H1329 C1335 0.950 . S
H1330 C1336 0.949 . S
C1331 H1326 0.950 . S
C1331 C1333 1.327 . S
C1331 C1337 1.429 . S
C1332 C1324 1.574 . S
C1332 H1327 0.949 . S
C1332 C1338 1.368 . S
C1333 C1317 1.349 . S
C1333 H1325 0.950 . S
C1333 C1331 1.327 . S
C1334 C1322 1.349 . S
C1334 H1328 0.950 . S
C1334 C1335 1.327 . S
C1335 H1329 0.950 . S
C1335 C1334 1.327 . S
C1335 C1339 1.429 . S
C1336 C1319 1.574 . S
C1336 H1330 0.949 . S
C1336 C1340 1.368 . S
C1337 C1318 1.429 . S
C1337 C1331 1.429 . S
C1337 C1338 1.523 . S
C1338 C1319 1.368 . S
C1338 C1332 1.368 . S
C1338 C1337 1.523 . S
C1339 C1323 1.429 . S
C1339 C1335 1.429 . S
C1339 C1340 1.523 . S
C1340 C1324 1.368 . S
C1340 C1336 1.368 . S
C1340 C1339 1.523 . S
H1341 C1316 0.950 . S
H1342 C1318 0.950 . S
H1343 C1319 0.949 . S
H1344 C1321 0.950 . S
H1345 C1323 0.950 . S
C1346 C1347 1.349 . S
C1346 C1348 1.327 . S
C1346 H1371 0.950 . S
C1347 C1346 1.349 . S
C1347 C1363 1.349 . S
C1348 C1346 1.327 . S
C1348 C1367 1.429 . S
C1348 H1372 0.950 . S
C1349 C1366 1.574 . S
C1349 C1368 1.368 . S
C1349 H1373 0.949 . S
H1350 C1354 0.949 . S
C1351 C1352 1.349 . S
C1351 C1353 1.327 . S
C1351 H1374 0.950 . S
C1352 C1351 1.349 . S
C1352 C1364 1.349 . S
C1353 C1351 1.327 . S
C1353 C1369 1.429 . S
C1353 H1375 0.950 . S
C1354 H1350 0.949 . S
C1354 C1362 1.574 . S
C1354 C1370 1.368 . S
H1355 C1363 0.950 . S
H1356 C1361 0.950 . S
H1357 C1362 0.949 . S
H1358 C1364 0.950 . S
H1359 C1365 0.950 . S
H1360 C1366 0.949 . S
C1361 H1356 0.950 . S
C1361 C1363 1.327 . S
C1361 C1367 1.429 . S
C1362 C1354 1.574 . S
C1362 H1357 0.949 . S
C1362 C1368 1.368 . S
C1363 C1347 1.349 . S
C1363 H1355 0.950 . S
C1363 C1361 1.327 . S
C1364 C1352 1.349 . S
C1364 H1358 0.950 . S
C1364 C1365 1.327 . S
C1365 H1359 0.950 . S
C1365 C1364 1.327 . S
C1365 C1369 1.429 . S
C1366 C1349 1.574 . S
C1366 H1360 0.949 . S
C1366 C1370 1.368 . S
C1367 C1348 1.429 . S
C1367 C1361 1.429 . S
C1367 C1368 1.523 . S
C1368 C1349 1.368 . S
C1368 C1362 1.368 . S
C1368 C1367 1.523 . S
C1369 C1353 1.429 . S
C1369 C1365 1.429 . S
C1369 C1370 1.523 . S
C1370 C1354 1.368 . S
C1370 C1366 1.368 . S
C1370 C1369 1.523 . S
H1371 C1346 0.950 . S
H1372 C1348 0.950 . S
H1373 C1349 0.949 . S
H1374 C1351 0.950 . S
H1375 C1353 0.950 . S
C1376 C1377 1.349 . S
C1376 C1378 1.327 . S
C1376 H1401 0.950 . S
C1377 C1376 1.349 . S
C1377 C1393 1.349 . S
C1378 C1376 1.327 . S
C1378 C1397 1.429 . S
C1378 H1402 0.950 . S
C1379 C1396 1.574 . S
C1379 C1398 1.368 . S
C1379 H1403 0.949 . S
H1380 C1384 0.949 . S
C1381 C1382 1.349 . S
C1381 C1383 1.327 . S
C1381 H1404 0.950 . S
C1382 C1381 1.349 . S
C1382 C1394 1.349 . S
C1383 C1381 1.327 . S
C1383 C1399 1.429 . S
C1383 H1405 0.950 . S
C1384 H1380 0.949 . S
C1384 C1392 1.574 . S
C1384 C1400 1.368 . S
H1385 C1393 0.950 . S
H1386 C1391 0.950 . S
H1387 C1392 0.949 . S
H1388 C1394 0.950 . S
H1389 C1395 0.950 . S
H1390 C1396 0.949 . S
C1391 H1386 0.950 . S
C1391 C1393 1.327 . S
C1391 C1397 1.429 . S
C1392 C1384 1.574 . S
C1392 H1387 0.949 . S
C1392 C1398 1.368 . S
C1393 C1377 1.349 . S
C1393 H1385 0.950 . S
C1393 C1391 1.327 . S
C1394 C1382 1.349 . S
C1394 H1388 0.950 . S
C1394 C1395 1.327 . S
C1395 H1389 0.950 . S
C1395 C1394 1.327 . S
C1395 C1399 1.429 . S
C1396 C1379 1.574 . S
C1396 H1390 0.949 . S
C1396 C1400 1.368 . S
C1397 C1378 1.429 . S
C1397 C1391 1.429 . S
C1397 C1398 1.523 . S
C1398 C1379 1.368 . S
C1398 C1392 1.368 . S
C1398 C1397 1.523 . S
C1399 C1383 1.429 . S
C1399 C1395 1.429 . S
C1399 C1400 1.523 . S
C1400 C1384 1.368 . S
C1400 C1396 1.368 . S
C1400 C1399 1.523 . S
H1401 C1376 0.950 . S
H1402 C1378 0.950 . S
H1403 C1379 0.949 . S
H1404 C1381 0.950 . S
H1405 C1383 0.950 . S
C1406 C1407 1.349 . S
C1406 C1408 1.327 . S
C1406 H1431 0.950 . S
C1407 C1406 1.349 . S
C1407 C1423 1.349 . S
C1408 C1406 1.327 . S
C1408 C1427 1.429 . S
C1408 H1432 0.950 . S
C1409 C1426 1.574 1_565 S
C1409 C1428 1.368 . S
C1409 H1433 0.949 . S
H1410 C1414 0.949 . S
C1411 C1412 1.349 . S
C1411 C1413 1.327 . S
C1411 H1434 0.950 . S
C1412 C1411 1.349 . S
C1412 C1424 1.349 . S
C1413 C1411 1.327 . S
C1413 C1429 1.429 . S
C1413 H1435 0.950 . S
C1414 H1410 0.949 . S
C1414 C1422 1.574 1_545 S
C1414 C1430 1.368 . S
H1415 C1423 0.950 . S
H1416 C1421 0.950 . S
H1417 C1422 0.949 . S
H1418 C1424 0.950 . S
H1419 C1425 0.950 . S
H1420 C1426 0.949 . S
C1421 H1416 0.950 . S
C1421 C1423 1.327 . S
C1421 C1427 1.429 . S
C1422 C1414 1.574 1_565 S
C1422 H1417 0.949 . S
C1422 C1428 1.368 1_455 S
C1423 C1407 1.349 . S
C1423 H1415 0.950 . S
C1423 C1421 1.327 . S
C1424 C1412 1.349 . S
C1424 H1418 0.950 . S
C1424 C1425 1.327 . S
C1425 H1419 0.950 . S
C1425 C1424 1.327 . S
C1425 C1429 1.429 . S
C1426 C1409 1.574 1_545 S
C1426 H1420 0.949 . S
C1426 C1430 1.368 1_655 S
C1427 C1408 1.429 . S
C1427 C1421 1.429 . S
C1427 C1428 1.523 . S
C1428 C1409 1.368 . S
C1428 C1422 1.368 1_655 S
C1428 C1427 1.523 . S
C1429 C1413 1.429 . S
C1429 C1425 1.429 . S
C1429 C1430 1.523 . S
C1430 C1414 1.368 . S
C1430 C1426 1.368 1_455 S
C1430 C1429 1.523 . S
H1431 C1406 0.950 . S
H1432 C1408 0.950 . S
H1433 C1409 0.949 . S
H1434 C1411 0.950 . S
H1435 C1413 0.950 . S
C1436 C1437 1.349 . S
C1436 C1438 1.327 . S
C1436 H1461 0.950 . S
C1437 C1436 1.349 . S
C1437 C1453 1.349 . S
C1438 C1436 1.327 . S
C1438 C1457 1.429 . S
C1438 H1462 0.950 . S
C1439 C1456 1.574 . S
C1439 C1458 1.368 . S
C1439 H1463 0.949 . S
H1440 C1444 0.949 . S
C1441 C1442 1.349 . S
C1441 C1443 1.327 . S
C1441 H1464 0.950 . S
C1442 C1441 1.349 . S
C1442 C1454 1.349 . S
C1443 C1441 1.327 . S
C1443 C1459 1.429 . S
C1443 H1465 0.950 . S
C1444 H1440 0.949 . S
C1444 C1452 1.574 . S
C1444 C1460 1.368 . S
H1445 C1453 0.950 . S
H1446 C1451 0.950 . S
H1447 C1452 0.949 . S
H1448 C1454 0.950 . S
H1449 C1455 0.950 . S
H1450 C1456 0.949 . S
C1451 H1446 0.950 . S
C1451 C1453 1.327 . S
C1451 C1457 1.429 . S
C1452 C1444 1.574 . S
C1452 H1447 0.949 . S
C1452 C1458 1.368 . S
C1453 C1437 1.349 . S
C1453 H1445 0.950 . S
C1453 C1451 1.327 . S
C1454 C1442 1.349 . S
C1454 H1448 0.950 . S
C1454 C1455 1.327 . S
C1455 H1449 0.950 . S
C1455 C1454 1.327 . S
C1455 C1459 1.429 . S
C1456 C1439 1.574 . S
C1456 H1450 0.949 . S
C1456 C1460 1.368 . S
C1457 C1438 1.429 . S
C1457 C1451 1.429 . S
C1457 C1458 1.523 . S
C1458 C1439 1.368 . S
C1458 C1452 1.368 . S
C1458 C1457 1.523 . S
C1459 C1443 1.429 . S
C1459 C1455 1.429 . S
C1459 C1460 1.523 . S
C1460 C1444 1.368 . S
C1460 C1456 1.368 . S
C1460 C1459 1.523 . S
H1461 C1436 0.950 . S
H1462 C1438 0.950 . S
H1463 C1439 0.949 . S
H1464 C1441 0.950 . S
H1465 C1443 0.950 . S
C1466 C1467 1.349 . S
C1466 C1468 1.327 . S
C1466 H1491 0.950 . S
C1467 C1466 1.349 . S
C1467 C1483 1.349 1_554 S
C1468 C1466 1.327 . S
C1468 C1487 1.429 . S
C1468 H1492 0.950 . S
C1469 C1486 1.574 1_545 S
C1469 C1488 1.368 1_556 S
C1469 H1493 0.949 . S
H1470 C1474 0.949 . S
C1471 C1472 1.349 . S
C1471 C1473 1.327 . S
C1471 H1494 0.950 . S
C1472 C1471 1.349 . S
C1472 C1484 1.349 1_556 S
C1473 C1471 1.327 . S
C1473 C1489 1.429 . S
C1473 H1495 0.950 . S
C1474 H1470 0.949 . S
C1474 C1482 1.574 1_565 S
C1474 C1490 1.368 1_554 S
H1475 C1483 0.950 . S
H1476 C1481 0.950 . S
H1477 C1482 0.949 . S
H1478 C1484 0.950 . S
H1479 C1485 0.950 . S
H1480 C1486 0.949 . S
C1481 H1476 0.950 . S
C1481 C1483 1.327 . S
C1481 C1487 1.429 1_556 S
C1482 C1474 1.574 1_545 S
C1482 H1477 0.949 . S
C1482 C1488 1.368 . S
C1483 C1467 1.349 1_556 S
C1483 H1475 0.950 . S
C1483 C1481 1.327 . S
C1484 C1472 1.349 1_554 S
C1484 H1478 0.950 . S
C1484 C1485 1.327 . S
C1485 H1479 0.950 . S
C1485 C1484 1.327 . S
C1485 C1489 1.429 1_554 S
C1486 C1469 1.574 1_565 S
C1486 H1480 0.949 . S
C1486 C1490 1.368 . S
C1487 C1468 1.429 . S
C1487 C1481 1.429 1_554 S
C1487 C1488 1.523 . S
C1488 C1469 1.368 1_554 S
C1488 C1482 1.368 . S
C1488 C1487 1.523 . S
C1489 C1473 1.429 . S
C1489 C1485 1.429 1_556 S
C1489 C1490 1.523 . S
C1490 C1474 1.368 1_556 S
C1490 C1486 1.368 . S
C1490 C1489 1.523 . S
H1491 C1466 0.950 . S
H1492 C1468 0.950 . S
H1493 C1469 0.949 . S
H1494 C1471 0.950 . S
H1495 C1473 0.950 . S
C1496 C1497 1.349 . S
C1496 C1498 1.327 . S
C1496 H1521 0.950 . S
C1497 C1496 1.349 . S
C1497 C1513 1.349 . S
C1498 C1496 1.327 . S
C1498 C1517 1.429 . S
C1498 H1522 0.950 . S
C1499 C1516 1.574 . S
C1499 C1518 1.368 . S
C1499 H1523 0.949 . S
H1500 C1504 0.949 . S
C1501 C1502 1.349 . S
C1501 C1503 1.327 . S
C1501 H1524 0.950 . S
C1502 C1501 1.349 . S
C1502 C1514 1.349 . S
C1503 C1501 1.327 . S
C1503 C1519 1.429 . S
C1503 H1525 0.950 . S
C1504 H1500 0.949 . S
C1504 C1512 1.574 . S
C1504 C1520 1.368 . S
H1505 C1513 0.950 . S
H1506 C1511 0.950 . S
H1507 C1512 0.949 . S
H1508 C1514 0.950 . S
H1509 C1515 0.950 . S
H1510 C1516 0.949 . S
C1511 H1506 0.950 . S
C1511 C1513 1.327 . S
C1511 C1517 1.429 . S
C1512 C1504 1.574 . S
C1512 H1507 0.949 . S
C1512 C1518 1.368 . S
C1513 C1497 1.349 . S
C1513 H1505 0.950 . S
C1513 C1511 1.327 . S
C1514 C1502 1.349 . S
C1514 H1508 0.950 . S
C1514 C1515 1.327 . S
C1515 H1509 0.950 . S
C1515 C1514 1.327 . S
C1515 C1519 1.429 . S
C1516 C1499 1.574 . S
C1516 H1510 0.949 . S
C1516 C1520 1.368 . S
C1517 C1498 1.429 . S
C1517 C1511 1.429 . S
C1517 C1518 1.523 . S
C1518 C1499 1.368 . S
C1518 C1512 1.368 . S
C1518 C1517 1.523 . S
C1519 C1503 1.429 . S
C1519 C1515 1.429 . S
C1519 C1520 1.523 . S
C1520 C1504 1.368 . S
C1520 C1516 1.368 . S
C1520 C1519 1.523 . S
H1521 C1496 0.950 . S
H1522 C1498 0.950 . S
H1523 C1499 0.949 . S
H1524 C1501 0.950 . S
H1525 C1503 0.950 . S
C1526 C1527 1.349 . S
C1526 C1528 1.327 . S
C1526 H1551 0.950 . S
C1527 C1526 1.349 . S
C1527 C1543 1.349 . S
C1528 C1526 1.327 . S
C1528 C1547 1.429 . S
C1528 H1552 0.950 . S
C1529 C1546 1.574 1_565 S
C1529 C1548 1.368 . S
C1529 H1553 0.949 . S
H1530 C1534 0.949 . S
C1531 C1532 1.349 . S
C1531 C1533 1.327 . S
C1531 H1554 0.950 . S
C1532 C1531 1.349 . S
C1532 C1544 1.349 . S
C1533 C1531 1.327 . S
C1533 C1549 1.429 . S
C1533 H1555 0.950 . S
C1534 H1530 0.949 . S
C1534 C1542 1.574 1_545 S
C1534 C1550 1.368 . S
H1535 C1543 0.950 . S
H1536 C1541 0.950 . S
H1537 C1542 0.949 . S
H1538 C1544 0.950 . S
H1539 C1545 0.950 . S
H1540 C1546 0.949 . S
C1541 H1536 0.950 . S
C1541 C1543 1.327 . S
C1541 C1547 1.429 . S
C1542 C1534 1.574 1_565 S
C1542 H1537 0.949 . S
C1542 C1548 1.368 . S
C1543 C1527 1.349 . S
C1543 H1535 0.950 . S
C1543 C1541 1.327 . S
C1544 C1532 1.349 . S
C1544 H1538 0.950 . S
C1544 C1545 1.327 . S
C1545 H1539 0.950 . S
C1545 C1544 1.327 . S
C1545 C1549 1.429 . S
C1546 C1529 1.574 1_545 S
C1546 H1540 0.949 . S
C1546 C1550 1.368 . S
C1547 C1528 1.429 . S
C1547 C1541 1.429 . S
C1547 C1548 1.523 . S
C1548 C1529 1.368 . S
C1548 C1542 1.368 . S
C1548 C1547 1.523 . S
C1549 C1533 1.429 . S
C1549 C1545 1.429 . S
C1549 C1550 1.523 . S
C1550 C1534 1.368 . S
C1550 C1546 1.368 . S
C1550 C1549 1.523 . S
H1551 C1526 0.950 . S
H1552 C1528 0.950 . S
H1553 C1529 0.949 . S
H1554 C1531 0.950 . S
H1555 C1533 0.950 . S
C1556 C1557 1.349 . S
C1556 C1558 1.327 . S
C1556 H1581 0.950 . S
C1557 C1556 1.349 . S
C1557 C1573 1.349 . S
C1558 C1556 1.327 . S
C1558 C1577 1.429 . S
C1558 H1582 0.950 . S
C1559 C1576 1.574 . S
C1559 C1578 1.368 . S
C1559 H1583 0.949 . S
H1560 C1564 0.949 . S
C1561 C1562 1.349 . S
C1561 C1563 1.327 . S
C1561 H1584 0.950 . S
C1562 C1561 1.349 . S
C1562 C1574 1.349 . S
C1563 C1561 1.327 . S
C1563 C1579 1.429 . S
C1563 H1585 0.950 . S
C1564 H1560 0.949 . S
C1564 C1572 1.574 . S
C1564 C1580 1.368 . S
H1565 C1573 0.950 . S
H1566 C1571 0.950 . S
H1567 C1572 0.949 . S
H1568 C1574 0.950 . S
H1569 C1575 0.950 . S
H1570 C1576 0.949 . S
C1571 H1566 0.950 . S
C1571 C1573 1.327 . S
C1571 C1577 1.429 . S
C1572 C1564 1.574 . S
C1572 H1567 0.949 . S
C1572 C1578 1.368 . S
C1573 C1557 1.349 . S
C1573 H1565 0.950 . S
C1573 C1571 1.327 . S
C1574 C1562 1.349 . S
C1574 H1568 0.950 . S
C1574 C1575 1.327 . S
C1575 H1569 0.950 . S
C1575 C1574 1.327 . S
C1575 C1579 1.429 . S
C1576 C1559 1.574 . S
C1576 H1570 0.949 . S
C1576 C1580 1.368 . S
C1577 C1558 1.429 . S
C1577 C1571 1.429 . S
C1577 C1578 1.523 . S
C1578 C1559 1.368 . S
C1578 C1572 1.368 . S
C1578 C1577 1.523 . S
C1579 C1563 1.429 . S
C1579 C1575 1.429 . S
C1579 C1580 1.523 . S
C1580 C1564 1.368 . S
C1580 C1576 1.368 . S
C1580 C1579 1.523 . S
H1581 C1556 0.950 . S
H1582 C1558 0.950 . S
H1583 C1559 0.949 . S
H1584 C1561 0.950 . S
H1585 C1563 0.950 . S
C1586 C1587 1.349 . S
C1586 C1588 1.327 . S
C1586 H1611 0.950 . S
C1587 C1586 1.349 . S
C1587 C1603 1.349 1_556 S
C1588 C1586 1.327 . S
C1588 C1607 1.429 . S
C1588 H1612 0.950 . S
C1589 C1606 1.574 1_645 S
C1589 C1608 1.368 1_554 S
C1589 H1613 0.949 . S
H1590 C1594 0.949 . S
C1591 C1592 1.349 . S
C1591 C1593 1.327 . S
C1591 H1614 0.950 . S
C1592 C1591 1.349 . S
C1592 C1604 1.349 1_554 S
C1593 C1591 1.327 . S
C1593 C1609 1.429 . S
C1593 H1615 0.950 . S
C1594 H1590 0.949 . S
C1594 C1602 1.574 1_465 S
C1594 C1610 1.368 1_556 S
H1595 C1603 0.950 . S
H1596 C1601 0.950 . S
H1597 C1602 0.949 . S
H1598 C1604 0.950 . S
H1599 C1605 0.950 . S
H1600 C1606 0.949 . S
C1601 H1596 0.950 . S
C1601 C1603 1.327 . S
C1601 C1607 1.429 1_554 S
C1602 C1594 1.574 1_645 S
C1602 H1597 0.949 . S
C1602 C1608 1.368 . S
C1603 C1587 1.349 1_554 S
C1603 H1595 0.950 . S
C1603 C1601 1.327 . S
C1604 C1592 1.349 1_556 S
C1604 H1598 0.950 . S
C1604 C1605 1.327 . S
C1605 H1599 0.950 . S
C1605 C1604 1.327 . S
C1605 C1609 1.429 1_556 S
C1606 C1589 1.574 1_465 S
C1606 H1600 0.949 . S
C1606 C1610 1.368 . S
C1607 C1588 1.429 . S
C1607 C1601 1.429 1_556 S
C1607 C1608 1.523 . S
C1608 C1589 1.368 1_556 S
C1608 C1602 1.368 . S
C1608 C1607 1.523 . S
C1609 C1593 1.429 . S
C1609 C1605 1.429 1_554 S
C1609 C1610 1.523 . S
C1610 C1594 1.368 1_554 S
C1610 C1606 1.368 . S
C1610 C1609 1.523 . S
H1611 C1586 0.950 . S
H1612 C1588 0.950 . S
H1613 C1589 0.949 . S
H1614 C1591 0.950 . S
H1615 C1593 0.950 . S
C1616 C1617 1.349 . S
C1616 C1618 1.327 . S
C1616 H1641 0.950 . S
C1617 C1616 1.349 . S
C1617 C1633 1.349 . S
C1618 C1616 1.327 . S
C1618 C1637 1.429 . S
C1618 H1642 0.950 . S
C1619 C1636 1.574 . S
C1619 C1638 1.368 . S
C1619 H1643 0.949 . S
H1620 C1624 0.949 . S
C1621 C1622 1.349 . S
C1621 C1623 1.327 . S
C1621 H1644 0.950 . S
C1622 C1621 1.349 . S
C1622 C1634 1.349 . S
C1623 C1621 1.327 . S
C1623 C1639 1.429 . S
C1623 H1645 0.950 . S
C1624 H1620 0.949 . S
C1624 C1632 1.574 . S
C1624 C1640 1.368 . S
H1625 C1633 0.950 . S
H1626 C1631 0.950 . S
H1627 C1632 0.949 . S
H1628 C1634 0.950 . S
H1629 C1635 0.950 . S
H1630 C1636 0.949 . S
C1631 H1626 0.950 . S
C1631 C1633 1.327 . S
C1631 C1637 1.429 . S
C1632 C1624 1.574 . S
C1632 H1627 0.949 . S
C1632 C1638 1.368 . S
C1633 C1617 1.349 . S
C1633 H1625 0.950 . S
C1633 C1631 1.327 . S
C1634 C1622 1.349 . S
C1634 H1628 0.950 . S
C1634 C1635 1.327 . S
C1635 H1629 0.950 . S
C1635 C1634 1.327 . S
C1635 C1639 1.429 . S
C1636 C1619 1.574 . S
C1636 H1630 0.949 . S
C1636 C1640 1.368 . S
C1637 C1618 1.429 . S
C1637 C1631 1.429 . S
C1637 C1638 1.523 . S
C1638 C1619 1.368 . S
C1638 C1632 1.368 . S
C1638 C1637 1.523 . S
C1639 C1623 1.429 . S
C1639 C1635 1.429 . S
C1639 C1640 1.523 . S
C1640 C1624 1.368 . S
C1640 C1636 1.368 . S
C1640 C1639 1.523 . S
H1641 C1616 0.950 . S
H1642 C1618 0.950 . S
H1643 C1619 0.949 . S
H1644 C1621 0.950 . S
H1645 C1623 0.950 . S
C1646 C1647 1.349 . S
C1646 C1648 1.327 . S
C1646 H1671 0.950 . S
C1647 C1646 1.349 . S
C1647 C1663 1.349 . S
C1648 C1646 1.327 . S
C1648 C1667 1.429 . S
C1648 H1672 0.950 . S
C1649 C1666 1.574 . S
C1649 C1668 1.368 . S
C1649 H1673 0.949 . S
H1650 C1654 0.949 . S
C1651 C1652 1.349 . S
C1651 C1653 1.327 . S
C1651 H1674 0.950 . S
C1652 C1651 1.349 . S
C1652 C1664 1.349 . S
C1653 C1651 1.327 . S
C1653 C1669 1.429 . S
C1653 H1675 0.950 . S
C1654 H1650 0.949 . S
C1654 C1662 1.574 . S
C1654 C1670 1.368 . S
H1655 C1663 0.950 . S
H1656 C1661 0.950 . S
H1657 C1662 0.949 . S
H1658 C1664 0.950 . S
H1659 C1665 0.950 . S
H1660 C1666 0.949 . S
C1661 H1656 0.950 . S
C1661 C1663 1.327 . S
C1661 C1667 1.429 . S
C1662 C1654 1.574 . S
C1662 H1657 0.949 . S
C1662 C1668 1.368 . S
C1663 C1647 1.349 . S
C1663 H1655 0.950 . S
C1663 C1661 1.327 . S
C1664 C1652 1.349 . S
C1664 H1658 0.950 . S
C1664 C1665 1.327 . S
C1665 H1659 0.950 . S
C1665 C1664 1.327 . S
C1665 C1669 1.429 . S
C1666 C1649 1.574 . S
C1666 H1660 0.949 . S
C1666 C1670 1.368 . S
C1667 C1648 1.429 . S
C1667 C1661 1.429 . S
C1667 C1668 1.523 . S
C1668 C1649 1.368 . S
C1668 C1662 1.368 . S
C1668 C1667 1.523 . S
C1669 C1653 1.429 . S
C1669 C1665 1.429 . S
C1669 C1670 1.523 . S
C1670 C1654 1.368 . S
C1670 C1666 1.368 . S
C1670 C1669 1.523 . S
H1671 C1646 0.950 . S
H1672 C1648 0.950 . S
H1673 C1649 0.949 . S
H1674 C1651 0.950 . S
H1675 C1653 0.950 . S
C1676 C1677 1.349 . S
C1676 C1678 1.327 . S
C1676 H1701 0.950 . S
C1677 C1676 1.349 . S
C1677 C1693 1.349 . S
C1678 C1676 1.327 . S
C1678 C1697 1.429 . S
C1678 H1702 0.950 . S
C1679 C1696 1.574 . S
C1679 C1698 1.368 . S
C1679 H1703 0.949 . S
H1680 C1684 0.949 . S
C1681 C1682 1.349 . S
C1681 C1683 1.327 . S
C1681 H1704 0.950 . S
C1682 C1681 1.349 . S
C1682 C1694 1.349 . S
C1683 C1681 1.327 . S
C1683 C1699 1.429 . S
C1683 H1705 0.950 . S
C1684 H1680 0.949 . S
C1684 C1692 1.574 . S
C1684 C1700 1.368 . S
H1685 C1693 0.950 . S
H1686 C1691 0.950 . S
H1687 C1692 0.949 . S
H1688 C1694 0.950 . S
H1689 C1695 0.950 . S
H1690 C1696 0.949 . S
C1691 H1686 0.950 . S
C1691 C1693 1.327 . S
C1691 C1697 1.429 . S
C1692 C1684 1.574 . S
C1692 H1687 0.949 . S
C1692 C1698 1.368 . S
C1693 C1677 1.349 . S
C1693 H1685 0.950 . S
C1693 C1691 1.327 . S
C1694 C1682 1.349 . S
C1694 H1688 0.950 . S
C1694 C1695 1.327 . S
C1695 H1689 0.950 . S
C1695 C1694 1.327 . S
C1695 C1699 1.429 . S
C1696 C1679 1.574 . S
C1696 H1690 0.949 . S
C1696 C1700 1.368 . S
C1697 C1678 1.429 . S
C1697 C1691 1.429 . S
C1697 C1698 1.523 . S
C1698 C1679 1.368 . S
C1698 C1692 1.368 . S
C1698 C1697 1.523 . S
C1699 C1683 1.429 . S
C1699 C1695 1.429 . S
C1699 C1700 1.523 . S
C1700 C1684 1.368 . S
C1700 C1696 1.368 . S
C1700 C1699 1.523 . S
H1701 C1676 0.950 . S
H1702 C1678 0.950 . S
H1703 C1679 0.949 . S
H1704 C1681 0.950 . S
H1705 C1683 0.950 . S
C1706 C1707 1.349 . S
C1706 C1708 1.327 . S
C1706 H1731 0.950 . S
C1707 C1706 1.349 . S
C1707 C1723 1.349 . S
C1708 C1706 1.327 . S
C1708 C1727 1.429 . S
C1708 H1732 0.950 . S
C1709 C1726 1.574 . S
C1709 C1728 1.368 . S
C1709 H1733 0.949 . S
H1710 C1714 0.949 . S
C1711 C1712 1.349 . S
C1711 C1713 1.327 . S
C1711 H1734 0.950 . S
C1712 C1711 1.349 . S
C1712 C1724 1.349 . S
C1713 C1711 1.327 . S
C1713 C1729 1.429 . S
C1713 H1735 0.950 . S
C1714 H1710 0.949 . S
C1714 C1722 1.574 . S
C1714 C1730 1.368 . S
H1715 C1723 0.950 . S
H1716 C1721 0.950 . S
H1717 C1722 0.949 . S
H1718 C1724 0.950 . S
H1719 C1725 0.950 . S
H1720 C1726 0.949 . S
C1721 H1716 0.950 . S
C1721 C1723 1.327 . S
C1721 C1727 1.429 . S
C1722 C1714 1.574 . S
C1722 H1717 0.949 . S
C1722 C1728 1.368 . S
C1723 C1707 1.349 . S
C1723 H1715 0.950 . S
C1723 C1721 1.327 . S
C1724 C1712 1.349 . S
C1724 H1718 0.950 . S
C1724 C1725 1.327 . S
C1725 H1719 0.950 . S
C1725 C1724 1.327 . S
C1725 C1729 1.429 . S
C1726 C1709 1.574 . S
C1726 H1720 0.949 . S
C1726 C1730 1.368 . S
C1727 C1708 1.429 . S
C1727 C1721 1.429 . S
C1727 C1728 1.523 . S
C1728 C1709 1.368 . S
C1728 C1722 1.368 . S
C1728 C1727 1.523 . S
C1729 C1713 1.429 . S
C1729 C1725 1.429 . S
C1729 C1730 1.523 . S
C1730 C1714 1.368 . S
C1730 C1726 1.368 . S
C1730 C1729 1.523 . S
H1731 C1706 0.950 . S
H1732 C1708 0.950 . S
H1733 C1709 0.949 . S
H1734 C1711 0.950 . S
H1735 C1713 0.950 . S
C1736 C1737 1.349 . S
C1736 C1738 1.327 . S
C1736 H1761 0.950 . S
C1737 C1736 1.349 . S
C1737 C1753 1.349 . S
C1738 C1736 1.327 . S
C1738 C1757 1.429 . S
C1738 H1762 0.950 . S
C1739 C1756 1.574 . S
C1739 C1758 1.368 1_556 S
C1739 H1763 0.949 . S
H1740 C1744 0.949 . S
C1741 C1742 1.349 . S
C1741 C1743 1.327 . S
C1741 H1764 0.950 . S
C1742 C1741 1.349 . S
C1742 C1754 1.349 . S
C1743 C1741 1.327 . S
C1743 C1759 1.429 . S
C1743 H1765 0.950 . S
C1744 H1740 0.949 . S
C1744 C1752 1.574 . S
C1744 C1760 1.368 1_554 S
H1745 C1753 0.963 . S
H1746 C1751 0.950 1_556 S
H1747 C1752 0.949 . S
H1748 C1754 0.963 . S
H1749 C1755 0.950 1_554 S
H1750 C1756 0.949 . S
C1751 H1746 0.950 1_554 S
C1751 C1753 1.327 . S
C1751 C1757 1.429 . S
C1752 C1744 1.574 . S
C1752 H1747 0.949 . S
C1752 C1758 1.368 . S
C1753 C1737 1.349 . S
C1753 H1745 0.963 . S
C1753 C1751 1.327 . S
C1754 C1742 1.349 . S
C1754 H1748 0.963 . S
C1754 C1755 1.327 . S
C1755 H1749 0.950 1_556 S
C1755 C1754 1.327 . S
C1755 C1759 1.429 . S
C1756 C1739 1.574 . S
C1756 H1750 0.949 . S
C1756 C1760 1.368 . S
C1757 C1738 1.429 . S
C1757 C1751 1.429 . S
C1757 C1758 1.523 . S
C1758 C1739 1.368 1_554 S
C1758 C1752 1.368 . S
C1758 C1757 1.523 . S
C1759 C1743 1.429 . S
C1759 C1755 1.429 . S
C1759 C1760 1.523 . S
C1760 C1744 1.368 1_556 S
C1760 C1756 1.368 . S
C1760 C1759 1.523 . S
H1761 C1736 0.950 . S
H1762 C1738 0.950 . S
H1763 C1739 0.949 . S
H1764 C1741 0.950 . S
H1765 C1743 0.950 . S
C1766 C1767 1.349 . S
C1766 C1768 1.327 . S
C1766 H1791 0.950 . S
C1767 C1766 1.349 . S
C1767 C1783 1.349 . S
C1768 C1766 1.327 . S
C1768 C1787 1.429 . S
C1768 H1792 0.950 . S
C1769 C1786 1.574 . S
C1769 C1788 1.368 . S
C1769 H1793 0.949 . S
H1770 C1774 0.949 . S
C1771 C1772 1.349 . S
C1771 C1773 1.327 . S
C1771 H1794 0.950 . S
C1772 C1771 1.349 . S
C1772 C1784 1.349 . S
C1773 C1771 1.327 . S
C1773 C1789 1.429 . S
C1773 H1795 0.950 . S
C1774 H1770 0.949 . S
C1774 C1782 1.574 . S
C1774 C1790 1.368 . S
H1775 C1783 0.950 . S
H1776 C1781 0.950 . S
H1777 C1782 0.949 . S
H1778 C1784 0.950 . S
H1779 C1785 0.950 . S
H1780 C1786 0.949 . S
C1781 H1776 0.950 . S
C1781 C1783 1.327 . S
C1781 C1787 1.429 . S
C1782 C1774 1.574 . S
C1782 H1777 0.949 . S
C1782 C1788 1.368 1_455 S
C1783 C1767 1.349 . S
C1783 H1775 0.950 . S
C1783 C1781 1.327 . S
C1784 C1772 1.349 . S
C1784 H1778 0.950 . S
C1784 C1785 1.327 . S
C1785 H1779 0.950 . S
C1785 C1784 1.327 . S
C1785 C1789 1.429 . S
C1786 C1769 1.574 . S
C1786 H1780 0.949 . S
C1786 C1790 1.368 1_655 S
C1787 C1768 1.429 . S
C1787 C1781 1.429 . S
C1787 C1788 1.523 . S
C1788 C1769 1.368 . S
C1788 C1782 1.368 1_655 S
C1788 C1787 1.523 . S
C1789 C1773 1.429 . S
C1789 C1785 1.429 . S
C1789 C1790 1.523 . S
C1790 C1774 1.368 . S
C1790 C1786 1.368 1_455 S
C1790 C1789 1.523 . S
H1791 C1766 0.950 . S
H1792 C1768 0.950 . S
H1793 C1769 0.949 . S
H1794 C1771 0.950 . S
H1795 C1773 0.950 . S
C1796 C1797 1.349 . S
C1796 C1798 1.327 . S
C1796 H1821 0.950 . S
C1797 C1796 1.349 . S
C1797 C1813 1.349 . S
C1798 C1796 1.327 . S
C1798 C1817 1.429 . S
C1798 H1822 0.950 . S
C1799 C1816 1.577 . S
C1799 C1818 1.365 1_654 S
C1799 H1823 0.949 . S
H1800 C1804 0.949 . S
C1801 C1802 1.349 . S
C1801 C1803 1.327 . S
C1801 H1824 0.950 . S
C1802 C1801 1.349 . S
C1802 C1814 1.349 . S
C1803 C1801 1.327 . S
C1803 C1819 1.429 . S
C1803 H1825 0.950 . S
C1804 H1800 0.949 . S
C1804 C1812 1.577 . S
C1804 C1820 1.365 1_456 S
H1805 C1813 0.950 . S
H1806 C1811 0.932 1_655 S
H1807 C1812 0.949 . S
H1808 C1814 0.950 . S
H1809 C1815 0.932 1_455 S
H1810 C1816 0.949 . S
C1811 H1806 0.932 1_455 S
C1811 C1813 1.327 . S
C1811 C1817 1.429 . S
C1812 C1804 1.577 . S
C1812 H1807 0.949 . S
C1812 C1818 1.368 . S
C1813 C1797 1.349 . S
C1813 H1805 0.950 . S
C1813 C1811 1.327 . S
C1814 C1802 1.349 . S
C1814 H1808 0.950 . S
C1814 C1815 1.327 . S
C1815 H1809 0.932 1_655 S
C1815 C1814 1.327 . S
C1815 C1819 1.429 . S
C1816 C1799 1.577 . S
C1816 H1810 0.949 . S
C1816 C1820 1.368 . S
C1817 C1798 1.429 . S
C1817 C1811 1.429 . S
C1817 C1818 1.523 . S
C1818 C1799 1.365 1_456 S
C1818 C1812 1.368 . S
C1818 C1817 1.523 . S
C1819 C1803 1.429 . S
C1819 C1815 1.429 . S
C1819 C1820 1.523 . S
C1820 C1804 1.365 1_654 S
C1820 C1816 1.368 . S
C1820 C1819 1.523 . S
H1821 C1796 0.950 . S
H1822 C1798 0.950 . S
H1823 C1799 0.949 . S
H1824 C1801 0.950 . S
H1825 C1803 0.950 . S
C1826 C1827 1.349 . S
C1826 C1828 1.327 . S
C1826 H1851 0.950 . S
C1827 C1826 1.349 . S
C1827 C1843 1.349 . S
C1828 C1826 1.327 . S
C1828 C1847 1.429 . S
C1828 H1852 0.950 . S
C1829 C1846 1.574 . S
C1829 C1848 1.368 . S
C1829 H1853 0.949 . S
H1830 C1834 0.949 . S
C1831 C1832 1.349 . S
C1831 C1833 1.327 . S
C1831 H1854 0.950 . S
C1832 C1831 1.349 . S
C1832 C1844 1.349 . S
C1833 C1831 1.327 . S
C1833 C1849 1.429 . S
C1833 H1855 0.950 . S
C1834 H1830 0.949 . S
C1834 C1842 1.574 . S
C1834 C1850 1.368 . S
H1835 C1843 0.950 . S
H1836 C1841 0.950 . S
H1837 C1842 0.949 . S
H1838 C1844 0.950 . S
H1839 C1845 0.950 . S
H1840 C1846 0.949 . S
C1841 H1836 0.950 . S
C1841 C1843 1.327 . S
C1841 C1847 1.429 . S
C1842 C1834 1.574 . S
C1842 H1837 0.949 . S
C1842 C1848 1.368 . S
C1843 C1827 1.349 . S
C1843 H1835 0.950 . S
C1843 C1841 1.327 . S
C1844 C1832 1.349 . S
C1844 H1838 0.950 . S
C1844 C1845 1.327 . S
C1845 H1839 0.950 . S
C1845 C1844 1.327 . S
C1845 C1849 1.429 . S
C1846 C1829 1.574 . S
C1846 H1840 0.949 . S
C1846 C1850 1.368 . S
C1847 C1828 1.429 . S
C1847 C1841 1.429 . S
C1847 C1848 1.523 . S
C1848 C1829 1.368 . S
C1848 C1842 1.368 . S
C1848 C1847 1.523 . S
C1849 C1833 1.429 . S
C1849 C1845 1.429 . S
C1849 C1850 1.523 . S
C1850 C1834 1.368 . S
C1850 C1846 1.368 . S
C1850 C1849 1.523 . S
H1851 C1826 0.950 . S
H1852 C1828 0.950 . S
H1853 C1829 0.949 . S
H1854 C1831 0.950 . S
H1855 C1833 0.950 . S
C1856 C1857 1.349 . S
C1856 C1858 1.327 . S
C1856 H1881 0.950 . S
C1857 C1856 1.349 . S
C1857 C1873 1.349 . S
C1858 C1856 1.327 . S
C1858 C1877 1.429 . S
C1858 H1882 0.950 . S
C1859 C1876 1.574 . S
C1859 C1878 1.368 . S
C1859 H1883 0.949 . S
H1860 C1864 0.949 . S
C1861 C1862 1.349 . S
C1861 C1863 1.327 . S
C1861 H1884 0.950 . S
C1862 C1861 1.349 . S
C1862 C1874 1.349 . S
C1863 C1861 1.327 . S
C1863 C1879 1.429 . S
C1863 H1885 0.950 . S
C1864 H1860 0.949 . S
C1864 C1872 1.574 . S
C1864 C1880 1.368 . S
H1865 C1873 0.950 . S
H1866 C1871 0.950 . S
H1867 C1872 0.949 . S
H1868 C1874 0.950 . S
H1869 C1875 0.950 . S
H1870 C1876 0.949 . S
C1871 H1866 0.950 . S
C1871 C1873 1.327 . S
C1871 C1877 1.429 . S
C1872 C1864 1.574 . S
C1872 H1867 0.949 . S
C1872 C1878 1.368 . S
C1873 C1857 1.349 . S
C1873 H1865 0.950 . S
C1873 C1871 1.327 . S
C1874 C1862 1.349 . S
C1874 H1868 0.950 . S
C1874 C1875 1.327 . S
C1875 H1869 0.950 . S
C1875 C1874 1.327 . S
C1875 C1879 1.429 . S
C1876 C1859 1.574 . S
C1876 H1870 0.949 . S
C1876 C1880 1.368 . S
C1877 C1858 1.429 . S
C1877 C1871 1.429 . S
C1877 C1878 1.523 . S
C1878 C1859 1.368 . S
C1878 C1872 1.368 . S
C1878 C1877 1.523 . S
C1879 C1863 1.429 . S
C1879 C1875 1.429 . S
C1879 C1880 1.523 . S
C1880 C1864 1.368 . S
C1880 C1876 1.368 . S
C1880 C1879 1.523 . S
H1881 C1856 0.950 . S
H1882 C1858 0.950 . S
H1883 C1859 0.949 . S
H1884 C1861 0.950 . S
H1885 C1863 0.950 . S
C1886 C1887 1.349 . S
C1886 C1888 1.327 . S
C1886 H1911 0.950 . S
C1887 C1886 1.349 . S
C1887 C1903 1.349 . S
C1888 C1886 1.327 . S
C1888 C1907 1.429 . S
C1888 H1912 0.950 . S
C1889 C1906 1.574 . S
C1889 C1908 1.368 . S
C1889 H1913 0.949 . S
H1890 C1894 0.949 . S
C1891 C1892 1.349 . S
C1891 C1893 1.327 . S
C1891 H1914 0.950 . S
C1892 C1891 1.349 . S
C1892 C1904 1.349 . S
C1893 C1891 1.327 . S
C1893 C1909 1.429 . S
C1893 H1915 0.950 . S
C1894 H1890 0.949 . S
C1894 C1902 1.574 . S
C1894 C1910 1.368 . S
H1895 C1903 0.950 . S
H1896 C1901 0.950 . S
H1897 C1902 0.949 . S
H1898 C1904 0.950 . S
H1899 C1905 0.950 . S
H1900 C1906 0.949 . S
C1901 H1896 0.950 . S
C1901 C1903 1.327 . S
C1901 C1907 1.429 . S
C1902 C1894 1.574 . S
C1902 H1897 0.949 . S
C1902 C1908 1.368 . S
C1903 C1887 1.349 . S
C1903 H1895 0.950 . S
C1903 C1901 1.327 . S
C1904 C1892 1.349 . S
C1904 H1898 0.950 . S
C1904 C1905 1.327 . S
C1905 H1899 0.950 . S
C1905 C1904 1.327 . S
C1905 C1909 1.429 . S
C1906 C1889 1.574 . S
C1906 H1900 0.949 . S
C1906 C1910 1.368 . S
C1907 C1888 1.429 . S
C1907 C1901 1.429 . S
C1907 C1908 1.523 . S
C1908 C1889 1.368 . S
C1908 C1902 1.368 . S
C1908 C1907 1.523 . S
C1909 C1893 1.429 . S
C1909 C1905 1.429 . S
C1909 C1910 1.523 . S
C1910 C1894 1.368 . S
C1910 C1906 1.368 . S
C1910 C1909 1.523 . S
H1911 C1886 0.950 . S
H1912 C1888 0.950 . S
H1913 C1889 0.949 . S
H1914 C1891 0.950 . S
H1915 C1893 0.950 . S
C1916 C1917 1.349 . S
C1916 C1918 1.327 . S
C1916 H1941 0.950 . S
C1917 C1916 1.349 . S
C1917 C1933 1.349 . S
C1918 C1916 1.327 . S
C1918 C1937 1.429 . S
C1918 H1942 0.950 . S
C1919 C1936 1.574 . S
C1919 C1938 1.368 . S
C1919 H1943 0.949 . S
H1920 C1924 0.949 . S
C1921 C1922 1.349 . S
C1921 C1923 1.327 . S
C1921 H1944 0.950 . S
C1922 C1921 1.349 . S
C1922 C1934 1.349 . S
C1923 C1921 1.327 . S
C1923 C1939 1.429 . S
C1923 H1945 0.950 . S
C1924 H1920 0.949 . S
C1924 C1932 1.574 . S
C1924 C1940 1.368 . S
H1925 C1933 0.950 . S
H1926 C1931 0.950 . S
H1927 C1932 0.949 . S
H1928 C1934 0.950 . S
H1929 C1935 0.950 . S
H1930 C1936 0.949 . S
C1931 H1926 0.950 . S
C1931 C1933 1.327 . S
C1931 C1937 1.429 . S
C1932 C1924 1.574 . S
C1932 H1927 0.949 . S
C1932 C1938 1.368 . S
C1933 C1917 1.349 . S
C1933 H1925 0.950 . S
C1933 C1931 1.327 . S
C1934 C1922 1.349 . S
C1934 H1928 0.950 . S
C1934 C1935 1.327 . S
C1935 H1929 0.950 . S
C1935 C1934 1.327 . S
C1935 C1939 1.429 . S
C1936 C1919 1.574 . S
C1936 H1930 0.949 . S
C1936 C1940 1.368 . S
C1937 C1918 1.429 . S
C1937 C1931 1.429 . S
C1937 C1938 1.523 . S
C1938 C1919 1.368 . S
C1938 C1932 1.368 . S
C1938 C1937 1.523 . S
C1939 C1923 1.429 . S
C1939 C1935 1.429 . S
C1939 C1940 1.523 . S
C1940 C1924 1.368 . S
C1940 C1936 1.368 . S
C1940 C1939 1.523 . S
H1941 C1916 0.950 . S
H1942 C1918 0.950 . S
H1943 C1919 0.949 . S
H1944 C1921 0.950 . S
H1945 C1923 0.950 . S
C1946 C1947 1.349 . S
C1946 C1948 1.327 . S
C1946 H1971 0.950 . S
C1947 C1946 1.349 . S
C1947 C1963 1.349 . S
C1948 C1946 1.327 . S
C1948 C1967 1.429 . S
C1948 H1972 0.950 . S
C1949 C1966 1.574 . S
C1949 C1968 1.368 . S
C1949 H1973 0.949 . S
H1950 C1954 0.949 . S
C1951 C1952 1.349 . S
C1951 C1953 1.327 . S
C1951 H1974 0.950 . S
C1952 C1951 1.349 . S
C1952 C1964 1.349 . S
C1953 C1951 1.327 . S
C1953 C1969 1.429 . S
C1953 H1975 0.950 . S
C1954 H1950 0.949 . S
C1954 C1962 1.574 . S
C1954 C1970 1.368 . S
H1955 C1963 0.950 . S
H1956 C1961 0.950 . S
H1957 C1962 0.949 . S
H1958 C1964 0.950 . S
H1959 C1965 0.950 . S
H1960 C1966 0.949 . S
C1961 H1956 0.950 . S
C1961 C1963 1.327 . S
C1961 C1967 1.429 . S
C1962 C1954 1.574 . S
C1962 H1957 0.949 . S
C1962 C1968 1.368 . S
C1963 C1947 1.349 . S
C1963 H1955 0.950 . S
C1963 C1961 1.327 . S
C1964 C1952 1.349 . S
C1964 H1958 0.950 . S
C1964 C1965 1.327 . S
C1965 H1959 0.950 . S
C1965 C1964 1.327 . S
C1965 C1969 1.429 . S
C1966 C1949 1.574 . S
C1966 H1960 0.949 . S
C1966 C1970 1.368 . S
C1967 C1948 1.429 . S
C1967 C1961 1.429 . S
C1967 C1968 1.523 . S
C1968 C1949 1.368 . S
C1968 C1962 1.368 . S
C1968 C1967 1.523 . S
C1969 C1953 1.429 . S
C1969 C1965 1.429 . S
C1969 C1970 1.523 . S
C1970 C1954 1.368 . S
C1970 C1966 1.368 . S
C1970 C1969 1.523 . S
H1971 C1946 0.950 . S
H1972 C1948 0.950 . S
H1973 C1949 0.949 . S
H1974 C1951 0.950 . S
H1975 C1953 0.950 . S
C1976 C1977 1.349 . S
C1976 C1978 1.327 . S
C1976 H2001 0.950 . S
C1977 C1976 1.349 . S
C1977 C1993 1.349 . S
C1978 C1976 1.327 . S
C1978 C1997 1.429 . S
C1978 H2002 0.950 . S
C1979 C1996 1.574 . S
C1979 C1998 1.368 . S
C1979 H2003 0.949 . S
H1980 C1984 0.949 . S
C1981 C1982 1.349 . S
C1981 C1983 1.327 . S
C1981 H2004 0.950 . S
C1982 C1981 1.349 . S
C1982 C1994 1.349 . S
C1983 C1981 1.327 . S
C1983 C1999 1.429 . S
C1983 H2005 0.950 . S
C1984 H1980 0.949 . S
C1984 C1992 1.574 . S
C1984 C2000 1.368 . S
H1985 C1993 0.950 . S
H1986 C1991 0.950 . S
H1987 C1992 0.949 . S
H1988 C1994 0.950 . S
H1989 C1995 0.950 . S
H1990 C1996 0.949 . S
C1991 H1986 0.950 . S
C1991 C1993 1.327 . S
C1991 C1997 1.429 . S
C1992 C1984 1.574 . S
C1992 H1987 0.949 . S
C1992 C1998 1.368 . S
C1993 C1977 1.349 . S
C1993 H1985 0.950 . S
C1993 C1991 1.327 . S
C1994 C1982 1.349 . S
C1994 H1988 0.950 . S
C1994 C1995 1.327 . S
C1995 H1989 0.950 . S
C1995 C1994 1.327 . S
C1995 C1999 1.429 . S
C1996 C1979 1.574 . S
C1996 H1990 0.949 . S
C1996 C2000 1.368 . S
C1997 C1978 1.429 . S
C1997 C1991 1.429 . S
C1997 C1998 1.523 . S
C1998 C1979 1.368 . S
C1998 C1992 1.368 . S
C1998 C1997 1.523 . S
C1999 C1983 1.429 . S
C1999 C1995 1.429 . S
C1999 C2000 1.523 . S
C2000 C1984 1.368 . S
C2000 C1996 1.368 . S
C2000 C1999 1.523 . S
H2001 C1976 0.950 . S
H2002 C1978 0.950 . S
H2003 C1979 0.949 . S
H2004 C1981 0.950 . S
H2005 C1983 0.950 . S
C2006 C2007 1.349 . S
C2006 C2008 1.327 . S
C2006 H2031 0.950 . S
C2007 C2006 1.349 . S
C2007 C2023 1.349 . S
C2008 C2006 1.327 . S
C2008 C2027 1.429 . S
C2008 H2032 0.950 . S
C2009 C2026 1.574 . S
C2009 C2028 1.368 . S
C2009 H2033 0.949 . S
H2010 C2014 0.949 . S
C2011 C2012 1.349 . S
C2011 C2013 1.327 . S
C2011 H2034 0.950 . S
C2012 C2011 1.349 . S
C2012 C2024 1.349 . S
C2013 C2011 1.327 . S
C2013 C2029 1.429 . S
C2013 H2035 0.950 . S
C2014 H2010 0.949 . S
C2014 C2022 1.574 . S
C2014 C2030 1.368 . S
H2015 C2023 0.950 . S
H2016 C2021 0.950 . S
H2017 C2022 0.949 . S
H2018 C2024 0.950 . S
H2019 C2025 0.950 . S
H2020 C2026 0.949 . S
C2021 H2016 0.950 . S
C2021 C2023 1.327 . S
C2021 C2027 1.429 . S
C2022 C2014 1.574 . S
C2022 H2017 0.949 . S
C2022 C2028 1.368 . S
C2023 C2007 1.349 . S
C2023 H2015 0.950 . S
C2023 C2021 1.327 . S
C2024 C2012 1.349 . S
C2024 H2018 0.950 . S
C2024 C2025 1.327 . S
C2025 H2019 0.950 . S
C2025 C2024 1.327 . S
C2025 C2029 1.429 . S
C2026 C2009 1.574 . S
C2026 H2020 0.949 . S
C2026 C2030 1.368 . S
C2027 C2008 1.429 . S
C2027 C2021 1.429 . S
C2027 C2028 1.523 . S
C2028 C2009 1.368 . S
C2028 C2022 1.368 . S
C2028 C2027 1.523 . S
C2029 C2013 1.429 . S
C2029 C2025 1.429 . S
C2029 C2030 1.523 . S
C2030 C2014 1.368 . S
C2030 C2026 1.368 . S
C2030 C2029 1.523 . S
H2031 C2006 0.950 . S
H2032 C2008 0.950 . S
H2033 C2009 0.949 . S
H2034 C2011 0.950 . S
H2035 C2013 0.950 . S
C2036 C2037 1.349 . S
C2036 C2038 1.327 . S
C2036 H2061 0.950 . S
C2037 C2036 1.349 . S
C2037 C2053 1.349 . S
C2038 C2036 1.327 . S
C2038 C2057 1.429 . S
C2038 H2062 0.950 . S
C2039 C2056 1.574 . S
C2039 C2058 1.368 . S
C2039 H2063 0.949 . S
H2040 C2044 0.949 . S
C2041 C2042 1.349 . S
C2041 C2043 1.327 . S
C2041 H2064 0.950 . S
C2042 C2041 1.349 . S
C2042 C2054 1.349 . S
C2043 C2041 1.327 . S
C2043 C2059 1.429 . S
C2043 H2065 0.950 . S
C2044 H2040 0.949 . S
C2044 C2052 1.574 . S
C2044 C2060 1.368 . S
H2045 C2053 0.950 . S
H2046 C2051 0.950 . S
H2047 C2052 0.949 . S
H2048 C2054 0.950 . S
H2049 C2055 0.950 . S
H2050 C2056 0.949 . S
C2051 H2046 0.950 . S
C2051 C2053 1.327 . S
C2051 C2057 1.429 . S
C2052 C2044 1.574 . S
C2052 H2047 0.949 . S
C2052 C2058 1.368 . S
C2053 C2037 1.349 . S
C2053 H2045 0.950 . S
C2053 C2051 1.327 . S
C2054 C2042 1.349 . S
C2054 H2048 0.950 . S
C2054 C2055 1.327 . S
C2055 H2049 0.950 . S
C2055 C2054 1.327 . S
C2055 C2059 1.429 . S
C2056 C2039 1.574 . S
C2056 H2050 0.949 . S
C2056 C2060 1.368 . S
C2057 C2038 1.429 . S
C2057 C2051 1.429 . S
C2057 C2058 1.523 . S
C2058 C2039 1.368 . S
C2058 C2052 1.368 . S
C2058 C2057 1.523 . S
C2059 C2043 1.429 . S
C2059 C2055 1.429 . S
C2059 C2060 1.523 . S
C2060 C2044 1.368 . S
C2060 C2056 1.368 . S
C2060 C2059 1.523 . S
H2061 C2036 0.950 . S
H2062 C2038 0.950 . S
H2063 C2039 0.949 . S
H2064 C2041 0.950 . S
H2065 C2043 0.950 . S
C2066 C2067 1.349 . S
C2066 C2068 1.327 . S
C2066 H2091 0.950 . S
C2067 C2066 1.349 . S
C2067 C2083 1.349 . S
C2068 C2066 1.327 . S
C2068 C2087 1.429 . S
C2068 H2092 0.950 . S
C2069 C2086 1.574 . S
C2069 C2088 1.368 . S
C2069 H2093 0.949 . S
H2070 C2074 0.949 . S
C2071 C2072 1.349 . S
C2071 C2073 1.327 . S
C2071 H2094 0.950 . S
C2072 C2071 1.349 . S
C2072 C2084 1.349 . S
C2073 C2071 1.327 . S
C2073 C2089 1.429 . S
C2073 H2095 0.950 . S
C2074 H2070 0.949 . S
C2074 C2082 1.574 . S
C2074 C2090 1.368 . S
H2075 C2083 0.950 . S
H2076 C2081 0.950 . S
H2077 C2082 0.949 . S
H2078 C2084 0.950 . S
H2079 C2085 0.950 . S
H2080 C2086 0.949 . S
C2081 H2076 0.950 . S
C2081 C2083 1.327 . S
C2081 C2087 1.429 . S
C2082 C2074 1.574 . S
C2082 H2077 0.949 . S
C2082 C2088 1.368 . S
C2083 C2067 1.349 . S
C2083 H2075 0.950 . S
C2083 C2081 1.327 . S
C2084 C2072 1.349 . S
C2084 H2078 0.950 . S
C2084 C2085 1.327 . S
C2085 H2079 0.950 . S
C2085 C2084 1.327 . S
C2085 C2089 1.429 . S
C2086 C2069 1.574 . S
C2086 H2080 0.949 . S
C2086 C2090 1.368 . S
C2087 C2068 1.429 . S
C2087 C2081 1.429 . S
C2087 C2088 1.523 . S
C2088 C2069 1.368 . S
C2088 C2082 1.368 . S
C2088 C2087 1.523 . S
C2089 C2073 1.429 . S
C2089 C2085 1.429 . S
C2089 C2090 1.523 . S
C2090 C2074 1.368 . S
C2090 C2086 1.368 . S
C2090 C2089 1.523 . S
H2091 C2066 0.950 . S
H2092 C2068 0.950 . S
H2093 C2069 0.949 . S
H2094 C2071 0.950 . S
H2095 C2073 0.950 . S
C2096 C2097 1.349 . S
C2096 C2098 1.327 . S
C2096 H2121 0.950 . S
C2097 C2096 1.349 . S
C2097 C2113 1.349 . S
C2098 C2096 1.327 . S
C2098 C2117 1.429 . S
C2098 H2122 0.950 . S
C2099 C2116 1.574 . S
C2099 C2118 1.368 . S
C2099 H2123 0.949 . S
H2100 C2104 0.949 . S
C2101 C2102 1.349 . S
C2101 C2103 1.327 . S
C2101 H2124 0.950 . S
C2102 C2101 1.349 . S
C2102 C2114 1.349 . S
C2103 C2101 1.327 . S
C2103 C2119 1.429 . S
C2103 H2125 0.950 . S
C2104 H2100 0.949 . S
C2104 C2112 1.574 . S
C2104 C2120 1.368 . S
H2105 C2113 0.950 . S
H2106 C2111 0.950 . S
H2107 C2112 0.949 . S
H2108 C2114 0.950 . S
H2109 C2115 0.950 . S
H2110 C2116 0.949 . S
C2111 H2106 0.950 . S
C2111 C2113 1.327 . S
C2111 C2117 1.429 . S
C2112 C2104 1.574 . S
C2112 H2107 0.949 . S
C2112 C2118 1.368 . S
C2113 C2097 1.349 . S
C2113 H2105 0.950 . S
C2113 C2111 1.327 . S
C2114 C2102 1.349 . S
C2114 H2108 0.950 . S
C2114 C2115 1.327 . S
C2115 H2109 0.950 . S
C2115 C2114 1.327 . S
C2115 C2119 1.429 . S
C2116 C2099 1.574 . S
C2116 H2110 0.949 . S
C2116 C2120 1.368 . S
C2117 C2098 1.429 . S
C2117 C2111 1.429 . S
C2117 C2118 1.523 . S
C2118 C2099 1.368 . S
C2118 C2112 1.368 . S
C2118 C2117 1.523 . S
C2119 C2103 1.429 . S
C2119 C2115 1.429 . S
C2119 C2120 1.523 . S
C2120 C2104 1.368 . S
C2120 C2116 1.368 . S
C2120 C2119 1.523 . S
H2121 C2096 0.950 . S
H2122 C2098 0.950 . S
H2123 C2099 0.949 . S
H2124 C2101 0.950 . S
H2125 C2103 0.950 . S
C2126 C2127 1.349 . S
C2126 C2128 1.327 . S
C2126 H2151 0.950 . S
C2127 C2126 1.349 . S
C2127 C2143 1.349 . S
C2128 C2126 1.327 . S
C2128 C2147 1.429 . S
C2128 H2152 0.950 . S
C2129 C2146 1.574 . S
C2129 C2148 1.368 . S
C2129 H2153 0.949 . S
H2130 C2134 0.949 . S
C2131 C2132 1.349 . S
C2131 C2133 1.327 . S
C2131 H2154 0.950 . S
C2132 C2131 1.349 . S
C2132 C2144 1.349 . S
C2133 C2131 1.327 . S
C2133 C2149 1.429 . S
C2133 H2155 0.950 . S
C2134 H2130 0.949 . S
C2134 C2142 1.574 . S
C2134 C2150 1.368 . S
H2135 C2143 0.950 . S
H2136 C2141 0.950 . S
H2137 C2142 0.949 . S
H2138 C2144 0.950 . S
H2139 C2145 0.950 . S
H2140 C2146 0.949 . S
C2141 H2136 0.950 . S
C2141 C2143 1.327 . S
C2141 C2147 1.429 . S
C2142 C2134 1.574 . S
C2142 H2137 0.949 . S
C2142 C2148 1.368 . S
C2143 C2127 1.349 . S
C2143 H2135 0.950 . S
C2143 C2141 1.327 . S
C2144 C2132 1.349 . S
C2144 H2138 0.950 . S
C2144 C2145 1.327 . S
C2145 H2139 0.950 . S
C2145 C2144 1.327 . S
C2145 C2149 1.429 . S
C2146 C2129 1.574 . S
C2146 H2140 0.949 . S
C2146 C2150 1.368 . S
C2147 C2128 1.429 . S
C2147 C2141 1.429 . S
C2147 C2148 1.523 . S
C2148 C2129 1.368 . S
C2148 C2142 1.368 . S
C2148 C2147 1.523 . S
C2149 C2133 1.429 . S
C2149 C2145 1.429 . S
C2149 C2150 1.523 . S
C2150 C2134 1.368 . S
C2150 C2146 1.368 . S
C2150 C2149 1.523 . S
H2151 C2126 0.950 . S
H2152 C2128 0.950 . S
H2153 C2129 0.949 . S
H2154 C2131 0.950 . S
H2155 C2133 0.950 . S
C2156 C2157 1.349 . S
C2156 C2158 1.327 . S
C2156 H2181 0.950 . S
C2157 C2156 1.349 . S
C2157 C2173 1.349 . S
C2158 C2156 1.327 . S
C2158 C2177 1.429 . S
C2158 H2182 0.950 . S
C2159 C2176 1.574 . S
C2159 C2178 1.368 . S
C2159 H2183 0.949 . S
H2160 C2164 0.949 . S
C2161 C2162 1.349 . S
C2161 C2163 1.327 . S
C2161 H2184 0.950 . S
C2162 C2161 1.349 . S
C2162 C2174 1.349 . S
C2163 C2161 1.327 . S
C2163 C2179 1.429 . S
C2163 H2185 0.950 . S
C2164 H2160 0.949 . S
C2164 C2172 1.574 . S
C2164 C2180 1.368 . S
H2165 C2173 0.950 . S
H2166 C2171 0.950 . S
H2167 C2172 0.949 . S
H2168 C2174 0.950 . S
H2169 C2175 0.950 . S
H2170 C2176 0.949 . S
C2171 H2166 0.950 . S
C2171 C2173 1.327 . S
C2171 C2177 1.429 . S
C2172 C2164 1.574 . S
C2172 H2167 0.949 . S
C2172 C2178 1.368 . S
C2173 C2157 1.349 . S
C2173 H2165 0.950 . S
C2173 C2171 1.327 . S
C2174 C2162 1.349 . S
C2174 H2168 0.950 . S
C2174 C2175 1.327 . S
C2175 H2169 0.950 . S
C2175 C2174 1.327 . S
C2175 C2179 1.429 . S
C2176 C2159 1.574 . S
C2176 H2170 0.949 . S
C2176 C2180 1.368 . S
C2177 C2158 1.429 . S
C2177 C2171 1.429 . S
C2177 C2178 1.523 . S
C2178 C2159 1.368 . S
C2178 C2172 1.368 . S
C2178 C2177 1.523 . S
C2179 C2163 1.429 . S
C2179 C2175 1.429 . S
C2179 C2180 1.523 . S
C2180 C2164 1.368 . S
C2180 C2176 1.368 . S
C2180 C2179 1.523 . S
H2181 C2156 0.950 . S
H2182 C2158 0.950 . S
H2183 C2159 0.949 . S
H2184 C2161 0.950 . S
H2185 C2163 0.950 . S
C2186 C2187 1.349 . S
C2186 C2188 1.327 . S
C2186 H2211 0.950 . S
C2187 C2186 1.349 . S
C2187 C2203 1.349 . S
C2188 C2186 1.327 . S
C2188 C2207 1.429 . S
C2188 H2212 0.950 . S
C2189 C2206 1.574 . S
C2189 C2208 1.368 . S
C2189 H2213 0.949 . S
H2190 C2194 0.949 . S
C2191 C2192 1.349 . S
C2191 C2193 1.327 . S
C2191 H2214 0.950 . S
C2192 C2191 1.349 . S
C2192 C2204 1.349 . S
C2193 C2191 1.327 . S
C2193 C2209 1.429 . S
C2193 H2215 0.950 . S
C2194 H2190 0.949 . S
C2194 C2202 1.574 . S
C2194 C2210 1.368 . S
H2195 C2203 0.950 . S
H2196 C2201 0.950 . S
H2197 C2202 0.949 . S
H2198 C2204 0.950 . S
H2199 C2205 0.950 . S
H2200 C2206 0.949 . S
C2201 H2196 0.950 . S
C2201 C2203 1.327 . S
C2201 C2207 1.429 . S
C2202 C2194 1.574 . S
C2202 H2197 0.949 . S
C2202 C2208 1.368 . S
C2203 C2187 1.349 . S
C2203 H2195 0.950 . S
C2203 C2201 1.327 . S
C2204 C2192 1.349 . S
C2204 H2198 0.950 . S
C2204 C2205 1.327 . S
C2205 H2199 0.950 . S
C2205 C2204 1.327 . S
C2205 C2209 1.429 . S
C2206 C2189 1.574 . S
C2206 H2200 0.949 . S
C2206 C2210 1.368 . S
C2207 C2188 1.429 . S
C2207 C2201 1.429 . S
C2207 C2208 1.523 . S
C2208 C2189 1.368 . S
C2208 C2202 1.368 . S
C2208 C2207 1.523 . S
C2209 C2193 1.429 . S
C2209 C2205 1.429 . S
C2209 C2210 1.523 . S
C2210 C2194 1.368 . S
C2210 C2206 1.368 . S
C2210 C2209 1.523 . S
H2211 C2186 0.950 . S
H2212 C2188 0.950 . S
H2213 C2189 0.949 . S
H2214 C2191 0.950 . S
H2215 C2193 0.950 . S
C2216 C2217 1.349 . S
C2216 C2218 1.327 . S
C2216 H2241 0.950 . S
C2217 C2216 1.349 . S
C2217 C2233 1.349 . S
C2218 C2216 1.327 . S
C2218 C2237 1.429 . S
C2218 H2242 0.950 . S
C2219 C2236 1.574 . S
C2219 C2238 1.368 . S
C2219 H2243 0.949 . S
H2220 C2224 0.949 . S
C2221 C2222 1.349 . S
C2221 C2223 1.327 . S
C2221 H2244 0.950 . S
C2222 C2221 1.349 . S
C2222 C2234 1.349 . S
C2223 C2221 1.327 . S
C2223 C2239 1.429 . S
C2223 H2245 0.950 . S
C2224 H2220 0.949 . S
C2224 C2232 1.574 . S
C2224 C2240 1.368 . S
H2225 C2233 0.950 . S
H2226 C2231 0.950 . S
H2227 C2232 0.949 . S
H2228 C2234 0.950 . S
H2229 C2235 0.950 . S
H2230 C2236 0.949 . S
C2231 H2226 0.950 . S
C2231 C2233 1.327 . S
C2231 C2237 1.429 . S
C2232 C2224 1.574 . S
C2232 H2227 0.949 . S
C2232 C2238 1.368 . S
C2233 C2217 1.349 . S
C2233 H2225 0.950 . S
C2233 C2231 1.327 . S
C2234 C2222 1.349 . S
C2234 H2228 0.950 . S
C2234 C2235 1.327 . S
C2235 H2229 0.950 . S
C2235 C2234 1.327 . S
C2235 C2239 1.429 . S
C2236 C2219 1.574 . S
C2236 H2230 0.949 . S
C2236 C2240 1.368 . S
C2237 C2218 1.429 . S
C2237 C2231 1.429 . S
C2237 C2238 1.523 . S
C2238 C2219 1.368 . S
C2238 C2232 1.368 . S
C2238 C2237 1.523 . S
C2239 C2223 1.429 . S
C2239 C2235 1.429 . S
C2239 C2240 1.523 . S
C2240 C2224 1.368 . S
C2240 C2236 1.368 . S
C2240 C2239 1.523 . S
H2241 C2216 0.950 . S
H2242 C2218 0.950 . S
H2243 C2219 0.949 . S
H2244 C2221 0.950 . S
H2245 C2223 0.950 . S
C2246 C2247 1.349 . S
C2246 C2248 1.327 . S
C2246 H2271 0.950 . S
C2247 C2246 1.349 . S
C2247 C2263 1.349 . S
C2248 C2246 1.327 . S
C2248 C2267 1.429 . S
C2248 H2272 0.950 . S
C2249 C2266 1.574 . S
C2249 C2268 1.368 . S
C2249 H2273 0.949 . S
H2250 C2254 0.949 . S
C2251 C2252 1.349 . S
C2251 C2253 1.327 . S
C2251 H2274 0.950 . S
C2252 C2251 1.349 . S
C2252 C2264 1.349 . S
C2253 C2251 1.327 . S
C2253 C2269 1.429 . S
C2253 H2275 0.950 . S
C2254 H2250 0.949 . S
C2254 C2262 1.574 . S
C2254 C2270 1.368 . S
H2255 C2263 0.950 . S
H2256 C2261 0.950 . S
H2257 C2262 0.949 . S
H2258 C2264 0.950 . S
H2259 C2265 0.950 . S
H2260 C2266 0.949 . S
C2261 H2256 0.950 . S
C2261 C2263 1.327 . S
C2261 C2267 1.429 . S
C2262 C2254 1.574 . S
C2262 H2257 0.949 . S
C2262 C2268 1.368 . S
C2263 C2247 1.349 . S
C2263 H2255 0.950 . S
C2263 C2261 1.327 . S
C2264 C2252 1.349 . S
C2264 H2258 0.950 . S
C2264 C2265 1.327 . S
C2265 H2259 0.950 . S
C2265 C2264 1.327 . S
C2265 C2269 1.429 . S
C2266 C2249 1.574 . S
C2266 H2260 0.949 . S
C2266 C2270 1.368 . S
C2267 C2248 1.429 . S
C2267 C2261 1.429 . S
C2267 C2268 1.523 . S
C2268 C2249 1.368 . S
C2268 C2262 1.368 . S
C2268 C2267 1.523 . S
C2269 C2253 1.429 . S
C2269 C2265 1.429 . S
C2269 C2270 1.523 . S
C2270 C2254 1.368 . S
C2270 C2266 1.368 . S
C2270 C2269 1.523 . S
H2271 C2246 0.950 . S
H2272 C2248 0.950 . S
H2273 C2249 0.949 . S
H2274 C2251 0.950 . S
H2275 C2253 0.950 . S
C2276 C2277 1.349 . S
C2276 C2278 1.327 . S
C2276 H2301 0.950 . S
C2277 C2276 1.349 . S
C2277 C2293 1.349 . S
C2278 C2276 1.327 . S
C2278 C2297 1.429 . S
C2278 H2302 0.950 . S
C2279 C2296 1.574 . S
C2279 C2298 1.368 . S
C2279 H2303 0.949 . S
H2280 C2284 0.949 . S
C2281 C2282 1.349 . S
C2281 C2283 1.327 . S
C2281 H2304 0.950 . S
C2282 C2281 1.349 . S
C2282 C2294 1.349 . S
C2283 C2281 1.327 . S
C2283 C2299 1.429 . S
C2283 H2305 0.950 . S
C2284 H2280 0.949 . S
C2284 C2292 1.574 . S
C2284 C2300 1.368 . S
H2285 C2293 0.950 . S
H2286 C2291 0.950 . S
H2287 C2292 0.949 . S
H2288 C2294 0.950 . S
H2289 C2295 0.950 . S
H2290 C2296 0.949 . S
C2291 H2286 0.950 . S
C2291 C2293 1.327 . S
C2291 C2297 1.429 . S
C2292 C2284 1.574 . S
C2292 H2287 0.949 . S
C2292 C2298 1.368 . S
C2293 C2277 1.349 . S
C2293 H2285 0.950 . S
C2293 C2291 1.327 . S
C2294 C2282 1.349 . S
C2294 H2288 0.950 . S
C2294 C2295 1.327 . S
C2295 H2289 0.950 . S
C2295 C2294 1.327 . S
C2295 C2299 1.429 . S
C2296 C2279 1.574 . S
C2296 H2290 0.949 . S
C2296 C2300 1.368 . S
C2297 C2278 1.429 . S
C2297 C2291 1.429 . S
C2297 C2298 1.523 . S
C2298 C2279 1.368 . S
C2298 C2292 1.368 . S
C2298 C2297 1.523 . S
C2299 C2283 1.429 . S
C2299 C2295 1.429 . S
C2299 C2300 1.523 . S
C2300 C2284 1.368 . S
C2300 C2296 1.368 . S
C2300 C2299 1.523 . S
H2301 C2276 0.950 . S
H2302 C2278 0.950 . S
H2303 C2279 0.949 . S
H2304 C2281 0.950 . S
H2305 C2283 0.950 . S
C2306 C2307 1.349 . S
C2306 C2308 1.327 . S
C2306 H2331 0.950 . S
C2307 C2306 1.349 . S
C2307 C2323 1.349 . S
C2308 C2306 1.327 . S
C2308 C2327 1.429 . S
C2308 H2332 0.950 . S
C2309 C2326 1.574 . S
C2309 C2328 1.368 . S
C2309 H2333 0.949 . S
H2310 C2314 0.949 . S
C2311 C2312 1.349 . S
C2311 C2313 1.327 . S
C2311 H2334 0.950 . S
C2312 C2311 1.349 . S
C2312 C2324 1.349 . S
C2313 C2311 1.327 . S
C2313 C2329 1.429 . S
C2313 H2335 0.950 . S
C2314 H2310 0.949 . S
C2314 C2322 1.574 . S
C2314 C2330 1.368 . S
H2315 C2323 0.950 . S
H2316 C2321 0.950 . S
H2317 C2322 0.949 . S
H2318 C2324 0.950 . S
H2319 C2325 0.950 . S
H2320 C2326 0.949 . S
C2321 H2316 0.950 . S
C2321 C2323 1.327 . S
C2321 C2327 1.429 . S
C2322 C2314 1.574 . S
C2322 H2317 0.949 . S
C2322 C2328 1.368 . S
C2323 C2307 1.349 . S
C2323 H2315 0.950 . S
C2323 C2321 1.327 . S
C2324 C2312 1.349 . S
C2324 H2318 0.950 . S
C2324 C2325 1.327 . S
C2325 H2319 0.950 . S
C2325 C2324 1.327 . S
C2325 C2329 1.429 . S
C2326 C2309 1.574 . S
C2326 H2320 0.949 . S
C2326 C2330 1.368 . S
C2327 C2308 1.429 . S
C2327 C2321 1.429 . S
C2327 C2328 1.523 . S
C2328 C2309 1.368 . S
C2328 C2322 1.368 . S
C2328 C2327 1.523 . S
C2329 C2313 1.429 . S
C2329 C2325 1.429 . S
C2329 C2330 1.523 . S
C2330 C2314 1.368 . S
C2330 C2326 1.368 . S
C2330 C2329 1.523 . S
H2331 C2306 0.950 . S
H2332 C2308 0.950 . S
H2333 C2309 0.949 . S
H2334 C2311 0.950 . S
H2335 C2313 0.950 . S
C417 C122 0.929 . S
C422 C5 0.944 . S
C447 C16 0.943 . S
C452 C343 0.928 . S
C477 C146 0.929 . S
C482 C29 0.944 . S
C507 C317 0.928 . S
C512 C44 0.943 . S
C537 C57 0.944 . S
C542 C198 0.929 . S
C567 C369 0.928 . S
C572 C68 0.943 . S
C597 C81 0.944 . S
C602 C174 0.929 . S
C627 C395 0.928 . S
C632 C96 0.943 . S
C657 C18 0.929 . S
C662 C109 0.944 . S
C687 C120 0.943 . S
C692 C237 0.928 . S
C717 C42 0.929 . S
C722 C135 0.944 . S
C747 C148 0.943 . S
C752 C213 0.928 . S
C777 C159 0.944 . S
C782 C94 0.929 . S
C807 C265 0.928 . S
C812 C172 0.943 . S
C837 C187 0.944 . S
C842 C70 0.929 . S
C867 C289 0.928 . S
C872 C200 0.943 . S
C897 C330 0.929 . S
C902 C211 0.945 . S
C927 C133 0.928 . S
C932 C226 0.943 . S
C957 C239 0.945 . S
C962 C354 0.929 . S
C987 C107 0.928 . S
C992 C252 0.943 . S
C1017 C408 0.929 . S
C1022 C263 0.945 . S
C1047 C276 0.943 . S
C1052 C161 0.928 . S
C1077 C380 0.929 . S
C1082 C291 0.945 . S
C1107 C185 0.928 . S
C1112 C302 0.943 . S
C1137 C224 0.929 . S
C1142 C315 0.945 . S
C1167 C328 0.943 . S
C1172 C31 0.928 . S
C1197 C341 0.945 . S
C1202 C250 0.929 . S
C1227 C356 0.943 . S
C1232 C3 0.928 . S
C1257 C304 0.929 . S
C1262 C367 0.945 . S
C1287 C382 0.943 . S
C1292 C55 0.928 . S
C1317 C393 0.945 . S
C1322 C278 0.929 . S
C1347 C406 0.943 . S
C1352 C83 0.928 . S
C1377 C316 1.463 . S
C1382 C10 1.463 . S
C1407 C17 1.464 . S
C1412 C121 1.464 . S
C1437 C30 1.463 . S
C1442 C342 1.463 . S
C1467 C49 1.464 . S
C1472 C153 1.464 . S
C1497 C62 1.463 . S
C1502 C368 1.463 . S
C1527 C69 1.464 . S
C1532 C173 1.464 . S
C1557 C394 1.463 . S
C1562 C82 1.463 . S
C1587 C101 1.464 . S
C1592 C205 1.464 . S
C1617 C114 1.463 . S
C1622 C212 1.463 . S
C1647 C140 1.463 . S
C1652 C244 1.463 . S
C1677 C264 1.463 . S
C1682 C160 1.463 . S
C1707 C296 1.463 . S
C1712 C192 1.463 . S
C1737 C231 1.464 . S
C1742 C329 1.464 . S
C1767 C361 1.464 . S
C1772 C257 1.464 . S
C1797 C277 1.464 . S
C1802 C387 1.464 . S
C1827 C407 1.464 . S
C1832 C303 1.464 . S
C1857 C283 2.128 . S
C1862 C4 2.128 . S
C1887 C290 2.128 . S
C1892 C23 2.128 . S
C1917 C36 2.128 . S
C1922 C309 2.128 . S
C1947 C270 2.128 . S
C1952 C43 2.128 . S
C1977 C251 2.128 . S
C1982 C56 2.128 . S
C2007 C218 2.128 . S
C2012 C75 2.128 . S
C2037 C88 2.128 . S
C2042 C225 2.128 . S
C2067 C238 2.128 . S
C2072 C95 2.128 . S
C2097 C381 2.128 . S
C2102 C108 2.128 . S
C2127 C400 2.128 . S
C2132 C127 2.128 . S
C2157 C413 2.128 . S
C2162 C134 2.128 . S
C2187 C147 2.128 . S
C2192 C374 2.128 . S
C2217 C355 2.128 . S
C2222 C166 2.128 . S
C2247 C322 2.128 . S
C2252 C179 2.128 . S
C2277 C335 2.128 . S
C2282 C186 2.128 . S
C2307 C348 2.128 . S
C2312 C199 2.128 . S
