# Generated by pormake.
# Topology lvt, (4)-cn, num edge types: 1
# Building blocks:
#     Node 0, Type 0, BuildingBlock: KOZSID_clean_sbu_0, # of connection points: 4
#     Node 1, Type 0, BuildingBlock: KOZSID_clean_sbu_0, # of connection points: 4
#     Node 2, Type 0, BuildingBlock: KOZSID_clean_sbu_0, # of connection points: 4
#     Node 3, Type 0, BuildingBlock: KOZSID_clean_sbu_0, # of connection points: 4
#     Node 4, Type 0, BuildingBlock: KOZSID_clean_sbu_0, # of connection points: 4
#     Node 5, Type 0, BuildingBlock: KOZSID_clean_sbu_0, # of connection points: 4
#     Node 6, Type 0, BuildingBlock: KOZSID_clean_sbu_0, # of connection points: 4
#     Node 7, Type 0, BuildingBlock: KOZSID_clean_sbu_0, # of connection points: 4
#     Edge 8, Type (0, 0), BuildingBlock: AJUNOK_clean_linker_0, # of connection points: 2
#     Edge 9, Type (0, 0), BuildingBlock: AJUNOK_clean_linker_0, # of connection points: 2
#     Edge 10, Type (0, 0), BuildingBlock: AJUNOK_clean_linker_0, # of connection points: 2
#     Edge 11, Type (0, 0), BuildingBlock: AJUNOK_clean_linker_0, # of connection points: 2
#     Edge 12, Type (0, 0), BuildingBlock: AJUNOK_clean_linker_0, # of connection points: 2
#     Edge 13, Type (0, 0), BuildingBlock: AJUNOK_clean_linker_0, # of connection points: 2
#     Edge 14, Type (0, 0), BuildingBlock: AJUNOK_clean_linker_0, # of connection points: 2
#     Edge 15, Type (0, 0), BuildingBlock: AJUNOK_clean_linker_0, # of connection points: 2
#     Edge 16, Type (0, 0), BuildingBlock: AJUNOK_clean_linker_0, # of connection points: 2
#     Edge 17, Type (0, 0), BuildingBlock: AJUNOK_clean_linker_0, # of connection points: 2
#     Edge 18, Type (0, 0), BuildingBlock: AJUNOK_clean_linker_0, # of connection points: 2
#     Edge 19, Type (0, 0), BuildingBlock: AJUNOK_clean_linker_0, # of connection points: 2
#     Edge 20, Type (0, 0), BuildingBlock: AJUNOK_clean_linker_0, # of connection points: 2
#     Edge 21, Type (0, 0), BuildingBlock: AJUNOK_clean_linker_0, # of connection points: 2
#     Edge 22, Type (0, 0), BuildingBlock: AJUNOK_clean_linker_0, # of connection points: 2
#     Edge 23, Type (0, 0), BuildingBlock: AJUNOK_clean_linker_0, # of connection points: 2
# Relax obj value: 0.005
# Max RMSD: 0.039
# Mean RMSD: 0.026
data_MOF--net-lvt--node1-KOZSID_clean_sbu_0--edge1-AJUNOK_clean_linker_0
_symmetry_space_group_name_H-M    P1
_symmetry_Int_Tables_number       1
_symmetry_cell_setting            triclinic
loop_
_symmetry_equiv_pos_as_xyz
'x, y, z'
_cell_length_a     33.620734
_cell_length_b     33.636571
_cell_length_c     30.834607
_cell_angle_alpha  82.049506
_cell_angle_beta   93.863192
_cell_angle_gamma 86.379186
loop_
_atom_site_label
_atom_site_type_symbol
_atom_site_fract_x
_atom_site_fract_y
_atom_site_fract_z
_atom_type_partial_charge
C0 C 0.06877 0.93925 0.53835 0.0
C1 C 0.07862 0.90232 0.52493 0.0
C2 C 0.05633 0.90137 0.48655 0.0
C3 C 0.03381 0.93733 0.47889 0.0
N4 N 0.04049 0.96146 0.50986 0.0
Co5 Co 0.0106 0.01438 0.51353 0.0
N6 N 0.97722 0.01255 0.45732 0.0
C7 C 0.98059 0.98393 0.4307 0.0
C8 C 0.957 0.99247 0.39216 0.0
C9 C 0.93745 0.02888 0.39401 0.0
C10 C 0.94974 0.04025 0.43415 0.0
N11 N 0.97974 0.06651 0.51817 0.0
C12 C 0.94954 0.08747 0.49133 0.0
C13 C 0.9349 0.12097 0.50866 0.0
C14 C 0.95729 0.12188 0.54701 0.0
C15 C 0.98387 0.08875 0.55131 0.0
N16 N 0.04503 0.01707 0.56877 0.0
C17 C 0.04431 0.04755 0.59313 0.0
C18 C 0.07315 0.04264 0.62738 0.0
C19 C 0.09344 1.00669 0.62503 0.0
C20 C 0.07526 0.99131 0.58978 0.0
N21 N 0.05027 0.04398 0.47863 0.0
C22 C 0.10388 0.08743 0.42641 0.0
C23 C 0.08886 0.10217 0.46281 0.0
C24 C 0.06225 0.08028 0.4881 0.0
C25 C 0.09218 0.05009 0.41735 0.0
C26 C 0.06579 0.02907 0.44363 0.0
N27 N 0.97088 0.98467 0.54829 0.0
C28 C 0.93536 0.97219 0.61426 0.0
C29 C 0.91686 0.94023 0.5988 0.0
C30 C 0.92526 0.93154 0.5572 0.0
C31 C 0.95199 0.9539 0.53275 0.0
C32 C 0.96211 0.99372 0.5888 0.0
H33 H 0.95694 0.94561 0.50135 0.0
H34 H 0.97555 0.0174 0.60274 0.0
H35 H 0.05168 0.09341 0.51511 0.0
H36 H 0.05819 1.00089 0.43469 0.0
C37 C 1.00646 0.94949 0.44269 0.0
C38 C 0.08684 0.95154 0.57858 0.0
C39 C 0.93459 0.07768 0.44865 0.0
C40 C 0.01478 0.07926 0.58439 0.0
H41 H 0.09947 0.87823 0.54125 0.0
H42 H 0.05627 0.87717 0.46678 0.0
H43 H 0.95474 0.97462 0.36557 0.0
H44 H 0.91679 0.04525 0.36834 0.0
H45 H 0.91088 0.1429 0.49474 0.0
H46 H 0.95494 0.14442 0.56877 0.0
H47 H 0.07843 0.06256 0.65156 0.0
H48 H 0.11838 0.99302 0.64725 0.0
H49 H 0.09781 0.13036 0.47215 0.0
H50 H 0.10289 0.03724 0.38959 0.0
H51 H 0.92977 0.98016 0.64627 0.0
H52 H 0.91096 0.90772 0.54326 0.0
C53 C 0.17407 0.79107 0.71094 0.0
C54 C 0.13362 0.78882 0.71652 0.0
C55 C 0.13087 0.76804 0.75742 0.0
C56 C 0.16958 0.75639 0.77304 0.0
N57 N 0.1966 0.7677 0.7442 0.0
Co58 Co 0.2512 0.74077 0.74341 0.0
N59 N 0.24887 0.71067 0.80402 0.0
C60 C 0.21829 0.71324 0.83007 0.0
C61 C 0.22647 0.69271 0.8716 0.0
C62 C 0.26478 0.67641 0.87235 0.0
C63 C 0.27765 0.68743 0.8308 0.0
N64 N 0.30508 0.71223 0.74169 0.0
C65 C 0.32749 0.6863 0.77296 0.0
C66 C 0.36245 0.67195 0.75695 0.0
C67 C 0.36256 0.69022 0.7146 0.0
C68 C 0.32764 0.71423 0.70695 0.0
N69 N 0.25425 0.7729 0.68372 0.0
C70 C 0.28352 0.76862 0.65636 0.0
C71 C 0.27355 0.78724 0.6144 0.0
C72 C 0.23636 0.80556 0.61552 0.0
C73 C 0.2266 0.79951 0.65891 0.0
N74 N 0.27634 0.78405 0.77058 0.0
C75 C 0.31922 0.83483 0.81909 0.0
C76 C 0.33465 0.82085 0.78253 0.0
C77 C 0.31272 0.79605 0.75863 0.0
C78 C 0.28057 0.82531 0.82892 0.0
C79 C 0.25969 0.80003 0.80431 0.0
N80 N 0.22561 0.69659 0.7161 0.0
C81 C 0.2115 0.66283 0.65253 0.0
C82 C 0.18133 0.6424 0.67276 0.0
C83 C 0.17512 0.64784 0.71592 0.0
C84 C 0.19786 0.67416 0.73702 0.0
C85 C 0.23324 0.68909 0.67465 0.0
H86 H 0.19202 0.67581 0.77019 0.0
H87 H 0.25571 0.70302 0.6569 0.0
H88 H 0.3261 0.78595 0.73119 0.0
H89 H 0.23058 0.79267 0.81368 0.0
C90 C 0.18155 0.73332 0.81358 0.0
C91 C 0.19053 0.8178 0.6757 0.0
C92 C 0.31729 0.67495 0.81823 0.0
C93 C 0.31649 0.74103 0.66877 0.0
H94 H 0.10872 0.80244 0.69417 0.0
H95 H 0.10387 0.7616 0.77348 0.0
H96 H 0.20689 0.68988 0.89816 0.0
H97 H 0.28127 0.65843 0.90042 0.0
H98 H 0.38575 0.65083 0.7742 0.0
H99 H 0.38572 0.68698 0.69233 0.0
H100 H 0.2899 0.78495 0.58567 0.0
H101 H 0.2177 0.81898 0.5867 0.0
H102 H 0.36384 0.82863 0.7727 0.0
H103 H 0.2671 0.8361 0.85645 0.0
H104 H 0.21769 0.65954 0.61914 0.0
H105 H 0.15275 0.63181 0.73345 0.0
C106 C 0.4395 0.07228 0.01847 0.0
C107 C 0.42024 0.10844 0.99821 0.0
C108 C 0.43546 0.11674 0.95829 0.0
C109 C 0.46302 0.08531 0.95647 0.0
N110 N 0.46586 0.05701 0.99249 0.0
Co111 Co 0.50407 0.0077 1.0048 0.0
N112 N 0.52967 0.02217 0.94829 0.0
C113 C 0.51998 0.05495 0.91786 0.0
C114 C 0.54157 0.05595 0.88161 0.0
C115 C 0.56616 0.02145 0.88896 0.0
C116 C 0.55812 1.00134 0.92946 0.0
N117 N 0.54245 0.95853 0.01729 0.0
C118 C 0.56981 0.94387 0.992 0.0
C119 C 0.58943 0.908 0.01263 0.0
C120 C 0.5735 0.8993 0.05208 0.0
C121 C 0.54523 0.93024 0.05332 0.0
N122 N 0.47839 0.99315 0.06122 0.0
C123 C 0.48745 0.95993 0.0912 0.0
C124 C 0.46599 0.95902 0.12755 0.0
C125 C 0.44222 0.99407 0.12076 0.0
C126 C 0.45064 0.0144 0.08052 0.0
N127 N 0.4654 0.97644 0.97356 0.0
C128 C 0.41562 0.92999 0.92586 0.0
C129 C 0.43469 0.91395 0.96679 0.0
C130 C 0.45897 0.93753 0.98998 0.0
C131 C 0.42082 0.97011 0.90995 0.0
C132 C 0.44569 0.99251 0.93397 0.0
N133 N 0.54259 0.039 0.03597 0.0
C134 C 0.58533 0.04654 0.10053 0.0
C135 C 0.59116 0.08633 0.08376 0.0
C136 C 0.57346 0.1015 0.04196 0.0
C137 C 0.54979 0.07748 0.01874 0.0
C138 C 0.56106 0.02366 0.07641 0.0
H139 H 0.53721 0.09091 0.98709 0.0
H140 H 0.55715 0.99386 0.09149 0.0
H141 H 0.47257 0.92341 0.02091 0.0
H142 H 0.44895 0.02258 0.91943 0.0
C143 C 0.48886 0.08304 0.92309 0.0
C144 C 0.43315 0.05472 0.06321 0.0
C145 C 0.57696 0.96172 0.9476 0.0
C146 C 0.51884 0.93208 0.08622 0.0
H147 H 0.39824 0.12736 0.01145 0.0
H148 H 0.42832 0.14324 0.93415 0.0
H149 H 0.53893 0.07851 0.8527 0.0
H150 H 0.58702 0.0117 0.86664 0.0
H151 H 0.61223 0.88957 0.99997 0.0
H152 H 0.58078 0.87293 0.07636 0.0
H153 H 0.46847 0.93634 0.15633 0.0
H154 H 0.42187 1.00413 0.14342 0.0
H155 H 0.43088 0.88326 0.98099 0.0
H156 H 0.40657 0.98392 0.87843 0.0
H157 H 0.59864 0.03337 0.1327 0.0
H158 H 0.57792 0.13184 0.02709 0.0
C159 C 0.28074 0.30845 0.17423 0.0
C160 C 0.26202 0.32774 0.13472 0.0
C161 C 0.22626 0.3113 0.12932 0.0
C162 C 0.22512 0.28292 0.16557 0.0
N163 N 0.25796 0.28031 0.19398 0.0
Co164 Co 0.26865 0.24226 0.25038 0.0
N165 N 0.21764 0.21575 0.24033 0.0
C166 C 0.19175 0.22304 0.20416 0.0
C167 C 0.15905 0.2007 0.20691 0.0
C168 C 0.16401 0.17824 0.24756 0.0
C169 C 0.19945 0.18846 0.26744 0.0
N170 N 0.27842 0.20537 0.30774 0.0
C171 C 0.25376 0.18024 0.32926 0.0
C172 C 0.27078 0.16328 0.37046 0.0
C173 C 0.3072 0.17849 0.3754 0.0
C174 C 0.31027 0.20398 0.33726 0.0
N175 N 0.3205 0.26765 0.25964 0.0
C176 C 0.34827 0.25748 0.29387 0.0
C177 C 0.38151 0.27895 0.29071 0.0
C178 C 0.37494 0.30395 0.25176 0.0
C179 C 0.33794 0.29618 0.23326 0.0
N180 N 0.24001 0.28199 0.28179 0.0
C181 C 0.19678 0.33216 0.33157 0.0
C182 C 0.23754 0.32125 0.34193 0.0
C183 C 0.25825 0.29603 0.31721 0.0
C184 C 0.17865 0.31891 0.29451 0.0
C185 C 0.2007 0.29462 0.27 0.0
N186 N 0.29736 0.2024 0.2189 0.0
C187 C 0.35406 0.15516 0.21453 0.0
C188 C 0.34185 0.15136 0.17114 0.0
C189 C 0.30616 0.17237 0.15274 0.0
C190 C 0.2846 0.19737 0.17693 0.0
C191 C 0.33157 0.18054 0.23761 0.0
H192 H 0.25801 0.21279 0.16057 0.0
H193 H 0.34274 0.18226 0.2704 0.0
H194 H 0.28892 0.28799 0.3277 0.0
H195 H 0.18504 0.2859 0.24201 0.0
C196 C 0.19599 0.25521 0.17133 0.0
C197 C 0.32093 0.31652 0.19044 0.0
C198 C 0.21327 0.17334 0.31301 0.0
C199 C 0.34174 0.22838 0.32902 0.0
H200 H 0.27346 0.35056 0.11153 0.0
H201 H 0.20441 0.3181 0.10141 0.0
H202 H 0.13359 0.20215 0.18316 0.0
H203 H 0.14317 0.1578 0.26166 0.0
H204 H 0.25782 0.14292 0.39499 0.0
H205 H 0.32836 0.1727 0.404 0.0
H206 H 0.40744 0.27666 0.31395 0.0
H207 H 0.39521 0.32538 0.23841 0.0
H208 H 0.25365 0.33204 0.36904 0.0
H209 H 0.14726 0.32661 0.28472 0.0
H210 H 0.38088 0.13858 0.23077 0.0
H211 H 0.29529 0.17031 0.1193 0.0
C212 C 0.78529 0.20823 0.34636 0.0
C213 C 0.77134 0.19457 0.38676 0.0
C214 C 0.73554 0.2154 0.38865 0.0
C215 C 0.72976 0.24092 0.34978 0.0
N216 N 0.75969 0.23765 0.32296 0.0
Co217 Co 0.76457 0.27177 0.26491 0.0
N218 N 0.71332 0.30447 0.26952 0.0
C219 C 0.68999 0.30119 0.3037 0.0
C220 C 0.65677 0.32768 0.2977 0.0
C221 C 0.65857 0.34879 0.25689 0.0
C222 C 0.69273 0.33356 0.24009 0.0
N223 N 0.76906 0.30547 0.20653 0.0
C224 C 0.74246 0.33335 0.18221 0.0
C225 C 0.75621 0.34691 0.14169 0.0
C226 C 0.79263 0.32708 0.14033 0.0
C227 C 0.79896 0.30233 0.17969 0.0
N228 N 0.8161 0.2394 0.26053 0.0
C229 C 0.84039 0.2441 0.22723 0.0
C230 C 0.87337 0.21736 0.23279 0.0
C231 C 0.8704 0.19446 0.27235 0.0
C232 C 0.83577 0.20888 0.28896 0.0
N233 N 0.73404 0.23336 0.23429 0.0
C234 C 0.6877 0.18416 0.18669 0.0
C235 C 0.72564 0.19371 0.1747 0.0
C236 C 0.748 0.21836 0.19853 0.0
C237 C 0.67385 0.19858 0.22371 0.0
C238 C 0.69746 0.22255 0.24709 0.0
N239 N 0.79508 0.3104 0.29558 0.0
C240 C 0.85195 0.3509 0.30223 0.0
C241 C 0.83973 0.36257 0.34137 0.0
C242 C 0.80476 0.34769 0.35703 0.0
C243 C 0.78314 0.32207 0.33389 0.0
C244 C 0.82929 0.32525 0.27994 0.0
H245 H 0.75708 0.31179 0.3481 0.0
H246 H 0.8402 0.31767 0.25027 0.0
H247 H 0.77623 0.22535 0.18696 0.0
H248 H 0.68528 0.23235 0.27517 0.0
C249 C 0.69854 0.27087 0.33949 0.0
C250 C 0.82352 0.19313 0.33232 0.0
C251 C 0.70321 0.34642 0.19529 0.0
C252 C 0.83107 0.27357 0.19085 0.0
H253 H 0.78585 0.17251 0.41278 0.0
H254 H 0.71668 0.21326 0.41586 0.0
H255 H 0.6334 0.33049 0.31981 0.0
H256 H 0.63663 0.37203 0.24082 0.0
H257 H 0.74113 0.36805 0.11518 0.0
H258 H 0.81153 0.32927 0.11316 0.0
H259 H 0.89682 0.21483 0.21071 0.0
H260 H 0.89155 0.17004 0.28734 0.0
H261 H 0.73762 0.18307 0.14629 0.0
H262 H 0.6449 0.19129 0.2347 0.0
H263 H 0.87883 0.36168 0.28866 0.0
H264 H 0.79441 0.35504 0.38768 0.0
C265 C 0.68039 0.72447 0.77861 0.0
C266 C 0.64384 0.71696 0.7588 0.0
C267 C 0.63841 0.74209 0.71984 0.0
C268 C 0.67183 0.76337 0.71796 0.0
N269 N 0.69865 0.75298 0.75307 0.0
Co270 Co 0.75037 0.77802 0.76437 0.0
N271 N 0.74194 0.81569 0.70744 0.0
C272 C 0.7107 0.81772 0.67701 0.0
C273 C 0.71429 0.8445 0.63995 0.0
C274 C 0.75036 0.86003 0.64668 0.0
C275 C 0.76669 0.84184 0.68768 0.0
N276 N 0.80145 0.80392 0.77634 0.0
C277 C 0.82007 0.8319 0.75057 0.0
C278 C 0.85547 0.84115 0.77141 0.0
C279 C 0.85982 0.81763 0.81144 0.0
C280 C 0.82688 0.79559 0.81283 0.0
N281 N 0.75955 0.73951 0.8206 0.0
C282 C 0.79166 0.7365 0.85008 0.0
C283 C 0.78939 0.7081 0.88606 0.0
C284 C 0.7536 0.6921 0.87939 0.0
C285 C 0.73602 0.71162 0.83941 0.0
N286 N 0.77962 0.73841 0.73317 0.0
C287 C 0.82267 0.68608 0.68584 0.0
C288 C 0.84011 0.69828 0.72376 0.0
C289 C 0.81808 0.72379 0.74707 0.0
C290 C 0.78321 0.70006 0.67231 0.0
C291 C 0.76249 0.72611 0.69608 0.0
N292 N 0.72091 0.8176 0.79555 0.0
C293 C 0.71059 0.84738 0.86161 0.0
C294 C 0.67444 0.86729 0.84294 0.0
C295 C 0.66292 0.86333 0.79944 0.0
C296 C 0.68641 0.83871 0.77655 0.0
C297 C 0.73315 0.82295 0.83758 0.0
H298 H 0.67569 0.83688 0.74368 0.0
H299 H 0.76003 0.80817 0.85404 0.0
H300 H 0.83292 0.73152 0.77606 0.0
H301 H 0.7328 0.73628 0.68343 0.0
C302 C 0.67907 0.79311 0.68363 0.0
C303 C 0.69617 0.70392 0.82182 0.0
C304 C 0.80654 0.849 0.70552 0.0
C305 C 0.82142 0.76356 0.8453 0.0
H306 H 0.62309 0.69569 0.77137 0.0
H307 H 0.613 0.74472 0.69586 0.0
H308 H 0.69359 0.8512 0.61102 0.0
H309 H 0.76357 0.88164 0.62362 0.0
H310 H 0.87655 0.86188 0.75843 0.0
H311 H 0.88486 0.81557 0.83582 0.0
H312 H 0.81055 0.70096 0.91455 0.0
H313 H 0.7414 0.66938 0.90204 0.0
H314 H 0.87058 0.68789 0.7356 0.0
H315 H 0.76861 0.69161 0.64287 0.0
H316 H 0.72099 0.84976 0.89511 0.0
H317 H 0.6358 0.87915 0.78301 0.0
C318 C 0.44871 0.53105 0.92649 0.0
C319 C 0.43721 0.51801 0.887 0.0
C320 C 0.45997 0.48335 0.88529 0.0
C321 C 0.48425 0.47727 0.92344 0.0
N322 N 0.47823 0.5058 0.94973 0.0
Co323 Co 0.50932 0.50981 0.00683 0.0
N324 N 0.54491 0.46047 1.00248 0.0
C325 C 0.5437 0.43795 0.96937 0.0
C326 C 0.57201 0.40618 0.97502 0.0
C327 C 0.59228 0.40811 0.0144 0.0
C328 C 0.57482 0.44088 0.03082 0.0
N329 N 0.54043 0.51383 0.06393 0.0
C330 C 0.57 0.48863 0.08717 0.0
C331 C 0.58139 0.50167 0.12671 0.0
C332 C 0.5586 0.53631 0.12838 0.0
C333 C 0.53439 0.54236 0.09021 0.0
N334 N 0.47374 0.55912 0.01124 0.0
C335 C 0.47487 0.58157 0.04439 0.0
C336 C 0.44661 0.61339 0.03872 0.0
C337 C 0.42644 0.61154 0.99927 0.0
C338 C 0.44392 0.57877 0.98286 0.0
N339 N 0.47167 0.47526 0.0394 0.0
C340 C 0.42001 0.42505 0.08695 0.0
C341 C 0.43213 0.46017 0.1018 0.0
C342 C 0.45742 0.48469 0.07765 0.0
C343 C 0.43441 0.41553 0.04785 0.0
C344 C 0.45992 0.44075 0.02486 0.0
N345 N 0.54691 0.54436 0.97417 0.0
C346 C 0.58334 0.60463 0.96476 0.0
C347 C 0.59752 0.59501 0.92557 0.0
C348 C 0.58581 0.55954 0.91127 0.0
C349 C 0.56109 0.53481 0.93594 0.0
C350 C 0.55836 0.57914 0.98831 0.0
H351 H 0.5535 0.50832 0.92303 0.0
H352 H 0.54847 0.58836 0.01773 0.0
H353 H 0.46533 0.51091 0.09092 0.0
H354 H 0.46991 0.43155 0.9955 0.0
C355 C 0.51493 0.44679 0.93395 0.0
C356 C 0.43182 0.56838 0.93961 0.0
C357 C 0.58709 0.4514 0.074 0.0
C358 C 0.50367 0.57277 0.07975 0.0
H359 H 0.41535 0.53245 0.86142 0.0
H360 H 0.45976 0.46541 0.85872 0.0
H361 H 0.57699 0.38395 0.95334 0.0
H362 H 0.61679 0.38735 0.02959 0.0
H363 H 0.6032 0.48725 0.15236 0.0
H364 H 0.55874 0.55422 0.15498 0.0
H365 H 0.44164 0.63562 0.0604 0.0
H366 H 0.40202 0.63237 0.984 0.0
H367 H 0.4228 0.46847 0.13247 0.0
H368 H 0.4259 0.38873 0.03482 0.0
H369 H 0.5916 0.63169 0.97741 0.0
H370 H 0.59501 0.5511 0.88061 0.0
C371 C 0.06612 0.51089 0.58666 0.0
C372 C 0.08103 0.4898 0.62694 0.0
C373 C 0.0615 0.45533 0.63279 0.0
C374 C 0.03592 0.45726 0.59588 0.0
N375 N 0.03816 0.49072 0.56655 0.0
Co376 Co 1.00558 0.50583 0.50893 0.0
N377 N 0.9744 0.45677 0.51935 0.0
C378 C 0.97764 0.4288 0.55568 0.0
C379 C 0.95313 0.39804 0.55302 0.0
C380 C 0.93342 0.40649 0.5123 0.0
C381 C 0.94727 0.44197 0.4923 0.0
N382 N 0.97352 0.52043 0.45088 0.0
C383 C 0.94699 0.49924 0.42995 0.0
C384 C 0.93367 0.51923 0.38861 0.0
C385 C 0.95271 0.554 0.38295 0.0
C386 C 0.97661 0.55326 0.42091 0.0
N387 N 0.03622 0.5553 0.49888 0.0
C388 C 0.03166 0.58424 0.46343 0.0
C389 C 0.0556 0.6154 0.46647 0.0
C390 C 0.07634 0.60616 0.50656 0.0
C391 C 0.06378 0.56975 0.52573 0.0
N392 N 0.04582 0.47488 0.47954 0.0
C393 C 0.09894 0.42933 0.43454 0.0
C394 C 0.08912 0.47033 0.42036 0.0
C395 C 0.06261 0.49223 0.4429 0.0
C396 C 0.08188 0.41179 0.47205 0.0
C397 C 0.05632 0.435 0.49424 0.0
N398 N 0.96545 0.5369 0.53844 0.0
C399 C 0.92669 0.59927 0.54314 0.0
C400 C 0.91519 0.58408 0.58451 0.0
C401 C 0.92823 0.54451 0.60188 0.0
C402 C 0.95321 0.5217 0.57859 0.0
C403 C 0.95112 0.57519 0.52059 0.0
H404 H 0.96285 0.49214 0.59421 0.0
H405 H 0.95852 0.58845 0.48906 0.0
H406 H 0.05586 0.52305 0.42969 0.0
H407 H 0.0449 0.41974 0.52283 0.0
C408 C 1.0071 0.43001 0.5896 0.0
C409 C 0.07822 0.5507 0.56989 0.0
C410 C 0.93503 0.45936 0.44696 0.0
C411 C 1.00388 0.5817 0.42831 0.0
H412 H 0.10306 0.49889 0.65014 0.0
H413 H 0.06465 0.43223 0.66121 0.0
H414 H 0.95102 0.37176 0.57711 0.0
H415 H 0.91209 0.38805 0.49837 0.0
H416 H 0.91308 0.50924 0.36457 0.0
H417 H 0.95036 0.57654 0.35404 0.0
H418 H 0.05726 0.642 0.44268 0.0
H419 H 0.09787 0.62443 0.52044 0.0
H420 H 0.10167 0.4856 0.39173 0.0
H421 H 0.08731 0.37996 0.48392 0.0
H422 H 0.91684 0.62967 0.5282 0.0
H423 H 0.92016 0.53154 0.63396 0.0
C424 C 0.16567 0.09002 0.38425 0.0
C425 C 0.13183 0.11029 0.3982 0.0
C426 C 0.19197 0.11049 0.35704 0.0
C427 C 0.18564 0.15208 0.34285 0.0
H428 H 0.17204 0.05802 0.39465 0.0
H429 H 0.21742 0.09368 0.34689 0.0
S430 S 0.10143 0.21933 0.36813 0.0
N431 N 0.09311 0.17458 0.39398 0.0
N432 N 0.1432 0.21288 0.34385 0.0
C433 C 0.15213 0.17278 0.35629 0.0
C434 C 0.12518 0.152 0.3838 0.0
C435 C 0.15346 0.91163 0.59232 0.0
C436 C 0.11684 0.92324 0.60773 0.0
C437 C 0.17982 0.88143 0.61688 0.0
C438 C 0.1696 0.8593 0.6566 0.0
H439 H 0.16157 0.92569 0.56067 0.0
H440 H 0.20841 0.87687 0.60422 0.0
S441 S 0.08994 0.89784 0.7221 0.0
N442 N 0.07921 0.92235 0.67211 0.0
N443 N 0.13127 0.86932 0.71958 0.0
C444 C 0.1377 0.87792 0.67638 0.0
C445 C 0.11026 0.9082 0.65118 0.0
C446 C 0.352 0.91887 0.88228 0.0
C447 C 0.39109 0.90496 0.89951 0.0
C448 C 0.32866 0.89586 0.85697 0.0
C449 C 0.34378 0.8584 0.84714 0.0
H450 H 0.33926 0.94768 0.88869 0.0
H451 H 0.2988 0.90779 0.84435 0.0
S452 S 0.44426 0.80839 0.88427 0.0
N453 N 0.4437 0.85117 0.90489 0.0
N454 N 0.40012 0.80819 0.85737 0.0
C455 C 0.38277 0.84416 0.86423 0.0
C456 C 0.4063 0.86732 0.89038 0.0
C457 C 0.34723 0.0994 0.11986 0.0
C458 C 0.366 0.12598 0.1449 0.0
C459 C 0.36911 0.07612 0.09386 0.0
C460 C 0.41047 0.07872 0.09181 0.0
H461 H 0.31538 0.09644 0.1205 0.0
H462 H 0.35359 0.05613 0.07502 0.0
S463 S 0.47396 0.14401 0.14943 0.0
N464 N 0.42867 0.15384 0.1648 0.0
N465 N 0.46949 0.10977 0.11617 0.0
C466 C 0.42968 0.10494 0.11647 0.0
C467 C 0.40755 0.1286 0.14301 0.0
C468 C 0.85795 0.93607 0.64534 0.0
C469 C 0.88881 0.91638 0.62571 0.0
C470 C 0.83109 0.91422 0.67059 0.0
C471 C 0.83426 0.87192 0.67735 0.0
H472 H 0.8543 0.96864 0.6408 0.0
H473 H 0.80781 0.93046 0.68514 0.0
S474 S 0.91032 0.80568 0.63535 0.0
N475 N 0.92134 0.85173 0.61631 0.0
N476 N 0.87079 0.81106 0.66361 0.0
C477 C 0.86496 0.85183 0.65838 0.0
C478 C 0.89219 0.87394 0.63255 0.0
C479 C 0.91595 0.14576 0.40426 0.0
C480 C 0.90533 0.10672 0.41939 0.0
C481 C 0.88912 0.1736 0.37691 0.0
C482 C 0.851 0.16315 0.36266 0.0
H483 H 0.94525 0.15484 0.41377 0.0
H484 H 0.89838 0.20346 0.36639 0.0
S485 S 0.80882 0.06473 0.39253 0.0
N486 N 0.85349 0.05959 0.41936 0.0
N487 N 0.80444 0.1107 0.36488 0.0
C488 C 0.84022 0.12408 0.37709 0.0
C489 C 0.867 0.0962 0.40617 0.0
C490 C 0.67745 0.12145 0.15247 0.0
C491 C 0.66263 0.15964 0.16046 0.0
C492 C 0.65411 0.09781 0.12802 0.0
C493 C 0.61536 0.11181 0.1098 0.0
H494 H 0.70717 0.10957 0.16566 0.0
H495 H 0.66667 0.06853 0.12287 0.0
S496 S 0.56306 0.21012 0.12044 0.0
N497 N 0.60691 0.21048 0.14792 0.0
N498 N 0.56336 0.16649 0.10154 0.0
C499 C 0.60039 0.15013 0.11724 0.0
C500 C 0.6239 0.17388 0.14268 0.0
C501 C 0.64244 0.94269 0.91824 0.0
C502 C 0.60129 0.93822 0.91988 0.0
C503 C 0.66588 0.91975 0.89324 0.0
C504 C 0.6489 0.89172 0.86881 0.0
H505 H 0.65658 0.96388 0.93661 0.0
H506 H 0.69749 0.92419 0.89281 0.0
S507 S 0.54237 0.86815 0.86402 0.0
N508 N 0.54452 0.90351 0.89615 0.0
N509 N 0.58823 0.86022 0.84932 0.0
C510 C 0.60762 0.88709 0.87045 0.0
C511 C 0.58392 0.91035 0.89599 0.0
C512 C 0.61405 0.6642 0.89207 0.0
C513 C 0.6235 0.62222 0.89937 0.0
C514 C 0.63754 0.69033 0.86693 0.0
C515 C 0.6714 0.67555 0.84814 0.0
H516 H 0.58795 0.67696 0.9054 0.0
H517 H 0.62919 0.72237 0.86211 0.0
S518 S 0.71019 0.56891 0.85802 0.0
N519 N 0.67033 0.5676 0.88656 0.0
N520 N 0.71349 0.61673 0.83842 0.0
C521 C 0.68129 0.63389 0.85505 0.0
C522 C 0.6576 0.60725 0.88083 0.0
C523 C 0.68193 0.41197 0.14653 0.0
C524 C 0.67372 0.37252 0.16331 0.0
C525 C 0.65417 0.43703 0.11715 0.0
C526 C 0.61668 0.42399 0.10461 0.0
H527 H 0.71004 0.42352 0.15621 0.0
H528 H 0.66187 0.46701 0.10452 0.0
S529 S 0.58043 0.32362 0.13982 0.0
N530 N 0.62581 0.32137 0.1646 0.0
N531 N 0.57272 0.36925 0.11158 0.0
C532 C 0.60801 0.38475 0.12147 0.0
C533 C 0.63666 0.35892 0.15041 0.0
C534 C 0.90537 0.38037 0.37549 0.0
C535 C 0.8638 0.38899 0.36649 0.0
C536 C 0.92823 0.40345 0.40113 0.0
C537 C 0.91047 0.43624 0.41835 0.0
H538 H 0.92021 0.35497 0.36351 0.0
H539 H 0.95998 0.39541 0.40789 0.0
S540 S 0.80361 0.47299 0.40288 0.0
N541 N 0.80638 0.434 0.37569 0.0
N542 N 0.84942 0.47688 0.42403 0.0
C543 C 0.86926 0.44566 0.40913 0.0
C544 C 0.84593 0.42219 0.38318 0.0
C545 C 0.8822 0.671 0.64424 0.0
C546 C 0.84573 0.65953 0.66015 0.0
C547 C 0.90412 0.64675 0.61923 0.0
C548 C 0.89078 0.60976 0.60993 0.0
H549 H 0.89362 0.69917 0.65075 0.0
H550 H 0.93203 0.65673 0.6076 0.0
S551 S 0.79743 0.56592 0.64432 0.0
N552 N 0.79726 0.60882 0.66475 0.0
N553 N 0.83876 0.56298 0.61848 0.0
C554 C 0.85451 0.59787 0.62588 0.0
C555 C 0.83189 0.62284 0.65072 0.0
C556 C 0.40256 0.35592 0.11938 0.0
C557 C 0.39355 0.39796 0.11256 0.0
C558 C 0.37881 0.32985 0.14419 0.0
C559 C 0.34509 0.34475 0.16314 0.0
H560 H 0.42863 0.34305 0.10608 0.0
H561 H 0.38701 0.29779 0.14891 0.0
S562 S 0.3072 0.45159 0.15415 0.0
N563 N 0.34712 0.45279 0.12569 0.0
N564 N 0.30344 0.40374 0.17327 0.0
C565 C 0.33548 0.38646 0.15648 0.0
C566 C 0.35946 0.41304 0.13103 0.0
C567 C 0.33738 0.60944 0.86736 0.0
C568 C 0.34638 0.6486 0.8504 0.0
C569 C 0.36484 0.58386 0.89656 0.0
C570 C 0.4027 0.59614 0.90889 0.0
H571 H 0.30892 0.5985 0.85786 0.0
H572 H 0.35659 0.55411 0.90927 0.0
S573 S 0.44086 0.69557 0.87358 0.0
N574 N 0.39535 0.69873 0.84894 0.0
N575 N 0.44777 0.6499 0.90183 0.0
C576 C 0.41208 0.63514 0.89204 0.0
C577 C 0.3838 0.66148 0.8632 0.0
C578 C 0.1137 0.6225 0.64728 0.0
C579 C 0.15569 0.61681 0.64842 0.0
C580 C 0.08884 0.60072 0.62223 0.0
C581 C 0.10506 0.5722 0.5978 0.0
H582 H 0.09995 0.64474 0.66495 0.0
H583 H 0.05672 0.60651 0.62152 0.0
S584 S 0.2125 0.54388 0.59161 0.0
N585 N 0.21206 0.57895 0.62422 0.0
N586 N 0.16518 0.53824 0.57728 0.0
C587 C 0.14675 0.56551 0.59932 0.0
C588 C 0.1721 0.58776 0.62457 0.0
C589 C 0.14461 0.3877 0.3384 0.0
C590 C 0.17315 0.35719 0.35881 0.0
C591 C 0.12121 0.41089 0.36303 0.0
C592 C 0.1254 0.40495 0.40931 0.0
H593 H 0.14026 0.39387 0.30292 0.0
H594 H 0.09913 0.43327 0.3455 0.0
S595 S 0.19648 0.32957 0.47917 0.0
N596 N 0.20381 0.32198 0.42848 0.0
N597 N 0.16177 0.36717 0.47456 0.0
C598 C 0.15435 0.37502 0.43022 0.0
C599 C 0.17776 0.35092 0.4051 0.0
loop_
_geom_bond_atom_site_label_1
_geom_bond_atom_site_label_2
_geom_bond_distance
_geom_bond_site_symmetry_2
_ccdc_geom_bond_type
C0 C1 1.443 . S
C0 N4 1.376 . S
C0 C38 1.389 . S
C1 C0 1.443 . S
C1 C2 1.340 . S
C1 H41 0.951 . S
C2 C1 1.340 . S
C2 C3 1.439 . S
C2 H42 0.950 . S
C3 C2 1.439 . S
C3 N4 1.374 . S
C3 C37 1.395 1_455 S
N4 C0 1.376 . S
N4 C3 1.374 . S
N4 Co5 2.010 1_565 S
Co5 N4 2.010 1_545 S
Co5 N6 1.992 1_455 S
Co5 N11 2.007 1_455 S
Co5 N16 1.999 1_545 S
Co5 N21 2.286 . S
Co5 N27 2.278 1_445 S
N6 Co5 1.992 1_655 S
N6 C7 1.376 1_545 S
N6 C10 1.383 . S
C7 N6 1.376 1_565 S
C7 C8 1.446 . S
C7 C37 1.391 . S
C8 C7 1.446 . S
C8 C9 1.339 1_565 S
C8 H43 0.949 . S
C9 C8 1.339 1_545 S
C9 C10 1.439 . S
C9 H44 0.950 . S
C10 N6 1.383 . S
C10 C9 1.439 . S
C10 C39 1.392 . S
N11 Co5 2.007 1_655 S
N11 C12 1.376 . S
N11 C15 1.374 . S
C12 N11 1.376 . S
C12 C13 1.443 . S
C12 C39 1.389 . S
C13 C12 1.443 . S
C13 C14 1.340 . S
C13 H45 0.951 . S
C14 C13 1.340 . S
C14 C15 1.439 . S
C14 H46 0.950 . S
C15 N11 1.374 . S
C15 C14 1.439 . S
C15 C40 1.395 1_655 S
N16 Co5 1.999 1_565 S
N16 C17 1.368 1_565 S
N16 C20 1.390 . S
C17 N16 1.368 1_545 S
C17 C18 1.446 . S
C17 C40 1.391 . S
C18 C17 1.446 . S
C18 C19 1.339 1_545 S
C18 H47 0.949 . S
C19 C18 1.339 1_565 S
C19 C20 1.439 . S
C19 H48 0.950 . S
C20 N16 1.390 . S
C20 C19 1.439 . S
C20 C38 1.392 . S
N21 Co5 2.286 . S
N21 C24 1.332 . S
N21 C26 1.332 . S
C22 C23 1.386 . S
C22 C25 1.388 . S
C23 C22 1.386 . S
C23 C24 1.382 . S
C23 H49 0.950 . S
C24 N21 1.332 . S
C24 C23 1.382 . S
C24 H35 0.952 . S
C25 C22 1.388 . S
C25 C26 1.382 . S
C25 H50 0.950 . S
C26 N21 1.332 . S
C26 C25 1.382 . S
C26 H36 0.948 . S
N27 Co5 2.278 1_665 S
N27 C31 1.332 . S
N27 C32 1.332 . S
C28 C29 1.388 . S
C28 C32 1.382 . S
C28 H51 0.950 . S
C29 C28 1.388 . S
C29 C30 1.386 . S
C30 C29 1.386 . S
C30 C31 1.382 . S
C30 H52 0.950 . S
C31 N27 1.332 . S
C31 C30 1.382 . S
C31 H33 0.952 . S
C32 N27 1.332 . S
C32 C28 1.382 . S
C32 H34 0.948 . S
H33 C31 0.952 . S
H34 C32 0.948 . S
H35 C24 0.952 . S
H36 C26 0.948 . S
C37 C3 1.395 1_655 S
C37 C7 1.391 . S
C38 C0 1.389 . S
C38 C20 1.392 . S
C39 C10 1.392 . S
C39 C12 1.389 . S
C40 C15 1.395 1_455 S
C40 C17 1.391 . S
H41 C1 0.951 . S
H42 C2 0.950 . S
H43 C8 0.949 . S
H44 C9 0.950 . S
H45 C13 0.951 . S
H46 C14 0.950 . S
H47 C18 0.949 . S
H48 C19 0.950 . S
H49 C23 0.950 . S
H50 C25 0.950 . S
H51 C28 0.950 . S
H52 C30 0.950 . S
C53 C54 1.443 . S
C53 N57 1.376 . S
C53 C91 1.389 . S
C54 C53 1.443 . S
C54 C55 1.340 . S
C54 H94 0.951 . S
C55 C54 1.340 . S
C55 C56 1.439 . S
C55 H95 0.950 . S
C56 C55 1.439 . S
C56 N57 1.374 . S
C56 C90 1.395 . S
N57 C53 1.376 . S
N57 C56 1.374 . S
N57 Co58 2.008 . S
Co58 N57 2.008 . S
Co58 N59 1.995 . S
Co58 N64 2.008 . S
Co58 N69 1.995 . S
Co58 N74 2.282 . S
Co58 N80 2.282 . S
N59 Co58 1.995 . S
N59 C60 1.376 . S
N59 C63 1.383 . S
C60 N59 1.376 . S
C60 C61 1.446 . S
C60 C90 1.391 . S
C61 C60 1.446 . S
C61 C62 1.339 . S
C61 H96 0.949 . S
C62 C61 1.339 . S
C62 C63 1.439 . S
C62 H97 0.950 . S
C63 N59 1.383 . S
C63 C62 1.439 . S
C63 C92 1.392 . S
N64 Co58 2.008 . S
N64 C65 1.376 . S
N64 C68 1.374 . S
C65 N64 1.376 . S
C65 C66 1.443 . S
C65 C92 1.389 . S
C66 C65 1.443 . S
C66 C67 1.340 . S
C66 H98 0.951 . S
C67 C66 1.340 . S
C67 C68 1.439 . S
C67 H99 0.950 . S
C68 N64 1.374 . S
C68 C67 1.439 . S
C68 C93 1.395 . S
N69 Co58 1.995 . S
N69 C70 1.376 . S
N69 C73 1.383 . S
C70 N69 1.376 . S
C70 C71 1.446 . S
C70 C93 1.391 . S
C71 C70 1.446 . S
C71 C72 1.339 . S
C71 H100 0.949 . S
C72 C71 1.339 . S
C72 C73 1.439 . S
C72 H101 0.950 . S
C73 N69 1.383 . S
C73 C72 1.439 . S
C73 C91 1.392 . S
N74 Co58 2.282 . S
N74 C77 1.332 . S
N74 C79 1.332 . S
C75 C76 1.386 . S
C75 C78 1.388 . S
C76 C75 1.386 . S
C76 C77 1.382 . S
C76 H102 0.950 . S
C77 N74 1.332 . S
C77 C76 1.382 . S
C77 H88 0.952 . S
C78 C75 1.388 . S
C78 C79 1.382 . S
C78 H103 0.950 . S
C79 N74 1.332 . S
C79 C78 1.382 . S
C79 H89 0.948 . S
N80 Co58 2.282 . S
N80 C84 1.332 . S
N80 C85 1.332 . S
C81 C82 1.388 . S
C81 C85 1.382 . S
C81 H104 0.950 . S
C82 C81 1.388 . S
C82 C83 1.386 . S
C83 C82 1.386 . S
C83 C84 1.382 . S
C83 H105 0.950 . S
C84 N80 1.332 . S
C84 C83 1.382 . S
C84 H86 0.952 . S
C85 N80 1.332 . S
C85 C81 1.382 . S
C85 H87 0.948 . S
H86 C84 0.952 . S
H87 C85 0.948 . S
H88 C77 0.952 . S
H89 C79 0.948 . S
C90 C56 1.395 . S
C90 C60 1.391 . S
C91 C53 1.389 . S
C91 C73 1.392 . S
C92 C63 1.392 . S
C92 C65 1.389 . S
C93 C68 1.395 . S
C93 C70 1.391 . S
H94 C54 0.951 . S
H95 C55 0.950 . S
H96 C61 0.949 . S
H97 C62 0.950 . S
H98 C66 0.951 . S
H99 C67 0.950 . S
H100 C71 0.949 . S
H101 C72 0.950 . S
H102 C76 0.950 . S
H103 C78 0.950 . S
H104 C81 0.950 . S
H105 C83 0.950 . S
C106 C107 1.443 1_554 S
C106 N110 1.376 1_554 S
C106 C144 1.389 . S
C107 C106 1.443 1_556 S
C107 C108 1.340 . S
C107 H147 0.951 1_556 S
C108 C107 1.340 . S
C108 C109 1.439 . S
C108 H148 0.950 . S
C109 C108 1.439 . S
C109 N110 1.374 . S
C109 C143 1.395 . S
N110 C106 1.376 1_556 S
N110 C109 1.374 . S
N110 Co111 2.008 1_556 S
Co111 N110 2.008 1_554 S
Co111 N112 1.975 1_554 S
Co111 N117 2.009 1_545 S
Co111 N122 2.014 1_545 S
Co111 N127 2.271 1_544 S
Co111 N133 2.294 . S
N112 Co111 1.975 1_556 S
N112 C113 1.376 . S
N112 C116 1.383 1_545 S
C113 N112 1.376 . S
C113 C114 1.446 . S
C113 C143 1.391 . S
C114 C113 1.446 . S
C114 C115 1.339 . S
C114 H149 0.949 . S
C115 C114 1.339 . S
C115 C116 1.439 1_545 S
C115 H150 0.950 1_545 S
C116 N112 1.383 1_565 S
C116 C115 1.439 1_565 S
C116 C145 1.392 . S
N117 Co111 2.009 1_565 S
N117 C118 1.376 1_554 S
N117 C121 1.374 . S
C118 N117 1.376 1_556 S
C118 C119 1.443 1_556 S
C118 C145 1.389 . S
C119 C118 1.443 1_554 S
C119 C120 1.340 . S
C119 H151 0.951 1_554 S
C120 C119 1.340 . S
C120 C121 1.439 . S
C120 H152 0.950 . S
C121 N117 1.374 . S
C121 C120 1.439 . S
C121 C146 1.395 . S
N122 Co111 2.014 1_565 S
N122 C123 1.376 . S
N122 C126 1.383 1_565 S
C123 N122 1.376 . S
C123 C124 1.446 . S
C123 C146 1.391 . S
C124 C123 1.446 . S
C124 C125 1.339 . S
C124 H153 0.949 . S
C125 C124 1.339 . S
C125 C126 1.439 1_565 S
C125 H154 0.950 1_565 S
C126 N122 1.383 1_545 S
C126 C125 1.439 1_545 S
C126 C144 1.392 . S
N127 Co111 2.271 1_566 S
N127 C130 1.332 . S
N127 C132 1.332 . S
C128 C129 1.386 . S
C128 C131 1.388 . S
C129 C128 1.386 . S
C129 C130 1.382 . S
C129 H155 0.950 . S
C130 N127 1.332 . S
C130 C129 1.382 . S
C130 H141 0.952 1_556 S
C131 C128 1.388 . S
C131 C132 1.382 . S
C131 H156 0.950 . S
C132 N127 1.332 . S
C132 C131 1.382 . S
C132 H142 0.948 . S
N133 Co111 2.294 . S
N133 C137 1.332 . S
N133 C138 1.332 . S
C134 C135 1.388 . S
C134 C138 1.382 . S
C134 H157 0.950 . S
C135 C134 1.388 . S
C135 C136 1.386 . S
C136 C135 1.386 . S
C136 C137 1.382 . S
C136 H158 0.950 . S
C137 N133 1.332 . S
C137 C136 1.382 . S
C137 H139 0.952 1_554 S
C138 N133 1.332 . S
C138 C134 1.382 . S
C138 H140 0.948 . S
H139 C137 0.952 1_556 S
H140 C138 0.948 . S
H141 C130 0.952 1_554 S
H142 C132 0.948 . S
C143 C109 1.395 . S
C143 C113 1.391 . S
C144 C106 1.389 . S
C144 C126 1.392 . S
C145 C116 1.392 . S
C145 C118 1.389 . S
C146 C121 1.395 . S
C146 C123 1.391 . S
H147 C107 0.951 1_554 S
H148 C108 0.950 . S
H149 C114 0.949 . S
H150 C115 0.950 1_565 S
H151 C119 0.951 1_556 S
H152 C120 0.950 . S
H153 C124 0.949 . S
H154 C125 0.950 1_545 S
H155 C129 0.950 . S
H156 C131 0.950 . S
H157 C134 0.950 . S
H158 C136 0.950 . S
C159 C160 1.443 . S
C159 N163 1.376 . S
C159 C197 1.389 . S
C160 C159 1.443 . S
C160 C161 1.340 . S
C160 H200 0.951 . S
C161 C160 1.340 . S
C161 C162 1.439 . S
C161 H201 0.950 . S
C162 C161 1.439 . S
C162 N163 1.374 . S
C162 C196 1.395 . S
N163 C159 1.376 . S
N163 C162 1.374 . S
N163 Co164 2.008 . S
Co164 N163 2.008 . S
Co164 N165 1.995 . S
Co164 N170 2.008 . S
Co164 N175 1.995 . S
Co164 N180 2.282 . S
Co164 N186 2.282 . S
N165 Co164 1.995 . S
N165 C166 1.376 . S
N165 C169 1.383 . S
C166 N165 1.376 . S
C166 C167 1.446 . S
C166 C196 1.391 . S
C167 C166 1.446 . S
C167 C168 1.339 . S
C167 H202 0.949 . S
C168 C167 1.339 . S
C168 C169 1.439 . S
C168 H203 0.950 . S
C169 N165 1.383 . S
C169 C168 1.439 . S
C169 C198 1.392 . S
N170 Co164 2.008 . S
N170 C171 1.376 . S
N170 C174 1.374 . S
C171 N170 1.376 . S
C171 C172 1.443 . S
C171 C198 1.389 . S
C172 C171 1.443 . S
C172 C173 1.340 . S
C172 H204 0.951 . S
C173 C172 1.340 . S
C173 C174 1.439 . S
C173 H205 0.950 . S
C174 N170 1.374 . S
C174 C173 1.439 . S
C174 C199 1.395 . S
N175 Co164 1.995 . S
N175 C176 1.376 . S
N175 C179 1.383 . S
C176 N175 1.376 . S
C176 C177 1.446 . S
C176 C199 1.391 . S
C177 C176 1.446 . S
C177 C178 1.339 . S
C177 H206 0.949 . S
C178 C177 1.339 . S
C178 C179 1.439 . S
C178 H207 0.950 . S
C179 N175 1.383 . S
C179 C178 1.439 . S
C179 C197 1.392 . S
N180 Co164 2.282 . S
N180 C183 1.332 . S
N180 C185 1.332 . S
C181 C182 1.386 . S
C181 C184 1.388 . S
C182 C181 1.386 . S
C182 C183 1.382 . S
C182 H208 0.950 . S
C183 N180 1.332 . S
C183 C182 1.382 . S
C183 H194 0.952 . S
C184 C181 1.388 . S
C184 C185 1.382 . S
C184 H209 0.950 . S
C185 N180 1.332 . S
C185 C184 1.382 . S
C185 H195 0.948 . S
N186 Co164 2.282 . S
N186 C190 1.332 . S
N186 C191 1.332 . S
C187 C188 1.388 . S
C187 C191 1.382 . S
C187 H210 0.950 . S
C188 C187 1.388 . S
C188 C189 1.386 . S
C189 C188 1.386 . S
C189 C190 1.382 . S
C189 H211 0.950 . S
C190 N186 1.332 . S
C190 C189 1.382 . S
C190 H192 0.952 . S
C191 N186 1.332 . S
C191 C187 1.382 . S
C191 H193 0.948 . S
H192 C190 0.952 . S
H193 C191 0.948 . S
H194 C183 0.952 . S
H195 C185 0.948 . S
C196 C162 1.395 . S
C196 C166 1.391 . S
C197 C159 1.389 . S
C197 C179 1.392 . S
C198 C169 1.392 . S
C198 C171 1.389 . S
C199 C174 1.395 . S
C199 C176 1.391 . S
H200 C160 0.951 . S
H201 C161 0.950 . S
H202 C167 0.949 . S
H203 C168 0.950 . S
H204 C172 0.951 . S
H205 C173 0.950 . S
H206 C177 0.949 . S
H207 C178 0.950 . S
H208 C182 0.950 . S
H209 C184 0.950 . S
H210 C187 0.950 . S
H211 C189 0.950 . S
C212 C213 1.443 . S
C212 N216 1.376 . S
C212 C250 1.389 . S
C213 C212 1.443 . S
C213 C214 1.340 . S
C213 H253 0.951 . S
C214 C213 1.340 . S
C214 C215 1.439 . S
C214 H254 0.950 . S
C215 C214 1.439 . S
C215 N216 1.374 . S
C215 C249 1.395 . S
N216 C212 1.376 . S
N216 C215 1.374 . S
N216 Co217 2.008 . S
Co217 N216 2.008 . S
Co217 N218 1.995 . S
Co217 N223 2.008 . S
Co217 N228 1.995 . S
Co217 N233 2.282 . S
Co217 N239 2.282 . S
N218 Co217 1.995 . S
N218 C219 1.376 . S
N218 C222 1.383 . S
C219 N218 1.376 . S
C219 C220 1.446 . S
C219 C249 1.391 . S
C220 C219 1.446 . S
C220 C221 1.339 . S
C220 H255 0.949 . S
C221 C220 1.339 . S
C221 C222 1.439 . S
C221 H256 0.950 . S
C222 N218 1.383 . S
C222 C221 1.439 . S
C222 C251 1.392 . S
N223 Co217 2.008 . S
N223 C224 1.376 . S
N223 C227 1.374 . S
C224 N223 1.376 . S
C224 C225 1.443 . S
C224 C251 1.389 . S
C225 C224 1.443 . S
C225 C226 1.340 . S
C225 H257 0.951 . S
C226 C225 1.340 . S
C226 C227 1.439 . S
C226 H258 0.950 . S
C227 N223 1.374 . S
C227 C226 1.439 . S
C227 C252 1.395 . S
N228 Co217 1.995 . S
N228 C229 1.376 . S
N228 C232 1.383 . S
C229 N228 1.376 . S
C229 C230 1.446 . S
C229 C252 1.391 . S
C230 C229 1.446 . S
C230 C231 1.339 . S
C230 H259 0.949 . S
C231 C230 1.339 . S
C231 C232 1.439 . S
C231 H260 0.950 . S
C232 N228 1.383 . S
C232 C231 1.439 . S
C232 C250 1.392 . S
N233 Co217 2.282 . S
N233 C236 1.332 . S
N233 C238 1.332 . S
C234 C235 1.386 . S
C234 C237 1.388 . S
C235 C234 1.386 . S
C235 C236 1.382 . S
C235 H261 0.950 . S
C236 N233 1.332 . S
C236 C235 1.382 . S
C236 H247 0.952 . S
C237 C234 1.388 . S
C237 C238 1.382 . S
C237 H262 0.950 . S
C238 N233 1.332 . S
C238 C237 1.382 . S
C238 H248 0.948 . S
N239 Co217 2.282 . S
N239 C243 1.332 . S
N239 C244 1.332 . S
C240 C241 1.388 . S
C240 C244 1.382 . S
C240 H263 0.950 . S
C241 C240 1.388 . S
C241 C242 1.386 . S
C242 C241 1.386 . S
C242 C243 1.382 . S
C242 H264 0.950 . S
C243 N239 1.332 . S
C243 C242 1.382 . S
C243 H245 0.952 . S
C244 N239 1.332 . S
C244 C240 1.382 . S
C244 H246 0.948 . S
H245 C243 0.952 . S
H246 C244 0.948 . S
H247 C236 0.952 . S
H248 C238 0.948 . S
C249 C215 1.395 . S
C249 C219 1.391 . S
C250 C212 1.389 . S
C250 C232 1.392 . S
C251 C222 1.392 . S
C251 C224 1.389 . S
C252 C227 1.395 . S
C252 C229 1.391 . S
H253 C213 0.951 . S
H254 C214 0.950 . S
H255 C220 0.949 . S
H256 C221 0.950 . S
H257 C225 0.951 . S
H258 C226 0.950 . S
H259 C230 0.949 . S
H260 C231 0.950 . S
H261 C235 0.950 . S
H262 C237 0.950 . S
H263 C240 0.950 . S
H264 C242 0.950 . S
C265 C266 1.443 . S
C265 N269 1.376 . S
C265 C303 1.389 . S
C266 C265 1.443 . S
C266 C267 1.340 . S
C266 H306 0.951 . S
C267 C266 1.340 . S
C267 C268 1.439 . S
C267 H307 0.950 . S
C268 C267 1.439 . S
C268 N269 1.374 . S
C268 C302 1.395 . S
N269 C265 1.376 . S
N269 C268 1.374 . S
N269 Co270 2.008 . S
Co270 N269 2.008 . S
Co270 N271 1.995 . S
Co270 N276 2.008 . S
Co270 N281 1.995 . S
Co270 N286 2.282 . S
Co270 N292 2.282 . S
N271 Co270 1.995 . S
N271 C272 1.376 . S
N271 C275 1.383 . S
C272 N271 1.376 . S
C272 C273 1.446 . S
C272 C302 1.391 . S
C273 C272 1.446 . S
C273 C274 1.339 . S
C273 H308 0.949 . S
C274 C273 1.339 . S
C274 C275 1.439 . S
C274 H309 0.950 . S
C275 N271 1.383 . S
C275 C274 1.439 . S
C275 C304 1.392 . S
N276 Co270 2.008 . S
N276 C277 1.376 . S
N276 C280 1.374 . S
C277 N276 1.376 . S
C277 C278 1.443 . S
C277 C304 1.389 . S
C278 C277 1.443 . S
C278 C279 1.340 . S
C278 H310 0.951 . S
C279 C278 1.340 . S
C279 C280 1.439 . S
C279 H311 0.950 . S
C280 N276 1.374 . S
C280 C279 1.439 . S
C280 C305 1.395 . S
N281 Co270 1.995 . S
N281 C282 1.376 . S
N281 C285 1.383 . S
C282 N281 1.376 . S
C282 C283 1.446 . S
C282 C305 1.391 . S
C283 C282 1.446 . S
C283 C284 1.339 . S
C283 H312 0.949 . S
C284 C283 1.339 . S
C284 C285 1.439 . S
C284 H313 0.950 . S
C285 N281 1.383 . S
C285 C284 1.439 . S
C285 C303 1.392 . S
N286 Co270 2.282 . S
N286 C289 1.332 . S
N286 C291 1.332 . S
C287 C288 1.386 . S
C287 C290 1.388 . S
C288 C287 1.386 . S
C288 C289 1.382 . S
C288 H314 0.950 . S
C289 N286 1.332 . S
C289 C288 1.382 . S
C289 H300 0.952 . S
C290 C287 1.388 . S
C290 C291 1.382 . S
C290 H315 0.950 . S
C291 N286 1.332 . S
C291 C290 1.382 . S
C291 H301 0.948 . S
N292 Co270 2.282 . S
N292 C296 1.332 . S
N292 C297 1.332 . S
C293 C294 1.388 . S
C293 C297 1.382 . S
C293 H316 0.950 . S
C294 C293 1.388 . S
C294 C295 1.386 . S
C295 C294 1.386 . S
C295 C296 1.382 . S
C295 H317 0.950 . S
C296 N292 1.332 . S
C296 C295 1.382 . S
C296 H298 0.952 . S
C297 N292 1.332 . S
C297 C293 1.382 . S
C297 H299 0.948 . S
H298 C296 0.952 . S
H299 C297 0.948 . S
H300 C289 0.952 . S
H301 C291 0.948 . S
C302 C268 1.395 . S
C302 C272 1.391 . S
C303 C265 1.389 . S
C303 C285 1.392 . S
C304 C275 1.392 . S
C304 C277 1.389 . S
C305 C280 1.395 . S
C305 C282 1.391 . S
H306 C266 0.951 . S
H307 C267 0.950 . S
H308 C273 0.949 . S
H309 C274 0.950 . S
H310 C278 0.951 . S
H311 C279 0.950 . S
H312 C283 0.949 . S
H313 C284 0.950 . S
H314 C288 0.950 . S
H315 C290 0.950 . S
H316 C293 0.950 . S
H317 C295 0.950 . S
C318 C319 1.443 . S
C318 N322 1.376 . S
C318 C356 1.389 . S
C319 C318 1.443 . S
C319 C320 1.340 . S
C319 H359 0.951 . S
C320 C319 1.340 . S
C320 C321 1.439 . S
C320 H360 0.950 . S
C321 C320 1.439 . S
C321 N322 1.374 . S
C321 C355 1.395 . S
N322 C318 1.376 . S
N322 C321 1.374 . S
N322 Co323 2.008 1_556 S
Co323 N322 2.008 1_554 S
Co323 N324 1.995 1_554 S
Co323 N329 2.008 . S
Co323 N334 1.995 . S
Co323 N339 2.282 . S
Co323 N345 2.282 1_554 S
N324 Co323 1.995 1_556 S
N324 C325 1.376 . S
N324 C328 1.383 1_556 S
C325 N324 1.376 . S
C325 C326 1.446 . S
C325 C355 1.391 . S
C326 C325 1.446 . S
C326 C327 1.339 1_556 S
C326 H361 0.949 . S
C327 C326 1.339 1_554 S
C327 C328 1.439 . S
C327 H362 0.950 . S
C328 N324 1.383 1_554 S
C328 C327 1.439 . S
C328 C357 1.392 . S
N329 Co323 2.008 . S
N329 C330 1.376 . S
N329 C333 1.374 . S
C330 N329 1.376 . S
C330 C331 1.443 . S
C330 C357 1.389 . S
C331 C330 1.443 . S
C331 C332 1.340 . S
C331 H363 0.951 . S
C332 C331 1.340 . S
C332 C333 1.439 . S
C332 H364 0.950 . S
C333 N329 1.374 . S
C333 C332 1.439 . S
C333 C358 1.395 . S
N334 Co323 1.995 . S
N334 C335 1.376 . S
N334 C338 1.383 1_554 S
C335 N334 1.376 . S
C335 C336 1.446 . S
C335 C358 1.391 . S
C336 C335 1.446 . S
C336 C337 1.339 1_554 S
C336 H365 0.949 . S
C337 C336 1.339 1_556 S
C337 C338 1.439 . S
C337 H366 0.950 . S
C338 N334 1.383 1_556 S
C338 C337 1.439 . S
C338 C356 1.392 . S
N339 Co323 2.282 . S
N339 C342 1.332 . S
N339 C344 1.332 . S
C340 C341 1.386 . S
C340 C343 1.388 . S
C341 C340 1.386 . S
C341 C342 1.382 . S
C341 H367 0.950 . S
C342 N339 1.332 . S
C342 C341 1.382 . S
C342 H353 0.952 . S
C343 C340 1.388 . S
C343 C344 1.382 . S
C343 H368 0.950 . S
C344 N339 1.332 . S
C344 C343 1.382 . S
C344 H354 0.948 . S
N345 Co323 2.282 1_556 S
N345 C349 1.332 . S
N345 C350 1.332 . S
C346 C347 1.388 . S
C346 C350 1.382 . S
C346 H369 0.950 . S
C347 C346 1.388 . S
C347 C348 1.386 . S
C348 C347 1.386 . S
C348 C349 1.382 . S
C348 H370 0.950 . S
C349 N345 1.332 . S
C349 C348 1.382 . S
C349 H351 0.952 . S
C350 N345 1.332 . S
C350 C346 1.382 . S
C350 H352 0.948 . S
H351 C349 0.952 . S
H352 C350 0.948 . S
H353 C342 0.952 . S
H354 C344 0.948 . S
C355 C321 1.395 . S
C355 C325 1.391 . S
C356 C318 1.389 . S
C356 C338 1.392 . S
C357 C328 1.392 . S
C357 C330 1.389 . S
C358 C333 1.395 . S
C358 C335 1.391 . S
H359 C319 0.951 . S
H360 C320 0.950 . S
H361 C326 0.949 . S
H362 C327 0.950 . S
H363 C331 0.951 . S
H364 C332 0.950 . S
H365 C336 0.949 . S
H366 C337 0.950 . S
H367 C341 0.950 . S
H368 C343 0.950 . S
H369 C346 0.950 . S
H370 C348 0.950 . S
C371 C372 1.443 . S
C371 N375 1.376 . S
C371 C409 1.389 . S
C372 C371 1.443 . S
C372 C373 1.340 . S
C372 H412 0.951 . S
C373 C372 1.340 . S
C373 C374 1.439 . S
C373 H413 0.950 . S
C374 C373 1.439 . S
C374 N375 1.374 . S
C374 C408 1.395 . S
N375 C371 1.376 . S
N375 C374 1.374 . S
N375 Co376 2.011 . S
Co376 N375 2.011 . S
Co376 N377 1.991 1_455 S
Co376 N382 2.006 1_455 S
Co376 N387 1.998 . S
Co376 N392 2.287 . S
Co376 N398 2.278 1_455 S
N377 Co376 1.991 1_655 S
N377 C378 1.376 . S
N377 C381 1.383 . S
C378 N377 1.376 . S
C378 C379 1.446 . S
C378 C408 1.391 1_655 S
C379 C378 1.446 . S
C379 C380 1.339 . S
C379 H414 0.949 . S
C380 C379 1.339 . S
C380 C381 1.439 . S
C380 H415 0.950 . S
C381 N377 1.383 . S
C381 C380 1.439 . S
C381 C410 1.392 . S
N382 Co376 2.006 1_655 S
N382 C383 1.376 . S
N382 C386 1.374 . S
C383 N382 1.376 . S
C383 C384 1.443 . S
C383 C410 1.389 . S
C384 C383 1.443 . S
C384 C385 1.340 . S
C384 H416 0.951 . S
C385 C384 1.340 . S
C385 C386 1.439 . S
C385 H417 0.950 . S
C386 N382 1.374 . S
C386 C385 1.439 . S
C386 C411 1.411 . S
N387 Co376 1.998 . S
N387 C388 1.376 . S
N387 C391 1.383 . S
C388 N387 1.376 . S
C388 C389 1.446 . S
C388 C411 1.378 1_455 S
C389 C388 1.446 . S
C389 C390 1.339 . S
C389 H418 0.949 . S
C390 C389 1.339 . S
C390 C391 1.439 . S
C390 H419 0.950 . S
C391 N387 1.383 . S
C391 C390 1.439 . S
C391 C409 1.392 . S
N392 Co376 2.287 . S
N392 C395 1.332 . S
N392 C397 1.332 . S
C393 C394 1.386 . S
C393 C396 1.388 . S
C394 C393 1.386 . S
C394 C395 1.382 . S
C394 H420 0.950 . S
C395 N392 1.332 . S
C395 C394 1.382 . S
C395 H406 0.952 . S
C396 C393 1.388 . S
C396 C397 1.382 . S
C396 H421 0.950 . S
C397 N392 1.332 . S
C397 C396 1.382 . S
C397 H407 0.948 . S
N398 Co376 2.278 1_655 S
N398 C402 1.332 . S
N398 C403 1.332 . S
C399 C400 1.388 . S
C399 C403 1.382 . S
C399 H422 0.950 . S
C400 C399 1.388 . S
C400 C401 1.386 . S
C401 C400 1.386 . S
C401 C402 1.382 . S
C401 H423 0.950 . S
C402 N398 1.332 . S
C402 C401 1.382 . S
C402 H404 0.952 . S
C403 N398 1.332 . S
C403 C399 1.382 . S
C403 H405 0.948 . S
H404 C402 0.952 . S
H405 C403 0.948 . S
H406 C395 0.952 . S
H407 C397 0.948 . S
C408 C374 1.395 . S
C408 C378 1.391 1_455 S
C409 C371 1.389 . S
C409 C391 1.392 . S
C410 C381 1.392 . S
C410 C383 1.389 . S
C411 C386 1.411 . S
C411 C388 1.378 1_655 S
H412 C372 0.951 . S
H413 C373 0.950 . S
H414 C379 0.949 . S
H415 C380 0.950 . S
H416 C384 0.951 . S
H417 C385 0.950 . S
H418 C389 0.949 . S
H419 C390 0.950 . S
H420 C394 0.950 . S
H421 C396 0.950 . S
H422 C399 0.950 . S
H423 C401 0.950 . S
C424 C425 1.369 . S
C424 C426 1.419 . S
C424 H428 0.930 . S
C425 C424 1.369 . S
C425 C434 1.429 . S
C426 C424 1.419 . S
C426 C427 1.363 . S
C426 H429 0.929 . S
C427 C426 1.363 . S
C427 C433 1.428 . S
H428 C424 0.930 . S
H429 C426 0.929 . S
S430 N431 1.613 . S
S430 N432 1.610 . S
N431 S430 1.613 . S
N431 C434 1.350 . S
N432 S430 1.610 . S
N432 C433 1.351 . S
C433 C427 1.428 . S
C433 N432 1.351 . S
C433 C434 1.434 . S
C434 C425 1.429 . S
C434 N431 1.350 . S
C434 C433 1.434 . S
C435 C436 1.369 . S
C435 C437 1.419 . S
C435 H439 0.930 . S
C436 C435 1.369 . S
C436 C445 1.429 . S
C437 C435 1.419 . S
C437 C438 1.363 . S
C437 H440 0.929 . S
C438 C437 1.363 . S
C438 C444 1.428 . S
H439 C435 0.930 . S
H440 C437 0.929 . S
S441 N442 1.613 . S
S441 N443 1.610 . S
N442 S441 1.613 . S
N442 C445 1.350 . S
N443 S441 1.610 . S
N443 C444 1.351 . S
C444 C438 1.428 . S
C444 N443 1.351 . S
C444 C445 1.434 . S
C445 C436 1.429 . S
C445 N442 1.350 . S
C445 C444 1.434 . S
C446 C447 1.369 . S
C446 C448 1.419 . S
C446 H450 0.930 . S
C447 C446 1.369 . S
C447 C456 1.429 . S
C448 C446 1.419 . S
C448 C449 1.363 . S
C448 H451 0.929 . S
C449 C448 1.363 . S
C449 C455 1.428 . S
H450 C446 0.930 . S
H451 C448 0.929 . S
S452 N453 1.613 . S
S452 N454 1.610 . S
N453 S452 1.613 . S
N453 C456 1.350 . S
N454 S452 1.610 . S
N454 C455 1.351 . S
C455 C449 1.428 . S
C455 N454 1.351 . S
C455 C456 1.434 . S
C456 C447 1.429 . S
C456 N453 1.350 . S
C456 C455 1.434 . S
C457 C458 1.369 . S
C457 C459 1.419 . S
C457 H461 0.930 . S
C458 C457 1.369 . S
C458 C467 1.429 . S
C459 C457 1.419 . S
C459 C460 1.363 . S
C459 H462 0.929 . S
C460 C459 1.363 . S
C460 C466 1.428 . S
H461 C457 0.930 . S
H462 C459 0.929 . S
S463 N464 1.613 . S
S463 N465 1.610 . S
N464 S463 1.613 . S
N464 C467 1.350 . S
N465 S463 1.610 . S
N465 C466 1.351 . S
C466 C460 1.428 . S
C466 N465 1.351 . S
C466 C467 1.434 . S
C467 C458 1.429 . S
C467 N464 1.350 . S
C467 C466 1.434 . S
C468 C469 1.369 . S
C468 C470 1.419 . S
C468 H472 0.930 . S
C469 C468 1.369 . S
C469 C478 1.429 . S
C470 C468 1.419 . S
C470 C471 1.363 . S
C470 H473 0.929 . S
C471 C470 1.363 . S
C471 C477 1.428 . S
H472 C468 0.930 . S
H473 C470 0.929 . S
S474 N475 1.613 . S
S474 N476 1.610 . S
N475 S474 1.613 . S
N475 C478 1.350 . S
N476 S474 1.610 . S
N476 C477 1.351 . S
C477 C471 1.428 . S
C477 N476 1.351 . S
C477 C478 1.434 . S
C478 C469 1.429 . S
C478 N475 1.350 . S
C478 C477 1.434 . S
C479 C480 1.369 . S
C479 C481 1.419 . S
C479 H483 0.930 . S
C480 C479 1.369 . S
C480 C489 1.429 . S
C481 C479 1.419 . S
C481 C482 1.363 . S
C481 H484 0.929 . S
C482 C481 1.363 . S
C482 C488 1.428 . S
H483 C479 0.930 . S
H484 C481 0.929 . S
S485 N486 1.613 . S
S485 N487 1.610 . S
N486 S485 1.613 . S
N486 C489 1.350 . S
N487 S485 1.610 . S
N487 C488 1.351 . S
C488 C482 1.428 . S
C488 N487 1.351 . S
C488 C489 1.434 . S
C489 C480 1.429 . S
C489 N486 1.350 . S
C489 C488 1.434 . S
C490 C491 1.369 . S
C490 C492 1.419 . S
C490 H494 0.930 . S
C491 C490 1.369 . S
C491 C500 1.429 . S
C492 C490 1.419 . S
C492 C493 1.363 . S
C492 H495 0.929 . S
C493 C492 1.363 . S
C493 C499 1.428 . S
H494 C490 0.930 . S
H495 C492 0.929 . S
S496 N497 1.613 . S
S496 N498 1.610 . S
N497 S496 1.613 . S
N497 C500 1.350 . S
N498 S496 1.610 . S
N498 C499 1.351 . S
C499 C493 1.428 . S
C499 N498 1.351 . S
C499 C500 1.434 . S
C500 C491 1.429 . S
C500 N497 1.350 . S
C500 C499 1.434 . S
C501 C502 1.369 . S
C501 C503 1.419 . S
C501 H505 0.930 . S
C502 C501 1.369 . S
C502 C511 1.429 . S
C503 C501 1.419 . S
C503 C504 1.363 . S
C503 H506 0.929 . S
C504 C503 1.363 . S
C504 C510 1.428 . S
H505 C501 0.930 . S
H506 C503 0.929 . S
S507 N508 1.613 . S
S507 N509 1.610 . S
N508 S507 1.613 . S
N508 C511 1.350 . S
N509 S507 1.610 . S
N509 C510 1.351 . S
C510 C504 1.428 . S
C510 N509 1.351 . S
C510 C511 1.434 . S
C511 C502 1.429 . S
C511 N508 1.350 . S
C511 C510 1.434 . S
C512 C513 1.369 . S
C512 C514 1.419 . S
C512 H516 0.930 . S
C513 C512 1.369 . S
C513 C522 1.429 . S
C514 C512 1.419 . S
C514 C515 1.363 . S
C514 H517 0.929 . S
C515 C514 1.363 . S
C515 C521 1.428 . S
H516 C512 0.930 . S
H517 C514 0.929 . S
S518 N519 1.613 . S
S518 N520 1.610 . S
N519 S518 1.613 . S
N519 C522 1.350 . S
N520 S518 1.610 . S
N520 C521 1.351 . S
C521 C515 1.428 . S
C521 N520 1.351 . S
C521 C522 1.434 . S
C522 C513 1.429 . S
C522 N519 1.350 . S
C522 C521 1.434 . S
C523 C524 1.369 . S
C523 C525 1.419 . S
C523 H527 0.930 . S
C524 C523 1.369 . S
C524 C533 1.429 . S
C525 C523 1.419 . S
C525 C526 1.363 . S
C525 H528 0.929 . S
C526 C525 1.363 . S
C526 C532 1.428 . S
H527 C523 0.930 . S
H528 C525 0.929 . S
S529 N530 1.613 . S
S529 N531 1.610 . S
N530 S529 1.613 . S
N530 C533 1.350 . S
N531 S529 1.610 . S
N531 C532 1.351 . S
C532 C526 1.428 . S
C532 N531 1.351 . S
C532 C533 1.434 . S
C533 C524 1.429 . S
C533 N530 1.350 . S
C533 C532 1.434 . S
C534 C535 1.369 . S
C534 C536 1.419 . S
C534 H538 0.930 . S
C535 C534 1.369 . S
C535 C544 1.429 . S
C536 C534 1.419 . S
C536 C537 1.363 . S
C536 H539 0.929 . S
C537 C536 1.363 . S
C537 C543 1.428 . S
H538 C534 0.930 . S
H539 C536 0.929 . S
S540 N541 1.613 . S
S540 N542 1.610 . S
N541 S540 1.613 . S
N541 C544 1.350 . S
N542 S540 1.610 . S
N542 C543 1.351 . S
C543 C537 1.428 . S
C543 N542 1.351 . S
C543 C544 1.434 . S
C544 C535 1.429 . S
C544 N541 1.350 . S
C544 C543 1.434 . S
C545 C546 1.369 . S
C545 C547 1.419 . S
C545 H549 0.930 . S
C546 C545 1.369 . S
C546 C555 1.429 . S
C547 C545 1.419 . S
C547 C548 1.363 . S
C547 H550 0.929 . S
C548 C547 1.363 . S
C548 C554 1.428 . S
H549 C545 0.930 . S
H550 C547 0.929 . S
S551 N552 1.613 . S
S551 N553 1.610 . S
N552 S551 1.613 . S
N552 C555 1.350 . S
N553 S551 1.610 . S
N553 C554 1.351 . S
C554 C548 1.428 . S
C554 N553 1.351 . S
C554 C555 1.434 . S
C555 C546 1.429 . S
C555 N552 1.350 . S
C555 C554 1.434 . S
C556 C557 1.369 . S
C556 C558 1.419 . S
C556 H560 0.930 . S
C557 C556 1.369 . S
C557 C566 1.429 . S
C558 C556 1.419 . S
C558 C559 1.363 . S
C558 H561 0.929 . S
C559 C558 1.363 . S
C559 C565 1.428 . S
H560 C556 0.930 . S
H561 C558 0.929 . S
S562 N563 1.613 . S
S562 N564 1.610 . S
N563 S562 1.613 . S
N563 C566 1.350 . S
N564 S562 1.610 . S
N564 C565 1.351 . S
C565 C559 1.428 . S
C565 N564 1.351 . S
C565 C566 1.434 . S
C566 C557 1.429 . S
C566 N563 1.350 . S
C566 C565 1.434 . S
C567 C568 1.369 . S
C567 C569 1.419 . S
C567 H571 0.930 . S
C568 C567 1.369 . S
C568 C577 1.429 . S
C569 C567 1.419 . S
C569 C570 1.363 . S
C569 H572 0.929 . S
C570 C569 1.363 . S
C570 C576 1.428 . S
H571 C567 0.930 . S
H572 C569 0.929 . S
S573 N574 1.613 . S
S573 N575 1.610 . S
N574 S573 1.613 . S
N574 C577 1.350 . S
N575 S573 1.610 . S
N575 C576 1.351 . S
C576 C570 1.428 . S
C576 N575 1.351 . S
C576 C577 1.434 . S
C577 C568 1.429 . S
C577 N574 1.350 . S
C577 C576 1.434 . S
C578 C579 1.369 . S
C578 C580 1.419 . S
C578 H582 0.930 . S
C579 C578 1.369 . S
C579 C588 1.429 . S
C580 C578 1.419 . S
C580 C581 1.363 . S
C580 H583 0.929 . S
C581 C580 1.363 . S
C581 C587 1.428 . S
H582 C578 0.930 . S
H583 C580 0.929 . S
S584 N585 1.613 . S
S584 N586 1.610 . S
N585 S584 1.613 . S
N585 C588 1.350 . S
N586 S584 1.610 . S
N586 C587 1.351 . S
C587 C581 1.428 . S
C587 N586 1.351 . S
C587 C588 1.434 . S
C588 C579 1.429 . S
C588 N585 1.350 . S
C588 C587 1.434 . S
C589 C590 1.369 . S
C589 C591 1.419 . S
C589 H593 0.930 . S
C590 C589 1.369 . S
C590 C599 1.429 . S
C591 C589 1.419 . S
C591 C592 1.363 . S
C591 H594 0.929 . S
C592 C591 1.363 . S
C592 C598 1.428 . S
H593 C589 0.930 . S
H594 C591 0.929 . S
S595 N596 1.613 . S
S595 N597 1.610 . S
N596 S595 1.613 . S
N596 C599 1.350 . S
N597 S595 1.610 . S
N597 C598 1.351 . S
C598 C592 1.428 . S
C598 N597 1.351 . S
C598 C599 1.434 . S
C599 C590 1.429 . S
C599 N596 1.350 . S
C599 C598 1.434 . S
C425 C22 1.576 . S
C427 C198 1.579 . S
C436 C38 1.609 . S
C438 C91 1.604 . S
C447 C128 1.401 . S
C449 C75 1.400 . S
C458 C188 1.470 . S
C460 C144 1.470 . S
C469 C29 1.576 . S
C471 C304 1.577 . S
C480 C39 1.607 . S
C482 C250 1.604 . S
C491 C234 1.400 . S
C493 C135 1.401 . S
C502 C145 1.470 . S
C504 C294 1.469 . S
C513 C347 1.525 . S
C515 C303 1.525 . S
C524 C251 1.649 . S
C526 C357 1.645 . S
C535 C241 1.536 . S
C537 C410 1.537 . S
C546 C287 1.340 . S
C548 C400 1.341 . S
C557 C340 1.525 . S
C559 C197 1.526 . S
C568 C92 1.648 . S
C570 C356 1.645 . S
C579 C82 1.535 . S
C581 C409 1.537 . S
C590 C181 1.341 . S
C592 C393 1.341 . S
