# Generated by pormake.
# Topology wfa, (4)-cn, num edge types: 1
# Building blocks:
#     Node 0, Type 0, BuildingBlock: KOZSID_clean_sbu_0, # of connection points: 4
#     Node 1, Type 0, BuildingBlock: KOZSID_clean_sbu_0, # of connection points: 4
#     Node 2, Type 0, BuildingBlock: KOZSID_clean_sbu_0, # of connection points: 4
#     Node 3, Type 0, BuildingBlock: KOZSID_clean_sbu_0, # of connection points: 4
#     Node 4, Type 0, BuildingBlock: KOZSID_clean_sbu_0, # of connection points: 4
#     Node 5, Type 0, BuildingBlock: KOZSID_clean_sbu_0, # of connection points: 4
#     Node 6, Type 0, BuildingBlock: KOZSID_clean_sbu_0, # of connection points: 4
#     Node 7, Type 0, BuildingBlock: KOZSID_clean_sbu_0, # of connection points: 4
#     Node 8, Type 0, BuildingBlock: KOZSID_clean_sbu_0, # of connection points: 4
#     Node 9, Type 0, BuildingBlock: KOZSID_clean_sbu_0, # of connection points: 4
#     Node 10, Type 0, BuildingBlock: KOZSID_clean_sbu_0, # of connection points: 4
#     Node 11, Type 0, BuildingBlock: KOZSID_clean_sbu_0, # of connection points: 4
#     Node 12, Type 0, BuildingBlock: KOZSID_clean_sbu_0, # of connection points: 4
#     Node 13, Type 0, BuildingBlock: KOZSID_clean_sbu_0, # of connection points: 4
#     Node 14, Type 0, BuildingBlock: KOZSID_clean_sbu_0, # of connection points: 4
#     Node 15, Type 0, BuildingBlock: KOZSID_clean_sbu_0, # of connection points: 4
#     Edge 16, Type (0, 0), BuildingBlock: TEMPAE_clean_linker_10, # of connection points: 2
#     Edge 17, Type (0, 0), BuildingBlock: TEMPAE_clean_linker_10, # of connection points: 2
#     Edge 18, Type (0, 0), BuildingBlock: TEMPAE_clean_linker_10, # of connection points: 2
#     Edge 19, Type (0, 0), BuildingBlock: TEMPAE_clean_linker_10, # of connection points: 2
#     Edge 20, Type (0, 0), BuildingBlock: TEMPAE_clean_linker_10, # of connection points: 2
#     Edge 21, Type (0, 0), BuildingBlock: TEMPAE_clean_linker_10, # of connection points: 2
#     Edge 22, Type (0, 0), BuildingBlock: TEMPAE_clean_linker_10, # of connection points: 2
#     Edge 23, Type (0, 0), BuildingBlock: TEMPAE_clean_linker_10, # of connection points: 2
#     Edge 24, Type (0, 0), BuildingBlock: TEMPAE_clean_linker_10, # of connection points: 2
#     Edge 25, Type (0, 0), BuildingBlock: TEMPAE_clean_linker_10, # of connection points: 2
#     Edge 26, Type (0, 0), BuildingBlock: TEMPAE_clean_linker_10, # of connection points: 2
#     Edge 27, Type (0, 0), BuildingBlock: TEMPAE_clean_linker_10, # of connection points: 2
#     Edge 28, Type (0, 0), BuildingBlock: TEMPAE_clean_linker_10, # of connection points: 2
#     Edge 29, Type (0, 0), BuildingBlock: TEMPAE_clean_linker_10, # of connection points: 2
#     Edge 30, Type (0, 0), BuildingBlock: TEMPAE_clean_linker_10, # of connection points: 2
#     Edge 31, Type (0, 0), BuildingBlock: TEMPAE_clean_linker_10, # of connection points: 2
#     Edge 32, Type (0, 0), BuildingBlock: TEMPAE_clean_linker_10, # of connection points: 2
#     Edge 33, Type (0, 0), BuildingBlock: TEMPAE_clean_linker_10, # of connection points: 2
#     Edge 34, Type (0, 0), BuildingBlock: TEMPAE_clean_linker_10, # of connection points: 2
#     Edge 35, Type (0, 0), BuildingBlock: TEMPAE_clean_linker_10, # of connection points: 2
#     Edge 36, Type (0, 0), BuildingBlock: TEMPAE_clean_linker_10, # of connection points: 2
#     Edge 37, Type (0, 0), BuildingBlock: TEMPAE_clean_linker_10, # of connection points: 2
#     Edge 38, Type (0, 0), BuildingBlock: TEMPAE_clean_linker_10, # of connection points: 2
#     Edge 39, Type (0, 0), BuildingBlock: TEMPAE_clean_linker_10, # of connection points: 2
#     Edge 40, Type (0, 0), BuildingBlock: TEMPAE_clean_linker_10, # of connection points: 2
#     Edge 41, Type (0, 0), BuildingBlock: TEMPAE_clean_linker_10, # of connection points: 2
#     Edge 42, Type (0, 0), BuildingBlock: TEMPAE_clean_linker_10, # of connection points: 2
#     Edge 43, Type (0, 0), BuildingBlock: TEMPAE_clean_linker_10, # of connection points: 2
#     Edge 44, Type (0, 0), BuildingBlock: TEMPAE_clean_linker_10, # of connection points: 2
#     Edge 45, Type (0, 0), BuildingBlock: TEMPAE_clean_linker_10, # of connection points: 2
#     Edge 46, Type (0, 0), BuildingBlock: TEMPAE_clean_linker_10, # of connection points: 2
#     Edge 47, Type (0, 0), BuildingBlock: TEMPAE_clean_linker_10, # of connection points: 2
# Relax obj value: 0.123
# Max RMSD: 0.263
# Mean RMSD: 0.210
data_MOF--net-wfa--node1-KOZSID_clean_sbu_0--edge1-TEMPAE_clean_linker_10
_symmetry_space_group_name_H-M    P1
_symmetry_Int_Tables_number       1
_symmetry_cell_setting            triclinic
loop_
_symmetry_equiv_pos_as_xyz
'x, y, z'
_cell_length_a     59.839065
_cell_length_b     62.378144
_cell_length_c     25.262645
_cell_angle_alpha  88.380823
_cell_angle_beta   88.403743
_cell_angle_gamma 89.066189
loop_
_atom_site_label
_atom_site_type_symbol
_atom_site_fract_x
_atom_site_fract_y
_atom_site_fract_z
_atom_type_partial_charge
C0 C 0.54658 0.02426 1.00041 0.0
C1 C 0.53768 0.04368 0.98204 0.0
C2 C 0.55106 0.05937 0.99956 0.0
C3 C 0.56752 0.04869 0.0268 0.0
N4 N 0.56594 0.02715 0.02634 0.0
Co5 Co 0.58696 1.00597 0.06112 0.0
N6 N 0.60829 0.02892 0.07969 0.0
C7 C 0.60434 0.05023 0.0754 0.0
C8 C 0.62139 0.06233 0.09294 0.0
C9 C 0.63715 0.04784 0.11003 0.0
C10 C 0.62883 0.02759 0.10167 0.0
N11 N 0.60779 0.98479 0.09615 0.0
C12 C 0.6287 0.9872 0.11468 0.0
C13 C 0.63756 0.96778 0.13324 0.0
C14 C 0.62152 0.95279 0.12765 0.0
C15 C 0.60393 0.9638 0.10558 0.0
N16 N 0.56545 0.98305 0.04262 0.0
C17 C 0.56694 0.96222 0.05823 0.0
C18 C 0.54936 0.95019 0.04373 0.0
C19 C 0.53542 0.96421 0.01814 0.0
C20 C 0.54538 0.98421 0.01799 0.0
N21 N 0.60384 1.00251 0.9932 0.0
C22 C 0.63649 1.00028 0.91021 0.0
C23 C 0.62956 0.98174 0.93864 0.0
C24 C 0.61307 0.98316 0.97927 0.0
C25 C 0.6252 0.01954 0.92158 0.0
C26 C 0.60924 0.02033 0.96295 0.0
N27 N 0.5709 0.01008 0.12929 0.0
C28 C 0.53756 0.02303 0.17422 0.0
C29 C 0.55016 0.02951 0.21655 0.0
C30 C 0.57272 0.02323 0.21768 0.0
C31 C 0.58271 0.01346 0.17381 0.0
C32 C 0.5482 0.01303 0.13156 0.0
H33 H 0.60033 0.01017 0.17493 0.0
H34 H 0.5381 1.00918 0.09926 0.0
H35 H 0.60864 0.96867 1.00078 0.0
H36 H 0.60217 0.03575 0.97159 0.0
C37 C 0.58519 0.05831 0.05135 0.0
C38 C 0.53386 1.00423 1.00067 0.0
C39 C 0.63994 1.00771 0.12039 0.0
C40 C 0.58473 0.95452 0.08775 0.0
H41 H 0.52233 0.04626 0.96092 0.0
H42 H 0.54882 0.07652 0.99387 0.0
H43 H 0.62231 0.07965 0.09313 0.0
H44 H 0.65273 0.05182 0.12779 0.0
H45 H 0.65384 0.9648 0.14983 0.0
H46 H 0.62273 0.93581 0.13737 0.0
H47 H 0.54662 0.93332 0.05232 0.0
H48 H 0.51933 0.95999 0.00374 0.0
H49 H 0.63743 0.96632 0.93136 0.0
H50 H 0.62903 0.03424 0.89961 0.0
H51 H 0.51994 0.02709 0.1718 0.0
H52 H 0.58296 0.02702 0.25074 0.0
C53 C 0.56453 0.65457 0.09342 0.0
C54 C 0.58624 0.64775 0.10326 0.0
C55 C 0.60004 0.66121 0.07421 0.0
C56 C 0.58606 0.67526 0.04786 0.0
N57 N 0.56433 0.67159 0.05887 0.0
Co58 Co 0.53828 0.68591 0.02431 0.0
N59 N 0.55738 0.69753 0.96431 0.0
C60 C 0.57994 0.69774 0.96313 0.0
C61 C 0.58893 0.70812 0.91924 0.0
C62 C 0.57101 0.71551 0.89142 0.0
C63 C 0.55192 0.70921 0.91998 0.0
N64 N 0.51207 0.70033 0.99024 0.0
C65 C 0.51045 0.71128 0.94311 0.0
C66 C 0.4889 0.7193 0.93628 0.0
C67 C 0.47692 0.71419 0.9816 0.0
C68 C 0.49164 0.70314 0.01327 0.0
N69 N 0.51944 0.67463 0.0841 0.0
C70 C 0.49883 0.68151 0.09859 0.0
C71 C 0.49012 0.67029 0.14177 0.0
C72 C 0.50625 0.65532 0.15477 0.0
C73 C 0.52381 0.65823 0.11841 0.0
N74 N 0.54335 0.71195 0.06475 0.0
C75 C 0.54691 0.74842 0.12733 0.0
C76 C 0.54296 0.75047 0.07293 0.0
C77 C 0.54138 0.73213 0.04247 0.0
C78 C 0.54963 0.72768 0.14923 0.0
C79 C 0.54784 0.70981 0.11751 0.0
N80 N 0.53314 0.65903 0.98659 0.0
C81 C 0.50943 0.62807 0.98145 0.0
C82 C 0.52808 0.61453 0.97289 0.0
C83 C 0.54896 0.62427 0.96524 0.0
C84 C 0.55101 0.64653 0.97078 0.0
C85 C 0.51231 0.65017 0.98835 0.0
H86 H 0.56747 0.65323 0.96685 0.0
H87 H 0.49785 0.65964 0.99967 0.0
H88 H 0.53827 0.73442 1.00116 0.0
H89 H 0.54959 0.69417 0.13629 0.0
C90 C 0.59221 0.68783 0.00351 0.0
C91 C 0.54422 0.64496 0.11662 0.0
C92 C 0.52942 0.71772 0.90822 0.0
C93 C 0.48673 0.69488 0.06426 0.0
H94 H 0.59172 0.63414 0.1271 0.0
H95 H 0.61804 0.65975 0.0695 0.0
H96 H 0.60644 0.71051 0.90931 0.0
H97 H 0.57204 0.7254 0.85562 0.0
H98 H 0.48286 0.72893 0.9032 0.0
H99 H 0.45966 0.71845 0.99081 0.0
H100 H 0.47353 0.67186 0.15955 0.0
H101 H 0.50503 0.6433 0.18633 0.0
H102 H 0.54107 0.76615 0.0539 0.0
H103 H 0.55246 0.72514 0.19111 0.0
H104 H 0.4929 0.62143 0.98707 0.0
H105 H 0.5638 0.61464 0.95693 0.0
C106 C 0.96207 0.49609 0.98317 0.0
C107 C 0.96946 0.47483 0.98158 0.0
C108 C 0.95173 0.46235 0.9957 0.0
C109 C 0.93458 0.47642 0.00624 0.0
N110 N 0.93993 0.49725 0.9983 0.0
Co111 Co 0.92109 0.52241 0.02244 0.0
N112 N 0.89585 0.50361 0.04765 0.0
C113 C 0.89523 0.4821 0.04513 0.0
C114 C 0.87518 0.47355 0.06162 0.0
C115 C 0.86222 0.49071 0.07615 0.0
C116 C 0.87527 0.50877 0.06809 0.0
N117 N 0.9033 0.5474 0.05005 0.0
C118 C 0.88314 0.54823 0.07624 0.0
C119 C 0.87801 0.56889 0.09228 0.0
C120 C 0.8954 0.58149 0.07533 0.0
C121 C 0.91024 0.56787 0.05051 0.0
N122 N 0.94576 0.54118 0.99354 0.0
C123 C 0.94607 0.56274 0.9944 0.0
C124 C 0.96455 0.57144 0.96925 0.0
C125 C 0.97714 0.55428 0.95264 0.0
C126 C 0.96576 0.53601 0.96946 0.0
N127 N 0.90594 0.52528 0.95312 0.0
C128 C 0.87499 0.52846 0.86968 0.0
C129 C 0.88268 0.54676 0.89419 0.0
C130 C 0.89822 0.54486 0.93479 0.0
C131 C 0.88468 0.50869 0.88529 0.0
C132 C 0.89997 0.50748 0.92656 0.0
N133 N 0.93535 0.51933 0.09234 0.0
C134 C 0.96896 0.51294 0.14126 0.0
C135 C 0.95668 0.50328 0.18296 0.0
C136 C 0.93333 0.50479 0.1818 0.0
C137 C 0.92306 0.51307 0.13651 0.0
C138 C 0.95793 0.52128 0.09723 0.0
H139 H 0.9052 0.51347 0.13729 0.0
H140 H 0.96812 0.52851 0.06708 0.0
H141 H 0.90307 0.55941 0.9524 0.0
H142 H 0.90616 0.49185 0.93781 0.0
C143 C 0.9138 0.47053 0.02733 0.0
C144 C 0.9768 0.51473 0.97349 0.0
C145 C 0.86871 0.52983 0.08814 0.0
C146 C 0.92983 0.57403 0.02336 0.0
H147 H 0.98598 0.46843 0.97374 0.0
H148 H 0.95169 0.44505 1.00051 0.0
H149 H 0.87065 0.45681 0.06356 0.0
H150 H 0.84539 0.48997 0.09288 0.0
H151 H 0.86329 0.57438 0.11402 0.0
H152 H 0.89691 0.59859 0.08005 0.0
H153 H 0.96896 0.58819 0.96596 0.0
H154 H 0.9937 0.55503 0.93438 0.0
H155 H 0.87608 0.56255 0.88398 0.0
H156 H 0.88023 0.49403 0.86653 0.0
H157 H 0.98707 0.51291 0.14067 0.0
H158 H 0.92301 0.49867 0.21456 0.0
C159 C 0.98566 0.87046 0.07136 0.0
C160 C 0.96591 0.87561 0.09842 0.0
C161 C 0.94902 0.86716 0.07073 0.0
C162 C 0.95942 0.85743 0.02851 0.0
N163 N 0.98195 0.85872 0.02825 0.0
Co164 Co 1.00353 0.8488 0.97149 0.0
N165 N 0.97867 0.83878 0.92672 0.0
C166 C 0.95646 0.84112 0.93716 0.0
C167 C 0.94349 0.83002 0.9039 0.0
C168 C 0.9582 0.81947 0.87124 0.0
C169 C 0.97953 0.82499 0.88574 0.0
N170 N 0.025 0.83858 0.91504 0.0
C171 C 0.02139 0.8261 0.87307 0.0
C172 C 0.04101 0.82223 0.84402 0.0
C173 C 0.05777 0.83157 0.87025 0.0
C174 C 0.04745 0.84079 0.91324 0.0
N175 N 0.0285 0.8586 0.01553 0.0
C176 C 0.05066 0.85726 0.00392 0.0
C177 C 0.06367 0.86631 0.04083 0.0
C178 C 0.04889 0.87446 0.07743 0.0
C179 C 0.02766 0.86992 0.06041 0.0
N180 N 1.00491 0.82003 0.0072 0.0
C181 C 1.00636 0.78284 0.07332 0.0
C182 C 0.02605 0.79212 0.05292 0.0
C183 C 0.02495 0.81043 0.01955 0.0
C184 C 0.98601 0.79172 0.05711 0.0
C185 C 0.98568 0.81006 0.02424 0.0
N186 N 1.00212 0.87834 0.93828 0.0
C187 C 0.02157 0.91188 0.92251 0.0
C188 C 1.0021 0.92403 0.9341 0.0
C189 C 0.9822 0.91245 0.94049 0.0
C190 C 0.98254 0.88998 0.94037 0.0
C191 C 0.02121 0.88933 0.92482 0.0
H192 H 0.96681 0.88237 0.94557 0.0
H193 H 0.03678 0.88115 0.91808 0.0
H194 H 0.04046 0.81688 0.00518 0.0
H195 H 0.9696 0.81624 0.01453 0.0
C196 C 0.94854 0.84956 0.985 0.0
C197 C 1.00732 0.87878 0.08461 0.0
C198 C 1.00024 0.81574 0.86246 0.0
C199 C 0.05853 0.84919 0.95576 0.0
H200 H 0.96382 0.8853 0.13311 0.0
H201 H 0.93124 0.869 0.0787 0.0
H202 H 0.92553 0.8282 0.90628 0.0
H203 H 0.95342 0.80805 0.8425 0.0
H204 H 0.04313 0.81267 0.80909 0.0
H205 H 0.07551 0.83065 0.8608 0.0
H206 H 0.08168 0.86776 0.03987 0.0
H207 H 0.05314 0.88363 0.11138 0.0
H208 H 0.04224 0.78547 0.06325 0.0
H209 H 0.97028 0.78516 0.07164 0.0
H210 H 0.03734 0.91951 0.91316 0.0
H211 H 0.96627 0.92028 0.94825 0.0
C212 C 0.04665 0.99661 0.53366 0.0
C213 C 0.03789 0.97709 0.55082 0.0
C214 C 0.05265 0.96159 0.53434 0.0
C215 C 0.06967 0.97249 0.50873 0.0
N216 N 0.06708 0.994 0.50914 0.0
Co217 Co 0.08816 0.01548 0.47545 0.0
N218 N 0.11066 0.99266 0.45537 0.0
C219 C 0.10737 0.97132 0.45881 0.0
C220 C 0.12517 0.95936 0.44033 0.0
C221 C 0.14072 0.97397 0.42341 0.0
C222 C 0.13155 0.99415 0.4329 0.0
N223 N 0.10913 0.03699 0.44216 0.0
C224 C 0.13049 0.03467 0.42318 0.0
C225 C 0.13932 0.05426 0.40656 0.0
C226 C 0.12282 0.06931 0.41393 0.0
C227 C 0.105 0.05815 0.43504 0.0
N228 N 0.06536 0.03821 0.49511 0.0
C229 C 0.06657 0.05921 0.48123 0.0
C230 C 0.04825 0.07109 0.49665 0.0
C231 C 0.03409 0.05676 0.52081 0.0
C232 C 0.04465 0.03676 0.51913 0.0
N233 N 0.10338 0.01838 0.54366 0.0
C234 C 0.13466 0.02156 0.6253 0.0
C235 C 0.12493 0.03995 0.60134 0.0
C236 C 0.10942 0.03802 0.56097 0.0
C237 C 0.12688 1.00162 0.60994 0.0
C238 C 0.11116 1.00043 0.57008 0.0
N239 N 0.07393 0.0121 0.4067 0.0
C240 C 0.04182 1.00111 0.3595 0.0
C241 C 0.05551 0.99517 0.31645 0.0
C242 C 0.07812 1.00056 0.31672 0.0
C243 C 0.08692 1.00912 0.36198 0.0
C244 C 0.05134 0.00984 0.40361 0.0
H245 H 0.1045 0.01203 0.36136 0.0
H246 H 0.04037 0.01356 0.43583 0.0
H247 H 0.10311 0.05252 0.54257 0.0
H248 H 0.10636 0.98474 0.55902 0.0
C249 C 0.08814 0.96305 0.48342 0.0
C250 C 0.03316 0.01654 0.53344 0.0
C251 C 0.14221 0.01417 0.41455 0.0
C252 C 0.08499 0.06728 0.453 0.0
H253 H 0.02181 0.97434 0.57032 0.0
H254 H 0.05085 0.94439 0.53905 0.0
H255 H 0.12671 0.94206 0.43947 0.0
H256 H 0.15676 0.9701 0.40507 0.0
H257 H 0.15585 0.05727 0.38978 0.0
H258 H 0.12381 0.08639 0.40566 0.0
H259 H 0.04523 0.08809 0.48968 0.0
H260 H 0.01752 0.0608 0.53559 0.0
H261 H 0.12955 0.05584 0.61275 0.0
H262 H 0.13359 0.98677 0.62655 0.0
H263 H 0.02412 0.99771 0.361 0.0
H264 H 0.08923 0.99717 0.28331 0.0
C265 C 0.47922 0.16272 0.44875 0.0
C266 C 0.45911 0.15743 0.42683 0.0
C267 C 0.4426 0.1664 0.45782 0.0
C268 C 0.45357 0.17657 0.49666 0.0
N269 N 0.47607 0.17505 0.49167 0.0
Co270 Co 0.49846 0.18575 0.54193 0.0
N271 N 0.47431 0.19686 0.59141 0.0
C272 C 0.45202 0.19444 0.58668 0.0
C273 C 0.43941 0.20618 0.62179 0.0
C274 C 0.45441 0.21722 0.64969 0.0
C275 C 0.47558 0.21134 0.6307 0.0
N276 N 0.52071 0.19693 0.59187 0.0
C277 C 0.51764 0.21031 0.63309 0.0
C278 C 0.53771 0.21461 0.6566 0.0
C279 C 0.55414 0.20464 0.62744 0.0
C280 C 0.5432 0.19462 0.58835 0.0
N281 N 0.52274 0.17487 0.49323 0.0
C282 C 0.54504 0.17608 0.49954 0.0
C283 C 0.55753 0.16609 0.46088 0.0
C284 C 0.54226 0.15749 0.42874 0.0
C285 C 0.52131 0.16276 0.44994 0.0
N286 N 0.4985 0.21393 0.50261 0.0
C287 C 0.49823 0.24993 0.43172 0.0
C288 C 0.51834 0.24088 0.44957 0.0
C289 C 0.51809 0.22315 0.48504 0.0
C290 C 0.47832 0.24148 0.45313 0.0
C291 C 0.47883 0.22375 0.4883 0.0
N292 N 0.49845 0.15666 0.57864 0.0
C293 C 0.51958 0.1237 0.59644 0.0
C294 C 0.50065 0.11097 0.59089 0.0
C295 C 0.48017 0.12209 0.58573 0.0
C296 C 0.47943 0.14464 0.58133 0.0
C297 C 0.51812 0.14619 0.59046 0.0
H298 H 0.46331 0.15191 0.57707 0.0
H299 H 0.53334 0.15468 0.59316 0.0
H300 H 0.53394 0.21678 0.49666 0.0
H301 H 0.46305 0.21795 0.50245 0.0
C302 C 0.44342 0.18522 0.54188 0.0
C303 C 0.50071 0.15394 0.43112 0.0
C304 C 0.49641 0.22083 0.64831 0.0
C305 C 0.55362 0.18512 0.54452 0.0
H306 H 0.45665 0.14733 0.39342 0.0
H307 H 0.42474 0.16467 0.45421 0.0
H308 H 0.42139 0.20805 0.62358 0.0
H309 H 0.44988 0.22916 0.67831 0.0
H310 H 0.54031 0.22477 0.68984 0.0
H311 H 0.57201 0.20556 0.63242 0.0
H312 H 0.57555 0.16439 0.45783 0.0
H313 H 0.54605 0.14762 0.39498 0.0
H314 H 0.53427 0.24687 0.43475 0.0
H315 H 0.46228 0.24831 0.44226 0.0
H316 H 0.53577 0.11645 0.60397 0.0
H317 H 0.46469 0.1136 0.58243 0.0
C318 C 0.45756 0.52886 0.50494 0.0
C319 C 0.46114 0.54773 0.53085 0.0
C320 C 0.44064 0.55798 0.53564 0.0
C321 C 0.42569 0.54481 0.51256 0.0
N322 N 0.43558 0.52694 0.49417 0.0
Co323 Co 0.42134 0.50473 0.45279 0.0
N324 N 0.39618 0.52418 0.43312 0.0
C325 C 0.38995 0.54195 0.45926 0.0
C326 C 0.37121 0.55173 0.43894 0.0
C327 C 0.36515 0.53917 0.3981 0.0
C328 C 0.38063 0.52236 0.39557 0.0
N329 N 0.40796 0.48252 0.40946 0.0
C330 C 0.3921 0.48439 0.37217 0.0
C331 C 0.38782 0.46453 0.35135 0.0
C332 C 0.40097 0.44977 0.37771 0.0
C333 C 0.41267 0.46137 0.41274 0.0
N334 N 0.44608 0.48523 0.47493 0.0
C335 C 0.44612 0.46369 0.47331 0.0
C336 C 0.46645 0.45471 0.48584 0.0
C337 C 0.48002 0.47163 0.49522 0.0
C338 C 0.4671 0.4902 0.48879 0.0
N339 N 0.403 0.49528 0.51503 0.0
C340 C 0.37313 0.48975 0.60233 0.0
C341 C 0.3663 0.48667 0.55069 0.0
C342 C 0.38129 0.4896 0.508 0.0
C343 C 0.39568 0.4946 0.60966 0.0
C344 C 0.41044 0.49693 0.56552 0.0
N345 N 0.43923 0.51479 0.39116 0.0
C346 C 0.47259 0.51145 0.33609 0.0
C347 C 0.47186 0.53358 0.32404 0.0
C348 C 0.45287 0.54522 0.34088 0.0
C349 C 0.43735 0.53585 0.37555 0.0
C350 C 0.45563 0.50224 0.36838 0.0
H351 H 0.4247 0.54628 0.39202 0.0
H352 H 0.45668 0.48529 0.37768 0.0
H353 H 0.37471 0.48836 0.46912 0.0
H354 H 0.42762 0.50093 0.5721 0.0
C355 C 0.40405 0.55062 0.49662 0.0
C356 C 0.47493 0.51242 0.49363 0.0
C357 C 0.37878 0.50398 0.36075 0.0
C358 C 0.42988 0.45347 0.44466 0.0
H359 H 0.47691 0.55351 0.54426 0.0
H360 H 0.43735 0.57376 0.55111 0.0
H361 H 0.36323 0.56653 0.45133 0.0
H362 H 0.35078 0.54189 0.37356 0.0
H363 H 0.37599 0.46096 0.32132 0.0
H364 H 0.40211 0.43269 0.37142 0.0
H365 H 0.47153 0.43803 0.48313 0.0
H366 H 0.49761 0.4701 0.50295 0.0
H367 H 0.34905 0.48312 0.54288 0.0
H368 H 0.40177 0.49687 0.64904 0.0
H369 H 0.48649 0.50146 0.32298 0.0
H370 H 0.4504 0.56197 0.32981 0.0
C371 C 0.04283 0.3734 0.40332 0.0
C372 C 0.06308 0.37928 0.37974 0.0
C373 C 0.07937 0.36967 0.4094 0.0
C374 C 0.06811 0.35861 0.44927 0.0
N375 N 0.04564 0.36009 0.446 0.0
Co376 Co 0.02276 0.3492 0.49937 0.0
N377 N 0.04647 0.33787 0.54808 0.0
C378 C 0.06886 0.33956 0.54027 0.0
C379 C 0.08102 0.32748 0.57557 0.0
C380 C 0.0656 0.31702 0.60701 0.0
C381 C 0.04465 0.32358 0.5898 0.0
N382 N 0.99993 0.33848 0.55278 0.0
C383 C 1.00258 0.32597 0.59701 0.0
C384 C 0.9823 0.32251 0.62372 0.0
C385 C 0.96617 0.33208 0.59364 0.0
C386 C 0.97748 0.3411 0.55091 0.0
N387 N 0.99895 0.35994 0.45092 0.0
C388 C 0.97658 0.35817 0.45811 0.0
C389 C 0.96457 0.36783 0.41833 0.0
C390 C 0.98023 0.37679 0.38454 0.0
C391 C 1.0009 0.3721 0.40602 0.0
N392 N 0.02287 0.32101 0.46406 0.0
C393 C 0.02327 0.28475 0.39913 0.0
C394 C 1.00315 0.29342 0.41938 0.0
C395 C 1.00335 0.31127 0.45193 0.0
C396 C 0.04316 0.29369 0.41528 0.0
C397 C 0.04258 0.31156 0.44747 0.0
N398 N 0.02271 0.3781 0.53228 0.0
C399 C 1.00266 0.41185 0.54482 0.0
C400 C 0.02256 0.42337 0.5405 0.0
C401 C 0.04259 0.4115 0.5386 0.0
C402 C 0.04228 0.38905 0.53613 0.0
C403 C 1.00311 0.38941 0.54072 0.0
H404 H 0.05811 0.38098 0.53437 0.0
H405 H 0.98732 0.38172 0.54133 0.0
H406 H 0.9875 0.31728 0.46577 0.0
H407 H 0.05835 0.3177 0.45747 0.0
C408 C 0.07792 0.34919 0.49396 0.0
C409 C 0.02141 0.38235 0.38746 0.0
C410 C 0.02343 0.31503 0.61176 0.0
C411 C 0.96745 0.3498 0.50566 0.0
H412 H 0.06579 0.39016 0.34615 0.0
H413 H 0.09725 0.37161 0.40441 0.0
H414 H 0.09899 0.32519 0.5757 0.0
H415 H 0.06968 0.30505 0.637 0.0
H416 H 0.97936 0.31304 0.65973 0.0
H417 H 0.94826 0.33151 0.60063 0.0
H418 H 0.94658 0.36933 0.4159 0.0
H419 H 0.97685 0.38683 0.34993 0.0
H420 H 0.98724 0.28702 0.40867 0.0
H421 H 0.05923 0.28715 0.4025 0.0
H422 H 0.98666 0.42017 0.54756 0.0
H423 H 0.05851 0.41954 0.53766 0.0
C424 C 0.35085 0.03125 0.01615 0.0
C425 C 0.35991 0.04941 0.03688 0.0
C426 C 0.34362 0.06521 0.03428 0.0
C427 C 0.32554 0.05581 0.01238 0.0
N428 N 0.32948 0.0351 1.0016 0.0
Co429 Co 0.30874 0.01577 0.96708 0.0
N430 N 0.29107 0.04009 0.93668 0.0
C431 C 0.29175 0.06051 0.95248 0.0
C432 C 0.27797 0.07407 0.92413 0.0
C433 C 0.26775 0.06133 0.88892 0.0
C434 C 0.27563 0.04052 0.89816 0.0
N435 N 0.28797 0.99611 0.93326 0.0
C436 C 0.27244 1.00006 0.89586 0.0
C437 C 0.26051 0.98163 0.88686 0.0
C438 C 0.26881 0.96578 0.91987 0.0
C439 C 0.28521 0.97531 0.94742 0.0
N440 N 0.32673 0.99163 0.99731 0.0
C441 C 0.32012 0.97121 0.00365 0.0
C442 C 0.33707 0.95771 0.0201 0.0
C443 C 0.35542 0.97045 0.02411 0.0
C444 C 0.3486 0.99122 0.01055 0.0
N445 N 0.28914 0.01555 0.03087 0.0
C446 C 0.26092 0.01389 0.1214 0.0
C447 C 0.28419 0.01326 0.12603 0.0
C448 C 0.29801 0.01386 0.08024 0.0
C449 C 0.25208 0.01564 0.07083 0.0
C450 C 0.26641 0.01673 0.02626 0.0
N451 N 0.3285 0.01585 0.90421 0.0
C452 C 0.35343 0.99464 0.8506 0.0
C453 C 0.36811 0.01193 0.84411 0.0
C454 C 0.36052 0.0321 0.86084 0.0
C455 C 0.34034 0.03378 0.88993 0.0
C456 C 0.33391 0.99685 0.88131 0.0
H457 H 0.33555 0.04918 0.90531 0.0
H458 H 0.32437 0.98266 0.8904 0.0
H459 H 0.31589 0.01283 0.08475 0.0
H460 H 0.25898 0.01837 0.98803 0.0
C461 C 0.30746 0.06673 0.9892 0.0
C462 C 0.36266 0.01048 0.01131 0.0
C463 C 0.26665 0.02142 0.87321 0.0
C464 C 0.30024 0.96473 0.98126 0.0
H465 H 0.37665 0.05115 0.05117 0.0
H466 H 0.34538 0.08191 0.04368 0.0
H467 H 0.276 0.09125 0.92765 0.0
H468 H 0.25566 0.06678 0.86029 0.0
H469 H 0.24681 0.97989 0.86036 0.0
H470 H 0.26371 0.94921 0.92277 0.0
H471 H 0.33666 0.94041 0.02462 0.0
H472 H 0.37191 0.96474 0.0343 0.0
H473 H 0.2916 0.01191 0.16463 0.0
H474 H 0.23415 0.01637 0.06578 0.0
H475 H 0.35765 0.97901 0.83525 0.0
H476 H 0.37077 0.04617 0.85562 0.0
C477 C 0.48733 0.44152 0.99217 0.0
C478 C 0.46702 0.45222 1.00026 0.0
C479 C 0.45058 0.43729 0.99665 0.0
C480 C 0.46153 0.41838 0.98559 0.0
N481 N 0.48385 0.42052 0.98221 0.0
Co482 Co 0.50563 0.39805 0.95918 0.0
N483 N 0.48235 0.38145 0.92458 0.0
C484 C 0.46023 0.38341 0.93487 0.0
C485 C 0.44791 0.36892 0.90876 0.0
C486 C 0.46324 0.3569 0.88072 0.0
C487 C 0.48424 0.36486 0.89083 0.0
N488 N 0.52762 0.37559 0.93693 0.0
C489 C 0.52621 0.3602 0.90009 0.0
C490 C 0.54643 0.34904 0.89526 0.0
C491 C 0.56029 0.35686 0.93225 0.0
C492 C 0.54814 0.3727 0.95695 0.0
N493 N 0.52869 0.41498 0.99323 0.0
C494 C 0.54875 0.40757 0.00867 0.0
C495 C 0.56146 0.42336 0.02918 0.0
C496 C 0.54856 0.44179 0.02608 0.0
C497 C 0.52869 0.43625 0.00347 0.0
N498 N 0.50022 0.38156 0.02576 0.0
C499 C 0.49837 0.3565 0.12021 0.0
C500 C 0.49934 0.37899 0.12141 0.0
C501 C 0.50023 0.39121 0.07376 0.0
C502 C 0.49718 0.34709 0.07072 0.0
C503 C 0.49814 0.35977 0.02439 0.0
N504 N 0.51148 0.41435 0.89333 0.0
C505 C 0.53886 0.43095 0.83529 0.0
C506 C 0.52234 0.44396 0.81238 0.0
C507 C 0.5 0.44106 0.82849 0.0
C508 C 0.49485 0.42569 0.86837 0.0
C509 C 0.53314 0.41645 0.87577 0.0
H510 H 0.47761 0.42379 0.88092 0.0
H511 H 0.54655 0.40792 0.8949 0.0
H512 H 0.50161 0.40841 0.07568 0.0
H513 H 0.49789 0.35171 0.98736 0.0
C514 C 0.45161 0.40045 0.96453 0.0
C515 C 0.50971 0.45122 0.99452 0.0
C516 C 0.50549 0.35454 0.87307 0.0
C517 C 0.5567 0.38757 0.99163 0.0
H518 H 0.46399 0.4691 0.00609 0.0
H519 H 0.43271 0.44033 0.99746 0.0
H520 H 0.42991 0.36736 0.90964 0.0
H521 H 0.45929 0.34336 0.85705 0.0
H522 H 0.55087 0.33648 0.8681 0.0
H523 H 0.57753 0.35218 0.93865 0.0
H524 H 0.57858 0.42198 0.04179 0.0
H525 H 0.55331 0.45752 0.03838 0.0
H526 H 0.50021 0.38703 0.15869 0.0
H527 H 0.4958 0.32988 0.06757 0.0
H528 H 0.55637 0.43294 0.82438 0.0
H529 H 0.48681 0.45089 0.81142 0.0
C530 C 0.1577 0.47797 0.01626 0.0
C531 C 0.14814 0.45853 0.03153 0.0
C532 C 0.1645 0.44303 0.0257 0.0
C533 C 0.18307 0.45359 0.00639 0.0
N534 N 0.17938 0.47483 1.00031 0.0
Co535 Co 0.20029 0.49562 0.96566 0.0
N536 N 0.21742 0.47275 0.92866 0.0
C537 C 0.2167 0.45167 0.94139 0.0
C538 C 0.23024 0.43947 0.90904 0.0
C539 C 0.24042 0.45382 0.87441 0.0
C540 C 0.23266 0.47411 0.88793 0.0
N541 N 0.22107 0.51675 0.93204 0.0
C542 C 0.23643 0.51453 0.89193 0.0
C543 C 0.24841 0.5333 0.88382 0.0
C544 C 0.24041 0.54753 0.9205 0.0
C545 C 0.22407 0.53676 0.94908 0.0
N546 N 0.18274 0.5182 1.00216 0.0
C547 C 0.18974 0.53799 0.0122 0.0
C548 C 0.17324 0.55033 0.03589 0.0
C549 C 0.15478 0.53744 0.0405 0.0
C550 C 0.16103 0.51796 0.01907 0.0
N551 N 0.22051 0.49271 0.02576 0.0
C552 C 0.25095 0.49227 0.10882 0.0
C553 C 0.22782 0.49437 0.11916 0.0
C554 C 0.21286 0.49432 0.0771 0.0
C555 C 0.25831 0.49003 0.05623 0.0
C556 C 0.243 0.49034 0.01571 0.0
N557 N 0.18046 0.49875 0.90583 0.0
C558 C 0.15876 0.52207 0.84942 0.0
C559 C 0.14646 0.50464 0.83335 0.0
C560 C 0.15237 0.48402 0.85169 0.0
C561 C 0.1698 0.48137 0.88715 0.0
C562 C 0.17557 0.5188 0.88587 0.0
H563 H 0.17386 0.46539 0.90151 0.0
H564 H 0.18376 0.53269 0.90003 0.0
H565 H 0.19515 0.49597 0.08591 0.0
H566 H 0.24965 0.48922 0.97596 0.0
C567 C 0.20104 0.44382 0.97914 0.0
C568 C 0.14635 0.49927 0.01665 0.0
C569 C 0.24211 0.49426 0.86572 0.0
C570 C 0.2095 0.54561 0.98761 0.0
H571 H 0.13105 0.45532 0.04333 0.0
H572 H 0.16238 0.42586 0.03007 0.0
H573 H 0.23216 0.42218 0.90973 0.0
H574 H 0.25254 0.44978 0.84357 0.0
H575 H 0.26198 0.53622 0.85546 0.0
H576 H 0.24572 0.56385 0.92527 0.0
H577 H 0.17402 0.56709 0.04548 0.0
H578 H 0.13851 0.54193 0.05682 0.0
H579 H 0.22135 0.496 0.15932 0.0
H580 H 0.27598 0.48871 0.04601 0.0
H581 H 0.15445 0.5383 0.83656 0.0
H582 H 0.14319 0.47019 0.83994 0.0
C583 C 0.03005 0.0952 0.97809 0.0
C584 C 0.05 0.08397 0.98472 0.0
C585 C 0.06681 0.09836 0.97413 0.0
C586 C 0.05616 0.11749 0.96179 0.0
N587 N 0.03379 0.11595 0.96427 0.0
Co588 Co 0.01198 0.13922 0.94808 0.0
N589 N 0.03439 0.15534 0.90444 0.0
C590 C 0.05672 0.15272 0.90754 0.0
C591 C 0.0684 0.16723 0.87638 0.0
C592 C 0.05245 0.17991 0.85262 0.0
C593 C 0.03172 0.1723 0.8702 0.0
N594 N 0.99025 0.16286 0.93324 0.0
C595 C 0.9907 0.17855 0.89483 0.0
C596 C 0.97095 0.1906 0.89687 0.0
C597 C 0.95851 0.18287 0.93951 0.0
C598 C 0.97093 0.16623 0.96073 0.0
N599 N 0.98984 0.12244 0.99102 0.0
C600 C 0.9706 0.13004 0.01235 0.0
C601 C 0.95789 0.114 0.03573 0.0
C602 C 0.96993 0.09526 0.02832 0.0
C603 C 0.98944 0.1009 1.00093 0.0
N604 N 0.0207 0.15444 0.01124 0.0
C605 C 0.02404 0.17854 0.1029 0.0
C606 C 0.02269 0.15608 0.10638 0.0
C607 C 0.0211 0.14431 0.06 0.0
C608 C 0.02539 0.18836 0.05245 0.0
C609 C 0.02371 0.17613 0.00749 0.0
N610 N 1.0024 0.12426 0.88574 0.0
C611 C 0.9712 0.11063 0.84015 0.0
C612 C 0.98514 0.09591 0.81464 0.0
C613 C 1.00824 0.09667 0.8217 0.0
C614 C 0.01665 0.11145 0.85683 0.0
C615 C 0.98004 0.1244 0.87577 0.0
H616 H 0.03442 0.11154 0.86319 0.0
H617 H 0.96828 0.13391 0.89806 0.0
H618 H 0.01915 0.12714 0.06369 0.0
H619 H 0.02368 0.18456 0.96979 0.0
C620 C 0.06599 0.13531 0.93617 0.0
C621 C 1.0078 0.08599 0.98587 0.0
C622 C 0.01019 0.18326 0.85899 0.0
C623 C 0.96299 0.15078 0.99809 0.0
H624 H 0.05211 0.06712 0.99517 0.0
H625 H 0.08459 0.09491 0.97231 0.0
H626 H 0.08636 0.16845 0.87137 0.0
H627 H 0.05589 0.19369 0.82692 0.0
H628 H 0.96579 0.20351 0.87029 0.0
H629 H 0.94182 0.188 0.95162 0.0
H630 H 0.94117 0.1155 0.05287 0.0
H631 H 0.96472 0.07935 0.0408 0.0
H632 H 0.0218 0.14776 0.14456 0.0
H633 H 0.0271 0.20557 0.04761 0.0
H634 H 0.95323 0.11031 0.83589 0.0
H635 H 0.01947 0.08535 0.80239 0.0
C636 C 0.85193 0.99244 0.49496 0.0
C637 C 0.86197 0.97376 0.47669 0.0
C638 C 0.8462 0.95799 0.48242 0.0
C639 C 0.82741 0.96792 0.50347 0.0
N640 N 0.83047 0.98889 0.51075 0.0
Co641 Co 0.80828 1.00915 0.54123 0.0
N642 N 0.79141 0.98573 0.57764 0.0
C643 C 0.79266 0.96493 0.56478 0.0
C644 C 0.77841 0.95232 0.59512 0.0
C645 C 0.76735 0.9661 0.62862 0.0
C646 C 0.77552 0.98647 0.61697 0.0
N647 N 0.78599 0.02965 0.57122 0.0
C648 C 0.77066 0.02694 0.6114 0.0
C649 C 0.75863 0.04587 0.61935 0.0
C650 C 0.76622 0.06052 0.58172 0.0
C651 C 0.7826 0.04992 0.55318 0.0
N652 N 0.82571 0.03228 0.50492 0.0
C653 C 0.81822 0.05232 0.49419 0.0
C654 C 0.83504 0.06552 0.47588 0.0
C655 C 0.85418 0.05302 0.47544 0.0
C656 C 0.84801 0.03256 0.49273 0.0
N657 N 0.78956 1.00675 0.47883 0.0
C658 C 0.76172 1.00723 0.39108 0.0
C659 C 0.78504 1.00753 0.38402 0.0
C660 C 0.79869 1.00747 0.4285 0.0
C661 C 0.75271 1.00601 0.44263 0.0
C662 C 0.76683 1.00552 0.48571 0.0
N663 N 0.82673 0.01197 0.60306 0.0
C664 C 0.84673 0.03564 0.65725 0.0
C665 C 0.85969 0.01849 0.677 0.0
C666 C 0.85475 0.9977 0.66144 0.0
C667 C 0.838 0.99476 0.6247 0.0
C668 C 0.83038 0.03204 0.62083 0.0
H669 H 0.83493 0.97875 0.61181 0.0
H670 H 0.8217 0.04583 0.60456 0.0
H671 H 0.81659 1.0084 0.42227 0.0
H672 H 0.75917 1.00463 0.52473 0.0
C673 C 0.80915 0.9576 0.52857 0.0
C674 C 0.86297 0.01335 0.49667 0.0
C675 C 0.76586 1.00629 0.63921 0.0
C676 C 0.79767 0.05937 0.51618 0.0
H677 H 0.87901 0.97169 0.46202 0.0
H678 H 0.84868 0.94106 0.47548 0.0
H679 H 0.77648 0.93513 0.59363 0.0
H680 H 0.75431 0.96171 0.65724 0.0
H681 H 0.7456 0.04884 0.6489 0.0
H682 H 0.76099 0.07715 0.57713 0.0
H683 H 0.83399 0.08268 0.46845 0.0
H684 H 0.87064 0.05891 0.46556 0.0
H685 H 0.7926 1.00842 0.34459 0.0
H686 H 0.73477 1.00552 0.44965 0.0
H687 H 0.85005 0.05205 0.66715 0.0
H688 H 0.86413 0.98391 0.67625 0.0
C689 C 0.5401 0.93989 0.54987 0.0
C690 C 0.55914 0.95207 0.54196 0.0
C691 C 0.57712 0.9381 0.54611 0.0
C692 C 0.56806 0.91821 0.55619 0.0
N693 N 0.54564 0.91895 0.55847 0.0
Co694 Co 0.52605 0.89424 0.57351 0.0
N695 N 0.54983 0.87802 0.61105 0.0
C696 C 0.5718 0.88089 0.60073 0.0
C697 C 0.58477 0.86433 0.61998 0.0
C698 C 0.57002 0.85021 0.6438 0.0
C699 C 0.5487 0.8594 0.64045 0.0
N700 N 0.50643 0.86931 0.58649 0.0
C701 C 0.5095 0.85137 0.61737 0.0
C702 C 0.49533 0.83538 0.60163 0.0
C703 C 0.48198 0.84426 0.56318 0.0
C704 C 0.48932 0.86482 0.55534 0.0
N705 N 0.50248 0.91108 0.53688 0.0
C706 C 0.48428 0.90296 0.51553 0.0
C707 C 0.46991 0.91877 0.49731 0.0
C708 C 0.47984 0.93792 0.50801 0.0
C709 C 0.49992 0.93276 0.53181 0.0
N710 N 0.53591 0.88125 0.50614 0.0
C711 C 0.54083 0.85922 0.41076 0.0
C712 C 0.53708 0.88153 0.41028 0.0
C713 C 0.53473 0.89228 0.45857 0.0
C714 C 0.54389 0.84869 0.45957 0.0
C715 C 0.5414 0.85985 0.50624 0.0
N716 N 0.51557 0.90685 0.63957 0.0
C717 C 0.48294 0.92229 0.68064 0.0
C718 C 0.49571 0.93911 0.69837 0.0
C719 C 0.51907 0.93683 0.69615 0.0
C720 C 0.52879 0.92026 0.66649 0.0
C721 C 0.49317 0.90633 0.65117 0.0
H722 H 0.54672 0.91984 0.66028 0.0
H723 H 0.48243 0.89539 0.63223 0.0
H724 H 0.53092 0.90927 0.4575 0.0
H725 H 0.54265 0.85057 0.5424 0.0
C726 C 0.57945 0.89965 0.57421 0.0
C727 C 0.51699 0.94827 0.54693 0.0
C728 C 0.52751 0.84848 0.65654 0.0
C729 C 0.47962 0.881 0.52284 0.0
H730 H 0.55991 0.96921 0.53437 0.0
H731 H 0.59464 0.94218 0.54471 0.0
H732 H 0.60272 0.86231 0.61549 0.0
H733 H 0.57455 0.8343 0.65821 0.0
H734 H 0.49514 0.81872 0.61465 0.0
H735 H 0.46873 0.83652 0.54295 0.0
H736 H 0.4536 0.91672 0.48086 0.0
H737 H 0.47291 0.95371 0.49959 0.0
H738 H 0.53489 0.89038 0.37325 0.0
H739 H 0.54742 0.8316 0.46192 0.0
H740 H 0.46486 0.92259 0.68482 0.0
H741 H 0.52965 0.94888 0.71201 0.0
C742 C 0.65632 0.55061 0.47803 0.0
C743 C 0.6472 0.56973 0.45852 0.0
C744 C 0.66179 0.58551 0.46979 0.0
C745 C 0.67912 0.57516 0.49476 0.0
N746 N 0.67676 0.55367 0.49861 0.0
Co747 Co 0.69778 0.53264 0.53339 0.0
N748 N 0.71566 0.55597 0.56428 0.0
C749 C 0.71186 0.5773 0.55778 0.0
C750 C 0.72644 0.58958 0.58425 0.0
C751 C 0.7403 0.57526 0.60951 0.0
C752 C 0.73337 0.55492 0.5971 0.0
N753 N 0.71918 0.51146 0.5668 0.0
C754 C 0.73693 0.51442 0.5982 0.0
C755 C 0.74702 0.49498 0.61265 0.0
C756 C 0.73561 0.47933 0.58883 0.0
C757 C 0.71915 0.48995 0.56158 0.0
N758 N 0.67891 0.50933 0.50516 0.0
C759 C 0.683 0.48799 0.51028 0.0
C760 C 0.66543 0.47567 0.49698 0.0
C761 C 0.64882 0.48989 0.48401 0.0
C762 C 0.65732 0.51034 0.48891 0.0
N763 N 0.71752 0.5331 0.46781 0.0
C764 C 0.74829 0.53348 0.37989 0.0
C765 C 0.73897 0.51436 0.39984 0.0
C766 C 0.72367 0.51456 0.44289 0.0
C767 C 0.74127 0.55246 0.4039 0.0
C768 C 0.72617 0.5519 0.44725 0.0
N769 N 0.67819 0.53215 0.59762 0.0
C770 C 0.65582 0.51086 0.65909 0.0
C771 C 0.64122 0.52823 0.66752 0.0
C772 C 0.64686 0.54819 0.64498 0.0
C773 C 0.6657 0.54988 0.6112 0.0
C774 C 0.67416 0.51318 0.62442 0.0
H775 H 0.66914 0.56539 0.59399 0.0
H776 H 0.684 0.49908 0.61723 0.0
H777 H 0.71732 0.49941 0.45551 0.0
H778 H 0.722 0.56699 0.46348 0.0
C779 C 0.69514 0.58525 0.52439 0.0
C780 C 0.64412 0.53032 0.48064 0.0
C781 C 0.74466 0.53517 0.61597 0.0
C782 C 0.70191 0.48007 0.53589 0.0
H783 H 0.63108 0.57218 0.44073 0.0
H784 H 0.65923 0.60262 0.46405 0.0
H785 H 0.72712 0.60691 0.58456 0.0
H786 H 0.75415 0.57935 0.63375 0.0
H787 H 0.76095 0.49225 0.63848 0.0
H788 H 0.73853 0.46218 0.5924 0.0
H789 H 0.66421 0.45839 0.50044 0.0
H790 H 0.63207 0.48532 0.47509 0.0
H791 H 0.74379 0.49909 0.38325 0.0
H792 H 0.74735 0.56786 0.38943 0.0
H793 H 0.65225 0.49509 0.67599 0.0
H794 H 0.63634 0.5622 0.65169 0.0
C795 C 0.98904 0.59642 0.52131 0.0
C796 C 0.96878 0.5859 0.51939 0.0
C797 C 0.95223 0.60101 0.52761 0.0
C798 C 0.96311 0.61982 0.53516 0.0
N799 N 0.98548 0.61743 0.53216 0.0
Co800 Co 1.00744 0.63978 0.54769 0.0
N801 N 0.98487 0.65688 0.58797 0.0
C802 C 0.96258 0.6552 0.58408 0.0
C803 C 0.9508 0.67005 0.61303 0.0
C804 C 0.96665 0.68199 0.6362 0.0
C805 C 0.98741 0.6736 0.62051 0.0
N806 N 0.02947 0.66222 0.56231 0.0
C807 C 0.02884 0.67774 0.59909 0.0
C808 C 0.04884 0.6888 0.59755 0.0
C809 C 0.0617 0.68073 0.55672 0.0
C810 C 0.04923 0.66487 0.53615 0.0
N811 N 0.02985 0.6224 0.5079 0.0
C812 C 0.04922 0.62952 0.48638 0.0
C813 C 0.06155 0.61353 0.46243 0.0
C814 C 0.0491 0.59528 0.46958 0.0
C815 C 0.02988 0.60114 0.49787 0.0
N816 N 0.99986 0.65559 0.48232 0.0
C817 C 0.99618 0.67925 0.38678 0.0
C818 C 0.99725 0.65675 0.38726 0.0
C819 C 0.99893 0.64523 0.43544 0.0
C820 C 0.99587 0.68949 0.43544 0.0
C821 C 0.99764 0.67744 0.48249 0.0
N822 N 0.01554 0.62395 0.61214 0.0
C823 C 0.04508 0.60732 0.66127 0.0
C824 C 0.02978 0.5941 0.68846 0.0
C825 C 1.00695 0.59701 0.67941 0.0
C826 C 1.0001 0.61253 0.64175 0.0
C827 C 0.03769 0.62194 0.62321 0.0
H828 H 0.98249 0.61441 0.63444 0.0
H829 H 0.05021 0.6305 0.60033 0.0
H830 H 1.00029 0.62796 0.43462 0.0
H831 H 0.99822 0.68599 0.51883 0.0
C832 C 0.95344 0.63805 0.55795 0.0
C833 C 0.01139 0.58653 0.51205 0.0
C834 C 1.00894 0.68348 0.63232 0.0
C835 C 0.05715 0.64964 0.49989 0.0
H836 H 0.9659 0.56905 0.51449 0.0
H837 H 0.93446 0.59819 0.53183 0.0
H838 H 0.93282 0.67187 0.61729 0.0
H839 H 0.96319 0.6957 0.66053 0.0
H840 H 0.05382 0.70139 0.62307 0.0
H841 H 0.07858 0.68522 0.54519 0.0
H842 H 0.07815 0.61468 0.44452 0.0
H843 H 0.05369 0.57947 0.45595 0.0
H844 H 0.99714 0.64811 0.3507 0.0
H845 H 0.99528 0.70682 0.43725 0.0
H846 H 0.06291 0.60535 0.66675 0.0
H847 H 0.99467 0.58707 0.7001 0.0
C848 C 0.50803 0.11472 0.42966 0.0
C849 C 0.50194 0.13364 0.40239 0.0
C850 C 0.51309 0.09598 0.40227 0.0
C851 C 0.51201 0.09631 0.34637 0.0
C852 C 0.50433 0.11507 0.31911 0.0
C853 C 0.49952 0.13366 0.34756 0.0
C854 C 0.52065 0.07646 0.4339 0.0
C855 C 0.50247 0.11587 0.25964 0.0
C856 C 0.55376 0.06238 0.26944 0.0
C857 C 0.54071 0.04514 0.25475 0.0
C858 C 0.54465 0.07884 0.30017 0.0
C859 C 0.5218 0.0783 0.31591 0.0
C860 C 0.50867 0.06064 0.30296 0.0
C861 C 0.51829 0.04422 0.27249 0.0
C862 C 0.55945 0.09696 0.3153 0.0
C863 C 0.48453 0.05917 0.32137 0.0
H864 H 0.5098 0.11484 0.47226 0.0
H865 H 0.49481 0.14844 0.32683 0.0
H866 H 0.50724 0.07203 0.46323 0.0
H867 H 0.52465 0.06229 0.40976 0.0
H868 H 0.5357 0.08045 0.45614 0.0
H869 H 0.49359 0.13061 0.24533 0.0
H870 H 0.51946 0.11549 0.24087 0.0
H871 H 0.49349 0.10164 0.24636 0.0
H872 H 0.57098 0.06348 0.25533 0.0
H873 H 0.50819 0.03079 0.26208 0.0
H874 H 0.55919 0.09833 0.35904 0.0
H875 H 0.55301 0.11238 0.29834 0.0
H876 H 0.57705 0.09464 0.30123 0.0
H877 H 0.48352 0.05865 0.36534 0.0
H878 H 0.47636 0.04472 0.30664 0.0
H879 H 0.47509 0.07366 0.30767 0.0
C880 C 0.49392 0.56685 0.30714 0.0
C881 C 0.49068 0.54517 0.29637 0.0
C882 C 0.50811 0.5796 0.27547 0.0
C883 C 0.52129 0.57007 0.2348 0.0
C884 C 0.52082 0.54754 0.22914 0.0
C885 C 0.50494 0.53542 0.2587 0.0
C886 C 0.50786 0.6035 0.28416 0.0
C887 C 0.53652 0.5361 0.19137 0.0
C888 C 0.52687 0.60918 0.12027 0.0
C889 C 0.54334 0.6226 0.13838 0.0
C890 C 0.52119 0.59026 0.14807 0.0
C891 C 0.53266 0.58438 0.19473 0.0
C892 C 0.55141 0.59634 0.20887 0.0
C893 C 0.55601 0.61581 0.18174 0.0
C894 C 0.50143 0.57785 0.13033 0.0
C895 C 0.56562 0.58964 0.25506 0.0
H896 H 0.4846 0.57428 0.33927 0.0
H897 H 0.50342 0.51853 0.25096 0.0
H898 H 0.52377 0.60815 0.30167 0.0
H899 H 0.50609 0.61257 0.2461 0.0
H900 H 0.49398 0.60856 0.31141 0.0
H901 H 0.52716 0.53089 0.15692 0.0
H902 H 0.55066 0.54623 0.17724 0.0
H903 H 0.54338 0.52135 0.21099 0.0
H904 H 0.5171 0.61445 0.08678 0.0
H905 H 0.56845 0.62625 0.19698 0.0
H906 H 0.48801 0.57782 0.16158 0.0
H907 H 0.50661 0.56101 0.12378 0.0
H908 H 0.49445 0.58456 0.09295 0.0
H909 H 0.56194 0.60028 0.28876 0.0
H910 H 0.58358 0.59161 0.24397 0.0
H911 H 0.56289 0.57274 0.26823 0.0
C912 C 0.95867 0.46967 0.23836 0.0
C913 C 0.96802 0.48944 0.22316 0.0
C914 C 0.97044 0.45467 0.26938 0.0
C915 C 0.99226 0.45942 0.28532 0.0
C916 C 1.00145 0.47972 0.27252 0.0
C917 C 0.9892 0.49453 0.2415 0.0
C918 C 0.95982 0.43332 0.28323 0.0
C919 C 0.02461 0.48541 0.28906 0.0
C920 C 0.01014 0.42058 0.39313 0.0
C921 C 0.01969 0.40412 0.36314 0.0
C922 C 1.00287 0.43977 0.36885 0.0
C923 C 1.00541 0.44247 0.31327 0.0
C924 C 0.01703 0.42666 0.28354 0.0
C925 C 0.02387 0.40745 0.3089 0.0
C926 C 0.99085 0.45635 0.40195 0.0
C927 C 0.02039 0.42917 0.22428 0.0
H928 H 0.94253 0.46536 0.22376 0.0
H929 H 0.99647 0.50987 0.2305 0.0
H930 H 0.96956 0.42023 0.26406 0.0
H931 H 0.96002 0.43014 0.32666 0.0
H932 H 0.94226 0.43265 0.2703 0.0
H933 H 0.02778 0.47953 0.33004 0.0
H934 H 0.03713 0.47759 0.26242 0.0
H935 H 0.02726 0.503 0.28657 0.0
H936 H 1.00689 0.41777 0.43504 0.0
H937 H 0.03113 0.39455 0.28588 0.0
H938 H 0.97345 0.45872 0.38856 0.0
H939 H 0.99938 0.47191 0.39667 0.0
H940 H 0.99027 0.45178 0.44477 0.0
H941 H 1.00418 0.42703 0.2049 0.0
H942 H 0.03259 0.4172 0.20842 0.0
H943 H 0.02632 0.4455 0.21336 0.0
C944 C 0.0159 0.91743 0.09068 0.0
C945 C 1.0089 0.89835 0.11592 0.0
C946 C 0.02135 0.9352 0.12015 0.0
C947 C 0.01947 0.9338 0.17611 0.0
C948 C 0.01093 0.91497 0.20147 0.0
C949 C 1.00595 0.89731 0.17097 0.0
C950 C 0.02967 0.95496 0.09051 0.0
C951 C 1.00818 0.91309 0.26098 0.0
C952 C 0.06005 0.96384 0.25762 0.0
C953 C 0.04687 0.98116 0.27531 0.0
C954 C 0.05145 0.94873 0.22405 0.0
C955 C 0.02898 0.95073 0.20846 0.0
C956 C 0.01583 0.96861 0.22416 0.0
C957 C 0.02493 0.98366 0.25746 0.0
C958 C 0.06633 0.9304 0.2059 0.0
C959 C 0.99214 0.97166 0.20611 0.0
H960 H 0.01805 0.91813 0.04789 0.0
H961 H 1.00061 0.88243 0.19018 0.0
H962 H 0.01543 0.96258 0.06956 0.0
H963 H 0.03692 0.96705 0.11605 0.0
H964 H 0.04249 0.95036 0.06009 0.0
H965 H 0.99885 0.89853 0.27398 0.0
H966 H 0.02489 0.91234 0.279 0.0
H967 H 0.99922 0.92743 0.27642 0.0
H968 H 0.0769 0.96156 0.27162 0.0
H969 H 0.01478 0.99722 0.27011 0.0
H970 H 0.06675 0.92995 0.16198 0.0
H971 H 0.05948 0.91493 0.22118 0.0
H972 H 0.08373 0.93173 0.21954 0.0
H973 H 0.99209 0.97298 0.16219 0.0
H974 H 0.98396 0.98625 0.22248 0.0
H975 H 0.98209 0.95747 0.21838 0.0
C976 C 0.40383 0.02394 0.79595 0.0
C977 C 0.39164 1.00816 0.82459 0.0
C978 C 0.42558 0.01957 0.77582 0.0
C979 C 0.43495 0.99871 0.78262 0.0
C980 C 0.42323 0.98319 0.81405 0.0
C981 C 0.40216 0.98833 0.83576 0.0
C982 C 0.43785 0.03718 0.74576 0.0
C983 C 0.43209 0.96049 0.82172 0.0
C984 C 0.46586 0.96655 0.68265 0.0
C985 C 0.48411 0.95945 0.71261 0.0
C986 C 0.45099 0.98222 0.70152 0.0
C987 C 0.45482 0.9914 0.75086 0.0
C988 C 0.47565 0.9876 0.7752 0.0
C989 C 0.49 0.97124 0.75632 0.0
C990 C 0.42992 0.98705 0.67163 0.0
C991 C 0.48256 1.00012 0.82196 0.0
H992 H 0.39628 0.03954 0.78779 0.0
H993 H 0.39368 0.97639 0.86056 0.0
H994 H 0.45596 0.03354 0.74011 0.0
H995 H 0.43027 0.03977 0.70648 0.0
H996 H 0.43587 0.05247 0.76705 0.0
H997 H 0.42199 0.95106 0.85138 0.0
H998 H 0.43191 0.95219 0.78343 0.0
H999 H 0.44962 0.96045 0.83469 0.0
H1000 H 0.46228 0.95871 0.64612 0.0
H1001 H 0.50497 0.96691 0.77758 0.0
H1002 H 0.42715 1.00462 0.66751 0.0
H1003 H 0.41534 0.98023 0.69403 0.0
H1004 H 0.43056 0.98022 0.63147 0.0
H1005 H 0.49317 0.01356 0.80722 0.0
H1006 H 0.49279 0.98999 0.84911 0.0
H1007 H 0.46816 1.00711 0.84418 0.0
C1008 C 0.5995 0.53181 0.66999 0.0
C1009 C 0.61917 0.52453 0.69414 0.0
C1010 C 0.5786 0.52362 0.68631 0.0
C1011 C 0.57753 0.5078 0.7274 0.0
C1012 C 0.59698 0.50253 0.75615 0.0
C1013 C 0.61759 0.51087 0.73895 0.0
C1014 C 0.55822 0.5312 0.6571 0.0
C1015 C 0.59647 0.48663 0.80236 0.0
C1016 C 0.52645 0.48301 0.79262 0.0
C1017 C 0.52958 0.46179 0.77672 0.0
C1018 C 0.54031 0.49931 0.77158 0.0
C1019 C 0.5577 0.49392 0.73506 0.0
C1020 C 0.55845 0.47329 0.71307 0.0
C1021 C 0.5444 0.45739 0.73443 0.0
C1022 C 0.53731 0.52189 0.79059 0.0
C1023 C 0.57574 0.4672 0.67125 0.0
H1024 H 0.60054 0.54266 0.63577 0.0
H1025 H 0.63268 0.50569 0.75871 0.0
H1026 H 0.54302 0.52181 0.66684 0.0
H1027 H 0.55472 0.54827 0.66606 0.0
H1028 H 0.56168 0.53045 0.61411 0.0
H1029 H 0.61112 0.48834 0.82788 0.0
H1030 H 0.58098 0.48862 0.82694 0.0
H1031 H 0.59679 0.47009 0.78724 0.0
H1032 H 0.51468 0.48646 0.8248 0.0
H1033 H 0.5465 0.44101 0.72155 0.0
H1034 H 0.53238 0.53262 0.75702 0.0
H1035 H 0.55329 0.52791 0.80519 0.0
H1036 H 0.52416 0.52307 0.82231 0.0
H1037 H 0.57992 0.48102 0.6444 0.0
H1038 H 0.56986 0.45386 0.64722 0.0
H1039 H 0.59128 0.46172 0.6908 0.0
C1040 C 0.03531 0.55499 0.7066 0.0
C1041 C 0.03869 0.57617 0.72114 0.0
C1042 C 0.04965 0.53838 0.72434 0.0
C1043 C 0.06786 0.54337 0.75623 0.0
C1044 C 0.06957 0.56437 0.77578 0.0
C1045 C 0.05482 0.58045 0.75819 0.0
C1046 C 0.04595 0.51582 0.70699 0.0
C1047 C 0.08775 0.57086 0.81221 0.0
C1048 C 0.10519 0.50309 0.82619 0.0
C1049 C 0.12593 0.50879 0.80341 0.0
C1050 C 0.08535 0.51259 0.80767 0.0
C1051 C 0.08644 0.5277 0.76497 0.0
C1052 C 0.10704 0.53091 0.73705 0.0
C1053 C 0.12668 0.52176 0.75732 0.0
C1054 C 0.06372 0.50735 0.83656 0.0
C1055 C 0.10869 0.54566 0.68878 0.0
H1056 H 0.02265 0.5517 0.67815 0.0
H1057 H 0.05716 0.59684 0.77001 0.0
H1058 H 0.06161 0.50887 0.68965 0.0
H1059 H 0.04096 0.5056 0.74172 0.0
H1060 H 0.03242 0.5151 0.67799 0.0
H1061 H 0.07998 0.57766 0.8486 0.0
H1062 H 0.09926 0.55764 0.82405 0.0
H1063 H 0.09779 0.58379 0.79256 0.0
H1064 H 0.1046 0.49278 0.86149 0.0
H1065 H 0.14273 0.52581 0.73906 0.0
H1066 H 0.05751 0.49196 0.82215 0.0
H1067 H 0.0505 0.51984 0.8317 0.0
H1068 H 0.06671 0.50506 0.87914 0.0
H1069 H 0.09387 0.54408 0.66374 0.0
H1070 H 0.12405 0.54227 0.66454 0.0
H1071 H 0.10927 0.56252 0.70151 0.0
C1072 C 0.96293 0.08237 0.74183 0.0
C1073 C 0.97427 0.07818 0.78869 0.0
C1074 C 0.94576 0.06897 0.72675 0.0
C1075 C 0.93974 0.05105 0.75975 0.0
C1076 C 0.95204 0.0462 0.8057 0.0
C1077 C 0.9693 0.05975 0.81926 0.0
C1078 C 0.9326 0.07566 0.67869 0.0
C1079 C 0.94606 0.02807 0.84392 0.0
C1080 C 0.87851 0.04004 0.74443 0.0
C1081 C 0.87947 0.0231 0.70899 0.0
C1082 C 0.89803 0.04833 0.76458 0.0
C1083 C 0.91898 0.03932 0.7493 0.0
C1084 C 0.91983 0.02029 0.7202 0.0
C1085 C 0.90006 0.0126 0.69932 0.0
C1086 C 0.8963 0.06724 0.80056 0.0
C1087 C 0.94163 1.00842 0.71035 0.0
H1088 H 0.96623 0.0971 0.71929 0.0
H1089 H 0.97731 0.05708 0.85677 0.0
H1090 H 0.92432 0.06196 0.6608 0.0
H1091 H 0.91944 0.08745 0.69055 0.0
H1092 H 0.94353 0.08367 0.64812 0.0
H1093 H 0.94283 0.03456 0.88394 0.0
H1094 H 0.93126 0.01891 0.83297 0.0
H1095 H 0.96057 0.01684 0.84651 0.0
H1096 H 0.86253 0.04755 0.75442 0.0
H1097 H 0.90095 0.99913 0.67323 0.0
H1098 H 0.9019 0.08193 0.77862 0.0
H1099 H 0.90734 0.06468 0.83485 0.0
H1100 H 0.8789 0.07004 0.8156 0.0
H1101 H 0.9527 0.01807 0.68351 0.0
H1102 H 0.93905 0.9925 0.69324 0.0
H1103 H 0.95053 1.00585 0.74794 0.0
C1104 C 0.67004 0.01774 0.86509 0.0
C1105 C 0.65581 1.00001 0.87071 0.0
C1106 C 0.68794 0.01821 0.82778 0.0
C1107 C 0.6923 1.00032 0.7956 0.0
C1108 C 0.67843 0.98214 0.80173 0.0
C1109 C 0.66033 0.98225 0.83881 0.0
C1110 C 0.7021 0.03803 0.82249 0.0
C1111 C 0.68264 0.96259 0.76881 0.0
C1112 C 0.72506 0.01015 0.6654 0.0
C1113 C 0.74699 1.00466 0.67939 0.0
C1114 C 0.70716 1.00872 0.70262 0.0
C1115 C 0.71108 1.00097 0.75491 0.0
C1116 C 0.73312 0.99467 0.76866 0.0
C1117 C 0.7508 0.99669 0.73083 0.0
C1118 C 0.68409 0.01585 0.68618 0.0
C1119 C 0.73805 0.98593 0.82348 0.0
H1120 H 0.66735 0.03136 0.89028 0.0
H1121 H 0.64952 0.96849 0.84214 0.0
H1122 H 0.71977 0.03384 0.83067 0.0
H1123 H 0.70164 0.04465 0.78129 0.0
H1124 H 0.69638 0.05073 0.84992 0.0
H1125 H 0.67113 0.94933 0.7801 0.0
H1126 H 0.68052 0.96685 0.7263 0.0
H1127 H 0.70012 0.95674 0.77326 0.0
H1128 H 0.72196 0.01574 0.62521 0.0
H1129 H 0.76767 0.99204 0.7414 0.0
H1130 H 0.67801 0.02918 0.71125 0.0
H1131 H 0.6722 1.0025 0.69233 0.0
H1132 H 0.68377 0.02136 0.644 0.0
H1133 H 0.73429 0.99837 0.85308 0.0
H1134 H 0.75578 0.98068 0.82711 0.0
H1135 H 0.72715 0.9721 0.83359 0.0
C1136 C 0.54388 0.82743 0.73646 0.0
C1137 C 0.5257 0.83232 0.70353 0.0
C1138 C 0.54399 0.8093 0.77116 0.0
C1139 C 0.52466 0.79662 0.77743 0.0
C1140 C 0.50501 0.80355 0.75171 0.0
C1141 C 0.50561 0.82158 0.71667 0.0
C1142 C 0.56505 0.80344 0.80012 0.0
C1143 C 0.4834 0.79165 0.76041 0.0
C1144 C 0.5314 0.73737 0.8191 0.0
C1145 C 0.52723 0.73776 0.87393 0.0
C1146 C 0.53056 0.75635 0.78741 0.0
C1147 C 0.525 0.77625 0.81081 0.0
C1148 C 0.52017 0.77659 0.86607 0.0
C1149 C 0.52159 0.75745 0.89687 0.0
C1150 C 0.53598 0.75519 0.72888 0.0
C1151 C 0.51393 0.79718 0.89321 0.0
H1152 H 0.55822 0.83764 0.73603 0.0
H1153 H 0.49008 0.82713 0.70005 0.0
H1154 H 0.56185 0.80415 0.84346 0.0
H1155 H 0.57031 0.78673 0.79135 0.0
H1156 H 0.57908 0.81428 0.789 0.0
H1157 H 0.46936 0.79936 0.73876 0.0
H1158 H 0.48558 0.77494 0.74698 0.0
H1159 H 0.47883 0.79076 0.80328 0.0
H1160 H 0.53571 0.72221 0.80118 0.0
H1161 H 0.51839 0.75792 0.93926 0.0
H1162 H 0.55049 0.76549 0.71842 0.0
H1163 H 0.52162 0.76143 0.70589 0.0
H1164 H 0.53998 0.73857 0.7166 0.0
H1165 H 0.52921 0.80658 0.89865 0.0
H1166 H 0.50592 0.79409 0.93285 0.0
H1167 H 0.50238 0.80721 0.869 0.0
C1168 C 0.85376 0.54811 0.79642 0.0
C1169 C 0.85653 0.52989 0.82997 0.0
C1170 C 0.8359 0.55 0.76111 0.0
C1171 C 0.82042 0.53313 0.7581 0.0
C1172 C 0.82326 0.51457 0.79105 0.0
C1173 C 0.84102 0.51326 0.82667 0.0
C1174 C 0.83349 0.57017 0.72721 0.0
C1175 C 0.8074 0.49605 0.78898 0.0
C1176 C 0.76193 0.54336 0.70323 0.0
C1177 C 0.76444 0.53604 0.65139 0.0
C1178 C 0.78007 0.54301 0.73784 0.0
C1179 C 0.80125 0.53484 0.72063 0.0
C1180 C 0.8039 0.52773 0.66792 0.0
C1181 C 0.78559 0.52864 0.6339 0.0
C1182 C 0.77646 0.55112 0.79319 0.0
C1183 C 0.82596 0.51863 0.6478 0.0
H1184 H 0.86564 0.56099 0.79741 0.0
H1185 H 0.84243 0.49925 0.85274 0.0
H1186 H 0.83446 0.56619 0.68469 0.0
H1187 H 0.81685 0.57775 0.73487 0.0
H1188 H 0.84659 0.58203 0.73481 0.0
H1189 H 0.81231 0.4824 0.81559 0.0
H1190 H 0.79024 0.50144 0.80056 0.0
H1191 H 0.80679 0.49028 0.7479 0.0
H1192 H 0.74563 0.54909 0.71691 0.0
H1193 H 0.78763 0.52306 0.59377 0.0
H1194 H 0.78892 0.56354 0.80106 0.0
H1195 H 0.77897 0.53779 0.82252 0.0
H1196 H 0.75942 0.55807 0.79962 0.0
H1197 H 0.83938 0.53048 0.65194 0.0
H1198 H 0.82544 0.51413 0.60562 0.0
H1199 H 0.83056 0.50418 0.67198 0.0
C1200 C 0.01482 0.77846 0.84431 0.0
C1201 C 1.00054 0.79568 0.8305 0.0
C1202 C 0.01713 0.76027 0.81268 0.0
C1203 C 1.00358 0.75835 0.76781 0.0
C1204 C 0.98846 0.77542 0.7549 0.0
C1205 C 0.98799 0.79418 0.78475 0.0
C1206 C 0.03442 0.74345 0.82771 0.0
C1207 C 0.97269 0.77434 0.70948 0.0
C1208 C 0.01615 0.72262 0.6494 0.0
C1209 C 1.00888 0.70244 0.66811 0.0
C1210 C 0.0157 0.74051 0.6822 0.0
C1211 C 1.00562 0.73893 0.73375 0.0
C1212 C 0.99729 0.71874 0.75201 0.0
C1213 C 0.99979 0.70069 0.71983 0.0
C1214 C 0.02602 0.76099 0.66056 0.0
C1215 C 0.98534 0.71583 0.80508 0.0
H1216 H 0.02482 0.77951 0.87929 0.0
H1217 H 0.97775 0.80773 0.77189 0.0
H1218 H 0.027 0.73223 0.8579 0.0
H1219 H 0.04055 0.73413 0.79333 0.0
H1220 H 0.04901 0.75091 0.8458 0.0
H1221 H 0.95645 0.78227 0.71984 0.0
H1222 H 0.97989 0.78325 0.67462 0.0
H1223 H 0.96939 0.75764 0.69821 0.0
H1224 H 0.02225 0.72456 0.60878 0.0
H1225 H 0.99379 0.68526 0.73448 0.0
H1226 H 0.03118 0.77168 0.69225 0.0
H1227 H 0.01378 0.76972 0.63541 0.0
H1228 H 0.04092 0.75738 0.63492 0.0
H1229 H 0.9973 0.70922 0.83429 0.0
H1230 H 0.97169 0.70405 0.80266 0.0
H1231 H 0.97804 0.73104 0.82004 0.0
C1232 C 0.16902 0.03959 0.65934 0.0
C1233 C 0.15338 0.02297 0.66393 0.0
C1234 C 0.1873 0.04045 0.69333 0.0
C1235 C 0.19053 0.02406 0.73251 0.0
C1236 C 0.17481 1.00733 0.73772 0.0
C1237 C 0.1564 1.00714 0.70408 0.0
C1238 C 0.20333 0.05883 0.68689 0.0
C1239 C 0.17762 0.98936 0.77843 0.0
C1240 C 0.2493 0.01425 0.78569 0.0
C1241 C 0.24759 0.02344 0.83571 0.0
C1242 C 0.23096 0.0144 0.75174 0.0
C1243 C 0.21041 0.02426 0.76771 0.0
C1244 C 0.20874 0.03384 0.81796 0.0
C1245 C 0.22716 0.03297 0.8516 0.0
C1246 C 0.23343 1.00353 0.69924 0.0
C1247 C 0.18739 0.04482 0.83652 0.0
H1248 H 0.16737 0.05179 0.62828 0.0
H1249 H 0.14437 0.99443 0.70939 0.0
H1250 H 0.20495 0.06686 0.72521 0.0
H1251 H 0.22018 0.05266 0.67505 0.0
H1252 H 0.19789 0.07094 0.65664 0.0
H1253 H 0.16425 0.97726 0.77684 0.0
H1254 H 0.19405 0.98118 0.77204 0.0
H1255 H 0.17747 0.99592 0.81878 0.0
H1256 H 0.26491 1.00654 0.77364 0.0
H1257 H 0.22552 0.03957 0.89078 0.0
H1258 H 0.22978 0.01513 0.66642 0.0
H1259 H 0.22114 0.99045 0.69755 0.0
H1260 H 0.25048 0.99665 0.6925 0.0
H1261 H 0.18209 0.0571 0.80659 0.0
H1262 H 0.18923 0.05269 0.87502 0.0
H1263 H 0.17381 0.03296 0.84096 0.0
C1264 C 0.50996 0.25833 0.66254 0.0
C1265 C 0.49664 0.24104 0.67993 0.0
C1266 C 0.51211 0.2767 0.69321 0.0
C1267 C 0.49935 0.27874 0.74118 0.0
C1268 C 0.4852 0.26158 0.7579 0.0
C1269 C 0.48489 0.24268 0.72853 0.0
C1270 C 0.52837 0.29362 0.67379 0.0
C1271 C 0.47027 0.26271 0.80693 0.0
C1272 C 0.5131 0.31514 0.85544 0.0
C1273 C 0.5048 0.33526 0.83818 0.0
C1274 C 0.51249 0.29706 0.82334 0.0
C1275 C 0.50129 0.29835 0.77442 0.0
C1276 C 0.49185 0.31845 0.75797 0.0
C1277 C 0.49443 0.33668 0.789 0.0
C1278 C 0.52392 0.27669 0.84283 0.0
C1279 C 0.47868 0.32108 0.70805 0.0
H1280 H 0.51933 0.25722 0.62531 0.0
H1281 H 0.47539 0.22914 0.74395 0.0
H1282 H 0.5198 0.30489 0.64603 0.0
H1283 H 0.53501 0.30287 0.70661 0.0
H1284 H 0.54271 0.28629 0.6516 0.0
H1285 H 0.47842 0.25388 0.84008 0.0
H1286 H 0.46661 0.27942 0.81884 0.0
H1287 H 0.45416 0.25471 0.8005 0.0
H1288 H 0.52026 0.31345 0.8943 0.0
H1289 H 0.48763 0.35204 0.77549 0.0
H1290 H 0.52893 0.26596 0.81014 0.0
H1291 H 0.51244 0.26795 0.87073 0.0
H1292 H 0.53908 0.28043 0.86503 0.0
H1293 H 0.48968 0.32782 0.67588 0.0
H1294 H 0.46459 0.33268 0.71388 0.0
H1295 H 0.47179 0.30576 0.69503 0.0
C1296 C 0.35432 0.50593 0.68258 0.0
C1297 C 0.3562 0.4891 0.64693 0.0
C1298 C 0.33643 0.507 0.72001 0.0
C1299 C 0.32011 0.49072 0.72232 0.0
C1300 C 0.32246 0.47327 0.6878 0.0
C1301 C 0.34035 0.47273 0.65049 0.0
C1302 C 0.33454 0.52595 0.75577 0.0
C1303 C 0.30574 0.45538 0.68935 0.0
C1304 C 0.28223 0.48402 0.84569 0.0
C1305 C 0.2621 0.49344 0.82882 0.0
C1306 C 0.30122 0.48307 0.81164 0.0
C1307 C 0.30025 0.49216 0.75969 0.0
C1308 C 0.28007 0.50218 0.74298 0.0
C1309 C 0.26123 0.50265 0.77772 0.0
C1310 C 0.32224 0.47213 0.83109 0.0
C1311 C 0.27833 0.5123 0.68826 0.0
H1312 H 0.36632 0.51878 0.67966 0.0
H1313 H 0.34176 0.4596 0.62332 0.0
H1314 H 0.31908 0.53531 0.74705 0.0
H1315 H 0.33319 0.52039 0.79781 0.0
H1316 H 0.34907 0.53675 0.7508 0.0
H1317 H 0.31057 0.44239 0.6619 0.0
H1318 H 0.30403 0.44838 0.7301 0.0
H1319 H 0.28906 0.46184 0.67836 0.0
H1320 H 0.28302 0.47726 0.88563 0.0
H1321 H 0.24576 0.51019 0.76499 0.0
H1322 H 0.33635 0.48346 0.82859 0.0
H1323 H 0.32682 0.4585 0.80544 0.0
H1324 H 0.32033 0.46598 0.87265 0.0
H1325 H 0.29147 0.52451 0.68172 0.0
H1326 H 0.26175 0.52007 0.68192 0.0
H1327 H 0.28118 0.49993 0.65799 0.0
C1328 C 1.00803 0.27837 0.63322 0.0
C1329 C 0.02233 0.29494 0.64619 0.0
C1330 C 1.00474 0.26036 0.6672 0.0
C1331 C 0.01752 0.25777 0.71358 0.0
C1332 C 0.0328 0.27406 0.72553 0.0
C1333 C 0.03407 0.29283 0.69334 0.0
C1334 C 0.98722 0.24452 0.65291 0.0
C1335 C 0.04796 0.27214 0.77228 0.0
C1336 C 1.00347 0.22267 0.83635 0.0
C1337 C 0.01018 0.20212 0.8204 0.0
C1338 C 1.00439 0.24052 0.80108 0.0
C1339 C 0.01458 0.23843 0.74995 0.0
C1340 C 0.02227 0.21779 0.73439 0.0
C1341 C 0.01907 0.19988 0.76885 0.0
C1342 C 0.99452 0.2615 0.81983 0.0
C1343 C 0.03436 0.21424 0.68204 0.0
H1344 H 0.99869 0.27987 0.59708 0.0
H1345 H 0.04432 0.3059 0.70543 0.0
H1346 H 0.9945 0.23344 0.62324 0.0
H1347 H 0.98083 0.23497 0.68764 0.0
H1348 H 0.97282 0.25295 0.63425 0.0
H1349 H 0.06456 0.27902 0.76178 0.0
H1350 H 0.0407 0.28164 0.80519 0.0
H1351 H 0.05053 0.25531 0.78646 0.0
H1352 H 0.99759 0.22497 0.87677 0.0
H1353 H 0.02462 0.18414 0.7563 0.0
H1354 H 0.99027 0.27276 0.78671 0.0
H1355 H 1.0066 0.26923 0.84547 0.0
H1356 H 0.97912 0.25861 0.8444 0.0
H1357 H 0.02239 0.20811 0.65355 0.0
H1358 H 0.04776 0.20184 0.68662 0.0
H1359 H 0.04201 0.22905 0.66492 0.0
C1360 C 0.15708 0.02086 0.32186 0.0
C1361 C 0.16085 0.01343 0.37381 0.0
C1362 C 0.1743 0.02086 0.28294 0.0
C1363 C 0.19574 0.01259 0.29569 0.0
C1364 C 0.19955 1.00471 0.34794 0.0
C1365 C 0.18214 1.00552 0.3866 0.0
C1366 C 0.16954 0.02984 0.22819 0.0
C1367 C 0.22195 0.99524 0.36284 0.0
C1368 C 0.23129 0.99537 0.17637 0.0
C1369 C 0.24571 0.01272 0.16874 0.0
C1370 C 0.21566 0.99466 0.21898 0.0
C1371 C 0.21395 0.01204 0.25391 0.0
C1372 C 0.22873 0.02949 0.24664 0.0
C1373 C 0.24463 0.02949 0.20448 0.0
C1374 C 0.20063 0.97552 0.22588 0.0
C1375 C 0.22713 0.04858 0.28203 0.0
H1376 H 0.14059 0.02687 0.3118 0.0
H1377 H 0.18506 0.99979 0.42677 0.0
H1378 H 0.18158 0.04266 0.21708 0.0
H1379 H 0.17176 0.01708 0.19872 0.0
H1380 H 0.1523 0.03658 0.22541 0.0
H1381 H 0.22207 0.98935 0.40474 0.0
H1382 H 0.22639 0.9817 0.33681 0.0
H1383 H 0.23513 1.00743 0.35672 0.0
H1384 H 0.23219 0.98239 0.14869 0.0
H1385 H 0.25569 0.04299 0.1982 0.0
H1386 H 0.1831 0.98046 0.21822 0.0
H1387 H 0.20108 0.96909 0.26725 0.0
H1388 H 0.20549 0.96248 0.1986 0.0
H1389 H 0.21058 0.05664 0.27774 0.0
H1390 H 0.24038 0.06046 0.27247 0.0
H1391 H 0.22843 0.04331 0.32413 0.0
C1392 C 0.482 0.26712 0.34961 0.0
C1393 C 0.49789 0.26732 0.38954 0.0
C1394 C 0.4819 0.28272 0.3083 0.0
C1395 C 0.49814 0.29902 0.30635 0.0
C1396 C 0.51402 0.29956 0.34689 0.0
C1397 C 0.51372 0.28375 0.38788 0.0
C1398 C 0.46472 0.28141 0.26587 0.0
C1399 C 0.5316 0.31665 0.34643 0.0
C1400 C 0.51194 0.32351 0.16971 0.0
C1401 C 0.49921 0.34264 0.16948 0.0
C1402 C 0.51207 0.30948 0.21422 0.0
C1403 C 0.49923 0.31463 0.26019 0.0
C1404 C 0.48683 0.3342 0.2609 0.0
C1405 C 0.48698 0.34798 0.21563 0.0
C1406 C 0.52564 0.28889 0.21159 0.0
C1407 C 0.47292 0.34032 0.30904 0.0
H1408 H 0.46992 0.25436 0.34974 0.0
H1409 H 0.52591 0.28427 0.41872 0.0
H1410 H 0.45548 0.2969 0.26167 0.0
H1411 H 0.47322 0.27832 0.22717 0.0
H1412 H 0.45249 0.26849 0.27455 0.0
H1413 H 0.54206 0.31552 0.38207 0.0
H1414 H 0.54267 0.31517 0.31071 0.0
H1415 H 0.52359 0.3328 0.34428 0.0
H1416 H 0.52185 0.31941 0.13477 0.0
H1417 H 0.47702 0.36264 0.21587 0.0
H1418 H 0.51439 0.27495 0.21602 0.0
H1419 H 0.53744 0.2878 0.2447 0.0
H1420 H 0.53534 0.28758 0.17365 0.0
H1421 H 0.45935 0.32859 0.31609 0.0
H1422 H 0.46529 0.35661 0.30459 0.0
H1423 H 0.48334 0.33979 0.34471 0.0
C1424 C 0.34049 0.49061 0.34278 0.0
C1425 C 0.359 0.50283 0.32627 0.0
C1426 C 0.32188 0.48892 0.31045 0.0
C1427 C 0.32165 0.49991 0.2606 0.0
C1428 C 0.34012 0.51276 0.24449 0.0
C1429 C 0.35859 0.51406 0.27759 0.0
C1430 C 0.30265 0.47503 0.32923 0.0
C1431 C 0.34055 0.52483 0.19186 0.0
C1432 C 0.28616 0.47877 0.15115 0.0
C1433 C 0.26774 0.49301 0.15143 0.0
C1434 C 0.30354 0.48063 0.18696 0.0
C1435 C 0.30261 0.49717 0.22424 0.0
C1436 C 0.28373 0.51122 0.2259 0.0
C1437 C 0.2665 0.50894 0.18961 0.0
C1438 C 0.32317 0.46514 0.18405 0.0
C1439 C 0.28207 0.52907 0.26498 0.0
H1440 H 0.34075 0.48217 0.38089 0.0
H1441 H 0.37283 0.52369 0.26523 0.0
H1442 H 0.28679 0.48449 0.32901 0.0
H1443 H 0.3008 0.46165 0.30176 0.0
H1444 H 0.30504 0.46818 0.36979 0.0
H1445 H 0.35566 0.53484 0.18618 0.0
H1446 H 0.34017 0.51333 0.1592 0.0
H1447 H 0.32549 0.53534 0.18866 0.0
H1448 H 0.28714 0.46624 0.12225 0.0
H1449 H 0.25246 0.52014 0.18981 0.0
H1450 H 0.32554 0.45705 0.22322 0.0
H1451 H 0.33869 0.47401 0.17384 0.0
H1452 H 0.32101 0.4527 0.15408 0.0
H1453 H 0.28395 0.5225 0.30591 0.0
H1454 H 0.2659 0.53802 0.2629 0.0
H1455 H 0.29587 0.54049 0.25704 0.0
C1456 C 0.03539 0.18676 0.19571 0.0
C1457 C 0.02296 0.19206 0.15079 0.0
C1458 C 0.03536 0.20039 0.23932 0.0
C1459 C 0.02249 0.21969 0.23811 0.0
C1460 C 1.00935 0.22471 0.19357 0.0
C1461 C 0.00972 0.21087 0.15069 0.0
C1462 C 0.04962 0.19446 0.286 0.0
C1463 C 0.99527 0.24501 0.19057 0.0
C1464 C 1.00824 0.2505 0.36346 0.0
C1465 C 0.02365 0.26727 0.3597 0.0
C1466 C 1.00804 0.23456 0.32506 0.0
C1467 C 0.02361 0.23533 0.28176 0.0
C1468 C 0.03946 0.25196 0.27828 0.0
C1469 C 0.03923 0.2677 0.31701 0.0
C1470 C 0.99085 0.21713 0.33023 0.0
C1471 C 0.0563 0.2535 0.23273 0.0
H1472 H 0.04568 0.1723 0.1961 0.0
H1473 H 0.99966 0.21487 0.11668 0.0
H1474 H 0.06306 0.20637 0.2891 0.0
H1475 H 0.03943 0.19488 0.32332 0.0
H1476 H 0.05745 0.17827 0.28256 0.0
H1477 H 0.98519 0.24607 0.1543 0.0
H1478 H 0.98379 0.24588 0.22571 0.0
H1479 H 1.00622 0.25919 0.19086 0.0
H1480 H 0.99631 0.24982 0.39649 0.0
H1481 H 0.05096 0.28073 0.31295 0.0
H1482 H 0.99917 0.20113 0.32887 0.0
H1483 H 0.97944 0.21839 0.29636 0.0
H1484 H 0.98069 0.21807 0.36761 0.0
H1485 H 0.06577 0.23814 0.22915 0.0
H1486 H 0.06837 0.26661 0.23744 0.0
H1487 H 0.04749 0.25643 0.19508 0.0
C1488 C 0.6558 1.00209 0.21087 0.0
C1489 C 0.65894 1.00874 0.15771 0.0
C1490 C 0.6735 1.00196 0.24632 0.0
C1491 C 0.69482 1.0093 0.22877 0.0
C1492 C 0.69794 0.01653 0.17535 0.0
C1493 C 0.68003 0.01592 0.1403 0.0
C1494 C 0.6694 0.99378 0.30253 0.0
C1495 C 0.72018 0.025 0.15531 0.0
C1496 C 0.73217 0.0265 0.3394 0.0
C1497 C 0.74646 1.00864 0.34563 0.0
C1498 C 0.716 0.02734 0.29996 0.0
C1499 C 0.71362 1.00961 0.26678 0.0
C1500 C 0.72834 0.99166 0.27242 0.0
C1501 C 0.74474 0.99149 0.31144 0.0
C1502 C 0.70105 0.04697 0.29483 0.0
C1503 C 0.7261 0.97223 0.23883 0.0
H1504 H 0.63944 0.99669 0.22454 0.0
H1505 H 0.68247 0.0211 0.09925 0.0
H1506 H 0.68139 0.98054 0.31196 0.0
H1507 H 0.67224 1.00675 0.33059 0.0
H1508 H 0.65213 0.98783 0.30933 0.0
H1509 H 0.71976 0.03052 0.11315 0.0
H1510 H 0.72512 0.03861 0.17959 0.0
H1511 H 0.7333 0.01235 0.15937 0.0
H1512 H 0.73349 0.03974 0.36598 0.0
H1513 H 0.75563 0.97757 0.31671 0.0
H1514 H 0.68363 0.04279 0.3066 0.0
H1515 H 0.70091 0.05289 0.253 0.0
H1516 H 0.70643 0.06016 0.32 0.0
H1517 H 0.70961 0.96479 0.24725 0.0
H1518 H 0.73942 0.95999 0.24635 0.0
H1519 H 0.72676 0.97699 0.19619 0.0
C1520 C 0.55326 0.85152 0.31655 0.0
C1521 C 0.54036 0.84623 0.36211 0.0
C1522 C 0.55472 0.83758 0.27345 0.0
C1523 C 0.5429 0.81801 0.27595 0.0
C1524 C 0.52905 0.81318 0.32092 0.0
C1525 C 0.52795 0.8273 0.36318 0.0
C1526 C 0.56958 0.84338 0.22616 0.0
C1527 C 0.51599 0.79265 0.32537 0.0
C1528 C 0.53183 0.78447 0.15565 0.0
C1529 C 0.54744 0.76757 0.16167 0.0
C1530 C 0.53083 0.80157 0.19096 0.0
C1531 C 0.54579 0.80184 0.23345 0.0
C1532 C 0.56219 0.78531 0.23834 0.0
C1533 C 0.56282 0.76844 0.20252 0.0
C1534 C 0.51306 0.8188 0.18425 0.0
C1535 C 0.57854 0.78494 0.28285 0.0
H1536 H 0.56291 0.86609 0.31552 0.0
H1537 H 0.51762 0.8233 0.3979 0.0
H1538 H 0.58402 0.83202 0.22422 0.0
H1539 H 0.56034 0.84192 0.189 0.0
H1540 H 0.57601 0.85994 0.228 0.0
H1541 H 0.50508 0.79182 0.36166 0.0
H1542 H 0.50541 0.79114 0.29034 0.0
H1543 H 0.5277 0.77868 0.32618 0.0
H1544 H 0.51974 0.78392 0.12459 0.0
H1545 H 0.57522 0.75571 0.207 0.0
H1546 H 0.52048 0.83494 0.18624 0.0
H1547 H 0.50041 0.81734 0.21705 0.0
H1548 H 0.50443 0.81769 0.14608 0.0
H1549 H 0.58708 0.80056 0.28426 0.0
H1550 H 0.59139 0.772 0.27872 0.0
H1551 H 0.56939 0.78244 0.32129 0.0
C1552 C 0.76447 0.51893 0.29426 0.0
C1553 C 0.76539 0.53365 0.33527 0.0
C1554 C 0.78084 0.51855 0.25315 0.0
C1555 C 0.79848 0.53344 0.25223 0.0
C1556 C 0.79932 0.54859 0.29281 0.0
C1557 C 0.78296 0.54839 0.33391 0.0
C1558 C 0.77943 0.50197 0.21101 0.0
C1559 C 0.81772 0.56487 0.29322 0.0
C1560 C 0.85301 0.51972 0.17833 0.0
C1561 C 0.85068 0.53119 0.13021 0.0
C1562 C 0.83611 0.52019 0.21806 0.0
C1563 C 0.81647 0.53271 0.20991 0.0
C1564 C 0.81414 0.54451 0.16147 0.0
C1565 C 0.83119 0.54343 0.12198 0.0
C1566 C 0.83923 0.50715 0.26866 0.0
C1567 C 0.79366 0.55829 0.15144 0.0
H1568 H 0.75086 0.5077 0.29403 0.0
H1569 H 0.78424 0.5596 0.36561 0.0
H1570 H 0.77857 0.50997 0.17133 0.0
H1571 H 0.79473 0.49167 0.21089 0.0
H1572 H 0.76463 0.49157 0.21711 0.0
H1573 H 0.81531 0.57636 0.32577 0.0
H1574 H 0.8341 0.55655 0.29787 0.0
H1575 H 0.81851 0.57402 0.25493 0.0
H1576 H 0.86807 0.51022 0.18471 0.0
H1577 H 0.82933 0.55217 0.08462 0.0
H1578 H 0.82533 0.4957 0.27465 0.0
H1579 H 0.83877 0.51784 0.30302 0.0
H1580 H 0.85531 0.49798 0.26846 0.0
H1581 H 0.77851 0.54825 0.1533 0.0
H1582 H 0.79458 0.56681 0.11223 0.0
H1583 H 0.79159 0.57035 0.18273 0.0
C1584 C 0.99149 0.74818 0.11216 0.0
C1585 C 1.00674 0.76501 0.11382 0.0
C1586 C 0.98984 0.73268 0.15349 0.0
C1587 C 1.00373 0.73404 0.1977 0.0
C1588 C 0.01973 0.75051 0.19869 0.0
C1589 C 0.02107 0.76576 0.15673 0.0
C1590 C 0.97271 0.71528 0.15067 0.0
C1591 C 0.03481 0.75258 0.24515 0.0
C1592 C 0.98367 0.71107 0.33138 0.0
C1593 C 0.99662 0.69218 0.33621 0.0
C1594 C 0.98555 0.72459 0.28615 0.0
C1595 C 1.00065 0.71908 0.24437 0.0
C1596 C 0.01323 0.69969 0.24813 0.0
C1597 C 0.0111 0.6865 0.29402 0.0
C1598 C 0.97175 0.74507 0.2837 0.0
C1599 C 0.02942 0.69321 0.20437 0.0
H1600 H 0.98055 0.74734 0.07882 0.0
H1601 H 0.03269 0.77884 0.15869 0.0
H1602 H 0.98071 0.69929 0.15722 0.0
H1603 H 0.95978 0.71732 0.18254 0.0
H1604 H 0.96433 0.71552 0.11197 0.0
H1605 H 0.04728 0.76544 0.23842 0.0
H1606 H 0.0246 0.75623 0.28121 0.0
H1607 H 0.04383 0.7372 0.25316 0.0
H1608 H 0.97219 0.71542 0.36337 0.0
H1609 H 0.02138 0.6721 0.29759 0.0
H1610 H 0.96165 0.74563 0.24752 0.0
H1611 H 0.98295 0.75909 0.28129 0.0
H1612 H 0.96032 0.74672 0.3188 0.0
H1613 H 0.0209 0.69337 0.16592 0.0
H1614 H 0.03684 0.67699 0.21174 0.0
H1615 H 0.04315 0.70494 0.20055 0.0
C1616 C 0.39996 0.0213 0.97159 0.0
C1617 C 0.38782 1.00944 0.01028 0.0
C1618 C 0.42352 0.02104 0.9697 0.0
C1619 C 0.43553 1.00824 0.00698 0.0
C1620 C 0.42332 0.99636 0.04652 0.0
C1621 C 0.39973 0.99756 0.0485 0.0
C1622 C 0.43534 0.03425 0.92686 0.0
C1623 C 0.43517 0.9822 0.08663 0.0
C1624 C 0.49598 0.99276 0.96807 0.0
C1625 C 0.50851 1.00551 1.00087 0.0
C1626 C 0.47237 0.99289 0.97119 0.0
C1627 C 0.46073 1.00734 0.00484 0.0
C1628 C 0.47325 0.02102 0.03618 0.0
C1629 C 0.49681 0.01952 0.03493 0.0
C1630 C 0.4598 0.97712 0.93962 0.0
C1631 C 0.46177 0.03747 0.07066 0.0
H1632 H 0.39096 0.03094 0.9427 0.0
H1633 H 0.39063 0.98931 0.08042 0.0
H1634 H 0.45138 0.04057 0.94036 0.0
H1635 H 0.43896 0.024 0.89248 0.0
H1636 H 0.4247 0.04794 0.91297 0.0
H1637 H 0.42332 0.97267 0.11199 0.0
H1638 H 0.44692 0.97102 0.06617 0.0
H1639 H 0.4452 0.99215 0.1125 0.0
H1640 H 0.50469 0.98233 0.94052 0.0
H1641 H 0.50612 0.02952 0.06057 0.0
H1642 H 0.44799 0.98582 0.91334 0.0
H1643 H 0.44967 0.96665 0.96684 0.0
H1644 H 0.47115 0.96682 0.91541 0.0
H1645 H 0.45073 0.04799 0.04625 0.0
H1646 H 0.47387 0.04763 0.09065 0.0
H1647 H 0.45104 0.02939 0.10137 0.0
C1648 C 0.52882 0.4847 0.95859 0.0
C1649 C 0.5131 0.47522 0.99387 0.0
C1650 C 0.53223 0.5071 0.95688 0.0
C1651 C 0.51906 0.52074 0.98985 0.0
C1652 C 0.50349 0.51111 0.02644 0.0
C1653 C 0.50137 0.48858 0.02922 0.0
C1654 C 0.55047 0.51597 0.92069 0.0
C1655 C 0.4891 0.52415 0.06396 0.0
C1656 C 0.54047 0.57792 0.00761 0.0
C1657 C 0.52603 0.59048 0.97601 0.0
C1658 C 0.53818 0.55545 0.01345 0.0
C1659 C 0.52146 0.54487 0.98563 0.0
C1660 C 0.50702 0.55747 0.95313 0.0
C1661 C 0.50923 0.58002 0.94939 0.0
C1662 C 0.55393 0.54322 0.04925 0.0
C1663 C 0.48911 0.54706 0.92228 0.0
H1664 H 0.53858 0.47452 0.93228 0.0
H1665 H 0.49042 0.48146 0.05949 0.0
H1666 H 0.54552 0.53167 0.90253 0.0
H1667 H 0.56557 0.51848 0.94408 0.0
H1668 H 0.55513 0.50466 0.889 0.0
H1669 H 0.47196 0.51757 0.06706 0.0
H1670 H 0.49615 0.52278 0.10405 0.0
H1671 H 0.48783 0.54134 0.05207 0.0
H1672 H 0.55333 0.58578 0.02906 0.0
H1673 H 0.49796 0.58947 0.9249 0.0
H1674 H 0.56861 0.53759 0.02543 0.0
H1675 H 0.5459 0.529 0.06846 0.0
H1676 H 0.56015 0.5536 0.0805 0.0
H1677 H 0.48011 0.55875 0.89626 0.0
H1678 H 0.47681 0.53937 0.95016 0.0
H1679 H 0.49664 0.53427 0.89748 0.0
C1680 C 0.01548 0.49788 0.95514 0.0
C1681 C 1.00195 0.51305 0.98146 0.0
C1682 C 0.03824 0.49468 0.96705 0.0
C1683 C 0.04885 0.5089 1.00106 0.0
C1684 C 0.0356 0.52493 0.02604 0.0
C1685 C 0.01245 0.52654 0.01677 0.0
C1686 C 0.05019 0.47516 0.94529 0.0
C1687 C 0.04583 0.54034 0.06309 0.0
C1688 C 0.10664 0.49157 0.05119 0.0
C1689 C 0.12125 0.50233 0.01531 0.0
C1690 C 0.08316 0.49358 0.04722 0.0
C1691 C 0.07383 0.50767 0.00837 0.0
C1692 C 0.0886 0.52032 0.97592 0.0
C1693 C 0.11194 0.51706 0.97881 0.0
C1694 C 0.06832 0.48074 0.08507 0.0
C1695 C 0.08033 0.53809 0.9394 0.0
H1696 H 1.0083 0.48821 0.92525 0.0
H1697 H 1.00264 0.53862 0.0372 0.0
H1698 H 0.06862 0.4768 0.94279 0.0
H1699 H 0.04639 0.46115 0.9719 0.0
H1700 H 0.04404 0.47139 0.90559 0.0
H1701 H 0.03299 0.55015 0.08436 0.0
H1702 H 0.05608 0.53149 0.09271 0.0
H1703 H 0.0571 0.55132 0.04014 0.0
H1704 H 0.11346 0.4818 0.08306 0.0
H1705 H 0.12298 0.52626 0.95242 0.0
H1706 H 0.05893 0.46894 0.06276 0.0
H1707 H 0.05586 0.49144 0.10479 0.0
H1708 H 0.07798 0.47193 0.11593 0.0
H1709 H 0.0903 0.53824 0.90181 0.0
H1710 H 0.083 0.5537 0.95807 0.0
H1711 H 0.06236 0.53703 0.93047 0.0
C1712 C 0.0102 0.05317 0.93116 0.0
C1713 C 1.005 0.06232 0.98009 0.0
C1714 C 1.00922 0.03088 0.92435 0.0
C1715 C 1.00383 0.01707 0.96824 0.0
C1716 C 0.99895 0.0262 0.01823 0.0
C1717 C 0.99956 0.0487 0.02352 0.0
C1718 C 0.01408 0.02214 0.87003 0.0
C1719 C 0.99365 0.01218 0.06642 0.0
C1720 C 0.98305 0.96095 0.93878 0.0
C1721 C 1.00264 0.94813 0.94142 0.0
C1722 C 0.98299 0.983 0.94952 0.0
C1723 C 1.0032 0.99319 0.9612 0.0
C1724 C 0.02308 0.98058 0.96373 0.0
C1725 C 0.02254 0.95839 0.9543 0.0
C1726 C 0.96079 0.99483 0.95029 0.0
C1727 C 0.04486 0.99042 0.97845 0.0
H1728 H 0.01507 0.06354 0.89791 0.0
H1729 H 0.99644 0.05557 0.06199 0.0
H1730 H 0.02998 0.01276 0.87022 0.0
H1731 H 1.00069 0.01111 0.8592 0.0
H1732 H 0.01553 0.03507 0.83901 0.0
H1733 H 0.98862 0.0217 0.10142 0.0
H1734 H 0.98001 1.00103 0.05812 0.0
H1735 H 1.00861 1.00231 0.07645 0.0
H1736 H 0.96741 0.954 0.92832 0.0
H1737 H 0.03781 0.94909 0.95875 0.0
H1738 H 0.96242 0.01248 0.94771 0.0
H1739 H 0.95165 0.99065 0.98792 0.0
H1740 H 0.95032 0.98959 0.91755 0.0
H1741 H 0.04953 1.00333 0.94935 0.0
H1742 H 0.05879 0.97845 0.98012 0.0
H1743 H 0.04288 0.99787 0.01772 0.0
C1744 C 0.99862 1.00215 0.49111 0.0
C1745 C 1.00799 0.01522 0.52901 0.0
C1746 C 0.97529 1.00129 0.48467 0.0
C1747 C 0.96071 0.01432 0.51567 0.0
C1748 C 0.97005 0.02742 0.5541 0.0
C1749 C 0.99337 0.0272 0.5614 0.0
C1750 C 0.96629 0.98639 0.44462 0.0
C1751 C 0.9555 0.04231 0.58646 0.0
C1752 C 0.9016 0.0265 0.46586 0.0
C1753 C 0.88811 0.0141 0.50093 0.0
C1754 C 0.92504 0.0272 0.47101 0.0
C1755 C 0.9357 0.01381 0.50932 0.0
C1756 C 0.92232 1.0001 0.54229 0.0
C1757 C 0.89882 1.00083 0.53871 0.0
C1758 C 0.9384 0.04225 0.43518 0.0
C1759 C 0.93286 0.98402 0.58004 0.0
H1760 H 1.00957 0.99249 0.46624 0.0
H1761 H 1.00021 0.03673 0.59211 0.0
H1762 H 0.95396 0.97543 0.46411 0.0
H1763 H 0.95741 0.99576 0.4135 0.0
H1764 H 0.97971 0.97661 0.42529 0.0
H1765 H 0.96461 0.04881 0.62003 0.0
H1766 H 0.94984 0.05594 0.56072 0.0
H1767 H 0.94032 0.03405 0.60208 0.0
H1768 H 0.89404 0.03529 0.43335 0.0
H1769 H 0.88877 0.99062 0.56501 0.0
H1770 H 0.94966 0.03293 0.40855 0.0
H1771 H 0.94909 0.05241 0.45913 0.0
H1772 H 0.92754 0.05286 0.41051 0.0
H1773 H 0.92047 0.97696 0.60875 0.0
H1774 H 0.94643 0.9914 0.60189 0.0
H1775 H 0.94056 0.97079 0.55703 0.0
C1776 C 0.51752 0.98124 0.60221 0.0
C1777 C 0.51224 0.97187 0.55439 0.0
C1778 C 0.51447 1.00339 0.61026 0.0
C1779 C 0.50671 0.01702 0.5686 0.0
C1780 C 0.50149 1.0077 0.51979 0.0
C1781 C 0.5044 0.98535 0.51325 0.0
C1782 C 0.51994 0.01224 0.66329 0.0
C1783 C 0.49364 0.02136 0.4735 0.0
C1784 C 0.4841 0.07337 0.60143 0.0
C1785 C 0.5024 0.08665 0.58808 0.0
C1786 C 0.48519 0.0509 0.59498 0.0
C1787 C 0.50515 0.04102 0.57547 0.0
C1788 C 0.52383 0.05412 0.56315 0.0
C1789 C 0.52223 0.07655 0.56937 0.0
C1790 C 0.46483 0.03767 0.60868 0.0
C1791 C 0.54546 0.04447 0.54193 0.0
H1792 H 0.52446 0.97126 0.63335 0.0
H1793 H 0.50127 0.97856 0.47521 0.0
H1794 H 0.53326 0.02435 0.65818 0.0
H1795 H 0.50499 0.02042 0.6807 0.0
H1796 H 0.52561 0.99953 0.69179 0.0
H1797 H 0.48534 0.01165 0.44377 0.0
H1798 H 0.48187 0.03421 0.48661 0.0
H1799 H 0.50829 0.02914 0.45376 0.0
H1800 H 0.46877 0.08041 0.61723 0.0
H1801 H 0.53648 0.08618 0.55752 0.0
H1802 H 0.46857 0.02615 0.64164 0.0
H1803 H 0.46033 0.02813 0.57424 0.0
H1804 H 0.45016 0.04775 0.62047 0.0
H1805 H 0.5517 0.0319 0.56999 0.0
H1806 H 0.55866 0.05665 0.53517 0.0
H1807 H 0.54252 0.03666 0.50388 0.0
C1808 C 0.60547 0.54391 0.5083 0.0
C1809 C 0.61888 0.53039 0.47658 0.0
C1810 C 0.5819 0.54394 0.50622 0.0
C1811 C 0.57118 0.52899 0.47439 0.0
C1812 C 0.58461 0.51611 0.44034 0.0
C1813 C 0.60814 0.51759 0.4404 0.0
C1814 C 0.5688 0.56078 0.53626 0.0
C1815 C 0.5741 0.5005 0.40431 0.0
C1816 C 0.51463 0.50742 0.52466 0.0
C1817 C 0.49942 0.51784 0.49103 0.0
C1818 C 0.53786 0.51033 0.51834 0.0
C1819 C 0.54631 0.52548 0.48008 0.0
C1820 C 0.53086 0.53712 0.44807 0.0
C1821 C 0.50771 0.53293 0.45342 0.0
C1822 C 0.55306 0.49589 0.55076 0.0
C1823 C 0.53865 0.55341 0.40658 0.0
H1824 H 0.61343 0.55465 0.53474 0.0
H1825 H 0.61818 0.50836 0.41261 0.0
H1826 H 0.56753 0.57547 0.51061 0.0
H1827 H 0.55155 0.5558 0.54722 0.0
H1828 H 0.5775 0.5652 0.57257 0.0
H1829 H 0.58669 0.49228 0.3785 0.0
H1830 H 0.56494 0.48818 0.42847 0.0
H1831 H 0.56176 0.50899 0.37894 0.0
H1832 H 0.50842 0.49647 0.55551 0.0
H1833 H 0.49609 0.54125 0.42753 0.0
H1834 H 0.56993 0.50255 0.55538 0.0
H1835 H 0.55515 0.48036 0.53069 0.0
H1836 H 0.54547 0.49242 0.59065 0.0
H1837 H 0.52512 0.56512 0.39664 0.0
H1838 H 0.54368 0.54501 0.36988 0.0
H1839 H 0.55329 0.56234 0.41971 0.0
C1840 C 1.0024 0.54983 0.47811 0.0
C1841 C 0.01495 0.56259 0.51081 0.0
C1842 C 1.00415 0.52726 0.48066 0.0
C1843 C 0.02008 0.51705 0.51389 0.0
C1844 C 0.03446 0.53004 0.5427 0.0
C1845 C 0.0314 0.55253 0.54175 0.0
C1846 C 0.98908 0.51455 0.44683 0.0
C1847 C 0.0536 0.52034 0.57322 0.0
C1848 C 1.00829 0.46006 0.56696 0.0
C1849 C 0.02238 0.4474 0.53482 0.0
C1850 C 1.00756 0.48261 0.56066 0.0
C1851 C 0.02094 0.49295 0.52061 0.0
C1852 C 0.03495 0.48023 0.48749 0.0
C1853 C 0.03568 0.45772 0.49532 0.0
C1854 C 0.99221 0.49542 0.59657 0.0
C1855 C 0.04899 0.49034 0.44332 0.0
H1856 H 0.99094 0.55749 0.45075 0.0
H1857 H 0.04189 0.56232 0.56537 0.0
H1858 H 0.99844 0.5101 0.41015 0.0
H1859 H 0.98346 0.49959 0.46755 0.0
H1860 H 0.97407 0.52407 0.43504 0.0
H1861 H 0.05996 0.53162 0.60231 0.0
H1862 H 0.04879 0.50513 0.59391 0.0
H1863 H 0.06756 0.51654 0.54508 0.0
H1864 H 0.99793 0.45231 0.59748 0.0
H1865 H 0.04624 0.4481 0.4694 0.0
H1866 H 0.97942 0.504 0.5726 0.0
H1867 H 1.00185 0.50773 0.61662 0.0
H1868 H 0.98356 0.48519 0.62718 0.0
H1869 H 0.03829 0.5004 0.41704 0.0
H1870 H 0.05797 0.4782 0.41901 0.0
H1871 H 0.06145 0.50103 0.46009 0.0
loop_
_geom_bond_atom_site_label_1
_geom_bond_atom_site_label_2
_geom_bond_distance
_geom_bond_site_symmetry_2
_ccdc_geom_bond_type
C0 C1 1.443 . S
C0 N4 1.376 . S
C0 C38 1.391 . S
C1 C0 1.443 . S
C1 C2 1.340 . S
C1 H41 0.951 . S
C2 C1 1.340 . S
C2 C3 1.439 . S
C2 H42 0.950 . S
C3 C2 1.439 . S
C3 N4 1.374 . S
C3 C37 1.395 . S
N4 C0 1.376 . S
N4 C3 1.374 . S
N4 Co5 2.008 . S
Co5 N4 2.008 . S
Co5 N6 1.995 . S
Co5 N11 2.008 1_545 S
Co5 N16 1.995 1_545 S
Co5 N21 2.282 1_545 S
Co5 N27 2.282 . S
N6 Co5 1.995 . S
N6 C7 1.376 . S
N6 C10 1.383 . S
C7 N6 1.376 . S
C7 C8 1.446 . S
C7 C37 1.391 . S
C8 C7 1.446 . S
C8 C9 1.339 . S
C8 H43 0.949 . S
C9 C8 1.339 . S
C9 C10 1.439 . S
C9 H44 0.950 . S
C10 N6 1.383 . S
C10 C9 1.439 . S
C10 C39 1.390 . S
N11 Co5 2.008 1_565 S
N11 C12 1.376 . S
N11 C15 1.374 . S
C12 N11 1.376 . S
C12 C13 1.443 . S
C12 C39 1.391 1_565 S
C13 C12 1.443 . S
C13 C14 1.340 . S
C13 H45 0.951 . S
C14 C13 1.340 . S
C14 C15 1.439 . S
C14 H46 0.950 . S
C15 N11 1.374 . S
C15 C14 1.439 . S
C15 C40 1.395 . S
N16 Co5 1.995 1_565 S
N16 C17 1.376 . S
N16 C20 1.383 . S
C17 N16 1.376 . S
C17 C18 1.446 . S
C17 C40 1.391 . S
C18 C17 1.446 . S
C18 C19 1.339 . S
C18 H47 0.949 . S
C19 C18 1.339 . S
C19 C20 1.439 . S
C19 H48 0.950 . S
C20 N16 1.383 . S
C20 C19 1.439 . S
C20 C38 1.390 1_565 S
N21 Co5 2.282 1_565 S
N21 C24 1.332 . S
N21 C26 1.316 1_565 S
C22 C23 1.386 . S
C22 C25 1.388 . S
C23 C22 1.386 . S
C23 C24 1.382 1_556 S
C23 H49 0.950 . S
C24 N21 1.332 . S
C24 C23 1.382 1_554 S
C24 H35 0.952 . S
C25 C22 1.388 . S
C25 C26 1.373 1_566 S
C25 H50 0.950 1_565 S
C26 N21 1.316 1_545 S
C26 C25 1.373 1_544 S
C26 H36 0.976 . S
N27 Co5 2.282 . S
N27 C31 1.332 . S
N27 C32 1.323 1_545 S
C28 C29 1.388 . S
C28 C32 1.377 1_545 S
C28 H51 0.950 1_545 S
C29 C28 1.388 . S
C29 C30 1.386 . S
C30 C29 1.386 . S
C30 C31 1.382 . S
C30 H52 0.950 . S
C31 N27 1.332 . S
C31 C30 1.382 . S
C31 H33 0.952 . S
C32 N27 1.323 1_565 S
C32 C28 1.377 1_565 S
C32 H34 0.963 . S
H33 C31 0.952 . S
H34 C32 0.963 . S
H35 C24 0.952 . S
H36 C26 0.976 . S
C37 C3 1.395 . S
C37 C7 1.391 . S
C38 C0 1.391 . S
C38 C20 1.390 1_545 S
C39 C10 1.390 . S
C39 C12 1.391 1_545 S
C40 C15 1.395 . S
C40 C17 1.391 . S
H41 C1 0.951 . S
H42 C2 0.950 . S
H43 C8 0.949 . S
H44 C9 0.950 . S
H45 C13 0.951 . S
H46 C14 0.950 . S
H47 C18 0.949 . S
H48 C19 0.950 . S
H49 C23 0.950 . S
H50 C25 0.950 1_545 S
H51 C28 0.950 1_565 S
H52 C30 0.950 . S
C53 C54 1.443 . S
C53 N57 1.376 . S
C53 C91 1.389 . S
C54 C53 1.443 . S
C54 C55 1.340 . S
C54 H94 0.951 . S
C55 C54 1.340 . S
C55 C56 1.439 . S
C55 H95 0.950 . S
C56 C55 1.439 . S
C56 N57 1.374 . S
C56 C90 1.395 . S
N57 C53 1.376 . S
N57 C56 1.374 . S
N57 Co58 2.008 . S
Co58 N57 2.008 . S
Co58 N59 1.995 . S
Co58 N64 2.008 . S
Co58 N69 1.995 . S
Co58 N74 2.282 . S
Co58 N80 2.277 1_554 S
N59 Co58 1.995 . S
N59 C60 1.376 . S
N59 C63 1.383 1_554 S
C60 N59 1.376 . S
C60 C61 1.446 1_554 S
C60 C90 1.391 . S
C61 C60 1.446 1_556 S
C61 C62 1.339 . S
C61 H96 0.949 . S
C62 C61 1.339 . S
C62 C63 1.439 . S
C62 H97 0.950 . S
C63 N59 1.383 1_556 S
C63 C62 1.439 . S
C63 C92 1.392 . S
N64 Co58 2.008 . S
N64 C65 1.376 1_554 S
N64 C68 1.374 . S
C65 N64 1.376 1_556 S
C65 C66 1.443 . S
C65 C92 1.389 . S
C66 C65 1.443 . S
C66 C67 1.340 1_556 S
C66 H98 0.951 . S
C67 C66 1.340 1_554 S
C67 C68 1.439 . S
C67 H99 0.950 . S
C68 N64 1.374 . S
C68 C67 1.439 . S
C68 C93 1.395 . S
N69 Co58 1.995 . S
N69 C70 1.376 . S
N69 C73 1.383 . S
C70 N69 1.376 . S
C70 C71 1.446 . S
C70 C93 1.391 . S
C71 C70 1.446 . S
C71 C72 1.339 . S
C71 H100 0.949 . S
C72 C71 1.339 . S
C72 C73 1.439 . S
C72 H101 0.950 . S
C73 N69 1.383 . S
C73 C72 1.439 . S
C73 C91 1.392 . S
N74 Co58 2.282 . S
N74 C77 1.332 . S
N74 C79 1.332 . S
C75 C76 1.386 . S
C75 C78 1.388 . S
C76 C75 1.386 . S
C76 C77 1.382 . S
C76 H102 0.950 . S
C77 N74 1.332 . S
C77 C76 1.382 . S
C77 H88 0.952 . S
C78 C75 1.388 . S
C78 C79 1.382 . S
C78 H103 0.950 . S
C79 N74 1.332 . S
C79 C78 1.382 . S
C79 H89 0.948 . S
N80 Co58 2.277 1_556 S
N80 C84 1.335 . S
N80 C85 1.333 . S
C81 C82 1.388 . S
C81 C85 1.382 . S
C81 H104 0.950 . S
C82 C81 1.388 . S
C82 C83 1.386 . S
C83 C82 1.386 . S
C83 C84 1.382 . S
C83 H105 0.950 . S
C84 N80 1.335 . S
C84 C83 1.382 . S
C84 H86 0.952 . S
C85 N80 1.333 . S
C85 C81 1.382 . S
C85 H87 0.948 1_556 S
H86 C84 0.952 . S
H87 C85 0.948 1_554 S
H88 C77 0.952 . S
H89 C79 0.948 . S
C90 C56 1.395 . S
C90 C60 1.391 . S
C91 C53 1.389 . S
C91 C73 1.392 . S
C92 C63 1.392 . S
C92 C65 1.389 . S
C93 C68 1.395 . S
C93 C70 1.391 . S
H94 C54 0.951 . S
H95 C55 0.950 . S
H96 C61 0.949 . S
H97 C62 0.950 . S
H98 C66 0.951 . S
H99 C67 0.950 . S
H100 C71 0.949 . S
H101 C72 0.950 . S
H102 C76 0.950 . S
H103 C78 0.950 . S
H104 C81 0.950 . S
H105 C83 0.950 . S
C106 C107 1.443 . S
C106 N110 1.376 . S
C106 C144 1.389 . S
C107 C106 1.443 . S
C107 C108 1.340 . S
C107 H147 0.951 1_554 S
C108 C107 1.340 . S
C108 C109 1.439 . S
C108 H148 0.950 . S
C109 C108 1.439 . S
C109 N110 1.374 . S
C109 C143 1.395 . S
N110 C106 1.376 . S
N110 C109 1.374 . S
N110 Co111 2.008 . S
Co111 N110 2.008 . S
Co111 N112 1.995 . S
Co111 N117 2.008 . S
Co111 N122 1.995 . S
Co111 N127 2.282 . S
Co111 N133 2.282 . S
N112 Co111 1.995 . S
N112 C113 1.376 . S
N112 C116 1.383 . S
C113 N112 1.376 . S
C113 C114 1.446 . S
C113 C143 1.391 . S
C114 C113 1.446 . S
C114 C115 1.339 . S
C114 H149 0.949 . S
C115 C114 1.339 . S
C115 C116 1.439 . S
C115 H150 0.950 . S
C116 N112 1.383 . S
C116 C115 1.439 . S
C116 C145 1.392 . S
N117 Co111 2.008 . S
N117 C118 1.376 . S
N117 C121 1.374 . S
C118 N117 1.376 . S
C118 C119 1.443 . S
C118 C145 1.389 . S
C119 C118 1.443 . S
C119 C120 1.340 . S
C119 H151 0.951 . S
C120 C119 1.340 . S
C120 C121 1.439 . S
C120 H152 0.950 . S
C121 N117 1.374 . S
C121 C120 1.439 . S
C121 C146 1.395 . S
N122 Co111 1.995 . S
N122 C123 1.376 . S
N122 C126 1.383 . S
C123 N122 1.376 . S
C123 C124 1.446 . S
C123 C146 1.391 . S
C124 C123 1.446 . S
C124 C125 1.339 . S
C124 H153 0.949 . S
C125 C124 1.339 . S
C125 C126 1.439 . S
C125 H154 0.950 1_655 S
C126 N122 1.383 . S
C126 C125 1.439 . S
C126 C144 1.392 . S
N127 Co111 2.282 . S
N127 C130 1.332 1_554 S
N127 C132 1.332 1_554 S
C128 C129 1.386 . S
C128 C131 1.388 . S
C129 C128 1.386 . S
C129 C130 1.382 . S
C129 H155 0.950 . S
C130 N127 1.332 1_556 S
C130 C129 1.382 . S
C130 H141 0.952 1_556 S
C131 C128 1.388 . S
C131 C132 1.382 . S
C131 H156 0.950 . S
C132 N127 1.332 1_556 S
C132 C131 1.382 . S
C132 H142 0.951 . S
N133 Co111 2.282 . S
N133 C137 1.332 . S
N133 C138 1.332 . S
C134 C135 1.388 . S
C134 C138 1.382 . S
C134 H157 0.950 . S
C135 C134 1.388 . S
C135 C136 1.386 . S
C136 C135 1.386 . S
C136 C137 1.382 . S
C136 H158 0.950 . S
C137 N133 1.332 . S
C137 C136 1.382 . S
C137 H139 0.952 . S
C138 N133 1.332 . S
C138 C134 1.382 . S
C138 H140 0.948 . S
H139 C137 0.952 . S
H140 C138 0.948 . S
H141 C130 0.952 1_554 S
H142 C132 0.951 . S
C143 C109 1.395 . S
C143 C113 1.391 . S
C144 C106 1.389 . S
C144 C126 1.392 . S
C145 C116 1.392 . S
C145 C118 1.389 . S
C146 C121 1.395 . S
C146 C123 1.391 . S
H147 C107 0.951 1_556 S
H148 C108 0.950 . S
H149 C114 0.949 . S
H150 C115 0.950 . S
H151 C119 0.951 . S
H152 C120 0.950 . S
H153 C124 0.949 . S
H154 C125 0.950 1_455 S
H155 C129 0.950 . S
H156 C131 0.950 . S
H157 C134 0.950 . S
H158 C136 0.950 . S
C159 C160 1.443 . S
C159 N163 1.376 . S
C159 C197 1.389 1_655 S
C160 C159 1.443 . S
C160 C161 1.340 . S
C160 H200 0.951 . S
C161 C160 1.340 . S
C161 C162 1.439 . S
C161 H201 0.950 . S
C162 C161 1.439 . S
C162 N163 1.374 . S
C162 C196 1.395 . S
N163 C159 1.376 . S
N163 C162 1.374 . S
N163 Co164 2.008 1_655 S
Co164 N163 2.008 1_455 S
Co164 N165 1.995 1_455 S
Co164 N170 2.008 1_554 S
Co164 N175 1.995 . S
Co164 N180 2.282 1_455 S
Co164 N186 2.282 1_554 S
N165 Co164 1.995 1_655 S
N165 C166 1.376 . S
N165 C169 1.383 1_554 S
C166 N165 1.376 . S
C166 C167 1.446 1_554 S
C166 C196 1.391 . S
C167 C166 1.446 1_556 S
C167 C168 1.339 . S
C167 H202 0.949 . S
C168 C167 1.339 . S
C168 C169 1.439 . S
C168 H203 0.950 . S
C169 N165 1.383 1_556 S
C169 C168 1.439 . S
C169 C198 1.392 . S
N170 Co164 2.008 1_556 S
N170 C171 1.376 . S
N170 C174 1.374 . S
C171 N170 1.376 . S
C171 C172 1.443 . S
C171 C198 1.389 1_455 S
C172 C171 1.443 . S
C172 C173 1.340 . S
C172 H204 0.951 . S
C173 C172 1.340 . S
C173 C174 1.445 . S
C173 H205 0.950 . S
C174 N170 1.374 . S
C174 C173 1.445 . S
C174 C199 1.390 1_556 S
N175 Co164 1.995 . S
N175 C176 1.376 . S
N175 C179 1.383 . S
C176 N175 1.376 . S
C176 C177 1.446 . S
C176 C199 1.391 . S
C177 C176 1.446 . S
C177 C178 1.339 . S
C177 H206 0.949 . S
C178 C177 1.339 . S
C178 C179 1.439 . S
C178 H207 0.950 . S
C179 N175 1.383 . S
C179 C178 1.439 . S
C179 C197 1.392 . S
N180 Co164 2.282 1_655 S
N180 C183 1.296 1_655 S
N180 C185 1.367 . S
C181 C182 1.388 . S
C181 C184 1.386 1_455 S
C182 C181 1.388 . S
C182 C183 1.382 . S
C182 H208 0.950 . S
C183 N180 1.296 1_455 S
C183 C182 1.382 . S
C183 H194 0.952 . S
C184 C181 1.386 1_655 S
C184 C185 1.382 . S
C184 H209 0.950 . S
C185 N180 1.367 . S
C185 C184 1.382 . S
C185 H195 0.948 . S
N186 Co164 2.282 1_556 S
N186 C190 1.286 1_455 S
N186 C191 1.378 . S
C187 C188 1.386 . S
C187 C191 1.382 . S
C187 H210 0.950 . S
C188 C187 1.386 . S
C188 C189 1.388 1_455 S
C189 C188 1.388 1_655 S
C189 C190 1.382 . S
C189 H211 0.950 . S
C190 N186 1.286 1_655 S
C190 C189 1.382 . S
C190 H192 0.952 . S
C191 N186 1.378 . S
C191 C187 1.382 . S
C191 H193 0.948 . S
H192 C190 0.952 . S
H193 C191 0.948 . S
H194 C183 0.952 . S
H195 C185 0.948 . S
C196 C162 1.395 . S
C196 C166 1.391 . S
C197 C159 1.389 1_455 S
C197 C179 1.392 . S
C198 C169 1.392 . S
C198 C171 1.389 1_655 S
C199 C174 1.390 1_554 S
C199 C176 1.391 . S
H200 C160 0.951 . S
H201 C161 0.950 . S
H202 C167 0.949 . S
H203 C168 0.950 . S
H204 C172 0.951 . S
H205 C173 0.950 . S
H206 C177 0.949 . S
H207 C178 0.950 . S
H208 C182 0.950 . S
H209 C184 0.950 . S
H210 C187 0.950 . S
H211 C189 0.950 . S
C212 C213 1.443 . S
C212 N216 1.376 . S
C212 C250 1.389 . S
C213 C212 1.443 . S
C213 C214 1.340 . S
C213 H253 0.951 . S
C214 C213 1.340 . S
C214 C215 1.439 . S
C214 H254 0.950 . S
C215 C214 1.439 . S
C215 N216 1.374 . S
C215 C249 1.395 . S
N216 C212 1.376 . S
N216 C215 1.374 . S
N216 Co217 2.008 . S
Co217 N216 2.008 . S
Co217 N218 1.995 . S
Co217 N223 2.008 1_565 S
Co217 N228 1.995 1_565 S
Co217 N233 2.282 1_565 S
Co217 N239 2.282 . S
N218 Co217 1.995 . S
N218 C219 1.376 . S
N218 C222 1.383 . S
C219 N218 1.376 . S
C219 C220 1.446 . S
C219 C249 1.391 . S
C220 C219 1.446 . S
C220 C221 1.339 . S
C220 H255 0.949 . S
C221 C220 1.339 . S
C221 C222 1.439 . S
C221 H256 0.950 . S
C222 N218 1.383 . S
C222 C221 1.439 . S
C222 C251 1.392 1_565 S
N223 Co217 2.008 1_545 S
N223 C224 1.376 . S
N223 C227 1.374 . S
C224 N223 1.376 . S
C224 C225 1.443 . S
C224 C251 1.389 . S
C225 C224 1.443 . S
C225 C226 1.340 . S
C225 H257 0.951 . S
C226 C225 1.340 . S
C226 C227 1.439 . S
C226 H258 0.950 . S
C227 N223 1.374 . S
C227 C226 1.439 . S
C227 C252 1.395 . S
N228 Co217 1.995 1_545 S
N228 C229 1.376 . S
N228 C232 1.383 . S
C229 N228 1.376 . S
C229 C230 1.446 . S
C229 C252 1.391 . S
C230 C229 1.446 . S
C230 C231 1.339 . S
C230 H259 0.949 . S
C231 C230 1.339 . S
C231 C232 1.439 . S
C231 H260 0.950 . S
C232 N228 1.383 . S
C232 C231 1.439 . S
C232 C250 1.392 1_545 S
N233 Co217 2.282 1_545 S
N233 C236 1.332 . S
N233 C238 1.332 1_545 S
C234 C235 1.386 . S
C234 C237 1.388 . S
C235 C234 1.386 . S
C235 C236 1.382 . S
C235 H261 0.950 . S
C236 N233 1.332 . S
C236 C235 1.382 . S
C236 H247 0.952 . S
C237 C234 1.388 . S
C237 C238 1.382 1_545 S
C237 H262 0.950 1_545 S
C238 N233 1.332 1_565 S
C238 C237 1.382 1_565 S
C238 H248 0.948 . S
N239 Co217 2.282 . S
N239 C243 1.332 . S
N239 C244 1.307 1_565 S
C240 C241 1.388 . S
C240 C244 1.366 1_565 S
C240 H263 0.950 1_565 S
C241 C240 1.388 . S
C241 C242 1.386 . S
C242 C241 1.386 . S
C242 C243 1.382 . S
C242 H264 0.950 . S
C243 N239 1.332 . S
C243 C242 1.382 . S
C243 H245 0.952 . S
C244 N239 1.307 1_545 S
C244 C240 1.366 1_545 S
C244 H246 0.994 . S
H245 C243 0.952 . S
H246 C244 0.994 . S
H247 C236 0.952 . S
H248 C238 0.948 . S
C249 C215 1.395 . S
C249 C219 1.391 . S
C250 C212 1.389 . S
C250 C232 1.392 1_565 S
C251 C222 1.392 1_545 S
C251 C224 1.389 . S
C252 C227 1.395 . S
C252 C229 1.391 . S
H253 C213 0.951 . S
H254 C214 0.950 . S
H255 C220 0.949 . S
H256 C221 0.950 . S
H257 C225 0.951 . S
H258 C226 0.950 . S
H259 C230 0.949 . S
H260 C231 0.950 . S
H261 C235 0.950 . S
H262 C237 0.950 1_565 S
H263 C240 0.950 1_545 S
H264 C242 0.950 . S
C265 C266 1.443 . S
C265 N269 1.376 . S
C265 C303 1.389 . S
C266 C265 1.443 . S
C266 C267 1.340 . S
C266 H306 0.951 . S
C267 C266 1.340 . S
C267 C268 1.439 . S
C267 H307 0.950 . S
C268 C267 1.439 . S
C268 N269 1.374 . S
C268 C302 1.395 . S
N269 C265 1.376 . S
N269 C268 1.374 . S
N269 Co270 2.008 . S
Co270 N269 2.008 . S
Co270 N271 1.995 . S
Co270 N276 2.008 . S
Co270 N281 1.995 . S
Co270 N286 2.282 . S
Co270 N292 2.282 . S
N271 Co270 1.995 . S
N271 C272 1.376 . S
N271 C275 1.383 . S
C272 N271 1.376 . S
C272 C273 1.446 . S
C272 C302 1.391 . S
C273 C272 1.446 . S
C273 C274 1.339 . S
C273 H308 0.949 . S
C274 C273 1.339 . S
C274 C275 1.439 . S
C274 H309 0.950 . S
C275 N271 1.383 . S
C275 C274 1.439 . S
C275 C304 1.392 . S
N276 Co270 2.008 . S
N276 C277 1.376 . S
N276 C280 1.374 . S
C277 N276 1.376 . S
C277 C278 1.443 . S
C277 C304 1.389 . S
C278 C277 1.443 . S
C278 C279 1.340 . S
C278 H310 0.951 . S
C279 C278 1.340 . S
C279 C280 1.439 . S
C279 H311 0.950 . S
C280 N276 1.374 . S
C280 C279 1.439 . S
C280 C305 1.395 . S
N281 Co270 1.995 . S
N281 C282 1.376 . S
N281 C285 1.383 . S
C282 N281 1.376 . S
C282 C283 1.446 . S
C282 C305 1.391 . S
C283 C282 1.446 . S
C283 C284 1.339 . S
C283 H312 0.949 . S
C284 C283 1.339 . S
C284 C285 1.439 . S
C284 H313 0.950 . S
C285 N281 1.383 . S
C285 C284 1.439 . S
C285 C303 1.392 . S
N286 Co270 2.282 . S
N286 C289 1.332 . S
N286 C291 1.332 . S
C287 C288 1.386 . S
C287 C290 1.388 . S
C288 C287 1.386 . S
C288 C289 1.382 . S
C288 H314 0.950 . S
C289 N286 1.332 . S
C289 C288 1.382 . S
C289 H300 0.952 . S
C290 C287 1.388 . S
C290 C291 1.382 . S
C290 H315 0.950 . S
C291 N286 1.332 . S
C291 C290 1.382 . S
C291 H301 0.948 . S
N292 Co270 2.282 . S
N292 C296 1.332 . S
N292 C297 1.332 . S
C293 C294 1.388 . S
C293 C297 1.382 . S
C293 H316 0.950 . S
C294 C293 1.388 . S
C294 C295 1.386 . S
C295 C294 1.386 . S
C295 C296 1.382 . S
C295 H317 0.950 . S
C296 N292 1.332 . S
C296 C295 1.382 . S
C296 H298 0.952 . S
C297 N292 1.332 . S
C297 C293 1.382 . S
C297 H299 0.948 . S
H298 C296 0.952 . S
H299 C297 0.948 . S
H300 C289 0.952 . S
H301 C291 0.948 . S
C302 C268 1.395 . S
C302 C272 1.391 . S
C303 C265 1.389 . S
C303 C285 1.392 . S
C304 C275 1.392 . S
C304 C277 1.389 . S
C305 C280 1.395 . S
C305 C282 1.391 . S
H306 C266 0.951 . S
H307 C267 0.950 . S
H308 C273 0.949 . S
H309 C274 0.950 . S
H310 C278 0.951 . S
H311 C279 0.950 . S
H312 C283 0.949 . S
H313 C284 0.950 . S
H314 C288 0.950 . S
H315 C290 0.950 . S
H316 C293 0.950 . S
H317 C295 0.950 . S
C318 C319 1.443 . S
C318 N322 1.376 . S
C318 C356 1.389 . S
C319 C318 1.443 . S
C319 C320 1.340 . S
C319 H359 0.951 . S
C320 C319 1.340 . S
C320 C321 1.439 . S
C320 H360 0.950 . S
C321 C320 1.439 . S
C321 N322 1.374 . S
C321 C355 1.395 . S
N322 C318 1.376 . S
N322 C321 1.374 . S
N322 Co323 2.008 . S
Co323 N322 2.008 . S
Co323 N324 1.995 . S
Co323 N329 2.008 . S
Co323 N334 1.995 . S
Co323 N339 2.282 . S
Co323 N345 2.282 . S
N324 Co323 1.995 . S
N324 C325 1.376 . S
N324 C328 1.383 . S
C325 N324 1.376 . S
C325 C326 1.446 . S
C325 C355 1.391 . S
C326 C325 1.446 . S
C326 C327 1.339 . S
C326 H361 0.949 . S
C327 C326 1.339 . S
C327 C328 1.439 . S
C327 H362 0.950 . S
C328 N324 1.383 . S
C328 C327 1.439 . S
C328 C357 1.392 . S
N329 Co323 2.008 . S
N329 C330 1.376 . S
N329 C333 1.374 . S
C330 N329 1.376 . S
C330 C331 1.443 . S
C330 C357 1.389 . S
C331 C330 1.443 . S
C331 C332 1.340 . S
C331 H363 0.951 . S
C332 C331 1.340 . S
C332 C333 1.439 . S
C332 H364 0.950 . S
C333 N329 1.374 . S
C333 C332 1.439 . S
C333 C358 1.395 . S
N334 Co323 1.995 . S
N334 C335 1.376 . S
N334 C338 1.383 . S
C335 N334 1.376 . S
C335 C336 1.446 . S
C335 C358 1.391 . S
C336 C335 1.446 . S
C336 C337 1.339 . S
C336 H365 0.949 . S
C337 C336 1.339 . S
C337 C338 1.439 . S
C337 H366 0.950 . S
C338 N334 1.383 . S
C338 C337 1.439 . S
C338 C356 1.392 . S
N339 Co323 2.282 . S
N339 C342 1.332 . S
N339 C344 1.332 . S
C340 C341 1.386 . S
C340 C343 1.388 . S
C341 C340 1.386 . S
C341 C342 1.382 . S
C341 H367 0.950 . S
C342 N339 1.332 . S
C342 C341 1.382 . S
C342 H353 0.952 . S
C343 C340 1.388 . S
C343 C344 1.382 . S
C343 H368 0.950 . S
C344 N339 1.332 . S
C344 C343 1.382 . S
C344 H354 0.948 . S
N345 Co323 2.282 . S
N345 C349 1.332 . S
N345 C350 1.332 . S
C346 C347 1.388 . S
C346 C350 1.382 . S
C346 H369 0.950 . S
C347 C346 1.388 . S
C347 C348 1.386 . S
C348 C347 1.386 . S
C348 C349 1.382 . S
C348 H370 0.950 . S
C349 N345 1.332 . S
C349 C348 1.382 . S
C349 H351 0.952 . S
C350 N345 1.332 . S
C350 C346 1.382 . S
C350 H352 0.948 . S
H351 C349 0.952 . S
H352 C350 0.948 . S
H353 C342 0.952 . S
H354 C344 0.948 . S
C355 C321 1.395 . S
C355 C325 1.391 . S
C356 C318 1.389 . S
C356 C338 1.392 . S
C357 C328 1.392 . S
C357 C330 1.389 . S
C358 C333 1.395 . S
C358 C335 1.391 . S
H359 C319 0.951 . S
H360 C320 0.950 . S
H361 C326 0.949 . S
H362 C327 0.950 . S
H363 C331 0.951 . S
H364 C332 0.950 . S
H365 C336 0.949 . S
H366 C337 0.950 . S
H367 C341 0.950 . S
H368 C343 0.950 . S
H369 C346 0.950 . S
H370 C348 0.950 . S
C371 C372 1.443 . S
C371 N375 1.376 . S
C371 C409 1.389 1_455 S
C372 C371 1.443 . S
C372 C373 1.340 . S
C372 H412 0.951 . S
C373 C372 1.340 . S
C373 C374 1.439 . S
C373 H413 0.950 . S
C374 C373 1.439 . S
C374 N375 1.374 . S
C374 C408 1.395 . S
N375 C371 1.376 . S
N375 C374 1.374 . S
N375 Co376 2.008 1_455 S
Co376 N375 2.008 1_655 S
Co376 N377 1.995 1_655 S
Co376 N382 2.008 . S
Co376 N387 1.995 . S
Co376 N392 2.283 1_655 S
Co376 N398 2.284 . S
N377 Co376 1.995 1_455 S
N377 C378 1.376 . S
N377 C381 1.383 . S
C378 N377 1.376 . S
C378 C379 1.446 . S
C378 C408 1.391 . S
C379 C378 1.446 . S
C379 C380 1.339 . S
C379 H414 0.949 . S
C380 C379 1.339 . S
C380 C381 1.439 . S
C380 H415 0.950 . S
C381 N377 1.383 . S
C381 C380 1.439 . S
C381 C410 1.392 . S
N382 Co376 2.008 . S
N382 C383 1.376 . S
N382 C386 1.374 . S
C383 N382 1.376 . S
C383 C384 1.443 . S
C383 C410 1.389 1_655 S
C384 C383 1.443 . S
C384 C385 1.340 . S
C384 H416 0.951 . S
C385 C384 1.340 . S
C385 C386 1.439 . S
C385 H417 0.950 . S
C386 N382 1.374 . S
C386 C385 1.439 . S
C386 C411 1.395 . S
N387 Co376 1.995 . S
N387 C388 1.376 . S
N387 C391 1.383 . S
C388 N387 1.376 . S
C388 C389 1.446 . S
C388 C411 1.391 . S
C389 C388 1.446 . S
C389 C390 1.339 . S
C389 H418 0.949 . S
C390 C389 1.339 . S
C390 C391 1.439 . S
C390 H419 0.950 . S
C391 N387 1.383 . S
C391 C390 1.439 . S
C391 C409 1.392 . S
N392 Co376 2.283 1_455 S
N392 C395 1.302 1_455 S
N392 C397 1.360 . S
C393 C394 1.408 . S
C393 C396 1.364 1_655 S
C394 C393 1.408 . S
C394 C395 1.382 . S
C394 H420 0.950 . S
C395 N392 1.302 1_655 S
C395 C394 1.382 . S
C395 H406 0.952 . S
C396 C393 1.364 1_455 S
C396 C397 1.382 . S
C396 H421 0.950 . S
C397 N392 1.360 . S
C397 C396 1.382 . S
C397 H407 0.948 . S
N398 Co376 2.284 . S
N398 C402 1.292 1_655 S
N398 C403 1.370 . S
C399 C400 1.375 1_655 S
C399 C403 1.382 . S
C399 H422 0.950 . S
C400 C399 1.375 1_455 S
C400 C401 1.398 . S
C401 C400 1.398 . S
C401 C402 1.382 . S
C401 H423 0.950 . S
C402 N398 1.292 1_455 S
C402 C401 1.382 . S
C402 H404 0.952 . S
C403 N398 1.370 . S
C403 C399 1.382 . S
C403 H405 0.948 . S
H404 C402 0.952 . S
H405 C403 0.948 . S
H406 C395 0.952 . S
H407 C397 0.948 . S
C408 C374 1.395 . S
C408 C378 1.391 . S
C409 C371 1.389 1_655 S
C409 C391 1.392 . S
C410 C381 1.392 . S
C410 C383 1.389 1_455 S
C411 C386 1.395 . S
C411 C388 1.391 . S
H412 C372 0.951 . S
H413 C373 0.950 . S
H414 C379 0.949 . S
H415 C380 0.950 . S
H416 C384 0.951 . S
H417 C385 0.950 . S
H418 C389 0.949 . S
H419 C390 0.950 . S
H420 C394 0.950 . S
H421 C396 0.950 . S
H422 C399 0.950 . S
H423 C401 0.950 . S
C424 C425 1.443 . S
C424 N428 1.376 1_554 S
C424 C462 1.389 . S
C425 C424 1.443 . S
C425 C426 1.340 1_554 S
C425 H465 0.951 . S
C426 C425 1.340 1_556 S
C426 C427 1.439 . S
C426 H466 0.950 . S
C427 C426 1.439 . S
C427 N428 1.374 . S
C427 C461 1.395 . S
N428 C424 1.376 1_556 S
N428 C427 1.374 . S
N428 Co429 2.008 1_545 S
Co429 N428 2.008 1_565 S
Co429 N430 1.995 1_565 S
Co429 N435 2.008 . S
Co429 N440 1.995 1_556 S
Co429 N445 2.282 1_566 S
Co429 N451 2.282 . S
N430 Co429 1.995 1_545 S
N430 C431 1.376 . S
N430 C434 1.383 . S
C431 N430 1.376 . S
C431 C432 1.446 . S
C431 C461 1.391 . S
C432 C431 1.446 . S
C432 C433 1.339 . S
C432 H467 0.949 . S
C433 C432 1.339 . S
C433 C434 1.439 . S
C433 H468 0.950 . S
C434 N430 1.383 . S
C434 C433 1.439 . S
C434 C463 1.392 1_545 S
N435 Co429 2.008 . S
N435 C436 1.376 . S
N435 C439 1.374 . S
C436 N435 1.376 . S
C436 C437 1.443 . S
C436 C463 1.389 . S
C437 C436 1.443 . S
C437 C438 1.340 . S
C437 H469 0.951 . S
C438 C437 1.340 . S
C438 C439 1.439 . S
C438 H470 0.950 . S
C439 N435 1.374 . S
C439 C438 1.439 . S
C439 C464 1.395 1_556 S
N440 Co429 1.995 1_554 S
N440 C441 1.376 . S
N440 C444 1.383 . S
C441 N440 1.376 . S
C441 C442 1.446 . S
C441 C464 1.391 . S
C442 C441 1.446 . S
C442 C443 1.339 . S
C442 H471 0.949 . S
C443 C442 1.339 . S
C443 C444 1.439 . S
C443 H472 0.950 . S
C444 N440 1.383 . S
C444 C443 1.439 . S
C444 C462 1.392 1_565 S
N445 Co429 2.282 1_544 S
N445 C448 1.332 1_545 S
N445 C450 1.332 . S
C446 C447 1.386 1_545 S
C446 C449 1.388 . S
C447 C446 1.386 1_565 S
C447 C448 1.382 . S
C447 H473 0.950 . S
C448 N445 1.332 1_565 S
C448 C447 1.382 . S
C448 H459 0.952 . S
C449 C446 1.388 . S
C449 C450 1.382 . S
C449 H474 0.950 . S
C450 N445 1.332 . S
C450 C449 1.382 . S
C450 H460 0.948 . S
N451 Co429 2.282 . S
N451 C455 1.332 1_565 S
N451 C456 1.332 . S
C452 C453 1.388 . S
C452 C456 1.382 . S
C452 H475 0.950 . S
C453 C452 1.388 . S
C453 C454 1.386 1_565 S
C454 C453 1.386 1_545 S
C454 C455 1.382 . S
C454 H476 0.950 . S
C455 N451 1.332 1_545 S
C455 C454 1.382 . S
C455 H457 0.952 . S
C456 N451 1.332 . S
C456 C452 1.382 . S
C456 H458 0.948 . S
H457 C455 0.952 . S
H458 C456 0.948 . S
H459 C448 0.952 . S
H460 C450 0.948 . S
C461 C427 1.395 . S
C461 C431 1.391 . S
C462 C424 1.389 . S
C462 C444 1.392 1_545 S
C463 C434 1.392 1_565 S
C463 C436 1.389 . S
C464 C439 1.395 1_554 S
C464 C441 1.391 . S
H465 C425 0.951 . S
H466 C426 0.950 . S
H467 C432 0.949 . S
H468 C433 0.950 . S
H469 C437 0.951 . S
H470 C438 0.950 . S
H471 C442 0.949 . S
H472 C443 0.950 . S
H473 C447 0.950 . S
H474 C449 0.950 . S
H475 C452 0.950 . S
H476 C454 0.950 . S
C477 C478 1.443 . S
C477 N481 1.376 . S
C477 C515 1.389 . S
C478 C477 1.443 . S
C478 C479 1.340 . S
C478 H518 0.951 . S
C479 C478 1.340 . S
C479 C480 1.439 . S
C479 H519 0.950 . S
C480 C479 1.439 . S
C480 N481 1.374 . S
C480 C514 1.395 . S
N481 C477 1.376 . S
N481 C480 1.374 . S
N481 Co482 2.008 . S
Co482 N481 2.008 . S
Co482 N483 1.995 . S
Co482 N488 2.008 . S
Co482 N493 1.995 . S
Co482 N498 2.282 . S
Co482 N504 2.282 . S
N483 Co482 1.995 . S
N483 C484 1.376 . S
N483 C487 1.383 . S
C484 N483 1.376 . S
C484 C485 1.446 . S
C484 C514 1.391 . S
C485 C484 1.446 . S
C485 C486 1.339 . S
C485 H520 0.949 . S
C486 C485 1.339 . S
C486 C487 1.439 . S
C486 H521 0.950 . S
C487 N483 1.383 . S
C487 C486 1.439 . S
C487 C516 1.392 . S
N488 Co482 2.008 . S
N488 C489 1.376 . S
N488 C492 1.374 . S
C489 N488 1.376 . S
C489 C490 1.443 . S
C489 C516 1.389 . S
C490 C489 1.443 . S
C490 C491 1.340 . S
C490 H522 0.951 . S
C491 C490 1.340 . S
C491 C492 1.439 . S
C491 H523 0.950 . S
C492 N488 1.374 . S
C492 C491 1.439 . S
C492 C517 1.395 . S
N493 Co482 1.995 . S
N493 C494 1.376 . S
N493 C497 1.383 . S
C494 N493 1.376 . S
C494 C495 1.446 . S
C494 C517 1.391 . S
C495 C494 1.446 . S
C495 C496 1.339 . S
C495 H524 0.949 . S
C496 C495 1.339 . S
C496 C497 1.439 . S
C496 H525 0.950 . S
C497 N493 1.383 . S
C497 C496 1.439 . S
C497 C515 1.392 . S
N498 Co482 2.282 . S
N498 C501 1.332 . S
N498 C503 1.332 . S
C499 C500 1.386 . S
C499 C502 1.388 . S
C500 C499 1.386 . S
C500 C501 1.382 . S
C500 H526 0.950 1_556 S
C501 N498 1.332 . S
C501 C500 1.382 . S
C501 H512 0.952 . S
C502 C499 1.388 . S
C502 C503 1.382 . S
C502 H527 0.950 . S
C503 N498 1.332 . S
C503 C502 1.382 . S
C503 H513 0.948 . S
N504 Co482 2.282 . S
N504 C508 1.332 . S
N504 C509 1.332 . S
C505 C506 1.388 . S
C505 C509 1.382 . S
C505 H528 0.950 . S
C506 C505 1.388 . S
C506 C507 1.386 . S
C507 C506 1.386 . S
C507 C508 1.382 . S
C507 H529 0.950 . S
C508 N504 1.332 . S
C508 C507 1.382 . S
C508 H510 0.952 . S
C509 N504 1.332 . S
C509 C505 1.382 . S
C509 H511 0.948 . S
H510 C508 0.952 . S
H511 C509 0.948 . S
H512 C501 0.952 . S
H513 C503 0.948 . S
C514 C480 1.395 . S
C514 C484 1.391 . S
C515 C477 1.389 . S
C515 C497 1.392 . S
C516 C487 1.392 . S
C516 C489 1.389 . S
C517 C492 1.395 . S
C517 C494 1.391 . S
H518 C478 0.951 . S
H519 C479 0.950 . S
H520 C485 0.949 . S
H521 C486 0.950 . S
H522 C490 0.951 . S
H523 C491 0.950 . S
H524 C495 0.949 . S
H525 C496 0.950 . S
H526 C500 0.950 1_554 S
H527 C502 0.950 . S
H528 C505 0.950 . S
H529 C507 0.950 . S
C530 C531 1.443 . S
C530 N534 1.376 . S
C530 C568 1.389 1_556 S
C531 C530 1.443 . S
C531 C532 1.340 . S
C531 H571 0.951 1_556 S
C532 C531 1.340 . S
C532 C533 1.439 . S
C532 H572 0.950 . S
C533 C532 1.439 . S
C533 N534 1.374 . S
C533 C567 1.395 . S
N534 C530 1.376 . S
N534 C533 1.374 . S
N534 Co535 2.008 . S
Co535 N534 2.008 . S
Co535 N536 1.995 . S
Co535 N541 2.008 . S
Co535 N546 1.995 . S
Co535 N551 2.282 . S
Co535 N557 2.282 . S
N536 Co535 1.995 . S
N536 C537 1.376 . S
N536 C540 1.383 . S
C537 N536 1.376 . S
C537 C538 1.446 . S
C537 C567 1.391 . S
C538 C537 1.446 . S
C538 C539 1.339 . S
C538 H573 0.949 . S
C539 C538 1.339 . S
C539 C540 1.439 . S
C539 H574 0.950 . S
C540 N536 1.383 . S
C540 C539 1.439 . S
C540 C569 1.392 . S
N541 Co535 2.008 . S
N541 C542 1.376 . S
N541 C545 1.374 . S
C542 N541 1.376 . S
C542 C543 1.443 . S
C542 C569 1.389 . S
C543 C542 1.443 . S
C543 C544 1.340 . S
C543 H575 0.951 . S
C544 C543 1.340 . S
C544 C545 1.439 . S
C544 H576 0.950 . S
C545 N541 1.374 . S
C545 C544 1.439 . S
C545 C570 1.395 . S
N546 Co535 1.995 . S
N546 C547 1.376 . S
N546 C550 1.383 1_556 S
C547 N546 1.376 . S
C547 C548 1.446 1_556 S
C547 C570 1.391 . S
C548 C547 1.446 1_554 S
C548 C549 1.339 . S
C548 H577 0.949 . S
C549 C548 1.339 . S
C549 C550 1.439 . S
C549 H578 0.950 . S
C550 N546 1.383 1_554 S
C550 C549 1.439 . S
C550 C568 1.392 . S
N551 Co535 2.282 . S
N551 C554 1.332 1_556 S
N551 C556 1.332 . S
C552 C553 1.386 . S
C552 C555 1.388 . S
C553 C552 1.386 . S
C553 C554 1.382 . S
C553 H579 0.950 . S
C554 N551 1.332 1_554 S
C554 C553 1.382 . S
C554 H565 0.952 . S
C555 C552 1.388 . S
C555 C556 1.382 1_554 S
C555 H580 0.950 . S
C556 N551 1.332 . S
C556 C555 1.382 1_556 S
C556 H566 0.948 . S
N557 Co535 2.282 . S
N557 C561 1.332 . S
N557 C562 1.332 . S
C558 C559 1.388 . S
C558 C562 1.382 . S
C558 H581 0.950 . S
C559 C558 1.388 . S
C559 C560 1.386 . S
C560 C559 1.386 . S
C560 C561 1.382 . S
C560 H582 0.950 . S
C561 N557 1.332 . S
C561 C560 1.382 . S
C561 H563 0.952 . S
C562 N557 1.332 . S
C562 C558 1.382 . S
C562 H564 0.948 . S
H563 C561 0.952 . S
H564 C562 0.948 . S
H565 C554 0.952 . S
H566 C556 0.948 . S
C567 C533 1.395 . S
C567 C537 1.391 . S
C568 C530 1.389 1_554 S
C568 C550 1.392 . S
C569 C540 1.392 . S
C569 C542 1.389 . S
C570 C545 1.395 . S
C570 C547 1.391 . S
H571 C531 0.951 1_554 S
H572 C532 0.950 . S
H573 C538 0.949 . S
H574 C539 0.950 . S
H575 C543 0.951 . S
H576 C544 0.950 . S
H577 C548 0.949 . S
H578 C549 0.950 . S
H579 C553 0.950 . S
H580 C555 0.950 . S
H581 C558 0.950 . S
H582 C560 0.950 . S
C583 C584 1.443 . S
C583 N587 1.376 . S
C583 C621 1.385 . S
C584 C583 1.443 . S
C584 C585 1.340 . S
C584 H624 0.951 . S
C585 C584 1.340 . S
C585 C586 1.439 . S
C585 H625 0.950 . S
C586 C585 1.439 . S
C586 N587 1.374 . S
C586 C620 1.395 . S
N587 C583 1.376 . S
N587 C586 1.374 . S
N587 Co588 2.008 1_455 S
Co588 N587 2.008 1_655 S
Co588 N589 1.995 1_655 S
Co588 N594 2.008 . S
Co588 N599 1.995 . S
Co588 N604 2.282 1_655 S
Co588 N610 2.282 . S
N589 Co588 1.995 1_455 S
N589 C590 1.376 . S
N589 C593 1.383 . S
C590 N589 1.376 . S
C590 C591 1.446 . S
C590 C620 1.391 . S
C591 C590 1.446 . S
C591 C592 1.339 . S
C591 H626 0.949 . S
C592 C591 1.339 . S
C592 C593 1.439 . S
C592 H627 0.950 . S
C593 N589 1.383 . S
C593 C592 1.439 . S
C593 C622 1.386 1_455 S
N594 Co588 2.008 . S
N594 C595 1.376 . S
N594 C598 1.374 . S
C595 N594 1.376 . S
C595 C596 1.443 . S
C595 C622 1.395 . S
C596 C595 1.443 . S
C596 C597 1.340 . S
C596 H628 0.951 . S
C597 C596 1.340 . S
C597 C598 1.439 . S
C597 H629 0.950 . S
C598 N594 1.374 . S
C598 C597 1.439 . S
C598 C623 1.395 . S
N599 Co588 1.995 . S
N599 C600 1.376 . S
N599 C603 1.383 . S
C600 N599 1.376 . S
C600 C601 1.446 . S
C600 C623 1.391 . S
C601 C600 1.446 . S
C601 C602 1.339 . S
C601 H630 0.949 1_556 S
C602 C601 1.339 . S
C602 C603 1.439 . S
C602 H631 0.950 1_556 S
C603 N599 1.383 . S
C603 C602 1.439 . S
C603 C621 1.395 1_655 S
N604 Co588 2.282 1_455 S
N604 C607 1.332 . S
N604 C609 1.332 . S
C605 C606 1.386 . S
C605 C608 1.388 1_554 S
C606 C605 1.386 . S
C606 C607 1.382 1_554 S
C606 H632 0.950 . S
C607 N604 1.332 . S
C607 C606 1.382 1_556 S
C607 H618 0.952 1_455 S
C608 C605 1.388 1_556 S
C608 C609 1.382 . S
C608 H633 0.950 . S
C609 N604 1.332 . S
C609 C608 1.382 . S
C609 H619 0.948 . S
N610 Co588 2.282 . S
N610 C614 1.332 . S
N610 C615 1.332 . S
C611 C612 1.388 . S
C611 C615 1.382 . S
C611 H634 0.950 . S
C612 C611 1.388 . S
C612 C613 1.386 . S
C613 C612 1.386 . S
C613 C614 1.382 . S
C613 H635 0.950 . S
C614 N610 1.332 . S
C614 C613 1.382 . S
C614 H616 0.952 1_655 S
C615 N610 1.332 . S
C615 C611 1.382 . S
C615 H617 0.948 . S
H616 C614 0.952 1_455 S
H617 C615 0.948 . S
H618 C607 0.952 1_655 S
H619 C609 0.948 . S
C620 C586 1.395 . S
C620 C590 1.391 . S
C621 C583 1.385 . S
C621 C603 1.395 1_455 S
C622 C593 1.386 1_655 S
C622 C595 1.395 . S
C623 C598 1.395 . S
C623 C600 1.391 . S
H624 C584 0.951 . S
H625 C585 0.950 . S
H626 C591 0.949 . S
H627 C592 0.950 . S
H628 C596 0.951 . S
H629 C597 0.950 . S
H630 C601 0.949 1_554 S
H631 C602 0.950 1_554 S
H632 C606 0.950 . S
H633 C608 0.950 . S
H634 C611 0.950 . S
H635 C613 0.950 . S
C636 C637 1.443 . S
C636 N640 1.376 . S
C636 C674 1.389 . S
C637 C636 1.443 . S
C637 C638 1.340 . S
C637 H677 0.951 . S
C638 C637 1.340 . S
C638 C639 1.439 . S
C638 H678 0.950 . S
C639 C638 1.439 . S
C639 N640 1.374 . S
C639 C673 1.395 . S
N640 C636 1.376 . S
N640 C639 1.374 . S
N640 Co641 2.008 1_565 S
Co641 N640 2.008 1_545 S
Co641 N642 1.995 1_545 S
Co641 N647 2.008 . S
Co641 N652 1.995 . S
Co641 N657 2.282 1_545 S
Co641 N663 2.282 . S
N642 Co641 1.995 1_565 S
N642 C643 1.376 . S
N642 C646 1.383 . S
C643 N642 1.376 . S
C643 C644 1.446 . S
C643 C673 1.391 . S
C644 C643 1.446 . S
C644 C645 1.339 . S
C644 H679 0.949 . S
C645 C644 1.339 . S
C645 C646 1.439 . S
C645 H680 0.950 . S
C646 N642 1.383 . S
C646 C645 1.439 . S
C646 C675 1.392 1_565 S
N647 Co641 2.008 . S
N647 C648 1.376 . S
N647 C651 1.374 . S
C648 N647 1.376 . S
C648 C649 1.443 . S
C648 C675 1.389 . S
C649 C648 1.443 . S
C649 C650 1.340 . S
C649 H681 0.951 . S
C650 C649 1.340 . S
C650 C651 1.439 . S
C650 H682 0.950 . S
C651 N647 1.374 . S
C651 C650 1.439 . S
C651 C676 1.395 . S
N652 Co641 1.995 . S
N652 C653 1.376 . S
N652 C656 1.383 . S
C653 N652 1.376 . S
C653 C654 1.446 . S
C653 C676 1.391 . S
C654 C653 1.446 . S
C654 C655 1.339 . S
C654 H683 0.949 . S
C655 C654 1.339 . S
C655 C656 1.439 . S
C655 H684 0.950 . S
C656 N652 1.383 . S
C656 C655 1.439 . S
C656 C674 1.392 1_545 S
N657 Co641 2.282 1_565 S
N657 C660 1.332 1_565 S
N657 C662 1.332 . S
C658 C659 1.386 . S
C658 C661 1.388 . S
C659 C658 1.386 . S
C659 C660 1.382 1_565 S
C659 H685 0.950 1_565 S
C660 N657 1.332 1_545 S
C660 C659 1.382 1_545 S
C660 H671 0.952 . S
C661 C658 1.388 . S
C661 C662 1.382 . S
C661 H686 0.950 . S
C662 N657 1.332 . S
C662 C661 1.382 . S
C662 H672 0.948 . S
N663 Co641 2.282 . S
N663 C667 1.332 1_545 S
N663 C668 1.332 . S
C664 C665 1.388 . S
C664 C668 1.382 . S
C664 H687 0.950 . S
C665 C664 1.388 . S
C665 C666 1.386 . S
C666 C665 1.386 . S
C666 C667 1.382 1_545 S
C666 H688 0.950 1_545 S
C667 N663 1.332 1_565 S
C667 C666 1.382 1_565 S
C667 H669 0.952 . S
C668 N663 1.332 . S
C668 C664 1.382 . S
C668 H670 0.948 . S
H669 C667 0.952 . S
H670 C668 0.948 . S
H671 C660 0.952 . S
H672 C662 0.948 . S
C673 C639 1.395 . S
C673 C643 1.391 . S
C674 C636 1.389 . S
C674 C656 1.392 1_565 S
C675 C646 1.392 1_545 S
C675 C648 1.389 . S
C676 C651 1.395 . S
C676 C653 1.391 . S
H677 C637 0.951 . S
H678 C638 0.950 . S
H679 C644 0.949 . S
H680 C645 0.950 . S
H681 C649 0.951 . S
H682 C650 0.950 . S
H683 C654 0.949 . S
H684 C655 0.950 . S
H685 C659 0.950 1_545 S
H686 C661 0.950 . S
H687 C664 0.950 . S
H688 C666 0.950 1_565 S
C689 C690 1.443 . S
C689 N693 1.376 . S
C689 C727 1.389 . S
C690 C689 1.443 . S
C690 C691 1.340 . S
C690 H730 0.951 . S
C691 C690 1.340 . S
C691 C692 1.439 . S
C691 H731 0.950 . S
C692 C691 1.439 . S
C692 N693 1.374 . S
C692 C726 1.395 . S
N693 C689 1.376 . S
N693 C692 1.374 . S
N693 Co694 2.008 . S
Co694 N693 2.008 . S
Co694 N695 1.995 . S
Co694 N700 2.008 . S
Co694 N705 1.995 . S
Co694 N710 2.282 . S
Co694 N716 2.282 . S
N695 Co694 1.995 . S
N695 C696 1.376 . S
N695 C699 1.383 . S
C696 N695 1.376 . S
C696 C697 1.446 . S
C696 C726 1.391 . S
C697 C696 1.446 . S
C697 C698 1.339 . S
C697 H732 0.949 . S
C698 C697 1.339 . S
C698 C699 1.439 . S
C698 H733 0.950 . S
C699 N695 1.383 . S
C699 C698 1.439 . S
C699 C728 1.392 . S
N700 Co694 2.008 . S
N700 C701 1.376 . S
N700 C704 1.374 . S
C701 N700 1.376 . S
C701 C702 1.443 . S
C701 C728 1.389 . S
C702 C701 1.443 . S
C702 C703 1.340 . S
C702 H734 0.951 . S
C703 C702 1.340 . S
C703 C704 1.439 . S
C703 H735 0.950 . S
C704 N700 1.374 . S
C704 C703 1.439 . S
C704 C729 1.395 . S
N705 Co694 1.995 . S
N705 C706 1.376 . S
N705 C709 1.383 . S
C706 N705 1.376 . S
C706 C707 1.446 . S
C706 C729 1.391 . S
C707 C706 1.446 . S
C707 C708 1.339 . S
C707 H736 0.949 . S
C708 C707 1.339 . S
C708 C709 1.439 . S
C708 H737 0.950 . S
C709 N705 1.383 . S
C709 C708 1.439 . S
C709 C727 1.392 . S
N710 Co694 2.282 . S
N710 C713 1.332 . S
N710 C715 1.332 . S
C711 C712 1.386 . S
C711 C714 1.388 . S
C712 C711 1.386 . S
C712 C713 1.382 . S
C712 H738 0.950 . S
C713 N710 1.332 . S
C713 C712 1.382 . S
C713 H724 0.952 . S
C714 C711 1.388 . S
C714 C715 1.382 . S
C714 H739 0.950 . S
C715 N710 1.332 . S
C715 C714 1.382 . S
C715 H725 0.948 . S
N716 Co694 2.282 . S
N716 C720 1.332 . S
N716 C721 1.332 . S
C717 C718 1.388 . S
C717 C721 1.382 . S
C717 H740 0.950 . S
C718 C717 1.388 . S
C718 C719 1.386 . S
C719 C718 1.386 . S
C719 C720 1.382 . S
C719 H741 0.950 . S
C720 N716 1.332 . S
C720 C719 1.382 . S
C720 H722 0.952 . S
C721 N716 1.332 . S
C721 C717 1.382 . S
C721 H723 0.948 . S
H722 C720 0.952 . S
H723 C721 0.948 . S
H724 C713 0.952 . S
H725 C715 0.948 . S
C726 C692 1.395 . S
C726 C696 1.391 . S
C727 C689 1.389 . S
C727 C709 1.392 . S
C728 C699 1.392 . S
C728 C701 1.389 . S
C729 C704 1.395 . S
C729 C706 1.391 . S
H730 C690 0.951 . S
H731 C691 0.950 . S
H732 C697 0.949 . S
H733 C698 0.950 . S
H734 C702 0.951 . S
H735 C703 0.950 . S
H736 C707 0.949 . S
H737 C708 0.950 . S
H738 C712 0.950 . S
H739 C714 0.950 . S
H740 C717 0.950 . S
H741 C719 0.950 . S
C742 C743 1.443 . S
C742 N746 1.376 . S
C742 C780 1.389 . S
C743 C742 1.443 . S
C743 C744 1.340 . S
C743 H783 0.951 . S
C744 C743 1.340 . S
C744 C745 1.439 . S
C744 H784 0.950 . S
C745 C744 1.439 . S
C745 N746 1.374 . S
C745 C779 1.395 . S
N746 C742 1.376 . S
N746 C745 1.374 . S
N746 Co747 2.008 . S
Co747 N746 2.008 . S
Co747 N748 1.995 . S
Co747 N753 2.008 . S
Co747 N758 1.995 . S
Co747 N763 2.282 . S
Co747 N769 2.282 . S
N748 Co747 1.995 . S
N748 C749 1.376 . S
N748 C752 1.383 . S
C749 N748 1.376 . S
C749 C750 1.446 . S
C749 C779 1.391 . S
C750 C749 1.446 . S
C750 C751 1.339 . S
C750 H785 0.949 . S
C751 C750 1.339 . S
C751 C752 1.439 . S
C751 H786 0.950 . S
C752 N748 1.383 . S
C752 C751 1.439 . S
C752 C781 1.392 . S
N753 Co747 2.008 . S
N753 C754 1.376 . S
N753 C757 1.374 . S
C754 N753 1.376 . S
C754 C755 1.443 . S
C754 C781 1.389 . S
C755 C754 1.443 . S
C755 C756 1.340 . S
C755 H787 0.951 . S
C756 C755 1.340 . S
C756 C757 1.439 . S
C756 H788 0.950 . S
C757 N753 1.374 . S
C757 C756 1.439 . S
C757 C782 1.395 . S
N758 Co747 1.995 . S
N758 C759 1.376 . S
N758 C762 1.383 . S
C759 N758 1.376 . S
C759 C760 1.446 . S
C759 C782 1.391 . S
C760 C759 1.446 . S
C760 C761 1.339 . S
C760 H789 0.949 . S
C761 C760 1.339 . S
C761 C762 1.439 . S
C761 H790 0.950 . S
C762 N758 1.383 . S
C762 C761 1.439 . S
C762 C780 1.392 . S
N763 Co747 2.282 . S
N763 C766 1.332 . S
N763 C768 1.332 . S
C764 C765 1.386 . S
C764 C767 1.388 . S
C765 C764 1.386 . S
C765 C766 1.382 . S
C765 H791 0.950 . S
C766 N763 1.332 . S
C766 C765 1.382 . S
C766 H777 0.952 . S
C767 C764 1.388 . S
C767 C768 1.382 . S
C767 H792 0.950 . S
C768 N763 1.332 . S
C768 C767 1.382 . S
C768 H778 0.948 . S
N769 Co747 2.282 . S
N769 C773 1.332 . S
N769 C774 1.332 . S
C770 C771 1.388 . S
C770 C774 1.382 . S
C770 H793 0.950 . S
C771 C770 1.388 . S
C771 C772 1.386 . S
C772 C771 1.386 . S
C772 C773 1.382 . S
C772 H794 0.950 . S
C773 N769 1.332 . S
C773 C772 1.382 . S
C773 H775 0.952 . S
C774 N769 1.332 . S
C774 C770 1.382 . S
C774 H776 0.948 . S
H775 C773 0.952 . S
H776 C774 0.948 . S
H777 C766 0.952 . S
H778 C768 0.948 . S
C779 C745 1.395 . S
C779 C749 1.391 . S
C780 C742 1.389 . S
C780 C762 1.392 . S
C781 C752 1.392 . S
C781 C754 1.389 . S
C782 C757 1.395 . S
C782 C759 1.391 . S
H783 C743 0.951 . S
H784 C744 0.950 . S
H785 C750 0.949 . S
H786 C751 0.950 . S
H787 C755 0.951 . S
H788 C756 0.950 . S
H789 C760 0.949 . S
H790 C761 0.950 . S
H791 C765 0.950 . S
H792 C767 0.950 . S
H793 C770 0.950 . S
H794 C772 0.950 . S
C795 C796 1.443 . S
C795 N799 1.376 . S
C795 C833 1.389 . S
C796 C795 1.443 . S
C796 C797 1.340 . S
C796 H836 0.951 . S
C797 C796 1.340 . S
C797 C798 1.439 . S
C797 H837 0.950 . S
C798 C797 1.439 . S
C798 N799 1.374 . S
C798 C832 1.395 . S
N799 C795 1.376 . S
N799 C798 1.374 . S
N799 Co800 2.008 1_655 S
Co800 N799 2.008 1_455 S
Co800 N801 1.995 1_455 S
Co800 N806 2.008 . S
Co800 N811 1.995 . S
Co800 N816 2.282 1_455 S
Co800 N822 2.282 . S
N801 Co800 1.995 1_655 S
N801 C802 1.376 . S
N801 C805 1.383 . S
C802 N801 1.376 . S
C802 C803 1.446 . S
C802 C832 1.391 . S
C803 C802 1.446 . S
C803 C804 1.339 . S
C803 H838 0.949 . S
C804 C803 1.339 . S
C804 C805 1.439 . S
C804 H839 0.950 . S
C805 N801 1.383 . S
C805 C804 1.439 . S
C805 C834 1.392 1_655 S
N806 Co800 2.008 . S
N806 C807 1.376 . S
N806 C810 1.374 . S
C807 N806 1.376 . S
C807 C808 1.443 . S
C807 C834 1.389 . S
C808 C807 1.443 . S
C808 C809 1.340 . S
C808 H840 0.951 . S
C809 C808 1.340 . S
C809 C810 1.439 . S
C809 H841 0.950 . S
C810 N806 1.374 . S
C810 C809 1.439 . S
C810 C835 1.395 . S
N811 Co800 1.995 . S
N811 C812 1.376 . S
N811 C815 1.383 . S
C812 N811 1.376 . S
C812 C813 1.446 . S
C812 C835 1.391 . S
C813 C812 1.446 . S
C813 C814 1.339 . S
C813 H842 0.949 . S
C814 C813 1.339 . S
C814 C815 1.439 . S
C814 H843 0.950 . S
C815 N811 1.383 . S
C815 C814 1.439 . S
C815 C833 1.392 1_455 S
N816 Co800 2.282 1_655 S
N816 C819 1.332 . S
N816 C821 1.332 . S
C817 C818 1.386 . S
C817 C820 1.388 . S
C818 C817 1.386 . S
C818 C819 1.382 . S
C818 H844 0.948 . S
C819 N816 1.332 . S
C819 C818 1.382 . S
C819 H830 0.952 1_655 S
C820 C817 1.388 . S
C820 C821 1.382 . S
C820 H845 0.950 . S
C821 N816 1.332 . S
C821 C820 1.382 . S
C821 H831 0.948 . S
N822 Co800 2.282 . S
N822 C826 1.332 . S
N822 C827 1.332 . S
C823 C824 1.388 . S
C823 C827 1.382 . S
C823 H846 0.950 . S
C824 C823 1.388 . S
C824 C825 1.386 . S
C825 C824 1.386 . S
C825 C826 1.382 . S
C825 H847 0.955 . S
C826 N822 1.332 . S
C826 C825 1.382 . S
C826 H828 0.952 1_455 S
C827 N822 1.332 . S
C827 C823 1.382 . S
C827 H829 0.948 . S
H828 C826 0.952 1_655 S
H829 C827 0.948 . S
H830 C819 0.952 1_455 S
H831 C821 0.948 . S
C832 C798 1.395 . S
C832 C802 1.391 . S
C833 C795 1.389 . S
C833 C815 1.392 1_655 S
C834 C805 1.392 1_455 S
C834 C807 1.389 . S
C835 C810 1.395 . S
C835 C812 1.391 . S
H836 C796 0.951 . S
H837 C797 0.950 . S
H838 C803 0.949 . S
H839 C804 0.950 . S
H840 C808 0.951 . S
H841 C809 0.950 . S
H842 C813 0.949 . S
H843 C814 0.950 . S
H844 C818 0.948 . S
H845 C820 0.950 . S
H846 C823 0.950 . S
H847 C825 0.955 . S
C848 C849 1.391 . S
C848 C850 1.394 . S
C848 H864 0.931 . S
C849 C848 1.391 . S
C849 C853 1.376 . S
C850 C848 1.394 . S
C850 C851 1.369 . S
C850 C854 1.531 . S
C851 C850 1.369 . S
C851 C852 1.410 . S
C851 C859 1.503 . S
C852 C851 1.410 . S
C852 C853 1.392 . S
C852 C855 1.511 . S
C853 C849 1.376 . S
C853 C852 1.392 . S
C853 H865 0.929 . S
C854 C850 1.531 . S
C854 H866 0.960 . S
C854 H867 0.962 . S
C854 H868 0.960 . S
C855 C852 1.511 . S
C855 H869 0.961 . S
C855 H870 0.961 . S
C855 H871 0.961 . S
C856 C857 1.370 . S
C856 C858 1.363 . S
C856 H872 0.931 . S
C857 C856 1.370 . S
C857 C861 1.408 . S
C858 C856 1.363 . S
C858 C859 1.370 . S
C858 C862 1.524 . S
C859 C851 1.503 . S
C859 C858 1.370 . S
C859 C860 1.403 . S
C860 C859 1.403 . S
C860 C861 1.404 . S
C860 C863 1.539 . S
C861 C857 1.408 . S
C861 C860 1.404 . S
C861 H873 0.930 . S
C862 C858 1.524 . S
C862 H874 0.956 . S
C862 H875 0.961 . S
C862 H876 0.961 . S
C863 C860 1.539 . S
C863 H877 0.958 . S
C863 H878 0.961 . S
C863 H879 0.960 . S
H864 C848 0.931 . S
H865 C853 0.929 . S
H866 C854 0.960 . S
H867 C854 0.962 . S
H868 C854 0.960 . S
H869 C855 0.961 . S
H870 C855 0.961 . S
H871 C855 0.961 . S
H872 C856 0.931 . S
H873 C861 0.930 . S
H874 C862 0.956 . S
H875 C862 0.961 . S
H876 C862 0.961 . S
H877 C863 0.958 . S
H878 C863 0.961 . S
H879 C863 0.960 . S
C880 C881 1.391 . S
C880 C882 1.394 . S
C880 H896 0.931 . S
C881 C880 1.391 . S
C881 C885 1.376 . S
C882 C880 1.394 . S
C882 C883 1.369 . S
C882 C886 1.531 . S
C883 C882 1.369 . S
C883 C884 1.410 . S
C883 C891 1.503 . S
C884 C883 1.410 . S
C884 C885 1.392 . S
C884 C887 1.511 . S
C885 C881 1.376 . S
C885 C884 1.392 . S
C885 H897 0.929 . S
C886 C882 1.531 . S
C886 H898 0.960 . S
C886 H899 0.962 . S
C886 H900 0.960 . S
C887 C884 1.511 . S
C887 H901 0.961 . S
C887 H902 0.961 . S
C887 H903 0.961 . S
C888 C889 1.370 . S
C888 C890 1.363 . S
C888 H904 0.931 . S
C889 C888 1.370 . S
C889 C893 1.408 . S
C890 C888 1.363 . S
C890 C891 1.370 . S
C890 C894 1.524 . S
C891 C883 1.503 . S
C891 C890 1.370 . S
C891 C892 1.403 . S
C892 C891 1.403 . S
C892 C893 1.404 . S
C892 C895 1.539 . S
C893 C889 1.408 . S
C893 C892 1.404 . S
C893 H905 0.930 . S
C894 C890 1.524 . S
C894 H906 0.956 . S
C894 H907 0.961 . S
C894 H908 0.961 . S
C895 C892 1.539 . S
C895 H909 0.958 . S
C895 H910 0.961 . S
C895 H911 0.960 . S
H896 C880 0.931 . S
H897 C885 0.929 . S
H898 C886 0.960 . S
H899 C886 0.962 . S
H900 C886 0.960 . S
H901 C887 0.961 . S
H902 C887 0.961 . S
H903 C887 0.961 . S
H904 C888 0.931 . S
H905 C893 0.930 . S
H906 C894 0.956 . S
H907 C894 0.961 . S
H908 C894 0.961 . S
H909 C895 0.958 . S
H910 C895 0.961 . S
H911 C895 0.960 . S
C912 C913 1.391 . S
C912 C914 1.394 . S
C912 H928 0.931 . S
C913 C912 1.391 . S
C913 C917 1.376 . S
C914 C912 1.394 . S
C914 C915 1.369 . S
C914 C918 1.531 . S
C915 C914 1.369 . S
C915 C916 1.410 1_655 S
C915 C923 1.503 . S
C916 C915 1.410 1_455 S
C916 C917 1.392 1_455 S
C916 C919 1.511 . S
C917 C913 1.376 . S
C917 C916 1.392 1_655 S
C917 H929 0.929 1_655 S
C918 C914 1.531 . S
C918 H930 0.960 . S
C918 H931 0.962 . S
C918 H932 0.960 . S
C919 C916 1.511 . S
C919 H933 0.961 . S
C919 H934 0.961 . S
C919 H935 0.961 . S
C920 C921 1.370 . S
C920 C922 1.363 . S
C920 H936 0.931 . S
C921 C920 1.370 . S
C921 C925 1.408 1_655 S
C922 C920 1.363 . S
C922 C923 1.370 . S
C922 C926 1.524 . S
C923 C915 1.503 . S
C923 C922 1.370 . S
C923 C924 1.390 1_655 S
C924 C923 1.390 1_455 S
C924 C925 1.405 . S
C924 C927 1.552 . S
C925 C921 1.408 1_455 S
C925 C924 1.405 . S
C925 H937 0.930 . S
C926 C922 1.524 . S
C926 H938 0.956 . S
C926 H939 0.961 . S
C926 H940 0.961 . S
C927 C924 1.552 . S
C927 H941 0.958 . S
C927 H942 0.961 . S
C927 H943 0.960 . S
H928 C912 0.931 . S
H929 C917 0.929 1_455 S
H930 C918 0.960 . S
H931 C918 0.962 . S
H932 C918 0.960 . S
H933 C919 0.961 . S
H934 C919 0.961 . S
H935 C919 0.961 . S
H936 C920 0.931 . S
H937 C925 0.930 . S
H938 C926 0.956 . S
H939 C926 0.961 . S
H940 C926 0.961 . S
H941 C927 0.958 . S
H942 C927 0.961 . S
H943 C927 0.960 . S
C944 C945 1.391 . S
C944 C946 1.394 . S
C944 H960 0.931 . S
C945 C944 1.391 . S
C945 C949 1.376 1_455 S
C946 C944 1.394 . S
C946 C947 1.369 . S
C946 C950 1.531 . S
C947 C946 1.369 . S
C947 C948 1.410 1_455 S
C947 C955 1.503 . S
C948 C947 1.410 1_655 S
C948 C949 1.392 . S
C948 C951 1.511 . S
C949 C945 1.376 1_655 S
C949 C948 1.392 . S
C949 H961 0.929 . S
C950 C946 1.531 . S
C950 H962 0.960 . S
C950 H963 0.962 . S
C950 H964 0.960 . S
C951 C948 1.511 . S
C951 H965 0.961 . S
C951 H966 0.961 . S
C951 H967 0.961 . S
C952 C953 1.370 . S
C952 C954 1.363 . S
C952 H968 0.931 . S
C953 C952 1.370 . S
C953 C957 1.408 . S
C954 C952 1.363 . S
C954 C955 1.370 . S
C954 C958 1.524 . S
C955 C947 1.503 . S
C955 C954 1.370 . S
C955 C956 1.403 . S
C956 C955 1.403 . S
C956 C957 1.404 . S
C956 C959 1.539 1_455 S
C957 C953 1.408 . S
C957 C956 1.404 . S
C957 H969 0.930 . S
C958 C954 1.524 . S
C958 H970 0.956 . S
C958 H971 0.961 . S
C958 H972 0.961 . S
C959 C956 1.539 1_655 S
C959 H973 0.936 1_655 S
C959 H974 0.961 . S
C959 H975 0.960 . S
H960 C944 0.931 . S
H961 C949 0.929 . S
H962 C950 0.960 . S
H963 C950 0.962 . S
H964 C950 0.960 . S
H965 C951 0.961 . S
H966 C951 0.961 . S
H967 C951 0.961 . S
H968 C952 0.931 . S
H969 C957 0.930 . S
H970 C958 0.956 . S
H971 C958 0.961 . S
H972 C958 0.961 . S
H973 C959 0.936 1_455 S
H974 C959 0.961 . S
H975 C959 0.960 . S
C976 C977 1.391 . S
C976 C978 1.394 . S
C976 H992 0.931 1_565 S
C977 C976 1.391 . S
C977 C981 1.376 . S
C978 C976 1.394 . S
C978 C979 1.369 . S
C978 C982 1.531 1_565 S
C979 C978 1.369 . S
C979 C980 1.410 . S
C979 C987 1.503 . S
C980 C979 1.410 . S
C980 C981 1.392 . S
C980 C983 1.511 . S
C981 C977 1.376 . S
C981 C980 1.392 . S
C981 H993 0.929 . S
C982 C978 1.531 1_545 S
C982 H994 0.960 . S
C982 H995 0.962 . S
C982 H996 0.960 . S
C983 C980 1.511 . S
C983 H997 0.961 . S
C983 H998 0.961 . S
C983 H999 0.961 . S
C984 C985 1.370 . S
C984 C986 1.363 . S
C984 H1000 0.931 . S
C985 C984 1.370 . S
C985 C989 1.408 . S
C986 C984 1.363 . S
C986 C987 1.370 . S
C986 C990 1.524 . S
C987 C979 1.503 . S
C987 C986 1.370 . S
C987 C988 1.403 . S
C988 C987 1.403 . S
C988 C989 1.404 . S
C988 C991 1.539 . S
C989 C985 1.408 . S
C989 C988 1.404 . S
C989 H1001 0.930 . S
C990 C986 1.524 . S
C990 H1002 0.956 . S
C990 H1003 0.961 . S
C990 H1004 0.961 . S
C991 C988 1.539 . S
C991 H1005 0.958 . S
C991 H1006 0.961 . S
C991 H1007 0.960 . S
H992 C976 0.931 1_545 S
H993 C981 0.929 . S
H994 C982 0.960 . S
H995 C982 0.962 . S
H996 C982 0.960 . S
H997 C983 0.961 . S
H998 C983 0.961 . S
H999 C983 0.961 . S
H1000 C984 0.931 . S
H1001 C989 0.930 . S
H1002 C990 0.956 . S
H1003 C990 0.961 . S
H1004 C990 0.961 . S
H1005 C991 0.958 . S
H1006 C991 0.961 . S
H1007 C991 0.960 . S
C1008 C1009 1.391 . S
C1008 C1010 1.394 . S
C1008 H1024 0.931 . S
C1009 C1008 1.391 . S
C1009 C1013 1.376 . S
C1010 C1008 1.394 . S
C1010 C1011 1.369 . S
C1010 C1014 1.531 . S
C1011 C1010 1.369 . S
C1011 C1012 1.410 . S
C1011 C1019 1.503 . S
C1012 C1011 1.410 . S
C1012 C1013 1.392 . S
C1012 C1015 1.511 . S
C1013 C1009 1.376 . S
C1013 C1012 1.392 . S
C1013 H1025 0.929 . S
C1014 C1010 1.531 . S
C1014 H1026 0.960 . S
C1014 H1027 0.962 . S
C1014 H1028 0.960 . S
C1015 C1012 1.511 . S
C1015 H1029 0.961 . S
C1015 H1030 0.961 . S
C1015 H1031 0.961 . S
C1016 C1017 1.370 . S
C1016 C1018 1.363 . S
C1016 H1032 0.931 . S
C1017 C1016 1.370 . S
C1017 C1021 1.408 . S
C1018 C1016 1.363 . S
C1018 C1019 1.370 . S
C1018 C1022 1.524 . S
C1019 C1011 1.503 . S
C1019 C1018 1.370 . S
C1019 C1020 1.403 . S
C1020 C1019 1.403 . S
C1020 C1021 1.404 . S
C1020 C1023 1.539 . S
C1021 C1017 1.408 . S
C1021 C1020 1.404 . S
C1021 H1033 0.930 . S
C1022 C1018 1.524 . S
C1022 H1034 0.956 . S
C1022 H1035 0.961 . S
C1022 H1036 0.961 . S
C1023 C1020 1.539 . S
C1023 H1037 0.958 . S
C1023 H1038 0.961 . S
C1023 H1039 0.960 . S
H1024 C1008 0.931 . S
H1025 C1013 0.929 . S
H1026 C1014 0.960 . S
H1027 C1014 0.962 . S
H1028 C1014 0.960 . S
H1029 C1015 0.961 . S
H1030 C1015 0.961 . S
H1031 C1015 0.961 . S
H1032 C1016 0.931 . S
H1033 C1021 0.930 . S
H1034 C1022 0.956 . S
H1035 C1022 0.961 . S
H1036 C1022 0.961 . S
H1037 C1023 0.958 . S
H1038 C1023 0.961 . S
H1039 C1023 0.960 . S
C1040 C1041 1.391 . S
C1040 C1042 1.394 . S
C1040 H1056 0.931 . S
C1041 C1040 1.391 . S
C1041 C1045 1.376 . S
C1042 C1040 1.394 . S
C1042 C1043 1.369 . S
C1042 C1046 1.531 . S
C1043 C1042 1.369 . S
C1043 C1044 1.410 . S
C1043 C1051 1.503 . S
C1044 C1043 1.410 . S
C1044 C1045 1.392 . S
C1044 C1047 1.511 . S
C1045 C1041 1.376 . S
C1045 C1044 1.392 . S
C1045 H1057 0.929 . S
C1046 C1042 1.531 . S
C1046 H1058 0.960 . S
C1046 H1059 0.962 . S
C1046 H1060 0.960 . S
C1047 C1044 1.511 . S
C1047 H1061 0.961 . S
C1047 H1062 0.961 . S
C1047 H1063 0.961 . S
C1048 C1049 1.370 . S
C1048 C1050 1.363 . S
C1048 H1064 0.931 . S
C1049 C1048 1.370 . S
C1049 C1053 1.408 . S
C1050 C1048 1.363 . S
C1050 C1051 1.370 . S
C1050 C1054 1.524 . S
C1051 C1043 1.503 . S
C1051 C1050 1.370 . S
C1051 C1052 1.403 . S
C1052 C1051 1.403 . S
C1052 C1053 1.404 . S
C1052 C1055 1.539 . S
C1053 C1049 1.408 . S
C1053 C1052 1.404 . S
C1053 H1065 0.930 . S
C1054 C1050 1.524 . S
C1054 H1066 0.956 . S
C1054 H1067 0.961 . S
C1054 H1068 0.961 . S
C1055 C1052 1.539 . S
C1055 H1069 0.958 . S
C1055 H1070 0.961 . S
C1055 H1071 0.960 . S
H1056 C1040 0.931 . S
H1057 C1045 0.929 . S
H1058 C1046 0.960 . S
H1059 C1046 0.962 . S
H1060 C1046 0.960 . S
H1061 C1047 0.961 . S
H1062 C1047 0.961 . S
H1063 C1047 0.961 . S
H1064 C1048 0.931 . S
H1065 C1053 0.930 . S
H1066 C1054 0.956 . S
H1067 C1054 0.961 . S
H1068 C1054 0.961 . S
H1069 C1055 0.958 . S
H1070 C1055 0.961 . S
H1071 C1055 0.960 . S
C1072 C1073 1.391 . S
C1072 C1074 1.394 . S
C1072 H1088 0.931 . S
C1073 C1072 1.391 . S
C1073 C1077 1.376 . S
C1074 C1072 1.394 . S
C1074 C1075 1.369 . S
C1074 C1078 1.531 . S
C1075 C1074 1.369 . S
C1075 C1076 1.410 . S
C1075 C1083 1.503 . S
C1076 C1075 1.410 . S
C1076 C1077 1.392 . S
C1076 C1079 1.511 . S
C1077 C1073 1.376 . S
C1077 C1076 1.392 . S
C1077 H1089 0.929 . S
C1078 C1074 1.531 . S
C1078 H1090 0.960 . S
C1078 H1091 0.962 . S
C1078 H1092 0.960 . S
C1079 C1076 1.511 . S
C1079 H1093 0.961 . S
C1079 H1094 0.961 . S
C1079 H1095 0.961 . S
C1080 C1081 1.370 . S
C1080 C1082 1.363 . S
C1080 H1096 0.931 . S
C1081 C1080 1.370 . S
C1081 C1085 1.408 . S
C1082 C1080 1.363 . S
C1082 C1083 1.370 . S
C1082 C1086 1.524 . S
C1083 C1075 1.503 . S
C1083 C1082 1.370 . S
C1083 C1084 1.403 . S
C1084 C1083 1.403 . S
C1084 C1085 1.404 . S
C1084 C1087 1.539 . S
C1085 C1081 1.408 . S
C1085 C1084 1.404 . S
C1085 H1097 0.930 1_545 S
C1086 C1082 1.524 . S
C1086 H1098 0.956 . S
C1086 H1099 0.961 . S
C1086 H1100 0.961 . S
C1087 C1084 1.539 . S
C1087 H1101 0.958 . S
C1087 H1102 0.961 1_545 S
C1087 H1103 0.960 . S
H1088 C1072 0.931 . S
H1089 C1077 0.929 . S
H1090 C1078 0.960 . S
H1091 C1078 0.962 . S
H1092 C1078 0.960 . S
H1093 C1079 0.961 . S
H1094 C1079 0.961 . S
H1095 C1079 0.961 . S
H1096 C1080 0.931 . S
H1097 C1085 0.930 1_565 S
H1098 C1086 0.956 . S
H1099 C1086 0.961 . S
H1100 C1086 0.961 . S
H1101 C1087 0.958 . S
H1102 C1087 0.961 1_565 S
H1103 C1087 0.960 . S
C1104 C1105 1.391 . S
C1104 C1106 1.394 . S
C1104 H1120 0.931 . S
C1105 C1104 1.391 . S
C1105 C1109 1.376 . S
C1106 C1104 1.394 . S
C1106 C1107 1.369 . S
C1106 C1110 1.531 1_565 S
C1107 C1106 1.369 . S
C1107 C1108 1.410 . S
C1107 C1115 1.503 . S
C1108 C1107 1.410 . S
C1108 C1109 1.392 . S
C1108 C1111 1.511 . S
C1109 C1105 1.376 . S
C1109 C1108 1.392 . S
C1109 H1121 0.929 . S
C1110 C1106 1.531 1_545 S
C1110 H1122 0.960 . S
C1110 H1123 0.962 . S
C1110 H1124 0.960 . S
C1111 C1108 1.511 . S
C1111 H1125 0.961 . S
C1111 H1126 0.961 . S
C1111 H1127 0.961 . S
C1112 C1113 1.370 1_545 S
C1112 C1114 1.363 1_545 S
C1112 H1128 0.931 . S
C1113 C1112 1.370 1_565 S
C1113 C1117 1.408 . S
C1114 C1112 1.363 1_565 S
C1114 C1115 1.370 . S
C1114 C1118 1.524 1_565 S
C1115 C1107 1.503 . S
C1115 C1114 1.370 . S
C1115 C1116 1.403 . S
C1116 C1115 1.403 . S
C1116 C1117 1.404 . S
C1116 C1119 1.539 . S
C1117 C1113 1.408 . S
C1117 C1116 1.404 . S
C1117 H1129 0.930 . S
C1118 C1114 1.524 1_545 S
C1118 H1130 0.956 . S
C1118 H1131 0.961 1_545 S
C1118 H1132 0.961 . S
C1119 C1116 1.539 . S
C1119 H1133 0.958 . S
C1119 H1134 0.961 . S
C1119 H1135 0.960 . S
H1120 C1104 0.931 . S
H1121 C1109 0.929 . S
H1122 C1110 0.960 . S
H1123 C1110 0.962 . S
H1124 C1110 0.960 . S
H1125 C1111 0.961 . S
H1126 C1111 0.961 . S
H1127 C1111 0.961 . S
H1128 C1112 0.931 . S
H1129 C1117 0.930 . S
H1130 C1118 0.956 . S
H1131 C1118 0.961 1_565 S
H1132 C1118 0.961 . S
H1133 C1119 0.958 . S
H1134 C1119 0.961 . S
H1135 C1119 0.960 . S
C1136 C1137 1.391 . S
C1136 C1138 1.394 . S
C1136 H1152 0.931 . S
C1137 C1136 1.391 . S
C1137 C1141 1.376 . S
C1138 C1136 1.394 . S
C1138 C1139 1.369 . S
C1138 C1142 1.531 . S
C1139 C1138 1.369 . S
C1139 C1140 1.410 . S
C1139 C1147 1.503 . S
C1140 C1139 1.410 . S
C1140 C1141 1.392 . S
C1140 C1143 1.511 . S
C1141 C1137 1.376 . S
C1141 C1140 1.392 . S
C1141 H1153 0.929 . S
C1142 C1138 1.531 . S
C1142 H1154 0.960 . S
C1142 H1155 0.962 . S
C1142 H1156 0.960 . S
C1143 C1140 1.511 . S
C1143 H1157 0.961 . S
C1143 H1158 0.961 . S
C1143 H1159 0.961 . S
C1144 C1145 1.370 . S
C1144 C1146 1.363 . S
C1144 H1160 0.931 . S
C1145 C1144 1.370 . S
C1145 C1149 1.408 . S
C1146 C1144 1.363 . S
C1146 C1147 1.370 . S
C1146 C1150 1.524 . S
C1147 C1139 1.503 . S
C1147 C1146 1.370 . S
C1147 C1148 1.403 . S
C1148 C1147 1.403 . S
C1148 C1149 1.404 . S
C1148 C1151 1.539 . S
C1149 C1145 1.408 . S
C1149 C1148 1.404 . S
C1149 H1161 0.930 . S
C1150 C1146 1.524 . S
C1150 H1162 0.956 . S
C1150 H1163 0.961 . S
C1150 H1164 0.961 . S
C1151 C1148 1.539 . S
C1151 H1165 0.958 . S
C1151 H1166 0.961 . S
C1151 H1167 0.960 . S
H1152 C1136 0.931 . S
H1153 C1141 0.929 . S
H1154 C1142 0.960 . S
H1155 C1142 0.962 . S
H1156 C1142 0.960 . S
H1157 C1143 0.961 . S
H1158 C1143 0.961 . S
H1159 C1143 0.961 . S
H1160 C1144 0.931 . S
H1161 C1149 0.930 . S
H1162 C1150 0.956 . S
H1163 C1150 0.961 . S
H1164 C1150 0.961 . S
H1165 C1151 0.958 . S
H1166 C1151 0.961 . S
H1167 C1151 0.960 . S
C1168 C1169 1.391 . S
C1168 C1170 1.394 . S
C1168 H1184 0.931 . S
C1169 C1168 1.391 . S
C1169 C1173 1.376 . S
C1170 C1168 1.394 . S
C1170 C1171 1.369 . S
C1170 C1174 1.531 . S
C1171 C1170 1.369 . S
C1171 C1172 1.410 . S
C1171 C1179 1.503 . S
C1172 C1171 1.410 . S
C1172 C1173 1.392 . S
C1172 C1175 1.511 . S
C1173 C1169 1.376 . S
C1173 C1172 1.392 . S
C1173 H1185 0.929 . S
C1174 C1170 1.531 . S
C1174 H1186 0.960 . S
C1174 H1187 0.962 . S
C1174 H1188 0.960 . S
C1175 C1172 1.511 . S
C1175 H1189 0.961 . S
C1175 H1190 0.961 . S
C1175 H1191 0.961 . S
C1176 C1177 1.370 . S
C1176 C1178 1.363 . S
C1176 H1192 0.931 . S
C1177 C1176 1.370 . S
C1177 C1181 1.408 . S
C1178 C1176 1.363 . S
C1178 C1179 1.370 . S
C1178 C1182 1.524 . S
C1179 C1171 1.503 . S
C1179 C1178 1.370 . S
C1179 C1180 1.403 . S
C1180 C1179 1.403 . S
C1180 C1181 1.404 . S
C1180 C1183 1.539 . S
C1181 C1177 1.408 . S
C1181 C1180 1.404 . S
C1181 H1193 0.930 . S
C1182 C1178 1.524 . S
C1182 H1194 0.956 . S
C1182 H1195 0.961 . S
C1182 H1196 0.961 . S
C1183 C1180 1.539 . S
C1183 H1197 0.958 . S
C1183 H1198 0.961 . S
C1183 H1199 0.960 . S
H1184 C1168 0.931 . S
H1185 C1173 0.929 . S
H1186 C1174 0.960 . S
H1187 C1174 0.962 . S
H1188 C1174 0.960 . S
H1189 C1175 0.961 . S
H1190 C1175 0.961 . S
H1191 C1175 0.961 . S
H1192 C1176 0.931 . S
H1193 C1181 0.930 . S
H1194 C1182 0.956 . S
H1195 C1182 0.961 . S
H1196 C1182 0.961 . S
H1197 C1183 0.958 . S
H1198 C1183 0.961 . S
H1199 C1183 0.960 . S
C1200 C1201 1.391 . S
C1200 C1202 1.394 . S
C1200 H1216 0.931 1_655 S
C1201 C1200 1.391 . S
C1201 C1205 1.376 . S
C1202 C1200 1.394 . S
C1202 C1203 1.393 . S
C1202 C1206 1.508 1_655 S
C1203 C1202 1.393 . S
C1203 C1204 1.410 . S
C1203 C1211 1.503 . S
C1204 C1203 1.410 . S
C1204 C1205 1.392 . S
C1204 C1207 1.511 . S
C1205 C1201 1.376 . S
C1205 C1204 1.392 . S
C1205 H1217 0.929 . S
C1206 C1202 1.508 1_455 S
C1206 H1218 0.960 . S
C1206 H1219 0.962 . S
C1206 H1220 0.960 . S
C1207 C1204 1.511 . S
C1207 H1221 0.961 . S
C1207 H1222 0.961 . S
C1207 H1223 0.961 . S
C1208 C1209 1.370 1_455 S
C1208 C1210 1.363 . S
C1208 H1224 0.931 . S
C1209 C1208 1.370 1_655 S
C1209 C1213 1.408 . S
C1210 C1208 1.363 . S
C1210 C1211 1.370 1_455 S
C1210 C1214 1.524 . S
C1211 C1203 1.503 . S
C1211 C1210 1.370 1_655 S
C1211 C1212 1.403 . S
C1212 C1211 1.403 . S
C1212 C1213 1.404 . S
C1212 C1215 1.539 . S
C1213 C1209 1.408 . S
C1213 C1212 1.404 . S
C1213 H1225 0.930 . S
C1214 C1210 1.524 . S
C1214 H1226 0.956 . S
C1214 H1227 0.961 . S
C1214 H1228 0.961 . S
C1215 C1212 1.539 . S
C1215 H1229 0.958 . S
C1215 H1230 0.961 . S
C1215 H1231 0.960 . S
H1216 C1200 0.931 1_455 S
H1217 C1205 0.929 . S
H1218 C1206 0.960 . S
H1219 C1206 0.962 . S
H1220 C1206 0.960 . S
H1221 C1207 0.961 . S
H1222 C1207 0.961 . S
H1223 C1207 0.961 . S
H1224 C1208 0.931 . S
H1225 C1213 0.930 . S
H1226 C1214 0.956 . S
H1227 C1214 0.961 . S
H1228 C1214 0.961 . S
H1229 C1215 0.958 . S
H1230 C1215 0.961 . S
H1231 C1215 0.960 . S
C1232 C1233 1.391 . S
C1232 C1234 1.394 . S
C1232 H1248 0.931 . S
C1233 C1232 1.391 . S
C1233 C1237 1.376 . S
C1234 C1232 1.394 . S
C1234 C1235 1.369 . S
C1234 C1238 1.531 . S
C1235 C1234 1.369 . S
C1235 C1236 1.410 . S
C1235 C1243 1.503 . S
C1236 C1235 1.410 . S
C1236 C1237 1.392 . S
C1236 C1239 1.511 1_545 S
C1237 C1233 1.376 . S
C1237 C1236 1.392 . S
C1237 H1249 0.929 1_545 S
C1238 C1234 1.531 . S
C1238 H1250 0.960 . S
C1238 H1251 0.962 . S
C1238 H1252 0.960 . S
C1239 C1236 1.511 1_565 S
C1239 H1253 0.961 . S
C1239 H1254 0.961 . S
C1239 H1255 0.961 . S
C1240 C1241 1.373 . S
C1240 C1242 1.365 . S
C1240 H1256 0.926 1_545 S
C1241 C1240 1.373 . S
C1241 C1245 1.408 . S
C1242 C1240 1.365 . S
C1242 C1243 1.370 . S
C1242 C1246 1.518 1_545 S
C1243 C1235 1.503 . S
C1243 C1242 1.370 . S
C1243 C1244 1.403 . S
C1244 C1243 1.403 . S
C1244 C1245 1.404 . S
C1244 C1247 1.539 . S
C1245 C1241 1.408 . S
C1245 C1244 1.404 . S
C1245 H1257 0.930 . S
C1246 C1242 1.518 1_565 S
C1246 H1258 0.935 1_565 S
C1246 H1259 0.976 . S
C1246 H1260 0.974 . S
C1247 C1244 1.539 . S
C1247 H1261 0.958 . S
C1247 H1262 0.961 . S
C1247 H1263 0.960 . S
H1248 C1232 0.931 . S
H1249 C1237 0.929 1_565 S
H1250 C1238 0.960 . S
H1251 C1238 0.962 . S
H1252 C1238 0.960 . S
H1253 C1239 0.961 . S
H1254 C1239 0.961 . S
H1255 C1239 0.961 . S
H1256 C1240 0.926 1_565 S
H1257 C1245 0.930 . S
H1258 C1246 0.935 1_545 S
H1259 C1246 0.976 . S
H1260 C1246 0.974 . S
H1261 C1247 0.958 . S
H1262 C1247 0.961 . S
H1263 C1247 0.960 . S
C1264 C1265 1.391 . S
C1264 C1266 1.394 . S
C1264 H1280 0.931 . S
C1265 C1264 1.391 . S
C1265 C1269 1.376 . S
C1266 C1264 1.394 . S
C1266 C1267 1.369 . S
C1266 C1270 1.531 . S
C1267 C1266 1.369 . S
C1267 C1268 1.410 . S
C1267 C1275 1.503 . S
C1268 C1267 1.410 . S
C1268 C1269 1.392 . S
C1268 C1271 1.511 . S
C1269 C1265 1.376 . S
C1269 C1268 1.392 . S
C1269 H1281 0.929 . S
C1270 C1266 1.531 . S
C1270 H1282 0.960 . S
C1270 H1283 0.962 . S
C1270 H1284 0.960 . S
C1271 C1268 1.511 . S
C1271 H1285 0.961 . S
C1271 H1286 0.961 . S
C1271 H1287 0.961 . S
C1272 C1273 1.370 . S
C1272 C1274 1.363 . S
C1272 H1288 0.931 . S
C1273 C1272 1.370 . S
C1273 C1277 1.408 . S
C1274 C1272 1.363 . S
C1274 C1275 1.370 . S
C1274 C1278 1.524 . S
C1275 C1267 1.503 . S
C1275 C1274 1.370 . S
C1275 C1276 1.403 . S
C1276 C1275 1.403 . S
C1276 C1277 1.404 . S
C1276 C1279 1.539 . S
C1277 C1273 1.408 . S
C1277 C1276 1.404 . S
C1277 H1289 0.930 . S
C1278 C1274 1.524 . S
C1278 H1290 0.956 . S
C1278 H1291 0.961 . S
C1278 H1292 0.961 . S
C1279 C1276 1.539 . S
C1279 H1293 0.958 . S
C1279 H1294 0.961 . S
C1279 H1295 0.960 . S
H1280 C1264 0.931 . S
H1281 C1269 0.929 . S
H1282 C1270 0.960 . S
H1283 C1270 0.962 . S
H1284 C1270 0.960 . S
H1285 C1271 0.961 . S
H1286 C1271 0.961 . S
H1287 C1271 0.961 . S
H1288 C1272 0.931 . S
H1289 C1277 0.930 . S
H1290 C1278 0.956 . S
H1291 C1278 0.961 . S
H1292 C1278 0.961 . S
H1293 C1279 0.958 . S
H1294 C1279 0.961 . S
H1295 C1279 0.960 . S
C1296 C1297 1.391 . S
C1296 C1298 1.394 . S
C1296 H1312 0.931 . S
C1297 C1296 1.391 . S
C1297 C1301 1.376 . S
C1298 C1296 1.394 . S
C1298 C1299 1.369 . S
C1298 C1302 1.531 . S
C1299 C1298 1.369 . S
C1299 C1300 1.410 . S
C1299 C1307 1.503 . S
C1300 C1299 1.410 . S
C1300 C1301 1.392 . S
C1300 C1303 1.511 . S
C1301 C1297 1.376 . S
C1301 C1300 1.392 . S
C1301 H1313 0.929 . S
C1302 C1298 1.531 . S
C1302 H1314 0.960 . S
C1302 H1315 0.962 . S
C1302 H1316 0.960 . S
C1303 C1300 1.511 . S
C1303 H1317 0.961 . S
C1303 H1318 0.961 . S
C1303 H1319 0.961 . S
C1304 C1305 1.370 . S
C1304 C1306 1.363 . S
C1304 H1320 0.931 . S
C1305 C1304 1.370 . S
C1305 C1309 1.408 . S
C1306 C1304 1.363 . S
C1306 C1307 1.370 . S
C1306 C1310 1.524 . S
C1307 C1299 1.503 . S
C1307 C1306 1.370 . S
C1307 C1308 1.403 . S
C1308 C1307 1.403 . S
C1308 C1309 1.404 . S
C1308 C1311 1.539 . S
C1309 C1305 1.408 . S
C1309 C1308 1.404 . S
C1309 H1321 0.930 . S
C1310 C1306 1.524 . S
C1310 H1322 0.956 . S
C1310 H1323 0.961 . S
C1310 H1324 0.961 . S
C1311 C1308 1.539 . S
C1311 H1325 0.958 . S
C1311 H1326 0.961 . S
C1311 H1327 0.960 . S
H1312 C1296 0.931 . S
H1313 C1301 0.929 . S
H1314 C1302 0.960 . S
H1315 C1302 0.962 . S
H1316 C1302 0.960 . S
H1317 C1303 0.961 . S
H1318 C1303 0.961 . S
H1319 C1303 0.961 . S
H1320 C1304 0.931 . S
H1321 C1309 0.930 . S
H1322 C1310 0.956 . S
H1323 C1310 0.961 . S
H1324 C1310 0.961 . S
H1325 C1311 0.958 . S
H1326 C1311 0.961 . S
H1327 C1311 0.960 . S
C1328 C1329 1.391 1_655 S
C1328 C1330 1.394 . S
C1328 H1344 0.931 . S
C1329 C1328 1.391 1_455 S
C1329 C1333 1.376 . S
C1330 C1328 1.394 . S
C1330 C1331 1.369 1_655 S
C1330 C1334 1.531 . S
C1331 C1330 1.369 1_455 S
C1331 C1332 1.410 . S
C1331 C1339 1.503 . S
C1332 C1331 1.410 . S
C1332 C1333 1.392 . S
C1332 C1335 1.511 . S
C1333 C1329 1.376 . S
C1333 C1332 1.392 . S
C1333 H1345 0.929 . S
C1334 C1330 1.531 . S
C1334 H1346 0.960 . S
C1334 H1347 0.962 . S
C1334 H1348 0.960 . S
C1335 C1332 1.511 . S
C1335 H1349 0.961 . S
C1335 H1350 0.961 . S
C1335 H1351 0.961 . S
C1336 C1337 1.370 1_655 S
C1336 C1338 1.363 1_655 S
C1336 H1352 0.931 . S
C1337 C1336 1.370 1_455 S
C1337 C1341 1.408 . S
C1338 C1336 1.363 1_455 S
C1338 C1339 1.370 . S
C1338 C1342 1.525 . S
C1339 C1331 1.503 . S
C1339 C1338 1.370 . S
C1339 C1340 1.403 . S
C1340 C1339 1.403 . S
C1340 C1341 1.404 . S
C1340 C1343 1.539 . S
C1341 C1337 1.408 . S
C1341 C1340 1.404 . S
C1341 H1353 0.930 . S
C1342 C1338 1.525 . S
C1342 H1354 0.940 1_455 S
C1342 H1355 0.975 . S
C1342 H1356 0.961 . S
C1343 C1340 1.539 . S
C1343 H1357 0.958 1_455 S
C1343 H1358 0.961 . S
C1343 H1359 0.960 . S
H1344 C1328 0.931 . S
H1345 C1333 0.929 . S
H1346 C1334 0.960 . S
H1347 C1334 0.962 . S
H1348 C1334 0.960 . S
H1349 C1335 0.961 . S
H1350 C1335 0.961 . S
H1351 C1335 0.961 . S
H1352 C1336 0.931 . S
H1353 C1341 0.930 . S
H1354 C1342 0.940 1_655 S
H1355 C1342 0.975 . S
H1356 C1342 0.961 . S
H1357 C1343 0.958 1_655 S
H1358 C1343 0.961 . S
H1359 C1343 0.960 . S
C1360 C1361 1.391 . S
C1360 C1362 1.394 . S
C1360 H1376 0.931 . S
C1361 C1360 1.391 . S
C1361 C1365 1.379 . S
C1362 C1360 1.394 . S
C1362 C1363 1.369 . S
C1362 C1366 1.531 . S
C1363 C1362 1.369 . S
C1363 C1364 1.410 . S
C1363 C1371 1.503 . S
C1364 C1363 1.410 . S
C1364 C1365 1.395 . S
C1364 C1367 1.501 1_545 S
C1365 C1361 1.379 . S
C1365 C1364 1.395 . S
C1365 H1377 0.923 1_545 S
C1366 C1362 1.531 . S
C1366 H1378 0.960 . S
C1366 H1379 0.962 . S
C1366 H1380 0.960 . S
C1367 C1364 1.501 1_565 S
C1367 H1381 1.001 . S
C1367 H1382 0.978 . S
C1367 H1383 0.917 1_565 S
C1368 C1369 1.381 . S
C1368 C1370 1.362 1_545 S
C1368 H1384 0.921 1_545 S
C1369 C1368 1.381 . S
C1369 C1373 1.408 . S
C1370 C1368 1.362 1_565 S
C1370 C1371 1.370 1_565 S
C1370 C1374 1.524 . S
C1371 C1363 1.503 . S
C1371 C1370 1.370 1_545 S
C1371 C1372 1.403 . S
C1372 C1371 1.403 . S
C1372 C1373 1.404 . S
C1372 C1375 1.539 . S
C1373 C1369 1.408 . S
C1373 C1372 1.404 . S
C1373 H1385 0.930 . S
C1374 C1370 1.524 . S
C1374 H1386 0.956 . S
C1374 H1387 0.961 . S
C1374 H1388 0.961 . S
C1375 C1372 1.539 . S
C1375 H1389 0.958 . S
C1375 H1390 0.961 . S
C1375 H1391 0.960 . S
H1376 C1360 0.931 . S
H1377 C1365 0.923 1_565 S
H1378 C1366 0.960 . S
H1379 C1366 0.962 . S
H1380 C1366 0.960 . S
H1381 C1367 1.001 . S
H1382 C1367 0.978 . S
H1383 C1367 0.917 1_545 S
H1384 C1368 0.921 1_565 S
H1385 C1373 0.930 . S
H1386 C1374 0.956 . S
H1387 C1374 0.961 . S
H1388 C1374 0.961 . S
H1389 C1375 0.958 . S
H1390 C1375 0.961 . S
H1391 C1375 0.960 . S
C1392 C1393 1.391 . S
C1392 C1394 1.394 . S
C1392 H1408 0.931 . S
C1393 C1392 1.391 . S
C1393 C1397 1.376 . S
C1394 C1392 1.394 . S
C1394 C1395 1.369 . S
C1394 C1398 1.531 . S
C1395 C1394 1.369 . S
C1395 C1396 1.410 . S
C1395 C1403 1.503 . S
C1396 C1395 1.410 . S
C1396 C1397 1.392 . S
C1396 C1399 1.511 . S
C1397 C1393 1.376 . S
C1397 C1396 1.392 . S
C1397 H1409 0.929 . S
C1398 C1394 1.531 . S
C1398 H1410 0.960 . S
C1398 H1411 0.962 . S
C1398 H1412 0.960 . S
C1399 C1396 1.511 . S
C1399 H1413 0.961 . S
C1399 H1414 0.961 . S
C1399 H1415 0.961 . S
C1400 C1401 1.370 . S
C1400 C1402 1.363 . S
C1400 H1416 0.931 . S
C1401 C1400 1.370 . S
C1401 C1405 1.408 . S
C1402 C1400 1.363 . S
C1402 C1403 1.370 . S
C1402 C1406 1.524 . S
C1403 C1395 1.503 . S
C1403 C1402 1.370 . S
C1403 C1404 1.403 . S
C1404 C1403 1.403 . S
C1404 C1405 1.404 . S
C1404 C1407 1.539 . S
C1405 C1401 1.408 . S
C1405 C1404 1.404 . S
C1405 H1417 0.930 . S
C1406 C1402 1.524 . S
C1406 H1418 0.956 . S
C1406 H1419 0.961 . S
C1406 H1420 0.961 . S
C1407 C1404 1.539 . S
C1407 H1421 0.958 . S
C1407 H1422 0.961 . S
C1407 H1423 0.960 . S
H1408 C1392 0.931 . S
H1409 C1397 0.929 . S
H1410 C1398 0.960 . S
H1411 C1398 0.962 . S
H1412 C1398 0.960 . S
H1413 C1399 0.961 . S
H1414 C1399 0.961 . S
H1415 C1399 0.961 . S
H1416 C1400 0.931 . S
H1417 C1405 0.930 . S
H1418 C1406 0.956 . S
H1419 C1406 0.961 . S
H1420 C1406 0.961 . S
H1421 C1407 0.958 . S
H1422 C1407 0.961 . S
H1423 C1407 0.960 . S
C1424 C1425 1.391 . S
C1424 C1426 1.394 . S
C1424 H1440 0.931 . S
C1425 C1424 1.391 . S
C1425 C1429 1.376 . S
C1426 C1424 1.394 . S
C1426 C1427 1.369 . S
C1426 C1430 1.531 . S
C1427 C1426 1.369 . S
C1427 C1428 1.410 . S
C1427 C1435 1.503 . S
C1428 C1427 1.410 . S
C1428 C1429 1.392 . S
C1428 C1431 1.511 . S
C1429 C1425 1.376 . S
C1429 C1428 1.392 . S
C1429 H1441 0.929 . S
C1430 C1426 1.531 . S
C1430 H1442 0.960 . S
C1430 H1443 0.962 . S
C1430 H1444 0.960 . S
C1431 C1428 1.511 . S
C1431 H1445 0.961 . S
C1431 H1446 0.961 . S
C1431 H1447 0.961 . S
C1432 C1433 1.370 . S
C1432 C1434 1.363 . S
C1432 H1448 0.931 . S
C1433 C1432 1.370 . S
C1433 C1437 1.408 . S
C1434 C1432 1.363 . S
C1434 C1435 1.370 . S
C1434 C1438 1.524 . S
C1435 C1427 1.503 . S
C1435 C1434 1.370 . S
C1435 C1436 1.403 . S
C1436 C1435 1.403 . S
C1436 C1437 1.404 . S
C1436 C1439 1.539 . S
C1437 C1433 1.408 . S
C1437 C1436 1.404 . S
C1437 H1449 0.930 . S
C1438 C1434 1.524 . S
C1438 H1450 0.956 . S
C1438 H1451 0.961 . S
C1438 H1452 0.961 . S
C1439 C1436 1.539 . S
C1439 H1453 0.958 . S
C1439 H1454 0.961 . S
C1439 H1455 0.960 . S
H1440 C1424 0.931 . S
H1441 C1429 0.929 . S
H1442 C1430 0.960 . S
H1443 C1430 0.962 . S
H1444 C1430 0.960 . S
H1445 C1431 0.961 . S
H1446 C1431 0.961 . S
H1447 C1431 0.961 . S
H1448 C1432 0.931 . S
H1449 C1437 0.930 . S
H1450 C1438 0.956 . S
H1451 C1438 0.961 . S
H1452 C1438 0.961 . S
H1453 C1439 0.958 . S
H1454 C1439 0.961 . S
H1455 C1439 0.960 . S
C1456 C1457 1.391 . S
C1456 C1458 1.394 . S
C1456 H1472 0.931 . S
C1457 C1456 1.391 . S
C1457 C1461 1.376 . S
C1458 C1456 1.394 . S
C1458 C1459 1.369 . S
C1458 C1462 1.531 . S
C1459 C1458 1.369 . S
C1459 C1460 1.410 . S
C1459 C1467 1.503 . S
C1460 C1459 1.410 . S
C1460 C1461 1.392 . S
C1460 C1463 1.511 1_455 S
C1461 C1457 1.376 . S
C1461 C1460 1.392 . S
C1461 H1473 0.929 . S
C1462 C1458 1.531 . S
C1462 H1474 0.960 . S
C1462 H1475 0.962 . S
C1462 H1476 0.960 . S
C1463 C1460 1.511 1_655 S
C1463 H1477 0.961 . S
C1463 H1478 0.961 . S
C1463 H1479 0.961 . S
C1464 C1465 1.362 1_655 S
C1464 C1466 1.356 1_655 S
C1464 H1480 0.948 . S
C1465 C1464 1.362 1_455 S
C1465 C1469 1.408 . S
C1466 C1464 1.356 1_455 S
C1466 C1467 1.370 . S
C1466 C1470 1.524 1_455 S
C1467 C1459 1.503 . S
C1467 C1466 1.370 . S
C1467 C1468 1.403 . S
C1468 C1467 1.403 . S
C1468 C1469 1.404 . S
C1468 C1471 1.539 . S
C1469 C1465 1.408 . S
C1469 C1468 1.404 . S
C1469 H1481 0.930 . S
C1470 C1466 1.524 1_655 S
C1470 H1482 0.956 1_655 S
C1470 H1483 0.961 . S
C1470 H1484 0.961 . S
C1471 C1468 1.539 . S
C1471 H1485 0.958 . S
C1471 H1486 0.961 . S
C1471 H1487 0.960 . S
H1472 C1456 0.931 . S
H1473 C1461 0.929 . S
H1474 C1462 0.960 . S
H1475 C1462 0.962 . S
H1476 C1462 0.960 . S
H1477 C1463 0.961 . S
H1478 C1463 0.961 . S
H1479 C1463 0.961 . S
H1480 C1464 0.948 . S
H1481 C1469 0.930 . S
H1482 C1470 0.956 1_455 S
H1483 C1470 0.961 . S
H1484 C1470 0.961 . S
H1485 C1471 0.958 . S
H1486 C1471 0.961 . S
H1487 C1471 0.960 . S
C1488 C1489 1.391 . S
C1488 C1490 1.394 . S
C1488 H1504 0.931 . S
C1489 C1488 1.391 . S
C1489 C1493 1.376 1_565 S
C1490 C1488 1.394 . S
C1490 C1491 1.369 . S
C1490 C1494 1.531 . S
C1491 C1490 1.369 . S
C1491 C1492 1.410 . S
C1491 C1499 1.503 . S
C1492 C1491 1.410 . S
C1492 C1493 1.392 1_565 S
C1492 C1495 1.511 1_565 S
C1493 C1489 1.376 1_545 S
C1493 C1492 1.392 1_545 S
C1493 H1505 0.929 . S
C1494 C1490 1.531 . S
C1494 H1506 0.960 . S
C1494 H1507 0.962 . S
C1494 H1508 0.960 . S
C1495 C1492 1.511 1_545 S
C1495 H1509 0.961 . S
C1495 H1510 0.961 . S
C1495 H1511 0.961 1_545 S
C1496 C1497 1.370 . S
C1496 C1498 1.363 . S
C1496 H1512 0.931 1_565 S
C1497 C1496 1.370 . S
C1497 C1501 1.408 . S
C1498 C1496 1.363 . S
C1498 C1499 1.370 . S
C1498 C1502 1.524 1_565 S
C1499 C1491 1.503 . S
C1499 C1498 1.370 . S
C1499 C1500 1.403 . S
C1500 C1499 1.403 . S
C1500 C1501 1.404 . S
C1500 C1503 1.539 . S
C1501 C1497 1.408 . S
C1501 C1500 1.404 . S
C1501 H1513 0.930 . S
C1502 C1498 1.524 1_545 S
C1502 H1514 0.956 . S
C1502 H1515 0.961 . S
C1502 H1516 0.961 . S
C1503 C1500 1.539 . S
C1503 H1517 0.958 . S
C1503 H1518 0.961 . S
C1503 H1519 0.960 . S
H1504 C1488 0.931 . S
H1505 C1493 0.929 . S
H1506 C1494 0.960 . S
H1507 C1494 0.962 . S
H1508 C1494 0.960 . S
H1509 C1495 0.961 . S
H1510 C1495 0.961 . S
H1511 C1495 0.961 1_565 S
H1512 C1496 0.931 1_545 S
H1513 C1501 0.930 . S
H1514 C1502 0.956 . S
H1515 C1502 0.961 . S
H1516 C1502 0.961 . S
H1517 C1503 0.958 . S
H1518 C1503 0.961 . S
H1519 C1503 0.960 . S
C1520 C1521 1.391 . S
C1520 C1522 1.394 . S
C1520 H1536 0.931 . S
C1521 C1520 1.391 . S
C1521 C1525 1.376 . S
C1522 C1520 1.394 . S
C1522 C1523 1.369 . S
C1522 C1526 1.531 . S
C1523 C1522 1.369 . S
C1523 C1524 1.410 . S
C1523 C1531 1.503 . S
C1524 C1523 1.410 . S
C1524 C1525 1.392 . S
C1524 C1527 1.511 . S
C1525 C1521 1.376 . S
C1525 C1524 1.392 . S
C1525 H1537 0.929 . S
C1526 C1522 1.531 . S
C1526 H1538 0.960 . S
C1526 H1539 0.962 . S
C1526 H1540 0.960 . S
C1527 C1524 1.511 . S
C1527 H1541 0.961 . S
C1527 H1542 0.961 . S
C1527 H1543 0.961 . S
C1528 C1529 1.370 . S
C1528 C1530 1.363 . S
C1528 H1544 0.931 . S
C1529 C1528 1.370 . S
C1529 C1533 1.408 . S
C1530 C1528 1.363 . S
C1530 C1531 1.370 . S
C1530 C1534 1.524 . S
C1531 C1523 1.503 . S
C1531 C1530 1.370 . S
C1531 C1532 1.403 . S
C1532 C1531 1.403 . S
C1532 C1533 1.404 . S
C1532 C1535 1.539 . S
C1533 C1529 1.408 . S
C1533 C1532 1.404 . S
C1533 H1545 0.930 . S
C1534 C1530 1.524 . S
C1534 H1546 0.956 . S
C1534 H1547 0.961 . S
C1534 H1548 0.961 . S
C1535 C1532 1.539 . S
C1535 H1549 0.958 . S
C1535 H1550 0.961 . S
C1535 H1551 0.960 . S
H1536 C1520 0.931 . S
H1537 C1525 0.929 . S
H1538 C1526 0.960 . S
H1539 C1526 0.962 . S
H1540 C1526 0.960 . S
H1541 C1527 0.961 . S
H1542 C1527 0.961 . S
H1543 C1527 0.961 . S
H1544 C1528 0.931 . S
H1545 C1533 0.930 . S
H1546 C1534 0.956 . S
H1547 C1534 0.961 . S
H1548 C1534 0.961 . S
H1549 C1535 0.958 . S
H1550 C1535 0.961 . S
H1551 C1535 0.960 . S
C1552 C1553 1.391 . S
C1552 C1554 1.394 . S
C1552 H1568 0.931 . S
C1553 C1552 1.391 . S
C1553 C1557 1.376 . S
C1554 C1552 1.394 . S
C1554 C1555 1.369 . S
C1554 C1558 1.531 . S
C1555 C1554 1.369 . S
C1555 C1556 1.410 . S
C1555 C1563 1.503 . S
C1556 C1555 1.410 . S
C1556 C1557 1.392 . S
C1556 C1559 1.511 . S
C1557 C1553 1.376 . S
C1557 C1556 1.392 . S
C1557 H1569 0.929 . S
C1558 C1554 1.531 . S
C1558 H1570 0.960 . S
C1558 H1571 0.962 . S
C1558 H1572 0.960 . S
C1559 C1556 1.511 . S
C1559 H1573 0.961 . S
C1559 H1574 0.961 . S
C1559 H1575 0.961 . S
C1560 C1561 1.370 . S
C1560 C1562 1.363 . S
C1560 H1576 0.931 . S
C1561 C1560 1.370 . S
C1561 C1565 1.408 . S
C1562 C1560 1.363 . S
C1562 C1563 1.370 . S
C1562 C1566 1.524 . S
C1563 C1555 1.503 . S
C1563 C1562 1.370 . S
C1563 C1564 1.403 . S
C1564 C1563 1.403 . S
C1564 C1565 1.404 . S
C1564 C1567 1.539 . S
C1565 C1561 1.408 . S
C1565 C1564 1.404 . S
C1565 H1577 0.930 . S
C1566 C1562 1.524 . S
C1566 H1578 0.956 . S
C1566 H1579 0.961 . S
C1566 H1580 0.961 . S
C1567 C1564 1.539 . S
C1567 H1581 0.958 . S
C1567 H1582 0.961 . S
C1567 H1583 0.960 . S
H1568 C1552 0.931 . S
H1569 C1557 0.929 . S
H1570 C1558 0.960 . S
H1571 C1558 0.962 . S
H1572 C1558 0.960 . S
H1573 C1559 0.961 . S
H1574 C1559 0.961 . S
H1575 C1559 0.961 . S
H1576 C1560 0.931 . S
H1577 C1565 0.930 . S
H1578 C1566 0.956 . S
H1579 C1566 0.961 . S
H1580 C1566 0.961 . S
H1581 C1567 0.958 . S
H1582 C1567 0.961 . S
H1583 C1567 0.960 . S
C1584 C1585 1.391 . S
C1584 C1586 1.394 . S
C1584 H1600 0.931 . S
C1585 C1584 1.391 . S
C1585 C1589 1.376 1_655 S
C1586 C1584 1.394 . S
C1586 C1587 1.369 . S
C1586 C1590 1.531 . S
C1587 C1586 1.369 . S
C1587 C1588 1.410 1_655 S
C1587 C1595 1.503 . S
C1588 C1587 1.410 1_455 S
C1588 C1589 1.392 . S
C1588 C1591 1.511 . S
C1589 C1585 1.376 1_455 S
C1589 C1588 1.392 . S
C1589 H1601 0.929 . S
C1590 C1586 1.531 . S
C1590 H1602 0.960 . S
C1590 H1603 0.962 . S
C1590 H1604 0.960 . S
C1591 C1588 1.511 . S
C1591 H1605 0.961 . S
C1591 H1606 0.975 . S
C1591 H1607 0.961 . S
C1592 C1593 1.370 . S
C1592 C1594 1.363 . S
C1592 H1608 0.931 . S
C1593 C1592 1.370 . S
C1593 C1597 1.408 . S
C1594 C1592 1.363 . S
C1594 C1595 1.370 . S
C1594 C1598 1.524 . S
C1595 C1587 1.503 . S
C1595 C1594 1.370 . S
C1595 C1596 1.403 . S
C1596 C1595 1.403 . S
C1596 C1597 1.404 . S
C1596 C1599 1.539 1_655 S
C1597 C1593 1.408 . S
C1597 C1596 1.404 . S
C1597 H1609 0.926 1_655 S
C1598 C1594 1.524 . S
C1598 H1610 0.956 . S
C1598 H1611 0.961 . S
C1598 H1612 0.961 . S
C1599 C1596 1.539 1_455 S
C1599 H1613 0.958 . S
C1599 H1614 0.961 . S
C1599 H1615 0.960 . S
H1600 C1584 0.931 . S
H1601 C1589 0.929 . S
H1602 C1590 0.960 . S
H1603 C1590 0.962 . S
H1604 C1590 0.960 . S
H1605 C1591 0.961 . S
H1606 C1591 0.975 . S
H1607 C1591 0.961 . S
H1608 C1592 0.931 . S
H1609 C1597 0.926 1_455 S
H1610 C1598 0.956 . S
H1611 C1598 0.961 . S
H1612 C1598 0.961 . S
H1613 C1599 0.958 . S
H1614 C1599 0.961 . S
H1615 C1599 0.960 . S
C1616 C1617 1.391 . S
C1616 C1618 1.394 . S
C1616 H1632 0.931 . S
C1617 C1616 1.391 . S
C1617 C1621 1.376 1_545 S
C1618 C1616 1.394 . S
C1618 C1619 1.369 . S
C1618 C1622 1.531 1_554 S
C1619 C1618 1.369 . S
C1619 C1620 1.410 1_545 S
C1619 C1627 1.503 . S
C1620 C1619 1.410 1_565 S
C1620 C1621 1.392 . S
C1620 C1623 1.511 . S
C1621 C1617 1.376 1_565 S
C1621 C1620 1.392 . S
C1621 H1633 0.929 . S
C1622 C1618 1.531 1_556 S
C1622 H1634 0.960 1_556 S
C1622 H1635 0.962 . S
C1622 H1636 0.960 . S
C1623 C1620 1.511 . S
C1623 H1637 0.961 . S
C1623 H1638 0.961 . S
C1623 H1639 0.961 . S
C1624 C1625 1.354 1_565 S
C1624 C1626 1.363 . S
C1624 H1640 0.931 1_554 S
C1625 C1624 1.354 1_545 S
C1625 C1629 1.427 . S
C1626 C1624 1.363 . S
C1626 C1627 1.370 1_565 S
C1626 C1630 1.524 1_554 S
C1627 C1619 1.503 . S
C1627 C1626 1.370 1_545 S
C1627 C1628 1.403 . S
C1628 C1627 1.403 . S
C1628 C1629 1.404 . S
C1628 C1631 1.539 . S
C1629 C1625 1.427 . S
C1629 C1628 1.404 . S
C1629 H1641 0.930 . S
C1630 C1626 1.524 1_556 S
C1630 H1642 0.956 . S
C1630 H1643 0.961 1_556 S
C1630 H1644 0.961 . S
C1631 C1628 1.539 . S
C1631 H1645 0.958 . S
C1631 H1646 0.961 . S
C1631 H1647 0.960 . S
H1632 C1616 0.931 . S
H1633 C1621 0.929 . S
H1634 C1622 0.960 1_554 S
H1635 C1622 0.962 . S
H1636 C1622 0.960 . S
H1637 C1623 0.961 . S
H1638 C1623 0.961 . S
H1639 C1623 0.961 . S
H1640 C1624 0.931 1_556 S
H1641 C1629 0.930 . S
H1642 C1630 0.956 . S
H1643 C1630 0.961 1_554 S
H1644 C1630 0.961 . S
H1645 C1631 0.958 . S
H1646 C1631 0.961 . S
H1647 C1631 0.960 . S
C1648 C1649 1.391 . S
C1648 C1650 1.394 . S
C1648 H1664 0.931 . S
C1649 C1648 1.391 . S
C1649 C1653 1.376 . S
C1650 C1648 1.394 . S
C1650 C1651 1.369 . S
C1650 C1654 1.531 . S
C1651 C1650 1.369 . S
C1651 C1652 1.410 . S
C1651 C1659 1.503 . S
C1652 C1651 1.410 . S
C1652 C1653 1.392 . S
C1652 C1655 1.511 . S
C1653 C1649 1.376 . S
C1653 C1652 1.392 . S
C1653 H1665 0.929 . S
C1654 C1650 1.531 . S
C1654 H1666 0.960 . S
C1654 H1667 0.962 . S
C1654 H1668 0.960 . S
C1655 C1652 1.511 . S
C1655 H1669 0.961 . S
C1655 H1670 0.961 . S
C1655 H1671 0.961 . S
C1656 C1657 1.370 . S
C1656 C1658 1.363 . S
C1656 H1672 0.934 . S
C1657 C1656 1.370 . S
C1657 C1661 1.408 . S
C1658 C1656 1.363 . S
C1658 C1659 1.370 . S
C1658 C1662 1.524 1_556 S
C1659 C1651 1.503 . S
C1659 C1658 1.370 . S
C1659 C1660 1.403 . S
C1660 C1659 1.403 . S
C1660 C1661 1.404 . S
C1660 C1663 1.539 . S
C1661 C1657 1.408 . S
C1661 C1660 1.404 . S
C1661 H1673 0.930 . S
C1662 C1658 1.524 1_554 S
C1662 H1674 0.956 . S
C1662 H1675 0.961 . S
C1662 H1676 0.961 . S
C1663 C1660 1.539 . S
C1663 H1677 0.958 . S
C1663 H1678 0.961 . S
C1663 H1679 0.960 . S
H1664 C1648 0.931 . S
H1665 C1653 0.929 . S
H1666 C1654 0.960 . S
H1667 C1654 0.962 . S
H1668 C1654 0.960 . S
H1669 C1655 0.961 . S
H1670 C1655 0.961 . S
H1671 C1655 0.961 . S
H1672 C1656 0.934 . S
H1673 C1661 0.930 . S
H1674 C1662 0.956 . S
H1675 C1662 0.961 . S
H1676 C1662 0.961 . S
H1677 C1663 0.958 . S
H1678 C1663 0.961 . S
H1679 C1663 0.960 . S
C1680 C1681 1.391 1_556 S
C1680 C1682 1.394 . S
C1680 H1696 0.931 . S
C1681 C1680 1.391 1_554 S
C1681 C1685 1.376 . S
C1682 C1680 1.394 . S
C1682 C1683 1.369 1_556 S
C1682 C1686 1.531 . S
C1683 C1682 1.369 1_554 S
C1683 C1684 1.410 . S
C1683 C1691 1.503 . S
C1684 C1683 1.410 . S
C1684 C1685 1.392 . S
C1684 C1687 1.511 . S
C1685 C1681 1.376 . S
C1685 C1684 1.392 . S
C1685 H1697 0.929 . S
C1686 C1682 1.531 . S
C1686 H1698 0.960 . S
C1686 H1699 0.962 . S
C1686 H1700 0.960 . S
C1687 C1684 1.511 . S
C1687 H1701 0.961 . S
C1687 H1702 0.961 . S
C1687 H1703 0.961 . S
C1688 C1689 1.370 . S
C1688 C1690 1.363 . S
C1688 H1704 0.931 . S
C1689 C1688 1.370 . S
C1689 C1693 1.408 1_554 S
C1690 C1688 1.363 . S
C1690 C1691 1.370 . S
C1690 C1694 1.524 . S
C1691 C1683 1.503 . S
C1691 C1690 1.370 . S
C1691 C1692 1.403 1_554 S
C1692 C1691 1.403 1_556 S
C1692 C1693 1.404 . S
C1692 C1695 1.539 . S
C1693 C1689 1.408 1_556 S
C1693 C1692 1.404 . S
C1693 H1705 0.930 . S
C1694 C1690 1.524 . S
C1694 H1706 0.956 . S
C1694 H1707 0.961 . S
C1694 H1708 0.961 . S
C1695 C1692 1.539 . S
C1695 H1709 0.958 . S
C1695 H1710 0.961 . S
C1695 H1711 0.960 . S
H1696 C1680 0.931 . S
H1697 C1685 0.929 . S
H1698 C1686 0.960 . S
H1699 C1686 0.962 . S
H1700 C1686 0.960 . S
H1701 C1687 0.961 . S
H1702 C1687 0.961 . S
H1703 C1687 0.961 . S
H1704 C1688 0.931 . S
H1705 C1693 0.930 . S
H1706 C1694 0.956 . S
H1707 C1694 0.961 . S
H1708 C1694 0.961 . S
H1709 C1695 0.958 . S
H1710 C1695 0.961 . S
H1711 C1695 0.960 . S
C1712 C1713 1.391 1_655 S
C1712 C1714 1.394 . S
C1712 H1728 0.931 . S
C1713 C1712 1.391 1_455 S
C1713 C1717 1.376 . S
C1714 C1712 1.394 . S
C1714 C1715 1.369 1_655 S
C1714 C1718 1.531 . S
C1715 C1714 1.369 1_455 S
C1715 C1716 1.410 . S
C1715 C1723 1.503 1_545 S
C1716 C1715 1.410 . S
C1716 C1717 1.392 . S
C1716 C1719 1.511 1_556 S
C1717 C1713 1.376 . S
C1717 C1716 1.392 . S
C1717 H1729 0.929 1_556 S
C1718 C1714 1.531 . S
C1718 H1730 0.960 1_545 S
C1718 H1731 0.962 . S
C1718 H1732 0.960 . S
C1719 C1716 1.511 1_554 S
C1719 H1733 0.961 . S
C1719 H1734 0.961 1_545 S
C1719 H1735 0.959 1_545 S
C1720 C1721 1.356 1_655 S
C1720 C1722 1.363 . S
C1720 H1736 0.931 . S
C1721 C1720 1.356 1_455 S
C1721 C1725 1.424 . S
C1722 C1720 1.363 . S
C1722 C1723 1.370 1_655 S
C1722 C1726 1.524 . S
C1723 C1715 1.503 1_565 S
C1723 C1722 1.370 1_455 S
C1723 C1724 1.403 . S
C1724 C1723 1.403 . S
C1724 C1725 1.404 . S
C1724 C1727 1.539 . S
C1725 C1721 1.424 . S
C1725 C1724 1.404 . S
C1725 H1737 0.930 . S
C1726 C1722 1.524 . S
C1726 H1738 0.956 . S
C1726 H1739 0.961 1_556 S
C1726 H1740 0.961 . S
C1727 C1724 1.539 . S
C1727 H1741 0.958 . S
C1727 H1742 0.961 . S
C1727 H1743 0.960 . S
H1728 C1712 0.931 . S
H1729 C1717 0.929 1_554 S
H1730 C1718 0.960 1_565 S
H1731 C1718 0.962 . S
H1732 C1718 0.960 . S
H1733 C1719 0.961 . S
H1734 C1719 0.961 1_565 S
H1735 C1719 0.959 1_565 S
H1736 C1720 0.931 . S
H1737 C1725 0.930 . S
H1738 C1726 0.956 . S
H1739 C1726 0.961 1_554 S
H1740 C1726 0.961 . S
H1741 C1727 0.958 . S
H1742 C1727 0.961 . S
H1743 C1727 0.960 . S
C1744 C1745 1.391 . S
C1744 C1746 1.394 . S
C1744 H1760 0.931 . S
C1745 C1744 1.391 . S
C1745 C1749 1.376 1_565 S
C1746 C1744 1.394 . S
C1746 C1747 1.369 . S
C1746 C1750 1.531 . S
C1747 C1746 1.369 . S
C1747 C1748 1.410 1_565 S
C1747 C1755 1.503 . S
C1748 C1747 1.410 1_545 S
C1748 C1749 1.392 . S
C1748 C1751 1.511 . S
C1749 C1745 1.376 1_545 S
C1749 C1748 1.392 . S
C1749 H1761 0.929 . S
C1750 C1746 1.531 . S
C1750 H1762 0.960 . S
C1750 H1763 0.962 . S
C1750 H1764 0.960 . S
C1751 C1748 1.511 . S
C1751 H1765 0.961 . S
C1751 H1766 0.961 . S
C1751 H1767 0.961 . S
C1752 C1753 1.370 . S
C1752 C1754 1.363 . S
C1752 H1768 0.931 . S
C1753 C1752 1.370 . S
C1753 C1757 1.408 . S
C1754 C1752 1.363 . S
C1754 C1755 1.370 . S
C1754 C1758 1.526 . S
C1755 C1747 1.503 . S
C1755 C1754 1.370 . S
C1755 C1756 1.403 . S
C1756 C1755 1.403 . S
C1756 C1757 1.404 . S
C1756 C1759 1.539 . S
C1757 C1753 1.408 . S
C1757 C1756 1.404 . S
C1757 H1769 0.930 . S
C1758 C1754 1.526 . S
C1758 H1770 0.992 . S
C1758 H1771 0.928 1_565 S
C1758 H1772 0.958 1_565 S
C1759 C1756 1.539 . S
C1759 H1773 0.958 . S
C1759 H1774 0.961 1_565 S
C1759 H1775 0.960 1_565 S
H1760 C1744 0.931 . S
H1761 C1749 0.929 . S
H1762 C1750 0.960 . S
H1763 C1750 0.962 . S
H1764 C1750 0.960 . S
H1765 C1751 0.961 . S
H1766 C1751 0.961 . S
H1767 C1751 0.961 . S
H1768 C1752 0.931 . S
H1769 C1757 0.930 . S
H1770 C1758 0.992 . S
H1771 C1758 0.928 1_545 S
H1772 C1758 0.958 1_545 S
H1773 C1759 0.958 . S
H1774 C1759 0.961 1_545 S
H1775 C1759 0.960 1_545 S
C1776 C1777 1.391 . S
C1776 C1778 1.394 1_565 S
C1776 H1792 0.931 . S
C1777 C1776 1.391 . S
C1777 C1781 1.376 . S
C1778 C1776 1.394 1_545 S
C1778 C1779 1.369 . S
C1778 C1782 1.531 . S
C1779 C1778 1.369 . S
C1779 C1780 1.410 . S
C1779 C1787 1.503 . S
C1780 C1779 1.410 . S
C1780 C1781 1.392 1_545 S
C1780 C1783 1.511 . S
C1781 C1777 1.376 . S
C1781 C1780 1.392 1_565 S
C1781 H1793 0.929 . S
C1782 C1778 1.531 . S
C1782 H1794 0.960 . S
C1782 H1795 0.962 . S
C1782 H1796 0.960 . S
C1783 C1780 1.511 . S
C1783 H1797 0.961 . S
C1783 H1798 0.961 . S
C1783 H1799 0.961 . S
C1784 C1785 1.370 . S
C1784 C1786 1.363 . S
C1784 H1800 0.931 . S
C1785 C1784 1.370 . S
C1785 C1789 1.408 . S
C1786 C1784 1.363 . S
C1786 C1787 1.370 . S
C1786 C1790 1.524 . S
C1787 C1779 1.503 . S
C1787 C1786 1.370 . S
C1787 C1788 1.403 . S
C1788 C1787 1.403 . S
C1788 C1789 1.404 . S
C1788 C1791 1.539 . S
C1789 C1785 1.408 . S
C1789 C1788 1.404 . S
C1789 H1801 0.930 . S
C1790 C1786 1.524 . S
C1790 H1802 0.956 . S
C1790 H1803 0.961 . S
C1790 H1804 0.961 . S
C1791 C1788 1.539 . S
C1791 H1805 0.958 . S
C1791 H1806 0.961 . S
C1791 H1807 0.960 . S
H1792 C1776 0.931 . S
H1793 C1781 0.929 . S
H1794 C1782 0.960 . S
H1795 C1782 0.962 . S
H1796 C1782 0.960 . S
H1797 C1783 0.961 . S
H1798 C1783 0.961 . S
H1799 C1783 0.961 . S
H1800 C1784 0.931 . S
H1801 C1789 0.930 . S
H1802 C1790 0.956 . S
H1803 C1790 0.961 . S
H1804 C1790 0.961 . S
H1805 C1791 0.958 . S
H1806 C1791 0.961 . S
H1807 C1791 0.960 . S
C1808 C1809 1.391 . S
C1808 C1810 1.394 . S
C1808 H1824 0.931 . S
C1809 C1808 1.391 . S
C1809 C1813 1.376 . S
C1810 C1808 1.394 . S
C1810 C1811 1.369 . S
C1810 C1814 1.531 . S
C1811 C1810 1.369 . S
C1811 C1812 1.410 . S
C1811 C1819 1.503 . S
C1812 C1811 1.410 . S
C1812 C1813 1.392 . S
C1812 C1815 1.511 . S
C1813 C1809 1.376 . S
C1813 C1812 1.392 . S
C1813 H1825 0.929 . S
C1814 C1810 1.531 . S
C1814 H1826 0.960 . S
C1814 H1827 0.962 . S
C1814 H1828 0.960 . S
C1815 C1812 1.511 . S
C1815 H1829 0.961 . S
C1815 H1830 0.961 . S
C1815 H1831 0.961 . S
C1816 C1817 1.370 . S
C1816 C1818 1.363 . S
C1816 H1832 0.931 . S
C1817 C1816 1.370 . S
C1817 C1821 1.408 . S
C1818 C1816 1.363 . S
C1818 C1819 1.370 . S
C1818 C1822 1.524 . S
C1819 C1811 1.503 . S
C1819 C1818 1.370 . S
C1819 C1820 1.403 . S
C1820 C1819 1.403 . S
C1820 C1821 1.404 . S
C1820 C1823 1.539 . S
C1821 C1817 1.408 . S
C1821 C1820 1.404 . S
C1821 H1833 0.930 . S
C1822 C1818 1.524 . S
C1822 H1834 0.956 . S
C1822 H1835 0.961 . S
C1822 H1836 0.961 . S
C1823 C1820 1.539 . S
C1823 H1837 0.958 . S
C1823 H1838 0.961 . S
C1823 H1839 0.960 . S
H1824 C1808 0.931 . S
H1825 C1813 0.929 . S
H1826 C1814 0.960 . S
H1827 C1814 0.962 . S
H1828 C1814 0.960 . S
H1829 C1815 0.961 . S
H1830 C1815 0.961 . S
H1831 C1815 0.961 . S
H1832 C1816 0.931 . S
H1833 C1821 0.930 . S
H1834 C1822 0.956 . S
H1835 C1822 0.961 . S
H1836 C1822 0.961 . S
H1837 C1823 0.958 . S
H1838 C1823 0.961 . S
H1839 C1823 0.960 . S
C1840 C1841 1.391 . S
C1840 C1842 1.394 . S
C1840 H1856 0.931 . S
C1841 C1840 1.391 . S
C1841 C1845 1.376 1_655 S
C1842 C1840 1.394 . S
C1842 C1843 1.369 . S
C1842 C1846 1.531 . S
C1843 C1842 1.369 . S
C1843 C1844 1.410 1_655 S
C1843 C1851 1.505 . S
C1844 C1843 1.410 1_455 S
C1844 C1845 1.392 . S
C1844 C1847 1.511 . S
C1845 C1841 1.376 1_455 S
C1845 C1844 1.392 . S
C1845 H1857 0.929 . S
C1846 C1842 1.531 . S
C1846 H1858 0.960 . S
C1846 H1859 0.962 . S
C1846 H1860 0.960 . S
C1847 C1844 1.511 . S
C1847 H1861 0.961 . S
C1847 H1862 0.961 . S
C1847 H1863 0.961 . S
C1848 C1849 1.376 . S
C1848 C1850 1.363 . S
C1848 H1864 0.931 . S
C1849 C1848 1.376 . S
C1849 C1853 1.402 1_455 S
C1850 C1848 1.363 . S
C1850 C1851 1.358 1_455 S
C1850 C1854 1.524 . S
C1851 C1843 1.505 . S
C1851 C1850 1.358 1_655 S
C1851 C1852 1.417 . S
C1852 C1851 1.417 . S
C1852 C1853 1.404 . S
C1852 C1855 1.539 . S
C1853 C1849 1.402 1_655 S
C1853 C1852 1.404 . S
C1853 H1865 0.930 . S
C1854 C1850 1.524 . S
C1854 H1866 0.956 1_455 S
C1854 H1867 0.961 . S
C1854 H1868 0.961 . S
C1855 C1852 1.539 . S
C1855 H1869 0.958 . S
C1855 H1870 0.961 . S
C1855 H1871 0.960 . S
H1856 C1840 0.931 . S
H1857 C1845 0.929 . S
H1858 C1846 0.960 . S
H1859 C1846 0.962 . S
H1860 C1846 0.960 . S
H1861 C1847 0.961 . S
H1862 C1847 0.961 . S
H1863 C1847 0.961 . S
H1864 C1848 0.931 . S
H1865 C1853 0.930 . S
H1866 C1854 0.956 1_655 S
H1867 C1854 0.961 . S
H1868 C1854 0.961 . S
H1869 C1855 0.958 . S
H1870 C1855 0.961 . S
H1871 C1855 0.960 . S
C849 C303 0.906 . S
C857 C29 0.917 . S
C881 C347 1.209 . S
C889 C91 1.246 . S
C913 C135 0.847 . S
C921 C409 0.878 . S
C945 C197 0.408 . S
C953 C241 0.580 . S
C977 C453 0.965 . S
C985 C718 0.985 . S
C1009 C771 1.348 . S
C1017 C506 1.384 . S
C1041 C824 1.112 . S
C1049 C559 1.163 . S
C1073 C612 0.739 . S
C1081 C665 0.644 . S
C1105 C22 2.339 . S
C1113 C675 2.373 1_565 S
C1137 C728 2.289 . S
C1145 C92 2.278 . S
C1169 C128 2.696 . S
C1177 C781 2.786 . S
C1201 C198 2.089 . S
C1209 C834 2.084 1_655 S
C1233 C234 2.423 . S
C1241 C463 2.480 1_545 S
C1265 C304 2.583 . S
C1273 C516 2.625 . S
C1297 C340 2.501 . S
C1305 C569 2.542 . S
C1329 C410 1.829 . S
C1337 C622 1.808 1_455 S
C1361 C251 1.452 . S
C1369 C446 1.475 . S
C1393 C287 2.153 . S
C1401 C499 2.126 1_554 S
C1425 C357 2.321 . S
C1433 C552 2.260 . S
C1457 C605 2.064 . S
C1465 C393 2.081 1_455 S
C1489 C39 1.764 1_565 S
C1497 C658 1.765 . S
C1521 C711 2.337 . S
C1529 C75 2.377 . S
C1553 C764 1.904 . S
C1561 C145 1.934 . S
C1585 C181 1.993 1_655 S
C1593 C817 1.947 . S
C1617 C462 1.575 . S
C1625 C38 1.572 . S
C1649 C515 2.080 . S
C1657 C82 2.056 . S
C1681 C144 2.496 1_455 S
C1689 C568 2.429 . S
C1713 C621 1.982 . S
C1721 C188 1.975 . S
C1745 C250 2.021 1_655 S
C1753 C674 1.955 . S
C1777 C727 2.539 . S
C1785 C294 2.467 . S
C1809 C780 1.986 . S
C1817 C356 1.984 . S
C1841 C833 1.609 . S
C1849 C400 1.552 . S
