# Generated by pormake.
# Topology lcy-e, (6)-cn, num edge types: 1
# Building blocks:
#     Node 0, Type 0, BuildingBlock: BETDIP_clean_sbu_0, # of connection points: 6
#     Node 1, Type 0, BuildingBlock: BETDIP_clean_sbu_0, # of connection points: 6
#     Node 2, Type 0, BuildingBlock: BETDIP_clean_sbu_0, # of connection points: 6
#     Node 3, Type 0, BuildingBlock: BETDIP_clean_sbu_0, # of connection points: 6
#     Node 4, Type 0, BuildingBlock: BETDIP_clean_sbu_0, # of connection points: 6
#     Node 5, Type 0, BuildingBlock: BETDIP_clean_sbu_0, # of connection points: 6
#     Node 6, Type 0, BuildingBlock: BETDIP_clean_sbu_0, # of connection points: 6
#     Node 7, Type 0, BuildingBlock: BETDIP_clean_sbu_0, # of connection points: 6
#     Node 8, Type 0, BuildingBlock: BETDIP_clean_sbu_0, # of connection points: 6
#     Node 9, Type 0, BuildingBlock: BETDIP_clean_sbu_0, # of connection points: 6
#     Node 10, Type 0, BuildingBlock: BETDIP_clean_sbu_0, # of connection points: 6
#     Node 11, Type 0, BuildingBlock: BETDIP_clean_sbu_0, # of connection points: 6
#     Edge 12, Type (0, 0), BuildingBlock: KIFKEQ_clean_linker_1, # of connection points: 2
#     Edge 13, Type (0, 0), BuildingBlock: KIFKEQ_clean_linker_1, # of connection points: 2
#     Edge 14, Type (0, 0), BuildingBlock: KIFKEQ_clean_linker_1, # of connection points: 2
#     Edge 15, Type (0, 0), BuildingBlock: KIFKEQ_clean_linker_1, # of connection points: 2
#     Edge 16, Type (0, 0), BuildingBlock: KIFKEQ_clean_linker_1, # of connection points: 2
#     Edge 17, Type (0, 0), BuildingBlock: KIFKEQ_clean_linker_1, # of connection points: 2
#     Edge 18, Type (0, 0), BuildingBlock: KIFKEQ_clean_linker_1, # of connection points: 2
#     Edge 19, Type (0, 0), BuildingBlock: KIFKEQ_clean_linker_1, # of connection points: 2
#     Edge 20, Type (0, 0), BuildingBlock: KIFKEQ_clean_linker_1, # of connection points: 2
#     Edge 21, Type (0, 0), BuildingBlock: KIFKEQ_clean_linker_1, # of connection points: 2
#     Edge 22, Type (0, 0), BuildingBlock: KIFKEQ_clean_linker_1, # of connection points: 2
#     Edge 23, Type (0, 0), BuildingBlock: KIFKEQ_clean_linker_1, # of connection points: 2
#     Edge 24, Type (0, 0), BuildingBlock: KIFKEQ_clean_linker_1, # of connection points: 2
#     Edge 25, Type (0, 0), BuildingBlock: KIFKEQ_clean_linker_1, # of connection points: 2
#     Edge 26, Type (0, 0), BuildingBlock: KIFKEQ_clean_linker_1, # of connection points: 2
#     Edge 27, Type (0, 0), BuildingBlock: KIFKEQ_clean_linker_1, # of connection points: 2
#     Edge 28, Type (0, 0), BuildingBlock: KIFKEQ_clean_linker_1, # of connection points: 2
#     Edge 29, Type (0, 0), BuildingBlock: KIFKEQ_clean_linker_1, # of connection points: 2
#     Edge 30, Type (0, 0), BuildingBlock: KIFKEQ_clean_linker_1, # of connection points: 2
#     Edge 31, Type (0, 0), BuildingBlock: KIFKEQ_clean_linker_1, # of connection points: 2
#     Edge 32, Type (0, 0), BuildingBlock: KIFKEQ_clean_linker_1, # of connection points: 2
#     Edge 33, Type (0, 0), BuildingBlock: KIFKEQ_clean_linker_1, # of connection points: 2
#     Edge 34, Type (0, 0), BuildingBlock: KIFKEQ_clean_linker_1, # of connection points: 2
#     Edge 35, Type (0, 0), BuildingBlock: KIFKEQ_clean_linker_1, # of connection points: 2
#     Edge 36, Type (0, 0), BuildingBlock: KIFKEQ_clean_linker_1, # of connection points: 2
#     Edge 37, Type (0, 0), BuildingBlock: KIFKEQ_clean_linker_1, # of connection points: 2
#     Edge 38, Type (0, 0), BuildingBlock: KIFKEQ_clean_linker_1, # of connection points: 2
#     Edge 39, Type (0, 0), BuildingBlock: KIFKEQ_clean_linker_1, # of connection points: 2
#     Edge 40, Type (0, 0), BuildingBlock: KIFKEQ_clean_linker_1, # of connection points: 2
#     Edge 41, Type (0, 0), BuildingBlock: KIFKEQ_clean_linker_1, # of connection points: 2
#     Edge 42, Type (0, 0), BuildingBlock: KIFKEQ_clean_linker_1, # of connection points: 2
#     Edge 43, Type (0, 0), BuildingBlock: KIFKEQ_clean_linker_1, # of connection points: 2
#     Edge 44, Type (0, 0), BuildingBlock: KIFKEQ_clean_linker_1, # of connection points: 2
#     Edge 45, Type (0, 0), BuildingBlock: KIFKEQ_clean_linker_1, # of connection points: 2
#     Edge 46, Type (0, 0), BuildingBlock: KIFKEQ_clean_linker_1, # of connection points: 2
#     Edge 47, Type (0, 0), BuildingBlock: KIFKEQ_clean_linker_1, # of connection points: 2
# Relax obj value: 0.205
# Max RMSD: 0.300
# Mean RMSD: 0.278
data_MOF--net-lcy-e--node1-BETDIP_clean_sbu_0--edge1-KIFKEQ_clean_linker_1
_symmetry_space_group_name_H-M    P1
_symmetry_Int_Tables_number       1
_symmetry_cell_setting            triclinic
loop_
_symmetry_equiv_pos_as_xyz
'x, y, z'
_cell_length_a     42.321838
_cell_length_b     45.888129
_cell_length_c     45.988243
_cell_angle_alpha  91.189838
_cell_angle_beta   90.410841
_cell_angle_gamma 88.572373
loop_
_atom_site_label
_atom_site_type_symbol
_atom_site_fract_x
_atom_site_fract_y
_atom_site_fract_z
_atom_type_partial_charge
Tb0 Tb 0.14487 0.2517 0.55911 0.0
Tb1 Tb 0.12202 0.29309 0.51323 0.0
C2 C 0.1463 0.21814 0.60205 0.0
C3 C 0.13375 0.1893 0.61029 0.0
C4 C 0.10924 0.18811 0.63071 0.0
C5 C 0.09843 0.16129 0.64027 0.0
C6 C 0.11195 0.13476 0.62984 0.0
C7 C 0.13626 0.13597 0.60911 0.0
C8 C 0.14702 0.16283 0.5995 0.0
C9 C 0.1787 0.249 0.51122 0.0
C10 C 0.08456 0.23591 0.51816 0.0
C11 C 0.11635 0.32481 0.46896 0.0
C12 C 0.13338 0.34141 0.44668 0.0
C13 C 0.16094 0.33034 0.43296 0.0
C14 C 0.17352 0.34443 0.40887 0.0
C15 C 0.15862 0.36971 0.39771 0.0
C16 C 0.13175 0.38121 0.41224 0.0
C17 C 0.11937 0.36728 0.43635 0.0
C18 C 0.09308 0.29754 0.56513 0.0
C19 C 0.1787 0.31149 0.55349 0.0
O20 O 0.12562 0.23957 0.59897 0.0
O21 O 0.16846 0.21851 0.58231 0.0
O22 O 0.1488 0.25245 0.51235 0.0
O23 O 0.18958 0.24407 0.53712 0.0
O24 O 0.10326 0.22915 0.5405 0.0
O25 O 0.08855 0.25964 0.50313 0.0
O26 O 0.11957 0.29637 0.46793 0.0
O27 O 0.11507 0.33511 0.49572 0.0
O28 O 0.1216 0.2927 0.55967 0.0
O29 O 0.07934 0.30313 0.54043 0.0
O30 O 0.16755 0.31104 0.52653 0.0
O31 O 0.16955 0.29175 0.57237 0.0
H32 H 0.09873 0.20804 0.63977 0.0
H33 H 0.08005 0.16144 0.65653 0.0
H34 H 0.14705 0.1161 0.60026 0.0
H35 H 0.16602 0.16278 0.58385 0.0
H36 H 0.17213 0.31028 0.4402 0.0
H37 H 0.19414 0.33482 0.39825 0.0
H38 H 0.11991 0.40087 0.40468 0.0
H39 H 0.09803 0.37622 0.44633 0.0
Tb40 Tb 0.99305 0.89908 0.74076 0.0
Tb41 Tb 0.04709 0.91125 0.78249 0.0
C42 C 0.94598 0.90176 0.70671 0.0
C43 C 0.93568 0.91535 0.67894 0.0
C44 C 0.91081 0.93619 0.6792 0.0
C45 C 0.89807 0.94682 0.65317 0.0
C46 C 0.90967 0.93676 0.62603 0.0
C47 C 0.93538 0.91667 0.62577 0.0
C48 C 0.94816 0.90603 0.65188 0.0
C49 C 0.03969 0.86035 0.73886 0.0
C50 C 0.04316 0.94921 0.72712 0.0
C51 C 0.09623 0.90819 0.81395 0.0
C52 C 0.11615 0.88931 0.83306 0.0
C53 C 0.13437 0.86555 0.82196 0.0
C54 C 0.15662 0.85098 0.83968 0.0
C55 C 0.16123 0.85982 0.86892 0.0
C56 C 0.14231 0.88311 0.88004 0.0
C57 C 0.12019 0.89762 0.86238 0.0
C58 C 0.99574 0.94642 0.78701 0.0
C59 C 0.99568 0.86653 0.80013 0.0
O60 O 0.94942 0.91901 0.72951 0.0
O61 O 0.96795 0.8812 0.70544 0.0
O62 O 0.04283 0.8877 0.74179 0.0
O63 O 0.01015 0.8545 0.73518 0.0
O64 O 0.016 0.93654 0.72068 0.0
O65 O 0.06092 0.94099 0.74933 0.0
O66 O 0.0958 0.90223 0.78596 0.0
O67 O 0.06857 0.91732 0.82356 0.0
O68 O 0.99731 0.91969 0.78156 0.0
O69 O 0.02416 0.95404 0.79416 0.0
O70 O 0.02617 0.87232 0.80062 0.0
O71 O 0.97629 0.87867 0.78063 0.0
H72 H 0.90058 0.94376 0.69962 0.0
H73 H 0.87871 0.96267 0.65435 0.0
H74 H 0.94483 0.90825 0.60536 0.0
H75 H 0.96722 0.88986 0.65077 0.0
H76 H 0.1321 0.85867 0.79938 0.0
H77 H 0.17043 0.83298 0.83037 0.0
H78 H 0.14543 0.89102 0.9022 0.0
H79 H 0.107 0.91616 0.87145 0.0
Tb80 Tb 0.37855 0.79186 0.05112 0.0
Tb81 Tb 0.39073 0.74956 0.99647 0.0
C82 C 0.38796 0.81876 0.09867 0.0
C83 C 0.39135 0.84907 0.10946 0.0
C84 C 0.39609 0.85426 0.13928 0.0
C85 C 0.40296 0.88222 0.1499 0.0
C86 C 0.40525 0.90579 0.13091 0.0
C87 C 0.39995 0.90053 0.10095 0.0
C88 C 0.39313 0.87244 0.09034 0.0
C89 C 0.3369 0.80252 1.00858 0.0
C90 C 0.42822 0.80927 1.00341 0.0
C91 C 0.39442 0.73064 0.94464 0.0
C92 C 0.37829 0.71516 0.92018 0.0
C93 C 0.36601 0.73106 0.89665 0.0
C94 C 0.35612 0.71681 0.87103 0.0
C95 C 0.35843 0.68623 0.86815 0.0
C96 C 0.36943 0.67028 0.8922 0.0
C97 C 0.37935 0.68454 0.91781 0.0
C98 C 0.4213 0.73624 0.04521 0.0
C99 C 0.34518 0.72993 0.04383 0.0
O100 O 0.4105 0.80906 0.08141 0.0
O101 O 0.3599 0.81068 0.08976 0.0
O102 O 0.35913 0.78378 1.00932 0.0
O103 O 0.33815 0.81698 0.03311 0.0
O104 O 0.41031 0.81803 0.02566 0.0
O105 O 0.4259 0.78314 0.99068 0.0
O106 O 0.3842 0.75698 0.9519 0.0
O107 O 0.40375 0.71566 0.96725 0.0
O108 O 0.41328 0.76114 0.03628 0.0
O109 O 0.41541 0.7174 0.02448 0.0
O110 O 0.34917 0.73091 0.01524 0.0
O111 O 0.35742 0.74974 0.06216 0.0
H112 H 0.39535 0.83645 0.15435 0.0
H113 H 0.40742 0.88512 0.17297 0.0
H114 H 0.40114 0.91809 0.08567 0.0
H115 H 0.38986 0.86883 0.06716 0.0
H116 H 0.36534 0.75468 0.89751 0.0
H117 H 0.34811 0.72992 0.85298 0.0
H118 H 0.37102 0.64669 0.89106 0.0
H119 H 0.38894 0.67154 0.93534 0.0
Tb120 Tb 0.5217 0.14713 0.24112 0.0
Tb121 Tb 0.46783 0.13474 0.28229 0.0
C122 C 0.56847 0.14282 0.20703 0.0
C123 C 0.57725 0.13085 0.1776 0.0
C124 C 0.60047 0.1085 0.17522 0.0
C125 C 0.61115 0.09834 0.14793 0.0
C126 C 0.59906 0.11028 0.122 0.0
C127 C 0.5755 0.13248 0.12438 0.0
C128 C 0.56474 0.14262 0.15177 0.0
C129 C 0.47416 0.18462 0.23858 0.0
C130 C 0.47147 0.09667 0.22575 0.0
C131 C 0.41888 0.13748 0.31383 0.0
C132 C 0.3971 0.15592 0.33248 0.0
C133 C 0.36912 0.16821 0.32065 0.0
C134 C 0.34565 0.18092 0.33867 0.0
C135 C 0.34924 0.18156 0.36917 0.0
C136 C 0.37778 0.17024 0.3809 0.0
C137 C 0.40127 0.15754 0.36287 0.0
C138 C 0.52058 0.10148 0.28751 0.0
C139 C 0.51806 0.1806 0.30163 0.0
O140 O 0.5627 0.12402 0.22723 0.0
O141 O 0.54915 0.16552 0.20856 0.0
O142 O 0.47156 0.15732 0.24171 0.0
O143 O 0.50347 0.19084 0.2347 0.0
O144 O 0.49831 0.10964 0.21967 0.0
O145 O 0.45409 0.1045 0.24838 0.0
O146 O 0.41872 0.1417 0.28575 0.0
O147 O 0.44721 0.13058 0.3236 0.0
O148 O 0.51778 0.12784 0.28177 0.0
O149 O 0.49243 0.09262 0.29336 0.0
O150 O 0.48758 0.17481 0.30041 0.0
O151 O 0.53789 0.169 0.28182 0.0
H152 H 0.61094 0.09922 0.19462 0.0
H153 H 0.62967 0.08164 0.14726 0.0
H154 H 0.5653 0.14208 0.10505 0.0
H155 H 0.54692 0.15996 0.15265 0.0
H156 H 0.36469 0.16693 0.29744 0.0
H157 H 0.32402 0.18903 0.32868 0.0
H158 H 0.38182 0.1707 0.40418 0.0
H159 H 0.42224 0.14804 0.37288 0.0
Tb160 Tb 0.63367 0.25067 0.55818 0.0
Tb161 Tb 0.64129 0.30283 0.51928 0.0
C162 C 0.63255 0.20288 0.58439 0.0
C163 C 0.64284 0.19235 0.61355 0.0
C164 C 0.66473 0.1689 0.6154 0.0
C165 C 0.67489 0.1585 0.64249 0.0
C166 C 0.66332 0.17115 0.66862 0.0
C167 C 0.6414 0.19471 0.66672 0.0
C168 C 0.63136 0.20522 0.63958 0.0
C169 C 0.60111 0.2984 0.57367 0.0
C170 C 0.68477 0.29602 0.57655 0.0
C171 C 0.64182 0.35389 0.49951 0.0
C172 C 0.62378 0.37657 0.48302 0.0
C173 C 0.61855 0.40422 0.49609 0.0
C174 C 0.60553 0.42742 0.48021 0.0
C175 C 0.59735 0.42374 0.45063 0.0
C176 C 0.60167 0.3957 0.4378 0.0
C177 C 0.61478 0.37245 0.45374 0.0
C178 C 0.67397 0.25469 0.50407 0.0
C179 C 0.59673 0.25618 0.49705 0.0
O180 O 0.65512 0.20992 0.56678 0.0
O181 O 0.6084 0.22127 0.58315 0.0
O182 O 0.60529 0.28895 0.54797 0.0
O183 O 0.61413 0.28019 0.5915 0.0
O184 O 0.67417 0.2695 0.58043 0.0
O185 O 0.67418 0.31264 0.55515 0.0
O186 O 0.6319 0.34779 0.52555 0.0
O187 O 0.65287 0.33073 0.48544 0.0
O188 O 0.66868 0.26457 0.52934 0.0
O189 O 0.66288 0.27361 0.48578 0.0
O190 O 0.59989 0.28467 0.49945 0.0
O191 O 0.60972 0.23828 0.51654 0.0
H192 H 0.67397 0.15849 0.59577 0.0
H193 H 0.69141 0.14011 0.64291 0.0
H194 H 0.6322 0.20529 0.68626 0.0
H195 H 0.61465 0.22346 0.63905 0.0
H196 H 0.62562 0.40821 0.51849 0.0
H197 H 0.60311 0.44858 0.49091 0.0
H198 H 0.59524 0.39173 0.41526 0.0
H199 H 0.61852 0.35148 0.44292 0.0
Tb200 Tb 0.98436 0.40759 0.7795 0.0
Tb201 Tb 0.0293 0.38598 0.82543 0.0
C202 C 0.94892 0.41356 0.73559 0.0
C203 C 0.92131 0.39983 0.72181 0.0
C204 C 0.91334 0.37098 0.72745 0.0
C205 C 0.88686 0.35866 0.71395 0.0
C206 C 0.86788 0.37502 0.69461 0.0
C207 C 0.87618 0.4039 0.68907 0.0
C208 C 0.90255 0.41613 0.70257 0.0
C209 C 0.98422 0.44069 0.82676 0.0
C210 C 0.96678 0.35252 0.81812 0.0
C211 C 0.06432 0.37999 0.87001 0.0
C212 C 0.07679 0.39615 0.89607 0.0
C213 C 0.05755 0.40202 0.92049 0.0
C214 C 0.07041 0.413 0.94658 0.0
C215 C 0.1029 0.41849 0.94913 0.0
C216 C 0.12194 0.41367 0.92438 0.0
C217 C 0.10909 0.40249 0.89828 0.0
C218 C 0.03384 0.35934 0.77268 0.0
C219 C 0.04835 0.43931 0.78848 0.0
O220 O 0.97555 0.39841 0.73534 0.0
O221 O 0.94395 0.42696 0.76057 0.0
O222 O 0.98648 0.41292 0.8265 0.0
O223 O 0.97982 0.4499 0.80063 0.0
O224 O 0.96125 0.36763 0.79422 0.0
O225 O 0.99077 0.35824 0.83544 0.0
O226 O 0.03402 0.3752 0.86925 0.0
O227 O 0.07515 0.38586 0.84424 0.0
O228 O 0.02838 0.38548 0.77906 0.0
O229 O 0.04016 0.34657 0.79705 0.0
O230 O 0.04888 0.42792 0.81466 0.0
O231 O 0.02674 0.43164 0.76886 0.0
H232 H 0.92757 0.35802 0.74223 0.0
H233 H 0.88105 0.33647 0.71892 0.0
H234 H 0.86255 0.41699 0.67394 0.0
H235 H 0.9084 0.43839 0.69785 0.0
H236 H 0.03261 0.39729 0.91984 0.0
H237 H 0.05487 0.41684 0.96494 0.0
H238 H 0.14709 0.41738 0.9255 0.0
H239 H 0.1247 0.39786 0.88011 0.0
Tb240 Tb 0.89775 0.79328 0.05663 0.0
Tb241 Tb 0.88166 0.74438 0.01332 0.0
C242 C 0.89436 0.83722 0.09064 0.0
C243 C 0.88317 0.84553 0.12035 0.0
C244 C 0.85353 0.83729 0.13065 0.0
C245 C 0.84252 0.84744 0.15788 0.0
C246 C 0.86084 0.86614 0.17551 0.0
C247 C 0.89071 0.87391 0.16521 0.0
C248 C 0.90167 0.86375 0.13804 0.0
C249 C 0.93643 0.74775 0.05809 0.0
C250 C 0.84125 0.74958 0.0701 0.0
C251 C 0.88114 0.69727 0.98374 0.0
C252 C 0.89866 0.67287 0.96864 0.0
C253 C 0.92521 0.65876 0.98117 0.0
C254 C 0.93759 0.63254 0.96892 0.0
C255 C 0.92349 0.61961 0.94409 0.0
C256 C 0.89767 0.63445 0.93112 0.0
C257 C 0.88549 0.66066 0.94321 0.0
C258 C 0.84775 0.79439 1.00867 0.0
C259 C 0.93246 0.78969 0.99609 0.0
O260 O 0.87275 0.8307 0.07122 0.0
O261 O 0.91939 0.81994 0.08856 0.0
O262 O 0.90671 0.74683 0.05428 0.0
O263 O 0.94447 0.7744 0.06359 0.0
O264 O 0.85838 0.77213 0.07848 0.0
O265 O 0.84662 0.73502 0.04554 0.0
O266 O 0.88316 0.69882 0.01214 0.0
O267 O 0.87922 0.72307 0.972 0.0
O268 O 0.87598 0.79042 0.01569 0.0
O269 O 0.83746 0.769 1.00048 0.0
O270 O 0.92539 0.76166 0.99534 0.0
O271 O 0.92021 0.80764 0.01646 0.0
H272 H 0.83861 0.82337 0.11749 0.0
H273 H 0.81961 0.84063 0.1651 0.0
H274 H 0.90538 0.88858 0.17778 0.0
H275 H 0.92445 0.87069 0.13054 0.0
H276 H 0.9357 0.66741 1.00099 0.0
H277 H 0.95743 0.62179 0.9796 0.0
H278 H 0.88652 0.62558 0.91171 0.0
H279 H 0.86485 0.67085 0.93324 0.0
Tb280 Tb 0.49014 0.65437 0.30925 0.0
Tb281 Tb 0.54427 0.63335 0.27227 0.0
C282 C 0.44284 0.65878 0.34221 0.0
C283 C 0.4317 0.64435 0.36855 0.0
C284 C 0.39934 0.63959 0.37168 0.0
C285 C 0.38788 0.62719 0.39692 0.0
C286 C 0.40854 0.61939 0.41979 0.0
C287 C 0.44117 0.62338 0.41619 0.0
C288 C 0.45265 0.63568 0.3908 0.0
C289 C 0.53764 0.69011 0.3091 0.0
C290 C 0.53647 0.60133 0.33018 0.0
C291 C 0.59405 0.62986 0.24232 0.0
C292 C 0.61464 0.64754 0.22395 0.0
C293 C 0.6286 0.67321 0.2346 0.0
C294 C 0.65112 0.68737 0.21805 0.0
C295 C 0.66011 0.67629 0.19045 0.0
C296 C 0.64532 0.65113 0.17956 0.0
C297 C 0.62297 0.63693 0.19613 0.0
C298 C 0.4916 0.6023 0.26808 0.0
C299 C 0.49586 0.68012 0.24696 0.0
O300 O 0.4435 0.64288 0.31832 0.0
O301 O 0.4679 0.67475 0.34513 0.0
O302 O 0.54035 0.66242 0.30982 0.0
O303 O 0.5081 0.698 0.30985 0.0
O304 O 0.50926 0.61613 0.33313 0.0
O305 O 0.55603 0.60653 0.30889 0.0
O306 O 0.5935 0.63604 0.27024 0.0
O307 O 0.5661 0.62333 0.23208 0.0
O308 O 0.49439 0.62918 0.27095 0.0
O309 O 0.51989 0.59105 0.26495 0.0
O310 O 0.52583 0.67124 0.24863 0.0
O311 O 0.47544 0.6732 0.26745 0.0
H312 H 0.38281 0.64579 0.35466 0.0
H313 H 0.36272 0.62385 0.39855 0.0
H314 H 0.4578 0.61784 0.43332 0.0
H315 H 0.47781 0.63885 0.38879 0.0
H316 H 0.62271 0.68201 0.25597 0.0
H317 H 0.66167 0.70689 0.22699 0.0
H318 H 0.65185 0.64172 0.1586 0.0
H319 H 0.61287 0.61705 0.18752 0.0
Tb320 Tb 0.27375 0.48109 0.16042 0.0
Tb321 Tb 0.22301 0.52665 0.17608 0.0
C322 C 0.32253 0.44929 0.15338 0.0
C323 C 0.33275 0.41912 0.16085 0.0
C324 C 0.36021 0.41524 0.17777 0.0
C325 C 0.36953 0.38762 0.1874 0.0
C326 C 0.35178 0.36296 0.18021 0.0
C327 C 0.32471 0.36661 0.16252 0.0
C328 C 0.31511 0.39448 0.15311 0.0
C329 C 0.21661 0.47127 0.13754 0.0
C330 C 0.22985 0.47102 0.21417 0.0
C331 C 0.17434 0.55936 0.17886 0.0
C332 C 0.15075 0.57601 0.16159 0.0
C333 C 0.14887 0.5736 0.13113 0.0
C334 C 0.12464 0.58846 0.1159 0.0
C335 C 0.10175 0.60575 0.13091 0.0
C336 C 0.1042 0.60823 0.1614 0.0
C337 C 0.12836 0.59356 0.17648 0.0
C338 C 0.27705 0.52905 0.2069 0.0
C339 C 0.26918 0.54116 0.12558 0.0
O340 O 0.31792 0.46684 0.17583 0.0
O341 O 0.30094 0.45302 0.13303 0.0
O342 O 0.22969 0.49543 0.1411 0.0
O343 O 0.23611 0.45146 0.14716 0.0
O344 O 0.25852 0.46673 0.2033 0.0
O345 O 0.20981 0.49019 0.20272 0.0
O346 O 0.17366 0.53085 0.17641 0.0
O347 O 0.20322 0.56906 0.18049 0.0
O348 O 0.27292 0.52251 0.18074 0.0
O349 O 0.24962 0.53732 0.21696 0.0
O350 O 0.24097 0.5462 0.13712 0.0
O351 O 0.28721 0.51807 0.13286 0.0
H352 H 0.37427 0.4338 0.18402 0.0
H353 H 0.39078 0.38558 0.20056 0.0
H354 H 0.31051 0.34805 0.15663 0.0
H355 H 0.2937 0.39677 0.14025 0.0
H356 H 0.16583 0.56 0.11922 0.0
H357 H 0.12347 0.58595 0.09246 0.0
H358 H 0.08752 0.62176 0.17369 0.0
H359 H 0.12934 0.59569 0.19998 0.0
Tb360 Tb 0.77626 0.05402 0.90932 0.0
Tb361 Tb 0.7244 0.01392 0.89105 0.0
C362 C 0.8228 0.0876 0.90981 0.0
C363 C 0.83175 0.11596 0.89723 0.0
C364 C 0.85568 0.11655 0.87619 0.0
C365 C 0.86617 0.14308 0.86561 0.0
C366 C 0.85318 0.16987 0.87592 0.0
C367 C 0.82878 0.16922 0.89659 0.0
C368 C 0.81823 0.14267 0.90711 0.0
C369 C 0.72778 0.0561 0.94461 0.0
C370 C 0.72901 0.0706 0.85587 0.0
C371 C 0.67604 0.98285 0.88798 0.0
C372 C 0.65283 0.96713 0.90545 0.0
C373 C 0.66155 0.94369 0.92327 0.0
C374 C 0.63832 0.92766 0.93709 0.0
C375 C 0.60593 0.93474 0.93338 0.0
C376 C 0.59751 0.95863 0.91602 0.0
C377 C 0.62062 0.97453 0.90225 0.0
C378 C 0.77855 1.00846 0.86121 0.0
C379 C 0.77133 0.99359 0.94016 0.0
O380 O 0.81988 0.06549 0.89167 0.0
O381 O 0.80092 0.08805 0.92981 0.0
O382 O 0.72579 0.05387 0.91696 0.0
O383 O 0.75697 0.05916 0.95247 0.0
O384 O 0.75501 0.07628 0.87113 0.0
O385 O 0.71163 0.04805 0.86146 0.0
O386 O 0.67501 1.01133 0.89014 0.0
O387 O 0.70502 0.97231 0.88595 0.0
O388 O 0.77448 0.01356 0.88764 0.0
O389 O 0.75092 1.00352 0.84997 0.0
O390 O 0.74139 0.99478 0.93165 0.0
O391 O 0.79157 0.01318 0.93081 0.0
H392 H 0.86682 0.09641 0.86832 0.0
H393 H 0.88525 0.14256 0.85004 0.0
H394 H 0.81785 0.1893 0.90481 0.0
H395 H 0.79978 0.14317 0.92333 0.0
H396 H 0.68619 0.9374 0.92616 0.0
H397 H 0.64573 0.90962 0.95055 0.0
H398 H 0.57291 0.9645 0.91218 0.0
H399 H 0.61321 0.99227 0.88837 0.0
Tb400 Tb 0.73326 0.98689 0.41096 0.0
Tb401 Tb 0.78597 0.02806 0.3974 0.0
C402 C 0.6877 0.95212 0.40831 0.0
C403 C 0.67907 0.92339 0.39486 0.0
C404 C 0.65875 0.92249 0.37054 0.0
C405 C 0.64761 0.89591 0.35947 0.0
C406 C 0.65621 0.86928 0.37247 0.0
C407 C 0.67728 0.87009 0.39633 0.0
C408 C 0.68844 0.89676 0.40745 0.0
C409 C 0.78033 0.98587 0.44827 0.0
C410 C 0.78379 0.97106 0.35984 0.0
C411 C 0.8341 0.0597 0.39942 0.0
C412 C 0.85472 0.07822 0.4182 0.0
C413 C 0.87199 0.06685 0.44187 0.0
C414 C 0.89501 0.08355 0.45626 0.0
C415 C 0.90141 0.11203 0.44735 0.0
C416 C 0.88334 0.12354 0.42422 0.0
C417 C 0.86043 0.10688 0.40988 0.0
C418 C 0.73365 0.03234 0.3644 0.0
C419 C 0.735 0.04765 0.44396 0.0
O420 O 0.69079 0.97409 0.39093 0.0
O421 O 0.70899 0.95223 0.4291 0.0
O422 O 0.78319 0.98805 0.42091 0.0
O423 O 0.751 0.98236 0.45484 0.0
O424 O 0.75693 0.96523 0.37311 0.0
O425 O 0.80074 0.99372 0.36743 0.0
O426 O 0.83486 0.03153 0.40348 0.0
O427 O 0.80568 0.06954 0.39278 0.0
O428 O 0.7361 0.02732 0.39087 0.0
O429 O 0.7618 0.03792 0.35521 0.0
O430 O 0.76541 0.04709 0.43728 0.0
O431 O 0.71575 0.02769 0.43264 0.0
H432 H 0.6508 0.94249 0.36039 0.0
H433 H 0.6319 0.8963 0.34078 0.0
H434 H 0.68428 0.85019 0.40715 0.0
H435 H 0.70377 0.8965 0.42639 0.0
H436 H 0.86837 0.04478 0.44882 0.0
H437 H 0.90802 0.07399 0.47419 0.0
H438 H 0.88772 0.14512 0.41632 0.0
H439 H 0.84793 0.11609 0.39145 0.0
Tb440 Tb 0.30056 0.51792 0.66325 0.0
Tb441 Tb 0.25205 0.56492 0.64584 0.0
C442 C 0.33232 0.47165 0.67125 0.0
C443 C 0.36358 0.45941 0.66222 0.0
C444 C 0.37445 0.46224 0.63359 0.0
C445 C 0.40203 0.44747 0.62423 0.0
C446 C 0.41966 0.42967 0.64333 0.0
C447 C 0.4094 0.42801 0.67236 0.0
C448 C 0.38162 0.44257 0.68161 0.0
C449 C 0.31272 0.57167 0.68278 0.0
C450 C 0.31297 0.55567 0.60888 0.0
C451 C 0.21768 0.61017 0.64024 0.0
C452 C 0.20146 0.63483 0.65562 0.0
C453 C 0.20764 0.642 0.68492 0.0
C454 C 0.19418 0.66749 0.69769 0.0
C455 C 0.17461 0.68638 0.68126 0.0
C456 C 0.16809 0.6786 0.65211 0.0
C457 C 0.18134 0.65317 0.63951 0.0
C458 C 0.24816 0.51305 0.61826 0.0
C459 C 0.23758 0.5279 0.70072 0.0
O460 O 0.31159 0.47512 0.65025 0.0
O461 O 0.33175 0.49359 0.69004 0.0
O462 O 0.28618 0.56015 0.68011 0.0
O463 O 0.33388 0.55231 0.67461 0.0
O464 O 0.31615 0.52925 0.61965 0.0
O465 O 0.29295 0.57514 0.62021 0.0
O466 O 0.24866 0.61003 0.64063 0.0
O467 O 0.20631 0.58397 0.64252 0.0
O468 O 0.25533 0.51873 0.64402 0.0
O469 O 0.24017 0.53765 0.60652 0.0
O470 O 0.2319 0.55246 0.68678 0.0
O471 O 0.26223 0.51027 0.69436 0.0
H472 H 0.36108 0.47514 0.61808 0.0
H473 H 0.40881 0.44919 0.6017 0.0
H474 H 0.42262 0.41514 0.68796 0.0
H475 H 0.37382 0.4401 0.70379 0.0
H476 H 0.2233 0.62825 0.69771 0.0
H477 H 0.19977 0.6728 0.72017 0.0
H478 H 0.15266 0.69221 0.63894 0.0
H479 H 0.17634 0.64814 0.61683 0.0
H480 H 0.18303 0.33428 0.60893 0.0
H481 H 0.21009 0.35029 0.52053 0.0
H482 H 0.20035 0.38256 0.62359 0.0
H483 H 0.22896 0.39814 0.53531 0.0
H484 H 0.22628 0.49504 0.56411 0.0
H485 H 0.21226 0.44553 0.54864 0.0
H486 H 0.24075 0.41388 0.63302 0.0
H487 H 0.25232 0.46312 0.64871 0.0
C488 C 0.1936 0.34776 0.59276 0.0
C489 C 0.19521 0.33824 0.56357 0.0
C490 C 0.20361 0.37566 0.60115 0.0
C491 C 0.21603 0.39479 0.58068 0.0
C492 C 0.21892 0.3846 0.55169 0.0
C493 C 0.20849 0.35686 0.54325 0.0
C494 C 0.22952 0.47741 0.57921 0.0
C495 C 0.24085 0.48307 0.60749 0.0
C496 C 0.22173 0.44887 0.57034 0.0
C497 C 0.22528 0.42525 0.5895 0.0
C498 C 0.23705 0.43119 0.61763 0.0
C499 C 0.24431 0.45958 0.62654 0.0
H500 H 0.79435 0.99071 0.80491 0.0
H501 H 0.83502 1.01005 0.88917 0.0
H502 H 0.84738 0.97776 0.78641 0.0
H503 H 0.88726 0.99908 0.87074 0.0
H504 H 0.97244 0.94469 0.8415 0.0
H505 H 0.91981 0.95976 0.85788 0.0
H506 H 0.89857 0.99357 0.77268 0.0
H507 H 0.95127 0.97719 0.75623 0.0
C508 C 0.81455 0.99257 0.81935 0.0
C509 C 0.8103 1.00161 0.84849 0.0
C510 C 0.84505 0.98535 0.80875 0.0
C511 C 0.87197 0.98711 0.82706 0.0
C512 C 0.86741 0.99673 0.85598 0.0
C513 C 0.83719 1.00352 0.86652 0.0
C514 C 0.95675 0.95602 0.82656 0.0
C515 C 0.9662 0.96056 0.7979 0.0
C516 C 0.92642 0.96466 0.83586 0.0
C517 C 0.9046 0.97825 0.81676 0.0
C518 C 0.91438 0.98304 0.78803 0.0
C519 C 0.94477 0.97411 0.77868 0.0
H520 H 0.30638 0.6913 0.01589 0.0
H521 H 0.35408 0.70668 0.09787 0.0
H522 H 0.28958 0.644 0.03272 0.0
H523 H 0.33736 0.65923 0.11464 0.0
H524 H 0.33025 0.55975 0.12315 0.0
H525 H 0.34811 0.60561 0.103 0.0
H526 H 0.2541 0.62336 0.06982 0.0
H527 H 0.23633 0.57787 0.09004 0.0
C528 C 0.31295 0.68478 0.03766 0.0
C529 C 0.33134 0.70304 0.05559 0.0
C530 C 0.30337 0.65758 0.04728 0.0
C531 C 0.31236 0.64761 0.07494 0.0
C532 C 0.33038 0.66602 0.09306 0.0
C533 C 0.33956 0.69346 0.0836 0.0
C534 C 0.31367 0.57305 0.11083 0.0
C535 C 0.28194 0.56499 0.10797 0.0
C536 C 0.32375 0.59957 0.09969 0.0
C537 C 0.30246 0.61838 0.08503 0.0
C538 C 0.27118 0.60945 0.08086 0.0
C539 C 0.26101 0.58328 0.09239 0.0
H540 H 0.57882 0.12398 0.28129 0.0
H541 H 0.53294 0.04766 0.31199 0.0
H542 H 0.62984 0.1039 0.29595 0.0
H543 H 0.58469 0.02754 0.32754 0.0
H544 H 0.67505 0.02897 0.38772 0.0
H545 H 0.6241 0.04119 0.36609 0.0
H546 H 0.67032 0.06428 0.28676 0.0
H547 H 0.72192 0.05121 0.30849 0.0
C548 C 0.57961 0.10255 0.29064 0.0
C549 C 0.55161 0.08731 0.29508 0.0
C550 C 0.60908 0.09101 0.29909 0.0
C551 C 0.61158 0.06401 0.31281 0.0
C552 C 0.58364 0.04846 0.31705 0.0
C553 C 0.55399 0.0599 0.3081 0.0
C554 C 0.67451 0.03595 0.36541 0.0
C555 C 0.70274 0.03873 0.34976 0.0
C556 C 0.64509 0.04296 0.35297 0.0
C557 C 0.6429 0.05356 0.3246 0.0
C558 C 0.67111 0.0562 0.30872 0.0
C559 C 0.70069 0.0487 0.32111 0.0
H560 H 0.70842 0.21614 0.53659 0.0
H561 H 0.65818 0.22326 0.45509 0.0
H562 H 0.71958 0.16447 0.52615 0.0
H563 H 0.67012 0.17178 0.444 0.0
H564 H 0.67519 0.07262 0.44077 0.0
H565 H 0.659 0.12198 0.45693 0.0
H566 H 0.75148 0.13398 0.495 0.0
H567 H 0.76722 0.08484 0.47946 0.0
C568 C 0.69979 0.2066 0.5164 0.0
C569 C 0.68231 0.22373 0.49676 0.0
C570 C 0.70634 0.17698 0.51028 0.0
C571 C 0.69571 0.16366 0.48421 0.0
C572 C 0.6783 0.18099 0.46449 0.0
C573 C 0.67181 0.21065 0.47064 0.0
C574 C 0.6917 0.08551 0.45334 0.0
C575 C 0.72248 0.07465 0.45888 0.0
C576 C 0.68261 0.11403 0.46222 0.0
C577 C 0.704 0.1323 0.47705 0.0
C578 C 0.73418 0.12071 0.48389 0.0
C579 C 0.74327 0.09239 0.4749 0.0
H580 H 0.10438 0.44555 0.81736 0.0
H581 H 0.05392 0.47252 0.73999 0.0
H582 H 0.15166 0.46912 0.8004 0.0
H583 H 0.1013 0.49661 0.7234 0.0
H584 H 0.18371 0.55793 0.71639 0.0
H585 H 0.13786 0.53917 0.74064 0.0
H586 H 0.18829 0.45781 0.75491 0.0
H587 H 0.23443 0.47626 0.72992 0.0
C588 C 0.10313 0.45696 0.79699 0.0
C589 C 0.07531 0.45714 0.77997 0.0
C590 C 0.13034 0.47026 0.78725 0.0
C591 C 0.13013 0.48453 0.7606 0.0
C592 C 0.10199 0.48584 0.74414 0.0
C593 C 0.0749 0.47206 0.75361 0.0
C594 C 0.18542 0.53616 0.72502 0.0
C595 C 0.21277 0.51846 0.72086 0.0
C596 C 0.15899 0.52544 0.73881 0.0
C597 C 0.15943 0.49698 0.74925 0.0
C598 C 0.18741 0.4799 0.747 0.0
C599 C 0.21383 0.49048 0.73277 0.0
H600 H 0.83233 0.97235 0.94666 0.0
H601 H 0.73564 0.95262 0.96607 0.0
H602 H 0.84934 0.92442 0.9637 0.0
H603 H 0.75262 0.905 0.98366 0.0
H604 H 0.79065 0.80901 0.98198 0.0
H605 H 0.77201 0.85777 0.9674 0.0
H606 H 0.85643 0.89479 1.00452 0.0
H607 H 0.87513 0.84672 0.01783 0.0
C608 C 0.81477 0.95812 0.95522 0.0
C609 C 0.78263 0.96659 0.95506 0.0
C610 C 0.82448 0.93045 0.96497 0.0
C611 C 0.80237 0.91045 0.97499 0.0
C612 C 0.77034 0.91938 0.97565 0.0
C613 C 0.76064 0.94697 0.96584 0.0
C614 C 0.80503 0.82764 0.98712 0.0
C615 C 0.83434 0.82377 1.00126 0.0
C616 C 0.79435 0.85568 0.97888 0.0
C617 C 0.81276 0.88051 0.98456 0.0
C618 C 0.84174 0.87642 0.99918 0.0
C619 C 0.85233 0.84863 1.00724 0.0
H620 H 0.47914 0.54434 0.25514 0.0
H621 H 0.43385 0.62917 0.26539 0.0
H622 H 0.42732 0.52346 0.24325 0.0
H623 H 0.38271 0.60831 0.2553 0.0
H624 H 0.29142 0.55562 0.25965 0.0
H625 H 0.34382 0.57047 0.27719 0.0
H626 H 0.38643 0.53288 0.19975 0.0
H627 H 0.33443 0.51948 0.1817 0.0
C628 C 0.45821 0.55841 0.25539 0.0
C629 C 0.4607 0.58835 0.26187 0.0
C630 C 0.42856 0.54649 0.24864 0.0
C631 C 0.40079 0.56418 0.24886 0.0
C632 C 0.40342 0.59395 0.25564 0.0
C633 C 0.4329 0.60588 0.26159 0.0
C634 C 0.31202 0.55024 0.24658 0.0
C635 C 0.30868 0.53591 0.21947 0.0
C636 C 0.34202 0.55872 0.2566 0.0
C637 C 0.36937 0.55253 0.23999 0.0
C638 C 0.36603 0.53744 0.21335 0.0
C639 C 0.3361 0.52964 0.20307 0.0
H640 H 0.48655 0.18664 0.3529 0.0
H641 H 0.57695 0.20297 0.31401 0.0
H642 H 0.50654 0.20288 0.40001 0.0
H643 H 0.59658 0.22041 0.3617 0.0
H644 H 0.59204 0.28468 0.44591 0.0
H645 H 0.57531 0.26603 0.39851 0.0
H646 H 0.55595 0.18304 0.43592 0.0
H647 H 0.57393 0.20139 0.48384 0.0
C648 C 0.51061 0.1941 0.35419 0.0
C649 C 0.53008 0.1937 0.32938 0.0
C650 C 0.52209 0.20309 0.3814 0.0
C651 C 0.55313 0.21259 0.38457 0.0
C652 C 0.57253 0.21301 0.35981 0.0
C653 C 0.56126 0.20323 0.33252 0.0
C654 C 0.58404 0.26246 0.44432 0.0
C655 C 0.58389 0.24464 0.46896 0.0
C656 C 0.57482 0.25175 0.41697 0.0
C657 C 0.56452 0.22312 0.41351 0.0
C658 C 0.56388 0.20525 0.43806 0.0
C659 C 0.57397 0.21577 0.46546 0.0
H660 H 0.12072 0.33571 0.60258 0.0
H661 H 0.04087 0.27956 0.59503 0.0
H662 H 0.1056 0.34911 0.65242 0.0
H663 H 0.02606 0.29236 0.64566 0.0
H664 H 0.03955 0.3025 0.75062 0.0
H665 H 0.05161 0.28688 0.70006 0.0
H666 H 0.05759 0.37686 0.67601 0.0
H667 H 0.04505 0.3923 0.72564 0.0
C668 C 0.09978 0.32633 0.61158 0.0
C669 C 0.08173 0.30693 0.59465 0.0
C670 C 0.09113 0.33396 0.64021 0.0
C671 C 0.06462 0.3218 0.65323 0.0
C672 C 0.04668 0.30205 0.63642 0.0
C673 C 0.05493 0.29497 0.60733 0.0
C674 C 0.04337 0.31887 0.73447 0.0
C675 C 0.04135 0.34867 0.74237 0.0
C676 C 0.05009 0.30995 0.70546 0.0
C677 C 0.05565 0.33062 0.68387 0.0
C678 C 0.05365 0.36031 0.69196 0.0
C679 C 0.04636 0.36916 0.72056 0.0
H680 H 0.01454 0.8149 0.82396 0.0
H681 H 0.95003 0.88807 0.83595 0.0
H682 H 0.99905 0.79582 0.87064 0.0
H683 H 0.9368 0.87137 0.88379 0.0
H684 H 0.9008 0.82854 0.96326 0.0
H685 H 0.91301 0.84426 0.91496 0.0
H686 H 1.0021 0.79568 0.91875 0.0
H687 H 0.98747 0.77757 0.9662 0.0
C688 C 0.99677 0.82673 0.83665 0.0
C689 C 0.98289 0.85253 0.82608 0.0
C690 C 0.98826 0.81619 0.86388 0.0
C691 C 0.96664 0.83189 0.88196 0.0
C692 C 0.95277 0.85778 0.87088 0.0
C693 C 0.96038 0.86761 0.84321 0.0
C694 C 0.92319 0.82157 0.95382 0.0
C695 C 0.94347 0.80229 0.96869 0.0
C696 C 0.93045 0.83072 0.92587 0.0
C697 C 0.95889 0.8217 0.91213 0.0
C698 C 0.97961 0.80285 0.92769 0.0
C699 C 0.97163 0.79277 0.9553 0.0
H700 H 0.53134 0.6931 0.19973 0.0
H701 H 0.43493 0.69483 0.23017 0.0
H702 H 0.513 0.70652 0.15147 0.0
H703 H 0.41661 0.70851 0.18158 0.0
H704 H 0.40035 0.75968 0.0972 0.0
H705 H 0.41835 0.74861 0.14603 0.0
H706 H 0.48279 0.68287 0.11068 0.0
H707 H 0.4649 0.69474 0.06133 0.0
C708 C 0.50621 0.69671 0.19632 0.0
C709 C 0.48463 0.69283 0.21903 0.0
C710 C 0.4957 0.70413 0.16845 0.0
C711 C 0.46333 0.70822 0.16248 0.0
C712 C 0.44175 0.70558 0.18543 0.0
C713 C 0.45226 0.69783 0.21335 0.0
C714 C 0.41891 0.74352 0.09961 0.0
C715 C 0.43191 0.72892 0.07517 0.0
C716 C 0.42883 0.73667 0.1278 0.0
C717 C 0.45225 0.71503 0.13238 0.0
C718 C 0.46503 0.70002 0.10794 0.0
C719 C 0.45471 0.70669 0.07968 0.0
H720 H 0.12299 0.39064 0.35239 0.0
H721 H 0.2199 0.37947 0.38056 0.0
H722 H 0.14042 0.41331 0.30823 0.0
H723 H 0.23757 0.40295 0.33647 0.0
H724 H 0.26081 0.42553 0.24187 0.0
H725 H 0.24433 0.40016 0.28529 0.0
H726 H 0.16074 0.45599 0.29043 0.0
H727 H 0.17658 0.48037 0.24678 0.0
C728 C 0.14809 0.39335 0.34936 0.0
C729 C 0.16994 0.38341 0.37037 0.0
C730 C 0.15818 0.4065 0.3239 0.0
C731 C 0.19054 0.41046 0.31855 0.0
C732 C 0.21249 0.40012 0.33942 0.0
C733 C 0.20235 0.38669 0.36487 0.0
C734 C 0.23883 0.43226 0.2522 0.0
C735 C 0.21999 0.45496 0.24052 0.0
C736 C 0.22943 0.41781 0.27733 0.0
C737 C 0.20099 0.42573 0.29164 0.0
C738 C 0.18239 0.4486 0.27993 0.0
C739 C 0.19163 0.46282 0.25479 0.0
H740 H 0.93653 0.94986 0.57323 0.0
H741 H 0.84634 0.9438 0.61569 0.0
H742 H 0.90943 0.96504 0.52847 0.0
H743 H 0.81958 0.95869 0.57149 0.0
H744 H 0.77699 1.01023 0.50158 0.0
H745 H 0.81126 1.00103 0.54315 0.0
H746 H 0.87396 0.94865 0.48849 0.0
H747 H 0.83965 0.95901 0.44623 0.0
C748 C 0.91097 0.95167 0.57305 0.0
C749 C 0.89372 0.946 0.59836 0.0
C750 C 0.89544 0.96037 0.54735 0.0
C751 C 0.86227 0.96362 0.54635 0.0
C752 C 0.84516 0.95735 0.57153 0.0
C753 C 0.86058 0.94876 0.59704 0.0
C754 C 0.79851 0.99731 0.49827 0.0
C755 C 0.80557 0.9852 0.47074 0.0
C756 C 0.81802 0.99173 0.5222 0.0
C757 C 0.84496 0.97333 0.51951 0.0
C758 C 0.85336 0.96284 0.49145 0.0
C759 C 0.83383 0.96882 0.46719 0.0
H760 H 0.37016 0.59107 0.70147 0.0
H761 H 0.27011 0.60146 0.71721 0.0
H762 H 0.38117 0.62101 0.74474 0.0
H763 H 0.28095 0.63084 0.76076 0.0
H764 H 0.31063 0.6989 0.82894 0.0
H765 H 0.30029 0.67527 0.78189 0.0
H766 H 0.37887 0.61529 0.79625 0.0
H767 H 0.39002 0.63964 0.84249 0.0
C768 C 0.3505 0.60011 0.71394 0.0
C769 C 0.31928 0.59381 0.70593 0.0
C770 C 0.35679 0.61703 0.73896 0.0
C771 C 0.332 0.62805 0.75666 0.0
C772 C 0.30069 0.62296 0.7477 0.0
C773 C 0.29443 0.60608 0.72266 0.0
C774 C 0.32589 0.68084 0.82195 0.0
C775 C 0.35113 0.6712 0.83974 0.0
C776 C 0.31978 0.66709 0.79502 0.0
C777 C 0.33879 0.64336 0.78504 0.0
C778 C 0.36398 0.63376 0.80286 0.0
C779 C 0.37008 0.64746 0.82973 0.0
H780 H 0.61675 0.05457 0.10427 0.0
H781 H 0.61038 0.14271 0.07327 0.0
H782 H 0.64197 0.03867 0.05902 0.0
H783 H 0.63551 0.12665 0.02779 0.0
H784 H 0.6695 0.08517 0.94087 0.0
H785 H 0.63348 0.09677 0.98171 0.0
H786 H 0.69347 0.04543 0.03838 0.0
H787 H 0.72879 0.03417 0.9981 0.0
C788 C 0.62067 0.07064 0.08785 0.0
C789 C 0.61179 0.1001 0.09289 0.0
C790 C 0.6351 0.06145 0.06173 0.0
C791 C 0.64115 0.08136 0.03965 0.0
C792 C 0.63101 0.11058 0.04407 0.0
C793 C 0.61659 0.11981 0.07029 0.0
C794 C 0.67432 0.07578 0.9619 0.0
C795 C 0.70185 0.0586 0.96625 0.0
C796 C 0.65397 0.0827 0.98542 0.0
C797 C 0.6605 0.07214 0.01356 0.0
C798 C 0.68726 0.05374 0.01718 0.0
C799 C 0.70763 0.04728 0.994 0.0
H800 H 0.62737 0.16375 0.71743 0.0
H801 H 0.72269 0.15176 0.68576 0.0
H802 H 0.64346 0.14309 0.7638 0.0
H803 H 0.73859 0.13023 0.73192 0.0
H804 H 0.76294 0.11249 0.82796 0.0
H805 H 0.74763 0.13912 0.78411 0.0
H806 H 0.65809 0.09603 0.78237 0.0
H807 H 0.67302 0.07 0.82594 0.0
C808 C 0.65184 0.15694 0.72036 0.0
C809 C 0.67361 0.15941 0.69758 0.0
C810 C 0.66105 0.14475 0.74696 0.0
C811 C 0.69237 0.13472 0.75176 0.0
C812 C 0.71434 0.13785 0.72925 0.0
C813 C 0.70509 0.14991 0.70256 0.0
C814 C 0.73984 0.109 0.81841 0.0
C815 C 0.7193 0.089 0.83066 0.0
C816 C 0.73114 0.12409 0.79308 0.0
C817 C 0.70155 0.11981 0.7795 0.0
C818 C 0.68085 0.10032 0.79225 0.0
C819 C 0.68958 0.08517 0.8173 0.0
H820 H 0.19132 0.50962 0.09816 0.0
H821 H 0.19312 0.41867 0.12024 0.0
H822 H 0.16194 0.49812 0.05352 0.0
H823 H 0.16388 0.4071 0.07564 0.0
H824 H 0.08952 0.39877 1.00356 0.0
H825 H 0.11322 0.41286 0.05013 0.0
H826 H 0.17271 0.47299 1.00649 0.0
H827 H 0.14853 0.45928 0.95988 0.0
C828 C 0.18502 0.48722 0.09372 0.0
C829 C 0.19464 0.46505 0.1128 0.0
C830 C 0.16844 0.48057 0.06795 0.0
C831 C 0.16072 0.45161 0.06069 0.0
C832 C 0.16917 0.42966 0.08048 0.0
C833 C 0.18599 0.43628 0.1061 0.0
C834 C 0.10736 0.41529 1.00386 0.0
C835 C 0.117 0.42788 0.97779 0.0
C836 C 0.12121 0.42317 0.03063 0.0
C837 C 0.14497 0.44408 0.03223 0.0
C838 C 0.15428 0.45703 1.00623 0.0
C839 C 0.14062 0.44894 0.9794 0.0
H840 H 0.84069 0.97276 0.33221 0.0
H841 H 0.75243 0.92745 0.32996 0.0
H842 H 0.85823 0.94555 0.28925 0.0
H843 H 0.77038 0.89967 0.2868 0.0
H844 H 0.8001 0.88424 0.18965 0.0
H845 H 0.78129 0.90663 0.23514 0.0
H846 H 0.87518 0.89799 0.27175 0.0
H847 H 0.89394 0.87551 0.22644 0.0
C848 C 0.82505 0.95676 0.32275 0.0
C849 C 0.79503 0.95243 0.33473 0.0
C850 C 0.83527 0.94094 0.29807 0.0
C851 C 0.81584 0.92027 0.28439 0.0
C852 C 0.78592 0.91559 0.29653 0.0
C853 C 0.7757 0.93137 0.32146 0.0
C854 C 0.81668 0.88666 0.20752 0.0
C855 C 0.84871 0.87818 0.20406 0.0
C856 C 0.80584 0.89956 0.2337 0.0
C857 C 0.82669 0.90442 0.25721 0.0
C858 C 0.85849 0.89519 0.25401 0.0
C859 C 0.86931 0.88228 0.2279 0.0
H860 H 0.3207 0.61027 0.58862 0.0
H861 H 0.3459 0.52003 0.56998 0.0
H862 H 0.34552 0.62443 0.54392 0.0
H863 H 0.37033 0.53429 0.52439 0.0
H864 H 0.43367 0.57667 0.45523 0.0
H865 H 0.4133 0.56064 0.50178 0.0
H866 H 0.33362 0.62059 0.49326 0.0
H867 H 0.35456 0.6375 0.44787 0.0
C868 C 0.33157 0.59337 0.57496 0.0
C869 C 0.33096 0.56394 0.5828 0.0
C870 C 0.34568 0.60152 0.54914 0.0
C871 C 0.35943 0.58049 0.53016 0.0
C872 C 0.36 0.55109 0.53849 0.0
C873 C 0.34595 0.5429 0.56459 0.0
C874 C 0.41194 0.58659 0.46344 0.0
C875 C 0.39583 0.60845 0.44767 0.0
C876 C 0.40008 0.57716 0.49 0.0
C877 C 0.37191 0.58944 0.50147 0.0
C878 C 0.35566 0.61095 0.48544 0.0
C879 C 0.36748 0.62038 0.45907 0.0
H880 H 0.19151 0.19381 0.49179 0.0
H881 H 0.21008 0.28347 0.47401 0.0
H882 H 0.23103 0.17785 0.45594 0.0
H883 H 0.25012 0.2678 0.43826 0.0
H884 H 0.30727 0.22803 0.36115 0.0
H885 H 0.26312 0.24416 0.39201 0.0
H886 H 0.28732 0.17644 0.45261 0.0
H887 H 0.33051 0.15972 0.42142 0.0
C888 C 0.20351 0.2101 0.47955 0.0
C889 C 0.19716 0.23985 0.48513 0.0
C890 C 0.22659 0.20101 0.4593 0.0
C891 C 0.24429 0.22145 0.44425 0.0
C892 C 0.23692 0.25133 0.44909 0.0
C893 C 0.2138 0.26039 0.46945 0.0
C894 C 0.30307 0.21641 0.38095 0.0
C895 C 0.32276 0.19248 0.38861 0.0
C896 C 0.2778 0.22587 0.39884 0.0
C897 C 0.27125 0.21159 0.42488 0.0
C898 C 0.29108 0.18779 0.43257 0.0
C899 C 0.31633 0.17843 0.41479 0.0
H900 H 0.1484 0.08604 0.64238 0.0
H901 H 0.05168 0.11827 0.64361 0.0
H902 H 0.1319 0.0403 0.66267 0.0
H903 H 0.03533 0.07286 0.66503 0.0
H904 H 0.0116 0.97776 0.68278 0.0
H905 H 0.02793 0.02112 0.65722 0.0
H906 H 0.11428 0.02205 0.70779 0.0
H907 H 0.09841 0.97873 0.73271 0.0
C908 C 0.12354 0.08337 0.64675 0.0
C909 C 0.10147 0.10612 0.64131 0.0
C910 C 0.11408 0.05714 0.65878 0.0
C911 C 0.08222 0.05272 0.6658 0.0
C912 C 0.06002 0.07522 0.65978 0.0
C913 C 0.0695 0.1015 0.64778 0.0
C914 C 0.03422 0.98704 0.68823 0.0
C915 C 0.05362 0.97453 0.70988 0.0
C916 C 0.04351 1.01211 0.67371 0.0
C917 C 0.07251 0.02531 0.68033 0.0
C918 C 0.09204 1.01243 0.70165 0.0
C919 C 0.08277 0.98751 0.71615 0.0
H920 H 0.1586 0.84759 0.92703 0.0
H921 H 0.22131 0.84052 0.85337 0.0
H922 H 0.20132 0.83096 0.95878 0.0
H923 H 0.26404 0.82321 0.88536 0.0
H924 H 0.32522 0.77198 0.95665 0.0
H925 H 0.28275 0.7824 0.92107 0.0
H926 H 0.25079 0.8556 0.97449 0.0
H927 H 0.29288 0.84568 1.00917 0.0
C928 C 0.18144 0.84242 0.91751 0.0
C929 C 0.18645 0.84598 0.88758 0.0
C930 C 0.20596 0.83274 0.93576 0.0
C931 C 0.23626 0.8261 0.9247 0.0
C932 C 0.24096 0.82803 0.89457 0.0
C933 C 0.21638 0.83794 0.87623 0.0
C934 C 0.30939 0.79049 0.96045 0.0
C935 C 0.31263 0.80809 0.98566 0.0
C936 C 0.28499 0.7964 0.94018 0.0
C937 C 0.26311 0.81966 0.94511 0.0
C938 C 0.26677 0.83723 0.9702 0.0
C939 C 0.29112 0.83158 0.99006 0.0
H940 H 0.41255 0.07396 0.22314 0.0
H941 H 0.50621 0.06186 0.18757 0.0
H942 H 0.39581 0.0299 0.19799 0.0
H943 H 0.48969 0.0169 0.16296 0.0
H944 H 0.44337 0.94629 0.10612 0.0
H945 H 0.45819 0.99387 0.12588 0.0
H946 H 0.40268 0.97919 0.20244 0.0
H947 H 0.38659 0.93264 0.18208 0.0
C948 C 0.42963 0.06191 0.20987 0.0
C949 C 0.46084 0.07143 0.20761 0.0
C950 C 0.42005 0.0364 0.19556 0.0
C951 C 0.44145 0.01933 0.17875 0.0
C952 C 0.47241 0.02945 0.17553 0.0
C953 C 0.48196 0.05525 0.18971 0.0
C954 C 0.43388 0.95342 0.12695 0.0
C955 C 0.41373 0.93541 0.14243 0.0
C956 C 0.44275 0.98063 0.13849 0.0
C957 C 0.4317 0.99061 0.16583 0.0
C958 C 0.41137 0.97264 0.18114 0.0
C959 C 0.40244 0.94559 0.1696 0.0
H960 H 0.86158 0.3196 0.67169 0.0
H961 H 0.81021 0.40138 0.68423 0.0
H962 H 0.81652 0.29993 0.64496 0.0
H963 H 0.76541 0.38181 0.6574 0.0
H964 H 0.7102 0.35023 0.57713 0.0
H965 H 0.75337 0.36819 0.60711 0.0
H966 H 0.76108 0.2852 0.64951 0.0
H967 H 0.71793 0.26694 0.61915 0.0
C968 C 0.84056 0.33327 0.6691 0.0
C969 C 0.83972 0.3622 0.67991 0.0
C970 C 0.81471 0.32199 0.65375 0.0
C971 C 0.78743 0.33937 0.64878 0.0
C972 C 0.78628 0.368 0.66029 0.0
C973 C 0.81202 0.37924 0.67567 0.0
C974 C 0.72097 0.33574 0.59286 0.0
C975 C 0.71053 0.30708 0.59563 0.0
C976 C 0.74566 0.34615 0.61022 0.0
C977 C 0.76069 0.32818 0.6308 0.0
C978 C 0.75022 0.29953 0.63369 0.0
C979 C 0.72535 0.28913 0.61638 0.0
H980 H 0.9462 0.43876 0.87524 0.0
H981 H 0.01579 0.4903 0.8336 0.0
H982 H 0.9333 0.48015 0.90836 0.0
H983 H 1.00333 0.5313 0.8663 0.0
H984 H 0.98482 0.59889 0.93723 0.0
H985 H 1.00301 0.55245 0.91536 0.0
H986 H 0.90618 0.52796 0.90144 0.0
H987 H 0.88805 0.57402 0.92376 0.0
C988 C 0.95957 0.4585 0.87393 0.0
C989 C 0.9823 0.46119 0.85211 0.0
C990 C 0.95189 0.48241 0.89257 0.0
C991 C 0.96708 0.50932 0.88995 0.0
C992 C 0.99129 0.51104 0.86931 0.0
C993 C 0.99854 0.48745 0.85054 0.0
C994 C 0.96739 0.58346 0.92987 0.0
C995 C 0.93492 0.59053 0.93204 0.0
C996 C 0.97783 0.55682 0.91715 0.0
C997 C 0.95612 0.53628 0.90649 0.0
C998 C 0.92367 0.54296 0.90961 0.0
C999 C 0.91324 0.56966 0.92207 0.0
H1000 H 0.80072 0.70512 0.05916 0.0
H1001 H 0.82166 0.77213 0.12333 0.0
H1002 H 0.75717 0.68946 0.08854 0.0
H1003 H 0.77724 0.75676 0.15259 0.0
H1004 H 0.71618 0.69834 0.21064 0.0
H1005 H 0.75947 0.71733 0.1824 0.0
H1006 H 0.70515 0.70443 0.10352 0.0
H1007 H 0.66207 0.68532 0.13169 0.0
C1008 C 0.79602 0.71667 0.07951 0.0
C1009 C 0.81484 0.74004 0.08872 0.0
C1010 C 0.77073 0.70778 0.09631 0.0
C1011 C 0.76333 0.72196 0.1229 0.0
C1012 C 0.7823 0.74518 0.13234 0.0
C1013 C 0.80771 0.75412 0.11545 0.0
C1014 C 0.71328 0.69994 0.18731 0.0
C1015 C 0.68563 0.69005 0.17348 0.0
C1016 C 0.73816 0.71085 0.17108 0.0
C1017 C 0.73608 0.71219 0.14056 0.0
C1018 C 0.708 0.70313 0.12688 0.0
C1019 C 0.6832 0.69219 0.14307 0.0
H1020 H 0.55853 0.47036 0.46762 0.0
H1021 H 0.61051 0.43573 0.39363 0.0
H1022 H 0.54368 0.51357 0.44011 0.0
H1023 H 0.59442 0.47808 0.36579 0.0
H1024 H 0.59232 0.57026 0.33333 0.0
H1025 H 0.60542 0.52816 0.36249 0.0
H1026 H 0.51251 0.53325 0.40078 0.0
H1027 H 0.49956 0.5762 0.37184 0.0
C1028 C 0.56674 0.47181 0.44546 0.0
C1029 C 0.58599 0.44934 0.43307 0.0
C1030 C 0.55787 0.49656 0.42952 0.0
C1031 C 0.56798 0.4997 0.40066 0.0
C1032 C 0.58657 0.47691 0.38808 0.0
C1033 C 0.59546 0.45222 0.404 0.0
C1034 C 0.5746 0.56262 0.34804 0.0
C1035 C 0.54476 0.57677 0.35 0.0
C1036 C 0.58208 0.53813 0.36468 0.0
C1037 C 0.55995 0.52674 0.38384 0.0
C1038 C 0.53031 0.54133 0.38643 0.0
C1039 C 0.52282 0.56601 0.36975 0.0
H1040 H 0.35647 0.31008 0.15077 0.0
H1041 H 0.36958 0.34994 0.23564 0.0
H1042 H 0.37971 0.26423 0.16855 0.0
H1043 H 0.39212 0.30431 0.25351 0.0
H1044 H 0.47758 0.24025 0.25627 0.0
H1045 H 0.44246 0.28084 0.24448 0.0
H1046 H 0.37838 0.2216 0.20178 0.0
H1047 H 0.41439 0.18036 0.21382 0.0
C1048 C 0.36369 0.30887 0.17336 0.0
C1049 C 0.36176 0.33385 0.19162 0.0
C1050 C 0.37689 0.28255 0.18361 0.0
C1051 C 0.38828 0.28061 0.2124 0.0
C1052 C 0.38432 0.30511 0.23106 0.0
C1053 C 0.3714 0.33134 0.2208 0.0
C1054 C 0.45562 0.23573 0.24496 0.0
C1055 C 0.44868 0.20716 0.23606 0.0
C1056 C 0.43534 0.25907 0.23824 0.0
C1057 C 0.40746 0.25466 0.22211 0.0
C1058 C 0.39975 0.22581 0.21408 0.0
C1059 C 0.4201 0.20216 0.22124 0.0
H1060 H 0.96772 0.32257 0.86871 0.0
H1061 H 0.92017 0.32544 0.78536 0.0
H1062 H 0.93826 0.28016 0.88129 0.0
H1063 H 0.88992 0.28268 0.79835 0.0
H1064 H 0.87274 0.18484 0.82114 0.0
H1065 H 0.89727 0.22993 0.80657 0.0
H1066 H 0.88655 0.26476 0.89396 0.0
H1067 H 0.86319 0.21953 0.90872 0.0
C1068 C 0.95072 0.31436 0.85305 0.0
C1069 C 0.94648 0.32765 0.82591 0.0
C1070 C 0.93356 0.28998 0.86044 0.0
C1071 C 0.91148 0.27787 0.84097 0.0
C1072 C 0.90688 0.29123 0.81384 0.0
C1073 C 0.92407 0.31591 0.80646 0.0
C1074 C 0.87568 0.20209 0.83728 0.0
C1075 C 0.86606 0.19827 0.86622 0.0
C1076 C 0.88944 0.22814 0.82881 0.0
C1077 C 0.89417 0.25107 0.84907 0.0
C1078 C 0.88376 0.24752 0.87778 0.0
C1079 C 0.86995 0.22158 0.88621 0.0
H1080 H 0.03943 0.61225 0.14661 0.0
H1081 H 0.10467 0.63535 0.07962 0.0
H1082 H 0.99833 0.64276 0.12433 0.0
H1083 H 0.06322 0.66519 0.05682 0.0
H1084 H 0.99993 0.74926 0.05692 0.0
H1085 H 0.0382 0.7115 0.07018 0.0
H1086 H 0.96252 0.65162 0.08251 0.0
H1087 H 0.92377 0.69008 0.06921 0.0
C1088 C 0.04496 0.62363 0.12695 0.0
C1089 C 0.07563 0.62164 0.11522 0.0
C1090 C 0.02119 0.64085 0.11394 0.0
C1091 C 0.0274 0.65668 0.08885 0.0
C1092 C 0.05765 0.65362 0.07634 0.0
C1093 C 0.0814 0.63629 0.0893 0.0
C1094 C 0.99139 0.72791 0.06205 0.0
C1095 C 0.95881 0.72273 0.06225 0.0
C1096 C 0.01343 0.70612 0.06947 0.0
C1097 C 1.00359 0.67842 0.07755 0.0
C1098 C 0.97094 0.67279 0.07668 0.0
C1099 C 0.94874 0.6947 0.06888 0.0
H1100 H 0.68433 0.81413 0.36729 0.0
H1101 H 0.59536 0.86028 0.35437 0.0
H1102 H 0.66038 0.76888 0.34971 0.0
H1103 H 0.57167 0.81556 0.33709 0.0
H1104 H 0.54025 0.74151 0.28285 0.0
H1105 H 0.57196 0.78316 0.29635 0.0
H1106 H 0.62162 0.73136 0.36027 0.0
H1107 H 0.59009 0.68899 0.3457 0.0
C1108 C 0.65967 0.81469 0.36083 0.0
C1109 C 0.64201 0.84118 0.36194 0.0
C1110 C 0.64592 0.78866 0.35073 0.0
C1111 C 0.61412 0.7884 0.34143 0.0
C1112 C 0.59645 0.81482 0.34313 0.0
C1113 C 0.61011 0.84067 0.35313 0.0
C1114 C 0.55853 0.73877 0.29927 0.0
C1115 C 0.56268 0.71198 0.31317 0.0
C1116 C 0.57648 0.76282 0.30734 0.0
C1117 C 0.59886 0.7611 0.33007 0.0
C1118 C 0.6046 0.73364 0.34273 0.0
C1119 C 0.58668 0.70926 0.33431 0.0
H1120 H 0.56333 0.3338 0.53954 0.0
H1121 H 0.58448 0.31329 0.62888 0.0
H1122 H 0.52039 0.36715 0.55592 0.0
H1123 H 0.54197 0.3463 0.64512 0.0
H1124 H 0.43858 0.3746 0.6594 0.0
H1125 H 0.48352 0.34536 0.64211 0.0
H1126 H 0.50891 0.41408 0.58473 0.0
H1127 H 0.46426 0.44399 0.60265 0.0
C1128 C 0.55901 0.33664 0.56263 0.0
C1129 C 0.57708 0.32073 0.58291 0.0
C1130 C 0.53451 0.35576 0.57203 0.0
C1131 C 0.52748 0.3591 0.60184 0.0
C1132 C 0.54634 0.34386 0.62201 0.0
C1133 C 0.57084 0.32503 0.61268 0.0
C1134 C 0.45395 0.38387 0.64351 0.0
C1135 C 0.44769 0.41194 0.63274 0.0
C1136 C 0.47972 0.36695 0.63346 0.0
C1137 C 0.49993 0.3774 0.61211 0.0
C1138 C 0.49364 0.40528 0.60101 0.0
C1139 C 0.46796 0.4224 0.6113 0.0
H1140 H 0.14824 0.6955 0.73528 0.0
H1141 H 0.1696 0.74011 0.65634 0.0
H1142 H 0.12114 0.73955 0.75413 0.0
H1143 H 0.14197 0.78388 0.6749 0.0
H1144 H 0.1021 0.86506 0.72228 0.0
H1145 H 0.13987 0.82443 0.71213 0.0
H1146 H 0.07097 0.76349 0.74062 0.0
H1147 H 0.03382 0.8036 0.75049 0.0
C1148 C 0.14757 0.71479 0.7221 0.0
C1149 C 0.16077 0.71405 0.69411 0.0
C1150 C 0.13185 0.74003 0.73283 0.0
C1151 C 0.12914 0.76528 0.71597 0.0
C1152 C 0.14374 0.76498 0.6886 0.0
C1153 C 0.15925 0.73971 0.67779 0.0
C1154 C 0.09545 0.843 0.72686 0.0
C1155 C 0.06498 0.83745 0.73695 0.0
C1156 C 0.11691 0.81972 0.72089 0.0
C1157 C 0.10844 0.79059 0.72544 0.0
C1158 C 0.07853 0.7855 0.73709 0.0
C1159 C 0.0571 0.80855 0.74259 0.0
H1160 H 0.44635 0.86187 0.02715 0.0
H1161 H 0.46786 0.80061 0.957 0.0
H1162 H 0.48983 0.89198 0.01214 0.0
H1163 H 0.51073 0.83096 0.9417 0.0
H1164 H 0.60503 0.87517 0.93807 0.0
H1165 H 0.56262 0.8456 0.95608 0.0
H1166 H 0.5066 0.92368 0.97454 0.0
H1167 H 0.54957 0.95329 0.95773 0.0
C1168 C 0.46011 0.85491 1.00838 0.0
C1169 C 0.4535 0.82869 0.99337 0.0
C1170 C 0.48506 0.87226 0.99971 0.0
C1171 C 0.50407 0.86389 0.97578 0.0
C1172 C 0.49711 0.83788 0.96057 0.0
C1173 C 0.47225 0.82054 0.96924 0.0
C1174 C 0.58393 0.8861 0.94645 0.0
C1175 C 0.58081 0.91669 0.94629 0.0
C1176 C 0.55934 0.86909 0.95642 0.0
C1177 C 0.5309 0.88215 0.96653 0.0
C1178 C 0.52813 0.91278 0.96709 0.0
C1179 C 0.55271 0.92979 0.95713 0.0
H1180 H 0.90232 0.17102 0.45942 0.0
H1181 H 0.96007 0.09255 0.46661 0.0
H1182 H 0.94593 0.19973 0.478 0.0
H1183 H 1.00375 0.1214 0.48548 0.0
H1184 H 0.06807 0.18281 0.54064 0.0
H1185 H 0.02358 0.15239 0.52594 0.0
H1186 H 0.99656 0.21494 0.46091 0.0
H1187 H 0.04027 0.24518 0.47558 0.0
C1188 C 0.92431 0.1598 0.46488 0.0
C1189 C 0.92751 0.12934 0.46113 0.0
C1190 C 0.94944 0.17635 0.47559 0.0
C1191 C 0.97867 0.16303 0.48301 0.0
C1192 C 0.9816 0.13246 0.48025 0.0
C1193 C 0.95642 0.11587 0.46942 0.0
C1194 C 0.05262 0.19005 0.52321 0.0
C1195 C 0.05794 0.2166 0.50941 0.0
C1196 C 0.02714 0.17253 0.51469 0.0
C1197 C 1.00616 0.18122 0.49233 0.0
C1198 C 0.0117 0.20767 0.47855 0.0
C1199 C 0.0371 0.225 0.48689 0.0
loop_
_geom_bond_atom_site_label_1
_geom_bond_atom_site_label_2
_geom_bond_distance
_geom_bond_site_symmetry_2
_ccdc_geom_bond_type
Tb0 C2 2.809 . S
Tb0 O20 2.484 . S
Tb0 O21 2.440 . S
Tb0 O22 2.658 . S
Tb0 O23 2.409 . S
Tb0 O24 2.378 . S
Tb0 O28 2.325 . S
Tb0 O31 2.341 . S
Tb1 C11 2.809 . S
Tb1 O22 2.325 . S
Tb1 O25 2.341 . S
Tb1 O26 2.484 . S
Tb1 O27 2.440 . S
Tb1 O28 2.658 . S
Tb1 O29 2.409 . S
Tb1 O30 2.378 . S
C2 Tb0 2.809 . S
C2 C3 1.514 . S
C2 O20 1.248 . S
C2 O21 1.266 . S
C3 C2 1.514 . S
C3 C4 1.359 . S
C3 C8 1.348 . S
C4 C3 1.359 . S
C4 C5 1.380 . S
C4 H32 0.929 . S
C5 C4 1.380 . S
C5 C6 1.347 . S
C5 H33 0.931 . S
C6 C5 1.347 . S
C6 C7 1.369 . S
C7 C6 1.369 . S
C7 C8 1.408 . S
C7 H34 0.930 . S
C8 C3 1.348 . S
C8 C7 1.408 . S
C8 H35 0.930 . S
C9 O22 1.281 . S
C9 O23 1.254 . S
C10 O24 1.236 . S
C10 O25 1.266 . S
C11 Tb1 2.809 . S
C11 C12 1.514 . S
C11 O26 1.248 . S
C11 O27 1.266 . S
C12 C11 1.514 . S
C12 C13 1.359 . S
C12 C17 1.348 . S
C13 C12 1.359 . S
C13 C14 1.380 . S
C13 H36 0.929 . S
C14 C13 1.380 . S
C14 C15 1.347 . S
C14 H37 0.931 . S
C15 C14 1.347 . S
C15 C16 1.369 . S
C16 C15 1.369 . S
C16 C17 1.408 . S
C16 H38 0.930 . S
C17 C12 1.348 . S
C17 C16 1.408 . S
C17 H39 0.930 . S
C18 O28 1.281 . S
C18 O29 1.254 . S
C19 O30 1.236 . S
C19 O31 1.266 . S
O20 Tb0 2.484 . S
O20 C2 1.248 . S
O21 Tb0 2.440 . S
O21 C2 1.266 . S
O22 Tb0 2.658 . S
O22 Tb1 2.325 . S
O22 C9 1.281 . S
O23 Tb0 2.409 . S
O23 C9 1.254 . S
O24 Tb0 2.378 . S
O24 C10 1.236 . S
O25 Tb1 2.341 . S
O25 C10 1.266 . S
O26 Tb1 2.484 . S
O26 C11 1.248 . S
O27 Tb1 2.440 . S
O27 C11 1.266 . S
O28 Tb0 2.325 . S
O28 Tb1 2.658 . S
O28 C18 1.281 . S
O29 Tb1 2.409 . S
O29 C18 1.254 . S
O30 Tb1 2.378 . S
O30 C19 1.236 . S
O31 Tb0 2.341 . S
O31 C19 1.266 . S
H32 C4 0.929 . S
H33 C5 0.931 . S
H34 C7 0.930 . S
H35 C8 0.930 . S
H36 C13 0.929 . S
H37 C14 0.931 . S
H38 C16 0.930 . S
H39 C17 0.930 . S
Tb40 C42 2.809 . S
Tb40 O60 2.484 . S
Tb40 O61 2.440 . S
Tb40 O62 2.658 1_655 S
Tb40 O63 2.409 1_655 S
Tb40 O64 2.378 1_655 S
Tb40 O68 2.325 . S
Tb40 O71 2.341 . S
Tb41 C51 2.809 . S
Tb41 O62 2.325 . S
Tb41 O65 2.341 . S
Tb41 O66 2.484 . S
Tb41 O67 2.440 . S
Tb41 O68 2.658 1_455 S
Tb41 O69 2.409 1_455 S
Tb41 O70 2.378 1_455 S
C42 Tb40 2.809 . S
C42 C43 1.514 . S
C42 O60 1.248 . S
C42 O61 1.266 . S
C43 C42 1.514 . S
C43 C44 1.359 . S
C43 C48 1.348 . S
C44 C43 1.359 . S
C44 C45 1.380 . S
C44 H72 0.929 . S
C45 C44 1.380 . S
C45 C46 1.347 . S
C45 H73 0.931 . S
C46 C45 1.347 . S
C46 C47 1.369 . S
C47 C46 1.369 . S
C47 C48 1.408 . S
C47 H74 0.930 . S
C48 C43 1.348 . S
C48 C47 1.408 . S
C48 H75 0.930 . S
C49 O62 1.281 . S
C49 O63 1.254 . S
C50 O64 1.236 . S
C50 O65 1.266 . S
C51 Tb41 2.809 . S
C51 C52 1.514 . S
C51 O66 1.248 . S
C51 O67 1.266 . S
C52 C51 1.514 . S
C52 C53 1.359 . S
C52 C57 1.348 . S
C53 C52 1.359 . S
C53 C54 1.380 . S
C53 H76 0.929 . S
C54 C53 1.380 . S
C54 C55 1.347 . S
C54 H77 0.931 . S
C55 C54 1.347 . S
C55 C56 1.369 . S
C56 C55 1.369 . S
C56 C57 1.408 . S
C56 H78 0.930 . S
C57 C52 1.348 . S
C57 C56 1.408 . S
C57 H79 0.930 . S
C58 O68 1.281 . S
C58 O69 1.254 . S
C59 O70 1.236 . S
C59 O71 1.266 . S
O60 Tb40 2.484 . S
O60 C42 1.248 . S
O61 Tb40 2.440 . S
O61 C42 1.266 . S
O62 Tb40 2.658 1_455 S
O62 Tb41 2.325 . S
O62 C49 1.281 . S
O63 Tb40 2.409 1_455 S
O63 C49 1.254 . S
O64 Tb40 2.378 1_455 S
O64 C50 1.236 . S
O65 Tb41 2.341 . S
O65 C50 1.266 . S
O66 Tb41 2.484 . S
O66 C51 1.248 . S
O67 Tb41 2.440 . S
O67 C51 1.266 . S
O68 Tb40 2.325 . S
O68 Tb41 2.658 1_655 S
O68 C58 1.281 . S
O69 Tb41 2.409 1_655 S
O69 C58 1.254 . S
O70 Tb41 2.378 1_655 S
O70 C59 1.236 . S
O71 Tb40 2.341 . S
O71 C59 1.266 . S
H72 C44 0.929 . S
H73 C45 0.931 . S
H74 C47 0.930 . S
H75 C48 0.930 . S
H76 C53 0.929 . S
H77 C54 0.931 . S
H78 C56 0.930 . S
H79 C57 0.930 . S
Tb80 C82 2.809 . S
Tb80 O100 2.484 . S
Tb80 O101 2.440 . S
Tb80 O102 2.658 1_554 S
Tb80 O103 2.409 1_554 S
Tb80 O104 2.378 1_554 S
Tb80 O108 2.325 . S
Tb80 O111 2.341 . S
Tb81 C91 2.809 . S
Tb81 O102 2.325 . S
Tb81 O105 2.341 . S
Tb81 O106 2.484 . S
Tb81 O107 2.440 . S
Tb81 O108 2.658 1_556 S
Tb81 O109 2.409 1_556 S
Tb81 O110 2.379 . S
C82 Tb80 2.809 . S
C82 C83 1.514 . S
C82 O100 1.248 . S
C82 O101 1.266 . S
C83 C82 1.514 . S
C83 C84 1.359 . S
C83 C88 1.348 . S
C84 C83 1.359 . S
C84 C85 1.380 . S
C84 H112 0.929 . S
C85 C84 1.380 . S
C85 C86 1.347 . S
C85 H113 0.931 . S
C86 C85 1.347 . S
C86 C87 1.369 . S
C87 C86 1.369 . S
C87 C88 1.408 . S
C87 H114 0.930 . S
C88 C83 1.348 . S
C88 C87 1.408 . S
C88 H115 0.930 . S
C89 O102 1.281 . S
C89 O103 1.254 . S
C90 O104 1.236 . S
C90 O105 1.266 . S
C91 Tb81 2.809 . S
C91 C92 1.514 . S
C91 O106 1.248 . S
C91 O107 1.266 . S
C92 C91 1.514 . S
C92 C93 1.359 . S
C92 C97 1.348 . S
C93 C92 1.359 . S
C93 C94 1.380 . S
C93 H116 0.929 . S
C94 C93 1.380 . S
C94 C95 1.347 . S
C94 H117 0.931 . S
C95 C94 1.347 . S
C95 C96 1.369 . S
C96 C95 1.369 . S
C96 C97 1.408 . S
C96 H118 0.930 . S
C97 C92 1.348 . S
C97 C96 1.408 . S
C97 H119 0.930 . S
C98 O108 1.281 . S
C98 O109 1.254 . S
C99 O110 1.235 1_554 S
C99 O111 1.266 . S
O100 Tb80 2.484 . S
O100 C82 1.248 . S
O101 Tb80 2.440 . S
O101 C82 1.266 . S
O102 Tb80 2.658 1_556 S
O102 Tb81 2.325 . S
O102 C89 1.281 . S
O103 Tb80 2.409 1_556 S
O103 C89 1.254 . S
O104 Tb80 2.378 1_556 S
O104 C90 1.236 . S
O105 Tb81 2.341 . S
O105 C90 1.266 . S
O106 Tb81 2.484 . S
O106 C91 1.248 . S
O107 Tb81 2.440 . S
O107 C91 1.266 . S
O108 Tb80 2.325 . S
O108 Tb81 2.658 1_554 S
O108 C98 1.281 . S
O109 Tb81 2.409 1_554 S
O109 C98 1.254 . S
O110 Tb81 2.379 . S
O110 C99 1.235 1_556 S
O111 Tb80 2.341 . S
O111 C99 1.266 . S
H112 C84 0.929 . S
H113 C85 0.931 . S
H114 C87 0.930 . S
H115 C88 0.930 . S
H116 C93 0.929 . S
H117 C94 0.931 . S
H118 C96 0.930 . S
H119 C97 0.930 . S
Tb120 C122 2.809 . S
Tb120 O140 2.484 . S
Tb120 O141 2.440 . S
Tb120 O142 2.658 . S
Tb120 O143 2.409 . S
Tb120 O144 2.378 . S
Tb120 O148 2.325 . S
Tb120 O151 2.341 . S
Tb121 C131 2.809 . S
Tb121 O142 2.325 . S
Tb121 O145 2.341 . S
Tb121 O146 2.484 . S
Tb121 O147 2.440 . S
Tb121 O148 2.658 . S
Tb121 O149 2.409 . S
Tb121 O150 2.378 . S
C122 Tb120 2.809 . S
C122 C123 1.514 . S
C122 O140 1.248 . S
C122 O141 1.266 . S
C123 C122 1.514 . S
C123 C124 1.359 . S
C123 C128 1.348 . S
C124 C123 1.359 . S
C124 C125 1.380 . S
C124 H152 0.929 . S
C125 C124 1.380 . S
C125 C126 1.347 . S
C125 H153 0.931 . S
C126 C125 1.347 . S
C126 C127 1.369 . S
C127 C126 1.369 . S
C127 C128 1.408 . S
C127 H154 0.930 . S
C128 C123 1.348 . S
C128 C127 1.408 . S
C128 H155 0.930 . S
C129 O142 1.281 . S
C129 O143 1.254 . S
C130 O144 1.236 . S
C130 O145 1.266 . S
C131 Tb121 2.809 . S
C131 C132 1.514 . S
C131 O146 1.248 . S
C131 O147 1.266 . S
C132 C131 1.514 . S
C132 C133 1.359 . S
C132 C137 1.348 . S
C133 C132 1.359 . S
C133 C134 1.380 . S
C133 H156 0.929 . S
C134 C133 1.380 . S
C134 C135 1.347 . S
C134 H157 0.931 . S
C135 C134 1.347 . S
C135 C136 1.369 . S
C136 C135 1.369 . S
C136 C137 1.408 . S
C136 H158 0.930 . S
C137 C132 1.348 . S
C137 C136 1.408 . S
C137 H159 0.930 . S
C138 O148 1.281 . S
C138 O149 1.254 . S
C139 O150 1.236 . S
C139 O151 1.266 . S
O140 Tb120 2.484 . S
O140 C122 1.248 . S
O141 Tb120 2.440 . S
O141 C122 1.266 . S
O142 Tb120 2.658 . S
O142 Tb121 2.325 . S
O142 C129 1.281 . S
O143 Tb120 2.409 . S
O143 C129 1.254 . S
O144 Tb120 2.378 . S
O144 C130 1.236 . S
O145 Tb121 2.341 . S
O145 C130 1.266 . S
O146 Tb121 2.484 . S
O146 C131 1.248 . S
O147 Tb121 2.440 . S
O147 C131 1.266 . S
O148 Tb120 2.325 . S
O148 Tb121 2.658 . S
O148 C138 1.281 . S
O149 Tb121 2.409 . S
O149 C138 1.254 . S
O150 Tb121 2.378 . S
O150 C139 1.236 . S
O151 Tb120 2.341 . S
O151 C139 1.266 . S
H152 C124 0.929 . S
H153 C125 0.931 . S
H154 C127 0.930 . S
H155 C128 0.930 . S
H156 C133 0.929 . S
H157 C134 0.931 . S
H158 C136 0.930 . S
H159 C137 0.930 . S
Tb160 C162 2.809 . S
Tb160 O180 2.484 . S
Tb160 O181 2.440 . S
Tb160 O182 2.658 . S
Tb160 O183 2.409 . S
Tb160 O184 2.378 . S
Tb160 O188 2.325 . S
Tb160 O191 2.341 . S
Tb161 C171 2.809 . S
Tb161 O182 2.325 . S
Tb161 O185 2.341 . S
Tb161 O186 2.484 . S
Tb161 O187 2.440 . S
Tb161 O188 2.658 . S
Tb161 O189 2.409 . S
Tb161 O190 2.378 . S
C162 Tb160 2.809 . S
C162 C163 1.514 . S
C162 O180 1.248 . S
C162 O181 1.266 . S
C163 C162 1.514 . S
C163 C164 1.359 . S
C163 C168 1.348 . S
C164 C163 1.359 . S
C164 C165 1.380 . S
C164 H192 0.929 . S
C165 C164 1.380 . S
C165 C166 1.347 . S
C165 H193 0.931 . S
C166 C165 1.347 . S
C166 C167 1.369 . S
C167 C166 1.369 . S
C167 C168 1.408 . S
C167 H194 0.930 . S
C168 C163 1.348 . S
C168 C167 1.408 . S
C168 H195 0.930 . S
C169 O182 1.281 . S
C169 O183 1.254 . S
C170 O184 1.236 . S
C170 O185 1.266 . S
C171 Tb161 2.809 . S
C171 C172 1.514 . S
C171 O186 1.248 . S
C171 O187 1.266 . S
C172 C171 1.514 . S
C172 C173 1.359 . S
C172 C177 1.348 . S
C173 C172 1.359 . S
C173 C174 1.380 . S
C173 H196 0.929 . S
C174 C173 1.380 . S
C174 C175 1.347 . S
C174 H197 0.931 . S
C175 C174 1.347 . S
C175 C176 1.369 . S
C176 C175 1.369 . S
C176 C177 1.408 . S
C176 H198 0.930 . S
C177 C172 1.348 . S
C177 C176 1.408 . S
C177 H199 0.930 . S
C178 O188 1.281 . S
C178 O189 1.254 . S
C179 O190 1.236 . S
C179 O191 1.266 . S
O180 Tb160 2.484 . S
O180 C162 1.248 . S
O181 Tb160 2.440 . S
O181 C162 1.266 . S
O182 Tb160 2.658 . S
O182 Tb161 2.325 . S
O182 C169 1.281 . S
O183 Tb160 2.409 . S
O183 C169 1.254 . S
O184 Tb160 2.378 . S
O184 C170 1.236 . S
O185 Tb161 2.341 . S
O185 C170 1.266 . S
O186 Tb161 2.484 . S
O186 C171 1.248 . S
O187 Tb161 2.440 . S
O187 C171 1.266 . S
O188 Tb160 2.325 . S
O188 Tb161 2.658 . S
O188 C178 1.281 . S
O189 Tb161 2.409 . S
O189 C178 1.254 . S
O190 Tb161 2.378 . S
O190 C179 1.236 . S
O191 Tb160 2.341 . S
O191 C179 1.266 . S
H192 C164 0.929 . S
H193 C165 0.931 . S
H194 C167 0.930 . S
H195 C168 0.930 . S
H196 C173 0.929 . S
H197 C174 0.931 . S
H198 C176 0.930 . S
H199 C177 0.930 . S
Tb200 C202 2.809 . S
Tb200 O220 2.484 . S
Tb200 O221 2.440 . S
Tb200 O222 2.658 . S
Tb200 O223 2.409 . S
Tb200 O224 2.378 . S
Tb200 O228 2.325 1_655 S
Tb200 O231 2.341 1_655 S
Tb201 C211 2.809 . S
Tb201 O222 2.325 1_455 S
Tb201 O225 2.341 1_455 S
Tb201 O226 2.484 . S
Tb201 O227 2.440 . S
Tb201 O228 2.658 . S
Tb201 O229 2.409 . S
Tb201 O230 2.378 . S
C202 Tb200 2.809 . S
C202 C203 1.514 . S
C202 O220 1.248 . S
C202 O221 1.266 . S
C203 C202 1.514 . S
C203 C204 1.359 . S
C203 C208 1.348 . S
C204 C203 1.359 . S
C204 C205 1.380 . S
C204 H232 0.929 . S
C205 C204 1.380 . S
C205 C206 1.347 . S
C205 H233 0.931 . S
C206 C205 1.347 . S
C206 C207 1.369 . S
C207 C206 1.369 . S
C207 C208 1.408 . S
C207 H234 0.930 . S
C208 C203 1.348 . S
C208 C207 1.408 . S
C208 H235 0.930 . S
C209 O222 1.281 . S
C209 O223 1.254 . S
C210 O224 1.236 . S
C210 O225 1.266 . S
C211 Tb201 2.809 . S
C211 C212 1.514 . S
C211 O226 1.248 . S
C211 O227 1.266 . S
C212 C211 1.514 . S
C212 C213 1.359 . S
C212 C217 1.348 . S
C213 C212 1.359 . S
C213 C214 1.380 . S
C213 H236 0.929 . S
C214 C213 1.380 . S
C214 C215 1.347 . S
C214 H237 0.931 . S
C215 C214 1.347 . S
C215 C216 1.369 . S
C216 C215 1.369 . S
C216 C217 1.408 . S
C216 H238 0.930 . S
C217 C212 1.348 . S
C217 C216 1.408 . S
C217 H239 0.930 . S
C218 O228 1.281 . S
C218 O229 1.254 . S
C219 O230 1.236 . S
C219 O231 1.266 . S
O220 Tb200 2.484 . S
O220 C202 1.248 . S
O221 Tb200 2.440 . S
O221 C202 1.266 . S
O222 Tb200 2.658 . S
O222 Tb201 2.325 1_655 S
O222 C209 1.281 . S
O223 Tb200 2.409 . S
O223 C209 1.254 . S
O224 Tb200 2.378 . S
O224 C210 1.236 . S
O225 Tb201 2.341 1_655 S
O225 C210 1.266 . S
O226 Tb201 2.484 . S
O226 C211 1.248 . S
O227 Tb201 2.440 . S
O227 C211 1.266 . S
O228 Tb200 2.325 1_455 S
O228 Tb201 2.658 . S
O228 C218 1.281 . S
O229 Tb201 2.409 . S
O229 C218 1.254 . S
O230 Tb201 2.378 . S
O230 C219 1.236 . S
O231 Tb200 2.341 1_455 S
O231 C219 1.266 . S
H232 C204 0.929 . S
H233 C205 0.931 . S
H234 C207 0.930 . S
H235 C208 0.930 . S
H236 C213 0.929 . S
H237 C214 0.931 . S
H238 C216 0.930 . S
H239 C217 0.930 . S
Tb240 C242 2.809 . S
Tb240 O260 2.484 . S
Tb240 O261 2.440 . S
Tb240 O262 2.658 . S
Tb240 O263 2.409 . S
Tb240 O264 2.378 . S
Tb240 O268 2.325 . S
Tb240 O271 2.341 1_554 S
Tb241 C251 2.809 . S
Tb241 O262 2.325 1_556 S
Tb241 O265 2.341 1_556 S
Tb241 O266 2.484 . S
Tb241 O267 2.440 . S
Tb241 O268 2.658 1_556 S
Tb241 O269 2.409 . S
Tb241 O270 2.378 . S
C242 Tb240 2.809 . S
C242 C243 1.514 . S
C242 O260 1.248 . S
C242 O261 1.266 . S
C243 C242 1.514 . S
C243 C244 1.359 . S
C243 C248 1.348 . S
C244 C243 1.359 . S
C244 C245 1.380 . S
C244 H272 0.929 . S
C245 C244 1.380 . S
C245 C246 1.347 . S
C245 H273 0.931 . S
C246 C245 1.347 . S
C246 C247 1.369 . S
C247 C246 1.369 . S
C247 C248 1.408 . S
C247 H274 0.930 . S
C248 C243 1.348 . S
C248 C247 1.408 . S
C248 H275 0.930 . S
C249 O262 1.281 . S
C249 O263 1.254 . S
C250 O264 1.236 . S
C250 O265 1.266 . S
C251 Tb241 2.809 . S
C251 C252 1.514 . S
C251 O266 1.248 . S
C251 O267 1.266 . S
C252 C251 1.514 . S
C252 C253 1.359 . S
C252 C257 1.348 . S
C253 C252 1.359 . S
C253 C254 1.380 . S
C253 H276 0.929 . S
C254 C253 1.380 . S
C254 C255 1.347 . S
C254 H277 0.931 . S
C255 C254 1.347 . S
C255 C256 1.369 . S
C256 C255 1.369 . S
C256 C257 1.408 . S
C256 H278 0.930 . S
C257 C252 1.348 . S
C257 C256 1.408 . S
C257 H279 0.930 . S
C258 O268 1.281 1_556 S
C258 O269 1.254 . S
C259 O270 1.236 . S
C259 O271 1.266 . S
O260 Tb240 2.484 . S
O260 C242 1.248 . S
O261 Tb240 2.440 . S
O261 C242 1.266 . S
O262 Tb240 2.658 . S
O262 Tb241 2.325 1_554 S
O262 C249 1.281 . S
O263 Tb240 2.409 . S
O263 C249 1.254 . S
O264 Tb240 2.378 . S
O264 C250 1.236 . S
O265 Tb241 2.341 1_554 S
O265 C250 1.266 . S
O266 Tb241 2.484 . S
O266 C251 1.248 . S
O267 Tb241 2.440 . S
O267 C251 1.266 . S
O268 Tb240 2.325 . S
O268 Tb241 2.658 1_554 S
O268 C258 1.281 1_554 S
O269 Tb241 2.409 . S
O269 C258 1.254 . S
O270 Tb241 2.378 . S
O270 C259 1.236 . S
O271 Tb240 2.341 1_556 S
O271 C259 1.266 . S
H272 C244 0.929 . S
H273 C245 0.931 . S
H274 C247 0.930 . S
H275 C248 0.930 . S
H276 C253 0.929 . S
H277 C254 0.931 . S
H278 C256 0.930 . S
H279 C257 0.930 . S
Tb280 C282 2.809 . S
Tb280 O300 2.484 . S
Tb280 O301 2.440 . S
Tb280 O302 2.658 . S
Tb280 O303 2.409 . S
Tb280 O304 2.378 . S
Tb280 O308 2.325 . S
Tb280 O311 2.341 . S
Tb281 C291 2.809 . S
Tb281 O302 2.325 . S
Tb281 O305 2.341 . S
Tb281 O306 2.484 . S
Tb281 O307 2.440 . S
Tb281 O308 2.658 . S
Tb281 O309 2.409 . S
Tb281 O310 2.378 . S
C282 Tb280 2.809 . S
C282 C283 1.514 . S
C282 O300 1.248 . S
C282 O301 1.266 . S
C283 C282 1.514 . S
C283 C284 1.359 . S
C283 C288 1.348 . S
C284 C283 1.359 . S
C284 C285 1.380 . S
C284 H312 0.929 . S
C285 C284 1.380 . S
C285 C286 1.347 . S
C285 H313 0.931 . S
C286 C285 1.347 . S
C286 C287 1.369 . S
C287 C286 1.369 . S
C287 C288 1.408 . S
C287 H314 0.930 . S
C288 C283 1.348 . S
C288 C287 1.408 . S
C288 H315 0.930 . S
C289 O302 1.281 . S
C289 O303 1.254 . S
C290 O304 1.236 . S
C290 O305 1.266 . S
C291 Tb281 2.809 . S
C291 C292 1.514 . S
C291 O306 1.248 . S
C291 O307 1.266 . S
C292 C291 1.514 . S
C292 C293 1.359 . S
C292 C297 1.348 . S
C293 C292 1.359 . S
C293 C294 1.380 . S
C293 H316 0.929 . S
C294 C293 1.380 . S
C294 C295 1.347 . S
C294 H317 0.931 . S
C295 C294 1.347 . S
C295 C296 1.369 . S
C296 C295 1.369 . S
C296 C297 1.408 . S
C296 H318 0.930 . S
C297 C292 1.348 . S
C297 C296 1.408 . S
C297 H319 0.930 . S
C298 O308 1.281 . S
C298 O309 1.254 . S
C299 O310 1.236 . S
C299 O311 1.266 . S
O300 Tb280 2.484 . S
O300 C282 1.248 . S
O301 Tb280 2.440 . S
O301 C282 1.266 . S
O302 Tb280 2.658 . S
O302 Tb281 2.325 . S
O302 C289 1.281 . S
O303 Tb280 2.409 . S
O303 C289 1.254 . S
O304 Tb280 2.378 . S
O304 C290 1.236 . S
O305 Tb281 2.341 . S
O305 C290 1.266 . S
O306 Tb281 2.484 . S
O306 C291 1.248 . S
O307 Tb281 2.440 . S
O307 C291 1.266 . S
O308 Tb280 2.325 . S
O308 Tb281 2.658 . S
O308 C298 1.281 . S
O309 Tb281 2.409 . S
O309 C298 1.254 . S
O310 Tb281 2.378 . S
O310 C299 1.236 . S
O311 Tb280 2.341 . S
O311 C299 1.266 . S
H312 C284 0.929 . S
H313 C285 0.931 . S
H314 C287 0.930 . S
H315 C288 0.930 . S
H316 C293 0.929 . S
H317 C294 0.931 . S
H318 C296 0.930 . S
H319 C297 0.930 . S
Tb320 C322 2.809 . S
Tb320 O340 2.484 . S
Tb320 O341 2.440 . S
Tb320 O342 2.658 . S
Tb320 O343 2.409 . S
Tb320 O344 2.378 . S
Tb320 O348 2.325 . S
Tb320 O351 2.341 . S
Tb321 C331 2.809 . S
Tb321 O342 2.325 . S
Tb321 O345 2.341 . S
Tb321 O346 2.484 . S
Tb321 O347 2.440 . S
Tb321 O348 2.658 . S
Tb321 O349 2.409 . S
Tb321 O350 2.378 . S
C322 Tb320 2.809 . S
C322 C323 1.514 . S
C322 O340 1.248 . S
C322 O341 1.266 . S
C323 C322 1.514 . S
C323 C324 1.359 . S
C323 C328 1.348 . S
C324 C323 1.359 . S
C324 C325 1.380 . S
C324 H352 0.929 . S
C325 C324 1.380 . S
C325 C326 1.347 . S
C325 H353 0.931 . S
C326 C325 1.347 . S
C326 C327 1.369 . S
C327 C326 1.369 . S
C327 C328 1.408 . S
C327 H354 0.930 . S
C328 C323 1.348 . S
C328 C327 1.408 . S
C328 H355 0.930 . S
C329 O342 1.281 . S
C329 O343 1.254 . S
C330 O344 1.236 . S
C330 O345 1.266 . S
C331 Tb321 2.809 . S
C331 C332 1.514 . S
C331 O346 1.248 . S
C331 O347 1.266 . S
C332 C331 1.514 . S
C332 C333 1.359 . S
C332 C337 1.348 . S
C333 C332 1.359 . S
C333 C334 1.380 . S
C333 H356 0.929 . S
C334 C333 1.380 . S
C334 C335 1.347 . S
C334 H357 0.931 . S
C335 C334 1.347 . S
C335 C336 1.369 . S
C336 C335 1.369 . S
C336 C337 1.408 . S
C336 H358 0.930 . S
C337 C332 1.348 . S
C337 C336 1.408 . S
C337 H359 0.930 . S
C338 O348 1.281 . S
C338 O349 1.254 . S
C339 O350 1.236 . S
C339 O351 1.266 . S
O340 Tb320 2.484 . S
O340 C322 1.248 . S
O341 Tb320 2.440 . S
O341 C322 1.266 . S
O342 Tb320 2.658 . S
O342 Tb321 2.325 . S
O342 C329 1.281 . S
O343 Tb320 2.409 . S
O343 C329 1.254 . S
O344 Tb320 2.378 . S
O344 C330 1.236 . S
O345 Tb321 2.341 . S
O345 C330 1.266 . S
O346 Tb321 2.484 . S
O346 C331 1.248 . S
O347 Tb321 2.440 . S
O347 C331 1.266 . S
O348 Tb320 2.325 . S
O348 Tb321 2.658 . S
O348 C338 1.281 . S
O349 Tb321 2.409 . S
O349 C338 1.254 . S
O350 Tb321 2.378 . S
O350 C339 1.236 . S
O351 Tb320 2.341 . S
O351 C339 1.266 . S
H352 C324 0.929 . S
H353 C325 0.931 . S
H354 C327 0.930 . S
H355 C328 0.930 . S
H356 C333 0.929 . S
H357 C334 0.931 . S
H358 C336 0.930 . S
H359 C337 0.930 . S
Tb360 C362 2.809 . S
Tb360 O380 2.484 . S
Tb360 O381 2.440 . S
Tb360 O382 2.658 . S
Tb360 O383 2.409 . S
Tb360 O384 2.378 . S
Tb360 O388 2.325 . S
Tb360 O391 2.341 . S
Tb361 C371 2.809 1_545 S
Tb361 O382 2.325 . S
Tb361 O385 2.341 . S
Tb361 O386 2.484 1_545 S
Tb361 O387 2.440 1_545 S
Tb361 O388 2.658 . S
Tb361 O389 2.409 1_545 S
Tb361 O390 2.378 1_545 S
C362 Tb360 2.809 . S
C362 C363 1.514 . S
C362 O380 1.248 . S
C362 O381 1.266 . S
C363 C362 1.514 . S
C363 C364 1.359 . S
C363 C368 1.348 . S
C364 C363 1.359 . S
C364 C365 1.380 . S
C364 H392 0.929 . S
C365 C364 1.380 . S
C365 C366 1.347 . S
C365 H393 0.931 . S
C366 C365 1.347 . S
C366 C367 1.369 . S
C367 C366 1.369 . S
C367 C368 1.408 . S
C367 H394 0.930 . S
C368 C363 1.348 . S
C368 C367 1.408 . S
C368 H395 0.930 . S
C369 O382 1.281 . S
C369 O383 1.254 . S
C370 O384 1.236 . S
C370 O385 1.266 . S
C371 Tb361 2.809 1_565 S
C371 C372 1.514 . S
C371 O386 1.248 . S
C371 O387 1.266 . S
C372 C371 1.514 . S
C372 C373 1.359 . S
C372 C377 1.348 . S
C373 C372 1.359 . S
C373 C374 1.380 . S
C373 H396 0.929 . S
C374 C373 1.380 . S
C374 C375 1.347 . S
C374 H397 0.931 . S
C375 C374 1.347 . S
C375 C376 1.369 . S
C376 C375 1.369 . S
C376 C377 1.408 . S
C376 H398 0.930 . S
C377 C372 1.348 . S
C377 C376 1.408 . S
C377 H399 0.930 . S
C378 O388 1.281 1_565 S
C378 O389 1.254 . S
C379 O390 1.236 . S
C379 O391 1.266 1_565 S
O380 Tb360 2.484 . S
O380 C362 1.248 . S
O381 Tb360 2.440 . S
O381 C362 1.266 . S
O382 Tb360 2.658 . S
O382 Tb361 2.325 . S
O382 C369 1.281 . S
O383 Tb360 2.409 . S
O383 C369 1.254 . S
O384 Tb360 2.378 . S
O384 C370 1.236 . S
O385 Tb361 2.341 . S
O385 C370 1.266 . S
O386 Tb361 2.484 1_565 S
O386 C371 1.248 . S
O387 Tb361 2.440 1_565 S
O387 C371 1.266 . S
O388 Tb360 2.325 . S
O388 Tb361 2.658 . S
O388 C378 1.281 1_545 S
O389 Tb361 2.409 1_565 S
O389 C378 1.254 . S
O390 Tb361 2.378 1_565 S
O390 C379 1.236 . S
O391 Tb360 2.341 . S
O391 C379 1.266 1_545 S
H392 C364 0.929 . S
H393 C365 0.931 . S
H394 C367 0.930 . S
H395 C368 0.930 . S
H396 C373 0.929 . S
H397 C374 0.931 . S
H398 C376 0.930 . S
H399 C377 0.930 . S
Tb400 C402 2.809 . S
Tb400 O420 2.484 . S
Tb400 O421 2.440 . S
Tb400 O422 2.658 . S
Tb400 O423 2.409 . S
Tb400 O424 2.378 . S
Tb400 O428 2.325 . S
Tb400 O431 2.341 1_565 S
Tb401 C411 2.809 . S
Tb401 O422 2.325 1_545 S
Tb401 O425 2.341 1_545 S
Tb401 O426 2.484 . S
Tb401 O427 2.440 . S
Tb401 O428 2.658 1_545 S
Tb401 O429 2.409 . S
Tb401 O430 2.378 . S
C402 Tb400 2.809 . S
C402 C403 1.514 . S
C402 O420 1.248 . S
C402 O421 1.266 . S
C403 C402 1.514 . S
C403 C404 1.359 . S
C403 C408 1.348 . S
C404 C403 1.359 . S
C404 C405 1.380 . S
C404 H432 0.929 . S
C405 C404 1.380 . S
C405 C406 1.347 . S
C405 H433 0.931 . S
C406 C405 1.347 . S
C406 C407 1.369 . S
C407 C406 1.369 . S
C407 C408 1.408 . S
C407 H434 0.930 . S
C408 C403 1.348 . S
C408 C407 1.408 . S
C408 H435 0.930 . S
C409 O422 1.281 . S
C409 O423 1.254 . S
C410 O424 1.236 . S
C410 O425 1.266 . S
C411 Tb401 2.809 . S
C411 C412 1.514 . S
C411 O426 1.248 . S
C411 O427 1.266 . S
C412 C411 1.514 . S
C412 C413 1.359 . S
C412 C417 1.348 . S
C413 C412 1.359 . S
C413 C414 1.380 . S
C413 H436 0.929 . S
C414 C413 1.380 . S
C414 C415 1.347 . S
C414 H437 0.931 . S
C415 C414 1.347 . S
C415 C416 1.369 . S
C416 C415 1.369 . S
C416 C417 1.408 . S
C416 H438 0.930 . S
C417 C412 1.348 . S
C417 C416 1.408 . S
C417 H439 0.930 . S
C418 O428 1.281 1_545 S
C418 O429 1.254 . S
C419 O430 1.236 . S
C419 O431 1.266 . S
O420 Tb400 2.484 . S
O420 C402 1.248 . S
O421 Tb400 2.440 . S
O421 C402 1.266 . S
O422 Tb400 2.658 . S
O422 Tb401 2.325 1_565 S
O422 C409 1.281 . S
O423 Tb400 2.409 . S
O423 C409 1.254 . S
O424 Tb400 2.378 . S
O424 C410 1.236 . S
O425 Tb401 2.341 1_565 S
O425 C410 1.266 . S
O426 Tb401 2.484 . S
O426 C411 1.248 . S
O427 Tb401 2.440 . S
O427 C411 1.266 . S
O428 Tb400 2.325 . S
O428 Tb401 2.658 1_565 S
O428 C418 1.281 1_565 S
O429 Tb401 2.409 . S
O429 C418 1.254 . S
O430 Tb401 2.378 . S
O430 C419 1.236 . S
O431 Tb400 2.341 1_545 S
O431 C419 1.266 . S
H432 C404 0.929 . S
H433 C405 0.931 . S
H434 C407 0.930 . S
H435 C408 0.930 . S
H436 C413 0.929 . S
H437 C414 0.931 . S
H438 C416 0.930 . S
H439 C417 0.930 . S
Tb440 C442 2.809 . S
Tb440 O460 2.484 . S
Tb440 O461 2.440 . S
Tb440 O462 2.658 . S
Tb440 O463 2.409 . S
Tb440 O464 2.378 . S
Tb440 O468 2.325 . S
Tb440 O471 2.341 . S
Tb441 C451 2.809 . S
Tb441 O462 2.325 . S
Tb441 O465 2.341 . S
Tb441 O466 2.484 . S
Tb441 O467 2.440 . S
Tb441 O468 2.658 . S
Tb441 O469 2.409 . S
Tb441 O470 2.378 . S
C442 Tb440 2.809 . S
C442 C443 1.514 . S
C442 O460 1.248 . S
C442 O461 1.266 . S
C443 C442 1.514 . S
C443 C444 1.359 . S
C443 C448 1.348 . S
C444 C443 1.359 . S
C444 C445 1.380 . S
C444 H472 0.929 . S
C445 C444 1.380 . S
C445 C446 1.347 . S
C445 H473 0.931 . S
C446 C445 1.347 . S
C446 C447 1.369 . S
C447 C446 1.369 . S
C447 C448 1.408 . S
C447 H474 0.930 . S
C448 C443 1.348 . S
C448 C447 1.408 . S
C448 H475 0.930 . S
C449 O462 1.281 . S
C449 O463 1.254 . S
C450 O464 1.236 . S
C450 O465 1.266 . S
C451 Tb441 2.809 . S
C451 C452 1.514 . S
C451 O466 1.248 . S
C451 O467 1.266 . S
C452 C451 1.514 . S
C452 C453 1.359 . S
C452 C457 1.348 . S
C453 C452 1.359 . S
C453 C454 1.380 . S
C453 H476 0.929 . S
C454 C453 1.380 . S
C454 C455 1.347 . S
C454 H477 0.931 . S
C455 C454 1.347 . S
C455 C456 1.369 . S
C456 C455 1.369 . S
C456 C457 1.408 . S
C456 H478 0.930 . S
C457 C452 1.348 . S
C457 C456 1.408 . S
C457 H479 0.930 . S
C458 O468 1.281 . S
C458 O469 1.254 . S
C459 O470 1.236 . S
C459 O471 1.266 . S
O460 Tb440 2.484 . S
O460 C442 1.248 . S
O461 Tb440 2.440 . S
O461 C442 1.266 . S
O462 Tb440 2.658 . S
O462 Tb441 2.325 . S
O462 C449 1.281 . S
O463 Tb440 2.409 . S
O463 C449 1.254 . S
O464 Tb440 2.378 . S
O464 C450 1.236 . S
O465 Tb441 2.341 . S
O465 C450 1.266 . S
O466 Tb441 2.484 . S
O466 C451 1.248 . S
O467 Tb441 2.440 . S
O467 C451 1.266 . S
O468 Tb440 2.325 . S
O468 Tb441 2.658 . S
O468 C458 1.281 . S
O469 Tb441 2.409 . S
O469 C458 1.254 . S
O470 Tb441 2.378 . S
O470 C459 1.236 . S
O471 Tb440 2.341 . S
O471 C459 1.266 . S
H472 C444 0.929 . S
H473 C445 0.931 . S
H474 C447 0.930 . S
H475 C448 0.930 . S
H476 C453 0.929 . S
H477 C454 0.931 . S
H478 C456 0.930 . S
H479 C457 0.930 . S
H480 C488 0.950 . S
H481 C493 0.950 . S
H482 C490 0.950 . S
H483 C492 0.950 . S
H484 C494 0.950 . S
H485 C496 0.950 . S
H486 C498 0.950 . S
H487 C499 0.950 . S
C488 H480 0.950 . S
C488 C489 1.386 . S
C488 C490 1.391 . S
C489 C488 1.386 . S
C489 C493 1.393 . S
C490 H482 0.950 . S
C490 C488 1.391 . S
C490 C491 1.400 . S
C491 C490 1.400 . S
C491 C492 1.398 . S
C491 C497 1.491 . S
C492 H483 0.950 . S
C492 C491 1.398 . S
C492 C493 1.391 . S
C493 H481 0.950 . S
C493 C489 1.393 . S
C493 C492 1.391 . S
C494 H484 0.950 . S
C494 C495 1.386 . S
C494 C496 1.391 . S
C495 C494 1.386 . S
C495 C499 1.393 . S
C496 H485 0.950 . S
C496 C494 1.391 . S
C496 C497 1.400 . S
C497 C491 1.491 . S
C497 C496 1.400 . S
C497 C498 1.398 . S
C498 H486 0.950 . S
C498 C497 1.398 . S
C498 C499 1.391 . S
C499 H487 0.950 . S
C499 C495 1.393 . S
C499 C498 1.391 . S
H500 C508 0.950 1_545 S
H501 C513 0.950 . S
H502 C510 0.950 . S
H503 C512 0.950 . S
H504 C514 0.950 . S
H505 C516 0.950 . S
H506 C518 0.950 . S
H507 C519 0.950 . S
C508 H500 0.950 1_565 S
C508 C509 1.386 . S
C508 C510 1.391 . S
C509 C508 1.386 . S
C509 C513 1.393 . S
C510 H502 0.950 . S
C510 C508 1.391 . S
C510 C511 1.400 . S
C511 C510 1.400 . S
C511 C512 1.398 . S
C511 C517 1.491 . S
C512 H503 0.950 . S
C512 C511 1.398 . S
C512 C513 1.391 . S
C513 H501 0.950 . S
C513 C509 1.393 . S
C513 C512 1.391 . S
C514 H504 0.950 . S
C514 C515 1.386 . S
C514 C516 1.391 . S
C515 C514 1.386 . S
C515 C519 1.393 . S
C516 H505 0.950 . S
C516 C514 1.391 . S
C516 C517 1.400 . S
C517 C511 1.491 . S
C517 C516 1.400 . S
C517 C518 1.398 . S
C518 H506 0.950 . S
C518 C517 1.398 . S
C518 C519 1.391 . S
C519 H507 0.950 . S
C519 C515 1.393 . S
C519 C518 1.391 . S
H520 C528 0.950 1_556 S
H521 C533 0.950 . S
H522 C530 0.950 . S
H523 C532 0.950 . S
H524 C534 0.950 . S
H525 C536 0.950 . S
H526 C538 0.950 . S
H527 C539 0.950 . S
C528 H520 0.950 1_554 S
C528 C529 1.386 . S
C528 C530 1.391 . S
C529 C528 1.386 . S
C529 C533 1.393 . S
C530 H522 0.950 . S
C530 C528 1.391 . S
C530 C531 1.400 . S
C531 C530 1.400 . S
C531 C532 1.398 . S
C531 C537 1.491 . S
C532 H523 0.950 . S
C532 C531 1.398 . S
C532 C533 1.391 . S
C533 H521 0.950 . S
C533 C529 1.393 . S
C533 C532 1.391 . S
C534 H524 0.950 . S
C534 C535 1.386 . S
C534 C536 1.391 . S
C535 C534 1.386 . S
C535 C539 1.393 . S
C536 H525 0.950 . S
C536 C534 1.391 . S
C536 C537 1.400 . S
C537 C531 1.491 . S
C537 C536 1.400 . S
C537 C538 1.398 . S
C538 H526 0.950 . S
C538 C537 1.398 . S
C538 C539 1.391 . S
C539 H527 0.950 . S
C539 C535 1.393 . S
C539 C538 1.391 . S
H540 C548 0.950 . S
H541 C553 0.950 . S
H542 C550 0.950 . S
H543 C552 0.950 . S
H544 C554 0.950 . S
H545 C556 0.950 . S
H546 C558 0.950 . S
H547 C559 0.950 . S
C548 H540 0.950 . S
C548 C549 1.386 . S
C548 C550 1.391 . S
C549 C548 1.386 . S
C549 C553 1.393 . S
C550 H542 0.950 . S
C550 C548 1.391 . S
C550 C551 1.400 . S
C551 C550 1.400 . S
C551 C552 1.398 . S
C551 C557 1.491 . S
C552 H543 0.950 . S
C552 C551 1.398 . S
C552 C553 1.391 . S
C553 H541 0.950 . S
C553 C549 1.393 . S
C553 C552 1.391 . S
C554 H544 0.950 . S
C554 C555 1.386 . S
C554 C556 1.391 . S
C555 C554 1.386 . S
C555 C559 1.393 . S
C556 H545 0.950 . S
C556 C554 1.391 . S
C556 C557 1.400 . S
C557 C551 1.491 . S
C557 C556 1.400 . S
C557 C558 1.398 . S
C558 H546 0.950 . S
C558 C557 1.398 . S
C558 C559 1.391 . S
C559 H547 0.950 . S
C559 C555 1.393 . S
C559 C558 1.391 . S
H560 C568 0.950 . S
H561 C573 0.950 . S
H562 C570 0.950 . S
H563 C572 0.950 . S
H564 C574 0.950 . S
H565 C576 0.950 . S
H566 C578 0.950 . S
H567 C579 0.950 . S
C568 H560 0.950 . S
C568 C569 1.386 . S
C568 C570 1.391 . S
C569 C568 1.386 . S
C569 C573 1.393 . S
C570 H562 0.950 . S
C570 C568 1.391 . S
C570 C571 1.400 . S
C571 C570 1.400 . S
C571 C572 1.398 . S
C571 C577 1.491 . S
C572 H563 0.950 . S
C572 C571 1.398 . S
C572 C573 1.391 . S
C573 H561 0.950 . S
C573 C569 1.393 . S
C573 C572 1.391 . S
C574 H564 0.950 . S
C574 C575 1.386 . S
C574 C576 1.391 . S
C575 C574 1.386 . S
C575 C579 1.393 . S
C576 H565 0.950 . S
C576 C574 1.391 . S
C576 C577 1.400 . S
C577 C571 1.491 . S
C577 C576 1.400 . S
C577 C578 1.398 . S
C578 H566 0.950 . S
C578 C577 1.398 . S
C578 C579 1.391 . S
C579 H567 0.950 . S
C579 C575 1.393 . S
C579 C578 1.391 . S
H580 C588 0.950 . S
H581 C593 0.950 . S
H582 C590 0.950 . S
H583 C592 0.950 . S
H584 C594 0.950 . S
H585 C596 0.950 . S
H586 C598 0.950 . S
H587 C599 0.950 . S
C588 H580 0.950 . S
C588 C589 1.386 . S
C588 C590 1.391 . S
C589 C588 1.386 . S
C589 C593 1.393 . S
C590 H582 0.950 . S
C590 C588 1.391 . S
C590 C591 1.400 . S
C591 C590 1.400 . S
C591 C592 1.398 . S
C591 C597 1.491 . S
C592 H583 0.950 . S
C592 C591 1.398 . S
C592 C593 1.391 . S
C593 H581 0.950 . S
C593 C589 1.393 . S
C593 C592 1.391 . S
C594 H584 0.950 . S
C594 C595 1.386 . S
C594 C596 1.391 . S
C595 C594 1.386 . S
C595 C599 1.393 . S
C596 H585 0.950 . S
C596 C594 1.391 . S
C596 C597 1.400 . S
C597 C591 1.491 . S
C597 C596 1.400 . S
C597 C598 1.398 . S
C598 H586 0.950 . S
C598 C597 1.398 . S
C598 C599 1.391 . S
C599 H587 0.950 . S
C599 C595 1.393 . S
C599 C598 1.391 . S
H600 C608 0.950 . S
H601 C613 0.950 . S
H602 C610 0.950 . S
H603 C612 0.950 . S
H604 C614 0.950 . S
H605 C616 0.950 . S
H606 C618 0.950 . S
H607 C619 0.950 . S
C608 H600 0.950 . S
C608 C609 1.386 . S
C608 C610 1.391 . S
C609 C608 1.386 . S
C609 C613 1.393 . S
C610 H602 0.950 . S
C610 C608 1.391 . S
C610 C611 1.400 . S
C611 C610 1.400 . S
C611 C612 1.398 . S
C611 C617 1.491 . S
C612 H603 0.950 . S
C612 C611 1.398 . S
C612 C613 1.391 . S
C613 H601 0.950 . S
C613 C609 1.393 . S
C613 C612 1.391 . S
C614 H604 0.950 . S
C614 C615 1.386 . S
C614 C616 1.391 . S
C615 C614 1.386 . S
C615 C619 1.393 . S
C616 H605 0.950 . S
C616 C614 1.391 . S
C616 C617 1.400 . S
C617 C611 1.491 . S
C617 C616 1.400 . S
C617 C618 1.398 . S
C618 H606 0.950 . S
C618 C617 1.398 . S
C618 C619 1.391 . S
C619 H607 0.950 . S
C619 C615 1.393 . S
C619 C618 1.391 . S
H620 C628 0.950 . S
H621 C633 0.950 . S
H622 C630 0.950 . S
H623 C632 0.950 . S
H624 C634 0.950 . S
H625 C636 0.950 . S
H626 C638 0.950 . S
H627 C639 0.950 . S
C628 H620 0.950 . S
C628 C629 1.386 . S
C628 C630 1.391 . S
C629 C628 1.386 . S
C629 C633 1.393 . S
C630 H622 0.950 . S
C630 C628 1.391 . S
C630 C631 1.400 . S
C631 C630 1.400 . S
C631 C632 1.398 . S
C631 C637 1.491 . S
C632 H623 0.950 . S
C632 C631 1.398 . S
C632 C633 1.391 . S
C633 H621 0.950 . S
C633 C629 1.393 . S
C633 C632 1.391 . S
C634 H624 0.950 . S
C634 C635 1.386 . S
C634 C636 1.391 . S
C635 C634 1.386 . S
C635 C639 1.393 . S
C636 H625 0.950 . S
C636 C634 1.391 . S
C636 C637 1.400 . S
C637 C631 1.491 . S
C637 C636 1.400 . S
C637 C638 1.398 . S
C638 H626 0.950 . S
C638 C637 1.398 . S
C638 C639 1.391 . S
C639 H627 0.950 . S
C639 C635 1.393 . S
C639 C638 1.391 . S
H640 C648 0.950 . S
H641 C653 0.950 . S
H642 C650 0.950 . S
H643 C652 0.950 . S
H644 C654 0.950 . S
H645 C656 0.950 . S
H646 C658 0.950 . S
H647 C659 0.950 . S
C648 H640 0.950 . S
C648 C649 1.386 . S
C648 C650 1.391 . S
C649 C648 1.386 . S
C649 C653 1.393 . S
C650 H642 0.950 . S
C650 C648 1.391 . S
C650 C651 1.400 . S
C651 C650 1.400 . S
C651 C652 1.398 . S
C651 C657 1.491 . S
C652 H643 0.950 . S
C652 C651 1.398 . S
C652 C653 1.391 . S
C653 H641 0.950 . S
C653 C649 1.393 . S
C653 C652 1.391 . S
C654 H644 0.950 . S
C654 C655 1.386 . S
C654 C656 1.391 . S
C655 C654 1.386 . S
C655 C659 1.393 . S
C656 H645 0.950 . S
C656 C654 1.391 . S
C656 C657 1.400 . S
C657 C651 1.491 . S
C657 C656 1.400 . S
C657 C658 1.398 . S
C658 H646 0.950 . S
C658 C657 1.398 . S
C658 C659 1.391 . S
C659 H647 0.950 . S
C659 C655 1.393 . S
C659 C658 1.391 . S
H660 C668 0.950 . S
H661 C673 0.950 . S
H662 C670 0.950 . S
H663 C672 0.950 . S
H664 C674 0.950 . S
H665 C676 0.950 . S
H666 C678 0.950 . S
H667 C679 0.950 . S
C668 H660 0.950 . S
C668 C669 1.386 . S
C668 C670 1.391 . S
C669 C668 1.386 . S
C669 C673 1.393 . S
C670 H662 0.950 . S
C670 C668 1.391 . S
C670 C671 1.400 . S
C671 C670 1.400 . S
C671 C672 1.398 . S
C671 C677 1.491 . S
C672 H663 0.950 . S
C672 C671 1.398 . S
C672 C673 1.391 . S
C673 H661 0.950 . S
C673 C669 1.393 . S
C673 C672 1.391 . S
C674 H664 0.950 . S
C674 C675 1.386 . S
C674 C676 1.391 . S
C675 C674 1.386 . S
C675 C679 1.393 . S
C676 H665 0.950 . S
C676 C674 1.391 . S
C676 C677 1.400 . S
C677 C671 1.491 . S
C677 C676 1.400 . S
C677 C678 1.398 . S
C678 H666 0.950 . S
C678 C677 1.398 . S
C678 C679 1.391 . S
C679 H667 0.950 . S
C679 C675 1.393 . S
C679 C678 1.391 . S
H680 C688 0.950 1_455 S
H681 C693 0.950 . S
H682 C690 0.950 . S
H683 C692 0.950 . S
H684 C694 0.950 . S
H685 C696 0.950 . S
H686 C698 0.950 . S
H687 C699 0.950 . S
C688 H680 0.950 1_655 S
C688 C689 1.386 . S
C688 C690 1.391 . S
C689 C688 1.386 . S
C689 C693 1.393 . S
C690 H682 0.950 . S
C690 C688 1.391 . S
C690 C691 1.400 . S
C691 C690 1.400 . S
C691 C692 1.398 . S
C691 C697 1.491 . S
C692 H683 0.950 . S
C692 C691 1.398 . S
C692 C693 1.391 . S
C693 H681 0.950 . S
C693 C689 1.393 . S
C693 C692 1.391 . S
C694 H684 0.950 . S
C694 C695 1.386 . S
C694 C696 1.391 . S
C695 C694 1.386 . S
C695 C699 1.393 . S
C696 H685 0.950 . S
C696 C694 1.391 . S
C696 C697 1.400 . S
C697 C691 1.491 . S
C697 C696 1.400 . S
C697 C698 1.398 . S
C698 H686 0.950 . S
C698 C697 1.398 . S
C698 C699 1.391 . S
C699 H687 0.950 . S
C699 C695 1.393 . S
C699 C698 1.391 . S
H700 C708 0.950 . S
H701 C713 0.950 . S
H702 C710 0.950 . S
H703 C712 0.950 . S
H704 C714 0.950 . S
H705 C716 0.950 . S
H706 C718 0.950 . S
H707 C719 0.950 . S
C708 H700 0.950 . S
C708 C709 1.386 . S
C708 C710 1.391 . S
C709 C708 1.386 . S
C709 C713 1.393 . S
C710 H702 0.950 . S
C710 C708 1.391 . S
C710 C711 1.400 . S
C711 C710 1.400 . S
C711 C712 1.398 . S
C711 C717 1.491 . S
C712 H703 0.950 . S
C712 C711 1.398 . S
C712 C713 1.391 . S
C713 H701 0.950 . S
C713 C709 1.393 . S
C713 C712 1.391 . S
C714 H704 0.950 . S
C714 C715 1.386 . S
C714 C716 1.391 . S
C715 C714 1.386 . S
C715 C719 1.393 . S
C716 H705 0.950 . S
C716 C714 1.391 . S
C716 C717 1.400 . S
C717 C711 1.491 . S
C717 C716 1.400 . S
C717 C718 1.398 . S
C718 H706 0.950 . S
C718 C717 1.398 . S
C718 C719 1.391 . S
C719 H707 0.950 . S
C719 C715 1.393 . S
C719 C718 1.391 . S
H720 C728 0.950 . S
H721 C733 0.950 . S
H722 C730 0.950 . S
H723 C732 0.950 . S
H724 C734 0.950 . S
H725 C736 0.950 . S
H726 C738 0.950 . S
H727 C739 0.950 . S
C728 H720 0.950 . S
C728 C729 1.386 . S
C728 C730 1.391 . S
C729 C728 1.386 . S
C729 C733 1.393 . S
C730 H722 0.950 . S
C730 C728 1.391 . S
C730 C731 1.400 . S
C731 C730 1.400 . S
C731 C732 1.398 . S
C731 C737 1.491 . S
C732 H723 0.950 . S
C732 C731 1.398 . S
C732 C733 1.391 . S
C733 H721 0.950 . S
C733 C729 1.393 . S
C733 C732 1.391 . S
C734 H724 0.950 . S
C734 C735 1.386 . S
C734 C736 1.391 . S
C735 C734 1.386 . S
C735 C739 1.393 . S
C736 H725 0.950 . S
C736 C734 1.391 . S
C736 C737 1.400 . S
C737 C731 1.491 . S
C737 C736 1.400 . S
C737 C738 1.398 . S
C738 H726 0.950 . S
C738 C737 1.398 . S
C738 C739 1.391 . S
C739 H727 0.950 . S
C739 C735 1.393 . S
C739 C738 1.391 . S
H740 C748 0.950 . S
H741 C753 0.950 . S
H742 C750 0.950 . S
H743 C752 0.950 . S
H744 C754 0.950 . S
H745 C756 0.950 . S
H746 C758 0.950 . S
H747 C759 0.950 . S
C748 H740 0.950 . S
C748 C749 1.386 . S
C748 C750 1.391 . S
C749 C748 1.386 . S
C749 C753 1.393 . S
C750 H742 0.950 . S
C750 C748 1.391 . S
C750 C751 1.400 . S
C751 C750 1.400 . S
C751 C752 1.398 . S
C751 C757 1.491 . S
C752 H743 0.950 . S
C752 C751 1.398 . S
C752 C753 1.391 . S
C753 H741 0.950 . S
C753 C749 1.393 . S
C753 C752 1.391 . S
C754 H744 0.950 . S
C754 C755 1.386 . S
C754 C756 1.391 . S
C755 C754 1.386 . S
C755 C759 1.393 . S
C756 H745 0.950 . S
C756 C754 1.391 . S
C756 C757 1.400 . S
C757 C751 1.491 . S
C757 C756 1.400 . S
C757 C758 1.398 . S
C758 H746 0.950 . S
C758 C757 1.398 . S
C758 C759 1.391 . S
C759 H747 0.950 . S
C759 C755 1.393 . S
C759 C758 1.391 . S
H760 C768 0.950 . S
H761 C773 0.950 . S
H762 C770 0.950 . S
H763 C772 0.950 . S
H764 C774 0.950 . S
H765 C776 0.950 . S
H766 C778 0.950 . S
H767 C779 0.950 . S
C768 H760 0.950 . S
C768 C769 1.386 . S
C768 C770 1.391 . S
C769 C768 1.386 . S
C769 C773 1.393 . S
C770 H762 0.950 . S
C770 C768 1.391 . S
C770 C771 1.400 . S
C771 C770 1.400 . S
C771 C772 1.398 . S
C771 C777 1.491 . S
C772 H763 0.950 . S
C772 C771 1.398 . S
C772 C773 1.391 . S
C773 H761 0.950 . S
C773 C769 1.393 . S
C773 C772 1.391 . S
C774 H764 0.950 . S
C774 C775 1.386 . S
C774 C776 1.391 . S
C775 C774 1.386 . S
C775 C779 1.393 . S
C776 H765 0.950 . S
C776 C774 1.391 . S
C776 C777 1.400 . S
C777 C771 1.491 . S
C777 C776 1.400 . S
C777 C778 1.398 . S
C778 H766 0.950 . S
C778 C777 1.398 . S
C778 C779 1.391 . S
C779 H767 0.950 . S
C779 C775 1.393 . S
C779 C778 1.391 . S
H780 C788 0.950 . S
H781 C793 0.950 . S
H782 C790 0.950 . S
H783 C792 0.950 . S
H784 C794 0.950 . S
H785 C796 0.950 . S
H786 C798 0.960 . S
H787 C799 0.950 . S
C788 H780 0.950 . S
C788 C789 1.386 . S
C788 C790 1.391 . S
C789 C788 1.386 . S
C789 C793 1.393 . S
C790 H782 0.950 . S
C790 C788 1.391 . S
C790 C791 1.400 . S
C791 C790 1.400 . S
C791 C792 1.398 . S
C791 C797 1.491 . S
C792 H783 0.950 . S
C792 C791 1.398 . S
C792 C793 1.391 . S
C793 H781 0.950 . S
C793 C789 1.393 . S
C793 C792 1.391 . S
C794 H784 0.950 . S
C794 C795 1.386 . S
C794 C796 1.391 . S
C795 C794 1.386 . S
C795 C799 1.393 . S
C796 H785 0.950 . S
C796 C794 1.391 . S
C796 C797 1.400 1_556 S
C797 C791 1.491 . S
C797 C796 1.400 1_554 S
C797 C798 1.402 . S
C798 H786 0.960 . S
C798 C797 1.402 . S
C798 C799 1.377 1_554 S
C799 H787 0.950 . S
C799 C795 1.393 . S
C799 C798 1.377 1_556 S
H800 C808 0.950 . S
H801 C813 0.950 . S
H802 C810 0.950 . S
H803 C812 0.950 . S
H804 C814 0.950 . S
H805 C816 0.950 . S
H806 C818 0.950 . S
H807 C819 0.950 . S
C808 H800 0.950 . S
C808 C809 1.386 . S
C808 C810 1.391 . S
C809 C808 1.386 . S
C809 C813 1.393 . S
C810 H802 0.950 . S
C810 C808 1.391 . S
C810 C811 1.400 . S
C811 C810 1.400 . S
C811 C812 1.398 . S
C811 C817 1.491 . S
C812 H803 0.950 . S
C812 C811 1.398 . S
C812 C813 1.391 . S
C813 H801 0.950 . S
C813 C809 1.393 . S
C813 C812 1.391 . S
C814 H804 0.950 . S
C814 C815 1.386 . S
C814 C816 1.391 . S
C815 C814 1.386 . S
C815 C819 1.393 . S
C816 H805 0.950 . S
C816 C814 1.391 . S
C816 C817 1.400 . S
C817 C811 1.491 . S
C817 C816 1.400 . S
C817 C818 1.398 . S
C818 H806 0.950 . S
C818 C817 1.398 . S
C818 C819 1.391 . S
C819 H807 0.950 . S
C819 C815 1.393 . S
C819 C818 1.391 . S
H820 C828 0.950 . S
H821 C833 0.950 . S
H822 C830 0.950 . S
H823 C832 0.950 . S
H824 C834 0.950 . S
H825 C836 0.950 . S
H826 C838 0.950 . S
H827 C839 0.950 . S
C828 H820 0.950 . S
C828 C829 1.386 . S
C828 C830 1.391 . S
C829 C828 1.386 . S
C829 C833 1.393 . S
C830 H822 0.950 . S
C830 C828 1.391 . S
C830 C831 1.400 . S
C831 C830 1.400 . S
C831 C832 1.398 . S
C831 C837 1.491 1_554 S
C832 H823 0.950 . S
C832 C831 1.398 . S
C832 C833 1.391 . S
C833 H821 0.950 . S
C833 C829 1.393 . S
C833 C832 1.391 . S
C834 H824 0.950 . S
C834 C835 1.386 . S
C834 C836 1.391 . S
C835 C834 1.386 . S
C835 C839 1.393 . S
C836 H825 0.950 . S
C836 C834 1.391 . S
C836 C837 1.400 . S
C837 C831 1.491 1_556 S
C837 C836 1.400 . S
C837 C838 1.398 . S
C838 H826 0.950 . S
C838 C837 1.398 . S
C838 C839 1.391 . S
C839 H827 0.950 . S
C839 C835 1.393 . S
C839 C838 1.391 . S
H840 C848 0.950 . S
H841 C853 0.950 . S
H842 C850 0.950 . S
H843 C852 0.950 . S
H844 C854 0.950 . S
H845 C856 0.950 . S
H846 C858 0.950 . S
H847 C859 0.950 . S
C848 H840 0.950 . S
C848 C849 1.386 . S
C848 C850 1.391 . S
C849 C848 1.386 . S
C849 C853 1.393 . S
C850 H842 0.950 . S
C850 C848 1.391 . S
C850 C851 1.400 . S
C851 C850 1.400 . S
C851 C852 1.398 . S
C851 C857 1.491 . S
C852 H843 0.950 . S
C852 C851 1.398 . S
C852 C853 1.391 . S
C853 H841 0.950 . S
C853 C849 1.393 . S
C853 C852 1.391 . S
C854 H844 0.950 . S
C854 C855 1.386 . S
C854 C856 1.391 . S
C855 C854 1.386 . S
C855 C859 1.393 . S
C856 H845 0.950 . S
C856 C854 1.391 . S
C856 C857 1.400 . S
C857 C851 1.491 . S
C857 C856 1.400 . S
C857 C858 1.398 . S
C858 H846 0.950 . S
C858 C857 1.398 . S
C858 C859 1.391 . S
C859 H847 0.950 . S
C859 C855 1.393 . S
C859 C858 1.391 . S
H860 C868 0.950 . S
H861 C873 0.950 . S
H862 C870 0.950 . S
H863 C872 0.950 . S
H864 C874 0.950 . S
H865 C876 0.950 . S
H866 C878 0.950 . S
H867 C879 0.950 . S
C868 H860 0.950 . S
C868 C869 1.386 . S
C868 C870 1.391 . S
C869 C868 1.386 . S
C869 C873 1.393 . S
C870 H862 0.950 . S
C870 C868 1.391 . S
C870 C871 1.400 . S
C871 C870 1.400 . S
C871 C872 1.398 . S
C871 C877 1.491 . S
C872 H863 0.950 . S
C872 C871 1.398 . S
C872 C873 1.391 . S
C873 H861 0.950 . S
C873 C869 1.393 . S
C873 C872 1.391 . S
C874 H864 0.950 . S
C874 C875 1.386 . S
C874 C876 1.391 . S
C875 C874 1.386 . S
C875 C879 1.393 . S
C876 H865 0.950 . S
C876 C874 1.391 . S
C876 C877 1.400 . S
C877 C871 1.491 . S
C877 C876 1.400 . S
C877 C878 1.398 . S
C878 H866 0.950 . S
C878 C877 1.398 . S
C878 C879 1.391 . S
C879 H867 0.950 . S
C879 C875 1.393 . S
C879 C878 1.391 . S
H880 C888 0.950 . S
H881 C893 0.950 . S
H882 C890 0.950 . S
H883 C892 0.950 . S
H884 C894 0.950 . S
H885 C896 0.950 . S
H886 C898 0.950 . S
H887 C899 0.950 . S
C888 H880 0.950 . S
C888 C889 1.386 . S
C888 C890 1.391 . S
C889 C888 1.386 . S
C889 C893 1.393 . S
C890 H882 0.950 . S
C890 C888 1.391 . S
C890 C891 1.400 . S
C891 C890 1.400 . S
C891 C892 1.398 . S
C891 C897 1.491 . S
C892 H883 0.950 . S
C892 C891 1.398 . S
C892 C893 1.391 . S
C893 H881 0.950 . S
C893 C889 1.393 . S
C893 C892 1.391 . S
C894 H884 0.950 . S
C894 C895 1.386 . S
C894 C896 1.391 . S
C895 C894 1.386 . S
C895 C899 1.393 . S
C896 H885 0.950 . S
C896 C894 1.391 . S
C896 C897 1.400 . S
C897 C891 1.491 . S
C897 C896 1.400 . S
C897 C898 1.398 . S
C898 H886 0.950 . S
C898 C897 1.398 . S
C898 C899 1.391 . S
C899 H887 0.950 . S
C899 C895 1.393 . S
C899 C898 1.391 . S
H900 C908 0.950 . S
H901 C913 0.950 . S
H902 C910 0.950 . S
H903 C912 0.950 . S
H904 C914 0.950 1_655 S
H905 C916 0.950 . S
H906 C918 0.950 . S
H907 C919 0.950 . S
C908 H900 0.950 . S
C908 C909 1.386 . S
C908 C910 1.391 . S
C909 C908 1.386 . S
C909 C913 1.393 . S
C910 H902 0.950 . S
C910 C908 1.391 . S
C910 C911 1.400 . S
C911 C910 1.400 . S
C911 C912 1.398 . S
C911 C917 1.491 1_545 S
C912 H903 0.950 . S
C912 C911 1.398 . S
C912 C913 1.391 . S
C913 H901 0.950 . S
C913 C909 1.393 . S
C913 C912 1.391 . S
C914 H904 0.950 1_455 S
C914 C915 1.386 . S
C914 C916 1.391 . S
C915 C914 1.386 . S
C915 C919 1.393 . S
C916 H905 0.950 . S
C916 C914 1.391 . S
C916 C917 1.400 . S
C917 C911 1.491 1_565 S
C917 C916 1.400 . S
C917 C918 1.398 . S
C918 H906 0.950 . S
C918 C917 1.398 . S
C918 C919 1.391 . S
C919 H907 0.950 . S
C919 C915 1.393 . S
C919 C918 1.391 . S
H920 C928 0.950 . S
H921 C933 0.950 . S
H922 C930 0.950 . S
H923 C932 0.950 . S
H924 C934 0.950 . S
H925 C936 0.950 . S
H926 C938 0.950 . S
H927 C939 0.950 . S
C928 H920 0.950 . S
C928 C929 1.386 . S
C928 C930 1.391 . S
C929 C928 1.386 . S
C929 C933 1.393 . S
C930 H922 0.950 . S
C930 C928 1.391 . S
C930 C931 1.400 . S
C931 C930 1.400 . S
C931 C932 1.398 . S
C931 C937 1.491 . S
C932 H923 0.950 . S
C932 C931 1.398 . S
C932 C933 1.391 . S
C933 H921 0.950 . S
C933 C929 1.393 . S
C933 C932 1.391 . S
C934 H924 0.950 . S
C934 C935 1.386 . S
C934 C936 1.391 . S
C935 C934 1.386 . S
C935 C939 1.393 . S
C936 H925 0.950 . S
C936 C934 1.391 . S
C936 C937 1.400 . S
C937 C931 1.491 . S
C937 C936 1.400 . S
C937 C938 1.398 . S
C938 H926 0.950 . S
C938 C937 1.398 . S
C938 C939 1.391 . S
C939 H927 0.950 . S
C939 C935 1.393 . S
C939 C938 1.391 . S
H940 C948 0.950 . S
H941 C953 0.950 . S
H942 C950 0.950 . S
H943 C952 0.950 . S
H944 C954 0.950 . S
H945 C956 0.950 1_545 S
H946 C958 0.950 . S
H947 C959 0.950 . S
C948 H940 0.950 . S
C948 C949 1.386 . S
C948 C950 1.391 . S
C949 C948 1.386 . S
C949 C953 1.393 . S
C950 H942 0.950 . S
C950 C948 1.391 . S
C950 C951 1.400 . S
C951 C950 1.400 . S
C951 C952 1.398 . S
C951 C957 1.491 1_545 S
C952 H943 0.950 . S
C952 C951 1.398 . S
C952 C953 1.391 . S
C953 H941 0.950 . S
C953 C949 1.393 . S
C953 C952 1.391 . S
C954 H944 0.950 . S
C954 C955 1.386 . S
C954 C956 1.391 . S
C955 C954 1.386 . S
C955 C959 1.393 . S
C956 H945 0.950 1_565 S
C956 C954 1.391 . S
C956 C957 1.400 . S
C957 C951 1.491 1_565 S
C957 C956 1.400 . S
C957 C958 1.398 . S
C958 H946 0.950 . S
C958 C957 1.398 . S
C958 C959 1.391 . S
C959 H947 0.950 . S
C959 C955 1.393 . S
C959 C958 1.391 . S
H960 C968 0.950 . S
H961 C973 0.950 . S
H962 C970 0.950 . S
H963 C972 0.950 . S
H964 C974 0.950 . S
H965 C976 0.950 . S
H966 C978 0.950 . S
H967 C979 0.950 . S
C968 H960 0.950 . S
C968 C969 1.386 . S
C968 C970 1.391 . S
C969 C968 1.386 . S
C969 C973 1.393 . S
C970 H962 0.950 . S
C970 C968 1.391 . S
C970 C971 1.400 . S
C971 C970 1.400 . S
C971 C972 1.398 . S
C971 C977 1.491 . S
C972 H963 0.950 . S
C972 C971 1.398 . S
C972 C973 1.391 . S
C973 H961 0.950 . S
C973 C969 1.393 . S
C973 C972 1.391 . S
C974 H964 0.950 . S
C974 C975 1.386 . S
C974 C976 1.391 . S
C975 C974 1.386 . S
C975 C979 1.393 . S
C976 H965 0.950 . S
C976 C974 1.391 . S
C976 C977 1.400 . S
C977 C971 1.491 . S
C977 C976 1.400 . S
C977 C978 1.398 . S
C978 H966 0.950 . S
C978 C977 1.398 . S
C978 C979 1.391 . S
C979 H967 0.950 . S
C979 C975 1.393 . S
C979 C978 1.391 . S
H980 C988 0.950 . S
H981 C993 0.950 . S
H982 C990 0.950 . S
H983 C992 0.950 . S
H984 C994 0.950 . S
H985 C996 0.950 . S
H986 C998 0.950 . S
H987 C999 0.950 . S
C988 H980 0.950 . S
C988 C989 1.386 . S
C988 C990 1.391 . S
C989 C988 1.386 . S
C989 C993 1.393 . S
C990 H982 0.950 . S
C990 C988 1.391 . S
C990 C991 1.400 . S
C991 C990 1.400 . S
C991 C992 1.398 . S
C991 C997 1.491 . S
C992 H983 0.950 . S
C992 C991 1.398 . S
C992 C993 1.391 . S
C993 H981 0.950 . S
C993 C989 1.393 . S
C993 C992 1.391 . S
C994 H984 0.950 . S
C994 C995 1.386 . S
C994 C996 1.391 . S
C995 C994 1.386 . S
C995 C999 1.393 . S
C996 H985 0.950 . S
C996 C994 1.391 . S
C996 C997 1.400 . S
C997 C991 1.491 . S
C997 C996 1.400 . S
C997 C998 1.398 . S
C998 H986 0.950 . S
C998 C997 1.398 . S
C998 C999 1.391 . S
C999 H987 0.950 . S
C999 C995 1.393 . S
C999 C998 1.391 . S
H1000 C1008 0.950 . S
H1001 C1013 0.950 . S
H1002 C1010 0.950 . S
H1003 C1012 0.950 . S
H1004 C1014 0.950 . S
H1005 C1016 0.950 . S
H1006 C1018 0.950 . S
H1007 C1019 0.950 . S
C1008 H1000 0.950 . S
C1008 C1009 1.386 . S
C1008 C1010 1.391 . S
C1009 C1008 1.386 . S
C1009 C1013 1.393 . S
C1010 H1002 0.950 . S
C1010 C1008 1.391 . S
C1010 C1011 1.400 . S
C1011 C1010 1.400 . S
C1011 C1012 1.398 . S
C1011 C1017 1.491 . S
C1012 H1003 0.950 . S
C1012 C1011 1.398 . S
C1012 C1013 1.391 . S
C1013 H1001 0.950 . S
C1013 C1009 1.393 . S
C1013 C1012 1.391 . S
C1014 H1004 0.950 . S
C1014 C1015 1.386 . S
C1014 C1016 1.391 . S
C1015 C1014 1.386 . S
C1015 C1019 1.393 . S
C1016 H1005 0.950 . S
C1016 C1014 1.391 . S
C1016 C1017 1.400 . S
C1017 C1011 1.491 . S
C1017 C1016 1.400 . S
C1017 C1018 1.398 . S
C1018 H1006 0.950 . S
C1018 C1017 1.398 . S
C1018 C1019 1.391 . S
C1019 H1007 0.950 . S
C1019 C1015 1.393 . S
C1019 C1018 1.391 . S
H1020 C1028 0.950 . S
H1021 C1033 0.950 . S
H1022 C1030 0.950 . S
H1023 C1032 0.950 . S
H1024 C1034 0.950 . S
H1025 C1036 0.950 . S
H1026 C1038 0.950 . S
H1027 C1039 0.950 . S
C1028 H1020 0.950 . S
C1028 C1029 1.386 . S
C1028 C1030 1.391 . S
C1029 C1028 1.386 . S
C1029 C1033 1.393 . S
C1030 H1022 0.950 . S
C1030 C1028 1.391 . S
C1030 C1031 1.400 . S
C1031 C1030 1.400 . S
C1031 C1032 1.398 . S
C1031 C1037 1.491 . S
C1032 H1023 0.950 . S
C1032 C1031 1.398 . S
C1032 C1033 1.391 . S
C1033 H1021 0.950 . S
C1033 C1029 1.393 . S
C1033 C1032 1.391 . S
C1034 H1024 0.950 . S
C1034 C1035 1.386 . S
C1034 C1036 1.391 . S
C1035 C1034 1.386 . S
C1035 C1039 1.393 . S
C1036 H1025 0.950 . S
C1036 C1034 1.391 . S
C1036 C1037 1.400 . S
C1037 C1031 1.491 . S
C1037 C1036 1.400 . S
C1037 C1038 1.398 . S
C1038 H1026 0.950 . S
C1038 C1037 1.398 . S
C1038 C1039 1.391 . S
C1039 H1027 0.950 . S
C1039 C1035 1.393 . S
C1039 C1038 1.391 . S
H1040 C1048 0.950 . S
H1041 C1053 0.950 . S
H1042 C1050 0.950 . S
H1043 C1052 0.950 . S
H1044 C1054 0.950 . S
H1045 C1056 0.950 . S
H1046 C1058 0.950 . S
H1047 C1059 0.950 . S
C1048 H1040 0.950 . S
C1048 C1049 1.386 . S
C1048 C1050 1.391 . S
C1049 C1048 1.386 . S
C1049 C1053 1.393 . S
C1050 H1042 0.950 . S
C1050 C1048 1.391 . S
C1050 C1051 1.400 . S
C1051 C1050 1.400 . S
C1051 C1052 1.398 . S
C1051 C1057 1.491 . S
C1052 H1043 0.950 . S
C1052 C1051 1.398 . S
C1052 C1053 1.391 . S
C1053 H1041 0.950 . S
C1053 C1049 1.393 . S
C1053 C1052 1.391 . S
C1054 H1044 0.950 . S
C1054 C1055 1.386 . S
C1054 C1056 1.391 . S
C1055 C1054 1.386 . S
C1055 C1059 1.393 . S
C1056 H1045 0.950 . S
C1056 C1054 1.391 . S
C1056 C1057 1.400 . S
C1057 C1051 1.491 . S
C1057 C1056 1.400 . S
C1057 C1058 1.398 . S
C1058 H1046 0.950 . S
C1058 C1057 1.398 . S
C1058 C1059 1.391 . S
C1059 H1047 0.950 . S
C1059 C1055 1.393 . S
C1059 C1058 1.391 . S
H1060 C1068 0.950 . S
H1061 C1073 0.950 . S
H1062 C1070 0.950 . S
H1063 C1072 0.950 . S
H1064 C1074 0.950 . S
H1065 C1076 0.950 . S
H1066 C1078 0.950 . S
H1067 C1079 0.950 . S
C1068 H1060 0.950 . S
C1068 C1069 1.386 . S
C1068 C1070 1.391 . S
C1069 C1068 1.386 . S
C1069 C1073 1.393 . S
C1070 H1062 0.950 . S
C1070 C1068 1.391 . S
C1070 C1071 1.400 . S
C1071 C1070 1.400 . S
C1071 C1072 1.398 . S
C1071 C1077 1.491 . S
C1072 H1063 0.950 . S
C1072 C1071 1.398 . S
C1072 C1073 1.391 . S
C1073 H1061 0.950 . S
C1073 C1069 1.393 . S
C1073 C1072 1.391 . S
C1074 H1064 0.950 . S
C1074 C1075 1.386 . S
C1074 C1076 1.391 . S
C1075 C1074 1.386 . S
C1075 C1079 1.393 . S
C1076 H1065 0.950 . S
C1076 C1074 1.391 . S
C1076 C1077 1.400 . S
C1077 C1071 1.491 . S
C1077 C1076 1.400 . S
C1077 C1078 1.398 . S
C1078 H1066 0.950 . S
C1078 C1077 1.398 . S
C1078 C1079 1.391 . S
C1079 H1067 0.950 . S
C1079 C1075 1.393 . S
C1079 C1078 1.391 . S
H1080 C1088 0.950 . S
H1081 C1093 0.950 . S
H1082 C1090 0.950 . S
H1083 C1092 0.950 . S
H1084 C1094 0.950 . S
H1085 C1096 0.934 1_455 S
H1086 C1098 0.950 . S
H1087 C1099 0.950 . S
C1088 H1080 0.950 . S
C1088 C1089 1.386 . S
C1088 C1090 1.391 . S
C1089 C1088 1.386 . S
C1089 C1093 1.393 . S
C1090 H1082 0.950 . S
C1090 C1088 1.391 . S
C1090 C1091 1.400 . S
C1091 C1090 1.400 . S
C1091 C1092 1.398 . S
C1091 C1097 1.491 . S
C1092 H1083 0.950 . S
C1092 C1091 1.398 . S
C1092 C1093 1.391 . S
C1093 H1081 0.950 . S
C1093 C1089 1.393 . S
C1093 C1092 1.391 . S
C1094 H1084 0.950 . S
C1094 C1095 1.386 . S
C1094 C1096 1.413 . S
C1095 C1094 1.386 . S
C1095 C1099 1.393 . S
C1096 H1085 0.934 1_655 S
C1096 C1094 1.413 . S
C1096 C1097 1.394 1_655 S
C1097 C1091 1.491 . S
C1097 C1096 1.394 1_455 S
C1097 C1098 1.398 1_455 S
C1098 H1086 0.950 . S
C1098 C1097 1.398 1_655 S
C1098 C1099 1.391 . S
C1099 H1087 0.950 . S
C1099 C1095 1.393 . S
C1099 C1098 1.391 . S
H1100 C1108 0.950 . S
H1101 C1113 0.950 . S
H1102 C1110 0.950 . S
H1103 C1112 0.950 . S
H1104 C1114 0.950 . S
H1105 C1116 0.950 . S
H1106 C1118 0.950 . S
H1107 C1119 0.950 . S
C1108 H1100 0.950 . S
C1108 C1109 1.386 . S
C1108 C1110 1.391 . S
C1109 C1108 1.386 . S
C1109 C1113 1.393 . S
C1110 H1102 0.950 . S
C1110 C1108 1.391 . S
C1110 C1111 1.400 . S
C1111 C1110 1.400 . S
C1111 C1112 1.398 . S
C1111 C1117 1.491 . S
C1112 H1103 0.950 . S
C1112 C1111 1.398 . S
C1112 C1113 1.391 . S
C1113 H1101 0.950 . S
C1113 C1109 1.393 . S
C1113 C1112 1.391 . S
C1114 H1104 0.950 . S
C1114 C1115 1.386 . S
C1114 C1116 1.391 . S
C1115 C1114 1.386 . S
C1115 C1119 1.393 . S
C1116 H1105 0.950 . S
C1116 C1114 1.391 . S
C1116 C1117 1.400 . S
C1117 C1111 1.491 . S
C1117 C1116 1.400 . S
C1117 C1118 1.398 . S
C1118 H1106 0.950 . S
C1118 C1117 1.398 . S
C1118 C1119 1.391 . S
C1119 H1107 0.950 . S
C1119 C1115 1.393 . S
C1119 C1118 1.391 . S
H1120 C1128 0.950 . S
H1121 C1133 0.950 . S
H1122 C1130 0.950 . S
H1123 C1132 0.950 . S
H1124 C1134 0.950 . S
H1125 C1136 0.950 . S
H1126 C1138 0.950 . S
H1127 C1139 0.950 . S
C1128 H1120 0.950 . S
C1128 C1129 1.386 . S
C1128 C1130 1.391 . S
C1129 C1128 1.386 . S
C1129 C1133 1.393 . S
C1130 H1122 0.950 . S
C1130 C1128 1.391 . S
C1130 C1131 1.400 . S
C1131 C1130 1.400 . S
C1131 C1132 1.398 . S
C1131 C1137 1.491 . S
C1132 H1123 0.950 . S
C1132 C1131 1.398 . S
C1132 C1133 1.391 . S
C1133 H1121 0.950 . S
C1133 C1129 1.393 . S
C1133 C1132 1.391 . S
C1134 H1124 0.950 . S
C1134 C1135 1.386 . S
C1134 C1136 1.391 . S
C1135 C1134 1.386 . S
C1135 C1139 1.393 . S
C1136 H1125 0.950 . S
C1136 C1134 1.391 . S
C1136 C1137 1.400 . S
C1137 C1131 1.491 . S
C1137 C1136 1.400 . S
C1137 C1138 1.398 . S
C1138 H1126 0.950 . S
C1138 C1137 1.398 . S
C1138 C1139 1.391 . S
C1139 H1127 0.950 . S
C1139 C1135 1.393 . S
C1139 C1138 1.391 . S
H1140 C1148 0.950 . S
H1141 C1153 0.950 . S
H1142 C1150 0.950 . S
H1143 C1152 0.950 . S
H1144 C1154 0.950 . S
H1145 C1156 0.950 . S
H1146 C1158 0.950 . S
H1147 C1159 0.950 . S
C1148 H1140 0.950 . S
C1148 C1149 1.386 . S
C1148 C1150 1.391 . S
C1149 C1148 1.386 . S
C1149 C1153 1.393 . S
C1150 H1142 0.950 . S
C1150 C1148 1.391 . S
C1150 C1151 1.400 . S
C1151 C1150 1.400 . S
C1151 C1152 1.398 . S
C1151 C1157 1.491 . S
C1152 H1143 0.950 . S
C1152 C1151 1.398 . S
C1152 C1153 1.391 . S
C1153 H1141 0.950 . S
C1153 C1149 1.393 . S
C1153 C1152 1.391 . S
C1154 H1144 0.950 . S
C1154 C1155 1.386 . S
C1154 C1156 1.391 . S
C1155 C1154 1.386 . S
C1155 C1159 1.393 . S
C1156 H1145 0.950 . S
C1156 C1154 1.391 . S
C1156 C1157 1.400 . S
C1157 C1151 1.491 . S
C1157 C1156 1.400 . S
C1157 C1158 1.398 . S
C1158 H1146 0.950 . S
C1158 C1157 1.398 . S
C1158 C1159 1.391 . S
C1159 H1147 0.950 . S
C1159 C1155 1.393 . S
C1159 C1158 1.391 . S
H1160 C1168 0.950 . S
H1161 C1173 0.965 . S
H1162 C1170 0.950 . S
H1163 C1172 0.950 . S
H1164 C1174 0.950 . S
H1165 C1176 0.950 . S
H1166 C1178 0.950 . S
H1167 C1179 0.950 . S
C1168 H1160 0.950 . S
C1168 C1169 1.386 . S
C1168 C1170 1.391 . S
C1169 C1168 1.386 . S
C1169 C1173 1.393 . S
C1170 H1162 0.950 . S
C1170 C1168 1.391 . S
C1170 C1171 1.400 . S
C1171 C1170 1.400 . S
C1171 C1172 1.398 . S
C1171 C1177 1.491 . S
C1172 H1163 0.950 . S
C1172 C1171 1.398 . S
C1172 C1173 1.391 . S
C1173 H1161 0.965 . S
C1173 C1169 1.393 . S
C1173 C1172 1.391 . S
C1174 H1164 0.950 . S
C1174 C1175 1.386 . S
C1174 C1176 1.391 . S
C1175 C1174 1.386 . S
C1175 C1179 1.393 . S
C1176 H1165 0.950 . S
C1176 C1174 1.391 . S
C1176 C1177 1.400 . S
C1177 C1171 1.491 . S
C1177 C1176 1.400 . S
C1177 C1178 1.398 . S
C1178 H1166 0.950 . S
C1178 C1177 1.398 . S
C1178 C1179 1.391 . S
C1179 H1167 0.950 . S
C1179 C1175 1.393 . S
C1179 C1178 1.391 . S
H1180 C1188 0.950 . S
H1181 C1193 0.950 . S
H1182 C1190 0.950 . S
H1183 C1192 0.950 . S
H1184 C1194 0.950 . S
H1185 C1196 0.950 . S
H1186 C1198 0.950 . S
H1187 C1199 0.950 . S
C1188 H1180 0.950 . S
C1188 C1189 1.386 . S
C1188 C1190 1.391 . S
C1189 C1188 1.386 . S
C1189 C1193 1.393 . S
C1190 H1182 0.950 . S
C1190 C1188 1.391 . S
C1190 C1191 1.400 . S
C1191 C1190 1.400 . S
C1191 C1192 1.398 . S
C1191 C1197 1.491 . S
C1192 H1183 0.950 . S
C1192 C1191 1.398 . S
C1192 C1193 1.391 . S
C1193 H1181 0.950 . S
C1193 C1189 1.393 . S
C1193 C1192 1.391 . S
C1194 H1184 0.950 . S
C1194 C1195 1.386 . S
C1194 C1196 1.391 . S
C1195 C1194 1.386 . S
C1195 C1199 1.393 . S
C1196 H1185 0.950 . S
C1196 C1194 1.391 . S
C1196 C1197 1.400 1_455 S
C1197 C1191 1.491 . S
C1197 C1196 1.400 1_655 S
C1197 C1198 1.398 . S
C1198 H1186 0.950 . S
C1198 C1197 1.398 . S
C1198 C1199 1.391 1_655 S
C1199 H1187 0.950 . S
C1199 C1195 1.393 . S
C1199 C1198 1.391 1_455 S
C489 C19 1.614 . S
C495 C458 1.683 . S
C509 C378 1.662 . S
C515 C58 1.672 . S
C529 C99 1.373 . S
C535 C339 1.396 . S
C549 C138 1.630 . S
C555 C418 1.637 . S
C569 C178 2.056 . S
C575 C419 1.958 . S
C589 C219 1.308 . S
C595 C459 1.334 . S
C609 C379 1.775 . S
C615 C258 1.852 . S
C629 C298 1.358 . S
C635 C338 1.356 . S
C649 C139 1.879 . S
C655 C179 1.876 . S
C669 C18 1.792 . S
C675 C218 1.798 . S
C689 C59 1.437 . S
C695 C259 1.463 . S
C709 C299 1.686 . S
C715 C98 1.762 . S
C729 C15 2.684 . S
C735 C330 2.793 . S
C749 C46 1.086 . S
C755 C409 1.053 . S
C769 C449 1.626 . S
C775 C95 1.691 . S
C789 C126 1.392 . S
C795 C369 1.304 . S
C809 C166 1.499 . S
C815 C370 1.490 . S
C829 C329 1.714 . S
C835 C215 1.780 . S
C849 C410 1.968 . S
C855 C246 1.982 . S
C869 C450 1.790 . S
C875 C286 1.813 . S
C889 C9 1.528 . S
C895 C135 1.587 . S
C909 C6 2.240 . S
C915 C50 2.211 . S
C929 C55 2.006 . S
C935 C89 1.939 . S
C949 C130 1.927 . S
C955 C86 1.942 . S
C969 C206 1.033 . S
C975 C170 1.009 . S
C989 C209 1.725 . S
C995 C255 1.789 . S
C1009 C250 1.336 . S
C1015 C295 1.313 . S
C1029 C175 1.722 . S
C1035 C290 1.797 . S
C1049 C326 1.216 . S
C1055 C129 1.162 . S
C1069 C210 1.663 . S
C1075 C366 1.679 . S
C1089 C335 1.982 . S
C1095 C249 1.919 . S
C1109 C406 1.609 . S
C1115 C289 1.510 . S
C1129 C169 0.697 . S
C1135 C446 0.707 . S
C1149 C455 1.539 . S
C1155 C49 1.488 . S
C1169 C90 1.363 . S
C1175 C375 1.327 . S
C1189 C415 1.842 . S
C1195 C10 1.899 . S
