# Generated by pormake.
# Topology wla, (5)-cn, num edge types: 1
# Building blocks:
#     Node 0, Type 0, BuildingBlock: BEQFEK_clean_sbu_0, # of connection points: 5
#     Node 1, Type 0, BuildingBlock: BEQFEK_clean_sbu_0, # of connection points: 5
#     Node 2, Type 0, BuildingBlock: BEQFEK_clean_sbu_0, # of connection points: 5
#     Node 3, Type 0, BuildingBlock: BEQFEK_clean_sbu_0, # of connection points: 5
#     Node 4, Type 0, BuildingBlock: BEQFEK_clean_sbu_0, # of connection points: 5
#     Node 5, Type 0, BuildingBlock: BEQFEK_clean_sbu_0, # of connection points: 5
#     Node 6, Type 0, BuildingBlock: BEQFEK_clean_sbu_0, # of connection points: 5
#     Node 7, Type 0, BuildingBlock: BEQFEK_clean_sbu_0, # of connection points: 5
#     Node 8, Type 0, BuildingBlock: BEQFEK_clean_sbu_0, # of connection points: 5
#     Node 9, Type 0, BuildingBlock: BEQFEK_clean_sbu_0, # of connection points: 5
#     Node 10, Type 0, BuildingBlock: BEQFEK_clean_sbu_0, # of connection points: 5
#     Node 11, Type 0, BuildingBlock: BEQFEK_clean_sbu_0, # of connection points: 5
#     Node 12, Type 0, BuildingBlock: BEQFEK_clean_sbu_0, # of connection points: 5
#     Node 13, Type 0, BuildingBlock: BEQFEK_clean_sbu_0, # of connection points: 5
#     Node 14, Type 0, BuildingBlock: BEQFEK_clean_sbu_0, # of connection points: 5
#     Node 15, Type 0, BuildingBlock: BEQFEK_clean_sbu_0, # of connection points: 5
#     Node 16, Type 0, BuildingBlock: BEQFEK_clean_sbu_0, # of connection points: 5
#     Node 17, Type 0, BuildingBlock: BEQFEK_clean_sbu_0, # of connection points: 5
#     Edge 18, Type (0, 0), BuildingBlock: UVAHIK_clean_linker_0, # of connection points: 2
#     Edge 19, Type (0, 0), BuildingBlock: UVAHIK_clean_linker_0, # of connection points: 2
#     Edge 20, Type (0, 0), BuildingBlock: UVAHIK_clean_linker_0, # of connection points: 2
#     Edge 21, Type (0, 0), BuildingBlock: UVAHIK_clean_linker_0, # of connection points: 2
#     Edge 22, Type (0, 0), BuildingBlock: UVAHIK_clean_linker_0, # of connection points: 2
#     Edge 23, Type (0, 0), BuildingBlock: UVAHIK_clean_linker_0, # of connection points: 2
#     Edge 24, Type (0, 0), BuildingBlock: UVAHIK_clean_linker_0, # of connection points: 2
#     Edge 25, Type (0, 0), BuildingBlock: UVAHIK_clean_linker_0, # of connection points: 2
#     Edge 26, Type (0, 0), BuildingBlock: UVAHIK_clean_linker_0, # of connection points: 2
#     Edge 27, Type (0, 0), BuildingBlock: UVAHIK_clean_linker_0, # of connection points: 2
#     Edge 28, Type (0, 0), BuildingBlock: UVAHIK_clean_linker_0, # of connection points: 2
#     Edge 29, Type (0, 0), BuildingBlock: UVAHIK_clean_linker_0, # of connection points: 2
#     Edge 30, Type (0, 0), BuildingBlock: UVAHIK_clean_linker_0, # of connection points: 2
#     Edge 31, Type (0, 0), BuildingBlock: UVAHIK_clean_linker_0, # of connection points: 2
#     Edge 32, Type (0, 0), BuildingBlock: UVAHIK_clean_linker_0, # of connection points: 2
#     Edge 33, Type (0, 0), BuildingBlock: UVAHIK_clean_linker_0, # of connection points: 2
#     Edge 34, Type (0, 0), BuildingBlock: UVAHIK_clean_linker_0, # of connection points: 2
#     Edge 35, Type (0, 0), BuildingBlock: UVAHIK_clean_linker_0, # of connection points: 2
#     Edge 36, Type (0, 0), BuildingBlock: UVAHIK_clean_linker_0, # of connection points: 2
#     Edge 37, Type (0, 0), BuildingBlock: UVAHIK_clean_linker_0, # of connection points: 2
#     Edge 38, Type (0, 0), BuildingBlock: UVAHIK_clean_linker_0, # of connection points: 2
#     Edge 39, Type (0, 0), BuildingBlock: UVAHIK_clean_linker_0, # of connection points: 2
#     Edge 40, Type (0, 0), BuildingBlock: UVAHIK_clean_linker_0, # of connection points: 2
#     Edge 41, Type (0, 0), BuildingBlock: UVAHIK_clean_linker_0, # of connection points: 2
#     Edge 42, Type (0, 0), BuildingBlock: UVAHIK_clean_linker_0, # of connection points: 2
#     Edge 43, Type (0, 0), BuildingBlock: UVAHIK_clean_linker_0, # of connection points: 2
#     Edge 44, Type (0, 0), BuildingBlock: UVAHIK_clean_linker_0, # of connection points: 2
#     Edge 45, Type (0, 0), BuildingBlock: UVAHIK_clean_linker_0, # of connection points: 2
#     Edge 46, Type (0, 0), BuildingBlock: UVAHIK_clean_linker_0, # of connection points: 2
#     Edge 47, Type (0, 0), BuildingBlock: UVAHIK_clean_linker_0, # of connection points: 2
#     Edge 48, Type (0, 0), BuildingBlock: UVAHIK_clean_linker_0, # of connection points: 2
#     Edge 49, Type (0, 0), BuildingBlock: UVAHIK_clean_linker_0, # of connection points: 2
#     Edge 50, Type (0, 0), BuildingBlock: UVAHIK_clean_linker_0, # of connection points: 2
#     Edge 51, Type (0, 0), BuildingBlock: UVAHIK_clean_linker_0, # of connection points: 2
#     Edge 52, Type (0, 0), BuildingBlock: UVAHIK_clean_linker_0, # of connection points: 2
#     Edge 53, Type (0, 0), BuildingBlock: UVAHIK_clean_linker_0, # of connection points: 2
#     Edge 54, Type (0, 0), BuildingBlock: UVAHIK_clean_linker_0, # of connection points: 2
#     Edge 55, Type (0, 0), BuildingBlock: UVAHIK_clean_linker_0, # of connection points: 2
#     Edge 56, Type (0, 0), BuildingBlock: UVAHIK_clean_linker_0, # of connection points: 2
#     Edge 57, Type (0, 0), BuildingBlock: UVAHIK_clean_linker_0, # of connection points: 2
#     Edge 58, Type (0, 0), BuildingBlock: UVAHIK_clean_linker_0, # of connection points: 2
#     Edge 59, Type (0, 0), BuildingBlock: UVAHIK_clean_linker_0, # of connection points: 2
#     Edge 60, Type (0, 0), BuildingBlock: UVAHIK_clean_linker_0, # of connection points: 2
#     Edge 61, Type (0, 0), BuildingBlock: UVAHIK_clean_linker_0, # of connection points: 2
#     Edge 62, Type (0, 0), BuildingBlock: UVAHIK_clean_linker_0, # of connection points: 2
# Relax obj value: 0.271
# Max RMSD: 0.180
# Mean RMSD: 0.180
data_MOF--net-wla--node1-BEQFEK_clean_sbu_0--edge1-UVAHIK_clean_linker_0
_symmetry_space_group_name_H-M    P1
_symmetry_Int_Tables_number       1
_symmetry_cell_setting            triclinic
loop_
_symmetry_equiv_pos_as_xyz
'x, y, z'
_cell_length_a     77.820676
_cell_length_b     77.893749
_cell_length_c     38.529677
_cell_angle_alpha  90.041845
_cell_angle_beta   90.032817
_cell_angle_gamma 119.98162
loop_
_atom_site_label
_atom_site_type_symbol
_atom_site_fract_x
_atom_site_fract_y
_atom_site_fract_z
_atom_type_partial_charge
Co0 Co 0.14989 0.0163 0.26775 0.0
Co1 Co 0.19085 0.05343 0.28406 0.0
C2 C 0.17447 0.01635 0.32688 0.0
O3 O 0.15886 0.00753 0.30844 0.0
O4 O 0.18783 0.03408 0.3203 0.0
C5 C 0.12003 0.97554 0.25427 0.0
O6 O 0.13264 0.97096 0.26817 0.0
C7 C 0.23389 0.07443 0.28621 0.0
C8 C 0.24132 0.10572 0.28373 0.0
C9 C 0.24968 0.09363 0.28323 0.0
N10 N 0.21704 0.07515 0.28729 0.0
N11 N 0.22156 0.0939 0.28669 0.0
C12 C 0.23458 0.05556 0.28783 0.0
H13 H 0.22851 0.04703 0.26348 0.0
H14 H 0.24992 0.05847 0.29203 0.0
H15 H 0.22508 0.04625 0.30939 0.0
C16 C 0.16772 0.02157 0.19842 0.0
N17 N 0.16914 0.02616 0.23235 0.0
N18 N 0.1862 0.04234 0.23838 0.0
C19 C 0.19609 0.0488 0.20806 0.0
C20 C 0.18477 0.03574 0.18184 0.0
C21 C 0.1492 0.0056 0.18175 0.0
H22 H 0.13657 0.00781 0.18842 0.0
H23 H 0.14593 0.99101 0.19222 0.0
H24 H 0.15047 0.00548 0.15311 0.0
O25 O 0.14344 0.0371 0.28058 0.0
O26 O 0.17248 0.06355 0.29314 0.0
H27 H 0.21454 0.07999 0.217 0.0
H28 H 0.21936 0.07161 0.17625 0.0
C29 C 0.21536 0.06776 0.20387 0.0
H30 H 0.22735 0.06618 0.21609 0.0
H31 H 0.21112 0.09858 0.28655 0.0
O32 O 0.12485 0.99364 0.2512 0.0
C33 C 0.15372 0.05515 0.29003 0.0
Co34 Co 0.00079 0.147 0.29069 0.0
Co35 Co 0.96038 0.14577 0.28093 0.0
C36 C 0.99069 0.17203 0.33424 0.0
O37 O 0.00316 0.16674 0.32556 0.0
O38 O 0.97393 0.16487 0.31917 0.0
C39 C 0.03894 0.15145 0.31078 0.0
O40 O 0.03764 0.16028 0.33891 0.0
C41 C 0.93663 0.16265 0.25637 0.0
C42 C 0.90655 0.13635 0.25465 0.0
C43 C 0.91721 0.15635 0.2467 0.0
N44 N 0.93746 0.14697 0.26868 0.0
N45 N 0.9194 0.13135 0.26811 0.0
C46 C 0.95408 0.18325 0.25501 0.0
H47 H 0.9645 0.18557 0.27651 0.0
H48 H 0.9622 0.18548 0.23031 0.0
H49 H 0.94919 0.19439 0.25667 0.0
C50 C 0.0034 0.15506 0.21535 0.0
N51 N 0.99438 0.15251 0.24627 0.0
N52 N 0.97697 0.15111 0.24155 0.0
C53 C 0.97415 0.15221 0.20724 0.0
C54 C 0.99092 0.15506 0.18967 0.0
C55 C 0.02317 0.15655 0.21052 0.0
H56 H 0.02157 0.1417 0.21443 0.0
H57 H 0.03375 0.16674 0.23024 0.0
H58 H 0.02918 0.16196 0.18417 0.0
O59 O 0.98022 0.11992 0.30515 0.0
O60 O 0.95143 0.11874 0.29723 0.0
H61 H 0.94222 0.13635 0.20692 0.0
H62 H 0.95338 0.14098 0.1645 0.0
C63 C 0.95473 0.14726 0.19089 0.0
H64 H 0.95374 0.1609 0.18833 0.0
H65 H 0.91597 0.11716 0.27585 0.0
O66 O 0.02546 0.14571 0.28779 0.0
C67 C 0.96133 0.11052 0.30617 0.0
Co68 Co 0.87793 0.86852 0.2695 0.0
Co69 Co 0.87097 0.82738 0.2461 0.0
C70 C 0.85694 0.83259 0.31484 0.0
O71 O 0.86313 0.85081 0.3086 0.0
O72 O 0.85932 0.82162 0.29318 0.0
C73 C 0.86985 0.90043 0.28873 0.0
O74 O 0.85081 0.8874 0.29003 0.0
C75 C 0.85013 0.78529 0.22878 0.0
C76 C 0.87 0.78401 0.1891 0.0
C77 C 0.85228 0.77257 0.20645 0.0
N78 N 0.86587 0.80348 0.2247 0.0
N79 N 0.8778 0.80261 0.20125 0.0
C80 C 0.8327 0.7808 0.25123 0.0
H81 H 0.83076 0.79396 0.25294 0.0
H82 H 0.81893 0.76798 0.24094 0.0
H83 H 0.83544 0.77718 0.27777 0.0
C84 C 0.85994 0.8666 0.2006 0.0
N85 N 0.8646 0.85835 0.22705 0.0
N86 N 0.86088 0.84053 0.21789 0.0
C87 C 0.85318 0.83667 0.18562 0.0
C88 C 0.85258 0.85312 0.17335 0.0
C89 C 0.86525 0.88791 0.19972 0.0
H90 H 0.88 0.89726 0.21185 0.0
H91 H 0.85415 0.88968 0.21497 0.0
H92 H 0.86548 0.8931 0.17284 0.0
O93 O 0.90498 0.87259 0.26585 0.0
O94 O 0.90016 0.84331 0.24912 0.0
H95 H 0.86103 0.81784 0.15774 0.0
H96 H 0.83851 0.81669 0.14265 0.0
C97 C 0.84745 0.81798 0.16598 0.0
H98 H 0.83859 0.80501 0.18289 0.0
H99 H 0.89105 0.81482 0.19303 0.0
O100 O 0.88216 0.89504 0.27995 0.0
C101 C 0.91172 0.86133 0.25718 0.0
Co102 Co 0.00891 0.15215 0.71574 0.0
Co103 Co 0.04811 0.19152 0.73122 0.0
C104 C 0.01981 0.18908 0.67613 0.0
O105 O 0.00737 0.17107 0.68335 0.0
O106 O 0.03632 0.19863 0.69205 0.0
C107 C 0.96791 0.11963 0.70037 0.0
O108 O 0.9637 0.1321 0.68489 0.0
C109 C 0.075 0.23291 0.75062 0.0
C110 C 0.09892 0.23038 0.77696 0.0
C111 C 0.09259 0.24363 0.76878 0.0
N112 N 0.07103 0.21409 0.74837 0.0
N113 N 0.08553 0.21274 0.76361 0.0
C114 C 0.06103 0.23976 0.7392 0.0
H115 H 0.04553 0.22721 0.73945 0.0
H116 H 0.06229 0.25185 0.75618 0.0
H117 H 0.06479 0.24547 0.71227 0.0
C118 C 0.00406 0.15388 0.79161 0.0
N119 N 0.01365 0.16183 0.76164 0.0
N120 N 0.0297 0.17889 0.76806 0.0
C121 C 0.03057 0.18264 0.80237 0.0
C122 C 0.01449 0.16682 0.81855 0.0
C123 C 0.98659 0.13336 0.7944 0.0
H124 H 0.98968 0.1229 0.77991 0.0
H125 H 0.97349 0.13302 0.78228 0.0
H126 H 0.98313 0.12832 0.8217 0.0
O127 O 0.02999 0.14675 0.70095 0.0
O128 O 0.05789 0.17417 0.71392 0.0
H129 H 0.0603 0.20067 0.82067 0.0
H130 H 0.04198 0.20297 0.84589 0.0
C131 C 0.04632 0.20116 0.81931 0.0
H132 H 0.04896 0.21419 0.80376 0.0
H133 H 0.08586 0.19957 0.76608 0.0
O134 O 0.98489 0.12587 0.71392 0.0
C135 C 0.04882 0.1566 0.70213 0.0
Co136 Co 0.86216 0.87297 0.71418 0.0
Co137 Co 0.82085 0.86999 0.70753 0.0
C138 C 0.8338 0.84754 0.66039 0.0
O139 O 0.85037 0.85387 0.67568 0.0
O140 O 0.82156 0.85294 0.66999 0.0
C141 C 0.89379 0.86348 0.72137 0.0
O142 O 0.88167 0.84645 0.7065 0.0
C143 C 0.77842 0.84797 0.71842 0.0
C144 C 0.76986 0.87095 0.71288 0.0
C145 C 0.76247 0.85115 0.721 0.0
N146 N 0.79455 0.86518 0.70994 0.0
N147 N 0.78934 0.87882 0.70614 0.0
C148 C 0.77845 0.8289 0.72308 0.0
H149 H 0.78235 0.82765 0.75027 0.0
H150 H 0.76362 0.81602 0.71717 0.0
H151 H 0.78978 0.82858 0.70608 0.0
C152 C 0.84952 0.86359 0.78694 0.0
N153 N 0.8455 0.86508 0.75349 0.0
N154 N 0.8285 0.86484 0.75149 0.0
C155 C 0.82141 0.8637 0.78392 0.0
C156 C 0.83441 0.86267 0.80731 0.0
C157 C 0.86836 0.86486 0.79932 0.0
H158 H 0.88089 0.8801 0.79493 0.0
H159 H 0.87121 0.85443 0.78419 0.0
H160 H 0.86761 0.8612 0.8273 0.0
O161 O 0.86777 0.89987 0.70001 0.0
O162 O 0.83844 0.89804 0.69582 0.0
H163 H 0.80428 0.87796 0.77436 0.0
H164 H 0.8065 0.8734 0.81962 0.0
C165 C 0.80479 0.86737 0.79293 0.0
H166 H 0.79051 0.85323 0.79174 0.0
H167 H 0.79918 0.89361 0.69998 0.0
O168 O 0.88814 0.876 0.72658 0.0
C169 C 0.85727 0.90793 0.69403 0.0
Co170 Co 0.13288 -0.00055 0.7295 0.0
Co171 Co 0.14294 0.96688 0.74954 0.0
C172 C 0.15013 0.98311 0.67816 0.0
O173 O 0.14333 0.99435 0.68667 0.0
O174 O 0.1513 0.97154 0.70012 0.0
C175 C 0.14006 0.03802 0.70619 0.0
O176 O 0.15836 0.04253 0.6992 0.0
C177 C 0.16727 0.94896 0.76411 0.0
C178 C 0.14943 0.92695 0.80432 0.0
C179 C 0.16718 0.93499 0.78636 0.0
N180 N 0.15038 0.94931 0.76896 0.0
N181 N 0.13963 0.93593 0.7926 0.0
C182 C 0.18383 0.96314 0.74124 0.0
H183 H 0.18334 0.97705 0.73817 0.0
H184 H 0.19842 0.9665 0.75204 0.0
H185 H 0.18208 0.95632 0.71524 0.0
C186 C 0.1571 0.01891 0.79181 0.0
N187 N 0.15004 0.00461 0.76741 0.0
N188 N 0.15453 0.99096 0.7759 0.0
C189 C 0.1649 0.99635 0.80588 0.0
C190 C 0.16689 0.01424 0.81691 0.0
C191 C 0.15312 0.03582 0.79238 0.0
H192 H 0.13701 0.03014 0.78872 0.0
H193 H 0.1611 0.04593 0.77053 0.0
H194 H 0.15819 0.0444 0.81691 0.0
O195 O 0.1067 0.97668 0.7402 0.0
O196 O 0.11349 0.95288 0.75236 0.0
H197 H 0.15664 0.969 0.8316 0.0
H198 H 0.17751 0.99007 0.85119 0.0
C199 C 0.17024 0.98329 0.82617 0.0
H200 H 0.18047 0.98034 0.81065 0.0
H201 H 0.12592 0.93341 0.80158 0.0
O202 O 0.12811 0.02142 0.71982 0.0
C203 C 0.10109 0.95886 0.74855 0.0
Co204 Co 0.80968 0.34074 0.60327 0.0
Co205 Co 0.84842 0.38068 0.58696 0.0
C206 C 0.8455 0.35633 0.64894 0.0
O207 O 0.82793 0.34303 0.64094 0.0
O208 O 0.8551 0.37189 0.63064 0.0
C209 C 0.77965 0.30385 0.63282 0.0
O210 O 0.79069 0.30987 0.66093 0.0
C211 C 0.88995 0.40764 0.56711 0.0
C212 C 0.88738 0.43173 0.54182 0.0
C213 C 0.90071 0.42534 0.54906 0.0
N214 N 0.87106 0.4036 0.56949 0.0
N215 N 0.8697 0.41819 0.55477 0.0
C216 C 0.89742 0.39499 0.58274 0.0
H217 H 0.88893 0.38751 0.60636 0.0
H218 H 0.89545 0.38337 0.56388 0.0
H219 H 0.91336 0.40401 0.58963 0.0
C220 C 0.81627 0.33177 0.53178 0.0
N221 N 0.82186 0.34369 0.55979 0.0
N222 N 0.83826 0.36032 0.55267 0.0
C223 C 0.84363 0.35947 0.51969 0.0
C224 C 0.8299 0.34133 0.50552 0.0
C225 C 0.79796 0.31179 0.53018 0.0
H226 H 0.78471 0.31353 0.53289 0.0
H227 H 0.79797 0.30263 0.55221 0.0
H228 H 0.79699 0.30404 0.50546 0.0
O229 O 0.80127 0.36081 0.60912 0.0
O230 O 0.82883 0.38895 0.59738 0.0
H231 H 0.85906 0.38987 0.50391 0.0
H232 H 0.86036 0.37324 0.47286 0.0
C233 C 0.86033 0.3764 0.50092 0.0
H234 H 0.87462 0.37938 0.51239 0.0
H235 H 0.85655 0.41863 0.55275 0.0
O236 O 0.78531 0.31461 0.60579 0.0
C237 C 0.81062 0.37959 0.60587 0.0
Co238 Co 0.66692 0.48363 0.63002 0.0
Co239 Co 0.62682 0.4833 0.62517 0.0
C240 C 0.65848 0.50826 0.67761 0.0
O241 O 0.67045 0.50287 0.66651 0.0
O242 O 0.6414 0.50164 0.664 0.0
C243 C 0.69867 0.4784 0.65136 0.0
O244 O 0.69071 0.47719 0.68198 0.0
C245 C 0.60372 0.5015 0.60436 0.0
C246 C 0.57304 0.4762 0.60587 0.0
C247 C 0.58419 0.49609 0.5973 0.0
N248 N 0.60411 0.48544 0.61583 0.0
N249 N 0.58573 0.47042 0.61717 0.0
C250 C 0.62176 0.52164 0.60137 0.0
H251 H 0.633 0.52341 0.62091 0.0
H252 H 0.62851 0.52339 0.57536 0.0
H253 H 0.61782 0.53339 0.60492 0.0
C254 C 0.66742 0.49129 0.55518 0.0
N255 N 0.65973 0.4898 0.58703 0.0
N256 N 0.64237 0.48876 0.58425 0.0
C257 C 0.63826 0.48906 0.55027 0.0
C258 C 0.65411 0.4909 0.53085 0.0
C259 C 0.68631 0.49125 0.54819 0.0
H260 H 0.69801 0.50156 0.56634 0.0
H261 H 0.69137 0.49571 0.52107 0.0
H262 H 0.6839 0.47613 0.55275 0.0
O263 O 0.64634 0.45648 0.64391 0.0
O264 O 0.61761 0.45584 0.63959 0.0
H265 H 0.6064 0.473 0.55365 0.0
H266 H 0.6159 0.47728 0.50992 0.0
C267 C 0.61823 0.48378 0.53632 0.0
H268 H 0.617 0.49733 0.53457 0.0
H269 H 0.5819 0.4561 0.62483 0.0
O270 O 0.69136 0.48219 0.62499 0.0
C271 C 0.6275 0.44727 0.64626 0.0
Co272 Co 0.54034 0.20279 0.61611 0.0
Co273 Co 0.53322 0.16154 0.59259 0.0
C274 C 0.51331 0.1662 0.65555 0.0
O275 O 0.52085 0.18477 0.65068 0.0
O276 O 0.51721 0.15562 0.63545 0.0
C277 C 0.53434 0.23609 0.63375 0.0
O278 O 0.51537 0.22335 0.63783 0.0
C279 C 0.51062 0.12018 0.57145 0.0
C280 C 0.5325 0.11692 0.53973 0.0
C281 C 0.51307 0.10687 0.5513 0.0
N282 N 0.52782 0.13741 0.57169 0.0
N283 N 0.54093 0.13534 0.55304 0.0
C284 C 0.4919 0.11725 0.58779 0.0
H285 H 0.49154 0.13131 0.58718 0.0
H286 H 0.47864 0.10542 0.5743 0.0
H287 H 0.49152 0.1129 0.61532 0.0
C288 C 0.52832 0.20354 0.54305 0.0
N289 N 0.53126 0.19448 0.57031 0.0
N290 N 0.52764 0.17676 0.56074 0.0
C291 C 0.52191 0.17384 0.52722 0.0
C292 C 0.52212 0.19067 0.51497 0.0
C293 C 0.53193 0.22428 0.54373 0.0
H294 H 0.54712 0.23444 0.55355 0.0
H295 H 0.52128 0.22505 0.5619 0.0
H296 H 0.53009 0.22918 0.51764 0.0
O297 O 0.56617 0.20421 0.6234 0.0
O298 O 0.56162 0.17533 0.60484 0.0
H299 H 0.53164 0.15479 0.50603 0.0
H300 H 0.51384 0.15689 0.47923 0.0
C301 C 0.51806 0.15603 0.50639 0.0
H302 H 0.50597 0.14252 0.51865 0.0
H303 H 0.55548 0.14665 0.54876 0.0
O304 O 0.54604 0.23005 0.62431 0.0
C305 C 0.57275 0.19247 0.61752 0.0
Co306 Co 0.68134 0.47424 0.06186 0.0
Co307 Co 0.71826 0.51453 0.0812 0.0
C308 C 0.69301 0.51095 0.0205 0.0
O309 O 0.68107 0.49275 0.02707 0.0
O310 O 0.70852 0.52122 0.03866 0.0
C311 C 0.63992 0.44311 0.04924 0.0
O312 O 0.63448 0.45658 0.05032 0.0
C313 C 0.74131 0.55609 0.10133 0.0
C314 C 0.76526 0.5563 0.13263 0.0
C315 C 0.75769 0.56811 0.12158 0.0
N316 N 0.7392 0.53792 0.10064 0.0
N317 N 0.75372 0.53819 0.1189 0.0
C318 C 0.72649 0.56096 0.08642 0.0
H319 H 0.71157 0.54751 0.08556 0.0
H320 H 0.72582 0.57263 0.10192 0.0
H321 H 0.73093 0.56646 0.05952 0.0
C322 C 0.67141 0.4758 0.1358 0.0
N323 N 0.68252 0.48385 0.10718 0.0
N324 N 0.69775 0.5013 0.11498 0.0
C325 C 0.69655 0.50512 0.14873 0.0
C326 C 0.67999 0.48901 0.16318 0.0
C327 C 0.65432 0.45503 0.13753 0.0
H328 H 0.6577 0.44504 0.12216 0.0
H329 H 0.64104 0.45461 0.12607 0.0
H330 H 0.65094 0.44958 0.16465 0.0
O331 O 0.70384 0.46962 0.05489 0.0
O332 O 0.73022 0.49817 0.0692 0.0
H333 H 0.72524 0.52421 0.17044 0.0
H334 H 0.70532 0.52523 0.19262 0.0
C335 C 0.71094 0.52387 0.16692 0.0
H336 H 0.7135 0.53675 0.15102 0.0
H337 H 0.7553 0.52581 0.12302 0.0
O338 O 0.65792 0.44804 0.05442 0.0
C339 C 0.72248 0.48029 0.05913 0.0
Co340 Co 0.52196 0.19794 0.04495 0.0
Co341 Co 0.48171 0.19731 0.05174 0.0
C342 C 0.48828 0.17235 -0.00081 0.0
O343 O 0.50576 0.1779 0.00987 0.0
O344 O 0.47786 0.17903 0.01269 0.0
C345 C 0.55426 0.18951 0.03431 0.0
O346 O 0.54174 0.17403 0.01597 0.0
C347 C 0.44039 0.17804 0.07279 0.0
C348 C 0.43552 0.20349 0.07924 0.0
C349 C 0.42666 0.1832 0.08415 0.0
N350 N 0.45679 0.19461 0.06273 0.0
N351 N 0.45366 0.20972 0.06588 0.0
C352 C 0.43818 0.15781 0.07146 0.0
H353 H 0.4451 0.15621 0.04745 0.0
H354 H 0.44603 0.15583 0.09376 0.0
H355 H 0.42232 0.14608 0.07219 0.0
C356 C 0.51624 0.19086 0.1203 0.0
N357 N 0.50949 0.19209 0.08874 0.0
N358 N 0.49295 0.19262 0.09219 0.0
C359 C 0.48891 0.19228 0.12634 0.0
C360 C 0.50346 0.19101 0.14522 0.0
C361 C 0.53596 0.19238 0.12634 0.0
H362 H 0.54787 0.20711 0.11745 0.0
H363 H 0.53694 0.18094 0.1107 0.0
H364 H 0.53841 0.19054 0.15411 0.0
O365 O 0.52737 0.22461 0.03015 0.0
O366 O 0.49911 0.22475 0.03661 0.0
H367 H 0.47202 0.20719 0.12749 0.0
H368 H 0.47367 0.19737 0.16906 0.0
C369 C 0.47235 0.19472 0.1407 0.0
H370 H 0.45807 0.18102 0.136 0.0
H371 H 0.46424 0.2244 0.06046 0.0
O372 O 0.54841 0.20042 0.04846 0.0
C373 C 0.51739 0.2335 0.02854 0.0
Co374 Co 0.80188 0.31989 0.0461 0.0
Co375 Co 0.80341 0.28074 0.04212 0.0
C376 C 0.82539 0.31401 0.9916 0.0
O377 O 0.81976 0.32496 0.00639 0.0
O378 O 0.81979 0.29656 0.00236 0.0
C379 C 0.81315 0.36165 0.04719 0.0
O380 O 0.82951 0.3652 0.03121 0.0
C381 C 0.82333 0.25767 0.0466 0.0
C382 C 0.79854 0.2277 0.05852 0.0
C383 C 0.81898 0.2386 0.05493 0.0
N384 N 0.80632 0.2581 0.0462 0.0
N385 N 0.79149 0.24007 0.05259 0.0
C386 C 0.84321 0.2753 0.03891 0.0
H387 H 0.84662 0.28719 0.05814 0.0
H388 H 0.85516 0.27147 0.03885 0.0
H389 H 0.84274 0.28126 0.01302 0.0
C390 C 0.81454 0.31952 0.118 0.0
N391 N 0.81059 0.31216 0.08556 0.0
N392 N 0.81113 0.29555 0.08449 0.0
C393 C 0.81544 0.29177 0.11656 0.0
C394 C 0.81781 0.30689 0.13881 0.0
C395 C 0.8126 0.33686 0.12938 0.0
H396 H 0.79803 0.33469 0.12082 0.0
H397 H 0.82434 0.35049 0.11674 0.0
H398 H 0.81373 0.33888 0.15792 0.0
O399 O 0.77428 0.29919 0.0354 0.0
O400 O 0.77504 0.27113 0.03299 0.0
H401 H 0.80275 0.26023 0.11826 0.0
H402 H 0.81949 0.27314 0.15391 0.0
C403 C 0.81669 0.27376 0.12588 0.0
H404 H 0.82908 0.27398 0.11149 0.0
H405 H 0.77666 0.2364 0.05432 0.0
O406 O 0.80049 0.344 0.05566 0.0
C407 C 0.76554 0.28048 0.03131 0.0
Co408 Co 0.48297 0.67165 0.94329 0.0
Co409 Co 0.52072 0.71193 0.9262 0.0
C410 C 0.51915 0.68679 0.98675 0.0
O411 O 0.50163 0.67316 0.97941 0.0
O412 O 0.52796 0.70251 0.96864 0.0
C413 C 0.45019 0.63997 0.97627 0.0
O414 O 0.45947 0.65027 0.00401 0.0
C415 C 0.56099 0.73554 0.90009 0.0
C416 C 0.56334 0.7647 0.89146 0.0
C417 C 0.57359 0.75451 0.88791 0.0
N418 N 0.54393 0.73447 0.90981 0.0
N419 N 0.54545 0.75197 0.90487 0.0
C420 C 0.5653 0.71893 0.90405 0.0
H421 H 0.56236 0.71074 0.87922 0.0
H422 H 0.58112 0.72481 0.91098 0.0
H423 H 0.5556 0.70833 0.92413 0.0
C424 C 0.48723 0.66392 0.86973 0.0
N425 N 0.49403 0.67509 0.89859 0.0
N426 N 0.50962 0.69227 0.89075 0.0
C427 C 0.513 0.69269 0.85632 0.0
C428 C 0.49909 0.67466 0.84205 0.0
C429 C 0.469 0.64388 0.86853 0.0
H430 H 0.45574 0.64553 0.87199 0.0
H431 H 0.46934 0.63469 0.89019 0.0
H432 H 0.46778 0.63629 0.8435 0.0
O433 O 0.47506 0.69192 0.9516 0.0
O434 O 0.50171 0.72059 0.9385 0.0
H435 H 0.5276 0.72422 0.84849 0.0
H436 H 0.52202 0.70998 0.80902 0.0
C437 C 0.52686 0.71096 0.83641 0.0
H438 H 0.54189 0.71273 0.83637 0.0
H439 H 0.53418 0.75513 0.91019 0.0
O440 O 0.45817 0.646 0.94671 0.0
C441 C 0.48376 0.71069 0.94843 0.0
Co442 Co 0.32374 0.79756 0.95104 0.0
Co443 Co 0.28982 0.80683 0.93716 0.0
C444 C 0.32078 0.82864 0.99147 0.0
O445 O 0.33003 0.81955 0.9836 0.0
O446 O 0.30474 0.82487 0.97623 0.0
C447 C 0.36333 0.80243 0.9563 0.0
O448 O 0.37024 0.82165 0.95697 0.0
C449 C 0.27193 0.83039 0.91632 0.0
C450 C 0.24374 0.80743 0.89297 0.0
C451 C 0.25538 0.82764 0.89827 0.0
N452 N 0.27029 0.81257 0.92107 0.0
N453 N 0.25322 0.79886 0.90783 0.0
C454 C 0.29019 0.84964 0.92464 0.0
H455 H 0.30339 0.84772 0.92528 0.0
H456 H 0.29249 0.86118 0.90536 0.0
H457 H 0.28841 0.85471 0.95062 0.0
C458 C 0.3292 0.80417 0.87495 0.0
N459 N 0.32061 0.80425 0.90528 0.0
N460 N 0.30659 0.80866 0.89945 0.0
C461 C 0.30596 0.81171 0.86512 0.0
C462 C 0.32013 0.80882 0.84847 0.0
C463 C 0.34442 0.79792 0.87122 0.0
H464 H 0.33983 0.78419 0.88636 0.0
H465 H 0.35874 0.8097 0.88191 0.0
H466 H 0.34656 0.79524 0.8437 0.0
O467 O 0.2994 0.77326 0.96588 0.0
O468 O 0.27507 0.77931 0.9541 0.0
H469 H 0.27665 0.805 0.85106 0.0
H470 H 0.2955 0.82098 0.82056 0.0
C471 C 0.29212 0.81736 0.84843 0.0
H472 H 0.29347 0.8306 0.86156 0.0
H473 H 0.24856 0.78376 0.90723 0.0
O474 O 0.3448 0.79064 0.95345 0.0
C475 C 0.28103 0.76782 0.96518 0.0
Co476 Co 0.20575 0.53645 0.94674 0.0
Co477 Co 0.20363 0.49672 0.92691 0.0
C478 C 0.17968 0.49841 0.98519 0.0
O479 O 0.18632 0.5168 0.97977 0.0
O480 O 0.18521 0.4885 0.9667 0.0
C481 C 0.19142 0.56428 0.95584 0.0
O482 O 0.17354 0.54941 0.9495 0.0
C483 C 0.18847 0.45555 0.9059 0.0
C484 C 0.21378 0.458 0.87572 0.0
C485 C 0.1946 0.44477 0.88612 0.0
N486 N 0.20336 0.47439 0.90704 0.0
N487 N 0.21855 0.47573 0.88942 0.0
C488 C 0.16822 0.4487 0.92037 0.0
H489 H 0.16476 0.46089 0.91938 0.0
H490 H 0.15674 0.43569 0.90585 0.0
H491 H 0.16792 0.44442 0.94793 0.0
C492 C 0.19752 0.53615 0.87102 0.0
N493 N 0.19938 0.52766 0.90022 0.0
N494 N 0.19751 0.51036 0.89241 0.0
C495 C 0.19386 0.50705 0.85816 0.0
C496 C 0.19404 0.52337 0.84333 0.0
C497 C 0.20115 0.5569 0.86926 0.0
H498 H 0.21312 0.56653 0.88759 0.0
H499 H 0.18741 0.55689 0.87694 0.0
H500 H 0.2053 0.56303 0.84264 0.0
O501 O 0.23284 0.54187 0.95786 0.0
O502 O 0.23103 0.51345 0.94377 0.0
H503 H 0.20436 0.48875 0.8363 0.0
H504 H 0.18314 0.48709 0.81413 0.0
C505 C 0.19011 0.48852 0.8399 0.0
H506 H 0.18008 0.47543 0.85569 0.0
H507 H 0.23195 0.48888 0.88584 0.0
O508 O 0.20624 0.56163 0.95466 0.0
C509 C 0.24078 0.53108 0.95526 0.0
Co510 Co 0.34609 0.81477 0.3779 0.0
Co511 Co 0.38337 0.85464 0.39782 0.0
C512 C 0.35894 0.85066 0.33461 0.0
O513 O 0.34647 0.83263 0.34135 0.0
O514 O 0.37404 0.86074 0.35386 0.0
C515 C 0.30536 0.78261 0.36182 0.0
O516 O 0.29977 0.79571 0.35603 0.0
C517 C 0.40353 0.89554 0.42107 0.0
C518 C 0.43032 0.89835 0.44644 0.0
C519 C 0.42011 0.90834 0.44008 0.0
N520 N 0.40379 0.8786 0.41657 0.0
N521 N 0.42001 0.88046 0.43119 0.0
C522 C 0.38657 0.89838 0.4108 0.0
H523 H 0.37285 0.88383 0.40736 0.0
H524 H 0.38411 0.90729 0.43057 0.0
H525 H 0.39016 0.90649 0.38578 0.0
C526 C 0.33533 0.81693 0.45077 0.0
N527 N 0.34683 0.82494 0.4226 0.0
N528 N 0.36264 0.84177 0.4313 0.0
C529 C 0.36167 0.84499 0.46547 0.0
C530 C 0.34431 0.82939 0.4789 0.0
C531 C 0.31679 0.79712 0.45104 0.0
H532 H 0.32051 0.78546 0.44463 0.0
H533 H 0.30653 0.79682 0.43077 0.0
H534 H 0.30923 0.79386 0.47658 0.0
O535 O 0.36867 0.81008 0.37279 0.0
O536 O 0.39543 0.83811 0.38797 0.0
H537 H 0.39235 0.86116 0.47968 0.0
H538 H 0.37588 0.85892 0.51427 0.0
C539 C 0.37839 0.86101 0.4859 0.0
H540 H 0.38008 0.87555 0.47872 0.0
H541 H 0.42356 0.86921 0.43212 0.0
O542 O 0.32297 0.78822 0.37159 0.0
C543 C 0.38729 0.8202 0.37792 0.0
Co544 Co 0.19353 0.53565 0.37213 0.0
Co545 Co 0.1534 0.53493 0.38216 0.0
C546 C 0.15881 0.51052 0.32732 0.0
O547 O 0.17645 0.51604 0.33709 0.0
O548 O 0.14851 0.51705 0.34186 0.0
C549 C 0.22432 0.52497 0.36228 0.0
O550 O 0.21019 0.50714 0.35348 0.0
C551 C 0.11146 0.51782 0.40126 0.0
C552 C 0.11001 0.54493 0.4123 0.0
C553 C 0.09876 0.52442 0.41259 0.0
N554 N 0.12935 0.53374 0.39529 0.0
N555 N 0.12834 0.54988 0.40162 0.0
C556 C 0.10681 0.49695 0.39515 0.0
H557 H 0.11723 0.4965 0.37613 0.0
H558 H 0.10848 0.4906 0.41983 0.0
H559 H 0.09137 0.48769 0.38561 0.0
C560 C 0.18863 0.52742 0.44743 0.0
N561 N 0.18173 0.52932 0.41648 0.0
N562 N 0.16482 0.52902 0.42097 0.0
C563 C 0.16047 0.52702 0.45515 0.0
C564 C 0.17538 0.52588 0.473 0.0
C565 C 0.20811 0.52828 0.4524 0.0
H566 H 0.2203 0.54346 0.44634 0.0
H567 H 0.20921 0.51789 0.43405 0.0
H568 H 0.20988 0.52437 0.47934 0.0
O569 O 0.19925 0.56257 0.35897 0.0
O570 O 0.17107 0.56246 0.36757 0.0
H571 H 0.14422 0.5424 0.46002 0.0
H572 H 0.14535 0.53065 0.49951 0.0
C573 C 0.14403 0.52914 0.47088 0.0
H574 H 0.12961 0.51592 0.46433 0.0
H575 H 0.14026 0.56428 0.39925 0.0
O576 O 0.21988 0.53786 0.37196 0.0
C577 C 0.18922 0.5714 0.35877 0.0
Co578 Co 0.46675 0.65699 0.37217 0.0
Co579 Co 0.47054 0.61913 0.37764 0.0
C580 C 0.49484 0.65175 0.32728 0.0
O581 O 0.48771 0.6624 0.33781 0.0
O582 O 0.48915 0.63465 0.33997 0.0
C583 C 0.47626 0.69845 0.37248 0.0
O584 O 0.49483 0.70353 0.36654 0.0
C585 C 0.49068 0.59676 0.39143 0.0
C586 C 0.46555 0.56726 0.40496 0.0
C587 C 0.48605 0.57806 0.40287 0.0
N588 N 0.47371 0.5971 0.38777 0.0
N589 N 0.45871 0.57934 0.39522 0.0
C590 C 0.51076 0.61403 0.38348 0.0
H591 H 0.51097 0.61868 0.35621 0.0
H592 H 0.51365 0.62679 0.40024 0.0
H593 H 0.52269 0.61033 0.38684 0.0
C594 C 0.47445 0.65838 0.44768 0.0
N595 N 0.47286 0.65049 0.41593 0.0
N596 N 0.47474 0.63466 0.41847 0.0
C597 C 0.47773 0.63204 0.4521 0.0
C598 C 0.47763 0.64699 0.47173 0.0
C599 C 0.47094 0.67527 0.45498 0.0
H600 H 0.4574 0.67284 0.44117 0.0
H601 H 0.48368 0.68919 0.44505 0.0
H602 H 0.4691 0.67691 0.4831 0.0
O603 O 0.44068 0.63525 0.3563 0.0
O604 O 0.44293 0.60813 0.36158 0.0
H605 H 0.46743 0.60113 0.45908 0.0
H606 H 0.48379 0.61668 0.49329 0.0
C607 C 0.48075 0.61561 0.46505 0.0
H608 H 0.4936 0.61624 0.45165 0.0
H609 H 0.44386 0.57567 0.39487 0.0
O610 O 0.46326 0.68026 0.37575 0.0
C611 C 0.43303 0.61654 0.35388 0.0
C612 C 0.12526 0.06078 0.27952 0.0
C613 C 0.14377 0.06691 0.2951 0.0
C614 C 0.11646 0.07255 0.28178 0.0
C615 C 0.11186 0.10842 0.33329 0.0
H616 H 0.09725 0.12332 0.24688 0.0
C617 C 0.06993 0.15232 0.33189 0.0
C618 C 0.05456 0.14602 0.30738 0.0
C619 C 0.08358 0.1456 0.33003 0.0
C620 C 0.10103 0.11915 0.27129 0.0
H621 H 0.16728 0.08988 0.3262 0.0
H622 H 0.1514 0.11021 0.33108 0.0
H623 H 0.11505 0.10499 0.2456 0.0
H624 H 0.04177 0.12809 0.26119 0.0
H625 H 0.0649 0.11596 0.25861 0.0
H626 H 0.0969 0.12152 0.35913 0.0
C627 C 0.14398 0.0964 0.31674 0.0
C628 C 0.11133 0.10877 0.27048 0.0
C629 C 0.15302 0.0848 0.31388 0.0
C630 C 0.05345 0.13332 0.28047 0.0
C631 C 0.06689 0.12646 0.27883 0.0
C632 C 0.10121 0.11852 0.33415 0.0
C633 C 0.12579 0.09049 0.3002 0.0
C634 C 0.11652 0.10303 0.30143 0.0
C635 C 0.08202 0.13231 0.30376 0.0
C636 C 0.09531 0.12367 0.30311 0.0
H637 H 0.11779 0.04713 0.26473 0.0
H638 H 0.10233 0.06765 0.26907 0.0
H639 H 0.11569 0.10407 0.35748 0.0
H640 H 0.07125 0.16219 0.35284 0.0
H641 H 0.09522 0.15068 0.34935 0.0
C642 C 0.86516 0.92985 0.29726 0.0
C643 C 0.87747 0.92145 0.29758 0.0
C644 C 0.87318 0.95019 0.30332 0.0
C645 C 0.92118 0.99652 0.29734 0.0
H646 H 0.89539 0.01979 0.3498 0.0
C647 C 0.96134 0.07958 0.32343 0.0
C648 C 0.95069 0.08918 0.31485 0.0
C649 C 0.95158 0.059 0.32673 0.0
C650 C 0.9027 0.01344 0.33502 0.0
H651 H 0.9075 0.92741 0.30667 0.0
H652 H 0.92126 0.96246 0.31792 0.0
H653 H 0.87943 0.98364 0.34463 0.0
H654 H 0.92124 0.08479 0.30537 0.0
H655 H 0.90427 0.04882 0.31085 0.0
H656 H 0.94432 0.02609 0.28745 0.0
C657 C 0.9056 0.95363 0.31192 0.0
C658 C 0.89355 0.9928 0.33196 0.0
C659 C 0.89768 0.9335 0.30557 0.0
C660 C 0.92991 0.07786 0.31181 0.0
C661 C 0.92015 0.05725 0.31511 0.0
C662 C 0.9303 0.01701 0.30052 0.0
C663 C 0.89359 0.96233 0.31001 0.0
C664 C 0.90279 0.98415 0.31322 0.0
C665 C 0.93098 0.04759 0.32151 0.0
C666 C 0.92124 0.02572 0.31949 0.0
H667 H 0.84951 0.92087 0.29125 0.0
H668 H 0.86357 0.9565 0.30157 0.0
H669 H 0.92846 0.99037 0.28195 0.0
H670 H 0.97732 0.08785 0.32636 0.0
H671 H 0.96025 0.05196 0.33233 0.0
C672 C 0.94176 0.85738 0.25358 0.0
C673 C 0.93337 0.86973 0.25416 0.0
C674 C 0.96222 0.86549 0.2491 0.0
C675 C 0.00517 0.90746 0.21076 0.0
H676 H 0.03708 0.90195 0.28239 0.0
C677 C 0.08628 0.96532 0.23149 0.0
C678 C 0.09963 0.95997 0.24535 0.0
C679 C 0.06639 0.95116 0.22676 0.0
C680 C 0.02842 0.90326 0.26164 0.0
H681 H 0.93978 0.90018 0.2504 0.0
H682 H 0.97534 0.91417 0.24191 0.0
H683 H 0.00092 0.88258 0.28591 0.0
H684 H 0.10283 0.93531 0.26326 0.0
H685 H 0.06797 0.91038 0.25441 0.0
H686 H 0.03243 0.92821 0.18653 0.0
C687 C 0.9661 0.89829 0.24511 0.0
C688 C 0.00773 0.89223 0.26381 0.0
C689 C 0.94579 0.89028 0.25026 0.0
C690 C 0.09286 0.93992 0.25273 0.0
C691 C 0.07288 0.92567 0.24785 0.0
C692 C 0.02579 0.91824 0.20828 0.0
C693 C 0.97446 0.88597 0.24435 0.0
C694 C -0.00399 0.89483 0.23905 0.0
C695 C 0.05934 0.93122 0.2355 0.0
C696 C 0.03768 0.91688 0.23444 0.0
H697 H 0.93254 0.84149 0.25656 0.0
H698 H 0.96843 0.85576 0.24871 0.0
H699 H -0.00365 0.90945 0.19111 0.0
H700 H 0.091 0.98062 0.22539 0.0
H701 H 0.0564 0.9561 0.21773 0.0
C702 C 0.14561 0.07238 0.69793 0.0
C703 C 0.13285 0.05177 0.69798 0.0
C704 C 0.13794 0.08511 0.69325 0.0
C705 C 0.09049 0.08439 0.7037 0.0
H706 H 0.11632 0.13425 0.65375 0.0
C707 C 0.05019 0.1271 0.68041 0.0
C708 C 0.06019 0.1468 0.69228 0.0
C709 C 0.06038 0.11681 0.67583 0.0
C710 C 0.10903 0.12036 0.6678 0.0
H711 H 0.10246 0.02821 0.69056 0.0
H712 H 0.08928 0.0502 0.68115 0.0
H713 H 0.13191 0.11355 0.65587 0.0
H714 H 0.08903 0.1716 0.70615 0.0
H715 H 0.10682 0.15342 0.69817 0.0
H716 H 0.06762 0.09097 0.71548 0.0
C717 C 0.10501 0.05668 0.68614 0.0
C718 C 0.11795 0.10858 0.66915 0.0
C719 C 0.11258 0.04407 0.69138 0.0
C720 C 0.08086 0.15639 0.6972 0.0
C721 C 0.09109 0.14605 0.69249 0.0
C722 C 0.08156 0.09598 0.70205 0.0
C723 C 0.11746 0.07733 0.68812 0.0
C724 C 0.10864 0.09036 0.68687 0.0
C725 C 0.08078 0.12598 0.68291 0.0
C726 C 0.09062 0.11397 0.68389 0.0
H727 H 0.16133 0.07863 0.7029 0.0
H728 H 0.1479 0.10096 0.69498 0.0
H729 H 0.0832 0.07076 0.71851 0.0
H730 H 0.03432 0.11933 0.67593 0.0
H731 H 0.05217 0.1014 0.6679 0.0
C732 C 0.93459 0.08999 0.68633 0.0
C733 C 0.95382 0.09803 0.70015 0.0
C734 C 0.9219 0.06939 0.68526 0.0
C735 C 0.91584 0.02285 0.72351 0.0
H736 H 0.88503 -0.00232 0.64075 0.0
C737 C 0.88775 0.94141 0.69403 0.0
C738 C 0.86723 0.92959 0.68835 0.0
C739 C 0.89679 0.96202 0.69357 0.0
C740 C 0.89347 0.00458 0.66407 0.0
H741 H 0.97477 0.09073 0.72359 0.0
H742 H 0.95311 0.05531 0.72091 0.0
H743 H 0.90313 0.03393 0.64537 0.0
H744 H 0.84035 0.93019 0.67557 0.0
H745 H 0.85639 0.96639 0.67424 0.0
H746 H 0.90685 0.99362 0.74162 0.0
C747 C 0.94749 0.06471 0.7117 0.0
C748 C 0.90372 0.02528 0.66685 0.0
C749 C 0.96002 0.08512 0.713 0.0
C750 C 0.85617 0.93887 0.68022 0.0
C751 C 0.86532 0.95956 0.67936 0.0
C752 C 0.90587 0.00229 0.72052 0.0
C753 C 0.92827 0.05654 0.69793 0.0
C754 C 0.91539 0.03465 0.69632 0.0
C755 C 0.88558 0.97126 0.68703 0.0
C756 C 0.89493 0.99299 0.69053 0.0
H757 H 0.92939 0.09956 0.67624 0.0
H758 H 0.90712 0.06355 0.67468 0.0
H759 H 0.92422 0.02953 0.74698 0.0
H760 H 0.89674 0.93479 0.70023 0.0
H761 H 0.91252 0.97077 0.69911 0.0
C762 C 0.07174 0.92439 0.74983 0.0
C763 C 0.0797 0.94495 0.75356 0.0
C764 C 0.05124 0.91151 0.75236 0.0
C765 C 0.00535 0.90758 0.78634 0.0
H766 H 0.97947 0.87537 0.70528 0.0
C767 C 0.92654 0.8866 0.74825 0.0
C768 C 0.9141 0.86849 0.73156 0.0
C769 C 0.94608 0.89211 0.75631 0.0
C770 C 0.9864 0.88386 0.72852 0.0
H771 H 0.07264 0.96808 0.76426 0.0
H772 H 0.03705 0.94563 0.7693 0.0
H773 H 0.01553 0.89196 0.71044 0.0
H774 H 0.91224 0.84163 0.71128 0.0
H775 H 0.94653 0.85125 0.72569 0.0
H776 H 0.97639 0.89995 0.80418 0.0
C777 C 0.04658 0.93947 0.76423 0.0
C778 C 0.00706 0.89338 0.73141 0.0
C779 C 0.06693 0.95232 0.76106 0.0
C780 C 0.9215 0.85573 0.72399 0.0
C781 C 0.94114 0.86126 0.73213 0.0
C782 C 0.98473 0.89792 0.78365 0.0
C783 C 0.03851 0.91899 0.75946 0.0
C784 C 0.01672 0.90591 0.75972 0.0
C785 C 0.95371 0.87962 0.74807 0.0
C786 C 0.97507 0.88661 0.75404 0.0
H787 H 0.08125 0.91832 0.74397 0.0
H788 H 0.04533 0.89576 0.74857 0.0
H789 H 0.01248 0.91695 0.80866 0.0
H790 H 0.92134 0.89679 0.75455 0.0
H791 H 0.9554 0.90652 0.76797 0.0
C792 C 0.7194 0.46987 0.61339 0.0
C793 C 0.71384 0.47245 0.64685 0.0
C794 C 0.73161 0.46166 0.60895 0.0
C795 C 0.76683 0.45036 0.65283 0.0
H796 H 0.74729 0.40687 0.587 0.0
C797 C 0.81088 0.41167 0.6131 0.0
C798 C 0.80018 0.39083 0.61172 0.0
C799 C 0.80107 0.42238 0.61799 0.0
C800 C 0.75288 0.41893 0.60556 0.0
H801 H 0.71767 0.46952 0.7019 0.0
H802 H 0.73914 0.4553 0.69405 0.0
H803 H 0.72974 0.42528 0.59397 0.0
H804 H 0.77076 0.36492 0.6146 0.0
H805 H 0.75364 0.38368 0.6229 0.0
H806 H 0.78989 0.44384 0.66458 0.0
C807 C 0.73398 0.45958 0.67132 0.0
C808 C 0.74298 0.42961 0.60927 0.0
C809 C 0.72163 0.46765 0.67579 0.0
C810 C 0.77945 0.38094 0.61552 0.0
C811 C 0.76963 0.39168 0.62009 0.0
C812 C 0.77686 0.43978 0.64887 0.0
C813 C 0.73866 0.45604 0.63784 0.0
C814 C 0.7498 0.44537 0.63304 0.0
C815 C 0.78034 0.41249 0.62128 0.0
C816 C 0.76989 0.42388 0.62535 0.0
H817 H 0.71374 0.4735 0.59054 0.0
H818 H 0.73524 0.45936 0.58285 0.0
H819 H 0.77244 0.46249 0.67126 0.0
H820 H 0.82687 0.41977 0.61032 0.0
H821 H 0.80968 0.43842 0.61852 0.0
C822 C 0.62756 0.41583 0.65891 0.0
C823 C 0.61688 0.42578 0.65383 0.0
C824 C 0.61769 0.39522 0.66126 0.0
C825 C 0.56938 0.35011 0.67502 0.0
H826 H 0.59155 0.32654 0.61398 0.0
C827 C 0.5301 0.26576 0.64266 0.0
C828 C 0.54248 0.25749 0.63993 0.0
C829 C 0.53832 0.28626 0.64688 0.0
C830 C 0.58529 0.33284 0.63153 0.0
H831 H 0.58732 0.42193 0.6495 0.0
H832 H 0.5701 0.38583 0.65356 0.0
H833 H 0.60768 0.36235 0.61889 0.0
H834 H 0.57308 0.26405 0.64113 0.0
H835 H 0.58723 0.29941 0.64918 0.0
H836 H 0.54699 0.32041 0.68774 0.0
C837 C 0.58612 0.39405 0.6557 0.0
C838 C 0.59455 0.35337 0.63433 0.0
C839 C 0.59601 0.41472 0.65323 0.0
C840 C 0.56311 0.26996 0.64258 0.0
C841 C 0.57126 0.29029 0.64706 0.0
C842 C 0.56013 0.32944 0.6724 0.0
C843 C 0.59692 0.3841 0.65868 0.0
C844 C 0.58682 0.36223 0.65629 0.0
C845 C 0.55902 0.29875 0.6486 0.0
C846 C 0.56813 0.32061 0.65084 0.0
H847 H 0.64363 0.42388 0.65985 0.0
H848 H 0.62635 0.38792 0.66419 0.0
H849 H 0.56312 0.35659 0.69214 0.0
H850 H 0.51414 0.25648 0.64075 0.0
H851 H 0.52851 0.29236 0.64783 0.0
C852 C 0.60621 0.21794 0.63928 0.0
C853 C 0.59383 0.19911 0.62485 0.0
C854 C 0.62631 0.22471 0.64469 0.0
C855 C 0.66679 0.23284 0.66735 0.0
H856 H 0.69533 0.2269 0.59012 0.0
C857 C 0.75186 0.27557 0.66469 0.0
C858 C 0.75974 0.28598 0.63359 0.0
C859 C 0.73207 0.26035 0.66625 0.0
C860 C 0.68756 0.2286 0.61199 0.0
H861 H 0.59278 0.17238 0.60572 0.0
H862 H 0.62798 0.18426 0.61532 0.0
H863 H 0.65918 0.20937 0.58933 0.0
H864 H 0.75349 0.28772 0.5792 0.0
H865 H 0.71907 0.26156 0.58207 0.0
H866 H 0.69511 0.25304 0.68899 0.0
C867 C 0.6221 0.19381 0.62213 0.0
C868 C 0.66684 0.21839 0.61171 0.0
C869 C 0.60193 0.187 0.61674 0.0
C870 C 0.74784 0.28009 0.60364 0.0
C871 C 0.72811 0.26493 0.60521 0.0
C872 C 0.68749 0.24308 0.66758 0.0
C873 C 0.63454 0.21282 0.63585 0.0
C874 C 0.65625 0.22094 0.63885 0.0
C875 C 0.71983 0.25526 0.63675 0.0
C876 C 0.69811 0.24158 0.63937 0.0
H877 H 0.60049 0.22766 0.64586 0.0
H878 H 0.63554 0.23956 0.65475 0.0
H879 H 0.65903 0.23482 0.68892 0.0
H880 H 0.76071 0.27964 0.68815 0.0
H881 H 0.7262 0.25298 0.69081 0.0
C882 C 0.82104 0.39699 0.04108 0.0
C883 C 0.80845 0.37761 0.05307 0.0
C884 C 0.81547 0.41147 0.04435 0.0
C885 C 0.779 0.42164 0.08914 0.0
H886 H 0.78509 0.45374 0.0081 0.0
C887 C 0.72645 0.45048 0.05654 0.0
C888 C 0.73509 0.47119 0.05535 0.0
C889 C 0.73834 0.44178 0.05697 0.0
C890 C 0.78356 0.44504 0.03102 0.0
H891 H 0.78048 0.35839 0.07889 0.0
H892 H 0.77067 0.38323 0.08379 0.0
H893 H 0.80126 0.43365 0.00962 0.0
H894 H 0.76293 0.499 0.05206 0.0
H895 H 0.78375 0.48353 0.05172 0.0
H896 H 0.76026 0.43207 0.10945 0.0
C897 C 0.78498 0.38752 0.07244 0.0
C898 C 0.79287 0.43363 0.03205 0.0
C899 C 0.79055 0.37316 0.06933 0.0
C900 C 0.75587 0.483 0.05309 0.0
C901 C 0.76777 0.47422 0.05285 0.0
C902 C 0.76948 0.43275 0.08784 0.0
C903 C 0.79724 0.40679 0.05969 0.0
C904 C 0.7902 0.42134 0.06073 0.0
C905 C 0.75905 0.45358 0.05559 0.0
C906 C 0.7713 0.44412 0.05845 0.0
H907 H 0.83497 0.40088 0.02855 0.0
H908 H 0.82534 0.42623 0.03458 0.0
H909 H 0.77705 0.41276 0.112 0.0
H910 H 0.71052 0.44096 0.05842 0.0
H911 H 0.73136 0.4258 0.05885 0.0
C912 C 0.63269 0.40946 0.03177 0.0
C913 C 0.62557 0.42216 0.04147 0.0
C914 C 0.61965 0.38943 0.02599 0.0
C915 C 0.56756 0.3517 0.00942 0.0
H916 H 0.58465 0.31704 0.04963 0.0
C917 C 0.51834 0.26613 0.02562 0.0
C918 C 0.52777 0.25492 0.02049 0.0
C919 C 0.52914 0.28681 0.02343 0.0
C920 C 0.57978 0.3265 0.03781 0.0
H921 H 0.59912 0.42397 0.05149 0.0
H922 H 0.5761 0.38849 0.04206 0.0
H923 H 0.60526 0.35262 0.05625 0.0
H924 H 0.5555 0.2565 0.00613 0.0
H925 H 0.57421 0.29246 0.00204 0.0
H926 H 0.54179 0.32521 0.99153 0.0
C927 C 0.59185 0.39424 0.03862 0.0
C928 C 0.59158 0.34691 0.04166 0.0
C929 C 0.605 0.41449 0.04417 0.0
C930 C 0.54784 0.26469 0.01074 0.0
C931 C 0.55859 0.2853 0.0085 0.0
C932 C 0.55563 0.33113 0.00569 0.0
C933 C 0.59914 0.38148 0.03014 0.0
C934 C 0.58578 0.35977 0.02712 0.0
C935 C 0.54953 0.29659 0.01605 0.0
C936 C 0.5618 0.31838 0.0195 0.0
H937 H 0.64843 0.41495 0.02881 0.0
H938 H 0.6257 0.3801 0.01859 0.0
H939 H 0.56276 0.36127 -0.00214 0.0
H940 H 0.50286 0.25905 0.03302 0.0
H941 H 0.5218 0.29515 0.0294 0.0
C942 C 0.73364 0.24909 0.01845 0.0
C943 C 0.74369 0.26927 0.02773 0.0
C944 C 0.71288 0.23818 0.01843 0.0
C945 C 0.6709 0.23643 0.06203 0.0
H946 H 0.63887 0.20728 0.98272 0.0
C947 C 0.58887 0.2131 0.05335 0.0
C948 C 0.57549 0.19542 0.03637 0.0
C949 C 0.60912 0.21968 0.05343 0.0
C950 C 0.64757 0.21499 0.00535 0.0
H951 H 0.73979 0.29391 0.04337 0.0
H952 H 0.7037 0.27477 0.04387 0.0
H953 H 0.67507 0.22351 0.97925 0.0
H954 H 0.57286 0.17044 0.00701 0.0
H955 H 0.60839 0.18178 0.00784 0.0
H956 H 0.64372 0.22794 0.08844 0.0
C957 C 0.7119 0.26745 0.03658 0.0
C958 C 0.66827 0.22435 0.00324 0.0
C959 C 0.73256 0.27841 0.03606 0.0
C960 C 0.58281 0.18417 0.02023 0.0
C961 C 0.60317 0.19073 0.02051 0.0
C962 C 0.65029 0.22688 0.06434 0.0
C963 C 0.7019 0.2472 0.02828 0.0
C964 C 0.68007 0.23557 0.03127 0.0
C965 C 0.61658 0.20868 0.03686 0.0
C966 C 0.63836 0.21652 0.03572 0.0
H967 H 0.7418 0.24164 0.01183 0.0
H968 H 0.70544 0.22256 0.01191 0.0
H969 H 0.67973 0.24472 0.08421 0.0
H970 H 0.58379 0.22219 0.06596 0.0
H971 H 0.61899 0.23377 0.06568 0.0
C972 C 0.36881 0.77368 0.96224 0.0
C973 C 0.37679 0.79421 0.95838 0.0
C974 C 0.38116 0.76553 0.96332 0.0
C975 C 0.43284 0.77736 0.97768 0.0
H976 H 0.41496 0.72806 0.92762 0.0
C977 C 0.48173 0.7418 0.95119 0.0
C978 C 0.47248 0.72107 0.95454 0.0
C979 C 0.47068 0.7514 0.95413 0.0
C980 C 0.42005 0.74171 0.94205 0.0
H981 H 0.40404 0.82237 0.95316 0.0
H982 H 0.42574 0.808 0.95442 0.0
H983 H 0.3948 0.74387 0.92702 0.0
H984 H 0.44451 0.69429 0.96502 0.0
H985 H 0.42532 0.71107 0.97017 0.0
H986 H 0.4583 0.77519 0.99223 0.0
C987 C 0.40988 0.79828 0.95705 0.0
C988 C 0.40851 0.75078 0.94173 0.0
C989 C 0.39747 0.80649 0.95616 0.0
C990 C 0.45209 0.71025 0.96206 0.0
C991 C 0.44107 0.71984 0.96485 0.0
C992 C 0.44448 0.7683 0.97785 0.0
C993 C 0.40181 0.77767 0.96028 0.0
C994 C 0.41465 0.7686 0.95981 0.0
C995 C 0.45018 0.74045 0.96031 0.0
C996 C 0.43808 0.75029 0.96028 0.0
H997 H 0.35295 0.7638 0.96443 0.0
H998 H 0.37448 0.74965 0.96663 0.0
H999 H 0.43789 0.791 0.99211 0.0
H1000 H 0.49742 0.75059 0.94549 0.0
H1001 H 0.47807 0.76729 0.95034 0.0
C1002 C 0.24612 0.73928 0.96716 0.0
C1003 C 0.26634 0.74732 0.97531 0.0
C1004 C 0.23269 0.71921 0.97306 0.0
C1005 C 0.22674 0.67434 0.01771 0.0
H1006 H 0.19757 0.64665 0.935 0.0
C1007 C 0.21261 0.59794 0.98065 0.0
C1008 C 0.19463 0.58407 0.96507 0.0
C1009 C 0.21632 0.61693 0.98853 0.0
C1010 C 0.20518 0.65413 0.95865 0.0
H1011 H 0.28805 0.7409 -0.00207 0.0
H1012 H 0.26472 0.70604 0.00805 0.0
H1013 H 0.21346 0.68267 0.93781 0.0
H1014 H 0.16624 0.57905 0.94615 0.0
H1015 H 0.173 0.61272 0.95937 0.0
H1016 H 0.21941 0.64585 0.0377 0.0
C1017 C 0.25919 0.71519 0.99727 0.0
C1018 C 0.21429 0.67477 0.96027 0.0
C1019 C 0.27262 0.73516 0.99117 0.0
C1020 C 0.18023 0.58947 0.95812 0.0
C1021 C 0.18409 0.60868 0.96565 0.0
C1022 C 0.21766 0.65373 0.01606 0.0
C1023 C 0.23918 0.70689 0.98753 0.0
C1024 C 0.22589 0.68512 0.9892 0.0
C1025 C 0.20223 0.6226 0.98078 0.0
C1026 C 0.20755 0.64352 0.98589 0.0
H1027 H 0.2408 0.74828 0.95501 0.0
H1028 H 0.21732 0.71323 0.96552 0.0
H1029 H 0.23526 0.68191 0.0406 0.0
H1030 H 0.22397 0.59422 0.98654 0.0
H1031 H 0.23058 0.62742 -0.00041 0.0
C1032 C 0.27054 0.52716 0.96413 0.0
C1033 C 0.26192 0.53931 0.96452 0.0
C1034 C 0.29076 0.53515 0.97074 0.0
C1035 C 0.33513 0.5796 0.00603 0.0
H1036 H 0.36373 0.5635 0.94392 0.0
C1037 C 0.42011 0.61754 0.01122 0.0
C1038 C 0.42952 0.62345 0.97879 0.0
C1039 C 0.39979 0.60398 0.01327 0.0
C1040 C 0.35596 0.56814 0.96149 0.0
H1041 H 0.26775 0.56929 0.973 0.0
H1042 H 0.30305 0.58328 0.98381 0.0
H1043 H 0.32768 0.54685 0.94098 0.0
H1044 H 0.42526 0.61889 0.92316 0.0
H1045 H 0.38988 0.5956 0.92668 0.0
H1046 H 0.36345 0.60163 0.0252 0.0
C1047 C 0.29413 0.56751 0.979 0.0
C1048 C 0.33527 0.55845 0.96009 0.0
C1049 C 0.27389 0.55951 0.97255 0.0
C1050 C 0.41845 0.61469 0.94857 0.0
C1051 C 0.39815 0.60121 0.95061 0.0
C1052 C 0.35582 0.58935 0.00732 0.0
C1053 C 0.30285 0.55547 0.97775 0.0
C1054 C 0.32464 0.56435 0.98184 0.0
C1055 C 0.38848 0.5961 0.98292 0.0
C1056 C 0.3665 0.58402 0.98456 0.0
H1057 H 0.26171 0.51149 0.95831 0.0
H1058 H 0.29695 0.52541 0.97011 0.0
H1059 H 0.32738 0.58429 0.02352 0.0
H1060 H 0.42827 0.62388 0.03502 0.0
H1061 H 0.39285 0.60006 0.03859 0.0
C1062 C 0.48386 0.7339 0.37284 0.0
C1063 C 0.47006 0.71351 0.37504 0.0
C1064 C 0.47752 0.74784 0.37501 0.0
C1065 C 0.43469 0.75255 0.40445 0.0
H1066 H 0.45384 0.7962 0.33922 0.0
C1067 C 0.38978 0.78966 0.37102 0.0
C1068 C 0.39928 0.81035 0.37484 0.0
C1069 C 0.40069 0.77993 0.37178 0.0
C1070 C 0.44858 0.7842 0.35782 0.0
H1071 H 0.43879 0.6918 0.38094 0.0
H1072 H 0.42785 0.71585 0.38402 0.0
H1073 H 0.46912 0.77525 0.34056 0.0
H1074 H 0.42786 0.83716 0.38078 0.0
H1075 H 0.44702 0.81996 0.38142 0.0
H1076 H 0.41363 0.76092 0.42065 0.0
C1077 C 0.44358 0.72121 0.38143 0.0
C1078 C 0.45734 0.77227 0.35871 0.0
C1079 C 0.44988 0.70738 0.37939 0.0
C1080 C 0.42009 0.82119 0.37791 0.0
C1081 C 0.43107 0.81141 0.37821 0.0
C1082 C 0.42586 0.76428 0.40328 0.0
C1083 C 0.45729 0.7416 0.37946 0.0
C1084 C 0.45009 0.75598 0.38141 0.0
C1085 C 0.42136 0.79067 0.37597 0.0
C1086 C 0.43238 0.77988 0.3794 0.0
H1087 H 0.49951 0.73908 0.36949 0.0
H1088 H 0.48843 0.76346 0.37353 0.0
H1089 H 0.42912 0.74046 0.42288 0.0
H1090 H 0.3738 0.78083 0.36853 0.0
H1091 H 0.39292 0.76392 0.36955 0.0
C1092 C 0.29952 0.74852 0.35331 0.0
C1093 C 0.29166 0.76121 0.35666 0.0
C1094 C 0.28706 0.72818 0.35018 0.0
C1095 C 0.23613 0.68871 0.33013 0.0
H1096 H 0.25265 0.65712 0.38322 0.0
C1097 C 0.18893 0.60334 0.35299 0.0
C1098 C 0.19929 0.59285 0.35099 0.0
C1099 C 0.19905 0.62399 0.35002 0.0
C1100 C 0.24795 0.66573 0.36797 0.0
H1101 H 0.26455 0.76262 0.35821 0.0
H1102 H 0.2425 0.72661 0.35352 0.0
H1103 H 0.272 0.693 0.38634 0.0
H1104 H 0.22816 0.59571 0.34204 0.0
H1105 H 0.2457 0.63165 0.33693 0.0
H1106 H 0.21178 0.66107 0.31231 0.0
C1107 C 0.2584 0.73259 0.35295 0.0
C1108 C 0.25902 0.68629 0.36974 0.0
C1109 C 0.27099 0.75314 0.35577 0.0
C1110 C 0.21974 0.60332 0.34407 0.0
C1111 C 0.22982 0.62391 0.34126 0.0
C1112 C 0.22489 0.66799 0.32856 0.0
C1113 C 0.26637 0.7199 0.35078 0.0
C1114 C 0.25349 0.69804 0.35036 0.0
C1115 C 0.21967 0.63447 0.34518 0.0
C1116 C 0.23094 0.65636 0.34704 0.0
H1117 H 0.3154 0.75429 0.35323 0.0
H1118 H 0.29369 0.71888 0.34754 0.0
H1119 H 0.23154 0.69738 0.31484 0.0
H1120 H 0.17314 0.59571 0.35812 0.0
H1121 H 0.1909 0.6318 0.35319 0.0
C1122 C 0.40035 0.61331 0.33822 0.0
C1123 C 0.41181 0.60429 0.34448 0.0
C1124 C 0.37993 0.60182 0.3331 0.0
C1125 C 0.33791 0.55292 0.35492 0.0
H1126 H 0.30939 0.57124 0.2974 0.0
C1127 C 0.25145 0.51702 0.35092 0.0
C1128 C 0.24545 0.53101 0.35748 0.0
C1129 C 0.27148 0.52325 0.34475 0.0
C1130 C 0.31718 0.56588 0.31337 0.0
H1131 H 0.41089 0.57604 0.34855 0.0
H1132 H 0.37517 0.55596 0.33912 0.0
H1133 H 0.34536 0.58699 0.29241 0.0
H1134 H 0.25574 0.56246 0.36288 0.0
H1135 H 0.29035 0.57317 0.35169 0.0
H1136 H 0.30956 0.53203 0.37625 0.0
C1137 C 0.382 0.57195 0.33878 0.0
C1138 C 0.33776 0.57493 0.31066 0.0
C1139 C 0.40248 0.58347 0.34399 0.0
C1140 C 0.25982 0.55126 0.35796 0.0
C1141 C 0.27964 0.55744 0.35127 0.0
C1142 C 0.31724 0.54372 0.35736 0.0
C1143 C 0.37044 0.581 0.33392 0.0
C1144 C 0.34844 0.56907 0.33233 0.0
C1145 C 0.28565 0.54355 0.34437 0.0
C1146 C 0.30683 0.55062 0.33749 0.0
H1147 H 0.40702 0.62929 0.33841 0.0
H1148 H 0.37148 0.60932 0.32997 0.0
H1149 H 0.34567 0.54813 0.37218 0.0
H1150 H 0.2407 0.50132 0.35044 0.0
H1151 H 0.27583 0.51228 0.33964 0.0
C1152 C 0.40791 0.1583 0.13034 0.0
C1153 C 0.40847 0.17126 0.10447 0.0
C1154 C 0.39163 0.1489 0.15251 0.0
C1155 C 0.35071 0.15451 0.18733 0.0
H1156 H 0.32881 0.09961 0.21482 0.0
C1157 C 0.28575 0.11859 0.28269 0.0
C1158 C 0.27011 0.10018 0.27181 0.0
C1159 C 0.3044 0.12655 0.26717 0.0
C1160 C 0.3348 0.11497 0.20741 0.0
H1161 H 0.39256 0.18456 0.08129 0.0
H1162 H 0.36382 0.16778 0.11954 0.0
H1163 H 0.35696 0.11459 0.1751 0.0
H1164 H 0.26171 0.0757 0.23605 0.0
H1165 H 0.29404 0.08942 0.20927 0.0
H1166 H 0.3281 0.15472 0.21838 0.0
C1167 C 0.37605 0.16504 0.12295 0.0
C1168 C 0.35098 0.12358 0.18486 0.0
C1169 C 0.39238 0.17449 0.10088 0.0
C1170 C 0.2736 0.08956 0.246 0.0
C1171 C 0.29218 0.09751 0.23044 0.0
C1172 C 0.33452 0.14591 0.20977 0.0
C1173 C 0.37566 0.15239 0.14936 0.0
C1174 C 0.35891 0.14336 0.17418 0.0
C1175 C 0.30763 0.11632 0.24018 0.0
C1176 C 0.32621 0.12597 0.21969 0.0
H1177 H 0.42041 0.15609 0.13464 0.0
H1178 H 0.39192 0.13951 0.17295 0.0
H1179 H 0.35673 0.1699 0.18011 0.0
H1180 H 0.28336 0.12712 0.30236 0.0
H1181 H 0.31611 0.14099 0.2755 0.0
C1182 C 0.84795 0.24355 0.09012 0.0
C1183 C 0.83266 0.23192 0.06673 0.0
C1184 C 0.85902 0.23606 0.10559 0.0
C1185 C 0.85421 0.18844 0.13018 0.0
H1186 H 0.90967 0.22115 0.15508 0.0
C1187 C 0.89017 0.16355 0.23349 0.0
C1188 C 0.90941 0.16715 0.22696 0.0
C1189 C 0.88185 0.17212 0.21257 0.0
C1190 C 0.89423 0.21176 0.14805 0.0
H1191 H 0.81706 0.20355 0.04065 0.0
H1192 H 0.83677 0.19048 0.0671 0.0
H1193 H 0.89407 0.23456 0.11737 0.0
H1194 H 0.93486 0.18201 0.19284 0.0
H1195 H 0.92038 0.19696 0.15632 0.0
H1196 H 0.85441 0.16553 0.1603 0.0
C1197 C 0.8401 0.20535 0.07371 0.0
C1198 C 0.88525 0.21949 0.1267 0.0
C1199 C 0.82893 0.21283 0.05839 0.0
C1200 C 0.92026 0.17955 0.19927 0.0
C1201 C 0.91191 0.18801 0.17819 0.0
C1202 C 0.8632 0.18068 0.15135 0.0
C1203 C 0.85497 0.21673 0.0981 0.0
C1204 C 0.86507 0.208 0.11791 0.0
C1205 C 0.89252 0.1842 0.18436 0.0
C1206 C 0.88323 0.19233 0.16093 0.0
H1207 H 0.85066 0.25804 0.09802 0.0
H1208 H 0.87005 0.24506 0.12479 0.0
H1209 H 0.83857 0.17926 0.12431 0.0
H1210 H 0.88149 0.15395 0.2546 0.0
H1211 H 0.867 0.16917 0.21838 0.0
C1212 C 0.76918 0.59374 0.16775 0.0
C1213 C 0.7646 0.58854 0.13276 0.0
C1214 C 0.77566 0.61309 0.17866 0.0
C1215 C 0.7795 0.66055 0.15028 0.0
H1216 H 0.82204 0.68312 0.21812 0.0
C1217 C 0.83465 0.74383 0.16678 0.0
C1218 C 0.83863 0.75135 0.20071 0.0
C1219 C 0.82259 0.72356 0.16106 0.0
C1220 C 0.80995 0.6769 0.19956 0.0
H1221 H 0.7635 0.59926 0.08146 0.0
H1222 H 0.77558 0.63332 0.10009 0.0
H1223 H 0.80703 0.64824 0.20286 0.0
H1224 H 0.83346 0.74388 0.25531 0.0
H1225 H 0.81257 0.70817 0.24527 0.0
H1226 H 0.78336 0.6897 0.14578 0.0
C1227 C 0.77348 0.62238 0.11947 0.0
C1228 C 0.80129 0.65691 0.19085 0.0
C1229 C 0.76669 0.60294 0.1087 0.0
C1230 C 0.8303 0.73838 0.2289 0.0
C1231 C 0.8185 0.71804 0.2232 0.0
C1232 C 0.78838 0.68062 0.15864 0.0
C1233 C 0.77807 0.6277 0.15459 0.0
C1234 C 0.78616 0.64856 0.16574 0.0
C1235 C 0.81469 0.7105 0.18923 0.0
C1236 C 0.80383 0.68897 0.18302 0.0
H1237 H 0.76748 0.58275 0.18676 0.0
H1238 H 0.77874 0.61657 0.20597 0.0
H1239 H 0.76759 0.6545 0.1314 0.0
H1240 H 0.84097 0.75363 0.1447 0.0
H1241 H 0.82004 0.71801 0.13466 0.0
C1242 C 0.10712 0.26827 0.81631 0.0
C1243 C 0.10166 0.26411 0.78135 0.0
C1244 C 0.11582 0.28766 0.82862 0.0
C1245 C 0.12508 0.33797 0.80518 0.0
H1246 H 0.16576 0.35429 0.87604 0.0
C1247 C 0.18252 0.4191 0.83998 0.0
C1248 C 0.18287 0.42401 0.87509 0.0
C1249 C 0.17134 0.39943 0.8292 0.0
C1250 C 0.15431 0.34982 0.85644 0.0
H1251 H 0.10115 0.2766 0.7315 0.0
H1252 H 0.1173 0.31075 0.75243 0.0
H1253 H 0.14901 0.3202 0.85518 0.0
H1254 H 0.1724 0.41257 0.92669 0.0
H1255 H 0.15322 0.37785 0.90787 0.0
H1256 H 0.13134 0.36809 0.8055 0.0
C1257 C 0.11421 0.29905 0.77081 0.0
C1258 C 0.1446 0.3303 0.84459 0.0
C1259 C 0.10509 0.27956 0.7587 0.0
C1260 C 0.17213 0.40903 0.89942 0.0
C1261 C 0.16128 0.38929 0.88875 0.0
C1262 C 0.13511 0.35761 0.81657 0.0
C1263 C 0.11972 0.30335 0.80595 0.0
C1264 C 0.12984 0.3241 0.81881 0.0
C1265 C 0.16078 0.38441 0.85355 0.0
C1266 C 0.14975 0.36361 0.84227 0.0
H1267 H 0.10437 0.25647 0.83426 0.0
H1268 H 0.1194 0.29029 0.85597 0.0
H1269 H 0.11355 0.33368 0.78583 0.0
H1270 H 0.19072 0.4305 0.82085 0.0
H1271 H 0.17123 0.39589 0.80197 0.0
C1272 C 0.60819 0.78191 0.8789 0.0
C1273 C 0.59327 0.76239 0.87192 0.0
C1274 C 0.62657 0.78985 0.86248 0.0
C1275 C 0.65001 0.78518 0.7839 0.0
H1276 H 0.69885 0.81548 0.83587 0.0
C1277 C 0.726 0.83816 0.72145 0.0
C1278 C 0.74254 0.83775 0.73497 0.0
C1279 C 0.7074 0.82698 0.73689 0.0
C1280 C 0.68534 0.8069 0.82107 0.0
H1281 H 0.58546 0.73612 0.84129 0.0
H1282 H 0.61768 0.74992 0.81286 0.0
H1283 H 0.66715 0.79969 0.86641 0.0
H1284 H 0.75274 0.82576 0.77571 0.0
H1285 H 0.72027 0.80602 0.80224 0.0
H1286 H 0.66824 0.79258 0.7385 0.0
C1287 C 0.61523 0.75898 0.83134 0.0
C1288 C 0.66723 0.79804 0.8385 0.0
C1289 C 0.59692 0.75098 0.848 0.0
C1290 C 0.74017 0.82587 0.76398 0.0
C1291 C 0.72163 0.81481 0.77954 0.0
C1292 C 0.66814 0.79419 0.76642 0.0
C1293 C 0.6302 0.77849 0.83839 0.0
C1294 C 0.6494 0.7872 0.82006 0.0
C1295 C 0.70514 0.81547 0.76644 0.0
C1296 C 0.68595 0.80519 0.78485 0.0
H1297 H 0.60562 0.79104 0.89701 0.0
H1298 H 0.63779 0.80503 0.86803 0.0
H1299 H 0.63644 0.77701 0.76907 0.0
H1300 H 0.72754 0.84739 0.69931 0.0
H1301 H 0.69495 0.82792 0.72653 0.0
C1302 C 0.24843 0.8419 0.84629 0.0
C1303 C 0.25226 0.84287 0.88197 0.0
C1304 C 0.24483 0.85592 0.83064 0.0
C1305 C 0.2454 0.9036 0.84698 0.0
H1306 H 0.20249 0.88156 0.77985 0.0
C1307 C 0.18816 0.92842 0.82641 0.0
C1308 C 0.18293 0.93018 0.79232 0.0
C1309 C 0.20177 0.92211 0.83258 0.0
C1310 C 0.21477 0.88806 0.79799 0.0
H1311 H 0.25579 0.85913 0.92943 0.0
H1312 H 0.24829 0.88304 0.90272 0.0
H1313 H 0.21639 0.8616 0.80008 0.0
H1314 H 0.18789 0.92721 0.73789 0.0
H1315 H 0.21137 0.91545 0.74877 0.0
H1316 H 0.24238 0.92951 0.84668 0.0
C1317 C 0.24878 0.872 0.88633 0.0
C1318 C 0.22283 0.87665 0.8096 0.0
C1319 C 0.25286 0.85822 0.9018 0.0
C1320 C 0.1919 0.92611 0.76438 0.0
C1321 C 0.20524 0.91939 0.77056 0.0
C1322 C 0.23704 0.91487 0.83581 0.0
C1323 C 0.24444 0.87085 0.8506 0.0
C1324 C 0.23791 0.88407 0.83491 0.0
C1325 C 0.21002 0.91707 0.80474 0.0
C1326 C 0.22137 0.90698 0.81183 0.0
H1327 H 0.24827 0.8303 0.83049 0.0
H1328 H 0.24207 0.85484 0.80296 0.0
H1329 H 0.25731 0.90998 0.86584 0.0
H1330 H 0.18142 0.93155 0.84829 0.0
H1331 H 0.20503 0.92015 0.85915 0.0
C1332 C 0.93057 0.42416 0.52753 0.0
C1333 C 0.92148 0.43519 0.53684 0.0
C1334 C 0.94988 0.43363 0.51458 0.0
C1335 C 0.98423 0.47532 0.46432 0.0
H1336 H 0.02591 0.47017 0.5097 0.0
C1337 C 0.06575 0.5215 0.42199 0.0
C1338 C 0.07793 0.513 0.42445 0.0
C1339 C 0.0465 0.51166 0.43513 0.0
C1340 C 0.0144 0.47147 0.49627 0.0
H1341 H 0.92521 0.46471 0.53852 0.0
H1342 H 0.95882 0.48117 0.51467 0.0
H1343 H 0.99252 0.45347 0.53399 0.0
H1344 H 0.07949 0.48772 0.44429 0.0
H1345 H 0.04558 0.46991 0.46454 0.0
H1346 H 0.00565 0.49262 0.42583 0.0
C1347 C 0.95107 0.46525 0.51834 0.0
C1348 C 0.99536 0.46204 0.5104 0.0
C1349 C 0.93191 0.45583 0.53197 0.0
C1350 C 0.07038 0.49439 0.44037 0.0
C1351 C 0.05098 0.48436 0.45293 0.0
C1352 C 0.00316 0.48442 0.44975 0.0
C1353 C 0.96018 0.4542 0.50967 0.0
C1354 C 0.98022 0.46404 0.49466 0.0
C1355 C 0.03885 0.49296 0.4508 0.0
C1356 C 0.01853 0.48274 0.46568 0.0
H1357 H 0.92267 0.40817 0.52903 0.0
H1358 H 0.95657 0.42483 0.50737 0.0
H1359 H 0.97262 0.47681 0.45161 0.0
H1360 H 0.07119 0.53594 0.41024 0.0
H1361 H 0.0378 0.51898 0.43367 0.0
C1362 C 0.49565 0.55233 0.41148 0.0
C1363 C 0.49937 0.57164 0.41753 0.0
C1364 C 0.50653 0.54524 0.42905 0.0
C1365 C 0.55142 0.56064 0.48289 0.0
H1366 H 0.52067 0.50733 0.51947 0.0
C1367 C 0.58668 0.51974 0.55116 0.0
C1368 C 0.57646 0.50755 0.57947 0.0
C1369 C 0.57822 0.52875 0.53181 0.0
C1370 C 0.52943 0.52231 0.50976 0.0
H1371 H 0.51695 0.59856 0.44715 0.0
H1372 H 0.53597 0.58624 0.4778 0.0
H1373 H 0.50456 0.52066 0.48315 0.0
H1374 H 0.54959 0.49537 0.6101 0.0
H1375 H 0.53489 0.51145 0.57671 0.0
H1376 H 0.57617 0.56245 0.51041 0.0
C1377 C 0.52512 0.57676 0.45874 0.0
C1378 C 0.52027 0.52984 0.48845 0.0
C1379 C 0.5143 0.58386 0.44105 0.0
C1380 C 0.55779 0.50479 0.58846 0.0
C1381 C 0.54935 0.51387 0.56921 0.0
C1382 C 0.56058 0.55312 0.50432 0.0
C1383 C 0.5211 0.55725 0.45339 0.0
C1384 C 0.53115 0.54908 0.4748 0.0
C1385 C 0.55933 0.52567 0.5403 0.0
C1386 C 0.54965 0.5339 0.51805 0.0
H1387 H 0.48406 0.54261 0.39367 0.0
H1388 H 0.50327 0.53022 0.42405 0.0
H1389 H 0.56022 0.57548 0.47258 0.0
H1390 H 0.60077 0.52156 0.54282 0.0
H1391 H 0.58612 0.53745 0.50932 0.0
C1392 C 0.42858 0.93116 0.4902 0.0
C1393 C 0.42491 0.92763 0.45459 0.0
C1394 C 0.43363 0.94962 0.50411 0.0
C1395 C 0.43732 -0.0018 0.48218 0.0
H1396 H 0.47786 0.01752 0.55369 0.0
C1397 C 0.4962 0.07976 0.50826 0.0
C1398 C 0.49831 0.08633 0.5427 0.0
C1399 C 0.48316 0.05995 0.50016 0.0
C1400 C 0.4663 0.01218 0.53413 0.0
H1401 H 0.42338 0.94013 0.40539 0.0
H1402 H 0.43342 0.97284 0.42906 0.0
H1403 H 0.46299 0.98336 0.53435 0.0
H1404 H 0.48868 0.07772 0.59576 0.0
H1405 H 0.46626 0.04268 0.58167 0.0
H1406 H 0.44205 0.0278 0.48044 0.0
C1407 C 0.43165 0.96128 0.44673 0.0
C1408 C 0.45767 0.99257 0.52309 0.0
C1409 C 0.42609 0.94263 0.43302 0.0
C1410 C 0.48705 0.07294 0.56896 0.0
C1411 C 0.47432 0.053 0.56097 0.0
C1412 C 0.44632 0.01798 0.49274 0.0
C1413 C 0.43568 0.96508 0.48245 0.0
C1414 C 0.44329 0.98538 0.49655 0.0
C1415 C 0.47244 0.04639 0.52656 0.0
C1416 C 0.46105 0.02512 0.51844 0.0
H1417 H 0.42742 0.91959 0.5073 0.0
H1418 H 0.4361 0.95178 0.53181 0.0
H1419 H 0.42599 0.99311 0.46229 0.0
H1420 H 0.50479 0.08992 0.48769 0.0
H1421 H 0.48208 0.05504 0.47352 0.0
C1422 C 0.19111 0.01727 0.38304 0.0
C1423 C 0.17621 0.00648 0.35841 0.0
C1424 C 0.1906 0.00914 0.41557 0.0
C1425 C 0.18777 0.98807 0.48346 0.0
H1426 H 0.13466 0.96721 0.52032 0.0
C1427 C 0.16515 0.97247 0.63077 0.0
C1428 C 0.1554 0.98271 0.64142 0.0
C1429 C 0.16893 0.97139 0.59549 0.0
C1430 C 0.14952 0.97271 0.5103 0.0
H1431 H 0.15037 0.9779 0.34716 0.0
H1432 H 0.14964 0.96365 0.40377 0.0
H1433 H 0.13995 0.97152 0.45812 0.0
H1434 H 0.14233 8e-05 0.62343 0.0
H1435 H 0.14868 -0.00207 0.56245 0.0
H1436 H 0.1973 0.99035 0.53646 0.0
C1437 C 0.16142 0.97858 0.39826 0.0
C1438 C 0.15257 0.97503 0.47461 0.0
C1439 C 0.16185 0.98675 0.36581 0.0
C1440 C 0.14983 0.99205 0.61625 0.0
C1441 C 0.15333 0.99072 0.58125 0.0
C1442 C 0.18467 0.98563 0.51934 0.0
C1443 C 0.17524 0.99001 0.42405 0.0
C1444 C 0.17182 0.98347 0.46083 0.0
C1445 C 0.16268 0.98022 0.57049 0.0
C1446 C 0.16562 0.97872 0.53301 0.0
H1447 H 0.20251 0.03245 0.37806 0.0
H1448 H 0.20141 0.01842 0.43486 0.0
H1449 H 0.20274 0.99439 0.47356 0.0
H1450 H 0.16969 0.96519 0.6496 0.0
H1451 H 0.17627 0.96331 0.58767 0.0
C1452 C -0.00332 0.19241 0.63543 0.0
C1453 C 0.01611 0.19805 0.64546 0.0
C1454 C 0.99298 0.19774 0.60284 0.0
C1455 C 0.01829 0.22431 0.51992 0.0
H1456 H 0.97262 0.17895 0.47912 0.0
C1457 C 0.01292 0.19293 0.38259 0.0
C1458 C 0.99465 0.18484 0.36505 0.0
C1459 C 0.01523 0.20163 0.41526 0.0
C1460 C 0.98522 0.19197 0.49015 0.0
H1461 H 0.04705 0.21479 0.63058 0.0
H1462 H 0.04066 0.22292 0.57314 0.0
H1463 H 0.97656 0.18099 0.54133 0.0
H1464 H 0.96513 0.18129 0.36661 0.0
H1465 H 0.96913 0.19607 0.42394 0.0
H1466 H 0.02769 0.23405 0.46764 0.0
C1467 C 0.02818 0.21506 0.59045 0.0
C1468 C 0.98748 0.19325 0.52607 0.0
C1469 C 0.0319 0.21027 0.62346 0.0
C1470 C 0.97934 0.18716 0.37955 0.0
C1471 C 0.98159 0.19565 0.41234 0.0
C1472 C 0.01622 0.22275 0.48378 0.0
C1473 C 0.00858 0.20813 0.57908 0.0
C1474 C 0.00437 0.20911 0.54154 0.0
C1475 C -0.00073 0.20223 0.43103 0.0
C1476 C -8e-05 0.20627 0.46864 0.0
H1477 H 0.98428 0.18323 0.65224 0.0
H1478 H 0.97775 0.19278 0.5957 0.0
H1479 H 0.03123 0.23703 0.53074 0.0
H1480 H 0.02507 0.19156 0.372 0.0
H1481 H 0.02898 0.20649 0.42926 0.0
C1482 C 0.84008 0.8255 0.62142 0.0
C1483 C 0.8295 0.83531 0.62879 0.0
C1484 C 0.83802 0.81639 0.58921 0.0
C1485 C 0.81013 0.80506 0.50449 0.0
H1486 H 0.86128 0.81767 0.46666 0.0
C1487 C 0.84991 0.80927 0.36438 0.0
C1488 C 0.84777 0.82441 0.34876 0.0
C1489 C 0.84357 0.80348 0.39851 0.0
C1490 C 0.8468 0.81363 0.477 0.0
H1491 H 0.80759 0.84228 0.60907 0.0
H1492 H 0.80476 0.82748 0.55267 0.0
H1493 H 0.85788 0.82036 0.52869 0.0
H1494 H 0.8361 0.8443 0.3554 0.0
H1495 H 0.82452 0.83375 0.41466 0.0
H1496 H 0.79979 0.8003 0.45179 0.0
C1497 C 0.81422 0.82613 0.57177 0.0
C1498 C 0.84476 0.81508 0.51269 0.0
C1499 C 0.81597 0.83484 0.60418 0.0
C1500 C 0.83804 0.8327 0.36694 0.0
C1501 C 0.83128 0.82656 0.40067 0.0
C1502 C 0.81232 0.80407 0.46867 0.0
C1503 C 0.82568 0.81731 0.56339 0.0
C1504 C 0.82659 0.81156 0.52681 0.0
C1505 C 0.8345 0.81233 0.41705 0.0
C1506 C 0.83084 0.80897 0.45464 0.0
H1507 H 0.85039 0.82535 0.64016 0.0
H1508 H 0.84667 0.80927 0.58414 0.0
H1509 H 0.79576 0.80164 0.51443 0.0
H1510 H 0.8574 0.80267 0.3509 0.0
H1511 H 0.84629 0.79255 0.41081 0.0
C1512 C 0.84893 0.34167 0.9532 0.0
C1513 C 0.83762 0.32127 0.95996 0.0
C1514 C 0.85858 0.34843 0.92139 0.0
C1515 C 0.8615 0.35748 0.84527 0.0
H1516 H 0.87457 0.32597 0.78444 0.0
C1517 C 0.84636 0.33571 0.69771 0.0
C1518 C 0.85414 0.35433 0.68174 0.0
C1519 C 0.8522 0.33414 0.73123 0.0
C1520 C 0.87126 0.33508 0.8013 0.0
H1521 H 0.82839 0.29197 0.93963 0.0
H1522 H 0.84417 0.30358 0.88363 0.0
H1523 H 0.87124 0.31935 0.84677 0.0
H1524 H 0.87515 0.38575 0.68733 0.0
H1525 H 0.88491 0.38301 0.74654 0.0
H1526 H 0.86116 0.37291 0.79968 0.0
C1527 C 0.84625 0.31452 0.90301 0.0
C1528 C 0.86916 0.33121 0.83693 0.0
C1529 C 0.83699 0.30779 0.9351 0.0
C1530 C 0.86885 0.37121 0.69905 0.0
C1531 C 0.87444 0.36967 0.73287 0.0
C1532 C 0.86397 0.36157 0.80983 0.0
C1533 C 0.8567 0.33492 0.89532 0.0
C1534 C 0.86334 0.34175 0.85915 0.0
C1535 C 0.86572 0.35119 0.74957 0.0
C1536 C 0.86804 0.34988 0.78737 0.0
H1537 H 0.84996 0.3524 0.9722 0.0
H1538 H 0.86694 0.36426 0.91685 0.0
H1539 H 0.85676 0.3658 0.86119 0.0
H1540 H 0.83513 0.32243 0.68486 0.0
H1541 H 0.84511 0.31974 0.74365 0.0
C1542 C 0.70499 0.53227 0.96784 0.0
C1543 C 0.6893 0.51982 0.98979 0.0
C1544 C 0.70112 0.538 0.93576 0.0
C1545 C 0.65975 0.51983 0.87256 0.0
H1546 H 0.69922 0.56362 0.81799 0.0
C1547 C 0.64846 0.5217 0.72779 0.0
C1548 C 0.66335 0.52013 0.70986 0.0
C1549 C 0.65156 0.52861 0.76195 0.0
C1550 C 0.68796 0.5515 0.83312 0.0
H1551 H 0.65755 0.50521 -0.00251 0.0
H1552 H 0.65079 0.51633 0.94277 0.0
H1553 H 0.70397 0.56287 0.8806 0.0
H1554 H 0.69396 0.52681 0.71223 0.0
H1555 H 0.69935 0.53895 0.77183 0.0
H1556 H 0.64389 0.5084 0.82512 0.0
C1557 C 0.66602 0.5208 0.94908 0.0
C1558 C 0.69073 0.55091 0.86891 0.0
C1559 C 0.66985 0.51454 0.9806 0.0
C1560 C 0.6821 0.52761 0.72547 0.0
C1561 C 0.68525 0.53471 0.75953 0.0
C1562 C 0.65681 0.52066 0.83709 0.0
C1563 C 0.68149 0.53182 0.92543 0.0
C1564 C 0.67701 0.53466 0.88891 0.0
C1565 C 0.66969 0.53431 0.7786 0.0
C1566 C 0.67118 0.53611 0.81683 0.0
H1567 H 0.72014 0.53649 0.97444 0.0
H1568 H 0.71348 0.54627 0.91837 0.0
H1569 H 0.64897 0.50682 0.8865 0.0
H1570 H 0.63391 0.51627 0.71642 0.0
H1571 H 0.63939 0.52832 0.77608 0.0
C1572 C 0.49972 0.13967 0.70079 0.0
C1573 C 0.50135 0.15715 0.68704 0.0
C1574 C 0.49144 0.13297 0.7336 0.0
C1575 C 0.4939 0.13958 0.81245 0.0
H1576 H 0.44585 0.13572 0.8497 0.0
C1577 C 0.46883 0.16292 0.94425 0.0
C1578 C 0.48113 0.16016 0.96748 0.0
C1579 C 0.46561 0.15499 0.91083 0.0
C1580 C 0.45939 0.13685 0.83983 0.0
H1581 H 0.49401 0.18027 0.69538 0.0
H1582 H 0.47916 0.16828 0.75243 0.0
H1583 H 0.45055 0.13652 0.7869 0.0
H1584 H 0.49782 0.14508 0.97561 0.0
H1585 H 0.49115 0.13008 0.91809 0.0
H1586 H 0.50389 0.14197 0.86449 0.0
C1587 C 0.48446 0.15992 0.73794 0.0
C1588 C 0.46194 0.1371 0.80386 0.0
C1589 C 0.4931 0.16686 0.70545 0.0
C1590 C 0.48853 0.1477 0.95794 0.0
C1591 C 0.48484 0.13927 0.9248 0.0
C1592 C 0.49161 0.13984 0.84829 0.0
C1593 C 0.48423 0.14335 0.75279 0.0
C1594 C 0.47947 0.13903 0.78997 0.0
C1595 C 0.47425 0.1437 0.90012 0.0
C1596 C 0.47463 0.13918 0.86256 0.0
H1597 H 0.50591 0.13183 0.68719 0.0
H1598 H 0.49142 0.12017 0.74463 0.0
H1599 H 0.50767 0.14131 0.80231 0.0
H1600 H 0.46295 0.17251 0.9509 0.0
H1601 H 0.45754 0.159 0.89281 0.0
C1602 C 0.50905 0.64472 0.27483 0.0
C1603 C 0.50856 0.65858 0.29747 0.0
C1604 C 0.51925 0.65085 0.2434 0.0
C1605 C 0.54295 0.66603 0.17772 0.0
H1606 H 0.5353 0.70662 0.13446 0.0
C1607 C 0.54332 0.7025 0.0355 0.0
C1608 C 0.5284 0.6853 0.01926 0.0
C1609 C 0.54906 0.7017 0.06955 0.0
C1610 C 0.53802 0.69558 0.14629 0.0
H1611 H 0.52002 0.68986 0.30692 0.0
H1612 H 0.53879 0.70074 0.253 0.0
H1613 H 0.5302 0.7011 0.19622 0.0
H1614 H 0.50934 0.6535 0.02451 0.0
H1615 H 0.51959 0.65211 0.08375 0.0
H1616 H 0.54886 0.65942 0.12648 0.0
C1617 C 0.53051 0.68503 0.25852 0.0
C1618 C 0.53516 0.69241 0.18193 0.0
C1619 C 0.51986 0.67883 0.28957 0.0
C1620 C 0.52073 0.66703 0.03647 0.0
C1621 C 0.52672 0.6662 0.07029 0.0
C1622 C 0.54539 0.66895 0.14184 0.0
C1623 C 0.52958 0.67105 0.23424 0.0
C1624 C 0.53684 0.67708 0.198 0.0
C1625 C 0.54027 0.68365 0.08763 0.0
C1626 C 0.5423 0.68333 0.12573 0.0
H1627 H 0.50047 0.62899 0.28027 0.0
H1628 H 0.51788 0.63953 0.22547 0.0
H1629 H 0.54495 0.65447 0.18923 0.0
H1630 H 0.54957 0.71679 0.02287 0.0
H1631 H 0.55958 0.71534 0.08241 0.0
C1632 C 0.34793 0.85279 0.03003 0.0
C1633 C 0.3277 0.84211 0.02161 0.0
C1634 C 0.35415 0.86269 0.06179 0.0
C1635 C 0.33526 0.87361 0.14446 0.0
H1636 H 0.37613 0.86534 0.18507 0.0
C1637 C 0.37362 0.87431 0.285 0.0
C1638 C 0.35681 0.85924 0.30183 0.0
C1639 C 0.37221 0.87963 0.25091 0.0
C1640 C 0.36499 0.86818 0.17399 0.0
H1641 H 0.29817 0.83431 0.03865 0.0
H1642 H 0.3087 0.85036 0.09476 0.0
H1643 H 0.37011 0.86097 0.12329 0.0
H1644 H 0.32507 0.83933 0.29756 0.0
H1645 H 0.32259 0.84895 0.23831 0.0
H1646 H 0.32907 0.8789 0.19646 0.0
C1647 C 0.32003 0.85188 0.07671 0.0
C1648 C 0.36154 0.86577 0.13833 0.0
C1649 C 0.31389 0.8425 0.0445 0.0
C1650 C 0.3383 0.85087 0.28511 0.0
C1651 C 0.33684 0.85648 0.25132 0.0
C1652 C 0.33844 0.87556 0.18035 0.0
C1653 C 0.3402 0.86151 0.08637 0.0
C1654 C 0.3462 0.86782 0.12311 0.0
C1655 C 0.35391 0.87031 0.23346 0.0
C1656 C 0.35299 0.87234 0.19546 0.0
H1657 H 0.3589 0.85294 0.01251 0.0
H1658 H 0.36987 0.87053 0.06759 0.0
H1659 H 0.32369 0.87588 0.13374 0.0
H1660 H 0.38808 0.88103 0.29725 0.0
H1661 H 0.38557 0.89034 0.2376 0.0
C1662 C 0.1578 0.48497 0.2869 0.0
C1663 C 0.15114 0.49811 0.29596 0.0
C1664 C 0.15343 0.47593 0.25426 0.0
C1665 C 0.12699 0.47241 0.17004 0.0
H1666 H 0.17397 0.47447 0.13143 0.0
C1667 C 0.16612 0.47212 0.03093 0.0
C1668 C 0.16716 0.48909 0.01604 0.0
C1669 C 0.15782 0.46573 0.06385 0.0
C1670 C 0.16051 0.47335 0.14186 0.0
H1671 H 0.13366 0.51116 0.27909 0.0
H1672 H 0.12706 0.49653 0.22162 0.0
H1673 H 0.17138 0.4769 0.1935 0.0
H1674 H 0.1585 0.51141 0.02227 0.0
H1675 H 0.14379 0.50008 0.0795 0.0
H1676 H 0.11723 0.47079 0.11737 0.0
C1677 C 0.13506 0.49248 0.23975 0.0
C1678 C 0.15893 0.47466 0.17767 0.0
C1679 C 0.13896 0.50105 0.27275 0.0
C1680 C 0.1581 0.49841 0.03324 0.0
C1681 C 0.14952 0.49183 0.06587 0.0
C1682 C 0.1288 0.47152 0.13403 0.0
C1683 C 0.14289 0.48039 0.22953 0.0
C1684 C 0.14247 0.47491 0.19228 0.0
C1685 C 0.15009 0.47598 0.08209 0.0
C1686 C 0.14587 0.47258 0.11965 0.0
H1687 H 0.16697 0.48221 0.30461 0.0
H1688 H 0.15914 0.46617 0.24793 0.0
H1689 H 0.11382 0.47198 0.18024 0.0
H1690 H 0.17289 0.46455 0.01827 0.0
H1691 H 0.15836 0.45343 0.07581 0.0
C1692 C 0.19049 0.05487 0.12693 0.0
C1693 C 0.18825 0.03799 0.14406 0.0
C1694 C 0.1921 0.05623 0.0908 0.0
C1695 C 0.20038 0.03297 0.0128 0.0
H1696 H 0.16942 0.0527 0.96662 0.0
C1697 C 0.15839 0.02213 0.87467 0.0
C1698 C 0.17277 0.02281 0.85195 0.0
C1699 C 0.16316 0.0278 0.90928 0.0
C1700 C 0.17814 0.04714 0.97909 0.0
H1701 H 0.18607 0.00941 0.13747 0.0
H1702 H 0.18833 0.01141 0.07424 0.0
H1703 H 0.17254 0.0547 0.02948 0.0
H1704 H 0.20342 0.0304 0.84668 0.0
H1705 H 0.21203 0.04078 0.9073 0.0
H1706 H 0.20498 0.02433 0.96256 0.0
C1707 C 0.18939 0.02387 0.08854 0.0
C1708 C 0.18015 0.04851 0.01516 0.0
C1709 C 0.18794 0.02261 0.12467 0.0
C1710 C 0.19217 0.02987 0.86392 0.0
C1711 C 0.197 0.03563 0.89858 0.0
C1712 C 0.19826 0.03148 0.97674 0.0
C1713 C 0.19125 0.0406 0.0711 0.0
C1714 C 0.19095 0.04107 0.03253 0.0
C1715 C 0.18243 0.03429 0.92184 0.0
C1716 C 0.18675 0.03815 0.95953 0.0
H1717 H 0.19047 0.06678 0.14141 0.0
H1718 H 0.19373 0.0694 0.07828 0.0
H1719 H 0.20908 0.02739 0.02529 0.0
H1720 H 0.14324 0.01641 0.866 0.0
H1721 H 0.15147 0.02622 0.92652 0.0
C1722 C 0.99195 0.16971 0.13187 0.0
C1723 C 0.99356 0.15554 0.15176 0.0
C1724 C 0.99361 0.16979 0.09579 0.0
C1725 C 0.01062 0.14981 0.02398 0.0
H1726 H 0.98055 0.16701 0.96819 0.0
C1727 C 0.99205 0.15733 0.87027 0.0
C1728 C 0.01089 0.16352 0.85629 0.0
C1729 C 0.98893 0.15466 0.90608 0.0
C1730 C 0.98883 0.16184 0.98322 0.0
H1731 H -0.00237 0.13005 0.15017 0.0
H1732 H -0.00019 0.12959 0.08699 0.0
H1733 H 0.97655 0.165 0.03071 0.0
H1734 H 0.0411 0.17128 0.86842 0.0
H1735 H 0.03608 0.16785 0.93079 0.0
H1736 H 0.02217 0.14573 0.9764 0.0
C1737 C -0.00201 0.14114 0.09903 0.0
C1738 C 0.98682 0.16105 0.0193 0.0
C1739 C -0.00331 0.14132 0.1352 0.0
C1740 C 0.02649 0.16679 0.87861 0.0
C1741 C 0.02349 0.16448 0.91438 0.0
C1742 C 0.01237 0.15027 0.98788 0.0
C1743 C -0.00354 0.15539 0.0788 0.0
C1744 C -0.00209 0.15532 0.04023 0.0
C1745 C 0.00467 0.15842 0.92868 0.0
C1746 C 0.00174 0.1566 0.96701 0.0
H1747 H 0.98952 0.1808 0.1443 0.0
H1748 H 0.99279 0.18126 0.08131 0.0
H1749 H 0.01957 0.1455 0.0391 0.0
H1750 H 0.9798 0.15476 0.85353 0.0
H1751 H 0.97415 0.14965 0.91597 0.0
C1752 C 0.85016 0.88167 0.86121 0.0
C1753 C 0.83463 0.86492 0.84528 0.0
C1754 C 0.85109 0.88341 0.89728 0.0
C1755 C 0.82244 0.86149 0.97875 0.0
H1756 H 0.87504 0.88109 0.01726 0.0
C1757 C 0.86142 0.8544 0.11112 0.0
C1758 C 0.85032 0.85725 0.13676 0.0
C1759 C 0.85924 0.85774 0.07634 0.0
C1760 C 0.86023 0.87553 0.00697 0.0
H1761 H 0.80744 0.83726 0.85371 0.0
H1762 H 0.80935 0.83978 0.9171 0.0
H1763 H 0.87102 0.88196 0.95506 0.0
H1764 H 0.82865 0.86632 0.14669 0.0
H1765 H 0.82494 0.87251 0.08532 0.0
H1766 H 0.81165 0.85403 0.03088 0.0
C1767 C 0.82065 0.85182 0.90191 0.0
C1768 C 0.85793 0.87629 0.97123 0.0
C1769 C 0.8196 0.85024 0.86572 0.0
C1770 C 0.83727 0.86394 0.12718 0.0
C1771 C 0.83509 0.86735 0.09217 0.0
C1772 C 0.82474 0.86059 0.01462 0.0
C1773 C 0.83662 0.86827 0.91816 0.0
C1774 C 0.83899 0.86899 0.95655 0.0
C1775 C 0.84605 0.86423 0.06637 0.0
C1776 C 0.84364 0.86722 0.02901 0.0
H1777 H 0.86169 0.89334 0.84571 0.0
H1778 H 0.86332 0.89651 0.9088 0.0
H1779 H 0.80767 0.85602 0.96839 0.0
H1780 H 0.87181 0.84954 0.11797 0.0
H1781 H 0.86769 0.85488 0.05718 0.0
C1782 C 0.80763 0.29222 0.19807 0.0
C1783 C 0.82052 0.30809 0.17686 0.0
C1784 C 0.80943 0.29385 0.23415 0.0
C1785 C 0.80734 0.30524 0.30811 0.0
H1786 H 0.85803 0.33835 0.35294 0.0
C1787 C 0.81248 0.33217 0.44864 0.0
C1788 C 0.82855 0.33501 0.46914 0.0
C1789 C 0.81166 0.32729 0.4136 0.0
C1790 C 0.84376 0.32878 0.34103 0.0
H1791 H 0.84543 0.33802 0.17629 0.0
H1792 H 0.84808 0.34136 0.23927 0.0
H1793 H 0.8569 0.33212 0.29101 0.0
H1794 H 0.85615 0.33467 0.47005 0.0
H1795 H 0.85446 0.32531 0.40898 0.0
H1796 H 0.79425 0.30127 0.35828 0.0
C1797 C 0.83696 0.32736 0.22832 0.0
C1798 C 0.84308 0.32547 0.30529 0.0
C1799 C 0.83535 0.32557 0.19223 0.0
C1800 C 0.84364 0.33255 0.45445 0.0
C1801 C 0.84271 0.32736 0.41949 0.0
C1802 C 0.80804 0.3083 0.34391 0.0
C1803 C 0.82391 0.31157 0.2498 0.0
C1804 C 0.82483 0.31392 0.28824 0.0
C1805 C 0.82679 0.32487 0.39848 0.0
C1806 C 0.82622 0.3204 0.36077 0.0
H1807 H 0.79586 0.27868 0.18678 0.0
H1808 H 0.79933 0.28125 0.24972 0.0
H1809 H 0.79296 0.29647 0.29599 0.0
H1810 H 0.80081 0.33424 0.45955 0.0
H1811 H 0.79939 0.32593 0.39821 0.0
C1812 C 0.65539 0.47934 0.21169 0.0
C1813 C 0.67476 0.4856 0.20038 0.0
C1814 C 0.65095 0.47717 0.24719 0.0
C1815 C 0.67136 0.47395 0.33313 0.0
H1816 H 0.63668 0.49227 0.36841 0.0
C1817 C 0.65587 0.47247 0.47938 0.0
C1818 C 0.65458 0.48847 0.49301 0.0
C1819 C 0.65612 0.47001 0.44353 0.0
C1820 C 0.64654 0.48726 0.35905 0.0
H1821 H 0.70446 0.49361 0.21677 0.0
H1822 H 0.6971 0.49074 0.2784 0.0
H1823 H 0.64149 0.49175 0.30613 0.0
H1824 H 0.65219 0.51425 0.4806 0.0
H1825 H 0.65356 0.51061 0.4178 0.0
H1826 H 0.67743 0.47062 0.3859 0.0
C1827 C 0.68514 0.48714 0.26026 0.0
C1828 C 0.64904 0.48664 0.32322 0.0
C1829 C 0.68947 0.48909 0.22492 0.0
C1830 C 0.65329 0.50186 0.47042 0.0
C1831 C 0.65387 0.49961 0.43452 0.0
C1832 C 0.66909 0.47483 0.36889 0.0
C1833 C 0.66586 0.48128 0.27194 0.0
C1834 C 0.66173 0.48026 0.30982 0.0
C1835 C 0.65537 0.48368 0.42058 0.0
C1836 C 0.65683 0.48171 0.38238 0.0
H1837 H 0.64379 0.4765 0.19314 0.0
H1838 H 0.63588 0.47234 0.2552 0.0
H1839 H 0.68094 0.46857 0.32381 0.0
H1840 H 0.65647 0.46175 0.49649 0.0
H1841 H 0.6568 0.45731 0.43387 0.0
C1842 C 0.50839 0.20919 0.20108 0.0
C1843 C 0.50638 0.1926 0.18318 0.0
C1844 C 0.51025 0.21029 0.23718 0.0
C1845 C 0.5006 0.17841 0.31433 0.0
H1846 H 0.53389 0.22848 0.36093 0.0
C1847 C 0.53574 0.20786 0.45879 0.0
C1848 C 0.51936 0.19467 0.47869 0.0
C1849 C 0.53379 0.20915 0.42296 0.0
C1850 C 0.52461 0.21435 0.34834 0.0
H1851 H 0.50566 0.16461 0.18824 0.0
H1852 H 0.50955 0.16669 0.25137 0.0
H1853 H 0.53247 0.2273 0.29775 0.0
H1854 H 0.48801 0.17323 0.47786 0.0
H1855 H 0.48428 0.17597 0.41543 0.0
H1856 H 0.49336 0.16528 0.36468 0.0
C1857 C 0.50904 0.1786 0.23779 0.0
C1858 C 0.52362 0.21371 0.31208 0.0
C1859 C 0.507 0.17745 0.20169 0.0
C1860 C 0.5008 0.18352 0.46279 0.0
C1861 C 0.49877 0.18494 0.42706 0.0
C1862 C 0.5017 0.17902 0.3505 0.0
C1863 C 0.51042 0.19492 0.25605 0.0
C1864 C 0.51163 0.19571 0.29462 0.0
C1865 C 0.51536 0.19735 0.40652 0.0
C1866 C 0.51372 0.197 0.36801 0.0
H1867 H 0.50826 0.2212 0.18714 0.0
H1868 H 0.51112 0.22299 0.25031 0.0
H1869 H 0.49096 0.16433 0.30185 0.0
H1870 H 0.55024 0.2164 0.47068 0.0
H1871 H 0.54693 0.2187 0.408 0.0
C1872 C 0.51102 0.66997 0.78486 0.0
C1873 C 0.49585 0.66966 0.80486 0.0
C1874 C 0.50855 0.66657 0.74913 0.0
C1875 C 0.50525 0.67137 0.67228 0.0
H1876 H 0.45356 0.63631 0.63236 0.0
C1877 C 0.49249 0.66791 0.52454 0.0
C1878 C 0.4792 0.64948 0.50985 0.0
C1879 C 0.49407 0.67027 0.56056 0.0
C1880 C 0.46818 0.64598 0.643 0.0
H1881 H 0.46636 0.66585 0.80383 0.0
H1882 H 0.46217 0.66063 0.74123 0.0
H1883 H 0.45726 0.63933 0.69497 0.0
H1884 H 0.45674 0.6192 0.52096 0.0
H1885 H 0.46024 0.62288 0.58377 0.0
H1886 H 0.51638 0.67724 0.62045 0.0
C1887 C 0.47574 0.66278 0.75298 0.0
C1888 C 0.47024 0.64796 0.67903 0.0
C1889 C 0.47812 0.66583 0.78881 0.0
C1890 C 0.46737 0.63349 0.53173 0.0
C1891 C 0.46917 0.63572 0.56774 0.0
C1892 C 0.50325 0.66913 0.6363 0.0
C1893 C 0.49099 0.66323 0.73258 0.0
C1894 C 0.4888 0.66075 0.69419 0.0
C1895 C 0.48257 0.65415 0.58269 0.0
C1896 C 0.48467 0.65648 0.62111 0.0
H1897 H 0.52482 0.67292 0.79691 0.0
H1898 H 0.52045 0.66662 0.73454 0.0
H1899 H 0.51972 0.68163 0.68283 0.0
H1900 H 0.50173 0.68049 0.50813 0.0
H1901 H 0.50423 0.6848 0.57099 0.0
C1902 C 0.34196 0.82062 0.79604 0.0
C1903 C 0.32317 0.80864 0.81067 0.0
C1904 C 0.34436 0.82156 0.75998 0.0
C1905 C 0.31971 0.79599 0.67783 0.0
H1906 H 0.35262 0.84805 0.63767 0.0
C1907 C 0.33721 0.83879 0.53678 0.0
C1908 C 0.33922 0.82513 0.51597 0.0
C1909 C 0.3346 0.83588 0.5726 0.0
C1910 C 0.34322 0.83343 0.64844 0.0
H1911 H 0.29237 0.78753 0.79974 0.0
H1912 H 0.29637 0.78942 0.73684 0.0
H1913 H 0.34994 0.84439 0.70047 0.0
H1914 H 0.33986 0.79768 0.51565 0.0
H1915 H 0.33538 0.79255 0.57831 0.0
H1916 H 0.31253 0.78514 0.62573 0.0
C1917 C 0.30933 0.798 0.75293 0.0
C1918 C 0.34194 0.83128 0.68448 0.0
C1919 C 0.30698 0.79705 0.7889 0.0
C1920 C 0.33805 0.80825 0.53125 0.0
C1921 C 0.3355 0.80535 0.56709 0.0
C1922 C 0.32096 0.79815 0.64176 0.0
C1923 C 0.32799 0.81049 0.73798 0.0
C1924 C 0.3301 0.81256 0.69963 0.0
C1925 C 0.33406 0.8193 0.58827 0.0
C1926 C 0.33265 0.81691 0.62662 0.0
H1927 H 0.35465 0.82963 0.81244 0.0
H1928 H 0.35899 0.83108 0.74931 0.0
H1929 H 0.31061 0.78132 0.68864 0.0
H1930 H 0.33808 0.85191 0.52538 0.0
H1931 H 0.33317 0.84672 0.58805 0.0
C1932 C 0.16386 0.51214 0.53234 0.0
C1933 C 0.17827 0.52679 0.51094 0.0
C1934 C 0.16612 0.51351 0.5684 0.0
C1935 C 0.20391 0.53861 0.63746 0.0
H1936 H 0.15748 0.52025 0.69597 0.0
C1937 C 0.18098 0.53353 0.7925 0.0
C1938 C 0.19371 0.52725 0.80584 0.0
C1939 C 0.17986 0.53576 0.75664 0.0
C1940 C 0.17065 0.52573 0.68006 0.0
H1941 H 0.20611 0.55449 0.50989 0.0
H1942 H 0.20999 0.55721 0.57289 0.0
H1943 H 0.15387 0.5197 0.63318 0.0
H1944 H 0.21598 0.51942 0.79273 0.0
H1945 H 0.2136 0.52261 0.73044 0.0
H1946 H 0.22077 0.54511 0.6843 0.0
C1947 C 0.19717 0.54437 0.56206 0.0
C1948 C 0.16854 0.52511 0.64398 0.0
C1949 C 0.19497 0.54286 0.526 0.0
C1950 C 0.20579 0.52395 0.78299 0.0
C1951 C 0.20461 0.52605 0.7473 0.0
C1952 C 0.20605 0.53939 0.67351 0.0
C1953 C 0.18275 0.52972 0.58376 0.0
C1954 C 0.1851 0.53126 0.62219 0.0
C1955 C 0.19147 0.53176 0.73356 0.0
C1956 C 0.18941 0.53266 0.69529 0.0
H1957 H 0.15086 0.49963 0.52111 0.0
H1958 H 0.1549 0.50177 0.58419 0.0
H1959 H 0.21699 0.54333 0.62159 0.0
H1960 H 0.17158 0.53622 0.80971 0.0
H1961 H 0.1698 0.54048 0.74701 0.0
loop_
_geom_bond_atom_site_label_1
_geom_bond_atom_site_label_2
_geom_bond_distance
_geom_bond_site_symmetry_2
_ccdc_geom_bond_type
Co0 O3 1.970 1_545 S
Co0 N17 1.989 . S
Co0 O25 1.967 . S
Co0 O32 1.920 1_545 S
Co1 O4 1.966 . S
Co1 N10 2.022 . S
Co1 N18 1.993 . S
Co1 O26 1.941 . S
C2 O3 1.258 1_545 S
C2 O4 1.263 . S
O3 Co0 1.970 1_565 S
O3 C2 1.258 1_565 S
O4 Co1 1.966 . S
O4 C2 1.263 . S
C5 O6 1.235 . S
C5 O32 1.289 . S
O6 C5 1.235 . S
C7 C9 1.400 . S
C7 N10 1.351 . S
C7 C12 1.501 . S
C8 C9 1.387 . S
C8 N11 1.341 . S
C9 C7 1.400 . S
C9 C8 1.387 . S
N10 Co1 2.022 . S
N10 C7 1.351 . S
N10 N11 1.365 . S
N11 C8 1.341 . S
N11 N10 1.365 . S
N11 H31 0.862 . S
C12 C7 1.501 . S
C12 H13 0.961 . S
C12 H14 0.961 . S
C12 H15 0.960 . S
H13 C12 0.961 . S
H14 C12 0.961 . S
H15 C12 0.960 . S
C16 N17 1.342 1_565 S
C16 C20 1.403 1_565 S
C16 C21 1.499 . S
N17 Co0 1.989 . S
N17 C16 1.342 1_545 S
N17 N18 1.388 . S
N18 Co1 1.993 . S
N18 N17 1.388 . S
N18 C19 1.346 . S
C19 N18 1.346 . S
C19 C20 1.405 . S
C19 C29 1.510 . S
C20 C16 1.403 1_545 S
C20 C19 1.405 . S
C21 C16 1.499 . S
C21 H22 0.959 . S
C21 H23 0.960 . S
C21 H24 0.961 . S
H22 C21 0.959 . S
H23 C21 0.960 . S
H24 C21 0.961 . S
O25 Co0 1.967 . S
O25 C33 1.258 . S
O26 Co1 1.941 . S
O26 C33 1.266 . S
H27 C29 0.959 . S
H28 C29 0.961 . S
C29 C19 1.510 . S
C29 H27 0.959 . S
C29 H28 0.961 . S
C29 H30 0.960 . S
H30 C29 0.960 . S
H31 N11 0.862 . S
O32 Co0 1.920 1_565 S
O32 C5 1.289 . S
C33 O25 1.258 . S
C33 O26 1.266 . S
Co34 O37 1.970 . S
Co34 N51 1.989 . S
Co34 O59 1.967 1_455 S
Co34 O66 1.920 . S
Co35 O38 1.966 . S
Co35 N44 2.022 . S
Co35 N52 1.973 1_655 S
Co35 O60 1.941 . S
C36 O37 1.258 . S
C36 O38 1.263 1_455 S
O37 Co34 1.970 . S
O37 C36 1.258 . S
O38 Co35 1.966 . S
O38 C36 1.263 1_655 S
C39 O40 1.235 . S
C39 O66 1.289 . S
O40 C39 1.235 . S
C41 C43 1.400 . S
C41 N44 1.351 . S
C41 C46 1.501 . S
C42 C43 1.387 . S
C42 N45 1.341 . S
C43 C41 1.400 . S
C43 C42 1.387 . S
N44 Co35 2.022 . S
N44 C41 1.351 . S
N44 N45 1.365 . S
N45 C42 1.341 . S
N45 N44 1.365 . S
N45 H65 0.862 . S
C46 C41 1.501 . S
C46 H47 0.961 . S
C46 H48 0.961 . S
C46 H49 0.960 . S
H47 C46 0.961 . S
H48 C46 0.961 . S
H49 C46 0.960 . S
C50 N51 1.342 . S
C50 C54 1.401 . S
C50 C55 1.499 . S
N51 Co34 1.989 . S
N51 C50 1.342 . S
N51 N52 1.420 . S
N52 Co35 1.973 1_455 S
N52 N51 1.420 . S
N52 C53 1.341 . S
C53 N52 1.341 . S
C53 C54 1.396 . S
C53 C63 1.510 1_455 S
C54 C50 1.401 . S
C54 C53 1.396 . S
C55 C50 1.499 . S
C55 H56 0.959 . S
C55 H57 0.960 . S
C55 H58 0.961 . S
H56 C55 0.959 . S
H57 C55 0.960 . S
H58 C55 0.961 . S
O59 Co34 1.967 1_655 S
O59 C67 1.258 . S
O60 Co35 1.941 . S
O60 C67 1.266 . S
H61 C63 0.959 . S
H62 C63 0.961 . S
C63 C53 1.510 1_655 S
C63 H61 0.959 . S
C63 H62 0.961 . S
C63 H64 0.960 . S
H64 C63 0.960 . S
H65 N45 0.862 . S
O66 Co34 1.920 . S
O66 C39 1.289 . S
C67 O59 1.258 . S
C67 O60 1.266 . S
Co68 O71 1.970 . S
Co68 N85 1.989 . S
Co68 O93 1.967 . S
Co68 O100 1.920 . S
Co69 O72 1.966 . S
Co69 N78 2.022 . S
Co69 N86 1.993 . S
Co69 O94 1.941 . S
C70 O71 1.258 . S
C70 O72 1.263 . S
O71 Co68 1.970 . S
O71 C70 1.258 . S
O72 Co69 1.966 . S
O72 C70 1.263 . S
C73 O74 1.235 . S
C73 O100 1.289 . S
O74 C73 1.235 . S
C75 C77 1.400 . S
C75 N78 1.351 . S
C75 C80 1.501 . S
C76 C77 1.387 . S
C76 N79 1.341 . S
C77 C75 1.400 . S
C77 C76 1.387 . S
N78 Co69 2.022 . S
N78 C75 1.351 . S
N78 N79 1.365 . S
N79 C76 1.341 . S
N79 N78 1.365 . S
N79 H99 0.862 . S
C80 C75 1.501 . S
C80 H81 0.961 . S
C80 H82 0.961 . S
C80 H83 0.960 . S
H81 C80 0.961 . S
H82 C80 0.961 . S
H83 C80 0.960 . S
C84 N85 1.342 . S
C84 C88 1.401 . S
C84 C89 1.499 . S
N85 Co68 1.989 . S
N85 C84 1.342 . S
N85 N86 1.388 . S
N86 Co69 1.993 . S
N86 N85 1.388 . S
N86 C87 1.346 . S
C87 N86 1.346 . S
C87 C88 1.396 . S
C87 C97 1.510 . S
C88 C84 1.401 . S
C88 C87 1.396 . S
C89 C84 1.499 . S
C89 H90 0.959 . S
C89 H91 0.960 . S
C89 H92 0.961 . S
H90 C89 0.959 . S
H91 C89 0.960 . S
H92 C89 0.961 . S
O93 Co68 1.967 . S
O93 C101 1.258 . S
O94 Co69 1.941 . S
O94 C101 1.266 . S
H95 C97 0.959 . S
H96 C97 0.961 . S
C97 C87 1.510 . S
C97 H95 0.959 . S
C97 H96 0.961 . S
C97 H98 0.960 . S
H98 C97 0.960 . S
H99 N79 0.862 . S
O100 Co68 1.920 . S
O100 C73 1.289 . S
C101 O93 1.258 . S
C101 O94 1.266 . S
Co102 O105 1.970 1_455 S
Co102 N119 1.989 . S
Co102 O127 1.967 . S
Co102 O134 1.920 1_455 S
Co103 O106 1.966 . S
Co103 N112 2.022 . S
Co103 N120 1.993 . S
Co103 O128 1.941 . S
C104 O105 1.258 1_455 S
C104 O106 1.263 . S
O105 Co102 1.970 1_655 S
O105 C104 1.258 1_655 S
O106 Co103 1.966 . S
O106 C104 1.263 . S
C107 O108 1.235 . S
C107 O134 1.289 . S
O108 C107 1.235 . S
C109 C111 1.400 . S
C109 N112 1.351 . S
C109 C114 1.501 . S
C110 C111 1.387 . S
C110 N113 1.341 . S
C111 C109 1.400 . S
C111 C110 1.387 . S
N112 Co103 2.022 . S
N112 C109 1.351 . S
N112 N113 1.365 . S
N113 C110 1.341 . S
N113 N112 1.365 . S
N113 H133 0.862 . S
C114 C109 1.501 . S
C114 H115 0.961 . S
C114 H116 0.961 . S
C114 H117 0.960 . S
H115 C114 0.961 . S
H116 C114 0.961 . S
H117 C114 0.960 . S
C118 N119 1.342 1_655 S
C118 C122 1.403 1_655 S
C118 C123 1.499 . S
N119 Co102 1.989 . S
N119 C118 1.342 1_455 S
N119 N120 1.388 . S
N120 Co103 1.993 . S
N120 N119 1.388 . S
N120 C121 1.346 . S
C121 N120 1.346 . S
C121 C122 1.405 . S
C121 C131 1.510 . S
C122 C118 1.403 1_455 S
C122 C121 1.405 . S
C123 C118 1.499 . S
C123 H124 0.959 . S
C123 H125 0.960 . S
C123 H126 0.961 . S
H124 C123 0.959 . S
H125 C123 0.960 . S
H126 C123 0.961 . S
O127 Co102 1.967 . S
O127 C135 1.258 . S
O128 Co103 1.941 . S
O128 C135 1.266 . S
H129 C131 0.959 . S
H130 C131 0.961 . S
C131 C121 1.510 . S
C131 H129 0.959 . S
C131 H130 0.961 . S
C131 H132 0.960 . S
H132 C131 0.960 . S
H133 N113 0.862 . S
O134 Co102 1.920 1_655 S
O134 C107 1.289 . S
C135 O127 1.258 . S
C135 O128 1.266 . S
Co136 O139 1.970 . S
Co136 N153 1.989 . S
Co136 O161 1.967 . S
Co136 O168 1.920 . S
Co137 O140 1.966 . S
Co137 N146 2.022 . S
Co137 N154 1.993 . S
Co137 O162 1.941 . S
C138 O139 1.258 . S
C138 O140 1.263 . S
O139 Co136 1.970 . S
O139 C138 1.258 . S
O140 Co137 1.966 . S
O140 C138 1.263 . S
C141 O142 1.235 . S
C141 O168 1.289 . S
O142 C141 1.235 . S
C143 C145 1.400 . S
C143 N146 1.351 . S
C143 C148 1.501 . S
C144 C145 1.387 . S
C144 N147 1.341 . S
C145 C143 1.400 . S
C145 C144 1.387 . S
N146 Co137 2.022 . S
N146 C143 1.351 . S
N146 N147 1.365 . S
N147 C144 1.341 . S
N147 N146 1.365 . S
N147 H167 0.862 . S
C148 C143 1.501 . S
C148 H149 0.961 . S
C148 H150 0.961 . S
C148 H151 0.960 . S
H149 C148 0.961 . S
H150 C148 0.961 . S
H151 C148 0.960 . S
C152 N153 1.342 . S
C152 C156 1.401 . S
C152 C157 1.499 . S
N153 Co136 1.989 . S
N153 C152 1.342 . S
N153 N154 1.388 . S
N154 Co137 1.993 . S
N154 N153 1.388 . S
N154 C155 1.346 . S
C155 N154 1.346 . S
C155 C156 1.396 . S
C155 C165 1.510 . S
C156 C152 1.401 . S
C156 C155 1.396 . S
C157 C152 1.499 . S
C157 H158 0.959 . S
C157 H159 0.960 . S
C157 H160 0.961 . S
H158 C157 0.959 . S
H159 C157 0.960 . S
H160 C157 0.961 . S
O161 Co136 1.967 . S
O161 C169 1.258 . S
O162 Co137 1.941 . S
O162 C169 1.266 . S
H163 C165 0.959 . S
H164 C165 0.961 . S
C165 C155 1.510 . S
C165 H163 0.959 . S
C165 H164 0.961 . S
C165 H166 0.960 . S
H166 C165 0.960 . S
H167 N147 0.862 . S
O168 Co136 1.920 . S
O168 C141 1.289 . S
C169 O161 1.258 . S
C169 O162 1.266 . S
Co170 O173 1.970 . S
Co170 N187 1.989 . S
Co170 O195 1.967 1_545 S
Co170 O202 1.920 . S
Co171 O174 1.966 . S
Co171 N180 2.022 . S
Co171 N188 1.973 1_565 S
Co171 O196 1.941 . S
C172 O173 1.258 . S
C172 O174 1.263 1_545 S
O173 Co170 1.970 . S
O173 C172 1.258 . S
O174 Co171 1.966 . S
O174 C172 1.263 1_565 S
C175 O176 1.235 . S
C175 O202 1.289 . S
O176 C175 1.235 . S
C177 C179 1.400 . S
C177 N180 1.351 . S
C177 C182 1.501 . S
C178 C179 1.387 . S
C178 N181 1.341 . S
C179 C177 1.400 . S
C179 C178 1.387 . S
N180 Co171 2.022 . S
N180 C177 1.351 . S
N180 N181 1.365 . S
N181 C178 1.341 . S
N181 N180 1.365 . S
N181 H201 0.862 . S
C182 C177 1.501 . S
C182 H183 0.961 . S
C182 H184 0.961 . S
C182 H185 0.960 . S
H183 C182 0.961 . S
H184 C182 0.961 . S
H185 C182 0.960 . S
C186 N187 1.342 . S
C186 C190 1.401 . S
C186 C191 1.499 . S
N187 Co170 1.989 . S
N187 C186 1.342 . S
N187 N188 1.420 . S
N188 Co171 1.973 1_545 S
N188 N187 1.420 . S
N188 C189 1.341 . S
C189 N188 1.341 . S
C189 C190 1.396 . S
C189 C199 1.510 1_545 S
C190 C186 1.401 . S
C190 C189 1.396 . S
C191 C186 1.499 . S
C191 H192 0.959 . S
C191 H193 0.960 . S
C191 H194 0.961 . S
H192 C191 0.959 . S
H193 C191 0.960 . S
H194 C191 0.961 . S
O195 Co170 1.967 1_565 S
O195 C203 1.258 . S
O196 Co171 1.941 . S
O196 C203 1.266 . S
H197 C199 0.959 . S
H198 C199 0.961 . S
C199 C189 1.510 1_565 S
C199 H197 0.959 . S
C199 H198 0.961 . S
C199 H200 0.960 . S
H200 C199 0.960 . S
H201 N181 0.862 . S
O202 Co170 1.920 . S
O202 C175 1.289 . S
C203 O195 1.258 . S
C203 O196 1.266 . S
Co204 O207 1.970 . S
Co204 N221 1.989 . S
Co204 O229 1.967 . S
Co204 O236 1.920 . S
Co205 O208 1.966 . S
Co205 N214 2.022 . S
Co205 N222 1.993 . S
Co205 O230 1.941 . S
C206 O207 1.258 . S
C206 O208 1.263 . S
O207 Co204 1.970 . S
O207 C206 1.258 . S
O208 Co205 1.966 . S
O208 C206 1.263 . S
C209 O210 1.235 . S
C209 O236 1.289 . S
O210 C209 1.235 . S
C211 C213 1.400 . S
C211 N214 1.351 . S
C211 C216 1.501 . S
C212 C213 1.387 . S
C212 N215 1.341 . S
C213 C211 1.400 . S
C213 C212 1.387 . S
N214 Co205 2.022 . S
N214 C211 1.351 . S
N214 N215 1.365 . S
N215 C212 1.341 . S
N215 N214 1.365 . S
N215 H235 0.862 . S
C216 C211 1.501 . S
C216 H217 0.961 . S
C216 H218 0.961 . S
C216 H219 0.960 . S
H217 C216 0.961 . S
H218 C216 0.961 . S
H219 C216 0.960 . S
C220 N221 1.342 . S
C220 C224 1.401 . S
C220 C225 1.499 . S
N221 Co204 1.989 . S
N221 C220 1.342 . S
N221 N222 1.388 . S
N222 Co205 1.993 . S
N222 N221 1.388 . S
N222 C223 1.346 . S
C223 N222 1.346 . S
C223 C224 1.396 . S
C223 C233 1.510 . S
C224 C220 1.401 . S
C224 C223 1.396 . S
C225 C220 1.499 . S
C225 H226 0.959 . S
C225 H227 0.960 . S
C225 H228 0.961 . S
H226 C225 0.959 . S
H227 C225 0.960 . S
H228 C225 0.961 . S
O229 Co204 1.967 . S
O229 C237 1.258 . S
O230 Co205 1.941 . S
O230 C237 1.266 . S
H231 C233 0.959 . S
H232 C233 0.961 . S
C233 C223 1.510 . S
C233 H231 0.959 . S
C233 H232 0.961 . S
C233 H234 0.960 . S
H234 C233 0.960 . S
H235 N215 0.862 . S
O236 Co204 1.920 . S
O236 C209 1.289 . S
C237 O229 1.258 . S
C237 O230 1.266 . S
Co238 O241 1.970 . S
Co238 N255 1.989 . S
Co238 O263 1.967 . S
Co238 O270 1.920 . S
Co239 O242 1.966 . S
Co239 N248 2.022 . S
Co239 N256 1.993 . S
Co239 O264 1.941 . S
C240 O241 1.258 . S
C240 O242 1.263 . S
O241 Co238 1.970 . S
O241 C240 1.258 . S
O242 Co239 1.966 . S
O242 C240 1.263 . S
C243 O244 1.235 . S
C243 O270 1.289 . S
O244 C243 1.235 . S
C245 C247 1.400 . S
C245 N248 1.351 . S
C245 C250 1.501 . S
C246 C247 1.387 . S
C246 N249 1.341 . S
C247 C245 1.400 . S
C247 C246 1.387 . S
N248 Co239 2.022 . S
N248 C245 1.351 . S
N248 N249 1.365 . S
N249 C246 1.341 . S
N249 N248 1.365 . S
N249 H269 0.862 . S
C250 C245 1.501 . S
C250 H251 0.961 . S
C250 H252 0.961 . S
C250 H253 0.960 . S
H251 C250 0.961 . S
H252 C250 0.961 . S
H253 C250 0.960 . S
C254 N255 1.342 . S
C254 C258 1.401 . S
C254 C259 1.499 . S
N255 Co238 1.989 . S
N255 C254 1.342 . S
N255 N256 1.388 . S
N256 Co239 1.993 . S
N256 N255 1.388 . S
N256 C257 1.346 . S
C257 N256 1.346 . S
C257 C258 1.396 . S
C257 C267 1.510 . S
C258 C254 1.401 . S
C258 C257 1.396 . S
C259 C254 1.499 . S
C259 H260 0.959 . S
C259 H261 0.960 . S
C259 H262 0.961 . S
H260 C259 0.959 . S
H261 C259 0.960 . S
H262 C259 0.961 . S
O263 Co238 1.967 . S
O263 C271 1.258 . S
O264 Co239 1.941 . S
O264 C271 1.266 . S
H265 C267 0.959 . S
H266 C267 0.961 . S
C267 C257 1.510 . S
C267 H265 0.959 . S
C267 H266 0.961 . S
C267 H268 0.960 . S
H268 C267 0.960 . S
H269 N249 0.862 . S
O270 Co238 1.920 . S
O270 C243 1.289 . S
C271 O263 1.258 . S
C271 O264 1.266 . S
Co272 O275 1.970 . S
Co272 N289 1.989 . S
Co272 O297 1.967 . S
Co272 O304 1.920 . S
Co273 O276 1.966 . S
Co273 N282 2.022 . S
Co273 N290 1.993 . S
Co273 O298 1.941 . S
C274 O275 1.258 . S
C274 O276 1.263 . S
O275 Co272 1.970 . S
O275 C274 1.258 . S
O276 Co273 1.966 . S
O276 C274 1.263 . S
C277 O278 1.235 . S
C277 O304 1.289 . S
O278 C277 1.235 . S
C279 C281 1.400 . S
C279 N282 1.351 . S
C279 C284 1.501 . S
C280 C281 1.387 . S
C280 N283 1.341 . S
C281 C279 1.400 . S
C281 C280 1.387 . S
N282 Co273 2.022 . S
N282 C279 1.351 . S
N282 N283 1.365 . S
N283 C280 1.341 . S
N283 N282 1.365 . S
N283 H303 0.862 . S
C284 C279 1.501 . S
C284 H285 0.961 . S
C284 H286 0.961 . S
C284 H287 0.960 . S
H285 C284 0.961 . S
H286 C284 0.961 . S
H287 C284 0.960 . S
C288 N289 1.342 . S
C288 C292 1.401 . S
C288 C293 1.499 . S
N289 Co272 1.989 . S
N289 C288 1.342 . S
N289 N290 1.388 . S
N290 Co273 1.993 . S
N290 N289 1.388 . S
N290 C291 1.346 . S
C291 N290 1.346 . S
C291 C292 1.396 . S
C291 C301 1.510 . S
C292 C288 1.401 . S
C292 C291 1.396 . S
C293 C288 1.499 . S
C293 H294 0.959 . S
C293 H295 0.960 . S
C293 H296 0.961 . S
H294 C293 0.959 . S
H295 C293 0.960 . S
H296 C293 0.961 . S
O297 Co272 1.967 . S
O297 C305 1.258 . S
O298 Co273 1.941 . S
O298 C305 1.266 . S
H299 C301 0.959 . S
H300 C301 0.961 . S
C301 C291 1.510 . S
C301 H299 0.959 . S
C301 H300 0.961 . S
C301 H302 0.960 . S
H302 C301 0.960 . S
H303 N283 0.862 . S
O304 Co272 1.920 . S
O304 C277 1.289 . S
C305 O297 1.258 . S
C305 O298 1.266 . S
Co306 O309 1.970 . S
Co306 N323 1.989 . S
Co306 O331 1.967 . S
Co306 O338 1.920 . S
Co307 O310 1.966 . S
Co307 N316 2.022 . S
Co307 N324 1.993 . S
Co307 O332 1.941 . S
C308 O309 1.258 . S
C308 O310 1.263 . S
O309 Co306 1.970 . S
O309 C308 1.258 . S
O310 Co307 1.966 . S
O310 C308 1.263 . S
C311 O312 1.235 . S
C311 O338 1.289 . S
O312 C311 1.235 . S
C313 C315 1.400 . S
C313 N316 1.351 . S
C313 C318 1.501 . S
C314 C315 1.387 . S
C314 N317 1.341 . S
C315 C313 1.400 . S
C315 C314 1.387 . S
N316 Co307 2.022 . S
N316 C313 1.351 . S
N316 N317 1.365 . S
N317 C314 1.341 . S
N317 N316 1.365 . S
N317 H337 0.862 . S
C318 C313 1.501 . S
C318 H319 0.961 . S
C318 H320 0.961 . S
C318 H321 0.960 . S
H319 C318 0.961 . S
H320 C318 0.961 . S
H321 C318 0.960 . S
C322 N323 1.342 . S
C322 C326 1.401 . S
C322 C327 1.499 . S
N323 Co306 1.989 . S
N323 C322 1.342 . S
N323 N324 1.388 . S
N324 Co307 1.993 . S
N324 N323 1.388 . S
N324 C325 1.346 . S
C325 N324 1.346 . S
C325 C326 1.396 . S
C325 C335 1.510 . S
C326 C322 1.401 . S
C326 C325 1.396 . S
C327 C322 1.499 . S
C327 H328 0.959 . S
C327 H329 0.960 . S
C327 H330 0.961 . S
H328 C327 0.959 . S
H329 C327 0.960 . S
H330 C327 0.961 . S
O331 Co306 1.967 . S
O331 C339 1.258 . S
O332 Co307 1.941 . S
O332 C339 1.266 . S
H333 C335 0.959 . S
H334 C335 0.961 . S
C335 C325 1.510 . S
C335 H333 0.959 . S
C335 H334 0.961 . S
C335 H336 0.960 . S
H336 C335 0.960 . S
H337 N317 0.862 . S
O338 Co306 1.920 . S
O338 C311 1.289 . S
C339 O331 1.258 . S
C339 O332 1.266 . S
Co340 O343 1.970 . S
Co340 N357 1.989 . S
Co340 O365 1.967 . S
Co340 O372 1.920 . S
Co341 O344 1.966 . S
Co341 N350 2.022 . S
Co341 N358 1.993 . S
Co341 O366 1.941 . S
C342 O343 1.258 . S
C342 O344 1.263 . S
O343 Co340 1.970 . S
O343 C342 1.258 . S
O344 Co341 1.966 . S
O344 C342 1.263 . S
C345 O346 1.235 . S
C345 O372 1.289 . S
O346 C345 1.235 . S
C347 C349 1.400 . S
C347 N350 1.351 . S
C347 C352 1.501 . S
C348 C349 1.387 . S
C348 N351 1.341 . S
C349 C347 1.400 . S
C349 C348 1.387 . S
N350 Co341 2.022 . S
N350 C347 1.351 . S
N350 N351 1.365 . S
N351 C348 1.341 . S
N351 N350 1.365 . S
N351 H371 0.862 . S
C352 C347 1.501 . S
C352 H353 0.961 . S
C352 H354 0.961 . S
C352 H355 0.960 . S
H353 C352 0.961 . S
H354 C352 0.961 . S
H355 C352 0.960 . S
C356 N357 1.342 . S
C356 C360 1.401 . S
C356 C361 1.499 . S
N357 Co340 1.989 . S
N357 C356 1.342 . S
N357 N358 1.388 . S
N358 Co341 1.993 . S
N358 N357 1.388 . S
N358 C359 1.346 . S
C359 N358 1.346 . S
C359 C360 1.396 . S
C359 C369 1.510 . S
C360 C356 1.401 . S
C360 C359 1.396 . S
C361 C356 1.499 . S
C361 H362 0.959 . S
C361 H363 0.960 . S
C361 H364 0.961 . S
H362 C361 0.959 . S
H363 C361 0.960 . S
H364 C361 0.961 . S
O365 Co340 1.967 . S
O365 C373 1.258 . S
O366 Co341 1.941 . S
O366 C373 1.266 . S
H367 C369 0.959 . S
H368 C369 0.961 . S
C369 C359 1.510 . S
C369 H367 0.959 . S
C369 H368 0.961 . S
C369 H370 0.960 . S
H370 C369 0.960 . S
H371 N351 0.862 . S
O372 Co340 1.920 . S
O372 C345 1.289 . S
C373 O365 1.258 . S
C373 O366 1.266 . S
Co374 O377 1.970 . S
Co374 N391 1.989 . S
Co374 O399 1.967 . S
Co374 O406 1.920 . S
Co375 O378 1.966 . S
Co375 N384 2.022 . S
Co375 N392 1.993 . S
Co375 O400 1.941 . S
C376 O377 1.258 . S
C376 O378 1.263 . S
O377 Co374 1.970 . S
O377 C376 1.258 . S
O378 Co375 1.966 . S
O378 C376 1.263 . S
C379 O380 1.235 . S
C379 O406 1.289 . S
O380 C379 1.235 . S
C381 C383 1.400 . S
C381 N384 1.351 . S
C381 C386 1.501 . S
C382 C383 1.387 . S
C382 N385 1.341 . S
C383 C381 1.400 . S
C383 C382 1.387 . S
N384 Co375 2.022 . S
N384 C381 1.351 . S
N384 N385 1.365 . S
N385 C382 1.341 . S
N385 N384 1.365 . S
N385 H405 0.862 . S
C386 C381 1.501 . S
C386 H387 0.961 . S
C386 H388 0.961 . S
C386 H389 0.960 . S
H387 C386 0.961 . S
H388 C386 0.961 . S
H389 C386 0.960 . S
C390 N391 1.342 . S
C390 C394 1.401 . S
C390 C395 1.499 . S
N391 Co374 1.989 . S
N391 C390 1.342 . S
N391 N392 1.388 . S
N392 Co375 1.993 . S
N392 N391 1.388 . S
N392 C393 1.346 . S
C393 N392 1.346 . S
C393 C394 1.396 . S
C393 C403 1.510 . S
C394 C390 1.401 . S
C394 C393 1.396 . S
C395 C390 1.499 . S
C395 H396 0.959 . S
C395 H397 0.960 . S
C395 H398 0.961 . S
H396 C395 0.959 . S
H397 C395 0.960 . S
H398 C395 0.961 . S
O399 Co374 1.967 . S
O399 C407 1.258 . S
O400 Co375 1.941 . S
O400 C407 1.266 . S
H401 C403 0.959 . S
H402 C403 0.961 . S
C403 C393 1.510 . S
C403 H401 0.959 . S
C403 H402 0.961 . S
C403 H404 0.960 . S
H404 C403 0.960 . S
H405 N385 0.862 . S
O406 Co374 1.920 . S
O406 C379 1.289 . S
C407 O399 1.258 . S
C407 O400 1.266 . S
Co408 O411 1.970 . S
Co408 N425 1.989 . S
Co408 O433 1.967 . S
Co408 O440 1.920 . S
Co409 O412 1.966 . S
Co409 N418 2.022 . S
Co409 N426 1.993 . S
Co409 O434 1.941 . S
C410 O411 1.258 . S
C410 O412 1.263 . S
O411 Co408 1.970 . S
O411 C410 1.258 . S
O412 Co409 1.966 . S
O412 C410 1.263 . S
C413 O414 1.235 . S
C413 O440 1.289 . S
O414 C413 1.235 . S
C415 C417 1.400 . S
C415 N418 1.351 . S
C415 C420 1.501 . S
C416 C417 1.387 . S
C416 N419 1.341 . S
C417 C415 1.400 . S
C417 C416 1.387 . S
N418 Co409 2.022 . S
N418 C415 1.351 . S
N418 N419 1.365 . S
N419 C416 1.341 . S
N419 N418 1.365 . S
N419 H439 0.862 . S
C420 C415 1.501 . S
C420 H421 0.961 . S
C420 H422 0.961 . S
C420 H423 0.960 . S
H421 C420 0.961 . S
H422 C420 0.961 . S
H423 C420 0.960 . S
C424 N425 1.342 . S
C424 C428 1.401 . S
C424 C429 1.499 . S
N425 Co408 1.989 . S
N425 C424 1.342 . S
N425 N426 1.388 . S
N426 Co409 1.993 . S
N426 N425 1.388 . S
N426 C427 1.346 . S
C427 N426 1.346 . S
C427 C428 1.396 . S
C427 C437 1.510 . S
C428 C424 1.401 . S
C428 C427 1.396 . S
C429 C424 1.499 . S
C429 H430 0.959 . S
C429 H431 0.960 . S
C429 H432 0.961 . S
H430 C429 0.959 . S
H431 C429 0.960 . S
H432 C429 0.961 . S
O433 Co408 1.967 . S
O433 C441 1.258 . S
O434 Co409 1.941 . S
O434 C441 1.266 . S
H435 C437 0.959 . S
H436 C437 0.961 . S
C437 C427 1.510 . S
C437 H435 0.959 . S
C437 H436 0.961 . S
C437 H438 0.960 . S
H438 C437 0.960 . S
H439 N419 0.862 . S
O440 Co408 1.920 . S
O440 C413 1.289 . S
C441 O433 1.258 . S
C441 O434 1.266 . S
Co442 O445 1.970 . S
Co442 N459 1.989 . S
Co442 O467 1.967 . S
Co442 O474 1.920 . S
Co443 O446 1.966 . S
Co443 N452 2.022 . S
Co443 N460 1.993 . S
Co443 O468 1.941 . S
C444 O445 1.258 . S
C444 O446 1.263 . S
O445 Co442 1.970 . S
O445 C444 1.258 . S
O446 Co443 1.966 . S
O446 C444 1.263 . S
C447 O448 1.235 . S
C447 O474 1.289 . S
O448 C447 1.235 . S
C449 C451 1.400 . S
C449 N452 1.351 . S
C449 C454 1.501 . S
C450 C451 1.387 . S
C450 N453 1.341 . S
C451 C449 1.400 . S
C451 C450 1.387 . S
N452 Co443 2.022 . S
N452 C449 1.351 . S
N452 N453 1.365 . S
N453 C450 1.341 . S
N453 N452 1.365 . S
N453 H473 0.862 . S
C454 C449 1.501 . S
C454 H455 0.961 . S
C454 H456 0.961 . S
C454 H457 0.960 . S
H455 C454 0.961 . S
H456 C454 0.961 . S
H457 C454 0.960 . S
C458 N459 1.342 . S
C458 C462 1.401 . S
C458 C463 1.499 . S
N459 Co442 1.989 . S
N459 C458 1.342 . S
N459 N460 1.388 . S
N460 Co443 1.993 . S
N460 N459 1.388 . S
N460 C461 1.346 . S
C461 N460 1.346 . S
C461 C462 1.396 . S
C461 C471 1.510 . S
C462 C458 1.401 . S
C462 C461 1.396 . S
C463 C458 1.499 . S
C463 H464 0.959 . S
C463 H465 0.960 . S
C463 H466 0.961 . S
H464 C463 0.959 . S
H465 C463 0.960 . S
H466 C463 0.961 . S
O467 Co442 1.967 . S
O467 C475 1.258 . S
O468 Co443 1.941 . S
O468 C475 1.266 . S
H469 C471 0.959 . S
H470 C471 0.961 . S
C471 C461 1.510 . S
C471 H469 0.959 . S
C471 H470 0.961 . S
C471 H472 0.960 . S
H472 C471 0.960 . S
H473 N453 0.862 . S
O474 Co442 1.920 . S
O474 C447 1.289 . S
C475 O467 1.258 . S
C475 O468 1.266 . S
Co476 O479 1.970 . S
Co476 N493 1.989 . S
Co476 O501 1.967 . S
Co476 O508 1.920 . S
Co477 O480 1.966 . S
Co477 N486 2.022 . S
Co477 N494 1.993 . S
Co477 O502 1.941 . S
C478 O479 1.258 . S
C478 O480 1.263 . S
O479 Co476 1.970 . S
O479 C478 1.258 . S
O480 Co477 1.966 . S
O480 C478 1.263 . S
C481 O482 1.235 . S
C481 O508 1.289 . S
O482 C481 1.235 . S
C483 C485 1.400 . S
C483 N486 1.351 . S
C483 C488 1.501 . S
C484 C485 1.387 . S
C484 N487 1.341 . S
C485 C483 1.400 . S
C485 C484 1.387 . S
N486 Co477 2.022 . S
N486 C483 1.351 . S
N486 N487 1.365 . S
N487 C484 1.341 . S
N487 N486 1.365 . S
N487 H507 0.862 . S
C488 C483 1.501 . S
C488 H489 0.961 . S
C488 H490 0.961 . S
C488 H491 0.960 . S
H489 C488 0.961 . S
H490 C488 0.961 . S
H491 C488 0.960 . S
C492 N493 1.342 . S
C492 C496 1.401 . S
C492 C497 1.499 . S
N493 Co476 1.989 . S
N493 C492 1.342 . S
N493 N494 1.388 . S
N494 Co477 1.993 . S
N494 N493 1.388 . S
N494 C495 1.346 . S
C495 N494 1.346 . S
C495 C496 1.396 . S
C495 C505 1.510 . S
C496 C492 1.401 . S
C496 C495 1.396 . S
C497 C492 1.499 . S
C497 H498 0.959 . S
C497 H499 0.960 . S
C497 H500 0.961 . S
H498 C497 0.959 . S
H499 C497 0.960 . S
H500 C497 0.961 . S
O501 Co476 1.967 . S
O501 C509 1.258 . S
O502 Co477 1.941 . S
O502 C509 1.266 . S
H503 C505 0.959 . S
H504 C505 0.961 . S
C505 C495 1.510 . S
C505 H503 0.959 . S
C505 H504 0.961 . S
C505 H506 0.960 . S
H506 C505 0.960 . S
H507 N487 0.862 . S
O508 Co476 1.920 . S
O508 C481 1.289 . S
C509 O501 1.258 . S
C509 O502 1.266 . S
Co510 O513 1.970 . S
Co510 N527 1.989 . S
Co510 O535 1.967 . S
Co510 O542 1.920 . S
Co511 O514 1.966 . S
Co511 N520 2.022 . S
Co511 N528 1.993 . S
Co511 O536 1.941 . S
C512 O513 1.258 . S
C512 O514 1.263 . S
O513 Co510 1.970 . S
O513 C512 1.258 . S
O514 Co511 1.966 . S
O514 C512 1.263 . S
C515 O516 1.235 . S
C515 O542 1.289 . S
O516 C515 1.235 . S
C517 C519 1.400 . S
C517 N520 1.351 . S
C517 C522 1.501 . S
C518 C519 1.387 . S
C518 N521 1.341 . S
C519 C517 1.400 . S
C519 C518 1.387 . S
N520 Co511 2.022 . S
N520 C517 1.351 . S
N520 N521 1.365 . S
N521 C518 1.341 . S
N521 N520 1.365 . S
N521 H541 0.862 . S
C522 C517 1.501 . S
C522 H523 0.961 . S
C522 H524 0.961 . S
C522 H525 0.960 . S
H523 C522 0.961 . S
H524 C522 0.961 . S
H525 C522 0.960 . S
C526 N527 1.342 . S
C526 C530 1.401 . S
C526 C531 1.499 . S
N527 Co510 1.989 . S
N527 C526 1.342 . S
N527 N528 1.388 . S
N528 Co511 1.993 . S
N528 N527 1.388 . S
N528 C529 1.346 . S
C529 N528 1.346 . S
C529 C530 1.396 . S
C529 C539 1.510 . S
C530 C526 1.401 . S
C530 C529 1.396 . S
C531 C526 1.499 . S
C531 H532 0.959 . S
C531 H533 0.960 . S
C531 H534 0.961 . S
H532 C531 0.959 . S
H533 C531 0.960 . S
H534 C531 0.961 . S
O535 Co510 1.967 . S
O535 C543 1.258 . S
O536 Co511 1.941 . S
O536 C543 1.266 . S
H537 C539 0.959 . S
H538 C539 0.961 . S
C539 C529 1.510 . S
C539 H537 0.959 . S
C539 H538 0.961 . S
C539 H540 0.960 . S
H540 C539 0.960 . S
H541 N521 0.862 . S
O542 Co510 1.920 . S
O542 C515 1.289 . S
C543 O535 1.258 . S
C543 O536 1.266 . S
Co544 O547 1.970 . S
Co544 N561 1.989 . S
Co544 O569 1.967 . S
Co544 O576 1.920 . S
Co545 O548 1.966 . S
Co545 N554 2.022 . S
Co545 N562 1.993 . S
Co545 O570 1.941 . S
C546 O547 1.258 . S
C546 O548 1.263 . S
O547 Co544 1.970 . S
O547 C546 1.258 . S
O548 Co545 1.966 . S
O548 C546 1.263 . S
C549 O550 1.235 . S
C549 O576 1.289 . S
O550 C549 1.235 . S
C551 C553 1.400 . S
C551 N554 1.351 . S
C551 C556 1.501 . S
C552 C553 1.387 . S
C552 N555 1.341 . S
C553 C551 1.400 . S
C553 C552 1.387 . S
N554 Co545 2.022 . S
N554 C551 1.351 . S
N554 N555 1.365 . S
N555 C552 1.341 . S
N555 N554 1.365 . S
N555 H575 0.862 . S
C556 C551 1.501 . S
C556 H557 0.961 . S
C556 H558 0.961 . S
C556 H559 0.960 . S
H557 C556 0.961 . S
H558 C556 0.961 . S
H559 C556 0.960 . S
C560 N561 1.342 . S
C560 C564 1.401 . S
C560 C565 1.499 . S
N561 Co544 1.989 . S
N561 C560 1.342 . S
N561 N562 1.388 . S
N562 Co545 1.993 . S
N562 N561 1.388 . S
N562 C563 1.346 . S
C563 N562 1.346 . S
C563 C564 1.396 . S
C563 C573 1.510 . S
C564 C560 1.401 . S
C564 C563 1.396 . S
C565 C560 1.499 . S
C565 H566 0.959 . S
C565 H567 0.960 . S
C565 H568 0.961 . S
H566 C565 0.959 . S
H567 C565 0.960 . S
H568 C565 0.961 . S
O569 Co544 1.967 . S
O569 C577 1.258 . S
O570 Co545 1.941 . S
O570 C577 1.266 . S
H571 C573 0.959 . S
H572 C573 0.961 . S
C573 C563 1.510 . S
C573 H571 0.959 . S
C573 H572 0.961 . S
C573 H574 0.960 . S
H574 C573 0.960 . S
H575 N555 0.862 . S
O576 Co544 1.920 . S
O576 C549 1.289 . S
C577 O569 1.258 . S
C577 O570 1.266 . S
Co578 O581 1.970 . S
Co578 N595 1.989 . S
Co578 O603 1.967 . S
Co578 O610 1.920 . S
Co579 O582 1.966 . S
Co579 N588 2.022 . S
Co579 N596 1.993 . S
Co579 O604 1.941 . S
C580 O581 1.258 . S
C580 O582 1.263 . S
O581 Co578 1.970 . S
O581 C580 1.258 . S
O582 Co579 1.966 . S
O582 C580 1.263 . S
C583 O584 1.235 . S
C583 O610 1.289 . S
O584 C583 1.235 . S
C585 C587 1.400 . S
C585 N588 1.351 . S
C585 C590 1.501 . S
C586 C587 1.387 . S
C586 N589 1.341 . S
C587 C585 1.400 . S
C587 C586 1.387 . S
N588 Co579 2.022 . S
N588 C585 1.351 . S
N588 N589 1.365 . S
N589 C586 1.341 . S
N589 N588 1.365 . S
N589 H609 0.862 . S
C590 C585 1.501 . S
C590 H591 0.961 . S
C590 H592 0.961 . S
C590 H593 0.960 . S
H591 C590 0.961 . S
H592 C590 0.961 . S
H593 C590 0.960 . S
C594 N595 1.342 . S
C594 C598 1.401 . S
C594 C599 1.499 . S
N595 Co578 1.989 . S
N595 C594 1.342 . S
N595 N596 1.388 . S
N596 Co579 1.993 . S
N596 N595 1.388 . S
N596 C597 1.346 . S
C597 N596 1.346 . S
C597 C598 1.396 . S
C597 C607 1.510 . S
C598 C594 1.401 . S
C598 C597 1.396 . S
C599 C594 1.499 . S
C599 H600 0.959 . S
C599 H601 0.960 . S
C599 H602 0.961 . S
H600 C599 0.959 . S
H601 C599 0.960 . S
H602 C599 0.961 . S
O603 Co578 1.967 . S
O603 C611 1.258 . S
O604 Co579 1.941 . S
O604 C611 1.266 . S
H605 C607 0.959 . S
H606 C607 0.961 . S
C607 C597 1.510 . S
C607 H605 0.959 . S
C607 H606 0.961 . S
C607 H608 0.960 . S
H608 C607 0.960 . S
H609 N589 0.862 . S
O610 Co578 1.920 . S
O610 C583 1.289 . S
C611 O603 1.258 . S
C611 O604 1.266 . S
C612 C613 1.349 . S
C612 C614 1.327 . S
C612 H637 0.950 . S
C613 C612 1.349 . S
C613 C629 1.349 . S
C614 C612 1.327 . S
C614 C633 1.429 . S
C614 H638 0.950 . S
C615 C632 1.574 . S
C615 C634 1.368 . S
C615 H639 0.949 . S
H616 C620 0.949 . S
C617 C618 1.349 . S
C617 C619 1.327 . S
C617 H640 0.950 . S
C618 C617 1.349 . S
C618 C630 1.349 . S
C619 C617 1.327 . S
C619 C635 1.429 . S
C619 H641 0.950 . S
C620 H616 0.949 . S
C620 C628 1.574 . S
C620 C636 1.368 . S
H621 C629 0.950 . S
H622 C627 0.950 . S
H623 C628 0.949 . S
H624 C630 0.950 . S
H625 C631 0.950 . S
H626 C632 0.949 . S
C627 H622 0.950 . S
C627 C629 1.327 . S
C627 C633 1.429 . S
C628 C620 1.574 . S
C628 H623 0.949 . S
C628 C634 1.368 . S
C629 C613 1.349 . S
C629 H621 0.950 . S
C629 C627 1.327 . S
C630 C618 1.349 . S
C630 H624 0.950 . S
C630 C631 1.327 . S
C631 H625 0.950 . S
C631 C630 1.327 . S
C631 C635 1.429 . S
C632 C615 1.574 . S
C632 H626 0.949 . S
C632 C636 1.368 . S
C633 C614 1.429 . S
C633 C627 1.429 . S
C633 C634 1.523 . S
C634 C615 1.368 . S
C634 C628 1.368 . S
C634 C633 1.523 . S
C635 C619 1.429 . S
C635 C631 1.429 . S
C635 C636 1.523 . S
C636 C620 1.368 . S
C636 C632 1.368 . S
C636 C635 1.523 . S
H637 C612 0.950 . S
H638 C614 0.950 . S
H639 C615 0.949 . S
H640 C617 0.950 . S
H641 C619 0.950 . S
C642 C643 1.349 . S
C642 C644 1.327 . S
C642 H667 0.950 . S
C643 C642 1.349 . S
C643 C659 1.349 . S
C644 C642 1.327 . S
C644 C663 1.429 . S
C644 H668 0.950 . S
C645 C662 1.574 . S
C645 C664 1.368 1_545 S
C645 H669 0.949 1_545 S
H646 C650 0.949 . S
C647 C648 1.349 . S
C647 C649 1.327 . S
C647 H670 0.950 . S
C648 C647 1.349 . S
C648 C660 1.349 . S
C649 C647 1.327 . S
C649 C665 1.429 . S
C649 H671 0.950 . S
C650 H646 0.949 . S
C650 C658 1.574 . S
C650 C666 1.368 . S
H651 C659 0.950 . S
H652 C657 0.950 . S
H653 C658 0.949 1_565 S
H654 C660 0.950 . S
H655 C661 0.950 . S
H656 C662 0.949 . S
C657 H652 0.950 . S
C657 C659 1.327 . S
C657 C663 1.429 . S
C658 C650 1.574 . S
C658 H653 0.949 1_545 S
C658 C664 1.368 1_545 S
C659 C643 1.349 . S
C659 H651 0.950 . S
C659 C657 1.327 . S
C660 C648 1.349 . S
C660 H654 0.950 . S
C660 C661 1.327 . S
C661 H655 0.950 . S
C661 C660 1.327 . S
C661 C665 1.429 . S
C662 C645 1.574 . S
C662 H656 0.949 . S
C662 C666 1.368 . S
C663 C644 1.429 . S
C663 C657 1.429 . S
C663 C664 1.523 . S
C664 C645 1.368 1_565 S
C664 C658 1.368 1_565 S
C664 C663 1.523 . S
C665 C649 1.429 . S
C665 C661 1.429 . S
C665 C666 1.523 . S
C666 C650 1.368 . S
C666 C662 1.368 . S
C666 C665 1.523 . S
H667 C642 0.950 . S
H668 C644 0.950 . S
H669 C645 0.949 1_565 S
H670 C647 0.950 . S
H671 C649 0.950 . S
C672 C673 1.349 . S
C672 C674 1.327 . S
C672 H697 0.950 . S
C673 C672 1.349 . S
C673 C689 1.349 . S
C674 C672 1.327 . S
C674 C693 1.429 . S
C674 H698 0.950 . S
C675 C692 1.574 1_655 S
C675 C694 1.368 . S
C675 H699 0.949 . S
H676 C680 0.949 . S
C677 C678 1.349 . S
C677 C679 1.327 . S
C677 H700 0.950 . S
C678 C677 1.349 . S
C678 C690 1.349 . S
C679 C677 1.327 . S
C679 C695 1.429 . S
C679 H701 0.950 . S
C680 H676 0.949 . S
C680 C688 1.574 1_455 S
C680 C696 1.368 . S
H681 C689 0.950 . S
H682 C687 0.950 . S
H683 C688 0.949 . S
H684 C690 0.950 . S
H685 C691 0.950 . S
H686 C692 0.949 . S
C687 H682 0.950 . S
C687 C689 1.327 . S
C687 C693 1.429 . S
C688 C680 1.574 1_655 S
C688 H683 0.949 . S
C688 C694 1.368 . S
C689 C673 1.349 . S
C689 H681 0.950 . S
C689 C687 1.327 . S
C690 C678 1.349 . S
C690 H684 0.950 . S
C690 C691 1.327 . S
C691 H685 0.950 . S
C691 C690 1.327 . S
C691 C695 1.429 . S
C692 C675 1.574 1_455 S
C692 H686 0.949 . S
C692 C696 1.368 . S
C693 C674 1.429 . S
C693 C687 1.429 . S
C693 C694 1.523 . S
C694 C675 1.368 . S
C694 C688 1.368 . S
C694 C693 1.523 . S
C695 C679 1.429 . S
C695 C691 1.429 . S
C695 C696 1.523 . S
C696 C680 1.368 . S
C696 C692 1.368 . S
C696 C695 1.523 . S
H697 C672 0.950 . S
H698 C674 0.950 . S
H699 C675 0.949 . S
H700 C677 0.950 . S
H701 C679 0.950 . S
C702 C703 1.349 . S
C702 C704 1.327 . S
C702 H727 0.950 . S
C703 C702 1.349 . S
C703 C719 1.349 . S
C704 C702 1.327 . S
C704 C723 1.429 . S
C704 H728 0.950 . S
C705 C722 1.574 . S
C705 C724 1.368 . S
C705 H729 0.949 . S
H706 C710 0.949 . S
C707 C708 1.349 . S
C707 C709 1.327 . S
C707 H730 0.950 . S
C708 C707 1.349 . S
C708 C720 1.349 . S
C709 C707 1.327 . S
C709 C725 1.429 . S
C709 H731 0.950 . S
C710 H706 0.949 . S
C710 C718 1.574 . S
C710 C726 1.368 . S
H711 C719 0.950 . S
H712 C717 0.950 . S
H713 C718 0.949 . S
H714 C720 0.950 . S
H715 C721 0.950 . S
H716 C722 0.949 . S
C717 H712 0.950 . S
C717 C719 1.327 . S
C717 C723 1.429 . S
C718 C710 1.574 . S
C718 H713 0.949 . S
C718 C724 1.368 . S
C719 C703 1.349 . S
C719 H711 0.950 . S
C719 C717 1.327 . S
C720 C708 1.349 . S
C720 H714 0.950 . S
C720 C721 1.327 . S
C721 H715 0.950 . S
C721 C720 1.327 . S
C721 C725 1.429 . S
C722 C705 1.574 . S
C722 H716 0.949 . S
C722 C726 1.368 . S
C723 C704 1.429 . S
C723 C717 1.429 . S
C723 C724 1.523 . S
C724 C705 1.368 . S
C724 C718 1.368 . S
C724 C723 1.523 . S
C725 C709 1.429 . S
C725 C721 1.429 . S
C725 C726 1.523 . S
C726 C710 1.368 . S
C726 C722 1.368 . S
C726 C725 1.523 . S
H727 C702 0.950 . S
H728 C704 0.950 . S
H729 C705 0.949 . S
H730 C707 0.950 . S
H731 C709 0.950 . S
C732 C733 1.349 . S
C732 C734 1.327 . S
C732 H757 0.950 . S
C733 C732 1.349 . S
C733 C749 1.349 . S
C734 C732 1.327 . S
C734 C753 1.429 . S
C734 H758 0.950 . S
C735 C752 1.574 1_545 S
C735 C754 1.368 . S
C735 H759 0.949 . S
H736 C740 0.949 . S
C737 C738 1.349 . S
C737 C739 1.327 . S
C737 H760 0.950 . S
C738 C737 1.349 . S
C738 C750 1.349 . S
C739 C737 1.327 . S
C739 C755 1.429 . S
C739 H761 0.950 . S
C740 H736 0.949 . S
C740 C748 1.574 1_565 S
C740 C756 1.368 . S
H741 C749 0.950 . S
H742 C747 0.950 . S
H743 C748 0.949 . S
H744 C750 0.950 . S
H745 C751 0.950 . S
H746 C752 0.949 . S
C747 H742 0.950 . S
C747 C749 1.327 . S
C747 C753 1.429 . S
C748 C740 1.574 1_545 S
C748 H743 0.949 . S
C748 C754 1.368 . S
C749 C733 1.349 . S
C749 H741 0.950 . S
C749 C747 1.327 . S
C750 C738 1.349 . S
C750 H744 0.950 . S
C750 C751 1.327 . S
C751 H745 0.950 . S
C751 C750 1.327 . S
C751 C755 1.429 . S
C752 C735 1.574 1_565 S
C752 H746 0.949 . S
C752 C756 1.368 . S
C753 C734 1.429 . S
C753 C747 1.429 . S
C753 C754 1.523 . S
C754 C735 1.368 . S
C754 C748 1.368 . S
C754 C753 1.523 . S
C755 C739 1.429 . S
C755 C751 1.429 . S
C755 C756 1.523 . S
C756 C740 1.368 . S
C756 C752 1.368 . S
C756 C755 1.523 . S
H757 C732 0.950 . S
H758 C734 0.950 . S
H759 C735 0.949 . S
H760 C737 0.950 . S
H761 C739 0.950 . S
C762 C763 1.349 . S
C762 C764 1.327 . S
C762 H787 0.950 . S
C763 C762 1.349 . S
C763 C779 1.349 . S
C764 C762 1.327 . S
C764 C783 1.429 . S
C764 H788 0.950 . S
C765 C782 1.574 . S
C765 C784 1.368 . S
C765 H789 0.949 . S
H766 C770 0.949 1_655 S
C767 C768 1.349 . S
C767 C769 1.327 . S
C767 H790 0.950 . S
C768 C767 1.349 . S
C768 C780 1.349 . S
C769 C767 1.327 . S
C769 C785 1.429 . S
C769 H791 0.950 . S
C770 H766 0.949 1_455 S
C770 C778 1.574 . S
C770 C786 1.368 1_455 S
H771 C779 0.950 . S
H772 C777 0.950 . S
H773 C778 0.949 . S
H774 C780 0.950 . S
H775 C781 0.950 . S
H776 C782 0.949 1_655 S
C777 H772 0.950 . S
C777 C779 1.327 . S
C777 C783 1.429 . S
C778 C770 1.574 . S
C778 H773 0.949 . S
C778 C784 1.368 . S
C779 C763 1.349 . S
C779 H771 0.950 . S
C779 C777 1.327 . S
C780 C768 1.349 . S
C780 H774 0.950 . S
C780 C781 1.327 . S
C781 H775 0.950 . S
C781 C780 1.327 . S
C781 C785 1.429 . S
C782 C765 1.574 . S
C782 H776 0.949 1_455 S
C782 C786 1.368 1_455 S
C783 C764 1.429 . S
C783 C777 1.429 . S
C783 C784 1.523 . S
C784 C765 1.368 . S
C784 C778 1.368 . S
C784 C783 1.523 . S
C785 C769 1.429 . S
C785 C781 1.429 . S
C785 C786 1.523 . S
C786 C770 1.368 1_655 S
C786 C782 1.368 1_655 S
C786 C785 1.523 . S
H787 C762 0.950 . S
H788 C764 0.950 . S
H789 C765 0.949 . S
H790 C767 0.950 . S
H791 C769 0.950 . S
C792 C793 1.349 . S
C792 C794 1.327 . S
C792 H817 0.950 . S
C793 C792 1.349 . S
C793 C809 1.349 . S
C794 C792 1.327 . S
C794 C813 1.429 . S
C794 H818 0.950 . S
C795 C812 1.574 . S
C795 C814 1.368 . S
C795 H819 0.949 . S
H796 C800 0.949 . S
C797 C798 1.349 . S
C797 C799 1.327 . S
C797 H820 0.950 . S
C798 C797 1.349 . S
C798 C810 1.349 . S
C799 C797 1.327 . S
C799 C815 1.429 . S
C799 H821 0.950 . S
C800 H796 0.949 . S
C800 C808 1.574 . S
C800 C816 1.368 . S
H801 C809 0.950 . S
H802 C807 0.950 . S
H803 C808 0.949 . S
H804 C810 0.950 . S
H805 C811 0.950 . S
H806 C812 0.949 . S
C807 H802 0.950 . S
C807 C809 1.327 . S
C807 C813 1.429 . S
C808 C800 1.574 . S
C808 H803 0.949 . S
C808 C814 1.368 . S
C809 C793 1.349 . S
C809 H801 0.950 . S
C809 C807 1.327 . S
C810 C798 1.349 . S
C810 H804 0.950 . S
C810 C811 1.327 . S
C811 H805 0.950 . S
C811 C810 1.327 . S
C811 C815 1.429 . S
C812 C795 1.574 . S
C812 H806 0.949 . S
C812 C816 1.368 . S
C813 C794 1.429 . S
C813 C807 1.429 . S
C813 C814 1.523 . S
C814 C795 1.368 . S
C814 C808 1.368 . S
C814 C813 1.523 . S
C815 C799 1.429 . S
C815 C811 1.429 . S
C815 C816 1.523 . S
C816 C800 1.368 . S
C816 C812 1.368 . S
C816 C815 1.523 . S
H817 C792 0.950 . S
H818 C794 0.950 . S
H819 C795 0.949 . S
H820 C797 0.950 . S
H821 C799 0.950 . S
C822 C823 1.349 . S
C822 C824 1.327 . S
C822 H847 0.950 . S
C823 C822 1.349 . S
C823 C839 1.349 . S
C824 C822 1.327 . S
C824 C843 1.429 . S
C824 H848 0.950 . S
C825 C842 1.574 . S
C825 C844 1.368 . S
C825 H849 0.949 . S
H826 C830 0.949 . S
C827 C828 1.349 . S
C827 C829 1.327 . S
C827 H850 0.950 . S
C828 C827 1.349 . S
C828 C840 1.349 . S
C829 C827 1.327 . S
C829 C845 1.429 . S
C829 H851 0.950 . S
C830 H826 0.949 . S
C830 C838 1.574 . S
C830 C846 1.368 . S
H831 C839 0.950 . S
H832 C837 0.950 . S
H833 C838 0.949 . S
H834 C840 0.950 . S
H835 C841 0.950 . S
H836 C842 0.949 . S
C837 H832 0.950 . S
C837 C839 1.327 . S
C837 C843 1.429 . S
C838 C830 1.574 . S
C838 H833 0.949 . S
C838 C844 1.368 . S
C839 C823 1.349 . S
C839 H831 0.950 . S
C839 C837 1.327 . S
C840 C828 1.349 . S
C840 H834 0.950 . S
C840 C841 1.327 . S
C841 H835 0.950 . S
C841 C840 1.327 . S
C841 C845 1.429 . S
C842 C825 1.574 . S
C842 H836 0.949 . S
C842 C846 1.368 . S
C843 C824 1.429 . S
C843 C837 1.429 . S
C843 C844 1.523 . S
C844 C825 1.368 . S
C844 C838 1.368 . S
C844 C843 1.523 . S
C845 C829 1.429 . S
C845 C841 1.429 . S
C845 C846 1.523 . S
C846 C830 1.368 . S
C846 C842 1.368 . S
C846 C845 1.523 . S
H847 C822 0.950 . S
H848 C824 0.950 . S
H849 C825 0.949 . S
H850 C827 0.950 . S
H851 C829 0.950 . S
C852 C853 1.349 . S
C852 C854 1.327 . S
C852 H877 0.950 . S
C853 C852 1.349 . S
C853 C869 1.349 . S
C854 C852 1.327 . S
C854 C873 1.429 . S
C854 H878 0.950 . S
C855 C872 1.574 . S
C855 C874 1.368 . S
C855 H879 0.949 . S
H856 C860 0.949 . S
C857 C858 1.349 . S
C857 C859 1.327 . S
C857 H880 0.950 . S
C858 C857 1.349 . S
C858 C870 1.349 . S
C859 C857 1.327 . S
C859 C875 1.429 . S
C859 H881 0.950 . S
C860 H856 0.949 . S
C860 C868 1.574 . S
C860 C876 1.368 . S
H861 C869 0.950 . S
H862 C867 0.950 . S
H863 C868 0.949 . S
H864 C870 0.950 . S
H865 C871 0.950 . S
H866 C872 0.949 . S
C867 H862 0.950 . S
C867 C869 1.327 . S
C867 C873 1.429 . S
C868 C860 1.574 . S
C868 H863 0.949 . S
C868 C874 1.368 . S
C869 C853 1.349 . S
C869 H861 0.950 . S
C869 C867 1.327 . S
C870 C858 1.349 . S
C870 H864 0.950 . S
C870 C871 1.327 . S
C871 H865 0.950 . S
C871 C870 1.327 . S
C871 C875 1.429 . S
C872 C855 1.574 . S
C872 H866 0.949 . S
C872 C876 1.368 . S
C873 C854 1.429 . S
C873 C867 1.429 . S
C873 C874 1.523 . S
C874 C855 1.368 . S
C874 C868 1.368 . S
C874 C873 1.523 . S
C875 C859 1.429 . S
C875 C871 1.429 . S
C875 C876 1.523 . S
C876 C860 1.368 . S
C876 C872 1.368 . S
C876 C875 1.523 . S
H877 C852 0.950 . S
H878 C854 0.950 . S
H879 C855 0.949 . S
H880 C857 0.950 . S
H881 C859 0.950 . S
C882 C883 1.349 . S
C882 C884 1.327 . S
C882 H907 0.950 . S
C883 C882 1.349 . S
C883 C899 1.349 . S
C884 C882 1.327 . S
C884 C903 1.429 . S
C884 H908 0.950 . S
C885 C902 1.574 . S
C885 C904 1.368 . S
C885 H909 0.949 . S
H886 C890 0.949 . S
C887 C888 1.349 . S
C887 C889 1.327 . S
C887 H910 0.950 . S
C888 C887 1.349 . S
C888 C900 1.349 . S
C889 C887 1.327 . S
C889 C905 1.429 . S
C889 H911 0.950 . S
C890 H886 0.949 . S
C890 C898 1.574 . S
C890 C906 1.368 . S
H891 C899 0.950 . S
H892 C897 0.950 . S
H893 C898 0.949 . S
H894 C900 0.950 . S
H895 C901 0.950 . S
H896 C902 0.949 . S
C897 H892 0.950 . S
C897 C899 1.327 . S
C897 C903 1.429 . S
C898 C890 1.574 . S
C898 H893 0.949 . S
C898 C904 1.368 . S
C899 C883 1.349 . S
C899 H891 0.950 . S
C899 C897 1.327 . S
C900 C888 1.349 . S
C900 H894 0.950 . S
C900 C901 1.327 . S
C901 H895 0.950 . S
C901 C900 1.327 . S
C901 C905 1.429 . S
C902 C885 1.574 . S
C902 H896 0.949 . S
C902 C906 1.368 . S
C903 C884 1.429 . S
C903 C897 1.429 . S
C903 C904 1.523 . S
C904 C885 1.368 . S
C904 C898 1.368 . S
C904 C903 1.523 . S
C905 C889 1.429 . S
C905 C901 1.429 . S
C905 C906 1.523 . S
C906 C890 1.368 . S
C906 C902 1.368 . S
C906 C905 1.523 . S
H907 C882 0.950 . S
H908 C884 0.950 . S
H909 C885 0.949 . S
H910 C887 0.950 . S
H911 C889 0.950 . S
C912 C913 1.349 . S
C912 C914 1.327 . S
C912 H937 0.950 . S
C913 C912 1.349 . S
C913 C929 1.349 . S
C914 C912 1.327 . S
C914 C933 1.429 . S
C914 H938 0.950 . S
C915 C932 1.574 . S
C915 C934 1.368 . S
C915 H939 0.949 . S
H916 C920 0.949 . S
C917 C918 1.349 . S
C917 C919 1.327 . S
C917 H940 0.950 . S
C918 C917 1.349 . S
C918 C930 1.349 . S
C919 C917 1.327 . S
C919 C935 1.429 . S
C919 H941 0.950 . S
C920 H916 0.949 . S
C920 C928 1.574 . S
C920 C936 1.368 . S
H921 C929 0.950 . S
H922 C927 0.950 . S
H923 C928 0.949 . S
H924 C930 0.950 . S
H925 C931 0.950 . S
H926 C932 0.949 . S
C927 H922 0.950 . S
C927 C929 1.327 . S
C927 C933 1.429 . S
C928 C920 1.574 . S
C928 H923 0.949 . S
C928 C934 1.368 . S
C929 C913 1.349 . S
C929 H921 0.950 . S
C929 C927 1.327 . S
C930 C918 1.349 . S
C930 H924 0.950 . S
C930 C931 1.327 . S
C931 H925 0.950 . S
C931 C930 1.327 . S
C931 C935 1.429 . S
C932 C915 1.574 . S
C932 H926 0.949 . S
C932 C936 1.368 . S
C933 C914 1.429 . S
C933 C927 1.429 . S
C933 C934 1.523 . S
C934 C915 1.368 . S
C934 C928 1.368 . S
C934 C933 1.523 . S
C935 C919 1.429 . S
C935 C931 1.429 . S
C935 C936 1.523 . S
C936 C920 1.368 . S
C936 C932 1.368 . S
C936 C935 1.523 . S
H937 C912 0.950 . S
H938 C914 0.950 . S
H939 C915 0.949 . S
H940 C917 0.950 . S
H941 C919 0.950 . S
C942 C943 1.349 . S
C942 C944 1.327 . S
C942 H967 0.950 . S
C943 C942 1.349 . S
C943 C959 1.349 . S
C944 C942 1.327 . S
C944 C963 1.429 . S
C944 H968 0.950 . S
C945 C962 1.574 . S
C945 C964 1.368 . S
C945 H969 0.949 . S
H946 C950 0.949 . S
C947 C948 1.349 . S
C947 C949 1.327 . S
C947 H970 0.950 . S
C948 C947 1.349 . S
C948 C960 1.349 . S
C949 C947 1.327 . S
C949 C965 1.429 . S
C949 H971 0.950 . S
C950 H946 0.949 . S
C950 C958 1.574 . S
C950 C966 1.368 . S
H951 C959 0.950 . S
H952 C957 0.950 . S
H953 C958 0.949 . S
H954 C960 0.950 . S
H955 C961 0.950 . S
H956 C962 0.949 . S
C957 H952 0.950 . S
C957 C959 1.327 . S
C957 C963 1.429 . S
C958 C950 1.574 . S
C958 H953 0.949 . S
C958 C964 1.368 . S
C959 C943 1.349 . S
C959 H951 0.950 . S
C959 C957 1.327 . S
C960 C948 1.349 . S
C960 H954 0.950 . S
C960 C961 1.327 . S
C961 H955 0.950 . S
C961 C960 1.327 . S
C961 C965 1.429 . S
C962 C945 1.574 . S
C962 H956 0.949 . S
C962 C966 1.368 . S
C963 C944 1.429 . S
C963 C957 1.429 . S
C963 C964 1.523 . S
C964 C945 1.368 . S
C964 C958 1.368 . S
C964 C963 1.523 . S
C965 C949 1.429 . S
C965 C961 1.429 . S
C965 C966 1.523 . S
C966 C950 1.368 . S
C966 C962 1.368 . S
C966 C965 1.523 . S
H967 C942 0.950 . S
H968 C944 0.950 . S
H969 C945 0.949 . S
H970 C947 0.950 . S
H971 C949 0.950 . S
C972 C973 1.349 . S
C972 C974 1.327 . S
C972 H997 0.950 . S
C973 C972 1.349 . S
C973 C989 1.349 . S
C974 C972 1.327 . S
C974 C993 1.429 . S
C974 H998 0.950 . S
C975 C992 1.574 . S
C975 C994 1.368 . S
C975 H999 0.949 . S
H976 C980 0.949 . S
C977 C978 1.349 . S
C977 C979 1.327 . S
C977 H1000 0.950 . S
C978 C977 1.349 . S
C978 C990 1.349 . S
C979 C977 1.327 . S
C979 C995 1.429 . S
C979 H1001 0.950 . S
C980 H976 0.949 . S
C980 C988 1.574 . S
C980 C996 1.368 . S
H981 C989 0.950 . S
H982 C987 0.950 . S
H983 C988 0.949 . S
H984 C990 0.950 . S
H985 C991 0.950 . S
H986 C992 0.949 . S
C987 H982 0.950 . S
C987 C989 1.327 . S
C987 C993 1.429 . S
C988 C980 1.574 . S
C988 H983 0.949 . S
C988 C994 1.368 . S
C989 C973 1.349 . S
C989 H981 0.950 . S
C989 C987 1.327 . S
C990 C978 1.349 . S
C990 H984 0.950 . S
C990 C991 1.327 . S
C991 H985 0.950 . S
C991 C990 1.327 . S
C991 C995 1.429 . S
C992 C975 1.574 . S
C992 H986 0.949 . S
C992 C996 1.368 . S
C993 C974 1.429 . S
C993 C987 1.429 . S
C993 C994 1.523 . S
C994 C975 1.368 . S
C994 C988 1.368 . S
C994 C993 1.523 . S
C995 C979 1.429 . S
C995 C991 1.429 . S
C995 C996 1.523 . S
C996 C980 1.368 . S
C996 C992 1.368 . S
C996 C995 1.523 . S
H997 C972 0.950 . S
H998 C974 0.950 . S
H999 C975 0.949 . S
H1000 C977 0.950 . S
H1001 C979 0.950 . S
C1002 C1003 1.349 . S
C1002 C1004 1.327 . S
C1002 H1027 0.950 . S
C1003 C1002 1.349 . S
C1003 C1019 1.349 . S
C1004 C1002 1.327 . S
C1004 C1023 1.429 . S
C1004 H1028 0.950 . S
C1005 C1022 1.574 . S
C1005 C1024 1.368 . S
C1005 H1029 0.949 . S
H1006 C1010 0.949 . S
C1007 C1008 1.349 . S
C1007 C1009 1.327 . S
C1007 H1030 0.950 . S
C1008 C1007 1.349 . S
C1008 C1020 1.349 . S
C1009 C1007 1.327 . S
C1009 C1025 1.429 . S
C1009 H1031 0.950 . S
C1010 H1006 0.949 . S
C1010 C1018 1.574 . S
C1010 C1026 1.368 . S
H1011 C1019 0.950 . S
H1012 C1017 0.950 . S
H1013 C1018 0.949 . S
H1014 C1020 0.950 . S
H1015 C1021 0.950 . S
H1016 C1022 0.949 . S
C1017 H1012 0.950 . S
C1017 C1019 1.327 . S
C1017 C1023 1.429 . S
C1018 C1010 1.574 . S
C1018 H1013 0.949 . S
C1018 C1024 1.368 . S
C1019 C1003 1.349 . S
C1019 H1011 0.950 . S
C1019 C1017 1.327 . S
C1020 C1008 1.349 . S
C1020 H1014 0.950 . S
C1020 C1021 1.327 . S
C1021 H1015 0.950 . S
C1021 C1020 1.327 . S
C1021 C1025 1.429 . S
C1022 C1005 1.574 . S
C1022 H1016 0.949 . S
C1022 C1026 1.368 . S
C1023 C1004 1.429 . S
C1023 C1017 1.429 . S
C1023 C1024 1.523 . S
C1024 C1005 1.368 . S
C1024 C1018 1.368 . S
C1024 C1023 1.523 . S
C1025 C1009 1.429 . S
C1025 C1021 1.429 . S
C1025 C1026 1.523 . S
C1026 C1010 1.368 . S
C1026 C1022 1.368 . S
C1026 C1025 1.523 . S
H1027 C1002 0.950 . S
H1028 C1004 0.950 . S
H1029 C1005 0.949 . S
H1030 C1007 0.950 . S
H1031 C1009 0.950 . S
C1032 C1033 1.349 . S
C1032 C1034 1.327 . S
C1032 H1057 0.950 . S
C1033 C1032 1.349 . S
C1033 C1049 1.349 . S
C1034 C1032 1.327 . S
C1034 C1053 1.429 . S
C1034 H1058 0.950 . S
C1035 C1052 1.574 . S
C1035 C1054 1.368 . S
C1035 H1059 0.949 . S
H1036 C1040 0.949 . S
C1037 C1038 1.349 . S
C1037 C1039 1.327 . S
C1037 H1060 0.950 . S
C1038 C1037 1.349 . S
C1038 C1050 1.349 . S
C1039 C1037 1.327 . S
C1039 C1055 1.429 . S
C1039 H1061 0.950 . S
C1040 H1036 0.949 . S
C1040 C1048 1.574 . S
C1040 C1056 1.368 . S
H1041 C1049 0.950 . S
H1042 C1047 0.950 . S
H1043 C1048 0.949 . S
H1044 C1050 0.950 . S
H1045 C1051 0.950 . S
H1046 C1052 0.949 . S
C1047 H1042 0.950 . S
C1047 C1049 1.327 . S
C1047 C1053 1.429 . S
C1048 C1040 1.574 . S
C1048 H1043 0.949 . S
C1048 C1054 1.368 . S
C1049 C1033 1.349 . S
C1049 H1041 0.950 . S
C1049 C1047 1.327 . S
C1050 C1038 1.349 . S
C1050 H1044 0.950 . S
C1050 C1051 1.327 . S
C1051 H1045 0.950 . S
C1051 C1050 1.327 . S
C1051 C1055 1.429 . S
C1052 C1035 1.574 . S
C1052 H1046 0.949 . S
C1052 C1056 1.368 . S
C1053 C1034 1.429 . S
C1053 C1047 1.429 . S
C1053 C1054 1.523 . S
C1054 C1035 1.368 . S
C1054 C1048 1.368 . S
C1054 C1053 1.523 . S
C1055 C1039 1.429 . S
C1055 C1051 1.429 . S
C1055 C1056 1.523 . S
C1056 C1040 1.368 . S
C1056 C1052 1.368 . S
C1056 C1055 1.523 . S
H1057 C1032 0.950 . S
H1058 C1034 0.950 . S
H1059 C1035 0.949 . S
H1060 C1037 0.950 . S
H1061 C1039 0.950 . S
C1062 C1063 1.349 . S
C1062 C1064 1.327 . S
C1062 H1087 0.950 . S
C1063 C1062 1.349 . S
C1063 C1079 1.349 . S
C1064 C1062 1.327 . S
C1064 C1083 1.429 . S
C1064 H1088 0.950 . S
C1065 C1082 1.574 . S
C1065 C1084 1.368 . S
C1065 H1089 0.949 . S
H1066 C1070 0.949 . S
C1067 C1068 1.349 . S
C1067 C1069 1.327 . S
C1067 H1090 0.950 . S
C1068 C1067 1.349 . S
C1068 C1080 1.349 . S
C1069 C1067 1.327 . S
C1069 C1085 1.429 . S
C1069 H1091 0.950 . S
C1070 H1066 0.949 . S
C1070 C1078 1.574 . S
C1070 C1086 1.368 . S
H1071 C1079 0.950 . S
H1072 C1077 0.950 . S
H1073 C1078 0.949 . S
H1074 C1080 0.950 . S
H1075 C1081 0.950 . S
H1076 C1082 0.949 . S
C1077 H1072 0.950 . S
C1077 C1079 1.327 . S
C1077 C1083 1.429 . S
C1078 C1070 1.574 . S
C1078 H1073 0.949 . S
C1078 C1084 1.368 . S
C1079 C1063 1.349 . S
C1079 H1071 0.950 . S
C1079 C1077 1.327 . S
C1080 C1068 1.349 . S
C1080 H1074 0.950 . S
C1080 C1081 1.327 . S
C1081 H1075 0.950 . S
C1081 C1080 1.327 . S
C1081 C1085 1.429 . S
C1082 C1065 1.574 . S
C1082 H1076 0.949 . S
C1082 C1086 1.368 . S
C1083 C1064 1.429 . S
C1083 C1077 1.429 . S
C1083 C1084 1.523 . S
C1084 C1065 1.368 . S
C1084 C1078 1.368 . S
C1084 C1083 1.523 . S
C1085 C1069 1.429 . S
C1085 C1081 1.429 . S
C1085 C1086 1.523 . S
C1086 C1070 1.368 . S
C1086 C1082 1.368 . S
C1086 C1085 1.523 . S
H1087 C1062 0.950 . S
H1088 C1064 0.950 . S
H1089 C1065 0.949 . S
H1090 C1067 0.950 . S
H1091 C1069 0.950 . S
C1092 C1093 1.349 . S
C1092 C1094 1.327 . S
C1092 H1117 0.950 . S
C1093 C1092 1.349 . S
C1093 C1109 1.349 . S
C1094 C1092 1.327 . S
C1094 C1113 1.429 . S
C1094 H1118 0.950 . S
C1095 C1112 1.574 . S
C1095 C1114 1.368 . S
C1095 H1119 0.949 . S
H1096 C1100 0.949 . S
C1097 C1098 1.349 . S
C1097 C1099 1.327 . S
C1097 H1120 0.950 . S
C1098 C1097 1.349 . S
C1098 C1110 1.349 . S
C1099 C1097 1.327 . S
C1099 C1115 1.429 . S
C1099 H1121 0.950 . S
C1100 H1096 0.949 . S
C1100 C1108 1.574 . S
C1100 C1116 1.368 . S
H1101 C1109 0.950 . S
H1102 C1107 0.950 . S
H1103 C1108 0.949 . S
H1104 C1110 0.950 . S
H1105 C1111 0.950 . S
H1106 C1112 0.949 . S
C1107 H1102 0.950 . S
C1107 C1109 1.327 . S
C1107 C1113 1.429 . S
C1108 C1100 1.574 . S
C1108 H1103 0.949 . S
C1108 C1114 1.368 . S
C1109 C1093 1.349 . S
C1109 H1101 0.950 . S
C1109 C1107 1.327 . S
C1110 C1098 1.349 . S
C1110 H1104 0.950 . S
C1110 C1111 1.327 . S
C1111 H1105 0.950 . S
C1111 C1110 1.327 . S
C1111 C1115 1.429 . S
C1112 C1095 1.574 . S
C1112 H1106 0.949 . S
C1112 C1116 1.368 . S
C1113 C1094 1.429 . S
C1113 C1107 1.429 . S
C1113 C1114 1.523 . S
C1114 C1095 1.368 . S
C1114 C1108 1.368 . S
C1114 C1113 1.523 . S
C1115 C1099 1.429 . S
C1115 C1111 1.429 . S
C1115 C1116 1.523 . S
C1116 C1100 1.368 . S
C1116 C1112 1.368 . S
C1116 C1115 1.523 . S
H1117 C1092 0.950 . S
H1118 C1094 0.950 . S
H1119 C1095 0.949 . S
H1120 C1097 0.950 . S
H1121 C1099 0.950 . S
C1122 C1123 1.349 . S
C1122 C1124 1.327 . S
C1122 H1147 0.950 . S
C1123 C1122 1.349 . S
C1123 C1139 1.349 . S
C1124 C1122 1.327 . S
C1124 C1143 1.429 . S
C1124 H1148 0.950 . S
C1125 C1142 1.574 . S
C1125 C1144 1.368 . S
C1125 H1149 0.949 . S
H1126 C1130 0.949 . S
C1127 C1128 1.349 . S
C1127 C1129 1.327 . S
C1127 H1150 0.950 . S
C1128 C1127 1.349 . S
C1128 C1140 1.349 . S
C1129 C1127 1.327 . S
C1129 C1145 1.429 . S
C1129 H1151 0.950 . S
C1130 H1126 0.949 . S
C1130 C1138 1.574 . S
C1130 C1146 1.368 . S
H1131 C1139 0.950 . S
H1132 C1137 0.950 . S
H1133 C1138 0.949 . S
H1134 C1140 0.950 . S
H1135 C1141 0.950 . S
H1136 C1142 0.949 . S
C1137 H1132 0.950 . S
C1137 C1139 1.327 . S
C1137 C1143 1.429 . S
C1138 C1130 1.574 . S
C1138 H1133 0.949 . S
C1138 C1144 1.368 . S
C1139 C1123 1.349 . S
C1139 H1131 0.950 . S
C1139 C1137 1.327 . S
C1140 C1128 1.349 . S
C1140 H1134 0.950 . S
C1140 C1141 1.327 . S
C1141 H1135 0.950 . S
C1141 C1140 1.327 . S
C1141 C1145 1.429 . S
C1142 C1125 1.574 . S
C1142 H1136 0.949 . S
C1142 C1146 1.368 . S
C1143 C1124 1.429 . S
C1143 C1137 1.429 . S
C1143 C1144 1.523 . S
C1144 C1125 1.368 . S
C1144 C1138 1.368 . S
C1144 C1143 1.523 . S
C1145 C1129 1.429 . S
C1145 C1141 1.429 . S
C1145 C1146 1.523 . S
C1146 C1130 1.368 . S
C1146 C1142 1.368 . S
C1146 C1145 1.523 . S
H1147 C1122 0.950 . S
H1148 C1124 0.950 . S
H1149 C1125 0.949 . S
H1150 C1127 0.950 . S
H1151 C1129 0.950 . S
C1152 C1153 1.349 . S
C1152 C1154 1.327 . S
C1152 H1177 0.950 . S
C1153 C1152 1.349 . S
C1153 C1169 1.349 . S
C1154 C1152 1.327 . S
C1154 C1173 1.429 . S
C1154 H1178 0.950 . S
C1155 C1172 1.574 . S
C1155 C1174 1.368 . S
C1155 H1179 0.949 . S
H1156 C1160 0.949 . S
C1157 C1158 1.349 . S
C1157 C1159 1.327 . S
C1157 H1180 0.950 . S
C1158 C1157 1.349 . S
C1158 C1170 1.349 . S
C1159 C1157 1.327 . S
C1159 C1175 1.429 . S
C1159 H1181 0.950 . S
C1160 H1156 0.949 . S
C1160 C1168 1.574 . S
C1160 C1176 1.368 . S
H1161 C1169 0.950 . S
H1162 C1167 0.950 . S
H1163 C1168 0.949 . S
H1164 C1170 0.950 . S
H1165 C1171 0.950 . S
H1166 C1172 0.949 . S
C1167 H1162 0.950 . S
C1167 C1169 1.327 . S
C1167 C1173 1.429 . S
C1168 C1160 1.574 . S
C1168 H1163 0.949 . S
C1168 C1174 1.368 . S
C1169 C1153 1.349 . S
C1169 H1161 0.950 . S
C1169 C1167 1.327 . S
C1170 C1158 1.349 . S
C1170 H1164 0.950 . S
C1170 C1171 1.327 . S
C1171 H1165 0.950 . S
C1171 C1170 1.327 . S
C1171 C1175 1.429 . S
C1172 C1155 1.574 . S
C1172 H1166 0.949 . S
C1172 C1176 1.368 . S
C1173 C1154 1.429 . S
C1173 C1167 1.429 . S
C1173 C1174 1.523 . S
C1174 C1155 1.368 . S
C1174 C1168 1.368 . S
C1174 C1173 1.523 . S
C1175 C1159 1.429 . S
C1175 C1171 1.429 . S
C1175 C1176 1.523 . S
C1176 C1160 1.368 . S
C1176 C1172 1.368 . S
C1176 C1175 1.523 . S
H1177 C1152 0.950 . S
H1178 C1154 0.950 . S
H1179 C1155 0.949 . S
H1180 C1157 0.950 . S
H1181 C1159 0.950 . S
C1182 C1183 1.349 . S
C1182 C1184 1.327 . S
C1182 H1207 0.950 . S
C1183 C1182 1.349 . S
C1183 C1199 1.349 . S
C1184 C1182 1.327 . S
C1184 C1203 1.429 . S
C1184 H1208 0.950 . S
C1185 C1202 1.574 . S
C1185 C1204 1.368 . S
C1185 H1209 0.949 . S
H1186 C1190 0.949 . S
C1187 C1188 1.349 . S
C1187 C1189 1.327 . S
C1187 H1210 0.950 . S
C1188 C1187 1.349 . S
C1188 C1200 1.349 . S
C1189 C1187 1.327 . S
C1189 C1205 1.429 . S
C1189 H1211 0.950 . S
C1190 H1186 0.949 . S
C1190 C1198 1.574 . S
C1190 C1206 1.368 . S
H1191 C1199 0.950 . S
H1192 C1197 0.950 . S
H1193 C1198 0.949 . S
H1194 C1200 0.950 . S
H1195 C1201 0.950 . S
H1196 C1202 0.949 . S
C1197 H1192 0.950 . S
C1197 C1199 1.327 . S
C1197 C1203 1.429 . S
C1198 C1190 1.574 . S
C1198 H1193 0.949 . S
C1198 C1204 1.368 . S
C1199 C1183 1.349 . S
C1199 H1191 0.950 . S
C1199 C1197 1.327 . S
C1200 C1188 1.349 . S
C1200 H1194 0.950 . S
C1200 C1201 1.327 . S
C1201 H1195 0.950 . S
C1201 C1200 1.327 . S
C1201 C1205 1.429 . S
C1202 C1185 1.574 . S
C1202 H1196 0.949 . S
C1202 C1206 1.368 . S
C1203 C1184 1.429 . S
C1203 C1197 1.429 . S
C1203 C1204 1.523 . S
C1204 C1185 1.368 . S
C1204 C1198 1.368 . S
C1204 C1203 1.523 . S
C1205 C1189 1.429 . S
C1205 C1201 1.429 . S
C1205 C1206 1.523 . S
C1206 C1190 1.368 . S
C1206 C1202 1.368 . S
C1206 C1205 1.523 . S
H1207 C1182 0.950 . S
H1208 C1184 0.950 . S
H1209 C1185 0.949 . S
H1210 C1187 0.950 . S
H1211 C1189 0.950 . S
C1212 C1213 1.349 . S
C1212 C1214 1.327 . S
C1212 H1237 0.950 . S
C1213 C1212 1.349 . S
C1213 C1229 1.349 . S
C1214 C1212 1.327 . S
C1214 C1233 1.429 . S
C1214 H1238 0.950 . S
C1215 C1232 1.574 . S
C1215 C1234 1.368 . S
C1215 H1239 0.949 . S
H1216 C1220 0.949 . S
C1217 C1218 1.349 . S
C1217 C1219 1.327 . S
C1217 H1240 0.950 . S
C1218 C1217 1.349 . S
C1218 C1230 1.349 . S
C1219 C1217 1.327 . S
C1219 C1235 1.429 . S
C1219 H1241 0.950 . S
C1220 H1216 0.949 . S
C1220 C1228 1.574 . S
C1220 C1236 1.368 . S
H1221 C1229 0.950 . S
H1222 C1227 0.950 . S
H1223 C1228 0.949 . S
H1224 C1230 0.950 . S
H1225 C1231 0.950 . S
H1226 C1232 0.949 . S
C1227 H1222 0.950 . S
C1227 C1229 1.327 . S
C1227 C1233 1.429 . S
C1228 C1220 1.574 . S
C1228 H1223 0.949 . S
C1228 C1234 1.368 . S
C1229 C1213 1.349 . S
C1229 H1221 0.950 . S
C1229 C1227 1.327 . S
C1230 C1218 1.349 . S
C1230 H1224 0.950 . S
C1230 C1231 1.327 . S
C1231 H1225 0.950 . S
C1231 C1230 1.327 . S
C1231 C1235 1.429 . S
C1232 C1215 1.574 . S
C1232 H1226 0.949 . S
C1232 C1236 1.368 . S
C1233 C1214 1.429 . S
C1233 C1227 1.429 . S
C1233 C1234 1.523 . S
C1234 C1215 1.368 . S
C1234 C1228 1.368 . S
C1234 C1233 1.523 . S
C1235 C1219 1.429 . S
C1235 C1231 1.429 . S
C1235 C1236 1.523 . S
C1236 C1220 1.368 . S
C1236 C1232 1.368 . S
C1236 C1235 1.523 . S
H1237 C1212 0.950 . S
H1238 C1214 0.950 . S
H1239 C1215 0.949 . S
H1240 C1217 0.950 . S
H1241 C1219 0.950 . S
C1242 C1243 1.349 . S
C1242 C1244 1.327 . S
C1242 H1267 0.950 . S
C1243 C1242 1.349 . S
C1243 C1259 1.349 . S
C1244 C1242 1.327 . S
C1244 C1263 1.429 . S
C1244 H1268 0.950 . S
C1245 C1262 1.574 . S
C1245 C1264 1.368 . S
C1245 H1269 0.949 . S
H1246 C1250 0.949 . S
C1247 C1248 1.349 . S
C1247 C1249 1.327 . S
C1247 H1270 0.950 . S
C1248 C1247 1.349 . S
C1248 C1260 1.349 . S
C1249 C1247 1.327 . S
C1249 C1265 1.429 . S
C1249 H1271 0.950 . S
C1250 H1246 0.949 . S
C1250 C1258 1.574 . S
C1250 C1266 1.368 . S
H1251 C1259 0.950 . S
H1252 C1257 0.950 . S
H1253 C1258 0.949 . S
H1254 C1260 0.950 . S
H1255 C1261 0.950 . S
H1256 C1262 0.949 . S
C1257 H1252 0.950 . S
C1257 C1259 1.327 . S
C1257 C1263 1.429 . S
C1258 C1250 1.574 . S
C1258 H1253 0.949 . S
C1258 C1264 1.368 . S
C1259 C1243 1.349 . S
C1259 H1251 0.950 . S
C1259 C1257 1.327 . S
C1260 C1248 1.349 . S
C1260 H1254 0.950 . S
C1260 C1261 1.327 . S
C1261 H1255 0.950 . S
C1261 C1260 1.327 . S
C1261 C1265 1.429 . S
C1262 C1245 1.574 . S
C1262 H1256 0.949 . S
C1262 C1266 1.368 . S
C1263 C1244 1.429 . S
C1263 C1257 1.429 . S
C1263 C1264 1.523 . S
C1264 C1245 1.368 . S
C1264 C1258 1.368 . S
C1264 C1263 1.523 . S
C1265 C1249 1.429 . S
C1265 C1261 1.429 . S
C1265 C1266 1.523 . S
C1266 C1250 1.368 . S
C1266 C1262 1.368 . S
C1266 C1265 1.523 . S
H1267 C1242 0.950 . S
H1268 C1244 0.950 . S
H1269 C1245 0.949 . S
H1270 C1247 0.950 . S
H1271 C1249 0.950 . S
C1272 C1273 1.349 . S
C1272 C1274 1.327 . S
C1272 H1297 0.950 . S
C1273 C1272 1.349 . S
C1273 C1289 1.349 . S
C1274 C1272 1.327 . S
C1274 C1293 1.429 . S
C1274 H1298 0.950 . S
C1275 C1292 1.574 . S
C1275 C1294 1.368 . S
C1275 H1299 0.949 . S
H1276 C1280 0.949 . S
C1277 C1278 1.349 . S
C1277 C1279 1.327 . S
C1277 H1300 0.950 . S
C1278 C1277 1.349 . S
C1278 C1290 1.349 . S
C1279 C1277 1.327 . S
C1279 C1295 1.429 . S
C1279 H1301 0.950 . S
C1280 H1276 0.949 . S
C1280 C1288 1.574 . S
C1280 C1296 1.368 . S
H1281 C1289 0.950 . S
H1282 C1287 0.950 . S
H1283 C1288 0.949 . S
H1284 C1290 0.950 . S
H1285 C1291 0.950 . S
H1286 C1292 0.949 . S
C1287 H1282 0.950 . S
C1287 C1289 1.327 . S
C1287 C1293 1.429 . S
C1288 C1280 1.574 . S
C1288 H1283 0.949 . S
C1288 C1294 1.368 . S
C1289 C1273 1.349 . S
C1289 H1281 0.950 . S
C1289 C1287 1.327 . S
C1290 C1278 1.349 . S
C1290 H1284 0.950 . S
C1290 C1291 1.327 . S
C1291 H1285 0.950 . S
C1291 C1290 1.327 . S
C1291 C1295 1.429 . S
C1292 C1275 1.574 . S
C1292 H1286 0.949 . S
C1292 C1296 1.368 . S
C1293 C1274 1.429 . S
C1293 C1287 1.429 . S
C1293 C1294 1.523 . S
C1294 C1275 1.368 . S
C1294 C1288 1.368 . S
C1294 C1293 1.523 . S
C1295 C1279 1.429 . S
C1295 C1291 1.429 . S
C1295 C1296 1.523 . S
C1296 C1280 1.368 . S
C1296 C1292 1.368 . S
C1296 C1295 1.523 . S
H1297 C1272 0.950 . S
H1298 C1274 0.950 . S
H1299 C1275 0.949 . S
H1300 C1277 0.950 . S
H1301 C1279 0.950 . S
C1302 C1303 1.349 . S
C1302 C1304 1.327 . S
C1302 H1327 0.950 . S
C1303 C1302 1.349 . S
C1303 C1319 1.349 . S
C1304 C1302 1.327 . S
C1304 C1323 1.429 . S
C1304 H1328 0.950 . S
C1305 C1322 1.574 . S
C1305 C1324 1.368 . S
C1305 H1329 0.949 . S
H1306 C1310 0.949 . S
C1307 C1308 1.349 . S
C1307 C1309 1.327 . S
C1307 H1330 0.950 . S
C1308 C1307 1.349 . S
C1308 C1320 1.349 . S
C1309 C1307 1.327 . S
C1309 C1325 1.429 . S
C1309 H1331 0.950 . S
C1310 H1306 0.949 . S
C1310 C1318 1.574 . S
C1310 C1326 1.368 . S
H1311 C1319 0.950 . S
H1312 C1317 0.950 . S
H1313 C1318 0.949 . S
H1314 C1320 0.950 . S
H1315 C1321 0.950 . S
H1316 C1322 0.949 . S
C1317 H1312 0.950 . S
C1317 C1319 1.327 . S
C1317 C1323 1.429 . S
C1318 C1310 1.574 . S
C1318 H1313 0.949 . S
C1318 C1324 1.368 . S
C1319 C1303 1.349 . S
C1319 H1311 0.950 . S
C1319 C1317 1.327 . S
C1320 C1308 1.349 . S
C1320 H1314 0.950 . S
C1320 C1321 1.327 . S
C1321 H1315 0.950 . S
C1321 C1320 1.327 . S
C1321 C1325 1.429 . S
C1322 C1305 1.574 . S
C1322 H1316 0.949 . S
C1322 C1326 1.368 . S
C1323 C1304 1.429 . S
C1323 C1317 1.429 . S
C1323 C1324 1.523 . S
C1324 C1305 1.368 . S
C1324 C1318 1.368 . S
C1324 C1323 1.523 . S
C1325 C1309 1.429 . S
C1325 C1321 1.429 . S
C1325 C1326 1.523 . S
C1326 C1310 1.368 . S
C1326 C1322 1.368 . S
C1326 C1325 1.523 . S
H1327 C1302 0.950 . S
H1328 C1304 0.950 . S
H1329 C1305 0.949 . S
H1330 C1307 0.950 . S
H1331 C1309 0.950 . S
C1332 C1333 1.349 . S
C1332 C1334 1.327 . S
C1332 H1357 0.950 . S
C1333 C1332 1.349 . S
C1333 C1349 1.349 . S
C1334 C1332 1.327 . S
C1334 C1353 1.429 . S
C1334 H1358 0.950 . S
C1335 C1352 1.574 1_655 S
C1335 C1354 1.368 . S
C1335 H1359 0.949 . S
H1336 C1340 0.949 . S
C1337 C1338 1.349 . S
C1337 C1339 1.327 . S
C1337 H1360 0.950 . S
C1338 C1337 1.349 . S
C1338 C1350 1.349 . S
C1339 C1337 1.327 . S
C1339 C1355 1.429 . S
C1339 H1361 0.950 . S
C1340 H1336 0.949 . S
C1340 C1348 1.574 . S
C1340 C1356 1.368 . S
H1341 C1349 0.950 . S
H1342 C1347 0.950 . S
H1343 C1348 0.949 1_655 S
H1344 C1350 0.950 . S
H1345 C1351 0.950 . S
H1346 C1352 0.949 . S
C1347 H1342 0.950 . S
C1347 C1349 1.327 . S
C1347 C1353 1.429 . S
C1348 C1340 1.574 . S
C1348 H1343 0.949 1_455 S
C1348 C1354 1.368 1_455 S
C1349 C1333 1.349 . S
C1349 H1341 0.950 . S
C1349 C1347 1.327 . S
C1350 C1338 1.349 . S
C1350 H1344 0.950 . S
C1350 C1351 1.327 . S
C1351 H1345 0.950 . S
C1351 C1350 1.327 . S
C1351 C1355 1.429 . S
C1352 C1335 1.574 1_455 S
C1352 H1346 0.949 . S
C1352 C1356 1.368 . S
C1353 C1334 1.429 . S
C1353 C1347 1.429 . S
C1353 C1354 1.523 . S
C1354 C1335 1.368 . S
C1354 C1348 1.368 1_655 S
C1354 C1353 1.523 . S
C1355 C1339 1.429 . S
C1355 C1351 1.429 . S
C1355 C1356 1.523 . S
C1356 C1340 1.368 . S
C1356 C1352 1.368 . S
C1356 C1355 1.523 . S
H1357 C1332 0.950 . S
H1358 C1334 0.950 . S
H1359 C1335 0.949 . S
H1360 C1337 0.950 . S
H1361 C1339 0.950 . S
C1362 C1363 1.349 . S
C1362 C1364 1.327 . S
C1362 H1387 0.950 . S
C1363 C1362 1.349 . S
C1363 C1379 1.349 . S
C1364 C1362 1.327 . S
C1364 C1383 1.429 . S
C1364 H1388 0.950 . S
C1365 C1382 1.574 . S
C1365 C1384 1.368 . S
C1365 H1389 0.949 . S
H1366 C1370 0.949 . S
C1367 C1368 1.349 . S
C1367 C1369 1.327 . S
C1367 H1390 0.950 . S
C1368 C1367 1.349 . S
C1368 C1380 1.349 . S
C1369 C1367 1.327 . S
C1369 C1385 1.429 . S
C1369 H1391 0.950 . S
C1370 H1366 0.949 . S
C1370 C1378 1.574 . S
C1370 C1386 1.368 . S
H1371 C1379 0.950 . S
H1372 C1377 0.950 . S
H1373 C1378 0.949 . S
H1374 C1380 0.950 . S
H1375 C1381 0.950 . S
H1376 C1382 0.949 . S
C1377 H1372 0.950 . S
C1377 C1379 1.327 . S
C1377 C1383 1.429 . S
C1378 C1370 1.574 . S
C1378 H1373 0.949 . S
C1378 C1384 1.368 . S
C1379 C1363 1.349 . S
C1379 H1371 0.950 . S
C1379 C1377 1.327 . S
C1380 C1368 1.349 . S
C1380 H1374 0.950 . S
C1380 C1381 1.327 . S
C1381 H1375 0.950 . S
C1381 C1380 1.327 . S
C1381 C1385 1.429 . S
C1382 C1365 1.574 . S
C1382 H1376 0.949 . S
C1382 C1386 1.368 . S
C1383 C1364 1.429 . S
C1383 C1377 1.429 . S
C1383 C1384 1.523 . S
C1384 C1365 1.368 . S
C1384 C1378 1.368 . S
C1384 C1383 1.523 . S
C1385 C1369 1.429 . S
C1385 C1381 1.429 . S
C1385 C1386 1.523 . S
C1386 C1370 1.368 . S
C1386 C1382 1.368 . S
C1386 C1385 1.523 . S
H1387 C1362 0.950 . S
H1388 C1364 0.950 . S
H1389 C1365 0.949 . S
H1390 C1367 0.950 . S
H1391 C1369 0.950 . S
C1392 C1393 1.349 . S
C1392 C1394 1.327 . S
C1392 H1417 0.950 . S
C1393 C1392 1.349 . S
C1393 C1409 1.349 . S
C1394 C1392 1.327 . S
C1394 C1413 1.429 . S
C1394 H1418 0.950 . S
C1395 C1412 1.574 . S
C1395 C1414 1.368 1_545 S
C1395 H1419 0.950 1_545 S
H1396 C1400 0.949 . S
C1397 C1398 1.349 . S
C1397 C1399 1.327 . S
C1397 H1420 0.950 . S
C1398 C1397 1.349 . S
C1398 C1410 1.349 . S
C1399 C1397 1.327 . S
C1399 C1415 1.429 . S
C1399 H1421 0.950 . S
C1400 H1396 0.949 . S
C1400 C1408 1.574 1_545 S
C1400 C1416 1.368 . S
H1401 C1409 0.950 . S
H1402 C1407 0.950 . S
H1403 C1408 0.949 . S
H1404 C1410 0.950 . S
H1405 C1411 0.950 . S
H1406 C1412 0.949 . S
C1407 H1402 0.950 . S
C1407 C1409 1.327 . S
C1407 C1413 1.429 . S
C1408 C1400 1.574 1_565 S
C1408 H1403 0.949 . S
C1408 C1414 1.368 . S
C1409 C1393 1.349 . S
C1409 H1401 0.950 . S
C1409 C1407 1.327 . S
C1410 C1398 1.349 . S
C1410 H1404 0.950 . S
C1410 C1411 1.327 . S
C1411 H1405 0.950 . S
C1411 C1410 1.327 . S
C1411 C1415 1.429 . S
C1412 C1395 1.574 . S
C1412 H1406 0.949 . S
C1412 C1416 1.368 . S
C1413 C1394 1.429 . S
C1413 C1407 1.429 . S
C1413 C1414 1.523 . S
C1414 C1395 1.368 1_565 S
C1414 C1408 1.368 . S
C1414 C1413 1.523 . S
C1415 C1399 1.429 . S
C1415 C1411 1.429 . S
C1415 C1416 1.523 . S
C1416 C1400 1.368 . S
C1416 C1412 1.368 . S
C1416 C1415 1.523 . S
H1417 C1392 0.950 . S
H1418 C1394 0.950 . S
H1419 C1395 0.950 1_565 S
H1420 C1397 0.950 . S
H1421 C1399 0.950 . S
C1422 C1423 1.349 . S
C1422 C1424 1.327 . S
C1422 H1447 0.950 . S
C1423 C1422 1.349 . S
C1423 C1439 1.349 1_545 S
C1424 C1422 1.327 . S
C1424 C1443 1.429 . S
C1424 H1448 0.950 . S
C1425 C1442 1.574 . S
C1425 C1444 1.368 1_565 S
C1425 H1449 0.949 . S
H1426 C1430 0.949 . S
C1427 C1428 1.349 1_565 S
C1427 C1429 1.327 . S
C1427 H1450 0.950 . S
C1428 C1427 1.349 1_545 S
C1428 C1440 1.349 . S
C1429 C1427 1.327 . S
C1429 C1445 1.429 1_565 S
C1429 H1451 0.950 . S
C1430 H1426 0.949 . S
C1430 C1438 1.574 . S
C1430 C1446 1.368 . S
H1431 C1439 0.950 . S
H1432 C1437 0.950 . S
H1433 C1438 0.949 . S
H1434 C1440 0.950 . S
H1435 C1441 0.950 . S
H1436 C1442 0.949 . S
C1437 H1432 0.950 . S
C1437 C1439 1.327 . S
C1437 C1443 1.429 1_565 S
C1438 C1430 1.574 . S
C1438 H1433 0.949 . S
C1438 C1444 1.368 . S
C1439 C1423 1.349 1_565 S
C1439 H1431 0.950 . S
C1439 C1437 1.327 . S
C1440 C1428 1.349 . S
C1440 H1434 0.950 . S
C1440 C1441 1.327 . S
C1441 H1435 0.950 . S
C1441 C1440 1.327 . S
C1441 C1445 1.429 . S
C1442 C1425 1.574 . S
C1442 H1436 0.949 . S
C1442 C1446 1.368 1_565 S
C1443 C1424 1.429 . S
C1443 C1437 1.429 1_545 S
C1443 C1444 1.523 . S
C1444 C1425 1.368 1_545 S
C1444 C1438 1.368 . S
C1444 C1443 1.523 . S
C1445 C1429 1.429 1_545 S
C1445 C1441 1.429 . S
C1445 C1446 1.523 . S
C1446 C1430 1.368 . S
C1446 C1442 1.368 1_545 S
C1446 C1445 1.523 . S
H1447 C1422 0.950 . S
H1448 C1424 0.950 . S
H1449 C1425 0.949 . S
H1450 C1427 0.950 . S
H1451 C1429 0.950 . S
C1452 C1453 1.349 1_655 S
C1452 C1454 1.327 . S
C1452 H1477 0.950 . S
C1453 C1452 1.349 1_455 S
C1453 C1469 1.349 . S
C1454 C1452 1.327 . S
C1454 C1473 1.429 1_655 S
C1454 H1478 0.950 . S
C1455 C1472 1.574 . S
C1455 C1474 1.368 . S
C1455 H1479 0.949 . S
H1456 C1460 0.949 . S
C1457 C1458 1.349 . S
C1457 C1459 1.327 . S
C1457 H1480 0.950 . S
C1458 C1457 1.349 . S
C1458 C1470 1.349 1_455 S
C1459 C1457 1.327 . S
C1459 C1475 1.429 . S
C1459 H1481 0.950 . S
C1460 H1456 0.949 . S
C1460 C1468 1.574 . S
C1460 C1476 1.368 1_655 S
H1461 C1469 0.950 . S
H1462 C1467 0.950 . S
H1463 C1468 0.949 . S
H1464 C1470 0.950 . S
H1465 C1471 0.950 . S
H1466 C1472 0.949 . S
C1467 H1462 0.950 . S
C1467 C1469 1.327 . S
C1467 C1473 1.429 . S
C1468 C1460 1.574 . S
C1468 H1463 0.949 . S
C1468 C1474 1.368 1_655 S
C1469 C1453 1.349 . S
C1469 H1461 0.950 . S
C1469 C1467 1.327 . S
C1470 C1458 1.349 1_655 S
C1470 H1464 0.950 . S
C1470 C1471 1.327 . S
C1471 H1465 0.950 . S
C1471 C1470 1.327 . S
C1471 C1475 1.429 1_655 S
C1472 C1455 1.574 . S
C1472 H1466 0.949 . S
C1472 C1476 1.368 . S
C1473 C1454 1.429 1_455 S
C1473 C1467 1.429 . S
C1473 C1474 1.523 . S
C1474 C1455 1.368 . S
C1474 C1468 1.368 1_455 S
C1474 C1473 1.523 . S
C1475 C1459 1.429 . S
C1475 C1471 1.429 1_455 S
C1475 C1476 1.523 . S
C1476 C1460 1.368 1_455 S
C1476 C1472 1.368 . S
C1476 C1475 1.523 . S
H1477 C1452 0.950 . S
H1478 C1454 0.950 . S
H1479 C1455 0.949 . S
H1480 C1457 0.950 . S
H1481 C1459 0.950 . S
C1482 C1483 1.349 . S
C1482 C1484 1.327 . S
C1482 H1507 0.950 . S
C1483 C1482 1.349 . S
C1483 C1499 1.349 . S
C1484 C1482 1.327 . S
C1484 C1503 1.429 . S
C1484 H1508 0.950 . S
C1485 C1502 1.574 . S
C1485 C1504 1.368 . S
C1485 H1509 0.949 . S
H1486 C1490 0.949 . S
C1487 C1488 1.349 . S
C1487 C1489 1.327 . S
C1487 H1510 0.950 . S
C1488 C1487 1.349 . S
C1488 C1500 1.349 . S
C1489 C1487 1.327 . S
C1489 C1505 1.429 . S
C1489 H1511 0.950 . S
C1490 H1486 0.949 . S
C1490 C1498 1.574 . S
C1490 C1506 1.368 . S
H1491 C1499 0.950 . S
H1492 C1497 0.950 . S
H1493 C1498 0.949 . S
H1494 C1500 0.950 . S
H1495 C1501 0.950 . S
H1496 C1502 0.949 . S
C1497 H1492 0.950 . S
C1497 C1499 1.327 . S
C1497 C1503 1.429 . S
C1498 C1490 1.574 . S
C1498 H1493 0.949 . S
C1498 C1504 1.368 . S
C1499 C1483 1.349 . S
C1499 H1491 0.950 . S
C1499 C1497 1.327 . S
C1500 C1488 1.349 . S
C1500 H1494 0.950 . S
C1500 C1501 1.327 . S
C1501 H1495 0.950 . S
C1501 C1500 1.327 . S
C1501 C1505 1.429 . S
C1502 C1485 1.574 . S
C1502 H1496 0.949 . S
C1502 C1506 1.368 . S
C1503 C1484 1.429 . S
C1503 C1497 1.429 . S
C1503 C1504 1.523 . S
C1504 C1485 1.368 . S
C1504 C1498 1.368 . S
C1504 C1503 1.523 . S
C1505 C1489 1.429 . S
C1505 C1501 1.429 . S
C1505 C1506 1.523 . S
C1506 C1490 1.368 . S
C1506 C1502 1.368 . S
C1506 C1505 1.523 . S
H1507 C1482 0.950 . S
H1508 C1484 0.950 . S
H1509 C1485 0.949 . S
H1510 C1487 0.950 . S
H1511 C1489 0.950 . S
C1512 C1513 1.349 . S
C1512 C1514 1.327 . S
C1512 H1537 0.950 . S
C1513 C1512 1.349 . S
C1513 C1529 1.349 . S
C1514 C1512 1.327 . S
C1514 C1533 1.429 . S
C1514 H1538 0.950 . S
C1515 C1532 1.574 . S
C1515 C1534 1.368 . S
C1515 H1539 0.949 . S
H1516 C1520 0.949 . S
C1517 C1518 1.349 . S
C1517 C1519 1.327 . S
C1517 H1540 0.950 . S
C1518 C1517 1.349 . S
C1518 C1530 1.349 . S
C1519 C1517 1.327 . S
C1519 C1535 1.429 . S
C1519 H1541 0.950 . S
C1520 H1516 0.949 . S
C1520 C1528 1.574 . S
C1520 C1536 1.368 . S
H1521 C1529 0.950 . S
H1522 C1527 0.950 . S
H1523 C1528 0.949 . S
H1524 C1530 0.950 . S
H1525 C1531 0.950 . S
H1526 C1532 0.949 . S
C1527 H1522 0.950 . S
C1527 C1529 1.327 . S
C1527 C1533 1.429 . S
C1528 C1520 1.574 . S
C1528 H1523 0.949 . S
C1528 C1534 1.368 . S
C1529 C1513 1.349 . S
C1529 H1521 0.950 . S
C1529 C1527 1.327 . S
C1530 C1518 1.349 . S
C1530 H1524 0.950 . S
C1530 C1531 1.327 . S
C1531 H1525 0.950 . S
C1531 C1530 1.327 . S
C1531 C1535 1.429 . S
C1532 C1515 1.574 . S
C1532 H1526 0.949 . S
C1532 C1536 1.368 . S
C1533 C1514 1.429 . S
C1533 C1527 1.429 . S
C1533 C1534 1.523 . S
C1534 C1515 1.368 . S
C1534 C1528 1.368 . S
C1534 C1533 1.523 . S
C1535 C1519 1.429 . S
C1535 C1531 1.429 . S
C1535 C1536 1.523 . S
C1536 C1520 1.368 . S
C1536 C1532 1.368 . S
C1536 C1535 1.523 . S
H1537 C1512 0.950 . S
H1538 C1514 0.950 . S
H1539 C1515 0.949 . S
H1540 C1517 0.950 . S
H1541 C1519 0.950 . S
C1542 C1543 1.349 . S
C1542 C1544 1.327 . S
C1542 H1567 0.950 . S
C1543 C1542 1.349 . S
C1543 C1559 1.349 . S
C1544 C1542 1.327 . S
C1544 C1563 1.429 . S
C1544 H1568 0.950 . S
C1545 C1562 1.574 . S
C1545 C1564 1.368 . S
C1545 H1569 0.949 . S
H1546 C1550 0.949 . S
C1547 C1548 1.349 . S
C1547 C1549 1.327 . S
C1547 H1570 0.950 . S
C1548 C1547 1.349 . S
C1548 C1560 1.349 . S
C1549 C1547 1.327 . S
C1549 C1565 1.429 . S
C1549 H1571 0.950 . S
C1550 H1546 0.949 . S
C1550 C1558 1.574 . S
C1550 C1566 1.368 . S
H1551 C1559 0.950 . S
H1552 C1557 0.950 . S
H1553 C1558 0.949 . S
H1554 C1560 0.950 . S
H1555 C1561 0.950 . S
H1556 C1562 0.949 . S
C1557 H1552 0.950 . S
C1557 C1559 1.327 . S
C1557 C1563 1.429 . S
C1558 C1550 1.574 . S
C1558 H1553 0.949 . S
C1558 C1564 1.368 . S
C1559 C1543 1.349 . S
C1559 H1551 0.950 . S
C1559 C1557 1.327 . S
C1560 C1548 1.349 . S
C1560 H1554 0.950 . S
C1560 C1561 1.327 . S
C1561 H1555 0.950 . S
C1561 C1560 1.327 . S
C1561 C1565 1.429 . S
C1562 C1545 1.574 . S
C1562 H1556 0.949 . S
C1562 C1566 1.368 . S
C1563 C1544 1.429 . S
C1563 C1557 1.429 . S
C1563 C1564 1.523 . S
C1564 C1545 1.368 . S
C1564 C1558 1.368 . S
C1564 C1563 1.523 . S
C1565 C1549 1.429 . S
C1565 C1561 1.429 . S
C1565 C1566 1.523 . S
C1566 C1550 1.368 . S
C1566 C1562 1.368 . S
C1566 C1565 1.523 . S
H1567 C1542 0.950 . S
H1568 C1544 0.950 . S
H1569 C1545 0.949 . S
H1570 C1547 0.950 . S
H1571 C1549 0.950 . S
C1572 C1573 1.349 . S
C1572 C1574 1.327 . S
C1572 H1597 0.950 . S
C1573 C1572 1.349 . S
C1573 C1589 1.349 . S
C1574 C1572 1.327 . S
C1574 C1593 1.429 . S
C1574 H1598 0.950 . S
C1575 C1592 1.574 . S
C1575 C1594 1.368 . S
C1575 H1599 0.949 . S
H1576 C1580 0.949 . S
C1577 C1578 1.349 . S
C1577 C1579 1.327 . S
C1577 H1600 0.950 . S
C1578 C1577 1.349 . S
C1578 C1590 1.349 . S
C1579 C1577 1.327 . S
C1579 C1595 1.429 . S
C1579 H1601 0.950 . S
C1580 H1576 0.949 . S
C1580 C1588 1.574 . S
C1580 C1596 1.368 . S
H1581 C1589 0.950 . S
H1582 C1587 0.950 . S
H1583 C1588 0.949 . S
H1584 C1590 0.950 . S
H1585 C1591 0.950 . S
H1586 C1592 0.949 . S
C1587 H1582 0.950 . S
C1587 C1589 1.327 . S
C1587 C1593 1.429 . S
C1588 C1580 1.574 . S
C1588 H1583 0.949 . S
C1588 C1594 1.368 . S
C1589 C1573 1.349 . S
C1589 H1581 0.950 . S
C1589 C1587 1.327 . S
C1590 C1578 1.349 . S
C1590 H1584 0.950 . S
C1590 C1591 1.327 . S
C1591 H1585 0.950 . S
C1591 C1590 1.327 . S
C1591 C1595 1.429 . S
C1592 C1575 1.574 . S
C1592 H1586 0.949 . S
C1592 C1596 1.368 . S
C1593 C1574 1.429 . S
C1593 C1587 1.429 . S
C1593 C1594 1.523 . S
C1594 C1575 1.368 . S
C1594 C1588 1.368 . S
C1594 C1593 1.523 . S
C1595 C1579 1.429 . S
C1595 C1591 1.429 . S
C1595 C1596 1.523 . S
C1596 C1580 1.368 . S
C1596 C1592 1.368 . S
C1596 C1595 1.523 . S
H1597 C1572 0.950 . S
H1598 C1574 0.950 . S
H1599 C1575 0.949 . S
H1600 C1577 0.950 . S
H1601 C1579 0.950 . S
C1602 C1603 1.349 . S
C1602 C1604 1.327 . S
C1602 H1627 0.950 . S
C1603 C1602 1.349 . S
C1603 C1619 1.349 . S
C1604 C1602 1.327 . S
C1604 C1623 1.429 . S
C1604 H1628 0.950 . S
C1605 C1622 1.574 . S
C1605 C1624 1.368 . S
C1605 H1629 0.949 . S
H1606 C1610 0.949 . S
C1607 C1608 1.349 . S
C1607 C1609 1.327 . S
C1607 H1630 0.950 . S
C1608 C1607 1.349 . S
C1608 C1620 1.349 . S
C1609 C1607 1.327 . S
C1609 C1625 1.429 . S
C1609 H1631 0.950 . S
C1610 H1606 0.949 . S
C1610 C1618 1.574 . S
C1610 C1626 1.368 . S
H1611 C1619 0.950 . S
H1612 C1617 0.950 . S
H1613 C1618 0.949 . S
H1614 C1620 0.950 . S
H1615 C1621 0.950 . S
H1616 C1622 0.949 . S
C1617 H1612 0.950 . S
C1617 C1619 1.327 . S
C1617 C1623 1.429 . S
C1618 C1610 1.574 . S
C1618 H1613 0.949 . S
C1618 C1624 1.368 . S
C1619 C1603 1.349 . S
C1619 H1611 0.950 . S
C1619 C1617 1.327 . S
C1620 C1608 1.349 . S
C1620 H1614 0.950 . S
C1620 C1621 1.327 . S
C1621 H1615 0.950 . S
C1621 C1620 1.327 . S
C1621 C1625 1.429 . S
C1622 C1605 1.574 . S
C1622 H1616 0.949 . S
C1622 C1626 1.368 . S
C1623 C1604 1.429 . S
C1623 C1617 1.429 . S
C1623 C1624 1.523 . S
C1624 C1605 1.368 . S
C1624 C1618 1.368 . S
C1624 C1623 1.523 . S
C1625 C1609 1.429 . S
C1625 C1621 1.429 . S
C1625 C1626 1.523 . S
C1626 C1610 1.368 . S
C1626 C1622 1.368 . S
C1626 C1625 1.523 . S
H1627 C1602 0.950 . S
H1628 C1604 0.950 . S
H1629 C1605 0.949 . S
H1630 C1607 0.950 . S
H1631 C1609 0.950 . S
C1632 C1633 1.349 . S
C1632 C1634 1.327 . S
C1632 H1657 0.950 . S
C1633 C1632 1.349 . S
C1633 C1649 1.349 . S
C1634 C1632 1.327 . S
C1634 C1653 1.429 . S
C1634 H1658 0.950 . S
C1635 C1652 1.574 . S
C1635 C1654 1.368 . S
C1635 H1659 0.949 . S
H1636 C1640 0.949 . S
C1637 C1638 1.349 . S
C1637 C1639 1.327 . S
C1637 H1660 0.950 . S
C1638 C1637 1.349 . S
C1638 C1650 1.349 . S
C1639 C1637 1.327 . S
C1639 C1655 1.429 . S
C1639 H1661 0.950 . S
C1640 H1636 0.949 . S
C1640 C1648 1.574 . S
C1640 C1656 1.368 . S
H1641 C1649 0.950 . S
H1642 C1647 0.950 . S
H1643 C1648 0.949 . S
H1644 C1650 0.950 . S
H1645 C1651 0.950 . S
H1646 C1652 0.949 . S
C1647 H1642 0.950 . S
C1647 C1649 1.327 . S
C1647 C1653 1.429 . S
C1648 C1640 1.574 . S
C1648 H1643 0.949 . S
C1648 C1654 1.368 . S
C1649 C1633 1.349 . S
C1649 H1641 0.950 . S
C1649 C1647 1.327 . S
C1650 C1638 1.349 . S
C1650 H1644 0.950 . S
C1650 C1651 1.327 . S
C1651 H1645 0.950 . S
C1651 C1650 1.327 . S
C1651 C1655 1.429 . S
C1652 C1635 1.574 . S
C1652 H1646 0.949 . S
C1652 C1656 1.368 . S
C1653 C1634 1.429 . S
C1653 C1647 1.429 . S
C1653 C1654 1.523 . S
C1654 C1635 1.368 . S
C1654 C1648 1.368 . S
C1654 C1653 1.523 . S
C1655 C1639 1.429 . S
C1655 C1651 1.429 . S
C1655 C1656 1.523 . S
C1656 C1640 1.368 . S
C1656 C1652 1.368 . S
C1656 C1655 1.523 . S
H1657 C1632 0.950 . S
H1658 C1634 0.950 . S
H1659 C1635 0.949 . S
H1660 C1637 0.950 . S
H1661 C1639 0.950 . S
C1662 C1663 1.349 . S
C1662 C1664 1.327 . S
C1662 H1687 0.950 . S
C1663 C1662 1.349 . S
C1663 C1679 1.349 . S
C1664 C1662 1.327 . S
C1664 C1683 1.429 . S
C1664 H1688 0.950 . S
C1665 C1682 1.574 . S
C1665 C1684 1.368 . S
C1665 H1689 0.949 . S
H1666 C1670 0.949 . S
C1667 C1668 1.349 . S
C1667 C1669 1.327 . S
C1667 H1690 0.950 . S
C1668 C1667 1.349 . S
C1668 C1680 1.349 . S
C1669 C1667 1.327 . S
C1669 C1685 1.429 . S
C1669 H1691 0.950 . S
C1670 H1666 0.949 . S
C1670 C1678 1.574 . S
C1670 C1686 1.368 . S
H1671 C1679 0.950 . S
H1672 C1677 0.950 . S
H1673 C1678 0.949 . S
H1674 C1680 0.950 . S
H1675 C1681 0.950 . S
H1676 C1682 0.949 . S
C1677 H1672 0.950 . S
C1677 C1679 1.327 . S
C1677 C1683 1.429 . S
C1678 C1670 1.574 . S
C1678 H1673 0.949 . S
C1678 C1684 1.368 . S
C1679 C1663 1.349 . S
C1679 H1671 0.950 . S
C1679 C1677 1.327 . S
C1680 C1668 1.349 . S
C1680 H1674 0.950 . S
C1680 C1681 1.327 . S
C1681 H1675 0.950 . S
C1681 C1680 1.327 . S
C1681 C1685 1.429 . S
C1682 C1665 1.574 . S
C1682 H1676 0.949 . S
C1682 C1686 1.368 . S
C1683 C1664 1.429 . S
C1683 C1677 1.429 . S
C1683 C1684 1.523 . S
C1684 C1665 1.368 . S
C1684 C1678 1.368 . S
C1684 C1683 1.523 . S
C1685 C1669 1.429 . S
C1685 C1681 1.429 . S
C1685 C1686 1.523 . S
C1686 C1670 1.368 . S
C1686 C1682 1.368 . S
C1686 C1685 1.523 . S
H1687 C1662 0.950 . S
H1688 C1664 0.950 . S
H1689 C1665 0.949 . S
H1690 C1667 0.950 . S
H1691 C1669 0.950 . S
C1692 C1693 1.349 1_545 S
C1692 C1694 1.327 . S
C1692 H1717 0.950 . S
C1693 C1692 1.349 1_565 S
C1693 C1709 1.349 . S
C1694 C1692 1.327 . S
C1694 C1713 1.429 . S
C1694 H1718 0.950 . S
C1695 C1712 1.574 1_554 S
C1695 C1714 1.368 1_565 S
C1695 H1719 0.949 . S
H1696 C1700 0.949 . S
C1697 C1698 1.349 . S
C1697 C1699 1.327 . S
C1697 H1720 0.950 1_545 S
C1698 C1697 1.349 . S
C1698 C1710 1.349 . S
C1699 C1697 1.327 . S
C1699 C1715 1.429 . S
C1699 H1721 0.950 1_545 S
C1700 H1696 0.949 . S
C1700 C1708 1.574 1_556 S
C1700 C1716 1.368 . S
H1701 C1709 0.950 . S
H1702 C1707 0.950 . S
H1703 C1708 0.949 . S
H1704 C1710 0.950 . S
H1705 C1711 0.950 . S
H1706 C1712 0.949 . S
C1707 H1702 0.950 . S
C1707 C1709 1.327 . S
C1707 C1713 1.429 1_565 S
C1708 C1700 1.574 1_554 S
C1708 H1703 0.949 . S
C1708 C1714 1.368 . S
C1709 C1693 1.349 . S
C1709 H1701 0.950 . S
C1709 C1707 1.327 . S
C1710 C1698 1.349 . S
C1710 H1704 0.950 . S
C1710 C1711 1.327 . S
C1711 H1705 0.950 . S
C1711 C1710 1.327 . S
C1711 C1715 1.429 . S
C1712 C1695 1.574 1_556 S
C1712 H1706 0.949 . S
C1712 C1716 1.368 1_565 S
C1713 C1694 1.429 . S
C1713 C1707 1.429 1_545 S
C1713 C1714 1.523 . S
C1714 C1695 1.368 1_545 S
C1714 C1708 1.368 . S
C1714 C1713 1.523 . S
C1715 C1699 1.429 . S
C1715 C1711 1.429 . S
C1715 C1716 1.523 . S
C1716 C1700 1.368 . S
C1716 C1712 1.368 1_545 S
C1716 C1715 1.523 . S
H1717 C1692 0.950 . S
H1718 C1694 0.950 . S
H1719 C1695 0.949 . S
H1720 C1697 0.950 1_565 S
H1721 C1699 0.950 1_565 S
C1722 C1723 1.349 . S
C1722 C1724 1.327 . S
C1722 H1747 0.950 . S
C1723 C1722 1.349 . S
C1723 C1739 1.349 . S
C1724 C1722 1.327 . S
C1724 C1743 1.429 . S
C1724 H1748 0.950 . S
C1725 C1742 1.574 1_554 S
C1725 C1744 1.368 1_655 S
C1725 H1749 0.949 . S
H1726 C1730 0.949 . S
C1727 C1728 1.349 . S
C1727 C1729 1.327 . S
C1727 H1750 0.950 . S
C1728 C1727 1.349 . S
C1728 C1740 1.349 1_655 S
C1729 C1727 1.327 . S
C1729 C1745 1.429 1_655 S
C1729 H1751 0.950 . S
C1730 H1726 0.949 . S
C1730 C1738 1.574 1_556 S
C1730 C1746 1.368 . S
H1731 C1739 0.950 1_655 S
H1732 C1737 0.950 . S
H1733 C1738 0.949 . S
H1734 C1740 0.950 . S
H1735 C1741 0.950 . S
H1736 C1742 0.949 . S
C1737 H1732 0.950 . S
C1737 C1739 1.327 1_655 S
C1737 C1743 1.429 1_655 S
C1738 C1730 1.574 1_554 S
C1738 H1733 0.949 . S
C1738 C1744 1.368 . S
C1739 C1723 1.349 . S
C1739 H1731 0.950 1_455 S
C1739 C1737 1.327 1_455 S
C1740 C1728 1.349 1_455 S
C1740 H1734 0.950 . S
C1740 C1741 1.327 . S
C1741 H1735 0.950 . S
C1741 C1740 1.327 . S
C1741 C1745 1.429 . S
C1742 C1725 1.574 1_556 S
C1742 H1736 0.949 . S
C1742 C1746 1.368 1_655 S
C1743 C1724 1.429 . S
C1743 C1737 1.429 1_455 S
C1743 C1744 1.523 . S
C1744 C1725 1.368 1_455 S
C1744 C1738 1.368 . S
C1744 C1743 1.523 . S
C1745 C1729 1.429 1_455 S
C1745 C1741 1.429 . S
C1745 C1746 1.523 . S
C1746 C1730 1.368 . S
C1746 C1742 1.368 1_455 S
C1746 C1745 1.523 . S
H1747 C1722 0.950 . S
H1748 C1724 0.950 . S
H1749 C1725 0.949 . S
H1750 C1727 0.950 . S
H1751 C1729 0.950 . S
C1752 C1753 1.349 . S
C1752 C1754 1.327 . S
C1752 H1777 0.950 . S
C1753 C1752 1.349 . S
C1753 C1769 1.349 . S
C1754 C1752 1.327 . S
C1754 C1773 1.429 . S
C1754 H1778 0.950 . S
C1755 C1772 1.574 1_556 S
C1755 C1774 1.368 . S
C1755 H1779 0.949 . S
H1756 C1760 0.949 . S
C1757 C1758 1.349 . S
C1757 C1759 1.327 . S
C1757 H1780 0.950 . S
C1758 C1757 1.349 . S
C1758 C1770 1.349 . S
C1759 C1757 1.327 . S
C1759 C1775 1.429 . S
C1759 H1781 0.950 . S
C1760 H1756 0.949 . S
C1760 C1768 1.574 1_554 S
C1760 C1776 1.368 . S
H1761 C1769 0.950 . S
H1762 C1767 0.950 . S
H1763 C1768 0.949 . S
H1764 C1770 0.950 . S
H1765 C1771 0.950 . S
H1766 C1772 0.949 . S
C1767 H1762 0.950 . S
C1767 C1769 1.327 . S
C1767 C1773 1.429 . S
C1768 C1760 1.574 1_556 S
C1768 H1763 0.949 . S
C1768 C1774 1.368 . S
C1769 C1753 1.349 . S
C1769 H1761 0.950 . S
C1769 C1767 1.327 . S
C1770 C1758 1.349 . S
C1770 H1764 0.950 . S
C1770 C1771 1.327 . S
C1771 H1765 0.950 . S
C1771 C1770 1.327 . S
C1771 C1775 1.429 . S
C1772 C1755 1.574 1_554 S
C1772 H1766 0.949 . S
C1772 C1776 1.368 . S
C1773 C1754 1.429 . S
C1773 C1767 1.429 . S
C1773 C1774 1.523 . S
C1774 C1755 1.368 . S
C1774 C1768 1.368 . S
C1774 C1773 1.523 . S
C1775 C1759 1.429 . S
C1775 C1771 1.429 . S
C1775 C1776 1.523 . S
C1776 C1760 1.368 . S
C1776 C1772 1.368 . S
C1776 C1775 1.523 . S
H1777 C1752 0.950 . S
H1778 C1754 0.950 . S
H1779 C1755 0.949 . S
H1780 C1757 0.950 . S
H1781 C1759 0.950 . S
C1782 C1783 1.349 . S
C1782 C1784 1.327 . S
C1782 H1807 0.950 . S
C1783 C1782 1.349 . S
C1783 C1799 1.349 . S
C1784 C1782 1.327 . S
C1784 C1803 1.429 . S
C1784 H1808 0.950 . S
C1785 C1802 1.574 . S
C1785 C1804 1.368 . S
C1785 H1809 0.949 . S
H1786 C1790 0.949 . S
C1787 C1788 1.349 . S
C1787 C1789 1.327 . S
C1787 H1810 0.950 . S
C1788 C1787 1.349 . S
C1788 C1800 1.349 . S
C1789 C1787 1.327 . S
C1789 C1805 1.429 . S
C1789 H1811 0.950 . S
C1790 H1786 0.949 . S
C1790 C1798 1.574 . S
C1790 C1806 1.368 . S
H1791 C1799 0.950 . S
H1792 C1797 0.950 . S
H1793 C1798 0.949 . S
H1794 C1800 0.950 . S
H1795 C1801 0.950 . S
H1796 C1802 0.949 . S
C1797 H1792 0.950 . S
C1797 C1799 1.327 . S
C1797 C1803 1.429 . S
C1798 C1790 1.574 . S
C1798 H1793 0.949 . S
C1798 C1804 1.368 . S
C1799 C1783 1.349 . S
C1799 H1791 0.950 . S
C1799 C1797 1.327 . S
C1800 C1788 1.349 . S
C1800 H1794 0.950 . S
C1800 C1801 1.327 . S
C1801 H1795 0.950 . S
C1801 C1800 1.327 . S
C1801 C1805 1.429 . S
C1802 C1785 1.574 . S
C1802 H1796 0.949 . S
C1802 C1806 1.368 . S
C1803 C1784 1.429 . S
C1803 C1797 1.429 . S
C1803 C1804 1.523 . S
C1804 C1785 1.368 . S
C1804 C1798 1.368 . S
C1804 C1803 1.523 . S
C1805 C1789 1.429 . S
C1805 C1801 1.429 . S
C1805 C1806 1.523 . S
C1806 C1790 1.368 . S
C1806 C1802 1.368 . S
C1806 C1805 1.523 . S
H1807 C1782 0.950 . S
H1808 C1784 0.950 . S
H1809 C1785 0.949 . S
H1810 C1787 0.950 . S
H1811 C1789 0.950 . S
C1812 C1813 1.349 . S
C1812 C1814 1.327 . S
C1812 H1837 0.950 . S
C1813 C1812 1.349 . S
C1813 C1829 1.349 . S
C1814 C1812 1.327 . S
C1814 C1833 1.429 . S
C1814 H1838 0.950 . S
C1815 C1832 1.574 . S
C1815 C1834 1.368 . S
C1815 H1839 0.949 . S
H1816 C1820 0.949 . S
C1817 C1818 1.349 . S
C1817 C1819 1.327 . S
C1817 H1840 0.950 . S
C1818 C1817 1.349 . S
C1818 C1830 1.349 . S
C1819 C1817 1.327 . S
C1819 C1835 1.429 . S
C1819 H1841 0.950 . S
C1820 H1816 0.949 . S
C1820 C1828 1.574 . S
C1820 C1836 1.368 . S
H1821 C1829 0.950 . S
H1822 C1827 0.950 . S
H1823 C1828 0.949 . S
H1824 C1830 0.950 . S
H1825 C1831 0.950 . S
H1826 C1832 0.949 . S
C1827 H1822 0.950 . S
C1827 C1829 1.327 . S
C1827 C1833 1.429 . S
C1828 C1820 1.574 . S
C1828 H1823 0.949 . S
C1828 C1834 1.368 . S
C1829 C1813 1.349 . S
C1829 H1821 0.950 . S
C1829 C1827 1.327 . S
C1830 C1818 1.349 . S
C1830 H1824 0.950 . S
C1830 C1831 1.327 . S
C1831 H1825 0.950 . S
C1831 C1830 1.327 . S
C1831 C1835 1.429 . S
C1832 C1815 1.574 . S
C1832 H1826 0.949 . S
C1832 C1836 1.368 . S
C1833 C1814 1.429 . S
C1833 C1827 1.429 . S
C1833 C1834 1.523 . S
C1834 C1815 1.368 . S
C1834 C1828 1.368 . S
C1834 C1833 1.523 . S
C1835 C1819 1.429 . S
C1835 C1831 1.429 . S
C1835 C1836 1.523 . S
C1836 C1820 1.368 . S
C1836 C1832 1.368 . S
C1836 C1835 1.523 . S
H1837 C1812 0.950 . S
H1838 C1814 0.950 . S
H1839 C1815 0.949 . S
H1840 C1817 0.950 . S
H1841 C1819 0.950 . S
C1842 C1843 1.349 . S
C1842 C1844 1.327 . S
C1842 H1867 0.950 . S
C1843 C1842 1.349 . S
C1843 C1859 1.349 . S
C1844 C1842 1.327 . S
C1844 C1863 1.429 . S
C1844 H1868 0.950 . S
C1845 C1862 1.574 . S
C1845 C1864 1.368 . S
C1845 H1869 0.949 . S
H1846 C1850 0.949 . S
C1847 C1848 1.349 . S
C1847 C1849 1.327 . S
C1847 H1870 0.950 . S
C1848 C1847 1.349 . S
C1848 C1860 1.349 . S
C1849 C1847 1.327 . S
C1849 C1865 1.429 . S
C1849 H1871 0.950 . S
C1850 H1846 0.949 . S
C1850 C1858 1.574 . S
C1850 C1866 1.368 . S
H1851 C1859 0.950 . S
H1852 C1857 0.950 . S
H1853 C1858 0.949 . S
H1854 C1860 0.950 . S
H1855 C1861 0.950 . S
H1856 C1862 0.949 . S
C1857 H1852 0.950 . S
C1857 C1859 1.327 . S
C1857 C1863 1.429 . S
C1858 C1850 1.574 . S
C1858 H1853 0.949 . S
C1858 C1864 1.368 . S
C1859 C1843 1.349 . S
C1859 H1851 0.950 . S
C1859 C1857 1.327 . S
C1860 C1848 1.349 . S
C1860 H1854 0.950 . S
C1860 C1861 1.327 . S
C1861 H1855 0.950 . S
C1861 C1860 1.327 . S
C1861 C1865 1.429 . S
C1862 C1845 1.574 . S
C1862 H1856 0.949 . S
C1862 C1866 1.368 . S
C1863 C1844 1.429 . S
C1863 C1857 1.429 . S
C1863 C1864 1.523 . S
C1864 C1845 1.368 . S
C1864 C1858 1.368 . S
C1864 C1863 1.523 . S
C1865 C1849 1.429 . S
C1865 C1861 1.429 . S
C1865 C1866 1.523 . S
C1866 C1850 1.368 . S
C1866 C1862 1.368 . S
C1866 C1865 1.523 . S
H1867 C1842 0.950 . S
H1868 C1844 0.950 . S
H1869 C1845 0.949 . S
H1870 C1847 0.950 . S
H1871 C1849 0.950 . S
C1872 C1873 1.349 . S
C1872 C1874 1.327 . S
C1872 H1897 0.950 . S
C1873 C1872 1.349 . S
C1873 C1889 1.349 . S
C1874 C1872 1.327 . S
C1874 C1893 1.429 . S
C1874 H1898 0.950 . S
C1875 C1892 1.574 . S
C1875 C1894 1.368 . S
C1875 H1899 0.949 . S
H1876 C1880 0.949 . S
C1877 C1878 1.349 . S
C1877 C1879 1.327 . S
C1877 H1900 0.950 . S
C1878 C1877 1.349 . S
C1878 C1890 1.349 . S
C1879 C1877 1.327 . S
C1879 C1895 1.429 . S
C1879 H1901 0.950 . S
C1880 H1876 0.949 . S
C1880 C1888 1.574 . S
C1880 C1896 1.368 . S
H1881 C1889 0.950 . S
H1882 C1887 0.950 . S
H1883 C1888 0.949 . S
H1884 C1890 0.950 . S
H1885 C1891 0.950 . S
H1886 C1892 0.949 . S
C1887 H1882 0.950 . S
C1887 C1889 1.327 . S
C1887 C1893 1.429 . S
C1888 C1880 1.574 . S
C1888 H1883 0.949 . S
C1888 C1894 1.368 . S
C1889 C1873 1.349 . S
C1889 H1881 0.950 . S
C1889 C1887 1.327 . S
C1890 C1878 1.349 . S
C1890 H1884 0.950 . S
C1890 C1891 1.327 . S
C1891 H1885 0.950 . S
C1891 C1890 1.327 . S
C1891 C1895 1.429 . S
C1892 C1875 1.574 . S
C1892 H1886 0.949 . S
C1892 C1896 1.368 . S
C1893 C1874 1.429 . S
C1893 C1887 1.429 . S
C1893 C1894 1.523 . S
C1894 C1875 1.368 . S
C1894 C1888 1.368 . S
C1894 C1893 1.523 . S
C1895 C1879 1.429 . S
C1895 C1891 1.429 . S
C1895 C1896 1.523 . S
C1896 C1880 1.368 . S
C1896 C1892 1.368 . S
C1896 C1895 1.523 . S
H1897 C1872 0.950 . S
H1898 C1874 0.950 . S
H1899 C1875 0.949 . S
H1900 C1877 0.950 . S
H1901 C1879 0.950 . S
C1902 C1903 1.349 . S
C1902 C1904 1.327 . S
C1902 H1927 0.950 . S
C1903 C1902 1.349 . S
C1903 C1919 1.349 . S
C1904 C1902 1.327 . S
C1904 C1923 1.429 . S
C1904 H1928 0.950 . S
C1905 C1922 1.574 . S
C1905 C1924 1.368 . S
C1905 H1929 0.949 . S
H1906 C1910 0.949 . S
C1907 C1908 1.349 . S
C1907 C1909 1.327 . S
C1907 H1930 0.950 . S
C1908 C1907 1.349 . S
C1908 C1920 1.349 . S
C1909 C1907 1.327 . S
C1909 C1925 1.429 . S
C1909 H1931 0.950 . S
C1910 H1906 0.949 . S
C1910 C1918 1.574 . S
C1910 C1926 1.368 . S
H1911 C1919 0.950 . S
H1912 C1917 0.950 . S
H1913 C1918 0.949 . S
H1914 C1920 0.950 . S
H1915 C1921 0.950 . S
H1916 C1922 0.949 . S
C1917 H1912 0.950 . S
C1917 C1919 1.327 . S
C1917 C1923 1.429 . S
C1918 C1910 1.574 . S
C1918 H1913 0.949 . S
C1918 C1924 1.368 . S
C1919 C1903 1.349 . S
C1919 H1911 0.950 . S
C1919 C1917 1.327 . S
C1920 C1908 1.349 . S
C1920 H1914 0.950 . S
C1920 C1921 1.327 . S
C1921 H1915 0.950 . S
C1921 C1920 1.327 . S
C1921 C1925 1.429 . S
C1922 C1905 1.574 . S
C1922 H1916 0.949 . S
C1922 C1926 1.368 . S
C1923 C1904 1.429 . S
C1923 C1917 1.429 . S
C1923 C1924 1.523 . S
C1924 C1905 1.368 . S
C1924 C1918 1.368 . S
C1924 C1923 1.523 . S
C1925 C1909 1.429 . S
C1925 C1921 1.429 . S
C1925 C1926 1.523 . S
C1926 C1910 1.368 . S
C1926 C1922 1.368 . S
C1926 C1925 1.523 . S
H1927 C1902 0.950 . S
H1928 C1904 0.950 . S
H1929 C1905 0.949 . S
H1930 C1907 0.950 . S
H1931 C1909 0.950 . S
C1932 C1933 1.349 . S
C1932 C1934 1.327 . S
C1932 H1957 0.950 . S
C1933 C1932 1.349 . S
C1933 C1949 1.349 . S
C1934 C1932 1.327 . S
C1934 C1953 1.429 . S
C1934 H1958 0.950 . S
C1935 C1952 1.574 . S
C1935 C1954 1.368 . S
C1935 H1959 0.949 . S
H1936 C1940 0.949 . S
C1937 C1938 1.349 . S
C1937 C1939 1.327 . S
C1937 H1960 0.950 . S
C1938 C1937 1.349 . S
C1938 C1950 1.349 . S
C1939 C1937 1.327 . S
C1939 C1955 1.429 . S
C1939 H1961 0.950 . S
C1940 H1936 0.949 . S
C1940 C1948 1.574 . S
C1940 C1956 1.368 . S
H1941 C1949 0.950 . S
H1942 C1947 0.950 . S
H1943 C1948 0.949 . S
H1944 C1950 0.950 . S
H1945 C1951 0.950 . S
H1946 C1952 0.949 . S
C1947 H1942 0.950 . S
C1947 C1949 1.327 . S
C1947 C1953 1.429 . S
C1948 C1940 1.574 . S
C1948 H1943 0.949 . S
C1948 C1954 1.368 . S
C1949 C1933 1.349 . S
C1949 H1941 0.950 . S
C1949 C1947 1.327 . S
C1950 C1938 1.349 . S
C1950 H1944 0.950 . S
C1950 C1951 1.327 . S
C1951 H1945 0.950 . S
C1951 C1950 1.327 . S
C1951 C1955 1.429 . S
C1952 C1935 1.574 . S
C1952 H1946 0.949 . S
C1952 C1956 1.368 . S
C1953 C1934 1.429 . S
C1953 C1947 1.429 . S
C1953 C1954 1.523 . S
C1954 C1935 1.368 . S
C1954 C1948 1.368 . S
C1954 C1953 1.523 . S
C1955 C1939 1.429 . S
C1955 C1951 1.429 . S
C1955 C1956 1.523 . S
C1956 C1940 1.368 . S
C1956 C1952 1.368 . S
C1956 C1955 1.523 . S
H1957 C1932 0.950 . S
H1958 C1934 0.950 . S
H1959 C1935 0.949 . S
H1960 C1937 0.950 . S
H1961 C1939 0.950 . S
C613 C33 1.034 . S
C618 C39 1.042 . S
C643 C73 1.039 . S
C648 C67 1.033 . S
C673 C101 1.034 . S
C678 C5 1.039 . S
C703 C175 1.039 . S
C708 C135 1.036 . S
C733 C107 1.039 . S
C738 C169 1.034 . S
C763 C203 1.034 . S
C768 C141 1.039 . S
C793 C243 1.039 . S
C798 C237 1.034 . S
C823 C271 1.034 . S
C828 C277 1.039 . S
C853 C305 1.034 . S
C858 C209 1.039 . S
C883 C379 1.039 . S
C888 C339 1.034 . S
C913 C311 1.039 . S
C918 C373 1.034 . S
C943 C407 1.034 . S
C948 C345 1.039 . S
C973 C447 1.039 . S
C978 C441 1.034 . S
C1003 C475 1.034 . S
C1008 C481 1.039 . S
C1033 C509 1.034 . S
C1038 C413 1.039 . S
C1063 C583 1.039 . S
C1068 C543 1.034 . S
C1093 C515 1.039 . S
C1098 C577 1.034 . S
C1123 C611 1.034 . S
C1128 C549 1.039 . S
C1153 C349 1.506 . S
C1158 C9 1.506 . S
C1183 C383 1.507 . S
C1188 C43 1.504 . S
C1213 C315 1.506 . S
C1218 C77 1.506 . S
C1243 C111 1.506 . S
C1248 C485 1.506 . S
C1273 C417 1.506 . S
C1278 C145 1.506 . S
C1303 C451 1.507 . S
C1308 C179 1.504 . S
C1333 C213 1.506 . S
C1338 C553 1.506 . S
C1363 C587 1.507 . S
C1368 C247 1.507 . S
C1393 C519 1.506 . S
C1398 C281 1.506 . S
C1423 C2 1.610 . S
C1428 C172 1.610 . S
C1453 C104 1.610 . S
C1458 C36 1.610 . S
C1483 C138 1.610 . S
C1488 C70 1.610 . S
C1513 C376 1.610 1_556 S
C1518 C206 1.610 . S
C1543 C308 1.610 1_556 S
C1548 C240 1.610 . S
C1573 C274 1.610 . S
C1578 C342 1.610 1_556 S
C1603 C580 1.610 . S
C1608 C410 1.610 1_554 S
C1633 C444 1.610 1_554 S
C1638 C512 1.610 . S
C1663 C546 1.610 . S
C1668 C478 1.610 1_554 S
C1693 C20 0.629 1_565 S
C1698 C190 0.637 . S
C1723 C54 0.637 . S
C1728 C122 0.630 1_655 S
C1753 C156 0.637 . S
C1758 C88 0.637 . S
C1783 C394 0.636 . S
C1788 C224 0.636 . S
C1813 C326 0.636 . S
C1818 C258 0.636 . S
C1843 C360 0.637 . S
C1848 C292 0.637 . S
C1873 C428 0.636 . S
C1878 C598 0.636 . S
C1903 C462 0.636 . S
C1908 C530 0.636 . S
C1933 C564 0.637 . S
C1938 C496 0.637 . S
