# Generated by pormake.
# Topology fcq, (5)-cn, num edge types: 1
# Building blocks:
#     Node 0, Type 0, BuildingBlock: BEQFEK_clean_sbu_0, # of connection points: 5
#     Node 1, Type 0, BuildingBlock: BEQFEK_clean_sbu_0, # of connection points: 5
#     Node 2, Type 0, BuildingBlock: BEQFEK_clean_sbu_0, # of connection points: 5
#     Node 3, Type 0, BuildingBlock: BEQFEK_clean_sbu_0, # of connection points: 5
#     Node 4, Type 0, BuildingBlock: BEQFEK_clean_sbu_0, # of connection points: 5
#     Node 5, Type 0, BuildingBlock: BEQFEK_clean_sbu_0, # of connection points: 5
#     Node 6, Type 0, BuildingBlock: BEQFEK_clean_sbu_0, # of connection points: 5
#     Node 7, Type 0, BuildingBlock: BEQFEK_clean_sbu_0, # of connection points: 5
#     Node 8, Type 0, BuildingBlock: BEQFEK_clean_sbu_0, # of connection points: 5
#     Node 9, Type 0, BuildingBlock: BEQFEK_clean_sbu_0, # of connection points: 5
#     Node 10, Type 0, BuildingBlock: BEQFEK_clean_sbu_0, # of connection points: 5
#     Node 11, Type 0, BuildingBlock: BEQFEK_clean_sbu_0, # of connection points: 5
#     Node 12, Type 0, BuildingBlock: BEQFEK_clean_sbu_0, # of connection points: 5
#     Node 13, Type 0, BuildingBlock: BEQFEK_clean_sbu_0, # of connection points: 5
#     Node 14, Type 0, BuildingBlock: BEQFEK_clean_sbu_0, # of connection points: 5
#     Node 15, Type 0, BuildingBlock: BEQFEK_clean_sbu_0, # of connection points: 5
#     Node 16, Type 0, BuildingBlock: BEQFEK_clean_sbu_0, # of connection points: 5
#     Node 17, Type 0, BuildingBlock: BEQFEK_clean_sbu_0, # of connection points: 5
#     Node 18, Type 0, BuildingBlock: BEQFEK_clean_sbu_0, # of connection points: 5
#     Node 19, Type 0, BuildingBlock: BEQFEK_clean_sbu_0, # of connection points: 5
#     Node 20, Type 0, BuildingBlock: BEQFEK_clean_sbu_0, # of connection points: 5
#     Node 21, Type 0, BuildingBlock: BEQFEK_clean_sbu_0, # of connection points: 5
#     Node 22, Type 0, BuildingBlock: BEQFEK_clean_sbu_0, # of connection points: 5
#     Node 23, Type 0, BuildingBlock: BEQFEK_clean_sbu_0, # of connection points: 5
#     Node 24, Type 0, BuildingBlock: BEQFEK_clean_sbu_0, # of connection points: 5
#     Node 25, Type 0, BuildingBlock: BEQFEK_clean_sbu_0, # of connection points: 5
#     Node 26, Type 0, BuildingBlock: BEQFEK_clean_sbu_0, # of connection points: 5
#     Node 27, Type 0, BuildingBlock: BEQFEK_clean_sbu_0, # of connection points: 5
#     Node 28, Type 0, BuildingBlock: BEQFEK_clean_sbu_0, # of connection points: 5
#     Node 29, Type 0, BuildingBlock: BEQFEK_clean_sbu_0, # of connection points: 5
#     Node 30, Type 0, BuildingBlock: BEQFEK_clean_sbu_0, # of connection points: 5
#     Node 31, Type 0, BuildingBlock: BEQFEK_clean_sbu_0, # of connection points: 5
#     Node 32, Type 0, BuildingBlock: BEQFEK_clean_sbu_0, # of connection points: 5
#     Node 33, Type 0, BuildingBlock: BEQFEK_clean_sbu_0, # of connection points: 5
#     Node 34, Type 0, BuildingBlock: BEQFEK_clean_sbu_0, # of connection points: 5
#     Node 35, Type 0, BuildingBlock: BEQFEK_clean_sbu_0, # of connection points: 5
#     Node 36, Type 0, BuildingBlock: BEQFEK_clean_sbu_0, # of connection points: 5
#     Node 37, Type 0, BuildingBlock: BEQFEK_clean_sbu_0, # of connection points: 5
#     Node 38, Type 0, BuildingBlock: BEQFEK_clean_sbu_0, # of connection points: 5
#     Node 39, Type 0, BuildingBlock: BEQFEK_clean_sbu_0, # of connection points: 5
#     Node 40, Type 0, BuildingBlock: BEQFEK_clean_sbu_0, # of connection points: 5
#     Node 41, Type 0, BuildingBlock: BEQFEK_clean_sbu_0, # of connection points: 5
#     Node 42, Type 0, BuildingBlock: BEQFEK_clean_sbu_0, # of connection points: 5
#     Node 43, Type 0, BuildingBlock: BEQFEK_clean_sbu_0, # of connection points: 5
#     Node 44, Type 0, BuildingBlock: BEQFEK_clean_sbu_0, # of connection points: 5
#     Node 45, Type 0, BuildingBlock: BEQFEK_clean_sbu_0, # of connection points: 5
#     Node 46, Type 0, BuildingBlock: BEQFEK_clean_sbu_0, # of connection points: 5
#     Node 47, Type 0, BuildingBlock: BEQFEK_clean_sbu_0, # of connection points: 5
#     Edge 48, Type (0, 0), None
#     Edge 49, Type (0, 0), None
#     Edge 50, Type (0, 0), None
#     Edge 51, Type (0, 0), None
#     Edge 52, Type (0, 0), None
#     Edge 53, Type (0, 0), None
#     Edge 54, Type (0, 0), None
#     Edge 55, Type (0, 0), None
#     Edge 56, Type (0, 0), None
#     Edge 57, Type (0, 0), None
#     Edge 58, Type (0, 0), None
#     Edge 59, Type (0, 0), None
#     Edge 60, Type (0, 0), None
#     Edge 61, Type (0, 0), None
#     Edge 62, Type (0, 0), None
#     Edge 63, Type (0, 0), None
#     Edge 64, Type (0, 0), None
#     Edge 65, Type (0, 0), None
#     Edge 66, Type (0, 0), None
#     Edge 67, Type (0, 0), None
#     Edge 68, Type (0, 0), None
#     Edge 69, Type (0, 0), None
#     Edge 70, Type (0, 0), None
#     Edge 71, Type (0, 0), None
#     Edge 72, Type (0, 0), None
#     Edge 73, Type (0, 0), None
#     Edge 74, Type (0, 0), None
#     Edge 75, Type (0, 0), None
#     Edge 76, Type (0, 0), None
#     Edge 77, Type (0, 0), None
#     Edge 78, Type (0, 0), None
#     Edge 79, Type (0, 0), None
#     Edge 80, Type (0, 0), None
#     Edge 81, Type (0, 0), None
#     Edge 82, Type (0, 0), None
#     Edge 83, Type (0, 0), None
#     Edge 84, Type (0, 0), None
#     Edge 85, Type (0, 0), None
#     Edge 86, Type (0, 0), None
#     Edge 87, Type (0, 0), None
#     Edge 88, Type (0, 0), None
#     Edge 89, Type (0, 0), None
#     Edge 90, Type (0, 0), None
#     Edge 91, Type (0, 0), None
#     Edge 92, Type (0, 0), None
#     Edge 93, Type (0, 0), None
#     Edge 94, Type (0, 0), None
#     Edge 95, Type (0, 0), None
#     Edge 96, Type (0, 0), None
#     Edge 97, Type (0, 0), None
#     Edge 98, Type (0, 0), None
#     Edge 99, Type (0, 0), None
#     Edge 100, Type (0, 0), None
#     Edge 101, Type (0, 0), None
#     Edge 102, Type (0, 0), None
#     Edge 103, Type (0, 0), None
#     Edge 104, Type (0, 0), None
#     Edge 105, Type (0, 0), None
#     Edge 106, Type (0, 0), None
#     Edge 107, Type (0, 0), None
#     Edge 108, Type (0, 0), None
#     Edge 109, Type (0, 0), None
#     Edge 110, Type (0, 0), None
#     Edge 111, Type (0, 0), None
#     Edge 112, Type (0, 0), None
#     Edge 113, Type (0, 0), None
#     Edge 114, Type (0, 0), None
#     Edge 115, Type (0, 0), None
#     Edge 116, Type (0, 0), None
#     Edge 117, Type (0, 0), None
#     Edge 118, Type (0, 0), None
#     Edge 119, Type (0, 0), None
#     Edge 120, Type (0, 0), None
#     Edge 121, Type (0, 0), None
#     Edge 122, Type (0, 0), None
#     Edge 123, Type (0, 0), None
#     Edge 124, Type (0, 0), None
#     Edge 125, Type (0, 0), None
#     Edge 126, Type (0, 0), None
#     Edge 127, Type (0, 0), None
#     Edge 128, Type (0, 0), None
#     Edge 129, Type (0, 0), None
#     Edge 130, Type (0, 0), None
#     Edge 131, Type (0, 0), None
#     Edge 132, Type (0, 0), None
#     Edge 133, Type (0, 0), None
#     Edge 134, Type (0, 0), None
#     Edge 135, Type (0, 0), None
#     Edge 136, Type (0, 0), None
#     Edge 137, Type (0, 0), None
#     Edge 138, Type (0, 0), None
#     Edge 139, Type (0, 0), None
#     Edge 140, Type (0, 0), None
#     Edge 141, Type (0, 0), None
#     Edge 142, Type (0, 0), None
#     Edge 143, Type (0, 0), None
#     Edge 144, Type (0, 0), None
#     Edge 145, Type (0, 0), None
#     Edge 146, Type (0, 0), None
#     Edge 147, Type (0, 0), None
#     Edge 148, Type (0, 0), None
#     Edge 149, Type (0, 0), None
#     Edge 150, Type (0, 0), None
#     Edge 151, Type (0, 0), None
#     Edge 152, Type (0, 0), None
#     Edge 153, Type (0, 0), None
#     Edge 154, Type (0, 0), None
#     Edge 155, Type (0, 0), None
#     Edge 156, Type (0, 0), None
#     Edge 157, Type (0, 0), None
#     Edge 158, Type (0, 0), None
#     Edge 159, Type (0, 0), None
#     Edge 160, Type (0, 0), None
#     Edge 161, Type (0, 0), None
#     Edge 162, Type (0, 0), None
#     Edge 163, Type (0, 0), None
#     Edge 164, Type (0, 0), None
#     Edge 165, Type (0, 0), None
#     Edge 166, Type (0, 0), None
#     Edge 167, Type (0, 0), None
# Relax obj value: 0.456
# Max RMSD: 0.268
# Mean RMSD: 0.268
data_MOF--net-fcq--node1-BEQFEK_clean_sbu_0--edge1-none
_symmetry_space_group_name_H-M    P1
_symmetry_Int_Tables_number       1
_symmetry_cell_setting            triclinic
loop_
_symmetry_equiv_pos_as_xyz
'x, y, z'
_cell_length_a     36.648268
_cell_length_b     36.647854
_cell_length_c     36.649053
_cell_angle_alpha  89.999641
_cell_angle_beta   90.001882
_cell_angle_gamma 89.999945
loop_
_atom_site_label
_atom_site_type_symbol
_atom_site_fract_x
_atom_site_fract_y
_atom_site_fract_z
_atom_type_partial_charge
Co0 Co 0.20942 0.19616 0.44771 0.0
Co1 Co 0.14541 0.15259 0.41783 0.0
C2 C 0.1571 0.1525 0.49771 0.0
O3 O 0.18515 0.17267 0.49239 0.0
O4 O 0.13668 0.14381 0.4709 0.0
C5 C 0.2385 0.25264 0.4877 0.0
O6 O 0.20412 0.25729 0.49676 0.0
C7 C 0.0698 0.13074 0.3991 0.0
C8 C 0.07533 0.12264 0.3397 0.0
C9 C 0.05006 0.12302 0.36779 0.0
N10 N 0.10506 0.13555 0.38973 0.0
N11 N 0.10802 0.13089 0.35412 0.0
C12 C 0.05561 0.13299 0.43725 0.0
H13 H 0.06643 0.10964 0.45321 0.0
H14 H 0.06558 0.15841 0.45032 0.0
H15 H 0.02533 0.13232 0.43781 0.0
C16 C 0.17898 0.25517 0.40453 0.0
N17 N 0.17915 0.22033 0.41588 0.0
N18 N 0.14884 0.20413 0.40624 0.0
C19 C 0.127 0.22957 0.39044 0.0
C20 C 0.14572 0.26272 0.38892 0.0
C21 C 0.20997 0.28156 0.40838 0.0
H22 H 0.23649 0.26711 0.40711 0.0
H23 H 0.2075 0.29637 0.43462 0.0
H24 H 0.20907 0.30218 0.3862 0.0
O25 O 0.23643 0.15862 0.42344 0.0
O26 O 0.1922 0.12109 0.40638 0.0
H27 H 0.08668 0.20525 0.35619 0.0
H28 H 0.07403 0.2495 0.37365 0.0
C29 C 0.08795 0.22344 0.38033 0.0
H30 H 0.07354 0.20979 0.40315 0.0
H31 H 0.13236 0.13372 0.33962 0.0
O32 O 0.24611 0.23002 0.46296 0.0
C33 C 0.22628 0.12851 0.41008 0.0
Co34 Co 0.44612 0.54435 0.80599 0.0
Co35 Co 0.40257 0.60838 0.83585 0.0
C36 C 0.40248 0.59666 0.75598 0.0
O37 O 0.42264 0.56861 0.76131 0.0
O38 O 0.39378 0.6171 0.78278 0.0
C39 C 0.50259 0.51525 0.76601 0.0
O40 O 0.50724 0.54963 0.75693 0.0
C41 C 0.38073 0.684 0.85455 0.0
C42 C 0.37268 0.6785 0.91395 0.0
C43 C 0.37304 0.70376 0.88585 0.0
N44 N 0.38555 0.64874 0.86394 0.0
N45 N 0.38092 0.6458 0.89955 0.0
C46 C 0.38295 0.69817 0.81638 0.0
H47 H 0.3596 0.68732 0.80044 0.0
H48 H 0.40838 0.68821 0.80331 0.0
H49 H 0.38227 0.72845 0.81581 0.0
C50 C 0.50515 0.5748 0.84915 0.0
N51 N 0.47031 0.57463 0.83781 0.0
N52 N 0.45412 0.60494 0.84744 0.0
C53 C 0.47956 0.62678 0.86323 0.0
C54 C 0.51271 0.60805 0.86476 0.0
C55 C 0.53153 0.5438 0.84531 0.0
H56 H 0.51707 0.51728 0.84659 0.0
H57 H 0.54634 0.54626 0.81906 0.0
H58 H 0.55216 0.5447 0.86749 0.0
O59 O 0.40859 0.51736 0.83028 0.0
O60 O 0.37106 0.5616 0.84733 0.0
H61 H 0.45528 0.66712 0.89748 0.0
H62 H 0.49951 0.67976 0.87998 0.0
C63 C 0.47344 0.66584 0.87333 0.0
H64 H 0.45977 0.68024 0.85051 0.0
H65 H 0.38377 0.62147 0.91407 0.0
O66 O 0.47997 0.50764 0.79075 0.0
C67 C 0.37848 0.52751 0.84364 0.0
Co68 Co 0.79436 0.30757 0.44772 0.0
Co69 Co 0.85836 0.35115 0.41785 0.0
C70 C 0.84664 0.35128 0.49773 0.0
O71 O 0.8186 0.3311 0.49241 0.0
O72 O 0.86707 0.35996 0.47092 0.0
C73 C 0.76527 0.25108 0.48771 0.0
O74 O 0.79964 0.24644 0.4968 0.0
C75 C 0.93398 0.37301 0.39916 0.0
C76 C 0.92849 0.3811 0.33976 0.0
C77 C 0.95374 0.38073 0.36786 0.0
N78 N 0.89872 0.3682 0.38976 0.0
N79 N 0.89579 0.37285 0.35415 0.0
C80 C 0.94815 0.37077 0.43732 0.0
H81 H 0.93733 0.39412 0.45327 0.0
H82 H 0.93817 0.34535 0.45038 0.0
H83 H 0.97843 0.37143 0.4379 0.0
C84 C 0.82485 0.24855 0.40458 0.0
N85 N 0.82466 0.2834 0.41592 0.0
N86 N 0.85496 0.2996 0.40628 0.0
C87 C 0.87681 0.27417 0.39048 0.0
C88 C 0.8581 0.24101 0.38896 0.0
C89 C 0.79386 0.22215 0.40842 0.0
H90 H 0.76733 0.2366 0.40713 0.0
H91 H 0.79632 0.20735 0.43467 0.0
H92 H 0.79478 0.20152 0.38624 0.0
O93 O 0.76734 0.34507 0.4234 0.0
O94 O 0.81156 0.38262 0.40637 0.0
H95 H 0.91711 0.2985 0.35622 0.0
H96 H 0.92978 0.25426 0.37368 0.0
C97 C 0.91585 0.28032 0.38036 0.0
H98 H 0.93027 0.29398 0.40318 0.0
H99 H 0.87146 0.37001 0.33963 0.0
O100 O 0.75767 0.27369 0.46296 0.0
C101 C 0.77748 0.37518 0.41004 0.0
Co102 Co 0.55759 0.95941 0.80596 0.0
Co103 Co 0.60115 0.8954 0.83587 0.0
C104 C 0.60126 0.9071 0.75597 0.0
O105 O 0.58107 0.93514 0.76128 0.0
O106 O 0.60996 0.88669 0.78279 0.0
C107 C 0.50109 0.98851 0.766 0.0
O108 O 0.49642 0.95414 0.75692 0.0
C109 C 0.62299 0.81979 0.85458 0.0
C110 C 0.63104 0.82529 0.91398 0.0
C111 C 0.63068 0.80003 0.88588 0.0
N112 N 0.61817 0.85504 0.86396 0.0
N113 N 0.62281 0.85799 0.89957 0.0
C114 C 0.62076 0.8056 0.81642 0.0
H115 H 0.64412 0.81644 0.80048 0.0
H116 H 0.59534 0.81558 0.80334 0.0
H117 H 0.62143 0.77532 0.81585 0.0
C118 C 0.49856 0.92897 0.84914 0.0
N119 N 0.53341 0.92914 0.83779 0.0
N120 N 0.5496 0.89883 0.84743 0.0
C121 C 0.52416 0.87699 0.86323 0.0
C122 C 0.49101 0.89572 0.86476 0.0
C123 C 0.47219 0.95997 0.8453 0.0
H124 H 0.48664 0.98649 0.84657 0.0
H125 H 0.45736 0.95751 0.81906 0.0
H126 H 0.45157 0.95908 0.86749 0.0
O127 O 0.59512 0.98641 0.83024 0.0
O128 O 0.63264 0.94219 0.84735 0.0
H129 H 0.54845 0.83667 0.8975 0.0
H130 H 0.50421 0.82402 0.88001 0.0
C131 C 0.53029 0.83794 0.87335 0.0
H132 H 0.54395 0.82353 0.85054 0.0
H133 H 0.61996 0.88232 0.91408 0.0
O134 O 0.52373 0.99611 0.79073 0.0
C135 C 0.62522 0.97627 0.84363 0.0
Co136 Co 0.20932 0.80764 0.05593 0.0
Co137 Co 0.14532 0.85123 0.0858 0.0
C138 C 0.15704 0.85132 0.00591 0.0
O139 O 0.18507 0.83112 0.01123 0.0
O140 O 0.13663 0.86004 0.03272 0.0
C141 C 0.23846 0.75118 0.01596 0.0
O142 O 0.2041 0.74653 0.00682 0.0
C143 C 0.0697 0.87308 0.1045 0.0
C144 C 0.07523 0.88126 0.16388 0.0
C145 C 0.04995 0.88084 0.13579 0.0
N146 N 0.10496 0.86829 0.11388 0.0
N147 N 0.10792 0.873 0.14948 0.0
C148 C 0.05551 0.87078 0.06634 0.0
H149 H 0.06627 0.89415 0.05037 0.0
H150 H 0.06554 0.84537 0.05329 0.0
H151 H 0.02523 0.87137 0.06579 0.0
C152 C 0.17884 0.74863 0.09908 0.0
N153 N 0.17903 0.78348 0.08774 0.0
N154 N 0.14873 0.79968 0.09738 0.0
C155 C 0.12687 0.77425 0.11317 0.0
C156 C 0.14558 0.74109 0.11469 0.0
C157 C 0.20982 0.72223 0.09522 0.0
H158 H 0.23635 0.73667 0.09653 0.0
H159 H 0.20736 0.70744 0.06897 0.0
H160 H 0.2089 0.70159 0.11739 0.0
O161 O 0.23632 0.84518 0.08022 0.0
O162 O 0.19211 0.88271 0.09731 0.0
H163 H 0.08657 0.79862 0.14741 0.0
H164 H 0.07392 0.75434 0.13003 0.0
C165 C 0.08783 0.7804 0.1233 0.0
H166 H 0.07341 0.79401 0.10046 0.0
H167 H 0.13226 0.87019 0.16399 0.0
O168 O 0.24603 0.77379 0.04072 0.0
C169 C 0.22619 0.87528 0.09361 0.0
Co170 Co 0.05762 0.5444 0.19772 0.0
Co171 Co 0.10122 0.60839 0.16785 0.0
C172 C 0.10132 0.59665 0.24773 0.0
O173 O 0.08114 0.56862 0.24241 0.0
O174 O 0.11002 0.61708 0.22093 0.0
C175 C 1.00117 0.51529 0.23774 0.0
O176 O 0.99655 0.54966 0.24686 0.0
C177 C 0.12316 0.684 0.14925 0.0
C178 C 0.13142 0.67854 0.08986 0.0
C179 C 0.13107 0.70376 0.118 0.0
N180 N 0.1183 0.64876 0.13981 0.0
N181 N 0.12305 0.64585 0.1042 0.0
C182 C 0.12083 0.69815 0.18741 0.0
H183 H 0.14414 0.68732 0.20341 0.0
H184 H 0.09537 0.68816 0.20041 0.0
H185 H 0.12148 0.72843 0.18801 0.0
C186 C 0.9986 0.57491 0.15459 0.0
N187 N 0.03345 0.57471 0.16593 0.0
N188 N 0.04967 0.60501 0.15627 0.0
C189 C 0.02424 0.62687 0.14049 0.0
C190 C 0.99107 0.60817 0.13898 0.0
C191 C 0.97219 0.54395 0.15847 0.0
H192 H 0.98661 0.51741 0.15716 0.0
H193 H 0.95742 0.54642 0.18474 0.0
H194 H 0.95153 0.54488 0.13632 0.0
O195 O 0.09512 0.51738 0.1734 0.0
O196 O 0.13268 0.5616 0.15636 0.0
H197 H 0.04865 0.66715 0.10625 0.0
H198 H 0.00437 0.67983 0.12361 0.0
C199 C 0.03041 0.6659 0.13035 0.0
H200 H 0.04403 0.68033 0.15319 0.0
H201 H 0.12019 0.62153 0.08966 0.0
O202 O 0.02375 0.5077 0.21295 0.0
C203 C 0.12523 0.52752 0.16003 0.0
Co204 Co 0.79431 0.69609 0.05605 0.0
Co205 Co 0.85835 0.6525 0.08587 0.0
C206 C 0.8466 0.65245 0.006 0.0
O207 O 0.81855 0.67262 0.01135 0.0
O208 O 0.86704 0.64375 0.03279 0.0
C209 C 0.76519 0.75255 0.01607 0.0
O210 O 0.79956 0.75719 0.00696 0.0
C211 C 0.93396 0.63057 0.10444 0.0
C212 C 0.92855 0.62238 0.16385 0.0
C213 C 0.95374 0.62271 0.13569 0.0
N214 N 0.89873 0.63543 0.1139 0.0
N215 N 0.89584 0.63072 0.14951 0.0
C216 C 0.94809 0.63286 0.06627 0.0
H217 H 0.93719 0.60957 0.05028 0.0
H218 H 0.93814 0.65834 0.05327 0.0
H219 H 0.97836 0.63215 0.06565 0.0
C220 C 0.82481 0.75509 0.09921 0.0
N221 N 0.82462 0.72024 0.08786 0.0
N222 N 0.85493 0.70404 0.09749 0.0
C223 C 0.87679 0.72947 0.11327 0.0
C224 C 0.85808 0.76263 0.11481 0.0
C225 C 0.79383 0.78149 0.09536 0.0
H226 H 0.7673 0.76705 0.09666 0.0
H227 H 0.79629 0.79628 0.0691 0.0
H228 H 0.79476 0.80213 0.11753 0.0
O229 O 0.76733 0.65854 0.08033 0.0
O230 O 0.81157 0.62099 0.09734 0.0
H231 H 0.91712 0.70511 0.14748 0.0
H232 H 0.92977 0.74937 0.13006 0.0
C233 C 0.91584 0.72332 0.12336 0.0
H234 H 0.93024 0.70968 0.10052 0.0
H235 H 0.87154 0.6336 0.16407 0.0
O236 O 0.7576 0.72995 0.04084 0.0
C237 C 0.77748 0.62842 0.09367 0.0
Co238 Co 0.9461 0.95938 0.19762 0.0
Co239 Co 0.90248 0.89533 0.1679 0.0
C240 C 0.90244 0.90714 0.24774 0.0
O241 O 0.92258 0.9352 0.24234 0.0
O242 O 0.89375 0.88665 0.22099 0.0
C243 C 0.00254 0.98849 0.23763 0.0
O244 O 0.00713 0.95412 0.24677 0.0
C245 C 0.88049 0.81973 0.14934 0.0
C246 C 0.87226 0.82516 0.08994 0.0
C247 C 0.8726 0.79996 0.1181 0.0
N248 N 0.88536 0.85496 0.13988 0.0
N249 N 0.88063 0.85786 0.10428 0.0
C250 C 0.88282 0.8056 0.18751 0.0
H251 H 0.85951 0.81645 0.2035 0.0
H252 H 0.90828 0.81557 0.20051 0.0
H253 H 0.88213 0.77532 0.18812 0.0
C254 C 0.00513 0.92873 0.15463 0.0
N255 N 0.97026 0.929 0.16589 0.0
N256 N 0.95402 0.8987 0.15629 0.0
C257 C 0.97944 0.87676 0.14059 0.0
C258 C 0.01264 0.8954 0.13916 0.0
C259 C 0.03157 0.95968 0.15846 0.0
H260 H 0.01718 0.98622 0.15709 0.0
H261 H 0.04634 0.95723 0.18473 0.0
H262 H 0.05223 0.95868 0.13631 0.0
O263 O 0.90861 0.98638 0.17326 0.0
O264 O 0.87099 0.94213 0.15645 0.0
H265 H 0.955 0.83645 0.10642 0.0
H266 H 0.99927 0.82376 0.12379 0.0
C267 C 0.97324 0.83772 0.13052 0.0
H268 H 0.95962 0.82334 0.15338 0.0
H269 H 0.8835 0.88216 0.08972 0.0
O270 O 0.97998 0.99608 0.21282 0.0
C271 C 0.87845 0.97622 0.16001 0.0
Co272 Co 0.44764 0.20948 0.19613 0.0
Co273 Co 0.41782 0.14542 0.1526 0.0
C274 C 0.49767 0.15719 0.15242 0.0
O275 O 0.49231 0.18527 0.17253 0.0
O276 O 0.47089 0.13669 0.14379 0.0
C277 C 0.48769 0.23849 0.25258 0.0
O278 O 0.49672 0.2041 0.2572 0.0
C279 C 0.39913 0.0698 0.13075 0.0
C280 C 0.33972 0.07527 0.12272 0.0
C281 C 0.36784 0.05002 0.12306 0.0
N282 N 0.38973 0.10505 0.13557 0.0
N283 N 0.35412 0.10798 0.13095 0.0
C284 C 0.43731 0.05564 0.13295 0.0
H285 H 0.45324 0.0665 0.1096 0.0
H286 H 0.45038 0.0656 0.15838 0.0
H287 H 0.43789 0.02536 0.13226 0.0
C288 C 0.40456 0.17897 0.25518 0.0
N289 N 0.4159 0.17915 0.22034 0.0
N290 N 0.40627 0.14883 0.20415 0.0
C291 C 0.3905 0.12698 0.22959 0.0
C292 C 0.38898 0.14571 0.26274 0.0
C293 C 0.40839 0.20998 0.28156 0.0
H294 H 0.4071 0.23649 0.2671 0.0
H295 H 0.43463 0.20753 0.29638 0.0
H296 H 0.3862 0.20907 0.30218 0.0
O297 O 0.42322 0.23648 0.15868 0.0
O298 O 0.40635 0.19221 0.1211 0.0
H299 H 0.35624 0.08665 0.20531 0.0
H300 H 0.37376 0.074 0.24954 0.0
C301 C 0.3804 0.08793 0.22346 0.0
H302 H 0.40322 0.07353 0.20978 0.0
H303 H 0.33959 0.1323 0.13381 0.0
O304 O 0.46293 0.24615 0.22999 0.0
C305 C 0.40992 0.22631 0.12855 0.0
Co306 Co 0.45939 0.306 0.0576 0.0
Co307 Co 0.39538 0.33589 0.10117 0.0
C308 C 0.40706 0.256 0.10122 0.0
O309 O 0.43512 0.2613 0.08107 0.0
O310 O 0.38665 0.28281 0.10994 0.0
C311 C 0.48847 0.26602 1.00111 0.0
O312 O 0.45409 0.25696 0.99645 0.0
C313 C 0.31975 0.35457 0.12301 0.0
C314 C 0.32525 0.41397 0.13114 0.0
C315 C 0.29999 0.38586 0.13074 0.0
N316 N 0.35501 0.36397 0.1182 0.0
N317 N 0.35795 0.39958 0.12289 0.0
C318 C 0.30558 0.31641 0.12073 0.0
H319 H 0.3164 0.30044 0.14407 0.0
H320 H 0.31556 0.30337 0.0953 0.0
H321 H 0.2753 0.31584 0.12138 0.0
C322 C 0.42895 0.34919 0.99859 0.0
N323 N 0.42912 0.33783 0.03343 0.0
N324 N 0.39881 0.34748 0.04962 0.0
C325 C 0.37698 0.36329 0.02418 0.0
C326 C 0.39571 0.36482 0.99103 0.0
C327 C 0.45995 0.34534 0.97221 0.0
H328 H 0.48647 0.34662 0.98667 0.0
H329 H 0.45748 0.31911 0.95739 0.0
H330 H 0.45906 0.36754 0.95159 0.0
O331 O 0.48639 0.33027 0.09514 0.0
O332 O 0.44217 0.34735 0.13266 0.0
H333 H 0.33667 0.39755 0.04851 0.0
H334 H 0.32402 0.38012 0.00425 0.0
C335 C 0.33793 0.37342 0.03031 0.0
H336 H 0.32351 0.35059 0.04395 0.0
H337 H 0.38228 0.4141 0.12007 0.0
O338 O 0.49609 0.29076 0.02373 0.0
C339 C 0.47625 0.34365 0.12525 0.0
Co340 Co 0.55607 0.29425 0.19619 0.0
Co341 Co 0.58578 0.35832 0.15258 0.0
C342 C 0.50595 0.34654 0.15256 0.0
O343 O 0.51135 0.31845 0.17266 0.0
O344 O 0.5327 0.36705 0.14387 0.0
C345 C 0.5161 0.26519 0.25269 0.0
O346 O 0.50696 0.29955 0.25734 0.0
C347 C 0.60447 0.43392 0.13069 0.0
C348 C 0.66387 0.4284 0.12256 0.0
C349 C 0.63577 0.45367 0.12295 0.0
N350 N 0.61385 0.39866 0.1355 0.0
N351 N 0.64946 0.39571 0.13082 0.0
C352 C 0.56632 0.44811 0.13295 0.0
H353 H 0.55035 0.43729 0.10961 0.0
H354 H 0.55327 0.43814 0.15838 0.0
H355 H 0.56575 0.47839 0.13229 0.0
C356 C 0.59922 0.32481 0.25516 0.0
N357 N 0.58785 0.3246 0.22033 0.0
N358 N 0.59742 0.35492 0.20411 0.0
C359 C 0.61319 0.3768 0.22953 0.0
C360 C 0.61478 0.3581 0.26269 0.0
C361 C 0.59542 0.29383 0.28157 0.0
H362 H 0.59675 0.2673 0.26714 0.0
H363 H 0.56917 0.29627 0.29638 0.0
H364 H 0.6176 0.29479 0.3022 0.0
O365 O 0.5804 0.26725 0.15868 0.0
O366 O 0.5972 0.31151 0.12108 0.0
H367 H 0.64735 0.41717 0.20516 0.0
H368 H 0.62993 0.4298 0.24942 0.0
C369 C 0.62324 0.41587 0.22337 0.0
H370 H 0.60038 0.43024 0.20975 0.0
H371 H 0.66397 0.37137 0.13366 0.0
O372 O 0.54088 0.25758 0.23012 0.0
C373 C 0.59364 0.27742 0.12853 0.0
Co374 Co 0.54425 0.19764 0.0575 0.0
Co375 Co 0.60829 0.1679 0.10113 0.0
C376 C 0.59651 0.24772 0.1012 0.0
O377 O 0.56842 0.24235 0.08109 0.0
O378 O 0.61702 0.22097 0.10987 0.0
C379 C 0.51519 0.23763 1.001 0.0
O380 O 0.54955 0.2468 0.99637 0.0
C381 C 0.6839 0.1492 0.12303 0.0
C382 C 0.67837 0.0898 0.13117 0.0
C383 C 0.70365 0.1179 0.13077 0.0
N384 N 0.64864 0.13982 0.11822 0.0
N385 N 0.64568 0.10421 0.12291 0.0
C386 C 0.69809 0.18735 0.12075 0.0
H387 H 0.68728 0.20332 0.1441 0.0
H388 H 0.68811 0.20041 0.09532 0.0
H389 H 0.72837 0.18791 0.1214 0.0
C390 C 0.57484 0.15452 0.99852 0.0
N391 N 0.57462 0.16588 0.03336 0.0
N392 N 0.60492 0.15629 0.04958 0.0
C393 C 0.62681 0.14051 0.02418 0.0
C394 C 0.60812 0.13894 0.99101 0.0
C395 C 0.54387 0.15834 0.9721 0.0
H396 H 0.51734 0.15699 0.98652 0.0
H397 H 0.54631 0.18459 0.95731 0.0
H398 H 0.54484 0.13617 0.95146 0.0
O399 O 0.51723 0.17325 0.09495 0.0
O400 O 0.56147 0.15647 0.1326 0.0
H401 H 0.66714 0.10632 0.04857 0.0
H402 H 0.6798 0.12372 0.0043 0.0
C403 C 0.66586 0.13043 0.03035 0.0
H404 H 0.68025 0.15329 0.04397 0.0
H405 H 0.62135 0.0897 0.12007 0.0
O406 O 0.50759 0.21284 0.02356 0.0
C407 C 0.52739 0.16 0.12511 0.0
Co408 Co 0.44775 0.79434 0.30753 0.0
Co409 Co 0.4179 0.85836 0.35113 0.0
C410 C 0.49779 0.84663 0.3512 0.0
O411 O 0.49246 0.81859 0.33101 0.0
O412 O 0.47098 0.86706 0.3599 0.0
C413 C 0.48773 0.76522 0.25106 0.0
O414 O 0.49684 0.79958 0.24641 0.0
C415 C 0.39923 0.93398 0.37301 0.0
C416 C 0.33984 0.92849 0.38113 0.0
C417 C 0.36795 0.95375 0.38074 0.0
N418 N 0.38983 0.89873 0.36819 0.0
N419 N 0.35422 0.89579 0.37287 0.0
C420 C 0.4374 0.94815 0.37073 0.0
H421 H 0.45336 0.93732 0.39407 0.0
H422 H 0.45044 0.93817 0.3453 0.0
H423 H 0.43797 0.97843 0.3714 0.0
C424 C 0.40455 0.82481 0.24855 0.0
N425 N 0.41592 0.82464 0.28339 0.0
N426 N 0.40629 0.85494 0.29959 0.0
C427 C 0.39047 0.87678 0.27417 0.0
C428 C 0.38892 0.85806 0.24102 0.0
C429 C 0.40841 0.79383 0.22215 0.0
H430 H 0.4071 0.7673 0.23659 0.0
H431 H 0.43466 0.79629 0.20736 0.0
H432 H 0.38623 0.79475 0.20151 0.0
O433 O 0.42349 0.76734 0.34508 0.0
O434 O 0.40644 0.81156 0.38262 0.0
H435 H 0.35622 0.91709 0.29851 0.0
H436 H 0.37365 0.92975 0.25426 0.0
C437 C 0.38035 0.91583 0.28032 0.0
H438 H 0.40318 0.93024 0.29396 0.0
H439 H 0.3397 0.87147 0.37004 0.0
O440 O 0.46295 0.75764 0.27366 0.0
C441 C 0.41013 0.77748 0.37519 0.0
Co442 Co 0.04435 0.30597 0.94612 0.0
Co443 Co 0.10834 0.3359 0.90254 0.0
C444 C 0.09662 0.256 0.90239 0.0
O445 O 0.06859 0.26128 0.9226 0.0
O446 O 0.11702 0.28282 0.8937 0.0
C447 C 0.01525 0.266 0.00261 0.0
O448 O 0.04962 0.25691 0.00727 0.0
C449 C 0.18396 0.35456 0.88071 0.0
C450 C 0.17851 0.41397 0.87265 0.0
C451 C 0.20375 0.38584 0.87302 0.0
N452 N 0.14871 0.36397 0.88551 0.0
N453 N 0.1458 0.39959 0.88087 0.0
C454 C 0.19811 0.31638 0.88294 0.0
H455 H 0.18728 0.30045 0.85958 0.0
H456 H 0.18812 0.30332 0.90836 0.0
H457 H 0.22839 0.31579 0.88229 0.0
C458 C 0.07481 0.34913 0.00514 0.0
N459 N 0.07464 0.33778 0.9703 0.0
N460 N 0.10493 0.34744 0.9541 0.0
C461 C 0.12678 0.36325 0.97953 0.0
C462 C 0.10806 0.36476 0.01269 0.0
C463 C 0.04382 0.34528 0.03153 0.0
H464 H 0.0173 0.34657 0.01708 0.0
H465 H 0.04629 0.31904 0.04634 0.0
H466 H 0.04473 0.36747 0.05215 0.0
O467 O 0.01733 0.33027 0.90861 0.0
O468 O 0.06154 0.34741 0.87108 0.0
H469 H 0.16707 0.39754 0.95523 0.0
H470 H 0.17974 0.38006 0.99946 0.0
C471 C 0.16582 0.37339 0.97339 0.0
H472 H 0.18024 0.35058 0.95972 0.0
H473 H 0.12148 0.41412 0.88372 0.0
O474 O 0.00766 0.29074 0.97999 0.0
C475 C 0.02746 0.34368 0.87852 0.0
Co476 Co 0.55606 0.70939 0.30756 0.0
Co477 Co 0.58591 0.64539 0.35118 0.0
C478 C 0.50604 0.65716 0.35132 0.0
O479 O 0.51137 0.68519 0.33113 0.0
O480 O 0.53283 0.6367 0.35999 0.0
C481 C 0.51609 0.73846 0.25104 0.0
O482 O 0.50691 0.70412 0.24639 0.0
C483 C 0.60459 0.56977 0.37306 0.0
C484 C 0.66397 0.5753 0.38129 0.0
C485 C 0.63587 0.55002 0.38085 0.0
N486 N 0.61398 0.60503 0.36827 0.0
N487 N 0.64958 0.60799 0.37301 0.0
C488 C 0.56644 0.55558 0.37074 0.0
H489 H 0.55046 0.56634 0.3941 0.0
H490 H 0.55339 0.56562 0.34533 0.0
H491 H 0.56588 0.5253 0.37133 0.0
C492 C 0.5992 0.67885 0.24857 0.0
N493 N 0.58785 0.67905 0.28341 0.0
N494 N 0.59748 0.64876 0.29963 0.0
C495 C 0.61328 0.62689 0.27421 0.0
C496 C 0.61481 0.64559 0.24105 0.0
C497 C 0.59537 0.70982 0.22216 0.0
H498 H 0.59668 0.73635 0.23658 0.0
H499 H 0.56912 0.70737 0.20735 0.0
H500 H 0.61754 0.70888 0.20152 0.0
O501 O 0.58041 0.73642 0.34503 0.0
O502 O 0.59738 0.69221 0.38262 0.0
H503 H 0.6475 0.5866 0.29863 0.0
H504 H 0.63016 0.57393 0.25434 0.0
C505 C 0.6234 0.58785 0.28039 0.0
H506 H 0.60056 0.57343 0.29399 0.0
H507 H 0.66409 0.63233 0.3702 0.0
O508 O 0.54085 0.74606 0.27365 0.0
C509 C 0.59374 0.72629 0.37516 0.0
Co510 Co 0.95939 0.1977 0.94619 0.0
Co511 Co 0.89539 0.16788 0.90256 0.0
C512 C 0.90714 0.24775 0.90248 0.0
O513 O 0.93518 0.24242 0.92267 0.0
O514 O 0.8867 0.22096 0.89379 0.0
C515 C 0.9885 0.23764 0.00272 0.0
O516 O 0.95416 0.24683 0.00738 0.0
C517 C 0.81978 0.14919 0.88067 0.0
C518 C 0.8253 0.08981 0.87247 0.0
C519 C 0.80003 0.1179 0.87289 0.0
N520 N 0.85504 0.13981 0.88546 0.0
N521 N 0.85799 0.10421 0.88074 0.0
C522 C 0.80559 0.18735 0.88298 0.0
H523 H 0.81636 0.20333 0.85962 0.0
H524 H 0.81561 0.20039 0.90839 0.0
H525 H 0.7753 0.1879 0.88237 0.0
C526 C 0.92885 0.15452 0.00516 0.0
N527 N 0.92906 0.16589 0.97032 0.0
N528 N 0.89876 0.15627 0.9541 0.0
C529 C 0.87689 0.14048 0.97951 0.0
C530 C 0.89558 0.13892 0.01268 0.0
C531 C 0.95982 0.15835 0.03158 0.0
H532 H 0.98635 0.15702 0.01716 0.0
H533 H 0.95737 0.1846 0.04637 0.0
H534 H 0.95887 0.13618 0.05222 0.0
O535 O 0.98642 0.1734 0.90868 0.0
O536 O 0.9422 0.15642 0.8711 0.0
H537 H 0.83658 0.10628 0.9551 0.0
H538 H 0.82391 0.12364 0.99938 0.0
C539 C 0.83784 0.13037 0.97334 0.0
H540 H 0.82344 0.15323 0.95973 0.0
H541 H 0.88233 0.0897 0.88356 0.0
O542 O 0.99607 0.21286 0.98012 0.0
C543 C 0.97628 0.16007 0.87855 0.0
Co544 Co 0.1962 0.44768 0.20935 0.0
Co545 Co 0.15252 0.41797 0.14533 0.0
C546 C 0.15253 0.4978 0.15712 0.0
O547 O 0.17266 0.49241 0.18519 0.0
O548 O 0.1438 0.47105 0.13663 0.0
C549 C 0.25266 0.48768 0.23843 0.0
O550 O 0.25725 0.49681 0.20407 0.0
C551 C 0.1305 0.39935 0.06975 0.0
C552 C 0.12221 0.33996 0.07525 0.0
C553 C 0.12257 0.36809 0.05002 0.0
N554 N 0.13537 0.38992 0.10499 0.0
N555 N 0.1306 0.35433 0.10793 0.0
C556 C 0.13285 0.43751 0.05558 0.0
H557 H 0.10953 0.45351 0.06639 0.0
H558 H 0.1583 0.45051 0.06557 0.0
H559 H 0.1322 0.43808 0.0253 0.0
C560 C 0.2552 0.40467 0.17866 0.0
N561 N 0.22032 0.41594 0.17896 0.0
N562 N 0.20407 0.40635 0.14866 0.0
C563 C 0.22948 0.39065 0.12671 0.0
C564 C 0.26269 0.38922 0.14532 0.0
C565 C 0.28166 0.40848 0.20959 0.0
H566 H 0.26728 0.4071 0.23615 0.0
H567 H 0.29642 0.43475 0.20716 0.0
H568 H 0.30231 0.38633 0.20858 0.0
O569 O 0.15871 0.42333 0.23638 0.0
O570 O 0.12107 0.40653 0.19215 0.0
H571 H 0.20497 0.35652 0.0864 0.0
H572 H 0.24927 0.37383 0.0737 0.0
C573 C 0.22325 0.38059 0.08767 0.0
H574 H 0.20966 0.40347 0.07329 0.0
H575 H 0.13347 0.33979 0.13225 0.0
O576 O 0.23012 0.46285 0.24602 0.0
C577 C 0.12855 0.41009 0.22623 0.0
Co578 Co 0.1962 0.55604 0.2943 0.0
Co579 Co 0.15263 0.58588 0.35832 0.0
C580 C 0.15245 0.50602 0.34654 0.0
O581 O 0.17261 0.51135 0.31849 0.0
O582 O 0.1438 0.53281 0.367 0.0
C583 C 0.25268 0.51603 0.2652 0.0
O584 O 0.25733 0.50684 0.29954 0.0
C585 C 0.13077 0.60455 0.43393 0.0
C586 C 0.12273 0.66396 0.42846 0.0
C587 C 0.12309 0.63584 0.45371 0.0
N588 N 0.1356 0.61396 0.39868 0.0
N589 N 0.13097 0.64958 0.39576 0.0
C590 C 0.13299 0.56638 0.44808 0.0
H591 H 0.10963 0.55045 0.43725 0.0
H592 H 0.15841 0.55331 0.4381 0.0
H593 H 0.13233 0.56579 0.47836 0.0
C594 C 0.25524 0.59912 0.32483 0.0
N595 N 0.2204 0.58778 0.32463 0.0
N596 N 0.20419 0.59743 0.35493 0.0
C597 C 0.22962 0.61322 0.37679 0.0
C598 C 0.26278 0.61473 0.35808 0.0
C599 C 0.28164 0.59527 0.29384 0.0
H600 H 0.26721 0.5966 0.26732 0.0
H601 H 0.29643 0.56902 0.29629 0.0
H602 H 0.30229 0.61744 0.29478 0.0
O603 O 0.15875 0.58045 0.26729 0.0
O604 O 0.12116 0.59739 0.31152 0.0
H605 H 0.2053 0.6475 0.41708 0.0
H606 H 0.24953 0.63001 0.42976 0.0
C607 C 0.22347 0.62335 0.41583 0.0
H608 H 0.20979 0.60053 0.43024 0.0
H609 H 0.13382 0.6641 0.37144 0.0
O610 O 0.23008 0.5408 0.25761 0.0
C611 C 0.12863 0.59379 0.27744 0.0
Co612 Co 0.80599 0.5576 0.95938 0.0
Co613 Co 0.83588 0.60119 0.8954 0.0
C614 C 0.75601 0.60137 0.90712 0.0
O615 O 0.76132 0.58119 0.93516 0.0
O616 O 0.78282 0.61004 0.88668 0.0
C617 C 0.76595 0.50113 0.98843 0.0
O618 O 0.75685 0.49652 0.95406 0.0
C619 C 0.85463 0.62305 0.81981 0.0
C620 C 0.91401 0.63125 0.82538 0.0
C621 C 0.88593 0.63083 0.80009 0.0
N622 N 0.86399 0.61825 0.85508 0.0
N623 N 0.89959 0.62298 0.85806 0.0
C624 C 0.81648 0.62074 0.80559 0.0
H625 H 0.80051 0.64411 0.81634 0.0
H626 H 0.80342 0.59534 0.81562 0.0
H627 H 0.81594 0.62133 0.77531 0.0
C628 C 0.84908 0.49856 0.92887 0.0
N629 N 0.83775 0.53341 0.92906 0.0
N630 N 0.84742 0.54963 0.89878 0.0
C631 C 0.86323 0.5242 0.87693 0.0
C632 C 0.86472 0.49103 0.89562 0.0
C633 C 0.8452 0.47215 0.95984 0.0
H634 H 0.84649 0.48658 0.98637 0.0
H635 H 0.81895 0.45736 0.95736 0.0
H636 H 0.86737 0.45151 0.95892 0.0
O637 O 0.83037 0.59505 0.98641 0.0
O638 O 0.84737 0.63264 0.9422 0.0
H639 H 0.89751 0.5486 0.83668 0.0
H640 H 0.88015 0.50432 0.82398 0.0
C641 C 0.8734 0.53037 0.8379 0.0
H642 H 0.85057 0.54398 0.82345 0.0
H643 H 0.91408 0.62017 0.88241 0.0
O644 O 0.7907 0.52374 0.99605 0.0
C645 C 0.84374 0.62516 0.97628 0.0
Co646 Co 0.8076 0.94774 0.29441 0.0
Co647 Co 0.85123 0.91784 0.35837 0.0
C648 C 0.85138 0.99773 0.34664 0.0
O649 O 0.83117 0.99242 0.31862 0.0
O650 O 0.86007 0.97091 0.36706 0.0
C651 C 0.75111 0.98774 0.26533 0.0
O652 O 0.7465 0.99689 0.29969 0.0
C653 C 0.87311 0.89912 0.43396 0.0
C654 C 0.88142 0.83975 0.42839 0.0
C655 C 0.88095 0.86783 0.45368 0.0
N656 N 0.86833 0.88976 0.3987 0.0
N657 N 0.87312 0.85417 0.39571 0.0
C658 C 0.87075 0.93726 0.44819 0.0
H659 H 0.89412 0.95326 0.43748 0.0
H660 H 0.84534 0.9503 0.43813 0.0
H661 H 0.87129 0.93779 0.47847 0.0
C662 C 0.74859 0.90462 0.32495 0.0
N663 N 0.78344 0.91596 0.32473 0.0
N664 N 0.79967 0.90629 0.35502 0.0
C665 C 0.77426 0.89049 0.37688 0.0
C666 C 0.74108 0.889 0.3582 0.0
C667 C 0.72217 0.9085 0.29399 0.0
H668 H 0.73658 0.90719 0.26745 0.0
H669 H 0.70739 0.93476 0.29647 0.0
H670 H 0.70152 0.88633 0.29492 0.0
O671 O 0.84506 0.92339 0.26737 0.0
O672 O 0.88266 0.90635 0.31155 0.0
H673 H 0.79872 0.85625 0.41712 0.0
H674 H 0.75441 0.87352 0.42982 0.0
C675 C 0.78045 0.88032 0.4159 0.0
H676 H 0.79401 0.90317 0.43036 0.0
H677 H 0.87033 0.83967 0.37136 0.0
O678 O 0.77372 0.96298 0.25774 0.0
C679 C 0.87517 0.91001 0.27748 0.0
Co680 Co 0.69768 0.44615 0.4594 0.0
Co681 Co 0.66793 0.40253 0.39536 0.0
C682 C 0.74776 0.40248 0.40715 0.0
O683 O 0.74239 0.4226 0.43523 0.0
O684 O 0.72101 0.39378 0.38666 0.0
C685 C 0.73772 0.50258 0.48848 0.0
O686 O 0.74683 0.50717 0.4541 0.0
C687 C 0.64933 0.38053 0.31977 0.0
C688 C 0.58993 0.37231 0.32522 0.0
C689 C 0.61808 0.37263 0.30001 0.0
N690 N 0.63989 0.38541 0.355 0.0
N691 N 0.60428 0.38068 0.35791 0.0
C692 C 0.6875 0.38284 0.30563 0.0
H693 H 0.70348 0.35952 0.31647 0.0
H694 H 0.70051 0.40829 0.31561 0.0
H695 H 0.6881 0.38217 0.27535 0.0
C696 C 0.65471 0.5052 0.42874 0.0
N697 N 0.66595 0.47032 0.42902 0.0
N698 N 0.65634 0.45408 0.39872 0.0
C699 C 0.64065 0.47951 0.37679 0.0
C700 C 0.63924 0.51271 0.39541 0.0
C701 C 0.65854 0.53164 0.45969 0.0
H702 H 0.65717 0.51725 0.48624 0.0
H703 H 0.68481 0.5464 0.45725 0.0
H704 H 0.63639 0.5523 0.45869 0.0
O705 O 0.67329 0.40867 0.48641 0.0
O706 O 0.65647 0.37105 0.44217 0.0
H707 H 0.60646 0.45506 0.33648 0.0
H708 H 0.62384 0.49933 0.32378 0.0
C709 C 0.63056 0.4733 0.33774 0.0
H710 H 0.65342 0.45967 0.32336 0.0
H711 H 0.58973 0.38356 0.38222 0.0
O712 O 0.7129 0.48004 0.49609 0.0
C713 C 0.66003 0.37852 0.47626 0.0
Co714 Co 0.30762 0.55601 0.70938 0.0
Co715 Co 0.35117 0.58595 0.64539 0.0
C716 C 0.35138 0.50606 0.6571 0.0
O717 O 0.33119 0.51134 0.68515 0.0
O718 O 0.36004 0.53288 0.63668 0.0
C719 C 0.25117 0.51597 0.73846 0.0
O720 O 0.24654 0.50686 0.70409 0.0
C721 C 0.373 0.60464 0.56978 0.0
C722 C 0.38111 0.66404 0.57527 0.0
C723 C 0.38073 0.63593 0.55002 0.0
N724 N 0.36819 0.61404 0.60503 0.0
N725 N 0.37286 0.64965 0.60797 0.0
C726 C 0.37074 0.56648 0.55561 0.0
H727 H 0.39411 0.55053 0.56642 0.0
H728 H 0.34533 0.55341 0.56561 0.0
H729 H 0.37138 0.5659 0.52533 0.0
C730 C 0.24855 0.5991 0.67891 0.0
N731 N 0.2834 0.58778 0.67909 0.0
N732 N 0.2996 0.59747 0.6488 0.0
C733 C 0.27416 0.61328 0.62697 0.0
C734 C 0.241 0.61475 0.64568 0.0
C735 C 0.22216 0.59521 0.7099 0.0
H736 H 0.23661 0.5965 0.73642 0.0
H737 H 0.20737 0.56896 0.70742 0.0
H738 H 0.20152 0.61738 0.709 0.0
O739 O 0.34508 0.5804 0.73639 0.0
O740 O 0.38263 0.59746 0.69218 0.0
H741 H 0.29848 0.64761 0.58672 0.0
H742 H 0.25424 0.63016 0.57402 0.0
C743 C 0.2803 0.62346 0.58794 0.0
H744 H 0.29396 0.60066 0.57349 0.0
H745 H 0.37003 0.66417 0.6323 0.0
O746 O 0.27378 0.54071 0.74607 0.0
C747 C 0.37517 0.5938 0.72626 0.0
Co748 Co 0.80613 0.44617 0.54429 0.0
Co749 Co 0.83585 0.40256 0.60835 0.0
C750 C 0.75603 0.40244 0.59652 0.0
O751 O 0.76144 0.42254 0.56844 0.0
O752 O 0.78277 0.3938 0.61705 0.0
C753 C 0.76608 0.50263 0.51523 0.0
O754 O 0.7569 0.50724 0.54958 0.0
C755 C 0.85454 0.38067 0.68395 0.0
C756 C 0.91393 0.3725 0.67844 0.0
C757 C 0.88583 0.37291 0.7037 0.0
N758 N 0.86392 0.38547 0.6487 0.0
N759 N 0.89953 0.38077 0.64574 0.0
C760 C 0.81638 0.38296 0.69814 0.0
H761 H 0.80041 0.35961 0.68736 0.0
H762 H 0.80333 0.40838 0.68813 0.0
H763 H 0.81582 0.38235 0.72842 0.0
C764 C 0.84917 0.50519 0.57491 0.0
N765 N 0.83784 0.47034 0.57468 0.0
N766 N 0.84744 0.45412 0.60498 0.0
C767 C 0.8632 0.47953 0.62687 0.0
C768 C 0.86474 0.51271 0.60819 0.0
C769 C 0.84534 0.53161 0.54394 0.0
H770 H 0.84669 0.5172 0.51741 0.0
H771 H 0.81906 0.54638 0.54638 0.0
H772 H 0.86749 0.55227 0.54492 0.0
O773 O 0.83058 0.40875 0.51728 0.0
O774 O 0.8473 0.37109 0.56153 0.0
H775 H 0.89738 0.45512 0.6672 0.0
H776 H 0.88 0.4994 0.67986 0.0
C777 C 0.87328 0.47336 0.66592 0.0
H778 H 0.85042 0.45975 0.68031 0.0
H779 H 0.91404 0.38359 0.62141 0.0
O780 O 0.79089 0.48008 0.50763 0.0
C781 C 0.84381 0.37859 0.52744 0.0
Co782 Co 0.1977 0.05762 0.54429 0.0
Co783 Co 0.16782 0.10118 0.6083 0.0
C784 C 0.24769 0.10135 0.59658 0.0
O785 O 0.24236 0.08121 0.56852 0.0
O786 O 0.22089 0.11 0.61704 0.0
C787 C 0.23776 1.00118 0.51524 0.0
O788 O 0.24685 0.99657 0.54962 0.0
C789 C 0.14909 0.12303 0.6839 0.0
C790 C 0.08971 0.13121 0.67835 0.0
C791 C 0.1178 0.13079 0.70363 0.0
N792 N 0.13972 0.11823 0.64864 0.0
N793 N 0.10412 0.12294 0.64567 0.0
C794 C 0.18724 0.12073 0.6981 0.0
H795 H 0.20322 0.14409 0.68733 0.0
H796 H 0.2003 0.09531 0.68809 0.0
H797 H 0.18779 0.12134 0.72838 0.0
C798 C 0.15461 0.99857 0.57478 0.0
N799 N 0.16594 0.03342 0.5746 0.0
N800 N 0.15627 0.04962 0.60489 0.0
C801 C 0.14047 0.02418 0.62674 0.0
C802 C 0.13898 0.99102 0.60803 0.0
C803 C 0.15849 0.97217 0.5438 0.0
H804 H 0.1572 0.98662 0.51727 0.0
H805 H 0.18475 0.95739 0.54627 0.0
H806 H 0.13633 0.95153 0.5447 0.0
O807 O 0.17329 0.09507 0.51727 0.0
O808 O 0.15635 0.13265 0.5615 0.0
H809 H 0.1062 0.04855 0.66701 0.0
H810 H 0.12358 0.00428 0.67968 0.0
C811 C 0.13031 0.03033 0.66577 0.0
H812 H 0.15314 0.04396 0.68021 0.0
H813 H 0.08962 0.12013 0.62133 0.0
O814 O 0.213 0.02377 0.50761 0.0
C815 C 0.15995 0.12519 0.52742 0.0
Co816 Co 0.70937 0.69622 0.94764 0.0
Co817 Co 0.64536 0.65255 0.91793 0.0
C818 C 0.65722 0.6524 0.99775 0.0
O819 O 0.68528 0.67253 0.99235 0.0
O820 O 0.63668 0.64376 0.97101 0.0
C821 C 0.73842 0.75266 0.98773 0.0
O822 O 0.70407 0.75723 0.99695 0.0
C823 C 0.56978 0.63052 0.89932 0.0
C824 C 0.57528 0.62217 0.83995 0.0
C825 C 0.55005 0.62255 0.86808 0.0
N826 N 0.60502 0.63538 0.88989 0.0
N827 N 0.60796 0.63058 0.8543 0.0
C828 C 0.55561 0.6329 0.93748 0.0
H829 H 0.56638 0.60957 0.95349 0.0
H830 H 0.56564 0.65834 0.95047 0.0
H831 H 0.52533 0.6323 0.93805 0.0
C832 C 0.6786 0.75526 0.90475 0.0
N833 N 0.67892 0.72038 0.91599 0.0
N834 N 0.64864 0.70411 0.90637 0.0
C835 C 0.62668 0.72951 0.89067 0.0
C836 C 0.64527 0.76274 0.88927 0.0
C837 C 0.70952 0.78174 0.90858 0.0
H838 H 0.73608 0.76738 0.90718 0.0
H839 H 0.70708 0.79646 0.93488 0.0
H840 H 0.70848 0.80243 0.88647 0.0
O841 O 0.73642 0.65884 0.92315 0.0
O842 O 0.6922 0.62114 0.90647 0.0
H843 H 0.58644 0.70495 0.85649 0.0
H844 H 0.57369 0.74926 0.87374 0.0
C845 C 0.58766 0.72325 0.88054 0.0
H846 H 0.57326 0.70968 0.90341 0.0
H847 H 0.63228 0.63343 0.83977 0.0
O848 O 0.74602 0.73016 0.96287 0.0
C849 C 0.72628 0.62866 0.90993 0.0
Co850 Co 0.94621 0.04435 0.30606 0.0
Co851 Co 0.90256 0.10837 0.33578 0.0
C852 C 0.90239 0.0965 0.25596 0.0
O853 O 0.92252 0.06844 0.26136 0.0
O854 O 0.89375 0.11704 0.2827 0.0
C855 C 0.00263 0.01528 0.26596 0.0
O856 O 0.00719 0.04962 0.25673 0.0
C857 C 0.88054 0.18394 0.35439 0.0
C858 C 0.87227 0.17845 0.41378 0.0
C859 C 0.87262 0.20368 0.38564 0.0
N860 N 0.88542 0.14871 0.36382 0.0
N861 N 0.88066 0.14577 0.39942 0.0
C862 C 0.88288 0.19811 0.31623 0.0
H863 H 0.85954 0.18731 0.30024 0.0
H864 H 0.90832 0.1881 0.30321 0.0
H865 H 0.88226 0.22839 0.31565 0.0
C866 C 0.00528 0.07511 0.34893 0.0
N867 N 0.97039 0.0748 0.3377 0.0
N868 N 0.95413 0.10508 0.34732 0.0
C869 C 0.97954 0.12703 0.36301 0.0
C870 C 0.01276 0.10844 0.3644 0.0
C871 C 0.03175 0.04419 0.34508 0.0
H872 H 0.01739 0.01762 0.34649 0.0
H873 H 0.04646 0.04662 0.31878 0.0
H874 H 0.05245 0.04522 0.36719 0.0
O875 O 0.90884 0.01731 0.33057 0.0
O876 O 0.87115 0.06154 0.34727 0.0
H877 H 0.95502 0.16727 0.39722 0.0
H878 H 0.99931 0.18003 0.37991 0.0
C879 C 0.97329 0.16606 0.37314 0.0
H880 H 0.95968 0.18046 0.35028 0.0
H881 H 0.88353 0.12146 0.41396 0.0
O882 O 0.98013 0.00769 0.29082 0.0
C883 C 0.87867 0.02746 0.3438 0.0
Co884 Co 0.29435 0.80754 0.94762 0.0
Co885 Co 0.35836 0.85123 0.91792 0.0
C886 C 0.3465 0.85134 0.99774 0.0
O887 O 0.31844 0.83119 0.99234 0.0
O888 O 0.36701 0.86 0.97099 0.0
C889 C 0.26526 0.75107 0.98763 0.0
O890 O 0.29959 0.74647 0.99688 0.0
C891 C 0.43393 0.87326 0.89932 0.0
C892 C 0.42844 0.8816 0.83994 0.0
C893 C 0.45367 0.88122 0.86807 0.0
N894 N 0.3987 0.8684 0.88989 0.0
N895 N 0.39576 0.87319 0.85429 0.0
C896 C 0.4481 0.87089 0.93748 0.0
H897 H 0.43733 0.89422 0.95348 0.0
H898 H 0.43808 0.84545 0.95048 0.0
H899 H 0.47838 0.87149 0.93805 0.0
C900 C 0.32511 0.74852 0.90468 0.0
N901 N 0.32479 0.7834 0.91594 0.0
N902 N 0.35507 0.79967 0.90633 0.0
C903 C 0.37704 0.77428 0.89064 0.0
C904 C 0.35845 0.74105 0.88922 0.0
C905 C 0.29419 0.72205 0.9085 0.0
H906 H 0.26763 0.7364 0.90709 0.0
H907 H 0.29662 0.7073 0.93478 0.0
H908 H 0.29523 0.70137 0.88637 0.0
O909 O 0.2673 0.84495 0.92317 0.0
O910 O 0.31152 0.88264 0.90645 0.0
H911 H 0.4173 0.79883 0.85649 0.0
H912 H 0.43004 0.75452 0.87375 0.0
C913 C 0.41607 0.78053 0.88054 0.0
H914 H 0.43046 0.79411 0.90342 0.0
H915 H 0.37144 0.87034 0.83975 0.0
O916 O 0.25769 0.77359 0.96279 0.0
C917 C 0.27744 0.87513 0.90994 0.0
Co918 Co 0.05753 0.45941 0.30608 0.0
Co919 Co 0.10121 0.39538 0.33577 0.0
C920 C 0.10125 0.40722 0.25595 0.0
O921 O 0.08113 0.4353 0.26135 0.0
O922 O 0.10994 0.3867 0.28269 0.0
C923 C 1.00106 0.48851 0.26607 0.0
O924 O 0.99646 0.45417 0.25683 0.0
C925 C 0.12325 0.3198 0.35436 0.0
C926 C 0.13158 0.32529 0.41374 0.0
C927 C 0.13122 0.30006 0.3856 0.0
N928 N 0.11838 0.35503 0.3638 0.0
N929 N 0.12318 0.35797 0.39939 0.0
C930 C 0.12088 0.30563 0.3162 0.0
H931 H 0.1442 0.31644 0.30019 0.0
H932 H 0.09543 0.31563 0.30321 0.0
H933 H 0.12152 0.27535 0.31562 0.0
C934 C 0.99852 0.42866 0.34904 0.0
N935 N 0.03339 0.42897 0.33778 0.0
N936 N 0.04966 0.39868 0.34737 0.0
C937 C 0.02426 0.37672 0.36307 0.0
C938 C 0.99104 0.39532 0.36449 0.0
C939 C 0.97204 0.45958 0.34522 0.0
H940 H 0.9864 0.48614 0.34663 0.0
H941 H 0.9573 0.45715 0.31893 0.0
H942 H 0.95137 0.45854 0.36735 0.0
O943 O 0.09496 0.48644 0.33051 0.0
O944 O 0.13266 0.44221 0.34721 0.0
H945 H 0.0488 0.33644 0.39721 0.0
H946 H 0.0045 0.32371 0.37994 0.0
C947 C 0.03051 0.33768 0.37315 0.0
H948 H 0.04409 0.3233 0.35027 0.0
H949 H 0.12032 0.38228 0.41393 0.0
O950 O 0.02358 0.49608 0.29091 0.0
C951 C 0.12514 0.47629 0.34372 0.0
Co952 Co 0.70942 0.30751 0.55603 0.0
Co953 Co 0.64541 0.35115 0.58582 0.0
C954 C 0.65716 0.35121 0.50597 0.0
O955 O 0.68522 0.33105 0.51131 0.0
O956 O 0.6367 0.35992 0.53275 0.0
C957 C 0.73852 0.25099 0.51607 0.0
O958 O 0.70418 0.24633 0.50688 0.0
C959 C 0.56982 0.37304 0.60454 0.0
C960 C 0.57537 0.38122 0.66393 0.0
C961 C 0.55008 0.3808 0.63584 0.0
N962 N 0.60508 0.36824 0.61391 0.0
N963 N 0.60805 0.37295 0.64951 0.0
C964 C 0.55561 0.37075 0.56639 0.0
H965 H 0.56638 0.39412 0.55042 0.0
H966 H 0.56562 0.34534 0.55333 0.0
H967 H 0.52533 0.37136 0.56585 0.0
C968 C 0.67886 0.24853 0.59917 0.0
N969 N 0.67908 0.28337 0.58781 0.0
N970 N 0.64878 0.2996 0.59742 0.0
C971 C 0.6269 0.27419 0.61321 0.0
C972 C 0.64558 0.24102 0.61476 0.0
C973 C 0.70983 0.22211 0.59535 0.0
H974 H 0.73636 0.23653 0.59669 0.0
H975 H 0.70738 0.20732 0.5691 0.0
H976 H 0.70887 0.20147 0.61752 0.0
O977 O 0.73645 0.345 0.58035 0.0
O978 O 0.69223 0.38261 0.59727 0.0
H979 H 0.58658 0.2986 0.6474 0.0
H980 H 0.57391 0.25432 0.63002 0.0
C981 C 0.58785 0.28037 0.6233 0.0
H982 H 0.57345 0.29398 0.60044 0.0
H983 H 0.6324 0.37012 0.66401 0.0
O984 O 0.7461 0.27358 0.54085 0.0
C985 C 0.72631 0.37513 0.59366 0.0
Co986 Co 0.55748 0.04435 0.69767 0.0
Co987 Co 0.60113 0.10835 0.66789 0.0
C988 C 0.60124 0.09655 0.74775 0.0
O989 O 0.58106 0.06851 0.74239 0.0
O990 O 0.60991 0.11702 0.72097 0.0
C991 C 0.50097 0.01526 0.73764 0.0
O992 O 0.49633 0.04961 0.74683 0.0
C993 C 0.62314 0.18394 0.6493 0.0
C994 C 0.63137 0.17849 0.58991 0.0
C995 C 0.63104 0.2037 0.61806 0.0
N996 N 0.61826 0.14871 0.63986 0.0
N997 N 0.62299 0.1458 0.60425 0.0
C998 C 0.62082 0.19808 0.68747 0.0
H999 H 0.64413 0.18723 0.70346 0.0
H1000 H 0.59536 0.18811 0.70047 0.0
H1001 H 0.6215 0.22836 0.68807 0.0
C1002 C 0.49851 0.07495 0.65454 0.0
N1003 N 0.53335 0.07471 0.6659 0.0
N1004 N 0.54959 0.10501 0.65629 0.0
C1005 C 0.52418 0.1269 0.64052 0.0
C1006 C 0.491 0.10823 0.63897 0.0
C1007 C 0.47208 0.04399 0.65836 0.0
H1008 H 0.48648 0.01745 0.65701 0.0
H1009 H 0.45729 0.04643 0.68462 0.0
H1010 H 0.45143 0.04496 0.6362 0.0
O1011 O 0.59495 0.01731 0.67332 0.0
O1012 O 0.63257 0.06153 0.65643 0.0
H1013 H 0.54861 0.1672 0.60632 0.0
H1014 H 0.50434 0.1799 0.6237 0.0
C1015 C 0.53038 0.16595 0.63042 0.0
H1016 H 0.544 0.18034 0.65328 0.0
H1017 H 0.62011 0.12149 0.5897 0.0
O1018 O 0.52354 0.00768 0.71284 0.0
C1019 C 0.6251 0.02745 0.66003 0.0
Co1020 Co 0.29429 0.19625 0.55609 0.0
Co1021 Co 0.35831 0.15262 0.58585 0.0
C1022 C 0.3465 0.15248 0.50601 0.0
O1023 O 0.31843 0.17262 0.51138 0.0
O1024 O 0.367 0.14385 0.53278 0.0
C1025 C 0.26523 0.25274 0.51608 0.0
O1026 O 0.29958 0.25737 0.50692 0.0
C1027 C 0.43391 0.13064 0.60443 0.0
C1028 C 0.42849 0.12247 0.66383 0.0
C1029 C 0.45369 0.12278 0.63567 0.0
N1030 N 0.39868 0.13552 0.61388 0.0
N1031 N 0.39579 0.13082 0.6495 0.0
C1032 C 0.44803 0.13292 0.56625 0.0
H1033 H 0.43714 0.10962 0.55028 0.0
H1034 H 0.43808 0.15839 0.55325 0.0
H1035 H 0.47831 0.13221 0.56564 0.0
C1036 C 0.32489 0.25525 0.59917 0.0
N1037 N 0.32466 0.2204 0.58782 0.0
N1038 N 0.35496 0.20417 0.59744 0.0
C1039 C 0.37685 0.22958 0.61321 0.0
C1040 C 0.35817 0.26275 0.61476 0.0
C1041 C 0.29393 0.28167 0.59535 0.0
H1042 H 0.26739 0.26726 0.5967 0.0
H1043 H 0.29637 0.29645 0.56909 0.0
H1044 H 0.2949 0.30232 0.61751 0.0
O1045 O 0.26726 0.15882 0.58051 0.0
O1046 O 0.31149 0.12117 0.5973 0.0
H1047 H 0.41715 0.20518 0.64743 0.0
H1048 H 0.42985 0.24943 0.63001 0.0
C1049 C 0.41589 0.22339 0.62331 0.0
H1050 H 0.43028 0.20974 0.60047 0.0
H1051 H 0.37149 0.13371 0.66406 0.0
O1052 O 0.25762 0.23018 0.54088 0.0
C1053 C 0.27741 0.12866 0.59377 0.0
Co1054 Co 0.44625 0.45946 0.69759 0.0
Co1055 Co 0.40261 0.39541 0.66793 0.0
C1056 C 0.40246 0.40729 0.74773 0.0
O1057 O 0.42256 0.43537 0.74231 0.0
O1058 O 0.39385 0.38673 0.721 0.0
C1059 C 0.50271 0.48851 0.73764 0.0
O1060 O 0.5073 0.45416 0.74683 0.0
C1061 C 0.38058 0.31983 0.64932 0.0
C1062 C 0.37241 0.32528 0.58992 0.0
C1063 C 0.37272 0.30007 0.61807 0.0
N1064 N 0.38548 0.35506 0.63988 0.0
N1065 N 0.38078 0.35797 0.60427 0.0
C1066 C 0.38287 0.30569 0.6875 0.0
H1067 H 0.35954 0.31655 0.70347 0.0
H1068 H 0.40832 0.31565 0.70052 0.0
H1069 H 0.38217 0.27541 0.6881 0.0
C1070 C 0.50529 0.42871 0.65468 0.0
N1071 N 0.47042 0.42901 0.66594 0.0
N1072 N 0.45417 0.39872 0.65635 0.0
C1073 C 0.47957 0.37676 0.64066 0.0
C1074 C 0.51278 0.39538 0.63924 0.0
C1075 C 0.53175 0.45966 0.65848 0.0
H1076 H 0.51737 0.48621 0.65708 0.0
H1077 H 0.54651 0.45724 0.68475 0.0
H1078 H 0.55241 0.45863 0.63633 0.0
O1079 O 0.40887 0.4865 0.67308 0.0
O1080 O 0.37116 0.44225 0.65648 0.0
H1081 H 0.45512 0.33647 0.60648 0.0
H1082 H 0.49937 0.32374 0.62388 0.0
C1083 C 0.47334 0.33772 0.63059 0.0
H1084 H 0.4597 0.32336 0.65344 0.0
H1085 H 0.38367 0.38228 0.58972 0.0
O1086 O 0.48019 0.49611 0.7128 0.0
C1087 C 0.37868 0.47634 0.6599 0.0
Co1088 Co 0.94771 0.70938 0.69618 0.0
Co1089 Co 0.91787 0.64538 0.65258 0.0
C1090 C 0.99773 0.65718 0.65237 0.0
O1091 O 0.9924 0.68524 0.67253 0.0
O1092 O 0.97094 0.63671 0.64373 0.0
C1093 C 0.98779 0.73845 0.7526 0.0
O1094 O 0.99693 0.70408 0.75718 0.0
C1095 C 0.89928 0.56979 0.6306 0.0
C1096 C 0.83987 0.57522 0.62244 0.0
C1097 C 0.86803 0.55002 0.62274 0.0
N1098 N 0.88982 0.60502 0.63549 0.0
N1099 N 0.85421 0.60792 0.6308 0.0
C1100 C 0.93746 0.55566 0.63288 0.0
H1101 H 0.95341 0.56651 0.60954 0.0
H1102 H 0.95049 0.56565 0.65831 0.0
H1103 H 0.93806 0.52538 0.63221 0.0
C1104 C 0.90482 0.6787 0.75528 0.0
N1105 N 0.91603 0.67898 0.72039 0.0
N1106 N 0.90637 0.6487 0.70415 0.0
C1107 C 0.89068 0.62677 0.72957 0.0
C1108 C 0.88933 0.64539 0.76279 0.0
C1109 C 0.90867 0.70965 0.78172 0.0
H1110 H 0.9073 0.7362 0.76733 0.0
H1111 H 0.93495 0.7072 0.79647 0.0
H1112 H 0.88653 0.70865 0.80239 0.0
O1113 O 0.92323 0.73641 0.65878 0.0
O1114 O 0.90635 0.69219 0.62116 0.0
H1115 H 0.85641 0.58653 0.70515 0.0
H1116 H 0.87383 0.57378 0.74939 0.0
C1117 C 0.88053 0.58775 0.72336 0.0
H1118 H 0.90336 0.57334 0.7097 0.0
H1119 H 0.83965 0.63222 0.63369 0.0
O1120 O 0.96297 0.74605 0.73006 0.0
C1121 C 0.90991 0.72627 0.62865 0.0
Co1122 Co 0.95934 0.80594 0.55764 0.0
Co1123 Co 0.89535 0.83587 0.60121 0.0
C1124 C 0.90705 0.75599 0.60135 0.0
O1125 O 0.93509 0.76128 0.58117 0.0
O1126 O 0.88664 0.7828 0.61008 0.0
C1127 C 0.98842 0.7659 0.50119 0.0
O1128 O 0.95405 0.75679 0.49658 0.0
C1129 C 0.81974 0.85459 0.62306 0.0
C1130 C 0.82527 0.91399 0.63118 0.0
C1131 C 0.8 0.88589 0.63079 0.0
N1132 N 0.855 0.86397 0.61825 0.0
N1133 N 0.85796 0.89958 0.62293 0.0
C1134 C 0.80555 0.81643 0.62081 0.0
H1135 H 0.81632 0.80049 0.64419 0.0
H1136 H 0.81558 0.80334 0.59542 0.0
H1137 H 0.77527 0.81588 0.62141 0.0
C1138 C 0.92878 0.84892 0.49854 0.0
N1139 N 0.92902 0.8377 0.53343 0.0
N1140 N 0.89872 0.84737 0.54964 0.0
C1141 C 0.87683 0.86308 0.52419 0.0
C1142 C 0.89548 0.86443 0.491 0.0
C1143 C 0.95974 0.84506 0.47213 0.0
H1144 H 0.98628 0.84638 0.48655 0.0
H1145 H 0.95727 0.8188 0.45734 0.0
H1146 H 0.9588 0.86723 0.45148 0.0
O1147 O 0.98635 0.8303 0.59512 0.0
O1148 O 0.94214 0.84738 0.63267 0.0
H1149 H 0.83657 0.89736 0.54857 0.0
H1150 H 0.82386 0.87994 0.50432 0.0
C1151 C 0.8378 0.87323 0.53037 0.0
H1152 H 0.82338 0.85041 0.54402 0.0
H1153 H 0.8823 0.91408 0.62009 0.0
O1154 O 0.99603 0.79066 0.5238 0.0
C1155 C 0.97622 0.8437 0.62522 0.0
Co1156 Co 0.05604 0.79435 0.69614 0.0
Co1157 Co 0.0858 0.85836 0.65246 0.0
C1158 C 0.00594 0.84661 0.65252 0.0
O1159 O 0.01129 0.81857 0.67269 0.0
O1160 O 0.03271 0.86705 0.64375 0.0
C1161 C 0.01613 0.76522 0.75267 0.0
O1162 O 0.00692 0.79956 0.75732 0.0
C1163 C 0.10441 0.93395 0.63047 0.0
C1164 C 0.16379 0.92846 0.62217 0.0
C1165 C 0.13566 0.95369 0.62254 0.0
N1166 N 0.11383 0.89871 0.63532 0.0
N1167 N 0.14943 0.89578 0.63055 0.0
C1168 C 0.06625 0.94812 0.63283 0.0
H1169 H 0.05023 0.93729 0.60952 0.0
H1170 H 0.05326 0.93814 0.65829 0.0
H1171 H 0.06566 0.9784 0.63216 0.0
C1172 C 0.09925 0.82492 0.75506 0.0
N1173 N 0.08787 0.82469 0.72022 0.0
N1174 N 0.09746 0.85499 0.70399 0.0
C1175 C 0.11323 0.87689 0.72939 0.0
C1176 C 0.11481 0.8582 0.76256 0.0
C1177 C 0.09542 0.79396 0.7815 0.0
H1178 H 0.09676 0.76742 0.7671 0.0
H1179 H 0.06917 0.79642 0.79629 0.0
H1180 H 0.11759 0.79494 0.80214 0.0
O1181 O 0.08027 0.76734 0.65857 0.0
O1182 O 0.09725 0.81155 0.62099 0.0
H1183 H 0.14737 0.91722 0.70493 0.0
H1184 H 0.13005 0.92988 0.74923 0.0
C1185 C 0.12329 0.91594 0.7232 0.0
H1186 H 0.10041 0.93032 0.70962 0.0
H1187 H 0.16397 0.87146 0.63341 0.0
O1188 O 0.04091 0.75766 0.73007 0.0
C1189 C 0.09358 0.77747 0.62844 0.0
Co1190 Co 0.04431 0.69755 0.55744 0.0
Co1191 Co 0.10838 0.66798 0.60114 0.0
C1192 C 0.09649 0.74775 0.60114 0.0
O1193 O 0.06839 0.74229 0.58107 0.0
O1194 O 0.11707 0.72106 0.60981 0.0
C1195 C 0.01521 0.73757 0.501 0.0
O1196 O 0.04954 0.74683 0.49642 0.0
C1197 C 0.18395 0.64936 0.62321 0.0
C1198 C 0.17842 0.58998 0.63154 0.0
C1199 C 0.20366 0.6181 0.63117 0.0
N1200 N 0.1487 0.63994 0.61834 0.0
N1201 N 0.14575 0.60435 0.62313 0.0
C1202 C 0.19813 0.68751 0.62085 0.0
H1203 H 0.18732 0.70353 0.64416 0.0
H1204 H 0.18816 0.7005 0.59539 0.0
H1205 H 0.22841 0.68807 0.62151 0.0
C1206 C 0.07512 0.65461 0.49846 0.0
N1207 N 0.07479 0.66588 0.53333 0.0
N1208 N 0.10508 0.65633 0.5496 0.0
C1209 C 0.12707 0.64065 0.52422 0.0
C1210 C 0.10848 0.6392 0.49099 0.0
C1211 C 0.04421 0.65841 0.47197 0.0
H1212 H 0.01764 0.65696 0.48631 0.0
H1213 H 0.04661 0.68471 0.45725 0.0
H1214 H 0.04529 0.6363 0.45127 0.0
O1215 O 0.01729 0.67309 0.59485 0.0
O1216 O 0.06154 0.65659 0.63259 0.0
H1217 H 0.16739 0.60658 0.54878 0.0
H1218 H 0.1801 0.62384 0.50447 0.0
C1219 C 0.16612 0.63062 0.53047 0.0
H1220 H 0.18047 0.65354 0.54404 0.0
H1221 H 0.12143 0.58982 0.62026 0.0
O1222 O 0.00765 0.71268 0.52347 0.0
C1223 C 0.02745 0.65998 0.62506 0.0
Co1224 Co 0.94762 0.29433 0.80756 0.0
Co1225 Co 0.91793 0.35838 0.85119 0.0
C1226 C 0.99774 0.34658 0.85122 0.0
O1227 O 0.99233 0.31848 0.83113 0.0
O1228 O 0.97101 0.3671 0.85991 0.0
C1229 C 0.98767 0.26526 0.75114 0.0
O1230 O 0.99679 0.29963 0.74656 0.0
C1231 C 0.8993 0.43396 0.87319 0.0
C1232 C 0.83991 0.42848 0.88142 0.0
C1233 C 0.86805 0.4537 0.8811 0.0
N1234 N 0.88988 0.39873 0.86831 0.0
N1235 N 0.85427 0.3958 0.87304 0.0
C1236 C 0.93747 0.44813 0.87089 0.0
H1237 H 0.95346 0.43727 0.89419 0.0
H1238 H 0.95048 0.43818 0.84542 0.0
H1239 H 0.93805 0.47841 0.87159 0.0
C1240 C 0.90466 0.32501 0.74852 0.0
N1241 N 0.91592 0.32473 0.78339 0.0
N1242 N 0.90632 0.35503 0.79963 0.0
C1243 C 0.89063 0.37697 0.77422 0.0
C1244 C 0.8892 0.35835 0.74101 0.0
C1245 C 0.90849 0.29407 0.72207 0.0
H1246 H 0.90711 0.26752 0.73646 0.0
H1247 H 0.93476 0.29651 0.70731 0.0
H1248 H 0.88635 0.29508 0.7014 0.0
O1249 O 0.9232 0.26732 0.845 0.0
O1250 O 0.9065 0.31157 0.88267 0.0
H1251 H 0.85646 0.41728 0.79867 0.0
H1252 H 0.87383 0.42998 0.7544 0.0
C1253 C 0.88055 0.41602 0.78043 0.0
H1254 H 0.90342 0.43039 0.79405 0.0
H1255 H 0.83974 0.37148 0.87016 0.0
O1256 O 0.96284 0.25765 0.77366 0.0
C1257 C 0.90999 0.27748 0.87518 0.0
Co1258 Co 0.54432 0.80607 0.44611 0.0
Co1259 Co 0.60838 0.83585 0.40253 0.0
C1260 C 0.59661 0.75601 0.40246 0.0
O1261 O 0.56852 0.76137 0.42257 0.0
O1262 O 0.61709 0.78277 0.39377 0.0
C1263 C 0.51525 0.76604 0.50256 0.0
O1264 O 0.54962 0.75695 0.50717 0.0
C1265 C 0.68398 0.85444 0.38059 0.0
C1266 C 0.67856 0.91385 0.37245 0.0
C1267 C 0.70376 0.88569 0.37275 0.0
N1268 N 0.64875 0.86389 0.38547 0.0
N1269 N 0.64586 0.89951 0.38079 0.0
C1270 C 0.69811 0.81626 0.38286 0.0
H1271 H 0.6872 0.80029 0.35956 0.0
H1272 H 0.68818 0.80325 0.40833 0.0
H1273 H 0.72839 0.81564 0.38212 0.0
C1274 C 0.57487 0.84916 0.50513 0.0
N1275 N 0.57467 0.83782 0.47029 0.0
N1276 N 0.60497 0.84744 0.45408 0.0
C1277 C 0.62684 0.86321 0.47951 0.0
C1278 C 0.60814 0.86475 0.51267 0.0
C1279 C 0.54389 0.84532 0.53154 0.0
H1280 H 0.51736 0.84663 0.5171 0.0
H1281 H 0.54634 0.81906 0.54633 0.0
H1282 H 0.54482 0.86748 0.55218 0.0
O1283 O 0.51734 0.83046 0.40864 0.0
O1284 O 0.56159 0.84733 0.37104 0.0
H1285 H 0.66716 0.89744 0.45516 0.0
H1286 H 0.67983 0.87999 0.49941 0.0
C1287 C 0.66589 0.87331 0.47335 0.0
H1288 H 0.68029 0.85047 0.4597 0.0
H1289 H 0.62156 0.91406 0.38368 0.0
O1290 O 0.50763 0.79082 0.47997 0.0
C1291 C 0.5275 0.84376 0.37851 0.0
Co1292 Co 0.0561 0.20943 0.80751 0.0
Co1293 Co 0.08578 0.14537 0.85113 0.0
C1294 C 0.00599 0.1572 0.85125 0.0
O1295 O 0.01141 0.1853 0.83117 0.0
O1296 O 0.03271 0.13664 0.8599 0.0
C1297 C 0.01602 0.23849 0.75108 0.0
O1298 O 0.00681 0.20414 0.7465 0.0
C1299 C 0.10453 0.06978 0.87304 0.0
C1300 C 0.16391 0.07536 0.88121 0.0
C1301 C 0.13584 0.05007 0.88081 0.0
N1302 N 0.11388 0.10505 0.86823 0.0
N1303 N 0.14948 0.10804 0.87294 0.0
C1304 C 0.06638 0.05556 0.87076 0.0
H1305 H 0.05042 0.06632 0.89414 0.0
H1306 H 0.0533 0.06558 0.84536 0.0
H1307 H 0.06585 0.02528 0.87136 0.0
C1308 C 0.09897 0.1787 0.74844 0.0
N1309 N 0.08774 0.179 0.78332 0.0
N1310 N 0.09734 0.1487 0.79957 0.0
C1311 C 0.11301 0.12675 0.77414 0.0
C1312 C 0.11442 0.14536 0.74094 0.0
C1313 C 0.09516 0.20964 0.72199 0.0
H1314 H 0.09655 0.2362 0.73637 0.0
H1315 H 0.06887 0.20722 0.70724 0.0
H1316 H 0.11729 0.20862 0.70132 0.0
O1317 O 0.08061 0.23645 0.8449 0.0
O1318 O 0.09722 0.19219 0.88259 0.0
H1319 H 0.14719 0.08644 0.79861 0.0
H1320 H 0.12983 0.07374 0.75433 0.0
C1321 C 0.1231 0.0877 0.78036 0.0
H1322 H 0.10023 0.07332 0.79397 0.0
H1323 H 0.16397 0.13238 0.87011 0.0
O1324 O 0.04085 0.24609 0.7736 0.0
C1325 C 0.09379 0.22628 0.87508 0.0
Co1326 Co 0.45944 0.69763 0.44622 0.0
Co1327 Co 0.3954 0.66798 0.40255 0.0
C1328 C 0.40724 0.74777 0.4025 0.0
O1329 O 0.43533 0.74235 0.42259 0.0
O1330 O 0.38669 0.72106 0.39383 0.0
C1331 C 0.48849 0.73768 0.50267 0.0
O1332 O 0.45414 0.74689 0.50724 0.0
C1333 C 0.31983 0.64934 0.38051 0.0
C1334 C 0.32534 0.58995 0.37226 0.0
C1335 C 0.30011 0.61807 0.3726 0.0
N1336 N 0.35507 0.63992 0.3854 0.0
N1337 N 0.35802 0.60432 0.38065 0.0
C1338 C 0.30565 0.68749 0.38284 0.0
H1339 H 0.31647 0.70349 0.35951 0.0
H1340 H 0.31563 0.70051 0.40828 0.0
H1341 H 0.27537 0.68806 0.38218 0.0
C1342 C 0.42868 0.65471 0.50524 0.0
N1343 N 0.429 0.66596 0.47037 0.0
N1344 N 0.3987 0.65638 0.4541 0.0
C1345 C 0.37673 0.64071 0.4795 0.0
C1346 C 0.39533 0.63929 0.51272 0.0
C1347 C 0.4596 0.65852 0.53172 0.0
H1348 H 0.48616 0.65711 0.51736 0.0
H1349 H 0.45718 0.68481 0.54646 0.0
H1350 H 0.45855 0.63639 0.55239 0.0
O1351 O 0.48648 0.67316 0.40881 0.0
O1352 O 0.44223 0.65655 0.3711 0.0
H1353 H 0.33642 0.60658 0.45499 0.0
H1354 H 0.32371 0.62391 0.49928 0.0
C1355 C 0.33768 0.63065 0.47326 0.0
H1356 H 0.32332 0.65354 0.45966 0.0
H1357 H 0.38234 0.58979 0.38352 0.0
O1358 O 0.4961 0.71283 0.48017 0.0
C1359 C 0.47631 0.65999 0.37862 0.0
Co1360 Co 0.69613 0.94765 0.70939 0.0
Co1361 Co 0.6525 0.91791 0.64535 0.0
C1362 C 0.6524 0.99773 0.65716 0.0
O1363 O 0.6725 0.99235 0.68525 0.0
O1364 O 0.64372 0.97098 0.63665 0.0
C1365 C 0.75255 0.98773 0.73843 0.0
O1366 O 0.7571 0.99686 0.70406 0.0
C1367 C 0.63053 0.8993 0.56976 0.0
C1368 C 0.62233 0.8399 0.57521 0.0
C1369 C 0.62266 0.86805 0.55 0.0
N1370 N 0.6354 0.88986 0.60499 0.0
N1371 N 0.63068 0.85425 0.6079 0.0
C1372 C 0.63283 0.93748 0.55562 0.0
H1373 H 0.6095 0.95345 0.56645 0.0
H1374 H 0.65827 0.9505 0.5656 0.0
H1375 H 0.63217 0.93807 0.52534 0.0
C1376 C 0.7552 0.90474 0.67869 0.0
N1377 N 0.72031 0.91598 0.67897 0.0
N1378 N 0.70407 0.90636 0.64868 0.0
C1379 C 0.72949 0.89067 0.62674 0.0
C1380 C 0.7627 0.88928 0.64536 0.0
C1381 C 0.78165 0.90858 0.70962 0.0
H1382 H 0.76727 0.90721 0.73618 0.0
H1383 H 0.7964 0.93486 0.70718 0.0
H1384 H 0.80232 0.88644 0.70862 0.0
O1385 O 0.65872 0.92317 0.7364 0.0
O1386 O 0.62105 0.90644 0.69217 0.0
H1387 H 0.70503 0.85646 0.58647 0.0
H1388 H 0.7493 0.87383 0.57375 0.0
C1389 C 0.72327 0.88056 0.58771 0.0
H1390 H 0.70964 0.90341 0.57332 0.0
H1391 H 0.63356 0.8397 0.63221 0.0
O1392 O 0.73002 0.96291 0.74605 0.0
C1393 C 0.62856 0.90993 0.72625 0.0
Co1394 Co 0.6962 0.0561 0.7943 0.0
Co1395 Co 0.65256 0.08579 0.85836 0.0
C1396 C 0.65253 0.00597 0.84654 0.0
O1397 O 0.67263 0.01138 0.81845 0.0
O1398 O 0.64384 0.0327 0.86706 0.0
C1399 C 0.75264 0.01608 0.7652 0.0
O1400 O 0.75725 0.00687 0.79954 0.0
C1401 C 0.63054 0.10438 0.93394 0.0
C1402 C 0.62235 0.16378 0.92848 0.0
C1403 C 0.62266 0.13564 0.95369 0.0
N1404 N 0.63543 0.11383 0.89871 0.0
N1405 N 0.63072 0.14943 0.89579 0.0
C1406 C 0.63284 0.06621 0.94808 0.0
H1407 H 0.60953 0.05023 0.93721 0.0
H1408 H 0.6583 0.0532 0.93813 0.0
H1409 H 0.63213 0.06561 0.97836 0.0
C1410 C 0.75522 0.09908 0.82499 0.0
N1411 N 0.72035 0.08782 0.8247 0.0
N1412 N 0.7041 0.0974 0.85501 0.0
C1413 C 0.72952 0.11309 0.87695 0.0
C1414 C 0.76272 0.11453 0.85833 0.0
C1415 C 0.78167 0.09526 0.79405 0.0
H1416 H 0.76728 0.09666 0.7675 0.0
H1417 H 0.79642 0.06898 0.79647 0.0
H1418 H 0.80234 0.1174 0.79507 0.0
O1419 O 0.65872 0.0805 0.76729 0.0
O1420 O 0.62107 0.09721 0.81155 0.0
H1421 H 0.70507 0.14725 0.91727 0.0
H1422 H 0.74934 0.12986 0.92997 0.0
C1423 C 0.72331 0.12315 0.916 0.0
H1424 H 0.70968 0.10028 0.93036 0.0
H1425 H 0.63361 0.16398 0.87149 0.0
O1426 O 0.73011 0.04092 0.75762 0.0
C1427 C 0.62855 0.0937 0.77746 0.0
Co1428 Co 0.30613 0.05751 0.45941 0.0
Co1429 Co 0.33579 0.10121 0.39537 0.0
C1430 C 0.25599 0.10119 0.40718 0.0
O1431 O 0.2614 0.08109 0.43527 0.0
O1432 O 0.28271 0.10988 0.38665 0.0
C1433 C 0.26612 1.00104 0.48848 0.0
O1434 O 0.25691 0.99644 0.45414 0.0
C1435 C 0.35441 0.12324 0.3198 0.0
C1436 C 0.41378 0.13161 0.32532 0.0
C1437 C 0.38566 0.13121 0.30008 0.0
N1438 N 0.36383 0.11839 0.35505 0.0
N1439 N 0.39942 0.1232 0.358 0.0
C1440 C 0.31626 0.12084 0.30562 0.0
H1441 H 0.30022 0.14415 0.31642 0.0
H1442 H 0.30328 0.09538 0.31562 0.0
H1443 H 0.31569 0.12148 0.27534 0.0
C1444 C 0.34913 0.99853 0.42868 0.0
N1445 N 0.33786 0.0334 0.42899 0.0
N1446 N 0.34744 0.04966 0.39869 0.0
C1447 C 0.36314 0.02427 0.37674 0.0
C1448 C 0.36458 0.99105 0.39534 0.0
C1449 C 0.34532 0.97205 0.4596 0.0
H1450 H 0.34672 0.98642 0.48616 0.0
H1451 H 0.31904 0.95731 0.45717 0.0
H1452 H 0.36746 0.95138 0.45856 0.0
O1453 O 0.33051 0.09498 0.48644 0.0
O1454 O 0.34718 0.13268 0.4422 0.0
H1455 H 0.39724 0.04882 0.33643 0.0
H1456 H 0.38 0.0045 0.32373 0.0
C1457 C 0.3732 0.03051 0.33769 0.0
H1458 H 0.3503 0.04406 0.32332 0.0
H1459 H 0.41395 0.12036 0.38232 0.0
O1460 O 0.29097 0.02356 0.49607 0.0
C1461 C 0.34368 0.12518 0.47629 0.0
Co1462 Co 0.30749 0.44765 0.79435 0.0
Co1463 Co 0.3512 0.41799 0.85838 0.0
C1464 C 0.35116 0.49781 0.84656 0.0
O1465 O 0.33105 0.4924 0.81848 0.0
O1466 O 0.35987 0.47108 0.86708 0.0
C1467 C 0.251 0.48762 0.76524 0.0
O1468 O 0.24639 0.49686 0.79957 0.0
C1469 C 0.37325 0.39939 0.93396 0.0
C1470 C 0.38158 0.34002 0.92846 0.0
C1471 C 0.38121 0.36815 0.95369 0.0
N1472 N 0.36839 0.38997 0.89872 0.0
N1473 N 0.37318 0.35437 0.89578 0.0
C1474 C 0.37087 0.43755 0.94813 0.0
H1475 H 0.39418 0.45358 0.93732 0.0
H1476 H 0.34541 0.45053 0.93815 0.0
H1477 H 0.37153 0.43813 0.97841 0.0
C1478 C 0.24853 0.40463 0.82508 0.0
N1479 N 0.2834 0.41591 0.82477 0.0
N1480 N 0.29966 0.40634 0.85506 0.0
C1481 C 0.27427 0.39065 0.87703 0.0
C1482 C 0.24105 0.38919 0.85842 0.0
C1483 C 0.22205 0.40842 0.79415 0.0
H1484 H 0.23642 0.40701 0.76759 0.0
H1485 H 0.2073 0.43471 0.79657 0.0
H1486 H 0.20138 0.38629 0.7952 0.0
O1487 O 0.34497 0.4233 0.76731 0.0
O1488 O 0.38266 0.4066 0.81154 0.0
H1489 H 0.29881 0.35656 0.91735 0.0
H1490 H 0.2545 0.37382 0.93004 0.0
C1491 C 0.28051 0.3806 0.91608 0.0
H1492 H 0.29408 0.40351 0.93044 0.0
H1493 H 0.37032 0.33983 0.87147 0.0
O1494 O 0.27353 0.46277 0.75768 0.0
C1495 C 0.37516 0.41012 0.77746 0.0
Co1496 Co 0.19769 0.94617 0.95931 0.0
Co1497 Co 0.16785 0.90255 0.8953 0.0
C1498 C 0.24771 0.90242 0.9071 0.0
O1499 O 0.24239 0.92259 0.93515 0.0
O1500 O 0.22092 0.89371 0.88665 0.0
C1501 C 0.23774 0.0026 0.98842 0.0
O1502 O 0.24689 0.00719 0.95406 0.0
C1503 C 0.14931 0.88059 0.81969 0.0
C1504 C 0.08989 0.87249 0.82505 0.0
C1505 C 0.11808 0.87277 0.79988 0.0
N1506 N 0.13982 0.88549 0.85491 0.0
N1507 N 0.1042 0.88083 0.85776 0.0
C1508 C 0.18751 0.88284 0.8056 0.0
H1509 H 0.20344 0.85951 0.8165 0.0
H1510 H 0.20053 0.90829 0.81557 0.0
H1511 H 0.18815 0.88213 0.77532 0.0
C1512 C 0.15476 0.00525 0.92866 0.0
N1513 N 0.16599 0.97036 0.92893 0.0
N1514 N 0.15633 0.95413 0.89865 0.0
C1515 C 0.14062 0.97955 0.87673 0.0
C1516 C 0.13925 0.01276 0.89536 0.0
C1517 C 0.15861 0.03169 0.95961 0.0
H1518 H 0.15726 0.01729 0.98616 0.0
H1519 H 0.18488 0.04645 0.95716 0.0
H1520 H 0.13647 0.05235 0.95863 0.0
O1521 O 0.17326 0.90873 0.98631 0.0
O1522 O 0.15631 0.87112 0.9421 0.0
H1523 H 0.10633 0.95517 0.83648 0.0
H1524 H 0.1238 0.99939 0.82374 0.0
C1525 C 0.13048 0.97335 0.8377 0.0
H1526 H 0.15329 0.95966 0.8233 0.0
H1527 H 0.08962 0.88374 0.88205 0.0
O1528 O 0.21294 0.98003 0.99601 0.0
C1529 C 0.1599 0.87861 0.97618 0.0
Co1530 Co 0.80744 0.05602 0.20935 0.0
Co1531 Co 0.85112 0.08578 0.14534 0.0
C1532 C 0.85114 0.00593 0.15713 0.0
O1533 O 0.83098 0.01128 0.18519 0.0
O1534 O 0.85986 0.0327 0.13667 0.0
C1535 C 0.75096 0.01606 0.23852 0.0
O1536 O 0.74632 0.00679 0.2042 0.0
C1537 C 0.87314 0.10437 0.06976 0.0
C1538 C 0.88136 0.16376 0.07521 0.0
C1539 C 0.88104 0.13562 0.05 0.0
N1540 N 0.86825 0.11381 0.10499 0.0
N1541 N 0.87298 0.14942 0.1079 0.0
C1542 C 0.87083 0.0662 0.05561 0.0
H1543 H 0.89414 0.05021 0.06647 0.0
H1544 H 0.84537 0.05319 0.06558 0.0
H1545 H 0.87151 0.0656 0.02533 0.0
C1546 C 0.74844 0.09904 0.17867 0.0
N1547 N 0.78331 0.08777 0.17896 0.0
N1548 N 0.79957 0.09738 0.14867 0.0
C1549 C 0.77416 0.11309 0.12673 0.0
C1550 C 0.74095 0.11452 0.14535 0.0
C1551 C 0.72198 0.09522 0.2096 0.0
H1552 H 0.73636 0.09662 0.23616 0.0
H1553 H 0.70723 0.06894 0.20717 0.0
H1554 H 0.70131 0.11735 0.20858 0.0
O1555 O 0.84494 0.08037 0.23637 0.0
O1556 O 0.88257 0.09724 0.19215 0.0
H1557 H 0.79863 0.14728 0.08645 0.0
H1558 H 0.75436 0.12992 0.07372 0.0
C1559 C 0.78039 0.12319 0.08769 0.0
H1560 H 0.79401 0.10033 0.07331 0.0
H1561 H 0.8701 0.16397 0.1322 0.0
O1562 O 0.77351 0.04089 0.24605 0.0
C1563 C 0.87509 0.09365 0.22623 0.0
Co1564 Co 0.30605 0.94628 0.04436 0.0
Co1565 Co 0.33572 0.90257 0.10838 0.0
C1566 C 0.2559 0.90258 0.09654 0.0
O1567 O 0.26131 0.92271 0.06847 0.0
O1568 O 0.28263 0.89386 0.11706 0.0
C1569 C 0.26605 0.00274 0.01523 0.0
O1570 O 0.25678 0.00733 0.04956 0.0
C1571 C 0.35433 0.88052 0.18396 0.0
C1572 C 0.41371 0.87223 0.17845 0.0
C1573 C 0.38559 0.87258 0.20368 0.0
N1574 N 0.36375 0.8854 0.14872 0.0
N1575 N 0.39935 0.88062 0.14577 0.0
C1576 C 0.31618 0.88287 0.19813 0.0
H1577 H 0.30017 0.85955 0.18732 0.0
H1578 H 0.30317 0.90832 0.18814 0.0
H1579 H 0.31561 0.88222 0.22841 0.0
C1580 C 0.34903 0.00527 0.07511 0.0
N1581 N 0.33776 0.97039 0.07479 0.0
N1582 N 0.34734 0.95412 0.10508 0.0
C1583 C 0.36304 0.97951 0.12705 0.0
C1584 C 0.36447 0.01273 0.10846 0.0
C1585 C 0.3452 0.03175 0.04421 0.0
H1586 H 0.34663 0.0174 0.01764 0.0
H1587 H 0.31891 0.04647 0.04663 0.0
H1588 H 0.36732 0.05245 0.04526 0.0
O1589 O 0.33044 0.90882 0.01733 0.0
O1590 O 0.34715 0.87112 0.06156 0.0
H1591 H 0.39716 0.95497 0.16735 0.0
H1592 H 0.37987 0.99927 0.18007 0.0
C1593 C 0.3731 0.97326 0.16609 0.0
H1594 H 0.35021 0.95967 0.18046 0.0
H1595 H 0.41388 0.88349 0.12146 0.0
O1596 O 0.29092 0.98023 0.00768 0.0
C1597 C 0.34364 0.87863 0.02747 0.0
Co1598 Co 0.69764 0.55744 0.04435 0.0
Co1599 Co 0.66795 0.60112 0.10838 0.0
C1600 C 0.74778 0.60111 0.09657 0.0
O1601 O 0.74239 0.58098 0.0685 0.0
O1602 O 0.72103 0.60982 0.11707 0.0
C1603 C 0.73761 0.50096 0.01521 0.0
O1604 O 0.74685 0.49633 0.04954 0.0
C1605 C 0.64937 0.62315 0.18396 0.0
C1606 C 0.58997 0.63138 0.17851 0.0
C1607 C 0.61812 0.63105 0.20372 0.0
N1608 N 0.63992 0.61827 0.14873 0.0
N1609 N 0.60432 0.623 0.14582 0.0
C1610 C 0.68754 0.62084 0.19811 0.0
H1611 H 0.70353 0.64413 0.18724 0.0
H1612 H 0.70053 0.59537 0.18816 0.0
H1613 H 0.68814 0.62154 0.22839 0.0
C1614 C 0.65461 0.49846 0.07504 0.0
N1615 N 0.6659 0.53332 0.07475 0.0
N1616 N 0.65631 0.54958 0.10505 0.0
C1617 C 0.6406 0.52418 0.12699 0.0
C1618 C 0.63915 0.49097 0.10838 0.0
C1619 C 0.65842 0.47199 0.04411 0.0
H1620 H 0.65702 0.48637 0.01756 0.0
H1621 H 0.6847 0.45724 0.04653 0.0
H1622 H 0.63628 0.45132 0.04514 0.0
O1623 O 0.67329 0.59493 0.01733 0.0
O1624 O 0.65652 0.63259 0.06156 0.0
H1625 H 0.60645 0.54866 0.1673 0.0
H1626 H 0.62381 0.50438 0.18001 0.0
C1627 C 0.63054 0.53041 0.16604 0.0
H1628 H 0.65342 0.54402 0.1804 0.0
H1629 H 0.58977 0.62012 0.12151 0.0
O1630 O 0.71277 0.52349 0.00766 0.0
C1631 C 0.66007 0.6251 0.02748 0.0
loop_
_geom_bond_atom_site_label_1
_geom_bond_atom_site_label_2
_geom_bond_distance
_geom_bond_site_symmetry_2
_ccdc_geom_bond_type
Co0 O3 1.970 . S
Co0 N17 1.989 . S
Co0 O25 1.967 . S
Co0 O32 1.920 . S
Co1 O4 1.966 . S
Co1 N10 2.022 . S
Co1 N18 1.993 . S
Co1 O26 1.941 . S
C2 O3 1.258 . S
C2 O4 1.263 . S
O3 Co0 1.970 . S
O3 C2 1.258 . S
O4 Co1 1.966 . S
O4 C2 1.263 . S
C5 O6 1.235 . S
C5 O32 1.289 . S
O6 C5 1.235 . S
C7 C9 1.400 . S
C7 N10 1.351 . S
C7 C12 1.501 . S
C8 C9 1.387 . S
C8 N11 1.341 . S
C9 C7 1.400 . S
C9 C8 1.387 . S
N10 Co1 2.022 . S
N10 C7 1.351 . S
N10 N11 1.365 . S
N11 C8 1.341 . S
N11 N10 1.365 . S
N11 H31 0.862 . S
C12 C7 1.501 . S
C12 H13 0.961 . S
C12 H14 0.961 . S
C12 H15 0.960 . S
H13 C12 0.961 . S
H14 C12 0.961 . S
H15 C12 0.960 . S
C16 N17 1.342 . S
C16 C20 1.401 . S
C16 C21 1.499 . S
N17 Co0 1.989 . S
N17 C16 1.342 . S
N17 N18 1.388 . S
N18 Co1 1.993 . S
N18 N17 1.388 . S
N18 C19 1.346 . S
C19 N18 1.346 . S
C19 C20 1.396 . S
C19 C29 1.510 . S
C20 C16 1.401 . S
C20 C19 1.396 . S
C21 C16 1.499 . S
C21 H22 0.959 . S
C21 H23 0.960 . S
C21 H24 0.961 . S
H22 C21 0.959 . S
H23 C21 0.960 . S
H24 C21 0.961 . S
O25 Co0 1.967 . S
O25 C33 1.258 . S
O26 Co1 1.941 . S
O26 C33 1.266 . S
H27 C29 0.959 . S
H28 C29 0.961 . S
C29 C19 1.510 . S
C29 H27 0.959 . S
C29 H28 0.961 . S
C29 H30 0.960 . S
H30 C29 0.960 . S
H31 N11 0.862 . S
O32 Co0 1.920 . S
O32 C5 1.289 . S
C33 O25 1.258 . S
C33 O26 1.266 . S
Co34 O37 1.970 . S
Co34 N51 1.989 . S
Co34 O59 1.967 . S
Co34 O66 1.920 . S
Co35 O38 1.966 . S
Co35 N44 2.022 . S
Co35 N52 1.993 . S
Co35 O60 1.941 . S
C36 O37 1.258 . S
C36 O38 1.263 . S
O37 Co34 1.970 . S
O37 C36 1.258 . S
O38 Co35 1.966 . S
O38 C36 1.263 . S
C39 O40 1.235 . S
C39 O66 1.289 . S
O40 C39 1.235 . S
C41 C43 1.400 . S
C41 N44 1.351 . S
C41 C46 1.501 . S
C42 C43 1.387 . S
C42 N45 1.341 . S
C43 C41 1.400 . S
C43 C42 1.387 . S
N44 Co35 2.022 . S
N44 C41 1.351 . S
N44 N45 1.365 . S
N45 C42 1.341 . S
N45 N44 1.365 . S
N45 H65 0.862 . S
C46 C41 1.501 . S
C46 H47 0.961 . S
C46 H48 0.961 . S
C46 H49 0.960 . S
H47 C46 0.961 . S
H48 C46 0.961 . S
H49 C46 0.960 . S
C50 N51 1.342 . S
C50 C54 1.401 . S
C50 C55 1.499 . S
N51 Co34 1.989 . S
N51 C50 1.342 . S
N51 N52 1.388 . S
N52 Co35 1.993 . S
N52 N51 1.388 . S
N52 C53 1.346 . S
C53 N52 1.346 . S
C53 C54 1.396 . S
C53 C63 1.510 . S
C54 C50 1.401 . S
C54 C53 1.396 . S
C55 C50 1.499 . S
C55 H56 0.959 . S
C55 H57 0.960 . S
C55 H58 0.961 . S
H56 C55 0.959 . S
H57 C55 0.960 . S
H58 C55 0.961 . S
O59 Co34 1.967 . S
O59 C67 1.258 . S
O60 Co35 1.941 . S
O60 C67 1.266 . S
H61 C63 0.959 . S
H62 C63 0.961 . S
C63 C53 1.510 . S
C63 H61 0.959 . S
C63 H62 0.961 . S
C63 H64 0.960 . S
H64 C63 0.960 . S
H65 N45 0.862 . S
O66 Co34 1.920 . S
O66 C39 1.289 . S
C67 O59 1.258 . S
C67 O60 1.266 . S
Co68 O71 1.970 . S
Co68 N85 1.989 . S
Co68 O93 1.967 . S
Co68 O100 1.920 . S
Co69 O72 1.966 . S
Co69 N78 2.022 . S
Co69 N86 1.993 . S
Co69 O94 1.941 . S
C70 O71 1.258 . S
C70 O72 1.263 . S
O71 Co68 1.970 . S
O71 C70 1.258 . S
O72 Co69 1.966 . S
O72 C70 1.263 . S
C73 O74 1.235 . S
C73 O100 1.289 . S
O74 C73 1.235 . S
C75 C77 1.400 . S
C75 N78 1.351 . S
C75 C80 1.501 . S
C76 C77 1.387 . S
C76 N79 1.341 . S
C77 C75 1.400 . S
C77 C76 1.387 . S
N78 Co69 2.022 . S
N78 C75 1.351 . S
N78 N79 1.365 . S
N79 C76 1.341 . S
N79 N78 1.365 . S
N79 H99 0.862 . S
C80 C75 1.501 . S
C80 H81 0.961 . S
C80 H82 0.961 . S
C80 H83 0.960 . S
H81 C80 0.961 . S
H82 C80 0.961 . S
H83 C80 0.960 . S
C84 N85 1.342 . S
C84 C88 1.401 . S
C84 C89 1.499 . S
N85 Co68 1.989 . S
N85 C84 1.342 . S
N85 N86 1.388 . S
N86 Co69 1.993 . S
N86 N85 1.388 . S
N86 C87 1.346 . S
C87 N86 1.346 . S
C87 C88 1.396 . S
C87 C97 1.510 . S
C88 C84 1.401 . S
C88 C87 1.396 . S
C89 C84 1.499 . S
C89 H90 0.959 . S
C89 H91 0.960 . S
C89 H92 0.961 . S
H90 C89 0.959 . S
H91 C89 0.960 . S
H92 C89 0.961 . S
O93 Co68 1.967 . S
O93 C101 1.258 . S
O94 Co69 1.941 . S
O94 C101 1.266 . S
H95 C97 0.959 . S
H96 C97 0.961 . S
C97 C87 1.510 . S
C97 H95 0.959 . S
C97 H96 0.961 . S
C97 H98 0.960 . S
H98 C97 0.960 . S
H99 N79 0.862 . S
O100 Co68 1.920 . S
O100 C73 1.289 . S
C101 O93 1.258 . S
C101 O94 1.266 . S
Co102 O105 1.970 . S
Co102 N119 1.989 . S
Co102 O127 1.967 . S
Co102 O134 1.920 . S
Co103 O106 1.966 . S
Co103 N112 2.022 . S
Co103 N120 1.993 . S
Co103 O128 1.941 . S
C104 O105 1.258 . S
C104 O106 1.263 . S
O105 Co102 1.970 . S
O105 C104 1.258 . S
O106 Co103 1.966 . S
O106 C104 1.263 . S
C107 O108 1.235 . S
C107 O134 1.289 . S
O108 C107 1.235 . S
C109 C111 1.400 . S
C109 N112 1.351 . S
C109 C114 1.501 . S
C110 C111 1.387 . S
C110 N113 1.341 . S
C111 C109 1.400 . S
C111 C110 1.387 . S
N112 Co103 2.022 . S
N112 C109 1.351 . S
N112 N113 1.365 . S
N113 C110 1.341 . S
N113 N112 1.365 . S
N113 H133 0.862 . S
C114 C109 1.501 . S
C114 H115 0.961 . S
C114 H116 0.961 . S
C114 H117 0.960 . S
H115 C114 0.961 . S
H116 C114 0.961 . S
H117 C114 0.960 . S
C118 N119 1.342 . S
C118 C122 1.401 . S
C118 C123 1.499 . S
N119 Co102 1.989 . S
N119 C118 1.342 . S
N119 N120 1.388 . S
N120 Co103 1.993 . S
N120 N119 1.388 . S
N120 C121 1.346 . S
C121 N120 1.346 . S
C121 C122 1.396 . S
C121 C131 1.510 . S
C122 C118 1.401 . S
C122 C121 1.396 . S
C123 C118 1.499 . S
C123 H124 0.959 . S
C123 H125 0.960 . S
C123 H126 0.961 . S
H124 C123 0.959 . S
H125 C123 0.960 . S
H126 C123 0.961 . S
O127 Co102 1.967 . S
O127 C135 1.258 . S
O128 Co103 1.941 . S
O128 C135 1.266 . S
H129 C131 0.959 . S
H130 C131 0.961 . S
C131 C121 1.510 . S
C131 H129 0.959 . S
C131 H130 0.961 . S
C131 H132 0.960 . S
H132 C131 0.960 . S
H133 N113 0.862 . S
O134 Co102 1.920 . S
O134 C107 1.289 . S
C135 O127 1.258 . S
C135 O128 1.266 . S
Co136 O139 1.970 . S
Co136 N153 1.989 . S
Co136 O161 1.967 . S
Co136 O168 1.920 . S
Co137 O140 1.966 . S
Co137 N146 2.022 . S
Co137 N154 1.993 . S
Co137 O162 1.941 . S
C138 O139 1.258 . S
C138 O140 1.263 . S
O139 Co136 1.970 . S
O139 C138 1.258 . S
O140 Co137 1.966 . S
O140 C138 1.263 . S
C141 O142 1.235 1_554 S
C141 O168 1.289 . S
O142 C141 1.235 1_556 S
C143 C145 1.400 . S
C143 N146 1.351 . S
C143 C148 1.501 . S
C144 C145 1.387 . S
C144 N147 1.341 . S
C145 C143 1.400 . S
C145 C144 1.387 . S
N146 Co137 2.022 . S
N146 C143 1.351 . S
N146 N147 1.365 . S
N147 C144 1.341 . S
N147 N146 1.365 . S
N147 H167 0.862 . S
C148 C143 1.501 . S
C148 H149 0.961 . S
C148 H150 0.961 . S
C148 H151 0.960 . S
H149 C148 0.961 . S
H150 C148 0.961 . S
H151 C148 0.960 . S
C152 N153 1.342 . S
C152 C156 1.401 . S
C152 C157 1.499 . S
N153 Co136 1.989 . S
N153 C152 1.342 . S
N153 N154 1.388 . S
N154 Co137 1.993 . S
N154 N153 1.388 . S
N154 C155 1.346 . S
C155 N154 1.346 . S
C155 C156 1.396 . S
C155 C165 1.510 . S
C156 C152 1.401 . S
C156 C155 1.396 . S
C157 C152 1.499 . S
C157 H158 0.959 . S
C157 H159 0.960 . S
C157 H160 0.961 . S
H158 C157 0.959 . S
H159 C157 0.960 . S
H160 C157 0.961 . S
O161 Co136 1.967 . S
O161 C169 1.258 . S
O162 Co137 1.941 . S
O162 C169 1.266 . S
H163 C165 0.959 . S
H164 C165 0.961 . S
C165 C155 1.510 . S
C165 H163 0.959 . S
C165 H164 0.961 . S
C165 H166 0.960 . S
H166 C165 0.960 . S
H167 N147 0.862 . S
O168 Co136 1.920 . S
O168 C141 1.289 . S
C169 O161 1.258 . S
C169 O162 1.266 . S
Co170 O173 1.970 . S
Co170 N187 1.989 . S
Co170 O195 1.967 . S
Co170 O202 1.920 . S
Co171 O174 1.966 . S
Co171 N180 2.022 . S
Co171 N188 1.993 . S
Co171 O196 1.941 . S
C172 O173 1.258 . S
C172 O174 1.263 . S
O173 Co170 1.970 . S
O173 C172 1.258 . S
O174 Co171 1.966 . S
O174 C172 1.263 . S
C175 O176 1.235 . S
C175 O202 1.289 . S
O176 C175 1.235 . S
C177 C179 1.400 . S
C177 N180 1.351 . S
C177 C182 1.501 . S
C178 C179 1.387 . S
C178 N181 1.341 . S
C179 C177 1.400 . S
C179 C178 1.387 . S
N180 Co171 2.022 . S
N180 C177 1.351 . S
N180 N181 1.365 . S
N181 C178 1.341 . S
N181 N180 1.365 . S
N181 H201 0.862 . S
C182 C177 1.501 . S
C182 H183 0.961 . S
C182 H184 0.961 . S
C182 H185 0.960 . S
H183 C182 0.961 . S
H184 C182 0.961 . S
H185 C182 0.960 . S
C186 N187 1.342 . S
C186 C190 1.395 1_455 S
C186 C191 1.499 1_455 S
N187 Co170 1.989 . S
N187 C186 1.342 . S
N187 N188 1.388 . S
N188 Co171 1.993 . S
N188 N187 1.388 . S
N188 C189 1.346 . S
C189 N188 1.346 . S
C189 C190 1.369 1_455 S
C189 C199 1.510 . S
C190 C186 1.395 1_655 S
C190 C189 1.369 1_655 S
C191 C186 1.499 1_655 S
C191 H192 0.959 . S
C191 H193 0.960 . S
C191 H194 0.961 . S
H192 C191 0.959 . S
H193 C191 0.960 . S
H194 C191 0.961 . S
O195 Co170 1.967 . S
O195 C203 1.258 . S
O196 Co171 1.941 . S
O196 C203 1.266 . S
H197 C199 0.959 . S
H198 C199 0.961 . S
C199 C189 1.510 . S
C199 H197 0.959 . S
C199 H198 0.961 . S
C199 H200 0.960 . S
H200 C199 0.960 . S
H201 N181 0.862 . S
O202 Co170 1.920 . S
O202 C175 1.289 . S
C203 O195 1.258 . S
C203 O196 1.266 . S
Co204 O207 1.970 . S
Co204 N221 1.989 . S
Co204 O229 1.967 . S
Co204 O236 1.920 . S
Co205 O208 1.966 . S
Co205 N214 2.022 . S
Co205 N222 1.993 . S
Co205 O230 1.941 . S
C206 O207 1.258 . S
C206 O208 1.263 . S
O207 Co204 1.970 . S
O207 C206 1.258 . S
O208 Co205 1.966 . S
O208 C206 1.263 . S
C209 O210 1.235 1_554 S
C209 O236 1.289 . S
O210 C209 1.235 1_556 S
C211 C213 1.400 . S
C211 N214 1.351 . S
C211 C216 1.501 . S
C212 C213 1.387 . S
C212 N215 1.341 . S
C213 C211 1.400 . S
C213 C212 1.387 . S
N214 Co205 2.022 . S
N214 C211 1.351 . S
N214 N215 1.365 . S
N215 C212 1.341 . S
N215 N214 1.365 . S
N215 H235 0.862 . S
C216 C211 1.501 . S
C216 H217 0.961 . S
C216 H218 0.961 . S
C216 H219 0.960 . S
H217 C216 0.961 . S
H218 C216 0.961 . S
H219 C216 0.960 . S
C220 N221 1.342 . S
C220 C224 1.401 . S
C220 C225 1.499 . S
N221 Co204 1.989 . S
N221 C220 1.342 . S
N221 N222 1.388 . S
N222 Co205 1.993 . S
N222 N221 1.388 . S
N222 C223 1.346 . S
C223 N222 1.346 . S
C223 C224 1.396 . S
C223 C233 1.510 . S
C224 C220 1.401 . S
C224 C223 1.396 . S
C225 C220 1.499 . S
C225 H226 0.959 . S
C225 H227 0.960 . S
C225 H228 0.961 . S
H226 C225 0.959 . S
H227 C225 0.960 . S
H228 C225 0.961 . S
O229 Co204 1.967 . S
O229 C237 1.258 . S
O230 Co205 1.941 . S
O230 C237 1.266 . S
H231 C233 0.959 . S
H232 C233 0.961 . S
C233 C223 1.510 . S
C233 H231 0.959 . S
C233 H232 0.961 . S
C233 H234 0.960 . S
H234 C233 0.960 . S
H235 N215 0.862 . S
O236 Co204 1.920 . S
O236 C209 1.289 . S
C237 O229 1.258 . S
C237 O230 1.266 . S
Co238 O241 1.970 . S
Co238 N255 1.989 . S
Co238 O263 1.967 . S
Co238 O270 1.920 . S
Co239 O242 1.966 . S
Co239 N248 2.022 . S
Co239 N256 1.993 . S
Co239 O264 1.941 . S
C240 O241 1.258 . S
C240 O242 1.263 . S
O241 Co238 1.970 . S
O241 C240 1.258 . S
O242 Co239 1.966 . S
O242 C240 1.263 . S
C243 O244 1.235 . S
C243 O270 1.289 . S
O244 C243 1.235 . S
C245 C247 1.400 . S
C245 N248 1.351 . S
C245 C250 1.501 . S
C246 C247 1.387 . S
C246 N249 1.341 . S
C247 C245 1.400 . S
C247 C246 1.387 . S
N248 Co239 2.022 . S
N248 C245 1.351 . S
N248 N249 1.365 . S
N249 C246 1.341 . S
N249 N248 1.365 . S
N249 H269 0.862 . S
C250 C245 1.501 . S
C250 H251 0.961 . S
C250 H252 0.961 . S
C250 H253 0.960 . S
H251 C250 0.961 . S
H252 C250 0.961 . S
H253 C250 0.960 . S
C254 N255 1.342 . S
C254 C258 1.395 1_655 S
C254 C259 1.499 1_655 S
N255 Co238 1.989 . S
N255 C254 1.342 . S
N255 N256 1.388 . S
N256 Co239 1.993 . S
N256 N255 1.388 . S
N256 C257 1.346 . S
C257 N256 1.346 . S
C257 C258 1.369 1_655 S
C257 C267 1.510 . S
C258 C254 1.395 1_455 S
C258 C257 1.369 1_455 S
C259 C254 1.499 1_455 S
C259 H260 0.959 . S
C259 H261 0.960 . S
C259 H262 0.961 . S
H260 C259 0.959 . S
H261 C259 0.960 . S
H262 C259 0.961 . S
O263 Co238 1.967 . S
O263 C271 1.258 . S
O264 Co239 1.941 . S
O264 C271 1.266 . S
H265 C267 0.959 . S
H266 C267 0.961 . S
C267 C257 1.510 . S
C267 H265 0.959 . S
C267 H266 0.961 . S
C267 H268 0.960 . S
H268 C267 0.960 . S
H269 N249 0.862 . S
O270 Co238 1.920 . S
O270 C243 1.289 . S
C271 O263 1.258 . S
C271 O264 1.266 . S
Co272 O275 1.970 . S
Co272 N289 1.989 . S
Co272 O297 1.967 . S
Co272 O304 1.920 . S
Co273 O276 1.966 . S
Co273 N282 2.022 . S
Co273 N290 1.993 . S
Co273 O298 1.941 . S
C274 O275 1.258 . S
C274 O276 1.263 . S
O275 Co272 1.970 . S
O275 C274 1.258 . S
O276 Co273 1.966 . S
O276 C274 1.263 . S
C277 O278 1.235 . S
C277 O304 1.289 . S
O278 C277 1.235 . S
C279 C281 1.400 . S
C279 N282 1.351 . S
C279 C284 1.501 . S
C280 C281 1.387 . S
C280 N283 1.341 . S
C281 C279 1.400 . S
C281 C280 1.387 . S
N282 Co273 2.022 . S
N282 C279 1.351 . S
N282 N283 1.365 . S
N283 C280 1.341 . S
N283 N282 1.365 . S
N283 H303 0.862 . S
C284 C279 1.501 . S
C284 H285 0.961 . S
C284 H286 0.961 . S
C284 H287 0.960 . S
H285 C284 0.961 . S
H286 C284 0.961 . S
H287 C284 0.960 . S
C288 N289 1.342 . S
C288 C292 1.401 . S
C288 C293 1.499 . S
N289 Co272 1.989 . S
N289 C288 1.342 . S
N289 N290 1.388 . S
N290 Co273 1.993 . S
N290 N289 1.388 . S
N290 C291 1.346 . S
C291 N290 1.346 . S
C291 C292 1.396 . S
C291 C301 1.510 . S
C292 C288 1.401 . S
C292 C291 1.396 . S
C293 C288 1.499 . S
C293 H294 0.959 . S
C293 H295 0.960 . S
C293 H296 0.961 . S
H294 C293 0.959 . S
H295 C293 0.960 . S
H296 C293 0.961 . S
O297 Co272 1.967 . S
O297 C305 1.258 . S
O298 Co273 1.941 . S
O298 C305 1.266 . S
H299 C301 0.959 . S
H300 C301 0.961 . S
C301 C291 1.510 . S
C301 H299 0.959 . S
C301 H300 0.961 . S
C301 H302 0.960 . S
H302 C301 0.960 . S
H303 N283 0.862 . S
O304 Co272 1.920 . S
O304 C277 1.289 . S
C305 O297 1.258 . S
C305 O298 1.266 . S
Co306 O309 1.970 . S
Co306 N323 1.989 . S
Co306 O331 1.967 . S
Co306 O338 1.920 . S
Co307 O310 1.966 . S
Co307 N316 2.022 . S
Co307 N324 1.993 . S
Co307 O332 1.941 . S
C308 O309 1.258 . S
C308 O310 1.263 . S
O309 Co306 1.970 . S
O309 C308 1.258 . S
O310 Co307 1.966 . S
O310 C308 1.263 . S
C311 O312 1.235 . S
C311 O338 1.289 . S
O312 C311 1.235 . S
C313 C315 1.400 . S
C313 N316 1.351 . S
C313 C318 1.501 . S
C314 C315 1.387 . S
C314 N317 1.341 . S
C315 C313 1.400 . S
C315 C314 1.387 . S
N316 Co307 2.022 . S
N316 C313 1.351 . S
N316 N317 1.365 . S
N317 C314 1.341 . S
N317 N316 1.365 . S
N317 H337 0.862 . S
C318 C313 1.501 . S
C318 H319 0.961 . S
C318 H320 0.961 . S
C318 H321 0.960 . S
H319 C318 0.961 . S
H320 C318 0.961 . S
H321 C318 0.960 . S
C322 N323 1.342 . S
C322 C326 1.395 1_554 S
C322 C327 1.499 1_554 S
N323 Co306 1.989 . S
N323 C322 1.342 . S
N323 N324 1.388 . S
N324 Co307 1.993 . S
N324 N323 1.388 . S
N324 C325 1.346 . S
C325 N324 1.346 . S
C325 C326 1.369 1_554 S
C325 C335 1.510 . S
C326 C322 1.395 1_556 S
C326 C325 1.369 1_556 S
C327 C322 1.499 1_556 S
C327 H328 0.959 . S
C327 H329 0.960 . S
C327 H330 0.961 . S
H328 C327 0.959 . S
H329 C327 0.960 . S
H330 C327 0.961 . S
O331 Co306 1.967 . S
O331 C339 1.258 . S
O332 Co307 1.941 . S
O332 C339 1.266 . S
H333 C335 0.959 . S
H334 C335 0.961 . S
C335 C325 1.510 . S
C335 H333 0.959 . S
C335 H334 0.961 . S
C335 H336 0.960 . S
H336 C335 0.960 . S
H337 N317 0.862 . S
O338 Co306 1.920 . S
O338 C311 1.289 . S
C339 O331 1.258 . S
C339 O332 1.266 . S
Co340 O343 1.970 . S
Co340 N357 1.989 . S
Co340 O365 1.967 . S
Co340 O372 1.920 . S
Co341 O344 1.966 . S
Co341 N350 2.022 . S
Co341 N358 1.993 . S
Co341 O366 1.941 . S
C342 O343 1.258 . S
C342 O344 1.263 . S
O343 Co340 1.970 . S
O343 C342 1.258 . S
O344 Co341 1.966 . S
O344 C342 1.263 . S
C345 O346 1.235 . S
C345 O372 1.289 . S
O346 C345 1.235 . S
C347 C349 1.400 . S
C347 N350 1.351 . S
C347 C352 1.501 . S
C348 C349 1.387 . S
C348 N351 1.341 . S
C349 C347 1.400 . S
C349 C348 1.387 . S
N350 Co341 2.022 . S
N350 C347 1.351 . S
N350 N351 1.365 . S
N351 C348 1.341 . S
N351 N350 1.365 . S
N351 H371 0.862 . S
C352 C347 1.501 . S
C352 H353 0.961 . S
C352 H354 0.961 . S
C352 H355 0.960 . S
H353 C352 0.961 . S
H354 C352 0.961 . S
H355 C352 0.960 . S
C356 N357 1.342 . S
C356 C360 1.401 . S
C356 C361 1.499 . S
N357 Co340 1.989 . S
N357 C356 1.342 . S
N357 N358 1.388 . S
N358 Co341 1.993 . S
N358 N357 1.388 . S
N358 C359 1.346 . S
C359 N358 1.346 . S
C359 C360 1.396 . S
C359 C369 1.510 . S
C360 C356 1.401 . S
C360 C359 1.396 . S
C361 C356 1.499 . S
C361 H362 0.959 . S
C361 H363 0.960 . S
C361 H364 0.961 . S
H362 C361 0.959 . S
H363 C361 0.960 . S
H364 C361 0.961 . S
O365 Co340 1.967 . S
O365 C373 1.258 . S
O366 Co341 1.941 . S
O366 C373 1.266 . S
H367 C369 0.959 . S
H368 C369 0.961 . S
C369 C359 1.510 . S
C369 H367 0.959 . S
C369 H368 0.961 . S
C369 H370 0.960 . S
H370 C369 0.960 . S
H371 N351 0.862 . S
O372 Co340 1.920 . S
O372 C345 1.289 . S
C373 O365 1.258 . S
C373 O366 1.266 . S
Co374 O377 1.970 . S
Co374 N391 1.989 . S
Co374 O399 1.967 . S
Co374 O406 1.920 . S
Co375 O378 1.966 . S
Co375 N384 2.022 . S
Co375 N392 1.993 . S
Co375 O400 1.941 . S
C376 O377 1.258 . S
C376 O378 1.263 . S
O377 Co374 1.970 . S
O377 C376 1.258 . S
O378 Co375 1.966 . S
O378 C376 1.263 . S
C379 O380 1.235 . S
C379 O406 1.289 . S
O380 C379 1.235 . S
C381 C383 1.400 . S
C381 N384 1.351 . S
C381 C386 1.501 . S
C382 C383 1.387 . S
C382 N385 1.341 . S
C383 C381 1.400 . S
C383 C382 1.387 . S
N384 Co375 2.022 . S
N384 C381 1.351 . S
N384 N385 1.365 . S
N385 C382 1.341 . S
N385 N384 1.365 . S
N385 H405 0.862 . S
C386 C381 1.501 . S
C386 H387 0.961 . S
C386 H388 0.961 . S
C386 H389 0.960 . S
H387 C386 0.961 . S
H388 C386 0.961 . S
H389 C386 0.960 . S
C390 N391 1.342 . S
C390 C394 1.395 1_554 S
C390 C395 1.499 1_554 S
N391 Co374 1.989 . S
N391 C390 1.342 . S
N391 N392 1.388 . S
N392 Co375 1.993 . S
N392 N391 1.388 . S
N392 C393 1.346 . S
C393 N392 1.346 . S
C393 C394 1.369 1_554 S
C393 C403 1.510 . S
C394 C390 1.395 1_556 S
C394 C393 1.369 1_556 S
C395 C390 1.499 1_556 S
C395 H396 0.959 . S
C395 H397 0.960 . S
C395 H398 0.961 . S
H396 C395 0.959 . S
H397 C395 0.960 . S
H398 C395 0.961 . S
O399 Co374 1.967 . S
O399 C407 1.258 . S
O400 Co375 1.941 . S
O400 C407 1.266 . S
H401 C403 0.959 . S
H402 C403 0.961 . S
C403 C393 1.510 . S
C403 H401 0.959 . S
C403 H402 0.961 . S
C403 H404 0.960 . S
H404 C403 0.960 . S
H405 N385 0.862 . S
O406 Co374 1.920 . S
O406 C379 1.289 . S
C407 O399 1.258 . S
C407 O400 1.266 . S
Co408 O411 1.970 . S
Co408 N425 1.989 . S
Co408 O433 1.967 . S
Co408 O440 1.920 . S
Co409 O412 1.966 . S
Co409 N418 2.022 . S
Co409 N426 1.993 . S
Co409 O434 1.941 . S
C410 O411 1.258 . S
C410 O412 1.263 . S
O411 Co408 1.970 . S
O411 C410 1.258 . S
O412 Co409 1.966 . S
O412 C410 1.263 . S
C413 O414 1.235 . S
C413 O440 1.289 . S
O414 C413 1.235 . S
C415 C417 1.400 . S
C415 N418 1.351 . S
C415 C420 1.501 . S
C416 C417 1.387 . S
C416 N419 1.341 . S
C417 C415 1.400 . S
C417 C416 1.387 . S
N418 Co409 2.022 . S
N418 C415 1.351 . S
N418 N419 1.365 . S
N419 C416 1.341 . S
N419 N418 1.365 . S
N419 H439 0.862 . S
C420 C415 1.501 . S
C420 H421 0.961 . S
C420 H422 0.961 . S
C420 H423 0.960 . S
H421 C420 0.961 . S
H422 C420 0.961 . S
H423 C420 0.960 . S
C424 N425 1.342 . S
C424 C428 1.401 . S
C424 C429 1.499 . S
N425 Co408 1.989 . S
N425 C424 1.342 . S
N425 N426 1.388 . S
N426 Co409 1.993 . S
N426 N425 1.388 . S
N426 C427 1.346 . S
C427 N426 1.346 . S
C427 C428 1.396 . S
C427 C437 1.510 . S
C428 C424 1.401 . S
C428 C427 1.396 . S
C429 C424 1.499 . S
C429 H430 0.959 . S
C429 H431 0.960 . S
C429 H432 0.961 . S
H430 C429 0.959 . S
H431 C429 0.960 . S
H432 C429 0.961 . S
O433 Co408 1.967 . S
O433 C441 1.258 . S
O434 Co409 1.941 . S
O434 C441 1.266 . S
H435 C437 0.959 . S
H436 C437 0.961 . S
C437 C427 1.510 . S
C437 H435 0.959 . S
C437 H436 0.961 . S
C437 H438 0.960 . S
H438 C437 0.960 . S
H439 N419 0.862 . S
O440 Co408 1.920 . S
O440 C413 1.289 . S
C441 O433 1.258 . S
C441 O434 1.266 . S
Co442 O445 1.970 . S
Co442 N459 1.989 . S
Co442 O467 1.967 . S
Co442 O474 1.920 . S
Co443 O446 1.966 . S
Co443 N452 2.022 . S
Co443 N460 1.993 . S
Co443 O468 1.941 . S
C444 O445 1.258 . S
C444 O446 1.263 . S
O445 Co442 1.970 . S
O445 C444 1.258 . S
O446 Co443 1.966 . S
O446 C444 1.263 . S
C447 O448 1.235 . S
C447 O474 1.289 . S
O448 C447 1.235 . S
C449 C451 1.400 . S
C449 N452 1.351 . S
C449 C454 1.501 . S
C450 C451 1.387 . S
C450 N453 1.341 . S
C451 C449 1.400 . S
C451 C450 1.387 . S
N452 Co443 2.022 . S
N452 C449 1.351 . S
N452 N453 1.365 . S
N453 C450 1.341 . S
N453 N452 1.365 . S
N453 H473 0.862 . S
C454 C449 1.501 . S
C454 H455 0.961 . S
C454 H456 0.961 . S
C454 H457 0.960 . S
H455 C454 0.961 . S
H456 C454 0.961 . S
H457 C454 0.960 . S
C458 N459 1.342 . S
C458 C462 1.395 1_556 S
C458 C463 1.499 1_556 S
N459 Co442 1.989 . S
N459 C458 1.342 . S
N459 N460 1.388 . S
N460 Co443 1.993 . S
N460 N459 1.388 . S
N460 C461 1.346 . S
C461 N460 1.346 . S
C461 C462 1.369 1_556 S
C461 C471 1.510 . S
C462 C458 1.395 1_554 S
C462 C461 1.369 1_554 S
C463 C458 1.499 1_554 S
C463 H464 0.959 . S
C463 H465 0.960 . S
C463 H466 0.961 . S
H464 C463 0.959 . S
H465 C463 0.960 . S
H466 C463 0.961 . S
O467 Co442 1.967 . S
O467 C475 1.258 . S
O468 Co443 1.941 . S
O468 C475 1.266 . S
H469 C471 0.959 . S
H470 C471 0.961 . S
C471 C461 1.510 . S
C471 H469 0.959 . S
C471 H470 0.961 . S
C471 H472 0.960 . S
H472 C471 0.960 . S
H473 N453 0.862 . S
O474 Co442 1.920 . S
O474 C447 1.289 . S
C475 O467 1.258 . S
C475 O468 1.266 . S
Co476 O479 1.970 . S
Co476 N493 1.989 . S
Co476 O501 1.967 . S
Co476 O508 1.920 . S
Co477 O480 1.966 . S
Co477 N486 2.022 . S
Co477 N494 1.993 . S
Co477 O502 1.941 . S
C478 O479 1.258 . S
C478 O480 1.263 . S
O479 Co476 1.970 . S
O479 C478 1.258 . S
O480 Co477 1.966 . S
O480 C478 1.263 . S
C481 O482 1.235 . S
C481 O508 1.289 . S
O482 C481 1.235 . S
C483 C485 1.400 . S
C483 N486 1.351 . S
C483 C488 1.501 . S
C484 C485 1.387 . S
C484 N487 1.341 . S
C485 C483 1.400 . S
C485 C484 1.387 . S
N486 Co477 2.022 . S
N486 C483 1.351 . S
N486 N487 1.365 . S
N487 C484 1.341 . S
N487 N486 1.365 . S
N487 H507 0.862 . S
C488 C483 1.501 . S
C488 H489 0.961 . S
C488 H490 0.961 . S
C488 H491 0.960 . S
H489 C488 0.961 . S
H490 C488 0.961 . S
H491 C488 0.960 . S
C492 N493 1.342 . S
C492 C496 1.401 . S
C492 C497 1.499 . S
N493 Co476 1.989 . S
N493 C492 1.342 . S
N493 N494 1.388 . S
N494 Co477 1.993 . S
N494 N493 1.388 . S
N494 C495 1.346 . S
C495 N494 1.346 . S
C495 C496 1.396 . S
C495 C505 1.510 . S
C496 C492 1.401 . S
C496 C495 1.396 . S
C497 C492 1.499 . S
C497 H498 0.959 . S
C497 H499 0.960 . S
C497 H500 0.961 . S
H498 C497 0.959 . S
H499 C497 0.960 . S
H500 C497 0.961 . S
O501 Co476 1.967 . S
O501 C509 1.258 . S
O502 Co477 1.941 . S
O502 C509 1.266 . S
H503 C505 0.959 . S
H504 C505 0.961 . S
C505 C495 1.510 . S
C505 H503 0.959 . S
C505 H504 0.961 . S
C505 H506 0.960 . S
H506 C505 0.960 . S
H507 N487 0.862 . S
O508 Co476 1.920 . S
O508 C481 1.289 . S
C509 O501 1.258 . S
C509 O502 1.266 . S
Co510 O513 1.970 . S
Co510 N527 1.989 . S
Co510 O535 1.967 . S
Co510 O542 1.920 . S
Co511 O514 1.966 . S
Co511 N520 2.022 . S
Co511 N528 1.993 . S
Co511 O536 1.941 . S
C512 O513 1.258 . S
C512 O514 1.263 . S
O513 Co510 1.970 . S
O513 C512 1.258 . S
O514 Co511 1.966 . S
O514 C512 1.263 . S
C515 O516 1.235 . S
C515 O542 1.289 . S
O516 C515 1.235 . S
C517 C519 1.400 . S
C517 N520 1.351 . S
C517 C522 1.501 . S
C518 C519 1.387 . S
C518 N521 1.341 . S
C519 C517 1.400 . S
C519 C518 1.387 . S
N520 Co511 2.022 . S
N520 C517 1.351 . S
N520 N521 1.365 . S
N521 C518 1.341 . S
N521 N520 1.365 . S
N521 H541 0.862 . S
C522 C517 1.501 . S
C522 H523 0.961 . S
C522 H524 0.961 . S
C522 H525 0.960 . S
H523 C522 0.961 . S
H524 C522 0.961 . S
H525 C522 0.960 . S
C526 N527 1.342 . S
C526 C530 1.395 1_556 S
C526 C531 1.499 1_556 S
N527 Co510 1.989 . S
N527 C526 1.342 . S
N527 N528 1.388 . S
N528 Co511 1.993 . S
N528 N527 1.388 . S
N528 C529 1.346 . S
C529 N528 1.346 . S
C529 C530 1.369 1_556 S
C529 C539 1.510 . S
C530 C526 1.395 1_554 S
C530 C529 1.369 1_554 S
C531 C526 1.499 1_554 S
C531 H532 0.959 . S
C531 H533 0.960 . S
C531 H534 0.961 . S
H532 C531 0.959 . S
H533 C531 0.960 . S
H534 C531 0.961 . S
O535 Co510 1.967 . S
O535 C543 1.258 . S
O536 Co511 1.941 . S
O536 C543 1.266 . S
H537 C539 0.959 . S
H538 C539 0.961 . S
C539 C529 1.510 . S
C539 H537 0.959 . S
C539 H538 0.961 . S
C539 H540 0.960 . S
H540 C539 0.960 . S
H541 N521 0.862 . S
O542 Co510 1.920 . S
O542 C515 1.289 . S
C543 O535 1.258 . S
C543 O536 1.266 . S
Co544 O547 1.970 . S
Co544 N561 1.989 . S
Co544 O569 1.967 . S
Co544 O576 1.920 . S
Co545 O548 1.966 . S
Co545 N554 2.022 . S
Co545 N562 1.993 . S
Co545 O570 1.941 . S
C546 O547 1.258 . S
C546 O548 1.263 . S
O547 Co544 1.970 . S
O547 C546 1.258 . S
O548 Co545 1.966 . S
O548 C546 1.263 . S
C549 O550 1.235 . S
C549 O576 1.289 . S
O550 C549 1.235 . S
C551 C553 1.400 . S
C551 N554 1.351 . S
C551 C556 1.501 . S
C552 C553 1.387 . S
C552 N555 1.341 . S
C553 C551 1.400 . S
C553 C552 1.387 . S
N554 Co545 2.022 . S
N554 C551 1.351 . S
N554 N555 1.365 . S
N555 C552 1.341 . S
N555 N554 1.365 . S
N555 H575 0.862 . S
C556 C551 1.501 . S
C556 H557 0.961 . S
C556 H558 0.961 . S
C556 H559 0.960 . S
H557 C556 0.961 . S
H558 C556 0.961 . S
H559 C556 0.960 . S
C560 N561 1.342 . S
C560 C564 1.401 . S
C560 C565 1.499 . S
N561 Co544 1.989 . S
N561 C560 1.342 . S
N561 N562 1.388 . S
N562 Co545 1.993 . S
N562 N561 1.388 . S
N562 C563 1.346 . S
C563 N562 1.346 . S
C563 C564 1.396 . S
C563 C573 1.510 . S
C564 C560 1.401 . S
C564 C563 1.396 . S
C565 C560 1.499 . S
C565 H566 0.959 . S
C565 H567 0.960 . S
C565 H568 0.961 . S
H566 C565 0.959 . S
H567 C565 0.960 . S
H568 C565 0.961 . S
O569 Co544 1.967 . S
O569 C577 1.258 . S
O570 Co545 1.941 . S
O570 C577 1.266 . S
H571 C573 0.959 . S
H572 C573 0.961 . S
C573 C563 1.510 . S
C573 H571 0.959 . S
C573 H572 0.961 . S
C573 H574 0.960 . S
H574 C573 0.960 . S
H575 N555 0.862 . S
O576 Co544 1.920 . S
O576 C549 1.289 . S
C577 O569 1.258 . S
C577 O570 1.266 . S
Co578 O581 1.970 . S
Co578 N595 1.989 . S
Co578 O603 1.967 . S
Co578 O610 1.920 . S
Co579 O582 1.966 . S
Co579 N588 2.022 . S
Co579 N596 1.993 . S
Co579 O604 1.941 . S
C580 O581 1.258 . S
C580 O582 1.263 . S
O581 Co578 1.970 . S
O581 C580 1.258 . S
O582 Co579 1.966 . S
O582 C580 1.263 . S
C583 O584 1.235 . S
C583 O610 1.289 . S
O584 C583 1.235 . S
C585 C587 1.400 . S
C585 N588 1.351 . S
C585 C590 1.501 . S
C586 C587 1.387 . S
C586 N589 1.341 . S
C587 C585 1.400 . S
C587 C586 1.387 . S
N588 Co579 2.022 . S
N588 C585 1.351 . S
N588 N589 1.365 . S
N589 C586 1.341 . S
N589 N588 1.365 . S
N589 H609 0.862 . S
C590 C585 1.501 . S
C590 H591 0.961 . S
C590 H592 0.961 . S
C590 H593 0.960 . S
H591 C590 0.961 . S
H592 C590 0.961 . S
H593 C590 0.960 . S
C594 N595 1.342 . S
C594 C598 1.401 . S
C594 C599 1.499 . S
N595 Co578 1.989 . S
N595 C594 1.342 . S
N595 N596 1.388 . S
N596 Co579 1.993 . S
N596 N595 1.388 . S
N596 C597 1.346 . S
C597 N596 1.346 . S
C597 C598 1.396 . S
C597 C607 1.510 . S
C598 C594 1.401 . S
C598 C597 1.396 . S
C599 C594 1.499 . S
C599 H600 0.959 . S
C599 H601 0.960 . S
C599 H602 0.961 . S
H600 C599 0.959 . S
H601 C599 0.960 . S
H602 C599 0.961 . S
O603 Co578 1.967 . S
O603 C611 1.258 . S
O604 Co579 1.941 . S
O604 C611 1.266 . S
H605 C607 0.959 . S
H606 C607 0.961 . S
C607 C597 1.510 . S
C607 H605 0.959 . S
C607 H606 0.961 . S
C607 H608 0.960 . S
H608 C607 0.960 . S
H609 N589 0.862 . S
O610 Co578 1.920 . S
O610 C583 1.289 . S
C611 O603 1.258 . S
C611 O604 1.266 . S
Co612 O615 1.970 . S
Co612 N629 1.989 . S
Co612 O637 1.967 . S
Co612 O644 1.920 . S
Co613 O616 1.966 . S
Co613 N622 2.022 . S
Co613 N630 1.993 . S
Co613 O638 1.941 . S
C614 O615 1.258 . S
C614 O616 1.263 . S
O615 Co612 1.970 . S
O615 C614 1.258 . S
O616 Co613 1.966 . S
O616 C614 1.263 . S
C617 O618 1.235 . S
C617 O644 1.289 . S
O618 C617 1.235 . S
C619 C621 1.400 . S
C619 N622 1.351 . S
C619 C624 1.501 . S
C620 C621 1.387 . S
C620 N623 1.341 . S
C621 C619 1.400 . S
C621 C620 1.387 . S
N622 Co613 2.022 . S
N622 C619 1.351 . S
N622 N623 1.365 . S
N623 C620 1.341 . S
N623 N622 1.365 . S
N623 H643 0.862 . S
C624 C619 1.501 . S
C624 H625 0.961 . S
C624 H626 0.961 . S
C624 H627 0.960 . S
H625 C624 0.961 . S
H626 C624 0.961 . S
H627 C624 0.960 . S
C628 N629 1.342 . S
C628 C632 1.401 . S
C628 C633 1.499 . S
N629 Co612 1.989 . S
N629 C628 1.342 . S
N629 N630 1.388 . S
N630 Co613 1.993 . S
N630 N629 1.388 . S
N630 C631 1.346 . S
C631 N630 1.346 . S
C631 C632 1.396 . S
C631 C641 1.510 . S
C632 C628 1.401 . S
C632 C631 1.396 . S
C633 C628 1.499 . S
C633 H634 0.959 . S
C633 H635 0.960 . S
C633 H636 0.961 . S
H634 C633 0.959 . S
H635 C633 0.960 . S
H636 C633 0.961 . S
O637 Co612 1.967 . S
O637 C645 1.258 . S
O638 Co613 1.941 . S
O638 C645 1.266 . S
H639 C641 0.959 . S
H640 C641 0.961 . S
C641 C631 1.510 . S
C641 H639 0.959 . S
C641 H640 0.961 . S
C641 H642 0.960 . S
H642 C641 0.960 . S
H643 N623 0.862 . S
O644 Co612 1.920 . S
O644 C617 1.289 . S
C645 O637 1.258 . S
C645 O638 1.266 . S
Co646 O649 1.970 . S
Co646 N663 1.989 . S
Co646 O671 1.967 . S
Co646 O678 1.920 . S
Co647 O650 1.966 . S
Co647 N656 2.022 . S
Co647 N664 1.993 . S
Co647 O672 1.941 . S
C648 O649 1.258 . S
C648 O650 1.263 . S
O649 Co646 1.970 . S
O649 C648 1.258 . S
O650 Co647 1.966 . S
O650 C648 1.263 . S
C651 O652 1.235 1_565 S
C651 O678 1.289 . S
O652 C651 1.235 1_545 S
C653 C655 1.400 . S
C653 N656 1.351 . S
C653 C658 1.501 . S
C654 C655 1.387 . S
C654 N657 1.341 . S
C655 C653 1.400 . S
C655 C654 1.387 . S
N656 Co647 2.022 . S
N656 C653 1.351 . S
N656 N657 1.365 . S
N657 C654 1.341 . S
N657 N656 1.365 . S
N657 H677 0.862 . S
C658 C653 1.501 . S
C658 H659 0.961 . S
C658 H660 0.961 . S
C658 H661 0.960 . S
H659 C658 0.961 . S
H660 C658 0.961 . S
H661 C658 0.960 . S
C662 N663 1.342 . S
C662 C666 1.401 . S
C662 C667 1.499 . S
N663 Co646 1.989 . S
N663 C662 1.342 . S
N663 N664 1.388 . S
N664 Co647 1.993 . S
N664 N663 1.388 . S
N664 C665 1.346 . S
C665 N664 1.346 . S
C665 C666 1.396 . S
C665 C675 1.510 . S
C666 C662 1.401 . S
C666 C665 1.396 . S
C667 C662 1.499 . S
C667 H668 0.959 . S
C667 H669 0.960 . S
C667 H670 0.961 . S
H668 C667 0.959 . S
H669 C667 0.960 . S
H670 C667 0.961 . S
O671 Co646 1.967 . S
O671 C679 1.258 . S
O672 Co647 1.941 . S
O672 C679 1.266 . S
H673 C675 0.959 . S
H674 C675 0.961 . S
C675 C665 1.510 . S
C675 H673 0.959 . S
C675 H674 0.961 . S
C675 H676 0.960 . S
H676 C675 0.960 . S
H677 N657 0.862 . S
O678 Co646 1.920 . S
O678 C651 1.289 . S
C679 O671 1.258 . S
C679 O672 1.266 . S
Co680 O683 1.970 . S
Co680 N697 1.989 . S
Co680 O705 1.967 . S
Co680 O712 1.920 . S
Co681 O684 1.966 . S
Co681 N690 2.022 . S
Co681 N698 1.993 . S
Co681 O706 1.941 . S
C682 O683 1.258 . S
C682 O684 1.263 . S
O683 Co680 1.970 . S
O683 C682 1.258 . S
O684 Co681 1.966 . S
O684 C682 1.263 . S
C685 O686 1.235 . S
C685 O712 1.289 . S
O686 C685 1.235 . S
C687 C689 1.400 . S
C687 N690 1.351 . S
C687 C692 1.501 . S
C688 C689 1.387 . S
C688 N691 1.341 . S
C689 C687 1.400 . S
C689 C688 1.387 . S
N690 Co681 2.022 . S
N690 C687 1.351 . S
N690 N691 1.365 . S
N691 C688 1.341 . S
N691 N690 1.365 . S
N691 H711 0.862 . S
C692 C687 1.501 . S
C692 H693 0.961 . S
C692 H694 0.961 . S
C692 H695 0.960 . S
H693 C692 0.961 . S
H694 C692 0.961 . S
H695 C692 0.960 . S
C696 N697 1.342 . S
C696 C700 1.401 . S
C696 C701 1.499 . S
N697 Co680 1.989 . S
N697 C696 1.342 . S
N697 N698 1.388 . S
N698 Co681 1.993 . S
N698 N697 1.388 . S
N698 C699 1.346 . S
C699 N698 1.346 . S
C699 C700 1.396 . S
C699 C709 1.510 . S
C700 C696 1.401 . S
C700 C699 1.396 . S
C701 C696 1.499 . S
C701 H702 0.959 . S
C701 H703 0.960 . S
C701 H704 0.961 . S
H702 C701 0.959 . S
H703 C701 0.960 . S
H704 C701 0.961 . S
O705 Co680 1.967 . S
O705 C713 1.258 . S
O706 Co681 1.941 . S
O706 C713 1.266 . S
H707 C709 0.959 . S
H708 C709 0.961 . S
C709 C699 1.510 . S
C709 H707 0.959 . S
C709 H708 0.961 . S
C709 H710 0.960 . S
H710 C709 0.960 . S
H711 N691 0.862 . S
O712 Co680 1.920 . S
O712 C685 1.289 . S
C713 O705 1.258 . S
C713 O706 1.266 . S
Co714 O717 1.970 . S
Co714 N731 1.989 . S
Co714 O739 1.967 . S
Co714 O746 1.920 . S
Co715 O718 1.966 . S
Co715 N724 2.022 . S
Co715 N732 1.993 . S
Co715 O740 1.941 . S
C716 O717 1.258 . S
C716 O718 1.263 . S
O717 Co714 1.970 . S
O717 C716 1.258 . S
O718 Co715 1.966 . S
O718 C716 1.263 . S
C719 O720 1.235 . S
C719 O746 1.289 . S
O720 C719 1.235 . S
C721 C723 1.400 . S
C721 N724 1.351 . S
C721 C726 1.501 . S
C722 C723 1.387 . S
C722 N725 1.341 . S
C723 C721 1.400 . S
C723 C722 1.387 . S
N724 Co715 2.022 . S
N724 C721 1.351 . S
N724 N725 1.365 . S
N725 C722 1.341 . S
N725 N724 1.365 . S
N725 H745 0.862 . S
C726 C721 1.501 . S
C726 H727 0.961 . S
C726 H728 0.961 . S
C726 H729 0.960 . S
H727 C726 0.961 . S
H728 C726 0.961 . S
H729 C726 0.960 . S
C730 N731 1.342 . S
C730 C734 1.401 . S
C730 C735 1.499 . S
N731 Co714 1.989 . S
N731 C730 1.342 . S
N731 N732 1.388 . S
N732 Co715 1.993 . S
N732 N731 1.388 . S
N732 C733 1.346 . S
C733 N732 1.346 . S
C733 C734 1.396 . S
C733 C743 1.510 . S
C734 C730 1.401 . S
C734 C733 1.396 . S
C735 C730 1.499 . S
C735 H736 0.959 . S
C735 H737 0.960 . S
C735 H738 0.961 . S
H736 C735 0.959 . S
H737 C735 0.960 . S
H738 C735 0.961 . S
O739 Co714 1.967 . S
O739 C747 1.258 . S
O740 Co715 1.941 . S
O740 C747 1.266 . S
H741 C743 0.959 . S
H742 C743 0.961 . S
C743 C733 1.510 . S
C743 H741 0.959 . S
C743 H742 0.961 . S
C743 H744 0.960 . S
H744 C743 0.960 . S
H745 N725 0.862 . S
O746 Co714 1.920 . S
O746 C719 1.289 . S
C747 O739 1.258 . S
C747 O740 1.266 . S
Co748 O751 1.970 . S
Co748 N765 1.989 . S
Co748 O773 1.967 . S
Co748 O780 1.920 . S
Co749 O752 1.966 . S
Co749 N758 2.022 . S
Co749 N766 1.993 . S
Co749 O774 1.941 . S
C750 O751 1.258 . S
C750 O752 1.263 . S
O751 Co748 1.970 . S
O751 C750 1.258 . S
O752 Co749 1.966 . S
O752 C750 1.263 . S
C753 O754 1.235 . S
C753 O780 1.289 . S
O754 C753 1.235 . S
C755 C757 1.400 . S
C755 N758 1.351 . S
C755 C760 1.501 . S
C756 C757 1.387 . S
C756 N759 1.341 . S
C757 C755 1.400 . S
C757 C756 1.387 . S
N758 Co749 2.022 . S
N758 C755 1.351 . S
N758 N759 1.365 . S
N759 C756 1.341 . S
N759 N758 1.365 . S
N759 H779 0.862 . S
C760 C755 1.501 . S
C760 H761 0.961 . S
C760 H762 0.961 . S
C760 H763 0.960 . S
H761 C760 0.961 . S
H762 C760 0.961 . S
H763 C760 0.960 . S
C764 N765 1.342 . S
C764 C768 1.401 . S
C764 C769 1.499 . S
N765 Co748 1.989 . S
N765 C764 1.342 . S
N765 N766 1.388 . S
N766 Co749 1.993 . S
N766 N765 1.388 . S
N766 C767 1.346 . S
C767 N766 1.346 . S
C767 C768 1.396 . S
C767 C777 1.510 . S
C768 C764 1.401 . S
C768 C767 1.396 . S
C769 C764 1.499 . S
C769 H770 0.959 . S
C769 H771 0.960 . S
C769 H772 0.961 . S
H770 C769 0.959 . S
H771 C769 0.960 . S
H772 C769 0.961 . S
O773 Co748 1.967 . S
O773 C781 1.258 . S
O774 Co749 1.941 . S
O774 C781 1.266 . S
H775 C777 0.959 . S
H776 C777 0.961 . S
C777 C767 1.510 . S
C777 H775 0.959 . S
C777 H776 0.961 . S
C777 H778 0.960 . S
H778 C777 0.960 . S
H779 N759 0.862 . S
O780 Co748 1.920 . S
O780 C753 1.289 . S
C781 O773 1.258 . S
C781 O774 1.266 . S
Co782 O785 1.970 . S
Co782 N799 1.989 . S
Co782 O807 1.967 . S
Co782 O814 1.920 . S
Co783 O786 1.966 . S
Co783 N792 2.022 . S
Co783 N800 1.993 . S
Co783 O808 1.941 . S
C784 O785 1.258 . S
C784 O786 1.263 . S
O785 Co782 1.970 . S
O785 C784 1.258 . S
O786 Co783 1.966 . S
O786 C784 1.263 . S
C787 O788 1.235 . S
C787 O814 1.289 . S
O788 C787 1.235 . S
C789 C791 1.400 . S
C789 N792 1.351 . S
C789 C794 1.501 . S
C790 C791 1.387 . S
C790 N793 1.341 . S
C791 C789 1.400 . S
C791 C790 1.387 . S
N792 Co783 2.022 . S
N792 C789 1.351 . S
N792 N793 1.365 . S
N793 C790 1.341 . S
N793 N792 1.365 . S
N793 H813 0.862 . S
C794 C789 1.501 . S
C794 H795 0.961 . S
C794 H796 0.961 . S
C794 H797 0.960 . S
H795 C794 0.961 . S
H796 C794 0.961 . S
H797 C794 0.960 . S
C798 N799 1.342 . S
C798 C802 1.395 1_545 S
C798 C803 1.499 1_545 S
N799 Co782 1.989 . S
N799 C798 1.342 . S
N799 N800 1.388 . S
N800 Co783 1.993 . S
N800 N799 1.388 . S
N800 C801 1.346 . S
C801 N800 1.346 . S
C801 C802 1.369 1_545 S
C801 C811 1.510 . S
C802 C798 1.395 1_565 S
C802 C801 1.369 1_565 S
C803 C798 1.499 1_565 S
C803 H804 0.959 . S
C803 H805 0.960 . S
C803 H806 0.961 . S
H804 C803 0.959 . S
H805 C803 0.960 . S
H806 C803 0.961 . S
O807 Co782 1.967 . S
O807 C815 1.258 . S
O808 Co783 1.941 . S
O808 C815 1.266 . S
H809 C811 0.959 . S
H810 C811 0.961 . S
C811 C801 1.510 . S
C811 H809 0.959 . S
C811 H810 0.961 . S
C811 H812 0.960 . S
H812 C811 0.960 . S
H813 N793 0.862 . S
O814 Co782 1.920 . S
O814 C787 1.289 . S
C815 O807 1.258 . S
C815 O808 1.266 . S
Co816 O819 1.970 . S
Co816 N833 1.989 . S
Co816 O841 1.967 . S
Co816 O848 1.920 . S
Co817 O820 1.966 . S
Co817 N826 2.022 . S
Co817 N834 1.993 . S
Co817 O842 1.941 . S
C818 O819 1.258 . S
C818 O820 1.263 . S
O819 Co816 1.970 . S
O819 C818 1.258 . S
O820 Co817 1.966 . S
O820 C818 1.263 . S
C821 O822 1.235 1_556 S
C821 O848 1.289 . S
O822 C821 1.235 1_554 S
C823 C825 1.400 . S
C823 N826 1.351 . S
C823 C828 1.501 . S
C824 C825 1.387 . S
C824 N827 1.341 . S
C825 C823 1.400 . S
C825 C824 1.387 . S
N826 Co817 2.022 . S
N826 C823 1.351 . S
N826 N827 1.365 . S
N827 C824 1.341 . S
N827 N826 1.365 . S
N827 H847 0.862 . S
C828 C823 1.501 . S
C828 H829 0.961 . S
C828 H830 0.961 . S
C828 H831 0.960 . S
H829 C828 0.961 . S
H830 C828 0.961 . S
H831 C828 0.960 . S
C832 N833 1.342 . S
C832 C836 1.401 . S
C832 C837 1.499 . S
N833 Co816 1.989 . S
N833 C832 1.342 . S
N833 N834 1.388 . S
N834 Co817 1.993 . S
N834 N833 1.388 . S
N834 C835 1.346 . S
C835 N834 1.346 . S
C835 C836 1.396 . S
C835 C845 1.510 . S
C836 C832 1.401 . S
C836 C835 1.396 . S
C837 C832 1.499 . S
C837 H838 0.959 . S
C837 H839 0.960 . S
C837 H840 0.961 . S
H838 C837 0.959 . S
H839 C837 0.960 . S
H840 C837 0.961 . S
O841 Co816 1.967 . S
O841 C849 1.258 . S
O842 Co817 1.941 . S
O842 C849 1.266 . S
H843 C845 0.959 . S
H844 C845 0.961 . S
C845 C835 1.510 . S
C845 H843 0.959 . S
C845 H844 0.961 . S
C845 H846 0.960 . S
H846 C845 0.960 . S
H847 N827 0.862 . S
O848 Co816 1.920 . S
O848 C821 1.289 . S
C849 O841 1.258 . S
C849 O842 1.266 . S
Co850 O853 1.970 . S
Co850 N867 1.989 . S
Co850 O875 1.967 . S
Co850 O882 1.920 . S
Co851 O854 1.966 . S
Co851 N860 2.022 . S
Co851 N868 1.993 . S
Co851 O876 1.941 . S
C852 O853 1.258 . S
C852 O854 1.263 . S
O853 Co850 1.970 . S
O853 C852 1.258 . S
O854 Co851 1.966 . S
O854 C852 1.263 . S
C855 O856 1.235 . S
C855 O882 1.289 . S
O856 C855 1.235 . S
C857 C859 1.400 . S
C857 N860 1.351 . S
C857 C862 1.501 . S
C858 C859 1.387 . S
C858 N861 1.341 . S
C859 C857 1.400 . S
C859 C858 1.387 . S
N860 Co851 2.022 . S
N860 C857 1.351 . S
N860 N861 1.365 . S
N861 C858 1.341 . S
N861 N860 1.365 . S
N861 H881 0.862 . S
C862 C857 1.501 . S
C862 H863 0.961 . S
C862 H864 0.961 . S
C862 H865 0.960 . S
H863 C862 0.961 . S
H864 C862 0.961 . S
H865 C862 0.960 . S
C866 N867 1.342 . S
C866 C870 1.395 1_655 S
C866 C871 1.499 1_655 S
N867 Co850 1.989 . S
N867 C866 1.342 . S
N867 N868 1.388 . S
N868 Co851 1.993 . S
N868 N867 1.388 . S
N868 C869 1.346 . S
C869 N868 1.346 . S
C869 C870 1.369 1_655 S
C869 C879 1.510 . S
C870 C866 1.395 1_455 S
C870 C869 1.369 1_455 S
C871 C866 1.499 1_455 S
C871 H872 0.959 . S
C871 H873 0.960 . S
C871 H874 0.961 . S
H872 C871 0.959 . S
H873 C871 0.960 . S
H874 C871 0.961 . S
O875 Co850 1.967 . S
O875 C883 1.258 . S
O876 Co851 1.941 . S
O876 C883 1.266 . S
H877 C879 0.959 . S
H878 C879 0.961 . S
C879 C869 1.510 . S
C879 H877 0.959 . S
C879 H878 0.961 . S
C879 H880 0.960 . S
H880 C879 0.960 . S
H881 N861 0.862 . S
O882 Co850 1.920 . S
O882 C855 1.289 . S
C883 O875 1.258 . S
C883 O876 1.266 . S
Co884 O887 1.970 . S
Co884 N901 1.989 . S
Co884 O909 1.967 . S
Co884 O916 1.920 . S
Co885 O888 1.966 . S
Co885 N894 2.022 . S
Co885 N902 1.993 . S
Co885 O910 1.941 . S
C886 O887 1.258 . S
C886 O888 1.263 . S
O887 Co884 1.970 . S
O887 C886 1.258 . S
O888 Co885 1.966 . S
O888 C886 1.263 . S
C889 O890 1.235 1_556 S
C889 O916 1.289 . S
O890 C889 1.235 1_554 S
C891 C893 1.400 . S
C891 N894 1.351 . S
C891 C896 1.501 . S
C892 C893 1.387 . S
C892 N895 1.341 . S
C893 C891 1.400 . S
C893 C892 1.387 . S
N894 Co885 2.022 . S
N894 C891 1.351 . S
N894 N895 1.365 . S
N895 C892 1.341 . S
N895 N894 1.365 . S
N895 H915 0.862 . S
C896 C891 1.501 . S
C896 H897 0.961 . S
C896 H898 0.961 . S
C896 H899 0.960 . S
H897 C896 0.961 . S
H898 C896 0.961 . S
H899 C896 0.960 . S
C900 N901 1.342 . S
C900 C904 1.401 . S
C900 C905 1.499 . S
N901 Co884 1.989 . S
N901 C900 1.342 . S
N901 N902 1.388 . S
N902 Co885 1.993 . S
N902 N901 1.388 . S
N902 C903 1.346 . S
C903 N902 1.346 . S
C903 C904 1.396 . S
C903 C913 1.510 . S
C904 C900 1.401 . S
C904 C903 1.396 . S
C905 C900 1.499 . S
C905 H906 0.959 . S
C905 H907 0.960 . S
C905 H908 0.961 . S
H906 C905 0.959 . S
H907 C905 0.960 . S
H908 C905 0.961 . S
O909 Co884 1.967 . S
O909 C917 1.258 . S
O910 Co885 1.941 . S
O910 C917 1.266 . S
H911 C913 0.959 . S
H912 C913 0.961 . S
C913 C903 1.510 . S
C913 H911 0.959 . S
C913 H912 0.961 . S
C913 H914 0.960 . S
H914 C913 0.960 . S
H915 N895 0.862 . S
O916 Co884 1.920 . S
O916 C889 1.289 . S
C917 O909 1.258 . S
C917 O910 1.266 . S
Co918 O921 1.970 . S
Co918 N935 1.989 . S
Co918 O943 1.967 . S
Co918 O950 1.920 . S
Co919 O922 1.966 . S
Co919 N928 2.022 . S
Co919 N936 1.993 . S
Co919 O944 1.941 . S
C920 O921 1.258 . S
C920 O922 1.263 . S
O921 Co918 1.970 . S
O921 C920 1.258 . S
O922 Co919 1.966 . S
O922 C920 1.263 . S
C923 O924 1.235 . S
C923 O950 1.289 . S
O924 C923 1.235 . S
C925 C927 1.400 . S
C925 N928 1.351 . S
C925 C930 1.501 . S
C926 C927 1.387 . S
C926 N929 1.341 . S
C927 C925 1.400 . S
C927 C926 1.387 . S
N928 Co919 2.022 . S
N928 C925 1.351 . S
N928 N929 1.365 . S
N929 C926 1.341 . S
N929 N928 1.365 . S
N929 H949 0.862 . S
C930 C925 1.501 . S
C930 H931 0.961 . S
C930 H932 0.961 . S
C930 H933 0.960 . S
H931 C930 0.961 . S
H932 C930 0.961 . S
H933 C930 0.960 . S
C934 N935 1.342 . S
C934 C938 1.395 1_455 S
C934 C939 1.499 1_455 S
N935 Co918 1.989 . S
N935 C934 1.342 . S
N935 N936 1.388 . S
N936 Co919 1.993 . S
N936 N935 1.388 . S
N936 C937 1.346 . S
C937 N936 1.346 . S
C937 C938 1.369 1_455 S
C937 C947 1.510 . S
C938 C934 1.395 1_655 S
C938 C937 1.369 1_655 S
C939 C934 1.499 1_655 S
C939 H940 0.959 . S
C939 H941 0.960 . S
C939 H942 0.961 . S
H940 C939 0.959 . S
H941 C939 0.960 . S
H942 C939 0.961 . S
O943 Co918 1.967 . S
O943 C951 1.258 . S
O944 Co919 1.941 . S
O944 C951 1.266 . S
H945 C947 0.959 . S
H946 C947 0.961 . S
C947 C937 1.510 . S
C947 H945 0.959 . S
C947 H946 0.961 . S
C947 H948 0.960 . S
H948 C947 0.960 . S
H949 N929 0.862 . S
O950 Co918 1.920 . S
O950 C923 1.289 . S
C951 O943 1.258 . S
C951 O944 1.266 . S
Co952 O955 1.970 . S
Co952 N969 1.989 . S
Co952 O977 1.967 . S
Co952 O984 1.920 . S
Co953 O956 1.966 . S
Co953 N962 2.022 . S
Co953 N970 1.993 . S
Co953 O978 1.941 . S
C954 O955 1.258 . S
C954 O956 1.263 . S
O955 Co952 1.970 . S
O955 C954 1.258 . S
O956 Co953 1.966 . S
O956 C954 1.263 . S
C957 O958 1.235 . S
C957 O984 1.289 . S
O958 C957 1.235 . S
C959 C961 1.400 . S
C959 N962 1.351 . S
C959 C964 1.501 . S
C960 C961 1.387 . S
C960 N963 1.341 . S
C961 C959 1.400 . S
C961 C960 1.387 . S
N962 Co953 2.022 . S
N962 C959 1.351 . S
N962 N963 1.365 . S
N963 C960 1.341 . S
N963 N962 1.365 . S
N963 H983 0.862 . S
C964 C959 1.501 . S
C964 H965 0.961 . S
C964 H966 0.961 . S
C964 H967 0.960 . S
H965 C964 0.961 . S
H966 C964 0.961 . S
H967 C964 0.960 . S
C968 N969 1.342 . S
C968 C972 1.401 . S
C968 C973 1.499 . S
N969 Co952 1.989 . S
N969 C968 1.342 . S
N969 N970 1.388 . S
N970 Co953 1.993 . S
N970 N969 1.388 . S
N970 C971 1.346 . S
C971 N970 1.346 . S
C971 C972 1.396 . S
C971 C981 1.510 . S
C972 C968 1.401 . S
C972 C971 1.396 . S
C973 C968 1.499 . S
C973 H974 0.959 . S
C973 H975 0.960 . S
C973 H976 0.961 . S
H974 C973 0.959 . S
H975 C973 0.960 . S
H976 C973 0.961 . S
O977 Co952 1.967 . S
O977 C985 1.258 . S
O978 Co953 1.941 . S
O978 C985 1.266 . S
H979 C981 0.959 . S
H980 C981 0.961 . S
C981 C971 1.510 . S
C981 H979 0.959 . S
C981 H980 0.961 . S
C981 H982 0.960 . S
H982 C981 0.960 . S
H983 N963 0.862 . S
O984 Co952 1.920 . S
O984 C957 1.289 . S
C985 O977 1.258 . S
C985 O978 1.266 . S
Co986 O989 1.970 . S
Co986 N1003 1.989 . S
Co986 O1011 1.967 . S
Co986 O1018 1.920 . S
Co987 O990 1.966 . S
Co987 N996 2.022 . S
Co987 N1004 1.993 . S
Co987 O1012 1.941 . S
C988 O989 1.258 . S
C988 O990 1.263 . S
O989 Co986 1.970 . S
O989 C988 1.258 . S
O990 Co987 1.966 . S
O990 C988 1.263 . S
C991 O992 1.235 . S
C991 O1018 1.289 . S
O992 C991 1.235 . S
C993 C995 1.400 . S
C993 N996 1.351 . S
C993 C998 1.501 . S
C994 C995 1.387 . S
C994 N997 1.341 . S
C995 C993 1.400 . S
C995 C994 1.387 . S
N996 Co987 2.022 . S
N996 C993 1.351 . S
N996 N997 1.365 . S
N997 C994 1.341 . S
N997 N996 1.365 . S
N997 H1017 0.862 . S
C998 C993 1.501 . S
C998 H999 0.961 . S
C998 H1000 0.961 . S
C998 H1001 0.960 . S
H999 C998 0.961 . S
H1000 C998 0.961 . S
H1001 C998 0.960 . S
C1002 N1003 1.342 . S
C1002 C1006 1.401 . S
C1002 C1007 1.499 . S
N1003 Co986 1.989 . S
N1003 C1002 1.342 . S
N1003 N1004 1.388 . S
N1004 Co987 1.993 . S
N1004 N1003 1.388 . S
N1004 C1005 1.346 . S
C1005 N1004 1.346 . S
C1005 C1006 1.396 . S
C1005 C1015 1.510 . S
C1006 C1002 1.401 . S
C1006 C1005 1.396 . S
C1007 C1002 1.499 . S
C1007 H1008 0.959 . S
C1007 H1009 0.960 . S
C1007 H1010 0.961 . S
H1008 C1007 0.959 . S
H1009 C1007 0.960 . S
H1010 C1007 0.961 . S
O1011 Co986 1.967 . S
O1011 C1019 1.258 . S
O1012 Co987 1.941 . S
O1012 C1019 1.266 . S
H1013 C1015 0.959 . S
H1014 C1015 0.961 . S
C1015 C1005 1.510 . S
C1015 H1013 0.959 . S
C1015 H1014 0.961 . S
C1015 H1016 0.960 . S
H1016 C1015 0.960 . S
H1017 N997 0.862 . S
O1018 Co986 1.920 . S
O1018 C991 1.289 . S
C1019 O1011 1.258 . S
C1019 O1012 1.266 . S
Co1020 O1023 1.970 . S
Co1020 N1037 1.989 . S
Co1020 O1045 1.967 . S
Co1020 O1052 1.920 . S
Co1021 O1024 1.966 . S
Co1021 N1030 2.022 . S
Co1021 N1038 1.993 . S
Co1021 O1046 1.941 . S
C1022 O1023 1.258 . S
C1022 O1024 1.263 . S
O1023 Co1020 1.970 . S
O1023 C1022 1.258 . S
O1024 Co1021 1.966 . S
O1024 C1022 1.263 . S
C1025 O1026 1.235 . S
C1025 O1052 1.289 . S
O1026 C1025 1.235 . S
C1027 C1029 1.400 . S
C1027 N1030 1.351 . S
C1027 C1032 1.501 . S
C1028 C1029 1.387 . S
C1028 N1031 1.341 . S
C1029 C1027 1.400 . S
C1029 C1028 1.387 . S
N1030 Co1021 2.022 . S
N1030 C1027 1.351 . S
N1030 N1031 1.365 . S
N1031 C1028 1.341 . S
N1031 N1030 1.365 . S
N1031 H1051 0.862 . S
C1032 C1027 1.501 . S
C1032 H1033 0.961 . S
C1032 H1034 0.961 . S
C1032 H1035 0.960 . S
H1033 C1032 0.961 . S
H1034 C1032 0.961 . S
H1035 C1032 0.960 . S
C1036 N1037 1.342 . S
C1036 C1040 1.401 . S
C1036 C1041 1.499 . S
N1037 Co1020 1.989 . S
N1037 C1036 1.342 . S
N1037 N1038 1.388 . S
N1038 Co1021 1.993 . S
N1038 N1037 1.388 . S
N1038 C1039 1.346 . S
C1039 N1038 1.346 . S
C1039 C1040 1.396 . S
C1039 C1049 1.510 . S
C1040 C1036 1.401 . S
C1040 C1039 1.396 . S
C1041 C1036 1.499 . S
C1041 H1042 0.959 . S
C1041 H1043 0.960 . S
C1041 H1044 0.961 . S
H1042 C1041 0.959 . S
H1043 C1041 0.960 . S
H1044 C1041 0.961 . S
O1045 Co1020 1.967 . S
O1045 C1053 1.258 . S
O1046 Co1021 1.941 . S
O1046 C1053 1.266 . S
H1047 C1049 0.959 . S
H1048 C1049 0.961 . S
C1049 C1039 1.510 . S
C1049 H1047 0.959 . S
C1049 H1048 0.961 . S
C1049 H1050 0.960 . S
H1050 C1049 0.960 . S
H1051 N1031 0.862 . S
O1052 Co1020 1.920 . S
O1052 C1025 1.289 . S
C1053 O1045 1.258 . S
C1053 O1046 1.266 . S
Co1054 O1057 1.970 . S
Co1054 N1071 1.989 . S
Co1054 O1079 1.967 . S
Co1054 O1086 1.920 . S
Co1055 O1058 1.966 . S
Co1055 N1064 2.022 . S
Co1055 N1072 1.993 . S
Co1055 O1080 1.941 . S
C1056 O1057 1.258 . S
C1056 O1058 1.263 . S
O1057 Co1054 1.970 . S
O1057 C1056 1.258 . S
O1058 Co1055 1.966 . S
O1058 C1056 1.263 . S
C1059 O1060 1.235 . S
C1059 O1086 1.289 . S
O1060 C1059 1.235 . S
C1061 C1063 1.400 . S
C1061 N1064 1.351 . S
C1061 C1066 1.501 . S
C1062 C1063 1.387 . S
C1062 N1065 1.341 . S
C1063 C1061 1.400 . S
C1063 C1062 1.387 . S
N1064 Co1055 2.022 . S
N1064 C1061 1.351 . S
N1064 N1065 1.365 . S
N1065 C1062 1.341 . S
N1065 N1064 1.365 . S
N1065 H1085 0.862 . S
C1066 C1061 1.501 . S
C1066 H1067 0.961 . S
C1066 H1068 0.961 . S
C1066 H1069 0.960 . S
H1067 C1066 0.961 . S
H1068 C1066 0.961 . S
H1069 C1066 0.960 . S
C1070 N1071 1.342 . S
C1070 C1074 1.401 . S
C1070 C1075 1.499 . S
N1071 Co1054 1.989 . S
N1071 C1070 1.342 . S
N1071 N1072 1.388 . S
N1072 Co1055 1.993 . S
N1072 N1071 1.388 . S
N1072 C1073 1.346 . S
C1073 N1072 1.346 . S
C1073 C1074 1.396 . S
C1073 C1083 1.510 . S
C1074 C1070 1.401 . S
C1074 C1073 1.396 . S
C1075 C1070 1.499 . S
C1075 H1076 0.959 . S
C1075 H1077 0.960 . S
C1075 H1078 0.961 . S
H1076 C1075 0.959 . S
H1077 C1075 0.960 . S
H1078 C1075 0.961 . S
O1079 Co1054 1.967 . S
O1079 C1087 1.258 . S
O1080 Co1055 1.941 . S
O1080 C1087 1.266 . S
H1081 C1083 0.959 . S
H1082 C1083 0.961 . S
C1083 C1073 1.510 . S
C1083 H1081 0.959 . S
C1083 H1082 0.961 . S
C1083 H1084 0.960 . S
H1084 C1083 0.960 . S
H1085 N1065 0.862 . S
O1086 Co1054 1.920 . S
O1086 C1059 1.289 . S
C1087 O1079 1.258 . S
C1087 O1080 1.266 . S
Co1088 O1091 1.970 . S
Co1088 N1105 1.989 . S
Co1088 O1113 1.967 . S
Co1088 O1120 1.920 . S
Co1089 O1092 1.966 . S
Co1089 N1098 2.022 . S
Co1089 N1106 1.993 . S
Co1089 O1114 1.941 . S
C1090 O1091 1.258 . S
C1090 O1092 1.263 . S
O1091 Co1088 1.970 . S
O1091 C1090 1.258 . S
O1092 Co1089 1.966 . S
O1092 C1090 1.263 . S
C1093 O1094 1.235 1_655 S
C1093 O1120 1.289 . S
O1094 C1093 1.235 1_455 S
C1095 C1097 1.400 . S
C1095 N1098 1.351 . S
C1095 C1100 1.501 . S
C1096 C1097 1.387 . S
C1096 N1099 1.341 . S
C1097 C1095 1.400 . S
C1097 C1096 1.387 . S
N1098 Co1089 2.022 . S
N1098 C1095 1.351 . S
N1098 N1099 1.365 . S
N1099 C1096 1.341 . S
N1099 N1098 1.365 . S
N1099 H1119 0.862 . S
C1100 C1095 1.501 . S
C1100 H1101 0.961 . S
C1100 H1102 0.961 . S
C1100 H1103 0.960 . S
H1101 C1100 0.961 . S
H1102 C1100 0.961 . S
H1103 C1100 0.960 . S
C1104 N1105 1.342 . S
C1104 C1108 1.401 . S
C1104 C1109 1.499 . S
N1105 Co1088 1.989 . S
N1105 C1104 1.342 . S
N1105 N1106 1.388 . S
N1106 Co1089 1.993 . S
N1106 N1105 1.388 . S
N1106 C1107 1.346 . S
C1107 N1106 1.346 . S
C1107 C1108 1.396 . S
C1107 C1117 1.510 . S
C1108 C1104 1.401 . S
C1108 C1107 1.396 . S
C1109 C1104 1.499 . S
C1109 H1110 0.959 . S
C1109 H1111 0.960 . S
C1109 H1112 0.961 . S
H1110 C1109 0.959 . S
H1111 C1109 0.960 . S
H1112 C1109 0.961 . S
O1113 Co1088 1.967 . S
O1113 C1121 1.258 . S
O1114 Co1089 1.941 . S
O1114 C1121 1.266 . S
H1115 C1117 0.959 . S
H1116 C1117 0.961 . S
C1117 C1107 1.510 . S
C1117 H1115 0.959 . S
C1117 H1116 0.961 . S
C1117 H1118 0.960 . S
H1118 C1117 0.960 . S
H1119 N1099 0.862 . S
O1120 Co1088 1.920 . S
O1120 C1093 1.289 . S
C1121 O1113 1.258 . S
C1121 O1114 1.266 . S
Co1122 O1125 1.970 . S
Co1122 N1139 1.989 . S
Co1122 O1147 1.967 . S
Co1122 O1154 1.920 . S
Co1123 O1126 1.966 . S
Co1123 N1132 2.022 . S
Co1123 N1140 1.993 . S
Co1123 O1148 1.941 . S
C1124 O1125 1.258 . S
C1124 O1126 1.263 . S
O1125 Co1122 1.970 . S
O1125 C1124 1.258 . S
O1126 Co1123 1.966 . S
O1126 C1124 1.263 . S
C1127 O1128 1.235 . S
C1127 O1154 1.289 . S
O1128 C1127 1.235 . S
C1129 C1131 1.400 . S
C1129 N1132 1.351 . S
C1129 C1134 1.501 . S
C1130 C1131 1.387 . S
C1130 N1133 1.341 . S
C1131 C1129 1.400 . S
C1131 C1130 1.387 . S
N1132 Co1123 2.022 . S
N1132 C1129 1.351 . S
N1132 N1133 1.365 . S
N1133 C1130 1.341 . S
N1133 N1132 1.365 . S
N1133 H1153 0.862 . S
C1134 C1129 1.501 . S
C1134 H1135 0.961 . S
C1134 H1136 0.961 . S
C1134 H1137 0.960 . S
H1135 C1134 0.961 . S
H1136 C1134 0.961 . S
H1137 C1134 0.960 . S
C1138 N1139 1.342 . S
C1138 C1142 1.401 . S
C1138 C1143 1.499 . S
N1139 Co1122 1.989 . S
N1139 C1138 1.342 . S
N1139 N1140 1.388 . S
N1140 Co1123 1.993 . S
N1140 N1139 1.388 . S
N1140 C1141 1.346 . S
C1141 N1140 1.346 . S
C1141 C1142 1.396 . S
C1141 C1151 1.510 . S
C1142 C1138 1.401 . S
C1142 C1141 1.396 . S
C1143 C1138 1.499 . S
C1143 H1144 0.959 . S
C1143 H1145 0.960 . S
C1143 H1146 0.961 . S
H1144 C1143 0.959 . S
H1145 C1143 0.960 . S
H1146 C1143 0.961 . S
O1147 Co1122 1.967 . S
O1147 C1155 1.258 . S
O1148 Co1123 1.941 . S
O1148 C1155 1.266 . S
H1149 C1151 0.959 . S
H1150 C1151 0.961 . S
C1151 C1141 1.510 . S
C1151 H1149 0.959 . S
C1151 H1150 0.961 . S
C1151 H1152 0.960 . S
H1152 C1151 0.960 . S
H1153 N1133 0.862 . S
O1154 Co1122 1.920 . S
O1154 C1127 1.289 . S
C1155 O1147 1.258 . S
C1155 O1148 1.266 . S
Co1156 O1159 1.970 . S
Co1156 N1173 1.989 . S
Co1156 O1181 1.967 . S
Co1156 O1188 1.920 . S
Co1157 O1160 1.966 . S
Co1157 N1166 2.022 . S
Co1157 N1174 1.993 . S
Co1157 O1182 1.941 . S
C1158 O1159 1.258 . S
C1158 O1160 1.263 . S
O1159 Co1156 1.970 . S
O1159 C1158 1.258 . S
O1160 Co1157 1.966 . S
O1160 C1158 1.263 . S
C1161 O1162 1.235 1_455 S
C1161 O1188 1.289 . S
O1162 C1161 1.235 1_655 S
C1163 C1165 1.400 . S
C1163 N1166 1.351 . S
C1163 C1168 1.501 . S
C1164 C1165 1.387 . S
C1164 N1167 1.341 . S
C1165 C1163 1.400 . S
C1165 C1164 1.387 . S
N1166 Co1157 2.022 . S
N1166 C1163 1.351 . S
N1166 N1167 1.365 . S
N1167 C1164 1.341 . S
N1167 N1166 1.365 . S
N1167 H1187 0.862 . S
C1168 C1163 1.501 . S
C1168 H1169 0.961 . S
C1168 H1170 0.961 . S
C1168 H1171 0.960 . S
H1169 C1168 0.961 . S
H1170 C1168 0.961 . S
H1171 C1168 0.960 . S
C1172 N1173 1.342 . S
C1172 C1176 1.401 . S
C1172 C1177 1.499 . S
N1173 Co1156 1.989 . S
N1173 C1172 1.342 . S
N1173 N1174 1.388 . S
N1174 Co1157 1.993 . S
N1174 N1173 1.388 . S
N1174 C1175 1.346 . S
C1175 N1174 1.346 . S
C1175 C1176 1.396 . S
C1175 C1185 1.510 . S
C1176 C1172 1.401 . S
C1176 C1175 1.396 . S
C1177 C1172 1.499 . S
C1177 H1178 0.959 . S
C1177 H1179 0.960 . S
C1177 H1180 0.961 . S
H1178 C1177 0.959 . S
H1179 C1177 0.960 . S
H1180 C1177 0.961 . S
O1181 Co1156 1.967 . S
O1181 C1189 1.258 . S
O1182 Co1157 1.941 . S
O1182 C1189 1.266 . S
H1183 C1185 0.959 . S
H1184 C1185 0.961 . S
C1185 C1175 1.510 . S
C1185 H1183 0.959 . S
C1185 H1184 0.961 . S
C1185 H1186 0.960 . S
H1186 C1185 0.960 . S
H1187 N1167 0.862 . S
O1188 Co1156 1.920 . S
O1188 C1161 1.289 . S
C1189 O1181 1.258 . S
C1189 O1182 1.266 . S
Co1190 O1193 1.970 . S
Co1190 N1207 1.989 . S
Co1190 O1215 1.967 . S
Co1190 O1222 1.920 . S
Co1191 O1194 1.966 . S
Co1191 N1200 2.022 . S
Co1191 N1208 1.993 . S
Co1191 O1216 1.941 . S
C1192 O1193 1.258 . S
C1192 O1194 1.263 . S
O1193 Co1190 1.970 . S
O1193 C1192 1.258 . S
O1194 Co1191 1.966 . S
O1194 C1192 1.263 . S
C1195 O1196 1.235 . S
C1195 O1222 1.289 . S
O1196 C1195 1.235 . S
C1197 C1199 1.400 . S
C1197 N1200 1.351 . S
C1197 C1202 1.501 . S
C1198 C1199 1.387 . S
C1198 N1201 1.341 . S
C1199 C1197 1.400 . S
C1199 C1198 1.387 . S
N1200 Co1191 2.022 . S
N1200 C1197 1.351 . S
N1200 N1201 1.365 . S
N1201 C1198 1.341 . S
N1201 N1200 1.365 . S
N1201 H1221 0.862 . S
C1202 C1197 1.501 . S
C1202 H1203 0.961 . S
C1202 H1204 0.961 . S
C1202 H1205 0.960 . S
H1203 C1202 0.961 . S
H1204 C1202 0.961 . S
H1205 C1202 0.960 . S
C1206 N1207 1.342 . S
C1206 C1210 1.401 . S
C1206 C1211 1.499 . S
N1207 Co1190 1.989 . S
N1207 C1206 1.342 . S
N1207 N1208 1.388 . S
N1208 Co1191 1.993 . S
N1208 N1207 1.388 . S
N1208 C1209 1.346 . S
C1209 N1208 1.346 . S
C1209 C1210 1.396 . S
C1209 C1219 1.510 . S
C1210 C1206 1.401 . S
C1210 C1209 1.396 . S
C1211 C1206 1.499 . S
C1211 H1212 0.959 . S
C1211 H1213 0.960 . S
C1211 H1214 0.961 . S
H1212 C1211 0.959 . S
H1213 C1211 0.960 . S
H1214 C1211 0.961 . S
O1215 Co1190 1.967 . S
O1215 C1223 1.258 . S
O1216 Co1191 1.941 . S
O1216 C1223 1.266 . S
H1217 C1219 0.959 . S
H1218 C1219 0.961 . S
C1219 C1209 1.510 . S
C1219 H1217 0.959 . S
C1219 H1218 0.961 . S
C1219 H1220 0.960 . S
H1220 C1219 0.960 . S
H1221 N1201 0.862 . S
O1222 Co1190 1.920 . S
O1222 C1195 1.289 . S
C1223 O1215 1.258 . S
C1223 O1216 1.266 . S
Co1224 O1227 1.970 . S
Co1224 N1241 1.989 . S
Co1224 O1249 1.967 . S
Co1224 O1256 1.920 . S
Co1225 O1228 1.966 . S
Co1225 N1234 2.022 . S
Co1225 N1242 1.993 . S
Co1225 O1250 1.941 . S
C1226 O1227 1.258 . S
C1226 O1228 1.263 . S
O1227 Co1224 1.970 . S
O1227 C1226 1.258 . S
O1228 Co1225 1.966 . S
O1228 C1226 1.263 . S
C1229 O1230 1.235 1_655 S
C1229 O1256 1.289 . S
O1230 C1229 1.235 1_455 S
C1231 C1233 1.400 . S
C1231 N1234 1.351 . S
C1231 C1236 1.501 . S
C1232 C1233 1.387 . S
C1232 N1235 1.341 . S
C1233 C1231 1.400 . S
C1233 C1232 1.387 . S
N1234 Co1225 2.022 . S
N1234 C1231 1.351 . S
N1234 N1235 1.365 . S
N1235 C1232 1.341 . S
N1235 N1234 1.365 . S
N1235 H1255 0.862 . S
C1236 C1231 1.501 . S
C1236 H1237 0.961 . S
C1236 H1238 0.961 . S
C1236 H1239 0.960 . S
H1237 C1236 0.961 . S
H1238 C1236 0.961 . S
H1239 C1236 0.960 . S
C1240 N1241 1.342 . S
C1240 C1244 1.401 . S
C1240 C1245 1.499 . S
N1241 Co1224 1.989 . S
N1241 C1240 1.342 . S
N1241 N1242 1.388 . S
N1242 Co1225 1.993 . S
N1242 N1241 1.388 . S
N1242 C1243 1.346 . S
C1243 N1242 1.346 . S
C1243 C1244 1.396 . S
C1243 C1253 1.510 . S
C1244 C1240 1.401 . S
C1244 C1243 1.396 . S
C1245 C1240 1.499 . S
C1245 H1246 0.959 . S
C1245 H1247 0.960 . S
C1245 H1248 0.961 . S
H1246 C1245 0.959 . S
H1247 C1245 0.960 . S
H1248 C1245 0.961 . S
O1249 Co1224 1.967 . S
O1249 C1257 1.258 . S
O1250 Co1225 1.941 . S
O1250 C1257 1.266 . S
H1251 C1253 0.959 . S
H1252 C1253 0.961 . S
C1253 C1243 1.510 . S
C1253 H1251 0.959 . S
C1253 H1252 0.961 . S
C1253 H1254 0.960 . S
H1254 C1253 0.960 . S
H1255 N1235 0.862 . S
O1256 Co1224 1.920 . S
O1256 C1229 1.289 . S
C1257 O1249 1.258 . S
C1257 O1250 1.266 . S
Co1258 O1261 1.970 . S
Co1258 N1275 1.989 . S
Co1258 O1283 1.967 . S
Co1258 O1290 1.920 . S
Co1259 O1262 1.966 . S
Co1259 N1268 2.022 . S
Co1259 N1276 1.993 . S
Co1259 O1284 1.941 . S
C1260 O1261 1.258 . S
C1260 O1262 1.263 . S
O1261 Co1258 1.970 . S
O1261 C1260 1.258 . S
O1262 Co1259 1.966 . S
O1262 C1260 1.263 . S
C1263 O1264 1.235 . S
C1263 O1290 1.289 . S
O1264 C1263 1.235 . S
C1265 C1267 1.400 . S
C1265 N1268 1.351 . S
C1265 C1270 1.501 . S
C1266 C1267 1.387 . S
C1266 N1269 1.341 . S
C1267 C1265 1.400 . S
C1267 C1266 1.387 . S
N1268 Co1259 2.022 . S
N1268 C1265 1.351 . S
N1268 N1269 1.365 . S
N1269 C1266 1.341 . S
N1269 N1268 1.365 . S
N1269 H1289 0.862 . S
C1270 C1265 1.501 . S
C1270 H1271 0.961 . S
C1270 H1272 0.961 . S
C1270 H1273 0.960 . S
H1271 C1270 0.961 . S
H1272 C1270 0.961 . S
H1273 C1270 0.960 . S
C1274 N1275 1.342 . S
C1274 C1278 1.401 . S
C1274 C1279 1.499 . S
N1275 Co1258 1.989 . S
N1275 C1274 1.342 . S
N1275 N1276 1.388 . S
N1276 Co1259 1.993 . S
N1276 N1275 1.388 . S
N1276 C1277 1.346 . S
C1277 N1276 1.346 . S
C1277 C1278 1.396 . S
C1277 C1287 1.510 . S
C1278 C1274 1.401 . S
C1278 C1277 1.396 . S
C1279 C1274 1.499 . S
C1279 H1280 0.959 . S
C1279 H1281 0.960 . S
C1279 H1282 0.961 . S
H1280 C1279 0.959 . S
H1281 C1279 0.960 . S
H1282 C1279 0.961 . S
O1283 Co1258 1.967 . S
O1283 C1291 1.258 . S
O1284 Co1259 1.941 . S
O1284 C1291 1.266 . S
H1285 C1287 0.959 . S
H1286 C1287 0.961 . S
C1287 C1277 1.510 . S
C1287 H1285 0.959 . S
C1287 H1286 0.961 . S
C1287 H1288 0.960 . S
H1288 C1287 0.960 . S
H1289 N1269 0.862 . S
O1290 Co1258 1.920 . S
O1290 C1263 1.289 . S
C1291 O1283 1.258 . S
C1291 O1284 1.266 . S
Co1292 O1295 1.970 . S
Co1292 N1309 1.989 . S
Co1292 O1317 1.967 . S
Co1292 O1324 1.920 . S
Co1293 O1296 1.966 . S
Co1293 N1302 2.022 . S
Co1293 N1310 1.993 . S
Co1293 O1318 1.941 . S
C1294 O1295 1.258 . S
C1294 O1296 1.263 . S
O1295 Co1292 1.970 . S
O1295 C1294 1.258 . S
O1296 Co1293 1.966 . S
O1296 C1294 1.263 . S
C1297 O1298 1.235 1_455 S
C1297 O1324 1.289 . S
O1298 C1297 1.235 1_655 S
C1299 C1301 1.400 . S
C1299 N1302 1.351 . S
C1299 C1304 1.501 . S
C1300 C1301 1.387 . S
C1300 N1303 1.341 . S
C1301 C1299 1.400 . S
C1301 C1300 1.387 . S
N1302 Co1293 2.022 . S
N1302 C1299 1.351 . S
N1302 N1303 1.365 . S
N1303 C1300 1.341 . S
N1303 N1302 1.365 . S
N1303 H1323 0.862 . S
C1304 C1299 1.501 . S
C1304 H1305 0.961 . S
C1304 H1306 0.961 . S
C1304 H1307 0.960 . S
H1305 C1304 0.961 . S
H1306 C1304 0.961 . S
H1307 C1304 0.960 . S
C1308 N1309 1.342 . S
C1308 C1312 1.401 . S
C1308 C1313 1.499 . S
N1309 Co1292 1.989 . S
N1309 C1308 1.342 . S
N1309 N1310 1.388 . S
N1310 Co1293 1.993 . S
N1310 N1309 1.388 . S
N1310 C1311 1.346 . S
C1311 N1310 1.346 . S
C1311 C1312 1.396 . S
C1311 C1321 1.510 . S
C1312 C1308 1.401 . S
C1312 C1311 1.396 . S
C1313 C1308 1.499 . S
C1313 H1314 0.959 . S
C1313 H1315 0.960 . S
C1313 H1316 0.961 . S
H1314 C1313 0.959 . S
H1315 C1313 0.960 . S
H1316 C1313 0.961 . S
O1317 Co1292 1.967 . S
O1317 C1325 1.258 . S
O1318 Co1293 1.941 . S
O1318 C1325 1.266 . S
H1319 C1321 0.959 . S
H1320 C1321 0.961 . S
C1321 C1311 1.510 . S
C1321 H1319 0.959 . S
C1321 H1320 0.961 . S
C1321 H1322 0.960 . S
H1322 C1321 0.960 . S
H1323 N1303 0.862 . S
O1324 Co1292 1.920 . S
O1324 C1297 1.289 . S
C1325 O1317 1.258 . S
C1325 O1318 1.266 . S
Co1326 O1329 1.970 . S
Co1326 N1343 1.989 . S
Co1326 O1351 1.967 . S
Co1326 O1358 1.920 . S
Co1327 O1330 1.966 . S
Co1327 N1336 2.022 . S
Co1327 N1344 1.993 . S
Co1327 O1352 1.941 . S
C1328 O1329 1.258 . S
C1328 O1330 1.263 . S
O1329 Co1326 1.970 . S
O1329 C1328 1.258 . S
O1330 Co1327 1.966 . S
O1330 C1328 1.263 . S
C1331 O1332 1.235 . S
C1331 O1358 1.289 . S
O1332 C1331 1.235 . S
C1333 C1335 1.400 . S
C1333 N1336 1.351 . S
C1333 C1338 1.501 . S
C1334 C1335 1.387 . S
C1334 N1337 1.341 . S
C1335 C1333 1.400 . S
C1335 C1334 1.387 . S
N1336 Co1327 2.022 . S
N1336 C1333 1.351 . S
N1336 N1337 1.365 . S
N1337 C1334 1.341 . S
N1337 N1336 1.365 . S
N1337 H1357 0.862 . S
C1338 C1333 1.501 . S
C1338 H1339 0.961 . S
C1338 H1340 0.961 . S
C1338 H1341 0.960 . S
H1339 C1338 0.961 . S
H1340 C1338 0.961 . S
H1341 C1338 0.960 . S
C1342 N1343 1.342 . S
C1342 C1346 1.401 . S
C1342 C1347 1.499 . S
N1343 Co1326 1.989 . S
N1343 C1342 1.342 . S
N1343 N1344 1.388 . S
N1344 Co1327 1.993 . S
N1344 N1343 1.388 . S
N1344 C1345 1.346 . S
C1345 N1344 1.346 . S
C1345 C1346 1.396 . S
C1345 C1355 1.510 . S
C1346 C1342 1.401 . S
C1346 C1345 1.396 . S
C1347 C1342 1.499 . S
C1347 H1348 0.959 . S
C1347 H1349 0.960 . S
C1347 H1350 0.961 . S
H1348 C1347 0.959 . S
H1349 C1347 0.960 . S
H1350 C1347 0.961 . S
O1351 Co1326 1.967 . S
O1351 C1359 1.258 . S
O1352 Co1327 1.941 . S
O1352 C1359 1.266 . S
H1353 C1355 0.959 . S
H1354 C1355 0.961 . S
C1355 C1345 1.510 . S
C1355 H1353 0.959 . S
C1355 H1354 0.961 . S
C1355 H1356 0.960 . S
H1356 C1355 0.960 . S
H1357 N1337 0.862 . S
O1358 Co1326 1.920 . S
O1358 C1331 1.289 . S
C1359 O1351 1.258 . S
C1359 O1352 1.266 . S
Co1360 O1363 1.970 . S
Co1360 N1377 1.989 . S
Co1360 O1385 1.967 . S
Co1360 O1392 1.920 . S
Co1361 O1364 1.966 . S
Co1361 N1370 2.022 . S
Co1361 N1378 1.993 . S
Co1361 O1386 1.941 . S
C1362 O1363 1.258 . S
C1362 O1364 1.263 . S
O1363 Co1360 1.970 . S
O1363 C1362 1.258 . S
O1364 Co1361 1.966 . S
O1364 C1362 1.263 . S
C1365 O1366 1.235 1_565 S
C1365 O1392 1.289 . S
O1366 C1365 1.235 1_545 S
C1367 C1369 1.400 . S
C1367 N1370 1.351 . S
C1367 C1372 1.501 . S
C1368 C1369 1.387 . S
C1368 N1371 1.341 . S
C1369 C1367 1.400 . S
C1369 C1368 1.387 . S
N1370 Co1361 2.022 . S
N1370 C1367 1.351 . S
N1370 N1371 1.365 . S
N1371 C1368 1.341 . S
N1371 N1370 1.365 . S
N1371 H1391 0.862 . S
C1372 C1367 1.501 . S
C1372 H1373 0.961 . S
C1372 H1374 0.961 . S
C1372 H1375 0.960 . S
H1373 C1372 0.961 . S
H1374 C1372 0.961 . S
H1375 C1372 0.960 . S
C1376 N1377 1.342 . S
C1376 C1380 1.401 . S
C1376 C1381 1.499 . S
N1377 Co1360 1.989 . S
N1377 C1376 1.342 . S
N1377 N1378 1.388 . S
N1378 Co1361 1.993 . S
N1378 N1377 1.388 . S
N1378 C1379 1.346 . S
C1379 N1378 1.346 . S
C1379 C1380 1.396 . S
C1379 C1389 1.510 . S
C1380 C1376 1.401 . S
C1380 C1379 1.396 . S
C1381 C1376 1.499 . S
C1381 H1382 0.959 . S
C1381 H1383 0.960 . S
C1381 H1384 0.961 . S
H1382 C1381 0.959 . S
H1383 C1381 0.960 . S
H1384 C1381 0.961 . S
O1385 Co1360 1.967 . S
O1385 C1393 1.258 . S
O1386 Co1361 1.941 . S
O1386 C1393 1.266 . S
H1387 C1389 0.959 . S
H1388 C1389 0.961 . S
C1389 C1379 1.510 . S
C1389 H1387 0.959 . S
C1389 H1388 0.961 . S
C1389 H1390 0.960 . S
H1390 C1389 0.960 . S
H1391 N1371 0.862 . S
O1392 Co1360 1.920 . S
O1392 C1365 1.289 . S
C1393 O1385 1.258 . S
C1393 O1386 1.266 . S
Co1394 O1397 1.970 . S
Co1394 N1411 1.989 . S
Co1394 O1419 1.967 . S
Co1394 O1426 1.920 . S
Co1395 O1398 1.966 . S
Co1395 N1404 2.022 . S
Co1395 N1412 1.993 . S
Co1395 O1420 1.941 . S
C1396 O1397 1.258 . S
C1396 O1398 1.263 . S
O1397 Co1394 1.970 . S
O1397 C1396 1.258 . S
O1398 Co1395 1.966 . S
O1398 C1396 1.263 . S
C1399 O1400 1.235 1_545 S
C1399 O1426 1.289 . S
O1400 C1399 1.235 1_565 S
C1401 C1403 1.400 . S
C1401 N1404 1.351 . S
C1401 C1406 1.501 . S
C1402 C1403 1.387 . S
C1402 N1405 1.341 . S
C1403 C1401 1.400 . S
C1403 C1402 1.387 . S
N1404 Co1395 2.022 . S
N1404 C1401 1.351 . S
N1404 N1405 1.365 . S
N1405 C1402 1.341 . S
N1405 N1404 1.365 . S
N1405 H1425 0.862 . S
C1406 C1401 1.501 . S
C1406 H1407 0.961 . S
C1406 H1408 0.961 . S
C1406 H1409 0.960 . S
H1407 C1406 0.961 . S
H1408 C1406 0.961 . S
H1409 C1406 0.960 . S
C1410 N1411 1.342 . S
C1410 C1414 1.401 . S
C1410 C1415 1.499 . S
N1411 Co1394 1.989 . S
N1411 C1410 1.342 . S
N1411 N1412 1.388 . S
N1412 Co1395 1.993 . S
N1412 N1411 1.388 . S
N1412 C1413 1.346 . S
C1413 N1412 1.346 . S
C1413 C1414 1.396 . S
C1413 C1423 1.510 . S
C1414 C1410 1.401 . S
C1414 C1413 1.396 . S
C1415 C1410 1.499 . S
C1415 H1416 0.959 . S
C1415 H1417 0.960 . S
C1415 H1418 0.961 . S
H1416 C1415 0.959 . S
H1417 C1415 0.960 . S
H1418 C1415 0.961 . S
O1419 Co1394 1.967 . S
O1419 C1427 1.258 . S
O1420 Co1395 1.941 . S
O1420 C1427 1.266 . S
H1421 C1423 0.959 . S
H1422 C1423 0.961 . S
C1423 C1413 1.510 . S
C1423 H1421 0.959 . S
C1423 H1422 0.961 . S
C1423 H1424 0.960 . S
H1424 C1423 0.960 . S
H1425 N1405 0.862 . S
O1426 Co1394 1.920 . S
O1426 C1399 1.289 . S
C1427 O1419 1.258 . S
C1427 O1420 1.266 . S
Co1428 O1431 1.970 . S
Co1428 N1445 1.989 . S
Co1428 O1453 1.967 . S
Co1428 O1460 1.920 . S
Co1429 O1432 1.966 . S
Co1429 N1438 2.022 . S
Co1429 N1446 1.993 . S
Co1429 O1454 1.941 . S
C1430 O1431 1.258 . S
C1430 O1432 1.263 . S
O1431 Co1428 1.970 . S
O1431 C1430 1.258 . S
O1432 Co1429 1.966 . S
O1432 C1430 1.263 . S
C1433 O1434 1.235 . S
C1433 O1460 1.289 . S
O1434 C1433 1.235 . S
C1435 C1437 1.400 . S
C1435 N1438 1.351 . S
C1435 C1440 1.501 . S
C1436 C1437 1.387 . S
C1436 N1439 1.341 . S
C1437 C1435 1.400 . S
C1437 C1436 1.387 . S
N1438 Co1429 2.022 . S
N1438 C1435 1.351 . S
N1438 N1439 1.365 . S
N1439 C1436 1.341 . S
N1439 N1438 1.365 . S
N1439 H1459 0.862 . S
C1440 C1435 1.501 . S
C1440 H1441 0.961 . S
C1440 H1442 0.961 . S
C1440 H1443 0.960 . S
H1441 C1440 0.961 . S
H1442 C1440 0.961 . S
H1443 C1440 0.960 . S
C1444 N1445 1.342 . S
C1444 C1448 1.395 1_545 S
C1444 C1449 1.499 1_545 S
N1445 Co1428 1.989 . S
N1445 C1444 1.342 . S
N1445 N1446 1.388 . S
N1446 Co1429 1.993 . S
N1446 N1445 1.388 . S
N1446 C1447 1.346 . S
C1447 N1446 1.346 . S
C1447 C1448 1.369 1_545 S
C1447 C1457 1.510 . S
C1448 C1444 1.395 1_565 S
C1448 C1447 1.369 1_565 S
C1449 C1444 1.499 1_565 S
C1449 H1450 0.959 . S
C1449 H1451 0.960 . S
C1449 H1452 0.961 . S
H1450 C1449 0.959 . S
H1451 C1449 0.960 . S
H1452 C1449 0.961 . S
O1453 Co1428 1.967 . S
O1453 C1461 1.258 . S
O1454 Co1429 1.941 . S
O1454 C1461 1.266 . S
H1455 C1457 0.959 . S
H1456 C1457 0.961 . S
C1457 C1447 1.510 . S
C1457 H1455 0.959 . S
C1457 H1456 0.961 . S
C1457 H1458 0.960 . S
H1458 C1457 0.960 . S
H1459 N1439 0.862 . S
O1460 Co1428 1.920 . S
O1460 C1433 1.289 . S
C1461 O1453 1.258 . S
C1461 O1454 1.266 . S
Co1462 O1465 1.970 . S
Co1462 N1479 1.989 . S
Co1462 O1487 1.967 . S
Co1462 O1494 1.920 . S
Co1463 O1466 1.966 . S
Co1463 N1472 2.022 . S
Co1463 N1480 1.993 . S
Co1463 O1488 1.941 . S
C1464 O1465 1.258 . S
C1464 O1466 1.263 . S
O1465 Co1462 1.970 . S
O1465 C1464 1.258 . S
O1466 Co1463 1.966 . S
O1466 C1464 1.263 . S
C1467 O1468 1.235 . S
C1467 O1494 1.289 . S
O1468 C1467 1.235 . S
C1469 C1471 1.400 . S
C1469 N1472 1.351 . S
C1469 C1474 1.501 . S
C1470 C1471 1.387 . S
C1470 N1473 1.341 . S
C1471 C1469 1.400 . S
C1471 C1470 1.387 . S
N1472 Co1463 2.022 . S
N1472 C1469 1.351 . S
N1472 N1473 1.365 . S
N1473 C1470 1.341 . S
N1473 N1472 1.365 . S
N1473 H1493 0.862 . S
C1474 C1469 1.501 . S
C1474 H1475 0.961 . S
C1474 H1476 0.961 . S
C1474 H1477 0.960 . S
H1475 C1474 0.961 . S
H1476 C1474 0.961 . S
H1477 C1474 0.960 . S
C1478 N1479 1.342 . S
C1478 C1482 1.401 . S
C1478 C1483 1.499 . S
N1479 Co1462 1.989 . S
N1479 C1478 1.342 . S
N1479 N1480 1.388 . S
N1480 Co1463 1.993 . S
N1480 N1479 1.388 . S
N1480 C1481 1.346 . S
C1481 N1480 1.346 . S
C1481 C1482 1.396 . S
C1481 C1491 1.510 . S
C1482 C1478 1.401 . S
C1482 C1481 1.396 . S
C1483 C1478 1.499 . S
C1483 H1484 0.959 . S
C1483 H1485 0.960 . S
C1483 H1486 0.961 . S
H1484 C1483 0.959 . S
H1485 C1483 0.960 . S
H1486 C1483 0.961 . S
O1487 Co1462 1.967 . S
O1487 C1495 1.258 . S
O1488 Co1463 1.941 . S
O1488 C1495 1.266 . S
H1489 C1491 0.959 . S
H1490 C1491 0.961 . S
C1491 C1481 1.510 . S
C1491 H1489 0.959 . S
C1491 H1490 0.961 . S
C1491 H1492 0.960 . S
H1492 C1491 0.960 . S
H1493 N1473 0.862 . S
O1494 Co1462 1.920 . S
O1494 C1467 1.289 . S
C1495 O1487 1.258 . S
C1495 O1488 1.266 . S
Co1496 O1499 1.970 . S
Co1496 N1513 1.989 . S
Co1496 O1521 1.967 . S
Co1496 O1528 1.920 . S
Co1497 O1500 1.966 . S
Co1497 N1506 2.022 . S
Co1497 N1514 1.993 . S
Co1497 O1522 1.941 . S
C1498 O1499 1.258 . S
C1498 O1500 1.263 . S
O1499 Co1496 1.970 . S
O1499 C1498 1.258 . S
O1500 Co1497 1.966 . S
O1500 C1498 1.263 . S
C1501 O1502 1.235 . S
C1501 O1528 1.289 . S
O1502 C1501 1.235 . S
C1503 C1505 1.400 . S
C1503 N1506 1.351 . S
C1503 C1508 1.501 . S
C1504 C1505 1.387 . S
C1504 N1507 1.341 . S
C1505 C1503 1.400 . S
C1505 C1504 1.387 . S
N1506 Co1497 2.022 . S
N1506 C1503 1.351 . S
N1506 N1507 1.365 . S
N1507 C1504 1.341 . S
N1507 N1506 1.365 . S
N1507 H1527 0.862 . S
C1508 C1503 1.501 . S
C1508 H1509 0.961 . S
C1508 H1510 0.961 . S
C1508 H1511 0.960 . S
H1509 C1508 0.961 . S
H1510 C1508 0.961 . S
H1511 C1508 0.960 . S
C1512 N1513 1.342 . S
C1512 C1516 1.395 1_565 S
C1512 C1517 1.499 1_565 S
N1513 Co1496 1.989 . S
N1513 C1512 1.342 . S
N1513 N1514 1.388 . S
N1514 Co1497 1.993 . S
N1514 N1513 1.388 . S
N1514 C1515 1.346 . S
C1515 N1514 1.346 . S
C1515 C1516 1.369 1_565 S
C1515 C1525 1.510 . S
C1516 C1512 1.395 1_545 S
C1516 C1515 1.369 1_545 S
C1517 C1512 1.499 1_545 S
C1517 H1518 0.959 . S
C1517 H1519 0.960 . S
C1517 H1520 0.961 . S
H1518 C1517 0.959 . S
H1519 C1517 0.960 . S
H1520 C1517 0.961 . S
O1521 Co1496 1.967 . S
O1521 C1529 1.258 . S
O1522 Co1497 1.941 . S
O1522 C1529 1.266 . S
H1523 C1525 0.959 . S
H1524 C1525 0.961 . S
C1525 C1515 1.510 . S
C1525 H1523 0.959 . S
C1525 H1524 0.961 . S
C1525 H1526 0.960 . S
H1526 C1525 0.960 . S
H1527 N1507 0.862 . S
O1528 Co1496 1.920 . S
O1528 C1501 1.289 . S
C1529 O1521 1.258 . S
C1529 O1522 1.266 . S
Co1530 O1533 1.970 . S
Co1530 N1547 1.989 . S
Co1530 O1555 1.967 . S
Co1530 O1562 1.920 . S
Co1531 O1534 1.966 . S
Co1531 N1540 2.022 . S
Co1531 N1548 1.993 . S
Co1531 O1556 1.941 . S
C1532 O1533 1.258 . S
C1532 O1534 1.263 . S
O1533 Co1530 1.970 . S
O1533 C1532 1.258 . S
O1534 Co1531 1.966 . S
O1534 C1532 1.263 . S
C1535 O1536 1.235 1_545 S
C1535 O1562 1.289 . S
O1536 C1535 1.235 1_565 S
C1537 C1539 1.400 . S
C1537 N1540 1.351 . S
C1537 C1542 1.501 . S
C1538 C1539 1.387 . S
C1538 N1541 1.341 . S
C1539 C1537 1.400 . S
C1539 C1538 1.387 . S
N1540 Co1531 2.022 . S
N1540 C1537 1.351 . S
N1540 N1541 1.365 . S
N1541 C1538 1.341 . S
N1541 N1540 1.365 . S
N1541 H1561 0.862 . S
C1542 C1537 1.501 . S
C1542 H1543 0.961 . S
C1542 H1544 0.961 . S
C1542 H1545 0.960 . S
H1543 C1542 0.961 . S
H1544 C1542 0.961 . S
H1545 C1542 0.960 . S
C1546 N1547 1.342 . S
C1546 C1550 1.401 . S
C1546 C1551 1.499 . S
N1547 Co1530 1.989 . S
N1547 C1546 1.342 . S
N1547 N1548 1.388 . S
N1548 Co1531 1.993 . S
N1548 N1547 1.388 . S
N1548 C1549 1.346 . S
C1549 N1548 1.346 . S
C1549 C1550 1.396 . S
C1549 C1559 1.510 . S
C1550 C1546 1.401 . S
C1550 C1549 1.396 . S
C1551 C1546 1.499 . S
C1551 H1552 0.959 . S
C1551 H1553 0.960 . S
C1551 H1554 0.961 . S
H1552 C1551 0.959 . S
H1553 C1551 0.960 . S
H1554 C1551 0.961 . S
O1555 Co1530 1.967 . S
O1555 C1563 1.258 . S
O1556 Co1531 1.941 . S
O1556 C1563 1.266 . S
H1557 C1559 0.959 . S
H1558 C1559 0.961 . S
C1559 C1549 1.510 . S
C1559 H1557 0.959 . S
C1559 H1558 0.961 . S
C1559 H1560 0.960 . S
H1560 C1559 0.960 . S
H1561 N1541 0.862 . S
O1562 Co1530 1.920 . S
O1562 C1535 1.289 . S
C1563 O1555 1.258 . S
C1563 O1556 1.266 . S
Co1564 O1567 1.970 . S
Co1564 N1581 1.989 . S
Co1564 O1589 1.967 . S
Co1564 O1596 1.920 . S
Co1565 O1568 1.966 . S
Co1565 N1574 2.022 . S
Co1565 N1582 1.993 . S
Co1565 O1590 1.941 . S
C1566 O1567 1.258 . S
C1566 O1568 1.263 . S
O1567 Co1564 1.970 . S
O1567 C1566 1.258 . S
O1568 Co1565 1.966 . S
O1568 C1566 1.263 . S
C1569 O1570 1.235 . S
C1569 O1596 1.289 . S
O1570 C1569 1.235 . S
C1571 C1573 1.400 . S
C1571 N1574 1.351 . S
C1571 C1576 1.501 . S
C1572 C1573 1.387 . S
C1572 N1575 1.341 . S
C1573 C1571 1.400 . S
C1573 C1572 1.387 . S
N1574 Co1565 2.022 . S
N1574 C1571 1.351 . S
N1574 N1575 1.365 . S
N1575 C1572 1.341 . S
N1575 N1574 1.365 . S
N1575 H1595 0.862 . S
C1576 C1571 1.501 . S
C1576 H1577 0.961 . S
C1576 H1578 0.961 . S
C1576 H1579 0.960 . S
H1577 C1576 0.961 . S
H1578 C1576 0.961 . S
H1579 C1576 0.960 . S
C1580 N1581 1.342 . S
C1580 C1584 1.395 1_565 S
C1580 C1585 1.499 1_565 S
N1581 Co1564 1.989 . S
N1581 C1580 1.342 . S
N1581 N1582 1.388 . S
N1582 Co1565 1.993 . S
N1582 N1581 1.388 . S
N1582 C1583 1.346 . S
C1583 N1582 1.346 . S
C1583 C1584 1.369 1_565 S
C1583 C1593 1.510 . S
C1584 C1580 1.395 1_545 S
C1584 C1583 1.369 1_545 S
C1585 C1580 1.499 1_545 S
C1585 H1586 0.959 . S
C1585 H1587 0.960 . S
C1585 H1588 0.961 . S
H1586 C1585 0.959 . S
H1587 C1585 0.960 . S
H1588 C1585 0.961 . S
O1589 Co1564 1.967 . S
O1589 C1597 1.258 . S
O1590 Co1565 1.941 . S
O1590 C1597 1.266 . S
H1591 C1593 0.959 . S
H1592 C1593 0.961 . S
C1593 C1583 1.510 . S
C1593 H1591 0.959 . S
C1593 H1592 0.961 . S
C1593 H1594 0.960 . S
H1594 C1593 0.960 . S
H1595 N1575 0.862 . S
O1596 Co1564 1.920 . S
O1596 C1569 1.289 . S
C1597 O1589 1.258 . S
C1597 O1590 1.266 . S
Co1598 O1601 1.970 . S
Co1598 N1615 1.989 . S
Co1598 O1623 1.967 . S
Co1598 O1630 1.920 . S
Co1599 O1602 1.966 . S
Co1599 N1608 2.022 . S
Co1599 N1616 1.993 . S
Co1599 O1624 1.941 . S
C1600 O1601 1.258 . S
C1600 O1602 1.263 . S
O1601 Co1598 1.970 . S
O1601 C1600 1.258 . S
O1602 Co1599 1.966 . S
O1602 C1600 1.263 . S
C1603 O1604 1.235 . S
C1603 O1630 1.289 . S
O1604 C1603 1.235 . S
C1605 C1607 1.400 . S
C1605 N1608 1.351 . S
C1605 C1610 1.501 . S
C1606 C1607 1.387 . S
C1606 N1609 1.341 . S
C1607 C1605 1.400 . S
C1607 C1606 1.387 . S
N1608 Co1599 2.022 . S
N1608 C1605 1.351 . S
N1608 N1609 1.365 . S
N1609 C1606 1.341 . S
N1609 N1608 1.365 . S
N1609 H1629 0.862 . S
C1610 C1605 1.501 . S
C1610 H1611 0.961 . S
C1610 H1612 0.961 . S
C1610 H1613 0.960 . S
H1611 C1610 0.961 . S
H1612 C1610 0.961 . S
H1613 C1610 0.960 . S
C1614 N1615 1.342 . S
C1614 C1618 1.401 . S
C1614 C1619 1.499 . S
N1615 Co1598 1.989 . S
N1615 C1614 1.342 . S
N1615 N1616 1.388 . S
N1616 Co1599 1.993 . S
N1616 N1615 1.388 . S
N1616 C1617 1.346 . S
C1617 N1616 1.346 . S
C1617 C1618 1.396 . S
C1617 C1627 1.510 . S
C1618 C1614 1.401 . S
C1618 C1617 1.396 . S
C1619 C1614 1.499 . S
C1619 H1620 0.959 . S
C1619 H1621 0.960 . S
C1619 H1622 0.961 . S
H1620 C1619 0.959 . S
H1621 C1619 0.960 . S
H1622 C1619 0.961 . S
O1623 Co1598 1.967 . S
O1623 C1631 1.258 . S
O1624 Co1599 1.941 . S
O1624 C1631 1.266 . S
H1625 C1627 0.959 . S
H1626 C1627 0.961 . S
C1627 C1617 1.510 . S
C1627 H1625 0.959 . S
C1627 H1626 0.961 . S
C1627 H1628 0.960 . S
H1628 C1627 0.960 . S
H1629 N1609 0.862 . S
O1630 Co1598 1.920 . S
O1630 C1603 1.289 . S
C1631 O1623 1.258 . S
C1631 O1624 1.266 . S
C927 C20 1.410 . S
C54 C825 1.410 . S
C88 C859 1.410 . S
C893 C122 1.410 . S
C156 C179 1.410 . S
C213 C190 1.440 . S
C247 C224 1.410 . S
C258 C145 1.440 . S
C292 C1437 1.410 . S
C326 C1471 1.440 . S
C360 C689 1.410 . S
C1403 C394 1.440 . S
C1573 C428 1.410 . S
C553 C462 1.440 . S
C496 C1607 1.410 . S
C530 C1539 1.440 . S
C315 C564 1.410 . S
C1335 C598 1.410 . S
C1233 C632 1.410 . S
C1267 C666 1.410 . S
C700 C485 1.410 . S
C734 C1199 1.410 . S
C1097 C768 1.410 . S
C802 C1165 1.440 . S
C836 C111 1.410 . S
C870 C9 1.440 . S
C43 C904 1.410 . S
C77 C938 1.440 . S
C995 C972 1.410 . S
C1029 C1006 1.410 . S
C1040 C1063 1.410 . S
C1074 C961 1.410 . S
C1108 C621 1.410 . S
C655 C1142 1.410 . S
C1505 C1176 1.410 . S
C1210 C587 1.410 . S
C757 C1244 1.410 . S
C1278 C1369 1.410 . S
C1312 C791 1.410 . S
C723 C1346 1.410 . S
C1131 C1380 1.410 . S
C519 C1414 1.410 . S
C1448 C417 1.440 . S
C451 C1482 1.410 . S
C1516 C1301 1.440 . S
C1550 C383 1.410 . S
C281 C1584 1.440 . S
C349 C1618 1.410 . S
C1430 C33 2.132 . S
C1464 C67 2.132 . S
C682 C101 2.132 . S
C1396 C135 2.132 1_545 S
C169 C1566 2.132 . S
C546 C203 2.132 . S
C1600 C237 2.132 . S
C271 C1532 2.132 1_565 S
C305 C308 2.132 . S
C342 C339 2.132 . S
C376 C373 2.132 . S
C274 C407 2.132 . S
C1328 C441 2.132 . S
C1226 C475 2.132 1_655 S
C1260 C509 2.132 . S
C543 C1294 2.132 1_655 S
C920 C577 2.132 . S
C611 C172 2.132 . S
C206 C645 2.132 1_554 S
C240 C679 2.132 . S
C713 C954 2.132 . S
C36 C747 2.132 . S
C781 C70 2.132 . S
C815 C2 2.132 . S
C614 C849 2.132 . S
C648 C883 2.132 1_565 S
C917 C1498 2.132 . S
C951 C580 2.132 . S
C750 C985 2.132 . S
C1362 C1019 2.132 1_565 S
C784 C1053 2.132 . S
C1087 C716 2.132 . S
C1121 C1124 2.132 . S
C1158 C1155 2.132 1_455 S
C1189 C1192 2.132 . S
C1223 C1090 2.132 1_455 S
C1257 C512 2.132 . S
C410 C1291 2.132 . S
C444 C1325 2.132 . S
C478 C1359 2.132 . S
C104 C1393 2.132 . S
C988 C1427 2.132 . S
C1461 C1022 2.132 . S
C1495 C1056 2.132 . S
C1529 C138 2.132 1_556 S
C1563 C852 2.132 . S
C1597 C886 2.132 1_554 S
C818 C1631 2.132 1_556 S
C5 C1025 0.625 . S
C39 C1059 0.625 . S
C957 C73 0.625 . S
C991 C107 0.625 1_545 S
C141 C889 0.625 1_554 S
C923 C175 0.625 . S
C821 C209 0.625 1_556 S
C855 C243 0.625 1_545 S
C277 C345 0.625 . S
C311 C379 0.625 . S
C481 C413 0.625 . S
C447 C515 0.625 1_455 S
C549 C583 0.625 . S
C1603 C617 0.625 1_554 S
C1535 C651 0.625 1_545 S
C685 C753 0.625 . S
C719 C1467 0.625 . S
C787 C1433 0.625 . S
C1161 C1093 0.625 1_455 S
C1195 C1127 0.625 1_455 S
C1297 C1229 0.625 1_455 S
C1331 C1263 0.625 . S
C1365 C1399 0.625 1_565 S
C1569 C1501 0.625 1_554 S
