# Generated by pormake.
# Topology vby, (6)-cn, num edge types: 1
# Building blocks:
#     Node 0, Type 0, BuildingBlock: CUWYAW_clean_sbu_0, # of connection points: 6
#     Node 1, Type 0, BuildingBlock: CUWYAW_clean_sbu_0, # of connection points: 6
#     Node 2, Type 0, BuildingBlock: CUWYAW_clean_sbu_0, # of connection points: 6
#     Node 3, Type 0, BuildingBlock: CUWYAW_clean_sbu_0, # of connection points: 6
#     Node 4, Type 0, BuildingBlock: CUWYAW_clean_sbu_0, # of connection points: 6
#     Node 5, Type 0, BuildingBlock: CUWYAW_clean_sbu_0, # of connection points: 6
#     Node 6, Type 0, BuildingBlock: CUWYAW_clean_sbu_0, # of connection points: 6
#     Node 7, Type 0, BuildingBlock: CUWYAW_clean_sbu_0, # of connection points: 6
#     Edge 8, Type (0, 0), BuildingBlock: KIFKEQ_clean_linker_1, # of connection points: 2
#     Edge 9, Type (0, 0), BuildingBlock: KIFKEQ_clean_linker_1, # of connection points: 2
#     Edge 10, Type (0, 0), BuildingBlock: KIFKEQ_clean_linker_1, # of connection points: 2
#     Edge 11, Type (0, 0), BuildingBlock: KIFKEQ_clean_linker_1, # of connection points: 2
#     Edge 12, Type (0, 0), BuildingBlock: KIFKEQ_clean_linker_1, # of connection points: 2
#     Edge 13, Type (0, 0), BuildingBlock: KIFKEQ_clean_linker_1, # of connection points: 2
#     Edge 14, Type (0, 0), BuildingBlock: KIFKEQ_clean_linker_1, # of connection points: 2
#     Edge 15, Type (0, 0), BuildingBlock: KIFKEQ_clean_linker_1, # of connection points: 2
#     Edge 16, Type (0, 0), BuildingBlock: KIFKEQ_clean_linker_1, # of connection points: 2
#     Edge 17, Type (0, 0), BuildingBlock: KIFKEQ_clean_linker_1, # of connection points: 2
#     Edge 18, Type (0, 0), BuildingBlock: KIFKEQ_clean_linker_1, # of connection points: 2
#     Edge 19, Type (0, 0), BuildingBlock: KIFKEQ_clean_linker_1, # of connection points: 2
#     Edge 20, Type (0, 0), BuildingBlock: KIFKEQ_clean_linker_1, # of connection points: 2
#     Edge 21, Type (0, 0), BuildingBlock: KIFKEQ_clean_linker_1, # of connection points: 2
#     Edge 22, Type (0, 0), BuildingBlock: KIFKEQ_clean_linker_1, # of connection points: 2
#     Edge 23, Type (0, 0), BuildingBlock: KIFKEQ_clean_linker_1, # of connection points: 2
#     Edge 24, Type (0, 0), BuildingBlock: KIFKEQ_clean_linker_1, # of connection points: 2
#     Edge 25, Type (0, 0), BuildingBlock: KIFKEQ_clean_linker_1, # of connection points: 2
#     Edge 26, Type (0, 0), BuildingBlock: KIFKEQ_clean_linker_1, # of connection points: 2
#     Edge 27, Type (0, 0), BuildingBlock: KIFKEQ_clean_linker_1, # of connection points: 2
#     Edge 28, Type (0, 0), BuildingBlock: KIFKEQ_clean_linker_1, # of connection points: 2
#     Edge 29, Type (0, 0), BuildingBlock: KIFKEQ_clean_linker_1, # of connection points: 2
#     Edge 30, Type (0, 0), BuildingBlock: KIFKEQ_clean_linker_1, # of connection points: 2
#     Edge 31, Type (0, 0), BuildingBlock: KIFKEQ_clean_linker_1, # of connection points: 2
# Relax obj value: 0.618
# Max RMSD: 0.247
# Mean RMSD: 0.202
data_MOF--net-vby--node1-CUWYAW_clean_sbu_0--edge1-KIFKEQ_clean_linker_1
_symmetry_space_group_name_H-M    P1
_symmetry_Int_Tables_number       1
_symmetry_cell_setting            triclinic
loop_
_symmetry_equiv_pos_as_xyz
'x, y, z'
_cell_length_a     18.785256
_cell_length_b     74.785715
_cell_length_c     31.046762
_cell_angle_alpha  86.245981
_cell_angle_beta   89.211157
_cell_angle_gamma 79.257932
loop_
_atom_site_label
_atom_site_type_symbol
_atom_site_fract_x
_atom_site_fract_y
_atom_site_fract_z
_atom_type_partial_charge
C0 C 0.99108 0.44756 -0.0109 0.0
Eu1 Eu 0.12783 0.44874 0.97933 0.0
C2 C 0.95829 0.43671 0.02237 0.0
C3 C 0.98606 0.43416 0.06469 0.0
C4 C 0.95745 0.42318 0.09587 0.0
C5 C 0.90034 0.41455 0.08541 0.0
C6 C 0.87316 0.41702 0.04285 0.0
C7 C 0.90212 0.42793 0.01161 0.0
C8 C 0.19286 0.44245 0.05974 0.0
C9 C 0.14558 0.49559 0.97039 0.0
C10 C 0.38856 0.44917 -0.016 0.0
Eu11 Eu 0.25111 0.45281 0.96889 0.0
C12 C 0.42605 0.44 0.02307 0.0
C13 C 0.48277 0.42512 0.01923 0.0
C14 C 0.51431 0.41527 0.05607 0.0
C15 C 0.48996 0.4202 0.09748 0.0
C16 C 0.43243 0.43492 0.10138 0.0
C17 C 0.40026 0.44463 0.0645 0.0
C18 C 0.19545 0.45612 0.88606 0.0
C19 C 0.23284 0.40617 0.9745 0.0
O20 O 1.02077 0.46044 0.00312 0.0
O21 O 1.03178 0.43832 0.96085 0.0
O22 O 0.16052 0.43122 0.04161 0.0
O23 O 0.19521 0.45581 0.03298 0.0
O24 O 0.10014 0.48323 0.96991 0.0
O25 O 0.21463 0.48626 0.97103 0.0
O26 O 0.34292 0.46425 -0.01067 0.0
O27 O 0.36234 0.43857 0.95937 0.0
O28 O 0.23473 0.46677 0.90114 0.0
O29 O 0.18447 0.44453 0.91578 0.0
O30 O 0.27835 0.41842 0.97563 0.0
O31 O 0.16383 0.4155 0.97378 0.0
H32 H 1.02976 0.44072 0.07387 0.0
H33 H 0.97964 0.42157 0.1282 0.0
H34 H 0.82787 0.41097 0.03388 0.0
H35 H 0.88035 0.42961 0.97915 0.0
H36 H 0.50257 0.42108 -0.0123 0.0
H37 H 0.55986 0.40425 0.05215 0.0
H38 H 0.4132 0.43908 0.13292 0.0
H39 H 0.35518 0.45576 0.06855 0.0
C40 C 0.13386 0.70774 0.95523 0.0
Eu41 Eu 1.00165 0.70364 0.96972 0.0
C42 C 0.15976 0.72512 0.95597 0.0
C43 C 0.13356 0.73747 -0.01263 0.0
C44 C 0.15168 0.75475 -0.01431 0.0
C45 C 0.19628 0.76007 0.95253 0.0
C46 C 0.22134 0.74782 0.92065 0.0
C47 C 0.20307 0.73051 0.92233 0.0
C48 C 0.955 0.70635 0.05396 0.0
C49 C 0.98275 0.6568 0.97189 0.0
C50 C 0.73886 0.70491 -0.01499 0.0
Eu51 Eu 0.87731 0.69956 0.97103 0.0
C52 C 0.68855 0.7223 0.97612 0.0
C53 C 0.6973 0.73335 0.93868 0.0
C54 C 0.65615 0.75087 0.93261 0.0
C55 C 0.60539 0.75773 0.96383 0.0
C56 C 0.59735 0.74671 0.00153 0.0
C57 C 0.63874 0.72917 0.00764 0.0
C58 C 0.91985 0.69977 0.88574 0.0
C59 C 0.89586 0.74631 0.96869 0.0
O60 O 0.1129 0.70109 -0.00785 0.0
O61 O 0.08847 0.70711 0.92422 0.0
O62 O 0.98151 0.71862 0.03122 0.0
O63 O 0.94784 0.69358 0.03007 0.0
O64 O 1.0277 0.66928 0.96564 0.0
O65 O 0.91444 0.66601 0.97818 0.0
O66 O 0.78577 0.70518 0.01536 0.0
O67 O 0.76876 0.69689 0.95148 0.0
O68 O 0.89255 0.68692 0.90592 0.0
O69 O 0.92901 0.71131 0.91239 0.0
O70 O 0.8507 0.73392 0.97149 0.0
O71 O 0.96463 0.73711 0.966 0.0
H72 H 0.09858 0.73386 0.0132 0.0
H73 H 0.13167 0.76387 0.01068 0.0
H74 H 0.25722 0.75137 0.8952 0.0
H75 H 0.22255 0.72135 0.89732 0.0
H76 H 0.73701 0.7286 0.91435 0.0
H77 H 0.66371 0.75902 0.90334 0.0
H78 H 0.55743 0.75142 0.02576 0.0
H79 H 0.63231 0.72103 0.03711 0.0
C80 C 0.94567 0.66371 0.45234 0.0
Eu81 Eu 0.94742 0.69727 0.4689 0.0
C82 C 0.88664 0.65335 0.45138 0.0
C83 C 0.83041 0.65557 0.48204 0.0
C84 C 0.77563 0.64527 0.48111 0.0
C85 C 0.77609 0.63268 0.44939 0.0
C86 C 0.83014 0.63137 0.41727 0.0
C87 C 0.88494 0.6416 0.41833 0.0
C88 C 0.94997 0.70666 0.55263 0.0
C89 C 0.75414 0.71511 0.46804 0.0
C90 C 0.91655 0.76543 0.47881 0.0
Eu91 Eu 0.91782 0.73118 0.46563 0.0
C92 C 0.97527 0.77586 0.48268 0.0
C93 C 0.96926 0.79334 0.46208 0.0
C94 C 1.02749 0.80261 0.46236 0.0
C95 C 0.09289 0.79442 0.48281 0.0
C96 C 0.09806 0.77712 0.5043 0.0
C97 C 1.03974 0.76798 0.50447 0.0
C98 C 0.91769 0.72025 0.38264 0.0
C99 C 0.111 0.7134 0.46682 0.0
O100 O 0.94255 0.6769 0.42247 0.0
O101 O 0.96304 0.66841 0.48995 0.0
O102 O 1.00015 0.69533 0.53435 0.0
O103 O 0.90105 0.71353 0.525 0.0
O104 O 0.80978 0.70027 0.467 0.0
O105 O 0.7849 0.73026 0.46909 0.0
O106 O 0.91203 0.75297 0.50964 0.0
O107 O 0.90871 0.75961 0.44085 0.0
O108 O 0.86549 0.73145 0.39972 0.0
O109 O 0.96655 0.71463 0.41081 0.0
O110 O 0.05533 0.72819 0.46874 0.0
O111 O 0.08028 0.69828 0.46478 0.0
H112 H 0.82975 0.66491 0.50733 0.0
H113 H 0.73473 0.64656 0.50623 0.0
H114 H 0.83299 0.62155 0.39285 0.0
H115 H 0.92715 0.63997 0.39398 0.0
H116 H 0.92011 0.79964 0.44502 0.0
H117 H 1.02221 0.81593 0.44545 0.0
H118 H 0.14745 0.77061 0.52086 0.0
H119 H 0.04573 0.7546 0.52107 0.0
C120 C 0.21502 0.38569 0.47244 0.0
Eu121 Eu 0.21382 0.42028 0.48062 0.0
C122 C 0.15624 0.37496 0.47205 0.0
C123 C 0.14796 0.36259 0.50696 0.0
C124 C 0.08903 0.35356 0.5087 0.0
C125 C 1.03728 0.3566 0.47538 0.0
C126 C 0.04683 0.36861 0.43989 0.0
C127 C 0.10544 0.3777 0.43827 0.0
C128 C 0.21265 0.43298 0.5619 0.0
C129 C 1.02073 0.43745 0.47666 0.0
C130 C 0.15683 0.48925 0.47982 0.0
Eu131 Eu 0.1836 0.45421 0.47265 0.0
C132 C 0.08569 0.50139 0.47957 0.0
C133 C 1.02535 0.49534 0.49872 0.0
C134 C 0.95563 0.50548 0.49209 0.0
C135 C 0.94504 0.5219 0.46637 0.0
C136 C 1.006 0.5282 0.44856 0.0
C137 C 0.07557 0.51798 0.45489 0.0
C138 C 0.18188 0.44224 0.39121 0.0
C139 C 0.37684 0.43674 0.47651 0.0
O140 O 0.21776 0.39746 0.43982 0.0
O141 O 0.22618 0.39232 0.50901 0.0
O142 O 0.26453 0.42119 0.54642 0.0
O143 O 0.16452 0.43824 0.53313 0.0
O144 O 0.0766 0.42264 0.47724 0.0
O145 O 0.05125 0.45265 0.47605 0.0
O146 O 0.17467 0.48188 0.44344 0.0
O147 O 0.17083 0.47747 0.51292 0.0
O148 O 0.12961 0.45327 0.40845 0.0
O149 O 0.23119 0.43662 0.4193 0.0
O150 O 0.32107 0.45164 0.47693 0.0
O151 O 0.34631 0.42152 0.47615 0.0
H152 H 0.18621 0.36023 0.53345 0.0
H153 H 0.08311 0.34455 0.53674 0.0
H154 H 1.00894 0.37101 0.41324 0.0
H155 H 0.11012 0.38709 0.41075 0.0
H156 H 1.03171 0.48252 0.51786 0.0
H157 H 0.91004 0.50026 0.50632 0.0
H158 H 1.00008 0.54109 0.42966 0.0
H159 H 0.12129 0.52279 0.43959 0.0
C160 C 0.49791 0.9438 0.97495 0.0
Eu161 Eu 0.62836 0.95082 0.97185 0.0
C162 C 0.46239 0.93761 0.01433 0.0
C163 C 0.46716 0.946 0.05321 0.0
C164 C 0.44056 0.93905 0.09162 0.0
C165 C 0.40805 0.9236 0.09205 0.0
C166 C 0.40418 0.91505 0.05326 0.0
C167 C 0.43136 0.92196 0.01478 0.0
C168 C 0.67127 0.95077 0.05692 0.0
C169 C 0.64431 0.996 0.96654 0.0
C170 C 0.87752 0.95608 -0.00427 0.0
Eu171 Eu 0.75185 0.95138 0.97031 0.0
C172 C 0.92086 0.94633 0.03219 0.0
C173 C 0.99041 0.93656 0.02461 0.0
C174 C 1.02945 0.92595 0.05807 0.0
C175 C 0.99975 0.92491 0.0999 0.0
C176 C 0.93025 0.9348 0.10763 0.0
C177 C 0.89094 0.94534 0.07401 0.0
C178 C 0.71963 0.94809 0.88525 0.0
C179 C 0.73541 0.90654 0.9715 0.0
O180 O 0.51112 0.96027 0.97387 0.0
O181 O 0.55327 0.93231 0.9618 0.0
O182 O 0.62223 0.96282 0.03786 0.0
O183 O 0.70112 0.94029 0.0291 0.0
O184 O 0.59665 0.98457 0.96425 0.0
O185 O 0.71225 0.98559 0.9691 0.0
O186 O 0.81699 0.96659 0.00591 0.0
O187 O 0.86981 0.94637 0.9633 0.0
O188 O 0.77563 0.93927 0.90603 0.0
O189 O 0.68058 0.95889 0.90994 0.0
O190 O 0.78214 0.91775 0.97871 0.0
O191 O 0.66851 0.91709 0.96459 0.0
H192 H 0.49165 0.95796 0.05416 0.0
H193 H 0.44447 0.94593 0.12089 0.0
H194 H 0.37798 0.90335 0.0523 0.0
H195 H 0.4283 0.91507 -0.01459 0.0
H196 H 1.01435 0.93701 -0.00731 0.0
H197 H 0.08385 0.9189 0.05136 0.0
H198 H 0.90637 0.93437 0.13956 0.0
H199 H 0.83692 0.95258 0.08081 0.0
C200 C 0.6344 0.21187 0.96677 0.0
Eu201 Eu 0.50759 0.20251 0.97264 0.0
C202 C 0.65814 0.22658 -0.01156 0.0
C203 C 0.61853 0.23412 0.02377 0.0
C204 C 0.64165 0.24774 0.04559 0.0
C205 C 0.70517 0.25396 0.03265 0.0
C206 C 0.74325 0.24674 -0.00376 0.0
C207 C 0.71972 0.2332 0.97426 0.0
C208 C 0.46186 0.19846 0.05713 0.0
C209 C 0.48731 0.1572 0.96937 0.0
C210 C 0.24202 0.20252 -0.00769 0.0
Eu211 Eu 0.37641 0.20049 0.97053 0.0
C212 C 0.19766 0.21517 0.02121 0.0
C213 C 0.15629 0.23162 0.00409 0.0
C214 C 0.11754 0.24407 0.0313 0.0
C215 C 0.11879 0.24034 0.07633 0.0
C216 C 0.16123 0.22404 0.09358 0.0
C217 C 0.20017 0.21157 0.06632 0.0
C218 C 0.42552 0.19669 0.88658 0.0
C219 C 0.39626 0.24596 0.97242 0.0
O220 O 0.62082 0.19843 -0.00776 0.0
O221 O 0.58393 0.21709 0.938 0.0
O222 O 0.51725 0.18839 0.04043 0.0
O223 O 0.42976 0.20925 0.0275 0.0
O224 O 0.53207 0.16931 0.95946 0.0
O225 O 0.4209 0.16677 0.97989 0.0
O226 O 0.29448 0.19063 0.01082 0.0
O227 O 0.26197 0.20979 0.95565 0.0
O228 O 0.38279 0.18714 0.90624 0.0
O229 O 0.44134 0.20785 0.91219 0.0
O230 O 0.34931 0.23443 0.96739 0.0
O231 O 0.46469 0.23606 0.97711 0.0
H232 H 0.57055 0.22917 0.03516 0.0
H233 H 0.61096 0.25301 0.07327 0.0
H234 H 0.79339 0.25086 -0.01412 0.0
H235 H 0.75065 0.22759 0.94697 0.0
H236 H 0.15335 0.23485 0.96956 0.0
H237 H 0.0838 0.25624 0.01678 0.0
H238 H 0.16296 0.22074 0.1281 0.0
H239 H 0.23206 0.19909 0.08069 0.0
C240 C 0.46248 0.16246 0.45685 0.0
Eu241 Eu 0.45967 0.19641 0.47158 0.0
C242 C 0.41208 0.1536 0.43358 0.0
C243 C 0.37813 0.14057 0.45574 0.0
C244 C 0.33299 0.13142 0.43381 0.0
C245 C 0.32148 0.135 0.38912 0.0
C246 C 0.35248 0.14872 0.36735 0.0
C247 C 0.39707 0.15802 0.38942 0.0
C248 C 0.46457 0.20688 0.55431 0.0
C249 C 0.26611 0.21423 0.46864 0.0
C250 C 0.42741 0.26486 0.47822 0.0
Eu251 Eu 0.42895 0.23046 0.46655 0.0
C252 C 0.48582 0.2753 0.4831 0.0
C253 C 0.4802 0.29282 0.46282 0.0
C254 C 0.53812 0.30216 0.46411 0.0
C255 C 0.60289 0.29401 0.48534 0.0
C256 C 0.60767 0.27663 0.50645 0.0
C257 C 0.54964 0.26741 0.50553 0.0
C258 C 0.42323 0.2189 0.38439 0.0
C259 C 0.62268 0.21273 0.4693 0.0
O260 O 0.49774 0.17307 0.4336 0.0
O261 O 0.43875 0.16941 0.49289 0.0
O262 O 0.51557 0.19574 0.53617 0.0
O263 O 0.41479 0.21306 0.5269 0.0
O264 O 0.32205 0.1995 0.46584 0.0
O265 O 0.29652 0.22934 0.47135 0.0
O266 O 0.42032 0.25276 0.50941 0.0
O267 O 0.42263 0.25861 0.4404 0.0
O268 O 0.37313 0.23066 0.40153 0.0
O269 O 0.47315 0.21336 0.41182 0.0
O270 O 0.56672 0.22757 0.4686 0.0
O271 O 0.59237 0.19747 0.47011 0.0
H272 H 0.38829 0.13707 0.48981 0.0
H273 H 0.31114 0.12065 0.45135 0.0
H274 H 0.34478 0.15167 0.33292 0.0
H275 H 0.42136 0.16828 0.37154 0.0
H276 H 0.43159 0.29912 0.44521 0.0
H277 H 0.53309 0.3155 0.44737 0.0
H278 H 0.65649 0.27012 0.52358 0.0
H279 H 0.55528 0.25397 0.52181 0.0
C280 C 0.71076 0.88354 0.47831 0.0
Eu281 Eu 0.70815 0.91856 0.47927 0.0
C282 C 0.65233 0.87294 0.47507 0.0
C283 C 0.64457 0.85946 0.50746 0.0
C284 C 0.58515 0.85064 0.50739 0.0
C285 C 0.53239 0.85504 0.47469 0.0
C286 C 0.54144 0.86823 0.44164 0.0
C287 C 0.60048 0.87714 0.44193 0.0
C288 C 0.71505 0.93318 0.55786 0.0
C289 C 0.51434 0.93537 0.47346 0.0
C290 C 0.65167 0.98708 0.46052 0.0
Eu291 Eu 0.67705 0.95162 0.46674 0.0
C292 C 0.58877 0.99956 0.44128 0.0
C293 C 0.55431 0.9949 0.40478 0.0
C294 C 0.49138 1.00607 0.38841 0.0
C295 C 0.46155 1.02206 0.40838 0.0
C296 C 0.4964 1.02671 0.44486 0.0
C297 C 0.55933 1.01551 0.46121 0.0
C298 C 0.66959 0.93725 0.38821 0.0
C299 C 0.87071 0.93466 0.47333 0.0
O300 O 0.72293 0.89374 0.44428 0.0
O301 O 0.71124 0.89197 0.51364 0.0
O302 O 0.76651 0.92162 0.54135 0.0
O303 O 0.66365 0.93759 0.53096 0.0
O304 O 0.57068 0.92063 0.47595 0.0
O305 O 0.54458 0.9506 0.47063 0.0
O306 O 0.69331 0.97718 0.43379 0.0
O307 O 0.63825 0.97761 0.49543 0.0
O308 O 0.61682 0.9477 0.40634 0.0
O309 O 0.72162 0.933 0.41478 0.0
O310 O 0.81436 0.94946 0.47333 0.0
O311 O 0.8405 0.91941 0.47355 0.0
H312 H 0.68346 0.85612 0.53355 0.0
H313 H 0.57958 0.84075 0.5337 0.0
H314 H 0.50272 0.87176 0.41554 0.0
H315 H 0.6046 0.88757 0.4166 0.0
H316 H 0.57565 0.98255 0.38896 0.0
H317 H 0.46585 1.00214 0.36035 0.0
H318 H 0.47575 1.03919 0.46039 0.0
H319 H 0.58478 1.01926 0.48954 0.0
H320 H 0.53498 0.38391 0.12197 0.0
H321 H 0.54434 0.43799 0.15884 0.0
H322 H 0.6487 0.37209 0.15953 0.0
H323 H 0.65845 0.42676 0.19365 0.0
H324 H 0.87001 0.42333 0.16925 0.0
H325 H 0.77282 0.41439 0.21284 0.0
H326 H 0.74803 0.37509 0.12041 0.0
H327 H 0.84819 0.38303 0.07942 0.0
C328 C 0.56012 0.39314 0.13952 0.0
C329 C 0.53366 0.41199 0.13541 0.0
C330 C 0.62563 0.38643 0.16085 0.0
C331 C 0.66707 0.39872 0.17547 0.0
C332 C 0.63116 0.4168 0.18062 0.0
C333 C 0.56489 0.42343 0.16036 0.0
C334 C 0.84596 0.41218 0.15937 0.0
C335 C 0.86315 0.40473 0.11927 0.0
C336 C 0.78949 0.40712 0.18428 0.0
C337 C 0.74731 0.39532 0.16817 0.0
C338 C 0.77572 0.38501 0.13325 0.0
C339 C 0.83303 0.38976 0.10894 0.0
H340 H 0.24795 0.77284 0.02345 0.0
H341 H 0.21264 0.78564 0.887 0.0
H342 H 0.34119 0.79071 0.02241 0.0
H343 H 0.30538 0.80454 0.88591 0.0
H344 H 0.53718 0.76972 0.88778 0.0
H345 H 0.42033 0.78881 0.88122 0.0
H346 H 0.43703 0.80499 0.01144 0.0
H347 H 0.55528 0.78502 0.01823 0.0
C348 C 0.25766 0.78027 -0.00653 0.0
C349 C 0.22654 0.7769 0.95473 0.0
C350 C 0.31162 0.79077 -0.00726 0.0
C351 C 0.33607 0.79773 0.95302 0.0
C352 C 0.29187 0.79816 0.91649 0.0
C353 C 0.23868 0.78733 0.917 0.0
C354 C 0.51763 0.7779 0.91452 0.0
C355 C 0.55303 0.77494 0.95453 0.0
C356 C 0.4497 0.78912 0.91079 0.0
C357 C 0.41566 0.79718 0.9474 0.0
C358 C 0.45924 0.79783 -0.01633 0.0
C359 C 0.52701 0.78636 -0.01232 0.0
H360 H 0.61283 0.74362 0.47023 0.0
H361 H 0.65798 0.68584 0.46553 0.0
H362 H 0.48166 0.74334 0.47001 0.0
H363 H 0.52674 0.68555 0.46525 0.0
H364 H 0.25239 0.68496 0.46401 0.0
H365 H 0.38352 0.68528 0.46431 0.0
H366 H 0.33819 0.74302 0.47038 0.0
H367 H 0.20702 0.74268 0.47011 0.0
C368 C 0.59816 0.73034 0.46912 0.0
C369 C 0.65959 0.71479 0.46793 0.0
C370 C 0.51691 0.73016 0.46898 0.0
C371 C 0.47989 0.71439 0.46758 0.0
C372 C 0.54137 0.69884 0.46639 0.0
C373 C 0.62265 0.69901 0.46656 0.0
C374 C 0.267 0.69824 0.46545 0.0
C375 C 0.20552 0.71375 0.46701 0.0
C376 C 0.34822 0.69844 0.46564 0.0
C377 C 0.38517 0.7142 0.46739 0.0
C378 C 0.32365 0.72973 0.46893 0.0
C379 C 0.24238 0.72953 0.46878 0.0
H380 H 0.88009 0.46613 0.47683 0.0
H381 H 0.92394 0.40819 0.47634 0.0
H382 H 0.74879 0.46603 0.47681 0.0
H383 H 0.79255 0.40809 0.47629 0.0
H384 H 0.51753 0.408 0.47603 0.0
H385 H 0.64887 0.40805 0.47605 0.0
H386 H 0.60544 0.46596 0.47704 0.0
H387 H 0.47402 0.4659 0.47704 0.0
C388 C 0.86507 0.45285 0.47671 0.0
C389 C 0.92618 0.43719 0.47662 0.0
C390 C 0.78376 0.45279 0.4767 0.0
C391 C 0.74633 0.43705 0.47656 0.0
C392 C 0.80749 0.42137 0.47643 0.0
C393 C 0.88888 0.42143 0.47647 0.0
C394 C 0.5326 0.42127 0.47626 0.0
C395 C 0.47151 0.43694 0.47653 0.0
C396 C 0.61396 0.4213 0.47628 0.0
C397 C 0.65149 0.43701 0.47655 0.0
C398 C 0.59039 0.45269 0.47681 0.0
C399 C 0.50899 0.45266 0.47681 0.0
H400 H 1.01927 0.93647 0.18025 0.0
H401 H 0.08361 0.89093 0.10103 0.0
H402 H 0.13106 0.92748 0.22114 0.0
H403 H 0.19646 0.88263 0.1393 0.0
H404 H 0.32299 0.94581 0.14584 0.0
H405 H 0.22489 0.93794 0.18813 0.0
H406 H 0.30536 0.88071 0.1712 0.0
H407 H 0.40384 0.88896 0.12685 0.0
C408 C 0.05603 0.92412 0.1726 0.0
C409 C 0.04571 0.91512 0.13553 0.0
C410 C 0.12064 0.919 0.19587 0.0
C411 C 0.17651 0.90561 0.18048 0.0
C412 C 0.1574 0.89383 0.15074 0.0
C413 C 0.09244 0.89868 0.12812 0.0
C414 C 0.32173 0.93146 0.15241 0.0
C415 C 0.36845 0.91807 0.13081 0.0
C416 C 0.26488 0.9268 0.17724 0.0
C417 C 0.25304 0.90867 0.18016 0.0
C418 C 0.30966 0.89495 0.16698 0.0
C419 C 0.36614 0.89965 0.14146 0.0
H420 H 0.08319 0.27782 0.07478 0.0
H421 H 1.03286 0.22886 0.13952 0.0
H422 H 0.96291 0.29429 0.09242 0.0
H423 H 0.91405 0.24478 0.15608 0.0
H424 H 0.70851 0.25322 0.1213 0.0
H425 H 0.80197 0.26261 0.16274 0.0
H426 H 0.87274 0.28988 0.04721 0.0
H427 H 0.77619 0.28173 0.00705 0.0
C428 C 0.04743 0.27076 0.09421 0.0
C429 C 0.0655 0.25181 0.10344 0.0
C430 C 0.9784 0.28018 0.10437 0.0
C431 C 0.92627 0.27054 0.12228 0.0
C432 C 0.95087 0.2527 0.14047 0.0
C433 C 1.01991 0.24336 0.13079 0.0
C434 C 0.74154 0.26205 0.10521 0.0
C435 C 0.73832 0.26571 0.06017 0.0
C436 C 0.79575 0.26737 0.12905 0.0
C437 C 0.84922 0.27557 0.10771 0.0
C438 C 0.83522 0.28278 0.06488 0.0
C439 C 0.78014 0.27784 0.04129 0.0
H440 H 0.16956 0.18505 0.46505 0.0
H441 H 0.12504 0.24271 0.47223 0.0
H442 H 1.03825 0.18482 0.4653 0.0
H443 H 0.99381 0.2425 0.47229 0.0
H444 H 0.71889 0.2421 0.47035 0.0
H445 H 0.85015 0.24238 0.47027 0.0
H446 H 0.89503 0.1845 0.46778 0.0
H447 H 0.76388 0.18423 0.46805 0.0
C448 C 0.13437 0.1982 0.46672 0.0
C449 C 0.17153 0.21393 0.4686 0.0
C450 C 0.05303 0.19807 0.46688 0.0
C451 C 0.9917 0.21363 0.46884 0.0
C452 C 1.02892 0.22934 0.47065 0.0
C453 C 0.11022 0.22947 0.4706 0.0
C454 C 0.75417 0.2289 0.46979 0.0
C455 C 0.71719 0.2131 0.46923 0.0
C456 C 0.83549 0.22907 0.46974 0.0
C457 C 0.89692 0.21348 0.46898 0.0
C458 C 0.85983 0.1977 0.46838 0.0
C459 C 0.77859 0.19753 0.46855 0.0
H460 H 1.01116 0.9059 0.47495 0.0
H461 H 0.96788 0.96391 0.47185 0.0
H462 H 0.14252 0.90591 0.47501 0.0
H463 H 0.09935 0.96393 0.4718 0.0
H464 H 0.37384 0.96405 0.4703 0.0
H465 H 0.24256 0.96396 0.47037 0.0
H466 H 0.28619 0.90589 0.47637 0.0
H467 H 0.41762 0.90598 0.47644 0.0
C468 C 1.0263 0.91918 0.47425 0.0
C469 C 0.9653 0.93489 0.47342 0.0
C470 C 0.10766 0.91919 0.47429 0.0
C471 C 0.14524 0.93492 0.47341 0.0
C472 C 0.08423 0.95064 0.47254 0.0
C473 C 1.00281 0.95064 0.47257 0.0
C474 C 0.35879 0.95074 0.47174 0.0
C475 C 0.41987 0.93505 0.47345 0.0
C476 C 0.2775 0.95068 0.47177 0.0
C477 C 0.24007 0.93492 0.47341 0.0
C478 C 0.30118 0.9192 0.47503 0.0
C479 C 0.38257 0.91925 0.47508 0.0
H480 H 0.12418 0.62951 0.96353 0.0
H481 H 0.90199 0.62523 0.97942 0.0
H482 H 0.15771 0.59596 0.96327 0.0
H483 H 0.93534 0.59173 0.97883 0.0
H484 H 1.00336 0.52301 0.97346 0.0
H485 H 0.96982 0.55655 0.97392 0.0
H486 H 0.19334 0.56056 0.96736 0.0
H487 H 0.22679 0.52705 0.96723 0.0
C488 C 0.0801 0.62205 0.96707 0.0
C489 C 1.00735 0.63309 0.97158 0.0
C490 C 0.10063 0.60147 0.96691 0.0
C491 C 0.05225 0.58809 0.97098 0.0
C492 C 0.97953 0.59916 0.97537 0.0
C493 C 0.95906 0.61971 0.97574 0.0
C494 C 0.04771 0.53042 0.97203 0.0
C495 C 0.12082 0.51932 0.97018 0.0
C496 C 1.02717 0.551 0.97235 0.0
C497 C 0.07585 0.56432 0.97069 0.0
C498 C 0.1489 0.55319 0.96875 0.0
C499 C 0.16943 0.53263 0.96864 0.0
H500 H 0.83252 0.52791 0.52449 0.0
H501 H 0.8895 0.54071 0.39235 0.0
H502 H 0.72786 0.55254 0.51886 0.0
H503 H 0.78966 0.56607 0.3876 0.0
H504 H 0.75224 0.61327 0.52333 0.0
H505 H 0.73972 0.58196 0.52602 0.0
H506 H 0.68508 0.58735 0.39026 0.0
H507 H 0.70117 0.619 0.38748 0.0
C508 C 0.82183 0.53569 0.49386 0.0
C509 C 0.87157 0.53307 0.45958 0.0
C510 C 0.76187 0.54993 0.49068 0.0
C511 C 0.75235 0.56215 0.4538 0.0
C512 C 0.79529 0.55745 0.41717 0.0
C513 C 0.85411 0.54303 0.42007 0.0
C514 C 0.73399 0.60812 0.49443 0.0
C515 C 0.73192 0.61822 0.45463 0.0
C516 C 0.7265 0.58992 0.49588 0.0
C517 C 0.71704 0.58161 0.45743 0.0
C518 C 0.69722 0.59301 0.41993 0.0
C519 C 0.70602 0.6112 0.4183 0.0
H520 H 0.50434 1.02368 0.96985 0.0
H521 H 0.72826 1.02723 0.96366 0.0
H522 H 0.47174 1.05719 0.97073 0.0
H523 H 0.69566 1.06079 0.96388 0.0
H524 H 0.62656 0.12988 0.95653 0.0
H525 H 0.65958 0.09635 0.95615 0.0
H526 H 0.43887 0.09214 0.97982 0.0
H527 H 0.40611 0.12565 -0.01918 0.0
C528 C 0.54898 1.03099 0.96848 0.0
C529 C 0.62182 1.01975 0.96655 0.0
C530 C 0.529 1.05154 0.96905 0.0
C531 C 0.57809 1.06474 0.96739 0.0
C532 C 0.65097 1.0535 0.96528 0.0
C533 C 0.671 1.03292 0.96512 0.0
C534 C 0.58276 0.12243 0.9619 0.0
C535 C 0.51072 0.13348 0.96877 0.0
C536 C 0.603 0.10186 0.96168 0.0
C537 C 0.55486 0.08849 0.96786 0.0
C538 C 0.48276 0.09957 0.97453 0.0
C539 C 0.46265 0.12012 0.97515 0.0
H540 H 0.37883 0.11841 0.31824 0.0
H541 H 0.19735 0.12121 0.40579 0.0
H542 H 0.36924 0.08787 0.30349 0.0
H543 H 0.18486 0.0905 0.38943 0.0
H544 H 0.34606 1.04018 0.45178 0.0
H545 H 0.26532 1.06749 0.42557 0.0
H546 H 0.34599 1.05911 0.29574 0.0
H547 H 0.4308 1.03222 0.32311 0.0
C548 C 0.33385 0.11288 0.33239 0.0
C549 C 0.2913 0.12174 0.36492 0.0
C550 C 0.32797 0.09516 0.3238 0.0
C551 C 0.27941 0.08613 0.34777 0.0
C552 C 0.22575 0.09668 0.3724 0.0
C553 C 0.23255 0.11432 0.38166 0.0
C554 C 0.34559 1.04399 0.4175 0.0
C555 C 0.39734 1.03467 0.38996 0.0
C556 C 0.298 1.05957 0.40203 0.0
C557 C 0.30125 1.06615 0.35857 0.0
C558 C 0.34411 1.0549 0.32972 0.0
C559 C 0.3926 1.0394 0.34539 0.0
H560 H 0.15198 0.37505 0.9702 0.0
H561 H 0.375 0.379 0.97849 0.0
H562 H 0.18617 0.34156 0.96974 0.0
H563 H 0.40932 0.34547 0.97821 0.0
H564 H 0.47828 0.27687 0.97978 0.0
H565 H 0.4445 0.31039 0.98018 0.0
H566 H 0.22174 0.30684 0.96691 0.0
H567 H 0.25562 0.27334 0.96634 0.0
C568 C 0.20934 0.36942 0.97202 0.0
C569 C 0.25776 0.3826 0.9744 0.0
C570 C 0.23028 0.34893 0.97173 0.0
C571 C 0.30348 0.33788 0.97389 0.0
C572 C 0.35196 0.35107 0.97636 0.0
C573 C 0.33101 0.37158 0.97654 0.0
C574 C 0.42111 0.28259 0.97679 0.0
C575 C 0.37257 0.26954 0.97289 0.0
C576 C 0.40042 0.3031 0.97704 0.0
C577 C 0.32744 0.31425 0.97358 0.0
C578 C 0.27893 0.30116 0.96981 0.0
C579 C 0.29963 0.28067 0.96944 0.0
H580 H 0.87481 0.87891 0.97847 0.0
H581 H 0.6521 0.8758 0.96343 0.0
H582 H 0.908 0.84542 0.97761 0.0
H583 H 0.68514 0.84224 0.96308 0.0
H584 H 0.75354 0.77341 0.96928 0.0
H585 H 0.71953 0.80694 0.9695 0.0
H586 H 0.94332 0.81092 0.97 0.0
H587 H 0.97717 0.77745 0.96919 0.0
C588 C 0.83064 0.87168 0.97493 0.0
C589 C 0.75798 0.88294 0.97104 0.0
C590 C 0.85093 0.85119 0.9744 0.0
C591 C 0.80216 0.8382 0.97024 0.0
C592 C 0.72938 0.84946 0.96651 0.0
C593 C 0.70914 0.86998 0.96671 0.0
C594 C 0.79772 0.78085 0.96927 0.0
C595 C 0.87102 0.76987 0.96902 0.0
C596 C 0.77696 0.80136 0.96945 0.0
C597 C 0.82576 0.81457 0.96981 0.0
C598 C 0.89901 0.80354 0.96977 0.0
C599 C 0.91974 0.78306 0.96926 0.0
H600 H 0.23173 0.77973 0.4619 0.0
H601 H 0.09738 0.82967 0.49911 0.0
H602 H 0.33699 0.79446 0.45882 0.0
H603 H 0.20314 0.84435 0.49775 0.0
H604 H 0.39259 0.87055 0.45231 0.0
H605 H 0.28718 0.85603 0.45238 0.0
H606 H 0.41829 0.80535 0.5024 0.0
H607 H 0.52469 0.81952 0.49925 0.0
C608 C 0.225 0.79384 0.46986 0.0
C609 C 0.1565 0.80357 0.48085 0.0
C610 C 0.2854 0.80229 0.46831 0.0
C611 C 0.27898 0.82061 0.47827 0.0
C612 C 0.21014 0.83033 0.48919 0.0
C613 C 0.1495 0.82193 0.49017 0.0
C614 C 0.3993 0.85622 0.4626 0.0
C615 C 0.46752 0.8462 0.4755 0.0
C616 C 0.3384 0.84795 0.46332 0.0
C617 C 0.34386 0.82948 0.47742 0.0
C618 C 0.41199 0.81951 0.49067 0.0
C619 C 0.47302 0.82773 0.48949 0.0
H620 H 1.03115 0.32161 0.5057 0.0
H621 H 0.89763 0.37099 0.45077 0.0
H622 H 0.92602 0.30688 0.51013 0.0
H623 H 0.79358 0.3559 0.45255 0.0
H624 H 0.60469 0.32958 0.50019 0.0
H625 H 0.70916 0.34472 0.49931 0.0
H626 H 0.84794 0.29456 0.46624 0.0
H627 H 0.74382 0.27941 0.46845 0.0
C628 C 0.97941 0.32934 0.49454 0.0
C629 C 0.97311 0.34749 0.47777 0.0
C630 C 0.91918 0.3208 0.49652 0.0
C631 C 0.85112 0.33013 0.48148 0.0
C632 C 0.8448 0.34832 0.46488 0.0
C633 C 0.90489 0.3569 0.46323 0.0
C634 C 0.65759 0.32185 0.49265 0.0
C635 C 0.66615 0.30331 0.48454 0.0
C636 C 0.7175 0.33052 0.49199 0.0
C637 C 0.78726 0.32089 0.48273 0.0
C638 C 0.79547 0.30235 0.47436 0.0
C639 C 0.73572 0.29365 0.47546 0.0
H640 H 0.20313 0.47093 0.11075 0.0
H641 H 0.2013 0.41329 0.11905 0.0
H642 H 0.20559 0.47056 0.18994 0.0
H643 H 0.20558 0.4128 0.19806 0.0
H644 H 0.27477 0.41768 0.34243 0.0
H645 H 0.28375 0.41741 0.26305 0.0
H646 H 0.1178 0.46573 0.25078 0.0
H647 H 0.10756 0.46572 0.32916 0.0
C648 C 0.20428 0.45812 0.12935 0.0
C649 C 0.20182 0.44216 0.10811 0.0
C650 C 0.20533 0.4579 0.17496 0.0
C651 C 0.20561 0.44163 0.20098 0.0
C652 C 0.2059 0.42557 0.17955 0.0
C653 C 0.20323 0.42587 0.13403 0.0
C654 C 0.24026 0.42823 0.32277 0.0
C655 C 0.19038 0.4417 0.34271 0.0
C656 C 0.24522 0.42807 0.27712 0.0
C657 C 0.20181 0.44164 0.24995 0.0
C658 C 0.15283 0.45517 0.27014 0.0
C659 C 0.14669 0.45508 0.31544 0.0
H660 H 0.93559 0.73634 0.10066 0.0
H661 H 0.95396 0.67803 0.1179 0.0
H662 H 0.92644 0.73873 0.17855 0.0
H663 H 0.94627 0.68038 0.19695 0.0
H664 H 1.01188 0.694 0.33935 0.0
H665 H 1.01785 0.68937 0.26135 0.0
H666 H 0.84138 0.73485 0.23941 0.0
H667 H 0.8346 0.73919 0.31677 0.0
C668 C 0.93737 0.72395 0.12108 0.0
C669 C 0.9451 0.70699 0.1024 0.0
C670 C 0.93197 0.72534 0.1661 0.0
C671 C 0.93554 0.70979 0.1948 0.0
C672 C 0.94364 0.69271 0.17626 0.0
C673 C 0.94747 0.69135 0.13077 0.0
C674 C 0.97426 0.70299 0.31788 0.0
C675 C 0.923 0.71707 0.33485 0.0
C676 C 0.97735 0.70025 0.273 0.0
C677 C 0.93028 0.71174 0.24339 0.0
C678 C 0.87913 0.72576 0.26062 0.0
C679 C 0.87512 0.72825 0.30533 0.0
H680 H 0.92415 0.67344 0.82829 0.0
H681 H 0.92617 0.73083 0.83175 0.0
H682 H 0.9296 0.676 0.7495 0.0
H683 H 0.92999 0.73353 0.75212 0.0
H684 H 0.85983 0.73104 0.60371 0.0
H685 H 0.85321 0.73051 0.68333 0.0
H686 H 1.01853 0.682 0.69164 0.0
H687 H 1.02624 0.68276 0.61317 0.0
C688 C 0.92577 0.68667 0.81228 0.0
C689 C 0.92514 0.70188 0.83695 0.0
C690 C 0.92901 0.68815 0.76678 0.0
C691 C 0.93024 0.70499 0.74371 0.0
C692 C 0.92866 0.72033 0.76832 0.0
C693 C 0.92701 0.71876 0.81417 0.0
C694 C 0.89482 0.72029 0.62255 0.0
C695 C 0.94339 0.70691 0.6014 0.0
C696 C 0.89134 0.72002 0.66838 0.0
C697 C 0.9351 0.70613 0.69457 0.0
C698 C 0.98332 0.69283 0.67314 0.0
C699 C 0.98787 0.69332 0.62773 0.0
H700 H 0.12606 0.46172 0.60105 0.0
H701 H 0.28377 0.41289 0.63078 0.0
H702 H 0.11876 0.46783 0.67821 0.0
H703 H 0.27479 0.41864 0.70756 0.0
H704 H 0.17982 0.42501 0.84678 0.0
H705 H 0.18155 0.41979 0.76956 0.0
H706 H 0.20197 0.47566 0.73897 0.0
H707 H 0.20253 0.48072 0.81645 0.0
C708 C 0.15882 0.45221 0.62395 0.0
C709 C 0.2055 0.43677 0.60924 0.0
C710 C 0.15488 0.45575 0.66833 0.0
C711 C 0.19599 0.44373 0.69968 0.0
C712 C 0.24177 0.42818 0.68484 0.0
C713 C 0.2471 0.42491 0.64053 0.0
C714 C 0.1843 0.43626 0.82371 0.0
C715 C 0.19102 0.45333 0.83835 0.0
C716 C 0.18567 0.43322 0.77919 0.0
C717 C 0.19198 0.44726 0.74745 0.0
C718 C 0.1966 0.46449 0.76208 0.0
C719 C 0.19709 0.4674 0.80669 0.0
H720 H 0.76067 0.92345 0.10697 0.0
H721 H 0.59468 0.97126 0.11717 0.0
H722 H 0.76373 0.91867 0.18624 0.0
H723 H 0.59821 0.9668 0.19532 0.0
H724 H 0.78965 0.92673 0.33531 0.0
H725 H 0.79407 0.92911 0.25582 0.0
H726 H 0.56266 0.9483 0.25242 0.0
H727 H 0.55895 0.94633 0.33078 0.0
C728 C 0.72504 0.93299 0.12603 0.0
C729 C 0.67711 0.94771 0.10532 0.0
C730 C 0.72694 0.9303 0.17167 0.0
C731 C 0.68048 0.94216 0.19798 0.0
C732 C 0.63373 0.95702 0.17685 0.0
C733 C 0.63207 0.9597 0.13162 0.0
C734 C 0.73974 0.93129 0.31747 0.0
C735 C 0.67398 0.93644 0.33982 0.0
C736 C 0.74216 0.93265 0.2717 0.0
C737 C 0.67891 0.93924 0.24692 0.0
C738 C 0.6131 0.94367 0.26967 0.0
C739 C 0.61078 0.94236 0.31502 0.0
H740 H 0.34546 0.21712 0.10193 0.0
H741 H 0.56052 0.18588 0.12171 0.0
H742 H 0.33383 0.22118 0.17927 0.0
H743 H 0.55199 0.19085 0.19821 0.0
H744 H 0.51225 0.19156 0.34289 0.0
H745 H 0.51815 0.18595 0.26637 0.0
H746 H 0.35299 0.23396 0.24027 0.0
H747 H 0.34442 0.23858 0.31715 0.0
C748 C 0.39062 0.21119 0.12278 0.0
C749 C 0.45373 0.20105 0.10507 0.0
C750 C 0.38447 0.21367 0.16765 0.0
C751 C 0.44191 0.20646 0.19675 0.0
C752 C 0.5052 0.19641 0.17843 0.0
C753 C 0.5106 0.19362 0.13383 0.0
C754 C 0.47703 0.20087 0.32076 0.0
C755 C 0.42792 0.21555 0.33673 0.0
C756 C 0.48071 0.19778 0.2762 0.0
C757 C 0.43649 0.20948 0.24533 0.0
C758 C 0.38751 0.22423 0.26178 0.0
C759 C 0.38286 0.22707 0.30643 0.0
H760 H 0.51967 0.2138 0.83674 0.0
H761 H 0.3449 0.18442 0.82514 0.0
H762 H 0.52842 0.21721 0.75762 0.0
H763 H 0.3523 0.18821 0.74631 0.0
H764 H 0.34055 0.2147 0.60477 0.0
H765 H 0.33095 0.21263 0.68402 0.0
H766 H 0.56345 0.19782 0.69364 0.0
H767 H 0.57273 0.19945 0.61474 0.0
C768 C 0.48293 0.20809 0.81742 0.0
C769 C 0.4317 0.19878 0.83785 0.0
C770 C 0.488 0.21002 0.77184 0.0
C771 C 0.44087 0.20308 0.74491 0.0
C772 C 0.38917 0.19394 0.76548 0.0
C773 C 0.38523 0.19165 0.81097 0.0
C774 C 0.38968 0.21114 0.62375 0.0
C775 C 0.45748 0.20729 0.6029 0.0
C776 C 0.3842 0.20982 0.6694 0.0
C777 C 0.44641 0.20501 0.69588 0.0
C778 C 0.5142 0.20167 0.67485 0.0
C779 C 0.51953 0.20258 0.62934 0.0
H780 H 0.82564 0.92599 0.61611 0.0
H781 H 0.59844 0.94947 0.60696 0.0
H782 H 0.82376 0.93091 0.69269 0.0
H783 H 0.59524 0.95381 0.68483 0.0
H784 H 0.62851 0.97093 0.82521 0.0
H785 H 0.62515 0.96862 0.74643 0.0
H786 H 0.7893 0.91976 0.75856 0.0
H787 H 0.79416 0.92252 0.83557 0.0
C788 C 0.77486 0.93214 0.63053 0.0
C789 C 0.71218 0.93718 0.60497 0.0
C790 C 0.77346 0.93485 0.675 0.0
C791 C 0.70894 0.94249 0.69623 0.0
C792 C 0.64627 0.94796 0.67032 0.0
C793 C 0.64793 0.94538 0.62544 0.0
C794 C 0.66387 0.95975 0.81086 0.0
C795 C 0.71226 0.94706 0.83712 0.0
C796 C 0.66184 0.95833 0.76549 0.0
C797 C 0.7079 0.94413 0.745 0.0
C798 C 0.75447 0.93127 0.77192 0.0
C799 C 0.75686 0.93277 0.81672 0.0
loop_
_geom_bond_atom_site_label_1
_geom_bond_atom_site_label_2
_geom_bond_distance
_geom_bond_site_symmetry_2
_ccdc_geom_bond_type
C0 Eu1 2.835 . S
C0 C2 1.500 1_554 S
C0 O20 1.257 1_554 S
C0 O21 1.260 . S
Eu1 C0 2.835 . S
Eu1 O20 2.473 1_554 S
Eu1 O21 2.480 . S
Eu1 O22 2.430 1_655 S
Eu1 O23 2.670 1_655 S
Eu1 O24 2.394 . S
Eu1 O29 2.355 1_654 S
Eu1 O31 2.374 1_655 S
C2 C0 1.500 1_556 S
C2 C3 1.377 1_556 S
C2 C7 1.377 . S
C3 C2 1.377 1_554 S
C3 C4 1.395 . S
C3 H32 0.931 . S
C4 C3 1.395 . S
C4 C5 1.383 1_554 S
C4 H33 0.931 . S
C5 C4 1.383 1_556 S
C5 C6 1.394 . S
C6 C5 1.394 . S
C6 C7 1.378 . S
C6 H34 0.931 . S
C7 C2 1.377 . S
C7 C6 1.378 . S
C7 H35 0.931 . S
C8 O22 1.259 . S
C8 O23 1.270 . S
C9 O24 1.251 1_455 S
C9 O25 1.256 . S
C10 Eu11 2.835 1_554 S
C10 C12 1.500 . S
C10 O26 1.257 . S
C10 O27 1.260 1_554 S
Eu11 C10 2.835 1_556 S
Eu11 O23 2.355 1_556 S
Eu11 O25 2.371 1_556 S
Eu11 O26 2.473 1_556 S
Eu11 O27 2.480 . S
Eu11 O28 2.430 . S
Eu11 O29 2.670 . S
Eu11 O30 2.394 . S
C12 C10 1.500 . S
C12 C13 1.377 1_554 S
C12 C17 1.377 . S
C13 C12 1.377 1_556 S
C13 C14 1.395 . S
C13 H36 0.931 . S
C14 C13 1.395 . S
C14 C15 1.383 1_556 S
C14 H37 0.931 . S
C15 C14 1.383 1_554 S
C15 C16 1.394 . S
C16 C15 1.394 . S
C16 C17 1.378 . S
C16 H38 0.931 . S
C17 C12 1.377 . S
C17 C16 1.378 . S
C17 H39 0.931 . S
C18 O28 1.259 . S
C18 O29 1.270 . S
C19 O30 1.247 1_554 S
C19 O31 1.254 . S
O20 C0 1.257 1_556 S
O20 Eu1 2.473 1_556 S
O21 C0 1.260 . S
O21 Eu1 2.480 . S
O22 Eu1 2.430 1_455 S
O22 C8 1.259 . S
O23 Eu1 2.670 1_455 S
O23 C8 1.270 . S
O23 Eu11 2.355 1_554 S
O24 Eu1 2.394 . S
O24 C9 1.251 1_655 S
O25 C9 1.256 . S
O25 Eu11 2.371 1_554 S
O26 C10 1.257 . S
O26 Eu11 2.473 1_554 S
O27 C10 1.260 1_556 S
O27 Eu11 2.480 . S
O28 Eu11 2.430 . S
O28 C18 1.259 . S
O29 Eu1 2.355 1_456 S
O29 Eu11 2.670 . S
O29 C18 1.270 . S
O30 Eu11 2.394 . S
O30 C19 1.247 1_556 S
O31 Eu1 2.374 1_455 S
O31 C19 1.254 . S
H32 C3 0.931 . S
H33 C4 0.931 . S
H34 C6 0.931 . S
H35 C7 0.931 . S
H36 C13 0.931 . S
H37 C14 0.931 . S
H38 C16 0.931 . S
H39 C17 0.931 . S
C40 Eu41 2.837 . S
C40 C42 1.498 1_554 S
C40 O60 1.246 1_554 S
C40 O61 1.274 . S
Eu41 C40 2.837 . S
Eu41 O60 2.473 1_554 S
Eu41 O61 2.480 . S
Eu41 O62 2.430 1_455 S
Eu41 O63 2.670 1_455 S
Eu41 O64 2.394 . S
Eu41 O69 2.355 1_454 S
Eu41 O71 2.372 1_454 S
C42 C40 1.498 1_556 S
C42 C43 1.377 1_556 S
C42 C47 1.377 . S
C43 C42 1.377 1_554 S
C43 C44 1.395 . S
C43 H72 0.931 . S
C44 C43 1.395 . S
C44 C45 1.383 1_554 S
C44 H73 0.931 . S
C45 C44 1.383 1_556 S
C45 C46 1.394 . S
C46 C45 1.394 . S
C46 C47 1.378 . S
C46 H74 0.931 . S
C47 C42 1.377 . S
C47 C46 1.378 . S
C47 H75 0.931 . S
C48 O62 1.259 . S
C48 O63 1.270 . S
C49 O64 1.251 1_655 S
C49 O65 1.251 . S
C50 Eu51 2.835 1_554 S
C50 C52 1.500 . S
C50 O66 1.257 . S
C50 O67 1.260 1_554 S
Eu51 C50 2.835 1_556 S
Eu51 O63 2.355 1_556 S
Eu51 O65 2.374 1_556 S
Eu51 O66 2.473 1_556 S
Eu51 O67 2.480 . S
Eu51 O68 2.430 . S
Eu51 O69 2.670 . S
Eu51 O70 2.394 . S
C52 C50 1.500 . S
C52 C53 1.377 1_554 S
C52 C57 1.377 . S
C53 C52 1.377 1_556 S
C53 C54 1.395 . S
C53 H76 0.931 . S
C54 C53 1.395 . S
C54 C55 1.383 1_556 S
C54 H77 0.931 . S
C55 C54 1.383 1_554 S
C55 C56 1.394 . S
C56 C55 1.394 . S
C56 C57 1.378 . S
C56 H78 0.931 . S
C57 C52 1.377 . S
C57 C56 1.378 . S
C57 H79 0.931 . S
C58 O68 1.259 . S
C58 O69 1.270 . S
C59 O70 1.251 . S
C59 O71 1.255 . S
O60 C40 1.246 1_556 S
O60 Eu41 2.473 1_556 S
O61 C40 1.274 . S
O61 Eu41 2.480 . S
O62 Eu41 2.430 1_655 S
O62 C48 1.259 . S
O63 Eu41 2.670 1_655 S
O63 C48 1.270 . S
O63 Eu51 2.355 1_554 S
O64 Eu41 2.394 . S
O64 C49 1.251 1_455 S
O65 C49 1.251 . S
O65 Eu51 2.374 1_554 S
O66 C50 1.257 . S
O66 Eu51 2.473 1_554 S
O67 C50 1.260 1_556 S
O67 Eu51 2.480 . S
O68 Eu51 2.430 . S
O68 C58 1.259 . S
O69 Eu41 2.355 1_656 S
O69 Eu51 2.670 . S
O69 C58 1.270 . S
O70 Eu51 2.394 . S
O70 C59 1.251 . S
O71 Eu41 2.372 1_656 S
O71 C59 1.255 . S
H72 C43 0.931 . S
H73 C44 0.931 . S
H74 C46 0.931 . S
H75 C47 0.931 . S
H76 C53 0.931 . S
H77 C54 0.931 . S
H78 C56 0.931 . S
H79 C57 0.931 . S
C80 Eu81 2.835 . S
C80 C82 1.500 1_455 S
C80 O100 1.257 . S
C80 O101 1.260 . S
Eu81 C80 2.835 . S
Eu81 O100 2.473 . S
Eu81 O101 2.480 . S
Eu81 O102 2.430 . S
Eu81 O103 2.670 . S
Eu81 O104 2.394 1_455 S
Eu81 O109 2.355 . S
Eu81 O111 2.374 . S
C82 C80 1.500 1_655 S
C82 C83 1.377 . S
C82 C87 1.377 . S
C83 C82 1.377 . S
C83 C84 1.395 . S
C83 H112 0.931 . S
C84 C83 1.395 . S
C84 C85 1.383 . S
C84 H113 0.931 . S
C85 C84 1.383 . S
C85 C86 1.394 . S
C86 C85 1.394 . S
C86 C87 1.378 . S
C86 H114 0.931 . S
C87 C82 1.377 . S
C87 C86 1.378 . S
C87 H115 0.931 . S
C88 O102 1.259 . S
C88 O103 1.270 . S
C89 O104 1.251 . S
C89 O105 1.251 . S
C90 Eu91 2.835 . S
C90 C92 1.500 . S
C90 O106 1.257 . S
C90 O107 1.260 . S
Eu91 C90 2.835 . S
Eu91 O103 2.355 . S
Eu91 O105 2.374 1_455 S
Eu91 O106 2.473 . S
Eu91 O107 2.480 . S
Eu91 O108 2.430 . S
Eu91 O109 2.670 . S
Eu91 O110 2.394 . S
C92 C90 1.500 . S
C92 C93 1.377 . S
C92 C97 1.377 . S
C93 C92 1.377 . S
C93 C94 1.395 . S
C93 H116 0.931 . S
C94 C93 1.395 . S
C94 C95 1.383 . S
C94 H117 0.931 . S
C95 C94 1.383 . S
C95 C96 1.394 . S
C96 C95 1.394 . S
C96 C97 1.378 . S
C96 H118 0.931 . S
C97 C92 1.377 . S
C97 C96 1.378 . S
C97 H119 0.931 . S
C98 O108 1.259 . S
C98 O109 1.270 . S
C99 O110 1.251 . S
C99 O111 1.251 . S
O100 C80 1.257 . S
O100 Eu81 2.473 . S
O101 C80 1.260 . S
O101 Eu81 2.480 . S
O102 Eu81 2.430 . S
O102 C88 1.259 . S
O103 Eu81 2.670 . S
O103 C88 1.270 . S
O103 Eu91 2.355 . S
O104 Eu81 2.394 1_655 S
O104 C89 1.251 . S
O105 C89 1.251 . S
O105 Eu91 2.374 1_655 S
O106 C90 1.257 . S
O106 Eu91 2.473 . S
O107 C90 1.260 . S
O107 Eu91 2.480 . S
O108 Eu91 2.430 . S
O108 C98 1.259 . S
O109 Eu81 2.355 . S
O109 Eu91 2.670 . S
O109 C98 1.270 . S
O110 Eu91 2.394 . S
O110 C99 1.251 . S
O111 Eu81 2.374 . S
O111 C99 1.251 . S
H112 C83 0.931 . S
H113 C84 0.931 . S
H114 C86 0.931 . S
H115 C87 0.931 . S
H116 C93 0.931 . S
H117 C94 0.931 . S
H118 C96 0.931 . S
H119 C97 0.931 . S
C120 Eu121 2.835 . S
C120 C122 1.500 . S
C120 O140 1.257 . S
C120 O141 1.260 . S
Eu121 C120 2.835 . S
Eu121 O140 2.473 . S
Eu121 O141 2.480 . S
Eu121 O142 2.430 . S
Eu121 O143 2.670 . S
Eu121 O144 2.394 . S
Eu121 O149 2.355 . S
Eu121 O151 2.374 1_655 S
C122 C120 1.500 . S
C122 C123 1.377 . S
C122 C127 1.377 . S
C123 C122 1.377 . S
C123 C124 1.395 . S
C123 H152 0.931 . S
C124 C123 1.395 . S
C124 C125 1.383 . S
C124 H153 0.931 . S
C125 C124 1.383 . S
C125 C126 1.394 . S
C126 C125 1.394 . S
C126 C127 1.378 . S
C126 H154 0.931 . S
C127 C122 1.377 . S
C127 C126 1.378 . S
C127 H155 0.931 . S
C128 O142 1.259 . S
C128 O143 1.270 . S
C129 O144 1.251 . S
C129 O145 1.251 . S
C130 Eu131 2.835 . S
C130 C132 1.500 1_655 S
C130 O146 1.257 . S
C130 O147 1.260 . S
Eu131 C130 2.835 . S
Eu131 O143 2.355 . S
Eu131 O145 2.374 . S
Eu131 O146 2.473 . S
Eu131 O147 2.480 . S
Eu131 O148 2.430 . S
Eu131 O149 2.670 . S
Eu131 O150 2.394 1_655 S
C132 C130 1.500 1_455 S
C132 C133 1.377 . S
C132 C137 1.377 . S
C133 C132 1.377 . S
C133 C134 1.395 . S
C133 H156 0.931 . S
C134 C133 1.395 . S
C134 C135 1.383 . S
C134 H157 0.931 . S
C135 C134 1.383 . S
C135 C136 1.394 . S
C136 C135 1.394 . S
C136 C137 1.378 . S
C136 H158 0.931 . S
C137 C132 1.377 . S
C137 C136 1.378 . S
C137 H159 0.931 . S
C138 O148 1.259 . S
C138 O149 1.270 . S
C139 O150 1.251 . S
C139 O151 1.251 . S
O140 C120 1.257 . S
O140 Eu121 2.473 . S
O141 C120 1.260 . S
O141 Eu121 2.480 . S
O142 Eu121 2.430 . S
O142 C128 1.259 . S
O143 Eu121 2.670 . S
O143 C128 1.270 . S
O143 Eu131 2.355 . S
O144 Eu121 2.394 . S
O144 C129 1.251 . S
O145 C129 1.251 . S
O145 Eu131 2.374 . S
O146 C130 1.257 . S
O146 Eu131 2.473 . S
O147 C130 1.260 . S
O147 Eu131 2.480 . S
O148 Eu131 2.430 . S
O148 C138 1.259 . S
O149 Eu121 2.355 . S
O149 Eu131 2.670 . S
O149 C138 1.270 . S
O150 Eu131 2.394 1_455 S
O150 C139 1.251 . S
O151 Eu121 2.374 1_455 S
O151 C139 1.251 . S
H152 C123 0.931 . S
H153 C124 0.931 . S
H154 C126 0.931 . S
H155 C127 0.931 . S
H156 C133 0.931 . S
H157 C134 0.931 . S
H158 C136 0.931 . S
H159 C137 0.931 . S
C160 Eu161 2.835 . S
C160 C162 1.500 1_554 S
C160 O180 1.257 1_554 S
C160 O181 1.260 . S
Eu161 C160 2.835 . S
Eu161 O180 2.473 1_554 S
Eu161 O181 2.480 . S
Eu161 O182 2.430 . S
Eu161 O183 2.670 . S
Eu161 O184 2.394 . S
Eu161 O189 2.355 1_554 S
Eu161 O191 2.374 . S
C162 C160 1.500 1_556 S
C162 C163 1.377 1_556 S
C162 C167 1.377 . S
C163 C162 1.377 1_554 S
C163 C164 1.395 . S
C163 H192 0.931 . S
C164 C163 1.395 . S
C164 C165 1.383 1_554 S
C164 H193 0.931 . S
C165 C164 1.383 1_556 S
C165 C166 1.394 . S
C166 C165 1.394 . S
C166 C167 1.378 . S
C166 H194 0.931 . S
C167 C162 1.377 . S
C167 C166 1.378 . S
C167 H195 0.931 . S
C168 O182 1.259 . S
C168 O183 1.270 . S
C169 O184 1.251 . S
C169 O185 1.256 . S
C170 Eu171 2.835 1_554 S
C170 C172 1.500 . S
C170 O186 1.257 . S
C170 O187 1.260 1_554 S
Eu171 C170 2.835 1_556 S
Eu171 O183 2.355 1_556 S
Eu171 O185 2.371 1_556 S
Eu171 O186 2.473 1_556 S
Eu171 O187 2.480 . S
Eu171 O188 2.430 . S
Eu171 O189 2.670 . S
Eu171 O190 2.394 . S
C172 C170 1.500 . S
C172 C173 1.377 1_554 S
C172 C177 1.377 . S
C173 C172 1.377 1_556 S
C173 C174 1.395 . S
C173 H196 0.931 . S
C174 C173 1.395 . S
C174 C175 1.383 1_556 S
C174 H197 0.931 . S
C175 C174 1.383 1_554 S
C175 C176 1.394 . S
C176 C175 1.394 . S
C176 C177 1.378 . S
C176 H198 0.931 . S
C177 C172 1.377 . S
C177 C176 1.378 . S
C177 H199 0.931 . S
C178 O188 1.259 . S
C178 O189 1.270 . S
C179 O190 1.247 1_554 S
C179 O191 1.254 . S
O180 C160 1.257 1_556 S
O180 Eu161 2.473 1_556 S
O181 C160 1.260 . S
O181 Eu161 2.480 . S
O182 Eu161 2.430 . S
O182 C168 1.259 . S
O183 Eu161 2.670 . S
O183 C168 1.270 . S
O183 Eu171 2.355 1_554 S
O184 Eu161 2.394 . S
O184 C169 1.251 . S
O185 C169 1.256 . S
O185 Eu171 2.371 1_554 S
O186 C170 1.257 . S
O186 Eu171 2.473 1_554 S
O187 C170 1.260 1_556 S
O187 Eu171 2.480 . S
O188 Eu171 2.430 . S
O188 C178 1.259 . S
O189 Eu161 2.355 1_556 S
O189 Eu171 2.670 . S
O189 C178 1.270 . S
O190 Eu171 2.394 . S
O190 C179 1.247 1_556 S
O191 Eu161 2.374 . S
O191 C179 1.254 . S
H192 C163 0.931 . S
H193 C164 0.931 . S
H194 C166 0.931 . S
H195 C167 0.931 . S
H196 C173 0.931 . S
H197 C174 0.931 . S
H198 C176 0.931 . S
H199 C177 0.931 . S
C200 Eu201 2.837 . S
C200 C202 1.498 1_554 S
C200 O220 1.246 1_554 S
C200 O221 1.274 . S
Eu201 C200 2.837 . S
Eu201 O220 2.473 1_554 S
Eu201 O221 2.480 . S
Eu201 O222 2.430 . S
Eu201 O223 2.670 . S
Eu201 O224 2.394 . S
Eu201 O229 2.355 1_554 S
Eu201 O231 2.372 1_554 S
C202 C200 1.498 1_556 S
C202 C203 1.377 1_556 S
C202 C207 1.377 . S
C203 C202 1.377 1_554 S
C203 C204 1.395 . S
C203 H232 0.931 . S
C204 C203 1.395 . S
C204 C205 1.383 1_554 S
C204 H233 0.931 . S
C205 C204 1.383 1_556 S
C205 C206 1.394 . S
C206 C205 1.394 . S
C206 C207 1.378 . S
C206 H234 0.931 . S
C207 C202 1.377 . S
C207 C206 1.378 . S
C207 H235 0.931 . S
C208 O222 1.259 . S
C208 O223 1.270 . S
C209 O224 1.251 . S
C209 O225 1.251 . S
C210 Eu211 2.835 1_554 S
C210 C212 1.500 . S
C210 O226 1.257 . S
C210 O227 1.260 1_554 S
Eu211 C210 2.835 1_556 S
Eu211 O223 2.355 1_556 S
Eu211 O225 2.374 1_556 S
Eu211 O226 2.473 1_556 S
Eu211 O227 2.480 . S
Eu211 O228 2.430 . S
Eu211 O229 2.670 . S
Eu211 O230 2.394 . S
C212 C210 1.500 . S
C212 C213 1.377 1_554 S
C212 C217 1.377 . S
C213 C212 1.377 1_556 S
C213 C214 1.395 . S
C213 H236 0.931 . S
C214 C213 1.395 . S
C214 C215 1.383 1_556 S
C214 H237 0.931 . S
C215 C214 1.383 1_554 S
C215 C216 1.394 . S
C216 C215 1.394 . S
C216 C217 1.378 . S
C216 H238 0.931 . S
C217 C212 1.377 . S
C217 C216 1.378 . S
C217 H239 0.931 . S
C218 O228 1.259 . S
C218 O229 1.270 . S
C219 O230 1.251 . S
C219 O231 1.255 . S
O220 C200 1.246 1_556 S
O220 Eu201 2.473 1_556 S
O221 C200 1.274 . S
O221 Eu201 2.480 . S
O222 Eu201 2.430 . S
O222 C208 1.259 . S
O223 Eu201 2.670 . S
O223 C208 1.270 . S
O223 Eu211 2.355 1_554 S
O224 Eu201 2.394 . S
O224 C209 1.251 . S
O225 C209 1.251 . S
O225 Eu211 2.374 1_554 S
O226 C210 1.257 . S
O226 Eu211 2.473 1_554 S
O227 C210 1.260 1_556 S
O227 Eu211 2.480 . S
O228 Eu211 2.430 . S
O228 C218 1.259 . S
O229 Eu201 2.355 1_556 S
O229 Eu211 2.670 . S
O229 C218 1.270 . S
O230 Eu211 2.394 . S
O230 C219 1.251 . S
O231 Eu201 2.372 1_556 S
O231 C219 1.255 . S
H232 C203 0.931 . S
H233 C204 0.931 . S
H234 C206 0.931 . S
H235 C207 0.931 . S
H236 C213 0.931 . S
H237 C214 0.931 . S
H238 C216 0.931 . S
H239 C217 0.931 . S
C240 Eu241 2.835 . S
C240 C242 1.500 . S
C240 O260 1.257 . S
C240 O261 1.260 . S
Eu241 C240 2.835 . S
Eu241 O260 2.473 . S
Eu241 O261 2.480 . S
Eu241 O262 2.430 . S
Eu241 O263 2.670 . S
Eu241 O264 2.394 . S
Eu241 O269 2.355 . S
Eu241 O271 2.374 . S
C242 C240 1.500 . S
C242 C243 1.377 . S
C242 C247 1.377 . S
C243 C242 1.377 . S
C243 C244 1.395 . S
C243 H272 0.931 . S
C244 C243 1.395 . S
C244 C245 1.383 . S
C244 H273 0.931 . S
C245 C244 1.383 . S
C245 C246 1.394 . S
C246 C245 1.394 . S
C246 C247 1.378 . S
C246 H274 0.931 . S
C247 C242 1.377 . S
C247 C246 1.378 . S
C247 H275 0.931 . S
C248 O262 1.259 . S
C248 O263 1.270 . S
C249 O264 1.251 . S
C249 O265 1.251 . S
C250 Eu251 2.835 . S
C250 C252 1.500 . S
C250 O266 1.257 . S
C250 O267 1.260 . S
Eu251 C250 2.835 . S
Eu251 O263 2.355 . S
Eu251 O265 2.374 . S
Eu251 O266 2.473 . S
Eu251 O267 2.480 . S
Eu251 O268 2.430 . S
Eu251 O269 2.670 . S
Eu251 O270 2.394 . S
C252 C250 1.500 . S
C252 C253 1.377 . S
C252 C257 1.377 . S
C253 C252 1.377 . S
C253 C254 1.395 . S
C253 H276 0.931 . S
C254 C253 1.395 . S
C254 C255 1.383 . S
C254 H277 0.931 . S
C255 C254 1.383 . S
C255 C256 1.394 . S
C256 C255 1.394 . S
C256 C257 1.378 . S
C256 H278 0.931 . S
C257 C252 1.377 . S
C257 C256 1.378 . S
C257 H279 0.931 . S
C258 O268 1.259 . S
C258 O269 1.270 . S
C259 O270 1.251 . S
C259 O271 1.251 . S
O260 C240 1.257 . S
O260 Eu241 2.473 . S
O261 C240 1.260 . S
O261 Eu241 2.480 . S
O262 Eu241 2.430 . S
O262 C248 1.259 . S
O263 Eu241 2.670 . S
O263 C248 1.270 . S
O263 Eu251 2.355 . S
O264 Eu241 2.394 . S
O264 C249 1.251 . S
O265 C249 1.251 . S
O265 Eu251 2.374 . S
O266 C250 1.257 . S
O266 Eu251 2.473 . S
O267 C250 1.260 . S
O267 Eu251 2.480 . S
O268 Eu251 2.430 . S
O268 C258 1.259 . S
O269 Eu241 2.355 . S
O269 Eu251 2.670 . S
O269 C258 1.270 . S
O270 Eu251 2.394 . S
O270 C259 1.251 . S
O271 Eu241 2.374 . S
O271 C259 1.251 . S
H272 C243 0.931 . S
H273 C244 0.931 . S
H274 C246 0.931 . S
H275 C247 0.931 . S
H276 C253 0.931 . S
H277 C254 0.931 . S
H278 C256 0.931 . S
H279 C257 0.931 . S
C280 Eu281 2.835 . S
C280 C282 1.500 . S
C280 O300 1.257 . S
C280 O301 1.260 . S
Eu281 C280 2.835 . S
Eu281 O300 2.473 . S
Eu281 O301 2.480 . S
Eu281 O302 2.430 . S
Eu281 O303 2.670 . S
Eu281 O304 2.394 . S
Eu281 O309 2.355 . S
Eu281 O311 2.374 . S
C282 C280 1.500 . S
C282 C283 1.377 . S
C282 C287 1.377 . S
C283 C282 1.377 . S
C283 C284 1.395 . S
C283 H312 0.931 . S
C284 C283 1.395 . S
C284 C285 1.383 . S
C284 H313 0.931 . S
C285 C284 1.383 . S
C285 C286 1.394 . S
C286 C285 1.394 . S
C286 C287 1.378 . S
C286 H314 0.931 . S
C287 C282 1.377 . S
C287 C286 1.378 . S
C287 H315 0.931 . S
C288 O302 1.259 . S
C288 O303 1.270 . S
C289 O304 1.251 . S
C289 O305 1.251 . S
C290 Eu291 2.835 . S
C290 C292 1.500 . S
C290 O306 1.257 . S
C290 O307 1.260 . S
Eu291 C290 2.835 . S
Eu291 O303 2.355 . S
Eu291 O305 2.374 . S
Eu291 O306 2.473 . S
Eu291 O307 2.480 . S
Eu291 O308 2.430 . S
Eu291 O309 2.670 . S
Eu291 O310 2.394 . S
C292 C290 1.500 . S
C292 C293 1.377 . S
C292 C297 1.377 . S
C293 C292 1.377 . S
C293 C294 1.395 . S
C293 H316 0.931 . S
C294 C293 1.395 . S
C294 C295 1.383 . S
C294 H317 0.931 . S
C295 C294 1.383 . S
C295 C296 1.394 . S
C296 C295 1.394 . S
C296 C297 1.378 . S
C296 H318 0.931 . S
C297 C292 1.377 . S
C297 C296 1.378 . S
C297 H319 0.931 . S
C298 O308 1.259 . S
C298 O309 1.270 . S
C299 O310 1.251 . S
C299 O311 1.251 . S
O300 C280 1.257 . S
O300 Eu281 2.473 . S
O301 C280 1.260 . S
O301 Eu281 2.480 . S
O302 Eu281 2.430 . S
O302 C288 1.259 . S
O303 Eu281 2.670 . S
O303 C288 1.270 . S
O303 Eu291 2.355 . S
O304 Eu281 2.394 . S
O304 C289 1.251 . S
O305 C289 1.251 . S
O305 Eu291 2.374 . S
O306 C290 1.257 . S
O306 Eu291 2.473 . S
O307 C290 1.260 . S
O307 Eu291 2.480 . S
O308 Eu291 2.430 . S
O308 C298 1.259 . S
O309 Eu281 2.355 . S
O309 Eu291 2.670 . S
O309 C298 1.270 . S
O310 Eu291 2.394 . S
O310 C299 1.251 . S
O311 Eu281 2.374 . S
O311 C299 1.251 . S
H312 C283 0.931 . S
H313 C284 0.931 . S
H314 C286 0.931 . S
H315 C287 0.931 . S
H316 C293 0.931 . S
H317 C294 0.931 . S
H318 C296 0.931 . S
H319 C297 0.931 . S
H320 C328 0.950 . S
H321 C333 0.950 . S
H322 C330 0.950 . S
H323 C332 0.950 . S
H324 C334 0.950 . S
H325 C336 0.950 . S
H326 C338 0.950 . S
H327 C339 0.950 . S
C328 H320 0.950 . S
C328 C329 1.386 1_556 S
C328 C330 1.391 . S
C329 C328 1.386 1_554 S
C329 C333 1.393 . S
C330 H322 0.950 . S
C330 C328 1.391 . S
C330 C331 1.400 1_556 S
C331 C330 1.400 1_554 S
C331 C332 1.398 . S
C331 C337 1.490 1_554 S
C332 H323 0.950 . S
C332 C331 1.398 . S
C332 C333 1.391 . S
C333 H321 0.950 . S
C333 C329 1.393 . S
C333 C332 1.391 . S
C334 H324 0.950 . S
C334 C335 1.386 1_554 S
C334 C336 1.391 . S
C335 C334 1.386 1_556 S
C335 C339 1.393 . S
C336 H325 0.950 . S
C336 C334 1.391 . S
C336 C337 1.396 1_554 S
C337 C331 1.490 1_556 S
C337 C336 1.396 1_556 S
C337 C338 1.403 . S
C338 H326 0.950 . S
C338 C337 1.403 . S
C338 C339 1.391 . S
C339 H327 0.950 . S
C339 C335 1.393 . S
C339 C338 1.391 . S
H340 C348 0.950 . S
H341 C353 0.950 . S
H342 C350 0.950 . S
H343 C352 0.950 . S
H344 C354 0.950 . S
H345 C356 0.950 . S
H346 C358 0.950 . S
H347 C359 0.950 . S
C348 H340 0.950 . S
C348 C349 1.386 1_554 S
C348 C350 1.391 . S
C349 C348 1.386 1_556 S
C349 C353 1.393 . S
C350 H342 0.950 . S
C350 C348 1.391 . S
C350 C351 1.400 1_554 S
C351 C350 1.400 1_556 S
C351 C352 1.398 . S
C351 C357 1.491 1_556 S
C352 H343 0.950 . S
C352 C351 1.398 . S
C352 C353 1.391 . S
C353 H341 0.950 . S
C353 C349 1.393 . S
C353 C352 1.391 . S
C354 H344 0.950 . S
C354 C355 1.386 1_556 S
C354 C356 1.391 . S
C355 C354 1.386 1_554 S
C355 C359 1.393 . S
C356 H345 0.950 . S
C356 C354 1.391 . S
C356 C357 1.400 1_556 S
C357 C351 1.491 1_554 S
C357 C356 1.400 1_554 S
C357 C358 1.398 . S
C358 H346 0.950 . S
C358 C357 1.398 . S
C358 C359 1.391 . S
C359 H347 0.950 . S
C359 C355 1.393 . S
C359 C358 1.391 . S
H360 C368 0.950 . S
H361 C373 0.950 . S
H362 C370 0.950 . S
H363 C372 0.950 . S
H364 C374 0.950 . S
H365 C376 0.950 . S
H366 C378 0.950 . S
H367 C379 0.950 . S
C368 H360 0.950 . S
C368 C369 1.386 . S
C368 C370 1.391 . S
C369 C368 1.386 . S
C369 C373 1.393 . S
C370 H362 0.950 . S
C370 C368 1.391 . S
C370 C371 1.400 . S
C371 C370 1.400 . S
C371 C372 1.398 . S
C371 C377 1.491 . S
C372 H363 0.950 . S
C372 C371 1.398 . S
C372 C373 1.391 . S
C373 H361 0.950 . S
C373 C369 1.393 . S
C373 C372 1.391 . S
C374 H364 0.950 . S
C374 C375 1.386 . S
C374 C376 1.391 . S
C375 C374 1.386 . S
C375 C379 1.393 . S
C376 H365 0.950 . S
C376 C374 1.391 . S
C376 C377 1.400 . S
C377 C371 1.491 . S
C377 C376 1.400 . S
C377 C378 1.398 . S
C378 H366 0.950 . S
C378 C377 1.398 . S
C378 C379 1.391 . S
C379 H367 0.950 . S
C379 C375 1.393 . S
C379 C378 1.391 . S
H380 C388 0.950 . S
H381 C393 0.950 . S
H382 C390 0.950 . S
H383 C392 0.950 . S
H384 C394 0.950 . S
H385 C396 0.950 . S
H386 C398 0.950 . S
H387 C399 0.950 . S
C388 H380 0.950 . S
C388 C389 1.386 . S
C388 C390 1.391 . S
C389 C388 1.386 . S
C389 C393 1.393 . S
C390 H382 0.950 . S
C390 C388 1.391 . S
C390 C391 1.400 . S
C391 C390 1.400 . S
C391 C392 1.398 . S
C391 C397 1.491 . S
C392 H383 0.950 . S
C392 C391 1.398 . S
C392 C393 1.391 . S
C393 H381 0.950 . S
C393 C389 1.393 . S
C393 C392 1.391 . S
C394 H384 0.950 . S
C394 C395 1.386 . S
C394 C396 1.391 . S
C395 C394 1.386 . S
C395 C399 1.393 . S
C396 H385 0.950 . S
C396 C394 1.391 . S
C396 C397 1.400 . S
C397 C391 1.491 . S
C397 C396 1.400 . S
C397 C398 1.398 . S
C398 H386 0.950 . S
C398 C397 1.398 . S
C398 C399 1.391 . S
C399 H387 0.950 . S
C399 C395 1.393 . S
C399 C398 1.391 . S
H400 C408 0.950 . S
H401 C413 0.950 . S
H402 C410 0.950 . S
H403 C412 0.950 . S
H404 C414 0.950 . S
H405 C416 0.950 . S
H406 C418 0.950 . S
H407 C419 0.950 . S
C408 H400 0.950 . S
C408 C409 1.386 . S
C408 C410 1.391 1_655 S
C409 C408 1.386 . S
C409 C413 1.393 1_654 S
C410 H402 0.950 . S
C410 C408 1.391 1_455 S
C410 C411 1.400 . S
C411 C410 1.400 . S
C411 C412 1.398 1_554 S
C411 C417 1.487 1_554 S
C412 H403 0.950 . S
C412 C411 1.398 1_556 S
C412 C413 1.391 . S
C413 H401 0.950 . S
C413 C409 1.393 1_456 S
C413 C412 1.391 . S
C414 H404 0.950 . S
C414 C415 1.386 . S
C414 C416 1.391 . S
C415 C414 1.386 . S
C415 C419 1.393 1_556 S
C416 H405 0.950 . S
C416 C414 1.391 . S
C416 C417 1.418 . S
C417 C411 1.487 1_556 S
C417 C416 1.418 . S
C417 C418 1.384 1_556 S
C418 H406 0.950 . S
C418 C417 1.384 1_554 S
C418 C419 1.391 . S
C419 H407 0.950 . S
C419 C415 1.393 1_554 S
C419 C418 1.391 . S
H420 C428 0.950 . S
H421 C433 0.950 . S
H422 C430 0.950 . S
H423 C432 0.950 . S
H424 C434 0.950 . S
H425 C436 0.950 . S
H426 C438 0.950 . S
H427 C439 0.950 . S
C428 H420 0.950 . S
C428 C429 1.386 1_656 S
C428 C430 1.391 . S
C429 C428 1.386 1_454 S
C429 C433 1.393 . S
C430 H422 0.950 . S
C430 C428 1.391 . S
C430 C431 1.400 1_556 S
C431 C430 1.400 1_554 S
C431 C432 1.398 . S
C431 C437 1.491 1_554 S
C432 H423 0.950 . S
C432 C431 1.398 . S
C432 C433 1.391 1_655 S
C433 H421 0.950 . S
C433 C429 1.393 . S
C433 C432 1.391 1_455 S
C434 H424 0.950 . S
C434 C435 1.386 1_554 S
C434 C436 1.391 . S
C435 C434 1.386 1_556 S
C435 C439 1.393 . S
C436 H425 0.950 . S
C436 C434 1.391 . S
C436 C437 1.400 1_554 S
C437 C431 1.491 1_556 S
C437 C436 1.400 1_556 S
C437 C438 1.398 . S
C438 H426 0.950 . S
C438 C437 1.398 . S
C438 C439 1.391 . S
C439 H427 0.950 . S
C439 C435 1.393 . S
C439 C438 1.391 . S
H440 C448 0.950 . S
H441 C453 0.950 . S
H442 C450 0.950 . S
H443 C452 0.950 . S
H444 C454 0.950 . S
H445 C456 0.950 . S
H446 C458 0.950 1_455 S
H447 C459 0.950 . S
C448 H440 0.950 . S
C448 C449 1.386 . S
C448 C450 1.391 . S
C449 C448 1.386 . S
C449 C453 1.393 . S
C450 H442 0.950 . S
C450 C448 1.391 . S
C450 C451 1.400 . S
C451 C450 1.400 . S
C451 C452 1.398 . S
C451 C457 1.491 . S
C452 H443 0.950 . S
C452 C451 1.398 . S
C452 C453 1.391 . S
C453 H441 0.950 . S
C453 C449 1.393 . S
C453 C452 1.391 . S
C454 H444 0.950 . S
C454 C455 1.386 . S
C454 C456 1.391 . S
C455 C454 1.386 . S
C455 C459 1.393 . S
C456 H445 0.950 . S
C456 C454 1.391 . S
C456 C457 1.400 1_655 S
C457 C451 1.491 . S
C457 C456 1.400 1_455 S
C457 C458 1.398 1_455 S
C458 H446 0.950 1_655 S
C458 C457 1.398 1_655 S
C458 C459 1.391 . S
C459 H447 0.950 . S
C459 C455 1.393 . S
C459 C458 1.391 . S
H460 C468 0.950 . S
H461 C473 0.950 . S
H462 C470 0.950 . S
H463 C472 0.950 . S
H464 C474 0.950 . S
H465 C476 0.950 1_655 S
H466 C478 0.950 . S
H467 C479 0.950 . S
C468 H460 0.950 . S
C468 C469 1.386 . S
C468 C470 1.391 . S
C469 C468 1.386 . S
C469 C473 1.393 . S
C470 H462 0.950 . S
C470 C468 1.391 . S
C470 C471 1.400 . S
C471 C470 1.400 . S
C471 C472 1.398 . S
C471 C477 1.491 . S
C472 H463 0.950 . S
C472 C471 1.398 . S
C472 C473 1.391 . S
C473 H461 0.950 . S
C473 C469 1.393 . S
C473 C472 1.391 . S
C474 H464 0.950 . S
C474 C475 1.386 . S
C474 C476 1.391 . S
C475 C474 1.386 . S
C475 C479 1.393 . S
C476 H465 0.950 1_455 S
C476 C474 1.391 . S
C476 C477 1.400 1_455 S
C477 C471 1.491 . S
C477 C476 1.400 1_655 S
C477 C478 1.398 1_655 S
C478 H466 0.950 . S
C478 C477 1.398 1_455 S
C478 C479 1.391 . S
C479 H467 0.950 . S
C479 C475 1.393 . S
C479 C478 1.391 . S
H480 C488 0.950 . S
H481 C493 0.950 . S
H482 C490 0.950 . S
H483 C492 0.950 . S
H484 C494 0.950 . S
H485 C496 0.950 . S
H486 C498 0.950 . S
H487 C499 0.950 . S
C488 H480 0.950 . S
C488 C489 1.389 . S
C488 C490 1.391 . S
C489 C488 1.389 . S
C489 C493 1.389 1_454 S
C490 H482 0.950 . S
C490 C488 1.391 . S
C490 C491 1.393 1_455 S
C491 C490 1.393 1_655 S
C491 C492 1.404 1_554 S
C491 C497 1.492 1_655 S
C492 H483 0.950 . S
C492 C491 1.404 1_556 S
C492 C493 1.391 . S
C493 H481 0.950 . S
C493 C489 1.389 1_656 S
C493 C492 1.391 . S
C494 H484 0.950 . S
C494 C495 1.394 1_556 S
C494 C496 1.391 . S
C495 C494 1.394 1_554 S
C495 C499 1.382 1_655 S
C496 H485 0.950 . S
C496 C494 1.391 . S
C496 C497 1.400 1_656 S
C497 C491 1.492 1_455 S
C497 C496 1.400 1_454 S
C497 C498 1.399 . S
C498 H486 0.950 . S
C498 C497 1.399 . S
C498 C499 1.391 . S
C499 H487 0.950 . S
C499 C495 1.382 1_455 S
C499 C498 1.391 . S
H500 C508 0.950 . S
H501 C513 0.950 . S
H502 C510 0.950 1_655 S
H503 C512 0.950 . S
H504 C514 0.950 . S
H505 C516 0.950 1_455 S
H506 C518 0.950 . S
H507 C519 0.950 . S
C508 H500 0.950 . S
C508 C509 1.386 . S
C508 C510 1.391 . S
C509 C508 1.386 . S
C509 C513 1.393 . S
C510 H502 0.950 1_455 S
C510 C508 1.391 . S
C510 C511 1.400 . S
C511 C510 1.400 . S
C511 C512 1.398 . S
C511 C517 1.491 1_455 S
C512 H503 0.950 . S
C512 C511 1.398 . S
C512 C513 1.391 . S
C513 H501 0.950 . S
C513 C509 1.393 . S
C513 C512 1.391 . S
C514 H504 0.950 . S
C514 C515 1.386 . S
C514 C516 1.391 . S
C515 C514 1.386 . S
C515 C519 1.393 . S
C516 H505 0.950 1_655 S
C516 C514 1.391 . S
C516 C517 1.400 . S
C517 C511 1.491 1_655 S
C517 C516 1.400 . S
C517 C518 1.398 . S
C518 H506 0.950 . S
C518 C517 1.398 . S
C518 C519 1.391 . S
C519 H507 0.950 . S
C519 C515 1.393 . S
C519 C518 1.391 . S
H520 C528 0.950 . S
H521 C533 0.950 . S
H522 C530 0.950 . S
H523 C532 0.950 . S
H524 C534 0.950 . S
H525 C536 0.950 . S
H526 C538 0.950 . S
H527 C539 0.950 . S
C528 H520 0.950 . S
C528 C529 1.386 . S
C528 C530 1.391 . S
C529 C528 1.386 . S
C529 C533 1.393 . S
C530 H522 0.950 . S
C530 C528 1.391 . S
C530 C531 1.400 . S
C531 C530 1.400 . S
C531 C532 1.398 . S
C531 C537 1.491 1_565 S
C532 H523 0.950 . S
C532 C531 1.398 . S
C532 C533 1.391 . S
C533 H521 0.950 . S
C533 C529 1.393 . S
C533 C532 1.391 . S
C534 H524 0.950 . S
C534 C535 1.386 . S
C534 C536 1.391 . S
C535 C534 1.386 . S
C535 C539 1.393 . S
C536 H525 0.950 . S
C536 C534 1.391 . S
C536 C537 1.400 . S
C537 C531 1.491 1_545 S
C537 C536 1.400 . S
C537 C538 1.398 . S
C538 H526 0.950 . S
C538 C537 1.398 . S
C538 C539 1.391 . S
C539 H527 0.950 . S
C539 C535 1.393 . S
C539 C538 1.391 . S
H540 C548 0.950 . S
H541 C553 0.950 . S
H542 C550 0.950 . S
H543 C552 0.950 . S
H544 C554 0.950 . S
H545 C556 0.950 . S
H546 C558 0.950 . S
H547 C559 0.950 . S
C548 H540 0.950 . S
C548 C549 1.386 . S
C548 C550 1.391 . S
C549 C548 1.386 . S
C549 C553 1.393 . S
C550 H542 0.950 . S
C550 C548 1.391 . S
C550 C551 1.400 . S
C551 C550 1.400 . S
C551 C552 1.398 . S
C551 C557 1.491 1_545 S
C552 H543 0.950 . S
C552 C551 1.398 . S
C552 C553 1.391 . S
C553 H541 0.950 . S
C553 C549 1.393 . S
C553 C552 1.391 . S
C554 H544 0.950 . S
C554 C555 1.386 . S
C554 C556 1.391 . S
C555 C554 1.386 . S
C555 C559 1.393 . S
C556 H545 0.950 . S
C556 C554 1.391 . S
C556 C557 1.400 . S
C557 C551 1.491 1_565 S
C557 C556 1.400 . S
C557 C558 1.398 . S
C558 H546 0.950 . S
C558 C557 1.398 . S
C558 C559 1.391 . S
C559 H547 0.950 . S
C559 C555 1.393 . S
C559 C558 1.391 . S
H560 C568 0.950 . S
H561 C573 0.950 . S
H562 C570 0.950 . S
H563 C572 0.950 . S
H564 C574 0.950 . S
H565 C576 0.950 . S
H566 C578 0.950 . S
H567 C579 0.950 . S
C568 H560 0.950 . S
C568 C569 1.386 1_556 S
C568 C570 1.391 . S
C569 C568 1.386 1_554 S
C569 C573 1.393 . S
C570 H562 0.950 . S
C570 C568 1.391 . S
C570 C571 1.400 1_556 S
C571 C570 1.400 1_554 S
C571 C572 1.398 . S
C571 C577 1.491 . S
C572 H563 0.950 . S
C572 C571 1.398 . S
C572 C573 1.391 . S
C573 H561 0.950 . S
C573 C569 1.393 . S
C573 C572 1.391 . S
C574 H564 0.950 . S
C574 C575 1.384 1_554 S
C574 C576 1.391 . S
C575 C574 1.384 1_556 S
C575 C579 1.394 . S
C576 H565 0.950 . S
C576 C574 1.391 . S
C576 C577 1.400 . S
C577 C571 1.491 . S
C577 C576 1.400 . S
C577 C578 1.398 1_554 S
C578 H566 0.950 . S
C578 C577 1.398 1_556 S
C578 C579 1.391 . S
C579 H567 0.950 . S
C579 C575 1.394 . S
C579 C578 1.391 . S
H580 C588 0.950 . S
H581 C593 0.950 . S
H582 C590 0.950 . S
H583 C592 0.950 . S
H584 C594 0.950 . S
H585 C596 0.950 . S
H586 C598 0.950 . S
H587 C599 0.950 . S
C588 H580 0.950 . S
C588 C589 1.386 1_556 S
C588 C590 1.391 . S
C589 C588 1.386 1_554 S
C589 C593 1.393 . S
C590 H582 0.950 . S
C590 C588 1.391 . S
C590 C591 1.400 1_556 S
C591 C590 1.400 1_554 S
C591 C592 1.398 . S
C591 C597 1.492 . S
C592 H583 0.950 . S
C592 C591 1.398 . S
C592 C593 1.391 . S
C593 H581 0.950 . S
C593 C589 1.393 . S
C593 C592 1.391 . S
C594 H584 0.950 . S
C594 C595 1.386 1_554 S
C594 C596 1.391 . S
C595 C594 1.386 1_556 S
C595 C599 1.393 . S
C596 H585 0.950 . S
C596 C594 1.391 . S
C596 C597 1.410 . S
C597 C591 1.492 . S
C597 C596 1.410 . S
C597 C598 1.387 1_554 S
C598 H586 0.950 . S
C598 C597 1.387 1_556 S
C598 C599 1.391 . S
C599 H587 0.950 . S
C599 C595 1.393 . S
C599 C598 1.391 . S
H600 C608 0.950 . S
H601 C613 0.950 . S
H602 C610 0.950 . S
H603 C612 0.950 . S
H604 C614 0.950 . S
H605 C616 0.950 . S
H606 C618 0.950 . S
H607 C619 0.950 . S
C608 H600 0.950 . S
C608 C609 1.386 . S
C608 C610 1.391 . S
C609 C608 1.386 . S
C609 C613 1.393 . S
C610 H602 0.950 . S
C610 C608 1.391 . S
C610 C611 1.400 . S
C611 C610 1.400 . S
C611 C612 1.398 . S
C611 C617 1.491 . S
C612 H603 0.950 . S
C612 C611 1.398 . S
C612 C613 1.391 . S
C613 H601 0.950 . S
C613 C609 1.393 . S
C613 C612 1.391 . S
C614 H604 0.950 . S
C614 C615 1.386 . S
C614 C616 1.391 . S
C615 C614 1.386 . S
C615 C619 1.393 . S
C616 H605 0.950 . S
C616 C614 1.391 . S
C616 C617 1.400 . S
C617 C611 1.491 . S
C617 C616 1.400 . S
C617 C618 1.398 . S
C618 H606 0.950 . S
C618 C617 1.398 . S
C618 C619 1.391 . S
C619 H607 0.950 . S
C619 C615 1.393 . S
C619 C618 1.391 . S
H620 C628 0.950 . S
H621 C633 0.950 . S
H622 C630 0.950 . S
H623 C632 0.950 . S
H624 C634 0.950 . S
H625 C636 0.950 . S
H626 C638 0.950 . S
H627 C639 0.950 . S
C628 H620 0.950 . S
C628 C629 1.386 . S
C628 C630 1.391 . S
C629 C628 1.386 . S
C629 C633 1.393 . S
C630 H622 0.950 . S
C630 C628 1.391 . S
C630 C631 1.400 . S
C631 C630 1.400 . S
C631 C632 1.398 . S
C631 C637 1.491 . S
C632 H623 0.950 . S
C632 C631 1.398 . S
C632 C633 1.391 . S
C633 H621 0.950 . S
C633 C629 1.393 . S
C633 C632 1.391 . S
C634 H624 0.950 . S
C634 C635 1.386 . S
C634 C636 1.391 . S
C635 C634 1.386 . S
C635 C639 1.393 . S
C636 H625 0.950 . S
C636 C634 1.391 . S
C636 C637 1.400 . S
C637 C631 1.491 . S
C637 C636 1.400 . S
C637 C638 1.398 . S
C638 H626 0.950 . S
C638 C637 1.398 . S
C638 C639 1.391 . S
C639 H627 0.950 . S
C639 C635 1.393 . S
C639 C638 1.391 . S
H640 C648 0.950 1_655 S
H641 C653 0.950 . S
H642 C650 0.956 . S
H643 C652 0.950 . S
H644 C654 0.950 . S
H645 C656 0.950 . S
H646 C658 0.950 . S
H647 C659 0.950 . S
C648 H640 0.950 1_455 S
C648 C649 1.386 . S
C648 C650 1.389 1_455 S
C649 C648 1.386 . S
C649 C653 1.393 . S
C650 H642 0.956 . S
C650 C648 1.389 1_655 S
C650 C651 1.397 1_655 S
C651 C650 1.397 1_455 S
C651 C652 1.398 . S
C651 C657 1.491 . S
C652 H643 0.950 . S
C652 C651 1.398 . S
C652 C653 1.391 . S
C653 H641 0.950 . S
C653 C649 1.393 . S
C653 C652 1.391 . S
C654 H644 0.950 . S
C654 C655 1.386 1_455 S
C654 C656 1.391 . S
C655 C654 1.386 1_655 S
C655 C659 1.393 . S
C656 H645 0.950 . S
C656 C654 1.391 . S
C656 C657 1.400 . S
C657 C651 1.491 . S
C657 C656 1.400 . S
C657 C658 1.398 1_455 S
C658 H646 0.950 . S
C658 C657 1.398 1_655 S
C658 C659 1.391 . S
C659 H647 0.950 . S
C659 C655 1.393 . S
C659 C658 1.391 . S
H660 C668 0.950 . S
H661 C673 0.950 1_455 S
H662 C670 0.950 . S
H663 C672 0.950 . S
H664 C674 0.950 . S
H665 C676 0.950 . S
H666 C678 0.950 . S
H667 C679 0.950 . S
C668 H660 0.950 . S
C668 C669 1.386 . S
C668 C670 1.391 . S
C669 C668 1.386 . S
C669 C673 1.393 . S
C670 H662 0.950 . S
C670 C668 1.391 . S
C670 C671 1.400 . S
C671 C670 1.400 . S
C671 C672 1.398 1_655 S
C671 C677 1.491 . S
C672 H663 0.950 . S
C672 C671 1.398 1_455 S
C672 C673 1.391 1_455 S
C673 H661 0.950 1_655 S
C673 C669 1.393 . S
C673 C672 1.391 1_655 S
C674 H664 0.950 . S
C674 C675 1.386 . S
C674 C676 1.391 . S
C675 C674 1.386 . S
C675 C679 1.393 1_455 S
C676 H665 0.950 . S
C676 C674 1.391 . S
C676 C677 1.400 1_455 S
C677 C671 1.491 . S
C677 C676 1.400 1_655 S
C677 C678 1.398 . S
C678 H666 0.950 . S
C678 C677 1.398 . S
C678 C679 1.391 . S
C679 H667 0.950 . S
C679 C675 1.393 1_655 S
C679 C678 1.391 . S
H680 C688 0.950 . S
H681 C693 0.950 . S
H682 C690 0.950 . S
H683 C692 0.950 . S
H684 C694 0.950 . S
H685 C696 0.950 . S
H686 C698 0.950 . S
H687 C699 0.950 . S
C688 H680 0.950 . S
C688 C689 1.386 1_455 S
C688 C690 1.391 . S
C689 C688 1.386 1_655 S
C689 C693 1.393 . S
C690 H682 0.950 . S
C690 C688 1.391 . S
C690 C691 1.400 1_455 S
C691 C690 1.400 1_655 S
C691 C692 1.398 . S
C691 C697 1.491 . S
C692 H683 0.950 . S
C692 C691 1.398 . S
C692 C693 1.391 . S
C693 H681 0.950 . S
C693 C689 1.393 . S
C693 C692 1.391 . S
C694 H684 0.950 . S
C694 C695 1.386 1_655 S
C694 C696 1.391 . S
C695 C694 1.386 1_455 S
C695 C699 1.393 . S
C696 H685 0.950 . S
C696 C694 1.391 . S
C696 C697 1.400 . S
C697 C691 1.491 . S
C697 C696 1.400 . S
C697 C698 1.398 1_655 S
C698 H686 0.950 . S
C698 C697 1.398 1_455 S
C698 C699 1.391 . S
C699 H687 0.950 . S
C699 C695 1.393 . S
C699 C698 1.391 . S
H700 C708 0.950 1_455 S
H701 C713 0.950 . S
H702 C710 0.950 . S
H703 C712 0.950 . S
H704 C714 0.950 . S
H705 C716 0.950 . S
H706 C718 0.950 . S
H707 C719 0.950 . S
C708 H700 0.950 1_655 S
C708 C709 1.386 . S
C708 C710 1.391 1_655 S
C709 C708 1.386 . S
C709 C713 1.393 . S
C710 H702 0.950 . S
C710 C708 1.391 1_455 S
C710 C711 1.400 1_455 S
C711 C710 1.400 1_655 S
C711 C712 1.398 . S
C711 C717 1.491 1_655 S
C712 H703 0.950 . S
C712 C711 1.398 . S
C712 C713 1.391 . S
C713 H701 0.950 . S
C713 C709 1.393 . S
C713 C712 1.391 . S
C714 H704 0.950 . S
C714 C715 1.386 . S
C714 C716 1.391 1_455 S
C715 C714 1.386 . S
C715 C719 1.393 . S
C716 H705 0.950 . S
C716 C714 1.391 1_655 S
C716 C717 1.400 1_655 S
C717 C711 1.491 1_455 S
C717 C716 1.400 1_455 S
C717 C718 1.398 . S
C718 H706 0.950 . S
C718 C717 1.398 . S
C718 C719 1.391 . S
C719 H707 0.950 . S
C719 C715 1.393 . S
C719 C718 1.391 . S
H720 C728 0.950 . S
H721 C733 0.950 . S
H722 C730 0.950 . S
H723 C732 0.950 . S
H724 C734 0.950 . S
H725 C736 0.950 . S
H726 C738 0.950 . S
H727 C739 0.950 . S
C728 H720 0.950 . S
C728 C729 1.386 . S
C728 C730 1.391 . S
C729 C728 1.386 . S
C729 C733 1.393 . S
C730 H722 0.950 . S
C730 C728 1.391 . S
C730 C731 1.400 . S
C731 C730 1.400 . S
C731 C732 1.398 . S
C731 C737 1.491 . S
C732 H723 0.950 . S
C732 C731 1.398 . S
C732 C733 1.391 . S
C733 H721 0.950 . S
C733 C729 1.393 . S
C733 C732 1.391 . S
C734 H724 0.950 . S
C734 C735 1.386 . S
C734 C736 1.391 . S
C735 C734 1.386 . S
C735 C739 1.393 . S
C736 H725 0.950 . S
C736 C734 1.391 . S
C736 C737 1.400 . S
C737 C731 1.491 . S
C737 C736 1.400 . S
C737 C738 1.398 . S
C738 H726 0.950 . S
C738 C737 1.398 . S
C738 C739 1.391 . S
C739 H727 0.950 . S
C739 C735 1.393 . S
C739 C738 1.391 . S
H740 C748 0.950 . S
H741 C753 0.950 . S
H742 C750 0.950 . S
H743 C752 0.950 . S
H744 C754 0.950 . S
H745 C756 0.950 . S
H746 C758 0.950 . S
H747 C759 0.950 . S
C748 H740 0.950 . S
C748 C749 1.386 . S
C748 C750 1.391 . S
C749 C748 1.386 . S
C749 C753 1.393 . S
C750 H742 0.950 . S
C750 C748 1.391 . S
C750 C751 1.400 . S
C751 C750 1.400 . S
C751 C752 1.398 . S
C751 C757 1.491 . S
C752 H743 0.950 . S
C752 C751 1.398 . S
C752 C753 1.391 . S
C753 H741 0.950 . S
C753 C749 1.393 . S
C753 C752 1.391 . S
C754 H744 0.950 . S
C754 C755 1.386 . S
C754 C756 1.391 . S
C755 C754 1.386 . S
C755 C759 1.393 . S
C756 H745 0.950 . S
C756 C754 1.391 . S
C756 C757 1.400 . S
C757 C751 1.491 . S
C757 C756 1.400 . S
C757 C758 1.398 . S
C758 H746 0.950 . S
C758 C757 1.398 . S
C758 C759 1.391 . S
C759 H747 0.950 . S
C759 C755 1.393 . S
C759 C758 1.391 . S
H760 C768 0.950 . S
H761 C773 0.950 . S
H762 C770 0.950 . S
H763 C772 0.950 . S
H764 C774 0.950 . S
H765 C776 0.950 . S
H766 C778 0.950 . S
H767 C779 0.950 . S
C768 H760 0.950 . S
C768 C769 1.386 . S
C768 C770 1.391 . S
C769 C768 1.386 . S
C769 C773 1.393 . S
C770 H762 0.950 . S
C770 C768 1.391 . S
C770 C771 1.400 . S
C771 C770 1.400 . S
C771 C772 1.398 . S
C771 C777 1.491 . S
C772 H763 0.950 . S
C772 C771 1.398 . S
C772 C773 1.391 . S
C773 H761 0.950 . S
C773 C769 1.393 . S
C773 C772 1.391 . S
C774 H764 0.950 . S
C774 C775 1.386 . S
C774 C776 1.391 . S
C775 C774 1.386 . S
C775 C779 1.393 . S
C776 H765 0.950 . S
C776 C774 1.391 . S
C776 C777 1.400 . S
C777 C771 1.491 . S
C777 C776 1.400 . S
C777 C778 1.398 . S
C778 H766 0.950 . S
C778 C777 1.398 . S
C778 C779 1.391 . S
C779 H767 0.950 . S
C779 C775 1.393 . S
C779 C778 1.391 . S
H780 C788 0.950 . S
H781 C793 0.950 . S
H782 C790 0.950 . S
H783 C792 0.950 . S
H784 C794 0.950 . S
H785 C796 0.950 . S
H786 C798 0.950 . S
H787 C799 0.950 . S
C788 H780 0.950 . S
C788 C789 1.386 . S
C788 C790 1.391 . S
C789 C788 1.386 . S
C789 C793 1.393 . S
C790 H782 0.950 . S
C790 C788 1.391 . S
C790 C791 1.400 . S
C791 C790 1.400 . S
C791 C792 1.398 . S
C791 C797 1.491 . S
C792 H783 0.950 . S
C792 C791 1.398 . S
C792 C793 1.391 . S
C793 H781 0.950 . S
C793 C789 1.393 . S
C793 C792 1.391 . S
C794 H784 0.950 . S
C794 C795 1.386 . S
C794 C796 1.391 . S
C795 C794 1.386 . S
C795 C799 1.393 . S
C796 H785 0.950 . S
C796 C794 1.391 . S
C796 C797 1.400 . S
C797 C791 1.491 . S
C797 C796 1.400 . S
C797 C798 1.398 . S
C798 H786 0.950 . S
C798 C797 1.398 . S
C798 C799 1.391 . S
C799 H787 0.950 . S
C799 C795 1.393 . S
C799 C798 1.391 . S
C329 C15 0.614 . S
C335 C5 0.614 . S
C349 C45 0.710 . S
C355 C55 0.710 . S
C369 C89 5.021 . S
C375 C99 5.021 . S
C389 C129 5.023 . S
C395 C139 5.023 . S
C409 C175 0.710 . S
C415 C165 0.710 . S
C429 C215 0.627 . S
C435 C205 0.627 . S
C449 C249 5.019 . S
C455 C259 5.019 . S
C469 C299 5.021 . S
C475 C289 5.021 . S
C489 C49 4.815 1_455 S
C495 C9 4.800 1_655 S
C509 C135 0.660 . S
C515 C85 0.660 . S
C529 C169 4.798 . S
C535 C209 4.819 . S
C549 C245 0.643 . S
C555 C295 0.643 . S
C569 C19 4.313 . S
C575 C219 4.334 . S
C589 C179 4.316 . S
C595 C59 4.333 . S
C609 C95 0.432 . S
C615 C285 0.432 . S
C629 C125 0.415 . S
C635 C255 0.415 . S
C649 C8 1.523 . S
C655 C138 1.616 . S
C669 C48 1.561 . S
C675 C98 1.623 . S
C689 C58 1.595 . S
C695 C88 1.579 . S
C709 C128 1.579 . S
C715 C18 1.630 . S
C729 C168 1.549 . S
C735 C298 1.622 . S
C749 C208 1.566 . S
C755 C258 1.643 . S
C769 C218 1.597 . S
C775 C248 1.581 . S
C789 C288 1.572 . S
C795 C178 1.637 . S
