# Generated by pormake.
# Topology wgc, (5)-cn, num edge types: 1
# Building blocks:
#     Node 0, Type 0, BuildingBlock: XOMCOT_clean_sbu_0, # of connection points: 5
#     Node 1, Type 0, BuildingBlock: XOMCOT_clean_sbu_0, # of connection points: 5
#     Node 2, Type 0, BuildingBlock: XOMCOT_clean_sbu_0, # of connection points: 5
#     Node 3, Type 0, BuildingBlock: XOMCOT_clean_sbu_0, # of connection points: 5
#     Node 4, Type 0, BuildingBlock: XOMCOT_clean_sbu_0, # of connection points: 5
#     Node 5, Type 0, BuildingBlock: XOMCOT_clean_sbu_0, # of connection points: 5
#     Node 6, Type 0, BuildingBlock: XOMCOT_clean_sbu_0, # of connection points: 5
#     Node 7, Type 0, BuildingBlock: XOMCOT_clean_sbu_0, # of connection points: 5
#     Node 8, Type 0, BuildingBlock: XOMCOT_clean_sbu_0, # of connection points: 5
#     Node 9, Type 0, BuildingBlock: XOMCOT_clean_sbu_0, # of connection points: 5
#     Node 10, Type 0, BuildingBlock: XOMCOT_clean_sbu_0, # of connection points: 5
#     Node 11, Type 0, BuildingBlock: XOMCOT_clean_sbu_0, # of connection points: 5
#     Node 12, Type 0, BuildingBlock: XOMCOT_clean_sbu_0, # of connection points: 5
#     Node 13, Type 0, BuildingBlock: XOMCOT_clean_sbu_0, # of connection points: 5
#     Node 14, Type 0, BuildingBlock: XOMCOT_clean_sbu_0, # of connection points: 5
#     Node 15, Type 0, BuildingBlock: XOMCOT_clean_sbu_0, # of connection points: 5
#     Edge 16, Type (0, 0), BuildingBlock: AJUNOK_clean_linker_0, # of connection points: 2
#     Edge 17, Type (0, 0), BuildingBlock: AJUNOK_clean_linker_0, # of connection points: 2
#     Edge 18, Type (0, 0), BuildingBlock: AJUNOK_clean_linker_0, # of connection points: 2
#     Edge 19, Type (0, 0), BuildingBlock: AJUNOK_clean_linker_0, # of connection points: 2
#     Edge 20, Type (0, 0), BuildingBlock: AJUNOK_clean_linker_0, # of connection points: 2
#     Edge 21, Type (0, 0), BuildingBlock: AJUNOK_clean_linker_0, # of connection points: 2
#     Edge 22, Type (0, 0), BuildingBlock: AJUNOK_clean_linker_0, # of connection points: 2
#     Edge 23, Type (0, 0), BuildingBlock: AJUNOK_clean_linker_0, # of connection points: 2
#     Edge 24, Type (0, 0), BuildingBlock: AJUNOK_clean_linker_0, # of connection points: 2
#     Edge 25, Type (0, 0), BuildingBlock: AJUNOK_clean_linker_0, # of connection points: 2
#     Edge 26, Type (0, 0), BuildingBlock: AJUNOK_clean_linker_0, # of connection points: 2
#     Edge 27, Type (0, 0), BuildingBlock: AJUNOK_clean_linker_0, # of connection points: 2
#     Edge 28, Type (0, 0), BuildingBlock: AJUNOK_clean_linker_0, # of connection points: 2
#     Edge 29, Type (0, 0), BuildingBlock: AJUNOK_clean_linker_0, # of connection points: 2
#     Edge 30, Type (0, 0), BuildingBlock: AJUNOK_clean_linker_0, # of connection points: 2
#     Edge 31, Type (0, 0), BuildingBlock: AJUNOK_clean_linker_0, # of connection points: 2
#     Edge 32, Type (0, 0), BuildingBlock: AJUNOK_clean_linker_0, # of connection points: 2
#     Edge 33, Type (0, 0), BuildingBlock: AJUNOK_clean_linker_0, # of connection points: 2
#     Edge 34, Type (0, 0), BuildingBlock: AJUNOK_clean_linker_0, # of connection points: 2
#     Edge 35, Type (0, 0), BuildingBlock: AJUNOK_clean_linker_0, # of connection points: 2
#     Edge 36, Type (0, 0), BuildingBlock: AJUNOK_clean_linker_0, # of connection points: 2
#     Edge 37, Type (0, 0), BuildingBlock: AJUNOK_clean_linker_0, # of connection points: 2
#     Edge 38, Type (0, 0), BuildingBlock: AJUNOK_clean_linker_0, # of connection points: 2
#     Edge 39, Type (0, 0), BuildingBlock: AJUNOK_clean_linker_0, # of connection points: 2
#     Edge 40, Type (0, 0), BuildingBlock: AJUNOK_clean_linker_0, # of connection points: 2
#     Edge 41, Type (0, 0), BuildingBlock: AJUNOK_clean_linker_0, # of connection points: 2
#     Edge 42, Type (0, 0), BuildingBlock: AJUNOK_clean_linker_0, # of connection points: 2
#     Edge 43, Type (0, 0), BuildingBlock: AJUNOK_clean_linker_0, # of connection points: 2
#     Edge 44, Type (0, 0), BuildingBlock: AJUNOK_clean_linker_0, # of connection points: 2
#     Edge 45, Type (0, 0), BuildingBlock: AJUNOK_clean_linker_0, # of connection points: 2
#     Edge 46, Type (0, 0), BuildingBlock: AJUNOK_clean_linker_0, # of connection points: 2
#     Edge 47, Type (0, 0), BuildingBlock: AJUNOK_clean_linker_0, # of connection points: 2
#     Edge 48, Type (0, 0), BuildingBlock: AJUNOK_clean_linker_0, # of connection points: 2
#     Edge 49, Type (0, 0), BuildingBlock: AJUNOK_clean_linker_0, # of connection points: 2
#     Edge 50, Type (0, 0), BuildingBlock: AJUNOK_clean_linker_0, # of connection points: 2
#     Edge 51, Type (0, 0), BuildingBlock: AJUNOK_clean_linker_0, # of connection points: 2
#     Edge 52, Type (0, 0), BuildingBlock: AJUNOK_clean_linker_0, # of connection points: 2
#     Edge 53, Type (0, 0), BuildingBlock: AJUNOK_clean_linker_0, # of connection points: 2
#     Edge 54, Type (0, 0), BuildingBlock: AJUNOK_clean_linker_0, # of connection points: 2
#     Edge 55, Type (0, 0), BuildingBlock: AJUNOK_clean_linker_0, # of connection points: 2
# Relax obj value: 0.137
# Max RMSD: 0.155
# Mean RMSD: 0.153
data_MOF--net-wgc--node1-XOMCOT_clean_sbu_0--edge1-AJUNOK_clean_linker_0
_symmetry_space_group_name_H-M    P1
_symmetry_Int_Tables_number       1
_symmetry_cell_setting            triclinic
loop_
_symmetry_equiv_pos_as_xyz
'x, y, z'
_cell_length_a     28.237088
_cell_length_b     28.270833
_cell_length_c     45.402164
_cell_angle_alpha  89.899543
_cell_angle_beta   90.152634
_cell_angle_gamma 89.665828
loop_
_atom_site_label
_atom_site_type_symbol
_atom_site_fract_x
_atom_site_fract_y
_atom_site_fract_z
_atom_type_partial_charge
Co0 Co 0.29318 0.10571 1.00459 0.0
C1 C 0.20533 0.16121 0.9945 0.0
C2 C 0.1946 0.08666 0.98852 0.0
C3 C 0.15353 0.11013 0.98086 0.0
N4 N 0.22695 0.11868 0.99707 0.0
N5 N 0.16052 0.15692 0.98441 0.0
H6 H 0.22238 0.19459 0.99912 0.0
H7 H 0.20091 0.04896 0.98715 0.0
C8 C 0.28445 1.00793 0.02404 0.0
O9 O 0.31593 0.99863 1.0036 0.0
N10 N 0.36007 0.09142 0.01242 0.0
C11 C 0.38162 0.09546 0.03888 0.0
C12 C 0.42548 0.07441 0.03776 0.0
C13 C 0.39163 0.06705 0.99563 0.0
N14 N 0.43153 0.05548 0.01082 0.0
C15 C 0.31808 0.18862 0.03764 0.0
C16 C 0.2626 0.16842 0.08618 0.0
C17 C 0.29215 0.20809 0.08713 0.0
C18 C 0.31931 0.2187 0.06211 0.0
C19 C 0.26221 0.13953 0.0613 0.0
N20 N 0.291 0.1488 0.0379 0.0
H21 H 0.33995 0.1964 0.01875 0.0
H22 H 0.23881 0.10951 0.06104 0.0
H23 H 0.3659 0.11023 0.05849 0.0
H24 H 0.38434 0.05503 0.97348 0.0
O25 O 0.30854 0.14976 0.97297 0.0
O26 O 0.29533 0.07312 0.96771 0.0
O27 O 0.27409 0.05083 0.02985 0.0
C28 C 0.30134 0.1141 0.95535 0.0
H29 H 0.12086 0.09403 0.97355 0.0
H30 H 0.45044 0.0722 0.05584 0.0
H31 H 0.24058 0.15913 0.10479 0.0
H32 H 0.34144 0.24982 0.06146 0.0
Co33 Co 0.11944 0.71531 0.03014 0.0
C34 C 0.15991 0.80983 0.04313 0.0
C35 C 0.09343 0.81621 0.02067 0.0
C36 C 0.1116 0.86072 0.02461 0.0
N37 N 0.12342 0.78403 0.03257 0.0
N38 N 0.15342 0.85664 0.03871 0.0
H39 H 0.19188 0.79482 0.05246 0.0
H40 H 0.06211 0.8085 1.00803 0.0
C41 C 0.01637 0.72171 0.0229 0.0
O42 O 0.01405 0.70368 0.04948 0.0
N43 N 0.11661 0.64667 0.02728 0.0
C44 C 0.15357 0.6182 0.02079 0.0
C45 C 0.13839 0.57194 0.02014 0.0
C46 C 0.07951 0.61712 0.03069 0.0
N47 N 0.09178 0.57125 0.02656 0.0
C48 C 0.20081 0.73105 0.99407 0.0
C49 C 0.16039 0.70617 0.94082 0.0
C50 C 0.20802 0.72015 0.94133 0.0
C51 C 0.22806 0.73282 0.96844 0.0
C52 C 0.13432 0.70462 0.96708 0.0
N53 N 0.15453 0.71742 0.99324 0.0
H54 H 0.21716 0.74047 0.01473 0.0
H55 H 0.09817 0.69244 0.96634 0.0
H56 H 0.18912 0.63032 0.01642 0.0
H57 H 0.04421 0.6283 0.03622 0.0
O58 O 0.17188 0.70966 0.05854 0.0
O59 O 0.09598 0.71316 0.06971 0.0
O60 O 0.05616 0.72291 0.00937 0.0
C61 C 0.13931 0.71102 0.07877 0.0
H62 H 0.09708 0.89318 0.01557 0.0
H63 H 0.15989 0.54149 0.01453 0.0
H64 H 0.14368 0.69567 0.92036 0.0
H65 H 0.26451 0.74436 0.96983 0.0
Co66 Co 0.73033 0.89826 0.98068 0.0
C67 C 0.82157 0.84752 0.99234 0.0
C68 C 0.82948 0.92297 0.99086 0.0
C69 C 0.8733 0.90296 0.99545 0.0
N70 N 0.79685 0.88838 0.98948 0.0
N71 N 0.86818 0.85569 0.99632 0.0
H72 H 0.8062 0.81265 0.99149 0.0
H73 H 0.82228 0.96022 0.98793 0.0
C74 C 0.72852 0.9988 0.99379 0.0
O75 O 0.70914 1.00361 0.9676 0.0
N76 N 0.66348 0.90957 0.97173 0.0
C77 C 0.6403 0.89976 0.94643 0.0
C78 C 0.5955 0.91933 0.94756 0.0
C79 C 0.63188 0.93442 0.98804 0.0
N80 N 0.59025 0.94109 0.97372 0.0
C81 C 0.71525 0.81174 0.01233 0.0
C82 C 0.6967 0.85189 0.06658 0.0
C83 C 0.70237 0.80278 0.06472 0.0
C84 C 0.71096 0.7826 0.03711 0.0
C85 C 0.70226 0.87986 0.0414 0.0
N86 N 0.71296 0.85986 0.01478 0.0
H87 H 0.72259 0.79547 0.99135 0.0
H88 H 0.69885 0.91759 0.0439 0.0
H89 H 0.65502 0.88101 0.92784 0.0
H90 H 0.63993 0.94956 0.00931 0.0
O91 O 0.73498 0.84963 0.95026 0.0
O92 O 0.74911 0.92593 0.944 0.0
O93 O 0.73348 0.95749 1.00467 0.0
C94 C 0.75031 0.88346 0.93331 0.0
H95 H 0.90651 0.92158 0.99772 0.0
H96 H 0.56902 0.91826 0.93029 0.0
H97 H 0.68985 0.86873 0.08757 0.0
H98 H 0.71504 0.74467 0.03479 0.0
Co99 Co 0.91594 0.27559 0.02865 0.0
C100 C 0.86112 0.18857 0.0221 0.0
C101 C 0.93486 0.17292 0.02912 0.0
C102 C 0.91026 0.13095 0.02802 0.0
N103 N 0.90389 0.2088 0.02525 0.0
N104 N 0.86396 0.14107 0.02379 0.0
H105 H 0.82846 0.20831 0.0192 0.0
H106 H 0.97243 0.17703 0.03294 0.0
C107 C 0.99908 0.2776 0.98466 0.0
O108 O 0.97915 0.30582 0.9652 0.0
N109 N 0.92799 0.3433 0.03303 0.0
C110 C 0.89795 0.37521 0.04502 0.0
C111 C 0.91902 0.41889 0.04541 0.0
C112 C 0.96787 0.36819 0.02733 0.0
N113 N 0.96299 0.41448 0.03438 0.0
C114 C 0.84256 0.31626 0.99162 0.0
C115 C 0.86104 0.26086 0.94282 0.0
C116 C 0.82252 0.29234 0.94176 0.0
C117 C 0.81383 0.32067 0.96655 0.0
C118 C 0.88912 0.25788 0.96819 0.0
N119 N 0.88032 0.28588 0.99213 0.0
H120 H 0.83324 0.33623 0.01091 0.0
H121 H 0.91718 0.23176 0.96889 0.0
H122 H 0.86311 0.36748 0.05348 0.0
H123 H 1.0 0.35315 0.01851 0.0
O124 O 0.86518 0.27826 0.05784 0.0
O125 O 0.94121 0.26454 0.06699 0.0
O126 O 0.97792 0.26543 1.00817 0.0
C127 C 0.89819 0.26658 0.0768 0.0
H128 H 0.92534 0.09577 0.02979 0.0
H129 H 0.90361 0.45129 0.05384 0.0
H130 H 0.86864 0.23757 0.92448 0.0
H131 H 0.78476 0.34581 0.96678 0.0
Co132 Co 0.28394 0.41176 0.28174 0.0
C133 C 0.18554 0.37686 0.28793 0.0
C134 C 0.18986 0.43075 0.25483 0.0
C135 C 0.1446 0.41295 0.25482 0.0
N136 N 0.21566 0.40834 0.27579 0.0
N137 N 0.14227 0.37873 0.27539 0.0
H138 H 0.19552 0.3509 0.30434 0.0
H139 H 0.20325 0.45638 0.23933 0.0
C140 C 0.29692 0.51189 0.26247 0.0
O141 O 0.33971 0.52487 0.25464 0.0
N142 N 0.35221 0.41331 0.28746 0.0
C143 C 0.38137 0.37592 0.2837 0.0
C144 C 0.4275 0.39069 0.2863 0.0
C145 C 0.3811 0.44992 0.29368 0.0
N146 N 0.42748 0.43742 0.29225 0.0
C147 C 0.27141 0.3285 0.24646 0.0
C148 C 0.3207 0.36103 0.19791 0.0
C149 C 0.29726 0.31757 0.19606 0.0
C150 C 0.27277 0.30111 0.22085 0.0
C151 C 0.31796 0.38757 0.2238 0.0
N152 N 0.29258 0.37173 0.24738 0.0
H153 H 0.2526 0.31542 0.26544 0.0
H154 H 0.33604 0.42111 0.22479 0.0
H155 H 0.36991 0.34055 0.27826 0.0
H156 H 0.36858 0.48512 0.29849 0.0
O157 O 0.28006 0.36447 0.313 0.0
O158 O 0.27404 0.44192 0.31909 0.0
O159 O 0.28438 0.46996 0.25579 0.0
C160 C 0.27187 0.39993 0.33064 0.0
H161 H 0.11669 0.4218 0.23934 0.0
H162 H 0.45871 0.36893 0.28309 0.0
H163 H 0.33995 0.37498 0.17924 0.0
H164 H 0.25473 0.2674 0.2204 0.0
Co165 Co 0.40296 0.7263 0.74138 0.0
C166 C 0.3547 0.81864 0.73941 0.0
C167 C 0.42722 0.82429 0.72592 0.0
C168 C 0.40536 0.8675 0.72179 0.0
N169 N 0.39545 0.79385 0.73716 0.0
N170 N 0.35984 0.86378 0.73033 0.0
H171 H 0.32138 0.80339 0.74608 0.0
H172 H 0.46318 0.81534 0.71995 0.0
C173 C 0.5066 0.73629 0.74616 0.0
O174 O 0.50714 0.72079 0.71895 0.0
N175 N 0.40975 0.65792 0.74535 0.0
C176 C 0.37408 0.6269 0.74907 0.0
C177 C 0.39238 0.58159 0.74986 0.0
C178 C 0.44926 0.63074 0.7436 0.0
N179 N 0.43956 0.58412 0.74618 0.0
C180 C 0.32215 0.72044 0.77941 0.0
C181 C 0.36777 0.73802 0.83208 0.0
C182 C 0.31906 0.72817 0.83255 0.0
C183 C 0.29631 0.7199 0.80562 0.0
C184 C 0.3925 0.73802 0.8053 0.0
N185 N 0.36982 0.72863 0.7793 0.0
H186 H 0.30346 0.71373 0.75912 0.0
H187 H 0.4298 0.74569 0.80591 0.0
H188 H 0.33701 0.63619 0.75036 0.0
H189 H 0.48448 0.64419 0.74052 0.0
O190 O 0.34888 0.71872 0.71457 0.0
O191 O 0.42361 0.72301 0.70113 0.0
O192 O 0.46731 0.73768 0.76028 0.0
C193 C 0.37967 0.7207 0.69339 0.0
H194 H 0.42155 0.89915 0.71305 0.0
H195 H 0.37241 0.54919 0.75196 0.0
H196 H 0.38667 0.74602 0.85223 0.0
H197 H 0.2588 0.71218 0.80478 0.0
Co198 Co 0.71761 0.6137 0.2663 0.0
C199 C 0.80629 0.66768 0.26501 0.0
C200 C 0.81899 0.59435 0.27489 0.0
C201 C 0.86132 0.61818 0.27671 0.0
N202 N 0.7847 0.62545 0.26745 0.0
N203 N 0.8531 0.6643 0.27076 0.0
H204 H 0.7879 0.70043 0.26002 0.0
H205 H 0.81345 0.55718 0.2793 0.0
C206 C 0.71223 0.52196 0.23075 0.0
O207 O 0.67565 0.53541 0.21484 0.0
N208 N 0.64976 0.60197 0.26606 0.0
C209 C 0.615 0.63488 0.26448 0.0
C210 C 0.57228 0.61392 0.27039 0.0
C211 C 0.62744 0.56143 0.27355 0.0
N212 N 0.58014 0.56787 0.27624 0.0
C213 C 0.69663 0.6906 0.22694 0.0
C214 C 0.73022 0.64936 0.17598 0.0
C215 C 0.709 0.69431 0.17418 0.0
C216 C 0.69334 0.71535 0.20036 0.0
C217 C 0.73344 0.62609 0.20319 0.0
N218 N 0.71432 0.64557 0.22804 0.0
H219 H 0.68576 0.70836 0.24681 0.0
H220 H 0.75239 0.59296 0.20408 0.0
H221 H 0.61995 0.67217 0.26087 0.0
H222 H 0.64552 0.52841 0.27825 0.0
O223 O 0.70846 0.66745 0.29253 0.0
O224 O 0.72016 0.59279 0.30625 0.0
O225 O 0.73149 0.54962 0.24929 0.0
C226 C 0.71399 0.63664 0.31365 0.0
H227 H 0.89553 0.60265 0.28173 0.0
H228 H 0.53803 0.63134 0.2707 0.0
H229 H 0.74441 0.63228 0.15655 0.0
H230 H 0.67954 0.75116 0.20051 0.0
Co231 Co 0.61633 0.28853 0.74579 0.0
C232 C 0.66873 0.19885 0.74635 0.0
C233 C 0.5939 0.18633 0.74829 0.0
C234 C 0.61719 0.14333 0.74743 0.0
N235 N 0.62646 0.22096 0.74773 0.0
N236 N 0.66423 0.15138 0.74623 0.0
H237 H 0.70194 0.21744 0.7445 0.0
H238 H 0.55597 0.19177 0.7487 0.0
C239 C 0.5312 0.28994 0.7882 0.0
O240 O 0.55103 0.3157 0.8088 0.0
N241 N 0.60609 0.35686 0.74291 0.0
C242 C 0.63816 0.38848 0.73322 0.0
C243 C 0.61752 0.43242 0.73162 0.0
C244 C 0.56555 0.38235 0.74608 0.0
N245 N 0.57164 0.42867 0.73929 0.0
C246 C 0.68855 0.32342 0.78563 0.0
C247 C 0.66549 0.26538 0.83241 0.0
C248 C 0.70382 0.29631 0.83558 0.0
C249 C 0.71535 0.32536 0.8116 0.0
C250 C 0.63937 0.26491 0.80618 0.0
N251 N 0.65006 0.29461 0.78336 0.0
H252 H 0.70006 0.34397 0.7671 0.0
H253 H 0.61107 0.2396 0.80402 0.0
H254 H 0.67406 0.38035 0.72674 0.0
H255 H 0.53179 0.36732 0.75198 0.0
O256 O 0.66903 0.292 0.71808 0.0
O257 O 0.59343 0.28111 0.70651 0.0
O258 O 0.55305 0.27923 0.76465 0.0
C259 C 0.63719 0.28288 0.69802 0.0
H260 H 0.60078 0.10883 0.74778 0.0
H261 H 0.63522 0.46466 0.72523 0.0
H262 H 0.65649 0.24061 0.8497 0.0
H263 H 0.74529 0.34906 0.81271 0.0
Co264 Co 0.78844 0.61707 0.48035 0.0
C265 C 0.70192 0.67512 0.4899 0.0
C266 C 0.68727 0.60073 0.4904 0.0
C267 C 0.64505 0.62502 0.49226 0.0
N268 N 0.72298 0.63211 0.48913 0.0
N269 N 0.65436 0.67171 0.49196 0.0
H270 H 0.72059 0.70815 0.48749 0.0
H271 H 0.6913 0.56279 0.4888 0.0
C272 C 0.78387 0.51621 0.49225 0.0
O273 O 0.80153 0.51114 0.46569 0.0
N274 N 0.85421 0.60111 0.47133 0.0
C275 C 0.8778 0.61005 0.44609 0.0
C276 C 0.92146 0.58814 0.4472 0.0
C277 C 0.88448 0.57434 0.48759 0.0
N278 N 0.92563 0.56575 0.47327 0.0
C279 C 0.8099 0.70049 0.51359 0.0
C280 C 0.82125 0.65616 0.5675 0.0
C281 C 0.81918 0.70562 0.56657 0.0
C282 C 0.81453 0.72785 0.53909 0.0
C283 C 0.81609 0.63016 0.54159 0.0
N284 N 0.80853 0.65227 0.51513 0.0
H285 H 0.80504 0.71833 0.49277 0.0
H286 H 0.81681 0.59222 0.54346 0.0
H287 H 0.86423 0.63011 0.42762 0.0
H288 H 0.87586 0.55961 0.50889 0.0
O289 O 0.78781 0.66708 0.45054 0.0
O290 O 0.76754 0.59234 0.44338 0.0
O291 O 0.78084 0.55739 0.50339 0.0
C292 C 0.76999 0.63506 0.43318 0.0
H293 H 0.61011 0.6096 0.49356 0.0
H294 H 0.94804 0.58837 0.43005 0.0
H295 H 0.82463 0.63752 0.58826 0.0
H296 H 0.81338 0.76606 0.53739 0.0
Co297 Co 0.60858 0.23534 0.53146 0.0
C298 C 0.66081 0.32398 0.52787 0.0
C299 C 0.58885 0.33674 0.54104 0.0
C300 C 0.61222 0.37943 0.53985 0.0
N301 N 0.61946 0.30232 0.53328 0.0
N302 N 0.65744 0.37109 0.53165 0.0
H303 H 0.69267 0.30556 0.52108 0.0
H304 H 0.55216 0.33125 0.54682 0.0
C305 C 0.52034 0.23572 0.49268 0.0
O306 O 0.5387 0.20622 0.47346 0.0
N307 N 0.59783 0.16725 0.5305 0.0
C308 C 0.63085 0.13314 0.53453 0.0
C309 C 0.60923 0.08986 0.53508 0.0
C310 C 0.55608 0.14389 0.53014 0.0
N311 N 0.56214 0.09642 0.53229 0.0
C312 C 0.67764 0.20826 0.48798 0.0
C313 C 0.64507 0.26729 0.44367 0.0
C314 C 0.68465 0.23849 0.43826 0.0
C315 C 0.70106 0.20899 0.46096 0.0
C316 C 0.62251 0.26524 0.47103 0.0
N317 N 0.63772 0.23463 0.49249 0.0
H318 H 0.69302 0.18789 0.50556 0.0
H319 H 0.59359 0.28945 0.47523 0.0
H320 H 0.66804 0.13886 0.53856 0.0
H321 H 0.52194 0.16129 0.53012 0.0
O322 O 0.66449 0.22662 0.55608 0.0
O323 O 0.59051 0.23593 0.57193 0.0
O324 O 0.54356 0.24871 0.51533 0.0
C325 C 0.6352 0.23108 0.57806 0.0
H326 H 0.59669 0.41396 0.54367 0.0
H327 H 0.62697 0.05612 0.53795 0.0
H328 H 0.63252 0.29231 0.42729 0.0
H329 H 0.73228 0.18706 0.45804 0.0
Co330 Co 0.22447 0.40597 0.50073 0.0
C331 C 0.31391 0.35301 0.49327 0.0
C332 C 0.32072 0.42536 0.47943 0.0
C333 C 0.36261 0.40192 0.47359 0.0
N334 N 0.29036 0.39459 0.49178 0.0
N335 N 0.35803 0.35652 0.48223 0.0
H336 H 0.2989 0.32064 0.50182 0.0
H337 H 0.31268 0.46204 0.47465 0.0
C338 C 0.22939 0.5054 0.51509 0.0
O339 O 0.19518 0.50929 0.49565 0.0
N340 N 0.15765 0.41786 0.51011 0.0
C341 C 0.13837 0.41457 0.53722 0.0
C342 C 0.09363 0.43372 0.53683 0.0
C343 C 0.12369 0.43962 0.4936 0.0
N344 N 0.0847 0.45075 0.50964 0.0
C345 C 0.20668 0.3245 0.53724 0.0
C346 C 0.26368 0.35185 0.58382 0.0
C347 C 0.23778 0.30985 0.58644 0.0
C348 C 0.20916 0.29616 0.5626 0.0
C349 C 0.26033 0.37902 0.55814 0.0
N350 N 0.23117 0.36592 0.53556 0.0
H351 H 0.1841 0.31395 0.51917 0.0
H352 H 0.28128 0.41072 0.55659 0.0
H353 H 0.15621 0.4018 0.55676 0.0
H354 H 0.12871 0.45058 0.47099 0.0
O355 O 0.20863 0.35901 0.47074 0.0
O356 O 0.21754 0.4357 0.46301 0.0
O357 O 0.24316 0.46423 0.52304 0.0
C358 C 0.21132 0.394 0.452 0.0
H359 H 0.3943 0.41723 0.46429 0.0
H360 H 0.07017 0.43617 0.55556 0.0
H361 H 0.28577 0.36424 0.60171 0.0
H362 H 0.18884 0.26382 0.56355 0.0
Co363 Co 0.399 0.80018 0.52704 0.0
C364 C 0.35242 0.70755 0.52441 0.0
C365 C 0.42768 0.69946 0.52163 0.0
C366 C 0.4075 0.65519 0.52166 0.0
N367 N 0.39295 0.73233 0.52276 0.0
N368 N 0.3601 0.66048 0.52327 0.0
H369 H 0.3182 0.72353 0.52813 0.0
H370 H 0.4651 0.70666 0.52199 0.0
C371 C 0.50194 0.79764 0.51864 0.0
O372 O 0.50387 0.81154 0.54619 0.0
N373 N 0.40358 0.86844 0.53136 0.0
C374 C 0.36644 0.89766 0.53623 0.0
C375 C 0.38212 0.94374 0.5369 0.0
C376 C 0.44128 0.89741 0.52876 0.0
N377 N 0.42917 0.94331 0.53225 0.0
C378 C 0.31553 0.8041 0.49073 0.0
C379 C 0.35965 0.82805 0.43855 0.0
C380 C 0.31079 0.81941 0.43824 0.0
C381 C 0.28874 0.80775 0.46486 0.0
C382 C 0.38537 0.82331 0.46489 0.0
N383 N 0.36349 0.81007 0.49045 0.0
H384 H 0.29747 0.79613 0.51101 0.0
H385 H 0.42283 0.8304 0.46446 0.0
H386 H 0.33022 0.88628 0.53897 0.0
H387 H 0.47678 0.88615 0.52365 0.0
O388 O 0.34728 0.79878 0.55598 0.0
O389 O 0.42322 0.78961 0.566 0.0
O390 O 0.4617 0.79568 0.50557 0.0
C391 C 0.38002 0.78879 0.57527 0.0
H392 H 0.42629 0.62175 0.52079 0.0
H393 H 0.36082 0.97499 0.541 0.0
H394 H 0.37802 0.8374 0.41847 0.0
H395 H 0.25092 0.80167 0.46571 0.0
Co396 Co 0.80601 0.89784 0.76632 0.0
C397 C 0.71418 0.84787 0.76971 0.0
C398 C 0.70511 0.92262 0.77527 0.0
C399 C 0.66123 0.90153 0.77625 0.0
N400 N 0.73823 0.889 0.77064 0.0
N401 N 0.66687 0.85447 0.77251 0.0
H402 H 0.73112 0.81376 0.76751 0.0
H403 H 0.71212 0.95994 0.77763 0.0
C404 C 0.79937 1.00053 0.75801 0.0
O405 O 0.823 1.00298 0.78279 0.0
N406 N 0.87474 0.90622 0.76196 0.0
C407 C 0.90371 0.88277 0.74322 0.0
C408 C 0.94904 0.89988 0.74584 0.0
C409 C 0.90388 0.93667 0.77621 0.0
N410 N 0.94907 0.93388 0.76649 0.0
C411 C 0.80749 0.81475 0.72991 0.0
C412 C 0.80262 0.86051 0.67612 0.0
C413 C 0.8077 0.81124 0.6766 0.0
C414 C 0.80939 0.78826 0.70395 0.0
C415 C 0.80091 0.88575 0.70253 0.0
N416 N 0.80383 0.86299 0.72913 0.0
H417 H 0.81017 0.79635 0.75068 0.0
H418 H 0.79854 0.92367 0.70105 0.0
H419 H 0.89325 0.85554 0.72799 0.0
H420 H 0.893 0.96006 0.79369 0.0
O421 O 0.81637 0.84609 0.79435 0.0
O422 O 0.80843 0.92175 0.80564 0.0
O423 O 0.7924 0.96018 0.74616 0.0
C424 C 0.81363 0.87863 0.81455 0.0
H425 H 0.62762 0.91971 0.77864 0.0
H426 H 0.97927 0.88952 0.73267 0.0
H427 H 0.80129 0.87961 0.65542 0.0
H428 H 0.81242 0.75011 0.70531 0.0
Co429 Co 0.8938 0.2321 0.24638 0.0
C430 C 0.83387 0.31689 0.23571 0.0
C431 C 0.90585 0.32786 0.22224 0.0
C432 C 0.87989 0.36798 0.21568 0.0
N433 N 0.87697 0.296 0.23487 0.0
N434 N 0.83481 0.36103 0.22432 0.0
H435 H 0.80246 0.30011 0.24433 0.0
H436 H 0.94314 0.32221 0.21803 0.0
C437 C 0.99098 0.2461 0.26503 0.0
O438 O 1.00044 0.2109 0.24714 0.0
N439 N 0.91146 0.1676 0.25825 0.0
C440 C 0.91259 0.15161 0.2863 0.0
C441 C 0.93218 0.10699 0.28694 0.0
C442 C 0.93173 0.13231 0.24226 0.0
N443 N 0.94437 0.09486 0.25933 0.0
C444 C 0.81454 0.20667 0.28226 0.0
C445 C 0.82883 0.27484 0.32503 0.0
C446 C 0.79188 0.24247 0.32865 0.0
C447 C 0.78456 0.20831 0.30672 0.0
C448 C 0.85815 0.27177 0.30041 0.0
N449 N 0.85145 0.23731 0.2798 0.0
H450 H 0.80923 0.17981 0.26568 0.0
H451 H 0.88613 0.29732 0.29788 0.0
H452 H 0.90226 0.17186 0.30543 0.0
H453 H 0.93902 0.13454 0.21892 0.0
O454 O 0.84991 0.20962 0.21654 0.0
O455 O 0.92613 0.22497 0.20966 0.0
O456 O 0.94805 0.25791 0.26968 0.0
C457 C 0.88537 0.21398 0.1984 0.0
H458 H 0.89333 0.4003 0.20609 0.0
H459 H 0.9396 0.08618 0.30648 0.0
H460 H 0.83519 0.30222 0.3412 0.0
H461 H 0.75688 0.18219 0.30885 0.0
Co462 Co 0.24323 0.10936 0.78474 0.0
C463 C 0.33191 0.16247 0.78578 0.0
C464 C 0.34445 0.08904 0.7954 0.0
C465 C 0.38621 0.11345 0.79934 0.0
N466 N 0.31064 0.11993 0.7868 0.0
N467 N 0.37807 0.15949 0.79319 0.0
H468 H 0.3134 0.19525 0.78099 0.0
H469 H 0.33867 0.05187 0.79969 0.0
C470 C 0.24451 0.02933 0.73908 0.0
O471 O 0.21795 0.05118 0.7195 0.0
N472 N 0.17464 0.0992 0.78402 0.0
C473 C 0.14201 0.1294 0.79498 0.0
C474 C 0.09842 0.10817 0.79487 0.0
C475 C 0.14996 0.05927 0.77802 0.0
N476 N 0.10312 0.06391 0.78424 0.0
C477 C 0.211 0.18451 0.74547 0.0
C478 C 0.27275 0.16261 0.70021 0.0
C479 C 0.24145 0.20081 0.69642 0.0
C480 C 0.21027 0.21165 0.71954 0.0
C481 C 0.27248 0.13669 0.72642 0.0
N482 N 0.24095 0.14669 0.74839 0.0
H483 H 0.1881 0.19463 0.76333 0.0
H484 H 0.29797 0.10834 0.72905 0.0
H485 H 0.14935 0.16411 0.80373 0.0
H486 H 0.16591 0.0273 0.76978 0.0
O487 O 0.23665 0.15825 0.81499 0.0
O488 O 0.24559 0.08118 0.82277 0.0
O489 O 0.25557 0.04861 0.76343 0.0
C490 C 0.24231 0.12334 0.83365 0.0
H491 H 0.41985 0.09867 0.80636 0.0
H492 H 0.06597 0.12377 0.8031 0.0
H493 H 0.29716 0.15245 0.68296 0.0
H494 H 0.18613 0.24144 0.71783 0.0
Co495 Co 0.10614 0.79343 0.24412 0.0
C496 C 0.1581 0.70519 0.25791 0.0
C497 C 0.08323 0.69351 0.25444 0.0
C498 C 0.10542 0.65058 0.25874 0.0
N499 N 0.11625 0.72768 0.25411 0.0
N500 N 0.15245 0.65801 0.26093 0.0
H501 H 0.19203 0.72281 0.25751 0.0
H502 H 0.04593 0.69896 0.25019 0.0
C503 C 1.00406 0.7955 0.25083 0.0
O504 O 1.00413 0.81466 0.22445 0.0
N505 N 0.09534 0.85993 0.23406 0.0
C506 C 0.10812 0.88245 0.20912 0.0
C507 C 0.08759 0.92675 0.20868 0.0
C508 C 0.06787 0.89155 0.24866 0.0
N509 N 0.06167 0.93244 0.23335 0.0
C510 C 0.18224 0.8326 0.27823 0.0
C511 C 0.14947 0.80196 0.33233 0.0
C512 C 0.19485 0.82184 0.33091 0.0
C513 C 0.21084 0.83796 0.30336 0.0
C514 C 0.12247 0.79661 0.30675 0.0
N515 N 0.13909 0.81135 0.28006 0.0
H516 H 0.19562 0.84354 0.25701 0.0
H517 H 0.08918 0.77834 0.30838 0.0
H518 H 0.1294 0.86749 0.1917 0.0
H519 H 0.05205 0.88418 0.26982 0.0
O520 O 0.15926 0.78875 0.2165 0.0
O521 O 0.08421 0.77351 0.20615 0.0
O522 O 0.04326 0.79053 0.26459 0.0
C523 C 0.12804 0.77288 0.19777 0.0
H524 H 0.08851 0.61632 0.25855 0.0
H525 H 0.08991 0.95203 0.19081 0.0
H526 H 0.13533 0.78926 0.35302 0.0
H527 H 0.24594 0.8526 0.3009 0.0
C528 C 0.25336 0.08824 0.91275 0.0
C529 C 0.28615 0.12063 0.92434 0.0
C530 C 0.23615 0.09248 0.88408 0.0
C531 C 0.25103 0.12911 0.86547 0.0
H532 H 0.2407 0.05893 0.92591 0.0
H533 H 0.21229 0.06552 0.87598 0.0
S534 S 0.33518 0.2243 0.88497 0.0
N535 N 0.33122 0.19221 0.91535 0.0
N536 N 0.29976 0.19926 0.86057 0.0
C537 C 0.28246 0.16296 0.87685 0.0
C538 C 0.29984 0.1589 0.90649 0.0
C539 C 0.17716 0.75443 0.12065 0.0
C540 C 0.14891 0.71684 0.11049 0.0
C541 C 0.17311 0.77103 0.14984 0.0
C542 C 0.14052 0.75054 0.16939 0.0
H543 H 0.19943 0.77359 0.10542 0.0
H544 H 0.19288 0.802 0.15642 0.0
S545 S 0.06589 0.64546 0.15496 0.0
N546 N 0.09282 0.65564 0.12337 0.0
N547 N 0.08542 0.68621 0.1779 0.0
C548 C 0.11569 0.71022 0.16015 0.0
C549 C 0.11987 0.69348 0.13075 0.0
C550 C 0.75585 0.84023 0.88501 0.0
C551 C 0.77292 0.87474 0.90456 0.0
C552 C 0.77327 0.83745 0.856 0.0
C553 C 0.80849 0.86874 0.84614 0.0
H554 H 0.72688 0.81756 0.89148 0.0
H555 H 0.75638 0.81358 0.84063 0.0
S556 S 0.87121 0.95843 0.89069 0.0
N557 N 0.83186 0.9356 0.91338 0.0
N558 N 0.86416 0.93028 0.85918 0.0
C559 C 0.8287 0.90007 0.86639 0.0
C560 C 0.81097 0.90314 0.89558 0.0
C561 C 0.92089 0.21641 0.11934 0.0
C562 C 0.88834 0.24863 0.10678 0.0
C563 C 0.91663 0.20129 0.14849 0.0
C564 C 0.87944 0.21739 0.16626 0.0
H565 H 0.95104 0.20374 0.10685 0.0
H566 H 0.94425 0.1789 0.1577 0.0
S567 S 0.7829 0.29941 0.14367 0.0
N568 N 0.81583 0.2938 0.1138 0.0
N569 N 0.80786 0.26542 0.16905 0.0
C570 C 0.8448 0.24722 0.15359 0.0
C571 C 0.84923 0.26284 0.12369 0.0
C572 C 0.22382 0.42916 0.37269 0.0
C573 C 0.25328 0.39365 0.36094 0.0
C574 C 0.20648 0.42629 0.40144 0.0
C575 C 0.21799 0.38793 0.41989 0.0
H576 H 0.21463 0.46009 0.35974 0.0
H577 H 0.18572 0.45568 0.40981 0.0
S578 S 0.29281 0.28475 0.39966 0.0
N579 N 0.29156 0.31765 0.36953 0.0
N580 N 0.25987 0.31283 0.42415 0.0
C581 C 0.24575 0.35102 0.40813 0.0
C582 C 0.26323 0.35378 0.37853 0.0
C583 C 0.39621 0.70884 0.64076 0.0
C584 C 0.36721 0.72933 0.66233 0.0
C585 C 0.39756 0.72711 0.6122 0.0
C586 C 0.37015 0.76677 0.60408 0.0
H587 H 0.42046 0.68042 0.64655 0.0
H588 H 0.42206 0.71131 0.59667 0.0
S589 S 0.2856 0.83126 0.65173 0.0
N590 N 0.30792 0.78948 0.67328 0.0
N591 N 0.31038 0.8238 0.61908 0.0
C592 C 0.33829 0.78555 0.62468 0.0
C593 C 0.33686 0.76678 0.65401 0.0
C594 C 0.77306 0.67442 0.38364 0.0
C595 C 0.74931 0.64593 0.40417 0.0
C596 C 0.75796 0.67605 0.35408 0.0
C597 C 0.71864 0.64961 0.34469 0.0
H598 H 0.80533 0.69241 0.38986 0.0
H599 H 0.77949 0.69458 0.33811 0.0
S600 S 0.6395 0.57752 0.39124 0.0
N601 N 0.68065 0.59685 0.41408 0.0
N602 N 0.65291 0.59972 0.35867 0.0
C603 C 0.69228 0.62487 0.36563 0.0
C604 C 0.70749 0.6231 0.39543 0.0
C605 C 0.67254 0.27858 0.61771 0.0
C606 C 0.65068 0.23631 0.60869 0.0
C607 C 0.67198 0.29248 0.6475 0.0
C608 C 0.64925 0.26443 0.66868 0.0
H609 H 0.68632 0.30289 0.60141 0.0
H610 H 0.68589 0.32677 0.65352 0.0
S611 S 0.59356 0.14752 0.65651 0.0
N612 N 0.61089 0.16447 0.62345 0.0
N613 N 0.60989 0.19006 0.67916 0.0
C614 C 0.63107 0.22035 0.66009 0.0
C615 C 0.63173 0.20638 0.63007 0.0
C616 C 0.26741 0.9218 0.02932 0.0
C617 C 0.25386 0.96902 0.03472 0.0
C618 C 0.23528 0.8846 0.03265 0.0
C619 C 0.18831 0.89329 0.04133 0.0
H620 H 0.30238 0.91364 0.0209 0.0
H621 H 0.2464 0.84928 0.02646 0.0
S622 S 0.1368 0.00898 0.06278 0.0
N623 N 0.19154 0.02137 0.05282 0.0
N624 N 0.13132 0.95121 0.05883 0.0
C625 C 0.1753 0.93963 0.04903 0.0
C626 C 0.20807 0.97755 0.04589 0.0
C627 C 0.95095 0.75121 0.98964 0.0
C628 C 0.97905 0.75611 0.01503 0.0
C629 C 0.91379 0.78342 0.98375 0.0
C630 C 0.9048 0.82177 1.00273 0.0
H631 H 0.95718 0.72208 0.97465 0.0
H632 H 0.89242 0.77888 0.96413 0.0
S633 S 0.96885 0.85004 0.07167 0.0
N634 N 0.9952 0.80182 0.05921 0.0
N635 N 0.92672 0.86266 0.04757 0.0
C636 C 0.93304 0.82704 0.02788 0.0
C637 C 0.96984 0.79407 0.03418 0.0
C638 C 0.75776 0.08195 0.99097 0.0
C639 C 0.75635 0.03853 1.00622 0.0
C640 C 0.79177 0.11616 0.9977 0.0
C641 C 0.82583 0.10817 0.01979 0.0
H642 H 0.73407 0.08871 0.97262 0.0
H643 H 0.79304 0.14803 0.98446 0.0
S644 S 0.83243 1.00476 0.06991 0.0
N645 N 0.78813 0.99267 0.0474 0.0
N646 N 0.85235 0.05699 0.05957 0.0
C647 C 0.82273 0.06671 0.0367 0.0
C648 C 0.78774 0.03201 0.03014 0.0
C649 C 0.11888 0.22729 1.0032 0.0
C650 C 0.12558 0.19376 0.9808 0.0
C651 C 0.07946 0.25766 1.0029 0.0
C652 C 0.04612 0.25633 0.97982 0.0
H653 H 0.14237 0.22769 0.02209 0.0
H654 H 0.07354 0.2805 0.0217 0.0
S655 S 0.05124 0.17945 0.91399 0.0
N656 N 0.09844 0.16417 0.93349 0.0
N657 N 0.02456 0.2219 0.93278 0.0
C658 C 0.05444 0.22566 0.95615 0.0
C659 C 0.09415 0.19412 0.9567 0.0
C660 C 0.23056 0.62667 0.24579 0.0
C661 C 0.18901 0.62232 0.26256 0.0
C662 C 0.26536 0.591 0.24598 0.0
C663 C 0.25996 0.54959 0.26298 0.0
H664 H 0.23565 0.65733 0.23185 0.0
H665 H 0.29631 0.59562 0.23225 0.0
S666 S 0.16005 0.5241 0.31343 0.0
N667 N 0.14597 0.57538 0.29825 0.0
N668 N 0.21146 0.50882 0.29897 0.0
C669 C 0.21919 0.54571 0.28052 0.0
C670 C 0.18371 0.5819 0.28021 0.0
C671 C 0.58559 0.82659 0.78366 0.0
C672 C 0.6294 0.81999 0.7693 0.0
C673 C 0.54665 0.7971 0.77791 0.0
C674 C 0.54998 0.75988 0.75747 0.0
H675 H 0.58091 0.85569 0.79885 0.0
H676 H 0.51309 0.80522 0.7883 0.0
S677 S 0.65764 0.72452 0.71586 0.0
N678 N 0.67405 0.77135 0.73485 0.0
N679 N 0.60191 0.71529 0.72492 0.0
C680 C 0.59437 0.75106 0.74438 0.0
C681 C 0.6338 0.78121 0.75005 0.0
C682 C 0.79006 0.4253 0.19965 0.0
C683 C 0.79751 0.396 0.22438 0.0
C684 C 0.75867 0.4641 0.20081 0.0
C685 C 0.73446 0.47511 0.22693 0.0
H686 H 0.80989 0.41903 0.17963 0.0
H687 H 0.75573 0.48729 0.18187 0.0
S688 S 0.7404 0.40877 0.29735 0.0
N689 N 0.77647 0.37961 0.27519 0.0
N690 N 0.71854 0.45296 0.2776 0.0
C691 C 0.74026 0.44507 0.25137 0.0
C692 C 0.77146 0.4053 0.25004 0.0
C693 C 0.44443 0.2009 0.81751 0.0
C694 C 0.41182 0.19744 0.7941 0.0
C695 C 0.48073 0.23475 0.8171 0.0
C696 C 0.48586 0.26561 0.79303 0.0
H697 H 0.44259 0.17635 0.8358 0.0
H698 H 0.5068 0.2345 0.83465 0.0
S699 S 0.4085 0.27226 0.72703 0.0
N700 N 0.38565 0.2293 0.74707 0.0
N701 N 0.45423 0.29212 0.746 0.0
C702 C 0.45224 0.2638 0.77019 0.0
C703 C 0.41507 0.22993 0.7708 0.0
C704 C 0.75395 0.43337 0.49076 0.0
C705 C 0.7577 0.47656 0.50595 0.0
C706 C 0.7223 0.39846 0.49991 0.0
C707 C 0.69311 0.40536 0.52458 0.0
H708 H 0.77399 0.42715 0.47081 0.0
H709 H 0.71906 0.36675 0.48673 0.0
S710 S 0.69425 0.5085 0.57481 0.0
N711 N 0.73313 0.52179 0.54904 0.0
N712 N 0.6737 0.45577 0.56609 0.0
C713 C 0.69851 0.4469 0.54109 0.0
C714 C 0.73093 0.4825 0.53188 0.0
C715 C 0.4433 0.26581 0.51128 0.0
C716 C 0.47424 0.25901 0.4874 0.0
C717 C 0.40376 0.29574 0.50889 0.0
C718 C 0.39453 0.32087 0.48277 0.0
H719 H 0.45074 0.24917 0.53233 0.0
H720 H 0.38174 0.30137 0.52808 0.0
S721 S 0.46261 0.31293 0.41328 0.0
N722 N 0.49123 0.27735 0.43622 0.0
N723 N 0.41727 0.33462 0.43195 0.0
C724 C 0.42396 0.3129 0.45835 0.0
C725 C 0.46373 0.2816 0.46059 0.0
C726 C 0.33563 0.57936 0.5366 0.0
C727 C 0.32504 0.62359 0.52384 0.0
C728 C 0.30322 0.54197 0.53546 0.0
C729 C 0.25892 0.54743 0.52151 0.0
H730 H 0.36956 0.57332 0.54714 0.0
H731 H 0.31385 0.50806 0.54454 0.0
S732 S 0.21294 0.65721 0.48606 0.0
N733 N 0.26661 0.67101 0.49743 0.0
N734 N 0.20498 0.6019 0.49643 0.0
C735 C 0.24699 0.59231 0.50999 0.0
C736 C 0.28021 0.63007 0.51081 0.0
C737 C 0.53908 0.73775 0.48513 0.0
C738 C 0.54441 0.77405 0.50604 0.0
C739 C 0.57605 0.70561 0.47955 0.0
C740 C 0.61998 0.70938 0.49405 0.0
H741 H 0.50512 0.73179 0.47467 0.0
H742 H 0.56967 0.67646 0.46465 0.0
S743 S 0.65495 0.80318 0.54655 0.0
N744 N 0.59931 0.81568 0.53818 0.0
N745 N 0.6686 0.75546 0.52739 0.0
C746 C 0.62726 0.74812 0.51276 0.0
C747 C 0.58954 0.7805 0.51875 0.0
C748 C 0.72825 0.03622 0.7332 0.0
C749 C 0.77055 0.04224 0.74919 0.0
C750 C 0.69433 0.07262 0.73148 0.0
C751 C 0.7016 0.1164 0.74548 0.0
H752 H 0.71985 1.00231 0.72349 0.0
H753 H 0.66158 0.06599 0.71979 0.0
S754 S 0.80916 0.15195 0.78697 0.0
N755 N 0.8202 0.09722 0.77636 0.0
N756 N 0.75594 0.16469 0.77405 0.0
C757 C 0.74512 0.12388 0.75983 0.0
C758 C 0.77975 0.08705 0.76137 0.0
C759 C 0.05756 0.35959 0.27887 0.0
C760 C 0.10503 0.34456 0.27804 0.0
C761 C 0.02045 0.32696 0.27709 0.0
C762 C 0.02968 0.27823 0.27377 0.0
H763 H 0.04924 0.39699 0.27991 0.0
H764 H 0.98444 0.34036 0.27646 0.0
S765 S 0.14807 0.22073 0.27224 0.0
N766 N 0.15935 0.27774 0.27534 0.0
N767 N 0.08979 0.21638 0.27182 0.0
C768 C 0.07704 0.26264 0.27437 0.0
C769 C 0.11471 0.29581 0.27652 0.0
C770 C 0.32316 0.93434 0.70721 0.0
C771 C 0.32467 0.90087 0.73025 0.0
C772 C 0.29338 0.97427 0.70869 0.0
C773 C 0.26475 0.98212 0.73346 0.0
H774 H 0.34631 0.93034 0.68839 0.0
H775 H 0.29521 1.00064 0.69139 0.0
S776 S 0.25276 0.90356 0.79845 0.0
N777 N 0.2924 0.87685 0.7775 0.0
N778 N 0.23695 0.95189 0.78039 0.0
C779 C 0.26399 0.94766 0.75579 0.0
C780 C 0.2938 0.90695 0.75416 0.0
C781 C 0.92106 0.76832 0.24223 0.0
C782 C 0.96162 0.76866 0.26042 0.0
C783 C 0.88472 0.7355 0.24656 0.0
C784 C 0.88753 0.70163 0.26917 0.0
H785 H 0.91831 0.79193 0.22348 0.0
H786 H 0.85545 0.73498 0.23111 0.0
S787 S 0.98112 0.69302 0.3264 0.0
N788 N 0.99876 0.73623 0.30461 0.0
N789 N 0.93036 0.67461 0.31255 0.0
C790 C 0.92584 0.70387 0.28893 0.0
C791 C 0.96278 0.7375 0.28469 0.0
C792 C 0.487 0.02678 0.97233 0.0
C793 C 0.47044 0.02533 1.00153 0.0
C794 C 0.52591 0.99901 0.96332 0.0
C795 C 0.54991 0.96884 0.9832 0.0
H796 H 0.47032 0.05025 0.95648 0.0
H797 H 0.53791 1.00183 0.94077 0.0
S798 S 0.51709 0.947 0.06094 0.0
N799 N 0.47854 0.98716 0.04946 0.0
N800 N 0.55199 0.9363 0.03259 0.0
C801 C 0.53302 0.9661 0.01217 0.0
C802 C 0.49323 0.99393 0.02131 0.0
C803 C 0.01266 0.53547 0.01977 0.0
C804 C 0.06069 0.53066 0.02775 0.0
C805 C 0.98138 0.4972 0.02153 0.0
C806 C 0.99676 0.4523 0.03109 0.0
H807 H 0.99905 0.56911 0.01197 0.0
H808 H 0.94473 0.50273 0.01528 0.0
S809 S 0.11804 0.42085 0.05594 0.0
N810 N 0.12154 0.47726 0.0467 0.0
N811 N 0.06274 0.4053 0.04938 0.0
C812 C 0.04463 0.44665 0.03891 0.0
C813 C 0.07655 0.48579 0.03739 0.0
C814 C 0.54411 0.48959 0.26857 0.0
C815 C 0.54466 0.53321 0.28324 0.0
C816 C 0.50645 0.45793 0.27232 0.0
C817 C 0.46808 0.46846 0.29116 0.0
H818 H 0.5719 0.4809 0.25307 0.0
H819 H 0.50656 0.42584 0.25937 0.0
S820 S 0.45731 0.57501 0.33833 0.0
N821 N 0.50663 0.58338 0.31961 0.0
N822 N 0.43643 0.52354 0.32726 0.0
C823 C 0.46978 0.51093 0.30722 0.0
C824 C 0.50792 0.54333 0.30315 0.0
C825 C 0.50132 0.46782 0.7614 0.0
C826 C 0.53694 0.46659 0.73975 0.0
C827 C 0.4694 0.50614 0.7633 0.0
C828 C 0.47219 0.54481 0.74379 0.0
H829 H 0.49883 0.43952 0.7774 0.0
H830 H 0.44295 0.50607 0.78052 0.0
S831 S 0.55405 0.55588 0.68056 0.0
N832 N 0.56925 0.50535 0.69633 0.0
N833 N 0.51027 0.57747 0.70057 0.0
C834 C 0.50651 0.54334 0.72152 0.0
C835 C 0.53858 0.50423 0.71932 0.0
C836 C 0.98796 0.50592 0.46303 0.0
C837 C 0.9651 0.53679 0.48284 0.0
C838 C 0.02691 0.47798 0.47187 0.0
C839 C 0.04473 0.48 0.50082 0.0
H840 H 0.97522 0.50297 0.4406 0.0
H841 H 0.04288 0.45422 0.45602 0.0
S842 S 1.00083 0.55982 0.55999 0.0
N843 N 0.96495 0.57019 0.53193 0.0
N844 N 0.03864 0.51915 0.54849 0.0
C845 C 0.02281 0.51184 0.52059 0.0
C846 C 0.9829 0.53978 0.51163 0.0
C847 C 0.53584 0.01734 0.54866 0.0
C848 C 0.52668 0.05967 0.53312 0.0
C849 C 0.50382 0.97971 0.54825 0.0
C850 C 0.4609 0.98301 0.53272 0.0
H851 H 0.5681 0.01308 0.56131 0.0
H852 H 0.5125 0.9478 0.56039 0.0
S853 S 0.41969 0.08494 0.48788 0.0
N854 N 0.47148 0.10179 0.50105 0.0
N855 N 0.41066 0.03134 0.50119 0.0
C856 C 0.45063 0.02515 0.51749 0.0
C857 C 0.48361 0.06342 0.51751 0.0
C858 C 0.9802 0.01457 0.77299 0.0
C859 C 0.9877 0.96546 0.77301 0.0
C860 C 0.01802 0.04611 0.77648 0.0
C861 C 0.06503 0.02998 0.78065 0.0
H862 H 0.94497 0.02873 0.76923 0.0
H863 H 0.01026 0.08358 0.77529 0.0
S864 S 0.10222 0.90381 0.7855 0.0
N865 N 0.04471 0.90166 0.77895 0.0
N866 N 0.11566 0.96054 0.78682 0.0
C867 C 0.07265 0.98061 0.78161 0.0
C868 C 0.03406 0.94853 0.77752 0.0
C869 C 0.01343 0.05772 0.23481 0.0
C870 C 0.97169 0.05345 0.25134 0.0
C871 C 0.04275 0.01824 0.22939 0.0
C872 C 0.03134 0.97272 0.24004 0.0
H873 H 0.0242 0.0921 0.22678 0.0
H874 H 0.07505 0.02364 0.2171 0.0
S875 S 0.92273 0.94242 0.28193 0.0
N876 N 0.91885 1.00019 0.27697 0.0
N877 N 0.97264 0.92581 0.26603 0.0
C878 C 0.98879 0.96797 0.25594 0.0
C879 C 0.95934 0.00832 0.26172 0.0
C880 C 0.25389 0.27552 0.15576 0.0
C881 C 0.29707 0.2902 0.16814 0.0
C882 C 0.25261 0.24989 0.12934 0.0
C883 C 0.2945 0.23758 0.11431 0.0
H884 H 0.22075 0.28433 0.16646 0.0
H885 H 0.21844 0.23974 0.12056 0.0
S886 S 0.41692 0.2651 0.13866 0.0
N887 N 0.38279 0.28947 0.16399 0.0
N888 N 0.38061 0.2405 0.11465 0.0
C889 C 0.33798 0.25187 0.1266 0.0
C890 C 0.3392 0.2783 0.15342 0.0
C891 C 0.24677 0.74792 0.86274 0.0
C892 C 0.29179 0.72629 0.86075 0.0
C893 C 0.2198 0.74546 0.88869 0.0
C894 C 0.23681 0.72153 0.91381 0.0
H895 H 0.23234 0.76729 0.84414 0.0
H896 H 0.1856 0.76301 0.88922 0.0
S897 S 0.35059 0.65579 0.9196 0.0
N898 N 0.35077 0.67779 0.88589 0.0
N899 N 0.30047 0.67382 0.93463 0.0
C900 C 0.28151 0.69941 0.91209 0.0
C901 C 0.30887 0.70167 0.88564 0.0
C902 C 0.74209 0.74606 0.09936 0.0
C903 C 0.70197 0.77317 0.09174 0.0
C904 C 0.74386 0.72023 0.1258 0.0
C905 C 0.70538 0.72015 0.14551 0.0
H906 H 0.77286 0.74589 0.08516 0.0
H907 H 0.77615 0.70118 0.13114 0.0
S908 S 0.59006 0.78148 0.13384 0.0
N909 N 0.62193 0.79631 0.10484 0.0
N910 N 0.62433 0.74663 0.15403 0.0
C911 C 0.66439 0.74592 0.1375 0.0
C912 C 0.66291 0.77267 0.11077 0.0
C913 C 0.78294 0.29646 0.86132 0.0
C914 C 0.73313 0.29656 0.86308 0.0
C915 C 0.81136 0.29541 0.88676 0.0
C916 C 0.79129 0.29457 0.91513 0.0
H917 H 0.80024 0.29638 0.84006 0.0
H918 H 0.84949 0.29541 0.88416 0.0
S919 S 0.66265 0.29463 0.93201 0.0
N920 N 0.66496 0.29678 0.8957 0.0
N921 N 0.71822 0.29316 0.94337 0.0
C922 C 0.74151 0.29479 0.91724 0.0
C923 C 0.71255 0.29606 0.89131 0.0
C924 C 0.78266 0.76753 0.5989 0.0
C925 C 0.81851 0.73356 0.59429 0.0
C926 C 0.77941 0.79243 0.62553 0.0
C927 C 0.81183 0.78426 0.64861 0.0
H928 H 0.75625 0.77419 0.58202 0.0
H929 H 0.75081 0.81774 0.62825 0.0
S930 S 0.91477 0.70214 0.64665 0.0
N931 N 0.88873 0.6951 0.61435 0.0
N932 N 0.8827 0.74192 0.66438 0.0
C933 C 0.84839 0.75105 0.64407 0.0
C934 C 0.85171 0.72572 0.61695 0.0
C935 C 0.78602 0.24533 0.38357 0.0
C936 C 0.76313 0.24288 0.35605 0.0
C937 C 0.76031 0.24428 0.40989 0.0
C938 C 0.71061 0.24085 0.40983 0.0
H939 H 0.82428 0.24727 0.38481 0.0
H940 H 0.77961 0.24628 0.43051 0.0
S941 S 0.63351 0.23498 0.34363 0.0
N942 N 0.68772 0.23851 0.33027 0.0
N943 N 0.63936 0.2355 0.37984 0.0
C944 C 0.68716 0.23902 0.38247 0.0
C945 C 0.71341 0.2401 0.35559 0.0
C946 C 0.1985 0.23998 0.65412 0.0
C947 C 0.24144 0.22905 0.66853 0.0
C948 C 0.19769 0.26537 0.62744 0.0
C949 C 0.23976 0.28125 0.61416 0.0
H950 H 0.1652 0.22833 0.66335 0.0
H951 H 0.16373 0.27323 0.61736 0.0
S952 S 0.36162 0.26216 0.64295 0.0
N953 N 0.32716 0.23692 0.66765 0.0
N954 N 0.32572 0.28332 0.61731 0.0
C955 C 0.28295 0.27048 0.62832 0.0
C956 C 0.28377 0.24472 0.65548 0.0
C957 C 0.2547 0.78215 0.4024 0.0
C958 C 0.2828 0.82101 0.41034 0.0
C959 C 0.22712 0.78271 0.37664 0.0
C960 C 0.22585 0.82243 0.35778 0.0
H961 H 0.2543 0.75077 0.41614 0.0
H962 H 0.20678 0.75146 0.3714 0.0
S963 S 0.29147 0.93435 0.36952 0.0
N964 N 0.30726 0.90067 0.39769 0.0
N965 N 0.25452 0.90239 0.34963 0.0
C966 C 0.25385 0.86165 0.36553 0.0
C967 C 0.28242 0.8608 0.39169 0.0
loop_
_geom_bond_atom_site_label_1
_geom_bond_atom_site_label_2
_geom_bond_distance
_geom_bond_site_symmetry_2
_ccdc_geom_bond_type
Co0 N4 2.148 . S
Co0 N10 2.128 . S
Co0 N20 2.194 1_556 S
Co0 O25 2.351 . S
Co0 O26 2.155 . S
Co0 O27 2.096 . S
C1 N4 1.301 . S
C1 N5 1.328 . S
C1 H6 0.930 . S
C2 C3 1.333 . S
C2 N4 1.317 . S
C2 H7 0.930 . S
C3 C2 1.333 . S
C3 N5 1.350 . S
C3 H29 0.931 . S
N4 Co0 2.148 . S
N4 C1 1.301 . S
N4 C2 1.317 . S
N5 C1 1.328 . S
N5 C3 1.350 . S
H6 C1 0.930 . S
H7 C2 0.930 . S
C8 O9 1.224 . S
C8 O27 1.247 1_554 S
O9 C8 1.224 . S
N10 Co0 2.128 . S
N10 C11 1.355 . S
N10 C13 1.311 . S
C11 N10 1.355 . S
C11 C12 1.363 . S
C11 H23 0.929 . S
C12 C11 1.363 . S
C12 N14 1.375 . S
C12 H30 0.927 1_556 S
C13 N10 1.311 . S
C13 N14 1.347 . S
C13 H24 0.929 . S
N14 C12 1.375 . S
N14 C13 1.347 . S
C15 C18 1.365 . S
C15 N20 1.328 . S
C15 H21 0.929 . S
C16 C17 1.362 . S
C16 C19 1.378 . S
C16 H31 0.929 . S
C17 C16 1.362 . S
C17 C18 1.366 . S
C18 C15 1.365 . S
C18 C17 1.366 . S
C18 H32 0.930 . S
C19 C16 1.378 . S
C19 N20 1.315 . S
C19 H22 0.930 . S
N20 Co0 2.194 1_554 S
N20 C15 1.328 . S
N20 C19 1.315 . S
H21 C15 0.929 . S
H22 C19 0.930 . S
H23 C11 0.929 . S
H24 C13 0.929 . S
O25 Co0 2.351 . S
O25 C28 1.244 . S
O26 Co0 2.155 . S
O26 C28 1.240 . S
O27 Co0 2.096 . S
O27 C8 1.247 1_556 S
C28 O25 1.244 . S
C28 O26 1.240 . S
H29 C3 0.931 . S
H30 C12 0.927 1_554 S
H31 C16 0.929 . S
H32 C18 0.930 . S
Co33 N37 2.148 . S
Co33 N43 2.128 . S
Co33 N53 2.194 1_554 S
Co33 O58 2.351 . S
Co33 O59 2.155 . S
Co33 O60 2.096 . S
C34 N37 1.301 . S
C34 N38 1.328 . S
C34 H39 0.930 . S
C35 C36 1.333 . S
C35 N37 1.317 . S
C35 H40 0.930 . S
C36 C35 1.333 . S
C36 N38 1.350 . S
C36 H62 0.931 . S
N37 Co33 2.148 . S
N37 C34 1.301 . S
N37 C35 1.317 . S
N38 C34 1.328 . S
N38 C36 1.350 . S
H39 C34 0.930 . S
H40 C35 0.930 . S
C41 O42 1.224 . S
C41 O60 1.247 1_556 S
O42 C41 1.224 . S
N43 Co33 2.128 . S
N43 C44 1.355 . S
N43 C46 1.311 . S
C44 N43 1.355 . S
C44 C45 1.363 . S
C44 H56 0.929 . S
C45 C44 1.363 . S
C45 N47 1.375 . S
C45 H63 0.927 1_554 S
C46 N43 1.311 . S
C46 N47 1.347 . S
C46 H57 0.929 . S
N47 C45 1.375 . S
N47 C46 1.347 . S
C48 C51 1.365 . S
C48 N53 1.328 . S
C48 H54 0.929 . S
C49 C50 1.362 . S
C49 C52 1.378 . S
C49 H64 0.929 . S
C50 C49 1.362 . S
C50 C51 1.366 . S
C51 C48 1.365 . S
C51 C50 1.366 . S
C51 H65 0.930 . S
C52 C49 1.378 . S
C52 N53 1.315 . S
C52 H55 0.930 . S
N53 Co33 2.194 1_556 S
N53 C48 1.328 . S
N53 C52 1.315 . S
H54 C48 0.929 . S
H55 C52 0.930 . S
H56 C44 0.929 . S
H57 C46 0.929 . S
O58 Co33 2.351 . S
O58 C61 1.244 . S
O59 Co33 2.155 . S
O59 C61 1.240 . S
O60 Co33 2.096 . S
O60 C41 1.247 1_554 S
C61 O58 1.244 . S
C61 O59 1.240 . S
H62 C36 0.931 . S
H63 C45 0.927 1_556 S
H64 C49 0.929 . S
H65 C51 0.930 . S
Co66 N70 2.148 . S
Co66 N76 2.128 . S
Co66 N86 2.194 1_556 S
Co66 O91 2.351 . S
Co66 O92 2.155 . S
Co66 O93 2.096 . S
C67 N70 1.301 . S
C67 N71 1.328 . S
C67 H72 0.930 . S
C68 C69 1.333 . S
C68 N70 1.317 . S
C68 H73 0.930 . S
C69 C68 1.333 . S
C69 N71 1.350 . S
C69 H95 0.931 . S
N70 Co66 2.148 . S
N70 C67 1.301 . S
N70 C68 1.317 . S
N71 C67 1.328 . S
N71 C69 1.350 . S
H72 C67 0.930 . S
H73 C68 0.930 . S
C74 O75 1.224 . S
C74 O93 1.247 1_554 S
O75 C74 1.224 . S
N76 Co66 2.128 . S
N76 C77 1.355 . S
N76 C79 1.311 . S
C77 N76 1.355 . S
C77 C78 1.363 . S
C77 H89 0.929 . S
C78 C77 1.363 . S
C78 N80 1.375 . S
C78 H96 0.927 1_556 S
C79 N76 1.311 . S
C79 N80 1.347 . S
C79 H90 0.929 . S
N80 C78 1.375 . S
N80 C79 1.347 . S
C81 C84 1.365 . S
C81 N86 1.328 . S
C81 H87 0.929 . S
C82 C83 1.362 . S
C82 C85 1.378 . S
C82 H97 0.929 . S
C83 C82 1.362 . S
C83 C84 1.366 . S
C84 C81 1.365 . S
C84 C83 1.366 . S
C84 H98 0.930 . S
C85 C82 1.378 . S
C85 N86 1.315 . S
C85 H88 0.930 . S
N86 Co66 2.194 1_554 S
N86 C81 1.328 . S
N86 C85 1.315 . S
H87 C81 0.929 . S
H88 C85 0.930 . S
H89 C77 0.929 . S
H90 C79 0.929 . S
O91 Co66 2.351 . S
O91 C94 1.244 . S
O92 Co66 2.155 . S
O92 C94 1.240 . S
O93 Co66 2.096 . S
O93 C74 1.247 1_556 S
C94 O91 1.244 . S
C94 O92 1.240 . S
H95 C69 0.931 . S
H96 C78 0.927 1_554 S
H97 C82 0.929 . S
H98 C84 0.930 . S
Co99 N103 2.148 . S
Co99 N109 2.128 . S
Co99 N119 2.194 1_554 S
Co99 O124 2.351 . S
Co99 O125 2.155 . S
Co99 O126 2.096 . S
C100 N103 1.301 . S
C100 N104 1.328 . S
C100 H105 0.930 . S
C101 C102 1.333 . S
C101 N103 1.317 . S
C101 H106 0.930 . S
C102 C101 1.333 . S
C102 N104 1.350 . S
C102 H128 0.931 . S
N103 Co99 2.148 . S
N103 C100 1.301 . S
N103 C101 1.317 . S
N104 C100 1.328 . S
N104 C102 1.350 . S
H105 C100 0.930 . S
H106 C101 0.930 . S
C107 O108 1.224 . S
C107 O126 1.247 1_556 S
O108 C107 1.224 . S
N109 Co99 2.128 . S
N109 C110 1.355 . S
N109 C112 1.311 . S
C110 N109 1.355 . S
C110 C111 1.363 . S
C110 H122 0.929 . S
C111 C110 1.363 . S
C111 N113 1.375 . S
C111 H129 0.927 1_554 S
C112 N109 1.311 . S
C112 N113 1.347 . S
C112 H123 0.929 . S
N113 C111 1.375 . S
N113 C112 1.347 . S
C114 C117 1.365 . S
C114 N119 1.328 . S
C114 H120 0.929 . S
C115 C116 1.362 . S
C115 C118 1.378 . S
C115 H130 0.929 . S
C116 C115 1.362 . S
C116 C117 1.366 . S
C117 C114 1.365 . S
C117 C116 1.366 . S
C117 H131 0.930 . S
C118 C115 1.378 . S
C118 N119 1.315 . S
C118 H121 0.930 . S
N119 Co99 2.194 1_556 S
N119 C114 1.328 . S
N119 C118 1.315 . S
H120 C114 0.929 . S
H121 C118 0.930 . S
H122 C110 0.929 . S
H123 C112 0.929 . S
O124 Co99 2.351 . S
O124 C127 1.244 . S
O125 Co99 2.155 . S
O125 C127 1.240 . S
O126 Co99 2.096 . S
O126 C107 1.247 1_554 S
C127 O124 1.244 . S
C127 O125 1.240 . S
H128 C102 0.931 . S
H129 C111 0.927 1_556 S
H130 C115 0.929 . S
H131 C117 0.930 . S
Co132 N136 2.148 . S
Co132 N142 2.128 . S
Co132 N152 2.194 . S
Co132 O157 2.351 . S
Co132 O158 2.155 . S
Co132 O159 2.096 . S
C133 N136 1.301 . S
C133 N137 1.328 . S
C133 H138 0.930 . S
C134 C135 1.333 . S
C134 N136 1.317 . S
C134 H139 0.930 . S
C135 C134 1.333 . S
C135 N137 1.350 . S
C135 H161 0.931 . S
N136 Co132 2.148 . S
N136 C133 1.301 . S
N136 C134 1.317 . S
N137 C133 1.328 . S
N137 C135 1.350 . S
H138 C133 0.930 . S
H139 C134 0.930 . S
C140 O141 1.224 . S
C140 O159 1.247 . S
O141 C140 1.224 . S
N142 Co132 2.128 . S
N142 C143 1.355 . S
N142 C145 1.311 . S
C143 N142 1.355 . S
C143 C144 1.363 . S
C143 H155 0.929 . S
C144 C143 1.363 . S
C144 N146 1.375 . S
C144 H162 0.931 . S
C145 N142 1.311 . S
C145 N146 1.347 . S
C145 H156 0.929 . S
N146 C144 1.375 . S
N146 C145 1.347 . S
C147 C150 1.365 . S
C147 N152 1.328 . S
C147 H153 0.929 . S
C148 C149 1.362 . S
C148 C151 1.378 . S
C148 H163 0.929 . S
C149 C148 1.362 . S
C149 C150 1.366 . S
C150 C147 1.365 . S
C150 C149 1.366 . S
C150 H164 0.930 . S
C151 C148 1.378 . S
C151 N152 1.315 . S
C151 H154 0.930 . S
N152 Co132 2.194 . S
N152 C147 1.328 . S
N152 C151 1.315 . S
H153 C147 0.929 . S
H154 C151 0.930 . S
H155 C143 0.929 . S
H156 C145 0.929 . S
O157 Co132 2.351 . S
O157 C160 1.244 . S
O158 Co132 2.155 . S
O158 C160 1.240 . S
O159 Co132 2.096 . S
O159 C140 1.247 . S
C160 O157 1.244 . S
C160 O158 1.240 . S
H161 C135 0.931 . S
H162 C144 0.931 . S
H163 C148 0.929 . S
H164 C150 0.930 . S
Co165 N169 2.148 . S
Co165 N175 2.128 . S
Co165 N185 2.194 . S
Co165 O190 2.351 . S
Co165 O191 2.155 . S
Co165 O192 2.096 . S
C166 N169 1.301 . S
C166 N170 1.328 . S
C166 H171 0.930 . S
C167 C168 1.333 . S
C167 N169 1.317 . S
C167 H172 0.930 . S
C168 C167 1.333 . S
C168 N170 1.350 . S
C168 H194 0.931 . S
N169 Co165 2.148 . S
N169 C166 1.301 . S
N169 C167 1.317 . S
N170 C166 1.328 . S
N170 C168 1.350 . S
H171 C166 0.930 . S
H172 C167 0.930 . S
C173 O174 1.224 . S
C173 O192 1.247 . S
O174 C173 1.224 . S
N175 Co165 2.128 . S
N175 C176 1.355 . S
N175 C178 1.311 . S
C176 N175 1.355 . S
C176 C177 1.363 . S
C176 H188 0.929 . S
C177 C176 1.363 . S
C177 N179 1.375 . S
C177 H195 0.931 . S
C178 N175 1.311 . S
C178 N179 1.347 . S
C178 H189 0.929 . S
N179 C177 1.375 . S
N179 C178 1.347 . S
C180 C183 1.365 . S
C180 N185 1.328 . S
C180 H186 0.929 . S
C181 C182 1.362 . S
C181 C184 1.378 . S
C181 H196 0.929 . S
C182 C181 1.362 . S
C182 C183 1.366 . S
C183 C180 1.365 . S
C183 C182 1.366 . S
C183 H197 0.930 . S
C184 C181 1.378 . S
C184 N185 1.315 . S
C184 H187 0.930 . S
N185 Co165 2.194 . S
N185 C180 1.328 . S
N185 C184 1.315 . S
H186 C180 0.929 . S
H187 C184 0.930 . S
H188 C176 0.929 . S
H189 C178 0.929 . S
O190 Co165 2.351 . S
O190 C193 1.244 . S
O191 Co165 2.155 . S
O191 C193 1.240 . S
O192 Co165 2.096 . S
O192 C173 1.247 . S
C193 O190 1.244 . S
C193 O191 1.240 . S
H194 C168 0.931 . S
H195 C177 0.931 . S
H196 C181 0.929 . S
H197 C183 0.930 . S
Co198 N202 2.148 . S
Co198 N208 2.128 . S
Co198 N218 2.194 . S
Co198 O223 2.351 . S
Co198 O224 2.155 . S
Co198 O225 2.096 . S
C199 N202 1.301 . S
C199 N203 1.328 . S
C199 H204 0.930 . S
C200 C201 1.333 . S
C200 N202 1.317 . S
C200 H205 0.930 . S
C201 C200 1.333 . S
C201 N203 1.350 . S
C201 H227 0.931 . S
N202 Co198 2.148 . S
N202 C199 1.301 . S
N202 C200 1.317 . S
N203 C199 1.328 . S
N203 C201 1.350 . S
H204 C199 0.930 . S
H205 C200 0.930 . S
C206 O207 1.224 . S
C206 O225 1.247 . S
O207 C206 1.224 . S
N208 Co198 2.128 . S
N208 C209 1.355 . S
N208 C211 1.311 . S
C209 N208 1.355 . S
C209 C210 1.363 . S
C209 H221 0.929 . S
C210 C209 1.363 . S
C210 N212 1.375 . S
C210 H228 0.931 . S
C211 N208 1.311 . S
C211 N212 1.347 . S
C211 H222 0.929 . S
N212 C210 1.375 . S
N212 C211 1.347 . S
C213 C216 1.365 . S
C213 N218 1.328 . S
C213 H219 0.929 . S
C214 C215 1.362 . S
C214 C217 1.378 . S
C214 H229 0.929 . S
C215 C214 1.362 . S
C215 C216 1.366 . S
C216 C213 1.365 . S
C216 C215 1.366 . S
C216 H230 0.930 . S
C217 C214 1.378 . S
C217 N218 1.315 . S
C217 H220 0.930 . S
N218 Co198 2.194 . S
N218 C213 1.328 . S
N218 C217 1.315 . S
H219 C213 0.929 . S
H220 C217 0.930 . S
H221 C209 0.929 . S
H222 C211 0.929 . S
O223 Co198 2.351 . S
O223 C226 1.244 . S
O224 Co198 2.155 . S
O224 C226 1.240 . S
O225 Co198 2.096 . S
O225 C206 1.247 . S
C226 O223 1.244 . S
C226 O224 1.240 . S
H227 C201 0.931 . S
H228 C210 0.931 . S
H229 C214 0.929 . S
H230 C216 0.930 . S
Co231 N235 2.148 . S
Co231 N241 2.128 . S
Co231 N251 2.194 . S
Co231 O256 2.351 . S
Co231 O257 2.155 . S
Co231 O258 2.096 . S
C232 N235 1.301 . S
C232 N236 1.328 . S
C232 H237 0.930 . S
C233 C234 1.333 . S
C233 N235 1.317 . S
C233 H238 0.930 . S
C234 C233 1.333 . S
C234 N236 1.350 . S
C234 H260 0.931 . S
N235 Co231 2.148 . S
N235 C232 1.301 . S
N235 C233 1.317 . S
N236 C232 1.328 . S
N236 C234 1.350 . S
H237 C232 0.930 . S
H238 C233 0.930 . S
C239 O240 1.224 . S
C239 O258 1.247 . S
O240 C239 1.224 . S
N241 Co231 2.128 . S
N241 C242 1.355 . S
N241 C244 1.311 . S
C242 N241 1.355 . S
C242 C243 1.363 . S
C242 H254 0.929 . S
C243 C242 1.363 . S
C243 N245 1.375 . S
C243 H261 0.931 . S
C244 N241 1.311 . S
C244 N245 1.347 . S
C244 H255 0.929 . S
N245 C243 1.375 . S
N245 C244 1.347 . S
C246 C249 1.365 . S
C246 N251 1.328 . S
C246 H252 0.929 . S
C247 C248 1.362 . S
C247 C250 1.378 . S
C247 H262 0.929 . S
C248 C247 1.362 . S
C248 C249 1.366 . S
C249 C246 1.365 . S
C249 C248 1.366 . S
C249 H263 0.930 . S
C250 C247 1.378 . S
C250 N251 1.315 . S
C250 H253 0.930 . S
N251 Co231 2.194 . S
N251 C246 1.328 . S
N251 C250 1.315 . S
H252 C246 0.929 . S
H253 C250 0.930 . S
H254 C242 0.929 . S
H255 C244 0.929 . S
O256 Co231 2.351 . S
O256 C259 1.244 . S
O257 Co231 2.155 . S
O257 C259 1.240 . S
O258 Co231 2.096 . S
O258 C239 1.247 . S
C259 O256 1.244 . S
C259 O257 1.240 . S
H260 C234 0.931 . S
H261 C243 0.931 . S
H262 C247 0.929 . S
H263 C249 0.930 . S
Co264 N268 2.148 . S
Co264 N274 2.128 . S
Co264 N284 2.194 . S
Co264 O289 2.351 . S
Co264 O290 2.155 . S
Co264 O291 2.096 . S
C265 N268 1.301 . S
C265 N269 1.328 . S
C265 H270 0.930 . S
C266 C267 1.333 . S
C266 N268 1.317 . S
C266 H271 0.930 . S
C267 C266 1.333 . S
C267 N269 1.350 . S
C267 H293 0.931 . S
N268 Co264 2.148 . S
N268 C265 1.301 . S
N268 C266 1.317 . S
N269 C265 1.328 . S
N269 C267 1.350 . S
H270 C265 0.930 . S
H271 C266 0.930 . S
C272 O273 1.224 . S
C272 O291 1.247 . S
O273 C272 1.224 . S
N274 Co264 2.128 . S
N274 C275 1.355 . S
N274 C277 1.311 . S
C275 N274 1.355 . S
C275 C276 1.363 . S
C275 H287 0.929 . S
C276 C275 1.363 . S
C276 N278 1.375 . S
C276 H294 0.931 . S
C277 N274 1.311 . S
C277 N278 1.347 . S
C277 H288 0.929 . S
N278 C276 1.375 . S
N278 C277 1.347 . S
C279 C282 1.365 . S
C279 N284 1.328 . S
C279 H285 0.929 . S
C280 C281 1.362 . S
C280 C283 1.378 . S
C280 H295 0.929 . S
C281 C280 1.362 . S
C281 C282 1.366 . S
C282 C279 1.365 . S
C282 C281 1.366 . S
C282 H296 0.930 . S
C283 C280 1.378 . S
C283 N284 1.315 . S
C283 H286 0.930 . S
N284 Co264 2.194 . S
N284 C279 1.328 . S
N284 C283 1.315 . S
H285 C279 0.929 . S
H286 C283 0.930 . S
H287 C275 0.929 . S
H288 C277 0.929 . S
O289 Co264 2.351 . S
O289 C292 1.244 . S
O290 Co264 2.155 . S
O290 C292 1.240 . S
O291 Co264 2.096 . S
O291 C272 1.247 . S
C292 O289 1.244 . S
C292 O290 1.240 . S
H293 C267 0.931 . S
H294 C276 0.931 . S
H295 C280 0.929 . S
H296 C282 0.930 . S
Co297 N301 2.148 . S
Co297 N307 2.128 . S
Co297 N317 2.194 . S
Co297 O322 2.351 . S
Co297 O323 2.155 . S
Co297 O324 2.096 . S
C298 N301 1.301 . S
C298 N302 1.328 . S
C298 H303 0.930 . S
C299 C300 1.333 . S
C299 N301 1.317 . S
C299 H304 0.930 . S
C300 C299 1.333 . S
C300 N302 1.350 . S
C300 H326 0.931 . S
N301 Co297 2.148 . S
N301 C298 1.301 . S
N301 C299 1.317 . S
N302 C298 1.328 . S
N302 C300 1.350 . S
H303 C298 0.930 . S
H304 C299 0.930 . S
C305 O306 1.224 . S
C305 O324 1.247 . S
O306 C305 1.224 . S
N307 Co297 2.128 . S
N307 C308 1.355 . S
N307 C310 1.311 . S
C308 N307 1.355 . S
C308 C309 1.363 . S
C308 H320 0.929 . S
C309 C308 1.363 . S
C309 N311 1.375 . S
C309 H327 0.931 . S
C310 N307 1.311 . S
C310 N311 1.347 . S
C310 H321 0.929 . S
N311 C309 1.375 . S
N311 C310 1.347 . S
C312 C315 1.365 . S
C312 N317 1.328 . S
C312 H318 0.929 . S
C313 C314 1.362 . S
C313 C316 1.378 . S
C313 H328 0.929 . S
C314 C313 1.362 . S
C314 C315 1.366 . S
C315 C312 1.365 . S
C315 C314 1.366 . S
C315 H329 0.930 . S
C316 C313 1.378 . S
C316 N317 1.315 . S
C316 H319 0.930 . S
N317 Co297 2.194 . S
N317 C312 1.328 . S
N317 C316 1.315 . S
H318 C312 0.929 . S
H319 C316 0.930 . S
H320 C308 0.929 . S
H321 C310 0.929 . S
O322 Co297 2.351 . S
O322 C325 1.244 . S
O323 Co297 2.155 . S
O323 C325 1.240 . S
O324 Co297 2.096 . S
O324 C305 1.247 . S
C325 O322 1.244 . S
C325 O323 1.240 . S
H326 C300 0.931 . S
H327 C309 0.931 . S
H328 C313 0.929 . S
H329 C315 0.930 . S
Co330 N334 2.148 . S
Co330 N340 2.128 . S
Co330 N350 2.194 . S
Co330 O355 2.351 . S
Co330 O356 2.155 . S
Co330 O357 2.096 . S
C331 N334 1.301 . S
C331 N335 1.328 . S
C331 H336 0.930 . S
C332 C333 1.333 . S
C332 N334 1.317 . S
C332 H337 0.930 . S
C333 C332 1.333 . S
C333 N335 1.350 . S
C333 H359 0.931 . S
N334 Co330 2.148 . S
N334 C331 1.301 . S
N334 C332 1.317 . S
N335 C331 1.328 . S
N335 C333 1.350 . S
H336 C331 0.930 . S
H337 C332 0.930 . S
C338 O339 1.224 . S
C338 O357 1.247 . S
O339 C338 1.224 . S
N340 Co330 2.128 . S
N340 C341 1.355 . S
N340 C343 1.311 . S
C341 N340 1.355 . S
C341 C342 1.363 . S
C341 H353 0.929 . S
C342 C341 1.363 . S
C342 N344 1.375 . S
C342 H360 0.931 . S
C343 N340 1.311 . S
C343 N344 1.347 . S
C343 H354 0.929 . S
N344 C342 1.375 . S
N344 C343 1.347 . S
C345 C348 1.365 . S
C345 N350 1.328 . S
C345 H351 0.929 . S
C346 C347 1.362 . S
C346 C349 1.378 . S
C346 H361 0.929 . S
C347 C346 1.362 . S
C347 C348 1.366 . S
C348 C345 1.365 . S
C348 C347 1.366 . S
C348 H362 0.930 . S
C349 C346 1.378 . S
C349 N350 1.315 . S
C349 H352 0.930 . S
N350 Co330 2.194 . S
N350 C345 1.328 . S
N350 C349 1.315 . S
H351 C345 0.929 . S
H352 C349 0.930 . S
H353 C341 0.929 . S
H354 C343 0.929 . S
O355 Co330 2.351 . S
O355 C358 1.244 . S
O356 Co330 2.155 . S
O356 C358 1.240 . S
O357 Co330 2.096 . S
O357 C338 1.247 . S
C358 O355 1.244 . S
C358 O356 1.240 . S
H359 C333 0.931 . S
H360 C342 0.931 . S
H361 C346 0.929 . S
H362 C348 0.930 . S
Co363 N367 2.148 . S
Co363 N373 2.128 . S
Co363 N383 2.194 . S
Co363 O388 2.351 . S
Co363 O389 2.155 . S
Co363 O390 2.096 . S
C364 N367 1.301 . S
C364 N368 1.328 . S
C364 H369 0.930 . S
C365 C366 1.333 . S
C365 N367 1.317 . S
C365 H370 0.930 . S
C366 C365 1.333 . S
C366 N368 1.350 . S
C366 H392 0.931 . S
N367 Co363 2.148 . S
N367 C364 1.301 . S
N367 C365 1.317 . S
N368 C364 1.328 . S
N368 C366 1.350 . S
H369 C364 0.930 . S
H370 C365 0.930 . S
C371 O372 1.224 . S
C371 O390 1.247 . S
O372 C371 1.224 . S
N373 Co363 2.128 . S
N373 C374 1.355 . S
N373 C376 1.311 . S
C374 N373 1.355 . S
C374 C375 1.363 . S
C374 H386 0.929 . S
C375 C374 1.363 . S
C375 N377 1.375 . S
C375 H393 0.931 . S
C376 N373 1.311 . S
C376 N377 1.347 . S
C376 H387 0.929 . S
N377 C375 1.375 . S
N377 C376 1.347 . S
C378 C381 1.365 . S
C378 N383 1.328 . S
C378 H384 0.929 . S
C379 C380 1.362 . S
C379 C382 1.378 . S
C379 H394 0.929 . S
C380 C379 1.362 . S
C380 C381 1.366 . S
C381 C378 1.365 . S
C381 C380 1.366 . S
C381 H395 0.930 . S
C382 C379 1.378 . S
C382 N383 1.315 . S
C382 H385 0.930 . S
N383 Co363 2.194 . S
N383 C378 1.328 . S
N383 C382 1.315 . S
H384 C378 0.929 . S
H385 C382 0.930 . S
H386 C374 0.929 . S
H387 C376 0.929 . S
O388 Co363 2.351 . S
O388 C391 1.244 . S
O389 Co363 2.155 . S
O389 C391 1.240 . S
O390 Co363 2.096 . S
O390 C371 1.247 . S
C391 O388 1.244 . S
C391 O389 1.240 . S
H392 C366 0.931 . S
H393 C375 0.931 . S
H394 C379 0.929 . S
H395 C381 0.930 . S
Co396 N400 2.148 . S
Co396 N406 2.128 . S
Co396 N416 2.194 . S
Co396 O421 2.351 . S
Co396 O422 2.155 . S
Co396 O423 2.096 . S
C397 N400 1.301 . S
C397 N401 1.328 . S
C397 H402 0.930 . S
C398 C399 1.333 . S
C398 N400 1.317 . S
C398 H403 0.930 . S
C399 C398 1.333 . S
C399 N401 1.350 . S
C399 H425 0.931 . S
N400 Co396 2.148 . S
N400 C397 1.301 . S
N400 C398 1.317 . S
N401 C397 1.328 . S
N401 C399 1.350 . S
H402 C397 0.930 . S
H403 C398 0.930 . S
C404 O405 1.224 . S
C404 O423 1.247 . S
O405 C404 1.224 . S
N406 Co396 2.128 . S
N406 C407 1.355 . S
N406 C409 1.311 . S
C407 N406 1.355 . S
C407 C408 1.363 . S
C407 H419 0.929 . S
C408 C407 1.363 . S
C408 N410 1.375 . S
C408 H426 0.931 . S
C409 N406 1.311 . S
C409 N410 1.347 . S
C409 H420 0.929 . S
N410 C408 1.375 . S
N410 C409 1.347 . S
C411 C414 1.365 . S
C411 N416 1.328 . S
C411 H417 0.929 . S
C412 C413 1.362 . S
C412 C415 1.378 . S
C412 H427 0.929 . S
C413 C412 1.362 . S
C413 C414 1.366 . S
C414 C411 1.365 . S
C414 C413 1.366 . S
C414 H428 0.930 . S
C415 C412 1.378 . S
C415 N416 1.315 . S
C415 H418 0.930 . S
N416 Co396 2.194 . S
N416 C411 1.328 . S
N416 C415 1.315 . S
H417 C411 0.929 . S
H418 C415 0.930 . S
H419 C407 0.929 . S
H420 C409 0.929 . S
O421 Co396 2.351 . S
O421 C424 1.244 . S
O422 Co396 2.155 . S
O422 C424 1.240 . S
O423 Co396 2.096 . S
O423 C404 1.247 . S
C424 O421 1.244 . S
C424 O422 1.240 . S
H425 C399 0.931 . S
H426 C408 0.931 . S
H427 C412 0.929 . S
H428 C414 0.930 . S
Co429 N433 2.148 . S
Co429 N439 2.128 . S
Co429 N449 2.194 . S
Co429 O454 2.351 . S
Co429 O455 2.155 . S
Co429 O456 2.096 . S
C430 N433 1.301 . S
C430 N434 1.328 . S
C430 H435 0.930 . S
C431 C432 1.333 . S
C431 N433 1.317 . S
C431 H436 0.930 . S
C432 C431 1.333 . S
C432 N434 1.350 . S
C432 H458 0.931 . S
N433 Co429 2.148 . S
N433 C430 1.301 . S
N433 C431 1.317 . S
N434 C430 1.328 . S
N434 C432 1.350 . S
H435 C430 0.930 . S
H436 C431 0.930 . S
C437 O438 1.224 . S
C437 O456 1.247 . S
O438 C437 1.224 . S
N439 Co429 2.128 . S
N439 C440 1.355 . S
N439 C442 1.311 . S
C440 N439 1.355 . S
C440 C441 1.363 . S
C440 H452 0.929 . S
C441 C440 1.363 . S
C441 N443 1.375 . S
C441 H459 0.931 . S
C442 N439 1.311 . S
C442 N443 1.347 . S
C442 H453 0.929 . S
N443 C441 1.375 . S
N443 C442 1.347 . S
C444 C447 1.365 . S
C444 N449 1.328 . S
C444 H450 0.929 . S
C445 C446 1.362 . S
C445 C448 1.378 . S
C445 H460 0.929 . S
C446 C445 1.362 . S
C446 C447 1.366 . S
C447 C444 1.365 . S
C447 C446 1.366 . S
C447 H461 0.930 . S
C448 C445 1.378 . S
C448 N449 1.315 . S
C448 H451 0.930 . S
N449 Co429 2.194 . S
N449 C444 1.328 . S
N449 C448 1.315 . S
H450 C444 0.929 . S
H451 C448 0.930 . S
H452 C440 0.929 . S
H453 C442 0.929 . S
O454 Co429 2.351 . S
O454 C457 1.244 . S
O455 Co429 2.155 . S
O455 C457 1.240 . S
O456 Co429 2.096 . S
O456 C437 1.247 . S
C457 O454 1.244 . S
C457 O455 1.240 . S
H458 C432 0.931 . S
H459 C441 0.931 . S
H460 C445 0.929 . S
H461 C447 0.930 . S
Co462 N466 2.148 . S
Co462 N472 2.128 . S
Co462 N482 2.194 . S
Co462 O487 2.351 . S
Co462 O488 2.155 . S
Co462 O489 2.096 . S
C463 N466 1.301 . S
C463 N467 1.328 . S
C463 H468 0.930 . S
C464 C465 1.333 . S
C464 N466 1.317 . S
C464 H469 0.930 . S
C465 C464 1.333 . S
C465 N467 1.350 . S
C465 H491 0.931 . S
N466 Co462 2.148 . S
N466 C463 1.301 . S
N466 C464 1.317 . S
N467 C463 1.328 . S
N467 C465 1.350 . S
H468 C463 0.930 . S
H469 C464 0.930 . S
C470 O471 1.224 . S
C470 O489 1.247 . S
O471 C470 1.224 . S
N472 Co462 2.128 . S
N472 C473 1.355 . S
N472 C475 1.311 . S
C473 N472 1.355 . S
C473 C474 1.363 . S
C473 H485 0.929 . S
C474 C473 1.363 . S
C474 N476 1.375 . S
C474 H492 0.931 . S
C475 N472 1.311 . S
C475 N476 1.347 . S
C475 H486 0.929 . S
N476 C474 1.375 . S
N476 C475 1.347 . S
C477 C480 1.365 . S
C477 N482 1.328 . S
C477 H483 0.929 . S
C478 C479 1.362 . S
C478 C481 1.378 . S
C478 H493 0.929 . S
C479 C478 1.362 . S
C479 C480 1.366 . S
C480 C477 1.365 . S
C480 C479 1.366 . S
C480 H494 0.930 . S
C481 C478 1.378 . S
C481 N482 1.315 . S
C481 H484 0.930 . S
N482 Co462 2.194 . S
N482 C477 1.328 . S
N482 C481 1.315 . S
H483 C477 0.929 . S
H484 C481 0.930 . S
H485 C473 0.929 . S
H486 C475 0.929 . S
O487 Co462 2.351 . S
O487 C490 1.244 . S
O488 Co462 2.155 . S
O488 C490 1.240 . S
O489 Co462 2.096 . S
O489 C470 1.247 . S
C490 O487 1.244 . S
C490 O488 1.240 . S
H491 C465 0.931 . S
H492 C474 0.931 . S
H493 C478 0.929 . S
H494 C480 0.930 . S
Co495 N499 2.148 . S
Co495 N505 2.128 . S
Co495 N515 2.194 . S
Co495 O520 2.351 . S
Co495 O521 2.155 . S
Co495 O522 2.096 . S
C496 N499 1.301 . S
C496 N500 1.328 . S
C496 H501 0.930 . S
C497 C498 1.333 . S
C497 N499 1.317 . S
C497 H502 0.930 . S
C498 C497 1.333 . S
C498 N500 1.350 . S
C498 H524 0.931 . S
N499 Co495 2.148 . S
N499 C496 1.301 . S
N499 C497 1.317 . S
N500 C496 1.328 . S
N500 C498 1.350 . S
H501 C496 0.930 . S
H502 C497 0.930 . S
C503 O504 1.224 . S
C503 O522 1.247 . S
O504 C503 1.224 . S
N505 Co495 2.128 . S
N505 C506 1.355 . S
N505 C508 1.311 . S
C506 N505 1.355 . S
C506 C507 1.363 . S
C506 H518 0.929 . S
C507 C506 1.363 . S
C507 N509 1.375 . S
C507 H525 0.931 . S
C508 N505 1.311 . S
C508 N509 1.347 . S
C508 H519 0.929 . S
N509 C507 1.375 . S
N509 C508 1.347 . S
C510 C513 1.365 . S
C510 N515 1.328 . S
C510 H516 0.929 . S
C511 C512 1.362 . S
C511 C514 1.378 . S
C511 H526 0.929 . S
C512 C511 1.362 . S
C512 C513 1.366 . S
C513 C510 1.365 . S
C513 C512 1.366 . S
C513 H527 0.930 . S
C514 C511 1.378 . S
C514 N515 1.315 . S
C514 H517 0.930 . S
N515 Co495 2.194 . S
N515 C510 1.328 . S
N515 C514 1.315 . S
H516 C510 0.929 . S
H517 C514 0.930 . S
H518 C506 0.929 . S
H519 C508 0.929 . S
O520 Co495 2.351 . S
O520 C523 1.244 . S
O521 Co495 2.155 . S
O521 C523 1.240 . S
O522 Co495 2.096 . S
O522 C503 1.247 . S
C523 O520 1.244 . S
C523 O521 1.240 . S
H524 C498 0.931 . S
H525 C507 0.931 . S
H526 C511 0.929 . S
H527 C513 0.930 . S
C528 C529 1.369 . S
C528 C530 1.419 . S
C528 H532 0.930 . S
C529 C528 1.369 . S
C529 C538 1.429 . S
C530 C528 1.419 . S
C530 C531 1.363 . S
C530 H533 0.929 . S
C531 C530 1.363 . S
C531 C537 1.428 . S
H532 C528 0.930 . S
H533 C530 0.929 . S
S534 N535 1.613 . S
S534 N536 1.610 . S
N535 S534 1.613 . S
N535 C538 1.350 . S
N536 S534 1.610 . S
N536 C537 1.351 . S
C537 C531 1.428 . S
C537 N536 1.351 . S
C537 C538 1.434 . S
C538 C529 1.429 . S
C538 N535 1.350 . S
C538 C537 1.434 . S
C539 C540 1.369 . S
C539 C541 1.419 . S
C539 H543 0.930 . S
C540 C539 1.369 . S
C540 C549 1.429 . S
C541 C539 1.419 . S
C541 C542 1.363 . S
C541 H544 0.929 . S
C542 C541 1.363 . S
C542 C548 1.428 . S
H543 C539 0.930 . S
H544 C541 0.929 . S
S545 N546 1.613 . S
S545 N547 1.610 . S
N546 S545 1.613 . S
N546 C549 1.350 . S
N547 S545 1.610 . S
N547 C548 1.351 . S
C548 C542 1.428 . S
C548 N547 1.351 . S
C548 C549 1.434 . S
C549 C540 1.429 . S
C549 N546 1.350 . S
C549 C548 1.434 . S
C550 C551 1.369 . S
C550 C552 1.419 . S
C550 H554 0.930 . S
C551 C550 1.369 . S
C551 C560 1.429 . S
C552 C550 1.419 . S
C552 C553 1.363 . S
C552 H555 0.929 . S
C553 C552 1.363 . S
C553 C559 1.428 . S
H554 C550 0.930 . S
H555 C552 0.929 . S
S556 N557 1.613 . S
S556 N558 1.610 . S
N557 S556 1.613 . S
N557 C560 1.350 . S
N558 S556 1.610 . S
N558 C559 1.351 . S
C559 C553 1.428 . S
C559 N558 1.351 . S
C559 C560 1.434 . S
C560 C551 1.429 . S
C560 N557 1.350 . S
C560 C559 1.434 . S
C561 C562 1.369 . S
C561 C563 1.419 . S
C561 H565 0.930 . S
C562 C561 1.369 . S
C562 C571 1.429 . S
C563 C561 1.419 . S
C563 C564 1.363 . S
C563 H566 0.929 . S
C564 C563 1.363 . S
C564 C570 1.428 . S
H565 C561 0.930 . S
H566 C563 0.929 . S
S567 N568 1.613 . S
S567 N569 1.610 . S
N568 S567 1.613 . S
N568 C571 1.350 . S
N569 S567 1.610 . S
N569 C570 1.351 . S
C570 C564 1.428 . S
C570 N569 1.351 . S
C570 C571 1.434 . S
C571 C562 1.429 . S
C571 N568 1.350 . S
C571 C570 1.434 . S
C572 C573 1.369 . S
C572 C574 1.419 . S
C572 H576 0.930 . S
C573 C572 1.369 . S
C573 C582 1.429 . S
C574 C572 1.419 . S
C574 C575 1.363 . S
C574 H577 0.929 . S
C575 C574 1.363 . S
C575 C581 1.428 . S
H576 C572 0.930 . S
H577 C574 0.929 . S
S578 N579 1.613 . S
S578 N580 1.610 . S
N579 S578 1.613 . S
N579 C582 1.350 . S
N580 S578 1.610 . S
N580 C581 1.351 . S
C581 C575 1.428 . S
C581 N580 1.351 . S
C581 C582 1.434 . S
C582 C573 1.429 . S
C582 N579 1.350 . S
C582 C581 1.434 . S
C583 C584 1.369 . S
C583 C585 1.419 . S
C583 H587 0.930 . S
C584 C583 1.369 . S
C584 C593 1.429 . S
C585 C583 1.419 . S
C585 C586 1.363 . S
C585 H588 0.929 . S
C586 C585 1.363 . S
C586 C592 1.428 . S
H587 C583 0.930 . S
H588 C585 0.929 . S
S589 N590 1.613 . S
S589 N591 1.610 . S
N590 S589 1.613 . S
N590 C593 1.350 . S
N591 S589 1.610 . S
N591 C592 1.351 . S
C592 C586 1.428 . S
C592 N591 1.351 . S
C592 C593 1.434 . S
C593 C584 1.429 . S
C593 N590 1.350 . S
C593 C592 1.434 . S
C594 C595 1.369 . S
C594 C596 1.419 . S
C594 H598 0.930 . S
C595 C594 1.369 . S
C595 C604 1.429 . S
C596 C594 1.419 . S
C596 C597 1.363 . S
C596 H599 0.929 . S
C597 C596 1.363 . S
C597 C603 1.428 . S
H598 C594 0.930 . S
H599 C596 0.929 . S
S600 N601 1.613 . S
S600 N602 1.610 . S
N601 S600 1.613 . S
N601 C604 1.350 . S
N602 S600 1.610 . S
N602 C603 1.351 . S
C603 C597 1.428 . S
C603 N602 1.351 . S
C603 C604 1.434 . S
C604 C595 1.429 . S
C604 N601 1.350 . S
C604 C603 1.434 . S
C605 C606 1.369 . S
C605 C607 1.419 . S
C605 H609 0.930 . S
C606 C605 1.369 . S
C606 C615 1.429 . S
C607 C605 1.419 . S
C607 C608 1.363 . S
C607 H610 0.929 . S
C608 C607 1.363 . S
C608 C614 1.428 . S
H609 C605 0.930 . S
H610 C607 0.929 . S
S611 N612 1.613 . S
S611 N613 1.610 . S
N612 S611 1.613 . S
N612 C615 1.350 . S
N613 S611 1.610 . S
N613 C614 1.351 . S
C614 C608 1.428 . S
C614 N613 1.351 . S
C614 C615 1.434 . S
C615 C606 1.429 . S
C615 N612 1.350 . S
C615 C614 1.434 . S
C616 C617 1.369 1_556 S
C616 C618 1.419 . S
C616 H620 0.930 . S
C617 C616 1.369 1_554 S
C617 C626 1.429 . S
C618 C616 1.419 . S
C618 C619 1.363 1_556 S
C618 H621 0.929 . S
C619 C618 1.363 1_554 S
C619 C625 1.428 . S
H620 C616 0.930 . S
H621 C618 0.929 . S
S622 N623 1.613 1_565 S
S622 N624 1.610 . S
N623 S622 1.613 1_545 S
N623 C626 1.350 1_545 S
N624 S622 1.610 . S
N624 C625 1.351 . S
C625 C619 1.428 . S
C625 N624 1.351 . S
C625 C626 1.434 . S
C626 C617 1.429 . S
C626 N623 1.350 1_565 S
C626 C625 1.434 . S
C627 C628 1.369 . S
C627 C629 1.419 . S
C627 H631 0.930 . S
C628 C627 1.369 . S
C628 C637 1.426 1_556 S
C629 C627 1.419 . S
C629 C630 1.363 . S
C629 H632 0.929 . S
C630 C629 1.363 . S
C630 C636 1.428 . S
H631 C627 0.930 . S
H632 C629 0.929 . S
S633 N634 1.613 1_655 S
S633 N635 1.610 . S
N634 S633 1.613 1_455 S
N634 C637 1.353 1_455 S
N635 S633 1.610 . S
N635 C636 1.351 1_554 S
C636 C630 1.428 . S
C636 N635 1.351 1_556 S
C636 C637 1.434 1_556 S
C637 C628 1.426 1_554 S
C637 N634 1.353 1_655 S
C637 C636 1.434 1_554 S
C638 C639 1.369 . S
C638 C640 1.419 . S
C638 H642 0.930 . S
C639 C638 1.369 . S
C639 C648 1.429 . S
C640 C638 1.419 . S
C640 C641 1.363 . S
C640 H643 0.929 . S
C641 C640 1.363 . S
C641 C647 1.428 . S
H642 C638 0.930 . S
H643 C640 0.929 . S
S644 N645 1.613 1_545 S
S644 N646 1.610 . S
N645 S644 1.613 1_565 S
N645 C648 1.350 1_565 S
N646 S644 1.610 . S
N646 C647 1.351 . S
C647 C641 1.428 . S
C647 N646 1.351 . S
C647 C648 1.434 . S
C648 C639 1.429 . S
C648 N645 1.350 1_545 S
C648 C647 1.434 . S
C649 C650 1.369 1_554 S
C649 C651 1.419 . S
C649 H653 0.930 . S
C650 C649 1.369 1_556 S
C650 C659 1.429 . S
C651 C649 1.419 . S
C651 C652 1.363 1_554 S
C651 H654 0.929 . S
C652 C651 1.363 1_556 S
C652 C658 1.428 . S
H653 C649 0.930 . S
H654 C651 0.929 . S
S655 N656 1.613 . S
S655 N657 1.610 . S
N656 S655 1.613 . S
N656 C659 1.350 . S
N657 S655 1.610 . S
N657 C658 1.351 . S
C658 C652 1.428 . S
C658 N657 1.351 . S
C658 C659 1.434 . S
C659 C650 1.429 . S
C659 N656 1.350 . S
C659 C658 1.434 . S
C660 C661 1.369 . S
C660 C662 1.419 . S
C660 H664 0.930 . S
C661 C660 1.369 . S
C661 C670 1.429 . S
C662 C660 1.419 . S
C662 C663 1.363 . S
C662 H665 0.929 . S
C663 C662 1.363 . S
C663 C669 1.428 . S
H664 C660 0.930 . S
H665 C662 0.929 . S
S666 N667 1.613 . S
S666 N668 1.610 . S
N667 S666 1.613 . S
N667 C670 1.350 . S
N668 S666 1.610 . S
N668 C669 1.351 . S
C669 C663 1.428 . S
C669 N668 1.351 . S
C669 C670 1.434 . S
C670 C661 1.429 . S
C670 N667 1.350 . S
C670 C669 1.434 . S
C671 C672 1.369 . S
C671 C673 1.419 . S
C671 H675 0.930 . S
C672 C671 1.369 . S
C672 C681 1.429 . S
C673 C671 1.419 . S
C673 C674 1.363 . S
C673 H676 0.929 . S
C674 C673 1.363 . S
C674 C680 1.428 . S
H675 C671 0.930 . S
H676 C673 0.929 . S
S677 N678 1.613 . S
S677 N679 1.610 . S
N678 S677 1.613 . S
N678 C681 1.350 . S
N679 S677 1.610 . S
N679 C680 1.351 . S
C680 C674 1.428 . S
C680 N679 1.351 . S
C680 C681 1.434 . S
C681 C672 1.429 . S
C681 N678 1.350 . S
C681 C680 1.434 . S
C682 C683 1.369 . S
C682 C684 1.419 . S
C682 H686 0.930 . S
C683 C682 1.369 . S
C683 C692 1.429 . S
C684 C682 1.419 . S
C684 C685 1.363 . S
C684 H687 0.929 . S
C685 C684 1.363 . S
C685 C691 1.428 . S
H686 C682 0.930 . S
H687 C684 0.929 . S
S688 N689 1.613 . S
S688 N690 1.610 . S
N689 S688 1.613 . S
N689 C692 1.350 . S
N690 S688 1.610 . S
N690 C691 1.351 . S
C691 C685 1.428 . S
C691 N690 1.351 . S
C691 C692 1.434 . S
C692 C683 1.429 . S
C692 N689 1.350 . S
C692 C691 1.434 . S
C693 C694 1.369 . S
C693 C695 1.419 . S
C693 H697 0.930 . S
C694 C693 1.369 . S
C694 C703 1.429 . S
C695 C693 1.419 . S
C695 C696 1.363 . S
C695 H698 0.929 . S
C696 C695 1.363 . S
C696 C702 1.428 . S
H697 C693 0.930 . S
H698 C695 0.929 . S
S699 N700 1.613 . S
S699 N701 1.610 . S
N700 S699 1.613 . S
N700 C703 1.350 . S
N701 S699 1.610 . S
N701 C702 1.351 . S
C702 C696 1.428 . S
C702 N701 1.351 . S
C702 C703 1.434 . S
C703 C694 1.429 . S
C703 N700 1.350 . S
C703 C702 1.434 . S
C704 C705 1.369 . S
C704 C706 1.419 . S
C704 H708 0.930 . S
C705 C704 1.369 . S
C705 C714 1.429 . S
C706 C704 1.419 . S
C706 C707 1.363 . S
C706 H709 0.929 . S
C707 C706 1.363 . S
C707 C713 1.428 . S
H708 C704 0.930 . S
H709 C706 0.929 . S
S710 N711 1.613 . S
S710 N712 1.610 . S
N711 S710 1.613 . S
N711 C714 1.350 . S
N712 S710 1.610 . S
N712 C713 1.351 . S
C713 C707 1.428 . S
C713 N712 1.351 . S
C713 C714 1.434 . S
C714 C705 1.429 . S
C714 N711 1.350 . S
C714 C713 1.434 . S
C715 C716 1.369 . S
C715 C717 1.419 . S
C715 H719 0.930 . S
C716 C715 1.369 . S
C716 C725 1.429 . S
C717 C715 1.419 . S
C717 C718 1.363 . S
C717 H720 0.929 . S
C718 C717 1.363 . S
C718 C724 1.428 . S
H719 C715 0.930 . S
H720 C717 0.929 . S
S721 N722 1.613 . S
S721 N723 1.610 . S
N722 S721 1.613 . S
N722 C725 1.350 . S
N723 S721 1.610 . S
N723 C724 1.351 . S
C724 C718 1.428 . S
C724 N723 1.351 . S
C724 C725 1.434 . S
C725 C716 1.429 . S
C725 N722 1.350 . S
C725 C724 1.434 . S
C726 C727 1.369 . S
C726 C728 1.419 . S
C726 H730 0.930 . S
C727 C726 1.369 . S
C727 C736 1.429 . S
C728 C726 1.419 . S
C728 C729 1.363 . S
C728 H731 0.929 . S
C729 C728 1.363 . S
C729 C735 1.428 . S
H730 C726 0.930 . S
H731 C728 0.929 . S
S732 N733 1.613 . S
S732 N734 1.610 . S
N733 S732 1.613 . S
N733 C736 1.350 . S
N734 S732 1.610 . S
N734 C735 1.351 . S
C735 C729 1.428 . S
C735 N734 1.351 . S
C735 C736 1.434 . S
C736 C727 1.429 . S
C736 N733 1.350 . S
C736 C735 1.434 . S
C737 C738 1.369 . S
C737 C739 1.419 . S
C737 H741 0.930 . S
C738 C737 1.369 . S
C738 C747 1.429 . S
C739 C737 1.419 . S
C739 C740 1.363 . S
C739 H742 0.929 . S
C740 C739 1.363 . S
C740 C746 1.428 . S
H741 C737 0.930 . S
H742 C739 0.929 . S
S743 N744 1.613 . S
S743 N745 1.610 . S
N744 S743 1.613 . S
N744 C747 1.350 . S
N745 S743 1.610 . S
N745 C746 1.351 . S
C746 C740 1.428 . S
C746 N745 1.351 . S
C746 C747 1.434 . S
C747 C738 1.429 . S
C747 N744 1.350 . S
C747 C746 1.434 . S
C748 C749 1.369 . S
C748 C750 1.419 . S
C748 H752 0.930 . S
C749 C748 1.369 . S
C749 C758 1.429 . S
C750 C748 1.419 . S
C750 C751 1.363 . S
C750 H753 0.929 . S
C751 C750 1.363 . S
C751 C757 1.428 . S
H752 C748 0.930 . S
H753 C750 0.929 . S
S754 N755 1.613 . S
S754 N756 1.610 . S
N755 S754 1.613 . S
N755 C758 1.350 . S
N756 S754 1.610 . S
N756 C757 1.351 . S
C757 C751 1.428 . S
C757 N756 1.351 . S
C757 C758 1.434 . S
C758 C749 1.429 . S
C758 N755 1.350 . S
C758 C757 1.434 . S
C759 C760 1.369 . S
C759 C761 1.419 . S
C759 H763 0.930 . S
C760 C759 1.369 . S
C760 C769 1.429 . S
C761 C759 1.419 . S
C761 C762 1.363 . S
C761 H764 0.929 1_455 S
C762 C761 1.363 . S
C762 C768 1.428 . S
H763 C759 0.930 . S
H764 C761 0.929 1_655 S
S765 N766 1.613 . S
S765 N767 1.610 . S
N766 S765 1.613 . S
N766 C769 1.350 . S
N767 S765 1.610 . S
N767 C768 1.351 . S
C768 C762 1.428 . S
C768 N767 1.351 . S
C768 C769 1.434 . S
C769 C760 1.429 . S
C769 N766 1.350 . S
C769 C768 1.434 . S
C770 C771 1.369 . S
C770 C772 1.419 . S
C770 H774 0.930 . S
C771 C770 1.369 . S
C771 C780 1.429 . S
C772 C770 1.419 . S
C772 C773 1.363 . S
C772 H775 0.929 . S
C773 C772 1.363 . S
C773 C779 1.428 . S
H774 C770 0.930 . S
H775 C772 0.929 . S
S776 N777 1.613 . S
S776 N778 1.610 1_565 S
N777 S776 1.613 . S
N777 C780 1.350 . S
N778 S776 1.610 1_545 S
N778 C779 1.351 1_545 S
C779 C773 1.428 . S
C779 N778 1.351 1_565 S
C779 C780 1.434 . S
C780 C771 1.429 . S
C780 N777 1.350 . S
C780 C779 1.434 . S
C781 C782 1.369 . S
C781 C783 1.419 . S
C781 H785 0.930 . S
C782 C781 1.369 . S
C782 C791 1.429 . S
C783 C781 1.419 . S
C783 C784 1.363 . S
C783 H786 0.929 . S
C784 C783 1.363 . S
C784 C790 1.428 . S
H785 C781 0.930 . S
H786 C783 0.929 . S
S787 N788 1.613 1_655 S
S787 N789 1.610 . S
N788 S787 1.613 1_455 S
N788 C791 1.350 1_455 S
N789 S787 1.610 . S
N789 C790 1.351 . S
C790 C784 1.428 . S
C790 N789 1.351 . S
C790 C791 1.434 . S
C791 C782 1.429 . S
C791 N788 1.350 1_655 S
C791 C790 1.434 . S
C792 C793 1.369 . S
C792 C794 1.419 1_545 S
C792 H796 0.930 . S
C793 C792 1.369 . S
C793 C802 1.429 1_556 S
C794 C792 1.419 1_565 S
C794 C795 1.363 . S
C794 H797 0.929 . S
C795 C794 1.363 . S
C795 C801 1.437 1_556 S
H796 C792 0.930 . S
H797 C794 0.929 . S
S798 N799 1.613 . S
S798 N800 1.610 . S
N799 S798 1.613 . S
N799 C802 1.350 . S
N800 S798 1.610 . S
N800 C801 1.350 1_545 S
C801 C795 1.437 1_554 S
C801 N800 1.350 1_565 S
C801 C802 1.426 1_565 S
C802 C793 1.429 1_554 S
C802 N799 1.350 . S
C802 C801 1.426 1_545 S
C803 C804 1.362 1_656 S
C803 C805 1.419 . S
C803 H807 0.939 . S
C804 C803 1.362 1_454 S
C804 C813 1.429 . S
C805 C803 1.419 . S
C805 C806 1.363 1_556 S
C805 H808 0.929 . S
C806 C805 1.363 1_554 S
C806 C812 1.428 1_655 S
H807 C803 0.939 . S
H808 C805 0.929 . S
S809 N810 1.613 . S
S809 N811 1.610 . S
N810 S809 1.613 . S
N810 C813 1.350 . S
N811 S809 1.610 . S
N811 C812 1.351 . S
C812 C806 1.428 1_455 S
C812 N811 1.351 . S
C812 C813 1.434 . S
C813 C804 1.429 . S
C813 N810 1.350 . S
C813 C812 1.434 . S
C814 C815 1.369 . S
C814 C816 1.419 . S
C814 H818 0.930 . S
C815 C814 1.369 . S
C815 C824 1.429 . S
C816 C814 1.419 . S
C816 C817 1.363 . S
C816 H819 0.929 . S
C817 C816 1.363 . S
C817 C823 1.428 . S
H818 C814 0.930 . S
H819 C816 0.929 . S
S820 N821 1.613 . S
S820 N822 1.610 . S
N821 S820 1.613 . S
N821 C824 1.350 . S
N822 S820 1.610 . S
N822 C823 1.351 . S
C823 C817 1.428 . S
C823 N822 1.351 . S
C823 C824 1.434 . S
C824 C815 1.429 . S
C824 N821 1.350 . S
C824 C823 1.434 . S
C825 C826 1.369 . S
C825 C827 1.419 . S
C825 H829 0.930 . S
C826 C825 1.369 . S
C826 C835 1.429 . S
C827 C825 1.419 . S
C827 C828 1.363 . S
C827 H830 0.929 . S
C828 C827 1.363 . S
C828 C834 1.428 . S
H829 C825 0.930 . S
H830 C827 0.929 . S
S831 N832 1.613 . S
S831 N833 1.610 . S
N832 S831 1.613 . S
N832 C835 1.350 . S
N833 S831 1.610 . S
N833 C834 1.351 . S
C834 C828 1.428 . S
C834 N833 1.351 . S
C834 C835 1.434 . S
C835 C826 1.429 . S
C835 N832 1.350 . S
C835 C834 1.434 . S
C836 C837 1.369 1_455 S
C836 C838 1.419 . S
C836 H840 0.930 . S
C837 C836 1.369 1_655 S
C837 C846 1.429 . S
C838 C836 1.419 . S
C838 C839 1.363 . S
C838 H841 0.929 . S
C839 C838 1.363 . S
C839 C845 1.428 1_455 S
H840 C836 0.930 . S
H841 C838 0.929 . S
S842 N843 1.613 . S
S842 N844 1.610 . S
N843 S842 1.613 . S
N843 C846 1.350 . S
N844 S842 1.610 . S
N844 C845 1.351 . S
C845 C839 1.428 1_655 S
C845 N844 1.351 . S
C845 C846 1.434 . S
C846 C837 1.429 . S
C846 N843 1.350 . S
C846 C845 1.434 . S
C847 C848 1.369 . S
C847 C849 1.419 1_545 S
C847 H851 0.930 . S
C848 C847 1.369 . S
C848 C857 1.429 . S
C849 C847 1.419 1_565 S
C849 C850 1.363 . S
C849 H852 0.929 . S
C850 C849 1.363 . S
C850 C856 1.428 . S
H851 C847 0.930 . S
H852 C849 0.929 . S
S853 N854 1.613 . S
S853 N855 1.610 1_545 S
N854 S853 1.613 . S
N854 C857 1.350 . S
N855 S853 1.610 1_565 S
N855 C856 1.351 . S
C856 C850 1.428 . S
C856 N855 1.351 . S
C856 C857 1.434 1_565 S
C857 C848 1.429 . S
C857 N854 1.350 . S
C857 C856 1.434 1_545 S
C858 C859 1.369 . S
C858 C860 1.419 1_665 S
C858 H862 0.930 . S
C859 C858 1.369 . S
C859 C868 1.429 . S
C860 C858 1.419 1_445 S
C860 C861 1.363 . S
C860 H863 0.929 . S
C861 C860 1.363 . S
C861 C867 1.428 . S
H862 C858 0.930 . S
H863 C860 0.929 . S
S864 N865 1.613 1_455 S
S864 N866 1.610 1_565 S
N865 S864 1.613 1_655 S
N865 C868 1.350 . S
N866 S864 1.610 1_545 S
N866 C867 1.351 . S
C867 C861 1.428 . S
C867 N866 1.351 . S
C867 C868 1.434 1_445 S
C868 C859 1.429 . S
C868 N865 1.350 . S
C868 C867 1.434 1_665 S
C869 C870 1.369 1_455 S
C869 C871 1.419 1_545 S
C869 H873 0.930 . S
C870 C869 1.369 1_655 S
C870 C879 1.418 1_545 S
C871 C869 1.419 1_565 S
C871 C872 1.363 . S
C871 H874 0.929 . S
C872 C871 1.363 . S
C872 C878 1.428 1_455 S
H873 C869 0.930 . S
H874 C871 0.929 . S
S875 N876 1.613 . S
S875 N877 1.610 . S
N876 S875 1.613 . S
N876 C879 1.352 . S
N877 S875 1.610 . S
N877 C878 1.351 . S
C878 C872 1.428 1_655 S
C878 N877 1.351 . S
C878 C879 1.444 . S
C879 C870 1.418 1_565 S
C879 N876 1.352 . S
C879 C878 1.444 . S
C880 C881 1.369 . S
C880 C882 1.419 . S
C880 H884 0.930 . S
C881 C880 1.369 . S
C881 C890 1.429 . S
C882 C880 1.419 . S
C882 C883 1.363 . S
C882 H885 0.929 . S
C883 C882 1.363 . S
C883 C889 1.428 . S
H884 C880 0.930 . S
H885 C882 0.929 . S
S886 N887 1.613 . S
S886 N888 1.610 . S
N887 S886 1.613 . S
N887 C890 1.350 . S
N888 S886 1.610 . S
N888 C889 1.351 . S
C889 C883 1.428 . S
C889 N888 1.351 . S
C889 C890 1.434 . S
C890 C881 1.429 . S
C890 N887 1.350 . S
C890 C889 1.434 . S
C891 C892 1.369 . S
C891 C893 1.419 . S
C891 H895 0.930 . S
C892 C891 1.369 . S
C892 C901 1.429 . S
C893 C891 1.419 . S
C893 C894 1.363 . S
C893 H896 0.929 . S
C894 C893 1.363 . S
C894 C900 1.428 . S
H895 C891 0.930 . S
H896 C893 0.929 . S
S897 N898 1.613 . S
S897 N899 1.610 . S
N898 S897 1.613 . S
N898 C901 1.350 . S
N899 S897 1.610 . S
N899 C900 1.351 . S
C900 C894 1.428 . S
C900 N899 1.351 . S
C900 C901 1.434 . S
C901 C892 1.429 . S
C901 N898 1.350 . S
C901 C900 1.434 . S
C902 C903 1.369 . S
C902 C904 1.419 . S
C902 H906 0.930 . S
C903 C902 1.369 . S
C903 C912 1.429 . S
C904 C902 1.419 . S
C904 C905 1.363 . S
C904 H907 0.929 . S
C905 C904 1.363 . S
C905 C911 1.428 . S
H906 C902 0.930 . S
H907 C904 0.929 . S
S908 N909 1.613 . S
S908 N910 1.610 . S
N909 S908 1.613 . S
N909 C912 1.350 . S
N910 S908 1.610 . S
N910 C911 1.351 . S
C911 C905 1.428 . S
C911 N910 1.351 . S
C911 C912 1.434 . S
C912 C903 1.429 . S
C912 N909 1.350 . S
C912 C911 1.434 . S
C913 C914 1.369 . S
C913 C915 1.419 . S
C913 H917 0.930 . S
C914 C913 1.369 . S
C914 C923 1.429 . S
C915 C913 1.419 . S
C915 C916 1.363 . S
C915 H918 0.929 . S
C916 C915 1.363 . S
C916 C922 1.428 . S
H917 C913 0.930 . S
H918 C915 0.929 . S
S919 N920 1.613 . S
S919 N921 1.610 . S
N920 S919 1.613 . S
N920 C923 1.350 . S
N921 S919 1.610 . S
N921 C922 1.351 . S
C922 C916 1.428 . S
C922 N921 1.351 . S
C922 C923 1.434 . S
C923 C914 1.429 . S
C923 N920 1.350 . S
C923 C922 1.434 . S
C924 C925 1.369 . S
C924 C926 1.419 . S
C924 H928 0.930 . S
C925 C924 1.369 . S
C925 C934 1.429 . S
C926 C924 1.419 . S
C926 C927 1.363 . S
C926 H929 0.929 . S
C927 C926 1.363 . S
C927 C933 1.428 . S
H928 C924 0.930 . S
H929 C926 0.929 . S
S930 N931 1.613 . S
S930 N932 1.610 . S
N931 S930 1.613 . S
N931 C934 1.350 . S
N932 S930 1.610 . S
N932 C933 1.351 . S
C933 C927 1.428 . S
C933 N932 1.351 . S
C933 C934 1.434 . S
C934 C925 1.429 . S
C934 N931 1.350 . S
C934 C933 1.434 . S
C935 C936 1.369 . S
C935 C937 1.419 . S
C935 H939 0.930 . S
C936 C935 1.369 . S
C936 C945 1.429 . S
C937 C935 1.419 . S
C937 C938 1.363 . S
C937 H940 0.929 . S
C938 C937 1.363 . S
C938 C944 1.428 . S
H939 C935 0.930 . S
H940 C937 0.929 . S
S941 N942 1.613 . S
S941 N943 1.610 . S
N942 S941 1.613 . S
N942 C945 1.350 . S
N943 S941 1.610 . S
N943 C944 1.351 . S
C944 C938 1.428 . S
C944 N943 1.351 . S
C944 C945 1.434 . S
C945 C936 1.429 . S
C945 N942 1.350 . S
C945 C944 1.434 . S
C946 C947 1.369 . S
C946 C948 1.419 . S
C946 H950 0.930 . S
C947 C946 1.369 . S
C947 C956 1.429 . S
C948 C946 1.419 . S
C948 C949 1.363 . S
C948 H951 0.929 . S
C949 C948 1.363 . S
C949 C955 1.428 . S
H950 C946 0.930 . S
H951 C948 0.929 . S
S952 N953 1.613 . S
S952 N954 1.610 . S
N953 S952 1.613 . S
N953 C956 1.350 . S
N954 S952 1.610 . S
N954 C955 1.351 . S
C955 C949 1.428 . S
C955 N954 1.351 . S
C955 C956 1.434 . S
C956 C947 1.429 . S
C956 N953 1.350 . S
C956 C955 1.434 . S
C957 C958 1.369 . S
C957 C959 1.419 . S
C957 H961 0.930 . S
C958 C957 1.369 . S
C958 C967 1.429 . S
C959 C957 1.419 . S
C959 C960 1.363 . S
C959 H962 0.929 . S
C960 C959 1.363 . S
C960 C966 1.428 . S
H961 C957 0.930 . S
H962 C959 0.929 . S
S963 N964 1.613 . S
S963 N965 1.610 . S
N964 S963 1.613 . S
N964 C967 1.350 . S
N965 S963 1.610 . S
N965 C966 1.351 . S
C966 C960 1.428 . S
C966 N965 1.351 . S
C966 C967 1.434 . S
C967 C958 1.429 . S
C967 N964 1.350 . S
C967 C966 1.434 . S
C529 C28 1.568 . S
C531 C490 1.571 . S
C540 C61 1.563 . S
C542 C523 1.568 . S
C551 C94 1.560 . S
C553 C424 1.569 . S
C562 C127 1.565 . S
C564 C457 1.568 . S
C573 C160 1.480 . S
C575 C358 1.482 . S
C584 C193 1.482 . S
C586 C391 1.482 . S
C595 C292 1.473 . S
C597 C226 1.483 . S
C606 C325 1.477 . S
C608 C259 1.479 . S
C617 C8 1.468 1_565 S
C619 N38 1.433 . S
C628 C41 1.467 1_655 S
C630 N71 1.431 . S
C639 C74 1.467 1_545 S
C641 N104 1.431 . S
C650 N5 1.437 . S
C652 C107 1.468 1_455 S
C661 N500 1.435 . S
C663 C140 1.485 . S
C672 N401 1.442 . S
C674 C173 1.486 . S
C683 N434 1.439 . S
C685 C206 1.486 . S
C694 N467 1.436 . S
C696 C239 1.485 . S
C705 C272 1.490 . S
C707 N302 1.448 . S
C716 C305 1.490 . S
C718 N335 1.448 . S
C727 N368 1.454 . S
C729 C338 1.492 . S
C738 C371 1.492 . S
C740 N269 1.453 . S
C749 C404 1.492 1_545 S
C751 N236 1.445 . S
C760 N137 1.450 . S
C762 C437 1.493 1_455 S
C771 N170 1.443 . S
C773 C470 1.492 1_565 S
C782 C503 1.491 1_655 S
C784 N203 1.444 . S
C793 N14 1.633 . S
C795 N80 1.635 . S
C804 N47 1.633 . S
C806 N113 1.635 . S
C815 N212 1.679 . S
C817 N146 1.680 . S
C826 N245 1.679 . S
C828 N179 1.681 . S
C837 N278 1.650 . S
C839 N344 1.649 . S
C848 N311 1.650 . S
C850 N377 1.649 . S
C859 N410 1.685 . S
C861 N476 1.685 . S
C870 N443 1.684 . S
C872 N509 1.686 . S
C881 C149 1.246 . S
C883 C17 1.251 . S
C892 C182 1.243 . S
C894 C50 1.251 . S
C903 C83 1.247 . S
C905 C215 1.245 . S
C914 C248 1.242 . S
C916 C116 1.251 . S
C925 C281 1.329 . S
C927 C413 1.335 . S
C936 C446 1.335 . S
C938 C314 1.330 . S
C947 C479 1.334 . S
C949 C347 1.330 . S
C958 C380 1.333 . S
C960 C512 1.336 . S
