# Generated by pormake.
# Topology qtz-x, (6)-cn, num edge types: 1
# Building blocks:
#     Node 0, Type 0, BuildingBlock: KUMBOL_clean_sbu_1, # of connection points: 6
#     Node 1, Type 0, BuildingBlock: KUMBOL_clean_sbu_1, # of connection points: 6
#     Node 2, Type 0, BuildingBlock: KUMBOL_clean_sbu_1, # of connection points: 6
#     Edge 3, Type (0, 0), BuildingBlock: ZUJKAS_clean_linker_0, # of connection points: 2
#     Edge 4, Type (0, 0), BuildingBlock: ZUJKAS_clean_linker_0, # of connection points: 2
#     Edge 5, Type (0, 0), BuildingBlock: ZUJKAS_clean_linker_0, # of connection points: 2
#     Edge 6, Type (0, 0), BuildingBlock: ZUJKAS_clean_linker_0, # of connection points: 2
#     Edge 7, Type (0, 0), BuildingBlock: ZUJKAS_clean_linker_0, # of connection points: 2
#     Edge 8, Type (0, 0), BuildingBlock: ZUJKAS_clean_linker_0, # of connection points: 2
#     Edge 9, Type (0, 0), BuildingBlock: ZUJKAS_clean_linker_0, # of connection points: 2
#     Edge 10, Type (0, 0), BuildingBlock: ZUJKAS_clean_linker_0, # of connection points: 2
#     Edge 11, Type (0, 0), BuildingBlock: ZUJKAS_clean_linker_0, # of connection points: 2
# Relax obj value: 0.199
# Max RMSD: 0.275
# Mean RMSD: 0.275
data_MOF--net-qtz-x--node1-KUMBOL_clean_sbu_1--edge1-ZUJKAS_clean_linker_0
_symmetry_space_group_name_H-M    P1
_symmetry_Int_Tables_number       1
_symmetry_cell_setting            triclinic
loop_
_symmetry_equiv_pos_as_xyz
'x, y, z'
_cell_length_a     19.293239
_cell_length_b     19.259256
_cell_length_c     63.630045
_cell_angle_alpha  89.781516
_cell_angle_beta   90.290715
_cell_angle_gamma 119.34421
loop_
_atom_site_label
_atom_site_type_symbol
_atom_site_fract_x
_atom_site_fract_y
_atom_site_fract_z
_atom_type_partial_charge
C0 C 0.28362 0.51128 0.16891 0.0
C1 C 0.35661 0.64338 0.15354 0.0
C2 C 0.28864 0.58419 0.16386 0.0
C3 C 0.41811 0.62788 0.14799 0.0
C4 C 0.34476 0.49521 0.1631 0.0
C5 C 0.41202 0.55393 0.15265 0.0
N6 N 0.21827 0.45561 0.17921 0.0
C7 C 0.21026 0.38323 0.18431 0.0
C8 C 0.33649 0.42052 0.168 0.0
C9 C 0.26887 0.36427 0.17863 0.0
Gd10 Gd 0.92221 0.41442 0.15248 0.0
Gd11 Gd 0.12572 0.49456 0.18863 0.0
N12 N 0.22751 0.59729 0.16914 0.0
C13 C 0.36138 0.71697 0.14936 0.0
C14 C 0.23356 0.6701 0.16587 0.0
C15 C 0.2999 0.73052 0.1557 0.0
H16 H 0.18926 0.6835 0.17165 0.0
H17 H 0.30422 0.78809 0.1531 0.0
H18 H 0.85327 0.21826 0.16339 0.0
H19 H 0.15973 0.34101 0.19325 0.0
H20 H 0.73771 0.1077 0.1801 0.0
H21 H 0.41294 0.76421 0.14162 0.0
H22 H 0.4708 0.67281 0.1401 0.0
H23 H 0.8788 0.56143 0.14847 0.0
H24 H 0.38214 0.40589 0.16376 0.0
H25 H 0.26232 0.30672 0.18268 0.0
H26 H 0.56633 0.21463 0.19597 0.0
H27 H 0.45987 0.54287 0.14819 0.0
H28 H 0.64972 0.48365 0.17553 0.0
H29 H 0.77039 0.58854 0.15816 0.0
N30 N 0.82255 0.44521 0.16134 0.0
C31 C 0.75637 0.38628 0.17059 0.0
C32 C 0.82781 0.51676 0.15672 0.0
C33 C 0.69785 0.4722 0.17166 0.0
C34 C 0.76592 0.53162 0.1619 0.0
C35 C 0.69215 0.39829 0.17602 0.0
H36 H 0.57424 0.34429 0.18962 0.0
N37 N 0.81492 0.30321 0.16863 0.0
C38 C 0.75248 0.31335 0.17438 0.0
C39 C 0.67921 0.17628 0.18596 0.0
C40 C 0.68334 0.25032 0.18339 0.0
C41 C 0.80866 0.22956 0.16993 0.0
C42 C 0.74174 0.16565 0.17896 0.0
O43 O 0.13151 0.46459 0.1543 0.0
O44 O 0.04415 0.49839 0.13992 0.0
O45 O 0.89167 0.33628 0.12557 0.0
O46 O 0.86952 0.43677 0.12501 0.0
O47 O 0.06859 0.57288 0.18621 0.0
O48 O 0.0085 0.54557 0.1535 0.0
O49 O 0.91305 0.43866 0.18667 0.0
O50 O 0.00547 0.41102 0.20198 0.0
O51 O 0.16417 0.58011 0.2147 0.0
O52 O 0.1958 0.48725 0.21438 0.0
O53 O 0.97815 0.33554 0.15605 0.0
O54 O 0.03965 0.36219 0.18885 0.0
C55 C 0.09883 0.47763 0.1377 0.0
C56 C 0.03404 0.58939 0.17056 0.0
C57 C 0.78764 0.3253 0.10364 0.0
C58 C 0.72943 0.24208 0.07289 0.0
C59 C 0.65826 0.29911 0.09106 0.0
C60 C 0.72122 0.33654 0.1053 0.0
C61 C 0.66265 0.25306 0.07474 0.0
C62 C 0.78943 0.27514 0.08812 0.0
C63 C 0.86143 0.3739 0.11529 0.0
C64 C 0.61972 0.26238 0.18903 0.0
C65 C 0.62414 0.33616 0.18537 0.0
H66 H 0.62706 0.12635 0.19272 0.0
C67 C 0.94596 0.42538 0.20315 0.0
C68 C 0.00793 0.31598 0.17225 0.0
C69 C 0.19644 0.54227 0.24784 0.0
C70 C 0.24684 0.60363 0.28239 0.0
C71 C 0.16029 0.4605 0.27939 0.0
C72 C 0.15531 0.46745 0.25766 0.0
C73 C 0.20602 0.52783 0.29164 0.0
C74 C 0.24163 0.6108 0.26039 0.0
C75 C 0.20082 0.54799 0.22454 0.0
H76 H 0.60791 0.30925 0.09199 0.0
H77 H 0.71911 0.37601 0.11705 0.0
H78 H 0.61628 0.23056 0.06289 0.0
H79 H 0.84146 0.2677 0.08678 0.0
H80 H 0.12967 0.40238 0.28674 0.0
H81 H 0.12104 0.41394 0.24847 0.0
H82 H 0.21013 0.52072 0.30842 0.0
H83 H 0.27476 0.66876 0.25301 0.0
C84 C 0.47164 0.84322 0.50681 0.0
C85 C 0.52537 0.76438 0.49159 0.0
C86 C 0.53628 0.83393 0.50175 0.0
C87 C 0.4484 0.70576 0.48574 0.0
C88 C 0.39396 0.78329 0.50164 0.0
C89 C 0.38285 0.71536 0.49067 0.0
N90 N 0.48452 0.90917 0.51762 0.0
C91 C 0.42187 0.9157 0.52525 0.0
C92 C 0.32975 0.79258 0.50811 0.0
C93 C 0.34376 0.85849 0.52025 0.0
Gd94 Gd 0.73839 0.21405 0.48629 0.0
Gd95 Gd 0.61865 0.00685 0.52241 0.0
N96 N 0.60994 0.89226 0.50729 0.0
C97 C 0.59207 0.75539 0.48794 0.0
C98 C 0.67488 0.88285 0.50446 0.0
C99 C 0.66703 0.81447 0.49466 0.0
H100 H 0.73275 0.92812 0.50975 0.0
H101 H 0.71875 0.8074 0.49229 0.0
H102 H 0.62996 0.30741 0.49456 0.0
H103 H 0.43195 0.96573 0.53498 0.0
H104 H 0.64527 0.42662 0.51243 0.0
H105 H 0.58616 0.70255 0.48031 0.0
H106 H 0.43881 0.65224 0.4777 0.0
H107 H 0.92066 0.23885 0.48175 0.0
H108 H 0.26918 0.74817 0.50433 0.0
H109 H 0.29443 0.86519 0.52581 0.0
H110 H 0.91916 0.56591 0.53298 0.0
H111 H 0.32367 0.66905 0.48638 0.0
H112 H 0.08443 0.45788 0.51157 0.0
H113 H 0.0581 0.33638 0.49208 0.0
N114 N 0.86938 0.30089 0.49682 0.0
C115 C 0.88278 0.36919 0.50651 0.0
C116 C 0.93125 0.28993 0.49103 0.0
C117 C 0.02385 0.41434 0.5075 0.0
C118 C 0.00925 0.34575 0.49654 0.0
C119 C 0.96044 0.42733 0.51238 0.0
H120 H 0.0319 0.54269 0.52696 0.0
N121 N 0.74547 0.32731 0.5027 0.0
C122 C 0.81889 0.38226 0.50981 0.0
C123 C 0.76755 0.46837 0.52082 0.0
C124 C 0.83167 0.45401 0.51916 0.0
C125 C 0.68472 0.34459 0.50273 0.0
C126 C 0.69412 0.41401 0.51225 0.0
O127 O 0.62777 0.99398 0.48681 0.0
O128 O 0.63195 0.10704 0.47249 0.0
O129 O 0.73658 0.29626 0.46318 0.0
O130 O 0.80382 0.23323 0.45719 0.0
O131 O 0.75161 0.06798 0.51942 0.0
O132 O 0.77444 0.11859 0.48562 0.0
O133 O 0.77624 0.21588 0.51946 0.0
O134 O 0.65217 0.13256 0.53078 0.0
O135 O 0.66308 0.95863 0.54728 0.0
O136 O 0.57716 0.99528 0.55445 0.0
O137 O 0.60897 0.17739 0.49272 0.0
O138 O 0.54266 0.06177 0.51361 0.0
C139 C 0.61297 0.03149 0.47143 0.0
C140 C 0.79453 0.09162 0.50227 0.0
C141 C 0.81121 0.3274 0.43098 0.0
C142 C 0.78526 0.38569 0.40028 0.0
C143 C 0.91809 0.40557 0.40681 0.0
C144 C 0.89087 0.35936 0.42496 0.0
C145 C 0.86572 0.41891 0.39453 0.0
C146 C 0.75841 0.34048 0.41865 0.0
C147 C 0.7849 0.28639 0.451 0.0
C148 C 0.90845 0.51063 0.52575 0.0
C149 C 0.9727 0.49746 0.5223 0.0
H150 H 0.775 0.52283 0.52783 0.0
C151 C 0.72536 0.18613 0.53472 0.0
C152 C 0.54607 0.12214 0.50285 0.0
C153 C 0.57831 0.89777 0.57718 0.0
C154 C 0.57966 0.83194 0.61036 0.0
C155 C 0.4547 0.79585 0.5925 0.0
C156 C 0.4951 0.85051 0.57656 0.0
C157 C 0.49637 0.78695 0.60928 0.0
C158 C 0.6209 0.88745 0.5941 0.0
C159 C 0.6187 0.96398 0.56178 0.0
H160 H 0.97956 0.43028 0.40212 0.0
H161 H 0.93224 0.35005 0.43452 0.0
H162 H 0.88722 0.45205 0.37999 0.0
H163 H 0.69634 0.31422 0.42306 0.0
H164 H 0.39048 0.76091 0.59202 0.0
H165 H 0.4608 0.85733 0.56401 0.0
H166 H 0.46324 0.74454 0.62156 0.0
H167 H 0.68494 0.9243 0.59503 0.0
C168 C 0.60995 0.65526 0.83473 0.0
C169 C 0.47789 0.60412 0.81968 0.0
C170 C 0.53605 0.59138 0.82976 0.0
C171 C 0.49632 0.6816 0.81384 0.0
C172 C 0.62743 0.73357 0.8296 0.0
C173 C 0.57103 0.74613 0.81869 0.0
N174 N 0.66184 0.64156 0.84616 0.0
C175 C 0.72778 0.70391 0.85476 0.0
C176 C 0.69939 0.7973 0.83654 0.0
C177 C 0.74912 0.78242 0.84953 0.0
Gd178 Gd 0.71844 0.38762 0.82042 0.0
Gd179 Gd 0.61962 0.50723 0.85428 0.0
N180 N 0.51977 0.51691 0.83552 0.0
C181 C 0.40228 0.53876 0.8162 0.0
C182 C 0.44524 0.45378 0.83299 0.0
C183 C 0.38572 0.46329 0.82306 0.0
H184 H 0.43271 0.39623 0.8383 0.0
H185 H 0.32709 0.41252 0.82082 0.0
H186 H 0.908 0.50428 0.83891 0.0
H187 H 0.76134 0.69328 0.86657 0.0
H188 H 0.01044 0.48761 0.85709 0.0
H189 H 0.3559 0.54616 0.80862 0.0
H190 H 0.45256 0.69244 0.80598 0.0
H191 H 0.58774 0.20509 0.80382 0.0
H192 H 0.71496 0.85826 0.83294 0.0
H193 H 0.80241 0.83143 0.85612 0.0
H194 H 0.89709 0.20555 0.86523 0.0
H195 H 0.5836 0.80582 0.81458 0.0
H196 H 0.64956 0.03851 0.83071 0.0
H197 H 0.56075 0.06662 0.80843 0.0
N198 N 0.68958 0.2546 0.82367 0.0
C199 C 0.74156 0.24099 0.83498 0.0
C200 C 0.62728 0.19361 0.81347 0.0
C201 C 0.66169 0.09937 0.82873 0.0
C202 C 0.61161 0.11502 0.81609 0.0
C203 C 0.72854 0.16277 0.83801 0.0
H204 H 0.77437 0.09085 0.85221 0.0
N205 N 0.82281 0.38046 0.83835 0.0
C206 C 0.81034 0.30574 0.84246 0.0
C207 C 0.94022 0.35998 0.85866 0.0
C208 C 0.8682 0.29361 0.85302 0.0
C209 C 0.89449 0.44514 0.84319 0.0
C210 C 0.95383 0.43594 0.85342 0.0
O211 O 0.59023 0.48328 0.81927 0.0
O212 O 0.70727 0.49331 0.81078 0.0
O213 O 0.80833 0.41558 0.79717 0.0
O214 O 0.68325 0.34023 0.78868 0.0
O215 O 0.54627 0.3738 0.85283 0.0
O216 O 0.5833 0.32971 0.82278 0.0
O217 O 0.6875 0.35367 0.85396 0.0
O218 O 0.71001 0.47449 0.86644 0.0
O219 O 0.54895 0.44805 0.88249 0.0
O220 O 0.59862 0.57422 0.87822 0.0
O221 O 0.80133 0.51853 0.82653 0.0
O222 O 0.75604 0.57359 0.85247 0.0
C223 C 0.64111 0.48961 0.80476 0.0
C224 C 0.53678 0.31827 0.83928 0.0
C225 C 0.78356 0.33169 0.76846 0.0
C226 C 0.86501 0.34546 0.73825 0.0
C227 C 0.77784 0.21438 0.75291 0.0
C228 C 0.7511 0.2487 0.76789 0.0
C229 C 0.83411 0.2624 0.73798 0.0
C230 C 0.84235 0.37947 0.75419 0.0
C231 C 0.75738 0.37335 0.78268 0.0
C232 C 0.85369 0.2158 0.85695 0.0
C233 C 0.78385 0.15049 0.84953 0.0
H234 H 0.98652 0.35314 0.8665 0.0
C235 C 0.69506 0.40102 0.86958 0.0
C236 C 0.81175 0.57586 0.83973 0.0
C237 C 0.56355 0.52767 0.9132 0.0
C238 C 0.49982 0.51547 0.94737 0.0
C239 C 0.64119 0.6066 0.94302 0.0
C240 C 0.63658 0.58429 0.92198 0.0
C241 C 0.57343 0.57264 0.95561 0.0
C242 C 0.495 0.49297 0.92608 0.0
C243 C 0.5557 0.51359 0.89017 0.0
H244 H 0.75222 0.15029 0.75223 0.0
H245 H 0.70484 0.2105 0.77856 0.0
H246 H 0.84896 0.23425 0.7254 0.0
H247 H 0.86578 0.44354 0.75434 0.0
H248 H 0.69731 0.65148 0.94954 0.0
H249 H 0.68961 0.6131 0.91239 0.0
H250 H 0.57816 0.5918 0.97181 0.0
H251 H 0.43796 0.45051 0.91944 0.0
H252 H 0.05722 0.68534 0.2044 0.0
H253 H 0.04846 0.80814 0.20501 0.0
H254 H 0.99875 0.78614 0.1385 0.0
H255 H 0.01004 0.66551 0.13748 0.0
H256 H 0.12884 0.94647 0.15761 0.0
H257 H 0.82604 0.80907 0.19304 0.0
H258 H 0.89653 0.78022 0.20255 0.0
H259 H 0.85649 0.75266 0.17655 0.0
C260 C 0.0449 0.70696 0.18989 0.0
C261 C 0.0329 0.66516 0.17097 0.0
C262 C 0.0395 0.77657 0.19031 0.0
C263 C 0.02177 0.80465 0.17185 0.0
C264 C 0.01189 0.76447 0.15288 0.0
H265 H 0.97607 0.21644 0.13878 0.0
H266 H 0.97275 0.08779 0.13848 0.0
C267 C 0.01807 0.69555 0.15239 0.0
C268 C 0.01451 0.87686 0.17214 0.0
H269 H 0.88923 0.94682 0.18563 0.0
C270 C 0.07663 0.94687 0.16371 0.0
C271 C 0.94584 0.87595 0.18002 0.0
C272 C 0.87695 0.8006 0.18853 0.0
C273 C 0.07224 0.01721 0.16321 0.0
C274 C 0.0038 0.01652 0.1712 0.0
C275 C 0.94144 0.94639 0.17955 0.0
C276 C 0.99795 0.08953 0.17168 0.0
C277 C 0.1411 0.09226 0.15454 0.0
C278 C 0.01116 0.13108 0.19059 0.0
C279 C 0.01275 0.20412 0.19087 0.0
C280 C 0.00177 0.23672 0.1722 0.0
C281 C 0.98561 0.19323 0.15339 0.0
C282 C 0.98362 0.11993 0.15315 0.0
H283 H 0.19255 0.08402 0.15048 0.0
H284 H 0.1218 0.11101 0.14016 0.0
H285 H 0.16075 0.14123 0.16618 0.0
H286 H 0.02216 0.10785 0.205 0.0
H287 H 0.02386 0.23557 0.20566 0.0
H288 H 0.52193 0.24323 0.51563 0.0
H289 H 0.3963 0.24604 0.51494 0.0
H290 H 0.2776 0.00915 0.48881 0.0
H291 H 0.40414 0.00759 0.4886 0.0
H292 H 0.27293 0.19342 0.47429 0.0
H293 H 0.17657 0.02899 0.55035 0.0
H294 H 0.28022 0.09252 0.54396 0.0
H295 H 0.22473 0.99789 0.53128 0.0
C296 C 0.46976 0.19322 0.509 0.0
C297 C 0.47247 0.12606 0.50165 0.0
C298 C 0.39807 0.19441 0.50889 0.0
C299 C 0.32853 0.12793 0.50175 0.0
C300 C 0.3312 0.06095 0.49429 0.0
H301 H 0.84739 0.01427 0.4773 0.0
H302 H 0.97982 0.02504 0.47821 0.0
C303 C 0.40295 0.06001 0.49425 0.0
C304 C 0.25209 0.12675 0.503 0.0
H305 H 0.08362 0.05442 0.53243 0.0
C306 C 0.23143 0.16333 0.48698 0.0
C307 C 0.19934 0.08819 0.51977 0.0
C308 C 0.2209 0.04976 0.53745 0.0
C309 C 0.15745 0.16039 0.48704 0.0
C310 C 0.10359 0.1196 0.50347 0.0
C311 C 0.12529 0.08506 0.51982 0.0
C312 C 0.02355 0.11073 0.50358 0.0
C313 C 0.13706 0.20105 0.4697 0.0
C314 C 0.00454 0.15345 0.51803 0.0
C315 C 0.92883 0.14572 0.51786 0.0
C316 C 0.8725 0.09691 0.50288 0.0
C317 C 0.8911 0.05343 0.48863 0.0
C318 C 0.96616 0.05956 0.48915 0.0
H319 H 0.18868 0.23736 0.45937 0.0
H320 H 0.08827 0.1556 0.45991 0.0
H321 H 0.11564 0.24012 0.47652 0.0
H322 H 0.04847 0.19327 0.52922 0.0
H323 H 0.915 0.17973 0.52894 0.0
H324 H 0.87376 0.69695 0.86846 0.0
H325 H 0.99588 0.82193 0.86596 0.0
H326 H 0.06573 0.73227 0.81267 0.0
H327 H 0.93506 0.61397 0.81233 0.0
H328 H 0.13021 0.85553 0.87244 0.0
H329 H 0.13514 0.93878 0.78848 0.0
H330 H 0.04884 0.85614 0.79989 0.0
H331 H 0.13241 0.84521 0.79164 0.0
C332 C 0.91215 0.70588 0.85531 0.0
C333 C 0.89146 0.64753 0.83982 0.0
C334 C 0.98391 0.77663 0.85428 0.0
C335 C 0.04003 0.7884 0.83871 0.0
C336 C 0.02236 0.72727 0.82415 0.0
H337 H 0.52882 0.17404 0.84005 0.0
H338 H 0.41005 0.04283 0.83797 0.0
C339 C 0.94789 0.65857 0.8243 0.0
C340 C 0.11778 0.86314 0.83884 0.0
H341 H 0.25053 0.01836 0.80865 0.0
C342 C 0.15549 0.89113 0.85842 0.0
C343 C 0.15235 0.9097 0.82054 0.0
C344 C 0.11466 0.88625 0.79901 0.0
C345 C 0.224 0.9652 0.86038 0.0
C346 C 0.25799 0.01073 0.8422 0.0
C347 C 0.22323 0.98231 0.8225 0.0
C348 C 0.32964 0.08887 0.84339 0.0
C349 C 0.25885 0.99555 0.88187 0.0
C350 C 0.32375 0.15679 0.84795 0.0
C351 C 0.39173 0.23162 0.84767 0.0
C352 C 0.46569 0.2394 0.84215 0.0
C353 C 0.47177 0.17029 0.8403 0.0
C354 C 0.40418 0.09544 0.84024 0.0
H355 H 0.22795 0.95052 0.89438 0.0
H356 H 0.32296 0.01329 0.88208 0.0
H357 H 0.25405 0.04937 0.88553 0.0
H358 H 0.26665 0.15191 0.85149 0.0
H359 H 0.38545 0.28234 0.85174 0.0
H360 H 0.38923 0.56436 0.95048 0.0
H361 H 0.30057 0.54138 0.98047 0.0
H362 H 0.3655 0.37398 0.00643 0.0
H363 H 0.45587 0.39898 0.97685 0.0
H364 H 0.17465 0.4191 1.00244 0.0
H365 H 0.45114 0.54883 0.05011 0.0
H366 H 0.45237 0.5476 0.0218 0.0
H367 H 0.43262 0.45986 0.03656 0.0
C368 C 0.38246 0.52079 0.96228 0.0
C369 C 0.4294 0.4835 0.96141 0.0
C370 C 0.33203 0.50788 0.97946 0.0
C371 C 0.32806 0.45777 0.9961 0.0
C372 C 0.369 0.41451 0.99411 0.0
H373 H 0.17248 0.39402 0.12595 0.0
H374 H 0.21882 0.3844 0.09094 0.0
C375 C 0.41997 0.42805 0.97708 0.0
C376 C 0.28969 0.45819 0.01646 0.0
H377 H 0.33086 0.50032 0.06869 0.0
C378 C 0.20869 0.43675 0.01694 0.0
C379 C 0.33419 0.48254 0.03542 0.0
C380 C 0.42252 0.51181 0.03599 0.0
C381 C 0.17074 0.43651 0.03591 0.0
C382 C 0.21527 0.4594 0.0549 0.0
C383 C 0.29629 0.4818 0.05427 0.0
C384 C 0.1802 0.4605 0.07575 0.0
C385 C 0.08304 0.41009 0.03547 0.0
C386 C 0.14266 0.50638 0.07907 0.0
C387 C 0.11505 0.51103 0.0991 0.0
C388 C 0.12619 0.47156 0.11636 0.0
C389 C 0.1637 0.4258 0.11304 0.0
C390 C 0.18998 0.42004 0.09298 0.0
H391 H 0.05342 0.37387 0.0213 0.0
H392 H 0.0527 0.37473 0.04967 0.0
H393 H 0.07511 0.46339 0.03507 0.0
H394 H 0.13639 0.54025 0.06631 0.0
H395 H 0.08677 0.54718 0.10118 0.0
H396 H 0.78441 0.51413 0.38238 0.0
H397 H 0.75677 0.51324 0.34499 0.0
H398 H 0.63692 0.25654 0.34516 0.0
H399 H 0.66197 0.25727 0.38258 0.0
H400 H 0.84901 0.43396 0.33495 0.0
H401 H 0.56941 0.31279 0.28788 0.0
H402 H 0.5808 0.36271 0.31274 0.0
H403 H 0.56723 0.26372 0.31222 0.0
C404 C 0.74652 0.45762 0.37476 0.0
C405 C 0.72862 0.3859 0.38482 0.0
C406 C 0.73049 0.45704 0.35339 0.0
C407 C 0.69791 0.38491 0.34229 0.0
C408 C 0.66294 0.31286 0.35343 0.0
H409 H 0.8498 0.2858 0.22234 0.0
H410 H 0.7893 0.26846 0.25734 0.0
C411 C 0.67772 0.31339 0.3749 0.0
C412 C 0.73125 0.38574 0.32154 0.0
H413 H 0.68597 0.33376 0.27019 0.0
C414 C 0.81347 0.41309 0.32071 0.0
C415 C 0.68404 0.35458 0.3034 0.0
C416 C 0.5954 0.32192 0.30393 0.0
C417 C 0.85032 0.41295 0.30194 0.0
C418 C 0.8037 0.38587 0.28355 0.0
C419 C 0.72112 0.35524 0.28446 0.0
C420 C 0.8407 0.39502 0.26297 0.0
C421 C 0.93858 0.44144 0.30189 0.0
C422 C 0.88855 0.47174 0.25483 0.0
C423 C 0.9218 0.48147 0.23498 0.0
C424 C 0.90766 0.41454 0.22328 0.0
C425 C 0.86036 0.33775 0.23136 0.0
C426 C 0.8263 0.32794 0.25117 0.0
H427 H 0.96137 0.4409 0.31794 0.0
H428 H 0.95254 0.40384 0.29146 0.0
H429 H 0.97086 0.50349 0.29588 0.0
H430 H 0.89957 0.52392 0.2638 0.0
H431 H 0.95914 0.54099 0.22885 0.0
H432 H 0.73501 0.50457 0.77114 0.0
H433 H 0.74136 0.56614 0.73701 0.0
H434 H 0.54936 0.60657 0.75528 0.0
H435 H 0.54011 0.54147 0.78912 0.0
H436 H 0.61111 0.53026 0.70485 0.0
H437 H 0.74934 0.83313 0.73958 0.0
H438 H 0.74992 0.74999 0.75267 0.0
H439 H 0.66122 0.7582 0.75241 0.0
C440 C 0.6932 0.52543 0.76787 0.0
C441 C 0.63781 0.51908 0.7832 0.0
C442 C 0.69719 0.56095 0.74829 0.0
C443 C 0.64692 0.59244 0.74367 0.0
C444 C 0.58961 0.58374 0.75859 0.0
H445 H 0.56315 0.86287 0.651 0.0
H446 H 0.59417 0.80983 0.68232 0.0
C447 C 0.58448 0.54663 0.77802 0.0
C448 C 0.65574 0.63627 0.72354 0.0
H449 H 0.70994 0.82133 0.70389 0.0
C450 C 0.633 0.59397 0.70454 0.0
C451 C 0.68549 0.71951 0.72313 0.0
C452 C 0.71361 0.76837 0.74297 0.0
C453 C 0.63444 0.63171 0.68533 0.0
C454 C 0.66195 0.71512 0.68493 0.0
C455 C 0.68835 0.75769 0.70394 0.0
C456 C 0.65524 0.75763 0.66573 0.0
C457 C 0.60244 0.58051 0.66596 0.0
C458 C 0.68334 0.75119 0.64578 0.0
C459 C 0.66495 0.78153 0.62767 0.0
C460 C 0.61951 0.82031 0.6292 0.0
C461 C 0.59809 0.83314 0.6493 0.0
C462 C 0.61572 0.8024 0.66727 0.0
H463 H 0.56581 0.51637 0.66998 0.0
H464 H 0.56546 0.59837 0.6564 0.0
H465 H 0.6529 0.58721 0.65622 0.0
H466 H 0.71684 0.72005 0.64405 0.0
H467 H 0.68204 0.77043 0.61239 0.0
H468 H 0.63499 0.24971 0.8835 0.0
H469 H 0.65637 0.20618 0.91783 0.0
H470 H 0.80202 0.45141 0.93664 0.0
H471 H 0.77869 0.49556 0.90251 0.0
H472 H 0.79867 0.23639 0.93696 0.0
H473 H 0.63898 0.35923 0.98323 0.0
H474 H 0.63133 0.3507 0.95499 0.0
H475 H 0.71832 0.43016 0.9671 0.0
C476 C 0.67118 0.29429 0.89503 0.0
C477 C 0.70499 0.37589 0.89053 0.0
C478 C 0.68362 0.26938 0.91451 0.0
C479 C 0.73043 0.32568 0.92965 0.0
C480 C 0.7647 0.40727 0.92518 0.0
H481 H 0.87049 0.3036 0.05187 0.0
H482 H 0.88308 0.29684 0.01431 0.0
C483 C 0.75128 0.43232 0.90577 0.0
C484 C 0.74158 0.29829 0.95028 0.0
H485 H 0.70039 0.29873 1.00213 0.0
C486 C 0.77721 0.24977 0.95126 0.0
C487 C 0.71334 0.31625 0.96875 0.0
C488 C 0.67278 0.36638 0.96854 0.0
C489 C 0.78491 0.21817 0.97046 0.0
C490 C 0.75555 0.23527 0.98873 0.0
C491 C 0.72142 0.2849 0.98779 0.0
C492 C 0.76099 0.20581 0.00957 0.0
C493 C 0.82335 0.16647 0.97123 0.0
C494 C 0.69006 0.15101 0.01939 0.0
C495 C 0.6821 0.15469 0.04106 0.0
C496 C 0.74511 0.21342 0.05286 0.0
C497 C 0.82023 0.25787 0.04334 0.0
C498 C 0.82805 0.2539 0.02173 0.0
H499 H 0.841 0.15669 0.9554 0.0
H500 H 0.87698 0.19481 0.98144 0.0
H501 H 0.78165 0.1079 0.97832 0.0
H502 H 0.63781 0.1134 0.01007 0.0
H503 H 0.62431 0.11811 0.0481 0.0
H504 H 0.21029 0.71148 0.29975 0.0
H505 H 0.27965 0.80271 0.32905 0.0
H506 H 0.46196 0.73474 0.3271 0.0
H507 H 0.39382 0.64588 0.2976 0.0
H508 H 0.29784 0.76194 0.36624 0.0
H509 H 0.6003 0.96449 0.33796 0.0
H510 H 0.52076 0.90231 0.32024 0.0
H511 H 0.5777 0.86379 0.33353 0.0
C512 C 0.26687 0.71873 0.30508 0.0
C513 C 0.2974 0.67262 0.2962 0.0
C514 C 0.30624 0.7703 0.32198 0.0
C515 C 0.37691 0.77671 0.33041 0.0
C516 C 0.40902 0.73313 0.32077 0.0
H517 H 0.60759 0.89757 0.4538 0.0
H518 H 0.55017 0.83724 0.41945 0.0
C519 C 0.36986 0.68193 0.30388 0.0
C520 C 0.41148 0.82024 0.35067 0.0
H521 H 0.58685 0.94472 0.37577 0.0
C522 C 0.36095 0.80261 0.36814 0.0
C523 C 0.49386 0.8744 0.35343 0.0
C524 C 0.55094 0.90299 0.3352 0.0
C525 C 0.39065 0.83445 0.38819 0.0
C526 C 0.47327 0.88442 0.39112 0.0
C527 C 0.52372 0.90439 0.37365 0.0
C528 C 0.50742 0.91952 0.41206 0.0
C529 C 0.33374 0.81385 0.40631 0.0
C530 C 0.50194 0.98515 0.41937 0.0
C531 C 0.5347 0.01963 0.43881 0.0
C532 C 0.57363 0.98921 0.45158 0.0
C533 C 0.57771 0.9222 0.44446 0.0
C534 C 0.54538 0.88806 0.42478 0.0
H535 H 0.27214 0.7683 0.40199 0.0
H536 H 0.35394 0.79148 0.4198 0.0
H537 H 0.33298 0.86837 0.41158 0.0
H538 H 0.47277 0.01028 0.40992 0.0
H539 H 0.52971 0.07072 0.44379 0.0
H540 H 0.81893 0.43959 0.7181 0.0
H541 H 0.8277 0.45969 0.68058 0.0
H542 H 0.00275 0.38242 0.67722 0.0
H543 H 0.98997 0.35631 0.71511 0.0
H544 H 0.90155 0.50125 0.6437 0.0
H545 H 0.79713 0.1826 0.66209 0.0
H546 H 0.82169 0.25643 0.68219 0.0
H547 H 0.89912 0.24657 0.66911 0.0
C548 C 0.86247 0.43053 0.70965 0.0
C549 C 0.90097 0.39257 0.71919 0.0
C550 C 0.86772 0.44269 0.68809 0.0
C551 C 0.91225 0.41784 0.67618 0.0
C552 C 0.96546 0.39854 0.68631 0.0
H553 H 0.87352 0.2648 0.55089 0.0
H554 H 0.9127 0.32847 0.58529 0.0
C555 C 0.95815 0.3835 0.70787 0.0
C556 C 0.88345 0.38772 0.65492 0.0
H557 H 0.79542 0.21532 0.62665 0.0
C558 C 0.87921 0.43903 0.63987 0.0
C559 C 0.84909 0.30508 0.65053 0.0
C560 C 0.84097 0.24428 0.66688 0.0
C561 C 0.8453 0.41028 0.62008 0.0
C562 C 0.81735 0.32952 0.61538 0.0
C563 C 0.81859 0.2777 0.63053 0.0
C564 C 0.79319 0.29839 0.59421 0.0
C565 C 0.83874 0.46529 0.60427 0.0
C566 C 0.71289 0.25972 0.58839 0.0
C567 C 0.69014 0.22227 0.56891 0.0
C568 C 0.74784 0.22375 0.55528 0.0
C569 C 0.82823 0.26334 0.56117 0.0
C570 C 0.85069 0.30007 0.58063 0.0
H571 H 0.85894 0.52564 0.61081 0.0
H572 H 0.87487 0.47056 0.59022 0.0
H573 H 0.77597 0.43971 0.59899 0.0
H574 H 0.66812 0.25753 0.599 0.0
H575 H 0.62787 0.19269 0.56449 0.0
loop_
_geom_bond_atom_site_label_1
_geom_bond_atom_site_label_2
_geom_bond_distance
_geom_bond_site_symmetry_2
_ccdc_geom_bond_type
C0 C2 1.422 . S
C0 C4 1.415 . S
C0 N6 1.369 . S
C1 C2 1.421 . S
C1 C3 1.417 . S
C1 C13 1.422 . S
C2 C0 1.422 . S
C2 C1 1.421 . S
C2 N12 1.359 . S
C3 C1 1.417 . S
C3 C5 1.329 . S
C3 H22 0.930 . S
C4 C0 1.415 . S
C4 C5 1.437 . S
C4 C8 1.413 . S
C5 C3 1.329 . S
C5 C4 1.437 . S
C5 H27 0.929 . S
N6 C0 1.369 . S
N6 C7 1.338 . S
N6 Gd11 2.622 . S
C7 N6 1.338 . S
C7 C9 1.378 . S
C7 H19 0.929 . S
C8 C4 1.413 . S
C8 C9 1.348 . S
C8 H24 0.931 . S
C9 C7 1.378 . S
C9 C8 1.348 . S
C9 H25 0.930 . S
Gd10 N30 2.622 . S
Gd10 N37 2.570 . S
Gd10 O44 2.353 1_655 S
Gd10 O45 2.468 . S
Gd10 O46 2.427 . S
Gd10 O48 2.388 . S
Gd10 O49 2.386 . S
Gd10 O53 2.307 . S
Gd10 C63 2.805 . S
Gd11 N6 2.622 . S
Gd11 N12 2.570 . S
Gd11 O43 2.386 . S
Gd11 O47 2.307 . S
Gd11 O50 2.353 1_455 S
Gd11 O51 2.468 . S
Gd11 O52 2.427 . S
Gd11 O54 2.388 . S
Gd11 C75 2.805 . S
N12 C2 1.359 . S
N12 Gd11 2.570 . S
N12 C14 1.343 . S
C13 C1 1.422 . S
C13 C15 1.321 . S
C13 H21 0.931 . S
C14 N12 1.343 . S
C14 C15 1.390 . S
C14 H16 0.931 . S
C15 C13 1.321 . S
C15 C14 1.390 . S
C15 H17 0.930 . S
H16 C14 0.931 . S
H17 C15 0.930 . S
H18 C41 0.931 . S
H19 C7 0.929 . S
H20 C42 0.930 . S
H21 C13 0.931 . S
H22 C3 0.930 . S
H23 C32 0.929 . S
H24 C8 0.931 . S
H25 C9 0.930 . S
H26 C64 0.930 . S
H27 C5 0.929 . S
H28 C33 0.931 . S
H29 C34 0.930 . S
N30 Gd10 2.622 . S
N30 C31 1.369 . S
N30 C32 1.338 . S
C31 N30 1.369 . S
C31 C35 1.415 . S
C31 C38 1.422 . S
C32 H23 0.929 . S
C32 N30 1.338 . S
C32 C34 1.378 . S
C33 H28 0.931 . S
C33 C34 1.348 . S
C33 C35 1.413 . S
C34 H29 0.930 . S
C34 C32 1.378 . S
C34 C33 1.348 . S
C35 C31 1.415 . S
C35 C33 1.413 . S
C35 C65 1.437 . S
H36 C65 0.929 . S
N37 Gd10 2.570 . S
N37 C38 1.359 . S
N37 C41 1.343 . S
C38 C31 1.422 . S
C38 N37 1.359 . S
C38 C40 1.421 . S
C39 C40 1.422 . S
C39 C42 1.321 . S
C39 H66 0.931 . S
C40 C38 1.421 . S
C40 C39 1.422 . S
C40 C64 1.417 . S
C41 H18 0.931 . S
C41 N37 1.343 . S
C41 C42 1.390 . S
C42 H20 0.930 . S
C42 C39 1.321 . S
C42 C41 1.390 . S
O43 Gd11 2.386 . S
O43 C55 1.265 . S
O44 Gd10 2.353 1_455 S
O44 C55 1.242 . S
O45 Gd10 2.468 . S
O45 C63 1.263 . S
O46 Gd10 2.427 . S
O46 C63 1.252 . S
O47 Gd11 2.307 . S
O47 C56 1.261 . S
O48 Gd10 2.388 . S
O48 C56 1.252 1_655 S
O49 Gd10 2.386 . S
O49 C67 1.265 . S
O50 Gd11 2.353 1_655 S
O50 C67 1.242 . S
O51 Gd11 2.468 . S
O51 C75 1.263 . S
O52 Gd11 2.427 . S
O52 C75 1.252 . S
O53 Gd10 2.307 . S
O53 C68 1.261 . S
O54 Gd11 2.388 . S
O54 C68 1.252 1_455 S
C55 O43 1.265 . S
C55 O44 1.242 . S
C56 O47 1.261 . S
C56 O48 1.252 1_455 S
C57 C60 1.394 . S
C57 C62 1.370 . S
C57 C63 1.500 . S
C58 C61 1.383 . S
C58 C62 1.395 . S
C59 C60 1.396 . S
C59 C61 1.365 . S
C59 H76 0.929 . S
C60 C57 1.394 . S
C60 C59 1.396 . S
C60 H77 0.930 . S
C61 C58 1.383 . S
C61 C59 1.365 . S
C61 H78 0.931 . S
C62 C57 1.370 . S
C62 C58 1.395 . S
C62 H79 0.930 . S
C63 Gd10 2.805 . S
C63 O45 1.263 . S
C63 O46 1.252 . S
C63 C57 1.500 . S
C64 H26 0.930 . S
C64 C40 1.417 . S
C64 C65 1.329 . S
C65 C35 1.437 . S
C65 H36 0.929 . S
C65 C64 1.329 . S
H66 C39 0.931 . S
C67 O49 1.265 . S
C67 O50 1.242 . S
C68 O53 1.261 . S
C68 O54 1.252 1_655 S
C69 C72 1.394 . S
C69 C74 1.370 . S
C69 C75 1.500 . S
C70 C73 1.383 . S
C70 C74 1.395 . S
C71 C72 1.396 . S
C71 C73 1.365 . S
C71 H80 0.929 . S
C72 C69 1.394 . S
C72 C71 1.396 . S
C72 H81 0.930 . S
C73 C70 1.383 . S
C73 C71 1.365 . S
C73 H82 0.931 . S
C74 C69 1.370 . S
C74 C70 1.395 . S
C74 H83 0.930 . S
C75 Gd11 2.805 . S
C75 O51 1.263 . S
C75 O52 1.252 . S
C75 C69 1.500 . S
H76 C59 0.929 . S
H77 C60 0.930 . S
H78 C61 0.931 . S
H79 C62 0.930 . S
H80 C71 0.929 . S
H81 C72 0.930 . S
H82 C73 0.931 . S
H83 C74 0.930 . S
C84 C86 1.422 . S
C84 C88 1.415 . S
C84 N90 1.369 . S
C85 C86 1.421 . S
C85 C87 1.417 . S
C85 C97 1.422 . S
C86 C84 1.422 . S
C86 C85 1.421 . S
C86 N96 1.359 . S
C87 C85 1.417 . S
C87 C89 1.329 . S
C87 H106 0.930 . S
C88 C84 1.415 . S
C88 C89 1.437 . S
C88 C92 1.413 . S
C89 C87 1.329 . S
C89 C88 1.437 . S
C89 H111 0.929 . S
N90 C84 1.369 . S
N90 C91 1.338 . S
N90 Gd95 2.622 1_565 S
C91 N90 1.338 . S
C91 C93 1.378 . S
C91 H103 0.929 . S
C92 C88 1.413 . S
C92 C93 1.348 . S
C92 H108 0.931 . S
C93 C91 1.378 . S
C93 C92 1.348 . S
C93 H109 0.930 . S
Gd94 N114 2.622 . S
Gd94 N121 2.570 . S
Gd94 O128 2.353 . S
Gd94 O129 2.468 . S
Gd94 O130 2.427 . S
Gd94 O132 2.388 . S
Gd94 O133 2.386 . S
Gd94 O137 2.307 . S
Gd94 C147 2.805 . S
Gd95 N90 2.622 1_545 S
Gd95 N96 2.570 1_545 S
Gd95 O127 2.386 . S
Gd95 O131 2.307 . S
Gd95 O134 2.353 . S
Gd95 O135 2.468 1_545 S
Gd95 O136 2.427 1_545 S
Gd95 O138 2.388 . S
Gd95 C159 2.805 1_545 S
N96 C86 1.359 . S
N96 Gd95 2.570 1_565 S
N96 C98 1.343 . S
C97 C85 1.422 . S
C97 C99 1.321 . S
C97 H105 0.931 . S
C98 N96 1.343 . S
C98 C99 1.390 . S
C98 H100 0.931 . S
C99 C97 1.321 . S
C99 C98 1.390 . S
C99 H101 0.930 . S
H100 C98 0.931 . S
H101 C99 0.930 . S
H102 C125 0.931 . S
H103 C91 0.929 . S
H104 C126 0.930 . S
H105 C97 0.931 . S
H106 C87 0.930 . S
H107 C116 0.929 . S
H108 C92 0.931 . S
H109 C93 0.930 . S
H110 C148 0.930 . S
H111 C89 0.929 . S
H112 C117 0.931 . S
H113 C118 0.930 . S
N114 Gd94 2.622 . S
N114 C115 1.369 . S
N114 C116 1.338 . S
C115 N114 1.369 . S
C115 C119 1.415 . S
C115 C122 1.422 . S
C116 H107 0.929 . S
C116 N114 1.338 . S
C116 C118 1.378 1_655 S
C117 H112 0.931 . S
C117 C118 1.348 . S
C117 C119 1.413 1_455 S
C118 H113 0.930 . S
C118 C116 1.378 1_455 S
C118 C117 1.348 . S
C119 C115 1.415 . S
C119 C117 1.413 1_655 S
C119 C149 1.437 . S
H120 C149 0.929 1_455 S
N121 Gd94 2.570 . S
N121 C122 1.359 . S
N121 C125 1.343 . S
C122 C115 1.422 . S
C122 N121 1.359 . S
C122 C124 1.421 . S
C123 C124 1.422 . S
C123 C126 1.321 . S
C123 H150 0.931 . S
C124 C122 1.421 . S
C124 C123 1.422 . S
C124 C148 1.417 . S
C125 H102 0.931 . S
C125 N121 1.343 . S
C125 C126 1.390 . S
C126 H104 0.930 . S
C126 C123 1.321 . S
C126 C125 1.390 . S
O127 Gd95 2.386 . S
O127 C139 1.265 . S
O128 Gd94 2.353 . S
O128 C139 1.242 . S
O129 Gd94 2.468 . S
O129 C147 1.263 . S
O130 Gd94 2.427 . S
O130 C147 1.252 . S
O131 Gd95 2.307 . S
O131 C140 1.261 . S
O132 Gd94 2.388 . S
O132 C140 1.252 . S
O133 Gd94 2.386 . S
O133 C151 1.265 . S
O134 Gd95 2.353 . S
O134 C151 1.242 . S
O135 Gd95 2.468 1_565 S
O135 C159 1.263 . S
O136 Gd95 2.427 1_565 S
O136 C159 1.252 . S
O137 Gd94 2.307 . S
O137 C152 1.261 . S
O138 Gd95 2.388 . S
O138 C152 1.252 . S
C139 O127 1.265 . S
C139 O128 1.242 . S
C140 O131 1.261 . S
C140 O132 1.252 . S
C141 C144 1.394 . S
C141 C146 1.370 . S
C141 C147 1.500 . S
C142 C145 1.383 . S
C142 C146 1.395 . S
C143 C144 1.396 . S
C143 C145 1.365 . S
C143 H160 0.929 . S
C144 C141 1.394 . S
C144 C143 1.396 . S
C144 H161 0.930 . S
C145 C142 1.383 . S
C145 C143 1.365 . S
C145 H162 0.931 . S
C146 C141 1.370 . S
C146 C142 1.395 . S
C146 H163 0.930 . S
C147 Gd94 2.805 . S
C147 O129 1.263 . S
C147 O130 1.252 . S
C147 C141 1.500 . S
C148 H110 0.930 . S
C148 C124 1.417 . S
C148 C149 1.329 . S
C149 C119 1.437 . S
C149 H120 0.929 1_655 S
C149 C148 1.329 . S
H150 C123 0.931 . S
C151 O133 1.265 . S
C151 O134 1.242 . S
C152 O137 1.261 . S
C152 O138 1.252 . S
C153 C156 1.394 . S
C153 C158 1.370 . S
C153 C159 1.500 . S
C154 C157 1.383 . S
C154 C158 1.395 . S
C155 C156 1.396 . S
C155 C157 1.365 . S
C155 H164 0.929 . S
C156 C153 1.394 . S
C156 C155 1.396 . S
C156 H165 0.930 . S
C157 C154 1.383 . S
C157 C155 1.365 . S
C157 H166 0.931 . S
C158 C153 1.370 . S
C158 C154 1.395 . S
C158 H167 0.930 . S
C159 Gd95 2.805 1_565 S
C159 O135 1.263 . S
C159 O136 1.252 . S
C159 C153 1.500 . S
H160 C143 0.929 . S
H161 C144 0.930 . S
H162 C145 0.931 . S
H163 C146 0.930 . S
H164 C155 0.929 . S
H165 C156 0.930 . S
H166 C157 0.931 . S
H167 C158 0.930 . S
C168 C170 1.422 . S
C168 C172 1.415 . S
C168 N174 1.369 . S
C169 C170 1.421 . S
C169 C171 1.417 . S
C169 C181 1.422 . S
C170 C168 1.422 . S
C170 C169 1.421 . S
C170 N180 1.359 . S
C171 C169 1.417 . S
C171 C173 1.329 . S
C171 H190 0.930 . S
C172 C168 1.415 . S
C172 C173 1.437 . S
C172 C176 1.413 . S
C173 C171 1.329 . S
C173 C172 1.437 . S
C173 H195 0.929 . S
N174 C168 1.369 . S
N174 C175 1.338 . S
N174 Gd179 2.622 . S
C175 N174 1.338 . S
C175 C177 1.378 . S
C175 H187 0.929 . S
C176 C172 1.413 . S
C176 C177 1.348 . S
C176 H192 0.931 . S
C177 C175 1.378 . S
C177 C176 1.348 . S
C177 H193 0.930 . S
Gd178 N198 2.622 . S
Gd178 N205 2.570 . S
Gd178 O212 2.353 . S
Gd178 O213 2.468 . S
Gd178 O214 2.427 . S
Gd178 O216 2.388 . S
Gd178 O217 2.386 . S
Gd178 O221 2.307 . S
Gd178 C231 2.805 . S
Gd179 N174 2.622 . S
Gd179 N180 2.570 . S
Gd179 O211 2.386 . S
Gd179 O215 2.307 . S
Gd179 O218 2.353 . S
Gd179 O219 2.468 . S
Gd179 O220 2.427 . S
Gd179 O222 2.388 . S
Gd179 C243 2.805 . S
N180 C170 1.359 . S
N180 Gd179 2.570 . S
N180 C182 1.343 . S
C181 C169 1.422 . S
C181 C183 1.321 . S
C181 H189 0.931 . S
C182 N180 1.343 . S
C182 C183 1.390 . S
C182 H184 0.931 . S
C183 C181 1.321 . S
C183 C182 1.390 . S
C183 H185 0.930 . S
H184 C182 0.931 . S
H185 C183 0.930 . S
H186 C209 0.931 . S
H187 C175 0.929 . S
H188 C210 0.930 1_455 S
H189 C181 0.931 . S
H190 C171 0.930 . S
H191 C200 0.929 . S
H192 C176 0.931 . S
H193 C177 0.930 . S
H194 C232 0.930 . S
H195 C173 0.929 . S
H196 C201 0.931 . S
H197 C202 0.930 . S
N198 Gd178 2.622 . S
N198 C199 1.369 . S
N198 C200 1.338 . S
C199 N198 1.369 . S
C199 C203 1.415 . S
C199 C206 1.422 . S
C200 H191 0.929 . S
C200 N198 1.338 . S
C200 C202 1.378 . S
C201 H196 0.931 . S
C201 C202 1.348 . S
C201 C203 1.413 . S
C202 H197 0.930 . S
C202 C200 1.378 . S
C202 C201 1.348 . S
C203 C199 1.415 . S
C203 C201 1.413 . S
C203 C233 1.437 . S
H204 C233 0.929 . S
N205 Gd178 2.570 . S
N205 C206 1.359 . S
N205 C209 1.343 . S
C206 C199 1.422 . S
C206 N205 1.359 . S
C206 C208 1.421 . S
C207 C208 1.422 . S
C207 C210 1.321 . S
C207 H234 0.929 1_655 S
C208 C206 1.421 . S
C208 C207 1.422 . S
C208 C232 1.417 . S
C209 H186 0.931 . S
C209 N205 1.343 . S
C209 C210 1.390 . S
C210 H188 0.930 1_655 S
C210 C207 1.321 . S
C210 C209 1.390 . S
O211 Gd179 2.386 . S
O211 C223 1.265 . S
O212 Gd178 2.353 . S
O212 C223 1.242 . S
O213 Gd178 2.468 . S
O213 C231 1.263 . S
O214 Gd178 2.427 . S
O214 C231 1.252 . S
O215 Gd179 2.307 . S
O215 C224 1.261 . S
O216 Gd178 2.388 . S
O216 C224 1.252 . S
O217 Gd178 2.386 . S
O217 C235 1.265 . S
O218 Gd179 2.353 . S
O218 C235 1.242 . S
O219 Gd179 2.468 . S
O219 C243 1.263 . S
O220 Gd179 2.427 . S
O220 C243 1.252 . S
O221 Gd178 2.307 . S
O221 C236 1.261 . S
O222 Gd179 2.388 . S
O222 C236 1.252 . S
C223 O211 1.265 . S
C223 O212 1.242 . S
C224 O215 1.261 . S
C224 O216 1.252 . S
C225 C228 1.394 . S
C225 C230 1.370 . S
C225 C231 1.500 . S
C226 C229 1.383 . S
C226 C230 1.395 . S
C227 C228 1.396 . S
C227 C229 1.365 . S
C227 H244 0.929 . S
C228 C225 1.394 . S
C228 C227 1.396 . S
C228 H245 0.930 . S
C229 C226 1.383 . S
C229 C227 1.365 . S
C229 H246 0.931 . S
C230 C225 1.370 . S
C230 C226 1.395 . S
C230 H247 0.930 . S
C231 Gd178 2.805 . S
C231 O213 1.263 . S
C231 O214 1.252 . S
C231 C225 1.500 . S
C232 H194 0.930 . S
C232 C208 1.417 . S
C232 C233 1.329 . S
C233 C203 1.437 . S
C233 H204 0.929 . S
C233 C232 1.329 . S
H234 C207 0.929 1_455 S
C235 O217 1.265 . S
C235 O218 1.242 . S
C236 O221 1.261 . S
C236 O222 1.252 . S
C237 C240 1.394 . S
C237 C242 1.370 . S
C237 C243 1.500 . S
C238 C241 1.383 . S
C238 C242 1.395 . S
C239 C240 1.396 . S
C239 C241 1.365 . S
C239 H248 0.929 . S
C240 C237 1.394 . S
C240 C239 1.396 . S
C240 H249 0.930 . S
C241 C238 1.383 . S
C241 C239 1.365 . S
C241 H250 0.931 . S
C242 C237 1.370 . S
C242 C238 1.395 . S
C242 H251 0.930 . S
C243 Gd179 2.805 . S
C243 O219 1.263 . S
C243 O220 1.252 . S
C243 C237 1.500 . S
H244 C227 0.929 . S
H245 C228 0.930 . S
H246 C229 0.931 . S
H247 C230 0.930 . S
H248 C239 0.929 . S
H249 C240 0.930 . S
H250 C241 0.931 . S
H251 C242 0.930 . S
H252 C260 0.929 . S
H253 C262 0.930 . S
H254 C264 0.930 . S
H255 C267 0.929 . S
H256 C270 0.930 . S
H257 C272 0.960 . S
H258 C272 0.960 . S
H259 C272 0.960 . S
C260 H252 0.929 . S
C260 C261 1.377 . S
C260 C262 1.384 . S
C261 C260 1.377 . S
C261 C267 1.390 1_455 S
C262 H253 0.930 . S
C262 C260 1.384 . S
C262 C263 1.372 . S
C263 C262 1.372 . S
C263 C264 1.400 1_455 S
C263 C268 1.490 . S
C264 H254 0.930 . S
C264 C263 1.400 1_655 S
C264 C267 1.386 . S
H265 C281 0.930 . S
H266 C282 0.931 . S
C267 H255 0.929 . S
C267 C261 1.390 1_655 S
C267 C264 1.386 . S
C268 C263 1.490 . S
C268 C270 1.395 . S
C268 C271 1.403 1_455 S
H269 C275 0.930 . S
C270 H256 0.930 . S
C270 C268 1.395 . S
C270 C273 1.403 1_565 S
C271 C268 1.403 1_655 S
C271 C272 1.524 . S
C271 C275 1.400 . S
C272 H257 0.960 . S
C272 H258 0.960 . S
C272 H259 0.960 . S
C272 C271 1.524 . S
C273 C270 1.403 1_545 S
C273 C274 1.392 . S
C273 C277 1.495 . S
C274 C273 1.392 . S
C274 C275 1.385 1_445 S
C274 C276 1.478 . S
C275 H269 0.930 . S
C275 C271 1.400 . S
C275 C274 1.385 1_665 S
C276 C274 1.478 . S
C276 C278 1.381 . S
C276 C282 1.383 1_455 S
C277 C273 1.495 . S
C277 H283 0.959 . S
C277 H284 0.961 . S
C277 H285 0.960 . S
C278 C276 1.381 . S
C278 C279 1.394 . S
C278 H286 0.930 . S
C279 C278 1.394 . S
C279 C280 1.383 1_455 S
C279 H287 0.929 . S
C280 C279 1.383 1_655 S
C280 C281 1.377 . S
C281 H265 0.930 . S
C281 C280 1.377 . S
C281 C282 1.379 . S
C282 H266 0.931 . S
C282 C276 1.383 1_655 S
C282 C281 1.379 . S
H283 C277 0.959 . S
H284 C277 0.961 . S
H285 C277 0.960 . S
H286 C278 0.930 . S
H287 C279 0.929 . S
H288 C296 0.929 . S
H289 C298 0.930 . S
H290 C300 0.930 . S
H291 C303 0.929 . S
H292 C306 0.930 . S
H293 C308 0.960 . S
H294 C308 0.960 . S
H295 C308 0.960 . S
C296 H288 0.929 . S
C296 C297 1.377 . S
C296 C298 1.384 . S
C297 C296 1.377 . S
C297 C303 1.390 . S
C298 H289 0.930 . S
C298 C296 1.384 . S
C298 C299 1.372 . S
C299 C298 1.372 . S
C299 C300 1.400 . S
C299 C304 1.490 . S
C300 H290 0.930 . S
C300 C299 1.400 . S
C300 C303 1.386 . S
H301 C317 0.930 1_565 S
H302 C318 0.942 . S
C303 H291 0.929 . S
C303 C297 1.390 . S
C303 C300 1.386 . S
C304 C299 1.490 . S
C304 C306 1.395 . S
C304 C307 1.403 . S
H305 C311 0.930 . S
C306 H292 0.930 . S
C306 C304 1.395 . S
C306 C309 1.403 . S
C307 C304 1.403 . S
C307 C308 1.524 . S
C307 C311 1.400 . S
C308 H293 0.960 . S
C308 H294 0.960 . S
C308 H295 0.960 . S
C308 C307 1.524 . S
C309 C306 1.403 . S
C309 C310 1.392 . S
C309 C313 1.495 . S
C310 C309 1.392 . S
C310 C311 1.385 . S
C310 C312 1.478 . S
C311 H305 0.930 . S
C311 C307 1.400 . S
C311 C310 1.385 . S
C312 C310 1.478 . S
C312 C314 1.381 . S
C312 C318 1.383 1_455 S
C313 C309 1.495 . S
C313 H319 0.959 . S
C313 H320 0.961 . S
C313 H321 0.960 . S
C314 C312 1.381 . S
C314 C315 1.394 1_455 S
C314 H322 0.930 . S
C315 C314 1.394 1_655 S
C315 C316 1.383 . S
C315 H323 0.929 . S
C316 C315 1.383 . S
C316 C317 1.377 . S
C317 H301 0.930 1_545 S
C317 C316 1.377 . S
C317 C318 1.379 . S
C318 H302 0.942 . S
C318 C312 1.383 1_655 S
C318 C317 1.379 . S
H319 C313 0.959 . S
H320 C313 0.961 . S
H321 C313 0.960 . S
H322 C314 0.930 . S
H323 C315 0.929 . S
H324 C332 0.929 . S
H325 C334 0.930 . S
H326 C336 0.930 . S
H327 C339 0.929 . S
H328 C342 0.930 . S
H329 C344 0.960 . S
H330 C344 0.960 . S
H331 C344 0.960 . S
C332 H324 0.929 . S
C332 C333 1.377 . S
C332 C334 1.384 . S
C333 C332 1.377 . S
C333 C339 1.390 . S
C334 H325 0.930 . S
C334 C332 1.384 . S
C334 C335 1.372 1_655 S
C335 C334 1.372 1_455 S
C335 C336 1.400 . S
C335 C340 1.490 . S
C336 H326 0.930 . S
C336 C335 1.400 . S
C336 C339 1.386 1_455 S
H337 C353 0.930 . S
H338 C354 0.931 . S
C339 H327 0.929 . S
C339 C333 1.390 . S
C339 C336 1.386 1_655 S
C340 C335 1.490 . S
C340 C342 1.395 . S
C340 C343 1.403 . S
H341 C347 0.930 1_545 S
C342 H328 0.930 . S
C342 C340 1.395 . S
C342 C345 1.403 . S
C343 C340 1.403 . S
C343 C344 1.524 . S
C343 C347 1.400 . S
C344 H329 0.960 . S
C344 H330 0.960 . S
C344 H331 0.960 . S
C344 C343 1.524 . S
C345 C342 1.403 . S
C345 C346 1.392 1_565 S
C345 C349 1.498 . S
C346 C345 1.392 1_545 S
C346 C347 1.385 1_545 S
C346 C348 1.478 . S
C347 H341 0.930 1_565 S
C347 C343 1.400 . S
C347 C346 1.385 1_565 S
C348 C346 1.478 . S
C348 C350 1.381 . S
C348 C354 1.383 . S
C349 C345 1.498 . S
C349 H355 0.966 . S
C349 H356 0.968 1_565 S
C349 H357 0.944 1_565 S
C350 C348 1.381 . S
C350 C351 1.394 . S
C350 H358 0.930 . S
C351 C350 1.394 . S
C351 C352 1.383 . S
C351 H359 0.929 . S
C352 C351 1.383 . S
C352 C353 1.377 . S
C353 H337 0.930 . S
C353 C352 1.377 . S
C353 C354 1.379 . S
C354 H338 0.931 . S
C354 C348 1.383 . S
C354 C353 1.379 . S
H355 C349 0.966 . S
H356 C349 0.968 1_545 S
H357 C349 0.944 1_545 S
H358 C350 0.930 . S
H359 C351 0.929 . S
H360 C368 0.929 . S
H361 C370 0.930 . S
H362 C372 0.930 1_554 S
H363 C375 0.929 . S
H364 C378 0.918 1_556 S
H365 C380 0.960 . S
H366 C380 0.960 . S
H367 C380 0.960 . S
C368 H360 0.929 . S
C368 C369 1.377 . S
C368 C370 1.384 . S
C369 C368 1.377 . S
C369 C375 1.390 . S
C370 H361 0.930 . S
C370 C368 1.384 . S
C370 C371 1.372 . S
C371 C370 1.372 . S
C371 C372 1.400 . S
C371 C376 1.490 1_556 S
C372 H362 0.930 1_556 S
C372 C371 1.400 . S
C372 C375 1.386 . S
H373 C389 0.930 . S
H374 C390 0.931 . S
C375 H363 0.929 . S
C375 C369 1.390 . S
C375 C372 1.386 . S
C376 C371 1.490 1_554 S
C376 C378 1.395 . S
C376 C379 1.403 . S
H377 C383 0.930 . S
C378 H364 0.918 1_554 S
C378 C376 1.395 . S
C378 C381 1.403 . S
C379 C376 1.403 . S
C379 C380 1.524 . S
C379 C383 1.400 . S
C380 H365 0.960 . S
C380 H366 0.960 . S
C380 H367 0.960 . S
C380 C379 1.524 . S
C381 C378 1.403 . S
C381 C382 1.392 . S
C381 C385 1.495 . S
C382 C381 1.392 . S
C382 C383 1.385 . S
C382 C384 1.478 . S
C383 H377 0.930 . S
C383 C379 1.400 . S
C383 C382 1.385 . S
C384 C382 1.478 . S
C384 C386 1.381 . S
C384 C390 1.383 . S
C385 C381 1.495 . S
C385 H391 0.959 . S
C385 H392 0.961 . S
C385 H393 0.960 . S
C386 C384 1.381 . S
C386 C387 1.394 . S
C386 H394 0.930 . S
C387 C386 1.394 . S
C387 C388 1.383 . S
C387 H395 0.929 . S
C388 C387 1.383 . S
C388 C389 1.377 . S
C389 H373 0.930 . S
C389 C388 1.377 . S
C389 C390 1.379 . S
C390 H374 0.931 . S
C390 C384 1.383 . S
C390 C389 1.379 . S
H391 C385 0.959 . S
H392 C385 0.961 . S
H393 C385 0.960 . S
H394 C386 0.930 . S
H395 C387 0.929 . S
H396 C404 0.929 . S
H397 C406 0.930 . S
H398 C408 0.930 . S
H399 C411 0.929 . S
H400 C414 0.930 . S
H401 C416 0.960 . S
H402 C416 0.960 . S
H403 C416 0.960 . S
C404 H396 0.929 . S
C404 C405 1.377 . S
C404 C406 1.384 . S
C405 C404 1.377 . S
C405 C411 1.390 . S
C406 H397 0.930 . S
C406 C404 1.384 . S
C406 C407 1.372 . S
C407 C406 1.372 . S
C407 C408 1.400 . S
C407 C412 1.490 . S
C408 H398 0.930 . S
C408 C407 1.400 . S
C408 C411 1.386 . S
H409 C425 0.930 . S
H410 C426 0.931 . S
C411 H399 0.929 . S
C411 C405 1.390 . S
C411 C408 1.386 . S
C412 C407 1.490 . S
C412 C414 1.395 . S
C412 C415 1.403 . S
H413 C419 0.930 . S
C414 H400 0.930 . S
C414 C412 1.395 . S
C414 C417 1.403 . S
C415 C412 1.403 . S
C415 C416 1.524 . S
C415 C419 1.400 . S
C416 H401 0.960 . S
C416 H402 0.960 . S
C416 H403 0.960 . S
C416 C415 1.524 . S
C417 C414 1.403 . S
C417 C418 1.392 . S
C417 C421 1.495 . S
C418 C417 1.392 . S
C418 C419 1.385 . S
C418 C420 1.478 . S
C419 H413 0.930 . S
C419 C415 1.400 . S
C419 C418 1.385 . S
C420 C418 1.478 . S
C420 C422 1.381 . S
C420 C426 1.383 . S
C421 C417 1.495 . S
C421 H427 0.959 . S
C421 H428 0.961 . S
C421 H429 0.960 . S
C422 C420 1.381 . S
C422 C423 1.394 . S
C422 H430 0.930 . S
C423 C422 1.394 . S
C423 C424 1.383 . S
C423 H431 0.929 . S
C424 C423 1.383 . S
C424 C425 1.377 . S
C425 H409 0.930 . S
C425 C424 1.377 . S
C425 C426 1.379 . S
C426 H410 0.931 . S
C426 C420 1.383 . S
C426 C425 1.379 . S
H427 C421 0.959 . S
H428 C421 0.961 . S
H429 C421 0.960 . S
H430 C422 0.930 . S
H431 C423 0.929 . S
H432 C440 0.929 . S
H433 C442 0.930 . S
H434 C444 0.930 . S
H435 C447 0.929 . S
H436 C450 0.930 . S
H437 C452 0.960 . S
H438 C452 0.960 . S
H439 C452 0.960 . S
C440 H432 0.929 . S
C440 C441 1.377 . S
C440 C442 1.384 . S
C441 C440 1.377 . S
C441 C447 1.390 . S
C442 H433 0.930 . S
C442 C440 1.384 . S
C442 C443 1.372 . S
C443 C442 1.372 . S
C443 C444 1.400 . S
C443 C448 1.490 . S
C444 H434 0.930 . S
C444 C443 1.400 . S
C444 C447 1.386 . S
H445 C461 0.930 . S
H446 C462 0.931 . S
C447 H435 0.929 . S
C447 C441 1.390 . S
C447 C444 1.386 . S
C448 C443 1.490 . S
C448 C450 1.395 . S
C448 C451 1.403 . S
H449 C455 0.930 . S
C450 H436 0.930 . S
C450 C448 1.395 . S
C450 C453 1.403 . S
C451 C448 1.403 . S
C451 C452 1.524 . S
C451 C455 1.400 . S
C452 H437 0.960 . S
C452 H438 0.960 . S
C452 H439 0.960 . S
C452 C451 1.524 . S
C453 C450 1.403 . S
C453 C454 1.392 . S
C453 C457 1.495 . S
C454 C453 1.392 . S
C454 C455 1.385 . S
C454 C456 1.478 . S
C455 H449 0.930 . S
C455 C451 1.400 . S
C455 C454 1.385 . S
C456 C454 1.478 . S
C456 C458 1.381 . S
C456 C462 1.383 . S
C457 C453 1.495 . S
C457 H463 0.959 . S
C457 H464 0.961 . S
C457 H465 0.960 . S
C458 C456 1.381 . S
C458 C459 1.394 . S
C458 H466 0.930 . S
C459 C458 1.394 . S
C459 C460 1.383 . S
C459 H467 0.929 . S
C460 C459 1.383 . S
C460 C461 1.377 . S
C461 H445 0.930 . S
C461 C460 1.377 . S
C461 C462 1.379 . S
C462 H446 0.931 . S
C462 C456 1.383 . S
C462 C461 1.379 . S
H463 C457 0.959 . S
H464 C457 0.961 . S
H465 C457 0.960 . S
H466 C458 0.930 . S
H467 C459 0.929 . S
H468 C476 0.929 . S
H469 C478 0.930 . S
H470 C480 0.930 . S
H471 C483 0.929 . S
H472 C486 0.930 . S
H473 C488 0.960 . S
H474 C488 0.960 . S
H475 C488 0.960 . S
C476 H468 0.929 . S
C476 C477 1.377 . S
C476 C478 1.384 . S
C477 C476 1.377 . S
C477 C483 1.390 . S
C478 H469 0.930 . S
C478 C476 1.384 . S
C478 C479 1.372 . S
C479 C478 1.372 . S
C479 C480 1.400 . S
C479 C484 1.490 . S
C480 H470 0.930 . S
C480 C479 1.400 . S
C480 C483 1.386 . S
H481 C497 0.930 . S
H482 C498 0.931 . S
C483 H471 0.929 . S
C483 C477 1.390 . S
C483 C480 1.386 . S
C484 C479 1.490 . S
C484 C486 1.395 . S
C484 C487 1.403 . S
H485 C491 0.930 . S
C486 H472 0.930 . S
C486 C484 1.395 . S
C486 C489 1.403 . S
C487 C484 1.403 . S
C487 C488 1.524 . S
C487 C491 1.400 . S
C488 H473 0.960 . S
C488 H474 0.960 . S
C488 H475 0.960 . S
C488 C487 1.524 . S
C489 C486 1.403 . S
C489 C490 1.392 . S
C489 C493 1.495 . S
C490 C489 1.392 . S
C490 C491 1.385 . S
C490 C492 1.478 1_556 S
C491 H485 0.930 . S
C491 C487 1.400 . S
C491 C490 1.385 . S
C492 C490 1.478 1_554 S
C492 C494 1.381 . S
C492 C498 1.383 . S
C493 C489 1.495 . S
C493 H499 0.959 . S
C493 H500 0.961 . S
C493 H501 0.960 . S
C494 C492 1.381 . S
C494 C495 1.394 . S
C494 H502 0.930 . S
C495 C494 1.394 . S
C495 C496 1.383 . S
C495 H503 0.929 . S
C496 C495 1.383 . S
C496 C497 1.377 . S
C497 H481 0.930 . S
C497 C496 1.377 . S
C497 C498 1.379 . S
C498 H482 0.931 . S
C498 C492 1.383 . S
C498 C497 1.379 . S
H499 C493 0.959 . S
H500 C493 0.961 . S
H501 C493 0.960 . S
H502 C494 0.930 . S
H503 C495 0.929 . S
H504 C512 0.929 . S
H505 C514 0.930 . S
H506 C516 0.930 . S
H507 C519 0.929 . S
H508 C522 0.930 . S
H509 C524 0.960 . S
H510 C524 0.960 . S
H511 C524 0.960 . S
C512 H504 0.929 . S
C512 C513 1.377 . S
C512 C514 1.384 . S
C513 C512 1.377 . S
C513 C519 1.390 . S
C514 H505 0.930 . S
C514 C512 1.384 . S
C514 C515 1.372 . S
C515 C514 1.372 . S
C515 C516 1.400 . S
C515 C520 1.490 . S
C516 H506 0.930 . S
C516 C515 1.400 . S
C516 C519 1.386 . S
H517 C533 0.930 . S
H518 C534 0.931 . S
C519 H507 0.929 . S
C519 C513 1.390 . S
C519 C516 1.386 . S
C520 C515 1.490 . S
C520 C522 1.395 . S
C520 C523 1.403 . S
H521 C527 0.930 . S
C522 H508 0.930 . S
C522 C520 1.395 . S
C522 C525 1.403 . S
C523 C520 1.403 . S
C523 C524 1.524 . S
C523 C527 1.400 . S
C524 H509 0.960 . S
C524 H510 0.960 . S
C524 H511 0.960 . S
C524 C523 1.524 . S
C525 C522 1.403 . S
C525 C526 1.392 . S
C525 C529 1.495 . S
C526 C525 1.392 . S
C526 C527 1.385 . S
C526 C528 1.478 . S
C527 H521 0.930 . S
C527 C523 1.400 . S
C527 C526 1.385 . S
C528 C526 1.478 . S
C528 C530 1.381 . S
C528 C534 1.383 . S
C529 C525 1.495 . S
C529 H535 0.959 . S
C529 H536 0.961 . S
C529 H537 0.960 . S
C530 C528 1.381 . S
C530 C531 1.394 1_565 S
C530 H538 0.936 . S
C531 C530 1.394 1_545 S
C531 C532 1.383 1_545 S
C531 H539 0.929 . S
C532 C531 1.383 1_565 S
C532 C533 1.377 . S
C533 H517 0.930 . S
C533 C532 1.377 . S
C533 C534 1.379 . S
C534 H518 0.931 . S
C534 C528 1.383 . S
C534 C533 1.379 . S
H535 C529 0.959 . S
H536 C529 0.961 . S
H537 C529 0.960 . S
H538 C530 0.936 . S
H539 C531 0.929 . S
H540 C548 0.929 . S
H541 C550 0.930 . S
H542 C552 0.930 . S
H543 C555 0.929 1_455 S
H544 C558 0.930 . S
H545 C560 0.960 . S
H546 C560 0.960 . S
H547 C560 0.960 . S
C548 H540 0.929 . S
C548 C549 1.377 . S
C548 C550 1.384 . S
C549 C548 1.377 . S
C549 C555 1.390 . S
C550 H541 0.930 . S
C550 C548 1.384 . S
C550 C551 1.372 . S
C551 C550 1.372 . S
C551 C552 1.400 . S
C551 C556 1.490 . S
C552 H542 0.930 . S
C552 C551 1.400 . S
C552 C555 1.386 . S
H553 C569 0.930 . S
H554 C570 0.931 . S
C555 H543 0.929 1_655 S
C555 C549 1.390 . S
C555 C552 1.386 . S
C556 C551 1.490 . S
C556 C558 1.395 . S
C556 C559 1.403 . S
H557 C563 0.930 . S
C558 H544 0.930 . S
C558 C556 1.395 . S
C558 C561 1.403 . S
C559 C556 1.403 . S
C559 C560 1.524 . S
C559 C563 1.400 . S
C560 H545 0.960 . S
C560 H546 0.960 . S
C560 H547 0.960 . S
C560 C559 1.524 . S
C561 C558 1.403 . S
C561 C562 1.392 . S
C561 C565 1.495 . S
C562 C561 1.392 . S
C562 C563 1.385 . S
C562 C564 1.478 . S
C563 H557 0.930 . S
C563 C559 1.400 . S
C563 C562 1.385 . S
C564 C562 1.478 . S
C564 C566 1.381 . S
C564 C570 1.383 . S
C565 C561 1.495 . S
C565 H571 0.959 . S
C565 H572 0.961 . S
C565 H573 0.960 . S
C566 C564 1.381 . S
C566 C567 1.394 . S
C566 H574 0.930 . S
C567 C566 1.394 . S
C567 C568 1.383 . S
C567 H575 0.929 . S
C568 C567 1.383 . S
C568 C569 1.377 . S
C569 H553 0.930 . S
C569 C568 1.377 . S
C569 C570 1.379 . S
C570 H554 0.931 . S
C570 C564 1.383 . S
C570 C569 1.379 . S
H571 C565 0.959 . S
H572 C565 0.961 . S
H573 C565 0.960 . S
H574 C566 0.930 . S
H575 C567 0.929 . S
C261 C56 1.425 . S
C280 C68 1.419 . S
C297 C152 1.417 . S
C316 C140 1.389 . S
C333 C236 1.419 . S
C352 C224 1.440 . S
C369 C238 1.524 . S
C388 C55 1.660 . S
C405 C142 0.867 . S
C424 C67 1.066 . S
C441 C223 1.662 . S
C460 C154 1.527 . S
C477 C235 1.075 . S
C496 C58 0.924 . S
C513 C70 1.539 . S
C532 C139 1.650 1_565 S
C549 C226 0.834 . S
C568 C151 1.104 . S
