# Generated by pormake.
# Topology vcc, (6)-cn, num edge types: 1
# Building blocks:
#     Node 0, Type 0, BuildingBlock: VOLQOD_clean_sbu_1, # of connection points: 6
#     Node 1, Type 0, BuildingBlock: VOLQOD_clean_sbu_1, # of connection points: 6
#     Node 2, Type 0, BuildingBlock: VOLQOD_clean_sbu_1, # of connection points: 6
#     Node 3, Type 0, BuildingBlock: VOLQOD_clean_sbu_1, # of connection points: 6
#     Node 4, Type 0, BuildingBlock: VOLQOD_clean_sbu_1, # of connection points: 6
#     Node 5, Type 0, BuildingBlock: VOLQOD_clean_sbu_1, # of connection points: 6
#     Node 6, Type 0, BuildingBlock: VOLQOD_clean_sbu_1, # of connection points: 6
#     Node 7, Type 0, BuildingBlock: VOLQOD_clean_sbu_1, # of connection points: 6
#     Node 8, Type 0, BuildingBlock: VOLQOD_clean_sbu_1, # of connection points: 6
#     Node 9, Type 0, BuildingBlock: VOLQOD_clean_sbu_1, # of connection points: 6
#     Node 10, Type 0, BuildingBlock: VOLQOD_clean_sbu_1, # of connection points: 6
#     Node 11, Type 0, BuildingBlock: VOLQOD_clean_sbu_1, # of connection points: 6
#     Node 12, Type 0, BuildingBlock: VOLQOD_clean_sbu_1, # of connection points: 6
#     Node 13, Type 0, BuildingBlock: VOLQOD_clean_sbu_1, # of connection points: 6
#     Node 14, Type 0, BuildingBlock: VOLQOD_clean_sbu_1, # of connection points: 6
#     Node 15, Type 0, BuildingBlock: VOLQOD_clean_sbu_1, # of connection points: 6
#     Node 16, Type 0, BuildingBlock: VOLQOD_clean_sbu_1, # of connection points: 6
#     Node 17, Type 0, BuildingBlock: VOLQOD_clean_sbu_1, # of connection points: 6
#     Node 18, Type 0, BuildingBlock: VOLQOD_clean_sbu_1, # of connection points: 6
#     Node 19, Type 0, BuildingBlock: VOLQOD_clean_sbu_1, # of connection points: 6
#     Node 20, Type 0, BuildingBlock: VOLQOD_clean_sbu_1, # of connection points: 6
#     Node 21, Type 0, BuildingBlock: VOLQOD_clean_sbu_1, # of connection points: 6
#     Node 22, Type 0, BuildingBlock: VOLQOD_clean_sbu_1, # of connection points: 6
#     Node 23, Type 0, BuildingBlock: VOLQOD_clean_sbu_1, # of connection points: 6
#     Node 24, Type 0, BuildingBlock: VOLQOD_clean_sbu_1, # of connection points: 6
#     Node 25, Type 0, BuildingBlock: VOLQOD_clean_sbu_1, # of connection points: 6
#     Node 26, Type 0, BuildingBlock: VOLQOD_clean_sbu_1, # of connection points: 6
#     Node 27, Type 0, BuildingBlock: VOLQOD_clean_sbu_1, # of connection points: 6
#     Node 28, Type 0, BuildingBlock: VOLQOD_clean_sbu_1, # of connection points: 6
#     Node 29, Type 0, BuildingBlock: VOLQOD_clean_sbu_1, # of connection points: 6
#     Node 30, Type 0, BuildingBlock: VOLQOD_clean_sbu_1, # of connection points: 6
#     Node 31, Type 0, BuildingBlock: VOLQOD_clean_sbu_1, # of connection points: 6
#     Edge 32, Type (0, 0), None
#     Edge 33, Type (0, 0), None
#     Edge 34, Type (0, 0), None
#     Edge 35, Type (0, 0), None
#     Edge 36, Type (0, 0), None
#     Edge 37, Type (0, 0), None
#     Edge 38, Type (0, 0), None
#     Edge 39, Type (0, 0), None
#     Edge 40, Type (0, 0), None
#     Edge 41, Type (0, 0), None
#     Edge 42, Type (0, 0), None
#     Edge 43, Type (0, 0), None
#     Edge 44, Type (0, 0), None
#     Edge 45, Type (0, 0), None
#     Edge 46, Type (0, 0), None
#     Edge 47, Type (0, 0), None
#     Edge 48, Type (0, 0), None
#     Edge 49, Type (0, 0), None
#     Edge 50, Type (0, 0), None
#     Edge 51, Type (0, 0), None
#     Edge 52, Type (0, 0), None
#     Edge 53, Type (0, 0), None
#     Edge 54, Type (0, 0), None
#     Edge 55, Type (0, 0), None
#     Edge 56, Type (0, 0), None
#     Edge 57, Type (0, 0), None
#     Edge 58, Type (0, 0), None
#     Edge 59, Type (0, 0), None
#     Edge 60, Type (0, 0), None
#     Edge 61, Type (0, 0), None
#     Edge 62, Type (0, 0), None
#     Edge 63, Type (0, 0), None
#     Edge 64, Type (0, 0), None
#     Edge 65, Type (0, 0), None
#     Edge 66, Type (0, 0), None
#     Edge 67, Type (0, 0), None
#     Edge 68, Type (0, 0), None
#     Edge 69, Type (0, 0), None
#     Edge 70, Type (0, 0), None
#     Edge 71, Type (0, 0), None
#     Edge 72, Type (0, 0), None
#     Edge 73, Type (0, 0), None
#     Edge 74, Type (0, 0), None
#     Edge 75, Type (0, 0), None
#     Edge 76, Type (0, 0), None
#     Edge 77, Type (0, 0), None
#     Edge 78, Type (0, 0), None
#     Edge 79, Type (0, 0), None
#     Edge 80, Type (0, 0), None
#     Edge 81, Type (0, 0), None
#     Edge 82, Type (0, 0), None
#     Edge 83, Type (0, 0), None
#     Edge 84, Type (0, 0), None
#     Edge 85, Type (0, 0), None
#     Edge 86, Type (0, 0), None
#     Edge 87, Type (0, 0), None
#     Edge 88, Type (0, 0), None
#     Edge 89, Type (0, 0), None
#     Edge 90, Type (0, 0), None
#     Edge 91, Type (0, 0), None
#     Edge 92, Type (0, 0), None
#     Edge 93, Type (0, 0), None
#     Edge 94, Type (0, 0), None
#     Edge 95, Type (0, 0), None
#     Edge 96, Type (0, 0), None
#     Edge 97, Type (0, 0), None
#     Edge 98, Type (0, 0), None
#     Edge 99, Type (0, 0), None
#     Edge 100, Type (0, 0), None
#     Edge 101, Type (0, 0), None
#     Edge 102, Type (0, 0), None
#     Edge 103, Type (0, 0), None
#     Edge 104, Type (0, 0), None
#     Edge 105, Type (0, 0), None
#     Edge 106, Type (0, 0), None
#     Edge 107, Type (0, 0), None
#     Edge 108, Type (0, 0), None
#     Edge 109, Type (0, 0), None
#     Edge 110, Type (0, 0), None
#     Edge 111, Type (0, 0), None
#     Edge 112, Type (0, 0), None
#     Edge 113, Type (0, 0), None
#     Edge 114, Type (0, 0), None
#     Edge 115, Type (0, 0), None
#     Edge 116, Type (0, 0), None
#     Edge 117, Type (0, 0), None
#     Edge 118, Type (0, 0), None
#     Edge 119, Type (0, 0), None
#     Edge 120, Type (0, 0), None
#     Edge 121, Type (0, 0), None
#     Edge 122, Type (0, 0), None
#     Edge 123, Type (0, 0), None
#     Edge 124, Type (0, 0), None
#     Edge 125, Type (0, 0), None
#     Edge 126, Type (0, 0), None
#     Edge 127, Type (0, 0), None
# Relax obj value: 0.034
# Max RMSD: 0.059
# Mean RMSD: 0.059
data_MOF--net-vcc--node1-VOLQOD_clean_sbu_1--edge1-none
_symmetry_space_group_name_H-M    P1
_symmetry_Int_Tables_number       1
_symmetry_cell_setting            triclinic
loop_
_symmetry_equiv_pos_as_xyz
'x, y, z'
_cell_length_a     30.499148
_cell_length_b     34.470631
_cell_length_c     19.031034
_cell_angle_alpha  90.0
_cell_angle_beta   89.999979
_cell_angle_gamma 90.000078
loop_
_atom_site_label
_atom_site_type_symbol
_atom_site_fract_x
_atom_site_fract_y
_atom_site_fract_z
_atom_type_partial_charge
O0 O 0.24294 0.94373 -0.00507 0.0
Zn1 Zn 0.28614 0.93876 0.07866 0.0
O2 O 0.33016 0.97862 0.07824 0.0
Zn3 Zn 0.38566 0.95877 0.0475 0.0
Zn4 Zn 0.30276 0.01641 0.01765 0.0
Zn5 Zn 0.34087 0.00395 0.16641 0.0
O6 O 0.43636 0.97642 0.1144 0.0
O7 O 0.39839 -0.00948 0.21114 0.0
O8 O 0.31612 0.88483 0.08001 0.0
O9 O 0.38561 0.90006 0.05647 0.0
O10 O 0.38738 0.97198 0.94219 0.0
O11 O 0.32717 0.00806 0.92565 0.0
O12 O 0.31373 0.07077 0.05008 0.0
O13 O 0.25028 0.95239 0.16424 0.0
O14 O 0.34045 0.06094 0.15727 0.0
O15 O 0.29033 -0.00509 0.22591 0.0
C16 C 0.22489 0.97512 0.97379 0.0
C17 C 0.43473 -0.01569 0.18036 0.0
C18 C 0.35955 -0.01073 0.90237 0.0
C19 C 0.35616 0.87489 0.0698 0.0
C20 C 0.32853 0.08339 0.10825 0.0
C21 C 0.25536 0.97589 0.21565 0.0
O22 O 0.23914 0.00785 -0.00552 0.0
O23 O 0.98184 0.26441 -0.00507 0.0
Zn24 Zn 0.93864 0.26939 0.07866 0.0
O25 O 0.89462 0.22953 0.07824 0.0
Zn26 Zn 0.83912 0.24938 0.0475 0.0
Zn27 Zn 0.92202 0.19174 0.01765 0.0
Zn28 Zn 0.88391 0.2042 0.16641 0.0
O29 O 0.78843 0.23173 0.1144 0.0
O30 O 0.82639 0.21763 0.21114 0.0
O31 O 0.90866 0.32332 0.08001 0.0
O32 O 0.83917 0.30808 0.05647 0.0
O33 O 0.8374 0.23617 0.94219 0.0
O34 O 0.89761 0.20008 0.92565 0.0
O35 O 0.91105 0.13738 0.05008 0.0
O36 O 0.9745 0.25575 0.16423 0.0
O37 O 0.88433 0.14721 0.15727 0.0
O38 O 0.93445 0.21324 0.22591 0.0
C39 C -0.00011 0.23303 0.97379 0.0
C40 C 0.79005 0.22384 0.18036 0.0
C41 C 0.86523 0.21888 0.90237 0.0
C42 C 0.86862 0.33326 0.0698 0.0
C43 C 0.89625 0.12476 0.10825 0.0
C44 C 0.96942 0.23226 0.21565 0.0
O45 O 0.98564 0.2003 -0.00552 0.0
O46 O 0.24294 0.26441 0.23457 0.0
Zn47 Zn 0.28614 0.26939 0.15084 0.0
O48 O 0.33016 0.22953 0.15127 0.0
Zn49 Zn 0.38566 0.24938 0.18201 0.0
Zn50 Zn 0.30276 0.19174 0.21185 0.0
Zn51 Zn 0.34087 0.2042 0.0631 0.0
O52 O 0.43636 0.23173 0.1151 0.0
O53 O 0.39839 0.21763 0.01837 0.0
O54 O 0.31612 0.32332 0.1495 0.0
O55 O 0.38561 0.30808 0.17304 0.0
O56 O 0.38738 0.23617 0.28731 0.0
O57 O 0.32717 0.20009 0.30385 0.0
O58 O 0.31373 0.13738 0.17943 0.0
O59 O 0.25028 0.25576 0.06527 0.0
O60 O 0.34045 0.14721 0.07223 0.0
O61 O 0.29033 0.21324 0.0036 0.0
C62 C 0.22489 0.23303 0.25571 0.0
C63 C 0.43473 0.22384 0.04914 0.0
C64 C 0.35955 0.21888 0.32713 0.0
C65 C 0.35616 0.33326 0.1597 0.0
C66 C 0.32854 0.12476 0.12127 0.0
C67 C 0.25536 0.23226 0.01386 0.0
O68 O 0.23914 0.2003 0.23502 0.0
O69 O 0.98184 0.94373 0.23457 0.0
Zn70 Zn 0.93864 0.93876 0.15085 0.0
O71 O 0.89462 0.97862 0.15127 0.0
Zn72 Zn 0.83912 0.95877 0.18201 0.0
Zn73 Zn 0.92202 0.01641 0.21185 0.0
Zn74 Zn 0.88391 0.00395 0.0631 0.0
O75 O 0.78843 0.97642 0.1151 0.0
O76 O 0.82639 -0.00948 0.01837 0.0
O77 O 0.90866 0.88483 0.1495 0.0
O78 O 0.83917 0.90006 0.17304 0.0
O79 O 0.8374 0.97198 0.28732 0.0
O80 O 0.89761 0.00806 0.30385 0.0
O81 O 0.91105 0.07077 0.17943 0.0
O82 O 0.9745 0.95239 0.06527 0.0
O83 O 0.88433 0.06094 0.07223 0.0
O84 O 0.93445 -0.00509 0.0036 0.0
C85 C -0.00011 0.97512 0.25572 0.0
C86 C 0.79005 -0.01569 0.04915 0.0
C87 C 0.86523 -0.01073 0.32714 0.0
C88 C 0.86862 0.87489 0.1597 0.0
C89 C 0.89625 0.08339 0.12127 0.0
C90 C 0.96942 0.97589 0.01386 0.0
O91 O 0.98564 0.00785 0.23503 0.0
O92 O 0.73184 0.01441 0.98457 0.0
Zn93 Zn 0.68864 0.01938 0.90085 0.0
O94 O 0.64462 -0.02047 0.90127 0.0
Zn95 Zn 0.58912 -0.00062 0.93201 0.0
Zn96 Zn 0.67202 0.94174 0.96185 0.0
Zn97 Zn 0.63391 0.9542 0.8131 0.0
O98 O 0.53843 -0.01827 0.8651 0.0
O99 O 0.57639 0.96763 0.76837 0.0
O100 O 0.65866 0.07332 0.8995 0.0
O101 O 0.58917 0.05808 0.92304 0.0
O102 O 0.5874 -0.01383 0.03731 0.0
O103 O 0.64761 0.95008 0.05385 0.0
O104 O 0.66105 0.88738 0.92942 0.0
O105 O 0.7245 0.00576 0.81527 0.0
O106 O 0.63433 0.89721 0.82223 0.0
O107 O 0.68445 0.96324 0.75359 0.0
C108 C 0.74989 -0.01697 0.00572 0.0
C109 C 0.54005 0.97384 0.79914 0.0
C110 C 0.61523 0.96888 0.07713 0.0
C111 C 0.61862 0.08326 0.9097 0.0
C112 C 0.64625 0.87476 0.87126 0.0
C113 C 0.71942 -0.01774 0.76386 0.0
O114 O 0.73564 0.95029 0.98502 0.0
O115 O -0.00706 0.69373 0.98457 0.0
Zn116 Zn 0.03614 0.68876 0.90085 0.0
O117 O 0.08016 0.72862 0.90127 0.0
Zn118 Zn 0.13566 0.70877 0.93201 0.0
Zn119 Zn 0.05276 0.76641 0.96185 0.0
Zn120 Zn 0.09087 0.75395 0.8131 0.0
O121 O 0.18636 0.72642 0.8651 0.0
O122 O 0.14839 0.74052 0.76837 0.0
O123 O 0.06612 0.63483 0.8995 0.0
O124 O 0.13561 0.65006 0.92304 0.0
O125 O 0.13738 0.72198 0.03731 0.0
O126 O 0.07717 0.75807 0.05385 0.0
O127 O 0.06373 0.82077 0.92942 0.0
O128 O 0.00028 0.70239 0.81527 0.0
O129 O 0.09045 0.81094 0.82223 0.0
O130 O 0.04033 0.74491 0.7536 0.0
C131 C 0.97489 0.72512 0.00572 0.0
C132 C 0.18473 0.73431 0.79915 0.0
C133 C 0.10955 0.73927 0.07713 0.0
C134 C 0.10616 0.62489 0.9097 0.0
C135 C 0.07853 0.83339 0.87126 0.0
C136 C 0.00536 0.72589 0.76386 0.0
O137 O -0.01086 0.75785 0.98503 0.0
O138 O 0.73184 0.69373 0.74493 0.0
Zn139 Zn 0.68864 0.68876 0.82866 0.0
O140 O 0.64462 0.72862 0.82824 0.0
Zn141 Zn 0.58912 0.70877 0.7975 0.0
Zn142 Zn 0.67202 0.76641 0.76765 0.0
Zn143 Zn 0.63391 0.75395 0.91641 0.0
O144 O 0.53843 0.72642 0.8644 0.0
O145 O 0.57639 0.74052 0.96114 0.0
O146 O 0.65866 0.63483 0.83001 0.0
O147 O 0.58917 0.65006 0.80647 0.0
O148 O 0.5874 0.72198 0.69219 0.0
O149 O 0.64761 0.75806 0.67565 0.0
O150 O 0.66105 0.82077 0.80008 0.0
O151 O 0.7245 0.70239 0.91424 0.0
O152 O 0.63433 0.81094 0.90727 0.0
O153 O 0.68445 0.74491 0.97591 0.0
C154 C 0.74989 0.72512 0.72379 0.0
C155 C 0.54005 0.7343 0.93036 0.0
C156 C 0.61523 0.73927 0.65237 0.0
C157 C 0.61862 0.62489 0.8198 0.0
C158 C 0.64624 0.83339 0.85824 0.0
C159 C 0.71942 0.72589 0.96565 0.0
O160 O 0.73564 0.75785 0.74448 0.0
O161 O -0.00706 0.01441 0.74493 0.0
Zn162 Zn 0.03614 0.01939 0.82866 0.0
O163 O 0.08016 -0.02047 0.82824 0.0
Zn164 Zn 0.13566 -0.00062 0.7975 0.0
Zn165 Zn 0.05276 0.94174 0.76765 0.0
Zn166 Zn 0.09087 0.9542 0.91641 0.0
O167 O 0.18636 -0.01827 0.8644 0.0
O168 O 0.14839 0.96762 0.96114 0.0
O169 O 0.06612 0.07332 0.83001 0.0
O170 O 0.13561 0.05808 0.80647 0.0
O171 O 0.13738 -0.01383 0.69219 0.0
O172 O 0.07717 0.95009 0.67565 0.0
O173 O 0.06373 0.88738 0.80008 0.0
O174 O 0.00028 0.00576 0.91424 0.0
O175 O 0.09044 0.89721 0.90727 0.0
O176 O 0.04033 0.96324 0.97591 0.0
C177 C 0.97489 -0.01697 0.72379 0.0
C178 C 0.18473 0.97384 0.93036 0.0
C179 C 0.10955 0.96888 0.65237 0.0
C180 C 0.10616 0.08326 0.8198 0.0
C181 C 0.07853 0.87476 0.85824 0.0
C182 C 0.00536 -0.01774 0.96565 0.0
O183 O -0.01086 0.9503 0.74448 0.0
O184 O 0.24294 0.44373 0.49493 0.0
Zn185 Zn 0.28614 0.43876 0.57866 0.0
O186 O 0.33016 0.47862 0.57824 0.0
Zn187 Zn 0.38566 0.45877 0.5475 0.0
Zn188 Zn 0.30276 0.51641 0.51765 0.0
Zn189 Zn 0.34087 0.50395 0.66641 0.0
O190 O 0.43636 0.47642 0.6144 0.0
O191 O 0.39839 0.49052 0.71114 0.0
O192 O 0.31612 0.38483 0.58001 0.0
O193 O 0.38561 0.40006 0.55647 0.0
O194 O 0.38738 0.47198 0.44219 0.0
O195 O 0.32717 0.50806 0.42565 0.0
O196 O 0.31373 0.57077 0.55008 0.0
O197 O 0.25028 0.45239 0.66424 0.0
O198 O 0.34045 0.56094 0.65727 0.0
O199 O 0.29033 0.49491 0.72591 0.0
C200 C 0.22489 0.47512 0.47379 0.0
C201 C 0.43473 0.4843 0.68036 0.0
C202 C 0.35955 0.48927 0.40237 0.0
C203 C 0.35616 0.37489 0.5698 0.0
C204 C 0.32853 0.58339 0.60825 0.0
C205 C 0.25536 0.47589 0.71565 0.0
O206 O 0.23914 0.50785 0.49448 0.0
O207 O 0.98184 0.76441 0.49493 0.0
Zn208 Zn 0.93864 0.76939 0.57866 0.0
O209 O 0.89462 0.72953 0.57824 0.0
Zn210 Zn 0.83912 0.74938 0.5475 0.0
Zn211 Zn 0.92202 0.69174 0.51765 0.0
Zn212 Zn 0.88391 0.7042 0.66641 0.0
O213 O 0.78843 0.73173 0.6144 0.0
O214 O 0.82639 0.71763 0.71114 0.0
O215 O 0.90866 0.82332 0.58001 0.0
O216 O 0.83917 0.80809 0.55647 0.0
O217 O 0.8374 0.73617 0.44219 0.0
O218 O 0.89761 0.70008 0.42565 0.0
O219 O 0.91105 0.63738 0.55008 0.0
O220 O 0.9745 0.75576 0.66424 0.0
O221 O 0.88434 0.64721 0.65727 0.0
O222 O 0.93445 0.71324 0.72591 0.0
C223 C -0.00011 0.73303 0.47379 0.0
C224 C 0.79005 0.72384 0.68036 0.0
C225 C 0.86523 0.71888 0.40237 0.0
C226 C 0.86862 0.83326 0.5698 0.0
C227 C 0.89625 0.62476 0.60825 0.0
C228 C 0.96942 0.73226 0.71565 0.0
O229 O 0.98564 0.7003 0.49448 0.0
O230 O 0.24294 0.76441 0.73457 0.0
Zn231 Zn 0.28614 0.76939 0.65085 0.0
O232 O 0.33016 0.72953 0.65127 0.0
Zn233 Zn 0.38566 0.74938 0.68201 0.0
Zn234 Zn 0.30276 0.69174 0.71185 0.0
Zn235 Zn 0.34087 0.7042 0.5631 0.0
O236 O 0.43636 0.73173 0.6151 0.0
O237 O 0.39839 0.71763 0.51837 0.0
O238 O 0.31612 0.82332 0.6495 0.0
O239 O 0.38561 0.80808 0.67304 0.0
O240 O 0.38738 0.73617 0.78731 0.0
O241 O 0.32717 0.70009 0.80385 0.0
O242 O 0.31373 0.63738 0.67943 0.0
O243 O 0.25028 0.75576 0.56527 0.0
O244 O 0.34045 0.64721 0.57223 0.0
O245 O 0.29033 0.71324 0.5036 0.0
C246 C 0.22489 0.73303 0.75572 0.0
C247 C 0.43473 0.72384 0.54914 0.0
C248 C 0.35955 0.71888 0.82713 0.0
C249 C 0.35616 0.83326 0.6597 0.0
C250 C 0.32854 0.62476 0.62127 0.0
C251 C 0.25536 0.73226 0.51386 0.0
O252 O 0.23914 0.70029 0.73502 0.0
O253 O 0.98184 0.44373 0.73457 0.0
Zn254 Zn 0.93864 0.43876 0.65085 0.0
O255 O 0.89462 0.47862 0.65127 0.0
Zn256 Zn 0.83912 0.45877 0.68201 0.0
Zn257 Zn 0.92202 0.51641 0.71185 0.0
Zn258 Zn 0.88391 0.50395 0.5631 0.0
O259 O 0.78843 0.47642 0.6151 0.0
O260 O 0.82639 0.49052 0.51837 0.0
O261 O 0.90866 0.38483 0.6495 0.0
O262 O 0.83917 0.40006 0.67304 0.0
O263 O 0.8374 0.47198 0.78732 0.0
O264 O 0.89761 0.50806 0.80385 0.0
O265 O 0.91105 0.57077 0.67943 0.0
O266 O 0.9745 0.45239 0.56527 0.0
O267 O 0.88434 0.56094 0.57223 0.0
O268 O 0.93445 0.49491 0.5036 0.0
C269 C -0.00011 0.47512 0.75572 0.0
C270 C 0.79005 0.48431 0.54915 0.0
C271 C 0.86523 0.48927 0.82714 0.0
C272 C 0.86862 0.37489 0.6597 0.0
C273 C 0.89625 0.58339 0.62127 0.0
C274 C 0.96942 0.47589 0.51386 0.0
O275 O 0.98564 0.50785 0.73503 0.0
O276 O 0.73184 0.51441 0.48457 0.0
Zn277 Zn 0.68864 0.51939 0.40085 0.0
O278 O 0.64462 0.47953 0.40127 0.0
Zn279 Zn 0.58912 0.49938 0.43201 0.0
Zn280 Zn 0.67202 0.44174 0.46185 0.0
Zn281 Zn 0.63391 0.4542 0.3131 0.0
O282 O 0.53843 0.48173 0.3651 0.0
O283 O 0.57639 0.46763 0.26837 0.0
O284 O 0.65866 0.57332 0.3995 0.0
O285 O 0.58917 0.55808 0.42304 0.0
O286 O 0.5874 0.48617 0.53731 0.0
O287 O 0.64761 0.45008 0.55385 0.0
O288 O 0.66105 0.38738 0.42942 0.0
O289 O 0.7245 0.50576 0.31527 0.0
O290 O 0.63433 0.39721 0.32223 0.0
O291 O 0.68445 0.46324 0.2536 0.0
C292 C 0.74989 0.48303 0.50572 0.0
C293 C 0.54005 0.47384 0.29914 0.0
C294 C 0.61523 0.46888 0.57713 0.0
C295 C 0.61862 0.58326 0.4097 0.0
C296 C 0.64625 0.37476 0.37126 0.0
C297 C 0.71942 0.48226 0.26386 0.0
O298 O 0.73564 0.45029 0.48502 0.0
O299 O -0.00706 0.19373 0.48457 0.0
Zn300 Zn 0.03614 0.18876 0.40085 0.0
O301 O 0.08016 0.22862 0.40127 0.0
Zn302 Zn 0.13566 0.20877 0.43201 0.0
Zn303 Zn 0.05276 0.26641 0.46185 0.0
Zn304 Zn 0.09087 0.25395 0.31309 0.0
O305 O 0.18636 0.22642 0.3651 0.0
O306 O 0.14839 0.24052 0.26837 0.0
O307 O 0.06612 0.13483 0.3995 0.0
O308 O 0.13561 0.15006 0.42304 0.0
O309 O 0.13738 0.22198 0.53731 0.0
O310 O 0.07717 0.25806 0.55385 0.0
O311 O 0.06373 0.32077 0.42942 0.0
O312 O 0.00028 0.20239 0.31527 0.0
O313 O 0.09044 0.31094 0.32223 0.0
O314 O 0.04033 0.24491 0.25359 0.0
C315 C 0.97489 0.22512 0.50572 0.0
C316 C 0.18473 0.23431 0.29915 0.0
C317 C 0.10955 0.23927 0.57713 0.0
C318 C 0.10616 0.12489 0.4097 0.0
C319 C 0.07853 0.33339 0.37126 0.0
C320 C 0.00536 0.22589 0.26385 0.0
O321 O -0.01086 0.25785 0.48503 0.0
O322 O 0.73184 0.19374 0.24493 0.0
Zn323 Zn 0.68864 0.18876 0.32866 0.0
O324 O 0.64462 0.22862 0.32824 0.0
Zn325 Zn 0.58912 0.20877 0.2975 0.0
Zn326 Zn 0.67202 0.26641 0.26765 0.0
Zn327 Zn 0.63391 0.25395 0.41641 0.0
O328 O 0.53843 0.22642 0.3644 0.0
O329 O 0.57639 0.24052 0.46114 0.0
O330 O 0.65866 0.13483 0.33001 0.0
O331 O 0.58917 0.15006 0.30647 0.0
O332 O 0.5874 0.22198 0.19219 0.0
O333 O 0.64761 0.25806 0.17565 0.0
O334 O 0.66105 0.32077 0.30008 0.0
O335 O 0.7245 0.20239 0.41424 0.0
O336 O 0.63433 0.31094 0.40727 0.0
O337 O 0.68445 0.24491 0.47591 0.0
C338 C 0.74989 0.22512 0.22379 0.0
C339 C 0.54005 0.2343 0.43036 0.0
C340 C 0.61523 0.23927 0.15237 0.0
C341 C 0.61862 0.12489 0.3198 0.0
C342 C 0.64624 0.33339 0.35824 0.0
C343 C 0.71942 0.22589 0.46565 0.0
O344 O 0.73564 0.25786 0.24448 0.0
O345 O -0.00706 0.51441 0.24493 0.0
Zn346 Zn 0.03614 0.51939 0.32866 0.0
O347 O 0.08016 0.47953 0.32824 0.0
Zn348 Zn 0.13566 0.49938 0.2975 0.0
Zn349 Zn 0.05276 0.44174 0.26765 0.0
Zn350 Zn 0.09087 0.4542 0.41641 0.0
O351 O 0.18636 0.48173 0.3644 0.0
O352 O 0.14839 0.46762 0.46114 0.0
O353 O 0.06612 0.57332 0.33001 0.0
O354 O 0.13561 0.55808 0.30647 0.0
O355 O 0.13738 0.48617 0.19219 0.0
O356 O 0.07717 0.45009 0.17565 0.0
O357 O 0.06373 0.38738 0.30008 0.0
O358 O 0.00028 0.50576 0.41424 0.0
O359 O 0.09044 0.39721 0.40727 0.0
O360 O 0.04033 0.46324 0.47591 0.0
C361 C 0.97489 0.48303 0.22379 0.0
C362 C 0.18473 0.47384 0.43036 0.0
C363 C 0.10955 0.46888 0.15237 0.0
C364 C 0.10616 0.58326 0.3198 0.0
C365 C 0.07853 0.37476 0.35824 0.0
C366 C 0.00536 0.48226 0.46565 0.0
O367 O -0.01086 0.4503 0.24448 0.0
O368 O 0.74294 0.94373 0.49493 0.0
Zn369 Zn 0.78614 0.93876 0.57866 0.0
O370 O 0.83016 0.97862 0.57824 0.0
Zn371 Zn 0.88566 0.95877 0.5475 0.0
Zn372 Zn 0.80276 0.01641 0.51766 0.0
Zn373 Zn 0.84087 0.00395 0.66641 0.0
O374 O 0.93636 0.97642 0.6144 0.0
O375 O 0.89839 -0.00948 0.71114 0.0
O376 O 0.81612 0.88483 0.58001 0.0
O377 O 0.88561 0.90007 0.55647 0.0
O378 O 0.88738 0.97198 0.44219 0.0
O379 O 0.82716 0.00806 0.42566 0.0
O380 O 0.81373 0.07077 0.55008 0.0
O381 O 0.75028 0.95239 0.66424 0.0
O382 O 0.84044 0.06094 0.65727 0.0
O383 O 0.79033 -0.00509 0.72591 0.0
C384 C 0.72489 0.97512 0.47379 0.0
C385 C 0.93473 -0.01569 0.68036 0.0
C386 C 0.85954 -0.01073 0.40237 0.0
C387 C 0.85616 0.87489 0.56981 0.0
C388 C 0.82853 0.08339 0.60825 0.0
C389 C 0.75536 0.97589 0.71565 0.0
O390 O 0.73914 0.00785 0.49449 0.0
O391 O 0.48184 0.26441 0.49493 0.0
Zn392 Zn 0.43864 0.26938 0.57866 0.0
O393 O 0.39462 0.22953 0.57824 0.0
Zn394 Zn 0.33912 0.24938 0.5475 0.0
Zn395 Zn 0.42202 0.19174 0.51766 0.0
Zn396 Zn 0.38391 0.2042 0.66641 0.0
O397 O 0.28843 0.23173 0.6144 0.0
O398 O 0.32639 0.21763 0.71114 0.0
O399 O 0.40866 0.32332 0.58001 0.0
O400 O 0.33917 0.30808 0.55647 0.0
O401 O 0.3374 0.23617 0.44219 0.0
O402 O 0.39762 0.20008 0.42565 0.0
O403 O 0.41105 0.13738 0.55008 0.0
O404 O 0.4745 0.25575 0.66423 0.0
O405 O 0.38433 0.14721 0.65727 0.0
O406 O 0.43445 0.21324 0.72591 0.0
C407 C 0.49989 0.23303 0.47379 0.0
C408 C 0.29005 0.22384 0.68036 0.0
C409 C 0.36524 0.21888 0.40237 0.0
C410 C 0.36862 0.33326 0.56981 0.0
C411 C 0.39625 0.12476 0.60825 0.0
C412 C 0.46942 0.23226 0.71565 0.0
O413 O 0.48564 0.20029 0.49449 0.0
O414 O 0.74294 0.26441 0.73457 0.0
Zn415 Zn 0.78614 0.26939 0.65085 0.0
O416 O 0.83016 0.22953 0.65127 0.0
Zn417 Zn 0.88566 0.24938 0.68201 0.0
Zn418 Zn 0.80276 0.19174 0.71185 0.0
Zn419 Zn 0.84087 0.2042 0.5631 0.0
O420 O 0.93636 0.23173 0.61511 0.0
O421 O 0.89839 0.21762 0.51837 0.0
O422 O 0.81612 0.32332 0.6495 0.0
O423 O 0.88561 0.30808 0.67304 0.0
O424 O 0.88738 0.23616 0.78732 0.0
O425 O 0.82716 0.20009 0.80385 0.0
O426 O 0.81373 0.13738 0.67943 0.0
O427 O 0.75028 0.25576 0.56527 0.0
O428 O 0.84044 0.14721 0.57223 0.0
O429 O 0.79033 0.21324 0.50359 0.0
C430 C 0.72489 0.23303 0.75571 0.0
C431 C 0.93473 0.22384 0.54915 0.0
C432 C 0.85954 0.21888 0.82714 0.0
C433 C 0.85616 0.33326 0.6597 0.0
C434 C 0.82853 0.12476 0.62127 0.0
C435 C 0.75536 0.23226 0.51385 0.0
O436 O 0.73914 0.2003 0.73502 0.0
O437 O 0.48184 0.94374 0.73458 0.0
Zn438 Zn 0.43864 0.93876 0.65085 0.0
O439 O 0.39462 0.97862 0.65127 0.0
Zn440 Zn 0.33912 0.95877 0.68201 0.0
Zn441 Zn 0.42202 0.01641 0.71185 0.0
Zn442 Zn 0.38391 0.00395 0.5631 0.0
O443 O 0.28843 0.97642 0.61511 0.0
O444 O 0.32639 -0.00948 0.51837 0.0
O445 O 0.40866 0.88483 0.6495 0.0
O446 O 0.33917 0.90007 0.67304 0.0
O447 O 0.3374 0.97198 0.78732 0.0
O448 O 0.39762 0.00806 0.80385 0.0
O449 O 0.41105 0.07077 0.67943 0.0
O450 O 0.4745 0.95239 0.56527 0.0
O451 O 0.38433 0.06094 0.57223 0.0
O452 O 0.43445 -0.00509 0.5036 0.0
C453 C 0.49989 0.97512 0.75571 0.0
C454 C 0.29005 -0.01569 0.54915 0.0
C455 C 0.36524 -0.01073 0.82714 0.0
C456 C 0.36862 0.87489 0.6597 0.0
C457 C 0.39624 0.08339 0.62127 0.0
C458 C 0.46942 0.97589 0.51386 0.0
O459 O 0.48564 0.00785 0.73501 0.0
O460 O 0.23184 0.01441 0.48458 0.0
Zn461 Zn 0.18864 0.01939 0.40085 0.0
O462 O 0.14462 -0.02047 0.40127 0.0
Zn463 Zn 0.08912 -0.00062 0.43201 0.0
Zn464 Zn 0.17202 0.94174 0.46185 0.0
Zn465 Zn 0.13391 0.9542 0.3131 0.0
O466 O 0.03843 -0.01827 0.36511 0.0
O467 O 0.07639 0.96763 0.26837 0.0
O468 O 0.15866 0.07332 0.3995 0.0
O469 O 0.08917 0.05808 0.42304 0.0
O470 O 0.0874 -0.01383 0.53732 0.0
O471 O 0.14762 0.95008 0.55385 0.0
O472 O 0.16105 0.88738 0.42942 0.0
O473 O 0.2245 0.00576 0.31527 0.0
O474 O 0.13434 0.89721 0.32223 0.0
O475 O 0.18445 0.96324 0.25359 0.0
C476 C 0.24989 -0.01697 0.50572 0.0
C477 C 0.04005 0.97384 0.29915 0.0
C478 C 0.11524 0.96888 0.57714 0.0
C479 C 0.11862 0.08326 0.4097 0.0
C480 C 0.14625 0.87476 0.37126 0.0
C481 C 0.21942 -0.01774 0.26386 0.0
O482 O 0.23564 0.95029 0.48502 0.0
O483 O 0.49294 0.69374 0.48457 0.0
Zn484 Zn 0.53614 0.68876 0.40085 0.0
O485 O 0.58016 0.72862 0.40127 0.0
Zn486 Zn 0.63566 0.70877 0.43201 0.0
Zn487 Zn 0.55276 0.76641 0.46185 0.0
Zn488 Zn 0.59087 0.75395 0.3131 0.0
O489 O 0.68636 0.72642 0.36511 0.0
O490 O 0.64839 0.74052 0.26837 0.0
O491 O 0.56612 0.63483 0.3995 0.0
O492 O 0.63561 0.65007 0.42304 0.0
O493 O 0.63738 0.72198 0.53732 0.0
O494 O 0.57716 0.75806 0.55385 0.0
O495 O 0.56373 0.82077 0.42942 0.0
O496 O 0.50028 0.70239 0.31527 0.0
O497 O 0.59045 0.81094 0.32223 0.0
O498 O 0.54033 0.74491 0.2536 0.0
C499 C 0.47489 0.72512 0.50571 0.0
C500 C 0.68473 0.73431 0.29915 0.0
C501 C 0.60954 0.73927 0.57714 0.0
C502 C 0.60616 0.62489 0.4097 0.0
C503 C 0.57853 0.83339 0.37126 0.0
C504 C 0.50536 0.72589 0.26386 0.0
O505 O 0.48914 0.75785 0.48501 0.0
O506 O 0.23184 0.69373 0.24493 0.0
Zn507 Zn 0.18864 0.68876 0.32866 0.0
O508 O 0.14462 0.72862 0.32824 0.0
Zn509 Zn 0.08912 0.70877 0.2975 0.0
Zn510 Zn 0.17203 0.76641 0.26765 0.0
Zn511 Zn 0.13391 0.75395 0.41641 0.0
O512 O 0.03843 0.72642 0.3644 0.0
O513 O 0.07639 0.74052 0.46114 0.0
O514 O 0.15866 0.63483 0.33001 0.0
O515 O 0.08917 0.65007 0.30647 0.0
O516 O 0.0874 0.72198 0.19219 0.0
O517 O 0.14762 0.75806 0.17565 0.0
O518 O 0.16105 0.82077 0.30008 0.0
O519 O 0.2245 0.70239 0.41424 0.0
O520 O 0.13434 0.81094 0.40727 0.0
O521 O 0.18445 0.74491 0.47591 0.0
C522 C 0.24989 0.72512 0.22379 0.0
C523 C 0.04005 0.73431 0.43036 0.0
C524 C 0.11524 0.73927 0.15237 0.0
C525 C 0.11862 0.62489 0.3198 0.0
C526 C 0.14625 0.83339 0.35824 0.0
C527 C 0.21942 0.72589 0.46565 0.0
O528 O 0.23564 0.75785 0.24449 0.0
O529 O 0.49294 0.01441 0.24493 0.0
Zn530 Zn 0.53614 0.01939 0.32866 0.0
O531 O 0.58016 -0.02047 0.32824 0.0
Zn532 Zn 0.63566 -0.00062 0.2975 0.0
Zn533 Zn 0.55276 0.94174 0.26766 0.0
Zn534 Zn 0.59087 0.9542 0.41641 0.0
O535 O 0.68636 -0.01827 0.3644 0.0
O536 O 0.64839 0.96763 0.46114 0.0
O537 O 0.56612 0.07332 0.33001 0.0
O538 O 0.63561 0.05808 0.30647 0.0
O539 O 0.63738 -0.01383 0.19219 0.0
O540 O 0.57716 0.95009 0.17565 0.0
O541 O 0.56373 0.88738 0.30008 0.0
O542 O 0.50028 0.00576 0.41424 0.0
O543 O 0.59045 0.89721 0.40727 0.0
O544 O 0.54033 0.96324 0.47591 0.0
C545 C 0.47489 -0.01697 0.22379 0.0
C546 C 0.68473 0.97384 0.43036 0.0
C547 C 0.60954 0.96888 0.15237 0.0
C548 C 0.60616 0.08326 0.3198 0.0
C549 C 0.57854 0.87476 0.35824 0.0
C550 C 0.50536 -0.01774 0.46565 0.0
O551 O 0.48914 0.95029 0.24449 0.0
O552 O 0.74294 0.44373 -0.00507 0.0
Zn553 Zn 0.78614 0.43876 0.07866 0.0
O554 O 0.83016 0.47862 0.07824 0.0
Zn555 Zn 0.88566 0.45877 0.0475 0.0
Zn556 Zn 0.80276 0.51641 0.01766 0.0
Zn557 Zn 0.84087 0.50395 0.16641 0.0
O558 O 0.93636 0.47642 0.1144 0.0
O559 O 0.89839 0.49052 0.21114 0.0
O560 O 0.81612 0.38483 0.08001 0.0
O561 O 0.88561 0.40007 0.05647 0.0
O562 O 0.88738 0.47198 0.94219 0.0
O563 O 0.82716 0.50806 0.92566 0.0
O564 O 0.81373 0.57077 0.05008 0.0
O565 O 0.75028 0.45239 0.16424 0.0
O566 O 0.84044 0.56094 0.15727 0.0
O567 O 0.79033 0.49491 0.22591 0.0
C568 C 0.72489 0.47512 0.97379 0.0
C569 C 0.93473 0.48431 0.18036 0.0
C570 C 0.85954 0.48927 0.90237 0.0
C571 C 0.85616 0.37489 0.06981 0.0
C572 C 0.82853 0.58339 0.10825 0.0
C573 C 0.75536 0.47589 0.21565 0.0
O574 O 0.73914 0.50785 -0.00551 0.0
O575 O 0.48184 0.76441 -0.00507 0.0
Zn576 Zn 0.43864 0.76939 0.07866 0.0
O577 O 0.39462 0.72953 0.07824 0.0
Zn578 Zn 0.33912 0.74938 0.0475 0.0
Zn579 Zn 0.42202 0.69174 0.01766 0.0
Zn580 Zn 0.38391 0.7042 0.16641 0.0
O581 O 0.28843 0.73173 0.1144 0.0
O582 O 0.32639 0.71763 0.21114 0.0
O583 O 0.40866 0.82332 0.08001 0.0
O584 O 0.33917 0.80808 0.05647 0.0
O585 O 0.3374 0.73617 0.94219 0.0
O586 O 0.39762 0.70009 0.92566 0.0
O587 O 0.41105 0.63738 0.05008 0.0
O588 O 0.4745 0.75576 0.16424 0.0
O589 O 0.38434 0.64721 0.15728 0.0
O590 O 0.43445 0.71324 0.22591 0.0
C591 C 0.49989 0.73303 0.97379 0.0
C592 C 0.29005 0.72384 0.18036 0.0
C593 C 0.36524 0.71888 0.90237 0.0
C594 C 0.36862 0.83326 0.06981 0.0
C595 C 0.39625 0.62476 0.10825 0.0
C596 C 0.46942 0.73226 0.21565 0.0
O597 O 0.48564 0.70029 -0.00551 0.0
O598 O 0.74294 0.76441 0.23458 0.0
Zn599 Zn 0.78614 0.76939 0.15085 0.0
O600 O 0.83016 0.72953 0.15127 0.0
Zn601 Zn 0.88566 0.74938 0.18201 0.0
Zn602 Zn 0.80276 0.69174 0.21185 0.0
Zn603 Zn 0.84087 0.7042 0.0631 0.0
O604 O 0.93636 0.73173 0.11511 0.0
O605 O 0.89839 0.71762 0.01837 0.0
O606 O 0.81612 0.82332 0.1495 0.0
O607 O 0.88561 0.80808 0.17304 0.0
O608 O 0.88738 0.73617 0.28732 0.0
O609 O 0.82716 0.70009 0.30385 0.0
O610 O 0.81373 0.63738 0.17943 0.0
O611 O 0.75028 0.75576 0.06527 0.0
O612 O 0.84044 0.64721 0.07223 0.0
O613 O 0.79033 0.71324 0.00359 0.0
C614 C 0.72489 0.73303 0.25572 0.0
C615 C 0.93473 0.72384 0.04915 0.0
C616 C 0.85954 0.71888 0.32714 0.0
C617 C 0.85616 0.83326 0.1597 0.0
C618 C 0.82853 0.62476 0.12127 0.0
C619 C 0.75536 0.73226 0.01385 0.0
O620 O 0.73914 0.70029 0.23502 0.0
O621 O 0.48184 0.44374 0.23458 0.0
Zn622 Zn 0.43864 0.43876 0.15085 0.0
O623 O 0.39462 0.47862 0.15127 0.0
Zn624 Zn 0.33912 0.45877 0.18201 0.0
Zn625 Zn 0.42202 0.51641 0.21185 0.0
Zn626 Zn 0.38391 0.50395 0.0631 0.0
O627 O 0.28843 0.47642 0.11511 0.0
O628 O 0.32639 0.49052 0.01837 0.0
O629 O 0.40866 0.38483 0.1495 0.0
O630 O 0.33917 0.40007 0.17304 0.0
O631 O 0.3374 0.47198 0.28732 0.0
O632 O 0.39762 0.50806 0.30385 0.0
O633 O 0.41105 0.57077 0.17943 0.0
O634 O 0.4745 0.45239 0.06527 0.0
O635 O 0.38433 0.56094 0.07223 0.0
O636 O 0.43445 0.49491 0.0036 0.0
C637 C 0.49989 0.47512 0.25571 0.0
C638 C 0.29005 0.48431 0.04915 0.0
C639 C 0.36524 0.48927 0.32714 0.0
C640 C 0.36862 0.37489 0.1597 0.0
C641 C 0.39624 0.58339 0.12127 0.0
C642 C 0.46942 0.47589 0.01386 0.0
O643 O 0.48564 0.50785 0.23501 0.0
O644 O 0.23184 0.51441 0.98458 0.0
Zn645 Zn 0.18864 0.51939 0.90085 0.0
O646 O 0.14462 0.47953 0.90127 0.0
Zn647 Zn 0.08912 0.49938 0.93201 0.0
Zn648 Zn 0.17202 0.44174 0.96185 0.0
Zn649 Zn 0.13391 0.4542 0.8131 0.0
O650 O 0.03843 0.48173 0.86511 0.0
O651 O 0.07639 0.46763 0.76837 0.0
O652 O 0.15866 0.57332 0.8995 0.0
O653 O 0.08917 0.55808 0.92304 0.0
O654 O 0.0874 0.48617 0.03732 0.0
O655 O 0.14762 0.45009 0.05385 0.0
O656 O 0.16105 0.38738 0.92942 0.0
O657 O 0.2245 0.50576 0.81527 0.0
O658 O 0.13434 0.39721 0.82223 0.0
O659 O 0.18445 0.46324 0.75359 0.0
C660 C 0.24989 0.48303 0.00572 0.0
C661 C 0.04005 0.47384 0.79915 0.0
C662 C 0.11524 0.46888 0.07714 0.0
C663 C 0.11862 0.58326 0.9097 0.0
C664 C 0.14625 0.37476 0.87126 0.0
C665 C 0.21942 0.48226 0.76386 0.0
O666 O 0.23564 0.45029 0.98502 0.0
O667 O 0.49294 0.19374 0.98457 0.0
Zn668 Zn 0.53614 0.18876 0.90085 0.0
O669 O 0.58016 0.22862 0.90126 0.0
Zn670 Zn 0.63566 0.20877 0.93201 0.0
Zn671 Zn 0.55276 0.26641 0.96185 0.0
Zn672 Zn 0.59087 0.25395 0.81309 0.0
O673 O 0.68636 0.22642 0.8651 0.0
O674 O 0.64839 0.24052 0.76837 0.0
O675 O 0.56612 0.13483 0.8995 0.0
O676 O 0.63561 0.15007 0.92304 0.0
O677 O 0.63738 0.22198 0.03732 0.0
O678 O 0.57716 0.25806 0.05385 0.0
O679 O 0.56373 0.32077 0.92942 0.0
O680 O 0.50028 0.20239 0.81527 0.0
O681 O 0.59045 0.31094 0.82223 0.0
O682 O 0.54033 0.24491 0.75359 0.0
C683 C 0.47489 0.22512 0.00571 0.0
C684 C 0.68473 0.23431 0.79915 0.0
C685 C 0.60954 0.23927 0.07713 0.0
C686 C 0.60616 0.12489 0.9097 0.0
C687 C 0.57853 0.33339 0.87126 0.0
C688 C 0.50536 0.22589 0.76385 0.0
O689 O 0.48914 0.25785 0.98501 0.0
O690 O 0.23184 0.19374 0.74493 0.0
Zn691 Zn 0.18864 0.18876 0.82866 0.0
O692 O 0.14462 0.22862 0.82824 0.0
Zn693 Zn 0.08912 0.20877 0.79749 0.0
Zn694 Zn 0.17202 0.26641 0.76765 0.0
Zn695 Zn 0.13391 0.25395 0.91641 0.0
O696 O 0.03843 0.22642 0.8644 0.0
O697 O 0.07639 0.24052 0.96114 0.0
O698 O 0.15866 0.13483 0.83 0.0
O699 O 0.08917 0.15007 0.80647 0.0
O700 O 0.0874 0.22198 0.69219 0.0
O701 O 0.14762 0.25806 0.67565 0.0
O702 O 0.16105 0.32077 0.80008 0.0
O703 O 0.2245 0.20239 0.91424 0.0
O704 O 0.13434 0.31094 0.90727 0.0
O705 O 0.18445 0.24491 0.97591 0.0
C706 C 0.24989 0.22512 0.72379 0.0
C707 C 0.04005 0.23431 0.93036 0.0
C708 C 0.11524 0.23927 0.65237 0.0
C709 C 0.11862 0.12489 0.8198 0.0
C710 C 0.14625 0.33339 0.85824 0.0
C711 C 0.21942 0.22589 0.96565 0.0
O712 O 0.23564 0.25785 0.74449 0.0
O713 O 0.49294 0.51441 0.74493 0.0
Zn714 Zn 0.53614 0.51939 0.82866 0.0
O715 O 0.58016 0.47953 0.82824 0.0
Zn716 Zn 0.63566 0.49938 0.7975 0.0
Zn717 Zn 0.55276 0.44174 0.76766 0.0
Zn718 Zn 0.59087 0.4542 0.91641 0.0
O719 O 0.68636 0.48173 0.8644 0.0
O720 O 0.64839 0.46763 0.96114 0.0
O721 O 0.56612 0.57332 0.83001 0.0
O722 O 0.63561 0.55808 0.80647 0.0
O723 O 0.63738 0.48617 0.69219 0.0
O724 O 0.57716 0.45009 0.67565 0.0
O725 O 0.56373 0.38738 0.80008 0.0
O726 O 0.50028 0.50576 0.91424 0.0
O727 O 0.59044 0.39721 0.90727 0.0
O728 O 0.54033 0.46324 0.97591 0.0
C729 C 0.47489 0.48303 0.72379 0.0
C730 C 0.68473 0.47384 0.93036 0.0
C731 C 0.60954 0.46888 0.65237 0.0
C732 C 0.60616 0.58326 0.8198 0.0
C733 C 0.57854 0.37476 0.85824 0.0
C734 C 0.50536 0.48226 0.96565 0.0
O735 O 0.48914 0.45029 0.74449 0.0
loop_
_geom_bond_atom_site_label_1
_geom_bond_atom_site_label_2
_geom_bond_distance
_geom_bond_site_symmetry_2
_ccdc_geom_bond_type
O0 Zn1 1.953 . S
O0 C16 1.225 1_554 S
Zn1 O0 1.953 . S
Zn1 O2 1.949 1_565 S
Zn1 O8 1.919 . S
Zn1 O13 1.924 . S
O2 Zn1 1.949 1_545 S
O2 Zn3 1.923 1_545 S
O2 Zn4 1.950 . S
O2 Zn5 1.945 . S
Zn3 O2 1.923 1_565 S
Zn3 O6 1.933 . S
Zn3 O9 1.941 . S
Zn3 O10 1.965 1_554 S
Zn4 O2 1.950 . S
Zn4 O11 1.938 1_554 S
Zn4 O12 1.906 . S
Zn4 O22 1.953 1_554 S
Zn5 O2 1.945 . S
Zn5 O7 1.932 . S
Zn5 O14 1.977 . S
Zn5 O15 1.910 . S
O6 Zn3 1.933 . S
O6 C17 1.226 1_565 S
O7 Zn5 1.932 . S
O7 C17 1.307 . S
O8 Zn1 1.919 . S
O8 C19 1.253 . S
O9 Zn3 1.941 . S
O9 C19 1.283 . S
O10 Zn3 1.965 1_556 S
O10 C18 1.303 1_565 S
O11 Zn4 1.938 1_556 S
O11 C18 1.247 . S
O12 Zn4 1.906 . S
O12 C20 1.304 . S
O13 Zn1 1.924 . S
O13 C21 1.311 . S
O14 Zn5 1.977 . S
O14 C20 1.272 . S
O15 Zn5 1.910 . S
O15 C21 1.231 1_545 S
C16 O0 1.225 1_556 S
C16 O22 1.298 1_565 S
C17 O6 1.226 1_545 S
C17 O7 1.307 . S
C18 O10 1.303 1_545 S
C18 O11 1.247 . S
C19 O8 1.253 . S
C19 O9 1.283 . S
C20 O12 1.304 . S
C20 O14 1.272 . S
C21 O13 1.311 . S
C21 O15 1.231 1_565 S
O22 Zn4 1.953 1_556 S
O22 C16 1.298 1_545 S
O23 Zn24 1.953 1_455 S
O23 C39 1.225 1_554 S
Zn24 O23 1.953 1_655 S
Zn24 O25 1.949 . S
Zn24 O31 1.919 . S
Zn24 O36 1.924 . S
O25 Zn24 1.949 . S
O25 Zn26 1.923 . S
O25 Zn27 1.950 . S
O25 Zn28 1.945 . S
Zn26 O25 1.923 . S
Zn26 O29 1.933 . S
Zn26 O32 1.941 . S
Zn26 O33 1.965 1_554 S
Zn27 O25 1.950 . S
Zn27 O34 1.938 1_554 S
Zn27 O35 1.906 . S
Zn27 O45 1.953 1_554 S
Zn28 O25 1.945 . S
Zn28 O30 1.932 . S
Zn28 O37 1.977 . S
Zn28 O38 1.910 . S
O29 Zn26 1.933 . S
O29 C40 1.226 . S
O30 Zn28 1.932 . S
O30 C40 1.307 . S
O31 Zn24 1.919 . S
O31 C42 1.253 . S
O32 Zn26 1.941 . S
O32 C42 1.283 . S
O33 Zn26 1.965 1_556 S
O33 C41 1.303 . S
O34 Zn27 1.938 1_556 S
O34 C41 1.247 . S
O35 Zn27 1.906 . S
O35 C43 1.304 . S
O36 Zn24 1.924 . S
O36 C44 1.311 . S
O37 Zn28 1.977 . S
O37 C43 1.272 . S
O38 Zn28 1.910 . S
O38 C44 1.231 . S
C39 O23 1.225 1_556 S
C39 O45 1.298 1_455 S
C40 O29 1.226 . S
C40 O30 1.307 . S
C41 O33 1.303 . S
C41 O34 1.247 . S
C42 O31 1.253 . S
C42 O32 1.283 . S
C43 O35 1.304 . S
C43 O37 1.272 . S
C44 O36 1.311 . S
C44 O38 1.231 . S
O45 Zn27 1.953 1_556 S
O45 C39 1.298 1_655 S
O46 Zn47 1.953 . S
O46 C62 1.225 . S
Zn47 O46 1.953 . S
Zn47 O48 1.949 . S
Zn47 O54 1.919 . S
Zn47 O59 1.924 . S
O48 Zn47 1.949 . S
O48 Zn49 1.923 . S
O48 Zn50 1.950 . S
O48 Zn51 1.945 . S
Zn49 O48 1.923 . S
Zn49 O52 1.933 . S
Zn49 O55 1.941 . S
Zn49 O56 1.965 . S
Zn50 O48 1.950 . S
Zn50 O57 1.938 . S
Zn50 O58 1.906 . S
Zn50 O68 1.953 . S
Zn51 O48 1.945 . S
Zn51 O53 1.932 . S
Zn51 O60 1.977 . S
Zn51 O61 1.910 . S
O52 Zn49 1.933 . S
O52 C63 1.226 . S
O53 Zn51 1.932 . S
O53 C63 1.307 . S
O54 Zn47 1.919 . S
O54 C65 1.253 . S
O55 Zn49 1.941 . S
O55 C65 1.283 . S
O56 Zn49 1.965 . S
O56 C64 1.303 . S
O57 Zn50 1.938 . S
O57 C64 1.247 . S
O58 Zn50 1.906 . S
O58 C66 1.304 . S
O59 Zn47 1.924 . S
O59 C67 1.311 . S
O60 Zn51 1.977 . S
O60 C66 1.272 . S
O61 Zn51 1.910 . S
O61 C67 1.231 . S
C62 O46 1.225 . S
C62 O68 1.298 . S
C63 O52 1.226 . S
C63 O53 1.307 . S
C64 O56 1.303 . S
C64 O57 1.247 . S
C65 O54 1.253 . S
C65 O55 1.283 . S
C66 O58 1.304 . S
C66 O60 1.272 . S
C67 O59 1.311 . S
C67 O61 1.231 . S
O68 Zn50 1.953 . S
O68 C62 1.298 . S
O69 Zn70 1.953 1_455 S
O69 C85 1.225 . S
Zn70 O69 1.953 1_655 S
Zn70 O71 1.949 1_565 S
Zn70 O77 1.919 . S
Zn70 O82 1.924 . S
O71 Zn70 1.949 1_545 S
O71 Zn72 1.923 1_545 S
O71 Zn73 1.950 . S
O71 Zn74 1.945 . S
Zn72 O71 1.923 1_565 S
Zn72 O75 1.933 . S
Zn72 O78 1.941 . S
Zn72 O79 1.965 . S
Zn73 O71 1.950 . S
Zn73 O80 1.938 . S
Zn73 O81 1.906 . S
Zn73 O91 1.953 . S
Zn74 O71 1.945 . S
Zn74 O76 1.932 . S
Zn74 O83 1.977 . S
Zn74 O84 1.910 . S
O75 Zn72 1.933 . S
O75 C86 1.226 1_565 S
O76 Zn74 1.932 . S
O76 C86 1.307 . S
O77 Zn70 1.919 . S
O77 C88 1.253 . S
O78 Zn72 1.941 . S
O78 C88 1.283 . S
O79 Zn72 1.965 . S
O79 C87 1.303 1_565 S
O80 Zn73 1.938 . S
O80 C87 1.247 . S
O81 Zn73 1.906 . S
O81 C89 1.304 . S
O82 Zn70 1.924 . S
O82 C90 1.311 . S
O83 Zn74 1.977 . S
O83 C89 1.272 . S
O84 Zn74 1.910 . S
O84 C90 1.231 1_545 S
C85 O69 1.225 . S
C85 O91 1.298 1_465 S
C86 O75 1.226 1_545 S
C86 O76 1.307 . S
C87 O79 1.303 1_545 S
C87 O80 1.247 . S
C88 O77 1.253 . S
C88 O78 1.283 . S
C89 O81 1.304 . S
C89 O83 1.272 . S
C90 O82 1.311 . S
C90 O84 1.231 1_565 S
O91 Zn73 1.953 . S
O91 C85 1.298 1_645 S
O92 Zn93 1.953 . S
O92 C108 1.225 1_556 S
Zn93 O92 1.953 . S
Zn93 O94 1.949 1_545 S
Zn93 O100 1.919 . S
Zn93 O105 1.924 . S
O94 Zn93 1.949 1_565 S
O94 Zn95 1.923 1_565 S
O94 Zn96 1.950 . S
O94 Zn97 1.945 . S
Zn95 O94 1.923 1_545 S
Zn95 O98 1.933 . S
Zn95 O101 1.941 . S
Zn95 O102 1.965 1_556 S
Zn96 O94 1.950 . S
Zn96 O103 1.938 1_556 S
Zn96 O104 1.906 . S
Zn96 O114 1.953 1_556 S
Zn97 O94 1.945 . S
Zn97 O99 1.932 . S
Zn97 O106 1.977 . S
Zn97 O107 1.910 . S
O98 Zn95 1.933 . S
O98 C109 1.226 1_545 S
O99 Zn97 1.932 . S
O99 C109 1.307 . S
O100 Zn93 1.919 . S
O100 C111 1.253 . S
O101 Zn95 1.941 . S
O101 C111 1.283 . S
O102 Zn95 1.965 1_554 S
O102 C110 1.303 1_545 S
O103 Zn96 1.938 1_554 S
O103 C110 1.247 . S
O104 Zn96 1.906 . S
O104 C112 1.304 . S
O105 Zn93 1.924 . S
O105 C113 1.311 . S
O106 Zn97 1.977 . S
O106 C112 1.272 . S
O107 Zn97 1.910 . S
O107 C113 1.231 1_565 S
C108 O92 1.225 1_554 S
C108 O114 1.298 1_545 S
C109 O98 1.226 1_565 S
C109 O99 1.307 . S
C110 O102 1.303 1_565 S
C110 O103 1.247 . S
C111 O100 1.253 . S
C111 O101 1.283 . S
C112 O104 1.304 . S
C112 O106 1.272 . S
C113 O105 1.311 . S
C113 O107 1.231 1_545 S
O114 Zn96 1.953 1_554 S
O114 C108 1.298 1_565 S
O115 Zn116 1.953 1_655 S
O115 C131 1.225 1_556 S
Zn116 O115 1.953 1_455 S
Zn116 O117 1.949 . S
Zn116 O123 1.919 . S
Zn116 O128 1.924 . S
O117 Zn116 1.949 . S
O117 Zn118 1.923 . S
O117 Zn119 1.950 . S
O117 Zn120 1.945 . S
Zn118 O117 1.923 . S
Zn118 O121 1.933 . S
Zn118 O124 1.941 . S
Zn118 O125 1.965 1_556 S
Zn119 O117 1.950 . S
Zn119 O126 1.938 1_556 S
Zn119 O127 1.906 . S
Zn119 O137 1.953 1_556 S
Zn120 O117 1.945 . S
Zn120 O122 1.932 . S
Zn120 O129 1.977 . S
Zn120 O130 1.910 . S
O121 Zn118 1.933 . S
O121 C132 1.226 . S
O122 Zn120 1.932 . S
O122 C132 1.307 . S
O123 Zn116 1.919 . S
O123 C134 1.253 . S
O124 Zn118 1.941 . S
O124 C134 1.283 . S
O125 Zn118 1.965 1_554 S
O125 C133 1.303 . S
O126 Zn119 1.938 1_554 S
O126 C133 1.247 . S
O127 Zn119 1.906 . S
O127 C135 1.304 . S
O128 Zn116 1.924 . S
O128 C136 1.311 . S
O129 Zn120 1.977 . S
O129 C135 1.272 . S
O130 Zn120 1.910 . S
O130 C136 1.231 . S
C131 O115 1.225 1_554 S
C131 O137 1.298 1_655 S
C132 O121 1.226 . S
C132 O122 1.307 . S
C133 O125 1.303 . S
C133 O126 1.247 . S
C134 O123 1.253 . S
C134 O124 1.283 . S
C135 O127 1.304 . S
C135 O129 1.272 . S
C136 O128 1.311 . S
C136 O130 1.231 . S
O137 Zn119 1.953 1_554 S
O137 C131 1.298 1_455 S
O138 Zn139 1.953 . S
O138 C154 1.225 . S
Zn139 O138 1.953 . S
Zn139 O140 1.949 . S
Zn139 O146 1.919 . S
Zn139 O151 1.924 . S
O140 Zn139 1.949 . S
O140 Zn141 1.923 . S
O140 Zn142 1.950 . S
O140 Zn143 1.945 . S
Zn141 O140 1.923 . S
Zn141 O144 1.933 . S
Zn141 O147 1.941 . S
Zn141 O148 1.965 . S
Zn142 O140 1.950 . S
Zn142 O149 1.938 . S
Zn142 O150 1.906 . S
Zn142 O160 1.953 . S
Zn143 O140 1.945 . S
Zn143 O145 1.932 . S
Zn143 O152 1.977 . S
Zn143 O153 1.910 . S
O144 Zn141 1.933 . S
O144 C155 1.226 . S
O145 Zn143 1.932 . S
O145 C155 1.307 . S
O146 Zn139 1.919 . S
O146 C157 1.253 . S
O147 Zn141 1.941 . S
O147 C157 1.283 . S
O148 Zn141 1.965 . S
O148 C156 1.303 . S
O149 Zn142 1.938 . S
O149 C156 1.247 . S
O150 Zn142 1.906 . S
O150 C158 1.304 . S
O151 Zn139 1.924 . S
O151 C159 1.311 . S
O152 Zn143 1.977 . S
O152 C158 1.272 . S
O153 Zn143 1.910 . S
O153 C159 1.231 . S
C154 O138 1.225 . S
C154 O160 1.298 . S
C155 O144 1.226 . S
C155 O145 1.307 . S
C156 O148 1.303 . S
C156 O149 1.247 . S
C157 O146 1.253 . S
C157 O147 1.283 . S
C158 O150 1.304 . S
C158 O152 1.272 . S
C159 O151 1.311 . S
C159 O153 1.231 . S
O160 Zn142 1.953 . S
O160 C154 1.298 . S
O161 Zn162 1.953 1_655 S
O161 C177 1.225 . S
Zn162 O161 1.953 1_455 S
Zn162 O163 1.949 1_545 S
Zn162 O169 1.919 . S
Zn162 O174 1.924 . S
O163 Zn162 1.949 1_565 S
O163 Zn164 1.923 1_565 S
O163 Zn165 1.950 . S
O163 Zn166 1.945 . S
Zn164 O163 1.923 1_545 S
Zn164 O167 1.933 . S
Zn164 O170 1.941 . S
Zn164 O171 1.965 . S
Zn165 O163 1.950 . S
Zn165 O172 1.938 . S
Zn165 O173 1.906 . S
Zn165 O183 1.953 . S
Zn166 O163 1.945 . S
Zn166 O168 1.932 . S
Zn166 O175 1.977 . S
Zn166 O176 1.910 . S
O167 Zn164 1.933 . S
O167 C178 1.226 1_545 S
O168 Zn166 1.932 . S
O168 C178 1.307 . S
O169 Zn162 1.919 . S
O169 C180 1.253 . S
O170 Zn164 1.941 . S
O170 C180 1.283 . S
O171 Zn164 1.965 . S
O171 C179 1.303 1_545 S
O172 Zn165 1.938 . S
O172 C179 1.247 . S
O173 Zn165 1.906 . S
O173 C181 1.304 . S
O174 Zn162 1.924 . S
O174 C182 1.311 . S
O175 Zn166 1.977 . S
O175 C181 1.272 . S
O176 Zn166 1.910 . S
O176 C182 1.231 1_565 S
C177 O161 1.225 . S
C177 O183 1.298 1_645 S
C178 O167 1.226 1_565 S
C178 O168 1.307 . S
C179 O171 1.303 1_565 S
C179 O172 1.247 . S
C180 O169 1.253 . S
C180 O170 1.283 . S
C181 O173 1.304 . S
C181 O175 1.272 . S
C182 O174 1.311 . S
C182 O176 1.231 1_545 S
O183 Zn165 1.953 . S
O183 C177 1.298 1_465 S
O184 Zn185 1.953 . S
O184 C200 1.225 . S
Zn185 O184 1.953 . S
Zn185 O186 1.949 . S
Zn185 O192 1.919 . S
Zn185 O197 1.924 . S
O186 Zn185 1.949 . S
O186 Zn187 1.923 . S
O186 Zn188 1.950 . S
O186 Zn189 1.945 . S
Zn187 O186 1.923 . S
Zn187 O190 1.933 . S
Zn187 O193 1.941 . S
Zn187 O194 1.965 . S
Zn188 O186 1.950 . S
Zn188 O195 1.938 . S
Zn188 O196 1.906 . S
Zn188 O206 1.953 . S
Zn189 O186 1.945 . S
Zn189 O191 1.932 . S
Zn189 O198 1.977 . S
Zn189 O199 1.910 . S
O190 Zn187 1.933 . S
O190 C201 1.226 . S
O191 Zn189 1.932 . S
O191 C201 1.307 . S
O192 Zn185 1.919 . S
O192 C203 1.253 . S
O193 Zn187 1.941 . S
O193 C203 1.283 . S
O194 Zn187 1.965 . S
O194 C202 1.303 . S
O195 Zn188 1.938 . S
O195 C202 1.247 . S
O196 Zn188 1.906 . S
O196 C204 1.304 . S
O197 Zn185 1.924 . S
O197 C205 1.311 . S
O198 Zn189 1.977 . S
O198 C204 1.272 . S
O199 Zn189 1.910 . S
O199 C205 1.231 . S
C200 O184 1.225 . S
C200 O206 1.298 . S
C201 O190 1.226 . S
C201 O191 1.307 . S
C202 O194 1.303 . S
C202 O195 1.247 . S
C203 O192 1.253 . S
C203 O193 1.283 . S
C204 O196 1.304 . S
C204 O198 1.272 . S
C205 O197 1.311 . S
C205 O199 1.231 . S
O206 Zn188 1.953 . S
O206 C200 1.298 . S
O207 Zn208 1.953 1_455 S
O207 C223 1.225 . S
Zn208 O207 1.953 1_655 S
Zn208 O209 1.949 . S
Zn208 O215 1.919 . S
Zn208 O220 1.924 . S
O209 Zn208 1.949 . S
O209 Zn210 1.923 . S
O209 Zn211 1.950 . S
O209 Zn212 1.945 . S
Zn210 O209 1.923 . S
Zn210 O213 1.933 . S
Zn210 O216 1.941 . S
Zn210 O217 1.965 . S
Zn211 O209 1.950 . S
Zn211 O218 1.938 . S
Zn211 O219 1.906 . S
Zn211 O229 1.953 . S
Zn212 O209 1.945 . S
Zn212 O214 1.932 . S
Zn212 O221 1.977 . S
Zn212 O222 1.910 . S
O213 Zn210 1.933 . S
O213 C224 1.226 . S
O214 Zn212 1.932 . S
O214 C224 1.307 . S
O215 Zn208 1.919 . S
O215 C226 1.253 . S
O216 Zn210 1.941 . S
O216 C226 1.283 . S
O217 Zn210 1.965 . S
O217 C225 1.303 . S
O218 Zn211 1.938 . S
O218 C225 1.247 . S
O219 Zn211 1.906 . S
O219 C227 1.304 . S
O220 Zn208 1.924 . S
O220 C228 1.311 . S
O221 Zn212 1.977 . S
O221 C227 1.272 . S
O222 Zn212 1.910 . S
O222 C228 1.231 . S
C223 O207 1.225 . S
C223 O229 1.298 1_455 S
C224 O213 1.226 . S
C224 O214 1.307 . S
C225 O217 1.303 . S
C225 O218 1.247 . S
C226 O215 1.253 . S
C226 O216 1.283 . S
C227 O219 1.304 . S
C227 O221 1.272 . S
C228 O220 1.311 . S
C228 O222 1.231 . S
O229 Zn211 1.953 . S
O229 C223 1.298 1_655 S
O230 Zn231 1.953 . S
O230 C246 1.225 . S
Zn231 O230 1.953 . S
Zn231 O232 1.949 . S
Zn231 O238 1.919 . S
Zn231 O243 1.924 . S
O232 Zn231 1.949 . S
O232 Zn233 1.923 . S
O232 Zn234 1.950 . S
O232 Zn235 1.945 . S
Zn233 O232 1.923 . S
Zn233 O236 1.933 . S
Zn233 O239 1.941 . S
Zn233 O240 1.965 . S
Zn234 O232 1.950 . S
Zn234 O241 1.938 . S
Zn234 O242 1.906 . S
Zn234 O252 1.953 . S
Zn235 O232 1.945 . S
Zn235 O237 1.932 . S
Zn235 O244 1.977 . S
Zn235 O245 1.910 . S
O236 Zn233 1.933 . S
O236 C247 1.226 . S
O237 Zn235 1.932 . S
O237 C247 1.307 . S
O238 Zn231 1.919 . S
O238 C249 1.253 . S
O239 Zn233 1.941 . S
O239 C249 1.283 . S
O240 Zn233 1.965 . S
O240 C248 1.303 . S
O241 Zn234 1.938 . S
O241 C248 1.247 . S
O242 Zn234 1.906 . S
O242 C250 1.304 . S
O243 Zn231 1.924 . S
O243 C251 1.311 . S
O244 Zn235 1.977 . S
O244 C250 1.272 . S
O245 Zn235 1.910 . S
O245 C251 1.231 . S
C246 O230 1.225 . S
C246 O252 1.298 . S
C247 O236 1.226 . S
C247 O237 1.307 . S
C248 O240 1.303 . S
C248 O241 1.247 . S
C249 O238 1.253 . S
C249 O239 1.283 . S
C250 O242 1.304 . S
C250 O244 1.272 . S
C251 O243 1.311 . S
C251 O245 1.231 . S
O252 Zn234 1.953 . S
O252 C246 1.298 . S
O253 Zn254 1.953 1_455 S
O253 C269 1.225 . S
Zn254 O253 1.953 1_655 S
Zn254 O255 1.949 . S
Zn254 O261 1.919 . S
Zn254 O266 1.924 . S
O255 Zn254 1.949 . S
O255 Zn256 1.923 . S
O255 Zn257 1.950 . S
O255 Zn258 1.945 . S
Zn256 O255 1.923 . S
Zn256 O259 1.933 . S
Zn256 O262 1.941 . S
Zn256 O263 1.965 . S
Zn257 O255 1.950 . S
Zn257 O264 1.938 . S
Zn257 O265 1.906 . S
Zn257 O275 1.953 . S
Zn258 O255 1.945 . S
Zn258 O260 1.932 . S
Zn258 O267 1.977 . S
Zn258 O268 1.910 . S
O259 Zn256 1.933 . S
O259 C270 1.226 . S
O260 Zn258 1.932 . S
O260 C270 1.307 . S
O261 Zn254 1.919 . S
O261 C272 1.253 . S
O262 Zn256 1.941 . S
O262 C272 1.283 . S
O263 Zn256 1.965 . S
O263 C271 1.303 . S
O264 Zn257 1.938 . S
O264 C271 1.247 . S
O265 Zn257 1.906 . S
O265 C273 1.304 . S
O266 Zn254 1.924 . S
O266 C274 1.311 . S
O267 Zn258 1.977 . S
O267 C273 1.272 . S
O268 Zn258 1.910 . S
O268 C274 1.231 . S
C269 O253 1.225 . S
C269 O275 1.298 1_455 S
C270 O259 1.226 . S
C270 O260 1.307 . S
C271 O263 1.303 . S
C271 O264 1.247 . S
C272 O261 1.253 . S
C272 O262 1.283 . S
C273 O265 1.304 . S
C273 O267 1.272 . S
C274 O266 1.311 . S
C274 O268 1.231 . S
O275 Zn257 1.953 . S
O275 C269 1.298 1_655 S
O276 Zn277 1.953 . S
O276 C292 1.225 . S
Zn277 O276 1.953 . S
Zn277 O278 1.949 . S
Zn277 O284 1.919 . S
Zn277 O289 1.924 . S
O278 Zn277 1.949 . S
O278 Zn279 1.923 . S
O278 Zn280 1.950 . S
O278 Zn281 1.945 . S
Zn279 O278 1.923 . S
Zn279 O282 1.933 . S
Zn279 O285 1.941 . S
Zn279 O286 1.965 . S
Zn280 O278 1.950 . S
Zn280 O287 1.938 . S
Zn280 O288 1.906 . S
Zn280 O298 1.953 . S
Zn281 O278 1.945 . S
Zn281 O283 1.932 . S
Zn281 O290 1.977 . S
Zn281 O291 1.910 . S
O282 Zn279 1.933 . S
O282 C293 1.226 . S
O283 Zn281 1.932 . S
O283 C293 1.307 . S
O284 Zn277 1.919 . S
O284 C295 1.253 . S
O285 Zn279 1.941 . S
O285 C295 1.283 . S
O286 Zn279 1.965 . S
O286 C294 1.303 . S
O287 Zn280 1.938 . S
O287 C294 1.247 . S
O288 Zn280 1.906 . S
O288 C296 1.304 . S
O289 Zn277 1.924 . S
O289 C297 1.311 . S
O290 Zn281 1.977 . S
O290 C296 1.272 . S
O291 Zn281 1.910 . S
O291 C297 1.231 . S
C292 O276 1.225 . S
C292 O298 1.298 . S
C293 O282 1.226 . S
C293 O283 1.307 . S
C294 O286 1.303 . S
C294 O287 1.247 . S
C295 O284 1.253 . S
C295 O285 1.283 . S
C296 O288 1.304 . S
C296 O290 1.272 . S
C297 O289 1.311 . S
C297 O291 1.231 . S
O298 Zn280 1.953 . S
O298 C292 1.298 . S
O299 Zn300 1.953 1_655 S
O299 C315 1.225 . S
Zn300 O299 1.953 1_455 S
Zn300 O301 1.949 . S
Zn300 O307 1.919 . S
Zn300 O312 1.924 . S
O301 Zn300 1.949 . S
O301 Zn302 1.923 . S
O301 Zn303 1.950 . S
O301 Zn304 1.945 . S
Zn302 O301 1.923 . S
Zn302 O305 1.933 . S
Zn302 O308 1.941 . S
Zn302 O309 1.965 . S
Zn303 O301 1.950 . S
Zn303 O310 1.938 . S
Zn303 O311 1.906 . S
Zn303 O321 1.953 . S
Zn304 O301 1.945 . S
Zn304 O306 1.932 . S
Zn304 O313 1.977 . S
Zn304 O314 1.910 . S
O305 Zn302 1.933 . S
O305 C316 1.226 . S
O306 Zn304 1.932 . S
O306 C316 1.307 . S
O307 Zn300 1.919 . S
O307 C318 1.253 . S
O308 Zn302 1.941 . S
O308 C318 1.283 . S
O309 Zn302 1.965 . S
O309 C317 1.303 . S
O310 Zn303 1.938 . S
O310 C317 1.247 . S
O311 Zn303 1.906 . S
O311 C319 1.304 . S
O312 Zn300 1.924 . S
O312 C320 1.311 . S
O313 Zn304 1.977 . S
O313 C319 1.272 . S
O314 Zn304 1.910 . S
O314 C320 1.231 . S
C315 O299 1.225 . S
C315 O321 1.298 1_655 S
C316 O305 1.226 . S
C316 O306 1.307 . S
C317 O309 1.303 . S
C317 O310 1.247 . S
C318 O307 1.253 . S
C318 O308 1.283 . S
C319 O311 1.304 . S
C319 O313 1.272 . S
C320 O312 1.311 . S
C320 O314 1.231 . S
O321 Zn303 1.953 . S
O321 C315 1.298 1_455 S
O322 Zn323 1.953 . S
O322 C338 1.225 . S
Zn323 O322 1.953 . S
Zn323 O324 1.949 . S
Zn323 O330 1.919 . S
Zn323 O335 1.924 . S
O324 Zn323 1.949 . S
O324 Zn325 1.923 . S
O324 Zn326 1.950 . S
O324 Zn327 1.945 . S
Zn325 O324 1.923 . S
Zn325 O328 1.933 . S
Zn325 O331 1.941 . S
Zn325 O332 1.965 . S
Zn326 O324 1.950 . S
Zn326 O333 1.938 . S
Zn326 O334 1.906 . S
Zn326 O344 1.953 . S
Zn327 O324 1.945 . S
Zn327 O329 1.932 . S
Zn327 O336 1.977 . S
Zn327 O337 1.910 . S
O328 Zn325 1.933 . S
O328 C339 1.226 . S
O329 Zn327 1.932 . S
O329 C339 1.307 . S
O330 Zn323 1.919 . S
O330 C341 1.253 . S
O331 Zn325 1.941 . S
O331 C341 1.283 . S
O332 Zn325 1.965 . S
O332 C340 1.303 . S
O333 Zn326 1.938 . S
O333 C340 1.247 . S
O334 Zn326 1.906 . S
O334 C342 1.304 . S
O335 Zn323 1.924 . S
O335 C343 1.311 . S
O336 Zn327 1.977 . S
O336 C342 1.272 . S
O337 Zn327 1.910 . S
O337 C343 1.231 . S
C338 O322 1.225 . S
C338 O344 1.298 . S
C339 O328 1.226 . S
C339 O329 1.307 . S
C340 O332 1.303 . S
C340 O333 1.247 . S
C341 O330 1.253 . S
C341 O331 1.283 . S
C342 O334 1.304 . S
C342 O336 1.272 . S
C343 O335 1.311 . S
C343 O337 1.231 . S
O344 Zn326 1.953 . S
O344 C338 1.298 . S
O345 Zn346 1.953 1_655 S
O345 C361 1.225 . S
Zn346 O345 1.953 1_455 S
Zn346 O347 1.949 . S
Zn346 O353 1.919 . S
Zn346 O358 1.924 . S
O347 Zn346 1.949 . S
O347 Zn348 1.923 . S
O347 Zn349 1.950 . S
O347 Zn350 1.945 . S
Zn348 O347 1.923 . S
Zn348 O351 1.933 . S
Zn348 O354 1.941 . S
Zn348 O355 1.965 . S
Zn349 O347 1.950 . S
Zn349 O356 1.938 . S
Zn349 O357 1.906 . S
Zn349 O367 1.953 . S
Zn350 O347 1.945 . S
Zn350 O352 1.932 . S
Zn350 O359 1.977 . S
Zn350 O360 1.910 . S
O351 Zn348 1.933 . S
O351 C362 1.226 . S
O352 Zn350 1.932 . S
O352 C362 1.307 . S
O353 Zn346 1.919 . S
O353 C364 1.253 . S
O354 Zn348 1.941 . S
O354 C364 1.283 . S
O355 Zn348 1.965 . S
O355 C363 1.303 . S
O356 Zn349 1.938 . S
O356 C363 1.247 . S
O357 Zn349 1.906 . S
O357 C365 1.304 . S
O358 Zn346 1.924 . S
O358 C366 1.311 . S
O359 Zn350 1.977 . S
O359 C365 1.272 . S
O360 Zn350 1.910 . S
O360 C366 1.231 . S
C361 O345 1.225 . S
C361 O367 1.298 1_655 S
C362 O351 1.226 . S
C362 O352 1.307 . S
C363 O355 1.303 . S
C363 O356 1.247 . S
C364 O353 1.253 . S
C364 O354 1.283 . S
C365 O357 1.304 . S
C365 O359 1.272 . S
C366 O358 1.311 . S
C366 O360 1.231 . S
O367 Zn349 1.953 . S
O367 C361 1.298 1_455 S
O368 Zn369 1.953 . S
O368 C384 1.225 . S
Zn369 O368 1.953 . S
Zn369 O370 1.949 1_565 S
Zn369 O376 1.919 . S
Zn369 O381 1.924 . S
O370 Zn369 1.949 1_545 S
O370 Zn371 1.923 1_545 S
O370 Zn372 1.950 . S
O370 Zn373 1.945 . S
Zn371 O370 1.923 1_565 S
Zn371 O374 1.933 . S
Zn371 O377 1.941 . S
Zn371 O378 1.965 . S
Zn372 O370 1.950 . S
Zn372 O379 1.938 . S
Zn372 O380 1.906 . S
Zn372 O390 1.953 . S
Zn373 O370 1.945 . S
Zn373 O375 1.932 . S
Zn373 O382 1.977 . S
Zn373 O383 1.910 . S
O374 Zn371 1.933 . S
O374 C385 1.226 1_565 S
O375 Zn373 1.932 . S
O375 C385 1.307 . S
O376 Zn369 1.919 . S
O376 C387 1.253 . S
O377 Zn371 1.941 . S
O377 C387 1.283 . S
O378 Zn371 1.965 . S
O378 C386 1.303 1_565 S
O379 Zn372 1.938 . S
O379 C386 1.247 . S
O380 Zn372 1.906 . S
O380 C388 1.304 . S
O381 Zn369 1.924 . S
O381 C389 1.311 . S
O382 Zn373 1.977 . S
O382 C388 1.272 . S
O383 Zn373 1.910 . S
O383 C389 1.231 1_545 S
C384 O368 1.225 . S
C384 O390 1.298 1_565 S
C385 O374 1.226 1_545 S
C385 O375 1.307 . S
C386 O378 1.303 1_545 S
C386 O379 1.247 . S
C387 O376 1.253 . S
C387 O377 1.283 . S
C388 O380 1.304 . S
C388 O382 1.272 . S
C389 O381 1.311 . S
C389 O383 1.231 1_565 S
O390 Zn372 1.953 . S
O390 C384 1.298 1_545 S
O391 Zn392 1.953 . S
O391 C407 1.225 . S
Zn392 O391 1.953 . S
Zn392 O393 1.949 . S
Zn392 O399 1.919 . S
Zn392 O404 1.924 . S
O393 Zn392 1.949 . S
O393 Zn394 1.923 . S
O393 Zn395 1.950 . S
O393 Zn396 1.945 . S
Zn394 O393 1.923 . S
Zn394 O397 1.933 . S
Zn394 O400 1.941 . S
Zn394 O401 1.965 . S
Zn395 O393 1.950 . S
Zn395 O402 1.938 . S
Zn395 O403 1.906 . S
Zn395 O413 1.953 . S
Zn396 O393 1.945 . S
Zn396 O398 1.932 . S
Zn396 O405 1.977 . S
Zn396 O406 1.910 . S
O397 Zn394 1.933 . S
O397 C408 1.226 . S
O398 Zn396 1.932 . S
O398 C408 1.307 . S
O399 Zn392 1.919 . S
O399 C410 1.253 . S
O400 Zn394 1.941 . S
O400 C410 1.283 . S
O401 Zn394 1.965 . S
O401 C409 1.303 . S
O402 Zn395 1.938 . S
O402 C409 1.247 . S
O403 Zn395 1.906 . S
O403 C411 1.304 . S
O404 Zn392 1.924 . S
O404 C412 1.311 . S
O405 Zn396 1.977 . S
O405 C411 1.272 . S
O406 Zn396 1.910 . S
O406 C412 1.231 . S
C407 O391 1.225 . S
C407 O413 1.298 . S
C408 O397 1.226 . S
C408 O398 1.307 . S
C409 O401 1.303 . S
C409 O402 1.247 . S
C410 O399 1.253 . S
C410 O400 1.283 . S
C411 O403 1.304 . S
C411 O405 1.272 . S
C412 O404 1.311 . S
C412 O406 1.231 . S
O413 Zn395 1.953 . S
O413 C407 1.298 . S
O414 Zn415 1.953 . S
O414 C430 1.225 . S
Zn415 O414 1.953 . S
Zn415 O416 1.949 . S
Zn415 O422 1.919 . S
Zn415 O427 1.924 . S
O416 Zn415 1.949 . S
O416 Zn417 1.923 . S
O416 Zn418 1.950 . S
O416 Zn419 1.945 . S
Zn417 O416 1.923 . S
Zn417 O420 1.933 . S
Zn417 O423 1.941 . S
Zn417 O424 1.965 . S
Zn418 O416 1.950 . S
Zn418 O425 1.938 . S
Zn418 O426 1.906 . S
Zn418 O436 1.953 . S
Zn419 O416 1.945 . S
Zn419 O421 1.932 . S
Zn419 O428 1.977 . S
Zn419 O429 1.910 . S
O420 Zn417 1.933 . S
O420 C431 1.226 . S
O421 Zn419 1.932 . S
O421 C431 1.307 . S
O422 Zn415 1.919 . S
O422 C433 1.253 . S
O423 Zn417 1.941 . S
O423 C433 1.283 . S
O424 Zn417 1.965 . S
O424 C432 1.303 . S
O425 Zn418 1.938 . S
O425 C432 1.247 . S
O426 Zn418 1.906 . S
O426 C434 1.304 . S
O427 Zn415 1.924 . S
O427 C435 1.311 . S
O428 Zn419 1.977 . S
O428 C434 1.272 . S
O429 Zn419 1.910 . S
O429 C435 1.231 . S
C430 O414 1.225 . S
C430 O436 1.298 . S
C431 O420 1.226 . S
C431 O421 1.307 . S
C432 O424 1.303 . S
C432 O425 1.247 . S
C433 O422 1.253 . S
C433 O423 1.283 . S
C434 O426 1.304 . S
C434 O428 1.272 . S
C435 O427 1.311 . S
C435 O429 1.231 . S
O436 Zn418 1.953 . S
O436 C430 1.298 . S
O437 Zn438 1.953 . S
O437 C453 1.225 . S
Zn438 O437 1.953 . S
Zn438 O439 1.949 1_565 S
Zn438 O445 1.919 . S
Zn438 O450 1.924 . S
O439 Zn438 1.949 1_545 S
O439 Zn440 1.923 1_545 S
O439 Zn441 1.950 . S
O439 Zn442 1.945 . S
Zn440 O439 1.923 1_565 S
Zn440 O443 1.933 . S
Zn440 O446 1.941 . S
Zn440 O447 1.965 . S
Zn441 O439 1.950 . S
Zn441 O448 1.938 . S
Zn441 O449 1.906 . S
Zn441 O459 1.953 . S
Zn442 O439 1.945 . S
Zn442 O444 1.932 . S
Zn442 O451 1.977 . S
Zn442 O452 1.910 . S
O443 Zn440 1.933 . S
O443 C454 1.226 1_565 S
O444 Zn442 1.932 . S
O444 C454 1.307 . S
O445 Zn438 1.919 . S
O445 C456 1.253 . S
O446 Zn440 1.941 . S
O446 C456 1.283 . S
O447 Zn440 1.965 . S
O447 C455 1.303 1_565 S
O448 Zn441 1.938 . S
O448 C455 1.247 . S
O449 Zn441 1.906 . S
O449 C457 1.304 . S
O450 Zn438 1.924 . S
O450 C458 1.311 . S
O451 Zn442 1.977 . S
O451 C457 1.272 . S
O452 Zn442 1.910 . S
O452 C458 1.231 1_545 S
C453 O437 1.225 . S
C453 O459 1.298 1_565 S
C454 O443 1.226 1_545 S
C454 O444 1.307 . S
C455 O447 1.303 1_545 S
C455 O448 1.247 . S
C456 O445 1.253 . S
C456 O446 1.283 . S
C457 O449 1.304 . S
C457 O451 1.272 . S
C458 O450 1.311 . S
C458 O452 1.231 1_565 S
O459 Zn441 1.953 . S
O459 C453 1.298 1_545 S
O460 Zn461 1.953 . S
O460 C476 1.225 . S
Zn461 O460 1.953 . S
Zn461 O462 1.949 1_545 S
Zn461 O468 1.919 . S
Zn461 O473 1.924 . S
O462 Zn461 1.949 1_565 S
O462 Zn463 1.923 1_565 S
O462 Zn464 1.950 . S
O462 Zn465 1.945 . S
Zn463 O462 1.923 1_545 S
Zn463 O466 1.933 . S
Zn463 O469 1.941 . S
Zn463 O470 1.965 . S
Zn464 O462 1.950 . S
Zn464 O471 1.938 . S
Zn464 O472 1.906 . S
Zn464 O482 1.953 . S
Zn465 O462 1.945 . S
Zn465 O467 1.932 . S
Zn465 O474 1.977 . S
Zn465 O475 1.910 . S
O466 Zn463 1.933 . S
O466 C477 1.226 1_545 S
O467 Zn465 1.932 . S
O467 C477 1.307 . S
O468 Zn461 1.919 . S
O468 C479 1.253 . S
O469 Zn463 1.941 . S
O469 C479 1.283 . S
O470 Zn463 1.965 . S
O470 C478 1.303 1_545 S
O471 Zn464 1.938 . S
O471 C478 1.247 . S
O472 Zn464 1.906 . S
O472 C480 1.304 . S
O473 Zn461 1.924 . S
O473 C481 1.311 . S
O474 Zn465 1.977 . S
O474 C480 1.272 . S
O475 Zn465 1.910 . S
O475 C481 1.231 1_565 S
C476 O460 1.225 . S
C476 O482 1.298 1_545 S
C477 O466 1.226 1_565 S
C477 O467 1.307 . S
C478 O470 1.303 1_565 S
C478 O471 1.247 . S
C479 O468 1.253 . S
C479 O469 1.283 . S
C480 O472 1.304 . S
C480 O474 1.272 . S
C481 O473 1.311 . S
C481 O475 1.231 1_545 S
O482 Zn464 1.953 . S
O482 C476 1.298 1_565 S
O483 Zn484 1.953 . S
O483 C499 1.225 . S
Zn484 O483 1.953 . S
Zn484 O485 1.949 . S
Zn484 O491 1.919 . S
Zn484 O496 1.924 . S
O485 Zn484 1.949 . S
O485 Zn486 1.923 . S
O485 Zn487 1.950 . S
O485 Zn488 1.945 . S
Zn486 O485 1.923 . S
Zn486 O489 1.933 . S
Zn486 O492 1.941 . S
Zn486 O493 1.965 . S
Zn487 O485 1.950 . S
Zn487 O494 1.938 . S
Zn487 O495 1.906 . S
Zn487 O505 1.953 . S
Zn488 O485 1.945 . S
Zn488 O490 1.932 . S
Zn488 O497 1.977 . S
Zn488 O498 1.910 . S
O489 Zn486 1.933 . S
O489 C500 1.226 . S
O490 Zn488 1.932 . S
O490 C500 1.307 . S
O491 Zn484 1.919 . S
O491 C502 1.253 . S
O492 Zn486 1.941 . S
O492 C502 1.283 . S
O493 Zn486 1.965 . S
O493 C501 1.303 . S
O494 Zn487 1.938 . S
O494 C501 1.247 . S
O495 Zn487 1.906 . S
O495 C503 1.304 . S
O496 Zn484 1.924 . S
O496 C504 1.311 . S
O497 Zn488 1.977 . S
O497 C503 1.272 . S
O498 Zn488 1.910 . S
O498 C504 1.231 . S
C499 O483 1.225 . S
C499 O505 1.298 . S
C500 O489 1.226 . S
C500 O490 1.307 . S
C501 O493 1.303 . S
C501 O494 1.247 . S
C502 O491 1.253 . S
C502 O492 1.283 . S
C503 O495 1.304 . S
C503 O497 1.272 . S
C504 O496 1.311 . S
C504 O498 1.231 . S
O505 Zn487 1.953 . S
O505 C499 1.298 . S
O506 Zn507 1.953 . S
O506 C522 1.225 . S
Zn507 O506 1.953 . S
Zn507 O508 1.949 . S
Zn507 O514 1.919 . S
Zn507 O519 1.924 . S
O508 Zn507 1.949 . S
O508 Zn509 1.923 . S
O508 Zn510 1.950 . S
O508 Zn511 1.945 . S
Zn509 O508 1.923 . S
Zn509 O512 1.933 . S
Zn509 O515 1.941 . S
Zn509 O516 1.965 . S
Zn510 O508 1.950 . S
Zn510 O517 1.938 . S
Zn510 O518 1.906 . S
Zn510 O528 1.953 . S
Zn511 O508 1.945 . S
Zn511 O513 1.932 . S
Zn511 O520 1.977 . S
Zn511 O521 1.910 . S
O512 Zn509 1.933 . S
O512 C523 1.226 . S
O513 Zn511 1.932 . S
O513 C523 1.307 . S
O514 Zn507 1.919 . S
O514 C525 1.253 . S
O515 Zn509 1.941 . S
O515 C525 1.283 . S
O516 Zn509 1.965 . S
O516 C524 1.303 . S
O517 Zn510 1.938 . S
O517 C524 1.247 . S
O518 Zn510 1.906 . S
O518 C526 1.304 . S
O519 Zn507 1.924 . S
O519 C527 1.311 . S
O520 Zn511 1.977 . S
O520 C526 1.272 . S
O521 Zn511 1.910 . S
O521 C527 1.231 . S
C522 O506 1.225 . S
C522 O528 1.298 . S
C523 O512 1.226 . S
C523 O513 1.307 . S
C524 O516 1.303 . S
C524 O517 1.247 . S
C525 O514 1.253 . S
C525 O515 1.283 . S
C526 O518 1.304 . S
C526 O520 1.272 . S
C527 O519 1.311 . S
C527 O521 1.231 . S
O528 Zn510 1.953 . S
O528 C522 1.298 . S
O529 Zn530 1.953 . S
O529 C545 1.225 . S
Zn530 O529 1.953 . S
Zn530 O531 1.949 1_545 S
Zn530 O537 1.919 . S
Zn530 O542 1.924 . S
O531 Zn530 1.949 1_565 S
O531 Zn532 1.923 1_565 S
O531 Zn533 1.950 . S
O531 Zn534 1.945 . S
Zn532 O531 1.923 1_545 S
Zn532 O535 1.933 . S
Zn532 O538 1.941 . S
Zn532 O539 1.965 . S
Zn533 O531 1.950 . S
Zn533 O540 1.938 . S
Zn533 O541 1.906 . S
Zn533 O551 1.953 . S
Zn534 O531 1.945 . S
Zn534 O536 1.932 . S
Zn534 O543 1.977 . S
Zn534 O544 1.910 . S
O535 Zn532 1.933 . S
O535 C546 1.226 1_545 S
O536 Zn534 1.932 . S
O536 C546 1.307 . S
O537 Zn530 1.919 . S
O537 C548 1.253 . S
O538 Zn532 1.941 . S
O538 C548 1.283 . S
O539 Zn532 1.965 . S
O539 C547 1.303 1_545 S
O540 Zn533 1.938 . S
O540 C547 1.247 . S
O541 Zn533 1.906 . S
O541 C549 1.304 . S
O542 Zn530 1.924 . S
O542 C550 1.311 . S
O543 Zn534 1.977 . S
O543 C549 1.272 . S
O544 Zn534 1.910 . S
O544 C550 1.231 1_565 S
C545 O529 1.225 . S
C545 O551 1.298 1_545 S
C546 O535 1.226 1_565 S
C546 O536 1.307 . S
C547 O539 1.303 1_565 S
C547 O540 1.247 . S
C548 O537 1.253 . S
C548 O538 1.283 . S
C549 O541 1.304 . S
C549 O543 1.272 . S
C550 O542 1.311 . S
C550 O544 1.231 1_545 S
O551 Zn533 1.953 . S
O551 C545 1.298 1_565 S
O552 Zn553 1.953 . S
O552 C568 1.225 1_554 S
Zn553 O552 1.953 . S
Zn553 O554 1.949 . S
Zn553 O560 1.919 . S
Zn553 O565 1.924 . S
O554 Zn553 1.949 . S
O554 Zn555 1.923 . S
O554 Zn556 1.950 . S
O554 Zn557 1.945 . S
Zn555 O554 1.923 . S
Zn555 O558 1.933 . S
Zn555 O561 1.941 . S
Zn555 O562 1.965 1_554 S
Zn556 O554 1.950 . S
Zn556 O563 1.938 1_554 S
Zn556 O564 1.906 . S
Zn556 O574 1.953 1_554 S
Zn557 O554 1.945 . S
Zn557 O559 1.932 . S
Zn557 O566 1.977 . S
Zn557 O567 1.910 . S
O558 Zn555 1.933 . S
O558 C569 1.226 . S
O559 Zn557 1.932 . S
O559 C569 1.307 . S
O560 Zn553 1.919 . S
O560 C571 1.253 . S
O561 Zn555 1.941 . S
O561 C571 1.283 . S
O562 Zn555 1.965 1_556 S
O562 C570 1.303 . S
O563 Zn556 1.938 1_556 S
O563 C570 1.247 . S
O564 Zn556 1.906 . S
O564 C572 1.304 . S
O565 Zn553 1.924 . S
O565 C573 1.311 . S
O566 Zn557 1.977 . S
O566 C572 1.272 . S
O567 Zn557 1.910 . S
O567 C573 1.231 . S
C568 O552 1.225 1_556 S
C568 O574 1.298 . S
C569 O558 1.226 . S
C569 O559 1.307 . S
C570 O562 1.303 . S
C570 O563 1.247 . S
C571 O560 1.253 . S
C571 O561 1.283 . S
C572 O564 1.304 . S
C572 O566 1.272 . S
C573 O565 1.311 . S
C573 O567 1.231 . S
O574 Zn556 1.953 1_556 S
O574 C568 1.298 . S
O575 Zn576 1.953 . S
O575 C591 1.225 1_554 S
Zn576 O575 1.953 . S
Zn576 O577 1.949 . S
Zn576 O583 1.919 . S
Zn576 O588 1.924 . S
O577 Zn576 1.949 . S
O577 Zn578 1.923 . S
O577 Zn579 1.950 . S
O577 Zn580 1.945 . S
Zn578 O577 1.923 . S
Zn578 O581 1.933 . S
Zn578 O584 1.941 . S
Zn578 O585 1.965 1_554 S
Zn579 O577 1.950 . S
Zn579 O586 1.938 1_554 S
Zn579 O587 1.906 . S
Zn579 O597 1.953 1_554 S
Zn580 O577 1.945 . S
Zn580 O582 1.932 . S
Zn580 O589 1.977 . S
Zn580 O590 1.910 . S
O581 Zn578 1.933 . S
O581 C592 1.226 . S
O582 Zn580 1.932 . S
O582 C592 1.307 . S
O583 Zn576 1.919 . S
O583 C594 1.253 . S
O584 Zn578 1.941 . S
O584 C594 1.283 . S
O585 Zn578 1.965 1_556 S
O585 C593 1.303 . S
O586 Zn579 1.938 1_556 S
O586 C593 1.247 . S
O587 Zn579 1.906 . S
O587 C595 1.304 . S
O588 Zn576 1.924 . S
O588 C596 1.311 . S
O589 Zn580 1.977 . S
O589 C595 1.272 . S
O590 Zn580 1.910 . S
O590 C596 1.231 . S
C591 O575 1.225 1_556 S
C591 O597 1.298 . S
C592 O581 1.226 . S
C592 O582 1.307 . S
C593 O585 1.303 . S
C593 O586 1.247 . S
C594 O583 1.253 . S
C594 O584 1.283 . S
C595 O587 1.304 . S
C595 O589 1.272 . S
C596 O588 1.311 . S
C596 O590 1.231 . S
O597 Zn579 1.953 1_556 S
O597 C591 1.298 . S
O598 Zn599 1.953 . S
O598 C614 1.225 . S
Zn599 O598 1.953 . S
Zn599 O600 1.949 . S
Zn599 O606 1.919 . S
Zn599 O611 1.924 . S
O600 Zn599 1.949 . S
O600 Zn601 1.923 . S
O600 Zn602 1.950 . S
O600 Zn603 1.945 . S
Zn601 O600 1.923 . S
Zn601 O604 1.933 . S
Zn601 O607 1.941 . S
Zn601 O608 1.965 . S
Zn602 O600 1.950 . S
Zn602 O609 1.938 . S
Zn602 O610 1.906 . S
Zn602 O620 1.953 . S
Zn603 O600 1.945 . S
Zn603 O605 1.932 . S
Zn603 O612 1.977 . S
Zn603 O613 1.910 . S
O604 Zn601 1.933 . S
O604 C615 1.226 . S
O605 Zn603 1.932 . S
O605 C615 1.307 . S
O606 Zn599 1.919 . S
O606 C617 1.253 . S
O607 Zn601 1.941 . S
O607 C617 1.283 . S
O608 Zn601 1.965 . S
O608 C616 1.303 . S
O609 Zn602 1.938 . S
O609 C616 1.247 . S
O610 Zn602 1.906 . S
O610 C618 1.304 . S
O611 Zn599 1.924 . S
O611 C619 1.311 . S
O612 Zn603 1.977 . S
O612 C618 1.272 . S
O613 Zn603 1.910 . S
O613 C619 1.231 . S
C614 O598 1.225 . S
C614 O620 1.298 . S
C615 O604 1.226 . S
C615 O605 1.307 . S
C616 O608 1.303 . S
C616 O609 1.247 . S
C617 O606 1.253 . S
C617 O607 1.283 . S
C618 O610 1.304 . S
C618 O612 1.272 . S
C619 O611 1.311 . S
C619 O613 1.231 . S
O620 Zn602 1.953 . S
O620 C614 1.298 . S
O621 Zn622 1.953 . S
O621 C637 1.225 . S
Zn622 O621 1.953 . S
Zn622 O623 1.949 . S
Zn622 O629 1.919 . S
Zn622 O634 1.924 . S
O623 Zn622 1.949 . S
O623 Zn624 1.923 . S
O623 Zn625 1.950 . S
O623 Zn626 1.945 . S
Zn624 O623 1.923 . S
Zn624 O627 1.933 . S
Zn624 O630 1.941 . S
Zn624 O631 1.965 . S
Zn625 O623 1.950 . S
Zn625 O632 1.938 . S
Zn625 O633 1.906 . S
Zn625 O643 1.953 . S
Zn626 O623 1.945 . S
Zn626 O628 1.932 . S
Zn626 O635 1.977 . S
Zn626 O636 1.910 . S
O627 Zn624 1.933 . S
O627 C638 1.226 . S
O628 Zn626 1.932 . S
O628 C638 1.307 . S
O629 Zn622 1.919 . S
O629 C640 1.253 . S
O630 Zn624 1.941 . S
O630 C640 1.283 . S
O631 Zn624 1.965 . S
O631 C639 1.303 . S
O632 Zn625 1.938 . S
O632 C639 1.247 . S
O633 Zn625 1.906 . S
O633 C641 1.304 . S
O634 Zn622 1.924 . S
O634 C642 1.311 . S
O635 Zn626 1.977 . S
O635 C641 1.272 . S
O636 Zn626 1.910 . S
O636 C642 1.231 . S
C637 O621 1.225 . S
C637 O643 1.298 . S
C638 O627 1.226 . S
C638 O628 1.307 . S
C639 O631 1.303 . S
C639 O632 1.247 . S
C640 O629 1.253 . S
C640 O630 1.283 . S
C641 O633 1.304 . S
C641 O635 1.272 . S
C642 O634 1.311 . S
C642 O636 1.231 . S
O643 Zn625 1.953 . S
O643 C637 1.298 . S
O644 Zn645 1.953 . S
O644 C660 1.225 1_556 S
Zn645 O644 1.953 . S
Zn645 O646 1.949 . S
Zn645 O652 1.919 . S
Zn645 O657 1.924 . S
O646 Zn645 1.949 . S
O646 Zn647 1.923 . S
O646 Zn648 1.950 . S
O646 Zn649 1.945 . S
Zn647 O646 1.923 . S
Zn647 O650 1.933 . S
Zn647 O653 1.941 . S
Zn647 O654 1.965 1_556 S
Zn648 O646 1.950 . S
Zn648 O655 1.938 1_556 S
Zn648 O656 1.906 . S
Zn648 O666 1.953 1_556 S
Zn649 O646 1.945 . S
Zn649 O651 1.932 . S
Zn649 O658 1.977 . S
Zn649 O659 1.910 . S
O650 Zn647 1.933 . S
O650 C661 1.226 . S
O651 Zn649 1.932 . S
O651 C661 1.307 . S
O652 Zn645 1.919 . S
O652 C663 1.253 . S
O653 Zn647 1.941 . S
O653 C663 1.283 . S
O654 Zn647 1.965 1_554 S
O654 C662 1.303 . S
O655 Zn648 1.938 1_554 S
O655 C662 1.247 . S
O656 Zn648 1.906 . S
O656 C664 1.304 . S
O657 Zn645 1.924 . S
O657 C665 1.311 . S
O658 Zn649 1.977 . S
O658 C664 1.272 . S
O659 Zn649 1.910 . S
O659 C665 1.231 . S
C660 O644 1.225 1_554 S
C660 O666 1.298 . S
C661 O650 1.226 . S
C661 O651 1.307 . S
C662 O654 1.303 . S
C662 O655 1.247 . S
C663 O652 1.253 . S
C663 O653 1.283 . S
C664 O656 1.304 . S
C664 O658 1.272 . S
C665 O657 1.311 . S
C665 O659 1.231 . S
O666 Zn648 1.953 1_554 S
O666 C660 1.298 . S
O667 Zn668 1.953 . S
O667 C683 1.225 1_556 S
Zn668 O667 1.953 . S
Zn668 O669 1.949 . S
Zn668 O675 1.919 . S
Zn668 O680 1.924 . S
O669 Zn668 1.949 . S
O669 Zn670 1.923 . S
O669 Zn671 1.950 . S
O669 Zn672 1.945 . S
Zn670 O669 1.923 . S
Zn670 O673 1.933 . S
Zn670 O676 1.941 . S
Zn670 O677 1.965 1_556 S
Zn671 O669 1.950 . S
Zn671 O678 1.938 1_556 S
Zn671 O679 1.906 . S
Zn671 O689 1.953 1_556 S
Zn672 O669 1.945 . S
Zn672 O674 1.932 . S
Zn672 O681 1.977 . S
Zn672 O682 1.910 . S
O673 Zn670 1.933 . S
O673 C684 1.226 . S
O674 Zn672 1.932 . S
O674 C684 1.307 . S
O675 Zn668 1.919 . S
O675 C686 1.253 . S
O676 Zn670 1.941 . S
O676 C686 1.283 . S
O677 Zn670 1.965 1_554 S
O677 C685 1.303 . S
O678 Zn671 1.938 1_554 S
O678 C685 1.247 . S
O679 Zn671 1.906 . S
O679 C687 1.304 . S
O680 Zn668 1.924 . S
O680 C688 1.311 . S
O681 Zn672 1.977 . S
O681 C687 1.272 . S
O682 Zn672 1.910 . S
O682 C688 1.231 . S
C683 O667 1.225 1_554 S
C683 O689 1.298 . S
C684 O673 1.226 . S
C684 O674 1.307 . S
C685 O677 1.303 . S
C685 O678 1.247 . S
C686 O675 1.253 . S
C686 O676 1.283 . S
C687 O679 1.304 . S
C687 O681 1.272 . S
C688 O680 1.311 . S
C688 O682 1.231 . S
O689 Zn671 1.953 1_554 S
O689 C683 1.298 . S
O690 Zn691 1.953 . S
O690 C706 1.225 . S
Zn691 O690 1.953 . S
Zn691 O692 1.949 . S
Zn691 O698 1.919 . S
Zn691 O703 1.924 . S
O692 Zn691 1.949 . S
O692 Zn693 1.923 . S
O692 Zn694 1.950 . S
O692 Zn695 1.945 . S
Zn693 O692 1.923 . S
Zn693 O696 1.933 . S
Zn693 O699 1.941 . S
Zn693 O700 1.965 . S
Zn694 O692 1.950 . S
Zn694 O701 1.938 . S
Zn694 O702 1.906 . S
Zn694 O712 1.953 . S
Zn695 O692 1.945 . S
Zn695 O697 1.932 . S
Zn695 O704 1.977 . S
Zn695 O705 1.910 . S
O696 Zn693 1.933 . S
O696 C707 1.226 . S
O697 Zn695 1.932 . S
O697 C707 1.307 . S
O698 Zn691 1.919 . S
O698 C709 1.253 . S
O699 Zn693 1.941 . S
O699 C709 1.283 . S
O700 Zn693 1.965 . S
O700 C708 1.303 . S
O701 Zn694 1.938 . S
O701 C708 1.247 . S
O702 Zn694 1.906 . S
O702 C710 1.304 . S
O703 Zn691 1.924 . S
O703 C711 1.311 . S
O704 Zn695 1.977 . S
O704 C710 1.272 . S
O705 Zn695 1.910 . S
O705 C711 1.231 . S
C706 O690 1.225 . S
C706 O712 1.298 . S
C707 O696 1.226 . S
C707 O697 1.307 . S
C708 O700 1.303 . S
C708 O701 1.247 . S
C709 O698 1.253 . S
C709 O699 1.283 . S
C710 O702 1.304 . S
C710 O704 1.272 . S
C711 O703 1.311 . S
C711 O705 1.231 . S
O712 Zn694 1.953 . S
O712 C706 1.298 . S
O713 Zn714 1.953 . S
O713 C729 1.225 . S
Zn714 O713 1.953 . S
Zn714 O715 1.949 . S
Zn714 O721 1.919 . S
Zn714 O726 1.924 . S
O715 Zn714 1.949 . S
O715 Zn716 1.923 . S
O715 Zn717 1.950 . S
O715 Zn718 1.945 . S
Zn716 O715 1.923 . S
Zn716 O719 1.933 . S
Zn716 O722 1.941 . S
Zn716 O723 1.965 . S
Zn717 O715 1.950 . S
Zn717 O724 1.938 . S
Zn717 O725 1.906 . S
Zn717 O735 1.953 . S
Zn718 O715 1.945 . S
Zn718 O720 1.932 . S
Zn718 O727 1.977 . S
Zn718 O728 1.910 . S
O719 Zn716 1.933 . S
O719 C730 1.226 . S
O720 Zn718 1.932 . S
O720 C730 1.307 . S
O721 Zn714 1.919 . S
O721 C732 1.253 . S
O722 Zn716 1.941 . S
O722 C732 1.283 . S
O723 Zn716 1.965 . S
O723 C731 1.303 . S
O724 Zn717 1.938 . S
O724 C731 1.247 . S
O725 Zn717 1.906 . S
O725 C733 1.304 . S
O726 Zn714 1.924 . S
O726 C734 1.311 . S
O727 Zn718 1.977 . S
O727 C733 1.272 . S
O728 Zn718 1.910 . S
O728 C734 1.231 . S
C729 O713 1.225 . S
C729 O735 1.298 . S
C730 O719 1.226 . S
C730 O720 1.307 . S
C731 O723 1.303 . S
C731 O724 1.247 . S
C732 O721 1.253 . S
C732 O722 1.283 . S
C733 O725 1.304 . S
C733 O727 1.272 . S
C734 O726 1.311 . S
C734 O728 1.231 . S
O735 Zn717 1.953 . S
O735 C729 1.298 . S
C594 C19 1.677 . S
C571 C42 1.677 . S
C640 C65 1.677 . S
C617 C88 1.677 . S
C111 C686 1.677 . S
C134 C663 1.677 . S
C157 C732 1.677 . S
C709 C180 1.677 . S
C410 C203 1.677 . S
C387 C226 1.677 . S
C456 C249 1.677 . S
C433 C272 1.677 . S
C295 C502 1.677 . S
C479 C318 1.677 . S
C341 C548 1.677 . S
C525 C364 1.677 . S
C21 C481 1.421 1_565 S
C320 C44 1.421 1_455 S
C711 C67 1.421 1_556 S
C90 C182 1.421 1_664 S
C113 C389 1.421 1_545 S
C136 C228 1.421 1_455 S
C159 C619 1.421 1_556 S
C665 C205 1.421 . S
C527 C251 1.421 . S
C366 C274 1.421 1_455 S
C573 C297 1.421 . S
C343 C435 1.421 . S
C688 C412 1.421 . S
C458 C550 1.421 1_565 S
C596 C504 1.421 . S
C642 C734 1.421 1_554 S
C18 C455 1.480 . S
C41 C432 1.480 . S
C64 C409 1.480 . S
C87 C386 1.480 . S
C110 C547 1.480 . S
C133 C524 1.480 . S
C156 C501 1.480 . S
C179 C478 1.480 . S
C202 C639 1.480 . S
C225 C616 1.480 . S
C248 C593 1.480 . S
C271 C570 1.480 . S
C731 C294 1.480 . S
C708 C317 1.480 . S
C685 C340 1.480 . S
C662 C363 1.480 . S
C66 C20 1.210 . S
C89 C43 1.210 . S
C158 C112 1.210 . S
C135 C181 1.210 . S
C250 C204 1.210 . S
C227 C273 1.210 . S
C342 C296 1.210 . S
C319 C365 1.210 . S
C388 C434 1.210 . S
C411 C457 1.210 . S
C526 C480 1.210 . S
C503 C549 1.210 . S
C572 C618 1.210 . S
C641 C595 1.210 . S
C664 C710 1.210 . S
C687 C733 1.210 . S
C16 C178 1.642 . S
C707 C39 1.642 . S
C62 C316 1.642 . S
C85 C477 1.642 . S
C86 C108 1.642 . S
C131 C615 1.642 . S
C224 C154 1.642 . S
C385 C177 1.642 . S
C200 C362 1.642 . S
C523 C223 1.642 . S
C246 C132 1.642 . S
C661 C269 1.642 . S
C292 C270 1.642 . S
C315 C431 1.642 . S
C338 C40 1.642 . S
C569 C361 1.642 . S
C384 C546 1.642 . S
C407 C339 1.642 . S
C430 C684 1.642 . S
C453 C109 1.642 . S
C476 C454 1.642 . S
C247 C499 1.642 . S
C592 C522 1.642 . S
C545 C17 1.642 . S
C730 C568 1.642 . S
C155 C591 1.642 . S
C500 C614 1.642 . S
C637 C293 1.642 . S
C638 C660 1.642 . S
C63 C683 1.642 . S
C408 C706 1.642 . S
C729 C201 1.642 . S
