# Generated by pormake.
# Topology ukb, (4)-cn, num edge types: 1
# Building blocks:
#     Node 0, Type 0, BuildingBlock: CEKHIL_clean_sbu_0, # of connection points: 4
#     Node 1, Type 0, BuildingBlock: CEKHIL_clean_sbu_0, # of connection points: 4
#     Node 2, Type 0, BuildingBlock: CEKHIL_clean_sbu_0, # of connection points: 4
#     Node 3, Type 0, BuildingBlock: CEKHIL_clean_sbu_0, # of connection points: 4
#     Node 4, Type 0, BuildingBlock: CEKHIL_clean_sbu_0, # of connection points: 4
#     Node 5, Type 0, BuildingBlock: CEKHIL_clean_sbu_0, # of connection points: 4
#     Node 6, Type 0, BuildingBlock: CEKHIL_clean_sbu_0, # of connection points: 4
#     Node 7, Type 0, BuildingBlock: CEKHIL_clean_sbu_0, # of connection points: 4
#     Node 8, Type 0, BuildingBlock: CEKHIL_clean_sbu_0, # of connection points: 4
#     Node 9, Type 0, BuildingBlock: CEKHIL_clean_sbu_0, # of connection points: 4
#     Node 10, Type 0, BuildingBlock: CEKHIL_clean_sbu_0, # of connection points: 4
#     Node 11, Type 0, BuildingBlock: CEKHIL_clean_sbu_0, # of connection points: 4
#     Node 12, Type 0, BuildingBlock: CEKHIL_clean_sbu_0, # of connection points: 4
#     Node 13, Type 0, BuildingBlock: CEKHIL_clean_sbu_0, # of connection points: 4
#     Node 14, Type 0, BuildingBlock: CEKHIL_clean_sbu_0, # of connection points: 4
#     Node 15, Type 0, BuildingBlock: CEKHIL_clean_sbu_0, # of connection points: 4
#     Edge 16, Type (0, 0), BuildingBlock: TEMPAE_clean_linker_10, # of connection points: 2
#     Edge 17, Type (0, 0), BuildingBlock: TEMPAE_clean_linker_10, # of connection points: 2
#     Edge 18, Type (0, 0), BuildingBlock: TEMPAE_clean_linker_10, # of connection points: 2
#     Edge 19, Type (0, 0), BuildingBlock: TEMPAE_clean_linker_10, # of connection points: 2
#     Edge 20, Type (0, 0), BuildingBlock: TEMPAE_clean_linker_10, # of connection points: 2
#     Edge 21, Type (0, 0), BuildingBlock: TEMPAE_clean_linker_10, # of connection points: 2
#     Edge 22, Type (0, 0), BuildingBlock: TEMPAE_clean_linker_10, # of connection points: 2
#     Edge 23, Type (0, 0), BuildingBlock: TEMPAE_clean_linker_10, # of connection points: 2
#     Edge 24, Type (0, 0), BuildingBlock: TEMPAE_clean_linker_10, # of connection points: 2
#     Edge 25, Type (0, 0), BuildingBlock: TEMPAE_clean_linker_10, # of connection points: 2
#     Edge 26, Type (0, 0), BuildingBlock: TEMPAE_clean_linker_10, # of connection points: 2
#     Edge 27, Type (0, 0), BuildingBlock: TEMPAE_clean_linker_10, # of connection points: 2
#     Edge 28, Type (0, 0), BuildingBlock: TEMPAE_clean_linker_10, # of connection points: 2
#     Edge 29, Type (0, 0), BuildingBlock: TEMPAE_clean_linker_10, # of connection points: 2
#     Edge 30, Type (0, 0), BuildingBlock: TEMPAE_clean_linker_10, # of connection points: 2
#     Edge 31, Type (0, 0), BuildingBlock: TEMPAE_clean_linker_10, # of connection points: 2
#     Edge 32, Type (0, 0), BuildingBlock: TEMPAE_clean_linker_10, # of connection points: 2
#     Edge 33, Type (0, 0), BuildingBlock: TEMPAE_clean_linker_10, # of connection points: 2
#     Edge 34, Type (0, 0), BuildingBlock: TEMPAE_clean_linker_10, # of connection points: 2
#     Edge 35, Type (0, 0), BuildingBlock: TEMPAE_clean_linker_10, # of connection points: 2
#     Edge 36, Type (0, 0), BuildingBlock: TEMPAE_clean_linker_10, # of connection points: 2
#     Edge 37, Type (0, 0), BuildingBlock: TEMPAE_clean_linker_10, # of connection points: 2
#     Edge 38, Type (0, 0), BuildingBlock: TEMPAE_clean_linker_10, # of connection points: 2
#     Edge 39, Type (0, 0), BuildingBlock: TEMPAE_clean_linker_10, # of connection points: 2
#     Edge 40, Type (0, 0), BuildingBlock: TEMPAE_clean_linker_10, # of connection points: 2
#     Edge 41, Type (0, 0), BuildingBlock: TEMPAE_clean_linker_10, # of connection points: 2
#     Edge 42, Type (0, 0), BuildingBlock: TEMPAE_clean_linker_10, # of connection points: 2
#     Edge 43, Type (0, 0), BuildingBlock: TEMPAE_clean_linker_10, # of connection points: 2
#     Edge 44, Type (0, 0), BuildingBlock: TEMPAE_clean_linker_10, # of connection points: 2
#     Edge 45, Type (0, 0), BuildingBlock: TEMPAE_clean_linker_10, # of connection points: 2
#     Edge 46, Type (0, 0), BuildingBlock: TEMPAE_clean_linker_10, # of connection points: 2
#     Edge 47, Type (0, 0), BuildingBlock: TEMPAE_clean_linker_10, # of connection points: 2
# Relax obj value: 0.092
# Max RMSD: 0.049
# Mean RMSD: 0.049
data_MOF--net-ukb--node1-CEKHIL_clean_sbu_0--edge1-TEMPAE_clean_linker_10
_symmetry_space_group_name_H-M    P1
_symmetry_Int_Tables_number       1
_symmetry_cell_setting            triclinic
loop_
_symmetry_equiv_pos_as_xyz
'x, y, z'
_cell_length_a     44.074777
_cell_length_b     44.065791
_cell_length_c     37.871624
_cell_angle_alpha  90.002587
_cell_angle_beta   89.998544
_cell_angle_gamma 89.99863
loop_
_atom_site_label
_atom_site_type_symbol
_atom_site_fract_x
_atom_site_fract_y
_atom_site_fract_z
_atom_type_partial_charge
Co0 Co 0.53862 0.17101 0.16554 0.0
O1 O 0.5189 0.13223 0.16293 0.0
O2 O 0.51575 0.16404 0.20818 0.0
C3 C 0.52565 0.18685 0.11119 0.0
O4 O 0.55471 0.21315 0.17731 0.0
Co5 Co 0.59148 0.18774 0.11498 0.0
O6 O 0.58699 0.22899 0.13524 0.0
C7 C 0.60309 0.14765 0.17613 0.0
C8 C 0.50792 0.13834 0.19394 0.0
C9 C 0.57173 0.23363 0.16332 0.0
O10 O 0.5757 0.15151 0.18701 0.0
O11 O 0.61305 0.15854 0.14699 0.0
O12 O 0.50663 0.18946 0.13722 0.0
O13 O 0.55045 0.1724 0.11811 0.0
Co14 Co 0.32701 0.53768 0.66734 0.0
O15 O 0.36537 0.51713 0.66453 0.0
O16 O 0.33384 0.5148 0.71008 0.0
C17 C 0.3105 0.52473 0.61323 0.0
O18 O 0.28527 0.55474 0.67932 0.0
Co19 Co 0.31088 0.59044 0.61626 0.0
O20 O 0.26951 0.58603 0.63623 0.0
C21 C 0.35138 0.60191 0.67716 0.0
C22 C 0.35924 0.50634 0.69561 0.0
C23 C 0.26482 0.5715 0.66482 0.0
O24 O 0.34737 0.57458 0.6883 0.0
O25 O 0.34037 0.6118 0.64805 0.0
O26 O 0.30768 0.50589 0.63941 0.0
O27 O 0.32552 0.54922 0.61984 0.0
Co28 Co 0.96215 0.33273 0.1639 0.0
O29 O 0.98316 0.37081 0.16051 0.0
O30 O 0.98465 0.33995 0.20675 0.0
C31 C 0.9752 0.31505 0.11033 0.0
O32 O 0.94458 0.29143 0.17663 0.0
Co33 Co 0.9093 0.31684 0.11293 0.0
O34 O 0.91164 0.27605 0.135 0.0
C35 C 0.89853 0.35904 0.17224 0.0
C36 C 0.99346 0.36508 0.19193 0.0
C37 C 0.9267 0.27141 0.16323 0.0
O38 O 0.92543 0.35384 0.18412 0.0
O39 O 0.88881 0.3483 0.14296 0.0
O40 O 0.99388 0.31257 0.13671 0.0
O41 O 0.95088 0.33056 0.11634 0.0
Co42 Co 0.17603 0.96438 0.66813 0.0
O43 O 0.13802 0.98535 0.66387 0.0
O44 O 0.16868 0.98801 0.71019 0.0
C45 C 0.1936 0.97615 0.61412 0.0
O46 O 0.21734 0.94703 0.68152 0.0
Co47 Co 0.192 0.9104 0.61867 0.0
O48 O 0.23269 0.91324 0.64074 0.0
C49 C 0.14996 0.9009 0.67849 0.0
C50 C 0.14362 0.99647 0.69493 0.0
C51 C 0.23733 0.92884 0.66855 0.0
O52 O 0.15468 0.92818 0.6894 0.0
O53 O 0.1611 0.89037 0.64976 0.0
O54 O 0.19629 0.99541 0.63991 0.0
O55 O 0.17815 0.95198 0.62097 0.0
Co56 Co 0.53561 0.32349 0.83184 0.0
O57 O 0.51437 0.36124 0.83722 0.0
O58 O 0.51216 0.3318 0.78984 0.0
C59 C 0.52362 0.30461 0.88519 0.0
O60 O 0.55344 0.28261 0.81728 0.0
Co61 Co 0.58934 0.30671 0.88133 0.0
O62 O 0.58598 0.26625 0.85884 0.0
C63 C 0.5993 0.34921 0.82201 0.0
C64 C 0.50345 0.35642 0.80589 0.0
C65 C 0.57116 0.26223 0.83033 0.0
O66 O 0.57179 0.34549 0.81148 0.0
O67 O 0.61001 0.33711 0.85012 0.0
O68 O 0.50456 0.30237 0.85915 0.0
O69 O 0.54773 0.32037 0.87902 0.0
Co70 Co 0.17204 0.54118 0.33558 0.0
O71 O 0.13404 0.52011 0.33959 0.0
O72 O 0.16441 0.51855 0.29292 0.0
C73 C 0.19023 0.5283 0.38896 0.0
O74 O 0.21316 0.55882 0.32216 0.0
Co75 Co 0.18833 0.59427 0.38602 0.0
O76 O 0.22879 0.5922 0.3632 0.0
C77 C 0.14596 0.60489 0.32685 0.0
C78 C 0.13945 0.50974 0.30811 0.0
C79 C 0.23318 0.57698 0.33504 0.0
O80 O 0.15064 0.57778 0.31546 0.0
O81 O 0.15721 0.61499 0.35574 0.0
O82 O 0.1925 0.50958 0.36259 0.0
O83 O 0.17466 0.55261 0.38309 0.0
Co84 Co 0.96452 0.17538 0.83315 0.0
O85 O 0.98575 0.1375 0.83736 0.0
O86 O 0.98777 0.16796 0.79082 0.0
C87 C 0.97673 0.19337 0.88685 0.0
O88 O 0.94674 0.2165 0.81977 0.0
Co89 Co 0.91093 0.19118 0.88314 0.0
O90 O 0.9142 0.23211 0.8617 0.0
C91 C 0.90096 0.14926 0.82327 0.0
C92 C 0.99654 0.14302 0.80612 0.0
C93 C 0.92907 0.23668 0.83332 0.0
O94 O 0.92825 0.15384 0.81238 0.0
O95 O 0.89052 0.16048 0.85201 0.0
O96 O 0.99571 0.19593 0.86078 0.0
O97 O 0.9526 0.17768 0.88049 0.0
Co98 Co 0.32724 0.96165 0.33278 0.0
O99 O 0.36556 0.98197 0.33744 0.0
O100 O 0.33526 0.98515 0.29085 0.0
C101 C 0.30955 0.97366 0.38665 0.0
O102 O 0.2858 0.94502 0.31889 0.0
Co103 Co 0.30989 0.90785 0.38167 0.0
O104 O 0.26927 0.91185 0.35964 0.0
C105 C 0.35199 0.89769 0.32204 0.0
C106 C 0.36035 0.9932 0.30634 0.0
C107 C 0.26524 0.92741 0.33166 0.0
O108 O 0.34802 0.92517 0.31152 0.0
O109 O 0.34039 0.88715 0.35053 0.0
O110 O 0.30737 0.99297 0.36085 0.0
O111 O 0.32457 0.94918 0.37991 0.0
Co112 Co 0.46674 0.82788 0.83255 0.0
O113 O 0.48862 0.8654 0.8363 0.0
O114 O 0.48894 0.83524 0.78944 0.0
C115 C 0.48007 0.80946 0.88563 0.0
O116 O 0.44805 0.78707 0.8196 0.0
Co117 Co 0.41428 0.8127 0.88438 0.0
O118 O 0.41627 0.77182 0.8625 0.0
C119 C 0.40368 0.85582 0.8259 0.0
C120 C 0.49849 0.85995 0.80464 0.0
C121 C 0.43045 0.76711 0.83368 0.0
O122 O 0.43024 0.8501 0.81336 0.0
O123 O 0.39413 0.84495 0.85522 0.0
O124 O 0.49835 0.80668 0.8589 0.0
O125 O 0.45605 0.82555 0.8802 0.0
Co126 Co 0.67035 0.46202 0.33253 0.0
O127 O 0.63193 0.48226 0.33636 0.0
O128 O 0.66269 0.48497 0.29011 0.0
C129 C 0.68758 0.47476 0.38633 0.0
O130 O 0.71201 0.4454 0.31953 0.0
Co131 Co 0.68714 0.40881 0.3826 0.0
O132 O 0.72776 0.41183 0.36034 0.0
C133 C 0.64541 0.39799 0.32286 0.0
C134 C 0.63745 0.49315 0.30516 0.0
C135 C 0.73221 0.4275 0.33253 0.0
O136 O 0.64987 0.42521 0.31165 0.0
O137 O 0.65649 0.38794 0.35185 0.0
O138 O 0.68987 0.49376 0.36024 0.0
O139 O 0.67262 0.45018 0.37989 0.0
Co140 Co 0.03516 0.67478 0.82975 0.0
O141 O 0.01532 0.63609 0.83224 0.0
O142 O 0.01258 0.66777 0.78683 0.0
C143 C 0.02178 0.69067 0.8839 0.0
O144 O 0.05162 0.7169 0.81826 0.0
Co145 Co 0.0876 0.69112 0.88112 0.0
O146 O 0.08245 0.73263 0.86182 0.0
C147 C 0.09966 0.65124 0.8199 0.0
C148 C 0.00464 0.6421 0.80109 0.0
C149 C 0.06799 0.73744 0.83322 0.0
O150 O 0.07232 0.65503 0.8088 0.0
O151 O 0.10952 0.66225 0.84903 0.0
O152 O 0.00299 0.69343 0.85766 0.0
O153 O 0.04653 0.67608 0.87728 0.0
Co154 Co 0.83106 0.04043 0.33112 0.0
O155 O 0.86986 0.02071 0.33312 0.0
O156 O 0.83805 0.01855 0.28778 0.0
C157 C 0.81515 0.02623 0.38498 0.0
O158 O 0.78892 0.05674 0.31988 0.0
Co159 Co 0.8144 0.09218 0.38323 0.0
O160 O 0.77309 0.08803 0.36296 0.0
C161 C 0.85454 0.10512 0.32253 0.0
C162 C 0.86375 0.01043 0.30179 0.0
C163 C 0.76843 0.07339 0.33445 0.0
O164 O 0.85049 0.07801 0.31079 0.0
O165 O 0.84378 0.11441 0.35203 0.0
O166 O 0.81264 0.00777 0.35839 0.0
O167 O 0.82962 0.05117 0.37888 0.0
Co168 Co 0.46184 0.6729 0.16334 0.0
O169 O 0.48143 0.63408 0.16044 0.0
O170 O 0.48424 0.66539 0.20619 0.0
C171 C 0.47543 0.68926 0.10943 0.0
O172 O 0.44574 0.71495 0.17542 0.0
Co173 Co 0.40944 0.69001 0.11238 0.0
O174 O 0.41387 0.73112 0.13312 0.0
C175 C 0.3973 0.64924 0.17272 0.0
C176 C 0.4921 0.63981 0.19168 0.0
C177 C 0.42887 0.73555 0.16143 0.0
O178 O 0.42452 0.65334 0.18407 0.0
O179 O 0.38765 0.66019 0.14347 0.0
O180 O 0.4942 0.69148 0.13575 0.0
O181 O 0.45052 0.67481 0.11578 0.0
Co182 Co 0.82427 0.46355 0.66498 0.0
O183 O 0.86268 0.48364 0.66003 0.0
O184 O 0.83276 0.48688 0.70694 0.0
C185 C 0.80636 0.47595 0.61137 0.0
O186 O 0.78273 0.44718 0.67905 0.0
Co187 Co 0.80599 0.41024 0.61583 0.0
O188 O 0.76512 0.41622 0.63665 0.0
C189 C 0.84851 0.39931 0.67494 0.0
C190 C 0.85773 0.49491 0.69116 0.0
C191 C 0.76148 0.43098 0.66529 0.0
O192 O 0.84493 0.42679 0.68574 0.0
O193 O 0.83646 0.38905 0.64656 0.0
O194 O 0.80444 0.49517 0.6373 0.0
O195 O 0.82123 0.45133 0.61785 0.0
Co196 Co 0.03817 0.82854 0.16143 0.0
O197 O 0.01798 0.86691 0.15651 0.0
O198 O 0.01554 0.8373 0.20379 0.0
C199 C 0.02508 0.81001 0.10833 0.0
O200 O 0.05484 0.78721 0.17571 0.0
Co201 Co 0.09103 0.81035 0.11157 0.0
O202 O 0.08741 0.77009 0.13462 0.0
C203 C 0.10233 0.85346 0.16987 0.0
C204 C 0.00733 0.86221 0.188 0.0
C205 C 0.07224 0.76645 0.16296 0.0
O206 O 0.07513 0.84944 0.18131 0.0
O207 O 0.11225 0.84157 0.14125 0.0
O208 O 0.00623 0.80841 0.13463 0.0
O209 O 0.04973 0.82507 0.11409 0.0
Co210 Co 0.67762 0.0364 0.66265 0.0
O211 O 0.63953 0.01549 0.6588 0.0
O212 O 0.67009 0.01369 0.7053 0.0
C213 C 0.69546 0.02344 0.60916 0.0
O214 O 0.7189 0.05389 0.6758 0.0
Co215 Co 0.69411 0.08929 0.61199 0.0
O216 O 0.73494 0.08607 0.63372 0.0
C217 C 0.65155 0.10011 0.671 0.0
C218 C 0.64506 0.005 0.69017 0.0
C219 C 0.73928 0.07128 0.6622 0.0
O220 O 0.65632 0.0731 0.68273 0.0
O221 O 0.66286 0.11002 0.64205 0.0
O222 O 0.69788 0.00471 0.63551 0.0
O223 O 0.68004 0.04781 0.61518 0.0
C224 C 0.46817 0.12721 0.23913 0.0
C225 C 0.48685 0.11722 0.21155 0.0
C226 C 0.44701 0.10757 0.25479 0.0
C227 C 0.445 0.07715 0.24294 0.0
C228 C 0.46419 0.06685 0.2155 0.0
C229 C 0.48472 0.0871 0.19993 0.0
C230 C 0.42659 0.11943 0.28368 0.0
C231 C 0.46305 0.03443 0.20261 0.0
C232 C 0.4109 0.01843 0.30434 0.0
C233 C 0.38191 0.01451 0.28981 0.0
C234 C 0.43164 0.0388 0.28937 0.0
C235 C 0.42302 0.05593 0.25942 0.0
C236 C 0.39368 0.05226 0.24477 0.0
C237 C 0.37351 0.03139 0.26002 0.0
C238 C 0.46287 0.04182 0.30543 0.0
C239 C 0.38361 0.07043 0.21306 0.0
H240 H 0.46963 0.15056 0.24798 0.0
H241 H 0.49925 0.07927 0.17871 0.0
H242 H 0.40248 0.11663 0.27589 0.0
H243 H 0.43006 0.10613 0.30822 0.0
H244 H 0.43078 0.14377 0.28955 0.0
H245 H 0.47995 0.0299 0.18149 0.0
H246 H 0.46739 0.01866 0.22488 0.0
H247 H 0.44011 0.02921 0.19222 0.0
H248 H 0.41752 0.00536 0.32734 0.0
H249 H 0.35104 0.02856 0.24885 0.0
H250 H 0.46688 0.06563 0.31372 0.0
H251 H 0.48039 0.0361 0.28547 0.0
H252 H 0.466 0.02681 0.32872 0.0
H253 H 0.38576 0.09505 0.21867 0.0
H254 H 0.35975 0.06553 0.2055 0.0
H255 H 0.39848 0.06535 0.19017 0.0
C256 C 0.41031 0.48286 0.70207 0.0
C257 C 0.37998 0.48471 0.71296 0.0
C258 C 0.43022 0.4618 0.71732 0.0
C259 C 0.41935 0.44172 0.74359 0.0
C260 C 0.38868 0.44339 0.7546 0.0
C261 C 0.3694 0.46514 0.73939 0.0
C262 C 0.46292 0.46113 0.70541 0.0
C263 C 0.37619 0.42199 0.78214 0.0
C264 C 0.46566 0.37023 0.75923 0.0
C265 C 0.48188 0.378 0.78974 0.0
C266 C 0.44474 0.39054 0.74425 0.0
C267 C 0.44034 0.41939 0.75994 0.0
C268 C 0.4567 0.42733 0.79071 0.0
C269 C 0.47714 0.40647 0.80535 0.0
C270 C 0.42738 0.38116 0.71166 0.0
C271 C 0.45291 0.45801 0.80795 0.0
H272 H 0.41858 0.49806 0.68173 0.0
H273 H 0.34587 0.46636 0.74762 0.0
H274 H 0.47815 0.46491 0.72832 0.0
H275 H 0.46849 0.43851 0.69433 0.0
H276 H 0.46786 0.47863 0.68509 0.0
H277 H 0.35167 0.42585 0.78726 0.0
H278 H 0.37938 0.39816 0.77346 0.0
H279 H 0.38877 0.42478 0.8073 0.0
H280 H 0.46911 0.34816 0.74722 0.0
H281 H 0.48965 0.41263 0.82893 0.0
H282 H 0.43295 0.39659 0.68945 0.0
H283 H 0.40262 0.3831 0.71653 0.0
H284 H 0.43256 0.35751 0.70351 0.0
H285 H 0.45899 0.47619 0.78895 0.0
H286 H 0.46722 0.46057 0.8319 0.0
H287 H 0.42885 0.46156 0.81549 0.0
C288 C 0.0323 0.37635 0.23817 0.0
C289 C 0.01466 0.3861 0.20955 0.0
C290 C 0.05329 0.39593 0.25422 0.0
C291 C 0.05619 0.42608 0.24173 0.0
C292 C 0.03815 0.43612 0.21311 0.0
C293 C 0.01779 0.4159 0.19716 0.0
C294 C 0.07251 0.38433 0.28434 0.0
C295 C 0.04025 0.46826 0.19946 0.0
C296 C 0.08867 0.48518 0.30388 0.0
C297 C 0.11822 0.48857 0.29078 0.0
C298 C 0.06822 0.46495 0.28809 0.0
C299 C 0.07776 0.44735 0.25888 0.0
C300 C 0.10767 0.45048 0.24571 0.0
C301 C 0.12749 0.47131 0.26165 0.0
C302 C 0.03635 0.46259 0.30249 0.0
C303 C 0.11875 0.43174 0.21492 0.0
H304 H 0.03009 0.35323 0.24763 0.0
H305 H 0.00408 0.42355 0.17512 0.0
H306 H 0.09691 0.38696 0.27782 0.0
H307 H 0.06811 0.39791 0.30846 0.0
H308 H 0.06798 0.36007 0.29035 0.0
H309 H 0.02432 0.47257 0.17728 0.0
H310 H 0.03517 0.4845 0.22105 0.0
H311 H 0.06367 0.47303 0.19028 0.0
H312 H 0.08138 0.49859 0.32633 0.0
H313 H 0.15041 0.47373 0.25163 0.0
H314 H 0.03174 0.439 0.31117 0.0
H315 H 0.01972 0.46809 0.28145 0.0
H316 H 0.03246 0.47809 0.32518 0.0
H317 H 0.11614 0.40723 0.22093 0.0
H318 H 0.14292 0.4363 0.2085 0.0
H319 H 0.10481 0.43658 0.19119 0.0
C320 C 0.13189 0.03633 0.73991 0.0
C321 C 0.12247 0.0181 0.71165 0.0
C322 C 0.11209 0.0576 0.75512 0.0
C323 C 0.08207 0.0602 0.74212 0.0
C324 C 0.07241 0.04164 0.71379 0.0
C325 C 0.09282 0.02099 0.6987 0.0
C326 C 0.1233 0.07735 0.78498 0.0
C327 C 0.04042 0.0434 0.6996 0.0
C328 C 0.02185 0.09256 0.80285 0.0
C329 C 0.01819 0.12194 0.7893 0.0
C330 C 0.04258 0.07226 0.78773 0.0
C331 C 0.06042 0.08175 0.7587 0.0
C332 C 0.05703 0.11148 0.74506 0.0
C333 C 0.03571 0.13118 0.76036 0.0
C334 C 0.04522 0.04058 0.80265 0.0
C335 C 0.07599 0.12249 0.71442 0.0
H336 H 0.15489 0.03431 0.74979 0.0
H337 H 0.08541 0.00684 0.67693 0.0
H338 H 0.12041 0.10165 0.77803 0.0
H339 H 0.10963 0.07309 0.80907 0.0
H340 H 0.14757 0.07319 0.79125 0.0
H341 H 0.03649 0.02728 0.67751 0.0
H342 H 0.02398 0.03832 0.72099 0.0
H343 H 0.03557 0.06672 0.69014 0.0
H344 H 0.00827 0.08529 0.82517 0.0
H345 H 0.03309 0.15396 0.75 0.0
H346 H 0.06879 0.03636 0.81168 0.0
H347 H 0.04012 0.02364 0.78179 0.0
H348 H 0.02957 0.03674 0.82521 0.0
H349 H 0.10045 0.12024 0.72083 0.0
H350 H 0.07121 0.14655 0.70762 0.0
H351 H 0.07157 0.10827 0.69081 0.0
C352 C 0.53542 0.87218 0.75652 0.0
C353 C 0.52 0.88084 0.78726 0.0
C354 C 0.55656 0.8917 0.74058 0.0
C355 C 0.56197 0.92066 0.75554 0.0
C356 C 0.54629 0.92956 0.78644 0.0
C357 C 0.52563 0.90947 0.80205 0.0
C358 C 0.57318 0.88133 0.70788 0.0
C359 C 0.55117 0.96042 0.80289 0.0
C360 C 0.63407 0.96403 0.73389 0.0
C361 C 0.62392 0.98371 0.70736 0.0
C362 C 0.61429 0.94289 0.74934 0.0
C363 C 0.58354 0.94202 0.73852 0.0
C364 C 0.57314 0.96214 0.71204 0.0
C365 C 0.59356 0.98252 0.69649 0.0
C366 C 0.6263 0.92138 0.77705 0.0
C367 C 0.54036 0.96233 0.70036 0.0
H368 H 0.53127 0.84999 0.74514 0.0
H369 H 0.51372 0.91631 0.82578 0.0
H370 H 0.56799 0.89674 0.68552 0.0
H371 H 0.59804 0.88235 0.71238 0.0
H372 H 0.56699 0.85781 0.70013 0.0
H373 H 0.53702 0.9639 0.82682 0.0
H374 H 0.57536 0.96325 0.81028 0.0
H375 H 0.54567 0.97845 0.78347 0.0
H376 H 0.65764 0.96475 0.74207 0.0
H377 H 0.58564 0.99784 0.67607 0.0
H378 H 0.622 0.89757 0.76892 0.0
H379 H 0.61423 0.92506 0.80238 0.0
H380 H 0.65103 0.92429 0.78162 0.0
H381 H 0.53396 0.9397 0.68995 0.0
H382 H 0.53589 0.97959 0.67962 0.0
H383 H 0.52542 0.96708 0.72329 0.0
C384 C 0.53095 0.62781 0.23763 0.0
C385 C 0.51285 0.61837 0.20928 0.0
C386 C 0.55177 0.60786 0.25336 0.0
C387 C 0.55405 0.57769 0.24075 0.0
C388 C 0.53547 0.56794 0.21248 0.0
C389 C 0.51525 0.58849 0.19689 0.0
C390 C 0.57153 0.61912 0.28317 0.0
C391 C 0.53692 0.5358 0.19872 0.0
C392 C 0.62516 0.5317 0.25896 0.0
C393 C 0.61612 0.5144 0.28816 0.0
C394 C 0.6053 0.55276 0.24352 0.0
C395 C 0.57563 0.55613 0.25732 0.0
C396 C 0.56632 0.53848 0.28658 0.0
C397 C 0.58677 0.51797 0.30181 0.0
C398 C 0.61608 0.57149 0.21258 0.0
C399 C 0.53471 0.54115 0.30168 0.0
H400 H 0.52927 0.65097 0.24709 0.0
H401 H 0.50118 0.58108 0.17505 0.0
H402 H 0.56746 0.60538 0.30725 0.0
H403 H 0.59581 0.6164 0.27608 0.0
H404 H 0.56725 0.64336 0.28953 0.0
H405 H 0.52053 0.53171 0.17694 0.0
H406 H 0.5601 0.53077 0.18894 0.0
H407 H 0.53205 0.51957 0.2204 0.0
H408 H 0.64791 0.52914 0.24851 0.0
H409 H 0.57967 0.50455 0.32433 0.0
H410 H 0.61391 0.59601 0.2188 0.0
H411 H 0.60168 0.56694 0.18916 0.0
H412 H 0.64008 0.56665 0.20557 0.0
H413 H 0.5305 0.56477 0.31057 0.0
H414 H 0.531 0.52562 0.32437 0.0
H415 H 0.51768 0.53592 0.28097 0.0
C416 C 0.96455 0.63069 0.75634 0.0
C417 C 0.98385 0.62078 0.78336 0.0
C418 C 0.94349 0.6108 0.74089 0.0
C419 C 0.94226 0.58022 0.75235 0.0
C420 C 0.96218 0.57 0.77911 0.0
C421 C 0.98255 0.59048 0.79452 0.0
C422 C 0.92229 0.62257 0.71273 0.0
C423 C 0.96193 0.53742 0.79154 0.0
C424 C 0.87128 0.53315 0.73731 0.0
C425 C 0.8793 0.51651 0.7072 0.0
C426 C 0.89138 0.55442 0.75196 0.0
C427 C 0.92025 0.55876 0.73634 0.0
C428 C 0.92848 0.54191 0.70603 0.0
C429 C 0.90783 0.52109 0.69171 0.0
C430 C 0.88173 0.57224 0.78411 0.0
C431 C 0.95921 0.54566 0.68891 0.0
H432 H 0.96539 0.65418 0.74786 0.0
H433 H 0.99759 0.58271 0.81528 0.0
H434 H 0.9253 0.60942 0.688 0.0
H435 H 0.89841 0.61947 0.72129 0.0
H436 H 0.92608 0.64698 0.7069 0.0
H437 H 0.97945 0.53295 0.81197 0.0
H438 H 0.93936 0.5317 0.80267 0.0
H439 H 0.96593 0.52196 0.76889 0.0
H440 H 0.84916 0.52982 0.74921 0.0
H441 H 0.91416 0.50825 0.66843 0.0
H442 H 0.88336 0.59693 0.77865 0.0
H443 H 0.89719 0.56726 0.80649 0.0
H444 H 0.85814 0.5669 0.79236 0.0
H445 H 0.96257 0.56961 0.6808 0.0
H446 H 0.96201 0.53093 0.66533 0.0
H447 H 0.97735 0.54009 0.70817 0.0
C448 C 0.8747 0.97123 0.25591 0.0
C449 C 0.88484 0.98968 0.28363 0.0
C450 C 0.89422 0.95014 0.23994 0.0
C451 C 0.92467 0.94798 0.2516 0.0
C452 C 0.93516 0.96704 0.27906 0.0
C453 C 0.91502 0.98749 0.29497 0.0
C454 C 0.88217 0.92985 0.21103 0.0
C455 C 0.96764 0.96577 0.29174 0.0
C456 C 0.96965 0.876 0.23458 0.0
C457 C 0.98644 0.88411 0.20462 0.0
C458 C 0.94908 0.89645 0.24988 0.0
C459 C 0.94566 0.92578 0.23512 0.0
C460 C 0.96274 0.93413 0.20503 0.0
C461 C 0.98279 0.9131 0.18999 0.0
C462 C 0.93093 0.88665 0.28172 0.0
C463 C 0.96001 0.96536 0.18889 0.0
H464 H 0.8513 0.97275 0.24727 0.0
H465 H 0.92296 0.00186 0.31629 0.0
H466 H 0.89554 0.93313 0.18651 0.0
H467 H 0.88466 0.90572 0.21886 0.0
H468 H 0.85789 0.93434 0.20511 0.0
H469 H 0.97239 0.98278 0.31267 0.0
H470 H 0.97273 0.94285 0.30232 0.0
H471 H 0.98334 0.96982 0.26932 0.0
H472 H 0.97227 0.85353 0.24581 0.0
H473 H 0.9958 0.9195 0.16687 0.0
H474 H 0.90631 0.889 0.2762 0.0
H475 H 0.93621 0.90155 0.30451 0.0
H476 H 0.93564 0.86277 0.28936 0.0
H477 H 0.93624 0.96959 0.18064 0.0
H478 H 0.97501 0.96829 0.16557 0.0
H479 H 0.96592 0.98287 0.20879 0.0
C480 C 0.60199 0.28045 0.17538 0.0
C481 C 0.57638 0.26257 0.18257 0.0
C482 C 0.60962 0.30516 0.19694 0.0
C483 C 0.59088 0.31255 0.22605 0.0
C484 C 0.56375 0.29609 0.23183 0.0
C485 C 0.55696 0.27106 0.21023 0.0
C486 C 0.63894 0.32191 0.19005 0.0
C487 C 0.54276 0.30382 0.26201 0.0
C488 C 0.63272 0.34509 0.3047 0.0
C489 C 0.62869 0.37641 0.30001 0.0
C490 C 0.61981 0.32414 0.28131 0.0
C491 C 0.60187 0.33466 0.25282 0.0
C492 C 0.59646 0.36615 0.24884 0.0
C493 C 0.61024 0.38672 0.27228 0.0
C494 C 0.62653 0.29077 0.28623 0.0
C495 C 0.57686 0.37814 0.2193 0.0
H496 H 0.61714 0.27416 0.15404 0.0
H497 H 0.5369 0.25763 0.2157 0.0
H498 H 0.63503 0.34676 0.18976 0.0
H499 H 0.65525 0.31704 0.21165 0.0
H500 H 0.64952 0.3152 0.16459 0.0
H501 H 0.52044 0.29231 0.25948 0.0
H502 H 0.55328 0.29669 0.28729 0.0
H503 H 0.539 0.32869 0.26345 0.0
H504 H 0.64704 0.33687 0.3259 0.0
H505 H 0.60682 0.41088 0.26864 0.0
H506 H 0.63913 0.28204 0.26297 0.0
H507 H 0.60508 0.27771 0.28815 0.0
H508 H 0.64024 0.28627 0.31029 0.0
H509 H 0.58856 0.37479 0.19367 0.0
H510 H 0.57181 0.40269 0.22245 0.0
H511 H 0.55514 0.36544 0.21808 0.0
C512 C 0.21606 0.59985 0.6727 0.0
C513 C 0.23586 0.57681 0.6839 0.0
C514 C 0.1912 0.60866 0.69341 0.0
C515 C 0.18572 0.59382 0.72592 0.0
C516 C 0.20416 0.569 0.73607 0.0
C517 C 0.22915 0.5609 0.71505 0.0
C518 C 0.17221 0.63536 0.68169 0.0
C519 C 0.19863 0.55219 0.77019 0.0
C520 C 0.15238 0.64249 0.79866 0.0
C521 C 0.1215 0.63503 0.79702 0.0
C522 C 0.17342 0.62901 0.77583 0.0
C523 C 0.1635 0.60692 0.75125 0.0
C524 C 0.13248 0.59857 0.75012 0.0
C525 C 0.11171 0.61307 0.77273 0.0
C526 C 0.20618 0.63906 0.77739 0.0
C527 C 0.12123 0.57461 0.72484 0.0
H528 H 0.22081 0.61219 0.64856 0.0
H529 H 0.24403 0.5428 0.72375 0.0
H530 H 0.1477 0.63 0.68377 0.0
H531 H 0.17673 0.655 0.69927 0.0
H532 H 0.17725 0.64223 0.65408 0.0
H533 H 0.2118 0.53072 0.77161 0.0
H534 H 0.20537 0.56674 0.79278 0.0
H535 H 0.17417 0.54688 0.77331 0.0
H536 H 0.16002 0.65968 0.8171 0.0
H537 H 0.08786 0.60713 0.77153 0.0
H538 H 0.21309 0.64861 0.7515 0.0
H539 H 0.22109 0.61934 0.78283 0.0
H540 H 0.21016 0.6565 0.79807 0.0
H541 H 0.12446 0.58238 0.69724 0.0
H542 H 0.09683 0.56931 0.72886 0.0
H543 H 0.13459 0.55346 0.72809 0.0
C544 C 0.88803 0.11786 0.27093 0.0
C545 C 0.87048 0.1274 0.29981 0.0
C546 C 0.90105 0.13906 0.24768 0.0
C547 C 0.89587 0.17043 0.25309 0.0
C548 C 0.87885 0.18017 0.28269 0.0
C549 C 0.86662 0.15858 0.30581 0.0
C550 C 0.91962 0.12787 0.21682 0.0
C551 C 0.87244 0.2134 0.28918 0.0
C552 C 0.94096 0.23384 0.21017 0.0
C553 C 0.92121 0.24294 0.18309 0.0
C554 C 0.93396 0.20895 0.23187 0.0
C555 C 0.90631 0.19321 0.22678 0.0
C556 C 0.88698 0.20142 0.1985 0.0
C557 C 0.8948 0.22599 0.17682 0.0
C558 C 0.95548 0.20039 0.26123 0.0
C559 C 0.85709 0.18547 0.19244 0.0
H560 H 0.89133 0.09382 0.26624 0.0
H561 H 0.85299 0.16621 0.32792 0.0
H562 H 0.90737 0.13254 0.19182 0.0
H563 H 0.94157 0.14015 0.21556 0.0
H564 H 0.9242 0.10312 0.21841 0.0
H565 H 0.8596 0.21726 0.31402 0.0
H566 H 0.89399 0.22634 0.29055 0.0
H567 H 0.85908 0.22279 0.26687 0.0
H568 H 0.96158 0.2466 0.21495 0.0
H569 H 0.87937 0.23283 0.156 0.0
H570 H 0.95929 0.1755 0.26153 0.0
H571 H 0.94539 0.20668 0.28704 0.0
H572 H 0.97775 0.212 0.25867 0.0
H573 H 0.86051 0.16057 0.19097 0.0
H574 H 0.84572 0.19311 0.16781 0.0
H575 H 0.84167 0.18995 0.21502 0.0
C576 C 0.28073 0.89556 0.68532 0.0
C577 C 0.26574 0.92351 0.68848 0.0
C578 C 0.30542 0.88831 0.70704 0.0
C579 C 0.31592 0.90981 0.73198 0.0
C580 C 0.30212 0.93879 0.7338 0.0
C581 C 0.27686 0.94516 0.71236 0.0
C582 C 0.3191 0.85692 0.70467 0.0
C583 C 0.31329 0.96262 0.7593 0.0
C584 C 0.3511 0.87392 0.81296 0.0
C585 C 0.38204 0.87363 0.80413 0.0
C586 C 0.32953 0.88694 0.79041 0.0
C587 C 0.33909 0.90049 0.75842 0.0
C588 C 0.37042 0.9021 0.75038 0.0
C589 C 0.39154 0.8884 0.77319 0.0
C590 C 0.29631 0.88447 0.79988 0.0
C591 C 0.38153 0.91704 0.71694 0.0
H592 H 0.2722 0.87865 0.66706 0.0
H593 H 0.26556 0.96693 0.71464 0.0
H594 H 0.34399 0.85842 0.70086 0.0
H595 H 0.31508 0.84455 0.72977 0.0
H596 H 0.30931 0.8434 0.68269 0.0
H597 H 0.30322 0.98525 0.75383 0.0
H598 H 0.30725 0.95596 0.78665 0.0
H599 H 0.33838 0.9645 0.75804 0.0
H600 H 0.34342 0.86271 0.83681 0.0
H601 H 0.41541 0.88862 0.76629 0.0
H602 H 0.28464 0.86961 0.78049 0.0
H603 H 0.28531 0.90707 0.79861 0.0
H604 H 0.29277 0.87493 0.82672 0.0
H605 H 0.37579 0.90257 0.69393 0.0
H606 H 0.40649 0.92061 0.71723 0.0
H607 H 0.37017 0.93926 0.71302 0.0
C608 C 0.55859 0.22599 0.78116 0.0
C609 C 0.57714 0.2342 0.80974 0.0
C610 C 0.56638 0.20154 0.75908 0.0
C611 C 0.59365 0.18541 0.76531 0.0
C612 C 0.61169 0.1927 0.79504 0.0
C613 C 0.60306 0.21677 0.81704 0.0
C614 C 0.54617 0.19389 0.72817 0.0
C615 C 0.64117 0.17638 0.80239 0.0
C616 C 0.61495 0.11127 0.72021 0.0
C617 C 0.63401 0.12164 0.69308 0.0
C618 C 0.60024 0.13182 0.74291 0.0
C619 C 0.60533 0.16336 0.73883 0.0
C620 C 0.62386 0.17393 0.71089 0.0
C621 C 0.6377 0.15299 0.6882 0.0
C622 C 0.58005 0.11975 0.77186 0.0
C623 C 0.63031 0.20735 0.70595 0.0
H624 H 0.53835 0.23909 0.77553 0.0
H625 H 0.61759 0.22286 0.83902 0.0
H626 H 0.55731 0.20106 0.70327 0.0
H627 H 0.54249 0.16901 0.72655 0.0
H628 H 0.52378 0.20537 0.72997 0.0
H629 H 0.65146 0.18334 0.82791 0.0
H630 H 0.63754 0.15149 0.80284 0.0
H631 H 0.65761 0.18129 0.78093 0.0
H632 H 0.61177 0.08709 0.72396 0.0
H633 H 0.65248 0.16125 0.66744 0.0
H634 H 0.55815 0.13217 0.77222 0.0
H635 H 0.59105 0.12341 0.79786 0.0
H636 H 0.5754 0.09512 0.76876 0.0
H637 H 0.60878 0.2202 0.70361 0.0
H638 H 0.6443 0.2119 0.68212 0.0
H639 H 0.64253 0.21625 0.72939 0.0
C640 C 0.38523 0.61674 0.22541 0.0
C641 C 0.37536 0.63303 0.19569 0.0
C642 C 0.36432 0.60377 0.24903 0.0
C643 C 0.33285 0.60762 0.24305 0.0
C644 C 0.32277 0.62318 0.21252 0.0
C645 C 0.34412 0.63546 0.18912 0.0
C646 C 0.37589 0.58682 0.28093 0.0
C647 C 0.2894 0.62808 0.20536 0.0
C648 C 0.27093 0.56221 0.28852 0.0
C649 C 0.26127 0.58268 0.31459 0.0
C650 C 0.29551 0.56919 0.26633 0.0
C651 C 0.31027 0.59757 0.2698 0.0
C652 C 0.3014 0.61776 0.29698 0.0
C653 C 0.27723 0.60994 0.31925 0.0
C654 C 0.30485 0.54676 0.23823 0.0
C655 C 0.31625 0.64845 0.30126 0.0
H656 H 0.40932 0.61452 0.23058 0.0
H657 H 0.33619 0.64803 0.16631 0.0
H658 H 0.37083 0.59999 0.30519 0.0
H659 H 0.36421 0.56461 0.28342 0.0
H660 H 0.40076 0.58285 0.27967 0.0
H661 H 0.2853 0.6396 0.1797 0.0
H662 H 0.27723 0.60606 0.20526 0.0
H663 H 0.27938 0.64213 0.2267 0.0
H664 H 0.25891 0.54096 0.285 0.0
H665 H 0.26989 0.62595 0.33923 0.0
H666 H 0.32984 0.54372 0.23825 0.0
H667 H 0.29837 0.55558 0.21186 0.0
H668 H 0.29392 0.52427 0.24198 0.0
H669 H 0.34123 0.64596 0.30318 0.0
H670 H 0.30801 0.66068 0.32506 0.0
H671 H 0.31144 0.66262 0.27769 0.0
C672 C 0.8858 0.38813 0.72344 0.0
C673 C 0.86559 0.37776 0.69747 0.0
C674 C 0.90042 0.36766 0.74631 0.0
C675 C 0.89406 0.33624 0.74361 0.0
C676 C 0.87414 0.32566 0.717 0.0
C677 C 0.86041 0.34648 0.69409 0.0
C678 C 0.92206 0.37968 0.77383 0.0
C679 C 0.86633 0.29239 0.71357 0.0
C680 C 0.94085 0.27277 0.78381 0.0
C681 C 0.92326 0.26511 0.81341 0.0
C682 C 0.93286 0.29736 0.76209 0.0
C683 C 0.9064 0.31432 0.76982 0.0
C684 C 0.88956 0.30778 0.80071 0.0
C685 C 0.89833 0.28344 0.82225 0.0
C686 C 0.9518 0.30413 0.72983 0.0
C687 C 0.86103 0.32511 0.80976 0.0
H688 H 0.89008 0.41225 0.72604 0.0
H689 H 0.84468 0.33825 0.67429 0.0
H690 H 0.9122 0.37647 0.80052 0.0
H691 H 0.94372 0.36687 0.77303 0.0
H692 H 0.927 0.4042 0.77009 0.0
H693 H 0.85096 0.28781 0.69094 0.0
H694 H 0.88729 0.27878 0.71008 0.0
H695 H 0.85513 0.28438 0.73811 0.0
H696 H 0.96038 0.25901 0.77698 0.0
H697 H 0.88461 0.27787 0.8451 0.0
H698 H 0.956 0.32887 0.72749 0.0
H699 H 0.93936 0.29689 0.7058 0.0
H700 H 0.97396 0.29212 0.73046 0.0
H701 H 0.8653 0.3499 0.80904 0.0
H702 H 0.85208 0.31905 0.83626 0.0
H703 H 0.84326 0.32011 0.78982 0.0
C704 C 0.15535 0.86661 0.18729 0.0
C705 C 0.12404 0.87058 0.19218 0.0
C706 C 0.17637 0.87961 0.21053 0.0
C707 C 0.16593 0.89754 0.23907 0.0
C708 C 0.13447 0.90304 0.2431 0.0
C709 C 0.11383 0.88921 0.2198 0.0
C710 C 0.20971 0.87285 0.20554 0.0
C711 C 0.12255 0.92263 0.27269 0.0
C712 C 0.21912 0.89674 0.3175 0.0
C713 C 0.23696 0.92255 0.31117 0.0
C714 C 0.19492 0.88916 0.29517 0.0
C715 C 0.18798 0.90814 0.26612 0.0
C716 C 0.2045 0.93534 0.261 0.0
C717 C 0.22902 0.94209 0.28339 0.0
C718 C 0.1781 0.85976 0.30135 0.0
C719 C 0.19725 0.95654 0.23086 0.0
H720 H 0.16349 0.8522 0.16612 0.0
H721 H 0.08969 0.89262 0.22358 0.0
H722 H 0.22288 0.89426 0.20418 0.0
H723 H 0.21831 0.8598 0.22852 0.0
H724 H 0.21419 0.85953 0.18118 0.0
H725 H 0.09807 0.92796 0.26942 0.0
H726 H 0.12563 0.91075 0.29826 0.0
H727 H 0.13546 0.94422 0.27416 0.0
H728 H 0.225 0.88148 0.33888 0.0
H729 H 0.24244 0.96228 0.27854 0.0
H730 H 0.18288 0.8438 0.27936 0.0
H731 H 0.15327 0.86378 0.30175 0.0
H732 H 0.18476 0.8487 0.32655 0.0
H733 H 0.20449 0.94608 0.20559 0.0
H734 H 0.20893 0.97875 0.23367 0.0
H735 H 0.17243 0.96054 0.22916 0.0
C736 C 0.36206 0.65498 0.69621 0.0
C737 C 0.36763 0.62381 0.70004 0.0
C738 C 0.37519 0.67621 0.71908 0.0
C739 C 0.39496 0.66617 0.74611 0.0
C740 C 0.40156 0.63484 0.74946 0.0
C741 C 0.38751 0.61394 0.72661 0.0
C742 C 0.36708 0.70936 0.71498 0.0
C743 C 0.42303 0.62339 0.77749 0.0
C744 C 0.44174 0.73039 0.78467 0.0
C745 C 0.42424 0.73857 0.81414 0.0
C746 C 0.43368 0.70545 0.76353 0.0
C747 C 0.40724 0.68862 0.77174 0.0
C748 C 0.3904 0.69579 0.80246 0.0
C749 C 0.39923 0.7205 0.82341 0.0
C750 C 0.45257 0.69809 0.73141 0.0
C751 C 0.36187 0.67864 0.81196 0.0
H752 H 0.34652 0.66282 0.67598 0.0
H753 H 0.39204 0.58989 0.72959 0.0
H754 H 0.35588 0.71766 0.73939 0.0
H755 H 0.38791 0.72307 0.71111 0.0
H756 H 0.35161 0.71345 0.69232 0.0
H757 H 0.42767 0.59871 0.77479 0.0
H758 H 0.44485 0.63589 0.7761 0.0
H759 H 0.41327 0.62759 0.80403 0.0
H760 H 0.46131 0.74396 0.77752 0.0
H761 H 0.38557 0.7265 0.84616 0.0
H762 H 0.43996 0.7046 0.70721 0.0
H763 H 0.457 0.67334 0.72988 0.0
H764 H 0.47461 0.71032 0.73151 0.0
H765 H 0.34407 0.68332 0.79195 0.0
H766 H 0.35297 0.68517 0.83834 0.0
H767 H 0.36611 0.65384 0.8118 0.0
C768 C 0.88635 0.39 0.22625 0.0
C769 C 0.87682 0.37603 0.19481 0.0
C770 C 0.86522 0.40283 0.24972 0.0
C771 C 0.83388 0.40121 0.24182 0.0
C772 C 0.82426 0.38844 0.20939 0.0
C773 C 0.84584 0.37625 0.18623 0.0
C774 C 0.87637 0.41692 0.28366 0.0
C775 C 0.79103 0.38602 0.20004 0.0
C776 C 0.77566 0.39462 0.31491 0.0
C777 C 0.76067 0.42262 0.31259 0.0
C778 C 0.80032 0.38785 0.29293 0.0
C779 C 0.81077 0.40989 0.2686 0.0
C780 C 0.79698 0.43891 0.26769 0.0
C781 C 0.77175 0.44479 0.28935 0.0
C782 C 0.81399 0.35642 0.2943 0.0
C783 C 0.80809 0.46329 0.24288 0.0
H784 H 0.91025 0.39025 0.233 0.0
H785 H 0.83814 0.36565 0.16201 0.0
H786 H 0.86505 0.43904 0.28832 0.0
H787 H 0.87059 0.40189 0.30617 0.0
H788 H 0.90133 0.42045 0.2835 0.0
H789 H 0.78742 0.37705 0.17295 0.0
H790 H 0.77949 0.37071 0.21905 0.0
H791 H 0.77994 0.40855 0.20201 0.0
H792 H 0.76712 0.37732 0.33268 0.0
H793 H 0.76043 0.46659 0.28773 0.0
H794 H 0.83891 0.35783 0.29795 0.0
H795 H 0.80982 0.34458 0.26889 0.0
H796 H 0.80432 0.34245 0.31597 0.0
H797 H 0.83317 0.46519 0.24416 0.0
H798 H 0.79799 0.48578 0.24901 0.0
H799 H 0.80204 0.45721 0.21535 0.0
C800 C 0.09681 0.78585 0.82527 0.0
C801 C 0.07307 0.76667 0.81463 0.0
C802 C 0.10555 0.81079 0.80466 0.0
C803 C 0.08985 0.81706 0.77289 0.0
C804 C 0.06423 0.7994 0.76356 0.0
C805 C 0.05629 0.77422 0.78438 0.0
C806 C 0.13317 0.82885 0.81546 0.0
C807 C 0.04641 0.80588 0.73038 0.0
C808 C 0.11161 0.89043 0.72611 0.0
C809 C 0.13267 0.87976 0.70125 0.0
C810 C 0.0964 0.8702 0.74877 0.0
C811 C 0.10312 0.83879 0.7471 0.0
C812 C 0.12414 0.82797 0.72179 0.0
C813 C 0.13835 0.84851 0.69897 0.0
C814 C 0.07356 0.88244 0.77482 0.0
C815 C 0.13246 0.79474 0.71956 0.0
H816 H 0.10984 0.78044 0.84871 0.0
H817 H 0.03761 0.75985 0.7762 0.0
H818 H 0.15213 0.82378 0.7971 0.0
H819 H 0.12856 0.85354 0.81377 0.0
H820 H 0.14065 0.82342 0.84275 0.0
H821 H 0.0243 0.79377 0.73011 0.0
H822 H 0.04219 0.83059 0.72757 0.0
H823 H 0.0597 0.79848 0.70704 0.0
H824 H 0.10701 0.91455 0.72782 0.0
H825 H 0.1548 0.84011 0.68007 0.0
H826 H 0.08217 0.87946 0.80211 0.0
H827 H 0.05197 0.86959 0.77283 0.0
H828 H 0.06877 0.90691 0.77049 0.0
H829 H 0.14235 0.78715 0.74502 0.0
H830 H 0.14909 0.79004 0.69821 0.0
H831 H 0.11187 0.78088 0.71472 0.0
C832 C 0.65608 0.13722 0.19569 0.0
C833 C 0.62491 0.1317 0.1994 0.0
C834 C 0.67715 0.12452 0.21909 0.0
C835 C 0.66692 0.10527 0.24654 0.0
C836 C 0.63559 0.09865 0.24972 0.0
C837 C 0.61487 0.11225 0.22633 0.0
C838 C 0.71031 0.13259 0.21512 0.0
C839 C 0.62395 0.0777 0.27818 0.0
C840 C 0.73134 0.05994 0.28666 0.0
C841 C 0.7394 0.0783 0.31547 0.0
C842 C 0.70624 0.06715 0.2654 0.0
C843 C 0.68917 0.09362 0.27277 0.0
C844 C 0.69608 0.11118 0.30301 0.0
C845 C 0.72094 0.10316 0.32415 0.0
C846 C 0.69911 0.04744 0.23389 0.0
C847 C 0.67863 0.13974 0.31164 0.0
H848 H 0.66404 0.1524 0.17516 0.0
H849 H 0.59082 0.10775 0.2292 0.0
H850 H 0.71841 0.14428 0.2393 0.0
H851 H 0.72407 0.1117 0.21194 0.0
H852 H 0.71456 0.14761 0.19209 0.0
H853 H 0.59938 0.07273 0.27513 0.0
H854 H 0.6367 0.05598 0.27776 0.0
H855 H 0.62763 0.08814 0.30448 0.0
H856 H 0.74521 0.04044 0.28002 0.0
H857 H 0.72686 0.11747 0.34639 0.0
H858 H 0.70595 0.05936 0.20934 0.0
H859 H 0.67436 0.04307 0.23215 0.0
H860 H 0.71123 0.02535 0.23497 0.0
H861 H 0.68345 0.15725 0.29133 0.0
H862 H 0.6848 0.1491 0.33792 0.0
H863 H 0.65387 0.13535 0.31118 0.0
C864 C 0.44217 0.77186 0.21011 0.0
C865 C 0.42401 0.76436 0.18094 0.0
C866 C 0.43483 0.79659 0.23192 0.0
C867 C 0.40845 0.81384 0.22471 0.0
C868 C 0.39117 0.80756 0.19407 0.0
C869 C 0.3993 0.78308 0.17241 0.0
C870 C 0.45427 0.80309 0.26385 0.0
C871 C 0.36271 0.82523 0.18556 0.0
C872 C 0.3636 0.84512 0.30183 0.0
C873 C 0.36883 0.87641 0.29894 0.0
C874 C 0.3769 0.82458 0.27824 0.0
C875 C 0.39648 0.83547 0.25146 0.0
C876 C 0.40292 0.8669 0.24924 0.0
C877 C 0.3887 0.88709 0.27277 0.0
C878 C 0.36902 0.79129 0.2812 0.0
C879 C 0.42424 0.87923 0.22155 0.0
H880 H 0.46156 0.75782 0.21665 0.0
H881 H 0.38517 0.77762 0.14987 0.0
H882 H 0.45849 0.82781 0.26644 0.0
H883 H 0.44223 0.79558 0.28804 0.0
H884 H 0.47643 0.79111 0.26257 0.0
H885 H 0.35361 0.81961 0.159 0.0
H886 H 0.34501 0.82003 0.20551 0.0
H887 H 0.36714 0.84997 0.18675 0.0
H888 H 0.34811 0.83666 0.32177 0.0
H889 H 0.39299 0.91124 0.27054 0.0
H890 H 0.38996 0.77758 0.28422 0.0
H891 H 0.35758 0.78362 0.25665 0.0
H892 H 0.35382 0.78647 0.30392 0.0
H893 H 0.44583 0.86628 0.22163 0.0
H894 H 0.42939 0.90365 0.22574 0.0
H895 H 0.41397 0.87652 0.19501 0.0
C896 C 0.72858 0.44018 0.7184 0.0
C897 C 0.73279 0.42654 0.68525 0.0
C898 C 0.70389 0.4322 0.73994 0.0
C899 C 0.6831 0.40989 0.72817 0.0
C900 C 0.68594 0.39778 0.69373 0.0
C901 C 0.71064 0.40635 0.67264 0.0
C902 C 0.70127 0.44609 0.77625 0.0
C903 C 0.66431 0.37388 0.68014 0.0
C904 C 0.65089 0.35681 0.79726 0.0
C905 C 0.62056 0.36618 0.79924 0.0
C906 C 0.67134 0.37099 0.77432 0.0
C907 C 0.66149 0.3958 0.7535 0.0
C908 C 0.63108 0.406 0.7561 0.0
C909 C 0.61077 0.3907 0.77857 0.0
C910 C 0.70334 0.35885 0.77171 0.0
C911 C 0.62003 0.43288 0.73504 0.0
H912 H 0.74528 0.45612 0.72828 0.0
H913 H 0.71336 0.39594 0.6469 0.0
H914 H 0.67742 0.45248 0.78196 0.0
H915 H 0.7083 0.4292 0.79638 0.0
H916 H 0.71586 0.4665 0.77914 0.0
H917 H 0.66721 0.36971 0.65141 0.0
H918 H 0.66839 0.35226 0.6944 0.0
H919 H 0.64045 0.38059 0.68513 0.0
H920 H 0.65842 0.3376 0.81285 0.0
H921 H 0.58733 0.39803 0.78022 0.0
H922 H 0.71986 0.37693 0.77842 0.0
H923 H 0.70808 0.35157 0.74421 0.0
H924 H 0.70728 0.33923 0.78956 0.0
H925 H 0.6347 0.45286 0.74021 0.0
H926 H 0.59619 0.43895 0.74147 0.0
H927 H 0.62155 0.42787 0.7064 0.0
C928 C 0.13262 0.65773 0.3089 0.0
C929 C 0.12891 0.62637 0.30417 0.0
C930 C 0.11975 0.67856 0.28531 0.0
C931 C 0.1022 0.66786 0.2566 0.0
C932 C 0.09696 0.63634 0.2527 0.0
C933 C 0.11067 0.6159 0.27633 0.0
C934 C 0.12627 0.71197 0.29017 0.0
C935 C 0.07774 0.62414 0.22292 0.0
C936 C 0.05756 0.73046 0.21144 0.0
C937 C 0.07723 0.73839 0.18378 0.0
C938 C 0.06432 0.70609 0.23404 0.0
C939 C 0.09167 0.68974 0.2293 0.0
C940 C 0.11082 0.69669 0.20041 0.0
C941 C 0.10322 0.72072 0.17783 0.0
C942 C 0.04293 0.6988 0.26399 0.0
C943 C 0.14039 0.68007 0.19465 0.0
H944 H 0.14675 0.66607 0.33021 0.0
H945 H 0.10748 0.59171 0.27266 0.0
H946 H 0.13943 0.72055 0.26727 0.0
H947 H 0.10477 0.72501 0.29123 0.0
H948 H 0.13937 0.71665 0.31464 0.0
H949 H 0.07259 0.59963 0.22625 0.0
H950 H 0.05607 0.63688 0.22112 0.0
H951 H 0.08983 0.62724 0.19749 0.0
H952 H 0.03724 0.74375 0.21597 0.0
H953 H 0.11858 0.72662 0.15655 0.0
H954 H 0.05316 0.70616 0.28935 0.0
H955 H 0.03906 0.67396 0.26574 0.0
H956 H 0.02069 0.71036 0.26092 0.0
H957 H 0.15612 0.68505 0.2168 0.0
H958 H 0.15161 0.68671 0.16955 0.0
H959 H 0.13657 0.6552 0.19434 0.0
C960 C 0.84836 0.1367 0.80393 0.0
C961 C 0.87972 0.13224 0.80028 0.0
C962 C 0.82777 0.12337 0.78043 0.0
C963 C 0.83867 0.10453 0.75294 0.0
C964 C 0.87019 0.0988 0.74998 0.0
C965 C 0.89042 0.11304 0.77346 0.0
C966 C 0.79438 0.13051 0.7842 0.0
C967 C 0.88257 0.07827 0.72153 0.0
C968 C 0.77571 0.0583 0.71091 0.0
C969 C 0.76773 0.07677 0.68217 0.0
C970 C 0.80032 0.06583 0.73281 0.0
C971 C 0.81694 0.09273 0.72619 0.0
C972 C 0.81008 0.11049 0.69609 0.0
C973 C 0.78575 0.10215 0.6743 0.0
C974 C 0.80747 0.04588 0.76413 0.0
C975 C 0.82702 0.13952 0.68825 0.0
H976 H 0.83986 0.15166 0.82439 0.0
H977 H 0.91461 0.10932 0.77062 0.0
H978 H 0.78618 0.14236 0.76017 0.0
H979 H 0.78112 0.10923 0.78678 0.0
H980 H 0.78955 0.14506 0.80748 0.0
H981 H 0.90711 0.07343 0.72523 0.0
H982 H 0.86997 0.05647 0.72116 0.0
H983 H 0.87943 0.08905 0.69532 0.0
H984 H 0.7622 0.03841 0.71694 0.0
H985 H 0.7799 0.11655 0.65212 0.0
H986 H 0.80008 0.05736 0.78875 0.0
H987 H 0.83228 0.042 0.76621 0.0
H988 H 0.79582 0.02357 0.76247 0.0
H989 H 0.82182 0.15658 0.70894 0.0
H990 H 0.82081 0.14921 0.66215 0.0
H991 H 0.85186 0.13555 0.68876 0.0
C992 C 0.49895 0.2249 0.07352 0.0
C993 C 0.52099 0.20219 0.07707 0.0
C994 C 0.4962 0.24137 0.04196 0.0
C995 C 0.5157 0.23458 0.01334 0.0
C996 C 0.53707 0.21075 0.01634 0.0
C997 C 0.53961 0.19499 0.04831 0.0
C998 C 0.47337 0.26685 0.03979 0.0
C999 C 0.558 0.20259 0.98621 0.0
C1000 C 0.49911 0.26379 0.92103 0.0
C1001 C 0.51973 0.2879 0.91856 0.0
C1002 C 0.497 0.24649 0.95207 0.0
C1003 C 0.51566 0.25389 0.98127 0.0
C1004 C 0.53572 0.2789 0.97923 0.0
C1005 C 0.53768 0.29545 0.94778 0.0
C1006 C 0.47564 0.21974 0.95322 0.0
C1007 C 0.55569 0.28772 0.00999 0.0
H1008 H 0.48454 0.23053 0.09577 0.0
H1009 H 0.5565 0.17724 0.05092 0.0
H1010 H 0.48546 0.28886 0.03757 0.0
H1011 H 0.45912 0.26435 0.01583 0.0
H1012 H 0.45834 0.26769 0.06332 0.0
H1013 H 0.57147 0.18182 0.99177 0.0
H1014 H 0.54476 0.19892 0.96166 0.0
H1015 H 0.57392 0.2216 0.98116 0.0
H1016 H 0.48528 0.25787 0.89839 0.0
H1017 H 0.55348 0.31425 0.94599 0.0
H1018 H 0.46051 0.22138 0.97655 0.0
H1019 H 0.48887 0.19844 0.95598 0.0
H1020 H 0.46143 0.21809 0.92906 0.0
H1021 H 0.54177 0.29089 0.03412 0.0
H1022 H 0.56855 0.30895 0.00488 0.0
H1023 H 0.57214 0.26927 0.01552 0.0
C1024 C 0.20051 0.54231 0.45145 0.0
C1025 C 0.20676 0.52369 0.42236 0.0
C1026 C 0.21708 0.53951 0.48284 0.0
C1027 C 0.24072 0.51785 0.48495 0.0
C1028 C 0.24668 0.49849 0.45595 0.0
C1029 C 0.22946 0.50153 0.42498 0.0
C1030 C 0.20983 0.56033 0.51339 0.0
C1031 C 0.27192 0.47535 0.45719 0.0
C1032 C 0.30219 0.53848 0.55037 0.0
C1033 C 0.29433 0.5206 0.57953 0.0
C1034 C 0.28567 0.53677 0.51885 0.0
C1035 C 0.26039 0.51705 0.51672 0.0
C1036 C 0.25286 0.49829 0.54577 0.0
C1037 C 0.27011 0.50013 0.57686 0.0
C1038 C 0.29468 0.55682 0.48824 0.0
C1039 C 0.22585 0.47724 0.54454 0.0
H1040 H 0.18281 0.55932 0.44959 0.0
H1041 H 0.23436 0.48713 0.40248 0.0
H1042 H 0.20607 0.5469 0.53778 0.0
H1043 H 0.22932 0.57567 0.51841 0.0
H1044 H 0.18938 0.57443 0.50835 0.0
H1045 H 0.27234 0.46072 0.4333 0.0
H1046 H 0.29409 0.48713 0.45941 0.0
H1047 H 0.26949 0.46069 0.48084 0.0
H1048 H 0.32108 0.55415 0.55232 0.0
H1049 H 0.26395 0.48635 0.59946 0.0
H1050 H 0.27661 0.57382 0.48325 0.0
H1051 H 0.2972 0.54309 0.46386 0.0
H1052 H 0.3163 0.56906 0.49321 0.0
H1053 H 0.20469 0.49079 0.54263 0.0
H1054 H 0.2244 0.46254 0.56831 0.0
H1055 H 0.22694 0.4626 0.52075 0.0
C1056 C 0.0009 0.27496 0.07454 0.0
C1057 C 0.97955 0.29845 0.07694 0.0
C1058 C 0.00341 0.25752 0.04366 0.0
C1059 C 0.98438 0.26409 0.01453 0.0
C1060 C 0.96361 0.28852 0.01643 0.0
C1061 C 0.9613 0.30528 0.04774 0.0
C1062 C 0.02558 0.23142 0.04267 0.0
C1063 C 0.9432 0.29645 0.98573 0.0
C1064 C 0.00175 0.23365 0.923 0.0
C1065 C 0.98062 0.21 0.9203 0.0
C1066 C 0.00385 0.25107 0.95393 0.0
C1067 C 0.98462 0.24432 0.98282 0.0
C1068 C 0.96408 0.2197 0.98065 0.0
C1069 C 0.96218 0.20298 0.94929 0.0
C1070 C 0.02579 0.27736 0.95522 0.0
C1071 C 0.94348 0.21157 0.0111 0.0
H1072 H 0.01499 0.26959 0.09715 0.0
H1073 H 0.94492 0.32358 0.04945 0.0
H1074 H 0.01298 0.2097 0.04048 0.0
H1075 H 0.04042 0.23321 0.0191 0.0
H1076 H 0.04008 0.23053 0.06664 0.0
H1077 H 0.92987 0.31743 0.9906 0.0
H1078 H 0.95685 0.29961 0.96139 0.0
H1079 H 0.92716 0.27753 0.98072 0.0
H1080 H 0.016 0.23916 0.90056 0.0
H1081 H 0.94597 0.18454 0.94734 0.0
H1082 H 0.04041 0.27568 0.97897 0.0
H1083 H 0.01298 0.29897 0.95727 0.0
H1084 H 0.0405 0.27839 0.93143 0.0
H1085 H 0.95694 0.20853 0.0356 0.0
H1086 H 0.93041 0.19045 0.00606 0.0
H1087 H 0.9272 0.23032 0.01592 0.0
C1088 C 0.30098 0.95941 0.44936 0.0
C1089 C 0.29373 0.97797 0.42054 0.0
C1090 C 0.28519 0.96194 0.4813 0.0
C1091 C 0.26127 0.98322 0.48425 0.0
C1092 C 0.25427 0.0025 0.45548 0.0
C1093 C 0.27078 0.99978 0.42395 0.0
C1094 C 0.29357 0.94125 0.51158 0.0
C1095 C 0.22867 0.02519 0.45758 0.0
C1096 C 0.20151 0.96173 0.55139 0.0
C1097 C 0.20954 0.97993 0.58023 0.0
C1098 C 0.21746 0.96351 0.5195 0.0
C1099 C 0.24235 0.98364 0.51663 0.0
C1100 C 0.25017 0.0026 0.54541 0.0
C1101 C 0.23347 0.00067 0.5769 0.0
C1102 C 0.20819 0.94322 0.4892 0.0
C1103 C 0.27682 0.02405 0.54338 0.0
H1104 H 0.31889 0.94269 0.44686 0.0
H1105 H 0.26511 0.01412 0.40164 0.0
H1106 H 0.29762 0.95473 0.53587 0.0
H1107 H 0.27451 0.92552 0.51718 0.0
H1108 H 0.31417 0.92758 0.50587 0.0
H1109 H 0.22737 0.03979 0.43372 0.0
H1110 H 0.20678 0.01301 0.46057 0.0
H1111 H 0.23143 0.0399 0.48113 0.0
H1112 H 0.18285 0.94584 0.55384 0.0
H1113 H 0.23976 0.0147 0.59924 0.0
H1114 H 0.22652 0.92664 0.48363 0.0
H1115 H 0.20478 0.95687 0.46491 0.0
H1116 H 0.18698 0.9305 0.49487 0.0
H1117 H 0.29812 0.01086 0.54048 0.0
H1118 H 0.27873 0.03859 0.56725 0.0
H1119 H 0.27481 0.03886 0.51982 0.0
C1120 C 0.50369 0.7674 0.92027 0.0
C1121 C 0.48436 0.79262 0.91881 0.0
C1122 C 0.50561 0.7497 0.95101 0.0
C1123 C 0.4881 0.7578 0.9809 0.0
C1124 C 0.46958 0.78401 0.97995 0.0
C1125 C 0.46775 0.80097 0.94878 0.0
C1126 C 0.52534 0.72169 0.95101 0.0
C1127 C 0.45091 0.79362 0.01149 0.0
C1128 C 0.46129 0.69933 0.04695 0.0
C1129 C 0.48063 0.70488 0.07557 0.0
C1130 C 0.46446 0.71546 0.01531 0.0
C1131 C 0.4873 0.73791 0.01246 0.0
C1132 C 0.50755 0.74291 0.04087 0.0
C1133 C 0.50405 0.72619 0.07213 0.0
C1134 C 0.44264 0.70926 0.9854 0.0
C1135 C 0.53203 0.76681 0.0388 0.0
H1136 H 0.51647 0.76088 0.89702 0.0
H1137 H 0.45298 0.82063 0.94776 0.0
H1138 H 0.54063 0.72175 0.97427 0.0
H1139 H 0.51084 0.70118 0.95305 0.0
H1140 H 0.53931 0.71987 0.92669 0.0
H1141 H 0.43948 0.8158 0.00726 0.0
H1142 H 0.43332 0.77626 0.01704 0.0
H1143 H 0.4655 0.79536 0.03529 0.0
H1144 H 0.44332 0.68267 0.04943 0.0
H1145 H 0.51907 0.73049 0.09423 0.0
H1146 H 0.45527 0.70516 0.96052 0.0
H1147 H 0.42796 0.72938 0.98112 0.0
H1148 H 0.42788 0.68934 0.99075 0.0
H1149 H 0.54563 0.76391 0.01438 0.0
H1150 H 0.54753 0.76607 0.06192 0.0
H1151 H 0.52145 0.78964 0.03759 0.0
C1152 C 0.79713 0.46189 0.54882 0.0
C1153 C 0.78999 0.48021 0.57786 0.0
C1154 C 0.78065 0.46405 0.51734 0.0
C1155 C 0.75615 0.48471 0.51512 0.0
C1156 C 0.74927 0.50381 0.54408 0.0
C1157 C 0.76648 0.50148 0.57515 0.0
C1158 C 0.78893 0.44358 0.48681 0.0
C1159 C 0.72306 0.52584 0.54273 0.0
C1160 C 0.72672 0.50092 0.42296 0.0
C1161 C 0.70349 0.47936 0.42008 0.0
C1162 C 0.74357 0.50365 0.45423 0.0
C1163 C 0.73663 0.48465 0.48325 0.0
C1164 C 0.71232 0.46376 0.48091 0.0
C1165 C 0.69619 0.4612 0.44921 0.0
C1166 C 0.76957 0.52593 0.45571 0.0
C1167 C 0.70398 0.4434 0.51151 0.0
H1168 H 0.81548 0.44559 0.5508 0.0
H1169 H 0.76088 0.5156 0.59766 0.0
H1170 H 0.77016 0.42738 0.48172 0.0
H1171 H 0.79216 0.45717 0.46243 0.0
H1172 H 0.80997 0.43042 0.49193 0.0
H1173 H 0.72202 0.54053 0.56654 0.0
H1174 H 0.72483 0.54049 0.519 0.0
H1175 H 0.70142 0.51309 0.5406 0.0
H1176 H 0.73242 0.51495 0.4004 0.0
H1177 H 0.67804 0.4447 0.44711 0.0
H1178 H 0.79132 0.51338 0.45788 0.0
H1179 H 0.76761 0.54055 0.47944 0.0
H1180 H 0.77053 0.54064 0.43191 0.0
H1181 H 0.72272 0.42719 0.51668 0.0
H1182 H 0.68293 0.43025 0.50638 0.0
H1183 H 0.70073 0.45705 0.53584 0.0
C1184 C 0.03871 0.79954 0.04585 0.0
C1185 C 0.02019 0.79344 0.07504 0.0
C1186 C 0.0357 0.78294 0.01454 0.0
C1187 C 0.01391 0.7594 0.01262 0.0
C1188 C 0.99463 0.75359 0.04173 0.0
C1189 C 0.99788 0.77087 0.07263 0.0
C1190 C 0.05643 0.79003 0.98385 0.0
C1191 C 0.97137 0.72846 0.04067 0.0
C1192 C 0.99651 0.73039 0.92057 0.0
C1193 C 0.01717 0.70635 0.91779 0.0
C1194 C 0.99434 0.74735 0.95183 0.0
C1195 C 0.01298 0.73967 0.98093 0.0
C1196 C 0.03277 0.71445 0.97875 0.0
C1197 C 0.03481 0.69824 0.94705 0.0
C1198 C 0.97322 0.7743 0.95314 0.0
C1199 C 0.05267 0.7053 0.00943 0.0
H1200 H 0.05581 0.81716 0.04756 0.0
H1201 H 0.98356 0.7661 0.09523 0.0
H1202 H 0.07167 0.77047 0.97883 0.0
H1203 H 0.04294 0.79379 0.95951 0.0
H1204 H 0.07063 0.81044 0.98875 0.0
H1205 H 0.95673 0.72826 0.06455 0.0
H1206 H 0.95675 0.7308 0.01699 0.0
H1207 H 0.98305 0.70622 0.03866 0.0
H1208 H 0.9829 0.73671 0.89789 0.0
H1209 H 0.0506 0.67946 0.94502 0.0
H1210 H 0.98673 0.7955 0.95474 0.0
H1211 H 0.95878 0.7733 0.97709 0.0
H1212 H 0.95834 0.77559 0.92951 0.0
H1213 H 0.06984 0.72321 0.01439 0.0
H1214 H 0.06471 0.68355 0.00451 0.0
H1215 H 0.0389 0.70294 0.0338 0.0
C1216 C 0.70478 0.03711 0.54648 0.0
C1217 C 0.71196 0.01906 0.57574 0.0
C1218 C 0.72149 0.03496 0.51516 0.0
C1219 C 0.74625 0.01457 0.5133 0.0
C1220 C 0.75311 0.99565 0.54243 0.0
C1221 C 0.73569 0.99799 0.57335 0.0
C1222 C 0.71324 0.05522 0.48444 0.0
C1223 C 0.77953 0.97387 0.54144 0.0
C1224 C 0.77656 0.99898 0.42137 0.0
C1225 C 0.79945 0.02094 0.41875 0.0
C1226 C 0.75962 0.99582 0.45253 0.0
C1227 C 0.7661 0.01484 0.48169 0.0
C1228 C 0.79015 0.03605 0.47966 0.0
C1229 C 0.8064 0.03899 0.44808 0.0
C1230 C 0.73396 0.97316 0.45368 0.0
C1231 C 0.79799 0.05644 0.5104 0.0
H1232 H 0.68627 0.05324 0.54819 0.0
H1233 H 0.74131 0.98405 0.59601 0.0
H1234 H 0.73184 0.07165 0.47952 0.0
H1235 H 0.71041 0.04152 0.46007 0.0
H1236 H 0.69198 0.06812 0.48924 0.0
H1237 H 0.78037 0.9591 0.5652 0.0
H1238 H 0.77823 0.95929 0.51761 0.0
H1239 H 0.80107 0.98682 0.5398 0.0
H1240 H 0.77113 0.98501 0.39867 0.0
H1241 H 0.82429 0.0558 0.4462 0.0
H1242 H 0.71199 0.98539 0.45525 0.0
H1243 H 0.73575 0.95874 0.4776 0.0
H1244 H 0.7336 0.95827 0.43001 0.0
H1245 H 0.77904 0.07246 0.51535 0.0
H1246 H 0.81896 0.06981 0.50557 0.0
H1247 H 0.80114 0.0428 0.53475 0.0
loop_
_geom_bond_atom_site_label_1
_geom_bond_atom_site_label_2
_geom_bond_distance
_geom_bond_site_symmetry_2
_ccdc_geom_bond_type
Co0 O1 2.216 . S
Co0 O2 2.091 . S
Co0 O4 2.004 . S
Co0 O10 2.021 . S
Co0 O12 2.137 . S
Co0 O13 2.244 . S
O1 Co0 2.216 . S
O1 C8 1.247 . S
O2 Co0 2.091 . S
O2 C8 1.261 . S
C3 O12 1.247 . S
C3 O13 1.272 . S
O4 Co0 2.004 . S
O4 C9 1.259 . S
Co5 O6 2.061 . S
Co5 O11 2.052 . S
Co5 O13 2.135 . S
O6 Co5 2.061 . S
O6 C9 1.235 . S
C7 O10 1.238 . S
C7 O11 1.241 . S
C8 O1 1.247 . S
C8 O2 1.261 . S
C9 O4 1.259 . S
C9 O6 1.235 . S
O10 Co0 2.021 . S
O10 C7 1.238 . S
O11 Co5 2.052 . S
O11 C7 1.241 . S
O12 Co0 2.137 . S
O12 C3 1.247 . S
O13 Co0 2.244 . S
O13 C3 1.272 . S
O13 Co5 2.135 . S
Co14 O15 2.216 . S
Co14 O16 2.091 . S
Co14 O18 2.004 . S
Co14 O24 2.021 . S
Co14 O26 2.137 . S
Co14 O27 2.244 . S
O15 Co14 2.216 . S
O15 C22 1.247 . S
O16 Co14 2.091 . S
O16 C22 1.261 . S
C17 O26 1.247 . S
C17 O27 1.272 . S
O18 Co14 2.004 . S
O18 C23 1.259 . S
Co19 O20 2.061 . S
Co19 O25 2.052 . S
Co19 O27 2.135 . S
O20 Co19 2.061 . S
O20 C23 1.235 . S
C21 O24 1.238 . S
C21 O25 1.241 . S
C22 O15 1.247 . S
C22 O16 1.261 . S
C23 O18 1.259 . S
C23 O20 1.235 . S
O24 Co14 2.021 . S
O24 C21 1.238 . S
O25 Co19 2.052 . S
O25 C21 1.241 . S
O26 Co14 2.137 . S
O26 C17 1.247 . S
O27 Co14 2.244 . S
O27 C17 1.272 . S
O27 Co19 2.135 . S
Co28 O29 2.216 1_655 S
Co28 O30 2.091 1_655 S
Co28 O32 2.004 . S
Co28 O38 2.021 . S
Co28 O40 2.137 1_655 S
Co28 O41 2.244 . S
O29 Co28 2.216 1_455 S
O29 C36 1.247 . S
O30 Co28 2.091 1_455 S
O30 C36 1.261 . S
C31 O40 1.247 1_655 S
C31 O41 1.272 . S
O32 Co28 2.004 . S
O32 C37 1.259 . S
Co33 O34 2.061 . S
Co33 O39 2.052 . S
Co33 O41 2.135 . S
O34 Co33 2.061 . S
O34 C37 1.235 . S
C35 O38 1.238 . S
C35 O39 1.241 . S
C36 O29 1.247 . S
C36 O30 1.261 . S
C37 O32 1.259 . S
C37 O34 1.235 . S
O38 Co28 2.021 . S
O38 C35 1.238 . S
O39 Co33 2.052 . S
O39 C35 1.241 . S
O40 Co28 2.137 1_455 S
O40 C31 1.247 1_455 S
O41 Co28 2.244 . S
O41 C31 1.272 . S
O41 Co33 2.135 . S
Co42 O43 2.216 1_565 S
Co42 O44 2.091 1_565 S
Co42 O46 2.004 . S
Co42 O52 2.021 . S
Co42 O54 2.137 1_565 S
Co42 O55 2.244 . S
O43 Co42 2.216 1_545 S
O43 C50 1.247 . S
O44 Co42 2.091 1_545 S
O44 C50 1.261 . S
C45 O54 1.247 1_565 S
C45 O55 1.272 . S
O46 Co42 2.004 . S
O46 C51 1.259 . S
Co47 O48 2.061 . S
Co47 O53 2.052 . S
Co47 O55 2.135 . S
O48 Co47 2.061 . S
O48 C51 1.235 . S
C49 O52 1.238 . S
C49 O53 1.241 . S
C50 O43 1.247 . S
C50 O44 1.261 . S
C51 O46 1.259 . S
C51 O48 1.235 . S
O52 Co42 2.021 . S
O52 C49 1.238 . S
O53 Co47 2.052 . S
O53 C49 1.241 . S
O54 Co42 2.137 1_545 S
O54 C45 1.247 1_545 S
O55 Co42 2.244 . S
O55 C45 1.272 . S
O55 Co47 2.135 . S
Co56 O57 2.216 . S
Co56 O58 2.091 . S
Co56 O60 2.004 . S
Co56 O66 2.021 . S
Co56 O68 2.137 . S
Co56 O69 2.244 . S
O57 Co56 2.216 . S
O57 C64 1.247 . S
O58 Co56 2.091 . S
O58 C64 1.261 . S
C59 O68 1.247 . S
C59 O69 1.272 . S
O60 Co56 2.004 . S
O60 C65 1.259 . S
Co61 O62 2.061 . S
Co61 O67 2.052 . S
Co61 O69 2.135 . S
O62 Co61 2.061 . S
O62 C65 1.235 . S
C63 O66 1.238 . S
C63 O67 1.241 . S
C64 O57 1.247 . S
C64 O58 1.261 . S
C65 O60 1.259 . S
C65 O62 1.235 . S
O66 Co56 2.021 . S
O66 C63 1.238 . S
O67 Co61 2.052 . S
O67 C63 1.241 . S
O68 Co56 2.137 . S
O68 C59 1.247 . S
O69 Co56 2.244 . S
O69 C59 1.272 . S
O69 Co61 2.135 . S
Co70 O71 2.216 . S
Co70 O72 2.091 . S
Co70 O74 2.004 . S
Co70 O80 2.021 . S
Co70 O82 2.137 . S
Co70 O83 2.244 . S
O71 Co70 2.216 . S
O71 C78 1.247 . S
O72 Co70 2.091 . S
O72 C78 1.261 . S
C73 O82 1.247 . S
C73 O83 1.272 . S
O74 Co70 2.004 . S
O74 C79 1.259 . S
Co75 O76 2.061 . S
Co75 O81 2.052 . S
Co75 O83 2.135 . S
O76 Co75 2.061 . S
O76 C79 1.235 . S
C77 O80 1.238 . S
C77 O81 1.241 . S
C78 O71 1.247 . S
C78 O72 1.261 . S
C79 O74 1.259 . S
C79 O76 1.235 . S
O80 Co70 2.021 . S
O80 C77 1.238 . S
O81 Co75 2.052 . S
O81 C77 1.241 . S
O82 Co70 2.137 . S
O82 C73 1.247 . S
O83 Co70 2.244 . S
O83 C73 1.272 . S
O83 Co75 2.135 . S
Co84 O85 2.216 1_655 S
Co84 O86 2.091 1_655 S
Co84 O88 2.004 . S
Co84 O94 2.021 . S
Co84 O96 2.137 1_655 S
Co84 O97 2.244 . S
O85 Co84 2.216 1_455 S
O85 C92 1.247 . S
O86 Co84 2.091 1_455 S
O86 C92 1.261 . S
C87 O96 1.247 1_655 S
C87 O97 1.272 . S
O88 Co84 2.004 . S
O88 C93 1.259 . S
Co89 O90 2.061 . S
Co89 O95 2.052 . S
Co89 O97 2.135 . S
O90 Co89 2.061 . S
O90 C93 1.235 . S
C91 O94 1.238 . S
C91 O95 1.241 . S
C92 O85 1.247 . S
C92 O86 1.261 . S
C93 O88 1.259 . S
C93 O90 1.235 . S
O94 Co84 2.021 . S
O94 C91 1.238 . S
O95 Co89 2.052 . S
O95 C91 1.241 . S
O96 Co84 2.137 1_455 S
O96 C87 1.247 1_455 S
O97 Co84 2.244 . S
O97 C87 1.272 . S
O97 Co89 2.135 . S
Co98 O99 2.216 1_565 S
Co98 O100 2.091 1_565 S
Co98 O102 2.004 . S
Co98 O108 2.021 . S
Co98 O110 2.137 1_565 S
Co98 O111 2.244 . S
O99 Co98 2.216 1_545 S
O99 C106 1.247 . S
O100 Co98 2.091 1_545 S
O100 C106 1.261 . S
C101 O110 1.247 1_565 S
C101 O111 1.272 . S
O102 Co98 2.004 . S
O102 C107 1.259 . S
Co103 O104 2.061 . S
Co103 O109 2.052 . S
Co103 O111 2.135 . S
O104 Co103 2.061 . S
O104 C107 1.235 . S
C105 O108 1.238 . S
C105 O109 1.241 . S
C106 O99 1.247 . S
C106 O100 1.261 . S
C107 O102 1.259 . S
C107 O104 1.235 . S
O108 Co98 2.021 . S
O108 C105 1.238 . S
O109 Co103 2.052 . S
O109 C105 1.241 . S
O110 Co98 2.137 1_545 S
O110 C101 1.247 1_545 S
O111 Co98 2.244 . S
O111 C101 1.272 . S
O111 Co103 2.135 . S
Co112 O113 2.216 . S
Co112 O114 2.091 . S
Co112 O116 2.004 . S
Co112 O122 2.021 . S
Co112 O124 2.137 . S
Co112 O125 2.244 . S
O113 Co112 2.216 . S
O113 C120 1.247 . S
O114 Co112 2.091 . S
O114 C120 1.261 . S
C115 O124 1.247 . S
C115 O125 1.272 . S
O116 Co112 2.004 . S
O116 C121 1.259 . S
Co117 O118 2.061 . S
Co117 O123 2.052 . S
Co117 O125 2.135 . S
O118 Co117 2.061 . S
O118 C121 1.235 . S
C119 O122 1.238 . S
C119 O123 1.241 . S
C120 O113 1.247 . S
C120 O114 1.261 . S
C121 O116 1.259 . S
C121 O118 1.235 . S
O122 Co112 2.021 . S
O122 C119 1.238 . S
O123 Co117 2.052 . S
O123 C119 1.241 . S
O124 Co112 2.137 . S
O124 C115 1.247 . S
O125 Co112 2.244 . S
O125 C115 1.272 . S
O125 Co117 2.135 . S
Co126 O127 2.216 . S
Co126 O128 2.091 . S
Co126 O130 2.004 . S
Co126 O136 2.021 . S
Co126 O138 2.137 . S
Co126 O139 2.244 . S
O127 Co126 2.216 . S
O127 C134 1.247 . S
O128 Co126 2.091 . S
O128 C134 1.261 . S
C129 O138 1.247 . S
C129 O139 1.272 . S
O130 Co126 2.004 . S
O130 C135 1.259 . S
Co131 O132 2.061 . S
Co131 O137 2.052 . S
Co131 O139 2.135 . S
O132 Co131 2.061 . S
O132 C135 1.235 . S
C133 O136 1.238 . S
C133 O137 1.241 . S
C134 O127 1.247 . S
C134 O128 1.261 . S
C135 O130 1.259 . S
C135 O132 1.235 . S
O136 Co126 2.021 . S
O136 C133 1.238 . S
O137 Co131 2.052 . S
O137 C133 1.241 . S
O138 Co126 2.137 . S
O138 C129 1.247 . S
O139 Co126 2.244 . S
O139 C129 1.272 . S
O139 Co131 2.135 . S
Co140 O141 2.216 1_455 S
Co140 O142 2.091 1_455 S
Co140 O144 2.004 . S
Co140 O150 2.021 . S
Co140 O152 2.137 1_455 S
Co140 O153 2.244 . S
O141 Co140 2.216 1_655 S
O141 C148 1.247 . S
O142 Co140 2.091 1_655 S
O142 C148 1.261 . S
C143 O152 1.247 1_455 S
C143 O153 1.272 . S
O144 Co140 2.004 . S
O144 C149 1.259 . S
Co145 O146 2.061 . S
Co145 O151 2.052 . S
Co145 O153 2.135 . S
O146 Co145 2.061 . S
O146 C149 1.235 . S
C147 O150 1.238 . S
C147 O151 1.241 . S
C148 O141 1.247 . S
C148 O142 1.261 . S
C149 O144 1.259 . S
C149 O146 1.235 . S
O150 Co140 2.021 . S
O150 C147 1.238 . S
O151 Co145 2.052 . S
O151 C147 1.241 . S
O152 Co140 2.137 1_655 S
O152 C143 1.247 1_655 S
O153 Co140 2.244 . S
O153 C143 1.272 . S
O153 Co145 2.135 . S
Co154 O155 2.216 1_545 S
Co154 O156 2.091 1_545 S
Co154 O158 2.004 . S
Co154 O164 2.021 . S
Co154 O166 2.137 1_545 S
Co154 O167 2.244 . S
O155 Co154 2.216 1_565 S
O155 C162 1.247 . S
O156 Co154 2.091 1_565 S
O156 C162 1.261 . S
C157 O166 1.247 1_545 S
C157 O167 1.272 . S
O158 Co154 2.004 . S
O158 C163 1.259 . S
Co159 O160 2.061 . S
Co159 O165 2.052 . S
Co159 O167 2.135 . S
O160 Co159 2.061 . S
O160 C163 1.235 . S
C161 O164 1.238 . S
C161 O165 1.241 . S
C162 O155 1.247 . S
C162 O156 1.261 . S
C163 O158 1.259 . S
C163 O160 1.235 . S
O164 Co154 2.021 . S
O164 C161 1.238 . S
O165 Co159 2.052 . S
O165 C161 1.241 . S
O166 Co154 2.137 1_565 S
O166 C157 1.247 1_565 S
O167 Co154 2.244 . S
O167 C157 1.272 . S
O167 Co159 2.135 . S
Co168 O169 2.216 . S
Co168 O170 2.091 . S
Co168 O172 2.004 . S
Co168 O178 2.021 . S
Co168 O180 2.137 . S
Co168 O181 2.244 . S
O169 Co168 2.216 . S
O169 C176 1.247 . S
O170 Co168 2.091 . S
O170 C176 1.261 . S
C171 O180 1.247 . S
C171 O181 1.272 . S
O172 Co168 2.004 . S
O172 C177 1.259 . S
Co173 O174 2.061 . S
Co173 O179 2.052 . S
Co173 O181 2.135 . S
O174 Co173 2.061 . S
O174 C177 1.235 . S
C175 O178 1.238 . S
C175 O179 1.241 . S
C176 O169 1.247 . S
C176 O170 1.261 . S
C177 O172 1.259 . S
C177 O174 1.235 . S
O178 Co168 2.021 . S
O178 C175 1.238 . S
O179 Co173 2.052 . S
O179 C175 1.241 . S
O180 Co168 2.137 . S
O180 C171 1.247 . S
O181 Co168 2.244 . S
O181 C171 1.272 . S
O181 Co173 2.135 . S
Co182 O183 2.216 . S
Co182 O184 2.091 . S
Co182 O186 2.004 . S
Co182 O192 2.021 . S
Co182 O194 2.137 . S
Co182 O195 2.244 . S
O183 Co182 2.216 . S
O183 C190 1.247 . S
O184 Co182 2.091 . S
O184 C190 1.261 . S
C185 O194 1.247 . S
C185 O195 1.272 . S
O186 Co182 2.004 . S
O186 C191 1.259 . S
Co187 O188 2.061 . S
Co187 O193 2.052 . S
Co187 O195 2.135 . S
O188 Co187 2.061 . S
O188 C191 1.235 . S
C189 O192 1.238 . S
C189 O193 1.241 . S
C190 O183 1.247 . S
C190 O184 1.261 . S
C191 O186 1.259 . S
C191 O188 1.235 . S
O192 Co182 2.021 . S
O192 C189 1.238 . S
O193 Co187 2.052 . S
O193 C189 1.241 . S
O194 Co182 2.137 . S
O194 C185 1.247 . S
O195 Co182 2.244 . S
O195 C185 1.272 . S
O195 Co187 2.135 . S
Co196 O197 2.216 1_455 S
Co196 O198 2.091 1_455 S
Co196 O200 2.004 . S
Co196 O206 2.021 . S
Co196 O208 2.137 1_455 S
Co196 O209 2.244 . S
O197 Co196 2.216 1_655 S
O197 C204 1.247 . S
O198 Co196 2.091 1_655 S
O198 C204 1.261 . S
C199 O208 1.247 1_455 S
C199 O209 1.272 . S
O200 Co196 2.004 . S
O200 C205 1.259 . S
Co201 O202 2.061 . S
Co201 O207 2.052 . S
Co201 O209 2.135 . S
O202 Co201 2.061 . S
O202 C205 1.235 . S
C203 O206 1.238 . S
C203 O207 1.241 . S
C204 O197 1.247 . S
C204 O198 1.261 . S
C205 O200 1.259 . S
C205 O202 1.235 . S
O206 Co196 2.021 . S
O206 C203 1.238 . S
O207 Co201 2.052 . S
O207 C203 1.241 . S
O208 Co196 2.137 1_655 S
O208 C199 1.247 1_655 S
O209 Co196 2.244 . S
O209 C199 1.272 . S
O209 Co201 2.135 . S
Co210 O211 2.216 1_545 S
Co210 O212 2.091 1_545 S
Co210 O214 2.004 . S
Co210 O220 2.021 . S
Co210 O222 2.137 1_545 S
Co210 O223 2.244 . S
O211 Co210 2.216 1_565 S
O211 C218 1.247 . S
O212 Co210 2.091 1_565 S
O212 C218 1.261 . S
C213 O222 1.247 1_545 S
C213 O223 1.272 . S
O214 Co210 2.004 . S
O214 C219 1.259 . S
Co215 O216 2.061 . S
Co215 O221 2.052 . S
Co215 O223 2.135 . S
O216 Co215 2.061 . S
O216 C219 1.235 . S
C217 O220 1.238 . S
C217 O221 1.241 . S
C218 O211 1.247 . S
C218 O212 1.261 . S
C219 O214 1.259 . S
C219 O216 1.235 . S
O220 Co210 2.021 . S
O220 C217 1.238 . S
O221 Co215 2.052 . S
O221 C217 1.241 . S
O222 Co210 2.137 1_565 S
O222 C213 1.247 1_565 S
O223 Co210 2.244 . S
O223 C213 1.272 . S
O223 Co215 2.135 . S
C224 C225 1.391 . S
C224 C226 1.394 . S
C224 H240 0.931 . S
C225 C224 1.391 . S
C225 C229 1.376 . S
C226 C224 1.394 . S
C226 C227 1.369 . S
C226 C230 1.531 . S
C227 C226 1.369 . S
C227 C228 1.410 . S
C227 C235 1.503 . S
C228 C227 1.410 . S
C228 C229 1.392 . S
C228 C231 1.511 . S
C229 C225 1.376 . S
C229 C228 1.392 . S
C229 H241 0.929 . S
C230 C226 1.531 . S
C230 H242 0.960 . S
C230 H243 0.962 . S
C230 H244 0.960 . S
C231 C228 1.511 . S
C231 H245 0.961 . S
C231 H246 0.961 . S
C231 H247 0.961 . S
C232 C233 1.370 . S
C232 C234 1.363 . S
C232 H248 0.931 . S
C233 C232 1.370 . S
C233 C237 1.408 . S
C234 C232 1.363 . S
C234 C235 1.370 . S
C234 C238 1.524 . S
C235 C227 1.503 . S
C235 C234 1.370 . S
C235 C236 1.403 . S
C236 C235 1.403 . S
C236 C237 1.404 . S
C236 C239 1.539 . S
C237 C233 1.408 . S
C237 C236 1.404 . S
C237 H249 0.930 . S
C238 C234 1.524 . S
C238 H250 0.956 . S
C238 H251 0.961 . S
C238 H252 0.961 . S
C239 C236 1.539 . S
C239 H253 0.958 . S
C239 H254 0.961 . S
C239 H255 0.960 . S
H240 C224 0.931 . S
H241 C229 0.929 . S
H242 C230 0.960 . S
H243 C230 0.962 . S
H244 C230 0.960 . S
H245 C231 0.961 . S
H246 C231 0.961 . S
H247 C231 0.961 . S
H248 C232 0.931 . S
H249 C237 0.930 . S
H250 C238 0.956 . S
H251 C238 0.961 . S
H252 C238 0.961 . S
H253 C239 0.958 . S
H254 C239 0.961 . S
H255 C239 0.960 . S
C256 C257 1.391 . S
C256 C258 1.394 . S
C256 H272 0.931 . S
C257 C256 1.391 . S
C257 C261 1.376 . S
C258 C256 1.394 . S
C258 C259 1.369 . S
C258 C262 1.531 . S
C259 C258 1.369 . S
C259 C260 1.410 . S
C259 C267 1.503 . S
C260 C259 1.410 . S
C260 C261 1.392 . S
C260 C263 1.511 . S
C261 C257 1.376 . S
C261 C260 1.392 . S
C261 H273 0.929 . S
C262 C258 1.531 . S
C262 H274 0.960 . S
C262 H275 0.962 . S
C262 H276 0.960 . S
C263 C260 1.511 . S
C263 H277 0.961 . S
C263 H278 0.961 . S
C263 H279 0.961 . S
C264 C265 1.370 . S
C264 C266 1.363 . S
C264 H280 0.931 . S
C265 C264 1.370 . S
C265 C269 1.408 . S
C266 C264 1.363 . S
C266 C267 1.370 . S
C266 C270 1.524 . S
C267 C259 1.503 . S
C267 C266 1.370 . S
C267 C268 1.403 . S
C268 C267 1.403 . S
C268 C269 1.404 . S
C268 C271 1.539 . S
C269 C265 1.408 . S
C269 C268 1.404 . S
C269 H281 0.930 . S
C270 C266 1.524 . S
C270 H282 0.956 . S
C270 H283 0.961 . S
C270 H284 0.961 . S
C271 C268 1.539 . S
C271 H285 0.958 . S
C271 H286 0.961 . S
C271 H287 0.960 . S
H272 C256 0.931 . S
H273 C261 0.929 . S
H274 C262 0.960 . S
H275 C262 0.962 . S
H276 C262 0.960 . S
H277 C263 0.961 . S
H278 C263 0.961 . S
H279 C263 0.961 . S
H280 C264 0.931 . S
H281 C269 0.930 . S
H282 C270 0.956 . S
H283 C270 0.961 . S
H284 C270 0.961 . S
H285 C271 0.958 . S
H286 C271 0.961 . S
H287 C271 0.960 . S
C288 C289 1.391 . S
C288 C290 1.394 . S
C288 H304 0.931 . S
C289 C288 1.391 . S
C289 C293 1.376 . S
C290 C288 1.394 . S
C290 C291 1.369 . S
C290 C294 1.531 . S
C291 C290 1.369 . S
C291 C292 1.410 . S
C291 C299 1.503 . S
C292 C291 1.410 . S
C292 C293 1.392 . S
C292 C295 1.511 . S
C293 C289 1.376 . S
C293 C292 1.392 . S
C293 H305 0.929 . S
C294 C290 1.531 . S
C294 H306 0.960 . S
C294 H307 0.962 . S
C294 H308 0.960 . S
C295 C292 1.511 . S
C295 H309 0.961 . S
C295 H310 0.961 . S
C295 H311 0.961 . S
C296 C297 1.370 . S
C296 C298 1.363 . S
C296 H312 0.931 . S
C297 C296 1.370 . S
C297 C301 1.408 . S
C298 C296 1.363 . S
C298 C299 1.370 . S
C298 C302 1.524 . S
C299 C291 1.503 . S
C299 C298 1.370 . S
C299 C300 1.403 . S
C300 C299 1.403 . S
C300 C301 1.404 . S
C300 C303 1.539 . S
C301 C297 1.408 . S
C301 C300 1.404 . S
C301 H313 0.930 . S
C302 C298 1.524 . S
C302 H314 0.956 . S
C302 H315 0.961 . S
C302 H316 0.961 . S
C303 C300 1.539 . S
C303 H317 0.958 . S
C303 H318 0.961 . S
C303 H319 0.960 . S
H304 C288 0.931 . S
H305 C293 0.929 . S
H306 C294 0.960 . S
H307 C294 0.962 . S
H308 C294 0.960 . S
H309 C295 0.961 . S
H310 C295 0.961 . S
H311 C295 0.961 . S
H312 C296 0.931 . S
H313 C301 0.930 . S
H314 C302 0.956 . S
H315 C302 0.961 . S
H316 C302 0.961 . S
H317 C303 0.958 . S
H318 C303 0.961 . S
H319 C303 0.960 . S
C320 C321 1.391 . S
C320 C322 1.394 . S
C320 H336 0.931 . S
C321 C320 1.391 . S
C321 C325 1.376 . S
C322 C320 1.394 . S
C322 C323 1.369 . S
C322 C326 1.531 . S
C323 C322 1.369 . S
C323 C324 1.410 . S
C323 C331 1.503 . S
C324 C323 1.410 . S
C324 C325 1.392 . S
C324 C327 1.511 . S
C325 C321 1.376 . S
C325 C324 1.392 . S
C325 H337 0.929 . S
C326 C322 1.531 . S
C326 H338 0.960 . S
C326 H339 0.962 . S
C326 H340 0.960 . S
C327 C324 1.511 . S
C327 H341 0.961 . S
C327 H342 0.961 . S
C327 H343 0.961 . S
C328 C329 1.370 . S
C328 C330 1.363 . S
C328 H344 0.931 . S
C329 C328 1.370 . S
C329 C333 1.408 . S
C330 C328 1.363 . S
C330 C331 1.370 . S
C330 C334 1.524 . S
C331 C323 1.503 . S
C331 C330 1.370 . S
C331 C332 1.403 . S
C332 C331 1.403 . S
C332 C333 1.404 . S
C332 C335 1.539 . S
C333 C329 1.408 . S
C333 C332 1.404 . S
C333 H345 0.930 . S
C334 C330 1.524 . S
C334 H346 0.956 . S
C334 H347 0.961 . S
C334 H348 0.961 . S
C335 C332 1.539 . S
C335 H349 0.958 . S
C335 H350 0.961 . S
C335 H351 0.960 . S
H336 C320 0.931 . S
H337 C325 0.929 . S
H338 C326 0.960 . S
H339 C326 0.962 . S
H340 C326 0.960 . S
H341 C327 0.961 . S
H342 C327 0.961 . S
H343 C327 0.961 . S
H344 C328 0.931 . S
H345 C333 0.930 . S
H346 C334 0.956 . S
H347 C334 0.961 . S
H348 C334 0.961 . S
H349 C335 0.958 . S
H350 C335 0.961 . S
H351 C335 0.960 . S
C352 C353 1.391 . S
C352 C354 1.394 . S
C352 H368 0.931 . S
C353 C352 1.391 . S
C353 C357 1.376 . S
C354 C352 1.394 . S
C354 C355 1.369 . S
C354 C358 1.531 . S
C355 C354 1.369 . S
C355 C356 1.410 . S
C355 C363 1.503 . S
C356 C355 1.410 . S
C356 C357 1.392 . S
C356 C359 1.511 . S
C357 C353 1.376 . S
C357 C356 1.392 . S
C357 H369 0.929 . S
C358 C354 1.531 . S
C358 H370 0.960 . S
C358 H371 0.962 . S
C358 H372 0.960 . S
C359 C356 1.511 . S
C359 H373 0.961 . S
C359 H374 0.961 . S
C359 H375 0.961 . S
C360 C361 1.370 . S
C360 C362 1.363 . S
C360 H376 0.931 . S
C361 C360 1.370 . S
C361 C365 1.408 . S
C362 C360 1.363 . S
C362 C363 1.370 . S
C362 C366 1.524 . S
C363 C355 1.503 . S
C363 C362 1.370 . S
C363 C364 1.403 . S
C364 C363 1.403 . S
C364 C365 1.404 . S
C364 C367 1.539 . S
C365 C361 1.408 . S
C365 C364 1.404 . S
C365 H377 0.930 . S
C366 C362 1.524 . S
C366 H378 0.956 . S
C366 H379 0.961 . S
C366 H380 0.961 . S
C367 C364 1.539 . S
C367 H381 0.958 . S
C367 H382 0.961 . S
C367 H383 0.960 . S
H368 C352 0.931 . S
H369 C357 0.929 . S
H370 C358 0.960 . S
H371 C358 0.962 . S
H372 C358 0.960 . S
H373 C359 0.961 . S
H374 C359 0.961 . S
H375 C359 0.961 . S
H376 C360 0.931 . S
H377 C365 0.930 . S
H378 C366 0.956 . S
H379 C366 0.961 . S
H380 C366 0.961 . S
H381 C367 0.958 . S
H382 C367 0.961 . S
H383 C367 0.960 . S
C384 C385 1.391 . S
C384 C386 1.394 . S
C384 H400 0.931 . S
C385 C384 1.391 . S
C385 C389 1.376 . S
C386 C384 1.394 . S
C386 C387 1.369 . S
C386 C390 1.531 . S
C387 C386 1.369 . S
C387 C388 1.410 . S
C387 C395 1.503 . S
C388 C387 1.410 . S
C388 C389 1.392 . S
C388 C391 1.511 . S
C389 C385 1.376 . S
C389 C388 1.392 . S
C389 H401 0.929 . S
C390 C386 1.531 . S
C390 H402 0.960 . S
C390 H403 0.962 . S
C390 H404 0.960 . S
C391 C388 1.511 . S
C391 H405 0.961 . S
C391 H406 0.961 . S
C391 H407 0.961 . S
C392 C393 1.370 . S
C392 C394 1.363 . S
C392 H408 0.931 . S
C393 C392 1.370 . S
C393 C397 1.408 . S
C394 C392 1.363 . S
C394 C395 1.370 . S
C394 C398 1.524 . S
C395 C387 1.503 . S
C395 C394 1.370 . S
C395 C396 1.403 . S
C396 C395 1.403 . S
C396 C397 1.404 . S
C396 C399 1.539 . S
C397 C393 1.408 . S
C397 C396 1.404 . S
C397 H409 0.930 . S
C398 C394 1.524 . S
C398 H410 0.956 . S
C398 H411 0.961 . S
C398 H412 0.961 . S
C399 C396 1.539 . S
C399 H413 0.958 . S
C399 H414 0.961 . S
C399 H415 0.960 . S
H400 C384 0.931 . S
H401 C389 0.929 . S
H402 C390 0.960 . S
H403 C390 0.962 . S
H404 C390 0.960 . S
H405 C391 0.961 . S
H406 C391 0.961 . S
H407 C391 0.961 . S
H408 C392 0.931 . S
H409 C397 0.930 . S
H410 C398 0.956 . S
H411 C398 0.961 . S
H412 C398 0.961 . S
H413 C399 0.958 . S
H414 C399 0.961 . S
H415 C399 0.960 . S
C416 C417 1.391 . S
C416 C418 1.394 . S
C416 H432 0.931 . S
C417 C416 1.391 . S
C417 C421 1.376 . S
C418 C416 1.394 . S
C418 C419 1.369 . S
C418 C422 1.531 . S
C419 C418 1.369 . S
C419 C420 1.410 . S
C419 C427 1.503 . S
C420 C419 1.410 . S
C420 C421 1.392 . S
C420 C423 1.511 . S
C421 C417 1.376 . S
C421 C420 1.392 . S
C421 H433 0.929 . S
C422 C418 1.531 . S
C422 H434 0.960 . S
C422 H435 0.962 . S
C422 H436 0.960 . S
C423 C420 1.511 . S
C423 H437 0.961 . S
C423 H438 0.961 . S
C423 H439 0.961 . S
C424 C425 1.370 . S
C424 C426 1.363 . S
C424 H440 0.931 . S
C425 C424 1.370 . S
C425 C429 1.408 . S
C426 C424 1.363 . S
C426 C427 1.370 . S
C426 C430 1.524 . S
C427 C419 1.503 . S
C427 C426 1.370 . S
C427 C428 1.403 . S
C428 C427 1.403 . S
C428 C429 1.404 . S
C428 C431 1.539 . S
C429 C425 1.408 . S
C429 C428 1.404 . S
C429 H441 0.930 . S
C430 C426 1.524 . S
C430 H442 0.956 . S
C430 H443 0.961 . S
C430 H444 0.961 . S
C431 C428 1.539 . S
C431 H445 0.958 . S
C431 H446 0.961 . S
C431 H447 0.960 . S
H432 C416 0.931 . S
H433 C421 0.929 . S
H434 C422 0.960 . S
H435 C422 0.962 . S
H436 C422 0.960 . S
H437 C423 0.961 . S
H438 C423 0.961 . S
H439 C423 0.961 . S
H440 C424 0.931 . S
H441 C429 0.930 . S
H442 C430 0.956 . S
H443 C430 0.961 . S
H444 C430 0.961 . S
H445 C431 0.958 . S
H446 C431 0.961 . S
H447 C431 0.960 . S
C448 C449 1.391 . S
C448 C450 1.394 . S
C448 H464 0.931 . S
C449 C448 1.391 . S
C449 C453 1.376 . S
C450 C448 1.394 . S
C450 C451 1.369 . S
C450 C454 1.531 . S
C451 C450 1.369 . S
C451 C452 1.410 . S
C451 C459 1.503 . S
C452 C451 1.410 . S
C452 C453 1.392 . S
C452 C455 1.511 . S
C453 C449 1.376 . S
C453 C452 1.392 . S
C453 H465 0.929 . S
C454 C450 1.531 . S
C454 H466 0.960 . S
C454 H467 0.962 . S
C454 H468 0.960 . S
C455 C452 1.511 . S
C455 H469 0.961 . S
C455 H470 0.961 . S
C455 H471 0.961 . S
C456 C457 1.370 . S
C456 C458 1.363 . S
C456 H472 0.931 . S
C457 C456 1.370 . S
C457 C461 1.408 . S
C458 C456 1.363 . S
C458 C459 1.370 . S
C458 C462 1.524 . S
C459 C451 1.503 . S
C459 C458 1.370 . S
C459 C460 1.403 . S
C460 C459 1.403 . S
C460 C461 1.404 . S
C460 C463 1.539 . S
C461 C457 1.408 . S
C461 C460 1.404 . S
C461 H473 0.930 . S
C462 C458 1.524 . S
C462 H474 0.956 . S
C462 H475 0.961 . S
C462 H476 0.961 . S
C463 C460 1.539 . S
C463 H477 0.958 . S
C463 H478 0.961 . S
C463 H479 0.960 . S
H464 C448 0.931 . S
H465 C453 0.929 . S
H466 C454 0.960 . S
H467 C454 0.962 . S
H468 C454 0.960 . S
H469 C455 0.961 . S
H470 C455 0.961 . S
H471 C455 0.961 . S
H472 C456 0.931 . S
H473 C461 0.930 . S
H474 C462 0.956 . S
H475 C462 0.961 . S
H476 C462 0.961 . S
H477 C463 0.958 . S
H478 C463 0.961 . S
H479 C463 0.960 . S
C480 C481 1.391 . S
C480 C482 1.394 . S
C480 H496 0.931 . S
C481 C480 1.391 . S
C481 C485 1.376 . S
C482 C480 1.394 . S
C482 C483 1.369 . S
C482 C486 1.531 . S
C483 C482 1.369 . S
C483 C484 1.410 . S
C483 C491 1.503 . S
C484 C483 1.410 . S
C484 C485 1.392 . S
C484 C487 1.511 . S
C485 C481 1.376 . S
C485 C484 1.392 . S
C485 H497 0.929 . S
C486 C482 1.531 . S
C486 H498 0.960 . S
C486 H499 0.962 . S
C486 H500 0.960 . S
C487 C484 1.511 . S
C487 H501 0.961 . S
C487 H502 0.961 . S
C487 H503 0.961 . S
C488 C489 1.370 . S
C488 C490 1.363 . S
C488 H504 0.931 . S
C489 C488 1.370 . S
C489 C493 1.408 . S
C490 C488 1.363 . S
C490 C491 1.370 . S
C490 C494 1.524 . S
C491 C483 1.503 . S
C491 C490 1.370 . S
C491 C492 1.403 . S
C492 C491 1.403 . S
C492 C493 1.404 . S
C492 C495 1.539 . S
C493 C489 1.408 . S
C493 C492 1.404 . S
C493 H505 0.930 . S
C494 C490 1.524 . S
C494 H506 0.956 . S
C494 H507 0.961 . S
C494 H508 0.961 . S
C495 C492 1.539 . S
C495 H509 0.958 . S
C495 H510 0.961 . S
C495 H511 0.960 . S
H496 C480 0.931 . S
H497 C485 0.929 . S
H498 C486 0.960 . S
H499 C486 0.962 . S
H500 C486 0.960 . S
H501 C487 0.961 . S
H502 C487 0.961 . S
H503 C487 0.961 . S
H504 C488 0.931 . S
H505 C493 0.930 . S
H506 C494 0.956 . S
H507 C494 0.961 . S
H508 C494 0.961 . S
H509 C495 0.958 . S
H510 C495 0.961 . S
H511 C495 0.960 . S
C512 C513 1.391 . S
C512 C514 1.394 . S
C512 H528 0.931 . S
C513 C512 1.391 . S
C513 C517 1.376 . S
C514 C512 1.394 . S
C514 C515 1.369 . S
C514 C518 1.531 . S
C515 C514 1.369 . S
C515 C516 1.410 . S
C515 C523 1.503 . S
C516 C515 1.410 . S
C516 C517 1.392 . S
C516 C519 1.511 . S
C517 C513 1.376 . S
C517 C516 1.392 . S
C517 H529 0.929 . S
C518 C514 1.531 . S
C518 H530 0.960 . S
C518 H531 0.962 . S
C518 H532 0.960 . S
C519 C516 1.511 . S
C519 H533 0.961 . S
C519 H534 0.961 . S
C519 H535 0.961 . S
C520 C521 1.370 . S
C520 C522 1.363 . S
C520 H536 0.931 . S
C521 C520 1.370 . S
C521 C525 1.408 . S
C522 C520 1.363 . S
C522 C523 1.370 . S
C522 C526 1.524 . S
C523 C515 1.503 . S
C523 C522 1.370 . S
C523 C524 1.403 . S
C524 C523 1.403 . S
C524 C525 1.404 . S
C524 C527 1.539 . S
C525 C521 1.408 . S
C525 C524 1.404 . S
C525 H537 0.930 . S
C526 C522 1.524 . S
C526 H538 0.956 . S
C526 H539 0.961 . S
C526 H540 0.961 . S
C527 C524 1.539 . S
C527 H541 0.958 . S
C527 H542 0.961 . S
C527 H543 0.960 . S
H528 C512 0.931 . S
H529 C517 0.929 . S
H530 C518 0.960 . S
H531 C518 0.962 . S
H532 C518 0.960 . S
H533 C519 0.961 . S
H534 C519 0.961 . S
H535 C519 0.961 . S
H536 C520 0.931 . S
H537 C525 0.930 . S
H538 C526 0.956 . S
H539 C526 0.961 . S
H540 C526 0.961 . S
H541 C527 0.958 . S
H542 C527 0.961 . S
H543 C527 0.960 . S
C544 C545 1.391 . S
C544 C546 1.394 . S
C544 H560 0.931 . S
C545 C544 1.391 . S
C545 C549 1.376 . S
C546 C544 1.394 . S
C546 C547 1.369 . S
C546 C550 1.531 . S
C547 C546 1.369 . S
C547 C548 1.410 . S
C547 C555 1.503 . S
C548 C547 1.410 . S
C548 C549 1.392 . S
C548 C551 1.511 . S
C549 C545 1.376 . S
C549 C548 1.392 . S
C549 H561 0.929 . S
C550 C546 1.531 . S
C550 H562 0.960 . S
C550 H563 0.962 . S
C550 H564 0.960 . S
C551 C548 1.511 . S
C551 H565 0.961 . S
C551 H566 0.961 . S
C551 H567 0.961 . S
C552 C553 1.370 . S
C552 C554 1.363 . S
C552 H568 0.931 . S
C553 C552 1.370 . S
C553 C557 1.408 . S
C554 C552 1.363 . S
C554 C555 1.370 . S
C554 C558 1.524 . S
C555 C547 1.503 . S
C555 C554 1.370 . S
C555 C556 1.403 . S
C556 C555 1.403 . S
C556 C557 1.404 . S
C556 C559 1.539 . S
C557 C553 1.408 . S
C557 C556 1.404 . S
C557 H569 0.930 . S
C558 C554 1.524 . S
C558 H570 0.956 . S
C558 H571 0.961 . S
C558 H572 0.961 . S
C559 C556 1.539 . S
C559 H573 0.958 . S
C559 H574 0.961 . S
C559 H575 0.960 . S
H560 C544 0.931 . S
H561 C549 0.929 . S
H562 C550 0.960 . S
H563 C550 0.962 . S
H564 C550 0.960 . S
H565 C551 0.961 . S
H566 C551 0.961 . S
H567 C551 0.961 . S
H568 C552 0.931 . S
H569 C557 0.930 . S
H570 C558 0.956 . S
H571 C558 0.961 . S
H572 C558 0.961 . S
H573 C559 0.958 . S
H574 C559 0.961 . S
H575 C559 0.960 . S
C576 C577 1.391 . S
C576 C578 1.394 . S
C576 H592 0.931 . S
C577 C576 1.391 . S
C577 C581 1.376 . S
C578 C576 1.394 . S
C578 C579 1.369 . S
C578 C582 1.531 . S
C579 C578 1.369 . S
C579 C580 1.410 . S
C579 C587 1.503 . S
C580 C579 1.410 . S
C580 C581 1.392 . S
C580 C583 1.511 . S
C581 C577 1.376 . S
C581 C580 1.392 . S
C581 H593 0.929 . S
C582 C578 1.531 . S
C582 H594 0.960 . S
C582 H595 0.962 . S
C582 H596 0.960 . S
C583 C580 1.511 . S
C583 H597 0.961 . S
C583 H598 0.961 . S
C583 H599 0.961 . S
C584 C585 1.370 . S
C584 C586 1.363 . S
C584 H600 0.931 . S
C585 C584 1.370 . S
C585 C589 1.408 . S
C586 C584 1.363 . S
C586 C587 1.370 . S
C586 C590 1.524 . S
C587 C579 1.503 . S
C587 C586 1.370 . S
C587 C588 1.403 . S
C588 C587 1.403 . S
C588 C589 1.404 . S
C588 C591 1.539 . S
C589 C585 1.408 . S
C589 C588 1.404 . S
C589 H601 0.930 . S
C590 C586 1.524 . S
C590 H602 0.956 . S
C590 H603 0.961 . S
C590 H604 0.961 . S
C591 C588 1.539 . S
C591 H605 0.958 . S
C591 H606 0.961 . S
C591 H607 0.960 . S
H592 C576 0.931 . S
H593 C581 0.929 . S
H594 C582 0.960 . S
H595 C582 0.962 . S
H596 C582 0.960 . S
H597 C583 0.961 . S
H598 C583 0.961 . S
H599 C583 0.961 . S
H600 C584 0.931 . S
H601 C589 0.930 . S
H602 C590 0.956 . S
H603 C590 0.961 . S
H604 C590 0.961 . S
H605 C591 0.958 . S
H606 C591 0.961 . S
H607 C591 0.960 . S
C608 C609 1.391 . S
C608 C610 1.394 . S
C608 H624 0.931 . S
C609 C608 1.391 . S
C609 C613 1.376 . S
C610 C608 1.394 . S
C610 C611 1.369 . S
C610 C614 1.531 . S
C611 C610 1.369 . S
C611 C612 1.410 . S
C611 C619 1.503 . S
C612 C611 1.410 . S
C612 C613 1.392 . S
C612 C615 1.511 . S
C613 C609 1.376 . S
C613 C612 1.392 . S
C613 H625 0.929 . S
C614 C610 1.531 . S
C614 H626 0.960 . S
C614 H627 0.962 . S
C614 H628 0.960 . S
C615 C612 1.511 . S
C615 H629 0.961 . S
C615 H630 0.961 . S
C615 H631 0.961 . S
C616 C617 1.370 . S
C616 C618 1.363 . S
C616 H632 0.931 . S
C617 C616 1.370 . S
C617 C621 1.408 . S
C618 C616 1.363 . S
C618 C619 1.370 . S
C618 C622 1.524 . S
C619 C611 1.503 . S
C619 C618 1.370 . S
C619 C620 1.403 . S
C620 C619 1.403 . S
C620 C621 1.404 . S
C620 C623 1.539 . S
C621 C617 1.408 . S
C621 C620 1.404 . S
C621 H633 0.930 . S
C622 C618 1.524 . S
C622 H634 0.956 . S
C622 H635 0.961 . S
C622 H636 0.961 . S
C623 C620 1.539 . S
C623 H637 0.958 . S
C623 H638 0.961 . S
C623 H639 0.960 . S
H624 C608 0.931 . S
H625 C613 0.929 . S
H626 C614 0.960 . S
H627 C614 0.962 . S
H628 C614 0.960 . S
H629 C615 0.961 . S
H630 C615 0.961 . S
H631 C615 0.961 . S
H632 C616 0.931 . S
H633 C621 0.930 . S
H634 C622 0.956 . S
H635 C622 0.961 . S
H636 C622 0.961 . S
H637 C623 0.958 . S
H638 C623 0.961 . S
H639 C623 0.960 . S
C640 C641 1.391 . S
C640 C642 1.394 . S
C640 H656 0.931 . S
C641 C640 1.391 . S
C641 C645 1.376 . S
C642 C640 1.394 . S
C642 C643 1.369 . S
C642 C646 1.531 . S
C643 C642 1.369 . S
C643 C644 1.410 . S
C643 C651 1.503 . S
C644 C643 1.410 . S
C644 C645 1.392 . S
C644 C647 1.511 . S
C645 C641 1.376 . S
C645 C644 1.392 . S
C645 H657 0.929 . S
C646 C642 1.531 . S
C646 H658 0.960 . S
C646 H659 0.962 . S
C646 H660 0.960 . S
C647 C644 1.511 . S
C647 H661 0.961 . S
C647 H662 0.961 . S
C647 H663 0.961 . S
C648 C649 1.370 . S
C648 C650 1.363 . S
C648 H664 0.931 . S
C649 C648 1.370 . S
C649 C653 1.408 . S
C650 C648 1.363 . S
C650 C651 1.370 . S
C650 C654 1.524 . S
C651 C643 1.503 . S
C651 C650 1.370 . S
C651 C652 1.403 . S
C652 C651 1.403 . S
C652 C653 1.404 . S
C652 C655 1.539 . S
C653 C649 1.408 . S
C653 C652 1.404 . S
C653 H665 0.930 . S
C654 C650 1.524 . S
C654 H666 0.956 . S
C654 H667 0.961 . S
C654 H668 0.961 . S
C655 C652 1.539 . S
C655 H669 0.958 . S
C655 H670 0.961 . S
C655 H671 0.960 . S
H656 C640 0.931 . S
H657 C645 0.929 . S
H658 C646 0.960 . S
H659 C646 0.962 . S
H660 C646 0.960 . S
H661 C647 0.961 . S
H662 C647 0.961 . S
H663 C647 0.961 . S
H664 C648 0.931 . S
H665 C653 0.930 . S
H666 C654 0.956 . S
H667 C654 0.961 . S
H668 C654 0.961 . S
H669 C655 0.958 . S
H670 C655 0.961 . S
H671 C655 0.960 . S
C672 C673 1.391 . S
C672 C674 1.394 . S
C672 H688 0.931 . S
C673 C672 1.391 . S
C673 C677 1.376 . S
C674 C672 1.394 . S
C674 C675 1.369 . S
C674 C678 1.531 . S
C675 C674 1.369 . S
C675 C676 1.410 . S
C675 C683 1.503 . S
C676 C675 1.410 . S
C676 C677 1.392 . S
C676 C679 1.511 . S
C677 C673 1.376 . S
C677 C676 1.392 . S
C677 H689 0.929 . S
C678 C674 1.531 . S
C678 H690 0.960 . S
C678 H691 0.962 . S
C678 H692 0.960 . S
C679 C676 1.511 . S
C679 H693 0.961 . S
C679 H694 0.961 . S
C679 H695 0.961 . S
C680 C681 1.370 . S
C680 C682 1.363 . S
C680 H696 0.931 . S
C681 C680 1.370 . S
C681 C685 1.408 . S
C682 C680 1.363 . S
C682 C683 1.370 . S
C682 C686 1.524 . S
C683 C675 1.503 . S
C683 C682 1.370 . S
C683 C684 1.403 . S
C684 C683 1.403 . S
C684 C685 1.404 . S
C684 C687 1.539 . S
C685 C681 1.408 . S
C685 C684 1.404 . S
C685 H697 0.930 . S
C686 C682 1.524 . S
C686 H698 0.956 . S
C686 H699 0.961 . S
C686 H700 0.961 . S
C687 C684 1.539 . S
C687 H701 0.958 . S
C687 H702 0.961 . S
C687 H703 0.960 . S
H688 C672 0.931 . S
H689 C677 0.929 . S
H690 C678 0.960 . S
H691 C678 0.962 . S
H692 C678 0.960 . S
H693 C679 0.961 . S
H694 C679 0.961 . S
H695 C679 0.961 . S
H696 C680 0.931 . S
H697 C685 0.930 . S
H698 C686 0.956 . S
H699 C686 0.961 . S
H700 C686 0.961 . S
H701 C687 0.958 . S
H702 C687 0.961 . S
H703 C687 0.960 . S
C704 C705 1.391 . S
C704 C706 1.394 . S
C704 H720 0.931 . S
C705 C704 1.391 . S
C705 C709 1.376 . S
C706 C704 1.394 . S
C706 C707 1.369 . S
C706 C710 1.531 . S
C707 C706 1.369 . S
C707 C708 1.410 . S
C707 C715 1.503 . S
C708 C707 1.410 . S
C708 C709 1.392 . S
C708 C711 1.511 . S
C709 C705 1.376 . S
C709 C708 1.392 . S
C709 H721 0.929 . S
C710 C706 1.531 . S
C710 H722 0.960 . S
C710 H723 0.962 . S
C710 H724 0.960 . S
C711 C708 1.511 . S
C711 H725 0.961 . S
C711 H726 0.961 . S
C711 H727 0.961 . S
C712 C713 1.370 . S
C712 C714 1.363 . S
C712 H728 0.931 . S
C713 C712 1.370 . S
C713 C717 1.408 . S
C714 C712 1.363 . S
C714 C715 1.370 . S
C714 C718 1.524 . S
C715 C707 1.503 . S
C715 C714 1.370 . S
C715 C716 1.403 . S
C716 C715 1.403 . S
C716 C717 1.404 . S
C716 C719 1.539 . S
C717 C713 1.408 . S
C717 C716 1.404 . S
C717 H729 0.930 . S
C718 C714 1.524 . S
C718 H730 0.956 . S
C718 H731 0.961 . S
C718 H732 0.961 . S
C719 C716 1.539 . S
C719 H733 0.958 . S
C719 H734 0.961 . S
C719 H735 0.960 . S
H720 C704 0.931 . S
H721 C709 0.929 . S
H722 C710 0.960 . S
H723 C710 0.962 . S
H724 C710 0.960 . S
H725 C711 0.961 . S
H726 C711 0.961 . S
H727 C711 0.961 . S
H728 C712 0.931 . S
H729 C717 0.930 . S
H730 C718 0.956 . S
H731 C718 0.961 . S
H732 C718 0.961 . S
H733 C719 0.958 . S
H734 C719 0.961 . S
H735 C719 0.960 . S
C736 C737 1.391 . S
C736 C738 1.394 . S
C736 H752 0.931 . S
C737 C736 1.391 . S
C737 C741 1.376 . S
C738 C736 1.394 . S
C738 C739 1.369 . S
C738 C742 1.531 . S
C739 C738 1.369 . S
C739 C740 1.410 . S
C739 C747 1.503 . S
C740 C739 1.410 . S
C740 C741 1.392 . S
C740 C743 1.511 . S
C741 C737 1.376 . S
C741 C740 1.392 . S
C741 H753 0.929 . S
C742 C738 1.531 . S
C742 H754 0.960 . S
C742 H755 0.962 . S
C742 H756 0.960 . S
C743 C740 1.511 . S
C743 H757 0.961 . S
C743 H758 0.961 . S
C743 H759 0.961 . S
C744 C745 1.370 . S
C744 C746 1.363 . S
C744 H760 0.931 . S
C745 C744 1.370 . S
C745 C749 1.408 . S
C746 C744 1.363 . S
C746 C747 1.370 . S
C746 C750 1.524 . S
C747 C739 1.503 . S
C747 C746 1.370 . S
C747 C748 1.403 . S
C748 C747 1.403 . S
C748 C749 1.404 . S
C748 C751 1.539 . S
C749 C745 1.408 . S
C749 C748 1.404 . S
C749 H761 0.930 . S
C750 C746 1.524 . S
C750 H762 0.956 . S
C750 H763 0.961 . S
C750 H764 0.961 . S
C751 C748 1.539 . S
C751 H765 0.958 . S
C751 H766 0.961 . S
C751 H767 0.960 . S
H752 C736 0.931 . S
H753 C741 0.929 . S
H754 C742 0.960 . S
H755 C742 0.962 . S
H756 C742 0.960 . S
H757 C743 0.961 . S
H758 C743 0.961 . S
H759 C743 0.961 . S
H760 C744 0.931 . S
H761 C749 0.930 . S
H762 C750 0.956 . S
H763 C750 0.961 . S
H764 C750 0.961 . S
H765 C751 0.958 . S
H766 C751 0.961 . S
H767 C751 0.960 . S
C768 C769 1.391 . S
C768 C770 1.394 . S
C768 H784 0.931 . S
C769 C768 1.391 . S
C769 C773 1.376 . S
C770 C768 1.394 . S
C770 C771 1.369 . S
C770 C774 1.531 . S
C771 C770 1.369 . S
C771 C772 1.410 . S
C771 C779 1.503 . S
C772 C771 1.410 . S
C772 C773 1.392 . S
C772 C775 1.511 . S
C773 C769 1.376 . S
C773 C772 1.392 . S
C773 H785 0.929 . S
C774 C770 1.531 . S
C774 H786 0.960 . S
C774 H787 0.962 . S
C774 H788 0.960 . S
C775 C772 1.511 . S
C775 H789 0.961 . S
C775 H790 0.961 . S
C775 H791 0.961 . S
C776 C777 1.370 . S
C776 C778 1.363 . S
C776 H792 0.931 . S
C777 C776 1.370 . S
C777 C781 1.408 . S
C778 C776 1.363 . S
C778 C779 1.370 . S
C778 C782 1.524 . S
C779 C771 1.503 . S
C779 C778 1.370 . S
C779 C780 1.403 . S
C780 C779 1.403 . S
C780 C781 1.404 . S
C780 C783 1.539 . S
C781 C777 1.408 . S
C781 C780 1.404 . S
C781 H793 0.930 . S
C782 C778 1.524 . S
C782 H794 0.956 . S
C782 H795 0.961 . S
C782 H796 0.961 . S
C783 C780 1.539 . S
C783 H797 0.958 . S
C783 H798 0.961 . S
C783 H799 0.960 . S
H784 C768 0.931 . S
H785 C773 0.929 . S
H786 C774 0.960 . S
H787 C774 0.962 . S
H788 C774 0.960 . S
H789 C775 0.961 . S
H790 C775 0.961 . S
H791 C775 0.961 . S
H792 C776 0.931 . S
H793 C781 0.930 . S
H794 C782 0.956 . S
H795 C782 0.961 . S
H796 C782 0.961 . S
H797 C783 0.958 . S
H798 C783 0.961 . S
H799 C783 0.960 . S
C800 C801 1.391 . S
C800 C802 1.394 . S
C800 H816 0.931 . S
C801 C800 1.391 . S
C801 C805 1.376 . S
C802 C800 1.394 . S
C802 C803 1.369 . S
C802 C806 1.531 . S
C803 C802 1.369 . S
C803 C804 1.410 . S
C803 C811 1.503 . S
C804 C803 1.410 . S
C804 C805 1.392 . S
C804 C807 1.511 . S
C805 C801 1.376 . S
C805 C804 1.392 . S
C805 H817 0.929 . S
C806 C802 1.531 . S
C806 H818 0.960 . S
C806 H819 0.962 . S
C806 H820 0.960 . S
C807 C804 1.511 . S
C807 H821 0.961 . S
C807 H822 0.961 . S
C807 H823 0.961 . S
C808 C809 1.370 . S
C808 C810 1.363 . S
C808 H824 0.931 . S
C809 C808 1.370 . S
C809 C813 1.408 . S
C810 C808 1.363 . S
C810 C811 1.370 . S
C810 C814 1.524 . S
C811 C803 1.503 . S
C811 C810 1.370 . S
C811 C812 1.403 . S
C812 C811 1.403 . S
C812 C813 1.404 . S
C812 C815 1.539 . S
C813 C809 1.408 . S
C813 C812 1.404 . S
C813 H825 0.930 . S
C814 C810 1.524 . S
C814 H826 0.956 . S
C814 H827 0.961 . S
C814 H828 0.961 . S
C815 C812 1.539 . S
C815 H829 0.958 . S
C815 H830 0.961 . S
C815 H831 0.960 . S
H816 C800 0.931 . S
H817 C805 0.929 . S
H818 C806 0.960 . S
H819 C806 0.962 . S
H820 C806 0.960 . S
H821 C807 0.961 . S
H822 C807 0.961 . S
H823 C807 0.961 . S
H824 C808 0.931 . S
H825 C813 0.930 . S
H826 C814 0.956 . S
H827 C814 0.961 . S
H828 C814 0.961 . S
H829 C815 0.958 . S
H830 C815 0.961 . S
H831 C815 0.960 . S
C832 C833 1.391 . S
C832 C834 1.394 . S
C832 H848 0.931 . S
C833 C832 1.391 . S
C833 C837 1.376 . S
C834 C832 1.394 . S
C834 C835 1.369 . S
C834 C838 1.531 . S
C835 C834 1.369 . S
C835 C836 1.410 . S
C835 C843 1.503 . S
C836 C835 1.410 . S
C836 C837 1.392 . S
C836 C839 1.511 . S
C837 C833 1.376 . S
C837 C836 1.392 . S
C837 H849 0.929 . S
C838 C834 1.531 . S
C838 H850 0.960 . S
C838 H851 0.962 . S
C838 H852 0.960 . S
C839 C836 1.511 . S
C839 H853 0.961 . S
C839 H854 0.961 . S
C839 H855 0.961 . S
C840 C841 1.370 . S
C840 C842 1.363 . S
C840 H856 0.931 . S
C841 C840 1.370 . S
C841 C845 1.408 . S
C842 C840 1.363 . S
C842 C843 1.370 . S
C842 C846 1.524 . S
C843 C835 1.503 . S
C843 C842 1.370 . S
C843 C844 1.403 . S
C844 C843 1.403 . S
C844 C845 1.404 . S
C844 C847 1.539 . S
C845 C841 1.408 . S
C845 C844 1.404 . S
C845 H857 0.930 . S
C846 C842 1.524 . S
C846 H858 0.956 . S
C846 H859 0.961 . S
C846 H860 0.961 . S
C847 C844 1.539 . S
C847 H861 0.958 . S
C847 H862 0.961 . S
C847 H863 0.960 . S
H848 C832 0.931 . S
H849 C837 0.929 . S
H850 C838 0.960 . S
H851 C838 0.962 . S
H852 C838 0.960 . S
H853 C839 0.961 . S
H854 C839 0.961 . S
H855 C839 0.961 . S
H856 C840 0.931 . S
H857 C845 0.930 . S
H858 C846 0.956 . S
H859 C846 0.961 . S
H860 C846 0.961 . S
H861 C847 0.958 . S
H862 C847 0.961 . S
H863 C847 0.960 . S
C864 C865 1.391 . S
C864 C866 1.394 . S
C864 H880 0.931 . S
C865 C864 1.391 . S
C865 C869 1.376 . S
C866 C864 1.394 . S
C866 C867 1.369 . S
C866 C870 1.531 . S
C867 C866 1.369 . S
C867 C868 1.410 . S
C867 C875 1.503 . S
C868 C867 1.410 . S
C868 C869 1.392 . S
C868 C871 1.511 . S
C869 C865 1.376 . S
C869 C868 1.392 . S
C869 H881 0.929 . S
C870 C866 1.531 . S
C870 H882 0.960 . S
C870 H883 0.962 . S
C870 H884 0.960 . S
C871 C868 1.511 . S
C871 H885 0.961 . S
C871 H886 0.961 . S
C871 H887 0.961 . S
C872 C873 1.370 . S
C872 C874 1.363 . S
C872 H888 0.931 . S
C873 C872 1.370 . S
C873 C877 1.408 . S
C874 C872 1.363 . S
C874 C875 1.370 . S
C874 C878 1.524 . S
C875 C867 1.503 . S
C875 C874 1.370 . S
C875 C876 1.403 . S
C876 C875 1.403 . S
C876 C877 1.404 . S
C876 C879 1.539 . S
C877 C873 1.408 . S
C877 C876 1.404 . S
C877 H889 0.930 . S
C878 C874 1.524 . S
C878 H890 0.956 . S
C878 H891 0.961 . S
C878 H892 0.961 . S
C879 C876 1.539 . S
C879 H893 0.958 . S
C879 H894 0.961 . S
C879 H895 0.960 . S
H880 C864 0.931 . S
H881 C869 0.929 . S
H882 C870 0.960 . S
H883 C870 0.962 . S
H884 C870 0.960 . S
H885 C871 0.961 . S
H886 C871 0.961 . S
H887 C871 0.961 . S
H888 C872 0.931 . S
H889 C877 0.930 . S
H890 C878 0.956 . S
H891 C878 0.961 . S
H892 C878 0.961 . S
H893 C879 0.958 . S
H894 C879 0.961 . S
H895 C879 0.960 . S
C896 C897 1.391 . S
C896 C898 1.394 . S
C896 H912 0.931 . S
C897 C896 1.391 . S
C897 C901 1.376 . S
C898 C896 1.394 . S
C898 C899 1.369 . S
C898 C902 1.531 . S
C899 C898 1.369 . S
C899 C900 1.410 . S
C899 C907 1.503 . S
C900 C899 1.410 . S
C900 C901 1.392 . S
C900 C903 1.511 . S
C901 C897 1.376 . S
C901 C900 1.392 . S
C901 H913 0.929 . S
C902 C898 1.531 . S
C902 H914 0.960 . S
C902 H915 0.962 . S
C902 H916 0.960 . S
C903 C900 1.511 . S
C903 H917 0.961 . S
C903 H918 0.961 . S
C903 H919 0.961 . S
C904 C905 1.370 . S
C904 C906 1.363 . S
C904 H920 0.931 . S
C905 C904 1.370 . S
C905 C909 1.408 . S
C906 C904 1.363 . S
C906 C907 1.370 . S
C906 C910 1.524 . S
C907 C899 1.503 . S
C907 C906 1.370 . S
C907 C908 1.403 . S
C908 C907 1.403 . S
C908 C909 1.404 . S
C908 C911 1.539 . S
C909 C905 1.408 . S
C909 C908 1.404 . S
C909 H921 0.930 . S
C910 C906 1.524 . S
C910 H922 0.956 . S
C910 H923 0.961 . S
C910 H924 0.961 . S
C911 C908 1.539 . S
C911 H925 0.958 . S
C911 H926 0.961 . S
C911 H927 0.960 . S
H912 C896 0.931 . S
H913 C901 0.929 . S
H914 C902 0.960 . S
H915 C902 0.962 . S
H916 C902 0.960 . S
H917 C903 0.961 . S
H918 C903 0.961 . S
H919 C903 0.961 . S
H920 C904 0.931 . S
H921 C909 0.930 . S
H922 C910 0.956 . S
H923 C910 0.961 . S
H924 C910 0.961 . S
H925 C911 0.958 . S
H926 C911 0.961 . S
H927 C911 0.960 . S
C928 C929 1.391 . S
C928 C930 1.394 . S
C928 H944 0.931 . S
C929 C928 1.391 . S
C929 C933 1.376 . S
C930 C928 1.394 . S
C930 C931 1.369 . S
C930 C934 1.531 . S
C931 C930 1.369 . S
C931 C932 1.410 . S
C931 C939 1.503 . S
C932 C931 1.410 . S
C932 C933 1.392 . S
C932 C935 1.511 . S
C933 C929 1.376 . S
C933 C932 1.392 . S
C933 H945 0.929 . S
C934 C930 1.531 . S
C934 H946 0.960 . S
C934 H947 0.962 . S
C934 H948 0.960 . S
C935 C932 1.511 . S
C935 H949 0.961 . S
C935 H950 0.961 . S
C935 H951 0.961 . S
C936 C937 1.370 . S
C936 C938 1.363 . S
C936 H952 0.931 . S
C937 C936 1.370 . S
C937 C941 1.408 . S
C938 C936 1.363 . S
C938 C939 1.370 . S
C938 C942 1.524 . S
C939 C931 1.503 . S
C939 C938 1.370 . S
C939 C940 1.403 . S
C940 C939 1.403 . S
C940 C941 1.404 . S
C940 C943 1.539 . S
C941 C937 1.408 . S
C941 C940 1.404 . S
C941 H953 0.930 . S
C942 C938 1.524 . S
C942 H954 0.956 . S
C942 H955 0.961 . S
C942 H956 0.961 . S
C943 C940 1.539 . S
C943 H957 0.958 . S
C943 H958 0.961 . S
C943 H959 0.960 . S
H944 C928 0.931 . S
H945 C933 0.929 . S
H946 C934 0.960 . S
H947 C934 0.962 . S
H948 C934 0.960 . S
H949 C935 0.961 . S
H950 C935 0.961 . S
H951 C935 0.961 . S
H952 C936 0.931 . S
H953 C941 0.930 . S
H954 C942 0.956 . S
H955 C942 0.961 . S
H956 C942 0.961 . S
H957 C943 0.958 . S
H958 C943 0.961 . S
H959 C943 0.960 . S
C960 C961 1.391 . S
C960 C962 1.394 . S
C960 H976 0.931 . S
C961 C960 1.391 . S
C961 C965 1.376 . S
C962 C960 1.394 . S
C962 C963 1.369 . S
C962 C966 1.531 . S
C963 C962 1.369 . S
C963 C964 1.410 . S
C963 C971 1.503 . S
C964 C963 1.410 . S
C964 C965 1.392 . S
C964 C967 1.511 . S
C965 C961 1.376 . S
C965 C964 1.392 . S
C965 H977 0.929 . S
C966 C962 1.531 . S
C966 H978 0.960 . S
C966 H979 0.962 . S
C966 H980 0.960 . S
C967 C964 1.511 . S
C967 H981 0.961 . S
C967 H982 0.961 . S
C967 H983 0.961 . S
C968 C969 1.370 . S
C968 C970 1.363 . S
C968 H984 0.931 . S
C969 C968 1.370 . S
C969 C973 1.408 . S
C970 C968 1.363 . S
C970 C971 1.370 . S
C970 C974 1.524 . S
C971 C963 1.503 . S
C971 C970 1.370 . S
C971 C972 1.403 . S
C972 C971 1.403 . S
C972 C973 1.404 . S
C972 C975 1.539 . S
C973 C969 1.408 . S
C973 C972 1.404 . S
C973 H985 0.930 . S
C974 C970 1.524 . S
C974 H986 0.956 . S
C974 H987 0.961 . S
C974 H988 0.961 . S
C975 C972 1.539 . S
C975 H989 0.958 . S
C975 H990 0.961 . S
C975 H991 0.960 . S
H976 C960 0.931 . S
H977 C965 0.929 . S
H978 C966 0.960 . S
H979 C966 0.962 . S
H980 C966 0.960 . S
H981 C967 0.961 . S
H982 C967 0.961 . S
H983 C967 0.961 . S
H984 C968 0.931 . S
H985 C973 0.930 . S
H986 C974 0.956 . S
H987 C974 0.961 . S
H988 C974 0.961 . S
H989 C975 0.958 . S
H990 C975 0.961 . S
H991 C975 0.960 . S
C992 C993 1.391 . S
C992 C994 1.394 . S
C992 H1008 0.931 . S
C993 C992 1.391 . S
C993 C997 1.376 . S
C994 C992 1.394 . S
C994 C995 1.369 . S
C994 C998 1.531 . S
C995 C994 1.369 . S
C995 C996 1.410 . S
C995 C1003 1.503 1_554 S
C996 C995 1.410 . S
C996 C997 1.392 . S
C996 C999 1.511 . S
C997 C993 1.376 . S
C997 C996 1.392 . S
C997 H1009 0.929 . S
C998 C994 1.531 . S
C998 H1010 0.960 . S
C998 H1011 0.962 . S
C998 H1012 0.960 . S
C999 C996 1.511 . S
C999 H1013 0.961 . S
C999 H1014 0.961 1_554 S
C999 H1015 0.961 . S
C1000 C1001 1.370 . S
C1000 C1002 1.363 . S
C1000 H1016 0.931 . S
C1001 C1000 1.370 . S
C1001 C1005 1.408 . S
C1002 C1000 1.363 . S
C1002 C1003 1.370 . S
C1002 C1006 1.524 . S
C1003 C995 1.503 1_556 S
C1003 C1002 1.370 . S
C1003 C1004 1.403 . S
C1004 C1003 1.403 . S
C1004 C1005 1.404 . S
C1004 C1007 1.539 . S
C1005 C1001 1.408 . S
C1005 C1004 1.404 . S
C1005 H1017 0.930 . S
C1006 C1002 1.524 . S
C1006 H1018 0.956 . S
C1006 H1019 0.961 . S
C1006 H1020 0.961 . S
C1007 C1004 1.539 . S
C1007 H1021 0.958 . S
C1007 H1022 0.961 . S
C1007 H1023 0.960 1_556 S
H1008 C992 0.931 . S
H1009 C997 0.929 . S
H1010 C998 0.960 . S
H1011 C998 0.962 . S
H1012 C998 0.960 . S
H1013 C999 0.961 . S
H1014 C999 0.961 1_556 S
H1015 C999 0.961 . S
H1016 C1000 0.931 . S
H1017 C1005 0.930 . S
H1018 C1006 0.956 . S
H1019 C1006 0.961 . S
H1020 C1006 0.961 . S
H1021 C1007 0.958 . S
H1022 C1007 0.961 . S
H1023 C1007 0.960 1_554 S
C1024 C1025 1.391 . S
C1024 C1026 1.394 . S
C1024 H1040 0.931 . S
C1025 C1024 1.391 . S
C1025 C1029 1.376 . S
C1026 C1024 1.394 . S
C1026 C1027 1.369 . S
C1026 C1030 1.531 . S
C1027 C1026 1.369 . S
C1027 C1028 1.410 . S
C1027 C1035 1.503 . S
C1028 C1027 1.410 . S
C1028 C1029 1.392 . S
C1028 C1031 1.511 . S
C1029 C1025 1.376 . S
C1029 C1028 1.392 . S
C1029 H1041 0.929 . S
C1030 C1026 1.531 . S
C1030 H1042 0.960 . S
C1030 H1043 0.962 . S
C1030 H1044 0.960 . S
C1031 C1028 1.511 . S
C1031 H1045 0.961 . S
C1031 H1046 0.961 . S
C1031 H1047 0.961 . S
C1032 C1033 1.370 . S
C1032 C1034 1.363 . S
C1032 H1048 0.931 . S
C1033 C1032 1.370 . S
C1033 C1037 1.408 . S
C1034 C1032 1.363 . S
C1034 C1035 1.370 . S
C1034 C1038 1.524 . S
C1035 C1027 1.503 . S
C1035 C1034 1.370 . S
C1035 C1036 1.403 . S
C1036 C1035 1.403 . S
C1036 C1037 1.404 . S
C1036 C1039 1.539 . S
C1037 C1033 1.408 . S
C1037 C1036 1.404 . S
C1037 H1049 0.930 . S
C1038 C1034 1.524 . S
C1038 H1050 0.956 . S
C1038 H1051 0.961 . S
C1038 H1052 0.961 . S
C1039 C1036 1.539 . S
C1039 H1053 0.958 . S
C1039 H1054 0.961 . S
C1039 H1055 0.960 . S
H1040 C1024 0.931 . S
H1041 C1029 0.929 . S
H1042 C1030 0.960 . S
H1043 C1030 0.962 . S
H1044 C1030 0.960 . S
H1045 C1031 0.961 . S
H1046 C1031 0.961 . S
H1047 C1031 0.961 . S
H1048 C1032 0.931 . S
H1049 C1037 0.930 . S
H1050 C1038 0.956 . S
H1051 C1038 0.961 . S
H1052 C1038 0.961 . S
H1053 C1039 0.958 . S
H1054 C1039 0.961 . S
H1055 C1039 0.960 . S
C1056 C1057 1.391 1_455 S
C1056 C1058 1.394 . S
C1056 H1072 0.931 . S
C1057 C1056 1.391 1_655 S
C1057 C1061 1.376 . S
C1058 C1056 1.394 . S
C1058 C1059 1.369 1_455 S
C1058 C1062 1.531 . S
C1059 C1058 1.369 1_655 S
C1059 C1060 1.410 . S
C1059 C1067 1.503 1_554 S
C1060 C1059 1.410 . S
C1060 C1061 1.392 . S
C1060 C1063 1.511 . S
C1061 C1057 1.376 . S
C1061 C1060 1.392 . S
C1061 H1073 0.929 . S
C1062 C1058 1.531 . S
C1062 H1074 0.960 . S
C1062 H1075 0.962 . S
C1062 H1076 0.960 . S
C1063 C1060 1.511 . S
C1063 H1077 0.961 . S
C1063 H1078 0.961 1_554 S
C1063 H1079 0.961 . S
C1064 C1065 1.370 . S
C1064 C1066 1.363 . S
C1064 H1080 0.931 . S
C1065 C1064 1.370 . S
C1065 C1069 1.408 . S
C1066 C1064 1.363 . S
C1066 C1067 1.370 . S
C1066 C1070 1.524 . S
C1067 C1059 1.503 1_556 S
C1067 C1066 1.370 . S
C1067 C1068 1.403 . S
C1068 C1067 1.403 . S
C1068 C1069 1.404 . S
C1068 C1071 1.539 . S
C1069 C1065 1.408 . S
C1069 C1068 1.404 . S
C1069 H1081 0.930 . S
C1070 C1066 1.524 . S
C1070 H1082 0.956 1_655 S
C1070 H1083 0.961 . S
C1070 H1084 0.961 . S
C1071 C1068 1.539 . S
C1071 H1085 0.958 1_655 S
C1071 H1086 0.961 . S
C1071 H1087 0.960 1_556 S
H1072 C1056 0.931 . S
H1073 C1061 0.929 . S
H1074 C1062 0.960 . S
H1075 C1062 0.962 . S
H1076 C1062 0.960 . S
H1077 C1063 0.961 . S
H1078 C1063 0.961 1_556 S
H1079 C1063 0.961 . S
H1080 C1064 0.931 . S
H1081 C1069 0.930 . S
H1082 C1070 0.956 1_455 S
H1083 C1070 0.961 . S
H1084 C1070 0.961 . S
H1085 C1071 0.958 1_455 S
H1086 C1071 0.961 . S
H1087 C1071 0.960 1_554 S
C1088 C1089 1.391 . S
C1088 C1090 1.394 . S
C1088 H1104 0.931 . S
C1089 C1088 1.391 . S
C1089 C1093 1.376 1_565 S
C1090 C1088 1.394 . S
C1090 C1091 1.369 . S
C1090 C1094 1.531 . S
C1091 C1090 1.369 . S
C1091 C1092 1.410 1_565 S
C1091 C1099 1.503 . S
C1092 C1091 1.410 1_545 S
C1092 C1093 1.392 . S
C1092 C1095 1.511 . S
C1093 C1089 1.376 1_545 S
C1093 C1092 1.392 . S
C1093 H1105 0.929 . S
C1094 C1090 1.531 . S
C1094 H1106 0.960 . S
C1094 H1107 0.962 . S
C1094 H1108 0.960 . S
C1095 C1092 1.511 . S
C1095 H1109 0.961 . S
C1095 H1110 0.961 . S
C1095 H1111 0.961 . S
C1096 C1097 1.370 . S
C1096 C1098 1.363 . S
C1096 H1112 0.931 . S
C1097 C1096 1.370 . S
C1097 C1101 1.408 1_565 S
C1098 C1096 1.363 . S
C1098 C1099 1.370 . S
C1098 C1102 1.524 . S
C1099 C1091 1.503 . S
C1099 C1098 1.370 . S
C1099 C1100 1.403 1_565 S
C1100 C1099 1.403 1_545 S
C1100 C1101 1.404 . S
C1100 C1103 1.539 . S
C1101 C1097 1.408 1_545 S
C1101 C1100 1.404 . S
C1101 H1113 0.930 . S
C1102 C1098 1.524 . S
C1102 H1114 0.956 . S
C1102 H1115 0.961 . S
C1102 H1116 0.961 . S
C1103 C1100 1.539 . S
C1103 H1117 0.958 1_545 S
C1103 H1118 0.961 . S
C1103 H1119 0.960 . S
H1104 C1088 0.931 . S
H1105 C1093 0.929 . S
H1106 C1094 0.960 . S
H1107 C1094 0.962 . S
H1108 C1094 0.960 . S
H1109 C1095 0.961 . S
H1110 C1095 0.961 . S
H1111 C1095 0.961 . S
H1112 C1096 0.931 . S
H1113 C1101 0.930 . S
H1114 C1102 0.956 . S
H1115 C1102 0.961 . S
H1116 C1102 0.961 . S
H1117 C1103 0.958 1_565 S
H1118 C1103 0.961 . S
H1119 C1103 0.960 . S
C1120 C1121 1.391 . S
C1120 C1122 1.394 . S
C1120 H1136 0.931 . S
C1121 C1120 1.391 . S
C1121 C1125 1.376 . S
C1122 C1120 1.394 . S
C1122 C1123 1.369 . S
C1122 C1126 1.531 . S
C1123 C1122 1.369 . S
C1123 C1124 1.410 . S
C1123 C1131 1.503 1_556 S
C1124 C1123 1.410 . S
C1124 C1125 1.392 . S
C1124 C1127 1.511 . S
C1125 C1121 1.376 . S
C1125 C1124 1.392 . S
C1125 H1137 0.929 . S
C1126 C1122 1.531 . S
C1126 H1138 0.960 . S
C1126 H1139 0.962 . S
C1126 H1140 0.960 . S
C1127 C1124 1.511 . S
C1127 H1141 0.961 . S
C1127 H1142 0.961 1_556 S
C1127 H1143 0.961 . S
C1128 C1129 1.370 . S
C1128 C1130 1.363 . S
C1128 H1144 0.931 . S
C1129 C1128 1.370 . S
C1129 C1133 1.408 . S
C1130 C1128 1.363 . S
C1130 C1131 1.370 . S
C1130 C1134 1.524 . S
C1131 C1123 1.503 1_554 S
C1131 C1130 1.370 . S
C1131 C1132 1.403 . S
C1132 C1131 1.403 . S
C1132 C1133 1.404 . S
C1132 C1135 1.539 . S
C1133 C1129 1.408 . S
C1133 C1132 1.404 . S
C1133 H1145 0.930 . S
C1134 C1130 1.524 . S
C1134 H1146 0.956 . S
C1134 H1147 0.961 . S
C1134 H1148 0.961 . S
C1135 C1132 1.539 . S
C1135 H1149 0.958 . S
C1135 H1150 0.961 . S
C1135 H1151 0.960 1_554 S
H1136 C1120 0.931 . S
H1137 C1125 0.929 . S
H1138 C1126 0.960 . S
H1139 C1126 0.962 . S
H1140 C1126 0.960 . S
H1141 C1127 0.961 . S
H1142 C1127 0.961 1_554 S
H1143 C1127 0.961 . S
H1144 C1128 0.931 . S
H1145 C1133 0.930 . S
H1146 C1134 0.956 . S
H1147 C1134 0.961 . S
H1148 C1134 0.961 . S
H1149 C1135 0.958 . S
H1150 C1135 0.961 . S
H1151 C1135 0.960 1_556 S
C1152 C1153 1.391 . S
C1152 C1154 1.394 . S
C1152 H1168 0.931 . S
C1153 C1152 1.391 . S
C1153 C1157 1.376 . S
C1154 C1152 1.394 . S
C1154 C1155 1.369 . S
C1154 C1158 1.531 . S
C1155 C1154 1.369 . S
C1155 C1156 1.410 . S
C1155 C1163 1.503 . S
C1156 C1155 1.410 . S
C1156 C1157 1.392 . S
C1156 C1159 1.511 . S
C1157 C1153 1.376 . S
C1157 C1156 1.392 . S
C1157 H1169 0.929 . S
C1158 C1154 1.531 . S
C1158 H1170 0.960 . S
C1158 H1171 0.962 . S
C1158 H1172 0.960 . S
C1159 C1156 1.511 . S
C1159 H1173 0.961 . S
C1159 H1174 0.961 . S
C1159 H1175 0.961 . S
C1160 C1161 1.370 . S
C1160 C1162 1.363 . S
C1160 H1176 0.931 . S
C1161 C1160 1.370 . S
C1161 C1165 1.408 . S
C1162 C1160 1.363 . S
C1162 C1163 1.370 . S
C1162 C1166 1.524 . S
C1163 C1155 1.503 . S
C1163 C1162 1.370 . S
C1163 C1164 1.403 . S
C1164 C1163 1.403 . S
C1164 C1165 1.404 . S
C1164 C1167 1.539 . S
C1165 C1161 1.408 . S
C1165 C1164 1.404 . S
C1165 H1177 0.930 . S
C1166 C1162 1.524 . S
C1166 H1178 0.956 . S
C1166 H1179 0.961 . S
C1166 H1180 0.961 . S
C1167 C1164 1.539 . S
C1167 H1181 0.958 . S
C1167 H1182 0.961 . S
C1167 H1183 0.960 . S
H1168 C1152 0.931 . S
H1169 C1157 0.929 . S
H1170 C1158 0.960 . S
H1171 C1158 0.962 . S
H1172 C1158 0.960 . S
H1173 C1159 0.961 . S
H1174 C1159 0.961 . S
H1175 C1159 0.961 . S
H1176 C1160 0.931 . S
H1177 C1165 0.930 . S
H1178 C1166 0.956 . S
H1179 C1166 0.961 . S
H1180 C1166 0.961 . S
H1181 C1167 0.958 . S
H1182 C1167 0.961 . S
H1183 C1167 0.960 . S
C1184 C1185 1.391 . S
C1184 C1186 1.394 . S
C1184 H1200 0.931 . S
C1185 C1184 1.391 . S
C1185 C1189 1.376 1_455 S
C1186 C1184 1.394 . S
C1186 C1187 1.369 . S
C1186 C1190 1.531 . S
C1187 C1186 1.369 . S
C1187 C1188 1.410 1_455 S
C1187 C1195 1.503 1_554 S
C1188 C1187 1.410 1_655 S
C1188 C1189 1.392 . S
C1188 C1191 1.511 . S
C1189 C1185 1.376 1_655 S
C1189 C1188 1.392 . S
C1189 H1201 0.929 . S
C1190 C1186 1.531 . S
C1190 H1202 0.960 . S
C1190 H1203 0.962 . S
C1190 H1204 0.960 . S
C1191 C1188 1.511 . S
C1191 H1205 0.961 . S
C1191 H1206 0.961 1_554 S
C1191 H1207 0.961 . S
C1192 C1193 1.370 . S
C1192 C1194 1.363 . S
C1192 H1208 0.931 . S
C1193 C1192 1.370 . S
C1193 C1197 1.408 1_455 S
C1194 C1192 1.363 . S
C1194 C1195 1.370 . S
C1194 C1198 1.524 . S
C1195 C1187 1.503 1_556 S
C1195 C1194 1.370 . S
C1195 C1196 1.403 1_455 S
C1196 C1195 1.403 1_655 S
C1196 C1197 1.404 . S
C1196 C1199 1.539 . S
C1197 C1193 1.408 1_655 S
C1197 C1196 1.404 . S
C1197 H1209 0.930 . S
C1198 C1194 1.524 . S
C1198 H1210 0.956 . S
C1198 H1211 0.961 . S
C1198 H1212 0.961 . S
C1199 C1196 1.539 . S
C1199 H1213 0.958 1_655 S
C1199 H1214 0.961 . S
C1199 H1215 0.960 1_556 S
H1200 C1184 0.931 . S
H1201 C1189 0.929 . S
H1202 C1190 0.960 . S
H1203 C1190 0.962 . S
H1204 C1190 0.960 . S
H1205 C1191 0.961 . S
H1206 C1191 0.961 1_556 S
H1207 C1191 0.961 . S
H1208 C1192 0.931 . S
H1209 C1197 0.930 . S
H1210 C1198 0.956 . S
H1211 C1198 0.961 . S
H1212 C1198 0.961 . S
H1213 C1199 0.958 1_455 S
H1214 C1199 0.961 . S
H1215 C1199 0.960 1_554 S
C1216 C1217 1.391 . S
C1216 C1218 1.394 . S
C1216 H1232 0.931 . S
C1217 C1216 1.391 . S
C1217 C1221 1.372 1_545 S
C1218 C1216 1.394 . S
C1218 C1219 1.369 . S
C1218 C1222 1.531 . S
C1219 C1218 1.369 . S
C1219 C1220 1.410 . S
C1219 C1227 1.503 . S
C1220 C1219 1.410 . S
C1220 C1221 1.391 1_545 S
C1220 C1223 1.511 1_545 S
C1221 C1217 1.372 1_565 S
C1221 C1220 1.391 1_565 S
C1221 H1233 0.934 . S
C1222 C1218 1.531 . S
C1222 H1234 0.960 . S
C1222 H1235 0.962 . S
C1222 H1236 0.960 . S
C1223 C1220 1.511 1_565 S
C1223 H1237 0.961 . S
C1223 H1238 0.961 . S
C1223 H1239 0.961 1_565 S
C1224 C1225 1.370 1_565 S
C1224 C1226 1.363 . S
C1224 H1240 0.931 . S
C1225 C1224 1.370 1_545 S
C1225 C1229 1.408 . S
C1226 C1224 1.363 . S
C1226 C1227 1.370 1_565 S
C1226 C1230 1.524 . S
C1227 C1219 1.503 . S
C1227 C1226 1.370 1_545 S
C1227 C1228 1.403 . S
C1228 C1227 1.403 . S
C1228 C1229 1.404 . S
C1228 C1231 1.539 . S
C1229 C1225 1.408 . S
C1229 C1228 1.404 . S
C1229 H1241 0.930 . S
C1230 C1226 1.524 . S
C1230 H1242 0.956 . S
C1230 H1243 0.961 . S
C1230 H1244 0.961 . S
C1231 C1228 1.539 . S
C1231 H1245 0.958 . S
C1231 H1246 0.961 . S
C1231 H1247 0.960 . S
H1232 C1216 0.931 . S
H1233 C1221 0.934 . S
H1234 C1222 0.960 . S
H1235 C1222 0.962 . S
H1236 C1222 0.960 . S
H1237 C1223 0.961 . S
H1238 C1223 0.961 . S
H1239 C1223 0.961 1_545 S
H1240 C1224 0.931 . S
H1241 C1229 0.930 . S
H1242 C1230 0.956 . S
H1243 C1230 0.961 . S
H1244 C1230 0.961 . S
H1245 C1231 0.958 . S
H1246 C1231 0.961 . S
H1247 C1231 0.960 . S
C225 C8 1.313 . S
C233 C106 1.313 . S
C257 C22 1.313 . S
C265 C64 1.318 . S
C289 C36 1.317 . S
C297 C78 1.315 . S
C321 C50 1.316 . S
C329 C92 1.314 . S
C353 C120 1.307 . S
C361 C218 1.312 . S
C385 C176 1.307 . S
C393 C134 1.315 . S
C417 C148 1.312 . S
C425 C190 1.317 . S
C449 C162 1.310 . S
C457 C204 1.316 . S
C481 C9 1.427 . S
C489 C133 1.453 . S
C513 C23 1.455 . S
C521 C147 1.441 . S
C545 C161 1.435 . S
C553 C37 1.413 . S
C577 C51 1.396 . S
C585 C119 1.448 . S
C609 C65 1.414 . S
C617 C217 1.430 . S
C641 C175 1.416 . S
C649 C79 1.418 . S
C673 C189 1.443 . S
C681 C93 1.413 . S
C705 C203 1.439 . S
C713 C107 1.440 . S
C737 C21 1.460 . S
C745 C121 1.422 . S
C769 C35 1.463 . S
C777 C135 1.436 . S
C801 C149 1.391 . S
C809 C49 1.436 . S
C833 C7 1.451 . S
C841 C163 1.417 . S
C865 C177 1.448 . S
C873 C105 1.451 . S
C897 C191 1.455 . S
C905 C63 1.445 . S
C929 C77 1.439 . S
C937 C205 1.414 . S
C961 C91 1.455 . S
C969 C219 1.419 . S
C993 C3 1.602 . S
C1001 C59 1.605 . S
C1025 C73 1.600 . S
C1033 C17 1.608 . S
C1057 C31 1.604 . S
C1065 C87 1.606 . S
C1089 C101 1.603 . S
C1097 C45 1.608 . S
C1121 C115 1.608 . S
C1129 C171 1.609 . S
C1153 C185 1.600 . S
C1161 C129 1.605 . S
C1185 C199 1.606 . S
C1193 C143 1.607 . S
C1217 C213 1.598 . S
C1225 C157 1.605 . S
