# Generated by pormake.
# Topology umz, (4)-cn, num edge types: 1
# Building blocks:
#     Node 0, Type 0, BuildingBlock: KUFVIS_clean_sbu_0, # of connection points: 4
#     Node 1, Type 0, BuildingBlock: KUFVIS_clean_sbu_0, # of connection points: 4
#     Node 2, Type 0, BuildingBlock: KUFVIS_clean_sbu_0, # of connection points: 4
#     Node 3, Type 0, BuildingBlock: KUFVIS_clean_sbu_0, # of connection points: 4
#     Node 4, Type 0, BuildingBlock: KUFVIS_clean_sbu_0, # of connection points: 4
#     Node 5, Type 0, BuildingBlock: KUFVIS_clean_sbu_0, # of connection points: 4
#     Node 6, Type 0, BuildingBlock: KUFVIS_clean_sbu_0, # of connection points: 4
#     Node 7, Type 0, BuildingBlock: KUFVIS_clean_sbu_0, # of connection points: 4
#     Node 8, Type 0, BuildingBlock: KUFVIS_clean_sbu_0, # of connection points: 4
#     Node 9, Type 0, BuildingBlock: KUFVIS_clean_sbu_0, # of connection points: 4
#     Node 10, Type 0, BuildingBlock: KUFVIS_clean_sbu_0, # of connection points: 4
#     Node 11, Type 0, BuildingBlock: KUFVIS_clean_sbu_0, # of connection points: 4
#     Node 12, Type 0, BuildingBlock: KUFVIS_clean_sbu_0, # of connection points: 4
#     Node 13, Type 0, BuildingBlock: KUFVIS_clean_sbu_0, # of connection points: 4
#     Node 14, Type 0, BuildingBlock: KUFVIS_clean_sbu_0, # of connection points: 4
#     Node 15, Type 0, BuildingBlock: KUFVIS_clean_sbu_0, # of connection points: 4
#     Edge 16, Type (0, 0), BuildingBlock: ZUJKAS_clean_linker_0, # of connection points: 2
#     Edge 17, Type (0, 0), BuildingBlock: ZUJKAS_clean_linker_0, # of connection points: 2
#     Edge 18, Type (0, 0), BuildingBlock: ZUJKAS_clean_linker_0, # of connection points: 2
#     Edge 19, Type (0, 0), BuildingBlock: ZUJKAS_clean_linker_0, # of connection points: 2
#     Edge 20, Type (0, 0), BuildingBlock: ZUJKAS_clean_linker_0, # of connection points: 2
#     Edge 21, Type (0, 0), BuildingBlock: ZUJKAS_clean_linker_0, # of connection points: 2
#     Edge 22, Type (0, 0), BuildingBlock: ZUJKAS_clean_linker_0, # of connection points: 2
#     Edge 23, Type (0, 0), BuildingBlock: ZUJKAS_clean_linker_0, # of connection points: 2
#     Edge 24, Type (0, 0), BuildingBlock: ZUJKAS_clean_linker_0, # of connection points: 2
#     Edge 25, Type (0, 0), BuildingBlock: ZUJKAS_clean_linker_0, # of connection points: 2
#     Edge 26, Type (0, 0), BuildingBlock: ZUJKAS_clean_linker_0, # of connection points: 2
#     Edge 27, Type (0, 0), BuildingBlock: ZUJKAS_clean_linker_0, # of connection points: 2
#     Edge 28, Type (0, 0), BuildingBlock: ZUJKAS_clean_linker_0, # of connection points: 2
#     Edge 29, Type (0, 0), BuildingBlock: ZUJKAS_clean_linker_0, # of connection points: 2
#     Edge 30, Type (0, 0), BuildingBlock: ZUJKAS_clean_linker_0, # of connection points: 2
#     Edge 31, Type (0, 0), BuildingBlock: ZUJKAS_clean_linker_0, # of connection points: 2
#     Edge 32, Type (0, 0), BuildingBlock: ZUJKAS_clean_linker_0, # of connection points: 2
#     Edge 33, Type (0, 0), BuildingBlock: ZUJKAS_clean_linker_0, # of connection points: 2
#     Edge 34, Type (0, 0), BuildingBlock: ZUJKAS_clean_linker_0, # of connection points: 2
#     Edge 35, Type (0, 0), BuildingBlock: ZUJKAS_clean_linker_0, # of connection points: 2
#     Edge 36, Type (0, 0), BuildingBlock: ZUJKAS_clean_linker_0, # of connection points: 2
#     Edge 37, Type (0, 0), BuildingBlock: ZUJKAS_clean_linker_0, # of connection points: 2
#     Edge 38, Type (0, 0), BuildingBlock: ZUJKAS_clean_linker_0, # of connection points: 2
#     Edge 39, Type (0, 0), BuildingBlock: ZUJKAS_clean_linker_0, # of connection points: 2
#     Edge 40, Type (0, 0), BuildingBlock: ZUJKAS_clean_linker_0, # of connection points: 2
#     Edge 41, Type (0, 0), BuildingBlock: ZUJKAS_clean_linker_0, # of connection points: 2
#     Edge 42, Type (0, 0), BuildingBlock: ZUJKAS_clean_linker_0, # of connection points: 2
#     Edge 43, Type (0, 0), BuildingBlock: ZUJKAS_clean_linker_0, # of connection points: 2
#     Edge 44, Type (0, 0), BuildingBlock: ZUJKAS_clean_linker_0, # of connection points: 2
#     Edge 45, Type (0, 0), BuildingBlock: ZUJKAS_clean_linker_0, # of connection points: 2
#     Edge 46, Type (0, 0), BuildingBlock: ZUJKAS_clean_linker_0, # of connection points: 2
#     Edge 47, Type (0, 0), BuildingBlock: ZUJKAS_clean_linker_0, # of connection points: 2
# Relax obj value: 0.252
# Max RMSD: 0.161
# Mean RMSD: 0.161
data_MOF--net-umz--node1-KUFVIS_clean_sbu_0--edge1-ZUJKAS_clean_linker_0
_symmetry_space_group_name_H-M    P1
_symmetry_Int_Tables_number       1
_symmetry_cell_setting            triclinic
loop_
_symmetry_equiv_pos_as_xyz
'x, y, z'
_cell_length_a     75.341689
_cell_length_b     75.334248
_cell_length_c     29.48272
_cell_angle_alpha  89.99416
_cell_angle_beta   90.048103
_cell_angle_gamma 89.999231
loop_
_atom_site_label
_atom_site_type_symbol
_atom_site_fract_x
_atom_site_fract_y
_atom_site_fract_z
_atom_type_partial_charge
Mn0 Mn 0.01552 0.61689 0.07427 0.0
Mn1 Mn 0.9777 0.6183 0.01314 0.0
C2 C 0.98854 0.61302 0.10954 0.0
C3 C 0.03911 0.60108 0.10535 0.0
C4 C -0.00178 0.65117 0.0401 0.0
O5 O 0.02432 0.61339 0.01008 0.0
O6 O -0.00165 0.61444 0.97179 0.0
C7 C 0.97701 0.58099 0.98175 0.0
N8 N 0.96912 0.59469 0.00412 0.0
C9 C 0.94376 0.57666 0.02248 0.0
C10 C 0.95155 0.56239 -0.00068 0.0
C11 C 0.96825 0.56457 0.97891 0.0
C12 C 0.953 0.59278 0.02367 0.0
H13 H 0.9899 0.58256 0.96631 0.0
C14 C 0.01529 0.61281 0.97349 0.0
O15 O 0.04015 0.61812 0.09897 0.0
O16 O 0.02469 0.59325 0.09209 0.0
N17 N 0.95685 0.62177 0.04909 0.0
C18 C 0.95184 0.63638 0.07311 0.0
C19 C 0.93579 0.63612 0.09731 0.0
C20 C 0.92506 0.62087 0.09646 0.0
C21 C 0.93045 0.60604 0.07128 0.0
C22 C 0.9465 0.60713 0.04749 0.0
H23 H 0.96011 0.64808 0.07419 0.0
O24 O 0.00224 0.61838 0.13239 0.0
O25 O 0.99103 0.61022 0.06642 0.0
O26 O 0.01065 0.64316 0.06123 0.0
O27 O 0.98524 0.64312 0.02135 0.0
C28 C 0.92077 0.59005 0.06983 0.0
C29 C 0.92741 0.57538 0.04542 0.0
H30 H 0.94493 0.54965 0.99746 0.0
H31 H 0.9744 0.55359 0.96123 0.0
H32 H 0.93176 0.6476 0.11681 0.0
H33 H 0.9128 0.62065 0.1156 0.0
H34 H 0.90833 0.5888 0.08798 0.0
H35 H 0.91997 0.56307 0.04514 0.0
Mn36 Mn 0.87283 0.00631 0.57083 0.0
Mn37 Mn 0.87106 0.97194 0.49779 0.0
C38 C 0.87358 0.97756 0.59769 0.0
C39 C 0.88907 0.02681 0.61288 0.0
C40 C 0.8388 0.99349 0.52464 0.0
O41 O 0.87911 0.01786 0.51088 0.0
O42 O 0.878 0.99402 0.46472 0.0
C43 C 0.90916 0.9696 0.47412 0.0
N44 N 0.8942 0.9619 0.49095 0.0
C45 C 0.90957 0.93438 0.50417 0.0
C46 C 0.92511 0.94198 0.4867 0.0
C47 C 0.92491 0.95967 0.47164 0.0
C48 C 0.89421 0.94485 0.50523 0.0
H49 H 0.90911 0.98323 0.46279 0.0
C50 C 0.88065 0.01062 0.47195 0.0
O51 O 0.87253 0.02971 0.60275 0.0
O52 O 0.89626 0.0125 0.59686 0.0
N53 N 0.86482 0.94988 0.52578 0.0
C54 C 0.84912 0.94503 0.54506 0.0
C55 C 0.84736 0.92798 0.56376 0.0
C56 C 0.86173 0.9161 0.56237 0.0
C57 C 0.87773 0.92138 0.54222 0.0
C58 C 0.87866 0.93849 0.52377 0.0
H59 H 0.83809 0.95415 0.54658 0.0
O60 O 0.86834 0.99047 0.62355 0.0
O61 O 0.87806 0.9819 0.55652 0.0
O62 O 0.84688 0.00418 0.55107 0.0
O63 O 0.8466 0.98101 0.50318 0.0
C64 C 0.89293 0.9105 0.54074 0.0
C65 C 0.90883 0.91699 0.52169 0.0
H66 H 0.93733 0.93443 0.48517 0.0
H67 H 0.93688 0.96566 0.45835 0.0
H68 H 0.835 0.92403 0.57944 0.0
H69 H 0.86037 0.90302 0.57725 0.0
H70 H 0.89261 0.89722 0.55478 0.0
H71 H 0.9205 0.90859 0.52136 0.0
Mn72 Mn 0.49335 0.87864 0.06633 0.0
Mn73 Mn 0.52806 0.87905 0.99436 0.0
C74 C 0.52194 0.87974 0.09399 0.0
C75 C 0.47178 0.89342 0.10843 0.0
C76 C 0.5082 0.8456 0.01856 0.0
O77 O 0.48173 0.88533 0.00677 0.0
O78 O 0.50562 0.88422 0.96086 0.0
C79 C 0.52709 0.91745 0.97304 0.0
N80 N 0.53605 0.90304 0.98901 0.0
C81 C 0.56219 0.92056 0.00296 0.0
C82 C 0.55328 0.93556 0.98642 0.0
C83 C 0.53563 0.93401 0.97153 0.0
C84 C 0.55298 0.90442 0.00375 0.0
H85 H 0.51352 0.91633 0.9616 0.0
C86 C 0.48898 0.88649 0.96785 0.0
O87 O 0.46986 0.87686 0.09719 0.0
O88 O 0.48594 0.90143 0.09405 0.0
N89 N 0.55061 0.87444 0.02185 0.0
C90 C 0.55712 0.85882 0.03818 0.0
C91 C 0.57451 0.85821 0.05534 0.0
C92 C 0.58507 0.87358 0.05496 0.0
C93 C 0.57816 0.88942 0.03735 0.0
C94 C 0.56073 0.88925 0.02083 0.0
H95 H 0.54907 0.84697 0.03841 0.0
O96 O 0.50908 0.87394 0.11921 0.0
O97 O 0.51763 0.88488 0.0533 0.0
O98 O 0.49671 0.85312 0.04392 0.0
O99 O 0.52083 0.85396 -0.00096 0.0
C100 C 0.58784 0.90541 0.03574 0.0
C101 C 0.57982 0.921 0.01892 0.0
H102 H 0.55982 0.94836 0.9852 0.0
H103 H 0.52863 0.94554 0.95888 0.0
H104 H 0.57976 0.84592 0.06881 0.0
H105 H 0.59846 0.87306 0.06834 0.0
H106 H 0.60143 0.90591 0.04767 0.0
H107 H 0.58732 0.93327 0.01848 0.0
Mn108 Mn 0.62125 0.47902 0.57882 0.0
Mn109 Mn 0.61729 0.51768 0.52205 0.0
C110 C 0.61556 0.50489 0.61795 0.0
C111 C 0.6086 0.45336 0.60845 0.0
C112 C 0.65265 0.49999 0.54133 0.0
O113 O 0.61758 0.47099 0.51386 0.0
O114 O 0.6135 0.49742 0.47947 0.0
C115 C 0.57909 0.51587 0.49893 0.0
N116 N 0.59288 0.52449 0.51913 0.0
C117 C 0.57373 0.54817 0.54372 0.0
C118 C 0.55935 0.53961 0.52289 0.0
C119 C 0.56204 0.52338 0.50044 0.0
C120 C 0.59046 0.54016 0.54062 0.0
H121 H 0.58108 0.50334 0.48191 0.0
C122 C 0.61422 0.48039 0.47888 0.0
O123 O 0.6255 0.45424 0.59999 0.0
O124 O 0.59906 0.46709 0.59802 0.0
N125 N 0.62039 0.5382 0.5595 0.0
C126 C 0.63535 0.54402 0.58083 0.0
C127 C 0.63473 0.55969 0.60657 0.0
C128 C 0.61877 0.56924 0.60998 0.0
C129 C 0.60358 0.56306 0.58747 0.0
C130 C 0.60504 0.54744 0.56197 0.0
H131 H 0.64762 0.53666 0.57861 0.0
O132 O 0.62251 0.49134 0.63848 0.0
O133 O 0.61207 0.50285 0.57501 0.0
O134 O 0.64649 0.48687 0.56362 0.0
O135 O 0.64288 0.51208 0.52398 0.0
C136 C 0.58694 0.57152 0.59032 0.0
C137 C 0.57203 0.56409 0.56844 0.0
H138 H 0.54614 0.54526 0.52437 0.0
H139 H 0.55099 0.51664 0.48452 0.0
H140 H 0.64649 0.56434 0.62398 0.0
H141 H 0.61829 0.5812 0.63032 0.0
H142 H 0.5854 0.58359 0.6099 0.0
H143 H 0.55925 0.57057 0.57148 0.0
Mn144 Mn 0.00597 0.87292 0.91924 0.0
Mn145 Mn 0.97026 0.87144 0.98793 0.0
C146 C 0.97778 0.87369 0.8888 0.0
C147 C 0.02731 0.88918 0.88009 0.0
C148 C 0.99269 0.8392 0.96566 0.0
O149 O 0.01627 0.87934 0.98059 0.0
O150 O 0.99149 0.87909 0.02354 0.0
C151 C 0.96668 0.90969 0.00899 0.0
N152 N 0.95965 0.89443 0.9919 0.0
C153 C 0.93225 0.90917 0.97338 0.0
C154 C 0.93915 0.92501 0.99105 0.0
C155 C 0.95644 0.92527 0.00892 0.0
C156 C 0.94296 0.89399 0.975 0.0
H157 H 0.98001 0.90998 0.02242 0.0
C158 C 0.00826 0.88144 0.01835 0.0
O159 O 0.02998 0.87263 0.89049 0.0
O160 O 0.01265 0.89634 0.89399 0.0
N161 N 0.94899 0.86452 0.95707 0.0
C162 C 0.94492 0.8486 0.93778 0.0
C163 C 0.92843 0.84638 0.91628 0.0
C164 C 0.91631 0.86054 0.91485 0.0
C165 C 0.92078 0.87678 0.93506 0.0
C166 C 0.93734 0.87816 0.9564 0.0
H167 H 0.95427 0.83773 0.93835 0.0
O168 O 0.99112 0.86839 0.86449 0.0
O169 O 0.98139 0.87813 0.93044 0.0
O170 O 0.00353 0.84704 0.93919 0.0
O171 O 0.9799 0.84712 0.98556 0.0
C172 C 0.90965 0.8918 0.93377 0.0
C173 C 0.91536 0.90798 0.953 0.0
H174 H 0.93138 0.93711 0.99056 0.0
H175 H 0.9619 0.93747 0.02237 0.0
H176 H 0.92512 0.83383 0.90055 0.0
H177 H 0.9037 0.85884 0.89774 0.0
H178 H 0.89679 0.89115 0.9174 0.0
H179 H 0.9068 0.9195 0.95115 0.0
Mn180 Mn 0.61719 0.01009 0.41908 0.0
Mn181 Mn 0.61582 0.97566 0.49198 0.0
C182 C 0.61629 0.98138 0.39198 0.0
C183 C 0.60282 0.03163 0.37595 0.0
C184 C 0.64958 0.9956 0.46984 0.0
O185 O 0.61038 0.02199 0.47823 0.0
O186 O 0.60953 -0.00191 0.52401 0.0
C187 C 0.57708 0.97594 0.50882 0.0
N188 N 0.59193 0.96719 0.49492 0.0
C189 C 0.57529 0.94048 0.48108 0.0
C190 C 0.55983 0.94917 0.4955 0.0
C191 C 0.56073 0.967 0.50927 0.0
C192 C 0.59119 0.9501 0.48118 0.0
H193 H 0.5777 0.98964 0.51947 0.0
C194 C 0.60791 0.0148 0.51686 0.0
O195 O 0.61933 0.03348 0.3879 0.0
O196 O 0.59463 0.01757 0.39027 0.0
N197 N 0.62134 0.95307 0.46584 0.0
C198 C 0.63734 0.94681 0.45141 0.0
C199 C 0.63863 0.92929 0.43548 0.0
C200 C 0.62354 0.91832 0.43522 0.0
C201 C 0.60729 0.92499 0.45087 0.0
C202 C 0.60679 0.94258 0.46611 0.0
H203 H 0.64899 0.95516 0.45176 0.0
O204 O 0.62214 0.99419 0.36668 0.0
O205 O 0.61079 0.98582 0.43224 0.0
O206 O 0.64247 0.00666 0.44256 0.0
O207 O 0.6409 0.98333 0.49002 0.0
C208 C 0.59155 0.9149 0.45179 0.0
C209 C 0.57553 0.92268 0.46648 0.0
H210 H 0.5472 0.94231 0.49596 0.0
H211 H 0.54885 0.97383 0.52029 0.0
H212 H 0.65123 0.92423 0.42352 0.0
H213 H 0.62459 0.90482 0.42286 0.0
H214 H 0.59158 0.90116 0.44095 0.0
H215 H 0.56346 0.91486 0.46635 0.0
Mn216 Mn 0.48492 0.62237 0.93362 0.0
Mn217 Mn 0.52101 0.62248 0.00137 0.0
C218 C 0.5125 0.61628 0.90382 0.0
C219 C 0.46116 0.60802 0.89895 0.0
C220 C 0.50354 0.65604 0.96753 0.0
O221 O 0.47414 0.62029 0.99624 0.0
O222 O 0.49902 0.62086 0.03905 0.0
C223 C 0.51813 0.58585 0.037 0.0
N224 N 0.52759 0.59854 0.01471 0.0
C225 C 0.55212 0.57853 0.00373 0.0
C226 C 0.54268 0.56529 0.02688 0.0
C227 C 0.52561 0.56897 0.04355 0.0
C228 C 0.54407 0.59517 -0.00126 0.0
H229 H 0.50495 0.58858 0.0496 0.0
C230 C 0.48209 0.62007 0.03444 0.0
O231 O 0.46121 0.62512 0.90464 0.0
O232 O 0.47454 0.59925 0.91521 0.0
N233 N 0.54303 0.6238 0.96925 0.0
C234 C 0.54976 0.63756 0.94467 0.0
C235 C 0.56644 0.63576 0.92394 0.0
C236 C 0.57604 0.61989 0.92883 0.0
C237 C 0.56887 0.60596 0.95447 0.0
C238 C 0.55226 0.60856 0.97469 0.0
H239 H 0.54238 0.64974 0.94053 0.0
O240 O 0.49986 0.62225 0.87809 0.0
O241 O 0.50866 0.61426 0.94658 0.0
O242 O 0.49113 0.6484 0.94557 0.0
O243 O 0.51559 0.6476 0.98903 0.0
C244 C 0.57735 0.58942 0.95978 0.0
C245 C 0.56899 0.57572 0.98442 0.0
H246 H 0.54833 0.55219 0.03161 0.0
H247 H 0.5182 0.55879 0.06121 0.0
H248 H 0.57185 0.64655 0.90403 0.0
H249 H 0.58882 0.6185 0.91242 0.0
H250 H 0.59019 0.587 0.94443 0.0
H251 H 0.57552 0.56297 0.98768 0.0
Mn252 Mn 0.87203 0.47964 0.4246 0.0
Mn253 Mn 0.87625 0.51571 0.49153 0.0
C254 C 0.8792 0.50673 0.39307 0.0
C255 C 0.88418 0.45477 0.38954 0.0
C256 C 0.84071 0.50004 0.46453 0.0
O257 O 0.8744 0.46896 0.48751 0.0
O258 O 0.87882 0.49377 0.52886 0.0
C259 C 0.91399 0.51186 0.51766 0.0
N260 N 0.90075 0.52165 0.49858 0.0
C261 C 0.92079 0.54575 0.48291 0.0
C262 C 0.93462 0.53597 0.50267 0.0
C263 C 0.93121 0.51895 0.52006 0.0
C264 C 0.90387 0.53808 0.48191 0.0
H265 H 0.91144 0.49873 0.53084 0.0
C266 C 0.87752 0.47684 0.52501 0.0
O267 O 0.86722 0.456 0.3968 0.0
O268 O 0.89406 0.46765 0.40423 0.0
N269 N 0.87426 0.5377 0.45943 0.0
C270 C 0.85979 0.54479 0.43841 0.0
C271 C 0.86113 0.56152 0.41767 0.0
C272 C 0.8773 0.57078 0.41889 0.0
C273 C 0.89201 0.56322 0.44073 0.0
C274 C 0.88983 0.54659 0.46122 0.0
H275 H 0.84735 0.53769 0.43723 0.0
O276 O 0.87213 0.49433 0.36844 0.0
O277 O 0.8819 0.50286 0.43555 0.0
O278 O 0.84683 0.48771 0.43939 0.0
O279 O 0.85056 0.51102 0.48587 0.0
C280 C 0.90884 0.57134 0.44209 0.0
C281 C 0.92323 0.56261 0.46316 0.0
H282 H 0.94796 0.54133 0.50423 0.0
H283 H 0.94184 0.51129 0.53513 0.0
H284 H 0.84975 0.56723 0.40069 0.0
H285 H 0.8783 0.58364 0.40267 0.0
H286 H 0.91095 0.58417 0.4264 0.0
H287 H 0.93617 0.56887 0.46338 0.0
Mn288 Mn 0.97815 0.37112 0.92445 0.0
Mn289 Mn 0.0142 0.3742 0.99189 0.0
C290 C 0.00543 0.3777 0.89327 0.0
C291 C 0.9536 0.384 0.88965 0.0
C292 C -0.00237 0.33917 0.9639 0.0
O293 O 0.9675 0.37347 0.98742 0.0
O294 O 0.99233 0.37748 0.02901 0.0
C295 C 0.01155 0.41202 0.01816 0.0
N296 N 0.02092 0.3985 -0.00095 0.0
C297 C 0.04555 0.41784 0.9831 0.0
C298 C 0.03622 0.43195 0.00293 0.0
C299 C 0.01914 0.42902 0.02049 0.0
C300 C 0.0374 0.40113 0.98227 0.0
H301 H -0.00164 0.40987 0.03139 0.0
C302 C 0.97539 0.37652 0.02496 0.0
O303 O 0.95443 0.36699 0.89652 0.0
O304 O 0.96669 0.39352 0.90465 0.0
N305 N 0.03613 0.37154 0.95985 0.0
C306 C 0.04271 0.3569 0.93855 0.0
C307 C 0.05934 0.35783 0.91723 0.0
C308 C 0.06905 0.37374 0.91815 0.0
C309 C 0.06204 0.3886 0.9405 0.0
C310 C 0.04546 0.38685 0.96149 0.0
H311 H 0.03525 0.34468 0.93745 0.0
O312 O 0.99284 0.37112 0.86837 0.0
O313 O 0.00161 0.38035 0.93579 0.0
O314 O 0.98567 0.34569 0.93827 0.0
O315 O 0.00868 0.34863 0.98618 0.0
C316 C 0.07064 0.4052 0.94171 0.0
C317 C 0.06241 0.4198 0.96304 0.0
H318 H 0.04195 0.44512 0.00437 0.0
H319 H 0.01181 0.43987 0.03558 0.0
H320 H 0.06463 0.34632 0.8999 0.0
H321 H 0.08178 0.37446 0.90121 0.0
H322 H 0.08345 0.40696 0.92569 0.0
H323 H 0.06903 0.43257 0.96311 0.0
Mn324 Mn 0.11668 0.98816 0.42169 0.0
Mn325 Mn 0.11812 0.02286 0.49365 0.0
C326 C 0.11686 0.01676 0.39404 0.0
C327 C 0.10091 0.96729 0.37964 0.0
C328 C 0.15055 0.00157 0.46856 0.0
O329 O 0.10964 0.97684 0.48134 0.0
O330 O 0.11221 0.00063 0.52723 0.0
C331 C 0.07982 0.02341 0.5161 0.0
N332 N 0.0945 0.03181 0.49976 0.0
C333 C 0.07797 0.05864 0.48648 0.0
C334 C 0.0627 0.05032 0.50341 0.0
C335 C 0.06363 0.03261 0.51815 0.0
C336 C 0.09372 0.04879 0.48514 0.0
H337 H 0.08045 0.0098 0.52743 0.0
C338 C 0.10909 0.98412 0.52032 0.0
O339 O 0.11738 0.96463 0.39084 0.0
O340 O 0.09353 0.98177 0.39416 0.0
N341 N 0.12349 0.04524 0.46619 0.0
C342 C 0.13929 0.05117 0.44962 0.0
C343 C 0.14053 0.06854 0.43262 0.0
C344 C 0.12559 0.0797 0.43345 0.0
C345 C 0.10956 0.07339 0.45138 0.0
C346 C 0.10911 0.05595 0.4677 0.0
H347 H 0.15082 0.04265 0.44903 0.0
O348 O 0.12197 0.00364 0.36876 0.0
O349 O 0.11159 0.01272 0.4348 0.0
O350 O 0.14239 0.99035 0.44368 0.0
O351 O 0.14287 0.01462 0.4881 0.0
C352 C 0.09397 0.0837 0.45351 0.0
C353 C 0.07816 0.07629 0.47069 0.0
H354 H 0.05019 0.05737 0.50507 0.0
H355 H 0.05189 0.02607 0.5311 0.0
H356 H 0.15296 0.07332 0.41893 0.0
H357 H 0.12658 0.09308 0.4202 0.0
H358 H 0.09397 0.09732 0.44175 0.0
H359 H 0.06621 0.08428 0.47156 0.0
Mn360 Mn 0.50578 0.12411 0.91778 0.0
Mn361 Mn 0.47053 0.12163 0.98795 0.0
C362 C 0.47773 0.11983 0.8885 0.0
C363 C 0.52885 0.11058 0.87828 0.0
C364 C 0.48867 0.15622 0.96346 0.0
O365 O 0.51718 0.11942 0.97894 0.0
O366 O 0.49276 0.11677 0.02268 0.0
C367 C 0.47179 0.08332 0.01004 0.0
N368 N 0.46281 0.09755 0.99311 0.0
C369 C 0.43715 0.07959 0.9771 0.0
C370 C 0.44607 0.06476 0.99466 0.0
C371 C 0.46347 0.06664 0.01117 0.0
C372 C 0.44602 0.09592 0.97744 0.0
H373 H 0.4852 0.08467 0.02248 0.0
C374 C 0.50966 0.11646 0.01699 0.0
O375 O 0.52928 0.12741 0.88783 0.0
O376 O 0.5154 0.10158 0.89321 0.0
N377 N 0.44833 0.12579 0.95816 0.0
C378 C 0.44217 0.14103 0.93888 0.0
C379 C 0.42527 0.14119 0.91876 0.0
C380 C 0.41488 0.12571 0.91876 0.0
C381 C 0.42148 0.1102 0.93895 0.0
C382 C 0.43835 0.11088 0.95887 0.0
H383 H 0.45016 0.15293 0.93844 0.0
O384 O 0.49024 0.12645 0.86347 0.0
O385 O 0.48203 0.11598 0.93011 0.0
O386 O 0.5002 0.14958 0.93679 0.0
O387 O 0.47711 0.14694 0.9844 0.0
C388 C 0.41218 0.09398 0.93901 0.0
C389 C 0.42 0.07869 0.95813 0.0
H390 H 0.43978 0.05184 0.99513 0.0
H391 H 0.47048 0.05524 0.02452 0.0
H392 H 0.42031 0.15319 0.90305 0.0
H393 H 0.40193 0.12584 0.90276 0.0
H394 H 0.39913 0.09305 0.92376 0.0
H395 H 0.41283 0.06623 0.95733 0.0
Mn396 Mn 0.37582 0.51945 0.42627 0.0
Mn397 Mn 0.37664 0.4814 0.48637 0.0
C398 C 0.3795 0.49268 0.3895 0.0
C399 C 0.39095 0.54337 0.39459 0.0
C400 C 0.34283 0.50183 0.46581 0.0
O401 O 0.38012 0.52794 0.49057 0.0
O402 O 0.38229 0.50174 0.52733 0.0
C403 C 0.41487 0.47997 0.50925 0.0
N404 N 0.40033 0.47243 0.48967 0.0
C405 C 0.41722 0.44687 0.46662 0.0
C406 C 0.43235 0.4543 0.48682 0.0
C407 C 0.43116 0.47093 0.50819 0.0
C408 C 0.40129 0.45639 0.46927 0.0
H409 H 0.41404 0.49281 0.5254 0.0
C410 C 0.38281 0.51878 0.52636 0.0
O411 O 0.37404 0.54434 0.40306 0.0
O412 O 0.39901 0.52888 0.40625 0.0
N413 N 0.37163 0.46086 0.45034 0.0
C414 C 0.3562 0.45626 0.42925 0.0
C415 C 0.35536 0.44035 0.40456 0.0
C416 C 0.37036 0.42934 0.40184 0.0
C417 C 0.38609 0.43435 0.42384 0.0
C418 C 0.38609 0.45027 0.44837 0.0
H419 H 0.34467 0.46474 0.43096 0.0
O420 O 0.37359 0.50642 0.36768 0.0
O421 O 0.38296 0.49506 0.4323 0.0
O422 O 0.34994 0.51405 0.44201 0.0
O423 O 0.35168 0.48927 0.4842 0.0
C424 C 0.40189 0.42439 0.42145 0.0
C425 C 0.41744 0.43064 0.44286 0.0
H426 H 0.44499 0.44746 0.48565 0.0
H427 H 0.44281 0.4768 0.5236 0.0
H428 H 0.3432 0.43662 0.38747 0.0
H429 H 0.3697 0.41715 0.38244 0.0
H430 H 0.40231 0.41205 0.4026 0.0
H431 H 0.42958 0.423 0.44017 0.0
Mn432 Mn 0.99109 0.11724 0.07228 0.0
Mn433 Mn 0.0251 0.1161 -0.00188 0.0
C434 C 0.01993 0.11614 0.09823 0.0
C435 C 0.96977 0.10288 0.11615 0.0
C436 C 0.00562 0.14983 0.02205 0.0
O437 O 0.97886 0.1103 0.01355 0.0
O438 O 0.00241 0.11053 0.9664 0.0
C439 C 0.02407 0.0775 0.97933 0.0
N440 N 0.03313 0.09209 0.99379 0.0
C441 C 0.05951 0.07483 0.00684 0.0
C442 C 0.05049 0.05964 0.99184 0.0
C443 C 0.03268 0.06098 0.97816 0.0
C444 C 0.05022 0.09092 0.00739 0.0
H445 H 0.01037 0.07846 0.96881 0.0
C446 C 0.9858 0.10856 0.97439 0.0
O447 O 0.96789 0.1194 0.10438 0.0
O448 O 0.98372 0.09466 0.10127 0.0
N449 N 0.04788 0.12104 0.02391 0.0
C450 C 0.05449 0.13683 0.03885 0.0
C451 C 0.07205 0.13768 0.0547 0.0
C452 C 0.0827 0.12237 0.05441 0.0
C453 C 0.07568 0.10634 0.03823 0.0
C454 C 0.05808 0.10628 0.02302 0.0
H455 H 0.04638 0.14865 0.03895 0.0
O456 O 0.00733 0.12208 0.12406 0.0
O457 O 0.01521 0.11078 0.05802 0.0
O458 O 0.9945 0.14263 0.04903 0.0
O459 O 0.01782 0.14121 0.00152 0.0
C460 C 0.08543 0.09039 0.03676 0.0
C461 C 0.07731 0.07461 0.02146 0.0
H462 H 0.05709 0.04687 0.99086 0.0
H463 H 0.02561 0.0493 0.96671 0.0
H464 H 0.07738 0.15011 0.06706 0.0
H465 H 0.09623 0.12307 0.06675 0.0
H466 H 0.09916 0.09007 0.04764 0.0
H467 H 0.08488 0.06239 0.02115 0.0
Mn468 Mn 0.3739 0.98598 0.56662 0.0
Mn469 Mn 0.37181 0.0215 0.49742 0.0
C470 C 0.37429 0.01424 0.59667 0.0
C471 C 0.39059 0.96513 0.60638 0.0
C472 C 0.33979 -0.00095 0.52148 0.0
O473 O 0.38035 0.97554 0.50551 0.0
O474 O 0.37923 0.00015 0.46203 0.0
C475 C 0.40992 0.02493 0.47472 0.0
N476 N 0.39478 0.03206 0.49215 0.0
C477 C 0.40964 0.05956 0.50893 0.0
C478 C 0.42536 0.05255 0.49087 0.0
C479 C 0.4255 0.03516 0.47371 0.0
C480 C 0.39446 0.04883 0.50843 0.0
H481 H 0.41013 0.01152 0.46179 0.0
C482 C 0.38199 0.98346 0.46748 0.0
O483 O 0.37409 0.96207 0.59616 0.0
O484 O 0.39746 0.97981 0.59169 0.0
N485 N 0.36511 0.04293 0.52782 0.0
C486 C 0.3493 0.04715 0.54743 0.0
C487 C 0.3472 0.0638 0.56814 0.0
C488 C 0.36136 0.07593 0.56843 0.0
C489 C 0.3775 0.0713 0.54793 0.0
C490 C 0.37876 0.05458 0.52744 0.0
H491 H 0.33842 0.03782 0.54767 0.0
O492 O 0.36921 0.00084 0.62106 0.0
O493 O 0.37881 0.01066 0.55506 0.0
O494 O 0.34791 0.98807 0.54709 0.0
O495 O 0.34751 0.01192 0.50136 0.0
C496 C 0.39251 0.08245 0.54804 0.0
C497 C 0.40857 0.07659 0.52851 0.0
H498 H 0.43746 0.06033 0.49049 0.0
H499 H 0.4376 0.02962 0.45997 0.0
H500 H 0.33473 0.06724 0.58408 0.0
H501 H 0.35975 0.08869 0.58486 0.0
H502 H 0.39194 0.09544 0.56368 0.0
H503 H 0.42009 0.08518 0.52943 0.0
Mn504 Mn 0.51215 0.37716 0.0718 0.0
Mn505 Mn 0.47615 0.37957 0.00403 0.0
C506 C 0.48487 0.38414 0.10229 0.0
C507 C 0.5365 0.39072 0.10586 0.0
C508 C 0.49243 0.3448 0.03515 0.0
O509 O 0.52292 0.37863 0.00898 0.0
O510 O 0.49814 0.38179 0.96671 0.0
C511 C 0.47957 0.41686 0.97369 0.0
N512 N 0.46991 0.40384 0.99412 0.0
C513 C 0.4456 0.42388 0.00756 0.0
C514 C 0.45523 0.43747 0.98633 0.0
C515 C 0.47229 0.43394 0.96937 0.0
C516 C 0.45344 0.40706 0.01035 0.0
H517 H 0.49274 0.41425 0.96091 0.0
C518 C 0.51508 0.38085 0.97102 0.0
O519 O 0.53585 0.37359 0.10076 0.0
O520 O 0.52341 0.39987 0.08954 0.0
N521 N 0.45412 0.37785 0.03601 0.0
C522 C 0.44721 0.3637 0.05872 0.0
C523 C 0.43055 0.36528 0.07962 0.0
C524 C 0.42114 0.38134 0.07681 0.0
C525 C 0.42848 0.39569 0.05301 0.0
C526 C 0.44507 0.39329 0.03254 0.0
H527 H 0.45444 0.35137 0.06127 0.0
O528 O 0.49742 0.3778 0.12768 0.0
O529 O 0.48872 0.38633 0.0596 0.0
O530 O 0.50468 0.35152 0.05958 0.0
O531 O 0.48124 0.3541 0.01286 0.0
C532 C 0.42019 0.41241 0.04984 0.0
C533 C 0.42874 0.42649 0.0271 0.0
H534 H 0.44975 0.45071 0.98334 0.0
H535 H 0.47985 0.44439 0.95321 0.0
H536 H 0.425 0.35417 0.09807 0.0
H537 H 0.40838 0.38257 0.09341 0.0
H538 H 0.40737 0.41466 0.06541 0.0
H539 H 0.42236 0.43936 0.0255 0.0
Mn540 Mn 0.12011 0.50979 0.57536 0.0
Mn541 Mn 0.12239 0.47152 0.51653 0.0
C542 C 0.11685 0.48298 0.61228 0.0
C543 C 0.10356 0.53306 0.6053 0.0
C544 C 0.15467 0.49367 0.54055 0.0
O545 O 0.11646 0.51785 0.5104 0.0
O546 O 0.11678 0.49144 0.47419 0.0
C547 C 0.08487 0.46826 0.48784 0.0
N548 N 0.09922 0.4615 0.51005 0.0
C549 C 0.08286 0.43546 0.53207 0.0
C550 C 0.06794 0.44208 0.50917 0.0
C551 C 0.06896 0.45856 0.48697 0.0
C552 C 0.09844 0.44559 0.5312 0.0
H553 H 0.08555 0.48098 0.47104 0.0
C554 C 0.11517 0.50842 0.47455 0.0
O555 O 0.1205 0.53475 0.59815 0.0
O556 O 0.09623 0.51827 0.59298 0.0
N557 N 0.12742 0.45142 0.55412 0.0
C558 C 0.14249 0.44766 0.57785 0.0
C559 C 0.14335 0.43204 0.60378 0.0
C560 C 0.12874 0.42047 0.60503 0.0
C561 C 0.11339 0.42461 0.58028 0.0
C562 C 0.11336 0.44027 0.55467 0.0
H563 H 0.15369 0.45659 0.57736 0.0
O564 O 0.12191 0.49698 0.63443 0.0
O565 O 0.11419 0.48511 0.56904 0.0
O566 O 0.14643 0.50566 0.56261 0.0
O567 O 0.14692 0.48047 0.52193 0.0
C568 C 0.09796 0.41405 0.58098 0.0
C569 C 0.08272 0.41945 0.55683 0.0
H570 H 0.05558 0.43474 0.50888 0.0
H571 H 0.05747 0.46381 0.46947 0.0
H572 H 0.15521 0.42899 0.62299 0.0
H573 H 0.1294 0.40854 0.62547 0.0
H574 H 0.09758 0.4019 0.60059 0.0
H575 H 0.07084 0.41136 0.55821 0.0
H576 H 0.0254 0.67358 0.06445 0.0
H577 H 0.02682 0.70577 0.05356 0.0
H578 H 0.97423 0.70523 0.99579 0.0
H579 H 0.97269 0.67318 0.00595 0.0
H580 H -0.0009 0.72383 0.94386 0.0
H581 H 0.00041 0.74465 0.12486 0.0
H582 H 0.01694 0.72867 0.10851 0.0
H583 H 0.99389 0.72262 0.1074 0.0
C584 C 0.01407 0.68032 0.04977 0.0
C585 C -0.00106 0.67075 0.03602 0.0
C586 C 0.0149 0.69872 0.04372 0.0
C587 C 0.00057 0.70785 0.02419 0.0
C588 C 0.98542 0.69839 0.0109 0.0
H589 H 0.97109 0.8173 0.0149 0.0
H590 H 0.97461 0.78558 0.02839 0.0
C591 C 0.98458 0.68006 0.0168 0.0
C592 C 0.00141 0.72721 0.01614 0.0
H593 H 0.00287 0.7673 0.06986 0.0
C594 C 3e-05 0.73336 0.97134 0.0
C595 C 0.00249 0.73954 0.05217 0.0
C596 C 0.00338 0.73362 0.10102 0.0
C597 C -0.00057 0.75157 0.96158 0.0
C598 C 0.00054 0.76391 0.99759 0.0
C599 C 0.00216 0.75777 0.04236 0.0
C600 C -0.00111 0.78323 0.98976 0.0
C601 C 0.99699 0.75744 0.91302 0.0
C602 C 0.01148 0.79243 0.96381 0.0
C603 C 0.0095 0.81062 0.9558 0.0
C604 C 0.99493 0.81992 0.97392 0.0
C605 C 0.98248 0.81062 0.00038 0.0
C606 C 0.98447 0.79247 0.00825 0.0
H607 H 0.99262 0.74634 0.89082 0.0
H608 H 0.98708 0.76831 0.91073 0.0
H609 H 0.0098 0.76252 0.89977 0.0
H610 H 0.02285 0.78556 0.94983 0.0
H611 H 0.01941 0.81737 0.93555 0.0
H612 H 0.67099 0.97199 0.51473 0.0
H613 H 0.70305 0.97385 0.52594 0.0
H614 H 0.7041 0.02398 0.45532 0.0
H615 H 0.6721 0.02213 0.44313 0.0
H616 H 0.72957 0.00136 0.42532 0.0
H617 H 0.73104 0.00486 0.61304 0.0
H618 H 0.71886 0.9861 0.5921 0.0
H619 H 0.71097 0.00819 0.58064 0.0
C620 C 0.67799 0.9835 0.50187 0.0
C621 C 0.66893 0.99692 0.47806 0.0
C622 C 0.69631 0.98458 0.50858 0.0
C623 C 0.7059 -0.0008 0.49214 0.0
C624 C 0.69692 0.01263 0.4685 0.0
H625 H 0.81709 0.01961 0.55841 0.0
H626 H 0.7849 0.0222 0.54946 0.0
C627 C 0.67862 0.01153 0.46154 0.0
C628 C 0.72541 3e-05 0.49753 0.0
H629 H 0.75864 -0.00124 0.57622 0.0
C630 C 0.73593 0.00094 0.45833 0.0
C631 C 0.73367 -0.00024 0.54065 0.0
C632 C 0.72305 -0.00014 0.58403 0.0
C633 C 0.75451 0.00105 0.461 0.0
C634 C 0.76276 -0.00016 0.50399 0.0
C635 C 0.75226 -0.00051 0.54328 0.0
C636 C 0.78225 -0.00156 0.50881 0.0
C637 C 0.76511 0.00253 0.41777 0.0
C638 C 0.79136 0.98411 0.48935 0.0
C639 C 0.80971 0.98261 0.4942 0.0
C640 C 0.81934 0.99533 0.51905 0.0
C641 C 0.81013 0.00959 0.53895 0.0
C642 C 0.79173 0.0111 0.53393 0.0
H643 H 0.75716 0.00854 0.38997 0.0
H644 H 0.77725 0.01065 0.42294 0.0
H645 H 0.76922 0.98907 0.4067 0.0
H646 H 0.78422 0.97397 0.47074 0.0
H647 H 0.8163 0.97135 0.47879 0.0
H648 H 0.53155 0.82404 0.97346 0.0
H649 H 0.52951 0.79202 0.96227 0.0
H650 H 0.48005 0.79101 0.0357 0.0
H651 H 0.48202 0.82304 0.04772 0.0
H652 H 0.50351 0.76511 0.06346 0.0
H653 H 0.49677 0.76499 0.87612 0.0
H654 H 0.51572 0.77714 0.89612 0.0
H655 H 0.49376 0.78476 0.90987 0.0
C656 C 0.52016 0.81707 0.98706 0.0
C657 C 0.50691 0.82617 0.01138 0.0
C658 C 0.51898 0.79876 0.98036 0.0
C659 C 0.50448 0.78922 0.99746 0.0
C660 C 0.49129 0.79818 0.02197 0.0
H661 H 0.47857 0.67926 0.93478 0.0
H662 H 0.4784 0.71161 0.94189 0.0
C663 C 0.49246 0.8165 0.02881 0.0
C664 C 0.50345 0.76975 0.99139 0.0
H665 H 0.5027 0.73707 0.91118 0.0
C666 C 0.50322 0.75897 0.03019 0.0
C667 C 0.50285 0.76181 0.94793 0.0
C668 C 0.50211 0.77276 0.90511 0.0
C669 C 0.50284 0.74042 0.02671 0.0
C670 C 0.50301 0.73247 0.98325 0.0
C671 C 0.50278 0.74324 0.94443 0.0
C672 C 0.50348 0.71297 0.97752 0.0
C673 C 0.50209 0.7295 0.06959 0.0
C674 C 0.51784 0.70312 0.99427 0.0
C675 C 0.51798 0.68466 0.9904 0.0
C676 C 0.5038 0.67569 0.96935 0.0
C677 C 0.48968 0.6857 0.95132 0.0
C678 C 0.48955 0.70419 0.95533 0.0
H679 H 0.49727 0.73743 0.09886 0.0
H680 H 0.49327 0.7178 0.06527 0.0
H681 H 0.51561 0.72463 0.07786 0.0
H682 H 0.52891 0.70971 0.0106 0.0
H683 H 0.52917 0.67742 0.00423 0.0
H684 H 0.67804 0.47572 0.56567 0.0
H685 H 0.70999 0.47751 0.55272 0.0
H686 H 0.7034 0.52872 0.48955 0.0
H687 H 0.67139 0.52702 0.50176 0.0
H688 H 0.72452 0.50578 0.43974 0.0
H689 H 0.74623 0.50836 0.61945 0.0
H690 H 0.73195 0.48992 0.60683 0.0
H691 H 0.72353 0.51218 0.60241 0.0
C692 C 0.68335 0.48744 0.54928 0.0
C693 C 0.6721 0.50124 0.5348 0.0
C694 C 0.70164 0.48846 0.54212 0.0
C695 C 0.70905 0.50335 0.52076 0.0
C696 C 0.69792 0.51715 0.50628 0.0
H697 H 0.82217 0.52588 0.5095 0.0
H698 H 0.79012 0.52767 0.52092 0.0
C699 C 0.67962 0.51614 0.51331 0.0
C700 C 0.72836 0.50424 0.51204 0.0
H701 H 0.76876 0.50319 0.56432 0.0
C702 C 0.73422 0.50533 0.46695 0.0
C703 C 0.74092 0.5039 0.54768 0.0
C704 C 0.73538 0.5037 0.59684 0.0
C705 C 0.75237 0.50562 0.45645 0.0
C706 C 0.76493 0.5045 0.49199 0.0
C707 C 0.75907 0.50387 0.53713 0.0
C708 C 0.78423 0.50376 0.48315 0.0
C709 C 0.75792 0.50728 0.40747 0.0
C710 C 0.79152 0.48969 0.4582 0.0
C711 C 0.80984 0.48862 0.45148 0.0
C712 C 0.82123 0.50154 0.46999 0.0
C713 C 0.81382 0.51567 0.49482 0.0
C714 C 0.79551 0.51674 0.50141 0.0
H715 H 0.74713 0.51292 0.38618 0.0
H716 H 0.76987 0.51581 0.40407 0.0
H717 H 0.76119 0.49392 0.39403 0.0
H718 H 0.78307 0.47934 0.44462 0.0
H719 H 0.81506 0.4775 0.43242 0.0
H720 H 0.01501 0.31995 0.02892 0.0
H721 H 0.01639 0.28771 0.03645 0.0
H722 H 0.98469 0.28189 0.91543 0.0
H723 H 0.98275 0.31414 0.90844 0.0
H724 H 0.97317 0.2605 0.98063 0.0
H725 H 0.04606 0.2533 0.96555 0.0
H726 H 0.03988 0.26803 0.01061 0.0
H727 H 0.03475 0.27381 0.95279 0.0
C728 C 0.00841 0.31182 0.00373 0.0
C729 C -0.0012 0.31963 0.968 0.0
C730 C 0.00931 0.29338 0.00793 0.0
C731 C 0.00094 0.28238 0.976 0.0
C732 C 0.99132 0.29013 0.94035 0.0
H733 H 0.02088 0.16908 0.9538 0.0
H734 H 0.019 0.20106 0.94113 0.0
C735 C 0.99022 0.30857 0.93642 0.0
C736 C 0.00168 0.2628 0.98061 0.0
H737 H 0.03019 0.22789 0.99194 0.0
C738 C 0.98564 0.25335 0.98278 0.0
C739 C 0.01795 0.25345 0.98268 0.0
C740 C 0.03562 0.26265 0.9773 0.0
C741 C 0.98542 0.23483 0.98783 0.0
C742 C 0.00169 0.22559 0.99221 0.0
C743 C 0.01772 0.23501 0.98915 0.0
C744 C 0.00242 0.20615 -0.00037 0.0
C745 C 0.96776 0.22537 0.98753 0.0
C746 C 0.99385 0.19839 0.03696 0.0
C747 C 0.99471 0.18008 0.044 0.0
C748 C 0.00446 0.1692 0.01431 0.0
C749 C 0.01326 0.17706 0.97735 0.0
C750 C 0.01221 0.19534 0.97004 0.0
H751 H 0.9574 0.23334 0.97007 0.0
H752 H 0.96875 0.21225 0.97052 0.0
H753 H 0.96334 0.22322 0.023 0.0
H754 H 0.98665 0.20653 0.06098 0.0
H755 H 0.98796 0.17449 0.07312 0.0
H756 H 0.3174 0.02157 0.47666 0.0
H757 H 0.28531 0.01924 0.46878 0.0
H758 H 0.28581 0.97012 0.54385 0.0
H759 H 0.31804 0.97242 0.55267 0.0
H760 H 0.26499 0.99291 0.42888 0.0
H761 H 0.24928 0.00021 0.61219 0.0
H762 H 0.27092 0.00514 0.58923 0.0
H763 H 0.26434 0.98251 0.59849 0.0
C764 C 0.31077 0.01022 0.49152 0.0
C765 C 0.32035 0.99721 0.51552 0.0
C766 C 0.29239 0.00893 0.48692 0.0
C767 C 0.28318 0.99464 0.5062 0.0
C768 C 0.29266 0.98143 0.52944 0.0
H769 H 0.17161 0.97386 0.44133 0.0
H770 H 0.20369 0.9708 0.45096 0.0
C771 C 0.31109 0.98273 0.53424 0.0
C772 C 0.26364 0.99376 0.50178 0.0
H773 H 0.22514 0.99541 0.56259 0.0
C774 C 0.25625 0.99335 0.45808 0.0
C775 C 0.25233 0.99455 0.53999 0.0
C776 C 0.25955 0.99578 0.58766 0.0
C777 C 0.23782 0.99392 0.45147 0.0
C778 C 0.22651 0.99458 0.48969 0.0
C779 C 0.23389 0.99478 0.53342 0.0
C780 C 0.20701 0.99603 0.48498 0.0
C781 C 0.23067 0.99446 0.40366 0.0
C782 C 0.1982 0.01101 0.50202 0.0
C783 C 0.17987 0.01275 0.49694 0.0
C784 C 0.16996 -0.00049 0.47471 0.0
C785 C 0.17883 0.98438 0.45825 0.0
C786 C 0.19718 0.98263 0.46356 0.0
H787 H 0.2411 -0.00195 0.37868 0.0
H788 H 0.22546 0.98116 0.39449 0.0
H789 H 0.21962 0.00416 0.40075 0.0
H790 H 0.20557 0.02148 0.51876 0.0
H791 H 0.17351 0.02458 0.51006 0.0
H792 H 0.46422 0.17601 0.00986 0.0
H793 H 0.46436 0.20803 0.0225 0.0
H794 H 0.51328 0.21253 0.94755 0.0
H795 H 0.51317 0.18054 0.93405 0.0
H796 H 0.48954 0.22856 0.06621 0.0
H797 H 0.4815 0.24947 0.88686 0.0
H798 H 0.47767 0.22697 0.90543 0.0
H799 H 0.49992 0.2348 0.89626 0.0
C800 C 0.475 0.18378 0.99587 0.0
C801 C 0.48866 0.17567 0.97076 0.0
C802 C 0.47505 0.20209 0.00319 0.0
C803 C 0.4887 0.21265 0.98547 0.0
C804 C 0.50243 0.20464 0.96072 0.0
H805 H 0.51636 0.32003 0.0653 0.0
H806 H 0.51507 0.28787 0.05506 0.0
C807 C 0.50237 0.18633 0.95322 0.0
C808 C 0.48873 0.23202 0.99372 0.0
H809 H 0.48827 0.27214 0.94012 0.0
C810 C 0.48921 0.23811 0.0387 0.0
C811 C 0.48806 0.2444 0.95773 0.0
C812 C 0.48658 0.23862 0.90886 0.0
C813 C 0.48928 0.25632 0.04866 0.0
C814 C 0.48921 0.2687 0.01261 0.0
C815 C 0.48848 0.2626 0.96767 0.0
C816 C 0.48969 0.28808 0.0206 0.0
C817 C 0.48914 0.26213 0.09764 0.0
C818 C 0.47598 0.29887 0.00404 0.0
C819 C 0.47673 0.31726 0.00945 0.0
C820 C 0.49127 0.32523 0.03145 0.0
C821 C 0.50491 0.31434 0.04847 0.0
C822 C 0.50417 0.29594 0.04285 0.0
H823 H 0.4844 0.25138 0.12042 0.0
H824 H 0.50284 0.26568 0.1081 0.0
H825 H 0.48056 0.27396 0.10245 0.0
H826 H 0.46471 0.29305 0.98668 0.0
H827 H 0.46596 0.32521 0.99604 0.0
H828 H 0.32259 0.47703 0.50944 0.0
H829 H 0.29063 0.47744 0.52188 0.0
H830 H 0.28681 0.52751 0.45169 0.0
H831 H 0.31888 0.5272 0.43851 0.0
H832 H 0.27041 0.50304 0.56789 0.0
H833 H 0.24978 0.496 0.38761 0.0
H834 H 0.27214 0.49156 0.40653 0.0
H835 H 0.26471 0.51404 0.39936 0.0
C836 C 0.31502 0.48815 0.49647 0.0
C837 C 0.32336 0.50208 0.47283 0.0
C838 C 0.29674 0.48835 0.50371 0.0
C839 C 0.28637 0.50241 0.48736 0.0
C840 C 0.29457 0.5164 0.46396 0.0
H841 H 0.17621 0.52112 0.56748 0.0
H842 H 0.20819 0.52406 0.55555 0.0
C843 C 0.31291 0.51622 0.45661 0.0
C844 C 0.267 0.50237 0.4954 0.0
H845 H 0.22697 0.49973 0.44165 0.0
C846 C 0.26088 0.50239 0.54035 0.0
C847 C 0.25468 0.50135 0.45931 0.0
C848 C 0.26059 0.50058 0.41046 0.0
C849 C 0.2427 0.50131 0.55024 0.0
C850 C 0.23037 0.50043 0.51414 0.0
C851 C 0.23649 0.50052 0.46919 0.0
C852 C 0.21108 0.49864 0.52222 0.0
C853 C 0.23687 0.50059 0.59916 0.0
C854 C 0.20212 0.48348 0.50692 0.0
C855 C 0.18386 0.48176 0.51346 0.0
C856 C 0.17417 0.49525 0.53529 0.0
C857 C 0.18324 0.51043 0.55078 0.0
C858 C 0.20153 0.51212 0.54414 0.0
H859 H 0.24808 0.4974 0.6223 0.0
H860 H 0.23144 0.5137 0.60914 0.0
H861 H 0.22627 0.49052 0.60394 0.0
H862 H 0.20928 0.47293 0.4899 0.0
H863 H 0.17735 0.46988 0.50114 0.0
H864 H 0.00899 0.62711 0.88994 0.0
H865 H 0.0245 0.62033 0.81895 0.0
H866 H 0.05767 0.58275 0.89013 0.0
H867 H 0.0431 0.5905 0.96134 0.0
H868 H 0.07673 0.59922 0.83253 0.0
H869 H 0.01531 0.57851 0.7428 0.0
H870 H 0.01516 0.60133 0.75992 0.0
H871 H 0.01541 0.58404 0.80217 0.0
C872 C 0.01968 0.61748 0.89023 0.0
C873 C 0.02483 0.60923 0.93088 0.0
C874 C 0.02843 0.6135 0.84965 0.0
C875 C 0.04197 0.60066 0.84878 0.0
C876 C 0.04727 0.59269 0.88973 0.0
H877 H 0.07266 0.52756 0.64977 0.0
H878 H 0.05812 0.54719 0.70339 0.0
C879 C 0.03893 0.59707 0.93043 0.0
C880 C 0.0505 0.59506 0.80559 0.0
H881 H 0.04192 0.57684 0.70184 0.0
C882 C 0.06912 0.59435 0.80387 0.0
C883 C 0.04056 0.58874 0.76809 0.0
C884 C 0.02052 0.58802 0.76836 0.0
C885 C 0.07806 0.58651 0.76724 0.0
C886 C 0.06811 0.58004 0.72992 0.0
C887 C 0.04955 0.58183 0.73035 0.0
C888 C 0.07629 0.56916 0.69338 0.0
C889 C 0.09793 0.5842 0.77059 0.0
C890 C 0.0911 0.57505 0.66857 0.0
C891 C 0.09981 0.56355 0.63857 0.0
C892 C 0.09343 0.54623 0.6318 0.0
C893 C 0.07789 0.54084 0.65416 0.0
C894 C 0.06953 0.55211 0.68489 0.0
H895 H 0.10281 0.58604 0.80585 0.0
H896 H 0.10201 0.5708 0.75889 0.0
H897 H 0.10456 0.59426 0.74898 0.0
H898 H 0.09622 0.58835 0.67324 0.0
H899 H 0.11167 0.56808 0.62136 0.0
H900 H 0.93998 0.1168 0.15608 0.0
H901 H 0.92162 0.10296 0.21508 0.0
H902 H 0.95343 0.0555 0.20736 0.0
H903 H 0.97177 0.0691 0.14862 0.0
H904 H 0.90257 0.06729 0.21514 0.0
H905 H 0.95642 0.07459 0.3428 0.0
H906 H 0.95561 0.08757 0.2913 0.0
H907 H 0.96293 0.06489 0.28961 0.0
C908 C 0.94292 0.10334 0.16656 0.0
C909 C 0.9574 0.09409 0.14794 0.0
C910 C 0.93242 0.09547 0.2002 0.0
C911 C 0.93635 0.07832 0.21578 0.0
C912 C 0.95034 0.06883 0.196 0.0
H913 H 0.88551 0.00065 0.38337 0.0
H914 H 0.89707 0.01864 0.3212 0.0
C915 C 0.96076 0.07662 0.16237 0.0
C916 C 0.92648 0.07052 0.25423 0.0
H917 H 0.93188 0.05662 0.36348 0.0
C918 C 0.90887 0.06507 0.24774 0.0
C919 C 0.93472 0.0679 0.29678 0.0
C920 C 0.95342 0.07415 0.30591 0.0
C921 C 0.89946 0.0564 0.28243 0.0
C922 C 0.90801 0.05304 0.32432 0.0
C923 C 0.9254 0.05912 0.33124 0.0
C924 C 0.89949 0.04265 0.36098 0.0
C925 C 0.8805 0.0509 0.27399 0.0
C926 C 0.89718 0.05014 0.40413 0.0
C927 C 0.89064 0.03988 0.43991 0.0
C928 C 0.88645 0.02185 0.43331 0.0
C929 C 0.88853 0.01448 0.38975 0.0
C930 C 0.89503 0.02478 0.354 0.0
H931 H 0.87444 0.05861 0.24585 0.0
H932 H 0.88018 0.03665 0.26448 0.0
H933 H 0.8723 0.05265 0.30496 0.0
H934 H 0.90067 0.06388 0.41026 0.0
H935 H 0.88924 0.04602 0.47292 0.0
H936 H 0.49195 0.87436 0.88125 0.0
H937 H 0.47407 0.88292 0.81548 0.0
H938 H 0.44351 0.91836 0.89995 0.0
H939 H 0.46062 0.9089 0.96626 0.0
H940 H 0.42253 0.9033 0.84246 0.0
H941 H 0.48115 0.92728 0.74686 0.0
H942 H 0.48245 0.90408 0.75978 0.0
H943 H 0.48264 0.92018 0.80503 0.0
C944 C 0.48135 0.88391 0.88568 0.0
C945 C 0.47774 0.89112 0.92863 0.0
C946 C 0.47122 0.8889 0.84805 0.0
C947 C 0.45777 0.9017 0.85236 0.0
C948 C 0.45387 0.90853 0.89561 0.0
H949 H 0.4202 0.9739 0.65329 0.0
H950 H 0.43563 0.95647 0.71031 0.0
C951 C 0.46366 0.90316 0.93348 0.0
C952 C 0.44799 0.90837 0.81196 0.0
H953 H 0.45373 0.92777 0.70837 0.0
C954 C 0.42935 0.90867 0.81311 0.0
C955 C 0.45689 0.9155 0.77374 0.0
C956 C 0.47687 0.91693 0.77138 0.0
C957 C 0.41938 0.91637 0.77795 0.0
C958 C 0.42828 0.92327 0.7395 0.0
C959 C 0.44689 0.92237 0.73765 0.0
C960 C 0.41889 0.93325 0.70315 0.0
C961 C 0.39952 0.91783 0.78365 0.0
C962 C 0.40443 0.92597 0.67934 0.0
C963 C 0.39525 0.93616 0.64715 0.0
C964 C 0.40075 0.95356 0.63739 0.0
C965 C 0.41567 0.96049 0.65982 0.0
C966 C 0.42453 0.95051 0.69252 0.0
H967 H 0.39545 0.91612 0.8196 0.0
H968 H 0.39459 0.9309 0.77161 0.0
H969 H 0.39296 0.90727 0.7635 0.0
H970 H 0.40014 0.9125 0.68586 0.0
H971 H 0.38386 0.93046 0.6301 0.0
H972 H 0.55892 0.3753 0.16742 0.0
H973 H 0.57649 0.3907 0.2254 0.0
H974 H 0.56247 0.44108 0.16591 0.0
H975 H 0.5446 0.42587 0.10867 0.0
H976 H 0.60444 0.41642 0.22736 0.0
H977 H 0.54079 0.44305 0.29358 0.0
H978 H 0.54171 0.42552 0.25201 0.0
H979 H 0.54484 0.44824 0.23508 0.0
C980 C 0.55993 0.38964 0.16609 0.0
C981 C 0.55018 0.39942 0.13401 0.0
C982 C 0.56995 0.3984 0.19924 0.0
C983 C 0.57039 0.41703 0.20051 0.0
C984 C 0.56195 0.42671 0.16607 0.0
H985 H 0.60307 0.49504 0.39872 0.0
H986 H 0.59448 0.47955 0.32936 0.0
C987 C 0.55181 0.418 0.1333 0.0
C988 C 0.57812 0.42637 0.24005 0.0
H989 H 0.56704 0.45376 0.32778 0.0
C990 C 0.5963 0.42458 0.24939 0.0
C991 C 0.56739 0.43685 0.26896 0.0
C992 C 0.54757 0.43843 0.26229 0.0
C993 C 0.60412 0.43337 0.28645 0.0
C994 C 0.5934 0.44403 0.31487 0.0
C995 C 0.57524 0.44571 0.3056 0.0
C996 C 0.60053 0.45336 0.35511 0.0
C997 C 0.62379 0.43144 0.29456 0.0
C998 C 0.60683 0.44373 0.39251 0.0
C999 C 0.61169 0.45253 0.43239 0.0
C1000 C 0.61029 0.47113 0.43561 0.0
C1001 C 0.60436 0.48073 0.39755 0.0
C1002 C 0.59946 0.47191 0.3578 0.0
H1003 H 0.63077 0.4262 0.2642 0.0
H1004 H 0.62978 0.44438 0.30411 0.0
H1005 H 0.626 0.42204 0.323 0.0
H1006 H 0.60744 0.42937 0.39139 0.0
H1007 H 0.61619 0.44469 0.46097 0.0
H1008 H 0.11319 0.93683 0.33965 0.0
H1009 H 0.09832 0.91924 0.28074 0.0
H1010 H 0.0524 0.95317 0.28988 0.0
H1011 H 0.06704 0.97077 0.34858 0.0
H1012 H 0.06174 0.90188 0.28012 0.0
H1013 H 0.07176 0.95608 0.15461 0.0
H1014 H 0.08462 0.95438 0.20617 0.0
H1015 H 0.06227 0.96262 0.20803 0.0
C1016 C 0.09983 0.94038 0.32958 0.0
C1017 C 0.09134 0.95526 0.34848 0.0
C1018 C 0.09137 0.93032 0.29599 0.0
C1019 C 0.07439 0.93509 0.28077 0.0
C1020 C 0.06559 0.94943 0.301 0.0
H1021 H 0.99667 0.88724 0.10528 0.0
H1022 H 0.0138 0.89856 0.1694 0.0
C1023 C 0.07398 0.95943 0.33458 0.0
C1024 C 0.06617 0.92582 0.24193 0.0
H1025 H 0.05332 0.9322 0.13217 0.0
C1026 C 0.05997 0.90841 0.24764 0.0
C1027 C 0.06412 0.93436 0.19957 0.0
C1028 C 0.07115 0.95285 0.19135 0.0
C1029 C 0.05124 0.89948 0.21222 0.0
C1030 C 0.04859 0.9083 0.17039 0.0
C1031 C 0.05529 0.92552 0.16438 0.0
C1032 C 0.03857 0.90016 0.13255 0.0
C1033 C 0.04497 0.8807 0.21972 0.0
C1034 C 0.04679 0.8975 0.09044 0.0
C1035 C 0.03704 0.8911 0.05359 0.0
C1036 C 0.01881 0.88738 0.05805 0.0
C1037 C 0.01068 0.8899 0.10056 0.0
C1038 C 0.02047 0.89626 0.13741 0.0
H1039 H 0.05192 0.87434 0.24873 0.0
H1040 H 0.03055 0.88083 0.22733 0.0
H1041 H 0.04706 0.8725 0.18889 0.0
H1042 H 0.06073 0.90057 0.08598 0.0
H1043 H 0.04376 0.88936 0.02144 0.0
H1044 H 0.55367 0.12705 0.82511 0.0
H1045 H 0.57192 0.11332 0.76579 0.0
H1046 H 0.55164 0.06179 0.80256 0.0
H1047 H 0.53335 0.07533 0.8616 0.0
H1048 H 0.59129 0.0653 0.78229 0.0
H1049 H 0.54512 0.09163 0.65051 0.0
H1050 H 0.5537 0.10677 0.69239 0.0
H1051 H 0.53862 0.08959 0.70922 0.0
C1052 C 0.55337 0.11276 0.82114 0.0
C1053 C 0.54198 0.10227 0.84775 0.0
C1054 C 0.56374 0.10497 0.78717 0.0
C1055 C 0.56294 0.0866 0.77967 0.0
C1056 C 0.55238 0.076 0.80788 0.0
H1057 H 0.59609 0.00438 0.60039 0.0
H1058 H 0.58726 0.02313 0.66379 0.0
C1059 C 0.54193 0.08377 0.84153 0.0
C1060 C 0.57194 0.07843 0.74036 0.0
H1061 H 0.56769 0.07248 0.62616 0.0
C1062 C 0.5863 0.06699 0.74803 0.0
C1063 C 0.5654 0.08078 0.69582 0.0
C1064 C 0.54981 0.09278 0.68612 0.0
C1065 C 0.59413 0.05753 0.71223 0.0
C1066 C 0.58704 0.05921 0.66793 0.0
C1067 C 0.57308 0.07116 0.66012 0.0
C1068 C 0.59311 0.04791 0.62977 0.0
C1069 C 0.6099 0.04582 0.72228 0.0
C1070 C 0.5988 0.0556 0.58891 0.0
C1071 C 0.60363 0.04489 0.55218 0.0
C1072 C 0.60283 0.02627 0.55563 0.0
C1073 C 0.59706 0.01865 0.59662 0.0
C1074 C 0.59214 0.02936 0.63313 0.0
H1075 H 0.61724 0.05052 0.75271 0.0
H1076 H 0.60521 0.03214 0.72932 0.0
H1077 H 0.61922 0.04535 0.69314 0.0
H1078 H 0.59947 0.0699 0.58542 0.0
H1079 H 0.60801 0.05121 0.52115 0.0
H1080 H 0.42309 0.54025 0.35453 0.0
H1081 H 0.43742 0.56095 0.30349 0.0
H1082 H 0.39511 0.59869 0.32457 0.0
H1083 H 0.38003 0.57731 0.3743 0.0
H1084 H 0.40129 0.59706 0.24022 0.0
H1085 H 0.46677 0.60339 0.31928 0.0
H1086 H 0.46267 0.58019 0.31203 0.0
H1087 H 0.44847 0.59313 0.34874 0.0
C1088 C 0.41694 0.55307 0.3491 0.0
C1089 C 0.40044 0.55718 0.36859 0.0
C1090 C 0.42529 0.56503 0.32013 0.0
C1091 C 0.41767 0.58166 0.31097 0.0
C1092 C 0.40137 0.58602 0.33141 0.0
H1093 H 0.48724 0.63578 0.11675 0.0
H1094 H 0.46976 0.63147 0.18594 0.0
C1095 C 0.39277 0.57384 0.35986 0.0
C1096 C 0.42594 0.59337 0.27631 0.0
H1097 H 0.46652 0.60542 0.23574 0.0
C1098 C 0.41551 0.5993 0.23982 0.0
C1099 C 0.44438 0.59699 0.27613 0.0
C1100 C 0.4561 0.59326 0.31655 0.0
C1101 C 0.42323 0.60724 0.20155 0.0
C1102 C 0.44197 0.60847 0.1987 0.0
C1103 C 0.4522 0.60404 0.23693 0.0
C1104 C 0.45132 0.61282 0.15561 0.0
C1105 C 0.41115 0.61404 0.16459 0.0
C1106 C 0.44681 0.60391 0.11529 0.0
C1107 C 0.45644 0.6068 0.07554 0.0
C1108 C 0.47123 0.61811 0.07568 0.0
C1109 C 0.47589 0.62695 0.11588 0.0
C1110 C 0.4659 0.62449 0.15536 0.0
H1111 H 0.3986 0.61925 0.17921 0.0
H1112 H 0.4175 0.62473 0.14442 0.0
H1113 H 0.40755 0.60292 0.14167 0.0
H1114 H 0.43619 0.59425 0.11473 0.0
H1115 H 0.45277 0.5996 0.04512 0.0
H1116 H 0.9278 0.36699 0.84069 0.0
H1117 H 0.90827 0.3802 0.78334 0.0
H1118 H 0.92843 0.43218 0.8164 0.0
H1119 H 0.94789 0.41917 0.87376 0.0
H1120 H 0.88998 0.42998 0.79761 0.0
H1121 H 0.93297 0.39908 0.66559 0.0
H1122 H 0.92362 0.38464 0.70789 0.0
H1123 H 0.93986 0.40088 0.72404 0.0
C1124 C 0.92779 0.38127 0.83644 0.0
C1125 C 0.93954 0.39203 0.86133 0.0
C1126 C 0.91667 0.38877 0.80358 0.0
C1127 C 0.91714 0.40711 0.7953 0.0
C1128 C 0.92794 0.41799 0.82226 0.0
H1129 H 0.88899 0.48783 0.60852 0.0
H1130 H 0.89549 0.46958 0.67464 0.0
C1131 C 0.93908 0.41052 0.85495 0.0
C1132 C 0.90787 0.41488 0.7558 0.0
H1133 H 0.91077 0.41847 0.6407 0.0
C1134 C 0.89432 0.42732 0.76321 0.0
C1135 C 0.91358 0.41132 0.71103 0.0
C1136 C 0.92837 0.39835 0.70133 0.0
C1137 C 0.88659 0.43663 0.72695 0.0
C1138 C 0.89292 0.4337 0.68237 0.0
C1139 C 0.90595 0.42071 0.67488 0.0
C1140 C 0.88735 0.44486 0.64346 0.0
C1141 C 0.87182 0.44957 0.7368 0.0
C1142 C 0.88094 0.43702 0.60349 0.0
C1143 C 0.87743 0.44741 0.56523 0.0
C1144 C 0.88032 0.46587 0.56617 0.0
C1145 C 0.88647 0.4737 0.60657 0.0
C1146 C 0.89006 0.46328 0.64466 0.0
H1147 H 0.86453 0.44585 0.76813 0.0
H1148 H 0.87756 0.46297 0.7422 0.0
H1149 H 0.86224 0.45031 0.70823 0.0
H1150 H 0.87892 0.4228 0.6017 0.0
H1151 H 0.87268 0.44093 0.53477 0.0
H1152 H 0.93964 0.37086 0.03581 0.0
H1153 H 0.92144 0.37806 0.10197 0.0
H1154 H 0.96788 0.39723 0.17218 0.0
H1155 H 0.98624 0.3897 0.10688 0.0
H1156 H 0.94594 0.37762 0.22776 0.0
H1157 H 0.90751 0.42862 0.13284 0.0
H1158 H 0.90671 0.40667 0.10927 0.0
H1159 H 0.92736 0.41861 0.11026 0.0
C1160 C 0.94602 0.37653 0.0654 0.0
C1161 C 0.9644 0.37985 0.0658 0.0
C1162 C 0.93557 0.38069 0.10313 0.0
C1163 C 0.94326 0.38848 0.14166 0.0
C1164 C 0.96166 0.39126 0.14274 0.0
H1165 H 0.91916 0.44713 0.37686 0.0
H1166 H 0.93189 0.42729 0.32012 0.0
C1167 C 0.97214 0.38698 0.10526 0.0
C1168 C 0.93219 0.39448 0.18029 0.0
H1169 H 0.9004 0.42463 0.20963 0.0
C1170 C 0.93586 0.38778 0.22377 0.0
C1171 C 0.91902 0.40772 0.17498 0.0
C1172 C 0.91496 0.41596 0.12944 0.0
C1173 C 0.92702 0.3943 0.26223 0.0
C1174 C 0.9143 0.40793 0.25701 0.0
C1175 C 0.9101 0.41409 0.21341 0.0
C1176 C 0.90657 0.4174 0.29631 0.0
C1177 C 0.93153 0.38674 0.30818 0.0
C1178 C 0.88811 0.41827 0.30212 0.0
C1179 C 0.88077 0.42961 0.33466 0.0
C1180 C 0.8918 0.44047 0.36133 0.0
C1181 C 0.91031 0.43894 0.35684 0.0
C1182 C 0.91762 0.42751 0.3246 0.0
H1183 H 0.93724 0.37319 0.30535 0.0
H1184 H 0.94156 0.39536 0.32476 0.0
H1185 H 0.91962 0.38621 0.33033 0.0
H1186 H 0.87937 0.41067 0.28032 0.0
H1187 H 0.86646 0.43056 0.33722 0.0
H1188 H 0.06149 0.88072 0.85607 0.0
H1189 H 0.08058 0.89664 0.80223 0.0
H1190 H 0.03894 0.93508 0.78052 0.0
H1191 H 0.02036 0.91987 0.83547 0.0
H1192 H 0.07686 0.90195 0.71622 0.0
H1193 H 0.07925 0.96796 0.79569 0.0
H1194 H 0.07073 0.94884 0.82533 0.0
H1195 H 0.05655 0.96162 0.78828 0.0
C1196 C 0.05661 0.89277 0.84041 0.0
C1197 C 0.03952 0.89915 0.85034 0.0
C1198 C 0.06749 0.90183 0.8096 0.0
C1199 C 0.06138 0.91732 0.78799 0.0
C1200 C 0.04427 0.92358 0.79789 0.0
H1201 H 0.08622 0.95611 0.52278 0.0
H1202 H 0.07696 0.93912 0.58927 0.0
C1203 C 0.03357 0.91476 0.82915 0.0
C1204 C 0.07218 0.92632 0.75263 0.0
H1205 H 0.08376 0.96739 0.71412 0.0
C1206 C 0.07868 0.91623 0.71618 0.0
C1207 C 0.07502 0.94489 0.7529 0.0
C1208 C 0.07019 0.95637 0.79299 0.0
C1209 C 0.08699 0.92431 0.6789 0.0
C1210 C 0.08816 0.94307 0.67711 0.0
C1211 C 0.08258 0.95304 0.71477 0.0
C1212 C 0.09447 0.95275 0.63617 0.0
C1213 C 0.09446 0.91258 0.64209 0.0
C1214 C 0.1069 0.96656 0.64035 0.0
C1215 C 0.11169 0.97672 0.60264 0.0
C1216 C 0.10439 0.97305 0.5598 0.0
C1217 C 0.09222 0.95905 0.55533 0.0
C1218 C 0.08707 0.9492 0.5933 0.0
H1219 H 0.09871 0.89955 0.65605 0.0
H1220 H 0.084 0.90995 0.61644 0.0
H1221 H 0.106 0.91884 0.62501 0.0
H1222 H 0.11277 0.96965 0.67297 0.0
H1223 H 0.12116 0.98741 0.60695 0.0
H1224 H 0.5691 0.02969 0.3432 0.0
H1225 H 0.55562 0.04808 0.2843 0.0
H1226 H 0.603 0.08001 0.27769 0.0
H1227 H 0.61676 0.06157 0.33676 0.0
H1228 H 0.56451 0.09797 0.27819 0.0
H1229 H 0.57845 0.04618 0.14836 0.0
H1230 H 0.56935 0.0387 0.2015 0.0
H1231 H 0.5912 0.04816 0.20007 0.0
C1232 C 0.57661 0.04075 0.32973 0.0
C1233 C 0.59405 0.04411 0.34442 0.0
C1234 C 0.56888 0.05122 0.29608 0.0
C1235 C 0.57839 0.06526 0.27663 0.0
C1236 C 0.5955 0.06919 0.29244 0.0
H1237 H 0.5458 0.11199 0.01882 0.0
H1238 H 0.56403 0.10203 0.08253 0.0
C1239 C 0.60332 0.05865 0.3261 0.0
C1240 C 0.57072 0.07499 0.23786 0.0
H1241 H 0.55943 0.06969 0.12667 0.0
C1242 C 0.56354 0.09193 0.24488 0.0
C1243 C 0.56969 0.06708 0.19452 0.0
C1244 C 0.57767 0.04907 0.18526 0.0
C1245 C 0.55469 0.10093 0.20977 0.0
C1246 C 0.55291 0.09263 0.16695 0.0
C1247 C 0.56075 0.07599 0.15959 0.0
C1248 C 0.54218 0.10044 0.12989 0.0
C1249 C 0.54722 0.11916 0.21881 0.0
C1250 C 0.52386 0.10286 0.13548 0.0
C1251 C 0.51336 0.10848 0.09914 0.0
C1252 C 0.52099 0.11173 0.05636 0.0
C1253 C 0.53945 0.10965 0.05122 0.0
C1254 C 0.54992 0.10397 0.08759 0.0
H1255 H 0.55391 0.12562 0.24806 0.0
H1256 H 0.54858 0.12784 0.18856 0.0
H1257 H 0.53289 0.11797 0.22697 0.0
H1258 H 0.51756 0.09984 0.16759 0.0
H1259 H 0.49921 0.10989 0.10441 0.0
H1260 H 0.39572 0.50492 0.60574 0.0
H1261 H 0.40425 0.52101 0.67423 0.0
H1262 H 0.38801 0.57029 0.61235 0.0
H1263 H 0.3798 0.5544 0.54327 0.0
H1264 H 0.42059 0.57254 0.64831 0.0
H1265 H 0.37533 0.54277 0.77508 0.0
H1266 H 0.38787 0.52638 0.74476 0.0
H1267 H 0.37213 0.54002 0.71479 0.0
C1268 C 0.39375 0.51916 0.60681 0.0
C1269 C 0.38709 0.52836 0.5689 0.0
C1270 C 0.3985 0.52832 0.6462 0.0
C1271 C 0.39645 0.54681 0.64875 0.0
C1272 C 0.38958 0.556 0.61124 0.0
H1273 H 0.43462 0.62347 0.84941 0.0
H1274 H 0.4162 0.60921 0.79141 0.0
C1275 C 0.38495 0.54688 0.57172 0.0
C1276 C 0.40288 0.55674 0.68898 0.0
H1277 H 0.40031 0.55892 0.80457 0.0
C1278 C 0.41595 0.56975 0.68239 0.0
C1279 C 0.39682 0.55306 0.73345 0.0
C1280 C 0.38214 0.53992 0.74247 0.0
C1281 C 0.42361 0.57873 0.71915 0.0
C1282 C 0.41791 0.57471 0.76365 0.0
C1283 C 0.4046 0.56196 0.77033 0.0
C1284 C 0.42657 0.58286 0.80352 0.0
C1285 C 0.43823 0.59198 0.71027 0.0
C1286 C 0.43785 0.57259 0.83075 0.0
C1287 C 0.44838 0.58067 0.86385 0.0
C1288 C 0.44771 0.59915 0.87033 0.0
C1289 C 0.43547 0.60922 0.84512 0.0
C1290 C 0.42499 0.60112 0.81189 0.0
H1291 H 0.44308 0.5914 0.67471 0.0
H1292 H 0.43319 0.60559 0.71675 0.0
H1293 H 0.44962 0.58962 0.73345 0.0
H1294 H 0.4392 0.55846 0.82479 0.0
H1295 H 0.45761 0.57254 0.88287 0.0
H1296 H 0.91832 0.01785 0.66113 0.0
H1297 H 0.93325 0.03506 0.71956 0.0
H1298 H 0.89771 0.07897 0.69483 0.0
H1299 H 0.88195 0.06123 0.63773 0.0
H1300 H 0.95125 0.06372 0.71901 0.0
H1301 H 0.89243 0.07517 0.82825 0.0
H1302 H 0.89183 0.06049 0.78004 0.0
H1303 H 0.89001 0.08413 0.77224 0.0
C1304 C 0.91368 0.0312 0.66797 0.0
C1305 C 0.89891 0.03818 0.64502 0.0
C1306 C 0.92224 0.04105 0.70148 0.0
C1307 C 0.91644 0.05824 0.71238 0.0
C1308 C 0.90211 0.06555 0.68814 0.0
H1309 H 0.98814 0.11978 0.88696 0.0
H1310 H 0.97029 0.11001 0.82228 0.0
C1311 C 0.89323 0.05549 0.65518 0.0
C1312 C 0.92561 0.06821 0.74913 0.0
H1313 H 0.91919 0.08891 0.85091 0.0
C1314 C 0.94422 0.06924 0.74784 0.0
C1315 C 0.91647 0.07524 0.78708 0.0
C1316 C 0.89661 0.07358 0.79234 0.0
C1317 C 0.95397 0.07655 0.7838 0.0
C1318 C 0.94484 0.08397 0.82126 0.0
C1319 C 0.9262 0.08336 0.82208 0.0
C1320 C 0.95439 0.09148 0.86106 0.0
C1321 C 0.97398 0.07534 0.78204 0.0
C1322 C 0.95062 0.08525 0.90498 0.0
C1323 C 0.96039 0.09132 0.94224 0.0
C1324 C 0.9743 0.10348 0.93606 0.0
C1325 C 0.97767 0.11016 0.89244 0.0
C1326 C 0.96757 0.10448 0.85543 0.0
H1327 H 0.97847 0.06467 0.75869 0.0
H1328 H 0.97944 0.08806 0.76925 0.0
H1329 H 0.97967 0.07269 0.81612 0.0
H1330 H 0.94046 0.0753 0.91033 0.0
H1331 H 0.95754 0.08598 0.97556 0.0
H1332 H 0.39114 0.94822 0.46506 0.0
H1333 H 0.40339 0.93163 0.40112 0.0
H1334 H 0.39922 0.97809 0.31647 0.0
H1335 H 0.3869 0.99487 0.38002 0.0
H1336 H 0.38793 0.94408 0.27506 0.0
H1337 H 0.4549 0.94249 0.35494 0.0
H1338 H 0.43678 0.93478 0.38937 0.0
H1339 H 0.43779 0.9577 0.37297 0.0
C1340 C 0.39266 0.95493 0.4328 0.0
C1341 C 0.38815 0.97297 0.4279 0.0
C1342 C 0.39969 0.9454 0.39633 0.0
C1343 C 0.40234 0.95371 0.35434 0.0
C1344 C 0.39727 0.97147 0.34872 0.0
H1345 H 0.47337 0.92765 0.13764 0.0
H1346 H 0.4549 0.94187 0.19506 0.0
C1347 C 0.39028 0.98105 0.38517 0.0
C1348 C 0.41134 0.94421 0.31699 0.0
H1349 H 0.45156 0.92755 0.28529 0.0
C1350 C 0.40182 0.94037 0.27723 0.0
C1351 C 0.42948 0.93958 0.31998 0.0
C1352 C 0.44044 0.94393 0.36141 0.0
C1353 C 0.41004 0.93195 0.24024 0.0
C1354 C 0.42816 0.92729 0.24337 0.0
C1355 C 0.43763 0.9311 0.28318 0.0
C1356 C 0.4379 0.91908 0.20522 0.0
C1357 C 0.39947 0.92848 0.19771 0.0
C1358 C 0.43428 0.90161 0.1915 0.0
C1359 C 0.44486 0.89339 0.15862 0.0
C1360 C 0.45925 0.90254 0.13916 0.0
C1361 C 0.46242 0.92023 0.15197 0.0
C1362 C 0.45188 0.92839 0.1848 0.0
H1363 H 0.38652 0.93555 0.1979 0.0
H1364 H 0.40709 0.93264 0.16728 0.0
H1365 H 0.39685 0.91403 0.19473 0.0
H1366 H 0.42367 0.89415 0.20733 0.0
H1367 H 0.44214 0.87973 0.14954 0.0
H1368 H 0.55031 0.37281 0.96062 0.0
H1369 H 0.56885 0.3779 0.89384 0.0
H1370 H 0.52365 0.39906 0.82205 0.0
H1371 H 0.50491 0.39358 0.88808 0.0
H1372 H 0.54443 0.37762 0.76788 0.0
H1373 H 0.5858 0.42712 0.85996 0.0
H1374 H 0.5853 0.40538 0.88484 0.0
H1375 H 0.56539 0.41852 0.88305 0.0
C1376 C 0.54429 0.37848 0.93056 0.0
C1377 C 0.52615 0.38298 0.9299 0.0
C1378 C 0.55492 0.38141 0.89247 0.0
C1379 C 0.5477 0.38916 0.85332 0.0
C1380 C 0.5295 0.39309 0.85199 0.0
H1381 H 0.57355 0.44587 0.61911 0.0
H1382 H 0.56043 0.42567 0.67432 0.0
C1383 C 0.51881 0.39 0.88984 0.0
C1384 C 0.55913 0.39408 0.81442 0.0
H1385 H 0.59255 0.42215 0.78348 0.0
C1386 C 0.55508 0.38722 0.77132 0.0
C1387 C 0.57307 0.40655 0.81903 0.0
C1388 C 0.57761 0.41496 0.86408 0.0
C1389 C 0.56424 0.39292 0.73252 0.0
C1390 C 0.57768 0.40589 0.737 0.0
C1391 C 0.5823 0.4121 0.78027 0.0
C1392 C 0.58554 0.41498 0.69732 0.0
C1393 C 0.55924 0.38532 0.68696 0.0
C1394 C 0.60401 0.41544 0.69129 0.0
C1395 C 0.61158 0.427 0.65959 0.0
C1396 C 0.60075 0.43848 0.63411 0.0
C1397 C 0.58222 0.4372 0.63831 0.0
C1398 C 0.57469 0.42556 0.66964 0.0
H1399 H 0.55309 0.37199 0.69047 0.0
H1400 H 0.54941 0.3942 0.67046 0.0
H1401 H 0.571 0.38427 0.66442 0.0
H1402 H 0.6126 0.40748 0.71264 0.0
H1403 H 0.6259 0.42775 0.6572 0.0
H1404 H 0.11399 0.54424 0.45802 0.0
H1405 H 0.10525 0.5591 0.38772 0.0
H1406 H 0.09835 0.50835 0.32263 0.0
H1407 H 0.10701 0.49327 0.39263 0.0
H1408 H 0.11954 0.55475 0.29172 0.0
H1409 H 0.04894 0.53528 0.31746 0.0
H1410 H 0.06493 0.53533 0.36313 0.0
H1411 H 0.06526 0.51792 0.32164 0.0
C1412 C 0.11074 0.53619 0.42873 0.0
C1413 C 0.11106 0.51752 0.43119 0.0
C1414 C 0.10584 0.54474 0.38854 0.0
C1415 C 0.10109 0.53479 0.35027 0.0
C1416 C 0.10191 0.51622 0.35202 0.0
H1417 H 0.04379 0.56532 0.10854 0.0
H1418 H 0.06181 0.54871 0.16277 0.0
C1419 C 0.10687 0.50764 0.39208 0.0
C1420 C 0.09409 0.54381 0.30951 0.0
H1421 H 0.05572 0.55115 0.25123 0.0
C1422 C 0.10561 0.55396 0.28259 0.0
C1423 C 0.07593 0.54269 0.29796 0.0
C1424 C 0.06295 0.53234 0.32659 0.0
C1425 C 0.09941 0.56294 0.24389 0.0
C1426 C 0.08117 0.56201 0.23265 0.0
C1427 C 0.06973 0.55175 0.25963 0.0
C1428 C 0.07326 0.572 0.19426 0.0
C1429 C 0.11248 0.57311 0.21516 0.0
C1430 C 0.07418 0.59062 0.19284 0.0
C1431 C 0.06405 0.60016 0.16137 0.0
C1432 C 0.05259 0.59121 0.13149 0.0
C1433 C 0.05244 0.57257 0.13131 0.0
C1434 C 0.06273 0.56306 0.1623 0.0
H1435 H 0.12619 0.56796 0.21953 0.0
H1436 H 0.1089 0.57244 0.17865 0.0
H1437 H 0.11244 0.58724 0.22572 0.0
H1438 H 0.08189 0.59784 0.21774 0.0
H1439 H 0.06431 0.61453 0.16252 0.0
H1440 H 0.91289 0.5179 0.40592 0.0
H1441 H 0.92895 0.54046 0.36312 0.0
H1442 H 0.88273 0.54867 0.27895 0.0
H1443 H 0.86614 0.52737 0.32521 0.0
H1444 H 0.93833 0.53797 0.28293 0.0
H1445 H 0.89732 0.59862 0.29014 0.0
H1446 H 0.89334 0.57986 0.3267 0.0
H1447 H 0.8845 0.58023 0.26986 0.0
C1448 C 0.90591 0.52527 0.37992 0.0
C1449 C 0.88806 0.52165 0.37033 0.0
C1450 C 0.91516 0.53794 0.35486 0.0
C1451 C 0.90701 0.54662 0.31814 0.0
C1452 C 0.88917 0.54277 0.30811 0.0
H1453 H 0.97352 0.58086 0.09587 0.0
H1454 H 0.95146 0.56609 0.14318 0.0
C1455 C 0.87974 0.53046 0.33419 0.0
C1456 C 0.91785 0.5579 0.28736 0.0
H1457 H 0.91864 0.59716 0.22929 0.0
C1458 C 0.93407 0.55102 0.27182 0.0
C1459 C 0.91249 0.57502 0.27295 0.0
C1460 C 0.89605 0.58393 0.29122 0.0
C1461 C 0.94497 0.56061 0.24227 0.0
C1462 C 0.93905 0.57719 0.2254 0.0
C1463 C 0.92298 0.58427 0.2414 0.0
C1464 C 0.94968 0.58746 0.19213 0.0
C1465 C 0.96295 0.55299 0.23063 0.0
C1466 C 0.95494 0.60495 0.20181 0.0
C1467 C 0.96684 0.61378 0.17325 0.0
C1468 C 0.97354 0.60528 0.13453 0.0
C1469 C 0.96792 0.588 0.12433 0.0
C1470 C 0.95566 0.57939 0.15203 0.0
H1471 H 0.96769 0.54371 0.25733 0.0
H1472 H 0.96196 0.54537 0.19853 0.0
H1473 H 0.97305 0.56359 0.22635 0.0
H1474 H 0.95049 0.61147 0.23251 0.0
H1475 H 0.97132 0.62698 0.18225 0.0
H1476 H 0.8573 0.95864 0.66439 0.0
H1477 H 0.87137 0.93646 0.71372 0.0
H1478 H 0.91811 0.93752 0.62927 0.0
H1479 H 0.90493 0.96104 0.58368 0.0
H1480 H 0.88696 0.90407 0.71213 0.0
H1481 H 0.93723 0.95595 0.74621 0.0
H1482 H 0.9176 0.96028 0.7132 0.0
H1483 H 0.93674 0.95008 0.68737 0.0
C1484 C 0.87042 0.95379 0.65596 0.0
C1485 C 0.87986 0.96115 0.61947 0.0
C1486 C 0.87842 0.94109 0.68397 0.0
C1487 C 0.89594 0.93562 0.6757 0.0
C1488 C 0.90472 0.94183 0.63686 0.0
H1489 H 0.9593 0.85754 0.82081 0.0
H1490 H 0.93693 0.8714 0.77175 0.0
C1491 C 0.89701 0.95495 0.61003 0.0
C1492 C 0.90589 0.92549 0.71057 0.0
H1493 H 0.94357 0.92724 0.77426 0.0
C1494 C 0.89929 0.90913 0.72605 0.0
C1495 C 0.92168 0.93239 0.72978 0.0
C1496 C 0.92861 0.95072 0.71868 0.0
C1497 C 0.90834 0.89929 0.75945 0.0
C1498 C 0.9247 0.90573 0.77648 0.0
C1499 C 0.93108 0.92219 0.76123 0.0
C1500 C 0.9357 0.89594 0.81001 0.0
C1501 C 0.90008 0.88237 0.77684 0.0
C1502 C 0.94263 0.90509 0.84757 0.0
C1503 C 0.95589 0.8975 0.8741 0.0
C1504 C 0.96183 0.88021 0.86538 0.0
C1505 C 0.95446 0.8707 0.82903 0.0
C1506 C 0.94155 0.87854 0.80133 0.0
H1507 H 0.88543 0.88249 0.77243 0.0
H1508 H 0.90538 0.87097 0.75723 0.0
H1509 H 0.90315 0.88023 0.81328 0.0
H1510 H 0.9385 0.91857 0.85485 0.0
H1511 H 0.96209 0.9055 0.90017 0.0
H1512 H 0.53667 0.91234 0.094 0.0
H1513 H 0.56016 0.92304 0.14376 0.0
H1514 H 0.56776 0.86993 0.1954 0.0
H1515 H 0.54344 0.85943 0.14686 0.0
H1516 H 0.56458 0.89046 0.26212 0.0
H1517 H 0.61224 0.92395 0.15004 0.0
H1518 H 0.5903 0.93107 0.13537 0.0
H1519 H 0.59632 0.90797 0.12949 0.0
C1520 C 0.54382 0.90287 0.11478 0.0
C1521 C 0.53862 0.88502 0.116 0.0
C1522 C 0.55735 0.90896 0.14311 0.0
C1523 C 0.5661 0.89726 0.17286 0.0
C1524 C 0.56134 0.87921 0.17261 0.0
H1525 H 0.63798 0.96009 0.34249 0.0
H1526 H 0.62901 0.93496 0.29472 0.0
C1527 C 0.54753 0.87319 0.14484 0.0
C1528 C 0.57814 0.90446 0.20843 0.0
H1529 H 0.60918 0.93668 0.22574 0.0
C1530 C 0.57464 0.90026 0.254 0.0
C1531 C 0.59177 0.91677 0.19841 0.0
C1532 C 0.59802 0.92003 0.1506 0.0
C1533 C 0.58332 0.90911 0.28953 0.0
C1534 C 0.59511 0.92317 0.27936 0.0
C1535 C 0.59975 0.92629 0.23389 0.0
C1536 C 0.60134 0.9359 0.31452 0.0
C1537 C 0.57978 0.90329 0.33756 0.0
C1538 C 0.58893 0.94456 0.34242 0.0
C1539 C 0.59414 0.95859 0.37033 0.0
C1540 C 0.61181 0.96436 0.37051 0.0
C1541 C 0.62434 0.95557 0.34345 0.0
C1542 C 0.6192 0.94129 0.31611 0.0
H1543 H 0.57621 0.88899 0.33899 0.0
H1544 H 0.59162 0.90553 0.35914 0.0
H1545 H 0.56844 0.91091 0.3516 0.0
H1546 H 0.57497 0.94125 0.34065 0.0
H1547 H 0.58414 0.96562 0.38967 0.0
H1548 H 0.63098 0.52296 0.68739 0.0
H1549 H 0.61633 0.54345 0.74025 0.0
H1550 H 0.56784 0.53902 0.66294 0.0
H1551 H 0.58202 0.51743 0.61295 0.0
H1552 H 0.60087 0.57458 0.73683 0.0
H1553 H 0.55031 0.52484 0.78386 0.0
H1554 H 0.56908 0.51935 0.7488 0.0
H1555 H 0.54949 0.52922 0.72421 0.0
C1556 C 0.61723 0.52655 0.6817 0.0
C1557 C 0.60773 0.51915 0.6454 0.0
C1558 C 0.60889 0.53825 0.71173 0.0
C1559 C 0.59087 0.54255 0.70608 0.0
C1560 C 0.5816 0.53558 0.66876 0.0
H1561 H 0.53199 0.6278 0.83214 0.0
H1562 H 0.55312 0.61039 0.78753 0.0
C1563 C 0.58981 0.52358 0.63954 0.0
C1564 C 0.5815 0.55357 0.74025 0.0
H1565 H 0.5441 0.55478 0.805 0.0
C1566 C 0.58855 0.5702 0.7522 0.0
C1567 C 0.56571 0.54765 0.76141 0.0
C1568 C 0.55835 0.5292 0.7543 0.0
C1569 C 0.57993 0.58127 0.78363 0.0
C1570 C 0.5634 0.5759 0.802 0.0
C1571 C 0.55666 0.55908 0.79081 0.0
C1572 C 0.5525 0.58746 0.83195 0.0
C1573 C 0.58883 0.59839 0.79736 0.0
C1574 C 0.5447 0.58033 0.87124 0.0
C1575 C 0.53208 0.58999 0.89542 0.0
C1576 C 0.52764 0.60731 0.88231 0.0
C1577 C 0.5357 0.61468 0.84378 0.0
C1578 C 0.54793 0.60479 0.8186 0.0
H1579 H 0.6035 0.59732 0.79451 0.0
H1580 H 0.58447 0.60916 0.77424 0.0
H1581 H 0.58545 0.60215 0.83271 0.0
H1582 H 0.54779 0.56694 0.88213 0.0
H1583 H 0.52528 0.58363 0.92339 0.0
H1584 H 0.12971 0.46615 0.68737 0.0
H1585 H 0.11348 0.44545 0.73644 0.0
H1586 H 0.06919 0.44665 0.64343 0.0
H1587 H 0.08466 0.46854 0.5974 0.0
H1588 H 0.05781 0.45222 0.72183 0.0
H1589 H 0.10228 0.39405 0.73528 0.0
H1590 H 0.11323 0.41412 0.75217 0.0
H1591 H 0.10585 0.41151 0.69441 0.0
C1592 C 0.11665 0.46162 0.67717 0.0
C1593 C 0.1087 0.46828 0.63762 0.0
C1594 C 0.10745 0.44967 0.70492 0.0
C1595 C 0.09022 0.4441 0.69322 0.0
C1596 C 0.0825 0.45056 0.65311 0.0
H1597 H 0.02605 0.36369 0.82676 0.0
H1598 H 0.04789 0.37953 0.78014 0.0
C1599 C 0.09147 0.46283 0.62627 0.0
C1600 C 0.0793 0.43335 0.72499 0.0
H1601 H 0.07861 0.39568 0.78954 0.0
C1602 C 0.06235 0.43976 0.73618 0.0
C1603 C 0.08508 0.41702 0.7436 0.0
C1604 C 0.10253 0.40868 0.73037 0.0
C1605 C 0.051 0.43033 0.76496 0.0
C1606 C 0.05712 0.41449 0.78562 0.0
C1607 C 0.07405 0.40799 0.77443 0.0
C1608 C 0.04576 0.40424 0.81735 0.0
C1609 C 0.03233 0.43723 0.7714 0.0
C1610 C 0.0377 0.41265 0.85452 0.0
C1611 C 0.02486 0.4038 0.88001 0.0
C1612 C 0.0207 0.38603 0.87076 0.0
C1613 C 0.02937 0.3773 0.83507 0.0
C1614 C 0.04187 0.38632 0.80863 0.0
H1615 H 0.02814 0.44575 0.74256 0.0
H1616 H 0.02263 0.42621 0.77469 0.0
H1617 H 0.03179 0.44546 0.80257 0.0
H1618 H 0.04078 0.42631 0.8627 0.0
H1619 H 0.01777 0.41105 0.90603 0.0
H1620 H 0.04198 0.13698 0.14814 0.0
H1621 H 0.06691 0.127 0.19535 0.0
H1622 H 0.05884 0.07339 0.14768 0.0
H1623 H 0.03475 0.08357 0.0991 0.0
H1624 H 0.06477 0.10721 0.26357 0.0
H1625 H 0.11092 0.07255 0.14983 0.0
H1626 H 0.09475 0.08833 0.12958 0.0
H1627 H 0.08882 0.06529 0.13735 0.0
C1628 C 0.04609 0.12321 0.14665 0.0
C1629 C 0.03687 0.11109 0.11925 0.0
C1630 C 0.06025 0.11748 0.17368 0.0
C1631 C 0.06507 0.09945 0.17467 0.0
C1632 C 0.05599 0.08746 0.14637 0.0
H1633 H 0.08511 0.03329 0.39408 0.0
H1634 H 0.07576 0.05744 0.34461 0.0
C1635 C 0.04211 0.09325 0.11873 0.0
C1636 C 0.07757 0.09262 0.20968 0.0
H1637 H 0.10868 0.06043 0.22642 0.0
C1638 C 0.07469 0.0973 0.25524 0.0
C1639 C 0.09104 0.08018 0.19933 0.0
C1640 C 0.09671 0.07647 0.15126 0.0
C1641 C 0.08378 0.08875 0.29058 0.0
C1642 C 0.09536 0.07451 0.28034 0.0
C1643 C 0.09942 0.07096 0.23471 0.0
C1644 C 0.10184 0.06198 0.31569 0.0
C1645 C 0.08086 0.09505 0.3385 0.0
C1646 C 0.11959 0.0562 0.3159 0.0
C1647 C 0.12481 0.04201 0.34346 0.0
C1648 C 0.1125 0.03373 0.37216 0.0
C1649 C 0.09497 0.03993 0.3734 0.0
C1650 C 0.08966 0.05384 0.34524 0.0
H1651 H 0.07775 0.10947 0.33929 0.0
H1652 H 0.06939 0.08793 0.35353 0.0
H1653 H 0.09279 0.09263 0.35963 0.0
H1654 H 0.12923 0.06214 0.29326 0.0
H1655 H 0.13832 0.03715 0.34142 0.0
H1656 H 0.40554 0.03116 0.58448 0.0
H1657 H 0.41854 0.05405 0.63239 0.0
H1658 H 0.37189 0.05332 0.71718 0.0
H1659 H 0.35796 0.03185 0.6656 0.0
H1660 H 0.38655 0.08565 0.71874 0.0
H1661 H 0.43863 0.03517 0.74724 0.0
H1662 H 0.4379 0.04165 0.68885 0.0
H1663 H 0.41908 0.03062 0.71407 0.0
C1664 C 0.3976 0.03674 0.61152 0.0
C1665 C 0.38049 0.03028 0.62031 0.0
C1666 C 0.40523 0.04947 0.6397 0.0
C1667 C 0.39642 0.05498 0.67919 0.0
C1668 C 0.37897 0.04921 0.68698 0.0
H1669 H 0.46468 0.08678 0.89974 0.0
H1670 H 0.44129 0.07235 0.85629 0.0
C1671 C 0.37105 0.03692 0.65766 0.0
C1672 C 0.40623 0.06496 0.71463 0.0
H1673 H 0.44458 0.06401 0.77578 0.0
C1674 C 0.39918 0.08089 0.73159 0.0
C1675 C 0.4224 0.05843 0.73261 0.0
C1676 C 0.42982 0.04043 0.72014 0.0
C1677 C 0.40819 0.09075 0.76501 0.0
C1678 C 0.425 0.08483 0.78039 0.0
C1679 C 0.43177 0.06871 0.76397 0.0
C1680 C 0.43618 0.09501 0.81284 0.0
C1681 C 0.39941 0.10712 0.78408 0.0
C1682 C 0.44075 0.11279 0.80424 0.0
C1683 C 0.45353 0.12134 0.83088 0.0
C1684 C 0.46208 0.11217 0.86609 0.0
C1685 C 0.45755 0.09445 0.87457 0.0
C1686 C 0.44439 0.0861 0.8491 0.0
H1687 H 0.38472 0.10617 0.78167 0.0
H1688 H 0.4031 0.10927 0.82013 0.0
H1689 H 0.40361 0.11887 0.7641 0.0
H1690 H 0.43518 0.11979 0.77551 0.0
H1691 H 0.45729 0.13485 0.82279 0.0
H1692 H 0.47236 0.41727 0.0866 0.0
H1693 H 0.44992 0.43328 0.1301 0.0
H1694 H 0.44362 0.38778 0.21765 0.0
H1695 H 0.46467 0.37111 0.17074 0.0
H1696 H 0.41322 0.40403 0.21115 0.0
H1697 H 0.46487 0.45442 0.24617 0.0
H1698 H 0.45987 0.4533 0.18687 0.0
H1699 H 0.46958 0.43441 0.21516 0.0
C1700 C 0.46548 0.41042 0.11365 0.0
C1701 C 0.46967 0.39278 0.12432 0.0
C1702 C 0.453 0.41972 0.13928 0.0
C1703 C 0.44544 0.41193 0.17802 0.0
C1704 C 0.44927 0.3941 0.18799 0.0
H1705 H 0.41228 0.47884 0.39898 0.0
H1706 H 0.42664 0.45668 0.3514 0.0
C1707 C 0.46132 0.38461 0.16135 0.0
C1708 C 0.43483 0.42276 0.21018 0.0
H1709 H 0.43582 0.4612 0.27109 0.0
C1710 C 0.41818 0.41649 0.22452 0.0
C1711 C 0.44149 0.43881 0.22859 0.0
C1712 C 0.46 0.44552 0.2188 0.0
C1713 C 0.40799 0.42588 0.25648 0.0
C1714 C 0.41428 0.44238 0.27296 0.0
C1715 C 0.4309 0.44861 0.25843 0.0
C1716 C 0.40425 0.45345 0.30589 0.0
C1717 C 0.39095 0.4177 0.27328 0.0
C1718 C 0.38669 0.45878 0.29713 0.0
C1719 C 0.37817 0.47086 0.32588 0.0
C1720 C 0.38716 0.47791 0.36348 0.0
C1721 C 0.40474 0.4728 0.37178 0.0
C1722 C 0.41305 0.46038 0.34402 0.0
H1723 H 0.39108 0.40303 0.26943 0.0
H1724 H 0.38858 0.42093 0.30949 0.0
H1725 H 0.37969 0.4229 0.25296 0.0
H1726 H 0.3798 0.45422 0.26708 0.0
H1727 H 0.3648 0.47514 0.31795 0.0
loop_
_geom_bond_atom_site_label_1
_geom_bond_atom_site_label_2
_geom_bond_distance
_geom_bond_site_symmetry_2
_ccdc_geom_bond_type
Mn0 O5 2.095 . S
Mn0 O15 2.162 . S
Mn0 O16 2.297 . S
Mn0 O24 2.385 1_455 S
Mn0 O25 2.209 1_455 S
Mn0 O26 2.094 . S
Mn1 O6 2.121 1_655 S
Mn1 N8 2.257 . S
Mn1 N17 2.282 . S
Mn1 O25 2.215 . S
Mn1 O27 2.117 . S
C2 O24 1.234 . S
C2 O25 1.283 . S
C3 O15 1.281 . S
C3 O16 1.236 . S
C4 O26 1.240 . S
C4 O27 1.264 1_455 S
O5 Mn0 2.095 . S
O5 C14 1.250 . S
O6 Mn1 2.121 1_455 S
O6 C14 1.258 . S
C7 N8 1.326 . S
C7 C11 1.460 . S
C7 H13 0.929 . S
N8 Mn1 2.257 . S
N8 C7 1.326 . S
N8 C12 1.362 . S
C9 C10 1.258 . S
C9 C12 1.431 . S
C9 C29 1.449 . S
C10 C9 1.258 . S
C10 C11 1.477 . S
C10 H30 0.931 . S
C11 C7 1.460 . S
C11 C10 1.477 . S
C11 H31 0.930 1_554 S
C12 N8 1.362 . S
C12 C9 1.431 . S
C12 C22 1.476 . S
H13 C7 0.929 . S
C14 O5 1.250 . S
C14 O6 1.258 . S
O15 Mn0 2.162 . S
O15 C3 1.281 . S
O16 Mn0 2.297 . S
O16 C3 1.236 . S
N17 Mn1 2.282 . S
N17 C18 1.328 . S
N17 C22 1.318 . S
C18 N17 1.328 . S
C18 C19 1.457 . S
C18 H23 0.929 . S
C19 C18 1.457 . S
C19 C20 1.291 . S
C19 H32 0.931 . S
C20 C19 1.291 . S
C20 C21 1.373 . S
C20 H33 0.929 . S
C21 C20 1.373 . S
C21 C22 1.396 . S
C21 C28 1.403 . S
C22 C12 1.476 . S
C22 N17 1.318 . S
C22 C21 1.396 . S
H23 C18 0.929 . S
O24 Mn0 2.385 1_655 S
O24 C2 1.234 . S
O25 Mn0 2.209 1_655 S
O25 Mn1 2.215 . S
O25 C2 1.283 . S
O26 Mn0 2.094 . S
O26 C4 1.240 . S
O27 Mn1 2.117 . S
O27 C4 1.264 1_655 S
C28 C21 1.403 . S
C28 C29 1.399 . S
C28 H34 0.929 . S
C29 C9 1.449 . S
C29 C28 1.399 . S
C29 H35 0.930 . S
H30 C10 0.931 . S
H31 C11 0.930 1_556 S
H32 C19 0.931 . S
H33 C20 0.929 . S
H34 C28 0.929 . S
H35 C29 0.930 . S
Mn36 O41 2.095 . S
Mn36 O51 2.162 . S
Mn36 O52 2.297 . S
Mn36 O60 2.385 1_545 S
Mn36 O61 2.209 1_545 S
Mn36 O62 2.094 . S
Mn37 O42 2.121 1_565 S
Mn37 N44 2.257 . S
Mn37 N53 2.282 . S
Mn37 O61 2.215 . S
Mn37 O63 2.117 . S
C38 O60 1.234 . S
C38 O61 1.283 . S
C39 O51 1.281 . S
C39 O52 1.236 . S
C40 O62 1.240 . S
C40 O63 1.264 1_545 S
O41 Mn36 2.095 . S
O41 C50 1.250 . S
O42 Mn37 2.121 1_545 S
O42 C50 1.258 . S
C43 N44 1.326 . S
C43 C47 1.460 . S
C43 H49 0.929 . S
N44 Mn37 2.257 . S
N44 C43 1.326 . S
N44 C48 1.362 . S
C45 C46 1.258 . S
C45 C48 1.431 . S
C45 C65 1.449 . S
C46 C45 1.258 . S
C46 C47 1.477 . S
C46 H66 0.931 . S
C47 C43 1.460 . S
C47 C46 1.477 . S
C47 H67 0.930 . S
C48 N44 1.362 . S
C48 C45 1.431 . S
C48 C58 1.476 . S
H49 C43 0.929 . S
C50 O41 1.250 . S
C50 O42 1.258 . S
O51 Mn36 2.162 . S
O51 C39 1.281 . S
O52 Mn36 2.297 . S
O52 C39 1.236 . S
N53 Mn37 2.282 . S
N53 C54 1.328 . S
N53 C58 1.318 . S
C54 N53 1.328 . S
C54 C55 1.457 . S
C54 H59 0.929 . S
C55 C54 1.457 . S
C55 C56 1.291 . S
C55 H68 0.931 . S
C56 C55 1.291 . S
C56 C57 1.373 . S
C56 H69 0.929 . S
C57 C56 1.373 . S
C57 C58 1.396 . S
C57 C64 1.403 . S
C58 C48 1.476 . S
C58 N53 1.318 . S
C58 C57 1.396 . S
H59 C54 0.929 . S
O60 Mn36 2.385 1_565 S
O60 C38 1.234 . S
O61 Mn36 2.209 1_565 S
O61 Mn37 2.215 . S
O61 C38 1.283 . S
O62 Mn36 2.094 . S
O62 C40 1.240 . S
O63 Mn37 2.117 . S
O63 C40 1.264 1_565 S
C64 C57 1.403 . S
C64 C65 1.399 . S
C64 H70 0.929 . S
C65 C45 1.449 . S
C65 C64 1.399 . S
C65 H71 0.930 . S
H66 C46 0.931 . S
H67 C47 0.930 . S
H68 C55 0.931 . S
H69 C56 0.929 . S
H70 C64 0.929 . S
H71 C65 0.930 . S
Mn72 O77 2.095 . S
Mn72 O87 2.162 . S
Mn72 O88 2.297 . S
Mn72 O96 2.385 . S
Mn72 O97 2.209 . S
Mn72 O98 2.094 . S
Mn73 O78 2.121 . S
Mn73 N80 2.257 . S
Mn73 N89 2.282 . S
Mn73 O97 2.215 . S
Mn73 O99 2.117 . S
C74 O96 1.234 . S
C74 O97 1.283 . S
C75 O87 1.281 . S
C75 O88 1.236 . S
C76 O98 1.240 . S
C76 O99 1.264 . S
O77 Mn72 2.095 . S
O77 C86 1.250 . S
O78 Mn73 2.121 . S
O78 C86 1.258 . S
C79 N80 1.326 . S
C79 C83 1.460 . S
C79 H85 0.929 . S
N80 Mn73 2.257 . S
N80 C79 1.326 . S
N80 C84 1.362 . S
C81 C82 1.258 . S
C81 C84 1.431 . S
C81 C101 1.449 . S
C82 C81 1.258 . S
C82 C83 1.477 . S
C82 H102 0.931 . S
C83 C79 1.460 . S
C83 C82 1.477 . S
C83 H103 0.930 1_554 S
C84 N80 1.362 . S
C84 C81 1.431 . S
C84 C94 1.476 . S
H85 C79 0.929 . S
C86 O77 1.250 . S
C86 O78 1.258 . S
O87 Mn72 2.162 . S
O87 C75 1.281 . S
O88 Mn72 2.297 . S
O88 C75 1.236 . S
N89 Mn73 2.282 . S
N89 C90 1.328 . S
N89 C94 1.318 . S
C90 N89 1.328 . S
C90 C91 1.457 . S
C90 H95 0.929 . S
C91 C90 1.457 . S
C91 C92 1.291 . S
C91 H104 0.931 . S
C92 C91 1.291 . S
C92 C93 1.373 . S
C92 H105 0.929 . S
C93 C92 1.373 . S
C93 C94 1.396 . S
C93 C100 1.403 . S
C94 C84 1.476 . S
C94 N89 1.318 . S
C94 C93 1.396 . S
H95 C90 0.929 . S
O96 Mn72 2.385 . S
O96 C74 1.234 . S
O97 Mn72 2.209 . S
O97 Mn73 2.215 . S
O97 C74 1.283 . S
O98 Mn72 2.094 . S
O98 C76 1.240 . S
O99 Mn73 2.117 . S
O99 C76 1.264 . S
C100 C93 1.403 . S
C100 C101 1.399 . S
C100 H106 0.929 . S
C101 C81 1.449 . S
C101 C100 1.399 . S
C101 H107 0.930 . S
H102 C82 0.931 . S
H103 C83 0.930 1_556 S
H104 C91 0.931 . S
H105 C92 0.929 . S
H106 C100 0.929 . S
H107 C101 0.930 . S
Mn108 O113 2.095 . S
Mn108 O123 2.162 . S
Mn108 O124 2.297 . S
Mn108 O132 2.385 . S
Mn108 O133 2.209 . S
Mn108 O134 2.094 . S
Mn109 O114 2.121 . S
Mn109 N116 2.257 . S
Mn109 N125 2.282 . S
Mn109 O133 2.215 . S
Mn109 O135 2.117 . S
C110 O132 1.234 . S
C110 O133 1.283 . S
C111 O123 1.281 . S
C111 O124 1.236 . S
C112 O134 1.240 . S
C112 O135 1.264 . S
O113 Mn108 2.095 . S
O113 C122 1.250 . S
O114 Mn109 2.121 . S
O114 C122 1.258 . S
C115 N116 1.326 . S
C115 C119 1.460 . S
C115 H121 0.929 . S
N116 Mn109 2.257 . S
N116 C115 1.326 . S
N116 C120 1.362 . S
C117 C118 1.258 . S
C117 C120 1.431 . S
C117 C137 1.449 . S
C118 C117 1.258 . S
C118 C119 1.477 . S
C118 H138 0.931 . S
C119 C115 1.460 . S
C119 C118 1.477 . S
C119 H139 0.930 . S
C120 N116 1.362 . S
C120 C117 1.431 . S
C120 C130 1.476 . S
H121 C115 0.929 . S
C122 O113 1.250 . S
C122 O114 1.258 . S
O123 Mn108 2.162 . S
O123 C111 1.281 . S
O124 Mn108 2.297 . S
O124 C111 1.236 . S
N125 Mn109 2.282 . S
N125 C126 1.328 . S
N125 C130 1.318 . S
C126 N125 1.328 . S
C126 C127 1.457 . S
C126 H131 0.929 . S
C127 C126 1.457 . S
C127 C128 1.291 . S
C127 H140 0.931 . S
C128 C127 1.291 . S
C128 C129 1.373 . S
C128 H141 0.929 . S
C129 C128 1.373 . S
C129 C130 1.396 . S
C129 C136 1.403 . S
C130 C120 1.476 . S
C130 N125 1.318 . S
C130 C129 1.396 . S
H131 C126 0.929 . S
O132 Mn108 2.385 . S
O132 C110 1.234 . S
O133 Mn108 2.209 . S
O133 Mn109 2.215 . S
O133 C110 1.283 . S
O134 Mn108 2.094 . S
O134 C112 1.240 . S
O135 Mn109 2.117 . S
O135 C112 1.264 . S
C136 C129 1.403 . S
C136 C137 1.399 . S
C136 H142 0.929 . S
C137 C117 1.449 . S
C137 C136 1.399 . S
C137 H143 0.930 . S
H138 C118 0.931 . S
H139 C119 0.930 . S
H140 C127 0.931 . S
H141 C128 0.929 . S
H142 C136 0.929 . S
H143 C137 0.930 . S
Mn144 O149 2.095 . S
Mn144 O159 2.162 . S
Mn144 O160 2.297 . S
Mn144 O168 2.385 1_455 S
Mn144 O169 2.209 1_455 S
Mn144 O170 2.094 . S
Mn145 O150 2.121 1_655 S
Mn145 N152 2.257 . S
Mn145 N161 2.282 . S
Mn145 O169 2.215 . S
Mn145 O171 2.117 . S
C146 O168 1.234 . S
C146 O169 1.283 . S
C147 O159 1.281 . S
C147 O160 1.236 . S
C148 O170 1.240 . S
C148 O171 1.264 1_455 S
O149 Mn144 2.095 . S
O149 C158 1.250 . S
O150 Mn145 2.121 1_455 S
O150 C158 1.258 . S
C151 N152 1.326 . S
C151 C155 1.460 . S
C151 H157 0.929 . S
N152 Mn145 2.257 . S
N152 C151 1.326 . S
N152 C156 1.362 . S
C153 C154 1.258 . S
C153 C156 1.431 . S
C153 C173 1.449 . S
C154 C153 1.258 . S
C154 C155 1.477 . S
C154 H174 0.931 . S
C155 C151 1.460 . S
C155 C154 1.477 . S
C155 H175 0.930 1_556 S
C156 N152 1.362 . S
C156 C153 1.431 . S
C156 C166 1.476 . S
H157 C151 0.929 . S
C158 O149 1.250 . S
C158 O150 1.258 . S
O159 Mn144 2.162 . S
O159 C147 1.281 . S
O160 Mn144 2.297 . S
O160 C147 1.236 . S
N161 Mn145 2.282 . S
N161 C162 1.328 . S
N161 C166 1.318 . S
C162 N161 1.328 . S
C162 C163 1.457 . S
C162 H167 0.929 . S
C163 C162 1.457 . S
C163 C164 1.291 . S
C163 H176 0.931 . S
C164 C163 1.291 . S
C164 C165 1.373 . S
C164 H177 0.929 . S
C165 C164 1.373 . S
C165 C166 1.396 . S
C165 C172 1.403 . S
C166 C156 1.476 . S
C166 N161 1.318 . S
C166 C165 1.396 . S
H167 C162 0.929 . S
O168 Mn144 2.385 1_655 S
O168 C146 1.234 . S
O169 Mn144 2.209 1_655 S
O169 Mn145 2.215 . S
O169 C146 1.283 . S
O170 Mn144 2.094 . S
O170 C148 1.240 . S
O171 Mn145 2.117 . S
O171 C148 1.264 1_655 S
C172 C165 1.403 . S
C172 C173 1.399 . S
C172 H178 0.929 . S
C173 C153 1.449 . S
C173 C172 1.399 . S
C173 H179 0.930 . S
H174 C154 0.931 . S
H175 C155 0.930 1_554 S
H176 C163 0.931 . S
H177 C164 0.929 . S
H178 C172 0.929 . S
H179 C173 0.930 . S
Mn180 O185 2.095 . S
Mn180 O195 2.162 . S
Mn180 O196 2.297 . S
Mn180 O204 2.385 1_545 S
Mn180 O205 2.209 1_545 S
Mn180 O206 2.094 . S
Mn181 O186 2.121 1_565 S
Mn181 N188 2.257 . S
Mn181 N197 2.282 . S
Mn181 O205 2.215 . S
Mn181 O207 2.117 . S
C182 O204 1.234 . S
C182 O205 1.283 . S
C183 O195 1.281 . S
C183 O196 1.236 . S
C184 O206 1.240 . S
C184 O207 1.264 1_545 S
O185 Mn180 2.095 . S
O185 C194 1.250 . S
O186 Mn181 2.121 1_545 S
O186 C194 1.258 . S
C187 N188 1.326 . S
C187 C191 1.460 . S
C187 H193 0.929 . S
N188 Mn181 2.257 . S
N188 C187 1.326 . S
N188 C192 1.362 . S
C189 C190 1.258 . S
C189 C192 1.431 . S
C189 C209 1.449 . S
C190 C189 1.258 . S
C190 C191 1.477 . S
C190 H210 0.931 . S
C191 C187 1.460 . S
C191 C190 1.477 . S
C191 H211 0.930 . S
C192 N188 1.362 . S
C192 C189 1.431 . S
C192 C202 1.476 . S
H193 C187 0.929 . S
C194 O185 1.250 . S
C194 O186 1.258 . S
O195 Mn180 2.162 . S
O195 C183 1.281 . S
O196 Mn180 2.297 . S
O196 C183 1.236 . S
N197 Mn181 2.282 . S
N197 C198 1.328 . S
N197 C202 1.318 . S
C198 N197 1.328 . S
C198 C199 1.457 . S
C198 H203 0.929 . S
C199 C198 1.457 . S
C199 C200 1.291 . S
C199 H212 0.931 . S
C200 C199 1.291 . S
C200 C201 1.373 . S
C200 H213 0.929 . S
C201 C200 1.373 . S
C201 C202 1.396 . S
C201 C208 1.403 . S
C202 C192 1.476 . S
C202 N197 1.318 . S
C202 C201 1.396 . S
H203 C198 0.929 . S
O204 Mn180 2.385 1_565 S
O204 C182 1.234 . S
O205 Mn180 2.209 1_565 S
O205 Mn181 2.215 . S
O205 C182 1.283 . S
O206 Mn180 2.094 . S
O206 C184 1.240 . S
O207 Mn181 2.117 . S
O207 C184 1.264 1_565 S
C208 C201 1.403 . S
C208 C209 1.399 . S
C208 H214 0.929 . S
C209 C189 1.449 . S
C209 C208 1.399 . S
C209 H215 0.930 . S
H210 C190 0.931 . S
H211 C191 0.930 . S
H212 C199 0.931 . S
H213 C200 0.929 . S
H214 C208 0.929 . S
H215 C209 0.930 . S
Mn216 O221 2.095 . S
Mn216 O231 2.162 . S
Mn216 O232 2.297 . S
Mn216 O240 2.385 . S
Mn216 O241 2.209 . S
Mn216 O242 2.094 . S
Mn217 O222 2.121 . S
Mn217 N224 2.257 . S
Mn217 N233 2.282 . S
Mn217 O241 2.215 . S
Mn217 O243 2.117 . S
C218 O240 1.234 . S
C218 O241 1.283 . S
C219 O231 1.281 . S
C219 O232 1.236 . S
C220 O242 1.240 . S
C220 O243 1.264 . S
O221 Mn216 2.095 . S
O221 C230 1.250 . S
O222 Mn217 2.121 . S
O222 C230 1.258 . S
C223 N224 1.326 . S
C223 C227 1.460 . S
C223 H229 0.929 . S
N224 Mn217 2.257 . S
N224 C223 1.326 . S
N224 C228 1.362 . S
C225 C226 1.258 . S
C225 C228 1.431 . S
C225 C245 1.449 . S
C226 C225 1.258 . S
C226 C227 1.477 . S
C226 H246 0.931 . S
C227 C223 1.460 . S
C227 C226 1.477 . S
C227 H247 0.930 1_556 S
C228 N224 1.362 . S
C228 C225 1.431 . S
C228 C238 1.476 . S
H229 C223 0.929 . S
C230 O221 1.250 . S
C230 O222 1.258 . S
O231 Mn216 2.162 . S
O231 C219 1.281 . S
O232 Mn216 2.297 . S
O232 C219 1.236 . S
N233 Mn217 2.282 . S
N233 C234 1.328 . S
N233 C238 1.318 . S
C234 N233 1.328 . S
C234 C235 1.457 . S
C234 H239 0.929 . S
C235 C234 1.457 . S
C235 C236 1.291 . S
C235 H248 0.931 . S
C236 C235 1.291 . S
C236 C237 1.373 . S
C236 H249 0.929 . S
C237 C236 1.373 . S
C237 C238 1.396 . S
C237 C244 1.403 . S
C238 C228 1.476 . S
C238 N233 1.318 . S
C238 C237 1.396 . S
H239 C234 0.929 . S
O240 Mn216 2.385 . S
O240 C218 1.234 . S
O241 Mn216 2.209 . S
O241 Mn217 2.215 . S
O241 C218 1.283 . S
O242 Mn216 2.094 . S
O242 C220 1.240 . S
O243 Mn217 2.117 . S
O243 C220 1.264 . S
C244 C237 1.403 . S
C244 C245 1.399 . S
C244 H250 0.929 . S
C245 C225 1.449 . S
C245 C244 1.399 . S
C245 H251 0.930 . S
H246 C226 0.931 . S
H247 C227 0.930 1_554 S
H248 C235 0.931 . S
H249 C236 0.929 . S
H250 C244 0.929 . S
H251 C245 0.930 . S
Mn252 O257 2.095 . S
Mn252 O267 2.162 . S
Mn252 O268 2.297 . S
Mn252 O276 2.385 . S
Mn252 O277 2.209 . S
Mn252 O278 2.094 . S
Mn253 O258 2.121 . S
Mn253 N260 2.257 . S
Mn253 N269 2.282 . S
Mn253 O277 2.215 . S
Mn253 O279 2.117 . S
C254 O276 1.234 . S
C254 O277 1.283 . S
C255 O267 1.281 . S
C255 O268 1.236 . S
C256 O278 1.240 . S
C256 O279 1.264 . S
O257 Mn252 2.095 . S
O257 C266 1.250 . S
O258 Mn253 2.121 . S
O258 C266 1.258 . S
C259 N260 1.326 . S
C259 C263 1.460 . S
C259 H265 0.929 . S
N260 Mn253 2.257 . S
N260 C259 1.326 . S
N260 C264 1.362 . S
C261 C262 1.258 . S
C261 C264 1.431 . S
C261 C281 1.449 . S
C262 C261 1.258 . S
C262 C263 1.477 . S
C262 H282 0.931 . S
C263 C259 1.460 . S
C263 C262 1.477 . S
C263 H283 0.930 . S
C264 N260 1.362 . S
C264 C261 1.431 . S
C264 C274 1.476 . S
H265 C259 0.929 . S
C266 O257 1.250 . S
C266 O258 1.258 . S
O267 Mn252 2.162 . S
O267 C255 1.281 . S
O268 Mn252 2.297 . S
O268 C255 1.236 . S
N269 Mn253 2.282 . S
N269 C270 1.328 . S
N269 C274 1.318 . S
C270 N269 1.328 . S
C270 C271 1.457 . S
C270 H275 0.929 . S
C271 C270 1.457 . S
C271 C272 1.291 . S
C271 H284 0.931 . S
C272 C271 1.291 . S
C272 C273 1.373 . S
C272 H285 0.929 . S
C273 C272 1.373 . S
C273 C274 1.396 . S
C273 C280 1.403 . S
C274 C264 1.476 . S
C274 N269 1.318 . S
C274 C273 1.396 . S
H275 C270 0.929 . S
O276 Mn252 2.385 . S
O276 C254 1.234 . S
O277 Mn252 2.209 . S
O277 Mn253 2.215 . S
O277 C254 1.283 . S
O278 Mn252 2.094 . S
O278 C256 1.240 . S
O279 Mn253 2.117 . S
O279 C256 1.264 . S
C280 C273 1.403 . S
C280 C281 1.399 . S
C280 H286 0.929 . S
C281 C261 1.449 . S
C281 C280 1.399 . S
C281 H287 0.930 . S
H282 C262 0.931 . S
H283 C263 0.930 . S
H284 C271 0.931 . S
H285 C272 0.929 . S
H286 C280 0.929 . S
H287 C281 0.930 . S
Mn288 O293 2.095 . S
Mn288 O303 2.162 . S
Mn288 O304 2.297 . S
Mn288 O312 2.385 1_655 S
Mn288 O313 2.209 1_655 S
Mn288 O314 2.094 . S
Mn289 O294 2.121 1_455 S
Mn289 N296 2.257 . S
Mn289 N305 2.282 . S
Mn289 O313 2.215 . S
Mn289 O315 2.117 . S
C290 O312 1.234 . S
C290 O313 1.283 . S
C291 O303 1.281 . S
C291 O304 1.236 . S
C292 O314 1.240 . S
C292 O315 1.264 1_655 S
O293 Mn288 2.095 . S
O293 C302 1.250 . S
O294 Mn289 2.121 1_655 S
O294 C302 1.258 . S
C295 N296 1.326 . S
C295 C299 1.460 . S
C295 H301 0.929 . S
N296 Mn289 2.257 . S
N296 C295 1.326 . S
N296 C300 1.362 . S
C297 C298 1.258 . S
C297 C300 1.431 . S
C297 C317 1.449 . S
C298 C297 1.258 . S
C298 C299 1.477 . S
C298 H318 0.931 . S
C299 C295 1.460 . S
C299 C298 1.477 . S
C299 H319 0.930 1_556 S
C300 N296 1.362 . S
C300 C297 1.431 . S
C300 C310 1.476 . S
H301 C295 0.929 . S
C302 O293 1.250 . S
C302 O294 1.258 . S
O303 Mn288 2.162 . S
O303 C291 1.281 . S
O304 Mn288 2.297 . S
O304 C291 1.236 . S
N305 Mn289 2.282 . S
N305 C306 1.328 . S
N305 C310 1.318 . S
C306 N305 1.328 . S
C306 C307 1.457 . S
C306 H311 0.929 . S
C307 C306 1.457 . S
C307 C308 1.291 . S
C307 H320 0.931 . S
C308 C307 1.291 . S
C308 C309 1.373 . S
C308 H321 0.929 . S
C309 C308 1.373 . S
C309 C310 1.396 . S
C309 C316 1.403 . S
C310 C300 1.476 . S
C310 N305 1.318 . S
C310 C309 1.396 . S
H311 C306 0.929 . S
O312 Mn288 2.385 1_455 S
O312 C290 1.234 . S
O313 Mn288 2.209 1_455 S
O313 Mn289 2.215 . S
O313 C290 1.283 . S
O314 Mn288 2.094 . S
O314 C292 1.240 . S
O315 Mn289 2.117 . S
O315 C292 1.264 1_455 S
C316 C309 1.403 . S
C316 C317 1.399 . S
C316 H322 0.929 . S
C317 C297 1.449 . S
C317 C316 1.399 . S
C317 H323 0.930 . S
H318 C298 0.931 . S
H319 C299 0.930 1_554 S
H320 C307 0.931 . S
H321 C308 0.929 . S
H322 C316 0.929 . S
H323 C317 0.930 . S
Mn324 O329 2.095 . S
Mn324 O339 2.162 . S
Mn324 O340 2.297 . S
Mn324 O348 2.385 1_565 S
Mn324 O349 2.209 1_565 S
Mn324 O350 2.094 . S
Mn325 O330 2.121 1_545 S
Mn325 N332 2.257 . S
Mn325 N341 2.282 . S
Mn325 O349 2.215 . S
Mn325 O351 2.117 . S
C326 O348 1.234 . S
C326 O349 1.283 . S
C327 O339 1.281 . S
C327 O340 1.236 . S
C328 O350 1.240 . S
C328 O351 1.264 1_565 S
O329 Mn324 2.095 . S
O329 C338 1.250 . S
O330 Mn325 2.121 1_565 S
O330 C338 1.258 . S
C331 N332 1.326 . S
C331 C335 1.460 . S
C331 H337 0.929 . S
N332 Mn325 2.257 . S
N332 C331 1.326 . S
N332 C336 1.362 . S
C333 C334 1.258 . S
C333 C336 1.431 . S
C333 C353 1.449 . S
C334 C333 1.258 . S
C334 C335 1.477 . S
C334 H354 0.931 . S
C335 C331 1.460 . S
C335 C334 1.477 . S
C335 H355 0.930 . S
C336 N332 1.362 . S
C336 C333 1.431 . S
C336 C346 1.476 . S
H337 C331 0.929 . S
C338 O329 1.250 . S
C338 O330 1.258 . S
O339 Mn324 2.162 . S
O339 C327 1.281 . S
O340 Mn324 2.297 . S
O340 C327 1.236 . S
N341 Mn325 2.282 . S
N341 C342 1.328 . S
N341 C346 1.318 . S
C342 N341 1.328 . S
C342 C343 1.457 . S
C342 H347 0.929 . S
C343 C342 1.457 . S
C343 C344 1.291 . S
C343 H356 0.931 . S
C344 C343 1.291 . S
C344 C345 1.373 . S
C344 H357 0.929 . S
C345 C344 1.373 . S
C345 C346 1.396 . S
C345 C352 1.403 . S
C346 C336 1.476 . S
C346 N341 1.318 . S
C346 C345 1.396 . S
H347 C342 0.929 . S
O348 Mn324 2.385 1_545 S
O348 C326 1.234 . S
O349 Mn324 2.209 1_545 S
O349 Mn325 2.215 . S
O349 C326 1.283 . S
O350 Mn324 2.094 . S
O350 C328 1.240 . S
O351 Mn325 2.117 . S
O351 C328 1.264 1_545 S
C352 C345 1.403 . S
C352 C353 1.399 . S
C352 H358 0.929 . S
C353 C333 1.449 . S
C353 C352 1.399 . S
C353 H359 0.930 . S
H354 C334 0.931 . S
H355 C335 0.930 . S
H356 C343 0.931 . S
H357 C344 0.929 . S
H358 C352 0.929 . S
H359 C353 0.930 . S
Mn360 O365 2.095 . S
Mn360 O375 2.162 . S
Mn360 O376 2.297 . S
Mn360 O384 2.385 . S
Mn360 O385 2.209 . S
Mn360 O386 2.094 . S
Mn361 O366 2.121 . S
Mn361 N368 2.257 . S
Mn361 N377 2.282 . S
Mn361 O385 2.215 . S
Mn361 O387 2.117 . S
C362 O384 1.234 . S
C362 O385 1.283 . S
C363 O375 1.281 . S
C363 O376 1.236 . S
C364 O386 1.240 . S
C364 O387 1.264 . S
O365 Mn360 2.095 . S
O365 C374 1.250 . S
O366 Mn361 2.121 . S
O366 C374 1.258 . S
C367 N368 1.326 . S
C367 C371 1.460 . S
C367 H373 0.929 . S
N368 Mn361 2.257 . S
N368 C367 1.326 . S
N368 C372 1.362 . S
C369 C370 1.258 . S
C369 C372 1.431 . S
C369 C389 1.449 . S
C370 C369 1.258 . S
C370 C371 1.477 . S
C370 H390 0.931 . S
C371 C367 1.460 . S
C371 C370 1.477 . S
C371 H391 0.930 1_556 S
C372 N368 1.362 . S
C372 C369 1.431 . S
C372 C382 1.476 . S
H373 C367 0.929 . S
C374 O365 1.250 . S
C374 O366 1.258 . S
O375 Mn360 2.162 . S
O375 C363 1.281 . S
O376 Mn360 2.297 . S
O376 C363 1.236 . S
N377 Mn361 2.282 . S
N377 C378 1.328 . S
N377 C382 1.318 . S
C378 N377 1.328 . S
C378 C379 1.457 . S
C378 H383 0.929 . S
C379 C378 1.457 . S
C379 C380 1.291 . S
C379 H392 0.931 . S
C380 C379 1.291 . S
C380 C381 1.373 . S
C380 H393 0.929 . S
C381 C380 1.373 . S
C381 C382 1.396 . S
C381 C388 1.403 . S
C382 C372 1.476 . S
C382 N377 1.318 . S
C382 C381 1.396 . S
H383 C378 0.929 . S
O384 Mn360 2.385 . S
O384 C362 1.234 . S
O385 Mn360 2.209 . S
O385 Mn361 2.215 . S
O385 C362 1.283 . S
O386 Mn360 2.094 . S
O386 C364 1.240 . S
O387 Mn361 2.117 . S
O387 C364 1.264 . S
C388 C381 1.403 . S
C388 C389 1.399 . S
C388 H394 0.929 . S
C389 C369 1.449 . S
C389 C388 1.399 . S
C389 H395 0.930 . S
H390 C370 0.931 . S
H391 C371 0.930 1_554 S
H392 C379 0.931 . S
H393 C380 0.929 . S
H394 C388 0.929 . S
H395 C389 0.930 . S
Mn396 O401 2.095 . S
Mn396 O411 2.162 . S
Mn396 O412 2.297 . S
Mn396 O420 2.385 . S
Mn396 O421 2.209 . S
Mn396 O422 2.094 . S
Mn397 O402 2.121 . S
Mn397 N404 2.257 . S
Mn397 N413 2.282 . S
Mn397 O421 2.215 . S
Mn397 O423 2.117 . S
C398 O420 1.234 . S
C398 O421 1.283 . S
C399 O411 1.281 . S
C399 O412 1.236 . S
C400 O422 1.240 . S
C400 O423 1.264 . S
O401 Mn396 2.095 . S
O401 C410 1.250 . S
O402 Mn397 2.121 . S
O402 C410 1.258 . S
C403 N404 1.326 . S
C403 C407 1.460 . S
C403 H409 0.929 . S
N404 Mn397 2.257 . S
N404 C403 1.326 . S
N404 C408 1.362 . S
C405 C406 1.258 . S
C405 C408 1.431 . S
C405 C425 1.449 . S
C406 C405 1.258 . S
C406 C407 1.477 . S
C406 H426 0.931 . S
C407 C403 1.460 . S
C407 C406 1.477 . S
C407 H427 0.930 . S
C408 N404 1.362 . S
C408 C405 1.431 . S
C408 C418 1.476 . S
H409 C403 0.929 . S
C410 O401 1.250 . S
C410 O402 1.258 . S
O411 Mn396 2.162 . S
O411 C399 1.281 . S
O412 Mn396 2.297 . S
O412 C399 1.236 . S
N413 Mn397 2.282 . S
N413 C414 1.328 . S
N413 C418 1.318 . S
C414 N413 1.328 . S
C414 C415 1.457 . S
C414 H419 0.929 . S
C415 C414 1.457 . S
C415 C416 1.291 . S
C415 H428 0.931 . S
C416 C415 1.291 . S
C416 C417 1.373 . S
C416 H429 0.929 . S
C417 C416 1.373 . S
C417 C418 1.396 . S
C417 C424 1.403 . S
C418 C408 1.476 . S
C418 N413 1.318 . S
C418 C417 1.396 . S
H419 C414 0.929 . S
O420 Mn396 2.385 . S
O420 C398 1.234 . S
O421 Mn396 2.209 . S
O421 Mn397 2.215 . S
O421 C398 1.283 . S
O422 Mn396 2.094 . S
O422 C400 1.240 . S
O423 Mn397 2.117 . S
O423 C400 1.264 . S
C424 C417 1.403 . S
C424 C425 1.399 . S
C424 H430 0.929 . S
C425 C405 1.449 . S
C425 C424 1.399 . S
C425 H431 0.930 . S
H426 C406 0.931 . S
H427 C407 0.930 . S
H428 C415 0.931 . S
H429 C416 0.929 . S
H430 C424 0.929 . S
H431 C425 0.930 . S
Mn432 O437 2.095 . S
Mn432 O447 2.162 . S
Mn432 O448 2.297 . S
Mn432 O456 2.385 1_655 S
Mn432 O457 2.209 1_655 S
Mn432 O458 2.094 . S
Mn433 O438 2.121 1_455 S
Mn433 N440 2.257 . S
Mn433 N449 2.282 . S
Mn433 O457 2.215 . S
Mn433 O459 2.117 . S
C434 O456 1.234 . S
C434 O457 1.283 . S
C435 O447 1.281 . S
C435 O448 1.236 . S
C436 O458 1.240 . S
C436 O459 1.264 1_655 S
O437 Mn432 2.095 . S
O437 C446 1.250 . S
O438 Mn433 2.121 1_655 S
O438 C446 1.258 . S
C439 N440 1.326 . S
C439 C443 1.460 . S
C439 H445 0.929 . S
N440 Mn433 2.257 . S
N440 C439 1.326 . S
N440 C444 1.362 . S
C441 C442 1.258 . S
C441 C444 1.431 . S
C441 C461 1.449 . S
C442 C441 1.258 . S
C442 C443 1.477 . S
C442 H462 0.931 . S
C443 C439 1.460 . S
C443 C442 1.477 . S
C443 H463 0.930 1_554 S
C444 N440 1.362 . S
C444 C441 1.431 . S
C444 C454 1.476 . S
H445 C439 0.929 . S
C446 O437 1.250 . S
C446 O438 1.258 . S
O447 Mn432 2.162 . S
O447 C435 1.281 . S
O448 Mn432 2.297 . S
O448 C435 1.236 . S
N449 Mn433 2.282 . S
N449 C450 1.328 . S
N449 C454 1.318 . S
C450 N449 1.328 . S
C450 C451 1.457 . S
C450 H455 0.929 . S
C451 C450 1.457 . S
C451 C452 1.291 . S
C451 H464 0.931 . S
C452 C451 1.291 . S
C452 C453 1.373 . S
C452 H465 0.929 . S
C453 C452 1.373 . S
C453 C454 1.396 . S
C453 C460 1.403 . S
C454 C444 1.476 . S
C454 N449 1.318 . S
C454 C453 1.396 . S
H455 C450 0.929 . S
O456 Mn432 2.385 1_455 S
O456 C434 1.234 . S
O457 Mn432 2.209 1_455 S
O457 Mn433 2.215 . S
O457 C434 1.283 . S
O458 Mn432 2.094 . S
O458 C436 1.240 . S
O459 Mn433 2.117 . S
O459 C436 1.264 1_455 S
C460 C453 1.403 . S
C460 C461 1.399 . S
C460 H466 0.929 . S
C461 C441 1.449 . S
C461 C460 1.399 . S
C461 H467 0.930 . S
H462 C442 0.931 . S
H463 C443 0.930 1_556 S
H464 C451 0.931 . S
H465 C452 0.929 . S
H466 C460 0.929 . S
H467 C461 0.930 . S
Mn468 O473 2.095 . S
Mn468 O483 2.162 . S
Mn468 O484 2.297 . S
Mn468 O492 2.385 1_565 S
Mn468 O493 2.209 1_565 S
Mn468 O494 2.094 . S
Mn469 O474 2.121 1_545 S
Mn469 N476 2.257 . S
Mn469 N485 2.282 . S
Mn469 O493 2.215 . S
Mn469 O495 2.117 . S
C470 O492 1.234 . S
C470 O493 1.283 . S
C471 O483 1.281 . S
C471 O484 1.236 . S
C472 O494 1.240 . S
C472 O495 1.264 1_565 S
O473 Mn468 2.095 . S
O473 C482 1.250 . S
O474 Mn469 2.121 1_565 S
O474 C482 1.258 . S
C475 N476 1.326 . S
C475 C479 1.460 . S
C475 H481 0.929 . S
N476 Mn469 2.257 . S
N476 C475 1.326 . S
N476 C480 1.362 . S
C477 C478 1.258 . S
C477 C480 1.431 . S
C477 C497 1.449 . S
C478 C477 1.258 . S
C478 C479 1.477 . S
C478 H498 0.931 . S
C479 C475 1.460 . S
C479 C478 1.477 . S
C479 H499 0.930 . S
C480 N476 1.362 . S
C480 C477 1.431 . S
C480 C490 1.476 . S
H481 C475 0.929 . S
C482 O473 1.250 . S
C482 O474 1.258 . S
O483 Mn468 2.162 . S
O483 C471 1.281 . S
O484 Mn468 2.297 . S
O484 C471 1.236 . S
N485 Mn469 2.282 . S
N485 C486 1.328 . S
N485 C490 1.318 . S
C486 N485 1.328 . S
C486 C487 1.457 . S
C486 H491 0.929 . S
C487 C486 1.457 . S
C487 C488 1.291 . S
C487 H500 0.931 . S
C488 C487 1.291 . S
C488 C489 1.373 . S
C488 H501 0.929 . S
C489 C488 1.373 . S
C489 C490 1.396 . S
C489 C496 1.403 . S
C490 C480 1.476 . S
C490 N485 1.318 . S
C490 C489 1.396 . S
H491 C486 0.929 . S
O492 Mn468 2.385 1_545 S
O492 C470 1.234 . S
O493 Mn468 2.209 1_545 S
O493 Mn469 2.215 . S
O493 C470 1.283 . S
O494 Mn468 2.094 . S
O494 C472 1.240 . S
O495 Mn469 2.117 . S
O495 C472 1.264 1_545 S
C496 C489 1.403 . S
C496 C497 1.399 . S
C496 H502 0.929 . S
C497 C477 1.449 . S
C497 C496 1.399 . S
C497 H503 0.930 . S
H498 C478 0.931 . S
H499 C479 0.930 . S
H500 C487 0.931 . S
H501 C488 0.929 . S
H502 C496 0.929 . S
H503 C497 0.930 . S
Mn504 O509 2.095 . S
Mn504 O519 2.162 . S
Mn504 O520 2.297 . S
Mn504 O528 2.385 . S
Mn504 O529 2.209 . S
Mn504 O530 2.094 . S
Mn505 O510 2.121 . S
Mn505 N512 2.257 . S
Mn505 N521 2.282 . S
Mn505 O529 2.215 . S
Mn505 O531 2.117 . S
C506 O528 1.234 . S
C506 O529 1.283 . S
C507 O519 1.281 . S
C507 O520 1.236 . S
C508 O530 1.240 . S
C508 O531 1.264 . S
O509 Mn504 2.095 . S
O509 C518 1.250 . S
O510 Mn505 2.121 . S
O510 C518 1.258 . S
C511 N512 1.326 . S
C511 C515 1.460 . S
C511 H517 0.929 . S
N512 Mn505 2.257 . S
N512 C511 1.326 . S
N512 C516 1.362 . S
C513 C514 1.258 . S
C513 C516 1.431 . S
C513 C533 1.449 . S
C514 C513 1.258 . S
C514 C515 1.477 . S
C514 H534 0.931 . S
C515 C511 1.460 . S
C515 C514 1.477 . S
C515 H535 0.930 1_554 S
C516 N512 1.362 . S
C516 C513 1.431 . S
C516 C526 1.476 . S
H517 C511 0.929 . S
C518 O509 1.250 . S
C518 O510 1.258 . S
O519 Mn504 2.162 . S
O519 C507 1.281 . S
O520 Mn504 2.297 . S
O520 C507 1.236 . S
N521 Mn505 2.282 . S
N521 C522 1.328 . S
N521 C526 1.318 . S
C522 N521 1.328 . S
C522 C523 1.457 . S
C522 H527 0.929 . S
C523 C522 1.457 . S
C523 C524 1.291 . S
C523 H536 0.931 . S
C524 C523 1.291 . S
C524 C525 1.373 . S
C524 H537 0.929 . S
C525 C524 1.373 . S
C525 C526 1.396 . S
C525 C532 1.403 . S
C526 C516 1.476 . S
C526 N521 1.318 . S
C526 C525 1.396 . S
H527 C522 0.929 . S
O528 Mn504 2.385 . S
O528 C506 1.234 . S
O529 Mn504 2.209 . S
O529 Mn505 2.215 . S
O529 C506 1.283 . S
O530 Mn504 2.094 . S
O530 C508 1.240 . S
O531 Mn505 2.117 . S
O531 C508 1.264 . S
C532 C525 1.403 . S
C532 C533 1.399 . S
C532 H538 0.929 . S
C533 C513 1.449 . S
C533 C532 1.399 . S
C533 H539 0.930 . S
H534 C514 0.931 . S
H535 C515 0.930 1_556 S
H536 C523 0.931 . S
H537 C524 0.929 . S
H538 C532 0.929 . S
H539 C533 0.930 . S
Mn540 O545 2.095 . S
Mn540 O555 2.162 . S
Mn540 O556 2.297 . S
Mn540 O564 2.385 . S
Mn540 O565 2.209 . S
Mn540 O566 2.094 . S
Mn541 O546 2.121 . S
Mn541 N548 2.257 . S
Mn541 N557 2.282 . S
Mn541 O565 2.215 . S
Mn541 O567 2.117 . S
C542 O564 1.234 . S
C542 O565 1.283 . S
C543 O555 1.281 . S
C543 O556 1.236 . S
C544 O566 1.240 . S
C544 O567 1.264 . S
O545 Mn540 2.095 . S
O545 C554 1.250 . S
O546 Mn541 2.121 . S
O546 C554 1.258 . S
C547 N548 1.326 . S
C547 C551 1.460 . S
C547 H553 0.929 . S
N548 Mn541 2.257 . S
N548 C547 1.326 . S
N548 C552 1.362 . S
C549 C550 1.258 . S
C549 C552 1.431 . S
C549 C569 1.449 . S
C550 C549 1.258 . S
C550 C551 1.477 . S
C550 H570 0.931 . S
C551 C547 1.460 . S
C551 C550 1.477 . S
C551 H571 0.930 . S
C552 N548 1.362 . S
C552 C549 1.431 . S
C552 C562 1.476 . S
H553 C547 0.929 . S
C554 O545 1.250 . S
C554 O546 1.258 . S
O555 Mn540 2.162 . S
O555 C543 1.281 . S
O556 Mn540 2.297 . S
O556 C543 1.236 . S
N557 Mn541 2.282 . S
N557 C558 1.328 . S
N557 C562 1.318 . S
C558 N557 1.328 . S
C558 C559 1.457 . S
C558 H563 0.929 . S
C559 C558 1.457 . S
C559 C560 1.291 . S
C559 H572 0.931 . S
C560 C559 1.291 . S
C560 C561 1.373 . S
C560 H573 0.929 . S
C561 C560 1.373 . S
C561 C562 1.396 . S
C561 C568 1.403 . S
C562 C552 1.476 . S
C562 N557 1.318 . S
C562 C561 1.396 . S
H563 C558 0.929 . S
O564 Mn540 2.385 . S
O564 C542 1.234 . S
O565 Mn540 2.209 . S
O565 Mn541 2.215 . S
O565 C542 1.283 . S
O566 Mn540 2.094 . S
O566 C544 1.240 . S
O567 Mn541 2.117 . S
O567 C544 1.264 . S
C568 C561 1.403 . S
C568 C569 1.399 . S
C568 H574 0.929 . S
C569 C549 1.449 . S
C569 C568 1.399 . S
C569 H575 0.930 . S
H570 C550 0.931 . S
H571 C551 0.930 . S
H572 C559 0.931 . S
H573 C560 0.929 . S
H574 C568 0.929 . S
H575 C569 0.930 . S
H576 C584 0.929 . S
H577 C586 0.930 . S
H578 C588 0.930 . S
H579 C591 0.929 . S
H580 C594 0.930 . S
H581 C596 0.960 . S
H582 C596 0.960 . S
H583 C596 0.960 . S
C584 H576 0.929 . S
C584 C585 1.377 . S
C584 C586 1.384 . S
C585 C584 1.377 . S
C585 C591 1.390 1_455 S
C586 H577 0.930 . S
C586 C584 1.384 . S
C586 C587 1.372 . S
C587 C586 1.372 . S
C587 C588 1.400 1_455 S
C587 C592 1.490 . S
C588 H578 0.930 . S
C588 C587 1.400 1_655 S
C588 C591 1.386 . S
H589 C605 0.930 . S
H590 C606 0.931 . S
C591 H579 0.929 . S
C591 C585 1.390 1_655 S
C591 C588 1.386 . S
C592 C587 1.490 . S
C592 C594 1.395 1_554 S
C592 C595 1.403 1_455 S
H593 C599 0.930 . S
C594 H580 0.930 . S
C594 C592 1.395 1_556 S
C594 C597 1.403 . S
C595 C592 1.403 1_655 S
C595 C596 1.524 . S
C595 C599 1.400 . S
C596 H581 0.960 . S
C596 H582 0.960 . S
C596 H583 0.960 . S
C596 C595 1.524 . S
C597 C594 1.403 . S
C597 C598 1.392 . S
C597 C601 1.495 . S
C598 C597 1.392 . S
C598 C599 1.385 1_456 S
C598 C600 1.478 . S
C599 H593 0.930 . S
C599 C595 1.400 . S
C599 C598 1.385 1_654 S
C600 C598 1.478 . S
C600 C602 1.381 . S
C600 C606 1.383 1_455 S
C601 C597 1.495 . S
C601 H607 0.959 . S
C601 H608 0.961 . S
C601 H609 0.960 . S
C602 C600 1.381 . S
C602 C603 1.394 . S
C602 H610 0.930 . S
C603 C602 1.394 . S
C603 C604 1.383 . S
C603 H611 0.929 . S
C604 C603 1.383 . S
C604 C605 1.377 1_455 S
C605 H589 0.930 . S
C605 C604 1.377 1_655 S
C605 C606 1.379 . S
C606 H590 0.931 . S
C606 C600 1.383 1_655 S
C606 C605 1.379 . S
H607 C601 0.959 . S
H608 C601 0.961 . S
H609 C601 0.960 . S
H610 C602 0.930 . S
H611 C603 0.929 . S
H612 C620 0.929 . S
H613 C622 0.930 . S
H614 C624 0.930 . S
H615 C627 0.929 . S
H616 C630 0.930 . S
H617 C632 0.960 . S
H618 C632 0.960 1_565 S
H619 C632 0.960 . S
C620 H612 0.929 . S
C620 C621 1.377 1_565 S
C620 C622 1.384 . S
C621 C620 1.377 1_545 S
C621 C627 1.390 . S
C622 H613 0.930 . S
C622 C620 1.384 . S
C622 C623 1.372 1_565 S
C623 C622 1.372 1_545 S
C623 C624 1.400 . S
C623 C628 1.490 . S
C624 H614 0.930 . S
C624 C623 1.400 . S
C624 C627 1.386 . S
H625 C641 0.930 . S
H626 C642 0.931 . S
C627 H615 0.929 . S
C627 C621 1.390 . S
C627 C624 1.386 . S
C628 C623 1.490 . S
C628 C630 1.395 . S
C628 C631 1.403 . S
H629 C635 0.930 . S
C630 H616 0.930 . S
C630 C628 1.395 . S
C630 C633 1.403 . S
C631 C628 1.403 . S
C631 C632 1.524 . S
C631 C635 1.400 . S
C632 H617 0.960 . S
C632 H618 0.960 1_545 S
C632 H619 0.960 . S
C632 C631 1.524 . S
C633 C630 1.403 . S
C633 C634 1.392 . S
C633 C637 1.495 . S
C634 C633 1.392 . S
C634 C635 1.385 . S
C634 C636 1.478 . S
C635 H629 0.930 . S
C635 C631 1.400 . S
C635 C634 1.385 . S
C636 C634 1.478 . S
C636 C638 1.381 1_545 S
C636 C642 1.383 . S
C637 C633 1.495 . S
C637 H643 0.959 . S
C637 H644 0.961 . S
C637 H645 0.960 1_545 S
C638 C636 1.381 1_565 S
C638 C639 1.394 . S
C638 H646 0.930 . S
C639 C638 1.394 . S
C639 C640 1.383 1_565 S
C639 H647 0.929 . S
C640 C639 1.383 1_545 S
C640 C641 1.377 . S
C641 H625 0.930 . S
C641 C640 1.377 . S
C641 C642 1.379 . S
C642 H626 0.931 . S
C642 C636 1.383 . S
C642 C641 1.379 . S
H643 C637 0.959 . S
H644 C637 0.961 . S
H645 C637 0.960 1_565 S
H646 C638 0.930 . S
H647 C639 0.929 . S
H648 C656 0.929 . S
H649 C658 0.930 . S
H650 C660 0.930 . S
H651 C663 0.929 . S
H652 C666 0.930 . S
H653 C668 0.960 . S
H654 C668 0.960 . S
H655 C668 0.960 . S
C656 H648 0.929 . S
C656 C657 1.377 . S
C656 C658 1.384 . S
C657 C656 1.377 . S
C657 C663 1.390 . S
C658 H649 0.930 . S
C658 C656 1.384 . S
C658 C659 1.372 . S
C659 C658 1.372 . S
C659 C660 1.400 . S
C659 C664 1.490 . S
C660 H650 0.930 . S
C660 C659 1.400 . S
C660 C663 1.386 . S
H661 C677 0.930 . S
H662 C678 0.931 . S
C663 H651 0.929 . S
C663 C657 1.390 . S
C663 C660 1.386 . S
C664 C659 1.490 . S
C664 C666 1.395 . S
C664 C667 1.403 1_554 S
H665 C671 0.930 . S
C666 H652 0.930 . S
C666 C664 1.395 . S
C666 C669 1.403 . S
C667 C664 1.403 1_556 S
C667 C668 1.524 . S
C667 C671 1.400 . S
C668 H653 0.960 . S
C668 H654 0.960 . S
C668 H655 0.960 . S
C668 C667 1.524 . S
C669 C666 1.403 . S
C669 C670 1.392 1_554 S
C669 C673 1.495 . S
C670 C669 1.392 1_556 S
C670 C671 1.385 . S
C670 C672 1.478 . S
C671 H665 0.930 . S
C671 C667 1.400 . S
C671 C670 1.385 . S
C672 C670 1.478 . S
C672 C674 1.381 . S
C672 C678 1.383 . S
C673 C669 1.495 . S
C673 H679 0.959 . S
C673 H680 0.961 . S
C673 H681 0.960 . S
C674 C672 1.381 . S
C674 C675 1.394 . S
C674 H682 0.930 . S
C675 C674 1.394 . S
C675 C676 1.383 . S
C675 H683 0.929 . S
C676 C675 1.383 . S
C676 C677 1.377 . S
C677 H661 0.930 . S
C677 C676 1.377 . S
C677 C678 1.379 . S
C678 H662 0.931 . S
C678 C672 1.383 . S
C678 C677 1.379 . S
H679 C673 0.959 . S
H680 C673 0.961 . S
H681 C673 0.960 . S
H682 C674 0.930 . S
H683 C675 0.929 . S
H684 C692 0.929 . S
H685 C694 0.930 . S
H686 C696 0.930 . S
H687 C699 0.929 . S
H688 C702 0.930 . S
H689 C704 0.960 . S
H690 C704 0.960 . S
H691 C704 0.960 . S
C692 H684 0.929 . S
C692 C693 1.377 . S
C692 C694 1.384 . S
C693 C692 1.377 . S
C693 C699 1.390 . S
C694 H685 0.930 . S
C694 C692 1.384 . S
C694 C695 1.372 . S
C695 C694 1.372 . S
C695 C696 1.400 . S
C695 C700 1.490 . S
C696 H686 0.930 . S
C696 C695 1.400 . S
C696 C699 1.386 . S
H697 C713 0.930 . S
H698 C714 0.931 . S
C699 H687 0.929 . S
C699 C693 1.390 . S
C699 C696 1.386 . S
C700 C695 1.490 . S
C700 C702 1.395 . S
C700 C703 1.403 . S
H701 C707 0.930 . S
C702 H688 0.930 . S
C702 C700 1.395 . S
C702 C705 1.403 . S
C703 C700 1.403 . S
C703 C704 1.524 . S
C703 C707 1.400 . S
C704 H689 0.960 . S
C704 H690 0.960 . S
C704 H691 0.960 . S
C704 C703 1.524 . S
C705 C702 1.403 . S
C705 C706 1.392 . S
C705 C709 1.495 . S
C706 C705 1.392 . S
C706 C707 1.385 . S
C706 C708 1.478 . S
C707 H701 0.930 . S
C707 C703 1.400 . S
C707 C706 1.385 . S
C708 C706 1.478 . S
C708 C710 1.381 . S
C708 C714 1.383 . S
C709 C705 1.495 . S
C709 H715 0.959 . S
C709 H716 0.961 . S
C709 H717 0.960 . S
C710 C708 1.381 . S
C710 C711 1.394 . S
C710 H718 0.930 . S
C711 C710 1.394 . S
C711 C712 1.383 . S
C711 H719 0.929 . S
C712 C711 1.383 . S
C712 C713 1.377 . S
C713 H697 0.930 . S
C713 C712 1.377 . S
C713 C714 1.379 . S
C714 H698 0.931 . S
C714 C708 1.383 . S
C714 C713 1.379 . S
H715 C709 0.959 . S
H716 C709 0.961 . S
H717 C709 0.960 . S
H718 C710 0.930 . S
H719 C711 0.929 . S
H720 C728 0.929 . S
H721 C730 0.930 1_554 S
H722 C732 0.930 . S
H723 C735 0.929 . S
H724 C738 0.930 . S
H725 C740 0.960 . S
H726 C740 0.960 . S
H727 C740 0.960 . S
C728 H720 0.929 . S
C728 C729 1.377 . S
C728 C730 1.384 . S
C729 C728 1.377 . S
C729 C735 1.390 . S
C730 H721 0.930 1_556 S
C730 C728 1.384 . S
C730 C731 1.372 . S
C731 C730 1.372 . S
C731 C732 1.400 . S
C731 C736 1.490 . S
C732 H722 0.930 . S
C732 C731 1.400 . S
C732 C735 1.386 . S
H733 C749 0.930 . S
H734 C750 0.953 . S
C735 H723 0.929 . S
C735 C729 1.390 . S
C735 C732 1.386 . S
C736 C731 1.490 . S
C736 C738 1.395 1_556 S
C736 C739 1.403 1_655 S
H737 C743 0.930 . S
C738 H724 0.930 . S
C738 C736 1.395 1_554 S
C738 C741 1.403 . S
C739 C736 1.403 1_455 S
C739 C740 1.524 . S
C739 C743 1.400 . S
C740 H725 0.960 . S
C740 H726 0.960 . S
C740 H727 0.960 . S
C740 C739 1.524 . S
C741 C738 1.403 . S
C741 C742 1.392 . S
C741 C745 1.495 . S
C742 C741 1.392 . S
C742 C743 1.385 1_654 S
C742 C744 1.478 . S
C743 H737 0.930 . S
C743 C739 1.400 . S
C743 C742 1.385 1_456 S
C744 C742 1.478 . S
C744 C746 1.381 . S
C744 C750 1.383 . S
C745 C741 1.495 . S
C745 H751 0.959 . S
C745 H752 0.961 . S
C745 H753 0.960 . S
C746 C744 1.381 . S
C746 C747 1.394 . S
C746 H754 0.930 . S
C747 C746 1.394 . S
C747 C748 1.383 . S
C747 H755 0.929 . S
C748 C747 1.383 . S
C748 C749 1.377 . S
C749 H733 0.930 . S
C749 C748 1.377 . S
C749 C750 1.379 . S
C750 H734 0.953 . S
C750 C744 1.383 . S
C750 C749 1.379 . S
H751 C745 0.959 . S
H752 C745 0.961 . S
H753 C745 0.960 . S
H754 C746 0.930 . S
H755 C747 0.929 . S
H756 C764 0.929 . S
H757 C766 0.930 . S
H758 C768 0.930 . S
H759 C771 0.929 . S
H760 C774 0.930 . S
H761 C776 0.960 . S
H762 C776 0.960 . S
H763 C776 0.960 . S
C764 H756 0.929 . S
C764 C765 1.377 1_545 S
C764 C766 1.384 . S
C765 C764 1.377 1_565 S
C765 C771 1.390 . S
C766 H757 0.930 . S
C766 C764 1.384 . S
C766 C767 1.372 1_545 S
C767 C766 1.372 1_565 S
C767 C768 1.400 . S
C767 C772 1.490 . S
C768 H758 0.930 . S
C768 C767 1.400 . S
C768 C771 1.386 . S
H769 C785 0.930 . S
H770 C786 0.931 . S
C771 H759 0.929 . S
C771 C765 1.390 . S
C771 C768 1.386 . S
C772 C767 1.490 . S
C772 C774 1.395 1_565 S
C772 C775 1.403 . S
H773 C779 0.930 . S
C774 H760 0.930 . S
C774 C772 1.395 1_545 S
C774 C777 1.403 . S
C775 C772 1.403 . S
C775 C776 1.524 . S
C775 C779 1.400 . S
C776 H761 0.960 . S
C776 H762 0.960 . S
C776 H763 0.960 . S
C776 C775 1.524 . S
C777 C774 1.403 . S
C777 C778 1.392 1_545 S
C777 C781 1.495 . S
C778 C777 1.392 1_565 S
C778 C779 1.385 . S
C778 C780 1.478 . S
C779 H773 0.930 . S
C779 C775 1.400 . S
C779 C778 1.385 . S
C780 C778 1.478 . S
C780 C782 1.381 1_565 S
C780 C786 1.383 . S
C781 C777 1.495 . S
C781 H787 0.959 . S
C781 H788 0.961 . S
C781 H789 0.960 . S
C782 C780 1.381 1_545 S
C782 C783 1.394 . S
C782 H790 0.930 . S
C783 C782 1.394 . S
C783 C784 1.383 1_545 S
C783 H791 0.929 . S
C784 C783 1.383 1_565 S
C784 C785 1.377 . S
C785 H769 0.930 . S
C785 C784 1.377 . S
C785 C786 1.379 . S
C786 H770 0.931 . S
C786 C780 1.383 . S
C786 C785 1.379 . S
H787 C781 0.959 . S
H788 C781 0.961 . S
H789 C781 0.960 . S
H790 C782 0.930 . S
H791 C783 0.929 . S
H792 C800 0.929 . S
H793 C802 0.930 . S
H794 C804 0.930 . S
H795 C807 0.929 . S
H796 C810 0.930 . S
H797 C812 0.960 . S
H798 C812 0.960 . S
H799 C812 0.960 . S
C800 H792 0.929 . S
C800 C801 1.377 . S
C800 C802 1.384 . S
C801 C800 1.377 . S
C801 C807 1.390 . S
C802 H793 0.930 . S
C802 C800 1.384 . S
C802 C803 1.372 . S
C803 C802 1.372 . S
C803 C804 1.400 . S
C803 C808 1.490 . S
C804 H794 0.930 . S
C804 C803 1.400 . S
C804 C807 1.386 . S
H805 C821 0.930 . S
H806 C822 0.931 . S
C807 H795 0.929 . S
C807 C801 1.390 . S
C807 C804 1.386 . S
C808 C803 1.490 . S
C808 C810 1.395 . S
C808 C811 1.403 . S
H809 C815 0.930 . S
C810 H796 0.930 . S
C810 C808 1.395 . S
C810 C813 1.403 1_556 S
C811 C808 1.403 . S
C811 C812 1.524 . S
C811 C815 1.400 1_556 S
C812 H797 0.960 . S
C812 H798 0.960 . S
C812 H799 0.960 . S
C812 C811 1.524 . S
C813 C810 1.403 1_554 S
C813 C814 1.392 . S
C813 C817 1.495 . S
C814 C813 1.392 . S
C814 C815 1.385 . S
C814 C816 1.478 . S
C815 H809 0.930 . S
C815 C811 1.400 1_554 S
C815 C814 1.385 . S
C816 C814 1.478 . S
C816 C818 1.381 . S
C816 C822 1.383 . S
C817 C813 1.495 . S
C817 H823 0.959 . S
C817 H824 0.961 . S
C817 H825 0.960 . S
C818 C816 1.381 . S
C818 C819 1.394 . S
C818 H826 0.930 . S
C819 C818 1.394 . S
C819 C820 1.383 . S
C819 H827 0.929 . S
C820 C819 1.383 . S
C820 C821 1.377 . S
C821 H805 0.930 . S
C821 C820 1.377 . S
C821 C822 1.379 . S
C822 H806 0.931 . S
C822 C816 1.383 . S
C822 C821 1.379 . S
H823 C817 0.959 . S
H824 C817 0.961 . S
H825 C817 0.960 . S
H826 C818 0.930 . S
H827 C819 0.929 . S
H828 C836 0.929 . S
H829 C838 0.930 . S
H830 C840 0.930 . S
H831 C843 0.929 . S
H832 C846 0.930 . S
H833 C848 0.960 . S
H834 C848 0.960 . S
H835 C848 0.960 . S
C836 H828 0.929 . S
C836 C837 1.377 . S
C836 C838 1.384 . S
C837 C836 1.377 . S
C837 C843 1.390 . S
C838 H829 0.930 . S
C838 C836 1.384 . S
C838 C839 1.372 . S
C839 C838 1.372 . S
C839 C840 1.400 . S
C839 C844 1.490 . S
C840 H830 0.930 . S
C840 C839 1.400 . S
C840 C843 1.386 . S
H841 C857 0.930 . S
H842 C858 0.931 . S
C843 H831 0.929 . S
C843 C837 1.390 . S
C843 C840 1.386 . S
C844 C839 1.490 . S
C844 C846 1.395 . S
C844 C847 1.403 . S
H845 C851 0.930 . S
C846 H832 0.930 . S
C846 C844 1.395 . S
C846 C849 1.403 . S
C847 C844 1.403 . S
C847 C848 1.524 . S
C847 C851 1.400 . S
C848 H833 0.960 . S
C848 H834 0.960 . S
C848 H835 0.960 . S
C848 C847 1.524 . S
C849 C846 1.403 . S
C849 C850 1.392 . S
C849 C853 1.495 . S
C850 C849 1.392 . S
C850 C851 1.385 . S
C850 C852 1.478 . S
C851 H845 0.930 . S
C851 C847 1.400 . S
C851 C850 1.385 . S
C852 C850 1.478 . S
C852 C854 1.381 . S
C852 C858 1.383 . S
C853 C849 1.495 . S
C853 H859 0.959 . S
C853 H860 0.961 . S
C853 H861 0.960 . S
C854 C852 1.381 . S
C854 C855 1.394 . S
C854 H862 0.930 . S
C855 C854 1.394 . S
C855 C856 1.383 . S
C855 H863 0.929 . S
C856 C855 1.383 . S
C856 C857 1.377 . S
C857 H841 0.930 . S
C857 C856 1.377 . S
C857 C858 1.379 . S
C858 H842 0.931 . S
C858 C852 1.383 . S
C858 C857 1.379 . S
H859 C853 0.959 . S
H860 C853 0.961 . S
H861 C853 0.960 . S
H862 C854 0.930 . S
H863 C855 0.929 . S
H864 C872 0.929 . S
H865 C874 0.930 . S
H866 C876 0.930 . S
H867 C879 0.929 . S
H868 C882 0.930 . S
H869 C884 0.960 . S
H870 C884 0.960 . S
H871 C884 0.960 . S
C872 H864 0.929 . S
C872 C873 1.377 1_556 S
C872 C874 1.384 . S
C873 C872 1.377 1_554 S
C873 C879 1.390 . S
C874 H865 0.930 . S
C874 C872 1.384 . S
C874 C875 1.372 . S
C875 C874 1.372 . S
C875 C876 1.400 1_556 S
C875 C880 1.490 . S
C876 H866 0.930 . S
C876 C875 1.400 1_554 S
C876 C879 1.386 . S
H877 C893 0.930 . S
H878 C894 0.931 . S
C879 H867 0.929 . S
C879 C873 1.390 . S
C879 C876 1.386 . S
C880 C875 1.490 . S
C880 C882 1.395 . S
C880 C883 1.403 . S
H881 C887 0.930 . S
C882 H868 0.930 . S
C882 C880 1.395 . S
C882 C885 1.403 . S
C883 C880 1.403 . S
C883 C884 1.524 . S
C883 C887 1.400 . S
C884 H869 0.960 . S
C884 H870 0.960 . S
C884 H871 0.960 . S
C884 C883 1.524 . S
C885 C882 1.403 . S
C885 C886 1.392 . S
C885 C889 1.495 . S
C886 C885 1.392 . S
C886 C887 1.385 . S
C886 C888 1.478 . S
C887 H881 0.930 . S
C887 C883 1.400 . S
C887 C886 1.385 . S
C888 C886 1.478 . S
C888 C890 1.381 . S
C888 C894 1.383 . S
C889 C885 1.495 . S
C889 H895 0.959 . S
C889 H896 0.961 . S
C889 H897 0.960 . S
C890 C888 1.381 . S
C890 C891 1.394 . S
C890 H898 0.930 . S
C891 C890 1.394 . S
C891 C892 1.383 . S
C891 H899 0.929 . S
C892 C891 1.383 . S
C892 C893 1.377 . S
C893 H877 0.930 . S
C893 C892 1.377 . S
C893 C894 1.379 . S
C894 H878 0.931 . S
C894 C888 1.383 . S
C894 C893 1.379 . S
H895 C889 0.959 . S
H896 C889 0.961 . S
H897 C889 0.960 . S
H898 C890 0.930 . S
H899 C891 0.929 . S
H900 C908 0.929 . S
H901 C910 0.930 . S
H902 C912 0.930 . S
H903 C915 0.929 . S
H904 C918 0.930 . S
H905 C920 0.960 . S
H906 C920 0.960 . S
H907 C920 0.960 . S
C908 H900 0.929 . S
C908 C909 1.377 . S
C908 C910 1.384 . S
C909 C908 1.377 . S
C909 C915 1.390 . S
C910 H901 0.930 . S
C910 C908 1.384 . S
C910 C911 1.372 . S
C911 C910 1.372 . S
C911 C912 1.400 . S
C911 C916 1.490 . S
C912 H902 0.930 . S
C912 C911 1.400 . S
C912 C915 1.386 . S
H913 C929 0.930 . S
H914 C930 0.931 . S
C915 H903 0.929 . S
C915 C909 1.390 . S
C915 C912 1.386 . S
C916 C911 1.490 . S
C916 C918 1.395 . S
C916 C919 1.403 . S
H917 C923 0.930 . S
C918 H904 0.930 . S
C918 C916 1.395 . S
C918 C921 1.403 . S
C919 C916 1.403 . S
C919 C920 1.524 . S
C919 C923 1.400 . S
C920 H905 0.960 . S
C920 H906 0.960 . S
C920 H907 0.960 . S
C920 C919 1.524 . S
C921 C918 1.403 . S
C921 C922 1.392 . S
C921 C925 1.495 . S
C922 C921 1.392 . S
C922 C923 1.385 . S
C922 C924 1.478 . S
C923 H917 0.930 . S
C923 C919 1.400 . S
C923 C922 1.385 . S
C924 C922 1.478 . S
C924 C926 1.381 . S
C924 C930 1.383 . S
C925 C921 1.495 . S
C925 H931 0.959 . S
C925 H932 0.961 . S
C925 H933 0.960 . S
C926 C924 1.381 . S
C926 C927 1.394 . S
C926 H934 0.930 . S
C927 C926 1.394 . S
C927 C928 1.383 . S
C927 H935 0.929 . S
C928 C927 1.383 . S
C928 C929 1.377 . S
C929 H913 0.930 . S
C929 C928 1.377 . S
C929 C930 1.379 . S
C930 H914 0.931 . S
C930 C924 1.383 . S
C930 C929 1.379 . S
H931 C925 0.959 . S
H932 C925 0.961 . S
H933 C925 0.960 . S
H934 C926 0.930 . S
H935 C927 0.929 . S
H936 C944 0.929 . S
H937 C946 0.930 . S
H938 C948 0.930 . S
H939 C951 0.929 . S
H940 C954 0.930 . S
H941 C956 0.960 . S
H942 C956 0.960 . S
H943 C956 0.960 . S
C944 H936 0.929 . S
C944 C945 1.377 1_556 S
C944 C946 1.384 . S
C945 C944 1.377 1_554 S
C945 C951 1.390 . S
C946 H937 0.930 . S
C946 C944 1.384 . S
C946 C947 1.372 . S
C947 C946 1.372 . S
C947 C948 1.400 1_556 S
C947 C952 1.490 . S
C948 H938 0.930 . S
C948 C947 1.400 1_554 S
C948 C951 1.386 . S
H949 C965 0.930 . S
H950 C966 0.931 . S
C951 H939 0.929 . S
C951 C945 1.390 . S
C951 C948 1.386 . S
C952 C947 1.490 . S
C952 C954 1.395 . S
C952 C955 1.403 . S
H953 C959 0.930 . S
C954 H940 0.930 . S
C954 C952 1.395 . S
C954 C957 1.403 . S
C955 C952 1.403 . S
C955 C956 1.524 . S
C955 C959 1.400 . S
C956 H941 0.960 . S
C956 H942 0.960 . S
C956 H943 0.960 . S
C956 C955 1.524 . S
C957 C954 1.403 . S
C957 C958 1.392 . S
C957 C961 1.495 . S
C958 C957 1.392 . S
C958 C959 1.385 . S
C958 C960 1.478 . S
C959 H953 0.930 . S
C959 C955 1.400 . S
C959 C958 1.385 . S
C960 C958 1.478 . S
C960 C962 1.381 . S
C960 C966 1.383 . S
C961 C957 1.495 . S
C961 H967 0.959 . S
C961 H968 0.961 . S
C961 H969 0.960 . S
C962 C960 1.381 . S
C962 C963 1.394 . S
C962 H970 0.930 . S
C963 C962 1.394 . S
C963 C964 1.383 . S
C963 H971 0.929 . S
C964 C963 1.383 . S
C964 C965 1.377 . S
C965 H949 0.930 . S
C965 C964 1.377 . S
C965 C966 1.379 . S
C966 H950 0.931 . S
C966 C960 1.383 . S
C966 C965 1.379 . S
H967 C961 0.959 . S
H968 C961 0.961 . S
H969 C961 0.960 . S
H970 C962 0.930 . S
H971 C963 0.929 . S
H972 C980 0.929 . S
H973 C982 0.930 . S
H974 C984 0.930 . S
H975 C987 0.929 . S
H976 C990 0.930 . S
H977 C992 0.960 . S
H978 C992 0.960 . S
H979 C992 0.960 . S
C980 H972 0.929 . S
C980 C981 1.377 . S
C980 C982 1.384 . S
C981 C980 1.377 . S
C981 C987 1.390 . S
C982 H973 0.930 . S
C982 C980 1.384 . S
C982 C983 1.372 . S
C983 C982 1.372 . S
C983 C984 1.400 . S
C983 C988 1.490 . S
C984 H974 0.930 . S
C984 C983 1.400 . S
C984 C987 1.386 . S
H985 C1001 0.930 . S
H986 C1002 0.931 . S
C987 H975 0.929 . S
C987 C981 1.390 . S
C987 C984 1.386 . S
C988 C983 1.490 . S
C988 C990 1.395 . S
C988 C991 1.403 . S
H989 C995 0.930 . S
C990 H976 0.930 . S
C990 C988 1.395 . S
C990 C993 1.403 . S
C991 C988 1.403 . S
C991 C992 1.524 . S
C991 C995 1.400 . S
C992 H977 0.960 . S
C992 H978 0.960 . S
C992 H979 0.960 . S
C992 C991 1.524 . S
C993 C990 1.403 . S
C993 C994 1.392 . S
C993 C997 1.495 . S
C994 C993 1.392 . S
C994 C995 1.385 . S
C994 C996 1.478 . S
C995 H989 0.930 . S
C995 C991 1.400 . S
C995 C994 1.385 . S
C996 C994 1.478 . S
C996 C998 1.381 . S
C996 C1002 1.383 . S
C997 C993 1.495 . S
C997 H1003 0.959 . S
C997 H1004 0.961 . S
C997 H1005 0.960 . S
C998 C996 1.381 . S
C998 C999 1.394 . S
C998 H1006 0.930 . S
C999 C998 1.394 . S
C999 C1000 1.383 . S
C999 H1007 0.929 . S
C1000 C999 1.383 . S
C1000 C1001 1.377 . S
C1001 H985 0.930 . S
C1001 C1000 1.377 . S
C1001 C1002 1.379 . S
C1002 H986 0.931 . S
C1002 C996 1.383 . S
C1002 C1001 1.379 . S
H1003 C997 0.959 . S
H1004 C997 0.961 . S
H1005 C997 0.960 . S
H1006 C998 0.930 . S
H1007 C999 0.929 . S
H1008 C1016 0.929 . S
H1009 C1018 0.930 . S
H1010 C1020 0.930 . S
H1011 C1023 0.929 . S
H1012 C1026 0.930 . S
H1013 C1028 0.960 . S
H1014 C1028 0.960 . S
H1015 C1028 0.960 . S
C1016 H1008 0.929 . S
C1016 C1017 1.377 . S
C1016 C1018 1.384 . S
C1017 C1016 1.377 . S
C1017 C1023 1.390 . S
C1018 H1009 0.930 . S
C1018 C1016 1.384 . S
C1018 C1019 1.372 . S
C1019 C1018 1.372 . S
C1019 C1020 1.400 . S
C1019 C1024 1.490 . S
C1020 H1010 0.930 . S
C1020 C1019 1.400 . S
C1020 C1023 1.386 . S
H1021 C1037 0.930 . S
H1022 C1038 0.931 . S
C1023 H1011 0.929 . S
C1023 C1017 1.390 . S
C1023 C1020 1.386 . S
C1024 C1019 1.490 . S
C1024 C1026 1.395 . S
C1024 C1027 1.403 . S
H1025 C1031 0.930 . S
C1026 H1012 0.930 . S
C1026 C1024 1.395 . S
C1026 C1029 1.403 . S
C1027 C1024 1.403 . S
C1027 C1028 1.524 . S
C1027 C1031 1.400 . S
C1028 H1013 0.960 . S
C1028 H1014 0.960 . S
C1028 H1015 0.960 . S
C1028 C1027 1.524 . S
C1029 C1026 1.403 . S
C1029 C1030 1.392 . S
C1029 C1033 1.495 . S
C1030 C1029 1.392 . S
C1030 C1031 1.385 . S
C1030 C1032 1.478 . S
C1031 H1025 0.930 . S
C1031 C1027 1.400 . S
C1031 C1030 1.385 . S
C1032 C1030 1.478 . S
C1032 C1034 1.381 1_554 S
C1032 C1038 1.383 . S
C1033 C1029 1.495 . S
C1033 H1039 0.959 . S
C1033 H1040 0.961 . S
C1033 H1041 0.960 . S
C1034 C1032 1.381 1_556 S
C1034 C1035 1.394 . S
C1034 H1042 0.930 . S
C1035 C1034 1.394 . S
C1035 C1036 1.383 . S
C1035 H1043 0.929 . S
C1036 C1035 1.383 . S
C1036 C1037 1.377 1_556 S
C1037 H1021 0.930 . S
C1037 C1036 1.377 1_554 S
C1037 C1038 1.379 . S
C1038 H1022 0.931 . S
C1038 C1032 1.383 . S
C1038 C1037 1.379 . S
H1039 C1033 0.959 . S
H1040 C1033 0.961 . S
H1041 C1033 0.960 . S
H1042 C1034 0.930 . S
H1043 C1035 0.929 . S
H1044 C1052 0.929 . S
H1045 C1054 0.930 . S
H1046 C1056 0.930 . S
H1047 C1059 0.929 . S
H1048 C1062 0.930 . S
H1049 C1064 0.960 . S
H1050 C1064 0.960 . S
H1051 C1064 0.960 . S
C1052 H1044 0.929 . S
C1052 C1053 1.377 . S
C1052 C1054 1.384 . S
C1053 C1052 1.377 . S
C1053 C1059 1.390 . S
C1054 H1045 0.930 . S
C1054 C1052 1.384 . S
C1054 C1055 1.372 . S
C1055 C1054 1.372 . S
C1055 C1056 1.400 . S
C1055 C1060 1.490 . S
C1056 H1046 0.930 . S
C1056 C1055 1.400 . S
C1056 C1059 1.386 . S
H1057 C1073 0.930 . S
H1058 C1074 0.931 . S
C1059 H1047 0.929 . S
C1059 C1053 1.390 . S
C1059 C1056 1.386 . S
C1060 C1055 1.490 . S
C1060 C1062 1.395 . S
C1060 C1063 1.403 . S
H1061 C1067 0.930 . S
C1062 H1048 0.930 . S
C1062 C1060 1.395 . S
C1062 C1065 1.403 . S
C1063 C1060 1.403 . S
C1063 C1064 1.524 . S
C1063 C1067 1.400 . S
C1064 H1049 0.960 . S
C1064 H1050 0.960 . S
C1064 H1051 0.960 . S
C1064 C1063 1.524 . S
C1065 C1062 1.403 . S
C1065 C1066 1.392 . S
C1065 C1069 1.495 . S
C1066 C1065 1.392 . S
C1066 C1067 1.385 . S
C1066 C1068 1.478 . S
C1067 H1061 0.930 . S
C1067 C1063 1.400 . S
C1067 C1066 1.385 . S
C1068 C1066 1.478 . S
C1068 C1070 1.381 . S
C1068 C1074 1.383 . S
C1069 C1065 1.495 . S
C1069 H1075 0.959 . S
C1069 H1076 0.961 . S
C1069 H1077 0.960 . S
C1070 C1068 1.381 . S
C1070 C1071 1.394 . S
C1070 H1078 0.930 . S
C1071 C1070 1.394 . S
C1071 C1072 1.383 . S
C1071 H1079 0.929 . S
C1072 C1071 1.383 . S
C1072 C1073 1.377 . S
C1073 H1057 0.930 . S
C1073 C1072 1.377 . S
C1073 C1074 1.379 . S
C1074 H1058 0.931 . S
C1074 C1068 1.383 . S
C1074 C1073 1.379 . S
H1075 C1069 0.959 . S
H1076 C1069 0.961 . S
H1077 C1069 0.960 . S
H1078 C1070 0.930 . S
H1079 C1071 0.929 . S
H1080 C1088 0.929 . S
H1081 C1090 0.930 . S
H1082 C1092 0.930 . S
H1083 C1095 0.929 . S
H1084 C1098 0.930 . S
H1085 C1100 0.960 . S
H1086 C1100 0.960 . S
H1087 C1100 0.960 . S
C1088 H1080 0.929 . S
C1088 C1089 1.377 . S
C1088 C1090 1.384 . S
C1089 C1088 1.377 . S
C1089 C1095 1.390 . S
C1090 H1081 0.930 . S
C1090 C1088 1.384 . S
C1090 C1091 1.372 . S
C1091 C1090 1.372 . S
C1091 C1092 1.400 . S
C1091 C1096 1.490 . S
C1092 H1082 0.930 . S
C1092 C1091 1.400 . S
C1092 C1095 1.386 . S
H1093 C1109 0.930 . S
H1094 C1110 0.931 . S
C1095 H1083 0.929 . S
C1095 C1089 1.390 . S
C1095 C1092 1.386 . S
C1096 C1091 1.490 . S
C1096 C1098 1.395 . S
C1096 C1099 1.403 . S
H1097 C1103 0.930 . S
C1098 H1084 0.930 . S
C1098 C1096 1.395 . S
C1098 C1101 1.403 . S
C1099 C1096 1.403 . S
C1099 C1100 1.524 . S
C1099 C1103 1.400 . S
C1100 H1085 0.960 . S
C1100 H1086 0.960 . S
C1100 H1087 0.960 . S
C1100 C1099 1.524 . S
C1101 C1098 1.403 . S
C1101 C1102 1.392 . S
C1101 C1105 1.495 . S
C1102 C1101 1.392 . S
C1102 C1103 1.385 . S
C1102 C1104 1.478 . S
C1103 H1097 0.930 . S
C1103 C1099 1.400 . S
C1103 C1102 1.385 . S
C1104 C1102 1.478 . S
C1104 C1106 1.381 1_554 S
C1104 C1110 1.383 . S
C1105 C1101 1.495 . S
C1105 H1111 0.959 . S
C1105 H1112 0.961 . S
C1105 H1113 0.960 1_554 S
C1106 C1104 1.381 1_556 S
C1106 C1107 1.394 . S
C1106 H1114 0.930 . S
C1107 C1106 1.394 . S
C1107 C1108 1.383 . S
C1107 H1115 0.929 . S
C1108 C1107 1.383 . S
C1108 C1109 1.377 . S
C1109 H1093 0.930 . S
C1109 C1108 1.377 . S
C1109 C1110 1.379 1_556 S
C1110 H1094 0.931 . S
C1110 C1104 1.383 . S
C1110 C1109 1.379 1_554 S
H1111 C1105 0.959 . S
H1112 C1105 0.961 . S
H1113 C1105 0.960 1_556 S
H1114 C1106 0.930 . S
H1115 C1107 0.929 . S
H1116 C1124 0.929 . S
H1117 C1126 0.930 . S
H1118 C1128 0.930 . S
H1119 C1131 0.929 . S
H1120 C1134 0.930 . S
H1121 C1136 0.960 . S
H1122 C1136 0.960 . S
H1123 C1136 0.960 . S
C1124 H1116 0.929 . S
C1124 C1125 1.377 . S
C1124 C1126 1.384 . S
C1125 C1124 1.377 . S
C1125 C1131 1.390 . S
C1126 H1117 0.930 . S
C1126 C1124 1.384 . S
C1126 C1127 1.372 . S
C1127 C1126 1.372 . S
C1127 C1128 1.400 . S
C1127 C1132 1.490 . S
C1128 H1118 0.930 . S
C1128 C1127 1.400 . S
C1128 C1131 1.386 . S
H1129 C1145 0.930 . S
H1130 C1146 0.931 . S
C1131 H1119 0.929 . S
C1131 C1125 1.390 . S
C1131 C1128 1.386 . S
C1132 C1127 1.490 . S
C1132 C1134 1.395 . S
C1132 C1135 1.403 . S
H1133 C1139 0.930 . S
C1134 H1120 0.930 . S
C1134 C1132 1.395 . S
C1134 C1137 1.403 . S
C1135 C1132 1.403 . S
C1135 C1136 1.524 . S
C1135 C1139 1.400 . S
C1136 H1121 0.960 . S
C1136 H1122 0.960 . S
C1136 H1123 0.960 . S
C1136 C1135 1.524 . S
C1137 C1134 1.403 . S
C1137 C1138 1.392 . S
C1137 C1141 1.495 . S
C1138 C1137 1.392 . S
C1138 C1139 1.385 . S
C1138 C1140 1.478 . S
C1139 H1133 0.930 . S
C1139 C1135 1.400 . S
C1139 C1138 1.385 . S
C1140 C1138 1.478 . S
C1140 C1142 1.381 . S
C1140 C1146 1.383 . S
C1141 C1137 1.495 . S
C1141 H1147 0.959 . S
C1141 H1148 0.961 . S
C1141 H1149 0.960 . S
C1142 C1140 1.381 . S
C1142 C1143 1.394 . S
C1142 H1150 0.930 . S
C1143 C1142 1.394 . S
C1143 C1144 1.383 . S
C1143 H1151 0.929 . S
C1144 C1143 1.383 . S
C1144 C1145 1.377 . S
C1145 H1129 0.930 . S
C1145 C1144 1.377 . S
C1145 C1146 1.379 . S
C1146 H1130 0.931 . S
C1146 C1140 1.383 . S
C1146 C1145 1.379 . S
H1147 C1141 0.959 . S
H1148 C1141 0.961 . S
H1149 C1141 0.960 . S
H1150 C1142 0.930 . S
H1151 C1143 0.929 . S
H1152 C1160 0.929 . S
H1153 C1162 0.930 . S
H1154 C1164 0.930 . S
H1155 C1167 0.929 . S
H1156 C1170 0.930 . S
H1157 C1172 0.960 . S
H1158 C1172 0.970 . S
H1159 C1172 0.960 . S
C1160 H1152 0.929 . S
C1160 C1161 1.377 . S
C1160 C1162 1.384 1_556 S
C1161 C1160 1.377 . S
C1161 C1167 1.390 . S
C1162 H1153 0.930 . S
C1162 C1160 1.384 1_554 S
C1162 C1163 1.372 . S
C1163 C1162 1.372 . S
C1163 C1164 1.400 . S
C1163 C1168 1.490 . S
C1164 H1154 0.930 . S
C1164 C1163 1.400 . S
C1164 C1167 1.386 1_554 S
H1165 C1181 0.930 . S
H1166 C1182 0.931 . S
C1167 H1155 0.929 . S
C1167 C1161 1.390 . S
C1167 C1164 1.386 1_556 S
C1168 C1163 1.490 . S
C1168 C1170 1.395 . S
C1168 C1171 1.403 . S
H1169 C1175 0.930 . S
C1170 H1156 0.930 . S
C1170 C1168 1.395 . S
C1170 C1173 1.403 . S
C1171 C1168 1.403 . S
C1171 C1172 1.524 . S
C1171 C1175 1.400 . S
C1172 H1157 0.960 . S
C1172 H1158 0.970 . S
C1172 H1159 0.960 . S
C1172 C1171 1.524 . S
C1173 C1170 1.403 . S
C1173 C1174 1.392 . S
C1173 C1177 1.495 . S
C1174 C1173 1.392 . S
C1174 C1175 1.385 . S
C1174 C1176 1.478 . S
C1175 H1169 0.930 . S
C1175 C1171 1.400 . S
C1175 C1174 1.385 . S
C1176 C1174 1.478 . S
C1176 C1178 1.381 . S
C1176 C1182 1.383 . S
C1177 C1173 1.495 . S
C1177 H1183 0.959 . S
C1177 H1184 0.961 . S
C1177 H1185 0.960 . S
C1178 C1176 1.381 . S
C1178 C1179 1.394 . S
C1178 H1186 0.930 . S
C1179 C1178 1.394 . S
C1179 C1180 1.383 . S
C1179 H1187 0.929 . S
C1180 C1179 1.383 . S
C1180 C1181 1.377 . S
C1181 H1165 0.930 . S
C1181 C1180 1.377 . S
C1181 C1182 1.379 . S
C1182 H1166 0.931 . S
C1182 C1176 1.383 . S
C1182 C1181 1.379 . S
H1183 C1177 0.959 . S
H1184 C1177 0.961 . S
H1185 C1177 0.960 . S
H1186 C1178 0.930 . S
H1187 C1179 0.929 . S
H1188 C1196 0.929 . S
H1189 C1198 0.930 . S
H1190 C1200 0.930 . S
H1191 C1203 0.929 . S
H1192 C1206 0.930 . S
H1193 C1208 0.960 . S
H1194 C1208 0.960 . S
H1195 C1208 0.960 . S
C1196 H1188 0.929 . S
C1196 C1197 1.377 . S
C1196 C1198 1.384 . S
C1197 C1196 1.377 . S
C1197 C1203 1.390 . S
C1198 H1189 0.930 . S
C1198 C1196 1.384 . S
C1198 C1199 1.372 . S
C1199 C1198 1.372 . S
C1199 C1200 1.400 . S
C1199 C1204 1.490 . S
C1200 H1190 0.930 . S
C1200 C1199 1.400 . S
C1200 C1203 1.386 . S
H1201 C1217 0.930 . S
H1202 C1218 0.931 . S
C1203 H1191 0.929 . S
C1203 C1197 1.390 . S
C1203 C1200 1.386 . S
C1204 C1199 1.490 . S
C1204 C1206 1.395 . S
C1204 C1207 1.403 . S
H1205 C1211 0.930 . S
C1206 H1192 0.930 . S
C1206 C1204 1.395 . S
C1206 C1209 1.403 . S
C1207 C1204 1.403 . S
C1207 C1208 1.524 . S
C1207 C1211 1.400 . S
C1208 H1193 0.960 . S
C1208 H1194 0.960 . S
C1208 H1195 0.960 . S
C1208 C1207 1.524 . S
C1209 C1206 1.403 . S
C1209 C1210 1.392 . S
C1209 C1213 1.495 . S
C1210 C1209 1.392 . S
C1210 C1211 1.385 . S
C1210 C1212 1.478 . S
C1211 H1205 0.930 . S
C1211 C1207 1.400 . S
C1211 C1210 1.385 . S
C1212 C1210 1.478 . S
C1212 C1214 1.381 . S
C1212 C1218 1.383 . S
C1213 C1209 1.495 . S
C1213 H1219 0.959 . S
C1213 H1220 0.961 . S
C1213 H1221 0.960 . S
C1214 C1212 1.381 . S
C1214 C1215 1.394 . S
C1214 H1222 0.930 . S
C1215 C1214 1.394 . S
C1215 C1216 1.383 . S
C1215 H1223 0.929 . S
C1216 C1215 1.383 . S
C1216 C1217 1.377 . S
C1217 H1201 0.930 . S
C1217 C1216 1.377 . S
C1217 C1218 1.379 . S
C1218 H1202 0.931 . S
C1218 C1212 1.383 . S
C1218 C1217 1.379 . S
H1219 C1213 0.959 . S
H1220 C1213 0.961 . S
H1221 C1213 0.960 . S
H1222 C1214 0.930 . S
H1223 C1215 0.929 . S
H1224 C1232 0.929 . S
H1225 C1234 0.930 . S
H1226 C1236 0.930 . S
H1227 C1239 0.929 . S
H1228 C1242 0.930 . S
H1229 C1244 0.960 . S
H1230 C1244 0.960 . S
H1231 C1244 0.960 . S
C1232 H1224 0.929 . S
C1232 C1233 1.377 . S
C1232 C1234 1.384 . S
C1233 C1232 1.377 . S
C1233 C1239 1.390 . S
C1234 H1225 0.930 . S
C1234 C1232 1.384 . S
C1234 C1235 1.372 . S
C1235 C1234 1.372 . S
C1235 C1236 1.400 . S
C1235 C1240 1.490 . S
C1236 H1226 0.930 . S
C1236 C1235 1.400 . S
C1236 C1239 1.386 . S
H1237 C1253 0.930 . S
H1238 C1254 0.930 1_556 S
C1239 H1227 0.929 . S
C1239 C1233 1.390 . S
C1239 C1236 1.386 . S
C1240 C1235 1.490 . S
C1240 C1242 1.395 . S
C1240 C1243 1.403 . S
H1241 C1247 0.930 . S
C1242 H1228 0.930 . S
C1242 C1240 1.395 . S
C1242 C1245 1.403 . S
C1243 C1240 1.403 . S
C1243 C1244 1.524 . S
C1243 C1247 1.400 . S
C1244 H1229 0.960 . S
C1244 H1230 0.960 . S
C1244 H1231 0.960 . S
C1244 C1243 1.524 . S
C1245 C1242 1.403 . S
C1245 C1246 1.392 . S
C1245 C1249 1.495 . S
C1246 C1245 1.392 . S
C1246 C1247 1.385 . S
C1246 C1248 1.478 . S
C1247 H1241 0.930 . S
C1247 C1243 1.400 . S
C1247 C1246 1.385 . S
C1248 C1246 1.478 . S
C1248 C1250 1.381 . S
C1248 C1254 1.395 . S
C1249 C1245 1.495 . S
C1249 H1255 0.959 . S
C1249 H1256 0.961 . S
C1249 H1257 0.960 . S
C1250 C1248 1.381 . S
C1250 C1251 1.394 . S
C1250 H1258 0.930 . S
C1251 C1250 1.394 . S
C1251 C1252 1.383 1_554 S
C1251 H1259 0.929 . S
C1252 C1251 1.383 1_556 S
C1252 C1253 1.377 . S
C1253 H1237 0.930 . S
C1253 C1252 1.377 . S
C1253 C1254 1.368 1_556 S
C1254 H1238 0.930 1_554 S
C1254 C1248 1.395 . S
C1254 C1253 1.368 1_554 S
H1255 C1249 0.959 . S
H1256 C1249 0.961 . S
H1257 C1249 0.960 . S
H1258 C1250 0.930 . S
H1259 C1251 0.929 . S
H1260 C1268 0.929 . S
H1261 C1270 0.930 . S
H1262 C1272 0.930 . S
H1263 C1275 0.929 . S
H1264 C1278 0.930 . S
H1265 C1280 0.960 . S
H1266 C1280 0.960 . S
H1267 C1280 0.960 . S
C1268 H1260 0.929 . S
C1268 C1269 1.377 . S
C1268 C1270 1.384 . S
C1269 C1268 1.377 . S
C1269 C1275 1.390 . S
C1270 H1261 0.930 . S
C1270 C1268 1.384 . S
C1270 C1271 1.372 . S
C1271 C1270 1.372 . S
C1271 C1272 1.400 . S
C1271 C1276 1.490 . S
C1272 H1262 0.930 . S
C1272 C1271 1.400 . S
C1272 C1275 1.386 . S
H1273 C1289 0.930 . S
H1274 C1290 0.931 . S
C1275 H1263 0.929 . S
C1275 C1269 1.390 . S
C1275 C1272 1.386 . S
C1276 C1271 1.490 . S
C1276 C1278 1.395 . S
C1276 C1279 1.403 . S
H1277 C1283 0.930 . S
C1278 H1264 0.930 . S
C1278 C1276 1.395 . S
C1278 C1281 1.403 . S
C1279 C1276 1.403 . S
C1279 C1280 1.524 . S
C1279 C1283 1.400 . S
C1280 H1265 0.960 . S
C1280 H1266 0.960 . S
C1280 H1267 0.960 . S
C1280 C1279 1.524 . S
C1281 C1278 1.403 . S
C1281 C1282 1.392 . S
C1281 C1285 1.495 . S
C1282 C1281 1.392 . S
C1282 C1283 1.385 . S
C1282 C1284 1.478 . S
C1283 H1277 0.930 . S
C1283 C1279 1.400 . S
C1283 C1282 1.385 . S
C1284 C1282 1.478 . S
C1284 C1286 1.381 . S
C1284 C1290 1.383 . S
C1285 C1281 1.495 . S
C1285 H1291 0.959 . S
C1285 H1292 0.961 . S
C1285 H1293 0.960 . S
C1286 C1284 1.381 . S
C1286 C1287 1.394 . S
C1286 H1294 0.930 . S
C1287 C1286 1.394 . S
C1287 C1288 1.383 . S
C1287 H1295 0.929 . S
C1288 C1287 1.383 . S
C1288 C1289 1.377 . S
C1289 H1273 0.930 . S
C1289 C1288 1.377 . S
C1289 C1290 1.379 . S
C1290 H1274 0.931 . S
C1290 C1284 1.383 . S
C1290 C1289 1.379 . S
H1291 C1285 0.959 . S
H1292 C1285 0.961 . S
H1293 C1285 0.960 . S
H1294 C1286 0.930 . S
H1295 C1287 0.929 . S
H1296 C1304 0.929 . S
H1297 C1306 0.930 . S
H1298 C1308 0.930 . S
H1299 C1311 0.929 . S
H1300 C1314 0.930 . S
H1301 C1316 0.960 . S
H1302 C1316 0.960 . S
H1303 C1316 0.960 . S
C1304 H1296 0.929 . S
C1304 C1305 1.377 . S
C1304 C1306 1.384 . S
C1305 C1304 1.377 . S
C1305 C1311 1.390 . S
C1306 H1297 0.930 . S
C1306 C1304 1.384 . S
C1306 C1307 1.372 . S
C1307 C1306 1.372 . S
C1307 C1308 1.400 . S
C1307 C1312 1.490 . S
C1308 H1298 0.930 . S
C1308 C1307 1.400 . S
C1308 C1311 1.386 . S
H1309 C1325 0.930 . S
H1310 C1326 0.931 . S
C1311 H1299 0.929 . S
C1311 C1305 1.390 . S
C1311 C1308 1.386 . S
C1312 C1307 1.490 . S
C1312 C1314 1.395 . S
C1312 C1315 1.403 . S
H1313 C1319 0.930 . S
C1314 H1300 0.930 . S
C1314 C1312 1.395 . S
C1314 C1317 1.403 . S
C1315 C1312 1.403 . S
C1315 C1316 1.524 . S
C1315 C1319 1.400 . S
C1316 H1301 0.960 . S
C1316 H1302 0.960 . S
C1316 H1303 0.960 . S
C1316 C1315 1.524 . S
C1317 C1314 1.403 . S
C1317 C1318 1.392 . S
C1317 C1321 1.495 . S
C1318 C1317 1.392 . S
C1318 C1319 1.385 . S
C1318 C1320 1.478 . S
C1319 H1313 0.930 . S
C1319 C1315 1.400 . S
C1319 C1318 1.385 . S
C1320 C1318 1.478 . S
C1320 C1322 1.381 1_556 S
C1320 C1326 1.383 . S
C1321 C1317 1.495 . S
C1321 H1327 0.959 . S
C1321 H1328 0.961 . S
C1321 H1329 0.960 . S
C1322 C1320 1.381 1_554 S
C1322 C1323 1.394 . S
C1322 H1330 0.930 . S
C1323 C1322 1.394 . S
C1323 C1324 1.383 . S
C1323 H1331 0.929 . S
C1324 C1323 1.383 . S
C1324 C1325 1.377 1_554 S
C1325 H1309 0.930 . S
C1325 C1324 1.377 1_556 S
C1325 C1326 1.379 . S
C1326 H1310 0.931 . S
C1326 C1320 1.383 . S
C1326 C1325 1.379 . S
H1327 C1321 0.959 . S
H1328 C1321 0.961 . S
H1329 C1321 0.960 . S
H1330 C1322 0.930 . S
H1331 C1323 0.929 . S
H1332 C1340 0.929 . S
H1333 C1342 0.930 . S
H1334 C1344 0.930 . S
H1335 C1347 0.929 . S
H1336 C1350 0.930 . S
H1337 C1352 0.960 . S
H1338 C1352 0.960 . S
H1339 C1352 0.960 . S
C1340 H1332 0.929 . S
C1340 C1341 1.377 . S
C1340 C1342 1.384 . S
C1341 C1340 1.377 . S
C1341 C1347 1.390 . S
C1342 H1333 0.930 . S
C1342 C1340 1.384 . S
C1342 C1343 1.372 . S
C1343 C1342 1.372 . S
C1343 C1344 1.400 . S
C1343 C1348 1.490 . S
C1344 H1334 0.930 . S
C1344 C1343 1.400 . S
C1344 C1347 1.386 . S
H1345 C1361 0.930 . S
H1346 C1362 0.931 . S
C1347 H1335 0.929 . S
C1347 C1341 1.390 . S
C1347 C1344 1.386 . S
C1348 C1343 1.490 . S
C1348 C1350 1.395 . S
C1348 C1351 1.403 . S
H1349 C1355 0.930 . S
C1350 H1336 0.930 . S
C1350 C1348 1.395 . S
C1350 C1353 1.403 . S
C1351 C1348 1.403 . S
C1351 C1352 1.524 . S
C1351 C1355 1.400 . S
C1352 H1337 0.960 . S
C1352 H1338 0.960 . S
C1352 H1339 0.960 . S
C1352 C1351 1.524 . S
C1353 C1350 1.403 . S
C1353 C1354 1.392 . S
C1353 C1357 1.495 . S
C1354 C1353 1.392 . S
C1354 C1355 1.385 . S
C1354 C1356 1.478 . S
C1355 H1349 0.930 . S
C1355 C1351 1.400 . S
C1355 C1354 1.385 . S
C1356 C1354 1.478 . S
C1356 C1358 1.381 . S
C1356 C1362 1.383 . S
C1357 C1353 1.495 . S
C1357 H1363 0.959 . S
C1357 H1364 0.961 . S
C1357 H1365 0.960 . S
C1358 C1356 1.381 . S
C1358 C1359 1.394 . S
C1358 H1366 0.930 . S
C1359 C1358 1.394 . S
C1359 C1360 1.383 . S
C1359 H1367 0.929 . S
C1360 C1359 1.383 . S
C1360 C1361 1.377 . S
C1361 H1345 0.930 . S
C1361 C1360 1.377 . S
C1361 C1362 1.379 . S
C1362 H1346 0.931 . S
C1362 C1356 1.383 . S
C1362 C1361 1.379 . S
H1363 C1357 0.959 . S
H1364 C1357 0.961 . S
H1365 C1357 0.960 . S
H1366 C1358 0.930 . S
H1367 C1359 0.929 . S
H1368 C1376 0.929 . S
H1369 C1378 0.930 . S
H1370 C1380 0.930 . S
H1371 C1383 0.929 . S
H1372 C1386 0.930 . S
H1373 C1388 0.960 . S
H1374 C1388 0.960 . S
H1375 C1388 0.960 . S
C1376 H1368 0.929 . S
C1376 C1377 1.377 . S
C1376 C1378 1.384 1_554 S
C1377 C1376 1.377 . S
C1377 C1383 1.390 . S
C1378 H1369 0.930 . S
C1378 C1376 1.384 1_556 S
C1378 C1379 1.372 . S
C1379 C1378 1.372 . S
C1379 C1380 1.400 . S
C1379 C1384 1.490 . S
C1380 H1370 0.930 . S
C1380 C1379 1.400 . S
C1380 C1383 1.386 1_556 S
H1381 C1397 0.930 . S
H1382 C1398 0.931 . S
C1383 H1371 0.929 . S
C1383 C1377 1.390 . S
C1383 C1380 1.386 1_554 S
C1384 C1379 1.490 . S
C1384 C1386 1.395 . S
C1384 C1387 1.403 . S
H1385 C1391 0.930 . S
C1386 H1372 0.930 . S
C1386 C1384 1.395 . S
C1386 C1389 1.403 . S
C1387 C1384 1.403 . S
C1387 C1388 1.524 . S
C1387 C1391 1.400 . S
C1388 H1373 0.960 . S
C1388 H1374 0.960 . S
C1388 H1375 0.960 . S
C1388 C1387 1.524 . S
C1389 C1386 1.403 . S
C1389 C1390 1.392 . S
C1389 C1393 1.495 . S
C1390 C1389 1.392 . S
C1390 C1391 1.385 . S
C1390 C1392 1.478 . S
C1391 H1385 0.930 . S
C1391 C1387 1.400 . S
C1391 C1390 1.385 . S
C1392 C1390 1.478 . S
C1392 C1394 1.381 . S
C1392 C1398 1.383 . S
C1393 C1389 1.495 . S
C1393 H1399 0.959 . S
C1393 H1400 0.961 . S
C1393 H1401 0.960 . S
C1394 C1392 1.381 . S
C1394 C1395 1.394 . S
C1394 H1402 0.930 . S
C1395 C1394 1.394 . S
C1395 C1396 1.383 . S
C1395 H1403 0.929 . S
C1396 C1395 1.383 . S
C1396 C1397 1.377 . S
C1397 H1381 0.930 . S
C1397 C1396 1.377 . S
C1397 C1398 1.379 . S
C1398 H1382 0.931 . S
C1398 C1392 1.383 . S
C1398 C1397 1.379 . S
H1399 C1393 0.959 . S
H1400 C1393 0.961 . S
H1401 C1393 0.960 . S
H1402 C1394 0.930 . S
H1403 C1395 0.929 . S
H1404 C1412 0.929 . S
H1405 C1414 0.930 . S
H1406 C1416 0.930 . S
H1407 C1419 0.929 . S
H1408 C1422 0.930 . S
H1409 C1424 0.960 . S
H1410 C1424 0.960 . S
H1411 C1424 0.960 . S
C1412 H1404 0.929 . S
C1412 C1413 1.377 . S
C1412 C1414 1.384 . S
C1413 C1412 1.377 . S
C1413 C1419 1.390 . S
C1414 H1405 0.930 . S
C1414 C1412 1.384 . S
C1414 C1415 1.372 . S
C1415 C1414 1.372 . S
C1415 C1416 1.400 . S
C1415 C1420 1.490 . S
C1416 H1406 0.930 . S
C1416 C1415 1.400 . S
C1416 C1419 1.386 . S
H1417 C1433 0.930 . S
H1418 C1434 0.931 . S
C1419 H1407 0.929 . S
C1419 C1413 1.390 . S
C1419 C1416 1.386 . S
C1420 C1415 1.490 . S
C1420 C1422 1.395 . S
C1420 C1423 1.403 . S
H1421 C1427 0.930 . S
C1422 H1408 0.930 . S
C1422 C1420 1.395 . S
C1422 C1425 1.403 . S
C1423 C1420 1.403 . S
C1423 C1424 1.524 . S
C1423 C1427 1.400 . S
C1424 H1409 0.960 . S
C1424 H1410 0.960 . S
C1424 H1411 0.960 . S
C1424 C1423 1.524 . S
C1425 C1422 1.403 . S
C1425 C1426 1.392 . S
C1425 C1429 1.495 . S
C1426 C1425 1.392 . S
C1426 C1427 1.385 . S
C1426 C1428 1.478 . S
C1427 H1421 0.930 . S
C1427 C1423 1.400 . S
C1427 C1426 1.385 . S
C1428 C1426 1.478 . S
C1428 C1430 1.381 . S
C1428 C1434 1.383 . S
C1429 C1425 1.495 . S
C1429 H1435 0.959 . S
C1429 H1436 0.961 . S
C1429 H1437 0.960 . S
C1430 C1428 1.381 . S
C1430 C1431 1.394 . S
C1430 H1438 0.930 . S
C1431 C1430 1.394 . S
C1431 C1432 1.383 . S
C1431 H1439 0.929 . S
C1432 C1431 1.383 . S
C1432 C1433 1.377 . S
C1433 H1417 0.930 . S
C1433 C1432 1.377 . S
C1433 C1434 1.379 . S
C1434 H1418 0.931 . S
C1434 C1428 1.383 . S
C1434 C1433 1.379 . S
H1435 C1429 0.959 . S
H1436 C1429 0.961 . S
H1437 C1429 0.960 . S
H1438 C1430 0.930 . S
H1439 C1431 0.929 . S
H1440 C1448 0.929 . S
H1441 C1450 0.930 . S
H1442 C1452 0.930 . S
H1443 C1455 0.929 . S
H1444 C1458 0.930 . S
H1445 C1460 0.960 . S
H1446 C1460 0.960 . S
H1447 C1460 0.960 . S
C1448 H1440 0.929 . S
C1448 C1449 1.377 . S
C1448 C1450 1.384 . S
C1449 C1448 1.377 . S
C1449 C1455 1.390 . S
C1450 H1441 0.930 . S
C1450 C1448 1.384 . S
C1450 C1451 1.372 . S
C1451 C1450 1.372 . S
C1451 C1452 1.400 . S
C1451 C1456 1.490 . S
C1452 H1442 0.930 . S
C1452 C1451 1.400 . S
C1452 C1455 1.386 . S
H1453 C1469 0.930 . S
H1454 C1470 0.931 . S
C1455 H1443 0.929 . S
C1455 C1449 1.390 . S
C1455 C1452 1.386 . S
C1456 C1451 1.490 . S
C1456 C1458 1.395 . S
C1456 C1459 1.403 . S
H1457 C1463 0.930 . S
C1458 H1444 0.930 . S
C1458 C1456 1.395 . S
C1458 C1461 1.403 . S
C1459 C1456 1.403 . S
C1459 C1460 1.524 . S
C1459 C1463 1.400 . S
C1460 H1445 0.960 . S
C1460 H1446 0.960 . S
C1460 H1447 0.960 . S
C1460 C1459 1.524 . S
C1461 C1458 1.403 . S
C1461 C1462 1.392 . S
C1461 C1465 1.495 . S
C1462 C1461 1.392 . S
C1462 C1463 1.385 . S
C1462 C1464 1.478 . S
C1463 H1457 0.930 . S
C1463 C1459 1.400 . S
C1463 C1462 1.385 . S
C1464 C1462 1.478 . S
C1464 C1466 1.381 . S
C1464 C1470 1.383 . S
C1465 C1461 1.495 . S
C1465 H1471 0.959 . S
C1465 H1472 0.961 . S
C1465 H1473 0.960 . S
C1466 C1464 1.381 . S
C1466 C1467 1.394 . S
C1466 H1474 0.930 . S
C1467 C1466 1.394 . S
C1467 C1468 1.383 . S
C1467 H1475 0.929 . S
C1468 C1467 1.383 . S
C1468 C1469 1.377 . S
C1469 H1453 0.930 . S
C1469 C1468 1.377 . S
C1469 C1470 1.379 . S
C1470 H1454 0.931 . S
C1470 C1464 1.383 . S
C1470 C1469 1.379 . S
H1471 C1465 0.959 . S
H1472 C1465 0.961 . S
H1473 C1465 0.960 . S
H1474 C1466 0.930 . S
H1475 C1467 0.929 . S
H1476 C1484 0.929 . S
H1477 C1486 0.930 . S
H1478 C1488 0.930 . S
H1479 C1491 0.929 . S
H1480 C1494 0.930 . S
H1481 C1496 0.960 . S
H1482 C1496 0.960 . S
H1483 C1496 0.960 . S
C1484 H1476 0.929 . S
C1484 C1485 1.377 . S
C1484 C1486 1.384 . S
C1485 C1484 1.377 . S
C1485 C1491 1.390 . S
C1486 H1477 0.930 . S
C1486 C1484 1.384 . S
C1486 C1487 1.372 . S
C1487 C1486 1.372 . S
C1487 C1488 1.400 . S
C1487 C1492 1.490 . S
C1488 H1478 0.930 . S
C1488 C1487 1.400 . S
C1488 C1491 1.386 . S
H1489 C1505 0.930 . S
H1490 C1506 0.931 . S
C1491 H1479 0.929 . S
C1491 C1485 1.390 . S
C1491 C1488 1.386 . S
C1492 C1487 1.490 . S
C1492 C1494 1.395 . S
C1492 C1495 1.403 . S
H1493 C1499 0.930 . S
C1494 H1480 0.930 . S
C1494 C1492 1.395 . S
C1494 C1497 1.403 . S
C1495 C1492 1.403 . S
C1495 C1496 1.524 . S
C1495 C1499 1.400 . S
C1496 H1481 0.960 . S
C1496 H1482 0.960 . S
C1496 H1483 0.960 . S
C1496 C1495 1.524 . S
C1497 C1494 1.403 . S
C1497 C1498 1.392 . S
C1497 C1501 1.495 . S
C1498 C1497 1.392 . S
C1498 C1499 1.385 . S
C1498 C1500 1.478 . S
C1499 H1493 0.930 . S
C1499 C1495 1.400 . S
C1499 C1498 1.385 . S
C1500 C1498 1.478 . S
C1500 C1502 1.381 . S
C1500 C1506 1.383 . S
C1501 C1497 1.495 . S
C1501 H1507 0.959 . S
C1501 H1508 0.961 . S
C1501 H1509 0.960 . S
C1502 C1500 1.381 . S
C1502 C1503 1.394 . S
C1502 H1510 0.930 . S
C1503 C1502 1.394 . S
C1503 C1504 1.383 . S
C1503 H1511 0.929 . S
C1504 C1503 1.383 . S
C1504 C1505 1.377 . S
C1505 H1489 0.930 . S
C1505 C1504 1.377 . S
C1505 C1506 1.379 . S
C1506 H1490 0.931 . S
C1506 C1500 1.383 . S
C1506 C1505 1.379 . S
H1507 C1501 0.959 . S
H1508 C1501 0.961 . S
H1509 C1501 0.960 . S
H1510 C1502 0.930 . S
H1511 C1503 0.929 . S
H1512 C1520 0.929 . S
H1513 C1522 0.930 . S
H1514 C1524 0.930 . S
H1515 C1527 0.929 . S
H1516 C1530 0.930 . S
H1517 C1532 0.960 . S
H1518 C1532 0.960 . S
H1519 C1532 0.960 . S
C1520 H1512 0.929 . S
C1520 C1521 1.377 . S
C1520 C1522 1.384 . S
C1521 C1520 1.377 . S
C1521 C1527 1.390 . S
C1522 H1513 0.930 . S
C1522 C1520 1.384 . S
C1522 C1523 1.372 . S
C1523 C1522 1.372 . S
C1523 C1524 1.400 . S
C1523 C1528 1.490 . S
C1524 H1514 0.930 . S
C1524 C1523 1.400 . S
C1524 C1527 1.386 . S
H1525 C1541 0.930 . S
H1526 C1542 0.931 . S
C1527 H1515 0.929 . S
C1527 C1521 1.390 . S
C1527 C1524 1.386 . S
C1528 C1523 1.490 . S
C1528 C1530 1.395 . S
C1528 C1531 1.403 . S
H1529 C1535 0.930 . S
C1530 H1516 0.930 . S
C1530 C1528 1.395 . S
C1530 C1533 1.403 . S
C1531 C1528 1.403 . S
C1531 C1532 1.524 . S
C1531 C1535 1.400 . S
C1532 H1517 0.960 . S
C1532 H1518 0.960 . S
C1532 H1519 0.960 . S
C1532 C1531 1.524 . S
C1533 C1530 1.403 . S
C1533 C1534 1.392 . S
C1533 C1537 1.495 . S
C1534 C1533 1.392 . S
C1534 C1535 1.385 . S
C1534 C1536 1.478 . S
C1535 H1529 0.930 . S
C1535 C1531 1.400 . S
C1535 C1534 1.385 . S
C1536 C1534 1.478 . S
C1536 C1538 1.381 . S
C1536 C1542 1.383 . S
C1537 C1533 1.495 . S
C1537 H1543 0.959 . S
C1537 H1544 0.961 . S
C1537 H1545 0.960 . S
C1538 C1536 1.381 . S
C1538 C1539 1.394 . S
C1538 H1546 0.930 . S
C1539 C1538 1.394 . S
C1539 C1540 1.383 . S
C1539 H1547 0.929 . S
C1540 C1539 1.383 . S
C1540 C1541 1.377 . S
C1541 H1525 0.930 . S
C1541 C1540 1.377 . S
C1541 C1542 1.379 . S
C1542 H1526 0.931 . S
C1542 C1536 1.383 . S
C1542 C1541 1.379 . S
H1543 C1537 0.959 . S
H1544 C1537 0.961 . S
H1545 C1537 0.960 . S
H1546 C1538 0.930 . S
H1547 C1539 0.929 . S
H1548 C1556 0.929 . S
H1549 C1558 0.930 . S
H1550 C1560 0.930 . S
H1551 C1563 0.929 . S
H1552 C1566 0.930 . S
H1553 C1568 0.960 . S
H1554 C1568 0.960 . S
H1555 C1568 0.960 . S
C1556 H1548 0.929 . S
C1556 C1557 1.377 . S
C1556 C1558 1.384 . S
C1557 C1556 1.377 . S
C1557 C1563 1.390 . S
C1558 H1549 0.930 . S
C1558 C1556 1.384 . S
C1558 C1559 1.372 . S
C1559 C1558 1.372 . S
C1559 C1560 1.400 . S
C1559 C1564 1.490 . S
C1560 H1550 0.930 . S
C1560 C1559 1.400 . S
C1560 C1563 1.386 . S
H1561 C1577 0.930 . S
H1562 C1578 0.931 . S
C1563 H1551 0.929 . S
C1563 C1557 1.390 . S
C1563 C1560 1.386 . S
C1564 C1559 1.490 . S
C1564 C1566 1.395 . S
C1564 C1567 1.403 . S
H1565 C1571 0.930 . S
C1566 H1552 0.930 . S
C1566 C1564 1.395 . S
C1566 C1569 1.403 . S
C1567 C1564 1.403 . S
C1567 C1568 1.524 . S
C1567 C1571 1.400 . S
C1568 H1553 0.960 . S
C1568 H1554 0.960 . S
C1568 H1555 0.960 . S
C1568 C1567 1.524 . S
C1569 C1566 1.403 . S
C1569 C1570 1.392 . S
C1569 C1573 1.495 . S
C1570 C1569 1.392 . S
C1570 C1571 1.385 . S
C1570 C1572 1.478 . S
C1571 H1565 0.930 . S
C1571 C1567 1.400 . S
C1571 C1570 1.385 . S
C1572 C1570 1.478 . S
C1572 C1574 1.381 . S
C1572 C1578 1.383 . S
C1573 C1569 1.495 . S
C1573 H1579 0.959 . S
C1573 H1580 0.961 . S
C1573 H1581 0.960 . S
C1574 C1572 1.381 . S
C1574 C1575 1.394 . S
C1574 H1582 0.930 . S
C1575 C1574 1.394 . S
C1575 C1576 1.383 . S
C1575 H1583 0.929 . S
C1576 C1575 1.383 . S
C1576 C1577 1.377 . S
C1577 H1561 0.930 . S
C1577 C1576 1.377 . S
C1577 C1578 1.379 . S
C1578 H1562 0.931 . S
C1578 C1572 1.383 . S
C1578 C1577 1.379 . S
H1579 C1573 0.959 . S
H1580 C1573 0.961 . S
H1581 C1573 0.960 . S
H1582 C1574 0.930 . S
H1583 C1575 0.929 . S
H1584 C1592 0.929 . S
H1585 C1594 0.930 . S
H1586 C1596 0.930 . S
H1587 C1599 0.929 . S
H1588 C1602 0.930 . S
H1589 C1604 0.960 . S
H1590 C1604 0.960 . S
H1591 C1604 0.960 . S
C1592 H1584 0.929 . S
C1592 C1593 1.377 . S
C1592 C1594 1.384 . S
C1593 C1592 1.377 . S
C1593 C1599 1.390 . S
C1594 H1585 0.930 . S
C1594 C1592 1.384 . S
C1594 C1595 1.372 . S
C1595 C1594 1.372 . S
C1595 C1596 1.400 . S
C1595 C1600 1.490 . S
C1596 H1586 0.930 . S
C1596 C1595 1.400 . S
C1596 C1599 1.386 . S
H1597 C1613 0.930 . S
H1598 C1614 0.931 . S
C1599 H1587 0.929 . S
C1599 C1593 1.390 . S
C1599 C1596 1.386 . S
C1600 C1595 1.490 . S
C1600 C1602 1.395 . S
C1600 C1603 1.403 . S
H1601 C1607 0.930 . S
C1602 H1588 0.930 . S
C1602 C1600 1.395 . S
C1602 C1605 1.403 . S
C1603 C1600 1.403 . S
C1603 C1604 1.524 . S
C1603 C1607 1.400 . S
C1604 H1589 0.960 . S
C1604 H1590 0.960 . S
C1604 H1591 0.960 . S
C1604 C1603 1.524 . S
C1605 C1602 1.403 . S
C1605 C1606 1.392 . S
C1605 C1609 1.495 . S
C1606 C1605 1.392 . S
C1606 C1607 1.385 . S
C1606 C1608 1.478 . S
C1607 H1601 0.930 . S
C1607 C1603 1.400 . S
C1607 C1606 1.385 . S
C1608 C1606 1.478 . S
C1608 C1610 1.381 . S
C1608 C1614 1.383 . S
C1609 C1605 1.495 . S
C1609 H1615 0.959 . S
C1609 H1616 0.961 . S
C1609 H1617 0.960 . S
C1610 C1608 1.381 . S
C1610 C1611 1.394 . S
C1610 H1618 0.930 . S
C1611 C1610 1.394 . S
C1611 C1612 1.383 . S
C1611 H1619 0.929 . S
C1612 C1611 1.383 . S
C1612 C1613 1.377 . S
C1613 H1597 0.930 . S
C1613 C1612 1.377 . S
C1613 C1614 1.379 . S
C1614 H1598 0.931 . S
C1614 C1608 1.383 . S
C1614 C1613 1.379 . S
H1615 C1609 0.959 . S
H1616 C1609 0.961 . S
H1617 C1609 0.960 . S
H1618 C1610 0.930 . S
H1619 C1611 0.929 . S
H1620 C1628 0.929 . S
H1621 C1630 0.930 . S
H1622 C1632 0.930 . S
H1623 C1635 0.929 . S
H1624 C1638 0.930 . S
H1625 C1640 0.960 . S
H1626 C1640 0.960 . S
H1627 C1640 0.960 . S
C1628 H1620 0.929 . S
C1628 C1629 1.377 . S
C1628 C1630 1.384 . S
C1629 C1628 1.377 . S
C1629 C1635 1.390 . S
C1630 H1621 0.930 . S
C1630 C1628 1.384 . S
C1630 C1631 1.372 . S
C1631 C1630 1.372 . S
C1631 C1632 1.400 . S
C1631 C1636 1.490 . S
C1632 H1622 0.930 . S
C1632 C1631 1.400 . S
C1632 C1635 1.386 . S
H1633 C1649 0.930 . S
H1634 C1650 0.931 . S
C1635 H1623 0.929 . S
C1635 C1629 1.390 . S
C1635 C1632 1.386 . S
C1636 C1631 1.490 . S
C1636 C1638 1.395 . S
C1636 C1639 1.403 . S
H1637 C1643 0.930 . S
C1638 H1624 0.930 . S
C1638 C1636 1.395 . S
C1638 C1641 1.403 . S
C1639 C1636 1.403 . S
C1639 C1640 1.524 . S
C1639 C1643 1.400 . S
C1640 H1625 0.960 . S
C1640 H1626 0.960 . S
C1640 H1627 0.960 . S
C1640 C1639 1.524 . S
C1641 C1638 1.403 . S
C1641 C1642 1.392 . S
C1641 C1645 1.495 . S
C1642 C1641 1.392 . S
C1642 C1643 1.385 . S
C1642 C1644 1.478 . S
C1643 H1637 0.930 . S
C1643 C1639 1.400 . S
C1643 C1642 1.385 . S
C1644 C1642 1.478 . S
C1644 C1646 1.381 . S
C1644 C1650 1.383 . S
C1645 C1641 1.495 . S
C1645 H1651 0.959 . S
C1645 H1652 0.961 . S
C1645 H1653 0.960 . S
C1646 C1644 1.381 . S
C1646 C1647 1.394 . S
C1646 H1654 0.930 . S
C1647 C1646 1.394 . S
C1647 C1648 1.383 . S
C1647 H1655 0.929 . S
C1648 C1647 1.383 . S
C1648 C1649 1.377 . S
C1649 H1633 0.930 . S
C1649 C1648 1.377 . S
C1649 C1650 1.379 . S
C1650 H1634 0.931 . S
C1650 C1644 1.383 . S
C1650 C1649 1.379 . S
H1651 C1645 0.959 . S
H1652 C1645 0.961 . S
H1653 C1645 0.960 . S
H1654 C1646 0.930 . S
H1655 C1647 0.929 . S
H1656 C1664 0.929 . S
H1657 C1666 0.930 . S
H1658 C1668 0.930 . S
H1659 C1671 0.929 . S
H1660 C1674 0.930 . S
H1661 C1676 0.960 . S
H1662 C1676 0.960 . S
H1663 C1676 0.960 . S
C1664 H1656 0.929 . S
C1664 C1665 1.377 . S
C1664 C1666 1.384 . S
C1665 C1664 1.377 . S
C1665 C1671 1.390 . S
C1666 H1657 0.930 . S
C1666 C1664 1.384 . S
C1666 C1667 1.372 . S
C1667 C1666 1.372 . S
C1667 C1668 1.400 . S
C1667 C1672 1.490 . S
C1668 H1658 0.930 . S
C1668 C1667 1.400 . S
C1668 C1671 1.386 . S
H1669 C1685 0.930 . S
H1670 C1686 0.931 . S
C1671 H1659 0.929 . S
C1671 C1665 1.390 . S
C1671 C1668 1.386 . S
C1672 C1667 1.490 . S
C1672 C1674 1.395 . S
C1672 C1675 1.403 . S
H1673 C1679 0.930 . S
C1674 H1660 0.930 . S
C1674 C1672 1.395 . S
C1674 C1677 1.403 . S
C1675 C1672 1.403 . S
C1675 C1676 1.524 . S
C1675 C1679 1.400 . S
C1676 H1661 0.960 . S
C1676 H1662 0.960 . S
C1676 H1663 0.960 . S
C1676 C1675 1.524 . S
C1677 C1674 1.403 . S
C1677 C1678 1.392 . S
C1677 C1681 1.495 . S
C1678 C1677 1.392 . S
C1678 C1679 1.385 . S
C1678 C1680 1.478 . S
C1679 H1673 0.930 . S
C1679 C1675 1.400 . S
C1679 C1678 1.385 . S
C1680 C1678 1.478 . S
C1680 C1682 1.381 . S
C1680 C1686 1.383 . S
C1681 C1677 1.495 . S
C1681 H1687 0.959 . S
C1681 H1688 0.961 . S
C1681 H1689 0.960 . S
C1682 C1680 1.381 . S
C1682 C1683 1.394 . S
C1682 H1690 0.930 . S
C1683 C1682 1.394 . S
C1683 C1684 1.383 . S
C1683 H1691 0.929 . S
C1684 C1683 1.383 . S
C1684 C1685 1.377 . S
C1685 H1669 0.930 . S
C1685 C1684 1.377 . S
C1685 C1686 1.379 . S
C1686 H1670 0.931 . S
C1686 C1680 1.383 . S
C1686 C1685 1.379 . S
H1687 C1681 0.959 . S
H1688 C1681 0.961 . S
H1689 C1681 0.960 . S
H1690 C1682 0.930 . S
H1691 C1683 0.929 . S
H1692 C1700 0.929 . S
H1693 C1702 0.930 . S
H1694 C1704 0.930 . S
H1695 C1707 0.929 . S
H1696 C1710 0.930 . S
H1697 C1712 0.960 . S
H1698 C1712 0.960 . S
H1699 C1712 0.960 . S
C1700 H1692 0.929 . S
C1700 C1701 1.377 . S
C1700 C1702 1.384 . S
C1701 C1700 1.377 . S
C1701 C1707 1.390 . S
C1702 H1693 0.930 . S
C1702 C1700 1.384 . S
C1702 C1703 1.372 . S
C1703 C1702 1.372 . S
C1703 C1704 1.400 . S
C1703 C1708 1.490 . S
C1704 H1694 0.930 . S
C1704 C1703 1.400 . S
C1704 C1707 1.386 . S
H1705 C1721 0.930 . S
H1706 C1722 0.931 . S
C1707 H1695 0.929 . S
C1707 C1701 1.390 . S
C1707 C1704 1.386 . S
C1708 C1703 1.490 . S
C1708 C1710 1.395 . S
C1708 C1711 1.403 . S
H1709 C1715 0.930 . S
C1710 H1696 0.930 . S
C1710 C1708 1.395 . S
C1710 C1713 1.403 . S
C1711 C1708 1.403 . S
C1711 C1712 1.524 . S
C1711 C1715 1.400 . S
C1712 H1697 0.960 . S
C1712 H1698 0.960 . S
C1712 H1699 0.960 . S
C1712 C1711 1.524 . S
C1713 C1710 1.403 . S
C1713 C1714 1.392 . S
C1713 C1717 1.495 . S
C1714 C1713 1.392 . S
C1714 C1715 1.385 . S
C1714 C1716 1.478 . S
C1715 H1709 0.930 . S
C1715 C1711 1.400 . S
C1715 C1714 1.385 . S
C1716 C1714 1.478 . S
C1716 C1718 1.381 . S
C1716 C1722 1.383 . S
C1717 C1713 1.495 . S
C1717 H1723 0.959 . S
C1717 H1724 0.961 . S
C1717 H1725 0.960 . S
C1718 C1716 1.381 . S
C1718 C1719 1.394 . S
C1718 H1726 0.930 . S
C1719 C1718 1.394 . S
C1719 C1720 1.383 . S
C1719 H1727 0.929 . S
C1720 C1719 1.383 . S
C1720 C1721 1.377 . S
C1721 H1705 0.930 . S
C1721 C1720 1.377 . S
C1721 C1722 1.379 . S
C1722 H1706 0.931 . S
C1722 C1716 1.383 . S
C1722 C1721 1.379 . S
H1723 C1717 0.959 . S
H1724 C1717 0.961 . S
H1725 C1717 0.960 . S
H1726 C1718 0.930 . S
H1727 C1719 0.929 . S
C585 C4 0.986 . S
C604 C148 0.994 . S
C621 C184 0.980 . S
C640 C40 0.955 . S
C657 C76 0.982 . S
C676 C220 0.957 . S
C693 C112 0.981 . S
C712 C256 1.004 . S
C729 C292 0.980 . S
C748 C436 0.989 . S
C765 C472 0.986 . S
C784 C328 1.003 . S
C801 C364 0.986 . S
C820 C508 0.987 . S
C837 C400 0.982 . S
C856 C544 1.000 . S
C873 C14 1.330 . S
C892 C543 1.367 . S
C909 C435 1.363 . S
C928 C50 1.313 . S
C945 C86 1.329 . S
C964 C471 1.367 . S
C981 C507 1.361 . S
C1000 C122 1.354 . S
C1017 C327 1.361 . S
C1036 C158 1.351 . S
C1053 C363 1.364 . S
C1072 C194 1.329 . S
C1089 C399 1.360 . S
C1108 C230 1.356 . S
C1125 C291 1.363 . S
C1144 C266 1.323 . S
C1161 C302 1.339 . S
C1180 C255 1.353 . S
C1197 C147 1.360 . S
C1216 C338 1.349 . S
C1233 C183 1.360 . S
C1252 C374 1.318 . S
C1269 C410 1.334 . S
C1288 C219 1.349 . S
C1305 C39 1.363 . S
C1324 C446 1.313 . S
C1341 C482 1.335 . S
C1360 C75 1.369 . S
C1377 C518 1.339 . S
C1396 C111 1.358 . S
C1413 C554 1.334 . S
C1432 C3 1.368 . S
C1449 C254 0.927 . S
C1468 C2 0.891 . S
C1485 C38 0.915 . S
C1504 C146 0.943 . S
C1521 C74 0.919 . S
C1540 C182 0.939 . S
C1557 C110 0.915 . S
C1576 C218 0.941 . S
C1593 C542 0.920 . S
C1612 C290 0.899 . S
C1629 C434 0.924 . S
C1648 C326 0.920 . S
C1665 C470 0.922 . S
C1684 C362 0.941 . S
C1701 C506 0.921 . S
C1720 C398 0.936 . S
