# Generated by pormake.
# Topology sxa, (6)-cn, num edge types: 1
# Building blocks:
#     Node 0, Type 0, BuildingBlock: MIDCAF_clean_sbu_0, # of connection points: 6
#     Node 1, Type 0, BuildingBlock: MIDCAF_clean_sbu_0, # of connection points: 6
#     Node 2, Type 0, BuildingBlock: MIDCAF_clean_sbu_0, # of connection points: 6
#     Node 3, Type 0, BuildingBlock: MIDCAF_clean_sbu_0, # of connection points: 6
#     Edge 4, Type (0, 0), BuildingBlock: XIVTED_clean_linker_0, # of connection points: 2
#     Edge 5, Type (0, 0), BuildingBlock: XIVTED_clean_linker_0, # of connection points: 2
#     Edge 6, Type (0, 0), BuildingBlock: XIVTED_clean_linker_0, # of connection points: 2
#     Edge 7, Type (0, 0), BuildingBlock: XIVTED_clean_linker_0, # of connection points: 2
#     Edge 8, Type (0, 0), BuildingBlock: XIVTED_clean_linker_0, # of connection points: 2
#     Edge 9, Type (0, 0), BuildingBlock: XIVTED_clean_linker_0, # of connection points: 2
#     Edge 10, Type (0, 0), BuildingBlock: XIVTED_clean_linker_0, # of connection points: 2
#     Edge 11, Type (0, 0), BuildingBlock: XIVTED_clean_linker_0, # of connection points: 2
#     Edge 12, Type (0, 0), BuildingBlock: XIVTED_clean_linker_0, # of connection points: 2
#     Edge 13, Type (0, 0), BuildingBlock: XIVTED_clean_linker_0, # of connection points: 2
#     Edge 14, Type (0, 0), BuildingBlock: XIVTED_clean_linker_0, # of connection points: 2
#     Edge 15, Type (0, 0), BuildingBlock: XIVTED_clean_linker_0, # of connection points: 2
# Relax obj value: 0.200
# Max RMSD: 0.180
# Mean RMSD: 0.180
data_MOF--net-sxa--node1-MIDCAF_clean_sbu_0--edge1-XIVTED_clean_linker_0
_symmetry_space_group_name_H-M    P1
_symmetry_Int_Tables_number       1
_symmetry_cell_setting            triclinic
loop_
_symmetry_equiv_pos_as_xyz
'x, y, z'
_cell_length_a     22.430231
_cell_length_b     27.142158
_cell_length_c     19.020579
_cell_angle_alpha  89.811164
_cell_angle_beta   88.344454
_cell_angle_gamma 90.684665
loop_
_atom_site_label
_atom_site_type_symbol
_atom_site_fract_x
_atom_site_fract_y
_atom_site_fract_z
_atom_type_partial_charge
Zn0 Zn 0.94209 0.88512 0.27504 0.0
Zn1 Zn 0.08444 0.7547 0.21392 0.0
Zn2 Zn 0.00569 0.8176 0.22494 0.0
C3 C 0.12027 0.8422 0.13819 0.0
C4 C -0.00542 0.71095 0.14249 0.0
O5 O 0.97936 0.81534 0.34105 0.0
O6 O 0.94522 0.88658 0.37871 0.0
C7 C -0.00026 0.93576 0.17169 0.0
O8 O 0.06819 0.85732 0.15678 0.0
O9 O 0.13792 0.80057 0.15837 0.0
O10 O 0.04617 0.7008 0.16221 0.0
O11 O 0.97096 0.75246 0.16072 0.0
O12 O 0.96306 0.945 0.22122 0.0
O13 O 0.02048 0.89152 0.16545 0.0
O14 O 0.9259 0.7843 0.19353 0.0
O15 O 0.87237 0.84332 0.24298 0.0
C16 C 0.87519 0.80241 0.21115 0.0
O17 O 0.04954 0.80506 0.32782 0.0
O18 O 0.10758 0.74116 0.31005 0.0
C19 C 0.95544 0.84174 0.39058 0.0
C20 C 0.08729 0.77387 0.35066 0.0
Zn21 Zn 0.57433 0.21271 0.1931 0.0
Zn22 Zn 0.46901 0.33878 0.28681 0.0
Zn23 Zn 0.49579 0.2687 0.22116 0.0
C24 C 0.39181 0.33036 0.17694 0.0
C25 C 0.52272 0.38141 0.17438 0.0
O26 O 0.57001 0.29117 0.28533 0.0
O27 O 0.64155 0.24481 0.24232 0.0
C28 C 0.4909 0.1495 0.19842 0.0
O29 O 0.44112 0.31212 0.15311 0.0
O30 O 0.38703 0.34059 0.24167 0.0
O31 O 0.5272 0.39016 0.23973 0.0
O32 O 0.50511 0.33789 0.15556 0.0
O33 O 0.54329 0.14543 0.22035 0.0
O34 O 0.46912 0.19269 0.19275 0.0
O35 O 0.49824 0.29146 0.11306 0.0
O36 O 0.56087 0.23062 0.09109 0.0
C37 C 0.5282 0.26483 0.069 0.0
O38 O 0.42719 0.25168 0.29636 0.0
O39 O 0.4671 0.29798 0.37724 0.0
C40 C 0.62479 0.279 0.28292 0.0
C41 C 0.42985 0.26454 0.36074 0.0
Zn42 Zn 0.96246 0.2432 0.69661 0.0
Zn43 Zn 0.02187 0.39594 0.7139 0.0
Zn44 Zn 0.9806 0.32307 0.77879 0.0
C45 C 0.07826 0.39085 0.83914 0.0
C46 C 0.94627 0.43425 0.80996 0.0
O47 O 0.9262 0.34143 0.69025 0.0
O48 O 0.96308 0.28868 0.61264 0.0
C49 C 0.00929 0.21463 0.82177 0.0
O50 O 0.02787 0.36939 0.85222 0.0
O51 O 0.09193 0.40308 0.77665 0.0
O52 O 0.95306 0.44218 0.74413 0.0
O53 O 0.96268 0.39247 0.83465 0.0
O54 O 0.02383 0.20816 0.75736 0.0
O55 O 0.98014 0.25355 0.83912 0.0
O56 O 0.91318 0.27614 0.82554 0.0
O57 O 0.87725 0.24012 0.73207 0.0
C58 C 0.86917 0.25715 0.79322 0.0
O59 O 0.05766 0.30402 0.71417 0.0
O60 O 0.05115 0.35868 0.6284 0.0
C61 C 0.93058 0.32564 0.62693 0.0
C62 C 0.07482 0.32029 0.65358 0.0
Zn63 Zn 0.53866 0.85005 0.76072 0.0
Zn64 Zn 0.415 0.67705 0.68404 0.0
Zn65 Zn 0.49271 0.77649 0.79176 0.0
C66 C 0.36575 0.72842 0.78417 0.0
C67 C 0.48572 0.65057 0.8111 0.0
O68 O 0.57528 0.7688 0.72745 0.0
O69 O 0.56589 0.83437 0.66093 0.0
C70 C 0.45834 0.88194 0.85499 0.0
O71 O 0.42234 0.72878 0.78011 0.0
O72 O 0.33936 0.69956 0.74254 0.0
O73 O 0.46331 0.63547 0.75387 0.0
O74 O 0.49185 0.69711 0.82342 0.0
O75 O 0.47551 0.89882 0.79539 0.0
O76 O 0.4677 0.83621 0.8685 0.0
O77 O 0.51678 0.80105 0.89148 0.0
O78 O 0.59823 0.82568 0.83562 0.0
C79 C 0.57325 0.80752 0.89054 0.0
O80 O 0.43705 0.80455 0.71162 0.0
O81 O 0.46058 0.74049 0.64832 0.0
C82 C 0.59206 0.79424 0.67346 0.0
C83 C 0.43089 0.78001 0.65502 0.0
H84 H 0.93143 0.42967 0.95316 0.0
H85 H 0.9453 0.72273 0.01208 0.0
H86 H 0.93301 0.53366 0.78105 0.0
H87 H 0.97978 0.61376 0.17038 0.0
H88 H 0.91925 0.65584 0.93026 0.0
H89 H 0.92735 0.49808 0.03584 0.0
C90 C 0.92996 0.46688 0.93253 0.0
C91 C 0.93308 0.47562 0.85964 0.0
C92 C 0.93137 0.64669 0.98338 0.0
C93 C 0.92906 0.55494 0.95505 0.0
C94 C 0.94557 0.68487 0.03025 0.0
C95 C 0.96435 0.67373 0.09824 0.0
C96 C 0.93572 0.59716 0.00498 0.0
C97 C 0.96525 0.62399 0.11858 0.0
C98 C 0.92788 0.5061 0.98002 0.0
C99 C 0.93084 0.52495 0.83664 0.0
N100 N 0.95154 0.58777 0.07231 0.0
N101 N 0.92962 0.5627 0.88407 0.0
H102 H 0.47274 0.38131 0.04603 0.0
H103 H 0.5274 0.66445 0.94618 0.0
H104 H 0.57112 0.47646 0.18307 0.0
H105 H 0.47628 0.55054 0.80111 0.0
H106 H 0.54145 0.60044 0.03654 0.0
H107 H 0.46926 0.44674 0.96024 0.0
C108 C 0.49424 0.41592 0.0581 0.0
C109 C 0.5236 0.42247 0.12163 0.0
C110 C 0.52761 0.5897 0.98467 0.0
C111 C 0.51864 0.49954 0.02241 0.0
C112 C 0.51959 0.62616 0.933 0.0
C113 C 0.50013 0.61313 0.86569 0.0
C114 C 0.51557 0.53999 0.96902 0.0
C115 C 0.49087 0.56282 0.85195 0.0
C116 C 0.49223 0.45362 0.00861 0.0
C117 C 0.54902 0.46922 0.13427 0.0
N118 N 0.49822 0.52852 0.90297 0.0
N119 N 0.54599 0.50606 0.08509 0.0
H120 H 0.45722 0.86574 -0.00235 0.0
H121 H 0.41028 0.15052 0.09278 0.0
H122 H 0.42231 0.978 0.84363 0.0
H123 H 0.51165 0.051 0.21851 0.0
H124 H 0.38639 0.08211 0.01418 0.0
H125 H 0.44929 0.928 0.09042 0.0
C126 C 0.44655 0.9032 0.98335 0.0
C127 C 0.44119 0.91669 0.9124 0.0
C128 C 0.4128 0.07508 0.05984 0.0
C129 C 0.43187 0.98816 0.01873 0.0
C130 C 0.42596 0.11401 0.10527 0.0
C131 C 0.4633 0.10664 0.16238 0.0
C132 C 0.43642 1.02818 0.07198 0.0
C133 C 0.48292 0.05849 0.17507 0.0
C134 C 0.44239 0.93878 0.03642 0.0
C135 C 0.42738 0.96594 0.89741 0.0
N136 N 0.46966 1.02126 0.13001 0.0
N137 N 0.42362 0.99989 0.94995 0.0
H138 H 0.00207 1.03397 0.19919 0.0
H139 H 0.0505 0.12078 0.79767 0.0
H140 H 0.02939 0.93145 0.02932 0.0
H141 H 0.98761 0.21554 0.96498 0.0
H142 H 0.05712 0.05303 0.88253 0.0
H143 H 0.01161 0.1021 0.11559 0.0
C144 C 0.01121 1.02571 0.14426 0.0
C145 C 0.01564 0.9766 0.12152 0.0
C146 C 0.04224 0.08872 0.90073 0.0
C147 C 0.02587 0.0552 0.02451 0.0
C148 C 0.0386 0.12761 0.85232 0.0
C149 C 0.01825 0.17422 0.87392 0.0
C150 C 0.02591 0.09631 0.97169 0.0
C151 C 0.00339 0.18044 0.94559 0.0
C152 C 0.01639 0.06479 0.0964 0.0
C153 C 0.02731 0.96851 0.04955 0.0
N154 N 0.00742 0.14207 0.99162 0.0
N155 N 0.03163 1.00731 0.00355 0.0
H156 H 0.35043 0.85651 0.65688 0.0
H157 H 0.1174 0.69993 0.43764 0.0
H158 H 0.38039 0.71214 0.56883 0.0
H159 H 0.124 0.85811 0.41741 0.0
H160 H 0.19522 0.70449 0.52438 0.0
H161 H 0.25321 0.85831 0.59928 0.0
C162 C 0.33676 0.82533 0.62554 0.0
C163 C 0.37379 0.78407 0.61782 0.0
C164 C 0.17871 0.73836 0.50228 0.0
C165 C 0.26251 0.78539 0.55437 0.0
C166 C 0.13379 0.73583 0.45347 0.0
C167 C 0.11481 0.77865 0.41987 0.0
C168 C 0.20526 0.78401 0.51739 0.0
C169 C 0.13753 0.82426 0.44228 0.0
C170 C 0.28132 0.82636 0.59315 0.0
C171 C 0.3537 0.74471 0.5767 0.0
N172 N 0.18275 0.82578 0.48879 0.0
N173 N 0.29947 0.74623 0.54721 0.0
H174 H 0.1709 0.27399 0.70661 0.0
H175 H 0.32166 0.22466 0.32939 0.0
H176 H 0.0896 0.31211 0.51131 0.0
H177 H 0.42348 0.2768 0.50406 0.0
H178 H 0.23179 0.22435 0.40508 0.0
H179 H 0.25882 0.2444 0.63974 0.0
C180 C 0.17107 0.27507 0.64965 0.0
C181 C 0.12346 0.29588 0.61415 0.0
C182 C 0.27415 0.23469 0.42706 0.0
C183 C 0.22254 0.26143 0.53819 0.0
C184 C 0.32558 0.23461 0.38419 0.0
C185 C 0.38005 0.25162 0.41022 0.0
C186 C 0.27742 0.25096 0.49667 0.0
C187 C 0.38224 0.26404 0.48171 0.0
C188 C 0.22113 0.2584 0.61181 0.0
C189 C 0.1258 0.29678 0.54048 0.0
N190 N 0.33139 0.26398 0.52244 0.0
N191 N 0.17467 0.27984 0.50481 0.0
H192 H 0.81883 0.36407 0.6456 0.0
H193 H 0.74346 0.28848 0.25487 0.0
H194 H 0.94874 0.32384 0.48501 0.0
H195 H 0.60794 0.32539 0.41073 0.0
H196 H 0.81963 0.31871 0.33269 0.0
H197 H 0.74281 0.36844 0.55565 0.0
C198 C 0.83181 0.35784 0.59108 0.0
C199 C 0.88991 0.34291 0.57269 0.0
C200 C 0.7733 0.32077 0.34999 0.0
C201 C 0.80326 0.34697 0.47011 0.0
C202 C 0.72972 0.30333 0.30552 0.0
C203 C 0.66941 0.30353 0.327 0.0
C204 C 0.75683 0.33779 0.41733 0.0
C205 C 0.65409 0.32416 0.39254 0.0
C206 C 0.78827 0.35986 0.53988 0.0
C207 C 0.90424 0.33483 0.50151 0.0
N208 N 0.69769 0.33965 0.43612 0.0
N209 N 0.86107 0.33627 0.45308 0.0
H210 H 0.90003 0.75209 0.38857 0.0
H211 H 0.61377 0.78408 0.53203 0.0
H212 H 0.9263 0.8785 0.52144 0.0
H213 H 0.70081 0.78569 0.73097 0.0
H214 H 0.71228 0.78136 0.47148 0.0
H215 H 0.81286 0.72802 0.46206 0.0
C216 C 0.88935 0.77353 0.43511 0.0
C217 C 0.92058 0.81754 0.44877 0.0
C218 C 0.70959 0.78116 0.52844 0.0
C219 C 0.82072 0.79017 0.53245 0.0
C220 C 0.65361 0.78274 0.56281 0.0
C221 C 0.64941 0.78421 0.63639 0.0
C222 C 0.76157 0.78307 0.56796 0.0
C223 C 0.70238 0.7836 0.67409 0.0
C224 C 0.83902 0.76009 0.47625 0.0
C225 C 0.90358 0.84433 0.50907 0.0
N226 N 0.75644 0.78432 0.63944 0.0
N227 N 0.85443 0.83046 0.54843 0.0
H228 H 0.26508 0.77685 0.7475 0.0
H229 H 0.08261 0.86014 0.00776 0.0
H230 H 0.39287 0.76534 0.91128 0.0
H231 H 0.23714 0.86976 0.13599 0.0
H232 H 0.14649 0.85507 0.90389 0.0
H233 H 0.20865 0.83541 0.81898 0.0
C234 C 0.28112 0.78691 0.79874 0.0
C235 C 0.33311 0.76608 0.82424 0.0
C236 C 0.16735 0.86055 0.95375 0.0
C237 C 0.26797 0.83176 0.90791 0.0
C238 C 0.13024 0.86476 0.01347 0.0
C239 C 0.1547 0.86549 0.08031 0.0
C240 C 0.22927 0.85602 0.96169 0.0
C241 C 0.21674 0.86899 0.08508 0.0
C242 C 0.24886 0.82039 0.83987 0.0
C243 C 0.35293 0.78081 0.88996 0.0
N244 N 0.25198 0.8627 0.02669 0.0
N245 N 0.31994 0.81223 0.9299 0.0
H246 H 0.19014 0.43021 0.82522 0.0
H247 H 0.39401 0.32301 0.03405 0.0
H248 H 0.06517 0.36785 0.97917 0.0
H249 H 0.28381 0.37133 0.21015 0.0
H250 H 0.31853 0.35139 0.95441 0.0
H251 H 0.26879 0.42455 0.91062 0.0
C252 C 0.17896 0.41612 0.87735 0.0
C253 C 0.12149 0.39817 0.89471 0.0
C254 C 0.31155 0.35667 0.01045 0.0
C255 C 0.21114 0.39109 0.99145 0.0
C256 C 0.35436 0.34023 0.05594 0.0
C257 C 0.34567 0.34584 0.12866 0.0
C258 C 0.25917 0.37777 0.03803 0.0
C259 C 0.29246 0.36691 0.15425 0.0
C260 C 0.22394 0.41261 0.92565 0.0
C261 C 0.10927 0.38114 0.96339 0.0
N262 N 0.25062 0.38166 0.10881 0.0
N263 N 0.15417 0.37741 0.00937 0.0
H264 H 0.51866 0.21221 0.9485 0.0
H265 H 0.83169 0.32632 0.88572 0.0
H266 H 0.5773 0.35128 0.03094 0.0
H267 H 0.76789 0.20633 0.75867 0.0
H268 H 0.72985 0.34396 0.92219 0.0
H269 H 0.59556 0.21939 0.85526 0.0
C270 C 0.54464 0.24605 0.94383 0.0
C271 C 0.54136 0.28153 -0.00282 0.0
C272 C 0.7377 0.31382 0.88607 0.0
C273 C 0.63051 0.28903 0.8936 0.0
C274 C 0.79612 0.3031 0.86644 0.0
C275 C 0.80818 0.26388 0.8209 0.0
C276 C 0.69084 0.2843 0.86154 0.0
C277 C 0.76027 0.23622 0.79527 0.0
C278 C 0.58922 0.24981 0.89129 0.0
C279 C 0.57642 0.32422 0.98968 0.0
N280 N 0.70351 0.2464 0.81699 0.0
N281 N 0.62079 0.32616 0.94014 0.0
H282 H 0.86048 0.71598 0.13859 0.0
H283 H 0.68283 0.76871 0.87903 0.0
H284 H 0.76143 0.83419 0.2353 0.0
H285 H 0.54243 0.80226 0.03049 0.0
H286 H 0.74421 0.7404 0.97375 0.0
H287 H 0.77286 0.69337 0.07227 0.0
C288 C 0.82032 0.73684 0.1464 0.0
C289 C 0.81952 0.77917 0.18825 0.0
C290 C 0.69937 0.75249 0.98649 0.0
C291 C 0.71977 0.75375 0.11352 0.0
C292 C 0.665 0.76984 0.93257 0.0
C293 C 0.60866 0.7892 0.94783 0.0
C294 C 0.67769 0.75578 0.05628 0.0
C295 C 0.58647 0.78852 0.01738 0.0
C296 C 0.77023 0.72374 0.109 0.0
C297 C 0.76495 0.80287 0.2004 0.0
N298 N 0.62197 0.77347 0.06973 0.0
N299 N 0.71744 0.79068 0.1615 0.0
loop_
_geom_bond_atom_site_label_1
_geom_bond_atom_site_label_2
_geom_bond_distance
_geom_bond_site_symmetry_2
_ccdc_geom_bond_type
Zn0 O6 1.920 . S
Zn0 O12 1.898 . S
Zn0 O15 1.905 . S
Zn1 O9 1.905 . S
Zn1 O10 1.898 . S
Zn1 O18 1.920 . S
Zn2 O5 2.080 1_455 S
Zn2 O8 2.114 . S
Zn2 O11 2.120 1_455 S
Zn2 O13 2.120 . S
Zn2 O14 2.114 1_455 S
Zn2 O17 2.080 . S
C3 O8 1.166 . S
C3 O9 1.182 . S
C4 O10 1.167 . S
C4 O11 1.299 1_455 S
O5 Zn2 2.080 1_655 S
O5 C19 1.305 . S
O6 Zn0 1.920 . S
O6 C19 1.234 . S
C7 O12 1.167 . S
C7 O13 1.299 1_655 S
O8 Zn2 2.114 . S
O8 C3 1.166 . S
O9 Zn1 1.905 . S
O9 C3 1.182 . S
O10 Zn1 1.898 . S
O10 C4 1.167 . S
O11 Zn2 2.120 1_655 S
O11 C4 1.299 1_655 S
O12 Zn0 1.898 . S
O12 C7 1.167 . S
O13 Zn2 2.120 . S
O13 C7 1.299 1_455 S
O14 Zn2 2.114 1_655 S
O14 C16 1.166 . S
O15 Zn0 1.905 . S
O15 C16 1.182 . S
C16 O14 1.166 . S
C16 O15 1.182 . S
O17 Zn2 2.080 . S
O17 C20 1.305 . S
O18 Zn1 1.920 . S
O18 C20 1.234 . S
C19 O5 1.305 . S
C19 O6 1.234 . S
C20 O17 1.305 . S
C20 O18 1.234 . S
Zn21 O27 1.920 . S
Zn21 O33 1.898 . S
Zn21 O36 1.905 . S
Zn22 O30 1.905 . S
Zn22 O31 1.898 . S
Zn22 O39 1.920 . S
Zn23 O26 2.080 . S
Zn23 O29 2.114 . S
Zn23 O32 2.120 . S
Zn23 O34 2.120 . S
Zn23 O35 2.114 . S
Zn23 O38 2.080 . S
C24 O29 1.166 . S
C24 O30 1.182 . S
C25 O31 1.167 . S
C25 O32 1.299 . S
O26 Zn23 2.080 . S
O26 C40 1.305 . S
O27 Zn21 1.920 . S
O27 C40 1.234 . S
C28 O33 1.167 . S
C28 O34 1.299 . S
O29 Zn23 2.114 . S
O29 C24 1.166 . S
O30 Zn22 1.905 . S
O30 C24 1.182 . S
O31 Zn22 1.898 . S
O31 C25 1.167 . S
O32 Zn23 2.120 . S
O32 C25 1.299 . S
O33 Zn21 1.898 . S
O33 C28 1.167 . S
O34 Zn23 2.120 . S
O34 C28 1.299 . S
O35 Zn23 2.114 . S
O35 C37 1.166 . S
O36 Zn21 1.905 . S
O36 C37 1.182 . S
C37 O35 1.166 . S
C37 O36 1.182 . S
O38 Zn23 2.080 . S
O38 C41 1.305 . S
O39 Zn22 1.920 . S
O39 C41 1.234 . S
C40 O26 1.305 . S
C40 O27 1.234 . S
C41 O38 1.305 . S
C41 O39 1.234 . S
Zn42 O48 1.920 . S
Zn42 O54 1.898 . S
Zn42 O57 1.905 . S
Zn43 O51 1.905 . S
Zn43 O52 1.898 . S
Zn43 O60 1.920 . S
Zn44 O47 2.080 1_455 S
Zn44 O50 2.114 . S
Zn44 O53 2.120 1_455 S
Zn44 O55 2.120 . S
Zn44 O56 2.114 1_455 S
Zn44 O59 2.080 . S
C45 O50 1.166 . S
C45 O51 1.182 . S
C46 O52 1.167 . S
C46 O53 1.299 1_455 S
O47 Zn44 2.080 1_655 S
O47 C61 1.305 . S
O48 Zn42 1.920 . S
O48 C61 1.234 . S
C49 O54 1.167 . S
C49 O55 1.299 1_655 S
O50 Zn44 2.114 . S
O50 C45 1.166 . S
O51 Zn43 1.905 . S
O51 C45 1.182 . S
O52 Zn43 1.898 . S
O52 C46 1.167 . S
O53 Zn44 2.120 1_655 S
O53 C46 1.299 1_655 S
O54 Zn42 1.898 . S
O54 C49 1.167 . S
O55 Zn44 2.120 . S
O55 C49 1.299 1_455 S
O56 Zn44 2.114 1_655 S
O56 C58 1.166 . S
O57 Zn42 1.905 . S
O57 C58 1.182 . S
C58 O56 1.166 . S
C58 O57 1.182 . S
O59 Zn44 2.080 . S
O59 C62 1.305 . S
O60 Zn43 1.920 . S
O60 C62 1.234 . S
C61 O47 1.305 . S
C61 O48 1.234 . S
C62 O59 1.305 . S
C62 O60 1.234 . S
Zn63 O69 1.920 . S
Zn63 O75 1.898 . S
Zn63 O78 1.905 . S
Zn64 O72 1.905 . S
Zn64 O73 1.898 . S
Zn64 O81 1.920 . S
Zn65 O68 2.080 . S
Zn65 O71 2.114 . S
Zn65 O74 2.120 . S
Zn65 O76 2.120 . S
Zn65 O77 2.114 . S
Zn65 O80 2.080 . S
C66 O71 1.166 . S
C66 O72 1.182 . S
C67 O73 1.167 . S
C67 O74 1.299 . S
O68 Zn65 2.080 . S
O68 C82 1.305 . S
O69 Zn63 1.920 . S
O69 C82 1.234 . S
C70 O75 1.167 . S
C70 O76 1.299 . S
O71 Zn65 2.114 . S
O71 C66 1.166 . S
O72 Zn64 1.905 . S
O72 C66 1.182 . S
O73 Zn64 1.898 . S
O73 C67 1.167 . S
O74 Zn65 2.120 . S
O74 C67 1.299 . S
O75 Zn63 1.898 . S
O75 C70 1.167 . S
O76 Zn65 2.120 . S
O76 C70 1.299 . S
O77 Zn65 2.114 . S
O77 C79 1.166 . S
O78 Zn63 1.905 . S
O78 C79 1.182 . S
C79 O77 1.166 . S
C79 O78 1.182 . S
O80 Zn65 2.080 . S
O80 C83 1.305 . S
O81 Zn64 1.920 . S
O81 C83 1.234 . S
C82 O68 1.305 . S
C82 O69 1.234 . S
C83 O80 1.305 . S
C83 O81 1.234 . S
H84 C90 0.930 . S
H85 C94 0.930 . S
H86 C99 0.929 . S
H87 C97 0.929 . S
H88 C92 0.929 . S
H89 C98 0.929 . S
C90 H84 0.930 . S
C90 C91 1.367 1_455 S
C90 C98 1.378 1_556 S
C91 C90 1.367 1_655 S
C91 C99 1.433 . S
C92 H88 0.929 . S
C92 C94 1.378 1_556 S
C92 C96 1.350 1_556 S
C93 C96 1.463 1_556 S
C93 C98 1.350 1_656 S
C93 N101 1.427 . S
C94 H85 0.930 . S
C94 C92 1.378 1_554 S
C94 C95 1.367 . S
C95 C94 1.367 . S
C95 C97 1.433 1_655 S
C96 C92 1.350 1_554 S
C96 C93 1.463 1_554 S
C96 N100 1.427 1_655 S
C97 H87 0.929 . S
C97 C95 1.433 1_455 S
C97 N100 1.384 . S
C98 H89 0.929 . S
C98 C90 1.378 1_554 S
C98 C93 1.350 1_454 S
C99 H86 0.929 . S
C99 C91 1.433 . S
C99 N101 1.384 . S
N100 C96 1.427 1_455 S
N100 C97 1.384 . S
N101 C93 1.427 . S
N101 C99 1.384 . S
H102 C108 0.930 . S
H103 C112 0.930 . S
H104 C117 0.929 . S
H105 C115 0.929 . S
H106 C110 0.929 . S
H107 C116 0.929 . S
C108 H102 0.930 . S
C108 C109 1.367 . S
C108 C116 1.378 . S
C109 C108 1.367 . S
C109 C117 1.433 . S
C110 H106 0.929 . S
C110 C112 1.378 . S
C110 C114 1.350 . S
C111 C114 1.463 1_554 S
C111 C116 1.350 . S
C111 N119 1.427 . S
C112 H103 0.930 . S
C112 C110 1.378 . S
C112 C113 1.367 . S
C113 C112 1.367 . S
C113 C115 1.433 . S
C114 C110 1.350 . S
C114 C111 1.463 1_556 S
C114 N118 1.427 . S
C115 H105 0.929 . S
C115 C113 1.433 . S
C115 N118 1.384 . S
C116 H107 0.929 . S
C116 C108 1.378 . S
C116 C111 1.350 . S
C117 H104 0.929 . S
C117 C109 1.433 . S
C117 N119 1.384 . S
N118 C114 1.427 . S
N118 C115 1.384 . S
N119 C111 1.427 . S
N119 C117 1.384 . S
H120 C126 0.930 . S
H121 C130 0.930 . S
H122 C135 0.929 . S
H123 C133 0.929 . S
H124 C128 0.929 . S
H125 C134 0.929 . S
C126 H120 0.930 . S
C126 C127 1.367 . S
C126 C134 1.378 1_556 S
C127 C126 1.367 . S
C127 C135 1.433 . S
C128 H124 0.929 . S
C128 C130 1.378 1_556 S
C128 C132 1.350 1_556 S
C129 C132 1.463 1_566 S
C129 C134 1.350 1_556 S
C129 N137 1.427 . S
C130 H121 0.930 . S
C130 C128 1.378 1_554 S
C130 C131 1.367 . S
C131 C130 1.367 . S
C131 C133 1.433 . S
C132 C128 1.350 1_554 S
C132 C129 1.463 1_544 S
C132 N136 1.427 . S
C133 H123 0.929 . S
C133 C131 1.433 . S
C133 N136 1.384 . S
C134 H125 0.929 . S
C134 C126 1.378 1_554 S
C134 C129 1.350 1_554 S
C135 H122 0.929 . S
C135 C127 1.433 . S
C135 N137 1.384 . S
N136 C132 1.427 . S
N136 C133 1.384 . S
N137 C129 1.427 . S
N137 C135 1.384 . S
H138 C144 0.930 . S
H139 C148 0.930 . S
H140 C153 0.929 . S
H141 C151 0.929 . S
H142 C146 0.929 1_565 S
H143 C152 0.929 1_545 S
C144 H138 0.930 . S
C144 C145 1.367 . S
C144 C152 1.378 . S
C145 C144 1.367 . S
C145 C153 1.433 1_455 S
C146 H142 0.929 1_545 S
C146 C148 1.378 . S
C146 C150 1.350 1_655 S
C147 C150 1.463 1_564 S
C147 C152 1.350 . S
C147 N155 1.427 1_454 S
C148 H139 0.930 . S
C148 C146 1.378 . S
C148 C149 1.367 1_655 S
C149 C148 1.367 1_455 S
C149 C151 1.433 . S
C150 C146 1.350 1_455 S
C150 C147 1.463 1_546 S
C150 N154 1.427 1_556 S
C151 H141 0.929 . S
C151 C149 1.433 . S
C151 N154 1.384 1_556 S
C152 H143 0.929 1_565 S
C152 C144 1.378 . S
C152 C147 1.350 . S
C153 H140 0.929 . S
C153 C145 1.433 1_655 S
C153 N155 1.384 1_554 S
N154 C150 1.427 1_554 S
N154 C151 1.384 1_554 S
N155 C147 1.427 1_656 S
N155 C153 1.384 1_556 S
H156 C162 0.930 . S
H157 C166 0.930 . S
H158 C171 0.929 . S
H159 C169 0.929 . S
H160 C164 0.929 . S
H161 C170 0.929 . S
C162 H156 0.930 . S
C162 C163 1.367 . S
C162 C170 1.378 . S
C163 C162 1.367 . S
C163 C171 1.433 . S
C164 H160 0.929 . S
C164 C166 1.378 . S
C164 C168 1.350 . S
C165 C168 1.463 . S
C165 C170 1.350 . S
C165 N173 1.427 . S
C166 H157 0.930 . S
C166 C164 1.378 . S
C166 C167 1.367 . S
C167 C166 1.367 . S
C167 C169 1.433 . S
C168 C164 1.350 . S
C168 C165 1.463 . S
C168 N172 1.427 . S
C169 H159 0.929 . S
C169 C167 1.433 . S
C169 N172 1.384 . S
C170 H161 0.929 . S
C170 C162 1.378 . S
C170 C165 1.350 . S
C171 H158 0.929 . S
C171 C163 1.433 . S
C171 N173 1.384 . S
N172 C168 1.427 . S
N172 C169 1.384 . S
N173 C165 1.427 . S
N173 C171 1.384 . S
H174 C180 0.930 . S
H175 C184 0.930 . S
H176 C189 0.929 . S
H177 C187 0.929 . S
H178 C182 0.929 . S
H179 C188 0.929 . S
C180 H174 0.930 . S
C180 C181 1.367 . S
C180 C188 1.378 . S
C181 C180 1.367 . S
C181 C189 1.433 . S
C182 H178 0.929 . S
C182 C184 1.378 . S
C182 C186 1.350 . S
C183 C186 1.463 . S
C183 C188 1.350 . S
C183 N191 1.427 . S
C184 H175 0.930 . S
C184 C182 1.378 . S
C184 C185 1.367 . S
C185 C184 1.367 . S
C185 C187 1.433 . S
C186 C182 1.350 . S
C186 C183 1.463 . S
C186 N190 1.427 . S
C187 H177 0.929 . S
C187 C185 1.433 . S
C187 N190 1.384 . S
C188 H179 0.929 . S
C188 C180 1.378 . S
C188 C183 1.350 . S
C189 H176 0.929 . S
C189 C181 1.433 . S
C189 N191 1.384 . S
N190 C186 1.427 . S
N190 C187 1.384 . S
N191 C183 1.427 . S
N191 C189 1.384 . S
H192 C198 0.930 . S
H193 C202 0.930 . S
H194 C207 0.929 . S
H195 C205 0.929 . S
H196 C200 0.929 . S
H197 C206 0.929 . S
C198 H192 0.930 . S
C198 C199 1.367 . S
C198 C206 1.378 . S
C199 C198 1.367 . S
C199 C207 1.433 . S
C200 H196 0.929 . S
C200 C202 1.378 . S
C200 C204 1.350 . S
C201 C204 1.463 . S
C201 C206 1.350 . S
C201 N209 1.427 . S
C202 H193 0.930 . S
C202 C200 1.378 . S
C202 C203 1.367 . S
C203 C202 1.367 . S
C203 C205 1.433 . S
C204 C200 1.350 . S
C204 C201 1.463 . S
C204 N208 1.427 . S
C205 H195 0.929 . S
C205 C203 1.433 . S
C205 N208 1.384 . S
C206 H197 0.929 . S
C206 C198 1.378 . S
C206 C201 1.350 . S
C207 H194 0.929 . S
C207 C199 1.433 . S
C207 N209 1.384 . S
N208 C204 1.427 . S
N208 C205 1.384 . S
N209 C201 1.427 . S
N209 C207 1.384 . S
H210 C216 0.930 . S
H211 C220 0.930 . S
H212 C225 0.929 . S
H213 C223 0.929 . S
H214 C218 0.929 . S
H215 C224 0.929 . S
C216 H210 0.930 . S
C216 C217 1.367 . S
C216 C224 1.378 . S
C217 C216 1.367 . S
C217 C225 1.433 . S
C218 H214 0.929 . S
C218 C220 1.378 . S
C218 C222 1.350 . S
C219 C222 1.463 . S
C219 C224 1.350 . S
C219 N227 1.427 . S
C220 H211 0.930 . S
C220 C218 1.378 . S
C220 C221 1.367 . S
C221 C220 1.367 . S
C221 C223 1.433 . S
C222 C218 1.350 . S
C222 C219 1.463 . S
C222 N226 1.427 . S
C223 H213 0.929 . S
C223 C221 1.433 . S
C223 N226 1.384 . S
C224 H215 0.929 . S
C224 C216 1.378 . S
C224 C219 1.350 . S
C225 H212 0.929 . S
C225 C217 1.433 . S
C225 N227 1.384 . S
N226 C222 1.427 . S
N226 C223 1.384 . S
N227 C219 1.427 . S
N227 C225 1.384 . S
H228 C234 0.930 . S
H229 C238 0.930 . S
H230 C243 0.929 . S
H231 C241 0.929 . S
H232 C236 0.929 . S
H233 C242 0.929 . S
C234 H228 0.930 . S
C234 C235 1.367 . S
C234 C242 1.378 . S
C235 C234 1.367 . S
C235 C243 1.433 . S
C236 H232 0.929 . S
C236 C238 1.378 . S
C236 C240 1.350 . S
C237 C240 1.463 1_556 S
C237 C242 1.350 . S
C237 N245 1.427 . S
C238 H229 0.930 . S
C238 C236 1.378 . S
C238 C239 1.367 . S
C239 C238 1.367 . S
C239 C241 1.433 . S
C240 C236 1.350 . S
C240 C237 1.463 1_554 S
C240 N244 1.427 . S
C241 H231 0.929 . S
C241 C239 1.433 . S
C241 N244 1.384 . S
C242 H233 0.929 . S
C242 C234 1.378 . S
C242 C237 1.350 . S
C243 H230 0.929 . S
C243 C235 1.433 . S
C243 N245 1.384 . S
N244 C240 1.427 . S
N244 C241 1.384 . S
N245 C237 1.427 . S
N245 C243 1.384 . S
H246 C252 0.930 . S
H247 C256 0.930 . S
H248 C261 0.929 . S
H249 C259 0.929 . S
H250 C254 0.929 . S
H251 C260 0.929 . S
C252 H246 0.930 . S
C252 C253 1.367 . S
C252 C260 1.378 . S
C253 C252 1.367 . S
C253 C261 1.433 . S
C254 H250 0.929 . S
C254 C256 1.378 . S
C254 C258 1.350 . S
C255 C258 1.463 1_556 S
C255 C260 1.350 . S
C255 N263 1.427 . S
C256 H247 0.930 . S
C256 C254 1.378 . S
C256 C257 1.367 . S
C257 C256 1.367 . S
C257 C259 1.433 . S
C258 C254 1.350 . S
C258 C255 1.463 1_554 S
C258 N262 1.427 . S
C259 H249 0.929 . S
C259 C257 1.433 . S
C259 N262 1.384 . S
C260 H251 0.929 . S
C260 C252 1.378 . S
C260 C255 1.350 . S
C261 H248 0.929 . S
C261 C253 1.433 . S
C261 N263 1.384 . S
N262 C258 1.427 . S
N262 C259 1.384 . S
N263 C255 1.427 . S
N263 C261 1.384 . S
H264 C270 0.930 . S
H265 C274 0.930 . S
H266 C279 0.929 . S
H267 C277 0.929 . S
H268 C272 0.929 . S
H269 C278 0.929 . S
C270 H264 0.930 . S
C270 C271 1.367 . S
C270 C278 1.378 1_554 S
C271 C270 1.367 . S
C271 C279 1.433 . S
C272 H268 0.929 . S
C272 C274 1.378 1_554 S
C272 C276 1.350 1_554 S
C273 C276 1.463 1_554 S
C273 C278 1.350 1_554 S
C273 N281 1.427 . S
C274 H265 0.930 . S
C274 C272 1.378 1_556 S
C274 C275 1.367 . S
C275 C274 1.367 . S
C275 C277 1.433 . S
C276 C272 1.350 1_556 S
C276 C273 1.463 1_556 S
C276 N280 1.427 . S
C277 H267 0.929 . S
C277 C275 1.433 . S
C277 N280 1.384 . S
C278 H269 0.929 . S
C278 C270 1.378 1_556 S
C278 C273 1.350 1_556 S
C279 H266 0.929 . S
C279 C271 1.433 . S
C279 N281 1.384 . S
N280 C276 1.427 . S
N280 C277 1.384 . S
N281 C273 1.427 . S
N281 C279 1.384 . S
H282 C288 0.930 . S
H283 C292 0.930 . S
H284 C297 0.929 . S
H285 C295 0.929 . S
H286 C290 0.929 . S
H287 C296 0.929 . S
C288 H282 0.930 . S
C288 C289 1.367 . S
C288 C296 1.378 . S
C289 C288 1.367 . S
C289 C297 1.433 . S
C290 H286 0.929 . S
C290 C292 1.378 . S
C290 C294 1.350 . S
C291 C294 1.463 1_554 S
C291 C296 1.350 . S
C291 N299 1.427 . S
C292 H283 0.930 . S
C292 C290 1.378 . S
C292 C293 1.367 . S
C293 C292 1.367 . S
C293 C295 1.433 . S
C294 C290 1.350 . S
C294 C291 1.463 1_556 S
C294 N298 1.427 . S
C295 H285 0.929 . S
C295 C293 1.433 . S
C295 N298 1.384 . S
C296 H287 0.929 . S
C296 C288 1.378 . S
C296 C291 1.350 . S
C297 H284 0.929 . S
C297 C289 1.433 . S
C297 N299 1.384 . S
N298 C294 1.427 . S
N298 C295 1.384 . S
N299 C291 1.427 . S
N299 C297 1.384 . S
C91 C46 1.829 1_655 S
C95 C4 1.832 1_655 S
C109 C25 1.839 . S
C113 C67 1.822 . S
C127 C70 1.825 . S
C131 C28 1.836 . S
C145 C7 1.834 1_455 S
C149 C49 1.831 1_455 S
C163 C83 1.701 . S
C167 C20 1.692 . S
C181 C62 1.686 . S
C185 C41 1.686 . S
C199 C61 1.690 . S
C203 C40 1.686 . S
C217 C19 1.703 . S
C221 C82 1.695 . S
C235 C66 0.682 . S
C239 C3 0.642 . S
C253 C45 0.686 . S
C257 C24 0.643 . S
C271 C37 0.697 . S
C275 C58 0.660 . S
C289 C16 0.642 . S
C293 C79 0.684 . S
