# Generated by pormake.
# Topology upb, (4)-cn, num edge types: 1
# Building blocks:
#     Node 0, Type 0, BuildingBlock: KUFVIS_clean_sbu_0, # of connection points: 4
#     Node 1, Type 0, BuildingBlock: KUFVIS_clean_sbu_0, # of connection points: 4
#     Node 2, Type 0, BuildingBlock: KUFVIS_clean_sbu_0, # of connection points: 4
#     Node 3, Type 0, BuildingBlock: KUFVIS_clean_sbu_0, # of connection points: 4
#     Node 4, Type 0, BuildingBlock: KUFVIS_clean_sbu_0, # of connection points: 4
#     Node 5, Type 0, BuildingBlock: KUFVIS_clean_sbu_0, # of connection points: 4
#     Node 6, Type 0, BuildingBlock: KUFVIS_clean_sbu_0, # of connection points: 4
#     Node 7, Type 0, BuildingBlock: KUFVIS_clean_sbu_0, # of connection points: 4
#     Node 8, Type 0, BuildingBlock: KUFVIS_clean_sbu_0, # of connection points: 4
#     Node 9, Type 0, BuildingBlock: KUFVIS_clean_sbu_0, # of connection points: 4
#     Node 10, Type 0, BuildingBlock: KUFVIS_clean_sbu_0, # of connection points: 4
#     Node 11, Type 0, BuildingBlock: KUFVIS_clean_sbu_0, # of connection points: 4
#     Node 12, Type 0, BuildingBlock: KUFVIS_clean_sbu_0, # of connection points: 4
#     Node 13, Type 0, BuildingBlock: KUFVIS_clean_sbu_0, # of connection points: 4
#     Node 14, Type 0, BuildingBlock: KUFVIS_clean_sbu_0, # of connection points: 4
#     Node 15, Type 0, BuildingBlock: KUFVIS_clean_sbu_0, # of connection points: 4
#     Edge 16, Type (0, 0), BuildingBlock: CIFDUS_clean_linker_0, # of connection points: 2
#     Edge 17, Type (0, 0), BuildingBlock: CIFDUS_clean_linker_0, # of connection points: 2
#     Edge 18, Type (0, 0), BuildingBlock: CIFDUS_clean_linker_0, # of connection points: 2
#     Edge 19, Type (0, 0), BuildingBlock: CIFDUS_clean_linker_0, # of connection points: 2
#     Edge 20, Type (0, 0), BuildingBlock: CIFDUS_clean_linker_0, # of connection points: 2
#     Edge 21, Type (0, 0), BuildingBlock: CIFDUS_clean_linker_0, # of connection points: 2
#     Edge 22, Type (0, 0), BuildingBlock: CIFDUS_clean_linker_0, # of connection points: 2
#     Edge 23, Type (0, 0), BuildingBlock: CIFDUS_clean_linker_0, # of connection points: 2
#     Edge 24, Type (0, 0), BuildingBlock: CIFDUS_clean_linker_0, # of connection points: 2
#     Edge 25, Type (0, 0), BuildingBlock: CIFDUS_clean_linker_0, # of connection points: 2
#     Edge 26, Type (0, 0), BuildingBlock: CIFDUS_clean_linker_0, # of connection points: 2
#     Edge 27, Type (0, 0), BuildingBlock: CIFDUS_clean_linker_0, # of connection points: 2
#     Edge 28, Type (0, 0), BuildingBlock: CIFDUS_clean_linker_0, # of connection points: 2
#     Edge 29, Type (0, 0), BuildingBlock: CIFDUS_clean_linker_0, # of connection points: 2
#     Edge 30, Type (0, 0), BuildingBlock: CIFDUS_clean_linker_0, # of connection points: 2
#     Edge 31, Type (0, 0), BuildingBlock: CIFDUS_clean_linker_0, # of connection points: 2
#     Edge 32, Type (0, 0), BuildingBlock: CIFDUS_clean_linker_0, # of connection points: 2
#     Edge 33, Type (0, 0), BuildingBlock: CIFDUS_clean_linker_0, # of connection points: 2
#     Edge 34, Type (0, 0), BuildingBlock: CIFDUS_clean_linker_0, # of connection points: 2
#     Edge 35, Type (0, 0), BuildingBlock: CIFDUS_clean_linker_0, # of connection points: 2
#     Edge 36, Type (0, 0), BuildingBlock: CIFDUS_clean_linker_0, # of connection points: 2
#     Edge 37, Type (0, 0), BuildingBlock: CIFDUS_clean_linker_0, # of connection points: 2
#     Edge 38, Type (0, 0), BuildingBlock: CIFDUS_clean_linker_0, # of connection points: 2
#     Edge 39, Type (0, 0), BuildingBlock: CIFDUS_clean_linker_0, # of connection points: 2
#     Edge 40, Type (0, 0), BuildingBlock: CIFDUS_clean_linker_0, # of connection points: 2
#     Edge 41, Type (0, 0), BuildingBlock: CIFDUS_clean_linker_0, # of connection points: 2
#     Edge 42, Type (0, 0), BuildingBlock: CIFDUS_clean_linker_0, # of connection points: 2
#     Edge 43, Type (0, 0), BuildingBlock: CIFDUS_clean_linker_0, # of connection points: 2
#     Edge 44, Type (0, 0), BuildingBlock: CIFDUS_clean_linker_0, # of connection points: 2
#     Edge 45, Type (0, 0), BuildingBlock: CIFDUS_clean_linker_0, # of connection points: 2
#     Edge 46, Type (0, 0), BuildingBlock: CIFDUS_clean_linker_0, # of connection points: 2
#     Edge 47, Type (0, 0), BuildingBlock: CIFDUS_clean_linker_0, # of connection points: 2
# Relax obj value: 0.212
# Max RMSD: 0.082
# Mean RMSD: 0.082
data_MOF--net-upb--node1-KUFVIS_clean_sbu_0--edge1-CIFDUS_clean_linker_0
_symmetry_space_group_name_H-M    P1
_symmetry_Int_Tables_number       1
_symmetry_cell_setting            triclinic
loop_
_symmetry_equiv_pos_as_xyz
'x, y, z'
_cell_length_a     39.084306
_cell_length_b     39.072379
_cell_length_c     28.48068
_cell_angle_alpha  89.954496
_cell_angle_beta   89.968677
_cell_angle_gamma 89.868723
loop_
_atom_site_label
_atom_site_type_symbol
_atom_site_fract_x
_atom_site_fract_y
_atom_site_fract_z
_atom_type_partial_charge
Mn0 Mn 0.03109 0.21691 0.29187 0.0
Mn1 Mn 0.09445 0.21451 0.37235 0.0
C2 C 0.02012 0.22939 0.36972 0.0
C3 C 0.98718 0.18984 0.2518 0.0
C4 C 0.08529 0.27254 0.3033 0.0
O5 O 0.06804 0.1895 0.25807 0.0
O6 O 0.10793 0.18858 0.31542 0.0
C7 C 0.08767 0.1407 0.3934 0.0
N8 N 0.08881 0.17373 0.40856 0.0
C9 C 0.07708 0.15655 0.48811 0.0
C10 C 0.0754 0.12244 0.47324 0.0
C11 C 0.08089 0.11444 0.42574 0.0
C12 C 0.08341 0.18168 0.45416 0.0
H13 H 0.09129 0.13454 0.35677 0.0
C14 C 0.09731 0.18094 0.27421 0.0
O15 O 0.00072 0.21777 0.23551 0.0
O16 O -6e-05 0.17717 0.29002 0.0
N17 N 0.08509 0.23844 0.4296 0.0
C18 C 0.08467 0.27283 0.43748 0.0
C19 C 0.08006 0.28511 0.4834 0.0
C20 C 0.07608 0.26194 0.52073 0.0
C21 C 0.07683 0.22666 0.51181 0.0
C22 C 0.08218 0.21594 0.46546 0.0
H23 H 0.08774 0.29075 0.40895 0.0
O24 O -0.00048 0.24027 0.33731 0.0
O25 O 0.04626 0.21182 0.35549 0.0
O26 O 0.05878 0.26068 0.28288 0.0
O27 O 0.1007 0.25746 0.3371 0.0
C28 C 0.07183 0.20174 0.54692 0.0
C29 C 0.07157 0.16671 0.53499 0.0
H30 H 0.06937 0.10224 0.49792 0.0
H31 H 0.07956 0.08814 0.41403 0.0
H32 H 0.07939 0.31238 0.48997 0.0
H33 H 0.072 0.27151 0.55598 0.0
H34 H 0.06733 0.20927 0.583 0.0
H35 H 0.06676 0.1478 0.56203 0.0
Mn36 Mn 0.77116 0.03001 0.28443 0.0
Mn37 Mn 0.78002 0.09552 0.36071 0.0
C38 C 0.75006 0.02577 0.35996 0.0
C39 C 0.79369 0.98056 0.25154 0.0
C40 C 0.72617 0.09432 0.28458 0.0
O41 O 0.80816 0.05851 0.25365 0.0
O42 O 0.81153 0.10138 0.30635 0.0
C43 C 0.85029 0.07745 0.39088 0.0
N44 N 0.81711 0.08456 0.40191 0.0
C45 C 0.82804 0.07575 0.4842 0.0
C46 C 0.86226 0.06822 0.47366 0.0
C47 C 0.87345 0.06913 0.42681 0.0
C48 C 0.80605 0.08355 0.44687 0.0
H49 H 0.85897 0.07778 0.35489 0.0
C50 C 0.82078 0.08655 0.26828 0.0
O51 O 0.77003 0.99776 0.22974 0.0
O52 O 0.80394 0.99192 0.29177 0.0
N53 N 0.75186 0.09329 0.41574 0.0
C54 C 0.71747 0.09815 0.41967 0.0
C55 C 0.70209 0.09762 0.46424 0.0
C56 C 0.72225 0.09217 0.50437 0.0
C57 C 0.75763 0.08739 0.49955 0.0
C58 C 0.77157 0.08865 0.45426 0.0
H59 H 0.70185 0.10194 0.389 0.0
O60 O 0.73809 0.00619 0.32712 0.0
O61 O 0.77396 0.04692 0.34758 0.0
O62 O 0.73493 0.06576 0.26619 0.0
O63 O 0.74086 0.10763 0.32028 0.0
C64 C 0.77951 0.08076 0.53783 0.0
C65 C 0.81468 0.07483 0.53014 0.0
H66 H 0.8801 0.06143 0.50122 0.0
H67 H 0.89983 0.0633 0.41841 0.0
H68 H 0.67473 0.10113 0.46762 0.0
H69 H 0.71025 0.09133 0.53864 0.0
H70 H 0.76943 0.07947 0.57322 0.0
H71 H 0.83111 0.06898 0.55971 0.0
Mn72 Mn 0.97151 0.78024 0.28697 0.0
Mn73 Mn 0.90701 0.78835 0.36513 0.0
C74 C 0.97938 0.76557 0.36482 0.0
C75 C 0.01852 0.8023 0.24837 0.0
C76 C 0.91165 0.73061 0.295 0.0
O77 O 0.9387 0.81241 0.25296 0.0
O78 O 0.89767 0.81651 0.30854 0.0
C79 C 0.92086 0.86079 0.38839 0.0
N80 N 0.91597 0.82787 0.40263 0.0
C81 C 0.9272 0.84281 0.48311 0.0
C82 C 0.93248 0.87683 0.46925 0.0
C83 C 0.92923 0.88586 0.42171 0.0
C84 C 0.91927 0.81887 0.44825 0.0
H85 H 0.91888 0.86775 0.3518 0.0
C86 C 0.91026 0.82405 0.26831 0.0
O87 O 0.0021 0.77632 0.23124 0.0
O88 O 0.00713 0.81592 0.28682 0.0
N89 N 0.9126 0.76287 0.42211 0.0
C90 C 0.90982 0.72848 0.42905 0.0
C91 C 0.91223 0.7152 0.47477 0.0
C92 C 0.91739 0.73739 0.51288 0.0
C93 C 0.92003 0.7727 0.50491 0.0
C94 C 0.91678 0.78451 0.45868 0.0
H95 H 0.90596 0.7113 0.39992 0.0
O96 O -0.00074 0.75279 0.33283 0.0
O97 O 0.95567 0.78619 0.35019 0.0
O98 O 0.9395 0.74016 0.27584 0.0
O99 O 0.89704 0.74661 0.32865 0.0
C100 C 0.92658 0.79654 0.54088 0.0
C101 C 0.93058 0.83151 0.5299 0.0
H102 H 0.9392 0.89623 0.49476 0.0
H103 H 0.93333 0.91206 0.41076 0.0
H104 H 0.91036 0.68789 0.4806 0.0
H105 H 0.9198 0.727 0.548 0.0
H106 H 0.92953 0.78812 0.5769 0.0
H107 H 0.93671 0.84942 0.55764 0.0
Mn108 Mn 0.22057 0.96953 0.28454 0.0
Mn109 Mn 0.2175 0.90295 0.35994 0.0
C110 C 0.23294 0.97745 0.36299 0.0
C111 C 0.19046 0.01269 0.2469 0.0
C112 C 0.2757 0.91456 0.29125 0.0
O113 O 0.19392 0.93397 0.24821 0.0
O114 O 0.18948 0.89282 0.30342 0.0
C115 C 0.14435 0.90973 0.3851 0.0
N116 N 0.17772 0.90752 0.3985 0.0
C117 C 0.16257 0.91425 0.47988 0.0
C118 C 0.12809 0.91686 0.46689 0.0
C119 C 0.11892 0.91446 0.41933 0.0
C120 C 0.18683 0.9099 0.44416 0.0
H121 H 0.13723 0.90838 0.34851 0.0
C122 C 0.18259 0.90537 0.26291 0.0
O123 O 0.21936 0.00181 0.22981 0.0
O124 O 0.17965 -0.00103 0.28546 0.0
N125 N 0.24292 0.90947 0.41674 0.0
C126 C 0.27747 0.91062 0.42291 0.0
C127 C 0.29091 0.91331 0.46848 0.0
C128 C 0.26872 0.9148 0.50724 0.0
C129 C 0.23326 0.91365 0.50006 0.0
C130 C 0.22137 0.9104 0.45389 0.0
H131 H 0.29462 0.90985 0.39329 0.0
O132 O 0.24323 -0.00032 0.33226 0.0
O133 O 0.21575 0.95177 0.34677 0.0
O134 O 0.26495 0.94272 0.27367 0.0
O135 O 0.25953 0.89745 0.32245 0.0
C136 C 0.20925 0.91654 0.53679 0.0
C137 C 0.17392 0.9171 0.52667 0.0
H138 H 0.10846 0.92112 0.49308 0.0
H139 H 0.09234 0.91651 0.40907 0.0
H140 H 0.3183 0.91452 0.4737 0.0
H141 H 0.27917 0.91742 0.54227 0.0
H142 H 0.2177 0.91929 0.57281 0.0
H143 H 0.15573 0.92034 0.55503 0.0
Mn144 Mn 0.03288 0.76832 0.70869 0.0
Mn145 Mn 0.10037 0.76603 0.63461 0.0
C146 C 0.02692 0.74673 0.63363 0.0
C147 C 0.98689 0.79834 0.73918 0.0
C148 C 0.09043 0.71577 0.71445 0.0
O149 O 0.06611 0.80135 0.73891 0.0
O150 O 0.10902 0.79951 0.68592 0.0
C151 C 0.09329 0.83608 0.59601 0.0
N152 N 0.09569 0.80167 0.58903 0.0
C153 C 0.09153 0.80874 0.50528 0.0
C154 C 0.08885 0.84418 0.51161 0.0
C155 C 0.08977 0.85793 0.55715 0.0
C156 C 0.09475 0.7882 0.54533 0.0
H157 H 0.09371 0.84672 0.63098 0.0
C158 C 0.09514 0.81107 0.72354 0.0
O159 O 0.00015 0.77289 0.76228 0.0
O160 O 0.00013 0.80613 0.69891 0.0
N161 N 0.09521 0.73527 0.58273 0.0
C162 C 0.09388 0.70045 0.58291 0.0
C163 C 0.09187 0.68266 0.54018 0.0
C164 C 0.09113 0.70087 0.49767 0.0
C165 C 0.09231 0.73672 0.49831 0.0
C166 C 0.09476 0.75302 0.54197 0.0
H167 H 0.09375 0.68641 0.61541 0.0
O168 O 0.00522 0.73828 0.6661 0.0
O169 O 0.0512 0.76733 0.6462 0.0
O170 O 0.06229 0.72781 0.73009 0.0
O171 O 0.10663 0.72809 0.67934 0.0
C172 C 0.09025 0.75693 0.4574 0.0
C173 C 0.08981 0.79292 0.46089 0.0
H174 H 0.08525 0.86089 0.48173 0.0
H175 H 0.08749 0.88527 0.56233 0.0
H176 H 0.09056 0.655 0.54004 0.0
H177 H 0.0891 0.6871 0.4648 0.0
H178 H 0.08818 0.74504 0.42318 0.0
H179 H 0.08731 0.80819 0.42931 0.0
Mn180 Mn 0.22322 0.02701 0.70775 0.0
Mn181 Mn 0.21632 0.09393 0.63317 0.0
C182 C 0.24501 0.02363 0.63261 0.0
C183 C 0.20113 0.97694 0.73868 0.0
C184 C 0.26889 0.09036 0.71071 0.0
O185 O 0.18585 0.05554 0.73823 0.0
O186 O 0.18384 0.09929 0.68652 0.0
C187 C 0.14656 0.07754 0.59964 0.0
N188 N 0.17995 0.0847 0.59016 0.0
C189 C 0.17056 0.07862 0.50709 0.0
C190 C 0.13623 0.07078 0.51603 0.0
C191 C 0.12412 0.07038 0.56247 0.0
C192 C 0.19185 0.08502 0.54558 0.0
H193 H 0.13724 0.07679 0.63531 0.0
C194 C 0.17371 0.08398 0.72381 0.0
O195 O 0.22422 0.99408 0.76145 0.0
O196 O 0.19065 0.98907 0.69889 0.0
N197 N 0.24559 0.09214 0.57919 0.0
C198 C 0.28024 0.09531 0.57687 0.0
C199 C 0.29653 0.09547 0.53292 0.0
C200 C 0.27704 0.09229 0.49175 0.0
C201 C 0.24143 0.08891 0.49495 0.0
C202 C 0.22657 0.08942 0.53973 0.0
H203 H 0.29535 0.09706 0.60831 0.0
O204 O 0.25665 0.00354 0.6652 0.0
O205 O 0.2212 0.04496 0.64504 0.0
O206 O 0.25946 0.06171 0.72787 0.0
O207 O 0.25485 0.10462 0.67519 0.0
C208 C 0.2202 0.08412 0.45554 0.0
C209 C 0.18478 0.07887 0.46162 0.0
H210 H 0.11916 0.06426 0.48753 0.0
H211 H 0.09764 0.06424 0.56961 0.0
H212 H 0.32408 0.09769 0.5308 0.0
H213 H 0.28974 0.09192 0.45794 0.0
H214 H 0.23097 0.08349 0.4205 0.0
H215 H 0.16887 0.07415 0.43118 0.0
Mn216 Mn 0.95924 0.21694 0.71156 0.0
Mn217 Mn 0.89293 0.21812 0.63545 0.0
C218 C 0.96573 0.23911 0.63693 0.0
C219 C 0.0067 0.18949 0.74303 0.0
C220 C 0.90077 0.26914 0.71426 0.0
O221 O 0.9266 0.18266 0.74088 0.0
O222 O 0.88349 0.18624 0.68835 0.0
C223 C 0.90133 0.14703 0.60117 0.0
N224 N 0.89886 0.18119 0.59213 0.0
C225 C 0.90568 0.17175 0.50915 0.0
C226 C 0.90847 0.13654 0.51762 0.0
C227 C 0.9062 0.1241 0.56381 0.0
C228 C 0.90107 0.19339 0.5478 0.0
H229 H 0.89991 0.13738 0.63664 0.0
C230 C 0.89704 0.17426 0.72591 0.0
O231 O 0.99158 0.21406 0.76576 0.0
O232 O 0.9939 0.18052 0.70297 0.0
N233 N 0.89846 0.24739 0.58198 0.0
C234 C 0.898 0.28223 0.58003 0.0
C235 C 0.90034 0.29874 0.53634 0.0
C236 C 0.90306 0.27929 0.49506 0.0
C237 C 0.90329 0.24347 0.49786 0.0
C238 C 0.90042 0.22844 0.54236 0.0
H239 H 0.89633 0.29728 0.6116 0.0
O240 O 0.98648 0.24813 0.67018 0.0
O241 O 0.94198 0.2175 0.64833 0.0
O242 O 0.92804 0.25649 0.73187 0.0
O243 O 0.8858 0.25724 0.67791 0.0
C244 C 0.90695 0.22211 0.45833 0.0
C245 C 0.90826 0.18627 0.46398 0.0
H246 H 0.91294 0.11893 0.48896 0.0
H247 H 0.90843 0.09694 0.57063 0.0
H248 H 0.90032 0.32641 0.53452 0.0
H249 H 0.90531 0.29212 0.46148 0.0
H250 H 0.90945 0.23301 0.42351 0.0
H251 H 0.91182 0.17013 0.43344 0.0
Mn252 Mn 0.78002 0.95576 0.70155 0.0
Mn253 Mn 0.76861 0.89303 0.6218 0.0
C254 C 0.76202 0.96843 0.62604 0.0
C255 C 0.81605 0.99559 0.73611 0.0
C256 C 0.71948 0.90679 0.7019 0.0
O257 O 0.80644 0.91596 0.72997 0.0
O258 O 0.79997 0.87692 0.67213 0.0
C259 C 0.83903 0.89245 0.58386 0.0
N260 N 0.80469 0.89503 0.57667 0.0
C261 C 0.81281 0.90409 0.49383 0.0
C262 C 0.84822 0.90129 0.50031 0.0
C263 C 0.86139 0.89567 0.54558 0.0
C264 C 0.79178 0.90104 0.5334 0.0
H265 H 0.84925 0.88843 0.61866 0.0
C266 C 0.81217 0.88665 0.71172 0.0
O267 O 0.7884 0.98558 0.75737 0.0
O268 O 0.8229 0.98213 0.69566 0.0
N269 N 0.73909 0.9055 0.57087 0.0
C270 C 0.70464 0.91087 0.5713 0.0
C271 C 0.68746 0.91753 0.52896 0.0
C272 C 0.70587 0.91863 0.48662 0.0
C273 C 0.74133 0.91318 0.48704 0.0
C274 C 0.75697 0.90613 0.53023 0.0
H275 H 0.69041 0.91031 0.60373 0.0
O276 O 0.75621 0.98991 0.65983 0.0
O277 O 0.7775 0.94046 0.63792 0.0
O278 O 0.73482 0.93268 0.71921 0.0
O279 O 0.73012 0.89013 0.66617 0.0
C280 C 0.76188 0.91529 0.44649 0.0
C281 C 0.79764 0.91097 0.44993 0.0
H282 H 0.86547 0.90415 0.47087 0.0
H283 H 0.8887 0.89422 0.55114 0.0
H284 H 0.66013 0.92202 0.52899 0.0
H285 H 0.69261 0.92424 0.45411 0.0
H286 H 0.75055 0.921 0.41267 0.0
H287 H 0.81328 0.91349 0.41871 0.0
Mn288 Mn 0.52628 0.7221 0.78607 0.0
Mn289 Mn 0.59349 0.71609 0.86005 0.0
C290 C 0.52046 0.73618 0.86448 0.0
C291 C 0.47917 0.69725 0.7507 0.0
C292 C 0.58486 0.77354 0.78963 0.0
O293 O 0.55905 0.69114 0.75024 0.0
O294 O 0.60155 0.68726 0.80371 0.0
C295 C 0.58331 0.64349 0.88629 0.0
N296 N 0.58701 0.67684 0.89919 0.0
C297 C 0.57922 0.66268 0.98075 0.0
C298 C 0.57511 0.62825 0.96827 0.0
C299 C 0.57729 0.6186 0.92087 0.0
C300 C 0.58485 0.68641 0.94471 0.0
H301 H 0.58451 0.63601 0.84984 0.0
C302 C 0.5878 0.67945 0.7643 0.0
O303 O 0.49344 0.72414 0.73244 0.0
O304 O 0.4925 0.68467 0.78862 0.0
N305 N 0.58879 0.7422 0.91662 0.0
C306 C 0.59022 0.77678 0.92242 0.0
C307 C 0.58853 0.79065 0.96785 0.0
C308 C 0.58541 0.76885 0.00685 0.0
C309 C 0.58398 0.73335 5e-05 0.0
C310 C 0.58637 0.72098 0.95401 0.0
H311 H 0.5924 0.79366 0.89262 0.0
O312 O 0.49902 0.74829 0.8339 0.0
O313 O 0.54447 0.71674 0.84804 0.0
O314 O 0.55638 0.76357 0.77264 0.0
O315 O 0.60112 0.7576 0.82192 0.0
C316 C 0.57954 0.70981 0.03706 0.0
C317 C 0.5769 0.67451 0.02738 0.0
H318 H 0.57001 0.60903 0.99477 0.0
H319 H 0.57412 0.59205 0.911 0.0
H320 H 0.5894 0.81809 0.97278 0.0
H321 H 0.58362 0.77966 0.04177 0.0
H322 H 0.57736 0.71865 0.07298 0.0
H323 H 0.57267 0.65673 0.05598 0.0
Mn324 Mn 0.2785 0.52336 0.79102 0.0
Mn325 Mn 0.28518 0.58945 0.86679 0.0
C326 C 0.26518 0.51619 0.86931 0.0
C327 C 0.30321 0.47711 0.75332 0.0
C328 C 0.22676 0.58169 0.79803 0.0
O329 O 0.30855 0.55676 0.75524 0.0
O330 O 0.31292 0.59849 0.80967 0.0
C331 C 0.35827 0.57941 0.89032 0.0
N332 N 0.32512 0.58272 0.90441 0.0
C333 C 0.34082 0.57481 0.9854 0.0
C334 C 0.37509 0.57117 0.9717 0.0
C335 C 0.38386 0.57356 0.92398 0.0
C336 C 0.3164 0.58032 0.95023 0.0
H337 H 0.36509 0.58087 0.85362 0.0
C338 C 0.32011 0.58539 0.7696 0.0
O339 O 0.27594 0.49157 0.73633 0.0
O340 O 0.31617 0.48973 0.79139 0.0
N341 N 0.2601 0.584 0.92411 0.0
C342 C 0.22562 0.58517 0.93109 0.0
C343 C 0.21256 0.58295 0.97695 0.0
C344 C 0.23506 0.57969 0.01515 0.0
C345 C 0.27044 0.57872 0.00714 0.0
C346 C 0.28198 0.58152 0.96073 0.0
H347 H 0.20821 0.58752 0.90189 0.0
O348 O 0.25301 0.49522 0.83829 0.0
O349 O 0.28456 0.54048 0.85353 0.0
O350 O 0.23669 0.55356 0.77982 0.0
O351 O 0.24304 0.59746 0.83032 0.0
C352 C 0.29467 0.57438 0.0433 0.0
C353 C 0.32983 0.57219 0.0324 0.0
H354 H 0.39487 0.56631 0.99748 0.0
H355 H 0.41026 0.57075 0.91317 0.0
H356 H 0.18521 0.58352 0.98282 0.0
H357 H 0.22487 0.5775 0.0504 0.0
H358 H 0.28649 0.57193 0.07949 0.0
H359 H 0.34816 0.56805 0.06036 0.0
Mn360 Mn 0.47121 0.26971 0.7901 0.0
Mn361 Mn 0.4043 0.27736 0.86471 0.0
C362 C 0.47589 0.2513 0.86679 0.0
C363 C 0.51948 0.29341 0.75607 0.0
C364 C 0.40965 0.22169 0.79158 0.0
O365 O 0.44082 0.30389 0.7565 0.0
O366 O 0.39768 0.30725 0.80892 0.0
C367 C 0.41676 0.34921 0.89291 0.0
N368 N 0.41182 0.31582 0.90482 0.0
C369 C 0.41547 0.32905 0.98717 0.0
C370 C 0.42078 0.36353 0.97577 0.0
C371 C 0.42139 0.37366 0.92845 0.0
C372 C 0.41135 0.30579 0.95025 0.0
H373 H 0.41738 0.35709 0.85657 0.0
C374 C 0.41215 0.31573 0.77027 0.0
O375 O 0.50375 0.26812 0.73591 0.0
O376 O 0.50728 0.30469 0.79541 0.0
N377 N 0.40711 0.25043 0.92078 0.0
C378 C 0.40521 0.2158 0.92571 0.0
C379 C 0.40541 0.20136 0.97088 0.0
C380 C 0.40731 0.22265 0.0105 0.0
C381 C 0.40901 0.25823 0.0046 0.0
C382 C 0.40853 0.27117 0.95872 0.0
H383 H 0.40401 0.19934 0.8954 0.0
O384 O 0.49648 0.23945 0.83496 0.0
O385 O 0.45348 0.27372 0.85294 0.0
O386 O 0.4381 0.231 0.77365 0.0
O387 O 0.39502 0.23697 0.82577 0.0
C388 C 0.4119 0.28131 0.04239 0.0
C389 C 0.41514 0.31671 0.03368 0.0
H390 H 0.42487 0.38235 0.00307 0.0
H391 H 0.42553 0.40024 0.9194 0.0
H392 H 0.40426 0.17386 0.97513 0.0
H393 H 0.40778 0.21139 0.04526 0.0
H394 H 0.41241 0.27205 0.07824 0.0
H395 H 0.41814 0.33413 0.06295 0.0
Mn396 Mn 0.7196 0.46939 0.79223 0.0
Mn397 Mn 0.71197 0.40378 0.86881 0.0
C398 C 0.73386 0.47632 0.87049 0.0
C399 C 0.69572 0.51651 0.75495 0.0
C400 C 0.76943 0.40922 0.79801 0.0
O401 O 0.68812 0.43666 0.75743 0.0
O402 O 0.68312 0.39544 0.81268 0.0
C403 C 0.63985 0.41727 0.89457 0.0
N404 N 0.67299 0.41225 0.90768 0.0
C405 C 0.65924 0.42243 0.98886 0.0
C406 C 0.62512 0.42822 0.97611 0.0
C407 C 0.6153 0.42538 0.92884 0.0
C408 C 0.68266 0.41488 0.95311 0.0
H409 H 0.63235 0.41575 0.85815 0.0
C410 C 0.67601 0.4084 0.77249 0.0
O411 O 0.72232 0.50119 0.73736 0.0
O412 O 0.68289 0.50424 0.79335 0.0
N413 N 0.73825 0.40868 0.92514 0.0
C414 C 0.77278 0.40629 0.93093 0.0
C415 C 0.78675 0.40836 0.97626 0.0
C416 C 0.76511 0.41286 0.01516 0.0
C417 C 0.72966 0.41526 0.00836 0.0
C418 C 0.71716 0.41235 0.96245 0.0
H419 H 0.78955 0.40304 0.90117 0.0
O420 O 0.74635 0.49688 0.83913 0.0
O421 O 0.71389 0.45253 0.85491 0.0
O422 O 0.76037 0.43777 0.78004 0.0
O423 O 0.75311 0.39416 0.83095 0.0
C424 C 0.70633 0.42131 0.04519 0.0
C425 C 0.67117 0.42524 0.03538 0.0
H426 H 0.60641 0.43559 0.00226 0.0
H427 H 0.58897 0.42987 0.91878 0.0
H428 H 0.81416 0.40674 0.98117 0.0
H429 H 0.77602 0.41501 0.04998 0.0
H430 H 0.71528 0.42394 0.08099 0.0
H431 H 0.65359 0.43092 0.06376 0.0
Mn432 Mn 0.52839 0.28228 0.21407 0.0
Mn433 Mn 0.59402 0.29098 0.13783 0.0
C434 C 0.5222 0.26683 0.13626 0.0
C435 C 0.4803 0.30567 0.24962 0.0
C436 C 0.59014 0.23424 0.21013 0.0
O437 O 0.55969 0.31551 0.248 0.0
O438 O 0.60106 0.3212 0.19306 0.0
C439 C 0.5789 0.36231 0.10947 0.0
N440 N 0.58483 0.32907 0.09757 0.0
C441 C 0.57569 0.34129 0.01568 0.0
C442 C 0.56898 0.37549 0.02718 0.0
C443 C 0.57083 0.38612 0.07421 0.0
C444 C 0.58322 0.31862 0.05237 0.0
H445 H 0.5797 0.37046 0.14567 0.0
C446 C 0.5874 0.32866 0.23271 0.0
O447 O 0.49607 0.27978 0.26852 0.0
O448 O 0.49263 0.31798 0.21099 0.0
N449 N 0.59001 0.26361 0.0823 0.0
C450 C 0.59211 0.22896 0.07782 0.0
C451 C 0.59034 0.21413 0.03299 0.0
C452 C 0.58628 0.23504 0.99324 0.0
C453 C 0.58392 0.27062 0.99872 0.0
C454 C 0.58646 0.28399 0.04422 0.0
H455 H 0.5947 0.21274 0.10822 0.0
O456 O 0.50202 0.25393 0.16778 0.0
O457 O 0.54534 0.28768 0.15148 0.0
O458 O 0.56129 0.24261 0.22791 0.0
O459 O 0.60469 0.25072 0.17692 0.0
C460 C 0.57805 0.29322 0.96099 0.0
C461 C 0.57365 0.32851 0.96951 0.0
H462 H 0.56168 0.39364 0.00023 0.0
H463 H 0.56563 0.41252 0.0833 0.0
H464 H 0.59175 0.18661 0.02911 0.0
H465 H 0.58433 0.22346 0.9588 0.0
H466 H 0.57579 0.2836 0.92547 0.0
H467 H 0.56801 0.3455 0.94044 0.0
Mn468 Mn 0.72448 0.53683 0.21349 0.0
Mn469 Mn 0.72837 0.60092 0.13381 0.0
C470 C 0.74592 0.52716 0.13898 0.0
C471 C 0.69559 0.4917 0.2482 0.0
C472 C 0.77858 0.593 0.21353 0.0
O473 O 0.69189 0.57209 0.24122 0.0
O474 O 0.6966 0.61311 0.18565 0.0
C475 C 0.65742 0.595 0.09834 0.0
N476 N 0.69172 0.59574 0.08999 0.0
C477 C 0.68294 0.589 0.00689 0.0
C478 C 0.64757 0.58796 0.01463 0.0
C479 C 0.63473 0.59101 0.06053 0.0
C480 C 0.70431 0.59266 0.04597 0.0
H481 H 0.64749 0.59717 0.13361 0.0
C482 C 0.68452 0.60145 0.22431 0.0
O483 O 0.72083 0.50653 0.26964 0.0
O484 O 0.68666 0.50356 0.20749 0.0
N485 N 0.75794 0.5928 0.08132 0.0
C486 C 0.79276 0.5914 0.08023 0.0
C487 C 0.80965 0.58779 0.03697 0.0
C488 C 0.79059 0.58584 0.99527 0.0
C489 C 0.75479 0.58757 0.99722 0.0
C490 C 0.73939 0.59149 0.04132 0.0
H491 H 0.8075 0.59264 0.11214 0.0
O492 O 0.75419 0.50693 0.17327 0.0
O493 O 0.72551 0.55229 0.14927 0.0
O494 O 0.76526 0.56649 0.23206 0.0
O495 O 0.7672 0.60757 0.17656 0.0
C496 C 0.73376 0.58491 0.95722 0.0
C497 C 0.69784 0.58554 0.96207 0.0
H498 H 0.63016 0.58418 0.9856 0.0
H499 H 0.60743 0.59012 0.06678 0.0
H500 H 0.83729 0.58633 0.0358 0.0
H501 H 0.80369 0.58269 0.96202 0.0
H502 H 0.74492 0.58167 0.92269 0.0
H503 H 0.68192 0.58269 0.9312 0.0
Mn504 Mn 0.46636 0.72379 0.20922 0.0
Mn505 Mn 0.40028 0.72838 0.13307 0.0
C506 C 0.47447 0.74547 0.13469 0.0
C507 C 0.51021 0.69128 0.24112 0.0
C508 C 0.41096 0.77887 0.21246 0.0
O509 O 0.43135 0.69237 0.23871 0.0
O510 O 0.38951 0.69546 0.18445 0.0
C511 C 0.40544 0.65784 0.09567 0.0
N512 N 0.4045 0.69227 0.08815 0.0
C513 C 0.40935 0.68443 0.0046 0.0
C514 C 0.41039 0.64895 0.01148 0.0
C515 C 0.40845 0.63558 0.05721 0.0
C516 C 0.40655 0.70537 0.04429 0.0
H517 H 0.40413 0.64746 0.13077 0.0
C518 C 0.40231 0.68355 0.22256 0.0
O519 O 0.49806 0.7175 0.26375 0.0
O520 O 0.49729 0.68438 0.20041 0.0
N521 N 0.40711 0.75858 0.08084 0.0
C522 C 0.40888 0.79338 0.08041 0.0
C523 C 0.41153 0.81078 0.0374 0.0
C524 C 0.41237 0.79221 0.99522 0.0
C525 C 0.4106 0.7564 0.99647 0.0
C526 C 0.40755 0.7405 0.04038 0.0
H527 H 0.40892 0.80769 0.11264 0.0
O528 O 0.49607 0.75263 0.16781 0.0
O529 O 0.44923 0.72562 0.1461 0.0
O530 O 0.43828 0.7657 0.2293 0.0
O531 O 0.3948 0.76686 0.17713 0.0
C532 C 0.41246 0.73583 0.95593 0.0
C533 C 0.41191 0.69986 0.96 0.0
H534 H 0.41326 0.63184 0.9819 0.0
H535 H 0.40944 0.60821 0.06285 0.0
H536 H 0.41325 0.83841 0.0368 0.0
H537 H 0.41487 0.80568 0.96215 0.0
H538 H 0.41502 0.7474 0.92153 0.0
H539 H 0.41411 0.6843 0.92868 0.0
Mn540 Mn 0.26793 0.46972 0.21478 0.0
Mn541 Mn 0.27185 0.40025 0.14441 0.0
C542 C 0.24695 0.47179 0.13911 0.0
C543 C 0.2919 0.51984 0.24264 0.0
C544 C 0.21932 0.40886 0.22141 0.0
O545 O 0.30373 0.4404 0.24737 0.0
O546 O 0.30369 0.39494 0.19848 0.0
C547 C 0.34288 0.40993 0.11047 0.0
N548 N 0.30893 0.40587 0.1012 0.0
C549 C 0.31903 0.40873 0.01791 0.0
C550 C 0.35401 0.41312 0.0266 0.0
C551 C 0.36601 0.41363 0.07307 0.0
C552 C 0.29716 0.40529 0.05658 0.0
H553 H 0.35222 0.41058 0.14613 0.0
C554 C 0.31445 0.4109 0.23491 0.0
O555 O 0.26804 0.50442 0.26625 0.0
O556 O 0.30221 0.50589 0.20391 0.0
N557 N 0.24296 0.40217 0.0901 0.0
C558 C 0.20819 0.40087 0.08768 0.0
C559 C 0.19205 0.40091 0.04364 0.0
C560 C 0.21182 0.40226 0.0025 0.0
C561 C 0.24758 0.40354 0.0058 0.0
C562 C 0.26224 0.40305 0.05068 0.0
H563 H 0.1929 0.40034 0.11909 0.0
O564 O 0.23589 0.49327 0.17036 0.0
O565 O 0.26959 0.44973 0.15319 0.0
O566 O 0.23006 0.43746 0.23701 0.0
O567 O 0.23262 0.393 0.18667 0.0
C568 C 0.26919 0.40603 0.96635 0.0
C569 C 0.3049 0.40865 0.9724 0.0
H570 H 0.37175 0.4167 0.99784 0.0
H571 H 0.39301 0.41707 0.08003 0.0
H572 H 0.16442 0.40019 0.04142 0.0
H573 H 0.19927 0.40271 0.96861 0.0
H574 H 0.25858 0.40662 0.93123 0.0
H575 H 0.32121 0.41127 0.94184 0.0
H576 H 0.07817 0.12215 0.23267 0.0
H577 H 0.16545 0.1864 0.25895 0.0
H578 H 0.20413 0.13938 0.23896 0.0
H579 H 0.21232 0.07714 0.23357 0.0
H580 H 0.12456 0.01165 0.21927 0.0
H581 H 0.0869 0.06153 0.21362 0.0
C582 C 0.10564 0.12612 0.23195 0.0
C583 C 0.11912 0.1574 0.24728 0.0
C584 C 0.12763 0.09837 0.22327 0.0
C585 C 0.1547 0.16233 0.24723 0.0
C586 C 0.17677 0.1354 0.23619 0.0
C587 C 0.18515 0.07405 0.22701 0.0
C588 C 0.17102 0.04114 0.22655 0.0
C589 C 0.16351 0.1028 0.22695 0.0
C590 C 0.13577 0.037 0.21933 0.0
C591 C 0.11425 0.06547 0.21662 0.0
H592 H 0.97235 0.12367 0.23462 0.0
H593 H 0.9297 0.22538 0.23131 0.0
H594 H 0.87182 0.2017 0.22866 0.0
H595 H 0.8342 0.15221 0.2441 0.0
H596 H 0.87692 0.05044 0.24364 0.0
H597 H 0.93402 0.07378 0.22986 0.0
C598 C 0.95035 0.1405 0.2314 0.0
C599 C 0.95494 0.17606 0.23357 0.0
C600 C 0.91728 0.12668 0.22991 0.0
C601 C 0.92655 0.19787 0.22937 0.0
C602 C 0.89349 0.18434 0.22843 0.0
C603 C 0.85591 0.13522 0.23922 0.0
C604 C 0.8517 0.09983 0.24535 0.0
C605 C 0.88859 0.14883 0.23116 0.0
C606 C 0.87972 0.07781 0.23884 0.0
C607 C 0.91239 0.09116 0.23144 0.0
H608 H 0.85782 0.96903 0.22145 0.0
H609 H 0.76106 0.91986 0.24652 0.0
H610 H 0.78893 0.86366 0.24495 0.0
H611 H 0.84237 0.83072 0.25344 0.0
H612 H 0.93922 0.8799 0.22816 0.0
H613 H 0.90988 0.93389 0.21129 0.0
C614 C 0.84277 0.94582 0.22447 0.0
C615 C 0.80761 0.94819 0.23397 0.0
C616 C 0.85909 0.91379 0.22409 0.0
C617 C 0.78813 0.91832 0.23855 0.0
C618 C 0.80413 0.8863 0.2382 0.0
C619 C 0.85686 0.85299 0.24243 0.0
C620 C 0.89279 0.85165 0.2425 0.0
C621 C 0.83982 0.88395 0.23344 0.0
C622 C 0.9115 0.88042 0.2281 0.0
C623 C 0.89474 0.91137 0.21902 0.0
H624 H 0.03532 0.8643 0.21445 0.0
H625 H 0.0759 0.76424 0.24513 0.0
H626 H 0.13421 0.78688 0.2434 0.0
H627 H 0.17119 0.83756 0.25114 0.0
H628 H 0.13057 0.93742 0.21821 0.0
H629 H 0.07481 0.91243 0.20116 0.0
C630 C 0.05713 0.84733 0.21862 0.0
C631 C 0.05178 0.81291 0.23016 0.0
C632 C 0.09041 0.86058 0.21776 0.0
C633 C 0.07981 0.79085 0.23585 0.0
C634 C 0.11304 0.80386 0.23537 0.0
C635 C 0.15044 0.85355 0.2384 0.0
C636 C 0.1546 0.88919 0.23672 0.0
C637 C 0.1184 0.83904 0.229 0.0
C638 C 0.12784 0.90984 0.21979 0.0
C639 C 0.09584 0.89563 0.21055 0.0
H640 H 0.16299 0.82377 0.73267 0.0
H641 H 0.0632 0.86597 0.76217 0.0
H642 H 0.08863 0.92182 0.77772 0.0
H643 H 0.13782 0.96052 0.76757 0.0
H644 H 0.23768 0.91841 0.74001 0.0
H645 H 0.21392 0.86045 0.73976 0.0
C646 C 0.14702 0.845 0.74388 0.0
C647 C 0.11133 0.84103 0.74557 0.0
C648 C 0.1618 0.87704 0.75264 0.0
C649 C 0.09079 0.86847 0.76063 0.0
C650 C 0.10527 0.90049 0.76912 0.0
C651 C 0.15443 0.93844 0.76343 0.0
C652 C 0.18926 0.94328 0.75392 0.0
C653 C 0.14052 0.90539 0.76308 0.0
C654 C 0.2108 0.91489 0.74797 0.0
C655 C 0.19716 0.88188 0.74732 0.0
H656 H 0.16025 0.1497 0.74775 0.0
H657 H 0.11686 0.04841 0.74659 0.0
H658 H 0.05976 0.07237 0.75936 0.0
H659 H 0.0217 0.12279 0.75581 0.0
H660 H 0.06503 0.22394 0.76114 0.0
H661 H 0.12283 0.19956 0.76264 0.0
C662 C 0.13838 0.13293 0.752 0.0
C663 C 0.14247 0.09749 0.74591 0.0
C664 C 0.1057 0.1469 0.75947 0.0
C665 C 0.11419 0.07579 0.75149 0.0
C666 C 0.08152 0.0895 0.75827 0.0
C667 C 0.04386 0.13931 0.75901 0.0
C668 C 0.0395 0.17494 0.75814 0.0
C669 C 0.07685 0.12508 0.76014 0.0
C670 C 0.06807 0.19637 0.76217 0.0
C671 C 0.10104 0.18245 0.76255 0.0
H672 H 0.92309 0.11223 0.74503 0.0
H673 H 0.83048 0.17186 0.75286 0.0
H674 H 0.79725 0.12006 0.76862 0.0
H675 H 0.79344 0.05736 0.76394 0.0
H676 H 0.88505 0.99796 0.74253 0.0
H677 H 0.92001 0.04961 0.74925 0.0
C678 C 0.89584 0.11386 0.75201 0.0
C679 C 0.87913 0.14556 0.74826 0.0
C680 C 0.87674 0.08379 0.75789 0.0
C681 C 0.84372 0.14757 0.75598 0.0
C682 C 0.82475 0.11797 0.76459 0.0
C683 C 0.82114 0.05574 0.76258 0.0
C684 C 0.83687 0.02418 0.75319 0.0
C685 C 0.84076 0.08581 0.76334 0.0
C686 C 0.87263 0.02217 0.75008 0.0
C687 C 0.89253 0.05168 0.75356 0.0
H688 H 0.87106 0.90597 0.75314 0.0
H689 H 0.81162 0.81718 0.71625 0.0
H690 H 0.86056 0.78002 0.73281 0.0
H691 H 0.92281 0.77435 0.74226 0.0
H692 H 0.98365 0.86408 0.76783 0.0
H693 H 0.93188 0.89937 0.77228 0.0
C694 C 0.86856 0.87839 0.75037 0.0
C695 C 0.83799 0.86421 0.73344 0.0
C696 C 0.89732 0.85745 0.75742 0.0
C697 C 0.83507 0.82854 0.72911 0.0
C698 C 0.86307 0.80735 0.73833 0.0
C699 C 0.9244 0.8014 0.75064 0.0
C700 C 0.95654 0.81678 0.75541 0.0
C701 C 0.89473 0.82168 0.75028 0.0
C702 C 0.95887 0.8519 0.76476 0.0
C703 C 0.92936 0.87204 0.76684 0.0
H704 H 0.65497 0.66886 0.74617 0.0
H705 H 0.55502 0.62414 0.72947 0.0
H706 H 0.58088 0.56794 0.71671 0.0
H707 H 0.63105 0.53046 0.7285 0.0
H708 H 0.73112 0.57511 0.74275 0.0
H709 H 0.70633 0.6326 0.73752 0.0
C710 C 0.63903 0.64701 0.73775 0.0
C711 C 0.60326 0.65036 0.73928 0.0
C712 C 0.65409 0.61476 0.7309 0.0
C713 C 0.58267 0.62209 0.72823 0.0
C714 C 0.59742 0.58987 0.72157 0.0
C715 C 0.64742 0.55286 0.72854 0.0
C716 C 0.68265 0.54895 0.73632 0.0
C717 C 0.63296 0.58568 0.7255 0.0
C718 C 0.70391 0.5778 0.73647 0.0
C719 C 0.6897 0.6106 0.73395 0.0
H720 H 0.4664 0.6325 0.72413 0.0
H721 H 0.4194 0.73139 0.74219 0.0
H722 H 0.36257 0.70518 0.74078 0.0
H723 H 0.32825 0.65289 0.75181 0.0
H724 H 0.37526 0.55411 0.73146 0.0
H725 H 0.43011 0.58142 0.71481 0.0
C726 C 0.44357 0.64831 0.72577 0.0
C727 C 0.44668 0.68358 0.73355 0.0
C728 C 0.41115 0.63302 0.72504 0.0
C729 C 0.41728 0.70413 0.73583 0.0
C730 C 0.38489 0.68911 0.73553 0.0
C731 C 0.35025 0.63753 0.74183 0.0
C732 C 0.34806 0.60168 0.7434 0.0
C733 C 0.3817 0.65341 0.73266 0.0
C734 C 0.37646 0.58181 0.73028 0.0
C735 C 0.40791 0.59739 0.72133 0.0
H736 H 0.36853 0.46414 0.72981 0.0
H737 H 0.26858 0.41839 0.73818 0.0
H738 H 0.29418 0.36118 0.73529 0.0
H739 H 0.34558 0.32571 0.74851 0.0
H740 H 0.44548 0.37158 0.73813 0.0
H741 H 0.41948 0.42733 0.7223 0.0
C742 C 0.35243 0.44156 0.729 0.0
C743 C 0.31696 0.44504 0.73465 0.0
C744 C 0.36736 0.40895 0.72761 0.0
C745 C 0.29601 0.41599 0.7336 0.0
C746 C 0.31066 0.38336 0.73249 0.0
C747 C 0.36153 0.34773 0.74094 0.0
C748 C 0.39721 0.34494 0.7451 0.0
C749 C 0.34639 0.37965 0.73216 0.0
C750 C 0.41789 0.37331 0.735 0.0
C751 C 0.40304 0.40523 0.72646 0.0
H752 H 0.66929 0.34106 0.75387 0.0
H753 H 0.61983 0.43884 0.73568 0.0
H754 H 0.56545 0.41032 0.71957 0.0
H755 H 0.53048 0.3583 0.72907 0.0
H756 H 0.5799 0.2605 0.74625 0.0
H757 H 0.63612 0.28804 0.74346 0.0
C758 C 0.64684 0.35595 0.74446 0.0
C759 C 0.64819 0.39183 0.74644 0.0
C760 C 0.6157 0.33937 0.73583 0.0
C761 C 0.61924 0.41113 0.73413 0.0
C762 C 0.58809 0.39484 0.72551 0.0
C763 C 0.5537 0.34302 0.73019 0.0
C764 C 0.55148 0.30766 0.73806 0.0
C765 C 0.58572 0.35909 0.72892 0.0
C766 C 0.58134 0.2878 0.7398 0.0
C767 C 0.61337 0.30358 0.73871 0.0
H768 H 0.6289 0.47873 0.26449 0.0
H769 H 0.72925 0.43304 0.26722 0.0
H770 H 0.70389 0.37588 0.27114 0.0
H771 H 0.65322 0.33967 0.25739 0.0
H772 H 0.5528 0.38534 0.25856 0.0
H773 H 0.57789 0.44188 0.27093 0.0
C774 C 0.64505 0.45622 0.26775 0.0
C775 C 0.68069 0.45967 0.26523 0.0
C776 C 0.63026 0.42359 0.27028 0.0
C777 C 0.70167 0.43068 0.26941 0.0
C778 C 0.68719 0.39807 0.27121 0.0
C779 C 0.63691 0.36188 0.26237 0.0
C780 C 0.6014 0.35868 0.25679 0.0
C781 C 0.65154 0.39423 0.26937 0.0
C782 C 0.58025 0.38738 0.26313 0.0
C783 C 0.5946 0.41973 0.26959 0.0
H784 H 0.57409 0.71294 0.25913 0.0
H785 H 0.5102 0.62336 0.25778 0.0
H786 H 0.56065 0.58641 0.26392 0.0
H787 H 0.62262 0.57983 0.25312 0.0
H788 H 0.68603 0.66951 0.24231 0.0
H789 H 0.63666 0.70626 0.25842 0.0
C790 C 0.57138 0.68538 0.26207 0.0
C791 C 0.53884 0.67066 0.25852 0.0
C792 C 0.60058 0.66437 0.26263 0.0
C793 C 0.53525 0.635 0.26093 0.0
C794 C 0.56404 0.61394 0.26403 0.0
C795 C 0.6257 0.60734 0.25609 0.0
C796 C 0.65765 0.62211 0.24672 0.0
C797 C 0.59687 0.6283 0.26255 0.0
C798 C 0.66149 0.65777 0.24952 0.0
C799 C 0.63327 0.67874 0.2584 0.0
H800 H 0.33396 0.67206 0.22843 0.0
H801 H 0.43212 0.62859 0.26414 0.0
H802 H 0.4052 0.57367 0.28109 0.0
H803 H 0.35534 0.53579 0.27161 0.0
H804 H 0.25698 0.57926 0.23843 0.0
H805 H 0.28212 0.6366 0.23528 0.0
C806 C 0.34923 0.65079 0.24119 0.0
C807 C 0.38493 0.65413 0.24438 0.0
C808 C 0.33359 0.61927 0.25089 0.0
C809 C 0.40454 0.6266 0.26143 0.0
C810 C 0.38922 0.59509 0.27076 0.0
C811 C 0.33934 0.55809 0.26551 0.0
C812 C 0.30455 0.55376 0.25539 0.0
C813 C 0.35402 0.59079 0.26364 0.0
C814 C 0.28382 0.58241 0.24691 0.0
C815 C 0.29824 0.61504 0.24461 0.0
H816 H 0.32716 0.34428 0.25506 0.0
H817 H 0.37039 0.44545 0.26466 0.0
H818 H 0.42702 0.4209 0.27864 0.0
H819 H 0.4652 0.37091 0.27131 0.0
H820 H 0.42218 0.2697 0.26406 0.0
H821 H 0.3643 0.29382 0.26687 0.0
C822 C 0.34883 0.36085 0.26189 0.0
C823 C 0.34487 0.39651 0.25822 0.0
C824 C 0.38131 0.34654 0.26969 0.0
C825 C 0.3729 0.41789 0.26744 0.0
C826 C 0.40534 0.40387 0.27493 0.0
C827 C 0.44306 0.3542 0.27225 0.0
C828 C 0.44757 0.31876 0.26727 0.0
C829 C 0.41004 0.36828 0.27371 0.0
C830 C 0.41905 0.29709 0.2683 0.0
C831 C 0.38603 0.3109 0.26937 0.0
H832 H 0.12713 0.31712 0.34838 0.0
H833 H 0.07952 0.29731 0.21434 0.0
H834 H 0.11468 0.34137 0.17785 0.0
H835 H 0.16426 0.37919 0.18207 0.0
H836 H 0.21161 0.40025 0.31549 0.0
H837 H 0.17078 0.36216 0.35466 0.0
C838 C 0.12403 0.32289 0.31137 0.0
C839 C 0.10126 0.30359 0.2839 0.0
C840 C 0.14441 0.34815 0.29056 0.0
C841 C 0.097 0.31171 0.2362 0.0
C842 C 0.11723 0.33674 0.21522 0.0
C843 C 0.16525 0.37589 0.21977 0.0
C844 C 0.19105 0.39186 0.24589 0.0
C845 C 0.14185 0.35413 0.24174 0.0
C846 C 0.19184 0.38801 0.29485 0.0
C847 C 0.1687 0.36613 0.3171 0.0
H848 H 0.6751 0.12859 0.32823 0.0
H849 H 0.71585 0.10494 0.19136 0.0
H850 H 0.67547 0.14518 0.15535 0.0
H851 H 0.63282 0.19091 0.16432 0.0
H852 H 0.5897 0.212 0.3008 0.0
H853 H 0.62684 0.16844 0.33582 0.0
C854 C 0.67483 0.13189 0.29052 0.0
C855 C 0.69858 0.11425 0.26246 0.0
C856 C 0.65137 0.15463 0.27022 0.0
C857 C 0.69769 0.11831 0.21353 0.0
C858 C 0.6748 0.14142 0.19305 0.0
C859 C 0.63113 0.18561 0.20158 0.0
C860 C 0.60885 0.20484 0.23006 0.0
C861 C 0.65213 0.1603 0.22124 0.0
C862 C 0.60669 0.19749 0.27823 0.0
C863 C 0.62801 0.17275 0.29826 0.0
H864 H 0.83305 0.62341 0.17376 0.0
H865 H 0.78662 0.60125 0.30767 0.0
H866 H 0.82628 0.64061 0.34636 0.0
H867 H 0.86871 0.6868 0.33968 0.0
H868 H 0.91578 0.70737 0.20542 0.0
H869 H 0.88131 0.66276 0.16909 0.0
C870 C 0.83212 0.62666 0.21152 0.0
C871 C 0.80686 0.60999 0.23786 0.0
C872 C 0.85473 0.64928 0.23323 0.0
C873 C 0.80603 0.61393 0.28683 0.0
C874 C 0.82844 0.63661 0.30882 0.0
C875 C 0.87172 0.68117 0.30264 0.0
C876 C 0.89425 0.70066 0.27508 0.0
C877 C 0.85203 0.65534 0.28203 0.0
C878 C 0.89843 0.69278 0.22729 0.0
C879 C 0.87869 0.66738 0.20645 0.0
H880 H 0.32032 0.87324 0.33709 0.0
H881 H 0.30112 0.92049 0.20258 0.0
H882 H 0.34565 0.88502 0.16692 0.0
H883 H 0.38289 0.83481 0.17215 0.0
H884 H 0.40324 0.78815 0.30647 0.0
H885 H 0.36554 0.82988 0.34467 0.0
C886 C 0.3264 0.87635 0.30021 0.0
C887 C 0.30712 0.89898 0.27227 0.0
C888 C 0.3519 0.85589 0.28004 0.0
C889 C 0.31555 0.90312 0.2247 0.0
C890 C 0.34083 0.88272 0.20427 0.0
C891 C 0.37974 0.83424 0.20986 0.0
C892 C 0.3953 0.80825 0.23646 0.0
C893 C 0.35811 0.85812 0.23128 0.0
C894 C 0.39141 0.80802 0.28541 0.0
C895 C 0.3697 0.83166 0.30712 0.0
H896 H 0.18351 0.6256 0.84224 0.0
H897 H 0.20162 0.5753 0.70955 0.0
H898 H 0.15709 0.60999 0.67289 0.0
H899 H 0.11912 0.65957 0.67642 0.0
H900 H 0.09939 0.70934 0.80866 0.0
H901 H 0.1382 0.66926 0.84824 0.0
C902 C 0.1773 0.62185 0.80551 0.0
C903 C 0.19617 0.59841 0.7784 0.0
C904 C 0.1516 0.64178 0.78471 0.0
C905 C 0.18753 0.59334 0.73106 0.0
C906 C 0.1622 0.61324 0.71003 0.0
C907 C 0.12273 0.66118 0.71401 0.0
C908 C 0.10693 0.68746 0.73962 0.0
C909 C 0.14496 0.63827 0.73618 0.0
C910 C 0.11138 0.68913 0.78843 0.0
C911 C 0.13374 0.66647 0.81089 0.0
H912 H 0.36918 0.17573 0.83549 0.0
H913 H 0.40771 0.20458 0.69912 0.0
H914 H 0.36827 0.16447 0.66174 0.0
H915 H 0.31883 0.12651 0.66802 0.0
H916 H 0.2822 0.09509 0.8042 0.0
H917 H 0.32528 0.1312 0.84201 0.0
C918 C 0.36937 0.17277 0.79766 0.0
C919 C 0.39091 0.19326 0.76995 0.0
C920 C 0.34684 0.14967 0.7766 0.0
C921 C 0.3913 0.18898 0.72105 0.0
C922 C 0.36861 0.1663 0.69971 0.0
C923 C 0.32056 0.12714 0.7059 0.0
C924 C 0.29721 0.10861 0.73337 0.0
C925 C 0.34562 0.14734 0.72714 0.0
C926 C 0.29996 0.10931 0.78248 0.0
C927 C 0.32445 0.12996 0.80401 0.0
H928 H 0.87021 0.32384 0.67418 0.0
H929 H 0.89354 0.27837 0.80837 0.0
H930 H 0.85677 0.32042 0.84755 0.0
H931 H 0.81277 0.36529 0.84177 0.0
H932 H 0.79143 0.41198 0.70751 0.0
H933 H 0.83325 0.37439 0.66997 0.0
C934 C 0.86772 0.32351 0.71203 0.0
C935 C 0.88405 0.29789 0.73839 0.0
C936 C 0.84682 0.34775 0.7341 0.0
C937 C 0.88109 0.29795 0.78749 0.0
C938 C 0.85995 0.3218 0.80978 0.0
C939 C 0.81772 0.36764 0.80446 0.0
C940 C 0.79876 0.39097 0.77729 0.0
C941 C 0.84188 0.3461 0.7832 0.0
C942 C 0.80571 0.39413 0.7291 0.0
C943 C 0.82944 0.37254 0.70759 0.0
H944 H 0.66335 0.87798 0.66365 0.0
H945 H 0.71043 0.90223 0.79636 0.0
H946 H 0.66982 0.8649 0.83695 0.0
H947 H 0.62726 0.81877 0.83233 0.0
H948 H 0.57935 0.79588 0.69956 0.0
H949 H 0.61391 0.83969 0.66115 0.0
C950 C 0.66411 0.8758 0.70157 0.0
C951 C 0.68998 0.89237 0.72701 0.0
C952 C 0.64096 0.85421 0.72443 0.0
C953 C 0.69061 0.8897 0.77615 0.0
C954 C 0.66766 0.86811 0.79926 0.0
C955 C 0.62395 0.82382 0.79519 0.0
C956 C 0.60129 0.80377 0.76861 0.0
C957 C 0.64372 0.84916 0.77343 0.0
C958 C 0.59679 0.8109 0.72067 0.0
C959 C 0.61662 0.83583 0.69866 0.0
H960 H 0.00588 0.28124 0.43035 0.0
H961 H 0.00686 0.17145 0.41607 0.0
H962 H 0.98946 0.1649 0.49791 0.0
H963 H 0.9763 0.19018 0.57395 0.0
H964 H 0.97886 0.2995 0.59188 0.0
H965 H 0.99368 0.30681 0.50847 0.0
C966 C 0.00208 0.25605 0.44546 0.0
C967 C 0.00817 0.22682 0.41819 0.0
C968 C 0.99314 0.2525 0.49298 0.0
C969 C 0.00287 0.19417 0.43721 0.0
C970 C 0.99303 0.19043 0.48382 0.0
C971 C 0.97983 0.21559 0.55931 0.0
C972 C 0.97544 0.24436 0.58786 0.0
C973 C 0.98858 0.21936 0.51209 0.0
C974 C 0.98149 0.27714 0.5697 0.0
C975 C 0.98975 0.28126 0.52221 0.0
H976 H 0.71002 0.98983 0.56901 0.0
H977 H 0.8192 0.97483 0.57585 0.0
H978 H 0.82501 0.99161 0.49379 0.0
H979 H 0.79913 0.0085 0.41971 0.0
H980 H 0.68992 0.02014 0.40875 0.0
H981 H 0.68356 0.00574 0.4925 0.0
C982 C 0.73493 0.9905 0.55227 0.0
C983 C 0.7641 0.98068 0.5776 0.0
C984 C 0.73795 -0.00081 0.50453 0.0
C985 C 0.79643 0.98183 0.55633 0.0
C986 C 0.79976 0.9913 0.50956 0.0
C987 C 0.77399 0.00814 0.43593 0.0
C988 C 0.74512 0.01642 0.40926 0.0
C989 C 0.77071 -0.00041 0.48327 0.0
C990 C 0.71247 0.01448 0.42947 0.0
C991 C 0.70892 0.00645 0.47716 0.0
H992 H 0.02016 0.79735 0.57233 0.0
H993 H 0.01121 0.68802 0.5857 0.0
H994 H 0.99764 0.68342 0.5015 0.0
H995 H 0.98855 0.71144 0.42394 0.0
H996 H 0.99586 0.82127 0.41397 0.0
H997 H 0.01104 0.82491 0.49684 0.0
C998 C 0.01558 0.77249 0.55655 0.0
C999 C 0.01775 0.74294 0.5841 0.0
C1000 C 0.0079 0.77025 0.50885 0.0
C1001 C 0.01029 0.71096 0.56437 0.0
C1002 C 0.00275 0.70838 0.51642 0.0
C1003 C 0.99373 0.73598 0.44019 0.0
C1004 C 0.99044 0.76614 0.41381 0.0
C1005 C 0.00175 0.7379 0.48822 0.0
C1006 C 0.99761 0.79789 0.43436 0.0
C1007 C 0.00621 0.79998 0.48156 0.0
H1008 H 0.1958 0.0102 0.5715 0.0
H1009 H 0.30534 0.01524 0.58496 0.0
H1010 H 0.31183 0.00264 0.50071 0.0
H1011 H 0.28532 0.99137 0.42284 0.0
H1012 H 0.17548 0.98552 0.41242 0.0
H1013 H 0.16979 -0.00178 0.49587 0.0
C1014 C 0.22107 0.00882 0.55574 0.0
C1015 C 0.25004 0.01479 0.58324 0.0
C1016 C 0.22437 0.00177 0.508 0.0
C1017 C 0.28276 0.01141 0.5636 0.0
C1018 C 0.28639 0.00442 0.51565 0.0
C1019 C 0.2603 0.99311 0.43916 0.0
C1020 C 0.23085 0.98682 0.41249 0.0
C1021 C 0.25728 -2e-05 0.48737 0.0
C1022 C 0.19841 0.98956 0.43306 0.0
C1023 C 0.19515 0.99676 0.48057 0.0
H1024 H 0.51169 0.78804 0.92729 0.0
H1025 H 0.50637 0.67854 0.91078 0.0
H1026 H 0.49198 0.67182 0.9936 0.0
H1027 H 0.48186 0.69679 0.07062 0.0
H1028 H 0.4904 0.80559 0.09064 0.0
H1029 H 0.50373 0.81316 0.00679 0.0
C1030 C 0.50723 0.76289 0.94215 0.0
C1031 C 0.51053 0.73375 0.91381 0.0
C1032 C 0.49992 0.75916 0.99018 0.0
C1033 C 0.50444 0.70117 0.93263 0.0
C1034 C 0.49633 0.69731 0.97981 0.0
C1035 C 0.48646 0.72215 0.05636 0.0
C1036 C 0.484 0.75077 0.08559 0.0
C1037 C 0.49427 0.72606 0.00888 0.0
C1038 C 0.49147 0.78339 0.06792 0.0
C1039 C 0.49889 0.78767 0.02019 0.0
H1040 H 0.21138 0.50512 0.92793 0.0
H1041 H 0.3215 0.5039 0.91978 0.0
H1042 H 0.32535 0.4901 0.00317 0.0
H1043 H 0.2977 0.48048 0.07847 0.0
H1044 H 0.1879 0.483 0.08968 0.0
H1045 H 0.18327 0.49531 0.00511 0.0
C1046 C 0.23605 0.50162 0.94472 0.0
C1047 C 0.26615 0.50627 0.91873 0.0
C1048 C 0.23803 0.49431 0.99292 0.0
C1049 C 0.29811 0.50119 0.93991 0.0
C1050 C 0.30032 0.49335 0.98738 0.0
C1051 C 0.27276 0.48333 0.06214 0.0
C1052 C 0.24312 0.47973 0.08919 0.0
C1053 C 0.27051 0.4903 0.01423 0.0
C1054 C 0.21094 0.48501 0.06872 0.0
C1055 C 0.20836 0.49186 0.0206 0.0
H1056 H 0.51167 0.21336 0.07652 0.0
H1057 H 0.50755 0.32331 0.08754 0.0
H1058 H 0.49369 0.32808 0.00441 0.0
H1059 H 0.48468 0.30143 0.9284 0.0
H1060 H 0.48802 0.19181 0.9147 0.0
H1061 H 0.5013 0.18616 0.99884 0.0
C1062 C 0.50743 0.23817 0.06045 0.0
C1063 C 0.51149 0.26801 0.08715 0.0
C1064 C 0.49967 0.24072 0.0124 0.0
C1065 C 0.50539 0.30014 0.06686 0.0
C1066 C 0.49748 0.30289 0.01951 0.0
C1067 C 0.48781 0.2763 0.94415 0.0
C1068 C 0.4842 0.24701 0.91651 0.0
C1069 C 0.49498 0.27344 0.99193 0.0
C1070 C 0.48998 0.2146 0.93615 0.0
C1071 C 0.49737 0.21142 0.98405 0.0
H1072 H 0.78635 0.48509 0.93236 0.0
H1073 H 0.67684 0.4922 0.91723 0.0
H1074 H 0.67096 0.50763 -0.00022 0.0
H1075 H 0.69663 0.51844 0.0761 0.0
H1076 H 0.80555 0.50944 0.09459 0.0
H1077 H 0.81225 0.49423 0.0112 0.0
C1078 C 0.76138 0.49019 0.94745 0.0
C1079 C 0.73198 0.48701 0.9196 0.0
C1080 C 0.75814 0.49832 0.99532 0.0
C1081 C 0.69966 0.49398 0.9387 0.0
C1082 C 0.69628 0.50269 0.98575 0.0
C1083 C 0.72183 0.51332 0.06164 0.0
C1084 C 0.75071 0.51615 0.0903 0.0
C1085 C 0.72527 0.50469 0.01435 0.0
C1086 C 0.78313 0.50804 0.07234 0.0
C1087 C 0.78691 0.49958 0.02484 0.0
loop_
_geom_bond_atom_site_label_1
_geom_bond_atom_site_label_2
_geom_bond_distance
_geom_bond_site_symmetry_2
_ccdc_geom_bond_type
Mn0 O5 2.095 . S
Mn0 O15 2.162 1_455 S
Mn0 O16 2.297 1_455 S
Mn0 O24 2.385 1_455 S
Mn0 O25 2.209 . S
Mn0 O26 2.094 . S
Mn1 O6 2.121 . S
Mn1 N8 2.257 . S
Mn1 N17 2.282 . S
Mn1 O25 2.215 . S
Mn1 O27 2.117 . S
C2 O24 1.234 1_455 S
C2 O25 1.283 . S
C3 O15 1.281 . S
C3 O16 1.236 . S
C4 O26 1.240 . S
C4 O27 1.264 . S
O5 Mn0 2.095 . S
O5 C14 1.250 . S
O6 Mn1 2.121 . S
O6 C14 1.258 . S
C7 N8 1.326 . S
C7 C11 1.460 . S
C7 H13 0.929 . S
N8 Mn1 2.257 . S
N8 C7 1.326 . S
N8 C12 1.362 . S
C9 C10 1.258 . S
C9 C12 1.431 . S
C9 C29 1.449 . S
C10 C9 1.258 . S
C10 C11 1.477 . S
C10 H30 0.931 . S
C11 C7 1.460 . S
C11 C10 1.477 . S
C11 H31 0.930 . S
C12 N8 1.362 . S
C12 C9 1.431 . S
C12 C22 1.476 . S
H13 C7 0.929 . S
C14 O5 1.250 . S
C14 O6 1.258 . S
O15 Mn0 2.162 1_655 S
O15 C3 1.281 . S
O16 Mn0 2.297 1_655 S
O16 C3 1.236 . S
N17 Mn1 2.282 . S
N17 C18 1.328 . S
N17 C22 1.318 . S
C18 N17 1.328 . S
C18 C19 1.457 . S
C18 H23 0.929 . S
C19 C18 1.457 . S
C19 C20 1.291 . S
C19 H32 0.931 . S
C20 C19 1.291 . S
C20 C21 1.373 . S
C20 H33 0.929 . S
C21 C20 1.373 . S
C21 C22 1.396 . S
C21 C28 1.403 . S
C22 C12 1.476 . S
C22 N17 1.318 . S
C22 C21 1.396 . S
H23 C18 0.929 . S
O24 Mn0 2.385 1_655 S
O24 C2 1.234 1_655 S
O25 Mn0 2.209 . S
O25 Mn1 2.215 . S
O25 C2 1.283 . S
O26 Mn0 2.094 . S
O26 C4 1.240 . S
O27 Mn1 2.117 . S
O27 C4 1.264 . S
C28 C21 1.403 . S
C28 C29 1.399 . S
C28 H34 0.929 . S
C29 C9 1.449 . S
C29 C28 1.399 . S
C29 H35 0.930 . S
H30 C10 0.931 . S
H31 C11 0.930 . S
H32 C19 0.931 . S
H33 C20 0.929 . S
H34 C28 0.929 . S
H35 C29 0.930 . S
Mn36 O41 2.095 . S
Mn36 O51 2.162 1_545 S
Mn36 O52 2.297 1_545 S
Mn36 O60 2.385 1_545 S
Mn36 O61 2.209 . S
Mn36 O62 2.094 . S
Mn37 O42 2.121 . S
Mn37 N44 2.257 . S
Mn37 N53 2.282 . S
Mn37 O61 2.215 . S
Mn37 O63 2.117 . S
C38 O60 1.234 1_545 S
C38 O61 1.283 . S
C39 O51 1.281 . S
C39 O52 1.236 . S
C40 O62 1.240 . S
C40 O63 1.264 . S
O41 Mn36 2.095 . S
O41 C50 1.250 . S
O42 Mn37 2.121 . S
O42 C50 1.258 . S
C43 N44 1.326 . S
C43 C47 1.460 . S
C43 H49 0.929 . S
N44 Mn37 2.257 . S
N44 C43 1.326 . S
N44 C48 1.362 . S
C45 C46 1.258 . S
C45 C48 1.431 . S
C45 C65 1.449 . S
C46 C45 1.258 . S
C46 C47 1.477 . S
C46 H66 0.931 . S
C47 C43 1.460 . S
C47 C46 1.477 . S
C47 H67 0.930 . S
C48 N44 1.362 . S
C48 C45 1.431 . S
C48 C58 1.476 . S
H49 C43 0.929 . S
C50 O41 1.250 . S
C50 O42 1.258 . S
O51 Mn36 2.162 1_565 S
O51 C39 1.281 . S
O52 Mn36 2.297 1_565 S
O52 C39 1.236 . S
N53 Mn37 2.282 . S
N53 C54 1.328 . S
N53 C58 1.318 . S
C54 N53 1.328 . S
C54 C55 1.457 . S
C54 H59 0.929 . S
C55 C54 1.457 . S
C55 C56 1.291 . S
C55 H68 0.931 . S
C56 C55 1.291 . S
C56 C57 1.373 . S
C56 H69 0.929 . S
C57 C56 1.373 . S
C57 C58 1.396 . S
C57 C64 1.403 . S
C58 C48 1.476 . S
C58 N53 1.318 . S
C58 C57 1.396 . S
H59 C54 0.929 . S
O60 Mn36 2.385 1_565 S
O60 C38 1.234 1_565 S
O61 Mn36 2.209 . S
O61 Mn37 2.215 . S
O61 C38 1.283 . S
O62 Mn36 2.094 . S
O62 C40 1.240 . S
O63 Mn37 2.117 . S
O63 C40 1.264 . S
C64 C57 1.403 . S
C64 C65 1.399 . S
C64 H70 0.929 . S
C65 C45 1.449 . S
C65 C64 1.399 . S
C65 H71 0.930 . S
H66 C46 0.931 . S
H67 C47 0.930 . S
H68 C55 0.931 . S
H69 C56 0.929 . S
H70 C64 0.929 . S
H71 C65 0.930 . S
Mn72 O77 2.095 . S
Mn72 O87 2.162 1_655 S
Mn72 O88 2.297 1_655 S
Mn72 O96 2.385 1_655 S
Mn72 O97 2.209 . S
Mn72 O98 2.094 . S
Mn73 O78 2.121 . S
Mn73 N80 2.257 . S
Mn73 N89 2.282 . S
Mn73 O97 2.215 . S
Mn73 O99 2.117 . S
C74 O96 1.234 1_655 S
C74 O97 1.283 . S
C75 O87 1.281 . S
C75 O88 1.236 . S
C76 O98 1.240 . S
C76 O99 1.264 . S
O77 Mn72 2.095 . S
O77 C86 1.250 . S
O78 Mn73 2.121 . S
O78 C86 1.258 . S
C79 N80 1.326 . S
C79 C83 1.460 . S
C79 H85 0.929 . S
N80 Mn73 2.257 . S
N80 C79 1.326 . S
N80 C84 1.362 . S
C81 C82 1.258 . S
C81 C84 1.431 . S
C81 C101 1.449 . S
C82 C81 1.258 . S
C82 C83 1.477 . S
C82 H102 0.931 . S
C83 C79 1.460 . S
C83 C82 1.477 . S
C83 H103 0.930 . S
C84 N80 1.362 . S
C84 C81 1.431 . S
C84 C94 1.476 . S
H85 C79 0.929 . S
C86 O77 1.250 . S
C86 O78 1.258 . S
O87 Mn72 2.162 1_455 S
O87 C75 1.281 . S
O88 Mn72 2.297 1_455 S
O88 C75 1.236 . S
N89 Mn73 2.282 . S
N89 C90 1.328 . S
N89 C94 1.318 . S
C90 N89 1.328 . S
C90 C91 1.457 . S
C90 H95 0.929 . S
C91 C90 1.457 . S
C91 C92 1.291 . S
C91 H104 0.931 . S
C92 C91 1.291 . S
C92 C93 1.373 . S
C92 H105 0.929 . S
C93 C92 1.373 . S
C93 C94 1.396 . S
C93 C100 1.403 . S
C94 C84 1.476 . S
C94 N89 1.318 . S
C94 C93 1.396 . S
H95 C90 0.929 . S
O96 Mn72 2.385 1_455 S
O96 C74 1.234 1_455 S
O97 Mn72 2.209 . S
O97 Mn73 2.215 . S
O97 C74 1.283 . S
O98 Mn72 2.094 . S
O98 C76 1.240 . S
O99 Mn73 2.117 . S
O99 C76 1.264 . S
C100 C93 1.403 . S
C100 C101 1.399 . S
C100 H106 0.929 . S
C101 C81 1.449 . S
C101 C100 1.399 . S
C101 H107 0.930 . S
H102 C82 0.931 . S
H103 C83 0.930 . S
H104 C91 0.931 . S
H105 C92 0.929 . S
H106 C100 0.929 . S
H107 C101 0.930 . S
Mn108 O113 2.095 . S
Mn108 O123 2.162 1_565 S
Mn108 O124 2.297 1_565 S
Mn108 O132 2.385 1_565 S
Mn108 O133 2.209 . S
Mn108 O134 2.094 . S
Mn109 O114 2.121 . S
Mn109 N116 2.257 . S
Mn109 N125 2.282 . S
Mn109 O133 2.215 . S
Mn109 O135 2.117 . S
C110 O132 1.234 1_565 S
C110 O133 1.283 . S
C111 O123 1.281 . S
C111 O124 1.236 . S
C112 O134 1.240 . S
C112 O135 1.264 . S
O113 Mn108 2.095 . S
O113 C122 1.250 . S
O114 Mn109 2.121 . S
O114 C122 1.258 . S
C115 N116 1.326 . S
C115 C119 1.460 . S
C115 H121 0.929 . S
N116 Mn109 2.257 . S
N116 C115 1.326 . S
N116 C120 1.362 . S
C117 C118 1.258 . S
C117 C120 1.431 . S
C117 C137 1.449 . S
C118 C117 1.258 . S
C118 C119 1.477 . S
C118 H138 0.931 . S
C119 C115 1.460 . S
C119 C118 1.477 . S
C119 H139 0.930 . S
C120 N116 1.362 . S
C120 C117 1.431 . S
C120 C130 1.476 . S
H121 C115 0.929 . S
C122 O113 1.250 . S
C122 O114 1.258 . S
O123 Mn108 2.162 1_545 S
O123 C111 1.281 . S
O124 Mn108 2.297 1_545 S
O124 C111 1.236 . S
N125 Mn109 2.282 . S
N125 C126 1.328 . S
N125 C130 1.318 . S
C126 N125 1.328 . S
C126 C127 1.457 . S
C126 H131 0.929 . S
C127 C126 1.457 . S
C127 C128 1.291 . S
C127 H140 0.931 . S
C128 C127 1.291 . S
C128 C129 1.373 . S
C128 H141 0.929 . S
C129 C128 1.373 . S
C129 C130 1.396 . S
C129 C136 1.403 . S
C130 C120 1.476 . S
C130 N125 1.318 . S
C130 C129 1.396 . S
H131 C126 0.929 . S
O132 Mn108 2.385 1_545 S
O132 C110 1.234 1_545 S
O133 Mn108 2.209 . S
O133 Mn109 2.215 . S
O133 C110 1.283 . S
O134 Mn108 2.094 . S
O134 C112 1.240 . S
O135 Mn109 2.117 . S
O135 C112 1.264 . S
C136 C129 1.403 . S
C136 C137 1.399 . S
C136 H142 0.929 . S
C137 C117 1.449 . S
C137 C136 1.399 . S
C137 H143 0.930 . S
H138 C118 0.931 . S
H139 C119 0.930 . S
H140 C127 0.931 . S
H141 C128 0.929 . S
H142 C136 0.929 . S
H143 C137 0.930 . S
Mn144 O149 2.095 . S
Mn144 O159 2.162 1_455 S
Mn144 O160 2.297 1_455 S
Mn144 O168 2.385 1_455 S
Mn144 O169 2.209 . S
Mn144 O170 2.094 . S
Mn145 O150 2.121 . S
Mn145 N152 2.257 . S
Mn145 N161 2.282 . S
Mn145 O169 2.215 . S
Mn145 O171 2.117 . S
C146 O168 1.234 1_455 S
C146 O169 1.283 . S
C147 O159 1.281 . S
C147 O160 1.236 . S
C148 O170 1.240 . S
C148 O171 1.264 . S
O149 Mn144 2.095 . S
O149 C158 1.250 . S
O150 Mn145 2.121 . S
O150 C158 1.258 . S
C151 N152 1.326 . S
C151 C155 1.460 . S
C151 H157 0.929 . S
N152 Mn145 2.257 . S
N152 C151 1.326 . S
N152 C156 1.362 . S
C153 C154 1.258 . S
C153 C156 1.431 . S
C153 C173 1.449 . S
C154 C153 1.258 . S
C154 C155 1.477 . S
C154 H174 0.931 . S
C155 C151 1.460 . S
C155 C154 1.477 . S
C155 H175 0.930 . S
C156 N152 1.362 . S
C156 C153 1.431 . S
C156 C166 1.476 . S
H157 C151 0.929 . S
C158 O149 1.250 . S
C158 O150 1.258 . S
O159 Mn144 2.162 1_655 S
O159 C147 1.281 . S
O160 Mn144 2.297 1_655 S
O160 C147 1.236 . S
N161 Mn145 2.282 . S
N161 C162 1.328 . S
N161 C166 1.318 . S
C162 N161 1.328 . S
C162 C163 1.457 . S
C162 H167 0.929 . S
C163 C162 1.457 . S
C163 C164 1.291 . S
C163 H176 0.931 . S
C164 C163 1.291 . S
C164 C165 1.373 . S
C164 H177 0.929 . S
C165 C164 1.373 . S
C165 C166 1.396 . S
C165 C172 1.403 . S
C166 C156 1.476 . S
C166 N161 1.318 . S
C166 C165 1.396 . S
H167 C162 0.929 . S
O168 Mn144 2.385 1_655 S
O168 C146 1.234 1_655 S
O169 Mn144 2.209 . S
O169 Mn145 2.215 . S
O169 C146 1.283 . S
O170 Mn144 2.094 . S
O170 C148 1.240 . S
O171 Mn145 2.117 . S
O171 C148 1.264 . S
C172 C165 1.403 . S
C172 C173 1.399 . S
C172 H178 0.929 . S
C173 C153 1.449 . S
C173 C172 1.399 . S
C173 H179 0.930 . S
H174 C154 0.931 . S
H175 C155 0.930 . S
H176 C163 0.931 . S
H177 C164 0.929 . S
H178 C172 0.929 . S
H179 C173 0.930 . S
Mn180 O185 2.095 . S
Mn180 O195 2.162 1_545 S
Mn180 O196 2.297 1_545 S
Mn180 O204 2.385 1_545 S
Mn180 O205 2.209 . S
Mn180 O206 2.094 . S
Mn181 O186 2.121 . S
Mn181 N188 2.257 . S
Mn181 N197 2.282 . S
Mn181 O205 2.215 . S
Mn181 O207 2.117 . S
C182 O204 1.234 1_545 S
C182 O205 1.283 . S
C183 O195 1.281 . S
C183 O196 1.236 . S
C184 O206 1.240 . S
C184 O207 1.264 . S
O185 Mn180 2.095 . S
O185 C194 1.250 . S
O186 Mn181 2.121 . S
O186 C194 1.258 . S
C187 N188 1.326 . S
C187 C191 1.460 . S
C187 H193 0.929 . S
N188 Mn181 2.257 . S
N188 C187 1.326 . S
N188 C192 1.362 . S
C189 C190 1.258 . S
C189 C192 1.431 . S
C189 C209 1.449 . S
C190 C189 1.258 . S
C190 C191 1.477 . S
C190 H210 0.931 . S
C191 C187 1.460 . S
C191 C190 1.477 . S
C191 H211 0.930 . S
C192 N188 1.362 . S
C192 C189 1.431 . S
C192 C202 1.476 . S
H193 C187 0.929 . S
C194 O185 1.250 . S
C194 O186 1.258 . S
O195 Mn180 2.162 1_565 S
O195 C183 1.281 . S
O196 Mn180 2.297 1_565 S
O196 C183 1.236 . S
N197 Mn181 2.282 . S
N197 C198 1.328 . S
N197 C202 1.318 . S
C198 N197 1.328 . S
C198 C199 1.457 . S
C198 H203 0.929 . S
C199 C198 1.457 . S
C199 C200 1.291 . S
C199 H212 0.931 . S
C200 C199 1.291 . S
C200 C201 1.373 . S
C200 H213 0.929 . S
C201 C200 1.373 . S
C201 C202 1.396 . S
C201 C208 1.403 . S
C202 C192 1.476 . S
C202 N197 1.318 . S
C202 C201 1.396 . S
H203 C198 0.929 . S
O204 Mn180 2.385 1_565 S
O204 C182 1.234 1_565 S
O205 Mn180 2.209 . S
O205 Mn181 2.215 . S
O205 C182 1.283 . S
O206 Mn180 2.094 . S
O206 C184 1.240 . S
O207 Mn181 2.117 . S
O207 C184 1.264 . S
C208 C201 1.403 . S
C208 C209 1.399 . S
C208 H214 0.929 . S
C209 C189 1.449 . S
C209 C208 1.399 . S
C209 H215 0.930 . S
H210 C190 0.931 . S
H211 C191 0.930 . S
H212 C199 0.931 . S
H213 C200 0.929 . S
H214 C208 0.929 . S
H215 C209 0.930 . S
Mn216 O221 2.095 . S
Mn216 O231 2.162 1_655 S
Mn216 O232 2.297 1_655 S
Mn216 O240 2.385 1_655 S
Mn216 O241 2.209 . S
Mn216 O242 2.094 . S
Mn217 O222 2.121 . S
Mn217 N224 2.257 . S
Mn217 N233 2.282 . S
Mn217 O241 2.215 . S
Mn217 O243 2.117 . S
C218 O240 1.234 1_655 S
C218 O241 1.283 . S
C219 O231 1.281 . S
C219 O232 1.236 . S
C220 O242 1.240 . S
C220 O243 1.264 . S
O221 Mn216 2.095 . S
O221 C230 1.250 . S
O222 Mn217 2.121 . S
O222 C230 1.258 . S
C223 N224 1.326 . S
C223 C227 1.460 . S
C223 H229 0.929 . S
N224 Mn217 2.257 . S
N224 C223 1.326 . S
N224 C228 1.362 . S
C225 C226 1.258 . S
C225 C228 1.431 . S
C225 C245 1.449 . S
C226 C225 1.258 . S
C226 C227 1.477 . S
C226 H246 0.931 . S
C227 C223 1.460 . S
C227 C226 1.477 . S
C227 H247 0.930 . S
C228 N224 1.362 . S
C228 C225 1.431 . S
C228 C238 1.476 . S
H229 C223 0.929 . S
C230 O221 1.250 . S
C230 O222 1.258 . S
O231 Mn216 2.162 1_455 S
O231 C219 1.281 . S
O232 Mn216 2.297 1_455 S
O232 C219 1.236 . S
N233 Mn217 2.282 . S
N233 C234 1.328 . S
N233 C238 1.318 . S
C234 N233 1.328 . S
C234 C235 1.457 . S
C234 H239 0.929 . S
C235 C234 1.457 . S
C235 C236 1.291 . S
C235 H248 0.931 . S
C236 C235 1.291 . S
C236 C237 1.373 . S
C236 H249 0.929 . S
C237 C236 1.373 . S
C237 C238 1.396 . S
C237 C244 1.403 . S
C238 C228 1.476 . S
C238 N233 1.318 . S
C238 C237 1.396 . S
H239 C234 0.929 . S
O240 Mn216 2.385 1_455 S
O240 C218 1.234 1_455 S
O241 Mn216 2.209 . S
O241 Mn217 2.215 . S
O241 C218 1.283 . S
O242 Mn216 2.094 . S
O242 C220 1.240 . S
O243 Mn217 2.117 . S
O243 C220 1.264 . S
C244 C237 1.403 . S
C244 C245 1.399 . S
C244 H250 0.929 . S
C245 C225 1.449 . S
C245 C244 1.399 . S
C245 H251 0.930 . S
H246 C226 0.931 . S
H247 C227 0.930 . S
H248 C235 0.931 . S
H249 C236 0.929 . S
H250 C244 0.929 . S
H251 C245 0.930 . S
Mn252 O257 2.095 . S
Mn252 O267 2.162 1_565 S
Mn252 O268 2.297 1_565 S
Mn252 O276 2.385 1_565 S
Mn252 O277 2.209 . S
Mn252 O278 2.094 . S
Mn253 O258 2.121 . S
Mn253 N260 2.257 . S
Mn253 N269 2.282 . S
Mn253 O277 2.215 . S
Mn253 O279 2.117 . S
C254 O276 1.234 1_565 S
C254 O277 1.283 . S
C255 O267 1.281 . S
C255 O268 1.236 . S
C256 O278 1.240 . S
C256 O279 1.264 . S
O257 Mn252 2.095 . S
O257 C266 1.250 . S
O258 Mn253 2.121 . S
O258 C266 1.258 . S
C259 N260 1.326 . S
C259 C263 1.460 . S
C259 H265 0.929 . S
N260 Mn253 2.257 . S
N260 C259 1.326 . S
N260 C264 1.362 . S
C261 C262 1.258 . S
C261 C264 1.431 . S
C261 C281 1.449 . S
C262 C261 1.258 . S
C262 C263 1.477 . S
C262 H282 0.931 . S
C263 C259 1.460 . S
C263 C262 1.477 . S
C263 H283 0.930 . S
C264 N260 1.362 . S
C264 C261 1.431 . S
C264 C274 1.476 . S
H265 C259 0.929 . S
C266 O257 1.250 . S
C266 O258 1.258 . S
O267 Mn252 2.162 1_545 S
O267 C255 1.281 . S
O268 Mn252 2.297 1_545 S
O268 C255 1.236 . S
N269 Mn253 2.282 . S
N269 C270 1.328 . S
N269 C274 1.318 . S
C270 N269 1.328 . S
C270 C271 1.457 . S
C270 H275 0.929 . S
C271 C270 1.457 . S
C271 C272 1.291 . S
C271 H284 0.931 . S
C272 C271 1.291 . S
C272 C273 1.373 . S
C272 H285 0.929 . S
C273 C272 1.373 . S
C273 C274 1.396 . S
C273 C280 1.403 . S
C274 C264 1.476 . S
C274 N269 1.318 . S
C274 C273 1.396 . S
H275 C270 0.929 . S
O276 Mn252 2.385 1_545 S
O276 C254 1.234 1_545 S
O277 Mn252 2.209 . S
O277 Mn253 2.215 . S
O277 C254 1.283 . S
O278 Mn252 2.094 . S
O278 C256 1.240 . S
O279 Mn253 2.117 . S
O279 C256 1.264 . S
C280 C273 1.403 . S
C280 C281 1.399 . S
C280 H286 0.929 . S
C281 C261 1.449 . S
C281 C280 1.399 . S
C281 H287 0.930 . S
H282 C262 0.931 . S
H283 C263 0.930 . S
H284 C271 0.931 . S
H285 C272 0.929 . S
H286 C280 0.929 . S
H287 C281 0.930 . S
Mn288 O293 2.095 . S
Mn288 O303 2.162 . S
Mn288 O304 2.297 . S
Mn288 O312 2.385 . S
Mn288 O313 2.209 . S
Mn288 O314 2.094 . S
Mn289 O294 2.121 . S
Mn289 N296 2.257 . S
Mn289 N305 2.282 . S
Mn289 O313 2.215 . S
Mn289 O315 2.117 . S
C290 O312 1.234 . S
C290 O313 1.283 . S
C291 O303 1.281 . S
C291 O304 1.236 . S
C292 O314 1.240 . S
C292 O315 1.264 . S
O293 Mn288 2.095 . S
O293 C302 1.250 . S
O294 Mn289 2.121 . S
O294 C302 1.258 . S
C295 N296 1.326 . S
C295 C299 1.460 . S
C295 H301 0.929 . S
N296 Mn289 2.257 . S
N296 C295 1.326 . S
N296 C300 1.362 . S
C297 C298 1.258 . S
C297 C300 1.431 . S
C297 C317 1.449 1_556 S
C298 C297 1.258 . S
C298 C299 1.477 . S
C298 H318 0.931 1_556 S
C299 C295 1.460 . S
C299 C298 1.477 . S
C299 H319 0.930 . S
C300 N296 1.362 . S
C300 C297 1.431 . S
C300 C310 1.476 . S
H301 C295 0.929 . S
C302 O293 1.250 . S
C302 O294 1.258 . S
O303 Mn288 2.162 . S
O303 C291 1.281 . S
O304 Mn288 2.297 . S
O304 C291 1.236 . S
N305 Mn289 2.282 . S
N305 C306 1.328 . S
N305 C310 1.318 . S
C306 N305 1.328 . S
C306 C307 1.457 . S
C306 H311 0.929 . S
C307 C306 1.457 . S
C307 C308 1.291 . S
C307 H320 0.931 . S
C308 C307 1.291 . S
C308 C309 1.373 . S
C308 H321 0.929 . S
C309 C308 1.373 . S
C309 C310 1.396 . S
C309 C316 1.403 1_556 S
C310 C300 1.476 . S
C310 N305 1.318 . S
C310 C309 1.396 . S
H311 C306 0.929 . S
O312 Mn288 2.385 . S
O312 C290 1.234 . S
O313 Mn288 2.209 . S
O313 Mn289 2.215 . S
O313 C290 1.283 . S
O314 Mn288 2.094 . S
O314 C292 1.240 . S
O315 Mn289 2.117 . S
O315 C292 1.264 . S
C316 C309 1.403 1_554 S
C316 C317 1.399 . S
C316 H322 0.929 . S
C317 C297 1.449 1_554 S
C317 C316 1.399 . S
C317 H323 0.930 . S
H318 C298 0.931 1_554 S
H319 C299 0.930 . S
H320 C307 0.931 . S
H321 C308 0.929 . S
H322 C316 0.929 . S
H323 C317 0.930 . S
Mn324 O329 2.095 . S
Mn324 O339 2.162 . S
Mn324 O340 2.297 . S
Mn324 O348 2.385 . S
Mn324 O349 2.209 . S
Mn324 O350 2.094 . S
Mn325 O330 2.121 . S
Mn325 N332 2.257 . S
Mn325 N341 2.282 . S
Mn325 O349 2.215 . S
Mn325 O351 2.117 . S
C326 O348 1.234 . S
C326 O349 1.283 . S
C327 O339 1.281 . S
C327 O340 1.236 . S
C328 O350 1.240 . S
C328 O351 1.264 . S
O329 Mn324 2.095 . S
O329 C338 1.250 . S
O330 Mn325 2.121 . S
O330 C338 1.258 . S
C331 N332 1.326 . S
C331 C335 1.460 . S
C331 H337 0.929 . S
N332 Mn325 2.257 . S
N332 C331 1.326 . S
N332 C336 1.362 . S
C333 C334 1.258 . S
C333 C336 1.431 . S
C333 C353 1.449 1_556 S
C334 C333 1.258 . S
C334 C335 1.477 . S
C334 H354 0.931 1_556 S
C335 C331 1.460 . S
C335 C334 1.477 . S
C335 H355 0.930 . S
C336 N332 1.362 . S
C336 C333 1.431 . S
C336 C346 1.476 . S
H337 C331 0.929 . S
C338 O329 1.250 . S
C338 O330 1.258 . S
O339 Mn324 2.162 . S
O339 C327 1.281 . S
O340 Mn324 2.297 . S
O340 C327 1.236 . S
N341 Mn325 2.282 . S
N341 C342 1.328 . S
N341 C346 1.318 . S
C342 N341 1.328 . S
C342 C343 1.457 . S
C342 H347 0.929 . S
C343 C342 1.457 . S
C343 C344 1.291 . S
C343 H356 0.931 . S
C344 C343 1.291 . S
C344 C345 1.373 . S
C344 H357 0.929 . S
C345 C344 1.373 . S
C345 C346 1.396 . S
C345 C352 1.403 1_556 S
C346 C336 1.476 . S
C346 N341 1.318 . S
C346 C345 1.396 . S
H347 C342 0.929 . S
O348 Mn324 2.385 . S
O348 C326 1.234 . S
O349 Mn324 2.209 . S
O349 Mn325 2.215 . S
O349 C326 1.283 . S
O350 Mn324 2.094 . S
O350 C328 1.240 . S
O351 Mn325 2.117 . S
O351 C328 1.264 . S
C352 C345 1.403 1_554 S
C352 C353 1.399 . S
C352 H358 0.929 . S
C353 C333 1.449 1_554 S
C353 C352 1.399 . S
C353 H359 0.930 . S
H354 C334 0.931 1_554 S
H355 C335 0.930 . S
H356 C343 0.931 . S
H357 C344 0.929 . S
H358 C352 0.929 . S
H359 C353 0.930 . S
Mn360 O365 2.095 . S
Mn360 O375 2.162 . S
Mn360 O376 2.297 . S
Mn360 O384 2.385 . S
Mn360 O385 2.209 . S
Mn360 O386 2.094 . S
Mn361 O366 2.121 . S
Mn361 N368 2.257 . S
Mn361 N377 2.282 . S
Mn361 O385 2.215 . S
Mn361 O387 2.117 . S
C362 O384 1.234 . S
C362 O385 1.283 . S
C363 O375 1.281 . S
C363 O376 1.236 . S
C364 O386 1.240 . S
C364 O387 1.264 . S
O365 Mn360 2.095 . S
O365 C374 1.250 . S
O366 Mn361 2.121 . S
O366 C374 1.258 . S
C367 N368 1.326 . S
C367 C371 1.460 . S
C367 H373 0.929 . S
N368 Mn361 2.257 . S
N368 C367 1.326 . S
N368 C372 1.362 . S
C369 C370 1.258 . S
C369 C372 1.431 . S
C369 C389 1.449 1_556 S
C370 C369 1.258 . S
C370 C371 1.477 . S
C370 H390 0.931 1_556 S
C371 C367 1.460 . S
C371 C370 1.477 . S
C371 H391 0.930 . S
C372 N368 1.362 . S
C372 C369 1.431 . S
C372 C382 1.476 . S
H373 C367 0.929 . S
C374 O365 1.250 . S
C374 O366 1.258 . S
O375 Mn360 2.162 . S
O375 C363 1.281 . S
O376 Mn360 2.297 . S
O376 C363 1.236 . S
N377 Mn361 2.282 . S
N377 C378 1.328 . S
N377 C382 1.318 . S
C378 N377 1.328 . S
C378 C379 1.457 . S
C378 H383 0.929 . S
C379 C378 1.457 . S
C379 C380 1.291 . S
C379 H392 0.931 . S
C380 C379 1.291 . S
C380 C381 1.373 . S
C380 H393 0.929 . S
C381 C380 1.373 . S
C381 C382 1.396 . S
C381 C388 1.403 1_556 S
C382 C372 1.476 . S
C382 N377 1.318 . S
C382 C381 1.396 . S
H383 C378 0.929 . S
O384 Mn360 2.385 . S
O384 C362 1.234 . S
O385 Mn360 2.209 . S
O385 Mn361 2.215 . S
O385 C362 1.283 . S
O386 Mn360 2.094 . S
O386 C364 1.240 . S
O387 Mn361 2.117 . S
O387 C364 1.264 . S
C388 C381 1.403 1_554 S
C388 C389 1.399 . S
C388 H394 0.929 . S
C389 C369 1.449 1_554 S
C389 C388 1.399 . S
C389 H395 0.930 . S
H390 C370 0.931 1_554 S
H391 C371 0.930 . S
H392 C379 0.931 . S
H393 C380 0.929 . S
H394 C388 0.929 . S
H395 C389 0.930 . S
Mn396 O401 2.095 . S
Mn396 O411 2.162 . S
Mn396 O412 2.297 . S
Mn396 O420 2.385 . S
Mn396 O421 2.209 . S
Mn396 O422 2.094 . S
Mn397 O402 2.121 . S
Mn397 N404 2.257 . S
Mn397 N413 2.282 . S
Mn397 O421 2.215 . S
Mn397 O423 2.117 . S
C398 O420 1.234 . S
C398 O421 1.283 . S
C399 O411 1.281 . S
C399 O412 1.236 . S
C400 O422 1.240 . S
C400 O423 1.264 . S
O401 Mn396 2.095 . S
O401 C410 1.250 . S
O402 Mn397 2.121 . S
O402 C410 1.258 . S
C403 N404 1.326 . S
C403 C407 1.460 . S
C403 H409 0.929 . S
N404 Mn397 2.257 . S
N404 C403 1.326 . S
N404 C408 1.362 . S
C405 C406 1.258 . S
C405 C408 1.431 . S
C405 C425 1.449 1_556 S
C406 C405 1.258 . S
C406 C407 1.477 . S
C406 H426 0.931 1_556 S
C407 C403 1.460 . S
C407 C406 1.477 . S
C407 H427 0.930 . S
C408 N404 1.362 . S
C408 C405 1.431 . S
C408 C418 1.476 . S
H409 C403 0.929 . S
C410 O401 1.250 . S
C410 O402 1.258 . S
O411 Mn396 2.162 . S
O411 C399 1.281 . S
O412 Mn396 2.297 . S
O412 C399 1.236 . S
N413 Mn397 2.282 . S
N413 C414 1.328 . S
N413 C418 1.318 . S
C414 N413 1.328 . S
C414 C415 1.457 . S
C414 H419 0.929 . S
C415 C414 1.457 . S
C415 C416 1.291 . S
C415 H428 0.931 . S
C416 C415 1.291 . S
C416 C417 1.373 . S
C416 H429 0.929 . S
C417 C416 1.373 . S
C417 C418 1.396 . S
C417 C424 1.403 1_556 S
C418 C408 1.476 . S
C418 N413 1.318 . S
C418 C417 1.396 . S
H419 C414 0.929 . S
O420 Mn396 2.385 . S
O420 C398 1.234 . S
O421 Mn396 2.209 . S
O421 Mn397 2.215 . S
O421 C398 1.283 . S
O422 Mn396 2.094 . S
O422 C400 1.240 . S
O423 Mn397 2.117 . S
O423 C400 1.264 . S
C424 C417 1.403 1_554 S
C424 C425 1.399 . S
C424 H430 0.929 . S
C425 C405 1.449 1_554 S
C425 C424 1.399 . S
C425 H431 0.930 . S
H426 C406 0.931 1_554 S
H427 C407 0.930 . S
H428 C415 0.931 . S
H429 C416 0.929 . S
H430 C424 0.929 . S
H431 C425 0.930 . S
Mn432 O437 2.095 . S
Mn432 O447 2.162 . S
Mn432 O448 2.297 . S
Mn432 O456 2.385 . S
Mn432 O457 2.209 . S
Mn432 O458 2.094 . S
Mn433 O438 2.121 . S
Mn433 N440 2.257 . S
Mn433 N449 2.282 . S
Mn433 O457 2.215 . S
Mn433 O459 2.117 . S
C434 O456 1.234 . S
C434 O457 1.283 . S
C435 O447 1.281 . S
C435 O448 1.236 . S
C436 O458 1.240 . S
C436 O459 1.264 . S
O437 Mn432 2.095 . S
O437 C446 1.250 . S
O438 Mn433 2.121 . S
O438 C446 1.258 . S
C439 N440 1.326 . S
C439 C443 1.460 . S
C439 H445 0.929 . S
N440 Mn433 2.257 . S
N440 C439 1.326 . S
N440 C444 1.362 . S
C441 C442 1.258 . S
C441 C444 1.431 . S
C441 C461 1.449 1_554 S
C442 C441 1.258 . S
C442 C443 1.477 . S
C442 H462 0.931 1_554 S
C443 C439 1.460 . S
C443 C442 1.477 . S
C443 H463 0.930 . S
C444 N440 1.362 . S
C444 C441 1.431 . S
C444 C454 1.476 . S
H445 C439 0.929 . S
C446 O437 1.250 . S
C446 O438 1.258 . S
O447 Mn432 2.162 . S
O447 C435 1.281 . S
O448 Mn432 2.297 . S
O448 C435 1.236 . S
N449 Mn433 2.282 . S
N449 C450 1.328 . S
N449 C454 1.318 . S
C450 N449 1.328 . S
C450 C451 1.457 . S
C450 H455 0.929 . S
C451 C450 1.457 . S
C451 C452 1.291 . S
C451 H464 0.931 . S
C452 C451 1.291 . S
C452 C453 1.373 . S
C452 H465 0.929 . S
C453 C452 1.373 . S
C453 C454 1.396 . S
C453 C460 1.403 1_554 S
C454 C444 1.476 . S
C454 N449 1.318 . S
C454 C453 1.396 . S
H455 C450 0.929 . S
O456 Mn432 2.385 . S
O456 C434 1.234 . S
O457 Mn432 2.209 . S
O457 Mn433 2.215 . S
O457 C434 1.283 . S
O458 Mn432 2.094 . S
O458 C436 1.240 . S
O459 Mn433 2.117 . S
O459 C436 1.264 . S
C460 C453 1.403 1_556 S
C460 C461 1.399 . S
C460 H466 0.929 . S
C461 C441 1.449 1_556 S
C461 C460 1.399 . S
C461 H467 0.930 . S
H462 C442 0.931 1_556 S
H463 C443 0.930 . S
H464 C451 0.931 . S
H465 C452 0.929 . S
H466 C460 0.929 . S
H467 C461 0.930 . S
Mn468 O473 2.095 . S
Mn468 O483 2.162 . S
Mn468 O484 2.297 . S
Mn468 O492 2.385 . S
Mn468 O493 2.209 . S
Mn468 O494 2.094 . S
Mn469 O474 2.121 . S
Mn469 N476 2.257 . S
Mn469 N485 2.282 . S
Mn469 O493 2.215 . S
Mn469 O495 2.117 . S
C470 O492 1.234 . S
C470 O493 1.283 . S
C471 O483 1.281 . S
C471 O484 1.236 . S
C472 O494 1.240 . S
C472 O495 1.264 . S
O473 Mn468 2.095 . S
O473 C482 1.250 . S
O474 Mn469 2.121 . S
O474 C482 1.258 . S
C475 N476 1.326 . S
C475 C479 1.460 . S
C475 H481 0.929 . S
N476 Mn469 2.257 . S
N476 C475 1.326 . S
N476 C480 1.362 . S
C477 C478 1.258 . S
C477 C480 1.431 . S
C477 C497 1.449 1_554 S
C478 C477 1.258 . S
C478 C479 1.477 . S
C478 H498 0.931 1_554 S
C479 C475 1.460 . S
C479 C478 1.477 . S
C479 H499 0.930 . S
C480 N476 1.362 . S
C480 C477 1.431 . S
C480 C490 1.476 . S
H481 C475 0.929 . S
C482 O473 1.250 . S
C482 O474 1.258 . S
O483 Mn468 2.162 . S
O483 C471 1.281 . S
O484 Mn468 2.297 . S
O484 C471 1.236 . S
N485 Mn469 2.282 . S
N485 C486 1.328 . S
N485 C490 1.318 . S
C486 N485 1.328 . S
C486 C487 1.457 . S
C486 H491 0.929 . S
C487 C486 1.457 . S
C487 C488 1.291 . S
C487 H500 0.931 . S
C488 C487 1.291 . S
C488 C489 1.373 . S
C488 H501 0.929 . S
C489 C488 1.373 . S
C489 C490 1.396 . S
C489 C496 1.403 1_554 S
C490 C480 1.476 . S
C490 N485 1.318 . S
C490 C489 1.396 . S
H491 C486 0.929 . S
O492 Mn468 2.385 . S
O492 C470 1.234 . S
O493 Mn468 2.209 . S
O493 Mn469 2.215 . S
O493 C470 1.283 . S
O494 Mn468 2.094 . S
O494 C472 1.240 . S
O495 Mn469 2.117 . S
O495 C472 1.264 . S
C496 C489 1.403 1_556 S
C496 C497 1.399 . S
C496 H502 0.929 . S
C497 C477 1.449 1_556 S
C497 C496 1.399 . S
C497 H503 0.930 . S
H498 C478 0.931 1_556 S
H499 C479 0.930 . S
H500 C487 0.931 . S
H501 C488 0.929 . S
H502 C496 0.929 . S
H503 C497 0.930 . S
Mn504 O509 2.095 . S
Mn504 O519 2.162 . S
Mn504 O520 2.297 . S
Mn504 O528 2.385 . S
Mn504 O529 2.209 . S
Mn504 O530 2.094 . S
Mn505 O510 2.121 . S
Mn505 N512 2.257 . S
Mn505 N521 2.282 . S
Mn505 O529 2.215 . S
Mn505 O531 2.117 . S
C506 O528 1.234 . S
C506 O529 1.283 . S
C507 O519 1.281 . S
C507 O520 1.236 . S
C508 O530 1.240 . S
C508 O531 1.264 . S
O509 Mn504 2.095 . S
O509 C518 1.250 . S
O510 Mn505 2.121 . S
O510 C518 1.258 . S
C511 N512 1.326 . S
C511 C515 1.460 . S
C511 H517 0.929 . S
N512 Mn505 2.257 . S
N512 C511 1.326 . S
N512 C516 1.362 . S
C513 C514 1.258 . S
C513 C516 1.431 . S
C513 C533 1.449 1_554 S
C514 C513 1.258 . S
C514 C515 1.477 . S
C514 H534 0.931 1_554 S
C515 C511 1.460 . S
C515 C514 1.477 . S
C515 H535 0.930 . S
C516 N512 1.362 . S
C516 C513 1.431 . S
C516 C526 1.476 . S
H517 C511 0.929 . S
C518 O509 1.250 . S
C518 O510 1.258 . S
O519 Mn504 2.162 . S
O519 C507 1.281 . S
O520 Mn504 2.297 . S
O520 C507 1.236 . S
N521 Mn505 2.282 . S
N521 C522 1.328 . S
N521 C526 1.318 . S
C522 N521 1.328 . S
C522 C523 1.457 . S
C522 H527 0.929 . S
C523 C522 1.457 . S
C523 C524 1.291 . S
C523 H536 0.931 . S
C524 C523 1.291 . S
C524 C525 1.373 . S
C524 H537 0.929 . S
C525 C524 1.373 . S
C525 C526 1.396 . S
C525 C532 1.403 1_554 S
C526 C516 1.476 . S
C526 N521 1.318 . S
C526 C525 1.396 . S
H527 C522 0.929 . S
O528 Mn504 2.385 . S
O528 C506 1.234 . S
O529 Mn504 2.209 . S
O529 Mn505 2.215 . S
O529 C506 1.283 . S
O530 Mn504 2.094 . S
O530 C508 1.240 . S
O531 Mn505 2.117 . S
O531 C508 1.264 . S
C532 C525 1.403 1_556 S
C532 C533 1.399 . S
C532 H538 0.929 . S
C533 C513 1.449 1_556 S
C533 C532 1.399 . S
C533 H539 0.930 . S
H534 C514 0.931 1_556 S
H535 C515 0.930 . S
H536 C523 0.931 . S
H537 C524 0.929 . S
H538 C532 0.929 . S
H539 C533 0.930 . S
Mn540 O545 2.095 . S
Mn540 O555 2.162 . S
Mn540 O556 2.297 . S
Mn540 O564 2.385 . S
Mn540 O565 2.209 . S
Mn540 O566 2.094 . S
Mn541 O546 2.121 . S
Mn541 N548 2.257 . S
Mn541 N557 2.282 . S
Mn541 O565 2.215 . S
Mn541 O567 2.117 . S
C542 O564 1.234 . S
C542 O565 1.283 . S
C543 O555 1.281 . S
C543 O556 1.236 . S
C544 O566 1.240 . S
C544 O567 1.264 . S
O545 Mn540 2.095 . S
O545 C554 1.250 . S
O546 Mn541 2.121 . S
O546 C554 1.258 . S
C547 N548 1.326 . S
C547 C551 1.460 . S
C547 H553 0.929 . S
N548 Mn541 2.257 . S
N548 C547 1.326 . S
N548 C552 1.362 . S
C549 C550 1.258 . S
C549 C552 1.431 . S
C549 C569 1.449 1_554 S
C550 C549 1.258 . S
C550 C551 1.477 . S
C550 H570 0.931 1_554 S
C551 C547 1.460 . S
C551 C550 1.477 . S
C551 H571 0.930 . S
C552 N548 1.362 . S
C552 C549 1.431 . S
C552 C562 1.476 . S
H553 C547 0.929 . S
C554 O545 1.250 . S
C554 O546 1.258 . S
O555 Mn540 2.162 . S
O555 C543 1.281 . S
O556 Mn540 2.297 . S
O556 C543 1.236 . S
N557 Mn541 2.282 . S
N557 C558 1.328 . S
N557 C562 1.318 . S
C558 N557 1.328 . S
C558 C559 1.457 . S
C558 H563 0.929 . S
C559 C558 1.457 . S
C559 C560 1.291 . S
C559 H572 0.931 . S
C560 C559 1.291 . S
C560 C561 1.373 . S
C560 H573 0.929 . S
C561 C560 1.373 . S
C561 C562 1.396 . S
C561 C568 1.403 1_554 S
C562 C552 1.476 . S
C562 N557 1.318 . S
C562 C561 1.396 . S
H563 C558 0.929 . S
O564 Mn540 2.385 . S
O564 C542 1.234 . S
O565 Mn540 2.209 . S
O565 Mn541 2.215 . S
O565 C542 1.283 . S
O566 Mn540 2.094 . S
O566 C544 1.240 . S
O567 Mn541 2.117 . S
O567 C544 1.264 . S
C568 C561 1.403 1_556 S
C568 C569 1.399 . S
C568 H574 0.929 . S
C569 C549 1.449 1_556 S
C569 C568 1.399 . S
C569 H575 0.930 . S
H570 C550 0.931 1_556 S
H571 C551 0.930 . S
H572 C559 0.931 . S
H573 C560 0.929 . S
H574 C568 0.929 . S
H575 C569 0.930 . S
H576 C582 0.930 . S
H577 C585 0.930 . S
H578 C586 0.930 . S
H579 C587 0.930 . S
H580 C590 0.930 . S
H581 C591 0.930 . S
C582 H576 0.930 . S
C582 C583 1.355 . S
C582 C584 1.415 . S
C583 C582 1.355 . S
C583 C585 1.419 . S
C584 C582 1.415 . S
C584 C589 1.425 . S
C584 C591 1.409 . S
C585 H577 0.930 . S
C585 C583 1.419 . S
C585 C586 1.362 . S
C586 H578 0.930 . S
C586 C585 1.362 . S
C586 C589 1.409 . S
C587 H579 0.930 . S
C587 C588 1.355 . S
C587 C589 1.415 . S
C588 C587 1.355 . S
C588 C590 1.419 . S
C589 C584 1.425 . S
C589 C586 1.409 . S
C589 C587 1.415 . S
C590 H580 0.930 . S
C590 C588 1.419 . S
C590 C591 1.362 . S
C591 H581 0.930 . S
C591 C584 1.409 . S
C591 C590 1.362 . S
H592 C598 0.930 . S
H593 C601 0.930 . S
H594 C602 0.930 . S
H595 C603 0.930 . S
H596 C606 0.930 . S
H597 C607 0.930 . S
C598 H592 0.930 . S
C598 C599 1.355 . S
C598 C600 1.415 . S
C599 C598 1.355 . S
C599 C601 1.419 . S
C600 C598 1.415 . S
C600 C605 1.425 . S
C600 C607 1.409 . S
C601 H593 0.930 . S
C601 C599 1.419 . S
C601 C602 1.362 . S
C602 H594 0.930 . S
C602 C601 1.362 . S
C602 C605 1.409 . S
C603 H595 0.930 . S
C603 C604 1.355 . S
C603 C605 1.415 . S
C604 C603 1.355 . S
C604 C606 1.419 . S
C605 C600 1.425 . S
C605 C602 1.409 . S
C605 C603 1.415 . S
C606 H596 0.930 . S
C606 C604 1.419 . S
C606 C607 1.362 . S
C607 H597 0.930 . S
C607 C600 1.409 . S
C607 C606 1.362 . S
H608 C614 0.930 . S
H609 C617 0.930 . S
H610 C618 0.930 . S
H611 C619 0.930 . S
H612 C622 0.930 . S
H613 C623 0.930 . S
C614 H608 0.930 . S
C614 C615 1.355 . S
C614 C616 1.415 . S
C615 C614 1.355 . S
C615 C617 1.419 . S
C616 C614 1.415 . S
C616 C621 1.425 . S
C616 C623 1.409 . S
C617 H609 0.930 . S
C617 C615 1.419 . S
C617 C618 1.362 . S
C618 H610 0.930 . S
C618 C617 1.362 . S
C618 C621 1.409 . S
C619 H611 0.930 . S
C619 C620 1.355 . S
C619 C621 1.415 . S
C620 C619 1.355 . S
C620 C622 1.419 . S
C621 C616 1.425 . S
C621 C618 1.409 . S
C621 C619 1.415 . S
C622 H612 0.930 . S
C622 C620 1.419 . S
C622 C623 1.362 . S
C623 H613 0.930 . S
C623 C616 1.409 . S
C623 C622 1.362 . S
H624 C630 0.930 . S
H625 C633 0.930 . S
H626 C634 0.930 . S
H627 C635 0.930 . S
H628 C638 0.930 . S
H629 C639 0.930 . S
C630 H624 0.930 . S
C630 C631 1.355 . S
C630 C632 1.415 . S
C631 C630 1.355 . S
C631 C633 1.419 . S
C632 C630 1.415 . S
C632 C637 1.425 . S
C632 C639 1.409 . S
C633 H625 0.930 . S
C633 C631 1.419 . S
C633 C634 1.362 . S
C634 H626 0.930 . S
C634 C633 1.362 . S
C634 C637 1.409 . S
C635 H627 0.930 . S
C635 C636 1.355 . S
C635 C637 1.415 . S
C636 C635 1.355 . S
C636 C638 1.419 . S
C637 C632 1.425 . S
C637 C634 1.409 . S
C637 C635 1.415 . S
C638 H628 0.930 . S
C638 C636 1.419 . S
C638 C639 1.362 . S
C639 H629 0.930 . S
C639 C632 1.409 . S
C639 C638 1.362 . S
H640 C646 0.930 . S
H641 C649 0.930 . S
H642 C650 0.930 . S
H643 C651 0.930 . S
H644 C654 0.930 . S
H645 C655 0.930 . S
C646 H640 0.930 . S
C646 C647 1.355 . S
C646 C648 1.415 . S
C647 C646 1.355 . S
C647 C649 1.419 . S
C648 C646 1.415 . S
C648 C653 1.425 . S
C648 C655 1.409 . S
C649 H641 0.930 . S
C649 C647 1.419 . S
C649 C650 1.362 . S
C650 H642 0.930 . S
C650 C649 1.362 . S
C650 C653 1.409 . S
C651 H643 0.930 . S
C651 C652 1.355 . S
C651 C653 1.415 . S
C652 C651 1.355 . S
C652 C654 1.419 . S
C653 C648 1.425 . S
C653 C650 1.409 . S
C653 C651 1.415 . S
C654 H644 0.930 . S
C654 C652 1.419 . S
C654 C655 1.362 . S
C655 H645 0.930 . S
C655 C648 1.409 . S
C655 C654 1.362 . S
H656 C662 0.930 . S
H657 C665 0.930 . S
H658 C666 0.930 . S
H659 C667 0.930 . S
H660 C670 0.930 . S
H661 C671 0.930 . S
C662 H656 0.930 . S
C662 C663 1.355 . S
C662 C664 1.415 . S
C663 C662 1.355 . S
C663 C665 1.419 . S
C664 C662 1.415 . S
C664 C669 1.425 . S
C664 C671 1.409 . S
C665 H657 0.930 . S
C665 C663 1.419 . S
C665 C666 1.362 . S
C666 H658 0.930 . S
C666 C665 1.362 . S
C666 C669 1.409 . S
C667 H659 0.930 . S
C667 C668 1.355 . S
C667 C669 1.415 . S
C668 C667 1.355 . S
C668 C670 1.419 . S
C669 C664 1.425 . S
C669 C666 1.409 . S
C669 C667 1.415 . S
C670 H660 0.930 . S
C670 C668 1.419 . S
C670 C671 1.362 . S
C671 H661 0.930 . S
C671 C664 1.409 . S
C671 C670 1.362 . S
H672 C678 0.930 . S
H673 C681 0.930 . S
H674 C682 0.930 . S
H675 C683 0.930 . S
H676 C686 0.930 . S
H677 C687 0.930 . S
C678 H672 0.930 . S
C678 C679 1.355 . S
C678 C680 1.415 . S
C679 C678 1.355 . S
C679 C681 1.419 . S
C680 C678 1.415 . S
C680 C685 1.425 . S
C680 C687 1.409 . S
C681 H673 0.930 . S
C681 C679 1.419 . S
C681 C682 1.362 . S
C682 H674 0.930 . S
C682 C681 1.362 . S
C682 C685 1.409 . S
C683 H675 0.930 . S
C683 C684 1.355 . S
C683 C685 1.415 . S
C684 C683 1.355 . S
C684 C686 1.419 . S
C685 C680 1.425 . S
C685 C682 1.409 . S
C685 C683 1.415 . S
C686 H676 0.930 . S
C686 C684 1.419 . S
C686 C687 1.362 . S
C687 H677 0.930 . S
C687 C680 1.409 . S
C687 C686 1.362 . S
H688 C694 0.930 . S
H689 C697 0.930 . S
H690 C698 0.930 . S
H691 C699 0.930 . S
H692 C702 0.930 . S
H693 C703 0.930 . S
C694 H688 0.930 . S
C694 C695 1.355 . S
C694 C696 1.415 . S
C695 C694 1.355 . S
C695 C697 1.419 . S
C696 C694 1.415 . S
C696 C701 1.425 . S
C696 C703 1.409 . S
C697 H689 0.930 . S
C697 C695 1.419 . S
C697 C698 1.362 . S
C698 H690 0.930 . S
C698 C697 1.362 . S
C698 C701 1.409 . S
C699 H691 0.930 . S
C699 C700 1.355 . S
C699 C701 1.415 . S
C700 C699 1.355 . S
C700 C702 1.419 . S
C701 C696 1.425 . S
C701 C698 1.409 . S
C701 C699 1.415 . S
C702 H692 0.930 . S
C702 C700 1.419 . S
C702 C703 1.362 . S
C703 H693 0.930 . S
C703 C696 1.409 . S
C703 C702 1.362 . S
H704 C710 0.930 . S
H705 C713 0.930 . S
H706 C714 0.930 . S
H707 C715 0.930 . S
H708 C718 0.930 . S
H709 C719 0.930 . S
C710 H704 0.930 . S
C710 C711 1.355 . S
C710 C712 1.415 . S
C711 C710 1.355 . S
C711 C713 1.419 . S
C712 C710 1.415 . S
C712 C717 1.425 . S
C712 C719 1.409 . S
C713 H705 0.930 . S
C713 C711 1.419 . S
C713 C714 1.362 . S
C714 H706 0.930 . S
C714 C713 1.362 . S
C714 C717 1.409 . S
C715 H707 0.930 . S
C715 C716 1.355 . S
C715 C717 1.415 . S
C716 C715 1.355 . S
C716 C718 1.419 . S
C717 C712 1.425 . S
C717 C714 1.409 . S
C717 C715 1.415 . S
C718 H708 0.930 . S
C718 C716 1.419 . S
C718 C719 1.362 . S
C719 H709 0.930 . S
C719 C712 1.409 . S
C719 C718 1.362 . S
H720 C726 0.930 . S
H721 C729 0.930 . S
H722 C730 0.930 . S
H723 C731 0.930 . S
H724 C734 0.930 . S
H725 C735 0.930 . S
C726 H720 0.930 . S
C726 C727 1.355 . S
C726 C728 1.415 . S
C727 C726 1.355 . S
C727 C729 1.419 . S
C728 C726 1.415 . S
C728 C733 1.425 . S
C728 C735 1.409 . S
C729 H721 0.930 . S
C729 C727 1.419 . S
C729 C730 1.362 . S
C730 H722 0.930 . S
C730 C729 1.362 . S
C730 C733 1.409 . S
C731 H723 0.930 . S
C731 C732 1.355 . S
C731 C733 1.415 . S
C732 C731 1.355 . S
C732 C734 1.419 . S
C733 C728 1.425 . S
C733 C730 1.409 . S
C733 C731 1.415 . S
C734 H724 0.930 . S
C734 C732 1.419 . S
C734 C735 1.362 . S
C735 H725 0.930 . S
C735 C728 1.409 . S
C735 C734 1.362 . S
H736 C742 0.930 . S
H737 C745 0.930 . S
H738 C746 0.930 . S
H739 C747 0.930 . S
H740 C750 0.930 . S
H741 C751 0.930 . S
C742 H736 0.930 . S
C742 C743 1.355 . S
C742 C744 1.415 . S
C743 C742 1.355 . S
C743 C745 1.419 . S
C744 C742 1.415 . S
C744 C749 1.425 . S
C744 C751 1.409 . S
C745 H737 0.930 . S
C745 C743 1.419 . S
C745 C746 1.362 . S
C746 H738 0.930 . S
C746 C745 1.362 . S
C746 C749 1.409 . S
C747 H739 0.930 . S
C747 C748 1.355 . S
C747 C749 1.415 . S
C748 C747 1.355 . S
C748 C750 1.419 . S
C749 C744 1.425 . S
C749 C746 1.409 . S
C749 C747 1.415 . S
C750 H740 0.930 . S
C750 C748 1.419 . S
C750 C751 1.362 . S
C751 H741 0.930 . S
C751 C744 1.409 . S
C751 C750 1.362 . S
H752 C758 0.930 . S
H753 C761 0.930 . S
H754 C762 0.930 . S
H755 C763 0.930 . S
H756 C766 0.930 . S
H757 C767 0.930 . S
C758 H752 0.930 . S
C758 C759 1.355 . S
C758 C760 1.415 . S
C759 C758 1.355 . S
C759 C761 1.419 . S
C760 C758 1.415 . S
C760 C765 1.425 . S
C760 C767 1.409 . S
C761 H753 0.930 . S
C761 C759 1.419 . S
C761 C762 1.362 . S
C762 H754 0.930 . S
C762 C761 1.362 . S
C762 C765 1.409 . S
C763 H755 0.930 . S
C763 C764 1.355 . S
C763 C765 1.415 . S
C764 C763 1.355 . S
C764 C766 1.419 . S
C765 C760 1.425 . S
C765 C762 1.409 . S
C765 C763 1.415 . S
C766 H756 0.930 . S
C766 C764 1.419 . S
C766 C767 1.362 . S
C767 H757 0.930 . S
C767 C760 1.409 . S
C767 C766 1.362 . S
H768 C774 0.930 . S
H769 C777 0.930 . S
H770 C778 0.930 . S
H771 C779 0.930 . S
H772 C782 0.930 . S
H773 C783 0.930 . S
C774 H768 0.930 . S
C774 C775 1.355 . S
C774 C776 1.415 . S
C775 C774 1.355 . S
C775 C777 1.419 . S
C776 C774 1.415 . S
C776 C781 1.425 . S
C776 C783 1.409 . S
C777 H769 0.930 . S
C777 C775 1.419 . S
C777 C778 1.362 . S
C778 H770 0.930 . S
C778 C777 1.362 . S
C778 C781 1.409 . S
C779 H771 0.930 . S
C779 C780 1.355 . S
C779 C781 1.415 . S
C780 C779 1.355 . S
C780 C782 1.419 . S
C781 C776 1.425 . S
C781 C778 1.409 . S
C781 C779 1.415 . S
C782 H772 0.930 . S
C782 C780 1.419 . S
C782 C783 1.362 . S
C783 H773 0.930 . S
C783 C776 1.409 . S
C783 C782 1.362 . S
H784 C790 0.930 . S
H785 C793 0.930 . S
H786 C794 0.930 . S
H787 C795 0.930 . S
H788 C798 0.930 . S
H789 C799 0.930 . S
C790 H784 0.930 . S
C790 C791 1.355 . S
C790 C792 1.415 . S
C791 C790 1.355 . S
C791 C793 1.419 . S
C792 C790 1.415 . S
C792 C797 1.425 . S
C792 C799 1.409 . S
C793 H785 0.930 . S
C793 C791 1.419 . S
C793 C794 1.362 . S
C794 H786 0.930 . S
C794 C793 1.362 . S
C794 C797 1.409 . S
C795 H787 0.930 . S
C795 C796 1.355 . S
C795 C797 1.415 . S
C796 C795 1.355 . S
C796 C798 1.419 . S
C797 C792 1.425 . S
C797 C794 1.409 . S
C797 C795 1.415 . S
C798 H788 0.930 . S
C798 C796 1.419 . S
C798 C799 1.362 . S
C799 H789 0.930 . S
C799 C792 1.409 . S
C799 C798 1.362 . S
H800 C806 0.930 . S
H801 C809 0.930 . S
H802 C810 0.930 . S
H803 C811 0.930 . S
H804 C814 0.930 . S
H805 C815 0.930 . S
C806 H800 0.930 . S
C806 C807 1.355 . S
C806 C808 1.415 . S
C807 C806 1.355 . S
C807 C809 1.419 . S
C808 C806 1.415 . S
C808 C813 1.425 . S
C808 C815 1.409 . S
C809 H801 0.930 . S
C809 C807 1.419 . S
C809 C810 1.362 . S
C810 H802 0.930 . S
C810 C809 1.362 . S
C810 C813 1.409 . S
C811 H803 0.930 . S
C811 C812 1.355 . S
C811 C813 1.415 . S
C812 C811 1.355 . S
C812 C814 1.419 . S
C813 C808 1.425 . S
C813 C810 1.409 . S
C813 C811 1.415 . S
C814 H804 0.930 . S
C814 C812 1.419 . S
C814 C815 1.362 . S
C815 H805 0.930 . S
C815 C808 1.409 . S
C815 C814 1.362 . S
H816 C822 0.930 . S
H817 C825 0.930 . S
H818 C826 0.930 . S
H819 C827 0.930 . S
H820 C830 0.930 . S
H821 C831 0.930 . S
C822 H816 0.930 . S
C822 C823 1.355 . S
C822 C824 1.415 . S
C823 C822 1.355 . S
C823 C825 1.419 . S
C824 C822 1.415 . S
C824 C829 1.425 . S
C824 C831 1.409 . S
C825 H817 0.930 . S
C825 C823 1.419 . S
C825 C826 1.362 . S
C826 H818 0.930 . S
C826 C825 1.362 . S
C826 C829 1.409 . S
C827 H819 0.930 . S
C827 C828 1.355 . S
C827 C829 1.415 . S
C828 C827 1.355 . S
C828 C830 1.419 . S
C829 C824 1.425 . S
C829 C826 1.409 . S
C829 C827 1.415 . S
C830 H820 0.930 . S
C830 C828 1.419 . S
C830 C831 1.362 . S
C831 H821 0.930 . S
C831 C824 1.409 . S
C831 C830 1.362 . S
H832 C838 0.930 . S
H833 C841 0.930 . S
H834 C842 0.930 . S
H835 C843 0.930 . S
H836 C846 0.930 . S
H837 C847 0.930 . S
C838 H832 0.930 . S
C838 C839 1.355 . S
C838 C840 1.415 . S
C839 C838 1.355 . S
C839 C841 1.419 . S
C840 C838 1.415 . S
C840 C845 1.425 . S
C840 C847 1.409 . S
C841 H833 0.930 . S
C841 C839 1.419 . S
C841 C842 1.362 . S
C842 H834 0.930 . S
C842 C841 1.362 . S
C842 C845 1.409 . S
C843 H835 0.930 . S
C843 C844 1.355 . S
C843 C845 1.415 . S
C844 C843 1.355 . S
C844 C846 1.419 . S
C845 C840 1.425 . S
C845 C842 1.409 . S
C845 C843 1.415 . S
C846 H836 0.930 . S
C846 C844 1.419 . S
C846 C847 1.362 . S
C847 H837 0.930 . S
C847 C840 1.409 . S
C847 C846 1.362 . S
H848 C854 0.930 . S
H849 C857 0.930 . S
H850 C858 0.930 . S
H851 C859 0.930 . S
H852 C862 0.930 . S
H853 C863 0.930 . S
C854 H848 0.930 . S
C854 C855 1.355 . S
C854 C856 1.415 . S
C855 C854 1.355 . S
C855 C857 1.419 . S
C856 C854 1.415 . S
C856 C861 1.425 . S
C856 C863 1.409 . S
C857 H849 0.930 . S
C857 C855 1.419 . S
C857 C858 1.362 . S
C858 H850 0.930 . S
C858 C857 1.362 . S
C858 C861 1.409 . S
C859 H851 0.930 . S
C859 C860 1.355 . S
C859 C861 1.415 . S
C860 C859 1.355 . S
C860 C862 1.419 . S
C861 C856 1.425 . S
C861 C858 1.409 . S
C861 C859 1.415 . S
C862 H852 0.930 . S
C862 C860 1.419 . S
C862 C863 1.362 . S
C863 H853 0.930 . S
C863 C856 1.409 . S
C863 C862 1.362 . S
H864 C870 0.930 . S
H865 C873 0.930 . S
H866 C874 0.930 . S
H867 C875 0.930 . S
H868 C878 0.930 . S
H869 C879 0.930 . S
C870 H864 0.930 . S
C870 C871 1.355 . S
C870 C872 1.415 . S
C871 C870 1.355 . S
C871 C873 1.419 . S
C872 C870 1.415 . S
C872 C877 1.425 . S
C872 C879 1.409 . S
C873 H865 0.930 . S
C873 C871 1.419 . S
C873 C874 1.362 . S
C874 H866 0.930 . S
C874 C873 1.362 . S
C874 C877 1.409 . S
C875 H867 0.930 . S
C875 C876 1.355 . S
C875 C877 1.415 . S
C876 C875 1.355 . S
C876 C878 1.419 . S
C877 C872 1.425 . S
C877 C874 1.409 . S
C877 C875 1.415 . S
C878 H868 0.930 . S
C878 C876 1.419 . S
C878 C879 1.362 . S
C879 H869 0.930 . S
C879 C872 1.409 . S
C879 C878 1.362 . S
H880 C886 0.930 . S
H881 C889 0.930 . S
H882 C890 0.930 . S
H883 C891 0.930 . S
H884 C894 0.930 . S
H885 C895 0.930 . S
C886 H880 0.930 . S
C886 C887 1.355 . S
C886 C888 1.415 . S
C887 C886 1.355 . S
C887 C889 1.419 . S
C888 C886 1.415 . S
C888 C893 1.425 . S
C888 C895 1.409 . S
C889 H881 0.930 . S
C889 C887 1.419 . S
C889 C890 1.362 . S
C890 H882 0.930 . S
C890 C889 1.362 . S
C890 C893 1.409 . S
C891 H883 0.930 . S
C891 C892 1.355 . S
C891 C893 1.415 . S
C892 C891 1.355 . S
C892 C894 1.419 . S
C893 C888 1.425 . S
C893 C890 1.409 . S
C893 C891 1.415 . S
C894 H884 0.930 . S
C894 C892 1.419 . S
C894 C895 1.362 . S
C895 H885 0.930 . S
C895 C888 1.409 . S
C895 C894 1.362 . S
H896 C902 0.930 . S
H897 C905 0.930 . S
H898 C906 0.930 . S
H899 C907 0.930 . S
H900 C910 0.930 . S
H901 C911 0.930 . S
C902 H896 0.930 . S
C902 C903 1.355 . S
C902 C904 1.415 . S
C903 C902 1.355 . S
C903 C905 1.419 . S
C904 C902 1.415 . S
C904 C909 1.425 . S
C904 C911 1.409 . S
C905 H897 0.930 . S
C905 C903 1.419 . S
C905 C906 1.362 . S
C906 H898 0.930 . S
C906 C905 1.362 . S
C906 C909 1.409 . S
C907 H899 0.930 . S
C907 C908 1.355 . S
C907 C909 1.415 . S
C908 C907 1.355 . S
C908 C910 1.419 . S
C909 C904 1.425 . S
C909 C906 1.409 . S
C909 C907 1.415 . S
C910 H900 0.930 . S
C910 C908 1.419 . S
C910 C911 1.362 . S
C911 H901 0.930 . S
C911 C904 1.409 . S
C911 C910 1.362 . S
H912 C918 0.930 . S
H913 C921 0.930 . S
H914 C922 0.930 . S
H915 C923 0.930 . S
H916 C926 0.930 . S
H917 C927 0.930 . S
C918 H912 0.930 . S
C918 C919 1.355 . S
C918 C920 1.415 . S
C919 C918 1.355 . S
C919 C921 1.419 . S
C920 C918 1.415 . S
C920 C925 1.425 . S
C920 C927 1.409 . S
C921 H913 0.930 . S
C921 C919 1.419 . S
C921 C922 1.362 . S
C922 H914 0.930 . S
C922 C921 1.362 . S
C922 C925 1.409 . S
C923 H915 0.930 . S
C923 C924 1.355 . S
C923 C925 1.415 . S
C924 C923 1.355 . S
C924 C926 1.419 . S
C925 C920 1.425 . S
C925 C922 1.409 . S
C925 C923 1.415 . S
C926 H916 0.930 . S
C926 C924 1.419 . S
C926 C927 1.362 . S
C927 H917 0.930 . S
C927 C920 1.409 . S
C927 C926 1.362 . S
H928 C934 0.930 . S
H929 C937 0.930 . S
H930 C938 0.930 . S
H931 C939 0.930 . S
H932 C942 0.930 . S
H933 C943 0.930 . S
C934 H928 0.930 . S
C934 C935 1.355 . S
C934 C936 1.415 . S
C935 C934 1.355 . S
C935 C937 1.419 . S
C936 C934 1.415 . S
C936 C941 1.425 . S
C936 C943 1.409 . S
C937 H929 0.930 . S
C937 C935 1.419 . S
C937 C938 1.362 . S
C938 H930 0.930 . S
C938 C937 1.362 . S
C938 C941 1.409 . S
C939 H931 0.930 . S
C939 C940 1.355 . S
C939 C941 1.415 . S
C940 C939 1.355 . S
C940 C942 1.419 . S
C941 C936 1.425 . S
C941 C938 1.409 . S
C941 C939 1.415 . S
C942 H932 0.930 . S
C942 C940 1.419 . S
C942 C943 1.362 . S
C943 H933 0.930 . S
C943 C936 1.409 . S
C943 C942 1.362 . S
H944 C950 0.930 . S
H945 C953 0.930 . S
H946 C954 0.930 . S
H947 C955 0.930 . S
H948 C958 0.930 . S
H949 C959 0.930 . S
C950 H944 0.930 . S
C950 C951 1.355 . S
C950 C952 1.415 . S
C951 C950 1.355 . S
C951 C953 1.419 . S
C952 C950 1.415 . S
C952 C957 1.425 . S
C952 C959 1.409 . S
C953 H945 0.930 . S
C953 C951 1.419 . S
C953 C954 1.362 . S
C954 H946 0.930 . S
C954 C953 1.362 . S
C954 C957 1.409 . S
C955 H947 0.930 . S
C955 C956 1.355 . S
C955 C957 1.415 . S
C956 C955 1.355 . S
C956 C958 1.419 . S
C957 C952 1.425 . S
C957 C954 1.409 . S
C957 C955 1.415 . S
C958 H948 0.930 . S
C958 C956 1.419 . S
C958 C959 1.362 . S
C959 H949 0.930 . S
C959 C952 1.409 . S
C959 C958 1.362 . S
H960 C966 0.930 . S
H961 C969 0.930 . S
H962 C970 0.930 . S
H963 C971 0.930 . S
H964 C974 0.930 . S
H965 C975 0.930 . S
C966 H960 0.930 . S
C966 C967 1.355 1_655 S
C966 C968 1.415 . S
C967 C966 1.355 1_455 S
C967 C969 1.419 . S
C968 C966 1.415 . S
C968 C973 1.425 1_655 S
C968 C975 1.409 . S
C969 H961 0.930 . S
C969 C967 1.419 . S
C969 C970 1.362 . S
C970 H962 0.930 . S
C970 C969 1.362 . S
C970 C973 1.409 . S
C971 H963 0.930 . S
C971 C972 1.355 1_455 S
C971 C973 1.415 . S
C972 C971 1.355 1_655 S
C972 C974 1.419 . S
C973 C968 1.425 1_455 S
C973 C970 1.409 . S
C973 C971 1.415 . S
C974 H964 0.930 . S
C974 C972 1.419 . S
C974 C975 1.362 . S
C975 H965 0.930 . S
C975 C968 1.409 . S
C975 C974 1.362 . S
H976 C982 0.930 . S
H977 C985 0.930 . S
H978 C986 0.930 . S
H979 C987 0.930 . S
H980 C990 0.930 . S
H981 C991 0.930 . S
C982 H976 0.930 . S
C982 C983 1.355 1_545 S
C982 C984 1.415 . S
C983 C982 1.355 1_565 S
C983 C985 1.419 . S
C984 C982 1.415 . S
C984 C989 1.425 1_545 S
C984 C991 1.409 . S
C985 H977 0.930 . S
C985 C983 1.419 . S
C985 C986 1.362 . S
C986 H978 0.930 . S
C986 C985 1.362 . S
C986 C989 1.409 . S
C987 H979 0.930 . S
C987 C988 1.355 1_565 S
C987 C989 1.415 . S
C988 C987 1.355 1_545 S
C988 C990 1.419 . S
C989 C984 1.425 1_565 S
C989 C986 1.409 . S
C989 C987 1.415 . S
C990 H980 0.930 . S
C990 C988 1.419 . S
C990 C991 1.362 . S
C991 H981 0.930 . S
C991 C984 1.409 . S
C991 C990 1.362 . S
H992 C998 0.930 . S
H993 C1001 0.930 . S
H994 C1002 0.930 . S
H995 C1003 0.930 . S
H996 C1006 0.930 . S
H997 C1007 0.930 . S
C998 H992 0.930 . S
C998 C999 1.355 . S
C998 C1000 1.415 . S
C999 C998 1.355 . S
C999 C1001 1.419 1_455 S
C1000 C998 1.415 . S
C1000 C1005 1.425 1_455 S
C1000 C1007 1.409 . S
C1001 H993 0.930 . S
C1001 C999 1.419 1_655 S
C1001 C1002 1.362 . S
C1002 H994 0.930 . S
C1002 C1001 1.362 . S
C1002 C1005 1.409 . S
C1003 H995 0.930 . S
C1003 C1004 1.355 . S
C1003 C1005 1.415 . S
C1004 C1003 1.355 . S
C1004 C1006 1.419 1_655 S
C1005 C1000 1.425 1_655 S
C1005 C1002 1.409 . S
C1005 C1003 1.415 . S
C1006 H996 0.930 . S
C1006 C1004 1.419 1_455 S
C1006 C1007 1.362 . S
C1007 H997 0.930 . S
C1007 C1000 1.409 . S
C1007 C1006 1.362 . S
H1008 C1014 0.930 . S
H1009 C1017 0.930 . S
H1010 C1018 0.930 . S
H1011 C1019 0.930 . S
H1012 C1022 0.930 . S
H1013 C1023 0.930 . S
C1014 H1008 0.930 . S
C1014 C1015 1.355 1_565 S
C1014 C1016 1.415 . S
C1015 C1014 1.355 1_545 S
C1015 C1017 1.419 . S
C1016 C1014 1.415 . S
C1016 C1021 1.425 1_565 S
C1016 C1023 1.409 . S
C1017 H1009 0.930 . S
C1017 C1015 1.419 . S
C1017 C1018 1.362 . S
C1018 H1010 0.930 . S
C1018 C1017 1.362 . S
C1018 C1021 1.409 . S
C1019 H1011 0.930 . S
C1019 C1020 1.355 1_545 S
C1019 C1021 1.415 . S
C1020 C1019 1.355 1_565 S
C1020 C1022 1.419 . S
C1021 C1016 1.425 1_545 S
C1021 C1018 1.409 . S
C1021 C1019 1.415 . S
C1022 H1012 0.930 . S
C1022 C1020 1.419 . S
C1022 C1023 1.362 . S
C1023 H1013 0.930 . S
C1023 C1016 1.409 . S
C1023 C1022 1.362 . S
H1024 C1030 0.930 . S
H1025 C1033 0.930 . S
H1026 C1034 0.930 . S
H1027 C1035 0.930 . S
H1028 C1038 0.930 . S
H1029 C1039 0.930 . S
C1030 H1024 0.930 . S
C1030 C1031 1.355 . S
C1030 C1032 1.415 . S
C1031 C1030 1.355 . S
C1031 C1033 1.419 . S
C1032 C1030 1.415 . S
C1032 C1037 1.425 1_556 S
C1032 C1039 1.409 1_556 S
C1033 H1025 0.930 . S
C1033 C1031 1.419 . S
C1033 C1034 1.362 . S
C1034 H1026 0.930 . S
C1034 C1033 1.362 . S
C1034 C1037 1.409 1_556 S
C1035 H1027 0.930 . S
C1035 C1036 1.355 . S
C1035 C1037 1.415 . S
C1036 C1035 1.355 . S
C1036 C1038 1.419 . S
C1037 C1032 1.425 1_554 S
C1037 C1034 1.409 1_554 S
C1037 C1035 1.415 . S
C1038 H1028 0.930 . S
C1038 C1036 1.419 . S
C1038 C1039 1.362 . S
C1039 H1029 0.930 . S
C1039 C1032 1.409 1_554 S
C1039 C1038 1.362 . S
H1040 C1046 0.930 . S
H1041 C1049 0.930 . S
H1042 C1050 0.930 . S
H1043 C1051 0.930 . S
H1044 C1054 0.930 . S
H1045 C1055 0.930 . S
C1046 H1040 0.930 . S
C1046 C1047 1.355 . S
C1046 C1048 1.415 . S
C1047 C1046 1.355 . S
C1047 C1049 1.419 . S
C1048 C1046 1.415 . S
C1048 C1053 1.425 1_556 S
C1048 C1055 1.409 1_556 S
C1049 H1041 0.930 . S
C1049 C1047 1.419 . S
C1049 C1050 1.362 . S
C1050 H1042 0.930 . S
C1050 C1049 1.362 . S
C1050 C1053 1.409 1_556 S
C1051 H1043 0.930 . S
C1051 C1052 1.355 . S
C1051 C1053 1.415 . S
C1052 C1051 1.355 . S
C1052 C1054 1.419 . S
C1053 C1048 1.425 1_554 S
C1053 C1050 1.409 1_554 S
C1053 C1051 1.415 . S
C1054 H1044 0.930 . S
C1054 C1052 1.419 . S
C1054 C1055 1.362 . S
C1055 H1045 0.930 . S
C1055 C1048 1.409 1_554 S
C1055 C1054 1.362 . S
H1056 C1062 0.930 . S
H1057 C1065 0.930 . S
H1058 C1066 0.930 . S
H1059 C1067 0.930 . S
H1060 C1070 0.930 . S
H1061 C1071 0.930 . S
C1062 H1056 0.930 . S
C1062 C1063 1.355 . S
C1062 C1064 1.415 . S
C1063 C1062 1.355 . S
C1063 C1065 1.419 . S
C1064 C1062 1.415 . S
C1064 C1069 1.425 1_554 S
C1064 C1071 1.409 1_554 S
C1065 H1057 0.930 . S
C1065 C1063 1.419 . S
C1065 C1066 1.362 . S
C1066 H1058 0.930 . S
C1066 C1065 1.362 . S
C1066 C1069 1.409 1_554 S
C1067 H1059 0.930 . S
C1067 C1068 1.355 . S
C1067 C1069 1.415 . S
C1068 C1067 1.355 . S
C1068 C1070 1.419 . S
C1069 C1064 1.425 1_556 S
C1069 C1066 1.409 1_556 S
C1069 C1067 1.415 . S
C1070 H1060 0.930 . S
C1070 C1068 1.419 . S
C1070 C1071 1.362 . S
C1071 H1061 0.930 . S
C1071 C1064 1.409 1_556 S
C1071 C1070 1.362 . S
H1072 C1078 0.930 . S
H1073 C1081 0.930 . S
H1074 C1082 0.930 . S
H1075 C1083 0.930 . S
H1076 C1086 0.930 . S
H1077 C1087 0.930 . S
C1078 H1072 0.930 . S
C1078 C1079 1.355 . S
C1078 C1080 1.415 . S
C1079 C1078 1.355 . S
C1079 C1081 1.419 . S
C1080 C1078 1.415 . S
C1080 C1085 1.425 1_556 S
C1080 C1087 1.409 1_556 S
C1081 H1073 0.930 . S
C1081 C1079 1.419 . S
C1081 C1082 1.362 . S
C1082 H1074 0.930 . S
C1082 C1081 1.362 . S
C1082 C1085 1.409 1_556 S
C1083 H1075 0.930 . S
C1083 C1084 1.355 . S
C1083 C1085 1.415 . S
C1084 C1083 1.355 . S
C1084 C1086 1.419 . S
C1085 C1080 1.425 1_554 S
C1085 C1082 1.409 1_554 S
C1085 C1083 1.415 . S
C1086 H1076 0.930 . S
C1086 C1084 1.419 . S
C1086 C1087 1.362 . S
C1087 H1077 0.930 . S
C1087 C1080 1.409 1_554 S
C1087 C1086 1.362 . S
C583 C14 1.385 . S
C588 C111 1.449 . S
C599 C3 1.448 . S
C604 C50 1.463 . S
C615 C39 1.484 . S
C620 C86 1.421 . S
C631 C75 1.486 . S
C636 C122 1.429 . S
C647 C158 1.445 . S
C652 C183 1.485 . S
C663 C194 1.459 . S
C668 C219 1.478 . S
C679 C230 1.394 . S
C684 C255 1.431 . S
C695 C266 1.390 . S
C700 C147 1.435 . S
C711 C302 1.465 . S
C716 C399 1.452 . S
C727 C291 1.486 . S
C732 C338 1.431 . S
C743 C327 1.466 . S
C748 C374 1.391 . S
C759 C410 1.466 . S
C764 C363 1.466 . S
C775 C471 1.484 . S
C780 C446 1.419 . S
C791 C507 1.445 . S
C796 C482 1.385 . S
C807 C518 1.464 . S
C812 C543 1.471 . S
C823 C554 1.454 . S
C828 C435 1.481 . S
C839 C4 1.228 . S
C844 C544 1.187 . S
C855 C40 1.224 . S
C860 C436 1.269 . S
C871 C472 1.221 . S
C876 C76 1.267 . S
C887 C112 1.220 . S
C892 C508 1.184 . S
C903 C328 1.191 . S
C908 C148 1.235 . S
C919 C364 1.193 . S
C924 C184 1.182 . S
C935 C220 1.273 . S
C940 C400 1.230 . S
C951 C256 1.284 . S
C956 C292 1.266 . S
C967 C2 1.598 . S
C972 C218 1.603 . S
C983 C254 1.601 . S
C988 C38 1.601 . S
C999 C146 1.599 . S
C1004 C74 1.594 . S
C1015 C182 1.603 . S
C1020 C110 1.598 . S
C1031 C290 1.593 . S
C1036 C506 1.603 . S
C1047 C326 1.600 . S
C1052 C542 1.601 . S
C1063 C434 1.596 . S
C1068 C362 1.604 . S
C1079 C398 1.595 . S
C1084 C470 1.604 . S
