# Generated by pormake.
# Topology umh, (4)-cn, num edge types: 1
# Building blocks:
#     Node 0, Type 0, BuildingBlock: GALJAG_clean_sbu_0, # of connection points: 4
#     Node 1, Type 0, BuildingBlock: GALJAG_clean_sbu_0, # of connection points: 4
#     Node 2, Type 0, BuildingBlock: GALJAG_clean_sbu_0, # of connection points: 4
#     Node 3, Type 0, BuildingBlock: GALJAG_clean_sbu_0, # of connection points: 4
#     Node 4, Type 0, BuildingBlock: GALJAG_clean_sbu_0, # of connection points: 4
#     Node 5, Type 0, BuildingBlock: GALJAG_clean_sbu_0, # of connection points: 4
#     Node 6, Type 0, BuildingBlock: GALJAG_clean_sbu_0, # of connection points: 4
#     Node 7, Type 0, BuildingBlock: GALJAG_clean_sbu_0, # of connection points: 4
#     Node 8, Type 0, BuildingBlock: GALJAG_clean_sbu_0, # of connection points: 4
#     Node 9, Type 0, BuildingBlock: GALJAG_clean_sbu_0, # of connection points: 4
#     Node 10, Type 0, BuildingBlock: GALJAG_clean_sbu_0, # of connection points: 4
#     Node 11, Type 0, BuildingBlock: GALJAG_clean_sbu_0, # of connection points: 4
#     Node 12, Type 0, BuildingBlock: GALJAG_clean_sbu_0, # of connection points: 4
#     Node 13, Type 0, BuildingBlock: GALJAG_clean_sbu_0, # of connection points: 4
#     Node 14, Type 0, BuildingBlock: GALJAG_clean_sbu_0, # of connection points: 4
#     Node 15, Type 0, BuildingBlock: GALJAG_clean_sbu_0, # of connection points: 4
#     Edge 16, Type (0, 0), BuildingBlock: OJICUG_clean_linker_0, # of connection points: 2
#     Edge 17, Type (0, 0), BuildingBlock: OJICUG_clean_linker_0, # of connection points: 2
#     Edge 18, Type (0, 0), BuildingBlock: OJICUG_clean_linker_0, # of connection points: 2
#     Edge 19, Type (0, 0), BuildingBlock: OJICUG_clean_linker_0, # of connection points: 2
#     Edge 20, Type (0, 0), BuildingBlock: OJICUG_clean_linker_0, # of connection points: 2
#     Edge 21, Type (0, 0), BuildingBlock: OJICUG_clean_linker_0, # of connection points: 2
#     Edge 22, Type (0, 0), BuildingBlock: OJICUG_clean_linker_0, # of connection points: 2
#     Edge 23, Type (0, 0), BuildingBlock: OJICUG_clean_linker_0, # of connection points: 2
#     Edge 24, Type (0, 0), BuildingBlock: OJICUG_clean_linker_0, # of connection points: 2
#     Edge 25, Type (0, 0), BuildingBlock: OJICUG_clean_linker_0, # of connection points: 2
#     Edge 26, Type (0, 0), BuildingBlock: OJICUG_clean_linker_0, # of connection points: 2
#     Edge 27, Type (0, 0), BuildingBlock: OJICUG_clean_linker_0, # of connection points: 2
#     Edge 28, Type (0, 0), BuildingBlock: OJICUG_clean_linker_0, # of connection points: 2
#     Edge 29, Type (0, 0), BuildingBlock: OJICUG_clean_linker_0, # of connection points: 2
#     Edge 30, Type (0, 0), BuildingBlock: OJICUG_clean_linker_0, # of connection points: 2
#     Edge 31, Type (0, 0), BuildingBlock: OJICUG_clean_linker_0, # of connection points: 2
#     Edge 32, Type (0, 0), BuildingBlock: OJICUG_clean_linker_0, # of connection points: 2
#     Edge 33, Type (0, 0), BuildingBlock: OJICUG_clean_linker_0, # of connection points: 2
#     Edge 34, Type (0, 0), BuildingBlock: OJICUG_clean_linker_0, # of connection points: 2
#     Edge 35, Type (0, 0), BuildingBlock: OJICUG_clean_linker_0, # of connection points: 2
#     Edge 36, Type (0, 0), BuildingBlock: OJICUG_clean_linker_0, # of connection points: 2
#     Edge 37, Type (0, 0), BuildingBlock: OJICUG_clean_linker_0, # of connection points: 2
#     Edge 38, Type (0, 0), BuildingBlock: OJICUG_clean_linker_0, # of connection points: 2
#     Edge 39, Type (0, 0), BuildingBlock: OJICUG_clean_linker_0, # of connection points: 2
#     Edge 40, Type (0, 0), BuildingBlock: OJICUG_clean_linker_0, # of connection points: 2
#     Edge 41, Type (0, 0), BuildingBlock: OJICUG_clean_linker_0, # of connection points: 2
#     Edge 42, Type (0, 0), BuildingBlock: OJICUG_clean_linker_0, # of connection points: 2
#     Edge 43, Type (0, 0), BuildingBlock: OJICUG_clean_linker_0, # of connection points: 2
#     Edge 44, Type (0, 0), BuildingBlock: OJICUG_clean_linker_0, # of connection points: 2
#     Edge 45, Type (0, 0), BuildingBlock: OJICUG_clean_linker_0, # of connection points: 2
#     Edge 46, Type (0, 0), BuildingBlock: OJICUG_clean_linker_0, # of connection points: 2
#     Edge 47, Type (0, 0), BuildingBlock: OJICUG_clean_linker_0, # of connection points: 2
# Relax obj value: 0.114
# Max RMSD: 0.279
# Mean RMSD: 0.279
data_MOF--net-umh--node1-GALJAG_clean_sbu_0--edge1-OJICUG_clean_linker_0
_symmetry_space_group_name_H-M    P1
_symmetry_Int_Tables_number       1
_symmetry_cell_setting            triclinic
loop_
_symmetry_equiv_pos_as_xyz
'x, y, z'
_cell_length_a     30.215177
_cell_length_b     30.225186
_cell_length_c     38.185875
_cell_angle_alpha  90.002248
_cell_angle_beta   89.945351
_cell_angle_gamma 90.179187
loop_
_atom_site_label
_atom_site_type_symbol
_atom_site_fract_x
_atom_site_fract_y
_atom_site_fract_z
_atom_type_partial_charge
In0 In 0.33527 0.08449 0.15716 0.0
O1 O 0.3226 0.0638 0.10055 0.0
O2 O 0.36824 0.11662 0.11082 0.0
C3 C 0.28965 0.04434 0.20761 0.0
C4 C 0.40847 0.04054 0.17191 0.0
C5 C 0.28674 0.15672 0.16589 0.0
O6 O 0.28083 0.0377 0.17544 0.0
O7 O 0.32191 0.07008 0.21369 0.0
O8 O 0.32751 0.15638 0.17431 0.0
O9 O 0.27187 0.12139 0.15262 0.0
C10 C 0.34914 0.09261 0.08826 0.0
O11 O 0.40657 0.08202 0.17737 0.0
O12 O 0.37437 0.02288 0.15861 0.0
In13 In 0.37534 0.34897 0.65905 0.0
O14 O 0.37381 0.42002 0.68026 0.0
O15 O 0.43494 0.39168 0.662 0.0
C16 C 0.3044 0.29739 0.66706 0.0
C17 C 0.36956 0.36208 0.58987 0.0
C18 C 0.41735 0.3041 0.70887 0.0
O19 O 0.30315 0.33817 0.67535 0.0
O20 O 0.34051 0.28407 0.65426 0.0
O21 O 0.42434 0.29639 0.67658 0.0
O22 O 0.39028 0.33491 0.71542 0.0
C23 C 0.41524 0.42442 0.67543 0.0
O24 O 0.39865 0.33683 0.60306 0.0
O25 O 0.34402 0.38045 0.61168 0.0
In26 In 0.12301 0.37963 0.15719 0.0
O27 O 0.05217 0.37791 0.17865 0.0
O28 O 0.08055 0.43909 0.16022 0.0
C29 C 0.17211 0.30757 0.166 0.0
C30 C 0.10961 0.37345 0.088 0.0
C31 C 0.16865 0.42208 0.20656 0.0
O32 O 0.13127 0.30765 0.17413 0.0
O33 O 0.18686 0.34308 0.15301 0.0
O34 O 0.17685 0.42805 0.17422 0.0
O35 O 0.1371 0.39579 0.21334 0.0
C36 C 0.04786 0.41928 0.17382 0.0
O37 O 0.13543 0.40236 0.10096 0.0
O38 O 0.09093 0.34835 0.11001 0.0
In39 In 0.08837 0.12186 0.6605 0.0
O40 O 0.06229 0.13313 0.60501 0.0
O41 O 0.11945 0.09263 0.61209 0.0
C42 C 0.04344 0.16508 0.70989 0.0
C43 C 0.05598 0.04294 0.67748 0.0
C44 C 0.1583 0.17522 0.66829 0.0
O45 O 0.03679 0.17242 0.67754 0.0
O46 O 0.07153 0.13535 0.7167 0.0
O47 O 0.16033 0.13449 0.67643 0.0
O48 O 0.12179 0.18785 0.65587 0.0
C49 C 0.09216 0.10957 0.59099 0.0
O50 O 0.09693 0.05119 0.68136 0.0
O51 O 0.03279 0.07385 0.66495 0.0
In52 In 0.33205 0.38805 0.37154 0.0
O53 O 0.40371 0.38918 0.35185 0.0
O54 O 0.37174 0.44948 0.36786 0.0
C55 C 0.28509 0.31415 0.36402 0.0
C56 C 0.34489 0.38402 0.44083 0.0
C57 C 0.28608 0.42656 0.32058 0.0
O58 O 0.32587 0.31544 0.3557 0.0
O59 O 0.26939 0.34942 0.37658 0.0
O60 O 0.27726 0.43376 0.35267 0.0
O61 O 0.31848 0.4011 0.31481 0.0
C62 C 0.40594 0.43092 0.3557 0.0
O63 O 0.31812 0.41151 0.42734 0.0
O64 O 0.36466 0.35923 0.41927 0.0
In65 In 0.08042 0.33323 0.87005 0.0
O66 O 0.05751 0.32053 0.92627 0.0
O67 O 0.11053 0.36618 0.91735 0.0
C68 C 0.03897 0.28519 0.82153 0.0
C69 C 0.03925 0.40755 0.85313 0.0
C70 C 0.15446 0.28704 0.86088 0.0
O71 O 0.0338 0.27738 0.85401 0.0
O72 O 0.06384 0.31766 0.81419 0.0
O73 O 0.15249 0.32768 0.85243 0.0
O74 O 0.11979 0.27102 0.87435 0.0
C75 C 0.08566 0.3471 0.93929 0.0
O76 O 0.08085 0.40433 0.84905 0.0
O77 O 0.01993 0.37415 0.86604 0.0
In78 In 0.12644 0.08615 0.37207 0.0
O79 O 0.14012 0.06145 0.42758 0.0
O80 O 0.09434 0.11448 0.42039 0.0
C81 C 0.17237 0.04552 0.32195 0.0
C82 C 0.05123 0.04646 0.35496 0.0
C83 C 0.17397 0.15983 0.36419 0.0
O84 O 0.18072 0.039 0.35417 0.0
O85 O 0.14057 0.07146 0.31564 0.0
O86 O 0.13311 0.15878 0.35627 0.0
O87 O 0.18954 0.12442 0.37653 0.0
C88 C 0.11384 0.08902 0.44154 0.0
O89 O 0.05526 0.08807 0.35139 0.0
O90 O 0.08423 0.02638 0.36755 0.0
In91 In 0.38546 0.13573 0.87139 0.0
O92 O 0.39375 0.06495 0.85094 0.0
O93 O 0.44978 0.10126 0.87088 0.0
C94 C 0.3106 0.17983 0.86197 0.0
C95 C 0.37704 0.12134 0.94019 0.0
C96 C 0.42333 0.1844 0.82164 0.0
O97 O 0.31342 0.13915 0.85354 0.0
O98 O 0.34477 0.19668 0.87565 0.0
O99 O 0.42888 0.19321 0.85395 0.0
O100 O 0.3999 0.15057 0.81506 0.0
C101 C 0.43512 0.06605 0.85714 0.0
O102 O 0.40425 0.14966 0.92813 0.0
O103 O 0.35463 0.10069 0.91744 0.0
In104 In 0.64085 0.88884 0.87128 0.0
O105 O 0.5698 0.89487 0.85091 0.0
O106 O 0.60456 0.95219 0.87021 0.0
C107 C 0.68562 0.81426 0.86209 0.0
C108 C 0.6267 0.88108 0.9402 0.0
C109 C 0.68919 0.92736 0.82158 0.0
O110 O 0.64493 0.81675 0.85367 0.0
O111 O 0.70222 0.84865 0.8756 0.0
O112 O 0.69784 0.93303 0.85389 0.0
O113 O 0.65565 0.90352 0.81498 0.0
C114 C 0.56969 0.93631 0.85676 0.0
O115 O 0.65445 0.90871 0.92792 0.0
O116 O 0.60655 0.85796 0.91763 0.0
In117 In 0.58627 0.6309 0.37372 0.0
O118 O 0.56381 0.64504 0.42965 0.0
O119 O 0.61488 0.59723 0.42116 0.0
C120 C 0.54857 0.67762 0.32288 0.0
C121 C 0.54066 0.55885 0.35771 0.0
C122 C 0.66056 0.67706 0.3659 0.0
O123 O 0.54157 0.68653 0.35498 0.0
O124 O 0.57351 0.64483 0.31704 0.0
O125 O 0.65894 0.63626 0.35768 0.0
O126 O 0.62549 0.69305 0.37861 0.0
C127 C 0.59079 0.61758 0.4429 0.0
O128 O 0.58241 0.55966 0.35338 0.0
O129 O 0.52354 0.59335 0.37063 0.0
In130 In 0.83856 0.58394 0.87166 0.0
O131 O 0.82562 0.56206 0.928 0.0
O132 O 0.87236 0.61403 0.91863 0.0
C133 C 0.78997 0.54304 0.82324 0.0
C134 C 0.91158 0.54061 0.85465 0.0
C135 C 0.79294 0.65821 0.86233 0.0
O136 O 0.7821 0.53802 0.85573 0.0
O137 O 0.82271 0.56754 0.81583 0.0
O138 O 0.83362 0.65599 0.85393 0.0
O139 O 0.77667 0.62372 0.8759 0.0
C140 C 0.85278 0.58983 0.94078 0.0
O141 O 0.90939 0.58219 0.85004 0.0
O142 O 0.87793 0.52246 0.86823 0.0
In143 In 0.88797 0.83682 0.37132 0.0
O144 O 0.91375 0.82368 0.4267 0.0
O145 O 0.8595 0.86806 0.41988 0.0
C146 C 0.92933 0.79148 0.32119 0.0
C147 C 0.92483 0.91345 0.35394 0.0
C148 C 0.81474 0.78837 0.36389 0.0
O149 O 0.93609 0.78338 0.35342 0.0
O150 O 0.90285 0.82282 0.31488 0.0
O151 O 0.81538 0.82913 0.35574 0.0
O152 O 0.85038 0.77323 0.37614 0.0
C153 C 0.88566 0.84924 0.44086 0.0
O154 O 0.88328 0.90807 0.35113 0.0
O155 O 0.94634 0.88094 0.36583 0.0
In156 In 0.62593 0.5882 0.66122 0.0
O157 O 0.63777 0.56386 0.60536 0.0
O158 O 0.59544 0.61956 0.61355 0.0
C159 C 0.66989 0.54562 0.71126 0.0
C160 C 0.54894 0.55101 0.67747 0.0
C161 C 0.67835 0.65864 0.66882 0.0
O162 O 0.67753 0.53831 0.67902 0.0
O163 O 0.63951 0.57324 0.71766 0.0
O164 O 0.63764 0.66024 0.6773 0.0
O165 O 0.69129 0.62235 0.65612 0.0
C166 C 0.6132 0.59337 0.59194 0.0
O167 O 0.55453 0.59241 0.68151 0.0
O168 O 0.58142 0.52991 0.66502 0.0
In169 In 0.88453 0.62834 0.15865 0.0
O170 O 0.88027 0.55739 0.17958 0.0
O171 O 0.94275 0.58418 0.16247 0.0
C172 C 0.81287 0.67822 0.16736 0.0
C173 C 0.87878 0.61489 0.08941 0.0
C174 C 0.92776 0.67355 0.20788 0.0
O175 O 0.81268 0.6375 0.17573 0.0
O176 O 0.84848 0.69255 0.15424 0.0
O177 O 0.93378 0.68153 0.17552 0.0
O178 O 0.90111 0.64235 0.21475 0.0
C179 C 0.9216 0.55189 0.17537 0.0
O180 O 0.90817 0.64008 0.10246 0.0
O181 O 0.85303 0.59697 0.11133 0.0
In182 In 0.8528 0.87537 0.65976 0.0
O183 O 0.84091 0.90039 0.60414 0.0
O184 O 0.8829 0.84435 0.61159 0.0
C185 C 0.80886 0.91968 0.70908 0.0
C186 C 0.93053 0.91061 0.67642 0.0
C187 C 0.80039 0.80487 0.66798 0.0
O188 O 0.80131 0.92603 0.67672 0.0
O189 O 0.83909 0.89214 0.71594 0.0
O190 O 0.84124 0.80324 0.67585 0.0
O191 O 0.78726 0.8412 0.65554 0.0
C192 C 0.86523 0.87099 0.59032 0.0
O193 O 0.92344 0.86961 0.6813 0.0
O194 O 0.89914 0.93235 0.66301 0.0
In195 In 0.58925 0.8404 0.1572 0.0
O196 O 0.56946 0.82701 0.10058 0.0
O197 O 0.62106 0.87402 0.11097 0.0
C198 C 0.55008 0.79452 0.20792 0.0
C199 C 0.54267 0.91202 0.17157 0.0
C200 C 0.66194 0.79274 0.16606 0.0
O201 O 0.54344 0.78541 0.17579 0.0
O202 O 0.57541 0.82717 0.21384 0.0
O203 O 0.66126 0.83357 0.17434 0.0
O204 O 0.62677 0.77747 0.1528 0.0
C205 C 0.59772 0.85418 0.08836 0.0
O206 O 0.58415 0.91158 0.17736 0.0
O207 O 0.52638 0.87738 0.15804 0.0
C208 C 0.39458 0.13785 1.00295 0.0
C209 C 0.37095 0.11314 0.97807 0.0
H210 H 0.40618 0.15065 0.05727 0.0
C211 C 0.3407 0.08081 0.98969 0.0
H212 H 0.41812 0.16294 0.99481 0.0
C213 C 0.33386 0.07367 0.02548 0.0
C214 C 0.35708 0.0988 0.05035 0.0
H215 H 0.32202 0.06115 0.97112 0.0
H216 H 0.31012 0.0488 0.03365 0.0
C217 C 0.38768 0.13078 0.03872 0.0
C218 C 0.32697 0.40453 0.50285 0.0
C219 C 0.35227 0.38 0.47897 0.0
H220 H 0.31263 0.41803 0.55671 0.0
C221 C 0.38432 0.3505 0.49183 0.0
H222 H 0.30208 0.42752 0.49373 0.0
C223 C 0.39051 0.34514 0.52785 0.0
C224 C 0.36464 0.36904 0.55175 0.0
H225 H 0.40447 0.33119 0.47405 0.0
H226 H 0.41513 0.32185 0.53695 0.0
C227 C 0.33302 0.39903 0.5389 0.0
C228 C 0.1207 0.38668 0.98974 0.0
C229 C 0.09029 0.35498 0.97734 0.0
H230 H 0.15051 0.4176 0.03444 0.0
C231 C 0.06539 0.33047 1.00159 0.0
H232 H 0.14031 0.4062 0.97166 0.0
C233 C 0.07138 0.33694 0.03754 0.0
C234 C 0.10225 0.36819 0.04994 0.0
H235 H 0.04171 0.30588 0.99283 0.0
H236 H 0.05205 0.31715 0.05562 0.0
C237 C 0.12654 0.39329 0.02568 0.0
C238 C 0.12778 0.07338 0.5393 0.0
C239 C 0.09606 0.10284 0.55277 0.0
H240 H 0.1581 0.0456 0.49356 0.0
C241 C 0.06925 0.12646 0.52939 0.0
H242 H 0.14887 0.05457 0.55669 0.0
C243 C 0.07474 0.12145 0.49324 0.0
C244 C 0.10693 0.0925 0.47977 0.0
H245 H 0.04454 0.14936 0.53899 0.0
H246 H 0.05397 0.1406 0.47584 0.0
C247 C 0.13307 0.06815 0.50316 0.0
C248 C 0.5795 0.83796 0.02564 0.0
C249 C 0.60403 0.86192 0.05044 0.0
H250 H 0.56748 0.8253 0.97134 0.0
C251 C 0.63549 0.89302 0.03871 0.0
H252 H 0.55504 0.81383 0.03387 0.0
C253 C 0.64262 0.89967 1.00291 0.0
C254 C 0.6185 0.87529 0.97811 0.0
H255 H 0.65489 0.91208 0.05722 0.0
H256 H 0.66729 0.92359 0.99468 0.0
C257 C 0.58669 0.84455 0.98984 0.0
C258 C 0.62955 0.57167 0.52992 0.0
C259 C 0.60621 0.59807 0.55381 0.0
H260 H 0.64295 0.55721 0.47608 0.0
C261 C 0.57668 0.63009 0.54095 0.0
H262 H 0.6525 0.54674 0.53905 0.0
C263 C 0.57105 0.63603 0.50492 0.0
C264 C 0.59501 0.6102 0.48103 0.0
H265 H 0.5581 0.6509 0.55873 0.0
H266 H 0.54842 0.66124 0.49581 0.0
C267 C 0.62408 0.57774 0.49388 0.0
C268 C 0.8928 0.6248 0.9911 0.0
C269 C 0.86067 0.59479 0.9788 0.0
H270 H 0.92398 0.65458 0.03573 0.0
C271 C 0.83563 0.57056 1.00314 0.0
H272 H 0.91273 0.6439 0.97294 0.0
C273 C 0.842 0.57683 0.03905 0.0
C274 C 0.87369 0.6073 0.05137 0.0
H275 H 0.81069 0.5472 0.99447 0.0
H276 H 0.82179 0.558 0.05718 0.0
C277 C 0.89933 0.63092 0.02704 0.0
C278 C 0.85282 0.8878 0.49258 0.0
C279 C 0.88231 0.85612 0.4791 0.0
H280 H 0.82448 0.91758 0.5383 0.0
C281 C 0.90724 0.8305 0.50247 0.0
H282 H 0.83323 0.90817 0.4752 0.0
C283 C 0.902 0.83577 0.53863 0.0
C284 C 0.87197 0.86697 0.5521 0.0
H285 H 0.9302 0.80587 0.49286 0.0
H286 H 0.92123 0.8151 0.55604 0.0
C287 C 0.8478 0.89327 0.52871 0.0
C288 C 0.24734 0.27478 0.17073 0.0
C289 C 0.20111 0.26894 0.17016 0.0
H290 H 0.311 0.24356 0.17053 0.0
C291 C 0.18344 0.22609 0.17125 0.0
H292 H 0.26176 0.30764 0.17022 0.0
C293 C 0.21161 0.18958 0.17089 0.0
C294 C 0.25784 0.19541 0.17013 0.0
H295 H 0.14797 0.22077 0.17087 0.0
H296 H 0.19719 0.15672 0.1705 0.0
C297 C 0.27553 0.23826 0.17107 0.0
C298 C 0.27458 0.22081 0.67236 0.0
C299 C 0.26681 0.26669 0.6712 0.0
H300 H 0.24618 0.15571 0.67303 0.0
C301 C 0.22319 0.28221 0.67187 0.0
H302 H 0.30803 0.20801 0.67219 0.0
C303 C 0.18788 0.25221 0.6718 0.0
C304 C 0.19569 0.20631 0.67178 0.0
H305 H 0.21637 0.31736 0.67102 0.0
H306 H 0.15442 0.26497 0.67116 0.0
C307 C 0.2393 0.19086 0.67299 0.0
C308 C 0.27575 0.23224 0.35944 0.0
C309 C 0.25707 0.27456 0.36029 0.0
H310 H 0.26363 0.16247 0.36031 0.0
C311 C 0.21072 0.279 0.35966 0.0
H312 H 0.31134 0.228 0.35988 0.0
C313 C 0.18342 0.24167 0.35937 0.0
C314 C 0.20209 0.19935 0.3604 0.0
H315 H 0.19552 0.31142 0.35998 0.0
H316 H 0.14784 0.24593 0.35974 0.0
C317 C 0.24844 0.19489 0.35984 0.0
C318 C 0.27413 0.253 0.85569 0.0
C319 C 0.27051 0.20661 0.8572 0.0
H320 H 0.23997 0.31506 0.85496 0.0
C321 C 0.22854 0.18689 0.8567 0.0
H322 H 0.30629 0.26897 0.85571 0.0
C323 C 0.19069 0.21331 0.85682 0.0
C324 C 0.19435 0.25976 0.85673 0.0
H325 H 0.22495 0.15124 0.85782 0.0
H326 H 0.15854 0.19739 0.85776 0.0
C327 C 0.23632 0.27939 0.8551 0.0
C328 C 0.75899 0.77786 0.85657 0.0
C329 C 0.71256 0.77422 0.85767 0.0
H330 H 0.8211 0.7437 0.85647 0.0
C331 C 0.69287 0.73224 0.85712 0.0
H332 H 0.77495 0.81001 0.85665 0.0
C333 C 0.71931 0.69443 0.85757 0.0
C334 C 0.76577 0.6981 0.85788 0.0
H335 H 0.6572 0.72863 0.85794 0.0
H336 H 0.70337 0.66228 0.85844 0.0
C337 C 0.78542 0.74005 0.85631 0.0
C338 C 0.74253 0.68629 0.36092 0.0
C339 C 0.70018 0.70493 0.36164 0.0
H340 H 0.81232 0.69856 0.36137 0.0
C341 C 0.69566 0.75123 0.36031 0.0
H342 H 0.74681 0.65074 0.36188 0.0
C343 C 0.73294 0.77856 0.35948 0.0
C344 C 0.77531 0.76001 0.36063 0.0
H345 H 0.66321 0.7664 0.3605 0.0
H346 H 0.7286 0.81413 0.35932 0.0
C347 C 0.77986 0.71367 0.36077 0.0
C348 C 0.72363 0.77507 0.67287 0.0
C349 C 0.76955 0.76735 0.67199 0.0
H350 H 0.65852 0.74655 0.67325 0.0
C351 C 0.78511 0.72377 0.67285 0.0
H352 H 0.7108 0.8085 0.67252 0.0
C353 C 0.75517 0.68845 0.67272 0.0
C354 C 0.70924 0.69617 0.67243 0.0
H355 H 0.82028 0.71697 0.67223 0.0
H356 H 0.768 0.65502 0.67226 0.0
C357 C 0.6937 0.73975 0.67343 0.0
C358 C 0.73145 0.68977 0.17282 0.0
C359 C 0.77431 0.70739 0.17123 0.0
H360 H 0.66206 0.70346 0.17219 0.0
C361 C 0.78015 0.75362 0.17102 0.0
H362 H 0.72612 0.65431 0.17305 0.0
C363 C 0.7436 0.7818 0.17108 0.0
C364 C 0.70074 0.76408 0.17063 0.0
H365 H 0.81302 0.76801 0.1701 0.0
H366 H 0.74886 0.81724 0.16993 0.0
C367 C 0.69493 0.7179 0.17218 0.0
C368 C 0.18534 0.02846 0.25908 0.0
C369 C 0.20171 0.0309 0.29346 0.0
H370 H 0.20101 0.02926 0.20436 0.0
C371 C 0.24746 0.02816 0.29915 0.0
H372 H 0.1501 0.03041 0.25411 0.0
C373 C 0.27657 0.02837 0.27069 0.0
C374 C 0.26022 0.03027 0.23628 0.0
H375 H 0.26088 0.03019 0.3254 0.0
H376 H 0.31183 0.03027 0.27564 0.0
C377 C 0.21443 0.02762 0.23063 0.0
C378 C 0.4341 0.2905 0.77171 0.0
C379 C 0.43282 0.27482 0.73707 0.0
H380 H 0.43365 0.27359 0.82617 0.0
C381 C 0.43778 0.2294 0.73075 0.0
H382 H 0.43043 0.32547 0.77718 0.0
C383 C 0.43875 0.19969 0.75877 0.0
C384 C 0.43581 0.21515 0.7934 0.0
H385 H 0.43666 0.21649 0.70429 0.0
H386 H 0.43866 0.16451 0.75329 0.0
C387 C 0.43612 0.26086 0.79972 0.0
C388 C 0.18169 0.4407 0.26913 0.0
C389 C 0.19801 0.43759 0.23474 0.0
H390 H 0.19744 0.44119 0.32381 0.0
C391 C 0.24376 0.44042 0.22891 0.0
H392 H 0.14645 0.43867 0.27421 0.0
C393 C 0.27291 0.44097 0.2573 0.0
C394 C 0.2566 0.43974 0.29178 0.0
H395 H 0.25714 0.43785 0.20266 0.0
H396 H 0.30816 0.43913 0.25229 0.0
C397 C 0.21083 0.4423 0.29749 0.0
C398 C 0.02176 0.23957 0.73133 0.0
C399 C 0.02703 0.19423 0.73787 0.0
H400 H 0.02137 0.30465 0.75352 0.0
C401 C 0.02597 0.17884 0.77259 0.0
H402 H 0.02268 0.25225 0.7048 0.0
C403 C 0.02432 0.20874 0.80047 0.0
C404 C 0.02479 0.25438 0.79387 0.0
H405 H 0.02988 0.14394 0.77823 0.0
H406 H 0.0273 0.19627 0.82696 0.0
C407 C 0.02117 0.26952 0.75919 0.0
C408 C 0.76568 0.9402 0.7997 0.0
C409 C 0.71997 0.93994 0.79337 0.0
H410 H 0.83033 0.93394 0.77722 0.0
C411 C 0.70458 0.94266 0.75871 0.0
H412 H 0.77835 0.9379 0.82617 0.0
C413 C 0.73435 0.94128 0.73071 0.0
C414 C 0.77974 0.9361 0.73708 0.0
H415 H 0.66941 0.9426 0.75322 0.0
H416 H 0.72147 0.93987 0.70426 0.0
C417 C 0.79538 0.93777 0.77171 0.0
C418 C 0.53327 0.7529 0.29961 0.0
C419 C 0.53539 0.70709 0.29408 0.0
H420 H 0.53633 0.81709 0.27595 0.0
C421 C 0.5333 0.69056 0.25972 0.0
H422 H 0.53506 0.76643 0.32585 0.0
C423 C 0.53315 0.71949 0.23119 0.0
C424 C 0.53615 0.76527 0.23672 0.0
H425 H 0.53479 0.65527 0.25486 0.0
H426 H 0.53484 0.70591 0.20496 0.0
C427 C 0.53417 0.78183 0.27108 0.0
C428 C 0.77438 0.52476 0.76098 0.0
C429 C 0.75913 0.52887 0.79561 0.0
H430 H 0.75727 0.52532 0.70657 0.0
C431 C 0.71346 0.52863 0.80216 0.0
H432 H 0.80953 0.52479 0.75535 0.0
C433 C 0.68363 0.52982 0.77424 0.0
C434 C 0.69912 0.53022 0.73952 0.0
H435 H 0.70092 0.53198 0.82861 0.0
H436 H 0.64869 0.53376 0.77981 0.0
C437 C 0.74449 0.52491 0.73309 0.0
C438 C 0.94697 0.71638 0.29871 0.0
C439 C 0.94397 0.76206 0.29277 0.0
H440 H 0.94419 0.65183 0.27564 0.0
C441 C 0.94575 0.77812 0.25825 0.0
H442 H 0.94545 0.7032 0.32506 0.0
C443 C 0.94595 0.74877 0.22998 0.0
C444 C 0.94329 0.70307 0.23597 0.0
H445 H 0.94359 0.8133 0.25309 0.0
H446 H 0.94361 0.76194 0.20366 0.0
C447 C 0.9461 0.68703 0.27044 0.0
C448 C 0.43798 0.97007 0.19311 0.0
C449 C 0.44659 0.01284 0.18072 0.0
H450 H 0.46271 0.90481 0.20056 0.0
C451 C 0.49004 0.02492 0.17158 0.0
H452 H 0.40478 0.96026 0.20069 0.0
C453 C 0.52359 -0.00719 0.17149 0.0
C454 C 0.51341 0.94889 0.18055 0.0
H455 H 0.49716 0.05782 0.16179 0.0
H456 H 0.55613 0.00137 0.16164 0.0
C457 C 0.47106 0.93841 0.19303 0.0
C458 C 0.46788 0.53672 0.6707 0.0
C459 C 0.50843 0.52707 0.68691 0.0
H460 H 0.40468 0.51061 0.65464 0.0
C461 C 0.51308 0.48762 0.70577 0.0
H462 H 0.46406 0.56678 0.65557 0.0
C463 C 0.4796 0.45602 0.7053 0.0
C464 C 0.44098 0.46335 0.68592 0.0
H465 H 0.54419 0.47959 0.71836 0.0
H466 H 0.48555 0.4242 0.7175 0.0
C467 C 0.43406 0.50474 0.67017 0.0
C468 C 0.96758 0.43734 0.16885 0.0
C469 C 0.00903 0.44475 0.18441 0.0
H470 H 0.90552 0.46677 0.15421 0.0
C471 C 0.01644 0.48355 0.20359 0.0
H472 H 0.96168 0.40776 0.1535 0.0
C473 C -0.01515 0.5168 0.20396 0.0
C474 C 0.9454 0.51169 0.18517 0.0
H475 H 0.04832 0.4898 0.21567 0.0
H476 H -0.00708 0.5481 0.21631 0.0
C477 C 0.93562 0.47094 0.16926 0.0
C478 C 0.00983 0.92916 0.66679 0.0
C479 C 0.97108 0.93369 0.68675 0.0
H480 H 0.06917 0.96141 0.64876 0.0
C481 C 0.96685 0.96949 0.70979 0.0
H482 H 0.01309 0.90218 0.64829 0.0
C483 C -0.0015 0.00302 0.71 0.0
C484 C 0.03479 0.00111 0.68721 0.0
H485 H 0.93685 0.97378 0.72501 0.0
H486 H -0.00767 0.03251 0.72539 0.0
C487 C 0.04179 0.96293 0.66705 0.0
C488 C 0.52129 0.47812 0.35851 0.0
C489 C 0.51208 0.52163 0.34793 0.0
H490 H 0.49369 0.41367 0.36906 0.0
C491 C 0.47074 0.53158 0.33343 0.0
H492 H 0.55303 0.47002 0.36997 0.0
C493 C 0.43741 0.49996 0.33292 0.0
C494 C 0.44482 0.4578 0.34689 0.0
H495 H 0.46317 0.56488 0.3248 0.0
H496 H 0.40479 0.50949 0.3239 0.0
C497 C 0.48753 0.44607 0.35799 0.0
C498 C 0.97193 0.43945 0.82812 0.0
C499 C 0.01331 0.44658 0.84364 0.0
H500 H 0.9073 0.46504 0.81883 0.0
C501 C 0.02442 0.48891 0.8561 0.0
H502 H 0.96289 0.40706 0.81817 0.0
C503 C -0.00769 0.5224 0.85649 0.0
C504 C 0.94935 0.51329 0.84439 0.0
H505 H 0.05616 0.49479 0.86846 0.0
H506 H -0.00028 0.55363 0.86914 0.0
C507 C 0.94022 0.47253 0.82849 0.0
C508 C 0.93898 -0.00561 0.36048 0.0
C509 C 0.94837 0.95392 0.34406 0.0
H510 H 0.96547 0.0574 0.3765 0.0
C511 C -0.01265 0.94934 0.32456 0.0
H512 H 0.90923 -0.00185 0.37605 0.0
C513 C 0.01899 0.98274 0.32477 0.0
C514 C 0.01209 0.02115 0.3445 0.0
H515 H -0.00491 0.91828 0.31176 0.0
H516 H 0.05059 0.97682 0.31215 0.0
C517 C 0.97099 0.02814 0.36073 0.0
C518 C 0.54235 0.00968 0.84004 0.0
C519 C 0.5325 0.96572 0.84873 0.0
H520 H 0.51851 0.07561 0.83522 0.0
C521 C 0.48824 0.95307 0.8543 0.0
H522 H 0.57615 0.02005 0.83505 0.0
C523 C 0.4548 -0.0147 0.8544 0.0
C524 C 0.46582 0.02998 0.84893 0.0
H525 H 0.48006 0.91922 0.86109 0.0
H526 H 0.42128 0.97588 0.86126 0.0
C527 C 0.50939 0.04145 0.84014 0.0
loop_
_geom_bond_atom_site_label_1
_geom_bond_atom_site_label_2
_geom_bond_distance
_geom_bond_site_symmetry_2
_ccdc_geom_bond_type
In0 O1 2.294 . S
In0 O2 2.326 . S
In0 O6 2.266 . S
In0 O7 2.326 . S
In0 O8 2.266 . S
In0 O9 2.326 . S
In0 O11 2.294 . S
In0 O12 2.326 . S
O1 In0 2.294 . S
O1 C10 1.240 . S
O2 In0 2.326 . S
O2 C10 1.252 . S
C3 O6 1.252 . S
C3 O7 1.260 . S
C4 O11 1.240 . S
C4 O12 1.252 . S
C5 O8 1.252 . S
C5 O9 1.260 . S
O6 In0 2.266 . S
O6 C3 1.252 . S
O7 In0 2.326 . S
O7 C3 1.260 . S
O8 In0 2.266 . S
O8 C5 1.252 . S
O9 In0 2.326 . S
O9 C5 1.260 . S
C10 O1 1.240 . S
C10 O2 1.252 . S
O11 In0 2.294 . S
O11 C4 1.240 . S
O12 In0 2.326 . S
O12 C4 1.252 . S
In13 O14 2.294 . S
In13 O15 2.326 . S
In13 O19 2.266 . S
In13 O20 2.326 . S
In13 O21 2.266 . S
In13 O22 2.326 . S
In13 O24 2.294 . S
In13 O25 2.326 . S
O14 In13 2.294 . S
O14 C23 1.240 . S
O15 In13 2.326 . S
O15 C23 1.252 . S
C16 O19 1.252 . S
C16 O20 1.260 . S
C17 O24 1.240 . S
C17 O25 1.252 . S
C18 O21 1.252 . S
C18 O22 1.260 . S
O19 In13 2.266 . S
O19 C16 1.252 . S
O20 In13 2.326 . S
O20 C16 1.260 . S
O21 In13 2.266 . S
O21 C18 1.252 . S
O22 In13 2.326 . S
O22 C18 1.260 . S
C23 O14 1.240 . S
C23 O15 1.252 . S
O24 In13 2.294 . S
O24 C17 1.240 . S
O25 In13 2.326 . S
O25 C17 1.252 . S
In26 O27 2.294 . S
In26 O28 2.326 . S
In26 O32 2.266 . S
In26 O33 2.326 . S
In26 O34 2.266 . S
In26 O35 2.326 . S
In26 O37 2.294 . S
In26 O38 2.326 . S
O27 In26 2.294 . S
O27 C36 1.240 . S
O28 In26 2.326 . S
O28 C36 1.252 . S
C29 O32 1.252 . S
C29 O33 1.260 . S
C30 O37 1.240 . S
C30 O38 1.252 . S
C31 O34 1.252 . S
C31 O35 1.260 . S
O32 In26 2.266 . S
O32 C29 1.252 . S
O33 In26 2.326 . S
O33 C29 1.260 . S
O34 In26 2.266 . S
O34 C31 1.252 . S
O35 In26 2.326 . S
O35 C31 1.260 . S
C36 O27 1.240 . S
C36 O28 1.252 . S
O37 In26 2.294 . S
O37 C30 1.240 . S
O38 In26 2.326 . S
O38 C30 1.252 . S
In39 O40 2.294 . S
In39 O41 2.326 . S
In39 O45 2.266 . S
In39 O46 2.326 . S
In39 O47 2.266 . S
In39 O48 2.326 . S
In39 O50 2.294 . S
In39 O51 2.326 . S
O40 In39 2.294 . S
O40 C49 1.240 . S
O41 In39 2.326 . S
O41 C49 1.252 . S
C42 O45 1.252 . S
C42 O46 1.260 . S
C43 O50 1.240 . S
C43 O51 1.252 . S
C44 O47 1.252 . S
C44 O48 1.260 . S
O45 In39 2.266 . S
O45 C42 1.252 . S
O46 In39 2.326 . S
O46 C42 1.260 . S
O47 In39 2.266 . S
O47 C44 1.252 . S
O48 In39 2.326 . S
O48 C44 1.260 . S
C49 O40 1.240 . S
C49 O41 1.252 . S
O50 In39 2.294 . S
O50 C43 1.240 . S
O51 In39 2.326 . S
O51 C43 1.252 . S
In52 O53 2.294 . S
In52 O54 2.326 . S
In52 O58 2.266 . S
In52 O59 2.326 . S
In52 O60 2.266 . S
In52 O61 2.326 . S
In52 O63 2.294 . S
In52 O64 2.326 . S
O53 In52 2.294 . S
O53 C62 1.240 . S
O54 In52 2.326 . S
O54 C62 1.252 . S
C55 O58 1.252 . S
C55 O59 1.260 . S
C56 O63 1.240 . S
C56 O64 1.252 . S
C57 O60 1.252 . S
C57 O61 1.260 . S
O58 In52 2.266 . S
O58 C55 1.252 . S
O59 In52 2.326 . S
O59 C55 1.260 . S
O60 In52 2.266 . S
O60 C57 1.252 . S
O61 In52 2.326 . S
O61 C57 1.260 . S
C62 O53 1.240 . S
C62 O54 1.252 . S
O63 In52 2.294 . S
O63 C56 1.240 . S
O64 In52 2.326 . S
O64 C56 1.252 . S
In65 O66 2.294 . S
In65 O67 2.326 . S
In65 O71 2.266 . S
In65 O72 2.326 . S
In65 O73 2.266 . S
In65 O74 2.326 . S
In65 O76 2.294 . S
In65 O77 2.326 . S
O66 In65 2.294 . S
O66 C75 1.240 . S
O67 In65 2.326 . S
O67 C75 1.252 . S
C68 O71 1.252 . S
C68 O72 1.260 . S
C69 O76 1.240 . S
C69 O77 1.252 . S
C70 O73 1.252 . S
C70 O74 1.260 . S
O71 In65 2.266 . S
O71 C68 1.252 . S
O72 In65 2.326 . S
O72 C68 1.260 . S
O73 In65 2.266 . S
O73 C70 1.252 . S
O74 In65 2.326 . S
O74 C70 1.260 . S
C75 O66 1.240 . S
C75 O67 1.252 . S
O76 In65 2.294 . S
O76 C69 1.240 . S
O77 In65 2.326 . S
O77 C69 1.252 . S
In78 O79 2.294 . S
In78 O80 2.326 . S
In78 O84 2.266 . S
In78 O85 2.326 . S
In78 O86 2.266 . S
In78 O87 2.326 . S
In78 O89 2.294 . S
In78 O90 2.326 . S
O79 In78 2.294 . S
O79 C88 1.240 . S
O80 In78 2.326 . S
O80 C88 1.252 . S
C81 O84 1.252 . S
C81 O85 1.260 . S
C82 O89 1.240 . S
C82 O90 1.252 . S
C83 O86 1.252 . S
C83 O87 1.260 . S
O84 In78 2.266 . S
O84 C81 1.252 . S
O85 In78 2.326 . S
O85 C81 1.260 . S
O86 In78 2.266 . S
O86 C83 1.252 . S
O87 In78 2.326 . S
O87 C83 1.260 . S
C88 O79 1.240 . S
C88 O80 1.252 . S
O89 In78 2.294 . S
O89 C82 1.240 . S
O90 In78 2.326 . S
O90 C82 1.252 . S
In91 O92 2.294 . S
In91 O93 2.326 . S
In91 O97 2.266 . S
In91 O98 2.326 . S
In91 O99 2.266 . S
In91 O100 2.326 . S
In91 O102 2.294 . S
In91 O103 2.326 . S
O92 In91 2.294 . S
O92 C101 1.240 . S
O93 In91 2.326 . S
O93 C101 1.252 . S
C94 O97 1.252 . S
C94 O98 1.260 . S
C95 O102 1.240 . S
C95 O103 1.252 . S
C96 O99 1.252 . S
C96 O100 1.260 . S
O97 In91 2.266 . S
O97 C94 1.252 . S
O98 In91 2.326 . S
O98 C94 1.260 . S
O99 In91 2.266 . S
O99 C96 1.252 . S
O100 In91 2.326 . S
O100 C96 1.260 . S
C101 O92 1.240 . S
C101 O93 1.252 . S
O102 In91 2.294 . S
O102 C95 1.240 . S
O103 In91 2.326 . S
O103 C95 1.252 . S
In104 O105 2.294 . S
In104 O106 2.326 . S
In104 O110 2.266 . S
In104 O111 2.326 . S
In104 O112 2.266 . S
In104 O113 2.326 . S
In104 O115 2.294 . S
In104 O116 2.326 . S
O105 In104 2.294 . S
O105 C114 1.240 . S
O106 In104 2.326 . S
O106 C114 1.252 . S
C107 O110 1.252 . S
C107 O111 1.260 . S
C108 O115 1.240 . S
C108 O116 1.252 . S
C109 O112 1.252 . S
C109 O113 1.260 . S
O110 In104 2.266 . S
O110 C107 1.252 . S
O111 In104 2.326 . S
O111 C107 1.260 . S
O112 In104 2.266 . S
O112 C109 1.252 . S
O113 In104 2.326 . S
O113 C109 1.260 . S
C114 O105 1.240 . S
C114 O106 1.252 . S
O115 In104 2.294 . S
O115 C108 1.240 . S
O116 In104 2.326 . S
O116 C108 1.252 . S
In117 O118 2.294 . S
In117 O119 2.326 . S
In117 O123 2.266 . S
In117 O124 2.326 . S
In117 O125 2.266 . S
In117 O126 2.326 . S
In117 O128 2.294 . S
In117 O129 2.326 . S
O118 In117 2.294 . S
O118 C127 1.240 . S
O119 In117 2.326 . S
O119 C127 1.252 . S
C120 O123 1.252 . S
C120 O124 1.260 . S
C121 O128 1.240 . S
C121 O129 1.252 . S
C122 O125 1.252 . S
C122 O126 1.260 . S
O123 In117 2.266 . S
O123 C120 1.252 . S
O124 In117 2.326 . S
O124 C120 1.260 . S
O125 In117 2.266 . S
O125 C122 1.252 . S
O126 In117 2.326 . S
O126 C122 1.260 . S
C127 O118 1.240 . S
C127 O119 1.252 . S
O128 In117 2.294 . S
O128 C121 1.240 . S
O129 In117 2.326 . S
O129 C121 1.252 . S
In130 O131 2.294 . S
In130 O132 2.326 . S
In130 O136 2.266 . S
In130 O137 2.326 . S
In130 O138 2.266 . S
In130 O139 2.326 . S
In130 O141 2.294 . S
In130 O142 2.326 . S
O131 In130 2.294 . S
O131 C140 1.240 . S
O132 In130 2.326 . S
O132 C140 1.252 . S
C133 O136 1.252 . S
C133 O137 1.260 . S
C134 O141 1.240 . S
C134 O142 1.252 . S
C135 O138 1.252 . S
C135 O139 1.260 . S
O136 In130 2.266 . S
O136 C133 1.252 . S
O137 In130 2.326 . S
O137 C133 1.260 . S
O138 In130 2.266 . S
O138 C135 1.252 . S
O139 In130 2.326 . S
O139 C135 1.260 . S
C140 O131 1.240 . S
C140 O132 1.252 . S
O141 In130 2.294 . S
O141 C134 1.240 . S
O142 In130 2.326 . S
O142 C134 1.252 . S
In143 O144 2.294 . S
In143 O145 2.326 . S
In143 O149 2.266 . S
In143 O150 2.326 . S
In143 O151 2.266 . S
In143 O152 2.326 . S
In143 O154 2.294 . S
In143 O155 2.326 . S
O144 In143 2.294 . S
O144 C153 1.240 . S
O145 In143 2.326 . S
O145 C153 1.252 . S
C146 O149 1.252 . S
C146 O150 1.260 . S
C147 O154 1.240 . S
C147 O155 1.252 . S
C148 O151 1.252 . S
C148 O152 1.260 . S
O149 In143 2.266 . S
O149 C146 1.252 . S
O150 In143 2.326 . S
O150 C146 1.260 . S
O151 In143 2.266 . S
O151 C148 1.252 . S
O152 In143 2.326 . S
O152 C148 1.260 . S
C153 O144 1.240 . S
C153 O145 1.252 . S
O154 In143 2.294 . S
O154 C147 1.240 . S
O155 In143 2.326 . S
O155 C147 1.252 . S
In156 O157 2.294 . S
In156 O158 2.326 . S
In156 O162 2.266 . S
In156 O163 2.326 . S
In156 O164 2.266 . S
In156 O165 2.326 . S
In156 O167 2.294 . S
In156 O168 2.326 . S
O157 In156 2.294 . S
O157 C166 1.240 . S
O158 In156 2.326 . S
O158 C166 1.252 . S
C159 O162 1.252 . S
C159 O163 1.260 . S
C160 O167 1.240 . S
C160 O168 1.252 . S
C161 O164 1.252 . S
C161 O165 1.260 . S
O162 In156 2.266 . S
O162 C159 1.252 . S
O163 In156 2.326 . S
O163 C159 1.260 . S
O164 In156 2.266 . S
O164 C161 1.252 . S
O165 In156 2.326 . S
O165 C161 1.260 . S
C166 O157 1.240 . S
C166 O158 1.252 . S
O167 In156 2.294 . S
O167 C160 1.240 . S
O168 In156 2.326 . S
O168 C160 1.252 . S
In169 O170 2.294 . S
In169 O171 2.326 . S
In169 O175 2.266 . S
In169 O176 2.326 . S
In169 O177 2.266 . S
In169 O178 2.326 . S
In169 O180 2.294 . S
In169 O181 2.326 . S
O170 In169 2.294 . S
O170 C179 1.240 . S
O171 In169 2.326 . S
O171 C179 1.252 . S
C172 O175 1.252 . S
C172 O176 1.260 . S
C173 O180 1.240 . S
C173 O181 1.252 . S
C174 O177 1.252 . S
C174 O178 1.260 . S
O175 In169 2.266 . S
O175 C172 1.252 . S
O176 In169 2.326 . S
O176 C172 1.260 . S
O177 In169 2.266 . S
O177 C174 1.252 . S
O178 In169 2.326 . S
O178 C174 1.260 . S
C179 O170 1.240 . S
C179 O171 1.252 . S
O180 In169 2.294 . S
O180 C173 1.240 . S
O181 In169 2.326 . S
O181 C173 1.252 . S
In182 O183 2.294 . S
In182 O184 2.326 . S
In182 O188 2.266 . S
In182 O189 2.326 . S
In182 O190 2.266 . S
In182 O191 2.326 . S
In182 O193 2.294 . S
In182 O194 2.326 . S
O183 In182 2.294 . S
O183 C192 1.240 . S
O184 In182 2.326 . S
O184 C192 1.252 . S
C185 O188 1.252 . S
C185 O189 1.260 . S
C186 O193 1.240 . S
C186 O194 1.252 . S
C187 O190 1.252 . S
C187 O191 1.260 . S
O188 In182 2.266 . S
O188 C185 1.252 . S
O189 In182 2.326 . S
O189 C185 1.260 . S
O190 In182 2.266 . S
O190 C187 1.252 . S
O191 In182 2.326 . S
O191 C187 1.260 . S
C192 O183 1.240 . S
C192 O184 1.252 . S
O193 In182 2.294 . S
O193 C186 1.240 . S
O194 In182 2.326 . S
O194 C186 1.252 . S
In195 O196 2.294 . S
In195 O197 2.326 . S
In195 O201 2.266 . S
In195 O202 2.326 . S
In195 O203 2.266 . S
In195 O204 2.326 . S
In195 O206 2.294 . S
In195 O207 2.326 . S
O196 In195 2.294 . S
O196 C205 1.240 . S
O197 In195 2.326 . S
O197 C205 1.252 . S
C198 O201 1.252 . S
C198 O202 1.260 . S
C199 O206 1.240 . S
C199 O207 1.252 . S
C200 O203 1.252 . S
C200 O204 1.260 . S
O201 In195 2.266 . S
O201 C198 1.252 . S
O202 In195 2.326 . S
O202 C198 1.260 . S
O203 In195 2.266 . S
O203 C200 1.252 . S
O204 In195 2.326 . S
O204 C200 1.260 . S
C205 O196 1.240 . S
C205 O197 1.252 . S
O206 In195 2.294 . S
O206 C199 1.240 . S
O207 In195 2.326 . S
O207 C199 1.252 . S
C208 C209 1.387 1_554 S
C208 H212 0.950 . S
C208 C217 1.390 . S
C209 C208 1.387 1_556 S
C209 C211 1.387 . S
H210 C217 0.950 . S
C211 C209 1.387 . S
C211 C213 1.390 . S
C211 H215 0.950 . S
H212 C208 0.950 . S
C213 C211 1.390 . S
C213 C214 1.387 1_556 S
C213 H216 0.950 . S
C214 C213 1.387 1_554 S
C214 C217 1.387 . S
H215 C211 0.950 . S
H216 C213 0.950 . S
C217 C208 1.390 . S
C217 H210 0.950 . S
C217 C214 1.387 . S
C218 C219 1.387 . S
C218 H222 0.950 . S
C218 C227 1.390 . S
C219 C218 1.387 . S
C219 C221 1.387 . S
H220 C227 0.950 . S
C221 C219 1.387 . S
C221 C223 1.390 . S
C221 H225 0.950 . S
H222 C218 0.950 . S
C223 C221 1.390 . S
C223 C224 1.387 . S
C223 H226 0.950 . S
C224 C223 1.387 . S
C224 C227 1.387 . S
H225 C221 0.950 . S
H226 C223 0.950 . S
C227 C218 1.390 . S
C227 H220 0.950 . S
C227 C224 1.387 . S
C228 C229 1.387 . S
C228 H232 0.950 . S
C228 C237 1.390 . S
C229 C228 1.387 . S
C229 C231 1.387 1_556 S
H230 C237 0.950 . S
C231 C229 1.387 1_554 S
C231 C233 1.390 . S
C231 H235 0.950 . S
H232 C228 0.950 . S
C233 C231 1.390 . S
C233 C234 1.387 . S
C233 H236 0.950 . S
C234 C233 1.387 . S
C234 C237 1.387 1_554 S
H235 C231 0.950 . S
H236 C233 0.950 . S
C237 C228 1.390 . S
C237 H230 0.950 . S
C237 C234 1.387 1_556 S
C238 C239 1.387 . S
C238 H242 0.950 . S
C238 C247 1.390 . S
C239 C238 1.387 . S
C239 C241 1.387 . S
H240 C247 0.950 . S
C241 C239 1.387 . S
C241 C243 1.390 . S
C241 H245 0.950 . S
H242 C238 0.950 . S
C243 C241 1.390 . S
C243 C244 1.387 . S
C243 H246 0.950 . S
C244 C243 1.387 . S
C244 C247 1.387 . S
H245 C241 0.950 . S
H246 C243 0.950 . S
C247 C238 1.390 . S
C247 H240 0.950 . S
C247 C244 1.387 . S
C248 C249 1.387 . S
C248 H252 0.950 . S
C248 C257 1.390 1_554 S
C249 C248 1.387 . S
C249 C251 1.387 . S
H250 C257 0.950 . S
C251 C249 1.387 . S
C251 C253 1.390 1_554 S
C251 H255 0.950 . S
H252 C248 0.950 . S
C253 C251 1.390 1_556 S
C253 C254 1.387 . S
C253 H256 0.950 . S
C254 C253 1.387 . S
C254 C257 1.387 . S
H255 C251 0.950 . S
H256 C253 0.950 . S
C257 C248 1.390 1_556 S
C257 H250 0.950 . S
C257 C254 1.387 . S
C258 C259 1.387 . S
C258 H262 0.950 . S
C258 C267 1.390 . S
C259 C258 1.387 . S
C259 C261 1.387 . S
H260 C267 0.950 . S
C261 C259 1.387 . S
C261 C263 1.390 . S
C261 H265 0.950 . S
H262 C258 0.950 . S
C263 C261 1.390 . S
C263 C264 1.387 . S
C263 H266 0.950 . S
C264 C263 1.387 . S
C264 C267 1.387 . S
H265 C261 0.950 . S
H266 C263 0.950 . S
C267 C258 1.390 . S
C267 H260 0.950 . S
C267 C264 1.387 . S
C268 C269 1.387 . S
C268 H272 0.950 . S
C268 C277 1.390 1_556 S
C269 C268 1.387 . S
C269 C271 1.387 . S
H270 C277 0.950 . S
C271 C269 1.387 . S
C271 C273 1.390 1_556 S
C271 H275 0.950 . S
H272 C268 0.950 . S
C273 C271 1.390 1_554 S
C273 C274 1.387 . S
C273 H276 0.950 . S
C274 C273 1.387 . S
C274 C277 1.387 . S
H275 C271 0.950 . S
H276 C273 0.950 . S
C277 C268 1.390 1_554 S
C277 H270 0.950 . S
C277 C274 1.387 . S
C278 C279 1.387 . S
C278 H282 0.950 . S
C278 C287 1.390 . S
C279 C278 1.387 . S
C279 C281 1.387 . S
H280 C287 0.950 . S
C281 C279 1.387 . S
C281 C283 1.390 . S
C281 H285 0.950 . S
H282 C278 0.950 . S
C283 C281 1.390 . S
C283 C284 1.387 . S
C283 H286 0.950 . S
C284 C283 1.387 . S
C284 C287 1.387 . S
H285 C281 0.950 . S
H286 C283 0.950 . S
C287 C278 1.390 . S
C287 H280 0.950 . S
C287 C284 1.387 . S
C288 C289 1.387 . S
C288 H292 0.950 . S
C288 C297 1.390 . S
C289 C288 1.387 . S
C289 C291 1.387 . S
H290 C297 0.950 . S
C291 C289 1.387 . S
C291 C293 1.390 . S
C291 H295 0.950 . S
H292 C288 0.950 . S
C293 C291 1.390 . S
C293 C294 1.387 . S
C293 H296 0.950 . S
C294 C293 1.387 . S
C294 C297 1.387 . S
H295 C291 0.950 . S
H296 C293 0.950 . S
C297 C288 1.390 . S
C297 H290 0.950 . S
C297 C294 1.387 . S
C298 C299 1.387 . S
C298 H302 0.950 . S
C298 C307 1.390 . S
C299 C298 1.387 . S
C299 C301 1.387 . S
H300 C307 0.950 . S
C301 C299 1.387 . S
C301 C303 1.390 . S
C301 H305 0.950 . S
H302 C298 0.950 . S
C303 C301 1.390 . S
C303 C304 1.387 . S
C303 H306 0.950 . S
C304 C303 1.387 . S
C304 C307 1.387 . S
H305 C301 0.950 . S
H306 C303 0.950 . S
C307 C298 1.390 . S
C307 H300 0.950 . S
C307 C304 1.387 . S
C308 C309 1.387 . S
C308 H312 0.950 . S
C308 C317 1.390 . S
C309 C308 1.387 . S
C309 C311 1.387 . S
H310 C317 0.950 . S
C311 C309 1.387 . S
C311 C313 1.390 . S
C311 H315 0.950 . S
H312 C308 0.950 . S
C313 C311 1.390 . S
C313 C314 1.387 . S
C313 H316 0.950 . S
C314 C313 1.387 . S
C314 C317 1.387 . S
H315 C311 0.950 . S
H316 C313 0.950 . S
C317 C308 1.390 . S
C317 H310 0.950 . S
C317 C314 1.387 . S
C318 C319 1.387 . S
C318 H322 0.950 . S
C318 C327 1.390 . S
C319 C318 1.387 . S
C319 C321 1.387 . S
H320 C327 0.950 . S
C321 C319 1.387 . S
C321 C323 1.390 . S
C321 H325 0.950 . S
H322 C318 0.950 . S
C323 C321 1.390 . S
C323 C324 1.387 . S
C323 H326 0.950 . S
C324 C323 1.387 . S
C324 C327 1.387 . S
H325 C321 0.950 . S
H326 C323 0.950 . S
C327 C318 1.390 . S
C327 H320 0.950 . S
C327 C324 1.387 . S
C328 C329 1.387 . S
C328 H332 0.950 . S
C328 C337 1.390 . S
C329 C328 1.387 . S
C329 C331 1.387 . S
H330 C337 0.950 . S
C331 C329 1.387 . S
C331 C333 1.390 . S
C331 H335 0.950 . S
H332 C328 0.950 . S
C333 C331 1.390 . S
C333 C334 1.387 . S
C333 H336 0.950 . S
C334 C333 1.387 . S
C334 C337 1.387 . S
H335 C331 0.950 . S
H336 C333 0.950 . S
C337 C328 1.390 . S
C337 H330 0.950 . S
C337 C334 1.387 . S
C338 C339 1.387 . S
C338 H342 0.950 . S
C338 C347 1.390 . S
C339 C338 1.387 . S
C339 C341 1.387 . S
H340 C347 0.950 . S
C341 C339 1.387 . S
C341 C343 1.390 . S
C341 H345 0.950 . S
H342 C338 0.950 . S
C343 C341 1.390 . S
C343 C344 1.387 . S
C343 H346 0.950 . S
C344 C343 1.387 . S
C344 C347 1.387 . S
H345 C341 0.950 . S
H346 C343 0.950 . S
C347 C338 1.390 . S
C347 H340 0.950 . S
C347 C344 1.387 . S
C348 C349 1.387 . S
C348 H352 0.950 . S
C348 C357 1.390 . S
C349 C348 1.387 . S
C349 C351 1.387 . S
H350 C357 0.950 . S
C351 C349 1.387 . S
C351 C353 1.390 . S
C351 H355 0.950 . S
H352 C348 0.950 . S
C353 C351 1.390 . S
C353 C354 1.387 . S
C353 H356 0.950 . S
C354 C353 1.387 . S
C354 C357 1.387 . S
H355 C351 0.950 . S
H356 C353 0.950 . S
C357 C348 1.390 . S
C357 H350 0.950 . S
C357 C354 1.387 . S
C358 C359 1.387 . S
C358 H362 0.950 . S
C358 C367 1.390 . S
C359 C358 1.387 . S
C359 C361 1.387 . S
H360 C367 0.950 . S
C361 C359 1.387 . S
C361 C363 1.390 . S
C361 H365 0.950 . S
H362 C358 0.950 . S
C363 C361 1.390 . S
C363 C364 1.387 . S
C363 H366 0.950 . S
C364 C363 1.387 . S
C364 C367 1.387 . S
H365 C361 0.950 . S
H366 C363 0.950 . S
C367 C358 1.390 . S
C367 H360 0.950 . S
C367 C364 1.387 . S
C368 C369 1.387 . S
C368 H372 0.950 . S
C368 C377 1.390 . S
C369 C368 1.387 . S
C369 C371 1.387 . S
H370 C377 0.950 . S
C371 C369 1.387 . S
C371 C373 1.390 . S
C371 H375 0.950 . S
H372 C368 0.950 . S
C373 C371 1.390 . S
C373 C374 1.387 . S
C373 H376 0.950 . S
C374 C373 1.387 . S
C374 C377 1.387 . S
H375 C371 0.950 . S
H376 C373 0.950 . S
C377 C368 1.390 . S
C377 H370 0.950 . S
C377 C374 1.387 . S
C378 C379 1.387 . S
C378 H382 0.950 . S
C378 C387 1.390 . S
C379 C378 1.387 . S
C379 C381 1.387 . S
H380 C387 0.950 . S
C381 C379 1.387 . S
C381 C383 1.390 . S
C381 H385 0.950 . S
H382 C378 0.950 . S
C383 C381 1.390 . S
C383 C384 1.387 . S
C383 H386 0.950 . S
C384 C383 1.387 . S
C384 C387 1.387 . S
H385 C381 0.950 . S
H386 C383 0.950 . S
C387 C378 1.390 . S
C387 H380 0.950 . S
C387 C384 1.387 . S
C388 C389 1.387 . S
C388 H392 0.950 . S
C388 C397 1.390 . S
C389 C388 1.387 . S
C389 C391 1.387 . S
H390 C397 0.950 . S
C391 C389 1.387 . S
C391 C393 1.390 . S
C391 H395 0.950 . S
H392 C388 0.950 . S
C393 C391 1.390 . S
C393 C394 1.387 . S
C393 H396 0.950 . S
C394 C393 1.387 . S
C394 C397 1.387 . S
H395 C391 0.950 . S
H396 C393 0.950 . S
C397 C388 1.390 . S
C397 H390 0.950 . S
C397 C394 1.387 . S
C398 C399 1.387 . S
C398 H402 0.950 . S
C398 C407 1.390 . S
C399 C398 1.387 . S
C399 C401 1.387 . S
H400 C407 0.950 . S
C401 C399 1.387 . S
C401 C403 1.390 . S
C401 H405 0.950 . S
H402 C398 0.950 . S
C403 C401 1.390 . S
C403 C404 1.387 . S
C403 H406 0.950 . S
C404 C403 1.387 . S
C404 C407 1.387 . S
H405 C401 0.950 . S
H406 C403 0.950 . S
C407 C398 1.390 . S
C407 H400 0.950 . S
C407 C404 1.387 . S
C408 C409 1.387 . S
C408 H412 0.950 . S
C408 C417 1.390 . S
C409 C408 1.387 . S
C409 C411 1.387 . S
H410 C417 0.950 . S
C411 C409 1.387 . S
C411 C413 1.390 . S
C411 H415 0.950 . S
H412 C408 0.950 . S
C413 C411 1.390 . S
C413 C414 1.387 . S
C413 H416 0.950 . S
C414 C413 1.387 . S
C414 C417 1.387 . S
H415 C411 0.950 . S
H416 C413 0.950 . S
C417 C408 1.390 . S
C417 H410 0.950 . S
C417 C414 1.387 . S
C418 C419 1.387 . S
C418 H422 0.950 . S
C418 C427 1.390 . S
C419 C418 1.387 . S
C419 C421 1.387 . S
H420 C427 0.950 . S
C421 C419 1.387 . S
C421 C423 1.390 . S
C421 H425 0.950 . S
H422 C418 0.950 . S
C423 C421 1.390 . S
C423 C424 1.387 . S
C423 H426 0.950 . S
C424 C423 1.387 . S
C424 C427 1.387 . S
H425 C421 0.950 . S
H426 C423 0.950 . S
C427 C418 1.390 . S
C427 H420 0.950 . S
C427 C424 1.387 . S
C428 C429 1.387 . S
C428 H432 0.950 . S
C428 C437 1.390 . S
C429 C428 1.387 . S
C429 C431 1.387 . S
H430 C437 0.950 . S
C431 C429 1.387 . S
C431 C433 1.390 . S
C431 H435 0.950 . S
H432 C428 0.950 . S
C433 C431 1.390 . S
C433 C434 1.387 . S
C433 H436 0.950 . S
C434 C433 1.387 . S
C434 C437 1.387 . S
H435 C431 0.950 . S
H436 C433 0.950 . S
C437 C428 1.390 . S
C437 H430 0.950 . S
C437 C434 1.387 . S
C438 C439 1.387 . S
C438 H442 0.950 . S
C438 C447 1.390 . S
C439 C438 1.387 . S
C439 C441 1.387 . S
H440 C447 0.950 . S
C441 C439 1.387 . S
C441 C443 1.390 . S
C441 H445 0.950 . S
H442 C438 0.950 . S
C443 C441 1.390 . S
C443 C444 1.387 . S
C443 H446 0.950 . S
C444 C443 1.387 . S
C444 C447 1.387 . S
H445 C441 0.950 . S
H446 C443 0.950 . S
C447 C438 1.390 . S
C447 H440 0.950 . S
C447 C444 1.387 . S
C448 C449 1.387 . S
C448 H452 0.950 . S
C448 C457 1.390 1_545 S
C449 C448 1.387 . S
C449 C451 1.387 . S
H450 C457 0.950 . S
C451 C449 1.387 . S
C451 C453 1.390 1_545 S
C451 H455 0.950 . S
H452 C448 0.950 . S
C453 C451 1.390 1_565 S
C453 C454 1.387 . S
C453 H456 0.950 . S
C454 C453 1.387 . S
C454 C457 1.387 . S
H455 C451 0.950 . S
H456 C453 0.950 . S
C457 C448 1.390 1_565 S
C457 H450 0.950 . S
C457 C454 1.387 . S
C458 C459 1.387 . S
C458 H462 0.950 . S
C458 C467 1.390 . S
C459 C458 1.387 . S
C459 C461 1.387 . S
H460 C467 0.950 . S
C461 C459 1.387 . S
C461 C463 1.390 . S
C461 H465 0.950 . S
H462 C458 0.950 . S
C463 C461 1.390 . S
C463 C464 1.387 . S
C463 H466 0.950 . S
C464 C463 1.387 . S
C464 C467 1.387 . S
H465 C461 0.950 . S
H466 C463 0.950 . S
C467 C458 1.390 . S
C467 H460 0.950 . S
C467 C464 1.387 . S
C468 C469 1.387 . S
C468 H472 0.950 . S
C468 C477 1.390 1_455 S
C469 C468 1.387 . S
C469 C471 1.387 . S
H470 C477 0.950 . S
C471 C469 1.387 . S
C471 C473 1.390 1_455 S
C471 H475 0.950 . S
H472 C468 0.950 . S
C473 C471 1.390 1_655 S
C473 C474 1.387 . S
C473 H476 0.950 . S
C474 C473 1.387 . S
C474 C477 1.387 . S
H475 C471 0.950 . S
H476 C473 0.950 . S
C477 C468 1.390 1_655 S
C477 H470 0.950 . S
C477 C474 1.387 . S
C478 C479 1.387 . S
C478 H482 0.950 . S
C478 C487 1.390 1_665 S
C479 C478 1.387 . S
C479 C481 1.387 . S
H480 C487 0.950 . S
C481 C479 1.387 . S
C481 C483 1.390 1_665 S
C481 H485 0.950 . S
H482 C478 0.950 . S
C483 C481 1.390 1_445 S
C483 C484 1.387 . S
C483 H486 0.950 . S
C484 C483 1.387 . S
C484 C487 1.387 . S
H485 C481 0.950 . S
H486 C483 0.950 . S
C487 C478 1.390 1_445 S
C487 H480 0.950 . S
C487 C484 1.387 . S
C488 C489 1.387 . S
C488 H492 0.950 . S
C488 C497 1.390 . S
C489 C488 1.387 . S
C489 C491 1.387 . S
H490 C497 0.950 . S
C491 C489 1.387 . S
C491 C493 1.390 . S
C491 H495 0.950 . S
H492 C488 0.950 . S
C493 C491 1.390 . S
C493 C494 1.387 . S
C493 H496 0.950 . S
C494 C493 1.387 . S
C494 C497 1.387 . S
H495 C491 0.950 . S
H496 C493 0.950 . S
C497 C488 1.390 . S
C497 H490 0.950 . S
C497 C494 1.387 . S
C498 C499 1.387 . S
C498 H502 0.950 . S
C498 C507 1.390 1_455 S
C499 C498 1.387 . S
C499 C501 1.387 . S
H500 C507 0.950 . S
C501 C499 1.387 . S
C501 C503 1.390 1_455 S
C501 H505 0.950 . S
H502 C498 0.950 . S
C503 C501 1.390 1_655 S
C503 C504 1.387 . S
C503 H506 0.950 . S
C504 C503 1.387 . S
C504 C507 1.387 . S
H505 C501 0.950 . S
H506 C503 0.950 . S
C507 C498 1.390 1_655 S
C507 H500 0.950 . S
C507 C504 1.387 . S
C508 C509 1.387 . S
C508 H512 0.950 . S
C508 C517 1.390 1_665 S
C509 C508 1.387 . S
C509 C511 1.387 . S
H510 C517 0.950 . S
C511 C509 1.387 . S
C511 C513 1.390 1_665 S
C511 H515 0.950 . S
H512 C508 0.950 . S
C513 C511 1.390 1_445 S
C513 C514 1.387 . S
C513 H516 0.950 . S
C514 C513 1.387 . S
C514 C517 1.387 . S
H515 C511 0.950 . S
H516 C513 0.950 . S
C517 C508 1.390 1_445 S
C517 H510 0.950 . S
C517 C514 1.387 . S
C518 C519 1.387 . S
C518 H522 0.950 . S
C518 C527 1.390 1_565 S
C519 C518 1.387 . S
C519 C521 1.387 . S
H520 C527 0.950 . S
C521 C519 1.387 . S
C521 C523 1.390 1_565 S
C521 H525 0.950 . S
H522 C518 0.950 . S
C523 C521 1.390 1_545 S
C523 C524 1.387 . S
C523 H526 0.950 . S
C524 C523 1.387 . S
C524 C527 1.387 . S
H525 C521 0.950 . S
H526 C523 0.950 . S
C527 C518 1.390 1_545 S
C527 H520 0.950 . S
C527 C524 1.387 . S
C209 C95 1.613 . S
C214 C10 1.612 . S
C219 C56 1.611 . S
C224 C17 1.611 . S
C229 C75 1.612 . S
C234 C30 1.612 . S
C239 C49 1.614 . S
C244 C88 1.614 . S
C249 C205 1.610 . S
C254 C108 1.610 . S
C259 C166 1.612 . S
C264 C127 1.613 . S
C269 C140 1.610 . S
C274 C173 1.610 . S
C279 C153 1.611 . S
C284 C192 1.611 . S
C289 C29 1.380 . S
C294 C5 1.380 . S
C299 C16 1.375 . S
C304 C44 1.375 . S
C309 C55 1.375 . S
C314 C83 1.375 . S
C319 C94 1.375 . S
C324 C70 1.375 . S
C329 C107 1.380 . S
C334 C135 1.380 . S
C339 C122 1.375 . S
C344 C148 1.375 . S
C349 C187 1.380 . S
C354 C161 1.380 . S
C359 C172 1.380 . S
C364 C200 1.380 . S
C369 C81 1.445 . S
C374 C3 1.445 . S
C379 C18 1.445 . S
C384 C96 1.445 . S
C389 C31 1.445 . S
C394 C57 1.445 . S
C399 C42 1.447 . S
C404 C68 1.447 . S
C409 C109 1.447 . S
C414 C185 1.447 . S
C419 C120 1.447 . S
C424 C198 1.447 . S
C429 C133 1.445 . S
C434 C159 1.445 . S
C439 C146 1.447 . S
C444 C174 1.447 . S
C449 C4 1.375 . S
C454 C199 1.373 . S
C459 C160 1.375 . S
C464 C23 1.373 . S
C469 C36 1.373 . S
C474 C179 1.375 . S
C479 C186 1.375 . S
C484 C43 1.373 . S
C489 C121 1.375 . S
C494 C62 1.373 . S
C499 C69 1.375 . S
C504 C134 1.373 . S
C509 C147 1.375 . S
C514 C82 1.373 . S
C519 C114 1.373 . S
C524 C101 1.375 . S
