# Generated by pormake.
# Topology whc, (6)-cn, num edge types: 1
# Building blocks:
#     Node 0, Type 0, BuildingBlock: OJICUG_clean_sbu_0, # of connection points: 6
#     Node 1, Type 0, BuildingBlock: OJICUG_clean_sbu_0, # of connection points: 6
#     Node 2, Type 0, BuildingBlock: OJICUG_clean_sbu_0, # of connection points: 6
#     Node 3, Type 0, BuildingBlock: OJICUG_clean_sbu_0, # of connection points: 6
#     Node 4, Type 0, BuildingBlock: OJICUG_clean_sbu_0, # of connection points: 6
#     Node 5, Type 0, BuildingBlock: OJICUG_clean_sbu_0, # of connection points: 6
#     Node 6, Type 0, BuildingBlock: OJICUG_clean_sbu_0, # of connection points: 6
#     Node 7, Type 0, BuildingBlock: OJICUG_clean_sbu_0, # of connection points: 6
#     Edge 8, Type (0, 0), BuildingBlock: TEMPAE_clean_linker_10, # of connection points: 2
#     Edge 9, Type (0, 0), BuildingBlock: TEMPAE_clean_linker_10, # of connection points: 2
#     Edge 10, Type (0, 0), BuildingBlock: TEMPAE_clean_linker_10, # of connection points: 2
#     Edge 11, Type (0, 0), BuildingBlock: TEMPAE_clean_linker_10, # of connection points: 2
#     Edge 12, Type (0, 0), BuildingBlock: TEMPAE_clean_linker_10, # of connection points: 2
#     Edge 13, Type (0, 0), BuildingBlock: TEMPAE_clean_linker_10, # of connection points: 2
#     Edge 14, Type (0, 0), BuildingBlock: TEMPAE_clean_linker_10, # of connection points: 2
#     Edge 15, Type (0, 0), BuildingBlock: TEMPAE_clean_linker_10, # of connection points: 2
#     Edge 16, Type (0, 0), BuildingBlock: TEMPAE_clean_linker_10, # of connection points: 2
#     Edge 17, Type (0, 0), BuildingBlock: TEMPAE_clean_linker_10, # of connection points: 2
#     Edge 18, Type (0, 0), BuildingBlock: TEMPAE_clean_linker_10, # of connection points: 2
#     Edge 19, Type (0, 0), BuildingBlock: TEMPAE_clean_linker_10, # of connection points: 2
#     Edge 20, Type (0, 0), BuildingBlock: TEMPAE_clean_linker_10, # of connection points: 2
#     Edge 21, Type (0, 0), BuildingBlock: TEMPAE_clean_linker_10, # of connection points: 2
#     Edge 22, Type (0, 0), BuildingBlock: TEMPAE_clean_linker_10, # of connection points: 2
#     Edge 23, Type (0, 0), BuildingBlock: TEMPAE_clean_linker_10, # of connection points: 2
#     Edge 24, Type (0, 0), BuildingBlock: TEMPAE_clean_linker_10, # of connection points: 2
#     Edge 25, Type (0, 0), BuildingBlock: TEMPAE_clean_linker_10, # of connection points: 2
#     Edge 26, Type (0, 0), BuildingBlock: TEMPAE_clean_linker_10, # of connection points: 2
#     Edge 27, Type (0, 0), BuildingBlock: TEMPAE_clean_linker_10, # of connection points: 2
#     Edge 28, Type (0, 0), BuildingBlock: TEMPAE_clean_linker_10, # of connection points: 2
#     Edge 29, Type (0, 0), BuildingBlock: TEMPAE_clean_linker_10, # of connection points: 2
#     Edge 30, Type (0, 0), BuildingBlock: TEMPAE_clean_linker_10, # of connection points: 2
#     Edge 31, Type (0, 0), BuildingBlock: TEMPAE_clean_linker_10, # of connection points: 2
# Relax obj value: 0.339
# Max RMSD: 0.283
# Mean RMSD: 0.283
data_MOF--net-whc--node1-OJICUG_clean_sbu_0--edge1-TEMPAE_clean_linker_10
_symmetry_space_group_name_H-M    P1
_symmetry_Int_Tables_number       1
_symmetry_cell_setting            triclinic
loop_
_symmetry_equiv_pos_as_xyz
'x, y, z'
_cell_length_a     35.511565
_cell_length_b     35.653712
_cell_length_c     31.334441
_cell_angle_alpha  90.172368
_cell_angle_beta   90.110144
_cell_angle_gamma 89.953995
loop_
_atom_site_label
_atom_site_type_symbol
_atom_site_fract_x
_atom_site_fract_y
_atom_site_fract_z
_atom_type_partial_charge
Sc0 Sc 0.45839 0.26161 0.13596 0.0
Sc1 Sc 0.414 0.18907 0.07896 0.0
Sc2 Sc 0.50983 0.18721 0.09544 0.0
O3 O 0.46039 0.21327 0.10344 0.0
C4 C 0.53857 0.27142 0.09872 0.0
C5 C 0.40246 0.27507 0.05707 0.0
C6 C 0.47493 0.18562 0.00522 0.0
C7 C 0.382 0.22292 0.16546 0.0
C8 C 0.5087 0.20593 0.19252 0.0
C9 C 0.45744 0.11933 0.10846 0.0
O10 O 0.50626 0.28597 0.10367 0.0
O11 O 0.39838 0.24045 0.04783 0.0
O12 O 0.50345 0.19503 0.02769 0.0
O13 O 0.41042 0.24375 0.17236 0.0
O14 O 0.51373 0.18099 0.16368 0.0
O15 O 0.42656 0.13697 0.111 0.0
O16 O 0.49404 0.23809 0.18532 0.0
O17 O 0.37861 0.20289 0.13215 0.0
O18 O 0.48576 0.13279 0.08975 0.0
O19 O 0.422 0.28675 0.08867 0.0
O20 O 0.54363 0.23636 0.09968 0.0
O21 O 0.44434 0.17359 0.02159 0.0
Sc22 Sc 0.23894 0.54553 0.86457 0.0
Sc23 Sc 0.16252 0.59064 0.91445 0.0
Sc24 Sc 0.15805 0.49437 0.88803 0.0
O25 O 0.18661 0.54354 0.88924 0.0
C26 C 0.19448 0.49866 0.79495 0.0
C27 C 0.21009 0.6271 0.83997 0.0
C28 C 0.09807 0.55557 0.8583 0.0
C29 C 0.2451 0.58854 0.95391 0.0
C30 C 0.24038 0.46428 0.90675 0.0
C31 C 0.13224 0.52665 0.97717 0.0
O32 O 0.22125 0.52013 0.80621 0.0
O33 O 0.18575 0.62941 0.86926 0.0
O34 O 0.10872 0.52241 0.86672 0.0
O35 O 0.25881 0.5713 0.92187 0.0
O36 O 0.20489 0.46083 0.90873 0.0
O37 O 0.1351 0.5604 0.96483 0.0
O38 O 0.25616 0.49292 0.89102 0.0
O39 O 0.21051 0.59823 0.95683 0.0
O40 O 0.14224 0.49904 0.9541 0.0
O41 O 0.23004 0.59815 0.83396 0.0
O42 O 0.17048 0.48563 0.82116 0.0
O43 O 0.11453 0.58495 0.87201 0.0
Sc44 Sc 0.54089 0.72051 0.13689 0.0
Sc45 Sc 0.58599 0.79175 0.07752 0.0
Sc46 Sc 0.48761 0.79272 0.09065 0.0
O47 O 0.53823 0.76823 0.10163 0.0
C48 C 0.46359 0.70743 0.08732 0.0
C49 C 0.59736 0.70362 0.0609 0.0
C50 C 0.52786 0.80028 -3e-05 0.0
C51 C 0.61661 0.76268 0.16622 0.0
C52 C 0.4846 0.77158 0.19006 0.0
C53 C 0.54016 0.86311 0.10784 0.0
O54 O 0.49071 0.69549 0.10994 0.0
O55 O 0.60504 0.73801 0.05414 0.0
O56 O 0.49816 0.79764 0.02257 0.0
O57 O 0.59102 0.73803 0.16981 0.0
O58 O 0.47317 0.79036 0.15795 0.0
O59 O 0.57148 0.84769 0.09907 0.0
O60 O 0.50886 0.74545 0.18732 0.0
O61 O 0.61803 0.78536 0.13518 0.0
O62 O 0.50874 0.84684 0.10416 0.0
O63 O 0.57393 0.6927 0.08895 0.0
O64 O 0.45986 0.74139 0.07665 0.0
O65 O 0.56067 0.80013 0.01612 0.0
Sc66 Sc 0.76256 0.43335 0.86322 0.0
Sc67 Sc 0.83694 0.38966 0.91601 0.0
Sc68 Sc 0.84077 0.48545 0.89433 0.0
O69 O 0.81302 0.43633 0.89161 0.0
C70 C 0.80908 0.4855 0.80012 0.0
C71 C 0.79471 0.35553 0.83543 0.0
C72 C 0.90242 0.42691 0.86636 0.0
C73 C 0.75402 0.38381 0.94777 0.0
C74 C 0.7559 0.51143 0.90996 0.0
C75 C 0.8608 0.45261 0.98328 0.0
O76 O 0.77967 0.46748 0.81061 0.0
O77 O 0.81277 0.35131 0.87004 0.0
O78 O 0.89365 0.45856 0.88223 0.0
O79 O 0.74151 0.39795 0.91322 0.0
O80 O 0.79101 0.5179 0.90755 0.0
O81 O 0.86438 0.41983 0.96759 0.0
O82 O 0.74116 0.48079 0.89774 0.0
O83 O 0.78893 0.38175 0.95722 0.0
O84 O 0.84811 0.48 0.96179 0.0
O85 O 0.77906 0.38622 0.82544 0.0
O86 O 0.83527 0.49342 0.82641 0.0
O87 O 0.88377 0.39706 0.8729 0.0
Sc88 Sc 0.48941 0.20864 0.59729 0.0
Sc89 Sc 0.58663 0.19251 0.58385 0.0
Sc90 Sc 0.5542 0.27583 0.63282 0.0
O91 O 0.54352 0.22568 0.60453 0.0
C92 C 0.48142 0.29612 0.57936 0.0
C93 C 0.52573 0.18463 0.50891 0.0
C94 C 0.61358 0.2743 0.55645 0.0
C95 C 0.53069 0.13238 0.62192 0.0
C96 C 0.49044 0.24074 0.69196 0.0
C97 C 0.6202 0.22486 0.67055 0.0
O98 O 0.46898 0.26285 0.57948 0.0
O99 O 0.55818 0.17997 0.5252 0.0
O100 O 0.59439 0.29092 0.58501 0.0
O101 O 0.50204 0.15256 0.61487 0.0
O102 O 0.51565 0.26511 0.68432 0.0
O103 O 0.62062 0.2015 0.6399 0.0
O104 O 0.47813 0.21804 0.66385 0.0
O105 O 0.56415 0.14273 0.61373 0.0
O106 O 0.59729 0.2522 0.67244 0.0
O107 O 0.49769 0.19677 0.53022 0.0
O108 O 0.51274 0.30551 0.59562 0.0
O109 O 0.61331 0.23886 0.5513 0.0
Sc110 Sc 0.15473 0.48409 0.38445 0.0
Sc111 Sc 0.19082 0.3965 0.40767 0.0
Sc112 Sc 0.23798 0.45498 0.33766 0.0
O113 O 0.19493 0.44586 0.37665 0.0
C114 C 0.17036 0.48935 0.28456 0.0
C115 C 0.10488 0.41799 0.39941 0.0
C116 C 0.20911 0.37036 0.31741 0.0
C117 C 0.17718 0.45388 0.47869 0.0
C118 C 0.2276 0.53507 0.38262 0.0
C119 C 0.27895 0.40708 0.40464 0.0
O120 O 0.1503 0.49694 0.31709 0.0
O121 O 0.13032 0.40012 0.41913 0.0
O122 O 0.23198 0.39798 0.31342 0.0
O123 O 0.15683 0.47401 0.45367 0.0
O124 O 0.24629 0.51201 0.35976 0.0
O125 O 0.25077 0.38523 0.40648 0.0
O126 O 0.19424 0.52852 0.39525 0.0
O127 O 0.19698 0.42637 0.46565 0.0
O128 O 0.27742 0.43841 0.38585 0.0
O129 O 0.11396 0.44147 0.37137 0.0
O130 O 0.20216 0.47317 0.28696 0.0
O131 O 0.18568 0.36752 0.34809 0.0
Sc132 Sc 0.49012 0.805 0.58831 0.0
Sc133 Sc 0.39138 0.81046 0.57769 0.0
Sc134 Sc 0.43436 0.7302 0.62314 0.0
O135 O 0.4385 0.78189 0.59635 0.0
C136 C 0.50719 0.71954 0.56571 0.0
C137 C 0.44828 0.8238 0.50048 0.0
C138 C 0.37268 0.7261 0.54943 0.0
C139 C 0.44186 0.87597 0.61595 0.0
C140 C 0.49529 0.77051 0.68224 0.0
C141 C 0.36477 0.77452 0.66474 0.0
O142 O 0.51449 0.75428 0.56493 0.0
O143 O 0.41561 0.82327 0.51691 0.0
O144 O 0.39614 0.71097 0.57477 0.0
O145 O 0.47234 0.85831 0.61047 0.0
O146 O 0.47138 0.74482 0.67477 0.0
O147 O 0.36182 0.79952 0.63616 0.0
O148 O 0.50546 0.7942 0.65417 0.0
O149 O 0.40984 0.86316 0.60516 0.0
O150 O 0.38892 0.7482 0.66329 0.0
O151 O 0.47819 0.81818 0.52212 0.0
O152 O 0.47945 0.70592 0.58589 0.0
O153 O 0.36743 0.76136 0.54756 0.0
Sc154 Sc 0.83832 0.50717 0.39049 0.0
Sc155 Sc 0.80903 0.59708 0.41624 0.0
Sc156 Sc 0.75597 0.54229 0.34619 0.0
O157 O 0.80058 0.54833 0.38442 0.0
C158 C 0.81942 0.50255 0.29115 0.0
C159 C 0.89324 0.57024 0.4032 0.0
C160 C 0.7891 0.62521 0.32633 0.0
C161 C 0.82234 0.53833 0.48597 0.0
C162 C 0.7619 0.46154 0.3904 0.0
C163 C 0.71981 0.59218 0.41631 0.0
O164 O 0.83966 0.49377 0.32314 0.0
O165 O 0.86972 0.59012 0.42352 0.0
O166 O 0.76537 0.59842 0.32182 0.0
O167 O 0.8399 0.51684 0.45977 0.0
O168 O 0.74416 0.48601 0.36854 0.0
O169 O 0.74997 0.61103 0.42006 0.0
O170 O 0.79595 0.46576 0.40217 0.0
O171 O 0.80418 0.56728 0.47421 0.0
O172 O 0.71812 0.5623 0.3944 0.0
O173 O 0.88194 0.54645 0.37632 0.0
O174 O 0.78913 0.52125 0.29444 0.0
O175 O 0.81257 0.62725 0.35719 0.0
C176 C 0.23172 0.34328 0.24945 0.0
C177 C 0.21562 0.33768 0.28963 0.0
C178 C 0.25069 0.31416 0.2287 0.0
C179 C 0.25353 0.27876 0.24889 0.0
C180 C 0.23253 0.27153 0.28626 0.0
C181 C 0.21369 0.30131 0.30642 0.0
C182 C 0.27171 0.32281 0.18801 0.0
C183 C 0.23342 0.23372 0.30766 0.0
C184 C 0.3132 0.21575 0.18043 0.0
C185 C 0.34922 0.22684 0.19414 0.0
C186 C 0.28083 0.22888 0.20129 0.0
C187 C 0.28488 0.25368 0.23625 0.0
C188 C 0.3211 0.26072 0.25356 0.0
C189 C 0.35288 0.24708 0.23229 0.0
C190 C 0.24267 0.21927 0.18311 0.0
C191 C 0.32667 0.28623 0.29167 0.0
H192 H 0.23239 0.37128 0.23603 0.0
H193 H 0.20083 0.29677 0.33733 0.0
H194 H 0.30236 0.32428 0.19485 0.0
H195 H 0.26724 0.30034 0.16402 0.0
H196 H 0.26279 0.34996 0.17388 0.0
H197 H 0.20757 0.22907 0.32684 0.0
H198 H 0.23627 0.21067 0.284 0.0
H199 H 0.25795 0.2324 0.32959 0.0
H200 H 0.31004 0.19935 0.15146 0.0
H201 H 0.38064 0.25478 0.24381 0.0
H202 H 0.23456 0.24073 0.15922 0.0
H203 H 0.22073 0.21882 0.20826 0.0
H204 H 0.2432 0.19159 0.16674 0.0
H205 H 0.32007 0.31556 0.2825 0.0
H206 H 0.35604 0.28534 0.30393 0.0
H207 H 0.30737 0.27834 0.31791 0.0
C208 C 0.23262 0.65471 0.77248 0.0
C209 C 0.21828 0.6601 0.81357 0.0
C210 C 0.24921 0.68425 0.7503 0.0
C211 C 0.25166 0.72003 0.76997 0.0
C212 C 0.2334 0.72663 0.80939 0.0
C213 C 0.21681 0.69638 0.83092 0.0
C214 C 0.2675 0.67604 0.70774 0.0
C215 C 0.23422 0.76458 0.83076 0.0
C216 C 0.34583 0.75512 0.73733 0.0
C217 C 0.33649 0.77278 0.69892 0.0
C218 C 0.31771 0.74224 0.7647 0.0
C219 C 0.27948 0.74699 0.75292 0.0
C220 C 0.27008 0.76985 0.71766 0.0
C221 C 0.29891 0.78255 0.69075 0.0
C222 C 0.32904 0.71914 0.80297 0.0
C223 C 0.22965 0.77709 0.70541 0.0
H224 H 0.23288 0.62676 0.75869 0.0
H225 H 0.20533 0.70066 0.8626 0.0
H226 H 0.25914 0.69733 0.68381 0.0
H227 H 0.29859 0.67726 0.71121 0.0
H228 H 0.25983 0.64787 0.69522 0.0
H229 H 0.20892 0.76875 0.85103 0.0
H230 H 0.25935 0.76638 0.85176 0.0
H231 H 0.23581 0.78766 0.80716 0.0
H232 H 0.37506 0.74861 0.74426 0.0
H233 H 0.29166 0.79688 0.66139 0.0
H234 H 0.32408 0.68899 0.79601 0.0
H235 H 0.31184 0.7268 0.83117 0.0
H236 H 0.35926 0.72287 0.81119 0.0
H237 H 0.21909 0.75329 0.6859 0.0
H238 H 0.22697 0.80307 0.68614 0.0
H239 H 0.2115 0.77955 0.73408 0.0
C240 C 0.77074 0.65168 0.25666 0.0
C241 C 0.78402 0.65773 0.29816 0.0
C242 C 0.75176 0.68004 0.23469 0.0
C243 C 0.74591 0.7151 0.25504 0.0
C244 C 0.7645 0.7231 0.29399 0.0
C245 C 0.78344 0.69408 0.31537 0.0
C246 C 0.73352 0.6706 0.1924 0.0
C247 C 0.76062 0.76074 0.31561 0.0
C248 C 0.68431 0.77444 0.18433 0.0
C249 C 0.64873 0.76086 0.19621 0.0
C250 C 0.71682 0.76338 0.20659 0.0
C251 C 0.71337 0.7381 0.24104 0.0
C252 C 0.67715 0.72846 0.25644 0.0
C253 C 0.64525 0.74007 0.23384 0.0
C254 C 0.75477 0.77585 0.19047 0.0
C255 C 0.67201 0.70232 0.29388 0.0
H256 H 0.77198 0.62368 0.24306 0.0
H257 H 0.79411 0.69894 0.34736 0.0
H258 H 0.70271 0.66722 0.19695 0.0
H259 H 0.73788 0.69355 0.16916 0.0
H260 H 0.74482 0.64418 0.17852 0.0
H261 H 0.78515 0.76654 0.33667 0.0
H262 H 0.75792 0.78369 0.29195 0.0
H263 H 0.73494 0.7608 0.33572 0.0
H264 H 0.68723 0.79117 0.1557 0.0
H265 H 0.61771 0.73043 0.24389 0.0
H266 H 0.76473 0.75583 0.16577 0.0
H267 H 0.77603 0.77673 0.21644 0.0
H268 H 0.7529 0.80401 0.17551 0.0
H269 H 0.68135 0.67366 0.28483 0.0
H270 H 0.64219 0.70077 0.30439 0.0
H271 H 0.68944 0.71157 0.32134 0.0
C272 C 0.77353 0.32807 0.76681 0.0
C273 C 0.78605 0.32256 0.80869 0.0
C274 C 0.75371 0.29998 0.74524 0.0
C275 C 0.74658 0.26553 0.76616 0.0
C276 C 0.76417 0.25784 0.80571 0.0
C277 C 0.78369 0.28669 0.82682 0.0
C278 C 0.7364 0.30913 0.7024 0.0
C279 C 0.75913 0.22072 0.82792 0.0
C280 C 0.64636 0.24381 0.74077 0.0
C281 C 0.65067 0.22382 0.70258 0.0
C282 C 0.67768 0.25361 0.76541 0.0
C283 C 0.71407 0.2429 0.75141 0.0
C284 C 0.71792 0.21779 0.71668 0.0
C285 C 0.686 0.20861 0.69231 0.0
C286 C 0.67207 0.27944 0.80321 0.0
C287 C 0.75598 0.20389 0.70238 0.0
H288 H 0.7764 0.35547 0.75222 0.0
H289 H 0.79403 0.282 0.85894 0.0
H290 H 0.74149 0.28607 0.67933 0.0
H291 H 0.70546 0.31236 0.70595 0.0
H292 H 0.74783 0.33551 0.68878 0.0
H293 H 0.78405 0.21407 0.84801 0.0
H294 H 0.73426 0.22229 0.84923 0.0
H295 H 0.75456 0.19753 0.80479 0.0
H296 H 0.61884 0.25451 0.74957 0.0
H297 H 0.68941 0.19234 0.66329 0.0
H298 H 0.68245 0.30792 0.79519 0.0
H299 H 0.68834 0.26937 0.83114 0.0
H300 H 0.64197 0.28171 0.81251 0.0
H301 H 0.76797 0.22384 0.67897 0.0
H302 H 0.75358 0.17611 0.68645 0.0
H303 H 0.7759 0.2016 0.72958 0.0
C304 C 0.48512 0.26292 0.76747 0.0
C305 C 0.47997 0.23449 0.737 0.0
C306 C 0.4821 0.25528 0.81123 0.0
C307 C 0.47465 0.21817 0.82473 0.0
C308 C 0.468 0.18968 0.7941 0.0
C309 C 0.4703 0.19829 0.75057 0.0
C310 C 0.48825 0.28662 0.843 0.0
C311 C 0.46032 0.14969 0.80728 0.0
C312 C 0.50899 0.19125 0.93547 0.0
C313 C 0.47534 0.19183 0.95866 0.0
C314 C 0.50908 0.19916 0.89156 0.0
C315 C 0.47488 0.20887 0.87088 0.0
C316 C 0.44093 0.2098 0.89431 0.0
C317 C 0.44153 0.20088 0.93778 0.0
C318 C 0.54574 0.19726 0.8673 0.0
C319 C 0.40413 0.22116 0.8738 0.0
H320 H 0.49255 0.29094 0.75712 0.0
H321 H 0.46674 0.17605 0.72724 0.0
H322 H 0.46482 0.28754 0.86635 0.0
H323 H 0.51457 0.28147 0.8612 0.0
H324 H 0.49043 0.31443 0.8273 0.0
H325 H 0.45475 0.13107 0.77948 0.0
H326 H 0.48491 0.1385 0.82509 0.0
H327 H 0.43574 0.1486 0.82901 0.0
H328 H 0.53514 0.18443 0.95159 0.0
H329 H 0.41552 0.20221 0.95579 0.0
H330 H 0.55266 0.22526 0.85415 0.0
H331 H 0.54297 0.17767 0.83989 0.0
H332 H 0.56955 0.18784 0.88769 0.0
H333 H 0.40596 0.25067 0.86286 0.0
H334 H 0.37995 0.21869 0.89606 0.0
H335 H 0.3984 0.20356 0.84528 0.0
C336 C 0.12421 0.4841 0.04004 0.0
C337 C 0.12169 0.5201 0.0223 0.0
C338 C 0.12322 0.47907 0.08442 0.0
C339 C 0.11992 0.51079 0.11147 0.0
C340 C 0.11312 0.54652 0.09362 0.0
C341 C 0.11391 0.55073 0.0492 0.0
C342 C 0.12953 0.44032 0.10232 0.0
C343 C 0.10912 0.58101 0.12133 0.0
C344 C 0.11773 0.49677 0.23184 0.0
C345 C 0.15626 0.49853 0.24157 0.0
C346 C 0.10505 0.50113 0.18959 0.0
C347 C 0.13159 0.50789 0.15683 0.0
C348 C 0.17032 0.51124 0.16699 0.0
C349 C 0.18215 0.50624 0.20913 0.0
C350 C 0.06363 0.49697 0.17985 0.0
C351 C 0.19953 0.51927 0.13317 0.0
H352 H 0.12948 0.46011 0.01957 0.0
H353 H 0.11107 0.57861 0.03587 0.0
H354 H 0.15908 0.43785 0.11358 0.0
H355 H 0.11089 0.43526 0.13008 0.0
H356 H 0.12444 0.41813 0.07801 0.0
H357 H 0.09697 0.60499 0.10338 0.0
H358 H 0.09109 0.57526 0.14941 0.0
H359 H 0.1373 0.5894 0.13338 0.0
H360 H 0.09772 0.49046 0.2569 0.0
H361 H 0.21192 0.50795 0.21669 0.0
H362 H 0.05883 0.46999 0.16297 0.0
H363 H 0.05379 0.51969 0.15844 0.0
H364 H 0.04623 0.49723 0.20929 0.0
H365 H 0.20024 0.49596 0.10963 0.0
H366 H 0.22823 0.52268 0.1468 0.0
H367 H 0.1921 0.54523 0.11563 0.0
C368 C 0.48999 0.80381 0.93194 0.0
C369 C 0.52493 0.80055 0.95258 0.0
C370 C 0.48718 0.80104 0.88722 0.0
C371 C 0.52001 0.79438 0.86262 0.0
C372 C 0.55539 0.79183 0.88316 0.0
C373 C 0.55745 0.79517 0.9277 0.0
C374 C 0.44896 0.80428 0.86637 0.0
C375 C 0.59097 0.78421 0.85823 0.0
C376 C 0.50526 0.7457 0.7559 0.0
C377 C 0.50747 0.77571 0.72715 0.0
C378 C 0.51027 0.75129 0.79989 0.0
C379 C 0.51712 0.7879 0.81571 0.0
C380 C 0.52068 0.81814 0.78676 0.0
C381 C 0.51609 0.81163 0.74277 0.0
C382 C 0.50706 0.71813 0.82957 0.0
C383 C 0.52769 0.85762 0.80237 0.0
H384 H 0.46473 0.80802 0.95072 0.0
H385 H 0.58465 0.79236 0.94311 0.0
H386 H 0.44971 0.82561 0.84067 0.0
H387 H 0.44125 0.77713 0.85134 0.0
H388 H 0.42663 0.8121 0.88953 0.0
H389 H 0.61651 0.78469 0.87877 0.0
H390 H 0.58907 0.7563 0.84262 0.0
H391 H 0.59439 0.80531 0.83259 0.0
H392 H 0.49865 0.71786 0.74406 0.0
H393 H 0.51729 0.83508 0.72086 0.0
H394 H 0.48238 0.72187 0.85081 0.0
H395 H 0.5324 0.71627 0.85023 0.0
H396 H 0.50382 0.69121 0.81201 0.0
H397 H 0.50318 0.86735 0.82133 0.0
H398 H 0.53222 0.87755 0.77569 0.0
H399 H 0.55265 0.85841 0.82368 0.0
C400 C 0.80463 0.48797 0.21532 0.0
C401 C 0.83152 0.49124 0.2479 0.0
C402 C 0.81529 0.47969 0.1734 0.0
C403 C 0.85392 0.47511 0.1636 0.0
C404 C 0.88126 0.47762 0.19643 0.0
C405 C 0.86968 0.4854 0.23841 0.0
C406 C 0.78514 0.47655 0.13942 0.0
C407 C 0.9227 0.47323 0.18698 0.0
C408 C 0.86721 0.42711 0.05712 0.0
C409 C 0.86762 0.45803 0.02949 0.0
C410 C 0.86571 0.43215 0.10148 0.0
C411 C 0.86507 0.46894 0.1185 0.0
C412 C 0.86902 0.50011 0.09098 0.0
C413 C 0.86999 0.49429 0.04673 0.0
C414 C 0.86137 0.3982 0.12972 0.0
C415 C 0.86914 0.53977 0.108 0.0
H416 H 0.77506 0.49206 0.22257 0.0
H417 H 0.89057 0.48811 0.2635 0.0
H418 H 0.78909 0.49885 0.11522 0.0
H419 H 0.78739 0.44916 0.1227 0.0
H420 H 0.75629 0.47917 0.15277 0.0
H421 H 0.94013 0.4734 0.21647 0.0
H422 H 0.92791 0.44667 0.16943 0.0
H423 H 0.93216 0.49648 0.16613 0.0
H424 H 0.86547 0.39896 0.04411 0.0
H425 H 0.87086 0.5183 0.0256 0.0
H426 H 0.83168 0.39617 0.14046 0.0
H427 H 0.87926 0.40069 0.15864 0.0
H428 H 0.86876 0.37181 0.11273 0.0
H429 H 0.84026 0.54751 0.11829 0.0
H430 H 0.87847 0.56025 0.08355 0.0
H431 H 0.88784 0.54216 0.13627 0.0
C432 C 0.52762 0.22529 0.26558 0.0
C433 C 0.51689 0.19672 0.23734 0.0
C434 C 0.52969 0.21879 0.30952 0.0
C435 C 0.52013 0.18298 0.3256 0.0
C436 C 0.5106 0.15358 0.2971 0.0
C437 C 0.50933 0.16078 0.25311 0.0
C438 C 0.54091 0.25062 0.33884 0.0
C439 C 0.49997 0.11514 0.31313 0.0
C440 C 0.55331 0.16652 0.43852 0.0
C441 C 0.52196 0.17851 0.46228 0.0
C442 C 0.55244 0.16585 0.39388 0.0
C443 C 0.51933 0.17707 0.3724 0.0
C444 C 0.48676 0.18676 0.39604 0.0
C445 C 0.48848 0.18749 0.4408 0.0
C446 C 0.58779 0.15552 0.36977 0.0
C447 C 0.45074 0.1984 0.37407 0.0
H448 H 0.53357 0.25307 0.25331 0.0
H449 H 0.50037 0.13885 0.23135 0.0
H450 H 0.51692 0.25815 0.35984 0.0
H451 H 0.56456 0.24185 0.35975 0.0
H452 H 0.54959 0.27605 0.32099 0.0
H453 H 0.49701 0.09446 0.28673 0.0
H454 H 0.52134 0.10466 0.33605 0.0
H455 H 0.47278 0.11689 0.33042 0.0
H456 H 0.57927 0.15911 0.45468 0.0
H457 H 0.46404 0.19651 0.4588 0.0
H458 H 0.59959 0.18098 0.35452 0.0
H459 H 0.58139 0.13514 0.34396 0.0
H460 H 0.60969 0.14329 0.39095 0.0
H461 H 0.4548 0.22604 0.35856 0.0
H462 H 0.4268 0.20072 0.39671 0.0
H463 H 0.44324 0.17797 0.34866 0.0
C464 C 0.19819 0.43824 0.55242 0.0
C465 C 0.17659 0.461 0.52523 0.0
C466 C 0.19819 0.44382 0.59655 0.0
C467 C 0.17606 0.47294 0.61413 0.0
C468 C 0.15367 0.49572 0.58719 0.0
C469 C 0.15431 0.48957 0.5429 0.0
C470 C 0.22251 0.41897 0.62427 0.0
C471 C 0.12974 0.52703 0.60505 0.0
C472 C 0.16065 0.46794 0.73373 0.0
C473 C 0.18963 0.49126 0.74877 0.0
C474 C 0.15513 0.46242 0.68978 0.0
C475 C 0.17889 0.48096 0.66041 0.0
C476 C 0.2077 0.50498 0.67535 0.0
C477 C 0.21284 0.50968 0.71927 0.0
C478 C 0.1242 0.43648 0.67476 0.0
C479 C 0.23363 0.52525 0.64494 0.0
H480 H 0.21548 0.41597 0.53929 0.0
H481 H 0.13755 0.50725 0.52217 0.0
H482 H 0.24455 0.43607 0.64022 0.0
H483 H 0.20526 0.40592 0.6497 0.0
H484 H 0.23655 0.39634 0.60574 0.0
H485 H 0.11178 0.54027 0.58023 0.0
H486 H 0.11139 0.51631 0.63088 0.0
H487 H 0.14814 0.5489 0.61929 0.0
H488 H 0.14229 0.45396 0.75623 0.0
H489 H 0.23503 0.52814 0.7304 0.0
H490 H 0.10894 0.42327 0.70172 0.0
H491 H 0.1361 0.41398 0.6543 0.0
H492 H 0.10369 0.45232 0.65505 0.0
H493 H 0.25072 0.50456 0.62687 0.0
H494 H 0.25305 0.54479 0.66171 0.0
H495 H 0.21695 0.54144 0.62135 0.0
C496 C 0.46216 0.81961 0.24272 0.0
C497 C 0.47206 0.78239 0.23337 0.0
C498 C 0.4561 0.83126 0.28506 0.0
C499 C 0.45976 0.80494 0.3186 0.0
C500 C 0.46789 0.76696 0.30903 0.0
C501 C 0.47416 0.75623 0.26661 0.0
C502 C 0.44775 0.87207 0.29383 0.0
C503 C 0.47104 0.73778 0.34375 0.0
C504 C 0.48557 0.82968 0.43274 0.0
C505 C 0.45072 0.82597 0.45327 0.0
C506 C 0.48852 0.82551 0.38826 0.0
C507 C 0.456 0.81671 0.36396 0.0
C508 C 0.4205 0.81499 0.38414 0.0
C509 C 0.41823 0.81998 0.42843 0.0
C510 C 0.52675 0.82851 0.36759 0.0
C511 C 0.38522 0.80541 0.35942 0.0
H512 H 0.4609 0.84006 0.21722 0.0
H513 H 0.48154 0.72736 0.25953 0.0
H514 H 0.43715 0.88659 0.26487 0.0
H515 H 0.42668 0.87538 0.31966 0.0
H516 H 0.47401 0.88619 0.30439 0.0
H517 H 0.47524 0.70907 0.3307 0.0
H518 H 0.49513 0.74455 0.365 0.0
H519 H 0.44524 0.73785 0.36367 0.0
H520 H 0.51076 0.83459 0.45154 0.0
H521 H 0.39109 0.81701 0.4438 0.0
H522 H 0.52522 0.84671 0.33897 0.0
H523 H 0.53612 0.80032 0.35686 0.0
H524 H 0.54828 0.84002 0.3898 0.0
H525 H 0.38256 0.82366 0.33095 0.0
H526 H 0.35939 0.80843 0.37909 0.0
H527 H 0.38694 0.776 0.34788 0.0
C528 C 0.84182 0.5195 0.74077 0.0
C529 C 0.81387 0.49455 0.75446 0.0
C530 C 0.84694 0.5268 0.69713 0.0
C531 C 0.82382 0.50836 0.66678 0.0
C532 C 0.79595 0.48283 0.68042 0.0
C533 C 0.79124 0.47636 0.72402 0.0
C534 C 0.87685 0.55432 0.68349 0.0
C535 C 0.77056 0.46278 0.64898 0.0
C536 C 0.80243 0.55272 0.56041 0.0
C537 C 0.82403 0.53076 0.53232 0.0
C538 C 0.80326 0.54652 0.60438 0.0
C539 C 0.82635 0.51771 0.62088 0.0
C540 C 0.84895 0.49594 0.59304 0.0
C541 C 0.84733 0.50256 0.54892 0.0
C542 C 0.77855 0.57018 0.63306 0.0
C543 C 0.87411 0.46515 0.60978 0.0
H544 H 0.85949 0.53349 0.76412 0.0
H545 H 0.7699 0.45659 0.73416 0.0
H546 H 0.89847 0.53957 0.66421 0.0
H547 H 0.86438 0.57642 0.663 0.0
H548 H 0.89091 0.56799 0.71114 0.0
H549 H 0.75148 0.44244 0.66478 0.0
H550 H 0.75311 0.48354 0.63152 0.0
H551 H 0.78768 0.44751 0.62498 0.0
H552 H 0.7843 0.57463 0.54806 0.0
H553 H 0.86418 0.48559 0.52749 0.0
H554 H 0.79559 0.58293 0.65903 0.0
H555 H 0.75692 0.55222 0.64827 0.0
H556 H 0.764 0.59297 0.61541 0.0
H557 H 0.89256 0.47615 0.63553 0.0
H558 H 0.89204 0.45274 0.58437 0.0
H559 H 0.85664 0.44257 0.62385 0.0
C560 C 0.30338 0.43416 0.91611 0.0
C561 C 0.26458 0.43443 0.92463 0.0
C562 C 0.32714 0.40742 0.93472 0.0
C563 C 0.31176 0.38054 0.96279 0.0
C564 C 0.27256 0.38008 0.97084 0.0
C565 C 0.24937 0.40696 0.95149 0.0
C566 C 0.36881 0.40854 0.9252 0.0
C567 C 0.25528 0.35191 0.0009 0.0
C568 C 0.36694 0.29306 0.99125 0.0
C569 C 0.38169 0.3029 0.03132 0.0
C570 C 0.34475 0.31838 0.96804 0.0
C571 C 0.33693 0.35415 0.98557 0.0
C572 C 0.35242 0.36456 0.02551 0.0
C573 C 0.37479 0.33886 0.04782 0.0
C574 C 0.32912 0.30663 0.92519 0.0
C575 C 0.34454 0.40248 0.04524 0.0
H576 H 0.31534 0.45511 0.89513 0.0
H577 H 0.21946 0.40703 0.95833 0.0
H578 H 0.38466 0.4155 0.95472 0.0
H579 H 0.37867 0.3806 0.91424 0.0
H580 H 0.37587 0.42961 0.90043 0.0
H581 H 0.22412 0.35436 0.00239 0.0
H582 H 0.26266 0.32299 0.99077 0.0
H583 H 0.26684 0.35603 0.03351 0.0
H584 H 0.37246 0.26543 0.97813 0.0
H585 H 0.38594 0.34661 0.07884 0.0
H586 H 0.33749 0.32712 0.90037 0.0
H587 H 0.2979 0.30644 0.92634 0.0
H588 H 0.33901 0.27834 0.91537 0.0
H589 H 0.3531 0.42512 0.02307 0.0
H590 H 0.35956 0.40654 0.07604 0.0
H591 H 0.31387 0.40565 0.05091 0.0
C592 C 0.30425 0.57598 0.99326 0.0
C593 C 0.2719 0.59817 0.98816 0.0
C594 C 0.33472 0.58855 0.01763 0.0
C595 C 0.3326 0.6241 0.03747 0.0
C596 C 0.29832 0.64452 0.03673 0.0
C597 C 0.26816 0.63127 0.01186 0.0
C598 C 0.37054 0.56567 0.01798 0.0
C599 C 0.29478 0.68209 0.05863 0.0
C600 C 0.41553 0.65873 0.10357 0.0
C601 C 0.43365 0.68173 0.07386 0.0
C602 C 0.38242 0.63946 0.09241 0.0
C603 C 0.36792 0.64303 0.05049 0.0
C604 C 0.38734 0.66492 0.01997 0.0
C605 C 0.41973 0.68434 0.03223 0.0
C606 C 0.36212 0.61689 0.1259 0.0
C607 C 0.37342 0.66864 0.97454 0.0
H608 H 0.30676 0.54972 0.97591 0.0
H609 H 0.24296 0.64819 0.00844 0.0
H610 H 0.39104 0.57832 -0.00446 0.0
H611 H 0.38362 0.56568 0.05013 0.0
H612 H 0.36548 0.53617 0.00797 0.0
H613 H 0.26489 0.69077 0.06208 0.0
H614 H 0.30811 0.68138 0.09067 0.0
H615 H 0.30963 0.70366 0.03954 0.0
H616 H 0.42608 0.65742 0.13603 0.0
H617 H 0.4339 0.7023 0.00945 0.0
H618 H 0.35355 0.58914 0.1131 0.0
H619 H 0.33605 0.63189 0.13541 0.0
H620 H 0.37969 0.61257 0.15484 0.0
H621 H 0.37024 0.64049 0.95977 0.0
H622 H 0.39279 0.68548 0.95445 0.0
H623 H 0.34533 0.68227 0.97425 0.0
C624 C 0.63325 0.68391 -0.00384 0.0
C625 C 0.61767 0.67493 0.03592 0.0
C626 C 0.65417 0.65739 0.97312 0.0
C627 C 0.66015 0.62137 0.99072 0.0
C628 C 0.64401 0.61195 0.03052 0.0
C629 C 0.62267 0.63879 0.0525 0.0
C630 C 0.67045 0.66814 0.93039 0.0
C631 C 0.65028 0.57394 0.05052 0.0
C632 C 0.69261 0.54055 0.92103 0.0
C633 C 0.73146 0.54037 0.92916 0.0
C634 C 0.66908 0.56734 0.94013 0.0
C635 C 0.68476 0.59403 0.96853 0.0
C636 C 0.72395 0.59407 0.97675 0.0
C637 C 0.74689 0.56741 0.95667 0.0
C638 C 0.62745 0.5669 0.93022 0.0
C639 C 0.74155 0.62176 0.00743 0.0
H640 H 0.62911 0.71173 0.98305 0.0
H641 H 0.61087 0.6318 0.08335 0.0
H642 H 0.70165 0.66821 0.93229 0.0
H643 H 0.66234 0.6472 0.90577 0.0
H644 H 0.66089 0.6963 0.91982 0.0
H645 H 0.63479 0.57071 0.08105 0.0
H646 H 0.64118 0.55143 0.0283 0.0
H647 H 0.68076 0.56974 0.05677 0.0
H648 H 0.68061 0.51984 0.89959 0.0
H649 H 0.77685 0.56718 0.96337 0.0
H650 H 0.61838 0.59479 0.9184 0.0
H651 H 0.61126 0.56115 0.95972 0.0
H652 H 0.62 0.54537 0.90594 0.0
H653 H 0.7356 0.65085 -0.00306 0.0
H654 H 0.77254 0.61813 0.0101 0.0
H655 H 0.729 0.61839 0.0396 0.0
C656 C 0.6962 0.34756 0.96051 0.0
C657 C 0.72583 0.36887 0.97721 0.0
C658 C 0.66666 0.33571 0.98648 0.0
C659 C 0.66633 0.34627 0.03008 0.0
C660 C 0.69622 0.36795 0.0472 0.0
C661 C 0.72607 0.37866 0.0205 0.0
C662 C 0.63594 0.31165 0.96718 0.0
C663 C 0.69626 0.38032 0.0933 0.0
C664 C 0.56857 0.33147 0.07413 0.0
C665 C 0.57194 0.29473 0.08938 0.0
C666 C 0.60025 0.35054 0.05838 0.0
C667 C 0.63564 0.33211 0.0576 0.0
C668 C 0.63967 0.29644 0.07651 0.0
C669 C 0.60785 0.27837 0.09247 0.0
C670 C 0.59526 0.38909 0.03949 0.0
C671 C 0.67675 0.27559 0.076 0.0
H672 H 0.69622 0.34014 0.9269 0.0
H673 H 0.74881 0.39578 0.033 0.0
H674 H 0.63412 0.28458 0.98444 0.0
H675 H 0.60831 0.32587 0.97045 0.0
H676 H 0.64082 0.30563 0.93281 0.0
H677 H 0.72167 0.39701 0.10162 0.0
H678 H 0.67087 0.39755 0.09979 0.0
H679 H 0.69494 0.3556 0.11463 0.0
H680 H 0.54103 0.3445 0.07228 0.0
H681 H 0.61094 0.25033 0.10532 0.0
H682 H 0.59468 0.38689 0.00416 0.0
H683 H 0.61918 0.40757 0.04834 0.0
H684 H 0.56858 0.40242 0.05012 0.0
H685 H 0.68278 0.26597 0.04298 0.0
H686 H 0.67639 0.25065 0.09718 0.0
H687 H 0.70019 0.29415 0.08601 0.0
C688 C 0.64957 0.28426 0.48847 0.0
C689 C 0.63683 0.29782 0.52798 0.0
C690 C 0.67031 0.30737 0.46087 0.0
C691 C 0.67873 0.34462 0.47342 0.0
C692 C 0.66633 0.35822 0.51346 0.0
C693 C 0.64547 0.33474 0.54011 0.0
C694 C 0.68296 0.29209 0.41827 0.0
C695 C 0.67508 0.39768 0.52825 0.0
C696 C 0.76017 0.40115 0.43078 0.0
C697 C 0.74145 0.42791 0.40566 0.0
C698 C 0.74037 0.37215 0.45075 0.0
C699 C 0.7009 0.36975 0.4454 0.0
C700 C 0.68219 0.39497 0.41771 0.0
C701 C 0.70269 0.42382 0.39818 0.0
C702 C 0.76135 0.34578 0.48002 0.0
C703 C 0.64012 0.39308 0.41099 0.0
H704 H 0.64279 0.25584 0.47879 0.0
H705 H 0.63601 0.34538 0.57072 0.0
H706 H 0.67124 0.30951 0.39213 0.0
H707 H 0.71409 0.29357 0.41585 0.0
H708 H 0.67401 0.26256 0.41323 0.0
H709 H 0.66339 0.40383 0.56038 0.0
H710 H 0.706 0.40198 0.52933 0.0
H711 H 0.66332 0.41827 0.50532 0.0
H712 H 0.79019 0.40369 0.43643 0.0
H713 H 0.68798 0.44408 0.37853 0.0
H714 H 0.75293 0.31631 0.47388 0.0
H715 H 0.75413 0.35236 0.51366 0.0
H716 H 0.79237 0.34812 0.47629 0.0
H717 H 0.6311 0.36379 0.40471 0.0
H718 H 0.63073 0.411 0.38404 0.0
H719 H 0.62559 0.40266 0.44039 0.0
C720 C 0.42364 0.3341 0.5727 0.0
C721 C 0.45891 0.32402 0.55668 0.0
C722 C 0.39777 0.35347 0.54717 0.0
C723 C 0.40722 0.36175 0.50432 0.0
C724 C 0.4438 0.35356 0.48891 0.0
C725 C 0.46942 0.33487 0.51555 0.0
C726 C 0.35931 0.3624 0.56504 0.0
C727 C 0.45476 0.36148 0.4433 0.0
C728 C 0.32249 0.35775 0.43134 0.0
C729 C 0.31412 0.39583 0.42608 0.0
C730 C 0.35399 0.34642 0.45493 0.0
C731 C 0.37716 0.37388 0.47449 0.0
C732 C 0.36961 0.41243 0.46807 0.0
C733 C 0.33826 0.42298 0.44353 0.0
C734 C 0.36164 0.30499 0.46021 0.0
C735 C 0.39348 0.44242 0.48878 0.0
H736 H 0.41568 0.32522 0.60451 0.0
H737 H 0.49664 0.32634 0.5032 0.0
H738 H 0.35103 0.39155 0.55699 0.0
H739 H 0.33813 0.34334 0.55056 0.0
H740 H 0.35833 0.35902 0.60026 0.0
H741 H 0.48565 0.35917 0.43842 0.0
H742 H 0.44062 0.34097 0.42192 0.0
H743 H 0.44542 0.38988 0.43356 0.0
H744 H 0.3041 0.33675 0.41739 0.0
H745 H 0.33171 0.45248 0.43959 0.0
H746 H 0.35727 0.2969 0.49401 0.0
H747 H 0.39134 0.29853 0.45208 0.0
H748 H 0.34296 0.28746 0.43984 0.0
H749 H 0.38935 0.44171 0.52386 0.0
H750 H 0.38621 0.47093 0.47715 0.0
H751 H 0.42378 0.43714 0.48266 0.0
C752 C 0.33263 0.71554 0.48446 0.0
C753 C 0.3506 0.70128 0.52091 0.0
C754 C 0.31206 0.69188 0.45713 0.0
C755 C 0.30907 0.65327 0.46688 0.0
C756 C 0.32713 0.63877 0.5036 0.0
C757 C 0.34781 0.6629 0.53001 0.0
C758 C 0.29346 0.70817 0.41798 0.0
C759 C 0.32433 0.59777 0.5153 0.0
C760 C 0.22863 0.5923 0.42895 0.0
C761 C 0.2466 0.56936 0.39867 0.0
C762 C 0.24808 0.6213 0.44966 0.0
C763 C 0.28634 0.62774 0.43963 0.0
C764 C 0.3039 0.60652 0.40701 0.0
C765 C 0.28385 0.57747 0.38698 0.0
C766 C 0.22838 0.64329 0.48435 0.0
C767 C 0.34457 0.61292 0.39512 0.0
H768 H 0.33496 0.74512 0.47702 0.0
H769 H 0.36145 0.65167 0.5582 0.0
H770 H 0.30274 0.69275 0.38904 0.0
H771 H 0.26247 0.70483 0.42025 0.0
H772 H 0.29998 0.73841 0.41384 0.0
H773 H 0.3403 0.59096 0.5448 0.0
H774 H 0.2944 0.58999 0.52019 0.0
H775 H 0.33527 0.58011 0.48887 0.0
H776 H 0.19979 0.58655 0.4381 0.0
H777 H 0.29791 0.5602 0.36335 0.0
H778 H 0.233 0.67381 0.48009 0.0
H779 H 0.24033 0.63549 0.51585 0.0
H780 H 0.19759 0.63783 0.48492 0.0
H781 H 0.35021 0.64327 0.39085 0.0
H782 H 0.35242 0.59786 0.36534 0.0
H783 H 0.36304 0.60287 0.4213 0.0
C784 C 0.64974 0.59331 0.42609 0.0
C785 C 0.68563 0.60585 0.43831 0.0
C786 C 0.61724 0.60737 0.44601 0.0
C787 C 0.6209 0.63419 0.47915 0.0
C788 C 0.65711 0.64594 0.49253 0.0
C789 C 0.68899 0.63181 0.47179 0.0
C790 C 0.57903 0.59456 0.43063 0.0
C791 C 0.6622 0.67427 0.52804 0.0
C792 C 0.54747 0.70778 0.50266 0.0
C793 C 0.5321 0.69467 0.54096 0.0
C794 C 0.57459 0.68697 0.4806 0.0
C795 C 0.58718 0.65252 0.49778 0.0
C796 C 0.57033 0.63814 0.5353 0.0
C797 C 0.54257 0.65933 0.55634 0.0
C798 C 0.59125 0.70295 0.44021 0.0
C799 C 0.58325 0.60159 0.55461 0.0
H800 H 0.64696 0.57321 0.40025 0.0
H801 H 0.71665 0.64122 0.48183 0.0
H802 H 0.56157 0.58526 0.45793 0.0
H803 H 0.5641 0.61837 0.41536 0.0
H804 H 0.58105 0.57123 0.40717 0.0
H805 H 0.69228 0.67831 0.53671 0.0
H806 H 0.65042 0.70173 0.51809 0.0
H807 H 0.64663 0.66525 0.55689 0.0
H808 H 0.53882 0.73487 0.49035 0.0
H809 H 0.53059 0.64922 0.58594 0.0
H810 H 0.59204 0.68133 0.41469 0.0
H811 H 0.62069 0.7119 0.44637 0.0
H812 H 0.57513 0.72754 0.42836 0.0
H813 H 0.58482 0.57933 0.52988 0.0
H814 H 0.56428 0.59208 0.58057 0.0
H815 H 0.61199 0.60516 0.56799 0.0
C816 C 0.49295 0.07686 0.15446 0.0
C817 C 0.46229 0.08218 0.12696 0.0
C818 C 0.50734 0.04105 0.16199 0.0
C819 C 0.49093 0.0102 0.14073 0.0
C820 C 0.45747 0.01503 0.11649 0.0
C821 C 0.4434 0.05132 0.10982 0.0
C822 C 0.54215 0.03683 0.1893 0.0
C823 C 0.43863 0.98235 0.09445 0.0
C824 C 0.55008 0.93101 0.09715 0.0
C825 C 0.53847 0.90169 0.12335 0.0
C826 C 0.53667 0.96746 0.10437 0.0
C827 C 0.51141 0.97416 0.13862 0.0
C828 C 0.50302 0.94524 0.16775 0.0
C829 C 0.51653 0.90914 0.15953 0.0
C830 C 0.54685 -0.00202 0.07316 0.0
C831 C 0.47709 0.95118 0.20527 0.0
H832 H 0.50757 0.10106 0.16736 0.0
H833 H 0.4199 0.05576 0.08827 0.0
H834 H 0.53986 0.01189 0.21023 0.0
H835 H 0.56702 0.03267 0.16842 0.0
H836 H 0.54715 0.06202 0.2095 0.0
H837 H 0.41083 0.99015 0.08077 0.0
H838 H 0.45691 0.97202 0.06822 0.0
H839 H 0.43463 0.95887 0.11715 0.0
H840 H 0.56673 0.92489 0.06899 0.0
H841 H 0.50764 0.88611 0.17971 0.0
H842 H 0.55629 0.02351 0.09043 0.0
H843 H 0.52161 0.0057 0.05415 0.0
H844 H 0.56947 0.98909 0.05086 0.0
H845 H 0.48418 0.93165 0.23165 0.0
H846 H 0.4477 0.94534 0.19515 0.0
H847 H 0.47832 0.98033 0.21763 0.0
C848 C 0.92586 0.44724 0.79752 0.0
C849 C 0.93315 0.42788 0.83558 0.0
C850 C 0.95297 0.47134 0.78027 0.0
C851 C 0.98787 0.47508 0.80144 0.0
C852 C -0.00221 0.44923 0.83401 0.0
C853 C 0.96986 0.42608 0.85123 0.0
C854 C 0.9419 0.49691 0.74415 0.0
C855 C 0.03579 0.45045 0.85567 0.0
C856 C 0.0705 0.53809 0.79036 0.0
C857 C 0.06612 0.55767 0.82899 0.0
C858 C 0.04222 0.5138 0.77591 0.0
C859 C 0.00866 0.5111 0.79976 0.0
C860 C 0.001 0.53813 0.83204 0.0
C861 C 0.03034 0.56107 0.84678 0.0
C862 C 0.05132 0.48673 0.74032 0.0
C863 C 0.96434 0.53812 0.85634 0.0
H864 H 0.89728 0.44827 0.78524 0.0
H865 H 0.97542 0.41087 0.88051 0.0
H866 H 0.93004 0.52319 0.75757 0.0
H867 H 0.96648 0.50455 0.72423 0.0
H868 H 0.92011 0.48367 0.72358 0.0
H869 H 0.04134 0.42449 0.87418 0.0
H870 H 0.05861 0.45409 0.83193 0.0
H871 H 0.03675 0.47463 0.87804 0.0
H872 H 0.09829 0.53618 0.77612 0.0
H873 H 0.02684 0.5768 0.8762 0.0
H874 H 0.02561 0.47574 0.72458 0.0
H875 H 0.06717 0.46261 0.75364 0.0
H876 H 0.06949 0.50031 0.71603 0.0
H877 H 0.94014 0.53378 0.83446 0.0
H878 H 0.96011 0.56484 0.87404 0.0
H879 H 0.96452 0.51484 0.87979 0.0
C880 C 0.43077 0.94428 0.61011 0.0
C881 C 0.44554 0.91407 0.63292 0.0
C882 C 0.44426 0.98067 0.61747 0.0
C883 C 0.47255 0.98655 0.64881 0.0
C884 C 0.48427 0.95663 0.67513 0.0
C885 C 0.47088 0.92052 0.6665 0.0
C886 C 0.43092 0.01206 0.58892 0.0
C887 C 0.5134 0.96196 0.70976 0.0
C888 C 0.53977 0.06356 0.61722 0.0
C889 C 0.5232 0.09438 0.63739 0.0
C890 C 0.52484 0.02754 0.62282 0.0
C891 C 0.49318 0.02259 0.64976 0.0
C892 C 0.47899 0.05315 0.67359 0.0
C893 C 0.49398 0.08888 0.66676 0.0
C894 C 0.54089 -0.00457 0.59708 0.0
C895 C 0.44618 0.04872 0.70372 0.0
H896 H 0.4114 0.93903 0.58396 0.0
H897 H 0.4821 0.8969 0.68422 0.0
H898 H 0.42301 0.03697 0.60819 0.0
H899 H 0.45416 0.02056 0.56738 0.0
H900 H 0.40637 0.00365 0.56906 0.0
H901 H 0.51279 0.93865 0.7332 0.0
H902 H 0.54184 0.96274 0.69518 0.0
H903 H 0.50906 0.98886 0.72695 0.0
H904 H 0.56222 0.06802 0.59438 0.0
H905 H 0.48146 0.11292 0.68263 0.0
H906 H 0.51989 0.98615 0.57298 0.0
H907 H 0.54694 0.97114 0.61804 0.0
H908 H 0.56719 0.00335 0.58024 0.0
H909 H 0.41976 0.04603 0.68503 0.0
H910 H 0.44333 0.07321 0.72549 0.0
H911 H 0.44929 0.02293 0.72314 0.0
C912 C 0.96208 0.56119 0.39868 0.0
C913 C 0.9294 0.56124 0.42339 0.0
C914 C 0.99203 0.53718 0.40882 0.0
C915 C 0.98746 0.51052 0.44197 0.0
C916 C 0.95631 0.51353 0.46982 0.0
C917 C 0.92845 0.5403 0.46117 0.0
C918 C 0.02675 0.53764 0.38109 0.0
C919 C 0.94927 0.48589 0.50533 0.0
C920 C 0.03588 0.42569 0.3976 0.0
C921 C 0.06925 0.42599 0.42122 0.0
C922 C 0.00609 0.44958 0.40868 0.0
C923 C 0.01146 0.47642 0.44166 0.0
C924 C 0.04325 0.47353 0.46871 0.0
C925 C 0.07098 0.4468 0.45921 0.0
C926 C 0.97067 0.44889 0.38196 0.0
C927 C 0.05104 0.50136 0.50404 0.0
H928 H 0.96301 0.57766 0.36966 0.0
H929 H 0.90359 0.54113 0.48101 0.0
H930 H 0.05235 0.53108 0.40008 0.0
H931 H 0.02402 0.51616 0.35559 0.0
H932 H 0.03052 0.56535 0.36556 0.0
H933 H 0.92829 0.46494 0.49424 0.0
H934 H 0.97494 0.47061 0.51541 0.0
H935 H 0.93713 0.50045 0.53354 0.0
H936 H 0.03428 0.40922 0.3685 0.0
H937 H 0.09628 0.44603 0.47843 0.0
H938 H 0.97269 0.47022 0.35637 0.0
H939 H 0.94556 0.4555 0.40167 0.0
H940 H 0.96657 0.42108 0.36656 0.0
H941 H 0.07032 0.52331 0.49177 0.0
H942 H 0.06537 0.48739 0.53126 0.0
H943 H 0.02527 0.5154 0.51592 0.0
loop_
_geom_bond_atom_site_label_1
_geom_bond_atom_site_label_2
_geom_bond_distance
_geom_bond_site_symmetry_2
_ccdc_geom_bond_type
Sc0 O3 2.025 . S
Sc0 O10 2.105 . S
Sc0 O13 2.105 . S
Sc0 O16 2.105 . S
Sc0 O19 2.105 . S
Sc1 O3 2.025 . S
Sc1 O11 2.105 . S
Sc1 O15 2.105 . S
Sc1 O17 2.105 . S
Sc1 O21 2.105 . S
Sc2 O3 2.025 . S
Sc2 O12 2.105 . S
Sc2 O14 2.105 . S
Sc2 O18 2.105 . S
Sc2 O20 2.105 . S
O3 Sc0 2.025 . S
O3 Sc1 2.025 . S
O3 Sc2 2.025 . S
C4 O10 1.268 . S
C4 O20 1.268 . S
C5 O11 1.268 . S
C5 O19 1.268 . S
C6 O12 1.268 1_556 S
C6 O21 1.268 1_556 S
C7 O13 1.268 . S
C7 O17 1.268 . S
C8 O14 1.268 . S
C8 O16 1.268 . S
C9 O15 1.268 . S
C9 O18 1.268 . S
O10 Sc0 2.105 . S
O10 C4 1.268 . S
O11 Sc1 2.105 . S
O11 C5 1.268 . S
O12 Sc2 2.105 . S
O12 C6 1.268 1_554 S
O13 Sc0 2.105 . S
O13 C7 1.268 . S
O14 Sc2 2.105 . S
O14 C8 1.268 . S
O15 Sc1 2.105 . S
O15 C9 1.268 . S
O16 Sc0 2.105 . S
O16 C8 1.268 . S
O17 Sc1 2.105 . S
O17 C7 1.268 . S
O18 Sc2 2.105 . S
O18 C9 1.268 . S
O19 Sc0 2.105 . S
O19 C5 1.268 . S
O20 Sc2 2.105 . S
O20 C4 1.268 . S
O21 Sc1 2.105 . S
O21 C6 1.268 1_554 S
Sc22 O25 2.025 . S
Sc22 O32 2.105 . S
Sc22 O35 2.105 . S
Sc22 O38 2.105 . S
Sc22 O41 2.105 . S
Sc23 O25 2.025 . S
Sc23 O33 2.105 . S
Sc23 O37 2.105 . S
Sc23 O39 2.105 . S
Sc23 O43 2.105 . S
Sc24 O25 2.025 . S
Sc24 O34 2.105 . S
Sc24 O36 2.105 . S
Sc24 O40 2.105 . S
Sc24 O42 2.105 . S
O25 Sc22 2.025 . S
O25 Sc23 2.025 . S
O25 Sc24 2.025 . S
C26 O32 1.268 . S
C26 O42 1.268 . S
C27 O33 1.268 . S
C27 O41 1.268 . S
C28 O34 1.268 . S
C28 O43 1.268 . S
C29 O35 1.268 . S
C29 O39 1.268 . S
C30 O36 1.268 . S
C30 O38 1.268 . S
C31 O37 1.268 1_554 S
C31 O40 1.268 1_554 S
O32 Sc22 2.105 . S
O32 C26 1.268 . S
O33 Sc23 2.105 . S
O33 C27 1.268 . S
O34 Sc24 2.105 . S
O34 C28 1.268 . S
O35 Sc22 2.105 . S
O35 C29 1.268 . S
O36 Sc24 2.105 . S
O36 C30 1.268 . S
O37 Sc23 2.105 . S
O37 C31 1.268 1_556 S
O38 Sc22 2.105 . S
O38 C30 1.268 . S
O39 Sc23 2.105 . S
O39 C29 1.268 . S
O40 Sc24 2.105 . S
O40 C31 1.268 1_556 S
O41 Sc22 2.105 . S
O41 C27 1.268 . S
O42 Sc24 2.105 . S
O42 C26 1.268 . S
O43 Sc23 2.105 . S
O43 C28 1.268 . S
Sc44 O47 2.025 . S
Sc44 O54 2.105 . S
Sc44 O57 2.105 . S
Sc44 O60 2.105 . S
Sc44 O63 2.105 . S
Sc45 O47 2.025 . S
Sc45 O55 2.105 . S
Sc45 O59 2.105 . S
Sc45 O61 2.105 . S
Sc45 O65 2.105 . S
Sc46 O47 2.025 . S
Sc46 O56 2.105 . S
Sc46 O58 2.105 . S
Sc46 O62 2.105 . S
Sc46 O64 2.105 . S
O47 Sc44 2.025 . S
O47 Sc45 2.025 . S
O47 Sc46 2.025 . S
C48 O54 1.268 . S
C48 O64 1.268 . S
C49 O55 1.268 . S
C49 O63 1.268 . S
C50 O56 1.268 1_556 S
C50 O65 1.268 1_556 S
C51 O57 1.268 . S
C51 O61 1.268 . S
C52 O58 1.268 . S
C52 O60 1.268 . S
C53 O59 1.268 . S
C53 O62 1.268 . S
O54 Sc44 2.105 . S
O54 C48 1.268 . S
O55 Sc45 2.105 . S
O55 C49 1.268 . S
O56 Sc46 2.105 . S
O56 C50 1.268 1_554 S
O57 Sc44 2.105 . S
O57 C51 1.268 . S
O58 Sc46 2.105 . S
O58 C52 1.268 . S
O59 Sc45 2.105 . S
O59 C53 1.268 . S
O60 Sc44 2.105 . S
O60 C52 1.268 . S
O61 Sc45 2.105 . S
O61 C51 1.268 . S
O62 Sc46 2.105 . S
O62 C53 1.268 . S
O63 Sc44 2.105 . S
O63 C49 1.268 . S
O64 Sc46 2.105 . S
O64 C48 1.268 . S
O65 Sc45 2.105 . S
O65 C50 1.268 1_554 S
Sc66 O69 2.025 . S
Sc66 O76 2.105 . S
Sc66 O79 2.105 . S
Sc66 O82 2.105 . S
Sc66 O85 2.105 . S
Sc67 O69 2.025 . S
Sc67 O77 2.105 . S
Sc67 O81 2.105 . S
Sc67 O83 2.105 . S
Sc67 O87 2.105 . S
Sc68 O69 2.025 . S
Sc68 O78 2.105 . S
Sc68 O80 2.105 . S
Sc68 O84 2.105 . S
Sc68 O86 2.105 . S
O69 Sc66 2.025 . S
O69 Sc67 2.025 . S
O69 Sc68 2.025 . S
C70 O76 1.268 . S
C70 O86 1.268 . S
C71 O77 1.268 . S
C71 O85 1.268 . S
C72 O78 1.268 . S
C72 O87 1.268 . S
C73 O79 1.268 . S
C73 O83 1.268 . S
C74 O80 1.268 . S
C74 O82 1.268 . S
C75 O81 1.268 1_554 S
C75 O84 1.268 1_554 S
O76 Sc66 2.105 . S
O76 C70 1.268 . S
O77 Sc67 2.105 . S
O77 C71 1.268 . S
O78 Sc68 2.105 . S
O78 C72 1.268 . S
O79 Sc66 2.105 . S
O79 C73 1.268 . S
O80 Sc68 2.105 . S
O80 C74 1.268 . S
O81 Sc67 2.105 . S
O81 C75 1.268 1_556 S
O82 Sc66 2.105 . S
O82 C74 1.268 . S
O83 Sc67 2.105 . S
O83 C73 1.268 . S
O84 Sc68 2.105 . S
O84 C75 1.268 1_556 S
O85 Sc66 2.105 . S
O85 C71 1.268 . S
O86 Sc68 2.105 . S
O86 C70 1.268 . S
O87 Sc67 2.105 . S
O87 C72 1.268 . S
Sc88 O91 2.025 . S
Sc88 O98 2.105 . S
Sc88 O101 2.105 . S
Sc88 O104 2.105 . S
Sc88 O107 2.105 . S
Sc89 O91 2.025 . S
Sc89 O99 2.105 . S
Sc89 O103 2.105 . S
Sc89 O105 2.105 . S
Sc89 O109 2.105 . S
Sc90 O91 2.025 . S
Sc90 O100 2.105 . S
Sc90 O102 2.105 . S
Sc90 O106 2.105 . S
Sc90 O108 2.105 . S
O91 Sc88 2.025 . S
O91 Sc89 2.025 . S
O91 Sc90 2.025 . S
C92 O98 1.268 . S
C92 O108 1.268 . S
C93 O99 1.268 . S
C93 O107 1.268 . S
C94 O100 1.268 . S
C94 O109 1.268 . S
C95 O101 1.268 . S
C95 O105 1.268 . S
C96 O102 1.268 . S
C96 O104 1.268 . S
C97 O103 1.268 . S
C97 O106 1.268 . S
O98 Sc88 2.105 . S
O98 C92 1.268 . S
O99 Sc89 2.105 . S
O99 C93 1.268 . S
O100 Sc90 2.105 . S
O100 C94 1.268 . S
O101 Sc88 2.105 . S
O101 C95 1.268 . S
O102 Sc90 2.105 . S
O102 C96 1.268 . S
O103 Sc89 2.105 . S
O103 C97 1.268 . S
O104 Sc88 2.105 . S
O104 C96 1.268 . S
O105 Sc89 2.105 . S
O105 C95 1.268 . S
O106 Sc90 2.105 . S
O106 C97 1.268 . S
O107 Sc88 2.105 . S
O107 C93 1.268 . S
O108 Sc90 2.105 . S
O108 C92 1.268 . S
O109 Sc89 2.105 . S
O109 C94 1.268 . S
Sc110 O113 2.025 . S
Sc110 O120 2.105 . S
Sc110 O123 2.105 . S
Sc110 O126 2.105 . S
Sc110 O129 2.105 . S
Sc111 O113 2.025 . S
Sc111 O121 2.105 . S
Sc111 O125 2.105 . S
Sc111 O127 2.105 . S
Sc111 O131 2.105 . S
Sc112 O113 2.025 . S
Sc112 O122 2.105 . S
Sc112 O124 2.105 . S
Sc112 O128 2.105 . S
Sc112 O130 2.105 . S
O113 Sc110 2.025 . S
O113 Sc111 2.025 . S
O113 Sc112 2.025 . S
C114 O120 1.268 . S
C114 O130 1.268 . S
C115 O121 1.268 . S
C115 O129 1.268 . S
C116 O122 1.268 . S
C116 O131 1.268 . S
C117 O123 1.268 . S
C117 O127 1.268 . S
C118 O124 1.268 . S
C118 O126 1.268 . S
C119 O125 1.268 . S
C119 O128 1.268 . S
O120 Sc110 2.105 . S
O120 C114 1.268 . S
O121 Sc111 2.105 . S
O121 C115 1.268 . S
O122 Sc112 2.105 . S
O122 C116 1.268 . S
O123 Sc110 2.105 . S
O123 C117 1.268 . S
O124 Sc112 2.105 . S
O124 C118 1.268 . S
O125 Sc111 2.105 . S
O125 C119 1.268 . S
O126 Sc110 2.105 . S
O126 C118 1.268 . S
O127 Sc111 2.105 . S
O127 C117 1.268 . S
O128 Sc112 2.105 . S
O128 C119 1.268 . S
O129 Sc110 2.105 . S
O129 C115 1.268 . S
O130 Sc112 2.105 . S
O130 C114 1.268 . S
O131 Sc111 2.105 . S
O131 C116 1.268 . S
Sc132 O135 2.025 . S
Sc132 O142 2.105 . S
Sc132 O145 2.105 . S
Sc132 O148 2.105 . S
Sc132 O151 2.105 . S
Sc133 O135 2.025 . S
Sc133 O143 2.105 . S
Sc133 O147 2.105 . S
Sc133 O149 2.105 . S
Sc133 O153 2.105 . S
Sc134 O135 2.025 . S
Sc134 O144 2.105 . S
Sc134 O146 2.105 . S
Sc134 O150 2.105 . S
Sc134 O152 2.105 . S
O135 Sc132 2.025 . S
O135 Sc133 2.025 . S
O135 Sc134 2.025 . S
C136 O142 1.268 . S
C136 O152 1.268 . S
C137 O143 1.268 . S
C137 O151 1.268 . S
C138 O144 1.268 . S
C138 O153 1.268 . S
C139 O145 1.268 . S
C139 O149 1.268 . S
C140 O146 1.268 . S
C140 O148 1.268 . S
C141 O147 1.268 . S
C141 O150 1.268 . S
O142 Sc132 2.105 . S
O142 C136 1.268 . S
O143 Sc133 2.105 . S
O143 C137 1.268 . S
O144 Sc134 2.105 . S
O144 C138 1.268 . S
O145 Sc132 2.105 . S
O145 C139 1.268 . S
O146 Sc134 2.105 . S
O146 C140 1.268 . S
O147 Sc133 2.105 . S
O147 C141 1.268 . S
O148 Sc132 2.105 . S
O148 C140 1.268 . S
O149 Sc133 2.105 . S
O149 C139 1.268 . S
O150 Sc134 2.105 . S
O150 C141 1.268 . S
O151 Sc132 2.105 . S
O151 C137 1.268 . S
O152 Sc134 2.105 . S
O152 C136 1.268 . S
O153 Sc133 2.105 . S
O153 C138 1.268 . S
Sc154 O157 2.025 . S
Sc154 O164 2.105 . S
Sc154 O167 2.105 . S
Sc154 O170 2.105 . S
Sc154 O173 2.105 . S
Sc155 O157 2.025 . S
Sc155 O165 2.105 . S
Sc155 O169 2.105 . S
Sc155 O171 2.105 . S
Sc155 O175 2.105 . S
Sc156 O157 2.025 . S
Sc156 O166 2.105 . S
Sc156 O168 2.105 . S
Sc156 O172 2.105 . S
Sc156 O174 2.105 . S
O157 Sc154 2.025 . S
O157 Sc155 2.025 . S
O157 Sc156 2.025 . S
C158 O164 1.268 . S
C158 O174 1.268 . S
C159 O165 1.268 . S
C159 O173 1.268 . S
C160 O166 1.268 . S
C160 O175 1.268 . S
C161 O167 1.268 . S
C161 O171 1.268 . S
C162 O168 1.268 . S
C162 O170 1.268 . S
C163 O169 1.268 . S
C163 O172 1.268 . S
O164 Sc154 2.105 . S
O164 C158 1.268 . S
O165 Sc155 2.105 . S
O165 C159 1.268 . S
O166 Sc156 2.105 . S
O166 C160 1.268 . S
O167 Sc154 2.105 . S
O167 C161 1.268 . S
O168 Sc156 2.105 . S
O168 C162 1.268 . S
O169 Sc155 2.105 . S
O169 C163 1.268 . S
O170 Sc154 2.105 . S
O170 C162 1.268 . S
O171 Sc155 2.105 . S
O171 C161 1.268 . S
O172 Sc156 2.105 . S
O172 C163 1.268 . S
O173 Sc154 2.105 . S
O173 C159 1.268 . S
O174 Sc156 2.105 . S
O174 C158 1.268 . S
O175 Sc155 2.105 . S
O175 C160 1.268 . S
C176 C177 1.391 . S
C176 C178 1.394 . S
C176 H192 0.931 . S
C177 C176 1.391 . S
C177 C181 1.376 . S
C178 C176 1.394 . S
C178 C179 1.369 . S
C178 C182 1.531 . S
C179 C178 1.369 . S
C179 C180 1.410 . S
C179 C187 1.503 . S
C180 C179 1.410 . S
C180 C181 1.392 . S
C180 C183 1.511 . S
C181 C177 1.376 . S
C181 C180 1.392 . S
C181 H193 0.929 . S
C182 C178 1.531 . S
C182 H194 0.960 . S
C182 H195 0.962 . S
C182 H196 0.960 . S
C183 C180 1.511 . S
C183 H197 0.961 . S
C183 H198 0.961 . S
C183 H199 0.961 . S
C184 C185 1.370 . S
C184 C186 1.363 . S
C184 H200 0.931 . S
C185 C184 1.370 . S
C185 C189 1.408 . S
C186 C184 1.363 . S
C186 C187 1.370 . S
C186 C190 1.524 . S
C187 C179 1.503 . S
C187 C186 1.370 . S
C187 C188 1.403 . S
C188 C187 1.403 . S
C188 C189 1.404 . S
C188 C191 1.539 . S
C189 C185 1.408 . S
C189 C188 1.404 . S
C189 H201 0.930 . S
C190 C186 1.524 . S
C190 H202 0.956 . S
C190 H203 0.961 . S
C190 H204 0.961 . S
C191 C188 1.539 . S
C191 H205 0.958 . S
C191 H206 0.961 . S
C191 H207 0.960 . S
H192 C176 0.931 . S
H193 C181 0.929 . S
H194 C182 0.960 . S
H195 C182 0.962 . S
H196 C182 0.960 . S
H197 C183 0.961 . S
H198 C183 0.961 . S
H199 C183 0.961 . S
H200 C184 0.931 . S
H201 C189 0.930 . S
H202 C190 0.956 . S
H203 C190 0.961 . S
H204 C190 0.961 . S
H205 C191 0.958 . S
H206 C191 0.961 . S
H207 C191 0.960 . S
C208 C209 1.391 . S
C208 C210 1.394 . S
C208 H224 0.931 . S
C209 C208 1.391 . S
C209 C213 1.376 . S
C210 C208 1.394 . S
C210 C211 1.369 . S
C210 C214 1.531 . S
C211 C210 1.369 . S
C211 C212 1.410 . S
C211 C219 1.503 . S
C212 C211 1.410 . S
C212 C213 1.392 . S
C212 C215 1.511 . S
C213 C209 1.376 . S
C213 C212 1.392 . S
C213 H225 0.929 . S
C214 C210 1.531 . S
C214 H226 0.960 . S
C214 H227 0.962 . S
C214 H228 0.960 . S
C215 C212 1.511 . S
C215 H229 0.961 . S
C215 H230 0.961 . S
C215 H231 0.961 . S
C216 C217 1.370 . S
C216 C218 1.363 . S
C216 H232 0.931 . S
C217 C216 1.370 . S
C217 C221 1.408 . S
C218 C216 1.363 . S
C218 C219 1.370 . S
C218 C222 1.524 . S
C219 C211 1.503 . S
C219 C218 1.370 . S
C219 C220 1.403 . S
C220 C219 1.403 . S
C220 C221 1.404 . S
C220 C223 1.539 . S
C221 C217 1.408 . S
C221 C220 1.404 . S
C221 H233 0.930 . S
C222 C218 1.524 . S
C222 H234 0.956 . S
C222 H235 0.961 . S
C222 H236 0.961 . S
C223 C220 1.539 . S
C223 H237 0.958 . S
C223 H238 0.961 . S
C223 H239 0.960 . S
H224 C208 0.931 . S
H225 C213 0.929 . S
H226 C214 0.960 . S
H227 C214 0.962 . S
H228 C214 0.960 . S
H229 C215 0.961 . S
H230 C215 0.961 . S
H231 C215 0.961 . S
H232 C216 0.931 . S
H233 C221 0.930 . S
H234 C222 0.956 . S
H235 C222 0.961 . S
H236 C222 0.961 . S
H237 C223 0.958 . S
H238 C223 0.961 . S
H239 C223 0.960 . S
C240 C241 1.391 . S
C240 C242 1.394 . S
C240 H256 0.931 . S
C241 C240 1.391 . S
C241 C245 1.376 . S
C242 C240 1.394 . S
C242 C243 1.369 . S
C242 C246 1.531 . S
C243 C242 1.369 . S
C243 C244 1.410 . S
C243 C251 1.503 . S
C244 C243 1.410 . S
C244 C245 1.392 . S
C244 C247 1.511 . S
C245 C241 1.376 . S
C245 C244 1.392 . S
C245 H257 0.929 . S
C246 C242 1.531 . S
C246 H258 0.960 . S
C246 H259 0.962 . S
C246 H260 0.960 . S
C247 C244 1.511 . S
C247 H261 0.961 . S
C247 H262 0.961 . S
C247 H263 0.961 . S
C248 C249 1.370 . S
C248 C250 1.363 . S
C248 H264 0.931 . S
C249 C248 1.370 . S
C249 C253 1.408 . S
C250 C248 1.363 . S
C250 C251 1.370 . S
C250 C254 1.524 . S
C251 C243 1.503 . S
C251 C250 1.370 . S
C251 C252 1.403 . S
C252 C251 1.403 . S
C252 C253 1.404 . S
C252 C255 1.539 . S
C253 C249 1.408 . S
C253 C252 1.404 . S
C253 H265 0.930 . S
C254 C250 1.524 . S
C254 H266 0.956 . S
C254 H267 0.961 . S
C254 H268 0.961 . S
C255 C252 1.539 . S
C255 H269 0.958 . S
C255 H270 0.961 . S
C255 H271 0.960 . S
H256 C240 0.931 . S
H257 C245 0.929 . S
H258 C246 0.960 . S
H259 C246 0.962 . S
H260 C246 0.960 . S
H261 C247 0.961 . S
H262 C247 0.961 . S
H263 C247 0.961 . S
H264 C248 0.931 . S
H265 C253 0.930 . S
H266 C254 0.956 . S
H267 C254 0.961 . S
H268 C254 0.961 . S
H269 C255 0.958 . S
H270 C255 0.961 . S
H271 C255 0.960 . S
C272 C273 1.391 . S
C272 C274 1.394 . S
C272 H288 0.931 . S
C273 C272 1.391 . S
C273 C277 1.376 . S
C274 C272 1.394 . S
C274 C275 1.369 . S
C274 C278 1.531 . S
C275 C274 1.369 . S
C275 C276 1.410 . S
C275 C283 1.503 . S
C276 C275 1.410 . S
C276 C277 1.392 . S
C276 C279 1.511 . S
C277 C273 1.376 . S
C277 C276 1.392 . S
C277 H289 0.929 . S
C278 C274 1.531 . S
C278 H290 0.960 . S
C278 H291 0.962 . S
C278 H292 0.960 . S
C279 C276 1.511 . S
C279 H293 0.961 . S
C279 H294 0.961 . S
C279 H295 0.961 . S
C280 C281 1.370 . S
C280 C282 1.363 . S
C280 H296 0.931 . S
C281 C280 1.370 . S
C281 C285 1.408 . S
C282 C280 1.363 . S
C282 C283 1.370 . S
C282 C286 1.524 . S
C283 C275 1.503 . S
C283 C282 1.370 . S
C283 C284 1.403 . S
C284 C283 1.403 . S
C284 C285 1.404 . S
C284 C287 1.539 . S
C285 C281 1.408 . S
C285 C284 1.404 . S
C285 H297 0.930 . S
C286 C282 1.524 . S
C286 H298 0.956 . S
C286 H299 0.961 . S
C286 H300 0.961 . S
C287 C284 1.539 . S
C287 H301 0.958 . S
C287 H302 0.961 . S
C287 H303 0.960 . S
H288 C272 0.931 . S
H289 C277 0.929 . S
H290 C278 0.960 . S
H291 C278 0.962 . S
H292 C278 0.960 . S
H293 C279 0.961 . S
H294 C279 0.961 . S
H295 C279 0.961 . S
H296 C280 0.931 . S
H297 C285 0.930 . S
H298 C286 0.956 . S
H299 C286 0.961 . S
H300 C286 0.961 . S
H301 C287 0.958 . S
H302 C287 0.961 . S
H303 C287 0.960 . S
C304 C305 1.391 . S
C304 C306 1.394 . S
C304 H320 0.931 . S
C305 C304 1.391 . S
C305 C309 1.376 . S
C306 C304 1.394 . S
C306 C307 1.369 . S
C306 C310 1.531 . S
C307 C306 1.369 . S
C307 C308 1.410 . S
C307 C315 1.503 . S
C308 C307 1.410 . S
C308 C309 1.392 . S
C308 C311 1.511 . S
C309 C305 1.376 . S
C309 C308 1.392 . S
C309 H321 0.929 . S
C310 C306 1.531 . S
C310 H322 0.960 . S
C310 H323 0.962 . S
C310 H324 0.960 . S
C311 C308 1.511 . S
C311 H325 0.961 . S
C311 H326 0.961 . S
C311 H327 0.961 . S
C312 C313 1.370 . S
C312 C314 1.363 . S
C312 H328 0.931 . S
C313 C312 1.370 . S
C313 C317 1.408 . S
C314 C312 1.363 . S
C314 C315 1.370 . S
C314 C318 1.524 . S
C315 C307 1.503 . S
C315 C314 1.370 . S
C315 C316 1.403 . S
C316 C315 1.403 . S
C316 C317 1.404 . S
C316 C319 1.539 . S
C317 C313 1.408 . S
C317 C316 1.404 . S
C317 H329 0.930 . S
C318 C314 1.524 . S
C318 H330 0.956 . S
C318 H331 0.961 . S
C318 H332 0.961 . S
C319 C316 1.539 . S
C319 H333 0.958 . S
C319 H334 0.961 . S
C319 H335 0.960 . S
H320 C304 0.931 . S
H321 C309 0.929 . S
H322 C310 0.960 . S
H323 C310 0.962 . S
H324 C310 0.960 . S
H325 C311 0.961 . S
H326 C311 0.961 . S
H327 C311 0.961 . S
H328 C312 0.931 . S
H329 C317 0.930 . S
H330 C318 0.956 . S
H331 C318 0.961 . S
H332 C318 0.961 . S
H333 C319 0.958 . S
H334 C319 0.961 . S
H335 C319 0.960 . S
C336 C337 1.391 . S
C336 C338 1.394 . S
C336 H352 0.931 . S
C337 C336 1.391 . S
C337 C341 1.376 . S
C338 C336 1.394 . S
C338 C339 1.369 . S
C338 C342 1.531 . S
C339 C338 1.369 . S
C339 C340 1.410 . S
C339 C347 1.503 . S
C340 C339 1.410 . S
C340 C341 1.392 . S
C340 C343 1.511 . S
C341 C337 1.376 . S
C341 C340 1.392 . S
C341 H353 0.929 . S
C342 C338 1.531 . S
C342 H354 0.960 . S
C342 H355 0.962 . S
C342 H356 0.960 . S
C343 C340 1.511 . S
C343 H357 0.961 . S
C343 H358 0.961 . S
C343 H359 0.961 . S
C344 C345 1.370 . S
C344 C346 1.363 . S
C344 H360 0.931 . S
C345 C344 1.370 . S
C345 C349 1.408 . S
C346 C344 1.363 . S
C346 C347 1.370 . S
C346 C350 1.524 . S
C347 C339 1.503 . S
C347 C346 1.370 . S
C347 C348 1.403 . S
C348 C347 1.403 . S
C348 C349 1.404 . S
C348 C351 1.539 . S
C349 C345 1.408 . S
C349 C348 1.404 . S
C349 H361 0.930 . S
C350 C346 1.524 . S
C350 H362 0.956 . S
C350 H363 0.961 . S
C350 H364 0.961 . S
C351 C348 1.539 . S
C351 H365 0.958 . S
C351 H366 0.961 . S
C351 H367 0.960 . S
H352 C336 0.931 . S
H353 C341 0.929 . S
H354 C342 0.960 . S
H355 C342 0.962 . S
H356 C342 0.960 . S
H357 C343 0.961 . S
H358 C343 0.961 . S
H359 C343 0.961 . S
H360 C344 0.931 . S
H361 C349 0.930 . S
H362 C350 0.956 . S
H363 C350 0.961 . S
H364 C350 0.961 . S
H365 C351 0.958 . S
H366 C351 0.961 . S
H367 C351 0.960 . S
C368 C369 1.391 . S
C368 C370 1.394 . S
C368 H384 0.931 . S
C369 C368 1.391 . S
C369 C373 1.376 . S
C370 C368 1.394 . S
C370 C371 1.369 . S
C370 C374 1.531 . S
C371 C370 1.369 . S
C371 C372 1.410 . S
C371 C379 1.503 . S
C372 C371 1.410 . S
C372 C373 1.392 . S
C372 C375 1.511 . S
C373 C369 1.376 . S
C373 C372 1.392 . S
C373 H385 0.929 . S
C374 C370 1.531 . S
C374 H386 0.960 . S
C374 H387 0.962 . S
C374 H388 0.960 . S
C375 C372 1.511 . S
C375 H389 0.961 . S
C375 H390 0.961 . S
C375 H391 0.961 . S
C376 C377 1.370 . S
C376 C378 1.363 . S
C376 H392 0.931 . S
C377 C376 1.370 . S
C377 C381 1.408 . S
C378 C376 1.363 . S
C378 C379 1.370 . S
C378 C382 1.524 . S
C379 C371 1.503 . S
C379 C378 1.370 . S
C379 C380 1.403 . S
C380 C379 1.403 . S
C380 C381 1.404 . S
C380 C383 1.539 . S
C381 C377 1.408 . S
C381 C380 1.404 . S
C381 H393 0.930 . S
C382 C378 1.524 . S
C382 H394 0.956 . S
C382 H395 0.961 . S
C382 H396 0.961 . S
C383 C380 1.539 . S
C383 H397 0.958 . S
C383 H398 0.961 . S
C383 H399 0.960 . S
H384 C368 0.931 . S
H385 C373 0.929 . S
H386 C374 0.960 . S
H387 C374 0.962 . S
H388 C374 0.960 . S
H389 C375 0.961 . S
H390 C375 0.961 . S
H391 C375 0.961 . S
H392 C376 0.931 . S
H393 C381 0.930 . S
H394 C382 0.956 . S
H395 C382 0.961 . S
H396 C382 0.961 . S
H397 C383 0.958 . S
H398 C383 0.961 . S
H399 C383 0.960 . S
C400 C401 1.391 . S
C400 C402 1.394 . S
C400 H416 0.931 . S
C401 C400 1.391 . S
C401 C405 1.376 . S
C402 C400 1.394 . S
C402 C403 1.369 . S
C402 C406 1.531 . S
C403 C402 1.369 . S
C403 C404 1.410 . S
C403 C411 1.503 . S
C404 C403 1.410 . S
C404 C405 1.392 . S
C404 C407 1.511 . S
C405 C401 1.376 . S
C405 C404 1.392 . S
C405 H417 0.929 . S
C406 C402 1.531 . S
C406 H418 0.960 . S
C406 H419 0.962 . S
C406 H420 0.960 . S
C407 C404 1.511 . S
C407 H421 0.961 . S
C407 H422 0.961 . S
C407 H423 0.961 . S
C408 C409 1.370 . S
C408 C410 1.363 . S
C408 H424 0.931 . S
C409 C408 1.370 . S
C409 C413 1.408 . S
C410 C408 1.363 . S
C410 C411 1.370 . S
C410 C414 1.524 . S
C411 C403 1.503 . S
C411 C410 1.370 . S
C411 C412 1.403 . S
C412 C411 1.403 . S
C412 C413 1.404 . S
C412 C415 1.539 . S
C413 C409 1.408 . S
C413 C412 1.404 . S
C413 H425 0.930 . S
C414 C410 1.524 . S
C414 H426 0.956 . S
C414 H427 0.961 . S
C414 H428 0.961 . S
C415 C412 1.539 . S
C415 H429 0.958 . S
C415 H430 0.961 . S
C415 H431 0.960 . S
H416 C400 0.931 . S
H417 C405 0.929 . S
H418 C406 0.960 . S
H419 C406 0.962 . S
H420 C406 0.960 . S
H421 C407 0.961 . S
H422 C407 0.961 . S
H423 C407 0.961 . S
H424 C408 0.931 . S
H425 C413 0.930 . S
H426 C414 0.956 . S
H427 C414 0.961 . S
H428 C414 0.961 . S
H429 C415 0.958 . S
H430 C415 0.961 . S
H431 C415 0.960 . S
C432 C433 1.391 . S
C432 C434 1.394 . S
C432 H448 0.931 . S
C433 C432 1.391 . S
C433 C437 1.376 . S
C434 C432 1.394 . S
C434 C435 1.369 . S
C434 C438 1.531 . S
C435 C434 1.369 . S
C435 C436 1.410 . S
C435 C443 1.503 . S
C436 C435 1.410 . S
C436 C437 1.392 . S
C436 C439 1.511 . S
C437 C433 1.376 . S
C437 C436 1.392 . S
C437 H449 0.929 . S
C438 C434 1.531 . S
C438 H450 0.960 . S
C438 H451 0.962 . S
C438 H452 0.960 . S
C439 C436 1.511 . S
C439 H453 0.961 . S
C439 H454 0.961 . S
C439 H455 0.961 . S
C440 C441 1.370 . S
C440 C442 1.363 . S
C440 H456 0.931 . S
C441 C440 1.370 . S
C441 C445 1.408 . S
C442 C440 1.363 . S
C442 C443 1.370 . S
C442 C446 1.524 . S
C443 C435 1.503 . S
C443 C442 1.370 . S
C443 C444 1.403 . S
C444 C443 1.403 . S
C444 C445 1.404 . S
C444 C447 1.539 . S
C445 C441 1.408 . S
C445 C444 1.404 . S
C445 H457 0.930 . S
C446 C442 1.524 . S
C446 H458 0.956 . S
C446 H459 0.961 . S
C446 H460 0.961 . S
C447 C444 1.539 . S
C447 H461 0.958 . S
C447 H462 0.961 . S
C447 H463 0.960 . S
H448 C432 0.931 . S
H449 C437 0.929 . S
H450 C438 0.960 . S
H451 C438 0.962 . S
H452 C438 0.960 . S
H453 C439 0.961 . S
H454 C439 0.961 . S
H455 C439 0.961 . S
H456 C440 0.931 . S
H457 C445 0.930 . S
H458 C446 0.956 . S
H459 C446 0.961 . S
H460 C446 0.961 . S
H461 C447 0.958 . S
H462 C447 0.961 . S
H463 C447 0.960 . S
C464 C465 1.391 . S
C464 C466 1.394 . S
C464 H480 0.931 . S
C465 C464 1.391 . S
C465 C469 1.376 . S
C466 C464 1.394 . S
C466 C467 1.369 . S
C466 C470 1.531 . S
C467 C466 1.369 . S
C467 C468 1.410 . S
C467 C475 1.503 . S
C468 C467 1.410 . S
C468 C469 1.392 . S
C468 C471 1.511 . S
C469 C465 1.376 . S
C469 C468 1.392 . S
C469 H481 0.929 . S
C470 C466 1.531 . S
C470 H482 0.960 . S
C470 H483 0.962 . S
C470 H484 0.960 . S
C471 C468 1.511 . S
C471 H485 0.961 . S
C471 H486 0.961 . S
C471 H487 0.961 . S
C472 C473 1.370 . S
C472 C474 1.363 . S
C472 H488 0.931 . S
C473 C472 1.370 . S
C473 C477 1.408 . S
C474 C472 1.363 . S
C474 C475 1.370 . S
C474 C478 1.524 . S
C475 C467 1.503 . S
C475 C474 1.370 . S
C475 C476 1.403 . S
C476 C475 1.403 . S
C476 C477 1.404 . S
C476 C479 1.539 . S
C477 C473 1.408 . S
C477 C476 1.404 . S
C477 H489 0.930 . S
C478 C474 1.524 . S
C478 H490 0.956 . S
C478 H491 0.961 . S
C478 H492 0.961 . S
C479 C476 1.539 . S
C479 H493 0.958 . S
C479 H494 0.961 . S
C479 H495 0.960 . S
H480 C464 0.931 . S
H481 C469 0.929 . S
H482 C470 0.960 . S
H483 C470 0.962 . S
H484 C470 0.960 . S
H485 C471 0.961 . S
H486 C471 0.961 . S
H487 C471 0.961 . S
H488 C472 0.931 . S
H489 C477 0.930 . S
H490 C478 0.956 . S
H491 C478 0.961 . S
H492 C478 0.961 . S
H493 C479 0.958 . S
H494 C479 0.961 . S
H495 C479 0.960 . S
C496 C497 1.391 . S
C496 C498 1.394 . S
C496 H512 0.931 . S
C497 C496 1.391 . S
C497 C501 1.376 . S
C498 C496 1.394 . S
C498 C499 1.369 . S
C498 C502 1.531 . S
C499 C498 1.369 . S
C499 C500 1.410 . S
C499 C507 1.503 . S
C500 C499 1.410 . S
C500 C501 1.392 . S
C500 C503 1.511 . S
C501 C497 1.376 . S
C501 C500 1.392 . S
C501 H513 0.929 . S
C502 C498 1.531 . S
C502 H514 0.960 . S
C502 H515 0.962 . S
C502 H516 0.960 . S
C503 C500 1.511 . S
C503 H517 0.961 . S
C503 H518 0.961 . S
C503 H519 0.961 . S
C504 C505 1.370 . S
C504 C506 1.363 . S
C504 H520 0.931 . S
C505 C504 1.370 . S
C505 C509 1.408 . S
C506 C504 1.363 . S
C506 C507 1.370 . S
C506 C510 1.524 . S
C507 C499 1.503 . S
C507 C506 1.370 . S
C507 C508 1.403 . S
C508 C507 1.403 . S
C508 C509 1.404 . S
C508 C511 1.539 . S
C509 C505 1.408 . S
C509 C508 1.404 . S
C509 H521 0.930 . S
C510 C506 1.524 . S
C510 H522 0.956 . S
C510 H523 0.961 . S
C510 H524 0.961 . S
C511 C508 1.539 . S
C511 H525 0.958 . S
C511 H526 0.961 . S
C511 H527 0.960 . S
H512 C496 0.931 . S
H513 C501 0.929 . S
H514 C502 0.960 . S
H515 C502 0.962 . S
H516 C502 0.960 . S
H517 C503 0.961 . S
H518 C503 0.961 . S
H519 C503 0.961 . S
H520 C504 0.931 . S
H521 C509 0.930 . S
H522 C510 0.956 . S
H523 C510 0.961 . S
H524 C510 0.961 . S
H525 C511 0.958 . S
H526 C511 0.961 . S
H527 C511 0.960 . S
C528 C529 1.391 . S
C528 C530 1.394 . S
C528 H544 0.931 . S
C529 C528 1.391 . S
C529 C533 1.376 . S
C530 C528 1.394 . S
C530 C531 1.369 . S
C530 C534 1.531 . S
C531 C530 1.369 . S
C531 C532 1.410 . S
C531 C539 1.503 . S
C532 C531 1.410 . S
C532 C533 1.392 . S
C532 C535 1.511 . S
C533 C529 1.376 . S
C533 C532 1.392 . S
C533 H545 0.929 . S
C534 C530 1.531 . S
C534 H546 0.960 . S
C534 H547 0.962 . S
C534 H548 0.960 . S
C535 C532 1.511 . S
C535 H549 0.961 . S
C535 H550 0.961 . S
C535 H551 0.961 . S
C536 C537 1.370 . S
C536 C538 1.363 . S
C536 H552 0.931 . S
C537 C536 1.370 . S
C537 C541 1.408 . S
C538 C536 1.363 . S
C538 C539 1.370 . S
C538 C542 1.524 . S
C539 C531 1.503 . S
C539 C538 1.370 . S
C539 C540 1.403 . S
C540 C539 1.403 . S
C540 C541 1.404 . S
C540 C543 1.539 . S
C541 C537 1.408 . S
C541 C540 1.404 . S
C541 H553 0.930 . S
C542 C538 1.524 . S
C542 H554 0.956 . S
C542 H555 0.961 . S
C542 H556 0.961 . S
C543 C540 1.539 . S
C543 H557 0.958 . S
C543 H558 0.961 . S
C543 H559 0.960 . S
H544 C528 0.931 . S
H545 C533 0.929 . S
H546 C534 0.960 . S
H547 C534 0.962 . S
H548 C534 0.960 . S
H549 C535 0.961 . S
H550 C535 0.961 . S
H551 C535 0.961 . S
H552 C536 0.931 . S
H553 C541 0.930 . S
H554 C542 0.956 . S
H555 C542 0.961 . S
H556 C542 0.961 . S
H557 C543 0.958 . S
H558 C543 0.961 . S
H559 C543 0.960 . S
C560 C561 1.391 . S
C560 C562 1.394 . S
C560 H576 0.931 . S
C561 C560 1.391 . S
C561 C565 1.376 . S
C562 C560 1.394 . S
C562 C563 1.369 . S
C562 C566 1.531 . S
C563 C562 1.369 . S
C563 C564 1.410 1_556 S
C563 C571 1.503 . S
C564 C563 1.410 1_554 S
C564 C565 1.392 1_554 S
C564 C567 1.511 . S
C565 C561 1.376 . S
C565 C564 1.392 1_556 S
C565 H577 0.929 . S
C566 C562 1.531 . S
C566 H578 0.960 . S
C566 H579 0.962 . S
C566 H580 0.960 . S
C567 C564 1.511 . S
C567 H581 0.961 . S
C567 H582 0.961 . S
C567 H583 0.961 . S
C568 C569 1.369 . S
C568 C570 1.364 1_554 S
C568 H584 0.932 1_554 S
C569 C568 1.369 . S
C569 C573 1.408 . S
C570 C568 1.364 1_556 S
C570 C571 1.370 . S
C570 C574 1.524 . S
C571 C563 1.503 . S
C571 C570 1.370 . S
C571 C572 1.403 1_556 S
C572 C571 1.403 1_554 S
C572 C573 1.404 . S
C572 C575 1.539 . S
C573 C569 1.408 . S
C573 C572 1.404 . S
C573 H585 0.930 . S
C574 C570 1.524 . S
C574 H586 0.956 . S
C574 H587 0.961 . S
C574 H588 0.961 . S
C575 C572 1.539 . S
C575 H589 0.958 . S
C575 H590 0.961 . S
C575 H591 0.960 . S
H576 C560 0.931 . S
H577 C565 0.929 . S
H578 C566 0.960 . S
H579 C566 0.962 . S
H580 C566 0.960 . S
H581 C567 0.961 . S
H582 C567 0.961 . S
H583 C567 0.961 . S
H584 C568 0.932 1_556 S
H585 C573 0.930 . S
H586 C574 0.956 . S
H587 C574 0.961 . S
H588 C574 0.961 . S
H589 C575 0.958 . S
H590 C575 0.961 . S
H591 C575 0.960 . S
C592 C593 1.391 . S
C592 C594 1.394 . S
C592 H608 0.931 . S
C593 C592 1.391 . S
C593 C597 1.376 . S
C594 C592 1.394 . S
C594 C595 1.369 . S
C594 C598 1.531 . S
C595 C594 1.369 . S
C595 C596 1.410 1_556 S
C595 C603 1.503 1_556 S
C596 C595 1.410 1_554 S
C596 C597 1.392 1_554 S
C596 C599 1.511 . S
C597 C593 1.376 . S
C597 C596 1.392 1_556 S
C597 H609 0.929 1_556 S
C598 C594 1.531 . S
C598 H610 0.960 . S
C598 H611 0.962 . S
C598 H612 0.960 . S
C599 C596 1.511 . S
C599 H613 0.961 . S
C599 H614 0.961 . S
C599 H615 0.961 . S
C600 C601 1.370 . S
C600 C602 1.363 . S
C600 H616 0.931 . S
C601 C600 1.370 . S
C601 C605 1.408 . S
C602 C600 1.363 . S
C602 C603 1.370 . S
C602 C606 1.524 . S
C603 C595 1.503 1_554 S
C603 C602 1.370 . S
C603 C604 1.403 1_554 S
C604 C603 1.403 1_556 S
C604 C605 1.404 1_556 S
C604 C607 1.539 . S
C605 C601 1.408 . S
C605 C604 1.404 1_554 S
C605 H617 0.930 . S
C606 C602 1.524 . S
C606 H618 0.956 . S
C606 H619 0.961 . S
C606 H620 0.961 . S
C607 C604 1.539 . S
C607 H621 0.958 . S
C607 H622 0.961 . S
C607 H623 0.960 . S
H608 C592 0.931 . S
H609 C597 0.929 1_554 S
H610 C598 0.960 . S
H611 C598 0.962 . S
H612 C598 0.960 . S
H613 C599 0.961 . S
H614 C599 0.961 . S
H615 C599 0.961 . S
H616 C600 0.931 . S
H617 C605 0.930 . S
H618 C606 0.956 . S
H619 C606 0.961 . S
H620 C606 0.961 . S
H621 C607 0.958 . S
H622 C607 0.961 . S
H623 C607 0.960 . S
C624 C625 1.391 1_556 S
C624 C626 1.394 . S
C624 H640 0.931 . S
C625 C624 1.391 1_554 S
C625 C629 1.376 . S
C626 C624 1.394 . S
C626 C627 1.369 . S
C626 C630 1.531 . S
C627 C626 1.369 . S
C627 C628 1.410 1_556 S
C627 C635 1.503 . S
C628 C627 1.410 1_554 S
C628 C629 1.392 . S
C628 C631 1.511 . S
C629 C625 1.376 . S
C629 C628 1.392 . S
C629 H641 0.929 . S
C630 C626 1.531 . S
C630 H642 0.960 . S
C630 H643 0.962 . S
C630 H644 0.960 . S
C631 C628 1.511 . S
C631 H645 0.961 . S
C631 H646 0.961 . S
C631 H647 0.961 . S
C632 C633 1.370 . S
C632 C634 1.363 . S
C632 H648 0.931 . S
C633 C632 1.370 . S
C633 C637 1.408 . S
C634 C632 1.363 . S
C634 C635 1.370 . S
C634 C638 1.524 1_556 S
C635 C627 1.503 . S
C635 C634 1.370 . S
C635 C636 1.403 . S
C636 C635 1.403 . S
C636 C637 1.404 . S
C636 C639 1.539 . S
C637 C633 1.408 . S
C637 C636 1.404 . S
C637 H649 0.930 . S
C638 C634 1.524 1_554 S
C638 H650 0.956 . S
C638 H651 0.961 . S
C638 H652 0.961 . S
C639 C636 1.539 . S
C639 H653 0.958 . S
C639 H654 0.961 . S
C639 H655 0.960 . S
H640 C624 0.931 . S
H641 C629 0.929 . S
H642 C630 0.960 . S
H643 C630 0.962 . S
H644 C630 0.960 . S
H645 C631 0.961 . S
H646 C631 0.961 . S
H647 C631 0.961 . S
H648 C632 0.931 . S
H649 C637 0.930 . S
H650 C638 0.956 . S
H651 C638 0.961 . S
H652 C638 0.961 . S
H653 C639 0.958 . S
H654 C639 0.961 . S
H655 C639 0.960 . S
C656 C657 1.391 . S
C656 C658 1.394 . S
C656 H672 0.931 . S
C657 C656 1.391 . S
C657 C661 1.366 1_556 S
C658 C656 1.394 . S
C658 C659 1.369 . S
C658 C662 1.531 . S
C659 C658 1.369 . S
C659 C660 1.410 1_556 S
C659 C667 1.503 1_556 S
C660 C659 1.410 1_554 S
C660 C661 1.397 . S
C660 C663 1.511 . S
C661 C657 1.366 1_554 S
C661 C660 1.397 . S
C661 H673 0.934 . S
C662 C658 1.531 . S
C662 H674 0.960 . S
C662 H675 0.962 . S
C662 H676 0.960 . S
C663 C660 1.511 . S
C663 H677 0.961 . S
C663 H678 0.961 . S
C663 H679 0.961 . S
C664 C665 1.370 . S
C664 C666 1.363 . S
C664 H680 0.931 . S
C665 C664 1.370 . S
C665 C669 1.408 . S
C666 C664 1.363 . S
C666 C667 1.370 . S
C666 C670 1.524 . S
C667 C659 1.503 1_554 S
C667 C666 1.370 . S
C667 C668 1.403 . S
C668 C667 1.403 . S
C668 C669 1.404 . S
C668 C671 1.539 1_554 S
C669 C665 1.408 . S
C669 C668 1.404 . S
C669 H681 0.930 . S
C670 C666 1.524 . S
C670 H682 0.956 . S
C670 H683 0.961 . S
C670 H684 0.961 . S
C671 C668 1.539 1_556 S
C671 H685 0.958 . S
C671 H686 0.961 . S
C671 H687 0.960 . S
H672 C656 0.931 . S
H673 C661 0.934 . S
H674 C662 0.960 . S
H675 C662 0.962 . S
H676 C662 0.960 . S
H677 C663 0.961 . S
H678 C663 0.961 . S
H679 C663 0.961 . S
H680 C664 0.931 . S
H681 C669 0.930 . S
H682 C670 0.956 . S
H683 C670 0.961 . S
H684 C670 0.961 . S
H685 C671 0.958 . S
H686 C671 0.961 . S
H687 C671 0.960 . S
C688 C689 1.391 . S
C688 C690 1.394 . S
C688 H704 0.931 . S
C689 C688 1.391 . S
C689 C693 1.376 . S
C690 C688 1.394 . S
C690 C691 1.369 . S
C690 C694 1.531 . S
C691 C690 1.369 . S
C691 C692 1.410 . S
C691 C699 1.503 . S
C692 C691 1.410 . S
C692 C693 1.392 . S
C692 C695 1.511 . S
C693 C689 1.376 . S
C693 C692 1.392 . S
C693 H705 0.929 . S
C694 C690 1.531 . S
C694 H706 0.960 . S
C694 H707 0.962 . S
C694 H708 0.960 . S
C695 C692 1.511 . S
C695 H709 0.961 . S
C695 H710 0.961 . S
C695 H711 0.961 . S
C696 C697 1.370 . S
C696 C698 1.363 . S
C696 H712 0.931 . S
C697 C696 1.370 . S
C697 C701 1.408 . S
C698 C696 1.363 . S
C698 C699 1.370 . S
C698 C702 1.524 . S
C699 C691 1.503 . S
C699 C698 1.370 . S
C699 C700 1.403 . S
C700 C699 1.403 . S
C700 C701 1.404 . S
C700 C703 1.539 . S
C701 C697 1.408 . S
C701 C700 1.404 . S
C701 H713 0.930 . S
C702 C698 1.524 . S
C702 H714 0.956 . S
C702 H715 0.961 . S
C702 H716 0.961 . S
C703 C700 1.539 . S
C703 H717 0.958 . S
C703 H718 0.961 . S
C703 H719 0.960 . S
H704 C688 0.931 . S
H705 C693 0.929 . S
H706 C694 0.960 . S
H707 C694 0.962 . S
H708 C694 0.960 . S
H709 C695 0.961 . S
H710 C695 0.961 . S
H711 C695 0.961 . S
H712 C696 0.931 . S
H713 C701 0.930 . S
H714 C702 0.956 . S
H715 C702 0.961 . S
H716 C702 0.961 . S
H717 C703 0.958 . S
H718 C703 0.961 . S
H719 C703 0.960 . S
C720 C721 1.391 . S
C720 C722 1.394 . S
C720 H736 0.931 . S
C721 C720 1.391 . S
C721 C725 1.376 . S
C722 C720 1.394 . S
C722 C723 1.369 . S
C722 C726 1.531 . S
C723 C722 1.369 . S
C723 C724 1.410 . S
C723 C731 1.503 . S
C724 C723 1.410 . S
C724 C725 1.392 . S
C724 C727 1.511 . S
C725 C721 1.376 . S
C725 C724 1.392 . S
C725 H737 0.929 . S
C726 C722 1.531 . S
C726 H738 0.960 . S
C726 H739 0.962 . S
C726 H740 0.960 . S
C727 C724 1.511 . S
C727 H741 0.961 . S
C727 H742 0.961 . S
C727 H743 0.961 . S
C728 C729 1.370 . S
C728 C730 1.363 . S
C728 H744 0.931 . S
C729 C728 1.370 . S
C729 C733 1.408 . S
C730 C728 1.363 . S
C730 C731 1.370 . S
C730 C734 1.524 . S
C731 C723 1.503 . S
C731 C730 1.370 . S
C731 C732 1.403 . S
C732 C731 1.403 . S
C732 C733 1.404 . S
C732 C735 1.539 . S
C733 C729 1.408 . S
C733 C732 1.404 . S
C733 H745 0.930 . S
C734 C730 1.524 . S
C734 H746 0.956 . S
C734 H747 0.961 . S
C734 H748 0.961 . S
C735 C732 1.539 . S
C735 H749 0.958 . S
C735 H750 0.961 . S
C735 H751 0.960 . S
H736 C720 0.931 . S
H737 C725 0.929 . S
H738 C726 0.960 . S
H739 C726 0.962 . S
H740 C726 0.960 . S
H741 C727 0.961 . S
H742 C727 0.961 . S
H743 C727 0.961 . S
H744 C728 0.931 . S
H745 C733 0.930 . S
H746 C734 0.956 . S
H747 C734 0.961 . S
H748 C734 0.961 . S
H749 C735 0.958 . S
H750 C735 0.961 . S
H751 C735 0.960 . S
C752 C753 1.391 . S
C752 C754 1.394 . S
C752 H768 0.931 . S
C753 C752 1.391 . S
C753 C757 1.376 . S
C754 C752 1.394 . S
C754 C755 1.369 . S
C754 C758 1.531 . S
C755 C754 1.369 . S
C755 C756 1.410 . S
C755 C763 1.503 . S
C756 C755 1.410 . S
C756 C757 1.392 . S
C756 C759 1.511 . S
C757 C753 1.376 . S
C757 C756 1.392 . S
C757 H769 0.929 . S
C758 C754 1.531 . S
C758 H770 0.960 . S
C758 H771 0.962 . S
C758 H772 0.960 . S
C759 C756 1.511 . S
C759 H773 0.961 . S
C759 H774 0.961 . S
C759 H775 0.961 . S
C760 C761 1.370 . S
C760 C762 1.363 . S
C760 H776 0.931 . S
C761 C760 1.370 . S
C761 C765 1.408 . S
C762 C760 1.363 . S
C762 C763 1.370 . S
C762 C766 1.524 . S
C763 C755 1.503 . S
C763 C762 1.370 . S
C763 C764 1.403 . S
C764 C763 1.403 . S
C764 C765 1.404 . S
C764 C767 1.539 . S
C765 C761 1.408 . S
C765 C764 1.404 . S
C765 H777 0.930 . S
C766 C762 1.524 . S
C766 H778 0.956 . S
C766 H779 0.961 . S
C766 H780 0.961 . S
C767 C764 1.539 . S
C767 H781 0.958 . S
C767 H782 0.961 . S
C767 H783 0.960 . S
H768 C752 0.931 . S
H769 C757 0.929 . S
H770 C758 0.960 . S
H771 C758 0.962 . S
H772 C758 0.960 . S
H773 C759 0.961 . S
H774 C759 0.961 . S
H775 C759 0.961 . S
H776 C760 0.931 . S
H777 C765 0.930 . S
H778 C766 0.956 . S
H779 C766 0.961 . S
H780 C766 0.961 . S
H781 C767 0.958 . S
H782 C767 0.961 . S
H783 C767 0.960 . S
C784 C785 1.391 . S
C784 C786 1.394 . S
C784 H800 0.931 . S
C785 C784 1.391 . S
C785 C789 1.376 . S
C786 C784 1.394 . S
C786 C787 1.369 . S
C786 C790 1.531 . S
C787 C786 1.369 . S
C787 C788 1.410 . S
C787 C795 1.503 . S
C788 C787 1.410 . S
C788 C789 1.392 . S
C788 C791 1.511 . S
C789 C785 1.376 . S
C789 C788 1.392 . S
C789 H801 0.929 . S
C790 C786 1.531 . S
C790 H802 0.960 . S
C790 H803 0.962 . S
C790 H804 0.960 . S
C791 C788 1.511 . S
C791 H805 0.961 . S
C791 H806 0.961 . S
C791 H807 0.961 . S
C792 C793 1.370 . S
C792 C794 1.363 . S
C792 H808 0.931 . S
C793 C792 1.370 . S
C793 C797 1.408 . S
C794 C792 1.363 . S
C794 C795 1.370 . S
C794 C798 1.524 . S
C795 C787 1.503 . S
C795 C794 1.370 . S
C795 C796 1.403 . S
C796 C795 1.403 . S
C796 C797 1.404 . S
C796 C799 1.539 . S
C797 C793 1.408 . S
C797 C796 1.404 . S
C797 H809 0.930 . S
C798 C794 1.524 . S
C798 H810 0.956 . S
C798 H811 0.961 . S
C798 H812 0.961 . S
C799 C796 1.539 . S
C799 H813 0.958 . S
C799 H814 0.961 . S
C799 H815 0.960 . S
H800 C784 0.931 . S
H801 C789 0.929 . S
H802 C790 0.960 . S
H803 C790 0.962 . S
H804 C790 0.960 . S
H805 C791 0.961 . S
H806 C791 0.961 . S
H807 C791 0.961 . S
H808 C792 0.931 . S
H809 C797 0.930 . S
H810 C798 0.956 . S
H811 C798 0.961 . S
H812 C798 0.961 . S
H813 C799 0.958 . S
H814 C799 0.961 . S
H815 C799 0.960 . S
C816 C817 1.391 . S
C816 C818 1.394 . S
C816 H832 0.931 . S
C817 C816 1.391 . S
C817 C821 1.376 . S
C818 C816 1.394 . S
C818 C819 1.369 . S
C818 C822 1.531 . S
C819 C818 1.369 . S
C819 C820 1.410 . S
C819 C827 1.503 1_545 S
C820 C819 1.410 . S
C820 C821 1.392 . S
C820 C823 1.511 . S
C821 C817 1.376 . S
C821 C820 1.392 . S
C821 H833 0.929 . S
C822 C818 1.531 . S
C822 H834 0.960 1_545 S
C822 H835 0.962 . S
C822 H836 0.960 . S
C823 C820 1.511 . S
C823 H837 0.961 . S
C823 H838 0.961 1_545 S
C823 H839 0.961 1_545 S
C824 C825 1.370 . S
C824 C826 1.363 . S
C824 H840 0.931 . S
C825 C824 1.370 . S
C825 C829 1.408 . S
C826 C824 1.363 . S
C826 C827 1.370 . S
C826 C830 1.524 1_565 S
C827 C819 1.503 1_565 S
C827 C826 1.370 . S
C827 C828 1.403 . S
C828 C827 1.403 . S
C828 C829 1.404 . S
C828 C831 1.539 . S
C829 C825 1.408 . S
C829 C828 1.404 . S
C829 H841 0.930 . S
C830 C826 1.524 1_545 S
C830 H842 0.956 . S
C830 H843 0.961 . S
C830 H844 0.961 . S
C831 C828 1.539 . S
C831 H845 0.958 . S
C831 H846 0.961 . S
C831 H847 0.960 . S
H832 C816 0.931 . S
H833 C821 0.929 . S
H834 C822 0.960 1_565 S
H835 C822 0.962 . S
H836 C822 0.960 . S
H837 C823 0.961 . S
H838 C823 0.961 1_565 S
H839 C823 0.961 1_565 S
H840 C824 0.931 . S
H841 C829 0.930 . S
H842 C830 0.956 . S
H843 C830 0.961 . S
H844 C830 0.961 . S
H845 C831 0.958 . S
H846 C831 0.961 . S
H847 C831 0.960 . S
C848 C849 1.391 . S
C848 C850 1.394 . S
C848 H864 0.931 . S
C849 C848 1.391 . S
C849 C853 1.376 . S
C850 C848 1.394 . S
C850 C851 1.369 . S
C850 C854 1.531 . S
C851 C850 1.369 . S
C851 C852 1.410 . S
C851 C859 1.503 1_655 S
C852 C851 1.410 . S
C852 C853 1.392 . S
C852 C855 1.511 . S
C853 C849 1.376 . S
C853 C852 1.392 . S
C853 H865 0.929 . S
C854 C850 1.531 . S
C854 H866 0.960 . S
C854 H867 0.962 . S
C854 H868 0.960 . S
C855 C852 1.511 . S
C855 H869 0.961 . S
C855 H870 0.961 1_655 S
C855 H871 0.961 . S
C856 C857 1.370 . S
C856 C858 1.363 . S
C856 H872 0.931 . S
C857 C856 1.370 . S
C857 C861 1.408 . S
C858 C856 1.363 . S
C858 C859 1.370 . S
C858 C862 1.524 . S
C859 C851 1.503 1_455 S
C859 C858 1.370 . S
C859 C860 1.403 . S
C860 C859 1.403 . S
C860 C861 1.404 . S
C860 C863 1.539 1_455 S
C861 C857 1.408 . S
C861 C860 1.404 . S
C861 H873 0.930 . S
C862 C858 1.524 . S
C862 H874 0.956 . S
C862 H875 0.961 . S
C862 H876 0.961 . S
C863 C860 1.539 1_655 S
C863 H877 0.958 . S
C863 H878 0.961 . S
C863 H879 0.960 . S
H864 C848 0.931 . S
H865 C853 0.929 . S
H866 C854 0.960 . S
H867 C854 0.962 . S
H868 C854 0.960 . S
H869 C855 0.961 . S
H870 C855 0.961 1_455 S
H871 C855 0.961 . S
H872 C856 0.931 . S
H873 C861 0.930 . S
H874 C862 0.956 . S
H875 C862 0.961 . S
H876 C862 0.961 . S
H877 C863 0.958 . S
H878 C863 0.961 . S
H879 C863 0.960 . S
C880 C881 1.391 . S
C880 C882 1.394 . S
C880 H896 0.931 . S
C881 C880 1.391 . S
C881 C885 1.376 . S
C882 C880 1.394 . S
C882 C883 1.369 . S
C882 C886 1.531 1_565 S
C883 C882 1.369 . S
C883 C884 1.410 . S
C883 C891 1.503 1_565 S
C884 C883 1.410 . S
C884 C885 1.392 . S
C884 C887 1.511 . S
C885 C881 1.376 . S
C885 C884 1.392 . S
C885 H897 0.929 . S
C886 C882 1.531 1_545 S
C886 H898 0.960 . S
C886 H899 0.962 . S
C886 H900 0.960 . S
C887 C884 1.511 . S
C887 H901 0.961 . S
C887 H902 0.961 . S
C887 H903 0.961 . S
C888 C889 1.370 . S
C888 C890 1.363 . S
C888 H904 0.931 . S
C889 C888 1.370 . S
C889 C893 1.408 . S
C890 C888 1.363 . S
C890 C891 1.370 . S
C890 C894 1.524 . S
C891 C883 1.503 1_545 S
C891 C890 1.370 . S
C891 C892 1.403 . S
C892 C891 1.403 . S
C892 C893 1.404 . S
C892 C895 1.539 1_545 S
C893 C889 1.408 . S
C893 C892 1.404 . S
C893 H905 0.930 . S
C894 C890 1.524 . S
C894 H906 0.956 . S
C894 H907 0.961 . S
C894 H908 0.961 . S
C895 C892 1.539 1_565 S
C895 H909 0.958 . S
C895 H910 0.961 . S
C895 H911 0.960 . S
H896 C880 0.931 . S
H897 C885 0.929 . S
H898 C886 0.960 . S
H899 C886 0.962 . S
H900 C886 0.960 . S
H901 C887 0.961 . S
H902 C887 0.961 . S
H903 C887 0.961 . S
H904 C888 0.931 . S
H905 C893 0.930 . S
H906 C894 0.956 . S
H907 C894 0.961 . S
H908 C894 0.961 . S
H909 C895 0.958 . S
H910 C895 0.961 . S
H911 C895 0.960 . S
C912 C913 1.391 . S
C912 C914 1.394 . S
C912 H928 0.931 . S
C913 C912 1.391 . S
C913 C917 1.376 . S
C914 C912 1.394 . S
C914 C915 1.369 . S
C914 C918 1.531 1_655 S
C915 C914 1.369 . S
C915 C916 1.410 . S
C915 C923 1.503 1_655 S
C916 C915 1.410 . S
C916 C917 1.392 . S
C916 C919 1.511 . S
C917 C913 1.376 . S
C917 C916 1.392 . S
C917 H929 0.929 . S
C918 C914 1.531 1_455 S
C918 H930 0.960 . S
C918 H931 0.962 . S
C918 H932 0.960 . S
C919 C916 1.511 . S
C919 H933 0.961 . S
C919 H934 0.961 . S
C919 H935 0.961 . S
C920 C921 1.370 . S
C920 C922 1.363 . S
C920 H936 0.931 . S
C921 C920 1.370 . S
C921 C925 1.408 . S
C922 C920 1.363 . S
C922 C923 1.370 . S
C922 C926 1.524 1_455 S
C923 C915 1.503 1_455 S
C923 C922 1.370 . S
C923 C924 1.403 . S
C924 C923 1.403 . S
C924 C925 1.404 . S
C924 C927 1.539 . S
C925 C921 1.408 . S
C925 C924 1.404 . S
C925 H937 0.930 . S
C926 C922 1.524 1_655 S
C926 H938 0.956 . S
C926 H939 0.961 . S
C926 H940 0.961 1_655 S
C927 C924 1.539 . S
C927 H941 0.958 . S
C927 H942 0.961 . S
C927 H943 0.960 . S
H928 C912 0.931 . S
H929 C917 0.929 . S
H930 C918 0.960 . S
H931 C918 0.962 . S
H932 C918 0.960 . S
H933 C919 0.961 . S
H934 C919 0.961 . S
H935 C919 0.961 . S
H936 C920 0.931 . S
H937 C925 0.930 . S
H938 C926 0.956 . S
H939 C926 0.961 . S
H940 C926 0.961 1_455 S
H941 C927 0.958 . S
H942 C927 0.961 . S
H943 C927 0.960 . S
C177 C116 1.146 . S
C185 C7 1.205 . S
C209 C27 1.235 . S
C217 C141 1.191 . S
C241 C160 1.175 . S
C249 C51 1.183 . S
C273 C71 1.196 . S
C281 C97 1.181 . S
C305 C96 1.432 . S
C313 C6 1.453 . S
C337 C31 1.447 . S
C345 C114 1.441 . S
C369 C50 1.453 . S
C377 C140 1.451 . S
C401 C158 1.449 . S
C409 C75 1.455 . S
C433 C8 1.431 . S
C441 C93 1.453 . S
C465 C117 1.447 . S
C473 C26 1.443 . S
C497 C52 1.455 . S
C505 C137 1.455 . S
C529 C70 1.456 . S
C537 C161 1.456 . S
C561 C30 1.042 . S
C569 C5 1.009 . S
C593 C29 0.979 . S
C601 C48 1.020 . S
C625 C49 1.027 . S
C633 C74 1.011 . S
C657 C73 0.980 . S
C665 C4 1.018 . S
C689 C94 0.993 . S
C697 C162 1.029 . S
C721 C92 1.012 . S
C729 C119 1.027 . S
C753 C138 1.039 . S
C761 C118 1.015 . S
C785 C163 1.043 . S
C793 C136 1.019 . S
C817 C9 1.596 . S
C825 C53 1.544 . S
C849 C72 1.512 . S
C857 C28 1.568 . S
C881 C139 1.554 . S
C889 C95 1.579 . S
C913 C159 1.547 . S
C921 C115 1.546 . S
