# Generated by pormake.
# Topology ana, (4)-cn, num edge types: 1
# Building blocks:
#     Node 0, Type 0, BuildingBlock: NAHDIM_clean_sbu_0, # of connection points: 4
#     Node 1, Type 0, BuildingBlock: NAHDIM_clean_sbu_0, # of connection points: 4
#     Node 2, Type 0, BuildingBlock: NAHDIM_clean_sbu_0, # of connection points: 4
#     Node 3, Type 0, BuildingBlock: NAHDIM_clean_sbu_0, # of connection points: 4
#     Node 4, Type 0, BuildingBlock: NAHDIM_clean_sbu_0, # of connection points: 4
#     Node 5, Type 0, BuildingBlock: NAHDIM_clean_sbu_0, # of connection points: 4
#     Node 6, Type 0, BuildingBlock: NAHDIM_clean_sbu_0, # of connection points: 4
#     Node 7, Type 0, BuildingBlock: NAHDIM_clean_sbu_0, # of connection points: 4
#     Node 8, Type 0, BuildingBlock: NAHDIM_clean_sbu_0, # of connection points: 4
#     Node 9, Type 0, BuildingBlock: NAHDIM_clean_sbu_0, # of connection points: 4
#     Node 10, Type 0, BuildingBlock: NAHDIM_clean_sbu_0, # of connection points: 4
#     Node 11, Type 0, BuildingBlock: NAHDIM_clean_sbu_0, # of connection points: 4
#     Node 12, Type 0, BuildingBlock: NAHDIM_clean_sbu_0, # of connection points: 4
#     Node 13, Type 0, BuildingBlock: NAHDIM_clean_sbu_0, # of connection points: 4
#     Node 14, Type 0, BuildingBlock: NAHDIM_clean_sbu_0, # of connection points: 4
#     Node 15, Type 0, BuildingBlock: NAHDIM_clean_sbu_0, # of connection points: 4
#     Node 16, Type 0, BuildingBlock: NAHDIM_clean_sbu_0, # of connection points: 4
#     Node 17, Type 0, BuildingBlock: NAHDIM_clean_sbu_0, # of connection points: 4
#     Node 18, Type 0, BuildingBlock: NAHDIM_clean_sbu_0, # of connection points: 4
#     Node 19, Type 0, BuildingBlock: NAHDIM_clean_sbu_0, # of connection points: 4
#     Node 20, Type 0, BuildingBlock: NAHDIM_clean_sbu_0, # of connection points: 4
#     Node 21, Type 0, BuildingBlock: NAHDIM_clean_sbu_0, # of connection points: 4
#     Node 22, Type 0, BuildingBlock: NAHDIM_clean_sbu_0, # of connection points: 4
#     Node 23, Type 0, BuildingBlock: NAHDIM_clean_sbu_0, # of connection points: 4
#     Node 24, Type 0, BuildingBlock: NAHDIM_clean_sbu_0, # of connection points: 4
#     Node 25, Type 0, BuildingBlock: NAHDIM_clean_sbu_0, # of connection points: 4
#     Node 26, Type 0, BuildingBlock: NAHDIM_clean_sbu_0, # of connection points: 4
#     Node 27, Type 0, BuildingBlock: NAHDIM_clean_sbu_0, # of connection points: 4
#     Node 28, Type 0, BuildingBlock: NAHDIM_clean_sbu_0, # of connection points: 4
#     Node 29, Type 0, BuildingBlock: NAHDIM_clean_sbu_0, # of connection points: 4
#     Node 30, Type 0, BuildingBlock: NAHDIM_clean_sbu_0, # of connection points: 4
#     Node 31, Type 0, BuildingBlock: NAHDIM_clean_sbu_0, # of connection points: 4
#     Node 32, Type 0, BuildingBlock: NAHDIM_clean_sbu_0, # of connection points: 4
#     Node 33, Type 0, BuildingBlock: NAHDIM_clean_sbu_0, # of connection points: 4
#     Node 34, Type 0, BuildingBlock: NAHDIM_clean_sbu_0, # of connection points: 4
#     Node 35, Type 0, BuildingBlock: NAHDIM_clean_sbu_0, # of connection points: 4
#     Node 36, Type 0, BuildingBlock: NAHDIM_clean_sbu_0, # of connection points: 4
#     Node 37, Type 0, BuildingBlock: NAHDIM_clean_sbu_0, # of connection points: 4
#     Node 38, Type 0, BuildingBlock: NAHDIM_clean_sbu_0, # of connection points: 4
#     Node 39, Type 0, BuildingBlock: NAHDIM_clean_sbu_0, # of connection points: 4
#     Node 40, Type 0, BuildingBlock: NAHDIM_clean_sbu_0, # of connection points: 4
#     Node 41, Type 0, BuildingBlock: NAHDIM_clean_sbu_0, # of connection points: 4
#     Node 42, Type 0, BuildingBlock: NAHDIM_clean_sbu_0, # of connection points: 4
#     Node 43, Type 0, BuildingBlock: NAHDIM_clean_sbu_0, # of connection points: 4
#     Node 44, Type 0, BuildingBlock: NAHDIM_clean_sbu_0, # of connection points: 4
#     Node 45, Type 0, BuildingBlock: NAHDIM_clean_sbu_0, # of connection points: 4
#     Node 46, Type 0, BuildingBlock: NAHDIM_clean_sbu_0, # of connection points: 4
#     Node 47, Type 0, BuildingBlock: NAHDIM_clean_sbu_0, # of connection points: 4
#     Edge 48, Type (0, 0), BuildingBlock: XIVTED_clean_linker_0, # of connection points: 2
#     Edge 49, Type (0, 0), BuildingBlock: XIVTED_clean_linker_0, # of connection points: 2
#     Edge 50, Type (0, 0), BuildingBlock: XIVTED_clean_linker_0, # of connection points: 2
#     Edge 51, Type (0, 0), BuildingBlock: XIVTED_clean_linker_0, # of connection points: 2
#     Edge 52, Type (0, 0), BuildingBlock: XIVTED_clean_linker_0, # of connection points: 2
#     Edge 53, Type (0, 0), BuildingBlock: XIVTED_clean_linker_0, # of connection points: 2
#     Edge 54, Type (0, 0), BuildingBlock: XIVTED_clean_linker_0, # of connection points: 2
#     Edge 55, Type (0, 0), BuildingBlock: XIVTED_clean_linker_0, # of connection points: 2
#     Edge 56, Type (0, 0), BuildingBlock: XIVTED_clean_linker_0, # of connection points: 2
#     Edge 57, Type (0, 0), BuildingBlock: XIVTED_clean_linker_0, # of connection points: 2
#     Edge 58, Type (0, 0), BuildingBlock: XIVTED_clean_linker_0, # of connection points: 2
#     Edge 59, Type (0, 0), BuildingBlock: XIVTED_clean_linker_0, # of connection points: 2
#     Edge 60, Type (0, 0), BuildingBlock: XIVTED_clean_linker_0, # of connection points: 2
#     Edge 61, Type (0, 0), BuildingBlock: XIVTED_clean_linker_0, # of connection points: 2
#     Edge 62, Type (0, 0), BuildingBlock: XIVTED_clean_linker_0, # of connection points: 2
#     Edge 63, Type (0, 0), BuildingBlock: XIVTED_clean_linker_0, # of connection points: 2
#     Edge 64, Type (0, 0), BuildingBlock: XIVTED_clean_linker_0, # of connection points: 2
#     Edge 65, Type (0, 0), BuildingBlock: XIVTED_clean_linker_0, # of connection points: 2
#     Edge 66, Type (0, 0), BuildingBlock: XIVTED_clean_linker_0, # of connection points: 2
#     Edge 67, Type (0, 0), BuildingBlock: XIVTED_clean_linker_0, # of connection points: 2
#     Edge 68, Type (0, 0), BuildingBlock: XIVTED_clean_linker_0, # of connection points: 2
#     Edge 69, Type (0, 0), BuildingBlock: XIVTED_clean_linker_0, # of connection points: 2
#     Edge 70, Type (0, 0), BuildingBlock: XIVTED_clean_linker_0, # of connection points: 2
#     Edge 71, Type (0, 0), BuildingBlock: XIVTED_clean_linker_0, # of connection points: 2
#     Edge 72, Type (0, 0), BuildingBlock: XIVTED_clean_linker_0, # of connection points: 2
#     Edge 73, Type (0, 0), BuildingBlock: XIVTED_clean_linker_0, # of connection points: 2
#     Edge 74, Type (0, 0), BuildingBlock: XIVTED_clean_linker_0, # of connection points: 2
#     Edge 75, Type (0, 0), BuildingBlock: XIVTED_clean_linker_0, # of connection points: 2
#     Edge 76, Type (0, 0), BuildingBlock: XIVTED_clean_linker_0, # of connection points: 2
#     Edge 77, Type (0, 0), BuildingBlock: XIVTED_clean_linker_0, # of connection points: 2
#     Edge 78, Type (0, 0), BuildingBlock: XIVTED_clean_linker_0, # of connection points: 2
#     Edge 79, Type (0, 0), BuildingBlock: XIVTED_clean_linker_0, # of connection points: 2
#     Edge 80, Type (0, 0), BuildingBlock: XIVTED_clean_linker_0, # of connection points: 2
#     Edge 81, Type (0, 0), BuildingBlock: XIVTED_clean_linker_0, # of connection points: 2
#     Edge 82, Type (0, 0), BuildingBlock: XIVTED_clean_linker_0, # of connection points: 2
#     Edge 83, Type (0, 0), BuildingBlock: XIVTED_clean_linker_0, # of connection points: 2
#     Edge 84, Type (0, 0), BuildingBlock: XIVTED_clean_linker_0, # of connection points: 2
#     Edge 85, Type (0, 0), BuildingBlock: XIVTED_clean_linker_0, # of connection points: 2
#     Edge 86, Type (0, 0), BuildingBlock: XIVTED_clean_linker_0, # of connection points: 2
#     Edge 87, Type (0, 0), BuildingBlock: XIVTED_clean_linker_0, # of connection points: 2
#     Edge 88, Type (0, 0), BuildingBlock: XIVTED_clean_linker_0, # of connection points: 2
#     Edge 89, Type (0, 0), BuildingBlock: XIVTED_clean_linker_0, # of connection points: 2
#     Edge 90, Type (0, 0), BuildingBlock: XIVTED_clean_linker_0, # of connection points: 2
#     Edge 91, Type (0, 0), BuildingBlock: XIVTED_clean_linker_0, # of connection points: 2
#     Edge 92, Type (0, 0), BuildingBlock: XIVTED_clean_linker_0, # of connection points: 2
#     Edge 93, Type (0, 0), BuildingBlock: XIVTED_clean_linker_0, # of connection points: 2
#     Edge 94, Type (0, 0), BuildingBlock: XIVTED_clean_linker_0, # of connection points: 2
#     Edge 95, Type (0, 0), BuildingBlock: XIVTED_clean_linker_0, # of connection points: 2
#     Edge 96, Type (0, 0), BuildingBlock: XIVTED_clean_linker_0, # of connection points: 2
#     Edge 97, Type (0, 0), BuildingBlock: XIVTED_clean_linker_0, # of connection points: 2
#     Edge 98, Type (0, 0), BuildingBlock: XIVTED_clean_linker_0, # of connection points: 2
#     Edge 99, Type (0, 0), BuildingBlock: XIVTED_clean_linker_0, # of connection points: 2
#     Edge 100, Type (0, 0), BuildingBlock: XIVTED_clean_linker_0, # of connection points: 2
#     Edge 101, Type (0, 0), BuildingBlock: XIVTED_clean_linker_0, # of connection points: 2
#     Edge 102, Type (0, 0), BuildingBlock: XIVTED_clean_linker_0, # of connection points: 2
#     Edge 103, Type (0, 0), BuildingBlock: XIVTED_clean_linker_0, # of connection points: 2
#     Edge 104, Type (0, 0), BuildingBlock: XIVTED_clean_linker_0, # of connection points: 2
#     Edge 105, Type (0, 0), BuildingBlock: XIVTED_clean_linker_0, # of connection points: 2
#     Edge 106, Type (0, 0), BuildingBlock: XIVTED_clean_linker_0, # of connection points: 2
#     Edge 107, Type (0, 0), BuildingBlock: XIVTED_clean_linker_0, # of connection points: 2
#     Edge 108, Type (0, 0), BuildingBlock: XIVTED_clean_linker_0, # of connection points: 2
#     Edge 109, Type (0, 0), BuildingBlock: XIVTED_clean_linker_0, # of connection points: 2
#     Edge 110, Type (0, 0), BuildingBlock: XIVTED_clean_linker_0, # of connection points: 2
#     Edge 111, Type (0, 0), BuildingBlock: XIVTED_clean_linker_0, # of connection points: 2
#     Edge 112, Type (0, 0), BuildingBlock: XIVTED_clean_linker_0, # of connection points: 2
#     Edge 113, Type (0, 0), BuildingBlock: XIVTED_clean_linker_0, # of connection points: 2
#     Edge 114, Type (0, 0), BuildingBlock: XIVTED_clean_linker_0, # of connection points: 2
#     Edge 115, Type (0, 0), BuildingBlock: XIVTED_clean_linker_0, # of connection points: 2
#     Edge 116, Type (0, 0), BuildingBlock: XIVTED_clean_linker_0, # of connection points: 2
#     Edge 117, Type (0, 0), BuildingBlock: XIVTED_clean_linker_0, # of connection points: 2
#     Edge 118, Type (0, 0), BuildingBlock: XIVTED_clean_linker_0, # of connection points: 2
#     Edge 119, Type (0, 0), BuildingBlock: XIVTED_clean_linker_0, # of connection points: 2
#     Edge 120, Type (0, 0), BuildingBlock: XIVTED_clean_linker_0, # of connection points: 2
#     Edge 121, Type (0, 0), BuildingBlock: XIVTED_clean_linker_0, # of connection points: 2
#     Edge 122, Type (0, 0), BuildingBlock: XIVTED_clean_linker_0, # of connection points: 2
#     Edge 123, Type (0, 0), BuildingBlock: XIVTED_clean_linker_0, # of connection points: 2
#     Edge 124, Type (0, 0), BuildingBlock: XIVTED_clean_linker_0, # of connection points: 2
#     Edge 125, Type (0, 0), BuildingBlock: XIVTED_clean_linker_0, # of connection points: 2
#     Edge 126, Type (0, 0), BuildingBlock: XIVTED_clean_linker_0, # of connection points: 2
#     Edge 127, Type (0, 0), BuildingBlock: XIVTED_clean_linker_0, # of connection points: 2
#     Edge 128, Type (0, 0), BuildingBlock: XIVTED_clean_linker_0, # of connection points: 2
#     Edge 129, Type (0, 0), BuildingBlock: XIVTED_clean_linker_0, # of connection points: 2
#     Edge 130, Type (0, 0), BuildingBlock: XIVTED_clean_linker_0, # of connection points: 2
#     Edge 131, Type (0, 0), BuildingBlock: XIVTED_clean_linker_0, # of connection points: 2
#     Edge 132, Type (0, 0), BuildingBlock: XIVTED_clean_linker_0, # of connection points: 2
#     Edge 133, Type (0, 0), BuildingBlock: XIVTED_clean_linker_0, # of connection points: 2
#     Edge 134, Type (0, 0), BuildingBlock: XIVTED_clean_linker_0, # of connection points: 2
#     Edge 135, Type (0, 0), BuildingBlock: XIVTED_clean_linker_0, # of connection points: 2
#     Edge 136, Type (0, 0), BuildingBlock: XIVTED_clean_linker_0, # of connection points: 2
#     Edge 137, Type (0, 0), BuildingBlock: XIVTED_clean_linker_0, # of connection points: 2
#     Edge 138, Type (0, 0), BuildingBlock: XIVTED_clean_linker_0, # of connection points: 2
#     Edge 139, Type (0, 0), BuildingBlock: XIVTED_clean_linker_0, # of connection points: 2
#     Edge 140, Type (0, 0), BuildingBlock: XIVTED_clean_linker_0, # of connection points: 2
#     Edge 141, Type (0, 0), BuildingBlock: XIVTED_clean_linker_0, # of connection points: 2
#     Edge 142, Type (0, 0), BuildingBlock: XIVTED_clean_linker_0, # of connection points: 2
#     Edge 143, Type (0, 0), BuildingBlock: XIVTED_clean_linker_0, # of connection points: 2
# Relax obj value: 0.186
# Max RMSD: 0.212
# Mean RMSD: 0.197
data_MOF--net-ana--node1-NAHDIM_clean_sbu_0--edge1-XIVTED_clean_linker_0
_symmetry_space_group_name_H-M    P1
_symmetry_Int_Tables_number       1
_symmetry_cell_setting            triclinic
loop_
_symmetry_equiv_pos_as_xyz
'x, y, z'
_cell_length_a     65.74549
_cell_length_b     63.195101
_cell_length_c     63.046127
_cell_angle_alpha  90.061119
_cell_angle_beta   90.115897
_cell_angle_gamma 90.592483
loop_
_atom_site_label
_atom_site_type_symbol
_atom_site_fract_x
_atom_site_fract_y
_atom_site_fract_z
_atom_type_partial_charge
C0 C 0.12141 0.23513 0.4197 0.0
O1 O 0.14001 0.22804 0.41761 0.0
O2 O 0.13577 0.18476 0.40184 0.0
Zn3 Zn 0.11025 0.19061 0.41823 0.0
O4 O 0.08582 0.1796 0.40246 0.0
C5 C 0.10919 0.15608 0.44676 0.0
O6 O 0.10468 0.14631 0.42894 0.0
O7 O 0.10673 0.222 0.42126 0.0
C8 C 0.06887 0.1794 0.4121 0.0
O9 O 0.06817 0.18598 0.43186 0.0
C10 C 0.13766 0.16886 0.38969 0.0
O11 O 0.12219 0.15579 0.38705 0.0
O12 O 0.11214 0.176 0.4465 0.0
C13 C 0.0841 0.86995 0.71615 0.0
O14 O 0.07899 0.8829 0.70078 0.0
O15 O 0.11202 0.81833 0.6784 0.0
Zn16 Zn 0.09829 0.84651 0.68087 0.0
O17 O 0.116 0.87037 0.67004 0.0
C18 C 0.06975 0.83482 0.64798 0.0
O19 O 0.0852 0.82378 0.64104 0.0
O20 O 0.0925 0.85255 0.71148 0.0
C21 C 0.11448 0.87789 0.65141 0.0
O22 O 0.10158 0.8692 0.63799 0.0
C23 C 0.12679 0.81477 0.66597 0.0
O24 O 0.13415 0.83026 0.65433 0.0
O25 O 0.0718 0.84574 0.66481 0.0
C26 C 0.34908 0.79857 0.83903 0.0
O27 O 0.35018 0.81361 0.82468 0.0
O28 O 0.31407 0.84366 0.85442 0.0
Zn29 Zn 0.34121 0.83403 0.86518 0.0
O30 O 0.36452 0.85009 0.85199 0.0
C31 C 0.33195 0.85199 0.90586 0.0
O32 O 0.32088 0.86456 0.89406 0.0
O33 O 0.34483 0.80345 0.85804 0.0
C34 C 0.37143 0.86766 0.85886 0.0
O35 O 0.36248 0.87685 0.87498 0.0
C36 C 0.31112 0.86128 0.84529 0.0
O37 O 0.32669 0.87382 0.84131 0.0
O38 O 0.34219 0.83752 0.89698 0.0
C39 C 0.41785 0.11818 0.18162 0.0
O40 O 0.42936 0.1339 0.1749 0.0
O41 O 0.42648 0.11615 0.12293 0.0
Zn42 Zn 0.43279 0.09413 0.14479 0.0
O43 O 0.42323 0.06542 0.13539 0.0
C44 C 0.47171 0.09466 0.16763 0.0
O45 O 0.46067 0.09658 0.18485 0.0
O46 O 0.4176 0.10077 0.17153 0.0
C47 C 0.42371 0.05119 0.1496 0.0
O48 O 0.43087 0.05608 0.16847 0.0
C49 C 0.40858 0.12332 0.12111 0.0
O50 O 0.39404 0.11548 0.13311 0.0
O51 O 0.46302 0.09342 0.14964 0.0
C52 C 0.1333 0.87154 0.06594 0.0
O53 O 0.15027 0.86261 0.07213 0.0
O54 O 0.09848 0.86302 0.12602 0.0
Zn55 Zn 0.12349 0.86088 0.10801 0.0
O56 O 0.14812 0.87502 0.12067 0.0
C57 C 0.11911 0.81691 0.09547 0.0
O58 O 0.10268 0.82352 0.08572 0.0
O59 O 0.11865 0.8728 0.07896 0.0
C60 C 0.15749 0.86593 0.1357 0.0
O61 O 0.14923 0.84907 0.14448 0.0
C62 C 0.08749 0.87935 0.12748 0.0
O63 O 0.09305 0.89676 0.1176 0.0
O64 O 0.13018 0.83013 0.10548 0.0
C65 C 0.42109 0.87814 0.35731 0.0
O66 O 0.40482 0.87124 0.36732 0.0
O67 O 0.377 0.90478 0.32285 0.0
Zn68 Zn 0.3936 0.8783 0.32173 0.0
O69 O 0.37797 0.85381 0.33404 0.0
C70 C 0.40014 0.853 0.28388 0.0
O71 O 0.39718 0.83701 0.29683 0.0
O72 O 0.41988 0.88239 0.33766 0.0
C73 C 0.36075 0.84832 0.32656 0.0
O74 O 0.3526 0.85969 0.3114 0.0
C75 C 0.3692 0.91177 0.33986 0.0
O76 O 0.37189 0.90137 0.35766 0.0
O77 O 0.39971 0.87181 0.29108 0.0
C78 C 0.37048 0.14841 0.52921 0.0
O79 O 0.35913 0.16263 0.53857 0.0
O80 O 0.40289 0.1248 0.58678 0.0
Zn81 Zn 0.37924 0.13846 0.57227 0.0
O82 O 0.35323 0.12466 0.58148 0.0
C83 C 0.39385 0.18095 0.57622 0.0
O84 O 0.40896 0.17319 0.56514 0.0
O85 O 0.38113 0.13614 0.54055 0.0
C86 C 0.34704 0.12576 0.60051 0.0
O87 O 0.35821 0.13582 0.61467 0.0
C88 C 0.41701 0.11521 0.57711 0.0
O89 O 0.41612 0.11327 0.55638 0.0
O90 O 0.37895 0.16895 0.58101 0.0
C91 C 0.05098 0.1564 0.84668 0.0
O92 O 0.06304 0.15756 0.8633 0.0
O93 O 0.10201 0.14491 0.84613 0.0
Zn94 Zn 0.08835 0.1661 0.82729 0.0
O95 O 0.09319 0.19552 0.83806 0.0
C96 C 0.09517 0.1437 0.78994 0.0
O97 O 0.08574 0.12952 0.80168 0.0
O98 O 0.05838 0.15986 0.82841 0.0
C99 C 0.11028 0.20505 0.83776 0.0
O100 O 0.12613 0.19554 0.8296 0.0
C101 C 0.11976 0.13791 0.84281 0.0
O102 O 0.13053 0.14566 0.82704 0.0
O103 O 0.09822 0.16211 0.79749 0.0
C104 C 0.2278 0.38785 0.13926 0.0
O105 O 0.21233 0.3763 0.14587 0.0
O106 O 0.18251 0.41151 0.16156 0.0
Zn107 Zn 0.19648 0.41836 0.13399 0.0
O108 O 0.18135 0.40633 0.10896 0.0
C109 C 0.19964 0.46189 0.14681 0.0
O110 O 0.20313 0.45329 0.16541 0.0
O111 O 0.22478 0.40689 0.13373 0.0
C112 C 0.16554 0.41539 0.10194 0.0
O113 O 0.15858 0.43203 0.11198 0.0
C114 C 0.1663 0.40056 0.16348 0.0
O115 O 0.15788 0.39199 0.14659 0.0
O116 O 0.19712 0.44997 0.13077 0.0
C117 C 0.62364 0.05472 0.90728 0.0
O118 O 0.61277 0.06855 0.91777 0.0
O119 O 0.64988 0.10285 0.92648 0.0
Zn120 Zn 0.64843 0.09132 0.89684 0.0
O121 O 0.6279 0.10609 0.87878 0.0
C122 C 0.68556 0.07752 0.87634 0.0
O123 O 0.67736 0.05862 0.87859 0.0
O124 O 0.63966 0.06086 0.89778 0.0
C125 C 0.63137 0.12328 0.86897 0.0
O126 O 0.64883 0.13316 0.87186 0.0
C127 C 0.63564 0.113 0.93535 0.0
O128 O 0.61896 0.11698 0.92462 0.0
O129 O 0.67603 0.09364 0.88296 0.0
C130 C 0.84124 0.96041 0.35355 0.0
O131 O 0.85395 0.94497 0.34968 0.0
O132 O 0.83155 0.91625 0.39345 0.0
Zn133 Zn 0.81689 0.92562 0.36718 0.0
O134 O 0.82595 0.90798 0.34245 0.0
C135 C 0.77734 0.90537 0.36747 0.0
O136 O 0.78758 0.88928 0.35996 0.0
O137 O 0.82392 0.95601 0.36137 0.0
C138 C 0.81686 0.90892 0.32469 0.0
O139 O 0.80115 0.92145 0.32263 0.0
C140 C 0.83441 0.89668 0.39676 0.0
O141 O 0.82771 0.88281 0.3828 0.0
O142 O 0.7867 0.92257 0.37166 0.0
C143 C 0.85854 0.01386 0.09706 0.0
O144 O 0.83927 0.01912 0.09641 0.0
O145 O 0.86219 0.07044 0.06984 0.0
Zn146 Zn 0.86463 0.05895 0.09925 0.0
O147 O 0.88578 0.07492 0.11587 0.0
C148 C 0.83476 0.06839 0.13234 0.0
O149 O 0.8506 0.07272 0.14435 0.0
O150 O 0.87208 0.0283 0.09822 0.0
C151 C 0.88475 0.09484 0.11827 0.0
O152 O 0.87028 0.10523 0.10851 0.0
C153 C 0.87225 0.06307 0.05439 0.0
O154 O 0.88532 0.04785 0.05779 0.0
O155 O 0.83738 0.06217 0.11336 0.0
C156 C 0.38058 0.53391 0.57863 0.0
O157 O 0.39501 0.54834 0.58054 0.0
O158 O 0.35739 0.58625 0.5527 0.0
Zn159 Zn 0.35562 0.57057 0.58037 0.0
O160 O 0.37478 0.58301 0.60197 0.0
C161 C 0.32202 0.57533 0.61013 0.0
O162 O 0.33639 0.57693 0.62457 0.0
O163 O 0.3622 0.53977 0.57727 0.0
C164 C 0.37717 0.60263 0.60567 0.0
O165 O 0.36681 0.61643 0.59456 0.0
C166 C 0.36544 0.57893 0.53596 0.0
O167 O 0.37393 0.56022 0.53643 0.0
O168 O 0.32685 0.57264 0.59081 0.0
C169 C 0.1097 0.58578 0.39652 0.0
O170 O 0.12212 0.59081 0.41212 0.0
O171 O 0.11349 0.64119 0.41294 0.0
Zn172 Zn 0.11704 0.62895 0.38383 0.0
O173 O 0.10417 0.64564 0.36031 0.0
C174 C 0.1542 0.62188 0.36022 0.0
O175 O 0.14186 0.62013 0.34388 0.0
O176 O 0.10506 0.59974 0.38291 0.0
C177 C 0.11362 0.66024 0.35046 0.0
O178 O 0.13143 0.66668 0.35759 0.0
C179 C 0.0977 0.63768 0.42402 0.0
O180 O 0.08219 0.62754 0.41544 0.0
O181 O 0.14698 0.62586 0.37846 0.0
C182 C 0.27472 0.42601 0.85296 0.0
O183 O 0.27985 0.42 0.83377 0.0
O184 O 0.32297 0.40691 0.83495 0.0
Zn185 Zn 0.31812 0.42266 0.86217 0.0
O186 O 0.32942 0.40622 0.88696 0.0
C187 C 0.32811 0.46391 0.84568 0.0
O188 O 0.31211 0.46032 0.83364 0.0
O189 O 0.2884 0.42806 0.86711 0.0
C190 C 0.34511 0.41276 0.89693 0.0
O191 O 0.35411 0.43039 0.89091 0.0
C192 C 0.34054 0.39917 0.83227 0.0
O193 O 0.35391 0.40063 0.84773 0.0
O194 O 0.3331 0.45028 0.85945 0.0
C195 C 0.86792 0.84543 0.59561 0.0
O196 O 0.88092 0.86037 0.59013 0.0
O197 O 0.8956 0.78655 0.57073 0.0
Zn198 Zn 0.89384 0.81815 0.57048 0.0
O199 O 0.88823 0.82796 0.54083 0.0
C200 C 0.93642 0.82352 0.57202 0.0
O201 O 0.93465 0.81148 0.5551 0.0
O202 O 0.87075 0.82659 0.58934 0.0
C203 C 0.8922 0.84669 0.5347 0.0
O204 O 0.90088 0.86008 0.54794 0.0
C205 C 0.88003 0.77462 0.56902 0.0
O206 O 0.86205 0.78314 0.56645 0.0
O207 O 0.92041 0.82952 0.58142 0.0
C208 C 0.93825 0.14554 0.33697 0.0
O209 O 0.9212 0.14283 0.34752 0.0
O210 O 0.89967 0.11332 0.31005 0.0
Zn211 Zn 0.91041 0.14235 0.30312 0.0
O212 O 0.89229 0.16503 0.31456 0.0
C213 C 0.92605 0.13445 0.26153 0.0
O214 O 0.93854 0.12229 0.27217 0.0
O215 O 0.9377 0.14584 0.31684 0.0
C216 C 0.8797 0.17513 0.30321 0.0
O217 O 0.87767 0.17027 0.28305 0.0
C218 C 0.88333 0.10971 0.3202 0.0
O219 O 0.8723 0.12568 0.32667 0.0
O220 O 0.91288 0.14503 0.27158 0.0
C221 C 0.69482 0.11896 0.15576 0.0
O222 O 0.69247 0.1377 0.16441 0.0
O223 O 0.65614 0.15741 0.14436 0.0
Zn224 Zn 0.65613 0.1272 0.13447 0.0
O225 O 0.65568 0.12712 0.10266 0.0
C226 C 0.62132 0.11774 0.16105 0.0
O227 O 0.62957 0.13191 0.17378 0.0
O228 O 0.68105 0.11157 0.14359 0.0
C229 C 0.64088 0.135 0.09249 0.0
O230 O 0.62576 0.14341 0.10305 0.0
C231 C 0.66555 0.17174 0.13409 0.0
O232 O 0.67647 0.16643 0.11753 0.0
O233 O 0.6305 0.11274 0.14409 0.0
C234 C 0.51611 0.90124 0.83345 0.0
O235 O 0.52544 0.91887 0.839 0.0
O236 O 0.56888 0.90717 0.84872 0.0
Zn237 Zn 0.55628 0.88105 0.836 0.0
O238 O 0.55976 0.85641 0.85569 0.0
C239 C 0.5891 0.87213 0.80771 0.0
O240 O 0.59949 0.87251 0.82553 0.0
O241 O 0.52627 0.8844 0.83109 0.0
C242 C 0.57424 0.85469 0.86893 0.0
O243 O 0.58823 0.86964 0.87011 0.0
C244 C 0.56428 0.91433 0.8669 0.0
O245 O 0.55027 0.90461 0.8782 0.0
O246 O 0.57003 0.87515 0.80824 0.0
C247 C 0.90165 0.13492 0.86846 0.0
O248 O 0.89522 0.14096 0.88722 0.0
O249 O 0.86027 0.11722 0.89461 0.0
Zn250 Zn 0.86048 0.13262 0.86682 0.0
O251 O 0.85663 0.16355 0.87275 0.0
C252 C 0.83132 0.10265 0.85103 0.0
O253 O 0.84287 0.08936 0.86145 0.0
O254 O 0.88855 0.12963 0.85449 0.0
C255 C 0.84 0.17333 0.87035 0.0
O256 O 0.82379 0.16299 0.86363 0.0
C257 C 0.84739 0.12114 0.90902 0.0
O258 O 0.83315 0.13512 0.90545 0.0
O259 O 0.83717 0.12177 0.8492 0.0
C260 C 0.54695 0.09571 0.65567 0.0
O261 O 0.56362 0.09233 0.64479 0.0
O262 O 0.59341 0.08062 0.68475 0.0
Zn263 Zn 0.57604 0.10646 0.68774 0.0
O264 O 0.58941 0.13102 0.67304 0.0
C265 C 0.5742 0.13169 0.72642 0.0
O266 O 0.57523 0.14793 0.71346 0.0
O267 O 0.54841 0.10156 0.6749 0.0
C268 C 0.60705 0.13739 0.67848 0.0
O269 O 0.61674 0.12743 0.69367 0.0
C270 C 0.60584 0.07803 0.66957 0.0
O271 O 0.60724 0.09244 0.65464 0.0
O272 O 0.57366 0.11302 0.71888 0.0
C273 C 0.55807 0.86634 0.42407 0.0
O274 O 0.5594 0.85557 0.44182 0.0
O275 O 0.60465 0.86279 0.45432 0.0
Zn276 Zn 0.59983 0.85629 0.42352 0.0
O277 O 0.59679 0.82483 0.41926 0.0
C278 C 0.63264 0.8843 0.41138 0.0
O279 O 0.62472 0.89657 0.42597 0.0
O280 O 0.57409 0.86964 0.41328 0.0
C281 C 0.61127 0.81352 0.41246 0.0
O282 O 0.62905 0.8224 0.40871 0.0
C283 C 0.62006 0.85472 0.46327 0.0
O284 O 0.63176 0.84205 0.45229 0.0
O285 O 0.624 0.86675 0.40705 0.0
C286 C 0.94303 0.85863 0.17043 0.0
O287 O 0.93093 0.87471 0.17377 0.0
O288 O 0.89349 0.85972 0.14666 0.0
Zn289 Zn 0.90495 0.83648 0.1646 0.0
O290 O 0.89815 0.80837 0.15133 0.0
C291 C 0.87319 0.84203 0.19423 0.0
O292 O 0.86259 0.84161 0.17654 0.0
O293 O 0.93531 0.84046 0.16676 0.0
C294 C 0.90954 0.80123 0.13678 0.0
O295 O 0.9256 0.8123 0.13097 0.0
C296 C 0.90284 0.86812 0.13114 0.0
O297 O 0.92072 0.8609 0.12559 0.0
O298 O 0.89228 0.83918 0.19338 0.0
C299 C 0.77584 0.61724 0.86287 0.0
O300 O 0.79162 0.62974 0.85958 0.0
O301 O 0.81707 0.59611 0.82983 0.0
Zn302 Zn 0.80615 0.58595 0.85778 0.0
O303 O 0.82338 0.59462 0.88273 0.0
C304 C 0.80534 0.54287 0.87314 0.0
O305 O 0.80599 0.55205 0.89184 0.0
O306 O 0.77825 0.59734 0.86239 0.0
C307 C 0.842 0.59012 0.88541 0.0
O308 O 0.85183 0.58002 0.87044 0.0
C309 C 0.83177 0.60891 0.82664 0.0
O310 O 0.8413 0.61756 0.84285 0.0
O311 O 0.80487 0.55425 0.85655 0.0
C312 C 0.30793 0.86854 0.13174 0.0
O313 O 0.31971 0.86023 0.1463 0.0
O314 O 0.35939 0.85263 0.127 0.0
Zn315 Zn 0.34506 0.87164 0.10635 0.0
O316 O 0.3471 0.86238 0.07595 0.0
C317 C 0.3594 0.9084 0.1277 0.0
O318 O 0.35305 0.89733 0.14407 0.0
O319 O 0.31548 0.87401 0.11401 0.0
C320 C 0.33769 0.87451 0.06329 0.0
O321 O 0.32821 0.89097 0.0711 0.0
C322 C 0.3783 0.85549 0.13028 0.0
O323 O 0.38849 0.86833 0.11772 0.0
O324 O 0.35745 0.90067 0.1092 0.0
C325 C 0.20444 0.0783 0.63098 0.0
O326 O 0.19675 0.07965 0.65014 0.0
O327 O 0.15188 0.0784 0.64519 0.0
Zn328 Zn 0.16294 0.06755 0.61773 0.0
O329 O 0.14922 0.08248 0.59363 0.0
C330 C 0.16677 0.02462 0.63001 0.0
O331 O 0.17917 0.03349 0.64384 0.0
O332 O 0.19293 0.07335 0.61549 0.0
C333 C 0.14476 0.0732 0.57633 0.0
O334 O 0.14861 0.05294 0.57425 0.0
C335 C 0.15133 0.09799 0.64966 0.0
O336 O 0.15849 0.11184 0.63598 0.0
O337 O 0.15783 0.03622 0.61652 0.0
C338 C 0.17229 0.91665 0.86741 0.0
O339 O 0.15767 0.90381 0.87365 0.0
O340 O 0.12131 0.9378 0.85997 0.0
Zn341 Zn 0.14332 0.94748 0.88011 0.0
O342 O 0.13997 0.93593 0.9096 0.0
C343 C 0.13769 0.99158 0.89352 0.0
O344 O 0.12797 0.98364 0.90991 0.0
O345 O 0.16973 0.93651 0.86877 0.0
C346 C 0.12362 0.93434 0.92022 0.0
O347 O 0.10646 0.94096 0.91197 0.0
C348 C 0.11189 0.92016 0.86093 0.0
O349 O 0.11508 0.90753 0.8771 0.0
O350 O 0.14511 0.97923 0.87971 0.0
C351 C 0.67015 0.41616 0.37405 0.0
O352 O 0.65961 0.42061 0.35692 0.0
O353 O 0.6173 0.40381 0.36853 0.0
Zn354 Zn 0.63065 0.41483 0.39503 0.0
O355 O 0.62384 0.39675 0.42022 0.0
C356 C 0.60476 0.45107 0.39531 0.0
O357 O 0.59141 0.43713 0.38824 0.0
O358 O 0.66094 0.41348 0.39156 0.0
C359 C 0.60791 0.39745 0.43156 0.0
O360 O 0.59346 0.41082 0.42676 0.0
C361 C 0.61683 0.38425 0.36392 0.0
O362 O 0.62473 0.37058 0.3772 0.0
O363 O 0.62265 0.44506 0.39971 0.0
C364 C 0.82515 0.37314 0.63274 0.0
O365 O 0.83339 0.38708 0.64573 0.0
O366 O 0.87995 0.35893 0.64403 0.0
Zn367 Zn 0.86631 0.36915 0.61746 0.0
O368 O 0.87604 0.35536 0.59065 0.0
C369 C 0.86656 0.41254 0.60082 0.0
O370 O 0.85962 0.40431 0.58305 0.0
O371 O 0.83635 0.3636 0.61949 0.0
C372 C 0.88985 0.36308 0.57881 0.0
O373 O 0.90013 0.37984 0.58522 0.0
C374 C 0.8718 0.34493 0.65581 0.0
O375 O 0.85537 0.33495 0.64912 0.0
O376 O 0.87046 0.40058 0.61646 0.0
C377 C 0.72271 0.5863 0.15301 0.0
O378 O 0.71422 0.59919 0.16666 0.0
O379 O 0.6712 0.5807 0.17305 0.0
Zn380 Zn 0.681 0.57343 0.14384 0.0
O381 O 0.6692 0.59336 0.12245 0.0
C382 C 0.68 0.52755 0.14138 0.0
O383 O 0.6982 0.52902 0.14992 0.0
O384 O 0.71152 0.57403 0.14193 0.0
C385 C 0.6502 0.59267 0.11871 0.0
O386 O 0.63869 0.57936 0.12942 0.0
C387 C 0.66539 0.59906 0.1784 0.0
O388 O 0.66675 0.61463 0.16467 0.0
O389 O 0.67033 0.54432 0.13716 0.0
C390 C 0.58893 0.71515 0.94025 0.0
O391 O 0.57287 0.70324 0.94411 0.0
O392 O 0.63436 0.66555 0.92847 0.0
Zn393 Zn 0.60925 0.6754 0.94355 0.0
O394 O 0.58499 0.66117 0.92996 0.0
C395 C 0.59918 0.65862 0.98564 0.0
O396 O 0.58152 0.65333 0.9773 0.0
O397 O 0.60639 0.70675 0.93994 0.0
C398 C 0.58436 0.66195 0.90983 0.0
O399 O 0.59944 0.67116 0.89963 0.0
C400 C 0.64737 0.67811 0.92031 0.0
O401 O 0.64463 0.69862 0.92167 0.0
O402 O 0.61236 0.66812 0.97431 0.0
C403 C 0.5886 0.34383 0.21379 0.0
O404 O 0.58966 0.32398 0.20772 0.0
O405 O 0.6076 0.3247 0.16587 0.0
Zn406 Zn 0.59296 0.35225 0.16889 0.0
O407 O 0.60962 0.37615 0.15671 0.0
C408 C 0.56473 0.34626 0.13464 0.0
O409 O 0.58164 0.34449 0.12373 0.0
O410 O 0.58917 0.35839 0.1999 0.0
C411 C 0.60117 0.39259 0.14938 0.0
O412 O 0.58122 0.39348 0.14892 0.0
C413 C 0.62172 0.32129 0.15263 0.0
O414 O 0.62757 0.33651 0.13976 0.0
O415 O 0.56578 0.34983 0.15445 0.0
C416 C 0.84152 0.31658 0.35686 0.0
O417 O 0.83652 0.33169 0.3436 0.0
O418 O 0.8242 0.36636 0.38402 0.0
Zn419 Zn 0.85114 0.35169 0.38452 0.0
O420 O 0.87175 0.36519 0.36533 0.0
C421 C 0.86009 0.33702 0.42694 0.0
O422 O 0.84991 0.32016 0.42062 0.0
O423 O 0.84772 0.32146 0.37533 0.0
C424 C 0.87848 0.38388 0.36818 0.0
O425 O 0.8706 0.39554 0.38328 0.0
C426 C 0.81686 0.37612 0.36819 0.0
O427 O 0.82742 0.37744 0.35056 0.0
O428 O 0.86239 0.35247 0.41425 0.0
C429 C 0.88707 0.60381 0.67968 0.0
O430 O 0.87567 0.59652 0.66413 0.0
O431 O 0.91334 0.62279 0.628 0.0
Zn432 Zn 0.91778 0.59876 0.6482 0.0
O433 O 0.90445 0.57189 0.6383 0.0
C434 C 0.95838 0.59998 0.66649 0.0
O435 O 0.94946 0.60995 0.68215 0.0
O436 O 0.90604 0.60631 0.67665 0.0
C437 C 0.90435 0.5649 0.61941 0.0
O438 O 0.91314 0.576 0.60432 0.0
C439 C 0.89652 0.6268 0.61898 0.0
O440 O 0.88078 0.61425 0.62214 0.0
O441 O 0.94783 0.5938 0.6507 0.0
C442 C 0.61469 0.33279 0.57538 0.0
O443 O 0.5992 0.33098 0.58841 0.0
O444 O 0.61945 0.33587 0.63213 0.0
Zn445 Zn 0.63945 0.32249 0.61238 0.0
O446 O 0.66829 0.33155 0.61774 0.0
C447 C 0.64707 0.28199 0.63076 0.0
O448 O 0.65924 0.29331 0.64293 0.0
O449 O 0.63262 0.32975 0.58224 0.0
C450 C 0.67499 0.34388 0.63212 0.0
O451 O 0.66229 0.35235 0.64568 0.0
C452 C 0.61364 0.35492 0.6307 0.0
O453 O 0.62214 0.36744 0.61658 0.0
O454 O 0.63712 0.29111 0.61616 0.0
C455 C 0.91292 0.37952 0.88153 0.0
O456 O 0.89816 0.38217 0.89527 0.0
O457 O 0.86199 0.38812 0.86201 0.0
Zn458 Zn 0.88036 0.36397 0.85472 0.0
O459 O 0.87152 0.33728 0.86924 0.0
C460 C 0.89354 0.36484 0.81075 0.0
O461 O 0.90852 0.37659 0.81822 0.0
O462 O 0.90885 0.37169 0.86344 0.0
C463 C 0.85434 0.32918 0.86451 0.0
O464 O 0.84231 0.33939 0.85148 0.0
C465 C 0.84858 0.39493 0.84925 0.0
O466 O 0.84597 0.38543 0.83089 0.0
O467 O 0.87985 0.35812 0.82332 0.0
C468 C 0.90015 0.61277 0.03065 0.0
O469 O 0.91562 0.62571 0.03386 0.0
O470 O 0.92244 0.6001 0.08828 0.0
Zn471 Zn 0.89622 0.61179 0.07703 0.0
O472 O 0.8724 0.60079 0.09379 0.0
C473 C 0.88265 0.6552 0.08182 0.0
O474 O 0.86434 0.64682 0.08025 0.0
O475 O 0.89077 0.60489 0.04643 0.0
C476 C 0.86783 0.60749 0.11217 0.0
O477 O 0.87972 0.62154 0.12148 0.0
C478 C 0.93627 0.59138 0.07739 0.0
O479 O 0.93325 0.58792 0.05708 0.0
O480 O 0.89808 0.64335 0.08046 0.0
C481 C 0.52015 0.61692 0.32808 0.0
O482 O 0.53005 0.59899 0.3289 0.0
O483 O 0.56205 0.60762 0.36124 0.0
Zn484 Zn 0.55852 0.63316 0.34263 0.0
O485 O 0.56568 0.65988 0.35848 0.0
C486 C 0.58256 0.61256 0.31062 0.0
O487 O 0.57665 0.59545 0.3208 0.0
O488 O 0.52934 0.63401 0.33312 0.0
C489 C 0.58365 0.66746 0.35779 0.0
O490 O 0.59759 0.65747 0.34687 0.0
C491 C 0.57858 0.60331 0.37067 0.0
O492 O 0.59396 0.61668 0.36947 0.0
O493 O 0.57651 0.63053 0.31694 0.0
C494 C 0.72928 0.88048 0.64675 0.0
O495 O 0.71626 0.86489 0.64991 0.0
O496 O 0.67941 0.88845 0.66926 0.0
Zn497 Zn 0.69244 0.90344 0.64453 0.0
O498 O 0.68103 0.89218 0.617 0.0
C499 C 0.68316 0.94278 0.66497 0.0
O500 O 0.68581 0.93138 0.68215 0.0
O501 O 0.7226 0.89913 0.64449 0.0
C502 C 0.66682 0.90164 0.60726 0.0
O503 O 0.65922 0.91896 0.61545 0.0
C504 C 0.66027 0.88544 0.6693 0.0
O505 O 0.64964 0.89095 0.65257 0.0
O506 O 0.68605 0.93437 0.64693 0.0
C507 C 0.35455 0.31505 0.09485 0.0
O508 O 0.358 0.29511 0.09933 0.0
O509 O 0.3833 0.27829 0.06593 0.0
Zn510 Zn 0.38676 0.30983 0.06365 0.0
O511 O 0.38358 0.31968 0.03357 0.0
C512 C 0.43015 0.31939 0.06395 0.0
O513 O 0.42882 0.31548 0.04352 0.0
O514 O 0.36513 0.32424 0.08068 0.0
C515 C 0.38726 0.33913 0.03 0.0
O516 O 0.39369 0.3512 0.04566 0.0
C517 C 0.39529 0.26561 0.05672 0.0
O518 O 0.40973 0.27326 0.04449 0.0
O519 O 0.41425 0.31812 0.07535 0.0
C520 C 0.45884 0.62707 0.8265 0.0
O521 O 0.44135 0.62614 0.83651 0.0
O522 O 0.41464 0.60143 0.80101 0.0
Zn523 Zn 0.43208 0.62567 0.79092 0.0
O524 O 0.41725 0.65272 0.79653 0.0
C525 C 0.43413 0.63786 0.74676 0.0
O526 O 0.43194 0.65699 0.75453 0.0
O527 O 0.45893 0.62671 0.80633 0.0
C528 C 0.40383 0.65442 0.81089 0.0
O529 O 0.39938 0.63799 0.82283 0.0
C530 C 0.42143 0.58452 0.80911 0.0
O531 O 0.44115 0.5822 0.81137 0.0
O532 O 0.43559 0.62229 0.75941 0.0
C533 C 0.17675 0.60942 0.63661 0.0
O534 O 0.17212 0.62218 0.6523 0.0
O535 O 0.14114 0.65152 0.63309 0.0
Zn536 Zn 0.13835 0.62324 0.6189 0.0
O537 O 0.13314 0.62869 0.58797 0.0
C538 C 0.10775 0.61125 0.64947 0.0
O539 O 0.11826 0.62396 0.66196 0.0
O540 O 0.16425 0.60694 0.62139 0.0
C541 C 0.11536 0.6321 0.58089 0.0
O542 O 0.09987 0.63179 0.59403 0.0
C543 C 0.15325 0.66543 0.62569 0.0
O544 O 0.16449 0.66074 0.60916 0.0
O545 O 0.11421 0.60766 0.63085 0.0
C546 C 0.02115 0.4154 0.32982 0.0
O547 O 0.02953 0.43429 0.33141 0.0
O548 O 0.06967 0.43019 0.34532 0.0
Zn549 Zn 0.06278 0.40132 0.33391 0.0
O550 O 0.0713 0.37844 0.35416 0.0
C551 C 0.0944 0.40626 0.3033 0.0
O552 O 0.1022 0.41774 0.31873 0.0
O553 O 0.03242 0.39916 0.32993 0.0
C554 C 0.0894 0.37624 0.36088 0.0
O555 O 0.10355 0.38976 0.35487 0.0
C556 C 0.07258 0.43514 0.36463 0.0
O557 O 0.07156 0.42046 0.37933 0.0
O558 O 0.07714 0.3974 0.30595 0.0
C559 C 0.37087 0.62646 0.33159 0.0
O560 O 0.36208 0.61193 0.34343 0.0
O561 O 0.34771 0.64114 0.37907 0.0
Zn562 Zn 0.34049 0.65258 0.35035 0.0
O563 O 0.33991 0.68426 0.35241 0.0
C564 C 0.30518 0.62539 0.35064 0.0
O565 O 0.31623 0.61479 0.36429 0.0
O566 O 0.36309 0.64475 0.33066 0.0
C567 C 0.328 0.69556 0.34142 0.0
O568 O 0.31528 0.68634 0.32814 0.0
C569 C 0.34061 0.64893 0.39605 0.0
O570 O 0.32818 0.66503 0.39492 0.0
O571 O 0.31288 0.64153 0.34156 0.0
C572 C 0.07721 0.60989 0.13121 0.0
O573 O 0.09278 0.60816 0.11832 0.0
O574 O 0.12821 0.60937 0.15564 0.0
Zn575 Zn 0.10695 0.63194 0.15645 0.0
O576 O 0.11295 0.65564 0.13629 0.0
C577 C 0.09056 0.64688 0.19686 0.0
O578 O 0.07278 0.64173 0.18872 0.0
O579 O 0.07966 0.61929 0.14887 0.0
C580 C 0.12863 0.66728 0.13878 0.0
O581 O 0.14163 0.66268 0.1539 0.0
C582 C 0.13913 0.6047 0.13973 0.0
O583 O 0.13711 0.61535 0.12198 0.0
O584 O 0.10658 0.64404 0.18601 0.0
C585 C 0.05845 0.40131 0.92165 0.0
O586 O 0.06364 0.39782 0.94147 0.0
O587 O 0.10605 0.39352 0.94562 0.0
Zn588 Zn 0.10034 0.39089 0.91429 0.0
O589 O 0.10169 0.36024 0.90568 0.0
C590 C 0.13313 0.42081 0.90645 0.0
O591 O 0.12936 0.4268 0.92599 0.0
O592 O 0.07199 0.40042 0.90731 0.0
C593 C 0.11717 0.35232 0.89674 0.0
O594 O 0.13335 0.36425 0.89348 0.0
C595 C 0.11965 0.3823 0.95432 0.0
O596 O 0.12983 0.36881 0.94268 0.0
O597 O 0.1218 0.40681 0.89786 0.0
C598 C 0.46961 0.37784 0.66441 0.0
O599 O 0.46026 0.39596 0.66204 0.0
O600 O 0.42277 0.3861 0.64118 0.0
Zn601 Zn 0.42916 0.36047 0.65866 0.0
O602 O 0.42229 0.33386 0.64252 0.0
C603 C 0.39695 0.36929 0.68877 0.0
O604 O 0.38761 0.37687 0.67202 0.0
O605 O 0.45931 0.3607 0.66401 0.0
C606 C 0.40553 0.32381 0.64408 0.0
O607 O 0.39132 0.331 0.65672 0.0
C608 C 0.40859 0.38769 0.62759 0.0
O609 O 0.39622 0.37158 0.62421 0.0
O610 O 0.41456 0.36144 0.6867 0.0
C611 C 0.27808 0.12822 0.34771 0.0
O612 O 0.29293 0.14227 0.34872 0.0
O613 O 0.32535 0.10858 0.31945 0.0
Zn614 Zn 0.31181 0.10063 0.34681 0.0
O615 O 0.32522 0.11481 0.37174 0.0
C616 C 0.31176 0.05724 0.33411 0.0
O617 O 0.30645 0.06574 0.31594 0.0
O618 O 0.28243 0.10874 0.34628 0.0
C619 C 0.34165 0.10788 0.37962 0.0
O620 O 0.35054 0.09164 0.37066 0.0
C621 C 0.33845 0.12323 0.31671 0.0
O622 O 0.34372 0.13544 0.33272 0.0
O623 O 0.31432 0.06915 0.35016 0.0
H624 H 0.12724 0.36329 0.37346 0.0
H625 H 0.0846 0.25481 0.42196 0.0
H626 H 0.06348 0.34699 0.37831 0.0
H627 H 0.14834 0.26727 0.41049 0.0
H628 H 0.07706 0.29111 0.41179 0.0
H629 H 0.13556 0.33072 0.39239 0.0
C630 C 0.11498 0.35298 0.37868 0.0
C631 C 0.09464 0.35774 0.37405 0.0
C632 C 0.09273 0.28598 0.4117 0.0
C633 C 0.10405 0.32049 0.39571 0.0
C634 C 0.09707 0.26525 0.41756 0.0
C635 C 0.11711 0.25788 0.41678 0.0
C636 C 0.10853 0.29946 0.40492 0.0
C637 C 0.13264 0.27221 0.41114 0.0
C638 C 0.11974 0.33438 0.38947 0.0
C639 C 0.07938 0.34385 0.38131 0.0
N640 N 0.12799 0.29226 0.40518 0.0
N641 N 0.08441 0.3258 0.39163 0.0
H642 H 0.03451 0.85517 0.65826 0.0
H643 H 0.97343 0.81051 0.55752 0.0
H644 H 0.06086 0.81484 0.61053 0.0
H645 H 0.94556 0.84626 0.60791 0.0
H646 H 0.00634 0.81487 0.57503 0.0
H647 H 0.00249 0.85464 0.63854 0.0
C648 C 0.03358 0.84622 0.64362 0.0
C649 C 0.05036 0.83492 0.63609 0.0
C650 C 0.99305 0.82187 0.5822 0.0
C651 C 0.01377 0.83432 0.61342 0.0
C652 C 0.97424 0.81944 0.57218 0.0
C653 C 0.95667 0.82789 0.58135 0.0
C654 C 0.99432 0.83283 0.60156 0.0
C655 C 0.95868 0.83937 0.60033 0.0
C656 C 0.01529 0.84595 0.63236 0.0
C657 C 0.04829 0.82369 0.61699 0.0
N658 N 0.97715 0.84139 0.60987 0.0
N659 N 0.03031 0.82364 0.60634 0.0
H660 H 0.36383 0.78381 0.80134 0.0
H661 H 0.37835 0.66544 0.8433 0.0
H662 H 0.34677 0.76335 0.86423 0.0
H663 H 0.40612 0.68992 0.78624 0.0
H664 H 0.36274 0.69991 0.84925 0.0
H665 H 0.37527 0.74801 0.79352 0.0
C666 C 0.36234 0.77175 0.81346 0.0
C667 C 0.35448 0.77662 0.83353 0.0
C668 C 0.3722 0.69769 0.8354 0.0
C669 C 0.36759 0.73563 0.82469 0.0
C670 C 0.38109 0.67802 0.83198 0.0
C671 C 0.39367 0.67485 0.81433 0.0
C672 C 0.37582 0.71423 0.821 0.0
C673 C 0.39666 0.6917 0.80015 0.0
C674 C 0.36893 0.75134 0.809 0.0
C675 C 0.35287 0.76034 0.84859 0.0
N676 N 0.38782 0.71067 0.80382 0.0
N677 N 0.35944 0.74058 0.84389 0.0
H678 H 0.49591 0.10574 0.20147 0.0
H679 H 0.59891 0.09091 0.13603 0.0
H680 H 0.4986 0.08381 0.13667 0.0
H681 H 0.59573 0.1271 0.19406 0.0
H682 H 0.5629 0.08212 0.13951 0.0
H683 H 0.53315 0.10799 0.20211 0.0
C684 C 0.50432 0.10123 0.18745 0.0
C685 C 0.49414 0.09478 0.16891 0.0
C686 C 0.57011 0.09185 0.15158 0.0
C687 C 0.53662 0.09719 0.1696 0.0
C688 C 0.59071 0.09682 0.14966 0.0
C689 C 0.60031 0.11001 0.16464 0.0
C690 C 0.55898 0.10006 0.16863 0.0
C691 C 0.5889 0.11705 0.18203 0.0
C692 C 0.52555 0.10256 0.18782 0.0
C693 C 0.5058 0.08909 0.15123 0.0
N694 N 0.56876 0.11213 0.18347 0.0
N695 N 0.52639 0.09048 0.15199 0.0
H696 H 0.10333 0.6825 0.10792 0.0
H697 H 0.15224 0.79833 0.11359 0.0
H698 H 0.15782 0.69823 0.14315 0.0
H699 H 0.09622 0.78345 0.0807 0.0
H700 H 0.15744 0.76068 0.11966 0.0
H701 H 0.10355 0.71809 0.09291 0.0
C702 C 0.11551 0.69334 0.1123 0.0
C703 C 0.1304 0.68748 0.1271 0.0
C704 C 0.14411 0.76561 0.11093 0.0
C705 C 0.13064 0.72831 0.11006 0.0
C706 C 0.14112 0.78713 0.10745 0.0
C707 C 0.12359 0.79408 0.09689 0.0
C708 C 0.12943 0.7509 0.10391 0.0
C709 C 0.10984 0.77882 0.0891 0.0
C710 C 0.11559 0.71368 0.10373 0.0
C711 C 0.1459 0.70213 0.13199 0.0
N712 N 0.11293 0.75795 0.09298 0.0
N713 N 0.14547 0.72195 0.1237 0.0
H714 H 0.42924 0.86914 0.39891 0.0
H715 H 0.54941 0.8855 0.38615 0.0
H716 H 0.45795 0.89079 0.34122 0.0
H717 H 0.52082 0.86047 0.44252 0.0
H718 H 0.51577 0.89147 0.37086 0.0
H719 H 0.46238 0.86962 0.41645 0.0
C720 C 0.44249 0.87412 0.38995 0.0
C721 C 0.44083 0.87974 0.3685 0.0
C722 C 0.51686 0.88483 0.38665 0.0
C723 C 0.47885 0.88029 0.38849 0.0
C724 C 0.53607 0.88145 0.39541 0.0
C725 C 0.53794 0.87226 0.41557 0.0
C726 C 0.4994 0.87895 0.39811 0.0
C727 C 0.52011 0.86743 0.42686 0.0
C728 C 0.46142 0.87439 0.39999 0.0
C729 C 0.45852 0.88618 0.35774 0.0
N730 N 0.5016 0.87068 0.41791 0.0
N731 N 0.47681 0.88615 0.36782 0.0
H732 H 0.42401 0.21049 0.57012 0.0
H733 H 0.37244 0.29707 0.64501 0.0
H734 H 0.36565 0.2016 0.6003 0.0
H735 H 0.43172 0.30476 0.61651 0.0
H736 H 0.36857 0.26309 0.62681 0.0
H737 H 0.42598 0.24614 0.58499 0.0
C738 C 0.41156 0.21607 0.57979 0.0
C739 C 0.3947 0.20298 0.58408 0.0
C740 C 0.38239 0.27226 0.62448 0.0
C741 C 0.39688 0.24378 0.60121 0.0
C742 C 0.3846 0.29167 0.63486 0.0
C743 C 0.40248 0.30373 0.63239 0.0
C744 C 0.39817 0.26485 0.61154 0.0
C745 C 0.41771 0.29596 0.61898 0.0
C746 C 0.4127 0.23643 0.58829 0.0
C747 C 0.37899 0.21109 0.59665 0.0
N748 N 0.41524 0.27699 0.60913 0.0
N749 N 0.3805 0.23093 0.60486 0.0
H750 H 0.03097 0.14814 0.8836 0.0
H751 H 0.92125 0.13295 0.82986 0.0
H752 H 0.02136 0.15266 0.81599 0.0
H753 H 0.93223 0.13757 0.89724 0.0
H754 H 0.95809 0.13628 0.82379 0.0
H755 H 0.99495 0.14043 0.88823 0.0
C756 C 0.02128 0.1475 0.86969 0.0
C757 C 0.02918 0.15122 0.84939 0.0
C758 C 0.95237 0.13645 0.83988 0.0
C759 C 0.98775 0.14236 0.85459 0.0
C760 C 0.9314 0.13447 0.84334 0.0
C761 C 0.92369 0.13516 0.86407 0.0
C762 C 0.96558 0.13896 0.85729 0.0
C763 C 0.93746 0.13717 0.88098 0.0
C764 C 0.00067 0.14307 0.87235 0.0
C765 C 0.01587 0.15001 0.83195 0.0
N766 N 0.95767 0.13905 0.87721 0.0
N767 N 0.99575 0.14576 0.83495 0.0
H768 H 0.3882 0.09122 0.19546 0.0
H769 H 0.36877 0.15118 0.30489 0.0
H770 H 0.41857 0.15003 0.21145 0.0
H771 H 0.33193 0.09924 0.28134 0.0
H772 H 0.38738 0.15154 0.2712 0.0
H773 H 0.36785 0.09414 0.22742 0.0
C774 C 0.39059 0.1048 0.20571 0.0
C775 C 0.40518 0.12037 0.20081 0.0
C776 C 0.37511 0.1402 0.27341 0.0
C777 C 0.38184 0.12381 0.23763 0.0
C778 C 0.36448 0.13998 0.29261 0.0
C779 C 0.34886 0.12506 0.29601 0.0
C780 C 0.37012 0.12531 0.25762 0.0
C781 C 0.34392 0.11096 0.27953 0.0
C782 C 0.37888 0.1065 0.22396 0.0
C783 C 0.40748 0.13766 0.21465 0.0
N784 N 0.3546 0.11135 0.26116 0.0
N785 N 0.396 0.13887 0.23255 0.0
H786 H 0.1059 0.11326 0.45189 0.0
H787 H 0.13821 0.11587 0.57427 0.0
H788 H 0.11849 0.17089 0.48659 0.0
H789 H 0.1332 0.05856 0.53717 0.0
H790 H 0.12731 0.13618 0.54342 0.0
H791 H 0.11219 0.09298 0.48408 0.0
C792 C 0.10989 0.12168 0.46631 0.0
C793 C 0.11181 0.14382 0.4665 0.0
C794 C 0.1285 0.11915 0.54206 0.0
C795 C 0.11906 0.12063 0.50345 0.0
C796 C 0.13469 0.10752 0.55968 0.0
C797 C 0.13677 0.08548 0.55826 0.0
C798 C 0.12432 0.10867 0.52288 0.0
C799 C 0.13193 0.07554 0.53896 0.0
C800 C 0.1135 0.11006 0.48469 0.0
C801 C 0.11694 0.15384 0.48568 0.0
N802 N 0.12601 0.08722 0.522 0.0
N803 N 0.12047 0.14216 0.50338 0.0
H804 H 0.1007 0.87938 0.85131 0.0
H805 H 0.07288 0.90862 0.7315 0.0
H806 H 0.09838 0.9432 0.82716 0.0
H807 H 0.091 0.84637 0.75184 0.0
H808 H 0.07385 0.92046 0.76839 0.0
H809 H 0.08857 0.86629 0.81696 0.0
C810 C 0.09723 0.89068 0.83895 0.0
C811 C 0.10085 0.9124 0.84198 0.0
C812 C 0.07739 0.90415 0.76479 0.0
C813 C 0.0871 0.89752 0.80269 0.0
C814 C 0.07681 0.89735 0.74373 0.0
C815 C 0.08218 0.87655 0.73855 0.0
C816 C 0.08329 0.89002 0.78077 0.0
C817 C 0.08701 0.86263 0.7551 0.0
C818 C 0.09043 0.88318 0.81931 0.0
C819 C 0.09607 0.9263 0.8254 0.0
N820 N 0.08762 0.86966 0.77546 0.0
N821 N 0.08964 0.91861 0.8064 0.0
H822 H 0.31243 0.88185 0.92931 0.0
H823 H 0.35629 0.84263 0.04103 0.0
H824 H 0.35309 0.82896 0.93539 0.0
H825 H 0.31788 0.89706 0.03295 0.0
H826 H 0.35497 0.83662 0.00262 0.0
H827 H 0.31385 0.88691 0.96756 0.0
C828 C 0.32167 0.87127 0.93869 0.0
C829 C 0.33267 0.85497 0.9291 0.0
C830 C 0.34684 0.84987 0.0093 0.0
C831 C 0.33438 0.86068 0.97307 0.0
C832 C 0.34759 0.8533 0.03121 0.0
C833 C 0.33719 0.87038 0.04022 0.0
C834 C 0.3356 0.8636 0.99638 0.0
C835 C 0.32615 0.8837 0.02674 0.0
C836 C 0.32248 0.87418 0.96057 0.0
C837 C 0.34437 0.84175 0.94212 0.0
N838 N 0.32565 0.88002 0.00555 0.0
N839 N 0.34492 0.8449 0.96346 0.0
H840 H 0.38785 0.81812 0.26135 0.0
H841 H 0.41269 0.87115 0.1493 0.0
H842 H 0.41595 0.87969 0.25395 0.0
H843 H 0.36339 0.82649 0.15872 0.0
H844 H 0.42233 0.86699 0.1865 0.0
H845 H 0.38692 0.81433 0.22265 0.0
C846 C 0.39414 0.83068 0.2516 0.0
C847 C 0.40177 0.84937 0.26082 0.0
C848 C 0.40964 0.85782 0.18028 0.0
C849 C 0.40094 0.845 0.21674 0.0
C850 C 0.4042 0.86005 0.15902 0.0
C851 C 0.38701 0.84937 0.15098 0.0
C852 C 0.39797 0.84465 0.1935 0.0
C853 C 0.3766 0.83521 0.16436 0.0
C854 C 0.39354 0.82851 0.22957 0.0
C855 C 0.4097 0.86514 0.24746 0.0
N856 N 0.38212 0.83341 0.18506 0.0
N857 N 0.40901 0.86263 0.22607 0.0
H858 H 0.34801 0.17083 0.5006 0.0
H859 H 0.37336 0.09361 0.40384 0.0
H860 H 0.3903 0.11918 0.50486 0.0
H861 H 0.32736 0.14184 0.40178 0.0
H862 H 0.38324 0.10587 0.43921 0.0
H863 H 0.34378 0.16351 0.46284 0.0
C864 C 0.35655 0.15805 0.49357 0.0
C865 C 0.36935 0.14544 0.50597 0.0
C866 C 0.3711 0.11388 0.43094 0.0
C867 C 0.36451 0.13692 0.46272 0.0
C868 C 0.36548 0.10692 0.41071 0.0
C869 C 0.34934 0.11656 0.39993 0.0
C870 C 0.36053 0.13061 0.44042 0.0
C871 C 0.33975 0.1338 0.40959 0.0
C872 C 0.35411 0.15387 0.47199 0.0
C873 C 0.38013 0.12919 0.49594 0.0
N874 N 0.34538 0.14016 0.42934 0.0
N875 N 0.37734 0.12529 0.47493 0.0
H876 H 0.11497 0.16896 0.76098 0.0
H877 H 0.13336 0.07346 0.68008 0.0
H878 H 0.09306 0.10506 0.77072 0.0
H879 H 0.14974 0.13827 0.66592 0.0
H880 H 0.11929 0.08495 0.71381 0.0
H881 H 0.12845 0.15826 0.72645 0.0
C882 C 0.11294 0.15271 0.75584 0.0
C883 C 0.10289 0.13787 0.76876 0.0
C884 C 0.12592 0.0967 0.70334 0.0
C885 C 0.11832 0.12554 0.7294 0.0
C886 C 0.13401 0.09014 0.68405 0.0
C887 C 0.14276 0.10493 0.67013 0.0
C888 C 0.12663 0.11822 0.70886 0.0
C889 C 0.14313 0.12633 0.67616 0.0
C890 C 0.12063 0.14662 0.73614 0.0
C891 C 0.1007 0.11704 0.76132 0.0
N892 N 0.13521 0.13234 0.69512 0.0
N893 N 0.10839 0.1115 0.74218 0.0
H894 H 0.16236 0.87254 0.03509 0.0
H895 H 0.09246 0.93031 0.94903 0.0
H896 H 0.10029 0.89046 0.04742 0.0
H897 H 0.15616 0.91684 0.9403 0.0
H898 H 0.09428 0.91464 0.98453 0.0
H899 H 0.1596 0.88747 -0.00037 0.0
C900 C 0.14812 0.8796 0.03034 0.0
C901 C 0.13155 0.88029 0.04428 0.0
C902 C 0.10783 0.91514 0.97481 0.0
C903 C 0.12826 0.89747 0.00357 0.0
C904 C 0.10681 0.92406 0.95455 0.0
C905 C 0.12419 0.92493 0.94168 0.0
C906 C 0.12636 0.90698 0.98217 0.0
C907 C 0.14237 0.91659 0.94965 0.0
C908 C 0.14655 0.88816 0.01005 0.0
C909 C 0.11347 0.88963 0.0372 0.0
N910 N 0.14296 0.90797 0.96934 0.0
N911 N 0.1123 0.89787 0.01731 0.0
H912 H 0.3255 0.29905 0.12176 0.0
H913 H 0.26237 0.40663 0.12371 0.0
H914 H 0.34472 0.35678 0.09081 0.0
H915 H 0.23931 0.34723 0.14804 0.0
H916 H 0.29466 0.38967 0.1159 0.0
H917 H 0.29587 0.31752 0.13574 0.0
C918 C 0.3236 0.31565 0.11805 0.0
C919 C 0.33751 0.32634 0.10493 0.0
C920 C 0.28259 0.38037 0.12307 0.0
C921 C 0.30366 0.34752 0.12084 0.0
C922 C 0.26414 0.39005 0.12758 0.0
C923 C 0.24802 0.37828 0.13635 0.0
C924 C 0.28498 0.35873 0.12735 0.0
C925 C 0.25126 0.35688 0.14113 0.0
C926 C 0.30666 0.32616 0.126 0.0
C927 C 0.3343 0.34785 0.10071 0.0
N928 N 0.26934 0.34775 0.13643 0.0
N929 N 0.31767 0.35769 0.10854 0.0
H930 H 0.71294 0.04638 0.8675 0.0
H931 H 0.80112 0.12865 0.83684 0.0
H932 H 0.70512 0.11406 0.86443 0.0
H933 H 0.81222 0.06422 0.85607 0.0
H934 H 0.76461 0.12142 0.83801 0.0
H935 H 0.74797 0.05098 0.85521 0.0
C936 C 0.71851 0.06219 0.86405 0.0
C937 C 0.70618 0.0799 0.86728 0.0
C938 C 0.77505 0.10878 0.84167 0.0
C939 C 0.74616 0.08522 0.85308 0.0
C940 C 0.79592 0.11284 0.84087 0.0
C941 C 0.80977 0.09712 0.84676 0.0
C942 C 0.76797 0.08884 0.84831 0.0
C943 C 0.8021 0.0769 0.85169 0.0
C944 C 0.73851 0.06479 0.85704 0.0
C945 C 0.71418 0.09999 0.86243 0.0
N946 N 0.78169 0.07341 0.85263 0.0
N947 N 0.7337 0.10211 0.85569 0.0
H948 H 0.19275 0.48499 0.11078 0.0
H949 H 0.15175 0.58378 0.17515 0.0
H950 H 0.19753 0.49105 0.17883 0.0
H951 H 0.15685 0.58317 0.10691 0.0
H952 H 0.17068 0.55086 0.17668 0.0
H953 H 0.18195 0.52181 0.10875 0.0
C954 C 0.19177 0.49413 0.12528 0.0
C955 C 0.19581 0.48484 0.14504 0.0
C956 C 0.16788 0.55801 0.16137 0.0
C957 C 0.18328 0.52693 0.14283 0.0
C958 C 0.15701 0.5768 0.16048 0.0
C959 C 0.15252 0.5861 0.14085 0.0
C960 C 0.17409 0.54826 0.14248 0.0
C961 C 0.1599 0.57647 0.12237 0.0
C962 C 0.18561 0.51517 0.1241 0.0
C963 C 0.19442 0.49749 0.16327 0.0
N964 N 0.1701 0.5579 0.12362 0.0
N965 N 0.18802 0.5178 0.16175 0.0
H966 H 0.65615 0.91983 0.4178 0.0
H967 H 0.75226 0.87189 0.3579 0.0
H968 H 0.65495 0.86042 0.38389 0.0
H969 H 0.75215 0.93408 0.38633 0.0
H970 H 0.71616 0.86809 0.36613 0.0
H971 H 0.69077 0.92621 0.40505 0.0
C972 C 0.66308 0.90822 0.40751 0.0
C973 C 0.65268 0.88949 0.40203 0.0
C974 C 0.72399 0.88262 0.37047 0.0
C975 C 0.69234 0.89661 0.38754 0.0
C976 C 0.74463 0.88478 0.36582 0.0
C977 C 0.75528 0.90327 0.37155 0.0
C978 C 0.71391 0.89902 0.38108 0.0
C979 C 0.74456 0.91951 0.38168 0.0
C980 C 0.68286 0.91186 0.40026 0.0
C981 C 0.6624 0.87504 0.38861 0.0
N982 N 0.7245 0.91694 0.38624 0.0
N983 N 0.68173 0.87883 0.38197 0.0
H984 H 0.86443 0.88383 0.1344 0.0
H985 H 0.8965 -0.00265 0.09204 0.0
H986 H 0.92308 0.89699 0.1064 0.0
H987 H 0.83406 0.97927 0.10399 0.0
H988 H 0.90641 0.96047 0.09637 0.0
H989 H 0.85269 0.91833 0.12239 0.0
C990 C 0.87477 0.89389 0.1255 0.0
C991 C 0.89482 0.88763 0.12155 0.0
C992 C 0.89051 0.96453 0.09782 0.0
C993 C 0.88155 0.92722 0.10799 0.0
C994 C 0.88485 0.98559 0.09544 0.0
C995 C 0.86445 0.99141 0.09787 0.0
C996 C 0.87571 0.94921 0.10294 0.0
C997 C 0.84998 0.9755 0.10207 0.0
C998 C 0.86804 0.91357 0.11863 0.0
C999 C 0.90751 0.90122 0.10984 0.0
N1000 N 0.85592 0.95515 0.10473 0.0
N1001 N 0.90075 0.92052 0.10372 0.0
H1002 H 0.19145 0.58359 0.60554 0.0
H1003 H 0.30608 0.58766 0.64835 0.0
H1004 H 0.20899 0.61459 0.66395 0.0
H1005 H 0.28866 0.56754 0.58536 0.0
H1006 H 0.27011 0.59276 0.65686 0.0
H1007 H 0.22647 0.57235 0.60075 0.0
C1008 C 0.20262 0.58786 0.61749 0.0
C1009 C 0.19731 0.60028 0.63506 0.0
C1010 C 0.2742 0.58711 0.64123 0.0
C1011 C 0.23755 0.58755 0.62955 0.0
C1012 C 0.2947 0.58417 0.63637 0.0
C1013 C 0.30039 0.57735 0.61605 0.0
C1014 C 0.25931 0.58306 0.6257 0.0
C1015 C 0.285 0.57302 0.60116 0.0
C1016 C 0.22265 0.58148 0.6147 0.0
C1017 C 0.21243 0.60517 0.65009 0.0
N1018 N 0.2652 0.57601 0.60626 0.0
N1019 N 0.23193 0.59894 0.6469 0.0
H1020 H 0.06902 0.46967 0.33915 0.0
H1021 H 0.11602 0.55164 0.42256 0.0
H1022 H 0.0857 0.45145 0.40279 0.0
H1023 H 0.08693 0.56971 0.36393 0.0
H1024 H 0.10576 0.51483 0.4159 0.0
H1025 H 0.07653 0.50638 0.34804 0.0
C1026 C 0.07427 0.47339 0.35503 0.0
C1027 C 0.07681 0.45745 0.37024 0.0
C1028 C 0.10152 0.52691 0.4046 0.0
C1029 C 0.08548 0.4996 0.38054 0.0
C1030 C 0.10738 0.54791 0.40837 0.0
C1031 C 0.10244 0.56376 0.39371 0.0
C1032 C 0.09081 0.52178 0.38597 0.0
C1033 C 0.09116 0.55803 0.37564 0.0
C1034 C 0.07848 0.4944 0.36013 0.0
C1035 C 0.08354 0.46326 0.39059 0.0
N1036 N 0.08587 0.53751 0.37222 0.0
N1037 N 0.08777 0.4839 0.39514 0.0
H1038 H 0.38056 0.58188 0.80131 0.0
H1039 H 0.36523 0.47276 0.86343 0.0
H1040 H 0.42968 0.54856 0.83167 0.0
H1041 H 0.32093 0.49777 0.81972 0.0
H1042 H 0.38766 0.50278 0.85564 0.0
H1043 H 0.35723 0.55336 0.81148 0.0
C1044 C 0.38645 0.56859 0.81017 0.0
C1045 C 0.40714 0.56755 0.81557 0.0
C1046 C 0.37301 0.50172 0.8478 0.0
C1047 C 0.38046 0.53492 0.82733 0.0
C1048 C 0.36015 0.48464 0.8523 0.0
C1049 C 0.3412 0.48271 0.84213 0.0
C1050 C 0.36683 0.51708 0.83315 0.0
C1051 C 0.33544 0.49858 0.82785 0.0
C1052 C 0.37311 0.55231 0.81593 0.0
C1053 C 0.41388 0.54996 0.82707 0.0
N1054 N 0.34822 0.5151 0.82376 0.0
N1055 N 0.40056 0.53433 0.83259 0.0
H1056 H 0.92663 0.65401 0.60634 0.0
H1057 H 0.84973 0.74447 0.57117 0.0
H1058 H 0.86147 0.64501 0.60435 0.0
H1059 H 0.91504 0.75215 0.57335 0.0
H1060 H 0.85366 0.70688 0.57936 0.0
H1061 H 0.92264 0.68871 0.5902 0.0
C1062 C 0.91147 0.65926 0.60234 0.0
C1063 C 0.89433 0.6467 0.60695 0.0
C1064 C 0.86712 0.71677 0.57785 0.0
C1065 C 0.88962 0.68658 0.58858 0.0
C1066 C 0.8649 0.73822 0.57315 0.0
C1067 C 0.88207 0.75152 0.57182 0.0
C1068 C 0.88666 0.70861 0.58124 0.0
C1069 C 0.90135 0.74255 0.57445 0.0
C1070 C 0.9092 0.67911 0.59311 0.0
C1071 C 0.87509 0.65424 0.6012 0.0
N1072 N 0.9031 0.72172 0.57919 0.0
N1073 N 0.87323 0.67382 0.59252 0.0
H1074 H 0.9442 0.14878 0.37979 0.0
H1075 H 0.06436 0.168 0.3704 0.0
H1076 H 0.97648 0.14984 0.32022 0.0
H1077 H 0.03061 0.17531 0.42859 0.0
H1078 H 0.03279 0.15825 0.35218 0.0
H1079 H 0.97624 0.15546 0.39835 0.0
C1080 C 0.95803 0.15034 0.37061 0.0
C1081 C 0.95765 0.14885 0.34841 0.0
C1082 C 0.03231 0.16194 0.36894 0.0
C1083 C 0.99439 0.1565 0.36956 0.0
C1084 C 0.05033 0.16748 0.37937 0.0
C1085 C 0.0501 0.17259 0.40104 0.0
C1086 C 0.01394 0.16144 0.38028 0.0
C1087 C 0.03149 0.1716 0.41186 0.0
C1088 C 0.97633 0.15419 0.38122 0.0
C1089 C 0.97606 0.15097 0.33734 0.0
N1090 N 0.01415 0.16617 0.40135 0.0
N1091 N 0.99369 0.15473 0.34804 0.0
H1092 H 0.64405 0.18806 0.16728 0.0
H1093 H 0.65019 0.30703 0.12435 0.0
H1094 H 0.67927 0.20673 0.11254 0.0
H1095 H 0.61401 0.28712 0.17796 0.0
H1096 H 0.66353 0.27113 0.12154 0.0
H1097 H 0.63566 0.22505 0.17339 0.0
C1098 C 0.65018 0.19996 0.15664 0.0
C1099 C 0.66224 0.19426 0.13926 0.0
C1100 C 0.65276 0.27467 0.13398 0.0
C1101 C 0.65253 0.23669 0.14607 0.0
C1102 C 0.64514 0.29516 0.13559 0.0
C1103 C 0.63084 0.30005 0.1513 0.0
C1104 C 0.64603 0.25899 0.14819 0.0
C1105 C 0.62489 0.28405 0.16549 0.0
C1106 C 0.64534 0.2211 0.16012 0.0
C1107 C 0.66983 0.21039 0.12608 0.0
N1108 N 0.63244 0.26424 0.16353 0.0
N1109 N 0.66471 0.23087 0.12965 0.0
H1110 H 0.39446 0.85158 0.82672 0.0
H1111 H 0.48855 0.92962 0.84897 0.0
H1112 H 0.39258 0.9031 0.87171 0.0
H1113 H 0.49265 0.87014 0.8156 0.0
H1114 H 0.45159 0.92466 0.85118 0.0
H1115 H 0.42851 0.86297 0.81623 0.0
C1116 C 0.4011 0.86544 0.83424 0.0
C1117 C 0.39078 0.8762 0.85039 0.0
C1118 C 0.46059 0.91285 0.84316 0.0
C1119 C 0.42984 0.88925 0.83847 0.0
C1120 C 0.48165 0.9157 0.84181 0.0
C1121 C 0.49369 0.90012 0.83235 0.0
C1122 C 0.45157 0.89438 0.83482 0.0
C1123 C 0.48397 0.88241 0.82331 0.0
C1124 C 0.42057 0.87191 0.82825 0.0
C1125 C 0.40008 0.8942 0.85937 0.0
N1126 N 0.46351 0.87995 0.82491 0.0
N1127 N 0.4192 0.90004 0.85345 0.0
H1128 H 0.8093 0.20079 0.8606 0.0
H1129 H 0.87694 0.30273 0.8893 0.0
H1130 H 0.86945 0.19851 0.88808 0.0
H1131 H 0.82076 0.3054 0.85384 0.0
H1132 H 0.8712 0.26495 0.89487 0.0
H1133 H 0.81029 0.23941 0.86359 0.0
C1134 C 0.82262 0.20838 0.86745 0.0
C1135 C 0.83943 0.19644 0.87383 0.0
C1136 C 0.86002 0.27384 0.88605 0.0
C1137 C 0.84065 0.24053 0.87731 0.0
C1138 C 0.86325 0.29544 0.88291 0.0
C1139 C 0.84946 0.30718 0.87079 0.0
C1140 C 0.8429 0.26387 0.87698 0.0
C1141 C 0.83191 0.29691 0.86308 0.0
C1142 C 0.82318 0.23042 0.86913 0.0
C1143 C 0.85625 0.2071 0.8827 0.0
N1144 N 0.82924 0.27577 0.8661 0.0
N1145 N 0.85648 0.22853 0.88404 0.0
H1146 H 0.45171 0.09732 0.56142 0.0
H1147 H 0.50954 0.10321 0.673 0.0
H1148 H 0.42359 0.11711 0.61991 0.0
H1149 H 0.5386 0.08569 0.61428 0.0
H1150 H 0.47695 0.10439 0.65447 0.0
H1151 H 0.48265 0.08899 0.58115 0.0
C1152 C 0.45196 0.09974 0.57842 0.0
C1153 C 0.4351 0.10814 0.58899 0.0
C1154 C 0.49043 0.10014 0.64566 0.0
C1155 C 0.47047 0.09873 0.61164 0.0
C1156 C 0.50905 0.09944 0.65624 0.0
C1157 C 0.52687 0.09456 0.64513 0.0
C1158 C 0.4896 0.09598 0.62377 0.0
C1159 C 0.52528 0.0897 0.62345 0.0
C1160 C 0.46965 0.095 0.58968 0.0
C1161 C 0.43628 0.11084 0.61107 0.0
N1162 N 0.507 0.0907 0.61345 0.0
N1163 N 0.45371 0.1063 0.62162 0.0
H1164 H 0.57609 0.7904 0.41714 0.0
H1165 H 0.62042 0.68809 0.35928 0.0
H1166 H 0.63824 0.78526 0.39591 0.0
H1167 H 0.55814 0.69328 0.3801 0.0
H1168 H 0.62784 0.72268 0.37489 0.0
H1169 H 0.56986 0.75387 0.40605 0.0
C1170 C 0.58847 0.78155 0.41028 0.0
C1171 C 0.60769 0.79097 0.40731 0.0
C1172 C 0.61257 0.71621 0.37614 0.0
C1173 C 0.60063 0.74915 0.39449 0.0
C1174 C 0.60832 0.69645 0.36722 0.0
C1175 C 0.58859 0.68783 0.36824 0.0
C1176 C 0.59698 0.72749 0.38613 0.0
C1177 C 0.57355 0.69935 0.37884 0.0
C1178 C 0.5849 0.76069 0.40393 0.0
C1179 C 0.62317 0.7787 0.3984 0.0
N1180 N 0.57803 0.71864 0.38727 0.0
N1181 N 0.61926 0.75847 0.39219 0.0
H1182 H 0.05908 0.91047 0.13296 0.0
H1183 H 0.97268 0.8287 0.1682 0.0
H1184 H 0.07011 0.84449 0.14593 0.0
H1185 H 0.96389 0.8963 0.16777 0.0
H1186 H 0.00882 0.83451 0.16134 0.0
H1187 H 0.0246 0.90614 0.147 0.0
C1188 C 0.05435 0.89514 0.13895 0.0
C1189 C 0.06746 0.87778 0.13806 0.0
C1190 C -0.00096 0.84811 0.16295 0.0
C1191 C 0.02801 0.87267 0.15397 0.0
C1192 C 0.97839 0.84479 0.16685 0.0
C1193 C 0.96522 0.86203 0.16843 0.0
C1194 C 0.00658 0.86882 0.16034 0.0
C1195 C 0.97348 0.88253 0.16663 0.0
C1196 C 0.03466 0.89268 0.14698 0.0
C1197 C 0.06052 0.8583 0.14615 0.0
N1198 N 0.99361 0.88536 0.16244 0.0
N1199 N 0.04122 0.85624 0.15354 0.0
H1200 H 0.61953 0.8786 0.67508 0.0
H1201 H 0.62987 0.86713 0.80084 0.0
H1202 H 0.67706 0.87689 0.70816 0.0
H1203 H 0.57249 0.87189 0.76783 0.0
H1204 H 0.64735 0.86629 0.76671 0.0
H1205 H 0.60207 0.87156 0.70849 0.0
C1206 C 0.62852 0.87652 0.68933 0.0
C1207 C 0.64978 0.87857 0.68886 0.0
C1208 C 0.63092 0.86736 0.76693 0.0
C1209 C 0.62986 0.87065 0.72721 0.0
C1210 C 0.62092 0.86784 0.78642 0.0
C1211 C 0.5997 0.86981 0.7872 0.0
C1212 C 0.61963 0.8689 0.74808 0.0
C1213 C 0.58889 0.87053 0.76799 0.0
C1214 C 0.61852 0.87253 0.70842 0.0
C1215 C 0.66063 0.87558 0.7078 0.0
N1216 N 0.59899 0.87023 0.74923 0.0
N1217 N 0.65053 0.87197 0.72625 0.0
H1218 H 0.87614 0.82244 0.50273 0.0
H1219 H 0.85179 0.92109 0.428 0.0
H1220 H 0.89351 0.88674 0.51807 0.0
H1221 H 0.84037 0.85605 0.41016 0.0
H1222 H 0.86763 0.90889 0.46082 0.0
H1223 H 0.86359 0.83448 0.46843 0.0
C1224 C 0.87742 0.83909 0.49885 0.0
C1225 C 0.8858 0.85363 0.51335 0.0
C1226 C 0.86174 0.89729 0.44968 0.0
C1227 C 0.87133 0.86755 0.47409 0.0
C1228 C 0.85266 0.90424 0.43095 0.0
C1229 C 0.84465 0.88957 0.41635 0.0
C1230 C 0.86273 0.87551 0.4539 0.0
C1231 C 0.84628 0.86794 0.42097 0.0
C1232 C 0.87024 0.84596 0.47923 0.0
C1233 C 0.88712 0.87499 0.5074 0.0
N1234 N 0.85505 0.86157 0.43938 0.0
N1235 N 0.87984 0.88133 0.48827 0.0
H1236 H 0.91774 0.07911 0.13922 0.0
H1237 H 0.90346 0.15885 0.23469 0.0
H1238 H 0.87898 0.13375 0.13632 0.0
H1239 H 0.9469 0.10808 0.23502 0.0
H1240 H 0.89841 0.15344 0.19672 0.0
H1241 H 0.93283 0.09292 0.17185 0.0
C1242 C 0.91265 0.09421 0.14525 0.0
C1243 C 0.8968 0.1051 0.13527 0.0
C1244 C 0.90928 0.14368 0.20501 0.0
C1245 C 0.91381 0.12085 0.17279 0.0
C1246 C 0.91215 0.14674 0.22672 0.0
C1247 C 0.92533 0.13361 0.23812 0.0
C1248 C 0.91949 0.12722 0.19467 0.0
C1249 C 0.93638 0.11838 0.22692 0.0
C1250 C 0.92127 0.10209 0.16391 0.0
C1251 C 0.891 0.12471 0.14363 0.0
N1252 N 0.93296 0.11537 0.20587 0.0
N1253 N 0.89924 0.13177 0.16214 0.0
H1254 H 0.66813 0.10722 0.96173 0.0
H1255 H 0.61055 0.14781 0.0656 0.0
H1256 H 0.6071 0.13181 0.96069 0.0
H1257 H 0.67028 0.12003 0.06598 0.0
H1258 H 0.60979 0.14462 0.02692 0.0
H1259 H 0.67001 0.11451 -0.00037 0.0
C1260 C 0.65514 0.11426 0.96945 0.0
C1261 C 0.63736 0.11878 0.95802 0.0
C1262 C 0.62308 0.13931 0.03548 0.0
C1263 C 0.6394 0.1271 0.00155 0.0
C1264 C 0.62354 0.14113 0.05756 0.0
C1265 C 0.64045 0.13406 0.06906 0.0
C1266 C 0.63968 0.13037 0.02485 0.0
C1267 C 0.65686 0.12558 0.0578 0.0
C1268 C 0.65622 0.11841 0.99113 0.0
C1269 C 0.62107 0.128 0.96888 0.0
N1270 N 0.65603 0.12392 0.03635 0.0
N1271 N 0.62244 0.13176 0.99008 0.0
H1272 H 0.59532 0.10462 0.8574 0.0
H1273 H 0.58995 0.16629 0.74715 0.0
H1274 H 0.63602 0.156 0.84067 0.0
H1275 H 0.56474 0.10393 0.7581 0.0
H1276 H 0.59936 0.16844 0.78474 0.0
H1277 H 0.5764 0.11051 0.82468 0.0
C1278 C 0.6001 0.11739 0.84704 0.0
C1279 C 0.61758 0.12954 0.85156 0.0
C1280 C 0.59146 0.15446 0.77893 0.0
C1281 C 0.59597 0.13626 0.81403 0.0
C1282 C 0.58602 0.15324 0.75754 0.0
C1283 C 0.57682 0.13476 0.74947 0.0
C1284 C 0.58745 0.13718 0.79232 0.0
C1285 C 0.57207 0.11834 0.76361 0.0
C1286 C 0.58929 0.12069 0.82832 0.0
C1287 C 0.62282 0.14605 0.83766 0.0
N1288 N 0.57759 0.11987 0.78432 0.0
N1289 N 0.61222 0.14874 0.81933 0.0
H1290 H 0.60139 0.88329 0.48932 0.0
H1291 H 0.68068 0.86779 0.5845 0.0
H1292 H 0.65117 0.83929 0.48738 0.0
H1293 H 0.6354 0.91679 0.58334 0.0
H1294 H 0.6683 0.85521 0.55013 0.0
H1295 H 0.61183 0.89379 0.52507 0.0
C1296 C 0.61445 0.87575 0.49645 0.0
C1297 C 0.62548 0.86045 0.48531 0.0
C1298 C 0.66105 0.86869 0.55741 0.0
C1299 C 0.63753 0.87242 0.52619 0.0
C1300 C 0.66809 0.87587 0.57706 0.0
C1301 C 0.65912 0.89344 0.58677 0.0
C1302 C 0.64487 0.8791 0.54743 0.0
C1303 C 0.64283 0.90325 0.5764 0.0
C1304 C 0.62043 0.88179 0.51684 0.0
C1305 C 0.64226 0.85121 0.49534 0.0
N1306 N 0.63626 0.89597 0.55727 0.0
N1307 N 0.6478 0.85738 0.51519 0.0
H1308 H 0.85122 0.88492 0.32234 0.0
H1309 H 0.83377 0.85391 0.20053 0.0
H1310 H 0.79928 0.9045 0.28552 0.0
H1311 H 0.89047 0.84469 0.23378 0.0
H1312 H 0.81896 0.86786 0.23308 0.0
H1313 H 0.86391 0.86579 0.29147 0.0
C1314 C 0.84242 0.88512 0.3078 0.0
C1315 C 0.82423 0.89648 0.30646 0.0
C1316 C 0.83461 0.86266 0.23329 0.0
C1317 C 0.83866 0.87455 0.2711 0.0
C1318 C 0.84306 0.85462 0.21472 0.0
C1319 C 0.86346 0.8483 0.21437 0.0
C1320 C 0.8466 0.86435 0.25167 0.0
C1321 C 0.87473 0.84952 0.23328 0.0
C1322 C 0.8497 0.8742 0.29018 0.0
C1323 C 0.81345 0.8961 0.28722 0.0
N1324 N 0.86618 0.85751 0.25114 0.0
N1325 N 0.82086 0.88537 0.27028 0.0
H1326 H 0.82497 0.12852 0.9448 0.0
H1327 H 0.89122 0.05145 0.01757 0.0
H1328 H 0.87497 0.09146 0.92134 0.0
H1329 H 0.84474 0.0927 0.04183 0.0
H1330 H 0.8843 0.06449 0.98182 0.0
H1331 H 0.83053 0.11377 0.98012 0.0
C1332 C 0.83703 0.11719 0.94704 0.0
C1333 C 0.84958 0.1113 0.93012 0.0
C1334 C 0.87562 0.07069 0.99498 0.0
C1335 C 0.8561 0.09444 0.97049 0.0
C1336 C 0.87959 0.06326 0.01539 0.0
C1337 C 0.86858 0.07103 0.03272 0.0
C1338 C 0.86051 0.08594 0.99187 0.0
C1339 C 0.85364 0.0863 0.02895 0.0
C1340 C 0.84024 0.10882 0.96722 0.0
C1341 C 0.86497 0.09653 0.93394 0.0
N1342 N 0.85005 0.09325 0.00894 0.0
N1343 N 0.86783 0.08866 0.95374 0.0
H1344 H 0.74072 0.59578 0.87253 0.0
H1345 H 0.6794 0.70021 0.9031 0.0
H1346 H 0.76562 0.659 0.86662 0.0
H1347 H 0.65689 0.63663 0.91351 0.0
H1348 H 0.70997 0.68562 0.8869 0.0
H1349 H 0.7087 0.61072 0.8846 0.0
C1350 C 0.73942 0.61282 0.87364 0.0
C1351 C 0.75593 0.62616 0.8687 0.0
C1352 C 0.69831 0.67487 0.89267 0.0
C1353 C 0.7193 0.64337 0.8826 0.0
C1354 C 0.68085 0.68319 0.90192 0.0
C1355 C 0.66562 0.66962 0.9098 0.0
C1356 C 0.70054 0.65284 0.89127 0.0
C1357 C 0.66828 0.6477 0.90777 0.0
C1358 C 0.72113 0.62134 0.88058 0.0
C1359 C 0.75333 0.64811 0.87037 0.0
N1360 N 0.68543 0.64 0.89877 0.0
N1361 N 0.73538 0.65604 0.87728 0.0
H1362 H 0.28501 0.85269 0.16453 0.0
H1363 H 0.18092 0.89625 0.11627 0.0
H1364 H 0.28079 0.89068 0.10784 0.0
H1365 H 0.18348 0.8475 0.16412 0.0
H1366 H 0.21783 0.90007 0.11829 0.0
H1367 H 0.24817 0.85582 0.16924 0.0
C1368 C 0.27638 0.86181 0.15317 0.0
C1369 C 0.28594 0.87123 0.13562 0.0
C1370 C 0.21029 0.88871 0.12853 0.0
C1371 C 0.24392 0.87499 0.14101 0.0
C1372 C 0.18919 0.88659 0.12748 0.0
C1373 C 0.1791 0.87128 0.13981 0.0
C1374 C 0.22142 0.87545 0.14201 0.0
C1375 C 0.19064 0.85934 0.15414 0.0
C1376 C 0.25537 0.86358 0.15587 0.0
C1377 C 0.27402 0.88294 0.12146 0.0
N1378 N 0.21123 0.86149 0.15468 0.0
N1379 N 0.25365 0.88441 0.12442 0.0
H1380 H 0.81421 0.51429 0.90438 0.0
H1381 H 0.82356 0.41754 0.82315 0.0
H1382 H 0.80086 0.51863 0.83745 0.0
H1383 H 0.84897 0.41747 0.88636 0.0
H1384 H 0.80905 0.45229 0.83016 0.0
H1385 H 0.82091 0.47655 0.89989 0.0
C1386 C 0.81245 0.50727 0.88879 0.0
C1387 C 0.80721 0.51968 0.87121 0.0
C1388 C 0.81765 0.44457 0.84255 0.0
C1389 C 0.81486 0.47656 0.86599 0.0
C1390 C 0.8259 0.4247 0.83859 0.0
C1391 C 0.83773 0.41471 0.8541 0.0
C1392 C 0.8212 0.45447 0.86219 0.0
C1393 C 0.84015 0.42471 0.87385 0.0
C1394 C 0.81634 0.48574 0.88624 0.0
C1395 C 0.80509 0.50971 0.8514 0.0
N1396 N 0.83209 0.44411 0.87728 0.0
N1397 N 0.80905 0.48877 0.8493 0.0
H1398 H 0.22544 0.07435 0.5939 0.0
H1399 H 0.32798 0.1266 0.63921 0.0
H1400 H 0.23285 0.09352 0.65925 0.0
H1401 H 0.32025 0.10457 0.5748 0.0
H1402 H 0.29381 0.11333 0.64751 0.0
H1403 H 0.26076 0.0841 0.58724 0.0
C1404 C 0.23452 0.08056 0.60689 0.0
C1405 C 0.22613 0.08324 0.62715 0.0
C1406 C 0.29966 0.11131 0.6316 0.0
C1407 C 0.26669 0.09452 0.61959 0.0
C1408 C 0.31916 0.11888 0.62685 0.0
C1409 C 0.32695 0.11681 0.60624 0.0
C1410 C 0.28788 0.10166 0.61561 0.0
C1411 C 0.31486 0.10662 0.59087 0.0
C1412 C 0.25473 0.08611 0.60307 0.0
C1413 C 0.23868 0.09124 0.64338 0.0
N1414 N 0.29592 0.09953 0.59586 0.0
N1415 N 0.25833 0.09672 0.63922 0.0
H1416 H 0.11763 0.02266 0.91522 0.0
H1417 H 0.15288 0.11332 0.83446 0.0
H1418 H 0.15997 0.01317 0.86391 0.0
H1419 H 0.10217 0.1192 0.87741 0.0
H1420 H 0.1607 0.07907 0.85032 0.0
H1421 H 0.11676 0.06037 0.90653 0.0
C1422 C 0.12691 0.02853 0.90229 0.0
C1423 C 0.13865 0.01469 0.89007 0.0
C1424 C 0.14801 0.08798 0.85643 0.0
C1425 C 0.13774 0.05775 0.88007 0.0
C1426 C 0.14358 0.10758 0.84744 0.0
C1427 C 0.12666 0.11898 0.8544 0.0
C1428 C 0.13544 0.07978 0.8725 0.0
C1429 C 0.11521 0.11081 0.87135 0.0
C1430 C 0.12638 0.05004 0.89732 0.0
C1431 C 0.15048 0.0232 0.87357 0.0
N1432 N 0.11968 0.0916 0.87968 0.0
N1433 N 0.1496 0.04415 0.86895 0.0
H1434 H 0.79261 0.379 0.40314 0.0
H1435 H 0.69492 0.41816 0.33902 0.0
H1436 H 0.79366 0.39274 0.33607 0.0
H1437 H 0.69608 0.40693 0.40656 0.0
H1438 H 0.73138 0.41072 0.33758 0.0
H1439 H 0.75759 0.39101 0.40468 0.0
C1440 C 0.7855 0.38464 0.38872 0.0
C1441 C 0.79606 0.38472 0.36941 0.0
C1442 C 0.72365 0.41001 0.35271 0.0
C1443 C 0.75579 0.39845 0.37105 0.0
C1444 C 0.70284 0.41427 0.35356 0.0
C1445 C 0.69239 0.41303 0.37292 0.0
C1446 C 0.73403 0.40446 0.37136 0.0
C1447 C 0.70345 0.40796 0.39125 0.0
C1448 C 0.76547 0.39152 0.38962 0.0
C1449 C 0.78608 0.39234 0.35129 0.0
N1450 N 0.72361 0.40376 0.38999 0.0
N1451 N 0.76643 0.39877 0.35252 0.0
H1452 H 0.8711 0.43508 0.63729 0.0
H1453 H 0.90275 0.54329 0.58147 0.0
H1454 H 0.86981 0.44235 0.56922 0.0
H1455 H 0.88689 0.53771 0.6477 0.0
H1456 H 0.89144 0.50655 0.57601 0.0
H1457 H 0.87798 0.47278 0.64095 0.0
C1458 C 0.87225 0.44465 0.62308 0.0
C1459 C 0.86998 0.43556 0.60291 0.0
C1460 C 0.89029 0.5135 0.59166 0.0
C1461 C 0.87795 0.47887 0.60699 0.0
C1462 C 0.89675 0.53444 0.5948 0.0
C1463 C 0.89597 0.54352 0.61512 0.0
C1464 C 0.88319 0.50162 0.60901 0.0
C1465 C 0.88797 0.53135 0.63179 0.0
C1466 C 0.87608 0.46622 0.62519 0.0
C1467 C 0.87146 0.44876 0.58507 0.0
N1468 N 0.88208 0.51101 0.62839 0.0
N1469 N 0.87554 0.46979 0.58751 0.0
H1470 H 0.6953 0.48829 0.15015 0.0
H1471 H 0.5882 0.43009 0.13275 0.0
H1472 H 0.64176 0.51928 0.12613 0.0
H1473 H 0.64243 0.39794 0.15321 0.0
H1474 H 0.60842 0.4622 0.12715 0.0
H1475 H 0.67711 0.4544 0.1484 0.0
C1476 C 0.67979 0.48796 0.14433 0.0
C1477 C 0.66997 0.50669 0.1385 0.0
C1478 C 0.61594 0.44807 0.13269 0.0
C1479 C 0.64903 0.46798 0.13655 0.0
C1480 C 0.6044 0.42972 0.13589 0.0
C1481 C 0.61359 0.41137 0.14369 0.0
C1482 C 0.63683 0.44814 0.13746 0.0
C1483 C 0.63467 0.41178 0.14732 0.0
C1484 C 0.6694 0.46859 0.14333 0.0
C1485 C 0.64989 0.50527 0.13096 0.0
N1486 N 0.64554 0.42994 0.14438 0.0
N1487 N 0.64004 0.48629 0.13039 0.0
H1488 H 0.61883 0.745 0.93419 0.0
H1489 H 0.54483 0.82466 0.87571 0.0
H1490 H 0.5537 0.73595 0.93122 0.0
H1491 H 0.60663 0.84128 0.89261 0.0
H1492 H 0.54783 0.79216 0.89625 0.0
H1493 H 0.6148 0.78051 0.91955 0.0
C1494 C 0.60366 0.75056 0.93066 0.0
C1495 C 0.58658 0.73743 0.93376 0.0
C1496 C 0.56069 0.80298 0.89562 0.0
C1497 C 0.58191 0.77793 0.91682 0.0
C1498 C 0.55902 0.82151 0.88382 0.0
C1499 C 0.57557 0.83561 0.88232 0.0
C1500 C 0.57913 0.79837 0.9058 0.0
C1501 C 0.59352 0.8308 0.8933 0.0
C1502 C 0.60138 0.77084 0.92233 0.0
C1503 C 0.56729 0.74549 0.92901 0.0
N1504 N 0.5949 0.81245 0.90441 0.0
N1505 N 0.5655 0.76513 0.92055 0.0
H1506 H 0.52697 0.34829 0.15268 0.0
H1507 H 0.46746 0.32181 0.04475 0.0
H1508 H 0.55691 0.33828 0.09266 0.0
H1509 H 0.43813 0.32891 0.10553 0.0
H1510 H 0.50024 0.32947 0.0616 0.0
H1511 H 0.49415 0.34291 0.13525 0.0
C1512 C 0.52665 0.34501 0.13582 0.0
C1513 C 0.54474 0.34366 0.12413 0.0
C1514 C 0.48662 0.3294 0.07124 0.0
C1515 C 0.50716 0.33745 0.10405 0.0
C1516 C 0.46789 0.32504 0.06162 0.0
C1517 C 0.45002 0.32464 0.07376 0.0
C1518 C 0.48749 0.33341 0.09314 0.0
C1519 C 0.45151 0.32898 0.09555 0.0
C1520 C 0.50789 0.34193 0.12587 0.0
C1521 C 0.54336 0.33941 0.10231 0.0
N1522 N 0.46991 0.33314 0.10454 0.0
N1523 N 0.5249 0.33641 0.09298 0.0
H1524 H 0.87825 0.18752 0.3447 0.0
H1525 H 0.83249 0.30065 0.31743 0.0
H1526 H 0.85756 0.20512 0.28218 0.0
H1527 H 0.85206 0.28177 0.37997 0.0
H1528 H 0.83755 0.26442 0.30503 0.0
H1529 H 0.86468 0.22044 0.35867 0.0
C1530 C 0.87067 0.19823 0.33393 0.0
C1531 C 0.86929 0.1937 0.31218 0.0
C1532 C 0.84052 0.26817 0.32152 0.0
C1533 C 0.85384 0.23156 0.32807 0.0
C1534 C 0.83764 0.28885 0.32861 0.0
C1535 C 0.84213 0.29432 0.3497 0.0
C1536 C 0.84803 0.25289 0.3356 0.0
C1537 C 0.84862 0.27834 0.36352 0.0
C1538 C 0.86292 0.21704 0.34193 0.0
C1539 C 0.85911 0.20805 0.29903 0.0
N1540 N 0.85156 0.25842 0.35617 0.0
N1541 N 0.85199 0.22648 0.30714 0.0
H1542 H 0.98142 0.57915 0.63719 0.0
H1543 H 0.08673 0.62056 0.68577 0.0
H1544 H 0.98621 0.61456 0.69563 0.0
H1545 H 0.08123 0.58658 0.62654 0.0
H1546 H 0.05061 0.61397 0.6924 0.0
H1547 H 0.01842 0.57747 0.63567 0.0
C1548 C 0.99024 0.58645 0.6498 0.0
C1549 C 0.98069 0.59726 0.66643 0.0
C1550 C 0.05737 0.60774 0.67808 0.0
C1551 C 0.02314 0.59544 0.66474 0.0
C1552 C 0.07802 0.61143 0.67431 0.0
C1553 C 0.08697 0.60438 0.65542 0.0
C1554 C 0.04559 0.59696 0.66283 0.0
C1555 C 0.07494 0.59253 0.64121 0.0
C1556 C 0.0114 0.58546 0.64893 0.0
C1557 C 0.99293 0.60623 0.68242 0.0
N1558 N 0.05483 0.58941 0.6451 0.0
N1559 N 0.01353 0.6053 0.68107 0.0
H1560 H 0.62113 0.25463 0.61029 0.0
H1561 H 0.64149 0.15911 0.69047 0.0
H1562 H 0.66525 0.25755 0.66108 0.0
H1563 H 0.59216 0.16016 0.64517 0.0
H1564 H 0.65362 0.1931 0.67666 0.0
H1565 H 0.61363 0.21793 0.61964 0.0
C1566 C 0.62936 0.24752 0.62332 0.0
C1567 C 0.64369 0.25926 0.63508 0.0
C1568 C 0.64023 0.1858 0.66965 0.0
C1569 C 0.63512 0.21724 0.64589 0.0
C1570 C 0.63332 0.16638 0.6775 0.0
C1571 C 0.61567 0.1569 0.6691 0.0
C1572 C 0.62944 0.19575 0.65327 0.0
C1573 C 0.60573 0.167 0.65226 0.0
C1574 C 0.62505 0.22656 0.62866 0.0
C1575 C 0.65397 0.24915 0.6517 0.0
N1576 N 0.61269 0.18593 0.64498 0.0
N1577 N 0.64938 0.22875 0.65671 0.0
H1578 H 0.02558 0.40395 0.9481 0.0
H1579 H 0.94595 0.38056 0.85528 0.0
H1580 H 0.04177 0.40165 0.88181 0.0
H1581 H 0.92814 0.39219 0.9201 0.0
H1582 H 0.98102 0.38942 0.86467 0.0
H1583 H 0.9897 0.40139 0.93816 0.0
C1584 C 0.0216 0.40316 0.93144 0.0
C1585 C 0.03673 0.4028 0.91577 0.0
C1586 C 0.96944 0.39016 0.87683 0.0
C1587 C 0.9957 0.39963 0.90431 0.0
C1588 C 0.94941 0.38502 0.8715 0.0
C1589 C 0.9341 0.38548 0.88697 0.0
C1590 C 0.9743 0.39565 0.89784 0.0
C1591 C 0.93947 0.39154 0.90768 0.0
C1592 C 0.0011 0.40167 0.92578 0.0
C1593 C 0.03065 0.40187 0.89444 0.0
N1594 N 0.95916 0.39624 0.91255 0.0
N1595 N 0.01062 0.40008 0.88935 0.0
H1596 H 0.854 0.68305 0.09594 0.0
H1597 H 0.93352 0.77881 0.10965 0.0
H1598 H 0.91769 0.67874 0.08012 0.0
H1599 H 0.87519 0.77666 0.14097 0.0
H1600 H 0.92619 0.74417 0.09402 0.0
H1601 H 0.85978 0.71958 0.10764 0.0
C1602 C 0.86914 0.68985 0.09472 0.0
C1603 C 0.88542 0.6778 0.08718 0.0
C1604 C 0.91498 0.75131 0.10428 0.0
C1605 C 0.8921 0.71949 0.10053 0.0
C1606 C 0.91913 0.77109 0.11318 0.0
C1607 C 0.905 0.78057 0.12676 0.0
C1608 C 0.89649 0.74098 0.10883 0.0
C1609 C 0.88659 0.76985 0.13072 0.0
C1610 C 0.87244 0.71064 0.1015 0.0
C1611 C 0.90473 0.6874 0.08599 0.0
N1612 N 0.88286 0.75061 0.1218 0.0
N1613 N 0.90754 0.70766 0.09264 0.0
H1614 H 0.39598 0.65542 0.31231 0.0
H1615 H 0.49419 0.58295 0.3244 0.0
H1616 H 0.39365 0.59039 0.33322 0.0
H1617 H 0.4961 0.65112 0.32016 0.0
H1618 H 0.45729 0.58378 0.31939 0.0
H1619 H 0.43246 0.65203 0.3063 0.0
C1620 C 0.40304 0.64029 0.31526 0.0
C1621 C 0.39178 0.62327 0.32366 0.0
C1622 C 0.46584 0.59852 0.31934 0.0
C1623 C 0.43358 0.61937 0.31694 0.0
C1624 C 0.48689 0.59808 0.32218 0.0
C1625 C 0.4982 0.61703 0.32299 0.0
C1626 C 0.45606 0.61804 0.31715 0.0
C1627 C 0.48795 0.63615 0.31992 0.0
C1628 C 0.4239 0.63842 0.31193 0.0
C1629 C 0.40177 0.60402 0.327 0.0
N1630 N 0.46744 0.63618 0.31726 0.0
N1631 N 0.42216 0.60266 0.32388 0.0
H1632 H 0.86776 0.62711 0.8136 0.0
H1633 H 0.84739 0.59877 0.69155 0.0
H1634 H 0.81245 0.59821 0.78979 0.0
H1635 H 0.90617 0.61825 0.71575 0.0
H1636 H 0.83308 0.60341 0.72685 0.0
H1637 H 0.88071 0.62896 0.77721 0.0
C1638 C 0.85825 0.62139 0.80072 0.0
C1639 C 0.83908 0.6123 0.80475 0.0
C1640 C 0.84909 0.60678 0.72444 0.0
C1641 C 0.85379 0.61433 0.76321 0.0
C1642 C 0.85729 0.60413 0.70426 0.0
C1643 C 0.87806 0.60792 0.70072 0.0
C1644 C 0.86173 0.61326 0.74126 0.0
C1645 C 0.89009 0.615 0.7178 0.0
C1646 C 0.86569 0.62237 0.77998 0.0
C1647 C 0.82741 0.60514 0.78746 0.0
N1648 N 0.88177 0.61732 0.73738 0.0
N1649 N 0.83499 0.60621 0.76749 0.0
H1650 H 0.66924 0.62311 0.09491 0.0
H1651 H 0.57673 0.63444 0.01342 0.0
H1652 H 0.61131 0.59136 0.10301 0.0
H1653 H 0.63423 0.6675 0.00736 0.0
H1654 H 0.58781 0.62089 0.04787 0.0
H1655 H 0.65543 0.64188 0.06443 0.0
C1656 C 0.65356 0.62018 0.09036 0.0
C1657 C 0.64147 0.60548 0.1014 0.0
C1658 C 0.59791 0.63125 0.03906 0.0
C1659 C 0.62556 0.62686 0.06639 0.0
C1660 C 0.59159 0.63901 0.0194 0.0
C1661 C 0.60465 0.65194 0.00737 0.0
C1662 C 0.61745 0.63643 0.04669 0.0
C1663 C 0.62371 0.65742 0.01597 0.0
C1664 C 0.64567 0.63092 0.07294 0.0
C1665 C 0.62121 0.60246 0.09488 0.0
N1666 N 0.62957 0.64951 0.03499 0.0
N1667 N 0.61394 0.61292 0.07767 0.0
H1668 H 0.58448 0.38298 0.23172 0.0
H1669 H 0.61473 0.34391 0.34788 0.0
H1670 H 0.59339 0.31732 0.24778 0.0
H1671 H 0.6014 0.40879 0.33215 0.0
H1672 H 0.60462 0.33337 0.31201 0.0
H1673 H 0.58819 0.39228 0.26908 0.0
C1674 C 0.58706 0.37048 0.24313 0.0
C1675 C 0.58881 0.34935 0.23658 0.0
C1676 C 0.60375 0.34989 0.31647 0.0
C1677 C 0.59323 0.35992 0.27944 0.0
C1678 C 0.60953 0.35592 0.33696 0.0
C1679 C 0.6091 0.37729 0.34298 0.0
C1680 C 0.59759 0.36537 0.30189 0.0
C1681 C 0.60212 0.39215 0.32818 0.0
C1682 C 0.58917 0.37581 0.26449 0.0
C1683 C 0.59203 0.33382 0.2521 0.0
N1684 N 0.59681 0.38592 0.30829 0.0
N1685 N 0.59433 0.33945 0.27279 0.0
H1686 H 0.9094 0.38254 0.54566 0.0
H1687 H 0.85525 0.30833 0.4591 0.0
H1688 H 0.87257 0.32773 0.56099 0.0
H1689 H 0.88328 0.3687 0.44471 0.0
H1690 H 0.86676 0.31193 0.49579 0.0
H1691 H 0.90567 0.37404 0.508 0.0
C1692 C 0.90086 0.3685 0.54115 0.0
C1693 C 0.89105 0.35599 0.55649 0.0
C1694 C 0.87051 0.32432 0.48457 0.0
C1695 C 0.88656 0.34631 0.51344 0.0
C1696 C 0.86394 0.32229 0.4636 0.0
C1697 C 0.86809 0.33837 0.44885 0.0
C1698 C 0.88136 0.34255 0.49085 0.0
C1699 C 0.87954 0.35602 0.45559 0.0
C1700 C 0.89862 0.36373 0.51963 0.0
C1701 C 0.88019 0.33797 0.54969 0.0
N1702 N 0.88567 0.3577 0.47613 0.0
N1703 N 0.87807 0.33379 0.52867 0.0
H1704 H 0.91921 0.37787 0.77905 0.0
H1705 H 0.85405 0.32145 0.68738 0.0
H1706 H 0.86564 0.33947 0.79046 0.0
H1707 H 0.90385 0.3649 0.67551 0.0
H1708 H 0.86128 0.3237 0.72532 0.0
H1709 H 0.91655 0.36966 0.74125 0.0
C1710 C 0.90693 0.36766 0.77363 0.0
C1711 C 0.89253 0.3595 0.78793 0.0
C1712 C 0.87076 0.33257 0.7144 0.0
C1713 C 0.88944 0.34996 0.74469 0.0
C1714 C 0.86671 0.33121 0.6927 0.0
C1715 C 0.8782 0.34321 0.67824 0.0
C1716 C 0.8864 0.34604 0.7217 0.0
C1717 C 0.89447 0.35552 0.68609 0.0
C1718 C 0.90544 0.36295 0.75205 0.0
C1719 C 0.877 0.34625 0.78 0.0
N1720 N 0.89795 0.35678 0.7073 0.0
N1721 N 0.87583 0.34197 0.75891 0.0
H1722 H 0.88276 0.59067 0.89535 0.0
H1723 H 0.8631 0.59667 0.01938 0.0
H1724 H 0.82326 0.59906 0.92276 0.0
H1725 H 0.91956 0.61959 0.99261 0.0
H1726 H 0.84967 0.59154 0.98368 0.0
H1727 H 0.89794 0.59616 0.93067 0.0
C1728 C 0.87292 0.59373 0.90874 0.0
C1729 C 0.85173 0.59443 0.90614 0.0
C1730 C 0.86501 0.59767 0.98561 0.0
C1731 C 0.86888 0.6003 0.94633 0.0
C1732 C 0.87275 0.60049 0.00599 0.0
C1733 C 0.89248 0.60864 0.00898 0.0
C1734 C 0.87715 0.60272 0.96803 0.0
C1735 C 0.90424 0.61337 0.99098 0.0
C1736 C 0.88158 0.59689 0.92881 0.0
C1737 C 0.83967 0.59848 0.924 0.0
N1738 N 0.89641 0.61025 0.97119 0.0
N1739 N 0.8484 0.60105 0.94334 0.0
H1740 H 0.60038 0.57701 0.29486 0.0
H1741 H 0.64957 0.63563 0.19471 0.0
H1742 H 0.59572 0.64426 0.28415 0.0
H1743 H 0.65838 0.56961 0.20932 0.0
H1744 H 0.63067 0.63955 0.22784 0.0
H1745 H 0.62226 0.57432 0.26383 0.0
C1746 C 0.60397 0.59123 0.28599 0.0
C1747 C 0.59611 0.61087 0.29205 0.0
C1748 C 0.63686 0.62425 0.22384 0.0
C1749 C 0.62121 0.60791 0.25644 0.0
C1750 C 0.64767 0.622 0.20494 0.0
C1751 C 0.65546 0.60223 0.19915 0.0
C1752 C 0.63375 0.60657 0.23698 0.0
C1753 C 0.65258 0.58514 0.21306 0.0
C1754 C 0.61652 0.58969 0.26828 0.0
C1755 C 0.60139 0.62878 0.28 0.0
N1756 N 0.64185 0.58768 0.23124 0.0
N1757 N 0.61354 0.62685 0.2627 0.0
H1758 H 0.58031 0.3491 0.55709 0.0
H1759 H 0.63512 0.36822 0.44547 0.0
H1760 H 0.64216 0.33162 0.54308 0.0
H1761 H 0.57829 0.39745 0.46231 0.0
H1762 H 0.63509 0.3498 0.47934 0.0
H1763 H 0.57673 0.36225 0.5207 0.0
C1764 C 0.59306 0.34785 0.54632 0.0
C1765 C 0.61162 0.33942 0.55316 0.0
C1766 C 0.62255 0.36015 0.47561 0.0
C1767 C 0.6076 0.35433 0.51165 0.0
C1768 C 0.62253 0.37067 0.45623 0.0
C1769 C 0.6068 0.38464 0.45114 0.0
C1770 C 0.60674 0.36357 0.49009 0.0
C1771 C 0.5908 0.38697 0.46566 0.0
C1772 C 0.59102 0.35541 0.52561 0.0
C1773 C 0.62763 0.33818 0.53856 0.0
N1774 N 0.59125 0.37666 0.48459 0.0
N1775 N 0.62526 0.34561 0.51855 0.0
H1776 H 0.76017 0.90878 0.63853 0.0
H1777 H 0.83967 0.81802 0.61201 0.0
H1778 H 0.74813 0.84211 0.64769 0.0
H1779 H 0.85341 0.88468 0.60583 0.0
H1780 H 0.80722 0.82682 0.62824 0.0
H1781 H 0.7954 0.9006 0.6297 0.0
C1782 C 0.76497 0.89244 0.63888 0.0
C1783 C 0.75111 0.87607 0.64362 0.0
C1784 C 0.81738 0.83954 0.62351 0.0
C1785 C 0.79138 0.86661 0.63342 0.0
C1786 C 0.83593 0.83453 0.61421 0.0
C1787 C 0.84919 0.85065 0.60734 0.0
C1788 C 0.81192 0.86085 0.62582 0.0
C1789 C 0.8436 0.87175 0.61078 0.0
C1790 C 0.7851 0.88778 0.63383 0.0
C1791 C 0.75823 0.85522 0.64396 0.0
N1792 N 0.82528 0.87624 0.61959 0.0
N1793 N 0.77781 0.85108 0.63873 0.0
H1794 H 0.18222 0.612 0.39043 0.0
H1795 H 0.27835 0.64086 0.32125 0.0
H1796 H 0.1765 0.62662 0.32384 0.0
H1797 H 0.28173 0.6003 0.37619 0.0
H1798 H 0.24119 0.63732 0.32192 0.0
H1799 H 0.21903 0.60958 0.38606 0.0
C1800 C 0.18873 0.61466 0.37487 0.0
C1801 C 0.17634 0.6196 0.35748 0.0
C1802 C 0.25013 0.62897 0.33362 0.0
C1803 C 0.21842 0.61701 0.35242 0.0
C1804 C 0.2713 0.63099 0.33327 0.0
C1805 C 0.28314 0.62098 0.34879 0.0
C1806 C 0.24078 0.61722 0.34984 0.0
C1807 C 0.27322 0.60834 0.36395 0.0
C1808 C 0.20971 0.61314 0.37236 0.0
C1809 C 0.18554 0.62274 0.33764 0.0
N1810 N 0.2526 0.60709 0.36429 0.0
N1811 N 0.20611 0.62165 0.33568 0.0
H1812 H 0.63033 0.06464 0.63722 0.0
H1813 H 0.66931 0.96303 0.7004 0.0
H1814 H 0.61092 0.04831 0.70057 0.0
H1815 H 0.6771 0.97126 0.6329 0.0
H1816 H 0.65198 -0.00302 0.70194 0.0
H1817 H 0.6513 0.03289 0.63652 0.0
C1818 C 0.63051 0.05442 0.65099 0.0
C1819 C 0.61876 0.05906 0.66893 0.0
C1820 C 0.65758 0.9914 0.68682 0.0
C1821 C 0.64281 0.02285 0.66828 0.0
C1822 C 0.66757 0.97206 0.68593 0.0
C1823 C 0.67455 0.96422 0.66646 0.0
C1824 C 0.65464 0.00305 0.66812 0.0
C1825 C 0.67186 0.97664 0.64823 0.0
C1826 C 0.64247 0.0363 0.65057 0.0
C1827 C 0.61962 0.04527 0.68634 0.0
N1828 N 0.66204 0.99542 0.6495 0.0
N1829 N 0.63143 0.0278 0.68558 0.0
H1830 H 0.1639 0.44555 0.92262 0.0
H1831 H 0.24086 0.4172 0.82889 0.0
H1832 H 0.14655 0.41005 0.86677 0.0
H1833 H 0.25938 0.44238 0.8897 0.0
H1834 H 0.20528 0.42026 0.83971 0.0
H1835 H 0.19782 0.45069 0.90767 0.0
C1836 C 0.1671 0.43911 0.90707 0.0
C1837 C 0.15243 0.4271 0.89607 0.0
C1838 C 0.21715 0.42526 0.8506 0.0
C1839 C 0.1913 0.43277 0.87895 0.0
C1840 C 0.23746 0.42354 0.84444 0.0
C1841 C 0.25313 0.4293 0.85852 0.0
C1842 C 0.21249 0.4329 0.87094 0.0
C1843 C 0.24781 0.43751 0.87842 0.0
C1844 C 0.18652 0.44197 0.89858 0.0
C1845 C 0.15745 0.41924 0.87592 0.0
N1846 N 0.22796 0.43895 0.88408 0.0
N1847 N 0.17653 0.42202 0.8681 0.0
H1848 H 0.43514 0.42102 0.62542 0.0
H1849 H 0.35453 0.49985 0.57576 0.0
H1850 H 0.37543 0.4007 0.6047 0.0
H1851 H 0.41757 0.51631 0.5868 0.0
H1852 H 0.36216 0.463 0.58412 0.0
H1853 H 0.42932 0.45553 0.60953 0.0
C1854 C 0.42081 0.42379 0.61742 0.0
C1855 C 0.40565 0.40803 0.61656 0.0
C1856 C 0.37436 0.47464 0.58447 0.0
C1857 C 0.39884 0.44764 0.59838 0.0
C1858 C 0.37002 0.49568 0.57969 0.0
C1859 C 0.3854 0.51124 0.58083 0.0
C1860 C 0.39417 0.46917 0.59059 0.0
C1861 C 0.40521 0.5049 0.58588 0.0
C1862 C 0.41753 0.44351 0.60827 0.0
C1863 C 0.38749 0.41245 0.60579 0.0
N1864 N 0.40897 0.48441 0.59081 0.0
N1865 N 0.38448 0.43195 0.59731 0.0
H1866 H 0.82319 0.09244 0.16639 0.0
H1867 H 0.70497 0.08092 0.13832 0.0
H1868 H 0.799 0.0537 0.11566 0.0
H1869 H 0.72958 0.13187 0.17655 0.0
H1870 H 0.73873 0.06554 0.13635 0.0
H1871 H 0.7884 0.10192 0.17627 0.0
C1872 C 0.81057 0.0857 0.15753 0.0
C1873 C 0.81397 0.07245 0.14003 0.0
C1874 C 0.73672 0.07997 0.14535 0.0
C1875 C 0.77429 0.08314 0.15128 0.0
C1876 C 0.71742 0.08876 0.14654 0.0
C1877 C 0.71449 0.10793 0.15733 0.0
C1878 C 0.75326 0.09038 0.15502 0.0
C1879 C 0.73118 0.1172 0.16786 0.0
C1880 C 0.79075 0.09118 0.16313 0.0
C1881 C 0.79707 0.06418 0.1291 0.0
N1882 N 0.74994 0.10845 0.16626 0.0
N1883 N 0.77798 0.06973 0.13484 0.0
H1884 H 0.58966 0.03593 0.92451 0.0
H1885 H 0.59814 0.93381 0.85103 0.0
H1886 H 0.64072 0.02342 0.88355 0.0
H1887 H 0.55343 0.93909 0.90077 0.0
H1888 H 0.61389 0.96672 0.86311 0.0
H1889 H 0.57618 0.0005 0.91672 0.0
C1890 C 0.59813 0.02569 0.91404 0.0
C1891 C 0.61625 0.03272 0.90452 0.0
C1892 C 0.60071 0.96065 0.8715 0.0
C1893 C 0.60086 0.99232 0.89544 0.0
C1894 C 0.59165 0.94188 0.86455 0.0
C1895 C 0.57437 0.93377 0.87483 0.0
C1896 C 0.59232 0.97158 0.88874 0.0
C1897 C 0.56673 0.94482 0.89237 0.0
C1898 C 0.59043 0.00547 0.90961 0.0
C1899 C 0.62663 0.01874 0.89115 0.0
N1900 N 0.57567 0.96329 0.89868 0.0
N1901 N 0.61869 -0.00069 0.88687 0.0
H1902 H 0.90335 0.07337 0.31013 0.0
H1903 H 0.81946 -0.00364 0.3613 0.0
H1904 H 0.84904 0.09581 0.34088 0.0
H1905 H 0.87618 0.97492 0.33486 0.0
H1906 H 0.82943 0.03281 0.35311 0.0
H1907 H 0.893 0.03712 0.31816 0.0
C1908 C 0.88922 0.07068 0.31856 0.0
C1909 C 0.87704 0.08768 0.32486 0.0
C1910 C 0.83969 0.02013 0.34912 0.0
C1911 C 0.86509 0.04611 0.33412 0.0
C1912 C 0.83401 -0.0007 0.35377 0.0
C1913 C 0.84702 0.98255 0.34877 0.0
C1914 C 0.85849 0.02423 0.33933 0.0
C1915 C 0.86568 0.98732 0.33904 0.0
C1916 C 0.88333 0.04995 0.32317 0.0
C1917 C 0.8589 0.0832 0.33574 0.0
N1918 N 0.87084 0.0077 0.33462 0.0
N1919 N 0.85347 0.06284 0.34003 0.0
H1920 H 0.36631 0.24427 0.07961 0.0
H1921 H 0.43438 0.14174 0.09237 0.0
H1922 H 0.42265 0.23507 0.04593 0.0
H1923 H 0.37413 0.1472 0.1188 0.0
H1924 H 0.42919 0.17464 0.07295 0.0
H1925 H 0.36758 0.20765 0.09177 0.0
C1926 C 0.37885 0.23448 0.07458 0.0
C1927 C 0.39453 0.24282 0.06193 0.0
C1928 C 0.41701 0.16854 0.08281 0.0
C1929 C 0.39616 0.20092 0.07596 0.0
C1930 C 0.41998 0.14975 0.09393 0.0
C1931 C 0.40475 0.14183 0.10742 0.0
C1932 C 0.39876 0.17961 0.08534 0.0
C1933 C 0.38634 0.15279 0.10869 0.0
C1934 C 0.37955 0.21356 0.08152 0.0
C1935 C 0.4103 0.22935 0.05578 0.0
N1936 N 0.38395 0.17126 0.09799 0.0
N1937 N 0.41084 0.20914 0.06307 0.0
H1938 H 0.54823 0.64678 0.92575 0.0
H1939 H 0.49746 0.63235 0.81094 0.0
H1940 H 0.57965 0.65899 0.86689 0.0
H1941 H 0.46394 0.62735 0.86958 0.0
H1942 H 0.52862 0.63843 0.83132 0.0
H1943 H 0.51807 0.63589 0.90553 0.0
C1944 C 0.54884 0.64702 0.90859 0.0
C1945 C 0.56644 0.65394 0.89799 0.0
C1946 C 0.51446 0.63592 0.83973 0.0
C1947 C 0.53202 0.64155 0.87478 0.0
C1948 C 0.49666 0.63241 0.8281 0.0
C1949 C 0.47803 0.62949 0.83857 0.0
C1950 C 0.51365 0.63647 0.86199 0.0
C1951 C 0.47794 0.62966 0.86084 0.0
C1952 C 0.53161 0.64086 0.89705 0.0
C1953 C 0.56637 0.65392 0.87573 0.0
N1954 N 0.49546 0.63319 0.87181 0.0
N1955 N 0.54942 0.64791 0.86487 0.0
H1956 H 0.17403 0.70029 0.61106 0.0
H1957 H 0.11516 0.77937 0.6879 0.0
H1958 H 0.13199 0.68023 0.65976 0.0
H1959 H 0.15484 0.80025 0.63742 0.0
H1960 H 0.12463 0.74291 0.68061 0.0
H1961 H 0.17065 0.73681 0.62327 0.0
C1962 C 0.16425 0.70352 0.62445 0.0
C1963 C 0.15309 0.68721 0.63425 0.0
C1964 C 0.1314 0.75546 0.67122 0.0
C1965 C 0.1491 0.72895 0.64824 0.0
C1966 C 0.126 0.77631 0.67538 0.0
C1967 C 0.13404 0.79289 0.66309 0.0
C1968 C 0.14488 0.75108 0.65457 0.0
C1969 C 0.14815 0.78796 0.64719 0.0
C1970 C 0.1623 0.72439 0.63139 0.0
C1971 C 0.14073 0.69232 0.65159 0.0
N1972 N 0.15299 0.76747 0.64326 0.0
N1973 N 0.13895 0.71275 0.65792 0.0
H1974 H 0.99274 0.44543 0.33899 0.0
H1975 H 0.90075 0.36177 0.3392 0.0
H1976 H -0.00138 0.37959 0.32195 0.0
H1977 H 0.89891 0.42181 0.37189 0.0
H1978 H 0.93424 0.37122 0.32534 0.0
H1979 H 0.95616 0.4398 0.34384 0.0
C1980 C 0.98631 0.42986 0.33599 0.0
C1981 C -0.00121 0.41288 0.33031 0.0
C1982 C 0.92641 0.38242 0.33536 0.0
C1983 C 0.95701 0.4064 0.33579 0.0
C1984 C 0.90724 0.37708 0.34324 0.0
C1985 C 0.89713 0.39089 0.35703 0.0
C1986 C 0.93553 0.40172 0.34123 0.0
C1987 C 0.90625 0.41058 0.36152 0.0
C1988 C 0.96545 0.42667 0.33882 0.0
C1989 C 0.98962 0.39307 0.32658 0.0
N1990 N 0.92505 0.41533 0.35381 0.0
N1991 N 0.9693 0.39035 0.32951 0.0
H1992 H 0.32783 0.828 0.30878 0.0
H1993 H 0.35174 0.71942 0.36809 0.0
H1994 H 0.37368 0.82112 0.35734 0.0
H1995 H 0.30789 0.72486 0.31736 0.0
H1996 H 0.35648 0.75772 0.36767 0.0
H1997 H 0.31675 0.79151 0.31517 0.0
C1998 C 0.33538 0.81893 0.321 0.0
C1999 C 0.35189 0.82754 0.33235 0.0
C2000 C 0.3457 0.75058 0.35672 0.0
C2001 C 0.33938 0.78576 0.33962 0.0
C2002 C 0.34299 0.72868 0.35694 0.0
C2003 C 0.32958 0.71888 0.34254 0.0
C2004 C 0.335 0.76282 0.34194 0.0
C2005 C 0.31851 0.73173 0.32862 0.0
C2006 C 0.32908 0.79808 0.32459 0.0
C2007 C 0.36104 0.81507 0.34804 0.0
N2008 N 0.32161 0.75303 0.32852 0.0
N2009 N 0.35479 0.79476 0.35106 0.0
H2010 H 0.06625 0.59128 0.09357 0.0
H2011 H 0.94745 0.59659 0.11889 0.0
H2012 H 0.04156 0.6117 0.15352 0.0
H2013 H 0.97159 0.5798 0.05757 0.0
H2014 H 0.98188 0.59699 0.13329 0.0
H2015 H 0.0319 0.58215 0.0816 0.0
C2016 C 0.05364 0.59368 0.1043 0.0
C2017 C 0.05677 0.60251 0.1245 0.0
C2018 C 0.97966 0.593 0.11673 0.0
C2019 C 0.0174 0.59211 0.11087 0.0
C2020 C 0.95997 0.59272 0.10849 0.0
C2021 C 0.95663 0.58844 0.0869 0.0
C2022 C 0.99619 0.58906 0.10329 0.0
C2023 C 0.97345 0.58336 0.07426 0.0
C2024 C 0.03402 0.58846 0.09744 0.0
C2025 C 0.03985 0.60513 0.13775 0.0
N2026 N 0.99254 0.58406 0.08259 0.0
N2027 N 0.02089 0.60011 0.13063 0.0
H2028 H 0.08577 0.3238 0.89984 0.0
H2029 H 0.14386 0.23129 0.83856 0.0
H2030 H 0.14726 0.33033 0.8766 0.0
H2031 H 0.08091 0.22778 0.85778 0.0
H2032 H 0.14619 0.2669 0.85381 0.0
H2033 H 0.08457 0.28774 0.88613 0.0
C2034 C 0.09906 0.31763 0.89191 0.0
C2035 C 0.11662 0.33014 0.8893 0.0
C2036 C 0.13188 0.2583 0.85468 0.0
C2037 C 0.11532 0.2888 0.87348 0.0
C2038 C 0.13055 0.23798 0.84598 0.0
C2039 C 0.11215 0.22655 0.84684 0.0
C2040 C 0.11472 0.26719 0.86434 0.0
C2041 C 0.09539 0.236 0.85668 0.0
C2042 C 0.09835 0.29702 0.88405 0.0
C2043 C 0.13339 0.32126 0.87892 0.0
N2044 N 0.09709 0.25574 0.86502 0.0
N2045 N 0.13231 0.30114 0.87134 0.0
H2046 H 0.59191 0.33231 0.65999 0.0
H2047 H 0.4968 0.40978 0.65558 0.0
H2048 H 0.59257 0.39201 0.62674 0.0
H2049 H 0.49354 0.34424 0.67466 0.0
H2050 H 0.53378 0.40681 0.65248 0.0
H2051 H 0.55803 0.34017 0.67328 0.0
C2052 C 0.58507 0.34723 0.65573 0.0
C2053 C 0.59495 0.36136 0.64189 0.0
C2054 C 0.52496 0.39318 0.65759 0.0
C2055 C 0.55606 0.37036 0.65698 0.0
C2056 C 0.50388 0.39486 0.65942 0.0
C2057 C 0.49205 0.37713 0.6651 0.0
C2058 C 0.53426 0.37369 0.66163 0.0
C2059 C 0.50204 0.35823 0.66995 0.0
C2060 C 0.56568 0.35167 0.66328 0.0
C2061 C 0.58542 0.38056 0.63716 0.0
N2062 N 0.52254 0.35697 0.66795 0.0
N2063 N 0.56636 0.38439 0.64447 0.0
H2064 H 0.13212 0.4218 0.29359 0.0
H2065 H 0.13005 0.38098 0.17337 0.0
H2066 H 0.08225 0.38543 0.26705 0.0
H2067 H 0.17964 0.41674 0.2013 0.0
H2068 H 0.11286 0.38085 0.20778 0.0
H2069 H 0.15021 0.41868 0.2601 0.0
C2070 C 0.12497 0.41312 0.28072 0.0
C2071 C 0.10559 0.40394 0.28312 0.0
C2072 C 0.12755 0.38862 0.20638 0.0
C2073 C 0.12629 0.40031 0.24458 0.0
C2074 C 0.13739 0.38867 0.18675 0.0
C2075 C 0.15628 0.39897 0.18441 0.0
C2076 C 0.13666 0.39896 0.22376 0.0
C2077 C 0.16506 0.40867 0.2023 0.0
C2078 C 0.13534 0.41132 0.26157 0.0
C2079 C 0.09714 0.39281 0.26588 0.0
N2080 N 0.15515 0.40849 0.22116 0.0
N2081 N 0.10752 0.39137 0.2473 0.0
H2082 H 0.3754 0.4248 0.92423 0.0
H2083 H 0.36685 0.32109 0.99645 0.0
H2084 H 0.33269 0.37391 0.91175 0.0
H2085 H 0.39788 0.3785 0.0158 0.0
H2086 H 0.35787 0.33807 0.96287 0.0
H2087 H 0.38737 0.40585 0.95546 0.0
C2088 C 0.36858 0.4096 0.928 0.0
C2089 C 0.35292 0.40099 0.91543 0.0
C2090 C 0.36672 0.34689 0.97445 0.0
C2091 C 0.36662 0.37918 0.95117 0.0
C2092 C 0.37192 0.33719 0.99357 0.0
C2093 C 0.38302 0.34846 0.009 0.0
C2094 C 0.37281 0.36791 0.97069 0.0
C2095 C 0.38918 0.36927 0.00443 0.0
C2096 C 0.37541 0.3988 0.94587 0.0
C2097 C 0.34471 0.38119 0.92108 0.0
N2098 N 0.38396 0.37834 0.98571 0.0
N2099 N 0.35164 0.37096 0.93857 0.0
H2100 H 0.38246 0.64274 0.62177 0.0
H2101 H 0.43918 0.60072 0.72515 0.0
H2102 H 0.4011 0.57806 0.63086 0.0
H2103 H 0.4226 0.66602 0.71608 0.0
H2104 H 0.42944 0.59329 0.68854 0.0
H2105 H 0.40087 0.65268 0.65412 0.0
C2106 C 0.3906 0.63068 0.63042 0.0
C2107 C 0.39 0.60949 0.62376 0.0
C2108 C 0.42814 0.60931 0.69445 0.0
C2109 C 0.41101 0.62072 0.66078 0.0
C2110 C 0.43374 0.61357 0.71538 0.0
C2111 C 0.43143 0.63396 0.7238 0.0
C2112 C 0.41998 0.6255 0.68188 0.0
C2113 C 0.42447 0.65002 0.71031 0.0
C2114 C 0.4011 0.63636 0.64889 0.0
C2115 C 0.40092 0.59455 0.63553 0.0
N2116 N 0.41873 0.64539 0.6901 0.0
N2117 N 0.4108 0.60042 0.65355 0.0
H2118 H 0.14413 0.64059 0.55079 0.0
H2119 H 0.06759 0.63055 0.45334 0.0
H2120 H 0.07933 0.6325 0.55891 0.0
H2121 H 0.12955 0.65312 0.44755 0.0
H2122 H 0.071 0.63203 0.49198 0.0
H2123 H 0.13878 0.64557 0.51284 0.0
C2124 C 0.12876 0.63991 0.54459 0.0
C2125 C 0.11216 0.63598 0.55802 0.0
C2126 C 0.08375 0.6369 0.48222 0.0
C2127 C 0.10592 0.64162 0.51451 0.0
C2128 C 0.08181 0.63609 0.46016 0.0
C2129 C 0.09837 0.64151 0.44717 0.0
C2130 C 0.10245 0.64297 0.49132 0.0
C2131 C 0.11641 0.64864 0.45691 0.0
C2132 C 0.1257 0.64286 0.52292 0.0
C2133 C 0.09257 0.63544 0.54912 0.0
N2134 N 0.11804 0.64891 0.47837 0.0
N2135 N 0.08999 0.63803 0.52788 0.0
H2136 H 0.12385 0.66425 0.21657 0.0
H2137 H 0.07693 0.65178 0.33149 0.0
H2138 H 0.06109 0.64684 0.22758 0.0
H2139 H 0.13574 0.6803 0.31955 0.0
H2140 H 0.06936 0.65357 0.2936 0.0
H2141 H 0.12735 0.67345 0.254 0.0
C2142 C 0.11074 0.66252 0.22684 0.0
C2143 C 0.09222 0.65448 0.21899 0.0
C2144 C 0.08378 0.65978 0.2993 0.0
C2145 C 0.09615 0.6649 0.26195 0.0
C2146 C 0.0881 0.65881 0.32095 0.0
C2147 C 0.10712 0.6656 0.32866 0.0
C2148 C 0.09869 0.66735 0.28522 0.0
C2149 C 0.12094 0.67471 0.3143 0.0
C2150 C 0.11273 0.66786 0.24821 0.0
C2151 C 0.0757 0.65281 0.23298 0.0
N2152 N 0.11659 0.67497 0.29322 0.0
N2153 N 0.07814 0.65769 0.25385 0.0
H2154 H 0.1329 0.43241 0.08123 0.0
H2155 H 0.14767 0.3608 0.97782 0.0
H2156 H 0.17725 0.38273 0.0763 0.0
H2157 H 0.10307 0.41025 0.98254 0.0
H2158 H 0.157 0.36695 0.01481 0.0
H2159 H 0.11994 0.42275 0.04615 0.0
C2160 C 0.13981 0.41936 0.07286 0.0
C2161 C 0.1563 0.40848 0.08165 0.0
C2162 C 0.14509 0.37639 0.0078 0.0
C2163 C 0.14161 0.39741 0.04144 0.0
C2164 C 0.13976 0.3729 0.98666 0.0
C2165 C 0.12466 0.38513 0.97701 0.0
C2166 C 0.1353 0.39229 0.01941 0.0
C2167 C 0.11487 0.40051 0.98929 0.0
C2168 C 0.13242 0.41387 0.05281 0.0
C2169 C 0.1646 0.39165 0.0701 0.0
N2170 N 0.12044 0.40373 0.00982 0.0
N2171 N 0.15725 0.38673 0.05054 0.0
H2172 H 0.31931 0.40023 0.79477 0.0
H2173 H 0.41279 0.35677 0.72687 0.0
H2174 H 0.37609 0.37972 0.82199 0.0
H2175 H 0.35937 0.38466 0.69895 0.0
H2176 H 0.39761 0.36085 0.7619 0.0
H2177 H 0.33174 0.39019 0.75966 0.0
C2178 C 0.33429 0.39339 0.79341 0.0
C2179 C 0.34676 0.39099 0.81132 0.0
C2180 C 0.38916 0.36599 0.74811 0.0
C2181 C 0.36109 0.37958 0.77122 0.0
C2182 C 0.39782 0.36366 0.72808 0.0
C2183 C 0.38741 0.37056 0.70994 0.0
C2184 C 0.36994 0.37529 0.75006 0.0
C2185 C 0.36801 0.37926 0.7125 0.0
C2186 C 0.3414 0.38774 0.77335 0.0
C2187 C 0.36602 0.38203 0.80861 0.0
N2188 N 0.35994 0.38147 0.7322 0.0
N2189 N 0.37263 0.37677 0.78893 0.0
H2190 H 0.36476 0.61475 0.40367 0.0
H2191 H 0.34719 0.61708 0.52919 0.0
H2192 H 0.32853 0.6616 0.4356 0.0
H2193 H 0.37974 0.56766 0.49678 0.0
H2194 H 0.3425 0.63512 0.49537 0.0
H2195 H 0.37251 0.59875 0.43791 0.0
C2196 C 0.35847 0.62172 0.41789 0.0
C2197 C 0.34589 0.6395 0.41675 0.0
C2198 C 0.35074 0.62038 0.49566 0.0
C2199 C 0.35473 0.62123 0.45604 0.0
C2200 C 0.35347 0.61007 0.51498 0.0
C2201 C 0.36377 0.59074 0.51581 0.0
C2202 C 0.35838 0.61133 0.47699 0.0
C2203 C 0.37162 0.58247 0.49689 0.0
C2204 C 0.36291 0.61256 0.43745 0.0
C2205 C 0.33823 0.64787 0.43572 0.0
N2206 N 0.36868 0.59277 0.47824 0.0
N2207 N 0.34273 0.63862 0.45457 0.0
H2208 H 0.17154 0.1943 0.3888 0.0
H2209 H 0.24362 0.1036 0.3449 0.0
H2210 H 0.14927 0.13293 0.36878 0.0
H2211 H 0.26386 0.16785 0.35621 0.0
H2212 H 0.20871 0.11435 0.35207 0.0
H2213 H 0.20518 0.18531 0.37549 0.0
C2214 C 0.17369 0.17898 0.38147 0.0
C2215 C 0.1576 0.16427 0.38005 0.0
C2216 C 0.22076 0.12614 0.3528 0.0
C2217 C 0.19615 0.15382 0.36489 0.0
C2218 C 0.24071 0.12001 0.34873 0.0
C2219 C 0.25671 0.13482 0.35014 0.0
C2220 C 0.21681 0.14719 0.35848 0.0
C2221 C 0.25202 0.15587 0.35505 0.0
C2222 C 0.19291 0.17386 0.37384 0.0
C2223 C 0.16125 0.14472 0.37027 0.0
N2224 N 0.23253 0.16139 0.35923 0.0
N2225 N 0.18019 0.13998 0.36324 0.0
H2226 H 0.80383 0.34509 0.60819 0.0
H2227 H 0.69545 0.37074 0.65939 0.0
H2228 H 0.79619 0.39071 0.65853 0.0
H2229 H 0.70486 0.32728 0.60749 0.0
H2230 H 0.73219 0.37788 0.66033 0.0
H2231 H 0.76744 0.33791 0.60874 0.0
C2232 C 0.79449 0.35361 0.6194 0.0
C2233 C 0.80308 0.36857 0.6333 0.0
C2234 C 0.72616 0.36678 0.64877 0.0
C2235 C 0.76122 0.3604 0.63402 0.0
C2236 C 0.70521 0.3627 0.64823 0.0
C2237 C 0.69706 0.34843 0.63331 0.0
C2238 C 0.73896 0.35648 0.63432 0.0
C2239 C 0.71041 0.33845 0.61924 0.0
C2240 C 0.77367 0.3495 0.6197 0.0
C2241 C 0.79019 0.37907 0.6475 0.0
N2242 N 0.73064 0.34267 0.6201 0.0
N2243 N 0.76986 0.3748 0.64748 0.0
H2244 H 0.35579 0.93482 0.37386 0.0
H2245 H 0.31249 0.0284 0.30174 0.0
H2246 H 0.35707 0.93465 0.30539 0.0
H2247 H 0.32262 0.03433 0.36919 0.0
H2248 H 0.32396 0.99182 0.30345 0.0
H2249 H 0.339 0.9692 0.37297 0.0
C2250 C 0.35242 0.94193 0.35864 0.0
C2251 C 0.35799 0.93193 0.33967 0.0
C2252 C 0.32356 0.00109 0.3179 0.0
C2253 C 0.33876 0.97118 0.33855 0.0
C2254 C 0.31694 0.02196 0.31695 0.0
C2255 C 0.31676 0.03452 0.33532 0.0
C2256 C 0.32998 0.99265 0.33736 0.0
C2257 C 0.32265 0.02528 0.3546 0.0
C2258 C 0.34288 0.96157 0.35815 0.0
C2259 C 0.35321 0.94186 0.32041 0.0
N2260 N 0.32912 0.00493 0.3551 0.0
N2261 N 0.34393 0.96095 0.32035 0.0
H2262 H 0.84938 0.62437 0.14725 0.0
H2263 H 0.74496 0.56158 0.12626 0.0
H2264 H 0.84083 0.57742 0.09815 0.0
H2265 H 0.75118 0.61225 0.1719 0.0
H2266 H 0.78127 0.5643 0.11891 0.0
H2267 H 0.81476 0.61714 0.15969 0.0
C2268 C 0.84033 0.61236 0.13925 0.0
C2269 C 0.84795 0.60162 0.1215 0.0
C2270 C 0.77474 0.57476 0.13062 0.0
C2271 C 0.80833 0.59337 0.13557 0.0
C2272 C 0.75397 0.57322 0.13483 0.0
C2273 C 0.74495 0.58686 0.14957 0.0
C2274 C 0.78663 0.59008 0.14117 0.0
C2275 C 0.75746 0.60151 0.1603 0.0
C2276 C 0.82055 0.6083 0.14631 0.0
C2277 C 0.83554 0.58622 0.11177 0.0
N2278 N 0.77765 0.60283 0.15578 0.0
N2279 N 0.81632 0.58267 0.11884 0.0
H2280 H 0.61299 0.58684 0.38861 0.0
H2281 H 0.56779 0.46918 0.38799 0.0
H2282 H 0.55059 0.57111 0.37331 0.0
H2283 H 0.62982 0.48462 0.40509 0.0
H2284 H 0.56025 0.50687 0.38654 0.0
H2285 H 0.61845 0.55005 0.3989 0.0
C2286 C 0.60036 0.57573 0.38768 0.0
C2287 C 0.58137 0.58201 0.37983 0.0
C2288 C 0.57548 0.50203 0.3908 0.0
C2289 C 0.58756 0.53986 0.3914 0.0
C2290 C 0.5798 0.48049 0.39161 0.0
C2291 C 0.59953 0.47373 0.39641 0.0
C2292 C 0.59103 0.51695 0.39469 0.0
C2293 C 0.61443 0.48911 0.40114 0.0
C2294 C 0.6035 0.55471 0.39352 0.0
C2295 C 0.56554 0.56695 0.37907 0.0
N2296 N 0.60992 0.51001 0.39995 0.0
N2297 N 0.56906 0.54654 0.38455 0.0
H2298 H 0.18261 0.87513 0.86291 0.0
H2299 H 0.29864 0.9012 0.83479 0.0
H2300 H 0.20633 0.93854 0.85454 0.0
H2301 H 0.27572 0.83881 0.85014 0.0
H2302 H 0.26389 0.91455 0.83609 0.0
H2303 H 0.21559 0.86111 0.85274 0.0
C2304 C 0.19472 0.88612 0.85882 0.0
C2305 C 0.19178 0.90805 0.85985 0.0
C2306 C 0.26646 0.89789 0.83893 0.0
C2307 C 0.22962 0.89209 0.84817 0.0
C2308 C 0.28629 0.89024 0.83811 0.0
C2309 C 0.29011 0.86892 0.84266 0.0
C2310 C 0.25039 0.8841 0.84431 0.0
C2311 C 0.2735 0.85543 0.84679 0.0
C2312 C 0.21356 0.87809 0.85299 0.0
C2313 C 0.20798 0.92152 0.85416 0.0
N2314 N 0.2544 0.86329 0.84771 0.0
N2315 N 0.22627 0.91332 0.84873 0.0
H2316 H 0.3706 0.92691 0.16516 0.0
H2317 H 0.40924 0.03484 0.11207 0.0
H2318 H 0.37068 0.93736 0.09749 0.0
H2319 H 0.41882 0.01891 0.1779 0.0
H2320 H 0.39399 -0.00021 0.10636 0.0
H2321 H 0.38699 0.96135 0.17018 0.0
C2322 C 0.37403 0.93647 0.15135 0.0
C2323 C 0.36923 0.92927 0.13087 0.0
C2324 C 0.39952 0.00396 0.12203 0.0
C2325 C 0.38801 0.96875 0.13651 0.0
C2326 C 0.40821 0.02395 0.1253 0.0
C2327 C 0.41528 0.02982 0.14551 0.0
C2328 C 0.39776 0.98983 0.13912 0.0
C2329 C 0.41358 0.01508 0.16206 0.0
C2330 C 0.38346 0.95611 0.15422 0.0
C2331 C 0.37412 0.9423 0.11356 0.0
N2332 N 0.40491 0.99582 0.15852 0.0
N2333 N 0.3832 0.96146 0.11677 0.0
H2334 H 0.1111 0.90116 0.61498 0.0
H2335 H 0.1809 0.996 0.65888 0.0
H2336 H 0.14273 0.89968 0.67504 0.0
H2337 H 0.14223 0.00101 0.6037 0.0
H2338 H 0.17108 0.95879 0.66215 0.0
H2339 H 0.12651 0.93574 0.60774 0.0
C2340 C 0.12145 0.90799 0.62655 0.0
C2341 C 0.12545 0.89761 0.64576 0.0
C2342 C 0.16484 0.96799 0.64925 0.0
C2343 C 0.14307 0.93721 0.63759 0.0
C2344 C 0.17045 0.98925 0.64735 0.0
C2345 C 0.1622 0.0017 0.63112 0.0
C2346 C 0.15089 0.9591 0.6348 0.0
C2347 C 0.14883 0.99205 0.61657 0.0
C2348 C 0.1302 0.92776 0.62243 0.0
C2349 C 0.13906 0.90719 0.66012 0.0
N2350 N 0.14349 0.97135 0.61883 0.0
N2351 N 0.14727 0.92651 0.6558 0.0
loop_
_geom_bond_atom_site_label_1
_geom_bond_atom_site_label_2
_geom_bond_distance
_geom_bond_site_symmetry_2
_ccdc_geom_bond_type
C0 O1 1.160 . S
C0 O7 1.185 . S
O1 C0 1.160 . S
O2 Zn3 1.899 . S
O2 C10 1.284 . S
Zn3 O2 1.899 . S
Zn3 O4 2.032 . S
Zn3 O7 2.086 . S
Zn3 O12 1.977 . S
O4 Zn3 2.032 . S
O4 C8 1.278 . S
C5 O6 1.203 . S
C5 O12 1.267 . S
O6 C5 1.203 . S
O7 C0 1.185 . S
O7 Zn3 2.086 . S
C8 O4 1.278 . S
C8 O9 1.211 . S
O9 C8 1.211 . S
C10 O2 1.284 . S
C10 O11 1.273 . S
O11 C10 1.273 . S
O12 Zn3 1.977 . S
O12 C5 1.267 . S
C13 O14 1.160 . S
C13 O20 1.185 . S
O14 C13 1.160 . S
O15 Zn16 1.899 . S
O15 C23 1.284 . S
Zn16 O15 1.899 . S
Zn16 O17 2.032 . S
Zn16 O20 2.086 . S
Zn16 O25 1.977 . S
O17 Zn16 2.032 . S
O17 C21 1.278 . S
C18 O19 1.203 . S
C18 O25 1.267 . S
O19 C18 1.203 . S
O20 C13 1.185 . S
O20 Zn16 2.086 . S
C21 O17 1.278 . S
C21 O22 1.211 . S
O22 C21 1.211 . S
C23 O15 1.284 . S
C23 O24 1.273 . S
O24 C23 1.273 . S
O25 Zn16 1.977 . S
O25 C18 1.267 . S
C26 O27 1.160 . S
C26 O33 1.185 . S
O27 C26 1.160 . S
O28 Zn29 1.899 . S
O28 C36 1.284 . S
Zn29 O28 1.899 . S
Zn29 O30 2.032 . S
Zn29 O33 2.086 . S
Zn29 O38 1.977 . S
O30 Zn29 2.032 . S
O30 C34 1.278 . S
C31 O32 1.203 . S
C31 O38 1.267 . S
O32 C31 1.203 . S
O33 C26 1.185 . S
O33 Zn29 2.086 . S
C34 O30 1.278 . S
C34 O35 1.211 . S
O35 C34 1.211 . S
C36 O28 1.284 . S
C36 O37 1.273 . S
O37 C36 1.273 . S
O38 Zn29 1.977 . S
O38 C31 1.267 . S
C39 O40 1.160 . S
C39 O46 1.185 . S
O40 C39 1.160 . S
O41 Zn42 1.899 . S
O41 C49 1.284 . S
Zn42 O41 1.899 . S
Zn42 O43 2.032 . S
Zn42 O46 2.086 . S
Zn42 O51 1.977 . S
O43 Zn42 2.032 . S
O43 C47 1.278 . S
C44 O45 1.203 . S
C44 O51 1.267 . S
O45 C44 1.203 . S
O46 C39 1.185 . S
O46 Zn42 2.086 . S
C47 O43 1.278 . S
C47 O48 1.211 . S
O48 C47 1.211 . S
C49 O41 1.284 . S
C49 O50 1.273 . S
O50 C49 1.273 . S
O51 Zn42 1.977 . S
O51 C44 1.267 . S
C52 O53 1.160 . S
C52 O59 1.185 . S
O53 C52 1.160 . S
O54 Zn55 1.899 . S
O54 C62 1.284 . S
Zn55 O54 1.899 . S
Zn55 O56 2.032 . S
Zn55 O59 2.086 . S
Zn55 O64 1.977 . S
O56 Zn55 2.032 . S
O56 C60 1.278 . S
C57 O58 1.203 . S
C57 O64 1.267 . S
O58 C57 1.203 . S
O59 C52 1.185 . S
O59 Zn55 2.086 . S
C60 O56 1.278 . S
C60 O61 1.211 . S
O61 C60 1.211 . S
C62 O54 1.284 . S
C62 O63 1.273 . S
O63 C62 1.273 . S
O64 Zn55 1.977 . S
O64 C57 1.267 . S
C65 O66 1.160 . S
C65 O72 1.185 . S
O66 C65 1.160 . S
O67 Zn68 1.899 . S
O67 C75 1.284 . S
Zn68 O67 1.899 . S
Zn68 O69 2.032 . S
Zn68 O72 2.086 . S
Zn68 O77 1.977 . S
O69 Zn68 2.032 . S
O69 C73 1.278 . S
C70 O71 1.203 . S
C70 O77 1.267 . S
O71 C70 1.203 . S
O72 C65 1.185 . S
O72 Zn68 2.086 . S
C73 O69 1.278 . S
C73 O74 1.211 . S
O74 C73 1.211 . S
C75 O67 1.284 . S
C75 O76 1.273 . S
O76 C75 1.273 . S
O77 Zn68 1.977 . S
O77 C70 1.267 . S
C78 O79 1.160 . S
C78 O85 1.185 . S
O79 C78 1.160 . S
O80 Zn81 1.899 . S
O80 C88 1.284 . S
Zn81 O80 1.899 . S
Zn81 O82 2.032 . S
Zn81 O85 2.086 . S
Zn81 O90 1.977 . S
O82 Zn81 2.032 . S
O82 C86 1.278 . S
C83 O84 1.203 . S
C83 O90 1.267 . S
O84 C83 1.203 . S
O85 C78 1.185 . S
O85 Zn81 2.086 . S
C86 O82 1.278 . S
C86 O87 1.211 . S
O87 C86 1.211 . S
C88 O80 1.284 . S
C88 O89 1.273 . S
O89 C88 1.273 . S
O90 Zn81 1.977 . S
O90 C83 1.267 . S
C91 O92 1.160 . S
C91 O98 1.185 . S
O92 C91 1.160 . S
O93 Zn94 1.899 . S
O93 C101 1.284 . S
Zn94 O93 1.899 . S
Zn94 O95 2.032 . S
Zn94 O98 2.086 . S
Zn94 O103 1.977 . S
O95 Zn94 2.032 . S
O95 C99 1.278 . S
C96 O97 1.203 . S
C96 O103 1.267 . S
O97 C96 1.203 . S
O98 C91 1.185 . S
O98 Zn94 2.086 . S
C99 O95 1.278 . S
C99 O100 1.211 . S
O100 C99 1.211 . S
C101 O93 1.284 . S
C101 O102 1.273 . S
O102 C101 1.273 . S
O103 Zn94 1.977 . S
O103 C96 1.267 . S
C104 O105 1.160 . S
C104 O111 1.185 . S
O105 C104 1.160 . S
O106 Zn107 1.899 . S
O106 C114 1.284 . S
Zn107 O106 1.899 . S
Zn107 O108 2.032 . S
Zn107 O111 2.086 . S
Zn107 O116 1.977 . S
O108 Zn107 2.032 . S
O108 C112 1.278 . S
C109 O110 1.203 . S
C109 O116 1.267 . S
O110 C109 1.203 . S
O111 C104 1.185 . S
O111 Zn107 2.086 . S
C112 O108 1.278 . S
C112 O113 1.211 . S
O113 C112 1.211 . S
C114 O106 1.284 . S
C114 O115 1.273 . S
O115 C114 1.273 . S
O116 Zn107 1.977 . S
O116 C109 1.267 . S
C117 O118 1.160 . S
C117 O124 1.185 . S
O118 C117 1.160 . S
O119 Zn120 1.899 . S
O119 C127 1.284 . S
Zn120 O119 1.899 . S
Zn120 O121 2.032 . S
Zn120 O124 2.086 . S
Zn120 O129 1.977 . S
O121 Zn120 2.032 . S
O121 C125 1.278 . S
C122 O123 1.203 . S
C122 O129 1.267 . S
O123 C122 1.203 . S
O124 C117 1.185 . S
O124 Zn120 2.086 . S
C125 O121 1.278 . S
C125 O126 1.211 . S
O126 C125 1.211 . S
C127 O119 1.284 . S
C127 O128 1.273 . S
O128 C127 1.273 . S
O129 Zn120 1.977 . S
O129 C122 1.267 . S
C130 O131 1.160 . S
C130 O137 1.185 . S
O131 C130 1.160 . S
O132 Zn133 1.899 . S
O132 C140 1.284 . S
Zn133 O132 1.899 . S
Zn133 O134 2.032 . S
Zn133 O137 2.086 . S
Zn133 O142 1.977 . S
O134 Zn133 2.032 . S
O134 C138 1.278 . S
C135 O136 1.203 . S
C135 O142 1.267 . S
O136 C135 1.203 . S
O137 C130 1.185 . S
O137 Zn133 2.086 . S
C138 O134 1.278 . S
C138 O139 1.211 . S
O139 C138 1.211 . S
C140 O132 1.284 . S
C140 O141 1.273 . S
O141 C140 1.273 . S
O142 Zn133 1.977 . S
O142 C135 1.267 . S
C143 O144 1.160 . S
C143 O150 1.185 . S
O144 C143 1.160 . S
O145 Zn146 1.899 . S
O145 C153 1.284 . S
Zn146 O145 1.899 . S
Zn146 O147 2.032 . S
Zn146 O150 2.086 . S
Zn146 O155 1.977 . S
O147 Zn146 2.032 . S
O147 C151 1.278 . S
C148 O149 1.203 . S
C148 O155 1.267 . S
O149 C148 1.203 . S
O150 C143 1.185 . S
O150 Zn146 2.086 . S
C151 O147 1.278 . S
C151 O152 1.211 . S
O152 C151 1.211 . S
C153 O145 1.284 . S
C153 O154 1.273 . S
O154 C153 1.273 . S
O155 Zn146 1.977 . S
O155 C148 1.267 . S
C156 O157 1.160 . S
C156 O163 1.185 . S
O157 C156 1.160 . S
O158 Zn159 1.899 . S
O158 C166 1.284 . S
Zn159 O158 1.899 . S
Zn159 O160 2.032 . S
Zn159 O163 2.086 . S
Zn159 O168 1.977 . S
O160 Zn159 2.032 . S
O160 C164 1.278 . S
C161 O162 1.203 . S
C161 O168 1.267 . S
O162 C161 1.203 . S
O163 C156 1.185 . S
O163 Zn159 2.086 . S
C164 O160 1.278 . S
C164 O165 1.211 . S
O165 C164 1.211 . S
C166 O158 1.284 . S
C166 O167 1.273 . S
O167 C166 1.273 . S
O168 Zn159 1.977 . S
O168 C161 1.267 . S
C169 O170 1.160 . S
C169 O176 1.185 . S
O170 C169 1.160 . S
O171 Zn172 1.899 . S
O171 C179 1.284 . S
Zn172 O171 1.899 . S
Zn172 O173 2.032 . S
Zn172 O176 2.086 . S
Zn172 O181 1.977 . S
O173 Zn172 2.032 . S
O173 C177 1.278 . S
C174 O175 1.203 . S
C174 O181 1.267 . S
O175 C174 1.203 . S
O176 C169 1.185 . S
O176 Zn172 2.086 . S
C177 O173 1.278 . S
C177 O178 1.211 . S
O178 C177 1.211 . S
C179 O171 1.284 . S
C179 O180 1.273 . S
O180 C179 1.273 . S
O181 Zn172 1.977 . S
O181 C174 1.267 . S
C182 O183 1.160 . S
C182 O189 1.185 . S
O183 C182 1.160 . S
O184 Zn185 1.899 . S
O184 C192 1.284 . S
Zn185 O184 1.899 . S
Zn185 O186 2.032 . S
Zn185 O189 2.086 . S
Zn185 O194 1.977 . S
O186 Zn185 2.032 . S
O186 C190 1.278 . S
C187 O188 1.203 . S
C187 O194 1.267 . S
O188 C187 1.203 . S
O189 C182 1.185 . S
O189 Zn185 2.086 . S
C190 O186 1.278 . S
C190 O191 1.211 . S
O191 C190 1.211 . S
C192 O184 1.284 . S
C192 O193 1.273 . S
O193 C192 1.273 . S
O194 Zn185 1.977 . S
O194 C187 1.267 . S
C195 O196 1.160 . S
C195 O202 1.185 . S
O196 C195 1.160 . S
O197 Zn198 1.899 . S
O197 C205 1.284 . S
Zn198 O197 1.899 . S
Zn198 O199 2.032 . S
Zn198 O202 2.086 . S
Zn198 O207 1.977 . S
O199 Zn198 2.032 . S
O199 C203 1.278 . S
C200 O201 1.203 . S
C200 O207 1.267 . S
O201 C200 1.203 . S
O202 C195 1.185 . S
O202 Zn198 2.086 . S
C203 O199 1.278 . S
C203 O204 1.211 . S
O204 C203 1.211 . S
C205 O197 1.284 . S
C205 O206 1.273 . S
O206 C205 1.273 . S
O207 Zn198 1.977 . S
O207 C200 1.267 . S
C208 O209 1.160 . S
C208 O215 1.185 . S
O209 C208 1.160 . S
O210 Zn211 1.899 . S
O210 C218 1.284 . S
Zn211 O210 1.899 . S
Zn211 O212 2.032 . S
Zn211 O215 2.086 . S
Zn211 O220 1.977 . S
O212 Zn211 2.032 . S
O212 C216 1.278 . S
C213 O214 1.203 . S
C213 O220 1.267 . S
O214 C213 1.203 . S
O215 C208 1.185 . S
O215 Zn211 2.086 . S
C216 O212 1.278 . S
C216 O217 1.211 . S
O217 C216 1.211 . S
C218 O210 1.284 . S
C218 O219 1.273 . S
O219 C218 1.273 . S
O220 Zn211 1.977 . S
O220 C213 1.267 . S
C221 O222 1.160 . S
C221 O228 1.185 . S
O222 C221 1.160 . S
O223 Zn224 1.899 . S
O223 C231 1.284 . S
Zn224 O223 1.899 . S
Zn224 O225 2.032 . S
Zn224 O228 2.086 . S
Zn224 O233 1.977 . S
O225 Zn224 2.032 . S
O225 C229 1.278 . S
C226 O227 1.203 . S
C226 O233 1.267 . S
O227 C226 1.203 . S
O228 C221 1.185 . S
O228 Zn224 2.086 . S
C229 O225 1.278 . S
C229 O230 1.211 . S
O230 C229 1.211 . S
C231 O223 1.284 . S
C231 O232 1.273 . S
O232 C231 1.273 . S
O233 Zn224 1.977 . S
O233 C226 1.267 . S
C234 O235 1.160 . S
C234 O241 1.185 . S
O235 C234 1.160 . S
O236 Zn237 1.899 . S
O236 C244 1.284 . S
Zn237 O236 1.899 . S
Zn237 O238 2.032 . S
Zn237 O241 2.086 . S
Zn237 O246 1.977 . S
O238 Zn237 2.032 . S
O238 C242 1.278 . S
C239 O240 1.203 . S
C239 O246 1.267 . S
O240 C239 1.203 . S
O241 C234 1.185 . S
O241 Zn237 2.086 . S
C242 O238 1.278 . S
C242 O243 1.211 . S
O243 C242 1.211 . S
C244 O236 1.284 . S
C244 O245 1.273 . S
O245 C244 1.273 . S
O246 Zn237 1.977 . S
O246 C239 1.267 . S
C247 O248 1.160 . S
C247 O254 1.185 . S
O248 C247 1.160 . S
O249 Zn250 1.899 . S
O249 C257 1.284 . S
Zn250 O249 1.899 . S
Zn250 O251 2.032 . S
Zn250 O254 2.086 . S
Zn250 O259 1.977 . S
O251 Zn250 2.032 . S
O251 C255 1.278 . S
C252 O253 1.203 . S
C252 O259 1.267 . S
O253 C252 1.203 . S
O254 C247 1.185 . S
O254 Zn250 2.086 . S
C255 O251 1.278 . S
C255 O256 1.211 . S
O256 C255 1.211 . S
C257 O249 1.284 . S
C257 O258 1.273 . S
O258 C257 1.273 . S
O259 Zn250 1.977 . S
O259 C252 1.267 . S
C260 O261 1.160 . S
C260 O267 1.185 . S
O261 C260 1.160 . S
O262 Zn263 1.899 . S
O262 C270 1.284 . S
Zn263 O262 1.899 . S
Zn263 O264 2.032 . S
Zn263 O267 2.086 . S
Zn263 O272 1.977 . S
O264 Zn263 2.032 . S
O264 C268 1.278 . S
C265 O266 1.203 . S
C265 O272 1.267 . S
O266 C265 1.203 . S
O267 C260 1.185 . S
O267 Zn263 2.086 . S
C268 O264 1.278 . S
C268 O269 1.211 . S
O269 C268 1.211 . S
C270 O262 1.284 . S
C270 O271 1.273 . S
O271 C270 1.273 . S
O272 Zn263 1.977 . S
O272 C265 1.267 . S
C273 O274 1.160 . S
C273 O280 1.185 . S
O274 C273 1.160 . S
O275 Zn276 1.899 . S
O275 C283 1.284 . S
Zn276 O275 1.899 . S
Zn276 O277 2.032 . S
Zn276 O280 2.086 . S
Zn276 O285 1.977 . S
O277 Zn276 2.032 . S
O277 C281 1.278 . S
C278 O279 1.203 . S
C278 O285 1.267 . S
O279 C278 1.203 . S
O280 C273 1.185 . S
O280 Zn276 2.086 . S
C281 O277 1.278 . S
C281 O282 1.211 . S
O282 C281 1.211 . S
C283 O275 1.284 . S
C283 O284 1.273 . S
O284 C283 1.273 . S
O285 Zn276 1.977 . S
O285 C278 1.267 . S
C286 O287 1.160 . S
C286 O293 1.185 . S
O287 C286 1.160 . S
O288 Zn289 1.899 . S
O288 C296 1.284 . S
Zn289 O288 1.899 . S
Zn289 O290 2.032 . S
Zn289 O293 2.086 . S
Zn289 O298 1.977 . S
O290 Zn289 2.032 . S
O290 C294 1.278 . S
C291 O292 1.203 . S
C291 O298 1.267 . S
O292 C291 1.203 . S
O293 C286 1.185 . S
O293 Zn289 2.086 . S
C294 O290 1.278 . S
C294 O295 1.211 . S
O295 C294 1.211 . S
C296 O288 1.284 . S
C296 O297 1.273 . S
O297 C296 1.273 . S
O298 Zn289 1.977 . S
O298 C291 1.267 . S
C299 O300 1.160 . S
C299 O306 1.185 . S
O300 C299 1.160 . S
O301 Zn302 1.899 . S
O301 C309 1.284 . S
Zn302 O301 1.899 . S
Zn302 O303 2.032 . S
Zn302 O306 2.086 . S
Zn302 O311 1.977 . S
O303 Zn302 2.032 . S
O303 C307 1.278 . S
C304 O305 1.203 . S
C304 O311 1.267 . S
O305 C304 1.203 . S
O306 C299 1.185 . S
O306 Zn302 2.086 . S
C307 O303 1.278 . S
C307 O308 1.211 . S
O308 C307 1.211 . S
C309 O301 1.284 . S
C309 O310 1.273 . S
O310 C309 1.273 . S
O311 Zn302 1.977 . S
O311 C304 1.267 . S
C312 O313 1.160 . S
C312 O319 1.185 . S
O313 C312 1.160 . S
O314 Zn315 1.899 . S
O314 C322 1.284 . S
Zn315 O314 1.899 . S
Zn315 O316 2.032 . S
Zn315 O319 2.086 . S
Zn315 O324 1.977 . S
O316 Zn315 2.032 . S
O316 C320 1.278 . S
C317 O318 1.203 . S
C317 O324 1.267 . S
O318 C317 1.203 . S
O319 C312 1.185 . S
O319 Zn315 2.086 . S
C320 O316 1.278 . S
C320 O321 1.211 . S
O321 C320 1.211 . S
C322 O314 1.284 . S
C322 O323 1.273 . S
O323 C322 1.273 . S
O324 Zn315 1.977 . S
O324 C317 1.267 . S
C325 O326 1.160 . S
C325 O332 1.185 . S
O326 C325 1.160 . S
O327 Zn328 1.899 . S
O327 C335 1.284 . S
Zn328 O327 1.899 . S
Zn328 O329 2.032 . S
Zn328 O332 2.086 . S
Zn328 O337 1.977 . S
O329 Zn328 2.032 . S
O329 C333 1.278 . S
C330 O331 1.203 . S
C330 O337 1.267 . S
O331 C330 1.203 . S
O332 C325 1.185 . S
O332 Zn328 2.086 . S
C333 O329 1.278 . S
C333 O334 1.211 . S
O334 C333 1.211 . S
C335 O327 1.284 . S
C335 O336 1.273 . S
O336 C335 1.273 . S
O337 Zn328 1.977 . S
O337 C330 1.267 . S
C338 O339 1.160 . S
C338 O345 1.185 . S
O339 C338 1.160 . S
O340 Zn341 1.899 . S
O340 C348 1.284 . S
Zn341 O340 1.899 . S
Zn341 O342 2.032 . S
Zn341 O345 2.086 . S
Zn341 O350 1.977 . S
O342 Zn341 2.032 . S
O342 C346 1.278 . S
C343 O344 1.203 . S
C343 O350 1.267 . S
O344 C343 1.203 . S
O345 C338 1.185 . S
O345 Zn341 2.086 . S
C346 O342 1.278 . S
C346 O347 1.211 . S
O347 C346 1.211 . S
C348 O340 1.284 . S
C348 O349 1.273 . S
O349 C348 1.273 . S
O350 Zn341 1.977 . S
O350 C343 1.267 . S
C351 O352 1.160 . S
C351 O358 1.185 . S
O352 C351 1.160 . S
O353 Zn354 1.899 . S
O353 C361 1.284 . S
Zn354 O353 1.899 . S
Zn354 O355 2.032 . S
Zn354 O358 2.086 . S
Zn354 O363 1.977 . S
O355 Zn354 2.032 . S
O355 C359 1.278 . S
C356 O357 1.203 . S
C356 O363 1.267 . S
O357 C356 1.203 . S
O358 C351 1.185 . S
O358 Zn354 2.086 . S
C359 O355 1.278 . S
C359 O360 1.211 . S
O360 C359 1.211 . S
C361 O353 1.284 . S
C361 O362 1.273 . S
O362 C361 1.273 . S
O363 Zn354 1.977 . S
O363 C356 1.267 . S
C364 O365 1.160 . S
C364 O371 1.185 . S
O365 C364 1.160 . S
O366 Zn367 1.899 . S
O366 C374 1.284 . S
Zn367 O366 1.899 . S
Zn367 O368 2.032 . S
Zn367 O371 2.086 . S
Zn367 O376 1.977 . S
O368 Zn367 2.032 . S
O368 C372 1.278 . S
C369 O370 1.203 . S
C369 O376 1.267 . S
O370 C369 1.203 . S
O371 C364 1.185 . S
O371 Zn367 2.086 . S
C372 O368 1.278 . S
C372 O373 1.211 . S
O373 C372 1.211 . S
C374 O366 1.284 . S
C374 O375 1.273 . S
O375 C374 1.273 . S
O376 Zn367 1.977 . S
O376 C369 1.267 . S
C377 O378 1.160 . S
C377 O384 1.185 . S
O378 C377 1.160 . S
O379 Zn380 1.899 . S
O379 C387 1.284 . S
Zn380 O379 1.899 . S
Zn380 O381 2.032 . S
Zn380 O384 2.086 . S
Zn380 O389 1.977 . S
O381 Zn380 2.032 . S
O381 C385 1.278 . S
C382 O383 1.203 . S
C382 O389 1.267 . S
O383 C382 1.203 . S
O384 C377 1.185 . S
O384 Zn380 2.086 . S
C385 O381 1.278 . S
C385 O386 1.211 . S
O386 C385 1.211 . S
C387 O379 1.284 . S
C387 O388 1.273 . S
O388 C387 1.273 . S
O389 Zn380 1.977 . S
O389 C382 1.267 . S
C390 O391 1.160 . S
C390 O397 1.185 . S
O391 C390 1.160 . S
O392 Zn393 1.899 . S
O392 C400 1.284 . S
Zn393 O392 1.899 . S
Zn393 O394 2.032 . S
Zn393 O397 2.086 . S
Zn393 O402 1.977 . S
O394 Zn393 2.032 . S
O394 C398 1.278 . S
C395 O396 1.203 . S
C395 O402 1.267 . S
O396 C395 1.203 . S
O397 C390 1.185 . S
O397 Zn393 2.086 . S
C398 O394 1.278 . S
C398 O399 1.211 . S
O399 C398 1.211 . S
C400 O392 1.284 . S
C400 O401 1.273 . S
O401 C400 1.273 . S
O402 Zn393 1.977 . S
O402 C395 1.267 . S
C403 O404 1.160 . S
C403 O410 1.185 . S
O404 C403 1.160 . S
O405 Zn406 1.899 . S
O405 C413 1.284 . S
Zn406 O405 1.899 . S
Zn406 O407 2.032 . S
Zn406 O410 2.086 . S
Zn406 O415 1.977 . S
O407 Zn406 2.032 . S
O407 C411 1.278 . S
C408 O409 1.203 . S
C408 O415 1.267 . S
O409 C408 1.203 . S
O410 C403 1.185 . S
O410 Zn406 2.086 . S
C411 O407 1.278 . S
C411 O412 1.211 . S
O412 C411 1.211 . S
C413 O405 1.284 . S
C413 O414 1.273 . S
O414 C413 1.273 . S
O415 Zn406 1.977 . S
O415 C408 1.267 . S
C416 O417 1.160 . S
C416 O423 1.185 . S
O417 C416 1.160 . S
O418 Zn419 1.899 . S
O418 C426 1.284 . S
Zn419 O418 1.899 . S
Zn419 O420 2.032 . S
Zn419 O423 2.086 . S
Zn419 O428 1.977 . S
O420 Zn419 2.032 . S
O420 C424 1.278 . S
C421 O422 1.203 . S
C421 O428 1.267 . S
O422 C421 1.203 . S
O423 C416 1.185 . S
O423 Zn419 2.086 . S
C424 O420 1.278 . S
C424 O425 1.211 . S
O425 C424 1.211 . S
C426 O418 1.284 . S
C426 O427 1.273 . S
O427 C426 1.273 . S
O428 Zn419 1.977 . S
O428 C421 1.267 . S
C429 O430 1.160 . S
C429 O436 1.185 . S
O430 C429 1.160 . S
O431 Zn432 1.899 . S
O431 C439 1.284 . S
Zn432 O431 1.899 . S
Zn432 O433 2.032 . S
Zn432 O436 2.086 . S
Zn432 O441 1.977 . S
O433 Zn432 2.032 . S
O433 C437 1.278 . S
C434 O435 1.203 . S
C434 O441 1.267 . S
O435 C434 1.203 . S
O436 C429 1.185 . S
O436 Zn432 2.086 . S
C437 O433 1.278 . S
C437 O438 1.211 . S
O438 C437 1.211 . S
C439 O431 1.284 . S
C439 O440 1.273 . S
O440 C439 1.273 . S
O441 Zn432 1.977 . S
O441 C434 1.267 . S
C442 O443 1.160 . S
C442 O449 1.185 . S
O443 C442 1.160 . S
O444 Zn445 1.899 . S
O444 C452 1.284 . S
Zn445 O444 1.899 . S
Zn445 O446 2.032 . S
Zn445 O449 2.086 . S
Zn445 O454 1.977 . S
O446 Zn445 2.032 . S
O446 C450 1.278 . S
C447 O448 1.203 . S
C447 O454 1.267 . S
O448 C447 1.203 . S
O449 C442 1.185 . S
O449 Zn445 2.086 . S
C450 O446 1.278 . S
C450 O451 1.211 . S
O451 C450 1.211 . S
C452 O444 1.284 . S
C452 O453 1.273 . S
O453 C452 1.273 . S
O454 Zn445 1.977 . S
O454 C447 1.267 . S
C455 O456 1.160 . S
C455 O462 1.185 . S
O456 C455 1.160 . S
O457 Zn458 1.899 . S
O457 C465 1.284 . S
Zn458 O457 1.899 . S
Zn458 O459 2.032 . S
Zn458 O462 2.086 . S
Zn458 O467 1.977 . S
O459 Zn458 2.032 . S
O459 C463 1.278 . S
C460 O461 1.203 . S
C460 O467 1.267 . S
O461 C460 1.203 . S
O462 C455 1.185 . S
O462 Zn458 2.086 . S
C463 O459 1.278 . S
C463 O464 1.211 . S
O464 C463 1.211 . S
C465 O457 1.284 . S
C465 O466 1.273 . S
O466 C465 1.273 . S
O467 Zn458 1.977 . S
O467 C460 1.267 . S
C468 O469 1.160 . S
C468 O475 1.185 . S
O469 C468 1.160 . S
O470 Zn471 1.899 . S
O470 C478 1.284 . S
Zn471 O470 1.899 . S
Zn471 O472 2.032 . S
Zn471 O475 2.086 . S
Zn471 O480 1.977 . S
O472 Zn471 2.032 . S
O472 C476 1.278 . S
C473 O474 1.203 . S
C473 O480 1.267 . S
O474 C473 1.203 . S
O475 C468 1.185 . S
O475 Zn471 2.086 . S
C476 O472 1.278 . S
C476 O477 1.211 . S
O477 C476 1.211 . S
C478 O470 1.284 . S
C478 O479 1.273 . S
O479 C478 1.273 . S
O480 Zn471 1.977 . S
O480 C473 1.267 . S
C481 O482 1.160 . S
C481 O488 1.185 . S
O482 C481 1.160 . S
O483 Zn484 1.899 . S
O483 C491 1.284 . S
Zn484 O483 1.899 . S
Zn484 O485 2.032 . S
Zn484 O488 2.086 . S
Zn484 O493 1.977 . S
O485 Zn484 2.032 . S
O485 C489 1.278 . S
C486 O487 1.203 . S
C486 O493 1.267 . S
O487 C486 1.203 . S
O488 C481 1.185 . S
O488 Zn484 2.086 . S
C489 O485 1.278 . S
C489 O490 1.211 . S
O490 C489 1.211 . S
C491 O483 1.284 . S
C491 O492 1.273 . S
O492 C491 1.273 . S
O493 Zn484 1.977 . S
O493 C486 1.267 . S
C494 O495 1.160 . S
C494 O501 1.185 . S
O495 C494 1.160 . S
O496 Zn497 1.899 . S
O496 C504 1.284 . S
Zn497 O496 1.899 . S
Zn497 O498 2.032 . S
Zn497 O501 2.086 . S
Zn497 O506 1.977 . S
O498 Zn497 2.032 . S
O498 C502 1.278 . S
C499 O500 1.203 . S
C499 O506 1.267 . S
O500 C499 1.203 . S
O501 C494 1.185 . S
O501 Zn497 2.086 . S
C502 O498 1.278 . S
C502 O503 1.211 . S
O503 C502 1.211 . S
C504 O496 1.284 . S
C504 O505 1.273 . S
O505 C504 1.273 . S
O506 Zn497 1.977 . S
O506 C499 1.267 . S
C507 O508 1.160 . S
C507 O514 1.185 . S
O508 C507 1.160 . S
O509 Zn510 1.899 . S
O509 C517 1.284 . S
Zn510 O509 1.899 . S
Zn510 O511 2.032 . S
Zn510 O514 2.086 . S
Zn510 O519 1.977 . S
O511 Zn510 2.032 . S
O511 C515 1.278 . S
C512 O513 1.203 . S
C512 O519 1.267 . S
O513 C512 1.203 . S
O514 C507 1.185 . S
O514 Zn510 2.086 . S
C515 O511 1.278 . S
C515 O516 1.211 . S
O516 C515 1.211 . S
C517 O509 1.284 . S
C517 O518 1.273 . S
O518 C517 1.273 . S
O519 Zn510 1.977 . S
O519 C512 1.267 . S
C520 O521 1.160 . S
C520 O527 1.185 . S
O521 C520 1.160 . S
O522 Zn523 1.899 . S
O522 C530 1.284 . S
Zn523 O522 1.899 . S
Zn523 O524 2.032 . S
Zn523 O527 2.086 . S
Zn523 O532 1.977 . S
O524 Zn523 2.032 . S
O524 C528 1.278 . S
C525 O526 1.203 . S
C525 O532 1.267 . S
O526 C525 1.203 . S
O527 C520 1.185 . S
O527 Zn523 2.086 . S
C528 O524 1.278 . S
C528 O529 1.211 . S
O529 C528 1.211 . S
C530 O522 1.284 . S
C530 O531 1.273 . S
O531 C530 1.273 . S
O532 Zn523 1.977 . S
O532 C525 1.267 . S
C533 O534 1.160 . S
C533 O540 1.185 . S
O534 C533 1.160 . S
O535 Zn536 1.899 . S
O535 C543 1.284 . S
Zn536 O535 1.899 . S
Zn536 O537 2.032 . S
Zn536 O540 2.086 . S
Zn536 O545 1.977 . S
O537 Zn536 2.032 . S
O537 C541 1.278 . S
C538 O539 1.203 . S
C538 O545 1.267 . S
O539 C538 1.203 . S
O540 C533 1.185 . S
O540 Zn536 2.086 . S
C541 O537 1.278 . S
C541 O542 1.211 . S
O542 C541 1.211 . S
C543 O535 1.284 . S
C543 O544 1.273 . S
O544 C543 1.273 . S
O545 Zn536 1.977 . S
O545 C538 1.267 . S
C546 O547 1.160 . S
C546 O553 1.185 . S
O547 C546 1.160 . S
O548 Zn549 1.899 . S
O548 C556 1.284 . S
Zn549 O548 1.899 . S
Zn549 O550 2.032 . S
Zn549 O553 2.086 . S
Zn549 O558 1.977 . S
O550 Zn549 2.032 . S
O550 C554 1.278 . S
C551 O552 1.203 . S
C551 O558 1.267 . S
O552 C551 1.203 . S
O553 C546 1.185 . S
O553 Zn549 2.086 . S
C554 O550 1.278 . S
C554 O555 1.211 . S
O555 C554 1.211 . S
C556 O548 1.284 . S
C556 O557 1.273 . S
O557 C556 1.273 . S
O558 Zn549 1.977 . S
O558 C551 1.267 . S
C559 O560 1.160 . S
C559 O566 1.185 . S
O560 C559 1.160 . S
O561 Zn562 1.899 . S
O561 C569 1.284 . S
Zn562 O561 1.899 . S
Zn562 O563 2.032 . S
Zn562 O566 2.086 . S
Zn562 O571 1.977 . S
O563 Zn562 2.032 . S
O563 C567 1.278 . S
C564 O565 1.203 . S
C564 O571 1.267 . S
O565 C564 1.203 . S
O566 C559 1.185 . S
O566 Zn562 2.086 . S
C567 O563 1.278 . S
C567 O568 1.211 . S
O568 C567 1.211 . S
C569 O561 1.284 . S
C569 O570 1.273 . S
O570 C569 1.273 . S
O571 Zn562 1.977 . S
O571 C564 1.267 . S
C572 O573 1.160 . S
C572 O579 1.185 . S
O573 C572 1.160 . S
O574 Zn575 1.899 . S
O574 C582 1.284 . S
Zn575 O574 1.899 . S
Zn575 O576 2.032 . S
Zn575 O579 2.086 . S
Zn575 O584 1.977 . S
O576 Zn575 2.032 . S
O576 C580 1.278 . S
C577 O578 1.203 . S
C577 O584 1.267 . S
O578 C577 1.203 . S
O579 C572 1.185 . S
O579 Zn575 2.086 . S
C580 O576 1.278 . S
C580 O581 1.211 . S
O581 C580 1.211 . S
C582 O574 1.284 . S
C582 O583 1.273 . S
O583 C582 1.273 . S
O584 Zn575 1.977 . S
O584 C577 1.267 . S
C585 O586 1.160 . S
C585 O592 1.185 . S
O586 C585 1.160 . S
O587 Zn588 1.899 . S
O587 C595 1.284 . S
Zn588 O587 1.899 . S
Zn588 O589 2.032 . S
Zn588 O592 2.086 . S
Zn588 O597 1.977 . S
O589 Zn588 2.032 . S
O589 C593 1.278 . S
C590 O591 1.203 . S
C590 O597 1.267 . S
O591 C590 1.203 . S
O592 C585 1.185 . S
O592 Zn588 2.086 . S
C593 O589 1.278 . S
C593 O594 1.211 . S
O594 C593 1.211 . S
C595 O587 1.284 . S
C595 O596 1.273 . S
O596 C595 1.273 . S
O597 Zn588 1.977 . S
O597 C590 1.267 . S
C598 O599 1.160 . S
C598 O605 1.185 . S
O599 C598 1.160 . S
O600 Zn601 1.899 . S
O600 C608 1.284 . S
Zn601 O600 1.899 . S
Zn601 O602 2.032 . S
Zn601 O605 2.086 . S
Zn601 O610 1.977 . S
O602 Zn601 2.032 . S
O602 C606 1.278 . S
C603 O604 1.203 . S
C603 O610 1.267 . S
O604 C603 1.203 . S
O605 C598 1.185 . S
O605 Zn601 2.086 . S
C606 O602 1.278 . S
C606 O607 1.211 . S
O607 C606 1.211 . S
C608 O600 1.284 . S
C608 O609 1.273 . S
O609 C608 1.273 . S
O610 Zn601 1.977 . S
O610 C603 1.267 . S
C611 O612 1.160 . S
C611 O618 1.185 . S
O612 C611 1.160 . S
O613 Zn614 1.899 . S
O613 C621 1.284 . S
Zn614 O613 1.899 . S
Zn614 O615 2.032 . S
Zn614 O618 2.086 . S
Zn614 O623 1.977 . S
O615 Zn614 2.032 . S
O615 C619 1.278 . S
C616 O617 1.203 . S
C616 O623 1.267 . S
O617 C616 1.203 . S
O618 C611 1.185 . S
O618 Zn614 2.086 . S
C619 O615 1.278 . S
C619 O620 1.211 . S
O620 C619 1.211 . S
C621 O613 1.284 . S
C621 O622 1.273 . S
O622 C621 1.273 . S
O623 Zn614 1.977 . S
O623 C616 1.267 . S
H624 C630 0.930 . S
H625 C634 0.930 . S
H626 C639 0.929 . S
H627 C637 0.929 . S
H628 C632 0.929 . S
H629 C638 0.929 . S
C630 H624 0.930 . S
C630 C631 1.367 . S
C630 C638 1.378 . S
C631 C630 1.367 . S
C631 C639 1.433 . S
C632 H628 0.929 . S
C632 C634 1.378 . S
C632 C636 1.350 . S
C633 C636 1.463 . S
C633 C638 1.350 . S
C633 N641 1.427 . S
C634 H625 0.930 . S
C634 C632 1.378 . S
C634 C635 1.367 . S
C635 C634 1.367 . S
C635 C637 1.433 . S
C636 C632 1.350 . S
C636 C633 1.463 . S
C636 N640 1.427 . S
C637 H627 0.929 . S
C637 C635 1.433 . S
C637 N640 1.384 . S
C638 H629 0.929 . S
C638 C630 1.378 . S
C638 C633 1.350 . S
C639 H626 0.929 . S
C639 C631 1.433 . S
C639 N641 1.384 . S
N640 C636 1.427 . S
N640 C637 1.384 . S
N641 C633 1.427 . S
N641 C639 1.384 . S
H642 C648 0.930 . S
H643 C652 0.930 . S
H644 C657 0.929 . S
H645 C655 0.929 . S
H646 C650 0.929 . S
H647 C656 0.958 . S
C648 H642 0.930 . S
C648 C649 1.367 . S
C648 C656 1.337 1_455 S
C649 C648 1.367 . S
C649 C657 1.433 . S
C650 H646 0.929 . S
C650 C652 1.378 . S
C650 C654 1.350 . S
C651 C654 1.463 . S
C651 C656 1.362 . S
C651 N659 1.427 1_655 S
C652 H643 0.930 . S
C652 C650 1.378 . S
C652 C653 1.367 . S
C653 C652 1.367 . S
C653 C655 1.433 . S
C654 C650 1.350 . S
C654 C651 1.463 . S
C654 N658 1.427 . S
C655 H645 0.929 . S
C655 C653 1.433 . S
C655 N658 1.384 . S
C656 H647 0.958 . S
C656 C648 1.337 1_655 S
C656 C651 1.362 . S
C657 H644 0.929 . S
C657 C649 1.433 . S
C657 N659 1.384 . S
N658 C654 1.427 . S
N658 C655 1.384 . S
N659 C651 1.427 1_455 S
N659 C657 1.384 . S
H660 C666 0.930 . S
H661 C670 0.930 . S
H662 C675 0.929 . S
H663 C673 0.929 . S
H664 C668 0.929 . S
H665 C674 0.929 . S
C666 H660 0.930 . S
C666 C667 1.367 . S
C666 C674 1.378 . S
C667 C666 1.367 . S
C667 C675 1.433 . S
C668 H664 0.929 . S
C668 C670 1.378 . S
C668 C672 1.350 . S
C669 C672 1.463 . S
C669 C674 1.350 . S
C669 N677 1.427 . S
C670 H661 0.930 . S
C670 C668 1.378 . S
C670 C671 1.367 . S
C671 C670 1.367 . S
C671 C673 1.433 . S
C672 C668 1.350 . S
C672 C669 1.463 . S
C672 N676 1.427 . S
C673 H663 0.929 . S
C673 C671 1.433 . S
C673 N676 1.384 . S
C674 H665 0.929 . S
C674 C666 1.378 . S
C674 C669 1.350 . S
C675 H662 0.929 . S
C675 C667 1.433 . S
C675 N677 1.384 . S
N676 C672 1.427 . S
N676 C673 1.384 . S
N677 C669 1.427 . S
N677 C675 1.384 . S
H678 C684 0.930 . S
H679 C688 0.930 . S
H680 C693 0.929 . S
H681 C691 0.929 . S
H682 C686 0.929 . S
H683 C692 0.929 . S
C684 H678 0.930 . S
C684 C685 1.367 . S
C684 C692 1.378 . S
C685 C684 1.367 . S
C685 C693 1.433 . S
C686 H682 0.929 . S
C686 C688 1.378 . S
C686 C690 1.350 . S
C687 C690 1.463 . S
C687 C692 1.350 . S
C687 N695 1.427 . S
C688 H679 0.930 . S
C688 C686 1.378 . S
C688 C689 1.367 . S
C689 C688 1.367 . S
C689 C691 1.433 . S
C690 C686 1.350 . S
C690 C687 1.463 . S
C690 N694 1.427 . S
C691 H681 0.929 . S
C691 C689 1.433 . S
C691 N694 1.384 . S
C692 H683 0.929 . S
C692 C684 1.378 . S
C692 C687 1.350 . S
C693 H680 0.929 . S
C693 C685 1.433 . S
C693 N695 1.384 . S
N694 C690 1.427 . S
N694 C691 1.384 . S
N695 C687 1.427 . S
N695 C693 1.384 . S
H696 C702 0.930 . S
H697 C706 0.930 . S
H698 C711 0.929 . S
H699 C709 0.929 . S
H700 C704 0.929 . S
H701 C710 0.929 . S
C702 H696 0.930 . S
C702 C703 1.367 . S
C702 C710 1.378 . S
C703 C702 1.367 . S
C703 C711 1.433 . S
C704 H700 0.929 . S
C704 C706 1.378 . S
C704 C708 1.350 . S
C705 C708 1.463 . S
C705 C710 1.350 . S
C705 N713 1.427 . S
C706 H697 0.930 . S
C706 C704 1.378 . S
C706 C707 1.367 . S
C707 C706 1.367 . S
C707 C709 1.433 . S
C708 C704 1.350 . S
C708 C705 1.463 . S
C708 N712 1.427 . S
C709 H699 0.929 . S
C709 C707 1.433 . S
C709 N712 1.384 . S
C710 H701 0.929 . S
C710 C702 1.378 . S
C710 C705 1.350 . S
C711 H698 0.929 . S
C711 C703 1.433 . S
C711 N713 1.384 . S
N712 C708 1.427 . S
N712 C709 1.384 . S
N713 C705 1.427 . S
N713 C711 1.384 . S
H714 C720 0.930 . S
H715 C724 0.930 . S
H716 C729 0.929 . S
H717 C727 0.929 . S
H718 C722 0.929 . S
H719 C728 0.929 . S
C720 H714 0.930 . S
C720 C721 1.367 . S
C720 C728 1.378 . S
C721 C720 1.367 . S
C721 C729 1.433 . S
C722 H718 0.929 . S
C722 C724 1.378 . S
C722 C726 1.350 . S
C723 C726 1.463 . S
C723 C728 1.350 . S
C723 N731 1.427 . S
C724 H715 0.930 . S
C724 C722 1.378 . S
C724 C725 1.367 . S
C725 C724 1.367 . S
C725 C727 1.433 . S
C726 C722 1.350 . S
C726 C723 1.463 . S
C726 N730 1.427 . S
C727 H717 0.929 . S
C727 C725 1.433 . S
C727 N730 1.384 . S
C728 H719 0.929 . S
C728 C720 1.378 . S
C728 C723 1.350 . S
C729 H716 0.929 . S
C729 C721 1.433 . S
C729 N731 1.384 . S
N730 C726 1.427 . S
N730 C727 1.384 . S
N731 C723 1.427 . S
N731 C729 1.384 . S
H732 C738 0.930 . S
H733 C742 0.930 . S
H734 C747 0.929 . S
H735 C745 0.929 . S
H736 C740 0.929 . S
H737 C746 0.929 . S
C738 H732 0.930 . S
C738 C739 1.367 . S
C738 C746 1.378 . S
C739 C738 1.367 . S
C739 C747 1.433 . S
C740 H736 0.929 . S
C740 C742 1.378 . S
C740 C744 1.350 . S
C741 C744 1.463 . S
C741 C746 1.350 . S
C741 N749 1.427 . S
C742 H733 0.930 . S
C742 C740 1.378 . S
C742 C743 1.367 . S
C743 C742 1.367 . S
C743 C745 1.433 . S
C744 C740 1.350 . S
C744 C741 1.463 . S
C744 N748 1.427 . S
C745 H735 0.929 . S
C745 C743 1.433 . S
C745 N748 1.384 . S
C746 H737 0.929 . S
C746 C738 1.378 . S
C746 C741 1.350 . S
C747 H734 0.929 . S
C747 C739 1.433 . S
C747 N749 1.384 . S
N748 C744 1.427 . S
N748 C745 1.384 . S
N749 C741 1.427 . S
N749 C747 1.384 . S
H750 C756 0.930 . S
H751 C760 0.930 . S
H752 C765 0.929 . S
H753 C763 0.929 . S
H754 C758 0.929 . S
H755 C764 0.929 1_655 S
C756 H750 0.930 . S
C756 C757 1.367 . S
C756 C764 1.378 . S
C757 C756 1.367 . S
C757 C765 1.433 . S
C758 H754 0.929 . S
C758 C760 1.378 . S
C758 C762 1.350 . S
C759 C762 1.463 . S
C759 C764 1.350 1_655 S
C759 N767 1.427 . S
C760 H751 0.930 . S
C760 C758 1.378 . S
C760 C761 1.367 . S
C761 C760 1.367 . S
C761 C763 1.433 . S
C762 C758 1.350 . S
C762 C759 1.463 . S
C762 N766 1.427 . S
C763 H753 0.929 . S
C763 C761 1.433 . S
C763 N766 1.384 . S
C764 H755 0.929 1_455 S
C764 C756 1.378 . S
C764 C759 1.350 1_455 S
C765 H752 0.929 . S
C765 C757 1.433 . S
C765 N767 1.384 1_455 S
N766 C762 1.427 . S
N766 C763 1.384 . S
N767 C759 1.427 . S
N767 C765 1.384 1_655 S
H768 C774 0.930 . S
H769 C778 0.930 . S
H770 C783 0.929 . S
H771 C781 0.929 . S
H772 C776 0.929 . S
H773 C782 0.929 . S
C774 H768 0.930 . S
C774 C775 1.367 . S
C774 C782 1.378 . S
C775 C774 1.367 . S
C775 C783 1.433 . S
C776 H772 0.929 . S
C776 C778 1.378 . S
C776 C780 1.350 . S
C777 C780 1.463 . S
C777 C782 1.350 . S
C777 N785 1.427 . S
C778 H769 0.930 . S
C778 C776 1.378 . S
C778 C779 1.367 . S
C779 C778 1.367 . S
C779 C781 1.433 . S
C780 C776 1.350 . S
C780 C777 1.463 . S
C780 N784 1.427 . S
C781 H771 0.929 . S
C781 C779 1.433 . S
C781 N784 1.384 . S
C782 H773 0.929 . S
C782 C774 1.378 . S
C782 C777 1.350 . S
C783 H770 0.929 . S
C783 C775 1.433 . S
C783 N785 1.384 . S
N784 C780 1.427 . S
N784 C781 1.384 . S
N785 C777 1.427 . S
N785 C783 1.384 . S
H786 C792 0.930 . S
H787 C796 0.930 . S
H788 C801 0.929 . S
H789 C799 0.929 . S
H790 C794 0.929 . S
H791 C800 0.929 . S
C792 H786 0.930 . S
C792 C793 1.367 . S
C792 C800 1.378 . S
C793 C792 1.367 . S
C793 C801 1.433 . S
C794 H790 0.929 . S
C794 C796 1.378 . S
C794 C798 1.350 . S
C795 C798 1.463 . S
C795 C800 1.350 . S
C795 N803 1.427 . S
C796 H787 0.930 . S
C796 C794 1.378 . S
C796 C797 1.367 . S
C797 C796 1.367 . S
C797 C799 1.433 . S
C798 C794 1.350 . S
C798 C795 1.463 . S
C798 N802 1.427 . S
C799 H789 0.929 . S
C799 C797 1.433 . S
C799 N802 1.384 . S
C800 H791 0.929 . S
C800 C792 1.378 . S
C800 C795 1.350 . S
C801 H788 0.929 . S
C801 C793 1.433 . S
C801 N803 1.384 . S
N802 C798 1.427 . S
N802 C799 1.384 . S
N803 C795 1.427 . S
N803 C801 1.384 . S
H804 C810 0.930 . S
H805 C814 0.930 . S
H806 C819 0.929 . S
H807 C817 0.929 . S
H808 C812 0.929 . S
H809 C818 0.929 . S
C810 H804 0.930 . S
C810 C811 1.367 . S
C810 C818 1.378 . S
C811 C810 1.367 . S
C811 C819 1.433 . S
C812 H808 0.929 . S
C812 C814 1.378 . S
C812 C816 1.350 . S
C813 C816 1.463 . S
C813 C818 1.350 . S
C813 N821 1.427 . S
C814 H805 0.930 . S
C814 C812 1.378 . S
C814 C815 1.367 . S
C815 C814 1.367 . S
C815 C817 1.433 . S
C816 C812 1.350 . S
C816 C813 1.463 . S
C816 N820 1.427 . S
C817 H807 0.929 . S
C817 C815 1.433 . S
C817 N820 1.384 . S
C818 H809 0.929 . S
C818 C810 1.378 . S
C818 C813 1.350 . S
C819 H806 0.929 . S
C819 C811 1.433 . S
C819 N821 1.384 . S
N820 C816 1.427 . S
N820 C817 1.384 . S
N821 C813 1.427 . S
N821 C819 1.384 . S
H822 C828 0.930 . S
H823 C832 0.930 . S
H824 C837 0.929 . S
H825 C835 0.929 . S
H826 C830 0.929 . S
H827 C836 0.932 . S
C828 H822 0.930 . S
C828 C829 1.367 . S
C828 C836 1.378 . S
C829 C828 1.367 . S
C829 C837 1.433 . S
C830 H826 0.929 . S
C830 C832 1.378 . S
C830 C834 1.350 . S
C831 C834 1.463 . S
C831 C836 1.350 1_554 S
C831 N839 1.427 . S
C832 H823 0.930 . S
C832 C830 1.378 . S
C832 C833 1.367 . S
C833 C832 1.367 . S
C833 C835 1.433 . S
C834 C830 1.350 . S
C834 C831 1.463 . S
C834 N838 1.427 . S
C835 H825 0.929 . S
C835 C833 1.433 . S
C835 N838 1.384 . S
C836 H827 0.932 . S
C836 C828 1.378 . S
C836 C831 1.350 1_556 S
C837 H824 0.929 . S
C837 C829 1.433 . S
C837 N839 1.384 1_556 S
N838 C834 1.427 . S
N838 C835 1.384 . S
N839 C831 1.427 . S
N839 C837 1.384 1_554 S
H840 C846 0.930 . S
H841 C850 0.930 . S
H842 C855 0.929 . S
H843 C853 0.929 . S
H844 C848 0.929 . S
H845 C854 0.929 . S
C846 H840 0.930 . S
C846 C847 1.367 . S
C846 C854 1.378 . S
C847 C846 1.367 . S
C847 C855 1.433 . S
C848 H844 0.929 . S
C848 C850 1.378 . S
C848 C852 1.350 . S
C849 C852 1.463 . S
C849 C854 1.350 . S
C849 N857 1.427 . S
C850 H841 0.930 . S
C850 C848 1.378 . S
C850 C851 1.367 . S
C851 C850 1.367 . S
C851 C853 1.433 . S
C852 C848 1.350 . S
C852 C849 1.463 . S
C852 N856 1.427 . S
C853 H843 0.929 . S
C853 C851 1.433 . S
C853 N856 1.384 . S
C854 H845 0.929 . S
C854 C846 1.378 . S
C854 C849 1.350 . S
C855 H842 0.929 . S
C855 C847 1.433 . S
C855 N857 1.384 . S
N856 C852 1.427 . S
N856 C853 1.384 . S
N857 C849 1.427 . S
N857 C855 1.384 . S
H858 C864 0.930 . S
H859 C868 0.930 . S
H860 C873 0.929 . S
H861 C871 0.929 . S
H862 C866 0.929 . S
H863 C872 0.929 . S
C864 H858 0.930 . S
C864 C865 1.367 . S
C864 C872 1.378 . S
C865 C864 1.367 . S
C865 C873 1.433 . S
C866 H862 0.929 . S
C866 C868 1.378 . S
C866 C870 1.350 . S
C867 C870 1.463 . S
C867 C872 1.350 . S
C867 N875 1.427 . S
C868 H859 0.930 . S
C868 C866 1.378 . S
C868 C869 1.367 . S
C869 C868 1.367 . S
C869 C871 1.433 . S
C870 C866 1.350 . S
C870 C867 1.463 . S
C870 N874 1.427 . S
C871 H861 0.929 . S
C871 C869 1.433 . S
C871 N874 1.384 . S
C872 H863 0.929 . S
C872 C864 1.378 . S
C872 C867 1.350 . S
C873 H860 0.929 . S
C873 C865 1.433 . S
C873 N875 1.384 . S
N874 C870 1.427 . S
N874 C871 1.384 . S
N875 C867 1.427 . S
N875 C873 1.384 . S
H876 C882 0.930 . S
H877 C886 0.930 . S
H878 C891 0.929 . S
H879 C889 0.929 . S
H880 C884 0.929 . S
H881 C890 0.929 . S
C882 H876 0.930 . S
C882 C883 1.367 . S
C882 C890 1.378 . S
C883 C882 1.367 . S
C883 C891 1.433 . S
C884 H880 0.929 . S
C884 C886 1.378 . S
C884 C888 1.350 . S
C885 C888 1.463 . S
C885 C890 1.350 . S
C885 N893 1.427 . S
C886 H877 0.930 . S
C886 C884 1.378 . S
C886 C887 1.367 . S
C887 C886 1.367 . S
C887 C889 1.433 . S
C888 C884 1.350 . S
C888 C885 1.463 . S
C888 N892 1.427 . S
C889 H879 0.929 . S
C889 C887 1.433 . S
C889 N892 1.384 . S
C890 H881 0.929 . S
C890 C882 1.378 . S
C890 C885 1.350 . S
C891 H878 0.929 . S
C891 C883 1.433 . S
C891 N893 1.384 . S
N892 C888 1.427 . S
N892 C889 1.384 . S
N893 C885 1.427 . S
N893 C891 1.384 . S
H894 C900 0.930 . S
H895 C904 0.930 . S
H896 C909 0.929 . S
H897 C907 0.929 . S
H898 C902 0.929 . S
H899 C908 0.936 . S
C900 H894 0.930 . S
C900 C901 1.367 . S
C900 C908 1.352 1_554 S
C901 C900 1.367 . S
C901 C909 1.433 . S
C902 H898 0.929 . S
C902 C904 1.378 . S
C902 C906 1.350 . S
C903 C906 1.463 . S
C903 C908 1.368 . S
C903 N911 1.427 . S
C904 H895 0.930 . S
C904 C902 1.378 . S
C904 C905 1.367 . S
C905 C904 1.367 . S
C905 C907 1.433 . S
C906 C902 1.350 . S
C906 C903 1.463 . S
C906 N910 1.427 . S
C907 H897 0.929 . S
C907 C905 1.433 . S
C907 N910 1.384 . S
C908 H899 0.936 . S
C908 C900 1.352 1_556 S
C908 C903 1.368 . S
C909 H896 0.929 . S
C909 C901 1.433 . S
C909 N911 1.384 1_554 S
N910 C906 1.427 . S
N910 C907 1.384 . S
N911 C903 1.427 . S
N911 C909 1.384 1_556 S
H912 C918 0.930 . S
H913 C922 0.930 . S
H914 C927 0.929 . S
H915 C925 0.929 . S
H916 C920 0.929 . S
H917 C926 0.929 . S
C918 H912 0.930 . S
C918 C919 1.367 . S
C918 C926 1.378 . S
C919 C918 1.367 . S
C919 C927 1.433 . S
C920 H916 0.929 . S
C920 C922 1.378 . S
C920 C924 1.350 . S
C921 C924 1.463 . S
C921 C926 1.350 . S
C921 N929 1.427 . S
C922 H913 0.930 . S
C922 C920 1.378 . S
C922 C923 1.367 . S
C923 C922 1.367 . S
C923 C925 1.433 . S
C924 C920 1.350 . S
C924 C921 1.463 . S
C924 N928 1.427 . S
C925 H915 0.929 . S
C925 C923 1.433 . S
C925 N928 1.384 . S
C926 H917 0.929 . S
C926 C918 1.378 . S
C926 C921 1.350 . S
C927 H914 0.929 . S
C927 C919 1.433 . S
C927 N929 1.384 . S
N928 C924 1.427 . S
N928 C925 1.384 . S
N929 C921 1.427 . S
N929 C927 1.384 . S
H930 C936 0.930 . S
H931 C940 0.930 . S
H932 C945 0.929 . S
H933 C943 0.929 . S
H934 C938 0.929 . S
H935 C944 0.929 . S
C936 H930 0.930 . S
C936 C937 1.367 . S
C936 C944 1.378 . S
C937 C936 1.367 . S
C937 C945 1.433 . S
C938 H934 0.929 . S
C938 C940 1.378 . S
C938 C942 1.350 . S
C939 C942 1.463 . S
C939 C944 1.350 . S
C939 N947 1.427 . S
C940 H931 0.930 . S
C940 C938 1.378 . S
C940 C941 1.367 . S
C941 C940 1.367 . S
C941 C943 1.433 . S
C942 C938 1.350 . S
C942 C939 1.463 . S
C942 N946 1.427 . S
C943 H933 0.929 . S
C943 C941 1.433 . S
C943 N946 1.384 . S
C944 H935 0.929 . S
C944 C936 1.378 . S
C944 C939 1.350 . S
C945 H932 0.929 . S
C945 C937 1.433 . S
C945 N947 1.384 . S
N946 C942 1.427 . S
N946 C943 1.384 . S
N947 C939 1.427 . S
N947 C945 1.384 . S
H948 C954 0.930 . S
H949 C958 0.930 . S
H950 C963 0.929 . S
H951 C961 0.929 . S
H952 C956 0.929 . S
H953 C962 0.929 . S
C954 H948 0.930 . S
C954 C955 1.367 . S
C954 C962 1.378 . S
C955 C954 1.367 . S
C955 C963 1.433 . S
C956 H952 0.929 . S
C956 C958 1.378 . S
C956 C960 1.350 . S
C957 C960 1.463 . S
C957 C962 1.350 . S
C957 N965 1.427 . S
C958 H949 0.930 . S
C958 C956 1.378 . S
C958 C959 1.367 . S
C959 C958 1.367 . S
C959 C961 1.433 . S
C960 C956 1.350 . S
C960 C957 1.463 . S
C960 N964 1.427 . S
C961 H951 0.929 . S
C961 C959 1.433 . S
C961 N964 1.384 . S
C962 H953 0.929 . S
C962 C954 1.378 . S
C962 C957 1.350 . S
C963 H950 0.929 . S
C963 C955 1.433 . S
C963 N965 1.384 . S
N964 C960 1.427 . S
N964 C961 1.384 . S
N965 C957 1.427 . S
N965 C963 1.384 . S
H966 C972 0.930 . S
H967 C976 0.930 . S
H968 C981 0.929 . S
H969 C979 0.929 . S
H970 C974 0.929 . S
H971 C980 0.929 . S
C972 H966 0.930 . S
C972 C973 1.367 . S
C972 C980 1.378 . S
C973 C972 1.367 . S
C973 C981 1.433 . S
C974 H970 0.929 . S
C974 C976 1.378 . S
C974 C978 1.350 . S
C975 C978 1.463 . S
C975 C980 1.350 . S
C975 N983 1.427 . S
C976 H967 0.930 . S
C976 C974 1.378 . S
C976 C977 1.367 . S
C977 C976 1.367 . S
C977 C979 1.433 . S
C978 C974 1.350 . S
C978 C975 1.463 . S
C978 N982 1.427 . S
C979 H969 0.929 . S
C979 C977 1.433 . S
C979 N982 1.384 . S
C980 H971 0.929 . S
C980 C972 1.378 . S
C980 C975 1.350 . S
C981 H968 0.929 . S
C981 C973 1.433 . S
C981 N983 1.384 . S
N982 C978 1.427 . S
N982 C979 1.384 . S
N983 C975 1.427 . S
N983 C981 1.384 . S
H984 C990 0.930 . S
H985 C994 0.930 . S
H986 C999 0.929 . S
H987 C997 0.929 . S
H988 C992 0.929 . S
H989 C998 0.929 . S
C990 H984 0.930 . S
C990 C991 1.367 . S
C990 C998 1.378 . S
C991 C990 1.367 . S
C991 C999 1.433 . S
C992 H988 0.929 . S
C992 C994 1.378 1_565 S
C992 C996 1.350 . S
C993 C996 1.463 . S
C993 C998 1.350 . S
C993 N1001 1.427 . S
C994 H985 0.930 . S
C994 C992 1.378 1_545 S
C994 C995 1.367 . S
C995 C994 1.367 . S
C995 C997 1.433 . S
C996 C992 1.350 . S
C996 C993 1.463 . S
C996 N1000 1.422 1_565 S
C997 H987 0.929 . S
C997 C995 1.433 . S
C997 N1000 1.391 . S
C998 H989 0.929 . S
C998 C990 1.378 . S
C998 C993 1.350 . S
C999 H986 0.929 . S
C999 C991 1.433 . S
C999 N1001 1.384 . S
N1000 C996 1.422 1_545 S
N1000 C997 1.391 . S
N1001 C993 1.427 . S
N1001 C999 1.384 . S
H1002 C1008 0.930 . S
H1003 C1012 0.930 . S
H1004 C1017 0.929 . S
H1005 C1015 0.929 . S
H1006 C1010 0.929 . S
H1007 C1016 0.929 . S
C1008 H1002 0.930 . S
C1008 C1009 1.367 . S
C1008 C1016 1.378 . S
C1009 C1008 1.367 . S
C1009 C1017 1.433 . S
C1010 H1006 0.929 . S
C1010 C1012 1.378 . S
C1010 C1014 1.350 . S
C1011 C1014 1.463 . S
C1011 C1016 1.350 . S
C1011 N1019 1.427 . S
C1012 H1003 0.930 . S
C1012 C1010 1.378 . S
C1012 C1013 1.367 . S
C1013 C1012 1.367 . S
C1013 C1015 1.433 . S
C1014 C1010 1.350 . S
C1014 C1011 1.463 . S
C1014 N1018 1.427 . S
C1015 H1005 0.929 . S
C1015 C1013 1.433 . S
C1015 N1018 1.384 . S
C1016 H1007 0.929 . S
C1016 C1008 1.378 . S
C1016 C1011 1.350 . S
C1017 H1004 0.929 . S
C1017 C1009 1.433 . S
C1017 N1019 1.384 . S
N1018 C1014 1.427 . S
N1018 C1015 1.384 . S
N1019 C1011 1.427 . S
N1019 C1017 1.384 . S
H1020 C1026 0.930 . S
H1021 C1030 0.930 . S
H1022 C1035 0.929 . S
H1023 C1033 0.929 . S
H1024 C1028 0.929 . S
H1025 C1034 0.929 . S
C1026 H1020 0.930 . S
C1026 C1027 1.367 . S
C1026 C1034 1.378 . S
C1027 C1026 1.367 . S
C1027 C1035 1.433 . S
C1028 H1024 0.929 . S
C1028 C1030 1.378 . S
C1028 C1032 1.350 . S
C1029 C1032 1.463 . S
C1029 C1034 1.350 . S
C1029 N1037 1.427 . S
C1030 H1021 0.930 . S
C1030 C1028 1.378 . S
C1030 C1031 1.367 . S
C1031 C1030 1.367 . S
C1031 C1033 1.433 . S
C1032 C1028 1.350 . S
C1032 C1029 1.463 . S
C1032 N1036 1.427 . S
C1033 H1023 0.929 . S
C1033 C1031 1.433 . S
C1033 N1036 1.384 . S
C1034 H1025 0.929 . S
C1034 C1026 1.378 . S
C1034 C1029 1.350 . S
C1035 H1022 0.929 . S
C1035 C1027 1.433 . S
C1035 N1037 1.384 . S
N1036 C1032 1.427 . S
N1036 C1033 1.384 . S
N1037 C1029 1.427 . S
N1037 C1035 1.384 . S
H1038 C1044 0.930 . S
H1039 C1048 0.930 . S
H1040 C1053 0.929 . S
H1041 C1051 0.929 . S
H1042 C1046 0.929 . S
H1043 C1052 0.929 . S
C1044 H1038 0.930 . S
C1044 C1045 1.367 . S
C1044 C1052 1.378 . S
C1045 C1044 1.367 . S
C1045 C1053 1.433 . S
C1046 H1042 0.929 . S
C1046 C1048 1.378 . S
C1046 C1050 1.350 . S
C1047 C1050 1.463 . S
C1047 C1052 1.350 . S
C1047 N1055 1.427 . S
C1048 H1039 0.930 . S
C1048 C1046 1.378 . S
C1048 C1049 1.367 . S
C1049 C1048 1.367 . S
C1049 C1051 1.433 . S
C1050 C1046 1.350 . S
C1050 C1047 1.463 . S
C1050 N1054 1.427 . S
C1051 H1041 0.929 . S
C1051 C1049 1.433 . S
C1051 N1054 1.384 . S
C1052 H1043 0.929 . S
C1052 C1044 1.378 . S
C1052 C1047 1.350 . S
C1053 H1040 0.929 . S
C1053 C1045 1.433 . S
C1053 N1055 1.384 . S
N1054 C1050 1.427 . S
N1054 C1051 1.384 . S
N1055 C1047 1.427 . S
N1055 C1053 1.384 . S
H1056 C1062 0.930 . S
H1057 C1066 0.930 . S
H1058 C1071 0.929 . S
H1059 C1069 0.929 . S
H1060 C1064 0.929 . S
H1061 C1070 0.929 . S
C1062 H1056 0.930 . S
C1062 C1063 1.367 . S
C1062 C1070 1.378 . S
C1063 C1062 1.367 . S
C1063 C1071 1.433 . S
C1064 H1060 0.929 . S
C1064 C1066 1.378 . S
C1064 C1068 1.350 . S
C1065 C1068 1.463 . S
C1065 C1070 1.350 . S
C1065 N1073 1.427 . S
C1066 H1057 0.930 . S
C1066 C1064 1.378 . S
C1066 C1067 1.367 . S
C1067 C1066 1.367 . S
C1067 C1069 1.433 . S
C1068 C1064 1.350 . S
C1068 C1065 1.463 . S
C1068 N1072 1.427 . S
C1069 H1059 0.929 . S
C1069 C1067 1.433 . S
C1069 N1072 1.384 . S
C1070 H1061 0.929 . S
C1070 C1062 1.378 . S
C1070 C1065 1.350 . S
C1071 H1058 0.929 . S
C1071 C1063 1.433 . S
C1071 N1073 1.384 . S
N1072 C1068 1.427 . S
N1072 C1069 1.384 . S
N1073 C1065 1.427 . S
N1073 C1071 1.384 . S
H1074 C1080 0.930 . S
H1075 C1084 0.930 . S
H1076 C1089 0.929 . S
H1077 C1087 0.929 . S
H1078 C1082 0.929 . S
H1079 C1088 0.932 . S
C1080 H1074 0.930 . S
C1080 C1081 1.367 . S
C1080 C1088 1.364 1_655 S
C1081 C1080 1.367 . S
C1081 C1089 1.433 . S
C1082 H1078 0.929 . S
C1082 C1084 1.378 . S
C1082 C1086 1.350 . S
C1083 C1086 1.463 . S
C1083 C1088 1.360 . S
C1083 N1091 1.427 . S
C1084 H1075 0.930 . S
C1084 C1082 1.378 . S
C1084 C1085 1.367 . S
C1085 C1084 1.367 . S
C1085 C1087 1.433 . S
C1086 C1082 1.350 . S
C1086 C1083 1.463 . S
C1086 N1090 1.427 . S
C1087 H1077 0.929 . S
C1087 C1085 1.433 . S
C1087 N1090 1.384 . S
C1088 H1079 0.932 . S
C1088 C1080 1.364 1_455 S
C1088 C1083 1.360 . S
C1089 H1076 0.929 . S
C1089 C1081 1.433 . S
C1089 N1091 1.384 1_655 S
N1090 C1086 1.427 . S
N1090 C1087 1.384 . S
N1091 C1083 1.427 . S
N1091 C1089 1.384 1_455 S
H1092 C1098 0.930 . S
H1093 C1102 0.930 . S
H1094 C1107 0.929 . S
H1095 C1105 0.929 . S
H1096 C1100 0.929 . S
H1097 C1106 0.929 . S
C1098 H1092 0.930 . S
C1098 C1099 1.367 . S
C1098 C1106 1.378 . S
C1099 C1098 1.367 . S
C1099 C1107 1.433 . S
C1100 H1096 0.929 . S
C1100 C1102 1.378 . S
C1100 C1104 1.350 . S
C1101 C1104 1.463 . S
C1101 C1106 1.350 . S
C1101 N1109 1.427 . S
C1102 H1093 0.930 . S
C1102 C1100 1.378 . S
C1102 C1103 1.367 . S
C1103 C1102 1.367 . S
C1103 C1105 1.433 . S
C1104 C1100 1.350 . S
C1104 C1101 1.463 . S
C1104 N1108 1.427 . S
C1105 H1095 0.929 . S
C1105 C1103 1.433 . S
C1105 N1108 1.384 . S
C1106 H1097 0.929 . S
C1106 C1098 1.378 . S
C1106 C1101 1.350 . S
C1107 H1094 0.929 . S
C1107 C1099 1.433 . S
C1107 N1109 1.384 . S
N1108 C1104 1.427 . S
N1108 C1105 1.384 . S
N1109 C1101 1.427 . S
N1109 C1107 1.384 . S
H1110 C1116 0.930 . S
H1111 C1120 0.930 . S
H1112 C1125 0.929 . S
H1113 C1123 0.929 . S
H1114 C1118 0.929 . S
H1115 C1124 0.929 . S
C1116 H1110 0.930 . S
C1116 C1117 1.367 . S
C1116 C1124 1.378 . S
C1117 C1116 1.367 . S
C1117 C1125 1.433 . S
C1118 H1114 0.929 . S
C1118 C1120 1.378 . S
C1118 C1122 1.350 . S
C1119 C1122 1.463 . S
C1119 C1124 1.350 . S
C1119 N1127 1.427 . S
C1120 H1111 0.930 . S
C1120 C1118 1.378 . S
C1120 C1121 1.367 . S
C1121 C1120 1.367 . S
C1121 C1123 1.433 . S
C1122 C1118 1.350 . S
C1122 C1119 1.463 . S
C1122 N1126 1.427 . S
C1123 H1113 0.929 . S
C1123 C1121 1.433 . S
C1123 N1126 1.384 . S
C1124 H1115 0.929 . S
C1124 C1116 1.378 . S
C1124 C1119 1.350 . S
C1125 H1112 0.929 . S
C1125 C1117 1.433 . S
C1125 N1127 1.384 . S
N1126 C1122 1.427 . S
N1126 C1123 1.384 . S
N1127 C1119 1.427 . S
N1127 C1125 1.384 . S
H1128 C1134 0.930 . S
H1129 C1138 0.930 . S
H1130 C1143 0.929 . S
H1131 C1141 0.929 . S
H1132 C1136 0.929 . S
H1133 C1142 0.929 . S
C1134 H1128 0.930 . S
C1134 C1135 1.367 . S
C1134 C1142 1.378 . S
C1135 C1134 1.367 . S
C1135 C1143 1.433 . S
C1136 H1132 0.929 . S
C1136 C1138 1.378 . S
C1136 C1140 1.350 . S
C1137 C1140 1.463 . S
C1137 C1142 1.350 . S
C1137 N1145 1.427 . S
C1138 H1129 0.930 . S
C1138 C1136 1.378 . S
C1138 C1139 1.367 . S
C1139 C1138 1.367 . S
C1139 C1141 1.433 . S
C1140 C1136 1.350 . S
C1140 C1137 1.463 . S
C1140 N1144 1.427 . S
C1141 H1131 0.929 . S
C1141 C1139 1.433 . S
C1141 N1144 1.384 . S
C1142 H1133 0.929 . S
C1142 C1134 1.378 . S
C1142 C1137 1.350 . S
C1143 H1130 0.929 . S
C1143 C1135 1.433 . S
C1143 N1145 1.384 . S
N1144 C1140 1.427 . S
N1144 C1141 1.384 . S
N1145 C1137 1.427 . S
N1145 C1143 1.384 . S
H1146 C1152 0.930 . S
H1147 C1156 0.930 . S
H1148 C1161 0.929 . S
H1149 C1159 0.929 . S
H1150 C1154 0.929 . S
H1151 C1160 0.929 . S
C1152 H1146 0.930 . S
C1152 C1153 1.367 . S
C1152 C1160 1.378 . S
C1153 C1152 1.367 . S
C1153 C1161 1.433 . S
C1154 H1150 0.929 . S
C1154 C1156 1.378 . S
C1154 C1158 1.350 . S
C1155 C1158 1.463 . S
C1155 C1160 1.350 . S
C1155 N1163 1.427 . S
C1156 H1147 0.930 . S
C1156 C1154 1.378 . S
C1156 C1157 1.367 . S
C1157 C1156 1.367 . S
C1157 C1159 1.433 . S
C1158 C1154 1.350 . S
C1158 C1155 1.463 . S
C1158 N1162 1.427 . S
C1159 H1149 0.929 . S
C1159 C1157 1.433 . S
C1159 N1162 1.384 . S
C1160 H1151 0.929 . S
C1160 C1152 1.378 . S
C1160 C1155 1.350 . S
C1161 H1148 0.929 . S
C1161 C1153 1.433 . S
C1161 N1163 1.384 . S
N1162 C1158 1.427 . S
N1162 C1159 1.384 . S
N1163 C1155 1.427 . S
N1163 C1161 1.384 . S
H1164 C1170 0.930 . S
H1165 C1174 0.930 . S
H1166 C1179 0.929 . S
H1167 C1177 0.929 . S
H1168 C1172 0.929 . S
H1169 C1178 0.929 . S
C1170 H1164 0.930 . S
C1170 C1171 1.367 . S
C1170 C1178 1.378 . S
C1171 C1170 1.367 . S
C1171 C1179 1.433 . S
C1172 H1168 0.929 . S
C1172 C1174 1.378 . S
C1172 C1176 1.350 . S
C1173 C1176 1.463 . S
C1173 C1178 1.350 . S
C1173 N1181 1.427 . S
C1174 H1165 0.930 . S
C1174 C1172 1.378 . S
C1174 C1175 1.367 . S
C1175 C1174 1.367 . S
C1175 C1177 1.433 . S
C1176 C1172 1.350 . S
C1176 C1173 1.463 . S
C1176 N1180 1.427 . S
C1177 H1167 0.929 . S
C1177 C1175 1.433 . S
C1177 N1180 1.384 . S
C1178 H1169 0.929 . S
C1178 C1170 1.378 . S
C1178 C1173 1.350 . S
C1179 H1166 0.929 . S
C1179 C1171 1.433 . S
C1179 N1181 1.384 . S
N1180 C1176 1.427 . S
N1180 C1177 1.384 . S
N1181 C1173 1.427 . S
N1181 C1179 1.384 . S
H1182 C1188 0.930 . S
H1183 C1192 0.930 . S
H1184 C1197 0.929 . S
H1185 C1195 0.929 . S
H1186 C1190 0.929 . S
H1187 C1196 0.929 . S
C1188 H1182 0.930 . S
C1188 C1189 1.367 . S
C1188 C1196 1.378 . S
C1189 C1188 1.367 . S
C1189 C1197 1.433 . S
C1190 H1186 0.929 . S
C1190 C1192 1.378 1_455 S
C1190 C1194 1.350 . S
C1191 C1194 1.463 . S
C1191 C1196 1.350 . S
C1191 N1199 1.427 . S
C1192 H1183 0.930 . S
C1192 C1190 1.378 1_655 S
C1192 C1193 1.367 . S
C1193 C1192 1.367 . S
C1193 C1195 1.433 . S
C1194 C1190 1.350 . S
C1194 C1191 1.463 . S
C1194 N1198 1.427 . S
C1195 H1185 0.929 . S
C1195 C1193 1.433 . S
C1195 N1198 1.384 1_655 S
C1196 H1187 0.929 . S
C1196 C1188 1.378 . S
C1196 C1191 1.350 . S
C1197 H1184 0.929 . S
C1197 C1189 1.433 . S
C1197 N1199 1.384 . S
N1198 C1194 1.427 . S
N1198 C1195 1.384 1_455 S
N1199 C1191 1.427 . S
N1199 C1197 1.384 . S
H1200 C1206 0.930 . S
H1201 C1210 0.930 . S
H1202 C1215 0.929 . S
H1203 C1213 0.929 . S
H1204 C1208 0.929 . S
H1205 C1214 0.929 . S
C1206 H1200 0.930 . S
C1206 C1207 1.367 . S
C1206 C1214 1.378 . S
C1207 C1206 1.367 . S
C1207 C1215 1.433 . S
C1208 H1204 0.929 . S
C1208 C1210 1.378 . S
C1208 C1212 1.350 . S
C1209 C1212 1.463 . S
C1209 C1214 1.350 . S
C1209 N1217 1.427 . S
C1210 H1201 0.930 . S
C1210 C1208 1.378 . S
C1210 C1211 1.367 . S
C1211 C1210 1.367 . S
C1211 C1213 1.433 . S
C1212 C1208 1.350 . S
C1212 C1209 1.463 . S
C1212 N1216 1.427 . S
C1213 H1203 0.929 . S
C1213 C1211 1.433 . S
C1213 N1216 1.384 . S
C1214 H1205 0.929 . S
C1214 C1206 1.378 . S
C1214 C1209 1.350 . S
C1215 H1202 0.929 . S
C1215 C1207 1.433 . S
C1215 N1217 1.384 . S
N1216 C1212 1.427 . S
N1216 C1213 1.384 . S
N1217 C1209 1.427 . S
N1217 C1215 1.384 . S
H1218 C1224 0.930 . S
H1219 C1228 0.930 . S
H1220 C1233 0.929 . S
H1221 C1231 0.929 . S
H1222 C1226 0.929 . S
H1223 C1232 0.929 . S
C1224 H1218 0.930 . S
C1224 C1225 1.367 . S
C1224 C1232 1.378 . S
C1225 C1224 1.367 . S
C1225 C1233 1.433 . S
C1226 H1222 0.929 . S
C1226 C1228 1.378 . S
C1226 C1230 1.350 . S
C1227 C1230 1.463 . S
C1227 C1232 1.350 . S
C1227 N1235 1.427 . S
C1228 H1219 0.930 . S
C1228 C1226 1.378 . S
C1228 C1229 1.367 . S
C1229 C1228 1.367 . S
C1229 C1231 1.433 . S
C1230 C1226 1.350 . S
C1230 C1227 1.463 . S
C1230 N1234 1.427 . S
C1231 H1221 0.929 . S
C1231 C1229 1.433 . S
C1231 N1234 1.384 . S
C1232 H1223 0.929 . S
C1232 C1224 1.378 . S
C1232 C1227 1.350 . S
C1233 H1220 0.929 . S
C1233 C1225 1.433 . S
C1233 N1235 1.384 . S
N1234 C1230 1.427 . S
N1234 C1231 1.384 . S
N1235 C1227 1.427 . S
N1235 C1233 1.384 . S
H1236 C1242 0.930 . S
H1237 C1246 0.930 . S
H1238 C1251 0.929 . S
H1239 C1249 0.929 . S
H1240 C1244 0.929 . S
H1241 C1250 0.929 . S
C1242 H1236 0.930 . S
C1242 C1243 1.367 . S
C1242 C1250 1.378 . S
C1243 C1242 1.367 . S
C1243 C1251 1.433 . S
C1244 H1240 0.929 . S
C1244 C1246 1.378 . S
C1244 C1248 1.350 . S
C1245 C1248 1.463 . S
C1245 C1250 1.350 . S
C1245 N1253 1.427 . S
C1246 H1237 0.930 . S
C1246 C1244 1.378 . S
C1246 C1247 1.367 . S
C1247 C1246 1.367 . S
C1247 C1249 1.433 . S
C1248 C1244 1.350 . S
C1248 C1245 1.463 . S
C1248 N1252 1.427 . S
C1249 H1239 0.929 . S
C1249 C1247 1.433 . S
C1249 N1252 1.384 . S
C1250 H1241 0.929 . S
C1250 C1242 1.378 . S
C1250 C1245 1.350 . S
C1251 H1238 0.929 . S
C1251 C1243 1.433 . S
C1251 N1253 1.384 . S
N1252 C1248 1.427 . S
N1252 C1249 1.384 . S
N1253 C1245 1.427 . S
N1253 C1251 1.384 . S
H1254 C1260 0.930 . S
H1255 C1264 0.930 . S
H1256 C1269 0.929 . S
H1257 C1267 0.929 . S
H1258 C1262 0.929 . S
H1259 C1268 0.929 . S
C1260 H1254 0.930 . S
C1260 C1261 1.367 . S
C1260 C1268 1.378 . S
C1261 C1260 1.367 . S
C1261 C1269 1.433 . S
C1262 H1258 0.929 . S
C1262 C1264 1.378 1_556 S
C1262 C1266 1.350 . S
C1263 C1266 1.463 . S
C1263 C1268 1.350 . S
C1263 N1271 1.427 . S
C1264 H1255 0.930 . S
C1264 C1262 1.378 1_554 S
C1264 C1265 1.367 . S
C1265 C1264 1.367 . S
C1265 C1267 1.433 . S
C1266 C1262 1.350 . S
C1266 C1263 1.463 . S
C1266 N1270 1.427 1_556 S
C1267 H1257 0.929 . S
C1267 C1265 1.433 . S
C1267 N1270 1.384 . S
C1268 H1259 0.929 . S
C1268 C1260 1.378 . S
C1268 C1263 1.350 . S
C1269 H1256 0.929 . S
C1269 C1261 1.433 . S
C1269 N1271 1.384 . S
N1270 C1266 1.427 1_554 S
N1270 C1267 1.384 . S
N1271 C1263 1.427 . S
N1271 C1269 1.384 . S
H1272 C1278 0.930 . S
H1273 C1282 0.930 . S
H1274 C1287 0.929 . S
H1275 C1285 0.929 . S
H1276 C1280 0.929 . S
H1277 C1286 0.929 . S
C1278 H1272 0.930 . S
C1278 C1279 1.367 . S
C1278 C1286 1.378 . S
C1279 C1278 1.367 . S
C1279 C1287 1.433 . S
C1280 H1276 0.929 . S
C1280 C1282 1.378 . S
C1280 C1284 1.350 . S
C1281 C1284 1.463 . S
C1281 C1286 1.350 . S
C1281 N1289 1.427 . S
C1282 H1273 0.930 . S
C1282 C1280 1.378 . S
C1282 C1283 1.367 . S
C1283 C1282 1.367 . S
C1283 C1285 1.433 . S
C1284 C1280 1.350 . S
C1284 C1281 1.463 . S
C1284 N1288 1.427 . S
C1285 H1275 0.929 . S
C1285 C1283 1.433 . S
C1285 N1288 1.384 . S
C1286 H1277 0.929 . S
C1286 C1278 1.378 . S
C1286 C1281 1.350 . S
C1287 H1274 0.929 . S
C1287 C1279 1.433 . S
C1287 N1289 1.384 . S
N1288 C1284 1.427 . S
N1288 C1285 1.384 . S
N1289 C1281 1.427 . S
N1289 C1287 1.384 . S
H1290 C1296 0.930 . S
H1291 C1300 0.930 . S
H1292 C1305 0.929 . S
H1293 C1303 0.929 . S
H1294 C1298 0.929 . S
H1295 C1304 0.929 . S
C1296 H1290 0.930 . S
C1296 C1297 1.367 . S
C1296 C1304 1.378 . S
C1297 C1296 1.367 . S
C1297 C1305 1.433 . S
C1298 H1294 0.929 . S
C1298 C1300 1.378 . S
C1298 C1302 1.350 . S
C1299 C1302 1.463 . S
C1299 C1304 1.350 . S
C1299 N1307 1.427 . S
C1300 H1291 0.930 . S
C1300 C1298 1.378 . S
C1300 C1301 1.367 . S
C1301 C1300 1.367 . S
C1301 C1303 1.433 . S
C1302 C1298 1.350 . S
C1302 C1299 1.463 . S
C1302 N1306 1.427 . S
C1303 H1293 0.929 . S
C1303 C1301 1.433 . S
C1303 N1306 1.384 . S
C1304 H1295 0.929 . S
C1304 C1296 1.378 . S
C1304 C1299 1.350 . S
C1305 H1292 0.929 . S
C1305 C1297 1.433 . S
C1305 N1307 1.384 . S
N1306 C1302 1.427 . S
N1306 C1303 1.384 . S
N1307 C1299 1.427 . S
N1307 C1305 1.384 . S
H1308 C1314 0.930 . S
H1309 C1318 0.930 . S
H1310 C1323 0.929 . S
H1311 C1321 0.929 . S
H1312 C1316 0.929 . S
H1313 C1322 0.929 . S
C1314 H1308 0.930 . S
C1314 C1315 1.367 . S
C1314 C1322 1.378 . S
C1315 C1314 1.367 . S
C1315 C1323 1.433 . S
C1316 H1312 0.929 . S
C1316 C1318 1.378 . S
C1316 C1320 1.350 . S
C1317 C1320 1.463 . S
C1317 C1322 1.350 . S
C1317 N1325 1.427 . S
C1318 H1309 0.930 . S
C1318 C1316 1.378 . S
C1318 C1319 1.367 . S
C1319 C1318 1.367 . S
C1319 C1321 1.433 . S
C1320 C1316 1.350 . S
C1320 C1317 1.463 . S
C1320 N1324 1.427 . S
C1321 H1311 0.929 . S
C1321 C1319 1.433 . S
C1321 N1324 1.384 . S
C1322 H1313 0.929 . S
C1322 C1314 1.378 . S
C1322 C1317 1.350 . S
C1323 H1310 0.929 . S
C1323 C1315 1.433 . S
C1323 N1325 1.384 . S
N1324 C1320 1.427 . S
N1324 C1321 1.384 . S
N1325 C1317 1.427 . S
N1325 C1323 1.384 . S
H1326 C1332 0.930 . S
H1327 C1336 0.930 . S
H1328 C1341 0.929 . S
H1329 C1339 0.929 . S
H1330 C1334 0.929 . S
H1331 C1340 0.929 1_554 S
C1332 H1326 0.930 . S
C1332 C1333 1.367 . S
C1332 C1340 1.378 . S
C1333 C1332 1.367 . S
C1333 C1341 1.433 . S
C1334 H1330 0.929 . S
C1334 C1336 1.378 . S
C1334 C1338 1.350 . S
C1335 C1338 1.463 . S
C1335 C1340 1.350 1_554 S
C1335 N1343 1.427 1_554 S
C1336 H1327 0.930 . S
C1336 C1334 1.378 . S
C1336 C1337 1.367 . S
C1337 C1336 1.367 . S
C1337 C1339 1.433 . S
C1338 C1334 1.350 . S
C1338 C1335 1.463 . S
C1338 N1342 1.427 . S
C1339 H1329 0.929 . S
C1339 C1337 1.433 . S
C1339 N1342 1.384 . S
C1340 H1331 0.929 1_556 S
C1340 C1332 1.378 . S
C1340 C1335 1.350 1_556 S
C1341 H1328 0.929 . S
C1341 C1333 1.433 . S
C1341 N1343 1.384 . S
N1342 C1338 1.427 . S
N1342 C1339 1.384 . S
N1343 C1335 1.427 1_556 S
N1343 C1341 1.384 . S
H1344 C1350 0.930 . S
H1345 C1354 0.930 . S
H1346 C1359 0.929 . S
H1347 C1357 0.929 . S
H1348 C1352 0.929 . S
H1349 C1358 0.929 . S
C1350 H1344 0.930 . S
C1350 C1351 1.367 . S
C1350 C1358 1.378 . S
C1351 C1350 1.367 . S
C1351 C1359 1.433 . S
C1352 H1348 0.929 . S
C1352 C1354 1.378 . S
C1352 C1356 1.350 . S
C1353 C1356 1.463 . S
C1353 C1358 1.350 . S
C1353 N1361 1.427 . S
C1354 H1345 0.930 . S
C1354 C1352 1.378 . S
C1354 C1355 1.367 . S
C1355 C1354 1.367 . S
C1355 C1357 1.433 . S
C1356 C1352 1.350 . S
C1356 C1353 1.463 . S
C1356 N1360 1.427 . S
C1357 H1347 0.929 . S
C1357 C1355 1.433 . S
C1357 N1360 1.384 . S
C1358 H1349 0.929 . S
C1358 C1350 1.378 . S
C1358 C1353 1.350 . S
C1359 H1346 0.929 . S
C1359 C1351 1.433 . S
C1359 N1361 1.384 . S
N1360 C1356 1.427 . S
N1360 C1357 1.384 . S
N1361 C1353 1.427 . S
N1361 C1359 1.384 . S
H1362 C1368 0.930 . S
H1363 C1372 0.930 . S
H1364 C1377 0.929 . S
H1365 C1375 0.929 . S
H1366 C1370 0.929 . S
H1367 C1376 0.929 . S
C1368 H1362 0.930 . S
C1368 C1369 1.367 . S
C1368 C1376 1.378 . S
C1369 C1368 1.367 . S
C1369 C1377 1.433 . S
C1370 H1366 0.929 . S
C1370 C1372 1.378 . S
C1370 C1374 1.350 . S
C1371 C1374 1.463 . S
C1371 C1376 1.350 . S
C1371 N1379 1.427 . S
C1372 H1363 0.930 . S
C1372 C1370 1.378 . S
C1372 C1373 1.367 . S
C1373 C1372 1.367 . S
C1373 C1375 1.433 . S
C1374 C1370 1.350 . S
C1374 C1371 1.463 . S
C1374 N1378 1.427 . S
C1375 H1365 0.929 . S
C1375 C1373 1.433 . S
C1375 N1378 1.384 . S
C1376 H1367 0.929 . S
C1376 C1368 1.378 . S
C1376 C1371 1.350 . S
C1377 H1364 0.929 . S
C1377 C1369 1.433 . S
C1377 N1379 1.384 . S
N1378 C1374 1.427 . S
N1378 C1375 1.384 . S
N1379 C1371 1.427 . S
N1379 C1377 1.384 . S
H1380 C1386 0.930 . S
H1381 C1390 0.930 . S
H1382 C1395 0.929 . S
H1383 C1393 0.929 . S
H1384 C1388 0.929 . S
H1385 C1394 0.929 . S
C1386 H1380 0.930 . S
C1386 C1387 1.367 . S
C1386 C1394 1.378 . S
C1387 C1386 1.367 . S
C1387 C1395 1.433 . S
C1388 H1384 0.929 . S
C1388 C1390 1.378 . S
C1388 C1392 1.350 . S
C1389 C1392 1.463 . S
C1389 C1394 1.350 . S
C1389 N1397 1.427 . S
C1390 H1381 0.930 . S
C1390 C1388 1.378 . S
C1390 C1391 1.367 . S
C1391 C1390 1.367 . S
C1391 C1393 1.433 . S
C1392 C1388 1.350 . S
C1392 C1389 1.463 . S
C1392 N1396 1.427 . S
C1393 H1383 0.929 . S
C1393 C1391 1.433 . S
C1393 N1396 1.384 . S
C1394 H1385 0.929 . S
C1394 C1386 1.378 . S
C1394 C1389 1.350 . S
C1395 H1382 0.929 . S
C1395 C1387 1.433 . S
C1395 N1397 1.384 . S
N1396 C1392 1.427 . S
N1396 C1393 1.384 . S
N1397 C1389 1.427 . S
N1397 C1395 1.384 . S
H1398 C1404 0.930 . S
H1399 C1408 0.930 . S
H1400 C1413 0.929 . S
H1401 C1411 0.929 . S
H1402 C1406 0.929 . S
H1403 C1412 0.929 . S
C1404 H1398 0.930 . S
C1404 C1405 1.367 . S
C1404 C1412 1.378 . S
C1405 C1404 1.367 . S
C1405 C1413 1.433 . S
C1406 H1402 0.929 . S
C1406 C1408 1.378 . S
C1406 C1410 1.350 . S
C1407 C1410 1.463 . S
C1407 C1412 1.350 . S
C1407 N1415 1.427 . S
C1408 H1399 0.930 . S
C1408 C1406 1.378 . S
C1408 C1409 1.367 . S
C1409 C1408 1.367 . S
C1409 C1411 1.433 . S
C1410 C1406 1.350 . S
C1410 C1407 1.463 . S
C1410 N1414 1.427 . S
C1411 H1401 0.929 . S
C1411 C1409 1.433 . S
C1411 N1414 1.384 . S
C1412 H1403 0.929 . S
C1412 C1404 1.378 . S
C1412 C1407 1.350 . S
C1413 H1400 0.929 . S
C1413 C1405 1.433 . S
C1413 N1415 1.384 . S
N1414 C1410 1.427 . S
N1414 C1411 1.384 . S
N1415 C1407 1.427 . S
N1415 C1413 1.384 . S
H1416 C1422 0.930 . S
H1417 C1426 0.930 . S
H1418 C1431 0.929 . S
H1419 C1429 0.929 . S
H1420 C1424 0.929 . S
H1421 C1430 0.929 1_545 S
C1422 H1416 0.930 . S
C1422 C1423 1.367 . S
C1422 C1430 1.378 . S
C1423 C1422 1.367 . S
C1423 C1431 1.433 . S
C1424 H1420 0.929 . S
C1424 C1426 1.378 . S
C1424 C1428 1.350 . S
C1425 C1428 1.463 . S
C1425 C1430 1.350 1_545 S
C1425 N1433 1.427 . S
C1426 H1417 0.930 . S
C1426 C1424 1.378 . S
C1426 C1427 1.367 . S
C1427 C1426 1.367 . S
C1427 C1429 1.433 . S
C1428 C1424 1.350 . S
C1428 C1425 1.463 . S
C1428 N1432 1.427 . S
C1429 H1419 0.929 . S
C1429 C1427 1.433 . S
C1429 N1432 1.384 . S
C1430 H1421 0.929 1_565 S
C1430 C1422 1.378 . S
C1430 C1425 1.350 1_565 S
C1431 H1418 0.929 . S
C1431 C1423 1.433 . S
C1431 N1433 1.384 1_565 S
N1432 C1428 1.427 . S
N1432 C1429 1.384 . S
N1433 C1425 1.427 . S
N1433 C1431 1.384 1_545 S
H1434 C1440 0.930 . S
H1435 C1444 0.930 . S
H1436 C1449 0.929 . S
H1437 C1447 0.929 . S
H1438 C1442 0.929 . S
H1439 C1448 0.929 . S
C1440 H1434 0.930 . S
C1440 C1441 1.367 . S
C1440 C1448 1.378 . S
C1441 C1440 1.367 . S
C1441 C1449 1.433 . S
C1442 H1438 0.929 . S
C1442 C1444 1.378 . S
C1442 C1446 1.350 . S
C1443 C1446 1.463 . S
C1443 C1448 1.350 . S
C1443 N1451 1.427 . S
C1444 H1435 0.930 . S
C1444 C1442 1.378 . S
C1444 C1445 1.367 . S
C1445 C1444 1.367 . S
C1445 C1447 1.433 . S
C1446 C1442 1.350 . S
C1446 C1443 1.463 . S
C1446 N1450 1.427 . S
C1447 H1437 0.929 . S
C1447 C1445 1.433 . S
C1447 N1450 1.384 . S
C1448 H1439 0.929 . S
C1448 C1440 1.378 . S
C1448 C1443 1.350 . S
C1449 H1436 0.929 . S
C1449 C1441 1.433 . S
C1449 N1451 1.384 . S
N1450 C1446 1.427 . S
N1450 C1447 1.384 . S
N1451 C1443 1.427 . S
N1451 C1449 1.384 . S
H1452 C1458 0.930 . S
H1453 C1462 0.930 . S
H1454 C1467 0.929 . S
H1455 C1465 0.929 . S
H1456 C1460 0.929 . S
H1457 C1466 0.929 . S
C1458 H1452 0.930 . S
C1458 C1459 1.367 . S
C1458 C1466 1.378 . S
C1459 C1458 1.367 . S
C1459 C1467 1.433 . S
C1460 H1456 0.929 . S
C1460 C1462 1.378 . S
C1460 C1464 1.350 . S
C1461 C1464 1.463 . S
C1461 C1466 1.350 . S
C1461 N1469 1.427 . S
C1462 H1453 0.930 . S
C1462 C1460 1.378 . S
C1462 C1463 1.367 . S
C1463 C1462 1.367 . S
C1463 C1465 1.433 . S
C1464 C1460 1.350 . S
C1464 C1461 1.463 . S
C1464 N1468 1.427 . S
C1465 H1455 0.929 . S
C1465 C1463 1.433 . S
C1465 N1468 1.384 . S
C1466 H1457 0.929 . S
C1466 C1458 1.378 . S
C1466 C1461 1.350 . S
C1467 H1454 0.929 . S
C1467 C1459 1.433 . S
C1467 N1469 1.384 . S
N1468 C1464 1.427 . S
N1468 C1465 1.384 . S
N1469 C1461 1.427 . S
N1469 C1467 1.384 . S
H1470 C1476 0.930 . S
H1471 C1480 0.930 . S
H1472 C1485 0.929 . S
H1473 C1483 0.929 . S
H1474 C1478 0.929 . S
H1475 C1484 0.929 . S
C1476 H1470 0.930 . S
C1476 C1477 1.367 . S
C1476 C1484 1.378 . S
C1477 C1476 1.367 . S
C1477 C1485 1.433 . S
C1478 H1474 0.929 . S
C1478 C1480 1.378 . S
C1478 C1482 1.350 . S
C1479 C1482 1.463 . S
C1479 C1484 1.350 . S
C1479 N1487 1.427 . S
C1480 H1471 0.930 . S
C1480 C1478 1.378 . S
C1480 C1481 1.367 . S
C1481 C1480 1.367 . S
C1481 C1483 1.433 . S
C1482 C1478 1.350 . S
C1482 C1479 1.463 . S
C1482 N1486 1.427 . S
C1483 H1473 0.929 . S
C1483 C1481 1.433 . S
C1483 N1486 1.384 . S
C1484 H1475 0.929 . S
C1484 C1476 1.378 . S
C1484 C1479 1.350 . S
C1485 H1472 0.929 . S
C1485 C1477 1.433 . S
C1485 N1487 1.384 . S
N1486 C1482 1.427 . S
N1486 C1483 1.384 . S
N1487 C1479 1.427 . S
N1487 C1485 1.384 . S
H1488 C1494 0.930 . S
H1489 C1498 0.930 . S
H1490 C1503 0.929 . S
H1491 C1501 0.929 . S
H1492 C1496 0.929 . S
H1493 C1502 0.929 . S
C1494 H1488 0.930 . S
C1494 C1495 1.367 . S
C1494 C1502 1.378 . S
C1495 C1494 1.367 . S
C1495 C1503 1.433 . S
C1496 H1492 0.929 . S
C1496 C1498 1.378 . S
C1496 C1500 1.350 . S
C1497 C1500 1.463 . S
C1497 C1502 1.350 . S
C1497 N1505 1.427 . S
C1498 H1489 0.930 . S
C1498 C1496 1.378 . S
C1498 C1499 1.367 . S
C1499 C1498 1.367 . S
C1499 C1501 1.433 . S
C1500 C1496 1.350 . S
C1500 C1497 1.463 . S
C1500 N1504 1.427 . S
C1501 H1491 0.929 . S
C1501 C1499 1.433 . S
C1501 N1504 1.384 . S
C1502 H1493 0.929 . S
C1502 C1494 1.378 . S
C1502 C1497 1.350 . S
C1503 H1490 0.929 . S
C1503 C1495 1.433 . S
C1503 N1505 1.384 . S
N1504 C1500 1.427 . S
N1504 C1501 1.384 . S
N1505 C1497 1.427 . S
N1505 C1503 1.384 . S
H1506 C1512 0.930 . S
H1507 C1516 0.930 . S
H1508 C1521 0.929 . S
H1509 C1519 0.929 . S
H1510 C1514 0.929 . S
H1511 C1520 0.929 . S
C1512 H1506 0.930 . S
C1512 C1513 1.367 . S
C1512 C1520 1.378 . S
C1513 C1512 1.367 . S
C1513 C1521 1.433 . S
C1514 H1510 0.929 . S
C1514 C1516 1.378 . S
C1514 C1518 1.350 . S
C1515 C1518 1.463 . S
C1515 C1520 1.350 . S
C1515 N1523 1.427 . S
C1516 H1507 0.930 . S
C1516 C1514 1.378 . S
C1516 C1517 1.367 . S
C1517 C1516 1.367 . S
C1517 C1519 1.433 . S
C1518 C1514 1.350 . S
C1518 C1515 1.463 . S
C1518 N1522 1.427 . S
C1519 H1509 0.929 . S
C1519 C1517 1.433 . S
C1519 N1522 1.384 . S
C1520 H1511 0.929 . S
C1520 C1512 1.378 . S
C1520 C1515 1.350 . S
C1521 H1508 0.929 . S
C1521 C1513 1.433 . S
C1521 N1523 1.384 . S
N1522 C1518 1.427 . S
N1522 C1519 1.384 . S
N1523 C1515 1.427 . S
N1523 C1521 1.384 . S
H1524 C1530 0.930 . S
H1525 C1534 0.930 . S
H1526 C1539 0.929 . S
H1527 C1537 0.929 . S
H1528 C1532 0.929 . S
H1529 C1538 0.929 . S
C1530 H1524 0.930 . S
C1530 C1531 1.367 . S
C1530 C1538 1.378 . S
C1531 C1530 1.367 . S
C1531 C1539 1.433 . S
C1532 H1528 0.929 . S
C1532 C1534 1.378 . S
C1532 C1536 1.350 . S
C1533 C1536 1.463 . S
C1533 C1538 1.350 . S
C1533 N1541 1.427 . S
C1534 H1525 0.930 . S
C1534 C1532 1.378 . S
C1534 C1535 1.367 . S
C1535 C1534 1.367 . S
C1535 C1537 1.433 . S
C1536 C1532 1.350 . S
C1536 C1533 1.463 . S
C1536 N1540 1.427 . S
C1537 H1527 0.929 . S
C1537 C1535 1.433 . S
C1537 N1540 1.384 . S
C1538 H1529 0.929 . S
C1538 C1530 1.378 . S
C1538 C1533 1.350 . S
C1539 H1526 0.929 . S
C1539 C1531 1.433 . S
C1539 N1541 1.384 . S
N1540 C1536 1.427 . S
N1540 C1537 1.384 . S
N1541 C1533 1.427 . S
N1541 C1539 1.384 . S
H1542 C1548 0.930 . S
H1543 C1552 0.930 . S
H1544 C1557 0.929 . S
H1545 C1555 0.929 . S
H1546 C1550 0.929 . S
H1547 C1556 0.929 . S
C1548 H1542 0.930 . S
C1548 C1549 1.367 . S
C1548 C1556 1.378 1_655 S
C1549 C1548 1.367 . S
C1549 C1557 1.433 . S
C1550 H1546 0.929 . S
C1550 C1552 1.378 . S
C1550 C1554 1.350 . S
C1551 C1554 1.463 . S
C1551 C1556 1.350 . S
C1551 N1559 1.427 1_455 S
C1552 H1543 0.930 . S
C1552 C1550 1.378 . S
C1552 C1553 1.367 . S
C1553 C1552 1.367 . S
C1553 C1555 1.433 . S
C1554 C1550 1.350 . S
C1554 C1551 1.463 . S
C1554 N1558 1.427 . S
C1555 H1545 0.929 . S
C1555 C1553 1.433 . S
C1555 N1558 1.384 . S
C1556 H1547 0.929 . S
C1556 C1548 1.378 1_455 S
C1556 C1551 1.350 . S
C1557 H1544 0.929 . S
C1557 C1549 1.433 . S
C1557 N1559 1.384 . S
N1558 C1554 1.427 . S
N1558 C1555 1.384 . S
N1559 C1551 1.427 1_655 S
N1559 C1557 1.384 . S
H1560 C1566 0.930 . S
H1561 C1570 0.930 . S
H1562 C1575 0.929 . S
H1563 C1573 0.929 . S
H1564 C1568 0.929 . S
H1565 C1574 0.929 . S
C1566 H1560 0.930 . S
C1566 C1567 1.367 . S
C1566 C1574 1.378 . S
C1567 C1566 1.367 . S
C1567 C1575 1.433 . S
C1568 H1564 0.929 . S
C1568 C1570 1.378 . S
C1568 C1572 1.350 . S
C1569 C1572 1.463 . S
C1569 C1574 1.350 . S
C1569 N1577 1.427 . S
C1570 H1561 0.930 . S
C1570 C1568 1.378 . S
C1570 C1571 1.367 . S
C1571 C1570 1.367 . S
C1571 C1573 1.433 . S
C1572 C1568 1.350 . S
C1572 C1569 1.463 . S
C1572 N1576 1.427 . S
C1573 H1563 0.929 . S
C1573 C1571 1.433 . S
C1573 N1576 1.384 . S
C1574 H1565 0.929 . S
C1574 C1566 1.378 . S
C1574 C1569 1.350 . S
C1575 H1562 0.929 . S
C1575 C1567 1.433 . S
C1575 N1577 1.384 . S
N1576 C1572 1.427 . S
N1576 C1573 1.384 . S
N1577 C1569 1.427 . S
N1577 C1575 1.384 . S
H1578 C1584 0.930 . S
H1579 C1588 0.930 . S
H1580 C1593 0.929 . S
H1581 C1591 0.929 . S
H1582 C1586 0.929 1_455 S
H1583 C1592 0.929 . S
C1584 H1578 0.930 . S
C1584 C1585 1.367 . S
C1584 C1592 1.378 . S
C1585 C1584 1.367 . S
C1585 C1593 1.433 . S
C1586 H1582 0.929 1_655 S
C1586 C1588 1.378 . S
C1586 C1590 1.350 1_655 S
C1587 C1590 1.463 . S
C1587 C1592 1.350 . S
C1587 N1595 1.427 . S
C1588 H1579 0.930 . S
C1588 C1586 1.378 . S
C1588 C1589 1.367 . S
C1589 C1588 1.367 . S
C1589 C1591 1.433 . S
C1590 C1586 1.350 1_455 S
C1590 C1587 1.463 . S
C1590 N1594 1.427 1_455 S
C1591 H1581 0.929 . S
C1591 C1589 1.433 . S
C1591 N1594 1.384 . S
C1592 H1583 0.929 . S
C1592 C1584 1.378 . S
C1592 C1587 1.350 . S
C1593 H1580 0.929 . S
C1593 C1585 1.433 . S
C1593 N1595 1.384 . S
N1594 C1590 1.427 1_655 S
N1594 C1591 1.384 . S
N1595 C1587 1.427 . S
N1595 C1593 1.384 . S
H1596 C1602 0.930 . S
H1597 C1606 0.930 . S
H1598 C1611 0.929 . S
H1599 C1609 0.929 . S
H1600 C1604 0.929 . S
H1601 C1610 0.929 . S
C1602 H1596 0.930 . S
C1602 C1603 1.367 . S
C1602 C1610 1.378 . S
C1603 C1602 1.367 . S
C1603 C1611 1.433 . S
C1604 H1600 0.929 . S
C1604 C1606 1.378 . S
C1604 C1608 1.350 . S
C1605 C1608 1.463 . S
C1605 C1610 1.350 . S
C1605 N1613 1.427 . S
C1606 H1597 0.930 . S
C1606 C1604 1.378 . S
C1606 C1607 1.367 . S
C1607 C1606 1.367 . S
C1607 C1609 1.433 . S
C1608 C1604 1.350 . S
C1608 C1605 1.463 . S
C1608 N1612 1.427 . S
C1609 H1599 0.929 . S
C1609 C1607 1.433 . S
C1609 N1612 1.384 . S
C1610 H1601 0.929 . S
C1610 C1602 1.378 . S
C1610 C1605 1.350 . S
C1611 H1598 0.929 . S
C1611 C1603 1.433 . S
C1611 N1613 1.384 . S
N1612 C1608 1.427 . S
N1612 C1609 1.384 . S
N1613 C1605 1.427 . S
N1613 C1611 1.384 . S
H1614 C1620 0.930 . S
H1615 C1624 0.930 . S
H1616 C1629 0.929 . S
H1617 C1627 0.929 . S
H1618 C1622 0.929 . S
H1619 C1628 0.929 . S
C1620 H1614 0.930 . S
C1620 C1621 1.367 . S
C1620 C1628 1.378 . S
C1621 C1620 1.367 . S
C1621 C1629 1.433 . S
C1622 H1618 0.929 . S
C1622 C1624 1.378 . S
C1622 C1626 1.350 . S
C1623 C1626 1.463 . S
C1623 C1628 1.350 . S
C1623 N1631 1.427 . S
C1624 H1615 0.930 . S
C1624 C1622 1.378 . S
C1624 C1625 1.367 . S
C1625 C1624 1.367 . S
C1625 C1627 1.433 . S
C1626 C1622 1.350 . S
C1626 C1623 1.463 . S
C1626 N1630 1.427 . S
C1627 H1617 0.929 . S
C1627 C1625 1.433 . S
C1627 N1630 1.384 . S
C1628 H1619 0.929 . S
C1628 C1620 1.378 . S
C1628 C1623 1.350 . S
C1629 H1616 0.929 . S
C1629 C1621 1.433 . S
C1629 N1631 1.384 . S
N1630 C1626 1.427 . S
N1630 C1627 1.384 . S
N1631 C1623 1.427 . S
N1631 C1629 1.384 . S
H1632 C1638 0.930 . S
H1633 C1642 0.930 . S
H1634 C1647 0.929 . S
H1635 C1645 0.929 . S
H1636 C1640 0.929 . S
H1637 C1646 0.929 . S
C1638 H1632 0.930 . S
C1638 C1639 1.367 . S
C1638 C1646 1.378 . S
C1639 C1638 1.367 . S
C1639 C1647 1.433 . S
C1640 H1636 0.929 . S
C1640 C1642 1.378 . S
C1640 C1644 1.350 . S
C1641 C1644 1.463 . S
C1641 C1646 1.350 . S
C1641 N1649 1.427 . S
C1642 H1633 0.930 . S
C1642 C1640 1.378 . S
C1642 C1643 1.367 . S
C1643 C1642 1.367 . S
C1643 C1645 1.433 . S
C1644 C1640 1.350 . S
C1644 C1641 1.463 . S
C1644 N1648 1.427 . S
C1645 H1635 0.929 . S
C1645 C1643 1.433 . S
C1645 N1648 1.384 . S
C1646 H1637 0.929 . S
C1646 C1638 1.378 . S
C1646 C1641 1.350 . S
C1647 H1634 0.929 . S
C1647 C1639 1.433 . S
C1647 N1649 1.384 . S
N1648 C1644 1.427 . S
N1648 C1645 1.384 . S
N1649 C1641 1.427 . S
N1649 C1647 1.384 . S
H1650 C1656 0.930 . S
H1651 C1660 0.930 . S
H1652 C1665 0.929 . S
H1653 C1663 0.929 . S
H1654 C1658 0.925 1_554 S
H1655 C1664 0.929 . S
C1656 H1650 0.930 . S
C1656 C1657 1.367 . S
C1656 C1664 1.378 . S
C1657 C1656 1.367 . S
C1657 C1665 1.433 . S
C1658 H1654 0.925 1_556 S
C1658 C1660 1.378 . S
C1658 C1662 1.350 1_556 S
C1659 C1662 1.463 . S
C1659 C1664 1.350 . S
C1659 N1667 1.427 . S
C1660 H1651 0.930 . S
C1660 C1658 1.378 . S
C1660 C1661 1.367 . S
C1661 C1660 1.367 . S
C1661 C1663 1.433 . S
C1662 C1658 1.350 1_554 S
C1662 C1659 1.463 . S
C1662 N1666 1.427 . S
C1663 H1653 0.929 . S
C1663 C1661 1.433 . S
C1663 N1666 1.384 1_556 S
C1664 H1655 0.929 . S
C1664 C1656 1.378 . S
C1664 C1659 1.350 . S
C1665 H1652 0.929 . S
C1665 C1657 1.433 . S
C1665 N1667 1.384 . S
N1666 C1662 1.427 . S
N1666 C1663 1.384 1_554 S
N1667 C1659 1.427 . S
N1667 C1665 1.384 . S
H1668 C1674 0.930 . S
H1669 C1678 0.930 . S
H1670 C1683 0.929 . S
H1671 C1681 0.929 . S
H1672 C1676 0.929 . S
H1673 C1682 0.929 . S
C1674 H1668 0.930 . S
C1674 C1675 1.367 . S
C1674 C1682 1.378 . S
C1675 C1674 1.367 . S
C1675 C1683 1.433 . S
C1676 H1672 0.929 . S
C1676 C1678 1.378 . S
C1676 C1680 1.350 . S
C1677 C1680 1.463 . S
C1677 C1682 1.350 . S
C1677 N1685 1.427 . S
C1678 H1669 0.930 . S
C1678 C1676 1.378 . S
C1678 C1679 1.367 . S
C1679 C1678 1.367 . S
C1679 C1681 1.433 . S
C1680 C1676 1.350 . S
C1680 C1677 1.463 . S
C1680 N1684 1.427 . S
C1681 H1671 0.929 . S
C1681 C1679 1.433 . S
C1681 N1684 1.384 . S
C1682 H1673 0.929 . S
C1682 C1674 1.378 . S
C1682 C1677 1.350 . S
C1683 H1670 0.929 . S
C1683 C1675 1.433 . S
C1683 N1685 1.384 . S
N1684 C1680 1.427 . S
N1684 C1681 1.384 . S
N1685 C1677 1.427 . S
N1685 C1683 1.384 . S
H1686 C1692 0.930 . S
H1687 C1696 0.930 . S
H1688 C1701 0.929 . S
H1689 C1699 0.929 . S
H1690 C1694 0.929 . S
H1691 C1700 0.929 . S
C1692 H1686 0.930 . S
C1692 C1693 1.367 . S
C1692 C1700 1.378 . S
C1693 C1692 1.367 . S
C1693 C1701 1.433 . S
C1694 H1690 0.929 . S
C1694 C1696 1.378 . S
C1694 C1698 1.350 . S
C1695 C1698 1.463 . S
C1695 C1700 1.350 . S
C1695 N1703 1.427 . S
C1696 H1687 0.930 . S
C1696 C1694 1.378 . S
C1696 C1697 1.367 . S
C1697 C1696 1.367 . S
C1697 C1699 1.433 . S
C1698 C1694 1.350 . S
C1698 C1695 1.463 . S
C1698 N1702 1.427 . S
C1699 H1689 0.929 . S
C1699 C1697 1.433 . S
C1699 N1702 1.384 . S
C1700 H1691 0.929 . S
C1700 C1692 1.378 . S
C1700 C1695 1.350 . S
C1701 H1688 0.929 . S
C1701 C1693 1.433 . S
C1701 N1703 1.384 . S
N1702 C1698 1.427 . S
N1702 C1699 1.384 . S
N1703 C1695 1.427 . S
N1703 C1701 1.384 . S
H1704 C1710 0.930 . S
H1705 C1714 0.930 . S
H1706 C1719 0.929 . S
H1707 C1717 0.929 . S
H1708 C1712 0.929 . S
H1709 C1718 0.929 . S
C1710 H1704 0.930 . S
C1710 C1711 1.367 . S
C1710 C1718 1.378 . S
C1711 C1710 1.367 . S
C1711 C1719 1.433 . S
C1712 H1708 0.929 . S
C1712 C1714 1.378 . S
C1712 C1716 1.350 . S
C1713 C1716 1.463 . S
C1713 C1718 1.350 . S
C1713 N1721 1.427 . S
C1714 H1705 0.930 . S
C1714 C1712 1.378 . S
C1714 C1715 1.367 . S
C1715 C1714 1.367 . S
C1715 C1717 1.433 . S
C1716 C1712 1.350 . S
C1716 C1713 1.463 . S
C1716 N1720 1.427 . S
C1717 H1707 0.929 . S
C1717 C1715 1.433 . S
C1717 N1720 1.384 . S
C1718 H1709 0.929 . S
C1718 C1710 1.378 . S
C1718 C1713 1.350 . S
C1719 H1706 0.929 . S
C1719 C1711 1.433 . S
C1719 N1721 1.384 . S
N1720 C1716 1.427 . S
N1720 C1717 1.384 . S
N1721 C1713 1.427 . S
N1721 C1719 1.384 . S
H1722 C1728 0.930 . S
H1723 C1732 0.930 . S
H1724 C1737 0.929 . S
H1725 C1735 0.929 . S
H1726 C1730 0.929 . S
H1727 C1736 0.929 . S
C1728 H1722 0.930 . S
C1728 C1729 1.367 . S
C1728 C1736 1.378 . S
C1729 C1728 1.367 . S
C1729 C1737 1.433 . S
C1730 H1726 0.929 . S
C1730 C1732 1.378 1_556 S
C1730 C1734 1.350 . S
C1731 C1734 1.463 . S
C1731 C1736 1.350 . S
C1731 N1739 1.427 . S
C1732 H1723 0.930 . S
C1732 C1730 1.378 1_554 S
C1732 C1733 1.367 . S
C1733 C1732 1.367 . S
C1733 C1735 1.433 . S
C1734 C1730 1.350 . S
C1734 C1731 1.463 . S
C1734 N1738 1.427 . S
C1735 H1725 0.929 . S
C1735 C1733 1.433 . S
C1735 N1738 1.384 1_554 S
C1736 H1727 0.929 . S
C1736 C1728 1.378 . S
C1736 C1731 1.350 . S
C1737 H1724 0.929 . S
C1737 C1729 1.433 . S
C1737 N1739 1.384 . S
N1738 C1734 1.427 . S
N1738 C1735 1.384 1_556 S
N1739 C1731 1.427 . S
N1739 C1737 1.384 . S
H1740 C1746 0.930 . S
H1741 C1750 0.930 . S
H1742 C1755 0.929 . S
H1743 C1753 0.929 . S
H1744 C1748 0.929 . S
H1745 C1754 0.929 . S
C1746 H1740 0.930 . S
C1746 C1747 1.367 . S
C1746 C1754 1.378 . S
C1747 C1746 1.367 . S
C1747 C1755 1.433 . S
C1748 H1744 0.929 . S
C1748 C1750 1.378 . S
C1748 C1752 1.350 . S
C1749 C1752 1.463 . S
C1749 C1754 1.350 . S
C1749 N1757 1.427 . S
C1750 H1741 0.930 . S
C1750 C1748 1.378 . S
C1750 C1751 1.367 . S
C1751 C1750 1.367 . S
C1751 C1753 1.433 . S
C1752 C1748 1.350 . S
C1752 C1749 1.463 . S
C1752 N1756 1.427 . S
C1753 H1743 0.929 . S
C1753 C1751 1.433 . S
C1753 N1756 1.384 . S
C1754 H1745 0.929 . S
C1754 C1746 1.378 . S
C1754 C1749 1.350 . S
C1755 H1742 0.929 . S
C1755 C1747 1.433 . S
C1755 N1757 1.384 . S
N1756 C1752 1.427 . S
N1756 C1753 1.384 . S
N1757 C1749 1.427 . S
N1757 C1755 1.384 . S
H1758 C1764 0.930 . S
H1759 C1768 0.930 . S
H1760 C1773 0.929 . S
H1761 C1771 0.929 . S
H1762 C1766 0.929 . S
H1763 C1772 0.929 . S
C1764 H1758 0.930 . S
C1764 C1765 1.367 . S
C1764 C1772 1.378 . S
C1765 C1764 1.367 . S
C1765 C1773 1.433 . S
C1766 H1762 0.929 . S
C1766 C1768 1.378 . S
C1766 C1770 1.350 . S
C1767 C1770 1.463 . S
C1767 C1772 1.350 . S
C1767 N1775 1.427 . S
C1768 H1759 0.930 . S
C1768 C1766 1.378 . S
C1768 C1769 1.367 . S
C1769 C1768 1.367 . S
C1769 C1771 1.433 . S
C1770 C1766 1.350 . S
C1770 C1767 1.463 . S
C1770 N1774 1.427 . S
C1771 H1761 0.929 . S
C1771 C1769 1.433 . S
C1771 N1774 1.384 . S
C1772 H1763 0.929 . S
C1772 C1764 1.378 . S
C1772 C1767 1.350 . S
C1773 H1760 0.929 . S
C1773 C1765 1.433 . S
C1773 N1775 1.384 . S
N1774 C1770 1.427 . S
N1774 C1771 1.384 . S
N1775 C1767 1.427 . S
N1775 C1773 1.384 . S
H1776 C1782 0.930 . S
H1777 C1786 0.930 . S
H1778 C1791 0.929 . S
H1779 C1789 0.929 . S
H1780 C1784 0.929 . S
H1781 C1790 0.929 . S
C1782 H1776 0.930 . S
C1782 C1783 1.367 . S
C1782 C1790 1.378 . S
C1783 C1782 1.367 . S
C1783 C1791 1.433 . S
C1784 H1780 0.929 . S
C1784 C1786 1.378 . S
C1784 C1788 1.350 . S
C1785 C1788 1.463 . S
C1785 C1790 1.350 . S
C1785 N1793 1.427 . S
C1786 H1777 0.930 . S
C1786 C1784 1.378 . S
C1786 C1787 1.367 . S
C1787 C1786 1.367 . S
C1787 C1789 1.433 . S
C1788 C1784 1.350 . S
C1788 C1785 1.463 . S
C1788 N1792 1.427 . S
C1789 H1779 0.929 . S
C1789 C1787 1.433 . S
C1789 N1792 1.384 . S
C1790 H1781 0.929 . S
C1790 C1782 1.378 . S
C1790 C1785 1.350 . S
C1791 H1778 0.929 . S
C1791 C1783 1.433 . S
C1791 N1793 1.384 . S
N1792 C1788 1.427 . S
N1792 C1789 1.384 . S
N1793 C1785 1.427 . S
N1793 C1791 1.384 . S
H1794 C1800 0.930 . S
H1795 C1804 0.930 . S
H1796 C1809 0.929 . S
H1797 C1807 0.929 . S
H1798 C1802 0.929 . S
H1799 C1808 0.929 . S
C1800 H1794 0.930 . S
C1800 C1801 1.367 . S
C1800 C1808 1.378 . S
C1801 C1800 1.367 . S
C1801 C1809 1.433 . S
C1802 H1798 0.929 . S
C1802 C1804 1.378 . S
C1802 C1806 1.350 . S
C1803 C1806 1.463 . S
C1803 C1808 1.350 . S
C1803 N1811 1.427 . S
C1804 H1795 0.930 . S
C1804 C1802 1.378 . S
C1804 C1805 1.367 . S
C1805 C1804 1.367 . S
C1805 C1807 1.433 . S
C1806 C1802 1.350 . S
C1806 C1803 1.463 . S
C1806 N1810 1.427 . S
C1807 H1797 0.929 . S
C1807 C1805 1.433 . S
C1807 N1810 1.384 . S
C1808 H1799 0.929 . S
C1808 C1800 1.378 . S
C1808 C1803 1.350 . S
C1809 H1796 0.929 . S
C1809 C1801 1.433 . S
C1809 N1811 1.384 . S
N1810 C1806 1.427 . S
N1810 C1807 1.384 . S
N1811 C1803 1.427 . S
N1811 C1809 1.384 . S
H1812 C1818 0.930 . S
H1813 C1822 0.930 . S
H1814 C1827 0.929 . S
H1815 C1825 0.929 . S
H1816 C1820 0.927 . S
H1817 C1826 0.929 . S
C1818 H1812 0.930 . S
C1818 C1819 1.367 . S
C1818 C1826 1.378 . S
C1819 C1818 1.367 . S
C1819 C1827 1.433 . S
C1820 H1816 0.927 . S
C1820 C1822 1.378 . S
C1820 C1824 1.350 1_565 S
C1821 C1824 1.463 . S
C1821 C1826 1.350 . S
C1821 N1829 1.427 . S
C1822 H1813 0.930 . S
C1822 C1820 1.378 . S
C1822 C1823 1.367 . S
C1823 C1822 1.367 . S
C1823 C1825 1.433 . S
C1824 C1820 1.350 1_545 S
C1824 C1821 1.463 . S
C1824 N1828 1.427 . S
C1825 H1815 0.929 . S
C1825 C1823 1.433 . S
C1825 N1828 1.384 1_565 S
C1826 H1817 0.929 . S
C1826 C1818 1.378 . S
C1826 C1821 1.350 . S
C1827 H1814 0.929 . S
C1827 C1819 1.433 . S
C1827 N1829 1.384 . S
N1828 C1824 1.427 . S
N1828 C1825 1.384 1_545 S
N1829 C1821 1.427 . S
N1829 C1827 1.384 . S
H1830 C1836 0.930 . S
H1831 C1840 0.930 . S
H1832 C1845 0.929 . S
H1833 C1843 0.929 . S
H1834 C1838 0.929 . S
H1835 C1844 0.929 . S
C1836 H1830 0.930 . S
C1836 C1837 1.367 . S
C1836 C1844 1.378 . S
C1837 C1836 1.367 . S
C1837 C1845 1.433 . S
C1838 H1834 0.929 . S
C1838 C1840 1.378 . S
C1838 C1842 1.350 . S
C1839 C1842 1.463 . S
C1839 C1844 1.350 . S
C1839 N1847 1.427 . S
C1840 H1831 0.930 . S
C1840 C1838 1.378 . S
C1840 C1841 1.367 . S
C1841 C1840 1.367 . S
C1841 C1843 1.433 . S
C1842 C1838 1.350 . S
C1842 C1839 1.463 . S
C1842 N1846 1.427 . S
C1843 H1833 0.929 . S
C1843 C1841 1.433 . S
C1843 N1846 1.384 . S
C1844 H1835 0.929 . S
C1844 C1836 1.378 . S
C1844 C1839 1.350 . S
C1845 H1832 0.929 . S
C1845 C1837 1.433 . S
C1845 N1847 1.384 . S
N1846 C1842 1.427 . S
N1846 C1843 1.384 . S
N1847 C1839 1.427 . S
N1847 C1845 1.384 . S
H1848 C1854 0.930 . S
H1849 C1858 0.930 . S
H1850 C1863 0.929 . S
H1851 C1861 0.929 . S
H1852 C1856 0.929 . S
H1853 C1862 0.929 . S
C1854 H1848 0.930 . S
C1854 C1855 1.367 . S
C1854 C1862 1.378 . S
C1855 C1854 1.367 . S
C1855 C1863 1.433 . S
C1856 H1852 0.929 . S
C1856 C1858 1.378 . S
C1856 C1860 1.350 . S
C1857 C1860 1.463 . S
C1857 C1862 1.350 . S
C1857 N1865 1.427 . S
C1858 H1849 0.930 . S
C1858 C1856 1.378 . S
C1858 C1859 1.367 . S
C1859 C1858 1.367 . S
C1859 C1861 1.433 . S
C1860 C1856 1.350 . S
C1860 C1857 1.463 . S
C1860 N1864 1.427 . S
C1861 H1851 0.929 . S
C1861 C1859 1.433 . S
C1861 N1864 1.384 . S
C1862 H1853 0.929 . S
C1862 C1854 1.378 . S
C1862 C1857 1.350 . S
C1863 H1850 0.929 . S
C1863 C1855 1.433 . S
C1863 N1865 1.384 . S
N1864 C1860 1.427 . S
N1864 C1861 1.384 . S
N1865 C1857 1.427 . S
N1865 C1863 1.384 . S
H1866 C1872 0.930 . S
H1867 C1876 0.930 . S
H1868 C1881 0.929 . S
H1869 C1879 0.929 . S
H1870 C1874 0.929 . S
H1871 C1880 0.929 . S
C1872 H1866 0.930 . S
C1872 C1873 1.367 . S
C1872 C1880 1.378 . S
C1873 C1872 1.367 . S
C1873 C1881 1.433 . S
C1874 H1870 0.929 . S
C1874 C1876 1.378 . S
C1874 C1878 1.350 . S
C1875 C1878 1.463 . S
C1875 C1880 1.350 . S
C1875 N1883 1.427 . S
C1876 H1867 0.930 . S
C1876 C1874 1.378 . S
C1876 C1877 1.367 . S
C1877 C1876 1.367 . S
C1877 C1879 1.433 . S
C1878 C1874 1.350 . S
C1878 C1875 1.463 . S
C1878 N1882 1.427 . S
C1879 H1869 0.929 . S
C1879 C1877 1.433 . S
C1879 N1882 1.384 . S
C1880 H1871 0.929 . S
C1880 C1872 1.378 . S
C1880 C1875 1.350 . S
C1881 H1868 0.929 . S
C1881 C1873 1.433 . S
C1881 N1883 1.384 . S
N1882 C1878 1.427 . S
N1882 C1879 1.384 . S
N1883 C1875 1.427 . S
N1883 C1881 1.384 . S
H1884 C1890 0.930 . S
H1885 C1894 0.930 . S
H1886 C1899 0.929 . S
H1887 C1897 0.929 . S
H1888 C1892 0.929 . S
H1889 C1898 0.929 1_565 S
C1890 H1884 0.930 . S
C1890 C1891 1.367 . S
C1890 C1898 1.378 . S
C1891 C1890 1.367 . S
C1891 C1899 1.433 . S
C1892 H1888 0.929 . S
C1892 C1894 1.378 . S
C1892 C1896 1.350 . S
C1893 C1896 1.463 . S
C1893 C1898 1.350 1_565 S
C1893 N1901 1.427 1_565 S
C1894 H1885 0.930 . S
C1894 C1892 1.378 . S
C1894 C1895 1.367 . S
C1895 C1894 1.367 . S
C1895 C1897 1.433 . S
C1896 C1892 1.350 . S
C1896 C1893 1.463 . S
C1896 N1900 1.427 . S
C1897 H1887 0.929 . S
C1897 C1895 1.433 . S
C1897 N1900 1.384 . S
C1898 H1889 0.929 1_545 S
C1898 C1890 1.378 . S
C1898 C1893 1.350 1_545 S
C1899 H1886 0.929 . S
C1899 C1891 1.433 . S
C1899 N1901 1.384 . S
N1900 C1896 1.427 . S
N1900 C1897 1.384 . S
N1901 C1893 1.427 1_545 S
N1901 C1899 1.384 . S
H1902 C1908 0.930 . S
H1903 C1912 0.930 . S
H1904 C1917 0.929 . S
H1905 C1915 0.929 . S
H1906 C1910 0.929 . S
H1907 C1916 0.929 . S
C1908 H1902 0.930 . S
C1908 C1909 1.367 . S
C1908 C1916 1.378 . S
C1909 C1908 1.367 . S
C1909 C1917 1.433 . S
C1910 H1906 0.929 . S
C1910 C1912 1.378 1_545 S
C1910 C1914 1.350 . S
C1911 C1914 1.463 . S
C1911 C1916 1.350 . S
C1911 N1919 1.427 . S
C1912 H1903 0.930 . S
C1912 C1910 1.378 1_565 S
C1912 C1913 1.367 . S
C1913 C1912 1.367 . S
C1913 C1915 1.433 . S
C1914 C1910 1.350 . S
C1914 C1911 1.463 . S
C1914 N1918 1.427 1_545 S
C1915 H1905 0.929 . S
C1915 C1913 1.433 . S
C1915 N1918 1.384 . S
C1916 H1907 0.929 . S
C1916 C1908 1.378 . S
C1916 C1911 1.350 . S
C1917 H1904 0.929 . S
C1917 C1909 1.433 . S
C1917 N1919 1.384 . S
N1918 C1914 1.427 1_565 S
N1918 C1915 1.384 . S
N1919 C1911 1.427 . S
N1919 C1917 1.384 . S
H1920 C1926 0.930 . S
H1921 C1930 0.930 . S
H1922 C1935 0.929 . S
H1923 C1933 0.929 . S
H1924 C1928 0.929 . S
H1925 C1934 0.929 . S
C1926 H1920 0.930 . S
C1926 C1927 1.367 . S
C1926 C1934 1.378 . S
C1927 C1926 1.367 . S
C1927 C1935 1.433 . S
C1928 H1924 0.929 . S
C1928 C1930 1.378 . S
C1928 C1932 1.350 . S
C1929 C1932 1.463 . S
C1929 C1934 1.350 . S
C1929 N1937 1.427 . S
C1930 H1921 0.930 . S
C1930 C1928 1.378 . S
C1930 C1931 1.367 . S
C1931 C1930 1.367 . S
C1931 C1933 1.433 . S
C1932 C1928 1.350 . S
C1932 C1929 1.463 . S
C1932 N1936 1.427 . S
C1933 H1923 0.929 . S
C1933 C1931 1.433 . S
C1933 N1936 1.384 . S
C1934 H1925 0.929 . S
C1934 C1926 1.378 . S
C1934 C1929 1.350 . S
C1935 H1922 0.929 . S
C1935 C1927 1.433 . S
C1935 N1937 1.384 . S
N1936 C1932 1.427 . S
N1936 C1933 1.384 . S
N1937 C1929 1.427 . S
N1937 C1935 1.384 . S
H1938 C1944 0.930 . S
H1939 C1948 0.930 . S
H1940 C1953 0.929 . S
H1941 C1951 0.929 . S
H1942 C1946 0.929 . S
H1943 C1952 0.929 . S
C1944 H1938 0.930 . S
C1944 C1945 1.367 . S
C1944 C1952 1.378 . S
C1945 C1944 1.367 . S
C1945 C1953 1.433 . S
C1946 H1942 0.929 . S
C1946 C1948 1.378 . S
C1946 C1950 1.350 . S
C1947 C1950 1.463 . S
C1947 C1952 1.350 . S
C1947 N1955 1.427 . S
C1948 H1939 0.930 . S
C1948 C1946 1.378 . S
C1948 C1949 1.367 . S
C1949 C1948 1.367 . S
C1949 C1951 1.433 . S
C1950 C1946 1.350 . S
C1950 C1947 1.463 . S
C1950 N1954 1.427 . S
C1951 H1941 0.929 . S
C1951 C1949 1.433 . S
C1951 N1954 1.384 . S
C1952 H1943 0.929 . S
C1952 C1944 1.378 . S
C1952 C1947 1.350 . S
C1953 H1940 0.929 . S
C1953 C1945 1.433 . S
C1953 N1955 1.384 . S
N1954 C1950 1.427 . S
N1954 C1951 1.384 . S
N1955 C1947 1.427 . S
N1955 C1953 1.384 . S
H1956 C1962 0.930 . S
H1957 C1966 0.930 . S
H1958 C1971 0.929 . S
H1959 C1969 0.929 . S
H1960 C1964 0.929 . S
H1961 C1970 0.929 . S
C1962 H1956 0.930 . S
C1962 C1963 1.367 . S
C1962 C1970 1.378 . S
C1963 C1962 1.367 . S
C1963 C1971 1.433 . S
C1964 H1960 0.929 . S
C1964 C1966 1.378 . S
C1964 C1968 1.350 . S
C1965 C1968 1.463 . S
C1965 C1970 1.350 . S
C1965 N1973 1.427 . S
C1966 H1957 0.930 . S
C1966 C1964 1.378 . S
C1966 C1967 1.367 . S
C1967 C1966 1.367 . S
C1967 C1969 1.433 . S
C1968 C1964 1.350 . S
C1968 C1965 1.463 . S
C1968 N1972 1.427 . S
C1969 H1959 0.929 . S
C1969 C1967 1.433 . S
C1969 N1972 1.384 . S
C1970 H1961 0.929 . S
C1970 C1962 1.378 . S
C1970 C1965 1.350 . S
C1971 H1958 0.929 . S
C1971 C1963 1.433 . S
C1971 N1973 1.384 . S
N1972 C1968 1.427 . S
N1972 C1969 1.384 . S
N1973 C1965 1.427 . S
N1973 C1971 1.384 . S
H1974 C1980 0.930 . S
H1975 C1984 0.930 . S
H1976 C1989 0.929 . S
H1977 C1987 0.929 . S
H1978 C1982 0.929 . S
H1979 C1988 0.929 . S
C1980 H1974 0.930 . S
C1980 C1981 1.367 . S
C1980 C1988 1.378 1_455 S
C1981 C1980 1.367 . S
C1981 C1989 1.433 . S
C1982 H1978 0.929 . S
C1982 C1984 1.378 . S
C1982 C1986 1.350 . S
C1983 C1986 1.463 . S
C1983 C1988 1.350 . S
C1983 N1991 1.427 . S
C1984 H1975 0.930 . S
C1984 C1982 1.378 . S
C1984 C1985 1.367 . S
C1985 C1984 1.367 . S
C1985 C1987 1.433 . S
C1986 C1982 1.350 . S
C1986 C1983 1.463 . S
C1986 N1990 1.427 . S
C1987 H1977 0.929 . S
C1987 C1985 1.433 . S
C1987 N1990 1.384 . S
C1988 H1979 0.929 . S
C1988 C1980 1.378 1_655 S
C1988 C1983 1.350 . S
C1989 H1976 0.929 . S
C1989 C1981 1.433 . S
C1989 N1991 1.384 1_455 S
N1990 C1986 1.427 . S
N1990 C1987 1.384 . S
N1991 C1983 1.427 . S
N1991 C1989 1.384 1_655 S
H1992 C1998 0.930 . S
H1993 C2002 0.930 . S
H1994 C2007 0.929 . S
H1995 C2005 0.929 . S
H1996 C2000 0.929 . S
H1997 C2006 0.929 . S
C1998 H1992 0.930 . S
C1998 C1999 1.367 . S
C1998 C2006 1.378 . S
C1999 C1998 1.367 . S
C1999 C2007 1.433 . S
C2000 H1996 0.929 . S
C2000 C2002 1.378 . S
C2000 C2004 1.350 . S
C2001 C2004 1.463 . S
C2001 C2006 1.350 . S
C2001 N2009 1.427 . S
C2002 H1993 0.930 . S
C2002 C2000 1.378 . S
C2002 C2003 1.367 . S
C2003 C2002 1.367 . S
C2003 C2005 1.433 . S
C2004 C2000 1.350 . S
C2004 C2001 1.463 . S
C2004 N2008 1.427 . S
C2005 H1995 0.929 . S
C2005 C2003 1.433 . S
C2005 N2008 1.384 . S
C2006 H1997 0.929 . S
C2006 C1998 1.378 . S
C2006 C2001 1.350 . S
C2007 H1994 0.929 . S
C2007 C1999 1.433 . S
C2007 N2009 1.384 . S
N2008 C2004 1.427 . S
N2008 C2005 1.384 . S
N2009 C2001 1.427 . S
N2009 C2007 1.384 . S
H2010 C2016 0.930 . S
H2011 C2020 0.930 . S
H2012 C2025 0.929 . S
H2013 C2023 0.929 . S
H2014 C2018 0.929 . S
H2015 C2024 0.929 . S
C2016 H2010 0.930 . S
C2016 C2017 1.367 . S
C2016 C2024 1.378 1_455 S
C2017 C2016 1.367 . S
C2017 C2025 1.433 . S
C2018 H2014 0.929 . S
C2018 C2020 1.378 . S
C2018 C2022 1.350 . S
C2019 C2022 1.463 . S
C2019 C2024 1.350 . S
C2019 N2027 1.427 . S
C2020 H2011 0.930 . S
C2020 C2018 1.378 . S
C2020 C2021 1.367 . S
C2021 C2020 1.367 . S
C2021 C2023 1.433 . S
C2022 C2018 1.350 . S
C2022 C2019 1.463 . S
C2022 N2026 1.427 . S
C2023 H2013 0.929 . S
C2023 C2021 1.433 . S
C2023 N2026 1.384 . S
C2024 H2015 0.929 . S
C2024 C2016 1.378 1_655 S
C2024 C2019 1.350 . S
C2025 H2012 0.929 . S
C2025 C2017 1.433 . S
C2025 N2027 1.384 1_455 S
N2026 C2022 1.427 . S
N2026 C2023 1.384 . S
N2027 C2019 1.427 . S
N2027 C2025 1.384 1_655 S
H2028 C2034 0.930 . S
H2029 C2038 0.930 . S
H2030 C2043 0.929 . S
H2031 C2041 0.929 . S
H2032 C2036 0.929 . S
H2033 C2042 0.929 . S
C2034 H2028 0.930 . S
C2034 C2035 1.367 . S
C2034 C2042 1.378 . S
C2035 C2034 1.367 . S
C2035 C2043 1.433 . S
C2036 H2032 0.929 . S
C2036 C2038 1.378 . S
C2036 C2040 1.350 . S
C2037 C2040 1.463 . S
C2037 C2042 1.350 . S
C2037 N2045 1.427 . S
C2038 H2029 0.930 . S
C2038 C2036 1.378 . S
C2038 C2039 1.367 . S
C2039 C2038 1.367 . S
C2039 C2041 1.433 . S
C2040 C2036 1.350 . S
C2040 C2037 1.463 . S
C2040 N2044 1.427 . S
C2041 H2031 0.929 . S
C2041 C2039 1.433 . S
C2041 N2044 1.384 . S
C2042 H2033 0.929 . S
C2042 C2034 1.378 . S
C2042 C2037 1.350 . S
C2043 H2030 0.929 . S
C2043 C2035 1.433 . S
C2043 N2045 1.384 . S
N2044 C2040 1.427 . S
N2044 C2041 1.384 . S
N2045 C2037 1.427 . S
N2045 C2043 1.384 . S
H2046 C2052 0.930 . S
H2047 C2056 0.930 . S
H2048 C2061 0.929 . S
H2049 C2059 0.929 . S
H2050 C2054 0.929 . S
H2051 C2060 0.929 . S
C2052 H2046 0.930 . S
C2052 C2053 1.367 . S
C2052 C2060 1.378 . S
C2053 C2052 1.367 . S
C2053 C2061 1.433 . S
C2054 H2050 0.929 . S
C2054 C2056 1.378 . S
C2054 C2058 1.350 . S
C2055 C2058 1.463 . S
C2055 C2060 1.350 . S
C2055 N2063 1.427 . S
C2056 H2047 0.930 . S
C2056 C2054 1.378 . S
C2056 C2057 1.367 . S
C2057 C2056 1.367 . S
C2057 C2059 1.433 . S
C2058 C2054 1.350 . S
C2058 C2055 1.463 . S
C2058 N2062 1.427 . S
C2059 H2049 0.929 . S
C2059 C2057 1.433 . S
C2059 N2062 1.384 . S
C2060 H2051 0.929 . S
C2060 C2052 1.378 . S
C2060 C2055 1.350 . S
C2061 H2048 0.929 . S
C2061 C2053 1.433 . S
C2061 N2063 1.384 . S
N2062 C2058 1.427 . S
N2062 C2059 1.384 . S
N2063 C2055 1.427 . S
N2063 C2061 1.384 . S
H2064 C2070 0.930 . S
H2065 C2074 0.930 . S
H2066 C2079 0.929 . S
H2067 C2077 0.929 . S
H2068 C2072 0.929 . S
H2069 C2078 0.929 . S
C2070 H2064 0.930 . S
C2070 C2071 1.367 . S
C2070 C2078 1.378 . S
C2071 C2070 1.367 . S
C2071 C2079 1.433 . S
C2072 H2068 0.929 . S
C2072 C2074 1.378 . S
C2072 C2076 1.350 . S
C2073 C2076 1.463 . S
C2073 C2078 1.350 . S
C2073 N2081 1.427 . S
C2074 H2065 0.930 . S
C2074 C2072 1.378 . S
C2074 C2075 1.367 . S
C2075 C2074 1.367 . S
C2075 C2077 1.433 . S
C2076 C2072 1.350 . S
C2076 C2073 1.463 . S
C2076 N2080 1.427 . S
C2077 H2067 0.929 . S
C2077 C2075 1.433 . S
C2077 N2080 1.384 . S
C2078 H2069 0.929 . S
C2078 C2070 1.378 . S
C2078 C2073 1.350 . S
C2079 H2066 0.929 . S
C2079 C2071 1.433 . S
C2079 N2081 1.384 . S
N2080 C2076 1.427 . S
N2080 C2077 1.384 . S
N2081 C2073 1.427 . S
N2081 C2079 1.384 . S
H2082 C2088 0.930 . S
H2083 C2092 0.930 . S
H2084 C2097 0.929 . S
H2085 C2095 0.929 . S
H2086 C2090 0.929 . S
H2087 C2096 0.929 . S
C2088 H2082 0.930 . S
C2088 C2089 1.367 . S
C2088 C2096 1.378 . S
C2089 C2088 1.367 . S
C2089 C2097 1.433 . S
C2090 H2086 0.929 . S
C2090 C2092 1.378 1_556 S
C2090 C2094 1.350 . S
C2091 C2094 1.463 . S
C2091 C2096 1.350 . S
C2091 N2099 1.427 . S
C2092 H2083 0.930 . S
C2092 C2090 1.378 1_554 S
C2092 C2093 1.367 . S
C2093 C2092 1.367 . S
C2093 C2095 1.433 . S
C2094 C2090 1.350 . S
C2094 C2091 1.463 . S
C2094 N2098 1.427 1_556 S
C2095 H2085 0.929 . S
C2095 C2093 1.433 . S
C2095 N2098 1.384 . S
C2096 H2087 0.929 . S
C2096 C2088 1.378 . S
C2096 C2091 1.350 . S
C2097 H2084 0.929 . S
C2097 C2089 1.433 . S
C2097 N2099 1.384 . S
N2098 C2094 1.427 1_554 S
N2098 C2095 1.384 . S
N2099 C2091 1.427 . S
N2099 C2097 1.384 . S
H2100 C2106 0.930 . S
H2101 C2110 0.930 . S
H2102 C2115 0.929 . S
H2103 C2113 0.929 . S
H2104 C2108 0.929 . S
H2105 C2114 0.929 . S
C2106 H2100 0.930 . S
C2106 C2107 1.367 . S
C2106 C2114 1.378 . S
C2107 C2106 1.367 . S
C2107 C2115 1.433 . S
C2108 H2104 0.929 . S
C2108 C2110 1.378 . S
C2108 C2112 1.350 . S
C2109 C2112 1.463 . S
C2109 C2114 1.350 . S
C2109 N2117 1.427 . S
C2110 H2101 0.930 . S
C2110 C2108 1.378 . S
C2110 C2111 1.367 . S
C2111 C2110 1.367 . S
C2111 C2113 1.433 . S
C2112 C2108 1.350 . S
C2112 C2109 1.463 . S
C2112 N2116 1.427 . S
C2113 H2103 0.929 . S
C2113 C2111 1.433 . S
C2113 N2116 1.384 . S
C2114 H2105 0.929 . S
C2114 C2106 1.378 . S
C2114 C2109 1.350 . S
C2115 H2102 0.929 . S
C2115 C2107 1.433 . S
C2115 N2117 1.384 . S
N2116 C2112 1.427 . S
N2116 C2113 1.384 . S
N2117 C2109 1.427 . S
N2117 C2115 1.384 . S
H2118 C2124 0.930 . S
H2119 C2128 0.930 . S
H2120 C2133 0.929 . S
H2121 C2131 0.929 . S
H2122 C2126 0.929 . S
H2123 C2132 0.929 . S
C2124 H2118 0.930 . S
C2124 C2125 1.367 . S
C2124 C2132 1.378 . S
C2125 C2124 1.367 . S
C2125 C2133 1.433 . S
C2126 H2122 0.929 . S
C2126 C2128 1.378 . S
C2126 C2130 1.350 . S
C2127 C2130 1.463 . S
C2127 C2132 1.350 . S
C2127 N2135 1.427 . S
C2128 H2119 0.930 . S
C2128 C2126 1.378 . S
C2128 C2129 1.367 . S
C2129 C2128 1.367 . S
C2129 C2131 1.433 . S
C2130 C2126 1.350 . S
C2130 C2127 1.463 . S
C2130 N2134 1.427 . S
C2131 H2121 0.929 . S
C2131 C2129 1.433 . S
C2131 N2134 1.384 . S
C2132 H2123 0.929 . S
C2132 C2124 1.378 . S
C2132 C2127 1.350 . S
C2133 H2120 0.929 . S
C2133 C2125 1.433 . S
C2133 N2135 1.384 . S
N2134 C2130 1.427 . S
N2134 C2131 1.384 . S
N2135 C2127 1.427 . S
N2135 C2133 1.384 . S
H2136 C2142 0.930 . S
H2137 C2146 0.930 . S
H2138 C2151 0.929 . S
H2139 C2149 0.929 . S
H2140 C2144 0.929 . S
H2141 C2150 0.929 . S
C2142 H2136 0.930 . S
C2142 C2143 1.367 . S
C2142 C2150 1.378 . S
C2143 C2142 1.367 . S
C2143 C2151 1.433 . S
C2144 H2140 0.929 . S
C2144 C2146 1.378 . S
C2144 C2148 1.350 . S
C2145 C2148 1.463 . S
C2145 C2150 1.350 . S
C2145 N2153 1.427 . S
C2146 H2137 0.930 . S
C2146 C2144 1.378 . S
C2146 C2147 1.367 . S
C2147 C2146 1.367 . S
C2147 C2149 1.433 . S
C2148 C2144 1.350 . S
C2148 C2145 1.463 . S
C2148 N2152 1.427 . S
C2149 H2139 0.929 . S
C2149 C2147 1.433 . S
C2149 N2152 1.384 . S
C2150 H2141 0.929 . S
C2150 C2142 1.378 . S
C2150 C2145 1.350 . S
C2151 H2138 0.929 . S
C2151 C2143 1.433 . S
C2151 N2153 1.384 . S
N2152 C2148 1.427 . S
N2152 C2149 1.384 . S
N2153 C2145 1.427 . S
N2153 C2151 1.384 . S
H2154 C2160 0.930 . S
H2155 C2164 0.930 . S
H2156 C2169 0.929 . S
H2157 C2167 0.929 . S
H2158 C2162 0.929 . S
H2159 C2168 0.929 . S
C2160 H2154 0.930 . S
C2160 C2161 1.367 . S
C2160 C2168 1.378 . S
C2161 C2160 1.367 . S
C2161 C2169 1.433 . S
C2162 H2158 0.929 . S
C2162 C2164 1.378 1_554 S
C2162 C2166 1.350 . S
C2163 C2166 1.463 . S
C2163 C2168 1.350 . S
C2163 N2171 1.427 . S
C2164 H2155 0.930 . S
C2164 C2162 1.378 1_556 S
C2164 C2165 1.367 . S
C2165 C2164 1.367 . S
C2165 C2167 1.433 . S
C2166 C2162 1.350 . S
C2166 C2163 1.463 . S
C2166 N2170 1.427 1_554 S
C2167 H2157 0.929 . S
C2167 C2165 1.433 . S
C2167 N2170 1.384 . S
C2168 H2159 0.929 . S
C2168 C2160 1.378 . S
C2168 C2163 1.350 . S
C2169 H2156 0.929 . S
C2169 C2161 1.433 . S
C2169 N2171 1.384 . S
N2170 C2166 1.427 1_556 S
N2170 C2167 1.384 . S
N2171 C2163 1.427 . S
N2171 C2169 1.384 . S
H2172 C2178 0.930 . S
H2173 C2182 0.930 . S
H2174 C2187 0.929 . S
H2175 C2185 0.929 . S
H2176 C2180 0.929 . S
H2177 C2186 0.929 . S
C2178 H2172 0.930 . S
C2178 C2179 1.367 . S
C2178 C2186 1.378 . S
C2179 C2178 1.367 . S
C2179 C2187 1.433 . S
C2180 H2176 0.929 . S
C2180 C2182 1.378 . S
C2180 C2184 1.350 . S
C2181 C2184 1.463 . S
C2181 C2186 1.350 . S
C2181 N2189 1.427 . S
C2182 H2173 0.930 . S
C2182 C2180 1.378 . S
C2182 C2183 1.367 . S
C2183 C2182 1.367 . S
C2183 C2185 1.433 . S
C2184 C2180 1.350 . S
C2184 C2181 1.463 . S
C2184 N2188 1.427 . S
C2185 H2175 0.929 . S
C2185 C2183 1.433 . S
C2185 N2188 1.384 . S
C2186 H2177 0.929 . S
C2186 C2178 1.378 . S
C2186 C2181 1.350 . S
C2187 H2174 0.929 . S
C2187 C2179 1.433 . S
C2187 N2189 1.384 . S
N2188 C2184 1.427 . S
N2188 C2185 1.384 . S
N2189 C2181 1.427 . S
N2189 C2187 1.384 . S
H2190 C2196 0.930 . S
H2191 C2200 0.930 . S
H2192 C2205 0.929 . S
H2193 C2203 0.929 . S
H2194 C2198 0.929 . S
H2195 C2204 0.929 . S
C2196 H2190 0.930 . S
C2196 C2197 1.367 . S
C2196 C2204 1.378 . S
C2197 C2196 1.367 . S
C2197 C2205 1.433 . S
C2198 H2194 0.929 . S
C2198 C2200 1.378 . S
C2198 C2202 1.350 . S
C2199 C2202 1.463 . S
C2199 C2204 1.350 . S
C2199 N2207 1.427 . S
C2200 H2191 0.930 . S
C2200 C2198 1.378 . S
C2200 C2201 1.367 . S
C2201 C2200 1.367 . S
C2201 C2203 1.433 . S
C2202 C2198 1.350 . S
C2202 C2199 1.463 . S
C2202 N2206 1.427 . S
C2203 H2193 0.929 . S
C2203 C2201 1.433 . S
C2203 N2206 1.384 . S
C2204 H2195 0.929 . S
C2204 C2196 1.378 . S
C2204 C2199 1.350 . S
C2205 H2192 0.929 . S
C2205 C2197 1.433 . S
C2205 N2207 1.384 . S
N2206 C2202 1.427 . S
N2206 C2203 1.384 . S
N2207 C2199 1.427 . S
N2207 C2205 1.384 . S
H2208 C2214 0.930 . S
H2209 C2218 0.930 . S
H2210 C2223 0.929 . S
H2211 C2221 0.929 . S
H2212 C2216 0.929 . S
H2213 C2222 0.929 . S
C2214 H2208 0.930 . S
C2214 C2215 1.367 . S
C2214 C2222 1.378 . S
C2215 C2214 1.367 . S
C2215 C2223 1.433 . S
C2216 H2212 0.929 . S
C2216 C2218 1.378 . S
C2216 C2220 1.350 . S
C2217 C2220 1.463 . S
C2217 C2222 1.350 . S
C2217 N2225 1.427 . S
C2218 H2209 0.930 . S
C2218 C2216 1.378 . S
C2218 C2219 1.367 . S
C2219 C2218 1.367 . S
C2219 C2221 1.433 . S
C2220 C2216 1.350 . S
C2220 C2217 1.463 . S
C2220 N2224 1.427 . S
C2221 H2211 0.929 . S
C2221 C2219 1.433 . S
C2221 N2224 1.384 . S
C2222 H2213 0.929 . S
C2222 C2214 1.378 . S
C2222 C2217 1.350 . S
C2223 H2210 0.929 . S
C2223 C2215 1.433 . S
C2223 N2225 1.384 . S
N2224 C2220 1.427 . S
N2224 C2221 1.384 . S
N2225 C2217 1.427 . S
N2225 C2223 1.384 . S
H2226 C2232 0.930 . S
H2227 C2236 0.930 . S
H2228 C2241 0.929 . S
H2229 C2239 0.929 . S
H2230 C2234 0.929 . S
H2231 C2240 0.929 . S
C2232 H2226 0.930 . S
C2232 C2233 1.367 . S
C2232 C2240 1.378 . S
C2233 C2232 1.367 . S
C2233 C2241 1.433 . S
C2234 H2230 0.929 . S
C2234 C2236 1.378 . S
C2234 C2238 1.350 . S
C2235 C2238 1.463 . S
C2235 C2240 1.350 . S
C2235 N2243 1.427 . S
C2236 H2227 0.930 . S
C2236 C2234 1.378 . S
C2236 C2237 1.367 . S
C2237 C2236 1.367 . S
C2237 C2239 1.433 . S
C2238 C2234 1.350 . S
C2238 C2235 1.463 . S
C2238 N2242 1.427 . S
C2239 H2229 0.929 . S
C2239 C2237 1.433 . S
C2239 N2242 1.384 . S
C2240 H2231 0.929 . S
C2240 C2232 1.378 . S
C2240 C2235 1.350 . S
C2241 H2228 0.929 . S
C2241 C2233 1.433 . S
C2241 N2243 1.384 . S
N2242 C2238 1.427 . S
N2242 C2239 1.384 . S
N2243 C2235 1.427 . S
N2243 C2241 1.384 . S
H2244 C2250 0.930 . S
H2245 C2254 0.930 . S
H2246 C2259 0.929 . S
H2247 C2257 0.929 . S
H2248 C2252 0.929 . S
H2249 C2258 0.929 . S
C2250 H2244 0.930 . S
C2250 C2251 1.367 . S
C2250 C2258 1.378 . S
C2251 C2250 1.367 . S
C2251 C2259 1.433 . S
C2252 H2248 0.929 . S
C2252 C2254 1.378 1_565 S
C2252 C2256 1.350 . S
C2253 C2256 1.463 . S
C2253 C2258 1.350 . S
C2253 N2261 1.427 . S
C2254 H2245 0.930 . S
C2254 C2252 1.378 1_545 S
C2254 C2255 1.367 . S
C2255 C2254 1.367 . S
C2255 C2257 1.433 . S
C2256 C2252 1.350 . S
C2256 C2253 1.463 . S
C2256 N2260 1.427 . S
C2257 H2247 0.929 . S
C2257 C2255 1.433 . S
C2257 N2260 1.384 1_545 S
C2258 H2249 0.929 . S
C2258 C2250 1.378 . S
C2258 C2253 1.350 . S
C2259 H2246 0.929 . S
C2259 C2251 1.433 . S
C2259 N2261 1.384 . S
N2260 C2256 1.427 . S
N2260 C2257 1.384 1_565 S
N2261 C2253 1.427 . S
N2261 C2259 1.384 . S
H2262 C2268 0.930 . S
H2263 C2272 0.930 . S
H2264 C2277 0.929 . S
H2265 C2275 0.929 . S
H2266 C2270 0.929 . S
H2267 C2276 0.929 . S
C2268 H2262 0.930 . S
C2268 C2269 1.367 . S
C2268 C2276 1.378 . S
C2269 C2268 1.367 . S
C2269 C2277 1.433 . S
C2270 H2266 0.929 . S
C2270 C2272 1.378 . S
C2270 C2274 1.350 . S
C2271 C2274 1.463 . S
C2271 C2276 1.350 . S
C2271 N2279 1.427 . S
C2272 H2263 0.930 . S
C2272 C2270 1.378 . S
C2272 C2273 1.367 . S
C2273 C2272 1.367 . S
C2273 C2275 1.433 . S
C2274 C2270 1.350 . S
C2274 C2271 1.463 . S
C2274 N2278 1.427 . S
C2275 H2265 0.929 . S
C2275 C2273 1.433 . S
C2275 N2278 1.384 . S
C2276 H2267 0.929 . S
C2276 C2268 1.378 . S
C2276 C2271 1.350 . S
C2277 H2264 0.929 . S
C2277 C2269 1.433 . S
C2277 N2279 1.384 . S
N2278 C2274 1.427 . S
N2278 C2275 1.384 . S
N2279 C2271 1.427 . S
N2279 C2277 1.384 . S
H2280 C2286 0.930 . S
H2281 C2290 0.930 . S
H2282 C2295 0.929 . S
H2283 C2293 0.929 . S
H2284 C2288 0.929 . S
H2285 C2294 0.929 . S
C2286 H2280 0.930 . S
C2286 C2287 1.367 . S
C2286 C2294 1.378 . S
C2287 C2286 1.367 . S
C2287 C2295 1.433 . S
C2288 H2284 0.929 . S
C2288 C2290 1.378 . S
C2288 C2292 1.350 . S
C2289 C2292 1.463 . S
C2289 C2294 1.350 . S
C2289 N2297 1.427 . S
C2290 H2281 0.930 . S
C2290 C2288 1.378 . S
C2290 C2291 1.367 . S
C2291 C2290 1.367 . S
C2291 C2293 1.433 . S
C2292 C2288 1.350 . S
C2292 C2289 1.463 . S
C2292 N2296 1.427 . S
C2293 H2283 0.929 . S
C2293 C2291 1.433 . S
C2293 N2296 1.384 . S
C2294 H2285 0.929 . S
C2294 C2286 1.378 . S
C2294 C2289 1.350 . S
C2295 H2282 0.929 . S
C2295 C2287 1.433 . S
C2295 N2297 1.384 . S
N2296 C2292 1.427 . S
N2296 C2293 1.384 . S
N2297 C2289 1.427 . S
N2297 C2295 1.384 . S
H2298 C2304 0.930 . S
H2299 C2308 0.930 . S
H2300 C2313 0.929 . S
H2301 C2311 0.929 . S
H2302 C2306 0.929 . S
H2303 C2312 0.929 . S
C2304 H2298 0.930 . S
C2304 C2305 1.367 . S
C2304 C2312 1.378 . S
C2305 C2304 1.367 . S
C2305 C2313 1.433 . S
C2306 H2302 0.929 . S
C2306 C2308 1.378 . S
C2306 C2310 1.350 . S
C2307 C2310 1.463 . S
C2307 C2312 1.350 . S
C2307 N2315 1.427 . S
C2308 H2299 0.930 . S
C2308 C2306 1.378 . S
C2308 C2309 1.367 . S
C2309 C2308 1.367 . S
C2309 C2311 1.433 . S
C2310 C2306 1.350 . S
C2310 C2307 1.463 . S
C2310 N2314 1.427 . S
C2311 H2301 0.929 . S
C2311 C2309 1.433 . S
C2311 N2314 1.384 . S
C2312 H2303 0.929 . S
C2312 C2304 1.378 . S
C2312 C2307 1.350 . S
C2313 H2300 0.929 . S
C2313 C2305 1.433 . S
C2313 N2315 1.384 . S
N2314 C2310 1.427 . S
N2314 C2311 1.384 . S
N2315 C2307 1.427 . S
N2315 C2313 1.384 . S
H2316 C2322 0.930 . S
H2317 C2326 0.930 . S
H2318 C2331 0.929 . S
H2319 C2329 0.929 . S
H2320 C2324 0.929 . S
H2321 C2330 0.929 1_545 S
C2322 H2316 0.930 . S
C2322 C2323 1.367 . S
C2322 C2330 1.378 . S
C2323 C2322 1.367 . S
C2323 C2331 1.433 . S
C2324 H2320 0.929 . S
C2324 C2326 1.378 . S
C2324 C2328 1.350 . S
C2325 C2328 1.463 . S
C2325 C2330 1.350 1_545 S
C2325 N2333 1.427 . S
C2326 H2317 0.930 . S
C2326 C2324 1.378 . S
C2326 C2327 1.367 . S
C2327 C2326 1.367 . S
C2327 C2329 1.433 . S
C2328 C2324 1.350 . S
C2328 C2325 1.463 . S
C2328 N2332 1.427 . S
C2329 H2319 0.929 . S
C2329 C2327 1.433 . S
C2329 N2332 1.384 . S
C2330 H2321 0.929 1_565 S
C2330 C2322 1.378 . S
C2330 C2325 1.350 1_565 S
C2331 H2318 0.929 . S
C2331 C2323 1.433 . S
C2331 N2333 1.384 1_565 S
N2332 C2328 1.427 . S
N2332 C2329 1.384 . S
N2333 C2325 1.427 . S
N2333 C2331 1.384 1_545 S
H2334 C2340 0.930 . S
H2335 C2344 0.930 . S
H2336 C2349 0.929 . S
H2337 C2347 0.929 . S
H2338 C2342 0.929 . S
H2339 C2348 0.929 . S
C2340 H2334 0.930 . S
C2340 C2341 1.367 . S
C2340 C2348 1.378 . S
C2341 C2340 1.367 . S
C2341 C2349 1.433 . S
C2342 H2338 0.929 . S
C2342 C2344 1.378 1_565 S
C2342 C2346 1.350 . S
C2343 C2346 1.463 . S
C2343 C2348 1.350 . S
C2343 N2351 1.427 . S
C2344 H2335 0.930 . S
C2344 C2342 1.378 1_545 S
C2344 C2345 1.367 . S
C2345 C2344 1.367 . S
C2345 C2347 1.433 . S
C2346 C2342 1.350 . S
C2346 C2343 1.463 . S
C2346 N2350 1.427 1_565 S
C2347 H2337 0.929 . S
C2347 C2345 1.433 . S
C2347 N2350 1.384 . S
C2348 H2339 0.929 . S
C2348 C2340 1.378 . S
C2348 C2343 1.350 . S
C2349 H2336 0.929 . S
C2349 C2341 1.433 . S
C2349 N2351 1.384 . S
N2350 C2346 1.427 1_545 S
N2350 C2347 1.384 . S
N2351 C2343 1.427 . S
N2351 C2349 1.384 . S
C631 C554 1.118 . S
C635 C0 1.146 . S
C649 C18 1.255 . S
C653 C200 1.186 . S
C667 C26 1.159 . S
C671 C528 1.152 . S
C685 C44 1.260 . S
C689 C226 1.220 . S
C703 C580 1.153 . S
C707 C57 1.162 . S
C721 C65 1.245 . S
C725 C273 1.226 . S
C739 C83 1.148 . S
C743 C606 1.148 . S
C757 C91 1.254 . S
C761 C247 1.225 . S
C775 C39 1.169 . S
C779 C621 1.182 . S
C793 C5 1.192 . S
C797 C333 1.196 . S
C811 C348 1.169 . S
C815 C13 1.154 . S
C829 C31 1.181 . S
C833 C320 1.186 . S
C847 C70 1.214 . S
C851 C322 1.237 . S
C865 C78 1.120 . S
C869 C619 1.109 . S
C883 C96 1.235 . S
C887 C335 1.251 . S
C901 C52 1.119 . S
C905 C346 1.111 . S
C919 C507 1.188 . S
C923 C104 1.215 . S
C937 C122 1.269 . S
C941 C252 1.213 . S
C955 C109 1.239 . S
C959 C582 1.254 . S
C973 C278 1.240 . S
C977 C135 1.296 . S
C991 C296 1.212 . S
C995 C143 1.195 . S
C1009 C533 1.226 . S
C1013 C161 1.233 . S
C1027 C556 1.157 . S
C1031 C169 1.139 . S
C1045 C530 1.231 . S
C1049 C187 1.219 . S
C1063 C439 1.235 . S
C1067 C205 1.231 . S
C1081 C208 1.195 . S
C1085 C8 1.194 . S
C1099 C231 1.245 . S
C1103 C413 1.244 . S
C1117 C34 1.175 . S
C1121 C234 1.173 . S
C1135 C255 1.207 . S
C1139 C463 1.200 . S
C1153 C88 1.238 . S
C1157 C260 1.225 . S
C1171 C281 1.242 . S
C1175 C489 1.216 . S
C1189 C62 1.233 . S
C1193 C286 1.218 . S
C1207 C504 1.248 . S
C1211 C239 1.223 . S
C1225 C203 1.206 . S
C1229 C140 1.218 . S
C1243 C151 1.222 . S
C1247 C213 1.232 . S
C1261 C127 1.230 . S
C1265 C229 1.218 . S
C1279 C125 1.223 . S
C1283 C265 1.234 . S
C1297 C283 1.273 . S
C1301 C502 1.244 . S
C1315 C138 1.214 . S
C1319 C291 1.217 . S
C1333 C257 1.264 . S
C1337 C153 1.268 . S
C1351 C299 1.195 . S
C1355 C400 1.207 . S
C1369 C312 1.205 . S
C1373 C60 1.201 . S
C1387 C304 1.195 . S
C1391 C465 1.221 . S
C1405 C325 1.227 . S
C1409 C86 1.201 . S
C1423 C343 1.209 . S
C1427 C101 1.236 . S
C1441 C426 1.184 . S
C1445 C351 1.164 . S
C1459 C369 1.259 . S
C1463 C437 1.231 . S
C1477 C382 1.244 . S
C1481 C411 1.228 . S
C1495 C390 1.145 . S
C1499 C242 1.127 . S
C1513 C408 1.241 . S
C1517 C512 1.175 . S
C1531 C216 1.128 . S
C1535 C416 1.129 . S
C1549 C434 1.276 . S
C1553 C538 1.207 . S
C1567 C447 1.173 . S
C1571 C268 1.151 . S
C1585 C585 1.190 . S
C1589 C455 1.230 . S
C1603 C473 1.130 . S
C1607 C294 1.138 . S
C1621 C559 1.229 . S
C1625 C481 1.251 . S
C1639 C309 1.179 . S
C1643 C429 1.160 . S
C1657 C385 1.188 . S
C1661 C395 1.185 . S
C1675 C403 1.162 . S
C1679 C361 1.173 . S
C1693 C372 1.170 . S
C1697 C421 1.182 . S
C1711 C460 1.214 . S
C1715 C374 1.237 . S
C1729 C307 1.101 . S
C1733 C468 1.127 . S
C1747 C486 1.223 . S
C1751 C387 1.245 . S
C1765 C442 1.111 . S
C1769 C359 1.113 . S
C1783 C494 1.206 . S
C1787 C195 1.179 . S
C1801 C174 1.278 . S
C1805 C564 1.213 . S
C1819 C270 1.263 . S
C1823 C499 1.232 . S
C1837 C590 1.184 . S
C1841 C182 1.248 . S
C1855 C608 1.194 . S
C1859 C156 1.177 . S
C1873 C148 1.229 . S
C1877 C221 1.219 . S
C1891 C117 1.146 . S
C1895 C244 1.164 . S
C1909 C218 1.187 . S
C1913 C130 1.172 . S
C1927 C517 1.257 . S
C1931 C49 1.257 . S
C1945 C398 1.190 . S
C1949 C520 1.200 . S
C1963 C543 1.236 . S
C1967 C23 1.245 . S
C1981 C546 1.166 . S
C1985 C424 1.161 . S
C1999 C73 1.210 . S
C2003 C567 1.217 . S
C2017 C572 1.216 . S
C2021 C478 1.235 . S
C2035 C593 1.234 . S
C2039 C99 1.210 . S
C2053 C452 1.203 . S
C2057 C598 1.184 . S
C2071 C551 1.219 . S
C2075 C114 1.245 . S
C2089 C190 1.178 . S
C2093 C515 1.210 . S
C2107 C164 1.224 . S
C2111 C525 1.251 . S
C2125 C541 1.216 . S
C2129 C179 1.231 . S
C2143 C577 1.244 . S
C2147 C177 1.216 . S
C2161 C112 1.220 . S
C2165 C595 1.257 . S
C2179 C192 1.231 . S
C2183 C603 1.223 . S
C2197 C569 1.269 . S
C2201 C166 1.265 . S
C2215 C10 1.208 . S
C2219 C611 1.196 . S
C2233 C364 1.207 . S
C2237 C450 1.189 . S
C2251 C75 1.229 . S
C2255 C616 1.205 . S
C2269 C476 1.189 . S
C2273 C377 1.212 . S
C2287 C491 1.231 . S
C2291 C356 1.208 . S
C2305 C338 1.179 . S
C2309 C36 1.196 . S
C2323 C317 1.257 . S
C2327 C47 1.255 . S
C2341 C21 1.240 . S
C2345 C330 1.260 . S
