# Generated by pormake.
# Topology ghw, (5)-cn, num edge types: 1
# Building blocks:
#     Node 0, Type 0, BuildingBlock: XOMCOT_clean_sbu_1, # of connection points: 5
#     Node 1, Type 0, BuildingBlock: XOMCOT_clean_sbu_1, # of connection points: 5
#     Node 2, Type 0, BuildingBlock: XOMCOT_clean_sbu_1, # of connection points: 5
#     Node 3, Type 0, BuildingBlock: XOMCOT_clean_sbu_1, # of connection points: 5
#     Node 4, Type 0, BuildingBlock: XOMCOT_clean_sbu_1, # of connection points: 5
#     Node 5, Type 0, BuildingBlock: XOMCOT_clean_sbu_1, # of connection points: 5
#     Node 6, Type 0, BuildingBlock: XOMCOT_clean_sbu_1, # of connection points: 5
#     Node 7, Type 0, BuildingBlock: XOMCOT_clean_sbu_1, # of connection points: 5
#     Node 8, Type 0, BuildingBlock: XOMCOT_clean_sbu_1, # of connection points: 5
#     Node 9, Type 0, BuildingBlock: XOMCOT_clean_sbu_1, # of connection points: 5
#     Node 10, Type 0, BuildingBlock: XOMCOT_clean_sbu_1, # of connection points: 5
#     Node 11, Type 0, BuildingBlock: XOMCOT_clean_sbu_1, # of connection points: 5
#     Node 12, Type 0, BuildingBlock: XOMCOT_clean_sbu_1, # of connection points: 5
#     Node 13, Type 0, BuildingBlock: XOMCOT_clean_sbu_1, # of connection points: 5
#     Node 14, Type 0, BuildingBlock: XOMCOT_clean_sbu_1, # of connection points: 5
#     Node 15, Type 0, BuildingBlock: XOMCOT_clean_sbu_1, # of connection points: 5
#     Edge 16, Type (0, 0), BuildingBlock: ZUJKAS_clean_linker_0, # of connection points: 2
#     Edge 17, Type (0, 0), BuildingBlock: ZUJKAS_clean_linker_0, # of connection points: 2
#     Edge 18, Type (0, 0), BuildingBlock: ZUJKAS_clean_linker_0, # of connection points: 2
#     Edge 19, Type (0, 0), BuildingBlock: ZUJKAS_clean_linker_0, # of connection points: 2
#     Edge 20, Type (0, 0), BuildingBlock: ZUJKAS_clean_linker_0, # of connection points: 2
#     Edge 21, Type (0, 0), BuildingBlock: ZUJKAS_clean_linker_0, # of connection points: 2
#     Edge 22, Type (0, 0), BuildingBlock: ZUJKAS_clean_linker_0, # of connection points: 2
#     Edge 23, Type (0, 0), BuildingBlock: ZUJKAS_clean_linker_0, # of connection points: 2
#     Edge 24, Type (0, 0), BuildingBlock: ZUJKAS_clean_linker_0, # of connection points: 2
#     Edge 25, Type (0, 0), BuildingBlock: ZUJKAS_clean_linker_0, # of connection points: 2
#     Edge 26, Type (0, 0), BuildingBlock: ZUJKAS_clean_linker_0, # of connection points: 2
#     Edge 27, Type (0, 0), BuildingBlock: ZUJKAS_clean_linker_0, # of connection points: 2
#     Edge 28, Type (0, 0), BuildingBlock: ZUJKAS_clean_linker_0, # of connection points: 2
#     Edge 29, Type (0, 0), BuildingBlock: ZUJKAS_clean_linker_0, # of connection points: 2
#     Edge 30, Type (0, 0), BuildingBlock: ZUJKAS_clean_linker_0, # of connection points: 2
#     Edge 31, Type (0, 0), BuildingBlock: ZUJKAS_clean_linker_0, # of connection points: 2
#     Edge 32, Type (0, 0), BuildingBlock: ZUJKAS_clean_linker_0, # of connection points: 2
#     Edge 33, Type (0, 0), BuildingBlock: ZUJKAS_clean_linker_0, # of connection points: 2
#     Edge 34, Type (0, 0), BuildingBlock: ZUJKAS_clean_linker_0, # of connection points: 2
#     Edge 35, Type (0, 0), BuildingBlock: ZUJKAS_clean_linker_0, # of connection points: 2
#     Edge 36, Type (0, 0), BuildingBlock: ZUJKAS_clean_linker_0, # of connection points: 2
#     Edge 37, Type (0, 0), BuildingBlock: ZUJKAS_clean_linker_0, # of connection points: 2
#     Edge 38, Type (0, 0), BuildingBlock: ZUJKAS_clean_linker_0, # of connection points: 2
#     Edge 39, Type (0, 0), BuildingBlock: ZUJKAS_clean_linker_0, # of connection points: 2
#     Edge 40, Type (0, 0), BuildingBlock: ZUJKAS_clean_linker_0, # of connection points: 2
#     Edge 41, Type (0, 0), BuildingBlock: ZUJKAS_clean_linker_0, # of connection points: 2
#     Edge 42, Type (0, 0), BuildingBlock: ZUJKAS_clean_linker_0, # of connection points: 2
#     Edge 43, Type (0, 0), BuildingBlock: ZUJKAS_clean_linker_0, # of connection points: 2
#     Edge 44, Type (0, 0), BuildingBlock: ZUJKAS_clean_linker_0, # of connection points: 2
#     Edge 45, Type (0, 0), BuildingBlock: ZUJKAS_clean_linker_0, # of connection points: 2
#     Edge 46, Type (0, 0), BuildingBlock: ZUJKAS_clean_linker_0, # of connection points: 2
#     Edge 47, Type (0, 0), BuildingBlock: ZUJKAS_clean_linker_0, # of connection points: 2
#     Edge 48, Type (0, 0), BuildingBlock: ZUJKAS_clean_linker_0, # of connection points: 2
#     Edge 49, Type (0, 0), BuildingBlock: ZUJKAS_clean_linker_0, # of connection points: 2
#     Edge 50, Type (0, 0), BuildingBlock: ZUJKAS_clean_linker_0, # of connection points: 2
#     Edge 51, Type (0, 0), BuildingBlock: ZUJKAS_clean_linker_0, # of connection points: 2
#     Edge 52, Type (0, 0), BuildingBlock: ZUJKAS_clean_linker_0, # of connection points: 2
#     Edge 53, Type (0, 0), BuildingBlock: ZUJKAS_clean_linker_0, # of connection points: 2
#     Edge 54, Type (0, 0), BuildingBlock: ZUJKAS_clean_linker_0, # of connection points: 2
#     Edge 55, Type (0, 0), BuildingBlock: ZUJKAS_clean_linker_0, # of connection points: 2
# Relax obj value: 0.197
# Max RMSD: 0.207
# Mean RMSD: 0.207
data_MOF--net-ghw--node1-XOMCOT_clean_sbu_1--edge1-ZUJKAS_clean_linker_0
_symmetry_space_group_name_H-M    P1
_symmetry_Int_Tables_number       1
_symmetry_cell_setting            triclinic
loop_
_symmetry_equiv_pos_as_xyz
'x, y, z'
_cell_length_a     41.592019
_cell_length_b     54.006622
_cell_length_c     43.430239
_cell_angle_alpha  90.122144
_cell_angle_beta   92.648118
_cell_angle_gamma 89.961437
loop_
_atom_site_label
_atom_site_type_symbol
_atom_site_fract_x
_atom_site_fract_y
_atom_site_fract_z
_atom_type_partial_charge
C0 C 0.14187 0.11345 0.3789 0.0
C1 C 0.17297 0.10617 0.37425 0.0
N2 N 0.19314 0.12277 0.38803 0.0
N3 N 0.14232 0.13448 0.39564 0.0
C4 C 0.17389 0.1397 0.40088 0.0
H5 H 0.12029 0.10429 0.36998 0.0
Co6 Co 0.10596 0.15243 0.40538 0.0
C7 C 0.12934 0.20038 0.43037 0.0
O8 O 0.10608 0.21067 0.41332 0.0
N9 N 0.06887 0.1702 0.41592 0.0
C10 C 0.0353 0.19 0.44608 0.0
C11 C 0.06292 0.17618 0.4454 0.0
C12 C 0.04384 0.18018 0.39919 0.0
N13 N 0.02342 0.19252 0.41697 0.0
O14 O 0.10022 0.13126 0.44081 0.0
H15 H 0.07821 0.17123 0.46526 0.0
H16 H 0.04058 0.17899 0.37447 0.0
O17 O 0.13291 0.17675 0.4297 0.0
C18 C 0.08068 0.11418 0.43165 0.0
O19 O 0.07016 0.11445 0.40265 0.0
N20 N 0.10959 0.1701 0.36826 0.0
C21 C 0.11147 0.18693 0.30744 0.0
C22 C 0.13473 0.19467 0.32992 0.0
C23 C 0.13371 0.18568 0.36017 0.0
C24 C 0.08827 0.16125 0.34619 0.0
C25 C 0.08823 0.1698 0.31596 0.0
H26 H 0.15296 0.1906 0.37654 0.0
H27 H 0.07122 0.14712 0.35212 0.0
H28 H 0.18266 0.15612 0.41277 0.0
H29 H 0.18008 0.08998 0.36152 0.0
H30 H 0.02453 0.19733 0.46642 0.0
H31 H 0.15379 0.20723 0.32411 0.0
H32 H 0.07078 0.16232 0.29915 0.0
C33 C 0.09956 0.10308 0.91322 0.0
C34 C 0.06826 0.09591 0.91703 0.0
N35 N 0.04871 0.11142 0.90069 0.0
N36 N 0.09971 0.12302 0.89464 0.0
C37 C 0.06837 0.1276 0.88725 0.0
H38 H 0.1208 0.09493 0.92436 0.0
Co39 Co 0.13609 0.14141 0.88699 0.0
C40 C 0.1129 0.18822 0.85817 0.0
O41 O 0.13434 0.1999 0.876 0.0
N42 N 0.17336 0.15955 0.87889 0.0
C43 C 0.20897 0.17973 0.85156 0.0
C44 C 0.1813 0.16592 0.85009 0.0
C45 C 0.1974 0.16903 0.89738 0.0
N46 N 0.21893 0.18167 0.88133 0.0
O47 O 0.14491 0.12016 0.8524 0.0
H48 H 0.16742 0.16117 0.82924 0.0
H49 H 0.19938 0.16706 0.92208 0.0
O50 O 0.11025 0.1646 0.86022 0.0
C51 C 0.16431 0.10306 0.86162 0.0
O52 O 0.17308 0.10241 0.89107 0.0
N53 N 0.12906 0.15973 0.92315 0.0
C54 C 0.12254 0.17899 0.98244 0.0
C55 C 0.10111 0.18592 0.958 0.0
C56 C 0.1044 0.1757 0.92859 0.0
C57 C 0.14845 0.15153 0.94713 0.0
C58 C 0.14619 0.16129 0.97667 0.0
H59 H 0.0865 0.18011 0.91068 0.0
H60 H 0.16583 0.13708 0.94323 0.0
H61 H 0.05989 0.14332 0.8738 0.0
H62 H 0.06047 0.08083 0.93126 0.0
H63 H 0.22122 0.18734 0.83226 0.0
H64 H 0.08177 0.19888 0.96163 0.0
H65 H 0.16223 0.1544 0.99506 0.0
C66 C 0.85116 0.93983 0.67112 0.0
C67 C 0.82252 0.95232 0.67363 0.0
N68 N 0.80161 0.94414 0.65122 0.0
N69 N 0.84825 0.92373 0.64739 0.0
C70 C 0.81804 0.92712 0.63541 0.0
H71 H 0.87227 0.94151 0.68648 0.0
Co72 Co 0.8786 0.90013 0.63657 0.0
C73 C 0.82877 0.86154 0.61636 0.0
O74 O 0.83253 0.84949 0.64244 0.0
N75 N 0.90916 0.8767 0.6247 0.0
C76 C 0.9354 0.84207 0.61365 0.0
C77 C 0.90715 0.85171 0.62355 0.0
C78 C 0.93899 0.8817 0.6154 0.0
N79 N 0.95531 0.86101 0.60842 0.0
O80 O 0.88839 0.92028 0.60107 0.0
H81 H 0.88715 0.8408 0.63047 0.0
H82 H 0.94912 0.9001 0.61483 0.0
O83 O 0.84522 0.8812 0.61173 0.0
C84 C 0.90688 0.93798 0.61045 0.0
O85 O 0.9152 0.93898 0.63999 0.0
N86 N 0.87208 0.88265 0.67426 0.0
C87 C 0.86923 0.86406 0.73459 0.0
C88 C 0.84136 0.87241 0.71829 0.0
C89 C 0.84334 0.88188 0.68845 0.0
C90 C 0.89949 0.87532 0.69031 0.0
C91 C 0.89849 0.86537 0.71987 0.0
H92 H 0.82157 0.88863 0.67681 0.0
H93 H 0.92277 0.87789 0.68078 0.0
H94 H 0.80754 0.91618 0.61667 0.0
H95 H 0.81726 0.96576 0.69121 0.0
H96 H 0.94101 0.82264 0.61094 0.0
H97 H 0.81827 0.87256 0.72883 0.0
H98 H 0.9208 0.85931 0.7313 0.0
C99 C 0.89251 0.93646 0.12591 0.0
C100 C 0.92365 0.94383 0.12176 0.0
N101 N 0.94367 0.92826 0.13751 0.0
N102 N 0.89274 0.91644 0.14436 0.0
C103 C 0.92428 0.91185 0.15103 0.0
H104 H 0.87107 0.94475 0.11535 0.0
Co105 Co 0.85612 0.89893 0.15443 0.0
C106 C 0.87914 0.8519 0.18175 0.0
O107 O 0.85627 0.84105 0.16474 0.0
N108 N 0.81874 0.88164 0.16531 0.0
C109 C 0.7845 0.86306 0.19585 0.0
C110 C 0.81258 0.8763 0.19491 0.0
C111 C 0.79337 0.87192 0.14879 0.0
N112 N 0.77252 0.86032 0.16679 0.0
O113 O 0.84992 0.92115 0.18871 0.0
H114 H 0.82791 0.88141 0.21469 0.0
H115 H 0.78998 0.87291 0.12408 0.0
O116 O 0.88261 0.87548 0.18017 0.0
C117 C 0.83087 0.93814 0.17843 0.0
O118 O 0.82122 0.93725 0.1492 0.0
N119 N 0.8603 0.87999 0.11833 0.0
C120 C 0.86251 0.86036 0.05885 0.0
C121 C 0.88601 0.85395 0.08171 0.0
C122 C 0.88478 0.86431 0.11131 0.0
C123 C 0.83896 0.88775 0.09565 0.0
C124 C 0.83899 0.8777 0.06613 0.0
H125 H 0.90407 0.86031 0.12803 0.0
H126 H 0.82182 0.90214 0.10056 0.0
H127 H 0.93296 0.89658 0.16517 0.0
H128 H 0.93097 0.95891 0.10729 0.0
H129 H 0.77341 0.8564 0.21632 0.0
H130 H 0.90535 0.84135 0.07667 0.0
H131 H 0.8214 0.88417 0.0488 0.0
C132 C 0.151 0.60586 0.86909 0.0
C133 C 0.18238 0.59891 0.86512 0.0
N134 N 0.20192 0.61388 0.88241 0.0
N135 N 0.15059 0.62509 0.88885 0.0
C136 C 0.18192 0.62945 0.89672 0.0
H137 H 0.12989 0.59813 0.8572 0.0
Co138 Co 0.11403 0.64331 0.89772 0.0
C139 C 0.13787 0.69203 0.9195 0.0
O140 O 0.11523 0.70196 0.90135 0.0
N141 N 0.07699 0.66159 0.90744 0.0
C142 C 0.04435 0.68308 0.93687 0.0
C143 C 0.0716 0.66879 0.93663 0.0
C144 C 0.05194 0.67131 0.89045 0.0
N145 N 0.0321 0.68465 0.90779 0.0
O146 O 0.10851 0.62357 0.93434 0.0
H147 H 0.08712 0.66447 0.95657 0.0
H148 H 0.04833 0.66936 0.86583 0.0
O149 O 0.14086 0.66838 0.92045 0.0
C150 C 0.0903 0.60548 0.92583 0.0
O151 O 0.08141 0.60383 0.89647 0.0
N152 N 0.11742 0.65943 0.85956 0.0
C153 C 0.12165 0.67041 0.79686 0.0
C154 C 0.14442 0.67982 0.8188 0.0
C155 C 0.14228 0.67366 0.85005 0.0
C156 C 0.09575 0.64974 0.83839 0.0
C157 C 0.09685 0.65547 0.80724 0.0
H158 H 0.16158 0.67917 0.86607 0.0
H159 H 0.07792 0.63671 0.84571 0.0
H160 H 0.18999 0.6442 0.91203 0.0
H161 H 0.19012 0.58471 0.84948 0.0
H162 H 0.03411 0.69144 0.95687 0.0
H163 H 0.16466 0.69068 0.81171 0.0
H164 H 0.07879 0.64764 0.79132 0.0
C165 C 0.08482 0.60443 0.40441 0.0
C166 C 0.05334 0.59775 0.4085 0.0
N167 N 0.03438 0.60983 0.38745 0.0
N168 N 0.08566 0.62064 0.38094 0.0
C169 C 0.05469 0.62332 0.37085 0.0
H170 H 0.10563 0.59864 0.41843 0.0
Co171 Co 0.12166 0.63769 0.3687 0.0
C172 C 0.09765 0.68617 0.34646 0.0
O173 O 0.12178 0.69613 0.3627 0.0
N174 N 0.15804 0.65476 0.35524 0.0
C175 C 0.18776 0.67491 0.32195 0.0
C176 C 0.16078 0.66079 0.32522 0.0
C177 C 0.18446 0.66491 0.36961 0.0
N178 N 0.20247 0.67749 0.34991 0.0
O179 O 0.12357 0.61666 0.33276 0.0
H180 H 0.14349 0.65596 0.30682 0.0
H181 H 0.1903 0.66399 0.39401 0.0
O182 O 0.09396 0.66257 0.34662 0.0
C183 C 0.14068 0.59785 0.34067 0.0
O184 O 0.15068 0.59601 0.36974 0.0
N185 N 0.1216 0.65545 0.4062 0.0
C186 C 0.12285 0.67157 0.46755 0.0
C187 C 0.09761 0.67853 0.44674 0.0
C188 C 0.09715 0.66994 0.41621 0.0
C189 C 0.14512 0.64744 0.42667 0.0
C190 C 0.14677 0.65579 0.45709 0.0
H191 H 0.07641 0.67403 0.40121 0.0
H192 H 0.16233 0.63382 0.41948 0.0
H193 H 0.04705 0.6353 0.35201 0.0
H194 H 0.04504 0.58583 0.42648 0.0
H195 H 0.19601 0.68264 0.30073 0.0
H196 H 0.07805 0.69001 0.45416 0.0
H197 H 0.16582 0.64895 0.47268 0.0
C198 C 0.84536 0.43649 0.1603 0.0
C199 C 0.81434 0.44444 0.16401 0.0
N200 N 0.79421 0.43008 0.14651 0.0
N201 N 0.84491 0.41727 0.14049 0.0
C202 C 0.81346 0.41385 0.13239 0.0
H203 H 0.86677 0.44362 0.17228 0.0
Co204 Co 0.88066 0.39843 0.13133 0.0
C205 C 0.85489 0.35192 0.10351 0.0
O206 O 0.87659 0.33995 0.12071 0.0
N207 N 0.91714 0.37972 0.12159 0.0
C208 C 0.95087 0.35914 0.09244 0.0
C209 C 0.9234 0.37319 0.09238 0.0
C210 C 0.94194 0.37 0.13889 0.0
N211 N 0.96241 0.35713 0.12173 0.0
O212 O 0.88865 0.41979 0.09667 0.0
H213 H 0.90859 0.37812 0.07219 0.0
H214 H 0.94531 0.37205 0.16351 0.0
O215 O 0.85329 0.37561 0.10538 0.0
C216 C 0.90778 0.43697 0.1063 0.0
O217 O 0.91662 0.43729 0.13574 0.0
N218 N 0.87483 0.38021 0.16765 0.0
C219 C 0.87122 0.36137 0.22736 0.0
C220 C 0.84811 0.35484 0.20413 0.0
C221 C 0.85 0.36484 0.17444 0.0
C222 C 0.89578 0.38813 0.19059 0.0
C223 C 0.89498 0.37855 0.22027 0.0
H224 H 0.83099 0.36078 0.15744 0.0
H225 H 0.91328 0.40224 0.18575 0.0
H226 H 0.80472 0.39939 0.11697 0.0
H227 H 0.80717 0.45894 0.1795 0.0
H228 H 0.96199 0.35154 0.07244 0.0
H229 H 0.8286 0.34236 0.20891 0.0
H230 H 0.91229 0.38518 0.23778 0.0
C231 C 0.88599 0.42182 0.6159 0.0
C232 C 0.91499 0.43238 0.60953 0.0
N233 N 0.93775 0.42323 0.62949 0.0
N234 N 0.8904 0.40606 0.63972 0.0
C235 C 0.92211 0.40749 0.64774 0.0
H236 H 0.8633 0.42473 0.60324 0.0
Co237 Co 0.85866 0.38538 0.65405 0.0
C238 C 0.89568 0.34077 0.67321 0.0
O239 O 0.87528 0.32798 0.65548 0.0
N240 N 0.82591 0.36527 0.66939 0.0
C241 C 0.79681 0.34203 0.70024 0.0
C242 C 0.82716 0.35024 0.69439 0.0
C243 C 0.79412 0.36723 0.66208 0.0
N244 N 0.77612 0.3529 0.6799 0.0
O245 O 0.85394 0.40687 0.6893 0.0
H246 H 0.84824 0.34667 0.70913 0.0
H247 H 0.78396 0.38005 0.64526 0.0
O248 O 0.89193 0.3643 0.6758 0.0
C249 C 0.8341 0.42365 0.67984 0.0
O250 O 0.82316 0.42266 0.65098 0.0
N251 N 0.86067 0.36676 0.61668 0.0
C252 C 0.86193 0.35196 0.55468 0.0
C253 C 0.88986 0.35089 0.57405 0.0
C254 C 0.88886 0.35877 0.60481 0.0
C255 C 0.83346 0.3677 0.59797 0.0
C256 C 0.83334 0.35987 0.56738 0.0
H257 H 0.9112 0.35984 0.61845 0.0
H258 H 0.81218 0.37657 0.60558 0.0
H259 H 0.93384 0.39628 0.66554 0.0
H260 H 0.91905 0.4454 0.59121 0.0
H261 H 0.79024 0.33032 0.71915 0.0
H262 H 0.91274 0.34562 0.56504 0.0
H263 H 0.81122 0.36131 0.55332 0.0
C264 C 0.6535 0.10891 0.88431 0.0
C265 C 0.68452 0.10009 0.88704 0.0
N266 N 0.70446 0.11947 0.89212 0.0
N267 N 0.65389 0.13372 0.88773 0.0
C268 C 0.68528 0.13963 0.89251 0.0
H269 H 0.63218 0.098 0.87899 0.0
Co270 Co 0.61887 0.1546 0.88137 0.0
C271 C 0.63644 0.20271 0.91314 0.0
O272 O 0.61609 0.21483 0.89472 0.0
N273 N 0.58284 0.17538 0.87442 0.0
C274 C 0.54566 0.20055 0.85325 0.0
C275 C 0.57267 0.18687 0.84805 0.0
C276 C 0.56103 0.18206 0.8951 0.0
N277 N 0.53845 0.19751 0.88283 0.0
O278 O 0.59772 0.13858 0.91496 0.0
H279 H 0.58374 0.18552 0.82615 0.0
H280 H 0.5618 0.17598 0.91884 0.0
O281 O 0.63982 0.17925 0.90987 0.0
C282 C 0.57742 0.12277 0.9038 0.0
O283 O 0.57412 0.12082 0.87363 0.0
N284 N 0.63805 0.16729 0.84643 0.0
C285 C 0.65246 0.18053 0.78646 0.0
C286 C 0.66242 0.19548 0.81171 0.0
C287 C 0.65528 0.18837 0.84173 0.0
C288 C 0.63027 0.15181 0.82246 0.0
C289 C 0.63694 0.15811 0.7924 0.0
H290 H 0.66309 0.20011 0.86066 0.0
H291 H 0.61695 0.13504 0.82663 0.0
H292 H 0.69405 0.15845 0.89449 0.0
H293 H 0.69188 0.08097 0.88485 0.0
H294 H 0.53165 0.21114 0.83626 0.0
H295 H 0.67521 0.21264 0.80829 0.0
H296 H 0.62842 0.146 0.77387 0.0
C297 C 0.58917 0.11937 0.39816 0.0
C298 C 0.55841 0.11149 0.40323 0.0
N299 N 0.53759 0.12554 0.38618 0.0
N300 N 0.58784 0.13826 0.37793 0.0
C301 C 0.55611 0.14156 0.37101 0.0
H302 H 0.61107 0.11222 0.40919 0.0
Co303 Co 0.62316 0.15662 0.36633 0.0
C304 C 0.5961 0.20283 0.33947 0.0
O305 O 0.61865 0.21484 0.35559 0.0
N306 N 0.65912 0.17482 0.35395 0.0
C307 C 0.69157 0.19454 0.32265 0.0
C308 C 0.66341 0.18143 0.32437 0.0
C309 C 0.68571 0.18347 0.36954 0.0
N310 N 0.70547 0.19571 0.35113 0.0
O311 O 0.6289 0.13451 0.33192 0.0
H312 H 0.64692 0.17706 0.30514 0.0
H313 H 0.69103 0.18096 0.39384 0.0
O314 O 0.59459 0.17916 0.34145 0.0
C315 C 0.64833 0.11771 0.34203 0.0
O316 O 0.65846 0.11879 0.37111 0.0
N317 N 0.61979 0.1755 0.4026 0.0
C318 C 0.61973 0.19453 0.46236 0.0
C319 C 0.59484 0.20053 0.44077 0.0
C320 C 0.59511 0.19054 0.41087 0.0
C321 C 0.64242 0.16805 0.42429 0.0
C322 C 0.64355 0.17795 0.4539 0.0
H323 H 0.57492 0.19417 0.395 0.0
H324 H 0.65957 0.15389 0.41863 0.0
H325 H 0.54658 0.1561 0.35616 0.0
H326 H 0.55197 0.09669 0.41853 0.0
H327 H 0.70152 0.20198 0.30201 0.0
H328 H 0.57521 0.21241 0.4471 0.0
H329 H 0.66221 0.17194 0.47047 0.0
C330 C 0.33819 0.94874 0.13286 0.0
C331 C 0.30676 0.95491 0.13801 0.0
N332 N 0.28748 0.93682 0.12629 0.0
N333 N 0.33882 0.92691 0.11785 0.0
C334 C 0.30758 0.92011 0.11418 0.0
H335 H 0.35926 0.95928 0.1402 0.0
Co336 Co 0.37585 0.90972 0.10792 0.0
C337 C 0.35333 0.86152 0.08299 0.0
O338 O 0.37668 0.85126 0.09995 0.0
N339 N 0.41341 0.89255 0.09709 0.0
C340 C 0.44685 0.87262 0.06685 0.0
C341 C 0.41921 0.88646 0.0676 0.0
C342 C 0.43861 0.88271 0.11372 0.0
N343 N 0.45891 0.87029 0.0959 0.0
O344 O 0.38058 0.93095 0.07241 0.0
H345 H 0.40368 0.89117 0.04781 0.0
H346 H 0.44201 0.88385 0.13843 0.0
O347 O 0.34957 0.88511 0.0838 0.0
C348 C 0.40011 0.94806 0.08147 0.0
O349 O 0.41101 0.94762 0.11036 0.0
N350 N 0.37328 0.89206 0.14514 0.0
C351 C 0.37428 0.87513 0.20596 0.0
C352 C 0.35055 0.86684 0.18428 0.0
C353 C 0.35022 0.87578 0.15391 0.0
C354 C 0.39474 0.90158 0.16663 0.0
C355 C 0.39633 0.8929 0.1968 0.0
H356 H 0.33089 0.87019 0.13797 0.0
H357 H 0.41095 0.91612 0.16017 0.0
H358 H 0.29973 0.90277 0.10393 0.0
H359 H 0.29886 0.97142 0.14962 0.0
H360 H 0.45738 0.86499 0.04656 0.0
H361 H 0.33231 0.85381 0.19082 0.0
H362 H 0.41409 0.90066 0.21311 0.0
C363 C 0.40729 0.95046 0.61472 0.0
C364 C 0.43771 0.96023 0.61344 0.0
N365 N 0.45856 0.94477 0.62833 0.0
N366 N 0.40887 0.92897 0.6304 0.0
C367 C 0.44038 0.92598 0.63842 0.0
H368 H 0.38544 0.95829 0.60438 0.0
Co369 Co 0.37388 0.90853 0.63619 0.0
C370 C 0.40126 0.85996 0.65486 0.0
O371 O 0.38045 0.84983 0.63491 0.0
N372 N 0.33798 0.88842 0.64269 0.0
C373 C 0.30285 0.86623 0.6682 0.0
C374 C 0.33263 0.87715 0.66975 0.0
C375 C 0.31058 0.88462 0.6254 0.0
N376 N 0.28896 0.87103 0.64027 0.0
O377 O 0.36539 0.92574 0.67413 0.0
H378 H 0.349 0.87754 0.68983 0.0
H379 H 0.30533 0.89301 0.60326 0.0
O380 O 0.40189 0.88361 0.65798 0.0
C381 C 0.34504 0.94275 0.6668 0.0
O382 O 0.33576 0.9449 0.63759 0.0
N383 N 0.38001 0.89459 0.59692 0.0
C384 C 0.38432 0.88336 0.53419 0.0
C385 C 0.40751 0.87453 0.55608 0.0
C386 C 0.40538 0.8809 0.58731 0.0
C387 C 0.35861 0.90444 0.57567 0.0
C388 C 0.35965 0.89852 0.54454 0.0
H389 H 0.42475 0.87556 0.60333 0.0
H390 H 0.34101 0.91772 0.58286 0.0
H391 H 0.45002 0.90995 0.65052 0.0
H392 H 0.44391 0.97737 0.60231 0.0
H393 H 0.29194 0.85626 0.6866 0.0
H394 H 0.42783 0.86371 0.54901 0.0
H395 H 0.34143 0.90617 0.52868 0.0
C396 C 0.64208 0.6325 0.34279 0.0
C397 C 0.67215 0.62219 0.34078 0.0
N398 N 0.69179 0.63221 0.36302 0.0
N399 N 0.64272 0.64896 0.36615 0.0
C400 C 0.67323 0.64829 0.37817 0.0
H401 H 0.62123 0.62873 0.32771 0.0
Co402 Co 0.60823 0.66856 0.37658 0.0
C403 C 0.63673 0.71484 0.4012 0.0
O404 O 0.61533 0.72642 0.38325 0.0
N405 N 0.57294 0.68791 0.38802 0.0
C406 C 0.54094 0.70858 0.41894 0.0
C407 C 0.56957 0.69616 0.41716 0.0
C408 C 0.54527 0.69481 0.37286 0.0
N409 N 0.52573 0.70762 0.39103 0.0
O410 O 0.60097 0.64746 0.4115 0.0
H411 H 0.58666 0.69287 0.43624 0.0
H412 H 0.53865 0.69002 0.34933 0.0
O413 O 0.63738 0.69106 0.40122 0.0
C414 C 0.58217 0.63018 0.40157 0.0
O415 O 0.57379 0.62986 0.37202 0.0
N416 N 0.61325 0.68669 0.33984 0.0
C417 C 0.61664 0.70591 0.28028 0.0
C418 C 0.64181 0.70985 0.30242 0.0
C419 C 0.63992 0.69966 0.33199 0.0
C420 C 0.59014 0.68102 0.31772 0.0
C421 C 0.59076 0.69103 0.28822 0.0
H422 H 0.66035 0.70157 0.34808 0.0
H423 H 0.57166 0.66775 0.32265 0.0
H424 H 0.68173 0.65949 0.39754 0.0
H425 H 0.67921 0.609 0.32355 0.0
H426 H 0.53124 0.71648 0.43948 0.0
H427 H 0.66293 0.72033 0.2968 0.0
H428 H 0.57183 0.68617 0.27131 0.0
C429 C 0.59745 0.61606 0.89719 0.0
C430 C 0.56639 0.60865 0.9016 0.0
N431 N 0.5465 0.62098 0.88158 0.0
N432 N 0.59734 0.63297 0.87446 0.0
C433 C 0.566 0.63555 0.8653 0.0
H434 H 0.61869 0.61018 0.91051 0.0
Co435 Co 0.63374 0.65013 0.86304 0.0
C436 C 0.61029 0.69615 0.83317 0.0
O437 O 0.63307 0.70769 0.84953 0.0
N438 N 0.67087 0.66706 0.85093 0.0
C439 C 0.70448 0.6848 0.81906 0.0
C440 C 0.6767 0.67133 0.82099 0.0
C441 C 0.69618 0.67761 0.86669 0.0
N442 N 0.71662 0.68873 0.84784 0.0
O443 O 0.63974 0.62668 0.82993 0.0
H444 H 0.66127 0.6654 0.80165 0.0
H445 H 0.69973 0.67763 0.89143 0.0
O446 O 0.60686 0.67266 0.83623 0.0
C447 C 0.65792 0.60951 0.84119 0.0
O448 O 0.66678 0.61083 0.87059 0.0
N449 N 0.6298 0.67028 0.89818 0.0
C450 C 0.62493 0.68891 0.95799 0.0
C451 C 0.60263 0.69587 0.93429 0.0
C452 C 0.60501 0.68584 0.90463 0.0
C453 C 0.65098 0.6629 0.92121 0.0
C454 C 0.64951 0.67237 0.95094 0.0
H455 H 0.58596 0.68959 0.88756 0.0
H456 H 0.66866 0.64884 0.91662 0.0
H457 H 0.55757 0.64818 0.84744 0.0
H458 H 0.55904 0.59594 0.91916 0.0
H459 H 0.71524 0.69085 0.79813 0.0
H460 H 0.58252 0.70782 0.93903 0.0
H461 H 0.66705 0.66621 0.96848 0.0
C462 C 0.32867 0.46558 0.61979 0.0
C463 C 0.29693 0.47161 0.62339 0.0
N464 N 0.2788 0.45155 0.61627 0.0
N465 N 0.33057 0.44187 0.61032 0.0
C466 C 0.29982 0.4338 0.60845 0.0
H467 H 0.34907 0.47761 0.62446 0.0
Co468 Co 0.36823 0.42429 0.60479 0.0
C469 C 0.34835 0.37496 0.57993 0.0
O470 O 0.37154 0.36515 0.5975 0.0
N471 N 0.40653 0.40691 0.59874 0.0
C472 C 0.44407 0.38643 0.5741 0.0
C473 C 0.4162 0.39992 0.57069 0.0
C474 C 0.4295 0.39799 0.61877 0.0
N475 N 0.45225 0.38521 0.60435 0.0
O476 O 0.37616 0.44362 0.56827 0.0
H477 H 0.40327 0.40382 0.54907 0.0
H478 H 0.42951 0.40022 0.64346 0.0
O479 O 0.34375 0.39848 0.58058 0.0
C480 C 0.39549 0.46092 0.57714 0.0
O481 O 0.40436 0.46198 0.60655 0.0
N482 N 0.36256 0.40855 0.64286 0.0
C483 C 0.36023 0.39461 0.70466 0.0
C484 C 0.34163 0.38212 0.68172 0.0
C485 C 0.34243 0.38985 0.6509 0.0
C486 C 0.3795 0.42147 0.66515 0.0
C487 C 0.37904 0.41468 0.696 0.0
H488 H 0.32629 0.38116 0.63404 0.0
H489 H 0.39397 0.43709 0.65874 0.0
H490 H 0.29302 0.41498 0.60268 0.0
H491 H 0.28797 0.48937 0.63079 0.0
H492 H 0.45749 0.3784 0.55579 0.0
H493 H 0.32592 0.36705 0.68769 0.0
H494 H 0.39359 0.42497 0.71293 0.0
C495 C 0.3993 0.44779 0.13884 0.0
C496 C 0.4309 0.45494 0.14356 0.0
N497 N 0.44961 0.43453 0.14357 0.0
N498 N 0.398 0.42296 0.13606 0.0
C499 C 0.42894 0.41541 0.13908 0.0
H500 H 0.3788 0.46004 0.13631 0.0
Co501 Co 0.36204 0.40386 0.12532 0.0
C502 C 0.37489 0.35392 0.1556 0.0
O503 O 0.35297 0.34269 0.13791 0.0
N504 N 0.32532 0.38496 0.11401 0.0
C505 C 0.28846 0.36295 0.08717 0.0
C506 C 0.31581 0.37695 0.08548 0.0
C507 C 0.30236 0.37646 0.13241 0.0
N508 N 0.2802 0.36258 0.1167 0.0
O509 O 0.33949 0.41821 0.15917 0.0
H510 H 0.32772 0.38094 0.0645 0.0
H511 H 0.30251 0.37958 0.15704 0.0
O512 O 0.38008 0.37712 0.15218 0.0
C513 C 0.32061 0.43534 0.14901 0.0
O514 O 0.31947 0.43979 0.11923 0.0
N515 N 0.38286 0.39249 0.09036 0.0
C516 C 0.39746 0.38137 0.02978 0.0
C517 C 0.4008 0.36333 0.05298 0.0
C518 C 0.39374 0.36935 0.08337 0.0
C519 C 0.38178 0.4106 0.06856 0.0
C520 C 0.38906 0.40551 0.03821 0.0
H521 H 0.39543 0.355 0.10044 0.0
H522 H 0.37295 0.42879 0.07436 0.0
H523 H 0.43612 0.39624 0.1371 0.0
H524 H 0.43942 0.47384 0.14536 0.0
H525 H 0.27521 0.35417 0.06808 0.0
H526 H 0.40769 0.34455 0.04747 0.0
H527 H 0.38588 0.41998 0.02112 0.0
H528 H 0.23489 0.1447 0.42963 0.0
H529 H 0.29361 0.14547 0.42857 0.0
H530 H 0.28916 0.10222 0.34494 0.0
H531 H 0.23053 0.10151 0.34562 0.0
H532 H 0.33446 0.08478 0.38907 0.0
H533 H 0.34815 0.18581 0.37027 0.0
H534 H 0.32508 0.17789 0.40279 0.0
H535 H 0.31006 0.17006 0.36455 0.0
C536 C 0.24633 0.13557 0.41082 0.0
C537 C 0.22785 0.12309 0.38767 0.0
C538 C 0.27993 0.13604 0.41025 0.0
C539 C 0.29572 0.12418 0.38645 0.0
C540 C 0.27744 0.11152 0.3635 0.0
H541 H 0.49579 0.14106 0.34027 0.0
H542 H 0.43699 0.14031 0.34004 0.0
C543 C 0.24388 0.11103 0.36404 0.0
C544 C 0.33134 0.12448 0.38574 0.0
H545 H 0.3961 0.16295 0.38122 0.0
C546 C 0.34796 0.10186 0.38729 0.0
C547 C 0.34884 0.14677 0.38301 0.0
C548 C 0.33218 0.17152 0.37977 0.0
C549 C 0.38166 0.10093 0.38668 0.0
C550 C 0.39922 0.12327 0.38491 0.0
C551 C 0.38259 0.14587 0.38284 0.0
C552 C 0.43489 0.12357 0.3851 0.0
C553 C 0.39815 0.07603 0.38747 0.0
C554 C 0.45322 0.11466 0.41065 0.0
C555 C 0.48683 0.11514 0.41092 0.0
C556 C 0.50285 0.1247 0.38569 0.0
C557 C 0.48434 0.13379 0.3602 0.0
C558 C 0.45071 0.13329 0.35997 0.0
H559 H 0.38122 0.06083 0.38077 0.0
H560 H 0.41853 0.07568 0.37183 0.0
H561 H 0.40785 0.07232 0.41125 0.0
H562 H 0.44151 0.10759 0.43059 0.0
H563 H 0.50021 0.10846 0.43118 0.0
H564 H 0.98202 0.17892 0.37047 0.0
H565 H 0.92917 0.19661 0.35808 0.0
H566 H 0.94558 0.2521 0.42877 0.0
H567 H -0.00161 0.23381 0.44181 0.0
H568 H 0.8917 0.23142 0.43665 0.0
H569 H 0.891 0.25448 0.31402 0.0
H570 H 0.90585 0.22348 0.31777 0.0
H571 H 0.92808 0.24865 0.3361 0.0
C572 C 0.9747 0.19527 0.3828 0.0
C573 C 0.99412 0.2049 0.40721 0.0
C574 C 0.94457 0.20556 0.37553 0.0
C575 C 0.93355 0.22605 0.39207 0.0
C576 C 0.95362 0.23642 0.41557 0.0
H577 H 0.73088 0.23812 0.33001 0.0
H578 H 0.78473 0.25478 0.34336 0.0
C579 C 0.98363 0.22587 0.42313 0.0
C580 C 0.89941 0.23373 0.38791 0.0
H581 H 0.83953 0.2372 0.33195 0.0
C582 C 0.88039 0.23342 0.41378 0.0
C583 C 0.88448 0.23751 0.35837 0.0
C584 C 0.90362 0.24136 0.33013 0.0
C585 C 0.84675 0.23358 0.41048 0.0
C586 C 0.83189 0.23308 0.38052 0.0
C587 C 0.85082 0.23667 0.35495 0.0
C588 C 0.79799 0.22517 0.37505 0.0
C589 C 0.82761 0.23344 0.43915 0.0
C590 C 0.78758 0.20303 0.3883 0.0
C591 C 0.75689 0.19383 0.3811 0.0
C592 C 0.73627 0.20616 0.35981 0.0
C593 C 0.74653 0.22829 0.34643 0.0
C594 C 0.77713 0.23782 0.35413 0.0
H595 H 0.83991 0.24462 0.45769 0.0
H596 H 0.80296 0.24092 0.43468 0.0
H597 H 0.82589 0.2142 0.44784 0.0
H598 H 0.8036 0.19229 0.40341 0.0
H599 H 0.74974 0.17649 0.39121 0.0
H600 H 0.50194 0.17237 0.92186 0.0
H601 H 0.44685 0.18298 0.93442 0.0
H602 H 0.45525 0.25283 0.88751 0.0
H603 H 0.5102 0.242 0.87435 0.0
H604 H 0.40983 0.22404 0.95998 0.0
H605 H 0.39182 0.2107 0.83297 0.0
H606 H 0.42888 0.20245 0.85354 0.0
H607 H 0.41982 0.23437 0.84542 0.0
C608 C 0.4924 0.19033 0.9152 0.0
C609 C 0.50985 0.20618 0.89659 0.0
C610 C 0.461 0.19641 0.92244 0.0
C611 C 0.44694 0.21847 0.91138 0.0
C612 C 0.46566 0.23557 0.89586 0.0
H613 H 0.24314 0.22488 0.86233 0.0
H614 H 0.29665 0.24152 0.87602 0.0
C615 C 0.49686 0.22935 0.88825 0.0
C616 C 0.41161 0.22103 0.91063 0.0
H617 H 0.34614 0.21545 0.86113 0.0
C618 C 0.39576 0.22261 0.93839 0.0
C619 C 0.39347 0.21907 0.88238 0.0
C620 C 0.40922 0.21637 0.85186 0.0
C621 C 0.36201 0.22161 0.93864 0.0
C622 C 0.344 0.21847 0.91047 0.0
C623 C 0.35994 0.21805 0.88271 0.0
C624 C 0.30924 0.21255 0.90881 0.0
C625 C 0.34607 0.22357 0.96903 0.0
C626 C 0.29812 0.19127 0.92352 0.0
C627 C 0.26746 0.18195 0.91592 0.0
C628 C 0.24784 0.19347 0.89304 0.0
C629 C 0.25815 0.21557 0.87974 0.0
C630 C 0.28852 0.22514 0.88773 0.0
H631 H 0.36071 0.235 0.98571 0.0
H632 H 0.32162 0.23175 0.9662 0.0
H633 H 0.34395 0.20479 0.97907 0.0
H634 H 0.31391 0.18083 0.93918 0.0
H635 H 0.26002 0.16479 0.92627 0.0
H636 H 0.00848 0.12561 0.85332 0.0
H637 H 0.94963 0.12762 0.85289 0.0
H638 H 0.95195 0.10184 0.94695 0.0
H639 H 0.01063 0.0992 0.94712 0.0
H640 H 0.90686 0.07852 0.91378 0.0
H641 H 0.89476 0.17905 0.89135 0.0
H642 H 0.91622 0.16345 0.86213 0.0
H643 H 0.93304 0.16467 0.90107 0.0
C644 C -0.00363 0.1205 0.87391 0.0
C645 C 0.0141 0.11226 0.90025 0.0
C646 C 0.96278 0.12179 0.87372 0.0
C647 C 0.94637 0.11539 0.90011 0.0
C648 C 0.96407 0.10696 0.92635 0.0
H649 H 0.74414 0.14994 0.92562 0.0
H650 H 0.80316 0.14878 0.92896 0.0
C651 C -0.00241 0.10535 0.92639 0.0
C652 C 0.9107 0.11671 0.90018 0.0
H653 H 0.84648 0.15519 0.88634 0.0
C654 C 0.89369 0.09534 0.90796 0.0
C655 C 0.8935 0.13877 0.89314 0.0
C656 C 0.91033 0.16285 0.88678 0.0
C657 C 0.85998 0.09527 0.90835 0.0
C658 C 0.84269 0.11696 0.89973 0.0
C659 C 0.85971 0.13848 0.89257 0.0
C660 C 0.80698 0.11765 0.89781 0.0
C661 C 0.84334 0.07206 0.91855 0.0
C662 C 0.78955 0.10083 0.87887 0.0
C663 C 0.75595 0.10131 0.87724 0.0
C664 C 0.73909 0.11895 0.89404 0.0
C665 C 0.75655 0.13619 0.9124 0.0
C666 C 0.7902 0.13551 0.91434 0.0
H667 H 0.85965 0.06043 0.93347 0.0
H668 H 0.82158 0.0765 0.9314 0.0
H669 H 0.83588 0.06089 0.89797 0.0
H670 H 0.80193 0.08742 0.86511 0.0
H671 H 0.74317 0.08818 0.86235 0.0
H672 H 0.76215 0.95956 0.69565 0.0
H673 H 0.70355 0.96293 0.6912 0.0
H674 H 0.70463 0.94271 0.5952 0.0
H675 H 0.76334 0.93973 0.59921 0.0
H676 H 0.66036 0.9913 0.64895 0.0
H677 H 0.64825 0.88912 0.63696 0.0
H678 H 0.685 0.90377 0.65126 0.0
H679 H 0.67443 0.90379 0.61071 0.0
C680 C 0.7501 0.95634 0.6734 0.0
C681 C 0.76753 0.94908 0.64785 0.0
C682 C 0.71656 0.95816 0.67096 0.0
C683 C 0.69985 0.95267 0.64302 0.0
C684 C 0.71715 0.94661 0.61711 0.0
H685 H 0.49731 0.97037 0.59109 0.0
H686 H 0.55587 0.97355 0.5958 0.0
C687 C 0.75067 0.94484 0.61948 0.0
C688 C 0.66426 0.95204 0.6414 0.0
H689 H 0.60042 0.91267 0.63174 0.0
C690 C 0.64718 0.97415 0.64518 0.0
C691 C 0.64729 0.92955 0.63691 0.0
C692 C 0.66457 0.90513 0.63396 0.0
C693 C 0.61337 0.97441 0.64408 0.0
C694 C 0.5964 0.95199 0.63888 0.0
C695 C 0.61354 0.92984 0.63556 0.0
C696 C 0.5608 0.951 0.63683 0.0
C697 C 0.59607 0.99857 0.64893 0.0
C698 C 0.54421 0.93698 0.65812 0.0
C699 C 0.51068 0.93515 0.65556 0.0
C700 C 0.49311 0.94717 0.63149 0.0
C701 C 0.50992 0.96124 0.61022 0.0
C702 C 0.54344 0.96308 0.61285 0.0
H703 H 0.61227 1.01277 0.6598 0.0
H704 H 0.58687 1.00579 0.6263 0.0
H705 H 0.5752 0.99587 0.66363 0.0
H706 H 0.55723 0.92745 0.67676 0.0
H707 H 0.49856 0.92443 0.67255 0.0
H708 H 0.98737 0.89391 0.57455 0.0
H709 H 0.04507 0.89362 0.56556 0.0
H710 H 0.05529 0.8249 0.61565 0.0
H711 H -0.0022 0.82493 0.62411 0.0
H712 H 0.08897 0.89723 0.61065 0.0
H713 H 0.11315 0.81155 0.54628 0.0
H714 H 0.07303 0.82395 0.54898 0.0
H715 H 0.09048 0.80479 0.57933 0.0
C716 C 0.00194 0.87857 0.58314 0.0
C717 C 0.98825 0.8595 0.60014 0.0
C718 C 0.03476 0.87831 0.57781 0.0
C719 C 0.05438 0.85904 0.58951 0.0
C720 C 0.04049 0.83955 0.60554 0.0
H721 H 0.23804 0.86477 0.67616 0.0
H722 H 0.18174 0.86113 0.65887 0.0
C723 C 0.00765 0.83966 0.61058 0.0
C724 C 0.08978 0.86113 0.58933 0.0
H725 H 0.15805 0.82772 0.57855 0.0
C726 C 0.10405 0.88226 0.60293 0.0
C727 C 0.1095 0.84172 0.57903 0.0
C728 C 0.09568 0.81937 0.56229 0.0
C729 C 0.13736 0.88379 0.60836 0.0
C730 C 0.15676 0.86347 0.60053 0.0
C731 C 0.14289 0.84305 0.58503 0.0
C732 C 0.19108 0.86265 0.61033 0.0
C733 C 0.15145 0.90684 0.62335 0.0
C734 C 0.21489 0.8636 0.58861 0.0
C735 C 0.24726 0.86544 0.59843 0.0
C736 C 0.25614 0.86629 0.63009 0.0
C737 C 0.23216 0.86404 0.65166 0.0
C738 C 0.19992 0.86218 0.64183 0.0
H739 H 0.1351 0.92299 0.62003 0.0
H740 H 0.15518 0.90365 0.6485 0.0
H741 H 0.17509 0.91145 0.61394 0.0
H742 H 0.20837 0.86375 0.56416 0.0
H743 H 0.26525 0.86665 0.58128 0.0
H744 H 0.74556 0.82008 0.1921 0.0
H745 H 0.69216 0.80289 0.17886 0.0
H746 H 0.67827 0.85818 0.10779 0.0
H747 H 0.73166 0.87469 0.12034 0.0
H748 H 0.63841 0.82296 0.18569 0.0
H749 H 0.63921 0.80127 0.06306 0.0
H750 H 0.67615 0.80665 0.08553 0.0
H751 H 0.65477 0.83206 0.06682 0.0
C752 C 0.73119 0.8282 0.1733 0.0
C753 C 0.74263 0.84872 0.15723 0.0
C754 C 0.70081 0.81829 0.16563 0.0
C755 C 0.68131 0.82886 0.14187 0.0
C756 C 0.69318 0.84901 0.12539 0.0
H757 H 0.50209 0.88481 0.14021 0.0
H758 H 0.55359 0.86534 0.1539 0.0
C759 C 0.72365 0.85864 0.13275 0.0
C760 C 0.64703 0.82167 0.13704 0.0
H761 H 0.5882 0.82099 0.07997 0.0
C762 C 0.6275 0.82176 0.16258 0.0
C763 C 0.63249 0.81864 0.10719 0.0
C764 C 0.65196 0.81431 0.07924 0.0
C765 C 0.59389 0.82247 0.15865 0.0
C766 C 0.57969 0.82439 0.12851 0.0
C767 C 0.59897 0.82066 0.10319 0.0
C768 C 0.54658 0.83414 0.12274 0.0
C769 C 0.57415 0.82221 0.18692 0.0
C770 C 0.52566 0.82362 0.09999 0.0
C771 C 0.49658 0.83528 0.09148 0.0
C772 C 0.48779 0.85747 0.10582 0.0
C773 C 0.50816 0.86753 0.1292 0.0
C774 C 0.53745 0.85619 0.13725 0.0
H775 H 0.58503 0.80945 0.20453 0.0
H776 H 0.5741 0.841 0.19731 0.0
H777 H 0.54893 0.81636 0.18145 0.0
H778 H 0.5322 0.80675 0.08828 0.0
H779 H 0.48103 0.8271 0.07355 0.0
H780 H 0.98251 0.9679 0.13041 0.0
H781 H 0.04114 0.96788 0.12866 0.0
H782 H 0.04264 0.88903 0.14396 0.0
H783 H 0.98391 0.88887 0.14569 0.0
H784 H 0.08935 0.91393 0.17948 0.0
H785 H 0.0922 0.94248 0.05709 0.0
H786 H 0.06961 0.96316 0.08023 0.0
H787 H 0.05594 0.93187 0.07414 0.0
C788 C -0.00475 0.95051 0.13319 0.0
C789 C 0.97841 0.92836 0.13794 0.0
C790 C 0.02879 0.95053 0.13215 0.0
C791 C 0.04624 0.92838 0.13556 0.0
C792 C 0.02964 0.90632 0.1411 0.0
H793 H 0.24647 0.91041 0.08832 0.0
H794 H 0.18813 0.90692 0.09138 0.0
C795 C -0.00394 0.90629 0.14224 0.0
C796 C 0.08179 0.92831 0.13352 0.0
H797 H 0.14214 0.94331 0.08617 0.0
C798 C 0.10091 0.92024 0.15904 0.0
C799 C 0.09684 0.93617 0.10664 0.0
C800 C 0.07762 0.94368 0.07784 0.0
C801 C 0.13469 0.92042 0.15869 0.0
C802 C 0.14974 0.9293 0.1323 0.0
C803 C 0.1306 0.93677 0.10651 0.0
C804 C 0.18529 0.93107 0.13097 0.0
C805 C 0.15393 0.9108 0.18646 0.0
C806 C 0.2031 0.94603 0.15198 0.0
C807 C 0.23652 0.94792 0.15045 0.0
C808 C 0.25289 0.93504 0.12769 0.0
C809 C 0.23486 0.92029 0.10644 0.0
C810 C 0.20142 0.91839 0.10803 0.0
H811 H 0.1393 0.89843 0.20067 0.0
H812 H 0.17553 0.90049 0.17948 0.0
H813 H 0.16207 0.92666 0.20111 0.0
H814 H 0.19112 0.95639 0.16949 0.0
H815 H 0.2495 0.9593 0.16736 0.0
H816 H 0.24112 0.65258 0.89925 0.0
H817 H 0.29971 0.65391 0.8986 0.0
H818 H 0.30105 0.57862 0.86566 0.0
H819 H 0.24246 0.57677 0.86695 0.0
H820 H 0.34642 0.62078 0.92992 0.0
H821 H 0.35235 0.61977 0.80227 0.0
H822 H 0.31625 0.62805 0.8215 0.0
H823 H 0.32784 0.59614 0.8185 0.0
C824 C 0.25369 0.63613 0.89224 0.0
C825 C 0.23674 0.61455 0.88305 0.0
C826 C 0.28728 0.63702 0.89169 0.0
C827 C 0.30464 0.61649 0.88168 0.0
C828 C 0.28802 0.59482 0.87295 0.0
H829 H 0.50837 0.58393 0.90131 0.0
H830 H 0.4497 0.58349 0.90136 0.0
C831 C 0.25445 0.59384 0.87366 0.0
C832 C 0.34019 0.61767 0.8806 0.0
H833 H 0.40186 0.61653 0.83127 0.0
C834 C 0.35857 0.61989 0.90838 0.0
C835 C 0.3559 0.61676 0.85242 0.0
C836 C 0.33718 0.61524 0.82189 0.0
C837 C 0.39235 0.62073 0.90875 0.0
C838 C 0.40809 0.61922 0.88062 0.0
C839 C 0.3897 0.6175 0.85279 0.0
C840 C 0.44368 0.61931 0.87975 0.0
C841 C 0.41102 0.62342 0.93919 0.0
C842 C 0.45972 0.63938 0.86696 0.0
C843 C 0.49339 0.63984 0.86712 0.0
C844 C 0.51168 0.62008 0.87987 0.0
C845 C 0.49529 0.5997 0.89188 0.0
C846 C 0.46168 0.59935 0.89186 0.0
H847 H 0.39539 0.62937 0.95792 0.0
H848 H 0.42195 0.60532 0.94573 0.0
H849 H 0.43081 0.63706 0.93734 0.0
H850 H 0.4462 0.65494 0.85742 0.0
H851 H 0.50497 0.65596 0.85792 0.0
H852 H 0.75932 0.67565 0.89334 0.0
H853 H 0.81275 0.69302 0.9036 0.0
H854 H 0.79449 0.74744 0.83219 0.0
H855 H 0.74123 0.7292 0.82107 0.0
H856 H 0.84805 0.72809 0.8233 0.0
H857 H 0.85276 0.75042 0.94603 0.0
H858 H 0.83803 0.71935 0.94309 0.0
H859 H 0.81496 0.74432 0.92528 0.0
C860 C 0.76644 0.69169 0.88038 0.0
C861 C 0.74632 0.70103 0.85637 0.0
C862 C 0.7969 0.70182 0.88643 0.0
C863 C 0.80756 0.72197 0.86914 0.0
C864 C 0.78682 0.73203 0.84597 0.0
H865 H 0.01024 0.72837 0.92877 0.0
H866 H 0.9581 0.74767 0.91525 0.0
C867 C 0.75651 0.72156 0.83954 0.0
C868 C 0.84181 0.72967 0.87238 0.0
H869 H 0.90332 0.73179 0.92677 0.0
C870 C 0.86003 0.72969 0.84593 0.0
C871 C 0.85772 0.73309 0.90157 0.0
C872 C 0.83963 0.73712 0.93046 0.0
C873 C 0.89374 0.7296 0.8483 0.0
C874 C 0.90947 0.72825 0.87782 0.0
C875 C 0.89139 0.73175 0.90403 0.0
C876 C 0.94314 0.71936 0.88222 0.0
C877 C 0.912 0.7299 0.81911 0.0
C878 C 0.95236 0.69724 0.86791 0.0
C879 C 0.9822 0.68648 0.87527 0.0
C880 C 0.00308 0.69723 0.89773 0.0
C881 C 0.99433 0.71965 0.91157 0.0
C882 C 0.96467 0.7307 0.90376 0.0
H883 H 0.89974 0.7421 0.80165 0.0
H884 H 0.93712 0.73645 0.8233 0.0
H885 H 0.91238 0.71095 0.80918 0.0
H886 H 0.93584 0.68752 0.85214 0.0
H887 H 0.98823 0.66903 0.86465 0.0
H888 H 0.49637 0.74917 0.41009 0.0
H889 H 0.43914 0.75972 0.40164 0.0
H890 H 0.42475 0.69261 0.34856 0.0
H891 H 0.4817 0.68273 0.35592 0.0
H892 H 0.39078 0.72988 0.32357 0.0
H893 H 0.37202 0.72607 0.44976 0.0
H894 H 0.39909 0.74934 0.4369 0.0
H895 H 0.40962 0.71715 0.43398 0.0
C896 C 0.48086 0.73695 0.39633 0.0
C897 C 0.4932 0.71512 0.38375 0.0
C898 C 0.44828 0.74289 0.39164 0.0
C899 C 0.42757 0.7267 0.37501 0.0
C900 C 0.44028 0.70543 0.36143 0.0
H901 H 0.25134 0.66274 0.38811 0.0
H902 H 0.30393 0.68264 0.39532 0.0
C903 C 0.47282 0.69977 0.3656 0.0
C904 C 0.39228 0.73037 0.37313 0.0
H905 H 0.32636 0.72584 0.41666 0.0
C906 C 0.37654 0.72947 0.34388 0.0
C907 C 0.37391 0.73005 0.39976 0.0
C908 C 0.38939 0.73056 0.43191 0.0
C909 C 0.34328 0.72557 0.34046 0.0
C910 C 0.32514 0.72365 0.36716 0.0
C911 C 0.34045 0.72716 0.39632 0.0
C912 C 0.29188 0.71388 0.36568 0.0
C913 C 0.32855 0.72135 0.30843 0.0
C914 C 0.26736 0.72518 0.34741 0.0
C915 C 0.23764 0.71344 0.3427 0.0
C916 C 0.23175 0.69067 0.35696 0.0
C917 C 0.25545 0.68029 0.37695 0.0
C918 C 0.28538 0.6917 0.38108 0.0
H919 H 0.3471 0.7189 0.29106 0.0
H920 H 0.31291 0.70469 0.30782 0.0
H921 H 0.3136 0.73758 0.30146 0.0
H922 H 0.27152 0.74264 0.33607 0.0
H923 H 0.21933 0.72193 0.32765 0.0
H924 H 0.73617 0.66356 0.38946 0.0
H925 H 0.79427 0.65708 0.39503 0.0
H926 H 0.78342 0.58502 0.35298 0.0
H927 H 0.72518 0.59113 0.34771 0.0
H928 H 0.83082 0.61793 0.42535 0.0
H929 H 0.84791 0.62223 0.29921 0.0
H930 H 0.81167 0.63298 0.31629 0.0
H931 H 0.81836 0.60041 0.31115 0.0
C932 C 0.74597 0.64617 0.38179 0.0
C933 C 0.72591 0.62793 0.36792 0.0
C934 C 0.77924 0.64256 0.38487 0.0
C935 C 0.79311 0.62073 0.37402 0.0
C936 C 0.77319 0.60219 0.36099 0.0
H937 H 0.99346 0.57431 0.40629 0.0
H938 H 0.93455 0.57586 0.40375 0.0
C939 C 0.73991 0.60575 0.35793 0.0
C940 C 0.82851 0.61766 0.37574 0.0
H941 H 0.89383 0.61321 0.33124 0.0
C942 C 0.84464 0.6168 0.40482 0.0
C943 C 0.8464 0.61646 0.34886 0.0
C944 C 0.83035 0.61826 0.31706 0.0
C945 C 0.87831 0.61469 0.40773 0.0
C946 C 0.89614 0.61322 0.38084 0.0
C947 C 0.88 0.61413 0.35178 0.0
C948 C 0.93173 0.61196 0.38232 0.0
C949 C 0.89463 0.6147 0.43949 0.0
C950 C 0.94957 0.63153 0.3706 0.0
C951 C 0.98315 0.63075 0.37209 0.0
C952 C -0.00036 0.61025 0.38513 0.0
C953 C 0.9816 0.5905 0.3965 0.0
C954 C 0.94794 0.59134 0.39506 0.0
H955 H 0.87815 0.62085 0.45743 0.0
H956 H 0.90289 0.59566 0.44526 0.0
H957 H 0.91606 0.62698 0.44025 0.0
H958 H 0.93746 0.64761 0.3607 0.0
H959 H -0.00393 0.64649 0.36357 0.0
H960 H 0.49069 0.46928 0.16793 0.0
H961 H 0.54943 0.46868 0.16828 0.0
H962 H 0.54675 0.39716 0.12406 0.0
H963 H 0.48805 0.39775 0.12285 0.0
H964 H 0.59191 0.40275 0.17787 0.0
H965 H 0.60348 0.47629 0.08959 0.0
H966 H 0.5782 0.48343 0.12092 0.0
H967 H 0.56653 0.4594 0.09408 0.0
C968 C 0.50246 0.45349 0.158 0.0
C969 C 0.48439 0.43365 0.14518 0.0
C970 C 0.53608 0.45318 0.1583 0.0
C971 C 0.55233 0.43302 0.14586 0.0
C972 C 0.53457 0.41292 0.13371 0.0
H973 H 0.75319 0.39244 0.13039 0.0
H974 H 0.69459 0.39326 0.12972 0.0
C975 C 0.50094 0.41326 0.13324 0.0
C976 C 0.58791 0.43285 0.14556 0.0
H977 H 0.65165 0.46148 0.11395 0.0
C978 C 0.60505 0.41552 0.16386 0.0
C979 C 0.60484 0.44962 0.12733 0.0
C980 C 0.58743 0.46816 0.10664 0.0
C981 C 0.63883 0.41475 0.16482 0.0
C982 C 0.65582 0.43138 0.14634 0.0
C983 C 0.6386 0.44874 0.12806 0.0
C984 C 0.69147 0.43112 0.14571 0.0
C985 C 0.65599 0.39656 0.18619 0.0
C986 C 0.70922 0.45244 0.15374 0.0
C987 C 0.74283 0.4522 0.15359 0.0
C988 C 0.75943 0.43063 0.14535 0.0
C989 C 0.74143 0.40946 0.13667 0.0
C990 C 0.70783 0.40976 0.13669 0.0
H991 H 0.64038 0.39035 0.20476 0.0
H992 H 0.66278 0.37997 0.17284 0.0
H993 H 0.67827 0.40476 0.19696 0.0
H994 H 0.69707 0.46922 0.16046 0.0
H995 H 0.75576 0.46897 0.15989 0.0
H996 H 0.25779 0.31727 0.10142 0.0
H997 H 0.20513 0.30028 0.11333 0.0
H998 H 0.18677 0.36475 0.16868 0.0
H999 H 0.23993 0.38126 0.15769 0.0
H1000 H 0.15806 0.32056 0.19066 0.0
H1001 H 0.13261 0.33539 0.0648 0.0
H1002 H 0.16419 0.31392 0.07521 0.0
H1003 H 0.16914 0.34625 0.08418 0.0
C1004 C 0.24271 0.32744 0.11671 0.0
C1005 C 0.25238 0.35073 0.12821 0.0
C1006 C 0.21279 0.31774 0.12353 0.0
C1007 C 0.19184 0.33156 0.14125 0.0
C1008 C 0.20261 0.35383 0.1549 0.0
H1009 H 0.00475 0.37338 0.16616 0.0
H1010 H 0.05951 0.35822 0.17609 0.0
C1011 C 0.23284 0.3633 0.14857 0.0
C1012 C 0.15728 0.32522 0.14138 0.0
H1013 H 0.08931 0.32666 0.09461 0.0
C1014 C 0.14298 0.32141 0.16964 0.0
C1015 C 0.13773 0.32614 0.11385 0.0
C1016 C 0.15153 0.3308 0.08278 0.0
C1017 C 0.10939 0.31979 0.17123 0.0
C1018 C 0.08981 0.32256 0.14395 0.0
C1019 C 0.10432 0.32453 0.11553 0.0
C1020 C 0.05476 0.32737 0.14418 0.0
C1021 C 0.09522 0.31576 0.20215 0.0
C1022 C 0.03363 0.31495 0.12327 0.0
C1023 C 0.00259 0.32402 0.11705 0.0
C1024 C 0.99206 0.34548 0.13187 0.0
C1025 C 0.01224 0.3567 0.15462 0.0
C1026 C 0.04347 0.34786 0.16052 0.0
H1027 H 0.11152 0.30429 0.21727 0.0
H1028 H 0.09234 0.33393 0.2137 0.0
H1029 H 0.07134 0.3066 0.19982 0.0
H1030 H 0.04185 0.29918 0.11032 0.0
H1031 H 0.98722 0.31488 0.09973 0.0
H1032 H 0.48831 0.40161 0.65335 0.0
H1033 H 0.54059 0.38527 0.67169 0.0
H1034 H 0.53148 0.32579 0.60535 0.0
H1035 H 0.47946 0.34253 0.58642 0.0
H1036 H 0.56647 0.34036 0.6939 0.0
H1037 H 0.609 0.36456 0.57789 0.0
H1038 H 0.57004 0.37382 0.5903 0.0
H1039 H 0.57683 0.34243 0.57835 0.0
C1040 C 0.4972 0.38478 0.64316 0.0
C1041 C 0.48036 0.37358 0.6181 0.0
C1042 C 0.52695 0.37541 0.65368 0.0
C1043 C 0.54005 0.35462 0.63944 0.0
C1044 C 0.52199 0.34217 0.61616 0.0
H1045 H 0.74086 0.31207 0.69047 0.0
H1046 H 0.68211 0.30805 0.68309 0.0
C1047 C 0.49246 0.35176 0.60533 0.0
C1048 C 0.57414 0.34827 0.64621 0.0
H1049 H 0.64767 0.3515 0.61494 0.0
C1050 C 0.58428 0.34238 0.67661 0.0
C1051 C 0.59717 0.35115 0.62351 0.0
C1052 C 0.58789 0.35852 0.59073 0.0
C1053 C 0.61713 0.34035 0.6852 0.0
C1054 C 0.64003 0.34412 0.66268 0.0
C1055 C 0.62981 0.34867 0.63203 0.0
C1056 C 0.67467 0.34648 0.67066 0.0
C1057 C 0.62723 0.33558 0.71845 0.0
C1058 C 0.68959 0.36939 0.6663 0.0
C1059 C 0.72282 0.37163 0.67018 0.0
C1060 C 0.74171 0.35099 0.67855 0.0
C1061 C 0.72666 0.32824 0.68416 0.0
C1062 C 0.69326 0.32594 0.68003 0.0
H1063 H 0.60648 0.33582 0.73366 0.0
H1064 H 0.63905 0.31718 0.72043 0.0
H1065 H 0.645 0.3497 0.72679 0.0
H1066 H 0.6755 0.38544 0.65916 0.0
H1067 H 0.73379 0.38946 0.66633 0.0
H1068 H 0.97223 0.43596 0.58045 0.0
H1069 H 0.03043 0.4412 0.57953 0.0
H1070 H 0.0396 0.42474 0.67665 0.0
H1071 H 0.9812 0.41953 0.67782 0.0
H1072 H 0.07097 0.47363 0.6122 0.0
H1073 H 0.10204 0.37573 0.63898 0.0
H1074 H 0.06169 0.38544 0.62762 0.0
H1075 H 0.07723 0.39044 0.66644 0.0
C1076 C 0.9865 0.43371 0.60172 0.0
C1077 C 0.97201 0.42726 0.62922 0.0
C1078 C 0.01982 0.43658 0.6011 0.0
C1079 C 0.03935 0.43299 0.6279 0.0
C1080 C 0.025 0.42706 0.65555 0.0
H1081 H 0.23986 0.4774 0.6531 0.0
H1082 H 0.18159 0.47325 0.65594 0.0
C1083 C 0.99163 0.42411 0.65619 0.0
C1084 C 0.07472 0.43561 0.62676 0.0
H1085 H 0.14548 0.40398 0.63712 0.0
C1086 C 0.0873 0.45842 0.61766 0.0
C1087 C 0.09587 0.41562 0.63348 0.0
C1088 C 0.0836 0.39034 0.64191 0.0
C1089 C 0.12053 0.46186 0.61533 0.0
C1090 C 0.14174 0.44206 0.6228 0.0
C1091 C 0.12915 0.41918 0.63165 0.0
C1092 C 0.17707 0.44459 0.62114 0.0
C1093 C 0.13259 0.48649 0.60426 0.0
C1094 C 0.19394 0.42946 0.60113 0.0
C1095 C 0.22728 0.43176 0.59947 0.0
C1096 C 0.24439 0.44919 0.6179 0.0
C1097 C 0.22739 0.46415 0.63815 0.0
C1098 C 0.19407 0.46179 0.63983 0.0
H1099 H 0.11317 0.49731 0.59209 0.0
H1100 H 0.14175 0.49753 0.62437 0.0
H1101 H 0.15261 0.48394 0.58849 0.0
H1102 H 0.18124 0.41602 0.58655 0.0
H1103 H 0.23956 0.42011 0.58345 0.0
H1104 H 0.06061 0.2003 0.26894 0.0
H1105 H 0.06059 0.20709 0.21326 0.0
H1106 H 0.16372 0.19858 0.21592 0.0
H1107 H 0.16397 0.1915 0.27171 0.0
H1108 H 0.13423 0.23878 0.17395 0.0
H1109 H 0.08113 0.14467 0.15866 0.0
H1110 H 0.06116 0.16535 0.18407 0.0
H1111 H 0.10103 0.15456 0.1944 0.0
C1112 C 0.08335 0.20013 0.25775 0.0
C1113 C 0.11225 0.19502 0.27471 0.0
C1114 C 0.08329 0.20412 0.22597 0.0
C1115 C 0.1121 0.20306 0.21047 0.0
C1116 C 0.14123 0.1995 0.22751 0.0
H1117 H 0.17068 0.19337 0.0237 0.0
H1118 H 0.16624 0.20335 0.07824 0.0
C1119 C 0.14134 0.19551 0.2594 0.0
C1120 C 0.11137 0.20313 0.1763 0.0
H1121 H 0.08925 0.16756 0.11383 0.0
C1122 C 0.12435 0.22328 0.16072 0.0
C1123 C 0.0983 0.18292 0.15916 0.0
C1124 C 0.08478 0.16052 0.17479 0.0
C1125 C 0.12456 0.22371 0.1283 0.0
C1126 C 0.11206 0.20322 0.11121 0.0
C1127 C 0.09866 0.18331 0.1269 0.0
C1128 C 0.11427 0.20102 0.07723 0.0
C1129 C 0.13785 0.24618 0.11268 0.0
C1130 C 0.08654 0.1964 0.05837 0.0
C1131 C 0.08902 0.19041 0.02718 0.0
C1132 C 0.11936 0.18867 0.01431 0.0
C1133 C 0.14697 0.19431 0.03297 0.0
C1134 C 0.14446 0.20035 0.0641 0.0
H1135 H 0.13688 0.26289 0.12761 0.0
H1136 H 0.16342 0.24278 0.10778 0.0
H1137 H 0.12441 0.25004 0.09052 0.0
H1138 H 0.063 0.19659 0.06807 0.0
H1139 H 0.06731 0.18594 0.01359 0.0
H1140 H 0.91431 0.85724 0.0223 0.0
H1141 H 0.91325 0.84854 0.96679 0.0
H1142 H 0.81153 0.83336 0.96758 0.0
H1143 H 0.81237 0.84226 0.0229 0.0
H1144 H 0.8916 0.80816 0.92679 0.0
H1145 H 0.81817 0.89374 0.91035 0.0
H1146 H 0.83883 0.88629 0.94658 0.0
H1147 H 0.80189 0.87086 0.9352 0.0
C1148 C 0.89191 0.85145 0.01077 0.0
C1149 C 0.86333 0.85076 0.02682 0.0
C1150 C 0.89131 0.84653 0.97907 0.0
C1151 C 0.86219 0.84076 0.963 0.0
C1152 C 0.83413 0.83822 0.97944 0.0
H1153 H 0.82116 0.83838 0.76251 0.0
H1154 H 0.8181 0.82834 0.81731 0.0
C1155 C 0.83465 0.84331 0.01101 0.0
C1156 C 0.86054 0.84 0.9288 0.0
H1157 H 0.83069 0.87174 0.86577 0.0
C1158 C 0.87814 0.82194 0.91342 0.0
C1159 C 0.84291 0.85802 0.9114 0.0
C1160 C 0.82456 0.87847 0.92662 0.0
C1161 C 0.87889 0.82171 0.88105 0.0
C1162 C 0.86183 0.84006 0.86386 0.0
C1163 C 0.84354 0.85762 0.87914 0.0
C1164 C 0.86507 0.84311 0.8303 0.0
C1165 C 0.89809 0.80211 0.86529 0.0
C1166 C 0.8924 0.85485 0.81963 0.0
C1167 C 0.89395 0.8612 0.78857 0.0
C1168 C 0.86825 0.85573 0.76735 0.0
C1169 C 0.84122 0.84324 0.77811 0.0
C1170 C 0.83955 0.83719 0.80936 0.0
H1171 H 0.90664 0.78736 0.88149 0.0
H1172 H 0.88328 0.79353 0.84619 0.0
H1173 H 0.91932 0.81078 0.85511 0.0
H1174 H 0.91205 0.86002 0.83561 0.0
H1175 H 0.91485 0.87128 0.78157 0.0
H1176 H 0.17382 0.68844 0.50365 0.0
H1177 H 0.17631 0.6946 0.55959 0.0
H1178 H 0.07561 0.6762 0.56243 0.0
H1179 H 0.07286 0.67041 0.50641 0.0
H1180 H 0.09326 0.71433 0.60276 0.0
H1181 H 0.17761 0.63488 0.61634 0.0
H1182 H 0.19151 0.6594 0.59252 0.0
H1183 H 0.15645 0.64188 0.58024 0.0
C1184 C 0.15213 0.68597 0.51619 0.0
C1185 C 0.12321 0.6787 0.50067 0.0
C1186 C 0.15361 0.68942 0.54815 0.0
C1187 C 0.12634 0.6853 0.56531 0.0
C1188 C 0.097 0.67939 0.54969 0.0
H1189 H 0.11202 0.63659 0.75054 0.0
H1190 H 0.11421 0.64298 0.69526 0.0
C1191 C 0.09543 0.67615 0.51765 0.0
C1192 C 0.12875 0.68554 0.5996 0.0
H1193 H 0.16468 0.65598 0.66159 0.0
C1194 C 0.109 0.70169 0.61568 0.0
C1195 C 0.14908 0.66884 0.61641 0.0
C1196 C 0.16967 0.6501 0.60057 0.0
C1197 C 0.10871 0.70137 0.64808 0.0
C1198 C 0.12911 0.6847 0.66484 0.0
C1199 C 0.14925 0.66889 0.64874 0.0
C1200 C 0.12786 0.68156 0.6988 0.0
C1201 C 0.08564 0.71814 0.664 0.0
C1202 C 0.13521 0.70108 0.71942 0.0
C1203 C 0.1336 0.69754 0.75133 0.0
C1204 C 0.12467 0.67441 0.76314 0.0
C1205 C 0.11816 0.65483 0.74234 0.0
C1206 C 0.11968 0.65839 0.71064 0.0
H1207 H 0.06703 0.72597 0.64761 0.0
H1208 H 0.07343 0.70802 0.68237 0.0
H1209 H 0.09923 0.73377 0.67492 0.0
H1210 H 0.14225 0.719 0.71087 0.0
H1211 H 0.13882 0.71299 0.7667 0.0
H1212 H 0.83303 0.37961 0.50884 0.0
H1213 H 0.83525 0.37408 0.45336 0.0
H1214 H 0.89668 0.3104 0.46747 0.0
H1215 H 0.89402 0.3155 0.52363 0.0
H1216 H 0.89261 0.37519 0.42094 0.0
H1217 H 0.82527 0.28699 0.40258 0.0
H1218 H 0.8224 0.30535 0.43715 0.0
H1219 H 0.85763 0.28702 0.43165 0.0
C1220 C 0.84651 0.36407 0.50031 0.0
C1221 C 0.86304 0.3478 0.52079 0.0
C1222 C 0.84791 0.36105 0.46851 0.0
C1223 C 0.8658 0.34169 0.45625 0.0
C1224 C 0.88232 0.32526 0.47646 0.0
H1225 H 0.9213 0.34539 0.2651 0.0
H1226 H 0.92082 0.33675 0.32035 0.0
C1227 C 0.88101 0.32833 0.5085 0.0
C1228 C 0.86847 0.34002 0.42233 0.0
H1229 H 0.84595 0.3058 0.35854 0.0
C1230 C 0.88262 0.35993 0.40732 0.0
C1231 C 0.85518 0.32018 0.40463 0.0
C1232 C 0.83902 0.29867 0.41965 0.0
C1233 C 0.88346 0.36077 0.3751 0.0
C1234 C 0.87011 0.341 0.35734 0.0
C1235 C 0.85625 0.32087 0.37227 0.0
C1236 C 0.86948 0.34176 0.32319 0.0
C1237 C 0.89782 0.38317 0.36019 0.0
C1238 C 0.84054 0.34644 0.30626 0.0
C1239 C 0.84072 0.35148 0.27462 0.0
C1240 C 0.8699 0.35194 0.25947 0.0
C1241 C 0.89852 0.34561 0.27621 0.0
C1242 C 0.89829 0.34055 0.30773 0.0
H1243 H 0.90192 0.39866 0.37678 0.0
H1244 H 0.92132 0.37805 0.35086 0.0
H1245 H 0.88187 0.38978 0.3407 0.0
H1246 H 0.81806 0.34749 0.31783 0.0
H1247 H 0.81832 0.35639 0.26246 0.0
H1248 H 0.66301 0.22559 0.49091 0.0
H1249 H 0.67042 0.2331 0.54652 0.0
H1250 H 0.58669 0.18849 0.56214 0.0
H1251 H 0.57843 0.18209 0.50641 0.0
H1252 H 0.59096 0.22583 0.6025 0.0
H1253 H 0.70996 0.17947 0.59891 0.0
H1254 H 0.70675 0.20717 0.57631 0.0
H1255 H 0.68223 0.18073 0.56586 0.0
C1256 C 0.64572 0.21805 0.50627 0.0
C1257 C 0.62012 0.20335 0.49459 0.0
C1258 C 0.65017 0.22206 0.53802 0.0
C1259 C 0.62972 0.21073 0.55865 0.0
C1260 C 0.60293 0.19733 0.54675 0.0
H1261 H 0.66756 0.15187 0.73708 0.0
H1262 H 0.66369 0.16307 0.68282 0.0
C1263 C 0.59811 0.19372 0.51494 0.0
C1264 C 0.63739 0.21107 0.59249 0.0
H1265 H 0.69423 0.19309 0.64729 0.0
C1266 C 0.61362 0.21883 0.61234 0.0
C1267 C 0.6669 0.2017 0.60535 0.0
C1268 C 0.69282 0.19157 0.58556 0.0
C1269 C 0.61805 0.21676 0.64454 0.0
C1270 C 0.64755 0.20733 0.65736 0.0
C1271 C 0.67174 0.20046 0.63752 0.0
C1272 C 0.65246 0.20165 0.6908 0.0
C1273 C 0.59041 0.22342 0.66432 0.0
C1274 C 0.64864 0.21975 0.71365 0.0
C1275 C 0.65018 0.21323 0.74493 0.0
C1276 C 0.65604 0.18854 0.75394 0.0
C1277 C 0.66216 0.17091 0.73103 0.0
C1278 C 0.6602 0.17736 0.69991 0.0
H1279 H 0.56727 0.22479 0.65058 0.0
H1280 H 0.58762 0.2095 0.68278 0.0
H1281 H 0.59519 0.24169 0.67534 0.0
H1282 H 0.64365 0.23879 0.70731 0.0
H1283 H 0.64535 0.22731 0.7619 0.0
H1284 H 0.32484 0.87391 0.24543 0.0
H1285 H 0.3293 0.86826 0.30154 0.0
H1286 H 0.43053 0.85244 0.29621 0.0
H1287 H 0.42632 0.85858 0.24033 0.0
H1288 H 0.35115 0.83121 0.34316 0.0
H1289 H 0.42981 0.91435 0.34999 0.0
H1290 H 0.40757 0.90552 0.31508 0.0
H1291 H 0.4443 0.88975 0.32648 0.0
C1292 C 0.34785 0.86867 0.25619 0.0
C1293 C 0.37532 0.86699 0.23863 0.0
C1294 C 0.35041 0.8655 0.28823 0.0
C1295 C 0.38041 0.86049 0.30315 0.0
C1296 C 0.40731 0.85687 0.2853 0.0
H1297 H 0.40189 0.84 0.50565 0.0
H1298 H 0.40336 0.83191 0.45006 0.0
C1299 C 0.40485 0.8603 0.25339 0.0
C1300 C 0.38413 0.86133 0.33735 0.0
H1301 H 0.4204 0.89417 0.39658 0.0
C1302 C 0.36639 0.84487 0.35492 0.0
C1303 C 0.40384 0.87934 0.35263 0.0
C1304 C 0.42226 0.89841 0.33515 0.0
C1305 C 0.36747 0.84617 0.38735 0.0
C1306 C 0.38719 0.86422 0.40258 0.0
C1307 C 0.40542 0.88027 0.38494 0.0
C1308 C 0.38709 0.86855 0.43645 0.0
C1309 C 0.34656 0.82886 0.4049 0.0
C1310 C 0.37865 0.89203 0.44736 0.0
C1311 C 0.37844 0.89683 0.47891 0.0
C1312 C 0.38643 0.8782 0.50056 0.0
C1313 C 0.39559 0.85477 0.48966 0.0
C1314 C 0.396 0.85001 0.45787 0.0
H1315 H 0.32769 0.82001 0.38964 0.0
H1316 H 0.36175 0.81397 0.41547 0.0
H1317 H 0.3347 0.83884 0.42366 0.0
H1318 H 0.37199 0.90674 0.43136 0.0
H1319 H 0.37209 0.91529 0.4863 0.0
H1320 H 0.6308 0.66044 0.00963 0.0
H1321 H 0.62642 0.67311 0.06311 0.0
H1322 H 0.60577 0.74796 0.03407 0.0
H1323 H 0.61079 0.73542 0.97992 0.0
H1324 H 0.65266 0.74332 0.0857 0.0
H1325 H 0.54134 0.69026 0.10361 0.0
H1326 H 0.57184 0.67182 0.08671 0.0
H1327 H 0.55465 0.6977 0.06572 0.0
C1328 C 0.62558 0.67967 0.01449 0.0
C1329 C 0.62133 0.69696 0.99047 0.0
C1330 C 0.62279 0.68683 0.04511 0.0
C1331 C 0.61543 0.7114 0.05254 0.0
C1332 C 0.61131 0.72887 0.02876 0.0
H1333 H 0.569 0.72861 0.24541 0.0
H1334 H 0.56814 0.73711 0.19004 0.0
C1335 C 0.61399 0.72165 0.9979 0.0
C1336 C 0.61228 0.71835 0.08534 0.0
H1337 H 0.57329 0.70093 0.14915 0.0
C1338 C 0.63498 0.73443 0.09958 0.0
C1339 C 0.58881 0.70717 0.10329 0.0
C1340 C 0.56256 0.69098 0.08901 0.0
C1341 C 0.63616 0.73821 0.1317 0.0
C1342 C 0.61434 0.72532 0.14994 0.0
C1343 C 0.59031 0.71062 0.13532 0.0
C1344 C 0.61713 0.72508 0.18423 0.0
C1345 C 0.661 0.75564 0.14585 0.0
C1346 C 0.64523 0.7161 0.19964 0.0
C1347 C 0.64582 0.71137 0.23136 0.0
C1348 C 0.61815 0.71515 0.24815 0.0
C1349 C 0.5906 0.72532 0.23299 0.0
C1350 C 0.59012 0.73026 0.20138 0.0
H1351 H 0.66891 0.76937 0.12877 0.0
H1352 H 0.6515 0.76563 0.16587 0.0
H1353 H 0.6825 0.74491 0.15397 0.0
H1354 H 0.66611 0.71131 0.18687 0.0
H1355 H 0.66725 0.70325 0.2423 0.0
H1356 H 0.3529 0.42484 0.75406 0.0
H1357 H 0.3589 0.41418 0.8087 0.0
H1358 H 0.3735 0.3376 0.7848 0.0
H1359 H 0.36761 0.34823 0.72972 0.0
H1360 H 0.32391 0.37738 0.84422 0.0
H1361 H 0.45557 0.35947 0.83946 0.0
H1362 H 0.43358 0.3769 0.80994 0.0
H1363 H 0.42885 0.34395 0.81189 0.0
C1364 C 0.35719 0.40569 0.76042 0.0
C1365 C 0.36006 0.38739 0.73764 0.0
C1366 C 0.36051 0.39962 0.79163 0.0
C1367 C 0.36703 0.37518 0.80076 0.0
C1368 C 0.36879 0.35663 0.77817 0.0
H1369 H 0.37051 0.34149 0.99947 0.0
H1370 H 0.36466 0.33512 0.94356 0.0
C1371 C 0.36518 0.36268 0.7468 0.0
C1372 C 0.37301 0.36968 0.83398 0.0
H1373 H 0.43347 0.35887 0.8883 0.0
C1374 C 0.34771 0.37288 0.85388 0.0
C1375 C 0.4042 0.36409 0.84643 0.0
C1376 C 0.43229 0.36099 0.82599 0.0
C1377 C 0.35294 0.37136 0.88601 0.0
C1378 C 0.3843 0.36639 0.89853 0.0
C1379 C 0.40944 0.3625 0.87859 0.0
C1380 C 0.39186 0.36772 0.93222 0.0
C1381 C 0.32523 0.37632 0.90641 0.0
C1382 C 0.41033 0.38749 0.94434 0.0
C1383 C 0.41384 0.3911 0.9762 0.0
C1384 C 0.39911 0.37491 0.99658 0.0
C1385 C 0.38237 0.35418 0.98441 0.0
C1386 C 0.37874 0.35064 0.95247 0.0
H1387 H 0.3037 0.38353 0.89321 0.0
H1388 H 0.31841 0.35886 0.91784 0.0
H1389 H 0.33236 0.3899 0.92471 0.0
H1390 H 0.42077 0.40081 0.92909 0.0
H1391 H 0.42711 0.4071 0.98487 0.0
H1392 H 0.35731 0.32593 0.56907 0.0
H1393 H 0.32049 0.29674 0.54329 0.0
H1394 H 0.2521 0.35556 0.52519 0.0
H1395 H 0.28929 0.38525 0.55092 0.0
H1396 H 0.25953 0.28419 0.55954 0.0
H1397 H 0.25692 0.32232 0.44082 0.0
H1398 H 0.28695 0.33128 0.47006 0.0
H1399 H 0.24714 0.34424 0.47011 0.0
C1400 C 0.33456 0.33283 0.55944 0.0
C1401 C 0.3263 0.35802 0.56208 0.0
C1402 C 0.31348 0.31602 0.5447 0.0
C1403 C 0.28359 0.32389 0.53208 0.0
C1404 C 0.27528 0.3491 0.53429 0.0
H1405 H 0.12187 0.24946 0.44161 0.0
H1406 H 0.1597 0.27799 0.46712 0.0
C1407 C 0.29651 0.36606 0.54906 0.0
C1408 C 0.261 0.30536 0.51766 0.0
H1409 H 0.22071 0.28963 0.4501 0.0
C1410 C 0.2511 0.28533 0.53557 0.0
C1411 C 0.25013 0.30677 0.48636 0.0
C1412 C 0.261 0.32716 0.46557 0.0
C1413 C 0.23016 0.26701 0.52326 0.0
C1414 C 0.21918 0.26848 0.49199 0.0
C1415 C 0.22918 0.28845 0.47405 0.0
C1416 C 0.19603 0.25027 0.47773 0.0
C1417 C 0.21927 0.24661 0.54404 0.0
C1418 C 0.20367 0.22495 0.47531 0.0
C1419 C 0.18182 0.20835 0.46069 0.0
C1420 C 0.15211 0.21687 0.44804 0.0
C1421 C 0.14455 0.24217 0.45093 0.0
C1422 C 0.16621 0.25861 0.46551 0.0
H1423 H 0.22379 0.25127 0.56879 0.0
H1424 H 0.1932 0.24278 0.53986 0.0
H1425 H 0.23273 0.22942 0.53913 0.0
H1426 H 0.22677 0.21811 0.48412 0.0
H1427 H 0.1885 0.18905 0.45867 0.0
H1428 H 0.93305 0.98214 0.62696 0.0
H1429 H 0.96254 1.01095 0.5959 0.0
H1430 H 0.94478 0.96455 0.51601 0.0
H1431 H 0.91457 0.93536 0.54732 0.0
H1432 H 0.01779 1.00164 0.5659 0.0
H1433 H 0.9207 0.03337 0.4831 0.0
H1434 H 0.91245 1.01689 0.51798 0.0
H1435 H 0.92611 1.00039 0.48508 0.0
C1436 C 0.93502 0.97806 0.60268 0.0
C1437 C 0.92137 0.95636 0.58965 0.0
C1438 C 0.95204 0.99462 0.58494 0.0
C1439 C 0.95593 0.99009 0.55356 0.0
C1440 C 0.94174 0.9687 0.5401 0.0
H1441 H 0.05584 0.06985 0.41412 0.0
H1442 H 0.02779 0.03984 0.44478 0.0
C1443 C 0.92445 0.95201 0.55798 0.0
C1444 C 0.97592 1.00748 0.53573 0.0
H1445 H 0.97326 0.04785 0.47513 0.0
C1446 C 0.00803 1.01175 0.54604 0.0
C1447 C 0.96326 1.0208 0.5099 0.0
C1448 C 0.92868 1.01788 0.49842 0.0
C1449 C 0.02785 0.02861 0.53105 0.0
C1450 C 0.01516 0.042 0.50528 0.0
C1451 C 0.98306 0.03769 0.49493 0.0
C1452 C 0.03491 0.05978 0.48776 0.0
C1453 C 0.06244 0.03149 0.54252 0.0
C1454 C 0.04906 0.081 0.50171 0.0
C1455 C 0.06558 0.09833 0.48407 0.0
C1456 C 0.06785 0.09484 0.45215 0.0
C1457 C 0.05445 0.07325 0.43862 0.0
C1458 C 0.03825 0.05602 0.45613 0.0
H1459 H 0.07057 1.01569 0.55726 0.0
H1460 H 0.07862 0.03304 0.52298 0.0
H1461 H 0.06487 0.04866 0.55651 0.0
H1462 H 0.04642 0.08459 0.52599 0.0
H1463 H 0.07527 0.11489 0.4951 0.0
H1464 H 0.31378 0.98577 0.6545 0.0
H1465 H 0.28372 1.01153 0.68898 0.0
H1466 H 0.31074 0.96337 0.76491 0.0
H1467 H 0.34154 0.93726 0.7301 0.0
H1468 H 0.23159 0.99727 0.72144 0.0
H1469 H 0.33002 0.03244 0.80065 0.0
H1470 H 0.33765 1.01794 0.76421 0.0
H1471 H 0.32788 0.99934 0.79671 0.0
C1472 C 0.31372 0.98066 0.6786 0.0
C1473 C 0.33011 0.95936 0.6895 0.0
C1474 C 0.29638 0.99547 0.69831 0.0
C1475 C 0.29491 0.98953 0.72959 0.0
C1476 C 0.31185 0.96857 0.74093 0.0
H1477 H 0.19557 0.06055 0.87745 0.0
H1478 H 0.22523 0.03278 0.84487 0.0
C1479 C 0.32946 0.95365 0.72105 0.0
C1480 C 0.27447 1.00495 0.74953 0.0
H1481 H 0.27699 0.04386 0.81177 0.0
C1482 C 0.24153 1.00744 0.74123 0.0
C1483 C 0.28737 1.01829 0.7753 0.0
C1484 C 0.3227 1.01712 0.78472 0.0
C1485 C 0.22116 1.02268 0.75805 0.0
C1486 C 0.23411 0.03624 0.78363 0.0
C1487 C 0.26701 0.03358 0.79209 0.0
C1488 C 0.21394 0.05269 0.80261 0.0
C1489 C 0.18581 1.02371 0.74862 0.0
C1490 C 0.19715 0.07317 0.78976 0.0
C1491 C 0.17977 0.08918 0.80848 0.0
C1492 C 0.1792 0.08513 0.84043 0.0
C1493 C 0.19553 0.06435 0.85297 0.0
C1494 C 0.21264 0.04841 0.83435 0.0
H1495 H 0.17832 1.00761 0.73403 0.0
H1496 H 0.17083 1.02418 0.76911 0.0
H1497 H 0.18089 0.04079 0.73504 0.0
H1498 H 0.1982 0.07717 0.76542 0.0
H1499 H 0.16778 0.10514 0.79816 0.0
H1500 H 0.91793 0.29463 0.66171 0.0
H1501 H 0.95598 0.26988 0.69298 0.0
H1502 H 0.96899 0.33042 0.75717 0.0
H1503 H 0.93064 0.35563 0.72565 0.0
H1504 H 0.02271 0.28137 0.71274 0.0
H1505 H 0.94072 0.26831 0.80917 0.0
H1506 H 0.92626 0.27776 0.77113 0.0
H1507 H 0.94695 0.29952 0.7962 0.0
C1508 C 0.92894 0.30283 0.6824 0.0
C1509 C 0.92106 0.32708 0.69131 0.0
C1510 C 0.95075 0.28861 0.70021 0.0
C1511 C 0.965 0.29816 0.72756 0.0
C1512 C 0.95794 0.32261 0.73627 0.0
H1513 H 0.12099 0.2361 0.84112 0.0
H1514 H 0.08511 0.26183 0.80878 0.0
C1515 C 0.93622 0.33703 0.71818 0.0
C1516 C 0.98683 0.28214 0.74687 0.0
H1517 H 0.99203 0.24968 0.81445 0.0
C1518 C 0.01611 0.27454 0.73505 0.0
C1519 C 0.97786 0.27289 0.7757 0.0
C1520 C 0.94616 0.27982 0.78889 0.0
C1521 C 0.03685 0.2582 0.75148 0.0
C1522 C 0.02808 0.24922 0.78049 0.0
C1523 C -0.00135 0.25658 0.79218 0.0
C1524 C 0.0499 0.23303 0.79957 0.0
C1525 C 0.06788 0.25042 0.7376 0.0
C1526 C 0.04195 0.20821 0.80528 0.0
C1527 C 0.06264 0.19325 0.82373 0.0
C1528 C 0.09134 0.20305 0.83715 0.0
C1529 C 0.09908 0.22792 0.83125 0.0
C1530 C 0.07864 0.24269 0.81266 0.0
H1531 H 0.06802 0.25479 0.71262 0.0
H1532 H 0.08825 0.26036 0.7495 0.0
H1533 H 0.07199 0.23025 0.74076 0.0
H1534 H 0.01977 0.20044 0.79542 0.0
H1535 H 0.0559 0.17423 0.82792 0.0
H1536 H 0.78108 0.82835 0.62399 0.0
H1537 H 0.75028 0.80523 0.58462 0.0
H1538 H 0.79696 0.8455 0.51361 0.0
H1539 H 0.82854 0.86879 0.55336 0.0
H1540 H 0.70794 0.82083 0.53764 0.0
H1541 H 0.81354 0.77204 0.49193 0.0
H1542 H 0.81563 0.78867 0.52808 0.0
H1543 H 0.81554 0.80531 0.49234 0.0
C1544 C 0.78478 0.83247 0.60002 0.0
C1545 C 0.8075 0.85029 0.59181 0.0
C1546 C 0.76708 0.8192 0.57751 0.0
C1547 C 0.77171 0.82326 0.54618 0.0
C1548 C 0.79345 0.84173 0.53771 0.0
H1549 H 0.64375 0.76485 0.4007 0.0
H1550 H 0.67768 0.79054 0.43481 0.0
C1551 C 0.81121 0.85521 0.56039 0.0
C1552 C 0.75367 0.8078 0.52288 0.0
H1553 H 0.76259 0.76285 0.46829 0.0
C1554 C 0.7199 0.80827 0.52234 0.0
C1555 C 0.7693 0.79105 0.50338 0.0
C1556 C 0.80549 0.78896 0.50398 0.0
C1557 C 0.70136 0.79255 0.50284 0.0
C1558 C 0.71695 0.77611 0.48293 0.0
C1559 C 0.75071 0.77551 0.48351 0.0
C1560 C 0.69832 0.75993 0.4609 0.0
C1561 C 0.66516 0.79331 0.50419 0.0
C1562 C 0.69948 0.73398 0.46348 0.0
C1563 C 0.68002 0.71902 0.44376 0.0
C1564 C 0.65921 0.72985 0.42115 0.0
C1565 C 0.65912 0.75581 0.41807 0.0
C1566 C 0.6785 0.77062 0.43762 0.0
H1567 H 0.65745 0.802 0.52586 0.0
H1568 H 0.65502 0.80441 0.48458 0.0
H1569 H 0.65478 0.77439 0.50238 0.0
H1570 H 0.71481 0.72536 0.48123 0.0
H1571 H 0.68079 0.69911 0.44663 0.0
H1572 H 0.65806 0.11801 0.27938 0.0
H1573 H 0.68837 0.08701 0.25056 0.0
H1574 H 0.70024 0.04261 0.33269 0.0
H1575 H 0.67015 0.07299 0.36114 0.0
H1576 H 0.75287 0.07248 0.26524 0.0
H1577 H 0.67189 0.99123 0.2683 0.0
H1578 H 0.65833 1.02232 0.27589 0.0
H1579 H 0.67998 1.00499 0.30549 0.0
C1580 C 0.66643 0.1013 0.29095 0.0
C1581 C 0.6616 0.09791 0.32249 0.0
C1582 C 0.68395 0.0837 0.27458 0.0
C1583 C 0.69636 0.06229 0.28938 0.0
C1584 C 0.6905 0.05864 0.32055 0.0
H1585 H 0.82077 0.93769 0.241 0.0
H1586 H 0.79037 0.96864 0.26982 0.0
C1587 C 0.67336 0.07617 0.33685 0.0
C1588 C 0.71741 0.04452 0.27331 0.0
H1589 H 0.72601 0.98324 0.25522 0.0
C1590 C 0.74684 0.05302 0.26277 0.0
C1591 C 0.70984 1.01902 0.2705 0.0
C1592 C 0.67816 1.00885 0.28038 0.0
C1593 C 0.76905 0.0367 0.24997 0.0
C1594 C 0.76148 1.0112 0.24713 0.0
C1595 C 0.73204 1.00271 0.25769 0.0
C1596 C 0.78253 0.99343 0.23106 0.0
C1597 C 0.80075 0.04688 0.24013 0.0
C1598 C 0.78849 0.99714 0.19991 0.0
C1599 C 0.80568 0.97964 0.18362 0.0
C1600 C 0.8174 0.95787 0.19795 0.0
C1601 C 0.81243 0.95442 0.22945 0.0
C1602 C 0.79486 0.97199 0.24582 0.0
H1603 H 0.80704 0.06446 0.25229 0.0
H1604 H 0.82056 0.03338 0.24458 0.0
H1605 H 0.79894 0.0508 0.21504 0.0
H1606 H 0.7788 1.0132 0.1878 0.0
H1607 H 0.809 0.98288 0.15936 0.0
H1608 H 0.93513 0.86525 0.2144 0.0
H1609 H 0.97295 0.83754 0.24284 0.0
H1610 H 0.91143 0.77531 0.2201 0.0
H1611 H 0.87398 0.80246 0.19185 0.0
H1612 H 0.96164 0.80423 0.29333 0.0
H1613 H -0.00047 0.75367 0.18973 0.0
H1614 H 0.97912 0.78317 0.18745 0.0
H1615 H 0.95671 0.75522 0.1931 0.0
C1616 C 0.92967 0.84569 0.21558 0.0
C1617 C 0.90165 0.83609 0.2006 0.0
C1618 C 0.95128 0.82988 0.23178 0.0
C1619 C 0.94529 0.80428 0.23304 0.0
C1620 C 0.91693 0.79488 0.21885 0.0
H1621 H 0.04133 0.67407 0.31369 0.0
H1622 H 0.00359 0.70266 0.28677 0.0
C1623 C 0.89544 0.81054 0.20278 0.0
C1624 C 0.96828 0.78714 0.24929 0.0
H1625 H 0.01512 0.7361 0.2383 0.0
C1626 C 0.97356 0.78946 0.2813 0.0
C1627 C 0.98358 0.76773 0.23357 0.0
C1628 C 0.97974 0.76485 0.19902 0.0
C1629 C 0.99323 0.7726 0.29811 0.0
C1630 C 0.00847 0.75314 0.28239 0.0
C1631 C 0.00325 0.75088 0.25036 0.0
C1632 C 0.03106 0.73565 0.2986 0.0
C1633 C -0.00307 0.77543 0.33266 0.0
C1634 C 0.05923 0.74462 0.31362 0.0
C1635 C 0.08069 0.72843 0.32889 0.0
C1636 C 0.07466 0.70278 0.32936 0.0
C1637 C 0.04667 0.69369 0.31383 0.0
C1638 C 0.02509 0.71001 0.29848 0.0
H1639 H 0.97699 0.78648 0.34191 0.0
H1640 H -0.00231 0.7571 0.34421 0.0
H1641 H 0.01983 0.7852 0.33867 0.0
H1642 H 0.06476 0.76421 0.31341 0.0
H1643 H 0.10211 0.73615 0.34034 0.0
H1644 H 0.35871 0.81181 0.07456 0.0
H1645 H 0.3218 0.78402 0.04648 0.0
H1646 H 0.2598 0.84564 0.02219 0.0
H1647 H 0.29708 0.87392 0.05028 0.0
H1648 H 0.25757 0.77495 0.05735 0.0
H1649 H 0.27149 0.81107 0.939 0.0
H1650 H 0.29928 0.81867 0.97078 0.0
H1651 H 0.26081 0.83377 0.96708 0.0
C1652 C 0.33734 0.81962 0.06317 0.0
C1653 C 0.33093 0.84519 0.06467 0.0
C1654 C 0.31621 0.80361 0.04712 0.0
C1655 C 0.28816 0.8127 0.032 0.0
C1656 C 0.28159 0.83824 0.03327 0.0
H1657 H 0.13284 0.74199 0.92574 0.0
H1658 H 0.16924 0.77023 0.95374 0.0
C1659 C 0.30285 0.85438 0.0494 0.0
C1660 C 0.26567 0.79511 0.0157 0.0
H1661 H 0.23261 0.77971 0.94477 0.0
C1662 C 0.25212 0.77596 0.03272 0.0
C1663 C 0.25867 0.7964 0.98357 0.0
C1664 C 0.27348 0.81593 0.96389 0.0
C1665 C 0.23138 0.75832 0.01858 0.0
C1666 C 0.22447 0.75953 0.98641 0.0
C1667 C 0.238 0.77872 0.96941 0.0
C1668 C 0.20231 0.74172 0.97004 0.0
C1669 C 0.21646 0.7389 0.03837 0.0
C1670 C 0.20872 0.71613 0.96975 0.0
C1671 C 0.18771 0.69974 0.95375 0.0
C1672 C 0.16008 0.70871 0.93752 0.0
C1673 C 0.15388 0.73435 0.9379 0.0
C1674 C 0.17472 0.75061 0.9539 0.0
H1675 H 0.21769 0.7442 0.06313 0.0
H1676 H 0.19088 0.73569 0.03098 0.0
H1677 H 0.22969 0.7212 0.03602 0.0
H1678 H 0.2302 0.70886 0.98154 0.0
H1679 H 0.19332 0.68015 0.95375 0.0
H1680 H 0.08093 0.6102 0.98839 0.0
H1681 H 0.051 0.58145 0.02062 0.0
H1682 H 0.03767 0.53179 0.94324 0.0
H1683 H 0.06752 0.55985 0.91152 0.0
H1684 H 0.98698 0.56624 0.01002 0.0
H1685 H 0.06709 0.48437 0.01085 0.0
H1686 H 0.08037 0.51472 0.99962 0.0
H1687 H 0.05755 0.49553 0.97265 0.0
C1688 C 0.07229 0.59286 0.97859 0.0
C1689 C 0.07676 0.5873 0.94743 0.0
C1690 C 0.05498 0.57652 0.99691 0.0
C1691 C 0.04233 0.55423 0.98449 0.0
C1692 C 0.04764 0.54851 0.95365 0.0
H1693 H 0.91668 0.43423 0.04356 0.0
H1694 H 0.94742 0.46343 0.01269 0.0
C1695 C 0.06464 0.56474 0.93544 0.0
C1696 C 0.02176 0.53755 1.00268 0.0
H1697 H 0.0131 0.47734 0.02539 0.0
C1698 C 0.99289 0.54687 0.01367 0.0
C1699 C 0.02916 0.51215 0.00718 0.0
C1700 C 0.06038 0.50114 0.99722 0.0
C1701 C 0.97102 0.53145 0.02838 0.0
C1702 C 0.97832 0.50602 0.03265 0.0
C1703 C 0.00724 0.49672 0.0218 0.0
C1704 C 0.95741 0.48918 0.05021 0.0
C1705 C 0.93992 0.54244 0.03868 0.0
C1706 C 0.9526 0.49395 0.08139 0.0
C1707 C 0.93524 0.47741 0.09889 0.0
C1708 C 0.92215 0.45556 0.08576 0.0
C1709 C 0.92611 0.45102 0.05426 0.0
C1710 C 0.94386 0.4676 0.0367 0.0
H1711 H 0.93369 0.5598 0.02607 0.0
H1712 H 0.91971 0.52915 0.03522 0.0
H1713 H 0.94253 0.54696 0.06361 0.0
H1714 H 0.9632 0.51015 0.09255 0.0
H1715 H 0.93274 0.48151 0.12309 0.0
H1716 H 0.14364 0.60149 0.27729 0.0
H1717 H 0.17025 0.57235 0.24288 0.0
H1718 H 0.19228 0.52414 0.32001 0.0
H1719 H 0.16556 0.55256 0.35396 0.0
H1720 H 0.23416 0.55848 0.24722 0.0
H1721 H 0.15845 0.4749 0.25664 0.0
H1722 H 0.14542 0.5051 0.26889 0.0
H1723 H 0.1719 0.48675 0.29362 0.0
C1724 C 0.15347 0.58437 0.28666 0.0
C1725 C 0.15236 0.57935 0.31835 0.0
C1726 C 0.16885 0.5678 0.26705 0.0
C1727 C 0.18296 0.54581 0.27873 0.0
C1728 C 0.18102 0.54059 0.31019 0.0
H1729 H 0.31326 0.43159 0.21198 0.0
H1730 H 0.28007 0.45826 0.24403 0.0
C1731 C 0.16585 0.55705 0.32967 0.0
C1732 C 0.20195 0.52914 0.25894 0.0
H1733 H 0.21072 0.46868 0.23689 0.0
C1734 C 0.22879 0.53891 0.24469 0.0
C1735 C 0.19524 0.50349 0.25585 0.0
C1736 C 0.166 0.49198 0.26932 0.0
C1737 C 0.24938 0.52372 0.22807 0.0
C1738 C 0.24284 0.49806 0.22525 0.0
C1739 C 0.21595 0.48828 0.23933 0.0
C1740 C 0.26265 0.48146 0.20625 0.0
C1741 C 0.2784 0.5352 0.21415 0.0
C1742 C 0.26345 0.48535 0.17442 0.0
C1743 C 0.28215 0.47024 0.15622 0.0
C1744 C 0.30061 0.4507 0.1693 0.0
C1745 C 0.29949 0.44652 0.2012 0.0
C1746 C 0.28051 0.46171 0.2195 0.0
H1747 H 0.28469 0.55334 0.22493 0.0
H1748 H 0.29962 0.52274 0.21667 0.0
H1749 H 0.27311 0.53831 0.18918 0.0
H1750 H 0.24947 0.50014 0.16356 0.0
H1751 H 0.28216 0.47404 0.13175 0.0
H1752 H 0.80201 0.36845 0.06852 0.0
H1753 H 0.76355 0.34323 0.03725 0.0
H1754 H 0.81753 0.27747 0.06191 0.0
H1755 H 0.8555 0.30219 0.09317 0.0
H1756 H 0.77412 0.31175 0.98701 0.0
H1757 H 0.72666 0.25833 0.0838 0.0
H1758 H 0.74992 0.28629 0.08966 0.0
H1759 H 0.76971 0.25733 0.08264 0.0
C1760 C 0.80562 0.34862 0.06729 0.0
C1761 C 0.83175 0.33738 0.08359 0.0
C1762 C 0.78363 0.33422 0.04944 0.0
C1763 C 0.78726 0.30835 0.04774 0.0
C1764 C 0.81369 0.29726 0.06347 0.0
H1765 H 0.68929 0.18669 0.94856 0.0
H1766 H 0.72607 0.21215 0.98134 0.0
C1767 C 0.83555 0.31154 0.08123 0.0
C1768 C 0.76407 0.29282 0.02903 0.0
H1769 H 0.71312 0.24333 0.03322 0.0
C1770 C 0.76059 0.29693 0.99715 0.0
C1771 C 0.74653 0.27334 0.04222 0.0
C1772 C 0.7481 0.26866 0.0765 0.0
C1773 C 0.7406 0.28181 0.97805 0.0
C1774 C 0.72321 0.26226 0.99122 0.0
C1775 C 0.72661 0.25818 0.02311 0.0
C1776 C 0.70048 0.24648 0.97237 0.0
C1777 C 0.73881 0.28657 0.94379 0.0
C1778 C 0.67348 0.25717 0.95714 0.0
C1779 C 0.6525 0.24275 0.93858 0.0
C1780 C 0.65787 0.21718 0.93485 0.0
C1781 C 0.68443 0.20629 0.95089 0.0
C1782 C 0.7055 0.22083 0.96957 0.0
H1783 H 0.75964 0.29762 0.93648 0.0
H1784 H 0.73797 0.26891 0.93063 0.0
H1785 H 0.71654 0.29713 0.93764 0.0
H1786 H 0.66868 0.27679 0.95948 0.0
H1787 H 0.63217 0.2518 0.92688 0.0
H1788 H 0.81332 0.46867 0.66105 0.0
H1789 H 0.78428 0.49953 0.68975 0.0
H1790 H 0.79538 0.4548 0.77169 0.0
H1791 H 0.82518 0.4236 0.74276 0.0
H1792 H 0.72683 0.49182 0.7164 0.0
H1793 H 0.81909 0.52397 0.80403 0.0
H1794 H 0.82933 0.50652 0.77035 0.0
H1795 H 0.81287 0.49105 0.80264 0.0
C1796 C 0.81014 0.4655 0.68535 0.0
C1797 C 0.82162 0.44364 0.69963 0.0
C1798 C 0.79337 0.48319 0.70172 0.0
C1799 C 0.78751 0.47962 0.73291 0.0
C1800 C 0.79994 0.45821 0.74773 0.0
H1801 H 0.6801 0.56534 0.8623 0.0
H1802 H 0.70948 0.5338 0.83499 0.0
C1803 C 0.81705 0.44039 0.73124 0.0
C1804 C 0.76682 0.49779 0.74886 0.0
H1805 H 0.76635 0.53962 0.80802 0.0
C1806 C 0.7355 0.50229 0.73644 0.0
C1807 C 0.77804 0.51152 0.77496 0.0
C1808 C 0.81175 0.50826 0.78871 0.0
C1809 C 0.71508 0.51983 0.74954 0.0
C1810 C 0.72637 0.53369 0.77552 0.0
C1811 C 0.75764 0.52911 0.78803 0.0
C1812 C 0.70592 0.55237 0.79092 0.0
C1813 C 0.68133 0.52294 0.73582 0.0
C1814 C 0.69333 0.57332 0.77519 0.0
C1815 C 0.67605 0.59151 0.79085 0.0
C1816 C 0.67143 0.58916 0.82258 0.0
C1817 C 0.68329 0.56783 0.83788 0.0
C1818 C 0.70025 0.54974 0.8223 0.0
H1819 H 0.67373 0.50678 0.72138 0.0
H1820 H 0.66385 0.52546 0.75414 0.0
H1821 H 0.68037 0.53963 0.72095 0.0
H1822 H 0.69779 0.57605 0.75107 0.0
H1823 H 0.66763 0.60785 0.77852 0.0
H1824 H 0.42967 0.99065 0.0993 0.0
H1825 H 0.45665 1.02072 0.06797 0.0
H1826 H 0.42736 0.98012 0.98585 0.0
H1827 H 0.39984 0.9495 0.01749 0.0
H1828 H 0.50765 1.0097 0.03015 0.0
H1829 H 0.40495 0.0531 0.96384 0.0
H1830 H 0.39968 0.03533 0.99843 0.0
H1831 H 0.40683 1.01984 0.96279 0.0
C1832 C 0.42855 0.9881 0.07453 0.0
C1833 C 0.41262 0.96752 0.06094 0.0
C1834 C 0.4441 1.0054 0.05663 0.0
C1835 C 0.44411 1.00279 0.02455 0.0
C1836 C 0.42738 0.98271 0.01058 0.0
H1837 H 0.53647 0.0864 0.88379 0.0
H1838 H 0.50499 0.05828 0.91385 0.0
C1839 C 0.41164 0.96522 0.02864 0.0
C1840 C 0.46326 1.02051 0.00648 0.0
H1841 H 0.45716 0.0662 0.95216 0.0
C1842 C 0.49661 1.02207 0.01308 0.0
C1843 C 0.44888 0.03669 0.98429 0.0
C1844 C 0.41309 0.03642 0.97695 0.0
C1845 C 0.51602 0.03903 0.99784 0.0
C1846 C 0.50164 0.05542 0.97583 0.0
C1847 C 0.46824 0.05381 0.96918 0.0
C1848 C 0.52097 0.07333 0.95811 0.0
C1849 C 0.55189 0.03873 1.00489 0.0
C1850 C 0.54048 0.09158 0.97283 0.0
C1851 C 0.55896 0.10783 0.95552 0.0
C1852 C 0.55801 0.10626 0.92316 0.0
C1853 C 0.53799 0.08825 0.90865 0.0
C1854 C 0.51978 0.07207 0.92584 0.0
H1855 H 0.55989 1.02115 0.01609 0.0
H1856 H 0.56529 0.04123 0.98359 0.0
H1857 H 0.55838 0.05415 0.02091 0.0
H1858 H 0.54133 0.09333 0.99769 0.0
H1859 H 0.57388 0.12157 0.96742 0.0
H1860 H 0.42875 0.36844 0.19043 0.0
H1861 H 0.4651 0.34204 0.22217 0.0
H1862 H 0.40526 0.27874 0.20009 0.0
H1863 H 0.3691 0.30472 0.16836 0.0
H1864 H 0.4521 0.3112 0.27367 0.0
H1865 H 0.495 0.25609 0.17558 0.0
H1866 H 0.47406 0.28518 0.17032 0.0
H1867 H 0.45202 0.25738 0.17776 0.0
C1868 C 0.42325 0.34892 0.19244 0.0
C1869 C 0.39609 0.33871 0.17661 0.0
C1870 C 0.44408 0.33385 0.21055 0.0
C1871 C 0.43823 0.30831 0.21302 0.0
C1872 C 0.41067 0.29826 0.19798 0.0
H1873 H 0.54203 0.18606 0.30646 0.0
H1874 H 0.50236 0.21107 0.27646 0.0
C1875 C 0.3899 0.31324 0.17995 0.0
C1876 C 0.46078 0.29208 0.23134 0.0
H1877 H 0.51104 0.24227 0.22571 0.0
C1878 C 0.46508 0.2962 0.26318 0.0
C1879 C 0.47752 0.27235 0.21767 0.0
C1880 C 0.47472 0.26753 0.18342 0.0
C1881 C 0.48541 0.28099 0.28175 0.0
C1882 C 0.50243 0.26142 0.26804 0.0
C1883 C 0.4979 0.25718 0.23624 0.0
C1884 C 0.52627 0.24602 0.28605 0.0
C1885 C 0.48806 0.2858 0.31602 0.0
C1886 C 0.55317 0.25724 0.30085 0.0
C1887 C 0.57572 0.24309 0.3179 0.0
C1888 C 0.57213 0.21726 0.32042 0.0
C1889 C 0.54549 0.20589 0.30507 0.0
C1890 C 0.5228 0.22017 0.28795 0.0
H1891 H 0.46685 0.29613 0.32395 0.0
H1892 H 0.49038 0.26822 0.32915 0.0
H1893 H 0.50978 0.29719 0.32152 0.0
H1894 H 0.55685 0.27704 0.2991 0.0
H1895 H 0.59604 0.25252 0.32913 0.0
H1896 H 0.41295 0.81116 0.64456 0.0
H1897 H 0.44804 0.78316 0.67453 0.0
H1898 H 0.47567 0.84287 0.73618 0.0
H1899 H 0.44048 0.87138 0.70595 0.0
H1900 H 0.51809 0.78969 0.68932 0.0
H1901 H 0.44239 0.78353 0.79146 0.0
H1902 H 0.4263 0.79317 0.75402 0.0
H1903 H 0.45094 0.81397 0.77706 0.0
C1904 C 0.42643 0.81847 0.66447 0.0
C1905 C 0.42374 0.84356 0.67293 0.0
C1906 C 0.44654 0.80238 0.68156 0.0
C1907 C 0.46419 0.81085 0.70773 0.0
C1908 C 0.46195 0.83592 0.7162 0.0
H1909 H 0.62066 0.74277 0.81274 0.0
H1910 H 0.58459 0.76905 0.78142 0.0
C1911 C 0.44198 0.8522 0.69885 0.0
C1912 C 0.48505 0.79326 0.72576 0.0
H1913 H 0.4917 0.76168 0.79393 0.0
C1914 C 0.51237 0.78359 0.7122 0.0
C1915 C 0.47722 0.78502 0.75539 0.0
C1916 C 0.44753 0.79425 0.77045 0.0
C1917 C 0.53243 0.76628 0.72776 0.0
C1918 C 0.52498 0.75841 0.75765 0.0
C1919 C 0.49732 0.76771 0.771 0.0
C1920 C 0.54679 0.74174 0.77607 0.0
C1921 C 0.56147 0.75643 0.71212 0.0
C1922 C 0.53746 0.71756 0.78363 0.0
C1923 C 0.55826 0.70225 0.80153 0.0
C1924 C 0.58846 0.7111 0.81253 0.0
C1925 C 0.59757 0.73532 0.80475 0.0
C1926 C 0.57702 0.75041 0.78673 0.0
H1927 H 0.55996 0.75998 0.6869 0.0
H1928 H 0.58341 0.7657 0.72202 0.0
H1929 H 0.56419 0.73621 0.71605 0.0
H1930 H 0.51412 0.71056 0.77568 0.0
H1931 H 0.55046 0.68377 0.80727 0.0
H1932 H 0.55692 0.58587 0.38423 0.0
H1933 H 0.52551 0.55745 0.41419 0.0
H1934 H 0.54172 0.60346 0.49466 0.0
H1935 H 0.57323 0.63249 0.46434 0.0
H1936 H 0.53935 0.52998 0.4668 0.0
H1937 H 0.44307 0.59892 0.486 0.0
H1938 H 0.47372 0.60379 0.45855 0.0
H1939 H 0.48289 0.60823 0.49902 0.0
C1940 C 0.55412 0.58994 0.4084 0.0
C1941 C 0.56744 0.6116 0.42184 0.0
C1942 C 0.53612 0.57358 0.42552 0.0
C1943 C 0.53066 0.57847 0.45654 0.0
C1944 C 0.54508 0.59952 0.47056 0.0
H1945 H 0.42039 0.50564 0.59259 0.0
H1946 H 0.45154 0.53337 0.56156 0.0
C1947 C 0.56339 0.61596 0.45335 0.0
C1948 C 0.5091 0.5617 0.47348 0.0
H1949 H 0.43745 0.55967 0.509 0.0
C1950 C 0.51706 0.53646 0.47603 0.0
C1951 C 0.4798 0.57007 0.48522 0.0
C1952 C 0.46908 0.59667 0.4819 0.0
C1953 C 0.49699 0.51954 0.49061 0.0
C1954 C 0.46773 0.52793 0.50244 0.0
C1955 C 0.45972 0.55316 0.49975 0.0
C1956 C 0.44647 0.51135 0.51999 0.0
C1957 C 0.50777 0.49297 0.49402 0.0
C1958 C 0.43217 0.48991 0.50679 0.0
C1959 C 0.41402 0.47382 0.52467 0.0
C1960 C 0.41001 0.47895 0.55602 0.0
C1961 C 0.42319 0.50097 0.56859 0.0
C1962 C 0.44105 0.51694 0.55084 0.0
H1963 H 0.53374 0.49072 0.48974 0.0
H1964 H 0.50334 0.48595 0.51746 0.0
H1965 H 0.49385 0.48133 0.47708 0.0
H1966 H 0.43545 0.48543 0.48283 0.0
H1967 H 0.40427 0.457 0.51435 0.0
loop_
_geom_bond_atom_site_label_1
_geom_bond_atom_site_label_2
_geom_bond_distance
_geom_bond_site_symmetry_2
_ccdc_geom_bond_type
C0 C1 1.351 . S
C0 N3 1.368 . S
C0 H5 0.931 . S
C1 C0 1.351 . S
C1 N2 1.373 . S
C1 H29 0.930 . S
N2 C1 1.373 . S
N2 C4 1.340 . S
N3 C0 1.368 . S
N3 C4 1.321 . S
N3 Co6 2.135 . S
C4 N2 1.340 . S
C4 N3 1.321 . S
C4 H28 0.930 . S
H5 C0 0.931 . S
Co6 N3 2.135 . S
Co6 N9 2.121 . S
Co6 O14 2.055 . S
Co6 O17 2.039 . S
Co6 N20 2.140 . S
C7 O8 1.227 . S
C7 O17 1.265 . S
O8 C7 1.227 . S
N9 Co6 2.121 . S
N9 C11 1.375 . S
N9 C12 1.313 . S
C10 C11 1.338 . S
C10 N13 1.377 . S
C10 H30 0.930 . S
C11 N9 1.375 . S
C11 C10 1.338 . S
C11 H15 0.931 . S
C12 N9 1.313 . S
C12 N13 1.344 . S
C12 H16 0.930 . S
N13 C10 1.377 . S
N13 C12 1.344 . S
O14 Co6 2.055 . S
O14 C18 1.253 . S
H15 C11 0.931 . S
H16 C12 0.930 . S
O17 Co6 2.039 . S
O17 C7 1.265 . S
C18 O14 1.253 . S
C18 O19 1.227 . S
O19 C18 1.227 . S
N20 Co6 2.140 . S
N20 C23 1.346 . S
N20 C24 1.345 . S
C21 C22 1.387 . S
C21 C25 1.391 . S
C22 C21 1.387 . S
C22 C23 1.369 . S
C22 H31 0.929 . S
C23 N20 1.346 . S
C23 C22 1.369 . S
C23 H26 0.928 . S
C24 N20 1.345 . S
C24 C25 1.371 . S
C24 H27 0.931 . S
C25 C21 1.391 . S
C25 C24 1.371 . S
C25 H32 0.930 . S
H26 C23 0.928 . S
H27 C24 0.931 . S
H28 C4 0.930 . S
H29 C1 0.930 . S
H30 C10 0.930 . S
H31 C22 0.929 . S
H32 C25 0.930 . S
C33 C34 1.351 . S
C33 N36 1.368 . S
C33 H38 0.931 . S
C34 C33 1.351 . S
C34 N35 1.373 . S
C34 H62 0.930 . S
N35 C34 1.373 . S
N35 C37 1.340 . S
N36 C33 1.368 . S
N36 C37 1.321 . S
N36 Co39 2.135 . S
C37 N35 1.340 . S
C37 N36 1.321 . S
C37 H61 0.930 . S
H38 C33 0.931 . S
Co39 N36 2.135 . S
Co39 N42 2.121 . S
Co39 O47 2.055 . S
Co39 O50 2.039 . S
Co39 N53 2.140 . S
C40 O41 1.227 . S
C40 O50 1.265 . S
O41 C40 1.227 . S
N42 Co39 2.121 . S
N42 C44 1.375 . S
N42 C45 1.313 . S
C43 C44 1.338 . S
C43 N46 1.377 . S
C43 H63 0.930 . S
C44 N42 1.375 . S
C44 C43 1.338 . S
C44 H48 0.931 . S
C45 N42 1.313 . S
C45 N46 1.344 . S
C45 H49 0.930 . S
N46 C43 1.377 . S
N46 C45 1.344 . S
O47 Co39 2.055 . S
O47 C51 1.253 . S
H48 C44 0.931 . S
H49 C45 0.930 . S
O50 Co39 2.039 . S
O50 C40 1.265 . S
C51 O47 1.253 . S
C51 O52 1.227 . S
O52 C51 1.227 . S
N53 Co39 2.140 . S
N53 C56 1.346 . S
N53 C57 1.345 . S
C54 C55 1.387 . S
C54 C58 1.391 . S
C55 C54 1.387 . S
C55 C56 1.369 . S
C55 H64 0.929 . S
C56 N53 1.346 . S
C56 C55 1.369 . S
C56 H59 0.928 . S
C57 N53 1.345 . S
C57 C58 1.371 . S
C57 H60 0.931 . S
C58 C54 1.391 . S
C58 C57 1.371 . S
C58 H65 0.930 . S
H59 C56 0.928 . S
H60 C57 0.931 . S
H61 C37 0.930 . S
H62 C34 0.930 . S
H63 C43 0.930 . S
H64 C55 0.929 . S
H65 C58 0.930 . S
C66 C67 1.351 . S
C66 N69 1.368 . S
C66 H71 0.931 . S
C67 C66 1.351 . S
C67 N68 1.373 . S
C67 H95 0.930 . S
N68 C67 1.373 . S
N68 C70 1.340 . S
N69 C66 1.368 . S
N69 C70 1.321 . S
N69 Co72 2.135 . S
C70 N68 1.340 . S
C70 N69 1.321 . S
C70 H94 0.930 . S
H71 C66 0.931 . S
Co72 N69 2.135 . S
Co72 N75 2.121 . S
Co72 O80 2.055 . S
Co72 O83 2.039 . S
Co72 N86 2.140 . S
C73 O74 1.227 . S
C73 O83 1.265 . S
O74 C73 1.227 . S
N75 Co72 2.121 . S
N75 C77 1.375 . S
N75 C78 1.313 . S
C76 C77 1.338 . S
C76 N79 1.377 . S
C76 H96 0.930 . S
C77 N75 1.375 . S
C77 C76 1.338 . S
C77 H81 0.931 . S
C78 N75 1.313 . S
C78 N79 1.344 . S
C78 H82 0.930 . S
N79 C76 1.377 . S
N79 C78 1.344 . S
O80 Co72 2.055 . S
O80 C84 1.253 . S
H81 C77 0.931 . S
H82 C78 0.930 . S
O83 Co72 2.039 . S
O83 C73 1.265 . S
C84 O80 1.253 . S
C84 O85 1.227 . S
O85 C84 1.227 . S
N86 Co72 2.140 . S
N86 C89 1.346 . S
N86 C90 1.345 . S
C87 C88 1.387 . S
C87 C91 1.391 . S
C88 C87 1.387 . S
C88 C89 1.369 . S
C88 H97 0.929 . S
C89 N86 1.346 . S
C89 C88 1.369 . S
C89 H92 0.928 . S
C90 N86 1.345 . S
C90 C91 1.371 . S
C90 H93 0.931 . S
C91 C87 1.391 . S
C91 C90 1.371 . S
C91 H98 0.930 . S
H92 C89 0.928 . S
H93 C90 0.931 . S
H94 C70 0.930 . S
H95 C67 0.930 . S
H96 C76 0.930 . S
H97 C88 0.929 . S
H98 C91 0.930 . S
C99 C100 1.351 . S
C99 N102 1.368 . S
C99 H104 0.931 . S
C100 C99 1.351 . S
C100 N101 1.373 . S
C100 H128 0.930 . S
N101 C100 1.373 . S
N101 C103 1.340 . S
N102 C99 1.368 . S
N102 C103 1.321 . S
N102 Co105 2.135 . S
C103 N101 1.340 . S
C103 N102 1.321 . S
C103 H127 0.930 . S
H104 C99 0.931 . S
Co105 N102 2.135 . S
Co105 N108 2.121 . S
Co105 O113 2.055 . S
Co105 O116 2.039 . S
Co105 N119 2.140 . S
C106 O107 1.227 . S
C106 O116 1.265 . S
O107 C106 1.227 . S
N108 Co105 2.121 . S
N108 C110 1.375 . S
N108 C111 1.313 . S
C109 C110 1.338 . S
C109 N112 1.377 . S
C109 H129 0.930 . S
C110 N108 1.375 . S
C110 C109 1.338 . S
C110 H114 0.931 . S
C111 N108 1.313 . S
C111 N112 1.344 . S
C111 H115 0.930 . S
N112 C109 1.377 . S
N112 C111 1.344 . S
O113 Co105 2.055 . S
O113 C117 1.253 . S
H114 C110 0.931 . S
H115 C111 0.930 . S
O116 Co105 2.039 . S
O116 C106 1.265 . S
C117 O113 1.253 . S
C117 O118 1.227 . S
O118 C117 1.227 . S
N119 Co105 2.140 . S
N119 C122 1.346 . S
N119 C123 1.345 . S
C120 C121 1.387 . S
C120 C124 1.391 . S
C121 C120 1.387 . S
C121 C122 1.369 . S
C121 H130 0.929 . S
C122 N119 1.346 . S
C122 C121 1.369 . S
C122 H125 0.928 . S
C123 N119 1.345 . S
C123 C124 1.371 . S
C123 H126 0.931 . S
C124 C120 1.391 . S
C124 C123 1.371 . S
C124 H131 0.930 . S
H125 C122 0.928 . S
H126 C123 0.931 . S
H127 C103 0.930 . S
H128 C100 0.930 . S
H129 C109 0.930 . S
H130 C121 0.929 . S
H131 C124 0.930 . S
C132 C133 1.351 . S
C132 N135 1.368 . S
C132 H137 0.931 . S
C133 C132 1.351 . S
C133 N134 1.373 . S
C133 H161 0.930 . S
N134 C133 1.373 . S
N134 C136 1.340 . S
N135 C132 1.368 . S
N135 C136 1.321 . S
N135 Co138 2.135 . S
C136 N134 1.340 . S
C136 N135 1.321 . S
C136 H160 0.930 . S
H137 C132 0.931 . S
Co138 N135 2.135 . S
Co138 N141 2.121 . S
Co138 O146 2.055 . S
Co138 O149 2.039 . S
Co138 N152 2.140 . S
C139 O140 1.227 . S
C139 O149 1.265 . S
O140 C139 1.227 . S
N141 Co138 2.121 . S
N141 C143 1.375 . S
N141 C144 1.313 . S
C142 C143 1.338 . S
C142 N145 1.377 . S
C142 H162 0.930 . S
C143 N141 1.375 . S
C143 C142 1.338 . S
C143 H147 0.931 . S
C144 N141 1.313 . S
C144 N145 1.344 . S
C144 H148 0.930 . S
N145 C142 1.377 . S
N145 C144 1.344 . S
O146 Co138 2.055 . S
O146 C150 1.253 . S
H147 C143 0.931 . S
H148 C144 0.930 . S
O149 Co138 2.039 . S
O149 C139 1.265 . S
C150 O146 1.253 . S
C150 O151 1.227 . S
O151 C150 1.227 . S
N152 Co138 2.140 . S
N152 C155 1.346 . S
N152 C156 1.345 . S
C153 C154 1.387 . S
C153 C157 1.391 . S
C154 C153 1.387 . S
C154 C155 1.369 . S
C154 H163 0.929 . S
C155 N152 1.346 . S
C155 C154 1.369 . S
C155 H158 0.928 . S
C156 N152 1.345 . S
C156 C157 1.371 . S
C156 H159 0.931 . S
C157 C153 1.391 . S
C157 C156 1.371 . S
C157 H164 0.930 . S
H158 C155 0.928 . S
H159 C156 0.931 . S
H160 C136 0.930 . S
H161 C133 0.930 . S
H162 C142 0.930 . S
H163 C154 0.929 . S
H164 C157 0.930 . S
C165 C166 1.351 . S
C165 N168 1.368 . S
C165 H170 0.931 . S
C166 C165 1.351 . S
C166 N167 1.373 . S
C166 H194 0.930 . S
N167 C166 1.373 . S
N167 C169 1.340 . S
N168 C165 1.368 . S
N168 C169 1.321 . S
N168 Co171 2.135 . S
C169 N167 1.340 . S
C169 N168 1.321 . S
C169 H193 0.930 . S
H170 C165 0.931 . S
Co171 N168 2.135 . S
Co171 N174 2.121 . S
Co171 O179 2.055 . S
Co171 O182 2.039 . S
Co171 N185 2.140 . S
C172 O173 1.227 . S
C172 O182 1.265 . S
O173 C172 1.227 . S
N174 Co171 2.121 . S
N174 C176 1.375 . S
N174 C177 1.313 . S
C175 C176 1.338 . S
C175 N178 1.377 . S
C175 H195 0.930 . S
C176 N174 1.375 . S
C176 C175 1.338 . S
C176 H180 0.931 . S
C177 N174 1.313 . S
C177 N178 1.344 . S
C177 H181 0.930 . S
N178 C175 1.377 . S
N178 C177 1.344 . S
O179 Co171 2.055 . S
O179 C183 1.253 . S
H180 C176 0.931 . S
H181 C177 0.930 . S
O182 Co171 2.039 . S
O182 C172 1.265 . S
C183 O179 1.253 . S
C183 O184 1.227 . S
O184 C183 1.227 . S
N185 Co171 2.140 . S
N185 C188 1.346 . S
N185 C189 1.345 . S
C186 C187 1.387 . S
C186 C190 1.391 . S
C187 C186 1.387 . S
C187 C188 1.369 . S
C187 H196 0.929 . S
C188 N185 1.346 . S
C188 C187 1.369 . S
C188 H191 0.928 . S
C189 N185 1.345 . S
C189 C190 1.371 . S
C189 H192 0.931 . S
C190 C186 1.391 . S
C190 C189 1.371 . S
C190 H197 0.930 . S
H191 C188 0.928 . S
H192 C189 0.931 . S
H193 C169 0.930 . S
H194 C166 0.930 . S
H195 C175 0.930 . S
H196 C187 0.929 . S
H197 C190 0.930 . S
C198 C199 1.351 . S
C198 N201 1.368 . S
C198 H203 0.931 . S
C199 C198 1.351 . S
C199 N200 1.373 . S
C199 H227 0.930 . S
N200 C199 1.373 . S
N200 C202 1.340 . S
N201 C198 1.368 . S
N201 C202 1.321 . S
N201 Co204 2.135 . S
C202 N200 1.340 . S
C202 N201 1.321 . S
C202 H226 0.930 . S
H203 C198 0.931 . S
Co204 N201 2.135 . S
Co204 N207 2.121 . S
Co204 O212 2.055 . S
Co204 O215 2.039 . S
Co204 N218 2.140 . S
C205 O206 1.227 . S
C205 O215 1.265 . S
O206 C205 1.227 . S
N207 Co204 2.121 . S
N207 C209 1.375 . S
N207 C210 1.313 . S
C208 C209 1.338 . S
C208 N211 1.377 . S
C208 H228 0.930 . S
C209 N207 1.375 . S
C209 C208 1.338 . S
C209 H213 0.931 . S
C210 N207 1.313 . S
C210 N211 1.344 . S
C210 H214 0.930 . S
N211 C208 1.377 . S
N211 C210 1.344 . S
O212 Co204 2.055 . S
O212 C216 1.253 . S
H213 C209 0.931 . S
H214 C210 0.930 . S
O215 Co204 2.039 . S
O215 C205 1.265 . S
C216 O212 1.253 . S
C216 O217 1.227 . S
O217 C216 1.227 . S
N218 Co204 2.140 . S
N218 C221 1.346 . S
N218 C222 1.345 . S
C219 C220 1.387 . S
C219 C223 1.391 . S
C220 C219 1.387 . S
C220 C221 1.369 . S
C220 H229 0.929 . S
C221 N218 1.346 . S
C221 C220 1.369 . S
C221 H224 0.928 . S
C222 N218 1.345 . S
C222 C223 1.371 . S
C222 H225 0.931 . S
C223 C219 1.391 . S
C223 C222 1.371 . S
C223 H230 0.930 . S
H224 C221 0.928 . S
H225 C222 0.931 . S
H226 C202 0.930 . S
H227 C199 0.930 . S
H228 C208 0.930 . S
H229 C220 0.929 . S
H230 C223 0.930 . S
C231 C232 1.351 . S
C231 N234 1.368 . S
C231 H236 0.931 . S
C232 C231 1.351 . S
C232 N233 1.373 . S
C232 H260 0.930 . S
N233 C232 1.373 . S
N233 C235 1.340 . S
N234 C231 1.368 . S
N234 C235 1.321 . S
N234 Co237 2.135 . S
C235 N233 1.340 . S
C235 N234 1.321 . S
C235 H259 0.930 . S
H236 C231 0.931 . S
Co237 N234 2.135 . S
Co237 N240 2.121 . S
Co237 O245 2.055 . S
Co237 O248 2.039 . S
Co237 N251 2.140 . S
C238 O239 1.227 . S
C238 O248 1.265 . S
O239 C238 1.227 . S
N240 Co237 2.121 . S
N240 C242 1.375 . S
N240 C243 1.313 . S
C241 C242 1.338 . S
C241 N244 1.377 . S
C241 H261 0.930 . S
C242 N240 1.375 . S
C242 C241 1.338 . S
C242 H246 0.931 . S
C243 N240 1.313 . S
C243 N244 1.344 . S
C243 H247 0.930 . S
N244 C241 1.377 . S
N244 C243 1.344 . S
O245 Co237 2.055 . S
O245 C249 1.253 . S
H246 C242 0.931 . S
H247 C243 0.930 . S
O248 Co237 2.039 . S
O248 C238 1.265 . S
C249 O245 1.253 . S
C249 O250 1.227 . S
O250 C249 1.227 . S
N251 Co237 2.140 . S
N251 C254 1.346 . S
N251 C255 1.345 . S
C252 C253 1.387 . S
C252 C256 1.391 . S
C253 C252 1.387 . S
C253 C254 1.369 . S
C253 H262 0.929 . S
C254 N251 1.346 . S
C254 C253 1.369 . S
C254 H257 0.928 . S
C255 N251 1.345 . S
C255 C256 1.371 . S
C255 H258 0.931 . S
C256 C252 1.391 . S
C256 C255 1.371 . S
C256 H263 0.930 . S
H257 C254 0.928 . S
H258 C255 0.931 . S
H259 C235 0.930 . S
H260 C232 0.930 . S
H261 C241 0.930 . S
H262 C253 0.929 . S
H263 C256 0.930 . S
C264 C265 1.351 . S
C264 N267 1.368 . S
C264 H269 0.931 . S
C265 C264 1.351 . S
C265 N266 1.373 . S
C265 H293 0.930 . S
N266 C265 1.373 . S
N266 C268 1.340 . S
N267 C264 1.368 . S
N267 C268 1.321 . S
N267 Co270 2.135 . S
C268 N266 1.340 . S
C268 N267 1.321 . S
C268 H292 0.930 . S
H269 C264 0.931 . S
Co270 N267 2.135 . S
Co270 N273 2.121 . S
Co270 O278 2.055 . S
Co270 O281 2.039 . S
Co270 N284 2.140 . S
C271 O272 1.227 . S
C271 O281 1.265 . S
O272 C271 1.227 . S
N273 Co270 2.121 . S
N273 C275 1.375 . S
N273 C276 1.313 . S
C274 C275 1.338 . S
C274 N277 1.377 . S
C274 H294 0.930 . S
C275 N273 1.375 . S
C275 C274 1.338 . S
C275 H279 0.931 . S
C276 N273 1.313 . S
C276 N277 1.344 . S
C276 H280 0.930 . S
N277 C274 1.377 . S
N277 C276 1.344 . S
O278 Co270 2.055 . S
O278 C282 1.253 . S
H279 C275 0.931 . S
H280 C276 0.930 . S
O281 Co270 2.039 . S
O281 C271 1.265 . S
C282 O278 1.253 . S
C282 O283 1.227 . S
O283 C282 1.227 . S
N284 Co270 2.140 . S
N284 C287 1.346 . S
N284 C288 1.345 . S
C285 C286 1.387 . S
C285 C289 1.391 . S
C286 C285 1.387 . S
C286 C287 1.369 . S
C286 H295 0.929 . S
C287 N284 1.346 . S
C287 C286 1.369 . S
C287 H290 0.928 . S
C288 N284 1.345 . S
C288 C289 1.371 . S
C288 H291 0.931 . S
C289 C285 1.391 . S
C289 C288 1.371 . S
C289 H296 0.930 . S
H290 C287 0.928 . S
H291 C288 0.931 . S
H292 C268 0.930 . S
H293 C265 0.930 . S
H294 C274 0.930 . S
H295 C286 0.929 . S
H296 C289 0.930 . S
C297 C298 1.351 . S
C297 N300 1.368 . S
C297 H302 0.931 . S
C298 C297 1.351 . S
C298 N299 1.373 . S
C298 H326 0.930 . S
N299 C298 1.373 . S
N299 C301 1.340 . S
N300 C297 1.368 . S
N300 C301 1.321 . S
N300 Co303 2.135 . S
C301 N299 1.340 . S
C301 N300 1.321 . S
C301 H325 0.930 . S
H302 C297 0.931 . S
Co303 N300 2.135 . S
Co303 N306 2.121 . S
Co303 O311 2.055 . S
Co303 O314 2.039 . S
Co303 N317 2.140 . S
C304 O305 1.227 . S
C304 O314 1.265 . S
O305 C304 1.227 . S
N306 Co303 2.121 . S
N306 C308 1.375 . S
N306 C309 1.313 . S
C307 C308 1.338 . S
C307 N310 1.377 . S
C307 H327 0.930 . S
C308 N306 1.375 . S
C308 C307 1.338 . S
C308 H312 0.931 . S
C309 N306 1.313 . S
C309 N310 1.344 . S
C309 H313 0.930 . S
N310 C307 1.377 . S
N310 C309 1.344 . S
O311 Co303 2.055 . S
O311 C315 1.253 . S
H312 C308 0.931 . S
H313 C309 0.930 . S
O314 Co303 2.039 . S
O314 C304 1.265 . S
C315 O311 1.253 . S
C315 O316 1.227 . S
O316 C315 1.227 . S
N317 Co303 2.140 . S
N317 C320 1.346 . S
N317 C321 1.345 . S
C318 C319 1.387 . S
C318 C322 1.391 . S
C319 C318 1.387 . S
C319 C320 1.369 . S
C319 H328 0.929 . S
C320 N317 1.346 . S
C320 C319 1.369 . S
C320 H323 0.928 . S
C321 N317 1.345 . S
C321 C322 1.371 . S
C321 H324 0.931 . S
C322 C318 1.391 . S
C322 C321 1.371 . S
C322 H329 0.930 . S
H323 C320 0.928 . S
H324 C321 0.931 . S
H325 C301 0.930 . S
H326 C298 0.930 . S
H327 C307 0.930 . S
H328 C319 0.929 . S
H329 C322 0.930 . S
C330 C331 1.351 . S
C330 N333 1.368 . S
C330 H335 0.931 . S
C331 C330 1.351 . S
C331 N332 1.373 . S
C331 H359 0.930 . S
N332 C331 1.373 . S
N332 C334 1.340 . S
N333 C330 1.368 . S
N333 C334 1.321 . S
N333 Co336 2.135 . S
C334 N332 1.340 . S
C334 N333 1.321 . S
C334 H358 0.930 . S
H335 C330 0.931 . S
Co336 N333 2.135 . S
Co336 N339 2.121 . S
Co336 O344 2.055 . S
Co336 O347 2.039 . S
Co336 N350 2.140 . S
C337 O338 1.227 . S
C337 O347 1.265 . S
O338 C337 1.227 . S
N339 Co336 2.121 . S
N339 C341 1.375 . S
N339 C342 1.313 . S
C340 C341 1.338 . S
C340 N343 1.377 . S
C340 H360 0.930 . S
C341 N339 1.375 . S
C341 C340 1.338 . S
C341 H345 0.931 . S
C342 N339 1.313 . S
C342 N343 1.344 . S
C342 H346 0.930 . S
N343 C340 1.377 . S
N343 C342 1.344 . S
O344 Co336 2.055 . S
O344 C348 1.253 . S
H345 C341 0.931 . S
H346 C342 0.930 . S
O347 Co336 2.039 . S
O347 C337 1.265 . S
C348 O344 1.253 . S
C348 O349 1.227 . S
O349 C348 1.227 . S
N350 Co336 2.140 . S
N350 C353 1.346 . S
N350 C354 1.345 . S
C351 C352 1.387 . S
C351 C355 1.391 . S
C352 C351 1.387 . S
C352 C353 1.369 . S
C352 H361 0.929 . S
C353 N350 1.346 . S
C353 C352 1.369 . S
C353 H356 0.928 . S
C354 N350 1.345 . S
C354 C355 1.371 . S
C354 H357 0.931 . S
C355 C351 1.391 . S
C355 C354 1.371 . S
C355 H362 0.930 . S
H356 C353 0.928 . S
H357 C354 0.931 . S
H358 C334 0.930 . S
H359 C331 0.930 . S
H360 C340 0.930 . S
H361 C352 0.929 . S
H362 C355 0.930 . S
C363 C364 1.351 . S
C363 N366 1.368 . S
C363 H368 0.931 . S
C364 C363 1.351 . S
C364 N365 1.373 . S
C364 H392 0.930 . S
N365 C364 1.373 . S
N365 C367 1.340 . S
N366 C363 1.368 . S
N366 C367 1.321 . S
N366 Co369 2.135 . S
C367 N365 1.340 . S
C367 N366 1.321 . S
C367 H391 0.930 . S
H368 C363 0.931 . S
Co369 N366 2.135 . S
Co369 N372 2.121 . S
Co369 O377 2.055 . S
Co369 O380 2.039 . S
Co369 N383 2.140 . S
C370 O371 1.227 . S
C370 O380 1.265 . S
O371 C370 1.227 . S
N372 Co369 2.121 . S
N372 C374 1.375 . S
N372 C375 1.313 . S
C373 C374 1.338 . S
C373 N376 1.377 . S
C373 H393 0.930 . S
C374 N372 1.375 . S
C374 C373 1.338 . S
C374 H378 0.931 . S
C375 N372 1.313 . S
C375 N376 1.344 . S
C375 H379 0.930 . S
N376 C373 1.377 . S
N376 C375 1.344 . S
O377 Co369 2.055 . S
O377 C381 1.253 . S
H378 C374 0.931 . S
H379 C375 0.930 . S
O380 Co369 2.039 . S
O380 C370 1.265 . S
C381 O377 1.253 . S
C381 O382 1.227 . S
O382 C381 1.227 . S
N383 Co369 2.140 . S
N383 C386 1.346 . S
N383 C387 1.345 . S
C384 C385 1.387 . S
C384 C388 1.391 . S
C385 C384 1.387 . S
C385 C386 1.369 . S
C385 H394 0.929 . S
C386 N383 1.346 . S
C386 C385 1.369 . S
C386 H389 0.928 . S
C387 N383 1.345 . S
C387 C388 1.371 . S
C387 H390 0.931 . S
C388 C384 1.391 . S
C388 C387 1.371 . S
C388 H395 0.930 . S
H389 C386 0.928 . S
H390 C387 0.931 . S
H391 C367 0.930 . S
H392 C364 0.930 . S
H393 C373 0.930 . S
H394 C385 0.929 . S
H395 C388 0.930 . S
C396 C397 1.351 . S
C396 N399 1.368 . S
C396 H401 0.931 . S
C397 C396 1.351 . S
C397 N398 1.373 . S
C397 H425 0.930 . S
N398 C397 1.373 . S
N398 C400 1.340 . S
N399 C396 1.368 . S
N399 C400 1.321 . S
N399 Co402 2.135 . S
C400 N398 1.340 . S
C400 N399 1.321 . S
C400 H424 0.930 . S
H401 C396 0.931 . S
Co402 N399 2.135 . S
Co402 N405 2.121 . S
Co402 O410 2.055 . S
Co402 O413 2.039 . S
Co402 N416 2.140 . S
C403 O404 1.227 . S
C403 O413 1.265 . S
O404 C403 1.227 . S
N405 Co402 2.121 . S
N405 C407 1.375 . S
N405 C408 1.313 . S
C406 C407 1.338 . S
C406 N409 1.377 . S
C406 H426 0.930 . S
C407 N405 1.375 . S
C407 C406 1.338 . S
C407 H411 0.931 . S
C408 N405 1.313 . S
C408 N409 1.344 . S
C408 H412 0.930 . S
N409 C406 1.377 . S
N409 C408 1.344 . S
O410 Co402 2.055 . S
O410 C414 1.253 . S
H411 C407 0.931 . S
H412 C408 0.930 . S
O413 Co402 2.039 . S
O413 C403 1.265 . S
C414 O410 1.253 . S
C414 O415 1.227 . S
O415 C414 1.227 . S
N416 Co402 2.140 . S
N416 C419 1.346 . S
N416 C420 1.345 . S
C417 C418 1.387 . S
C417 C421 1.391 . S
C418 C417 1.387 . S
C418 C419 1.369 . S
C418 H427 0.929 . S
C419 N416 1.346 . S
C419 C418 1.369 . S
C419 H422 0.928 . S
C420 N416 1.345 . S
C420 C421 1.371 . S
C420 H423 0.931 . S
C421 C417 1.391 . S
C421 C420 1.371 . S
C421 H428 0.930 . S
H422 C419 0.928 . S
H423 C420 0.931 . S
H424 C400 0.930 . S
H425 C397 0.930 . S
H426 C406 0.930 . S
H427 C418 0.929 . S
H428 C421 0.930 . S
C429 C430 1.351 . S
C429 N432 1.368 . S
C429 H434 0.931 . S
C430 C429 1.351 . S
C430 N431 1.373 . S
C430 H458 0.930 . S
N431 C430 1.373 . S
N431 C433 1.340 . S
N432 C429 1.368 . S
N432 C433 1.321 . S
N432 Co435 2.135 . S
C433 N431 1.340 . S
C433 N432 1.321 . S
C433 H457 0.930 . S
H434 C429 0.931 . S
Co435 N432 2.135 . S
Co435 N438 2.121 . S
Co435 O443 2.055 . S
Co435 O446 2.039 . S
Co435 N449 2.140 . S
C436 O437 1.227 . S
C436 O446 1.265 . S
O437 C436 1.227 . S
N438 Co435 2.121 . S
N438 C440 1.375 . S
N438 C441 1.313 . S
C439 C440 1.338 . S
C439 N442 1.377 . S
C439 H459 0.930 . S
C440 N438 1.375 . S
C440 C439 1.338 . S
C440 H444 0.931 . S
C441 N438 1.313 . S
C441 N442 1.344 . S
C441 H445 0.930 . S
N442 C439 1.377 . S
N442 C441 1.344 . S
O443 Co435 2.055 . S
O443 C447 1.253 . S
H444 C440 0.931 . S
H445 C441 0.930 . S
O446 Co435 2.039 . S
O446 C436 1.265 . S
C447 O443 1.253 . S
C447 O448 1.227 . S
O448 C447 1.227 . S
N449 Co435 2.140 . S
N449 C452 1.346 . S
N449 C453 1.345 . S
C450 C451 1.387 . S
C450 C454 1.391 . S
C451 C450 1.387 . S
C451 C452 1.369 . S
C451 H460 0.929 . S
C452 N449 1.346 . S
C452 C451 1.369 . S
C452 H455 0.928 . S
C453 N449 1.345 . S
C453 C454 1.371 . S
C453 H456 0.931 . S
C454 C450 1.391 . S
C454 C453 1.371 . S
C454 H461 0.930 . S
H455 C452 0.928 . S
H456 C453 0.931 . S
H457 C433 0.930 . S
H458 C430 0.930 . S
H459 C439 0.930 . S
H460 C451 0.929 . S
H461 C454 0.930 . S
C462 C463 1.351 . S
C462 N465 1.368 . S
C462 H467 0.931 . S
C463 C462 1.351 . S
C463 N464 1.373 . S
C463 H491 0.930 . S
N464 C463 1.373 . S
N464 C466 1.340 . S
N465 C462 1.368 . S
N465 C466 1.321 . S
N465 Co468 2.135 . S
C466 N464 1.340 . S
C466 N465 1.321 . S
C466 H490 0.930 . S
H467 C462 0.931 . S
Co468 N465 2.135 . S
Co468 N471 2.121 . S
Co468 O476 2.055 . S
Co468 O479 2.039 . S
Co468 N482 2.140 . S
C469 O470 1.227 . S
C469 O479 1.265 . S
O470 C469 1.227 . S
N471 Co468 2.121 . S
N471 C473 1.375 . S
N471 C474 1.313 . S
C472 C473 1.338 . S
C472 N475 1.377 . S
C472 H492 0.930 . S
C473 N471 1.375 . S
C473 C472 1.338 . S
C473 H477 0.931 . S
C474 N471 1.313 . S
C474 N475 1.344 . S
C474 H478 0.930 . S
N475 C472 1.377 . S
N475 C474 1.344 . S
O476 Co468 2.055 . S
O476 C480 1.253 . S
H477 C473 0.931 . S
H478 C474 0.930 . S
O479 Co468 2.039 . S
O479 C469 1.265 . S
C480 O476 1.253 . S
C480 O481 1.227 . S
O481 C480 1.227 . S
N482 Co468 2.140 . S
N482 C485 1.346 . S
N482 C486 1.345 . S
C483 C484 1.387 . S
C483 C487 1.391 . S
C484 C483 1.387 . S
C484 C485 1.369 . S
C484 H493 0.929 . S
C485 N482 1.346 . S
C485 C484 1.369 . S
C485 H488 0.928 . S
C486 N482 1.345 . S
C486 C487 1.371 . S
C486 H489 0.931 . S
C487 C483 1.391 . S
C487 C486 1.371 . S
C487 H494 0.930 . S
H488 C485 0.928 . S
H489 C486 0.931 . S
H490 C466 0.930 . S
H491 C463 0.930 . S
H492 C472 0.930 . S
H493 C484 0.929 . S
H494 C487 0.930 . S
C495 C496 1.351 . S
C495 N498 1.368 . S
C495 H500 0.931 . S
C496 C495 1.351 . S
C496 N497 1.373 . S
C496 H524 0.930 . S
N497 C496 1.373 . S
N497 C499 1.340 . S
N498 C495 1.368 . S
N498 C499 1.321 . S
N498 Co501 2.135 . S
C499 N497 1.340 . S
C499 N498 1.321 . S
C499 H523 0.930 . S
H500 C495 0.931 . S
Co501 N498 2.135 . S
Co501 N504 2.121 . S
Co501 O509 2.055 . S
Co501 O512 2.039 . S
Co501 N515 2.140 . S
C502 O503 1.227 . S
C502 O512 1.265 . S
O503 C502 1.227 . S
N504 Co501 2.121 . S
N504 C506 1.375 . S
N504 C507 1.313 . S
C505 C506 1.338 . S
C505 N508 1.377 . S
C505 H525 0.930 . S
C506 N504 1.375 . S
C506 C505 1.338 . S
C506 H510 0.931 . S
C507 N504 1.313 . S
C507 N508 1.344 . S
C507 H511 0.930 . S
N508 C505 1.377 . S
N508 C507 1.344 . S
O509 Co501 2.055 . S
O509 C513 1.253 . S
H510 C506 0.931 . S
H511 C507 0.930 . S
O512 Co501 2.039 . S
O512 C502 1.265 . S
C513 O509 1.253 . S
C513 O514 1.227 . S
O514 C513 1.227 . S
N515 Co501 2.140 . S
N515 C518 1.346 . S
N515 C519 1.345 . S
C516 C517 1.387 . S
C516 C520 1.391 . S
C517 C516 1.387 . S
C517 C518 1.369 . S
C517 H526 0.929 . S
C518 N515 1.346 . S
C518 C517 1.369 . S
C518 H521 0.928 . S
C519 N515 1.345 . S
C519 C520 1.371 . S
C519 H522 0.931 . S
C520 C516 1.391 . S
C520 C519 1.371 . S
C520 H527 0.930 . S
H521 C518 0.928 . S
H522 C519 0.931 . S
H523 C499 0.930 . S
H524 C496 0.930 . S
H525 C505 0.930 . S
H526 C517 0.929 . S
H527 C520 0.930 . S
H528 C536 0.929 . S
H529 C538 0.930 . S
H530 C540 0.930 . S
H531 C543 0.929 . S
H532 C546 0.930 . S
H533 C548 0.960 . S
H534 C548 0.960 . S
H535 C548 0.960 . S
C536 H528 0.929 . S
C536 C537 1.377 . S
C536 C538 1.384 . S
C537 C536 1.377 . S
C537 C543 1.390 . S
C538 H529 0.930 . S
C538 C536 1.384 . S
C538 C539 1.372 . S
C539 C538 1.372 . S
C539 C540 1.400 . S
C539 C544 1.490 . S
C540 H530 0.930 . S
C540 C539 1.400 . S
C540 C543 1.386 . S
H541 C557 0.930 . S
H542 C558 0.931 . S
C543 H531 0.929 . S
C543 C537 1.390 . S
C543 C540 1.386 . S
C544 C539 1.490 . S
C544 C546 1.395 . S
C544 C547 1.403 . S
H545 C551 0.930 . S
C546 H532 0.930 . S
C546 C544 1.395 . S
C546 C549 1.403 . S
C547 C544 1.403 . S
C547 C548 1.524 . S
C547 C551 1.400 . S
C548 H533 0.960 . S
C548 H534 0.960 . S
C548 H535 0.960 . S
C548 C547 1.524 . S
C549 C546 1.403 . S
C549 C550 1.392 . S
C549 C553 1.495 . S
C550 C549 1.392 . S
C550 C551 1.385 . S
C550 C552 1.478 . S
C551 H545 0.930 . S
C551 C547 1.400 . S
C551 C550 1.385 . S
C552 C550 1.478 . S
C552 C554 1.381 . S
C552 C558 1.383 . S
C553 C549 1.495 . S
C553 H559 0.959 . S
C553 H560 0.961 . S
C553 H561 0.960 . S
C554 C552 1.381 . S
C554 C555 1.394 . S
C554 H562 0.930 . S
C555 C554 1.394 . S
C555 C556 1.383 . S
C555 H563 0.929 . S
C556 C555 1.383 . S
C556 C557 1.377 . S
C557 H541 0.930 . S
C557 C556 1.377 . S
C557 C558 1.379 . S
C558 H542 0.931 . S
C558 C552 1.383 . S
C558 C557 1.379 . S
H559 C553 0.959 . S
H560 C553 0.961 . S
H561 C553 0.960 . S
H562 C554 0.930 . S
H563 C555 0.929 . S
H564 C572 0.929 1_455 S
H565 C574 0.930 . S
H566 C576 0.930 . S
H567 C579 0.929 1_455 S
H568 C582 0.930 . S
H569 C584 0.960 . S
H570 C584 0.960 . S
H571 C584 0.960 . S
C572 H564 0.929 1_655 S
C572 C573 1.377 1_655 S
C572 C574 1.384 . S
C573 C572 1.377 1_455 S
C573 C579 1.390 1_455 S
C574 H565 0.930 . S
C574 C572 1.384 . S
C574 C575 1.372 . S
C575 C574 1.372 . S
C575 C576 1.400 . S
C575 C580 1.490 . S
C576 H566 0.930 . S
C576 C575 1.400 . S
C576 C579 1.386 . S
H577 C593 0.930 . S
H578 C594 0.931 . S
C579 H567 0.929 1_655 S
C579 C573 1.390 1_655 S
C579 C576 1.386 . S
C580 C575 1.490 . S
C580 C582 1.395 . S
C580 C583 1.403 . S
H581 C587 0.930 . S
C582 H568 0.930 . S
C582 C580 1.395 . S
C582 C585 1.403 . S
C583 C580 1.403 . S
C583 C584 1.524 . S
C583 C587 1.400 . S
C584 H569 0.960 . S
C584 H570 0.960 . S
C584 H571 0.960 . S
C584 C583 1.524 . S
C585 C582 1.403 . S
C585 C586 1.392 . S
C585 C589 1.495 . S
C586 C585 1.392 . S
C586 C587 1.385 . S
C586 C588 1.478 . S
C587 H581 0.930 . S
C587 C583 1.400 . S
C587 C586 1.385 . S
C588 C586 1.478 . S
C588 C590 1.381 . S
C588 C594 1.383 . S
C589 C585 1.495 . S
C589 H595 0.959 . S
C589 H596 0.961 . S
C589 H597 0.960 . S
C590 C588 1.381 . S
C590 C591 1.394 . S
C590 H598 0.930 . S
C591 C590 1.394 . S
C591 C592 1.383 . S
C591 H599 0.929 . S
C592 C591 1.383 . S
C592 C593 1.377 . S
C593 H577 0.930 . S
C593 C592 1.377 . S
C593 C594 1.379 . S
C594 H578 0.931 . S
C594 C588 1.383 . S
C594 C593 1.379 . S
H595 C589 0.959 . S
H596 C589 0.961 . S
H597 C589 0.960 . S
H598 C590 0.930 . S
H599 C591 0.929 . S
H600 C608 0.929 . S
H601 C610 0.930 . S
H602 C612 0.930 . S
H603 C615 0.929 . S
H604 C618 0.930 . S
H605 C620 0.960 . S
H606 C620 0.960 . S
H607 C620 0.960 . S
C608 H600 0.929 . S
C608 C609 1.377 . S
C608 C610 1.384 . S
C609 C608 1.377 . S
C609 C615 1.390 . S
C610 H601 0.930 . S
C610 C608 1.384 . S
C610 C611 1.372 . S
C611 C610 1.372 . S
C611 C612 1.400 . S
C611 C616 1.490 . S
C612 H602 0.930 . S
C612 C611 1.400 . S
C612 C615 1.386 . S
H613 C629 0.930 . S
H614 C630 0.931 . S
C615 H603 0.929 . S
C615 C609 1.390 . S
C615 C612 1.386 . S
C616 C611 1.490 . S
C616 C618 1.395 . S
C616 C619 1.403 . S
H617 C623 0.930 . S
C618 H604 0.930 . S
C618 C616 1.395 . S
C618 C621 1.403 . S
C619 C616 1.403 . S
C619 C620 1.524 . S
C619 C623 1.400 . S
C620 H605 0.960 . S
C620 H606 0.960 . S
C620 H607 0.960 . S
C620 C619 1.524 . S
C621 C618 1.403 . S
C621 C622 1.392 . S
C621 C625 1.495 . S
C622 C621 1.392 . S
C622 C623 1.385 . S
C622 C624 1.478 . S
C623 H617 0.930 . S
C623 C619 1.400 . S
C623 C622 1.385 . S
C624 C622 1.478 . S
C624 C626 1.381 . S
C624 C630 1.383 . S
C625 C621 1.495 . S
C625 H631 0.959 . S
C625 H632 0.961 . S
C625 H633 0.960 . S
C626 C624 1.381 . S
C626 C627 1.394 . S
C626 H634 0.930 . S
C627 C626 1.394 . S
C627 C628 1.383 . S
C627 H635 0.929 . S
C628 C627 1.383 . S
C628 C629 1.377 . S
C629 H613 0.930 . S
C629 C628 1.377 . S
C629 C630 1.379 . S
C630 H614 0.931 . S
C630 C624 1.383 . S
C630 C629 1.379 . S
H631 C625 0.959 . S
H632 C625 0.961 . S
H633 C625 0.960 . S
H634 C626 0.930 . S
H635 C627 0.929 . S
H636 C644 0.929 . S
H637 C646 0.930 . S
H638 C648 0.930 . S
H639 C651 0.929 1_455 S
H640 C654 0.930 . S
H641 C656 0.960 . S
H642 C656 0.960 . S
H643 C656 0.960 . S
C644 H636 0.929 . S
C644 C645 1.377 1_655 S
C644 C646 1.384 . S
C645 C644 1.377 1_455 S
C645 C651 1.390 1_455 S
C646 H637 0.930 . S
C646 C644 1.384 . S
C646 C647 1.372 . S
C647 C646 1.372 . S
C647 C648 1.400 . S
C647 C652 1.490 . S
C648 H638 0.930 . S
C648 C647 1.400 . S
C648 C651 1.386 . S
H649 C665 0.930 . S
H650 C666 0.931 . S
C651 H639 0.929 1_655 S
C651 C645 1.390 1_655 S
C651 C648 1.386 . S
C652 C647 1.490 . S
C652 C654 1.395 . S
C652 C655 1.403 . S
H653 C659 0.930 . S
C654 H640 0.930 . S
C654 C652 1.395 . S
C654 C657 1.403 . S
C655 C652 1.403 . S
C655 C656 1.524 . S
C655 C659 1.400 . S
C656 H641 0.960 . S
C656 H642 0.960 . S
C656 H643 0.960 . S
C656 C655 1.524 . S
C657 C654 1.403 . S
C657 C658 1.392 . S
C657 C661 1.495 . S
C658 C657 1.392 . S
C658 C659 1.385 . S
C658 C660 1.478 . S
C659 H653 0.930 . S
C659 C655 1.400 . S
C659 C658 1.385 . S
C660 C658 1.478 . S
C660 C662 1.381 . S
C660 C666 1.383 . S
C661 C657 1.495 . S
C661 H667 0.959 . S
C661 H668 0.961 . S
C661 H669 0.960 . S
C662 C660 1.381 . S
C662 C663 1.394 . S
C662 H670 0.930 . S
C663 C662 1.394 . S
C663 C664 1.383 . S
C663 H671 0.929 . S
C664 C663 1.383 . S
C664 C665 1.377 . S
C665 H649 0.930 . S
C665 C664 1.377 . S
C665 C666 1.379 . S
C666 H650 0.931 . S
C666 C660 1.383 . S
C666 C665 1.379 . S
H667 C661 0.959 . S
H668 C661 0.961 . S
H669 C661 0.960 . S
H670 C662 0.930 . S
H671 C663 0.929 . S
H672 C680 0.929 . S
H673 C682 0.930 . S
H674 C684 0.930 . S
H675 C687 0.929 . S
H676 C690 0.930 . S
H677 C692 0.960 . S
H678 C692 0.960 . S
H679 C692 0.960 . S
C680 H672 0.929 . S
C680 C681 1.377 . S
C680 C682 1.384 . S
C681 C680 1.377 . S
C681 C687 1.390 . S
C682 H673 0.930 . S
C682 C680 1.384 . S
C682 C683 1.372 . S
C683 C682 1.372 . S
C683 C684 1.400 . S
C683 C688 1.490 . S
C684 H674 0.930 . S
C684 C683 1.400 . S
C684 C687 1.386 . S
H685 C701 0.930 . S
H686 C702 0.931 . S
C687 H675 0.929 . S
C687 C681 1.390 . S
C687 C684 1.386 . S
C688 C683 1.490 . S
C688 C690 1.395 . S
C688 C691 1.403 . S
H689 C695 0.930 . S
C690 H676 0.930 . S
C690 C688 1.395 . S
C690 C693 1.403 . S
C691 C688 1.403 . S
C691 C692 1.524 . S
C691 C695 1.400 . S
C692 H677 0.960 . S
C692 H678 0.960 . S
C692 H679 0.960 . S
C692 C691 1.524 . S
C693 C690 1.403 . S
C693 C694 1.392 . S
C693 C697 1.495 . S
C694 C693 1.392 . S
C694 C695 1.385 . S
C694 C696 1.478 . S
C695 H689 0.930 . S
C695 C691 1.400 . S
C695 C694 1.385 . S
C696 C694 1.478 . S
C696 C698 1.381 . S
C696 C702 1.383 . S
C697 C693 1.495 . S
C697 H703 0.959 . S
C697 H704 0.961 . S
C697 H705 0.960 . S
C698 C696 1.381 . S
C698 C699 1.394 . S
C698 H706 0.930 . S
C699 C698 1.394 . S
C699 C700 1.383 . S
C699 H707 0.929 . S
C700 C699 1.383 . S
C700 C701 1.377 . S
C701 H685 0.930 . S
C701 C700 1.377 . S
C701 C702 1.379 . S
C702 H686 0.931 . S
C702 C696 1.383 . S
C702 C701 1.379 . S
H703 C697 0.959 . S
H704 C697 0.961 . S
H705 C697 0.960 . S
H706 C698 0.930 . S
H707 C699 0.929 . S
H708 C716 0.929 1_655 S
H709 C718 0.930 . S
H710 C720 0.930 . S
H711 C723 0.929 1_655 S
H712 C726 0.930 . S
H713 C728 0.960 . S
H714 C728 0.960 . S
H715 C728 0.960 . S
C716 H708 0.929 1_455 S
C716 C717 1.377 1_455 S
C716 C718 1.384 . S
C717 C716 1.377 1_655 S
C717 C723 1.390 1_655 S
C718 H709 0.930 . S
C718 C716 1.384 . S
C718 C719 1.372 . S
C719 C718 1.372 . S
C719 C720 1.400 . S
C719 C724 1.490 . S
C720 H710 0.930 . S
C720 C719 1.400 . S
C720 C723 1.386 . S
H721 C737 0.930 . S
H722 C738 0.931 . S
C723 H711 0.929 1_455 S
C723 C717 1.390 1_455 S
C723 C720 1.386 . S
C724 C719 1.490 . S
C724 C726 1.395 . S
C724 C727 1.403 . S
H725 C731 0.930 . S
C726 H712 0.930 . S
C726 C724 1.395 . S
C726 C729 1.403 . S
C727 C724 1.403 . S
C727 C728 1.524 . S
C727 C731 1.400 . S
C728 H713 0.960 . S
C728 H714 0.960 . S
C728 H715 0.960 . S
C728 C727 1.524 . S
C729 C726 1.403 . S
C729 C730 1.392 . S
C729 C733 1.495 . S
C730 C729 1.392 . S
C730 C731 1.385 . S
C730 C732 1.478 . S
C731 H725 0.930 . S
C731 C727 1.400 . S
C731 C730 1.385 . S
C732 C730 1.478 . S
C732 C734 1.381 . S
C732 C738 1.383 . S
C733 C729 1.495 . S
C733 H739 0.959 . S
C733 H740 0.961 . S
C733 H741 0.960 . S
C734 C732 1.381 . S
C734 C735 1.394 . S
C734 H742 0.930 . S
C735 C734 1.394 . S
C735 C736 1.383 . S
C735 H743 0.929 . S
C736 C735 1.383 . S
C736 C737 1.377 . S
C737 H721 0.930 . S
C737 C736 1.377 . S
C737 C738 1.379 . S
C738 H722 0.931 . S
C738 C732 1.383 . S
C738 C737 1.379 . S
H739 C733 0.959 . S
H740 C733 0.961 . S
H741 C733 0.960 . S
H742 C734 0.930 . S
H743 C735 0.929 . S
H744 C752 0.929 . S
H745 C754 0.930 . S
H746 C756 0.930 . S
H747 C759 0.929 . S
H748 C762 0.930 . S
H749 C764 0.960 . S
H750 C764 0.960 . S
H751 C764 0.960 . S
C752 H744 0.929 . S
C752 C753 1.377 . S
C752 C754 1.384 . S
C753 C752 1.377 . S
C753 C759 1.390 . S
C754 H745 0.930 . S
C754 C752 1.384 . S
C754 C755 1.372 . S
C755 C754 1.372 . S
C755 C756 1.400 . S
C755 C760 1.490 . S
C756 H746 0.930 . S
C756 C755 1.400 . S
C756 C759 1.386 . S
H757 C773 0.930 . S
H758 C774 0.931 . S
C759 H747 0.929 . S
C759 C753 1.390 . S
C759 C756 1.386 . S
C760 C755 1.490 . S
C760 C762 1.395 . S
C760 C763 1.403 . S
H761 C767 0.930 . S
C762 H748 0.930 . S
C762 C760 1.395 . S
C762 C765 1.403 . S
C763 C760 1.403 . S
C763 C764 1.524 . S
C763 C767 1.400 . S
C764 H749 0.960 . S
C764 H750 0.960 . S
C764 H751 0.960 . S
C764 C763 1.524 . S
C765 C762 1.403 . S
C765 C766 1.392 . S
C765 C769 1.495 . S
C766 C765 1.392 . S
C766 C767 1.385 . S
C766 C768 1.478 . S
C767 H761 0.930 . S
C767 C763 1.400 . S
C767 C766 1.385 . S
C768 C766 1.478 . S
C768 C770 1.381 . S
C768 C774 1.383 . S
C769 C765 1.495 . S
C769 H775 0.959 . S
C769 H776 0.961 . S
C769 H777 0.960 . S
C770 C768 1.381 . S
C770 C771 1.394 . S
C770 H778 0.930 . S
C771 C770 1.394 . S
C771 C772 1.383 . S
C771 H779 0.929 . S
C772 C771 1.383 . S
C772 C773 1.377 . S
C773 H757 0.930 . S
C773 C772 1.377 . S
C773 C774 1.379 . S
C774 H758 0.931 . S
C774 C768 1.383 . S
C774 C773 1.379 . S
H775 C769 0.959 . S
H776 C769 0.961 . S
H777 C769 0.960 . S
H778 C770 0.930 . S
H779 C771 0.929 . S
H780 C788 0.929 1_655 S
H781 C790 0.930 . S
H782 C792 0.930 . S
H783 C795 0.929 1_655 S
H784 C798 0.930 . S
H785 C800 0.960 . S
H786 C800 0.960 . S
H787 C800 0.960 . S
C788 H780 0.929 1_455 S
C788 C789 1.377 1_455 S
C788 C790 1.384 . S
C789 C788 1.377 1_655 S
C789 C795 1.390 1_655 S
C790 H781 0.930 . S
C790 C788 1.384 . S
C790 C791 1.372 . S
C791 C790 1.372 . S
C791 C792 1.400 . S
C791 C796 1.490 . S
C792 H782 0.930 . S
C792 C791 1.400 . S
C792 C795 1.386 . S
H793 C809 0.930 . S
H794 C810 0.931 . S
C795 H783 0.929 1_455 S
C795 C789 1.390 1_455 S
C795 C792 1.386 . S
C796 C791 1.490 . S
C796 C798 1.395 . S
C796 C799 1.403 . S
H797 C803 0.930 . S
C798 H784 0.930 . S
C798 C796 1.395 . S
C798 C801 1.403 . S
C799 C796 1.403 . S
C799 C800 1.524 . S
C799 C803 1.400 . S
C800 H785 0.960 . S
C800 H786 0.960 . S
C800 H787 0.960 . S
C800 C799 1.524 . S
C801 C798 1.403 . S
C801 C802 1.392 . S
C801 C805 1.495 . S
C802 C801 1.392 . S
C802 C803 1.385 . S
C802 C804 1.478 . S
C803 H797 0.930 . S
C803 C799 1.400 . S
C803 C802 1.385 . S
C804 C802 1.478 . S
C804 C806 1.381 . S
C804 C810 1.383 . S
C805 C801 1.495 . S
C805 H811 0.959 . S
C805 H812 0.961 . S
C805 H813 0.960 . S
C806 C804 1.381 . S
C806 C807 1.394 . S
C806 H814 0.930 . S
C807 C806 1.394 . S
C807 C808 1.383 . S
C807 H815 0.929 . S
C808 C807 1.383 . S
C808 C809 1.377 . S
C809 H793 0.930 . S
C809 C808 1.377 . S
C809 C810 1.379 . S
C810 H794 0.931 . S
C810 C804 1.383 . S
C810 C809 1.379 . S
H811 C805 0.959 . S
H812 C805 0.961 . S
H813 C805 0.960 . S
H814 C806 0.930 . S
H815 C807 0.929 . S
H816 C824 0.929 . S
H817 C826 0.930 . S
H818 C828 0.930 . S
H819 C831 0.929 . S
H820 C834 0.930 . S
H821 C836 0.960 . S
H822 C836 0.960 . S
H823 C836 0.960 . S
C824 H816 0.929 . S
C824 C825 1.377 . S
C824 C826 1.384 . S
C825 C824 1.377 . S
C825 C831 1.390 . S
C826 H817 0.930 . S
C826 C824 1.384 . S
C826 C827 1.372 . S
C827 C826 1.372 . S
C827 C828 1.400 . S
C827 C832 1.490 . S
C828 H818 0.930 . S
C828 C827 1.400 . S
C828 C831 1.386 . S
H829 C845 0.930 . S
H830 C846 0.931 . S
C831 H819 0.929 . S
C831 C825 1.390 . S
C831 C828 1.386 . S
C832 C827 1.490 . S
C832 C834 1.395 . S
C832 C835 1.403 . S
H833 C839 0.930 . S
C834 H820 0.930 . S
C834 C832 1.395 . S
C834 C837 1.403 . S
C835 C832 1.403 . S
C835 C836 1.524 . S
C835 C839 1.400 . S
C836 H821 0.960 . S
C836 H822 0.960 . S
C836 H823 0.960 . S
C836 C835 1.524 . S
C837 C834 1.403 . S
C837 C838 1.392 . S
C837 C841 1.495 . S
C838 C837 1.392 . S
C838 C839 1.385 . S
C838 C840 1.478 . S
C839 H833 0.930 . S
C839 C835 1.400 . S
C839 C838 1.385 . S
C840 C838 1.478 . S
C840 C842 1.381 . S
C840 C846 1.383 . S
C841 C837 1.495 . S
C841 H847 0.959 . S
C841 H848 0.961 . S
C841 H849 0.960 . S
C842 C840 1.381 . S
C842 C843 1.394 . S
C842 H850 0.930 . S
C843 C842 1.394 . S
C843 C844 1.383 . S
C843 H851 0.929 . S
C844 C843 1.383 . S
C844 C845 1.377 . S
C845 H829 0.930 . S
C845 C844 1.377 . S
C845 C846 1.379 . S
C846 H830 0.931 . S
C846 C840 1.383 . S
C846 C845 1.379 . S
H847 C841 0.959 . S
H848 C841 0.961 . S
H849 C841 0.960 . S
H850 C842 0.930 . S
H851 C843 0.929 . S
H852 C860 0.929 . S
H853 C862 0.930 . S
H854 C864 0.930 . S
H855 C867 0.929 . S
H856 C870 0.930 . S
H857 C872 0.960 . S
H858 C872 0.960 . S
H859 C872 0.960 . S
C860 H852 0.929 . S
C860 C861 1.377 . S
C860 C862 1.384 . S
C861 C860 1.377 . S
C861 C867 1.390 . S
C862 H853 0.930 . S
C862 C860 1.384 . S
C862 C863 1.372 . S
C863 C862 1.372 . S
C863 C864 1.400 . S
C863 C868 1.490 . S
C864 H854 0.930 . S
C864 C863 1.400 . S
C864 C867 1.386 . S
H865 C881 0.930 1_455 S
H866 C882 0.931 . S
C867 H855 0.929 . S
C867 C861 1.390 . S
C867 C864 1.386 . S
C868 C863 1.490 . S
C868 C870 1.395 . S
C868 C871 1.403 . S
H869 C875 0.930 . S
C870 H856 0.930 . S
C870 C868 1.395 . S
C870 C873 1.403 . S
C871 C868 1.403 . S
C871 C872 1.524 . S
C871 C875 1.400 . S
C872 H857 0.960 . S
C872 H858 0.960 . S
C872 H859 0.960 . S
C872 C871 1.524 . S
C873 C870 1.403 . S
C873 C874 1.392 . S
C873 C877 1.495 . S
C874 C873 1.392 . S
C874 C875 1.385 . S
C874 C876 1.478 . S
C875 H869 0.930 . S
C875 C871 1.400 . S
C875 C874 1.385 . S
C876 C874 1.478 . S
C876 C878 1.381 . S
C876 C882 1.383 . S
C877 C873 1.495 . S
C877 H883 0.959 . S
C877 H884 0.961 . S
C877 H885 0.960 . S
C878 C876 1.381 . S
C878 C879 1.394 . S
C878 H886 0.930 . S
C879 C878 1.394 . S
C879 C880 1.383 1_655 S
C879 H887 0.929 1_655 S
C880 C879 1.383 1_455 S
C880 C881 1.377 1_455 S
C881 H865 0.930 1_655 S
C881 C880 1.377 1_655 S
C881 C882 1.379 . S
C882 H866 0.931 . S
C882 C876 1.383 . S
C882 C881 1.379 . S
H883 C877 0.959 . S
H884 C877 0.961 . S
H885 C877 0.960 . S
H886 C878 0.930 . S
H887 C879 0.929 1_455 S
H888 C896 0.929 . S
H889 C898 0.930 . S
H890 C900 0.930 . S
H891 C903 0.929 . S
H892 C906 0.930 . S
H893 C908 0.960 . S
H894 C908 0.960 . S
H895 C908 0.960 . S
C896 H888 0.929 . S
C896 C897 1.377 . S
C896 C898 1.384 . S
C897 C896 1.377 . S
C897 C903 1.390 . S
C898 H889 0.930 . S
C898 C896 1.384 . S
C898 C899 1.372 . S
C899 C898 1.372 . S
C899 C900 1.400 . S
C899 C904 1.490 . S
C900 H890 0.930 . S
C900 C899 1.400 . S
C900 C903 1.386 . S
H901 C917 0.930 . S
H902 C918 0.931 . S
C903 H891 0.929 . S
C903 C897 1.390 . S
C903 C900 1.386 . S
C904 C899 1.490 . S
C904 C906 1.395 . S
C904 C907 1.403 . S
H905 C911 0.930 . S
C906 H892 0.930 . S
C906 C904 1.395 . S
C906 C909 1.403 . S
C907 C904 1.403 . S
C907 C908 1.524 . S
C907 C911 1.400 . S
C908 H893 0.960 . S
C908 H894 0.960 . S
C908 H895 0.960 . S
C908 C907 1.524 . S
C909 C906 1.403 . S
C909 C910 1.392 . S
C909 C913 1.495 . S
C910 C909 1.392 . S
C910 C911 1.385 . S
C910 C912 1.478 . S
C911 H905 0.930 . S
C911 C907 1.400 . S
C911 C910 1.385 . S
C912 C910 1.478 . S
C912 C914 1.381 . S
C912 C918 1.383 . S
C913 C909 1.495 . S
C913 H919 0.959 . S
C913 H920 0.961 . S
C913 H921 0.960 . S
C914 C912 1.381 . S
C914 C915 1.394 . S
C914 H922 0.930 . S
C915 C914 1.394 . S
C915 C916 1.383 . S
C915 H923 0.929 . S
C916 C915 1.383 . S
C916 C917 1.377 . S
C917 H901 0.930 . S
C917 C916 1.377 . S
C917 C918 1.379 . S
C918 H902 0.931 . S
C918 C912 1.383 . S
C918 C917 1.379 . S
H919 C913 0.959 . S
H920 C913 0.961 . S
H921 C913 0.960 . S
H922 C914 0.930 . S
H923 C915 0.929 . S
H924 C932 0.929 . S
H925 C934 0.930 . S
H926 C936 0.930 . S
H927 C939 0.929 . S
H928 C942 0.930 . S
H929 C944 0.960 . S
H930 C944 0.960 . S
H931 C944 0.960 . S
C932 H924 0.929 . S
C932 C933 1.377 . S
C932 C934 1.384 . S
C933 C932 1.377 . S
C933 C939 1.390 . S
C934 H925 0.930 . S
C934 C932 1.384 . S
C934 C935 1.372 . S
C935 C934 1.372 . S
C935 C936 1.400 . S
C935 C940 1.490 . S
C936 H926 0.930 . S
C936 C935 1.400 . S
C936 C939 1.386 . S
H937 C953 0.930 1_455 S
H938 C954 0.931 . S
C939 H927 0.929 . S
C939 C933 1.390 . S
C939 C936 1.386 . S
C940 C935 1.490 . S
C940 C942 1.395 . S
C940 C943 1.403 . S
H941 C947 0.930 . S
C942 H928 0.930 . S
C942 C940 1.395 . S
C942 C945 1.403 . S
C943 C940 1.403 . S
C943 C944 1.524 . S
C943 C947 1.400 . S
C944 H929 0.960 . S
C944 H930 0.960 . S
C944 H931 0.960 . S
C944 C943 1.524 . S
C945 C942 1.403 . S
C945 C946 1.392 . S
C945 C949 1.495 . S
C946 C945 1.392 . S
C946 C947 1.385 . S
C946 C948 1.478 . S
C947 H941 0.930 . S
C947 C943 1.400 . S
C947 C946 1.385 . S
C948 C946 1.478 . S
C948 C950 1.381 . S
C948 C954 1.383 . S
C949 C945 1.495 . S
C949 H955 0.959 . S
C949 H956 0.961 . S
C949 H957 0.960 . S
C950 C948 1.381 . S
C950 C951 1.394 . S
C950 H958 0.930 . S
C951 C950 1.394 . S
C951 C952 1.383 1_655 S
C951 H959 0.929 1_655 S
C952 C951 1.383 1_455 S
C952 C953 1.377 1_455 S
C953 H937 0.930 1_655 S
C953 C952 1.377 1_655 S
C953 C954 1.379 . S
C954 H938 0.931 . S
C954 C948 1.383 . S
C954 C953 1.379 . S
H955 C949 0.959 . S
H956 C949 0.961 . S
H957 C949 0.960 . S
H958 C950 0.930 . S
H959 C951 0.929 1_455 S
H960 C968 0.929 . S
H961 C970 0.930 . S
H962 C972 0.930 . S
H963 C975 0.929 . S
H964 C978 0.930 . S
H965 C980 0.960 . S
H966 C980 0.960 . S
H967 C980 0.960 . S
C968 H960 0.929 . S
C968 C969 1.377 . S
C968 C970 1.384 . S
C969 C968 1.377 . S
C969 C975 1.390 . S
C970 H961 0.930 . S
C970 C968 1.384 . S
C970 C971 1.372 . S
C971 C970 1.372 . S
C971 C972 1.400 . S
C971 C976 1.490 . S
C972 H962 0.930 . S
C972 C971 1.400 . S
C972 C975 1.386 . S
H973 C989 0.930 . S
H974 C990 0.931 . S
C975 H963 0.929 . S
C975 C969 1.390 . S
C975 C972 1.386 . S
C976 C971 1.490 . S
C976 C978 1.395 . S
C976 C979 1.403 . S
H977 C983 0.930 . S
C978 H964 0.930 . S
C978 C976 1.395 . S
C978 C981 1.403 . S
C979 C976 1.403 . S
C979 C980 1.524 . S
C979 C983 1.400 . S
C980 H965 0.960 . S
C980 H966 0.960 . S
C980 H967 0.960 . S
C980 C979 1.524 . S
C981 C978 1.403 . S
C981 C982 1.392 . S
C981 C985 1.495 . S
C982 C981 1.392 . S
C982 C983 1.385 . S
C982 C984 1.478 . S
C983 H977 0.930 . S
C983 C979 1.400 . S
C983 C982 1.385 . S
C984 C982 1.478 . S
C984 C986 1.381 . S
C984 C990 1.383 . S
C985 C981 1.495 . S
C985 H991 0.959 . S
C985 H992 0.961 . S
C985 H993 0.960 . S
C986 C984 1.381 . S
C986 C987 1.394 . S
C986 H994 0.930 . S
C987 C986 1.394 . S
C987 C988 1.383 . S
C987 H995 0.929 . S
C988 C987 1.383 . S
C988 C989 1.377 . S
C989 H973 0.930 . S
C989 C988 1.377 . S
C989 C990 1.379 . S
C990 H974 0.931 . S
C990 C984 1.383 . S
C990 C989 1.379 . S
H991 C985 0.959 . S
H992 C985 0.961 . S
H993 C985 0.960 . S
H994 C986 0.930 . S
H995 C987 0.929 . S
H996 C1004 0.929 . S
H997 C1006 0.930 . S
H998 C1008 0.930 . S
H999 C1011 0.929 . S
H1000 C1014 0.930 . S
H1001 C1016 0.960 . S
H1002 C1016 0.960 . S
H1003 C1016 0.960 . S
C1004 H996 0.929 . S
C1004 C1005 1.377 . S
C1004 C1006 1.384 . S
C1005 C1004 1.377 . S
C1005 C1011 1.390 . S
C1006 H997 0.930 . S
C1006 C1004 1.384 . S
C1006 C1007 1.372 . S
C1007 C1006 1.372 . S
C1007 C1008 1.400 . S
C1007 C1012 1.490 . S
C1008 H998 0.930 . S
C1008 C1007 1.400 . S
C1008 C1011 1.386 . S
H1009 C1025 0.930 1_655 S
H1010 C1026 0.931 . S
C1011 H999 0.929 . S
C1011 C1005 1.390 . S
C1011 C1008 1.386 . S
C1012 C1007 1.490 . S
C1012 C1014 1.395 . S
C1012 C1015 1.403 . S
H1013 C1019 0.930 . S
C1014 H1000 0.930 . S
C1014 C1012 1.395 . S
C1014 C1017 1.403 . S
C1015 C1012 1.403 . S
C1015 C1016 1.524 . S
C1015 C1019 1.400 . S
C1016 H1001 0.960 . S
C1016 H1002 0.960 . S
C1016 H1003 0.960 . S
C1016 C1015 1.524 . S
C1017 C1014 1.403 . S
C1017 C1018 1.392 . S
C1017 C1021 1.495 . S
C1018 C1017 1.392 . S
C1018 C1019 1.385 . S
C1018 C1020 1.478 . S
C1019 H1013 0.930 . S
C1019 C1015 1.400 . S
C1019 C1018 1.385 . S
C1020 C1018 1.478 . S
C1020 C1022 1.381 . S
C1020 C1026 1.383 . S
C1021 C1017 1.495 . S
C1021 H1027 0.959 . S
C1021 H1028 0.961 . S
C1021 H1029 0.960 . S
C1022 C1020 1.381 . S
C1022 C1023 1.394 . S
C1022 H1030 0.930 . S
C1023 C1022 1.394 . S
C1023 C1024 1.383 1_455 S
C1023 H1031 0.929 1_455 S
C1024 C1023 1.383 1_655 S
C1024 C1025 1.377 1_655 S
C1025 H1009 0.930 1_455 S
C1025 C1024 1.377 1_455 S
C1025 C1026 1.379 . S
C1026 H1010 0.931 . S
C1026 C1020 1.383 . S
C1026 C1025 1.379 . S
H1027 C1021 0.959 . S
H1028 C1021 0.961 . S
H1029 C1021 0.960 . S
H1030 C1022 0.930 . S
H1031 C1023 0.929 1_655 S
H1032 C1040 0.929 . S
H1033 C1042 0.930 . S
H1034 C1044 0.930 . S
H1035 C1047 0.929 . S
H1036 C1050 0.930 . S
H1037 C1052 0.960 . S
H1038 C1052 0.960 . S
H1039 C1052 0.960 . S
C1040 H1032 0.929 . S
C1040 C1041 1.377 . S
C1040 C1042 1.384 . S
C1041 C1040 1.377 . S
C1041 C1047 1.390 . S
C1042 H1033 0.930 . S
C1042 C1040 1.384 . S
C1042 C1043 1.372 . S
C1043 C1042 1.372 . S
C1043 C1044 1.400 . S
C1043 C1048 1.490 . S
C1044 H1034 0.930 . S
C1044 C1043 1.400 . S
C1044 C1047 1.386 . S
H1045 C1061 0.930 . S
H1046 C1062 0.931 . S
C1047 H1035 0.929 . S
C1047 C1041 1.390 . S
C1047 C1044 1.386 . S
C1048 C1043 1.490 . S
C1048 C1050 1.395 . S
C1048 C1051 1.403 . S
H1049 C1055 0.930 . S
C1050 H1036 0.930 . S
C1050 C1048 1.395 . S
C1050 C1053 1.403 . S
C1051 C1048 1.403 . S
C1051 C1052 1.524 . S
C1051 C1055 1.400 . S
C1052 H1037 0.960 . S
C1052 H1038 0.960 . S
C1052 H1039 0.960 . S
C1052 C1051 1.524 . S
C1053 C1050 1.403 . S
C1053 C1054 1.392 . S
C1053 C1057 1.495 . S
C1054 C1053 1.392 . S
C1054 C1055 1.385 . S
C1054 C1056 1.478 . S
C1055 H1049 0.930 . S
C1055 C1051 1.400 . S
C1055 C1054 1.385 . S
C1056 C1054 1.478 . S
C1056 C1058 1.381 . S
C1056 C1062 1.383 . S
C1057 C1053 1.495 . S
C1057 H1063 0.959 . S
C1057 H1064 0.961 . S
C1057 H1065 0.960 . S
C1058 C1056 1.381 . S
C1058 C1059 1.394 . S
C1058 H1066 0.930 . S
C1059 C1058 1.394 . S
C1059 C1060 1.383 . S
C1059 H1067 0.929 . S
C1060 C1059 1.383 . S
C1060 C1061 1.377 . S
C1061 H1045 0.930 . S
C1061 C1060 1.377 . S
C1061 C1062 1.379 . S
C1062 H1046 0.931 . S
C1062 C1056 1.383 . S
C1062 C1061 1.379 . S
H1063 C1057 0.959 . S
H1064 C1057 0.961 . S
H1065 C1057 0.960 . S
H1066 C1058 0.930 . S
H1067 C1059 0.929 . S
H1068 C1076 0.918 1_655 S
H1069 C1078 0.930 . S
H1070 C1080 0.930 . S
H1071 C1083 0.929 . S
H1072 C1086 0.930 . S
H1073 C1088 0.960 . S
H1074 C1088 0.960 . S
H1075 C1088 0.960 . S
C1076 H1068 0.918 1_455 S
C1076 C1077 1.370 1_455 S
C1076 C1078 1.402 . S
C1077 C1076 1.370 1_655 S
C1077 C1083 1.390 1_655 S
C1078 H1069 0.930 . S
C1078 C1076 1.402 . S
C1078 C1079 1.372 . S
C1079 C1078 1.372 . S
C1079 C1080 1.400 . S
C1079 C1084 1.490 . S
C1080 H1070 0.930 . S
C1080 C1079 1.400 . S
C1080 C1083 1.386 . S
H1081 C1097 0.930 . S
H1082 C1098 0.931 . S
C1083 H1071 0.929 . S
C1083 C1077 1.390 1_455 S
C1083 C1080 1.386 . S
C1084 C1079 1.490 . S
C1084 C1086 1.395 . S
C1084 C1087 1.403 . S
H1085 C1091 0.930 . S
C1086 H1072 0.930 . S
C1086 C1084 1.395 . S
C1086 C1089 1.403 . S
C1087 C1084 1.403 . S
C1087 C1088 1.524 . S
C1087 C1091 1.400 . S
C1088 H1073 0.960 . S
C1088 H1074 0.960 . S
C1088 H1075 0.960 . S
C1088 C1087 1.524 . S
C1089 C1086 1.403 . S
C1089 C1090 1.392 . S
C1089 C1093 1.495 . S
C1090 C1089 1.392 . S
C1090 C1091 1.385 . S
C1090 C1092 1.478 . S
C1091 H1085 0.930 . S
C1091 C1087 1.400 . S
C1091 C1090 1.385 . S
C1092 C1090 1.478 . S
C1092 C1094 1.381 . S
C1092 C1098 1.383 . S
C1093 C1089 1.495 . S
C1093 H1099 0.959 . S
C1093 H1100 0.961 . S
C1093 H1101 0.960 . S
C1094 C1092 1.381 . S
C1094 C1095 1.394 . S
C1094 H1102 0.930 . S
C1095 C1094 1.394 . S
C1095 C1096 1.383 . S
C1095 H1103 0.929 . S
C1096 C1095 1.383 . S
C1096 C1097 1.377 . S
C1097 H1081 0.930 . S
C1097 C1096 1.377 . S
C1097 C1098 1.379 . S
C1098 H1082 0.931 . S
C1098 C1092 1.383 . S
C1098 C1097 1.379 . S
H1099 C1093 0.959 . S
H1100 C1093 0.961 . S
H1101 C1093 0.960 . S
H1102 C1094 0.930 . S
H1103 C1095 0.929 . S
H1104 C1112 0.929 . S
H1105 C1114 0.930 . S
H1106 C1116 0.930 . S
H1107 C1119 0.929 . S
H1108 C1122 0.930 . S
H1109 C1124 0.960 . S
H1110 C1124 0.960 . S
H1111 C1124 0.960 . S
C1112 H1104 0.929 . S
C1112 C1113 1.377 . S
C1112 C1114 1.384 . S
C1113 C1112 1.377 . S
C1113 C1119 1.390 . S
C1114 H1105 0.930 . S
C1114 C1112 1.384 . S
C1114 C1115 1.372 . S
C1115 C1114 1.372 . S
C1115 C1116 1.400 . S
C1115 C1120 1.490 . S
C1116 H1106 0.930 . S
C1116 C1115 1.400 . S
C1116 C1119 1.386 . S
H1117 C1133 0.930 . S
H1118 C1134 0.931 . S
C1119 H1107 0.929 . S
C1119 C1113 1.390 . S
C1119 C1116 1.386 . S
C1120 C1115 1.490 . S
C1120 C1122 1.395 . S
C1120 C1123 1.403 . S
H1121 C1127 0.930 . S
C1122 H1108 0.930 . S
C1122 C1120 1.395 . S
C1122 C1125 1.403 . S
C1123 C1120 1.403 . S
C1123 C1124 1.524 . S
C1123 C1127 1.400 . S
C1124 H1109 0.960 . S
C1124 H1110 0.960 . S
C1124 H1111 0.960 . S
C1124 C1123 1.524 . S
C1125 C1122 1.403 . S
C1125 C1126 1.392 . S
C1125 C1129 1.495 . S
C1126 C1125 1.392 . S
C1126 C1127 1.385 . S
C1126 C1128 1.478 . S
C1127 H1121 0.930 . S
C1127 C1123 1.400 . S
C1127 C1126 1.385 . S
C1128 C1126 1.478 . S
C1128 C1130 1.381 . S
C1128 C1134 1.383 . S
C1129 C1125 1.495 . S
C1129 H1135 0.959 . S
C1129 H1136 0.961 . S
C1129 H1137 0.960 . S
C1130 C1128 1.381 . S
C1130 C1131 1.394 . S
C1130 H1138 0.930 . S
C1131 C1130 1.394 . S
C1131 C1132 1.383 1_554 S
C1131 H1139 0.929 1_554 S
C1132 C1131 1.383 1_556 S
C1132 C1133 1.377 1_556 S
C1133 H1117 0.930 . S
C1133 C1132 1.377 1_554 S
C1133 C1134 1.379 . S
C1134 H1118 0.931 . S
C1134 C1128 1.383 . S
C1134 C1133 1.379 . S
H1135 C1129 0.959 . S
H1136 C1129 0.961 . S
H1137 C1129 0.960 . S
H1138 C1130 0.930 . S
H1139 C1131 0.929 1_556 S
H1140 C1148 0.929 1_554 S
H1141 C1150 0.930 . S
H1142 C1152 0.930 . S
H1143 C1155 0.929 . S
H1144 C1158 0.930 . S
H1145 C1160 0.960 . S
H1146 C1160 0.960 . S
H1147 C1160 0.960 . S
C1148 H1140 0.929 1_556 S
C1148 C1149 1.377 1_556 S
C1148 C1150 1.384 . S
C1149 C1148 1.377 1_554 S
C1149 C1155 1.390 1_554 S
C1150 H1141 0.930 . S
C1150 C1148 1.384 . S
C1150 C1151 1.372 . S
C1151 C1150 1.372 . S
C1151 C1152 1.400 . S
C1151 C1156 1.490 . S
C1152 H1142 0.930 . S
C1152 C1151 1.400 . S
C1152 C1155 1.386 . S
H1153 C1169 0.930 . S
H1154 C1170 0.931 . S
C1155 H1143 0.929 . S
C1155 C1149 1.390 1_556 S
C1155 C1152 1.386 . S
C1156 C1151 1.490 . S
C1156 C1158 1.395 . S
C1156 C1159 1.403 . S
H1157 C1163 0.930 . S
C1158 H1144 0.930 . S
C1158 C1156 1.395 . S
C1158 C1161 1.403 . S
C1159 C1156 1.403 . S
C1159 C1160 1.524 . S
C1159 C1163 1.400 . S
C1160 H1145 0.960 . S
C1160 H1146 0.960 . S
C1160 H1147 0.960 . S
C1160 C1159 1.524 . S
C1161 C1158 1.403 . S
C1161 C1162 1.392 . S
C1161 C1165 1.495 . S
C1162 C1161 1.392 . S
C1162 C1163 1.385 . S
C1162 C1164 1.478 . S
C1163 H1157 0.930 . S
C1163 C1159 1.400 . S
C1163 C1162 1.385 . S
C1164 C1162 1.478 . S
C1164 C1166 1.381 . S
C1164 C1170 1.383 . S
C1165 C1161 1.495 . S
C1165 H1171 0.959 . S
C1165 H1172 0.961 . S
C1165 H1173 0.960 . S
C1166 C1164 1.381 . S
C1166 C1167 1.394 . S
C1166 H1174 0.930 . S
C1167 C1166 1.394 . S
C1167 C1168 1.383 . S
C1167 H1175 0.929 . S
C1168 C1167 1.383 . S
C1168 C1169 1.377 . S
C1169 H1153 0.930 . S
C1169 C1168 1.377 . S
C1169 C1170 1.379 . S
C1170 H1154 0.931 . S
C1170 C1164 1.383 . S
C1170 C1169 1.379 . S
H1171 C1165 0.959 . S
H1172 C1165 0.961 . S
H1173 C1165 0.960 . S
H1174 C1166 0.930 . S
H1175 C1167 0.929 . S
H1176 C1184 0.929 . S
H1177 C1186 0.930 . S
H1178 C1188 0.930 . S
H1179 C1191 0.929 . S
H1180 C1194 0.930 . S
H1181 C1196 0.960 . S
H1182 C1196 0.960 . S
H1183 C1196 0.960 . S
C1184 H1176 0.929 . S
C1184 C1185 1.377 . S
C1184 C1186 1.384 . S
C1185 C1184 1.377 . S
C1185 C1191 1.390 . S
C1186 H1177 0.930 . S
C1186 C1184 1.384 . S
C1186 C1187 1.372 . S
C1187 C1186 1.372 . S
C1187 C1188 1.400 . S
C1187 C1192 1.490 . S
C1188 H1178 0.930 . S
C1188 C1187 1.400 . S
C1188 C1191 1.386 . S
H1189 C1205 0.930 . S
H1190 C1206 0.931 . S
C1191 H1179 0.929 . S
C1191 C1185 1.390 . S
C1191 C1188 1.386 . S
C1192 C1187 1.490 . S
C1192 C1194 1.395 . S
C1192 C1195 1.403 . S
H1193 C1199 0.930 . S
C1194 H1180 0.930 . S
C1194 C1192 1.395 . S
C1194 C1197 1.403 . S
C1195 C1192 1.403 . S
C1195 C1196 1.524 . S
C1195 C1199 1.400 . S
C1196 H1181 0.960 . S
C1196 H1182 0.960 . S
C1196 H1183 0.960 . S
C1196 C1195 1.524 . S
C1197 C1194 1.403 . S
C1197 C1198 1.392 . S
C1197 C1201 1.495 . S
C1198 C1197 1.392 . S
C1198 C1199 1.385 . S
C1198 C1200 1.478 . S
C1199 H1193 0.930 . S
C1199 C1195 1.400 . S
C1199 C1198 1.385 . S
C1200 C1198 1.478 . S
C1200 C1202 1.381 . S
C1200 C1206 1.383 . S
C1201 C1197 1.495 . S
C1201 H1207 0.959 . S
C1201 H1208 0.961 . S
C1201 H1209 0.960 . S
C1202 C1200 1.381 . S
C1202 C1203 1.394 . S
C1202 H1210 0.930 . S
C1203 C1202 1.394 . S
C1203 C1204 1.383 . S
C1203 H1211 0.929 . S
C1204 C1203 1.383 . S
C1204 C1205 1.377 . S
C1205 H1189 0.930 . S
C1205 C1204 1.377 . S
C1205 C1206 1.379 . S
C1206 H1190 0.931 . S
C1206 C1200 1.383 . S
C1206 C1205 1.379 . S
H1207 C1201 0.959 . S
H1208 C1201 0.961 . S
H1209 C1201 0.960 . S
H1210 C1202 0.930 . S
H1211 C1203 0.929 . S
H1212 C1220 0.929 . S
H1213 C1222 0.930 . S
H1214 C1224 0.930 . S
H1215 C1227 0.929 . S
H1216 C1230 0.930 . S
H1217 C1232 0.960 . S
H1218 C1232 0.960 . S
H1219 C1232 0.960 . S
C1220 H1212 0.929 . S
C1220 C1221 1.377 . S
C1220 C1222 1.384 . S
C1221 C1220 1.377 . S
C1221 C1227 1.390 . S
C1222 H1213 0.930 . S
C1222 C1220 1.384 . S
C1222 C1223 1.372 . S
C1223 C1222 1.372 . S
C1223 C1224 1.400 . S
C1223 C1228 1.490 . S
C1224 H1214 0.930 . S
C1224 C1223 1.400 . S
C1224 C1227 1.386 . S
H1225 C1241 0.930 . S
H1226 C1242 0.931 . S
C1227 H1215 0.929 . S
C1227 C1221 1.390 . S
C1227 C1224 1.386 . S
C1228 C1223 1.490 . S
C1228 C1230 1.395 . S
C1228 C1231 1.403 . S
H1229 C1235 0.930 . S
C1230 H1216 0.930 . S
C1230 C1228 1.395 . S
C1230 C1233 1.403 . S
C1231 C1228 1.403 . S
C1231 C1232 1.524 . S
C1231 C1235 1.400 . S
C1232 H1217 0.960 . S
C1232 H1218 0.960 . S
C1232 H1219 0.960 . S
C1232 C1231 1.524 . S
C1233 C1230 1.403 . S
C1233 C1234 1.392 . S
C1233 C1237 1.495 . S
C1234 C1233 1.392 . S
C1234 C1235 1.385 . S
C1234 C1236 1.478 . S
C1235 H1229 0.930 . S
C1235 C1231 1.400 . S
C1235 C1234 1.385 . S
C1236 C1234 1.478 . S
C1236 C1238 1.381 . S
C1236 C1242 1.383 . S
C1237 C1233 1.495 . S
C1237 H1243 0.959 . S
C1237 H1244 0.961 . S
C1237 H1245 0.960 . S
C1238 C1236 1.381 . S
C1238 C1239 1.394 . S
C1238 H1246 0.930 . S
C1239 C1238 1.394 . S
C1239 C1240 1.383 . S
C1239 H1247 0.929 . S
C1240 C1239 1.383 . S
C1240 C1241 1.377 . S
C1241 H1225 0.930 . S
C1241 C1240 1.377 . S
C1241 C1242 1.379 . S
C1242 H1226 0.931 . S
C1242 C1236 1.383 . S
C1242 C1241 1.379 . S
H1243 C1237 0.959 . S
H1244 C1237 0.961 . S
H1245 C1237 0.960 . S
H1246 C1238 0.930 . S
H1247 C1239 0.929 . S
H1248 C1256 0.929 . S
H1249 C1258 0.930 . S
H1250 C1260 0.930 . S
H1251 C1263 0.929 . S
H1252 C1266 0.930 . S
H1253 C1268 0.960 . S
H1254 C1268 0.960 . S
H1255 C1268 0.960 . S
C1256 H1248 0.929 . S
C1256 C1257 1.377 . S
C1256 C1258 1.384 . S
C1257 C1256 1.377 . S
C1257 C1263 1.390 . S
C1258 H1249 0.930 . S
C1258 C1256 1.384 . S
C1258 C1259 1.372 . S
C1259 C1258 1.372 . S
C1259 C1260 1.400 . S
C1259 C1264 1.490 . S
C1260 H1250 0.930 . S
C1260 C1259 1.400 . S
C1260 C1263 1.386 . S
H1261 C1277 0.930 . S
H1262 C1278 0.931 . S
C1263 H1251 0.929 . S
C1263 C1257 1.390 . S
C1263 C1260 1.386 . S
C1264 C1259 1.490 . S
C1264 C1266 1.395 . S
C1264 C1267 1.403 . S
H1265 C1271 0.930 . S
C1266 H1252 0.930 . S
C1266 C1264 1.395 . S
C1266 C1269 1.403 . S
C1267 C1264 1.403 . S
C1267 C1268 1.524 . S
C1267 C1271 1.400 . S
C1268 H1253 0.960 . S
C1268 H1254 0.960 . S
C1268 H1255 0.960 . S
C1268 C1267 1.524 . S
C1269 C1266 1.403 . S
C1269 C1270 1.392 . S
C1269 C1273 1.495 . S
C1270 C1269 1.392 . S
C1270 C1271 1.385 . S
C1270 C1272 1.478 . S
C1271 H1265 0.930 . S
C1271 C1267 1.400 . S
C1271 C1270 1.385 . S
C1272 C1270 1.478 . S
C1272 C1274 1.381 . S
C1272 C1278 1.383 . S
C1273 C1269 1.495 . S
C1273 H1279 0.959 . S
C1273 H1280 0.961 . S
C1273 H1281 0.960 . S
C1274 C1272 1.381 . S
C1274 C1275 1.394 . S
C1274 H1282 0.930 . S
C1275 C1274 1.394 . S
C1275 C1276 1.383 . S
C1275 H1283 0.929 . S
C1276 C1275 1.383 . S
C1276 C1277 1.377 . S
C1277 H1261 0.930 . S
C1277 C1276 1.377 . S
C1277 C1278 1.379 . S
C1278 H1262 0.931 . S
C1278 C1272 1.383 . S
C1278 C1277 1.379 . S
H1279 C1273 0.959 . S
H1280 C1273 0.961 . S
H1281 C1273 0.960 . S
H1282 C1274 0.930 . S
H1283 C1275 0.929 . S
H1284 C1292 0.929 . S
H1285 C1294 0.930 . S
H1286 C1296 0.930 . S
H1287 C1299 0.929 . S
H1288 C1302 0.930 . S
H1289 C1304 0.960 . S
H1290 C1304 0.960 . S
H1291 C1304 0.960 . S
C1292 H1284 0.929 . S
C1292 C1293 1.377 . S
C1292 C1294 1.384 . S
C1293 C1292 1.377 . S
C1293 C1299 1.390 . S
C1294 H1285 0.930 . S
C1294 C1292 1.384 . S
C1294 C1295 1.372 . S
C1295 C1294 1.372 . S
C1295 C1296 1.400 . S
C1295 C1300 1.490 . S
C1296 H1286 0.930 . S
C1296 C1295 1.400 . S
C1296 C1299 1.386 . S
H1297 C1313 0.930 . S
H1298 C1314 0.931 . S
C1299 H1287 0.929 . S
C1299 C1293 1.390 . S
C1299 C1296 1.386 . S
C1300 C1295 1.490 . S
C1300 C1302 1.395 . S
C1300 C1303 1.403 . S
H1301 C1307 0.930 . S
C1302 H1288 0.930 . S
C1302 C1300 1.395 . S
C1302 C1305 1.403 . S
C1303 C1300 1.403 . S
C1303 C1304 1.524 . S
C1303 C1307 1.400 . S
C1304 H1289 0.960 . S
C1304 H1290 0.960 . S
C1304 H1291 0.960 . S
C1304 C1303 1.524 . S
C1305 C1302 1.403 . S
C1305 C1306 1.392 . S
C1305 C1309 1.495 . S
C1306 C1305 1.392 . S
C1306 C1307 1.385 . S
C1306 C1308 1.478 . S
C1307 H1301 0.930 . S
C1307 C1303 1.400 . S
C1307 C1306 1.385 . S
C1308 C1306 1.478 . S
C1308 C1310 1.381 . S
C1308 C1314 1.383 . S
C1309 C1305 1.495 . S
C1309 H1315 0.959 . S
C1309 H1316 0.961 . S
C1309 H1317 0.960 . S
C1310 C1308 1.381 . S
C1310 C1311 1.394 . S
C1310 H1318 0.930 . S
C1311 C1310 1.394 . S
C1311 C1312 1.383 . S
C1311 H1319 0.929 . S
C1312 C1311 1.383 . S
C1312 C1313 1.377 . S
C1313 H1297 0.930 . S
C1313 C1312 1.377 . S
C1313 C1314 1.379 . S
C1314 H1298 0.931 . S
C1314 C1308 1.383 . S
C1314 C1313 1.379 . S
H1315 C1309 0.959 . S
H1316 C1309 0.961 . S
H1317 C1309 0.960 . S
H1318 C1310 0.930 . S
H1319 C1311 0.929 . S
H1320 C1328 0.929 . S
H1321 C1330 0.930 . S
H1322 C1332 0.930 . S
H1323 C1335 0.929 . S
H1324 C1338 0.930 . S
H1325 C1340 0.960 . S
H1326 C1340 0.960 . S
H1327 C1340 0.960 . S
C1328 H1320 0.929 . S
C1328 C1329 1.377 1_554 S
C1328 C1330 1.384 . S
C1329 C1328 1.377 1_556 S
C1329 C1335 1.390 1_556 S
C1330 H1321 0.930 . S
C1330 C1328 1.384 . S
C1330 C1331 1.372 . S
C1331 C1330 1.372 . S
C1331 C1332 1.400 . S
C1331 C1336 1.490 . S
C1332 H1322 0.930 . S
C1332 C1331 1.400 . S
C1332 C1335 1.386 . S
H1333 C1349 0.930 . S
H1334 C1350 0.931 . S
C1335 H1323 0.929 . S
C1335 C1329 1.390 1_554 S
C1335 C1332 1.386 . S
C1336 C1331 1.490 . S
C1336 C1338 1.395 . S
C1336 C1339 1.403 . S
H1337 C1343 0.930 . S
C1338 H1324 0.930 . S
C1338 C1336 1.395 . S
C1338 C1341 1.403 . S
C1339 C1336 1.403 . S
C1339 C1340 1.524 . S
C1339 C1343 1.400 . S
C1340 H1325 0.960 . S
C1340 H1326 0.960 . S
C1340 H1327 0.960 . S
C1340 C1339 1.524 . S
C1341 C1338 1.403 . S
C1341 C1342 1.392 . S
C1341 C1345 1.495 . S
C1342 C1341 1.392 . S
C1342 C1343 1.385 . S
C1342 C1344 1.478 . S
C1343 H1337 0.930 . S
C1343 C1339 1.400 . S
C1343 C1342 1.385 . S
C1344 C1342 1.478 . S
C1344 C1346 1.381 . S
C1344 C1350 1.383 . S
C1345 C1341 1.495 . S
C1345 H1351 0.959 . S
C1345 H1352 0.961 . S
C1345 H1353 0.960 . S
C1346 C1344 1.381 . S
C1346 C1347 1.394 . S
C1346 H1354 0.930 . S
C1347 C1346 1.394 . S
C1347 C1348 1.383 . S
C1347 H1355 0.929 . S
C1348 C1347 1.383 . S
C1348 C1349 1.377 . S
C1349 H1333 0.930 . S
C1349 C1348 1.377 . S
C1349 C1350 1.379 . S
C1350 H1334 0.931 . S
C1350 C1344 1.383 . S
C1350 C1349 1.379 . S
H1351 C1345 0.959 . S
H1352 C1345 0.961 . S
H1353 C1345 0.960 . S
H1354 C1346 0.930 . S
H1355 C1347 0.929 . S
H1356 C1364 0.929 . S
H1357 C1366 0.930 . S
H1358 C1368 0.930 . S
H1359 C1371 0.929 . S
H1360 C1374 0.930 . S
H1361 C1376 0.960 . S
H1362 C1376 0.960 . S
H1363 C1376 0.960 . S
C1364 H1356 0.929 . S
C1364 C1365 1.377 . S
C1364 C1366 1.384 . S
C1365 C1364 1.377 . S
C1365 C1371 1.390 . S
C1366 H1357 0.930 . S
C1366 C1364 1.384 . S
C1366 C1367 1.372 . S
C1367 C1366 1.372 . S
C1367 C1368 1.400 . S
C1367 C1372 1.490 . S
C1368 H1358 0.930 . S
C1368 C1367 1.400 . S
C1368 C1371 1.386 . S
H1369 C1385 0.930 . S
H1370 C1386 0.931 . S
C1371 H1359 0.929 . S
C1371 C1365 1.390 . S
C1371 C1368 1.386 . S
C1372 C1367 1.490 . S
C1372 C1374 1.395 . S
C1372 C1375 1.403 . S
H1373 C1379 0.930 . S
C1374 H1360 0.930 . S
C1374 C1372 1.395 . S
C1374 C1377 1.403 . S
C1375 C1372 1.403 . S
C1375 C1376 1.524 . S
C1375 C1379 1.400 . S
C1376 H1361 0.960 . S
C1376 H1362 0.960 . S
C1376 H1363 0.960 . S
C1376 C1375 1.524 . S
C1377 C1374 1.403 . S
C1377 C1378 1.392 . S
C1377 C1381 1.495 . S
C1378 C1377 1.392 . S
C1378 C1379 1.385 . S
C1378 C1380 1.478 . S
C1379 H1373 0.930 . S
C1379 C1375 1.400 . S
C1379 C1378 1.385 . S
C1380 C1378 1.478 . S
C1380 C1382 1.381 . S
C1380 C1386 1.383 . S
C1381 C1377 1.495 . S
C1381 H1387 0.959 . S
C1381 H1388 0.961 . S
C1381 H1389 0.960 . S
C1382 C1380 1.381 . S
C1382 C1383 1.394 . S
C1382 H1390 0.930 . S
C1383 C1382 1.394 . S
C1383 C1384 1.383 1_556 S
C1383 H1391 0.929 1_556 S
C1384 C1383 1.383 1_554 S
C1384 C1385 1.377 1_554 S
C1385 H1369 0.930 . S
C1385 C1384 1.377 1_556 S
C1385 C1386 1.379 . S
C1386 H1370 0.931 . S
C1386 C1380 1.383 . S
C1386 C1385 1.379 . S
H1387 C1381 0.959 . S
H1388 C1381 0.961 . S
H1389 C1381 0.960 . S
H1390 C1382 0.930 . S
H1391 C1383 0.929 1_554 S
H1392 C1400 0.929 . S
H1393 C1402 0.930 . S
H1394 C1404 0.930 . S
H1395 C1407 0.929 . S
H1396 C1410 0.930 . S
H1397 C1412 0.960 . S
H1398 C1412 0.960 . S
H1399 C1412 0.960 . S
C1400 H1392 0.929 . S
C1400 C1401 1.377 . S
C1400 C1402 1.384 . S
C1401 C1400 1.377 . S
C1401 C1407 1.390 . S
C1402 H1393 0.930 . S
C1402 C1400 1.384 . S
C1402 C1403 1.372 . S
C1403 C1402 1.372 . S
C1403 C1404 1.400 . S
C1403 C1408 1.490 . S
C1404 H1394 0.930 . S
C1404 C1403 1.400 . S
C1404 C1407 1.386 . S
H1405 C1421 0.930 . S
H1406 C1422 0.931 . S
C1407 H1395 0.929 . S
C1407 C1401 1.390 . S
C1407 C1404 1.386 . S
C1408 C1403 1.490 . S
C1408 C1410 1.395 . S
C1408 C1411 1.403 . S
H1409 C1415 0.930 . S
C1410 H1396 0.930 . S
C1410 C1408 1.395 . S
C1410 C1413 1.403 . S
C1411 C1408 1.403 . S
C1411 C1412 1.524 . S
C1411 C1415 1.400 . S
C1412 H1397 0.960 . S
C1412 H1398 0.960 . S
C1412 H1399 0.960 . S
C1412 C1411 1.524 . S
C1413 C1410 1.403 . S
C1413 C1414 1.392 . S
C1413 C1417 1.495 . S
C1414 C1413 1.392 . S
C1414 C1415 1.385 . S
C1414 C1416 1.478 . S
C1415 H1409 0.930 . S
C1415 C1411 1.400 . S
C1415 C1414 1.385 . S
C1416 C1414 1.478 . S
C1416 C1418 1.381 . S
C1416 C1422 1.383 . S
C1417 C1413 1.495 . S
C1417 H1423 0.959 . S
C1417 H1424 0.961 . S
C1417 H1425 0.960 . S
C1418 C1416 1.381 . S
C1418 C1419 1.394 . S
C1418 H1426 0.930 . S
C1419 C1418 1.394 . S
C1419 C1420 1.383 . S
C1419 H1427 0.929 . S
C1420 C1419 1.383 . S
C1420 C1421 1.377 . S
C1421 H1405 0.930 . S
C1421 C1420 1.377 . S
C1421 C1422 1.379 . S
C1422 H1406 0.931 . S
C1422 C1416 1.383 . S
C1422 C1421 1.379 . S
H1423 C1417 0.959 . S
H1424 C1417 0.961 . S
H1425 C1417 0.960 . S
H1426 C1418 0.930 . S
H1427 C1419 0.929 . S
H1428 C1436 0.929 . S
H1429 C1438 0.930 . S
H1430 C1440 0.930 . S
H1431 C1443 0.929 . S
H1432 C1446 0.930 . S
H1433 C1448 0.960 . S
H1434 C1448 0.960 . S
H1435 C1448 0.960 . S
C1436 H1428 0.929 . S
C1436 C1437 1.377 . S
C1436 C1438 1.384 . S
C1437 C1436 1.377 . S
C1437 C1443 1.390 . S
C1438 H1429 0.930 . S
C1438 C1436 1.384 . S
C1438 C1439 1.372 . S
C1439 C1438 1.372 . S
C1439 C1440 1.400 . S
C1439 C1444 1.490 . S
C1440 H1430 0.930 . S
C1440 C1439 1.400 . S
C1440 C1443 1.386 . S
H1441 C1457 0.930 . S
H1442 C1458 0.931 . S
C1443 H1431 0.929 . S
C1443 C1437 1.390 . S
C1443 C1440 1.386 . S
C1444 C1439 1.490 . S
C1444 C1446 1.395 1_655 S
C1444 C1447 1.403 . S
H1445 C1451 0.930 . S
C1446 H1432 0.930 . S
C1446 C1444 1.395 1_455 S
C1446 C1449 1.403 1_565 S
C1447 C1444 1.403 . S
C1447 C1448 1.524 . S
C1447 C1451 1.400 1_565 S
C1448 H1433 0.960 . S
C1448 H1434 0.960 . S
C1448 H1435 0.960 . S
C1448 C1447 1.524 . S
C1449 C1446 1.403 1_545 S
C1449 C1450 1.392 . S
C1449 C1453 1.495 . S
C1450 C1449 1.392 . S
C1450 C1451 1.385 1_455 S
C1450 C1452 1.478 . S
C1451 H1445 0.930 . S
C1451 C1447 1.400 1_545 S
C1451 C1450 1.385 1_655 S
C1452 C1450 1.478 . S
C1452 C1454 1.381 . S
C1452 C1458 1.383 . S
C1453 C1449 1.495 . S
C1453 H1459 0.959 . S
C1453 H1460 0.961 . S
C1453 H1461 0.960 . S
C1454 C1452 1.381 . S
C1454 C1455 1.394 . S
C1454 H1462 0.930 . S
C1455 C1454 1.394 . S
C1455 C1456 1.383 . S
C1455 H1463 0.929 . S
C1456 C1455 1.383 . S
C1456 C1457 1.377 . S
C1457 H1441 0.930 . S
C1457 C1456 1.377 . S
C1457 C1458 1.379 . S
C1458 H1442 0.931 . S
C1458 C1452 1.383 . S
C1458 C1457 1.379 . S
H1459 C1453 0.959 . S
H1460 C1453 0.961 . S
H1461 C1453 0.960 . S
H1462 C1454 0.930 . S
H1463 C1455 0.929 . S
H1464 C1472 0.929 . S
H1465 C1474 0.930 . S
H1466 C1476 0.930 . S
H1467 C1479 0.929 . S
H1468 C1482 0.930 . S
H1469 C1484 0.960 . S
H1470 C1484 0.960 . S
H1471 C1484 0.960 . S
C1472 H1464 0.929 . S
C1472 C1473 1.377 . S
C1472 C1474 1.384 . S
C1473 C1472 1.377 . S
C1473 C1479 1.390 . S
C1474 H1465 0.930 . S
C1474 C1472 1.384 . S
C1474 C1475 1.372 . S
C1475 C1474 1.372 . S
C1475 C1476 1.400 . S
C1475 C1480 1.490 . S
C1476 H1466 0.930 . S
C1476 C1475 1.400 . S
C1476 C1479 1.386 . S
H1477 C1493 0.930 . S
H1478 C1494 0.931 . S
C1479 H1467 0.929 . S
C1479 C1473 1.390 . S
C1479 C1476 1.386 . S
C1480 C1475 1.490 . S
C1480 C1482 1.395 1_565 S
C1480 C1483 1.403 . S
H1481 C1487 0.930 . S
C1482 H1468 0.930 . S
C1482 C1480 1.395 1_545 S
C1482 C1485 1.403 . S
C1483 C1480 1.403 . S
C1483 C1484 1.524 . S
C1483 C1487 1.400 . S
C1484 H1469 0.960 . S
C1484 H1470 0.960 . S
C1484 H1471 0.960 . S
C1484 C1483 1.524 . S
C1485 C1482 1.403 . S
C1485 C1486 1.392 . S
C1485 C1489 1.495 . S
C1486 C1485 1.392 . S
C1486 C1487 1.385 1_545 S
C1486 C1488 1.478 . S
C1487 H1481 0.930 . S
C1487 C1483 1.400 . S
C1487 C1486 1.385 1_565 S
C1488 C1486 1.478 . S
C1488 C1490 1.381 . S
C1488 C1494 1.383 . S
C1489 C1485 1.495 . S
C1489 H1495 0.959 . S
C1489 H1496 0.961 . S
C1489 H1497 0.960 . S
C1490 C1488 1.381 . S
C1490 C1491 1.394 . S
C1490 H1498 0.930 . S
C1491 C1490 1.394 . S
C1491 C1492 1.383 . S
C1491 H1499 0.929 . S
C1492 C1491 1.383 . S
C1492 C1493 1.377 . S
C1493 H1477 0.930 . S
C1493 C1492 1.377 . S
C1493 C1494 1.379 . S
C1494 H1478 0.931 . S
C1494 C1488 1.383 . S
C1494 C1493 1.379 . S
H1495 C1489 0.959 . S
H1496 C1489 0.961 . S
H1497 C1489 0.960 . S
H1498 C1490 0.930 . S
H1499 C1491 0.929 . S
H1500 C1508 0.929 . S
H1501 C1510 0.930 . S
H1502 C1512 0.930 . S
H1503 C1515 0.929 . S
H1504 C1518 0.930 . S
H1505 C1520 0.960 . S
H1506 C1520 0.960 . S
H1507 C1520 0.960 . S
C1508 H1500 0.929 . S
C1508 C1509 1.377 . S
C1508 C1510 1.384 . S
C1509 C1508 1.377 . S
C1509 C1515 1.390 . S
C1510 H1501 0.930 . S
C1510 C1508 1.384 . S
C1510 C1511 1.372 . S
C1511 C1510 1.372 . S
C1511 C1512 1.400 . S
C1511 C1516 1.490 . S
C1512 H1502 0.930 . S
C1512 C1511 1.400 . S
C1512 C1515 1.386 . S
H1513 C1529 0.930 . S
H1514 C1530 0.931 . S
C1515 H1503 0.929 . S
C1515 C1509 1.390 . S
C1515 C1512 1.386 . S
C1516 C1511 1.490 . S
C1516 C1518 1.395 1_655 S
C1516 C1519 1.403 . S
H1517 C1523 0.930 . S
C1518 H1504 0.930 . S
C1518 C1516 1.395 1_455 S
C1518 C1521 1.403 . S
C1519 C1516 1.403 . S
C1519 C1520 1.524 . S
C1519 C1523 1.400 . S
C1520 H1505 0.960 . S
C1520 H1506 0.960 . S
C1520 H1507 0.960 . S
C1520 C1519 1.524 . S
C1521 C1518 1.403 . S
C1521 C1522 1.392 . S
C1521 C1525 1.495 . S
C1522 C1521 1.392 . S
C1522 C1523 1.385 1_455 S
C1522 C1524 1.478 . S
C1523 H1517 0.930 . S
C1523 C1519 1.400 . S
C1523 C1522 1.385 1_655 S
C1524 C1522 1.478 . S
C1524 C1526 1.381 . S
C1524 C1530 1.383 . S
C1525 C1521 1.495 . S
C1525 H1531 0.959 . S
C1525 H1532 0.961 . S
C1525 H1533 0.960 . S
C1526 C1524 1.381 . S
C1526 C1527 1.394 . S
C1526 H1534 0.930 . S
C1527 C1526 1.394 . S
C1527 C1528 1.383 . S
C1527 H1535 0.929 . S
C1528 C1527 1.383 . S
C1528 C1529 1.377 . S
C1529 H1513 0.930 . S
C1529 C1528 1.377 . S
C1529 C1530 1.379 . S
C1530 H1514 0.931 . S
C1530 C1524 1.383 . S
C1530 C1529 1.379 . S
H1531 C1525 0.959 . S
H1532 C1525 0.961 . S
H1533 C1525 0.960 . S
H1534 C1526 0.930 . S
H1535 C1527 0.929 . S
H1536 C1544 0.929 . S
H1537 C1546 0.930 . S
H1538 C1548 0.930 . S
H1539 C1551 0.929 . S
H1540 C1554 0.930 . S
H1541 C1556 0.960 . S
H1542 C1556 0.960 . S
H1543 C1556 0.960 . S
C1544 H1536 0.929 . S
C1544 C1545 1.377 . S
C1544 C1546 1.384 . S
C1545 C1544 1.377 . S
C1545 C1551 1.390 . S
C1546 H1537 0.930 . S
C1546 C1544 1.384 . S
C1546 C1547 1.372 . S
C1547 C1546 1.372 . S
C1547 C1548 1.400 . S
C1547 C1552 1.490 . S
C1548 H1538 0.930 . S
C1548 C1547 1.400 . S
C1548 C1551 1.386 . S
H1549 C1565 0.930 . S
H1550 C1566 0.931 . S
C1551 H1539 0.929 . S
C1551 C1545 1.390 . S
C1551 C1548 1.386 . S
C1552 C1547 1.490 . S
C1552 C1554 1.395 . S
C1552 C1555 1.403 . S
H1553 C1559 0.930 . S
C1554 H1540 0.930 . S
C1554 C1552 1.395 . S
C1554 C1557 1.403 . S
C1555 C1552 1.403 . S
C1555 C1556 1.524 . S
C1555 C1559 1.400 . S
C1556 H1541 0.960 . S
C1556 H1542 0.960 . S
C1556 H1543 0.960 . S
C1556 C1555 1.524 . S
C1557 C1554 1.403 . S
C1557 C1558 1.392 . S
C1557 C1561 1.495 . S
C1558 C1557 1.392 . S
C1558 C1559 1.385 . S
C1558 C1560 1.478 . S
C1559 H1553 0.930 . S
C1559 C1555 1.400 . S
C1559 C1558 1.385 . S
C1560 C1558 1.478 . S
C1560 C1562 1.381 . S
C1560 C1566 1.383 . S
C1561 C1557 1.495 . S
C1561 H1567 0.959 . S
C1561 H1568 0.961 . S
C1561 H1569 0.960 . S
C1562 C1560 1.381 . S
C1562 C1563 1.394 . S
C1562 H1570 0.930 . S
C1563 C1562 1.394 . S
C1563 C1564 1.383 . S
C1563 H1571 0.929 . S
C1564 C1563 1.383 . S
C1564 C1565 1.377 . S
C1565 H1549 0.930 . S
C1565 C1564 1.377 . S
C1565 C1566 1.379 . S
C1566 H1550 0.931 . S
C1566 C1560 1.383 . S
C1566 C1565 1.379 . S
H1567 C1561 0.959 . S
H1568 C1561 0.961 . S
H1569 C1561 0.960 . S
H1570 C1562 0.930 . S
H1571 C1563 0.929 . S
H1572 C1580 0.929 . S
H1573 C1582 0.930 . S
H1574 C1584 0.930 . S
H1575 C1587 0.929 . S
H1576 C1590 0.930 . S
H1577 C1592 0.960 . S
H1578 C1592 0.938 1_545 S
H1579 C1592 0.960 . S
C1580 H1572 0.929 . S
C1580 C1581 1.377 . S
C1580 C1582 1.384 . S
C1581 C1580 1.377 . S
C1581 C1587 1.390 . S
C1582 H1573 0.930 . S
C1582 C1580 1.384 . S
C1582 C1583 1.372 . S
C1583 C1582 1.372 . S
C1583 C1584 1.400 . S
C1583 C1588 1.490 . S
C1584 H1574 0.930 . S
C1584 C1583 1.400 . S
C1584 C1587 1.386 . S
H1585 C1601 0.930 . S
H1586 C1602 0.931 . S
C1587 H1575 0.929 . S
C1587 C1581 1.390 . S
C1587 C1584 1.386 . S
C1588 C1583 1.490 . S
C1588 C1590 1.395 . S
C1588 C1591 1.403 1_545 S
H1589 C1595 0.930 . S
C1590 H1576 0.930 . S
C1590 C1588 1.395 . S
C1590 C1593 1.403 . S
C1591 C1588 1.403 1_565 S
C1591 C1592 1.524 . S
C1591 C1595 1.400 . S
C1592 H1577 0.960 . S
C1592 H1578 0.938 1_565 S
C1592 H1579 0.960 . S
C1592 C1591 1.524 . S
C1593 C1590 1.403 . S
C1593 C1594 1.392 1_545 S
C1593 C1597 1.495 . S
C1594 C1593 1.392 1_565 S
C1594 C1595 1.385 . S
C1594 C1596 1.478 . S
C1595 H1589 0.930 . S
C1595 C1591 1.400 . S
C1595 C1594 1.385 . S
C1596 C1594 1.478 . S
C1596 C1598 1.381 . S
C1596 C1602 1.383 . S
C1597 C1593 1.495 . S
C1597 H1603 0.959 . S
C1597 H1604 0.961 . S
C1597 H1605 0.960 . S
C1598 C1596 1.381 . S
C1598 C1599 1.394 . S
C1598 H1606 0.930 . S
C1599 C1598 1.394 . S
C1599 C1600 1.383 . S
C1599 H1607 0.929 . S
C1600 C1599 1.383 . S
C1600 C1601 1.377 . S
C1601 H1585 0.930 . S
C1601 C1600 1.377 . S
C1601 C1602 1.379 . S
C1602 H1586 0.931 . S
C1602 C1596 1.383 . S
C1602 C1601 1.379 . S
H1603 C1597 0.959 . S
H1604 C1597 0.961 . S
H1605 C1597 0.960 . S
H1606 C1598 0.930 . S
H1607 C1599 0.929 . S
H1608 C1616 0.929 . S
H1609 C1618 0.930 . S
H1610 C1620 0.930 . S
H1611 C1623 0.929 . S
H1612 C1626 0.930 . S
H1613 C1628 0.960 . S
H1614 C1628 0.960 . S
H1615 C1628 0.960 . S
C1616 H1608 0.929 . S
C1616 C1617 1.377 . S
C1616 C1618 1.384 . S
C1617 C1616 1.377 . S
C1617 C1623 1.390 . S
C1618 H1609 0.930 . S
C1618 C1616 1.384 . S
C1618 C1619 1.372 . S
C1619 C1618 1.372 . S
C1619 C1620 1.400 . S
C1619 C1624 1.490 . S
C1620 H1610 0.930 . S
C1620 C1619 1.400 . S
C1620 C1623 1.386 . S
H1621 C1637 0.930 . S
H1622 C1638 0.931 . S
C1623 H1611 0.929 . S
C1623 C1617 1.390 . S
C1623 C1620 1.386 . S
C1624 C1619 1.490 . S
C1624 C1626 1.395 . S
C1624 C1627 1.403 1_655 S
H1625 C1631 0.930 . S
C1626 H1612 0.930 . S
C1626 C1624 1.395 . S
C1626 C1629 1.403 . S
C1627 C1624 1.403 1_455 S
C1627 C1628 1.524 . S
C1627 C1631 1.400 . S
C1628 H1613 0.960 . S
C1628 H1614 0.960 . S
C1628 H1615 0.960 . S
C1628 C1627 1.524 . S
C1629 C1626 1.403 . S
C1629 C1630 1.392 1_655 S
C1629 C1633 1.495 . S
C1630 C1629 1.392 1_455 S
C1630 C1631 1.385 . S
C1630 C1632 1.478 . S
C1631 H1625 0.930 . S
C1631 C1627 1.400 . S
C1631 C1630 1.385 . S
C1632 C1630 1.478 . S
C1632 C1634 1.381 . S
C1632 C1638 1.383 . S
C1633 C1629 1.495 . S
C1633 H1639 0.959 . S
C1633 H1640 0.961 . S
C1633 H1641 0.960 . S
C1634 C1632 1.381 . S
C1634 C1635 1.394 . S
C1634 H1642 0.930 . S
C1635 C1634 1.394 . S
C1635 C1636 1.383 . S
C1635 H1643 0.929 . S
C1636 C1635 1.383 . S
C1636 C1637 1.377 . S
C1637 H1621 0.930 . S
C1637 C1636 1.377 . S
C1637 C1638 1.379 . S
C1638 H1622 0.931 . S
C1638 C1632 1.383 . S
C1638 C1637 1.379 . S
H1639 C1633 0.959 . S
H1640 C1633 0.961 . S
H1641 C1633 0.960 . S
H1642 C1634 0.930 . S
H1643 C1635 0.929 . S
H1644 C1652 0.929 . S
H1645 C1654 0.930 . S
H1646 C1656 0.930 . S
H1647 C1659 0.929 . S
H1648 C1662 0.930 . S
H1649 C1664 0.960 . S
H1650 C1664 0.960 . S
H1651 C1664 0.960 . S
C1652 H1644 0.929 . S
C1652 C1653 1.377 . S
C1652 C1654 1.384 . S
C1653 C1652 1.377 . S
C1653 C1659 1.390 . S
C1654 H1645 0.930 . S
C1654 C1652 1.384 . S
C1654 C1655 1.372 . S
C1655 C1654 1.372 . S
C1655 C1656 1.400 . S
C1655 C1660 1.490 . S
C1656 H1646 0.930 . S
C1656 C1655 1.400 . S
C1656 C1659 1.386 . S
H1657 C1673 0.930 . S
H1658 C1674 0.931 . S
C1659 H1647 0.929 . S
C1659 C1653 1.390 . S
C1659 C1656 1.386 . S
C1660 C1655 1.490 . S
C1660 C1662 1.395 . S
C1660 C1663 1.403 . S
H1661 C1667 0.930 . S
C1662 H1648 0.930 . S
C1662 C1660 1.395 . S
C1662 C1665 1.403 1_554 S
C1663 C1660 1.403 . S
C1663 C1664 1.524 . S
C1663 C1667 1.400 1_554 S
C1664 H1649 0.960 . S
C1664 H1650 0.960 . S
C1664 H1651 0.960 . S
C1664 C1663 1.524 . S
C1665 C1662 1.403 1_556 S
C1665 C1666 1.392 . S
C1665 C1669 1.495 . S
C1666 C1665 1.392 . S
C1666 C1667 1.385 . S
C1666 C1668 1.478 . S
C1667 H1661 0.930 . S
C1667 C1663 1.400 1_556 S
C1667 C1666 1.385 . S
C1668 C1666 1.478 . S
C1668 C1670 1.381 . S
C1668 C1674 1.383 . S
C1669 C1665 1.495 . S
C1669 H1675 0.971 . S
C1669 H1676 0.961 . S
C1669 H1677 0.960 . S
C1670 C1668 1.381 . S
C1670 C1671 1.394 . S
C1670 H1678 0.930 . S
C1671 C1670 1.394 . S
C1671 C1672 1.383 . S
C1671 H1679 0.929 . S
C1672 C1671 1.383 . S
C1672 C1673 1.377 . S
C1673 H1657 0.930 . S
C1673 C1672 1.377 . S
C1673 C1674 1.379 . S
C1674 H1658 0.931 . S
C1674 C1668 1.383 . S
C1674 C1673 1.379 . S
H1675 C1669 0.971 . S
H1676 C1669 0.961 . S
H1677 C1669 0.960 . S
H1678 C1670 0.930 . S
H1679 C1671 0.929 . S
H1680 C1688 0.929 . S
H1681 C1690 0.930 . S
H1682 C1692 0.930 . S
H1683 C1695 0.929 . S
H1684 C1698 0.930 . S
H1685 C1700 0.960 . S
H1686 C1700 0.960 . S
H1687 C1700 0.960 . S
C1688 H1680 0.929 . S
C1688 C1689 1.377 . S
C1688 C1690 1.384 . S
C1689 C1688 1.377 . S
C1689 C1695 1.390 . S
C1690 H1681 0.930 . S
C1690 C1688 1.384 . S
C1690 C1691 1.372 . S
C1691 C1690 1.372 . S
C1691 C1692 1.400 . S
C1691 C1696 1.490 . S
C1692 H1682 0.930 . S
C1692 C1691 1.400 . S
C1692 C1695 1.386 . S
H1693 C1709 0.930 . S
H1694 C1710 0.931 . S
C1695 H1683 0.929 . S
C1695 C1689 1.390 . S
C1695 C1692 1.386 . S
C1696 C1691 1.490 . S
C1696 C1698 1.395 1_455 S
C1696 C1699 1.403 . S
H1697 C1703 0.930 . S
C1698 H1684 0.930 . S
C1698 C1696 1.395 1_655 S
C1698 C1701 1.403 1_556 S
C1699 C1696 1.403 . S
C1699 C1700 1.524 . S
C1699 C1703 1.400 1_556 S
C1700 H1685 0.960 . S
C1700 H1686 0.960 . S
C1700 H1687 0.960 . S
C1700 C1699 1.524 . S
C1701 C1698 1.403 1_554 S
C1701 C1702 1.392 . S
C1701 C1705 1.495 . S
C1702 C1701 1.392 . S
C1702 C1703 1.385 1_655 S
C1702 C1704 1.478 . S
C1703 H1697 0.930 . S
C1703 C1699 1.400 1_554 S
C1703 C1702 1.385 1_455 S
C1704 C1702 1.478 . S
C1704 C1706 1.381 . S
C1704 C1710 1.383 . S
C1705 C1701 1.495 . S
C1705 H1711 0.959 . S
C1705 H1712 0.961 . S
C1705 H1713 0.960 . S
C1706 C1704 1.381 . S
C1706 C1707 1.394 . S
C1706 H1714 0.930 . S
C1707 C1706 1.394 . S
C1707 C1708 1.383 . S
C1707 H1715 0.929 . S
C1708 C1707 1.383 . S
C1708 C1709 1.377 . S
C1709 H1693 0.930 . S
C1709 C1708 1.377 . S
C1709 C1710 1.379 . S
C1710 H1694 0.931 . S
C1710 C1704 1.383 . S
C1710 C1709 1.379 . S
H1711 C1705 0.959 . S
H1712 C1705 0.961 . S
H1713 C1705 0.960 . S
H1714 C1706 0.930 . S
H1715 C1707 0.929 . S
H1716 C1724 0.929 . S
H1717 C1726 0.930 . S
H1718 C1728 0.930 . S
H1719 C1731 0.929 . S
H1720 C1734 0.930 . S
H1721 C1736 0.960 . S
H1722 C1736 0.960 . S
H1723 C1736 0.960 . S
C1724 H1716 0.929 . S
C1724 C1725 1.377 . S
C1724 C1726 1.384 . S
C1725 C1724 1.377 . S
C1725 C1731 1.390 . S
C1726 H1717 0.930 . S
C1726 C1724 1.384 . S
C1726 C1727 1.372 . S
C1727 C1726 1.372 . S
C1727 C1728 1.400 . S
C1727 C1732 1.490 . S
C1728 H1718 0.930 . S
C1728 C1727 1.400 . S
C1728 C1731 1.386 . S
H1729 C1745 0.930 . S
H1730 C1746 0.931 . S
C1731 H1719 0.929 . S
C1731 C1725 1.390 . S
C1731 C1728 1.386 . S
C1732 C1727 1.490 . S
C1732 C1734 1.395 . S
C1732 C1735 1.403 . S
H1733 C1739 0.930 . S
C1734 H1720 0.930 . S
C1734 C1732 1.395 . S
C1734 C1737 1.403 . S
C1735 C1732 1.403 . S
C1735 C1736 1.524 . S
C1735 C1739 1.400 . S
C1736 H1721 0.960 . S
C1736 H1722 0.960 . S
C1736 H1723 0.960 . S
C1736 C1735 1.524 . S
C1737 C1734 1.403 . S
C1737 C1738 1.392 . S
C1737 C1741 1.495 . S
C1738 C1737 1.392 . S
C1738 C1739 1.385 . S
C1738 C1740 1.478 . S
C1739 H1733 0.930 . S
C1739 C1735 1.400 . S
C1739 C1738 1.385 . S
C1740 C1738 1.478 . S
C1740 C1742 1.381 . S
C1740 C1746 1.383 . S
C1741 C1737 1.495 . S
C1741 H1747 0.959 . S
C1741 H1748 0.961 . S
C1741 H1749 0.960 . S
C1742 C1740 1.381 . S
C1742 C1743 1.394 . S
C1742 H1750 0.930 . S
C1743 C1742 1.394 . S
C1743 C1744 1.383 . S
C1743 H1751 0.929 . S
C1744 C1743 1.383 . S
C1744 C1745 1.377 . S
C1745 H1729 0.930 . S
C1745 C1744 1.377 . S
C1745 C1746 1.379 . S
C1746 H1730 0.931 . S
C1746 C1740 1.383 . S
C1746 C1745 1.379 . S
H1747 C1741 0.959 . S
H1748 C1741 0.961 . S
H1749 C1741 0.960 . S
H1750 C1742 0.930 . S
H1751 C1743 0.929 . S
H1752 C1760 0.929 . S
H1753 C1762 0.930 . S
H1754 C1764 0.930 . S
H1755 C1767 0.929 . S
H1756 C1770 0.930 . S
H1757 C1772 0.960 . S
H1758 C1772 0.960 . S
H1759 C1772 0.960 . S
C1760 H1752 0.929 . S
C1760 C1761 1.377 . S
C1760 C1762 1.384 . S
C1761 C1760 1.377 . S
C1761 C1767 1.390 . S
C1762 H1753 0.930 . S
C1762 C1760 1.384 . S
C1762 C1763 1.372 . S
C1763 C1762 1.372 . S
C1763 C1764 1.400 . S
C1763 C1768 1.490 . S
C1764 H1754 0.930 . S
C1764 C1763 1.400 . S
C1764 C1767 1.386 . S
H1765 C1781 0.930 . S
H1766 C1782 0.931 . S
C1767 H1755 0.929 . S
C1767 C1761 1.390 . S
C1767 C1764 1.386 . S
C1768 C1763 1.490 . S
C1768 C1770 1.395 1_554 S
C1768 C1771 1.403 . S
H1769 C1775 0.930 . S
C1770 H1756 0.930 . S
C1770 C1768 1.395 1_556 S
C1770 C1773 1.403 . S
C1771 C1768 1.403 . S
C1771 C1772 1.524 . S
C1771 C1775 1.400 . S
C1772 H1757 0.960 . S
C1772 H1758 0.960 . S
C1772 H1759 0.960 . S
C1772 C1771 1.524 . S
C1773 C1770 1.403 . S
C1773 C1774 1.392 . S
C1773 C1777 1.495 . S
C1774 C1773 1.392 . S
C1774 C1775 1.385 1_556 S
C1774 C1776 1.478 . S
C1775 H1769 0.930 . S
C1775 C1771 1.400 . S
C1775 C1774 1.385 1_554 S
C1776 C1774 1.478 . S
C1776 C1778 1.381 . S
C1776 C1782 1.383 . S
C1777 C1773 1.495 . S
C1777 H1783 0.959 . S
C1777 H1784 0.961 . S
C1777 H1785 0.960 . S
C1778 C1776 1.381 . S
C1778 C1779 1.394 . S
C1778 H1786 0.930 . S
C1779 C1778 1.394 . S
C1779 C1780 1.383 . S
C1779 H1787 0.929 . S
C1780 C1779 1.383 . S
C1780 C1781 1.377 . S
C1781 H1765 0.930 . S
C1781 C1780 1.377 . S
C1781 C1782 1.379 . S
C1782 H1766 0.931 . S
C1782 C1776 1.383 . S
C1782 C1781 1.379 . S
H1783 C1777 0.959 . S
H1784 C1777 0.961 . S
H1785 C1777 0.960 . S
H1786 C1778 0.930 . S
H1787 C1779 0.929 . S
H1788 C1796 0.929 . S
H1789 C1798 0.930 . S
H1790 C1800 0.930 . S
H1791 C1803 0.929 . S
H1792 C1806 0.930 . S
H1793 C1808 0.960 . S
H1794 C1808 0.960 . S
H1795 C1808 0.960 . S
C1796 H1788 0.929 . S
C1796 C1797 1.377 . S
C1796 C1798 1.384 . S
C1797 C1796 1.377 . S
C1797 C1803 1.390 . S
C1798 H1789 0.930 . S
C1798 C1796 1.384 . S
C1798 C1799 1.372 . S
C1799 C1798 1.372 . S
C1799 C1800 1.400 . S
C1799 C1804 1.490 . S
C1800 H1790 0.930 . S
C1800 C1799 1.400 . S
C1800 C1803 1.386 . S
H1801 C1817 0.930 . S
H1802 C1818 0.931 . S
C1803 H1791 0.929 . S
C1803 C1797 1.390 . S
C1803 C1800 1.386 . S
C1804 C1799 1.490 . S
C1804 C1806 1.395 . S
C1804 C1807 1.403 . S
H1805 C1811 0.930 . S
C1806 H1792 0.930 . S
C1806 C1804 1.395 . S
C1806 C1809 1.403 . S
C1807 C1804 1.403 . S
C1807 C1808 1.524 . S
C1807 C1811 1.400 . S
C1808 H1793 0.960 . S
C1808 H1794 0.960 . S
C1808 H1795 0.960 . S
C1808 C1807 1.524 . S
C1809 C1806 1.403 . S
C1809 C1810 1.392 . S
C1809 C1813 1.495 . S
C1810 C1809 1.392 . S
C1810 C1811 1.385 . S
C1810 C1812 1.478 . S
C1811 H1805 0.930 . S
C1811 C1807 1.400 . S
C1811 C1810 1.385 . S
C1812 C1810 1.478 . S
C1812 C1814 1.381 . S
C1812 C1818 1.383 . S
C1813 C1809 1.495 . S
C1813 H1819 0.959 . S
C1813 H1820 0.961 . S
C1813 H1821 0.960 . S
C1814 C1812 1.381 . S
C1814 C1815 1.394 . S
C1814 H1822 0.930 . S
C1815 C1814 1.394 . S
C1815 C1816 1.383 . S
C1815 H1823 0.929 . S
C1816 C1815 1.383 . S
C1816 C1817 1.377 . S
C1817 H1801 0.930 . S
C1817 C1816 1.377 . S
C1817 C1818 1.379 . S
C1818 H1802 0.931 . S
C1818 C1812 1.383 . S
C1818 C1817 1.379 . S
H1819 C1813 0.959 . S
H1820 C1813 0.961 . S
H1821 C1813 0.960 . S
H1822 C1814 0.930 . S
H1823 C1815 0.929 . S
H1824 C1832 0.929 . S
H1825 C1834 0.930 . S
H1826 C1836 0.930 . S
H1827 C1839 0.929 . S
H1828 C1842 0.930 . S
H1829 C1844 0.960 . S
H1830 C1844 0.960 . S
H1831 C1844 0.960 . S
C1832 H1824 0.929 . S
C1832 C1833 1.377 . S
C1832 C1834 1.384 . S
C1833 C1832 1.377 . S
C1833 C1839 1.390 . S
C1834 H1825 0.930 . S
C1834 C1832 1.384 . S
C1834 C1835 1.372 . S
C1835 C1834 1.372 . S
C1835 C1836 1.400 . S
C1835 C1840 1.490 . S
C1836 H1826 0.930 . S
C1836 C1835 1.400 . S
C1836 C1839 1.386 . S
H1837 C1853 0.930 . S
H1838 C1854 0.931 . S
C1839 H1827 0.929 . S
C1839 C1833 1.390 . S
C1839 C1836 1.386 . S
C1840 C1835 1.490 . S
C1840 C1842 1.395 1_565 S
C1840 C1843 1.403 1_554 S
H1841 C1847 0.930 . S
C1842 H1828 0.930 . S
C1842 C1840 1.395 1_545 S
C1842 C1845 1.403 . S
C1843 C1840 1.403 1_556 S
C1843 C1844 1.524 . S
C1843 C1847 1.400 1_565 S
C1844 H1829 0.960 . S
C1844 H1830 0.960 . S
C1844 H1831 0.960 . S
C1844 C1843 1.524 . S
C1845 C1842 1.403 . S
C1845 C1846 1.392 1_554 S
C1845 C1849 1.495 . S
C1846 C1845 1.392 1_556 S
C1846 C1847 1.385 . S
C1846 C1848 1.478 . S
C1847 H1841 0.930 . S
C1847 C1843 1.400 1_545 S
C1847 C1846 1.385 . S
C1848 C1846 1.478 . S
C1848 C1850 1.381 . S
C1848 C1854 1.383 . S
C1849 C1845 1.495 . S
C1849 H1855 0.959 . S
C1849 H1856 0.961 . S
C1849 H1857 0.960 . S
C1850 C1848 1.381 . S
C1850 C1851 1.394 . S
C1850 H1858 0.930 . S
C1851 C1850 1.394 . S
C1851 C1852 1.383 . S
C1851 H1859 0.929 . S
C1852 C1851 1.383 . S
C1852 C1853 1.377 . S
C1853 H1837 0.930 . S
C1853 C1852 1.377 . S
C1853 C1854 1.379 . S
C1854 H1838 0.931 . S
C1854 C1848 1.383 . S
C1854 C1853 1.379 . S
H1855 C1849 0.959 . S
H1856 C1849 0.961 . S
H1857 C1849 0.960 . S
H1858 C1850 0.930 . S
H1859 C1851 0.929 . S
H1860 C1868 0.929 . S
H1861 C1870 0.930 . S
H1862 C1872 0.930 . S
H1863 C1875 0.929 . S
H1864 C1878 0.930 . S
H1865 C1880 0.960 . S
H1866 C1880 0.960 . S
H1867 C1880 0.960 . S
C1868 H1860 0.929 . S
C1868 C1869 1.377 . S
C1868 C1870 1.384 . S
C1869 C1868 1.377 . S
C1869 C1875 1.390 . S
C1870 H1861 0.930 . S
C1870 C1868 1.384 . S
C1870 C1871 1.372 . S
C1871 C1870 1.372 . S
C1871 C1872 1.400 . S
C1871 C1876 1.490 . S
C1872 H1862 0.930 . S
C1872 C1871 1.400 . S
C1872 C1875 1.386 . S
H1873 C1889 0.930 . S
H1874 C1890 0.931 . S
C1875 H1863 0.929 . S
C1875 C1869 1.390 . S
C1875 C1872 1.386 . S
C1876 C1871 1.490 . S
C1876 C1878 1.395 . S
C1876 C1879 1.403 . S
H1877 C1883 0.930 . S
C1878 H1864 0.930 . S
C1878 C1876 1.395 . S
C1878 C1881 1.403 . S
C1879 C1876 1.403 . S
C1879 C1880 1.524 . S
C1879 C1883 1.400 . S
C1880 H1865 0.960 . S
C1880 H1866 0.960 . S
C1880 H1867 0.960 . S
C1880 C1879 1.524 . S
C1881 C1878 1.403 . S
C1881 C1882 1.392 . S
C1881 C1885 1.495 . S
C1882 C1881 1.392 . S
C1882 C1883 1.385 . S
C1882 C1884 1.478 . S
C1883 H1877 0.930 . S
C1883 C1879 1.400 . S
C1883 C1882 1.385 . S
C1884 C1882 1.478 . S
C1884 C1886 1.381 . S
C1884 C1890 1.383 . S
C1885 C1881 1.495 . S
C1885 H1891 0.959 . S
C1885 H1892 0.961 . S
C1885 H1893 0.960 . S
C1886 C1884 1.381 . S
C1886 C1887 1.394 . S
C1886 H1894 0.930 . S
C1887 C1886 1.394 . S
C1887 C1888 1.383 . S
C1887 H1895 0.929 . S
C1888 C1887 1.383 . S
C1888 C1889 1.377 . S
C1889 H1873 0.930 . S
C1889 C1888 1.377 . S
C1889 C1890 1.379 . S
C1890 H1874 0.931 . S
C1890 C1884 1.383 . S
C1890 C1889 1.379 . S
H1891 C1885 0.959 . S
H1892 C1885 0.961 . S
H1893 C1885 0.960 . S
H1894 C1886 0.930 . S
H1895 C1887 0.929 . S
H1896 C1904 0.929 . S
H1897 C1906 0.930 . S
H1898 C1908 0.930 . S
H1899 C1911 0.929 . S
H1900 C1914 0.930 . S
H1901 C1916 0.960 . S
H1902 C1916 0.960 . S
H1903 C1916 0.960 . S
C1904 H1896 0.929 . S
C1904 C1905 1.377 . S
C1904 C1906 1.384 . S
C1905 C1904 1.377 . S
C1905 C1911 1.390 . S
C1906 H1897 0.930 . S
C1906 C1904 1.384 . S
C1906 C1907 1.372 . S
C1907 C1906 1.372 . S
C1907 C1908 1.400 . S
C1907 C1912 1.490 . S
C1908 H1898 0.930 . S
C1908 C1907 1.400 . S
C1908 C1911 1.386 . S
H1909 C1925 0.930 . S
H1910 C1926 0.931 . S
C1911 H1899 0.929 . S
C1911 C1905 1.390 . S
C1911 C1908 1.386 . S
C1912 C1907 1.490 . S
C1912 C1914 1.395 . S
C1912 C1915 1.403 . S
H1913 C1919 0.930 . S
C1914 H1900 0.930 . S
C1914 C1912 1.395 . S
C1914 C1917 1.403 . S
C1915 C1912 1.403 . S
C1915 C1916 1.524 . S
C1915 C1919 1.400 . S
C1916 H1901 0.960 . S
C1916 H1902 0.960 . S
C1916 H1903 0.960 . S
C1916 C1915 1.524 . S
C1917 C1914 1.403 . S
C1917 C1918 1.392 . S
C1917 C1921 1.495 . S
C1918 C1917 1.392 . S
C1918 C1919 1.385 . S
C1918 C1920 1.478 . S
C1919 H1913 0.930 . S
C1919 C1915 1.400 . S
C1919 C1918 1.385 . S
C1920 C1918 1.478 . S
C1920 C1922 1.381 . S
C1920 C1926 1.383 . S
C1921 C1917 1.495 . S
C1921 H1927 0.959 . S
C1921 H1928 0.961 . S
C1921 H1929 0.960 . S
C1922 C1920 1.381 . S
C1922 C1923 1.394 . S
C1922 H1930 0.930 . S
C1923 C1922 1.394 . S
C1923 C1924 1.383 . S
C1923 H1931 0.929 . S
C1924 C1923 1.383 . S
C1924 C1925 1.377 . S
C1925 H1909 0.930 . S
C1925 C1924 1.377 . S
C1925 C1926 1.379 . S
C1926 H1910 0.931 . S
C1926 C1920 1.383 . S
C1926 C1925 1.379 . S
H1927 C1921 0.959 . S
H1928 C1921 0.961 . S
H1929 C1921 0.960 . S
H1930 C1922 0.930 . S
H1931 C1923 0.929 . S
H1932 C1940 0.929 . S
H1933 C1942 0.930 . S
H1934 C1944 0.930 . S
H1935 C1947 0.929 . S
H1936 C1950 0.930 . S
H1937 C1952 0.960 . S
H1938 C1952 0.960 . S
H1939 C1952 0.960 . S
C1940 H1932 0.929 . S
C1940 C1941 1.377 . S
C1940 C1942 1.384 . S
C1941 C1940 1.377 . S
C1941 C1947 1.390 . S
C1942 H1933 0.930 . S
C1942 C1940 1.384 . S
C1942 C1943 1.372 . S
C1943 C1942 1.372 . S
C1943 C1944 1.400 . S
C1943 C1948 1.490 . S
C1944 H1934 0.930 . S
C1944 C1943 1.400 . S
C1944 C1947 1.386 . S
H1945 C1961 0.930 . S
H1946 C1962 0.931 . S
C1947 H1935 0.929 . S
C1947 C1941 1.390 . S
C1947 C1944 1.386 . S
C1948 C1943 1.490 . S
C1948 C1950 1.395 . S
C1948 C1951 1.403 . S
H1949 C1955 0.930 . S
C1950 H1936 0.930 . S
C1950 C1948 1.395 . S
C1950 C1953 1.403 . S
C1951 C1948 1.403 . S
C1951 C1952 1.524 . S
C1951 C1955 1.400 . S
C1952 H1937 0.960 . S
C1952 H1938 0.960 . S
C1952 H1939 0.960 . S
C1952 C1951 1.524 . S
C1953 C1950 1.403 . S
C1953 C1954 1.392 . S
C1953 C1957 1.495 . S
C1954 C1953 1.392 . S
C1954 C1955 1.385 . S
C1954 C1956 1.478 . S
C1955 H1949 0.930 . S
C1955 C1951 1.400 . S
C1955 C1954 1.385 . S
C1956 C1954 1.478 . S
C1956 C1958 1.381 . S
C1956 C1962 1.383 . S
C1957 C1953 1.495 . S
C1957 H1963 0.959 . S
C1957 H1964 0.961 . S
C1957 H1965 0.960 . S
C1958 C1956 1.381 . S
C1958 C1959 1.394 . S
C1958 H1966 0.930 . S
C1959 C1958 1.394 . S
C1959 C1960 1.383 . S
C1959 H1967 0.929 . S
C1960 C1959 1.383 . S
C1960 C1961 1.377 . S
C1961 H1945 0.930 . S
C1961 C1960 1.377 . S
C1961 C1962 1.379 . S
C1962 H1946 0.931 . S
C1962 C1956 1.383 . S
C1962 C1961 1.379 . S
H1963 C1957 0.959 . S
H1964 C1957 0.961 . S
H1965 C1957 0.960 . S
H1966 C1958 0.930 . S
H1967 C1959 0.929 . S
C537 N2 0.555 . S
C556 N299 0.521 . S
C573 N13 0.505 . S
C592 N310 0.482 . S
C609 N277 0.504 . S
C628 N46 0.487 . S
C645 N35 0.557 . S
C664 N266 0.521 . S
C681 N68 0.557 . S
C700 N365 0.534 . S
C717 N79 0.502 . S
C736 N376 0.537 . S
C753 N112 0.492 . S
C772 N343 0.479 . S
C789 N101 0.544 . S
C808 N332 0.554 . S
C825 N134 0.554 . S
C844 N431 0.560 . S
C861 N442 0.501 . S
C880 N145 0.497 . S
C897 N409 0.500 . S
C916 N178 0.511 . S
C933 N398 0.554 . S
C952 N167 0.558 . S
C969 N497 0.544 . S
C988 N200 0.547 . S
C1005 N508 0.493 . S
C1024 N211 0.490 . S
C1041 N475 0.509 . S
C1060 N244 0.518 . S
C1077 N233 0.555 . S
C1096 N464 0.525 . S
C1113 C21 1.032 . S
C1132 C54 1.032 . S
C1149 C120 1.032 . S
C1168 C87 1.032 . S
C1185 C186 1.032 . S
C1204 C153 1.032 . S
C1221 C252 1.033 . S
C1240 C219 1.029 . S
C1257 C318 1.033 . S
C1276 C285 1.032 . S
C1293 C351 1.032 . S
C1312 C384 1.032 . S
C1329 C450 1.032 . S
C1348 C417 1.030 . S
C1365 C483 1.033 . S
C1384 C516 1.029 . S
C1401 C469 1.834 . S
C1420 C7 1.847 . S
C1437 C84 1.870 . S
C1456 C18 1.870 . S
C1473 C381 1.869 . S
C1492 C51 1.858 . S
C1509 C238 1.834 . S
C1528 C40 1.848 . S
C1545 C73 1.835 . S
C1564 C403 1.849 . S
C1581 C315 1.867 . S
C1600 C117 1.878 . S
C1617 C106 1.833 . S
C1636 C172 1.811 . S
C1653 C337 1.835 . S
C1672 C139 1.849 . S
C1689 C150 1.868 . S
C1708 C216 1.879 . S
C1725 C183 1.869 . S
C1744 C513 1.877 . S
C1761 C205 1.830 . S
C1780 C271 1.816 . S
C1797 C249 1.870 . S
C1816 C447 1.868 . S
C1833 C348 1.870 . S
C1852 C282 1.865 . S
C1869 C502 1.830 . S
C1888 C304 1.821 . S
C1905 C370 1.834 . S
C1924 C436 1.847 . S
C1941 C414 1.865 . S
C1960 C480 1.847 . S
