# Generated by pormake.
# Topology upd, (4)-cn, num edge types: 1
# Building blocks:
#     Node 0, Type 0, BuildingBlock: ESEHIV_clean_sbu_0, # of connection points: 4
#     Node 1, Type 0, BuildingBlock: ESEHIV_clean_sbu_0, # of connection points: 4
#     Node 2, Type 0, BuildingBlock: ESEHIV_clean_sbu_0, # of connection points: 4
#     Node 3, Type 0, BuildingBlock: ESEHIV_clean_sbu_0, # of connection points: 4
#     Node 4, Type 0, BuildingBlock: ESEHIV_clean_sbu_0, # of connection points: 4
#     Node 5, Type 0, BuildingBlock: ESEHIV_clean_sbu_0, # of connection points: 4
#     Node 6, Type 0, BuildingBlock: ESEHIV_clean_sbu_0, # of connection points: 4
#     Node 7, Type 0, BuildingBlock: ESEHIV_clean_sbu_0, # of connection points: 4
#     Node 8, Type 0, BuildingBlock: ESEHIV_clean_sbu_0, # of connection points: 4
#     Node 9, Type 0, BuildingBlock: ESEHIV_clean_sbu_0, # of connection points: 4
#     Node 10, Type 0, BuildingBlock: ESEHIV_clean_sbu_0, # of connection points: 4
#     Node 11, Type 0, BuildingBlock: ESEHIV_clean_sbu_0, # of connection points: 4
#     Node 12, Type 0, BuildingBlock: ESEHIV_clean_sbu_0, # of connection points: 4
#     Node 13, Type 0, BuildingBlock: ESEHIV_clean_sbu_0, # of connection points: 4
#     Node 14, Type 0, BuildingBlock: ESEHIV_clean_sbu_0, # of connection points: 4
#     Node 15, Type 0, BuildingBlock: ESEHIV_clean_sbu_0, # of connection points: 4
#     Node 16, Type 0, BuildingBlock: ESEHIV_clean_sbu_0, # of connection points: 4
#     Node 17, Type 0, BuildingBlock: ESEHIV_clean_sbu_0, # of connection points: 4
#     Node 18, Type 0, BuildingBlock: ESEHIV_clean_sbu_0, # of connection points: 4
#     Node 19, Type 0, BuildingBlock: ESEHIV_clean_sbu_0, # of connection points: 4
#     Node 20, Type 0, BuildingBlock: ESEHIV_clean_sbu_0, # of connection points: 4
#     Node 21, Type 0, BuildingBlock: ESEHIV_clean_sbu_0, # of connection points: 4
#     Node 22, Type 0, BuildingBlock: ESEHIV_clean_sbu_0, # of connection points: 4
#     Node 23, Type 0, BuildingBlock: ESEHIV_clean_sbu_0, # of connection points: 4
#     Node 24, Type 0, BuildingBlock: ESEHIV_clean_sbu_0, # of connection points: 4
#     Node 25, Type 0, BuildingBlock: ESEHIV_clean_sbu_0, # of connection points: 4
#     Node 26, Type 0, BuildingBlock: ESEHIV_clean_sbu_0, # of connection points: 4
#     Node 27, Type 0, BuildingBlock: ESEHIV_clean_sbu_0, # of connection points: 4
#     Node 28, Type 0, BuildingBlock: ESEHIV_clean_sbu_0, # of connection points: 4
#     Node 29, Type 0, BuildingBlock: ESEHIV_clean_sbu_0, # of connection points: 4
#     Node 30, Type 0, BuildingBlock: ESEHIV_clean_sbu_0, # of connection points: 4
#     Node 31, Type 0, BuildingBlock: ESEHIV_clean_sbu_0, # of connection points: 4
#     Edge 32, Type (0, 0), BuildingBlock: KIFKEQ_clean_linker_1, # of connection points: 2
#     Edge 33, Type (0, 0), BuildingBlock: KIFKEQ_clean_linker_1, # of connection points: 2
#     Edge 34, Type (0, 0), BuildingBlock: KIFKEQ_clean_linker_1, # of connection points: 2
#     Edge 35, Type (0, 0), BuildingBlock: KIFKEQ_clean_linker_1, # of connection points: 2
#     Edge 36, Type (0, 0), BuildingBlock: KIFKEQ_clean_linker_1, # of connection points: 2
#     Edge 37, Type (0, 0), BuildingBlock: KIFKEQ_clean_linker_1, # of connection points: 2
#     Edge 38, Type (0, 0), BuildingBlock: KIFKEQ_clean_linker_1, # of connection points: 2
#     Edge 39, Type (0, 0), BuildingBlock: KIFKEQ_clean_linker_1, # of connection points: 2
#     Edge 40, Type (0, 0), BuildingBlock: KIFKEQ_clean_linker_1, # of connection points: 2
#     Edge 41, Type (0, 0), BuildingBlock: KIFKEQ_clean_linker_1, # of connection points: 2
#     Edge 42, Type (0, 0), BuildingBlock: KIFKEQ_clean_linker_1, # of connection points: 2
#     Edge 43, Type (0, 0), BuildingBlock: KIFKEQ_clean_linker_1, # of connection points: 2
#     Edge 44, Type (0, 0), BuildingBlock: KIFKEQ_clean_linker_1, # of connection points: 2
#     Edge 45, Type (0, 0), BuildingBlock: KIFKEQ_clean_linker_1, # of connection points: 2
#     Edge 46, Type (0, 0), BuildingBlock: KIFKEQ_clean_linker_1, # of connection points: 2
#     Edge 47, Type (0, 0), BuildingBlock: KIFKEQ_clean_linker_1, # of connection points: 2
#     Edge 48, Type (0, 0), BuildingBlock: KIFKEQ_clean_linker_1, # of connection points: 2
#     Edge 49, Type (0, 0), BuildingBlock: KIFKEQ_clean_linker_1, # of connection points: 2
#     Edge 50, Type (0, 0), BuildingBlock: KIFKEQ_clean_linker_1, # of connection points: 2
#     Edge 51, Type (0, 0), BuildingBlock: KIFKEQ_clean_linker_1, # of connection points: 2
#     Edge 52, Type (0, 0), BuildingBlock: KIFKEQ_clean_linker_1, # of connection points: 2
#     Edge 53, Type (0, 0), BuildingBlock: KIFKEQ_clean_linker_1, # of connection points: 2
#     Edge 54, Type (0, 0), BuildingBlock: KIFKEQ_clean_linker_1, # of connection points: 2
#     Edge 55, Type (0, 0), BuildingBlock: KIFKEQ_clean_linker_1, # of connection points: 2
#     Edge 56, Type (0, 0), BuildingBlock: KIFKEQ_clean_linker_1, # of connection points: 2
#     Edge 57, Type (0, 0), BuildingBlock: KIFKEQ_clean_linker_1, # of connection points: 2
#     Edge 58, Type (0, 0), BuildingBlock: KIFKEQ_clean_linker_1, # of connection points: 2
#     Edge 59, Type (0, 0), BuildingBlock: KIFKEQ_clean_linker_1, # of connection points: 2
#     Edge 60, Type (0, 0), BuildingBlock: KIFKEQ_clean_linker_1, # of connection points: 2
#     Edge 61, Type (0, 0), BuildingBlock: KIFKEQ_clean_linker_1, # of connection points: 2
#     Edge 62, Type (0, 0), BuildingBlock: KIFKEQ_clean_linker_1, # of connection points: 2
#     Edge 63, Type (0, 0), BuildingBlock: KIFKEQ_clean_linker_1, # of connection points: 2
#     Edge 64, Type (0, 0), BuildingBlock: KIFKEQ_clean_linker_1, # of connection points: 2
#     Edge 65, Type (0, 0), BuildingBlock: KIFKEQ_clean_linker_1, # of connection points: 2
#     Edge 66, Type (0, 0), BuildingBlock: KIFKEQ_clean_linker_1, # of connection points: 2
#     Edge 67, Type (0, 0), BuildingBlock: KIFKEQ_clean_linker_1, # of connection points: 2
#     Edge 68, Type (0, 0), BuildingBlock: KIFKEQ_clean_linker_1, # of connection points: 2
#     Edge 69, Type (0, 0), BuildingBlock: KIFKEQ_clean_linker_1, # of connection points: 2
#     Edge 70, Type (0, 0), BuildingBlock: KIFKEQ_clean_linker_1, # of connection points: 2
#     Edge 71, Type (0, 0), BuildingBlock: KIFKEQ_clean_linker_1, # of connection points: 2
#     Edge 72, Type (0, 0), BuildingBlock: KIFKEQ_clean_linker_1, # of connection points: 2
#     Edge 73, Type (0, 0), BuildingBlock: KIFKEQ_clean_linker_1, # of connection points: 2
#     Edge 74, Type (0, 0), BuildingBlock: KIFKEQ_clean_linker_1, # of connection points: 2
#     Edge 75, Type (0, 0), BuildingBlock: KIFKEQ_clean_linker_1, # of connection points: 2
#     Edge 76, Type (0, 0), BuildingBlock: KIFKEQ_clean_linker_1, # of connection points: 2
#     Edge 77, Type (0, 0), BuildingBlock: KIFKEQ_clean_linker_1, # of connection points: 2
#     Edge 78, Type (0, 0), BuildingBlock: KIFKEQ_clean_linker_1, # of connection points: 2
#     Edge 79, Type (0, 0), BuildingBlock: KIFKEQ_clean_linker_1, # of connection points: 2
#     Edge 80, Type (0, 0), BuildingBlock: KIFKEQ_clean_linker_1, # of connection points: 2
#     Edge 81, Type (0, 0), BuildingBlock: KIFKEQ_clean_linker_1, # of connection points: 2
#     Edge 82, Type (0, 0), BuildingBlock: KIFKEQ_clean_linker_1, # of connection points: 2
#     Edge 83, Type (0, 0), BuildingBlock: KIFKEQ_clean_linker_1, # of connection points: 2
#     Edge 84, Type (0, 0), BuildingBlock: KIFKEQ_clean_linker_1, # of connection points: 2
#     Edge 85, Type (0, 0), BuildingBlock: KIFKEQ_clean_linker_1, # of connection points: 2
#     Edge 86, Type (0, 0), BuildingBlock: KIFKEQ_clean_linker_1, # of connection points: 2
#     Edge 87, Type (0, 0), BuildingBlock: KIFKEQ_clean_linker_1, # of connection points: 2
#     Edge 88, Type (0, 0), BuildingBlock: KIFKEQ_clean_linker_1, # of connection points: 2
#     Edge 89, Type (0, 0), BuildingBlock: KIFKEQ_clean_linker_1, # of connection points: 2
#     Edge 90, Type (0, 0), BuildingBlock: KIFKEQ_clean_linker_1, # of connection points: 2
#     Edge 91, Type (0, 0), BuildingBlock: KIFKEQ_clean_linker_1, # of connection points: 2
#     Edge 92, Type (0, 0), BuildingBlock: KIFKEQ_clean_linker_1, # of connection points: 2
#     Edge 93, Type (0, 0), BuildingBlock: KIFKEQ_clean_linker_1, # of connection points: 2
#     Edge 94, Type (0, 0), BuildingBlock: KIFKEQ_clean_linker_1, # of connection points: 2
#     Edge 95, Type (0, 0), BuildingBlock: KIFKEQ_clean_linker_1, # of connection points: 2
# Relax obj value: 0.051
# Max RMSD: 0.064
# Mean RMSD: 0.064
data_MOF--net-upd--node1-ESEHIV_clean_sbu_0--edge1-KIFKEQ_clean_linker_1
_symmetry_space_group_name_H-M    P1
_symmetry_Int_Tables_number       1
_symmetry_cell_setting            triclinic
loop_
_symmetry_equiv_pos_as_xyz
'x, y, z'
_cell_length_a     41.023034
_cell_length_b     41.123415
_cell_length_c     91.681356
_cell_angle_alpha  89.966615
_cell_angle_beta   89.991252
_cell_angle_gamma 89.996134
loop_
_atom_site_label
_atom_site_type_symbol
_atom_site_fract_x
_atom_site_fract_y
_atom_site_fract_z
_atom_type_partial_charge
Cu0 Cu 0.14996 0.16199 0.32248 0.0
N1 N 0.19047 0.17309 0.31407 0.0
N2 N 0.22737 0.19856 0.29997 0.0
C3 C 0.19619 0.1981 0.30483 0.0
C4 C 0.24163 0.17253 0.30632 0.0
C5 C 0.21886 0.15683 0.31488 0.0
O6 O 0.13 0.12955 0.30915 0.0
C7 C 0.14288 0.22388 0.33343 0.0
O8 O 0.17431 0.21914 0.33504 0.0
H9 H 0.17772 0.2156 0.30176 0.0
H10 H 0.22257 0.13456 0.32091 0.0
N11 N 0.15299 0.14508 0.34152 0.0
N12 N 0.13777 0.14051 0.36501 0.0
C13 C 0.12836 0.14762 0.35123 0.0
C14 C 0.17904 0.1358 0.34941 0.0
C15 C 0.1697 0.13277 0.36384 0.0
C16 C 0.14076 0.10031 0.30968 0.0
O17 O 0.16215 0.09297 0.31982 0.0
H18 H 0.10453 0.15683 0.34833 0.0
H19 H 0.20348 0.13319 0.3452 0.0
O20 O 0.12608 0.20239 0.32668 0.0
H21 H 0.2665 0.16468 0.30456 0.0
H22 H 0.18558 0.12636 0.37282 0.0
Cu23 Cu 0.12757 0.86235 0.58193 0.0
N24 N 0.11505 0.90445 0.57605 0.0
N25 N 0.09093 0.9425 0.56219 0.0
C26 C 0.09731 0.91048 0.56396 0.0
C27 C 0.10535 0.95721 0.57368 0.0
C28 C 0.1203 0.93373 0.58217 0.0
O29 O 0.15365 0.84494 0.56543 0.0
C30 C 0.07094 0.85702 0.59829 0.0
O31 O 0.07812 0.8879 0.59985 0.0
H32 H 0.08877 0.8915 0.55674 0.0
H33 H 0.13369 0.93774 0.59216 0.0
N34 N 0.15419 0.85939 0.59843 0.0
N35 N 0.1724 0.83348 0.61836 0.0
C36 C 0.15481 0.83136 0.60598 0.0
C37 C 0.17257 0.88029 0.60617 0.0
C38 C 0.18397 0.86426 0.61849 0.0
C39 C 0.17737 0.8637 0.56191 0.0
O40 O 0.18168 0.89024 0.56965 0.0
H41 H 0.14189 0.80984 0.60244 0.0
H42 H 0.17672 0.90547 0.60332 0.0
O43 O 0.0881 0.83993 0.58944 0.0
H44 H 0.10539 0.98311 0.57577 0.0
H45 H 0.19856 0.87484 0.6271 0.0
Cu46 Cu 0.4008 0.87857 0.82946 0.0
N47 N 0.35599 0.86852 0.82834 0.0
N48 N 0.31 0.84641 0.81947 0.0
C49 C 0.34002 0.8581 0.8163 0.0
C50 C 0.30687 0.84999 0.83405 0.0
C51 C 0.33517 0.8636 0.83947 0.0
O52 O 0.41324 0.90318 0.8118 0.0
C53 C 0.40965 0.81172 0.83676 0.0
O54 O 0.38205 0.80539 0.8301 0.0
H55 H 0.35117 0.85688 0.80561 0.0
H56 H 0.34093 0.86773 0.85083 0.0
N57 N 0.41241 0.90306 0.84596 0.0
N58 N 0.44395 0.91546 0.86526 0.0
C59 C 0.44217 0.90056 0.85213 0.0
C60 C 0.39456 0.92063 0.85541 0.0
C61 C 0.41399 0.92845 0.86728 0.0
C62 C 0.39522 0.92759 0.80864 0.0
O63 O 0.37055 0.9342 0.81729 0.0
H64 H 0.46181 0.88683 0.84724 0.0
H65 H 0.36889 0.92593 0.85415 0.0
O66 O 0.42441 0.83829 0.83387 0.0
H67 H 0.28604 0.84231 0.84042 0.0
H68 H 0.40604 0.94117 0.87698 0.0
Cu69 Cu 0.39794 0.13842 0.06932 0.0
N70 N 0.43312 0.12833 0.05697 0.0
N71 N 0.46709 0.09787 0.04349 0.0
C72 C 0.43611 0.10202 0.04824 0.0
C73 C 0.48383 0.12329 0.04905 0.0
C74 C 0.46296 0.14184 0.05737 0.0
O75 O 0.357 0.13424 0.05795 0.0
C76 C 0.41881 0.08445 0.08717 0.0
O77 O 0.42627 0.06918 0.07507 0.0
H78 H 0.41666 0.08463 0.04659 0.0
H79 H 0.46964 0.16246 0.06403 0.0
N80 N 0.40407 0.17997 0.07755 0.0
N81 N 0.4146 0.21589 0.09541 0.0
C82 C 0.40238 0.18631 0.092 0.0
C83 C 0.4176 0.20668 0.07158 0.0
C84 C 0.42415 0.22882 0.08256 0.0
C85 C 0.33863 0.158 0.05421 0.0
O86 O 0.34531 0.18724 0.05912 0.0
H87 H 0.39431 0.16868 0.09999 0.0
H88 H 0.42396 0.20913 0.06019 0.0
O89 O 0.40175 0.11033 0.08653 0.0
H90 H 0.50973 0.12746 0.04781 0.0
H91 H 0.43582 0.25225 0.08123 0.0
Cu92 Cu 0.15075 0.86779 0.2174 0.0
N93 N 0.19257 0.85915 0.22498 0.0
N94 N 0.23128 0.83516 0.2386 0.0
C95 C 0.19956 0.83513 0.23454 0.0
C96 C 0.24463 0.86054 0.23137 0.0
C97 C 0.22074 0.87531 0.22306 0.0
O98 O 0.13049 0.89936 0.23105 0.0
C99 C 0.14729 0.80544 0.20697 0.0
O100 O 0.17783 0.81305 0.20441 0.0
H101 H 0.1814 0.81831 0.23858 0.0
H102 H 0.22369 0.89661 0.21628 0.0
N103 N 0.15021 0.88396 0.19819 0.0
N104 N 0.13183 0.88549 0.17505 0.0
C105 C 0.12508 0.87787 0.18909 0.0
C106 C 0.17388 0.89621 0.18965 0.0
C107 C 0.16257 0.89739 0.17544 0.0
C108 C 0.14018 0.92895 0.23036 0.0
O109 O 0.16049 0.93697 0.21988 0.0
H110 H 0.10298 0.86602 0.19269 0.0
H111 H 0.19816 0.90233 0.19329 0.0
O112 O 0.12948 0.82556 0.21406 0.0
H113 H 0.26989 0.86796 0.23194 0.0
H114 H 0.17646 0.90555 0.1661 0.0
Cu115 Cu 0.41626 0.85977 0.47221 0.0
N116 N 0.44582 0.86915 0.48727 0.0
N117 N 0.47755 0.89905 0.50207 0.0
C118 C 0.45709 0.89913 0.49048 0.0
C119 C 0.47915 0.86756 0.50626 0.0
C120 C 0.45959 0.84924 0.49715 0.0
O121 O 0.37183 0.85763 0.48069 0.0
C122 C 0.40769 0.89891 0.44651 0.0
O123 O 0.38107 0.88199 0.44407 0.0
H124 H 0.45039 0.92054 0.48432 0.0
H125 H 0.45544 0.82333 0.4978 0.0
N126 N 0.42881 0.82199 0.46167 0.0
N127 N 0.4447 0.79075 0.44267 0.0
C128 C 0.4337 0.82024 0.44708 0.0
C129 C 0.43723 0.79245 0.46673 0.0
C130 C 0.44688 0.77322 0.45512 0.0
C131 C 0.36431 0.83645 0.49035 0.0
O132 O 0.38602 0.8143 0.49384 0.0
H133 H 0.42934 0.8403 0.43981 0.0
H134 H 0.43686 0.78542 0.47809 0.0
O135 O 0.42233 0.89552 0.45863 0.0
H136 H 0.49287 0.85834 0.51545 0.0
H137 H 0.45519 0.74833 0.45594 0.0
Cu138 Cu 0.43829 0.15485 0.71503 0.0
N139 N 0.4348 0.19075 0.72755 0.0
N140 N 0.4133 0.22693 0.74313 0.0
C141 C 0.41019 0.19726 0.73689 0.0
C142 C 0.44104 0.23942 0.7375 0.0
C143 C 0.4542 0.21709 0.72792 0.0
O144 O 0.42302 0.11666 0.7262 0.0
C145 C 0.4121 0.15082 0.68564 0.0
O146 O 0.42379 0.12108 0.68531 0.0
H147 H 0.38973 0.18108 0.73862 0.0
H148 H 0.47593 0.22019 0.72138 0.0
N149 N 0.48194 0.14917 0.70917 0.0
N150 N 0.52481 0.14086 0.69438 0.0
C151 C 0.49317 0.14985 0.69534 0.0
C152 C 0.50766 0.14023 0.71735 0.0
C153 C 0.5341 0.13507 0.70828 0.0
C154 C 0.43571 0.08829 0.72571 0.0
O155 O 0.45809 0.08211 0.71585 0.0
H156 H 0.47823 0.15627 0.68609 0.0
H157 H 0.50683 0.13628 0.72901 0.0
O158 O 0.41337 0.16681 0.69754 0.0
H159 H 0.45104 0.2631 0.74003 0.0
H160 H 0.55775 0.12609 0.71161 0.0
Cu161 Cu 0.11375 0.12984 0.95578 0.0
N162 N 0.10155 0.08855 0.96263 0.0
N163 N 0.0773 0.05245 0.9774 0.0
C164 C 0.08309 0.08419 0.97461 0.0
C165 C 0.09283 0.03618 0.96663 0.0
C166 C 0.10776 0.0585 0.95754 0.0
O167 O 0.14295 0.1477 0.9711 0.0
C168 C 0.05427 0.13472 0.94264 0.0
O169 O 0.06395 0.10546 0.93894 0.0
H170 H 0.07369 0.10422 0.981 0.0
H171 H 0.122 0.05316 0.94791 0.0
N172 N 0.13523 0.12999 0.93768 0.0
N173 N 0.14624 0.14739 0.91498 0.0
C174 C 0.13023 0.15333 0.92757 0.0
C175 C 0.15542 0.10846 0.93133 0.0
C176 C 0.16219 0.11909 0.91731 0.0
C177 C 0.1654 0.12814 0.97532 0.0
O178 O 0.16815 0.10007 0.9686 0.0
H179 H 0.11422 0.17386 0.92934 0.0
H180 H 0.16428 0.08645 0.93641 0.0
O181 O 0.07243 0.15182 0.95103 0.0
H182 H 0.0937 0.01003 0.96543 0.0
H183 H 0.17773 0.10692 0.90949 0.0
Cu184 Cu 0.87717 0.85519 0.72002 0.0
N185 N 0.86691 0.82547 0.73497 0.0
N186 N 0.83585 0.79522 0.75004 0.0
C187 C 0.83684 0.81355 0.73774 0.0
C188 C 0.86686 0.79565 0.75509 0.0
C189 C 0.88582 0.8143 0.74583 0.0
O190 O 0.87897 0.89914 0.72883 0.0
C191 C 0.84429 0.85858 0.69255 0.0
O192 O 0.86427 0.88254 0.68936 0.0
H193 H 0.81603 0.81893 0.73093 0.0
H194 H 0.91136 0.82013 0.74717 0.0
N195 N 0.91726 0.84523 0.7106 0.0
N196 N 0.95356 0.83503 0.69263 0.0
C197 C 0.92176 0.83481 0.6967 0.0
C198 C 0.94741 0.85168 0.71556 0.0
C199 C 0.96972 0.8454 0.70461 0.0
C200 C 0.85571 0.90969 0.73679 0.0
O201 O 0.8292 0.89192 0.73791 0.0
H202 H 0.90206 0.82787 0.68955 0.0
H203 H 0.9527 0.8618 0.72619 0.0
O204 O 0.84309 0.84835 0.70562 0.0
H205 H 0.87527 0.7843 0.76504 0.0
H206 H 0.99566 0.84994 0.70521 0.0
Cu207 Cu 0.92863 0.12596 0.45955 0.0
N208 N 0.9418 0.08435 0.46572 0.0
N209 N 0.96417 0.04635 0.48017 0.0
C210 C 0.95303 0.07723 0.47919 0.0
C211 C 0.95915 0.0334 0.46682 0.0
C212 C 0.94548 0.05689 0.45792 0.0
O213 O 0.89775 0.14175 0.47466 0.0
C214 C 0.99644 0.13944 0.45483 0.0
O215 O 1.00225 0.1135 0.46275 0.0
H216 H 0.95405 0.09488 0.48793 0.0
H217 H 0.93993 0.0545 0.44645 0.0
N218 N 0.90814 0.12559 0.44117 0.0
N219 N 0.89779 0.1423 0.41825 0.0
C220 C 0.91207 0.1494 0.43116 0.0
C221 C 0.89057 0.10249 0.43441 0.0
C222 C 0.88407 0.11273 0.42032 0.0
C223 C 0.87275 0.12355 0.47651 0.0
O224 O 0.86958 0.0982 0.46791 0.0
H225 H 0.92618 0.17109 0.43325 0.0
H226 H 0.8836 0.0795 0.43922 0.0
O227 O 0.96783 0.15176 0.45495 0.0
H228 H 0.96631 0.00919 0.46347 0.0
H229 H 0.87041 0.0992 0.41226 0.0
Cu230 Cu 0.60264 0.12925 0.20605 0.0
N231 N 0.64387 0.13952 0.21388 0.0
N232 N 0.68119 0.16467 0.22786 0.0
C233 C 0.64987 0.16427 0.22318 0.0
C234 C 0.69532 0.13894 0.2212 0.0
C235 C 0.67229 0.12347 0.21268 0.0
O236 O 0.57943 0.1049 0.22152 0.0
C237 C 0.60281 0.18584 0.18966 0.0
O238 O 0.63409 0.17918 0.19011 0.0
H239 H 0.6312 0.18107 0.22674 0.0
H240 H 0.67593 0.10162 0.20634 0.0
N241 N 0.60282 0.10266 0.1895 0.0
N242 N 0.58 0.08257 0.16917 0.0
C243 C 0.57491 0.09662 0.18229 0.0
C244 C 0.62679 0.0921 0.18069 0.0
C245 C 0.61277 0.07949 0.16818 0.0
C246 C 0.58928 0.07558 0.22328 0.0
O247 O 0.61217 0.06462 0.21455 0.0
H248 H 0.55145 0.10489 0.1862 0.0
H249 H 0.65255 0.09512 0.18273 0.0
O250 O 0.58332 0.16876 0.19745 0.0
H251 H 0.7205 0.13158 0.22239 0.0
H252 H 0.62589 0.07007 0.15886 0.0
Cu253 Cu 0.6281 0.85761 0.96921 0.0
N254 N 0.59624 0.86647 0.98323 0.0
N255 N 0.56391 0.89752 0.9972 0.0
C256 C 0.5885 0.8969 0.9874 0.0
C257 C 0.55583 0.86595 0.99924 0.0
C258 C 0.57584 0.84684 0.99061 0.0
O259 O 0.66987 0.86756 0.9792 0.0
C260 C 0.62307 0.8861 0.93984 0.0
O261 O 0.6497 0.87041 0.9361 0.0
H262 H 0.60035 0.91824 0.98297 0.0
H263 H 0.57535 0.82063 0.98968 0.0
N264 N 0.62579 0.8141 0.96264 0.0
N265 N 0.62243 0.77191 0.94709 0.0
C266 C 0.61922 0.80441 0.94888 0.0
C267 C 0.63265 0.78655 0.96995 0.0
C268 C 0.63082 0.76056 0.9604 0.0
C269 C 0.69495 0.84913 0.98006 0.0
O270 O 0.69641 0.82296 0.97189 0.0
H271 H 0.6131 0.82098 0.94019 0.0
H272 H 0.6395 0.78553 0.98134 0.0
O273 O 0.61403 0.88594 0.95313 0.0
H274 H 0.53698 0.85719 1.00651 0.0
H275 H 0.63567 0.73538 0.96305 0.0
Cu276 Cu 0.86472 0.15758 0.82291 0.0
N277 N 0.82224 0.1687 0.81709 0.0
N278 N 0.78286 0.18947 0.80291 0.0
C279 C 0.81415 0.17931 0.80364 0.0
C280 C 0.77055 0.18422 0.81637 0.0
C281 C 0.79491 0.17153 0.82511 0.0
O282 O 0.87977 0.12407 0.80885 0.0
C283 C 0.87739 0.2262 0.82461 0.0
O284 O 0.85084 0.23034 0.81687 0.0
H285 H 0.83146 0.18103 0.79476 0.0
H286 H 0.79321 0.16621 0.83663 0.0
N287 N 0.86679 0.14123 0.84209 0.0
N288 N 0.88643 0.1365 0.86488 0.0
C289 C 0.89117 0.1488 0.85138 0.0
C290 C 0.84578 0.12326 0.85 0.0
C291 C 0.85796 0.1201 0.86403 0.0
C292 C 0.86265 0.09803 0.80872 0.0
O293 O 0.83858 0.09573 0.81812 0.0
H294 H 0.91215 0.1631 0.84826 0.0
H295 H 0.8229 0.11375 0.846 0.0
O296 O 0.89025 0.1979 0.82523 0.0
H297 H 0.74624 0.19081 0.81989 0.0
H298 H 0.84631 0.10754 0.873 0.0
Cu299 Cu 0.64879 0.14192 0.5751 0.0
N300 N 0.61516 0.12636 0.56295 0.0
N301 N 0.58218 0.09401 0.54985 0.0
C302 C 0.61064 0.09631 0.55729 0.0
C303 C 0.56873 0.12393 0.5507 0.0
C304 C 0.58903 0.14368 0.55873 0.0
O305 O 0.68908 0.14677 0.56334 0.0
C306 C 0.62944 0.09931 0.5978 0.0
O307 O 0.60545 0.09197 0.58893 0.0
H308 H 0.62715 0.07622 0.55915 0.0
H309 H 0.58477 0.16888 0.56152 0.0
N310 N 0.63599 0.18191 0.58324 0.0
N311 N 0.61779 0.21512 0.60101 0.0
C312 C 0.61748 0.18467 0.59537 0.0
C313 C 0.6482 0.21176 0.58091 0.0
C314 C 0.63697 0.23226 0.59176 0.0
C315 C 0.70339 0.12207 0.55783 0.0
O316 O 0.69218 0.09302 0.56105 0.0
H317 H 0.6054 0.16412 0.60031 0.0
H318 H 0.66576 0.21771 0.57252 0.0
O319 O 0.65346 0.11567 0.59285 0.0
H320 H 0.54573 0.13114 0.5459 0.0
H321 H 0.64429 0.25732 0.59316 0.0
Cu322 Cu 0.58911 0.87065 0.32672 0.0
N323 N 0.63086 0.85892 0.31997 0.0
N324 N 0.66925 0.83268 0.30702 0.0
C325 C 0.63741 0.83389 0.31089 0.0
C326 C 0.68314 0.85817 0.31396 0.0
C327 C 0.65947 0.87432 0.32183 0.0
O328 O 0.56909 0.89654 0.31087 0.0
C329 C 0.58433 0.81379 0.34273 0.0
O330 O 0.61582 0.81934 0.34329 0.0
H331 H 0.61881 0.8175 0.3069 0.0
H332 H 0.66282 0.89626 0.32813 0.0
N333 N 0.58852 0.89637 0.34352 0.0
N334 N 0.56465 0.9143 0.36396 0.0
C335 C 0.56023 0.90163 0.35055 0.0
C336 C 0.61198 0.90625 0.35279 0.0
C337 C 0.59724 0.91768 0.36538 0.0
C338 C 0.58006 0.92558 0.3096 0.0
O339 O 0.60183 0.93559 0.3191 0.0
H340 H 0.53687 0.89426 0.34617 0.0
H341 H 0.63784 0.90317 0.35106 0.0
O342 O 0.56678 0.83173 0.33443 0.0
H343 H 0.70858 0.86495 0.31338 0.0
H344 H 0.60962 0.92542 0.3752 0.0
Cu345 Cu 0.91104 0.88194 0.08193 0.0
N346 N 0.92104 0.9236 0.07483 0.0
N347 N 0.94441 0.96011 0.05999 0.0
C348 C 0.93921 0.92828 0.06279 0.0
C349 C 0.92853 0.97612 0.07073 0.0
C350 C 0.91417 0.95353 0.07989 0.0
O351 O 0.88241 0.86299 0.06665 0.0
C352 C 0.97145 0.8806 0.09446 0.0
O353 O 0.96099 0.90997 0.09752 0.0
H354 H 0.94836 0.90842 0.05623 0.0
H355 H 0.90027 0.95859 0.08965 0.0
N356 N 0.89025 0.88102 0.10021 0.0
N357 N 0.88125 0.8636 0.12311 0.0
C358 C 0.89714 0.85837 0.11041 0.0
C359 C 0.86899 0.90143 0.1066 0.0
C360 C 0.86339 0.89074 0.12071 0.0
C361 C 0.85819 0.88117 0.06321 0.0
O362 O 0.85357 0.90777 0.07087 0.0
H363 H 0.91437 0.83889 0.10861 0.0
H364 H 0.85862 0.92274 0.10149 0.0
O365 O 0.9535 0.86201 0.08662 0.0
H366 H 0.92793 1.00224 0.07213 0.0
H367 H 0.8473 0.90214 0.12854 0.0
Cu368 Cu 0.58634 0.63454 0.82446 0.0
N369 N 0.60177 0.66559 0.81077 0.0
N370 N 0.63594 0.69669 0.79752 0.0
C371 C 0.63323 0.67225 0.80738 0.0
C372 C 0.60496 0.70575 0.79467 0.0
C373 C 0.58411 0.68669 0.8028 0.0
O374 O 0.58896 0.59102 0.81551 0.0
C375 C 0.60785 0.6716 0.84725 0.0
O376 O 0.59487 0.69317 0.83841 0.0
H377 H 0.65375 0.65996 0.81234 0.0
H378 H 0.55788 0.68854 0.80298 0.0
N379 N 0.54219 0.64034 0.82949 0.0
N380 N 0.49726 0.63872 0.84347 0.0
C381 C 0.52993 0.63461 0.84293 0.0
C382 C 0.51622 0.64792 0.82118 0.0
C383 C 0.48855 0.64731 0.8298 0.0
C384 C 0.61351 0.58005 0.80854 0.0
O385 O 0.64088 0.5966 0.80879 0.0
H386 H 0.54475 0.62729 0.85213 0.0
H387 H 0.51704 0.6525 0.80958 0.0
O388 O 0.60893 0.64195 0.84308 0.0
H389 H 0.59774 0.72469 0.78713 0.0
H390 H 0.46383 0.65167 0.82617 0.0
Cu391 Cu 0.61504 0.36935 0.06474 0.0
N392 N 0.58105 0.37699 0.05154 0.0
N393 N 0.54717 0.4055 0.03718 0.0
C394 C 0.57343 0.40649 0.04609 0.0
C395 C 0.53796 0.37393 0.03707 0.0
C396 C 0.55891 0.35642 0.04592 0.0
O397 O 0.65569 0.37307 0.05309 0.0
C398 C 0.61807 0.40165 0.0925 0.0
O399 O 0.64194 0.38161 0.09578 0.0
H400 H 0.58659 0.42839 0.04894 0.0
H401 H 0.55791 0.33062 0.04818 0.0
N402 N 0.60952 0.32894 0.07438 0.0
N403 N 0.59901 0.29331 0.09247 0.0
C404 C 0.59667 0.32449 0.08784 0.0
C405 C 0.61956 0.29925 0.07017 0.0
C406 C 0.61319 0.27732 0.08127 0.0
C407 C 0.68218 0.35676 0.05394 0.0
O408 O 0.68592 0.33577 0.06461 0.0
H409 H 0.58611 0.34387 0.09423 0.0
H410 H 0.63169 0.29409 0.05996 0.0
O411 O 0.60811 0.40304 0.07937 0.0
H412 H 0.51767 0.36405 0.03097 0.0
H413 H 0.61991 0.25187 0.0813 0.0
Cu414 Cu 0.86077 0.35485 0.32296 0.0
N415 N 0.82005 0.34461 0.31455 0.0
N416 N 0.78336 0.31964 0.30017 0.0
C417 C 0.81457 0.32022 0.30499 0.0
C418 C 0.76879 0.34494 0.30696 0.0
C419 C 0.79141 0.36029 0.31573 0.0
O420 O 0.88155 0.38655 0.30944 0.0
C421 C 0.86521 0.29324 0.33427 0.0
O422 O 0.83424 0.30019 0.33613 0.0
H423 H 0.83329 0.3032 0.3017 0.0
H424 H 0.78735 0.38182 0.32223 0.0
N425 N 0.85848 0.37225 0.34196 0.0
N426 N 0.87336 0.37783 0.36541 0.0
C427 C 0.88101 0.36533 0.35224 0.0
C428 C 0.83562 0.38994 0.34889 0.0
C429 C 0.84487 0.39363 0.36333 0.0
C430 C 0.87059 0.41575 0.30954 0.0
O431 O 0.84834 0.42334 0.31926 0.0
H432 H 0.90261 0.35103 0.35007 0.0
H433 H 0.81349 0.39899 0.34396 0.0
O434 O 0.88302 0.31343 0.32721 0.0
H435 H 0.74376 0.3525 0.30545 0.0
H436 H 0.83115 0.4061 0.37171 0.0
Cu437 Cu 0.88666 0.65021 0.58265 0.0
N438 N 0.90065 0.60819 0.57767 0.0
N439 N 0.9254 0.57029 0.56397 0.0
C440 C 0.9141 0.60114 0.56465 0.0
C441 C 0.91824 0.55729 0.57715 0.0
C442 C 0.90305 0.58074 0.58559 0.0
O443 O 0.85877 0.66443 0.56612 0.0
C444 C 0.95126 0.66207 0.59341 0.0
O445 O 0.95813 0.63322 0.58814 0.0
H446 H 0.91608 0.61881 0.55595 0.0
H447 H 0.89552 0.5783 0.59683 0.0
N448 N 0.86072 0.65349 0.59933 0.0
N449 N 0.84155 0.68082 0.61863 0.0
C450 C 0.85764 0.68258 0.60585 0.0
C451 C 0.84562 0.63218 0.60821 0.0
C452 C 0.83354 0.64912 0.62015 0.0
C453 C 0.83353 0.64628 0.56478 0.0
O454 O 0.82986 0.62254 0.57425 0.0
H455 H 0.868 0.70464 0.60139 0.0
H456 H 0.84447 0.60621 0.60644 0.0
O457 O 0.92464 0.67588 0.5895 0.0
H458 H 0.92464 0.53303 0.5807 0.0
H459 H 0.82126 0.63869 0.62949 0.0
Cu460 Cu 0.58935 0.36082 0.70908 0.0
N461 N 0.63199 0.34552 0.71173 0.0
N462 N 0.67162 0.31837 0.72348 0.0
C463 C 0.64342 0.33527 0.72472 0.0
C464 C 0.67835 0.31873 0.70902 0.0
C465 C 0.65384 0.33532 0.70182 0.0
O466 O 0.57939 0.38841 0.72611 0.0
C467 C 0.57421 0.29506 0.70263 0.0
O468 O 0.59777 0.2851 0.71124 0.0
H469 H 0.62997 0.33857 0.73474 0.0
H470 H 0.65094 0.33765 0.69014 0.0
N471 N 0.58272 0.38514 0.69206 0.0
N472 N 0.55384 0.40056 0.67245 0.0
C473 C 0.55298 0.38727 0.68591 0.0
C474 C 0.60341 0.39796 0.68222 0.0
C475 C 0.58558 0.40773 0.67013 0.0
C476 C 0.59785 0.41337 0.72714 0.0
O477 O 0.61949 0.41814 0.71678 0.0
H478 H 0.53124 0.37767 0.69103 0.0
H479 H 0.62964 0.39852 0.68338 0.0
O480 O 0.56177 0.32308 0.70489 0.0
H481 H 0.69833 0.30611 0.70381 0.0
H482 H 0.59549 0.41746 0.6601 0.0
Cu483 Cu 0.90709 0.38433 0.95532 0.0
N484 N 0.91759 0.42579 0.96245 0.0
N485 N 0.94085 0.46238 0.97726 0.0
C486 C 0.93654 0.43052 0.97424 0.0
C487 C 0.92381 0.47832 0.96684 0.0
C488 C 0.90948 0.45569 0.95772 0.0
O489 O 0.87697 0.36591 0.97023 0.0
C490 C 0.96813 0.38157 0.94344 0.0
O491 O 0.95812 0.41081 0.93985 0.0
H492 H 0.94739 0.41071 0.9803 0.0
H493 H 0.89432 0.46069 0.94835 0.0
N494 N 0.88718 0.3844 0.93682 0.0
N495 N 0.87849 0.36862 0.91369 0.0
C496 C 0.89539 0.3634 0.92612 0.0
C497 C 0.86409 0.40367 0.93098 0.0
C498 C 0.85859 0.3939 0.91674 0.0
C499 C 0.85269 0.38437 0.97326 0.0
O500 O 0.84928 0.41118 0.96562 0.0
H501 H 0.91331 0.34435 0.92751 0.0
H502 H 0.85225 0.42356 0.93658 0.0
O503 O 0.94947 0.36355 0.95122 0.0
H504 H 0.92148 0.50445 0.96592 0.0
H505 H 0.84166 0.40496 0.90916 0.0
Cu506 Cu 0.86031 0.64624 0.21624 0.0
N507 N 0.81827 0.65374 0.22381 0.0
N508 N 0.77931 0.67692 0.23756 0.0
C509 C 0.81123 0.67677 0.23381 0.0
C510 C 0.76585 0.65273 0.22959 0.0
C511 C 0.7899 0.63846 0.22117 0.0
O512 O 0.88135 0.61544 0.23009 0.0
C513 C 0.86113 0.70849 0.20569 0.0
O514 O 0.83118 0.69902 0.20296 0.0
H515 H 0.8293 0.69343 0.23803 0.0
H516 H 0.78687 0.61827 0.21376 0.0
N517 N 0.86141 0.62959 0.19709 0.0
N518 N 0.87924 0.62593 0.17397 0.0
C519 C 0.8838 0.63944 0.18722 0.0
C520 C 0.84184 0.60896 0.18978 0.0
C521 C 0.85297 0.60644 0.17555 0.0
C522 C 0.87093 0.58604 0.23001 0.0
O523 O 0.84918 0.57793 0.22016 0.0
H524 H 0.90327 0.65625 0.18976 0.0
H525 H 0.8208 0.59686 0.19435 0.0
O526 O 0.87986 0.68939 0.21289 0.0
H527 H 0.74053 0.64542 0.22992 0.0
H528 H 0.84214 0.59197 0.16697 0.0
Cu529 Cu 0.6023 0.64686 0.46973 0.0
N530 N 0.57054 0.63436 0.48334 0.0
N531 N 0.53794 0.60206 0.49663 0.0
C532 C 0.56294 0.60349 0.48703 0.0
C533 C 0.52958 0.63339 0.49906 0.0
C534 C 0.54972 0.65321 0.49086 0.0
O535 O 0.64401 0.65406 0.48012 0.0
C536 C 0.61401 0.61473 0.44284 0.0
O537 O 0.63473 0.63835 0.44016 0.0
H538 H 0.57505 0.58247 0.48244 0.0
H539 H 0.54901 0.67947 0.4903 0.0
N540 N 0.58871 0.68421 0.45926 0.0
N541 N 0.57192 0.71557 0.44051 0.0
C542 C 0.57482 0.68495 0.44585 0.0
C543 C 0.59419 0.71554 0.46264 0.0
C544 C 0.58389 0.73484 0.45118 0.0
C545 C 0.65792 0.63069 0.48687 0.0
O546 O 0.64499 0.60154 0.48587 0.0
H547 H 0.56774 0.66335 0.43996 0.0
H548 H 0.6062 0.7237 0.47249 0.0
O549 O 0.60286 0.6116 0.4557 0.0
H550 H 0.51039 0.64152 0.50629 0.0
H551 H 0.58681 0.76095 0.45047 0.0
Cu552 Cu 0.41549 0.38252 0.20686 0.0
N553 N 0.3732 0.37371 0.21388 0.0
N554 N 0.33443 0.35027 0.22767 0.0
C555 C 0.36652 0.35148 0.22431 0.0
C556 C 0.32044 0.37313 0.21912 0.0
C557 C 0.34436 0.38757 0.21067 0.0
O558 O 0.43738 0.40741 0.22245 0.0
C559 C 0.41733 0.32014 0.19399 0.0
O560 O 0.3859 0.32081 0.19659 0.0
H561 H 0.38511 0.33663 0.22938 0.0
H562 H 0.34091 0.40696 0.20287 0.0
N563 N 0.41872 0.40732 0.18979 0.0
N564 N 0.44579 0.42229 0.16962 0.0
C565 C 0.44802 0.41082 0.18337 0.0
C566 C 0.39685 0.41719 0.17977 0.0
C567 C 0.41357 0.4268 0.16735 0.0
C568 C 0.42808 0.43704 0.22357 0.0
O569 O 0.40662 0.44796 0.21413 0.0
H570 H 0.47049 0.40288 0.18842 0.0
H571 H 0.37071 0.4152 0.18091 0.0
O572 O 0.43552 0.34211 0.1996 0.0
H573 H 0.2947 0.37886 0.21883 0.0
H574 H 0.40272 0.43404 0.15708 0.0
Cu575 Cu 0.37396 0.64455 0.96362 0.0
N576 N 0.40953 0.63081 0.97488 0.0
N577 N 0.44327 0.59885 0.98778 0.0
C578 C 0.41518 0.60056 0.98004 0.0
C579 C 0.45563 0.62931 0.98739 0.0
C580 C 0.43485 0.64887 0.97945 0.0
O581 O 0.33516 0.64247 0.97656 0.0
C582 C 0.36019 0.62514 0.93453 0.0
O583 O 0.33746 0.64763 0.93499 0.0
H584 H 0.39878 0.58035 0.97825 0.0
H585 H 0.43803 0.67445 0.9771 0.0
N586 N 0.38273 0.68612 0.95585 0.0
N587 N 0.39619 0.72147 0.93809 0.0
C588 C 0.3988 0.69068 0.94316 0.0
C589 C 0.37058 0.71548 0.95934 0.0
C590 C 0.37877 0.73727 0.94842 0.0
C591 C 0.30924 0.65977 0.97641 0.0
O592 O 0.30476 0.68071 0.96577 0.0
H593 H 0.41091 0.67118 0.93744 0.0
H594 H 0.35528 0.72036 0.96868 0.0
O595 O 0.37372 0.61641 0.94643 0.0
H596 H 0.47838 0.63694 0.99228 0.0
H597 H 0.37059 0.76223 0.94774 0.0
Cu598 Cu 0.12811 0.66335 0.72242 0.0
N599 N 0.13064 0.69647 0.73654 0.0
N600 N 0.15249 0.73179 0.75247 0.0
C601 C 0.15667 0.7037 0.74499 0.0
C602 C 0.12261 0.74251 0.74858 0.0
C603 C 0.10924 0.72074 0.73879 0.0
O604 O 0.13132 0.6207 0.73245 0.0
C605 C 0.1641 0.66258 0.69584 0.0
O606 O 0.14661 0.63681 0.69259 0.0
H607 H 0.1789 0.68953 0.74508 0.0
H608 H 0.08604 0.72308 0.73328 0.0
N609 N 0.08859 0.66613 0.71166 0.0
N610 N 0.05326 0.67249 0.69297 0.0
C611 C 0.08398 0.67774 0.69795 0.0
C612 C 0.05961 0.65355 0.71554 0.0
C613 C 0.03792 0.65743 0.70414 0.0
C614 C 0.15798 0.60919 0.73747 0.0
O615 O 0.18509 0.62532 0.73504 0.0
H616 H 0.10295 0.68934 0.69164 0.0
H617 H 0.05492 0.64127 0.72576 0.0
O618 O 0.16295 0.67363 0.70878 0.0
H619 H 0.11137 0.76476 0.75238 0.0
H620 H 0.01315 0.6484 0.70392 0.0
Cu621 Cu 0.08235 0.3888 0.45925 0.0
N622 N 0.06893 0.43025 0.46541 0.0
N623 N 0.04655 0.46837 0.4798 0.0
C624 C 0.0578 0.4375 0.47888 0.0
C625 C 0.05146 0.48111 0.46637 0.0
C626 C 0.06518 0.45758 0.45754 0.0
O627 O 0.11344 0.37305 0.47426 0.0
C628 C 0.01446 0.37425 0.45514 0.0
O629 O 0.00841 0.39931 0.46356 0.0
H630 H 0.05631 0.41971 0.48755 0.0
H631 H 0.071 0.45993 0.44609 0.0
N632 N 0.10287 0.38962 0.44088 0.0
N633 N 0.1142 0.37335 0.41805 0.0
C634 C 0.0985 0.36645 0.43063 0.0
C635 C 0.12209 0.41211 0.43455 0.0
C636 C 0.1293 0.40202 0.42052 0.0
C637 C 0.13844 0.39127 0.47603 0.0
O638 O 0.14124 0.41698 0.46762 0.0
H639 H 0.08412 0.34477 0.43241 0.0
H640 H 0.12981 0.43454 0.43964 0.0
O641 O 0.04338 0.36273 0.4547 0.0
H642 H 0.04513 0.50551 0.46299 0.0
H643 H 0.14384 0.41518 0.41262 0.0
Cu644 Cu 0.42322 0.64179 0.32706 0.0
N645 N 0.38126 0.65336 0.32057 0.0
N646 N 0.34254 0.67952 0.30779 0.0
C647 C 0.37442 0.67852 0.31161 0.0
C648 C 0.32893 0.65374 0.31465 0.0
C649 C 0.35283 0.63764 0.32243 0.0
O650 O 0.44328 0.61666 0.31103 0.0
C651 C 0.42833 0.69884 0.34315 0.0
O652 O 0.39658 0.69484 0.3432 0.0
H653 H 0.39271 0.69559 0.30793 0.0
H654 H 0.34982 0.61546 0.32861 0.0
N655 N 0.42449 0.61524 0.34356 0.0
N656 N 0.45017 0.59651 0.36339 0.0
C657 C 0.45337 0.60865 0.34982 0.0
C658 C 0.40185 0.60672 0.35348 0.0
C659 C 0.4177 0.59479 0.36572 0.0
C660 C 0.43223 0.58769 0.30962 0.0
O661 O 0.41015 0.5776 0.31896 0.0
H662 H 0.47642 0.61511 0.34485 0.0
H663 H 0.37602 0.61139 0.35246 0.0
O664 O 0.44564 0.6803 0.33503 0.0
H665 H 0.30373 0.64627 0.31375 0.0
H666 H 0.40635 0.58815 0.37596 0.0
Cu667 Cu 0.10245 0.63631 0.08176 0.0
N668 N 0.09508 0.5946 0.07427 0.0
N669 N 0.07337 0.55758 0.05921 0.0
C670 C 0.07673 0.58949 0.06233 0.0
C671 C 0.09073 0.54197 0.06962 0.0
C672 C 0.10408 0.56489 0.07892 0.0
O673 O 0.12934 0.65746 0.06646 0.0
C674 C 0.04041 0.63447 0.09338 0.0
O675 O 0.05017 0.60444 0.09542 0.0
H676 H 0.06601 0.60911 0.05611 0.0
H677 H 0.11865 0.56015 0.08851 0.0
N678 N 0.12342 0.63729 0.10003 0.0
N679 N 0.13293 0.65404 0.12296 0.0
C680 C 0.11562 0.65878 0.11061 0.0
C681 C 0.14651 0.61808 0.10592 0.0
C682 C 0.15257 0.62849 0.12002 0.0
C683 C 0.15762 0.64497 0.06447 0.0
O684 O 0.16719 0.62199 0.07345 0.0
H685 H 0.09764 0.67777 0.1092 0.0
H686 H 0.15794 0.59777 0.10047 0.0
O687 O 0.05915 0.65424 0.08656 0.0
H688 H 0.09299 0.51587 0.07071 0.0
H689 H 0.16967 0.61767 0.12759 0.0
Cu690 Cu 0.17226 0.36555 0.82714 0.0
N691 N 0.21691 0.35639 0.8247 0.0
N692 N 0.26269 0.33678 0.81459 0.0
C693 C 0.23207 0.34782 0.81218 0.0
C694 C 0.26709 0.33921 0.82915 0.0
C695 C 0.23891 0.35128 0.83533 0.0
O696 O 0.15895 0.39703 0.81177 0.0
C697 C 0.16302 0.29643 0.82822 0.0
O698 O 0.19104 0.29404 0.82141 0.0
H699 H 0.21995 0.34721 0.8017 0.0
H700 H 0.23416 0.3544 0.84685 0.0
N701 N 0.16402 0.38311 0.84574 0.0
N702 N 0.14058 0.3879 0.8678 0.0
C703 C 0.1402 0.37257 0.85477 0.0
C704 C 0.18016 0.40599 0.85335 0.0
C705 C 0.16565 0.40912 0.86691 0.0
C706 C 0.17626 0.42285 0.81075 0.0
O707 O 0.20063 0.42631 0.81991 0.0
H708 H 0.12272 0.35408 0.85177 0.0
H709 H 0.20134 0.41901 0.84946 0.0
O710 O 0.14863 0.32397 0.82857 0.0
H711 H 0.28874 0.33174 0.83501 0.0
H712 H 0.17348 0.42525 0.87555 0.0
Cu713 Cu 0.37085 0.35958 0.5686 0.0
N714 N 0.39974 0.37032 0.55347 0.0
N715 N 0.43054 0.40208 0.53903 0.0
C716 C 0.41378 0.39973 0.55172 0.0
C717 C 0.42698 0.37264 0.53265 0.0
C718 C 0.40794 0.3532 0.54154 0.0
O719 O 0.32628 0.36336 0.56054 0.0
C720 C 0.37471 0.38727 0.59771 0.0
O721 O 0.34897 0.36987 0.60116 0.0
H722 H 0.41098 0.41923 0.55953 0.0
H723 H 0.3997 0.32876 0.53922 0.0
N724 N 0.37721 0.31657 0.57531 0.0
N725 N 0.3832 0.27426 0.59071 0.0
C726 C 0.38544 0.30691 0.58893 0.0
C727 C 0.37005 0.289 0.56812 0.0
C728 C 0.37376 0.26298 0.57752 0.0
C729 C 0.31755 0.38756 0.55273 0.0
O730 O 0.33735 0.41257 0.55169 0.0
H731 H 0.39171 0.32359 0.59755 0.0
H732 H 0.36154 0.28799 0.55696 0.0
O733 O 0.38366 0.3887 0.58443 0.0
H734 H 0.4363 0.36587 0.52204 0.0
H735 H 0.36916 0.23779 0.57483 0.0
H736 H 0.06551 0.33521 0.40752 0.0
H737 H 0.16321 0.36805 0.39842 0.0
H738 H 0.06608 0.30242 0.38534 0.0
H739 H 0.16456 0.33453 0.3766 0.0
H740 H 0.1584 0.28776 0.33357 0.0
H741 H 0.14725 0.32671 0.35295 0.0
H742 H 0.08685 0.25527 0.37461 0.0
H743 H 0.09661 0.21728 0.35464 0.0
C744 C 0.08724 0.33522 0.40082 0.0
C745 C 0.11436 0.35426 0.40478 0.0
C746 C 0.08763 0.31633 0.38807 0.0
C747 C 0.11532 0.31563 0.37896 0.0
C748 C 0.14238 0.33485 0.38299 0.0
C749 C 0.14178 0.35403 0.39561 0.0
C750 C 0.14162 0.28098 0.34218 0.0
C751 C 0.12793 0.24972 0.34245 0.0
C752 C 0.13574 0.30306 0.35351 0.0
C753 C 0.11679 0.29412 0.3657 0.0
C754 C 0.10139 0.2634 0.36546 0.0
C755 C 0.10677 0.24154 0.35392 0.0
H756 H 0.0764 0.80161 0.6151 0.0
H757 H 0.01327 0.883 0.60636 0.0
H758 H 0.04529 0.78966 0.63741 0.0
H759 H 0.9823 0.87135 0.62836 0.0
H760 H 0.92223 0.83964 0.6664 0.0
H761 H 0.94634 0.83653 0.64215 0.0
H762 H 0.04031 0.81645 0.6613 0.0
H763 H 0.01603 0.81867 0.68558 0.0
C764 C 0.05515 0.81615 0.61763 0.0
C765 C 0.04714 0.84307 0.60887 0.0
C766 C 0.03757 0.80966 0.63055 0.0
C767 C 0.01131 0.82971 0.63487 0.0
C768 C 1.00202 0.8551 0.62545 0.0
C769 C 0.01979 0.86179 0.61274 0.0
C770 C 0.9479 0.83392 0.66551 0.0
C771 C 0.96713 0.82983 0.67813 0.0
C772 C 0.96186 0.83239 0.65152 0.0
C773 C 0.99547 0.82655 0.64964 0.0
C774 C 0.01436 0.82081 0.66221 0.0
C775 C 1.00044 0.8225 0.67621 0.0
H776 H 0.40265 0.78445 0.92915 0.0
H777 H 0.40987 0.68536 0.91383 0.0
H778 H 0.41186 0.80392 0.90435 0.0
H779 H 0.4202 0.70488 0.88933 0.0
H780 H 0.38568 0.75308 0.84587 0.0
H781 H 0.38763 0.73026 0.87038 0.0
H782 H 0.45078 0.80852 0.88406 0.0
H783 H 0.44879 0.83135 0.85949 0.0
C784 C 0.40644 0.76675 0.9206 0.0
C785 C 0.40506 0.73321 0.92367 0.0
C786 C 0.41212 0.77796 0.90635 0.0
C787 C 0.41652 0.75596 0.89474 0.0
C788 C 0.41637 0.72252 0.8979 0.0
C789 C 0.41075 0.71131 0.91211 0.0
C790 C 0.40059 0.76507 0.854 0.0
C791 C 0.41687 0.79424 0.85066 0.0
C792 C 0.40174 0.75194 0.8681 0.0
C793 C 0.41899 0.76776 0.87932 0.0
C794 C 0.43678 0.79597 0.87578 0.0
C795 C 0.43591 0.8089 0.86162 0.0
H796 H 0.46712 0.03927 0.09084 0.0
H797 H 0.41394 0.11385 0.114 0.0
H798 H 0.50496 0.03462 0.11123 0.0
H799 H 0.45191 0.10909 0.13439 0.0
H800 H 0.51444 0.0761 0.17289 0.0
H801 H 0.47297 0.07228 0.15399 0.0
H802 H 0.54804 0.07159 0.12102 0.0
H803 H 0.58962 0.07618 0.13985 0.0
C804 C 0.46303 0.05423 0.10038 0.0
C805 C 0.43748 0.07709 0.1007 0.0
C806 C 0.48497 0.05173 0.11202 0.0
C807 C 0.48173 0.07175 0.12436 0.0
C808 C 0.45504 0.0932 0.12508 0.0
C809 C 0.43324 0.09593 0.11337 0.0
C810 C 0.52227 0.07529 0.16164 0.0
C811 C 0.55563 0.07691 0.158 0.0
C812 C 0.49838 0.07299 0.15079 0.0
C813 C 0.50713 0.07178 0.13599 0.0
C814 C 0.54045 0.07213 0.13233 0.0
C815 C 0.56438 0.07475 0.14318 0.0
H816 H 0.16805 0.74315 0.20748 0.0
H817 H 0.09925 0.80677 0.18638 0.0
H818 H 0.16039 0.70285 0.18832 0.0
H819 H 0.09276 0.76747 0.16665 0.0
H820 H 0.07988 0.68518 0.134 0.0
H821 H 0.07685 0.71754 0.15627 0.0
H822 H 0.17879 0.69804 0.16444 0.0
H823 H 0.1813 0.66512 0.14246 0.0
C824 C 0.1504 0.74799 0.19895 0.0
C825 C 0.13385 0.77785 0.19857 0.0
C826 C 0.14651 0.7252 0.18775 0.0
C827 C 0.12663 0.73204 0.1756 0.0
C828 C 0.10818 0.76102 0.17579 0.0
C829 C 0.11166 0.7836 0.18719 0.0
C830 C 0.10161 0.68783 0.14057 0.0
C831 C 0.13088 0.67255 0.13638 0.0
C832 C 0.0999 0.70645 0.15338 0.0
C833 C 0.1275 0.71054 0.16234 0.0
C834 C 0.15669 0.69498 0.15814 0.0
C835 C 0.15827 0.67614 0.14543 0.0
H836 H 0.46845 0.92636 0.44709 0.0
H837 H 0.39056 0.90055 0.41757 0.0
H838 H 0.50481 0.93454 0.42656 0.0
H839 H 0.42668 0.91013 0.3969 0.0
H840 H 0.56328 0.9581 0.38608 0.0
H841 H 0.52226 0.96236 0.4054 0.0
H842 H 0.4705 0.88076 0.38676 0.0
H843 H 0.51058 0.87742 0.36745 0.0
C844 C 0.45873 0.92338 0.43619 0.0
C845 C 0.42662 0.91225 0.43403 0.0
C846 C 0.47968 0.9282 0.42435 0.0
C847 C 0.46901 0.92238 0.41001 0.0
C848 C 0.43607 0.91398 0.4078 0.0
C849 C 0.41516 0.90887 0.41966 0.0
C850 C 0.54296 0.9413 0.38612 0.0
C851 C 0.54014 0.91759 0.37517 0.0
C852 C 0.51945 0.94366 0.39719 0.0
C853 C 0.49276 0.92207 0.39764 0.0
C854 C 0.49004 0.89847 0.38661 0.0
C855 C 0.51325 0.89639 0.37552 0.0
H856 H 0.39468 0.21478 0.6818 0.0
H857 H 0.41161 0.126 0.65783 0.0
H858 H 0.38712 0.24408 0.65891 0.0
H859 H 0.40443 0.15542 0.63493 0.0
H860 H 0.36018 0.2134 0.59685 0.0
H861 H 0.36513 0.18343 0.6196 0.0
H862 H 0.41949 0.26294 0.63835 0.0
H863 H 0.41483 0.29295 0.61557 0.0
C864 C 0.39648 0.20137 0.67167 0.0
C865 C 0.40372 0.1679 0.67174 0.0
C866 C 0.39247 0.21831 0.6585 0.0
C867 C 0.39543 0.20228 0.64499 0.0
C868 C 0.4017 0.1686 0.64508 0.0
C869 C 0.40586 0.15168 0.65825 0.0
C870 C 0.37354 0.22452 0.6057 0.0
C871 C 0.38704 0.25588 0.60417 0.0
C872 C 0.37633 0.20721 0.61884 0.0
C873 C 0.39258 0.2207 0.63092 0.0
C874 C 0.40627 0.25193 0.6294 0.0
C875 C 0.40361 0.2692 0.61624 0.0
H876 H 0.05357 0.17553 0.91942 0.0
H877 H 0.99109 0.11895 0.94733 0.0
H878 H 0.0102 0.17922 0.90132 0.0
H879 H 0.94682 0.12382 0.92968 0.0
H880 H 0.89664 0.09387 0.88698 0.0
H881 H 0.93397 0.09988 0.90747 0.0
H882 H 0.95983 0.19604 0.89226 0.0
H883 H 0.92329 0.18922 0.87153 0.0
C884 C 0.02987 0.16545 0.92203 0.0
C885 C 0.02543 0.14765 0.93494 0.0
C886 C 1.00492 0.16726 0.91157 0.0
C887 C 0.97484 0.15132 0.9138 0.0
C888 C 0.96975 0.13572 0.92731 0.0
C889 C 0.99487 0.13354 0.93763 0.0
C890 C 0.91011 0.11637 0.8881 0.0
C891 C 0.90719 0.14088 0.87751 0.0
C892 C 0.93147 0.12002 0.89994 0.0
C893 C 0.95024 0.14854 0.90168 0.0
C894 C 0.94648 0.17345 0.89125 0.0
C895 C 0.92543 0.16958 0.87932 0.0
H896 H 0.88153 0.73239 0.62246 0.0
H897 H 0.79256 0.68902 0.63835 0.0
H898 H 0.87519 0.77707 0.63931 0.0
H899 H 0.78566 0.73465 0.6553 0.0
H900 H 0.85053 0.86638 0.66297 0.0
H901 H 0.84451 0.82452 0.6444 0.0
H902 H 0.80866 0.75759 0.67701 0.0
H903 H 0.81347 0.79975 0.69545 0.0
C904 C 0.86023 0.73263 0.6294 0.0
C905 C 0.83739 0.70714 0.62892 0.0
C906 C 0.85646 0.75852 0.63907 0.0
C907 C 0.82959 0.75997 0.64856 0.0
C908 C 0.80672 0.73436 0.64819 0.0
C909 C 0.81065 0.70817 0.6385 0.0
C910 C 0.84047 0.84306 0.66612 0.0
C911 C 0.83293 0.83642 0.68077 0.0
C912 C 0.83738 0.81884 0.65548 0.0
C913 C 0.82691 0.78729 0.65924 0.0
C914 C 0.8168 0.7815 0.67366 0.0
C915 C 0.81965 0.80579 0.68428 0.0
H916 H 0.15979 0.14952 0.3928 0.0
H917 H 0.0716 0.13946 0.36748 0.0
H918 H 0.12742 0.15497 0.41492 0.0
H919 H 0.03925 0.14485 0.38961 0.0
H920 H 0.98646 0.17726 0.43034 0.0
H921 H 0.02154 0.18101 0.40886 0.0
H922 H 0.0942 0.12253 0.43066 0.0
H923 H 0.05955 0.11932 0.45211 0.0
C924 C 0.13354 0.1482 0.3919 0.0
C925 C 0.11851 0.1438 0.37823 0.0
C926 C 0.11488 0.15145 0.40465 0.0
C927 C 0.08058 0.15038 0.40415 0.0
C928 C 0.06553 0.14639 0.39046 0.0
C929 C 0.08419 0.14314 0.37772 0.0
C930 C 0.01023 0.16585 0.43069 0.0
C931 C 0.02 0.14784 0.443 0.0
C932 C 0.03024 0.16766 0.41827 0.0
C933 C 0.06065 0.15169 0.41787 0.0
C934 C 0.07114 0.13534 0.43051 0.0
C935 C 0.05113 0.13344 0.44287 0.0
H936 H 0.58529 0.23065 0.09991 0.0
H937 H 0.59621 0.32686 0.1181 0.0
H938 H 0.57866 0.20839 0.12443 0.0
H939 H 0.58884 0.30472 0.14254 0.0
H940 H 0.62995 0.24292 0.1815 0.0
H941 H 0.6228 0.27125 0.1584 0.0
H942 H 0.54516 0.20515 0.14692 0.0
H943 H 0.55249 0.1767 0.17027 0.0
C944 C 0.58598 0.24714 0.1091 0.0
C945 C 0.59167 0.28058 0.10691 0.0
C946 C 0.58176 0.2344 0.1232 0.0
C947 C 0.58335 0.25466 0.13556 0.0
C948 C 0.58778 0.28827 0.13333 0.0
C949 C 0.59177 0.30105 0.11923 0.0
C950 C 0.61054 0.23516 0.17428 0.0
C951 C 0.59152 0.20784 0.17782 0.0
C952 C 0.60646 0.25138 0.16097 0.0
C953 C 0.58357 0.24043 0.15065 0.0
C954 C 0.56324 0.21411 0.15453 0.0
C955 C 0.56703 0.19811 0.16802 0.0
H956 H 0.56292 0.91413 0.94372 0.0
H957 H 0.62901 0.88202 0.91001 0.0
H958 H 0.52088 0.92356 0.92547 0.0
H959 H 0.58718 0.89228 0.89167 0.0
H960 H 0.49309 0.87087 0.86648 0.0
H961 H 0.53737 0.86802 0.8839 0.0
H962 H 0.50143 0.95459 0.90514 0.0
H963 H 0.45658 0.9573 0.88764 0.0
C964 C 0.56879 0.9097 0.93238 0.0
C965 C 0.59949 0.89712 0.92841 0.0
C966 C 0.54457 0.91523 0.92185 0.0
C967 C 0.55028 0.90838 0.90702 0.0
C968 C 0.58152 0.89724 0.90299 0.0
C969 C 0.60574 0.89167 0.91352 0.0
C970 C 0.49465 0.88965 0.87469 0.0
C971 C 0.47098 0.91442 0.87551 0.0
C972 C 0.52032 0.88803 0.88474 0.0
C973 C 0.52336 0.91115 0.89597 0.0
C974 C 0.49982 0.93608 0.89677 0.0
C975 C 0.47402 0.93767 0.8867 0.0
H976 H 0.83148 0.35912 0.8933 0.0
H977 H 0.93197 0.33747 0.90314 0.0
H978 H 0.83554 0.32741 0.87095 0.0
H979 H 0.93639 0.30614 0.88067 0.0
H980 H 0.91812 0.22079 0.84842 0.0
H981 H 0.92013 0.25672 0.86954 0.0
H982 H 0.85757 0.32507 0.84721 0.0
H983 H 0.8544 0.28843 0.82646 0.0
C984 C 0.8546 0.34795 0.89061 0.0
C985 C 0.88131 0.35076 0.90012 0.0
C986 C 0.85704 0.32978 0.87772 0.0
C987 C 0.88637 0.31408 0.87386 0.0
C988 C 0.91324 0.31733 0.8833 0.0
C989 C 0.91071 0.33535 0.89624 0.0
C990 C 0.90512 0.24362 0.84795 0.0
C991 C 0.88555 0.25124 0.83581 0.0
C992 C 0.90635 0.26443 0.86008 0.0
C993 C 0.88838 0.29366 0.86032 0.0
C994 C 0.8709 0.30237 0.84769 0.0
C995 C 0.86943 0.28146 0.83566 0.0
H996 H 0.5909 0.13999 0.691 0.0
H997 H 0.50053 0.12687 0.66755 0.0
H998 H 0.62136 0.12574 0.66891 0.0
H999 H 0.53065 0.11398 0.64562 0.0
H1000 H 0.58516 0.06146 0.61189 0.0
H1001 H 0.56304 0.06994 0.63619 0.0
H1002 H 0.6347 0.14479 0.64407 0.0
H1003 H 0.65728 0.13591 0.6197 0.0
C1004 C 0.5775 0.13415 0.68118 0.0
C1005 C 0.54315 0.13447 0.68117 0.0
C1006 C 0.59499 0.12619 0.66849 0.0
C1007 C 0.57851 0.11809 0.65553 0.0
C1008 C 0.54424 0.11923 0.65547 0.0
C1009 C 0.52686 0.12721 0.66807 0.0
C1010 C 0.59681 0.07914 0.61892 0.0
C1011 C 0.62275 0.09824 0.61374 0.0
C1012 C 0.58387 0.08429 0.63282 0.0
C1013 C 0.59639 0.10878 0.64194 0.0
C1014 C 0.62435 0.12579 0.63734 0.0
C1015 C 0.63741 0.12059 0.62336 0.0
H1016 H 0.60968 0.75705 0.3523 0.0
H1017 H 0.52946 0.82264 0.35966 0.0
H1018 H 0.59831 0.72978 0.37523 0.0
H1019 H 0.51771 0.79521 0.38288 0.0
H1020 H 0.55051 0.77505 0.4315 0.0
H1021 H 0.5443 0.79398 0.40646 0.0
H1022 H 0.56524 0.69722 0.39078 0.0
H1023 H 0.57267 0.67861 0.41575 0.0
C1024 C 0.58876 0.76488 0.35861 0.0
C1025 C 0.57043 0.79196 0.3541 0.0
C1026 C 0.58217 0.7492 0.37184 0.0
C1027 C 0.55723 0.76034 0.38113 0.0
C1028 C 0.53736 0.78611 0.37614 0.0
C1029 C 0.54377 0.8016 0.36272 0.0
C1030 C 0.55371 0.75773 0.42274 0.0
C1031 C 0.563 0.72543 0.42579 0.0
C1032 C 0.54969 0.76853 0.4083 0.0
C1033 C 0.55491 0.74738 0.39645 0.0
C1034 C 0.56179 0.7145 0.39955 0.0
C1035 C 0.56578 0.70369 0.41397 0.0
H1036 H 0.15009 0.88455 0.14633 0.0
H1037 H 0.06654 0.87228 0.17455 0.0
H1038 H 0.11547 0.87542 0.12516 0.0
H1039 H 0.0323 0.86284 0.15341 0.0
H1040 H 0.97724 0.83054 0.11395 0.0
H1041 H 0.01915 0.82646 0.13297 0.0
H1042 H 0.07231 0.90505 0.11267 0.0
H1043 H 0.03061 0.90886 0.09385 0.0
C1044 C 0.12445 0.87999 0.14812 0.0
C1045 C 0.1114 0.87946 0.16235 0.0
C1046 C 0.10455 0.87455 0.1359 0.0
C1047 C 0.07102 0.86821 0.13751 0.0
C1048 C 0.05809 0.86699 0.15171 0.0
C1049 C 0.07789 0.87262 0.16391 0.0
C1050 C 0.99871 0.84578 0.1132 0.0
C1051 C 1.001 0.8696 0.10227 0.0
C1052 C 0.02244 0.84393 0.12425 0.0
C1053 C 0.04901 0.86573 0.1245 0.0
C1054 C 0.05248 0.88767 0.11283 0.0
C1055 C 0.02865 0.88975 0.10195 0.0
H1056 H 0.60947 0.6358 0.87287 0.0
H1057 H 0.62491 0.73222 0.85558 0.0
H1058 H 0.61353 0.65771 0.89781 0.0
H1059 H 0.62913 0.75378 0.88013 0.0
H1060 H 0.58852 0.78925 0.92286 0.0
H1061 H 0.58823 0.76232 0.89933 0.0
H1062 H 0.64989 0.68632 0.91643 0.0
H1063 H 0.65059 0.71364 0.94016 0.0
C1064 C 0.61453 0.66143 0.87437 0.0
C1065 C 0.61661 0.6823 0.86224 0.0
C1066 C 0.6167 0.67403 0.88864 0.0
C1067 C 0.6209 0.70767 0.89098 0.0
C1068 C 0.62499 0.72794 0.87878 0.0
C1069 C 0.62283 0.71548 0.86466 0.0
C1070 C 0.60224 0.76695 0.92169 0.0
C1071 C 0.62001 0.75406 0.93348 0.0
C1072 C 0.60204 0.75141 0.90813 0.0
C1073 C 0.61951 0.72239 0.90588 0.0
C1074 C 0.63618 0.70862 0.91778 0.0
C1075 C 0.63651 0.72431 0.93141 0.0
H1076 H 0.55779 0.42973 0.08964 0.0
H1077 H 0.62801 0.39989 0.12209 0.0
H1078 H 0.51731 0.43792 0.10859 0.0
H1079 H 0.58791 0.40956 0.1412 0.0
H1080 H 0.45211 0.4642 0.14689 0.0
H1081 H 0.49616 0.4657 0.12887 0.0
H1082 H 0.54146 0.38324 0.14999 0.0
H1083 H 0.4984 0.38268 0.16805 0.0
C1084 C 0.56496 0.42582 0.10087 0.0
C1085 C 0.59621 0.41381 0.10428 0.0
C1086 C 0.54161 0.43062 0.11181 0.0
C1087 C 0.54892 0.4239 0.12651 0.0
C1088 C 0.58094 0.41414 0.12999 0.0
C1089 C 0.60419 0.40899 0.11903 0.0
C1090 C 0.47163 0.44658 0.14766 0.0
C1091 C 0.47182 0.42355 0.15899 0.0
C1092 C 0.4969 0.44732 0.13731 0.0
C1093 C 0.52278 0.42474 0.13794 0.0
C1094 C 0.52268 0.40167 0.14929 0.0
C1095 C 0.49775 0.40122 0.15968 0.0
H1096 H 0.8857 0.12212 0.3904 0.0
H1097 H 0.91093 0.2072 0.41563 0.0
H1098 H 0.88435 0.15515 0.36837 0.0
H1099 H 0.90974 0.24006 0.39357 0.0
H1100 H 0.92227 0.29082 0.35009 0.0
H1101 H 0.93479 0.25212 0.36973 0.0
H1102 H 0.84899 0.19665 0.35849 0.0
H1103 H 0.83673 0.2351 0.3391 0.0
C1104 C 0.89089 0.14781 0.39134 0.0
C1105 C 0.89811 0.16178 0.40499 0.0
C1106 C 0.89026 0.16681 0.37862 0.0
C1107 C 0.89691 0.20039 0.37911 0.0
C1108 C 0.90499 0.21423 0.39267 0.0
C1109 C 0.90553 0.19526 0.40541 0.0
C1110 C 0.90683 0.2697 0.35151 0.0
C1111 C 0.87862 0.2659 0.34299 0.0
C1112 C 0.91369 0.24776 0.36291 0.0
C1113 C 0.89273 0.22132 0.36584 0.0
C1114 C 0.86589 0.21643 0.35656 0.0
C1115 C 0.85885 0.23849 0.34538 0.0
H1116 H 0.08711 0.67986 0.66746 0.0
H1117 H 0.9895 0.67848 0.68505 0.0
H1118 H 0.06484 0.68492 0.6429 0.0
H1119 H 0.96726 0.68234 0.66051 0.0
H1120 H 0.93233 0.70512 0.61497 0.0
H1121 H 0.95841 0.71365 0.6387 0.0
H1122 H 0.03769 0.65098 0.62566 0.0
H1123 H 0.01201 0.64308 0.60204 0.0
C1124 C 0.06092 0.68094 0.66618 0.0
C1125 C 0.04024 0.67834 0.67841 0.0
C1126 C 0.04805 0.68354 0.65199 0.0
C1127 C 0.01408 0.68374 0.64954 0.0
C1128 C 0.99349 0.68252 0.66183 0.0
C1129 C 1.00633 0.67985 0.67599 0.0
C1130 C 0.95575 0.69392 0.61703 0.0
C1131 C 0.96993 0.67336 0.60652 0.0
C1132 C 0.97058 0.69844 0.63075 0.0
C1133 C 1.00014 0.6827 0.63432 0.0
C1134 C 0.01517 0.66378 0.62342 0.0
C1135 C 1.0003 0.65915 0.6098 0.0
H1136 H 0.59157 0.17754 0.62283 0.0
H1137 H 0.61329 0.27727 0.61149 0.0
H1138 H 0.57518 0.19473 0.64704 0.0
H1139 H 0.59703 0.29427 0.63578 0.0
H1140 H 0.59659 0.23544 0.69386 0.0
H1141 H 0.60193 0.21517 0.669 0.0
H1142 H 0.55167 0.30018 0.65288 0.0
H1143 H 0.5463 0.3204 0.67777 0.0
C1144 C 0.59297 0.20311 0.62535 0.0
C1145 C 0.60481 0.22572 0.61503 0.0
C1146 C 0.5835 0.21299 0.63937 0.0
C1147 C 0.58501 0.24589 0.6435 0.0
C1148 C 0.59535 0.26872 0.63302 0.0
C1149 C 0.60509 0.25882 0.61904 0.0
C1150 C 0.58609 0.24955 0.68506 0.0
C1151 C 0.57134 0.27982 0.68789 0.0
C1152 C 0.58912 0.23787 0.67075 0.0
C1153 C 0.57773 0.25625 0.65883 0.0
C1154 C 0.56132 0.28564 0.66173 0.0
C1155 C 0.55798 0.29714 0.67607 0.0
H1156 H 0.10948 0.3318 0.8753 0.0
H1157 H 0.12207 0.43187 0.88818 0.0
H1158 H 0.07201 0.32334 0.89565 0.0
H1159 H 0.08412 0.42394 0.9082 0.0
H1160 H 0.02896 0.40425 0.94807 0.0
H1161 H 0.07435 0.40142 0.93098 0.0
H1162 H 0.01908 0.33483 0.90415 0.0
H1163 H 0.97466 0.33639 0.9219 0.0
C1164 C 0.10411 0.35208 0.88242 0.0
C1165 C 0.11883 0.38259 0.88005 0.0
C1166 C 0.08255 0.34724 0.89414 0.0
C1167 C 0.07488 0.37282 0.90378 0.0
C1168 C 0.08985 0.40326 0.90137 0.0
C1169 C 0.1116 0.40798 0.88977 0.0
C1170 C 0.02727 0.38778 0.93888 0.0
C1171 C 0.99851 0.37012 0.93645 0.0
C1172 C 0.05299 0.38671 0.92884 0.0
C1173 C 0.05029 0.36867 0.91583 0.0
C1174 C 0.02239 0.34898 0.91399 0.0
C1175 C 0.99686 0.34963 0.92423 0.0
H1176 H 0.86659 0.8825 0.15086 0.0
H1177 H 0.90119 0.80059 0.12577 0.0
H1178 H 0.86854 0.84951 0.17294 0.0
H1179 H 0.9031 0.76775 0.14779 0.0
H1180 H 0.9185 0.71666 0.19053 0.0
H1181 H 0.92824 0.75739 0.17143 0.0
H1182 H 0.83797 0.80508 0.18291 0.0
H1183 H 0.82861 0.76474 0.20181 0.0
C1184 C 0.87455 0.8575 0.14999 0.0
C1185 C 0.88345 0.84436 0.13638 0.0
C1186 C 0.87581 0.83854 0.16271 0.0
C1187 C 0.88599 0.80584 0.16223 0.0
C1188 C 0.8957 0.79295 0.1487 0.0
C1189 C 0.89443 0.81188 0.13598 0.0
C1190 C 0.9015 0.73662 0.18932 0.0
C1191 C 0.87288 0.73762 0.19772 0.0
C1192 C 0.90676 0.7597 0.17822 0.0
C1193 C 0.88369 0.78443 0.17544 0.0
C1194 C 0.85646 0.78672 0.18471 0.0
C1195 C 0.85108 0.76356 0.19562 0.0
H1196 H 0.55534 0.58326 0.4443 0.0
H1197 H 0.62841 0.61571 0.41365 0.0
H1198 H 0.51746 0.57435 0.42448 0.0
H1199 H 0.59108 0.60481 0.39359 0.0
H1200 H 0.45419 0.5528 0.3855 0.0
H1201 H 0.49743 0.54874 0.40382 0.0
H1202 H 0.54619 0.63098 0.38404 0.0
H1203 H 0.50441 0.63346 0.36554 0.0
C1204 C 0.5638 0.5874 0.43327 0.0
C1205 C 0.59486 0.60072 0.43061 0.0
C1206 C 0.54193 0.58217 0.42181 0.0
C1207 C 0.55072 0.58952 0.40735 0.0
C1208 C 0.58292 0.5999 0.4046 0.0
C1209 C 0.6046 0.60573 0.4161 0.0
C1210 C 0.47441 0.56969 0.38507 0.0
C1211 C 0.47589 0.59334 0.37404 0.0
C1212 C 0.49918 0.56752 0.39559 0.0
C1213 C 0.52568 0.58941 0.39547 0.0
C1214 C 0.52695 0.61298 0.38435 0.0
C1215 C 0.50266 0.61466 0.37374 0.0
H1216 H 0.46426 0.25404 0.10508 0.0
H1217 H 0.37485 0.20809 0.11865 0.0
H1218 H 0.47187 0.27571 0.12965 0.0
H1219 H 0.38126 0.23076 0.14294 0.0
H1220 H 0.40369 0.25682 0.18835 0.0
H1221 H 0.40768 0.22921 0.16493 0.0
H1222 H 0.45487 0.314 0.14663 0.0
H1223 H 0.45254 0.34046 0.1704 0.0
C1224 C 0.44602 0.24888 0.11329 0.0
C1225 C 0.4189 0.22934 0.10988 0.0
C1226 C 0.45032 0.26136 0.12744 0.0
C1227 C 0.42735 0.25505 0.13854 0.0
C1228 C 0.40013 0.2356 0.13498 0.0
C1229 C 0.39617 0.22272 0.12095 0.0
C1230 C 0.41603 0.26898 0.17944 0.0
C1231 C 0.42819 0.30061 0.18128 0.0
C1232 C 0.41775 0.25345 0.16586 0.0
C1233 C 0.43075 0.26951 0.15357 0.0
C1234 C 0.44482 0.3005 0.15571 0.0
C1235 C 0.44372 0.31574 0.16942 0.0
H1236 H 0.33749 0.63534 0.90676 0.0
H1237 H 0.42246 0.60298 0.9304 0.0
H1238 H 0.36874 0.63509 0.88416 0.0
H1239 H 0.45427 0.60478 0.90819 0.0
H1240 H 0.50462 0.59434 0.86506 0.0
H1241 H 0.46935 0.58561 0.88601 0.0
H1242 H 0.40667 0.66353 0.87116 0.0
H1243 H 0.44154 0.6711 0.84996 0.0
C1244 C 0.36276 0.62775 0.9071 0.0
C1245 C 0.3773 0.61903 0.92043 0.0
C1246 C 0.38097 0.62812 0.89414 0.0
C1247 C 0.41449 0.62038 0.89415 0.0
C1248 C 0.42857 0.61041 0.90746 0.0
C1249 C 0.4102 0.60939 0.92034 0.0
C1250 C 0.48335 0.60965 0.86633 0.0
C1251 C 0.47606 0.63357 0.85588 0.0
C1252 C 0.46303 0.60477 0.87843 0.0
C1253 C 0.43502 0.62408 0.88062 0.0
C1254 C 0.42761 0.64777 0.86997 0.0
C1255 C 0.44773 0.65231 0.85776 0.0
H1256 H 0.19281 0.72264 0.69839 0.0
H1257 H 0.16041 0.65273 0.66635 0.0
H1258 H 0.19902 0.76337 0.67926 0.0
H1259 H 0.16729 0.69326 0.64722 0.0
H1260 H 0.13052 0.78377 0.62356 0.0
H1261 H 0.13538 0.74106 0.64151 0.0
H1262 H 0.22569 0.78283 0.65681 0.0
H1263 H 0.2208 0.82619 0.63854 0.0
C1264 C 0.18788 0.71562 0.68722 0.0
C1265 C 0.17567 0.68442 0.68397 0.0
C1266 C 0.1915 0.73905 0.67623 0.0
C1267 C 0.18303 0.73184 0.66173 0.0
C1268 C 0.17331 0.69989 0.65833 0.0
C1269 C 0.16968 0.67649 0.6693 0.0
C1270 C 0.15177 0.78381 0.63052 0.0
C1271 C 0.17549 0.80842 0.62939 0.0
C1272 C 0.15459 0.75908 0.64086 0.0
C1273 C 0.18123 0.75806 0.65048 0.0
C1274 C 0.20485 0.78286 0.64957 0.0
C1275 C 0.20202 0.80776 0.63912 0.0
H1276 H 0.94987 0.39028 0.45394 0.0
H1277 H 0.02511 0.34151 0.42938 0.0
H1278 H 0.91381 0.38781 0.4329 0.0
H1279 H 0.98965 0.34023 0.4081 0.0
H1280 H 0.91156 0.32684 0.37341 0.0
H1281 H 0.94297 0.32085 0.39581 0.0
H1282 H 0.90811 0.41455 0.4104 0.0
H1283 H 0.87618 0.41996 0.38813 0.0
C1284 C 0.95863 0.37862 0.4441 0.0
C1285 C 0.9906 0.36633 0.44338 0.0
C1286 C 0.93803 0.37758 0.43192 0.0
C1287 C 0.94885 0.3645 0.41857 0.0
C1288 C 0.98019 0.35042 0.41813 0.0
C1289 C 1.00069 0.35116 0.43039 0.0
C1290 C 0.9107 0.34621 0.38138 0.0
C1291 C 0.89143 0.37401 0.37889 0.0
C1292 C 0.92877 0.34278 0.39428 0.0
C1293 C 0.9283 0.36718 0.40505 0.0
C1294 C 0.90874 0.39486 0.40258 0.0
C1295 C 0.89045 0.39812 0.38973 0.0
H1296 H 0.40546 0.75617 0.3534 0.0
H1297 H 0.48126 0.68546 0.36056 0.0
H1298 H 0.41709 0.78088 0.37694 0.0
H1299 H 0.49287 0.70994 0.38445 0.0
H1300 H 0.44954 0.82845 0.41802 0.0
H1301 H 0.45455 0.81014 0.39298 0.0
H1302 H 0.46166 0.71079 0.40774 0.0
H1303 H 0.4562 0.72879 0.43287 0.0
C1304 C 0.42544 0.74658 0.35982 0.0
C1305 C 0.4425 0.7189 0.35507 0.0
C1306 C 0.43212 0.76073 0.37339 0.0
C1307 C 0.45569 0.74726 0.38276 0.0
C1308 C 0.47429 0.72077 0.37761 0.0
C1309 C 0.46796 0.70696 0.36384 0.0
C1310 C 0.45205 0.80265 0.41611 0.0
C1311 C 0.45143 0.7802 0.42777 0.0
C1312 C 0.45514 0.79215 0.40161 0.0
C1313 C 0.45804 0.7589 0.39824 0.0
C1314 C 0.45959 0.73661 0.40987 0.0
C1315 C 0.45623 0.74705 0.42439 0.0
H1316 H 0.03629 0.67888 0.11536 0.0
H1317 H 0.9795 0.61032 0.09065 0.0
H1318 H 0.9944 0.67977 0.13427 0.0
H1319 H 0.93638 0.61263 0.10888 0.0
H1320 H 0.89314 0.58252 0.15269 0.0
H1321 H 0.92828 0.5905 0.13163 0.0
H1322 H 0.94349 0.69064 0.14435 0.0
H1323 H 0.90927 0.68186 0.16577 0.0
C1324 C 0.01402 0.66531 0.11363 0.0
C1325 C 0.01101 0.6448 0.10148 0.0
C1326 C 0.98991 0.66559 0.12453 0.0
C1327 C 0.962 0.64561 0.12342 0.0
C1328 C 0.95784 0.62751 0.1105 0.0
C1329 C 0.98224 0.62672 0.09981 0.0
C1330 C 0.90376 0.60629 0.15089 0.0
C1331 C 0.89855 0.63142 0.16098 0.0
C1332 C 0.92385 0.61107 0.13871 0.0
C1333 C 0.93895 0.64138 0.13606 0.0
C1334 C 0.93296 0.66679 0.14602 0.0
C1335 C 0.91323 0.66181 0.15834 0.0
H1336 H 0.11306 0.29617 0.84842 0.0
H1337 H 0.19293 0.23779 0.83242 0.0
H1338 H 0.10584 0.25845 0.86873 0.0
H1339 H 0.18624 0.20066 0.85277 0.0
H1340 H 0.15654 0.12728 0.88706 0.0
H1341 H 0.15545 0.16036 0.86498 0.0
H1342 H 0.13345 0.24534 0.89086 0.0
H1343 H 0.13413 0.21222 0.91282 0.0
C1344 C 0.12881 0.27511 0.84909 0.0
C1345 C 0.15383 0.27038 0.8388 0.0
C1346 C 0.12487 0.25355 0.86085 0.0
C1347 C 0.14577 0.2266 0.86262 0.0
C1348 C 0.16947 0.22089 0.85182 0.0
C1349 C 0.17338 0.24237 0.84009 0.0
C1350 C 0.1516 0.15303 0.88806 0.0
C1351 C 0.14553 0.16696 0.90181 0.0
C1352 C 0.15092 0.17208 0.87535 0.0
C1353 C 0.14433 0.20569 0.87602 0.0
C1354 C 0.13797 0.21951 0.88978 0.0
C1355 C 0.13851 0.20045 0.90246 0.0
H1356 H 0.36762 0.38319 0.62745 0.0
H1357 H 0.43587 0.41306 0.59416 0.0
H1358 H 0.40964 0.3905 0.64596 0.0
H1359 H 0.47813 0.41915 0.61252 0.0
H1360 H 0.54575 0.44397 0.65034 0.0
H1361 H 0.50061 0.4464 0.63292 0.0
H1362 H 0.4568 0.36262 0.65358 0.0
H1363 H 0.50116 0.36079 0.67098 0.0
C1364 C 0.39143 0.39173 0.62408 0.0
C1365 C 0.39826 0.39732 0.60926 0.0
C1366 C 0.41575 0.39557 0.6347 0.0
C1367 C 0.44767 0.40487 0.63079 0.0
C1368 C 0.45393 0.41217 0.61605 0.0
C1369 C 0.42957 0.40856 0.60546 0.0
C1370 C 0.5264 0.42617 0.65114 0.0
C1371 C 0.52709 0.40238 0.66217 0.0
C1372 C 0.50048 0.42748 0.64114 0.0
C1373 C 0.47468 0.40485 0.64183 0.0
C1374 C 0.47557 0.38106 0.65286 0.0
C1375 C 0.50125 0.37992 0.66288 0.0
H1376 H 0.27677 0.35997 0.2418 0.0
H1377 H 0.35581 0.2914 0.23724 0.0
H1378 H 0.25053 0.32398 0.2594 0.0
H1379 H 0.3296 0.25543 0.25473 0.0
H1380 H 0.29171 0.21328 0.2974 0.0
H1381 H 0.31709 0.25027 0.28008 0.0
H1382 H 0.22256 0.27279 0.26198 0.0
H1383 H 0.19712 0.23583 0.27941 0.0
C1384 C 0.28849 0.33715 0.24444 0.0
C1385 C 0.31861 0.32883 0.23808 0.0
C1386 C 0.27337 0.31641 0.25456 0.0
C1387 C 0.2879 0.2867 0.25861 0.0
C1388 C 0.3179 0.27833 0.25216 0.0
C1389 C 0.33301 0.29905 0.24207 0.0
C1390 C 0.27627 0.22589 0.28968 0.0
C1391 C 0.24227 0.22127 0.28984 0.0
C1392 C 0.2909 0.24718 0.27969 0.0
C1393 C 0.27201 0.26454 0.2695 0.0
C1394 C 0.23795 0.26023 0.26975 0.0
C1395 C 0.22329 0.23894 0.27978 0.0
H1396 H 0.0827 0.92014 0.53456 0.0
H1397 H 0.05681 0.99912 0.56329 0.0
H1398 H 0.05137 0.94517 0.515 0.0
H1399 H 0.02501 0.02403 0.5438 0.0
H1400 H 0.9994 0.07676 0.50125 0.0
H1401 H 0.0296 0.05172 0.52114 0.0
H1402 H 0.99762 0.95687 0.50682 0.0
H1403 H 0.96777 0.98206 0.48676 0.0
C1404 C 0.07004 0.94269 0.53677 0.0
C1405 C 0.07235 0.95754 0.55056 0.0
C1406 C 0.05194 0.95708 0.52553 0.0
C1407 C 0.03544 0.9867 0.52774 0.0
C1408 C 0.03773 1.00152 0.54156 0.0
C1409 C 0.056 0.9872 0.55278 0.0
C1410 C 0.99844 0.0506 0.50242 0.0
C1411 C 0.98103 0.03148 0.49236 0.0
C1412 C 0.01583 0.03616 0.51388 0.0
C1413 C 0.01624 1.00215 0.51567 0.0
C1414 C 0.99847 0.98307 0.50569 0.0
C1415 C 0.98121 0.99752 0.49418 0.0
H1416 H 0.16086 0.79681 0.7558 0.0
H1417 H 0.19709 0.70389 0.77041 0.0
H1418 H 0.19964 0.82448 0.77182 0.0
H1419 H 0.23586 0.73159 0.78654 0.0
H1420 H 0.27048 0.79539 0.82577 0.0
H1421 H 0.23301 0.76735 0.80929 0.0
H1422 H 0.2613 0.83181 0.77436 0.0
H1423 H 0.29904 0.85979 0.7909 0.0
C1424 C 0.17702 0.78227 0.76248 0.0
C1425 C 0.17576 0.74809 0.76185 0.0
C1426 C 0.19945 0.79815 0.77157 0.0
C1427 C 0.22088 0.78029 0.78048 0.0
C1428 C 0.21958 0.74609 0.77989 0.0
C1429 C 0.19753 0.7302 0.77058 0.0
C1430 C 0.2686 0.80371 0.81461 0.0
C1431 C 0.28767 0.82998 0.80968 0.0
C1432 C 0.24733 0.78743 0.80511 0.0
C1433 C 0.24412 0.79729 0.79049 0.0
C1434 C 0.26304 0.8237 0.78558 0.0
C1435 C 0.28478 0.83962 0.79502 0.0
H1436 H 0.52928 0.07539 0.04525 0.0
H1437 H 0.43564 0.0549 0.0258 0.0
H1438 H 0.55173 0.02689 0.03411 0.0
H1439 H 0.45834 1.00602 1.0145 0.0
H1440 H 0.50312 0.90343 1.00898 0.0
H1441 H 0.47912 0.95188 0.02004 0.0
H1442 H 0.56739 1.00544 1.01098 0.0
H1443 H 0.59172 0.95699 1.00056 0.0
C1444 C 0.51351 0.06089 0.0384 0.0
C1445 C 0.48059 0.06944 0.03636 0.0
C1446 C 0.52646 0.03286 0.032 0.0
C1447 C 0.50697 0.01246 0.02331 0.0
C1448 C 0.47401 0.0209 0.02126 0.0
C1449 C 0.46099 0.04902 0.0277 0.0
C1450 C 0.51753 0.92543 1.00947 0.0
C1451 C 0.54945 0.92609 1.00382 0.0
C1452 C 0.50359 0.95339 1.01567 0.0
C1453 C 0.52126 0.9827 1.01644 0.0
C1454 C 0.55312 0.98329 1.01077 0.0
C1455 C 0.567 0.95545 1.0046 0.0
H1456 H 0.37098 0.71839 0.28728 0.0
H1457 H 0.27762 0.69299 0.30589 0.0
H1458 H 0.34415 0.75614 0.27073 0.0
H1459 H 0.25085 0.73059 0.28925 0.0
H1460 H 0.21143 0.77445 0.2466 0.0
H1461 H 0.23823 0.73733 0.26345 0.0
H1462 H 0.31481 0.80767 0.27029 0.0
H1463 H 0.28793 0.84497 0.25353 0.0
C1464 C 0.3448 0.72096 0.28799 0.0
C1465 C 0.32663 0.70237 0.29803 0.0
C1466 C 0.32936 0.74271 0.27844 0.0
C1467 C 0.29526 0.74647 0.27859 0.0
C1468 C 0.27708 0.728 0.28864 0.0
C1469 C 0.29252 0.70634 0.29822 0.0
C1470 C 0.23377 0.78228 0.25178 0.0
C1471 C 0.24732 0.81297 0.24862 0.0
C1472 C 0.24921 0.76087 0.26148 0.0
C1473 C 0.27874 0.76941 0.26828 0.0
C1474 C 0.29236 0.80002 0.26511 0.0
C1475 C 0.27687 0.82149 0.25545 0.0
H1476 H 0.53089 0.89887 0.51988 0.0
H1477 H 0.4608 0.96297 0.49959 0.0
H1478 H 0.55656 0.94545 0.53161 0.0
H1479 H 0.48732 0.00942 0.51073 0.0
H1480 H 0.51791 0.08187 0.54542 0.0
H1481 H 0.49358 0.03465 0.53389 0.0
H1482 H 0.58928 0.99331 0.5274 0.0
H1483 H 0.61373 0.04081 0.53914 0.0
C1484 C 0.52088 0.92279 0.51787 0.0
C1485 C 0.49351 0.92683 0.50875 0.0
C1486 C 0.53593 0.94965 0.52449 0.0
C1487 C 0.52406 0.98136 0.5222 0.0
C1488 C 0.49694 0.98541 0.51296 0.0
C1489 C 0.48189 0.95862 0.50638 0.0
C1490 C 0.5339 0.06295 0.54143 0.0
C1491 C 0.56791 0.06545 0.54313 0.0
C1492 C 0.51987 0.03573 0.53477 0.0
C1493 C 0.53937 0.0101 0.52955 0.0
C1494 C 0.5734 0.01236 0.5314 0.0
C1495 C 0.58748 0.03965 0.53813 0.0
H1496 H 0.30554 0.28783 0.81975 0.0
H1497 H 0.2687 0.35039 0.78573 0.0
H1498 H 0.34149 0.26129 0.80222 0.0
H1499 H 0.30464 0.32357 0.76808 0.0
H1500 H 0.40137 0.29161 0.74566 0.0
H1501 H 0.36453 0.31836 0.76282 0.0
H1502 H 0.3374 0.22486 0.78045 0.0
H1503 H 0.37451 0.19812 0.76334 0.0
C1504 C 0.30527 0.29611 0.80854 0.0
C1505 C 0.28432 0.32143 0.80418 0.0
C1506 C 0.32565 0.28062 0.79845 0.0
C1507 C 0.32595 0.29022 0.78372 0.0
C1508 C 0.30518 0.3157 0.77936 0.0
C1509 C 0.28444 0.33094 0.78944 0.0
C1510 C 0.38769 0.27675 0.75324 0.0
C1511 C 0.39104 0.24268 0.75315 0.0
C1512 C 0.3663 0.29208 0.76298 0.0
C1513 C 0.348 0.2738 0.77304 0.0
C1514 C 0.35132 0.23971 0.77294 0.0
C1515 C 0.37239 0.22435 0.76305 0.0
H1516 H 0.04889 0.99266 0.9789 0.0
H1517 H 0.06233 0.08168 1.00319 0.0
H1518 H 0.0166 0.97056 0.99889 0.0
H1519 H 0.02975 0.05968 0.02303 0.0
H1520 H 0.94108 0.02141 0.04879 0.0
H1521 H 0.9732 0.04386 0.02877 0.0
H1522 H 0.02347 0.95221 0.02422 0.0
H1523 H 0.99186 0.9299 0.04426 0.0
C1524 C 0.04523 0.0075 0.98849 0.0
C1525 C 0.05832 0.03909 0.98931 0.0
C1526 C 0.02662 0.99481 0.99997 0.0
C1527 C 0.02048 0.01338 1.01256 0.0
C1528 C 0.03353 0.04491 1.0134 0.0
C1529 C 0.05226 0.05754 1.00197 0.0
C1530 C 0.95913 0.00609 0.04363 0.0
C1531 C 0.96358 0.9737 0.04819 0.0
C1532 C 0.97756 0.01898 0.03212 0.0
C1533 C 1.00083 0.9998 0.02483 0.0
C1534 C 1.00536 0.9675 0.02941 0.0
C1535 C 0.9871 0.95468 0.04094 0.0
H1536 H 0.8347 0.75006 0.77201 0.0
H1537 H 0.77146 0.80552 0.74365 0.0
H1538 H 0.78725 0.72662 0.78389 0.0
H1539 H 0.72431 0.78083 0.75501 0.0
H1540 H 0.64456 0.75833 0.78766 0.0
H1541 H 0.69296 0.78147 0.77644 0.0
H1542 H 0.743 0.68975 0.78166 0.0
H1543 H 0.69444 0.66682 0.79321 0.0
C1544 C 0.81085 0.75735 0.76822 0.0
C1545 C 0.80745 0.78012 0.7568 0.0
C1546 C 0.78342 0.74348 0.77498 0.0
C1547 C 0.75162 0.75177 0.77054 0.0
C1548 C 0.74823 0.77414 0.75899 0.0
C1549 C 0.77559 0.78812 0.75228 0.0
C1550 C 0.66579 0.74298 0.78637 0.0
C1551 C 0.66537 0.71057 0.7913 0.0
C1552 C 0.69368 0.75627 0.77985 0.0
C1553 C 0.72212 0.73754 0.77793 0.0
C1554 C 0.72185 0.70518 0.78306 0.0
C1555 C 0.69392 0.69193 0.78969 0.0
H1556 H 0.66016 0.22534 0.23534 0.0
H1557 H 0.73633 0.15537 0.24398 0.0
H1558 H 0.68483 0.26263 0.25276 0.0
H1559 H 0.76101 0.19277 0.2613 0.0
H1560 H 0.81453 0.28143 0.2802 0.0
H1561 H 0.78999 0.24419 0.26274 0.0
H1562 H 0.69433 0.26945 0.27875 0.0
H1563 H 0.71878 0.30655 0.29628 0.0
C1564 C 0.68199 0.21769 0.24099 0.0
C1565 C 0.69606 0.18708 0.23814 0.0
C1566 C 0.6962 0.23918 0.25102 0.0
C1567 C 0.72499 0.23082 0.2585 0.0
C1568 C 0.73915 0.20032 0.25562 0.0
C1569 C 0.7249 0.17878 0.24563 0.0
C1570 C 0.78829 0.27893 0.28015 0.0
C1571 C 0.7688 0.29727 0.28977 0.0
C1572 C 0.77416 0.25747 0.27008 0.0
C1573 C 0.7401 0.25373 0.26927 0.0
C1574 C 0.7206 0.27202 0.27886 0.0
C1575 C 0.73472 0.2934 0.28897 0.0
H1576 H 0.71871 0.18926 0.79588 0.0
H1577 H 0.81169 0.22888 0.78297 0.0
H1578 H 0.69214 0.21966 0.77634 0.0
H1579 H 0.78527 0.25999 0.76371 0.0
H1580 H 0.73228 0.29095 0.72231 0.0
H1581 H 0.75887 0.25818 0.74088 0.0
H1582 H 0.67663 0.2726 0.76958 0.0
H1583 H 0.64932 0.30362 0.75086 0.0
C1584 C 0.73344 0.20459 0.78889 0.0
C1585 C 0.76732 0.20651 0.79098 0.0
C1586 C 0.71822 0.22221 0.77771 0.0
C1587 C 0.73642 0.24259 0.76839 0.0
C1588 C 0.7704 0.24423 0.77044 0.0
C1589 C 0.78563 0.22635 0.78153 0.0
C1590 C 0.71961 0.28699 0.73249 0.0
C1591 C 0.68833 0.30016 0.73485 0.0
C1592 C 0.73512 0.26835 0.74327 0.0
C1593 C 0.71998 0.26246 0.75681 0.0
C1594 C 0.68895 0.27597 0.75924 0.0
C1595 C 0.67336 0.29437 0.74845 0.0
H1596 H 0.72674 0.84048 0.29249 0.0
H1597 H 0.64756 0.77264 0.29886 0.0
H1598 H 0.75293 0.80237 0.27598 0.0
H1599 H 0.67378 0.73462 0.28218 0.0
H1600 H 0.71434 0.6906 0.23942 0.0
H1601 H 0.68757 0.72765 0.25635 0.0
H1602 H 0.78053 0.74993 0.27598 0.0
H1603 H 0.80731 0.71277 0.25921 0.0
C1604 C 0.71494 0.81739 0.29052 0.0
C1605 C 0.68487 0.80987 0.29715 0.0
C1606 C 0.73005 0.79544 0.28099 0.0
C1607 C 0.71557 0.7653 0.27772 0.0
C1608 C 0.68548 0.75776 0.28428 0.0
C1609 C 0.67039 0.77967 0.29388 0.0
C1610 C 0.72914 0.70307 0.24741 0.0
C1611 C 0.76319 0.69855 0.24779 0.0
C1612 C 0.71371 0.7244 0.25716 0.0
C1613 C 0.73184 0.74197 0.26753 0.0
C1614 C 0.7658 0.73729 0.26799 0.0
C1615 C 0.78122 0.71588 0.25831 0.0
H1616 H 0.48442 0.41015 0.02763 0.0
H1617 H 0.57533 0.4629 0.02954 0.0
H1618 H 0.45875 0.45648 1.01561 0.0
H1619 H 0.54975 0.50906 1.01755 0.0
H1620 H 0.48586 0.59831 1.0105 0.0
H1621 H 0.51052 0.55128 0.02217 0.0
H1622 H 0.45757 0.48771 0.99314 0.0
H1623 H 0.4328 0.53493 0.98142 0.0
C1624 C 0.49908 0.43144 0.02539 0.0
C1625 C 0.53201 0.43265 0.02969 0.0
C1626 C 0.48431 0.45809 1.01847 0.0
C1627 C 0.50205 0.48673 1.01565 0.0
C1628 C 0.53507 0.48775 0.01979 0.0
C1629 C 0.54981 0.46115 0.02669 0.0
C1630 C 0.4796 0.57439 1.00648 0.0
C1631 C 0.45735 0.57065 0.99491 0.0
C1632 C 0.49382 0.5473 1.0132 0.0
C1633 C 0.48627 0.51555 1.00858 0.0
C1634 C 0.46374 0.51172 0.99712 0.0
C1635 C 0.44948 0.53888 0.99038 0.0
H1636 H 0.04903 0.45008 0.50839 0.0
H1637 H 1.00594 0.52087 0.47935 0.0
H1638 H 0.01976 0.4742 0.52884 0.0
H1639 H 0.97711 0.54503 0.4998 0.0
H1640 H 0.95796 0.60096 0.542 0.0
H1641 H 0.98743 0.57627 0.52191 0.0
H1642 H 0.96406 0.48086 0.53852 0.0
H1643 H 0.93408 0.50559 0.55868 0.0
C1644 C 0.03327 0.47064 0.50629 0.0
C1645 C 0.03004 0.48337 0.49208 0.0
C1646 C 0.01642 0.48448 0.51806 0.0
C1647 C 0.99602 0.51159 0.516 0.0
C1648 C 0.99295 0.52447 0.50185 0.0
C1649 C 0.00964 0.51056 0.49008 0.0
C1650 C 0.9586 0.57472 0.54136 0.0
C1651 C 0.94321 0.5554 0.55203 0.0
C1652 C 0.97568 0.56052 0.52979 0.0
C1653 C 0.97808 0.52654 0.52852 0.0
C1654 C 0.96303 0.50713 0.53923 0.0
C1655 C 0.94578 0.52135 0.55081 0.0
H1656 H 0.02325 0.58576 0.04441 0.0
H1657 H 0.07972 0.49725 0.04726 0.0
H1658 H 0.99186 0.56276 0.02449 0.0
H1659 H 0.04777 0.47407 0.02736 0.0
H1660 H 0.95914 0.43263 1.00252 0.0
H1661 H 0.99177 0.45532 0.02216 0.0
H1662 H 0.99838 0.54631 0.99885 0.0
H1663 H 0.96604 0.52355 0.97904 0.0
C1664 C 0.02931 0.56152 0.04074 0.0
C1665 C 0.05437 0.54354 0.04748 0.0
C1666 C 0.01116 0.5483 0.02928 0.0
C1667 C 0.01734 0.51662 0.02427 0.0
C1668 C 0.04215 0.49845 0.03105 0.0
C1669 C 0.06047 0.51175 0.04249 0.0
C1670 C 0.96778 0.45735 1.00142 0.0
C1671 C 0.95987 0.47612 0.98906 0.0
C1672 C 0.98655 0.47037 1.01275 0.0
C1673 C 0.99777 0.50262 1.01209 0.0
C1674 C 0.98979 0.52149 0.99979 0.0
C1675 C 0.97116 0.50841 0.98842 0.0
H1676 H 0.47569 0.59552 0.50633 0.0
H1677 H 0.56577 0.54273 0.5008 0.0
H1678 H 0.4502 0.54711 0.51649 0.0
H1679 H 0.54046 0.4943 0.51118 0.0
H1680 H 0.47586 0.40439 0.51725 0.0
H1681 H 0.50149 0.45243 0.50682 0.0
H1682 H 0.44916 0.51306 0.53732 0.0
H1683 H 0.42234 0.46541 0.54723 0.0
C1684 C 0.49021 0.57369 0.50742 0.0
C1685 C 0.52287 0.5732 0.50274 0.0
C1686 C 0.47557 0.54581 0.51329 0.0
C1687 C 0.49318 0.51658 0.51475 0.0
C1688 C 0.52587 0.51609 0.51005 0.0
C1689 C 0.54047 0.54397 0.5041 0.0
C1690 C 0.46952 0.42792 0.52168 0.0
C1691 C 0.44676 0.43063 0.53313 0.0
C1692 C 0.4846 0.45559 0.51578 0.0
C1693 C 0.47748 0.48687 0.52116 0.0
C1694 C 0.45499 0.48955 0.53269 0.0
C1695 C 0.43984 0.46194 0.53855 0.0
H1696 H 0.11302 0.10823 0.2823 0.0
H1697 H 0.15061 0.03485 0.31144 0.0
H1698 H 0.10661 0.06688 0.26321 0.0
H1699 H 0.14461 0.99394 0.29251 0.0
H1700 H 0.1151 0.92016 0.2582 0.0
H1701 H 0.10899 0.96132 0.27739 0.0
H1702 H 0.14189 0.03543 0.24745 0.0
H1703 H 0.14758 0.9947 0.22842 0.0
C1704 C 0.11944 0.08327 0.28473 0.0
C1705 C 0.13247 0.07508 0.29845 0.0
C1706 C 0.11603 0.05951 0.27374 0.0
C1707 C 0.12524 0.02682 0.27619 0.0
C1708 C 0.13689 0.01856 0.29014 0.0
C1709 C 0.14055 0.04225 0.30104 0.0
C1710 C 0.12045 0.94532 0.25565 0.0
C1711 C 0.13197 0.95391 0.24171 0.0
C1712 C 0.11722 0.96898 0.26671 0.0
C1713 C 0.12511 1.00195 0.26409 0.0
C1714 C 0.13522 0.01057 0.24995 0.0
C1715 C 0.1387 0.98699 0.23899 0.0
H1716 H 0.19145 0.80587 0.54726 0.0
H1717 H 0.21577 0.90794 0.54834 0.0
H1718 H 0.23322 0.79747 0.52831 0.0
H1719 H 0.25703 0.89968 0.52986 0.0
H1720 H 0.31628 0.88353 0.48937 0.0
H1721 H 0.26775 0.88794 0.50474 0.0
H1722 H 0.29271 0.79747 0.52586 0.0
H1723 H 0.34078 0.79282 0.51038 0.0
C1724 C 0.20535 0.82652 0.54338 0.0
C1725 C 0.2002 0.85753 0.54944 0.0
C1726 C 0.22949 0.82173 0.53258 0.0
C1727 C 0.24872 0.84792 0.52745 0.0
C1728 C 0.24265 0.87894 0.53326 0.0
C1729 C 0.21897 0.88361 0.54404 0.0
C1730 C 0.31123 0.86436 0.49715 0.0
C1731 C 0.33279 0.83796 0.49864 0.0
C1732 C 0.28341 0.86695 0.50607 0.0
C1733 C 0.2762 0.84319 0.51673 0.0
C1734 C 0.29708 0.81614 0.51776 0.0
C1735 C 0.32492 0.81362 0.5089 0.0
H1736 H 0.45553 0.02451 0.72694 0.0
H1737 H 0.3991 0.09564 0.75061 0.0
H1738 H 0.44578 0.98476 0.74622 0.0
H1739 H 0.39025 0.05639 0.7701 0.0
H1740 H 0.35382 0.97239 0.79707 0.0
H1741 H 0.36249 0.00916 0.77679 0.0
H1742 H 0.45896 0.96938 0.77051 0.0
H1743 H 0.44963 0.93142 0.79073 0.0
C1744 C 0.44096 0.03172 0.73625 0.0
C1745 C 0.42795 0.06338 0.73711 0.0
C1746 C 0.43562 0.00891 0.74742 0.0
C1747 C 0.41722 0.01706 0.75987 0.0
C1748 C 0.40406 0.04874 0.76065 0.0
C1749 C 0.40922 0.07145 0.74944 0.0
C1750 C 0.37694 0.97129 0.79138 0.0
C1751 C 0.4011 0.9489 0.79566 0.0
C1752 C 0.38203 0.99273 0.77973 0.0
C1753 C 0.41163 0.99286 0.77197 0.0
C1754 C 0.43569 0.97 0.77607 0.0
C1755 C 0.43045 0.94824 0.78774 0.0
H1756 H 0.28888 0.20034 0.04774 0.0
H1757 H 0.32666 0.10593 0.03617 0.0
H1758 H 0.24563 0.19437 0.0297 0.0
H1759 H 0.28456 0.10046 1.01765 0.0
H1760 H 0.19157 0.08343 0.99349 0.0
H1761 H 0.23068 0.09075 1.01296 0.0
H1762 H 0.23043 0.19443 1.00512 0.0
H1763 H 0.18944 0.18688 0.9859 0.0
C1764 C 0.28801 0.17825 0.04133 0.0
C1765 C 0.31127 0.15351 0.04356 0.0
C1766 C 0.26325 0.17494 0.03082 0.0
C1767 C 0.26108 0.14688 0.02204 0.0
C1768 C 0.28453 0.12218 0.02431 0.0
C1769 C 0.309 0.12533 0.03495 0.0
C1770 C 0.19965 0.10791 0.99595 0.0
C1771 C 0.1874 0.13455 0.98801 0.0
C1772 C 0.22254 0.11212 1.00711 0.0
C1773 C 0.23471 0.14315 1.01062 0.0
C1774 C 0.22175 0.17008 1.00292 0.0
C1775 C 0.1982 0.16585 0.99183 0.0
H1776 H 0.89637 0.09745 0.78224 0.0
H1777 H 0.83903 0.03671 0.81082 0.0
H1778 H 0.89678 0.0535 0.76393 0.0
H1779 H 0.83976 0.99349 0.79293 0.0
H1780 H 0.80871 0.93875 0.75327 0.0
H1781 H 0.81359 0.98461 0.76972 0.0
H1782 H 0.91475 0.99577 0.75783 0.0
H1783 H 0.90973 0.94946 0.74098 0.0
C1784 C 0.8843 0.07469 0.78473 0.0
C1785 C 0.86733 0.07092 0.79799 0.0
C1786 C 0.8845 0.04948 0.77423 0.0
C1787 C 0.86767 0.02003 0.77676 0.0
C1788 C 0.85219 0.01599 0.79033 0.0
C1789 C 0.85196 0.04091 0.80069 0.0
C1790 C 0.83205 0.95094 0.75401 0.0
C1791 C 0.85887 0.93998 0.7458 0.0
C1792 C 0.83491 0.9773 0.76358 0.0
C1793 C 0.86475 0.99376 0.76539 0.0
C1794 C 0.89139 0.98377 0.75676 0.0
C1795 C 0.88851 0.95713 0.74711 0.0
H1796 H 0.73192 0.17806 0.54652 0.0
H1797 H 0.73706 0.0733 0.54445 0.0
H1798 H 0.77369 0.18172 0.52729 0.0
H1799 H 0.77833 0.07699 0.52556 0.0
H1800 H 0.8158 0.09092 0.48003 0.0
H1801 H 0.77712 0.09336 0.4999 0.0
H1802 H 0.83374 0.16898 0.52041 0.0
H1803 H 0.87326 0.16662 0.50012 0.0
C1804 C 0.74209 0.15584 0.5421 0.0
C1805 C 0.73072 0.12536 0.54702 0.0
C1806 C 0.76615 0.15796 0.53111 0.0
C1807 C 0.77919 0.12966 0.52468 0.0
C1808 C 0.76851 0.09935 0.53 0.0
C1809 C 0.74479 0.09724 0.54094 0.0
C1810 C 0.82027 0.10827 0.48869 0.0
C1811 C 0.8481 0.12835 0.48843 0.0
C1812 C 0.79796 0.10953 0.5002 0.0
C1813 C 0.80242 0.13093 0.51197 0.0
C1814 C 0.8295 0.15213 0.51154 0.0
C1815 C 0.85219 0.15077 0.49992 0.0
H1816 H 0.59398 0.00981 0.22458 0.0
H1817 H 0.55964 0.09196 0.24948 0.0
H1818 H 0.58433 0.97415 0.24522 0.0
H1819 H 0.54934 0.05583 0.27033 0.0
H1820 H 0.58812 0.99109 0.30849 0.0
H1821 H 0.58285 0.02715 0.28768 0.0
H1822 H 0.54731 0.9472 0.26163 0.0
H1823 H 0.55319 0.91064 0.28266 0.0
C1824 C 0.58376 0.02025 0.23442 0.0
C1825 C 0.57788 0.05394 0.23536 0.0
C1826 C 0.57795 0.99959 0.24628 0.0
C1827 C 0.56619 0.01189 0.25958 0.0
C1828 C 0.5588 0.04543 0.26034 0.0
C1829 C 0.56442 0.06619 0.24835 0.0
C1830 C 0.57872 0.98114 0.2984 0.0
C1831 C 0.57137 0.94776 0.29727 0.0
C1832 C 0.57542 1.00204 0.28642 0.0
C1833 C 0.56482 0.9903 0.27283 0.0
C1834 C 0.55596 0.95715 0.27185 0.0
C1835 C 0.55906 0.93616 0.28394 0.0
H1836 H 0.69364 0.89197 1.00306 0.0
H1837 H 0.75413 0.81838 0.98327 0.0
H1838 H 0.73291 0.89782 0.02274 0.0
H1839 H 0.79433 0.82512 1.00267 0.0
H1840 H 0.84689 0.82398 0.04759 0.0
H1841 H 0.8083 0.81607 0.02739 0.0
H1842 H 0.78312 0.91802 0.02921 0.0
H1843 H 0.81998 0.92532 0.04945 0.0
C1844 C 0.71564 0.87742 1.00274 0.0
C1845 C 0.72061 0.85486 0.99144 0.0
C1846 C 0.73844 0.88082 1.01408 0.0
C1847 C 0.76732 0.86208 1.01445 0.0
C1848 C 0.7724 0.83973 1.00302 0.0
C1849 C 0.74938 0.8361 0.99175 0.0
C1850 C 0.83303 0.84459 0.04364 0.0
C1851 C 0.83639 0.87516 0.05036 0.0
C1852 C 0.81092 0.84017 0.03197 0.0
C1853 C 0.79187 0.8663 0.02661 0.0
C1854 C 0.79624 0.89694 0.03315 0.0
C1855 C 0.81781 0.9012 0.04481 0.0
H1856 H 0.63239 0.46925 0.73008 0.0
H1857 H 0.562 0.41001 0.75292 0.0
H1858 H 0.63492 0.50615 0.75054 0.0
H1859 H 0.56488 0.44747 0.77384 0.0
H1860 H 0.55789 0.54615 0.8009 0.0
H1861 H 0.5524 0.50416 0.78208 0.0
H1862 H 0.65637 0.50705 0.77492 0.0
H1863 H 0.66175 0.5491 0.79339 0.0
C1864 C 0.61739 0.46395 0.73951 0.0
C1865 C 0.59711 0.43633 0.73979 0.0
C1866 C 0.61907 0.48517 0.75137 0.0
C1867 C 0.60058 0.47966 0.76404 0.0
C1868 C 0.57951 0.45251 0.76428 0.0
C1869 C 0.57787 0.431 0.75229 0.0
C1870 C 0.57964 0.5375 0.79544 0.0
C1871 C 0.61026 0.55138 0.79861 0.0
C1872 C 0.57647 0.51332 0.78465 0.0
C1873 C 0.60384 0.50248 0.77675 0.0
C1874 C 0.63459 0.51526 0.78049 0.0
C1875 C 0.63773 0.53933 0.7912 0.0
H1876 H 0.84349 0.32879 0.99043 0.0
H1877 H 0.80813 0.42666 0.98411 0.0
H1878 H 0.80278 0.32089 1.00985 0.0
H1879 H 0.76902 0.41936 1.00345 0.0
H1880 H 0.67903 0.39081 0.0282 0.0
H1881 H 0.71971 0.39478 1.00901 0.0
H1882 H 0.78517 0.33446 0.03413 0.0
H1883 H 0.74369 0.32956 0.05318 0.0
C1884 C 0.82725 0.34862 0.99318 0.0
C1885 C 0.82907 0.37821 0.98548 0.0
C1886 C 0.80393 0.34421 1.00439 0.0
C1887 C 0.78194 0.36932 1.00823 0.0
C1888 C 0.78454 0.39899 1.00068 0.0
C1889 C 0.80742 0.40326 0.98953 0.0
C1890 C 0.7021 0.37845 0.02971 0.0
C1891 C 0.70795 0.36008 0.04239 0.0
C1892 C 0.72571 0.38083 1.01866 0.0
C1893 C 0.75626 0.36522 0.01992 0.0
C1894 C 0.76202 0.34662 0.03258 0.0
C1895 C 0.73823 0.34404 0.04362 0.0
H1896 H 0.86192 0.4813 0.31122 0.0
H1897 H 0.89882 0.40727 0.28227 0.0
H1898 H 0.86848 0.522 0.29222 0.0
H1899 H 0.90583 0.44843 0.26311 0.0
H1900 H 0.86428 0.52031 0.22823 0.0
H1901 H 0.87061 0.47981 0.24732 0.0
H1902 H 0.90395 0.55435 0.27691 0.0
H1903 H 0.89717 0.59531 0.25763 0.0
C1904 C 0.87199 0.47372 0.30084 0.0
C1905 C 0.87965 0.44076 0.29833 0.0
C1906 C 0.87599 0.49729 0.28991 0.0
C1907 C 0.88757 0.48879 0.27598 0.0
C1908 C 0.89647 0.45599 0.27361 0.0
C1909 C 0.89273 0.43233 0.28465 0.0
C1910 C 0.87343 0.52816 0.23874 0.0
C1911 C 0.88003 0.56131 0.24134 0.0
C1912 C 0.87729 0.50471 0.24972 0.0
C1913 C 0.88766 0.51352 0.2638 0.0
C1914 C 0.89553 0.54654 0.26628 0.0
C1915 C 0.89194 0.57009 0.25518 0.0
H1916 H 0.68914 0.68838 0.49441 0.0
H1917 H 0.69223 0.58471 0.50178 0.0
H1918 H 0.73305 0.69573 0.51245 0.0
H1919 H 0.73555 0.59204 0.51948 0.0
H1920 H 0.7746 0.6169 0.56371 0.0
H1921 H 0.73499 0.61602 0.54424 0.0
H1922 H 0.7944 0.68186 0.51904 0.0
H1923 H 0.83508 0.68282 0.53894 0.0
C1924 C 0.69934 0.66715 0.49971 0.0
C1925 C 0.6867 0.63595 0.49669 0.0
C1926 C 0.72461 0.67138 0.51001 0.0
C1927 C 0.73762 0.64453 0.51761 0.0
C1928 C 0.72581 0.61338 0.51409 0.0
C1929 C 0.70088 0.60917 0.50384 0.0
C1930 C 0.77956 0.63139 0.55409 0.0
C1931 C 0.80853 0.64962 0.55293 0.0
C1932 C 0.75666 0.63074 0.54283 0.0
C1933 C 0.76162 0.64832 0.52989 0.0
C1934 C 0.78983 0.66791 0.52884 0.0
C1935 C 0.81314 0.66847 0.54024 0.0
H1936 H 0.46008 0.60276 0.28289 0.0
H1937 H 0.42442 0.52222 0.30852 0.0
H1938 H 0.46705 0.56614 0.26196 0.0
H1939 H 0.43076 0.48612 0.28781 0.0
H1940 H 0.45641 0.42126 0.25009 0.0
H1941 H 0.46547 0.4577 0.2709 0.0
H1942 H 0.43081 0.53879 0.24528 0.0
H1943 H 0.42241 0.50282 0.22465 0.0
C1944 C 0.45427 0.57722 0.28415 0.0
C1945 C 0.44143 0.56558 0.29737 0.0
C1946 C 0.458 0.55621 0.27212 0.0
C1947 C 0.44927 0.52302 0.27308 0.0
C1948 C 0.43812 0.51127 0.28659 0.0
C1949 C 0.4342 0.53218 0.29849 0.0
C1950 C 0.45138 0.44697 0.24885 0.0
C1951 C 0.4384 0.45896 0.23571 0.0
C1952 C 0.45633 0.46789 0.26081 0.0
C1953 C 0.44866 0.50135 0.25989 0.0
C1954 C 0.43735 0.51341 0.24646 0.0
C1955 C 0.43225 0.49258 0.23461 0.0
H1956 H 0.30808 0.61674 0.99938 0.0
H1957 H 0.25605 0.69898 0.98168 0.0
H1958 H 0.27086 0.61537 0.02004 0.0
H1959 H 0.21933 0.69839 1.00266 0.0
H1960 H 0.14073 0.66868 0.03711 0.0
H1961 H 0.17599 0.67239 1.01551 0.0
H1962 H 0.25839 0.64256 0.04163 0.0
H1963 H 0.22322 0.63791 0.06279 0.0
C1964 C 0.28873 0.63463 0.99989 0.0
C1965 C 0.28531 0.658 0.98878 0.0
C1966 C 0.2674 0.63408 1.01188 0.0
C1967 C 0.24202 0.65708 1.0133 0.0
C1968 C 0.23824 0.68008 1.00202 0.0
C1969 C 0.2595 0.6805 0.98996 0.0
C1970 C 0.16648 0.66344 0.03824 0.0
C1971 C 0.17901 0.65287 0.05172 0.0
C1972 C 0.18681 0.66546 0.02582 0.0
C1973 C 0.22023 0.65715 0.0266 0.0
C1974 C 0.23278 0.64817 0.04032 0.0
C1975 C 0.21255 0.64587 0.05258 0.0
H1976 H 0.20905 0.47993 0.80794 0.0
H1977 H 0.13074 0.42555 0.78809 0.0
H1978 H 0.20277 0.52239 0.78994 0.0
H1979 H 0.12468 0.46867 0.7696 0.0
H1980 H 0.10634 0.57266 0.74821 0.0
H1981 H 0.1087 0.52654 0.76523 0.0
H1982 H 0.21378 0.53158 0.76476 0.0
H1983 H 0.21143 0.57752 0.74816 0.0
C1984 C 0.19044 0.47684 0.79968 0.0
C1985 C 0.17057 0.44889 0.79952 0.0
C1986 C 0.18698 0.50135 0.7892 0.0
C1987 C 0.16356 0.49903 0.77805 0.0
C1988 C 0.14301 0.47144 0.778 0.0
C1989 C 0.14654 0.44661 0.78858 0.0
C1990 C 0.12994 0.56374 0.75167 0.0
C1991 C 0.15868 0.57923 0.74685 0.0
C1992 C 0.1313 0.53715 0.76141 0.0
C1993 C 0.16143 0.5254 0.76663 0.0
C1994 C 0.19005 0.54024 0.76134 0.0
C1995 C 0.18871 0.56665 0.75168 0.0
H1996 H 0.13619 0.35268 0.5011 0.0
H1997 H 0.19873 0.41792 0.47706 0.0
H1998 H 0.17717 0.35023 0.52075 0.0
H1999 H 0.23912 0.41512 0.49622 0.0
H2000 H 0.28937 0.4377 0.53791 0.0
H2001 H 0.2451 0.4359 0.52037 0.0
H2002 H 0.23352 0.33299 0.52808 0.0
H2003 H 0.27791 0.33496 0.54606 0.0
C2004 C 0.15873 0.36611 0.4999 0.0
C2005 C 0.16385 0.38579 0.48751 0.0
C2006 C 0.18225 0.36475 0.51117 0.0
C2007 C 0.21133 0.38308 0.5103 0.0
C2008 C 0.21676 0.40146 0.49759 0.0
C2009 C 0.1935 0.40286 0.48648 0.0
C2010 C 0.27729 0.41466 0.53603 0.0
C2011 C 0.28759 0.38645 0.54339 0.0
C2012 C 0.2519 0.41356 0.52583 0.0
C2013 C 0.23596 0.38414 0.52248 0.0
C2014 C 0.24514 0.35609 0.53033 0.0
C2015 C 0.27065 0.35723 0.54065 0.0
loop_
_geom_bond_atom_site_label_1
_geom_bond_atom_site_label_2
_geom_bond_distance
_geom_bond_site_symmetry_2
_ccdc_geom_bond_type
Cu0 N1 1.999 . S
Cu0 O6 1.974 . S
Cu0 N11 1.985 . S
Cu0 O20 1.959 . S
N1 Cu0 1.999 . S
N1 C3 1.263 . S
N1 C5 1.389 . S
N2 C3 1.358 . S
N2 C4 1.400 . S
C3 N1 1.263 . S
C3 N2 1.358 . S
C3 H9 0.930 . S
C4 N2 1.400 . S
C4 C5 1.351 . S
C4 H21 0.930 . S
C5 N1 1.389 . S
C5 C4 1.351 . S
C5 H10 0.930 . S
O6 Cu0 1.974 . S
O6 C16 1.282 . S
C7 O8 1.261 . S
C7 O20 1.251 . S
O8 C7 1.261 . S
H9 C3 0.930 . S
H10 C5 0.930 . S
N11 Cu0 1.985 . S
N11 C13 1.335 . S
N11 C14 1.390 . S
N12 C13 1.345 . S
N12 C15 1.336 . S
C13 N11 1.335 . S
C13 N12 1.345 . S
C13 H18 0.930 . S
C14 N11 1.390 . S
C14 C15 1.346 . S
C14 H19 0.930 . S
C15 N12 1.336 . S
C15 C14 1.346 . S
C15 H22 0.929 . S
C16 O6 1.282 . S
C16 O17 1.216 . S
O17 C16 1.216 . S
H18 C13 0.930 . S
H19 C14 0.930 . S
O20 Cu0 1.959 . S
O20 C7 1.251 . S
H21 C4 0.930 . S
H22 C15 0.929 . S
Cu23 N24 1.999 . S
Cu23 O29 1.974 . S
Cu23 N34 1.985 . S
Cu23 O43 1.959 . S
N24 Cu23 1.999 . S
N24 C26 1.263 . S
N24 C28 1.389 . S
N25 C26 1.358 . S
N25 C27 1.400 . S
C26 N24 1.263 . S
C26 N25 1.358 . S
C26 H32 0.930 . S
C27 N25 1.400 . S
C27 C28 1.351 . S
C27 H44 0.930 . S
C28 N24 1.389 . S
C28 C27 1.351 . S
C28 H33 0.930 . S
O29 Cu23 1.974 . S
O29 C39 1.282 . S
C30 O31 1.261 . S
C30 O43 1.251 . S
O31 C30 1.261 . S
H32 C26 0.930 . S
H33 C28 0.930 . S
N34 Cu23 1.985 . S
N34 C36 1.335 . S
N34 C37 1.390 . S
N35 C36 1.345 . S
N35 C38 1.336 . S
C36 N34 1.335 . S
C36 N35 1.345 . S
C36 H41 0.930 . S
C37 N34 1.390 . S
C37 C38 1.346 . S
C37 H42 0.930 . S
C38 N35 1.336 . S
C38 C37 1.346 . S
C38 H45 0.929 . S
C39 O29 1.282 . S
C39 O40 1.216 . S
O40 C39 1.216 . S
H41 C36 0.930 . S
H42 C37 0.930 . S
O43 Cu23 1.959 . S
O43 C30 1.251 . S
H44 C27 0.930 . S
H45 C38 0.929 . S
Cu46 N47 1.999 . S
Cu46 O52 1.974 . S
Cu46 N57 1.985 . S
Cu46 O66 1.959 . S
N47 Cu46 1.999 . S
N47 C49 1.263 . S
N47 C51 1.389 . S
N48 C49 1.358 . S
N48 C50 1.400 . S
C49 N47 1.263 . S
C49 N48 1.358 . S
C49 H55 0.930 . S
C50 N48 1.400 . S
C50 C51 1.351 . S
C50 H67 0.930 . S
C51 N47 1.389 . S
C51 C50 1.351 . S
C51 H56 0.930 . S
O52 Cu46 1.974 . S
O52 C62 1.282 . S
C53 O54 1.261 . S
C53 O66 1.251 . S
O54 C53 1.261 . S
H55 C49 0.930 . S
H56 C51 0.930 . S
N57 Cu46 1.985 . S
N57 C59 1.335 . S
N57 C60 1.390 . S
N58 C59 1.345 . S
N58 C61 1.336 . S
C59 N57 1.335 . S
C59 N58 1.345 . S
C59 H64 0.930 . S
C60 N57 1.390 . S
C60 C61 1.346 . S
C60 H65 0.930 . S
C61 N58 1.336 . S
C61 C60 1.346 . S
C61 H68 0.929 . S
C62 O52 1.282 . S
C62 O63 1.216 . S
O63 C62 1.216 . S
H64 C59 0.930 . S
H65 C60 0.930 . S
O66 Cu46 1.959 . S
O66 C53 1.251 . S
H67 C50 0.930 . S
H68 C61 0.929 . S
Cu69 N70 1.999 . S
Cu69 O75 1.974 . S
Cu69 N80 1.985 . S
Cu69 O89 1.959 . S
N70 Cu69 1.999 . S
N70 C72 1.263 . S
N70 C74 1.389 . S
N71 C72 1.358 . S
N71 C73 1.400 . S
C72 N70 1.263 . S
C72 N71 1.358 . S
C72 H78 0.930 . S
C73 N71 1.400 . S
C73 C74 1.351 . S
C73 H90 0.930 . S
C74 N70 1.389 . S
C74 C73 1.351 . S
C74 H79 0.930 . S
O75 Cu69 1.974 . S
O75 C85 1.282 . S
C76 O77 1.261 . S
C76 O89 1.251 . S
O77 C76 1.261 . S
H78 C72 0.930 . S
H79 C74 0.930 . S
N80 Cu69 1.985 . S
N80 C82 1.335 . S
N80 C83 1.390 . S
N81 C82 1.345 . S
N81 C84 1.336 . S
C82 N80 1.335 . S
C82 N81 1.345 . S
C82 H87 0.930 . S
C83 N80 1.390 . S
C83 C84 1.346 . S
C83 H88 0.930 . S
C84 N81 1.336 . S
C84 C83 1.346 . S
C84 H91 0.929 . S
C85 O75 1.282 . S
C85 O86 1.216 . S
O86 C85 1.216 . S
H87 C82 0.930 . S
H88 C83 0.930 . S
O89 Cu69 1.959 . S
O89 C76 1.251 . S
H90 C73 0.930 . S
H91 C84 0.929 . S
Cu92 N93 1.999 . S
Cu92 O98 1.974 . S
Cu92 N103 1.985 . S
Cu92 O112 1.959 . S
N93 Cu92 1.999 . S
N93 C95 1.263 . S
N93 C97 1.389 . S
N94 C95 1.358 . S
N94 C96 1.400 . S
C95 N93 1.263 . S
C95 N94 1.358 . S
C95 H101 0.930 . S
C96 N94 1.400 . S
C96 C97 1.351 . S
C96 H113 0.930 . S
C97 N93 1.389 . S
C97 C96 1.351 . S
C97 H102 0.930 . S
O98 Cu92 1.974 . S
O98 C108 1.282 . S
C99 O100 1.261 . S
C99 O112 1.251 . S
O100 C99 1.261 . S
H101 C95 0.930 . S
H102 C97 0.930 . S
N103 Cu92 1.985 . S
N103 C105 1.335 . S
N103 C106 1.390 . S
N104 C105 1.345 . S
N104 C107 1.336 . S
C105 N103 1.335 . S
C105 N104 1.345 . S
C105 H110 0.930 . S
C106 N103 1.390 . S
C106 C107 1.346 . S
C106 H111 0.930 . S
C107 N104 1.336 . S
C107 C106 1.346 . S
C107 H114 0.929 . S
C108 O98 1.282 . S
C108 O109 1.216 . S
O109 C108 1.216 . S
H110 C105 0.930 . S
H111 C106 0.930 . S
O112 Cu92 1.959 . S
O112 C99 1.251 . S
H113 C96 0.930 . S
H114 C107 0.929 . S
Cu115 N116 1.999 . S
Cu115 O121 1.974 . S
Cu115 N126 1.985 . S
Cu115 O135 1.959 . S
N116 Cu115 1.999 . S
N116 C118 1.263 . S
N116 C120 1.389 . S
N117 C118 1.358 . S
N117 C119 1.400 . S
C118 N116 1.263 . S
C118 N117 1.358 . S
C118 H124 0.930 . S
C119 N117 1.400 . S
C119 C120 1.351 . S
C119 H136 0.930 . S
C120 N116 1.389 . S
C120 C119 1.351 . S
C120 H125 0.930 . S
O121 Cu115 1.974 . S
O121 C131 1.282 . S
C122 O123 1.261 . S
C122 O135 1.251 . S
O123 C122 1.261 . S
H124 C118 0.930 . S
H125 C120 0.930 . S
N126 Cu115 1.985 . S
N126 C128 1.335 . S
N126 C129 1.390 . S
N127 C128 1.345 . S
N127 C130 1.336 . S
C128 N126 1.335 . S
C128 N127 1.345 . S
C128 H133 0.930 . S
C129 N126 1.390 . S
C129 C130 1.346 . S
C129 H134 0.930 . S
C130 N127 1.336 . S
C130 C129 1.346 . S
C130 H137 0.929 . S
C131 O121 1.282 . S
C131 O132 1.216 . S
O132 C131 1.216 . S
H133 C128 0.930 . S
H134 C129 0.930 . S
O135 Cu115 1.959 . S
O135 C122 1.251 . S
H136 C119 0.930 . S
H137 C130 0.929 . S
Cu138 N139 1.999 . S
Cu138 O144 1.974 . S
Cu138 N149 1.985 . S
Cu138 O158 1.959 . S
N139 Cu138 1.999 . S
N139 C141 1.263 . S
N139 C143 1.389 . S
N140 C141 1.358 . S
N140 C142 1.400 . S
C141 N139 1.263 . S
C141 N140 1.358 . S
C141 H147 0.930 . S
C142 N140 1.400 . S
C142 C143 1.351 . S
C142 H159 0.930 . S
C143 N139 1.389 . S
C143 C142 1.351 . S
C143 H148 0.930 . S
O144 Cu138 1.974 . S
O144 C154 1.282 . S
C145 O146 1.261 . S
C145 O158 1.251 . S
O146 C145 1.261 . S
H147 C141 0.930 . S
H148 C143 0.930 . S
N149 Cu138 1.985 . S
N149 C151 1.335 . S
N149 C152 1.390 . S
N150 C151 1.345 . S
N150 C153 1.336 . S
C151 N149 1.335 . S
C151 N150 1.345 . S
C151 H156 0.930 . S
C152 N149 1.390 . S
C152 C153 1.346 . S
C152 H157 0.930 . S
C153 N150 1.336 . S
C153 C152 1.346 . S
C153 H160 0.929 . S
C154 O144 1.282 . S
C154 O155 1.216 . S
O155 C154 1.216 . S
H156 C151 0.930 . S
H157 C152 0.930 . S
O158 Cu138 1.959 . S
O158 C145 1.251 . S
H159 C142 0.930 . S
H160 C153 0.929 . S
Cu161 N162 1.999 . S
Cu161 O167 1.974 . S
Cu161 N172 1.985 . S
Cu161 O181 1.959 . S
N162 Cu161 1.999 . S
N162 C164 1.263 . S
N162 C166 1.389 . S
N163 C164 1.358 . S
N163 C165 1.400 . S
C164 N162 1.263 . S
C164 N163 1.358 . S
C164 H170 0.930 . S
C165 N163 1.400 . S
C165 C166 1.351 . S
C165 H182 0.930 . S
C166 N162 1.389 . S
C166 C165 1.351 . S
C166 H171 0.930 . S
O167 Cu161 1.974 . S
O167 C177 1.282 . S
C168 O169 1.261 . S
C168 O181 1.251 . S
O169 C168 1.261 . S
H170 C164 0.930 . S
H171 C166 0.930 . S
N172 Cu161 1.985 . S
N172 C174 1.335 . S
N172 C175 1.390 . S
N173 C174 1.345 . S
N173 C176 1.336 . S
C174 N172 1.335 . S
C174 N173 1.345 . S
C174 H179 0.930 . S
C175 N172 1.390 . S
C175 C176 1.346 . S
C175 H180 0.930 . S
C176 N173 1.336 . S
C176 C175 1.346 . S
C176 H183 0.929 . S
C177 O167 1.282 . S
C177 O178 1.216 . S
O178 C177 1.216 . S
H179 C174 0.930 . S
H180 C175 0.930 . S
O181 Cu161 1.959 . S
O181 C168 1.251 . S
H182 C165 0.930 . S
H183 C176 0.929 . S
Cu184 N185 1.999 . S
Cu184 O190 1.974 . S
Cu184 N195 1.985 . S
Cu184 O204 1.959 . S
N185 Cu184 1.999 . S
N185 C187 1.263 . S
N185 C189 1.389 . S
N186 C187 1.358 . S
N186 C188 1.400 . S
C187 N185 1.263 . S
C187 N186 1.358 . S
C187 H193 0.930 . S
C188 N186 1.400 . S
C188 C189 1.351 . S
C188 H205 0.930 . S
C189 N185 1.389 . S
C189 C188 1.351 . S
C189 H194 0.930 . S
O190 Cu184 1.974 . S
O190 C200 1.282 . S
C191 O192 1.261 . S
C191 O204 1.251 . S
O192 C191 1.261 . S
H193 C187 0.930 . S
H194 C189 0.930 . S
N195 Cu184 1.985 . S
N195 C197 1.335 . S
N195 C198 1.390 . S
N196 C197 1.345 . S
N196 C199 1.336 . S
C197 N195 1.335 . S
C197 N196 1.345 . S
C197 H202 0.930 . S
C198 N195 1.390 . S
C198 C199 1.346 . S
C198 H203 0.930 . S
C199 N196 1.336 . S
C199 C198 1.346 . S
C199 H206 0.929 . S
C200 O190 1.282 . S
C200 O201 1.216 . S
O201 C200 1.216 . S
H202 C197 0.930 . S
H203 C198 0.930 . S
O204 Cu184 1.959 . S
O204 C191 1.251 . S
H205 C188 0.930 . S
H206 C199 0.929 . S
Cu207 N208 1.999 . S
Cu207 O213 1.974 . S
Cu207 N218 1.985 . S
Cu207 O227 1.959 . S
N208 Cu207 1.999 . S
N208 C210 1.263 . S
N208 C212 1.389 . S
N209 C210 1.358 . S
N209 C211 1.400 . S
C210 N208 1.263 . S
C210 N209 1.358 . S
C210 H216 0.930 . S
C211 N209 1.400 . S
C211 C212 1.351 . S
C211 H228 0.930 . S
C212 N208 1.389 . S
C212 C211 1.351 . S
C212 H217 0.930 . S
O213 Cu207 1.974 . S
O213 C223 1.282 . S
C214 O215 1.261 . S
C214 O227 1.251 . S
O215 C214 1.261 . S
H216 C210 0.930 . S
H217 C212 0.930 . S
N218 Cu207 1.985 . S
N218 C220 1.335 . S
N218 C221 1.390 . S
N219 C220 1.345 . S
N219 C222 1.336 . S
C220 N218 1.335 . S
C220 N219 1.345 . S
C220 H225 0.930 . S
C221 N218 1.390 . S
C221 C222 1.346 . S
C221 H226 0.930 . S
C222 N219 1.336 . S
C222 C221 1.346 . S
C222 H229 0.929 . S
C223 O213 1.282 . S
C223 O224 1.216 . S
O224 C223 1.216 . S
H225 C220 0.930 . S
H226 C221 0.930 . S
O227 Cu207 1.959 . S
O227 C214 1.251 . S
H228 C211 0.930 . S
H229 C222 0.929 . S
Cu230 N231 1.999 . S
Cu230 O236 1.974 . S
Cu230 N241 1.985 . S
Cu230 O250 1.959 . S
N231 Cu230 1.999 . S
N231 C233 1.263 . S
N231 C235 1.389 . S
N232 C233 1.358 . S
N232 C234 1.400 . S
C233 N231 1.263 . S
C233 N232 1.358 . S
C233 H239 0.930 . S
C234 N232 1.400 . S
C234 C235 1.351 . S
C234 H251 0.930 . S
C235 N231 1.389 . S
C235 C234 1.351 . S
C235 H240 0.930 . S
O236 Cu230 1.974 . S
O236 C246 1.282 . S
C237 O238 1.261 . S
C237 O250 1.251 . S
O238 C237 1.261 . S
H239 C233 0.930 . S
H240 C235 0.930 . S
N241 Cu230 1.985 . S
N241 C243 1.335 . S
N241 C244 1.390 . S
N242 C243 1.345 . S
N242 C245 1.336 . S
C243 N241 1.335 . S
C243 N242 1.345 . S
C243 H248 0.930 . S
C244 N241 1.390 . S
C244 C245 1.346 . S
C244 H249 0.930 . S
C245 N242 1.336 . S
C245 C244 1.346 . S
C245 H252 0.929 . S
C246 O236 1.282 . S
C246 O247 1.216 . S
O247 C246 1.216 . S
H248 C243 0.930 . S
H249 C244 0.930 . S
O250 Cu230 1.959 . S
O250 C237 1.251 . S
H251 C234 0.930 . S
H252 C245 0.929 . S
Cu253 N254 1.999 . S
Cu253 O259 1.974 . S
Cu253 N264 1.985 . S
Cu253 O273 1.959 . S
N254 Cu253 1.999 . S
N254 C256 1.263 . S
N254 C258 1.389 . S
N255 C256 1.358 . S
N255 C257 1.400 . S
C256 N254 1.263 . S
C256 N255 1.358 . S
C256 H262 0.930 . S
C257 N255 1.400 . S
C257 C258 1.351 . S
C257 H274 0.930 . S
C258 N254 1.389 . S
C258 C257 1.351 . S
C258 H263 0.930 . S
O259 Cu253 1.974 . S
O259 C269 1.282 . S
C260 O261 1.261 . S
C260 O273 1.251 . S
O261 C260 1.261 . S
H262 C256 0.930 . S
H263 C258 0.930 . S
N264 Cu253 1.985 . S
N264 C266 1.335 . S
N264 C267 1.390 . S
N265 C266 1.345 . S
N265 C268 1.336 . S
C266 N264 1.335 . S
C266 N265 1.345 . S
C266 H271 0.930 . S
C267 N264 1.390 . S
C267 C268 1.346 . S
C267 H272 0.930 . S
C268 N265 1.336 . S
C268 C267 1.346 . S
C268 H275 0.929 . S
C269 O259 1.282 . S
C269 O270 1.216 . S
O270 C269 1.216 . S
H271 C266 0.930 . S
H272 C267 0.930 . S
O273 Cu253 1.959 . S
O273 C260 1.251 . S
H274 C257 0.930 . S
H275 C268 0.929 . S
Cu276 N277 1.999 . S
Cu276 O282 1.974 . S
Cu276 N287 1.985 . S
Cu276 O296 1.959 . S
N277 Cu276 1.999 . S
N277 C279 1.263 . S
N277 C281 1.389 . S
N278 C279 1.358 . S
N278 C280 1.400 . S
C279 N277 1.263 . S
C279 N278 1.358 . S
C279 H285 0.930 . S
C280 N278 1.400 . S
C280 C281 1.351 . S
C280 H297 0.930 . S
C281 N277 1.389 . S
C281 C280 1.351 . S
C281 H286 0.930 . S
O282 Cu276 1.974 . S
O282 C292 1.282 . S
C283 O284 1.261 . S
C283 O296 1.251 . S
O284 C283 1.261 . S
H285 C279 0.930 . S
H286 C281 0.930 . S
N287 Cu276 1.985 . S
N287 C289 1.335 . S
N287 C290 1.390 . S
N288 C289 1.345 . S
N288 C291 1.336 . S
C289 N287 1.335 . S
C289 N288 1.345 . S
C289 H294 0.930 . S
C290 N287 1.390 . S
C290 C291 1.346 . S
C290 H295 0.930 . S
C291 N288 1.336 . S
C291 C290 1.346 . S
C291 H298 0.929 . S
C292 O282 1.282 . S
C292 O293 1.216 . S
O293 C292 1.216 . S
H294 C289 0.930 . S
H295 C290 0.930 . S
O296 Cu276 1.959 . S
O296 C283 1.251 . S
H297 C280 0.930 . S
H298 C291 0.929 . S
Cu299 N300 1.999 . S
Cu299 O305 1.974 . S
Cu299 N310 1.985 . S
Cu299 O319 1.959 . S
N300 Cu299 1.999 . S
N300 C302 1.263 . S
N300 C304 1.389 . S
N301 C302 1.358 . S
N301 C303 1.400 . S
C302 N300 1.263 . S
C302 N301 1.358 . S
C302 H308 0.930 . S
C303 N301 1.400 . S
C303 C304 1.351 . S
C303 H320 0.930 . S
C304 N300 1.389 . S
C304 C303 1.351 . S
C304 H309 0.930 . S
O305 Cu299 1.974 . S
O305 C315 1.282 . S
C306 O307 1.261 . S
C306 O319 1.251 . S
O307 C306 1.261 . S
H308 C302 0.930 . S
H309 C304 0.930 . S
N310 Cu299 1.985 . S
N310 C312 1.335 . S
N310 C313 1.390 . S
N311 C312 1.345 . S
N311 C314 1.336 . S
C312 N310 1.335 . S
C312 N311 1.345 . S
C312 H317 0.930 . S
C313 N310 1.390 . S
C313 C314 1.346 . S
C313 H318 0.930 . S
C314 N311 1.336 . S
C314 C313 1.346 . S
C314 H321 0.929 . S
C315 O305 1.282 . S
C315 O316 1.216 . S
O316 C315 1.216 . S
H317 C312 0.930 . S
H318 C313 0.930 . S
O319 Cu299 1.959 . S
O319 C306 1.251 . S
H320 C303 0.930 . S
H321 C314 0.929 . S
Cu322 N323 1.999 . S
Cu322 O328 1.974 . S
Cu322 N333 1.985 . S
Cu322 O342 1.959 . S
N323 Cu322 1.999 . S
N323 C325 1.263 . S
N323 C327 1.389 . S
N324 C325 1.358 . S
N324 C326 1.400 . S
C325 N323 1.263 . S
C325 N324 1.358 . S
C325 H331 0.930 . S
C326 N324 1.400 . S
C326 C327 1.351 . S
C326 H343 0.930 . S
C327 N323 1.389 . S
C327 C326 1.351 . S
C327 H332 0.930 . S
O328 Cu322 1.974 . S
O328 C338 1.282 . S
C329 O330 1.261 . S
C329 O342 1.251 . S
O330 C329 1.261 . S
H331 C325 0.930 . S
H332 C327 0.930 . S
N333 Cu322 1.985 . S
N333 C335 1.335 . S
N333 C336 1.390 . S
N334 C335 1.345 . S
N334 C337 1.336 . S
C335 N333 1.335 . S
C335 N334 1.345 . S
C335 H340 0.930 . S
C336 N333 1.390 . S
C336 C337 1.346 . S
C336 H341 0.930 . S
C337 N334 1.336 . S
C337 C336 1.346 . S
C337 H344 0.929 . S
C338 O328 1.282 . S
C338 O339 1.216 . S
O339 C338 1.216 . S
H340 C335 0.930 . S
H341 C336 0.930 . S
O342 Cu322 1.959 . S
O342 C329 1.251 . S
H343 C326 0.930 . S
H344 C337 0.929 . S
Cu345 N346 1.999 . S
Cu345 O351 1.974 . S
Cu345 N356 1.985 . S
Cu345 O365 1.959 . S
N346 Cu345 1.999 . S
N346 C348 1.263 . S
N346 C350 1.389 . S
N347 C348 1.358 . S
N347 C349 1.400 . S
C348 N346 1.263 . S
C348 N347 1.358 . S
C348 H354 0.930 . S
C349 N347 1.400 . S
C349 C350 1.351 . S
C349 H366 0.930 . S
C350 N346 1.389 . S
C350 C349 1.351 . S
C350 H355 0.930 . S
O351 Cu345 1.974 . S
O351 C361 1.282 . S
C352 O353 1.261 . S
C352 O365 1.251 . S
O353 C352 1.261 . S
H354 C348 0.930 . S
H355 C350 0.930 . S
N356 Cu345 1.985 . S
N356 C358 1.335 . S
N356 C359 1.390 . S
N357 C358 1.345 . S
N357 C360 1.336 . S
C358 N356 1.335 . S
C358 N357 1.345 . S
C358 H363 0.930 . S
C359 N356 1.390 . S
C359 C360 1.346 . S
C359 H364 0.930 . S
C360 N357 1.336 . S
C360 C359 1.346 . S
C360 H367 0.929 . S
C361 O351 1.282 . S
C361 O362 1.216 . S
O362 C361 1.216 . S
H363 C358 0.930 . S
H364 C359 0.930 . S
O365 Cu345 1.959 . S
O365 C352 1.251 . S
H366 C349 0.930 . S
H367 C360 0.929 . S
Cu368 N369 1.999 . S
Cu368 O374 1.974 . S
Cu368 N379 1.985 . S
Cu368 O388 1.959 . S
N369 Cu368 1.999 . S
N369 C371 1.263 . S
N369 C373 1.389 . S
N370 C371 1.358 . S
N370 C372 1.400 . S
C371 N369 1.263 . S
C371 N370 1.358 . S
C371 H377 0.930 . S
C372 N370 1.400 . S
C372 C373 1.351 . S
C372 H389 0.930 . S
C373 N369 1.389 . S
C373 C372 1.351 . S
C373 H378 0.930 . S
O374 Cu368 1.974 . S
O374 C384 1.282 . S
C375 O376 1.261 . S
C375 O388 1.251 . S
O376 C375 1.261 . S
H377 C371 0.930 . S
H378 C373 0.930 . S
N379 Cu368 1.985 . S
N379 C381 1.335 . S
N379 C382 1.390 . S
N380 C381 1.345 . S
N380 C383 1.336 . S
C381 N379 1.335 . S
C381 N380 1.345 . S
C381 H386 0.930 . S
C382 N379 1.390 . S
C382 C383 1.346 . S
C382 H387 0.930 . S
C383 N380 1.336 . S
C383 C382 1.346 . S
C383 H390 0.929 . S
C384 O374 1.282 . S
C384 O385 1.216 . S
O385 C384 1.216 . S
H386 C381 0.930 . S
H387 C382 0.930 . S
O388 Cu368 1.959 . S
O388 C375 1.251 . S
H389 C372 0.930 . S
H390 C383 0.929 . S
Cu391 N392 1.999 . S
Cu391 O397 1.974 . S
Cu391 N402 1.985 . S
Cu391 O411 1.959 . S
N392 Cu391 1.999 . S
N392 C394 1.263 . S
N392 C396 1.389 . S
N393 C394 1.358 . S
N393 C395 1.400 . S
C394 N392 1.263 . S
C394 N393 1.358 . S
C394 H400 0.930 . S
C395 N393 1.400 . S
C395 C396 1.351 . S
C395 H412 0.930 . S
C396 N392 1.389 . S
C396 C395 1.351 . S
C396 H401 0.930 . S
O397 Cu391 1.974 . S
O397 C407 1.282 . S
C398 O399 1.261 . S
C398 O411 1.251 . S
O399 C398 1.261 . S
H400 C394 0.930 . S
H401 C396 0.930 . S
N402 Cu391 1.985 . S
N402 C404 1.335 . S
N402 C405 1.390 . S
N403 C404 1.345 . S
N403 C406 1.336 . S
C404 N402 1.335 . S
C404 N403 1.345 . S
C404 H409 0.930 . S
C405 N402 1.390 . S
C405 C406 1.346 . S
C405 H410 0.930 . S
C406 N403 1.336 . S
C406 C405 1.346 . S
C406 H413 0.929 . S
C407 O397 1.282 . S
C407 O408 1.216 . S
O408 C407 1.216 . S
H409 C404 0.930 . S
H410 C405 0.930 . S
O411 Cu391 1.959 . S
O411 C398 1.251 . S
H412 C395 0.930 . S
H413 C406 0.929 . S
Cu414 N415 1.999 . S
Cu414 O420 1.974 . S
Cu414 N425 1.985 . S
Cu414 O434 1.959 . S
N415 Cu414 1.999 . S
N415 C417 1.263 . S
N415 C419 1.389 . S
N416 C417 1.358 . S
N416 C418 1.400 . S
C417 N415 1.263 . S
C417 N416 1.358 . S
C417 H423 0.930 . S
C418 N416 1.400 . S
C418 C419 1.351 . S
C418 H435 0.930 . S
C419 N415 1.389 . S
C419 C418 1.351 . S
C419 H424 0.930 . S
O420 Cu414 1.974 . S
O420 C430 1.282 . S
C421 O422 1.261 . S
C421 O434 1.251 . S
O422 C421 1.261 . S
H423 C417 0.930 . S
H424 C419 0.930 . S
N425 Cu414 1.985 . S
N425 C427 1.335 . S
N425 C428 1.390 . S
N426 C427 1.345 . S
N426 C429 1.336 . S
C427 N425 1.335 . S
C427 N426 1.345 . S
C427 H432 0.930 . S
C428 N425 1.390 . S
C428 C429 1.346 . S
C428 H433 0.930 . S
C429 N426 1.336 . S
C429 C428 1.346 . S
C429 H436 0.929 . S
C430 O420 1.282 . S
C430 O431 1.216 . S
O431 C430 1.216 . S
H432 C427 0.930 . S
H433 C428 0.930 . S
O434 Cu414 1.959 . S
O434 C421 1.251 . S
H435 C418 0.930 . S
H436 C429 0.929 . S
Cu437 N438 1.999 . S
Cu437 O443 1.974 . S
Cu437 N448 1.985 . S
Cu437 O457 1.959 . S
N438 Cu437 1.999 . S
N438 C440 1.263 . S
N438 C442 1.389 . S
N439 C440 1.358 . S
N439 C441 1.400 . S
C440 N438 1.263 . S
C440 N439 1.358 . S
C440 H446 0.930 . S
C441 N439 1.400 . S
C441 C442 1.351 . S
C441 H458 0.930 . S
C442 N438 1.389 . S
C442 C441 1.351 . S
C442 H447 0.930 . S
O443 Cu437 1.974 . S
O443 C453 1.282 . S
C444 O445 1.261 . S
C444 O457 1.251 . S
O445 C444 1.261 . S
H446 C440 0.930 . S
H447 C442 0.930 . S
N448 Cu437 1.985 . S
N448 C450 1.335 . S
N448 C451 1.390 . S
N449 C450 1.345 . S
N449 C452 1.336 . S
C450 N448 1.335 . S
C450 N449 1.345 . S
C450 H455 0.930 . S
C451 N448 1.390 . S
C451 C452 1.346 . S
C451 H456 0.930 . S
C452 N449 1.336 . S
C452 C451 1.346 . S
C452 H459 0.929 . S
C453 O443 1.282 . S
C453 O454 1.216 . S
O454 C453 1.216 . S
H455 C450 0.930 . S
H456 C451 0.930 . S
O457 Cu437 1.959 . S
O457 C444 1.251 . S
H458 C441 0.930 . S
H459 C452 0.929 . S
Cu460 N461 1.999 . S
Cu460 O466 1.974 . S
Cu460 N471 1.985 . S
Cu460 O480 1.959 . S
N461 Cu460 1.999 . S
N461 C463 1.263 . S
N461 C465 1.389 . S
N462 C463 1.358 . S
N462 C464 1.400 . S
C463 N461 1.263 . S
C463 N462 1.358 . S
C463 H469 0.930 . S
C464 N462 1.400 . S
C464 C465 1.351 . S
C464 H481 0.930 . S
C465 N461 1.389 . S
C465 C464 1.351 . S
C465 H470 0.930 . S
O466 Cu460 1.974 . S
O466 C476 1.282 . S
C467 O468 1.261 . S
C467 O480 1.251 . S
O468 C467 1.261 . S
H469 C463 0.930 . S
H470 C465 0.930 . S
N471 Cu460 1.985 . S
N471 C473 1.335 . S
N471 C474 1.390 . S
N472 C473 1.345 . S
N472 C475 1.336 . S
C473 N471 1.335 . S
C473 N472 1.345 . S
C473 H478 0.930 . S
C474 N471 1.390 . S
C474 C475 1.346 . S
C474 H479 0.930 . S
C475 N472 1.336 . S
C475 C474 1.346 . S
C475 H482 0.929 . S
C476 O466 1.282 . S
C476 O477 1.216 . S
O477 C476 1.216 . S
H478 C473 0.930 . S
H479 C474 0.930 . S
O480 Cu460 1.959 . S
O480 C467 1.251 . S
H481 C464 0.930 . S
H482 C475 0.929 . S
Cu483 N484 1.999 . S
Cu483 O489 1.974 . S
Cu483 N494 1.985 . S
Cu483 O503 1.959 . S
N484 Cu483 1.999 . S
N484 C486 1.263 . S
N484 C488 1.389 . S
N485 C486 1.358 . S
N485 C487 1.400 . S
C486 N484 1.263 . S
C486 N485 1.358 . S
C486 H492 0.930 . S
C487 N485 1.400 . S
C487 C488 1.351 . S
C487 H504 0.930 . S
C488 N484 1.389 . S
C488 C487 1.351 . S
C488 H493 0.930 . S
O489 Cu483 1.974 . S
O489 C499 1.282 . S
C490 O491 1.261 . S
C490 O503 1.251 . S
O491 C490 1.261 . S
H492 C486 0.930 . S
H493 C488 0.930 . S
N494 Cu483 1.985 . S
N494 C496 1.335 . S
N494 C497 1.390 . S
N495 C496 1.345 . S
N495 C498 1.336 . S
C496 N494 1.335 . S
C496 N495 1.345 . S
C496 H501 0.930 . S
C497 N494 1.390 . S
C497 C498 1.346 . S
C497 H502 0.930 . S
C498 N495 1.336 . S
C498 C497 1.346 . S
C498 H505 0.929 . S
C499 O489 1.282 . S
C499 O500 1.216 . S
O500 C499 1.216 . S
H501 C496 0.930 . S
H502 C497 0.930 . S
O503 Cu483 1.959 . S
O503 C490 1.251 . S
H504 C487 0.930 . S
H505 C498 0.929 . S
Cu506 N507 1.999 . S
Cu506 O512 1.974 . S
Cu506 N517 1.985 . S
Cu506 O526 1.959 . S
N507 Cu506 1.999 . S
N507 C509 1.263 . S
N507 C511 1.389 . S
N508 C509 1.358 . S
N508 C510 1.400 . S
C509 N507 1.263 . S
C509 N508 1.358 . S
C509 H515 0.930 . S
C510 N508 1.400 . S
C510 C511 1.351 . S
C510 H527 0.930 . S
C511 N507 1.389 . S
C511 C510 1.351 . S
C511 H516 0.930 . S
O512 Cu506 1.974 . S
O512 C522 1.282 . S
C513 O514 1.261 . S
C513 O526 1.251 . S
O514 C513 1.261 . S
H515 C509 0.930 . S
H516 C511 0.930 . S
N517 Cu506 1.985 . S
N517 C519 1.335 . S
N517 C520 1.390 . S
N518 C519 1.345 . S
N518 C521 1.336 . S
C519 N517 1.335 . S
C519 N518 1.345 . S
C519 H524 0.930 . S
C520 N517 1.390 . S
C520 C521 1.346 . S
C520 H525 0.930 . S
C521 N518 1.336 . S
C521 C520 1.346 . S
C521 H528 0.929 . S
C522 O512 1.282 . S
C522 O523 1.216 . S
O523 C522 1.216 . S
H524 C519 0.930 . S
H525 C520 0.930 . S
O526 Cu506 1.959 . S
O526 C513 1.251 . S
H527 C510 0.930 . S
H528 C521 0.929 . S
Cu529 N530 1.999 . S
Cu529 O535 1.974 . S
Cu529 N540 1.985 . S
Cu529 O549 1.959 . S
N530 Cu529 1.999 . S
N530 C532 1.263 . S
N530 C534 1.389 . S
N531 C532 1.358 . S
N531 C533 1.400 . S
C532 N530 1.263 . S
C532 N531 1.358 . S
C532 H538 0.930 . S
C533 N531 1.400 . S
C533 C534 1.351 . S
C533 H550 0.930 . S
C534 N530 1.389 . S
C534 C533 1.351 . S
C534 H539 0.930 . S
O535 Cu529 1.974 . S
O535 C545 1.282 . S
C536 O537 1.261 . S
C536 O549 1.251 . S
O537 C536 1.261 . S
H538 C532 0.930 . S
H539 C534 0.930 . S
N540 Cu529 1.985 . S
N540 C542 1.335 . S
N540 C543 1.390 . S
N541 C542 1.345 . S
N541 C544 1.336 . S
C542 N540 1.335 . S
C542 N541 1.345 . S
C542 H547 0.930 . S
C543 N540 1.390 . S
C543 C544 1.346 . S
C543 H548 0.930 . S
C544 N541 1.336 . S
C544 C543 1.346 . S
C544 H551 0.929 . S
C545 O535 1.282 . S
C545 O546 1.216 . S
O546 C545 1.216 . S
H547 C542 0.930 . S
H548 C543 0.930 . S
O549 Cu529 1.959 . S
O549 C536 1.251 . S
H550 C533 0.930 . S
H551 C544 0.929 . S
Cu552 N553 1.999 . S
Cu552 O558 1.974 . S
Cu552 N563 1.985 . S
Cu552 O572 1.959 . S
N553 Cu552 1.999 . S
N553 C555 1.263 . S
N553 C557 1.389 . S
N554 C555 1.358 . S
N554 C556 1.400 . S
C555 N553 1.263 . S
C555 N554 1.358 . S
C555 H561 0.930 . S
C556 N554 1.400 . S
C556 C557 1.351 . S
C556 H573 0.930 . S
C557 N553 1.389 . S
C557 C556 1.351 . S
C557 H562 0.930 . S
O558 Cu552 1.974 . S
O558 C568 1.282 . S
C559 O560 1.261 . S
C559 O572 1.251 . S
O560 C559 1.261 . S
H561 C555 0.930 . S
H562 C557 0.930 . S
N563 Cu552 1.985 . S
N563 C565 1.335 . S
N563 C566 1.390 . S
N564 C565 1.345 . S
N564 C567 1.336 . S
C565 N563 1.335 . S
C565 N564 1.345 . S
C565 H570 0.930 . S
C566 N563 1.390 . S
C566 C567 1.346 . S
C566 H571 0.930 . S
C567 N564 1.336 . S
C567 C566 1.346 . S
C567 H574 0.929 . S
C568 O558 1.282 . S
C568 O569 1.216 . S
O569 C568 1.216 . S
H570 C565 0.930 . S
H571 C566 0.930 . S
O572 Cu552 1.959 . S
O572 C559 1.251 . S
H573 C556 0.930 . S
H574 C567 0.929 . S
Cu575 N576 1.999 . S
Cu575 O581 1.974 . S
Cu575 N586 1.985 . S
Cu575 O595 1.959 . S
N576 Cu575 1.999 . S
N576 C578 1.263 . S
N576 C580 1.389 . S
N577 C578 1.358 . S
N577 C579 1.400 . S
C578 N576 1.263 . S
C578 N577 1.358 . S
C578 H584 0.930 . S
C579 N577 1.400 . S
C579 C580 1.351 . S
C579 H596 0.930 . S
C580 N576 1.389 . S
C580 C579 1.351 . S
C580 H585 0.930 . S
O581 Cu575 1.974 . S
O581 C591 1.282 . S
C582 O583 1.261 . S
C582 O595 1.251 . S
O583 C582 1.261 . S
H584 C578 0.930 . S
H585 C580 0.930 . S
N586 Cu575 1.985 . S
N586 C588 1.335 . S
N586 C589 1.390 . S
N587 C588 1.345 . S
N587 C590 1.336 . S
C588 N586 1.335 . S
C588 N587 1.345 . S
C588 H593 0.930 . S
C589 N586 1.390 . S
C589 C590 1.346 . S
C589 H594 0.930 . S
C590 N587 1.336 . S
C590 C589 1.346 . S
C590 H597 0.929 . S
C591 O581 1.282 . S
C591 O592 1.216 . S
O592 C591 1.216 . S
H593 C588 0.930 . S
H594 C589 0.930 . S
O595 Cu575 1.959 . S
O595 C582 1.251 . S
H596 C579 0.930 . S
H597 C590 0.929 . S
Cu598 N599 1.999 . S
Cu598 O604 1.974 . S
Cu598 N609 1.985 . S
Cu598 O618 1.959 . S
N599 Cu598 1.999 . S
N599 C601 1.263 . S
N599 C603 1.389 . S
N600 C601 1.358 . S
N600 C602 1.400 . S
C601 N599 1.263 . S
C601 N600 1.358 . S
C601 H607 0.930 . S
C602 N600 1.400 . S
C602 C603 1.351 . S
C602 H619 0.930 . S
C603 N599 1.389 . S
C603 C602 1.351 . S
C603 H608 0.930 . S
O604 Cu598 1.974 . S
O604 C614 1.282 . S
C605 O606 1.261 . S
C605 O618 1.251 . S
O606 C605 1.261 . S
H607 C601 0.930 . S
H608 C603 0.930 . S
N609 Cu598 1.985 . S
N609 C611 1.335 . S
N609 C612 1.390 . S
N610 C611 1.345 . S
N610 C613 1.336 . S
C611 N609 1.335 . S
C611 N610 1.345 . S
C611 H616 0.930 . S
C612 N609 1.390 . S
C612 C613 1.346 . S
C612 H617 0.930 . S
C613 N610 1.336 . S
C613 C612 1.346 . S
C613 H620 0.929 . S
C614 O604 1.282 . S
C614 O615 1.216 . S
O615 C614 1.216 . S
H616 C611 0.930 . S
H617 C612 0.930 . S
O618 Cu598 1.959 . S
O618 C605 1.251 . S
H619 C602 0.930 . S
H620 C613 0.929 . S
Cu621 N622 1.999 . S
Cu621 O627 1.974 . S
Cu621 N632 1.985 . S
Cu621 O641 1.959 . S
N622 Cu621 1.999 . S
N622 C624 1.263 . S
N622 C626 1.389 . S
N623 C624 1.358 . S
N623 C625 1.400 . S
C624 N622 1.263 . S
C624 N623 1.358 . S
C624 H630 0.930 . S
C625 N623 1.400 . S
C625 C626 1.351 . S
C625 H642 0.930 . S
C626 N622 1.389 . S
C626 C625 1.351 . S
C626 H631 0.930 . S
O627 Cu621 1.974 . S
O627 C637 1.282 . S
C628 O629 1.261 . S
C628 O641 1.251 . S
O629 C628 1.261 . S
H630 C624 0.930 . S
H631 C626 0.930 . S
N632 Cu621 1.985 . S
N632 C634 1.335 . S
N632 C635 1.390 . S
N633 C634 1.345 . S
N633 C636 1.336 . S
C634 N632 1.335 . S
C634 N633 1.345 . S
C634 H639 0.930 . S
C635 N632 1.390 . S
C635 C636 1.346 . S
C635 H640 0.930 . S
C636 N633 1.336 . S
C636 C635 1.346 . S
C636 H643 0.929 . S
C637 O627 1.282 . S
C637 O638 1.216 . S
O638 C637 1.216 . S
H639 C634 0.930 . S
H640 C635 0.930 . S
O641 Cu621 1.959 . S
O641 C628 1.251 . S
H642 C625 0.930 . S
H643 C636 0.929 . S
Cu644 N645 1.999 . S
Cu644 O650 1.974 . S
Cu644 N655 1.985 . S
Cu644 O664 1.959 . S
N645 Cu644 1.999 . S
N645 C647 1.263 . S
N645 C649 1.389 . S
N646 C647 1.358 . S
N646 C648 1.400 . S
C647 N645 1.263 . S
C647 N646 1.358 . S
C647 H653 0.930 . S
C648 N646 1.400 . S
C648 C649 1.351 . S
C648 H665 0.930 . S
C649 N645 1.389 . S
C649 C648 1.351 . S
C649 H654 0.930 . S
O650 Cu644 1.974 . S
O650 C660 1.282 . S
C651 O652 1.261 . S
C651 O664 1.251 . S
O652 C651 1.261 . S
H653 C647 0.930 . S
H654 C649 0.930 . S
N655 Cu644 1.985 . S
N655 C657 1.335 . S
N655 C658 1.390 . S
N656 C657 1.345 . S
N656 C659 1.336 . S
C657 N655 1.335 . S
C657 N656 1.345 . S
C657 H662 0.930 . S
C658 N655 1.390 . S
C658 C659 1.346 . S
C658 H663 0.930 . S
C659 N656 1.336 . S
C659 C658 1.346 . S
C659 H666 0.929 . S
C660 O650 1.282 . S
C660 O661 1.216 . S
O661 C660 1.216 . S
H662 C657 0.930 . S
H663 C658 0.930 . S
O664 Cu644 1.959 . S
O664 C651 1.251 . S
H665 C648 0.930 . S
H666 C659 0.929 . S
Cu667 N668 1.999 . S
Cu667 O673 1.974 . S
Cu667 N678 1.985 . S
Cu667 O687 1.959 . S
N668 Cu667 1.999 . S
N668 C670 1.263 . S
N668 C672 1.389 . S
N669 C670 1.358 . S
N669 C671 1.400 . S
C670 N668 1.263 . S
C670 N669 1.358 . S
C670 H676 0.930 . S
C671 N669 1.400 . S
C671 C672 1.351 . S
C671 H688 0.930 . S
C672 N668 1.389 . S
C672 C671 1.351 . S
C672 H677 0.930 . S
O673 Cu667 1.974 . S
O673 C683 1.282 . S
C674 O675 1.261 . S
C674 O687 1.251 . S
O675 C674 1.261 . S
H676 C670 0.930 . S
H677 C672 0.930 . S
N678 Cu667 1.985 . S
N678 C680 1.335 . S
N678 C681 1.390 . S
N679 C680 1.345 . S
N679 C682 1.336 . S
C680 N678 1.335 . S
C680 N679 1.345 . S
C680 H685 0.930 . S
C681 N678 1.390 . S
C681 C682 1.346 . S
C681 H686 0.930 . S
C682 N679 1.336 . S
C682 C681 1.346 . S
C682 H689 0.929 . S
C683 O673 1.282 . S
C683 O684 1.216 . S
O684 C683 1.216 . S
H685 C680 0.930 . S
H686 C681 0.930 . S
O687 Cu667 1.959 . S
O687 C674 1.251 . S
H688 C671 0.930 . S
H689 C682 0.929 . S
Cu690 N691 1.999 . S
Cu690 O696 1.974 . S
Cu690 N701 1.985 . S
Cu690 O710 1.959 . S
N691 Cu690 1.999 . S
N691 C693 1.263 . S
N691 C695 1.389 . S
N692 C693 1.358 . S
N692 C694 1.400 . S
C693 N691 1.263 . S
C693 N692 1.358 . S
C693 H699 0.930 . S
C694 N692 1.400 . S
C694 C695 1.351 . S
C694 H711 0.930 . S
C695 N691 1.389 . S
C695 C694 1.351 . S
C695 H700 0.930 . S
O696 Cu690 1.974 . S
O696 C706 1.282 . S
C697 O698 1.261 . S
C697 O710 1.251 . S
O698 C697 1.261 . S
H699 C693 0.930 . S
H700 C695 0.930 . S
N701 Cu690 1.985 . S
N701 C703 1.335 . S
N701 C704 1.390 . S
N702 C703 1.345 . S
N702 C705 1.336 . S
C703 N701 1.335 . S
C703 N702 1.345 . S
C703 H708 0.930 . S
C704 N701 1.390 . S
C704 C705 1.346 . S
C704 H709 0.930 . S
C705 N702 1.336 . S
C705 C704 1.346 . S
C705 H712 0.929 . S
C706 O696 1.282 . S
C706 O707 1.216 . S
O707 C706 1.216 . S
H708 C703 0.930 . S
H709 C704 0.930 . S
O710 Cu690 1.959 . S
O710 C697 1.251 . S
H711 C694 0.930 . S
H712 C705 0.929 . S
Cu713 N714 1.999 . S
Cu713 O719 1.974 . S
Cu713 N724 1.985 . S
Cu713 O733 1.959 . S
N714 Cu713 1.999 . S
N714 C716 1.263 . S
N714 C718 1.389 . S
N715 C716 1.358 . S
N715 C717 1.400 . S
C716 N714 1.263 . S
C716 N715 1.358 . S
C716 H722 0.930 . S
C717 N715 1.400 . S
C717 C718 1.351 . S
C717 H734 0.930 . S
C718 N714 1.389 . S
C718 C717 1.351 . S
C718 H723 0.930 . S
O719 Cu713 1.974 . S
O719 C729 1.282 . S
C720 O721 1.261 . S
C720 O733 1.251 . S
O721 C720 1.261 . S
H722 C716 0.930 . S
H723 C718 0.930 . S
N724 Cu713 1.985 . S
N724 C726 1.335 . S
N724 C727 1.390 . S
N725 C726 1.345 . S
N725 C728 1.336 . S
C726 N724 1.335 . S
C726 N725 1.345 . S
C726 H731 0.930 . S
C727 N724 1.390 . S
C727 C728 1.346 . S
C727 H732 0.930 . S
C728 N725 1.336 . S
C728 C727 1.346 . S
C728 H735 0.929 . S
C729 O719 1.282 . S
C729 O730 1.216 . S
O730 C729 1.216 . S
H731 C726 0.930 . S
H732 C727 0.930 . S
O733 Cu713 1.959 . S
O733 C720 1.251 . S
H734 C717 0.930 . S
H735 C728 0.929 . S
H736 C744 0.950 . S
H737 C749 0.950 . S
H738 C746 0.950 . S
H739 C748 0.950 . S
H740 C750 0.950 . S
H741 C752 0.950 . S
H742 C754 0.950 . S
H743 C755 0.950 . S
C744 H736 0.950 . S
C744 C745 1.386 . S
C744 C746 1.391 . S
C745 C744 1.386 . S
C745 C749 1.393 . S
C746 H738 0.950 . S
C746 C744 1.391 . S
C746 C747 1.400 . S
C747 C746 1.400 . S
C747 C748 1.398 . S
C747 C753 1.491 . S
C748 H739 0.950 . S
C748 C747 1.398 . S
C748 C749 1.391 . S
C749 H737 0.950 . S
C749 C745 1.393 . S
C749 C748 1.391 . S
C750 H740 0.950 . S
C750 C751 1.386 . S
C750 C752 1.391 . S
C751 C750 1.386 . S
C751 C755 1.393 . S
C752 H741 0.950 . S
C752 C750 1.391 . S
C752 C753 1.400 . S
C753 C747 1.491 . S
C753 C752 1.400 . S
C753 C754 1.398 . S
C754 H742 0.950 . S
C754 C753 1.398 . S
C754 C755 1.391 . S
C755 H743 0.950 . S
C755 C751 1.393 . S
C755 C754 1.391 . S
H756 C764 0.950 . S
H757 C769 0.950 . S
H758 C766 0.950 . S
H759 C768 0.950 1_655 S
H760 C770 0.950 . S
H761 C772 0.950 . S
H762 C774 0.950 . S
H763 C775 0.950 . S
C764 H756 0.950 . S
C764 C765 1.386 . S
C764 C766 1.391 . S
C765 C764 1.386 . S
C765 C769 1.393 . S
C766 H758 0.950 . S
C766 C764 1.391 . S
C766 C767 1.400 . S
C767 C766 1.400 . S
C767 C768 1.398 . S
C767 C773 1.491 1_455 S
C768 H759 0.950 1_455 S
C768 C767 1.398 . S
C768 C769 1.391 . S
C769 H757 0.950 . S
C769 C765 1.393 . S
C769 C768 1.391 . S
C770 H760 0.950 . S
C770 C771 1.386 . S
C770 C772 1.391 . S
C771 C770 1.386 . S
C771 C775 1.393 . S
C772 H761 0.950 . S
C772 C770 1.391 . S
C772 C773 1.400 . S
C773 C767 1.491 1_655 S
C773 C772 1.400 . S
C773 C774 1.398 . S
C774 H762 0.950 . S
C774 C773 1.398 . S
C774 C775 1.391 . S
C775 H763 0.950 . S
C775 C771 1.393 . S
C775 C774 1.391 . S
H776 C784 0.950 . S
H777 C789 0.950 . S
H778 C786 0.950 . S
H779 C788 0.950 . S
H780 C790 0.950 . S
H781 C792 0.950 . S
H782 C794 0.950 . S
H783 C795 0.950 . S
C784 H776 0.950 . S
C784 C785 1.386 . S
C784 C786 1.391 . S
C785 C784 1.386 . S
C785 C789 1.393 . S
C786 H778 0.950 . S
C786 C784 1.391 . S
C786 C787 1.400 . S
C787 C786 1.400 . S
C787 C788 1.398 . S
C787 C793 1.491 . S
C788 H779 0.950 . S
C788 C787 1.398 . S
C788 C789 1.391 . S
C789 H777 0.950 . S
C789 C785 1.393 . S
C789 C788 1.391 . S
C790 H780 0.950 . S
C790 C791 1.386 . S
C790 C792 1.391 . S
C791 C790 1.386 . S
C791 C795 1.393 . S
C792 H781 0.950 . S
C792 C790 1.391 . S
C792 C793 1.400 . S
C793 C787 1.491 . S
C793 C792 1.400 . S
C793 C794 1.398 . S
C794 H782 0.950 . S
C794 C793 1.398 . S
C794 C795 1.391 . S
C795 H783 0.950 . S
C795 C791 1.393 . S
C795 C794 1.391 . S
H796 C804 0.950 . S
H797 C809 0.950 . S
H798 C806 0.950 . S
H799 C808 0.950 . S
H800 C810 0.950 . S
H801 C812 0.950 . S
H802 C814 0.950 . S
H803 C815 0.950 . S
C804 H796 0.950 . S
C804 C805 1.386 . S
C804 C806 1.391 . S
C805 C804 1.386 . S
C805 C809 1.393 . S
C806 H798 0.950 . S
C806 C804 1.391 . S
C806 C807 1.400 . S
C807 C806 1.400 . S
C807 C808 1.398 . S
C807 C813 1.491 . S
C808 H799 0.950 . S
C808 C807 1.398 . S
C808 C809 1.391 . S
C809 H797 0.950 . S
C809 C805 1.393 . S
C809 C808 1.391 . S
C810 H800 0.950 . S
C810 C811 1.386 . S
C810 C812 1.391 . S
C811 C810 1.386 . S
C811 C815 1.393 . S
C812 H801 0.950 . S
C812 C810 1.391 . S
C812 C813 1.400 . S
C813 C807 1.491 . S
C813 C812 1.400 . S
C813 C814 1.398 . S
C814 H802 0.950 . S
C814 C813 1.398 . S
C814 C815 1.391 . S
C815 H803 0.950 . S
C815 C811 1.393 . S
C815 C814 1.391 . S
H816 C824 0.950 . S
H817 C829 0.950 . S
H818 C826 0.950 . S
H819 C828 0.950 . S
H820 C830 0.950 . S
H821 C832 0.950 . S
H822 C834 0.950 . S
H823 C835 0.950 . S
C824 H816 0.950 . S
C824 C825 1.386 . S
C824 C826 1.391 . S
C825 C824 1.386 . S
C825 C829 1.393 . S
C826 H818 0.950 . S
C826 C824 1.391 . S
C826 C827 1.400 . S
C827 C826 1.400 . S
C827 C828 1.398 . S
C827 C833 1.491 . S
C828 H819 0.950 . S
C828 C827 1.398 . S
C828 C829 1.391 . S
C829 H817 0.950 . S
C829 C825 1.393 . S
C829 C828 1.391 . S
C830 H820 0.950 . S
C830 C831 1.386 . S
C830 C832 1.391 . S
C831 C830 1.386 . S
C831 C835 1.393 . S
C832 H821 0.950 . S
C832 C830 1.391 . S
C832 C833 1.400 . S
C833 C827 1.491 . S
C833 C832 1.400 . S
C833 C834 1.398 . S
C834 H822 0.950 . S
C834 C833 1.398 . S
C834 C835 1.391 . S
C835 H823 0.950 . S
C835 C831 1.393 . S
C835 C834 1.391 . S
H836 C844 0.950 . S
H837 C849 0.950 . S
H838 C846 0.950 . S
H839 C848 0.950 . S
H840 C850 0.950 . S
H841 C852 0.950 . S
H842 C854 0.950 . S
H843 C855 0.950 . S
C844 H836 0.950 . S
C844 C845 1.386 . S
C844 C846 1.391 . S
C845 C844 1.386 . S
C845 C849 1.393 . S
C846 H838 0.950 . S
C846 C844 1.391 . S
C846 C847 1.400 . S
C847 C846 1.400 . S
C847 C848 1.398 . S
C847 C853 1.491 . S
C848 H839 0.950 . S
C848 C847 1.398 . S
C848 C849 1.391 . S
C849 H837 0.950 . S
C849 C845 1.393 . S
C849 C848 1.391 . S
C850 H840 0.950 . S
C850 C851 1.386 . S
C850 C852 1.391 . S
C851 C850 1.386 . S
C851 C855 1.393 . S
C852 H841 0.950 . S
C852 C850 1.391 . S
C852 C853 1.400 . S
C853 C847 1.491 . S
C853 C852 1.400 . S
C853 C854 1.398 . S
C854 H842 0.950 . S
C854 C853 1.398 . S
C854 C855 1.391 . S
C855 H843 0.950 . S
C855 C851 1.393 . S
C855 C854 1.391 . S
H856 C864 0.950 . S
H857 C869 0.950 . S
H858 C866 0.950 . S
H859 C868 0.950 . S
H860 C870 0.950 . S
H861 C872 0.950 . S
H862 C874 0.950 . S
H863 C875 0.950 . S
C864 H856 0.950 . S
C864 C865 1.386 . S
C864 C866 1.391 . S
C865 C864 1.386 . S
C865 C869 1.393 . S
C866 H858 0.950 . S
C866 C864 1.391 . S
C866 C867 1.400 . S
C867 C866 1.400 . S
C867 C868 1.398 . S
C867 C873 1.491 . S
C868 H859 0.950 . S
C868 C867 1.398 . S
C868 C869 1.391 . S
C869 H857 0.950 . S
C869 C865 1.393 . S
C869 C868 1.391 . S
C870 H860 0.950 . S
C870 C871 1.386 . S
C870 C872 1.391 . S
C871 C870 1.386 . S
C871 C875 1.393 . S
C872 H861 0.950 . S
C872 C870 1.391 . S
C872 C873 1.400 . S
C873 C867 1.491 . S
C873 C872 1.400 . S
C873 C874 1.398 . S
C874 H862 0.950 . S
C874 C873 1.398 . S
C874 C875 1.391 . S
C875 H863 0.950 . S
C875 C871 1.393 . S
C875 C874 1.391 . S
H876 C884 0.950 . S
H877 C889 0.950 . S
H878 C886 0.950 . S
H879 C888 0.949 1_655 S
H880 C890 0.950 . S
H881 C892 0.950 . S
H882 C894 0.950 . S
H883 C895 0.950 . S
C884 H876 0.950 . S
C884 C885 1.386 . S
C884 C886 1.391 . S
C885 C884 1.386 . S
C885 C889 1.393 . S
C886 H878 0.950 . S
C886 C884 1.391 . S
C886 C887 1.400 . S
C887 C886 1.400 . S
C887 C888 1.398 . S
C887 C893 1.491 1_455 S
C888 H879 0.949 1_455 S
C888 C887 1.398 . S
C888 C889 1.392 . S
C889 H877 0.950 . S
C889 C885 1.393 . S
C889 C888 1.392 . S
C890 H880 0.950 . S
C890 C891 1.386 . S
C890 C892 1.391 . S
C891 C890 1.386 . S
C891 C895 1.393 . S
C892 H881 0.950 . S
C892 C890 1.391 . S
C892 C893 1.400 . S
C893 C887 1.491 1_655 S
C893 C892 1.400 . S
C893 C894 1.398 . S
C894 H882 0.950 . S
C894 C893 1.398 . S
C894 C895 1.391 . S
C895 H883 0.950 . S
C895 C891 1.393 . S
C895 C894 1.391 . S
H896 C904 0.950 . S
H897 C909 0.950 . S
H898 C906 0.950 . S
H899 C908 0.950 . S
H900 C910 0.950 . S
H901 C912 0.950 . S
H902 C914 0.950 . S
H903 C915 0.950 . S
C904 H896 0.950 . S
C904 C905 1.386 . S
C904 C906 1.391 . S
C905 C904 1.386 . S
C905 C909 1.393 . S
C906 H898 0.950 . S
C906 C904 1.391 . S
C906 C907 1.400 . S
C907 C906 1.400 . S
C907 C908 1.398 . S
C907 C913 1.491 . S
C908 H899 0.950 . S
C908 C907 1.398 . S
C908 C909 1.391 . S
C909 H897 0.950 . S
C909 C905 1.393 . S
C909 C908 1.391 . S
C910 H900 0.950 . S
C910 C911 1.386 . S
C910 C912 1.391 . S
C911 C910 1.386 . S
C911 C915 1.393 . S
C912 H901 0.950 . S
C912 C910 1.391 . S
C912 C913 1.400 . S
C913 C907 1.491 . S
C913 C912 1.400 . S
C913 C914 1.398 . S
C914 H902 0.950 . S
C914 C913 1.398 . S
C914 C915 1.391 . S
C915 H903 0.950 . S
C915 C911 1.393 . S
C915 C914 1.391 . S
H916 C924 0.950 . S
H917 C929 0.950 . S
H918 C926 0.950 . S
H919 C928 0.950 . S
H920 C930 0.950 . S
H921 C932 0.950 1_455 S
H922 C934 0.950 . S
H923 C935 0.950 . S
C924 H916 0.950 . S
C924 C925 1.386 . S
C924 C926 1.391 . S
C925 C924 1.386 . S
C925 C929 1.393 . S
C926 H918 0.950 . S
C926 C924 1.391 . S
C926 C927 1.400 . S
C927 C926 1.400 . S
C927 C928 1.398 . S
C927 C933 1.491 1_455 S
C928 H919 0.950 . S
C928 C927 1.398 . S
C928 C929 1.391 . S
C929 H917 0.950 . S
C929 C925 1.393 . S
C929 C928 1.391 . S
C930 H920 0.950 . S
C930 C931 1.386 . S
C930 C932 1.391 . S
C931 C930 1.386 . S
C931 C935 1.393 . S
C932 H921 0.950 1_655 S
C932 C930 1.391 . S
C932 C933 1.400 . S
C933 C927 1.491 1_655 S
C933 C932 1.400 . S
C933 C934 1.398 . S
C934 H922 0.950 . S
C934 C933 1.398 . S
C934 C935 1.391 . S
C935 H923 0.950 . S
C935 C931 1.393 . S
C935 C934 1.391 . S
H936 C944 0.950 . S
H937 C949 0.950 . S
H938 C946 0.950 . S
H939 C948 0.950 . S
H940 C950 0.950 . S
H941 C952 0.950 . S
H942 C954 0.950 . S
H943 C955 0.950 . S
C944 H936 0.950 . S
C944 C945 1.386 . S
C944 C946 1.391 . S
C945 C944 1.386 . S
C945 C949 1.393 . S
C946 H938 0.950 . S
C946 C944 1.391 . S
C946 C947 1.400 . S
C947 C946 1.400 . S
C947 C948 1.398 . S
C947 C953 1.491 . S
C948 H939 0.950 . S
C948 C947 1.398 . S
C948 C949 1.391 . S
C949 H937 0.950 . S
C949 C945 1.393 . S
C949 C948 1.391 . S
C950 H940 0.950 . S
C950 C951 1.386 . S
C950 C952 1.391 . S
C951 C950 1.386 . S
C951 C955 1.393 . S
C952 H941 0.950 . S
C952 C950 1.391 . S
C952 C953 1.400 . S
C953 C947 1.491 . S
C953 C952 1.400 . S
C953 C954 1.398 . S
C954 H942 0.950 . S
C954 C953 1.398 . S
C954 C955 1.391 . S
C955 H943 0.950 . S
C955 C951 1.393 . S
C955 C954 1.391 . S
H956 C964 0.950 . S
H957 C969 0.950 . S
H958 C966 0.950 . S
H959 C968 0.950 . S
H960 C970 0.950 . S
H961 C972 0.950 . S
H962 C974 0.950 . S
H963 C975 0.950 . S
C964 H956 0.950 . S
C964 C965 1.386 . S
C964 C966 1.391 . S
C965 C964 1.386 . S
C965 C969 1.393 . S
C966 H958 0.950 . S
C966 C964 1.391 . S
C966 C967 1.400 . S
C967 C966 1.400 . S
C967 C968 1.398 . S
C967 C973 1.491 . S
C968 H959 0.950 . S
C968 C967 1.398 . S
C968 C969 1.391 . S
C969 H957 0.950 . S
C969 C965 1.393 . S
C969 C968 1.391 . S
C970 H960 0.950 . S
C970 C971 1.386 . S
C970 C972 1.391 . S
C971 C970 1.386 . S
C971 C975 1.393 . S
C972 H961 0.950 . S
C972 C970 1.391 . S
C972 C973 1.400 . S
C973 C967 1.491 . S
C973 C972 1.400 . S
C973 C974 1.398 . S
C974 H962 0.950 . S
C974 C973 1.398 . S
C974 C975 1.391 . S
C975 H963 0.950 . S
C975 C971 1.393 . S
C975 C974 1.391 . S
H976 C984 0.950 . S
H977 C989 0.950 . S
H978 C986 0.950 . S
H979 C988 0.950 . S
H980 C990 0.950 . S
H981 C992 0.950 . S
H982 C994 0.950 . S
H983 C995 0.950 . S
C984 H976 0.950 . S
C984 C985 1.386 . S
C984 C986 1.391 . S
C985 C984 1.386 . S
C985 C989 1.393 . S
C986 H978 0.950 . S
C986 C984 1.391 . S
C986 C987 1.400 . S
C987 C986 1.400 . S
C987 C988 1.398 . S
C987 C993 1.491 . S
C988 H979 0.950 . S
C988 C987 1.398 . S
C988 C989 1.391 . S
C989 H977 0.950 . S
C989 C985 1.393 . S
C989 C988 1.391 . S
C990 H980 0.950 . S
C990 C991 1.386 . S
C990 C992 1.391 . S
C991 C990 1.386 . S
C991 C995 1.393 . S
C992 H981 0.950 . S
C992 C990 1.391 . S
C992 C993 1.400 . S
C993 C987 1.491 . S
C993 C992 1.400 . S
C993 C994 1.398 . S
C994 H982 0.950 . S
C994 C993 1.398 . S
C994 C995 1.391 . S
C995 H983 0.950 . S
C995 C991 1.393 . S
C995 C994 1.391 . S
H996 C1004 0.950 . S
H997 C1009 0.950 . S
H998 C1006 0.950 . S
H999 C1008 0.950 . S
H1000 C1010 0.950 . S
H1001 C1012 0.950 . S
H1002 C1014 0.950 . S
H1003 C1015 0.950 . S
C1004 H996 0.950 . S
C1004 C1005 1.386 . S
C1004 C1006 1.391 . S
C1005 C1004 1.386 . S
C1005 C1009 1.393 . S
C1006 H998 0.950 . S
C1006 C1004 1.391 . S
C1006 C1007 1.400 . S
C1007 C1006 1.400 . S
C1007 C1008 1.398 . S
C1007 C1013 1.491 . S
C1008 H999 0.950 . S
C1008 C1007 1.398 . S
C1008 C1009 1.391 . S
C1009 H997 0.950 . S
C1009 C1005 1.393 . S
C1009 C1008 1.391 . S
C1010 H1000 0.950 . S
C1010 C1011 1.386 . S
C1010 C1012 1.391 . S
C1011 C1010 1.386 . S
C1011 C1015 1.393 . S
C1012 H1001 0.950 . S
C1012 C1010 1.391 . S
C1012 C1013 1.400 . S
C1013 C1007 1.491 . S
C1013 C1012 1.400 . S
C1013 C1014 1.398 . S
C1014 H1002 0.950 . S
C1014 C1013 1.398 . S
C1014 C1015 1.391 . S
C1015 H1003 0.950 . S
C1015 C1011 1.393 . S
C1015 C1014 1.391 . S
H1016 C1024 0.950 . S
H1017 C1029 0.950 . S
H1018 C1026 0.950 . S
H1019 C1028 0.950 . S
H1020 C1030 0.950 . S
H1021 C1032 0.950 . S
H1022 C1034 0.950 . S
H1023 C1035 0.950 . S
C1024 H1016 0.950 . S
C1024 C1025 1.386 . S
C1024 C1026 1.391 . S
C1025 C1024 1.386 . S
C1025 C1029 1.393 . S
C1026 H1018 0.950 . S
C1026 C1024 1.391 . S
C1026 C1027 1.400 . S
C1027 C1026 1.400 . S
C1027 C1028 1.398 . S
C1027 C1033 1.491 . S
C1028 H1019 0.950 . S
C1028 C1027 1.398 . S
C1028 C1029 1.391 . S
C1029 H1017 0.950 . S
C1029 C1025 1.393 . S
C1029 C1028 1.391 . S
C1030 H1020 0.950 . S
C1030 C1031 1.386 . S
C1030 C1032 1.391 . S
C1031 C1030 1.386 . S
C1031 C1035 1.393 . S
C1032 H1021 0.950 . S
C1032 C1030 1.391 . S
C1032 C1033 1.400 . S
C1033 C1027 1.491 . S
C1033 C1032 1.400 . S
C1033 C1034 1.398 . S
C1034 H1022 0.950 . S
C1034 C1033 1.398 . S
C1034 C1035 1.391 . S
C1035 H1023 0.950 . S
C1035 C1031 1.393 . S
C1035 C1034 1.391 . S
H1036 C1044 0.950 . S
H1037 C1049 0.950 . S
H1038 C1046 0.950 . S
H1039 C1048 0.950 . S
H1040 C1050 0.950 . S
H1041 C1052 0.950 1_455 S
H1042 C1054 0.950 . S
H1043 C1055 0.950 . S
C1044 H1036 0.950 . S
C1044 C1045 1.386 . S
C1044 C1046 1.391 . S
C1045 C1044 1.386 . S
C1045 C1049 1.393 . S
C1046 H1038 0.950 . S
C1046 C1044 1.391 . S
C1046 C1047 1.400 . S
C1047 C1046 1.400 . S
C1047 C1048 1.398 . S
C1047 C1053 1.491 1_455 S
C1048 H1039 0.950 . S
C1048 C1047 1.398 . S
C1048 C1049 1.391 . S
C1049 H1037 0.950 . S
C1049 C1045 1.393 . S
C1049 C1048 1.391 . S
C1050 H1040 0.950 . S
C1050 C1051 1.386 . S
C1050 C1052 1.391 . S
C1051 C1050 1.386 . S
C1051 C1055 1.393 . S
C1052 H1041 0.950 1_655 S
C1052 C1050 1.391 . S
C1052 C1053 1.400 . S
C1053 C1047 1.491 1_655 S
C1053 C1052 1.400 . S
C1053 C1054 1.398 . S
C1054 H1042 0.950 . S
C1054 C1053 1.398 . S
C1054 C1055 1.391 . S
C1055 H1043 0.950 . S
C1055 C1051 1.393 . S
C1055 C1054 1.391 . S
H1056 C1064 0.950 . S
H1057 C1069 0.950 . S
H1058 C1066 0.950 . S
H1059 C1068 0.950 . S
H1060 C1070 0.950 . S
H1061 C1072 0.950 . S
H1062 C1074 0.950 . S
H1063 C1075 0.950 . S
C1064 H1056 0.950 . S
C1064 C1065 1.386 . S
C1064 C1066 1.391 . S
C1065 C1064 1.386 . S
C1065 C1069 1.393 . S
C1066 H1058 0.950 . S
C1066 C1064 1.391 . S
C1066 C1067 1.400 . S
C1067 C1066 1.400 . S
C1067 C1068 1.398 . S
C1067 C1073 1.491 . S
C1068 H1059 0.950 . S
C1068 C1067 1.398 . S
C1068 C1069 1.391 . S
C1069 H1057 0.950 . S
C1069 C1065 1.393 . S
C1069 C1068 1.391 . S
C1070 H1060 0.950 . S
C1070 C1071 1.386 . S
C1070 C1072 1.391 . S
C1071 C1070 1.386 . S
C1071 C1075 1.393 . S
C1072 H1061 0.950 . S
C1072 C1070 1.391 . S
C1072 C1073 1.400 . S
C1073 C1067 1.491 . S
C1073 C1072 1.400 . S
C1073 C1074 1.398 . S
C1074 H1062 0.950 . S
C1074 C1073 1.398 . S
C1074 C1075 1.391 . S
C1075 H1063 0.950 . S
C1075 C1071 1.393 . S
C1075 C1074 1.391 . S
H1076 C1084 0.950 . S
H1077 C1089 0.950 . S
H1078 C1086 0.950 . S
H1079 C1088 0.950 . S
H1080 C1090 0.950 . S
H1081 C1092 0.950 . S
H1082 C1094 0.950 . S
H1083 C1095 0.950 . S
C1084 H1076 0.950 . S
C1084 C1085 1.386 . S
C1084 C1086 1.391 . S
C1085 C1084 1.386 . S
C1085 C1089 1.393 . S
C1086 H1078 0.950 . S
C1086 C1084 1.391 . S
C1086 C1087 1.400 . S
C1087 C1086 1.400 . S
C1087 C1088 1.398 . S
C1087 C1093 1.491 . S
C1088 H1079 0.950 . S
C1088 C1087 1.398 . S
C1088 C1089 1.391 . S
C1089 H1077 0.950 . S
C1089 C1085 1.393 . S
C1089 C1088 1.391 . S
C1090 H1080 0.950 . S
C1090 C1091 1.386 . S
C1090 C1092 1.391 . S
C1091 C1090 1.386 . S
C1091 C1095 1.393 . S
C1092 H1081 0.950 . S
C1092 C1090 1.391 . S
C1092 C1093 1.400 . S
C1093 C1087 1.491 . S
C1093 C1092 1.400 . S
C1093 C1094 1.398 . S
C1094 H1082 0.950 . S
C1094 C1093 1.398 . S
C1094 C1095 1.391 . S
C1095 H1083 0.950 . S
C1095 C1091 1.393 . S
C1095 C1094 1.391 . S
H1096 C1104 0.950 . S
H1097 C1109 0.950 . S
H1098 C1106 0.950 . S
H1099 C1108 0.950 . S
H1100 C1110 0.950 . S
H1101 C1112 0.950 . S
H1102 C1114 0.950 . S
H1103 C1115 0.950 . S
C1104 H1096 0.950 . S
C1104 C1105 1.386 . S
C1104 C1106 1.391 . S
C1105 C1104 1.386 . S
C1105 C1109 1.393 . S
C1106 H1098 0.950 . S
C1106 C1104 1.391 . S
C1106 C1107 1.400 . S
C1107 C1106 1.400 . S
C1107 C1108 1.398 . S
C1107 C1113 1.491 . S
C1108 H1099 0.950 . S
C1108 C1107 1.398 . S
C1108 C1109 1.391 . S
C1109 H1097 0.950 . S
C1109 C1105 1.393 . S
C1109 C1108 1.391 . S
C1110 H1100 0.950 . S
C1110 C1111 1.386 . S
C1110 C1112 1.391 . S
C1111 C1110 1.386 . S
C1111 C1115 1.393 . S
C1112 H1101 0.950 . S
C1112 C1110 1.391 . S
C1112 C1113 1.400 . S
C1113 C1107 1.491 . S
C1113 C1112 1.400 . S
C1113 C1114 1.398 . S
C1114 H1102 0.950 . S
C1114 C1113 1.398 . S
C1114 C1115 1.391 . S
C1115 H1103 0.950 . S
C1115 C1111 1.393 . S
C1115 C1114 1.391 . S
H1116 C1124 0.950 . S
H1117 C1129 0.950 . S
H1118 C1126 0.950 . S
H1119 C1128 0.950 . S
H1120 C1130 0.950 . S
H1121 C1132 0.950 . S
H1122 C1134 0.950 1_455 S
H1123 C1135 0.950 . S
C1124 H1116 0.950 . S
C1124 C1125 1.386 . S
C1124 C1126 1.391 . S
C1125 C1124 1.386 . S
C1125 C1129 1.393 . S
C1126 H1118 0.950 . S
C1126 C1124 1.391 . S
C1126 C1127 1.400 . S
C1127 C1126 1.400 . S
C1127 C1128 1.398 . S
C1127 C1133 1.491 1_455 S
C1128 H1119 0.950 . S
C1128 C1127 1.398 . S
C1128 C1129 1.391 . S
C1129 H1117 0.950 . S
C1129 C1125 1.393 . S
C1129 C1128 1.391 . S
C1130 H1120 0.950 . S
C1130 C1131 1.386 . S
C1130 C1132 1.391 . S
C1131 C1130 1.386 . S
C1131 C1135 1.393 . S
C1132 H1121 0.950 . S
C1132 C1130 1.391 . S
C1132 C1133 1.400 . S
C1133 C1127 1.491 1_655 S
C1133 C1132 1.400 . S
C1133 C1134 1.398 . S
C1134 H1122 0.950 1_655 S
C1134 C1133 1.398 . S
C1134 C1135 1.391 . S
C1135 H1123 0.950 . S
C1135 C1131 1.393 . S
C1135 C1134 1.391 . S
H1136 C1144 0.950 . S
H1137 C1149 0.950 . S
H1138 C1146 0.950 . S
H1139 C1148 0.950 . S
H1140 C1150 0.950 . S
H1141 C1152 0.950 . S
H1142 C1154 0.950 . S
H1143 C1155 0.950 . S
C1144 H1136 0.950 . S
C1144 C1145 1.386 . S
C1144 C1146 1.391 . S
C1145 C1144 1.386 . S
C1145 C1149 1.393 . S
C1146 H1138 0.950 . S
C1146 C1144 1.391 . S
C1146 C1147 1.400 . S
C1147 C1146 1.400 . S
C1147 C1148 1.398 . S
C1147 C1153 1.491 . S
C1148 H1139 0.950 . S
C1148 C1147 1.398 . S
C1148 C1149 1.391 . S
C1149 H1137 0.950 . S
C1149 C1145 1.393 . S
C1149 C1148 1.391 . S
C1150 H1140 0.950 . S
C1150 C1151 1.386 . S
C1150 C1152 1.391 . S
C1151 C1150 1.386 . S
C1151 C1155 1.393 . S
C1152 H1141 0.950 . S
C1152 C1150 1.391 . S
C1152 C1153 1.400 . S
C1153 C1147 1.491 . S
C1153 C1152 1.400 . S
C1153 C1154 1.398 . S
C1154 H1142 0.950 . S
C1154 C1153 1.398 . S
C1154 C1155 1.391 . S
C1155 H1143 0.950 . S
C1155 C1151 1.393 . S
C1155 C1154 1.391 . S
H1156 C1164 0.950 . S
H1157 C1169 0.950 . S
H1158 C1166 0.950 . S
H1159 C1168 0.950 . S
H1160 C1170 0.950 . S
H1161 C1172 0.939 1_455 S
H1162 C1174 0.950 . S
H1163 C1175 0.950 . S
C1164 H1156 0.950 . S
C1164 C1165 1.386 . S
C1164 C1166 1.391 . S
C1165 C1164 1.386 . S
C1165 C1169 1.393 . S
C1166 H1158 0.950 . S
C1166 C1164 1.391 . S
C1166 C1167 1.400 . S
C1167 C1166 1.400 . S
C1167 C1168 1.398 . S
C1167 C1173 1.491 1_455 S
C1168 H1159 0.950 . S
C1168 C1167 1.398 . S
C1168 C1169 1.391 . S
C1169 H1157 0.950 . S
C1169 C1165 1.393 . S
C1169 C1168 1.391 . S
C1170 H1160 0.950 . S
C1170 C1171 1.386 . S
C1170 C1172 1.401 . S
C1171 C1170 1.386 . S
C1171 C1175 1.393 . S
C1172 H1161 0.939 1_655 S
C1172 C1170 1.401 . S
C1172 C1173 1.401 . S
C1173 C1167 1.491 1_655 S
C1173 C1172 1.401 . S
C1173 C1174 1.398 . S
C1174 H1162 0.950 . S
C1174 C1173 1.398 . S
C1174 C1175 1.391 . S
C1175 H1163 0.950 . S
C1175 C1171 1.393 . S
C1175 C1174 1.391 . S
H1176 C1184 0.950 . S
H1177 C1189 0.950 . S
H1178 C1186 0.950 . S
H1179 C1188 0.950 . S
H1180 C1190 0.950 . S
H1181 C1192 0.950 . S
H1182 C1194 0.950 . S
H1183 C1195 0.950 . S
C1184 H1176 0.950 . S
C1184 C1185 1.386 . S
C1184 C1186 1.391 . S
C1185 C1184 1.386 . S
C1185 C1189 1.393 . S
C1186 H1178 0.950 . S
C1186 C1184 1.391 . S
C1186 C1187 1.400 . S
C1187 C1186 1.400 . S
C1187 C1188 1.398 . S
C1187 C1193 1.491 . S
C1188 H1179 0.950 . S
C1188 C1187 1.398 . S
C1188 C1189 1.391 . S
C1189 H1177 0.950 . S
C1189 C1185 1.393 . S
C1189 C1188 1.391 . S
C1190 H1180 0.950 . S
C1190 C1191 1.386 . S
C1190 C1192 1.391 . S
C1191 C1190 1.386 . S
C1191 C1195 1.393 . S
C1192 H1181 0.950 . S
C1192 C1190 1.391 . S
C1192 C1193 1.400 . S
C1193 C1187 1.491 . S
C1193 C1192 1.400 . S
C1193 C1194 1.398 . S
C1194 H1182 0.950 . S
C1194 C1193 1.398 . S
C1194 C1195 1.391 . S
C1195 H1183 0.950 . S
C1195 C1191 1.393 . S
C1195 C1194 1.391 . S
H1196 C1204 0.950 . S
H1197 C1209 0.950 . S
H1198 C1206 0.950 . S
H1199 C1208 0.950 . S
H1200 C1210 0.950 . S
H1201 C1212 0.950 . S
H1202 C1214 0.950 . S
H1203 C1215 0.950 . S
C1204 H1196 0.950 . S
C1204 C1205 1.386 . S
C1204 C1206 1.391 . S
C1205 C1204 1.386 . S
C1205 C1209 1.393 . S
C1206 H1198 0.950 . S
C1206 C1204 1.391 . S
C1206 C1207 1.400 . S
C1207 C1206 1.400 . S
C1207 C1208 1.398 . S
C1207 C1213 1.491 . S
C1208 H1199 0.950 . S
C1208 C1207 1.398 . S
C1208 C1209 1.391 . S
C1209 H1197 0.950 . S
C1209 C1205 1.393 . S
C1209 C1208 1.391 . S
C1210 H1200 0.950 . S
C1210 C1211 1.386 . S
C1210 C1212 1.391 . S
C1211 C1210 1.386 . S
C1211 C1215 1.393 . S
C1212 H1201 0.950 . S
C1212 C1210 1.391 . S
C1212 C1213 1.400 . S
C1213 C1207 1.491 . S
C1213 C1212 1.400 . S
C1213 C1214 1.398 . S
C1214 H1202 0.950 . S
C1214 C1213 1.398 . S
C1214 C1215 1.391 . S
C1215 H1203 0.950 . S
C1215 C1211 1.393 . S
C1215 C1214 1.391 . S
H1216 C1224 0.950 . S
H1217 C1229 0.950 . S
H1218 C1226 0.950 . S
H1219 C1228 0.950 . S
H1220 C1230 0.950 . S
H1221 C1232 0.950 . S
H1222 C1234 0.950 . S
H1223 C1235 0.950 . S
C1224 H1216 0.950 . S
C1224 C1225 1.386 . S
C1224 C1226 1.391 . S
C1225 C1224 1.386 . S
C1225 C1229 1.393 . S
C1226 H1218 0.950 . S
C1226 C1224 1.391 . S
C1226 C1227 1.400 . S
C1227 C1226 1.400 . S
C1227 C1228 1.398 . S
C1227 C1233 1.491 . S
C1228 H1219 0.950 . S
C1228 C1227 1.398 . S
C1228 C1229 1.391 . S
C1229 H1217 0.950 . S
C1229 C1225 1.393 . S
C1229 C1228 1.391 . S
C1230 H1220 0.950 . S
C1230 C1231 1.386 . S
C1230 C1232 1.391 . S
C1231 C1230 1.386 . S
C1231 C1235 1.393 . S
C1232 H1221 0.950 . S
C1232 C1230 1.391 . S
C1232 C1233 1.400 . S
C1233 C1227 1.491 . S
C1233 C1232 1.400 . S
C1233 C1234 1.398 . S
C1234 H1222 0.950 . S
C1234 C1233 1.398 . S
C1234 C1235 1.391 . S
C1235 H1223 0.950 . S
C1235 C1231 1.393 . S
C1235 C1234 1.391 . S
H1236 C1244 0.950 . S
H1237 C1249 0.950 . S
H1238 C1246 0.950 . S
H1239 C1248 0.950 . S
H1240 C1250 0.950 . S
H1241 C1252 0.950 . S
H1242 C1254 0.950 . S
H1243 C1255 0.950 . S
C1244 H1236 0.950 . S
C1244 C1245 1.386 . S
C1244 C1246 1.391 . S
C1245 C1244 1.386 . S
C1245 C1249 1.393 . S
C1246 H1238 0.950 . S
C1246 C1244 1.391 . S
C1246 C1247 1.400 . S
C1247 C1246 1.400 . S
C1247 C1248 1.398 . S
C1247 C1253 1.491 . S
C1248 H1239 0.950 . S
C1248 C1247 1.398 . S
C1248 C1249 1.391 . S
C1249 H1237 0.950 . S
C1249 C1245 1.393 . S
C1249 C1248 1.391 . S
C1250 H1240 0.950 . S
C1250 C1251 1.386 . S
C1250 C1252 1.391 . S
C1251 C1250 1.386 . S
C1251 C1255 1.393 . S
C1252 H1241 0.950 . S
C1252 C1250 1.391 . S
C1252 C1253 1.400 . S
C1253 C1247 1.491 . S
C1253 C1252 1.400 . S
C1253 C1254 1.398 . S
C1254 H1242 0.950 . S
C1254 C1253 1.398 . S
C1254 C1255 1.391 . S
C1255 H1243 0.950 . S
C1255 C1251 1.393 . S
C1255 C1254 1.391 . S
H1256 C1264 0.950 . S
H1257 C1269 0.950 . S
H1258 C1266 0.950 . S
H1259 C1268 0.950 . S
H1260 C1270 0.950 . S
H1261 C1272 0.950 . S
H1262 C1274 0.950 . S
H1263 C1275 0.950 . S
C1264 H1256 0.950 . S
C1264 C1265 1.386 . S
C1264 C1266 1.391 . S
C1265 C1264 1.386 . S
C1265 C1269 1.393 . S
C1266 H1258 0.950 . S
C1266 C1264 1.391 . S
C1266 C1267 1.400 . S
C1267 C1266 1.400 . S
C1267 C1268 1.398 . S
C1267 C1273 1.491 . S
C1268 H1259 0.950 . S
C1268 C1267 1.398 . S
C1268 C1269 1.391 . S
C1269 H1257 0.950 . S
C1269 C1265 1.393 . S
C1269 C1268 1.391 . S
C1270 H1260 0.950 . S
C1270 C1271 1.386 . S
C1270 C1272 1.391 . S
C1271 C1270 1.386 . S
C1271 C1275 1.393 . S
C1272 H1261 0.950 . S
C1272 C1270 1.391 . S
C1272 C1273 1.400 . S
C1273 C1267 1.491 . S
C1273 C1272 1.400 . S
C1273 C1274 1.398 . S
C1274 H1262 0.950 . S
C1274 C1273 1.398 . S
C1274 C1275 1.391 . S
C1275 H1263 0.950 . S
C1275 C1271 1.393 . S
C1275 C1274 1.391 . S
H1276 C1284 0.950 . S
H1277 C1289 0.950 . S
H1278 C1286 0.950 1_655 S
H1279 C1288 0.950 . S
H1280 C1290 0.950 . S
H1281 C1292 0.950 . S
H1282 C1294 0.950 . S
H1283 C1295 0.950 . S
C1284 H1276 0.950 . S
C1284 C1285 1.386 . S
C1284 C1286 1.391 . S
C1285 C1284 1.386 . S
C1285 C1289 1.393 . S
C1286 H1278 0.950 1_455 S
C1286 C1284 1.391 . S
C1286 C1287 1.400 . S
C1287 C1286 1.400 . S
C1287 C1288 1.398 . S
C1287 C1293 1.491 1_455 S
C1288 H1279 0.950 . S
C1288 C1287 1.398 . S
C1288 C1289 1.391 . S
C1289 H1277 0.950 . S
C1289 C1285 1.393 . S
C1289 C1288 1.391 . S
C1290 H1280 0.950 . S
C1290 C1291 1.386 . S
C1290 C1292 1.391 . S
C1291 C1290 1.386 . S
C1291 C1295 1.393 . S
C1292 H1281 0.950 . S
C1292 C1290 1.391 . S
C1292 C1293 1.400 . S
C1293 C1287 1.491 1_655 S
C1293 C1292 1.400 . S
C1293 C1294 1.398 . S
C1294 H1282 0.950 . S
C1294 C1293 1.398 . S
C1294 C1295 1.391 . S
C1295 H1283 0.950 . S
C1295 C1291 1.393 . S
C1295 C1294 1.391 . S
H1296 C1304 0.950 . S
H1297 C1309 0.950 . S
H1298 C1306 0.950 . S
H1299 C1308 0.950 . S
H1300 C1310 0.950 . S
H1301 C1312 0.950 . S
H1302 C1314 0.950 . S
H1303 C1315 0.950 . S
C1304 H1296 0.950 . S
C1304 C1305 1.386 . S
C1304 C1306 1.391 . S
C1305 C1304 1.386 . S
C1305 C1309 1.393 . S
C1306 H1298 0.950 . S
C1306 C1304 1.391 . S
C1306 C1307 1.400 . S
C1307 C1306 1.400 . S
C1307 C1308 1.398 . S
C1307 C1313 1.491 . S
C1308 H1299 0.950 . S
C1308 C1307 1.398 . S
C1308 C1309 1.391 . S
C1309 H1297 0.950 . S
C1309 C1305 1.393 . S
C1309 C1308 1.391 . S
C1310 H1300 0.950 . S
C1310 C1311 1.386 . S
C1310 C1312 1.391 . S
C1311 C1310 1.386 . S
C1311 C1315 1.393 . S
C1312 H1301 0.950 . S
C1312 C1310 1.391 . S
C1312 C1313 1.400 . S
C1313 C1307 1.491 . S
C1313 C1312 1.400 . S
C1313 C1314 1.398 . S
C1314 H1302 0.950 . S
C1314 C1313 1.398 . S
C1314 C1315 1.391 . S
C1315 H1303 0.950 . S
C1315 C1311 1.393 . S
C1315 C1314 1.391 . S
H1316 C1324 0.950 . S
H1317 C1329 0.950 . S
H1318 C1326 0.950 . S
H1319 C1328 0.922 1_655 S
H1320 C1330 0.950 . S
H1321 C1332 0.950 . S
H1322 C1334 0.950 . S
H1323 C1335 0.950 . S
C1324 H1316 0.950 . S
C1324 C1325 1.386 . S
C1324 C1326 1.391 . S
C1325 C1324 1.386 . S
C1325 C1329 1.393 . S
C1326 H1318 0.950 . S
C1326 C1324 1.391 . S
C1326 C1327 1.400 . S
C1327 C1326 1.400 . S
C1327 C1328 1.401 . S
C1327 C1333 1.491 1_455 S
C1328 H1319 0.922 1_455 S
C1328 C1327 1.401 . S
C1328 C1329 1.416 . S
C1329 H1317 0.950 . S
C1329 C1325 1.393 . S
C1329 C1328 1.416 . S
C1330 H1320 0.950 . S
C1330 C1331 1.386 . S
C1330 C1332 1.391 . S
C1331 C1330 1.386 . S
C1331 C1335 1.393 . S
C1332 H1321 0.950 . S
C1332 C1330 1.391 . S
C1332 C1333 1.400 . S
C1333 C1327 1.491 1_655 S
C1333 C1332 1.400 . S
C1333 C1334 1.398 . S
C1334 H1322 0.950 . S
C1334 C1333 1.398 . S
C1334 C1335 1.391 . S
C1335 H1323 0.950 . S
C1335 C1331 1.393 . S
C1335 C1334 1.391 . S
H1336 C1344 0.950 . S
H1337 C1349 0.950 . S
H1338 C1346 0.950 . S
H1339 C1348 0.950 . S
H1340 C1350 0.950 . S
H1341 C1352 0.950 . S
H1342 C1354 0.950 . S
H1343 C1355 0.950 . S
C1344 H1336 0.950 . S
C1344 C1345 1.386 . S
C1344 C1346 1.391 . S
C1345 C1344 1.386 . S
C1345 C1349 1.393 . S
C1346 H1338 0.950 . S
C1346 C1344 1.391 . S
C1346 C1347 1.400 . S
C1347 C1346 1.400 . S
C1347 C1348 1.398 . S
C1347 C1353 1.491 . S
C1348 H1339 0.950 . S
C1348 C1347 1.398 . S
C1348 C1349 1.391 . S
C1349 H1337 0.950 . S
C1349 C1345 1.393 . S
C1349 C1348 1.391 . S
C1350 H1340 0.950 . S
C1350 C1351 1.386 . S
C1350 C1352 1.391 . S
C1351 C1350 1.386 . S
C1351 C1355 1.393 . S
C1352 H1341 0.950 . S
C1352 C1350 1.391 . S
C1352 C1353 1.400 . S
C1353 C1347 1.491 . S
C1353 C1352 1.400 . S
C1353 C1354 1.398 . S
C1354 H1342 0.950 . S
C1354 C1353 1.398 . S
C1354 C1355 1.391 . S
C1355 H1343 0.950 . S
C1355 C1351 1.393 . S
C1355 C1354 1.391 . S
H1356 C1364 0.950 . S
H1357 C1369 0.950 . S
H1358 C1366 0.950 . S
H1359 C1368 0.950 . S
H1360 C1370 0.950 . S
H1361 C1372 0.950 . S
H1362 C1374 0.950 . S
H1363 C1375 0.950 . S
C1364 H1356 0.950 . S
C1364 C1365 1.386 . S
C1364 C1366 1.391 . S
C1365 C1364 1.386 . S
C1365 C1369 1.393 . S
C1366 H1358 0.950 . S
C1366 C1364 1.391 . S
C1366 C1367 1.400 . S
C1367 C1366 1.400 . S
C1367 C1368 1.398 . S
C1367 C1373 1.491 . S
C1368 H1359 0.950 . S
C1368 C1367 1.398 . S
C1368 C1369 1.391 . S
C1369 H1357 0.950 . S
C1369 C1365 1.393 . S
C1369 C1368 1.391 . S
C1370 H1360 0.950 . S
C1370 C1371 1.386 . S
C1370 C1372 1.391 . S
C1371 C1370 1.386 . S
C1371 C1375 1.393 . S
C1372 H1361 0.950 . S
C1372 C1370 1.391 . S
C1372 C1373 1.400 . S
C1373 C1367 1.491 . S
C1373 C1372 1.400 . S
C1373 C1374 1.398 . S
C1374 H1362 0.950 . S
C1374 C1373 1.398 . S
C1374 C1375 1.391 . S
C1375 H1363 0.950 . S
C1375 C1371 1.393 . S
C1375 C1374 1.391 . S
H1376 C1384 0.950 . S
H1377 C1389 0.950 . S
H1378 C1386 0.950 . S
H1379 C1388 0.950 . S
H1380 C1390 0.950 . S
H1381 C1392 0.950 . S
H1382 C1394 0.950 . S
H1383 C1395 0.950 . S
C1384 H1376 0.950 . S
C1384 C1385 1.386 . S
C1384 C1386 1.391 . S
C1385 C1384 1.386 . S
C1385 C1389 1.393 . S
C1386 H1378 0.950 . S
C1386 C1384 1.391 . S
C1386 C1387 1.400 . S
C1387 C1386 1.400 . S
C1387 C1388 1.398 . S
C1387 C1393 1.491 . S
C1388 H1379 0.950 . S
C1388 C1387 1.398 . S
C1388 C1389 1.391 . S
C1389 H1377 0.950 . S
C1389 C1385 1.393 . S
C1389 C1388 1.391 . S
C1390 H1380 0.950 . S
C1390 C1391 1.386 . S
C1390 C1392 1.391 . S
C1391 C1390 1.386 . S
C1391 C1395 1.393 . S
C1392 H1381 0.950 . S
C1392 C1390 1.391 . S
C1392 C1393 1.400 . S
C1393 C1387 1.491 . S
C1393 C1392 1.400 . S
C1393 C1394 1.398 . S
C1394 H1382 0.950 . S
C1394 C1393 1.398 . S
C1394 C1395 1.391 . S
C1395 H1383 0.950 . S
C1395 C1391 1.393 . S
C1395 C1394 1.391 . S
H1396 C1404 0.950 . S
H1397 C1409 0.950 . S
H1398 C1406 0.950 1_655 S
H1399 C1408 0.950 . S
H1400 C1410 0.950 . S
H1401 C1412 0.950 1_455 S
H1402 C1414 0.950 . S
H1403 C1415 0.950 . S
C1404 H1396 0.950 . S
C1404 C1405 1.386 . S
C1404 C1406 1.391 . S
C1405 C1404 1.386 . S
C1405 C1409 1.393 1_565 S
C1406 H1398 0.950 1_455 S
C1406 C1404 1.391 . S
C1406 C1407 1.400 . S
C1407 C1406 1.400 . S
C1407 C1408 1.398 1_565 S
C1407 C1413 1.491 1_465 S
C1408 H1399 0.950 . S
C1408 C1407 1.398 1_545 S
C1408 C1409 1.391 . S
C1409 H1397 0.950 . S
C1409 C1405 1.393 1_545 S
C1409 C1408 1.391 . S
C1410 H1400 0.950 . S
C1410 C1411 1.386 . S
C1410 C1412 1.391 . S
C1411 C1410 1.386 . S
C1411 C1415 1.393 1_545 S
C1412 H1401 0.950 1_655 S
C1412 C1410 1.391 . S
C1412 C1413 1.400 . S
C1413 C1407 1.491 1_645 S
C1413 C1412 1.400 . S
C1413 C1414 1.398 1_545 S
C1414 H1402 0.950 . S
C1414 C1413 1.398 1_565 S
C1414 C1415 1.391 . S
C1415 H1403 0.950 . S
C1415 C1411 1.393 1_565 S
C1415 C1414 1.391 . S
H1416 C1424 0.950 . S
H1417 C1429 0.950 . S
H1418 C1426 0.950 . S
H1419 C1428 0.950 . S
H1420 C1430 0.950 . S
H1421 C1432 0.950 . S
H1422 C1434 0.950 . S
H1423 C1435 0.950 . S
C1424 H1416 0.950 . S
C1424 C1425 1.386 . S
C1424 C1426 1.391 . S
C1425 C1424 1.386 . S
C1425 C1429 1.393 . S
C1426 H1418 0.950 . S
C1426 C1424 1.391 . S
C1426 C1427 1.400 . S
C1427 C1426 1.400 . S
C1427 C1428 1.398 . S
C1427 C1433 1.491 . S
C1428 H1419 0.950 . S
C1428 C1427 1.398 . S
C1428 C1429 1.391 . S
C1429 H1417 0.950 . S
C1429 C1425 1.393 . S
C1429 C1428 1.391 . S
C1430 H1420 0.950 . S
C1430 C1431 1.386 . S
C1430 C1432 1.391 . S
C1431 C1430 1.386 . S
C1431 C1435 1.393 . S
C1432 H1421 0.950 . S
C1432 C1430 1.391 . S
C1432 C1433 1.400 . S
C1433 C1427 1.491 . S
C1433 C1432 1.400 . S
C1433 C1434 1.398 . S
C1434 H1422 0.950 . S
C1434 C1433 1.398 . S
C1434 C1435 1.391 . S
C1435 H1423 0.950 . S
C1435 C1431 1.393 . S
C1435 C1434 1.391 . S
H1436 C1444 0.950 . S
H1437 C1449 0.950 . S
H1438 C1446 0.950 . S
H1439 C1448 0.950 1_556 S
H1440 C1450 0.950 . S
H1441 C1452 0.950 . S
H1442 C1454 0.950 1_554 S
H1443 C1455 0.950 . S
C1444 H1436 0.950 . S
C1444 C1445 1.386 . S
C1444 C1446 1.391 . S
C1445 C1444 1.386 . S
C1445 C1449 1.393 . S
C1446 H1438 0.950 . S
C1446 C1444 1.391 . S
C1446 C1447 1.400 . S
C1447 C1446 1.400 . S
C1447 C1448 1.398 1_545 S
C1447 C1453 1.491 1_544 S
C1448 H1439 0.950 1_554 S
C1448 C1447 1.398 1_565 S
C1448 C1449 1.391 1_565 S
C1449 H1437 0.950 . S
C1449 C1445 1.393 . S
C1449 C1448 1.391 1_545 S
C1450 H1440 0.950 . S
C1450 C1451 1.386 . S
C1450 C1452 1.391 . S
C1451 C1450 1.386 . S
C1451 C1455 1.393 . S
C1452 H1441 0.950 . S
C1452 C1450 1.391 . S
C1452 C1453 1.400 . S
C1453 C1447 1.491 1_566 S
C1453 C1452 1.400 . S
C1453 C1454 1.398 1_565 S
C1454 H1442 0.950 1_556 S
C1454 C1453 1.398 1_545 S
C1454 C1455 1.391 1_545 S
C1455 H1443 0.950 . S
C1455 C1451 1.393 . S
C1455 C1454 1.391 1_565 S
H1456 C1464 0.950 . S
H1457 C1469 0.950 . S
H1458 C1466 0.950 . S
H1459 C1468 0.950 . S
H1460 C1470 0.950 . S
H1461 C1472 0.950 . S
H1462 C1474 0.950 . S
H1463 C1475 0.950 . S
C1464 H1456 0.950 . S
C1464 C1465 1.386 . S
C1464 C1466 1.391 . S
C1465 C1464 1.386 . S
C1465 C1469 1.393 . S
C1466 H1458 0.950 . S
C1466 C1464 1.391 . S
C1466 C1467 1.400 . S
C1467 C1466 1.400 . S
C1467 C1468 1.398 . S
C1467 C1473 1.491 . S
C1468 H1459 0.950 . S
C1468 C1467 1.398 . S
C1468 C1469 1.391 . S
C1469 H1457 0.950 . S
C1469 C1465 1.393 . S
C1469 C1468 1.391 . S
C1470 H1460 0.950 . S
C1470 C1471 1.386 . S
C1470 C1472 1.391 . S
C1471 C1470 1.386 . S
C1471 C1475 1.393 . S
C1472 H1461 0.950 . S
C1472 C1470 1.391 . S
C1472 C1473 1.400 . S
C1473 C1467 1.491 . S
C1473 C1472 1.400 . S
C1473 C1474 1.398 . S
C1474 H1462 0.950 . S
C1474 C1473 1.398 . S
C1474 C1475 1.391 . S
C1475 H1463 0.950 . S
C1475 C1471 1.393 . S
C1475 C1474 1.391 . S
H1476 C1484 0.950 . S
H1477 C1489 0.950 . S
H1478 C1486 0.950 1_545 S
H1479 C1488 0.950 . S
H1480 C1490 0.950 . S
H1481 C1492 0.950 1_565 S
H1482 C1494 0.950 . S
H1483 C1495 0.950 . S
C1484 H1476 0.950 . S
C1484 C1485 1.386 . S
C1484 C1486 1.391 . S
C1485 C1484 1.386 . S
C1485 C1489 1.393 . S
C1486 H1478 0.950 1_565 S
C1486 C1484 1.391 . S
C1486 C1487 1.400 . S
C1487 C1486 1.400 . S
C1487 C1488 1.398 . S
C1487 C1493 1.491 1_565 S
C1488 H1479 0.950 . S
C1488 C1487 1.398 . S
C1488 C1489 1.391 . S
C1489 H1477 0.950 . S
C1489 C1485 1.393 . S
C1489 C1488 1.391 . S
C1490 H1480 0.950 . S
C1490 C1491 1.386 . S
C1490 C1492 1.391 . S
C1491 C1490 1.386 . S
C1491 C1495 1.393 . S
C1492 H1481 0.950 1_545 S
C1492 C1490 1.391 . S
C1492 C1493 1.400 . S
C1493 C1487 1.491 1_545 S
C1493 C1492 1.400 . S
C1493 C1494 1.398 . S
C1494 H1482 0.950 . S
C1494 C1493 1.398 . S
C1494 C1495 1.391 . S
C1495 H1483 0.950 . S
C1495 C1491 1.393 . S
C1495 C1494 1.391 . S
H1496 C1504 0.950 . S
H1497 C1509 0.950 . S
H1498 C1506 0.950 . S
H1499 C1508 0.950 . S
H1500 C1510 0.950 . S
H1501 C1512 0.950 . S
H1502 C1514 0.950 . S
H1503 C1515 0.950 . S
C1504 H1496 0.950 . S
C1504 C1505 1.386 . S
C1504 C1506 1.391 . S
C1505 C1504 1.386 . S
C1505 C1509 1.393 . S
C1506 H1498 0.950 . S
C1506 C1504 1.391 . S
C1506 C1507 1.400 . S
C1507 C1506 1.400 . S
C1507 C1508 1.398 . S
C1507 C1513 1.491 . S
C1508 H1499 0.950 . S
C1508 C1507 1.398 . S
C1508 C1509 1.391 . S
C1509 H1497 0.950 . S
C1509 C1505 1.393 . S
C1509 C1508 1.391 . S
C1510 H1500 0.950 . S
C1510 C1511 1.386 . S
C1510 C1512 1.391 . S
C1511 C1510 1.386 . S
C1511 C1515 1.393 . S
C1512 H1501 0.950 . S
C1512 C1510 1.391 . S
C1512 C1513 1.400 . S
C1513 C1507 1.491 . S
C1513 C1512 1.400 . S
C1513 C1514 1.398 . S
C1514 H1502 0.950 . S
C1514 C1513 1.398 . S
C1514 C1515 1.391 . S
C1515 H1503 0.950 . S
C1515 C1511 1.393 . S
C1515 C1514 1.391 . S
H1516 C1524 0.950 . S
H1517 C1529 0.950 . S
H1518 C1526 0.950 . S
H1519 C1528 0.974 . S
H1520 C1530 0.950 . S
H1521 C1532 0.950 . S
H1522 C1534 0.974 . S
H1523 C1535 0.950 . S
C1524 H1516 0.950 . S
C1524 C1525 1.386 1_565 S
C1524 C1526 1.391 . S
C1525 C1524 1.386 1_545 S
C1525 C1529 1.393 . S
C1526 H1518 0.950 . S
C1526 C1524 1.391 . S
C1526 C1527 1.400 1_565 S
C1527 C1526 1.400 1_545 S
C1527 C1528 1.398 . S
C1527 C1533 1.491 1_446 S
C1528 H1519 0.974 . S
C1528 C1527 1.398 . S
C1528 C1529 1.391 . S
C1529 H1517 0.950 . S
C1529 C1525 1.393 . S
C1529 C1528 1.391 . S
C1530 H1520 0.950 . S
C1530 C1531 1.386 1_545 S
C1530 C1532 1.391 . S
C1531 C1530 1.386 1_565 S
C1531 C1535 1.393 . S
C1532 H1521 0.950 . S
C1532 C1530 1.391 . S
C1532 C1533 1.400 1_545 S
C1533 C1527 1.491 1_664 S
C1533 C1532 1.400 1_565 S
C1533 C1534 1.398 . S
C1534 H1522 0.974 . S
C1534 C1533 1.398 . S
C1534 C1535 1.391 . S
C1535 H1523 0.950 . S
C1535 C1531 1.393 . S
C1535 C1534 1.391 . S
H1536 C1544 0.950 . S
H1537 C1549 0.950 . S
H1538 C1546 0.950 . S
H1539 C1548 0.950 . S
H1540 C1550 0.950 . S
H1541 C1552 0.950 . S
H1542 C1554 0.950 . S
H1543 C1555 0.950 . S
C1544 H1536 0.950 . S
C1544 C1545 1.386 . S
C1544 C1546 1.391 . S
C1545 C1544 1.386 . S
C1545 C1549 1.393 . S
C1546 H1538 0.950 . S
C1546 C1544 1.391 . S
C1546 C1547 1.400 . S
C1547 C1546 1.400 . S
C1547 C1548 1.398 . S
C1547 C1553 1.491 . S
C1548 H1539 0.950 . S
C1548 C1547 1.398 . S
C1548 C1549 1.391 . S
C1549 H1537 0.950 . S
C1549 C1545 1.393 . S
C1549 C1548 1.391 . S
C1550 H1540 0.950 . S
C1550 C1551 1.386 . S
C1550 C1552 1.391 . S
C1551 C1550 1.386 . S
C1551 C1555 1.393 . S
C1552 H1541 0.950 . S
C1552 C1550 1.391 . S
C1552 C1553 1.400 . S
C1553 C1547 1.491 . S
C1553 C1552 1.400 . S
C1553 C1554 1.398 . S
C1554 H1542 0.950 . S
C1554 C1553 1.398 . S
C1554 C1555 1.391 . S
C1555 H1543 0.950 . S
C1555 C1551 1.393 . S
C1555 C1554 1.391 . S
H1556 C1564 0.950 . S
H1557 C1569 0.950 . S
H1558 C1566 0.950 . S
H1559 C1568 0.950 . S
H1560 C1570 0.950 . S
H1561 C1572 0.950 . S
H1562 C1574 0.950 . S
H1563 C1575 0.950 . S
C1564 H1556 0.950 . S
C1564 C1565 1.386 . S
C1564 C1566 1.391 . S
C1565 C1564 1.386 . S
C1565 C1569 1.393 . S
C1566 H1558 0.950 . S
C1566 C1564 1.391 . S
C1566 C1567 1.400 . S
C1567 C1566 1.400 . S
C1567 C1568 1.398 . S
C1567 C1573 1.491 . S
C1568 H1559 0.950 . S
C1568 C1567 1.398 . S
C1568 C1569 1.391 . S
C1569 H1557 0.950 . S
C1569 C1565 1.393 . S
C1569 C1568 1.391 . S
C1570 H1560 0.950 . S
C1570 C1571 1.386 . S
C1570 C1572 1.391 . S
C1571 C1570 1.386 . S
C1571 C1575 1.393 . S
C1572 H1561 0.950 . S
C1572 C1570 1.391 . S
C1572 C1573 1.400 . S
C1573 C1567 1.491 . S
C1573 C1572 1.400 . S
C1573 C1574 1.398 . S
C1574 H1562 0.950 . S
C1574 C1573 1.398 . S
C1574 C1575 1.391 . S
C1575 H1563 0.950 . S
C1575 C1571 1.393 . S
C1575 C1574 1.391 . S
H1576 C1584 0.950 . S
H1577 C1589 0.950 . S
H1578 C1586 0.950 . S
H1579 C1588 0.950 . S
H1580 C1590 0.950 . S
H1581 C1592 0.950 . S
H1582 C1594 0.950 . S
H1583 C1595 0.950 . S
C1584 H1576 0.950 . S
C1584 C1585 1.386 . S
C1584 C1586 1.391 . S
C1585 C1584 1.386 . S
C1585 C1589 1.393 . S
C1586 H1578 0.950 . S
C1586 C1584 1.391 . S
C1586 C1587 1.400 . S
C1587 C1586 1.400 . S
C1587 C1588 1.398 . S
C1587 C1593 1.491 . S
C1588 H1579 0.950 . S
C1588 C1587 1.398 . S
C1588 C1589 1.391 . S
C1589 H1577 0.950 . S
C1589 C1585 1.393 . S
C1589 C1588 1.391 . S
C1590 H1580 0.950 . S
C1590 C1591 1.386 . S
C1590 C1592 1.391 . S
C1591 C1590 1.386 . S
C1591 C1595 1.393 . S
C1592 H1581 0.950 . S
C1592 C1590 1.391 . S
C1592 C1593 1.400 . S
C1593 C1587 1.491 . S
C1593 C1592 1.400 . S
C1593 C1594 1.398 . S
C1594 H1582 0.950 . S
C1594 C1593 1.398 . S
C1594 C1595 1.391 . S
C1595 H1583 0.950 . S
C1595 C1591 1.393 . S
C1595 C1594 1.391 . S
H1596 C1604 0.950 . S
H1597 C1609 0.950 . S
H1598 C1606 0.950 . S
H1599 C1608 0.950 . S
H1600 C1610 0.950 . S
H1601 C1612 0.950 . S
H1602 C1614 0.950 . S
H1603 C1615 0.950 . S
C1604 H1596 0.950 . S
C1604 C1605 1.386 . S
C1604 C1606 1.391 . S
C1605 C1604 1.386 . S
C1605 C1609 1.393 . S
C1606 H1598 0.950 . S
C1606 C1604 1.391 . S
C1606 C1607 1.400 . S
C1607 C1606 1.400 . S
C1607 C1608 1.398 . S
C1607 C1613 1.491 . S
C1608 H1599 0.950 . S
C1608 C1607 1.398 . S
C1608 C1609 1.391 . S
C1609 H1597 0.950 . S
C1609 C1605 1.393 . S
C1609 C1608 1.391 . S
C1610 H1600 0.950 . S
C1610 C1611 1.386 . S
C1610 C1612 1.391 . S
C1611 C1610 1.386 . S
C1611 C1615 1.393 . S
C1612 H1601 0.950 . S
C1612 C1610 1.391 . S
C1612 C1613 1.400 . S
C1613 C1607 1.491 . S
C1613 C1612 1.400 . S
C1613 C1614 1.398 . S
C1614 H1602 0.950 . S
C1614 C1613 1.398 . S
C1614 C1615 1.391 . S
C1615 H1603 0.950 . S
C1615 C1611 1.393 . S
C1615 C1614 1.391 . S
H1616 C1624 0.950 . S
H1617 C1629 0.950 . S
H1618 C1626 0.950 . S
H1619 C1628 0.950 1_556 S
H1620 C1630 0.950 . S
H1621 C1632 0.950 . S
H1622 C1634 0.950 1_554 S
H1623 C1635 0.950 . S
C1624 H1616 0.950 . S
C1624 C1625 1.386 . S
C1624 C1626 1.391 . S
C1625 C1624 1.386 . S
C1625 C1629 1.393 . S
C1626 H1618 0.950 . S
C1626 C1624 1.391 . S
C1626 C1627 1.400 . S
C1627 C1626 1.400 . S
C1627 C1628 1.398 . S
C1627 C1633 1.491 1_554 S
C1628 H1619 0.950 1_554 S
C1628 C1627 1.398 . S
C1628 C1629 1.391 . S
C1629 H1617 0.950 . S
C1629 C1625 1.393 . S
C1629 C1628 1.391 . S
C1630 H1620 0.950 . S
C1630 C1631 1.386 . S
C1630 C1632 1.391 . S
C1631 C1630 1.386 . S
C1631 C1635 1.393 . S
C1632 H1621 0.950 . S
C1632 C1630 1.391 . S
C1632 C1633 1.400 . S
C1633 C1627 1.491 1_556 S
C1633 C1632 1.400 . S
C1633 C1634 1.398 . S
C1634 H1622 0.950 1_556 S
C1634 C1633 1.398 . S
C1634 C1635 1.391 . S
C1635 H1623 0.950 . S
C1635 C1631 1.393 . S
C1635 C1634 1.391 . S
H1636 C1644 0.950 . S
H1637 C1649 0.950 . S
H1638 C1646 0.950 1_655 S
H1639 C1648 0.950 . S
H1640 C1650 0.950 . S
H1641 C1652 0.950 1_455 S
H1642 C1654 0.950 . S
H1643 C1655 0.950 . S
C1644 H1636 0.950 . S
C1644 C1645 1.386 . S
C1644 C1646 1.391 . S
C1645 C1644 1.386 . S
C1645 C1649 1.393 . S
C1646 H1638 0.950 1_455 S
C1646 C1644 1.391 . S
C1646 C1647 1.400 . S
C1647 C1646 1.400 . S
C1647 C1648 1.398 . S
C1647 C1653 1.491 1_455 S
C1648 H1639 0.950 . S
C1648 C1647 1.398 . S
C1648 C1649 1.391 . S
C1649 H1637 0.950 . S
C1649 C1645 1.393 . S
C1649 C1648 1.391 . S
C1650 H1640 0.950 . S
C1650 C1651 1.386 . S
C1650 C1652 1.391 . S
C1651 C1650 1.386 . S
C1651 C1655 1.393 . S
C1652 H1641 0.950 1_655 S
C1652 C1650 1.391 . S
C1652 C1653 1.400 . S
C1653 C1647 1.491 1_655 S
C1653 C1652 1.400 . S
C1653 C1654 1.398 . S
C1654 H1642 0.950 . S
C1654 C1653 1.398 . S
C1654 C1655 1.391 . S
C1655 H1643 0.950 . S
C1655 C1651 1.393 . S
C1655 C1654 1.391 . S
H1656 C1664 0.950 . S
H1657 C1669 0.950 . S
H1658 C1666 0.950 1_655 S
H1659 C1668 0.950 1_556 S
H1660 C1670 0.950 . S
H1661 C1672 0.950 1_455 S
H1662 C1674 0.950 1_554 S
H1663 C1675 0.950 . S
C1664 H1656 0.950 . S
C1664 C1665 1.386 . S
C1664 C1666 1.391 . S
C1665 C1664 1.386 . S
C1665 C1669 1.393 . S
C1666 H1658 0.950 1_455 S
C1666 C1664 1.391 . S
C1666 C1667 1.400 . S
C1667 C1666 1.400 . S
C1667 C1668 1.398 . S
C1667 C1673 1.491 1_454 S
C1668 H1659 0.950 1_554 S
C1668 C1667 1.398 . S
C1668 C1669 1.391 . S
C1669 H1657 0.950 . S
C1669 C1665 1.393 . S
C1669 C1668 1.391 . S
C1670 H1660 0.950 . S
C1670 C1671 1.386 . S
C1670 C1672 1.391 . S
C1671 C1670 1.386 . S
C1671 C1675 1.393 . S
C1672 H1661 0.950 1_655 S
C1672 C1670 1.391 . S
C1672 C1673 1.400 . S
C1673 C1667 1.491 1_656 S
C1673 C1672 1.400 . S
C1673 C1674 1.398 . S
C1674 H1662 0.950 1_556 S
C1674 C1673 1.398 . S
C1674 C1675 1.391 . S
C1675 H1663 0.950 . S
C1675 C1671 1.393 . S
C1675 C1674 1.391 . S
H1676 C1684 0.950 . S
H1677 C1689 0.950 . S
H1678 C1686 0.950 . S
H1679 C1688 0.950 . S
H1680 C1690 0.950 . S
H1681 C1692 0.950 . S
H1682 C1694 0.950 . S
H1683 C1695 0.950 . S
C1684 H1676 0.950 . S
C1684 C1685 1.386 . S
C1684 C1686 1.391 . S
C1685 C1684 1.386 . S
C1685 C1689 1.393 . S
C1686 H1678 0.950 . S
C1686 C1684 1.391 . S
C1686 C1687 1.400 . S
C1687 C1686 1.400 . S
C1687 C1688 1.398 . S
C1687 C1693 1.491 . S
C1688 H1679 0.950 . S
C1688 C1687 1.398 . S
C1688 C1689 1.391 . S
C1689 H1677 0.950 . S
C1689 C1685 1.393 . S
C1689 C1688 1.391 . S
C1690 H1680 0.950 . S
C1690 C1691 1.386 . S
C1690 C1692 1.391 . S
C1691 C1690 1.386 . S
C1691 C1695 1.393 . S
C1692 H1681 0.950 . S
C1692 C1690 1.391 . S
C1692 C1693 1.400 . S
C1693 C1687 1.491 . S
C1693 C1692 1.400 . S
C1693 C1694 1.398 . S
C1694 H1682 0.950 . S
C1694 C1693 1.398 . S
C1694 C1695 1.391 . S
C1695 H1683 0.950 . S
C1695 C1691 1.393 . S
C1695 C1694 1.391 . S
H1696 C1704 0.950 . S
H1697 C1709 0.950 . S
H1698 C1706 0.950 . S
H1699 C1708 0.950 . S
H1700 C1710 0.950 . S
H1701 C1712 0.950 . S
H1702 C1714 0.950 . S
H1703 C1715 0.950 . S
C1704 H1696 0.950 . S
C1704 C1705 1.386 . S
C1704 C1706 1.391 . S
C1705 C1704 1.386 . S
C1705 C1709 1.393 . S
C1706 H1698 0.950 . S
C1706 C1704 1.391 . S
C1706 C1707 1.400 . S
C1707 C1706 1.400 . S
C1707 C1708 1.398 1_545 S
C1707 C1713 1.491 1_545 S
C1708 H1699 0.950 . S
C1708 C1707 1.398 1_565 S
C1708 C1709 1.391 1_565 S
C1709 H1697 0.950 . S
C1709 C1705 1.393 . S
C1709 C1708 1.391 1_545 S
C1710 H1700 0.950 . S
C1710 C1711 1.386 . S
C1710 C1712 1.391 . S
C1711 C1710 1.386 . S
C1711 C1715 1.393 . S
C1712 H1701 0.950 . S
C1712 C1710 1.391 . S
C1712 C1713 1.400 . S
C1713 C1707 1.491 1_565 S
C1713 C1712 1.400 . S
C1713 C1714 1.398 1_565 S
C1714 H1702 0.950 . S
C1714 C1713 1.398 1_545 S
C1714 C1715 1.391 1_545 S
C1715 H1703 0.950 . S
C1715 C1711 1.393 . S
C1715 C1714 1.391 1_565 S
H1716 C1724 0.950 . S
H1717 C1729 0.950 . S
H1718 C1726 0.950 . S
H1719 C1728 0.950 . S
H1720 C1730 0.950 . S
H1721 C1732 0.950 . S
H1722 C1734 0.950 . S
H1723 C1735 0.950 . S
C1724 H1716 0.950 . S
C1724 C1725 1.386 . S
C1724 C1726 1.391 . S
C1725 C1724 1.386 . S
C1725 C1729 1.393 . S
C1726 H1718 0.950 . S
C1726 C1724 1.391 . S
C1726 C1727 1.400 . S
C1727 C1726 1.400 . S
C1727 C1728 1.398 . S
C1727 C1733 1.491 . S
C1728 H1719 0.950 . S
C1728 C1727 1.398 . S
C1728 C1729 1.391 . S
C1729 H1717 0.950 . S
C1729 C1725 1.393 . S
C1729 C1728 1.391 . S
C1730 H1720 0.950 . S
C1730 C1731 1.386 . S
C1730 C1732 1.391 . S
C1731 C1730 1.386 . S
C1731 C1735 1.393 . S
C1732 H1721 0.950 . S
C1732 C1730 1.391 . S
C1732 C1733 1.400 . S
C1733 C1727 1.491 . S
C1733 C1732 1.400 . S
C1733 C1734 1.398 . S
C1734 H1722 0.950 . S
C1734 C1733 1.398 . S
C1734 C1735 1.391 . S
C1735 H1723 0.950 . S
C1735 C1731 1.393 . S
C1735 C1734 1.391 . S
H1736 C1744 0.950 . S
H1737 C1749 0.950 . S
H1738 C1746 0.950 . S
H1739 C1748 0.950 . S
H1740 C1750 0.950 . S
H1741 C1752 0.950 . S
H1742 C1754 0.950 . S
H1743 C1755 0.950 . S
C1744 H1736 0.950 . S
C1744 C1745 1.386 . S
C1744 C1746 1.391 1_545 S
C1745 C1744 1.386 . S
C1745 C1749 1.393 . S
C1746 H1738 0.950 . S
C1746 C1744 1.391 1_565 S
C1746 C1747 1.400 1_565 S
C1747 C1746 1.400 1_545 S
C1747 C1748 1.398 . S
C1747 C1753 1.491 1_545 S
C1748 H1739 0.950 . S
C1748 C1747 1.398 . S
C1748 C1749 1.391 . S
C1749 H1737 0.950 . S
C1749 C1745 1.393 . S
C1749 C1748 1.391 . S
C1750 H1740 0.950 . S
C1750 C1751 1.386 . S
C1750 C1752 1.391 1_565 S
C1751 C1750 1.386 . S
C1751 C1755 1.393 . S
C1752 H1741 0.950 . S
C1752 C1750 1.391 1_545 S
C1752 C1753 1.400 1_545 S
C1753 C1747 1.491 1_565 S
C1753 C1752 1.400 1_565 S
C1753 C1754 1.398 . S
C1754 H1742 0.950 . S
C1754 C1753 1.398 . S
C1754 C1755 1.391 . S
C1755 H1743 0.950 . S
C1755 C1751 1.393 . S
C1755 C1754 1.391 . S
H1756 C1764 0.950 . S
H1757 C1769 0.950 . S
H1758 C1766 0.950 . S
H1759 C1768 0.950 1_556 S
H1760 C1770 0.950 . S
H1761 C1772 0.950 . S
H1762 C1774 0.950 1_554 S
H1763 C1775 0.950 . S
C1764 H1756 0.950 . S
C1764 C1765 1.386 . S
C1764 C1766 1.391 . S
C1765 C1764 1.386 . S
C1765 C1769 1.393 . S
C1766 H1758 0.950 . S
C1766 C1764 1.391 . S
C1766 C1767 1.400 . S
C1767 C1766 1.400 . S
C1767 C1768 1.398 . S
C1767 C1773 1.491 1_554 S
C1768 H1759 0.950 1_554 S
C1768 C1767 1.398 . S
C1768 C1769 1.391 . S
C1769 H1757 0.950 . S
C1769 C1765 1.393 . S
C1769 C1768 1.391 . S
C1770 H1760 0.950 . S
C1770 C1771 1.386 . S
C1770 C1772 1.391 . S
C1771 C1770 1.386 . S
C1771 C1775 1.393 . S
C1772 H1761 0.950 . S
C1772 C1770 1.391 . S
C1772 C1773 1.400 . S
C1773 C1767 1.491 1_556 S
C1773 C1772 1.400 . S
C1773 C1774 1.398 . S
C1774 H1762 0.950 1_556 S
C1774 C1773 1.398 . S
C1774 C1775 1.391 . S
C1775 H1763 0.950 . S
C1775 C1771 1.393 . S
C1775 C1774 1.391 . S
H1776 C1784 0.950 . S
H1777 C1789 0.950 . S
H1778 C1786 0.950 . S
H1779 C1788 0.950 1_565 S
H1780 C1790 0.950 . S
H1781 C1792 0.950 . S
H1782 C1794 0.950 1_545 S
H1783 C1795 0.950 . S
C1784 H1776 0.950 . S
C1784 C1785 1.386 . S
C1784 C1786 1.391 . S
C1785 C1784 1.386 . S
C1785 C1789 1.393 . S
C1786 H1778 0.950 . S
C1786 C1784 1.391 . S
C1786 C1787 1.400 . S
C1787 C1786 1.400 . S
C1787 C1788 1.398 . S
C1787 C1793 1.491 1_545 S
C1788 H1779 0.950 1_545 S
C1788 C1787 1.398 . S
C1788 C1789 1.391 . S
C1789 H1777 0.950 . S
C1789 C1785 1.393 . S
C1789 C1788 1.391 . S
C1790 H1780 0.950 . S
C1790 C1791 1.386 . S
C1790 C1792 1.391 . S
C1791 C1790 1.386 . S
C1791 C1795 1.393 . S
C1792 H1781 0.950 . S
C1792 C1790 1.391 . S
C1792 C1793 1.400 . S
C1793 C1787 1.491 1_565 S
C1793 C1792 1.400 . S
C1793 C1794 1.398 . S
C1794 H1782 0.950 1_565 S
C1794 C1793 1.398 . S
C1794 C1795 1.391 . S
C1795 H1783 0.950 . S
C1795 C1791 1.393 . S
C1795 C1794 1.391 . S
H1796 C1804 0.950 . S
H1797 C1809 0.950 . S
H1798 C1806 0.950 . S
H1799 C1808 0.950 . S
H1800 C1810 0.950 . S
H1801 C1812 0.950 . S
H1802 C1814 0.950 . S
H1803 C1815 0.950 . S
C1804 H1796 0.950 . S
C1804 C1805 1.386 . S
C1804 C1806 1.391 . S
C1805 C1804 1.386 . S
C1805 C1809 1.393 . S
C1806 H1798 0.950 . S
C1806 C1804 1.391 . S
C1806 C1807 1.400 . S
C1807 C1806 1.400 . S
C1807 C1808 1.398 . S
C1807 C1813 1.491 . S
C1808 H1799 0.950 . S
C1808 C1807 1.398 . S
C1808 C1809 1.391 . S
C1809 H1797 0.950 . S
C1809 C1805 1.393 . S
C1809 C1808 1.391 . S
C1810 H1800 0.950 . S
C1810 C1811 1.386 . S
C1810 C1812 1.391 . S
C1811 C1810 1.386 . S
C1811 C1815 1.393 . S
C1812 H1801 0.950 . S
C1812 C1810 1.391 . S
C1812 C1813 1.400 . S
C1813 C1807 1.491 . S
C1813 C1812 1.400 . S
C1813 C1814 1.398 . S
C1814 H1802 0.950 . S
C1814 C1813 1.398 . S
C1814 C1815 1.391 . S
C1815 H1803 0.950 . S
C1815 C1811 1.393 . S
C1815 C1814 1.391 . S
H1816 C1824 0.950 . S
H1817 C1829 0.950 . S
H1818 C1826 0.950 . S
H1819 C1828 0.950 . S
H1820 C1830 0.950 . S
H1821 C1832 0.950 . S
H1822 C1834 0.950 . S
H1823 C1835 0.950 . S
C1824 H1816 0.950 . S
C1824 C1825 1.386 . S
C1824 C1826 1.391 1_545 S
C1825 C1824 1.386 . S
C1825 C1829 1.393 . S
C1826 H1818 0.950 . S
C1826 C1824 1.391 1_565 S
C1826 C1827 1.400 1_565 S
C1827 C1826 1.400 1_545 S
C1827 C1828 1.398 . S
C1827 C1833 1.491 1_545 S
C1828 H1819 0.950 . S
C1828 C1827 1.398 . S
C1828 C1829 1.391 . S
C1829 H1817 0.950 . S
C1829 C1825 1.393 . S
C1829 C1828 1.391 . S
C1830 H1820 0.950 . S
C1830 C1831 1.386 . S
C1830 C1832 1.391 1_565 S
C1831 C1830 1.386 . S
C1831 C1835 1.393 . S
C1832 H1821 0.950 . S
C1832 C1830 1.391 1_545 S
C1832 C1833 1.400 1_545 S
C1833 C1827 1.491 1_565 S
C1833 C1832 1.400 1_565 S
C1833 C1834 1.398 . S
C1834 H1822 0.950 . S
C1834 C1833 1.398 . S
C1834 C1835 1.391 . S
C1835 H1823 0.950 . S
C1835 C1831 1.393 . S
C1835 C1834 1.391 . S
H1836 C1844 0.950 . S
H1837 C1849 0.950 . S
H1838 C1846 0.929 1_554 S
H1839 C1848 0.950 . S
H1840 C1850 0.950 . S
H1841 C1852 0.930 1_556 S
H1842 C1854 0.950 . S
H1843 C1855 0.950 . S
C1844 H1836 0.950 . S
C1844 C1845 1.386 . S
C1844 C1846 1.391 . S
C1845 C1844 1.386 . S
C1845 C1849 1.393 . S
C1846 H1838 0.929 1_556 S
C1846 C1844 1.391 . S
C1846 C1847 1.400 . S
C1847 C1846 1.400 . S
C1847 C1848 1.398 . S
C1847 C1853 1.491 1_556 S
C1848 H1839 0.950 . S
C1848 C1847 1.398 . S
C1848 C1849 1.391 . S
C1849 H1837 0.950 . S
C1849 C1845 1.393 . S
C1849 C1848 1.391 . S
C1850 H1840 0.950 . S
C1850 C1851 1.386 . S
C1850 C1852 1.391 . S
C1851 C1850 1.386 . S
C1851 C1855 1.393 . S
C1852 H1841 0.930 1_554 S
C1852 C1850 1.391 . S
C1852 C1853 1.400 . S
C1853 C1847 1.491 1_554 S
C1853 C1852 1.400 . S
C1853 C1854 1.398 . S
C1854 H1842 0.950 . S
C1854 C1853 1.398 . S
C1854 C1855 1.391 . S
C1855 H1843 0.950 . S
C1855 C1851 1.393 . S
C1855 C1854 1.391 . S
H1856 C1864 0.950 . S
H1857 C1869 0.950 . S
H1858 C1866 0.950 . S
H1859 C1868 0.950 . S
H1860 C1870 0.950 . S
H1861 C1872 0.950 . S
H1862 C1874 0.950 . S
H1863 C1875 0.950 . S
C1864 H1856 0.950 . S
C1864 C1865 1.386 . S
C1864 C1866 1.391 . S
C1865 C1864 1.386 . S
C1865 C1869 1.393 . S
C1866 H1858 0.950 . S
C1866 C1864 1.391 . S
C1866 C1867 1.400 . S
C1867 C1866 1.400 . S
C1867 C1868 1.398 . S
C1867 C1873 1.491 . S
C1868 H1859 0.950 . S
C1868 C1867 1.398 . S
C1868 C1869 1.391 . S
C1869 H1857 0.950 . S
C1869 C1865 1.393 . S
C1869 C1868 1.391 . S
C1870 H1860 0.950 . S
C1870 C1871 1.386 . S
C1870 C1872 1.391 . S
C1871 C1870 1.386 . S
C1871 C1875 1.393 . S
C1872 H1861 0.950 . S
C1872 C1870 1.391 . S
C1872 C1873 1.400 . S
C1873 C1867 1.491 . S
C1873 C1872 1.400 . S
C1873 C1874 1.398 . S
C1874 H1862 0.950 . S
C1874 C1873 1.398 . S
C1874 C1875 1.391 . S
C1875 H1863 0.950 . S
C1875 C1871 1.393 . S
C1875 C1874 1.391 . S
H1876 C1884 0.950 . S
H1877 C1889 0.950 . S
H1878 C1886 0.950 1_554 S
H1879 C1888 0.950 . S
H1880 C1890 0.950 . S
H1881 C1892 0.950 1_556 S
H1882 C1894 0.950 . S
H1883 C1895 0.950 . S
C1884 H1876 0.950 . S
C1884 C1885 1.386 . S
C1884 C1886 1.391 . S
C1885 C1884 1.386 . S
C1885 C1889 1.393 . S
C1886 H1878 0.950 1_556 S
C1886 C1884 1.391 . S
C1886 C1887 1.400 . S
C1887 C1886 1.400 . S
C1887 C1888 1.398 . S
C1887 C1893 1.491 1_556 S
C1888 H1879 0.950 . S
C1888 C1887 1.398 . S
C1888 C1889 1.391 . S
C1889 H1877 0.950 . S
C1889 C1885 1.393 . S
C1889 C1888 1.391 . S
C1890 H1880 0.950 . S
C1890 C1891 1.386 . S
C1890 C1892 1.391 . S
C1891 C1890 1.386 . S
C1891 C1895 1.393 . S
C1892 H1881 0.950 1_554 S
C1892 C1890 1.391 . S
C1892 C1893 1.400 . S
C1893 C1887 1.491 1_554 S
C1893 C1892 1.400 . S
C1893 C1894 1.398 . S
C1894 H1882 0.950 . S
C1894 C1893 1.398 . S
C1894 C1895 1.391 . S
C1895 H1883 0.950 . S
C1895 C1891 1.393 . S
C1895 C1894 1.391 . S
H1896 C1904 0.950 . S
H1897 C1909 0.950 . S
H1898 C1906 0.950 . S
H1899 C1908 0.950 . S
H1900 C1910 0.950 . S
H1901 C1912 0.950 . S
H1902 C1914 0.950 . S
H1903 C1915 0.950 . S
C1904 H1896 0.950 . S
C1904 C1905 1.386 . S
C1904 C1906 1.391 . S
C1905 C1904 1.386 . S
C1905 C1909 1.393 . S
C1906 H1898 0.950 . S
C1906 C1904 1.391 . S
C1906 C1907 1.400 . S
C1907 C1906 1.400 . S
C1907 C1908 1.398 . S
C1907 C1913 1.491 . S
C1908 H1899 0.950 . S
C1908 C1907 1.398 . S
C1908 C1909 1.391 . S
C1909 H1897 0.950 . S
C1909 C1905 1.393 . S
C1909 C1908 1.391 . S
C1910 H1900 0.950 . S
C1910 C1911 1.386 . S
C1910 C1912 1.391 . S
C1911 C1910 1.386 . S
C1911 C1915 1.393 . S
C1912 H1901 0.950 . S
C1912 C1910 1.391 . S
C1912 C1913 1.400 . S
C1913 C1907 1.491 . S
C1913 C1912 1.400 . S
C1913 C1914 1.398 . S
C1914 H1902 0.950 . S
C1914 C1913 1.398 . S
C1914 C1915 1.391 . S
C1915 H1903 0.950 . S
C1915 C1911 1.393 . S
C1915 C1914 1.391 . S
H1916 C1924 0.950 . S
H1917 C1929 0.950 . S
H1918 C1926 0.950 . S
H1919 C1928 0.950 . S
H1920 C1930 0.950 . S
H1921 C1932 0.950 . S
H1922 C1934 0.950 . S
H1923 C1935 0.950 . S
C1924 H1916 0.950 . S
C1924 C1925 1.386 . S
C1924 C1926 1.391 . S
C1925 C1924 1.386 . S
C1925 C1929 1.393 . S
C1926 H1918 0.950 . S
C1926 C1924 1.391 . S
C1926 C1927 1.400 . S
C1927 C1926 1.400 . S
C1927 C1928 1.398 . S
C1927 C1933 1.491 . S
C1928 H1919 0.950 . S
C1928 C1927 1.398 . S
C1928 C1929 1.391 . S
C1929 H1917 0.950 . S
C1929 C1925 1.393 . S
C1929 C1928 1.391 . S
C1930 H1920 0.950 . S
C1930 C1931 1.386 . S
C1930 C1932 1.391 . S
C1931 C1930 1.386 . S
C1931 C1935 1.393 . S
C1932 H1921 0.950 . S
C1932 C1930 1.391 . S
C1932 C1933 1.400 . S
C1933 C1927 1.491 . S
C1933 C1932 1.400 . S
C1933 C1934 1.398 . S
C1934 H1922 0.950 . S
C1934 C1933 1.398 . S
C1934 C1935 1.391 . S
C1935 H1923 0.950 . S
C1935 C1931 1.393 . S
C1935 C1934 1.391 . S
H1936 C1944 0.950 . S
H1937 C1949 0.950 . S
H1938 C1946 0.950 . S
H1939 C1948 0.950 . S
H1940 C1950 0.950 . S
H1941 C1952 0.950 . S
H1942 C1954 0.950 . S
H1943 C1955 0.950 . S
C1944 H1936 0.950 . S
C1944 C1945 1.386 . S
C1944 C1946 1.391 . S
C1945 C1944 1.386 . S
C1945 C1949 1.393 . S
C1946 H1938 0.950 . S
C1946 C1944 1.391 . S
C1946 C1947 1.400 . S
C1947 C1946 1.400 . S
C1947 C1948 1.398 . S
C1947 C1953 1.491 . S
C1948 H1939 0.950 . S
C1948 C1947 1.398 . S
C1948 C1949 1.391 . S
C1949 H1937 0.950 . S
C1949 C1945 1.393 . S
C1949 C1948 1.391 . S
C1950 H1940 0.950 . S
C1950 C1951 1.386 . S
C1950 C1952 1.391 . S
C1951 C1950 1.386 . S
C1951 C1955 1.393 . S
C1952 H1941 0.950 . S
C1952 C1950 1.391 . S
C1952 C1953 1.400 . S
C1953 C1947 1.491 . S
C1953 C1952 1.400 . S
C1953 C1954 1.398 . S
C1954 H1942 0.950 . S
C1954 C1953 1.398 . S
C1954 C1955 1.391 . S
C1955 H1943 0.950 . S
C1955 C1951 1.393 . S
C1955 C1954 1.391 . S
H1956 C1964 0.950 . S
H1957 C1969 0.950 . S
H1958 C1966 0.973 . S
H1959 C1968 0.950 . S
H1960 C1970 0.950 . S
H1961 C1972 0.972 . S
H1962 C1974 0.950 . S
H1963 C1975 0.950 . S
C1964 H1956 0.950 . S
C1964 C1965 1.386 . S
C1964 C1966 1.391 . S
C1965 C1964 1.386 . S
C1965 C1969 1.393 . S
C1966 H1958 0.973 . S
C1966 C1964 1.391 . S
C1966 C1967 1.400 . S
C1967 C1966 1.400 . S
C1967 C1968 1.398 . S
C1967 C1973 1.491 1_556 S
C1968 H1959 0.950 . S
C1968 C1967 1.398 . S
C1968 C1969 1.391 . S
C1969 H1957 0.950 . S
C1969 C1965 1.393 . S
C1969 C1968 1.391 . S
C1970 H1960 0.950 . S
C1970 C1971 1.386 . S
C1970 C1972 1.391 . S
C1971 C1970 1.386 . S
C1971 C1975 1.393 . S
C1972 H1961 0.972 . S
C1972 C1970 1.391 . S
C1972 C1973 1.400 . S
C1973 C1967 1.491 1_554 S
C1973 C1972 1.400 . S
C1973 C1974 1.398 . S
C1974 H1962 0.950 . S
C1974 C1973 1.398 . S
C1974 C1975 1.391 . S
C1975 H1963 0.950 . S
C1975 C1971 1.393 . S
C1975 C1974 1.391 . S
H1976 C1984 0.950 . S
H1977 C1989 0.950 . S
H1978 C1986 0.950 . S
H1979 C1988 0.950 . S
H1980 C1990 0.950 . S
H1981 C1992 0.950 . S
H1982 C1994 0.950 . S
H1983 C1995 0.950 . S
C1984 H1976 0.950 . S
C1984 C1985 1.386 . S
C1984 C1986 1.391 . S
C1985 C1984 1.386 . S
C1985 C1989 1.393 . S
C1986 H1978 0.950 . S
C1986 C1984 1.391 . S
C1986 C1987 1.400 . S
C1987 C1986 1.400 . S
C1987 C1988 1.398 . S
C1987 C1993 1.491 . S
C1988 H1979 0.950 . S
C1988 C1987 1.398 . S
C1988 C1989 1.391 . S
C1989 H1977 0.950 . S
C1989 C1985 1.393 . S
C1989 C1988 1.391 . S
C1990 H1980 0.950 . S
C1990 C1991 1.386 . S
C1990 C1992 1.391 . S
C1991 C1990 1.386 . S
C1991 C1995 1.393 . S
C1992 H1981 0.950 . S
C1992 C1990 1.391 . S
C1992 C1993 1.400 . S
C1993 C1987 1.491 . S
C1993 C1992 1.400 . S
C1993 C1994 1.398 . S
C1994 H1982 0.950 . S
C1994 C1993 1.398 . S
C1994 C1995 1.391 . S
C1995 H1983 0.950 . S
C1995 C1991 1.393 . S
C1995 C1994 1.391 . S
H1996 C2004 0.950 . S
H1997 C2009 0.950 . S
H1998 C2006 0.950 . S
H1999 C2008 0.950 . S
H2000 C2010 0.950 . S
H2001 C2012 0.950 . S
H2002 C2014 0.950 . S
H2003 C2015 0.950 . S
C2004 H1996 0.950 . S
C2004 C2005 1.386 . S
C2004 C2006 1.391 . S
C2005 C2004 1.386 . S
C2005 C2009 1.393 . S
C2006 H1998 0.950 . S
C2006 C2004 1.391 . S
C2006 C2007 1.400 . S
C2007 C2006 1.400 . S
C2007 C2008 1.398 . S
C2007 C2013 1.491 . S
C2008 H1999 0.950 . S
C2008 C2007 1.398 . S
C2008 C2009 1.391 . S
C2009 H1997 0.950 . S
C2009 C2005 1.393 . S
C2009 C2008 1.391 . S
C2010 H2000 0.950 . S
C2010 C2011 1.386 . S
C2010 C2012 1.391 . S
C2011 C2010 1.386 . S
C2011 C2015 1.393 . S
C2012 H2001 0.950 . S
C2012 C2010 1.391 . S
C2012 C2013 1.400 . S
C2013 C2007 1.491 . S
C2013 C2012 1.400 . S
C2013 C2014 1.398 . S
C2014 H2002 0.950 . S
C2014 C2013 1.398 . S
C2014 C2015 1.391 . S
C2015 H2003 0.950 . S
C2015 C2011 1.393 . S
C2015 C2014 1.391 . S
C745 N633 1.456 . S
C751 C7 1.461 . S
C765 C30 1.453 . S
C771 N196 1.445 . S
C785 N587 1.447 . S
C791 C53 1.454 . S
C805 C76 1.453 . S
C811 N242 1.442 . S
C825 C99 1.460 . S
C831 N679 1.450 . S
C845 C122 1.464 . S
C851 N334 1.457 . S
C865 C145 1.464 . S
C871 N725 1.457 . S
C885 C168 1.457 . S
C891 N288 1.452 . S
C905 N449 1.445 . S
C911 C191 1.453 . S
C925 N12 1.457 . S
C931 C214 1.464 . S
C945 N403 1.443 . S
C951 C237 1.452 . S
C965 C260 1.458 . S
C971 N58 1.453 . S
C985 N495 1.456 . S
C991 C283 1.461 . S
C1005 N150 1.443 . S
C1011 C306 1.454 . S
C1025 C329 1.454 . S
C1031 N541 1.447 . S
C1045 N104 1.453 . S
C1051 C352 1.462 . S
C1065 C375 1.462 . S
C1071 N265 1.457 . S
C1085 C398 1.463 . S
C1091 N564 1.455 . S
C1105 N219 1.443 . S
C1111 C421 1.452 . S
C1125 N610 1.442 . S
C1131 C444 1.453 . S
C1145 N311 1.454 . S
C1151 C467 1.459 . S
C1165 N702 1.453 . S
C1171 C490 1.458 . S
C1185 N357 1.443 . S
C1191 C513 1.453 . S
C1205 C536 1.463 . S
C1211 N656 1.455 . S
C1225 N81 1.450 . S
C1231 C559 1.460 . S
C1245 C582 1.457 . S
C1251 N380 1.446 . S
C1265 C605 1.459 . S
C1271 N35 1.454 . S
C1285 C628 1.461 . S
C1291 N426 1.456 . S
C1305 C651 1.459 . S
C1311 N127 1.454 . S
C1325 C674 1.456 . S
C1331 N518 1.445 . S
C1345 C697 1.453 . S
C1351 N173 1.443 . S
C1365 C720 1.459 . S
C1371 N472 1.448 . S
C1385 N554 1.387 . S
C1391 N2 1.387 . S
C1405 N25 1.410 . S
C1411 N209 1.410 . S
C1425 N600 1.389 . S
C1431 N48 1.389 . S
C1445 N71 1.423 . S
C1451 N255 1.423 . S
C1465 N646 1.424 . S
C1471 N94 1.424 . S
C1485 N117 1.427 . S
C1491 N301 1.427 . S
C1505 N692 1.386 . S
C1511 N140 1.386 . S
C1525 N163 1.412 . S
C1531 N347 1.412 . S
C1545 N186 1.394 . S
C1551 N370 1.394 . S
C1565 N232 1.421 . S
C1571 N416 1.421 . S
C1585 N278 1.397 . S
C1591 N462 1.397 . S
C1605 N324 1.391 . S
C1611 N508 1.391 . S
C1625 N393 1.425 . S
C1631 N577 1.425 . S
C1645 N623 1.413 . S
C1651 N439 1.413 . S
C1665 N669 1.407 . S
C1671 N485 1.407 . S
C1685 N531 1.426 . S
C1691 N715 1.426 . S
C1705 C16 2.160 . S
C1711 C108 2.161 . S
C1725 C39 2.160 . S
C1731 C131 2.161 . S
C1745 C154 2.161 . S
C1751 C62 2.160 . S
C1765 C85 2.161 . S
C1771 C177 2.160 . S
C1785 C292 2.161 . S
C1791 C200 2.160 . S
C1805 C315 2.161 . S
C1811 C223 2.160 . S
C1825 C246 2.160 . S
C1831 C338 2.161 . S
C1845 C269 2.161 . S
C1851 C361 2.160 . S
C1865 C476 2.161 . S
C1871 C384 2.160 . S
C1885 C499 2.160 . S
C1891 C407 2.161 . S
C1905 C430 2.161 . S
C1911 C522 2.160 . S
C1925 C545 2.160 . S
C1931 C453 2.161 . S
C1945 C660 2.161 . S
C1951 C568 2.160 . S
C1965 C591 2.161 . S
C1971 C683 2.160 . S
C1985 C706 2.160 . S
C1991 C614 2.161 . S
C2005 C637 2.161 . S
C2011 C729 2.161 . S
