# Generated by pormake.
# Topology wlu, (5)-cn, num edge types: 1
# Building blocks:
#     Node 0, Type 0, BuildingBlock: BEQFEK_clean_sbu_0, # of connection points: 5
#     Node 1, Type 0, BuildingBlock: BEQFEK_clean_sbu_0, # of connection points: 5
#     Node 2, Type 0, BuildingBlock: BEQFEK_clean_sbu_0, # of connection points: 5
#     Node 3, Type 0, BuildingBlock: BEQFEK_clean_sbu_0, # of connection points: 5
#     Node 4, Type 0, BuildingBlock: BEQFEK_clean_sbu_0, # of connection points: 5
#     Node 5, Type 0, BuildingBlock: BEQFEK_clean_sbu_0, # of connection points: 5
#     Node 6, Type 0, BuildingBlock: BEQFEK_clean_sbu_0, # of connection points: 5
#     Node 7, Type 0, BuildingBlock: BEQFEK_clean_sbu_0, # of connection points: 5
#     Node 8, Type 0, BuildingBlock: BEQFEK_clean_sbu_0, # of connection points: 5
#     Node 9, Type 0, BuildingBlock: BEQFEK_clean_sbu_0, # of connection points: 5
#     Node 10, Type 0, BuildingBlock: BEQFEK_clean_sbu_0, # of connection points: 5
#     Node 11, Type 0, BuildingBlock: BEQFEK_clean_sbu_0, # of connection points: 5
#     Node 12, Type 0, BuildingBlock: BEQFEK_clean_sbu_0, # of connection points: 5
#     Node 13, Type 0, BuildingBlock: BEQFEK_clean_sbu_0, # of connection points: 5
#     Node 14, Type 0, BuildingBlock: BEQFEK_clean_sbu_0, # of connection points: 5
#     Node 15, Type 0, BuildingBlock: BEQFEK_clean_sbu_0, # of connection points: 5
#     Node 16, Type 0, BuildingBlock: BEQFEK_clean_sbu_0, # of connection points: 5
#     Node 17, Type 0, BuildingBlock: BEQFEK_clean_sbu_0, # of connection points: 5
#     Node 18, Type 0, BuildingBlock: BEQFEK_clean_sbu_0, # of connection points: 5
#     Node 19, Type 0, BuildingBlock: BEQFEK_clean_sbu_0, # of connection points: 5
#     Node 20, Type 0, BuildingBlock: BEQFEK_clean_sbu_0, # of connection points: 5
#     Node 21, Type 0, BuildingBlock: BEQFEK_clean_sbu_0, # of connection points: 5
#     Node 22, Type 0, BuildingBlock: BEQFEK_clean_sbu_0, # of connection points: 5
#     Node 23, Type 0, BuildingBlock: BEQFEK_clean_sbu_0, # of connection points: 5
#     Node 24, Type 0, BuildingBlock: BEQFEK_clean_sbu_0, # of connection points: 5
#     Node 25, Type 0, BuildingBlock: BEQFEK_clean_sbu_0, # of connection points: 5
#     Node 26, Type 0, BuildingBlock: BEQFEK_clean_sbu_0, # of connection points: 5
#     Node 27, Type 0, BuildingBlock: BEQFEK_clean_sbu_0, # of connection points: 5
#     Node 28, Type 0, BuildingBlock: BEQFEK_clean_sbu_0, # of connection points: 5
#     Node 29, Type 0, BuildingBlock: BEQFEK_clean_sbu_0, # of connection points: 5
#     Node 30, Type 0, BuildingBlock: BEQFEK_clean_sbu_0, # of connection points: 5
#     Node 31, Type 0, BuildingBlock: BEQFEK_clean_sbu_0, # of connection points: 5
#     Node 32, Type 0, BuildingBlock: BEQFEK_clean_sbu_0, # of connection points: 5
#     Node 33, Type 0, BuildingBlock: BEQFEK_clean_sbu_0, # of connection points: 5
#     Node 34, Type 0, BuildingBlock: BEQFEK_clean_sbu_0, # of connection points: 5
#     Node 35, Type 0, BuildingBlock: BEQFEK_clean_sbu_0, # of connection points: 5
#     Edge 36, Type (0, 0), BuildingBlock: EZIPEK_clean_linker_0, # of connection points: 2
#     Edge 37, Type (0, 0), BuildingBlock: EZIPEK_clean_linker_0, # of connection points: 2
#     Edge 38, Type (0, 0), BuildingBlock: EZIPEK_clean_linker_0, # of connection points: 2
#     Edge 39, Type (0, 0), BuildingBlock: EZIPEK_clean_linker_0, # of connection points: 2
#     Edge 40, Type (0, 0), BuildingBlock: EZIPEK_clean_linker_0, # of connection points: 2
#     Edge 41, Type (0, 0), BuildingBlock: EZIPEK_clean_linker_0, # of connection points: 2
#     Edge 42, Type (0, 0), BuildingBlock: EZIPEK_clean_linker_0, # of connection points: 2
#     Edge 43, Type (0, 0), BuildingBlock: EZIPEK_clean_linker_0, # of connection points: 2
#     Edge 44, Type (0, 0), BuildingBlock: EZIPEK_clean_linker_0, # of connection points: 2
#     Edge 45, Type (0, 0), BuildingBlock: EZIPEK_clean_linker_0, # of connection points: 2
#     Edge 46, Type (0, 0), BuildingBlock: EZIPEK_clean_linker_0, # of connection points: 2
#     Edge 47, Type (0, 0), BuildingBlock: EZIPEK_clean_linker_0, # of connection points: 2
#     Edge 48, Type (0, 0), BuildingBlock: EZIPEK_clean_linker_0, # of connection points: 2
#     Edge 49, Type (0, 0), BuildingBlock: EZIPEK_clean_linker_0, # of connection points: 2
#     Edge 50, Type (0, 0), BuildingBlock: EZIPEK_clean_linker_0, # of connection points: 2
#     Edge 51, Type (0, 0), BuildingBlock: EZIPEK_clean_linker_0, # of connection points: 2
#     Edge 52, Type (0, 0), BuildingBlock: EZIPEK_clean_linker_0, # of connection points: 2
#     Edge 53, Type (0, 0), BuildingBlock: EZIPEK_clean_linker_0, # of connection points: 2
#     Edge 54, Type (0, 0), BuildingBlock: EZIPEK_clean_linker_0, # of connection points: 2
#     Edge 55, Type (0, 0), BuildingBlock: EZIPEK_clean_linker_0, # of connection points: 2
#     Edge 56, Type (0, 0), BuildingBlock: EZIPEK_clean_linker_0, # of connection points: 2
#     Edge 57, Type (0, 0), BuildingBlock: EZIPEK_clean_linker_0, # of connection points: 2
#     Edge 58, Type (0, 0), BuildingBlock: EZIPEK_clean_linker_0, # of connection points: 2
#     Edge 59, Type (0, 0), BuildingBlock: EZIPEK_clean_linker_0, # of connection points: 2
#     Edge 60, Type (0, 0), BuildingBlock: EZIPEK_clean_linker_0, # of connection points: 2
#     Edge 61, Type (0, 0), BuildingBlock: EZIPEK_clean_linker_0, # of connection points: 2
#     Edge 62, Type (0, 0), BuildingBlock: EZIPEK_clean_linker_0, # of connection points: 2
#     Edge 63, Type (0, 0), BuildingBlock: EZIPEK_clean_linker_0, # of connection points: 2
#     Edge 64, Type (0, 0), BuildingBlock: EZIPEK_clean_linker_0, # of connection points: 2
#     Edge 65, Type (0, 0), BuildingBlock: EZIPEK_clean_linker_0, # of connection points: 2
#     Edge 66, Type (0, 0), BuildingBlock: EZIPEK_clean_linker_0, # of connection points: 2
#     Edge 67, Type (0, 0), BuildingBlock: EZIPEK_clean_linker_0, # of connection points: 2
#     Edge 68, Type (0, 0), BuildingBlock: EZIPEK_clean_linker_0, # of connection points: 2
#     Edge 69, Type (0, 0), BuildingBlock: EZIPEK_clean_linker_0, # of connection points: 2
#     Edge 70, Type (0, 0), BuildingBlock: EZIPEK_clean_linker_0, # of connection points: 2
#     Edge 71, Type (0, 0), BuildingBlock: EZIPEK_clean_linker_0, # of connection points: 2
#     Edge 72, Type (0, 0), BuildingBlock: EZIPEK_clean_linker_0, # of connection points: 2
#     Edge 73, Type (0, 0), BuildingBlock: EZIPEK_clean_linker_0, # of connection points: 2
#     Edge 74, Type (0, 0), BuildingBlock: EZIPEK_clean_linker_0, # of connection points: 2
#     Edge 75, Type (0, 0), BuildingBlock: EZIPEK_clean_linker_0, # of connection points: 2
#     Edge 76, Type (0, 0), BuildingBlock: EZIPEK_clean_linker_0, # of connection points: 2
#     Edge 77, Type (0, 0), BuildingBlock: EZIPEK_clean_linker_0, # of connection points: 2
#     Edge 78, Type (0, 0), BuildingBlock: EZIPEK_clean_linker_0, # of connection points: 2
#     Edge 79, Type (0, 0), BuildingBlock: EZIPEK_clean_linker_0, # of connection points: 2
#     Edge 80, Type (0, 0), BuildingBlock: EZIPEK_clean_linker_0, # of connection points: 2
#     Edge 81, Type (0, 0), BuildingBlock: EZIPEK_clean_linker_0, # of connection points: 2
#     Edge 82, Type (0, 0), BuildingBlock: EZIPEK_clean_linker_0, # of connection points: 2
#     Edge 83, Type (0, 0), BuildingBlock: EZIPEK_clean_linker_0, # of connection points: 2
#     Edge 84, Type (0, 0), BuildingBlock: EZIPEK_clean_linker_0, # of connection points: 2
#     Edge 85, Type (0, 0), BuildingBlock: EZIPEK_clean_linker_0, # of connection points: 2
#     Edge 86, Type (0, 0), BuildingBlock: EZIPEK_clean_linker_0, # of connection points: 2
#     Edge 87, Type (0, 0), BuildingBlock: EZIPEK_clean_linker_0, # of connection points: 2
#     Edge 88, Type (0, 0), BuildingBlock: EZIPEK_clean_linker_0, # of connection points: 2
#     Edge 89, Type (0, 0), BuildingBlock: EZIPEK_clean_linker_0, # of connection points: 2
#     Edge 90, Type (0, 0), BuildingBlock: EZIPEK_clean_linker_0, # of connection points: 2
#     Edge 91, Type (0, 0), BuildingBlock: EZIPEK_clean_linker_0, # of connection points: 2
#     Edge 92, Type (0, 0), BuildingBlock: EZIPEK_clean_linker_0, # of connection points: 2
#     Edge 93, Type (0, 0), BuildingBlock: EZIPEK_clean_linker_0, # of connection points: 2
#     Edge 94, Type (0, 0), BuildingBlock: EZIPEK_clean_linker_0, # of connection points: 2
#     Edge 95, Type (0, 0), BuildingBlock: EZIPEK_clean_linker_0, # of connection points: 2
#     Edge 96, Type (0, 0), BuildingBlock: EZIPEK_clean_linker_0, # of connection points: 2
#     Edge 97, Type (0, 0), BuildingBlock: EZIPEK_clean_linker_0, # of connection points: 2
#     Edge 98, Type (0, 0), BuildingBlock: EZIPEK_clean_linker_0, # of connection points: 2
#     Edge 99, Type (0, 0), BuildingBlock: EZIPEK_clean_linker_0, # of connection points: 2
#     Edge 100, Type (0, 0), BuildingBlock: EZIPEK_clean_linker_0, # of connection points: 2
#     Edge 101, Type (0, 0), BuildingBlock: EZIPEK_clean_linker_0, # of connection points: 2
#     Edge 102, Type (0, 0), BuildingBlock: EZIPEK_clean_linker_0, # of connection points: 2
#     Edge 103, Type (0, 0), BuildingBlock: EZIPEK_clean_linker_0, # of connection points: 2
#     Edge 104, Type (0, 0), BuildingBlock: EZIPEK_clean_linker_0, # of connection points: 2
#     Edge 105, Type (0, 0), BuildingBlock: EZIPEK_clean_linker_0, # of connection points: 2
#     Edge 106, Type (0, 0), BuildingBlock: EZIPEK_clean_linker_0, # of connection points: 2
#     Edge 107, Type (0, 0), BuildingBlock: EZIPEK_clean_linker_0, # of connection points: 2
#     Edge 108, Type (0, 0), BuildingBlock: EZIPEK_clean_linker_0, # of connection points: 2
#     Edge 109, Type (0, 0), BuildingBlock: EZIPEK_clean_linker_0, # of connection points: 2
#     Edge 110, Type (0, 0), BuildingBlock: EZIPEK_clean_linker_0, # of connection points: 2
#     Edge 111, Type (0, 0), BuildingBlock: EZIPEK_clean_linker_0, # of connection points: 2
#     Edge 112, Type (0, 0), BuildingBlock: EZIPEK_clean_linker_0, # of connection points: 2
#     Edge 113, Type (0, 0), BuildingBlock: EZIPEK_clean_linker_0, # of connection points: 2
#     Edge 114, Type (0, 0), BuildingBlock: EZIPEK_clean_linker_0, # of connection points: 2
#     Edge 115, Type (0, 0), BuildingBlock: EZIPEK_clean_linker_0, # of connection points: 2
#     Edge 116, Type (0, 0), BuildingBlock: EZIPEK_clean_linker_0, # of connection points: 2
#     Edge 117, Type (0, 0), BuildingBlock: EZIPEK_clean_linker_0, # of connection points: 2
#     Edge 118, Type (0, 0), BuildingBlock: EZIPEK_clean_linker_0, # of connection points: 2
#     Edge 119, Type (0, 0), BuildingBlock: EZIPEK_clean_linker_0, # of connection points: 2
#     Edge 120, Type (0, 0), BuildingBlock: EZIPEK_clean_linker_0, # of connection points: 2
#     Edge 121, Type (0, 0), BuildingBlock: EZIPEK_clean_linker_0, # of connection points: 2
#     Edge 122, Type (0, 0), BuildingBlock: EZIPEK_clean_linker_0, # of connection points: 2
#     Edge 123, Type (0, 0), BuildingBlock: EZIPEK_clean_linker_0, # of connection points: 2
#     Edge 124, Type (0, 0), BuildingBlock: EZIPEK_clean_linker_0, # of connection points: 2
#     Edge 125, Type (0, 0), BuildingBlock: EZIPEK_clean_linker_0, # of connection points: 2
# Relax obj value: 0.085
# Max RMSD: 0.148
# Mean RMSD: 0.148
data_MOF--net-wlu--node1-BEQFEK_clean_sbu_0--edge1-EZIPEK_clean_linker_0
_symmetry_space_group_name_H-M    P1
_symmetry_Int_Tables_number       1
_symmetry_cell_setting            triclinic
loop_
_symmetry_equiv_pos_as_xyz
'x, y, z'
_cell_length_a     53.292948
_cell_length_b     53.302522
_cell_length_c     42.783991
_cell_angle_alpha  89.986102
_cell_angle_beta   90.022939
_cell_angle_gamma 119.99012
loop_
_atom_site_label
_atom_site_type_symbol
_atom_site_fract_x
_atom_site_fract_y
_atom_site_fract_z
_atom_type_partial_charge
Co0 Co 0.30213 0.22092 0.03845 0.0
Co1 Co 0.26223 0.15411 0.02983 0.0
C2 C 0.30601 0.19137 0.98122 0.0
O3 O 0.31596 0.21407 0.99811 0.0
O4 O 0.28543 0.16703 0.9906 0.0
C5 C 0.35251 0.27437 0.05866 0.0
O6 O 0.36635 0.25984 0.05602 0.0
C7 C 0.2436 0.09358 0.01465 0.0
C8 C 0.20039 0.07067 0.03691 0.0
C9 C 0.21949 0.06646 0.01881 0.0
N10 N 0.23893 0.11309 0.02943 0.0
N11 N 0.21308 0.09927 0.04269 0.0
C12 C 0.2705 0.10087 0.99678 0.0
H13 H 0.26852 0.10755 0.97275 0.0
H14 H 0.28957 0.11929 0.00806 0.0
H15 H 0.27366 0.08184 0.9952 0.0
C16 C 0.31424 0.19964 0.0992 0.0
N17 N 0.30124 0.19539 0.07098 0.0
N18 N 0.28608 0.16726 0.06579 0.0
C19 C 0.28983 0.15303 0.0898 0.0
C20 C 0.30787 0.17317 0.1116 0.0
C21 C 0.33081 0.22798 0.11576 0.0
H22 H 0.35417 0.23784 0.11026 0.0
H23 H 0.32846 0.22484 0.14148 0.0
H24 H 0.32275 0.24257 0.10879 0.0
O25 O 0.26347 0.21567 0.02978 0.0
O26 O 0.23427 0.16826 0.03018 0.0
H27 H 0.25247 0.11095 0.09368 0.0
H28 H 0.28441 0.11433 0.11247 0.0
C29 C 0.27633 0.12084 0.09186 0.0
H30 H 0.28116 0.11254 0.07026 0.0
H31 H 0.20395 0.10943 0.0554 0.0
O32 O 0.32617 0.26228 0.05042 0.0
C33 C 0.23819 0.19372 0.02784 0.0
Co34 Co 0.77275 0.08074 0.03728 0.0
Co35 Co 0.83909 0.105 0.02487 0.0
C36 C 0.802 0.11475 0.97955 0.0
O37 O 0.77957 0.10096 0.99663 0.0
O38 O 0.82674 0.11884 0.98795 0.0
C39 C 0.7189 0.08123 0.04918 0.0
O40 O 0.72928 0.10489 0.03223 0.0
C41 C 0.90058 0.14403 0.0096 0.0
C42 C 0.92129 0.12157 0.032 0.0
C43 C 0.92702 0.14554 0.01424 0.0
N44 N 0.87997 0.12006 0.02382 0.0
N45 N 0.89249 0.10669 0.03706 0.0
C46 C 0.89496 0.165 0.99211 0.0
H47 H 0.88616 0.15592 0.96869 0.0
H48 H 0.87845 0.16808 0.00463 0.0
H49 H 0.91514 0.18615 0.98911 0.0
C50 C 0.79616 0.1134 0.096 0.0
N51 N 0.79988 0.10418 0.06801 0.0
N52 N 0.82778 0.11513 0.06283 0.0
C53 C 0.84266 0.13214 0.08726 0.0
C54 C 0.823 0.13152 0.10896 0.0
C55 C 0.76746 0.10544 0.11007 0.0
H56 H 0.75264 0.08173 0.1083 0.0
H57 H 0.75802 0.11661 0.09693 0.0
H58 H 0.76959 0.11203 0.13498 0.0
O59 O 0.77434 0.04515 0.02961 0.0
O60 O 0.82125 0.06234 0.02068 0.0
H61 H 0.88374 0.13437 0.08956 0.0
H62 H 0.88219 0.16301 0.11063 0.0
C63 C 0.87495 0.14934 0.08929 0.0
H64 H 0.8836 0.16328 0.06828 0.0
H65 H 0.88134 0.08738 0.0496 0.0
O66 O 0.73333 0.06832 0.0525 0.0
C67 C 0.79541 0.04132 0.02287 0.0
Co68 Co 0.92138 0.69587 0.0415 0.0
Co69 Co 0.88797 0.72961 0.03097 0.0
C70 C 0.88562 0.68769 0.98368 0.0
O71 O 0.90016 0.6804 1.00144 0.0
O72 O 0.87927 0.70679 0.99197 0.0
C73 C 0.92669 0.64722 0.06122 0.0
O74 O 0.89825 0.63318 0.05968 0.0
C75 C 0.85318 0.75513 0.00889 0.0
C76 C 0.84722 0.77366 0.05254 0.0
C77 C 0.83979 0.76963 0.02115 0.0
N78 N 0.867 0.75004 0.03219 0.0
N79 N 0.86397 0.76186 0.05801 0.0
C80 C 0.85429 0.74767 0.97538 0.0
H81 H 0.87669 0.75311 0.96928 0.0
H82 H 0.84001 0.72402 0.97203 0.0
H83 H 0.84714 0.7594 0.95955 0.0
C84 C 0.88898 0.6817 0.10199 0.0
N85 N 0.8962 0.69473 0.07375 0.0
N86 N 0.87893 0.70509 0.06726 0.0
C87 C 0.85871 0.69667 0.0901 0.0
C88 C 0.86484 0.68203 0.1129 0.0
C89 C 0.90556 0.67055 0.11962 0.0
H90 H 0.89522 0.64679 0.11649 0.0
H91 H 0.90543 0.67464 0.14503 0.0
H92 H 0.92815 0.68151 0.11146 0.0
O93 O 0.95289 0.73529 0.03361 0.0
O94 O 0.92981 0.76006 0.02824 0.0
H95 H 0.81367 0.68103 0.09927 0.0
H96 H 0.82786 0.70418 0.06533 0.0
C97 C 0.83277 0.70051 0.08952 0.0
H98 H 0.83685 0.71909 0.1046 0.0
H99 H 0.87337 0.76188 0.07941 0.0
O100 O 0.94046 0.67348 0.05272 0.0
C101 C 0.95307 0.75885 0.02877 0.0
Co102 Co 0.22193 0.30503 0.4677 0.0
Co103 Co 0.15502 0.2662 0.47853 0.0
C104 C 0.19216 0.31013 0.52558 0.0
O105 O 0.21473 0.31805 0.50886 0.0
O106 O 0.16715 0.29072 0.51643 0.0
C107 C 0.27572 0.35898 0.45724 0.0
O108 O 0.26407 0.37178 0.47292 0.0
C109 C 0.09421 0.23884 0.49914 0.0
C110 C 0.07107 0.21613 0.45612 0.0
C111 C 0.06669 0.22266 0.48627 0.0
N112 N 0.11383 0.24254 0.4772 0.0
N113 N 0.09981 0.22815 0.45189 0.0
C114 C 0.10186 0.24978 0.53197 0.0
H115 H 0.11882 0.24538 0.54097 0.0
H116 H 0.11093 0.27359 0.53219 0.0
H117 H 0.08263 0.23942 0.54751 0.0
C118 C 0.20136 0.31574 0.40766 0.0
N119 N 0.19629 0.30322 0.43608 0.0
N120 N 0.16829 0.28979 0.44179 0.0
C121 C 0.155 0.29526 0.41798 0.0
C122 C 0.17548 0.31138 0.39546 0.0
C123 C 0.23036 0.33151 0.39223 0.0
H124 H 0.24308 0.32075 0.39756 0.0
H125 H 0.24214 0.35394 0.40127 0.0
H126 H 0.22814 0.33247 0.36652 0.0
O127 O 0.21838 0.26709 0.47441 0.0
O128 O 0.17092 0.23928 0.48202 0.0
H129 H 0.11118 0.26723 0.40381 0.0
H130 H 0.1215 0.30468 0.40554 0.0
C131 C 0.12386 0.28745 0.41742 0.0
H132 H 0.11512 0.28449 0.44149 0.0
H133 H 0.10992 0.22711 0.43145 0.0
O134 O 0.262 0.33163 0.454 0.0
C135 C 0.1963 0.24263 0.48025 0.0
Co136 Co 0.69481 0.91681 0.46123 0.0
Co137 Co 0.73382 0.88961 0.47599 0.0
C138 C 0.68886 0.88431 0.52114 0.0
O139 O 0.68016 0.89679 0.50208 0.0
O140 O 0.70957 0.87985 0.51421 0.0
C141 C 0.64117 0.9164 0.44919 0.0
O142 O 0.62857 0.89248 0.46579 0.0
C143 C 0.76204 0.85789 0.50033 0.0
C144 C 0.78377 0.85459 0.45786 0.0
C145 C 0.77821 0.84594 0.48884 0.0
N146 N 0.75745 0.87194 0.47687 0.0
N147 N 0.77125 0.87059 0.45185 0.0
C148 C 0.75202 0.85703 0.5332 0.0
H149 H 0.75623 0.87888 0.54007 0.0
H150 H 0.7283 0.84205 0.53453 0.0
H151 H 0.76312 0.84971 0.54971 0.0
C152 C 0.68468 0.88364 0.40315 0.0
N153 N 0.69741 0.89243 0.4313 0.0
N154 N 0.71038 0.87776 0.43877 0.0
C155 C 0.70439 0.85764 0.4163 0.0
C156 C 0.68833 0.86115 0.39292 0.0
C157 C 0.66893 0.8962 0.38631 0.0
H158 H 0.64646 0.8858 0.39516 0.0
H159 H 0.66808 0.89201 0.36081 0.0
H160 H 0.67963 0.91986 0.39048 0.0
O161 O 0.73257 0.95145 0.46901 0.0
O162 O 0.76078 0.93245 0.47786 0.0
H163 H 0.69376 0.81375 0.40739 0.0
H164 H 0.71477 0.82952 0.44251 0.0
C165 C 0.71149 0.83386 0.41794 0.0
H166 H 0.73139 0.8401 0.40417 0.0
H167 H 0.77166 0.88018 0.43045 0.0
O168 O 0.66847 0.92987 0.44549 0.0
C169 C 0.7571 0.95424 0.47546 0.0
Co170 Co 0.08225 0.77796 0.45976 0.0
Co171 Co 0.10402 0.84336 0.47181 0.0
C172 C 0.1101 0.80536 0.51998 0.0
O173 O 0.09936 0.78364 0.50164 0.0
O174 O 0.11305 0.8297 0.51172 0.0
C175 C 0.07705 0.72111 0.45472 0.0
O176 O 0.09521 0.72832 0.47824 0.0
C177 C 0.14487 0.90404 0.48759 0.0
C178 C 0.12308 0.92654 0.46798 0.0
C179 C 0.14729 0.93098 0.48449 0.0
N180 N 0.12016 0.88432 0.47379 0.0
N181 N 0.10722 0.89792 0.4621 0.0
C182 C 0.16583 0.89716 0.50308 0.0
H183 H 0.15841 0.88981 0.52732 0.0
H184 H 0.16646 0.87937 0.49032 0.0
H185 H 0.18783 0.91654 0.50401 0.0
C186 C 0.11997 0.80135 0.4051 0.0
N187 N 0.10853 0.80507 0.43146 0.0
N188 N 0.11836 0.83286 0.43604 0.0
C189 C 0.13665 0.84779 0.41245 0.0
C190 C 0.13814 0.82817 0.39217 0.0
C191 C 0.11341 0.77255 0.39239 0.0
H192 H 0.08974 0.75889 0.38855 0.0
H193 H 0.12006 0.76155 0.40975 0.0
H194 H 0.12488 0.77469 0.37004 0.0
O195 O 0.04659 0.78017 0.4622 0.0
O196 O 0.06114 0.82632 0.46926 0.0
H197 H 0.13576 0.88735 0.40922 0.0
H198 H 0.16472 0.88718 0.38716 0.0
C199 C 0.1519 0.88 0.40909 0.0
H200 H 0.16654 0.89012 0.42935 0.0
H201 H 0.08751 0.88765 0.45017 0.0
O202 O 0.06963 0.73876 0.44442 0.0
C203 C 0.04073 0.8004 0.465 0.0
Co204 Co 0.69285 0.77475 0.96487 0.0
Co205 Co 0.73408 0.84149 0.97297 0.0
C206 C 0.68947 0.80435 0.02173 0.0
O207 O 0.67892 0.78149 0.00504 0.0
O208 O 0.71048 0.82838 0.01217 0.0
C209 C 0.64334 0.71937 0.94612 0.0
O210 O 0.62765 0.73173 0.95098 0.0
C211 C 0.75166 0.90182 0.98798 0.0
C212 C 0.79454 0.92565 0.96513 0.0
C213 C 0.77504 0.92926 0.98315 0.0
N214 N 0.75703 0.88264 0.9735 0.0
N215 N 0.78272 0.89701 0.95995 0.0
C216 C 0.72475 0.89393 0.00613 0.0
H217 H 0.70578 0.87557 0.99463 0.0
H218 H 0.72126 0.91271 0.00833 0.0
H219 H 0.72691 0.88687 0.0299 0.0
C220 C 0.67882 0.79631 0.90529 0.0
N221 N 0.6933 0.80032 0.93254 0.0
N222 N 0.71019 0.82843 0.93686 0.0
C223 C 0.70671 0.84288 0.91287 0.0
C224 C 0.68671 0.82294 0.89226 0.0
C225 C 0.65768 0.76787 0.8911 0.0
H226 H 0.63596 0.76031 0.90131 0.0
H227 H 0.65595 0.76986 0.86547 0.0
H228 H 0.66457 0.75193 0.89544 0.0
O229 O 0.73166 0.78017 0.97371 0.0
O230 O 0.76207 0.82734 0.97303 0.0
H231 H 0.7455 0.88389 0.90906 0.0
H232 H 0.71481 0.8819 0.88869 0.0
C233 C 0.72177 0.87512 0.91 0.0
H234 H 0.71691 0.88424 0.93089 0.0
H235 H 0.79225 0.88724 0.94725 0.0
O236 O 0.67011 0.73337 0.95251 0.0
C237 C 0.75727 0.80158 0.97572 0.0
Co238 Co 0.2186 0.91469 0.96219 0.0
Co239 Co 0.15242 0.89028 0.97498 0.0
C240 C 0.1903 0.88195 0.02063 0.0
O241 O 0.21186 0.89391 1.00211 0.0
O242 O 0.16566 0.87879 0.01333 0.0
C243 C 0.27255 0.91472 0.95264 0.0
O244 O 0.26124 0.89077 0.96919 0.0
C245 C 0.09096 0.85091 0.99034 0.0
C246 C 0.07027 0.87379 0.96888 0.0
C247 C 0.06456 0.84966 0.98634 0.0
N248 N 0.11151 0.87487 0.97606 0.0
N249 N 0.09898 0.88842 0.96327 0.0
C250 C 0.0966 0.82977 0.00739 0.0
H251 H 0.10507 0.83842 0.03104 0.0
H252 H 0.11332 0.82709 0.9948 0.0
H253 H 0.07646 0.80849 0.00987 0.0
C254 C 0.19573 0.88195 0.90389 0.0
N255 N 0.19179 0.89121 0.93171 0.0
N256 N 0.16387 0.87948 0.93727 0.0
C257 C 0.14914 0.8618 0.91319 0.0
C258 C 0.16899 0.86288 0.89137 0.0
C259 C 0.2246 0.89058 0.88981 0.0
H260 H 0.23436 0.87958 0.90273 0.0
H261 H 0.22262 0.88427 0.86482 0.0
H262 H 0.23909 0.91432 0.89191 0.0
O263 O 0.21661 0.95003 0.97042 0.0
O264 O 0.16952 0.93285 0.97792 0.0
H265 H 0.10768 0.85867 0.9105 0.0
H266 H 0.10981 0.82995 0.89029 0.0
C267 C 0.11686 0.84404 0.91131 0.0
H268 H 0.10841 0.83051 0.93263 0.0
H269 H 0.1101 0.90783 0.9509 0.0
O270 O 0.25833 0.92765 0.94795 0.0
C271 C 0.19541 0.95386 0.97633 0.0
Co272 Co 0.07566 0.29991 0.96434 0.0
Co273 Co 0.1052 0.26265 0.97603 0.0
C274 C 0.10998 0.30571 0.02301 0.0
O275 O 0.09527 0.31332 0.00591 0.0
O276 O 0.11617 0.28665 0.01415 0.0
C277 C 0.07248 0.3498 0.94303 0.0
O278 O 0.10088 0.36373 0.94534 0.0
C279 C 0.13857 0.23571 0.99795 0.0
C280 C 0.14155 0.21464 0.95476 0.0
C281 C 0.15088 0.22027 0.98553 0.0
N282 N 0.12364 0.2399 0.97522 0.0
N283 N 0.12476 0.22647 0.94976 0.0
C284 C 0.13994 0.2454 0.03107 0.0
H285 H 0.11805 0.24047 0.03875 0.0
H286 H 0.15443 0.26922 0.03246 0.0
H287 H 0.14814 0.23464 0.04694 0.0
C288 C 0.11078 0.3135 0.90497 0.0
N289 N 0.10142 0.3 0.93286 0.0
N290 N 0.1163 0.28705 0.93974 0.0
C291 C 0.13692 0.29393 0.91764 0.0
C292 C 0.13364 0.31045 0.89483 0.0
C293 C 0.09745 0.3277 0.88669 0.0
H294 H 0.10978 0.35142 0.89064 0.0
H295 H 0.09839 0.32408 0.86127 0.0
H296 H 0.07468 0.31865 0.89351 0.0
O297 O 0.04227 0.26124 0.97061 0.0
O298 O 0.06269 0.23432 0.97874 0.0
H299 H 0.15523 0.26768 0.9051 0.0
H300 H 0.18111 0.30534 0.90902 0.0
C301 C 0.16103 0.28728 0.91923 0.0
H302 H 0.16531 0.28382 0.94375 0.0
H303 H 0.11455 0.22592 0.92875 0.0
O304 O 0.05834 0.32371 0.95201 0.0
C305 C 0.04033 0.23702 0.97656 0.0
Co306 Co 0.77572 0.69532 0.54191 0.0
Co307 Co 0.84267 0.73205 0.53079 0.0
C308 C 0.80189 0.68887 0.48341 0.0
O309 O 0.78024 0.67955 0.5018 0.0
O310 O 0.82683 0.70941 0.49132 0.0
C311 C 0.72234 0.64658 0.5639 0.0
O312 O 0.73664 0.63248 0.56157 0.0
C313 C 0.9019 0.75491 0.50597 0.0
C314 C 0.92886 0.78161 0.54534 0.0
C315 C 0.93034 0.77254 0.51543 0.0
N316 N 0.88425 0.75314 0.52939 0.0
N317 N 0.90055 0.76956 0.55265 0.0
C318 C 0.89176 0.74047 0.4749 0.0
H319 H 0.8754 0.74539 0.46518 0.0
H320 H 0.88139 0.71672 0.47809 0.0
H321 H 0.90995 0.74769 0.4581 0.0
C322 C 0.79666 0.68222 0.6016 0.0
N323 N 0.80123 0.6951 0.57333 0.0
N324 N 0.82901 0.70717 0.56651 0.0
C325 C 0.84235 0.70048 0.5892 0.0
C326 C 0.82224 0.68466 0.61212 0.0
C327 C 0.76923 0.66987 0.62005 0.0
H328 H 0.75631 0.67973 0.61263 0.0
H329 H 0.75676 0.64604 0.61701 0.0
H330 H 0.77411 0.67414 0.64537 0.0
O331 O 0.78304 0.73461 0.53313 0.0
O332 O 0.83072 0.76208 0.5331 0.0
H333 H 0.88654 0.72934 0.60116 0.0
H334 H 0.87641 0.69182 0.60164 0.0
C335 C 0.87349 0.70836 0.58895 0.0
H336 H 0.8814 0.71028 0.56461 0.0
H337 H 0.89234 0.77252 0.57359 0.0
O338 O 0.73455 0.67275 0.55503 0.0
C339 C 0.80567 0.75942 0.53126 0.0
Co340 Co 0.3019 0.08055 0.53844 0.0
Co341 Co 0.26191 0.10685 0.52602 0.0
C342 C 0.30716 0.1132 0.47972 0.0
O343 O 0.3163 0.10082 0.49825 0.0
O344 O 0.28629 0.1173 0.48726 0.0
C345 C 0.35387 0.07666 0.54611 0.0
O346 O 0.36626 0.09758 0.52545 0.0
C347 C 0.24166 0.14791 0.51145 0.0
C348 C 0.19878 0.12678 0.53449 0.0
C349 C 0.21742 0.1505 0.51668 0.0
N350 N 0.23754 0.12355 0.52541 0.0
N351 N 0.21184 0.11101 0.53908 0.0
C352 C 0.26836 0.16826 0.49378 0.0
H353 H 0.26796 0.15865 0.47066 0.0
H354 H 0.28775 0.17123 0.50663 0.0
H355 H 0.26971 0.18953 0.49017 0.0
C356 C 0.31394 0.11416 0.59639 0.0
N357 N 0.30015 0.10499 0.56882 0.0
N358 N 0.2845 0.11736 0.56359 0.0
C359 C 0.28828 0.13526 0.58777 0.0
C360 C 0.30708 0.13372 0.60925 0.0
C361 C 0.33401 0.105 0.60987 0.0
H362 H 0.35353 0.11355 0.59494 0.0
H363 H 0.34081 0.11328 0.63399 0.0
H364 H 0.32325 0.08102 0.61007 0.0
O365 O 0.26383 0.04582 0.53074 0.0
O366 O 0.23512 0.06442 0.52345 0.0
H367 H 0.28176 0.16746 0.61131 0.0
H368 H 0.28007 0.16757 0.56899 0.0
C369 C 0.2745 0.15367 0.59006 0.0
H370 H 0.25061 0.13956 0.59066 0.0
H371 H 0.20321 0.09163 0.55157 0.0
O372 O 0.32753 0.0667 0.55356 0.0
C373 C 0.23907 0.04282 0.5251 0.0
Co374 Co 0.91447 0.22232 0.53858 0.0
Co375 Co 0.88887 0.15573 0.52888 0.0
C376 C 0.88166 0.19436 0.48146 0.0
O377 O 0.89282 0.21627 0.49958 0.0
O378 O 0.87951 0.17024 0.48943 0.0
C379 C 0.92094 0.2778 0.55824 0.0
O380 O 0.893 0.26591 0.55289 0.0
C381 C 0.84736 0.09448 0.51322 0.0
C382 C 0.86895 0.07254 0.5348 0.0
C383 C 0.84518 0.06765 0.51715 0.0
N384 N 0.87154 0.1145 0.5277 0.0
N385 N 0.8843 0.10119 0.54054 0.0
C386 C 0.82692 0.10102 0.49603 0.0
H387 H 0.82422 0.11749 0.50913 0.0
H388 H 0.80556 0.08117 0.49264 0.0
H389 H 0.83627 0.11019 0.4728 0.0
C390 C 0.8799 0.20027 0.59805 0.0
N391 N 0.88976 0.19634 0.57043 0.0
N392 N 0.87812 0.16826 0.56553 0.0
C393 C 0.86062 0.15369 0.58975 0.0
C394 C 0.86124 0.17362 0.61095 0.0
C395 C 0.88762 0.22875 0.61247 0.0
H396 H 0.87392 0.23681 0.60214 0.0
H397 H 0.88371 0.22677 0.63806 0.0
H398 H 0.9106 0.24434 0.60838 0.0
O399 O 0.94772 0.21693 0.52831 0.0
O400 O 0.93086 0.16983 0.52976 0.0
H401 H 0.8301 0.11453 0.61393 0.0
H402 H 0.82968 0.11218 0.57166 0.0
C403 C 0.8437 0.12143 0.59253 0.0
H404 H 0.85887 0.11288 0.59326 0.0
H405 H 0.90371 0.11174 0.55301 0.0
O406 O 0.93342 0.26351 0.55188 0.0
C407 C 0.95186 0.19547 0.5267 0.0
Co408 Co 0.96794 0.55456 0.37509 0.0
Co409 Co 0.93189 0.48804 0.3608 0.0
C410 C 0.97618 0.52837 0.31584 0.0
O411 O 0.98365 0.54959 0.33459 0.0
O412 O 0.95603 0.50292 0.32272 0.0
C413 C 0.01721 0.60756 0.39776 0.0
O414 O 0.03099 0.59288 0.39683 0.0
C415 C 0.90646 0.42778 0.33769 0.0
C416 C 0.88465 0.40317 0.38036 0.0
C417 C 0.89081 0.39983 0.34969 0.0
N418 N 0.91008 0.44663 0.36057 0.0
N419 N 0.89632 0.4317 0.38572 0.0
C420 C 0.91674 0.43653 0.30483 0.0
H421 H 0.91192 0.45356 0.29711 0.0
H422 H 0.94058 0.44591 0.30399 0.0
H423 H 0.90634 0.41776 0.28867 0.0
C424 C 0.97965 0.53203 0.4344 0.0
N425 N 0.96733 0.5284 0.40592 0.0
N426 N 0.95569 0.50095 0.39782 0.0
C427 C 0.96243 0.48704 0.41987 0.0
C428 C 0.97734 0.50624 0.44381 0.0
C429 C 0.99214 0.55896 0.45367 0.0
H430 H 0.01606 0.57092 0.45143 0.0
H431 H 0.98703 0.55345 0.47876 0.0
H432 H 0.98309 0.57255 0.44622 0.0
O433 O 0.92903 0.54863 0.36766 0.0
O434 O 0.90272 0.5013 0.35899 0.0
H435 H 0.97518 0.4552 0.42791 0.0
H436 H 0.9542 0.44964 0.39272 0.0
C437 C 0.9569 0.4567 0.41746 0.0
H438 H 0.93716 0.44204 0.43097 0.0
H439 H 0.89529 0.44105 0.40675 0.0
O440 O 0.99125 0.59558 0.38819 0.0
C441 C 0.90499 0.52615 0.36163 0.0
Co442 Co 0.44187 0.41638 0.37657 0.0
Co443 Co 0.50813 0.44269 0.36448 0.0
C444 C 0.4684 0.44817 0.31795 0.0
O445 O 0.447 0.43713 0.33677 0.0
O446 O 0.49288 0.45096 0.32531 0.0
C447 C 0.38857 0.41296 0.39841 0.0
O448 O 0.40251 0.44125 0.39498 0.0
C449 C 0.56846 0.48457 0.34709 0.0
C450 C 0.59209 0.46537 0.37007 0.0
C451 C 0.59579 0.48816 0.35142 0.0
N452 N 0.54925 0.46053 0.36235 0.0
N453 N 0.56353 0.44912 0.37596 0.0
C454 C 0.56075 0.50381 0.32917 0.0
H455 H 0.55084 0.49328 0.30659 0.0
H456 H 0.54453 0.50671 0.3425 0.0
H457 H 0.58017 0.5252 0.32444 0.0
C458 C 0.46555 0.45121 0.43575 0.0
N459 N 0.46865 0.44155 0.40762 0.0
N460 N 0.4965 0.45455 0.40087 0.0
C461 C 0.51168 0.47344 0.42388 0.0
C462 C 0.49245 0.47186 0.44656 0.0
C463 C 0.43783 0.44041 0.45333 0.0
H464 H 0.42281 0.4176 0.44742 0.0
H465 H 0.42804 0.45393 0.44757 0.0
H466 H 0.4418 0.44211 0.47893 0.0
O467 O 0.44687 0.38285 0.36685 0.0
O468 O 0.4942 0.40064 0.36643 0.0
H469 H 0.55402 0.47855 0.42588 0.0
H470 H 0.55117 0.50744 0.44452 0.0
C471 C 0.54391 0.49233 0.42435 0.0
H472 H 0.55122 0.50489 0.40231 0.0
H473 H 0.55373 0.4302 0.38929 0.0
O474 O 0.40097 0.39894 0.3904 0.0
C475 C 0.46862 0.37922 0.36452 0.0
Co476 Co 0.58089 0.02444 0.37416 0.0
Co477 Co 0.55673 0.06701 0.36366 0.0
C478 C 0.54793 0.02163 0.31629 0.0
O479 O 0.56124 0.01212 0.33299 0.0
O480 O 0.54379 0.04199 0.32569 0.0
C481 C 0.58553 0.97269 0.38789 0.0
O482 O 0.55867 0.95711 0.37798 0.0
C483 C 0.51747 0.08948 0.34876 0.0
C484 C 0.54045 0.13278 0.3708 0.0
C485 C 0.51635 0.11467 0.35311 0.0
N486 N 0.5413 0.09257 0.3631 0.0
N487 N 0.55493 0.11851 0.37618 0.0
C488 C 0.49641 0.06304 0.33113 0.0
H489 H 0.49416 0.04338 0.3427 0.0
H490 H 0.47497 0.06167 0.32943 0.0
H491 H 0.50484 0.06411 0.30716 0.0
C492 C 0.54452 0.0119 0.43288 0.0
N493 N 0.55575 0.02606 0.40563 0.0
N494 N 0.5462 0.04437 0.40111 0.0
C495 C 0.52903 0.04246 0.42532 0.0
C496 C 0.52761 0.02191 0.44614 0.0
C497 C 0.54907 0.98886 0.44702 0.0
H498 H 0.55456 0.97772 0.42921 0.0
H499 H 0.52923 0.97253 0.45929 0.0
H500 H 0.56653 -0.00116 0.46474 0.0
O501 O 0.61578 0.06246 0.36722 0.0
O502 O 0.59912 0.09271 0.35991 0.0
H503 H 0.52996 0.08289 0.42875 0.0
H504 H 0.50028 0.05351 0.4496 0.0
C505 C 0.51375 0.05944 0.42813 0.0
H506 H 0.49976 0.05535 0.40736 0.0
H507 H 0.57431 0.12658 0.3886 0.0
O508 O 0.59775 8e-05 0.38678 0.0
C509 C 0.61996 0.08762 0.36148 0.0
Co510 Co 0.88831 0.63554 0.79781 0.0
Co511 Co 0.82225 0.59568 0.8127 0.0
C512 C 0.86176 0.64189 0.85712 0.0
O513 O 0.88285 0.65077 0.83798 0.0
O514 O 0.83674 0.62073 0.85047 0.0
C515 C 0.93955 0.68675 0.7754 0.0
O516 O 0.92402 0.69952 0.77842 0.0
C517 C 0.76121 0.57484 0.82907 0.0
C518 C 0.73939 0.53205 0.8058 0.0
C519 C 0.73441 0.55054 0.82403 0.0
N520 N 0.78133 0.57094 0.81452 0.0
N521 N 0.76815 0.54527 0.8008 0.0
C522 C 0.76759 0.60146 0.84693 0.0
H523 H 0.77771 0.60141 0.86958 0.0
H524 H 0.78332 0.62093 0.83369 0.0
H525 H 0.74757 0.60239 0.85148 0.0
C526 C 0.86327 0.64422 0.73865 0.0
N527 N 0.86082 0.63243 0.76723 0.0
N528 N 0.83313 0.61738 0.77463 0.0
C529 C 0.81739 0.62009 0.75146 0.0
C530 C 0.8361 0.63723 0.72807 0.0
C531 C 0.89063 0.66078 0.72039 0.0
H532 H 0.90605 0.65363 0.72686 0.0
H533 H 0.90011 0.68426 0.72493 0.0
H534 H 0.88624 0.65732 0.69492 0.0
O535 O 0.88509 0.59777 0.8066 0.0
O536 O 0.83804 0.56919 0.81539 0.0
H537 H 0.77486 0.58314 0.75122 0.0
H538 H 0.77754 0.61445 0.73168 0.0
C539 C 0.78523 0.60708 0.75192 0.0
H540 H 0.7787 0.61318 0.77394 0.0
H541 H 0.77882 0.53684 0.78783 0.0
O542 O 0.92875 0.66059 0.78382 0.0
C543 C 0.86355 0.57317 0.81317 0.0
Co544 Co 0.3554 0.24689 0.79707 0.0
Co545 Co 0.39806 0.22305 0.80902 0.0
C546 C 0.35181 0.21429 0.85536 0.0
O547 O 0.34239 0.22752 0.83837 0.0
O548 O 0.37239 0.21034 0.84637 0.0
C549 C 0.30378 0.25158 0.78183 0.0
O550 O 0.28801 0.22495 0.7923 0.0
C551 C 0.41838 0.1821 0.82355 0.0
C552 C 0.46434 0.20728 0.80928 0.0
C553 C 0.44401 0.18141 0.82273 0.0
N554 N 0.42332 0.20739 0.81131 0.0
N555 N 0.45083 0.22231 0.80278 0.0
C556 C 0.38991 0.15948 0.83646 0.0
H557 H 0.38899 0.16382 0.86168 0.0
H558 H 0.37189 0.16029 0.82439 0.0
H559 H 0.38744 0.13762 0.83405 0.0
C560 C 0.34365 0.20992 0.73895 0.0
N561 N 0.35751 0.22147 0.76626 0.0
N562 N 0.37617 0.21241 0.77118 0.0
C563 C 0.37498 0.19548 0.74705 0.0
C564 C 0.35434 0.19348 0.72599 0.0
C565 C 0.32008 0.21352 0.72464 0.0
H566 H 0.30884 0.21907 0.74228 0.0
H567 H 0.30396 0.19322 0.71289 0.0
H568 H 0.32955 0.23058 0.70644 0.0
O569 O 0.39352 0.28193 0.80419 0.0
O570 O 0.42375 0.26536 0.81233 0.0
H571 H 0.38949 0.17002 0.7216 0.0
H572 H 0.38686 0.16504 0.76352 0.0
C573 C 0.39287 0.18114 0.74445 0.0
H574 H 0.41611 0.19756 0.74721 0.0
H575 H 0.4605 0.24297 0.79292 0.0
O576 O 0.33118 0.26364 0.78311 0.0
C577 C 0.41867 0.28617 0.81028 0.0
Co578 Co 0.74542 0.10951 0.79607 0.0
Co579 Co 0.76855 0.17553 0.80792 0.0
C580 C 0.77479 0.13775 0.85586 0.0
O581 O 0.76248 0.1154 0.83844 0.0
O582 O 0.77868 0.16224 0.84689 0.0
C583 C 0.74261 0.05424 0.78255 0.0
O584 O 0.7692 0.06622 0.79349 0.0
C585 C 0.81013 0.2359 0.8246 0.0
C586 C 0.78987 0.25947 0.80387 0.0
C587 C 0.81347 0.26322 0.8211 0.0
N588 N 0.78552 0.21668 0.81018 0.0
N589 N 0.77348 0.23091 0.79793 0.0
C590 C 0.83005 0.2282 0.84117 0.0
H591 H 0.83028 0.20988 0.8291 0.0
H592 H 0.85234 0.2471 0.84245 0.0
H593 H 0.82197 0.22121 0.86532 0.0
C594 C 0.78499 0.13448 0.73996 0.0
N595 N 0.77271 0.13679 0.7667 0.0
N596 N 0.7822 0.16453 0.77195 0.0
C597 C 0.80063 0.18038 0.74885 0.0
C598 C 0.80276 0.16173 0.72798 0.0
C599 C 0.7796 0.10715 0.72439 0.0
H600 H 0.77399 0.08987 0.7414 0.0
H601 H 0.79907 0.11053 0.7114 0.0
H602 H 0.76192 0.10061 0.7071 0.0
O603 O 0.71062 0.11329 0.79789 0.0
O604 O 0.7258 0.15936 0.80601 0.0
H605 H 0.82895 0.22056 0.72499 0.0
H606 H 0.83008 0.22208 0.76721 0.0
C607 C 0.81575 0.21264 0.74662 0.0
H608 H 0.79954 0.21988 0.74688 0.0
H609 H 0.75406 0.22114 0.78544 0.0
O610 O 0.72955 0.06861 0.78305 0.0
C611 C 0.70514 0.13373 0.80105 0.0
Co612 Co 0.36533 0.11071 0.29564 0.0
Co613 Co 0.40079 0.17718 0.31035 0.0
C614 C 0.35602 0.13661 0.35451 0.0
O615 O 0.34886 0.11546 0.33571 0.0
O616 O 0.37618 0.16213 0.34793 0.0
C617 C 0.31652 0.05789 0.27231 0.0
O618 O 0.30262 0.07244 0.27373 0.0
C619 C 0.42608 0.23716 0.33374 0.0
C620 C 0.44703 0.26208 0.29093 0.0
C621 C 0.44121 0.26517 0.32182 0.0
N622 N 0.42237 0.21851 0.31063 0.0
N623 N 0.43565 0.23362 0.28539 0.0
C624 C 0.41633 0.22818 0.3667 0.0
H625 H 0.42138 0.21118 0.37391 0.0
H626 H 0.39249 0.21866 0.36804 0.0
H627 H 0.4269 0.24687 0.38295 0.0
C628 C 0.35414 0.13339 0.23622 0.0
N629 N 0.36642 0.13699 0.26471 0.0
N630 N 0.37752 0.1643 0.27311 0.0
C631 C 0.37037 0.17809 0.25133 0.0
C632 C 0.35585 0.15901 0.22718 0.0
C633 C 0.34205 0.10663 0.21674 0.0
H634 H 0.35159 0.09338 0.22391 0.0
H635 H 0.31815 0.0942 0.21909 0.0
H636 H 0.34698 0.11237 0.19166 0.0
O637 O 0.40401 0.11676 0.30466 0.0
O638 O 0.42998 0.16412 0.31322 0.0
H639 H 0.3942 0.22331 0.24082 0.0
H640 H 0.356 0.20882 0.2444 0.0
C641 C 0.3748 0.20798 0.2544 0.0
H642 H 0.37748 0.21472 0.27925 0.0
H643 H 0.43651 0.22442 0.26418 0.0
O644 O 0.34244 0.0698 0.28195 0.0
C645 C 0.42782 0.13928 0.31127 0.0
Co646 Co 0.88558 0.24567 0.29606 0.0
Co647 Co 0.81971 0.22164 0.30667 0.0
C648 C 0.85831 0.21464 0.35419 0.0
O649 O 0.87988 0.22506 0.33565 0.0
O650 O 0.83423 0.21267 0.3464 0.0
C651 C 0.94307 0.25278 0.28911 0.0
O652 O 0.93607 0.23341 0.31134 0.0
C653 C 0.75912 0.18023 0.32279 0.0
C654 C 0.73623 0.20116 0.30195 0.0
C655 C 0.73207 0.1775 0.3193 0.0
N656 N 0.77865 0.20462 0.30833 0.0
N657 N 0.76482 0.21703 0.29591 0.0
C658 C 0.76632 0.16008 0.33956 0.0
H659 H 0.78334 0.1583 0.32649 0.0
H660 H 0.74686 0.13833 0.34241 0.0
H661 H 0.77496 0.1691 0.36304 0.0
C662 C 0.86368 0.21105 0.23851 0.0
N663 N 0.85925 0.22107 0.26559 0.0
N664 N 0.83125 0.20953 0.27035 0.0
C665 C 0.81692 0.19156 0.24635 0.0
C666 C 0.83711 0.19202 0.22546 0.0
C667 C 0.89284 0.21909 0.22563 0.0
H668 H 0.90621 0.243 0.22376 0.0
H669 H 0.90378 0.21148 0.24193 0.0
H670 H 0.89122 0.20932 0.20228 0.0
O671 O 0.88208 0.28024 0.30533 0.0
O672 O 0.83498 0.26401 0.30493 0.0
H673 H 0.77586 0.18934 0.24312 0.0
H674 H 0.77788 0.16094 0.22201 0.0
C675 C 0.78467 0.17438 0.24352 0.0
H676 H 0.77557 0.16019 0.26429 0.0
H677 H 0.77495 0.23648 0.28349 0.0
O678 O 0.92518 0.26048 0.28032 0.0
C679 C 0.86089 0.28482 0.30725 0.0
Co680 Co 0.75041 0.63905 0.29581 0.0
Co681 Co 0.7718 0.59526 0.31355 0.0
C682 C 0.7802 0.64405 0.35643 0.0
O683 O 0.76998 0.65437 0.33646 0.0
O684 O 0.7822 0.62163 0.35052 0.0
C685 C 0.74796 0.69107 0.27671 0.0
O686 O 0.77471 0.70634 0.28702 0.0
C687 C 0.81237 0.5743 0.32963 0.0
C688 C 0.78541 0.52759 0.3192 0.0
C689 C 0.81234 0.54828 0.33008 0.0
N690 N 0.7865 0.56926 0.31902 0.0
N691 N 0.77049 0.54126 0.31292 0.0
C692 C 0.83656 0.60337 0.33911 0.0
H693 H 0.83624 0.60544 0.36489 0.0
H694 H 0.83388 0.62076 0.32815 0.0
H695 H 0.85775 0.60569 0.33243 0.0
C696 C 0.78751 0.64656 0.23944 0.0
N697 N 0.77554 0.63432 0.26722 0.0
N698 N 0.78434 0.61591 0.27475 0.0
C699 C 0.80172 0.61577 0.25179 0.0
C700 C 0.80419 0.63522 0.22887 0.0
C701 C 0.78333 0.66858 0.22223 0.0
H702 H 0.77885 0.68175 0.2384 0.0
H703 H 0.80286 0.68326 0.20842 0.0
H704 H 0.76517 0.65723 0.20551 0.0
O705 O 0.71462 0.60183 0.30456 0.0
O706 O 0.72936 0.57042 0.31472 0.0
H707 H 0.82607 0.59864 0.22881 0.0
H708 H 0.83268 0.60542 0.27015 0.0
C709 C 0.81581 0.59757 0.25172 0.0
H710 H 0.79946 0.57476 0.257 0.0
H711 H 0.74933 0.53144 0.30439 0.0
O712 O 0.735 0.66365 0.27897 0.0
C713 C 0.70929 0.57645 0.31141 0.0
Co714 Co 0.43987 0.02866 0.87874 0.0
Co715 Co 0.50612 0.06599 0.86247 0.0
C716 C 0.46446 0.02035 0.8188 0.0
O717 O 0.4437 0.01246 0.83822 0.0
O718 O 0.48993 0.0408 0.82513 0.0
C719 C 0.38804 0.97833 0.90126 0.0
O720 O 0.40322 0.96519 0.89837 0.0
C721 C 0.56561 0.08866 0.83829 0.0
C722 C 0.59166 0.1208 0.87451 0.0
C723 C 0.59381 0.10849 0.8469 0.0
N724 N 0.54752 0.08882 0.86009 0.0
N725 N 0.56326 0.10838 0.88144 0.0
C726 C 0.55605 0.07 0.80973 0.0
H727 H 0.53898 0.07234 0.7975 0.0
H728 H 0.5467 0.04706 0.81691 0.0
H729 H 0.57433 0.07578 0.79342 0.0
C730 C 0.46463 0.01819 0.93701 0.0
N731 N 0.46731 0.03044 0.90865 0.0
N732 N 0.4948 0.04357 0.90031 0.0
C733 C 0.50994 0.03845 0.92231 0.0
C734 C 0.49125 0.02239 0.94625 0.0
C735 C 0.43763 0.00368 0.95617 0.0
H736 H 0.42322 0.01211 0.94983 0.0
H737 H 0.42659 0.97995 0.95243 0.0
H738 H 0.44291 0.00765 0.98144 0.0
O739 O 0.44481 0.06717 0.87031 0.0
O740 O 0.49186 0.09412 0.86026 0.0
H741 H 0.55437 0.07007 0.92931 0.0
H742 H 0.54641 0.03336 0.93444 0.0
C743 C 0.54139 0.0477 0.92015 0.0
H744 H 0.54756 0.04732 0.89548 0.0
H745 H 0.55458 0.11305 0.90097 0.0
O746 O 0.39934 0.00465 0.89314 0.0
C747 C 0.46681 0.09129 0.86324 0.0
Co748 Co 0.96949 0.41326 0.87251 0.0
Co749 Co 0.92855 0.43875 0.86398 0.0
C750 C 0.97308 0.44747 0.8157 0.0
O751 O 0.98226 0.43357 0.83179 0.0
O752 O 0.95295 0.45173 0.8256 0.0
C753 C 0.02158 0.4087 0.87831 0.0
O754 O 0.03404 0.42929 0.85731 0.0
C755 C 0.90901 0.48003 0.8507 0.0
C756 C 0.86564 0.45885 0.87263 0.0
C757 C 0.88477 0.48269 0.85522 0.0
N758 N 0.90443 0.45551 0.86456 0.0
N759 N 0.87849 0.44295 0.87769 0.0
C760 C 0.93597 0.50032 0.83331 0.0
H761 H 0.93455 0.49202 0.80921 0.0
H762 H 0.95512 0.50138 0.84489 0.0
H763 H 0.9386 0.52231 0.83193 0.0
C764 C 0.98306 0.44656 0.93137 0.0
N765 N 0.96836 0.43728 0.90427 0.0
N766 N 0.95165 0.44872 0.90082 0.0
C767 C 0.95555 0.46604 0.92558 0.0
C768 C 0.97559 0.46515 0.94571 0.0
C769 C 0.00447 0.4384 0.94306 0.0
H770 H 0.99437 0.41448 0.9434 0.0
H771 H 0.02322 0.4473 0.92692 0.0
H772 H 0.01228 0.44698 0.96689 0.0
O773 O 0.93149 0.37827 0.86581 0.0
O774 O 0.90207 0.39623 0.86015 0.0
H775 H 0.91706 0.46865 0.93061 0.0
H776 H 0.94813 0.49673 0.9512 0.0
C777 C 0.94084 0.48346 0.92958 0.0
H778 H 0.94549 0.49782 0.90903 0.0
H779 H 0.86945 0.42334 0.8898 0.0
O780 O 0.99548 0.39946 0.88628 0.0
C781 C 0.90646 0.37487 0.86092 0.0
Co782 Co 0.58248 0.55255 0.87273 0.0
Co783 Co 0.55682 0.48597 0.8609 0.0
C784 C 0.549 0.52406 0.81488 0.0
O785 O 0.56279 0.54654 0.8319 0.0
O786 O 0.54456 0.49929 0.82355 0.0
C787 C 0.58723 0.60913 0.88129 0.0
O788 O 0.5666 0.60144 0.86039 0.0
C789 C 0.51455 0.42565 0.84553 0.0
C790 C 0.53459 0.40198 0.86657 0.0
C791 C 0.51092 0.39827 0.84951 0.0
N792 N 0.53939 0.44487 0.85953 0.0
N793 N 0.55129 0.43059 0.87203 0.0
C794 C 0.49482 0.43345 0.8287 0.0
H795 H 0.50371 0.44155 0.80503 0.0
H796 H 0.49378 0.45107 0.84139 0.0
H797 H 0.47275 0.41439 0.82624 0.0
C798 C 0.54841 0.53023 0.93052 0.0
N799 N 0.55794 0.52593 0.90303 0.0
N800 N 0.54674 0.49795 0.89836 0.0
C801 C 0.52947 0.48354 0.92278 0.0
C802 C 0.53006 0.50363 0.94382 0.0
C803 C 0.55642 0.55925 0.94372 0.0
H804 H 0.58035 0.57297 0.9447 0.0
H805 H 0.5479 0.56982 0.92812 0.0
H806 H 0.5474 0.5575 0.96751 0.0
O807 O 0.61715 0.54923 0.86579 0.0
O808 O 0.59935 0.50209 0.85776 0.0
H809 H 0.52704 0.44236 0.92519 0.0
H810 H 0.49922 0.4445 0.94735 0.0
C811 C 0.5122 0.45131 0.92551 0.0
H812 H 0.49752 0.4424 0.90509 0.0
H813 H 0.57087 0.44041 0.88423 0.0
O814 O 0.59648 0.59209 0.88846 0.0
C815 C 0.62063 0.52781 0.85989 0.0
Co816 Co 0.63842 0.89019 0.70728 0.0
Co817 Co 0.5966 0.82454 0.69298 0.0
C818 C 0.64302 0.86297 0.64775 0.0
O819 O 0.6526 0.88439 0.66653 0.0
O820 O 0.62155 0.83831 0.6549 0.0
C821 C 0.6924 0.94357 0.71958 0.0
O822 O 0.70547 0.93289 0.70275 0.0
C823 C 0.57596 0.76354 0.67774 0.0
C824 C 0.53211 0.74183 0.69855 0.0
C825 C 0.55143 0.73678 0.682 0.0
N826 N 0.57141 0.78372 0.69109 0.0
N827 N 0.54513 0.77062 0.7034 0.0
C828 C 0.60339 0.76984 0.66169 0.0
H829 H 0.60365 0.77835 0.63794 0.0
H830 H 0.62223 0.78676 0.6748 0.0
H831 H 0.60515 0.75003 0.65952 0.0
C832 C 0.64753 0.86576 0.76518 0.0
N833 N 0.63483 0.86263 0.73714 0.0
N834 N 0.61864 0.83488 0.73077 0.0
C835 C 0.62126 0.8195 0.7544 0.0
C836 C 0.63969 0.83868 0.77687 0.0
C837 C 0.66735 0.89414 0.78042 0.0
H838 H 0.65827 0.90879 0.7784 0.0
H839 H 0.68848 0.90411 0.7683 0.0
H840 H 0.67084 0.89137 0.80547 0.0
O841 O 0.6011 0.88863 0.69987 0.0
O842 O 0.57113 0.84177 0.69107 0.0
H843 H 0.58308 0.7778 0.75434 0.0
H844 H 0.61278 0.77958 0.77666 0.0
C845 C 0.60691 0.78722 0.75522 0.0
H846 H 0.61354 0.77964 0.73435 0.0
H847 H 0.53613 0.78134 0.71527 0.0
O848 O 0.66512 0.92927 0.72324 0.0
C849 C 0.57601 0.86761 0.6937 0.0
Co850 Co 0.10565 0.75036 0.70517 0.0
Co851 Co 0.17153 0.77452 0.6913 0.0
C852 C 0.13289 0.78277 0.64642 0.0
O853 O 0.11153 0.77085 0.66519 0.0
O854 O 0.15758 0.78587 0.65337 0.0
C855 C 0.05173 0.75016 0.71656 0.0
O856 O 0.06219 0.77379 0.69956 0.0
C857 C 0.23286 0.81505 0.67647 0.0
C858 C 0.2539 0.79147 0.69526 0.0
C859 C 0.2594 0.81647 0.67971 0.0
N860 N 0.21242 0.79015 0.68934 0.0
N861 N 0.22515 0.77616 0.70048 0.0
C862 C 0.22702 0.83701 0.66169 0.0
H863 H 0.20933 0.83787 0.67441 0.0
H864 H 0.24682 0.85873 0.66149 0.0
H865 H 0.21987 0.83041 0.63722 0.0
C866 C 0.12945 0.78377 0.76299 0.0
N867 N 0.13295 0.77424 0.73513 0.0
N868 N 0.16078 0.78549 0.72935 0.0
C869 C 0.17589 0.80289 0.75347 0.0
C870 C 0.15638 0.80234 0.7754 0.0
C871 C 0.10083 0.77565 0.7774 0.0
H872 H 0.09094 0.78634 0.76414 0.0
H873 H 0.10316 0.78262 0.80218 0.0
H874 H 0.08626 0.75187 0.77608 0.0
O875 O 0.10758 0.71484 0.69721 0.0
O876 O 0.15455 0.73197 0.68884 0.0
H877 H 0.21697 0.80498 0.75411 0.0
H878 H 0.21562 0.83275 0.77723 0.0
C879 C 0.20821 0.81995 0.75529 0.0
H880 H 0.21677 0.83477 0.73494 0.0
H881 H 0.21417 0.75609 0.71165 0.0
O882 O 0.06631 0.7375 0.72054 0.0
C883 C 0.12873 0.71095 0.69109 0.0
Co884 Co 0.24965 0.36236 0.70886 0.0
Co885 Co 0.22427 0.4035 0.69677 0.0
C886 C 0.21592 0.35801 0.65057 0.0
O887 O 0.22966 0.34928 0.66768 0.0
O888 O 0.2114 0.37825 0.65931 0.0
C889 C 0.2487 0.30791 0.71922 0.0
O890 O 0.22506 0.29565 0.70214 0.0
C891 C 0.18384 0.42402 0.6815 0.0
C892 C 0.20435 0.46678 0.70474 0.0
C893 C 0.18094 0.44808 0.68653 0.0
N894 N 0.20803 0.42825 0.69597 0.0
N895 N 0.22023 0.45388 0.70976 0.0
C896 C 0.16392 0.3974 0.66339 0.0
H897 H 0.17351 0.39858 0.64004 0.0
H898 H 0.16155 0.37793 0.67554 0.0
H899 H 0.14234 0.39546 0.66021 0.0
C900 C 0.21711 0.35267 0.76792 0.0
N901 N 0.22599 0.36553 0.73983 0.0
N902 N 0.21386 0.38135 0.73428 0.0
C903 C 0.19597 0.37809 0.75824 0.0
C904 C 0.19751 0.35978 0.78032 0.0
C905 C 0.22669 0.33343 0.78261 0.0
H906 H 0.25036 0.34277 0.7795 0.0
H907 H 0.21532 0.31209 0.77095 0.0
H908 H 0.2214 0.33029 0.80791 0.0
O909 O 0.28495 0.39982 0.70154 0.0
O910 O 0.26705 0.42906 0.69304 0.0
H911 H 0.19098 0.41536 0.76063 0.0
H912 H 0.16259 0.38382 0.78017 0.0
C913 C 0.17713 0.39146 0.75952 0.0
H914 H 0.16398 0.386 0.73787 0.0
H915 H 0.23941 0.46256 0.72262 0.0
O916 O 0.26204 0.33511 0.72367 0.0
C917 C 0.28838 0.42463 0.69508 0.0
Co918 Co 0.55577 0.96983 0.13354 0.0
Co919 Co 0.48892 0.92977 0.14415 0.0
C920 C 0.5258 0.97465 0.19102 0.0
O921 O 0.54855 0.98322 0.17442 0.0
O922 O 0.50111 0.95462 0.18181 0.0
C923 C 0.60857 0.02112 0.11293 0.0
O924 O 0.59379 0.03468 0.11577 0.0
C925 C 0.42794 0.90992 0.15877 0.0
C926 C 0.40558 0.86769 0.13444 0.0
C927 C 0.40093 0.88616 0.1531 0.0
N928 N 0.44788 0.90571 0.14424 0.0
N929 N 0.43438 0.88039 0.12983 0.0
C930 C 0.43467 0.93627 0.17742 0.0
H931 H 0.44251 0.93443 0.20088 0.0
H932 H 0.45219 0.95586 0.16587 0.0
H933 H 0.41516 0.93846 0.18032 0.0
C934 C 0.53345 0.98085 0.07312 0.0
N935 N 0.52968 0.96802 0.10137 0.0
N936 N 0.50163 0.95243 0.10692 0.0
C937 C 0.487 0.95586 0.08305 0.0
C938 C 0.50678 0.97404 0.06101 0.0
C939 C 0.56161 0.99803 0.0564 0.0
H940 H 0.57665 0.99048 0.06318 0.0
H941 H 0.57096 0.02131 0.06197 0.0
H942 H 0.55836 0.99565 0.0307 0.0
O943 O 0.55191 0.93163 0.14097 0.0
O944 O 0.5046 0.90295 0.14805 0.0
H945 H 0.44478 0.91865 0.07968 0.0
H946 H 0.44802 0.95064 0.06127 0.0
C947 C 0.45479 0.94249 0.08161 0.0
H948 H 0.44688 0.94737 0.10346 0.0
H949 H 0.44487 0.87178 0.11681 0.0
O950 O 0.59687 0.99484 0.12125 0.0
C951 C 0.53017 0.9069 0.14669 0.0
Co952 Co 0.02795 0.58037 0.13044 0.0
Co953 Co 0.07018 0.55707 0.14421 0.0
C954 C 0.02419 0.55004 0.19023 0.0
O955 O 0.01412 0.56127 0.17128 0.0
O956 O 0.04566 0.54681 0.18294 0.0
C957 C 0.97663 0.58576 0.12226 0.0
O958 O 0.96411 0.56659 0.14464 0.0
C959 C 0.09192 0.51761 0.16033 0.0
C960 C 0.13544 0.53997 0.13872 0.0
C961 C 0.11682 0.51596 0.15618 0.0
N962 N 0.09566 0.54172 0.14614 0.0
N963 N 0.12175 0.55502 0.13336 0.0
C964 C 0.06494 0.49659 0.17716 0.0
H965 H 0.06473 0.50556 0.2005 0.0
H966 H 0.04571 0.49368 0.16401 0.0
H967 H 0.06383 0.47538 0.18031 0.0
C968 C 0.01608 0.54466 0.07416 0.0
N969 N 0.03033 0.55542 0.10122 0.0
N970 N 0.04753 0.54484 0.10666 0.0
C971 C 0.04465 0.52682 0.08293 0.0
C972 C 0.02458 0.52619 0.06165 0.0
C973 C 0.99427 0.55153 0.06077 0.0
H974 H 0.00426 0.57531 0.05794 0.0
H975 H 0.97585 0.54406 0.07723 0.0
H976 H 0.98601 0.5409 0.03779 0.0
O977 O 0.06543 0.61603 0.13734 0.0
O978 O 0.09585 0.59967 0.14554 0.0
H979 H 0.0839 0.52525 0.08156 0.0
H980 H 0.05438 0.49677 0.05945 0.0
C981 C 0.06019 0.51006 0.08105 0.0
H982 H 0.05451 0.49573 0.10177 0.0
H983 H 0.13019 0.5744 0.12088 0.0
O984 O 0.00236 0.59365 0.11396 0.0
C985 C 0.09068 0.62042 0.14312 0.0
Co986 Co 0.41724 0.44158 0.13156 0.0
Co987 Co 0.44165 0.50782 0.14189 0.0
C988 C 0.44806 0.46934 0.18986 0.0
O989 O 0.43779 0.44767 0.17143 0.0
O990 O 0.45021 0.49342 0.18177 0.0
C991 C 0.41381 0.3858 0.12055 0.0
O992 O 0.43681 0.39489 0.13837 0.0
C993 C 0.48317 0.56874 0.15715 0.0
C994 C 0.46229 0.59124 0.13523 0.0
C995 C 0.48603 0.59576 0.15269 0.0
N996 N 0.45867 0.54892 0.14306 0.0
N997 N 0.44629 0.56253 0.13004 0.0
C998 C 0.50336 0.56186 0.17434 0.0
H999 H 0.50514 0.54462 0.16174 0.0
H1000 H 0.5251 0.58137 0.17696 0.0
H1001 H 0.49434 0.55359 0.19792 0.0
C1002 C 0.45102 0.46364 0.07324 0.0
N1003 N 0.44167 0.46797 0.10083 0.0
N1004 N 0.45366 0.49599 0.10588 0.0
C1005 C 0.47147 0.51035 0.08181 0.0
C1006 C 0.47031 0.49021 0.06047 0.0
C1007 C 0.44197 0.43463 0.05934 0.0
H1008 H 0.41808 0.42076 0.06054 0.0
H1009 H 0.45195 0.4243 0.07306 0.0
H1010 H 0.44906 0.43643 0.03465 0.0
O1011 O 0.38281 0.44537 0.14065 0.0
O1012 O 0.39942 0.49256 0.13978 0.0
H1013 H 0.47432 0.55167 0.07854 0.0
H1014 H 0.50273 0.54934 0.0579 0.0
C1015 C 0.48904 0.54259 0.07922 0.0
H1016 H 0.50301 0.55143 0.10018 0.0
H1017 H 0.42681 0.55217 0.11766 0.0
O1018 O 0.40253 0.40163 0.11628 0.0
C1019 C 0.37848 0.46675 0.14225 0.0
Co1020 Co 0.02636 0.44392 0.63346 0.0
Co1021 Co 0.0669 0.51046 0.6447 0.0
C1022 C 0.02103 0.47282 0.69098 0.0
O1023 O 0.01243 0.4502 0.67419 0.0
O1024 O 0.04123 0.49755 0.68203 0.0
C1025 C 0.97455 0.38723 0.62466 0.0
O1026 O 0.96133 0.39491 0.64519 0.0
C1027 C 0.08477 0.57097 0.65846 0.0
C1028 C 0.12914 0.59411 0.63905 0.0
C1029 C 0.10879 0.5982 0.6548 0.0
N1030 N 0.09064 0.55147 0.64566 0.0
N1031 N 0.1172 0.56543 0.63411 0.0
C1032 C 0.05669 0.56359 0.67374 0.0
H1033 H 0.05707 0.55707 0.69829 0.0
H1034 H 0.0385 0.54504 0.66152 0.0
H1035 H 0.0533 0.58251 0.67378 0.0
C1036 C 0.01517 0.46569 0.57461 0.0
N1037 N 0.02861 0.47023 0.60242 0.0
N1038 N 0.04519 0.49825 0.60694 0.0
C1039 C 0.0425 0.51245 0.58215 0.0
C1040 C 0.02335 0.49218 0.56092 0.0
C1041 C 0.99463 0.43651 0.56139 0.0
H1042 H 0.97502 0.42608 0.57624 0.0
H1043 H 0.98817 0.438 0.5371 0.0
H1044 H 0.00487 0.4228 0.5616 0.0
O1045 O 0.06436 0.44723 0.64116 0.0
O1046 O 0.09338 0.49446 0.64885 0.0
H1047 H 0.05141 0.55133 0.55711 0.0
H1048 H 0.05143 0.55374 0.59933 0.0
C1049 C 0.05739 0.54468 0.57919 0.0
H1050 H 0.08118 0.55369 0.57985 0.0
H1051 H 0.1272 0.55534 0.62293 0.0
O1052 O 0.00096 0.40428 0.61793 0.0
C1053 C 0.08914 0.46879 0.64729 0.0
Co1054 Co 0.55541 0.5852 0.63449 0.0
Co1055 Co 0.48861 0.5598 0.64491 0.0
C1056 C 0.52535 0.55082 0.69154 0.0
O1057 O 0.54817 0.56476 0.67506 0.0
O1058 O 0.50082 0.54672 0.68241 0.0
C1059 C 0.61059 0.58686 0.62499 0.0
O1060 O 0.60064 0.56373 0.64276 0.0
C1061 C 0.42773 0.51868 0.65946 0.0
C1062 C 0.40528 0.53951 0.63731 0.0
C1063 C 0.40073 0.51583 0.65492 0.0
N1064 N 0.44757 0.54312 0.64532 0.0
N1065 N 0.43402 0.55548 0.63214 0.0
C1066 C 0.43459 0.4986 0.67702 0.0
H1067 H 0.45203 0.49683 0.66484 0.0
H1068 H 0.4151 0.47682 0.67952 0.0
H1069 H 0.44256 0.50763 0.70066 0.0
C1070 C 0.53373 0.55216 0.57569 0.0
N1071 N 0.52918 0.56133 0.6033 0.0
N1072 N 0.50112 0.54997 0.60768 0.0
C1073 C 0.48696 0.53279 0.58311 0.0
C1074 C 0.50726 0.53368 0.56217 0.0
C1075 C 0.56286 0.56058 0.56251 0.0
H1076 H 0.5772 0.58439 0.56403 0.0
H1077 H 0.57245 0.55002 0.57648 0.0
H1078 H 0.56137 0.55369 0.53778 0.0
O1079 O 0.55246 0.62012 0.64153 0.0
O1080 O 0.50516 0.60231 0.64849 0.0
H1081 H 0.4457 0.53004 0.57955 0.0
H1082 H 0.44813 0.50178 0.55872 0.0
C1083 C 0.45473 0.51528 0.58019 0.0
H1084 H 0.44569 0.50113 0.60099 0.0
H1085 H 0.44443 0.57494 0.61974 0.0
O1086 O 0.5954 0.59877 0.62021 0.0
C1087 C 0.53093 0.62357 0.64697 0.0
Co1088 Co 0.41132 0.97037 0.63205 0.0
Co1089 Co 0.43767 0.93046 0.64575 0.0
C1090 C 0.44239 0.97524 0.6919 0.0
O1091 O 0.43036 0.98465 0.67314 0.0
O1092 O 0.44669 0.95454 0.68434 0.0
C1093 C 0.40727 0.02019 0.61098 0.0
O1094 O 0.43534 0.03537 0.61592 0.0
C1095 C 0.48055 0.91285 0.6614 0.0
C1096 C 0.45943 0.86838 0.6423 0.0
C1097 C 0.48374 0.88876 0.65819 0.0
N1098 N 0.45531 0.90699 0.64818 0.0
N1099 N 0.44278 0.88034 0.63688 0.0
C1100 C 0.50125 0.94106 0.67637 0.0
H1101 H 0.50081 0.95906 0.66384 0.0
H1102 H 0.52358 0.94447 0.67649 0.0
H1103 H 0.4944 0.94091 0.70089 0.0
C1104 C 0.44792 0.98273 0.57412 0.0
N1105 N 0.43742 0.9694 0.60187 0.0
N1106 N 0.44921 0.95334 0.6083 0.0
C1107 C 0.4678 0.95645 0.58509 0.0
C1108 C 0.46751 0.97524 0.56287 0.0
C1109 C 0.43964 0.00225 0.55771 0.0
H1110 H 0.41679 0.99512 0.56215 0.0
H1111 H 0.45358 0.02476 0.56604 0.0
H1112 H 0.44282 0.00218 0.53208 0.0
O1113 O 0.37722 0.93176 0.63894 0.0
O1114 O 0.39538 0.90282 0.64677 0.0
H1115 H 0.47059 0.91783 0.58499 0.0
H1116 H 0.49852 0.94721 0.56235 0.0
C1117 C 0.48529 0.94161 0.58398 0.0
H1118 H 0.49979 0.9481 0.60461 0.0
H1119 H 0.42283 0.87031 0.62541 0.0
O1120 O 0.39384 0.99357 0.61801 0.0
C1121 C 0.37391 0.90689 0.64442 0.0
Co1122 Co 0.10905 0.36099 0.20718 0.0
Co1123 Co 0.17583 0.3974 0.19381 0.0
C1124 C 0.13627 0.35416 0.14783 0.0
O1125 O 0.11439 0.34721 0.16543 0.0
O1126 O 0.16187 0.37286 0.15615 0.0
C1127 C 0.05565 0.31157 0.22953 0.0
O1128 O 0.06999 0.29745 0.22846 0.0
C1129 C 0.23605 0.42309 0.17142 0.0
C1130 C 0.26037 0.44617 0.21379 0.0
C1131 C 0.2639 0.43917 0.18353 0.0
N1132 N 0.21707 0.41993 0.19391 0.0
N1133 N 0.23179 0.43451 0.21882 0.0
C1134 C 0.22751 0.41194 0.13878 0.0
H1135 H 0.21077 0.41685 0.13022 0.0
H1136 H 0.2178 0.38804 0.13877 0.0
H1137 H 0.24642 0.4217 0.12277 0.0
C1138 C 0.1317 0.34898 0.26673 0.0
N1139 N 0.13525 0.36122 0.23816 0.0
N1140 N 0.16294 0.37387 0.23069 0.0
C1141 C 0.17719 0.36812 0.25321 0.0
C1142 C 0.15792 0.35271 0.27683 0.0
C1143 C 0.10449 0.33548 0.28554 0.0
H1144 H 0.09311 0.31163 0.28265 0.0
H1145 H 0.1095 0.34012 0.31078 0.0
H1146 H 0.0905 0.34409 0.27816 0.0
O1147 O 0.11478 0.39978 0.20075 0.0
O1148 O 0.16194 0.42589 0.1911 0.0
H1149 H 0.22191 0.39508 0.26474 0.0
H1150 H 0.21028 0.35735 0.26271 0.0
C1151 C 0.20798 0.3749 0.25153 0.0
H1152 H 0.21534 0.37734 0.22692 0.0
H1153 H 0.22225 0.436 0.23951 0.0
O1154 O 0.06791 0.33754 0.22001 0.0
C1155 C 0.13714 0.42367 0.19406 0.0
Co1156 Co 0.63922 0.74811 0.20476 0.0
Co1157 Co 0.59705 0.77257 0.19375 0.0
C1158 C 0.64288 0.78202 0.14713 0.0
O1159 O 0.65193 0.7683 0.1638 0.0
O1160 O 0.62248 0.78615 0.1563 0.0
C1161 C 0.69351 0.748 0.21407 0.0
O1162 O 0.706 0.77124 0.1964 0.0
C1163 C 0.57589 0.81274 0.17945 0.0
C1164 C 0.53277 0.79111 0.20194 0.0
C1165 C 0.55146 0.81505 0.18439 0.0
N1166 N 0.57187 0.78838 0.19332 0.0
N1167 N 0.54602 0.77552 0.20667 0.0
C1168 C 0.60263 0.83333 0.16193 0.0
H1169 H 0.60182 0.8244 0.13828 0.0
H1170 H 0.62205 0.83559 0.1741 0.0
H1171 H 0.60433 0.85485 0.15944 0.0
C1172 C 0.64924 0.78059 0.26388 0.0
N1173 N 0.63601 0.77155 0.23598 0.0
N1174 N 0.61915 0.78268 0.23128 0.0
C1175 C 0.6217 0.7997 0.25586 0.0
C1176 C 0.64088 0.79887 0.27726 0.0
C1177 C 0.66983 0.77221 0.2775 0.0
H1178 H 0.66077 0.7485 0.2753 0.0
H1179 H 0.69037 0.7834 0.26428 0.0
H1180 H 0.67439 0.77847 0.30248 0.0
O1181 O 0.6018 0.71267 0.1975 0.0
O1182 O 0.57187 0.72984 0.18972 0.0
H1183 H 0.61368 0.83084 0.27963 0.0
H1184 H 0.61201 0.83109 0.23733 0.0
C1185 C 0.60688 0.81714 0.25831 0.0
H1186 H 0.5831 0.80233 0.25892 0.0
H1187 H 0.53742 0.75606 0.219 0.0
O1188 O 0.66643 0.73549 0.21922 0.0
C1189 C 0.57677 0.70882 0.19144 0.0
Co1190 Co 0.24922 0.88852 0.20446 0.0
Co1191 Co 0.22411 0.82235 0.192 0.0
C1192 C 0.21575 0.86097 0.14668 0.0
O1193 O 0.22799 0.88265 0.16502 0.0
O1194 O 0.21277 0.83639 0.15399 0.0
C1195 C 0.25613 0.94595 0.21178 0.0
O1196 O 0.2367 0.93913 0.18965 0.0
C1197 C 0.18228 0.76135 0.17758 0.0
C1198 C 0.20505 0.73937 0.19601 0.0
C1199 C 0.18023 0.73453 0.18053 0.0
N1200 N 0.2074 0.78134 0.19046 0.0
N1201 N 0.22089 0.76805 0.20145 0.0
C1202 C 0.16077 0.7679 0.16291 0.0
H1203 H 0.16777 0.77561 0.13866 0.0
H1204 H 0.16 0.78541 0.17614 0.0
H1205 H 0.13891 0.7483 0.16212 0.0
C1206 C 0.21578 0.86634 0.26225 0.0
N1207 N 0.22527 0.862 0.2348 0.0
N1208 N 0.21398 0.83403 0.22995 0.0
C1209 C 0.19684 0.81963 0.25449 0.0
C1210 C 0.1975 0.83977 0.27563 0.0
C1211 C 0.22351 0.89543 0.27509 0.0
H1212 H 0.24739 0.90895 0.2771 0.0
H1213 H 0.21583 0.90627 0.25871 0.0
H1214 H 0.21362 0.89376 0.29838 0.0
O1215 O 0.28398 0.88537 0.1958 0.0
O1216 O 0.26648 0.83816 0.18919 0.0
H1217 H 0.19476 0.77857 0.2561 0.0
H1218 H 0.16757 0.7806 0.27967 0.0
C1219 C 0.17983 0.78739 0.25736 0.0
H1220 H 0.16451 0.77829 0.23746 0.0
H1221 H 0.24103 0.7786 0.21251 0.0
O1222 O 0.26381 0.92799 0.22033 0.0
C1223 C 0.28763 0.86396 0.19047 0.0
C1224 C 0.30982 0.1886 0.89222 0.0
C1225 C 0.34015 0.20555 0.88752 0.0
C1226 C 0.34769 0.20693 0.94424 0.0
C1227 C 0.31742 0.19402 0.94899 0.0
N1228 N 0.26973 0.17705 0.92697 0.0
N1229 N 0.38793 0.23552 0.90977 0.0
C1230 C 0.29839 0.1858 0.92286 0.0
C1231 C 0.35918 0.21582 0.91369 0.0
N1232 N 0.29194 0.17471 0.86752 0.0
N1233 N 0.36548 0.21023 0.96883 0.0
H1234 H 0.39735 0.24375 0.88808 0.0
H1235 H 0.40192 0.24598 0.92838 0.0
H1236 H 0.35773 0.20341 0.99144 0.0
H1237 H 0.38736 0.2169 0.96615 0.0
H1238 H 0.26996 0.15976 0.87009 0.0
H1239 H 0.29963 0.17581 0.84484 0.0
H1240 H 0.25572 0.17385 0.90846 0.0
H1241 H 0.26043 0.17575 0.94876 0.0
C1242 C 0.78447 0.14048 0.94446 0.0
C1243 C 0.79838 0.12388 0.9479 0.0
C1244 C 0.80244 0.12252 0.89092 0.0
C1245 C 0.78447 0.13494 0.88754 0.0
N1246 N 0.75447 0.15176 0.91162 0.0
N1247 N 0.81592 0.09439 0.92387 0.0
C1248 C 0.77459 0.14312 0.91443 0.0
C1249 C 0.80635 0.11379 0.92101 0.0
N1250 N 0.78113 0.15416 0.96979 0.0
N1251 N 0.81631 0.11962 0.8655 0.0
H1252 H 0.81815 0.08632 0.94523 0.0
H1253 H 0.81888 0.08402 0.90477 0.0
H1254 H 0.81458 0.12648 0.84316 0.0
H1255 H 0.83189 0.11332 0.8672 0.0
H1256 H 0.77367 0.16883 0.96812 0.0
H1257 H 0.78863 0.15314 0.99203 0.0
H1258 H 0.74429 0.15493 0.93075 0.0
H1259 H 0.74576 0.15305 0.89027 0.0
C1260 C 0.89286 0.65856 0.90535 0.0
C1261 C 0.86759 0.6541 0.88933 0.0
C1262 C 0.85177 0.66766 0.9371 0.0
C1263 C 0.87903 0.67614 0.95121 0.0
N1264 N 0.92896 0.68848 0.94307 0.0
N1265 N 0.82628 0.66126 0.88828 0.0
C1266 C 0.90064 0.67423 0.93371 0.0
C1267 C 0.8479 0.6606 0.9047 0.0
N1268 N 0.90884 0.64676 0.89461 0.0
N1269 N 0.82925 0.66524 0.95462 0.0
H1270 H 0.82396 0.65806 0.86417 0.0
H1271 H 0.81288 0.66825 0.89794 0.0
H1272 H 0.83068 0.66872 0.97869 0.0
H1273 H 0.80832 0.65673 0.9458 0.0
H1274 H 0.92602 0.64773 0.90731 0.0
H1275 H 0.90288 0.63297 0.87537 0.0
H1276 H 0.94555 0.68933 0.92936 0.0
H1277 H 0.93643 0.70248 0.96218 0.0
C1278 C 0.18675 0.30362 0.58398 0.0
C1279 C 0.19557 0.3223 0.55752 0.0
C1280 C 0.21793 0.36457 0.59212 0.0
C1281 C 0.20723 0.34593 0.61857 0.0
N1282 N 0.17588 0.29821 0.6394 0.0
N1283 N 0.21355 0.37024 0.53652 0.0
C1284 C 0.18989 0.31558 0.6144 0.0
C1285 C 0.2093 0.3527 0.56165 0.0
N1286 N 0.17694 0.27469 0.58036 0.0
N1287 N 0.23767 0.39334 0.59581 0.0
H1288 H 0.20712 0.36224 0.51391 0.0
H1289 H 0.22074 0.39228 0.53858 0.0
H1290 H 0.2453 0.40308 0.6175 0.0
H1291 H 0.2486 0.40707 0.57717 0.0
H1292 H 0.17337 0.26078 0.59906 0.0
H1293 H 0.17492 0.26491 0.5587 0.0
H1294 H 0.1606 0.27629 0.63725 0.0
H1295 H 0.17734 0.30629 0.66195 0.0
C1296 C 0.6622 0.84846 0.60107 0.0
C1297 C 0.65492 0.86802 0.61542 0.0
C1298 C 0.67388 0.89977 0.56983 0.0
C1299 C 0.67701 0.87827 0.55352 0.0
N1300 N 0.66852 0.82929 0.55223 0.0
N1301 N 0.64624 0.90821 0.60862 0.0
C1302 C 0.66958 0.85173 0.56873 0.0
C1303 C 0.65852 0.89249 0.59842 0.0
N1304 N 0.66329 0.82755 0.61847 0.0
N1305 N 0.68678 0.92765 0.55911 0.0
H1306 H 0.63307 0.90275 0.62835 0.0
H1307 H 0.64628 0.92461 0.59528 0.0
H1308 H 0.70025 0.93487 0.53958 0.0
H1309 H 0.68702 0.9444 0.57195 0.0
H1310 H 0.67096 0.81439 0.60972 0.0
H1311 H 0.65961 0.82557 0.64251 0.0
H1312 H 0.6607 0.80868 0.56167 0.0
H1313 H 0.67253 0.83036 0.52828 0.0
C1314 C 0.09483 0.77658 0.56945 0.0
C1315 C 0.1162 0.80088 0.55274 0.0
C1316 C 0.147 0.81608 0.59947 0.0
C1317 C 0.12749 0.78947 0.61423 0.0
N1318 N 0.08681 0.74068 0.60825 0.0
N1319 N 0.16543 0.84065 0.55006 0.0
C1320 C 0.10249 0.76862 0.59784 0.0
C1321 C 0.14313 0.81989 0.56724 0.0
N1322 N 0.06689 0.76156 0.55891 0.0
N1323 N 0.16853 0.83805 0.61631 0.0
H1324 H 0.16386 0.84294 0.52607 0.0
H1325 H 0.18628 0.85338 0.55896 0.0
H1326 H 0.17106 0.83654 0.64027 0.0
H1327 H 0.18176 0.85871 0.60718 0.0
H1328 H 0.05017 0.74524 0.57195 0.0
H1329 H 0.05973 0.76762 0.53914 0.0
H1330 H 0.06999 0.72435 0.59531 0.0
H1331 H 0.09269 0.7329 0.6276 0.0
C1332 C 0.64778 0.79017 0.05831 0.0
C1333 C 0.678 0.80227 0.05384 0.0
C1334 C 0.68519 0.80747 0.11066 0.0
C1335 C 0.65478 0.79108 0.11509 0.0
N1336 N 0.60702 0.76222 0.09237 0.0
N1337 N 0.72533 0.81821 0.0763 0.0
C1338 C 0.63595 0.78137 0.08875 0.0
C1339 C 0.69679 0.81007 0.08014 0.0
N1340 N 0.63039 0.78749 0.03356 0.0
N1341 N 0.703 0.82096 0.13554 0.0
H1342 H 0.73472 0.81939 0.0546 0.0
H1343 H 0.7391 0.82104 0.09494 0.0
H1344 H 0.69517 0.81998 0.15813 0.0
H1345 H 0.7251 0.83549 0.13319 0.0
H1346 H 0.60864 0.78143 0.03603 0.0
H1347 H 0.63843 0.79427 0.01102 0.0
H1348 H 0.5931 0.75212 0.0736 0.0
H1349 H 0.59729 0.75403 0.11394 0.0
C1350 C 0.22036 0.89768 0.06927 0.0
C1351 C 0.1957 0.87605 0.05315 0.0
C1352 C 0.18139 0.84613 0.10053 0.0
C1353 C 0.20839 0.86579 0.11454 0.0
N1354 N 0.25703 0.90641 0.1073 0.0
N1355 N 0.15531 0.82709 0.05194 0.0
C1356 C 0.22891 0.89046 0.09752 0.0
C1357 C 0.17683 0.84947 0.06834 0.0
N1358 N 0.23507 0.92557 0.05853 0.0
N1359 N 0.15971 0.82511 0.11811 0.0
H1360 H 0.15216 0.82835 0.02807 0.0
H1361 H 0.14262 0.80643 0.06131 0.0
H1362 H 0.16175 0.82315 0.14209 0.0
H1363 H 0.13881 0.8118 0.10962 0.0
H1364 H 0.25152 0.94242 0.07132 0.0
H1365 H 0.2287 0.93266 0.03898 0.0
H1366 H 0.27311 0.92289 0.09379 0.0
H1367 H 0.26516 0.90116 0.12682 0.0
C1368 C 0.13587 0.34838 0.0589 0.0
C1369 C 0.1185 0.31801 0.05492 0.0
C1370 C 0.11735 0.31133 0.11183 0.0
C1371 C 0.13149 0.34178 0.11587 0.0
N1372 N 0.15049 0.38947 0.09315 0.0
N1373 N 0.08895 0.27055 0.07777 0.0
C1374 C 0.13993 0.36041 0.08938 0.0
C1375 C 0.10834 0.29941 0.08142 0.0
N1376 N 0.14922 0.36568 0.03363 0.0
N1377 N 0.11328 0.29383 0.13694 0.0
H1378 H 0.0815 0.26076 0.05606 0.0
H1379 H 0.07825 0.25669 0.0964 0.0
H1380 H 0.11995 0.30184 0.1595 0.0
H1381 H 0.10591 0.27174 0.13495 0.0
H1382 H 0.16465 0.38757 0.0355 0.0
H1383 H 0.14703 0.35759 0.01098 0.0
H1384 H 0.15369 0.40344 0.07463 0.0
H1385 H 0.15371 0.3994 0.1149 0.0
C1386 C 0.81518 0.66842 0.437 0.0
C1387 C 0.79703 0.67777 0.45079 0.0
C1388 C 0.76635 0.66201 0.40418 0.0
C1389 C 0.78659 0.65634 0.38865 0.0
N1390 N 0.83384 0.66044 0.38869 0.0
N1391 N 0.76024 0.69118 0.44313 0.0
C1392 C 0.81209 0.66134 0.4046 0.0
C1393 C 0.77407 0.67688 0.4331 0.0
N1394 N 0.83451 0.6651 0.45496 0.0
N1395 N 0.73909 0.6519 0.39246 0.0
H1396 H 0.76621 0.70387 0.46328 0.0
H1397 H 0.74517 0.6932 0.42942 0.0
H1398 H 0.73136 0.63904 0.37253 0.0
H1399 H 0.72296 0.65334 0.40476 0.0
H1400 H 0.84637 0.65582 0.44659 0.0
H1401 H 0.83647 0.66885 0.479 0.0
H1402 H 0.85389 0.66639 0.39869 0.0
H1403 H 0.83302 0.6569 0.36466 0.0
C1404 C 0.32623 0.14602 0.43219 0.0
C1405 C 0.31887 0.11947 0.44728 0.0
C1406 C 0.33935 0.1064 0.40332 0.0
C1407 C 0.34274 0.13072 0.38619 0.0
N1408 N 0.33313 0.17043 0.38254 0.0
N1409 N 0.31028 0.07049 0.44158 0.0
C1410 C 0.33434 0.14965 0.40007 0.0
C1411 C 0.32294 0.09845 0.43118 0.0
N1412 N 0.32687 0.16825 0.44867 0.0
N1413 N 0.35304 0.09171 0.39422 0.0
H1414 H 0.2962 0.06281 0.4606 0.0
H1415 H 0.31094 0.05414 0.42885 0.0
H1416 H 0.3675 0.09814 0.37554 0.0
H1417 H 0.3529 0.07537 0.40777 0.0
H1418 H 0.33456 0.18887 0.4393 0.0
H1419 H 0.32284 0.16704 0.47261 0.0
H1420 H 0.32474 0.18306 0.39103 0.0
H1421 H 0.33751 0.1729 0.35863 0.0
C1422 C 0.89591 0.22299 0.43177 0.0
C1423 C 0.87495 0.19864 0.44881 0.0
C1424 C 0.84398 0.18237 0.40217 0.0
C1425 C 0.86316 0.20885 0.387 0.0
N1426 N 0.90317 0.25799 0.39206 0.0
N1427 N 0.82617 0.15813 0.45191 0.0
C1428 C 0.88789 0.23027 0.40317 0.0
C1429 C 0.84809 0.17907 0.43451 0.0
N1430 N 0.92393 0.23853 0.44198 0.0
N1431 N 0.82269 0.15999 0.38558 0.0
H1432 H 0.82799 0.15612 0.47592 0.0
H1433 H 0.80535 0.1449 0.44316 0.0
H1434 H 0.82014 0.16122 0.36158 0.0
H1435 H 0.8097 0.1394 0.39496 0.0
H1436 H 0.94035 0.25489 0.42868 0.0
H1437 H 0.93154 0.23284 0.46166 0.0
H1438 H 0.91984 0.27477 0.4047 0.0
H1439 H 0.89702 0.26504 0.37228 0.0
C1440 C 0.99764 0.51478 0.27051 0.0
C1441 C 0.98944 0.53398 0.28411 0.0
C1442 C 0.00919 0.5657 0.2386 0.0
C1443 C 0.01292 0.54433 0.22283 0.0
N1444 N 0.00517 0.49566 0.22229 0.0
N1445 N 0.9801 0.57363 0.27588 0.0
C1446 C 0.00566 0.51802 0.23837 0.0
C1447 C 0.99314 0.55832 0.26673 0.0
N1448 N -0.00114 0.49418 0.28838 0.0
N1449 N 0.02185 0.59345 0.22755 0.0
H1450 H 0.96613 0.56789 0.29493 0.0
H1451 H 0.98031 0.5899 0.26214 0.0
H1452 H 0.03548 0.60059 0.20814 0.0
H1453 H 0.02164 0.61017 0.23999 0.0
H1454 H 0.00712 0.48137 0.28012 0.0
H1455 H 0.99464 0.49206 0.31232 0.0
H1456 H 0.99747 0.47513 0.23191 0.0
H1457 H 0.0095 0.49671 0.19842 0.0
C1458 C 0.47985 0.4845 0.23816 0.0
C1459 C 0.45364 0.46481 0.22285 0.0
C1460 C 0.43925 0.43297 0.26846 0.0
C1461 C 0.46343 0.45438 0.28537 0.0
N1462 N 0.50322 0.50355 0.288 0.0
N1463 N 0.40459 0.42461 0.2279 0.0
C1464 C 0.48281 0.48109 0.27072 0.0
C1465 C 0.43218 0.4403 0.23929 0.0
N1466 N 0.50232 0.50562 0.22151 0.0
N1467 N 0.42375 0.40517 0.27931 0.0
H1468 H 0.39766 0.43025 0.20765 0.0
H1469 H 0.38774 0.40811 0.24064 0.0
H1470 H 0.42921 0.39804 0.29951 0.0
H1471 H 0.40758 0.38841 0.26615 0.0
H1472 H 0.52275 0.51897 0.23113 0.0
H1473 H 0.50142 0.50765 0.19737 0.0
H1474 H 0.51631 0.52425 0.27888 0.0
H1475 H 0.50476 0.50228 0.31217 0.0
C1476 C 0.51963 0.96789 0.24934 0.0
C1477 C 0.52859 0.98666 0.22296 0.0
C1478 C 0.54975 0.02879 0.25782 0.0
C1479 C 0.53904 0.00998 0.28415 0.0
N1480 N 0.50764 0.96206 0.30446 0.0
N1481 N 0.54582 0.03455 0.20214 0.0
C1482 C 0.52201 0.97964 0.27971 0.0
C1483 C 0.54167 0.01701 0.22723 0.0
N1484 N 0.51047 0.93908 0.24573 0.0
N1485 N 0.56902 0.05765 0.26173 0.0
H1486 H 0.53976 0.02659 0.17946 0.0
H1487 H 0.55253 0.05648 0.20427 0.0
H1488 H 0.57619 0.0674 0.28349 0.0
H1489 H 0.58001 0.07154 0.24321 0.0
H1490 H 0.50687 0.92521 0.2645 0.0
H1491 H 0.50913 0.92944 0.22415 0.0
H1492 H 0.4926 0.9401 0.30204 0.0
H1493 H 0.50845 0.97003 0.32694 0.0
C1494 C 0.4747 0.99372 0.73967 0.0
C1495 C 0.44815 0.98629 0.72459 0.0
C1496 C 0.43353 0.00363 0.77016 0.0
C1497 C 0.45827 0.00743 0.78688 0.0
N1498 N 0.49841 0.99846 0.78933 0.0
N1499 N 0.39855 0.97565 0.73048 0.0
C1500 C 0.47775 0.00023 0.77217 0.0
C1501 C 0.4264 0.98867 0.74128 0.0
N1502 N 0.49745 0.99581 0.72289 0.0
N1503 N 0.41755 0.01552 0.78065 0.0
H1504 H 0.39162 0.96268 0.71054 0.0
H1505 H 0.38162 0.97484 0.74351 0.0
H1506 H 0.42284 0.02854 0.80045 0.0
H1507 H 0.40099 0.01531 0.76744 0.0
H1508 H 0.51802 0.00354 0.73243 0.0
H1509 H 0.49659 0.99297 0.69874 0.0
H1510 H 0.51158 0.991 0.78008 0.0
H1511 H 0.50006 0.00121 0.81353 0.0
C1512 C 0.02742 0.47793 0.74942 0.0
C1513 C 0.00885 0.46965 0.72289 0.0
C1514 C 0.96642 0.44728 0.7573 0.0
C1515 C 0.98501 0.45725 0.78383 0.0
N1516 N 0.03271 0.48819 0.80496 0.0
N1517 N 0.96109 0.45274 0.70185 0.0
C1518 C 0.01538 0.47455 0.7798 0.0
C1519 C 0.97845 0.45631 0.72694 0.0
N1520 N 0.05629 0.48732 0.74592 0.0
N1521 N 0.93755 0.4278 0.76077 0.0
H1522 H 0.96925 0.45952 0.67935 0.0
H1523 H 0.93909 0.4458 0.70388 0.0
H1524 H 0.9277 0.41994 0.78236 0.0
H1525 H 0.9238 0.41735 0.74199 0.0
H1526 H 0.07 0.4904 0.76469 0.0
H1527 H 0.06616 0.48939 0.72433 0.0
H1528 H 0.05467 0.50339 0.80294 0.0
H1529 H 0.02454 0.48659 0.82749 0.0
C1530 C 0.52262 0.54085 0.77995 0.0
C1531 C 0.53968 0.52743 0.78328 0.0
C1532 C 0.54094 0.52332 0.72629 0.0
C1533 C 0.52797 0.54078 0.72303 0.0
N1534 N 0.51048 0.57021 0.74725 0.0
N1535 N 0.56917 0.50991 0.75925 0.0
C1536 C 0.51961 0.55046 0.74996 0.0
C1537 C 0.54976 0.51946 0.75637 0.0
N1538 N 0.50887 0.54395 0.80536 0.0
N1539 N 0.54438 0.50998 0.70069 0.0
H1540 H 0.57703 0.50746 0.78065 0.0
H1541 H 0.57963 0.50701 0.7402 0.0
H1542 H 0.53767 0.51193 0.67835 0.0
H1543 H 0.55108 0.4947 0.70216 0.0
H1544 H 0.49386 0.55098 0.80375 0.0
H1545 H 0.51019 0.53666 0.82761 0.0
H1546 H 0.50731 0.58036 0.76642 0.0
H1547 H 0.50868 0.57865 0.72595 0.0
C1548 C 0.41302 0.34906 0.08301 0.0
C1549 C 0.39926 0.35637 0.10675 0.0
C1550 C 0.35349 0.31125 0.09753 0.0
C1551 C 0.36723 0.30369 0.07351 0.0
N1552 N 0.40733 0.31938 0.03775 0.0
N1553 N 0.3593 0.34196 0.14201 0.0
C1554 C 0.39636 0.32361 0.0649 0.0
C1555 C 0.37025 0.33686 0.11532 0.0
N1556 N 0.44216 0.36602 0.07821 0.0
N1557 N 0.32432 0.29497 0.1029 0.0
H1558 H 0.37119 0.36013 0.15609 0.0
H1559 H 0.33976 0.3269 0.1522 0.0
H1560 H 0.31037 0.27543 0.09221 0.0
H1561 H 0.31292 0.30211 0.11649 0.0
H1562 H 0.45409 0.36013 0.06378 0.0
H1563 H 0.45515 0.38477 0.09095 0.0
H1564 H 0.42722 0.33451 0.02829 0.0
H1565 H 0.39516 0.30224 0.02253 0.0
C1566 C 0.66935 0.03899 0.0541 0.0
C1567 C 0.68952 0.06767 0.06296 0.0
C1568 C 0.65774 0.06502 0.10586 0.0
C1569 C 0.63757 0.03589 0.0974 0.0
N1570 N 0.62845 0.99293 0.06775 0.0
N1571 N 0.70092 0.11042 0.09274 0.0
C1572 C 0.64447 0.02217 0.07278 0.0
C1573 C 0.68311 0.08147 0.08747 0.0
N1574 N 0.67323 0.02834 0.02652 0.0
N1575 N 0.65384 0.0761 0.1331 0.0
H1576 H 0.71965 0.12311 0.07985 0.0
H1577 H 0.69594 0.12258 0.10788 0.0
H1578 H 0.63677 0.06405 0.14845 0.0
H1579 H 0.66901 0.09601 0.14246 0.0
H1580 H 0.65752 0.00905 0.01641 0.0
H1581 H 0.69086 0.04037 0.01179 0.0
H1582 H 0.6353 0.98182 0.05328 0.0
H1583 H 0.60979 0.97867 0.07969 0.0
C1584 C 0.93165 0.60329 0.06784 0.0
C1585 C 0.94201 0.63289 0.07513 0.0
C1586 C 0.97537 0.63125 0.11384 0.0
C1587 C 0.96263 0.60107 0.10863 0.0
N1588 N 0.92611 0.55724 0.08411 0.0
N1589 N 0.97413 0.67533 0.10633 0.0
C1590 C 0.93986 0.58672 0.08681 0.0
C1591 C 0.96419 0.64709 0.0982 0.0
N1592 N 0.91545 0.59151 0.04146 0.0
N1593 N -0.00134 0.64498 0.13352 0.0
H1594 H 0.97096 0.68996 0.09342 0.0
H1595 H 0.98541 0.68453 0.12694 0.0
H1596 H 0.00559 0.63394 0.1481 0.0
H1597 H 0.01206 0.66737 0.13445 0.0
H1598 H 0.90956 0.57091 0.03322 0.0
H1599 H 0.9108 0.60356 0.02568 0.0
H1600 H 0.90732 0.54527 0.07101 0.0
H1601 H 0.93196 0.54443 0.09715 0.0
C1602 C 0.31219 0.3957 0.42005 0.0
C1603 C 0.30553 0.37552 0.44465 0.0
C1604 C 0.35231 0.37775 0.438 0.0
C1605 C 0.35921 0.39804 0.41304 0.0
N1606 N 0.34252 0.4201 0.37529 0.0
N1607 N 0.3216 0.35343 0.48261 0.0
C1608 C 0.33838 0.4056 0.40293 0.0
C1609 C 0.32622 0.36818 0.45505 0.0
N1610 N 0.29378 0.40587 0.41338 0.0
N1611 N 0.36972 0.3664 0.44488 0.0
H1612 H 0.30305 0.34676 0.49618 0.0
H1613 H 0.3373 0.35057 0.49391 0.0
H1614 H 0.38941 0.37237 0.43434 0.0
H1615 H 0.36336 0.34862 0.45951 0.0
H1616 H 0.29892 0.42309 0.39829 0.0
H1617 H 0.27425 0.39894 0.42502 0.0
H1618 H 0.32694 0.42363 0.36478 0.0
H1619 H 0.36029 0.42583 0.36079 0.0
C1620 C 0.60531 0.91564 0.41068 0.0
C1621 C 0.62433 0.92915 0.43617 0.0
C1622 C 0.61591 0.97023 0.43254 0.0
C1623 C 0.59996 0.9585 0.40422 0.0
N1624 N 0.58611 0.92321 0.36271 0.0
N1625 N 0.64989 0.97037 0.47021 0.0
C1626 C 0.59634 0.93197 0.39236 0.0
C1627 C 0.63034 0.9568 0.44662 0.0
N1628 N 0.59577 0.88725 0.4038 0.0
N1629 N 0.61627 0.9932 0.44723 0.0
H1630 H 0.65866 0.9602 0.4835 0.0
H1631 H 0.65858 0.99224 0.47552 0.0
H1632 H 0.6069 0.00472 0.43855 0.0
H1633 H 0.62397 -0.00044 0.46991 0.0
H1634 H 0.5797 0.87566 0.38727 0.0
H1635 H 0.60163 0.87444 0.41676 0.0
H1636 H 0.58572 0.9055 0.3519 0.0
H1637 H 0.58135 0.93553 0.34748 0.0
C1638 C 0.06116 0.65669 0.40408 0.0
C1639 C 0.03156 0.63731 0.41136 0.0
C1640 C 0.03199 0.67369 0.44713 0.0
C1641 C 0.06218 0.69137 0.44219 0.0
N1642 N 0.10666 0.69829 0.41979 0.0
N1643 N 0.98909 0.62691 0.44248 0.0
C1644 C 0.07715 0.68232 0.42201 0.0
C1645 C 0.01693 0.64571 0.43339 0.0
N1646 N 0.07348 0.65162 0.3786 0.0
N1647 N 0.01748 0.68383 0.46475 0.0
H1648 H 0.97527 0.60746 0.43156 0.0
H1649 H 0.97967 0.6301 0.46229 0.0
H1650 H 0.02787 0.70286 0.47785 0.0
H1651 H 0.99499 0.67422 0.46509 0.0
H1652 H 0.09408 0.66635 0.37036 0.0
H1653 H 0.06192 0.63429 0.36339 0.0
H1654 H 0.11902 0.69116 0.40799 0.0
H1655 H 0.11904 0.71756 0.43203 0.0
C1656 C 0.58585 0.6448 0.91836 0.0
C1657 C 0.60114 0.63816 0.89588 0.0
C1658 C 0.64504 0.68484 0.90577 0.0
C1659 C 0.63028 0.69051 0.93035 0.0
N1660 N 0.58937 0.6713 0.96552 0.0
N1661 N 0.64605 0.64981 0.87049 0.0
C1662 C 0.60139 0.66922 0.93811 0.0
C1663 C 0.63096 0.65753 0.89041 0.0
N1664 N 0.55648 0.62779 0.92106 0.0
N1665 N 0.67187 0.7056 0.89567 0.0
H1666 H 0.63618 0.63153 0.8562 0.0
H1667 H 0.66859 0.66067 0.86936 0.0
H1668 H 0.68493 0.72534 0.90647 0.0
H1669 H 0.68091 0.70401 0.87471 0.0
H1670 H 0.54392 0.63338 0.93488 0.0
H1671 H 0.54427 0.60952 0.9073 0.0
H1672 H 0.56946 0.65501 0.97381 0.0
H1673 H 0.6008 0.68758 0.98192 0.0
C1674 C 0.32254 0.95669 0.9543 0.0
C1675 C 0.303 0.92901 0.94213 0.0
C1676 C 0.33849 0.93423 0.90254 0.0
C1677 C 0.35812 0.96238 0.91428 0.0
N1678 N 0.36585 0.00286 0.9474 0.0
N1679 N 0.29389 0.88847 0.90963 0.0
C1680 C 0.34941 0.97435 0.93907 0.0
C1681 C 0.31146 0.91683 0.91778 0.0
N1682 N 0.31593 0.96542 0.98167 0.0
N1683 N 0.34464 0.92516 0.87514 0.0
H1684 H 0.27398 0.87516 0.92029 0.0
H1685 H 0.30005 0.87724 0.89448 0.0
H1686 H 0.36314 0.93804 0.86192 0.0
H1687 H 0.33012 0.90625 0.86351 0.0
H1688 H 0.33061 0.98366 0.99419 0.0
H1689 H 0.29665 0.95271 0.99383 0.0
H1690 H 0.35846 0.01335 0.96208 0.0
H1691 H 0.38577 0.01732 0.9378 0.0
C1692 C 0.03597 0.349 0.90385 0.0
C1693 C 0.05759 0.36381 0.92736 0.0
C1694 C 0.05927 0.40943 0.91376 0.0
C1695 C 0.03663 0.39437 0.89192 0.0
N1696 N 0.0017 0.34985 0.8672 0.0
N1697 N 0.08335 0.40601 0.96015 0.0
C1698 C 0.02458 0.3642 0.88727 0.0
C1699 C 0.06755 0.3935 0.9337 0.0
N1700 N 0.02675 0.32079 0.89621 0.0
N1701 N 0.07278 0.43894 0.91565 0.0
H1702 H 0.08804 0.39451 0.97662 0.0
H1703 H 0.08882 0.42669 0.96772 0.0
H1704 H 0.06693 0.45137 0.90197 0.0
H1705 H 0.09148 0.45132 0.92876 0.0
H1706 H 0.01583 0.31119 0.87555 0.0
H1707 H 0.03042 0.30662 0.90938 0.0
H1708 H 0.9886 0.32741 0.8666 0.0
H1709 H 0.99485 0.36046 0.85188 0.0
C1710 C 0.66005 0.62964 0.62041 0.0
C1711 C 0.64017 0.60077 0.6117 0.0
C1712 C 0.67282 0.60314 0.56999 0.0
C1713 C 0.693 0.63219 0.57862 0.0
N1714 N 0.70219 0.67531 0.60781 0.0
N1715 N 0.62978 0.55772 0.58304 0.0
C1716 C 0.68569 0.64615 0.6026 0.0
C1717 C 0.64721 0.58679 0.58796 0.0
N1718 N 0.65517 0.64069 0.64713 0.0
N1719 N 0.67699 0.59199 0.54295 0.0
H1720 H 0.61088 0.54501 0.59567 0.0
H1721 H 0.63533 0.54556 0.56858 0.0
H1722 H 0.69427 0.60397 0.52782 0.0
H1723 H 0.66176 0.57216 0.53347 0.0
H1724 H 0.67045 0.66011 0.65736 0.0
H1725 H 0.63694 0.62894 0.66118 0.0
H1726 H 0.69539 0.68686 0.62164 0.0
H1727 H 0.72145 0.68914 0.59655 0.0
C1728 C 0.37177 0.01892 0.57003 0.0
C1729 C 0.39204 0.03358 0.59478 0.0
C1730 C 0.39131 0.07823 0.58253 0.0
C1731 C 0.3695 0.06302 0.55991 0.0
N1732 N 0.33674 0.01852 0.53362 0.0
N1733 N 0.41407 0.07458 0.62982 0.0
C1734 C 0.35912 0.03328 0.55416 0.0
C1735 C 0.39997 0.06258 0.60238 0.0
N1736 N 0.36515 0.99179 0.56046 0.0
N1737 N 0.40369 0.1076 0.58529 0.0
H1738 H 0.41875 0.06309 0.64632 0.0
H1739 H 0.4179 0.09459 0.63803 0.0
H1740 H 0.39769 0.11984 0.57147 0.0
H1741 H 0.42177 0.12012 0.59921 0.0
H1742 H 0.35504 0.98285 0.53924 0.0
H1743 H 0.37055 0.97817 0.57225 0.0
H1744 H 0.3249 0.996 0.53218 0.0
H1745 H 0.3289 0.02869 0.51894 0.0
C1746 C 0.96998 0.33893 0.61501 0.0
C1747 C 0.95956 0.35836 0.60969 0.0
C1748 C 0.92947 0.328 0.56666 0.0
C1749 C 0.9369 0.30656 0.57426 0.0
N1750 N 0.96338 0.29117 0.60864 0.0
N1751 N 0.92567 0.36912 0.58414 0.0
C1752 C 0.95712 0.31192 0.59903 0.0
C1753 C 0.938 0.35208 0.58682 0.0
N1754 N 0.99246 0.34636 0.63534 0.0
N1755 N 0.91586 0.32639 0.53901 0.0
H1756 H 0.93152 0.3872 0.59816 0.0
H1757 H 0.90774 0.36373 0.57002 0.0
H1758 H 0.91137 0.31042 0.52232 0.0
H1759 H 0.91238 0.34282 0.53086 0.0
H1760 H 0.00421 0.33556 0.63648 0.0
H1761 H 0.00053 0.36434 0.65005 0.0
H1762 H 0.97358 0.29231 0.62979 0.0
H1763 H 0.9575 0.27195 0.59706 0.0
C1764 C 0.9884 0.73146 0.77061 0.0
C1765 C 0.96881 0.7026 0.76073 0.0
C1766 C 0.00223 0.70763 0.71845 0.0
C1767 C 0.02185 0.73596 0.72885 0.0
N1768 N 0.03182 0.77748 0.76006 0.0
N1769 N 0.96098 0.66097 0.72945 0.0
C1770 C 0.01437 0.74873 0.75348 0.0
C1771 C 0.97671 0.68998 0.73585 0.0
N1772 N 0.98333 0.74144 0.79802 0.0
N1773 N 0.00738 0.69814 0.69075 0.0
H1774 H 0.94212 0.64623 0.74075 0.0
H1775 H 0.96826 0.65047 0.71461 0.0
H1776 H 0.0256 0.71083 0.67701 0.0
H1777 H 0.99224 0.6792 0.67957 0.0
H1778 H 0.99798 0.76107 0.80833 0.0
H1779 H 0.96575 0.72875 0.81252 0.0
H1780 H 0.02622 0.78901 0.77543 0.0
H1781 H 0.05093 0.79071 0.74797 0.0
C1782 C 0.26321 0.26262 0.77645 0.0
C1783 C 0.28978 0.26599 0.76501 0.0
C1784 C 0.2888 0.29657 0.7224 0.0
C1785 C 0.26108 0.29076 0.73239 0.0
N1786 N 0.21868 0.26209 0.76402 0.0
N1787 N 0.32461 0.28168 0.7222 0.0
C1788 C 0.24717 0.27166 0.75771 0.0
C1789 C 0.3018 0.2818 0.73669 0.0
N1790 N 0.25412 0.25259 0.80608 0.0
N1791 N 0.30285 0.31625 0.69907 0.0
H1792 H 0.3355 0.27163 0.73092 0.0
H1793 H 0.33131 0.2895 0.69963 0.0
H1794 H 0.29308 0.32545 0.68579 0.0
H1795 H 0.32473 0.32465 0.69401 0.0
H1796 H 0.23635 0.25236 0.81652 0.0
H1797 H 0.26625 0.24788 0.82166 0.0
H1798 H 0.20687 0.24604 0.78049 0.0
H1799 H 0.20603 0.26782 0.75056 0.0
C1800 C 0.71463 0.02175 0.73664 0.0
C1801 C 0.72972 0.02599 0.76561 0.0
C1802 C 0.7268 0.97887 0.75878 0.0
C1803 C 0.70849 0.97315 0.7326 0.0
N1804 N 0.68286 0.98792 0.69755 0.0
N1805 N 0.74352 0.00486 0.80753 0.0
C1806 C 0.70176 0.99422 0.7219 0.0
C1807 C 0.73413 0.00358 0.77751 0.0
N1808 N 0.71357 0.04403 0.72204 0.0
N1809 N 0.7372 0.96077 0.76587 0.0
H1810 H 0.74701 0.0214 0.82301 0.0
H1811 H 0.74443 0.98778 0.81827 0.0
H1812 H 0.73274 0.94278 0.75231 0.0
H1813 H 0.75275 0.96541 0.7831 0.0
H1814 H 0.70666 0.04287 0.69904 0.0
H1815 H 0.72158 0.06461 0.73122 0.0
H1816 H 0.67354 0.00047 0.69187 0.0
H1817 H 0.67526 0.96928 0.68392 0.0
C1818 C 0.27269 0.00884 0.26542 0.0
C1819 C 0.30223 0.02836 0.25813 0.0
C1820 C 0.30138 0.99309 0.22034 0.0
C1821 C 0.27123 0.97529 0.22546 0.0
N1822 N 0.22702 0.9677 0.24936 0.0
N1823 N 0.34471 0.03934 0.22677 0.0
C1824 C 0.25649 0.98372 0.24678 0.0
C1825 C 0.31671 0.0205 0.23532 0.0
N1826 N 0.26061 0.01329 0.29152 0.0
N1827 N 0.31558 0.98358 0.20132 0.0
H1828 H 0.35878 0.05796 0.2389 0.0
H1829 H 0.3541 0.03697 0.20648 0.0
H1830 H 0.30493 0.96518 0.18729 0.0
H1831 H 0.33804 0.99307 0.20052 0.0
H1832 H 0.24009 0.99839 0.2998 0.0
H1833 H 0.27235 0.03026 0.3071 0.0
H1834 H 0.2148 0.97452 0.26198 0.0
H1835 H 0.21444 0.94872 0.23674 0.0
C1836 C 0.00627 0.26813 0.23638 0.0
C1837 C 0.02604 0.29765 0.24351 0.0
C1838 C 0.99045 0.29774 0.28017 0.0
C1839 C 0.97244 0.26756 0.27544 0.0
N1840 N 0.9647 0.22288 0.25259 0.0
N1841 N 0.03739 0.34034 0.27472 0.0
C1842 C 0.98091 0.25237 0.25479 0.0
C1843 C 0.01821 0.31253 0.26585 0.0
N1844 N 0.01074 0.25565 0.21065 0.0
N1845 N 0.98092 0.31249 0.29828 0.0
H1846 H 0.05676 0.35394 0.26352 0.0
H1847 H 0.03468 0.34993 0.29466 0.0
H1848 H 0.96222 0.30228 0.31192 0.0
H1849 H 0.99071 0.33498 0.29856 0.0
H1850 H 0.99568 0.23514 0.20248 0.0
H1851 H 0.02791 0.26705 0.1952 0.0
H1852 H 0.97154 0.2104 0.24052 0.0
H1853 H 0.94554 0.21058 0.26501 0.0
C1854 C 0.73824 0.7325 0.27108 0.0
C1855 C 0.7341 0.70558 0.25981 0.0
C1856 C 0.70362 0.70707 0.21739 0.0
C1857 C 0.71019 0.73508 0.22717 0.0
N1858 N 0.73973 0.77746 0.25847 0.0
N1859 N 0.71715 0.67023 0.21755 0.0
C1860 C 0.72957 0.74884 0.25232 0.0
C1861 C 0.7179 0.69358 0.23172 0.0
N1862 N 0.7486 0.74165 0.3006 0.0
N1863 N 0.68362 0.6932 0.19428 0.0
H1864 H 0.7267 0.65897 0.22652 0.0
H1865 H 0.70903 0.66335 0.19511 0.0
H1866 H 0.67465 0.70324 0.18109 0.0
H1867 H 0.67473 0.67123 0.18935 0.0
H1868 H 0.74938 0.75973 0.31095 0.0
H1869 H 0.75301 0.72935 0.31623 0.0
H1870 H 0.75597 0.78914 0.2748 0.0
H1871 H 0.73425 0.79029 0.24498 0.0
C1872 C 0.30195 0.15857 0.16821 0.0
C1873 C 0.31958 0.16838 0.1411 0.0
C1874 C 0.36176 0.17585 0.17162 0.0
C1875 C 0.34368 0.16398 0.19815 0.0
N1876 N 0.2962 0.14114 0.2216 0.0
N1877 N 0.36488 0.18219 0.11534 0.0
C1878 C 0.31363 0.15447 0.19641 0.0
C1879 C 0.34916 0.17594 0.14236 0.0
N1880 N 0.2744 0.15422 0.16726 0.0
N1881 N 0.39104 0.18727 0.1745 0.0
H1882 H 0.35631 0.18226 0.09343 0.0
H1883 H 0.3856 0.1849 0.11412 0.0
H1884 H 0.40095 0.18682 0.19535 0.0
H1885 H 0.40579 0.19915 0.15698 0.0
H1886 H 0.26153 0.15027 0.18697 0.0
H1887 H 0.26498 0.15653 0.14689 0.0
H1888 H 0.27367 0.13053 0.22071 0.0
H1889 H 0.30418 0.13918 0.24318 0.0
C1890 C 0.83067 0.13519 0.16698 0.0
C1891 C 0.82859 0.14784 0.13865 0.0
C1892 C 0.82833 0.18739 0.16768 0.0
C1893 C 0.83216 0.17569 0.19587 0.0
N1894 N 0.84005 0.14049 0.2228 0.0
N1895 N 0.82916 0.18744 0.11092 0.0
C1896 C 0.8342 0.15013 0.19564 0.0
C1897 C 0.82847 0.17439 0.13869 0.0
N1898 N 0.82838 0.10846 0.16649 0.0
N1899 N 0.82412 0.21067 0.16876 0.0
H1900 H 0.82902 0.17837 0.08927 0.0
H1901 H 0.8321 0.20821 0.10912 0.0
H1902 H 0.82461 0.22117 0.18951 0.0
H1903 H 0.81809 0.21841 0.14953 0.0
H1904 H 0.82622 0.0964 0.18646 0.0
H1905 H 0.82695 0.09743 0.14583 0.0
H1906 H 0.84533 0.12417 0.22376 0.0
H1907 H 0.84121 0.14993 0.2445 0.0
C1908 C 0.8485 0.67066 0.19993 0.0
C1909 C 0.82183 0.64418 0.19985 0.0
C1910 C 0.82465 0.64108 0.14287 0.0
C1911 C 0.8494 0.66925 0.1427 0.0
N1912 N 0.8834 0.71244 0.17033 0.0
N1913 N 0.78303 0.60477 0.1717 0.0
C1914 C 0.861 0.68446 0.17107 0.0
C1915 C 0.80957 0.62941 0.17143 0.0
N1916 N 0.86188 0.68246 0.22772 0.0
N1917 N 0.81594 0.62529 0.11586 0.0
H1918 H 0.77204 0.59496 0.19232 0.0
H1919 H 0.77121 0.5949 0.15157 0.0
H1920 H 0.82604 0.63341 0.09438 0.0
H1921 H 0.80005 0.6035 0.11503 0.0
H1922 H 0.88268 0.70028 0.22942 0.0
H1923 H 0.85318 0.67277 0.24922 0.0
H1924 H 0.89084 0.72577 0.18992 0.0
H1925 H 0.89318 0.7232 0.1496 0.0
C1926 C 0.15943 0.30268 0.33937 0.0
C1927 C 0.17096 0.32205 0.36506 0.0
C1928 C 0.17395 0.3616 0.33287 0.0
C1929 C 0.16377 0.34258 0.30684 0.0
N1930 N 0.15035 0.29648 0.28346 0.0
N1931 N 0.19204 0.37036 0.38615 0.0
C1932 C 0.15744 0.31348 0.30959 0.0
C1933 C 0.17912 0.35167 0.36174 0.0
N1934 N 0.15012 0.27389 0.34359 0.0
N1935 N 0.17763 0.38882 0.33023 0.0
H1936 H 0.19449 0.36363 0.40826 0.0
H1937 H 0.2018 0.39276 0.38421 0.0
H1938 H 0.17482 0.39711 0.30927 0.0
H1939 H 0.18169 0.40266 0.34909 0.0
H1940 H 0.13838 0.25801 0.32699 0.0
H1941 H 0.15259 0.2654 0.36456 0.0
H1942 H 0.14844 0.27608 0.28301 0.0
H1943 H 0.14842 0.30363 0.26137 0.0
C1944 C 0.64681 0.82203 0.36258 0.0
C1945 C 0.67636 0.84413 0.36378 0.0
C1946 C 0.68117 0.8391 0.30748 0.0
C1947 C 0.65231 0.81553 0.30673 0.0
N1948 N 0.60856 0.78191 0.33371 0.0
N1949 N 0.72293 0.87146 0.33884 0.0
C1950 C 0.6353 0.80632 0.33431 0.0
C1951 C 0.69394 0.85195 0.33664 0.0
N1952 N 0.62965 0.81638 0.38838 0.0
N1953 N 0.69602 0.8498 0.28011 0.0
H1954 H 0.73288 0.88194 0.35963 0.0
H1955 H 0.73757 0.87569 0.32075 0.0
H1956 H 0.68725 0.84108 0.25829 0.0
H1957 H 0.71598 0.86877 0.27863 0.0
H1958 H 0.60723 0.80316 0.38804 0.0
H1959 H 0.63765 0.82628 0.40997 0.0
H1960 H 0.59641 0.77207 0.35365 0.0
H1961 H 0.59919 0.77022 0.31331 0.0
C1962 C 0.18112 0.83335 0.36278 0.0
C1963 C 0.15459 0.83354 0.36262 0.0
C1964 C 0.15428 0.83346 0.3053 0.0
C1965 C 0.18161 0.83496 0.30548 0.0
N1966 N 0.2229 0.83957 0.33356 0.0
N1967 N 0.11738 0.83733 0.33471 0.0
C1968 C 0.19555 0.83576 0.33402 0.0
C1969 C 0.14161 0.83468 0.33412 0.0
N1970 N 0.19211 0.83015 0.39043 0.0
N1971 N 0.14026 0.83031 0.27754 0.0
H1972 H 0.10727 0.83778 0.3554 0.0
H1973 H 0.10843 0.84127 0.31499 0.0
H1974 H 0.14911 0.8297 0.256 0.0
H1975 H 0.11903 0.82611 0.27578 0.0
H1976 H 0.20933 0.82621 0.39197 0.0
H1977 H 0.183 0.82992 0.41208 0.0
H1978 H 0.23574 0.84386 0.35338 0.0
H1979 H 0.23356 0.84002 0.31294 0.0
C1980 C 0.63468 0.82648 0.83394 0.0
C1981 C 0.65092 0.83258 0.80594 0.0
C1982 C 0.69069 0.83213 0.83446 0.0
C1983 C 0.6753 0.82813 0.86277 0.0
N1984 N 0.63458 0.82494 0.89069 0.0
N1985 N 0.69516 0.84383 0.77919 0.0
C1986 C 0.64777 0.82621 0.86285 0.0
C1987 C 0.67917 0.83612 0.8061 0.0
N1988 N 0.60662 0.82065 0.83277 0.0
N1989 N 0.71585 0.83115 0.83459 0.0
H1990 H 0.68685 0.84518 0.75757 0.0
H1991 H 0.71711 0.85039 0.77843 0.0
H1992 H 0.7254 0.82916 0.85503 0.0
H1993 H 0.72639 0.83045 0.81443 0.0
H1994 H 0.59251 0.81306 0.85171 0.0
H1995 H 0.59661 0.82133 0.81209 0.0
H1996 H 0.61594 0.82648 0.89272 0.0
H1997 H 0.64353 0.82459 0.91226 0.0
C1998 C 0.16008 0.8577 0.83368 0.0
C1999 C 0.16386 0.8462 0.86201 0.0
C2000 C 0.16396 0.80634 0.8334 0.0
C2001 C 0.16198 0.81887 0.80493 0.0
N2002 N 0.16193 0.85803 0.77694 0.0
N2003 N 0.1724 0.81161 0.88937 0.0
C2004 C 0.16113 0.84504 0.80479 0.0
C2005 C 0.16664 0.82105 0.86202 0.0
N2006 N 0.15506 0.88046 0.83452 0.0
N2007 N 0.1624 0.77993 0.83306 0.0
H2008 H 0.17284 0.82079 0.91104 0.0
H2009 H 0.17826 0.79571 0.89055 0.0
H2010 H 0.16173 0.76916 0.81245 0.0
H2011 H 0.16014 0.76788 0.85307 0.0
H2012 H 0.14917 0.88809 0.81509 0.0
H2013 H 0.15462 0.89051 0.85528 0.0
H2014 H 0.16428 0.87856 0.77505 0.0
H2015 H 0.16257 0.84923 0.75538 0.0
C2016 C 0.15702 0.31852 0.80949 0.0
C2017 C 0.18015 0.34768 0.8093 0.0
C2018 C 0.17459 0.35135 0.86582 0.0
C2019 C 0.15068 0.32267 0.86571 0.0
N2020 N 0.1168 0.27972 0.83774 0.0
N2021 N 0.20929 0.39311 0.8358 0.0
C2022 C 0.14131 0.30641 0.83762 0.0
C2023 C 0.18842 0.36449 0.83707 0.0
N2024 N 0.15036 0.30232 0.78278 0.0
N2025 N 0.18446 0.36568 0.89361 0.0
H2026 H 0.22054 0.40316 0.8154 0.0
H2027 H 0.2143 0.40751 0.85429 0.0
H2028 H 0.17457 0.35684 0.91498 0.0
H2029 H 0.20353 0.38542 0.89601 0.0
H2030 H 0.13647 0.28001 0.78208 0.0
H2031 H 0.15979 0.31095 0.76118 0.0
H2032 H 0.10666 0.26807 0.81764 0.0
H2033 H 0.1054 0.26969 0.85809 0.0
C2034 C 0.8209 0.6308 0.67172 0.0
C2035 C 0.82979 0.64824 0.69898 0.0
C2036 C 0.83663 0.69025 0.66859 0.0
C2037 C 0.82634 0.67248 0.64162 0.0
N2038 N 0.80525 0.62529 0.61763 0.0
N2039 N 0.84155 0.69282 0.72509 0.0
C2040 C 0.8174 0.64254 0.64325 0.0
C2041 C 0.83636 0.67751 0.69789 0.0
N2042 N 0.8169 0.6034 0.67282 0.0
N2043 N 0.84698 0.71938 0.66606 0.0
H2044 H 0.84134 0.68406 0.74696 0.0
H2045 H 0.84364 0.71327 0.72644 0.0
H2046 H 0.84661 0.72932 0.6452 0.0
H2047 H 0.85778 0.7341 0.68398 0.0
H2048 H 0.81383 0.59073 0.65312 0.0
H2049 H 0.81836 0.5938 0.69347 0.0
H2050 H 0.79507 0.60279 0.61824 0.0
H2051 H 0.80383 0.63335 0.59589 0.0
C2052 C 0.35551 0.19232 0.66739 0.0
C2053 C 0.34455 0.1773 0.69602 0.0
C2054 C 0.30675 0.13535 0.66775 0.0
C2055 C 0.31866 0.14973 0.63904 0.0
N2056 N 0.35652 0.18997 0.61078 0.0
N2057 N 0.31275 0.13344 0.72383 0.0
C2058 C 0.34365 0.17773 0.63864 0.0
C2059 C 0.32109 0.14841 0.69627 0.0
N2060 N 0.37681 0.22079 0.66779 0.0
N2061 N 0.28127 0.10952 0.66767 0.0
H2062 H 0.32256 0.14253 0.74516 0.0
H2063 H 0.29777 0.11141 0.72537 0.0
H2064 H 0.27025 0.09938 0.64716 0.0
H2065 H 0.26977 0.0992 0.68779 0.0
H2066 H 0.38325 0.23409 0.64814 0.0
H2067 H 0.38713 0.2317 0.68828 0.0
H2068 H 0.37664 0.20872 0.60896 0.0
H2069 H 0.34792 0.18037 0.58921 0.0
C2070 C 0.81782 0.16614 0.64109 0.0
C2071 C 0.84562 0.16872 0.64102 0.0
C2072 C 0.84649 0.16931 0.69836 0.0
C2073 C 0.81929 0.1681 0.69836 0.0
N2074 N 0.78053 0.1692 0.67069 0.0
N2075 N 0.88807 0.17568 0.66861 0.0
C2076 C 0.8054 0.16768 0.66995 0.0
C2077 C 0.86041 0.17107 0.66943 0.0
N2078 N 0.80316 0.16172 0.61353 0.0
N2079 N 0.85852 0.16788 0.72608 0.0
H2080 H 0.89832 0.17547 0.64793 0.0
H2081 H 0.90147 0.18115 0.68811 0.0
H2082 H 0.8497 0.16819 0.74775 0.0
H2083 H 0.8764 0.165 0.72776 0.0
H2084 H 0.78167 0.15675 0.61203 0.0
H2085 H 0.81182 0.16089 0.59196 0.0
H2086 H 0.77064 0.17179 0.65096 0.0
H2087 H 0.77082 0.17014 0.69149 0.0
C2088 C 0.98332 0.49163 0.52962 0.0
C2089 C 0.01222 0.49705 0.53102 0.0
C2090 C 0.01841 0.50868 0.47506 0.0
C2091 C 0.98886 0.50113 0.47326 0.0
N2092 N 0.94192 0.48174 0.49732 0.0
N2093 N 0.05628 0.50694 0.50488 0.0
C2094 C 0.97091 0.49144 0.50013 0.0
C2095 C 0.02956 0.50463 0.50369 0.0
N2096 N 0.96809 0.4876 0.55667 0.0
N2097 N 0.03593 0.5202 0.44952 0.0
H2098 H 0.06538 0.50469 0.52554 0.0
H2099 H 0.06865 0.5091 0.48518 0.0
H2100 H 0.02823 0.52216 0.42776 0.0
H2101 H 0.05835 0.5294 0.45027 0.0
H2102 H 0.94806 0.48653 0.55764 0.0
H2103 H 0.97657 0.48781 0.57872 0.0
H2104 H 0.92706 0.47144 0.51526 0.0
H2105 H 0.93222 0.48191 0.47621 0.0
C2106 C 0.50554 0.49245 0.53238 0.0
C2107 C 0.50244 0.51738 0.53261 0.0
C2108 C 0.49352 0.51294 0.47616 0.0
C2109 C 0.49831 0.48903 0.47566 0.0
N2110 N 0.5125 0.45803 0.5018 0.0
N2111 N 0.49731 0.55393 0.50495 0.0
C2112 C 0.50548 0.47942 0.50336 0.0
C2113 C 0.49742 0.52833 0.50455 0.0
N2114 N 0.50764 0.48076 0.56006 0.0
N2115 N 0.48472 0.52057 0.44955 0.0
H2116 H 0.49926 0.56536 0.52545 0.0
H2117 H 0.49716 0.5649 0.48489 0.0
H2118 H 0.48327 0.51095 0.4279 0.0
H2119 H 0.47733 0.53533 0.44913 0.0
H2120 H 0.50695 0.46096 0.56185 0.0
H2121 H 0.50779 0.48977 0.58175 0.0
H2122 H 0.52091 0.45209 0.52049 0.0
H2123 H 0.51196 0.44754 0.48103 0.0
C2124 C 0.48378 0.9861 0.47599 0.0
C2125 C 0.51144 0.01153 0.47607 0.0
C2126 C 0.511 0.01255 0.53343 0.0
C2127 C 0.48427 0.98604 0.53334 0.0
N2128 N 0.44688 0.9453 0.50538 0.0
N2129 N 0.5532 0.0474 0.50421 0.0
C2130 C 0.47117 0.97212 0.5048 0.0
C2131 C 0.52555 0.02436 0.50464 0.0
N2132 N 0.46945 0.97565 0.44831 0.0
N2133 N 0.52205 0.02682 0.56101 0.0
H2134 H 0.564 0.05745 0.48359 0.0
H2135 H 0.56608 0.05557 0.52406 0.0
H2136 H 0.51273 0.01817 0.58267 0.0
H2137 H 0.53949 0.04786 0.56243 0.0
H2138 H 0.44807 0.95892 0.4467 0.0
H2139 H 0.47821 0.98531 0.42682 0.0
H2140 H 0.43776 0.9326 0.48558 0.0
H2141 H 0.43707 0.93459 0.52612 0.0
C2142 C 0.50789 0.01503 0.03109 0.0
C2143 C 0.5016 0.98582 0.03172 0.0
C2144 C 0.48916 0.98071 0.97597 0.0
C2145 C 0.49716 0.01043 0.97495 0.0
N2146 N 0.51768 0.05706 0.99993 0.0
N2147 N 0.48998 0.94175 0.00456 0.0
C2148 C 0.50767 0.02797 1.00206 0.0
C2149 C 0.49316 0.96885 0.0041 0.0
N2150 N 0.51308 0.03006 0.0585 0.0
N2151 N 0.4773 0.96372 0.95011 0.0
H2152 H 0.49204 0.93211 0.02489 0.0
H2153 H 0.48717 0.92948 0.98458 0.0
H2154 H 0.4757 0.97196 0.92855 0.0
H2155 H 0.46764 0.94125 0.95032 0.0
H2156 H 0.51485 0.05035 0.06021 0.0
H2157 H 0.51326 0.02123 0.0802 0.0
H2158 H 0.52855 0.07166 0.01792 0.0
H2159 H 0.5171 0.06711 0.97924 0.0
C2160 C 0.97333 0.46944 0.00394 0.0
C2161 C 0.9879 0.48133 0.97532 0.0
C2162 C 0.02745 0.52209 0.00347 0.0
C2163 C 0.01358 0.50941 0.03218 0.0
N2164 N 0.97578 0.46946 0.06068 0.0
N2165 N 0.0301 0.51682 0.94739 0.0
C2166 C 0.9872 0.48258 0.03266 0.0
C2167 C 0.01536 0.50705 0.97497 0.0
N2168 N 0.946 0.44587 0.00356 0.0
N2169 N 0.05169 0.54896 0.00345 0.0
H2170 H 0.02132 0.50733 0.92585 0.0
H2171 H 0.05161 0.53328 0.94591 0.0
H2172 H 0.06184 0.56004 0.02392 0.0
H2173 H 0.06089 0.56107 0.98332 0.0
H2174 H 0.93285 0.43789 0.02323 0.0
H2175 H 0.93548 0.43532 0.98301 0.0
H2176 H 0.95821 0.44857 0.06282 0.0
H2177 H 0.98534 0.47863 0.08209 0.0
C2178 C 0.47494 0.4994 0.00284 0.0
C2179 C 0.48654 0.49517 0.03087 0.0
C2180 C 0.52668 0.49621 1.00179 0.0
C2181 C 0.51405 0.49855 0.97358 0.0
N2182 N 0.47468 0.49871 0.94608 0.0
N2183 N 0.52135 0.48648 0.05752 0.0
C2184 C 0.48773 0.49913 0.97377 0.0
C2185 C 0.51185 0.49271 0.03049 0.0
N2186 N 0.45196 0.50408 0.00413 0.0
N2187 N 0.55329 0.4982 1.00117 0.0
H2188 H 0.512 0.48532 0.07927 0.0
H2189 H 0.53744 0.48085 0.05829 0.0
H2190 H 0.56429 0.49969 0.98047 0.0
H2191 H 0.56533 0.50015 0.0211 0.0
H2192 H 0.44434 0.51036 0.985 0.0
H2193 H 0.44166 0.50376 0.02498 0.0
H2194 H 0.45404 0.49611 0.94441 0.0
H2195 H 0.48361 0.49873 0.92438 0.0
C2196 C 0.21347 0.01768 0.02919 0.0
C2197 C 0.21462 0.0382 0.00732 0.0
C2198 C 0.2057 0.00421 0.9644 0.0
C2199 C 0.20159 0.9828 0.98664 0.0
N2200 N 0.19745 0.96739 0.04042 0.0
N2201 N 0.20814 0.05021 0.95466 0.0
C2202 C 0.20423 0.98901 0.01913 0.0
C2203 C 0.20988 0.03134 0.97499 0.0
N2204 N 0.22231 0.02593 0.05934 0.0
N2205 N 0.20582 -0.00135 0.93322 0.0
H2206 H 0.21094 0.07022 0.96156 0.0
H2207 H 0.2017 0.04519 0.93145 0.0
H2208 H 0.20179 0.97862 0.92473 0.0
H2209 H 0.21186 0.01439 0.91594 0.0
H2210 H 0.22493 0.01282 0.07552 0.0
H2211 H 0.22974 0.04694 0.06748 0.0
H2212 H 0.19582 0.96989 0.06434 0.0
H2213 H 0.19111 0.94614 0.03409 0.0
C2214 C 0.97092 0.19406 0.02291 0.0
C2215 C 0.95608 0.16877 0.00433 0.0
C2216 C 0.99634 0.18829 0.96678 0.0
C2217 C 0.01177 0.21285 0.98626 0.0
N2218 N 0.01634 0.23725 0.03527 0.0
N2219 N 0.95514 0.13974 0.96066 0.0
C2220 C -0.00026 0.21525 0.01497 0.0
C2221 C 0.96897 0.16525 0.97686 0.0
N2222 N 0.95728 0.19805 0.0479 0.0
N2223 N 0.00742 0.18756 0.93819 0.0
H2224 H 0.93456 0.12293 0.96661 0.0
H2225 H 0.96461 0.13443 0.94249 0.0
H2226 H 0.02759 0.2039 0.9304 0.0
H2227 H 0.99601 0.17186 0.92131 0.0
H2228 H 0.96544 0.21754 0.05997 0.0
H2229 H 0.9367 0.18245 0.05543 0.0
H2230 H 0.01016 0.23833 0.05807 0.0
H2231 H 0.0375 0.25339 0.03032 0.0
C2232 C 0.78012 0.77026 0.97218 0.0
C2233 C 0.78132 0.79593 0.98344 0.0
C2234 C 0.82627 0.8077 0.01081 0.0
C2235 C 0.82112 0.77927 0.00539 0.0
N2236 N 0.78782 0.73092 0.9865 0.0
N2237 N 0.80313 0.83572 0.02079 0.0
C2238 C 0.79668 0.75977 0.98741 0.0
C2239 C 0.80389 0.81402 0.00456 0.0
N2240 N 0.76358 0.75604 0.94679 0.0
N2241 N 0.85249 0.82876 0.02178 0.0
H2242 H 0.78585 0.8396 0.02014 0.0
H2243 H 0.81813 0.84752 0.03821 0.0
H2244 H 0.8699 0.82529 0.02521 0.0
H2245 H 0.8578 0.85036 0.02376 0.0
H2246 H 0.76375 0.73831 0.9367 0.0
H2247 H 0.7527 0.76412 0.93361 0.0
H2248 H 0.76865 0.71579 0.97561 0.0
H2249 H 0.79758 0.72167 0.99963 0.0
C2250 C 0.0062 0.22696 0.52925 0.0
C2251 C 0.98153 0.20071 0.51948 0.0
C2252 C 0.01438 0.18625 0.49619 0.0
C2253 C 0.03799 0.21478 0.49999 0.0
N2254 N 0.05316 0.26471 0.51259 0.0
N2255 N 0.96339 0.15869 0.48515 0.0
C2256 C 0.03316 0.23593 0.51452 0.0
C2257 C 0.98581 0.18102 0.50076 0.0
N2258 N 0.0043 0.24312 0.55291 0.0
N2259 N 0.01904 0.16407 0.48843 0.0
H2260 H 0.94257 0.15569 0.48408 0.0
H2261 H 0.96653 0.14547 0.46956 0.0
H2262 H 0.03975 0.16677 0.48641 0.0
H2263 H 0.00237 0.14254 0.48775 0.0
H2264 H 0.02244 0.26148 0.56172 0.0
H2265 H 0.98562 0.23612 0.5663 0.0
H2266 H 0.04917 0.28074 0.52107 0.0
H2267 H 0.07193 0.27267 0.49919 0.0
C2268 C 0.82121 0.8085 0.50562 0.0
C2269 C 0.80198 0.78505 0.52525 0.0
C2270 C 0.76666 0.80142 0.52097 0.0
C2271 C 0.78699 0.82649 0.50444 0.0
N2272 N 0.83723 0.85804 0.49083 0.0
N2273 N 0.76143 0.7674 0.56107 0.0
C2274 C 0.81552 0.83148 0.50013 0.0
C2275 C 0.77641 0.78428 0.53618 0.0
N2276 N 0.84346 0.80825 0.49002 0.0
N2277 N 0.73777 0.79238 0.52029 0.0
H2278 H 0.76908 0.75621 0.5744 0.0
H2279 H 0.74358 0.76769 0.57067 0.0
H2280 H 0.72903 0.8022 0.50645 0.0
H2281 H 0.72226 0.7729 0.53035 0.0
H2282 H 0.85604 0.82398 0.47355 0.0
H2283 H 0.84732 0.79098 0.49017 0.0
H2284 H 0.85883 0.86317 0.48972 0.0
H2285 H 0.83412 0.87574 0.48796 0.0
C2286 C 0.19683 0.99384 0.53768 0.0
C2287 C 0.21546 0.01411 0.51519 0.0
C2288 C 0.19149 0.97859 0.47332 0.0
C2289 C 0.17119 0.95925 0.49536 0.0
N2290 N 0.15206 0.94897 0.54779 0.0
N2291 N 0.22863 0.02777 0.46129 0.0
C2292 C 0.17322 0.96695 0.52742 0.0
C2293 C 0.21224 0.00705 0.48289 0.0
N2294 N 0.202 0.0002 0.56879 0.0
N2295 N 0.19159 0.96937 0.4435 0.0
H2296 H 0.24448 0.04877 0.46733 0.0
H2297 H 0.22507 0.02494 0.4373 0.0
H2298 H 0.17675 0.94861 0.43563 0.0
H2299 H 0.20784 0.9813 0.42732 0.0
H2300 H 0.19121 0.98525 0.58652 0.0
H2301 H 0.21858 0.02008 0.57695 0.0
H2302 H 0.15052 0.95463 0.5707 0.0
H2303 H 0.13467 0.92897 0.54117 0.0
C2304 C 0.77539 0.00059 0.98452 0.0
C2305 C 0.78921 0.01209 0.01362 0.0
C2306 C 0.79407 0.96931 0.02269 0.0
C2307 C 0.7789 0.95721 0.99437 0.0
N2308 N 0.75113 0.95867 0.95064 0.0
N2309 N 0.80825 0.00651 0.06252 0.0
C2310 C 0.7683 0.97204 0.97601 0.0
C2311 C 0.79763 0.99621 0.03333 0.0
N2312 N 0.77031 0.0175 0.96434 0.0
N2313 N 0.80549 0.95531 0.03904 0.0
H2314 H 0.81133 0.02626 0.07084 0.0
H2315 H 0.81204 0.99471 0.07938 0.0
H2316 H 0.80225 0.93501 0.03266 0.0
H2317 H 0.81956 0.9644 0.05788 0.0
H2318 H 0.7635 0.01167 0.94134 0.0
H2319 H 0.77507 0.03852 0.96965 0.0
H2320 H 0.73992 0.96691 0.93846 0.0
H2321 H 0.74627 0.93814 0.94304 0.0
C2322 C 0.98658 0.78779 0.9858 0.0
C2323 C 0.98052 0.78404 0.01831 0.0
C2324 C 0.02869 0.82513 0.02977 0.0
C2325 C 0.03567 0.82706 0.9975 0.0
N2326 N 0.02323 0.80762 0.94528 0.0
N2327 N 0.99608 0.79665 0.07167 0.0
C2328 C 0.01509 0.80778 0.97558 0.0
C2329 C 0.00167 0.80204 0.04046 0.0
N2330 N 0.96501 0.77222 0.96466 0.0
N2331 N 0.04753 0.84588 0.05 0.0
H2332 H 0.97603 0.78071 0.08022 0.0
H2333 H 0.0117 0.80672 0.089 0.0
H2334 H 0.06754 0.86305 0.04301 0.0
H2335 H 0.04251 0.84744 0.07316 0.0
H2336 H 0.9672 0.77623 0.94072 0.0
H2337 H 0.94402 0.75672 0.97117 0.0
H2338 H 0.01024 0.79194 0.92901 0.0
H2339 H 0.04403 0.82168 0.93694 0.0
C2340 C 0.21411 0.22392 0.03125 0.0
C2341 C 0.21335 0.19827 0.02069 0.0
C2342 C 0.16674 0.18394 0.99576 0.0
C2343 C 0.17117 0.21222 1.00024 0.0
N2344 N 0.20483 0.2618 0.01534 0.0
N2345 N 0.19108 0.15727 0.9848 0.0
C2346 C 0.19638 0.23305 0.01624 0.0
C2347 C 0.19013 0.17892 1.0009 0.0
N2348 N 0.23129 0.2394 0.05576 0.0
N2349 N 0.14032 0.16184 0.98665 0.0
H2350 H 0.20905 0.15449 0.9842 0.0
H2351 H 0.17534 0.14444 0.96843 0.0
H2352 H 0.12225 0.16439 0.98409 0.0
H2353 H 0.13573 0.14041 0.98538 0.0
H2354 H 0.23091 0.25727 0.06514 0.0
H2355 H 0.24287 0.23223 0.06909 0.0
H2356 H 0.22437 0.27768 0.02493 0.0
H2357 H 0.19436 0.27005 1.00178 0.0
C2358 C 0.97625 0.80851 0.4879 0.0
C2359 C 0.95711 0.7796 0.49785 0.0
C2360 C 0.98753 0.76362 0.47182 0.0
C2361 C 0.00961 0.79293 0.46809 0.0
N2362 N 0.01887 0.84111 0.45752 0.0
N2363 N 0.94612 0.72987 0.50205 0.0
C2364 C 0.00229 0.81498 0.47185 0.0
C2365 C 0.96301 0.75715 0.49031 0.0
N2366 N 0.96965 0.82971 0.49411 0.0
N2367 N 0.98877 0.74214 0.45574 0.0
H2368 H 0.92833 0.72416 0.51652 0.0
H2369 H 0.95152 0.71365 0.49988 0.0
H2370 H 0.00399 0.74655 0.43817 0.0
H2371 H 0.97214 0.72061 0.45606 0.0
H2372 H 0.98404 0.85172 0.49107 0.0
H2373 H 0.94984 0.82539 0.50353 0.0
H2374 H 0.01432 0.85794 0.45771 0.0
H2375 H 0.03532 0.84463 0.44188 0.0
C2376 C 0.22252 0.19912 0.5259 0.0
C2377 C 0.21235 0.17419 0.50679 0.0
C2378 C 0.19251 0.19458 0.46922 0.0
C2379 C 0.20102 0.21858 0.48941 0.0
N2380 N 0.21974 0.24185 0.53917 0.0
N2381 N 0.18526 0.14618 0.46211 0.0
C2382 C 0.21491 0.22039 0.51834 0.0
C2383 C 0.19661 0.17132 0.47895 0.0
N2384 N 0.23987 0.20267 0.55104 0.0
N2385 N 0.18146 0.19456 0.44036 0.0
H2386 H 0.18887 0.12921 0.46784 0.0
H2387 H 0.17088 0.14131 0.4436 0.0
H2388 H 0.17782 0.21108 0.43277 0.0
H2389 H 0.17769 0.17931 0.4231 0.0
H2390 H 0.25087 0.22188 0.56366 0.0
H2391 H 0.24507 0.18708 0.55805 0.0
H2392 H 0.22666 0.24246 0.56205 0.0
H2393 H 0.21453 0.25792 0.53455 0.0
C2394 C 0.78356 0.98971 0.51804 0.0
C2395 C 0.78045 0.98302 0.48565 0.0
C2396 C 0.82046 0.03172 0.47371 0.0
C2397 C 0.82215 0.039 0.50589 0.0
N2398 N 0.80204 0.0271 0.55782 0.0
N2399 N 0.7928 0.99813 0.43213 0.0
C2400 C 0.80282 0.01856 0.52785 0.0
C2401 C 0.79796 0.00421 0.46328 0.0
N2402 N 0.76828 0.96837 0.5395 0.0
N2403 N 0.84099 0.05066 0.45338 0.0
H2404 H 0.77726 0.97781 0.42378 0.0
H2405 H 0.80254 0.01361 0.41461 0.0
H2406 H 0.85768 0.07103 0.46011 0.0
H2407 H 0.84284 0.04546 0.43036 0.0
H2408 H 0.77201 0.97111 0.56347 0.0
H2409 H 0.75327 0.94711 0.53333 0.0
H2410 H 0.78632 0.01413 0.57406 0.0
H2411 H 0.81553 0.04819 0.56577 0.0
C2412 C 0.84766 0.31946 0.33379 0.0
C2413 C 0.86674 0.31474 0.31448 0.0
C2414 C 0.90266 0.3663 0.31897 0.0
C2415 C 0.88216 0.37146 0.33455 0.0
N2416 N 0.83178 0.35333 0.34705 0.0
N2417 N 0.90851 0.33682 0.28016 0.0
C2418 C 0.8535 0.34818 0.33861 0.0
C2419 C 0.893 0.33916 0.30424 0.0
N2420 N 0.82546 0.29732 0.34983 0.0
N2421 N 0.93155 0.38618 0.31988 0.0
H2422 H 0.901 0.31798 0.26694 0.0
H2423 H 0.92683 0.35472 0.27092 0.0
H2424 H 0.94004 0.40518 0.33294 0.0
H2425 H 0.94722 0.38197 0.31076 0.0
H2426 H 0.81274 0.3008 0.36581 0.0
H2427 H 0.82216 0.27639 0.35091 0.0
H2428 H 0.81013 0.33695 0.348 0.0
H2429 H 0.83495 0.37421 0.34933 0.0
C2430 C 0.63246 0.51241 0.30868 0.0
C2431 C 0.62387 0.51203 0.34017 0.0
C2432 C 0.67141 0.55348 0.35259 0.0
C2433 C 0.67961 0.55468 0.32081 0.0
N2434 N 0.66725 0.53879 0.26752 0.0
N2435 N 0.63235 0.53536 0.3904 0.0
C2436 C 0.65987 0.53521 0.29847 0.0
C2437 C 0.64254 0.53353 0.36164 0.0
N2438 N 0.61487 0.4904 0.28892 0.0
N2439 N 0.69149 0.57085 0.37428 0.0
H2440 H 0.61123 0.52115 0.39779 0.0
H2441 H 0.64386 0.55242 0.40587 0.0
H2442 H 0.71278 0.58613 0.36855 0.0
H2443 H 0.68776 0.56868 0.39827 0.0
H2444 H 0.62113 0.48763 0.26675 0.0
H2445 H 0.59446 0.47364 0.29544 0.0
H2446 H 0.65282 0.52727 0.24962 0.0
H2447 H 0.68745 0.55489 0.2595 0.0
C2448 C 0.47 0.13219 0.29941 0.0
C2449 C 0.4521 0.13538 0.32167 0.0
C2450 C 0.47465 0.12253 0.36401 0.0
C2451 C 0.49397 0.12136 0.34206 0.0
N2452 N 0.51326 0.12912 0.28973 0.0
N2453 N 0.4396 0.13762 0.37542 0.0
C2454 C 0.49253 0.12727 0.30994 0.0
C2455 C 0.45521 0.1319 0.35409 0.0
N2456 N 0.46508 0.13336 0.26822 0.0
N2457 N 0.47395 0.11336 0.39404 0.0
H2458 H 0.42437 0.14355 0.36913 0.0
H2459 H 0.44324 0.13867 0.39942 0.0
H2460 H 0.4876 0.106 0.40212 0.0
H2461 H 0.45822 0.11058 0.41027 0.0
H2462 H 0.47504 0.12787 0.25072 0.0
H2463 H 0.4496 0.1382 0.25981 0.0
H2464 H 0.51525 0.13633 0.26676 0.0
H2465 H 0.52999 0.12553 0.29656 0.0
C2466 C 0.66187 0.54763 0.82233 0.0
C2467 C 0.64984 0.53362 0.8512 0.0
C2468 C 0.69299 0.52981 0.8619 0.0
C2469 C 0.7057 0.54547 0.834 0.0
N2470 N 0.70453 0.57288 0.78973 0.0
N2471 N 0.65453 0.5144 0.9004 0.0
C2472 C 0.69082 0.55549 0.81485 0.0
C2473 C 0.66553 0.52545 0.87153 0.0
N2474 N 0.64513 0.55226 0.80144 0.0
N2475 N 0.707 0.51874 0.87883 0.0
H2476 H 0.63433 0.51065 0.90795 0.0
H2477 H 0.6661 0.51082 0.91772 0.0
H2478 H 0.72765 0.52253 0.87314 0.0
H2479 H 0.69762 0.50442 0.8974 0.0
H2480 H 0.65145 0.55922 0.77857 0.0
H2481 H 0.6238 0.54689 0.80599 0.0
H2482 H 0.6962 0.58377 0.77711 0.0
H2483 H 0.72535 0.57819 0.78273 0.0
C2484 C 0.45078 0.1392 0.81093 0.0
C2485 C 0.4493 0.158 0.83339 0.0
C2486 C 0.46199 0.13475 0.87527 0.0
C2487 C 0.46205 0.11509 0.85304 0.0
N2488 N 0.45416 0.09623 0.80049 0.0
N2489 N 0.45072 0.17265 0.88697 0.0
C2490 C 0.45589 0.11673 0.82104 0.0
C2491 C 0.45408 0.15546 0.86562 0.0
N2492 N 0.44766 0.14313 0.77985 0.0
N2493 N 0.47024 0.134 0.90537 0.0
H2494 H 0.44614 0.18884 0.88065 0.0
H2495 H 0.45078 0.16996 0.91104 0.0
H2496 H 0.47577 0.11881 0.9131 0.0
H2497 H 0.47352 0.1494 0.92224 0.0
H2498 H 0.452 0.13269 0.7619 0.0
H2499 H 0.44201 0.15808 0.77165 0.0
H2500 H 0.44624 0.09379 0.77781 0.0
H2501 H 0.45926 0.08035 0.80659 0.0
C2502 C 0.8624 0.3067 0.81277 0.0
C2503 C 0.83772 0.29126 0.8321 0.0
C2504 C 0.85924 0.32956 0.87183 0.0
C2505 C 0.88286 0.34593 0.85144 0.0
N2506 N 0.90534 0.35248 0.80082 0.0
N2507 N 0.81082 0.28831 0.87856 0.0
C2508 C 0.8841 0.33509 0.8215 0.0
C2509 C 0.83562 0.30277 0.86128 0.0
N2510 N 0.86527 0.29404 0.78625 0.0
N2511 N 0.85989 0.33928 0.90157 0.0
H2512 H 0.79359 0.26813 0.87213 0.0
H2513 H 0.80647 0.29692 0.89828 0.0
H2514 H 0.87674 0.35895 0.90981 0.0
H2515 H 0.84492 0.32712 0.91879 0.0
H2516 H 0.88426 0.3026 0.77319 0.0
H2517 H 0.8493 0.27376 0.77837 0.0
H2518 H 0.90548 0.34723 0.77742 0.0
H2519 H 0.92182 0.37337 0.80627 0.0
C2520 C 0.47778 0.31708 0.33264 0.0
C2521 C 0.44945 0.29334 0.33713 0.0
C2522 C 0.43806 0.32485 0.36812 0.0
C2523 C 0.46373 0.34965 0.35739 0.0
N2524 N 0.50459 0.368 0.32132 0.0
N2525 N 0.40003 0.27749 0.35281 0.0
C2526 C 0.48294 0.34556 0.33761 0.0
C2527 C 0.42878 0.29784 0.35331 0.0
N2528 N 0.4998 0.31261 0.3236 0.0
N2529 N 0.42273 0.32674 0.39267 0.0
H2530 H 0.3917 0.2586 0.33957 0.0
H2531 H 0.38421 0.2812 0.36246 0.0
H2532 H 0.43004 0.34557 0.40589 0.0
H2533 H 0.40488 0.30858 0.40222 0.0
H2534 H 0.52127 0.32937 0.32231 0.0
H2535 H 0.49713 0.29194 0.32116 0.0
H2536 H 0.51733 0.36491 0.305 0.0
H2537 H 0.50738 0.38874 0.32045 0.0
C2538 C 0.6932 0.157 0.36023 0.0
C2539 C 0.70397 0.15399 0.33096 0.0
C2540 C 0.65933 0.10808 0.32154 0.0
C2541 C 0.64911 0.11031 0.3515 0.0
N2542 N 0.6571 0.13427 0.40121 0.0
N2543 N 0.69988 0.1252 0.28576 0.0
C2544 C 0.66626 0.13409 0.37139 0.0
C2545 C 0.6878 0.12905 0.31223 0.0
N2546 N 0.70852 0.182 0.37702 0.0
N2547 N 0.64132 0.08658 0.30145 0.0
H2548 H 0.72034 0.14053 0.2776 0.0
H2549 H 0.69065 0.10597 0.27307 0.0
H2550 H 0.62042 0.07048 0.30744 0.0
H2551 H 0.64612 0.08584 0.278 0.0
H2552 H 0.70054 0.18703 0.39679 0.0
H2553 H 0.72884 0.19872 0.37015 0.0
H2554 H 0.66978 0.14936 0.4181 0.0
H2555 H 0.63732 0.11793 0.40987 0.0
C2556 C 0.85403 0.54187 0.31423 0.0
C2557 C 0.83638 0.54308 0.33834 0.0
C2558 C 0.86145 0.52957 0.37727 0.0
C2559 C 0.88016 0.53003 0.35346 0.0
N2560 N 0.89668 0.5391 0.30001 0.0
N2561 N 0.82468 0.54129 0.39298 0.0
C2562 C 0.87705 0.53678 0.32209 0.0
C2563 C 0.84049 0.53783 0.36996 0.0
N2564 N 0.84843 0.54514 0.28374 0.0
N2565 N 0.86343 0.52064 0.40667 0.0
H2566 H 0.80868 0.54662 0.38837 0.0
H2567 H 0.82854 0.5408 0.41675 0.0
H2568 H 0.8788 0.5148 0.41272 0.0
H2569 H 0.84873 0.51699 0.42451 0.0
H2570 H 0.85805 0.54108 0.26473 0.0
H2571 H 0.83283 0.55048 0.27715 0.0
H2572 H 0.89804 0.54748 0.27771 0.0
H2573 H 0.9129 0.53405 0.30445 0.0
C2574 C 0.62779 0.09244 0.82707 0.0
C2575 C 0.62104 0.11481 0.83085 0.0
C2576 C 0.66684 0.14907 0.80511 0.0
C2577 C 0.67408 0.12675 0.80327 0.0
N2578 N 0.65277 0.07518 0.79454 0.0
N2579 N 0.63024 0.16241 0.81652 0.0
C2580 C 0.65194 0.09771 0.80868 0.0
C2581 C 0.63947 0.14266 0.81784 0.0
N2582 N 0.61183 0.06639 0.84178 0.0
N2583 N 0.68558 0.17594 0.79354 0.0
H2584 H 0.61007 0.15805 0.82486 0.0
H2585 H 0.64142 0.18232 0.80527 0.0
H2586 H 0.7023 0.17953 0.77827 0.0
H2587 H 0.68416 0.19434 0.7982 0.0
H2588 H 0.61781 0.05052 0.84178 0.0
H2589 H 0.59443 0.06177 0.85646 0.0
H2590 H 0.63603 0.05378 0.79654 0.0
H2591 H 0.66743 0.0783 0.77677 0.0
C2592 C 0.87295 0.54717 0.85586 0.0
C2593 C 0.86897 0.54993 0.82349 0.0
C2594 C 0.87395 0.50765 0.81197 0.0
C2595 C 0.87985 0.50612 0.84407 0.0
N2596 N 0.89027 0.52714 0.89566 0.0
N2597 N 0.8694 0.53592 0.77009 0.0
C2598 C 0.88079 0.52662 0.86581 0.0
C2599 C 0.87062 0.53111 0.8013 0.0
N2600 N 0.86877 0.5639 0.87714 0.0
N2601 N 0.87049 0.48614 0.79197 0.0
H2602 H 0.86607 0.55239 0.76162 0.0
H2603 H 0.87363 0.52498 0.7526 0.0
H2604 H 0.87287 0.46868 0.79892 0.0
H2605 H 0.86316 0.48433 0.76908 0.0
H2606 H 0.86806 0.56061 0.90119 0.0
H2607 H 0.86383 0.57984 0.87081 0.0
H2608 H 0.89453 0.54354 0.91161 0.0
H2609 H 0.89635 0.51249 0.90379 0.0
C2610 C 0.43955 0.3272 0.84834 0.0
C2611 C 0.44167 0.31555 0.81925 0.0
C2612 C 0.4895 0.35807 0.81009 0.0
C2613 C 0.48668 0.37031 0.83842 0.0
N2614 N 0.4577 0.36913 0.88227 0.0
N2615 N 0.46612 0.32086 0.77032 0.0
C2616 C 0.46124 0.35567 0.85682 0.0
C2617 C 0.46599 0.33125 0.79951 0.0
N2618 N 0.41755 0.31049 0.86857 0.0
N2619 N 0.51486 0.37189 0.79363 0.0
H2620 H 0.44927 0.30121 0.76202 0.0
H2621 H 0.48172 0.33251 0.75343 0.0
H2622 H 0.53202 0.39217 0.79991 0.0
H2623 H 0.51968 0.36269 0.77479 0.0
H2624 H 0.41673 0.31636 0.89159 0.0
H2625 H 0.40108 0.28955 0.8633 0.0
H2626 H 0.43827 0.36112 0.89442 0.0
H2627 H 0.4736 0.3895 0.89001 0.0
C2628 C 0.54903 0.66445 0.68493 0.0
C2629 C 0.53645 0.65273 0.65542 0.0
C2630 C 0.53258 0.69569 0.64379 0.0
C2631 C 0.54678 0.70811 0.67247 0.0
N2632 N 0.57202 0.70661 0.71859 0.0
N2633 N 0.51938 0.6578 0.60501 0.0
C2634 C 0.55609 0.69317 0.69251 0.0
C2635 C 0.529 0.66849 0.63435 0.0
N2636 N 0.55307 0.64763 0.70625 0.0
N2637 N 0.52213 0.70972 0.62592 0.0
H2638 H 0.51623 0.63778 0.59755 0.0
H2639 H 0.51643 0.66945 0.58729 0.0
H2640 H 0.52537 0.73018 0.6315 0.0
H2641 H 0.50877 0.7005 0.60658 0.0
H2642 H 0.55891 0.65363 0.72944 0.0
H2643 H 0.54839 0.62652 0.70158 0.0
H2644 H 0.58249 0.69834 0.73207 0.0
H2645 H 0.57655 0.72716 0.72568 0.0
C2646 C 0.32433 0.86699 0.62941 0.0
C2647 C 0.34472 0.88328 0.65298 0.0
C2648 C 0.30794 0.8583 0.69348 0.0
C2649 C 0.28834 0.84017 0.67018 0.0
N2650 N 0.27829 0.82456 0.61646 0.0
N2651 N 0.35756 0.89276 0.70757 0.0
C2652 C 0.29658 0.84383 0.63821 0.0
C2653 C 0.337 0.87838 0.68508 0.0
N2654 N 0.33141 0.87393 0.59867 0.0
N2655 N 0.2984 0.85712 0.72343 0.0
H2656 H 0.37887 0.90846 0.70247 0.0
H2657 H 0.35415 0.88773 0.73126 0.0
H2658 H 0.27715 0.8429 0.7304 0.0
H2659 H 0.31069 0.8719 0.74076 0.0
H2660 H 0.31654 0.86513 0.58045 0.0
H2661 H 0.35192 0.89003 0.59145 0.0
H2662 H 0.28416 0.8241 0.59336 0.0
H2663 H 0.2577 0.80754 0.622 0.0
C2664 C 0.13724 0.47233 0.6374 0.0
C2665 C 0.11264 0.46331 0.6568 0.0
C2666 C 0.1317 0.44204 0.69412 0.0
C2667 C 0.15725 0.45289 0.6759 0.0
N2668 N 0.18617 0.48058 0.63198 0.0
N2669 N 0.08813 0.44377 0.70583 0.0
C2670 C 0.16056 0.4687 0.64801 0.0
C2671 C 0.11024 0.44917 0.68572 0.0
N2672 N 0.1378 0.48345 0.60843 0.0
N2673 N 0.12779 0.42457 0.71924 0.0
H2674 H 0.07187 0.44858 0.70063 0.0
H2675 H 0.08705 0.4367 0.72873 0.0
H2676 H 0.14351 0.41981 0.72695 0.0
H2677 H 0.10823 0.41308 0.73116 0.0
H2678 H 0.1536 0.48766 0.59171 0.0
H2679 H 0.12116 0.48659 0.60012 0.0
H2680 H 0.19128 0.49504 0.61351 0.0
H2681 H 0.20324 0.47735 0.63836 0.0
C2682 C 0.32597 0.87763 0.15005 0.0
C2683 C 0.31672 0.86965 0.18139 0.0
C2684 C 0.36245 0.87152 0.19415 0.0
C2685 C 0.3724 0.88144 0.16336 0.0
N2686 N 0.36622 0.89909 0.11372 0.0
N2687 N 0.32668 0.86223 0.23443 0.0
C2688 C 0.3549 0.886 0.14179 0.0
C2689 C 0.33514 0.86752 0.20383 0.0
N2690 N 0.30677 0.87623 0.12793 0.0
N2691 N 0.37875 0.86511 0.21375 0.0
H2692 H 0.30649 0.8585 0.24204 0.0
H2693 H 0.34024 0.86344 0.25258 0.0
H2694 H 0.3991 0.86831 0.20763 0.0
H2695 H 0.37142 0.85483 0.23522 0.0
H2696 H 0.3113 0.87882 0.1041 0.0
H2697 H 0.28528 0.86992 0.13304 0.0
H2698 H 0.35563 0.90594 0.09846 0.0
H2699 H 0.38733 0.90545 0.10679 0.0
C2700 C 0.13838 0.49576 0.19376 0.0
C2701 C 0.12226 0.49251 0.16612 0.0
C2702 C 0.1188 0.44575 0.15554 0.0
C2703 C 0.13305 0.44797 0.18434 0.0
N2704 N 0.15401 0.47305 0.23252 0.0
N2705 N 0.09449 0.46369 0.12215 0.0
C2706 C 0.14235 0.47251 0.20388 0.0
C2707 C 0.1117 0.46727 0.14743 0.0
N2708 N 0.15013 0.52121 0.21008 0.0
N2709 N 0.11304 0.42355 0.13539 0.0
H2710 H 0.09004 0.4796 0.1144 0.0
H2711 H 0.08303 0.44429 0.10994 0.0
H2712 H 0.11747 0.40705 0.14059 0.0
H2713 H 0.10594 0.42254 0.11252 0.0
H2714 H 0.16472 0.52631 0.22842 0.0
H2715 H 0.14661 0.53818 0.2041 0.0
H2716 H 0.15843 0.48875 0.24942 0.0
H2717 H 0.15761 0.45656 0.2403 0.0
C2718 C 0.52999 0.66317 0.20244 0.0
C2719 C 0.55371 0.67958 0.18218 0.0
C2720 C 0.53458 0.63966 0.14439 0.0
C2721 C 0.50973 0.62416 0.16346 0.0
N2722 N 0.48195 0.62133 0.20912 0.0
N2723 N 0.57696 0.68578 0.1321 0.0
C2724 C 0.50692 0.63596 0.19212 0.0
C2725 C 0.55565 0.66841 0.15271 0.0
N2726 N 0.53003 0.67326 0.23183 0.0
N2727 N 0.53821 0.6267 0.11854 0.0
H2728 H 0.59296 0.70695 0.13729 0.0
H2729 H 0.57757 0.68017 0.10893 0.0
H2730 H 0.52279 0.60602 0.11109 0.0
H2731 H 0.55737 0.63549 0.10575 0.0
H2732 H 0.515 0.66114 0.24902 0.0
H2733 H 0.54646 0.69326 0.23989 0.0
H2734 H 0.47707 0.63007 0.22834 0.0
H2735 H 0.46513 0.60084 0.20293 0.0
C2736 C 0.12034 0.6618 0.70566 0.0
C2737 C 0.12268 0.68169 0.68228 0.0
C2738 C 0.11172 0.64524 0.64164 0.0
C2739 C 0.11234 0.62641 0.66461 0.0
N2740 N 0.12002 0.61718 0.71795 0.0
N2741 N 0.12375 0.6941 0.62784 0.0
C2742 C 0.11723 0.6347 0.69656 0.0
C2743 C 0.11925 0.6739 0.65019 0.0
N2744 N 0.1208 0.66874 0.7365 0.0
N2745 N 0.10293 0.63536 0.61187 0.0
H2746 H 0.12844 0.71511 0.63313 0.0
H2747 H 0.12489 0.69079 0.60403 0.0
H2748 H 0.09707 0.6144 0.60479 0.0
H2749 H 0.09896 0.64694 0.59489 0.0
H2750 H 0.11609 0.65409 0.7547 0.0
H2751 H 0.12392 0.68877 0.74388 0.0
H2752 H 0.12671 0.62331 0.74092 0.0
H2753 H 0.1176 0.59707 0.71221 0.0
C2754 C 0.32849 0.44568 0.65599 0.0
C2755 C 0.31742 0.44784 0.68544 0.0
C2756 C 0.36065 0.49516 0.69451 0.0
C2757 C 0.37236 0.49218 0.66587 0.0
N2758 N 0.3699 0.46333 0.62134 0.0
N2759 N 0.32373 0.47218 0.73465 0.0
C2760 C 0.35701 0.46702 0.64721 0.0
C2761 C 0.3337 0.47196 0.70525 0.0
N2762 N 0.31124 0.42384 0.63583 0.0
N2763 N 0.37513 0.52038 0.71112 0.0
H2764 H 0.30393 0.45565 0.743 0.0
H2765 H 0.3358 0.48756 0.75157 0.0
H2766 H 0.39544 0.53733 0.70461 0.0
H2767 H 0.36642 0.52534 0.73032 0.0
H2768 H 0.31666 0.42301 0.61263 0.0
H2769 H 0.29034 0.4075 0.64145 0.0
H2770 H 0.36132 0.44402 0.60886 0.0
H2771 H 0.39038 0.47894 0.61351 0.0
C2772 C 0.53597 0.87704 0.70869 0.0
C2773 C 0.5529 0.87393 0.68513 0.0
C2774 C 0.52748 0.88526 0.64472 0.0
C2775 C 0.50849 0.88528 0.66789 0.0
N2776 N 0.49239 0.87859 0.72148 0.0
N2777 N 0.56341 0.8721 0.63056 0.0
C2778 C 0.51221 0.88066 0.69984 0.0
C2779 C 0.54827 0.8772 0.65307 0.0
N2780 N 0.54279 0.87678 0.73945 0.0
N2781 N 0.52628 0.89396 0.61494 0.0
H2782 H 0.57953 0.86707 0.63568 0.0
H2783 H 0.55866 0.8708 0.60681 0.0
H2784 H 0.51149 0.9003 0.60803 0.0
H2785 H 0.54151 0.89743 0.59776 0.0
H2786 H 0.53336 0.88204 0.75772 0.0
H2787 H 0.55947 0.87322 0.74667 0.0
H2788 H 0.492 0.8721 0.74451 0.0
H2789 H 0.47492 0.88145 0.71592 0.0
C2790 C 0.29711 0.426 0.15429 0.0
C2791 C 0.29227 0.4471 0.16895 0.0
C2792 C 0.34436 0.48096 0.1681 0.0
C2793 C 0.34873 0.46132 0.14937 0.0
N2794 N 0.32611 0.41891 0.11597 0.0
N2795 N 0.31105 0.49785 0.18011 0.0
C2796 C 0.32411 0.43504 0.13958 0.0
C2797 C 0.31579 0.47568 0.17252 0.0
N2798 N 0.27711 0.39721 0.15611 0.0
N2799 N 0.36663 0.50317 0.18399 0.0
H2800 H 0.2903 0.49508 0.18202 0.0
H2801 H 0.32769 0.5194 0.18071 0.0
H2802 H 0.38737 0.506 0.18553 0.0
H2803 H 0.36335 0.51635 0.1995 0.0
H2804 H 0.28112 0.38121 0.14759 0.0
H2805 H 0.25827 0.3892 0.16939 0.0
H2806 H 0.30803 0.40051 0.10712 0.0
H2807 H 0.34484 0.42595 0.10266 0.0
C2808 C 0.5566 0.86381 0.19305 0.0
C2809 C 0.54627 0.83864 0.17428 0.0
C2810 C 0.52669 0.85889 0.13619 0.0
C2811 C 0.53536 0.88315 0.15603 0.0
N2812 N 0.55421 0.90689 0.20555 0.0
N2813 N 0.51909 0.81028 0.12983 0.0
C2814 C 0.54923 0.88518 0.18504 0.0
C2815 C 0.53058 0.8356 0.14635 0.0
N2816 N 0.57383 0.86747 0.21834 0.0
N2817 N 0.5157 0.85864 0.10723 0.0
H2818 H 0.52253 0.79327 0.13587 0.0
H2819 H 0.50473 0.8053 0.11128 0.0
H2820 H 0.51232 0.87522 0.09926 0.0
H2821 H 0.51179 0.84315 0.09021 0.0
H2822 H 0.58499 0.88682 0.23069 0.0
H2823 H 0.57872 0.85177 0.22578 0.0
H2824 H 0.56107 0.90767 0.22849 0.0
H2825 H 0.54921 0.92306 0.20063 0.0
C2826 C 0.12962 0.6707 0.12897 0.0
C2827 C 0.11341 0.64986 0.15217 0.0
C2828 C 0.13802 0.68601 0.19334 0.0
C2829 C 0.15632 0.70595 0.17041 0.0
N2830 N 0.17207 0.71695 0.1168 0.0
N2831 N 0.10374 0.63614 0.20654 0.0
C2832 C 0.15272 0.6983 0.13825 0.0
C2833 C 0.11808 0.65707 0.18441 0.0
N2834 N 0.12274 0.66416 0.09813 0.0
N2835 N 0.13897 0.69507 0.22346 0.0
H2836 H 0.08818 0.61487 0.20108 0.0
H2837 H 0.10868 0.63922 0.23027 0.0
H2838 H 0.15309 0.71623 0.23079 0.0
H2839 H 0.12407 0.68249 0.24056 0.0
H2840 H 0.13154 0.67935 0.08021 0.0
H2841 H 0.10662 0.64379 0.09056 0.0
H2842 H 0.17258 0.71148 0.09355 0.0
H2843 H 0.18911 0.73742 0.12268 0.0
loop_
_geom_bond_atom_site_label_1
_geom_bond_atom_site_label_2
_geom_bond_distance
_geom_bond_site_symmetry_2
_ccdc_geom_bond_type
Co0 O3 1.938 1_554 S
Co0 N17 1.989 . S
Co0 O25 1.967 . S
Co0 O32 1.920 . S
Co1 O4 1.966 1_554 S
Co1 N10 2.022 . S
Co1 N18 1.993 . S
Co1 O26 1.941 . S
C2 O3 1.281 . S
C2 O4 1.263 . S
O3 Co0 1.938 1_556 S
O3 C2 1.281 . S
O4 Co1 1.966 1_556 S
O4 C2 1.263 . S
C5 O6 1.235 . S
C5 O32 1.289 . S
O6 C5 1.235 . S
C7 C9 1.400 . S
C7 N10 1.351 . S
C7 C12 1.501 1_554 S
C8 C9 1.387 . S
C8 N11 1.341 . S
C9 C7 1.400 . S
C9 C8 1.387 . S
N10 Co1 2.022 . S
N10 C7 1.351 . S
N10 N11 1.365 . S
N11 C8 1.341 . S
N11 N10 1.365 . S
N11 H31 0.862 . S
C12 C7 1.501 1_556 S
C12 H13 0.961 . S
C12 H14 0.961 . S
C12 H15 0.960 . S
H13 C12 0.961 . S
H14 C12 0.961 . S
H15 C12 0.960 . S
C16 N17 1.342 . S
C16 C20 1.401 . S
C16 C21 1.499 . S
N17 Co0 1.989 . S
N17 C16 1.342 . S
N17 N18 1.388 . S
N18 Co1 1.993 . S
N18 N17 1.388 . S
N18 C19 1.346 . S
C19 N18 1.346 . S
C19 C20 1.396 . S
C19 C29 1.510 . S
C20 C16 1.401 . S
C20 C19 1.396 . S
C21 C16 1.499 . S
C21 H22 0.959 . S
C21 H23 0.960 . S
C21 H24 0.961 . S
H22 C21 0.959 . S
H23 C21 0.960 . S
H24 C21 0.961 . S
O25 Co0 1.967 . S
O25 C33 1.258 . S
O26 Co1 1.941 . S
O26 C33 1.266 . S
H27 C29 0.959 . S
H28 C29 0.961 . S
C29 C19 1.510 . S
C29 H27 0.959 . S
C29 H28 0.961 . S
C29 H30 0.960 . S
H30 C29 0.960 . S
H31 N11 0.862 . S
O32 Co0 1.920 . S
O32 C5 1.289 . S
C33 O25 1.258 . S
C33 O26 1.266 . S
Co34 O37 1.939 1_554 S
Co34 N51 1.989 . S
Co34 O59 1.967 . S
Co34 O66 1.920 . S
Co35 O38 1.966 1_554 S
Co35 N44 2.022 . S
Co35 N52 1.993 . S
Co35 O60 1.941 . S
C36 O37 1.281 . S
C36 O38 1.263 . S
O37 Co34 1.939 1_556 S
O37 C36 1.281 . S
O38 Co35 1.966 1_556 S
O38 C36 1.263 . S
C39 O40 1.235 . S
C39 O66 1.289 . S
O40 C39 1.235 . S
C41 C43 1.400 . S
C41 N44 1.351 . S
C41 C46 1.501 1_554 S
C42 C43 1.387 . S
C42 N45 1.341 . S
C43 C41 1.400 . S
C43 C42 1.387 . S
N44 Co35 2.022 . S
N44 C41 1.351 . S
N44 N45 1.365 . S
N45 C42 1.341 . S
N45 N44 1.365 . S
N45 H65 0.862 . S
C46 C41 1.501 1_556 S
C46 H47 0.961 . S
C46 H48 0.961 . S
C46 H49 0.960 . S
H47 C46 0.961 . S
H48 C46 0.961 . S
H49 C46 0.960 . S
C50 N51 1.342 . S
C50 C54 1.401 . S
C50 C55 1.499 . S
N51 Co34 1.989 . S
N51 C50 1.342 . S
N51 N52 1.388 . S
N52 Co35 1.993 . S
N52 N51 1.388 . S
N52 C53 1.346 . S
C53 N52 1.346 . S
C53 C54 1.396 . S
C53 C63 1.510 . S
C54 C50 1.401 . S
C54 C53 1.396 . S
C55 C50 1.499 . S
C55 H56 0.959 . S
C55 H57 0.960 . S
C55 H58 0.961 . S
H56 C55 0.959 . S
H57 C55 0.960 . S
H58 C55 0.961 . S
O59 Co34 1.967 . S
O59 C67 1.258 . S
O60 Co35 1.941 . S
O60 C67 1.266 . S
H61 C63 0.959 . S
H62 C63 0.961 . S
C63 C53 1.510 . S
C63 H61 0.959 . S
C63 H62 0.961 . S
C63 H64 0.960 . S
H64 C63 0.960 . S
H65 N45 0.862 . S
O66 Co34 1.920 . S
O66 C39 1.289 . S
C67 O59 1.258 . S
C67 O60 1.266 . S
Co68 O71 1.938 1_554 S
Co68 N85 1.989 . S
Co68 O93 1.967 . S
Co68 O100 1.920 . S
Co69 O72 1.966 1_554 S
Co69 N78 2.022 . S
Co69 N86 1.993 . S
Co69 O94 1.941 . S
C70 O71 1.281 . S
C70 O72 1.263 . S
O71 Co68 1.938 1_556 S
O71 C70 1.281 . S
O72 Co69 1.966 1_556 S
O72 C70 1.263 . S
C73 O74 1.235 . S
C73 O100 1.289 . S
O74 C73 1.235 . S
C75 C77 1.400 . S
C75 N78 1.351 . S
C75 C80 1.501 1_554 S
C76 C77 1.387 . S
C76 N79 1.341 . S
C77 C75 1.400 . S
C77 C76 1.387 . S
N78 Co69 2.022 . S
N78 C75 1.351 . S
N78 N79 1.365 . S
N79 C76 1.341 . S
N79 N78 1.365 . S
N79 H99 0.862 . S
C80 C75 1.501 1_556 S
C80 H81 0.961 . S
C80 H82 0.961 . S
C80 H83 0.960 . S
H81 C80 0.961 . S
H82 C80 0.961 . S
H83 C80 0.960 . S
C84 N85 1.342 . S
C84 C88 1.401 . S
C84 C89 1.499 . S
N85 Co68 1.989 . S
N85 C84 1.342 . S
N85 N86 1.388 . S
N86 Co69 1.993 . S
N86 N85 1.388 . S
N86 C87 1.346 . S
C87 N86 1.346 . S
C87 C88 1.396 . S
C87 C97 1.510 . S
C88 C84 1.401 . S
C88 C87 1.396 . S
C89 C84 1.499 . S
C89 H90 0.959 . S
C89 H91 0.960 . S
C89 H92 0.961 . S
H90 C89 0.959 . S
H91 C89 0.960 . S
H92 C89 0.961 . S
O93 Co68 1.967 . S
O93 C101 1.258 . S
O94 Co69 1.941 . S
O94 C101 1.266 . S
H95 C97 0.959 . S
H96 C97 0.961 . S
C97 C87 1.510 . S
C97 H95 0.959 . S
C97 H96 0.961 . S
C97 H98 0.960 . S
H98 C97 0.960 . S
H99 N79 0.862 . S
O100 Co68 1.920 . S
O100 C73 1.289 . S
C101 O93 1.258 . S
C101 O94 1.266 . S
Co102 O105 1.970 . S
Co102 N119 1.989 . S
Co102 O127 1.967 . S
Co102 O134 1.920 . S
Co103 O106 1.966 . S
Co103 N112 2.022 . S
Co103 N120 1.993 . S
Co103 O128 1.941 . S
C104 O105 1.258 . S
C104 O106 1.263 . S
O105 Co102 1.970 . S
O105 C104 1.258 . S
O106 Co103 1.966 . S
O106 C104 1.263 . S
C107 O108 1.235 . S
C107 O134 1.289 . S
O108 C107 1.235 . S
C109 C111 1.400 . S
C109 N112 1.351 . S
C109 C114 1.501 . S
C110 C111 1.387 . S
C110 N113 1.341 . S
C111 C109 1.400 . S
C111 C110 1.387 . S
N112 Co103 2.022 . S
N112 C109 1.351 . S
N112 N113 1.365 . S
N113 C110 1.341 . S
N113 N112 1.365 . S
N113 H133 0.862 . S
C114 C109 1.501 . S
C114 H115 0.961 . S
C114 H116 0.961 . S
C114 H117 0.960 . S
H115 C114 0.961 . S
H116 C114 0.961 . S
H117 C114 0.960 . S
C118 N119 1.342 . S
C118 C122 1.401 . S
C118 C123 1.499 . S
N119 Co102 1.989 . S
N119 C118 1.342 . S
N119 N120 1.388 . S
N120 Co103 1.993 . S
N120 N119 1.388 . S
N120 C121 1.346 . S
C121 N120 1.346 . S
C121 C122 1.396 . S
C121 C131 1.510 . S
C122 C118 1.401 . S
C122 C121 1.396 . S
C123 C118 1.499 . S
C123 H124 0.959 . S
C123 H125 0.960 . S
C123 H126 0.961 . S
H124 C123 0.959 . S
H125 C123 0.960 . S
H126 C123 0.961 . S
O127 Co102 1.967 . S
O127 C135 1.258 . S
O128 Co103 1.941 . S
O128 C135 1.266 . S
H129 C131 0.959 . S
H130 C131 0.961 . S
C131 C121 1.510 . S
C131 H129 0.959 . S
C131 H130 0.961 . S
C131 H132 0.960 . S
H132 C131 0.960 . S
H133 N113 0.862 . S
O134 Co102 1.920 . S
O134 C107 1.289 . S
C135 O127 1.258 . S
C135 O128 1.266 . S
Co136 O139 1.970 . S
Co136 N153 1.989 . S
Co136 O161 1.967 . S
Co136 O168 1.920 . S
Co137 O140 1.966 . S
Co137 N146 2.022 . S
Co137 N154 1.993 . S
Co137 O162 1.941 . S
C138 O139 1.258 . S
C138 O140 1.263 . S
O139 Co136 1.970 . S
O139 C138 1.258 . S
O140 Co137 1.966 . S
O140 C138 1.263 . S
C141 O142 1.235 . S
C141 O168 1.289 . S
O142 C141 1.235 . S
C143 C145 1.400 . S
C143 N146 1.351 . S
C143 C148 1.501 . S
C144 C145 1.387 . S
C144 N147 1.341 . S
C145 C143 1.400 . S
C145 C144 1.387 . S
N146 Co137 2.022 . S
N146 C143 1.351 . S
N146 N147 1.365 . S
N147 C144 1.341 . S
N147 N146 1.365 . S
N147 H167 0.862 . S
C148 C143 1.501 . S
C148 H149 0.961 . S
C148 H150 0.961 . S
C148 H151 0.960 . S
H149 C148 0.961 . S
H150 C148 0.961 . S
H151 C148 0.960 . S
C152 N153 1.342 . S
C152 C156 1.401 . S
C152 C157 1.499 . S
N153 Co136 1.989 . S
N153 C152 1.342 . S
N153 N154 1.388 . S
N154 Co137 1.993 . S
N154 N153 1.388 . S
N154 C155 1.346 . S
C155 N154 1.346 . S
C155 C156 1.396 . S
C155 C165 1.510 . S
C156 C152 1.401 . S
C156 C155 1.396 . S
C157 C152 1.499 . S
C157 H158 0.959 . S
C157 H159 0.960 . S
C157 H160 0.961 . S
H158 C157 0.959 . S
H159 C157 0.960 . S
H160 C157 0.961 . S
O161 Co136 1.967 . S
O161 C169 1.258 . S
O162 Co137 1.941 . S
O162 C169 1.266 . S
H163 C165 0.959 . S
H164 C165 0.961 . S
C165 C155 1.510 . S
C165 H163 0.959 . S
C165 H164 0.961 . S
C165 H166 0.960 . S
H166 C165 0.960 . S
H167 N147 0.862 . S
O168 Co136 1.920 . S
O168 C141 1.289 . S
C169 O161 1.258 . S
C169 O162 1.266 . S
Co170 O173 1.970 . S
Co170 N187 1.989 . S
Co170 O195 1.967 . S
Co170 O202 1.920 . S
Co171 O174 1.966 . S
Co171 N180 2.022 . S
Co171 N188 1.993 . S
Co171 O196 1.941 . S
C172 O173 1.258 . S
C172 O174 1.263 . S
O173 Co170 1.970 . S
O173 C172 1.258 . S
O174 Co171 1.966 . S
O174 C172 1.263 . S
C175 O176 1.235 . S
C175 O202 1.289 . S
O176 C175 1.235 . S
C177 C179 1.400 . S
C177 N180 1.351 . S
C177 C182 1.501 . S
C178 C179 1.387 . S
C178 N181 1.341 . S
C179 C177 1.400 . S
C179 C178 1.387 . S
N180 Co171 2.022 . S
N180 C177 1.351 . S
N180 N181 1.365 . S
N181 C178 1.341 . S
N181 N180 1.365 . S
N181 H201 0.862 . S
C182 C177 1.501 . S
C182 H183 0.961 . S
C182 H184 0.961 . S
C182 H185 0.960 . S
H183 C182 0.961 . S
H184 C182 0.961 . S
H185 C182 0.960 . S
C186 N187 1.342 . S
C186 C190 1.401 . S
C186 C191 1.499 . S
N187 Co170 1.989 . S
N187 C186 1.342 . S
N187 N188 1.388 . S
N188 Co171 1.993 . S
N188 N187 1.388 . S
N188 C189 1.346 . S
C189 N188 1.346 . S
C189 C190 1.396 . S
C189 C199 1.510 . S
C190 C186 1.401 . S
C190 C189 1.396 . S
C191 C186 1.499 . S
C191 H192 0.959 . S
C191 H193 0.960 . S
C191 H194 0.961 . S
H192 C191 0.959 . S
H193 C191 0.960 . S
H194 C191 0.961 . S
O195 Co170 1.967 . S
O195 C203 1.258 . S
O196 Co171 1.941 . S
O196 C203 1.266 . S
H197 C199 0.959 . S
H198 C199 0.961 . S
C199 C189 1.510 . S
C199 H197 0.959 . S
C199 H198 0.961 . S
C199 H200 0.960 . S
H200 C199 0.960 . S
H201 N181 0.862 . S
O202 Co170 1.920 . S
O202 C175 1.289 . S
C203 O195 1.258 . S
C203 O196 1.266 . S
Co204 O207 1.938 1_556 S
Co204 N221 1.989 . S
Co204 O229 1.967 . S
Co204 O236 1.920 . S
Co205 O208 1.966 1_556 S
Co205 N214 2.022 . S
Co205 N222 1.993 . S
Co205 O230 1.941 . S
C206 O207 1.281 . S
C206 O208 1.263 . S
O207 Co204 1.938 1_554 S
O207 C206 1.281 . S
O208 Co205 1.966 1_554 S
O208 C206 1.263 . S
C209 O210 1.235 . S
C209 O236 1.289 . S
O210 C209 1.235 . S
C211 C213 1.400 . S
C211 N214 1.351 . S
C211 C216 1.501 1_556 S
C212 C213 1.387 . S
C212 N215 1.341 . S
C213 C211 1.400 . S
C213 C212 1.387 . S
N214 Co205 2.022 . S
N214 C211 1.351 . S
N214 N215 1.365 . S
N215 C212 1.341 . S
N215 N214 1.365 . S
N215 H235 0.862 . S
C216 C211 1.501 1_554 S
C216 H217 0.961 . S
C216 H218 0.961 . S
C216 H219 0.960 . S
H217 C216 0.961 . S
H218 C216 0.961 . S
H219 C216 0.960 . S
C220 N221 1.342 . S
C220 C224 1.401 . S
C220 C225 1.499 . S
N221 Co204 1.989 . S
N221 C220 1.342 . S
N221 N222 1.388 . S
N222 Co205 1.993 . S
N222 N221 1.388 . S
N222 C223 1.346 . S
C223 N222 1.346 . S
C223 C224 1.396 . S
C223 C233 1.510 . S
C224 C220 1.401 . S
C224 C223 1.396 . S
C225 C220 1.499 . S
C225 H226 0.959 . S
C225 H227 0.960 . S
C225 H228 0.961 . S
H226 C225 0.959 . S
H227 C225 0.960 . S
H228 C225 0.961 . S
O229 Co204 1.967 . S
O229 C237 1.258 . S
O230 Co205 1.941 . S
O230 C237 1.266 . S
H231 C233 0.959 . S
H232 C233 0.961 . S
C233 C223 1.510 . S
C233 H231 0.959 . S
C233 H232 0.961 . S
C233 H234 0.960 . S
H234 C233 0.960 . S
H235 N215 0.862 . S
O236 Co204 1.920 . S
O236 C209 1.289 . S
C237 O229 1.258 . S
C237 O230 1.266 . S
Co238 O241 1.939 1_556 S
Co238 N255 1.989 . S
Co238 O263 1.967 . S
Co238 O270 1.920 . S
Co239 O242 1.966 1_556 S
Co239 N248 2.022 . S
Co239 N256 1.993 . S
Co239 O264 1.941 . S
C240 O241 1.281 . S
C240 O242 1.263 . S
O241 Co238 1.939 1_554 S
O241 C240 1.281 . S
O242 Co239 1.966 1_554 S
O242 C240 1.263 . S
C243 O244 1.235 . S
C243 O270 1.289 . S
O244 C243 1.235 . S
C245 C247 1.400 . S
C245 N248 1.351 . S
C245 C250 1.501 1_556 S
C246 C247 1.387 . S
C246 N249 1.341 . S
C247 C245 1.400 . S
C247 C246 1.387 . S
N248 Co239 2.022 . S
N248 C245 1.351 . S
N248 N249 1.365 . S
N249 C246 1.341 . S
N249 N248 1.365 . S
N249 H269 0.862 . S
C250 C245 1.501 1_554 S
C250 H251 0.961 . S
C250 H252 0.961 . S
C250 H253 0.960 . S
H251 C250 0.961 . S
H252 C250 0.961 . S
H253 C250 0.960 . S
C254 N255 1.342 . S
C254 C258 1.401 . S
C254 C259 1.499 . S
N255 Co238 1.989 . S
N255 C254 1.342 . S
N255 N256 1.388 . S
N256 Co239 1.993 . S
N256 N255 1.388 . S
N256 C257 1.346 . S
C257 N256 1.346 . S
C257 C258 1.396 . S
C257 C267 1.510 . S
C258 C254 1.401 . S
C258 C257 1.396 . S
C259 C254 1.499 . S
C259 H260 0.959 . S
C259 H261 0.960 . S
C259 H262 0.961 . S
H260 C259 0.959 . S
H261 C259 0.960 . S
H262 C259 0.961 . S
O263 Co238 1.967 . S
O263 C271 1.258 . S
O264 Co239 1.941 . S
O264 C271 1.266 . S
H265 C267 0.959 . S
H266 C267 0.961 . S
C267 C257 1.510 . S
C267 H265 0.959 . S
C267 H266 0.961 . S
C267 H268 0.960 . S
H268 C267 0.960 . S
H269 N249 0.862 . S
O270 Co238 1.920 . S
O270 C243 1.289 . S
C271 O263 1.258 . S
C271 O264 1.266 . S
Co272 O275 1.938 1_556 S
Co272 N289 1.989 . S
Co272 O297 1.967 . S
Co272 O304 1.920 . S
Co273 O276 1.966 1_556 S
Co273 N282 2.022 . S
Co273 N290 1.993 . S
Co273 O298 1.941 . S
C274 O275 1.281 . S
C274 O276 1.263 . S
O275 Co272 1.938 1_554 S
O275 C274 1.281 . S
O276 Co273 1.966 1_554 S
O276 C274 1.263 . S
C277 O278 1.235 . S
C277 O304 1.289 . S
O278 C277 1.235 . S
C279 C281 1.400 . S
C279 N282 1.351 . S
C279 C284 1.501 1_556 S
C280 C281 1.387 . S
C280 N283 1.341 . S
C281 C279 1.400 . S
C281 C280 1.387 . S
N282 Co273 2.022 . S
N282 C279 1.351 . S
N282 N283 1.365 . S
N283 C280 1.341 . S
N283 N282 1.365 . S
N283 H303 0.862 . S
C284 C279 1.501 1_554 S
C284 H285 0.961 . S
C284 H286 0.961 . S
C284 H287 0.960 . S
H285 C284 0.961 . S
H286 C284 0.961 . S
H287 C284 0.960 . S
C288 N289 1.342 . S
C288 C292 1.401 . S
C288 C293 1.499 . S
N289 Co272 1.989 . S
N289 C288 1.342 . S
N289 N290 1.388 . S
N290 Co273 1.993 . S
N290 N289 1.388 . S
N290 C291 1.346 . S
C291 N290 1.346 . S
C291 C292 1.396 . S
C291 C301 1.510 . S
C292 C288 1.401 . S
C292 C291 1.396 . S
C293 C288 1.499 . S
C293 H294 0.959 . S
C293 H295 0.960 . S
C293 H296 0.961 . S
H294 C293 0.959 . S
H295 C293 0.960 . S
H296 C293 0.961 . S
O297 Co272 1.967 . S
O297 C305 1.258 . S
O298 Co273 1.941 . S
O298 C305 1.266 . S
H299 C301 0.959 . S
H300 C301 0.961 . S
C301 C291 1.510 . S
C301 H299 0.959 . S
C301 H300 0.961 . S
C301 H302 0.960 . S
H302 C301 0.960 . S
H303 N283 0.862 . S
O304 Co272 1.920 . S
O304 C277 1.289 . S
C305 O297 1.258 . S
C305 O298 1.266 . S
Co306 O309 1.970 . S
Co306 N323 1.989 . S
Co306 O331 1.967 . S
Co306 O338 1.920 . S
Co307 O310 1.966 . S
Co307 N316 2.022 . S
Co307 N324 1.993 . S
Co307 O332 1.941 . S
C308 O309 1.258 . S
C308 O310 1.263 . S
O309 Co306 1.970 . S
O309 C308 1.258 . S
O310 Co307 1.966 . S
O310 C308 1.263 . S
C311 O312 1.235 . S
C311 O338 1.289 . S
O312 C311 1.235 . S
C313 C315 1.400 . S
C313 N316 1.351 . S
C313 C318 1.501 . S
C314 C315 1.387 . S
C314 N317 1.341 . S
C315 C313 1.400 . S
C315 C314 1.387 . S
N316 Co307 2.022 . S
N316 C313 1.351 . S
N316 N317 1.365 . S
N317 C314 1.341 . S
N317 N316 1.365 . S
N317 H337 0.862 . S
C318 C313 1.501 . S
C318 H319 0.961 . S
C318 H320 0.961 . S
C318 H321 0.960 . S
H319 C318 0.961 . S
H320 C318 0.961 . S
H321 C318 0.960 . S
C322 N323 1.342 . S
C322 C326 1.401 . S
C322 C327 1.499 . S
N323 Co306 1.989 . S
N323 C322 1.342 . S
N323 N324 1.388 . S
N324 Co307 1.993 . S
N324 N323 1.388 . S
N324 C325 1.346 . S
C325 N324 1.346 . S
C325 C326 1.396 . S
C325 C335 1.510 . S
C326 C322 1.401 . S
C326 C325 1.396 . S
C327 C322 1.499 . S
C327 H328 0.959 . S
C327 H329 0.960 . S
C327 H330 0.961 . S
H328 C327 0.959 . S
H329 C327 0.960 . S
H330 C327 0.961 . S
O331 Co306 1.967 . S
O331 C339 1.258 . S
O332 Co307 1.941 . S
O332 C339 1.266 . S
H333 C335 0.959 . S
H334 C335 0.961 . S
C335 C325 1.510 . S
C335 H333 0.959 . S
C335 H334 0.961 . S
C335 H336 0.960 . S
H336 C335 0.960 . S
H337 N317 0.862 . S
O338 Co306 1.920 . S
O338 C311 1.289 . S
C339 O331 1.258 . S
C339 O332 1.266 . S
Co340 O343 1.970 . S
Co340 N357 1.989 . S
Co340 O365 1.967 . S
Co340 O372 1.920 . S
Co341 O344 1.966 . S
Co341 N350 2.022 . S
Co341 N358 1.993 . S
Co341 O366 1.941 . S
C342 O343 1.258 . S
C342 O344 1.263 . S
O343 Co340 1.970 . S
O343 C342 1.258 . S
O344 Co341 1.966 . S
O344 C342 1.263 . S
C345 O346 1.235 . S
C345 O372 1.289 . S
O346 C345 1.235 . S
C347 C349 1.400 . S
C347 N350 1.351 . S
C347 C352 1.501 . S
C348 C349 1.387 . S
C348 N351 1.341 . S
C349 C347 1.400 . S
C349 C348 1.387 . S
N350 Co341 2.022 . S
N350 C347 1.351 . S
N350 N351 1.365 . S
N351 C348 1.341 . S
N351 N350 1.365 . S
N351 H371 0.862 . S
C352 C347 1.501 . S
C352 H353 0.961 . S
C352 H354 0.961 . S
C352 H355 0.960 . S
H353 C352 0.961 . S
H354 C352 0.961 . S
H355 C352 0.960 . S
C356 N357 1.342 . S
C356 C360 1.401 . S
C356 C361 1.499 . S
N357 Co340 1.989 . S
N357 C356 1.342 . S
N357 N358 1.388 . S
N358 Co341 1.993 . S
N358 N357 1.388 . S
N358 C359 1.346 . S
C359 N358 1.346 . S
C359 C360 1.396 . S
C359 C369 1.510 . S
C360 C356 1.401 . S
C360 C359 1.396 . S
C361 C356 1.499 . S
C361 H362 0.959 . S
C361 H363 0.960 . S
C361 H364 0.961 . S
H362 C361 0.959 . S
H363 C361 0.960 . S
H364 C361 0.961 . S
O365 Co340 1.967 . S
O365 C373 1.258 . S
O366 Co341 1.941 . S
O366 C373 1.266 . S
H367 C369 0.959 . S
H368 C369 0.961 . S
C369 C359 1.510 . S
C369 H367 0.959 . S
C369 H368 0.961 . S
C369 H370 0.960 . S
H370 C369 0.960 . S
H371 N351 0.862 . S
O372 Co340 1.920 . S
O372 C345 1.289 . S
C373 O365 1.258 . S
C373 O366 1.266 . S
Co374 O377 1.970 . S
Co374 N391 1.989 . S
Co374 O399 1.967 . S
Co374 O406 1.920 . S
Co375 O378 1.966 . S
Co375 N384 2.022 . S
Co375 N392 1.993 . S
Co375 O400 1.941 . S
C376 O377 1.258 . S
C376 O378 1.263 . S
O377 Co374 1.970 . S
O377 C376 1.258 . S
O378 Co375 1.966 . S
O378 C376 1.263 . S
C379 O380 1.235 . S
C379 O406 1.289 . S
O380 C379 1.235 . S
C381 C383 1.400 . S
C381 N384 1.351 . S
C381 C386 1.501 . S
C382 C383 1.387 . S
C382 N385 1.341 . S
C383 C381 1.400 . S
C383 C382 1.387 . S
N384 Co375 2.022 . S
N384 C381 1.351 . S
N384 N385 1.365 . S
N385 C382 1.341 . S
N385 N384 1.365 . S
N385 H405 0.862 . S
C386 C381 1.501 . S
C386 H387 0.961 . S
C386 H388 0.961 . S
C386 H389 0.960 . S
H387 C386 0.961 . S
H388 C386 0.961 . S
H389 C386 0.960 . S
C390 N391 1.342 . S
C390 C394 1.401 . S
C390 C395 1.499 . S
N391 Co374 1.989 . S
N391 C390 1.342 . S
N391 N392 1.388 . S
N392 Co375 1.993 . S
N392 N391 1.388 . S
N392 C393 1.346 . S
C393 N392 1.346 . S
C393 C394 1.396 . S
C393 C403 1.510 . S
C394 C390 1.401 . S
C394 C393 1.396 . S
C395 C390 1.499 . S
C395 H396 0.959 . S
C395 H397 0.960 . S
C395 H398 0.961 . S
H396 C395 0.959 . S
H397 C395 0.960 . S
H398 C395 0.961 . S
O399 Co374 1.967 . S
O399 C407 1.258 . S
O400 Co375 1.941 . S
O400 C407 1.266 . S
H401 C403 0.959 . S
H402 C403 0.961 . S
C403 C393 1.510 . S
C403 H401 0.959 . S
C403 H402 0.961 . S
C403 H404 0.960 . S
H404 C403 0.960 . S
H405 N385 0.862 . S
O406 Co374 1.920 . S
O406 C379 1.289 . S
C407 O399 1.258 . S
C407 O400 1.266 . S
Co408 O411 1.970 . S
Co408 N425 1.989 . S
Co408 O433 1.967 . S
Co408 O440 1.920 . S
Co409 O412 1.966 . S
Co409 N418 2.022 . S
Co409 N426 1.993 . S
Co409 O434 1.941 . S
C410 O411 1.258 . S
C410 O412 1.263 . S
O411 Co408 1.970 . S
O411 C410 1.258 . S
O412 Co409 1.966 . S
O412 C410 1.263 . S
C413 O414 1.235 . S
C413 O440 1.289 1_455 S
O414 C413 1.235 . S
C415 C417 1.400 . S
C415 N418 1.351 . S
C415 C420 1.501 . S
C416 C417 1.387 . S
C416 N419 1.341 . S
C417 C415 1.400 . S
C417 C416 1.387 . S
N418 Co409 2.022 . S
N418 C415 1.351 . S
N418 N419 1.365 . S
N419 C416 1.341 . S
N419 N418 1.365 . S
N419 H439 0.862 . S
C420 C415 1.501 . S
C420 H421 0.961 . S
C420 H422 0.961 . S
C420 H423 0.960 . S
H421 C420 0.961 . S
H422 C420 0.961 . S
H423 C420 0.960 . S
C424 N425 1.342 . S
C424 C428 1.401 . S
C424 C429 1.499 . S
N425 Co408 1.989 . S
N425 C424 1.342 . S
N425 N426 1.388 . S
N426 Co409 1.993 . S
N426 N425 1.388 . S
N426 C427 1.346 . S
C427 N426 1.346 . S
C427 C428 1.396 . S
C427 C437 1.510 . S
C428 C424 1.401 . S
C428 C427 1.396 . S
C429 C424 1.499 . S
C429 H430 0.959 . S
C429 H431 0.960 1_655 S
C429 H432 0.961 . S
H430 C429 0.959 . S
H431 C429 0.960 1_455 S
H432 C429 0.961 . S
O433 Co408 1.967 . S
O433 C441 1.258 . S
O434 Co409 1.941 . S
O434 C441 1.266 . S
H435 C437 0.959 . S
H436 C437 0.961 . S
C437 C427 1.510 . S
C437 H435 0.959 . S
C437 H436 0.961 . S
C437 H438 0.960 . S
H438 C437 0.960 . S
H439 N419 0.862 . S
O440 Co408 1.920 . S
O440 C413 1.289 1_655 S
C441 O433 1.258 . S
C441 O434 1.266 . S
Co442 O445 1.970 . S
Co442 N459 1.989 . S
Co442 O467 1.967 . S
Co442 O474 1.920 . S
Co443 O446 1.966 . S
Co443 N452 2.022 . S
Co443 N460 1.993 . S
Co443 O468 1.941 . S
C444 O445 1.258 . S
C444 O446 1.263 . S
O445 Co442 1.970 . S
O445 C444 1.258 . S
O446 Co443 1.966 . S
O446 C444 1.263 . S
C447 O448 1.235 . S
C447 O474 1.289 . S
O448 C447 1.235 . S
C449 C451 1.400 . S
C449 N452 1.351 . S
C449 C454 1.501 . S
C450 C451 1.387 . S
C450 N453 1.341 . S
C451 C449 1.400 . S
C451 C450 1.387 . S
N452 Co443 2.022 . S
N452 C449 1.351 . S
N452 N453 1.365 . S
N453 C450 1.341 . S
N453 N452 1.365 . S
N453 H473 0.862 . S
C454 C449 1.501 . S
C454 H455 0.961 . S
C454 H456 0.961 . S
C454 H457 0.960 . S
H455 C454 0.961 . S
H456 C454 0.961 . S
H457 C454 0.960 . S
C458 N459 1.342 . S
C458 C462 1.401 . S
C458 C463 1.499 . S
N459 Co442 1.989 . S
N459 C458 1.342 . S
N459 N460 1.388 . S
N460 Co443 1.993 . S
N460 N459 1.388 . S
N460 C461 1.346 . S
C461 N460 1.346 . S
C461 C462 1.396 . S
C461 C471 1.510 . S
C462 C458 1.401 . S
C462 C461 1.396 . S
C463 C458 1.499 . S
C463 H464 0.959 . S
C463 H465 0.960 . S
C463 H466 0.961 . S
H464 C463 0.959 . S
H465 C463 0.960 . S
H466 C463 0.961 . S
O467 Co442 1.967 . S
O467 C475 1.258 . S
O468 Co443 1.941 . S
O468 C475 1.266 . S
H469 C471 0.959 . S
H470 C471 0.961 . S
C471 C461 1.510 . S
C471 H469 0.959 . S
C471 H470 0.961 . S
C471 H472 0.960 . S
H472 C471 0.960 . S
H473 N453 0.862 . S
O474 Co442 1.920 . S
O474 C447 1.289 . S
C475 O467 1.258 . S
C475 O468 1.266 . S
Co476 O479 1.970 . S
Co476 N493 1.989 . S
Co476 O501 1.967 . S
Co476 O508 1.920 . S
Co477 O480 1.966 . S
Co477 N486 2.022 . S
Co477 N494 1.993 . S
Co477 O502 1.941 . S
C478 O479 1.258 . S
C478 O480 1.263 . S
O479 Co476 1.970 . S
O479 C478 1.258 . S
O480 Co477 1.966 . S
O480 C478 1.263 . S
C481 O482 1.235 . S
C481 O508 1.289 1_565 S
O482 C481 1.235 . S
C483 C485 1.400 . S
C483 N486 1.351 . S
C483 C488 1.501 . S
C484 C485 1.387 . S
C484 N487 1.341 . S
C485 C483 1.400 . S
C485 C484 1.387 . S
N486 Co477 2.022 . S
N486 C483 1.351 . S
N486 N487 1.365 . S
N487 C484 1.341 . S
N487 N486 1.365 . S
N487 H507 0.862 . S
C488 C483 1.501 . S
C488 H489 0.961 . S
C488 H490 0.961 . S
C488 H491 0.960 . S
H489 C488 0.961 . S
H490 C488 0.961 . S
H491 C488 0.960 . S
C492 N493 1.342 . S
C492 C496 1.401 . S
C492 C497 1.499 . S
N493 Co476 1.989 . S
N493 C492 1.342 . S
N493 N494 1.388 . S
N494 Co477 1.993 . S
N494 N493 1.388 . S
N494 C495 1.346 . S
C495 N494 1.346 . S
C495 C496 1.396 . S
C495 C505 1.510 . S
C496 C492 1.401 . S
C496 C495 1.396 . S
C497 C492 1.499 . S
C497 H498 0.959 . S
C497 H499 0.960 1_545 S
C497 H500 0.961 . S
H498 C497 0.959 . S
H499 C497 0.960 1_565 S
H500 C497 0.961 . S
O501 Co476 1.967 . S
O501 C509 1.258 . S
O502 Co477 1.941 . S
O502 C509 1.266 . S
H503 C505 0.959 . S
H504 C505 0.961 . S
C505 C495 1.510 . S
C505 H503 0.959 . S
C505 H504 0.961 . S
C505 H506 0.960 . S
H506 C505 0.960 . S
H507 N487 0.862 . S
O508 Co476 1.920 . S
O508 C481 1.289 1_545 S
C509 O501 1.258 . S
C509 O502 1.266 . S
Co510 O513 1.970 . S
Co510 N527 1.989 . S
Co510 O535 1.967 . S
Co510 O542 1.920 . S
Co511 O514 1.966 . S
Co511 N520 2.022 . S
Co511 N528 1.993 . S
Co511 O536 1.941 . S
C512 O513 1.258 . S
C512 O514 1.263 . S
O513 Co510 1.970 . S
O513 C512 1.258 . S
O514 Co511 1.966 . S
O514 C512 1.263 . S
C515 O516 1.235 . S
C515 O542 1.289 . S
O516 C515 1.235 . S
C517 C519 1.400 . S
C517 N520 1.351 . S
C517 C522 1.501 . S
C518 C519 1.387 . S
C518 N521 1.341 . S
C519 C517 1.400 . S
C519 C518 1.387 . S
N520 Co511 2.022 . S
N520 C517 1.351 . S
N520 N521 1.365 . S
N521 C518 1.341 . S
N521 N520 1.365 . S
N521 H541 0.862 . S
C522 C517 1.501 . S
C522 H523 0.961 . S
C522 H524 0.961 . S
C522 H525 0.960 . S
H523 C522 0.961 . S
H524 C522 0.961 . S
H525 C522 0.960 . S
C526 N527 1.342 . S
C526 C530 1.401 . S
C526 C531 1.499 . S
N527 Co510 1.989 . S
N527 C526 1.342 . S
N527 N528 1.388 . S
N528 Co511 1.993 . S
N528 N527 1.388 . S
N528 C529 1.346 . S
C529 N528 1.346 . S
C529 C530 1.396 . S
C529 C539 1.510 . S
C530 C526 1.401 . S
C530 C529 1.396 . S
C531 C526 1.499 . S
C531 H532 0.959 . S
C531 H533 0.960 . S
C531 H534 0.961 . S
H532 C531 0.959 . S
H533 C531 0.960 . S
H534 C531 0.961 . S
O535 Co510 1.967 . S
O535 C543 1.258 . S
O536 Co511 1.941 . S
O536 C543 1.266 . S
H537 C539 0.959 . S
H538 C539 0.961 . S
C539 C529 1.510 . S
C539 H537 0.959 . S
C539 H538 0.961 . S
C539 H540 0.960 . S
H540 C539 0.960 . S
H541 N521 0.862 . S
O542 Co510 1.920 . S
O542 C515 1.289 . S
C543 O535 1.258 . S
C543 O536 1.266 . S
Co544 O547 1.970 . S
Co544 N561 1.989 . S
Co544 O569 1.967 . S
Co544 O576 1.920 . S
Co545 O548 1.966 . S
Co545 N554 2.022 . S
Co545 N562 1.993 . S
Co545 O570 1.941 . S
C546 O547 1.258 . S
C546 O548 1.263 . S
O547 Co544 1.970 . S
O547 C546 1.258 . S
O548 Co545 1.966 . S
O548 C546 1.263 . S
C549 O550 1.235 . S
C549 O576 1.289 . S
O550 C549 1.235 . S
C551 C553 1.400 . S
C551 N554 1.351 . S
C551 C556 1.501 . S
C552 C553 1.387 . S
C552 N555 1.341 . S
C553 C551 1.400 . S
C553 C552 1.387 . S
N554 Co545 2.022 . S
N554 C551 1.351 . S
N554 N555 1.365 . S
N555 C552 1.341 . S
N555 N554 1.365 . S
N555 H575 0.862 . S
C556 C551 1.501 . S
C556 H557 0.961 . S
C556 H558 0.961 . S
C556 H559 0.960 . S
H557 C556 0.961 . S
H558 C556 0.961 . S
H559 C556 0.960 . S
C560 N561 1.342 . S
C560 C564 1.401 . S
C560 C565 1.499 . S
N561 Co544 1.989 . S
N561 C560 1.342 . S
N561 N562 1.388 . S
N562 Co545 1.993 . S
N562 N561 1.388 . S
N562 C563 1.346 . S
C563 N562 1.346 . S
C563 C564 1.396 . S
C563 C573 1.510 . S
C564 C560 1.401 . S
C564 C563 1.396 . S
C565 C560 1.499 . S
C565 H566 0.959 . S
C565 H567 0.960 . S
C565 H568 0.961 . S
H566 C565 0.959 . S
H567 C565 0.960 . S
H568 C565 0.961 . S
O569 Co544 1.967 . S
O569 C577 1.258 . S
O570 Co545 1.941 . S
O570 C577 1.266 . S
H571 C573 0.959 . S
H572 C573 0.961 . S
C573 C563 1.510 . S
C573 H571 0.959 . S
C573 H572 0.961 . S
C573 H574 0.960 . S
H574 C573 0.960 . S
H575 N555 0.862 . S
O576 Co544 1.920 . S
O576 C549 1.289 . S
C577 O569 1.258 . S
C577 O570 1.266 . S
Co578 O581 1.970 . S
Co578 N595 1.989 . S
Co578 O603 1.967 . S
Co578 O610 1.920 . S
Co579 O582 1.966 . S
Co579 N588 2.022 . S
Co579 N596 1.993 . S
Co579 O604 1.941 . S
C580 O581 1.258 . S
C580 O582 1.263 . S
O581 Co578 1.970 . S
O581 C580 1.258 . S
O582 Co579 1.966 . S
O582 C580 1.263 . S
C583 O584 1.235 . S
C583 O610 1.289 . S
O584 C583 1.235 . S
C585 C587 1.400 . S
C585 N588 1.351 . S
C585 C590 1.501 . S
C586 C587 1.387 . S
C586 N589 1.341 . S
C587 C585 1.400 . S
C587 C586 1.387 . S
N588 Co579 2.022 . S
N588 C585 1.351 . S
N588 N589 1.365 . S
N589 C586 1.341 . S
N589 N588 1.365 . S
N589 H609 0.862 . S
C590 C585 1.501 . S
C590 H591 0.961 . S
C590 H592 0.961 . S
C590 H593 0.960 . S
H591 C590 0.961 . S
H592 C590 0.961 . S
H593 C590 0.960 . S
C594 N595 1.342 . S
C594 C598 1.401 . S
C594 C599 1.499 . S
N595 Co578 1.989 . S
N595 C594 1.342 . S
N595 N596 1.388 . S
N596 Co579 1.993 . S
N596 N595 1.388 . S
N596 C597 1.346 . S
C597 N596 1.346 . S
C597 C598 1.396 . S
C597 C607 1.510 . S
C598 C594 1.401 . S
C598 C597 1.396 . S
C599 C594 1.499 . S
C599 H600 0.959 . S
C599 H601 0.960 . S
C599 H602 0.961 . S
H600 C599 0.959 . S
H601 C599 0.960 . S
H602 C599 0.961 . S
O603 Co578 1.967 . S
O603 C611 1.258 . S
O604 Co579 1.941 . S
O604 C611 1.266 . S
H605 C607 0.959 . S
H606 C607 0.961 . S
C607 C597 1.510 . S
C607 H605 0.959 . S
C607 H606 0.961 . S
C607 H608 0.960 . S
H608 C607 0.960 . S
H609 N589 0.862 . S
O610 Co578 1.920 . S
O610 C583 1.289 . S
C611 O603 1.258 . S
C611 O604 1.266 . S
Co612 O615 1.970 . S
Co612 N629 1.989 . S
Co612 O637 1.967 . S
Co612 O644 1.920 . S
Co613 O616 1.966 . S
Co613 N622 2.022 . S
Co613 N630 1.993 . S
Co613 O638 1.941 . S
C614 O615 1.258 . S
C614 O616 1.263 . S
O615 Co612 1.970 . S
O615 C614 1.258 . S
O616 Co613 1.966 . S
O616 C614 1.263 . S
C617 O618 1.235 . S
C617 O644 1.289 . S
O618 C617 1.235 . S
C619 C621 1.400 . S
C619 N622 1.351 . S
C619 C624 1.501 . S
C620 C621 1.387 . S
C620 N623 1.341 . S
C621 C619 1.400 . S
C621 C620 1.387 . S
N622 Co613 2.022 . S
N622 C619 1.351 . S
N622 N623 1.365 . S
N623 C620 1.341 . S
N623 N622 1.365 . S
N623 H643 0.862 . S
C624 C619 1.501 . S
C624 H625 0.961 . S
C624 H626 0.961 . S
C624 H627 0.960 . S
H625 C624 0.961 . S
H626 C624 0.961 . S
H627 C624 0.960 . S
C628 N629 1.342 . S
C628 C632 1.401 . S
C628 C633 1.499 . S
N629 Co612 1.989 . S
N629 C628 1.342 . S
N629 N630 1.388 . S
N630 Co613 1.993 . S
N630 N629 1.388 . S
N630 C631 1.346 . S
C631 N630 1.346 . S
C631 C632 1.396 . S
C631 C641 1.510 . S
C632 C628 1.401 . S
C632 C631 1.396 . S
C633 C628 1.499 . S
C633 H634 0.959 . S
C633 H635 0.960 . S
C633 H636 0.961 . S
H634 C633 0.959 . S
H635 C633 0.960 . S
H636 C633 0.961 . S
O637 Co612 1.967 . S
O637 C645 1.258 . S
O638 Co613 1.941 . S
O638 C645 1.266 . S
H639 C641 0.959 . S
H640 C641 0.961 . S
C641 C631 1.510 . S
C641 H639 0.959 . S
C641 H640 0.961 . S
C641 H642 0.960 . S
H642 C641 0.960 . S
H643 N623 0.862 . S
O644 Co612 1.920 . S
O644 C617 1.289 . S
C645 O637 1.258 . S
C645 O638 1.266 . S
Co646 O649 1.970 . S
Co646 N663 1.989 . S
Co646 O671 1.967 . S
Co646 O678 1.920 . S
Co647 O650 1.966 . S
Co647 N656 2.022 . S
Co647 N664 1.993 . S
Co647 O672 1.941 . S
C648 O649 1.258 . S
C648 O650 1.263 . S
O649 Co646 1.970 . S
O649 C648 1.258 . S
O650 Co647 1.966 . S
O650 C648 1.263 . S
C651 O652 1.235 . S
C651 O678 1.289 . S
O652 C651 1.235 . S
C653 C655 1.400 . S
C653 N656 1.351 . S
C653 C658 1.501 . S
C654 C655 1.387 . S
C654 N657 1.341 . S
C655 C653 1.400 . S
C655 C654 1.387 . S
N656 Co647 2.022 . S
N656 C653 1.351 . S
N656 N657 1.365 . S
N657 C654 1.341 . S
N657 N656 1.365 . S
N657 H677 0.862 . S
C658 C653 1.501 . S
C658 H659 0.961 . S
C658 H660 0.961 . S
C658 H661 0.960 . S
H659 C658 0.961 . S
H660 C658 0.961 . S
H661 C658 0.960 . S
C662 N663 1.342 . S
C662 C666 1.401 . S
C662 C667 1.499 . S
N663 Co646 1.989 . S
N663 C662 1.342 . S
N663 N664 1.388 . S
N664 Co647 1.993 . S
N664 N663 1.388 . S
N664 C665 1.346 . S
C665 N664 1.346 . S
C665 C666 1.396 . S
C665 C675 1.510 . S
C666 C662 1.401 . S
C666 C665 1.396 . S
C667 C662 1.499 . S
C667 H668 0.959 . S
C667 H669 0.960 . S
C667 H670 0.961 . S
H668 C667 0.959 . S
H669 C667 0.960 . S
H670 C667 0.961 . S
O671 Co646 1.967 . S
O671 C679 1.258 . S
O672 Co647 1.941 . S
O672 C679 1.266 . S
H673 C675 0.959 . S
H674 C675 0.961 . S
C675 C665 1.510 . S
C675 H673 0.959 . S
C675 H674 0.961 . S
C675 H676 0.960 . S
H676 C675 0.960 . S
H677 N657 0.862 . S
O678 Co646 1.920 . S
O678 C651 1.289 . S
C679 O671 1.258 . S
C679 O672 1.266 . S
Co680 O683 1.970 . S
Co680 N697 1.989 . S
Co680 O705 1.967 . S
Co680 O712 1.920 . S
Co681 O684 1.966 . S
Co681 N690 2.022 . S
Co681 N698 1.993 . S
Co681 O706 1.941 . S
C682 O683 1.258 . S
C682 O684 1.263 . S
O683 Co680 1.970 . S
O683 C682 1.258 . S
O684 Co681 1.966 . S
O684 C682 1.263 . S
C685 O686 1.235 . S
C685 O712 1.289 . S
O686 C685 1.235 . S
C687 C689 1.400 . S
C687 N690 1.351 . S
C687 C692 1.501 . S
C688 C689 1.387 . S
C688 N691 1.341 . S
C689 C687 1.400 . S
C689 C688 1.387 . S
N690 Co681 2.022 . S
N690 C687 1.351 . S
N690 N691 1.365 . S
N691 C688 1.341 . S
N691 N690 1.365 . S
N691 H711 0.862 . S
C692 C687 1.501 . S
C692 H693 0.961 . S
C692 H694 0.961 . S
C692 H695 0.960 . S
H693 C692 0.961 . S
H694 C692 0.961 . S
H695 C692 0.960 . S
C696 N697 1.342 . S
C696 C700 1.401 . S
C696 C701 1.499 . S
N697 Co680 1.989 . S
N697 C696 1.342 . S
N697 N698 1.388 . S
N698 Co681 1.993 . S
N698 N697 1.388 . S
N698 C699 1.346 . S
C699 N698 1.346 . S
C699 C700 1.396 . S
C699 C709 1.510 . S
C700 C696 1.401 . S
C700 C699 1.396 . S
C701 C696 1.499 . S
C701 H702 0.959 . S
C701 H703 0.960 . S
C701 H704 0.961 . S
H702 C701 0.959 . S
H703 C701 0.960 . S
H704 C701 0.961 . S
O705 Co680 1.967 . S
O705 C713 1.258 . S
O706 Co681 1.941 . S
O706 C713 1.266 . S
H707 C709 0.959 . S
H708 C709 0.961 . S
C709 C699 1.510 . S
C709 H707 0.959 . S
C709 H708 0.961 . S
C709 H710 0.960 . S
H710 C709 0.960 . S
H711 N691 0.862 . S
O712 Co680 1.920 . S
O712 C685 1.289 . S
C713 O705 1.258 . S
C713 O706 1.266 . S
Co714 O717 1.970 . S
Co714 N731 1.989 . S
Co714 O739 1.967 . S
Co714 O746 1.920 . S
Co715 O718 1.966 . S
Co715 N724 2.022 . S
Co715 N732 1.993 . S
Co715 O740 1.941 . S
C716 O717 1.258 . S
C716 O718 1.263 . S
O717 Co714 1.970 . S
O717 C716 1.258 . S
O718 Co715 1.966 . S
O718 C716 1.263 . S
C719 O720 1.235 . S
C719 O746 1.289 1_565 S
O720 C719 1.235 . S
C721 C723 1.400 . S
C721 N724 1.351 . S
C721 C726 1.501 . S
C722 C723 1.387 . S
C722 N725 1.341 . S
C723 C721 1.400 . S
C723 C722 1.387 . S
N724 Co715 2.022 . S
N724 C721 1.351 . S
N724 N725 1.365 . S
N725 C722 1.341 . S
N725 N724 1.365 . S
N725 H745 0.862 . S
C726 C721 1.501 . S
C726 H727 0.961 . S
C726 H728 0.961 . S
C726 H729 0.960 . S
H727 C726 0.961 . S
H728 C726 0.961 . S
H729 C726 0.960 . S
C730 N731 1.342 . S
C730 C734 1.401 . S
C730 C735 1.499 . S
N731 Co714 1.989 . S
N731 C730 1.342 . S
N731 N732 1.388 . S
N732 Co715 1.993 . S
N732 N731 1.388 . S
N732 C733 1.346 . S
C733 N732 1.346 . S
C733 C734 1.396 . S
C733 C743 1.510 . S
C734 C730 1.401 . S
C734 C733 1.396 . S
C735 C730 1.499 . S
C735 H736 0.959 . S
C735 H737 0.960 1_545 S
C735 H738 0.961 . S
H736 C735 0.959 . S
H737 C735 0.960 1_565 S
H738 C735 0.961 . S
O739 Co714 1.967 . S
O739 C747 1.258 . S
O740 Co715 1.941 . S
O740 C747 1.266 . S
H741 C743 0.959 . S
H742 C743 0.961 . S
C743 C733 1.510 . S
C743 H741 0.959 . S
C743 H742 0.961 . S
C743 H744 0.960 . S
H744 C743 0.960 . S
H745 N725 0.862 . S
O746 Co714 1.920 . S
O746 C719 1.289 1_545 S
C747 O739 1.258 . S
C747 O740 1.266 . S
Co748 O751 1.970 . S
Co748 N765 1.989 . S
Co748 O773 1.967 . S
Co748 O780 1.920 . S
Co749 O752 1.966 . S
Co749 N758 2.022 . S
Co749 N766 1.993 . S
Co749 O774 1.941 . S
C750 O751 1.258 . S
C750 O752 1.263 . S
O751 Co748 1.970 . S
O751 C750 1.258 . S
O752 Co749 1.966 . S
O752 C750 1.263 . S
C753 O754 1.235 . S
C753 O780 1.289 1_455 S
O754 C753 1.235 . S
C755 C757 1.400 . S
C755 N758 1.351 . S
C755 C760 1.501 . S
C756 C757 1.387 . S
C756 N759 1.341 . S
C757 C755 1.400 . S
C757 C756 1.387 . S
N758 Co749 2.022 . S
N758 C755 1.351 . S
N758 N759 1.365 . S
N759 C756 1.341 . S
N759 N758 1.365 . S
N759 H779 0.862 . S
C760 C755 1.501 . S
C760 H761 0.961 . S
C760 H762 0.961 . S
C760 H763 0.960 . S
H761 C760 0.961 . S
H762 C760 0.961 . S
H763 C760 0.960 . S
C764 N765 1.342 . S
C764 C768 1.401 . S
C764 C769 1.499 . S
N765 Co748 1.989 . S
N765 C764 1.342 . S
N765 N766 1.388 . S
N766 Co749 1.993 . S
N766 N765 1.388 . S
N766 C767 1.346 . S
C767 N766 1.346 . S
C767 C768 1.396 . S
C767 C777 1.510 . S
C768 C764 1.401 . S
C768 C767 1.396 . S
C769 C764 1.499 . S
C769 H770 0.959 . S
C769 H771 0.960 1_655 S
C769 H772 0.961 . S
H770 C769 0.959 . S
H771 C769 0.960 1_455 S
H772 C769 0.961 . S
O773 Co748 1.967 . S
O773 C781 1.258 . S
O774 Co749 1.941 . S
O774 C781 1.266 . S
H775 C777 0.959 . S
H776 C777 0.961 . S
C777 C767 1.510 . S
C777 H775 0.959 . S
C777 H776 0.961 . S
C777 H778 0.960 . S
H778 C777 0.960 . S
H779 N759 0.862 . S
O780 Co748 1.920 . S
O780 C753 1.289 1_655 S
C781 O773 1.258 . S
C781 O774 1.266 . S
Co782 O785 1.970 . S
Co782 N799 1.989 . S
Co782 O807 1.967 . S
Co782 O814 1.920 . S
Co783 O786 1.966 . S
Co783 N792 2.022 . S
Co783 N800 1.993 . S
Co783 O808 1.941 . S
C784 O785 1.258 . S
C784 O786 1.263 . S
O785 Co782 1.970 . S
O785 C784 1.258 . S
O786 Co783 1.966 . S
O786 C784 1.263 . S
C787 O788 1.235 . S
C787 O814 1.289 . S
O788 C787 1.235 . S
C789 C791 1.400 . S
C789 N792 1.351 . S
C789 C794 1.501 . S
C790 C791 1.387 . S
C790 N793 1.341 . S
C791 C789 1.400 . S
C791 C790 1.387 . S
N792 Co783 2.022 . S
N792 C789 1.351 . S
N792 N793 1.365 . S
N793 C790 1.341 . S
N793 N792 1.365 . S
N793 H813 0.862 . S
C794 C789 1.501 . S
C794 H795 0.961 . S
C794 H796 0.961 . S
C794 H797 0.960 . S
H795 C794 0.961 . S
H796 C794 0.961 . S
H797 C794 0.960 . S
C798 N799 1.342 . S
C798 C802 1.401 . S
C798 C803 1.499 . S
N799 Co782 1.989 . S
N799 C798 1.342 . S
N799 N800 1.388 . S
N800 Co783 1.993 . S
N800 N799 1.388 . S
N800 C801 1.346 . S
C801 N800 1.346 . S
C801 C802 1.396 . S
C801 C811 1.510 . S
C802 C798 1.401 . S
C802 C801 1.396 . S
C803 C798 1.499 . S
C803 H804 0.959 . S
C803 H805 0.960 . S
C803 H806 0.961 . S
H804 C803 0.959 . S
H805 C803 0.960 . S
H806 C803 0.961 . S
O807 Co782 1.967 . S
O807 C815 1.258 . S
O808 Co783 1.941 . S
O808 C815 1.266 . S
H809 C811 0.959 . S
H810 C811 0.961 . S
C811 C801 1.510 . S
C811 H809 0.959 . S
C811 H810 0.961 . S
C811 H812 0.960 . S
H812 C811 0.960 . S
H813 N793 0.862 . S
O814 Co782 1.920 . S
O814 C787 1.289 . S
C815 O807 1.258 . S
C815 O808 1.266 . S
Co816 O819 1.970 . S
Co816 N833 1.989 . S
Co816 O841 1.967 . S
Co816 O848 1.920 . S
Co817 O820 1.966 . S
Co817 N826 2.022 . S
Co817 N834 1.993 . S
Co817 O842 1.941 . S
C818 O819 1.258 . S
C818 O820 1.263 . S
O819 Co816 1.970 . S
O819 C818 1.258 . S
O820 Co817 1.966 . S
O820 C818 1.263 . S
C821 O822 1.235 . S
C821 O848 1.289 . S
O822 C821 1.235 . S
C823 C825 1.400 . S
C823 N826 1.351 . S
C823 C828 1.501 . S
C824 C825 1.387 . S
C824 N827 1.341 . S
C825 C823 1.400 . S
C825 C824 1.387 . S
N826 Co817 2.022 . S
N826 C823 1.351 . S
N826 N827 1.365 . S
N827 C824 1.341 . S
N827 N826 1.365 . S
N827 H847 0.862 . S
C828 C823 1.501 . S
C828 H829 0.961 . S
C828 H830 0.961 . S
C828 H831 0.960 . S
H829 C828 0.961 . S
H830 C828 0.961 . S
H831 C828 0.960 . S
C832 N833 1.342 . S
C832 C836 1.401 . S
C832 C837 1.499 . S
N833 Co816 1.989 . S
N833 C832 1.342 . S
N833 N834 1.388 . S
N834 Co817 1.993 . S
N834 N833 1.388 . S
N834 C835 1.346 . S
C835 N834 1.346 . S
C835 C836 1.396 . S
C835 C845 1.510 . S
C836 C832 1.401 . S
C836 C835 1.396 . S
C837 C832 1.499 . S
C837 H838 0.959 . S
C837 H839 0.960 . S
C837 H840 0.961 . S
H838 C837 0.959 . S
H839 C837 0.960 . S
H840 C837 0.961 . S
O841 Co816 1.967 . S
O841 C849 1.258 . S
O842 Co817 1.941 . S
O842 C849 1.266 . S
H843 C845 0.959 . S
H844 C845 0.961 . S
C845 C835 1.510 . S
C845 H843 0.959 . S
C845 H844 0.961 . S
C845 H846 0.960 . S
H846 C845 0.960 . S
H847 N827 0.862 . S
O848 Co816 1.920 . S
O848 C821 1.289 . S
C849 O841 1.258 . S
C849 O842 1.266 . S
Co850 O853 1.970 . S
Co850 N867 1.989 . S
Co850 O875 1.967 . S
Co850 O882 1.920 . S
Co851 O854 1.966 . S
Co851 N860 2.022 . S
Co851 N868 1.993 . S
Co851 O876 1.941 . S
C852 O853 1.258 . S
C852 O854 1.263 . S
O853 Co850 1.970 . S
O853 C852 1.258 . S
O854 Co851 1.966 . S
O854 C852 1.263 . S
C855 O856 1.235 . S
C855 O882 1.289 . S
O856 C855 1.235 . S
C857 C859 1.400 . S
C857 N860 1.351 . S
C857 C862 1.501 . S
C858 C859 1.387 . S
C858 N861 1.341 . S
C859 C857 1.400 . S
C859 C858 1.387 . S
N860 Co851 2.022 . S
N860 C857 1.351 . S
N860 N861 1.365 . S
N861 C858 1.341 . S
N861 N860 1.365 . S
N861 H881 0.862 . S
C862 C857 1.501 . S
C862 H863 0.961 . S
C862 H864 0.961 . S
C862 H865 0.960 . S
H863 C862 0.961 . S
H864 C862 0.961 . S
H865 C862 0.960 . S
C866 N867 1.342 . S
C866 C870 1.401 . S
C866 C871 1.499 . S
N867 Co850 1.989 . S
N867 C866 1.342 . S
N867 N868 1.388 . S
N868 Co851 1.993 . S
N868 N867 1.388 . S
N868 C869 1.346 . S
C869 N868 1.346 . S
C869 C870 1.396 . S
C869 C879 1.510 . S
C870 C866 1.401 . S
C870 C869 1.396 . S
C871 C866 1.499 . S
C871 H872 0.959 . S
C871 H873 0.960 . S
C871 H874 0.961 . S
H872 C871 0.959 . S
H873 C871 0.960 . S
H874 C871 0.961 . S
O875 Co850 1.967 . S
O875 C883 1.258 . S
O876 Co851 1.941 . S
O876 C883 1.266 . S
H877 C879 0.959 . S
H878 C879 0.961 . S
C879 C869 1.510 . S
C879 H877 0.959 . S
C879 H878 0.961 . S
C879 H880 0.960 . S
H880 C879 0.960 . S
H881 N861 0.862 . S
O882 Co850 1.920 . S
O882 C855 1.289 . S
C883 O875 1.258 . S
C883 O876 1.266 . S
Co884 O887 1.970 . S
Co884 N901 1.989 . S
Co884 O909 1.967 . S
Co884 O916 1.920 . S
Co885 O888 1.966 . S
Co885 N894 2.022 . S
Co885 N902 1.993 . S
Co885 O910 1.941 . S
C886 O887 1.258 . S
C886 O888 1.263 . S
O887 Co884 1.970 . S
O887 C886 1.258 . S
O888 Co885 1.966 . S
O888 C886 1.263 . S
C889 O890 1.235 . S
C889 O916 1.289 . S
O890 C889 1.235 . S
C891 C893 1.400 . S
C891 N894 1.351 . S
C891 C896 1.501 . S
C892 C893 1.387 . S
C892 N895 1.341 . S
C893 C891 1.400 . S
C893 C892 1.387 . S
N894 Co885 2.022 . S
N894 C891 1.351 . S
N894 N895 1.365 . S
N895 C892 1.341 . S
N895 N894 1.365 . S
N895 H915 0.862 . S
C896 C891 1.501 . S
C896 H897 0.961 . S
C896 H898 0.961 . S
C896 H899 0.960 . S
H897 C896 0.961 . S
H898 C896 0.961 . S
H899 C896 0.960 . S
C900 N901 1.342 . S
C900 C904 1.401 . S
C900 C905 1.499 . S
N901 Co884 1.989 . S
N901 C900 1.342 . S
N901 N902 1.388 . S
N902 Co885 1.993 . S
N902 N901 1.388 . S
N902 C903 1.346 . S
C903 N902 1.346 . S
C903 C904 1.396 . S
C903 C913 1.510 . S
C904 C900 1.401 . S
C904 C903 1.396 . S
C905 C900 1.499 . S
C905 H906 0.959 . S
C905 H907 0.960 . S
C905 H908 0.961 . S
H906 C905 0.959 . S
H907 C905 0.960 . S
H908 C905 0.961 . S
O909 Co884 1.967 . S
O909 C917 1.258 . S
O910 Co885 1.941 . S
O910 C917 1.266 . S
H911 C913 0.959 . S
H912 C913 0.961 . S
C913 C903 1.510 . S
C913 H911 0.959 . S
C913 H912 0.961 . S
C913 H914 0.960 . S
H914 C913 0.960 . S
H915 N895 0.862 . S
O916 Co884 1.920 . S
O916 C889 1.289 . S
C917 O909 1.258 . S
C917 O910 1.266 . S
Co918 O921 1.970 . S
Co918 N935 1.989 . S
Co918 O943 1.967 . S
Co918 O950 1.920 . S
Co919 O922 1.966 . S
Co919 N928 2.022 . S
Co919 N936 1.993 . S
Co919 O944 1.941 . S
C920 O921 1.258 . S
C920 O922 1.263 . S
O921 Co918 1.970 . S
O921 C920 1.258 . S
O922 Co919 1.966 . S
O922 C920 1.263 . S
C923 O924 1.235 . S
C923 O950 1.289 1_545 S
O924 C923 1.235 . S
C925 C927 1.400 . S
C925 N928 1.351 . S
C925 C930 1.501 . S
C926 C927 1.387 . S
C926 N929 1.341 . S
C927 C925 1.400 . S
C927 C926 1.387 . S
N928 Co919 2.022 . S
N928 C925 1.351 . S
N928 N929 1.365 . S
N929 C926 1.341 . S
N929 N928 1.365 . S
N929 H949 0.862 . S
C930 C925 1.501 . S
C930 H931 0.961 . S
C930 H932 0.961 . S
C930 H933 0.960 . S
H931 C930 0.961 . S
H932 C930 0.961 . S
H933 C930 0.960 . S
C934 N935 1.342 . S
C934 C938 1.401 . S
C934 C939 1.499 . S
N935 Co918 1.989 . S
N935 C934 1.342 . S
N935 N936 1.388 . S
N936 Co919 1.993 . S
N936 N935 1.388 . S
N936 C937 1.346 . S
C937 N936 1.346 . S
C937 C938 1.396 . S
C937 C947 1.510 . S
C938 C934 1.401 . S
C938 C937 1.396 . S
C939 C934 1.499 . S
C939 H940 0.959 . S
C939 H941 0.960 1_565 S
C939 H942 0.961 . S
H940 C939 0.959 . S
H941 C939 0.960 1_545 S
H942 C939 0.961 . S
O943 Co918 1.967 . S
O943 C951 1.258 . S
O944 Co919 1.941 . S
O944 C951 1.266 . S
H945 C947 0.959 . S
H946 C947 0.961 . S
C947 C937 1.510 . S
C947 H945 0.959 . S
C947 H946 0.961 . S
C947 H948 0.960 . S
H948 C947 0.960 . S
H949 N929 0.862 . S
O950 Co918 1.920 . S
O950 C923 1.289 1_565 S
C951 O943 1.258 . S
C951 O944 1.266 . S
Co952 O955 1.970 . S
Co952 N969 1.989 . S
Co952 O977 1.967 . S
Co952 O984 1.920 . S
Co953 O956 1.966 . S
Co953 N962 2.022 . S
Co953 N970 1.993 . S
Co953 O978 1.941 . S
C954 O955 1.258 . S
C954 O956 1.263 . S
O955 Co952 1.970 . S
O955 C954 1.258 . S
O956 Co953 1.966 . S
O956 C954 1.263 . S
C957 O958 1.235 . S
C957 O984 1.289 1_655 S
O958 C957 1.235 . S
C959 C961 1.400 . S
C959 N962 1.351 . S
C959 C964 1.501 . S
C960 C961 1.387 . S
C960 N963 1.341 . S
C961 C959 1.400 . S
C961 C960 1.387 . S
N962 Co953 2.022 . S
N962 C959 1.351 . S
N962 N963 1.365 . S
N963 C960 1.341 . S
N963 N962 1.365 . S
N963 H983 0.862 . S
C964 C959 1.501 . S
C964 H965 0.961 . S
C964 H966 0.961 . S
C964 H967 0.960 . S
H965 C964 0.961 . S
H966 C964 0.961 . S
H967 C964 0.960 . S
C968 N969 1.342 . S
C968 C972 1.401 . S
C968 C973 1.499 . S
N969 Co952 1.989 . S
N969 C968 1.342 . S
N969 N970 1.388 . S
N970 Co953 1.993 . S
N970 N969 1.388 . S
N970 C971 1.346 . S
C971 N970 1.346 . S
C971 C972 1.396 . S
C971 C981 1.510 . S
C972 C968 1.401 . S
C972 C971 1.396 . S
C973 C968 1.499 . S
C973 H974 0.959 . S
C973 H975 0.960 1_455 S
C973 H976 0.961 . S
H974 C973 0.959 . S
H975 C973 0.960 1_655 S
H976 C973 0.961 . S
O977 Co952 1.967 . S
O977 C985 1.258 . S
O978 Co953 1.941 . S
O978 C985 1.266 . S
H979 C981 0.959 . S
H980 C981 0.961 . S
C981 C971 1.510 . S
C981 H979 0.959 . S
C981 H980 0.961 . S
C981 H982 0.960 . S
H982 C981 0.960 . S
H983 N963 0.862 . S
O984 Co952 1.920 . S
O984 C957 1.289 1_455 S
C985 O977 1.258 . S
C985 O978 1.266 . S
Co986 O989 1.970 . S
Co986 N1003 1.989 . S
Co986 O1011 1.967 . S
Co986 O1018 1.920 . S
Co987 O990 1.966 . S
Co987 N996 2.022 . S
Co987 N1004 1.993 . S
Co987 O1012 1.941 . S
C988 O989 1.258 . S
C988 O990 1.263 . S
O989 Co986 1.970 . S
O989 C988 1.258 . S
O990 Co987 1.966 . S
O990 C988 1.263 . S
C991 O992 1.235 . S
C991 O1018 1.289 . S
O992 C991 1.235 . S
C993 C995 1.400 . S
C993 N996 1.351 . S
C993 C998 1.501 . S
C994 C995 1.387 . S
C994 N997 1.341 . S
C995 C993 1.400 . S
C995 C994 1.387 . S
N996 Co987 2.022 . S
N996 C993 1.351 . S
N996 N997 1.365 . S
N997 C994 1.341 . S
N997 N996 1.365 . S
N997 H1017 0.862 . S
C998 C993 1.501 . S
C998 H999 0.961 . S
C998 H1000 0.961 . S
C998 H1001 0.960 . S
H999 C998 0.961 . S
H1000 C998 0.961 . S
H1001 C998 0.960 . S
C1002 N1003 1.342 . S
C1002 C1006 1.401 . S
C1002 C1007 1.499 . S
N1003 Co986 1.989 . S
N1003 C1002 1.342 . S
N1003 N1004 1.388 . S
N1004 Co987 1.993 . S
N1004 N1003 1.388 . S
N1004 C1005 1.346 . S
C1005 N1004 1.346 . S
C1005 C1006 1.396 . S
C1005 C1015 1.510 . S
C1006 C1002 1.401 . S
C1006 C1005 1.396 . S
C1007 C1002 1.499 . S
C1007 H1008 0.959 . S
C1007 H1009 0.960 . S
C1007 H1010 0.961 . S
H1008 C1007 0.959 . S
H1009 C1007 0.960 . S
H1010 C1007 0.961 . S
O1011 Co986 1.967 . S
O1011 C1019 1.258 . S
O1012 Co987 1.941 . S
O1012 C1019 1.266 . S
H1013 C1015 0.959 . S
H1014 C1015 0.961 . S
C1015 C1005 1.510 . S
C1015 H1013 0.959 . S
C1015 H1014 0.961 . S
C1015 H1016 0.960 . S
H1016 C1015 0.960 . S
H1017 N997 0.862 . S
O1018 Co986 1.920 . S
O1018 C991 1.289 . S
C1019 O1011 1.258 . S
C1019 O1012 1.266 . S
Co1020 O1023 1.970 . S
Co1020 N1037 1.989 . S
Co1020 O1045 1.967 . S
Co1020 O1052 1.920 . S
Co1021 O1024 1.966 . S
Co1021 N1030 2.022 . S
Co1021 N1038 1.993 . S
Co1021 O1046 1.941 . S
C1022 O1023 1.258 . S
C1022 O1024 1.263 . S
O1023 Co1020 1.970 . S
O1023 C1022 1.258 . S
O1024 Co1021 1.966 . S
O1024 C1022 1.263 . S
C1025 O1026 1.235 . S
C1025 O1052 1.289 1_655 S
O1026 C1025 1.235 . S
C1027 C1029 1.400 . S
C1027 N1030 1.351 . S
C1027 C1032 1.501 . S
C1028 C1029 1.387 . S
C1028 N1031 1.341 . S
C1029 C1027 1.400 . S
C1029 C1028 1.387 . S
N1030 Co1021 2.022 . S
N1030 C1027 1.351 . S
N1030 N1031 1.365 . S
N1031 C1028 1.341 . S
N1031 N1030 1.365 . S
N1031 H1051 0.862 . S
C1032 C1027 1.501 . S
C1032 H1033 0.961 . S
C1032 H1034 0.961 . S
C1032 H1035 0.960 . S
H1033 C1032 0.961 . S
H1034 C1032 0.961 . S
H1035 C1032 0.960 . S
C1036 N1037 1.342 . S
C1036 C1040 1.401 . S
C1036 C1041 1.499 . S
N1037 Co1020 1.989 . S
N1037 C1036 1.342 . S
N1037 N1038 1.388 . S
N1038 Co1021 1.993 . S
N1038 N1037 1.388 . S
N1038 C1039 1.346 . S
C1039 N1038 1.346 . S
C1039 C1040 1.396 . S
C1039 C1049 1.510 . S
C1040 C1036 1.401 . S
C1040 C1039 1.396 . S
C1041 C1036 1.499 . S
C1041 H1042 0.959 . S
C1041 H1043 0.960 1_455 S
C1041 H1044 0.961 . S
H1042 C1041 0.959 . S
H1043 C1041 0.960 1_655 S
H1044 C1041 0.961 . S
O1045 Co1020 1.967 . S
O1045 C1053 1.258 . S
O1046 Co1021 1.941 . S
O1046 C1053 1.266 . S
H1047 C1049 0.959 . S
H1048 C1049 0.961 . S
C1049 C1039 1.510 . S
C1049 H1047 0.959 . S
C1049 H1048 0.961 . S
C1049 H1050 0.960 . S
H1050 C1049 0.960 . S
H1051 N1031 0.862 . S
O1052 Co1020 1.920 . S
O1052 C1025 1.289 1_455 S
C1053 O1045 1.258 . S
C1053 O1046 1.266 . S
Co1054 O1057 1.970 . S
Co1054 N1071 1.989 . S
Co1054 O1079 1.967 . S
Co1054 O1086 1.920 . S
Co1055 O1058 1.966 . S
Co1055 N1064 2.022 . S
Co1055 N1072 1.993 . S
Co1055 O1080 1.941 . S
C1056 O1057 1.258 . S
C1056 O1058 1.263 . S
O1057 Co1054 1.970 . S
O1057 C1056 1.258 . S
O1058 Co1055 1.966 . S
O1058 C1056 1.263 . S
C1059 O1060 1.235 . S
C1059 O1086 1.289 . S
O1060 C1059 1.235 . S
C1061 C1063 1.400 . S
C1061 N1064 1.351 . S
C1061 C1066 1.501 . S
C1062 C1063 1.387 . S
C1062 N1065 1.341 . S
C1063 C1061 1.400 . S
C1063 C1062 1.387 . S
N1064 Co1055 2.022 . S
N1064 C1061 1.351 . S
N1064 N1065 1.365 . S
N1065 C1062 1.341 . S
N1065 N1064 1.365 . S
N1065 H1085 0.862 . S
C1066 C1061 1.501 . S
C1066 H1067 0.961 . S
C1066 H1068 0.961 . S
C1066 H1069 0.960 . S
H1067 C1066 0.961 . S
H1068 C1066 0.961 . S
H1069 C1066 0.960 . S
C1070 N1071 1.342 . S
C1070 C1074 1.401 . S
C1070 C1075 1.499 . S
N1071 Co1054 1.989 . S
N1071 C1070 1.342 . S
N1071 N1072 1.388 . S
N1072 Co1055 1.993 . S
N1072 N1071 1.388 . S
N1072 C1073 1.346 . S
C1073 N1072 1.346 . S
C1073 C1074 1.396 . S
C1073 C1083 1.510 . S
C1074 C1070 1.401 . S
C1074 C1073 1.396 . S
C1075 C1070 1.499 . S
C1075 H1076 0.959 . S
C1075 H1077 0.960 . S
C1075 H1078 0.961 . S
H1076 C1075 0.959 . S
H1077 C1075 0.960 . S
H1078 C1075 0.961 . S
O1079 Co1054 1.967 . S
O1079 C1087 1.258 . S
O1080 Co1055 1.941 . S
O1080 C1087 1.266 . S
H1081 C1083 0.959 . S
H1082 C1083 0.961 . S
C1083 C1073 1.510 . S
C1083 H1081 0.959 . S
C1083 H1082 0.961 . S
C1083 H1084 0.960 . S
H1084 C1083 0.960 . S
H1085 N1065 0.862 . S
O1086 Co1054 1.920 . S
O1086 C1059 1.289 . S
C1087 O1079 1.258 . S
C1087 O1080 1.266 . S
Co1088 O1091 1.970 . S
Co1088 N1105 1.989 . S
Co1088 O1113 1.967 . S
Co1088 O1120 1.920 . S
Co1089 O1092 1.966 . S
Co1089 N1098 2.022 . S
Co1089 N1106 1.993 . S
Co1089 O1114 1.941 . S
C1090 O1091 1.258 . S
C1090 O1092 1.263 . S
O1091 Co1088 1.970 . S
O1091 C1090 1.258 . S
O1092 Co1089 1.966 . S
O1092 C1090 1.263 . S
C1093 O1094 1.235 . S
C1093 O1120 1.289 1_545 S
O1094 C1093 1.235 . S
C1095 C1097 1.400 . S
C1095 N1098 1.351 . S
C1095 C1100 1.501 . S
C1096 C1097 1.387 . S
C1096 N1099 1.341 . S
C1097 C1095 1.400 . S
C1097 C1096 1.387 . S
N1098 Co1089 2.022 . S
N1098 C1095 1.351 . S
N1098 N1099 1.365 . S
N1099 C1096 1.341 . S
N1099 N1098 1.365 . S
N1099 H1119 0.862 . S
C1100 C1095 1.501 . S
C1100 H1101 0.961 . S
C1100 H1102 0.961 . S
C1100 H1103 0.960 . S
H1101 C1100 0.961 . S
H1102 C1100 0.961 . S
H1103 C1100 0.960 . S
C1104 N1105 1.342 . S
C1104 C1108 1.401 . S
C1104 C1109 1.499 . S
N1105 Co1088 1.989 . S
N1105 C1104 1.342 . S
N1105 N1106 1.388 . S
N1106 Co1089 1.993 . S
N1106 N1105 1.388 . S
N1106 C1107 1.346 . S
C1107 N1106 1.346 . S
C1107 C1108 1.396 . S
C1107 C1117 1.510 . S
C1108 C1104 1.401 . S
C1108 C1107 1.396 . S
C1109 C1104 1.499 . S
C1109 H1110 0.959 . S
C1109 H1111 0.960 1_565 S
C1109 H1112 0.961 . S
H1110 C1109 0.959 . S
H1111 C1109 0.960 1_545 S
H1112 C1109 0.961 . S
O1113 Co1088 1.967 . S
O1113 C1121 1.258 . S
O1114 Co1089 1.941 . S
O1114 C1121 1.266 . S
H1115 C1117 0.959 . S
H1116 C1117 0.961 . S
C1117 C1107 1.510 . S
C1117 H1115 0.959 . S
C1117 H1116 0.961 . S
C1117 H1118 0.960 . S
H1118 C1117 0.960 . S
H1119 N1099 0.862 . S
O1120 Co1088 1.920 . S
O1120 C1093 1.289 1_565 S
C1121 O1113 1.258 . S
C1121 O1114 1.266 . S
Co1122 O1125 1.970 . S
Co1122 N1139 1.989 . S
Co1122 O1147 1.967 . S
Co1122 O1154 1.920 . S
Co1123 O1126 1.966 . S
Co1123 N1132 2.022 . S
Co1123 N1140 1.993 . S
Co1123 O1148 1.941 . S
C1124 O1125 1.258 . S
C1124 O1126 1.263 . S
O1125 Co1122 1.970 . S
O1125 C1124 1.258 . S
O1126 Co1123 1.966 . S
O1126 C1124 1.263 . S
C1127 O1128 1.235 . S
C1127 O1154 1.289 . S
O1128 C1127 1.235 . S
C1129 C1131 1.400 . S
C1129 N1132 1.351 . S
C1129 C1134 1.501 . S
C1130 C1131 1.387 . S
C1130 N1133 1.341 . S
C1131 C1129 1.400 . S
C1131 C1130 1.387 . S
N1132 Co1123 2.022 . S
N1132 C1129 1.351 . S
N1132 N1133 1.365 . S
N1133 C1130 1.341 . S
N1133 N1132 1.365 . S
N1133 H1153 0.862 . S
C1134 C1129 1.501 . S
C1134 H1135 0.961 . S
C1134 H1136 0.961 . S
C1134 H1137 0.960 . S
H1135 C1134 0.961 . S
H1136 C1134 0.961 . S
H1137 C1134 0.960 . S
C1138 N1139 1.342 . S
C1138 C1142 1.401 . S
C1138 C1143 1.499 . S
N1139 Co1122 1.989 . S
N1139 C1138 1.342 . S
N1139 N1140 1.388 . S
N1140 Co1123 1.993 . S
N1140 N1139 1.388 . S
N1140 C1141 1.346 . S
C1141 N1140 1.346 . S
C1141 C1142 1.396 . S
C1141 C1151 1.510 . S
C1142 C1138 1.401 . S
C1142 C1141 1.396 . S
C1143 C1138 1.499 . S
C1143 H1144 0.959 . S
C1143 H1145 0.960 . S
C1143 H1146 0.961 . S
H1144 C1143 0.959 . S
H1145 C1143 0.960 . S
H1146 C1143 0.961 . S
O1147 Co1122 1.967 . S
O1147 C1155 1.258 . S
O1148 Co1123 1.941 . S
O1148 C1155 1.266 . S
H1149 C1151 0.959 . S
H1150 C1151 0.961 . S
C1151 C1141 1.510 . S
C1151 H1149 0.959 . S
C1151 H1150 0.961 . S
C1151 H1152 0.960 . S
H1152 C1151 0.960 . S
H1153 N1133 0.862 . S
O1154 Co1122 1.920 . S
O1154 C1127 1.289 . S
C1155 O1147 1.258 . S
C1155 O1148 1.266 . S
Co1156 O1159 1.970 . S
Co1156 N1173 1.989 . S
Co1156 O1181 1.967 . S
Co1156 O1188 1.920 . S
Co1157 O1160 1.966 . S
Co1157 N1166 2.022 . S
Co1157 N1174 1.993 . S
Co1157 O1182 1.941 . S
C1158 O1159 1.258 . S
C1158 O1160 1.263 . S
O1159 Co1156 1.970 . S
O1159 C1158 1.258 . S
O1160 Co1157 1.966 . S
O1160 C1158 1.263 . S
C1161 O1162 1.235 . S
C1161 O1188 1.289 . S
O1162 C1161 1.235 . S
C1163 C1165 1.400 . S
C1163 N1166 1.351 . S
C1163 C1168 1.501 . S
C1164 C1165 1.387 . S
C1164 N1167 1.341 . S
C1165 C1163 1.400 . S
C1165 C1164 1.387 . S
N1166 Co1157 2.022 . S
N1166 C1163 1.351 . S
N1166 N1167 1.365 . S
N1167 C1164 1.341 . S
N1167 N1166 1.365 . S
N1167 H1187 0.862 . S
C1168 C1163 1.501 . S
C1168 H1169 0.961 . S
C1168 H1170 0.961 . S
C1168 H1171 0.960 . S
H1169 C1168 0.961 . S
H1170 C1168 0.961 . S
H1171 C1168 0.960 . S
C1172 N1173 1.342 . S
C1172 C1176 1.401 . S
C1172 C1177 1.499 . S
N1173 Co1156 1.989 . S
N1173 C1172 1.342 . S
N1173 N1174 1.388 . S
N1174 Co1157 1.993 . S
N1174 N1173 1.388 . S
N1174 C1175 1.346 . S
C1175 N1174 1.346 . S
C1175 C1176 1.396 . S
C1175 C1185 1.510 . S
C1176 C1172 1.401 . S
C1176 C1175 1.396 . S
C1177 C1172 1.499 . S
C1177 H1178 0.959 . S
C1177 H1179 0.960 . S
C1177 H1180 0.961 . S
H1178 C1177 0.959 . S
H1179 C1177 0.960 . S
H1180 C1177 0.961 . S
O1181 Co1156 1.967 . S
O1181 C1189 1.258 . S
O1182 Co1157 1.941 . S
O1182 C1189 1.266 . S
H1183 C1185 0.959 . S
H1184 C1185 0.961 . S
C1185 C1175 1.510 . S
C1185 H1183 0.959 . S
C1185 H1184 0.961 . S
C1185 H1186 0.960 . S
H1186 C1185 0.960 . S
H1187 N1167 0.862 . S
O1188 Co1156 1.920 . S
O1188 C1161 1.289 . S
C1189 O1181 1.258 . S
C1189 O1182 1.266 . S
Co1190 O1193 1.970 . S
Co1190 N1207 1.989 . S
Co1190 O1215 1.967 . S
Co1190 O1222 1.920 . S
Co1191 O1194 1.966 . S
Co1191 N1200 2.022 . S
Co1191 N1208 1.993 . S
Co1191 O1216 1.941 . S
C1192 O1193 1.258 . S
C1192 O1194 1.263 . S
O1193 Co1190 1.970 . S
O1193 C1192 1.258 . S
O1194 Co1191 1.966 . S
O1194 C1192 1.263 . S
C1195 O1196 1.235 . S
C1195 O1222 1.289 . S
O1196 C1195 1.235 . S
C1197 C1199 1.400 . S
C1197 N1200 1.351 . S
C1197 C1202 1.501 . S
C1198 C1199 1.387 . S
C1198 N1201 1.341 . S
C1199 C1197 1.400 . S
C1199 C1198 1.387 . S
N1200 Co1191 2.022 . S
N1200 C1197 1.351 . S
N1200 N1201 1.365 . S
N1201 C1198 1.341 . S
N1201 N1200 1.365 . S
N1201 H1221 0.862 . S
C1202 C1197 1.501 . S
C1202 H1203 0.961 . S
C1202 H1204 0.961 . S
C1202 H1205 0.960 . S
H1203 C1202 0.961 . S
H1204 C1202 0.961 . S
H1205 C1202 0.960 . S
C1206 N1207 1.342 . S
C1206 C1210 1.401 . S
C1206 C1211 1.499 . S
N1207 Co1190 1.989 . S
N1207 C1206 1.342 . S
N1207 N1208 1.388 . S
N1208 Co1191 1.993 . S
N1208 N1207 1.388 . S
N1208 C1209 1.346 . S
C1209 N1208 1.346 . S
C1209 C1210 1.396 . S
C1209 C1219 1.510 . S
C1210 C1206 1.401 . S
C1210 C1209 1.396 . S
C1211 C1206 1.499 . S
C1211 H1212 0.959 . S
C1211 H1213 0.960 . S
C1211 H1214 0.961 . S
H1212 C1211 0.959 . S
H1213 C1211 0.960 . S
H1214 C1211 0.961 . S
O1215 Co1190 1.967 . S
O1215 C1223 1.258 . S
O1216 Co1191 1.941 . S
O1216 C1223 1.266 . S
H1217 C1219 0.959 . S
H1218 C1219 0.961 . S
C1219 C1209 1.510 . S
C1219 H1217 0.959 . S
C1219 H1218 0.961 . S
C1219 H1220 0.960 . S
H1220 C1219 0.960 . S
H1221 N1201 0.862 . S
O1222 Co1190 1.920 . S
O1222 C1195 1.289 . S
C1223 O1215 1.258 . S
C1223 O1216 1.266 . S
C1224 C1225 1.363 . S
C1224 C1230 1.379 . S
C1224 N1232 1.356 . S
C1225 C1224 1.363 . S
C1225 C1231 1.363 . S
C1226 C1227 1.363 . S
C1226 C1231 1.379 . S
C1226 N1233 1.356 . S
C1227 C1226 1.363 . S
C1227 C1230 1.363 . S
N1228 C1230 1.356 . S
N1228 H1240 0.984 . S
N1228 H1241 0.985 . S
N1229 C1231 1.356 . S
N1229 H1234 0.984 . S
N1229 H1235 0.985 . S
C1230 C1224 1.379 . S
C1230 C1227 1.363 . S
C1230 N1228 1.356 . S
C1231 C1225 1.363 . S
C1231 C1226 1.379 . S
C1231 N1229 1.356 . S
N1232 C1224 1.356 . S
N1232 H1238 0.984 . S
N1232 H1239 0.984 . S
N1233 C1226 1.356 . S
N1233 H1236 0.984 . S
N1233 H1237 0.985 . S
H1234 N1229 0.984 . S
H1235 N1229 0.985 . S
H1236 N1233 0.984 . S
H1237 N1233 0.985 . S
H1238 N1232 0.984 . S
H1239 N1232 0.984 . S
H1240 N1228 0.984 . S
H1241 N1228 0.985 . S
C1242 C1243 1.363 . S
C1242 C1248 1.379 . S
C1242 N1250 1.356 . S
C1243 C1242 1.363 . S
C1243 C1249 1.363 . S
C1244 C1245 1.363 . S
C1244 C1249 1.379 . S
C1244 N1251 1.356 . S
C1245 C1244 1.363 . S
C1245 C1248 1.363 . S
N1246 C1248 1.356 . S
N1246 H1258 0.984 . S
N1246 H1259 0.985 . S
N1247 C1249 1.356 . S
N1247 H1252 0.984 . S
N1247 H1253 0.985 . S
C1248 C1242 1.379 . S
C1248 C1245 1.363 . S
C1248 N1246 1.356 . S
C1249 C1243 1.363 . S
C1249 C1244 1.379 . S
C1249 N1247 1.356 . S
N1250 C1242 1.356 . S
N1250 H1256 0.984 . S
N1250 H1257 0.984 . S
N1251 C1244 1.356 . S
N1251 H1254 0.984 . S
N1251 H1255 0.985 . S
H1252 N1247 0.984 . S
H1253 N1247 0.985 . S
H1254 N1251 0.984 . S
H1255 N1251 0.985 . S
H1256 N1250 0.984 . S
H1257 N1250 0.984 . S
H1258 N1246 0.984 . S
H1259 N1246 0.985 . S
C1260 C1261 1.363 . S
C1260 C1266 1.379 . S
C1260 N1268 1.356 . S
C1261 C1260 1.363 . S
C1261 C1267 1.363 . S
C1262 C1263 1.363 . S
C1262 C1267 1.379 . S
C1262 N1269 1.356 . S
C1263 C1262 1.363 . S
C1263 C1266 1.363 . S
N1264 C1266 1.356 . S
N1264 H1276 0.984 . S
N1264 H1277 0.985 . S
N1265 C1267 1.356 . S
N1265 H1270 0.984 . S
N1265 H1271 0.985 . S
C1266 C1260 1.379 . S
C1266 C1263 1.363 . S
C1266 N1264 1.356 . S
C1267 C1261 1.363 . S
C1267 C1262 1.379 . S
C1267 N1265 1.356 . S
N1268 C1260 1.356 . S
N1268 H1274 0.984 . S
N1268 H1275 0.984 . S
N1269 C1262 1.356 . S
N1269 H1272 0.984 . S
N1269 H1273 0.985 . S
H1270 N1265 0.984 . S
H1271 N1265 0.985 . S
H1272 N1269 0.984 . S
H1273 N1269 0.985 . S
H1274 N1268 0.984 . S
H1275 N1268 0.984 . S
H1276 N1264 0.984 . S
H1277 N1264 0.985 . S
C1278 C1279 1.363 . S
C1278 C1284 1.379 . S
C1278 N1286 1.356 . S
C1279 C1278 1.363 . S
C1279 C1285 1.363 . S
C1280 C1281 1.363 . S
C1280 C1285 1.379 . S
C1280 N1287 1.356 . S
C1281 C1280 1.363 . S
C1281 C1284 1.363 . S
N1282 C1284 1.356 . S
N1282 H1294 0.984 . S
N1282 H1295 0.985 . S
N1283 C1285 1.356 . S
N1283 H1288 0.984 . S
N1283 H1289 0.985 . S
C1284 C1278 1.379 . S
C1284 C1281 1.363 . S
C1284 N1282 1.356 . S
C1285 C1279 1.363 . S
C1285 C1280 1.379 . S
C1285 N1283 1.356 . S
N1286 C1278 1.356 . S
N1286 H1292 0.984 . S
N1286 H1293 0.984 . S
N1287 C1280 1.356 . S
N1287 H1290 0.984 . S
N1287 H1291 0.985 . S
H1288 N1283 0.984 . S
H1289 N1283 0.985 . S
H1290 N1287 0.984 . S
H1291 N1287 0.985 . S
H1292 N1286 0.984 . S
H1293 N1286 0.984 . S
H1294 N1282 0.984 . S
H1295 N1282 0.985 . S
C1296 C1297 1.363 . S
C1296 C1302 1.379 . S
C1296 N1304 1.356 . S
C1297 C1296 1.363 . S
C1297 C1303 1.363 . S
C1298 C1299 1.363 . S
C1298 C1303 1.379 . S
C1298 N1305 1.356 . S
C1299 C1298 1.363 . S
C1299 C1302 1.363 . S
N1300 C1302 1.356 . S
N1300 H1312 0.984 . S
N1300 H1313 0.985 . S
N1301 C1303 1.356 . S
N1301 H1306 0.984 . S
N1301 H1307 0.985 . S
C1302 C1296 1.379 . S
C1302 C1299 1.363 . S
C1302 N1300 1.356 . S
C1303 C1297 1.363 . S
C1303 C1298 1.379 . S
C1303 N1301 1.356 . S
N1304 C1296 1.356 . S
N1304 H1310 0.984 . S
N1304 H1311 0.984 . S
N1305 C1298 1.356 . S
N1305 H1308 0.984 . S
N1305 H1309 0.985 . S
H1306 N1301 0.984 . S
H1307 N1301 0.985 . S
H1308 N1305 0.984 . S
H1309 N1305 0.985 . S
H1310 N1304 0.984 . S
H1311 N1304 0.984 . S
H1312 N1300 0.984 . S
H1313 N1300 0.985 . S
C1314 C1315 1.363 . S
C1314 C1320 1.379 . S
C1314 N1322 1.356 . S
C1315 C1314 1.363 . S
C1315 C1321 1.363 . S
C1316 C1317 1.363 . S
C1316 C1321 1.379 . S
C1316 N1323 1.356 . S
C1317 C1316 1.363 . S
C1317 C1320 1.363 . S
N1318 C1320 1.356 . S
N1318 H1330 0.984 . S
N1318 H1331 0.985 . S
N1319 C1321 1.356 . S
N1319 H1324 0.984 . S
N1319 H1325 0.985 . S
C1320 C1314 1.379 . S
C1320 C1317 1.363 . S
C1320 N1318 1.356 . S
C1321 C1315 1.363 . S
C1321 C1316 1.379 . S
C1321 N1319 1.356 . S
N1322 C1314 1.356 . S
N1322 H1328 0.984 . S
N1322 H1329 0.984 . S
N1323 C1316 1.356 . S
N1323 H1326 0.984 . S
N1323 H1327 0.985 . S
H1324 N1319 0.984 . S
H1325 N1319 0.985 . S
H1326 N1323 0.984 . S
H1327 N1323 0.985 . S
H1328 N1322 0.984 . S
H1329 N1322 0.984 . S
H1330 N1318 0.984 . S
H1331 N1318 0.985 . S
C1332 C1333 1.363 . S
C1332 C1338 1.379 . S
C1332 N1340 1.356 . S
C1333 C1332 1.363 . S
C1333 C1339 1.363 . S
C1334 C1335 1.363 . S
C1334 C1339 1.379 . S
C1334 N1341 1.356 . S
C1335 C1334 1.363 . S
C1335 C1338 1.363 . S
N1336 C1338 1.356 . S
N1336 H1348 0.984 . S
N1336 H1349 0.985 . S
N1337 C1339 1.356 . S
N1337 H1342 0.984 . S
N1337 H1343 0.985 . S
C1338 C1332 1.379 . S
C1338 C1335 1.363 . S
C1338 N1336 1.356 . S
C1339 C1333 1.363 . S
C1339 C1334 1.379 . S
C1339 N1337 1.356 . S
N1340 C1332 1.356 . S
N1340 H1346 0.984 . S
N1340 H1347 0.984 . S
N1341 C1334 1.356 . S
N1341 H1344 0.984 . S
N1341 H1345 0.985 . S
H1342 N1337 0.984 . S
H1343 N1337 0.985 . S
H1344 N1341 0.984 . S
H1345 N1341 0.985 . S
H1346 N1340 0.984 . S
H1347 N1340 0.984 . S
H1348 N1336 0.984 . S
H1349 N1336 0.985 . S
C1350 C1351 1.363 . S
C1350 C1356 1.379 . S
C1350 N1358 1.356 . S
C1351 C1350 1.363 . S
C1351 C1357 1.363 . S
C1352 C1353 1.363 . S
C1352 C1357 1.379 . S
C1352 N1359 1.356 . S
C1353 C1352 1.363 . S
C1353 C1356 1.363 . S
N1354 C1356 1.356 . S
N1354 H1366 0.984 . S
N1354 H1367 0.985 . S
N1355 C1357 1.356 . S
N1355 H1360 0.984 . S
N1355 H1361 0.985 . S
C1356 C1350 1.379 . S
C1356 C1353 1.363 . S
C1356 N1354 1.356 . S
C1357 C1351 1.363 . S
C1357 C1352 1.379 . S
C1357 N1355 1.356 . S
N1358 C1350 1.356 . S
N1358 H1364 0.984 . S
N1358 H1365 0.984 . S
N1359 C1352 1.356 . S
N1359 H1362 0.984 . S
N1359 H1363 0.985 . S
H1360 N1355 0.984 . S
H1361 N1355 0.985 . S
H1362 N1359 0.984 . S
H1363 N1359 0.985 . S
H1364 N1358 0.984 . S
H1365 N1358 0.984 . S
H1366 N1354 0.984 . S
H1367 N1354 0.985 . S
C1368 C1369 1.363 . S
C1368 C1374 1.379 . S
C1368 N1376 1.356 . S
C1369 C1368 1.363 . S
C1369 C1375 1.363 . S
C1370 C1371 1.363 . S
C1370 C1375 1.379 . S
C1370 N1377 1.356 . S
C1371 C1370 1.363 . S
C1371 C1374 1.363 . S
N1372 C1374 1.356 . S
N1372 H1384 0.984 . S
N1372 H1385 0.985 . S
N1373 C1375 1.356 . S
N1373 H1378 0.984 . S
N1373 H1379 0.985 . S
C1374 C1368 1.379 . S
C1374 C1371 1.363 . S
C1374 N1372 1.356 . S
C1375 C1369 1.363 . S
C1375 C1370 1.379 . S
C1375 N1373 1.356 . S
N1376 C1368 1.356 . S
N1376 H1382 0.984 . S
N1376 H1383 0.984 . S
N1377 C1370 1.356 . S
N1377 H1380 0.984 . S
N1377 H1381 0.985 . S
H1378 N1373 0.984 . S
H1379 N1373 0.985 . S
H1380 N1377 0.984 . S
H1381 N1377 0.985 . S
H1382 N1376 0.984 . S
H1383 N1376 0.984 . S
H1384 N1372 0.984 . S
H1385 N1372 0.985 . S
C1386 C1387 1.363 . S
C1386 C1392 1.379 . S
C1386 N1394 1.356 . S
C1387 C1386 1.363 . S
C1387 C1393 1.363 . S
C1388 C1389 1.363 . S
C1388 C1393 1.379 . S
C1388 N1395 1.356 . S
C1389 C1388 1.363 . S
C1389 C1392 1.363 . S
N1390 C1392 1.356 . S
N1390 H1402 0.984 . S
N1390 H1403 0.985 . S
N1391 C1393 1.356 . S
N1391 H1396 0.984 . S
N1391 H1397 0.985 . S
C1392 C1386 1.379 . S
C1392 C1389 1.363 . S
C1392 N1390 1.356 . S
C1393 C1387 1.363 . S
C1393 C1388 1.379 . S
C1393 N1391 1.356 . S
N1394 C1386 1.356 . S
N1394 H1400 0.984 . S
N1394 H1401 0.984 . S
N1395 C1388 1.356 . S
N1395 H1398 0.984 . S
N1395 H1399 0.985 . S
H1396 N1391 0.984 . S
H1397 N1391 0.985 . S
H1398 N1395 0.984 . S
H1399 N1395 0.985 . S
H1400 N1394 0.984 . S
H1401 N1394 0.984 . S
H1402 N1390 0.984 . S
H1403 N1390 0.985 . S
C1404 C1405 1.363 . S
C1404 C1410 1.379 . S
C1404 N1412 1.356 . S
C1405 C1404 1.363 . S
C1405 C1411 1.363 . S
C1406 C1407 1.363 . S
C1406 C1411 1.379 . S
C1406 N1413 1.356 . S
C1407 C1406 1.363 . S
C1407 C1410 1.363 . S
N1408 C1410 1.356 . S
N1408 H1420 0.984 . S
N1408 H1421 0.985 . S
N1409 C1411 1.356 . S
N1409 H1414 0.984 . S
N1409 H1415 0.985 . S
C1410 C1404 1.379 . S
C1410 C1407 1.363 . S
C1410 N1408 1.356 . S
C1411 C1405 1.363 . S
C1411 C1406 1.379 . S
C1411 N1409 1.356 . S
N1412 C1404 1.356 . S
N1412 H1418 0.984 . S
N1412 H1419 0.984 . S
N1413 C1406 1.356 . S
N1413 H1416 0.984 . S
N1413 H1417 0.985 . S
H1414 N1409 0.984 . S
H1415 N1409 0.985 . S
H1416 N1413 0.984 . S
H1417 N1413 0.985 . S
H1418 N1412 0.984 . S
H1419 N1412 0.984 . S
H1420 N1408 0.984 . S
H1421 N1408 0.985 . S
C1422 C1423 1.363 . S
C1422 C1428 1.379 . S
C1422 N1430 1.356 . S
C1423 C1422 1.363 . S
C1423 C1429 1.363 . S
C1424 C1425 1.363 . S
C1424 C1429 1.379 . S
C1424 N1431 1.356 . S
C1425 C1424 1.363 . S
C1425 C1428 1.363 . S
N1426 C1428 1.356 . S
N1426 H1438 0.984 . S
N1426 H1439 0.985 . S
N1427 C1429 1.356 . S
N1427 H1432 0.984 . S
N1427 H1433 0.985 . S
C1428 C1422 1.379 . S
C1428 C1425 1.363 . S
C1428 N1426 1.356 . S
C1429 C1423 1.363 . S
C1429 C1424 1.379 . S
C1429 N1427 1.356 . S
N1430 C1422 1.356 . S
N1430 H1436 0.984 . S
N1430 H1437 0.984 . S
N1431 C1424 1.356 . S
N1431 H1434 0.984 . S
N1431 H1435 0.985 . S
H1432 N1427 0.984 . S
H1433 N1427 0.985 . S
H1434 N1431 0.984 . S
H1435 N1431 0.985 . S
H1436 N1430 0.984 . S
H1437 N1430 0.984 . S
H1438 N1426 0.984 . S
H1439 N1426 0.985 . S
C1440 C1441 1.363 . S
C1440 C1446 1.379 1_655 S
C1440 N1448 1.356 . S
C1441 C1440 1.363 . S
C1441 C1447 1.363 . S
C1442 C1443 1.363 . S
C1442 C1447 1.379 1_455 S
C1442 N1449 1.356 . S
C1443 C1442 1.363 . S
C1443 C1446 1.363 . S
N1444 C1446 1.356 . S
N1444 H1456 0.984 . S
N1444 H1457 0.985 . S
N1445 C1447 1.356 . S
N1445 H1450 0.984 . S
N1445 H1451 0.985 . S
C1446 C1440 1.379 1_455 S
C1446 C1443 1.363 . S
C1446 N1444 1.356 . S
C1447 C1441 1.363 . S
C1447 C1442 1.379 1_655 S
C1447 N1445 1.356 . S
N1448 C1440 1.356 . S
N1448 H1454 0.984 . S
N1448 H1455 0.984 . S
N1449 C1442 1.356 . S
N1449 H1452 0.984 . S
N1449 H1453 0.985 . S
H1450 N1445 0.984 . S
H1451 N1445 0.985 . S
H1452 N1449 0.984 . S
H1453 N1449 0.985 . S
H1454 N1448 0.984 . S
H1455 N1448 0.984 . S
H1456 N1444 0.984 . S
H1457 N1444 0.985 . S
C1458 C1459 1.363 . S
C1458 C1464 1.379 . S
C1458 N1466 1.356 . S
C1459 C1458 1.363 . S
C1459 C1465 1.363 . S
C1460 C1461 1.363 . S
C1460 C1465 1.379 . S
C1460 N1467 1.356 . S
C1461 C1460 1.363 . S
C1461 C1464 1.363 . S
N1462 C1464 1.356 . S
N1462 H1474 0.984 . S
N1462 H1475 0.985 . S
N1463 C1465 1.356 . S
N1463 H1468 0.984 . S
N1463 H1469 0.985 . S
C1464 C1458 1.379 . S
C1464 C1461 1.363 . S
C1464 N1462 1.356 . S
C1465 C1459 1.363 . S
C1465 C1460 1.379 . S
C1465 N1463 1.356 . S
N1466 C1458 1.356 . S
N1466 H1472 0.984 . S
N1466 H1473 0.984 . S
N1467 C1460 1.356 . S
N1467 H1470 0.984 . S
N1467 H1471 0.985 . S
H1468 N1463 0.984 . S
H1469 N1463 0.985 . S
H1470 N1467 0.984 . S
H1471 N1467 0.985 . S
H1472 N1466 0.984 . S
H1473 N1466 0.984 . S
H1474 N1462 0.984 . S
H1475 N1462 0.985 . S
C1476 C1477 1.363 . S
C1476 C1482 1.379 . S
C1476 N1484 1.356 . S
C1477 C1476 1.363 . S
C1477 C1483 1.363 1_565 S
C1478 C1479 1.363 . S
C1478 C1483 1.379 . S
C1478 N1485 1.356 . S
C1479 C1478 1.363 . S
C1479 C1482 1.363 1_545 S
N1480 C1482 1.356 . S
N1480 H1492 0.984 . S
N1480 H1493 0.985 . S
N1481 C1483 1.356 . S
N1481 H1486 0.984 . S
N1481 H1487 0.985 . S
C1482 C1476 1.379 . S
C1482 C1479 1.363 1_565 S
C1482 N1480 1.356 . S
C1483 C1477 1.363 1_545 S
C1483 C1478 1.379 . S
C1483 N1481 1.356 . S
N1484 C1476 1.356 . S
N1484 H1490 0.984 . S
N1484 H1491 0.984 . S
N1485 C1478 1.356 . S
N1485 H1488 0.984 . S
N1485 H1489 0.985 . S
H1486 N1481 0.984 . S
H1487 N1481 0.985 . S
H1488 N1485 0.984 . S
H1489 N1485 0.985 . S
H1490 N1484 0.984 . S
H1491 N1484 0.984 . S
H1492 N1480 0.984 . S
H1493 N1480 0.985 . S
C1494 C1495 1.363 1_545 S
C1494 C1500 1.379 . S
C1494 N1502 1.365 . S
C1495 C1494 1.363 1_565 S
C1495 C1501 1.363 . S
C1496 C1497 1.363 1_565 S
C1496 C1501 1.379 . S
C1496 N1503 1.364 . S
C1497 C1496 1.363 1_545 S
C1497 C1500 1.363 . S
N1498 C1500 1.356 . S
N1498 H1510 0.984 . S
N1498 H1511 0.985 . S
N1499 C1501 1.356 . S
N1499 H1504 0.984 . S
N1499 H1505 0.985 . S
C1500 C1494 1.379 . S
C1500 C1497 1.363 . S
C1500 N1498 1.356 . S
C1501 C1495 1.363 . S
C1501 C1496 1.379 . S
C1501 N1499 1.356 . S
N1502 C1494 1.365 . S
N1502 H1508 0.983 . S
N1502 H1509 0.978 1_545 S
N1503 C1496 1.364 . S
N1503 H1506 0.978 1_565 S
N1503 H1507 0.983 . S
H1504 N1499 0.984 . S
H1505 N1499 0.985 . S
H1506 N1503 0.978 1_545 S
H1507 N1503 0.983 . S
H1508 N1502 0.983 . S
H1509 N1502 0.978 1_565 S
H1510 N1498 0.984 . S
H1511 N1498 0.985 . S
C1512 C1513 1.363 . S
C1512 C1518 1.379 . S
C1512 N1520 1.356 . S
C1513 C1512 1.363 . S
C1513 C1519 1.363 1_455 S
C1514 C1515 1.363 . S
C1514 C1519 1.379 . S
C1514 N1521 1.356 . S
C1515 C1514 1.363 . S
C1515 C1518 1.363 1_655 S
N1516 C1518 1.356 . S
N1516 H1528 0.984 . S
N1516 H1529 0.985 . S
N1517 C1519 1.356 . S
N1517 H1522 0.984 . S
N1517 H1523 0.985 . S
C1518 C1512 1.379 . S
C1518 C1515 1.363 1_455 S
C1518 N1516 1.356 . S
C1519 C1513 1.363 1_655 S
C1519 C1514 1.379 . S
C1519 N1517 1.356 . S
N1520 C1512 1.356 . S
N1520 H1526 0.984 . S
N1520 H1527 0.984 . S
N1521 C1514 1.356 . S
N1521 H1524 0.984 . S
N1521 H1525 0.985 . S
H1522 N1517 0.984 . S
H1523 N1517 0.985 . S
H1524 N1521 0.984 . S
H1525 N1521 0.985 . S
H1526 N1520 0.984 . S
H1527 N1520 0.984 . S
H1528 N1516 0.984 . S
H1529 N1516 0.985 . S
C1530 C1531 1.363 . S
C1530 C1536 1.379 . S
C1530 N1538 1.356 . S
C1531 C1530 1.363 . S
C1531 C1537 1.363 . S
C1532 C1533 1.363 . S
C1532 C1537 1.379 . S
C1532 N1539 1.356 . S
C1533 C1532 1.363 . S
C1533 C1536 1.363 . S
N1534 C1536 1.356 . S
N1534 H1546 0.984 . S
N1534 H1547 0.985 . S
N1535 C1537 1.356 . S
N1535 H1540 0.984 . S
N1535 H1541 0.985 . S
C1536 C1530 1.379 . S
C1536 C1533 1.363 . S
C1536 N1534 1.356 . S
C1537 C1531 1.363 . S
C1537 C1532 1.379 . S
C1537 N1535 1.356 . S
N1538 C1530 1.356 . S
N1538 H1544 0.984 . S
N1538 H1545 0.984 . S
N1539 C1532 1.356 . S
N1539 H1542 0.984 . S
N1539 H1543 0.985 . S
H1540 N1535 0.984 . S
H1541 N1535 0.985 . S
H1542 N1539 0.984 . S
H1543 N1539 0.985 . S
H1544 N1538 0.984 . S
H1545 N1538 0.984 . S
H1546 N1534 0.984 . S
H1547 N1534 0.985 . S
C1548 C1549 1.363 . S
C1548 C1554 1.379 . S
C1548 N1556 1.356 . S
C1549 C1548 1.363 . S
C1549 C1555 1.363 . S
C1550 C1551 1.363 . S
C1550 C1555 1.379 . S
C1550 N1557 1.356 . S
C1551 C1550 1.363 . S
C1551 C1554 1.363 . S
N1552 C1554 1.356 . S
N1552 H1564 0.984 . S
N1552 H1565 0.985 . S
N1553 C1555 1.356 . S
N1553 H1558 0.984 . S
N1553 H1559 0.985 . S
C1554 C1548 1.379 . S
C1554 C1551 1.363 . S
C1554 N1552 1.356 . S
C1555 C1549 1.363 . S
C1555 C1550 1.379 . S
C1555 N1553 1.356 . S
N1556 C1548 1.356 . S
N1556 H1562 0.984 . S
N1556 H1563 0.984 . S
N1557 C1550 1.356 . S
N1557 H1560 0.984 . S
N1557 H1561 0.985 . S
H1558 N1553 0.984 . S
H1559 N1553 0.985 . S
H1560 N1557 0.984 . S
H1561 N1557 0.985 . S
H1562 N1556 0.984 . S
H1563 N1556 0.984 . S
H1564 N1552 0.984 . S
H1565 N1552 0.985 . S
C1566 C1567 1.363 . S
C1566 C1572 1.379 . S
C1566 N1574 1.356 . S
C1567 C1566 1.363 . S
C1567 C1573 1.363 . S
C1568 C1569 1.363 . S
C1568 C1573 1.379 . S
C1568 N1575 1.356 . S
C1569 C1568 1.363 . S
C1569 C1572 1.363 . S
N1570 C1572 1.356 1_565 S
N1570 H1582 0.984 . S
N1570 H1583 0.985 . S
N1571 C1573 1.356 . S
N1571 H1576 0.984 . S
N1571 H1577 0.985 . S
C1572 C1566 1.379 . S
C1572 C1569 1.363 . S
C1572 N1570 1.356 1_545 S
C1573 C1567 1.363 . S
C1573 C1568 1.379 . S
C1573 N1571 1.356 . S
N1574 C1566 1.356 . S
N1574 H1580 1.009 . S
N1574 H1581 0.984 . S
N1575 C1568 1.356 . S
N1575 H1578 0.984 . S
N1575 H1579 0.985 . S
H1576 N1571 0.984 . S
H1577 N1571 0.985 . S
H1578 N1575 0.984 . S
H1579 N1575 0.985 . S
H1580 N1574 1.009 . S
H1581 N1574 0.984 . S
H1582 N1570 0.984 . S
H1583 N1570 0.985 . S
C1584 C1585 1.363 . S
C1584 C1590 1.379 . S
C1584 N1592 1.356 . S
C1585 C1584 1.363 . S
C1585 C1591 1.363 . S
C1586 C1587 1.363 . S
C1586 C1591 1.379 . S
C1586 N1593 1.356 1_655 S
C1587 C1586 1.363 . S
C1587 C1590 1.363 . S
N1588 C1590 1.356 . S
N1588 H1600 0.984 . S
N1588 H1601 0.985 . S
N1589 C1591 1.356 . S
N1589 H1594 0.984 . S
N1589 H1595 0.985 . S
C1590 C1584 1.379 . S
C1590 C1587 1.363 . S
C1590 N1588 1.356 . S
C1591 C1585 1.363 . S
C1591 C1586 1.379 . S
C1591 N1589 1.356 . S
N1592 C1584 1.356 . S
N1592 H1598 0.984 . S
N1592 H1599 0.984 . S
N1593 C1586 1.356 1_455 S
N1593 H1596 0.984 . S
N1593 H1597 0.985 . S
H1594 N1589 0.984 . S
H1595 N1589 0.985 . S
H1596 N1593 0.984 . S
H1597 N1593 0.985 . S
H1598 N1592 0.984 . S
H1599 N1592 0.984 . S
H1600 N1588 0.984 . S
H1601 N1588 0.985 . S
C1602 C1603 1.363 . S
C1602 C1608 1.379 . S
C1602 N1610 1.356 . S
C1603 C1602 1.363 . S
C1603 C1609 1.363 . S
C1604 C1605 1.363 . S
C1604 C1609 1.379 . S
C1604 N1611 1.356 . S
C1605 C1604 1.363 . S
C1605 C1608 1.363 . S
N1606 C1608 1.356 . S
N1606 H1618 0.984 . S
N1606 H1619 0.985 . S
N1607 C1609 1.356 . S
N1607 H1612 0.984 . S
N1607 H1613 0.985 . S
C1608 C1602 1.379 . S
C1608 C1605 1.363 . S
C1608 N1606 1.356 . S
C1609 C1603 1.363 . S
C1609 C1604 1.379 . S
C1609 N1607 1.356 . S
N1610 C1602 1.356 . S
N1610 H1616 0.984 . S
N1610 H1617 0.984 . S
N1611 C1604 1.356 . S
N1611 H1614 0.984 . S
N1611 H1615 0.985 . S
H1612 N1607 0.984 . S
H1613 N1607 0.985 . S
H1614 N1611 0.984 . S
H1615 N1611 0.985 . S
H1616 N1610 0.984 . S
H1617 N1610 0.984 . S
H1618 N1606 0.984 . S
H1619 N1606 0.985 . S
C1620 C1621 1.363 . S
C1620 C1626 1.379 . S
C1620 N1628 1.356 . S
C1621 C1620 1.363 . S
C1621 C1627 1.363 . S
C1622 C1623 1.363 . S
C1622 C1627 1.379 . S
C1622 N1629 1.356 . S
C1623 C1622 1.363 . S
C1623 C1626 1.363 . S
N1624 C1626 1.356 . S
N1624 H1636 0.984 . S
N1624 H1637 0.985 . S
N1625 C1627 1.356 . S
N1625 H1630 0.984 . S
N1625 H1631 0.985 . S
C1626 C1620 1.379 . S
C1626 C1623 1.363 . S
C1626 N1624 1.356 . S
C1627 C1621 1.363 . S
C1627 C1622 1.379 . S
C1627 N1625 1.356 . S
N1628 C1620 1.356 . S
N1628 H1634 0.984 . S
N1628 H1635 0.984 . S
N1629 C1622 1.356 . S
N1629 H1632 0.984 1_565 S
N1629 H1633 0.985 1_565 S
H1630 N1625 0.984 . S
H1631 N1625 0.985 . S
H1632 N1629 0.984 1_545 S
H1633 N1629 0.985 1_545 S
H1634 N1628 0.984 . S
H1635 N1628 0.984 . S
H1636 N1624 0.984 . S
H1637 N1624 0.985 . S
C1638 C1639 1.363 . S
C1638 C1644 1.379 . S
C1638 N1646 1.356 . S
C1639 C1638 1.363 . S
C1639 C1645 1.363 . S
C1640 C1641 1.363 . S
C1640 C1645 1.379 . S
C1640 N1647 1.356 . S
C1641 C1640 1.363 . S
C1641 C1644 1.363 . S
N1642 C1644 1.356 . S
N1642 H1654 0.984 . S
N1642 H1655 0.985 . S
N1643 C1645 1.356 . S
N1643 H1648 0.984 1_455 S
N1643 H1649 0.985 1_455 S
C1644 C1638 1.379 . S
C1644 C1641 1.363 . S
C1644 N1642 1.356 . S
C1645 C1639 1.363 . S
C1645 C1640 1.379 . S
C1645 N1643 1.356 . S
N1646 C1638 1.356 . S
N1646 H1652 0.984 . S
N1646 H1653 0.984 . S
N1647 C1640 1.356 . S
N1647 H1650 0.984 . S
N1647 H1651 0.985 . S
H1648 N1643 0.984 1_655 S
H1649 N1643 0.985 1_655 S
H1650 N1647 0.984 . S
H1651 N1647 0.985 . S
H1652 N1646 0.984 . S
H1653 N1646 0.984 . S
H1654 N1642 0.984 . S
H1655 N1642 0.985 . S
C1656 C1657 1.363 . S
C1656 C1662 1.379 . S
C1656 N1664 1.356 . S
C1657 C1656 1.363 . S
C1657 C1663 1.363 . S
C1658 C1659 1.363 . S
C1658 C1663 1.379 . S
C1658 N1665 1.356 . S
C1659 C1658 1.363 . S
C1659 C1662 1.363 . S
N1660 C1662 1.356 . S
N1660 H1672 0.984 . S
N1660 H1673 0.985 . S
N1661 C1663 1.356 . S
N1661 H1666 0.984 . S
N1661 H1667 0.985 . S
C1662 C1656 1.379 . S
C1662 C1659 1.363 . S
C1662 N1660 1.356 . S
C1663 C1657 1.363 . S
C1663 C1658 1.379 . S
C1663 N1661 1.356 . S
N1664 C1656 1.356 . S
N1664 H1670 0.984 . S
N1664 H1671 0.984 . S
N1665 C1658 1.356 . S
N1665 H1668 0.984 . S
N1665 H1669 0.985 . S
H1666 N1661 0.984 . S
H1667 N1661 0.985 . S
H1668 N1665 0.984 . S
H1669 N1665 0.985 . S
H1670 N1664 0.984 . S
H1671 N1664 0.984 . S
H1672 N1660 0.984 . S
H1673 N1660 0.985 . S
C1674 C1675 1.363 . S
C1674 C1680 1.379 . S
C1674 N1682 1.356 . S
C1675 C1674 1.363 . S
C1675 C1681 1.363 . S
C1676 C1677 1.363 . S
C1676 C1681 1.379 . S
C1676 N1683 1.356 . S
C1677 C1676 1.363 . S
C1677 C1680 1.363 . S
N1678 C1680 1.356 1_545 S
N1678 H1690 0.984 . S
N1678 H1691 0.985 . S
N1679 C1681 1.356 . S
N1679 H1684 0.984 . S
N1679 H1685 0.985 . S
C1680 C1674 1.379 . S
C1680 C1677 1.363 . S
C1680 N1678 1.356 1_565 S
C1681 C1675 1.363 . S
C1681 C1676 1.379 . S
C1681 N1679 1.356 . S
N1682 C1674 1.356 . S
N1682 H1688 0.984 1_565 S
N1682 H1689 0.984 . S
N1683 C1676 1.356 . S
N1683 H1686 0.984 . S
N1683 H1687 0.985 . S
H1684 N1679 0.984 . S
H1685 N1679 0.985 . S
H1686 N1683 0.984 . S
H1687 N1683 0.985 . S
H1688 N1682 0.984 1_545 S
H1689 N1682 0.984 . S
H1690 N1678 0.984 . S
H1691 N1678 0.985 . S
C1692 C1693 1.363 . S
C1692 C1698 1.379 . S
C1692 N1700 1.356 . S
C1693 C1692 1.363 . S
C1693 C1699 1.363 . S
C1694 C1695 1.363 . S
C1694 C1699 1.379 . S
C1694 N1701 1.356 . S
C1695 C1694 1.363 . S
C1695 C1698 1.363 . S
N1696 C1698 1.356 . S
N1696 H1708 0.984 . S
N1696 H1709 0.985 . S
N1697 C1699 1.356 . S
N1697 H1702 0.984 . S
N1697 H1703 0.985 . S
C1698 C1692 1.379 . S
C1698 C1695 1.363 . S
C1698 N1696 1.356 . S
C1699 C1693 1.363 . S
C1699 C1694 1.379 . S
C1699 N1697 1.356 . S
N1700 C1692 1.356 . S
N1700 H1706 0.984 . S
N1700 H1707 0.984 . S
N1701 C1694 1.356 . S
N1701 H1704 0.984 . S
N1701 H1705 0.985 . S
H1702 N1697 0.984 . S
H1703 N1697 0.985 . S
H1704 N1701 0.984 . S
H1705 N1701 0.985 . S
H1706 N1700 0.984 . S
H1707 N1700 0.984 . S
H1708 N1696 0.984 . S
H1709 N1696 0.985 . S
C1710 C1711 1.363 . S
C1710 C1716 1.379 . S
C1710 N1718 1.356 . S
C1711 C1710 1.363 . S
C1711 C1717 1.363 . S
C1712 C1713 1.363 . S
C1712 C1717 1.379 . S
C1712 N1719 1.356 . S
C1713 C1712 1.363 . S
C1713 C1716 1.363 . S
N1714 C1716 1.356 . S
N1714 H1726 0.984 . S
N1714 H1727 0.985 . S
N1715 C1717 1.356 . S
N1715 H1720 0.984 . S
N1715 H1721 0.985 . S
C1716 C1710 1.379 . S
C1716 C1713 1.363 . S
C1716 N1714 1.356 . S
C1717 C1711 1.363 . S
C1717 C1712 1.379 . S
C1717 N1715 1.356 . S
N1718 C1710 1.356 . S
N1718 H1724 0.984 . S
N1718 H1725 0.984 . S
N1719 C1712 1.356 . S
N1719 H1722 0.984 . S
N1719 H1723 0.985 . S
H1720 N1715 0.984 . S
H1721 N1715 0.985 . S
H1722 N1719 0.984 . S
H1723 N1719 0.985 . S
H1724 N1718 0.984 . S
H1725 N1718 0.984 . S
H1726 N1714 0.984 . S
H1727 N1714 0.985 . S
C1728 C1729 1.363 . S
C1728 C1734 1.379 . S
C1728 N1736 1.356 1_545 S
C1729 C1728 1.363 . S
C1729 C1735 1.363 . S
C1730 C1731 1.363 . S
C1730 C1735 1.379 . S
C1730 N1737 1.356 . S
C1731 C1730 1.363 . S
C1731 C1734 1.363 . S
N1732 C1734 1.356 . S
N1732 H1744 0.984 1_545 S
N1732 H1745 0.985 . S
N1733 C1735 1.356 . S
N1733 H1738 0.984 . S
N1733 H1739 0.985 . S
C1734 C1728 1.379 . S
C1734 C1731 1.363 . S
C1734 N1732 1.356 . S
C1735 C1729 1.363 . S
C1735 C1730 1.379 . S
C1735 N1733 1.356 . S
N1736 C1728 1.356 1_565 S
N1736 H1742 0.984 . S
N1736 H1743 0.984 . S
N1737 C1730 1.356 . S
N1737 H1740 0.984 . S
N1737 H1741 0.985 . S
H1738 N1733 0.984 . S
H1739 N1733 0.985 . S
H1740 N1737 0.984 . S
H1741 N1737 0.985 . S
H1742 N1736 0.984 . S
H1743 N1736 0.984 . S
H1744 N1732 0.984 1_565 S
H1745 N1732 0.985 . S
C1746 C1747 1.363 . S
C1746 C1752 1.379 . S
C1746 N1754 1.356 . S
C1747 C1746 1.363 . S
C1747 C1753 1.363 . S
C1748 C1749 1.363 . S
C1748 C1753 1.379 . S
C1748 N1755 1.356 . S
C1749 C1748 1.363 . S
C1749 C1752 1.363 . S
N1750 C1752 1.356 . S
N1750 H1762 0.984 . S
N1750 H1763 0.985 . S
N1751 C1753 1.356 . S
N1751 H1756 0.984 . S
N1751 H1757 0.985 . S
C1752 C1746 1.379 . S
C1752 C1749 1.363 . S
C1752 N1750 1.356 . S
C1753 C1747 1.363 . S
C1753 C1748 1.379 . S
C1753 N1751 1.356 . S
N1754 C1746 1.356 . S
N1754 H1760 1.007 . S
N1754 H1761 0.980 . S
N1755 C1748 1.356 . S
N1755 H1758 0.984 . S
N1755 H1759 0.985 . S
H1756 N1751 0.984 . S
H1757 N1751 0.985 . S
H1758 N1755 0.984 . S
H1759 N1755 0.985 . S
H1760 N1754 1.007 . S
H1761 N1754 0.980 . S
H1762 N1750 0.984 . S
H1763 N1750 0.985 . S
C1764 C1765 1.363 . S
C1764 C1770 1.379 1_655 S
C1764 N1772 1.356 . S
C1765 C1764 1.363 . S
C1765 C1771 1.363 . S
C1766 C1767 1.363 . S
C1766 C1771 1.379 1_455 S
C1766 N1773 1.356 . S
C1767 C1766 1.363 . S
C1767 C1770 1.363 . S
N1768 C1770 1.356 . S
N1768 H1780 0.984 . S
N1768 H1781 0.985 . S
N1769 C1771 1.356 . S
N1769 H1774 0.984 . S
N1769 H1775 0.985 . S
C1770 C1764 1.379 1_455 S
C1770 C1767 1.363 . S
C1770 N1768 1.356 . S
C1771 C1765 1.363 . S
C1771 C1766 1.379 1_655 S
C1771 N1769 1.356 . S
N1772 C1764 1.356 . S
N1772 H1778 0.984 . S
N1772 H1779 0.984 . S
N1773 C1766 1.356 . S
N1773 H1776 0.984 . S
N1773 H1777 0.985 . S
H1774 N1769 0.984 . S
H1775 N1769 0.985 . S
H1776 N1773 0.984 . S
H1777 N1773 0.985 . S
H1778 N1772 0.984 . S
H1779 N1772 0.984 . S
H1780 N1768 0.984 . S
H1781 N1768 0.985 . S
C1782 C1783 1.363 . S
C1782 C1788 1.379 . S
C1782 N1790 1.356 . S
C1783 C1782 1.363 . S
C1783 C1789 1.363 . S
C1784 C1785 1.363 . S
C1784 C1789 1.379 . S
C1784 N1791 1.356 . S
C1785 C1784 1.363 . S
C1785 C1788 1.363 . S
N1786 C1788 1.356 . S
N1786 H1798 0.984 . S
N1786 H1799 0.985 . S
N1787 C1789 1.356 . S
N1787 H1792 0.984 . S
N1787 H1793 0.985 . S
C1788 C1782 1.379 . S
C1788 C1785 1.363 . S
C1788 N1786 1.356 . S
C1789 C1783 1.363 . S
C1789 C1784 1.379 . S
C1789 N1787 1.356 . S
N1790 C1782 1.356 . S
N1790 H1796 0.984 . S
N1790 H1797 0.984 . S
N1791 C1784 1.356 . S
N1791 H1794 0.984 . S
N1791 H1795 0.985 . S
H1792 N1787 0.984 . S
H1793 N1787 0.985 . S
H1794 N1791 0.984 . S
H1795 N1791 0.985 . S
H1796 N1790 0.984 . S
H1797 N1790 0.984 . S
H1798 N1786 0.984 . S
H1799 N1786 0.985 . S
C1800 C1801 1.363 . S
C1800 C1806 1.379 1_545 S
C1800 N1808 1.356 . S
C1801 C1800 1.363 . S
C1801 C1807 1.363 . S
C1802 C1803 1.363 . S
C1802 C1807 1.379 1_565 S
C1802 N1809 1.356 . S
C1803 C1802 1.363 . S
C1803 C1806 1.363 . S
N1804 C1806 1.356 . S
N1804 H1816 0.984 . S
N1804 H1817 0.985 . S
N1805 C1807 1.356 . S
N1805 H1810 0.984 . S
N1805 H1811 0.985 . S
C1806 C1800 1.379 1_565 S
C1806 C1803 1.363 . S
C1806 N1804 1.356 . S
C1807 C1801 1.363 . S
C1807 C1802 1.379 1_545 S
C1807 N1805 1.356 . S
N1808 C1800 1.356 . S
N1808 H1814 0.984 . S
N1808 H1815 0.984 . S
N1809 C1802 1.356 . S
N1809 H1812 0.984 . S
N1809 H1813 0.985 . S
H1810 N1805 0.984 . S
H1811 N1805 0.985 . S
H1812 N1809 0.984 . S
H1813 N1809 0.985 . S
H1814 N1808 0.984 . S
H1815 N1808 0.984 . S
H1816 N1804 0.984 . S
H1817 N1804 0.985 . S
C1818 C1819 1.363 . S
C1818 C1824 1.379 1_545 S
C1818 N1826 1.356 . S
C1819 C1818 1.363 . S
C1819 C1825 1.363 . S
C1820 C1821 1.363 . S
C1820 C1825 1.379 1_565 S
C1820 N1827 1.356 . S
C1821 C1820 1.363 . S
C1821 C1824 1.363 . S
N1822 C1824 1.356 . S
N1822 H1834 0.984 . S
N1822 H1835 0.985 . S
N1823 C1825 1.356 . S
N1823 H1828 0.984 . S
N1823 H1829 0.985 . S
C1824 C1818 1.379 1_565 S
C1824 C1821 1.363 . S
C1824 N1822 1.356 . S
C1825 C1819 1.363 . S
C1825 C1820 1.379 1_545 S
C1825 N1823 1.356 . S
N1826 C1818 1.356 . S
N1826 H1832 0.984 . S
N1826 H1833 0.984 . S
N1827 C1820 1.356 . S
N1827 H1830 0.984 . S
N1827 H1831 0.985 . S
H1828 N1823 0.984 . S
H1829 N1823 0.985 . S
H1830 N1827 0.984 . S
H1831 N1827 0.985 . S
H1832 N1826 0.984 . S
H1833 N1826 0.984 . S
H1834 N1822 0.984 . S
H1835 N1822 0.985 . S
C1836 C1837 1.363 . S
C1836 C1842 1.379 1_455 S
C1836 N1844 1.356 . S
C1837 C1836 1.363 . S
C1837 C1843 1.363 . S
C1838 C1839 1.363 . S
C1838 C1843 1.379 1_655 S
C1838 N1845 1.356 . S
C1839 C1838 1.363 . S
C1839 C1842 1.363 . S
N1840 C1842 1.356 . S
N1840 H1852 0.984 . S
N1840 H1853 0.985 . S
N1841 C1843 1.356 . S
N1841 H1846 0.984 . S
N1841 H1847 0.985 . S
C1842 C1836 1.379 1_655 S
C1842 C1839 1.363 . S
C1842 N1840 1.356 . S
C1843 C1837 1.363 . S
C1843 C1838 1.379 1_455 S
C1843 N1841 1.356 . S
N1844 C1836 1.356 . S
N1844 H1850 0.984 1_455 S
N1844 H1851 0.984 . S
N1845 C1838 1.356 . S
N1845 H1848 0.984 . S
N1845 H1849 0.985 1_655 S
H1846 N1841 0.984 . S
H1847 N1841 0.985 . S
H1848 N1845 0.984 . S
H1849 N1845 0.985 1_455 S
H1850 N1844 0.984 1_655 S
H1851 N1844 0.984 . S
H1852 N1840 0.984 . S
H1853 N1840 0.985 . S
C1854 C1855 1.363 . S
C1854 C1860 1.379 . S
C1854 N1862 1.356 . S
C1855 C1854 1.363 . S
C1855 C1861 1.363 . S
C1856 C1857 1.363 . S
C1856 C1861 1.379 . S
C1856 N1863 1.356 . S
C1857 C1856 1.363 . S
C1857 C1860 1.363 . S
N1858 C1860 1.356 . S
N1858 H1870 0.984 . S
N1858 H1871 0.985 . S
N1859 C1861 1.356 . S
N1859 H1864 0.984 . S
N1859 H1865 0.985 . S
C1860 C1854 1.379 . S
C1860 C1857 1.363 . S
C1860 N1858 1.356 . S
C1861 C1855 1.363 . S
C1861 C1856 1.379 . S
C1861 N1859 1.356 . S
N1862 C1854 1.356 . S
N1862 H1868 0.984 . S
N1862 H1869 0.984 . S
N1863 C1856 1.356 . S
N1863 H1866 0.984 . S
N1863 H1867 0.985 . S
H1864 N1859 0.984 . S
H1865 N1859 0.985 . S
H1866 N1863 0.984 . S
H1867 N1863 0.985 . S
H1868 N1862 0.984 . S
H1869 N1862 0.984 . S
H1870 N1858 0.984 . S
H1871 N1858 0.985 . S
C1872 C1873 1.363 . S
C1872 C1878 1.379 . S
C1872 N1880 1.356 . S
C1873 C1872 1.363 . S
C1873 C1879 1.363 . S
C1874 C1875 1.363 . S
C1874 C1879 1.379 . S
C1874 N1881 1.356 . S
C1875 C1874 1.363 . S
C1875 C1878 1.363 . S
N1876 C1878 1.356 . S
N1876 H1888 0.984 . S
N1876 H1889 0.985 . S
N1877 C1879 1.356 . S
N1877 H1882 0.984 . S
N1877 H1883 0.985 . S
C1878 C1872 1.379 . S
C1878 C1875 1.363 . S
C1878 N1876 1.356 . S
C1879 C1873 1.363 . S
C1879 C1874 1.379 . S
C1879 N1877 1.356 . S
N1880 C1872 1.356 . S
N1880 H1886 0.984 . S
N1880 H1887 0.984 . S
N1881 C1874 1.356 . S
N1881 H1884 0.984 . S
N1881 H1885 0.985 . S
H1882 N1877 0.984 . S
H1883 N1877 0.985 . S
H1884 N1881 0.984 . S
H1885 N1881 0.985 . S
H1886 N1880 0.984 . S
H1887 N1880 0.984 . S
H1888 N1876 0.984 . S
H1889 N1876 0.985 . S
C1890 C1891 1.363 . S
C1890 C1896 1.379 . S
C1890 N1898 1.356 . S
C1891 C1890 1.363 . S
C1891 C1897 1.363 . S
C1892 C1893 1.363 . S
C1892 C1897 1.379 . S
C1892 N1899 1.356 . S
C1893 C1892 1.363 . S
C1893 C1896 1.363 . S
N1894 C1896 1.356 . S
N1894 H1906 0.984 . S
N1894 H1907 0.985 . S
N1895 C1897 1.356 . S
N1895 H1900 0.984 . S
N1895 H1901 0.985 . S
C1896 C1890 1.379 . S
C1896 C1893 1.363 . S
C1896 N1894 1.356 . S
C1897 C1891 1.363 . S
C1897 C1892 1.379 . S
C1897 N1895 1.356 . S
N1898 C1890 1.356 . S
N1898 H1904 0.984 . S
N1898 H1905 0.984 . S
N1899 C1892 1.356 . S
N1899 H1902 0.984 . S
N1899 H1903 0.985 . S
H1900 N1895 0.984 . S
H1901 N1895 0.985 . S
H1902 N1899 0.984 . S
H1903 N1899 0.985 . S
H1904 N1898 0.984 . S
H1905 N1898 0.984 . S
H1906 N1894 0.984 . S
H1907 N1894 0.985 . S
C1908 C1909 1.363 . S
C1908 C1914 1.379 . S
C1908 N1916 1.356 . S
C1909 C1908 1.363 . S
C1909 C1915 1.363 . S
C1910 C1911 1.363 . S
C1910 C1915 1.379 . S
C1910 N1917 1.356 . S
C1911 C1910 1.363 . S
C1911 C1914 1.363 . S
N1912 C1914 1.356 . S
N1912 H1924 0.984 . S
N1912 H1925 0.985 . S
N1913 C1915 1.356 . S
N1913 H1918 0.984 . S
N1913 H1919 0.985 . S
C1914 C1908 1.379 . S
C1914 C1911 1.363 . S
C1914 N1912 1.356 . S
C1915 C1909 1.363 . S
C1915 C1910 1.379 . S
C1915 N1913 1.356 . S
N1916 C1908 1.356 . S
N1916 H1922 0.984 . S
N1916 H1923 0.984 . S
N1917 C1910 1.356 . S
N1917 H1920 0.984 . S
N1917 H1921 0.985 . S
H1918 N1913 0.984 . S
H1919 N1913 0.985 . S
H1920 N1917 0.984 . S
H1921 N1917 0.985 . S
H1922 N1916 0.984 . S
H1923 N1916 0.984 . S
H1924 N1912 0.984 . S
H1925 N1912 0.985 . S
C1926 C1927 1.363 . S
C1926 C1932 1.379 . S
C1926 N1934 1.356 . S
C1927 C1926 1.363 . S
C1927 C1933 1.363 . S
C1928 C1929 1.363 . S
C1928 C1933 1.379 . S
C1928 N1935 1.356 . S
C1929 C1928 1.363 . S
C1929 C1932 1.363 . S
N1930 C1932 1.356 . S
N1930 H1942 0.984 . S
N1930 H1943 0.985 . S
N1931 C1933 1.356 . S
N1931 H1936 0.984 . S
N1931 H1937 0.985 . S
C1932 C1926 1.379 . S
C1932 C1929 1.363 . S
C1932 N1930 1.356 . S
C1933 C1927 1.363 . S
C1933 C1928 1.379 . S
C1933 N1931 1.356 . S
N1934 C1926 1.356 . S
N1934 H1940 0.984 . S
N1934 H1941 0.984 . S
N1935 C1928 1.356 . S
N1935 H1938 0.984 . S
N1935 H1939 0.985 . S
H1936 N1931 0.984 . S
H1937 N1931 0.985 . S
H1938 N1935 0.984 . S
H1939 N1935 0.985 . S
H1940 N1934 0.984 . S
H1941 N1934 0.984 . S
H1942 N1930 0.984 . S
H1943 N1930 0.985 . S
C1944 C1945 1.363 . S
C1944 C1950 1.379 . S
C1944 N1952 1.356 . S
C1945 C1944 1.363 . S
C1945 C1951 1.363 . S
C1946 C1947 1.363 . S
C1946 C1951 1.379 . S
C1946 N1953 1.356 . S
C1947 C1946 1.363 . S
C1947 C1950 1.363 . S
N1948 C1950 1.356 . S
N1948 H1960 0.984 . S
N1948 H1961 0.985 . S
N1949 C1951 1.356 . S
N1949 H1954 0.984 . S
N1949 H1955 0.985 . S
C1950 C1944 1.379 . S
C1950 C1947 1.363 . S
C1950 N1948 1.356 . S
C1951 C1945 1.363 . S
C1951 C1946 1.379 . S
C1951 N1949 1.356 . S
N1952 C1944 1.356 . S
N1952 H1958 0.984 . S
N1952 H1959 0.984 . S
N1953 C1946 1.356 . S
N1953 H1956 0.984 . S
N1953 H1957 0.985 . S
H1954 N1949 0.984 . S
H1955 N1949 0.985 . S
H1956 N1953 0.984 . S
H1957 N1953 0.985 . S
H1958 N1952 0.984 . S
H1959 N1952 0.984 . S
H1960 N1948 0.984 . S
H1961 N1948 0.985 . S
C1962 C1963 1.363 . S
C1962 C1968 1.379 . S
C1962 N1970 1.356 . S
C1963 C1962 1.363 . S
C1963 C1969 1.363 . S
C1964 C1965 1.363 . S
C1964 C1969 1.379 . S
C1964 N1971 1.356 . S
C1965 C1964 1.363 . S
C1965 C1968 1.363 . S
N1966 C1968 1.356 . S
N1966 H1978 0.984 . S
N1966 H1979 0.985 . S
N1967 C1969 1.356 . S
N1967 H1972 0.984 . S
N1967 H1973 0.985 . S
C1968 C1962 1.379 . S
C1968 C1965 1.363 . S
C1968 N1966 1.356 . S
C1969 C1963 1.363 . S
C1969 C1964 1.379 . S
C1969 N1967 1.356 . S
N1970 C1962 1.356 . S
N1970 H1976 0.984 . S
N1970 H1977 0.984 . S
N1971 C1964 1.356 . S
N1971 H1974 0.984 . S
N1971 H1975 0.985 . S
H1972 N1967 0.984 . S
H1973 N1967 0.985 . S
H1974 N1971 0.984 . S
H1975 N1971 0.985 . S
H1976 N1970 0.984 . S
H1977 N1970 0.984 . S
H1978 N1966 0.984 . S
H1979 N1966 0.985 . S
C1980 C1981 1.363 . S
C1980 C1986 1.379 . S
C1980 N1988 1.356 . S
C1981 C1980 1.363 . S
C1981 C1987 1.363 . S
C1982 C1983 1.363 . S
C1982 C1987 1.379 . S
C1982 N1989 1.356 . S
C1983 C1982 1.363 . S
C1983 C1986 1.363 . S
N1984 C1986 1.356 . S
N1984 H1996 0.984 . S
N1984 H1997 0.985 . S
N1985 C1987 1.356 . S
N1985 H1990 0.984 . S
N1985 H1991 0.985 . S
C1986 C1980 1.379 . S
C1986 C1983 1.363 . S
C1986 N1984 1.356 . S
C1987 C1981 1.363 . S
C1987 C1982 1.379 . S
C1987 N1985 1.356 . S
N1988 C1980 1.356 . S
N1988 H1994 0.984 . S
N1988 H1995 0.984 . S
N1989 C1982 1.356 . S
N1989 H1992 0.984 . S
N1989 H1993 0.985 . S
H1990 N1985 0.984 . S
H1991 N1985 0.985 . S
H1992 N1989 0.984 . S
H1993 N1989 0.985 . S
H1994 N1988 0.984 . S
H1995 N1988 0.984 . S
H1996 N1984 0.984 . S
H1997 N1984 0.985 . S
C1998 C1999 1.363 . S
C1998 C2004 1.379 . S
C1998 N2006 1.356 . S
C1999 C1998 1.363 . S
C1999 C2005 1.363 . S
C2000 C2001 1.363 . S
C2000 C2005 1.379 . S
C2000 N2007 1.356 . S
C2001 C2000 1.363 . S
C2001 C2004 1.363 . S
N2002 C2004 1.356 . S
N2002 H2014 0.984 . S
N2002 H2015 0.985 . S
N2003 C2005 1.356 . S
N2003 H2008 0.984 . S
N2003 H2009 0.985 . S
C2004 C1998 1.379 . S
C2004 C2001 1.363 . S
C2004 N2002 1.356 . S
C2005 C1999 1.363 . S
C2005 C2000 1.379 . S
C2005 N2003 1.356 . S
N2006 C1998 1.356 . S
N2006 H2012 0.984 . S
N2006 H2013 0.984 . S
N2007 C2000 1.356 . S
N2007 H2010 0.984 . S
N2007 H2011 0.985 . S
H2008 N2003 0.984 . S
H2009 N2003 0.985 . S
H2010 N2007 0.984 . S
H2011 N2007 0.985 . S
H2012 N2006 0.984 . S
H2013 N2006 0.984 . S
H2014 N2002 0.984 . S
H2015 N2002 0.985 . S
C2016 C2017 1.363 . S
C2016 C2022 1.379 . S
C2016 N2024 1.356 . S
C2017 C2016 1.363 . S
C2017 C2023 1.363 . S
C2018 C2019 1.363 . S
C2018 C2023 1.379 . S
C2018 N2025 1.356 . S
C2019 C2018 1.363 . S
C2019 C2022 1.363 . S
N2020 C2022 1.356 . S
N2020 H2032 0.984 . S
N2020 H2033 0.985 . S
N2021 C2023 1.356 . S
N2021 H2026 0.984 . S
N2021 H2027 0.985 . S
C2022 C2016 1.379 . S
C2022 C2019 1.363 . S
C2022 N2020 1.356 . S
C2023 C2017 1.363 . S
C2023 C2018 1.379 . S
C2023 N2021 1.356 . S
N2024 C2016 1.356 . S
N2024 H2030 0.984 . S
N2024 H2031 0.984 . S
N2025 C2018 1.356 . S
N2025 H2028 0.984 . S
N2025 H2029 0.985 . S
H2026 N2021 0.984 . S
H2027 N2021 0.985 . S
H2028 N2025 0.984 . S
H2029 N2025 0.985 . S
H2030 N2024 0.984 . S
H2031 N2024 0.984 . S
H2032 N2020 0.984 . S
H2033 N2020 0.985 . S
C2034 C2035 1.363 . S
C2034 C2040 1.379 . S
C2034 N2042 1.356 . S
C2035 C2034 1.363 . S
C2035 C2041 1.363 . S
C2036 C2037 1.363 . S
C2036 C2041 1.379 . S
C2036 N2043 1.356 . S
C2037 C2036 1.363 . S
C2037 C2040 1.363 . S
N2038 C2040 1.356 . S
N2038 H2050 0.984 . S
N2038 H2051 0.985 . S
N2039 C2041 1.356 . S
N2039 H2044 0.984 . S
N2039 H2045 0.985 . S
C2040 C2034 1.379 . S
C2040 C2037 1.363 . S
C2040 N2038 1.356 . S
C2041 C2035 1.363 . S
C2041 C2036 1.379 . S
C2041 N2039 1.356 . S
N2042 C2034 1.356 . S
N2042 H2048 0.984 . S
N2042 H2049 0.984 . S
N2043 C2036 1.356 . S
N2043 H2046 0.984 . S
N2043 H2047 0.985 . S
H2044 N2039 0.984 . S
H2045 N2039 0.985 . S
H2046 N2043 0.984 . S
H2047 N2043 0.985 . S
H2048 N2042 0.984 . S
H2049 N2042 0.984 . S
H2050 N2038 0.984 . S
H2051 N2038 0.985 . S
C2052 C2053 1.363 . S
C2052 C2058 1.379 . S
C2052 N2060 1.356 . S
C2053 C2052 1.363 . S
C2053 C2059 1.363 . S
C2054 C2055 1.363 . S
C2054 C2059 1.379 . S
C2054 N2061 1.356 . S
C2055 C2054 1.363 . S
C2055 C2058 1.363 . S
N2056 C2058 1.356 . S
N2056 H2068 0.984 . S
N2056 H2069 0.985 . S
N2057 C2059 1.356 . S
N2057 H2062 0.984 . S
N2057 H2063 0.985 . S
C2058 C2052 1.379 . S
C2058 C2055 1.363 . S
C2058 N2056 1.356 . S
C2059 C2053 1.363 . S
C2059 C2054 1.379 . S
C2059 N2057 1.356 . S
N2060 C2052 1.356 . S
N2060 H2066 0.984 . S
N2060 H2067 0.984 . S
N2061 C2054 1.356 . S
N2061 H2064 0.984 . S
N2061 H2065 0.985 . S
H2062 N2057 0.984 . S
H2063 N2057 0.985 . S
H2064 N2061 0.984 . S
H2065 N2061 0.985 . S
H2066 N2060 0.984 . S
H2067 N2060 0.984 . S
H2068 N2056 0.984 . S
H2069 N2056 0.985 . S
C2070 C2071 1.363 . S
C2070 C2076 1.379 . S
C2070 N2078 1.356 . S
C2071 C2070 1.363 . S
C2071 C2077 1.363 . S
C2072 C2073 1.363 . S
C2072 C2077 1.379 . S
C2072 N2079 1.356 . S
C2073 C2072 1.363 . S
C2073 C2076 1.363 . S
N2074 C2076 1.356 . S
N2074 H2086 0.984 . S
N2074 H2087 0.985 . S
N2075 C2077 1.356 . S
N2075 H2080 0.984 . S
N2075 H2081 0.985 . S
C2076 C2070 1.379 . S
C2076 C2073 1.363 . S
C2076 N2074 1.356 . S
C2077 C2071 1.363 . S
C2077 C2072 1.379 . S
C2077 N2075 1.356 . S
N2078 C2070 1.356 . S
N2078 H2084 0.984 . S
N2078 H2085 0.984 . S
N2079 C2072 1.356 . S
N2079 H2082 0.984 . S
N2079 H2083 0.985 . S
H2080 N2075 0.984 . S
H2081 N2075 0.985 . S
H2082 N2079 0.984 . S
H2083 N2079 0.985 . S
H2084 N2078 0.984 . S
H2085 N2078 0.984 . S
H2086 N2074 0.984 . S
H2087 N2074 0.985 . S
C2088 C2089 1.363 . S
C2088 C2094 1.379 1_455 S
C2088 N2096 1.356 . S
C2089 C2088 1.363 . S
C2089 C2095 1.363 . S
C2090 C2091 1.363 . S
C2090 C2095 1.379 1_655 S
C2090 N2097 1.356 . S
C2091 C2090 1.363 . S
C2091 C2094 1.363 . S
N2092 C2094 1.356 . S
N2092 H2104 0.984 . S
N2092 H2105 0.985 . S
N2093 C2095 1.356 . S
N2093 H2098 0.984 . S
N2093 H2099 0.985 . S
C2094 C2088 1.379 1_655 S
C2094 C2091 1.363 . S
C2094 N2092 1.356 . S
C2095 C2089 1.363 . S
C2095 C2090 1.379 1_455 S
C2095 N2093 1.356 . S
N2096 C2088 1.356 . S
N2096 H2102 0.984 . S
N2096 H2103 0.984 . S
N2097 C2090 1.356 . S
N2097 H2100 0.984 . S
N2097 H2101 0.985 . S
H2098 N2093 0.984 . S
H2099 N2093 0.985 . S
H2100 N2097 0.984 . S
H2101 N2097 0.985 . S
H2102 N2096 0.984 . S
H2103 N2096 0.984 . S
H2104 N2092 0.984 . S
H2105 N2092 0.985 . S
C2106 C2107 1.363 . S
C2106 C2112 1.379 . S
C2106 N2114 1.356 . S
C2107 C2106 1.363 . S
C2107 C2113 1.363 . S
C2108 C2109 1.363 . S
C2108 C2113 1.379 . S
C2108 N2115 1.356 . S
C2109 C2108 1.363 . S
C2109 C2112 1.363 . S
N2110 C2112 1.356 . S
N2110 H2122 0.984 . S
N2110 H2123 0.985 . S
N2111 C2113 1.356 . S
N2111 H2116 0.984 . S
N2111 H2117 0.985 . S
C2112 C2106 1.379 . S
C2112 C2109 1.363 . S
C2112 N2110 1.356 . S
C2113 C2107 1.363 . S
C2113 C2108 1.379 . S
C2113 N2111 1.356 . S
N2114 C2106 1.356 . S
N2114 H2120 0.984 . S
N2114 H2121 0.984 . S
N2115 C2108 1.356 . S
N2115 H2118 0.984 . S
N2115 H2119 0.985 . S
H2116 N2111 0.984 . S
H2117 N2111 0.985 . S
H2118 N2115 0.984 . S
H2119 N2115 0.985 . S
H2120 N2114 0.984 . S
H2121 N2114 0.984 . S
H2122 N2110 0.984 . S
H2123 N2110 0.985 . S
C2124 C2125 1.363 1_565 S
C2124 C2130 1.379 . S
C2124 N2132 1.356 . S
C2125 C2124 1.363 1_545 S
C2125 C2131 1.363 . S
C2126 C2127 1.363 1_545 S
C2126 C2131 1.379 . S
C2126 N2133 1.356 . S
C2127 C2126 1.363 1_565 S
C2127 C2130 1.363 . S
N2128 C2130 1.356 . S
N2128 H2140 0.984 . S
N2128 H2141 0.985 . S
N2129 C2131 1.356 . S
N2129 H2134 0.984 . S
N2129 H2135 0.985 . S
C2130 C2124 1.379 . S
C2130 C2127 1.363 . S
C2130 N2128 1.356 . S
C2131 C2125 1.363 . S
C2131 C2126 1.379 . S
C2131 N2129 1.356 . S
N2132 C2124 1.356 . S
N2132 H2138 0.984 . S
N2132 H2139 0.984 1_565 S
N2133 C2126 1.356 . S
N2133 H2136 0.984 1_545 S
N2133 H2137 0.985 . S
H2134 N2129 0.984 . S
H2135 N2129 0.985 . S
H2136 N2133 0.984 1_565 S
H2137 N2133 0.985 . S
H2138 N2132 0.984 . S
H2139 N2132 0.984 1_545 S
H2140 N2128 0.984 . S
H2141 N2128 0.985 . S
C2142 C2143 1.363 1_545 S
C2142 C2148 1.379 . S
C2142 N2150 1.356 . S
C2143 C2142 1.363 1_565 S
C2143 C2149 1.363 1_554 S
C2144 C2145 1.363 1_565 S
C2144 C2149 1.379 . S
C2144 N2151 1.356 . S
C2145 C2144 1.363 1_545 S
C2145 C2148 1.363 1_556 S
N2146 C2148 1.356 1_556 S
N2146 H2158 0.985 1_556 S
N2146 H2159 0.984 . S
N2147 C2149 1.356 1_554 S
N2147 H2152 0.984 . S
N2147 H2153 0.985 1_554 S
C2148 C2142 1.379 . S
C2148 C2145 1.363 1_554 S
C2148 N2146 1.356 1_554 S
C2149 C2143 1.363 1_556 S
C2149 C2144 1.379 . S
C2149 N2147 1.356 1_556 S
N2150 C2142 1.356 . S
N2150 H2156 0.984 . S
N2150 H2157 0.984 1_545 S
N2151 C2144 1.356 . S
N2151 H2154 0.984 1_565 S
N2151 H2155 0.985 . S
H2152 N2147 0.984 . S
H2153 N2147 0.985 1_556 S
H2154 N2151 0.984 1_545 S
H2155 N2151 0.985 . S
H2156 N2150 0.984 . S
H2157 N2150 0.984 1_565 S
H2158 N2146 0.985 1_554 S
H2159 N2146 0.984 . S
C2160 C2161 1.363 1_554 S
C2160 C2166 1.379 . S
C2160 N2168 1.356 . S
C2161 C2160 1.363 1_556 S
C2161 C2167 1.363 1_655 S
C2162 C2163 1.363 1_556 S
C2162 C2167 1.379 . S
C2162 N2169 1.356 . S
C2163 C2162 1.363 1_554 S
C2163 C2166 1.363 1_455 S
N2164 C2166 1.356 . S
N2164 H2176 0.984 . S
N2164 H2177 0.985 1_655 S
N2165 C2167 1.356 . S
N2165 H2170 0.984 1_455 S
N2165 H2171 0.985 . S
C2166 C2160 1.379 . S
C2166 C2163 1.363 1_655 S
C2166 N2164 1.356 . S
C2167 C2161 1.363 1_455 S
C2167 C2162 1.379 . S
C2167 N2165 1.356 . S
N2168 C2160 1.356 . S
N2168 H2174 0.984 . S
N2168 H2175 0.984 1_554 S
N2169 C2162 1.356 . S
N2169 H2172 0.984 1_556 S
N2169 H2173 0.985 . S
H2170 N2165 0.984 1_655 S
H2171 N2165 0.985 . S
H2172 N2169 0.984 1_554 S
H2173 N2169 0.985 . S
H2174 N2168 0.984 . S
H2175 N2168 0.984 1_556 S
H2176 N2164 0.984 . S
H2177 N2164 0.985 1_455 S
C2178 C2179 1.351 1_556 S
C2178 C2184 1.390 . S
C2178 N2186 1.353 1_556 S
C2179 C2178 1.351 1_554 S
C2179 C2185 1.363 . S
C2180 C2181 1.351 1_554 S
C2180 C2185 1.390 . S
C2180 N2187 1.353 1_554 S
C2181 C2180 1.351 1_556 S
C2181 C2184 1.363 . S
N2182 C2184 1.356 . S
N2182 H2194 0.984 . S
N2182 H2195 0.985 . S
N2183 C2185 1.356 . S
N2183 H2188 0.984 . S
N2183 H2189 0.985 . S
C2184 C2178 1.390 . S
C2184 C2181 1.363 . S
C2184 N2182 1.356 . S
C2185 C2179 1.363 . S
C2185 C2180 1.390 . S
C2185 N2183 1.356 . S
N2186 C2178 1.353 1_554 S
N2186 H2192 0.984 1_554 S
N2186 H2193 0.984 . S
N2187 C2180 1.353 1_556 S
N2187 H2190 0.984 . S
N2187 H2191 0.985 1_556 S
H2188 N2183 0.984 . S
H2189 N2183 0.985 . S
H2190 N2187 0.984 . S
H2191 N2187 0.985 1_554 S
H2192 N2186 0.984 1_556 S
H2193 N2186 0.984 . S
H2194 N2182 0.984 . S
H2195 N2182 0.985 . S
C2196 C2197 1.363 . S
C2196 C2202 1.379 1_545 S
C2196 N2204 1.356 . S
C2197 C2196 1.363 . S
C2197 C2203 1.363 1_554 S
C2198 C2199 1.363 1_545 S
C2198 C2203 1.379 . S
C2198 N2205 1.356 1_545 S
C2199 C2198 1.363 1_565 S
C2199 C2202 1.363 1_556 S
N2200 C2202 1.356 . S
N2200 H2212 0.984 . S
N2200 H2213 0.985 . S
N2201 C2203 1.356 . S
N2201 H2206 0.984 . S
N2201 H2207 0.985 . S
C2202 C2196 1.379 1_565 S
C2202 C2199 1.363 1_554 S
C2202 N2200 1.356 . S
C2203 C2197 1.363 1_556 S
C2203 C2198 1.379 . S
C2203 N2201 1.356 . S
N2204 C2196 1.356 . S
N2204 H2210 0.984 . S
N2204 H2211 0.984 . S
N2205 C2198 1.356 1_565 S
N2205 H2208 0.984 . S
N2205 H2209 0.985 . S
H2206 N2201 0.984 . S
H2207 N2201 0.985 . S
H2208 N2205 0.984 . S
H2209 N2205 0.985 . S
H2210 N2204 0.984 . S
H2211 N2204 0.984 . S
H2212 N2200 0.984 . S
H2213 N2200 0.985 . S
C2214 C2215 1.363 . S
C2214 C2220 1.379 1_654 S
C2214 N2222 1.356 . S
C2215 C2214 1.363 . S
C2215 C2221 1.363 1_554 S
C2216 C2217 1.363 1_655 S
C2216 C2221 1.379 . S
C2216 N2223 1.356 1_655 S
C2217 C2216 1.363 1_455 S
C2217 C2220 1.363 . S
N2218 C2220 1.356 1_554 S
N2218 H2230 0.989 . S
N2218 H2231 0.981 1_554 S
N2219 C2221 1.356 . S
N2219 H2224 0.984 . S
N2219 H2225 0.985 . S
C2220 C2214 1.379 1_456 S
C2220 C2217 1.363 . S
C2220 N2218 1.356 1_556 S
C2221 C2215 1.363 1_556 S
C2221 C2216 1.379 . S
C2221 N2219 1.356 . S
N2222 C2214 1.356 . S
N2222 H2228 0.984 . S
N2222 H2229 0.984 . S
N2223 C2216 1.356 1_455 S
N2223 H2226 0.984 . S
N2223 H2227 0.985 . S
H2224 N2219 0.984 . S
H2225 N2219 0.985 . S
H2226 N2223 0.984 . S
H2227 N2223 0.985 . S
H2228 N2222 0.984 . S
H2229 N2222 0.984 . S
H2230 N2218 0.989 . S
H2231 N2218 0.981 1_556 S
C2232 C2233 1.363 . S
C2232 C2238 1.379 . S
C2232 N2240 1.356 . S
C2233 C2232 1.363 . S
C2233 C2239 1.363 1_556 S
C2234 C2235 1.363 . S
C2234 C2239 1.379 . S
C2234 N2241 1.356 . S
C2235 C2234 1.363 . S
C2235 C2238 1.363 1_554 S
N2236 C2238 1.356 . S
N2236 H2248 0.984 . S
N2236 H2249 0.985 . S
N2237 C2239 1.356 . S
N2237 H2242 0.984 1_554 S
N2237 H2243 0.985 . S
C2238 C2232 1.379 . S
C2238 C2235 1.363 1_556 S
C2238 N2236 1.356 . S
C2239 C2233 1.363 1_554 S
C2239 C2234 1.379 . S
C2239 N2237 1.356 . S
N2240 C2232 1.356 . S
N2240 H2246 0.984 . S
N2240 H2247 0.984 . S
N2241 C2234 1.356 . S
N2241 H2244 0.984 . S
N2241 H2245 0.985 . S
H2242 N2237 0.984 1_556 S
H2243 N2237 0.985 . S
H2244 N2241 0.984 . S
H2245 N2241 0.985 . S
H2246 N2240 0.984 . S
H2247 N2240 0.984 . S
H2248 N2236 0.984 . S
H2249 N2236 0.985 . S
C2250 C2251 1.363 1_455 S
C2250 C2256 1.379 . S
C2250 N2258 1.356 1_455 S
C2251 C2250 1.363 1_655 S
C2251 C2257 1.363 . S
C2252 C2253 1.363 . S
C2252 C2257 1.379 1_455 S
C2252 N2259 1.356 . S
C2253 C2252 1.363 . S
C2253 C2256 1.363 . S
N2254 C2256 1.356 . S
N2254 H2266 0.984 . S
N2254 H2267 0.985 . S
N2255 C2257 1.356 . S
N2255 H2260 0.984 . S
N2255 H2261 0.985 . S
C2256 C2250 1.379 . S
C2256 C2253 1.363 . S
C2256 N2254 1.356 . S
C2257 C2251 1.363 . S
C2257 C2252 1.379 1_655 S
C2257 N2255 1.356 . S
N2258 C2250 1.356 1_655 S
N2258 H2264 0.985 1_655 S
N2258 H2265 0.984 . S
N2259 C2252 1.356 . S
N2259 H2262 0.984 . S
N2259 H2263 0.985 . S
H2260 N2255 0.984 . S
H2261 N2255 0.985 . S
H2262 N2259 0.984 . S
H2263 N2259 0.985 . S
H2264 N2258 0.985 1_455 S
H2265 N2258 0.984 . S
H2266 N2254 0.984 . S
H2267 N2254 0.985 . S
C2268 C2269 1.363 . S
C2268 C2274 1.379 . S
C2268 N2276 1.356 . S
C2269 C2268 1.363 . S
C2269 C2275 1.363 . S
C2270 C2271 1.363 . S
C2270 C2275 1.379 . S
C2270 N2277 1.356 . S
C2271 C2270 1.363 . S
C2271 C2274 1.363 . S
N2272 C2274 1.356 . S
N2272 H2284 0.984 . S
N2272 H2285 0.985 . S
N2273 C2275 1.356 . S
N2273 H2278 0.984 . S
N2273 H2279 0.985 . S
C2274 C2268 1.379 . S
C2274 C2271 1.363 . S
C2274 N2272 1.356 . S
C2275 C2269 1.363 . S
C2275 C2270 1.379 . S
C2275 N2273 1.356 . S
N2276 C2268 1.356 . S
N2276 H2282 0.984 . S
N2276 H2283 0.984 . S
N2277 C2270 1.356 . S
N2277 H2280 0.984 . S
N2277 H2281 0.985 . S
H2278 N2273 0.984 . S
H2279 N2273 0.985 . S
H2280 N2277 0.984 . S
H2281 N2277 0.985 . S
H2282 N2276 0.984 . S
H2283 N2276 0.984 . S
H2284 N2272 0.984 . S
H2285 N2272 0.985 . S
C2286 C2287 1.362 1_565 S
C2286 C2292 1.393 . S
C2286 N2294 1.340 1_565 S
C2287 C2286 1.362 1_545 S
C2287 C2293 1.363 . S
C2288 C2289 1.363 . S
C2288 C2293 1.379 1_565 S
C2288 N2295 1.356 . S
C2289 C2288 1.363 . S
C2289 C2292 1.363 . S
N2290 C2292 1.356 . S
N2290 H2302 0.984 . S
N2290 H2303 0.985 . S
N2291 C2293 1.356 . S
N2291 H2296 0.984 . S
N2291 H2297 0.985 . S
C2292 C2286 1.393 . S
C2292 C2289 1.363 . S
C2292 N2290 1.356 . S
C2293 C2287 1.363 . S
C2293 C2288 1.379 1_545 S
C2293 N2291 1.356 . S
N2294 C2286 1.340 1_545 S
N2294 H2300 0.984 . S
N2294 H2301 0.984 . S
N2295 C2288 1.356 . S
N2295 H2298 0.984 . S
N2295 H2299 0.985 . S
H2296 N2291 0.984 . S
H2297 N2291 0.985 . S
H2298 N2295 0.984 . S
H2299 N2295 0.985 . S
H2300 N2294 0.984 . S
H2301 N2294 0.984 . S
H2302 N2290 0.984 . S
H2303 N2290 0.985 . S
C2304 C2305 1.363 1_556 S
C2304 C2310 1.379 1_545 S
C2304 N2312 1.356 . S
C2305 C2304 1.363 1_554 S
C2305 C2311 1.363 1_545 S
C2306 C2307 1.363 1_554 S
C2306 C2311 1.379 . S
C2306 N2313 1.356 . S
C2307 C2306 1.363 1_556 S
C2307 C2310 1.363 . S
N2308 C2310 1.356 . S
N2308 H2320 0.984 . S
N2308 H2321 0.985 . S
N2309 C2311 1.356 1_545 S
N2309 H2314 0.984 . S
N2309 H2315 1.011 . S
C2310 C2304 1.379 1_565 S
C2310 C2307 1.363 . S
C2310 N2308 1.356 . S
C2311 C2305 1.363 1_565 S
C2311 C2306 1.379 . S
C2311 N2309 1.356 1_565 S
N2312 C2304 1.356 . S
N2312 H2318 0.984 . S
N2312 H2319 0.984 . S
N2313 C2306 1.356 . S
N2313 H2316 0.984 . S
N2313 H2317 0.985 . S
H2314 N2309 0.984 . S
H2315 N2309 1.011 . S
H2316 N2313 0.984 . S
H2317 N2313 0.985 . S
H2318 N2312 0.984 . S
H2319 N2312 0.984 . S
H2320 N2308 0.984 . S
H2321 N2308 0.985 . S
C2322 C2323 1.363 1_556 S
C2322 C2328 1.379 1_655 S
C2322 N2330 1.356 . S
C2323 C2322 1.363 1_554 S
C2323 C2329 1.363 1_655 S
C2324 C2325 1.363 1_554 S
C2324 C2329 1.379 . S
C2324 N2331 1.356 . S
C2325 C2324 1.363 1_556 S
C2325 C2328 1.363 . S
N2326 C2328 1.356 . S
N2326 H2338 0.984 . S
N2326 H2339 0.985 . S
N2327 C2329 1.356 1_655 S
N2327 H2332 0.984 . S
N2327 H2333 0.985 . S
C2328 C2322 1.379 1_455 S
C2328 C2325 1.363 . S
C2328 N2326 1.356 . S
C2329 C2323 1.363 1_455 S
C2329 C2324 1.379 . S
C2329 N2327 1.356 1_455 S
N2330 C2322 1.356 . S
N2330 H2336 0.984 . S
N2330 H2337 1.003 . S
N2331 C2324 1.356 . S
N2331 H2334 0.984 . S
N2331 H2335 0.985 . S
H2332 N2327 0.984 . S
H2333 N2327 0.985 . S
H2334 N2331 0.984 . S
H2335 N2331 0.985 . S
H2336 N2330 0.984 . S
H2337 N2330 1.003 . S
H2338 N2326 0.984 . S
H2339 N2326 0.985 . S
C2340 C2341 1.363 . S
C2340 C2346 1.379 . S
C2340 N2348 1.356 . S
C2341 C2340 1.363 . S
C2341 C2347 1.365 . S
C2342 C2343 1.363 . S
C2342 C2347 1.378 1_556 S
C2342 N2349 1.356 . S
C2343 C2342 1.363 . S
C2343 C2346 1.363 1_556 S
N2344 C2346 1.356 . S
N2344 H2356 0.984 . S
N2344 H2357 0.985 . S
N2345 C2347 1.356 1_556 S
N2345 H2350 0.984 1_556 S
N2345 H2351 0.985 . S
C2346 C2340 1.379 . S
C2346 C2343 1.363 1_554 S
C2346 N2344 1.356 . S
C2347 C2341 1.365 . S
C2347 C2342 1.378 1_554 S
C2347 N2345 1.356 1_554 S
N2348 C2340 1.356 . S
N2348 H2354 0.984 . S
N2348 H2355 0.984 . S
N2349 C2342 1.356 . S
N2349 H2352 0.984 . S
N2349 H2353 0.985 . S
H2350 N2345 0.984 1_554 S
H2351 N2345 0.985 . S
H2352 N2349 0.984 . S
H2353 N2349 0.985 . S
H2354 N2348 0.984 . S
H2355 N2348 0.984 . S
H2356 N2344 0.984 . S
H2357 N2344 0.985 . S
C2358 C2359 1.363 . S
C2358 C2364 1.379 1_655 S
C2358 N2366 1.356 . S
C2359 C2358 1.363 . S
C2359 C2365 1.363 . S
C2360 C2361 1.363 1_655 S
C2360 C2365 1.379 . S
C2360 N2367 1.356 1_655 S
C2361 C2360 1.363 1_455 S
C2361 C2364 1.363 . S
N2362 C2364 1.356 . S
N2362 H2374 0.984 . S
N2362 H2375 0.985 . S
N2363 C2365 1.356 . S
N2363 H2368 0.984 . S
N2363 H2369 0.985 . S
C2364 C2358 1.379 1_455 S
C2364 C2361 1.363 . S
C2364 N2362 1.356 . S
C2365 C2359 1.363 . S
C2365 C2360 1.379 . S
C2365 N2363 1.356 . S
N2366 C2358 1.356 . S
N2366 H2372 0.984 . S
N2366 H2373 0.984 . S
N2367 C2360 1.356 1_455 S
N2367 H2370 0.984 . S
N2367 H2371 0.985 . S
H2368 N2363 0.984 . S
H2369 N2363 0.985 . S
H2370 N2367 0.984 . S
H2371 N2367 0.985 . S
H2372 N2366 0.984 . S
H2373 N2366 0.984 . S
H2374 N2362 0.984 . S
H2375 N2362 0.985 . S
C2376 C2377 1.363 . S
C2376 C2382 1.379 . S
C2376 N2384 1.356 . S
C2377 C2376 1.363 . S
C2377 C2383 1.363 . S
C2378 C2379 1.363 . S
C2378 C2383 1.379 . S
C2378 N2385 1.356 . S
C2379 C2378 1.363 . S
C2379 C2382 1.363 . S
N2380 C2382 1.356 . S
N2380 H2392 0.984 . S
N2380 H2393 0.985 . S
N2381 C2383 1.356 . S
N2381 H2386 0.984 . S
N2381 H2387 0.985 . S
C2382 C2376 1.379 . S
C2382 C2379 1.363 . S
C2382 N2380 1.356 . S
C2383 C2377 1.363 . S
C2383 C2378 1.379 . S
C2383 N2381 1.356 . S
N2384 C2376 1.356 . S
N2384 H2390 0.984 . S
N2384 H2391 0.984 . S
N2385 C2378 1.356 . S
N2385 H2388 0.984 . S
N2385 H2389 0.985 . S
H2386 N2381 0.984 . S
H2387 N2381 0.985 . S
H2388 N2385 0.984 . S
H2389 N2385 0.985 . S
H2390 N2384 0.984 . S
H2391 N2384 0.984 . S
H2392 N2380 0.984 . S
H2393 N2380 0.985 . S
C2394 C2395 1.363 . S
C2394 C2400 1.379 1_565 S
C2394 N2402 1.356 . S
C2395 C2394 1.363 . S
C2395 C2401 1.363 1_565 S
C2396 C2397 1.363 . S
C2396 C2401 1.379 . S
C2396 N2403 1.356 . S
C2397 C2396 1.363 . S
C2397 C2400 1.363 . S
N2398 C2400 1.356 . S
N2398 H2410 0.984 . S
N2398 H2411 0.985 . S
N2399 C2401 1.356 1_565 S
N2399 H2404 0.984 . S
N2399 H2405 0.985 . S
C2400 C2394 1.379 1_545 S
C2400 C2397 1.363 . S
C2400 N2398 1.356 . S
C2401 C2395 1.363 1_545 S
C2401 C2396 1.379 . S
C2401 N2399 1.356 1_545 S
N2402 C2394 1.356 . S
N2402 H2408 0.984 . S
N2402 H2409 0.984 . S
N2403 C2396 1.356 . S
N2403 H2406 0.984 . S
N2403 H2407 0.985 . S
H2404 N2399 0.984 . S
H2405 N2399 0.985 . S
H2406 N2403 0.984 . S
H2407 N2403 0.985 . S
H2408 N2402 0.984 . S
H2409 N2402 0.984 . S
H2410 N2398 0.984 . S
H2411 N2398 0.985 . S
C2412 C2413 1.363 . S
C2412 C2418 1.379 . S
C2412 N2420 1.356 . S
C2413 C2412 1.363 . S
C2413 C2419 1.363 . S
C2414 C2415 1.363 . S
C2414 C2419 1.379 . S
C2414 N2421 1.356 . S
C2415 C2414 1.363 . S
C2415 C2418 1.363 . S
N2416 C2418 1.356 . S
N2416 H2428 0.984 . S
N2416 H2429 0.985 . S
N2417 C2419 1.356 . S
N2417 H2422 0.984 . S
N2417 H2423 0.985 . S
C2418 C2412 1.379 . S
C2418 C2415 1.363 . S
C2418 N2416 1.356 . S
C2419 C2413 1.363 . S
C2419 C2414 1.379 . S
C2419 N2417 1.356 . S
N2420 C2412 1.356 . S
N2420 H2426 0.984 . S
N2420 H2427 0.984 . S
N2421 C2414 1.356 . S
N2421 H2424 0.984 . S
N2421 H2425 0.985 . S
H2422 N2417 0.984 . S
H2423 N2417 0.985 . S
H2424 N2421 0.984 . S
H2425 N2421 0.985 . S
H2426 N2420 0.984 . S
H2427 N2420 0.984 . S
H2428 N2416 0.984 . S
H2429 N2416 0.985 . S
C2430 C2431 1.363 . S
C2430 C2436 1.379 . S
C2430 N2438 1.356 . S
C2431 C2430 1.363 . S
C2431 C2437 1.363 . S
C2432 C2433 1.363 . S
C2432 C2437 1.379 . S
C2432 N2439 1.356 . S
C2433 C2432 1.363 . S
C2433 C2436 1.363 . S
N2434 C2436 1.356 . S
N2434 H2446 0.984 . S
N2434 H2447 0.985 . S
N2435 C2437 1.356 . S
N2435 H2440 0.984 . S
N2435 H2441 0.985 . S
C2436 C2430 1.379 . S
C2436 C2433 1.363 . S
C2436 N2434 1.356 . S
C2437 C2431 1.363 . S
C2437 C2432 1.379 . S
C2437 N2435 1.356 . S
N2438 C2430 1.356 . S
N2438 H2444 0.984 . S
N2438 H2445 0.984 . S
N2439 C2432 1.356 . S
N2439 H2442 0.984 . S
N2439 H2443 0.985 . S
H2440 N2435 0.984 . S
H2441 N2435 0.985 . S
H2442 N2439 0.984 . S
H2443 N2439 0.985 . S
H2444 N2438 0.984 . S
H2445 N2438 0.984 . S
H2446 N2434 0.984 . S
H2447 N2434 0.985 . S
C2448 C2449 1.363 . S
C2448 C2454 1.379 . S
C2448 N2456 1.356 . S
C2449 C2448 1.363 . S
C2449 C2455 1.363 . S
C2450 C2451 1.363 . S
C2450 C2455 1.379 . S
C2450 N2457 1.356 . S
C2451 C2450 1.363 . S
C2451 C2454 1.363 . S
N2452 C2454 1.356 . S
N2452 H2464 0.984 . S
N2452 H2465 0.985 . S
N2453 C2455 1.356 . S
N2453 H2458 0.984 . S
N2453 H2459 0.985 . S
C2454 C2448 1.379 . S
C2454 C2451 1.363 . S
C2454 N2452 1.356 . S
C2455 C2449 1.363 . S
C2455 C2450 1.379 . S
C2455 N2453 1.356 . S
N2456 C2448 1.356 . S
N2456 H2462 0.984 . S
N2456 H2463 0.984 . S
N2457 C2450 1.356 . S
N2457 H2460 0.984 . S
N2457 H2461 0.985 . S
H2458 N2453 0.984 . S
H2459 N2453 0.985 . S
H2460 N2457 0.984 . S
H2461 N2457 0.985 . S
H2462 N2456 0.984 . S
H2463 N2456 0.984 . S
H2464 N2452 0.984 . S
H2465 N2452 0.985 . S
C2466 C2467 1.363 . S
C2466 C2472 1.379 . S
C2466 N2474 1.356 . S
C2467 C2466 1.363 . S
C2467 C2473 1.363 . S
C2468 C2469 1.363 . S
C2468 C2473 1.379 . S
C2468 N2475 1.356 . S
C2469 C2468 1.363 . S
C2469 C2472 1.363 . S
N2470 C2472 1.356 . S
N2470 H2482 0.984 . S
N2470 H2483 0.985 . S
N2471 C2473 1.356 . S
N2471 H2476 0.984 . S
N2471 H2477 0.985 . S
C2472 C2466 1.379 . S
C2472 C2469 1.363 . S
C2472 N2470 1.356 . S
C2473 C2467 1.363 . S
C2473 C2468 1.379 . S
C2473 N2471 1.356 . S
N2474 C2466 1.356 . S
N2474 H2480 0.984 . S
N2474 H2481 0.984 . S
N2475 C2468 1.356 . S
N2475 H2478 0.984 . S
N2475 H2479 0.985 . S
H2476 N2471 0.984 . S
H2477 N2471 0.985 . S
H2478 N2475 0.984 . S
H2479 N2475 0.985 . S
H2480 N2474 0.984 . S
H2481 N2474 0.984 . S
H2482 N2470 0.984 . S
H2483 N2470 0.985 . S
C2484 C2485 1.363 . S
C2484 C2490 1.379 . S
C2484 N2492 1.356 . S
C2485 C2484 1.363 . S
C2485 C2491 1.363 . S
C2486 C2487 1.363 . S
C2486 C2491 1.379 . S
C2486 N2493 1.356 . S
C2487 C2486 1.363 . S
C2487 C2490 1.363 . S
N2488 C2490 1.356 . S
N2488 H2500 0.984 . S
N2488 H2501 0.985 . S
N2489 C2491 1.356 . S
N2489 H2494 0.984 . S
N2489 H2495 0.985 . S
C2490 C2484 1.379 . S
C2490 C2487 1.363 . S
C2490 N2488 1.356 . S
C2491 C2485 1.363 . S
C2491 C2486 1.379 . S
C2491 N2489 1.356 . S
N2492 C2484 1.356 . S
N2492 H2498 0.984 . S
N2492 H2499 0.984 . S
N2493 C2486 1.356 . S
N2493 H2496 0.984 . S
N2493 H2497 0.985 . S
H2494 N2489 0.984 . S
H2495 N2489 0.985 . S
H2496 N2493 0.984 . S
H2497 N2493 0.985 . S
H2498 N2492 0.984 . S
H2499 N2492 0.984 . S
H2500 N2488 0.984 . S
H2501 N2488 0.985 . S
C2502 C2503 1.363 . S
C2502 C2508 1.379 . S
C2502 N2510 1.356 . S
C2503 C2502 1.363 . S
C2503 C2509 1.363 . S
C2504 C2505 1.363 . S
C2504 C2509 1.379 . S
C2504 N2511 1.356 . S
C2505 C2504 1.363 . S
C2505 C2508 1.363 . S
N2506 C2508 1.356 . S
N2506 H2518 0.984 . S
N2506 H2519 0.985 . S
N2507 C2509 1.356 . S
N2507 H2512 0.984 . S
N2507 H2513 0.985 . S
C2508 C2502 1.379 . S
C2508 C2505 1.363 . S
C2508 N2506 1.356 . S
C2509 C2503 1.363 . S
C2509 C2504 1.379 . S
C2509 N2507 1.356 . S
N2510 C2502 1.356 . S
N2510 H2516 0.984 . S
N2510 H2517 0.984 . S
N2511 C2504 1.356 . S
N2511 H2514 0.984 . S
N2511 H2515 0.985 . S
H2512 N2507 0.984 . S
H2513 N2507 0.985 . S
H2514 N2511 0.984 . S
H2515 N2511 0.985 . S
H2516 N2510 0.984 . S
H2517 N2510 0.984 . S
H2518 N2506 0.984 . S
H2519 N2506 0.985 . S
C2520 C2521 1.363 . S
C2520 C2526 1.379 . S
C2520 N2528 1.356 . S
C2521 C2520 1.363 . S
C2521 C2527 1.363 . S
C2522 C2523 1.363 . S
C2522 C2527 1.379 . S
C2522 N2529 1.356 . S
C2523 C2522 1.363 . S
C2523 C2526 1.363 . S
N2524 C2526 1.356 . S
N2524 H2536 0.984 . S
N2524 H2537 0.985 . S
N2525 C2527 1.356 . S
N2525 H2530 0.984 . S
N2525 H2531 0.985 . S
C2526 C2520 1.379 . S
C2526 C2523 1.363 . S
C2526 N2524 1.356 . S
C2527 C2521 1.363 . S
C2527 C2522 1.379 . S
C2527 N2525 1.356 . S
N2528 C2520 1.356 . S
N2528 H2534 0.984 . S
N2528 H2535 0.984 . S
N2529 C2522 1.356 . S
N2529 H2532 0.984 . S
N2529 H2533 0.985 . S
H2530 N2525 0.984 . S
H2531 N2525 0.985 . S
H2532 N2529 0.984 . S
H2533 N2529 0.985 . S
H2534 N2528 0.984 . S
H2535 N2528 0.984 . S
H2536 N2524 0.984 . S
H2537 N2524 0.985 . S
C2538 C2539 1.363 . S
C2538 C2544 1.379 . S
C2538 N2546 1.356 . S
C2539 C2538 1.363 . S
C2539 C2545 1.363 . S
C2540 C2541 1.363 . S
C2540 C2545 1.379 . S
C2540 N2547 1.356 . S
C2541 C2540 1.363 . S
C2541 C2544 1.363 . S
N2542 C2544 1.356 . S
N2542 H2554 0.984 . S
N2542 H2555 0.985 . S
N2543 C2545 1.356 . S
N2543 H2548 0.984 . S
N2543 H2549 0.985 . S
C2544 C2538 1.379 . S
C2544 C2541 1.363 . S
C2544 N2542 1.356 . S
C2545 C2539 1.363 . S
C2545 C2540 1.379 . S
C2545 N2543 1.356 . S
N2546 C2538 1.356 . S
N2546 H2552 0.984 . S
N2546 H2553 0.984 . S
N2547 C2540 1.356 . S
N2547 H2550 0.984 . S
N2547 H2551 0.985 . S
H2548 N2543 0.984 . S
H2549 N2543 0.985 . S
H2550 N2547 0.984 . S
H2551 N2547 0.985 . S
H2552 N2546 0.984 . S
H2553 N2546 0.984 . S
H2554 N2542 0.984 . S
H2555 N2542 0.985 . S
C2556 C2557 1.363 . S
C2556 C2562 1.379 . S
C2556 N2564 1.356 . S
C2557 C2556 1.363 . S
C2557 C2563 1.363 . S
C2558 C2559 1.363 . S
C2558 C2563 1.379 . S
C2558 N2565 1.356 . S
C2559 C2558 1.363 . S
C2559 C2562 1.363 . S
N2560 C2562 1.356 . S
N2560 H2572 0.984 . S
N2560 H2573 0.985 . S
N2561 C2563 1.356 . S
N2561 H2566 0.984 . S
N2561 H2567 0.985 . S
C2562 C2556 1.379 . S
C2562 C2559 1.363 . S
C2562 N2560 1.356 . S
C2563 C2557 1.363 . S
C2563 C2558 1.379 . S
C2563 N2561 1.356 . S
N2564 C2556 1.356 . S
N2564 H2570 0.984 . S
N2564 H2571 0.984 . S
N2565 C2558 1.356 . S
N2565 H2568 0.984 . S
N2565 H2569 0.985 . S
H2566 N2561 0.984 . S
H2567 N2561 0.985 . S
H2568 N2565 0.984 . S
H2569 N2565 0.985 . S
H2570 N2564 0.984 . S
H2571 N2564 0.984 . S
H2572 N2560 0.984 . S
H2573 N2560 0.985 . S
C2574 C2575 1.363 . S
C2574 C2580 1.379 . S
C2574 N2582 1.356 . S
C2575 C2574 1.363 . S
C2575 C2581 1.363 . S
C2576 C2577 1.363 . S
C2576 C2581 1.379 . S
C2576 N2583 1.356 . S
C2577 C2576 1.363 . S
C2577 C2580 1.363 . S
N2578 C2580 1.356 . S
N2578 H2590 0.984 . S
N2578 H2591 0.985 . S
N2579 C2581 1.356 . S
N2579 H2584 0.984 . S
N2579 H2585 0.985 . S
C2580 C2574 1.379 . S
C2580 C2577 1.363 . S
C2580 N2578 1.356 . S
C2581 C2575 1.363 . S
C2581 C2576 1.379 . S
C2581 N2579 1.356 . S
N2582 C2574 1.356 . S
N2582 H2588 0.984 . S
N2582 H2589 0.984 . S
N2583 C2576 1.356 . S
N2583 H2586 0.984 . S
N2583 H2587 0.985 . S
H2584 N2579 0.984 . S
H2585 N2579 0.985 . S
H2586 N2583 0.984 . S
H2587 N2583 0.985 . S
H2588 N2582 0.984 . S
H2589 N2582 0.984 . S
H2590 N2578 0.984 . S
H2591 N2578 0.985 . S
C2592 C2593 1.363 . S
C2592 C2598 1.379 . S
C2592 N2600 1.356 . S
C2593 C2592 1.363 . S
C2593 C2599 1.363 . S
C2594 C2595 1.363 . S
C2594 C2599 1.379 . S
C2594 N2601 1.356 . S
C2595 C2594 1.363 . S
C2595 C2598 1.363 . S
N2596 C2598 1.356 . S
N2596 H2608 0.984 . S
N2596 H2609 0.985 . S
N2597 C2599 1.356 . S
N2597 H2602 0.984 . S
N2597 H2603 0.985 . S
C2598 C2592 1.379 . S
C2598 C2595 1.363 . S
C2598 N2596 1.356 . S
C2599 C2593 1.363 . S
C2599 C2594 1.379 . S
C2599 N2597 1.356 . S
N2600 C2592 1.356 . S
N2600 H2606 0.984 . S
N2600 H2607 0.984 . S
N2601 C2594 1.356 . S
N2601 H2604 0.984 . S
N2601 H2605 0.985 . S
H2602 N2597 0.984 . S
H2603 N2597 0.985 . S
H2604 N2601 0.984 . S
H2605 N2601 0.985 . S
H2606 N2600 0.984 . S
H2607 N2600 0.984 . S
H2608 N2596 0.984 . S
H2609 N2596 0.985 . S
C2610 C2611 1.363 . S
C2610 C2616 1.379 . S
C2610 N2618 1.356 . S
C2611 C2610 1.363 . S
C2611 C2617 1.363 . S
C2612 C2613 1.363 . S
C2612 C2617 1.379 . S
C2612 N2619 1.356 . S
C2613 C2612 1.363 . S
C2613 C2616 1.363 . S
N2614 C2616 1.356 . S
N2614 H2626 0.984 . S
N2614 H2627 0.985 . S
N2615 C2617 1.356 . S
N2615 H2620 0.984 . S
N2615 H2621 0.985 . S
C2616 C2610 1.379 . S
C2616 C2613 1.363 . S
C2616 N2614 1.356 . S
C2617 C2611 1.363 . S
C2617 C2612 1.379 . S
C2617 N2615 1.356 . S
N2618 C2610 1.356 . S
N2618 H2624 0.984 . S
N2618 H2625 0.984 . S
N2619 C2612 1.356 . S
N2619 H2622 0.984 . S
N2619 H2623 0.985 . S
H2620 N2615 0.984 . S
H2621 N2615 0.985 . S
H2622 N2619 0.984 . S
H2623 N2619 0.985 . S
H2624 N2618 0.984 . S
H2625 N2618 0.984 . S
H2626 N2614 0.984 . S
H2627 N2614 0.985 . S
C2628 C2629 1.363 . S
C2628 C2634 1.379 . S
C2628 N2636 1.356 . S
C2629 C2628 1.363 . S
C2629 C2635 1.363 . S
C2630 C2631 1.363 . S
C2630 C2635 1.379 . S
C2630 N2637 1.356 . S
C2631 C2630 1.363 . S
C2631 C2634 1.363 . S
N2632 C2634 1.356 . S
N2632 H2644 0.984 . S
N2632 H2645 0.985 . S
N2633 C2635 1.356 . S
N2633 H2638 0.984 . S
N2633 H2639 0.985 . S
C2634 C2628 1.379 . S
C2634 C2631 1.363 . S
C2634 N2632 1.356 . S
C2635 C2629 1.363 . S
C2635 C2630 1.379 . S
C2635 N2633 1.356 . S
N2636 C2628 1.356 . S
N2636 H2642 0.984 . S
N2636 H2643 0.984 . S
N2637 C2630 1.356 . S
N2637 H2640 0.984 . S
N2637 H2641 0.985 . S
H2638 N2633 0.984 . S
H2639 N2633 0.985 . S
H2640 N2637 0.984 . S
H2641 N2637 0.985 . S
H2642 N2636 0.984 . S
H2643 N2636 0.984 . S
H2644 N2632 0.984 . S
H2645 N2632 0.985 . S
C2646 C2647 1.363 . S
C2646 C2652 1.379 . S
C2646 N2654 1.356 . S
C2647 C2646 1.363 . S
C2647 C2653 1.363 . S
C2648 C2649 1.363 . S
C2648 C2653 1.379 . S
C2648 N2655 1.356 . S
C2649 C2648 1.363 . S
C2649 C2652 1.363 . S
N2650 C2652 1.356 . S
N2650 H2662 0.984 . S
N2650 H2663 0.985 . S
N2651 C2653 1.356 . S
N2651 H2656 0.984 . S
N2651 H2657 0.985 . S
C2652 C2646 1.379 . S
C2652 C2649 1.363 . S
C2652 N2650 1.356 . S
C2653 C2647 1.363 . S
C2653 C2648 1.379 . S
C2653 N2651 1.356 . S
N2654 C2646 1.356 . S
N2654 H2660 0.984 . S
N2654 H2661 0.984 . S
N2655 C2648 1.356 . S
N2655 H2658 0.984 . S
N2655 H2659 0.985 . S
H2656 N2651 0.984 . S
H2657 N2651 0.985 . S
H2658 N2655 0.984 . S
H2659 N2655 0.985 . S
H2660 N2654 0.984 . S
H2661 N2654 0.984 . S
H2662 N2650 0.984 . S
H2663 N2650 0.985 . S
C2664 C2665 1.363 . S
C2664 C2670 1.379 . S
C2664 N2672 1.356 . S
C2665 C2664 1.363 . S
C2665 C2671 1.363 . S
C2666 C2667 1.363 . S
C2666 C2671 1.379 . S
C2666 N2673 1.356 . S
C2667 C2666 1.363 . S
C2667 C2670 1.363 . S
N2668 C2670 1.356 . S
N2668 H2680 0.984 . S
N2668 H2681 0.985 . S
N2669 C2671 1.356 . S
N2669 H2674 0.984 . S
N2669 H2675 0.985 . S
C2670 C2664 1.379 . S
C2670 C2667 1.363 . S
C2670 N2668 1.356 . S
C2671 C2665 1.363 . S
C2671 C2666 1.379 . S
C2671 N2669 1.356 . S
N2672 C2664 1.356 . S
N2672 H2678 0.984 . S
N2672 H2679 0.984 . S
N2673 C2666 1.356 . S
N2673 H2676 0.984 . S
N2673 H2677 0.985 . S
H2674 N2669 0.984 . S
H2675 N2669 0.985 . S
H2676 N2673 0.984 . S
H2677 N2673 0.985 . S
H2678 N2672 0.984 . S
H2679 N2672 0.984 . S
H2680 N2668 0.984 . S
H2681 N2668 0.985 . S
C2682 C2683 1.363 . S
C2682 C2688 1.379 . S
C2682 N2690 1.356 . S
C2683 C2682 1.363 . S
C2683 C2689 1.363 . S
C2684 C2685 1.363 . S
C2684 C2689 1.379 . S
C2684 N2691 1.356 . S
C2685 C2684 1.363 . S
C2685 C2688 1.363 . S
N2686 C2688 1.356 . S
N2686 H2698 0.984 . S
N2686 H2699 0.985 . S
N2687 C2689 1.356 . S
N2687 H2692 0.984 . S
N2687 H2693 0.985 . S
C2688 C2682 1.379 . S
C2688 C2685 1.363 . S
C2688 N2686 1.356 . S
C2689 C2683 1.363 . S
C2689 C2684 1.379 . S
C2689 N2687 1.356 . S
N2690 C2682 1.356 . S
N2690 H2696 0.984 . S
N2690 H2697 0.984 . S
N2691 C2684 1.356 . S
N2691 H2694 0.984 . S
N2691 H2695 0.985 . S
H2692 N2687 0.984 . S
H2693 N2687 0.985 . S
H2694 N2691 0.984 . S
H2695 N2691 0.985 . S
H2696 N2690 0.984 . S
H2697 N2690 0.984 . S
H2698 N2686 0.984 . S
H2699 N2686 0.985 . S
C2700 C2701 1.363 . S
C2700 C2706 1.379 . S
C2700 N2708 1.356 . S
C2701 C2700 1.363 . S
C2701 C2707 1.363 . S
C2702 C2703 1.363 . S
C2702 C2707 1.379 . S
C2702 N2709 1.356 . S
C2703 C2702 1.363 . S
C2703 C2706 1.363 . S
N2704 C2706 1.356 . S
N2704 H2716 0.984 . S
N2704 H2717 0.985 . S
N2705 C2707 1.356 . S
N2705 H2710 0.984 . S
N2705 H2711 0.985 . S
C2706 C2700 1.379 . S
C2706 C2703 1.363 . S
C2706 N2704 1.356 . S
C2707 C2701 1.363 . S
C2707 C2702 1.379 . S
C2707 N2705 1.356 . S
N2708 C2700 1.356 . S
N2708 H2714 0.984 . S
N2708 H2715 0.984 . S
N2709 C2702 1.356 . S
N2709 H2712 0.984 . S
N2709 H2713 0.985 . S
H2710 N2705 0.984 . S
H2711 N2705 0.985 . S
H2712 N2709 0.984 . S
H2713 N2709 0.985 . S
H2714 N2708 0.984 . S
H2715 N2708 0.984 . S
H2716 N2704 0.984 . S
H2717 N2704 0.985 . S
C2718 C2719 1.363 . S
C2718 C2724 1.379 . S
C2718 N2726 1.356 . S
C2719 C2718 1.363 . S
C2719 C2725 1.363 . S
C2720 C2721 1.363 . S
C2720 C2725 1.379 . S
C2720 N2727 1.356 . S
C2721 C2720 1.363 . S
C2721 C2724 1.363 . S
N2722 C2724 1.356 . S
N2722 H2734 0.984 . S
N2722 H2735 0.985 . S
N2723 C2725 1.356 . S
N2723 H2728 0.984 . S
N2723 H2729 0.985 . S
C2724 C2718 1.379 . S
C2724 C2721 1.363 . S
C2724 N2722 1.356 . S
C2725 C2719 1.363 . S
C2725 C2720 1.379 . S
C2725 N2723 1.356 . S
N2726 C2718 1.356 . S
N2726 H2732 0.984 . S
N2726 H2733 0.984 . S
N2727 C2720 1.356 . S
N2727 H2730 0.984 . S
N2727 H2731 0.985 . S
H2728 N2723 0.984 . S
H2729 N2723 0.985 . S
H2730 N2727 0.984 . S
H2731 N2727 0.985 . S
H2732 N2726 0.984 . S
H2733 N2726 0.984 . S
H2734 N2722 0.984 . S
H2735 N2722 0.985 . S
C2736 C2737 1.363 . S
C2736 C2742 1.379 . S
C2736 N2744 1.356 . S
C2737 C2736 1.363 . S
C2737 C2743 1.363 . S
C2738 C2739 1.363 . S
C2738 C2743 1.379 . S
C2738 N2745 1.356 . S
C2739 C2738 1.363 . S
C2739 C2742 1.363 . S
N2740 C2742 1.356 . S
N2740 H2752 0.984 . S
N2740 H2753 0.985 . S
N2741 C2743 1.356 . S
N2741 H2746 0.984 . S
N2741 H2747 0.985 . S
C2742 C2736 1.379 . S
C2742 C2739 1.363 . S
C2742 N2740 1.356 . S
C2743 C2737 1.363 . S
C2743 C2738 1.379 . S
C2743 N2741 1.356 . S
N2744 C2736 1.356 . S
N2744 H2750 0.984 . S
N2744 H2751 0.984 . S
N2745 C2738 1.356 . S
N2745 H2748 0.984 . S
N2745 H2749 0.985 . S
H2746 N2741 0.984 . S
H2747 N2741 0.985 . S
H2748 N2745 0.984 . S
H2749 N2745 0.985 . S
H2750 N2744 0.984 . S
H2751 N2744 0.984 . S
H2752 N2740 0.984 . S
H2753 N2740 0.985 . S
C2754 C2755 1.363 . S
C2754 C2760 1.379 . S
C2754 N2762 1.356 . S
C2755 C2754 1.363 . S
C2755 C2761 1.363 . S
C2756 C2757 1.363 . S
C2756 C2761 1.379 . S
C2756 N2763 1.356 . S
C2757 C2756 1.363 . S
C2757 C2760 1.363 . S
N2758 C2760 1.356 . S
N2758 H2770 0.984 . S
N2758 H2771 0.985 . S
N2759 C2761 1.356 . S
N2759 H2764 0.984 . S
N2759 H2765 0.985 . S
C2760 C2754 1.379 . S
C2760 C2757 1.363 . S
C2760 N2758 1.356 . S
C2761 C2755 1.363 . S
C2761 C2756 1.379 . S
C2761 N2759 1.356 . S
N2762 C2754 1.356 . S
N2762 H2768 0.984 . S
N2762 H2769 0.984 . S
N2763 C2756 1.356 . S
N2763 H2766 0.984 . S
N2763 H2767 0.985 . S
H2764 N2759 0.984 . S
H2765 N2759 0.985 . S
H2766 N2763 0.984 . S
H2767 N2763 0.985 . S
H2768 N2762 0.984 . S
H2769 N2762 0.984 . S
H2770 N2758 0.984 . S
H2771 N2758 0.985 . S
C2772 C2773 1.363 . S
C2772 C2778 1.379 . S
C2772 N2780 1.356 . S
C2773 C2772 1.363 . S
C2773 C2779 1.363 . S
C2774 C2775 1.363 . S
C2774 C2779 1.379 . S
C2774 N2781 1.356 . S
C2775 C2774 1.363 . S
C2775 C2778 1.363 . S
N2776 C2778 1.356 . S
N2776 H2788 0.984 . S
N2776 H2789 0.985 . S
N2777 C2779 1.356 . S
N2777 H2782 0.984 . S
N2777 H2783 0.985 . S
C2778 C2772 1.379 . S
C2778 C2775 1.363 . S
C2778 N2776 1.356 . S
C2779 C2773 1.363 . S
C2779 C2774 1.379 . S
C2779 N2777 1.356 . S
N2780 C2772 1.356 . S
N2780 H2786 0.984 . S
N2780 H2787 0.984 . S
N2781 C2774 1.356 . S
N2781 H2784 0.984 . S
N2781 H2785 0.985 . S
H2782 N2777 0.984 . S
H2783 N2777 0.985 . S
H2784 N2781 0.984 . S
H2785 N2781 0.985 . S
H2786 N2780 0.984 . S
H2787 N2780 0.984 . S
H2788 N2776 0.984 . S
H2789 N2776 0.985 . S
C2790 C2791 1.363 . S
C2790 C2796 1.379 . S
C2790 N2798 1.356 . S
C2791 C2790 1.363 . S
C2791 C2797 1.363 . S
C2792 C2793 1.363 . S
C2792 C2797 1.379 . S
C2792 N2799 1.356 . S
C2793 C2792 1.363 . S
C2793 C2796 1.363 . S
N2794 C2796 1.356 . S
N2794 H2806 0.984 . S
N2794 H2807 0.985 . S
N2795 C2797 1.356 . S
N2795 H2800 0.984 . S
N2795 H2801 0.985 . S
C2796 C2790 1.379 . S
C2796 C2793 1.363 . S
C2796 N2794 1.356 . S
C2797 C2791 1.363 . S
C2797 C2792 1.379 . S
C2797 N2795 1.356 . S
N2798 C2790 1.356 . S
N2798 H2804 0.984 . S
N2798 H2805 0.984 . S
N2799 C2792 1.356 . S
N2799 H2802 0.984 . S
N2799 H2803 0.985 . S
H2800 N2795 0.984 . S
H2801 N2795 0.985 . S
H2802 N2799 0.984 . S
H2803 N2799 0.985 . S
H2804 N2798 0.984 . S
H2805 N2798 0.984 . S
H2806 N2794 0.984 . S
H2807 N2794 0.985 . S
C2808 C2809 1.363 . S
C2808 C2814 1.379 . S
C2808 N2816 1.356 . S
C2809 C2808 1.363 . S
C2809 C2815 1.363 . S
C2810 C2811 1.363 . S
C2810 C2815 1.379 . S
C2810 N2817 1.356 . S
C2811 C2810 1.363 . S
C2811 C2814 1.363 . S
N2812 C2814 1.356 . S
N2812 H2824 0.984 . S
N2812 H2825 0.985 . S
N2813 C2815 1.356 . S
N2813 H2818 0.984 . S
N2813 H2819 0.985 . S
C2814 C2808 1.379 . S
C2814 C2811 1.363 . S
C2814 N2812 1.356 . S
C2815 C2809 1.363 . S
C2815 C2810 1.379 . S
C2815 N2813 1.356 . S
N2816 C2808 1.356 . S
N2816 H2822 0.984 . S
N2816 H2823 0.984 . S
N2817 C2810 1.356 . S
N2817 H2820 0.984 . S
N2817 H2821 0.985 . S
H2818 N2813 0.984 . S
H2819 N2813 0.985 . S
H2820 N2817 0.984 . S
H2821 N2817 0.985 . S
H2822 N2816 0.984 . S
H2823 N2816 0.984 . S
H2824 N2812 0.984 . S
H2825 N2812 0.985 . S
C2826 C2827 1.363 . S
C2826 C2832 1.379 . S
C2826 N2834 1.356 . S
C2827 C2826 1.363 . S
C2827 C2833 1.363 . S
C2828 C2829 1.363 . S
C2828 C2833 1.379 . S
C2828 N2835 1.356 . S
C2829 C2828 1.363 . S
C2829 C2832 1.363 . S
N2830 C2832 1.356 . S
N2830 H2842 0.984 . S
N2830 H2843 0.985 . S
N2831 C2833 1.356 . S
N2831 H2836 0.984 . S
N2831 H2837 0.985 . S
C2832 C2826 1.379 . S
C2832 C2829 1.363 . S
C2832 N2830 1.356 . S
C2833 C2827 1.363 . S
C2833 C2828 1.379 . S
C2833 N2831 1.356 . S
N2834 C2826 1.356 . S
N2834 H2840 0.984 . S
N2834 H2841 0.984 . S
N2835 C2828 1.356 . S
N2835 H2838 0.984 . S
N2835 H2839 0.985 . S
H2836 N2831 0.984 . S
H2837 N2831 0.985 . S
H2838 N2835 0.984 . S
H2839 N2835 0.985 . S
H2840 N2834 0.984 . S
H2841 N2834 0.984 . S
H2842 N2830 0.984 . S
H2843 N2830 0.985 . S
C1225 C546 1.604 . S
C1227 C2 1.604 . S
C1243 C36 1.604 . S
C1245 C580 1.604 . S
C1261 C512 1.604 . S
C1263 C70 1.604 . S
C1279 C104 1.604 . S
C1281 C886 1.604 . S
C1297 C818 1.604 . S
C1299 C138 1.604 . S
C1315 C172 1.604 . S
C1317 C852 1.604 . S
C1333 C206 1.604 . S
C1335 C1158 1.604 . S
C1351 C240 1.604 . S
C1353 C1192 1.604 . S
C1369 C274 1.604 . S
C1371 C1124 1.604 . S
C1387 C308 1.604 . S
C1389 C682 1.604 . S
C1405 C342 1.604 . S
C1407 C614 1.604 . S
C1423 C376 1.604 . S
C1425 C648 1.604 . S
C1441 C410 1.604 . S
C1443 C954 1.604 . S
C1459 C988 1.604 . S
C1461 C444 1.604 . S
C1477 C920 1.604 . S
C1479 C478 1.604 . S
C1495 C1090 1.604 . S
C1497 C716 1.604 . S
C1513 C1022 1.604 . S
C1515 C750 1.604 . S
C1531 C784 1.604 . S
C1533 C1056 1.604 . S
C1549 C991 1.367 . S
C1551 C5 1.367 . S
C1567 C39 1.368 . S
C1569 C923 1.368 . S
C1585 C73 1.368 . S
C1587 C957 1.368 . S
C1603 C107 1.367 . S
C1605 C447 1.367 . S
C1621 C141 1.368 . S
C1623 C481 1.368 . S
C1639 C413 1.368 . S
C1641 C175 1.368 . S
C1657 C787 1.367 . S
C1659 C209 1.367 . S
C1675 C243 1.368 . S
C1677 C719 1.368 . S
C1693 C277 1.368 . S
C1695 C753 1.368 . S
C1711 C1059 1.367 . S
C1713 C311 1.367 . S
C1729 C1093 1.368 . S
C1731 C345 1.368 . S
C1747 C1025 1.368 . S
C1749 C379 1.368 . S
C1765 C515 1.368 . S
C1767 C855 1.368 . S
C1783 C549 1.368 . S
C1785 C889 1.368 . S
C1801 C583 1.368 . S
C1803 C821 1.368 . S
C1819 C617 1.368 . S
C1821 C1195 1.368 . S
C1837 C1127 1.368 . S
C1839 C651 1.368 . S
C1855 C685 1.368 . S
C1857 C1161 1.368 . S
C1873 C20 1.603 . S
C1875 C632 1.603 . S
C1891 C54 1.603 . S
C1893 C666 1.603 . S
C1909 C700 1.603 . S
C1911 C88 1.603 . S
C1927 C122 1.603 . S
C1929 C1142 1.603 . S
C1945 C156 1.603 . S
C1947 C1176 1.603 . S
C1963 C190 1.603 . S
C1965 C1210 1.603 . S
C1981 C836 1.603 . S
C1983 C224 1.603 . S
C1999 C258 1.603 . S
C2001 C870 1.603 . S
C2017 C904 1.603 . S
C2019 C292 1.603 . S
C2035 C530 1.603 . S
C2037 C326 1.603 . S
C2053 C564 1.603 . S
C2055 C360 1.603 . S
C2071 C394 1.603 . S
C2073 C598 1.603 . S
C2089 C1040 1.603 . S
C2091 C428 1.603 . S
C2107 C1074 1.603 . S
C2109 C462 1.603 . S
C2125 C496 1.603 . S
C2127 C1108 1.603 . S
C2143 C938 1.603 . S
C2145 C734 1.603 . S
C2161 C768 1.603 . S
C2163 C972 1.603 . S
C2179 C1006 1.603 . S
C2181 C802 1.603 . S
C2197 C9 1.337 . S
C2199 C271 1.383 . S
C2215 C43 1.337 . S
C2217 C305 1.383 . S
C2233 C237 1.383 . S
C2235 C77 1.337 . S
C2251 C407 1.383 . S
C2253 C111 1.337 . S
C2269 C339 1.383 . S
C2271 C145 1.337 . S
C2287 C373 1.383 . S
C2289 C179 1.337 . S
C2305 C67 1.383 . S
C2307 C213 1.337 . S
C2323 C101 1.383 . S
C2325 C247 1.337 . S
C2341 C33 1.383 . S
C2343 C281 1.337 . S
C2359 C315 1.337 . S
C2361 C203 1.383 . S
C2377 C349 1.337 . S
C2379 C135 1.383 . S
C2395 C169 1.383 . S
C2397 C383 1.337 . S
C2413 C679 1.383 . S
C2415 C417 1.337 . S
C2431 C451 1.337 . S
C2433 C713 1.383 . S
C2449 C645 1.383 . S
C2451 C485 1.337 . S
C2467 C815 1.383 . S
C2469 C519 1.337 . S
C2485 C553 1.337 . S
C2487 C747 1.383 . S
C2503 C587 1.337 . S
C2505 C781 1.383 . S
C2521 C621 1.337 . S
C2523 C475 1.383 . S
C2539 C655 1.337 . S
C2541 C509 1.383 . S
C2557 C689 1.337 . S
C2559 C441 1.383 . S
C2575 C723 1.337 . S
C2577 C611 1.383 . S
C2593 C543 1.383 . S
C2595 C757 1.337 . S
C2611 C577 1.383 . S
C2613 C791 1.337 . S
C2629 C1087 1.383 . S
C2631 C825 1.337 . S
C2647 C1121 1.383 . S
C2649 C859 1.337 . S
C2665 C1053 1.383 . S
C2667 C893 1.337 . S
C2683 C1223 1.383 . S
C2685 C927 1.337 . S
C2701 C961 1.337 . S
C2703 C1155 1.383 . S
C2719 C1189 1.383 . S
C2721 C995 1.337 . S
C2737 C883 1.383 . S
C2739 C1029 1.337 . S
C2755 C917 1.383 . S
C2757 C1063 1.337 . S
C2773 C849 1.383 . S
C2775 C1097 1.337 . S
C2791 C1131 1.337 . S
C2793 C1019 1.383 . S
C2809 C1165 1.337 . S
C2811 C951 1.383 . S
C2827 C985 1.383 . S
C2829 C1199 1.337 . S
