# Generated by pormake.
# Topology nbo, (4)-cn, num edge types: 1
# Building blocks:
#     Node 0, Type 0, BuildingBlock: MUDLON_clean_sbu_0, # of connection points: 4
#     Node 1, Type 0, BuildingBlock: MUDLON_clean_sbu_0, # of connection points: 4
#     Node 2, Type 0, BuildingBlock: MUDLON_clean_sbu_0, # of connection points: 4
#     Node 3, Type 0, BuildingBlock: MUDLON_clean_sbu_0, # of connection points: 4
#     Node 4, Type 0, BuildingBlock: MUDLON_clean_sbu_0, # of connection points: 4
#     Node 5, Type 0, BuildingBlock: MUDLON_clean_sbu_0, # of connection points: 4
#     Edge 6, Type (0, 0), BuildingBlock: FUNLAD_clean_linker_1, # of connection points: 2
#     Edge 7, Type (0, 0), BuildingBlock: FUNLAD_clean_linker_1, # of connection points: 2
#     Edge 8, Type (0, 0), BuildingBlock: FUNLAD_clean_linker_1, # of connection points: 2
#     Edge 9, Type (0, 0), BuildingBlock: FUNLAD_clean_linker_1, # of connection points: 2
#     Edge 10, Type (0, 0), BuildingBlock: FUNLAD_clean_linker_1, # of connection points: 2
#     Edge 11, Type (0, 0), BuildingBlock: FUNLAD_clean_linker_1, # of connection points: 2
#     Edge 12, Type (0, 0), BuildingBlock: FUNLAD_clean_linker_1, # of connection points: 2
#     Edge 13, Type (0, 0), BuildingBlock: FUNLAD_clean_linker_1, # of connection points: 2
#     Edge 14, Type (0, 0), BuildingBlock: FUNLAD_clean_linker_1, # of connection points: 2
#     Edge 15, Type (0, 0), BuildingBlock: FUNLAD_clean_linker_1, # of connection points: 2
#     Edge 16, Type (0, 0), BuildingBlock: FUNLAD_clean_linker_1, # of connection points: 2
#     Edge 17, Type (0, 0), BuildingBlock: FUNLAD_clean_linker_1, # of connection points: 2
# Relax obj value: 0.000
# Max RMSD: 0.009
# Mean RMSD: 0.009
data_MOF--net-nbo--node1-MUDLON_clean_sbu_0--edge1-FUNLAD_clean_linker_1
_symmetry_space_group_name_H-M    P1
_symmetry_Int_Tables_number       1
_symmetry_cell_setting            triclinic
loop_
_symmetry_equiv_pos_as_xyz
'x, y, z'
_cell_length_a     31.451363
_cell_length_b     31.515333
_cell_length_c     31.971606
_cell_angle_alpha  91.217222
_cell_angle_beta   90.706677
_cell_angle_gamma 90.828064
loop_
_atom_site_label
_atom_site_type_symbol
_atom_site_fract_x
_atom_site_fract_y
_atom_site_fract_z
_atom_type_partial_charge
Mg0 Mg 0.07736 0.99008 0.53355 0.0
C1 C 0.09596 0.08848 0.51972 0.0
O2 O 0.12331 0.07302 0.49288 0.0
C3 C 0.10424 0.89182 0.54311 0.0
O4 O 0.13188 0.90664 0.57109 0.0
C5 C 0.98091 0.99776 0.5038 0.0
O6 O 0.99895 1.01398 0.47084 0.0
O7 O 1.00414 0.98526 0.53385 0.0
O8 O 0.07342 0.06309 0.54095 0.0
O9 O 0.15061 0.99499 0.53645 0.0
C10 C 0.17618 0.97526 0.51272 0.0
O11 O 0.16117 0.94989 0.48275 0.0
O12 O 0.0797 0.91723 0.52442 0.0
Mg13 Mg 0.50845 0.0798 0.07531 0.0
C14 C 0.52849 0.17545 0.06196 0.0
O15 O 0.56213 0.15848 0.04488 0.0
C16 C 0.55304 0.99193 0.0762 0.0
O17 O 0.58663 1.01698 0.08002 0.0
C18 C 0.53636 0.07605 0.98189 0.0
O19 O 0.57371 0.07348 1.00045 0.0
O20 O 0.50322 0.07931 1.00396 0.0
O21 O 0.50009 0.15153 0.07731 0.0
O22 O 0.51354 0.07944 0.1465 0.0
C23 C 0.53691 0.10553 0.16748 0.0
O24 O 0.55935 0.13435 0.14804 0.0
O25 O 0.51633 1.00805 0.07344 0.0
Mg26 Mg 0.96283 0.55191 0.98799 0.0
C27 C 0.06066 0.53409 0.97064 0.0
O28 O 0.04581 0.50817 0.94108 0.0
C29 C 0.86787 0.52083 0.99346 0.0
O30 O 0.88545 0.48771 1.01042 0.0
C31 C 0.95819 0.51019 0.89862 0.0
O32 O 0.9499 0.47721 0.92171 0.0
O33 O 0.96597 0.54602 0.91638 0.0
O34 O 0.0352 0.55452 0.99378 0.0
O35 O 0.95853 0.55812 0.05968 0.0
C36 C 0.96823 0.52758 0.08319 0.0
O37 O 0.98068 0.49162 0.06615 0.0
O38 O 0.89107 0.55166 0.98206 0.0
Mg39 Mg 0.47569 0.5821 0.01385 0.0
C40 C 0.5104 0.66473 0.0516 0.0
O41 O 0.54681 0.64572 0.04573 0.0
C42 C 0.47661 0.49461 0.03634 0.0
O43 O 0.4791 0.4953 0.99534 0.0
C44 C 0.38501 0.58177 0.99487 0.0
O45 O 0.3876 0.5958 0.03384 0.0
O46 O 0.41904 0.57392 0.97546 0.0
O47 O 0.47583 0.64487 0.04317 0.0
O48 O 0.53387 0.57329 0.97989 0.0
C49 C 0.55188 0.60019 0.9567 0.0
O50 O 0.53318 0.63622 0.94903 0.0
O51 O 0.47416 0.52965 0.0565 0.0
Mg52 Mg 0.0293 0.49501 0.49086 0.0
C53 C 0.10255 0.56455 0.48602 0.0
O54 O 0.12136 0.54049 0.45805 0.0
C55 C 0.09432 0.42135 0.50501 0.0
O56 O 0.12332 0.45109 0.5121 0.0
C57 C 0.02974 0.48735 0.39903 0.0
O58 O 0.06634 0.47165 0.41073 0.0
O59 O 1.00419 0.50021 0.42702 0.0
O60 O 0.06871 0.55152 0.50323 0.0
O61 O 0.98491 0.50056 0.54242 0.0
C62 C 1.0032 0.49291 0.57714 0.0
O63 O 0.04292 0.48052 0.57673 0.0
O64 O 0.0564 0.4316 0.49594 0.0
Mg65 Mg 0.57885 0.03319 0.5671 0.0
C66 C 0.66041 0.98578 0.58771 0.0
O67 O 0.64452 0.98649 0.62548 0.0
C68 C 0.50833 0.96955 0.53362 0.0
O69 O 0.53807 0.95256 0.51052 0.0
C70 C 0.58396 0.06242 0.48211 0.0
O71 O 0.59202 0.02166 0.47972 0.0
O72 O 0.5775 0.07938 0.51783 0.0
O73 O 0.63833 0.99944 0.55736 0.0
O74 O 0.58094 0.06142 0.62983 0.0
C75 C 0.56047 0.04219 0.65795 0.0
O76 O 0.53844 1.00773 0.64759 0.0
O77 O 0.51786 0.99954 0.55944 0.0
H78 H 0.06397 0.14618 0.54347 0.0
C79 C 0.08968 0.13493 0.52393 0.0
H80 H 0.139 0.15203 0.48318 0.0
H81 H 0.06721 0.32601 0.42522 0.0
H82 H 0.0605 0.2829 0.36172 0.0
H83 H 0.07343 0.20593 0.36259 0.0
H84 H 0.09334 0.17159 0.42685 0.0
C85 C 0.11395 0.1632 0.50358 0.0
C86 C 0.10489 0.20973 0.50406 0.0
C87 C 0.09286 0.22939 0.46624 0.0
C88 C 0.08468 0.27372 0.46585 0.0
C89 C 0.0732 0.2924 0.42748 0.0
C90 C 0.06933 0.26806 0.39073 0.0
C91 C 0.07668 0.22474 0.39121 0.0
C92 C 0.08825 0.20546 0.42837 0.0
H93 H 0.13881 0.36831 0.51415 0.0
C94 C 0.10582 0.376 0.50779 0.0
H95 H 0.04391 0.35182 0.49521 0.0
H96 H 0.13221 0.18378 0.58097 0.0
H97 H 0.13684 0.22654 0.64481 0.0
H98 H 0.11794 0.30223 0.64505 0.0
H99 H 0.09508 0.33583 0.58127 0.0
C100 C 0.07673 0.34442 0.50272 0.0
C101 C 0.0882 0.29855 0.50329 0.0
C102 C 0.10022 0.27898 0.54116 0.0
C103 C 0.10936 0.23476 0.54139 0.0
C104 C 0.12329 0.2167 0.57925 0.0
C105 C 0.12636 0.24097 0.61611 0.0
C106 C 0.11585 0.28362 0.61622 0.0
C107 C 0.10293 0.30257 0.5793 0.0
H108 H 0.91575 1.00746 0.47954 0.0
C109 C 0.93389 0.99534 0.50575 0.0
H110 H 0.93071 0.96882 0.56576 0.0
H111 H 0.74948 0.04628 0.60229 0.0
H112 H 0.79469 0.09107 0.64683 0.0
H113 H 0.87276 0.0859 0.64409 0.0
H114 H 0.90606 0.03612 0.59636 0.0
C115 C 0.91305 0.97972 0.53871 0.0
C116 C 0.86564 0.98099 0.54131 0.0
C117 C 0.84649 1.00928 0.57032 0.0
C118 C 0.80135 1.01153 0.57259 0.0
C119 C 0.7834 0.04191 0.60024 0.0
C120 C 0.80904 0.06819 0.6258 0.0
C121 C 0.85299 0.06533 0.62421 0.0
C122 C 0.87168 0.03648 0.59673 0.0
H123 H 0.72305 0.96332 0.60911 0.0
C124 C 0.70594 0.97588 0.58245 0.0
H125 H 0.7113 0.99981 0.52144 0.0
H126 H 0.89167 0.92111 0.48427 0.0
H127 H 0.84643 0.87614 0.43956 0.0
H128 H 0.76831 0.88022 0.44327 0.0
H129 H 0.73487 0.92917 0.49192 0.0
C130 C 0.72783 0.98714 0.54837 0.0
C131 C 0.77524 0.98448 0.54667 0.0
C132 C 0.79441 0.95617 0.5177 0.0
C133 C 0.83957 0.95419 0.51519 0.0
C134 C 0.85765 0.92466 0.48683 0.0
C135 C 0.83203 0.89846 0.46114 0.0
C136 C 0.78804 0.90073 0.46325 0.0
C137 C 0.76926 0.92905 0.49124 0.0
H138 H 0.14948 0.61769 0.48334 0.0
C139 C 0.11836 0.60843 0.49474 0.0
H140 H 0.06276 0.62814 0.52538 0.0
H141 H 0.12247 0.79105 0.62215 0.0
H142 H 0.11157 0.74242 0.67881 0.0
H143 H 0.09956 0.66595 0.66454 0.0
H144 H 0.09814 0.63766 0.59345 0.0
C145 C 0.09376 0.63755 0.51378 0.0
C146 C 0.10728 0.68273 0.52178 0.0
C147 C 0.10928 0.69875 0.5636 0.0
C148 C 0.11707 0.74279 0.57189 0.0
C149 C 0.1174 0.75788 0.61397 0.0
C150 C 0.1111 0.7303 0.64687 0.0
C151 C 0.10428 0.68726 0.63884 0.0
C152 C 0.10337 0.67149 0.59781 0.0
H153 H 0.07452 0.83483 0.51316 0.0
C154 C 0.10085 0.84582 0.53311 0.0
H155 H 0.15498 0.82804 0.56786 0.0
H156 H 0.10185 0.66422 0.43742 0.0
H157 H 0.11755 0.7119 0.3812 0.0
H158 H 0.13882 0.78638 0.39611 0.0
H159 H 0.14323 0.81385 0.46744 0.0
C160 C 0.12894 0.8175 0.54735 0.0
C161 C 0.12351 0.77089 0.53837 0.0
C162 C 0.12388 0.75449 0.49664 0.0
C163 C 0.11434 0.71074 0.48821 0.0
C164 C 0.11117 0.69639 0.44597 0.0
C165 C 0.11979 0.72357 0.41325 0.0
C166 C 0.13155 0.76555 0.42163 0.0
C167 C 0.13362 0.781 0.46274 0.0
H168 H 0.45609 0.93157 0.5036 0.0
C169 C 0.46322 0.95717 0.52602 0.0
H170 H 0.438 1.00599 0.56409 0.0
H171 H 0.26793 0.02602 0.46195 0.0
H172 H 0.30802 0.08745 0.43917 0.0
H173 H 0.38404 0.09658 0.45762 0.0
H174 H 0.42045 0.04433 0.49897 0.0
C175 C 0.43111 0.97897 0.54329 0.0
C176 C 0.3858 0.97161 0.53031 0.0
C177 C 0.36476 1.00271 0.50652 0.0
C178 C 0.32081 0.99759 0.49607 0.0
C179 C 0.301 0.02869 0.47146 0.0
C180 C 0.3237 0.06402 0.45797 0.0
C181 C 0.3665 0.06916 0.46836 0.0
C182 C 0.38697 0.03896 0.49225 0.0
H183 H 0.2333 1.00425 0.54313 0.0
C184 C 0.2225 0.98055 0.52002 0.0
H185 H 0.24113 0.93151 0.4783 0.0
H186 H 0.4159 0.90643 0.57699 0.0
H187 H 0.37608 0.84432 0.59856 0.0
H188 H 0.30023 0.83494 0.57951 0.0
H189 H 0.26361 0.88776 0.53896 0.0
C190 C 0.25136 0.95663 0.50013 0.0
C191 C 0.29777 0.96152 0.50971 0.0
C192 C 0.31904 0.92991 0.53258 0.0
C193 C 0.36299 0.93509 0.54318 0.0
C194 C 0.38286 0.90375 0.56739 0.0
C195 C 0.36032 0.86801 0.58014 0.0
C196 C 0.3176 0.86274 0.56944 0.0
C197 C 0.29699 0.89327 0.54608 0.0
H198 H 0.5737 0.12092 0.44609 0.0
C199 C 0.58021 0.08719 0.44363 0.0
H200 H 0.59066 0.03454 0.40328 0.0
H201 H 0.48847 0.14736 0.26646 0.0
H202 H 0.42763 0.14224 0.31224 0.0
H203 H 0.43502 0.11239 0.38265 0.0
H204 H 0.50327 0.08837 0.408 0.0
C205 C 0.58319 0.06805 0.40582 0.0
C206 C 0.57888 0.09097 0.36592 0.0
C207 C 0.53842 0.10414 0.3515 0.0
C208 C 0.53372 0.11965 0.31026 0.0
C209 C 0.49337 0.13387 0.29695 0.0
C210 C 0.45828 0.13136 0.323 0.0
C211 C 0.46248 0.11468 0.36268 0.0
C212 C 0.50196 0.10112 0.37691 0.0
H213 H 0.5238 0.07468 0.22716 0.0
C214 C 0.54003 0.1015 0.21321 0.0
H215 H 0.58022 0.15499 0.22419 0.0
H216 H 0.66142 0.07312 0.38579 0.0
H217 H 0.7221 0.07811 0.33986 0.0
H218 H 0.71346 0.10244 0.26745 0.0
H219 H 0.64424 0.12212 0.24059 0.0
C220 C 0.56295 0.12864 0.23774 0.0
C221 C 0.56903 0.12025 0.28307 0.0
C222 C 0.60988 0.10949 0.29834 0.0
C223 C 0.61478 0.0949 0.33986 0.0
C224 C 0.65584 0.08385 0.35428 0.0
C225 C 0.69096 0.08669 0.32831 0.0
C226 C 0.6861 0.10044 0.28757 0.0
C227 C 0.64613 0.11167 0.27255 0.0
H228 H 0.95664 0.56374 0.14202 0.0
C229 C 0.96659 0.53327 0.12925 0.0
H230 H 0.98662 0.47143 0.14302 0.0
H231 H 0.03743 0.57028 0.32198 0.0
H232 H 0.08664 0.61251 0.28171 0.0
H233 H 0.08735 0.60628 0.20468 0.0
H234 H 0.03843 0.55853 0.16744 0.0
C235 C 0.97791 0.50241 0.15547 0.0
C236 C 0.9769 0.50798 0.20199 0.0
C237 C 1.00664 0.53533 0.22331 0.0
C238 C 1.00758 0.53753 0.26788 0.0
C239 C 0.03645 0.56623 0.28829 0.0
C240 C 0.06469 0.59084 0.26555 0.0
C241 C 0.06498 0.58745 0.22218 0.0
C242 C 0.03648 0.56002 0.20115 0.0
H243 H 0.04481 0.47909 0.33254 0.0
C244 C 0.0207 0.49082 0.35378 0.0
H245 H 0.9604 0.51938 0.35786 0.0
H246 H 0.91394 0.45481 0.17132 0.0
H247 H 0.86538 0.41211 0.2119 0.0
H248 H 0.86876 0.41424 0.28905 0.0
H249 H 0.9206 0.45924 0.32616 0.0
C250 C 0.98562 0.50836 0.3376 0.0
C251 C 0.98014 0.51109 0.29119 0.0
C252 C 0.94945 0.48498 0.26994 0.0
C253 C 0.94784 0.48342 0.22537 0.0
C254 C 0.91693 0.45683 0.20506 0.0
C255 C 0.88879 0.43225 0.22797 0.0
C256 C 0.89067 0.43347 0.27142 0.0
C257 C 0.92059 0.45942 0.29232 0.0
H258 H 0.58587 0.08256 0.71027 0.0
C259 C 0.56407 0.05652 0.70215 0.0
H260 H 0.5216 1.01005 0.72452 0.0
H261 H 0.59492 0.99537 0.90571 0.0
H262 H 0.61575 0.92832 0.87429 0.0
H263 H 0.60769 0.91497 0.79828 0.0
H264 H 0.57835 0.96843 0.75332 0.0
C265 C 0.54247 0.0369 0.73241 0.0
C266 C 0.55001 0.04691 0.77767 0.0
C267 C 0.56803 1.0156 0.80344 0.0
C268 C 0.5735 0.02361 0.84713 0.0
C269 C 0.59063 0.99131 0.87223 0.0
C270 C 0.60268 0.95258 0.85462 0.0
C271 C 0.59807 0.94504 0.81185 0.0
C272 C 0.58102 0.97602 0.78642 0.0
H273 H 0.5005 0.07281 0.92207 0.0
C274 C 0.53227 0.07341 0.93589 0.0
H275 H 0.59812 0.06977 0.92448 0.0
H276 H 0.5114 0.1127 0.73805 0.0
H277 H 0.49329 0.18082 0.76903 0.0
H278 H 0.50766 0.19658 0.84383 0.0
H279 H 0.53949 0.14396 0.88825 0.0
C280 C 0.56626 0.07051 0.91098 0.0
C281 C 0.56135 0.0631 0.86499 0.0
C282 C 0.54438 0.09488 0.83908 0.0
C283 C 0.53786 0.08647 0.79552 0.0
C284 C 0.51858 0.11789 0.77092 0.0
C285 C 0.50778 0.15709 0.78838 0.0
C286 C 0.51574 0.16592 0.83052 0.0
C287 C 0.53381 0.13532 0.85572 0.0
H288 H 0.95245 0.51894 0.61764 0.0
C289 C 0.98248 0.50233 0.61757 0.0
H290 H 0.0326 0.47762 0.65353 0.0
H291 H 0.02913 0.58267 0.81726 0.0
H292 H 0.09112 0.6126 0.78404 0.0
H293 H 0.10585 0.59667 0.7098 0.0
H294 H 0.05886 0.55026 0.66849 0.0
C295 C 1.00199 0.49319 0.65398 0.0
C296 C 0.98751 0.50895 0.69569 0.0
C297 C 1.01441 0.53742 0.71913 0.0
C298 C 1.00528 0.54751 0.76164 0.0
C299 C 0.0339 0.57451 0.78465 0.0
C300 C 0.06974 0.59191 0.76599 0.0
C301 C 0.07808 0.58288 0.72423 0.0
C302 C 0.05092 0.55598 0.70094 0.0
H303 H 0.96264 0.47201 0.84039 0.0
C304 C 0.96109 0.50432 0.85281 0.0
H305 H 0.9607 0.56932 0.83856 0.0
H306 H 0.92884 0.45357 0.66002 0.0
H307 H 0.86344 0.4288 0.69121 0.0
H308 H 0.8441 0.45198 0.76258 0.0
H309 H 0.89071 0.49919 0.80359 0.0
C310 C 0.96192 0.53693 0.82634 0.0
C311 C 0.96867 0.52986 0.78052 0.0
C312 C 0.93983 0.50433 0.75598 0.0
C313 C 0.94985 0.49285 0.71391 0.0
C314 C 0.92209 0.46467 0.69141 0.0
C315 C 0.88447 0.45005 0.70903 0.0
C316 C 0.87366 0.46296 0.74927 0.0
C317 C 0.90087 0.48978 0.7726 0.0
H318 H 0.11721 0.55928 1.00443 0.0
C319 C 0.10668 0.54034 0.9773 0.0
H320 H 0.126 0.50732 0.92254 0.0
H321 H 0.29539 0.62385 0.93045 0.0
H322 H 0.25888 0.65329 0.87073 0.0
H323 H 0.18685 0.6281 0.85005 0.0
H324 H 0.15077 0.57346 0.88929 0.0
C325 C 0.13565 0.52478 0.95084 0.0
C326 C 0.18155 0.53406 0.95851 0.0
C327 C 0.20276 0.56479 0.93433 0.0
C328 C 0.24461 0.57872 0.94581 0.0
C329 C 0.26411 0.61124 0.92254 0.0
C330 C 0.24339 0.62861 0.88829 0.0
C331 C 0.20281 0.61447 0.87668 0.0
C332 C 0.18247 0.58311 0.89945 0.0
H333 H 0.34235 0.55549 0.94488 0.0
C334 C 0.34333 0.57111 0.97552 0.0
H335 H 0.30812 0.59221 0.02749 0.0
H336 H 0.152 0.46988 1.0071 0.0
H337 H 0.18938 0.43805 0.06518 0.0
H338 H 0.26212 0.46173 0.08501 0.0
H339 H 0.29789 0.51731 0.04695 0.0
C340 C 0.3071 0.57797 0.99623 0.0
C341 C 0.26535 0.56098 0.98085 0.0
C342 C 0.24502 0.52832 1.00339 0.0
C343 C 0.2031 0.51476 0.99212 0.0
C344 C 0.18358 0.48188 0.01491 0.0
C345 C 0.20476 0.46317 0.04813 0.0
C346 C 0.24571 0.47649 0.05928 0.0
C347 C 0.26581 0.50858 0.03726 0.0
H348 H 0.47388 0.45356 0.09188 0.0
C349 C 0.4771 0.45378 0.05809 0.0
H350 H 0.48387 0.41732 1.00247 0.0
H351 H 0.55634 0.27234 0.12641 0.0
H352 H 0.61341 0.32219 0.14519 0.0
H353 H 0.61116 0.39641 0.1223 0.0
H354 H 0.5516 0.42145 0.08132 0.0
C355 C 0.48182 0.41718 0.03638 0.0
C356 C 0.48115 0.37485 0.05591 0.0
C357 C 0.51669 0.36078 0.07925 0.0
C358 C 0.51888 0.31756 0.09095 0.0
C359 C 0.55397 0.30445 0.11538 0.0
C360 C 0.58675 0.33279 0.1266 0.0
C361 C 0.58542 0.37461 0.11382 0.0
C362 C 0.55093 0.38861 0.09035 0.0
H363 H 0.54627 0.24021 0.04389 0.0
C364 C 0.52368 0.22184 0.06186 0.0
H365 H 0.4692 0.2238 0.09983 0.0
H366 H 0.40601 0.39324 0.01691 0.0
H367 H 0.34868 0.34349 0.99885 0.0
H368 H 0.35378 0.26792 0.01663 0.0
H369 H 0.41599 0.24168 0.05274 0.0
C370 C 0.49243 0.24182 0.08233 0.0
C371 C 0.48647 0.28829 0.07778 0.0
C372 C 0.44958 0.30305 0.05714 0.0
C373 C 0.4469 0.34644 0.04631 0.0
C374 C 0.40992 0.36041 0.02528 0.0
C375 C 0.37673 0.33225 0.01488 0.0
C376 C 0.37958 0.28972 0.02494 0.0
C377 C 0.41552 0.27508 0.04572 0.0
H378 H 0.80207 0.49783 1.00267 0.0
C379 C 0.82131 0.52266 0.98884 0.0
H380 H 0.82115 0.57865 0.95342 0.0
H381 H 0.63477 0.54355 0.88124 0.0
H382 H 0.6766 0.52723 0.81971 0.0
H383 H 0.75489 0.52447 0.82438 0.0
H384 H 0.79187 0.53795 0.89057 0.0
C385 C 0.80237 0.55444 0.96874 0.0
C386 C 0.75536 0.55705 0.96582 0.0
C387 C 0.7344 0.54967 0.92678 0.0
C388 C 0.6893 0.55135 0.92402 0.0
C389 C 0.669 0.54299 0.8849 0.0
C390 C 0.69262 0.53352 0.8494 0.0
C391 C 0.73671 0.53196 0.85204 0.0
C392 C 0.75753 0.53983 0.8902 0.0
H393 H 0.61379 0.6206 0.9313 0.0
C394 C 0.59689 0.59453 0.94577 0.0
H395 H 0.60203 0.53508 0.97465 0.0
H396 H 0.78603 0.57794 0.04445 0.0
H397 H 0.74425 0.59464 0.10563 0.0
H398 H 0.66591 0.59575 0.10122 0.0
H399 H 0.62897 0.58048 0.03552 0.0
C400 C 0.61837 0.56051 0.95861 0.0
C401 C 0.66548 0.5606 0.96028 0.0
C402 C 0.68648 0.56878 0.99918 0.0
C403 C 0.73154 0.56746 1.00188 0.0
C404 C 0.75181 0.57733 0.04079 0.0
C405 C 0.7282 0.58726 0.07616 0.0
C406 C 0.68412 0.58793 0.07367 0.0
C407 C 0.66333 0.57896 0.03573 0.0
H408 H 0.47814 0.72471 0.06662 0.0
C409 C 0.5091 0.71033 0.06271 0.0
H410 H 0.57525 0.72145 0.05825 0.0
H411 H 0.55081 0.90905 0.99649 0.0
H412 H 0.57608 0.87379 0.93367 0.0
H413 H 0.58584 0.79626 0.93113 0.0
H414 H 0.57024 0.75353 0.99133 0.0
C415 C 0.54428 0.73504 0.06419 0.0
C416 C 0.54121 0.7821 0.06723 0.0
C417 C 0.55142 0.80674 0.032 0.0
C418 C 0.54622 0.8515 0.0336 0.0
C419 C 0.55509 0.8751 0.9974 0.0
C420 C 0.56939 0.85522 0.96099 0.0
C421 C 0.57485 0.81157 0.95955 0.0
C422 C 0.56586 0.78743 0.99444 0.0
H423 H 0.59062 0.93332 0.07461 0.0
C424 C 0.55847 0.94553 0.07443 0.0
H425 H 0.49286 0.92987 0.07362 0.0
H426 H 0.52292 0.74483 0.14162 0.0
H427 H 0.49778 0.78018 0.20457 0.0
H428 H 0.4876 0.85766 0.20694 0.0
H429 H 0.50274 0.90031 0.14643 0.0
C430 C 0.52522 0.9183 0.07238 0.0
C431 C 0.53143 0.8716 0.07066 0.0
C432 C 0.52173 0.84705 0.10603 0.0
C433 C 0.52699 0.80229 0.10447 0.0
C434 C 0.51843 0.77876 0.14073 0.0
C435 C 0.50424 0.79869 0.17717 0.0
C436 C 0.49856 0.84232 0.17852 0.0
C437 C 0.50727 0.86641 0.14352 0.0
loop_
_geom_bond_atom_site_label_1
_geom_bond_atom_site_label_2
_geom_bond_distance
_geom_bond_site_symmetry_2
_ccdc_geom_bond_type
Mg0 O7 2.141 1_455 S
Mg0 O8 2.048 . S
Mg0 O9 2.048 . S
Mg0 O12 2.141 1_545 S
C1 O2 1.313 . S
C1 O8 1.195 . S
O2 C1 1.313 . S
C3 O4 1.245 . S
C3 O12 1.289 . S
O4 C3 1.245 . S
C5 O6 1.245 . S
C5 O7 1.289 . S
O6 C5 1.245 . S
O7 Mg0 2.141 1_655 S
O7 C5 1.289 . S
O8 Mg0 2.048 . S
O8 C1 1.195 . S
O9 Mg0 2.048 . S
O9 C10 1.195 . S
C10 O9 1.195 . S
C10 O11 1.313 . S
O11 C10 1.313 . S
O12 Mg0 2.141 1_565 S
O12 C3 1.289 . S
Mg13 O20 2.141 1_554 S
Mg13 O21 2.048 . S
Mg13 O22 2.048 . S
Mg13 O25 2.141 1_545 S
C14 O15 1.313 . S
C14 O21 1.195 . S
O15 C14 1.313 . S
C16 O17 1.245 . S
C16 O25 1.289 . S
O17 C16 1.245 . S
C18 O19 1.245 . S
C18 O20 1.289 . S
O19 C18 1.245 . S
O20 Mg13 2.141 1_556 S
O20 C18 1.289 . S
O21 Mg13 2.048 . S
O21 C14 1.195 . S
O22 Mg13 2.048 . S
O22 C23 1.195 . S
C23 O22 1.195 . S
C23 O24 1.313 . S
O24 C23 1.313 . S
O25 Mg13 2.141 1_565 S
O25 C16 1.289 . S
Mg26 O33 2.141 1_554 S
Mg26 O34 2.048 . S
Mg26 O35 2.048 . S
Mg26 O38 2.141 1_455 S
C27 O28 1.313 . S
C27 O34 1.195 . S
O28 C27 1.313 . S
C29 O30 1.245 . S
C29 O38 1.289 . S
O30 C29 1.245 . S
C31 O32 1.245 . S
C31 O33 1.289 . S
O32 C31 1.245 . S
O33 Mg26 2.141 1_556 S
O33 C31 1.289 . S
O34 Mg26 2.048 . S
O34 C27 1.195 . S
O35 Mg26 2.048 . S
O35 C36 1.195 . S
C36 O35 1.195 . S
C36 O37 1.313 . S
O37 C36 1.313 . S
O38 Mg26 2.141 1_655 S
O38 C29 1.289 . S
Mg39 O46 2.141 . S
Mg39 O47 2.048 . S
Mg39 O48 2.048 . S
Mg39 O51 2.141 . S
C40 O41 1.313 1_554 S
C40 O47 1.195 . S
O41 C40 1.313 1_556 S
C42 O43 1.245 1_554 S
C42 O51 1.289 . S
O43 C42 1.245 1_556 S
C44 O45 1.245 1_554 S
C44 O46 1.289 . S
O45 C44 1.245 1_556 S
O46 Mg39 2.141 . S
O46 C44 1.289 . S
O47 Mg39 2.048 . S
O47 C40 1.195 . S
O48 Mg39 2.048 . S
O48 C49 1.195 . S
C49 O48 1.195 . S
C49 O50 1.313 1_554 S
O50 C49 1.313 1_556 S
O51 Mg39 2.141 . S
O51 C42 1.289 . S
Mg52 O59 2.141 . S
Mg52 O60 2.048 . S
Mg52 O61 2.048 . S
Mg52 O64 2.141 . S
C53 O54 1.313 . S
C53 O60 1.195 1_455 S
O54 C53 1.313 . S
C55 O56 1.245 . S
C55 O64 1.289 1_455 S
O56 C55 1.245 . S
C57 O58 1.245 . S
C57 O59 1.289 1_455 S
O58 C57 1.245 . S
O59 Mg52 2.141 . S
O59 C57 1.289 1_655 S
O60 Mg52 2.048 . S
O60 C53 1.195 1_655 S
O61 Mg52 2.048 . S
O61 C62 1.195 1_655 S
C62 O61 1.195 1_455 S
C62 O63 1.313 . S
O63 C62 1.313 . S
O64 Mg52 2.141 . S
O64 C55 1.289 1_655 S
Mg65 O72 2.141 . S
Mg65 O73 2.048 . S
Mg65 O74 2.048 . S
Mg65 O77 2.141 . S
C66 O67 1.313 1_545 S
C66 O73 1.195 . S
O67 C66 1.313 1_565 S
C68 O69 1.245 1_545 S
C68 O77 1.289 . S
O69 C68 1.245 1_565 S
C70 O71 1.245 1_545 S
C70 O72 1.289 . S
O71 C70 1.245 1_565 S
O72 Mg65 2.141 . S
O72 C70 1.289 . S
O73 Mg65 2.048 . S
O73 C66 1.195 . S
O74 Mg65 2.048 . S
O74 C75 1.195 . S
C75 O74 1.195 . S
C75 O76 1.313 1_545 S
O76 C75 1.313 1_565 S
O77 Mg65 2.141 . S
O77 C68 1.289 . S
H78 C79 0.951 1_655 S
C79 H78 0.951 1_455 S
C79 C85 1.265 . S
H80 C85 0.950 . S
H81 C89 0.949 . S
H82 C90 0.950 . S
H83 C91 0.951 . S
H84 C92 0.951 . S
C85 C79 1.265 . S
C85 H80 0.950 . S
C85 C86 1.478 . S
C86 C85 1.478 . S
C86 C87 1.397 . S
C86 C103 1.394 . S
C87 C86 1.397 . S
C87 C88 1.438 . S
C87 C92 1.429 . S
C88 C87 1.438 . S
C88 C89 1.428 . S
C88 C101 1.394 . S
C89 H81 0.949 . S
C89 C88 1.428 . S
C89 C90 1.345 . S
C90 H82 0.950 . S
C90 C89 1.345 . S
C90 C91 1.424 . S
C91 H83 0.951 . S
C91 C90 1.424 . S
C91 C92 1.347 . S
C92 H84 0.951 . S
C92 C87 1.429 . S
C92 C91 1.347 . S
H93 C94 0.951 . S
C94 H93 0.951 . S
C94 C100 1.265 1_455 S
H95 C100 0.950 . S
H96 C104 0.951 . S
H97 C105 0.950 . S
H98 C106 0.951 . S
H99 C107 0.951 . S
C100 C94 1.265 1_655 S
C100 H95 0.950 . S
C100 C101 1.478 1_655 S
C101 C88 1.394 . S
C101 C100 1.478 1_455 S
C101 C102 1.400 . S
C102 C101 1.400 . S
C102 C103 1.441 . S
C102 C107 1.423 1_455 S
C103 C86 1.394 . S
C103 C102 1.441 . S
C103 C104 1.429 . S
C104 H96 0.951 . S
C104 C103 1.429 . S
C104 C105 1.342 1_455 S
C105 H97 0.950 . S
C105 C104 1.342 1_655 S
C105 C106 1.424 . S
C106 H98 0.951 . S
C106 C105 1.424 . S
C106 C107 1.347 . S
C107 H99 0.951 . S
C107 C102 1.423 1_655 S
C107 C106 1.347 . S
H108 C109 0.951 . S
C109 H108 0.951 . S
C109 C115 1.265 1_545 S
H110 C115 0.950 . S
H111 C119 0.949 . S
H112 C120 0.950 . S
H113 C121 0.951 . S
H114 C122 0.951 . S
C115 C109 1.265 1_565 S
C115 H110 0.950 . S
C115 C116 1.478 1_565 S
C116 C115 1.478 1_545 S
C116 C117 1.397 . S
C116 C133 1.394 . S
C117 C116 1.397 . S
C117 C118 1.438 . S
C117 C122 1.429 . S
C118 C117 1.438 . S
C118 C119 1.428 . S
C118 C131 1.394 . S
C119 H111 0.949 . S
C119 C118 1.428 . S
C119 C120 1.345 . S
C120 H112 0.950 . S
C120 C119 1.345 . S
C120 C121 1.424 . S
C121 H113 0.951 . S
C121 C120 1.424 . S
C121 C122 1.347 . S
C122 H114 0.951 . S
C122 C117 1.429 . S
C122 C121 1.347 . S
H123 C124 0.951 1_565 S
C124 H123 0.951 1_545 S
C124 C130 1.265 . S
H125 C130 0.950 . S
H126 C134 0.949 1_565 S
H127 C135 0.950 . S
H128 C136 0.951 . S
H129 C137 0.951 . S
C130 C124 1.265 . S
C130 H125 0.950 . S
C130 C131 1.478 . S
C131 C118 1.394 . S
C131 C130 1.478 . S
C131 C132 1.397 . S
C132 C131 1.397 . S
C132 C133 1.438 . S
C132 C137 1.429 . S
C133 C116 1.394 . S
C133 C132 1.438 . S
C133 C134 1.428 . S
C134 H126 0.949 1_545 S
C134 C133 1.428 . S
C134 C135 1.345 . S
C135 H127 0.950 . S
C135 C134 1.345 . S
C135 C136 1.424 . S
C136 H128 0.951 . S
C136 C135 1.424 . S
C136 C137 1.347 . S
C137 H129 0.951 . S
C137 C132 1.429 . S
C137 C136 1.347 . S
H138 C139 0.951 . S
C139 H138 0.951 . S
C139 C145 1.265 1_455 S
H140 C145 0.950 . S
H141 C149 0.949 1_455 S
H142 C150 0.950 . S
H143 C151 0.951 . S
H144 C152 0.951 . S
C145 C139 1.265 1_655 S
C145 H140 0.950 . S
C145 C146 1.478 1_655 S
C146 C145 1.478 1_455 S
C146 C147 1.397 1_455 S
C146 C163 1.394 . S
C147 C146 1.397 1_655 S
C147 C148 1.438 1_655 S
C147 C152 1.429 . S
C148 C147 1.438 1_455 S
C148 C149 1.428 1_455 S
C148 C161 1.394 . S
C149 H141 0.949 1_655 S
C149 C148 1.428 1_655 S
C149 C150 1.345 . S
C150 H142 0.950 . S
C150 C149 1.345 . S
C150 C151 1.424 . S
C151 H143 0.951 . S
C151 C150 1.424 . S
C151 C152 1.347 . S
C152 H144 0.951 . S
C152 C147 1.429 . S
C152 C151 1.347 . S
H153 C154 0.951 1_655 S
C154 H153 0.951 1_455 S
C154 C160 1.265 . S
H155 C160 0.950 . S
H156 C164 0.949 . S
H157 C165 0.950 . S
H158 C166 0.951 . S
H159 C167 0.951 . S
C160 C154 1.265 . S
C160 H155 0.950 . S
C160 C161 1.478 . S
C161 C148 1.394 . S
C161 C160 1.478 . S
C161 C162 1.397 . S
C162 C161 1.397 . S
C162 C163 1.438 . S
C162 C167 1.429 . S
C163 C146 1.394 . S
C163 C162 1.438 . S
C163 C164 1.428 . S
C164 H156 0.949 . S
C164 C163 1.428 . S
C164 C165 1.345 . S
C165 H157 0.950 . S
C165 C164 1.345 . S
C165 C166 1.424 . S
C166 H158 0.951 . S
C166 C165 1.424 . S
C166 C167 1.347 . S
C167 H159 0.951 . S
C167 C162 1.429 . S
C167 C166 1.347 . S
H168 C169 0.951 1_565 S
C169 H168 0.951 1_545 S
C169 C175 1.265 . S
H170 C175 0.950 . S
H171 C179 0.949 . S
H172 C180 0.950 . S
H173 C181 0.951 . S
H174 C182 0.951 . S
C175 C169 1.265 . S
C175 H170 0.950 . S
C175 C176 1.478 . S
C176 C175 1.478 . S
C176 C177 1.397 . S
C176 C193 1.394 1_545 S
C177 C176 1.397 . S
C177 C178 1.438 . S
C177 C182 1.429 . S
C178 C177 1.438 . S
C178 C179 1.428 . S
C178 C191 1.394 . S
C179 H171 0.949 . S
C179 C178 1.428 . S
C179 C180 1.345 . S
C180 H172 0.950 . S
C180 C179 1.345 . S
C180 C181 1.424 . S
C181 H173 0.951 . S
C181 C180 1.424 . S
C181 C182 1.347 . S
C182 H174 0.951 . S
C182 C177 1.429 . S
C182 C181 1.347 . S
H183 C184 0.951 . S
C184 H183 0.951 . S
C184 C190 1.265 . S
H185 C190 0.950 1_565 S
H186 C194 0.949 . S
H187 C195 0.950 . S
H188 C196 0.951 . S
H189 C197 0.951 . S
C190 C184 1.265 . S
C190 H185 0.950 1_545 S
C190 C191 1.478 . S
C191 C178 1.394 . S
C191 C190 1.478 . S
C191 C192 1.397 1_545 S
C192 C191 1.397 1_565 S
C192 C193 1.438 . S
C192 C197 1.429 . S
C193 C176 1.394 1_565 S
C193 C192 1.438 . S
C193 C194 1.428 . S
C194 H186 0.949 . S
C194 C193 1.428 . S
C194 C195 1.345 . S
C195 H187 0.950 . S
C195 C194 1.345 . S
C195 C196 1.424 . S
C196 H188 0.951 . S
C196 C195 1.424 . S
C196 C197 1.347 . S
C197 H189 0.951 . S
C197 C192 1.429 . S
C197 C196 1.347 . S
H198 C199 0.951 . S
C199 H198 0.951 . S
C199 C205 1.265 . S
H200 C205 0.950 . S
H201 C209 0.949 . S
H202 C210 0.950 . S
H203 C211 0.951 . S
H204 C212 0.951 . S
C205 C199 1.265 . S
C205 H200 0.950 . S
C205 C206 1.478 . S
C206 C205 1.478 . S
C206 C207 1.397 . S
C206 C223 1.394 1_545 S
C207 C206 1.397 . S
C207 C208 1.438 . S
C207 C212 1.429 . S
C208 C207 1.438 . S
C208 C209 1.428 . S
C208 C221 1.394 . S
C209 H201 0.949 . S
C209 C208 1.428 . S
C209 C210 1.345 . S
C210 H202 0.950 . S
C210 C209 1.345 . S
C210 C211 1.424 . S
C211 H203 0.951 . S
C211 C210 1.424 . S
C211 C212 1.347 . S
C212 H204 0.951 . S
C212 C207 1.429 . S
C212 C211 1.347 . S
H213 C214 0.951 . S
C214 H213 0.951 . S
C214 C220 1.265 . S
H215 C220 0.950 . S
H216 C224 0.949 . S
H217 C225 0.950 . S
H218 C226 0.951 . S
H219 C227 0.951 . S
C220 C214 1.265 . S
C220 H215 0.950 . S
C220 C221 1.478 . S
C221 C208 1.394 . S
C221 C220 1.478 . S
C221 C222 1.397 1_545 S
C222 C221 1.397 1_565 S
C222 C223 1.438 . S
C222 C227 1.429 . S
C223 C206 1.394 1_565 S
C223 C222 1.438 . S
C223 C224 1.428 . S
C224 H216 0.949 . S
C224 C223 1.428 . S
C224 C225 1.345 . S
C225 H217 0.950 . S
C225 C224 1.345 . S
C225 C226 1.424 . S
C226 H218 0.951 . S
C226 C225 1.424 . S
C226 C227 1.347 . S
C227 H219 0.951 . S
C227 C222 1.429 . S
C227 C226 1.347 . S
H228 C229 0.951 1_655 S
C229 H228 0.951 1_455 S
C229 C235 1.265 . S
H230 C235 0.950 . S
H231 C239 0.949 . S
H232 C240 0.950 . S
H233 C241 0.951 . S
H234 C242 0.951 . S
C235 C229 1.265 . S
C235 H230 0.950 . S
C235 C236 1.478 . S
C236 C235 1.478 . S
C236 C237 1.397 . S
C236 C253 1.394 . S
C237 C236 1.397 . S
C237 C238 1.438 . S
C237 C242 1.429 . S
C238 C237 1.438 . S
C238 C239 1.428 . S
C238 C251 1.394 . S
C239 H231 0.949 . S
C239 C238 1.428 . S
C239 C240 1.345 . S
C240 H232 0.950 . S
C240 C239 1.345 . S
C240 C241 1.424 . S
C241 H233 0.951 . S
C241 C240 1.424 . S
C241 C242 1.347 . S
C242 H234 0.951 . S
C242 C237 1.429 . S
C242 C241 1.347 . S
H243 C244 0.951 . S
C244 H243 0.951 . S
C244 C250 1.265 1_455 S
H245 C250 0.950 . S
H246 C254 0.949 1_455 S
H247 C255 0.950 . S
H248 C256 0.951 . S
H249 C257 0.951 . S
C250 C244 1.265 1_655 S
C250 H245 0.950 . S
C250 C251 1.478 1_655 S
C251 C238 1.394 . S
C251 C250 1.478 1_455 S
C251 C252 1.395 1_455 S
C252 C251 1.395 1_655 S
C252 C253 1.436 1_655 S
C252 C257 1.433 . S
C253 C236 1.394 . S
C253 C252 1.436 1_455 S
C253 C254 1.428 1_455 S
C254 H246 0.949 1_655 S
C254 C253 1.428 1_655 S
C254 C255 1.345 . S
C255 H247 0.950 . S
C255 C254 1.345 . S
C255 C256 1.424 . S
C256 H248 0.951 . S
C256 C255 1.424 . S
C256 C257 1.347 . S
C257 H249 0.951 . S
C257 C252 1.433 . S
C257 C256 1.347 . S
H258 C259 0.951 . S
C259 H258 0.951 . S
C259 C265 1.265 . S
H260 C265 0.950 . S
H261 C269 0.949 . S
H262 C270 0.950 . S
H263 C271 0.951 . S
H264 C272 0.951 . S
C265 C259 1.265 . S
C265 H260 0.950 . S
C265 C266 1.478 . S
C266 C265 1.478 . S
C266 C267 1.397 1_545 S
C266 C283 1.394 . S
C267 C266 1.397 1_565 S
C267 C268 1.438 . S
C267 C272 1.429 . S
C268 C267 1.438 . S
C268 C269 1.428 . S
C268 C281 1.394 1_565 S
C269 H261 0.949 . S
C269 C268 1.428 . S
C269 C270 1.345 . S
C270 H262 0.950 . S
C270 C269 1.345 . S
C270 C271 1.424 . S
C271 H263 0.951 . S
C271 C270 1.424 . S
C271 C272 1.347 . S
C272 H264 0.951 . S
C272 C267 1.429 . S
C272 C271 1.347 . S
H273 C274 0.951 . S
C274 H273 0.951 . S
C274 C280 1.265 . S
H275 C280 0.950 . S
H276 C284 0.949 . S
H277 C285 0.950 . S
H278 C286 0.951 . S
H279 C287 0.951 . S
C280 C274 1.265 . S
C280 H275 0.950 . S
C280 C281 1.478 . S
C281 C268 1.394 1_545 S
C281 C280 1.478 . S
C281 C282 1.397 . S
C282 C281 1.397 . S
C282 C283 1.438 . S
C282 C287 1.429 . S
C283 C266 1.394 . S
C283 C282 1.438 . S
C283 C284 1.428 . S
C284 H276 0.949 . S
C284 C283 1.428 . S
C284 C285 1.345 . S
C285 H277 0.950 . S
C285 C284 1.345 . S
C285 C286 1.424 . S
C286 H278 0.951 . S
C286 C285 1.424 . S
C286 C287 1.347 . S
C287 H279 0.951 . S
C287 C282 1.429 . S
C287 C286 1.347 . S
H288 C289 0.951 1_655 S
C289 H288 0.951 1_455 S
C289 C295 1.265 . S
H290 C295 0.950 . S
H291 C299 0.949 . S
H292 C300 0.950 . S
H293 C301 0.951 . S
H294 C302 0.951 . S
C295 C289 1.265 . S
C295 H290 0.950 . S
C295 C296 1.478 . S
C296 C295 1.478 . S
C296 C297 1.397 . S
C296 C313 1.394 . S
C297 C296 1.397 . S
C297 C298 1.438 . S
C297 C302 1.429 . S
C298 C297 1.438 . S
C298 C299 1.428 . S
C298 C311 1.394 . S
C299 H291 0.949 . S
C299 C298 1.428 . S
C299 C300 1.345 . S
C300 H292 0.950 . S
C300 C299 1.345 . S
C300 C301 1.424 . S
C301 H293 0.951 . S
C301 C300 1.424 . S
C301 C302 1.347 . S
C302 H294 0.951 . S
C302 C297 1.429 . S
C302 C301 1.347 . S
H303 C304 0.951 . S
C304 H303 0.951 . S
C304 C310 1.265 1_455 S
H305 C310 0.950 . S
H306 C314 0.949 1_455 S
H307 C315 0.950 . S
H308 C316 0.951 . S
H309 C317 0.951 . S
C310 C304 1.265 1_655 S
C310 H305 0.950 . S
C310 C311 1.478 1_655 S
C311 C298 1.394 . S
C311 C310 1.478 1_455 S
C311 C312 1.397 1_455 S
C312 C311 1.397 1_655 S
C312 C313 1.438 1_655 S
C312 C317 1.429 . S
C313 C296 1.394 . S
C313 C312 1.438 1_455 S
C313 C314 1.428 1_455 S
C314 H306 0.949 1_655 S
C314 C313 1.428 1_655 S
C314 C315 1.345 . S
C315 H307 0.950 . S
C315 C314 1.345 . S
C315 C316 1.424 . S
C316 H308 0.951 . S
C316 C315 1.424 . S
C316 C317 1.347 . S
C317 H309 0.951 . S
C317 C312 1.429 . S
C317 C316 1.347 . S
H318 C319 0.951 1_556 S
C319 H318 0.951 1_554 S
C319 C325 1.265 . S
H320 C325 0.950 . S
H321 C329 0.949 . S
H322 C330 0.950 . S
H323 C331 0.951 . S
H324 C332 0.951 . S
C325 C319 1.265 . S
C325 H320 0.950 . S
C325 C326 1.478 . S
C326 C325 1.478 . S
C326 C327 1.397 . S
C326 C343 1.394 . S
C327 C326 1.397 . S
C327 C328 1.438 1_554 S
C327 C332 1.429 1_554 S
C328 C327 1.438 1_556 S
C328 C329 1.428 . S
C328 C341 1.394 1_556 S
C329 H321 0.949 . S
C329 C328 1.428 . S
C329 C330 1.345 . S
C330 H322 0.950 . S
C330 C329 1.345 . S
C330 C331 1.424 . S
C331 H323 0.951 . S
C331 C330 1.424 . S
C331 C332 1.347 . S
C332 H324 0.951 . S
C332 C327 1.429 1_556 S
C332 C331 1.347 . S
H333 C334 0.951 . S
C334 H333 0.951 . S
C334 C340 1.265 . S
H335 C340 0.950 1_556 S
H336 C344 0.949 . S
H337 C345 0.950 . S
H338 C346 0.951 . S
H339 C347 0.951 . S
C340 C334 1.265 . S
C340 H335 0.950 1_554 S
C340 C341 1.478 . S
C341 C328 1.394 1_554 S
C341 C340 1.478 . S
C341 C342 1.397 . S
C342 C341 1.397 . S
C342 C343 1.438 . S
C342 C347 1.429 . S
C343 C326 1.394 . S
C343 C342 1.438 . S
C343 C344 1.428 . S
C344 H336 0.949 . S
C344 C343 1.428 . S
C344 C345 1.345 . S
C345 H337 0.950 . S
C345 C344 1.345 . S
C345 C346 1.424 . S
C346 H338 0.951 . S
C346 C345 1.424 . S
C346 C347 1.347 . S
C347 H339 0.951 . S
C347 C342 1.429 . S
C347 C346 1.347 . S
H348 C349 0.951 . S
C349 H348 0.951 . S
C349 C355 1.265 . S
H350 C355 0.950 . S
H351 C359 0.949 . S
H352 C360 0.950 . S
H353 C361 0.951 . S
H354 C362 0.951 . S
C355 C349 1.265 . S
C355 H350 0.950 . S
C355 C356 1.478 . S
C356 C355 1.478 . S
C356 C357 1.397 . S
C356 C373 1.394 1_554 S
C357 C356 1.397 . S
C357 C358 1.438 . S
C357 C362 1.429 . S
C358 C357 1.438 . S
C358 C359 1.428 . S
C358 C371 1.394 . S
C359 H351 0.949 . S
C359 C358 1.428 . S
C359 C360 1.345 . S
C360 H352 0.950 . S
C360 C359 1.345 . S
C360 C361 1.424 . S
C361 H353 0.951 . S
C361 C360 1.424 . S
C361 C362 1.347 . S
C362 H354 0.951 . S
C362 C357 1.429 . S
C362 C361 1.347 . S
H363 C364 0.951 . S
C364 H363 0.951 . S
C364 C370 1.265 . S
H365 C370 0.950 . S
H366 C374 0.949 . S
H367 C375 0.950 . S
H368 C376 0.951 . S
H369 C377 0.951 . S
C370 C364 1.265 . S
C370 H365 0.950 . S
C370 C371 1.478 . S
C371 C358 1.394 . S
C371 C370 1.478 . S
C371 C372 1.397 1_554 S
C372 C371 1.397 1_556 S
C372 C373 1.438 . S
C372 C377 1.429 . S
C373 C356 1.394 1_556 S
C373 C372 1.438 . S
C373 C374 1.428 . S
C374 H366 0.949 . S
C374 C373 1.428 . S
C374 C375 1.345 . S
C375 H367 0.950 . S
C375 C374 1.345 . S
C375 C376 1.424 . S
C376 H368 0.951 . S
C376 C375 1.424 . S
C376 C377 1.347 . S
C377 H369 0.951 . S
C377 C372 1.429 . S
C377 C376 1.347 . S
H378 C379 0.951 . S
C379 H378 0.951 . S
C379 C385 1.265 1_554 S
H380 C385 0.950 . S
H381 C389 0.949 . S
H382 C390 0.950 . S
H383 C391 0.951 . S
H384 C392 0.951 . S
C385 C379 1.265 1_556 S
C385 H380 0.950 . S
C385 C386 1.478 1_556 S
C386 C385 1.478 1_554 S
C386 C387 1.397 1_554 S
C386 C403 1.394 . S
C387 C386 1.397 1_556 S
C387 C388 1.438 . S
C387 C392 1.429 . S
C388 C387 1.438 . S
C388 C389 1.428 . S
C388 C401 1.394 1_556 S
C389 H381 0.949 . S
C389 C388 1.428 . S
C389 C390 1.345 . S
C390 H382 0.950 . S
C390 C389 1.345 . S
C390 C391 1.424 . S
C391 H383 0.951 . S
C391 C390 1.424 . S
C391 C392 1.347 . S
C392 H384 0.951 . S
C392 C387 1.429 . S
C392 C391 1.347 . S
H393 C394 0.951 1_556 S
C394 H393 0.951 1_554 S
C394 C400 1.265 . S
H395 C400 0.950 . S
H396 C404 0.949 . S
H397 C405 0.950 . S
H398 C406 0.951 . S
H399 C407 0.951 . S
C400 C394 1.265 . S
C400 H395 0.950 . S
C400 C401 1.478 . S
C401 C388 1.394 1_554 S
C401 C400 1.478 . S
C401 C402 1.397 . S
C402 C401 1.397 . S
C402 C403 1.438 . S
C402 C407 1.429 . S
C403 C386 1.394 . S
C403 C402 1.438 . S
C403 C404 1.428 . S
C404 H396 0.949 . S
C404 C403 1.428 . S
C404 C405 1.345 . S
C405 H397 0.950 . S
C405 C404 1.345 . S
C405 C406 1.424 . S
C406 H398 0.951 . S
C406 C405 1.424 . S
C406 C407 1.347 . S
C407 H399 0.951 . S
C407 C402 1.429 . S
C407 C406 1.347 . S
H408 C409 0.951 . S
C409 H408 0.951 . S
C409 C415 1.265 . S
H410 C415 0.950 . S
H411 C419 0.949 . S
H412 C420 0.950 . S
H413 C421 0.951 . S
H414 C422 0.951 . S
C415 C409 1.265 . S
C415 H410 0.950 . S
C415 C416 1.478 . S
C416 C415 1.478 . S
C416 C417 1.397 1_554 S
C416 C433 1.394 . S
C417 C416 1.397 1_556 S
C417 C418 1.438 . S
C417 C422 1.429 . S
C418 C417 1.438 . S
C418 C419 1.428 . S
C418 C431 1.394 1_556 S
C419 H411 0.949 . S
C419 C418 1.428 . S
C419 C420 1.345 . S
C420 H412 0.950 . S
C420 C419 1.345 . S
C420 C421 1.424 . S
C421 H413 0.951 . S
C421 C420 1.424 . S
C421 C422 1.347 . S
C422 H414 0.951 . S
C422 C417 1.429 . S
C422 C421 1.347 . S
H423 C424 0.951 . S
C424 H423 0.951 . S
C424 C430 1.265 . S
H425 C430 0.950 . S
H426 C434 0.949 . S
H427 C435 0.950 . S
H428 C436 0.951 . S
H429 C437 0.951 . S
C430 C424 1.265 . S
C430 H425 0.950 . S
C430 C431 1.478 . S
C431 C418 1.394 1_554 S
C431 C430 1.478 . S
C431 C432 1.397 . S
C432 C431 1.397 . S
C432 C433 1.438 . S
C432 C437 1.429 . S
C433 C416 1.394 . S
C433 C432 1.438 . S
C433 C434 1.428 . S
C434 H426 0.949 . S
C434 C433 1.428 . S
C434 C435 1.345 . S
C435 H427 0.950 . S
C435 C434 1.345 . S
C435 C436 1.424 . S
C436 H428 0.951 . S
C436 C435 1.424 . S
C436 C437 1.347 . S
C437 H429 0.951 . S
C437 C432 1.429 . S
C437 C436 1.347 . S
C79 C1 1.491 . S
C94 C55 1.463 . S
C109 C5 1.471 . S
C124 C66 1.463 . S
C139 C53 1.472 . S
C154 C3 1.476 . S
C169 C68 1.463 . S
C184 C10 1.493 . S
C199 C70 1.477 . S
C214 C23 1.498 . S
C229 C36 1.488 . S
C244 C57 1.464 . S
C259 C75 1.475 . S
C274 C18 1.501 . S
C289 C62 1.499 . S
C304 C31 1.481 . S
C319 C27 1.500 . S
C334 C44 1.492 . S
C349 C42 1.473 . S
C364 C14 1.471 . S
C379 C29 1.467 . S
C394 C49 1.463 . S
C409 C40 1.490 . S
C424 C16 1.463 . S
