# Generated by pormake.
# Topology uog, (4)-cn, num edge types: 1
# Building blocks:
#     Node 0, Type 0, BuildingBlock: ICAMEG_clean_sbu_1, # of connection points: 4
#     Node 1, Type 0, BuildingBlock: ICAMEG_clean_sbu_1, # of connection points: 4
#     Node 2, Type 0, BuildingBlock: ICAMEG_clean_sbu_1, # of connection points: 4
#     Node 3, Type 0, BuildingBlock: ICAMEG_clean_sbu_1, # of connection points: 4
#     Node 4, Type 0, BuildingBlock: ICAMEG_clean_sbu_1, # of connection points: 4
#     Node 5, Type 0, BuildingBlock: ICAMEG_clean_sbu_1, # of connection points: 4
#     Edge 6, Type (0, 0), BuildingBlock: AJUNOK_clean_linker_0, # of connection points: 2
#     Edge 7, Type (0, 0), BuildingBlock: AJUNOK_clean_linker_0, # of connection points: 2
#     Edge 8, Type (0, 0), BuildingBlock: AJUNOK_clean_linker_0, # of connection points: 2
#     Edge 9, Type (0, 0), BuildingBlock: AJUNOK_clean_linker_0, # of connection points: 2
#     Edge 10, Type (0, 0), BuildingBlock: AJUNOK_clean_linker_0, # of connection points: 2
#     Edge 11, Type (0, 0), BuildingBlock: AJUNOK_clean_linker_0, # of connection points: 2
#     Edge 12, Type (0, 0), BuildingBlock: AJUNOK_clean_linker_0, # of connection points: 2
#     Edge 13, Type (0, 0), BuildingBlock: AJUNOK_clean_linker_0, # of connection points: 2
#     Edge 14, Type (0, 0), BuildingBlock: AJUNOK_clean_linker_0, # of connection points: 2
#     Edge 15, Type (0, 0), BuildingBlock: AJUNOK_clean_linker_0, # of connection points: 2
#     Edge 16, Type (0, 0), BuildingBlock: AJUNOK_clean_linker_0, # of connection points: 2
#     Edge 17, Type (0, 0), BuildingBlock: AJUNOK_clean_linker_0, # of connection points: 2
# Relax obj value: 0.059
# Max RMSD: 0.119
# Mean RMSD: 0.119
data_MOF--net-uog--node1-ICAMEG_clean_sbu_1--edge1-AJUNOK_clean_linker_0
_symmetry_space_group_name_H-M    P1
_symmetry_Int_Tables_number       1
_symmetry_cell_setting            triclinic
loop_
_symmetry_equiv_pos_as_xyz
'x, y, z'
_cell_length_a     22.591835
_cell_length_b     22.570512
_cell_length_c     33.649818
_cell_angle_alpha  90.073002
_cell_angle_beta   90.011012
_cell_angle_gamma 119.97353
loop_
_atom_site_label
_atom_site_type_symbol
_atom_site_fract_x
_atom_site_fract_y
_atom_site_fract_z
_atom_type_partial_charge
Co0 Co 0.66434 0.36943 0.16714 0.0
Co1 Co 0.50487 0.25099 0.20094 0.0
O2 O 0.58298 0.27885 0.16594 0.0
C3 C 0.62012 0.34405 0.08329 0.0
O4 O 0.55921 0.32891 0.09594 0.0
C5 C 0.54311 0.14502 0.21167 0.0
O6 O 0.60559 0.19575 0.21715 0.0
O7 O 0.5658 0.2812 0.24791 0.0
O8 O 0.66152 0.37385 0.22687 0.0
H9 H 0.37773 0.27751 0.31567 0.0
H10 H 0.66788 0.25541 0.12521 0.0
O11 O 0.66955 0.3654 0.10783 0.0
H12 H 0.84808 0.33336 0.22738 0.0
H13 H 0.89925 0.54835 0.12242 0.0
H14 H 0.70521 0.49874 0.2103 0.0
H15 H 0.77952 0.39003 0.21985 0.0
H16 H 0.79651 0.43361 0.12315 0.0
O17 O 0.49499 0.15771 0.20504 0.0
H18 H 0.47494 0.31367 0.26982 0.0
H19 H 0.36902 0.12438 0.2083 0.0
H20 H 0.80716 0.61405 0.21076 0.0
H21 H 0.73588 0.19796 0.13139 0.0
H22 H 0.90511 0.63942 0.16658 0.0
H23 H 0.82649 0.23664 0.18291 0.0
O24 O 0.60712 0.41365 0.16231 0.0
H25 H 0.41915 0.13269 0.06949 0.0
H26 H 0.39267 0.27365 0.17231 0.0
H27 H 0.32043 0.24083 0.11225 0.0
H28 H 0.33351 0.16989 0.06031 0.0
H29 H 0.49075 0.16716 0.12986 0.0
H30 H 0.27075 0.08582 0.25367 0.0
H31 H 0.27467 0.16277 0.30774 0.0
O32 O 0.51323 0.3436 0.19768 0.0
C33 C 0.62435 0.33328 0.25439 0.0
C34 C 0.37525 0.24365 0.29211 0.0
C35 C 0.31526 0.13603 0.25734 0.0
N36 N 0.42724 0.22157 0.23612 0.0
C37 C 0.43002 0.26399 0.26596 0.0
C38 C 0.37104 0.1581 0.23176 0.0
C39 C 0.31749 0.17923 0.28767 0.0
C40 C 0.70779 0.27317 0.14738 0.0
N41 N 0.71988 0.32628 0.172 0.0
C42 C 0.74595 0.24022 0.15084 0.0
C43 C 0.7967 0.26187 0.1798 0.0
C44 C 0.80877 0.31607 0.2048 0.0
C45 C 0.76963 0.34784 0.20046 0.0
C46 C 0.85696 0.53789 0.14185 0.0
C47 C 0.74782 0.50933 0.19118 0.0
C48 C 0.79861 0.47308 0.14233 0.0
N49 N 0.74521 0.45944 0.16697 0.0
C50 C 0.80532 0.57474 0.19148 0.0
C51 C 0.86022 0.58896 0.16665 0.0
C52 C 0.55123 0.39961 0.17945 0.0
C53 C 0.41277 0.16336 0.09199 0.0
C54 C 0.39866 0.24277 0.14984 0.0
C55 C 0.35753 0.22424 0.11593 0.0
C56 C 0.36482 0.18437 0.08682 0.0
N57 N 0.44566 0.22205 0.15467 0.0
C58 C 0.45295 0.18276 0.12632 0.0
Co59 Co 0.29724 0.6589 0.50142 0.0
Co60 Co 0.25885 0.50156 0.53774 0.0
O61 O 0.3091 0.57896 0.50224 0.0
C62 C 0.28099 0.61288 0.41777 0.0
O63 O 0.23595 0.55167 0.43043 0.0
C64 C 0.40351 0.53881 0.54973 0.0
O65 O 0.41811 0.60262 0.55349 0.0
O66 O 0.28827 0.56445 0.58437 0.0
O67 O 0.28835 0.65762 0.56087 0.0
H68 H 0.10421 0.37764 0.65256 0.0
H69 H 0.41717 0.66414 0.4618 0.0
O70 O 0.30796 0.66263 0.44222 0.0
H71 H 0.51322 0.84825 0.56209 0.0
H72 H 0.35052 0.89185 0.45388 0.0
H73 H 0.20362 0.6971 0.54063 0.0
H74 H 0.38853 0.77685 0.55356 0.0
H75 H 0.36509 0.79064 0.45688 0.0
O76 O 0.34202 0.49199 0.54359 0.0
H77 H 0.16638 0.47392 0.60623 0.0
H78 H 0.24715 0.36444 0.54611 0.0
H79 H 0.18761 0.79748 0.53882 0.0
H80 H 0.54217 0.73478 0.46909 0.0
H81 H 0.26149 0.89584 0.49524 0.0
H82 H 0.59099 0.8275 0.51961 0.0
O83 O 0.19608 0.59977 0.49594 0.0
H84 H 0.29821 0.41652 0.40794 0.0
H85 H 0.12641 0.38488 0.50854 0.0
H86 H 0.09045 0.31203 0.44875 0.0
H87 H 0.17673 0.32765 0.39786 0.0
H88 H 0.33167 0.48881 0.46802 0.0
H89 H 0.18655 0.26724 0.59204 0.0
H90 H 0.11413 0.27335 0.64562 0.0
O91 O 0.17378 0.50797 0.53246 0.0
C92 C 0.2925 0.62256 0.58943 0.0
C93 C 0.13555 0.37432 0.62932 0.0
C94 C 0.18179 0.31237 0.59537 0.0
N95 N 0.21015 0.42468 0.57343 0.0
C96 C 0.1708 0.42863 0.60297 0.0
C97 C 0.21621 0.36767 0.56954 0.0
C98 C 0.14115 0.31583 0.62541 0.0
C99 C 0.43797 0.70481 0.48359 0.0
N100 N 0.39551 0.71649 0.5071 0.0
C101 C 0.50882 0.74447 0.48769 0.0
C102 C 0.53617 0.7964 0.51609 0.0
C103 C 0.49257 0.80803 0.53995 0.0
C104 C 0.42197 0.76729 0.53505 0.0
C105 C 0.31818 0.84943 0.4731 0.0
C106 C 0.23622 0.73991 0.5218 0.0
C107 C 0.32614 0.79197 0.47489 0.0
N108 N 0.28583 0.73847 0.49933 0.0
C109 C 0.22679 0.7965 0.5208 0.0
C110 C 0.26822 0.85163 0.49631 0.0
C111 C 0.15431 0.54403 0.51331 0.0
C112 C 0.26015 0.40913 0.42992 0.0
C113 C 0.16409 0.39233 0.4865 0.0
C114 C 0.14353 0.35067 0.45275 0.0
C115 C 0.19197 0.35937 0.42425 0.0
N116 N 0.23098 0.44125 0.49181 0.0
C117 C 0.27883 0.44973 0.4641 0.0
Co118 Co 0.63826 0.29574 0.83401 0.0
Co119 Co 0.7552 0.25266 0.86824 0.0
O120 O 0.72878 0.30474 0.83367 0.0
C121 C 0.6682 0.2854 0.74938 0.0
O122 O 0.68326 0.2384 0.75977 0.0
C123 C 0.86106 0.3964 0.88131 0.0
O124 O 0.81048 0.40827 0.88715 0.0
O125 O 0.72298 0.28124 0.91562 0.0
O126 O 0.63053 0.28364 0.89324 0.0
H127 H 0.7228 0.09124 0.97962 0.0
H128 H 0.75458 0.41639 0.79591 0.0
O129 O 0.64518 0.31 0.77514 0.0
H130 H 0.67042 0.51085 0.89935 0.0
H131 H 0.46312 0.35795 0.79 0.0
H132 H 0.50586 0.20321 0.8727 0.0
H133 H 0.61497 0.38628 0.88882 0.0
H134 H 0.5774 0.36918 0.79207 0.0
O135 O 0.84822 0.33566 0.87414 0.0
H136 H 0.68873 0.15498 0.9344 0.0
H137 H 0.88178 0.24368 0.8771 0.0
H138 H 0.39086 0.19031 0.87192 0.0
H139 H 0.81064 0.54128 0.80496 0.0
H140 H 0.36891 0.26818 0.83029 0.0
H141 H 0.76884 0.5893 0.85713 0.0
O142 O 0.59444 0.19456 0.82689 0.0
H143 H 0.87981 0.29165 0.73866 0.0
H144 H 0.73437 0.11929 0.83779 0.0
H145 H 0.77077 0.08289 0.77793 0.0
H146 H 0.84413 0.1694 0.72788 0.0
H147 H 0.84168 0.32575 0.79877 0.0
H148 H 0.91816 0.18129 0.92187 0.0
H149 H 0.83828 0.10424 0.97349 0.0
O150 O 0.66296 0.16867 0.86258 0.0
C151 C 0.66963 0.28595 0.92135 0.0
C152 C 0.75797 0.12446 0.95716 0.0
C153 C 0.86765 0.17508 0.92477 0.0
N154 N 0.783 0.20248 0.90296 0.0
C155 C 0.73889 0.16051 0.9314 0.0
C156 C 0.84683 0.21035 0.89956 0.0
C157 C 0.8228 0.13184 0.95373 0.0
C158 C 0.73542 0.43684 0.81832 0.0
N159 N 0.68115 0.39399 0.84157 0.0
C160 C 0.76761 0.50764 0.82342 0.0
C161 C 0.7442 0.53454 0.85275 0.0
C162 C 0.68905 0.49054 0.87648 0.0
C163 C 0.658 0.42001 0.87046 0.0
C164 C 0.47204 0.32378 0.80831 0.0
C165 C 0.49672 0.23731 0.85473 0.0
C166 C 0.53663 0.32979 0.80953 0.0
N167 N 0.54839 0.28712 0.83279 0.0
C168 C 0.43149 0.22975 0.8543 0.0
C169 C 0.41921 0.27342 0.83093 0.0
C170 C 0.6081 0.15175 0.8433 0.0
C171 C 0.84806 0.25352 0.76032 0.0
C172 C 0.76616 0.15724 0.81612 0.0
C173 C 0.78673 0.13633 0.78231 0.0
C174 C 0.82792 0.1849 0.75426 0.0
N175 N 0.78616 0.22465 0.82186 0.0
C176 C 0.82658 0.27257 0.79451 0.0
Co177 Co 0.35281 0.63235 0.16845 0.0
Co178 Co 0.50964 0.74862 0.20491 0.0
O179 O 0.43338 0.72356 0.16864 0.0
C180 C 0.39157 0.66316 0.08341 0.0
O181 O 0.45398 0.6787 0.09318 0.0
C182 C 0.4778 0.85992 0.21415 0.0
O183 O 0.41393 0.81187 0.21916 0.0
O184 O 0.44626 0.72033 0.25076 0.0
O185 O 0.35741 0.62323 0.22786 0.0
H186 H 0.62706 0.71576 0.32258 0.0
H187 H 0.34587 0.74838 0.13204 0.0
O188 O 0.34477 0.64032 0.10966 0.0
H189 H 0.16688 0.65769 0.23506 0.0
H190 H 0.11664 0.45365 0.12481 0.0
H191 H 0.31716 0.49996 0.2059 0.0
H192 H 0.23793 0.60472 0.22344 0.0
H193 H 0.21789 0.56927 0.12706 0.0
O194 O 0.52353 0.84352 0.20841 0.0
H195 H 0.53249 0.68349 0.27516 0.0
H196 H 0.64855 0.87094 0.21349 0.0
H197 H 0.21673 0.38372 0.20488 0.0
H198 H 0.27532 0.80227 0.1423 0.0
H199 H 0.11548 0.35998 0.16412 0.0
H200 H 0.18518 0.75706 0.19422 0.0
O201 O 0.41189 0.59108 0.15999 0.0
H202 H 0.60628 0.86778 0.07512 0.0
H203 H 0.61972 0.72067 0.17878 0.0
H204 H 0.69577 0.75265 0.12054 0.0
H205 H 0.68945 0.82689 0.06824 0.0
H206 H 0.53059 0.83389 0.13363 0.0
H207 H 0.74415 0.90576 0.26052 0.0
H208 H 0.73383 0.82771 0.31545 0.0
O209 O 0.49789 0.65434 0.20216 0.0
C210 C 0.39007 0.66481 0.25613 0.0
C211 C 0.63227 0.75014 0.29872 0.0
C212 C 0.69793 0.85681 0.26392 0.0
N213 N 0.58519 0.7751 0.24145 0.0
C214 C 0.57897 0.73203 0.2717 0.0
C215 C 0.64357 0.83695 0.23746 0.0
C216 C 0.69212 0.81298 0.29472 0.0
C217 C 0.30629 0.72791 0.1544 0.0
N218 N 0.29585 0.67319 0.17694 0.0
C219 C 0.26669 0.75886 0.1602 0.0
C220 C 0.21621 0.73354 0.18938 0.0
C221 C 0.20595 0.67783 0.21232 0.0
C222 C 0.24652 0.64818 0.20569 0.0
C223 C 0.16036 0.46338 0.14276 0.0
C224 C 0.27315 0.49009 0.18827 0.0
C225 C 0.21791 0.52871 0.14406 0.0
N226 N 0.27309 0.54148 0.1669 0.0
C227 C 0.2165 0.42414 0.18772 0.0
C228 C 0.15974 0.41085 0.16483 0.0
C229 C 0.46407 0.60172 0.1802 0.0
C230 C 0.60967 0.8356 0.09777 0.0
C231 C 0.61642 0.75273 0.15607 0.0
C232 C 0.65977 0.77084 0.12321 0.0
C233 C 0.65624 0.81254 0.0939 0.0
N234 N 0.57092 0.77562 0.15968 0.0
C235 C 0.56716 0.8165 0.13106 0.0
Co236 Co 0.71588 0.34647 0.50158 0.0
Co237 Co 0.76677 0.51191 0.53136 0.0
O238 O 0.71241 0.43113 0.49865 0.0
C239 C 0.73453 0.38606 0.41613 0.0
O240 O 0.78061 0.4485 0.4265 0.0
C241 C 0.62427 0.47498 0.54759 0.0
O242 O 0.61292 0.41268 0.55336 0.0
O243 O 0.74252 0.45523 0.58052 0.0
O244 O 0.72093 0.35128 0.56078 0.0
H245 H 0.93744 0.64881 0.63746 0.0
H246 H 0.60415 0.3509 0.45751 0.0
O247 O 0.70845 0.33913 0.44226 0.0
H248 H 0.48912 0.17256 0.55944 0.0
H249 H 0.64927 0.10721 0.45836 0.0
H250 H 0.78856 0.29446 0.55147 0.0
H251 H 0.61474 0.2351 0.55388 0.0
H252 H 0.64543 0.21433 0.45699 0.0
O253 O 0.68434 0.52256 0.53897 0.0
H254 H 0.87032 0.54798 0.5947 0.0
H255 H 0.7759 0.64796 0.53853 0.0
H256 H 0.79413 0.1883 0.55407 0.0
H257 H 0.47846 0.28905 0.46176 0.0
H258 H 0.7241 0.0936 0.50718 0.0
H259 H 0.42009 0.19926 0.51308 0.0
O260 O 0.8182 0.39833 0.49856 0.0
H261 H 0.7164 0.58665 0.40123 0.0
H262 H 0.89668 0.62339 0.49721 0.0
H263 H 0.92772 0.69166 0.43566 0.0
H264 H 0.83718 0.6735 0.38718 0.0
H265 H 0.68776 0.51909 0.463 0.0
H266 H 0.8416 0.74969 0.58086 0.0
H267 H 0.92321 0.75057 0.63067 0.0
O268 O 0.84982 0.5028 0.52375 0.0
C269 C 0.72797 0.39392 0.5878 0.0
C270 C 0.90223 0.64914 0.61576 0.0
C271 C 0.84836 0.70572 0.58403 0.0
N272 N 0.81976 0.59239 0.56395 0.0
C273 C 0.86428 0.59231 0.5914 0.0
C274 C 0.81122 0.64795 0.5602 0.0
C275 C 0.89416 0.70619 0.61197 0.0
C276 C 0.57919 0.31137 0.47964 0.0
N277 N 0.61685 0.29621 0.50514 0.0
C278 C 0.50796 0.2767 0.482 0.0
C279 C 0.47525 0.22639 0.51083 0.0
C280 C 0.51396 0.21144 0.53688 0.0
C281 C 0.58511 0.24712 0.53361 0.0
C282 C 0.68053 0.14832 0.4787 0.0
C283 C 0.75877 0.25404 0.53067 0.0
C284 C 0.679 0.20941 0.47783 0.0
N285 N 0.71822 0.26158 0.50344 0.0
C286 C 0.76175 0.19377 0.53242 0.0
C287 C 0.72243 0.14066 0.50614 0.0
C288 C 0.86356 0.4583 0.50994 0.0
C289 C 0.75629 0.59514 0.42216 0.0
C290 C 0.85707 0.61501 0.47617 0.0
C291 C 0.87491 0.65396 0.44143 0.0
C292 C 0.82408 0.64378 0.41427 0.0
N293 N 0.79049 0.56735 0.48368 0.0
C294 C 0.74034 0.55722 0.45725 0.0
Co295 Co 0.3742 0.71785 0.83531 0.0
Co296 Co 0.25609 0.75931 0.86872 0.0
O297 O 0.28364 0.70874 0.83363 0.0
C298 C 0.34979 0.73476 0.75078 0.0
O299 O 0.33484 0.78118 0.76259 0.0
C300 C 0.14591 0.61582 0.87842 0.0
O301 O 0.19425 0.60042 0.88369 0.0
O302 O 0.28365 0.72568 0.91562 0.0
O303 O 0.37838 0.72636 0.89497 0.0
H304 H 0.27888 0.90496 0.98717 0.0
H305 H 0.26017 0.59947 0.79405 0.0
O306 O 0.37049 0.70709 0.77601 0.0
H307 H 0.33857 0.49928 0.89718 0.0
H308 H 0.55313 0.6604 0.79233 0.0
H309 H 0.50325 0.80713 0.87837 0.0
H310 H 0.39497 0.62433 0.88885 0.0
H311 H 0.43855 0.64871 0.79242 0.0
O312 O 0.1618 0.67758 0.87173 0.0
H313 H 0.31487 0.84407 0.94094 0.0
H314 H 0.13366 0.77656 0.8733 0.0
H315 H 0.61841 0.82023 0.87945 0.0
H316 H 0.20281 0.47415 0.80111 0.0
H317 H 0.6439 0.74648 0.83621 0.0
H318 H 0.24182 0.42325 0.85306 0.0
O319 O 0.4184 0.81937 0.82992 0.0
H320 H 0.1428 0.73278 0.73624 0.0
H321 H 0.28284 0.89623 0.84092 0.0
H322 H 0.25353 0.93848 0.78076 0.0
H323 H 0.18306 0.8565 0.72788 0.0
H324 H 0.17381 0.69277 0.79674 0.0
H325 H 0.09522 0.83607 0.91899 0.0
H326 H 0.16827 0.9012 0.97632 0.0
O327 O 0.34946 0.8427 0.86652 0.0
C328 C 0.33659 0.72081 0.92231 0.0
C329 C 0.24675 0.87709 0.96218 0.0
C330 C 0.14367 0.83839 0.92394 0.0
N331 N 0.22697 0.80776 0.90409 0.0
C332 C 0.26702 0.84277 0.93581 0.0
C333 C 0.16567 0.80475 0.89817 0.0
C334 C 0.18467 0.8749 0.9561 0.0
C335 C 0.27795 0.57776 0.81646 0.0
N336 N 0.3311 0.61927 0.84087 0.0
C337 C 0.24505 0.50673 0.82043 0.0
C338 C 0.26689 0.47821 0.84963 0.0
C339 C 0.32113 0.52084 0.87441 0.0
C340 C 0.35276 0.59165 0.86961 0.0
C341 C 0.54261 0.69275 0.81136 0.0
C342 C 0.5139 0.77463 0.85963 0.0
C343 C 0.47789 0.68647 0.81146 0.0
N344 N 0.46416 0.72687 0.8356 0.0
C345 C 0.57923 0.78239 0.86029 0.0
C346 C 0.59351 0.74104 0.836 0.0
C347 C 0.40525 0.86146 0.84779 0.0
C348 C 0.17331 0.76896 0.75915 0.0
C349 C 0.25222 0.86022 0.81803 0.0
C350 C 0.23565 0.88444 0.78407 0.0
C351 C 0.19603 0.83841 0.75444 0.0
N352 N 0.22981 0.79203 0.8224 0.0
C353 C 0.19074 0.74656 0.79355 0.0
C354 C 0.46016 0.01898 0.21391 0.0
C355 C 0.52829 0.07305 0.21278 0.0
C356 C 0.4445 0.95053 0.21469 0.0
C357 C 0.49628 0.93311 0.21408 0.0
H358 H 0.41829 0.02944 0.21432 0.0
H359 H 0.39119 0.91102 0.21544 0.0
S360 S 0.68322 0.05546 0.21063 0.0
N361 N 0.64814 0.10438 0.21091 0.0
N362 N 0.61888 0.97612 0.21211 0.0
C363 C 0.56472 0.98672 0.21286 0.0
C364 C 0.58067 0.05648 0.21232 0.0
C365 C 0.52775 0.57326 0.54856 0.0
C366 C 0.45884 0.52125 0.55081 0.0
C367 C 0.58075 0.55787 0.54785 0.0
C368 C 0.56717 0.48982 0.54964 0.0
H369 H 0.54104 0.62642 0.54669 0.0
H370 H 0.63283 0.59985 0.54568 0.0
S371 S 0.39552 0.33453 0.55698 0.0
N372 N 0.38013 0.39866 0.55571 0.0
N373 N 0.47935 0.36991 0.55448 0.0
C374 C 0.49853 0.43732 0.55251 0.0
C375 C 0.44456 0.45297 0.55303 0.0
C376 C 0.98706 0.4393 0.88081 0.0
C377 C 0.93302 0.4535 0.88158 0.0
C378 C 0.05547 0.49198 0.8801 0.0
C379 C 0.07287 0.5612 0.87979 0.0
H380 H 0.97661 0.38693 0.88074 0.0
H381 H 0.09496 0.4781 0.87938 0.0
S382 S 0.95072 0.62624 0.88161 0.0
N383 N 0.90181 0.54226 0.88221 0.0
N384 N 0.02998 0.64103 0.88059 0.0
C385 C 0.01934 0.5762 0.88062 0.0
C386 C 0.94963 0.5225 0.88163 0.0
C387 C 0.05576 0.56052 0.49327 0.0
C388 C 0.07945 0.52005 0.51165 0.0
C389 C 0.98579 0.53979 0.49226 0.0
C390 C 0.93651 0.47717 0.50883 0.0
H391 H 0.09149 0.60915 0.47995 0.0
H392 H 0.97016 0.573 0.47831 0.0
S393 S 0.97007 0.35335 0.5621 0.0
N394 N 0.04628 0.4149 0.54841 0.0
N395 N 0.91583 0.3761 0.54517 0.0
C396 C 0.95902 0.43613 0.52703 0.0
C397 C 0.03012 0.45752 0.52881 0.0
C398 C 0.50832 0.96268 0.81751 0.0
C399 C 0.45679 0.93597 0.84684 0.0
C400 C 0.55669 0.03299 0.8159 0.0
C401 C 0.55519 0.0789 0.84354 0.0
H402 H 0.51114 0.92917 0.79546 0.0
H403 H 0.5957 0.0515 0.79308 0.0
S404 S 0.43569 0.03615 0.92795 0.0
N405 N 0.41035 0.96242 0.90527 0.0
N406 N 0.5018 0.09339 0.90227 0.0
C407 C 0.50531 0.05323 0.8733 0.0
C408 C 0.45589 0.98209 0.8749 0.0
C409 C 0.49636 0.52476 0.14412 0.0
C410 C 0.48502 0.54936 0.18009 0.0
C411 C 0.51946 0.47726 0.14395 0.0
C412 C 0.52998 0.45167 0.17973 0.0
H413 H 0.48856 0.54331 0.11604 0.0
H414 H 0.52805 0.45959 0.11574 0.0
S415 S 0.50596 0.49866 0.28157 0.0
N416 N 0.48584 0.54452 0.25219 0.0
N417 N 0.527 0.45388 0.2518 0.0
C418 C 0.51792 0.47522 0.21574 0.0
C419 C 0.49604 0.52452 0.21594 0.0
C420 C 0.70688 0.32543 0.99116 0.0
C421 C 0.6545 0.29869 0.96248 0.0
C422 C 0.6954 0.34098 0.02969 0.0
C423 C 0.63088 0.33016 0.04146 0.0
H424 H 0.75771 0.3354 0.98373 0.0
H425 H 0.73771 0.36134 0.05047 0.0
S426 S 0.47541 0.25866 0.97815 0.0
N427 N 0.5349 0.26052 0.94888 0.0
N428 N 0.51328 0.28962 0.02126 0.0
C429 C 0.57777 0.30301 0.01319 0.0
C430 C 0.58957 0.28735 0.97379 0.0
C431 C 0.38596 0.70108 0.32592 0.0
C432 C 0.36084 0.64902 0.29697 0.0
C433 C 0.35892 0.68896 0.36441 0.0
C434 C 0.30565 0.62407 0.37595 0.0
H435 H 0.42672 0.75215 0.31883 0.0
H436 H 0.38065 0.73108 0.38536 0.0
S437 S 0.2221 0.4694 0.31182 0.0
N438 N 0.27962 0.52942 0.28278 0.0
N439 N 0.22896 0.50661 0.35517 0.0
C440 C 0.27991 0.57131 0.3474 0.0
C441 C 0.30739 0.58377 0.30798 0.0
C442 C 0.6993 0.28153 0.67827 0.0
C443 C 0.68279 0.31397 0.70844 0.0
C444 C 0.71451 0.30816 0.63961 0.0
C445 C 0.71481 0.36895 0.62954 0.0
H446 H 0.70014 0.23485 0.6844 0.0
H447 H 0.7262 0.28066 0.61748 0.0
S448 S 0.67627 0.4747 0.69782 0.0
N449 N 0.66833 0.41096 0.72559 0.0
N450 N 0.69742 0.46103 0.65323 0.0
C451 C 0.69912 0.4024 0.65954 0.0
C452 C 0.68292 0.3749 0.69883 0.0
C453 C 0.41114 0.70795 0.9732 0.0
C454 C 0.34967 0.70661 0.9637 0.0
C455 C 0.42414 0.69355 1.01178 0.0
C456 C 0.37602 0.67654 0.04248 0.0
H457 H 0.44991 0.72043 0.95072 0.0
H458 H 0.47235 0.69566 0.01748 0.0
S459 S 0.20698 0.66627 0.03365 0.0
N460 N 0.24016 0.68714 0.98873 0.0
N461 N 0.26439 0.65996 0.06074 0.0
C462 C 0.31426 0.67493 0.03343 0.0
C463 C 0.30119 0.69002 0.99426 0.0
C464 C 0.73894 0.41931 0.34434 0.0
C465 C 0.70695 0.37095 0.37485 0.0
C466 C 0.71201 0.40695 0.30559 0.0
C467 C 0.6515 0.34598 0.2958 0.0
H468 H 0.7852 0.46724 0.35035 0.0
H469 H 0.73881 0.44582 0.28324 0.0
S470 S 0.54696 0.20294 0.36509 0.0
N471 N 0.61067 0.25967 0.39248 0.0
N472 N 0.56034 0.23664 0.32029 0.0
C473 C 0.61887 0.29728 0.32614 0.0
C474 C 0.64649 0.30967 0.36541 0.0
C475 C 0.34292 0.65196 0.69874 0.0
C476 C 0.33647 0.709 0.7091 0.0
C477 C 0.32771 0.62408 0.66033 0.0
C478 C 0.30572 0.65214 0.63033 0.0
H479 H 0.35933 0.6279 0.72056 0.0
H480 H 0.33395 0.5804 0.65415 0.0
S481 S 0.27958 0.80141 0.64195 0.0
N482 N 0.30592 0.79238 0.68608 0.0
N483 N 0.27762 0.74035 0.61399 0.0
C484 C 0.29909 0.70934 0.64024 0.0
C485 C 0.31434 0.7376 0.6795 0.0
loop_
_geom_bond_atom_site_label_1
_geom_bond_atom_site_label_2
_geom_bond_distance
_geom_bond_site_symmetry_2
_ccdc_geom_bond_type
Co0 O2 2.143 . S
Co0 O8 2.074 . S
Co0 O11 2.093 . S
Co0 O24 2.097 . S
Co0 N41 2.151 . S
Co0 N49 2.214 . S
Co1 O2 2.160 . S
Co1 O7 2.058 . S
Co1 O17 2.057 . S
Co1 O32 2.037 . S
Co1 N36 2.145 . S
Co1 N57 2.257 . S
O2 Co0 2.143 . S
O2 Co1 2.160 . S
C3 O4 1.278 . S
C3 O11 1.224 . S
O4 C3 1.278 . S
C5 O6 1.245 . S
C5 O17 1.232 . S
O6 C5 1.245 . S
O7 Co1 2.058 . S
O7 C33 1.269 . S
O8 Co0 2.074 . S
O8 C33 1.257 . S
H9 C34 0.930 . S
H10 C40 0.930 . S
O11 Co0 2.093 . S
O11 C3 1.224 . S
H12 C44 0.929 . S
H13 C46 0.930 . S
H14 C47 0.930 . S
H15 C45 0.929 . S
H16 C48 0.928 . S
O17 Co1 2.057 . S
O17 C5 1.232 . S
H18 C37 0.929 . S
H19 C38 0.929 . S
H20 C50 0.931 . S
H21 C42 0.929 . S
H22 C51 0.930 . S
H23 C43 0.931 . S
O24 Co0 2.097 . S
O24 C52 1.214 . S
H25 C53 0.929 . S
H26 C54 0.929 . S
H27 C55 0.930 . S
H28 C56 0.929 . S
H29 C58 0.930 . S
H30 C35 0.930 . S
H31 C39 0.930 . S
O32 Co1 2.037 . S
O32 C52 1.234 . S
C33 O7 1.269 . S
C33 O8 1.257 . S
C34 H9 0.930 . S
C34 C37 1.388 . S
C34 C39 1.418 . S
C35 H30 0.930 . S
C35 C38 1.404 . S
C35 C39 1.353 . S
N36 Co1 2.145 . S
N36 C37 1.397 . S
N36 C38 1.334 . S
C37 H18 0.929 . S
C37 C34 1.388 . S
C37 N36 1.397 . S
C38 H19 0.929 . S
C38 C35 1.404 . S
C38 N36 1.334 . S
C39 H31 0.930 . S
C39 C34 1.418 . S
C39 C35 1.353 . S
C40 H10 0.930 . S
C40 N41 1.330 . S
C40 C42 1.446 . S
N41 Co0 2.151 . S
N41 C40 1.330 . S
N41 C45 1.418 . S
C42 H21 0.929 . S
C42 C40 1.446 . S
C42 C43 1.332 . S
C43 H23 0.931 . S
C43 C42 1.332 . S
C43 C44 1.267 . S
C44 H12 0.929 . S
C44 C43 1.267 . S
C44 C45 1.251 . S
C45 H15 0.929 . S
C45 N41 1.418 . S
C45 C44 1.251 . S
C46 H13 0.930 . S
C46 C48 1.406 . S
C46 C51 1.261 . S
C47 H14 0.930 . S
C47 N49 1.325 . S
C47 C50 1.357 . S
C48 H16 0.928 . S
C48 C46 1.406 . S
C48 N49 1.261 . S
N49 Co0 2.214 . S
N49 C47 1.325 . S
N49 C48 1.261 . S
C50 H20 0.931 . S
C50 C47 1.357 . S
C50 C51 1.312 . S
C51 H22 0.930 . S
C51 C46 1.261 . S
C51 C50 1.312 . S
C52 O24 1.214 . S
C52 O32 1.234 . S
C53 H25 0.929 . S
C53 C56 1.391 . S
C53 C58 1.391 . S
C54 H26 0.929 . S
C54 C55 1.390 . S
C54 N57 1.391 . S
C55 H27 0.930 . S
C55 C54 1.390 . S
C55 C56 1.392 . S
C56 H28 0.929 . S
C56 C53 1.391 . S
C56 C55 1.392 . S
N57 Co1 2.257 . S
N57 C54 1.391 . S
N57 C58 1.388 . S
C58 H29 0.930 . S
C58 C53 1.391 . S
C58 N57 1.388 . S
Co59 O61 2.143 . S
Co59 O67 2.074 . S
Co59 O70 2.093 . S
Co59 O83 2.097 . S
Co59 N100 2.151 . S
Co59 N108 2.214 . S
Co60 O61 2.160 . S
Co60 O66 2.058 . S
Co60 O76 2.057 . S
Co60 O91 2.037 . S
Co60 N95 2.145 . S
Co60 N116 2.257 . S
O61 Co59 2.143 . S
O61 Co60 2.160 . S
C62 O63 1.278 . S
C62 O70 1.224 . S
O63 C62 1.278 . S
C64 O65 1.245 . S
C64 O76 1.232 . S
O65 C64 1.245 . S
O66 Co60 2.058 . S
O66 C92 1.269 . S
O67 Co59 2.074 . S
O67 C92 1.257 . S
H68 C93 0.930 . S
H69 C99 0.930 . S
O70 Co59 2.093 . S
O70 C62 1.224 . S
H71 C103 0.929 . S
H72 C105 0.930 . S
H73 C106 0.930 . S
H74 C104 0.929 . S
H75 C107 0.928 . S
O76 Co60 2.057 . S
O76 C64 1.232 . S
H77 C96 0.929 . S
H78 C97 0.929 . S
H79 C109 0.931 . S
H80 C101 0.929 . S
H81 C110 0.930 . S
H82 C102 0.931 . S
O83 Co59 2.097 . S
O83 C111 1.214 . S
H84 C112 0.929 . S
H85 C113 0.929 . S
H86 C114 0.930 . S
H87 C115 0.929 . S
H88 C117 0.930 . S
H89 C94 0.930 . S
H90 C98 0.930 . S
O91 Co60 2.037 . S
O91 C111 1.234 . S
C92 O66 1.269 . S
C92 O67 1.257 . S
C93 H68 0.930 . S
C93 C96 1.388 . S
C93 C98 1.418 . S
C94 H89 0.930 . S
C94 C97 1.404 . S
C94 C98 1.353 . S
N95 Co60 2.145 . S
N95 C96 1.397 . S
N95 C97 1.334 . S
C96 H77 0.929 . S
C96 C93 1.388 . S
C96 N95 1.397 . S
C97 H78 0.929 . S
C97 C94 1.404 . S
C97 N95 1.334 . S
C98 H90 0.930 . S
C98 C93 1.418 . S
C98 C94 1.353 . S
C99 H69 0.930 . S
C99 N100 1.330 . S
C99 C101 1.446 . S
N100 Co59 2.151 . S
N100 C99 1.330 . S
N100 C104 1.418 . S
C101 H80 0.929 . S
C101 C99 1.446 . S
C101 C102 1.332 . S
C102 H82 0.931 . S
C102 C101 1.332 . S
C102 C103 1.267 . S
C103 H71 0.929 . S
C103 C102 1.267 . S
C103 C104 1.251 . S
C104 H74 0.929 . S
C104 N100 1.418 . S
C104 C103 1.251 . S
C105 H72 0.930 . S
C105 C107 1.406 . S
C105 C110 1.261 . S
C106 H73 0.930 . S
C106 N108 1.325 . S
C106 C109 1.357 . S
C107 H75 0.928 . S
C107 C105 1.406 . S
C107 N108 1.261 . S
N108 Co59 2.214 . S
N108 C106 1.325 . S
N108 C107 1.261 . S
C109 H79 0.931 . S
C109 C106 1.357 . S
C109 C110 1.312 . S
C110 H81 0.930 . S
C110 C105 1.261 . S
C110 C109 1.312 . S
C111 O83 1.214 . S
C111 O91 1.234 . S
C112 H84 0.929 . S
C112 C115 1.391 . S
C112 C117 1.391 . S
C113 H85 0.929 . S
C113 C114 1.390 . S
C113 N116 1.391 . S
C114 H86 0.930 . S
C114 C113 1.390 . S
C114 C115 1.392 . S
C115 H87 0.929 . S
C115 C112 1.391 . S
C115 C114 1.392 . S
N116 Co60 2.257 . S
N116 C113 1.391 . S
N116 C117 1.388 . S
C117 H88 0.930 . S
C117 C112 1.391 . S
C117 N116 1.388 . S
Co118 O120 2.143 . S
Co118 O126 2.074 . S
Co118 O129 2.093 . S
Co118 O142 2.097 . S
Co118 N159 2.151 . S
Co118 N167 2.214 . S
Co119 O120 2.160 . S
Co119 O125 2.058 . S
Co119 O135 2.057 . S
Co119 O150 2.037 . S
Co119 N154 2.145 . S
Co119 N175 2.257 . S
O120 Co118 2.143 . S
O120 Co119 2.160 . S
C121 O122 1.278 . S
C121 O129 1.224 . S
O122 C121 1.278 . S
C123 O124 1.245 . S
C123 O135 1.232 . S
O124 C123 1.245 . S
O125 Co119 2.058 . S
O125 C151 1.269 . S
O126 Co118 2.074 . S
O126 C151 1.257 . S
H127 C152 0.930 . S
H128 C158 0.930 . S
O129 Co118 2.093 . S
O129 C121 1.224 . S
H130 C162 0.929 . S
H131 C164 0.930 . S
H132 C165 0.930 . S
H133 C163 0.929 . S
H134 C166 0.928 . S
O135 Co119 2.057 . S
O135 C123 1.232 . S
H136 C155 0.929 . S
H137 C156 0.929 . S
H138 C168 0.931 . S
H139 C160 0.929 . S
H140 C169 0.930 . S
H141 C161 0.931 . S
O142 Co118 2.097 . S
O142 C170 1.214 . S
H143 C171 0.929 . S
H144 C172 0.929 . S
H145 C173 0.930 . S
H146 C174 0.929 . S
H147 C176 0.930 . S
H148 C153 0.930 . S
H149 C157 0.930 . S
O150 Co119 2.037 . S
O150 C170 1.234 . S
C151 O125 1.269 . S
C151 O126 1.257 . S
C152 H127 0.930 . S
C152 C155 1.388 . S
C152 C157 1.418 . S
C153 H148 0.930 . S
C153 C156 1.404 . S
C153 C157 1.353 . S
N154 Co119 2.145 . S
N154 C155 1.397 . S
N154 C156 1.334 . S
C155 H136 0.929 . S
C155 C152 1.388 . S
C155 N154 1.397 . S
C156 H137 0.929 . S
C156 C153 1.404 . S
C156 N154 1.334 . S
C157 H149 0.930 . S
C157 C152 1.418 . S
C157 C153 1.353 . S
C158 H128 0.930 . S
C158 N159 1.330 . S
C158 C160 1.446 . S
N159 Co118 2.151 . S
N159 C158 1.330 . S
N159 C163 1.418 . S
C160 H139 0.929 . S
C160 C158 1.446 . S
C160 C161 1.332 . S
C161 H141 0.931 . S
C161 C160 1.332 . S
C161 C162 1.267 . S
C162 H130 0.929 . S
C162 C161 1.267 . S
C162 C163 1.251 . S
C163 H133 0.929 . S
C163 N159 1.418 . S
C163 C162 1.251 . S
C164 H131 0.930 . S
C164 C166 1.406 . S
C164 C169 1.261 . S
C165 H132 0.930 . S
C165 N167 1.325 . S
C165 C168 1.357 . S
C166 H134 0.928 . S
C166 C164 1.406 . S
C166 N167 1.261 . S
N167 Co118 2.214 . S
N167 C165 1.325 . S
N167 C166 1.261 . S
C168 H138 0.931 . S
C168 C165 1.357 . S
C168 C169 1.312 . S
C169 H140 0.930 . S
C169 C164 1.261 . S
C169 C168 1.312 . S
C170 O142 1.214 . S
C170 O150 1.234 . S
C171 H143 0.929 . S
C171 C174 1.391 . S
C171 C176 1.391 . S
C172 H144 0.929 . S
C172 C173 1.390 . S
C172 N175 1.391 . S
C173 H145 0.930 . S
C173 C172 1.390 . S
C173 C174 1.392 . S
C174 H146 0.929 . S
C174 C171 1.391 . S
C174 C173 1.392 . S
N175 Co119 2.257 . S
N175 C172 1.391 . S
N175 C176 1.388 . S
C176 H147 0.930 . S
C176 C171 1.391 . S
C176 N175 1.388 . S
Co177 O179 2.143 . S
Co177 O185 2.074 . S
Co177 O188 2.093 . S
Co177 O201 2.097 . S
Co177 N218 2.151 . S
Co177 N226 2.214 . S
Co178 O179 2.160 . S
Co178 O184 2.058 . S
Co178 O194 2.057 . S
Co178 O209 2.037 . S
Co178 N213 2.145 . S
Co178 N234 2.257 . S
O179 Co177 2.143 . S
O179 Co178 2.160 . S
C180 O181 1.278 . S
C180 O188 1.224 . S
O181 C180 1.278 . S
C182 O183 1.245 . S
C182 O194 1.232 . S
O183 C182 1.245 . S
O184 Co178 2.058 . S
O184 C210 1.269 . S
O185 Co177 2.074 . S
O185 C210 1.257 . S
H186 C211 0.930 . S
H187 C217 0.930 . S
O188 Co177 2.093 . S
O188 C180 1.224 . S
H189 C221 0.929 . S
H190 C223 0.930 . S
H191 C224 0.930 . S
H192 C222 0.929 . S
H193 C225 0.928 . S
O194 Co178 2.057 . S
O194 C182 1.232 . S
H195 C214 0.929 . S
H196 C215 0.929 . S
H197 C227 0.931 . S
H198 C219 0.929 . S
H199 C228 0.930 . S
H200 C220 0.931 . S
O201 Co177 2.097 . S
O201 C229 1.214 . S
H202 C230 0.929 . S
H203 C231 0.929 . S
H204 C232 0.930 . S
H205 C233 0.929 . S
H206 C235 0.930 . S
H207 C212 0.930 . S
H208 C216 0.930 . S
O209 Co178 2.037 . S
O209 C229 1.234 . S
C210 O184 1.269 . S
C210 O185 1.257 . S
C211 H186 0.930 . S
C211 C214 1.388 . S
C211 C216 1.418 . S
C212 H207 0.930 . S
C212 C215 1.404 . S
C212 C216 1.353 . S
N213 Co178 2.145 . S
N213 C214 1.397 . S
N213 C215 1.334 . S
C214 H195 0.929 . S
C214 C211 1.388 . S
C214 N213 1.397 . S
C215 H196 0.929 . S
C215 C212 1.404 . S
C215 N213 1.334 . S
C216 H208 0.930 . S
C216 C211 1.418 . S
C216 C212 1.353 . S
C217 H187 0.930 . S
C217 N218 1.330 . S
C217 C219 1.446 . S
N218 Co177 2.151 . S
N218 C217 1.330 . S
N218 C222 1.418 . S
C219 H198 0.929 . S
C219 C217 1.446 . S
C219 C220 1.332 . S
C220 H200 0.931 . S
C220 C219 1.332 . S
C220 C221 1.267 . S
C221 H189 0.929 . S
C221 C220 1.267 . S
C221 C222 1.251 . S
C222 H192 0.929 . S
C222 N218 1.418 . S
C222 C221 1.251 . S
C223 H190 0.930 . S
C223 C225 1.406 . S
C223 C228 1.261 . S
C224 H191 0.930 . S
C224 N226 1.325 . S
C224 C227 1.357 . S
C225 H193 0.928 . S
C225 C223 1.406 . S
C225 N226 1.261 . S
N226 Co177 2.214 . S
N226 C224 1.325 . S
N226 C225 1.261 . S
C227 H197 0.931 . S
C227 C224 1.357 . S
C227 C228 1.312 . S
C228 H199 0.930 . S
C228 C223 1.261 . S
C228 C227 1.312 . S
C229 O201 1.214 . S
C229 O209 1.234 . S
C230 H202 0.929 . S
C230 C233 1.391 . S
C230 C235 1.391 . S
C231 H203 0.929 . S
C231 C232 1.390 . S
C231 N234 1.391 . S
C232 H204 0.930 . S
C232 C231 1.390 . S
C232 C233 1.392 . S
C233 H205 0.929 . S
C233 C230 1.391 . S
C233 C232 1.392 . S
N234 Co178 2.257 . S
N234 C231 1.391 . S
N234 C235 1.388 . S
C235 H206 0.930 . S
C235 C230 1.391 . S
C235 N234 1.388 . S
Co236 O238 2.143 . S
Co236 O244 2.074 . S
Co236 O247 2.093 . S
Co236 O260 2.097 . S
Co236 N277 2.151 . S
Co236 N285 2.214 . S
Co237 O238 2.160 . S
Co237 O243 2.058 . S
Co237 O253 2.057 . S
Co237 O268 2.037 . S
Co237 N272 2.145 . S
Co237 N293 2.257 . S
O238 Co236 2.143 . S
O238 Co237 2.160 . S
C239 O240 1.278 . S
C239 O247 1.224 . S
O240 C239 1.278 . S
C241 O242 1.245 . S
C241 O253 1.232 . S
O242 C241 1.245 . S
O243 Co237 2.058 . S
O243 C269 1.269 . S
O244 Co236 2.074 . S
O244 C269 1.257 . S
H245 C270 0.930 . S
H246 C276 0.930 . S
O247 Co236 2.093 . S
O247 C239 1.224 . S
H248 C280 0.929 . S
H249 C282 0.930 . S
H250 C283 0.930 . S
H251 C281 0.929 . S
H252 C284 0.928 . S
O253 Co237 2.057 . S
O253 C241 1.232 . S
H254 C273 0.929 . S
H255 C274 0.929 . S
H256 C286 0.931 . S
H257 C278 0.929 . S
H258 C287 0.930 . S
H259 C279 0.931 . S
O260 Co236 2.097 . S
O260 C288 1.214 . S
H261 C289 0.929 . S
H262 C290 0.929 . S
H263 C291 0.930 . S
H264 C292 0.929 . S
H265 C294 0.930 . S
H266 C271 0.930 . S
H267 C275 0.930 . S
O268 Co237 2.037 . S
O268 C288 1.234 . S
C269 O243 1.269 . S
C269 O244 1.257 . S
C270 H245 0.930 . S
C270 C273 1.388 . S
C270 C275 1.418 . S
C271 H266 0.930 . S
C271 C274 1.404 . S
C271 C275 1.353 . S
N272 Co237 2.145 . S
N272 C273 1.397 . S
N272 C274 1.334 . S
C273 H254 0.929 . S
C273 C270 1.388 . S
C273 N272 1.397 . S
C274 H255 0.929 . S
C274 C271 1.404 . S
C274 N272 1.334 . S
C275 H267 0.930 . S
C275 C270 1.418 . S
C275 C271 1.353 . S
C276 H246 0.930 . S
C276 N277 1.330 . S
C276 C278 1.446 . S
N277 Co236 2.151 . S
N277 C276 1.330 . S
N277 C281 1.418 . S
C278 H257 0.929 . S
C278 C276 1.446 . S
C278 C279 1.332 . S
C279 H259 0.931 . S
C279 C278 1.332 . S
C279 C280 1.267 . S
C280 H248 0.929 . S
C280 C279 1.267 . S
C280 C281 1.251 . S
C281 H251 0.929 . S
C281 N277 1.418 . S
C281 C280 1.251 . S
C282 H249 0.930 . S
C282 C284 1.406 . S
C282 C287 1.261 . S
C283 H250 0.930 . S
C283 N285 1.325 . S
C283 C286 1.357 . S
C284 H252 0.928 . S
C284 C282 1.406 . S
C284 N285 1.261 . S
N285 Co236 2.214 . S
N285 C283 1.325 . S
N285 C284 1.261 . S
C286 H256 0.931 . S
C286 C283 1.357 . S
C286 C287 1.312 . S
C287 H258 0.930 . S
C287 C282 1.261 . S
C287 C286 1.312 . S
C288 O260 1.214 . S
C288 O268 1.234 . S
C289 H261 0.929 . S
C289 C292 1.391 . S
C289 C294 1.391 . S
C290 H262 0.929 . S
C290 C291 1.390 . S
C290 N293 1.391 . S
C291 H263 0.930 . S
C291 C290 1.390 . S
C291 C292 1.392 . S
C292 H264 0.929 . S
C292 C289 1.391 . S
C292 C291 1.392 . S
N293 Co237 2.257 . S
N293 C290 1.391 . S
N293 C294 1.388 . S
C294 H265 0.930 . S
C294 C289 1.391 . S
C294 N293 1.388 . S
Co295 O297 2.143 . S
Co295 O303 2.074 . S
Co295 O306 2.093 . S
Co295 O319 2.097 . S
Co295 N336 2.151 . S
Co295 N344 2.214 . S
Co296 O297 2.160 . S
Co296 O302 2.058 . S
Co296 O312 2.057 . S
Co296 O327 2.037 . S
Co296 N331 2.145 . S
Co296 N352 2.257 . S
O297 Co295 2.143 . S
O297 Co296 2.160 . S
C298 O299 1.278 . S
C298 O306 1.224 . S
O299 C298 1.278 . S
C300 O301 1.245 . S
C300 O312 1.232 . S
O301 C300 1.245 . S
O302 Co296 2.058 . S
O302 C328 1.269 . S
O303 Co295 2.074 . S
O303 C328 1.257 . S
H304 C329 0.930 . S
H305 C335 0.930 . S
O306 Co295 2.093 . S
O306 C298 1.224 . S
H307 C339 0.929 . S
H308 C341 0.930 . S
H309 C342 0.930 . S
H310 C340 0.929 . S
H311 C343 0.928 . S
O312 Co296 2.057 . S
O312 C300 1.232 . S
H313 C332 0.929 . S
H314 C333 0.929 . S
H315 C345 0.931 . S
H316 C337 0.929 . S
H317 C346 0.930 . S
H318 C338 0.931 . S
O319 Co295 2.097 . S
O319 C347 1.214 . S
H320 C348 0.929 . S
H321 C349 0.929 . S
H322 C350 0.930 . S
H323 C351 0.929 . S
H324 C353 0.930 . S
H325 C330 0.930 . S
H326 C334 0.930 . S
O327 Co296 2.037 . S
O327 C347 1.234 . S
C328 O302 1.269 . S
C328 O303 1.257 . S
C329 H304 0.930 . S
C329 C332 1.388 . S
C329 C334 1.418 . S
C330 H325 0.930 . S
C330 C333 1.404 . S
C330 C334 1.353 . S
N331 Co296 2.145 . S
N331 C332 1.397 . S
N331 C333 1.334 . S
C332 H313 0.929 . S
C332 C329 1.388 . S
C332 N331 1.397 . S
C333 H314 0.929 . S
C333 C330 1.404 . S
C333 N331 1.334 . S
C334 H326 0.930 . S
C334 C329 1.418 . S
C334 C330 1.353 . S
C335 H305 0.930 . S
C335 N336 1.330 . S
C335 C337 1.446 . S
N336 Co295 2.151 . S
N336 C335 1.330 . S
N336 C340 1.418 . S
C337 H316 0.929 . S
C337 C335 1.446 . S
C337 C338 1.332 . S
C338 H318 0.931 . S
C338 C337 1.332 . S
C338 C339 1.267 . S
C339 H307 0.929 . S
C339 C338 1.267 . S
C339 C340 1.251 . S
C340 H310 0.929 . S
C340 N336 1.418 . S
C340 C339 1.251 . S
C341 H308 0.930 . S
C341 C343 1.406 . S
C341 C346 1.261 . S
C342 H309 0.930 . S
C342 N344 1.325 . S
C342 C345 1.357 . S
C343 H311 0.928 . S
C343 C341 1.406 . S
C343 N344 1.261 . S
N344 Co295 2.214 . S
N344 C342 1.325 . S
N344 C343 1.261 . S
C345 H315 0.931 . S
C345 C342 1.357 . S
C345 C346 1.312 . S
C346 H317 0.930 . S
C346 C341 1.261 . S
C346 C345 1.312 . S
C347 O319 1.214 . S
C347 O327 1.234 . S
C348 H320 0.929 . S
C348 C351 1.391 . S
C348 C353 1.391 . S
C349 H321 0.929 . S
C349 C350 1.390 . S
C349 N352 1.391 . S
C350 H322 0.930 . S
C350 C349 1.390 . S
C350 C351 1.392 . S
C351 H323 0.929 . S
C351 C348 1.391 . S
C351 C350 1.392 . S
N352 Co296 2.257 . S
N352 C349 1.391 . S
N352 C353 1.388 . S
C353 H324 0.930 . S
C353 C348 1.391 . S
C353 N352 1.388 . S
C354 C355 1.369 . S
C354 C356 1.419 1_545 S
C354 H358 0.930 . S
C355 C354 1.369 . S
C355 C364 1.429 . S
C356 C354 1.419 1_565 S
C356 C357 1.363 . S
C356 H359 0.929 . S
C357 C356 1.363 . S
C357 C363 1.428 . S
H358 C354 0.930 . S
H359 C356 0.929 . S
S360 N361 1.613 . S
S360 N362 1.610 1_545 S
N361 S360 1.613 . S
N361 C364 1.350 . S
N362 S360 1.610 1_565 S
N362 C363 1.351 . S
C363 C357 1.428 . S
C363 N362 1.351 . S
C363 C364 1.434 1_565 S
C364 C355 1.429 . S
C364 N361 1.350 . S
C364 C363 1.434 1_545 S
C365 C366 1.369 . S
C365 C367 1.419 . S
C365 H369 0.930 . S
C366 C365 1.369 . S
C366 C375 1.429 . S
C367 C365 1.419 . S
C367 C368 1.363 . S
C367 H370 0.929 . S
C368 C367 1.363 . S
C368 C374 1.428 . S
H369 C365 0.930 . S
H370 C367 0.929 . S
S371 N372 1.613 . S
S371 N373 1.610 . S
N372 S371 1.613 . S
N372 C375 1.350 . S
N373 S371 1.610 . S
N373 C374 1.351 . S
C374 C368 1.428 . S
C374 N373 1.351 . S
C374 C375 1.434 . S
C375 C366 1.429 . S
C375 N372 1.350 . S
C375 C374 1.434 . S
C376 C377 1.369 . S
C376 C378 1.419 1_655 S
C376 H380 0.930 . S
C377 C376 1.369 . S
C377 C386 1.429 . S
C378 C376 1.419 1_455 S
C378 C379 1.363 . S
C378 H381 0.929 . S
C379 C378 1.363 . S
C379 C385 1.428 . S
H380 C376 0.930 . S
H381 C378 0.929 . S
S382 N383 1.613 . S
S382 N384 1.610 1_655 S
N383 S382 1.613 . S
N383 C386 1.350 . S
N384 S382 1.610 1_455 S
N384 C385 1.351 . S
C385 C379 1.428 . S
C385 N384 1.351 . S
C385 C386 1.434 1_455 S
C386 C377 1.429 . S
C386 N383 1.350 . S
C386 C385 1.434 1_655 S
C387 C388 1.369 . S
C387 C389 1.419 1_455 S
C387 H391 0.930 . S
C388 C387 1.369 . S
C388 C397 1.429 . S
C389 C387 1.419 1_655 S
C389 C390 1.363 . S
C389 H392 0.929 . S
C390 C389 1.363 . S
C390 C396 1.428 . S
H391 C387 0.930 . S
H392 C389 0.929 . S
S393 N394 1.613 1_655 S
S393 N395 1.610 . S
N394 S393 1.613 1_455 S
N394 C397 1.350 . S
N395 S393 1.610 . S
N395 C396 1.351 . S
C396 C390 1.428 . S
C396 N395 1.351 . S
C396 C397 1.434 1_655 S
C397 C388 1.429 . S
C397 N394 1.350 . S
C397 C396 1.434 1_455 S
C398 C399 1.369 . S
C398 C400 1.419 1_565 S
C398 H402 0.930 . S
C399 C398 1.369 . S
C399 C408 1.429 . S
C400 C398 1.419 1_545 S
C400 C401 1.363 . S
C400 H403 0.929 . S
C401 C400 1.363 . S
C401 C407 1.428 . S
H402 C398 0.930 . S
H403 C400 0.929 . S
S404 N405 1.613 1_545 S
S404 N406 1.610 . S
N405 S404 1.613 1_565 S
N405 C408 1.350 . S
N406 S404 1.610 . S
N406 C407 1.351 . S
C407 C401 1.428 . S
C407 N406 1.351 . S
C407 C408 1.434 1_545 S
C408 C399 1.429 . S
C408 N405 1.350 . S
C408 C407 1.434 1_565 S
C409 C410 1.369 . S
C409 C411 1.419 . S
C409 H413 0.930 . S
C410 C409 1.369 . S
C410 C419 1.429 . S
C411 C409 1.419 . S
C411 C412 1.363 . S
C411 H414 0.929 . S
C412 C411 1.363 . S
C412 C418 1.428 . S
H413 C409 0.930 . S
H414 C411 0.929 . S
S415 N416 1.613 . S
S415 N417 1.610 . S
N416 S415 1.613 . S
N416 C419 1.350 . S
N417 S415 1.610 . S
N417 C418 1.351 . S
C418 C412 1.428 . S
C418 N417 1.351 . S
C418 C419 1.434 . S
C419 C410 1.429 . S
C419 N416 1.350 . S
C419 C418 1.434 . S
C420 C421 1.369 . S
C420 C422 1.419 1_556 S
C420 H424 0.930 . S
C421 C420 1.369 . S
C421 C430 1.429 . S
C422 C420 1.419 1_554 S
C422 C423 1.363 . S
C422 H425 0.929 . S
C423 C422 1.363 . S
C423 C429 1.428 . S
H424 C420 0.930 . S
H425 C422 0.929 . S
S426 N427 1.613 1_554 S
S426 N428 1.610 . S
N427 S426 1.613 1_556 S
N427 C430 1.350 . S
N428 S426 1.610 . S
N428 C429 1.351 . S
C429 C423 1.428 . S
C429 N428 1.351 . S
C429 C430 1.434 1_554 S
C430 C421 1.429 . S
C430 N427 1.350 . S
C430 C429 1.434 1_556 S
C431 C432 1.369 . S
C431 C433 1.419 . S
C431 H435 0.930 . S
C432 C431 1.369 . S
C432 C441 1.429 . S
C433 C431 1.419 . S
C433 C434 1.363 . S
C433 H436 0.929 . S
C434 C433 1.363 . S
C434 C440 1.428 . S
H435 C431 0.930 . S
H436 C433 0.929 . S
S437 N438 1.613 . S
S437 N439 1.610 . S
N438 S437 1.613 . S
N438 C441 1.350 . S
N439 S437 1.610 . S
N439 C440 1.351 . S
C440 C434 1.428 . S
C440 N439 1.351 . S
C440 C441 1.434 . S
C441 C432 1.429 . S
C441 N438 1.350 . S
C441 C440 1.434 . S
C442 C443 1.369 . S
C442 C444 1.419 . S
C442 H446 0.930 . S
C443 C442 1.369 . S
C443 C452 1.429 . S
C444 C442 1.419 . S
C444 C445 1.363 . S
C444 H447 0.929 . S
C445 C444 1.363 . S
C445 C451 1.428 . S
H446 C442 0.930 . S
H447 C444 0.929 . S
S448 N449 1.613 . S
S448 N450 1.610 . S
N449 S448 1.613 . S
N449 C452 1.350 . S
N450 S448 1.610 . S
N450 C451 1.351 . S
C451 C445 1.428 . S
C451 N450 1.351 . S
C451 C452 1.434 . S
C452 C443 1.429 . S
C452 N449 1.350 . S
C452 C451 1.434 . S
C453 C454 1.369 . S
C453 C455 1.419 1_556 S
C453 H457 0.930 . S
C454 C453 1.369 . S
C454 C463 1.429 . S
C455 C453 1.419 1_554 S
C455 C456 1.363 . S
C455 H458 0.929 . S
C456 C455 1.363 . S
C456 C462 1.428 . S
H457 C453 0.930 . S
H458 C455 0.929 . S
S459 N460 1.613 . S
S459 N461 1.610 1_556 S
N460 S459 1.613 . S
N460 C463 1.350 . S
N461 S459 1.610 1_554 S
N461 C462 1.351 . S
C462 C456 1.428 . S
C462 N461 1.351 . S
C462 C463 1.434 1_554 S
C463 C454 1.429 . S
C463 N460 1.350 . S
C463 C462 1.434 1_556 S
C464 C465 1.369 . S
C464 C466 1.419 . S
C464 H468 0.930 . S
C465 C464 1.369 . S
C465 C474 1.429 . S
C466 C464 1.419 . S
C466 C467 1.363 . S
C466 H469 0.929 . S
C467 C466 1.363 . S
C467 C473 1.428 . S
H468 C464 0.930 . S
H469 C466 0.929 . S
S470 N471 1.613 . S
S470 N472 1.610 . S
N471 S470 1.613 . S
N471 C474 1.350 . S
N472 S470 1.610 . S
N472 C473 1.351 . S
C473 C467 1.428 . S
C473 N472 1.351 . S
C473 C474 1.434 . S
C474 C465 1.429 . S
C474 N471 1.350 . S
C474 C473 1.434 . S
C475 C476 1.369 . S
C475 C477 1.419 . S
C475 H479 0.930 . S
C476 C475 1.369 . S
C476 C485 1.429 . S
C477 C475 1.419 . S
C477 C478 1.363 . S
C477 H480 0.929 . S
C478 C477 1.363 . S
C478 C484 1.428 . S
H479 C475 0.930 . S
H480 C477 0.929 . S
S481 N482 1.613 . S
S481 N483 1.610 . S
N482 S481 1.613 . S
N482 C485 1.350 . S
N483 S481 1.610 . S
N483 C484 1.351 . S
C484 C478 1.428 . S
C484 N483 1.351 . S
C484 C485 1.434 . S
C485 C476 1.429 . S
C485 N482 1.350 . S
C485 C484 1.434 . S
C355 C5 1.255 . S
C357 C182 1.256 . S
C366 C64 1.256 . S
C368 C241 1.255 . S
C377 C123 1.255 . S
C379 C300 1.256 . S
C388 C111 1.796 . S
C390 C288 1.797 . S
C399 C347 1.797 . S
C401 C170 1.798 . S
C410 C229 1.797 . S
C412 C52 1.797 . S
C421 C151 1.456 . S
C423 C3 1.436 . S
C432 C210 1.457 . S
C434 C62 1.436 . S
C443 C121 1.437 . S
C445 C269 1.455 . S
C454 C328 1.449 . S
C456 C180 1.443 . S
C465 C239 1.441 . S
C467 C33 1.453 . S
C476 C298 1.437 . S
C478 C92 1.455 . S
