# Generated by pormake.
# Topology snk, (6)-cn, num edge types: 1
# Building blocks:
#     Node 0, Type 0, BuildingBlock: FUNLAD_clean_sbu_0, # of connection points: 6
#     Node 1, Type 0, BuildingBlock: FUNLAD_clean_sbu_0, # of connection points: 6
#     Node 2, Type 0, BuildingBlock: FUNLAD_clean_sbu_0, # of connection points: 6
#     Node 3, Type 0, BuildingBlock: FUNLAD_clean_sbu_0, # of connection points: 6
#     Node 4, Type 0, BuildingBlock: FUNLAD_clean_sbu_0, # of connection points: 6
#     Node 5, Type 0, BuildingBlock: FUNLAD_clean_sbu_0, # of connection points: 6
#     Node 6, Type 0, BuildingBlock: FUNLAD_clean_sbu_0, # of connection points: 6
#     Node 7, Type 0, BuildingBlock: FUNLAD_clean_sbu_0, # of connection points: 6
#     Edge 8, Type (0, 0), BuildingBlock: CIFDUS_clean_linker_0, # of connection points: 2
#     Edge 9, Type (0, 0), BuildingBlock: CIFDUS_clean_linker_0, # of connection points: 2
#     Edge 10, Type (0, 0), BuildingBlock: CIFDUS_clean_linker_0, # of connection points: 2
#     Edge 11, Type (0, 0), BuildingBlock: CIFDUS_clean_linker_0, # of connection points: 2
#     Edge 12, Type (0, 0), BuildingBlock: CIFDUS_clean_linker_0, # of connection points: 2
#     Edge 13, Type (0, 0), BuildingBlock: CIFDUS_clean_linker_0, # of connection points: 2
#     Edge 14, Type (0, 0), BuildingBlock: CIFDUS_clean_linker_0, # of connection points: 2
#     Edge 15, Type (0, 0), BuildingBlock: CIFDUS_clean_linker_0, # of connection points: 2
#     Edge 16, Type (0, 0), BuildingBlock: CIFDUS_clean_linker_0, # of connection points: 2
#     Edge 17, Type (0, 0), BuildingBlock: CIFDUS_clean_linker_0, # of connection points: 2
#     Edge 18, Type (0, 0), BuildingBlock: CIFDUS_clean_linker_0, # of connection points: 2
#     Edge 19, Type (0, 0), BuildingBlock: CIFDUS_clean_linker_0, # of connection points: 2
#     Edge 20, Type (0, 0), BuildingBlock: CIFDUS_clean_linker_0, # of connection points: 2
#     Edge 21, Type (0, 0), BuildingBlock: CIFDUS_clean_linker_0, # of connection points: 2
#     Edge 22, Type (0, 0), BuildingBlock: CIFDUS_clean_linker_0, # of connection points: 2
#     Edge 23, Type (0, 0), BuildingBlock: CIFDUS_clean_linker_0, # of connection points: 2
#     Edge 24, Type (0, 0), BuildingBlock: CIFDUS_clean_linker_0, # of connection points: 2
#     Edge 25, Type (0, 0), BuildingBlock: CIFDUS_clean_linker_0, # of connection points: 2
#     Edge 26, Type (0, 0), BuildingBlock: CIFDUS_clean_linker_0, # of connection points: 2
#     Edge 27, Type (0, 0), BuildingBlock: CIFDUS_clean_linker_0, # of connection points: 2
#     Edge 28, Type (0, 0), BuildingBlock: CIFDUS_clean_linker_0, # of connection points: 2
#     Edge 29, Type (0, 0), BuildingBlock: CIFDUS_clean_linker_0, # of connection points: 2
#     Edge 30, Type (0, 0), BuildingBlock: CIFDUS_clean_linker_0, # of connection points: 2
#     Edge 31, Type (0, 0), BuildingBlock: CIFDUS_clean_linker_0, # of connection points: 2
# Relax obj value: 0.292
# Max RMSD: 0.126
# Mean RMSD: 0.094
data_MOF--net-snk--node1-FUNLAD_clean_sbu_0--edge1-CIFDUS_clean_linker_0
_symmetry_space_group_name_H-M    P1
_symmetry_Int_Tables_number       1
_symmetry_cell_setting            triclinic
loop_
_symmetry_equiv_pos_as_xyz
'x, y, z'
_cell_length_a     43.790263
_cell_length_b     43.68168
_cell_length_c     13.408274
_cell_angle_alpha  77.553673
_cell_angle_beta   76.960438
_cell_angle_gamma 96.313731
loop_
_atom_site_label
_atom_site_type_symbol
_atom_site_fract_x
_atom_site_fract_y
_atom_site_fract_z
_atom_type_partial_charge
C0 C 1.03913 0.04895 0.71411 0.0
N1 N 0.09408 0.99521 0.54322 0.0
C2 C 0.11655 1.00527 0.59004 0.0
C3 C 0.14061 0.98779 0.60572 0.0
C4 C 0.14164 0.95923 0.57449 0.0
C5 C 0.11768 0.94869 0.52921 0.0
C6 C 0.09411 0.96729 0.51344 0.0
Zn7 Zn 0.06233 1.02611 0.51617 0.0
C8 C 0.99326 0.99527 0.56929 0.0
N9 N 1.00189 0.09589 0.46857 0.0
C10 C 1.00471 0.12432 0.49458 0.0
C11 C 0.98087 0.0887 0.41281 0.0
C12 C 0.96244 0.11078 0.37795 0.0
C13 C 0.96538 0.1407 0.40084 0.0
C14 C 0.98655 0.14713 0.46162 0.0
Zn15 Zn 1.03183 0.06385 0.49871 0.0
O16 O 0.05522 1.03003 0.67417 0.0
C17 C 0.10004 0.09534 0.44577 0.0
O18 O 1.02518 0.06694 0.65767 0.0
H19 H 0.97909 0.06612 0.392 0.0
H20 H 0.11615 1.02728 0.61445 0.0
H21 H 1.02161 0.12964 0.53868 0.0
O22 O 0.10257 0.06594 0.46594 0.0
O23 O 0.07233 0.10243 0.45183 0.0
H24 H 0.07616 0.95964 0.47619 0.0
O25 O 1.03923 0.0601 0.34046 0.0
O26 O 0.06878 1.02282 0.35751 0.0
O27 O 0.99173 1.02491 0.547 0.0
O28 O 1.02069 0.98719 0.56494 0.0
C29 C 0.05509 1.04101 0.30075 0.0
H30 H 0.15825 0.99655 0.64247 0.0
H31 H 0.11764 0.92677 0.50388 0.0
H32 H 0.94692 0.10479 0.33009 0.0
H33 H 0.98933 0.16967 0.48261 0.0
C34 C 0.30029 0.79368 0.92049 0.0
N35 N 0.36196 0.85727 0.6533 0.0
C36 C 0.35713 0.87732 0.71773 0.0
C37 C 0.38168 0.88766 0.75876 0.0
C38 C 0.41067 0.87664 0.73342 0.0
C39 C 0.41684 0.86169 0.65045 0.0
C40 C 0.39175 0.85262 0.60911 0.0
Zn41 Zn 0.32645 0.8201 0.68301 0.0
C42 C 0.35198 0.75824 0.71759 0.0
N43 N 0.25374 0.73857 0.75855 0.0
C44 C 0.22832 0.74552 0.72109 0.0
C45 C 0.26589 0.71201 0.74429 0.0
C46 C 0.26195 0.69991 0.65928 0.0
C47 C 0.24161 0.71255 0.59952 0.0
C48 C 0.22174 0.73262 0.64055 0.0
Zn49 Zn 0.28842 0.77774 0.73213 0.0
O50 O 0.31872 0.81627 0.84865 0.0
C51 C 0.26188 0.8386 0.69941 0.0
O52 O 0.28327 0.77267 0.89489 0.0
H53 H 0.28273 0.7034 0.78663 0.0
H54 H 0.33324 0.88059 0.75189 0.0
H55 H 0.21581 0.76405 0.74239 0.0
O56 O 0.29114 0.85124 0.67228 0.0
O57 O 0.25463 0.80857 0.73166 0.0
H58 H 0.39498 0.83701 0.55633 0.0
O59 O 0.2947 0.78306 0.56559 0.0
O60 O 0.33367 0.82355 0.52081 0.0
O61 O 0.32279 0.74839 0.73201 0.0
O62 O 0.36146 0.78801 0.69572 0.0
C63 C 0.31524 0.8041 0.49428 0.0
H64 H 0.37645 0.89947 0.82243 0.0
H65 H 0.4391 0.8531 0.629 0.0
H66 H 0.2765 0.68279 0.63754 0.0
H67 H 0.20288 0.7403 0.60639 0.0
C68 C 0.49606 1.00915 0.92813 0.0
N69 N 0.45855 0.9504 0.23381 0.0
C70 C 0.42995 0.94394 0.21294 0.0
C71 C 0.41687 0.9125 0.22361 0.0
C72 C 0.43487 0.88852 0.24814 0.0
C73 C 0.46066 0.89524 0.28979 0.0
C74 C 0.4721 0.92688 0.28266 0.0
Zn75 Zn 0.4874 0.99251 0.15869 0.0
C76 C 0.55566 0.97872 0.0783 0.0
N77 N 0.55331 0.07581 0.00751 0.0
C78 C 0.54083 0.09775 0.9467 0.0
C79 C 0.58249 0.08272 0.02358 0.0
C80 C 0.59938 0.11347 0.9837 0.0
C81 C 0.58563 0.13713 0.92917 0.0
C82 C 0.55647 0.12903 0.90802 0.0
Zn83 Zn 0.5252 1.03394 0.08419 0.0
O84 O 0.47841 0.98931 0.01028 0.0
C85 C 0.45842 0.04935 0.15931 0.0
O86 O 0.51659 1.03021 0.93874 0.0
H87 H 0.59181 0.06486 0.07216 0.0
H88 H 0.4195 0.96303 0.175 0.0
H89 H 0.51776 0.09152 0.9334 0.0
O90 O 0.44891 1.01942 0.18961 0.0
O91 O 0.48759 0.05952 0.11498 0.0
H92 H 0.49438 0.93267 0.3018 0.0
O93 O 0.53381 1.03728 0.23296 0.0
O94 O 0.4963 0.99564 0.304 0.0
O95 O 0.56339 1.00875 0.05305 0.0
O96 O 0.5267 0.96658 0.12346 0.0
C97 C 0.51655 1.01695 0.31485 0.0
H98 H 0.39664 0.90799 0.19167 0.0
H99 H 0.47491 0.87723 0.30999 0.0
H100 H 0.6217 0.11933 0.00296 0.0
H101 H 0.54522 0.14695 0.86744 0.0
C102 C 0.28888 0.30803 0.0446 0.0
N103 N 0.3376 0.24991 0.22556 0.0
C104 C 0.32879 0.22666 0.17929 0.0
C105 C 0.34641 0.20208 0.17067 0.0
C106 C 0.37366 0.20137 0.2091 0.0
C107 C 0.38245 0.22587 0.25549 0.0
C108 C 0.36395 0.24992 0.26333 0.0
Zn109 Zn 0.30795 0.28321 0.24458 0.0
C110 C 0.34319 0.35222 0.19175 0.0
N111 N 0.24251 0.349 0.2828 0.0
C112 C 0.21756 0.3394 0.37028 0.0
C113 C 0.24645 0.37816 0.21535 0.0
C114 C 0.22476 0.39886 0.23498 0.0
C115 C 0.19865 0.38934 0.32439 0.0
C116 C 0.19529 0.35915 0.39235 0.0
Zn117 Zn 0.27407 0.31786 0.25924 0.0
O118 O 0.30594 0.28986 0.08559 0.0
C119 C 0.23814 0.25012 0.31091 0.0
O120 O 0.2726 0.32375 0.09994 0.0
H121 H 0.26644 0.3854 0.14631 0.0
H122 H 0.30781 0.22696 0.14954 0.0
H123 H 0.21495 0.31634 0.42378 0.0
O124 O 0.26651 0.24425 0.29214 0.0
O125 O 0.23442 0.27895 0.30403 0.0
H126 H 0.37045 0.26838 0.30069 0.0
O127 O 0.27632 0.31141 0.41796 0.0
O128 O 0.30929 0.27725 0.40408 0.0
O129 O 0.31421 0.3563 0.21292 0.0
O130 O 0.34876 0.32375 0.19731 0.0
C131 C 0.29319 0.29311 0.45921 0.0
H132 H 0.339 0.18404 0.13286 0.0
H133 H 0.40317 0.22621 0.28687 0.0
H134 H 0.22815 0.42187 0.1801 0.0
H135 H 0.17585 0.351 0.46302 0.0
C136 C 0.80365 0.29985 0.34751 0.0
N137 N 0.87717 0.35022 0.08632 0.0
C138 C 0.87289 0.37748 0.11712 0.0
C139 C 0.89388 0.39026 0.16654 0.0
C140 C 0.91858 0.3741 0.18705 0.0
C141 C 0.92611 0.35008 0.1362 0.0
C142 C 0.90507 0.33884 0.08302 0.0
Zn143 Zn 0.8367 0.31856 0.10934 0.0
C144 C 0.84873 0.2511 0.17929 0.0
N145 N 0.75315 0.25125 0.18128 0.0
C146 C 0.72491 0.26201 0.19991 0.0
C147 C 0.75727 0.22735 0.13198 0.0
C148 C 0.73465 0.21734 0.0832 0.0
C149 C 0.70808 0.23264 0.08326 0.0
C150 C 0.7021 0.25358 0.14875 0.0
Zn151 Zn 0.79322 0.28221 0.16095 0.0
O152 O 0.82647 0.3178 0.27476 0.0
C153 C 0.77985 0.34905 0.09716 0.0
O154 O 0.7835 0.28155 0.32286 0.0
H155 H 0.77977 0.21899 0.11755 0.0
H156 H 0.85115 0.38693 0.11813 0.0
H157 H 0.72172 0.28033 0.24235 0.0
O158 O 0.8098 0.35658 0.07764 0.0
O159 O 0.76757 0.32002 0.13273 0.0
H160 H 0.90908 0.31826 0.05258 0.0
O161 O 0.80315 0.28345 -0.00422 0.0
O162 O 0.84685 0.31855 0.94734 0.0
O163 O 0.81898 0.24432 0.1919 0.0
O164 O 0.86204 0.27994 0.14326 0.0
C165 C 0.82634 0.3006 0.923 0.0
H166 H 0.88829 0.40986 0.20116 0.0
H167 H 0.94567 0.33774 0.14771 0.0
H168 H 0.73928 0.1996 0.03888 0.0
H169 H 0.68152 0.26536 0.15366 0.0
C170 C 0.78724 0.8099 0.56145 0.0
N171 N 0.83298 0.74904 0.74156 0.0
C172 C 0.82355 0.72664 0.69315 0.0
C173 C 0.84256 0.70412 0.67058 0.0
C174 C 0.87184 0.70479 0.69672 0.0
C175 C 0.881 0.72802 0.74717 0.0
C176 C 0.86103 0.74994 0.76945 0.0
Zn177 Zn 0.80447 0.78262 0.76422 0.0
C178 C 0.84456 0.84915 0.71148 0.0
N179 N 0.74392 0.85316 0.79978 0.0
C180 C 0.71507 0.85005 0.7773 0.0
C181 C 0.75226 0.8759 0.84857 0.0
C182 C 0.73114 0.89616 0.87821 0.0
C183 C 0.70085 0.89287 0.8589 0.0
C184 C 0.69307 0.86959 0.80673 0.0
Zn185 Zn 0.77376 0.82016 0.77507 0.0
O186 O 0.80247 0.79016 0.60504 0.0
C187 C 0.73481 0.75265 0.82615 0.0
O188 O 0.77253 0.82715 0.61458 0.0
H189 H 0.77501 0.87776 0.86753 0.0
H190 H 0.80143 0.72652 0.67008 0.0
H191 H 0.70873 0.83186 0.73872 0.0
O192 O 0.76276 0.74589 0.80942 0.0
O193 O 0.73189 0.78179 0.81934 0.0
H194 H 0.86813 0.76792 0.80776 0.0
O195 O 0.77556 0.81249 0.93441 0.0
O196 O 0.80587 0.77584 0.92447 0.0
O197 O 0.81702 0.85731 0.72937 0.0
O198 O 0.846 0.81974 0.71905 0.0
C199 C 0.79097 0.79292 0.9778 0.0
H200 H 0.83481 0.6869 0.63034 0.0
H201 H 0.90334 0.72919 0.76925 0.0
H202 H 0.7381 0.91354 0.91907 0.0
H203 H 0.67015 0.86645 0.78907 0.0
C204 C 0.54233 0.54462 0.19725 0.0
N205 N 0.59951 0.49544 0.01168 0.0
C206 C 0.6228 0.50162 0.06042 0.0
C207 C 0.64468 0.4809 0.07219 0.0
C208 C 0.64254 0.45343 0.03399 0.0
C209 C 0.61836 0.44779 0.98348 0.0
C210 C 0.59708 0.46916 0.97306 0.0
Zn211 Zn 0.56778 0.52647 -0.00556 0.0
C212 C 0.49951 0.49067 0.04452 0.0
N213 N 0.50285 0.59261 0.9595 0.0
C214 C 0.50439 0.61856 0.00017 0.0
C215 C 0.48422 0.58947 0.8925 0.0
C216 C 0.46738 0.61351 0.86031 0.0
C217 C 0.46892 0.64102 0.899 0.0
C218 C 0.48736 0.64295 0.9717 0.0
Zn219 Zn 0.53323 0.56032 0.98241 0.0
O220 O 0.56097 0.52808 0.15424 0.0
C221 C 0.60177 0.59524 0.9346 0.0
O222 O 0.52631 0.56063 0.14348 0.0
H223 H 0.48332 0.56878 0.8605 0.0
H224 H 0.62435 0.5226 0.09076 0.0
H225 H 0.51954 0.62082 0.05259 0.0
O226 O 0.60638 0.56646 0.95029 0.0
O227 O 0.5733 0.60039 0.9415 0.0
H228 H 0.57857 0.46474 0.93398 0.0
O229 O 0.541 0.55931 0.82157 0.0
O230 O 0.57416 0.52544 0.83417 0.0
O231 O 0.49368 0.51916 0.02515 0.0
O232 O 0.52832 0.48691 0.03885 0.0
C233 C 0.55894 0.54215 0.77936 0.0
H234 H 0.66268 0.48603 0.11272 0.0
H235 H 0.61602 0.42713 0.95162 0.0
H236 H 0.45415 0.61082 0.80277 0.0
H237 H 0.48894 0.66319 0.0058 0.0
C238 C 1.04475 0.56871 0.2711 0.0
N239 N 0.99554 0.50605 0.56089 0.0
C240 C 0.96763 0.50572 0.53296 0.0
C241 C 0.94657 0.47729 0.55842 0.0
C242 C 0.95501 0.44919 0.6104 0.0
C243 C 0.98195 0.45099 0.64968 0.0
C244 C 1.00207 0.48001 0.62392 0.0
Zn245 Zn 1.03046 0.54383 0.49894 0.0
C246 C 0.09337 0.52297 0.44114 0.0
N247 N 0.10559 0.62075 0.38565 0.0
C248 C 0.10507 0.64431 0.30106 0.0
C249 C 0.13243 0.61759 0.41802 0.0
C250 C 0.16044 0.63803 0.36346 0.0
C251 C 0.16122 0.66223 0.2735 0.0
C252 C 0.13286 0.66546 0.24331 0.0
Zn253 Zn 0.06939 0.5843 0.44991 0.0
O254 O 1.02507 0.547 0.34257 0.0
C255 C 1.00746 0.6057 0.50649 0.0
O256 O 0.0647 0.58662 0.297 0.0
H257 H 0.13231 0.59854 0.48477 0.0
H258 H 0.96295 0.52686 0.48376 0.0
H259 H 0.08333 0.64616 0.27644 0.0
O260 O 0.99738 0.57601 0.52548 0.0
O261 O 1.03709 0.61592 0.47072 0.0
H262 H 1.02422 0.48105 0.64688 0.0
O263 O 0.07367 0.58185 0.60717 0.0
O264 O 1.03588 0.54047 0.65161 0.0
O265 O 0.10244 0.55246 0.42818 0.0
O266 O 0.0638 0.51219 0.47153 0.0
C267 C 0.05492 0.55923 0.67808 0.0
H268 H 0.92612 0.47661 0.52558 0.0
H269 H 0.9892 0.42968 0.68896 0.0
H270 H 0.18106 0.63503 0.39402 0.0
H271 H 0.13217 0.6841 0.17635 0.0
H272 H 0.10333 0.16031 0.41967 0.0
H273 H 0.16278 0.08801 0.41036 0.0
H274 H 0.21015 0.12843 0.36875 0.0
H275 H 0.23545 0.18489 0.33478 0.0
H276 H 0.17548 0.25675 0.34772 0.0
H277 H 0.12841 0.21637 0.38769 0.0
C278 C 0.12662 0.1533 0.40825 0.0
C279 C 0.12907 0.12079 0.41807 0.0
C280 C 0.15408 0.17685 0.38498 0.0
C281 C 0.15976 0.1126 0.40339 0.0
C282 C 0.18705 0.13583 0.37953 0.0
C283 C 0.21211 0.19178 0.34654 0.0
C284 C 0.20948 0.22424 0.33789 0.0
C285 C 0.18463 0.16812 0.3702 0.0
C286 C 0.17871 0.23225 0.35363 0.0
C287 C 0.15154 0.20903 0.37655 0.0
H288 H 0.13705 0.89581 0.6602 0.0
H289 H 0.20526 0.98208 0.52217 0.0
H290 H 0.2485 0.9531 0.55099 0.0
H291 H 0.26716 0.90284 0.61487 0.0
H292 H 0.19813 0.81702 0.75676 0.0
H293 H 0.15542 0.84609 0.72751 0.0
C294 C 0.16141 0.90817 0.63571 0.0
C295 C 0.16788 0.94102 0.58881 0.0
C296 C 0.18616 0.89143 0.65386 0.0
C297 C 0.19958 0.95681 0.55896 0.0
C298 C 0.22435 0.94024 0.57535 0.0
C299 C 0.24277 0.89056 0.64009 0.0
C300 C 0.23611 0.85768 0.68778 0.0
C301 C 0.21797 0.90751 0.62309 0.0
C302 C 0.20422 0.84225 0.71963 0.0
C303 C 0.17961 0.85885 0.70275 0.0
H304 H 0.38952 0.83579 0.92128 0.0
H305 H 0.47034 0.90512 0.72709 0.0
H306 H 0.49193 0.90451 0.88133 0.0
H307 H 0.47987 0.89488 0.07325 0.0
H308 H 0.39302 0.83464 0.26747 0.0
H309 H 0.38278 0.81845 0.11222 0.0
C310 C 0.41233 0.85006 0.9128 0.0
C311 C 0.42814 0.87116 0.81511 0.0
C312 C 0.42343 0.8507 0.00211 0.0
C313 C 0.45776 0.88925 0.80271 0.0
C314 C 0.46995 0.88882 0.89066 0.0
C315 C 0.4595 0.87698 0.08208 0.0
C316 C 0.43687 0.86616 0.18039 0.0
C317 C 0.45196 0.87111 -0.00856 0.0
C318 C 0.41048 0.84325 0.19205 0.0
C319 C 0.40436 0.83467 0.1031 0.0
H320 H 0.47624 0.11251 0.1295 0.0
H321 H 0.39273 1.03997 0.22779 0.0
H322 H 0.35899 0.0806 0.2519 0.0
H323 H 0.35358 0.13715 0.24403 0.0
H324 H 0.4382 0.20833 0.1473 0.0
H325 H 0.47115 0.16762 0.12444 0.0
C326 C 0.45062 0.10536 0.15612 0.0
C327 C 0.43707 0.07309 0.17626 0.0
C328 C 0.43159 0.12868 0.17046 0.0
C329 C 0.40383 0.06455 0.21158 0.0
C330 C 0.38456 0.08781 0.22526 0.0
C331 C 0.37923 0.14373 0.21758 0.0
C332 C 0.39335 0.17588 0.19768 0.0
C333 C 0.3982 0.12001 0.20469 0.0
C334 C 0.42666 0.18386 0.16461 0.0
C335 C 0.44554 0.16058 0.15087 0.0
H336 H 0.98512 0.92924 0.60041 0.0
H337 H 0.93208 1.00677 0.60345 0.0
H338 H 0.88241 0.96976 0.64659 0.0
H339 H 0.85287 0.91492 0.68349 0.0
H340 H 0.90578 0.83737 0.67796 0.0
H341 H 0.95551 0.8743 0.63646 0.0
C342 C 0.96274 0.9381 0.61082 0.0
C343 C 0.96293 0.97118 0.59847 0.0
C344 C 0.93368 0.91642 0.63528 0.0
C345 C 0.93325 0.98172 0.61208 0.0
C346 C 0.90454 0.96043 0.63692 0.0
C347 C 0.87523 0.90601 0.67312 0.0
C348 C 0.875 0.87299 0.68419 0.0
C349 C 0.90429 0.92765 0.64861 0.0
C350 C 0.90465 0.8624 0.67013 0.0
C351 C 0.93339 0.88364 0.64631 0.0
H352 H 0.90456 0.13217 0.37933 0.0
H353 H 0.98608 0.20484 0.32293 0.0
H354 H 0.9577 0.24498 0.24652 0.0
H355 H 0.90985 0.25959 0.19505 0.0
H356 H 0.82859 0.18686 0.24899 0.0
H357 H 0.85718 0.14656 0.32399 0.0
C358 C 0.9163 0.15672 0.34947 0.0
C359 C 0.94749 0.16532 0.35746 0.0
C360 C 0.90001 0.17969 0.30398 0.0
C361 C 0.96196 0.19746 0.31983 0.0
C362 C 0.94584 0.22045 0.275 0.0
C363 C 0.89847 0.23488 0.22211 0.0
C364 C 0.86712 0.2263 0.21583 0.0
C365 C 0.9149 0.21184 0.26642 0.0
C366 C 0.85271 0.19417 0.25242 0.0
C367 C 0.869 0.1711 0.29579 0.0
H368 H 0.64391 0.23073 0.11908 0.0
H369 H 0.72686 0.22448 0.88334 0.0
H370 H 0.69315 0.20166 0.78748 0.0
H371 H 0.64161 0.17002 0.80282 0.0
H372 H 0.55913 0.17689 0.03697 0.0
H373 H 0.59096 0.21506 0.097 0.0
C374 C 0.65471 0.22552 0.04485 0.0
C375 C 0.68777 0.22726 0.01223 0.0
C376 C 0.63522 0.21273 -0.01064 0.0
C377 C 0.70131 0.22127 0.91401 0.0
C378 C 0.68211 0.20865 0.85817 0.0
C379 C 0.63044 0.18145 0.86252 0.0
C380 C 0.59866 0.1703 0.91797 0.0
C381 C 0.64915 0.20214 0.8996 0.0
C382 C 0.58386 0.18515 -0.00566 0.0
C383 C 0.60215 0.20647 0.03001 0.0
H384 H 0.63756 0.87469 0.9582 0.0
H385 H 0.7116 0.95696 0.84104 0.0
H386 H 0.67377 0.99047 0.90118 0.0
H387 H 0.61939 0.99671 0.98487 0.0
H388 H 0.54541 0.91425 0.10376 0.0
H389 H 0.58337 0.88073 0.04539 0.0
C390 C 0.64536 0.9 0.94513 0.0
C391 C 0.67743 0.91325 0.89467 0.0
C392 C 0.62347 0.91916 0.98072 0.0
C393 C 0.68718 0.94604 0.88016 0.0
C394 C 0.66551 0.96526 0.91433 0.0
C395 C 0.61157 0.97137 -0.00132 0.0
C396 C 0.57947 0.95814 0.04893 0.0
C397 C 0.63358 0.95211 0.96472 0.0
C398 C 0.5699 0.9252 0.06581 0.0
C399 C 0.59161 0.90595 0.03202 0.0
H400 H 0.60185 0.66002 0.91839 0.0
H401 H 0.6649 0.59099 0.89889 0.0
H402 H 0.71053 0.63251 0.8655 0.0
H403 H 0.73345 0.68856 0.84183 0.0
H404 H 0.6713 0.75825 0.86208 0.0
H405 H 0.62515 0.71679 0.89503 0.0
C406 C 0.62556 0.65403 0.90646 0.0
C407 C 0.62948 0.62197 0.91116 0.0
C408 C 0.65221 0.67835 0.88764 0.0
C409 C 0.66068 0.6151 0.89589 0.0
C410 C 0.68702 0.63899 0.87676 0.0
C411 C 0.70984 0.69482 0.85374 0.0
C412 C 0.70625 0.72687 0.84951 0.0
C413 C 0.68319 0.6707 0.87265 0.0
C414 C 0.67516 0.73404 0.865 0.0
C415 C 0.6486 0.7102 0.88375 0.0
H416 H 0.71637 0.33811 0.11789 0.0
H417 H 0.79617 0.41427 0.03656 0.0
H418 H 0.7608 0.45339 0.01025 0.0
H419 H 0.70692 0.46578 0.01034 0.0
H420 H 0.62783 0.38876 0.09294 0.0
H421 H 0.66334 0.35019 0.11796 0.0
C422 C 0.72617 0.36326 0.09449 0.0
C423 C 0.75895 0.37319 0.07947 0.0
C424 C 0.70578 0.38549 0.07939 0.0
C425 C 0.77107 0.40593 0.04862 0.0
C426 C 0.75083 0.4283 0.03369 0.0
C427 C 0.69745 0.44056 0.03448 0.0
C428 C 0.66469 0.43025 0.04924 0.0
C429 C 0.71809 0.41835 0.04904 0.0
C430 C 0.65293 0.39743 0.07939 0.0
C431 C 0.67321 0.37531 0.09436 0.0
H432 H 0.99011 0.41643 0.49804 0.0
H433 H 0.89375 0.41828 0.6612 0.0
H434 H 0.87374 0.38836 0.54812 0.0
H435 H 0.88428 0.37431 0.37904 0.0
H436 H 0.98073 0.38094 0.19824 0.0
H437 H 1.00054 0.39464 0.34295 0.0
C438 C 0.96473 0.40877 0.51229 0.0
C439 C 0.94326 0.4196 0.5865 0.0
C440 C 0.95368 0.39422 0.44129 0.0
C441 C 0.91049 0.41001 0.60432 0.0
C442 C 0.89918 0.3935 0.53843 0.0
C443 C 0.90967 0.37864 0.37153 0.0
C444 C 0.93122 0.37804 0.27704 0.0
C445 C 0.92063 0.38765 0.45235 0.0
C446 C 0.9639 0.38212 0.26961 0.0
C447 C 0.97511 0.38985 0.35218 0.0
H448 H 0.93522 0.71765 0.60352 0.0
H449 H 0.8557 0.64068 0.72468 0.0
H450 H 0.89021 0.60324 0.67355 0.0
H451 H 0.9433 0.59231 0.59595 0.0
H452 H 1.0225 0.66989 0.47359 0.0
H453 H 0.98784 0.70699 0.52343 0.0
C454 C 0.92553 0.69263 0.6196 0.0
C455 C 0.89301 0.68194 0.66835 0.0
C456 C 0.94544 0.67132 0.58925 0.0
C457 C 0.88065 0.64953 0.68683 0.0
C458 C 0.90038 0.6281 0.65776 0.0
C459 C 0.95294 0.61735 0.57962 0.0
C460 C 0.98552 0.62818 0.53117 0.0
C461 C 0.93283 0.63873 0.60878 0.0
C462 C 0.99755 0.66078 0.51078 0.0
C463 C 0.97776 0.68209 0.5395 0.0
H464 H 0.40895 0.35502 0.16068 0.0
H465 H 0.33711 0.41504 0.15504 0.0
H466 H 0.37767 0.46218 0.10987 0.0
H467 H 0.43407 0.48756 0.072 0.0
H468 H 0.50603 0.42778 0.07969 0.0
H469 H 0.46555 0.38051 0.12315 0.0
C470 C 0.4021 0.37837 0.14935 0.0
C471 C 0.3695 0.38088 0.16172 0.0
C472 C 0.42588 0.40599 0.12352 0.0
C473 C 0.36164 0.41177 0.14666 0.0
C474 C 0.385 0.43905 0.12057 0.0
C475 C 0.44101 0.46424 0.08316 0.0
C476 C 0.47355 0.4618 0.07216 0.0
C477 C 0.41728 0.43662 0.10889 0.0
C478 C 0.4815 0.43095 0.08739 0.0
C479 C 0.45819 0.40363 0.11238 0.0
H480 H 0.4126 0.63653 0.84288 0.0
H481 H 0.48648 0.7057 0.87156 0.0
H482 H 0.45803 0.74839 0.81361 0.0
H483 H 0.41109 0.76621 0.7575 0.0
H484 H 0.33996 0.69608 0.71912 0.0
H485 H 0.36918 0.65416 0.77354 0.0
C486 C 0.42306 0.6609 0.83462 0.0
C487 C 0.45179 0.66748 0.86244 0.0
C488 C 0.40711 0.68548 0.79822 0.0
C489 C 0.46412 0.69948 0.85329 0.0
C490 C 0.44801 0.72411 0.81882 0.0
C491 C 0.40234 0.74183 0.75935 0.0
C492 C 0.37316 0.7344 0.73506 0.0
C493 C 0.41936 0.71742 0.79131 0.0
C494 C 0.36212 0.70259 0.73842 0.0
C495 C 0.37879 0.67845 0.76982 0.0
H496 H 0.22443 0.74975 0.4358 0.0
H497 H 0.26182 0.66252 0.51817 0.0
H498 H 0.2555 0.64996 0.35661 0.0
H499 H 0.22341 0.65406 0.23002 0.0
H500 H 0.16637 0.72773 0.20541 0.0
H501 H 0.19822 0.75719 0.2919 0.0
C502 C 0.2306 0.72753 0.4209 0.0
C503 C 0.24181 0.70634 0.49428 0.0
C504 C 0.22375 0.71852 0.33364 0.0
C505 C 0.25241 0.67926 0.46623 0.0
C506 C 0.24882 0.67189 0.37295 0.0
C507 C 0.21886 0.67725 0.2406 0.0
C508 C 0.19025 0.68669 0.22585 0.0
C509 C 0.23234 0.69006 0.31078 0.0
C510 C 0.18661 0.71827 0.22589 0.0
C511 C 0.20416 0.73468 0.2788 0.0
H512 H 0.20991 0.45296 0.31233 0.0
H513 H 0.13396 0.37322 0.38952 0.0
H514 H 0.09485 0.40711 0.43442 0.0
H515 H 0.08205 0.45942 0.45221 0.0
H516 H 0.15804 0.53925 0.37483 0.0
H517 H 0.19708 0.50539 0.32957 0.0
C518 C 0.18478 0.44308 0.338 0.0
C519 C 0.17495 0.41056 0.34762 0.0
C520 C 0.16234 0.46271 0.3642 0.0
C521 C 0.14226 0.39808 0.38247 0.0
C522 C 0.11984 0.41747 0.4079 0.0
C523 C 0.10715 0.46942 0.42576 0.0
C524 C 0.117 0.50188 0.41719 0.0
C525 C 0.12959 0.4498 0.39952 0.0
C526 C 0.14969 0.51436 0.38246 0.0
C527 C 0.1721 0.49502 0.35628 0.0
H528 H 0.07001 1.01674 0.84627 0.0
H529 H 1.00624 0.0853 0.82851 0.0
H530 H 1.00616 0.08919 0.00775 0.0
H531 H 1.02426 0.07328 0.16855 0.0
H532 H 0.08799 1.00468 0.18633 0.0
H533 H 0.08811 1.00083 0.00705 0.0
C534 C 0.05595 1.03247 0.88156 0.0
C535 C 1.03806 0.05065 0.82396 0.0
C536 C 0.05615 1.03471 0.98425 0.0
C537 C 1.02015 0.07099 0.87101 0.0
C538 C 1.02015 0.07327 0.97342 0.0
C539 C 1.03832 0.05755 0.13325 0.0
C540 C 0.05619 1.03934 0.19087 0.0
C541 C 1.03813 0.05531 0.03055 0.0
C542 C 0.07409 1.019 0.14383 0.0
C543 C 0.07412 1.01674 0.04139 0.0
H544 H 0.29986 0.75721 0.40233 0.0
H545 H 0.33279 0.85803 0.33462 0.0
H546 H 0.3305 0.86401 0.15094 0.0
H547 H 0.31814 0.84054 0.0103 0.0
H548 H 0.28566 0.73951 0.07864 0.0
H549 H 0.29102 0.7335 0.2589 0.0
C550 C 0.30651 0.78045 0.34717 0.0
C551 C 0.31617 0.80715 0.38187 0.0
C552 C 0.3053 0.78368 0.24174 0.0
C553 C 0.32523 0.83711 0.30955 0.0
C554 C 0.32373 0.84058 0.20478 0.0
C555 C 0.31152 0.81729 0.06548 0.0
C556 C 0.30087 0.79062 0.03185 0.0
C557 C 0.31348 0.81405 0.17028 0.0
C558 C 0.29307 0.76054 0.10336 0.0
C559 C 0.29594 0.75706 0.20661 0.0
H560 H 0.53331 0.04633 0.74195 0.0
H561 H 0.45659 0.96642 0.8715 0.0
H562 H 0.45689 0.96153 0.69291 0.0
H563 H 0.47938 0.97945 0.50108 0.0
H564 H 0.5562 0.05926 0.37187 0.0
H565 H 0.55579 0.06422 0.55041 0.0
C566 C 0.51652 1.02785 0.73147 0.0
C567 C 0.4948 1.00688 0.8203 0.0
C568 C 0.51716 1.02488 0.6289 0.0
C569 C 0.4734 0.98302 0.80477 0.0
C570 C 0.47371 0.98008 0.70268 0.0
C571 C 0.4962 0.99787 0.51166 0.0
C572 C 0.5179 1.01894 0.42286 0.0
C573 C 0.49561 1.00077 0.61433 0.0
C574 C 0.53936 1.04268 0.43854 0.0
C575 C 0.53904 0.04559 0.54062 0.0
H576 H 0.31678 0.27383 0.91374 0.0
H577 H 0.25662 0.34559 0.92931 0.0
H578 H 0.2522 0.3467 0.75027 0.0
H579 H 0.26521 0.32722 0.59019 0.0
H580 H 0.32548 0.25557 0.57443 0.0
H581 H 0.32985 0.2544 0.75357 0.0
C582 C 0.30279 0.28984 0.87795 0.0
C583 C 0.28711 0.30965 0.93483 0.0
C584 C 0.30021 0.29025 0.77535 0.0
C585 C 0.26898 0.33012 0.88729 0.0
C586 C 0.26638 0.33073 0.785 0.0
C587 C 0.27923 0.31124 0.62593 0.0
C588 C 0.29495 0.29147 0.56899 0.0
C589 C 0.28181 0.31083 0.72852 0.0
C590 C 0.31309 0.27101 0.61651 0.0
C591 C 0.31566 0.27037 0.71885 0.0
H592 H 0.77847 0.27988 0.84259 0.0
H593 H 0.87745 0.3229 0.7512 0.0
H594 H 0.87904 0.32589 0.56583 0.0
H595 H 0.85178 0.31912 0.42873 0.0
H596 H 0.75287 0.2761 0.51966 0.0
H597 H 0.75155 0.27146 0.70581 0.0
C598 C 0.80044 0.28995 0.78214 0.0
C599 C 0.82782 0.3012 0.8109 0.0
C600 C 0.80096 0.29254 0.67532 0.0
C601 C 0.85601 0.31424 0.73139 0.0
C602 C 0.85687 0.31622 0.62524 0.0
C603 C 0.82982 0.30906 0.48916 0.0
C604 C 0.80233 0.2984 0.46007 0.0
C605 C 0.82937 0.30605 0.59609 0.0
C606 C 0.7743 0.28471 0.5397 0.0
C607 C 0.77356 0.28197 0.64622 0.0
H608 H 0.81242 0.77309 0.43558 0.0
H609 H 0.75821 0.84985 0.44029 0.0
H610 H 0.75416 0.85079 0.26085 0.0
H611 H 0.76579 0.82974 0.10364 0.0
H612 H 0.82003 0.753 0.0989 0.0
H613 H 0.82408 0.75205 0.27834 0.0
C614 C 0.79981 0.79016 0.39738 0.0
C615 C 0.7857 0.81145 0.45135 0.0
C616 C 0.79741 0.79044 0.29463 0.0
C617 C 0.76935 0.83326 0.4006 0.0
C618 C 0.76696 0.83376 0.29808 0.0
C619 C 0.7784 0.81267 0.14184 0.0
C620 C 0.79251 0.79139 0.08788 0.0
C621 C 0.78081 0.8124 0.24459 0.0
C622 C 0.80889 0.76959 0.1386 0.0
C623 C 0.81127 0.76908 0.24112 0.0
H624 H 0.52408 0.56934 0.65176 0.0
H625 H 0.59693 0.51045 0.66075 0.0
H626 H 0.59757 0.50548 0.48233 0.0
H627 H 0.57729 0.51756 0.32477 0.0
H628 H 0.50433 0.57633 0.31591 0.0
H629 H 0.50375 0.58138 0.4942 0.0
C630 C 0.54025 0.55555 0.6146 0.0
C631 C 0.56052 0.54038 0.66947 0.0
C632 C 0.5403 0.55255 0.51249 0.0
C633 C 0.58115 0.52244 0.62026 0.0
C634 C 0.58147 0.51951 0.51835 0.0
C635 C 0.56111 0.53136 0.36189 0.0
C636 C 0.5408 0.54646 0.30708 0.0
C637 C 0.56105 0.53435 0.464 0.0
C638 C 0.52015 0.56438 0.35634 0.0
C639 C 0.51986 0.56736 0.45818 0.0
H640 H 0.07548 0.60352 0.77388 0.0
H641 H 1.02848 0.50659 0.8374 0.0
H642 H 1.01924 0.50137 0.02691 0.0
H643 H 1.024 0.52443 0.17563 0.0
H644 H 0.07121 0.62127 0.11193 0.0
H645 H 0.08034 0.62652 0.92245 0.0
C646 C 0.06359 0.58116 0.82924 0.0
C647 C 0.05281 0.55551 0.79162 0.0
C648 C 0.05788 0.57841 0.93845 0.0
C649 C 1.03705 0.52676 0.86437 0.0
C650 C 1.0316 0.52375 0.97288 0.0
C651 C 1.03588 0.54677 0.12018 0.0
C652 C 0.04674 0.57241 0.15771 0.0
C653 C 1.0416 0.54951 0.01095 0.0
C654 C 0.06256 0.60113 0.08496 0.0
C655 C 0.06796 0.60415 0.97649 0.0
loop_
_geom_bond_atom_site_label_1
_geom_bond_atom_site_label_2
_geom_bond_distance
_geom_bond_site_symmetry_2
_ccdc_geom_bond_type
C0 O16 1.251 1_645 S
C0 O18 1.254 . S
N1 C2 1.333 . S
N1 C6 1.307 . S
N1 Zn7 2.020 . S
C2 N1 1.333 . S
C2 C3 1.379 . S
C2 H20 0.952 . S
C3 C2 1.379 . S
C3 C4 1.390 . S
C3 H30 0.949 . S
C4 C3 1.390 . S
C4 C5 1.357 . S
C5 C4 1.357 . S
C5 C6 1.370 . S
C5 H31 0.950 . S
C6 N1 1.307 . S
C6 C5 1.370 . S
C6 H24 0.948 . S
Zn7 N1 2.020 . S
Zn7 O16 2.039 . S
Zn7 O22 2.034 1_565 S
Zn7 O26 2.025 . S
Zn7 O28 2.024 1_455 S
C8 O27 1.246 . S
C8 O28 1.249 . S
N9 C10 1.307 . S
N9 C11 1.333 . S
N9 Zn15 2.020 . S
C10 N9 1.307 . S
C10 C14 1.370 . S
C10 H21 0.948 . S
C11 N9 1.333 . S
C11 C12 1.379 . S
C11 H19 0.952 . S
C12 C11 1.379 . S
C12 C13 1.390 . S
C12 H32 0.949 . S
C13 C12 1.390 . S
C13 C14 1.357 . S
C14 C10 1.370 . S
C14 C13 1.357 . S
C14 H33 0.950 . S
Zn15 N9 2.020 . S
Zn15 O18 2.025 . S
Zn15 O23 2.024 1_655 S
Zn15 O25 2.039 . S
Zn15 O27 2.034 1_545 S
O16 C0 1.251 1_465 S
O16 Zn7 2.039 . S
C17 O22 1.246 . S
C17 O23 1.249 . S
O18 C0 1.254 . S
O18 Zn15 2.025 . S
H19 C11 0.952 . S
H20 C2 0.952 . S
H21 C10 0.948 . S
O22 Zn7 2.034 1_545 S
O22 C17 1.246 . S
O23 Zn15 2.024 1_455 S
O23 C17 1.249 . S
H24 C6 0.948 . S
O25 Zn15 2.039 . S
O25 C29 1.251 1_645 S
O26 Zn7 2.025 . S
O26 C29 1.254 . S
O27 C8 1.246 . S
O27 Zn15 2.034 1_565 S
O28 Zn7 2.024 1_655 S
O28 C8 1.249 . S
C29 O25 1.251 1_465 S
C29 O26 1.254 . S
H30 C3 0.949 . S
H31 C5 0.950 . S
H32 C12 0.949 . S
H33 C14 0.950 . S
C34 O50 1.251 . S
C34 O52 1.254 . S
N35 C36 1.333 . S
N35 C40 1.307 . S
N35 Zn41 2.020 . S
C36 N35 1.333 . S
C36 C37 1.379 . S
C36 H54 0.952 . S
C37 C36 1.379 . S
C37 C38 1.390 . S
C37 H64 0.949 . S
C38 C37 1.390 . S
C38 C39 1.357 . S
C39 C38 1.357 . S
C39 C40 1.370 . S
C39 H65 0.950 . S
C40 N35 1.307 . S
C40 C39 1.370 . S
C40 H58 0.948 . S
Zn41 N35 2.020 . S
Zn41 O50 2.039 . S
Zn41 O56 2.034 . S
Zn41 O60 2.025 . S
Zn41 O62 2.024 . S
C42 O61 1.246 . S
C42 O62 1.249 . S
N43 C44 1.307 . S
N43 C45 1.333 . S
N43 Zn49 2.020 . S
C44 N43 1.307 . S
C44 C48 1.370 . S
C44 H55 0.948 . S
C45 N43 1.333 . S
C45 C46 1.379 . S
C45 H53 0.952 . S
C46 C45 1.379 . S
C46 C47 1.390 . S
C46 H66 0.949 . S
C47 C46 1.390 . S
C47 C48 1.357 . S
C48 C44 1.370 . S
C48 C47 1.357 . S
C48 H67 0.950 . S
Zn49 N43 2.020 . S
Zn49 O52 2.025 . S
Zn49 O57 2.024 . S
Zn49 O59 2.039 . S
Zn49 O61 2.034 . S
O50 C34 1.251 . S
O50 Zn41 2.039 . S
C51 O56 1.246 . S
C51 O57 1.249 . S
O52 C34 1.254 . S
O52 Zn49 2.025 . S
H53 C45 0.952 . S
H54 C36 0.952 . S
H55 C44 0.948 . S
O56 Zn41 2.034 . S
O56 C51 1.246 . S
O57 Zn49 2.024 . S
O57 C51 1.249 . S
H58 C40 0.948 . S
O59 Zn49 2.039 . S
O59 C63 1.251 . S
O60 Zn41 2.025 . S
O60 C63 1.254 . S
O61 C42 1.246 . S
O61 Zn49 2.034 . S
O62 Zn41 2.024 . S
O62 C42 1.249 . S
C63 O59 1.251 . S
C63 O60 1.254 . S
H64 C37 0.949 . S
H65 C39 0.950 . S
H66 C46 0.949 . S
H67 C48 0.950 . S
C68 O84 1.251 1_545 S
C68 O86 1.254 . S
N69 C70 1.333 1_554 S
N69 C74 1.307 . S
N69 Zn75 2.020 . S
C70 N69 1.333 1_556 S
C70 C71 1.379 . S
C70 H88 0.952 . S
C71 C70 1.379 . S
C71 C72 1.390 . S
C71 H98 0.949 . S
C72 C71 1.390 . S
C72 C73 1.357 1_556 S
C73 C72 1.357 1_554 S
C73 C74 1.370 . S
C73 H99 0.950 . S
C74 N69 1.307 . S
C74 C73 1.370 . S
C74 H92 0.948 . S
Zn75 N69 2.020 . S
Zn75 O84 2.039 1_554 S
Zn75 O90 2.034 1_565 S
Zn75 O94 2.025 . S
Zn75 O96 2.024 1_554 S
C76 O95 1.246 . S
C76 O96 1.249 . S
N77 C78 1.307 . S
N77 C79 1.333 1_556 S
N77 Zn83 2.020 . S
C78 N77 1.307 . S
C78 C82 1.370 . S
C78 H89 0.948 . S
C79 N77 1.333 1_554 S
C79 C80 1.379 . S
C79 H87 0.952 . S
C80 C79 1.379 . S
C80 C81 1.390 . S
C80 H100 0.949 . S
C81 C80 1.390 . S
C81 C82 1.357 1_554 S
C82 C78 1.370 . S
C82 C81 1.357 1_556 S
C82 H101 0.950 . S
Zn83 N77 2.020 . S
Zn83 O86 2.025 . S
Zn83 O91 2.024 1_556 S
Zn83 O93 2.039 1_556 S
Zn83 O95 2.034 1_545 S
O84 C68 1.251 1_565 S
O84 Zn75 2.039 1_556 S
C85 O90 1.246 . S
C85 O91 1.249 . S
O86 C68 1.254 . S
O86 Zn83 2.025 . S
H87 C79 0.952 . S
H88 C70 0.952 . S
H89 C78 0.948 . S
O90 Zn75 2.034 1_545 S
O90 C85 1.246 . S
O91 Zn83 2.024 1_554 S
O91 C85 1.249 . S
H92 C74 0.948 . S
O93 Zn83 2.039 1_554 S
O93 C97 1.251 1_545 S
O94 Zn75 2.025 . S
O94 C97 1.254 . S
O95 C76 1.246 . S
O95 Zn83 2.034 1_565 S
O96 Zn75 2.024 1_556 S
O96 C76 1.249 . S
C97 O93 1.251 1_565 S
C97 O94 1.254 . S
H98 C71 0.949 . S
H99 C73 0.950 . S
H100 C80 0.949 . S
H101 C82 0.950 . S
C102 O118 1.251 . S
C102 O120 1.254 . S
N103 C104 1.333 . S
N103 C108 1.307 . S
N103 Zn109 2.020 . S
C104 N103 1.333 . S
C104 C105 1.379 . S
C104 H122 0.952 . S
C105 C104 1.379 . S
C105 C106 1.390 . S
C105 H132 0.949 . S
C106 C105 1.390 . S
C106 C107 1.357 . S
C107 C106 1.357 . S
C107 C108 1.370 . S
C107 H133 0.950 . S
C108 N103 1.307 . S
C108 C107 1.370 . S
C108 H126 0.948 . S
Zn109 N103 2.020 . S
Zn109 O118 2.039 . S
Zn109 O124 2.034 . S
Zn109 O128 2.025 . S
Zn109 O130 2.024 . S
C110 O129 1.246 . S
C110 O130 1.249 . S
N111 C112 1.307 . S
N111 C113 1.333 . S
N111 Zn117 2.020 . S
C112 N111 1.307 . S
C112 C116 1.370 . S
C112 H123 0.948 . S
C113 N111 1.333 . S
C113 C114 1.379 . S
C113 H121 0.952 . S
C114 C113 1.379 . S
C114 C115 1.390 . S
C114 H134 0.949 . S
C115 C114 1.390 . S
C115 C116 1.357 . S
C116 C112 1.370 . S
C116 C115 1.357 . S
C116 H135 0.950 . S
Zn117 N111 2.020 . S
Zn117 O120 2.025 . S
Zn117 O125 2.024 . S
Zn117 O127 2.039 . S
Zn117 O129 2.034 . S
O118 C102 1.251 . S
O118 Zn109 2.039 . S
C119 O124 1.246 . S
C119 O125 1.249 . S
O120 C102 1.254 . S
O120 Zn117 2.025 . S
H121 C113 0.952 . S
H122 C104 0.952 . S
H123 C112 0.948 . S
O124 Zn109 2.034 . S
O124 C119 1.246 . S
O125 Zn117 2.024 . S
O125 C119 1.249 . S
H126 C108 0.948 . S
O127 Zn117 2.039 . S
O127 C131 1.251 . S
O128 Zn109 2.025 . S
O128 C131 1.254 . S
O129 C110 1.246 . S
O129 Zn117 2.034 . S
O130 Zn109 2.024 . S
O130 C110 1.249 . S
C131 O127 1.251 . S
C131 O128 1.254 . S
H132 C105 0.949 . S
H133 C107 0.950 . S
H134 C114 0.949 . S
H135 C116 0.950 . S
C136 O152 1.251 . S
C136 O154 1.254 . S
N137 C138 1.333 . S
N137 C142 1.307 . S
N137 Zn143 2.020 . S
C138 N137 1.333 . S
C138 C139 1.379 . S
C138 H156 0.952 . S
C139 C138 1.379 . S
C139 C140 1.390 . S
C139 H166 0.949 . S
C140 C139 1.390 . S
C140 C141 1.357 . S
C141 C140 1.357 . S
C141 C142 1.370 . S
C141 H167 0.950 . S
C142 N137 1.307 . S
C142 C141 1.370 . S
C142 H160 0.948 . S
Zn143 N137 2.020 . S
Zn143 O152 2.039 . S
Zn143 O158 2.034 . S
Zn143 O162 2.025 . S
Zn143 O164 2.024 . S
C144 O163 1.246 . S
C144 O164 1.249 . S
N145 C146 1.307 . S
N145 C147 1.333 . S
N145 Zn151 2.020 . S
C146 N145 1.307 . S
C146 C150 1.370 . S
C146 H157 0.948 . S
C147 N145 1.333 . S
C147 C148 1.379 . S
C147 H155 0.952 . S
C148 C147 1.379 . S
C148 C149 1.390 . S
C148 H168 0.949 . S
C149 C148 1.390 . S
C149 C150 1.357 . S
C150 C146 1.370 . S
C150 C149 1.357 . S
C150 H169 0.950 . S
Zn151 N145 2.020 . S
Zn151 O154 2.025 . S
Zn151 O159 2.024 . S
Zn151 O161 2.039 . S
Zn151 O163 2.034 . S
O152 C136 1.251 . S
O152 Zn143 2.039 . S
C153 O158 1.246 . S
C153 O159 1.249 . S
O154 C136 1.254 . S
O154 Zn151 2.025 . S
H155 C147 0.952 . S
H156 C138 0.952 . S
H157 C146 0.948 . S
O158 Zn143 2.034 . S
O158 C153 1.246 . S
O159 Zn151 2.024 . S
O159 C153 1.249 . S
H160 C142 0.948 . S
O161 Zn151 2.039 . S
O161 C165 1.251 . S
O162 Zn143 2.025 . S
O162 C165 1.254 . S
O163 C144 1.246 . S
O163 Zn151 2.034 . S
O164 Zn143 2.024 . S
O164 C144 1.249 . S
C165 O161 1.251 . S
C165 O162 1.254 . S
H166 C139 0.949 . S
H167 C141 0.950 . S
H168 C148 0.949 . S
H169 C150 0.950 . S
C170 O186 1.251 . S
C170 O188 1.254 . S
N171 C172 1.333 . S
N171 C176 1.307 . S
N171 Zn177 2.020 . S
C172 N171 1.333 . S
C172 C173 1.379 . S
C172 H190 0.952 . S
C173 C172 1.379 . S
C173 C174 1.390 . S
C173 H200 0.949 . S
C174 C173 1.390 . S
C174 C175 1.357 . S
C175 C174 1.357 . S
C175 C176 1.370 . S
C175 H201 0.950 . S
C176 N171 1.307 . S
C176 C175 1.370 . S
C176 H194 0.948 . S
Zn177 N171 2.020 . S
Zn177 O186 2.039 . S
Zn177 O192 2.034 . S
Zn177 O196 2.025 . S
Zn177 O198 2.024 . S
C178 O197 1.246 . S
C178 O198 1.249 . S
N179 C180 1.307 . S
N179 C181 1.333 . S
N179 Zn185 2.020 . S
C180 N179 1.307 . S
C180 C184 1.370 . S
C180 H191 0.948 . S
C181 N179 1.333 . S
C181 C182 1.379 . S
C181 H189 0.952 . S
C182 C181 1.379 . S
C182 C183 1.390 . S
C182 H202 0.949 . S
C183 C182 1.390 . S
C183 C184 1.357 . S
C184 C180 1.370 . S
C184 C183 1.357 . S
C184 H203 0.950 . S
Zn185 N179 2.020 . S
Zn185 O188 2.025 . S
Zn185 O193 2.024 . S
Zn185 O195 2.039 . S
Zn185 O197 2.034 . S
O186 C170 1.251 . S
O186 Zn177 2.039 . S
C187 O192 1.246 . S
C187 O193 1.249 . S
O188 C170 1.254 . S
O188 Zn185 2.025 . S
H189 C181 0.952 . S
H190 C172 0.952 . S
H191 C180 0.948 . S
O192 Zn177 2.034 . S
O192 C187 1.246 . S
O193 Zn185 2.024 . S
O193 C187 1.249 . S
H194 C176 0.948 . S
O195 Zn185 2.039 . S
O195 C199 1.251 . S
O196 Zn177 2.025 . S
O196 C199 1.254 . S
O197 C178 1.246 . S
O197 Zn185 2.034 . S
O198 Zn177 2.024 . S
O198 C178 1.249 . S
C199 O195 1.251 . S
C199 O196 1.254 . S
H200 C173 0.949 . S
H201 C175 0.950 . S
H202 C182 0.949 . S
H203 C184 0.950 . S
C204 O220 1.251 . S
C204 O222 1.254 . S
N205 C206 1.333 . S
N205 C210 1.307 1_554 S
N205 Zn211 2.020 . S
C206 N205 1.333 . S
C206 C207 1.379 . S
C206 H224 0.952 . S
C207 C206 1.379 . S
C207 C208 1.390 . S
C207 H234 0.949 . S
C208 C207 1.390 . S
C208 C209 1.357 1_554 S
C209 C208 1.357 1_556 S
C209 C210 1.370 . S
C209 H235 0.950 . S
C210 N205 1.307 1_556 S
C210 C209 1.370 . S
C210 H228 0.948 . S
Zn211 N205 2.020 . S
Zn211 O220 2.039 . S
Zn211 O226 2.034 1_554 S
Zn211 O230 2.025 1_554 S
Zn211 O232 2.024 . S
C212 O231 1.246 . S
C212 O232 1.249 . S
N213 C214 1.307 1_556 S
N213 C215 1.333 . S
N213 Zn219 2.020 . S
C214 N213 1.307 1_554 S
C214 C218 1.370 . S
C214 H225 0.948 . S
C215 N213 1.333 . S
C215 C216 1.379 . S
C215 H223 0.952 . S
C216 C215 1.379 . S
C216 C217 1.390 . S
C216 H236 0.949 . S
C217 C216 1.390 . S
C217 C218 1.357 1_556 S
C218 C214 1.370 . S
C218 C217 1.357 1_554 S
C218 H237 0.950 . S
Zn219 N213 2.020 . S
Zn219 O222 2.025 1_556 S
Zn219 O227 2.024 . S
Zn219 O229 2.039 . S
Zn219 O231 2.034 1_556 S
O220 C204 1.251 . S
O220 Zn211 2.039 . S
C221 O226 1.246 . S
C221 O227 1.249 . S
O222 C204 1.254 . S
O222 Zn219 2.025 1_554 S
H223 C215 0.952 . S
H224 C206 0.952 . S
H225 C214 0.948 . S
O226 Zn211 2.034 1_556 S
O226 C221 1.246 . S
O227 Zn219 2.024 . S
O227 C221 1.249 . S
H228 C210 0.948 . S
O229 Zn219 2.039 . S
O229 C233 1.251 . S
O230 Zn211 2.025 1_556 S
O230 C233 1.254 . S
O231 C212 1.246 . S
O231 Zn219 2.034 1_554 S
O232 Zn211 2.024 . S
O232 C212 1.249 . S
C233 O229 1.251 . S
C233 O230 1.254 . S
H234 C207 0.949 . S
H235 C209 0.950 . S
H236 C216 0.949 . S
H237 C218 0.950 . S
C238 O254 1.251 1_455 S
C238 O256 1.254 . S
N239 C240 1.333 . S
N239 C244 1.307 . S
N239 Zn245 2.020 . S
C240 N239 1.333 . S
C240 C241 1.379 . S
C240 H258 0.952 . S
C241 C240 1.379 . S
C241 C242 1.390 . S
C241 H268 0.949 . S
C242 C241 1.390 . S
C242 C243 1.357 . S
C243 C242 1.357 . S
C243 C244 1.370 . S
C243 H269 0.950 . S
C244 N239 1.307 . S
C244 C243 1.370 . S
C244 H262 0.948 . S
Zn245 N239 2.020 . S
Zn245 O254 2.039 . S
Zn245 O260 2.034 . S
Zn245 O264 2.025 . S
Zn245 O266 2.024 1_655 S
C246 O265 1.246 . S
C246 O266 1.249 . S
N247 C248 1.307 . S
N247 C249 1.333 . S
N247 Zn253 2.020 . S
C248 N247 1.307 . S
C248 C252 1.370 . S
C248 H259 0.948 . S
C249 N247 1.333 . S
C249 C250 1.379 . S
C249 H257 0.952 . S
C250 C249 1.379 . S
C250 C251 1.390 . S
C250 H270 0.949 . S
C251 C250 1.390 . S
C251 C252 1.357 . S
C252 C248 1.370 . S
C252 C251 1.357 . S
C252 H271 0.950 . S
Zn253 N247 2.020 . S
Zn253 O256 2.025 . S
Zn253 O261 2.024 1_455 S
Zn253 O263 2.039 . S
Zn253 O265 2.034 . S
O254 C238 1.251 1_655 S
O254 Zn245 2.039 . S
C255 O260 1.246 . S
C255 O261 1.249 . S
O256 C238 1.254 . S
O256 Zn253 2.025 . S
H257 C249 0.952 . S
H258 C240 0.952 . S
H259 C248 0.948 . S
O260 Zn245 2.034 . S
O260 C255 1.246 . S
O261 Zn253 2.024 1_655 S
O261 C255 1.249 . S
H262 C244 0.948 . S
O263 Zn253 2.039 . S
O263 C267 1.251 1_455 S
O264 Zn245 2.025 . S
O264 C267 1.254 . S
O265 C246 1.246 . S
O265 Zn253 2.034 . S
O266 Zn245 2.024 1_455 S
O266 C246 1.249 . S
C267 O263 1.251 1_655 S
C267 O264 1.254 . S
H268 C241 0.949 . S
H269 C243 0.950 . S
H270 C250 0.949 . S
H271 C252 0.950 . S
H272 C278 0.930 . S
H273 C281 0.930 . S
H274 C282 0.930 . S
H275 C283 0.930 . S
H276 C286 0.930 . S
H277 C287 0.930 . S
C278 H272 0.930 . S
C278 C279 1.355 . S
C278 C280 1.415 . S
C279 C278 1.355 . S
C279 C281 1.419 . S
C280 C278 1.415 . S
C280 C285 1.425 . S
C280 C287 1.409 . S
C281 H273 0.930 . S
C281 C279 1.419 . S
C281 C282 1.362 . S
C282 H274 0.930 . S
C282 C281 1.362 . S
C282 C285 1.409 . S
C283 H275 0.930 . S
C283 C284 1.355 . S
C283 C285 1.415 . S
C284 C283 1.355 . S
C284 C286 1.419 . S
C285 C280 1.425 . S
C285 C282 1.409 . S
C285 C283 1.415 . S
C286 H276 0.930 . S
C286 C284 1.419 . S
C286 C287 1.362 . S
C287 H277 0.930 . S
C287 C280 1.409 . S
C287 C286 1.362 . S
H288 C294 0.930 . S
H289 C297 0.930 . S
H290 C298 0.930 . S
H291 C299 0.930 . S
H292 C302 0.930 . S
H293 C303 0.930 . S
C294 H288 0.930 . S
C294 C295 1.355 . S
C294 C296 1.415 . S
C295 C294 1.355 . S
C295 C297 1.419 . S
C296 C294 1.415 . S
C296 C301 1.425 . S
C296 C303 1.409 . S
C297 H289 0.930 . S
C297 C295 1.419 . S
C297 C298 1.362 . S
C298 H290 0.930 . S
C298 C297 1.362 . S
C298 C301 1.409 . S
C299 H291 0.930 . S
C299 C300 1.355 . S
C299 C301 1.415 . S
C300 C299 1.355 . S
C300 C302 1.419 . S
C301 C296 1.425 . S
C301 C298 1.409 . S
C301 C299 1.415 . S
C302 H292 0.930 . S
C302 C300 1.419 . S
C302 C303 1.362 . S
C303 H293 0.930 . S
C303 C296 1.409 . S
C303 C302 1.362 . S
H304 C310 0.930 . S
H305 C313 0.930 . S
H306 C314 0.930 . S
H307 C315 0.930 . S
H308 C318 0.930 . S
H309 C319 0.930 . S
C310 H304 0.930 . S
C310 C311 1.355 . S
C310 C312 1.415 . S
C311 C310 1.355 . S
C311 C313 1.419 . S
C312 C310 1.415 . S
C312 C317 1.425 . S
C312 C319 1.409 1_556 S
C313 H305 0.930 . S
C313 C311 1.419 . S
C313 C314 1.362 . S
C314 H306 0.930 . S
C314 C313 1.362 . S
C314 C317 1.409 . S
C315 H307 0.930 . S
C315 C316 1.355 1_556 S
C315 C317 1.415 . S
C316 C315 1.355 1_554 S
C316 C318 1.419 . S
C317 C312 1.425 . S
C317 C314 1.409 . S
C317 C315 1.415 . S
C318 H308 0.930 . S
C318 C316 1.419 . S
C318 C319 1.362 . S
C319 H309 0.930 . S
C319 C312 1.409 1_554 S
C319 C318 1.362 . S
H320 C326 0.930 1_556 S
H321 C329 0.930 . S
H322 C330 0.930 . S
H323 C331 0.930 . S
H324 C334 0.930 . S
H325 C335 0.930 1_556 S
C326 H320 0.930 1_554 S
C326 C327 1.355 . S
C326 C328 1.415 . S
C327 C326 1.355 . S
C327 C329 1.419 . S
C328 C326 1.415 . S
C328 C333 1.425 . S
C328 C335 1.409 . S
C329 H321 0.930 . S
C329 C327 1.419 . S
C329 C330 1.362 . S
C330 H322 0.930 . S
C330 C329 1.362 . S
C330 C333 1.409 . S
C331 H323 0.930 . S
C331 C332 1.355 . S
C331 C333 1.415 . S
C332 C331 1.355 . S
C332 C334 1.419 . S
C333 C328 1.425 . S
C333 C330 1.409 . S
C333 C331 1.415 . S
C334 H324 0.930 . S
C334 C332 1.419 . S
C334 C335 1.362 . S
C335 H325 0.930 1_554 S
C335 C328 1.409 . S
C335 C334 1.362 . S
H336 C342 0.930 . S
H337 C345 0.930 . S
H338 C346 0.930 . S
H339 C347 0.930 . S
H340 C350 0.930 . S
H341 C351 0.930 . S
C342 H336 0.930 . S
C342 C343 1.355 . S
C342 C344 1.415 . S
C343 C342 1.355 . S
C343 C345 1.419 . S
C344 C342 1.415 . S
C344 C349 1.425 . S
C344 C351 1.409 . S
C345 H337 0.930 . S
C345 C343 1.419 . S
C345 C346 1.362 . S
C346 H338 0.930 . S
C346 C345 1.362 . S
C346 C349 1.409 . S
C347 H339 0.930 . S
C347 C348 1.355 . S
C347 C349 1.415 . S
C348 C347 1.355 . S
C348 C350 1.419 . S
C349 C344 1.425 . S
C349 C346 1.409 . S
C349 C347 1.415 . S
C350 H340 0.930 . S
C350 C348 1.419 . S
C350 C351 1.362 . S
C351 H341 0.930 . S
C351 C344 1.409 . S
C351 C350 1.362 . S
H352 C358 0.930 . S
H353 C361 0.930 . S
H354 C362 0.930 . S
H355 C363 0.930 . S
H356 C366 0.930 . S
H357 C367 0.930 . S
C358 H352 0.930 . S
C358 C359 1.355 . S
C358 C360 1.415 . S
C359 C358 1.355 . S
C359 C361 1.419 . S
C360 C358 1.415 . S
C360 C365 1.425 . S
C360 C367 1.409 . S
C361 H353 0.930 . S
C361 C359 1.419 . S
C361 C362 1.362 . S
C362 H354 0.930 . S
C362 C361 1.362 . S
C362 C365 1.409 . S
C363 H355 0.930 . S
C363 C364 1.355 . S
C363 C365 1.415 . S
C364 C363 1.355 . S
C364 C366 1.419 . S
C365 C360 1.425 . S
C365 C362 1.409 . S
C365 C363 1.415 . S
C366 H356 0.930 . S
C366 C364 1.419 . S
C366 C367 1.362 . S
C367 H357 0.930 . S
C367 C360 1.409 . S
C367 C366 1.362 . S
H368 C374 0.930 . S
H369 C377 0.930 . S
H370 C378 0.930 1_556 S
H371 C379 0.930 . S
H372 C382 0.930 . S
H373 C383 0.930 . S
C374 H368 0.930 . S
C374 C375 1.355 . S
C374 C376 1.415 . S
C375 C374 1.355 . S
C375 C377 1.419 . S
C376 C374 1.415 . S
C376 C381 1.425 . S
C376 C383 1.409 . S
C377 H369 0.930 . S
C377 C375 1.419 . S
C377 C378 1.362 . S
C378 H370 0.930 1_554 S
C378 C377 1.362 . S
C378 C381 1.409 . S
C379 H371 0.930 . S
C379 C380 1.355 1_556 S
C379 C381 1.415 1_556 S
C380 C379 1.355 1_554 S
C380 C382 1.419 . S
C381 C376 1.425 . S
C381 C378 1.409 . S
C381 C379 1.415 1_554 S
C382 H372 0.930 . S
C382 C380 1.419 . S
C382 C383 1.362 . S
C383 H373 0.930 . S
C383 C376 1.409 . S
C383 C382 1.362 . S
H384 C390 0.930 . S
H385 C393 0.930 . S
H386 C394 0.930 . S
H387 C395 0.930 . S
H388 C398 0.930 . S
H389 C399 0.930 . S
C390 H384 0.930 . S
C390 C391 1.355 . S
C390 C392 1.415 . S
C391 C390 1.355 . S
C391 C393 1.419 . S
C392 C390 1.415 . S
C392 C397 1.425 . S
C392 C399 1.409 1_556 S
C393 H385 0.930 . S
C393 C391 1.419 . S
C393 C394 1.362 . S
C394 H386 0.930 . S
C394 C393 1.362 . S
C394 C397 1.409 . S
C395 H387 0.930 . S
C395 C396 1.355 . S
C395 C397 1.415 . S
C396 C395 1.355 . S
C396 C398 1.419 1_556 S
C397 C392 1.425 . S
C397 C394 1.409 . S
C397 C395 1.415 . S
C398 H388 0.930 . S
C398 C396 1.419 1_554 S
C398 C399 1.362 . S
C399 H389 0.930 . S
C399 C392 1.409 1_554 S
C399 C398 1.362 . S
H400 C406 0.930 . S
H401 C409 0.930 . S
H402 C410 0.930 . S
H403 C411 0.930 . S
H404 C414 0.930 . S
H405 C415 0.930 . S
C406 H400 0.930 . S
C406 C407 1.355 . S
C406 C408 1.415 . S
C407 C406 1.355 . S
C407 C409 1.419 . S
C408 C406 1.415 . S
C408 C413 1.425 . S
C408 C415 1.409 . S
C409 H401 0.930 . S
C409 C407 1.419 . S
C409 C410 1.362 . S
C410 H402 0.930 . S
C410 C409 1.362 . S
C410 C413 1.409 . S
C411 H403 0.930 . S
C411 C412 1.355 . S
C411 C413 1.415 . S
C412 C411 1.355 . S
C412 C414 1.419 . S
C413 C408 1.425 . S
C413 C410 1.409 . S
C413 C411 1.415 . S
C414 H404 0.930 . S
C414 C412 1.419 . S
C414 C415 1.362 . S
C415 H405 0.930 . S
C415 C408 1.409 . S
C415 C414 1.362 . S
H416 C422 0.930 . S
H417 C425 0.930 . S
H418 C426 0.930 . S
H419 C427 0.930 . S
H420 C430 0.930 . S
H421 C431 0.930 . S
C422 H416 0.930 . S
C422 C423 1.355 . S
C422 C424 1.415 . S
C423 C422 1.355 . S
C423 C425 1.419 . S
C424 C422 1.415 . S
C424 C429 1.425 . S
C424 C431 1.409 . S
C425 H417 0.930 . S
C425 C423 1.419 . S
C425 C426 1.362 . S
C426 H418 0.930 . S
C426 C425 1.362 . S
C426 C429 1.409 . S
C427 H419 0.930 . S
C427 C428 1.355 . S
C427 C429 1.415 . S
C428 C427 1.355 . S
C428 C430 1.419 . S
C429 C424 1.425 . S
C429 C426 1.409 . S
C429 C427 1.415 . S
C430 H420 0.930 . S
C430 C428 1.419 . S
C430 C431 1.362 . S
C431 H421 0.930 . S
C431 C424 1.409 . S
C431 C430 1.362 . S
H432 C438 0.930 . S
H433 C441 0.930 . S
H434 C442 0.930 . S
H435 C443 0.930 . S
H436 C446 0.930 . S
H437 C447 0.930 . S
C438 H432 0.930 . S
C438 C439 1.355 . S
C438 C440 1.415 . S
C439 C438 1.355 . S
C439 C441 1.419 . S
C440 C438 1.415 . S
C440 C445 1.425 . S
C440 C447 1.409 . S
C441 H433 0.930 . S
C441 C439 1.419 . S
C441 C442 1.362 . S
C442 H434 0.930 . S
C442 C441 1.362 . S
C442 C445 1.409 . S
C443 H435 0.930 . S
C443 C444 1.355 . S
C443 C445 1.415 . S
C444 C443 1.355 . S
C444 C446 1.419 . S
C445 C440 1.425 . S
C445 C442 1.409 . S
C445 C443 1.415 . S
C446 H436 0.930 . S
C446 C444 1.419 . S
C446 C447 1.362 . S
C447 H437 0.930 . S
C447 C440 1.409 . S
C447 C446 1.362 . S
H448 C454 0.930 . S
H449 C457 0.930 . S
H450 C458 0.930 . S
H451 C459 0.930 . S
H452 C462 0.930 . S
H453 C463 0.930 . S
C454 H448 0.930 . S
C454 C455 1.355 . S
C454 C456 1.415 . S
C455 C454 1.355 . S
C455 C457 1.419 . S
C456 C454 1.415 . S
C456 C461 1.425 . S
C456 C463 1.409 . S
C457 H449 0.930 . S
C457 C455 1.419 . S
C457 C458 1.362 . S
C458 H450 0.930 . S
C458 C457 1.362 . S
C458 C461 1.409 . S
C459 H451 0.930 . S
C459 C460 1.355 . S
C459 C461 1.415 . S
C460 C459 1.355 . S
C460 C462 1.419 . S
C461 C456 1.425 . S
C461 C458 1.409 . S
C461 C459 1.415 . S
C462 H452 0.930 . S
C462 C460 1.419 . S
C462 C463 1.362 . S
C463 H453 0.930 . S
C463 C456 1.409 . S
C463 C462 1.362 . S
H464 C470 0.930 . S
H465 C473 0.930 1_556 S
H466 C474 0.930 1_556 S
H467 C475 0.930 1_556 S
H468 C478 0.930 . S
H469 C479 0.930 . S
C470 H464 0.930 . S
C470 C471 1.355 . S
C470 C472 1.415 . S
C471 C470 1.355 . S
C471 C473 1.419 . S
C472 C470 1.415 . S
C472 C477 1.425 . S
C472 C479 1.409 . S
C473 H465 0.930 1_554 S
C473 C471 1.419 . S
C473 C474 1.362 . S
C474 H466 0.930 1_554 S
C474 C473 1.362 . S
C474 C477 1.409 . S
C475 H467 0.930 1_554 S
C475 C476 1.355 . S
C475 C477 1.415 . S
C476 C475 1.355 . S
C476 C478 1.419 . S
C477 C472 1.425 . S
C477 C474 1.409 . S
C477 C475 1.415 . S
C478 H468 0.930 . S
C478 C476 1.419 . S
C478 C479 1.362 . S
C479 H469 0.930 . S
C479 C472 1.409 . S
C479 C478 1.362 . S
H480 C486 0.930 . S
H481 C489 0.930 . S
H482 C490 0.930 . S
H483 C491 0.930 . S
H484 C494 0.930 . S
H485 C495 0.930 . S
C486 H480 0.930 . S
C486 C487 1.355 . S
C486 C488 1.415 . S
C487 C486 1.355 . S
C487 C489 1.419 . S
C488 C486 1.415 . S
C488 C493 1.425 . S
C488 C495 1.409 . S
C489 H481 0.930 . S
C489 C487 1.419 . S
C489 C490 1.362 . S
C490 H482 0.930 . S
C490 C489 1.362 . S
C490 C493 1.409 . S
C491 H483 0.930 . S
C491 C492 1.355 . S
C491 C493 1.415 . S
C492 C491 1.355 . S
C492 C494 1.419 . S
C493 C488 1.425 . S
C493 C490 1.409 . S
C493 C491 1.415 . S
C494 H484 0.930 . S
C494 C492 1.419 . S
C494 C495 1.362 . S
C495 H485 0.930 . S
C495 C488 1.409 . S
C495 C494 1.362 . S
H496 C502 0.930 . S
H497 C505 0.930 . S
H498 C506 0.930 . S
H499 C507 0.930 . S
H500 C510 0.930 . S
H501 C511 0.930 . S
C502 H496 0.930 . S
C502 C503 1.355 . S
C502 C504 1.415 . S
C503 C502 1.355 . S
C503 C505 1.419 . S
C504 C502 1.415 . S
C504 C509 1.425 . S
C504 C511 1.409 . S
C505 H497 0.930 . S
C505 C503 1.419 . S
C505 C506 1.362 . S
C506 H498 0.930 . S
C506 C505 1.362 . S
C506 C509 1.409 . S
C507 H499 0.930 . S
C507 C508 1.355 . S
C507 C509 1.415 . S
C508 C507 1.355 . S
C508 C510 1.419 . S
C509 C504 1.425 . S
C509 C506 1.409 . S
C509 C507 1.415 . S
C510 H500 0.930 . S
C510 C508 1.419 . S
C510 C511 1.362 . S
C511 H501 0.930 . S
C511 C504 1.409 . S
C511 C510 1.362 . S
H512 C518 0.930 . S
H513 C521 0.930 . S
H514 C522 0.930 . S
H515 C523 0.930 . S
H516 C526 0.930 . S
H517 C527 0.930 . S
C518 H512 0.930 . S
C518 C519 1.355 . S
C518 C520 1.415 . S
C519 C518 1.355 . S
C519 C521 1.419 . S
C520 C518 1.415 . S
C520 C525 1.425 . S
C520 C527 1.409 . S
C521 H513 0.930 . S
C521 C519 1.419 . S
C521 C522 1.362 . S
C522 H514 0.930 . S
C522 C521 1.362 . S
C522 C525 1.409 . S
C523 H515 0.930 . S
C523 C524 1.355 . S
C523 C525 1.415 . S
C524 C523 1.355 . S
C524 C526 1.419 . S
C525 C520 1.425 . S
C525 C522 1.409 . S
C525 C523 1.415 . S
C526 H516 0.930 . S
C526 C524 1.419 . S
C526 C527 1.362 . S
C527 H517 0.930 . S
C527 C520 1.409 . S
C527 C526 1.362 . S
H528 C534 0.930 . S
H529 C537 0.930 . S
H530 C538 0.930 1_554 S
H531 C539 0.930 . S
H532 C542 0.930 . S
H533 C543 0.930 1_556 S
C534 H528 0.930 . S
C534 C535 1.348 1_465 S
C534 C536 1.415 . S
C535 C534 1.348 1_645 S
C535 C537 1.433 . S
C536 C534 1.415 . S
C536 C541 1.425 1_466 S
C536 C543 1.409 1_556 S
C537 H529 0.930 . S
C537 C535 1.433 . S
C537 C538 1.362 . S
C538 H530 0.930 1_556 S
C538 C537 1.362 . S
C538 C541 1.409 1_556 S
C539 H531 0.930 . S
C539 C540 1.350 1_645 S
C539 C541 1.415 . S
C540 C539 1.350 1_465 S
C540 C542 1.430 . S
C541 C536 1.425 1_644 S
C541 C538 1.409 1_554 S
C541 C539 1.415 . S
C542 H532 0.930 . S
C542 C540 1.430 . S
C542 C543 1.362 . S
C543 H533 0.930 1_554 S
C543 C536 1.409 1_554 S
C543 C542 1.362 . S
H544 C550 0.930 . S
H545 C553 0.930 . S
H546 C554 0.930 . S
H547 C555 0.930 . S
H548 C558 0.930 . S
H549 C559 0.930 . S
C550 H544 0.930 . S
C550 C551 1.355 . S
C550 C552 1.415 . S
C551 C550 1.355 . S
C551 C553 1.419 . S
C552 C550 1.415 . S
C552 C557 1.425 . S
C552 C559 1.409 . S
C553 H545 0.930 . S
C553 C551 1.419 . S
C553 C554 1.362 . S
C554 H546 0.930 . S
C554 C553 1.362 . S
C554 C557 1.409 . S
C555 H547 0.930 . S
C555 C556 1.355 . S
C555 C557 1.415 . S
C556 C555 1.355 . S
C556 C558 1.419 . S
C557 C552 1.425 . S
C557 C554 1.409 . S
C557 C555 1.415 . S
C558 H548 0.930 . S
C558 C556 1.419 . S
C558 C559 1.362 . S
C559 H549 0.930 . S
C559 C552 1.409 . S
C559 C558 1.362 . S
H560 C566 0.930 . S
H561 C569 0.930 . S
H562 C570 0.930 . S
H563 C571 0.930 . S
H564 C574 0.930 . S
H565 C575 0.930 . S
C566 H560 0.930 . S
C566 C567 1.355 . S
C566 C568 1.415 . S
C567 C566 1.355 . S
C567 C569 1.419 1_545 S
C568 C566 1.415 . S
C568 C573 1.425 1_545 S
C568 C575 1.409 . S
C569 H561 0.930 . S
C569 C567 1.419 1_565 S
C569 C570 1.362 . S
C570 H562 0.930 . S
C570 C569 1.362 . S
C570 C573 1.409 . S
C571 H563 0.930 . S
C571 C572 1.355 . S
C571 C573 1.415 . S
C572 C571 1.355 . S
C572 C574 1.419 1_565 S
C573 C568 1.425 1_565 S
C573 C570 1.409 . S
C573 C571 1.415 . S
C574 H564 0.930 . S
C574 C572 1.419 1_545 S
C574 C575 1.362 . S
C575 H565 0.930 . S
C575 C568 1.409 . S
C575 C574 1.362 . S
H576 C582 0.930 . S
H577 C585 0.930 . S
H578 C586 0.930 . S
H579 C587 0.930 . S
H580 C590 0.930 . S
H581 C591 0.930 . S
C582 H576 0.930 . S
C582 C583 1.355 . S
C582 C584 1.415 . S
C583 C582 1.355 . S
C583 C585 1.419 . S
C584 C582 1.415 . S
C584 C589 1.425 . S
C584 C591 1.409 . S
C585 H577 0.930 . S
C585 C583 1.419 . S
C585 C586 1.362 . S
C586 H578 0.930 . S
C586 C585 1.362 . S
C586 C589 1.409 . S
C587 H579 0.930 . S
C587 C588 1.355 . S
C587 C589 1.415 . S
C588 C587 1.355 . S
C588 C590 1.419 . S
C589 C584 1.425 . S
C589 C586 1.409 . S
C589 C587 1.415 . S
C590 H580 0.930 . S
C590 C588 1.419 . S
C590 C591 1.362 . S
C591 H581 0.930 . S
C591 C584 1.409 . S
C591 C590 1.362 . S
H592 C598 0.930 . S
H593 C601 0.930 . S
H594 C602 0.930 . S
H595 C603 0.930 . S
H596 C606 0.930 . S
H597 C607 0.930 . S
C598 H592 0.930 . S
C598 C599 1.355 . S
C598 C600 1.415 . S
C599 C598 1.355 . S
C599 C601 1.419 . S
C600 C598 1.415 . S
C600 C605 1.425 . S
C600 C607 1.409 . S
C601 H593 0.930 . S
C601 C599 1.419 . S
C601 C602 1.362 . S
C602 H594 0.930 . S
C602 C601 1.362 . S
C602 C605 1.409 . S
C603 H595 0.930 . S
C603 C604 1.355 . S
C603 C605 1.415 . S
C604 C603 1.355 . S
C604 C606 1.419 . S
C605 C600 1.425 . S
C605 C602 1.409 . S
C605 C603 1.415 . S
C606 H596 0.930 . S
C606 C604 1.419 . S
C606 C607 1.362 . S
C607 H597 0.930 . S
C607 C600 1.409 . S
C607 C606 1.362 . S
H608 C614 0.930 . S
H609 C617 0.930 . S
H610 C618 0.930 . S
H611 C619 0.930 . S
H612 C622 0.930 . S
H613 C623 0.930 . S
C614 H608 0.930 . S
C614 C615 1.355 . S
C614 C616 1.415 . S
C615 C614 1.355 . S
C615 C617 1.419 . S
C616 C614 1.415 . S
C616 C621 1.425 . S
C616 C623 1.409 . S
C617 H609 0.930 . S
C617 C615 1.419 . S
C617 C618 1.362 . S
C618 H610 0.930 . S
C618 C617 1.362 . S
C618 C621 1.409 . S
C619 H611 0.930 . S
C619 C620 1.355 . S
C619 C621 1.415 . S
C620 C619 1.355 . S
C620 C622 1.419 . S
C621 C616 1.425 . S
C621 C618 1.409 . S
C621 C619 1.415 . S
C622 H612 0.930 . S
C622 C620 1.419 . S
C622 C623 1.362 . S
C623 H613 0.930 . S
C623 C616 1.409 . S
C623 C622 1.362 . S
H624 C630 0.930 . S
H625 C633 0.930 . S
H626 C634 0.930 . S
H627 C635 0.930 . S
H628 C638 0.930 . S
H629 C639 0.930 . S
C630 H624 0.930 . S
C630 C631 1.355 . S
C630 C632 1.415 . S
C631 C630 1.355 . S
C631 C633 1.419 . S
C632 C630 1.415 . S
C632 C637 1.425 . S
C632 C639 1.409 . S
C633 H625 0.930 . S
C633 C631 1.419 . S
C633 C634 1.362 . S
C634 H626 0.930 . S
C634 C633 1.362 . S
C634 C637 1.409 . S
C635 H627 0.930 . S
C635 C636 1.355 . S
C635 C637 1.415 . S
C636 C635 1.355 . S
C636 C638 1.419 . S
C637 C632 1.425 . S
C637 C634 1.409 . S
C637 C635 1.415 . S
C638 H628 0.930 . S
C638 C636 1.419 . S
C638 C639 1.362 . S
C639 H629 0.930 . S
C639 C632 1.409 . S
C639 C638 1.362 . S
H640 C646 0.930 . S
H641 C649 0.930 . S
H642 C650 0.930 1_554 S
H643 C651 0.930 . S
H644 C654 0.930 . S
H645 C655 0.930 1_556 S
C646 H640 0.930 . S
C646 C647 1.355 1_455 S
C646 C648 1.415 . S
C647 C646 1.355 1_655 S
C647 C649 1.419 . S
C648 C646 1.415 . S
C648 C653 1.425 1_456 S
C648 C655 1.409 1_556 S
C649 H641 0.930 . S
C649 C647 1.419 . S
C649 C650 1.362 . S
C650 H642 0.930 1_556 S
C650 C649 1.362 . S
C650 C653 1.409 1_556 S
C651 H643 0.930 . S
C651 C652 1.355 1_655 S
C651 C653 1.415 . S
C652 C651 1.355 1_455 S
C652 C654 1.419 . S
C653 C648 1.425 1_654 S
C653 C650 1.409 1_554 S
C653 C651 1.415 . S
C654 H644 0.930 . S
C654 C652 1.419 . S
C654 C655 1.362 . S
C655 H645 0.930 1_554 S
C655 C648 1.409 1_554 S
C655 C654 1.362 . S
C279 C17 3.259 . S
C284 C119 3.256 . S
C295 C4 1.514 . S
C300 C51 1.512 . S
C311 C38 0.614 . S
C316 C72 0.617 1_554 S
C327 C85 1.514 . S
C332 C106 1.510 . S
C343 C8 3.252 . S
C348 C178 3.251 . S
C359 C13 1.514 . S
C364 C144 1.515 . S
C375 C149 0.437 . S
C380 C81 0.428 . S
C391 C183 1.520 . S
C396 C76 1.519 . S
C407 C221 3.256 . S
C412 C187 3.252 . S
C423 C153 1.519 . S
C428 C208 1.514 . S
C439 C242 0.474 . S
C444 C140 0.466 . S
C455 C174 1.513 . S
C460 C255 1.512 . S
C471 C110 3.259 . S
C476 C212 3.257 . S
C487 C217 1.517 . S
C492 C42 1.522 . S
C503 C47 0.566 . S
C508 C251 0.559 . S
C519 C115 1.519 . S
C524 C246 1.521 . S
C535 C0 1.208 . S
C540 C29 1.209 . S
C551 C63 1.267 . S
C556 C34 1.267 1_554 S
C567 C68 1.236 . S
C572 C97 1.236 . S
C583 C102 1.195 1_556 S
C588 C131 1.195 . S
C599 C165 1.270 1_556 S
C604 C136 1.270 . S
C615 C170 1.194 . S
C620 C199 1.194 1_554 S
C631 C233 1.203 . S
C636 C204 1.203 . S
C647 C267 1.270 . S
C652 C238 1.270 . S
