# Generated by pormake.
# Topology noz, (5)-cn, num edge types: 1
# Building blocks:
#     Node 0, Type 0, BuildingBlock: BEQFEK_clean_sbu_0, # of connection points: 5
#     Node 1, Type 0, BuildingBlock: BEQFEK_clean_sbu_0, # of connection points: 5
#     Node 2, Type 0, BuildingBlock: BEQFEK_clean_sbu_0, # of connection points: 5
#     Node 3, Type 0, BuildingBlock: BEQFEK_clean_sbu_0, # of connection points: 5
#     Node 4, Type 0, BuildingBlock: BEQFEK_clean_sbu_0, # of connection points: 5
#     Node 5, Type 0, BuildingBlock: BEQFEK_clean_sbu_0, # of connection points: 5
#     Node 6, Type 0, BuildingBlock: BEQFEK_clean_sbu_0, # of connection points: 5
#     Node 7, Type 0, BuildingBlock: BEQFEK_clean_sbu_0, # of connection points: 5
#     Edge 8, Type (0, 0), BuildingBlock: KIFKEQ_clean_linker_1, # of connection points: 2
#     Edge 9, Type (0, 0), BuildingBlock: KIFKEQ_clean_linker_1, # of connection points: 2
#     Edge 10, Type (0, 0), BuildingBlock: KIFKEQ_clean_linker_1, # of connection points: 2
#     Edge 11, Type (0, 0), BuildingBlock: KIFKEQ_clean_linker_1, # of connection points: 2
#     Edge 12, Type (0, 0), BuildingBlock: KIFKEQ_clean_linker_1, # of connection points: 2
#     Edge 13, Type (0, 0), BuildingBlock: KIFKEQ_clean_linker_1, # of connection points: 2
#     Edge 14, Type (0, 0), BuildingBlock: KIFKEQ_clean_linker_1, # of connection points: 2
#     Edge 15, Type (0, 0), BuildingBlock: KIFKEQ_clean_linker_1, # of connection points: 2
#     Edge 16, Type (0, 0), BuildingBlock: KIFKEQ_clean_linker_1, # of connection points: 2
#     Edge 17, Type (0, 0), BuildingBlock: KIFKEQ_clean_linker_1, # of connection points: 2
#     Edge 18, Type (0, 0), BuildingBlock: KIFKEQ_clean_linker_1, # of connection points: 2
#     Edge 19, Type (0, 0), BuildingBlock: KIFKEQ_clean_linker_1, # of connection points: 2
#     Edge 20, Type (0, 0), BuildingBlock: KIFKEQ_clean_linker_1, # of connection points: 2
#     Edge 21, Type (0, 0), BuildingBlock: KIFKEQ_clean_linker_1, # of connection points: 2
#     Edge 22, Type (0, 0), BuildingBlock: KIFKEQ_clean_linker_1, # of connection points: 2
#     Edge 23, Type (0, 0), BuildingBlock: KIFKEQ_clean_linker_1, # of connection points: 2
#     Edge 24, Type (0, 0), BuildingBlock: KIFKEQ_clean_linker_1, # of connection points: 2
#     Edge 25, Type (0, 0), BuildingBlock: KIFKEQ_clean_linker_1, # of connection points: 2
#     Edge 26, Type (0, 0), BuildingBlock: KIFKEQ_clean_linker_1, # of connection points: 2
#     Edge 27, Type (0, 0), BuildingBlock: KIFKEQ_clean_linker_1, # of connection points: 2
# Relax obj value: 0.089
# Max RMSD: 0.172
# Mean RMSD: 0.118
data_MOF--net-noz--node1-BEQFEK_clean_sbu_0--edge1-KIFKEQ_clean_linker_1
_symmetry_space_group_name_H-M    P1
_symmetry_Int_Tables_number       1
_symmetry_cell_setting            triclinic
loop_
_symmetry_equiv_pos_as_xyz
'x, y, z'
_cell_length_a     24.733504
_cell_length_b     44.578889
_cell_length_c     43.353997
_cell_angle_alpha  88.71775
_cell_angle_beta   96.088066
_cell_angle_gamma 83.324157
loop_
_atom_site_label
_atom_site_type_symbol
_atom_site_fract_x
_atom_site_fract_y
_atom_site_fract_z
_atom_type_partial_charge
Co0 Co 0.11676 0.36073 0.38159 0.0
Co1 Co 0.03487 0.34028 0.42655 0.0
C2 C 0.14665 0.3093 0.43068 0.0
O3 O 0.15807 0.32766 0.41 0.0
O4 O 0.09853 0.31028 0.43873 0.0
C5 C 0.18992 0.344 0.33758 0.0
O6 O 0.18517 0.31732 0.34977 0.0
C7 C 0.95703 0.30829 0.4591 0.0
C8 C 0.90195 0.34747 0.47226 0.0
C9 C 0.91025 0.31622 0.47365 0.0
N10 N 0.97488 0.33382 0.44912 0.0
N11 N 0.94194 0.35709 0.4573 0.0
C12 C 0.98529 0.27715 0.45569 0.0
H13 H 0.02969 0.27771 0.45483 0.0
H14 H 0.96835 0.26786 0.43369 0.0
H15 H 0.97882 0.26191 0.47521 0.0
C16 C 0.02181 0.35253 0.33521 0.0
N17 N 0.0473 0.35035 0.36443 0.0
N18 N 0.01355 0.34146 0.38333 0.0
C19 C 0.96573 0.33765 0.3668 0.0
C20 C 0.96915 0.34467 0.33582 0.0
C21 C 0.04586 0.36445 0.30786 0.0
H22 H 0.0664 0.38458 0.31443 0.0
H23 H 0.07729 0.34691 0.30075 0.0
H24 H 0.01415 0.37053 0.28793 0.0
O25 O 0.10668 0.39789 0.40615 0.0
O26 O 0.05462 0.37999 0.43922 0.0
H27 H 0.89992 0.34585 0.39492 0.0
H28 H 0.88517 0.32236 0.36235 0.0
C29 C 0.91738 0.32772 0.38049 0.0
H30 H 0.93074 0.30726 0.3955 0.0
H31 H 0.94647 0.37962 0.45237 0.0
O32 O 0.16306 0.36723 0.3475 0.0
C33 C 0.08102 0.40075 0.43012 0.0
Co34 Co 0.50856 0.63277 0.88423 0.0
Co35 Co 0.60575 0.64551 0.93331 0.0
C36 C 0.49813 0.68485 0.92632 0.0
O37 O 0.47896 0.66939 0.90433 0.0
O38 O 0.54676 0.67827 0.93943 0.0
C39 C 0.40504 0.62532 0.85142 0.0
O40 O 0.38942 0.62582 0.87946 0.0
C41 C 0.69379 0.6786 0.96189 0.0
C42 C 0.73927 0.64413 0.99532 0.0
C43 C 0.73785 0.67385 0.98489 0.0
N44 N 0.67056 0.65282 0.95886 0.0
N45 N 0.6982 0.63227 0.97879 0.0
C46 C 0.67148 0.70766 0.94474 0.0
H47 H 0.6704 0.72659 0.96096 0.0
H48 H 0.62997 0.70627 0.93286 0.0
H49 H 0.69852 0.71248 0.92687 0.0
C50 C 0.59519 0.63336 0.84256 0.0
N51 N 0.57754 0.63701 0.8707 0.0
N52 N 0.61877 0.64208 0.89092 0.0
C53 C 0.66432 0.64152 0.87619 0.0
C54 C 0.65077 0.63604 0.84505 0.0
C55 C 0.55917 0.62733 0.81396 0.0
H56 H 0.54456 0.60491 0.81672 0.0
H57 H 0.5228 0.64464 0.81103 0.0
H58 H 0.58082 0.62786 0.79286 0.0
O59 O 0.51396 0.59795 0.91427 0.0
O60 O 0.58204 0.60759 0.94903 0.0
H61 H 0.72667 0.62915 0.91401 0.0
H62 H 0.75266 0.63506 0.8772 0.0
C63 C 0.72057 0.64308 0.89214 0.0
H64 H 0.72495 0.66681 0.89798 0.0
H65 H 0.68831 0.61033 0.98157 0.0
O66 O 0.45504 0.62707 0.84814 0.0
C67 C 0.54501 0.5913 0.93949 0.0
Co68 Co 0.07307 0.64999 0.57022 0.0
Co69 Co 0.98983 0.61984 0.60699 0.0
C70 C 0.95371 0.67318 0.56325 0.0
O71 O 1.00229 0.67463 0.55673 0.0
O72 O 0.94333 0.65329 0.58256 0.0
C73 C 0.1271 0.69889 0.55257 0.0
O74 O 0.08565 0.71409 0.56417 0.0
C75 C 0.9154 0.61978 0.65466 0.0
C76 C 0.90659 0.5714 0.66117 0.0
C77 C 0.89039 0.59978 0.67197 0.0
N78 N 0.94477 0.60392 0.63486 0.0
N79 N 0.93902 0.57502 0.63863 0.0
C80 C 0.91571 0.65309 0.65824 0.0
H81 H 0.95147 0.66088 0.64837 0.0
H82 H 0.91682 0.6588 0.68307 0.0
H83 H 0.878 0.66518 0.64537 0.0
C84 C 0.13172 0.65019 0.63342 0.0
N85 N 0.08735 0.6457 0.61401 0.0
N86 N 0.05311 0.6326 0.62958 0.0
C87 C 0.07498 0.62812 0.65945 0.0
C88 C 0.12531 0.63927 0.66287 0.0
C89 C 0.17994 0.66389 0.62362 0.0
H90 H 0.16627 0.68725 0.61447 0.0
H91 H 0.2124 0.66483 0.64315 0.0
H92 H 0.19694 0.65068 0.60473 0.0
O93 O 0.07248 0.60963 0.55213 0.0
O94 O 1.01279 0.5883 0.57784 0.0
H95 H 0.03592 0.58999 0.67258 0.0
H96 H 0.0832 0.60222 0.70295 0.0
C97 C 0.0519 0.60998 0.68328 0.0
H98 H 0.01775 0.62411 0.69248 0.0
H99 H 0.95802 0.55777 0.62626 0.0
O100 O 0.13081 0.67022 0.55293 0.0
C101 C 0.04611 0.58742 0.55724 0.0
Co102 Co 0.50062 0.36613 0.121 0.0
Co103 Co 0.59152 0.34349 0.07865 0.0
C104 C 0.49054 0.31541 0.07428 0.0
O105 O 0.47239 0.33441 0.09341 0.0
O106 O 0.53912 0.31457 0.06681 0.0
C107 C 0.43293 0.34854 0.16447 0.0
O108 O 0.44969 0.32231 0.15337 0.0
C109 C 0.67672 0.31361 0.0426 0.0
C110 C 0.73315 0.34869 0.04298 0.0
C111 C 0.72578 0.32015 0.03273 0.0
N112 N 0.65611 0.33729 0.05811 0.0
N113 N 0.68975 0.35827 0.05793 0.0
C114 C 0.65145 0.28481 0.03913 0.0
H115 H 0.63333 0.27938 0.06062 0.0
H116 H 0.68205 0.26581 0.03412 0.0
H117 H 0.618 0.28783 0.01973 0.0
C118 C 0.59673 0.35438 0.16916 0.0
N119 N 0.57309 0.3534 0.13976 0.0
N120 N 0.61035 0.34243 0.12217 0.0
C121 C 0.65842 0.33518 0.13995 0.0
C122 C 0.6516 0.34276 0.17029 0.0
C123 C 0.56722 0.36664 0.19542 0.0
H124 H 0.54332 0.38875 0.18814 0.0
H125 H 0.5379 0.35092 0.20124 0.0
H126 H 0.59576 0.36918 0.21646 0.0
O127 O 0.49926 0.40388 0.09538 0.0
O128 O 0.55806 0.38427 0.06383 0.0
H129 H 0.72835 0.343 0.11737 0.0
H130 H 0.74172 0.31272 0.14602 0.0
C131 C 0.71096 0.32373 0.12758 0.0
H132 H 0.7032 0.30728 0.10932 0.0
H133 H 0.68342 0.379 0.06848 0.0
O134 O 0.45019 0.37219 0.15408 0.0
C135 C 0.52473 0.40602 0.0715 0.0
Co136 Co 0.62526 0.85759 0.38514 0.0
Co137 Co 0.53903 0.83934 0.42823 0.0
C138 C 0.64981 0.80638 0.43457 0.0
O139 O 0.66328 0.82362 0.4135 0.0
O140 O 0.60129 0.80899 0.4423 0.0
C141 C 0.69546 0.84051 0.33955 0.0
O142 O 0.68255 0.81387 0.3476 0.0
C143 C 0.45719 0.80807 0.45716 0.0
C144 C 0.40257 0.84728 0.47068 0.0
C145 C 0.40905 0.81601 0.47047 0.0
N146 N 0.47762 0.83358 0.44962 0.0
N147 N 0.44518 0.85687 0.45816 0.0
C148 C 0.48114 0.7772 0.44923 0.0
H149 H 0.50811 0.77871 0.43049 0.0
H150 H 0.4482 0.7631 0.44193 0.0
H151 H 0.50615 0.76616 0.47006 0.0
C152 C 0.53265 0.84967 0.33679 0.0
N153 N 0.5559 0.84822 0.36649 0.0
N154 N 0.5204 0.83997 0.38465 0.0
C155 C 0.47371 0.83574 0.36712 0.0
C156 C 0.47998 0.84154 0.33623 0.0
C157 C 0.56051 0.85864 0.3096 0.0
H158 H 0.59154 0.8398 0.30481 0.0
H159 H 0.53132 0.86356 0.28839 0.0
H160 H 0.58191 0.8787 0.31514 0.0
O161 O 0.61554 0.89493 0.40976 0.0
O162 O 0.55888 0.87875 0.44108 0.0
H163 H 0.38694 0.83044 0.3617 0.0
H164 H 0.42862 0.80647 0.39126 0.0
C165 C 0.42217 0.82931 0.37993 0.0
H166 H 0.41185 0.84606 0.3975 0.0
H167 H 0.45134 0.8794 0.45465 0.0
O168 O 0.67477 0.86371 0.35263 0.0
C169 C 0.58758 0.89872 0.43275 0.0
Co170 Co 0.99986 0.12845 0.88303 0.0
Co171 Co 0.09905 0.14772 0.92667 0.0
C172 C 0.99087 0.1837 0.92286 0.0
O173 O 0.972 0.16496 0.90411 0.0
O174 O 0.04137 0.18103 0.93326 0.0
C175 C 0.92378 0.14522 0.83175 0.0
O176 O 0.94768 0.16995 0.83521 0.0
C177 C 0.18406 0.18062 0.95929 0.0
C178 C 0.25257 0.14408 0.96937 0.0
C179 C 0.23792 0.17467 0.97261 0.0
N180 N 0.1676 0.15468 0.94863 0.0
N181 N 0.20862 0.1329 0.95501 0.0
C182 C 0.14997 0.2107 0.95477 0.0
H183 H 0.12623 0.21241 0.93147 0.0
H184 H 0.17568 0.2295 0.95721 0.0
H185 H 0.12047 0.21274 0.97241 0.0
C186 C 0.08207 0.12762 0.83763 0.0
N187 N 0.06615 0.1331 0.86597 0.0
N188 N 0.10663 0.14286 0.88367 0.0
C189 C 0.14895 0.14485 0.86675 0.0
C190 C 0.13488 0.13511 0.8371 0.0
C191 C 0.04735 0.11528 0.81165 0.0
H192 H 0.02249 0.09873 0.82094 0.0
H193 H 0.01923 0.13412 0.7996 0.0
H194 H 0.07243 0.1044 0.79434 0.0
O195 O 1.01028 0.09492 0.91427 0.0
O196 O 0.07812 0.11006 0.94568 0.0
H197 H 0.22604 0.13505 0.89427 0.0
H198 H 0.22824 0.15888 0.86056 0.0
C199 C 0.20319 0.15386 0.87935 0.0
H200 H 0.19693 0.17402 0.89365 0.0
H201 H 0.20688 0.11045 0.94908 0.0
O202 O 0.94062 0.12253 0.84997 0.0
C203 C 0.0433 0.09153 0.93907 0.0
Co204 Co 0.56879 0.15065 0.56665 0.0
Co205 Co 0.48414 0.12188 0.60354 0.0
C206 C 0.44888 0.17315 0.55746 0.0
O207 O 0.49774 0.17341 0.55094 0.0
O208 O 0.43741 0.15492 0.57817 0.0
C209 C 0.62164 0.19994 0.54877 0.0
O210 O 0.57859 0.21511 0.55885 0.0
C211 C 0.40514 0.12102 0.64909 0.0
C212 C 0.40702 0.07226 0.65999 0.0
C213 C 0.38356 0.10054 0.66764 0.0
N214 N 0.43958 0.10551 0.63153 0.0
N215 N 0.44014 0.07635 0.63792 0.0
C216 C 0.39775 0.15478 0.64988 0.0
H217 H 0.43288 0.1642 0.64091 0.0
H218 H 0.39377 0.16226 0.67387 0.0
H219 H 0.35994 0.1637 0.63482 0.0
C220 C 0.62341 0.15488 0.63011 0.0
N221 N 0.5805 0.14866 0.6105 0.0
N222 N 0.5461 0.13588 0.62625 0.0
C223 C 0.56665 0.13321 0.65646 0.0
C224 C 0.61593 0.14546 0.65984 0.0
C225 C 0.67355 0.16637 0.62005 0.0
H226 H 0.68714 0.15347 0.60012 0.0
H227 H 0.66351 0.19048 0.61248 0.0
H228 H 0.70764 0.16441 0.63907 0.0
O229 O 0.57168 0.10963 0.55059 0.0
O230 O 0.50937 0.08958 0.57531 0.0
H231 H 0.53185 0.09527 0.67378 0.0
H232 H 0.56825 0.11542 0.70356 0.0
C233 C 0.54117 0.11788 0.68134 0.0
H234 H 0.50226 0.13146 0.68532 0.0
H235 H 0.46408 0.05931 0.62774 0.0
O236 O 0.62622 0.17125 0.54975 0.0
C237 C 0.5447 0.08774 0.55577 0.0
Co238 Co 1.00789 0.86676 0.12508 0.0
Co239 Co 0.09465 0.8458 0.0793 0.0
C240 C 0.99118 0.81855 0.07715 0.0
O241 O 0.97621 0.83537 0.09885 0.0
O242 O 0.03728 0.81976 0.06693 0.0
C243 C 0.95631 0.8487 0.17568 0.0
O244 O 0.98437 0.82312 0.16939 0.0
C245 C 0.1799 0.81292 0.04458 0.0
C246 C 0.22091 0.85145 0.02966 0.0
C247 C 0.22173 0.82048 0.02798 0.0
N248 N 0.15566 0.83841 0.05575 0.0
N249 N 0.18054 0.86125 0.04672 0.0
C250 C 0.16198 0.78227 0.04862 0.0
H251 H 0.11961 0.78404 0.05504 0.0
H252 H 0.18942 0.76937 0.06748 0.0
H253 H 0.16482 0.76959 0.02699 0.0
C254 C 0.10905 0.85427 0.17015 0.0
N255 N 0.08198 0.85322 0.14153 0.0
N256 N 0.11708 0.84275 0.12239 0.0
C257 C 0.16712 0.83644 0.13822 0.0
C258 C 0.1639 0.84369 0.16896 0.0
C259 C 0.08434 0.86846 0.19716 0.0
H260 H 0.0512 0.8867 0.18895 0.0
H261 H 0.06664 0.85101 0.21024 0.0
H262 H 0.11573 0.87787 0.21312 0.0
O263 O 1.00523 0.90532 0.09998 0.0
O264 O 0.06688 0.88818 0.06891 0.0
H265 H 0.23058 0.84263 0.10967 0.0
H266 H 0.25139 0.81578 0.14181 0.0
C267 C 0.21736 0.82442 0.12393 0.0
H268 H 0.20786 0.80576 0.10864 0.0
H269 H 0.16987 0.88367 0.05215 0.0
O270 O 0.96039 0.87233 0.15949 0.0
C271 C 0.03378 0.90939 0.07775 0.0
H272 H 0.19622 0.39312 0.29911 0.0
H273 H 0.26552 0.30048 0.31979 0.0
H274 H 0.25383 0.39573 0.25677 0.0
H275 H 0.32388 0.30333 0.27852 0.0
H276 H 0.37527 0.30424 0.18256 0.0
H277 H 0.31591 0.30486 0.22365 0.0
H278 H 0.34709 0.39613 0.2441 0.0
H279 H 0.40565 0.39579 0.2019 0.0
C280 C 0.22404 0.37343 0.29479 0.0
C281 C 0.22594 0.34651 0.31264 0.0
C282 C 0.25724 0.37496 0.27063 0.0
C283 C 0.29317 0.34964 0.26395 0.0
C284 C 0.2958 0.32305 0.28241 0.0
C285 C 0.26247 0.32146 0.30627 0.0
C286 C 0.3695 0.32451 0.19573 0.0
C287 C 0.3955 0.3499 0.18906 0.0
C288 C 0.33562 0.32481 0.2195 0.0
C289 C 0.32719 0.35039 0.23757 0.0
C290 C 0.35235 0.3761 0.23054 0.0
C291 C 0.38608 0.37588 0.20646 0.0
H292 H 0.29617 0.61881 0.84998 0.0
H293 H 0.42171 0.6314 0.79039 0.0
H294 H 0.22844 0.62064 0.80462 0.0
H295 H 0.35384 0.63421 0.7452 0.0
H296 H 0.22899 0.6104 0.66784 0.0
H297 H 0.29645 0.60496 0.71365 0.0
H298 H 0.18006 0.65597 0.76601 0.0
H299 H 0.11239 0.66055 0.72018 0.0
C300 C 0.30933 0.62197 0.82721 0.0
C301 C 0.36435 0.62498 0.82382 0.0
C302 C 0.2704 0.62325 0.8012 0.0
C303 C 0.28554 0.62772 0.77121 0.0
C304 C 0.34078 0.63033 0.76786 0.0
C305 C 0.37972 0.62887 0.79383 0.0
C306 C 0.21819 0.62052 0.68919 0.0
C307 C 0.16603 0.63619 0.69058 0.0
C308 C 0.25674 0.61749 0.71539 0.0
C309 C 0.24389 0.63016 0.74354 0.0
C310 C 0.1912 0.6456 0.74488 0.0
C311 C 0.15257 0.64844 0.71866 0.0
H312 H 0.81842 0.6503 0.68091 0.0
H313 H 0.88306 0.5622 0.72121 0.0
H314 H 0.76404 0.65942 0.72413 0.0
H315 H 0.827 0.57103 0.7639 0.0
H316 H 0.66672 0.58591 0.81129 0.0
H317 H 0.72602 0.57743 0.76982 0.0
H318 H 0.77795 0.66594 0.78279 0.0
H319 H 0.71835 0.67429 0.82441 0.0
C320 C 0.82214 0.63313 0.69924 0.0
C321 C 0.85644 0.60582 0.69794 0.0
C322 C 0.79049 0.63829 0.72391 0.0
C323 C 0.79156 0.61602 0.74748 0.0
C324 C 0.82517 0.58856 0.74598 0.0
C325 C 0.85726 0.58354 0.72152 0.0
C326 C 0.69093 0.60347 0.80522 0.0
C327 C 0.688 0.63078 0.82074 0.0
C328 C 0.72504 0.59858 0.78168 0.0
C329 C 0.75652 0.62105 0.77306 0.0
C330 C 0.75377 0.64835 0.78879 0.0
C331 C 0.72006 0.65308 0.81263 0.0
H332 H 0.71987 0.2951 0.19767 0.0
H333 H 0.68264 0.39186 0.20024 0.0
H334 H 0.79836 0.29668 0.23689 0.0
H335 H 0.76084 0.39364 0.23955 0.0
H336 H 0.86962 0.37776 0.33354 0.0
H337 H 0.79157 0.37753 0.29398 0.0
H338 H 0.8896 0.31565 0.241 0.0
H339 H 0.96757 0.31572 0.28106 0.0
C340 C 0.72849 0.31666 0.20684 0.0
C341 C 0.69548 0.34334 0.19612 0.0
C342 C 0.77351 0.31763 0.22906 0.0
C343 C 0.78608 0.34532 0.24112 0.0
C344 C 0.75203 0.37194 0.23087 0.0
C345 C 0.70724 0.37095 0.2085 0.0
C346 C 0.87438 0.36429 0.3133 0.0
C347 C 0.92419 0.34661 0.31028 0.0
C348 C 0.82988 0.36424 0.29062 0.0
C349 C 0.83428 0.3464 0.26448 0.0
C350 C 0.88474 0.32928 0.26112 0.0
C351 C 0.92944 0.32951 0.28378 0.0
H352 H 0.73456 0.79635 0.3025 0.0
H353 H 0.74089 0.89064 0.32162 0.0
H354 H 0.79699 0.79981 0.26332 0.0
H355 H 0.80515 0.89392 0.28287 0.0
H356 H 0.8779 0.89421 0.1886 0.0
H357 H 0.81431 0.89331 0.22804 0.0
H358 H 0.89062 0.80418 0.25951 0.0
H359 H 0.95253 0.80473 0.21968 0.0
C360 C 0.74955 0.81783 0.29848 0.0
C361 C 0.73291 0.84317 0.31534 0.0
C362 C 0.78575 0.81977 0.27609 0.0
C363 C 0.80677 0.84707 0.27009 0.0
C364 C 0.78953 0.87259 0.28667 0.0
C365 C 0.7529 0.87068 0.30901 0.0
C366 C 0.88113 0.8745 0.20406 0.0
C367 C 0.91994 0.84943 0.2008 0.0
C368 C 0.84483 0.87402 0.22677 0.0
C369 C 0.84681 0.84852 0.24681 0.0
C370 C 0.88687 0.8239 0.24405 0.0
C371 C 0.92272 0.82429 0.22128 0.0
H372 H 0.67201 0.09613 0.69136 0.0
H373 H 0.65081 0.19348 0.68965 0.0
H374 H 0.74625 0.09529 0.73351 0.0
H375 H 0.72319 0.19304 0.73268 0.0
H376 H 0.89514 0.18379 0.78168 0.0
H377 H 0.81906 0.18316 0.74147 0.0
H378 H 0.77124 0.10434 0.78648 0.0
H379 H 0.84916 0.10431 0.82609 0.0
C380 C 0.68264 0.11731 0.70063 0.0
C381 C 0.65594 0.14487 0.68763 0.0
C382 C 0.725 0.11691 0.72477 0.0
C383 C 0.74114 0.14411 0.73645 0.0
C384 C 0.7128 0.17166 0.72389 0.0
C385 C 0.67097 0.172 0.69953 0.0
C386 C 0.86844 0.16629 0.78297 0.0
C387 C 0.87806 0.14414 0.80708 0.0
C388 C 0.82444 0.16605 0.76002 0.0
C389 C 0.78843 0.1439 0.76083 0.0
C390 C 0.79837 0.12157 0.7849 0.0
C391 C 0.84291 0.12159 0.80768 0.0
H392 H 0.17086 0.08199 0.81255 0.0
H393 H 0.179 0.1779 0.80537 0.0
H394 H 0.23008 0.07397 0.77103 0.0
H395 H 0.23946 0.17008 0.76422 0.0
H396 H 0.29769 0.14563 0.66914 0.0
H397 H 0.23794 0.15453 0.71009 0.0
H398 H 0.32482 0.07671 0.76228 0.0
H399 H 0.38475 0.06795 0.72143 0.0
C400 C 0.1854 0.10133 0.80193 0.0
C401 C 0.1704 0.13053 0.81186 0.0
C402 C 0.21964 0.09677 0.77839 0.0
C403 C 0.23964 0.12138 0.76432 0.0
C404 C 0.22431 0.15068 0.77431 0.0
C405 C 0.19009 0.15518 0.79794 0.0
C406 C 0.30484 0.1308 0.68961 0.0
C407 C 0.34676 0.10644 0.69229 0.0
C408 C 0.27034 0.13581 0.71304 0.0
C409 C 0.27666 0.11639 0.73953 0.0
C410 C 0.31836 0.0919 0.74204 0.0
C411 C 0.35283 0.08694 0.71866 0.0
H412 H 0.25688 0.87002 0.16542 0.0
H413 H 0.17423 0.81907 0.22769 0.0
H414 H 0.33544 0.86904 0.20479 0.0
H415 H 0.25241 0.81858 0.26759 0.0
H416 H 0.42568 0.79466 0.31718 0.0
H417 H 0.34877 0.79552 0.27655 0.0
H418 H 0.36062 0.88963 0.25573 0.0
H419 H 0.43753 0.88855 0.2964 0.0
C420 C 0.25569 0.8586 0.18762 0.0
C421 C 0.21002 0.84428 0.19351 0.0
C422 C 0.30039 0.85826 0.21023 0.0
C423 C 0.30032 0.84357 0.23924 0.0
C424 C 0.25405 0.82968 0.24529 0.0
C425 C 0.20918 0.83016 0.22264 0.0
C426 C 0.41201 0.81537 0.30359 0.0
C427 C 0.43756 0.84145 0.30956 0.0
C428 C 0.3678 0.81597 0.28059 0.0
C429 C 0.34838 0.8427 0.26305 0.0
C430 C 0.37495 0.86862 0.26862 0.0
C431 C 0.41904 0.86801 0.29175 0.0
H432 H 0.98414 0.54058 0.55353 0.0
H433 H 0.12415 0.57307 0.51783 0.0
H434 H 0.99463 0.49649 0.52187 0.0
H435 H 0.13589 0.52821 0.48686 0.0
H436 H 0.10339 0.45733 0.4123 0.0
H437 H 0.09615 0.50311 0.44261 0.0
H438 H 0.05403 0.45117 0.52011 0.0
H439 H 0.05924 0.40624 0.48977 0.0
C440 C 0.01753 0.53818 0.53915 0.0
C441 C 0.05344 0.5603 0.53835 0.0
C442 C 0.02374 0.51278 0.52106 0.0
C443 C 0.06644 0.50863 0.50198 0.0
C444 C 0.10224 0.53083 0.50103 0.0
C445 C 0.09571 0.55644 0.51896 0.0
C446 C 0.09283 0.45582 0.43586 0.0
C447 C 0.08122 0.4283 0.44848 0.0
C448 C 0.08884 0.48197 0.45327 0.0
C449 C 0.07369 0.48091 0.48367 0.0
C450 C 0.06423 0.45306 0.49651 0.0
C451 C 0.06758 0.42719 0.47911 0.0
H452 H 0.58637 0.57748 0.99975 0.0
H453 H 0.48377 0.54552 0.9234 0.0
H454 H 0.5724 0.53405 0.03191 0.0
H455 H 0.47015 0.50198 0.95571 0.0
H456 H 0.53654 0.41089 1.01033 0.0
H457 H 0.53491 0.45674 0.97861 0.0
H458 H 0.49583 0.51066 0.05654 0.0
H459 H 0.49702 0.46435 0.08857 0.0
C460 C 0.56082 0.56122 0.98981 0.0
C461 C 0.53654 0.56484 0.95889 0.0
C462 C 0.55237 0.53654 1.00837 0.0
C463 C 0.52002 0.51477 0.99633 0.0
C464 C 0.49539 0.51844 0.96553 0.0
C465 C 0.50326 0.54333 0.94705 0.0
C466 C 0.52691 0.43251 0.02066 0.0
C467 C 0.5172 0.43408 0.05199 0.0
C468 C 0.52566 0.45874 1.0024 0.0
C469 C 0.5154 0.48721 0.01514 0.0
C470 C 0.50414 0.48892 0.04625 0.0
C471 C 0.50448 0.46251 0.06447 0.0
H472 H 0.48329 0.04056 0.55211 0.0
H473 H 0.62608 0.07221 0.51888 0.0
H474 H 0.49625 -0.0043 0.52166 0.0
H475 H 0.64019 0.0267 0.48919 0.0
H476 H 0.61213 0.9549 0.41502 0.0
H477 H 0.60321 0.00109 0.44466 0.0
H478 H 0.55598 0.95025 0.52146 0.0
H479 H 0.56292 0.90492 0.49175 0.0
C480 C 0.5178 0.0378 0.53856 0.0
C481 C 0.5537 0.05994 0.53803 0.0
C482 C 0.52543 0.01198 0.52117 0.0
C483 C 0.56954 0.00746 0.50309 0.0
C484 C 0.60547 0.02961 0.50255 0.0
C485 C 0.59756 0.05561 0.51976 0.0
C486 C 0.60018 0.95371 0.4383 0.0
C487 C 0.58756 0.92641 0.45088 0.0
C488 C 0.59519 0.98009 0.45533 0.0
C489 C 0.57802 0.97947 0.4853 0.0
C490 C 0.56771 0.9518 0.49816 0.0
C491 C 0.57207 0.92572 0.48114 0.0
H492 H 0.1195 0.93362 0.05854 0.0
H493 H 0.94503 0.95233 0.06174 0.0
H494 H 0.11883 0.97945 0.02724 0.0
H495 H 0.94424 -0.001 0.03006 0.0
H496 H 0.96749 0.05108 0.93668 0.0
H497 H 0.96147 0.01009 0.97406 0.0
H498 H 0.10323 0.03497 0.03007 0.0
H499 H 0.10982 0.07565 0.99276 0.0
C500 C 0.08096 0.94779 0.05274 0.0
C501 C 0.03222 0.93934 0.06232 0.0
C502 C 0.08067 0.97419 0.035 0.0
C503 C 0.0315 0.99279 0.02614 0.0
C504 C 0.98269 0.98491 0.03643 0.0
C505 C 0.98313 0.95845 0.0547 0.0
C506 C 0.99741 0.04782 0.95696 0.0
C507 C 0.03955 0.06647 0.96151 0.0
C508 C 0.99349 0.02457 0.97854 0.0
C509 C 0.0318 0.01938 1.00499 0.0
C510 C 0.07334 0.03831 1.00977 0.0
C511 C 0.07714 0.0616 0.98833 0.0
H512 H 0.25676 0.31196 0.4342 0.0
H513 H 0.13661 0.25868 0.46544 0.0
H514 H 0.32907 0.27978 0.46548 0.0
H515 H 0.20924 0.2254 0.49558 0.0
H516 H 0.45303 0.20137 0.50161 0.0
H517 H 0.38002 0.23247 0.46994 0.0
H518 H 0.27163 0.2227 0.5406 0.0
H519 H 0.34443 0.1901 0.57165 0.0
C520 C 0.2459 0.293 0.44731 0.0
C521 C 0.19093 0.2879 0.44735 0.0
C522 C 0.28746 0.2744 0.46523 0.0
C523 C 0.27525 0.24989 0.48324 0.0
C524 C 0.22025 0.24439 0.4826 0.0
C525 C 0.17857 0.2633 0.46505 0.0
C526 C 0.41367 0.20592 0.51048 0.0
C527 C 0.40456 0.1933 0.5392 0.0
C528 C 0.37172 0.22394 0.49233 0.0
C529 C 0.3197 0.2303 0.50262 0.0
C530 C 0.31078 0.2179 0.53158 0.0
C531 C 0.35263 0.19941 0.54955 0.0
H532 H 0.39991 0.71258 0.89892 0.0
H533 H 0.51149 0.71009 0.98302 0.0
H534 H 0.3328 0.74638 0.92297 0.0
H535 H 0.44396 0.74363 1.00702 0.0
H536 H 0.27905 0.76646 0.04883 0.0
H537 H 0.34802 0.73566 0.02294 0.0
H538 H 0.323 0.80008 0.94541 0.0
H539 H 0.25398 0.8309 0.97134 0.0
C540 C 0.41039 0.71955 0.92236 0.0
C541 C 0.46093 0.70859 0.93911 0.0
C542 C 0.372 0.73888 0.93608 0.0
C543 C 0.38312 0.74724 0.96691 0.0
C544 C 0.43426 0.73715 0.98332 0.0
C545 C 0.47302 0.7182 0.96947 0.0
C546 C 0.28756 0.77371 0.02604 0.0
C547 C 0.26066 0.80072 1.01179 0.0
C548 C 0.32752 0.75636 1.01145 0.0
C549 C 0.34079 0.76562 0.98227 0.0
C550 C 0.31329 0.79243 0.96784 0.0
C551 C 0.27398 0.81 0.98265 0.0
H552 H 0.13402 0.75943 0.55205 0.0
H553 H 0.21645 0.67469 0.52527 0.0
H554 H 0.20341 0.7862 0.53165 0.0
H555 H 0.28543 0.7017 0.50406 0.0
H556 H 0.42875 0.76031 0.50082 0.0
H557 H 0.36113 0.73083 0.52002 0.0
H558 H 0.23147 0.79928 0.48213 0.0
H559 H 0.29888 0.8287 0.46336 0.0
C560 C 0.16681 0.74651 0.54165 0.0
C561 C 0.16958 0.71495 0.54017 0.0
C562 C 0.20646 0.76189 0.52978 0.0
C563 C 0.24971 0.7461 0.51598 0.0
C564 C 0.25285 0.71448 0.51475 0.0
C565 C 0.21317 0.69904 0.52674 0.0
C566 C 0.38576 0.76871 0.49609 0.0
C567 C 0.36902 0.79669 0.48042 0.0
C568 C 0.34702 0.75189 0.50718 0.0
C569 C 0.29094 0.76283 0.50281 0.0
C570 C 0.27438 0.7905 0.48646 0.0
C571 C 0.31298 0.80729 0.47557 0.0
H572 H 0.216 0.21467 0.01751 0.0
H573 H 0.34116 0.18162 0.96057 0.0
H574 H 0.27735 0.24766 0.04321 0.0
H575 H 0.40167 0.21598 0.98444 0.0
H576 H 0.51865 0.25991 0.05112 0.0
H577 H 0.45767 0.22562 0.02767 0.0
H578 H 0.31814 0.29088 0.03945 0.0
H579 H 0.37915 0.32393 0.06484 0.0
C580 C 0.25645 0.21499 1.01014 0.0
C581 C 0.27391 0.19586 0.98701 0.0
C582 C 0.2917 0.234 0.02473 0.0
C583 C 0.3449 0.23478 0.01602 0.0
C584 C 0.36174 0.21572 0.99244 0.0
C585 C 0.32692 0.19619 0.97845 0.0
C586 C 0.47488 0.26676 0.0488 0.0
C587 C 0.45367 0.29453 0.05991 0.0
C588 C 0.43974 0.24721 0.03507 0.0
C589 C 0.38252 0.25531 0.03137 0.0
C590 C 0.36162 0.28333 0.04238 0.0
C591 C 0.39669 0.3025 0.05678 0.0
H592 H 0.96001 0.72443 0.52861 0.0
H593 H 0.84428 0.66754 0.5588 0.0
H594 H 0.88581 0.75571 0.49756 0.0
H595 H 0.77037 0.69799 0.52671 0.0
H596 H 0.6431 0.77629 0.48937 0.0
H597 H 0.71579 0.74497 0.52131 0.0
H598 H 0.8256 0.75531 0.45158 0.0
H599 H 0.75336 0.78779 0.42023 0.0
C600 C 0.91869 0.71858 0.5286 0.0
C601 C 0.90809 0.69349 0.5462 0.0
C602 C 0.87614 0.73635 0.51052 0.0
C603 C 0.82198 0.72926 0.50927 0.0
C604 C 0.81135 0.70441 0.52732 0.0
C605 C 0.85383 0.68686 0.54571 0.0
C606 C 0.68263 0.7717 0.48071 0.0
C607 C 0.69246 0.78468 0.45228 0.0
C608 C 0.72439 0.7536 0.49903 0.0
C609 C 0.7769 0.74771 0.48923 0.0
C610 C 0.78613 0.75991 0.46028 0.0
C611 C 0.74452 0.77832 0.44211 0.0
H612 H 0.83529 0.30705 0.04707 0.0
H613 H 0.70215 0.29184 0.97891 0.0
H614 H 0.89936 0.27593 0.01862 0.0
H615 H 0.7662 0.2624 0.94901 0.0
H616 H 0.8814 0.18282 0.92286 0.0
H617 H 0.81801 0.21648 0.94839 0.0
H618 H 0.94725 0.27131 0.97567 0.0
H619 H 1.0119 0.23603 0.95163 0.0
C620 C 0.82001 0.29716 0.02575 0.0
C621 C 0.76396 0.30127 0.01534 0.0
C622 C 0.85673 0.27961 1.00919 0.0
C623 C 0.83829 0.26647 0.98136 0.0
C624 C 0.782 0.27141 0.97067 0.0
C625 C 0.74517 0.28834 0.98768 0.0
C626 C 0.89629 0.20223 0.93403 0.0
C627 C 0.95177 0.20672 0.9353 0.0
C628 C 0.85966 0.22176 0.94859 0.0
C629 C 0.87714 0.24678 0.96429 0.0
C630 C 0.93236 0.25194 0.96448 0.0
C631 C 0.96943 0.23192 0.95043 0.0
H632 H 0.87778 0.26345 0.45093 0.0
H633 H 0.85694 0.32598 0.52457 0.0
H634 H 0.81011 0.23424 0.47006 0.0
H635 H 0.78923 0.29679 0.54379 0.0
H636 H 0.62361 0.26084 0.54316 0.0
H637 H 0.69622 0.28745 0.52606 0.0
H638 H 0.79225 0.20209 0.51369 0.0
H639 H 0.71907 0.17535 0.5303 0.0
C640 C 0.85997 0.27045 0.47173 0.0
C641 C 0.87335 0.29669 0.48661 0.0
C642 C 0.82089 0.25383 0.48258 0.0
C643 C 0.7942 0.26326 0.50838 0.0
C644 C 0.80848 0.28919 0.52358 0.0
C645 C 0.84744 0.30579 0.51271 0.0
C646 C 0.66016 0.24772 0.53678 0.0
C647 C 0.66555 0.216 0.53804 0.0
C648 C 0.70196 0.26298 0.52719 0.0
C649 C 0.75011 0.24686 0.5187 0.0
C650 C 0.75543 0.21512 0.51984 0.0
C651 C 0.71358 0.19983 0.52944 0.0
H652 H 0.78441 0.71688 0.95381 0.0
H653 H 0.7753 0.67911 0.04541 0.0
H654 H 0.84473 0.75235 0.97605 0.0
H655 H 0.83654 0.71413 0.06761 0.0
H656 H 0.89642 0.80405 0.09787 0.0
H657 H 0.83485 0.76956 0.07515 0.0
H658 H 0.93992 0.75048 1.00282 0.0
H659 H 1.0016 0.78507 0.0254 0.0
C660 C 0.79455 0.71646 0.97871 0.0
C661 C 0.77418 0.69565 0.99794 0.0
C662 C 0.82979 0.73647 0.99141 0.0
C663 C 0.84517 0.73612 0.0236 0.0
C664 C 0.82488 0.71521 0.04277 0.0
C665 C 0.79011 0.69505 0.03005 0.0
C666 C 0.90646 0.79254 0.07711 0.0
C667 C 0.95399 0.79737 0.06346 0.0
C668 C 0.87128 0.77266 0.06419 0.0
C669 C 0.88252 0.75733 0.03719 0.0
C670 C 0.92988 0.76222 0.02346 0.0
C671 C 0.96537 0.7819 0.03652 0.0
loop_
_geom_bond_atom_site_label_1
_geom_bond_atom_site_label_2
_geom_bond_distance
_geom_bond_site_symmetry_2
_ccdc_geom_bond_type
Co0 O3 1.970 . S
Co0 N17 1.989 . S
Co0 O25 1.967 . S
Co0 O32 1.920 . S
Co1 O4 1.966 . S
Co1 N10 2.022 1_455 S
Co1 N18 1.993 1_455 S
Co1 O26 1.941 . S
C2 O3 1.258 . S
C2 O4 1.263 . S
O3 Co0 1.970 . S
O3 C2 1.258 . S
O4 Co1 1.966 . S
O4 C2 1.263 . S
C5 O6 1.235 . S
C5 O32 1.289 . S
O6 C5 1.235 . S
C7 C9 1.400 . S
C7 N10 1.351 . S
C7 C12 1.501 . S
C8 C9 1.387 . S
C8 N11 1.341 . S
C9 C7 1.400 . S
C9 C8 1.387 . S
N10 Co1 2.022 1_655 S
N10 C7 1.351 . S
N10 N11 1.365 . S
N11 C8 1.341 . S
N11 N10 1.365 . S
N11 H31 0.862 . S
C12 C7 1.501 . S
C12 H13 0.961 1_655 S
C12 H14 0.961 . S
C12 H15 0.960 . S
H13 C12 0.961 1_455 S
H14 C12 0.961 . S
H15 C12 0.960 . S
C16 N17 1.342 1_655 S
C16 C20 1.401 . S
C16 C21 1.499 1_655 S
N17 Co0 1.989 . S
N17 C16 1.342 1_455 S
N17 N18 1.388 1_455 S
N18 Co1 1.993 1_655 S
N18 N17 1.388 1_655 S
N18 C19 1.346 . S
C19 N18 1.346 . S
C19 C20 1.396 . S
C19 C29 1.510 . S
C20 C16 1.401 . S
C20 C19 1.396 . S
C21 C16 1.499 1_455 S
C21 H22 0.959 . S
C21 H23 0.960 . S
C21 H24 0.961 . S
H22 C21 0.959 . S
H23 C21 0.960 . S
H24 C21 0.961 . S
O25 Co0 1.967 . S
O25 C33 1.258 . S
O26 Co1 1.941 . S
O26 C33 1.266 . S
H27 C29 0.959 . S
H28 C29 0.961 . S
C29 C19 1.510 . S
C29 H27 0.959 . S
C29 H28 0.961 . S
C29 H30 0.960 . S
H30 C29 0.960 . S
H31 N11 0.862 . S
O32 Co0 1.920 . S
O32 C5 1.289 . S
C33 O25 1.258 . S
C33 O26 1.266 . S
Co34 O37 1.970 . S
Co34 N51 1.989 . S
Co34 O59 1.967 . S
Co34 O66 1.920 . S
Co35 O38 1.966 . S
Co35 N44 2.022 . S
Co35 N52 1.993 . S
Co35 O60 1.941 . S
C36 O37 1.258 . S
C36 O38 1.263 . S
O37 Co34 1.970 . S
O37 C36 1.258 . S
O38 Co35 1.966 . S
O38 C36 1.263 . S
C39 O40 1.235 . S
C39 O66 1.289 . S
O40 C39 1.235 . S
C41 C43 1.400 . S
C41 N44 1.351 . S
C41 C46 1.501 . S
C42 C43 1.387 . S
C42 N45 1.341 . S
C43 C41 1.400 . S
C43 C42 1.387 . S
N44 Co35 2.022 . S
N44 C41 1.351 . S
N44 N45 1.365 . S
N45 C42 1.341 . S
N45 N44 1.365 . S
N45 H65 0.862 . S
C46 C41 1.501 . S
C46 H47 0.961 . S
C46 H48 0.961 . S
C46 H49 0.960 . S
H47 C46 0.961 . S
H48 C46 0.961 . S
H49 C46 0.960 . S
C50 N51 1.342 . S
C50 C54 1.401 . S
C50 C55 1.499 . S
N51 Co34 1.989 . S
N51 C50 1.342 . S
N51 N52 1.388 . S
N52 Co35 1.993 . S
N52 N51 1.388 . S
N52 C53 1.346 . S
C53 N52 1.346 . S
C53 C54 1.396 . S
C53 C63 1.510 . S
C54 C50 1.401 . S
C54 C53 1.396 . S
C55 C50 1.499 . S
C55 H56 0.959 . S
C55 H57 0.960 . S
C55 H58 0.961 . S
H56 C55 0.959 . S
H57 C55 0.960 . S
H58 C55 0.961 . S
O59 Co34 1.967 . S
O59 C67 1.258 . S
O60 Co35 1.941 . S
O60 C67 1.266 . S
H61 C63 0.959 . S
H62 C63 0.961 . S
C63 C53 1.510 . S
C63 H61 0.959 . S
C63 H62 0.961 . S
C63 H64 0.960 . S
H64 C63 0.960 . S
H65 N45 0.862 . S
O66 Co34 1.920 . S
O66 C39 1.289 . S
C67 O59 1.258 . S
C67 O60 1.266 . S
Co68 O71 1.970 1_455 S
Co68 N85 1.989 . S
Co68 O93 1.967 . S
Co68 O100 1.920 . S
Co69 O72 1.966 . S
Co69 N78 2.022 . S
Co69 N86 1.993 1_655 S
Co69 O94 1.941 . S
C70 O71 1.258 . S
C70 O72 1.263 . S
O71 Co68 1.970 1_655 S
O71 C70 1.258 . S
O72 Co69 1.966 . S
O72 C70 1.263 . S
C73 O74 1.235 . S
C73 O100 1.289 . S
O74 C73 1.235 . S
C75 C77 1.400 . S
C75 N78 1.351 . S
C75 C80 1.501 . S
C76 C77 1.387 . S
C76 N79 1.341 . S
C77 C75 1.400 . S
C77 C76 1.387 . S
N78 Co69 2.022 . S
N78 C75 1.351 . S
N78 N79 1.365 . S
N79 C76 1.341 . S
N79 N78 1.365 . S
N79 H99 0.862 . S
C80 C75 1.501 . S
C80 H81 0.961 . S
C80 H82 0.961 . S
C80 H83 0.960 . S
H81 C80 0.961 . S
H82 C80 0.961 . S
H83 C80 0.960 . S
C84 N85 1.342 . S
C84 C88 1.401 . S
C84 C89 1.499 . S
N85 Co68 1.989 . S
N85 C84 1.342 . S
N85 N86 1.388 . S
N86 Co69 1.993 1_455 S
N86 N85 1.388 . S
N86 C87 1.346 . S
C87 N86 1.346 . S
C87 C88 1.396 . S
C87 C97 1.510 . S
C88 C84 1.401 . S
C88 C87 1.396 . S
C89 C84 1.499 . S
C89 H90 0.959 . S
C89 H91 0.960 . S
C89 H92 0.961 . S
H90 C89 0.959 . S
H91 C89 0.960 . S
H92 C89 0.961 . S
O93 Co68 1.967 . S
O93 C101 1.258 . S
O94 Co69 1.941 . S
O94 C101 1.266 1_655 S
H95 C97 0.959 . S
H96 C97 0.961 . S
C97 C87 1.510 . S
C97 H95 0.959 . S
C97 H96 0.961 . S
C97 H98 0.960 . S
H98 C97 0.960 . S
H99 N79 0.862 . S
O100 Co68 1.920 . S
O100 C73 1.289 . S
C101 O93 1.258 . S
C101 O94 1.266 1_455 S
Co102 O105 1.970 . S
Co102 N119 1.989 . S
Co102 O127 1.967 . S
Co102 O134 1.920 . S
Co103 O106 1.966 . S
Co103 N112 2.022 . S
Co103 N120 1.993 . S
Co103 O128 1.941 . S
C104 O105 1.258 . S
C104 O106 1.263 . S
O105 Co102 1.970 . S
O105 C104 1.258 . S
O106 Co103 1.966 . S
O106 C104 1.263 . S
C107 O108 1.235 . S
C107 O134 1.289 . S
O108 C107 1.235 . S
C109 C111 1.400 . S
C109 N112 1.351 . S
C109 C114 1.501 . S
C110 C111 1.387 . S
C110 N113 1.341 . S
C111 C109 1.400 . S
C111 C110 1.387 . S
N112 Co103 2.022 . S
N112 C109 1.351 . S
N112 N113 1.365 . S
N113 C110 1.341 . S
N113 N112 1.365 . S
N113 H133 0.862 . S
C114 C109 1.501 . S
C114 H115 0.961 . S
C114 H116 0.961 . S
C114 H117 0.960 . S
H115 C114 0.961 . S
H116 C114 0.961 . S
H117 C114 0.960 . S
C118 N119 1.342 . S
C118 C122 1.401 . S
C118 C123 1.499 . S
N119 Co102 1.989 . S
N119 C118 1.342 . S
N119 N120 1.388 . S
N120 Co103 1.993 . S
N120 N119 1.388 . S
N120 C121 1.346 . S
C121 N120 1.346 . S
C121 C122 1.396 . S
C121 C131 1.510 . S
C122 C118 1.401 . S
C122 C121 1.396 . S
C123 C118 1.499 . S
C123 H124 0.959 . S
C123 H125 0.960 . S
C123 H126 0.961 . S
H124 C123 0.959 . S
H125 C123 0.960 . S
H126 C123 0.961 . S
O127 Co102 1.967 . S
O127 C135 1.258 . S
O128 Co103 1.941 . S
O128 C135 1.266 . S
H129 C131 0.959 . S
H130 C131 0.961 . S
C131 C121 1.510 . S
C131 H129 0.959 . S
C131 H130 0.961 . S
C131 H132 0.960 . S
H132 C131 0.960 . S
H133 N113 0.862 . S
O134 Co102 1.920 . S
O134 C107 1.289 . S
C135 O127 1.258 . S
C135 O128 1.266 . S
Co136 O139 1.970 . S
Co136 N153 1.989 . S
Co136 O161 1.967 . S
Co136 O168 1.920 . S
Co137 O140 1.966 . S
Co137 N146 2.022 . S
Co137 N154 1.993 . S
Co137 O162 1.941 . S
C138 O139 1.258 . S
C138 O140 1.263 . S
O139 Co136 1.970 . S
O139 C138 1.258 . S
O140 Co137 1.966 . S
O140 C138 1.263 . S
C141 O142 1.235 . S
C141 O168 1.289 . S
O142 C141 1.235 . S
C143 C145 1.400 . S
C143 N146 1.351 . S
C143 C148 1.501 . S
C144 C145 1.387 . S
C144 N147 1.341 . S
C145 C143 1.400 . S
C145 C144 1.387 . S
N146 Co137 2.022 . S
N146 C143 1.351 . S
N146 N147 1.365 . S
N147 C144 1.341 . S
N147 N146 1.365 . S
N147 H167 0.862 . S
C148 C143 1.501 . S
C148 H149 0.961 . S
C148 H150 0.961 . S
C148 H151 0.960 . S
H149 C148 0.961 . S
H150 C148 0.961 . S
H151 C148 0.960 . S
C152 N153 1.342 . S
C152 C156 1.401 . S
C152 C157 1.499 . S
N153 Co136 1.989 . S
N153 C152 1.342 . S
N153 N154 1.388 . S
N154 Co137 1.993 . S
N154 N153 1.388 . S
N154 C155 1.346 . S
C155 N154 1.346 . S
C155 C156 1.396 . S
C155 C165 1.510 . S
C156 C152 1.401 . S
C156 C155 1.396 . S
C157 C152 1.499 . S
C157 H158 0.959 . S
C157 H159 0.960 . S
C157 H160 0.961 . S
H158 C157 0.959 . S
H159 C157 0.960 . S
H160 C157 0.961 . S
O161 Co136 1.967 . S
O161 C169 1.258 . S
O162 Co137 1.941 . S
O162 C169 1.266 . S
H163 C165 0.959 . S
H164 C165 0.961 . S
C165 C155 1.510 . S
C165 H163 0.959 . S
C165 H164 0.961 . S
C165 H166 0.960 . S
H166 C165 0.960 . S
H167 N147 0.862 . S
O168 Co136 1.920 . S
O168 C141 1.289 . S
C169 O161 1.258 . S
C169 O162 1.266 . S
Co170 O173 1.970 . S
Co170 N187 1.989 1_655 S
Co170 O195 1.967 1_655 S
Co170 O202 1.920 . S
Co171 O174 1.966 . S
Co171 N180 2.022 . S
Co171 N188 1.993 . S
Co171 O196 1.941 . S
C172 O173 1.258 . S
C172 O174 1.263 1_655 S
O173 Co170 1.970 . S
O173 C172 1.258 . S
O174 Co171 1.966 . S
O174 C172 1.263 1_455 S
C175 O176 1.235 . S
C175 O202 1.289 . S
O176 C175 1.235 . S
C177 C179 1.400 . S
C177 N180 1.351 . S
C177 C182 1.501 . S
C178 C179 1.387 . S
C178 N181 1.341 . S
C179 C177 1.400 . S
C179 C178 1.387 . S
N180 Co171 2.022 . S
N180 C177 1.351 . S
N180 N181 1.365 . S
N181 C178 1.341 . S
N181 N180 1.365 . S
N181 H201 0.862 . S
C182 C177 1.501 . S
C182 H183 0.961 . S
C182 H184 0.961 . S
C182 H185 0.960 . S
H183 C182 0.961 . S
H184 C182 0.961 . S
H185 C182 0.960 . S
C186 N187 1.342 . S
C186 C190 1.401 . S
C186 C191 1.499 . S
N187 Co170 1.989 1_455 S
N187 C186 1.342 . S
N187 N188 1.388 . S
N188 Co171 1.993 . S
N188 N187 1.388 . S
N188 C189 1.346 . S
C189 N188 1.346 . S
C189 C190 1.396 . S
C189 C199 1.510 . S
C190 C186 1.401 . S
C190 C189 1.396 . S
C191 C186 1.499 . S
C191 H192 0.959 . S
C191 H193 0.960 . S
C191 H194 0.961 . S
H192 C191 0.959 . S
H193 C191 0.960 . S
H194 C191 0.961 . S
O195 Co170 1.967 1_455 S
O195 C203 1.258 . S
O196 Co171 1.941 . S
O196 C203 1.266 . S
H197 C199 0.959 . S
H198 C199 0.961 . S
C199 C189 1.510 . S
C199 H197 0.959 . S
C199 H198 0.961 . S
C199 H200 0.960 . S
H200 C199 0.960 . S
H201 N181 0.862 . S
O202 Co170 1.920 . S
O202 C175 1.289 . S
C203 O195 1.258 . S
C203 O196 1.266 . S
Co204 O207 1.970 . S
Co204 N221 1.989 . S
Co204 O229 1.967 . S
Co204 O236 1.920 . S
Co205 O208 1.966 . S
Co205 N214 2.022 . S
Co205 N222 1.993 . S
Co205 O230 1.941 . S
C206 O207 1.258 . S
C206 O208 1.263 . S
O207 Co204 1.970 . S
O207 C206 1.258 . S
O208 Co205 1.966 . S
O208 C206 1.263 . S
C209 O210 1.235 . S
C209 O236 1.289 . S
O210 C209 1.235 . S
C211 C213 1.400 . S
C211 N214 1.351 . S
C211 C216 1.501 . S
C212 C213 1.387 . S
C212 N215 1.341 . S
C213 C211 1.400 . S
C213 C212 1.387 . S
N214 Co205 2.022 . S
N214 C211 1.351 . S
N214 N215 1.365 . S
N215 C212 1.341 . S
N215 N214 1.365 . S
N215 H235 0.862 . S
C216 C211 1.501 . S
C216 H217 0.961 . S
C216 H218 0.961 . S
C216 H219 0.960 . S
H217 C216 0.961 . S
H218 C216 0.961 . S
H219 C216 0.960 . S
C220 N221 1.342 . S
C220 C224 1.401 . S
C220 C225 1.499 . S
N221 Co204 1.989 . S
N221 C220 1.342 . S
N221 N222 1.388 . S
N222 Co205 1.993 . S
N222 N221 1.388 . S
N222 C223 1.346 . S
C223 N222 1.346 . S
C223 C224 1.396 . S
C223 C233 1.510 . S
C224 C220 1.401 . S
C224 C223 1.396 . S
C225 C220 1.499 . S
C225 H226 0.959 . S
C225 H227 0.960 . S
C225 H228 0.961 . S
H226 C225 0.959 . S
H227 C225 0.960 . S
H228 C225 0.961 . S
O229 Co204 1.967 . S
O229 C237 1.258 . S
O230 Co205 1.941 . S
O230 C237 1.266 . S
H231 C233 0.959 . S
H232 C233 0.961 . S
C233 C223 1.510 . S
C233 H231 0.959 . S
C233 H232 0.961 . S
C233 H234 0.960 . S
H234 C233 0.960 . S
H235 N215 0.862 . S
O236 Co204 1.920 . S
O236 C209 1.289 . S
C237 O229 1.258 . S
C237 O230 1.266 . S
Co238 O241 1.974 . S
Co238 N255 1.982 1_655 S
Co238 O263 1.966 1_655 S
Co238 O270 1.926 . S
Co239 O242 1.966 . S
Co239 N248 2.022 . S
Co239 N256 1.993 . S
Co239 O264 1.941 . S
C240 O241 1.258 . S
C240 O242 1.263 1_655 S
O241 Co238 1.974 . S
O241 C240 1.258 . S
O242 Co239 1.966 . S
O242 C240 1.263 1_455 S
C243 O244 1.235 . S
C243 O270 1.289 . S
O244 C243 1.235 . S
C245 C247 1.400 . S
C245 N248 1.351 . S
C245 C250 1.501 . S
C246 C247 1.387 . S
C246 N249 1.341 . S
C247 C245 1.400 . S
C247 C246 1.387 . S
N248 Co239 2.022 . S
N248 C245 1.351 . S
N248 N249 1.365 . S
N249 C246 1.341 . S
N249 N248 1.365 . S
N249 H269 0.862 . S
C250 C245 1.501 . S
C250 H251 0.961 . S
C250 H252 0.961 . S
C250 H253 0.960 . S
H251 C250 0.961 . S
H252 C250 0.961 . S
H253 C250 0.960 . S
C254 N255 1.342 . S
C254 C258 1.401 . S
C254 C259 1.499 . S
N255 Co238 1.982 1_455 S
N255 C254 1.342 . S
N255 N256 1.388 . S
N256 Co239 1.993 . S
N256 N255 1.388 . S
N256 C257 1.346 . S
C257 N256 1.346 . S
C257 C258 1.396 . S
C257 C267 1.510 . S
C258 C254 1.401 . S
C258 C257 1.396 . S
C259 C254 1.499 . S
C259 H260 0.959 . S
C259 H261 0.960 . S
C259 H262 0.961 . S
H260 C259 0.959 . S
H261 C259 0.960 . S
H262 C259 0.961 . S
O263 Co238 1.966 1_455 S
O263 C271 1.257 . S
O264 Co239 1.941 . S
O264 C271 1.266 . S
H265 C267 0.959 . S
H266 C267 0.961 . S
C267 C257 1.510 . S
C267 H265 0.959 . S
C267 H266 0.961 . S
C267 H268 0.960 . S
H268 C267 0.960 . S
H269 N249 0.862 . S
O270 Co238 1.926 . S
O270 C243 1.289 . S
C271 O263 1.257 . S
C271 O264 1.266 . S
H272 C280 0.950 . S
H273 C285 0.950 . S
H274 C282 0.950 . S
H275 C284 0.950 . S
H276 C286 0.950 . S
H277 C288 0.950 . S
H278 C290 0.950 . S
H279 C291 0.950 . S
C280 H272 0.950 . S
C280 C281 1.386 . S
C280 C282 1.391 . S
C281 C280 1.386 . S
C281 C285 1.393 . S
C282 H274 0.950 . S
C282 C280 1.391 . S
C282 C283 1.400 . S
C283 C282 1.400 . S
C283 C284 1.398 . S
C283 C289 1.491 . S
C284 H275 0.950 . S
C284 C283 1.398 . S
C284 C285 1.391 . S
C285 H273 0.950 . S
C285 C281 1.393 . S
C285 C284 1.391 . S
C286 H276 0.950 . S
C286 C287 1.386 . S
C286 C288 1.391 . S
C287 C286 1.386 . S
C287 C291 1.393 . S
C288 H277 0.950 . S
C288 C286 1.391 . S
C288 C289 1.400 . S
C289 C283 1.491 . S
C289 C288 1.400 . S
C289 C290 1.398 . S
C290 H278 0.950 . S
C290 C289 1.398 . S
C290 C291 1.391 . S
C291 H279 0.950 . S
C291 C287 1.393 . S
C291 C290 1.391 . S
H292 C300 0.950 . S
H293 C305 0.950 . S
H294 C302 0.950 . S
H295 C304 0.950 . S
H296 C306 0.950 . S
H297 C308 0.950 . S
H298 C310 0.950 . S
H299 C311 0.950 . S
C300 H292 0.950 . S
C300 C301 1.386 . S
C300 C302 1.391 . S
C301 C300 1.386 . S
C301 C305 1.393 . S
C302 H294 0.950 . S
C302 C300 1.391 . S
C302 C303 1.400 . S
C303 C302 1.400 . S
C303 C304 1.398 . S
C303 C309 1.491 . S
C304 H295 0.950 . S
C304 C303 1.398 . S
C304 C305 1.391 . S
C305 H293 0.950 . S
C305 C301 1.393 . S
C305 C304 1.391 . S
C306 H296 0.950 . S
C306 C307 1.386 . S
C306 C308 1.391 . S
C307 C306 1.386 . S
C307 C311 1.393 . S
C308 H297 0.950 . S
C308 C306 1.391 . S
C308 C309 1.400 . S
C309 C303 1.491 . S
C309 C308 1.400 . S
C309 C310 1.398 . S
C310 H298 0.950 . S
C310 C309 1.398 . S
C310 C311 1.391 . S
C311 H299 0.950 . S
C311 C307 1.393 . S
C311 C310 1.391 . S
H312 C320 0.950 . S
H313 C325 0.950 . S
H314 C322 0.950 . S
H315 C324 0.950 . S
H316 C326 0.950 . S
H317 C328 0.950 . S
H318 C330 0.950 . S
H319 C331 0.950 . S
C320 H312 0.950 . S
C320 C321 1.386 . S
C320 C322 1.391 . S
C321 C320 1.386 . S
C321 C325 1.393 . S
C322 H314 0.950 . S
C322 C320 1.391 . S
C322 C323 1.400 . S
C323 C322 1.400 . S
C323 C324 1.398 . S
C323 C329 1.491 . S
C324 H315 0.950 . S
C324 C323 1.398 . S
C324 C325 1.391 . S
C325 H313 0.950 . S
C325 C321 1.393 . S
C325 C324 1.391 . S
C326 H316 0.950 . S
C326 C327 1.386 . S
C326 C328 1.391 . S
C327 C326 1.386 . S
C327 C331 1.393 . S
C328 H317 0.950 . S
C328 C326 1.391 . S
C328 C329 1.400 . S
C329 C323 1.491 . S
C329 C328 1.400 . S
C329 C330 1.398 . S
C330 H318 0.950 . S
C330 C329 1.398 . S
C330 C331 1.391 . S
C331 H319 0.950 . S
C331 C327 1.393 . S
C331 C330 1.391 . S
H332 C340 0.950 . S
H333 C345 0.950 . S
H334 C342 0.950 . S
H335 C344 0.950 . S
H336 C346 0.950 . S
H337 C348 0.950 . S
H338 C350 0.950 . S
H339 C351 0.950 . S
C340 H332 0.950 . S
C340 C341 1.386 . S
C340 C342 1.391 . S
C341 C340 1.386 . S
C341 C345 1.393 . S
C342 H334 0.950 . S
C342 C340 1.391 . S
C342 C343 1.400 . S
C343 C342 1.400 . S
C343 C344 1.398 . S
C343 C349 1.491 . S
C344 H335 0.950 . S
C344 C343 1.398 . S
C344 C345 1.391 . S
C345 H333 0.950 . S
C345 C341 1.393 . S
C345 C344 1.391 . S
C346 H336 0.950 . S
C346 C347 1.386 . S
C346 C348 1.391 . S
C347 C346 1.386 . S
C347 C351 1.393 . S
C348 H337 0.950 . S
C348 C346 1.391 . S
C348 C349 1.400 . S
C349 C343 1.491 . S
C349 C348 1.400 . S
C349 C350 1.398 . S
C350 H338 0.950 . S
C350 C349 1.398 . S
C350 C351 1.391 . S
C351 H339 0.950 . S
C351 C347 1.393 . S
C351 C350 1.391 . S
H352 C360 0.950 . S
H353 C365 0.950 . S
H354 C362 0.950 . S
H355 C364 0.950 . S
H356 C366 0.950 . S
H357 C368 0.950 . S
H358 C370 0.950 . S
H359 C371 0.950 . S
C360 H352 0.950 . S
C360 C361 1.386 . S
C360 C362 1.391 . S
C361 C360 1.386 . S
C361 C365 1.393 . S
C362 H354 0.950 . S
C362 C360 1.391 . S
C362 C363 1.400 . S
C363 C362 1.400 . S
C363 C364 1.398 . S
C363 C369 1.491 . S
C364 H355 0.950 . S
C364 C363 1.398 . S
C364 C365 1.391 . S
C365 H353 0.950 . S
C365 C361 1.393 . S
C365 C364 1.391 . S
C366 H356 0.950 . S
C366 C367 1.386 . S
C366 C368 1.391 . S
C367 C366 1.386 . S
C367 C371 1.393 . S
C368 H357 0.950 . S
C368 C366 1.391 . S
C368 C369 1.400 . S
C369 C363 1.491 . S
C369 C368 1.400 . S
C369 C370 1.398 . S
C370 H358 0.950 . S
C370 C369 1.398 . S
C370 C371 1.391 . S
C371 H359 0.950 . S
C371 C367 1.393 . S
C371 C370 1.391 . S
H372 C380 0.950 . S
H373 C385 0.950 . S
H374 C382 0.950 . S
H375 C384 0.950 . S
H376 C386 0.950 . S
H377 C388 0.950 . S
H378 C390 0.950 . S
H379 C391 0.950 . S
C380 H372 0.950 . S
C380 C381 1.386 . S
C380 C382 1.391 . S
C381 C380 1.386 . S
C381 C385 1.393 . S
C382 H374 0.950 . S
C382 C380 1.391 . S
C382 C383 1.400 . S
C383 C382 1.400 . S
C383 C384 1.398 . S
C383 C389 1.491 . S
C384 H375 0.950 . S
C384 C383 1.398 . S
C384 C385 1.391 . S
C385 H373 0.950 . S
C385 C381 1.393 . S
C385 C384 1.391 . S
C386 H376 0.950 . S
C386 C387 1.386 . S
C386 C388 1.391 . S
C387 C386 1.386 . S
C387 C391 1.393 . S
C388 H377 0.950 . S
C388 C386 1.391 . S
C388 C389 1.400 . S
C389 C383 1.491 . S
C389 C388 1.400 . S
C389 C390 1.398 . S
C390 H378 0.950 . S
C390 C389 1.398 . S
C390 C391 1.391 . S
C391 H379 0.950 . S
C391 C387 1.393 . S
C391 C390 1.391 . S
H392 C400 0.950 . S
H393 C405 0.950 . S
H394 C402 0.950 . S
H395 C404 0.950 . S
H396 C406 0.950 . S
H397 C408 0.950 . S
H398 C410 0.950 . S
H399 C411 0.950 . S
C400 H392 0.950 . S
C400 C401 1.386 . S
C400 C402 1.391 . S
C401 C400 1.386 . S
C401 C405 1.393 . S
C402 H394 0.950 . S
C402 C400 1.391 . S
C402 C403 1.400 . S
C403 C402 1.400 . S
C403 C404 1.398 . S
C403 C409 1.491 . S
C404 H395 0.950 . S
C404 C403 1.398 . S
C404 C405 1.391 . S
C405 H393 0.950 . S
C405 C401 1.393 . S
C405 C404 1.391 . S
C406 H396 0.950 . S
C406 C407 1.386 . S
C406 C408 1.391 . S
C407 C406 1.386 . S
C407 C411 1.393 . S
C408 H397 0.950 . S
C408 C406 1.391 . S
C408 C409 1.400 . S
C409 C403 1.491 . S
C409 C408 1.400 . S
C409 C410 1.398 . S
C410 H398 0.950 . S
C410 C409 1.398 . S
C410 C411 1.391 . S
C411 H399 0.950 . S
C411 C407 1.393 . S
C411 C410 1.391 . S
H412 C420 0.950 . S
H413 C425 0.950 . S
H414 C422 0.950 . S
H415 C424 0.950 . S
H416 C426 0.950 . S
H417 C428 0.950 . S
H418 C430 0.950 . S
H419 C431 0.950 . S
C420 H412 0.950 . S
C420 C421 1.386 . S
C420 C422 1.391 . S
C421 C420 1.386 . S
C421 C425 1.393 . S
C422 H414 0.950 . S
C422 C420 1.391 . S
C422 C423 1.400 . S
C423 C422 1.400 . S
C423 C424 1.398 . S
C423 C429 1.491 . S
C424 H415 0.950 . S
C424 C423 1.398 . S
C424 C425 1.391 . S
C425 H413 0.950 . S
C425 C421 1.393 . S
C425 C424 1.391 . S
C426 H416 0.950 . S
C426 C427 1.386 . S
C426 C428 1.391 . S
C427 C426 1.386 . S
C427 C431 1.393 . S
C428 H417 0.950 . S
C428 C426 1.391 . S
C428 C429 1.400 . S
C429 C423 1.491 . S
C429 C428 1.400 . S
C429 C430 1.398 . S
C430 H418 0.950 . S
C430 C429 1.398 . S
C430 C431 1.391 . S
C431 H419 0.950 . S
C431 C427 1.393 . S
C431 C430 1.391 . S
H432 C440 0.950 . S
H433 C445 0.950 . S
H434 C442 0.950 . S
H435 C444 0.950 . S
H436 C446 0.950 . S
H437 C448 0.950 . S
H438 C450 0.950 1_655 S
H439 C451 0.950 1_655 S
C440 H432 0.950 . S
C440 C441 1.386 1_655 S
C440 C442 1.391 . S
C441 C440 1.386 1_455 S
C441 C445 1.393 . S
C442 H434 0.950 . S
C442 C440 1.391 . S
C442 C443 1.400 1_655 S
C443 C442 1.400 1_455 S
C443 C444 1.398 . S
C443 C449 1.491 . S
C444 H435 0.950 . S
C444 C443 1.398 . S
C444 C445 1.391 . S
C445 H433 0.950 . S
C445 C441 1.393 . S
C445 C444 1.391 . S
C446 H436 0.950 . S
C446 C447 1.386 . S
C446 C448 1.391 . S
C447 C446 1.386 . S
C447 C451 1.393 . S
C448 H437 0.950 . S
C448 C446 1.391 . S
C448 C449 1.400 . S
C449 C443 1.491 . S
C449 C448 1.400 . S
C449 C450 1.398 . S
C450 H438 0.950 1_455 S
C450 C449 1.398 . S
C450 C451 1.391 . S
C451 H439 0.950 1_455 S
C451 C447 1.393 . S
C451 C450 1.391 . S
H452 C460 0.950 . S
H453 C465 0.950 . S
H454 C462 0.950 1_554 S
H455 C464 0.950 . S
H456 C466 0.950 . S
H457 C468 0.950 . S
H458 C470 0.950 . S
H459 C471 0.950 . S
C460 H452 0.950 . S
C460 C461 1.386 . S
C460 C462 1.391 . S
C461 C460 1.386 . S
C461 C465 1.393 . S
C462 H454 0.950 1_556 S
C462 C460 1.391 . S
C462 C463 1.400 . S
C463 C462 1.400 . S
C463 C464 1.398 . S
C463 C469 1.491 1_556 S
C464 H455 0.950 . S
C464 C463 1.398 . S
C464 C465 1.391 . S
C465 H453 0.950 . S
C465 C461 1.393 . S
C465 C464 1.391 . S
C466 H456 0.950 . S
C466 C467 1.386 . S
C466 C468 1.391 1_554 S
C467 C466 1.386 . S
C467 C471 1.393 . S
C468 H457 0.950 . S
C468 C466 1.391 1_556 S
C468 C469 1.400 1_556 S
C469 C463 1.491 1_554 S
C469 C468 1.400 1_554 S
C469 C470 1.398 . S
C470 H458 0.950 . S
C470 C469 1.398 . S
C470 C471 1.391 . S
C471 H459 0.950 . S
C471 C467 1.393 . S
C471 C470 1.391 . S
H472 C480 0.950 . S
H473 C485 0.950 . S
H474 C482 0.950 . S
H475 C484 0.967 . S
H476 C486 0.950 . S
H477 C488 0.950 . S
H478 C490 0.970 . S
H479 C491 0.950 . S
C480 H472 0.950 . S
C480 C481 1.386 . S
C480 C482 1.391 . S
C481 C480 1.386 . S
C481 C485 1.393 . S
C482 H474 0.950 . S
C482 C480 1.391 . S
C482 C483 1.400 . S
C483 C482 1.400 . S
C483 C484 1.398 . S
C483 C489 1.491 1_545 S
C484 H475 0.967 . S
C484 C483 1.398 . S
C484 C485 1.391 . S
C485 H473 0.950 . S
C485 C481 1.393 . S
C485 C484 1.391 . S
C486 H476 0.950 . S
C486 C487 1.386 . S
C486 C488 1.391 . S
C487 C486 1.386 . S
C487 C491 1.393 . S
C488 H477 0.950 . S
C488 C486 1.391 . S
C488 C489 1.400 . S
C489 C483 1.491 1_565 S
C489 C488 1.400 . S
C489 C490 1.398 . S
C490 H478 0.970 . S
C490 C489 1.398 . S
C490 C491 1.391 . S
C491 H479 0.950 . S
C491 C487 1.393 . S
C491 C490 1.391 . S
H492 C500 0.950 . S
H493 C505 0.950 . S
H494 C502 0.950 1_556 S
H495 C504 0.950 1_545 S
H496 C506 0.950 . S
H497 C508 0.950 . S
H498 C510 0.962 . S
H499 C511 0.950 . S
C500 H492 0.950 . S
C500 C501 1.386 . S
C500 C502 1.391 . S
C501 C500 1.386 . S
C501 C505 1.393 1_455 S
C502 H494 0.950 1_554 S
C502 C500 1.391 . S
C502 C503 1.400 . S
C503 C502 1.400 . S
C503 C504 1.398 1_455 S
C503 C509 1.491 1_564 S
C504 H495 0.950 1_565 S
C504 C503 1.398 1_655 S
C504 C505 1.391 . S
C505 H493 0.950 . S
C505 C501 1.393 1_655 S
C505 C504 1.391 . S
C506 H496 0.950 . S
C506 C507 1.386 1_655 S
C506 C508 1.391 . S
C507 C506 1.386 1_455 S
C507 C511 1.393 . S
C508 H497 0.950 . S
C508 C506 1.391 . S
C508 C509 1.400 1_655 S
C509 C503 1.491 1_546 S
C509 C508 1.400 1_455 S
C509 C510 1.398 . S
C510 H498 0.962 . S
C510 C509 1.398 . S
C510 C511 1.391 . S
C511 H499 0.950 . S
C511 C507 1.393 . S
C511 C510 1.391 . S
H512 C520 0.950 . S
H513 C525 0.950 . S
H514 C522 0.950 . S
H515 C524 0.950 . S
H516 C526 0.950 . S
H517 C528 0.950 . S
H518 C530 0.950 . S
H519 C531 0.950 . S
C520 H512 0.950 . S
C520 C521 1.386 . S
C520 C522 1.391 . S
C521 C520 1.386 . S
C521 C525 1.393 . S
C522 H514 0.950 . S
C522 C520 1.391 . S
C522 C523 1.400 . S
C523 C522 1.400 . S
C523 C524 1.398 . S
C523 C529 1.491 . S
C524 H515 0.950 . S
C524 C523 1.398 . S
C524 C525 1.391 . S
C525 H513 0.950 . S
C525 C521 1.393 . S
C525 C524 1.391 . S
C526 H516 0.950 . S
C526 C527 1.386 . S
C526 C528 1.391 . S
C527 C526 1.386 . S
C527 C531 1.393 . S
C528 H517 0.950 . S
C528 C526 1.391 . S
C528 C529 1.400 . S
C529 C523 1.491 . S
C529 C528 1.400 . S
C529 C530 1.398 . S
C530 H518 0.950 . S
C530 C529 1.398 . S
C530 C531 1.391 . S
C531 H519 0.950 . S
C531 C527 1.393 . S
C531 C530 1.391 . S
H532 C540 0.950 . S
H533 C545 0.950 . S
H534 C542 0.950 . S
H535 C544 0.950 1_554 S
H536 C546 0.950 . S
H537 C548 0.950 . S
H538 C550 0.950 . S
H539 C551 0.950 . S
C540 H532 0.950 . S
C540 C541 1.386 . S
C540 C542 1.391 . S
C541 C540 1.386 . S
C541 C545 1.393 . S
C542 H534 0.950 . S
C542 C540 1.391 . S
C542 C543 1.400 . S
C543 C542 1.400 . S
C543 C544 1.398 . S
C543 C549 1.491 . S
C544 H535 0.950 1_556 S
C544 C543 1.398 . S
C544 C545 1.391 . S
C545 H533 0.950 . S
C545 C541 1.393 . S
C545 C544 1.391 . S
C546 H536 0.950 . S
C546 C547 1.386 . S
C546 C548 1.391 . S
C547 C546 1.386 . S
C547 C551 1.393 1_554 S
C548 H537 0.950 . S
C548 C546 1.391 . S
C548 C549 1.400 1_554 S
C549 C543 1.491 . S
C549 C548 1.400 1_556 S
C549 C550 1.398 . S
C550 H538 0.950 . S
C550 C549 1.398 . S
C550 C551 1.391 . S
C551 H539 0.950 . S
C551 C547 1.393 1_556 S
C551 C550 1.391 . S
H552 C560 0.950 . S
H553 C565 0.950 . S
H554 C562 0.950 . S
H555 C564 0.950 . S
H556 C566 0.950 . S
H557 C568 0.950 . S
H558 C570 0.950 . S
H559 C571 0.950 . S
C560 H552 0.950 . S
C560 C561 1.386 . S
C560 C562 1.391 . S
C561 C560 1.386 . S
C561 C565 1.393 . S
C562 H554 0.950 . S
C562 C560 1.391 . S
C562 C563 1.400 . S
C563 C562 1.400 . S
C563 C564 1.398 . S
C563 C569 1.491 . S
C564 H555 0.950 . S
C564 C563 1.398 . S
C564 C565 1.391 . S
C565 H553 0.950 . S
C565 C561 1.393 . S
C565 C564 1.391 . S
C566 H556 0.950 . S
C566 C567 1.386 . S
C566 C568 1.391 . S
C567 C566 1.386 . S
C567 C571 1.393 . S
C568 H557 0.950 . S
C568 C566 1.391 . S
C568 C569 1.400 . S
C569 C563 1.491 . S
C569 C568 1.400 . S
C569 C570 1.398 . S
C570 H558 0.950 . S
C570 C569 1.398 . S
C570 C571 1.391 . S
C571 H559 0.950 . S
C571 C567 1.393 . S
C571 C570 1.391 . S
H572 C580 0.967 . S
H573 C585 0.950 . S
H574 C582 0.950 . S
H575 C584 0.950 . S
H576 C586 0.950 . S
H577 C588 0.950 1_556 S
H578 C590 0.950 . S
H579 C591 0.950 . S
C580 H572 0.967 . S
C580 C581 1.356 1_554 S
C580 C582 1.405 . S
C581 C580 1.356 1_556 S
C581 C585 1.393 . S
C582 H574 0.950 . S
C582 C580 1.405 . S
C582 C583 1.400 . S
C583 C582 1.400 . S
C583 C584 1.398 1_554 S
C583 C589 1.491 . S
C584 H575 0.950 . S
C584 C583 1.398 1_556 S
C584 C585 1.391 . S
C585 H573 0.950 . S
C585 C581 1.393 . S
C585 C584 1.391 . S
C586 H576 0.950 . S
C586 C587 1.386 . S
C586 C588 1.391 . S
C587 C586 1.386 . S
C587 C591 1.393 . S
C588 H577 0.950 1_554 S
C588 C586 1.391 . S
C588 C589 1.400 . S
C589 C583 1.491 . S
C589 C588 1.400 . S
C589 C590 1.398 . S
C590 H578 0.950 . S
C590 C589 1.398 . S
C590 C591 1.391 . S
C591 H579 0.950 . S
C591 C587 1.393 . S
C591 C590 1.391 . S
H592 C600 0.950 . S
H593 C605 0.950 . S
H594 C602 0.950 . S
H595 C604 0.950 . S
H596 C606 0.950 . S
H597 C608 0.950 . S
H598 C610 0.950 . S
H599 C611 0.950 . S
C600 H592 0.950 . S
C600 C601 1.386 . S
C600 C602 1.391 . S
C601 C600 1.386 . S
C601 C605 1.393 . S
C602 H594 0.950 . S
C602 C600 1.391 . S
C602 C603 1.400 . S
C603 C602 1.400 . S
C603 C604 1.398 . S
C603 C609 1.491 . S
C604 H595 0.950 . S
C604 C603 1.398 . S
C604 C605 1.391 . S
C605 H593 0.950 . S
C605 C601 1.393 . S
C605 C604 1.391 . S
C606 H596 0.950 . S
C606 C607 1.386 . S
C606 C608 1.391 . S
C607 C606 1.386 . S
C607 C611 1.393 . S
C608 H597 0.950 . S
C608 C606 1.391 . S
C608 C609 1.400 . S
C609 C603 1.491 . S
C609 C608 1.400 . S
C609 C610 1.398 . S
C610 H598 0.950 . S
C610 C609 1.398 . S
C610 C611 1.391 . S
C611 H599 0.950 . S
C611 C607 1.393 . S
C611 C610 1.391 . S
H612 C620 0.950 . S
H613 C625 0.950 . S
H614 C622 0.950 . S
H615 C624 0.950 . S
H616 C626 0.950 . S
H617 C628 0.950 . S
H618 C630 0.950 . S
H619 C631 0.950 . S
C620 H612 0.950 . S
C620 C621 1.386 . S
C620 C622 1.391 1_554 S
C621 C620 1.386 . S
C621 C625 1.393 . S
C622 H614 0.950 . S
C622 C620 1.391 1_556 S
C622 C623 1.400 . S
C623 C622 1.400 . S
C623 C624 1.398 . S
C623 C629 1.491 . S
C624 H615 0.950 . S
C624 C623 1.398 . S
C624 C625 1.391 1_556 S
C625 H613 0.950 . S
C625 C621 1.393 . S
C625 C624 1.391 1_554 S
C626 H616 0.950 . S
C626 C627 1.386 . S
C626 C628 1.391 . S
C627 C626 1.386 . S
C627 C631 1.393 . S
C628 H617 0.950 . S
C628 C626 1.391 . S
C628 C629 1.400 . S
C629 C623 1.491 . S
C629 C628 1.400 . S
C629 C630 1.398 . S
C630 H618 0.950 . S
C630 C629 1.398 . S
C630 C631 1.391 . S
C631 H619 0.950 . S
C631 C627 1.393 . S
C631 C630 1.391 . S
H632 C640 0.950 . S
H633 C645 0.950 . S
H634 C642 0.950 . S
H635 C644 0.950 . S
H636 C646 0.950 . S
H637 C648 0.950 . S
H638 C650 0.950 . S
H639 C651 0.950 . S
C640 H632 0.950 . S
C640 C641 1.386 . S
C640 C642 1.391 . S
C641 C640 1.386 . S
C641 C645 1.393 . S
C642 H634 0.950 . S
C642 C640 1.391 . S
C642 C643 1.400 . S
C643 C642 1.400 . S
C643 C644 1.398 . S
C643 C649 1.491 . S
C644 H635 0.950 . S
C644 C643 1.398 . S
C644 C645 1.391 . S
C645 H633 0.950 . S
C645 C641 1.393 . S
C645 C644 1.391 . S
C646 H636 0.950 . S
C646 C647 1.386 . S
C646 C648 1.391 . S
C647 C646 1.386 . S
C647 C651 1.393 . S
C648 H637 0.950 . S
C648 C646 1.391 . S
C648 C649 1.400 . S
C649 C643 1.491 . S
C649 C648 1.400 . S
C649 C650 1.398 . S
C650 H638 0.950 . S
C650 C649 1.398 . S
C650 C651 1.391 . S
C651 H639 0.950 . S
C651 C647 1.393 . S
C651 C650 1.391 . S
H652 C660 0.950 . S
H653 C665 0.950 . S
H654 C662 0.950 . S
H655 C664 0.950 . S
H656 C666 0.950 . S
H657 C668 0.950 . S
H658 C670 0.950 . S
H659 C671 0.950 1_556 S
C660 H652 0.950 . S
C660 C661 1.386 . S
C660 C662 1.391 . S
C661 C660 1.386 . S
C661 C665 1.393 1_556 S
C662 H654 0.950 . S
C662 C660 1.391 . S
C662 C663 1.400 1_556 S
C663 C662 1.400 1_554 S
C663 C664 1.398 . S
C663 C669 1.491 . S
C664 H655 0.950 . S
C664 C663 1.398 . S
C664 C665 1.391 . S
C665 H653 0.950 . S
C665 C661 1.393 1_554 S
C665 C664 1.391 . S
C666 H656 0.950 . S
C666 C667 1.386 . S
C666 C668 1.391 . S
C667 C666 1.386 . S
C667 C671 1.393 . S
C668 H657 0.950 . S
C668 C666 1.391 . S
C668 C669 1.400 . S
C669 C663 1.491 . S
C669 C668 1.400 . S
C669 C670 1.398 1_554 S
C670 H658 0.950 . S
C670 C669 1.398 1_556 S
C670 C671 1.391 1_556 S
C671 H659 0.950 1_554 S
C671 C667 1.393 . S
C671 C670 1.391 1_554 S
C281 C5 1.701 . S
C287 C107 1.683 . S
C301 C39 1.469 . S
C307 C88 1.539 . S
C321 C77 1.508 . S
C327 C54 1.535 . S
C341 C122 1.337 . S
C347 C20 1.335 . S
C361 C141 1.703 . S
C367 C243 1.670 . S
C381 C224 1.538 . S
C387 C175 1.478 . S
C401 C190 1.531 . S
C407 C213 1.519 . S
C421 C258 1.339 . S
C427 C156 1.338 . S
C441 C101 1.667 . S
C447 C33 1.645 . S
C461 C67 1.484 . S
C467 C135 1.460 . S
C481 C237 1.667 . S
C487 C169 1.642 . S
C501 C271 1.463 . S
C507 C203 1.477 . S
C521 C2 1.968 . S
C527 C206 1.966 . S
C541 C36 1.196 . S
C547 C247 1.149 . S
C561 C73 1.324 . S
C567 C145 1.357 . S
C581 C179 1.585 . S
C587 C104 1.625 . S
C601 C70 1.968 . S
C607 C138 1.966 . S
C621 C111 1.171 . S
C627 C172 1.198 . S
C641 C9 1.347 . S
C647 C209 1.348 . S
C661 C43 1.603 . S
C667 C240 1.625 . S
