# Generated by pormake.
# Topology smc, (6)-cn, num edge types: 1
# Building blocks:
#     Node 0, Type 0, BuildingBlock: CUWYAW_clean_sbu_0, # of connection points: 6
#     Node 1, Type 0, BuildingBlock: CUWYAW_clean_sbu_0, # of connection points: 6
#     Node 2, Type 0, BuildingBlock: CUWYAW_clean_sbu_0, # of connection points: 6
#     Node 3, Type 0, BuildingBlock: CUWYAW_clean_sbu_0, # of connection points: 6
#     Node 4, Type 0, BuildingBlock: CUWYAW_clean_sbu_0, # of connection points: 6
#     Node 5, Type 0, BuildingBlock: CUWYAW_clean_sbu_0, # of connection points: 6
#     Node 6, Type 0, BuildingBlock: CUWYAW_clean_sbu_0, # of connection points: 6
#     Node 7, Type 0, BuildingBlock: CUWYAW_clean_sbu_0, # of connection points: 6
#     Node 8, Type 0, BuildingBlock: CUWYAW_clean_sbu_0, # of connection points: 6
#     Edge 9, Type (0, 0), BuildingBlock: KIFKEQ_clean_linker_1, # of connection points: 2
#     Edge 10, Type (0, 0), BuildingBlock: KIFKEQ_clean_linker_1, # of connection points: 2
#     Edge 11, Type (0, 0), BuildingBlock: KIFKEQ_clean_linker_1, # of connection points: 2
#     Edge 12, Type (0, 0), BuildingBlock: KIFKEQ_clean_linker_1, # of connection points: 2
#     Edge 13, Type (0, 0), BuildingBlock: KIFKEQ_clean_linker_1, # of connection points: 2
#     Edge 14, Type (0, 0), BuildingBlock: KIFKEQ_clean_linker_1, # of connection points: 2
#     Edge 15, Type (0, 0), BuildingBlock: KIFKEQ_clean_linker_1, # of connection points: 2
#     Edge 16, Type (0, 0), BuildingBlock: KIFKEQ_clean_linker_1, # of connection points: 2
#     Edge 17, Type (0, 0), BuildingBlock: KIFKEQ_clean_linker_1, # of connection points: 2
#     Edge 18, Type (0, 0), BuildingBlock: KIFKEQ_clean_linker_1, # of connection points: 2
#     Edge 19, Type (0, 0), BuildingBlock: KIFKEQ_clean_linker_1, # of connection points: 2
#     Edge 20, Type (0, 0), BuildingBlock: KIFKEQ_clean_linker_1, # of connection points: 2
#     Edge 21, Type (0, 0), BuildingBlock: KIFKEQ_clean_linker_1, # of connection points: 2
#     Edge 22, Type (0, 0), BuildingBlock: KIFKEQ_clean_linker_1, # of connection points: 2
#     Edge 23, Type (0, 0), BuildingBlock: KIFKEQ_clean_linker_1, # of connection points: 2
#     Edge 24, Type (0, 0), BuildingBlock: KIFKEQ_clean_linker_1, # of connection points: 2
#     Edge 25, Type (0, 0), BuildingBlock: KIFKEQ_clean_linker_1, # of connection points: 2
#     Edge 26, Type (0, 0), BuildingBlock: KIFKEQ_clean_linker_1, # of connection points: 2
#     Edge 27, Type (0, 0), BuildingBlock: KIFKEQ_clean_linker_1, # of connection points: 2
#     Edge 28, Type (0, 0), BuildingBlock: KIFKEQ_clean_linker_1, # of connection points: 2
#     Edge 29, Type (0, 0), BuildingBlock: KIFKEQ_clean_linker_1, # of connection points: 2
#     Edge 30, Type (0, 0), BuildingBlock: KIFKEQ_clean_linker_1, # of connection points: 2
#     Edge 31, Type (0, 0), BuildingBlock: KIFKEQ_clean_linker_1, # of connection points: 2
#     Edge 32, Type (0, 0), BuildingBlock: KIFKEQ_clean_linker_1, # of connection points: 2
#     Edge 33, Type (0, 0), BuildingBlock: KIFKEQ_clean_linker_1, # of connection points: 2
#     Edge 34, Type (0, 0), BuildingBlock: KIFKEQ_clean_linker_1, # of connection points: 2
#     Edge 35, Type (0, 0), BuildingBlock: KIFKEQ_clean_linker_1, # of connection points: 2
# Relax obj value: 0.193
# Max RMSD: 0.317
# Mean RMSD: 0.317
data_MOF--net-smc--node1-CUWYAW_clean_sbu_0--edge1-KIFKEQ_clean_linker_1
_symmetry_space_group_name_H-M    P1
_symmetry_Int_Tables_number       1
_symmetry_cell_setting            triclinic
loop_
_symmetry_equiv_pos_as_xyz
'x, y, z'
_cell_length_a     40.041207
_cell_length_b     40.098164
_cell_length_c     40.491576
_cell_angle_alpha  90.080237
_cell_angle_beta   89.990016
_cell_angle_gamma 120.04847
loop_
_atom_site_label
_atom_site_type_symbol
_atom_site_fract_x
_atom_site_fract_y
_atom_site_fract_z
_atom_type_partial_charge
C0 C 0.9427 0.33195 0.02512 0.0
Eu1 Eu 0.99486 0.40508 0.02385 0.0
C2 C 0.89971 0.30981 0.02373 0.0
C3 C 0.87794 0.29865 0.05307 0.0
C4 C 0.83755 0.27765 0.05214 0.0
C5 C 0.81768 0.26692 0.02184 0.0
C6 C 0.83946 0.27828 0.99246 0.0
C7 C 0.87992 0.29939 0.99338 0.0
C8 C 0.03133 0.44416 0.08054 0.0
C9 C 0.96522 0.46582 0.02454 0.0
C10 C 0.09782 0.55912 1.00689 0.0
Eu11 Eu 0.05183 0.48497 1.00947 0.0
C12 C 0.12408 0.60137 1.00558 0.0
C13 C 0.12715 0.62227 0.97678 0.0
C14 C 0.15192 0.66227 0.97573 0.0
C15 C 0.17437 0.6822 1.0034 0.0
C16 C 0.17122 0.66111 0.03216 0.0
C17 C 0.14633 0.62123 0.03325 0.0
C18 C 1.02065 0.44003 0.95436 0.0
C19 C 0.08608 0.43009 1.01032 0.0
O20 O 0.96139 0.34977 0.99834 0.0
O21 O 0.95808 0.3527 0.05157 0.0
O22 O 0.99432 0.42278 0.07698 0.0
O23 O 0.04673 0.44709 0.05254 0.0
O24 O 0.95421 0.4292 0.01966 0.0
O25 O 1.00204 0.4916 0.02669 0.0
O26 O 0.08829 0.53985 0.03463 0.0
O27 O 0.08232 0.53814 0.98052 0.0
O28 O 0.05677 0.46574 0.95779 0.0
O29 O 1.00211 0.44001 0.9797 0.0
O30 O 0.09462 0.4659 0.01462 0.0
O31 O 0.04951 0.4013 1.01015 0.0
H32 H 0.89214 0.30591 0.07691 0.0
H33 H 0.82192 0.269 0.07528 0.0
H34 H 0.82523 0.27096 0.96864 0.0
H35 H 0.89564 0.30745 0.97027 0.0
H36 H 0.11031 0.60773 0.95505 0.0
H37 H 0.15387 0.67751 0.9531 0.0
H38 H 0.18764 0.67552 0.05409 0.0
H39 H 0.1446 0.60594 0.05579 0.0
C40 C 0.71624 0.63244 0.02412 0.0
Eu41 Eu 0.64247 0.60946 0.02306 0.0
C42 C 0.73923 0.61262 0.02442 0.0
C43 C 0.76535 0.61994 0.05026 0.0
C44 C 0.78721 0.60153 0.05138 0.0
C45 C 0.78398 0.57553 0.0264 0.0
C46 C 0.75731 0.56783 1.00069 0.0
C47 C 0.73511 0.58602 0.99977 0.0
C48 C 0.60525 0.60558 0.08084 0.0
C49 C 0.58441 0.51912 0.02565 0.0
C50 C 0.48675 0.54864 1.00763 0.0
Eu51 Eu 0.56218 0.58405 1.01053 0.0
C52 C 0.4474 0.5437 1.00784 0.0
C53 C 0.42644 0.53514 0.97817 0.0
C54 C 0.38692 0.52271 0.97832 0.0
C55 C 0.3672 0.51828 1.00822 0.0
C56 C 0.38859 0.52852 0.03782 0.0
C57 C 0.42817 0.54095 0.03765 0.0
C58 C 0.60525 0.59637 0.95426 0.0
C59 C 0.61378 0.67261 1.00994 0.0
O60 O 0.69726 0.63017 0.99721 0.0
O61 O 0.69609 0.62864 0.05058 0.0
O62 O 0.62634 0.58994 0.07571 0.0
O63 O 0.60037 0.61817 0.05356 0.0
O64 O 0.62027 0.54511 0.01845 0.0
O65 O 0.55851 0.52965 0.02943 0.0
O66 O 0.50602 0.55463 0.03517 0.0
O67 O 0.509 0.56324 0.98185 0.0
O68 O 0.57957 0.60665 0.95787 0.0
O69 O 0.6066 0.57933 0.98003 0.0
O70 O 0.57887 0.64497 0.01728 0.0
O71 O 0.64309 0.66577 1.00749 0.0
H72 H 0.7688 0.63994 0.06978 0.0
H73 H 0.80653 0.60764 0.07209 0.0
H74 H 0.75405 0.54835 0.98081 0.0
H75 H 0.71493 0.57937 0.97964 0.0
H76 H 0.44017 0.53621 0.95482 0.0
H77 H 0.37149 0.51472 0.95506 0.0
H78 H 0.37457 0.52612 0.06128 0.0
H79 H 0.4433 0.54694 0.06101 0.0
C80 C 0.41495 0.10423 0.02186 0.0
Eu81 Eu 0.43695 0.05293 0.02272 0.0
C82 C 0.43556 0.14715 0.02248 0.0
C83 C 0.4427 0.16694 0.0527 0.0
C84 C 0.46197 0.20722 0.05366 0.0
C85 C 0.47427 0.22905 0.02439 0.0
C86 C 0.46738 0.20924 0.99414 0.0
C87 C 0.44828 0.16883 0.99319 0.0
C88 C 0.44028 0.01886 0.08052 0.0
C89 C 0.5279 0.08372 0.02385 0.0
C90 C 0.48848 0.95028 1.00785 0.0
Eu91 Eu 0.46063 0.99654 1.00984 0.0
C92 C 0.50429 0.92389 1.00685 0.0
C93 C 0.52319 0.92151 0.97854 0.0
C94 C 0.53858 0.89692 0.97773 0.0
C95 C 0.53479 0.87339 1.005 0.0
C96 C 0.51525 0.8756 0.03318 0.0
C97 C 0.50056 0.90079 0.03418 0.0
C98 C 0.44602 0.02613 0.95402 0.0
C99 C 0.37156 0.96131 1.01202 0.0
O100 O 0.41803 0.08751 0.9952 0.0
O101 O 0.41683 0.08722 0.04868 0.0
O102 O 0.45524 0.05565 0.0762 0.0
O103 O 0.42801 1.00241 0.05281 0.0
O104 O 0.50176 0.09423 0.01987 0.0
O105 O 0.51758 0.04708 0.02515 0.0
O106 O 0.48295 0.96369 0.03553 0.0
O107 O 0.47919 0.96219 0.98123 0.0
O108 O 0.43478 0.99002 0.95847 0.0
O109 O 0.46504 0.04519 0.97897 0.0
O110 O 0.39935 0.95403 0.01834 0.0
O111 O 0.37895 0.99753 1.00895 0.0
H112 H 0.43339 0.15128 0.07577 0.0
H113 H 0.46731 0.22122 0.07751 0.0
H114 H 0.47594 0.22486 0.97103 0.0
H115 H 0.44323 0.15461 0.96945 0.0
H116 H 0.52664 0.93914 0.95714 0.0
H117 H 0.554 0.897 0.95576 0.0
H118 H 0.51076 0.85755 0.05447 0.0
H119 H 0.48581 0.90181 0.05626 0.0
C120 C 0.61164 0.66738 0.35418 0.0
Eu121 Eu 0.66278 0.7409 0.35484 0.0
C122 C 0.56868 0.64455 0.35453 0.0
C123 C 0.54963 0.62171 0.38211 0.0
C124 C 0.50929 0.60019 0.38336 0.0
C125 C 0.48661 0.60033 0.3568 0.0
C126 C 0.50576 0.62363 0.32925 0.0
C127 C 0.54625 0.64552 0.32816 0.0
C128 C 0.69712 0.77825 0.41272 0.0
C129 C 0.63168 0.80036 0.35634 0.0
C130 C 0.76069 0.89552 0.33716 0.0
Eu131 Eu 0.719 0.82051 0.34166 0.0
C132 C 0.79412 0.93538 0.33903 0.0
C133 C 0.81162 0.95526 0.30974 0.0
C134 C 0.8381 0.9949 0.31022 0.0
C135 C 0.84764 0.01584 0.34001 0.0
C136 C 0.83124 0.99558 0.3695 0.0
C137 C 0.80473 0.95588 0.36901 0.0
C138 C 0.68808 0.77621 0.286 0.0
C139 C 0.755 0.76809 0.34466 0.0
O140 O 0.62864 0.68701 0.32755 0.0
O141 O 0.62808 0.68663 0.38105 0.0
O142 O 0.66026 0.75667 0.40819 0.0
O143 O 0.71369 0.78267 0.38505 0.0
O144 O 0.62098 0.76375 0.35202 0.0
O145 O 0.66842 0.8264 0.35767 0.0
O146 O 0.7422 0.87752 0.36395 0.0
O147 O 0.75765 0.87227 0.31321 0.0
O148 O 0.72432 0.80089 0.29009 0.0
O149 O 0.66953 0.77636 0.3112 0.0
O150 O 0.76209 0.80288 0.35222 0.0
O151 O 0.71873 0.73934 0.34065 0.0
H152 H 0.56603 0.62058 0.40293 0.0
H153 H 0.49596 0.58355 0.4054 0.0
H154 H 0.48959 0.6244 0.30814 0.0
H155 H 0.5599 0.663 0.30656 0.0
H156 H 0.80371 0.94046 0.28617 0.0
H157 H 0.85055 1.00926 0.28707 0.0
H158 H 0.83751 1.01066 0.3929 0.0
H159 H 0.79138 0.94164 0.39198 0.0
C160 C 0.38444 0.96851 0.35776 0.0
Eu161 Eu 0.31051 0.9444 0.35653 0.0
C162 C 0.4074 0.94846 0.35669 0.0
C163 C 0.41768 0.93716 0.38614 0.0
C164 C 0.439 0.91812 0.38545 0.0
C165 C 0.45097 0.91 0.35531 0.0
C166 C 0.44057 0.92118 0.32583 0.0
C167 C 0.41912 0.94016 0.3265 0.0
C168 C 0.27306 0.93922 0.4145 0.0
C169 C 0.25524 0.85394 0.36019 0.0
C170 C 0.15373 0.8776 0.34361 0.0
Eu171 Eu 0.22938 0.91537 0.34488 0.0
C172 C 0.11497 0.8739 0.34063 0.0
C173 C 0.09371 0.85988 0.31119 0.0
C174 C 0.05434 0.84825 0.31015 0.0
C175 C 0.03513 0.84997 0.33863 0.0
C176 C 0.0569 0.86591 0.36759 0.0
C177 C 0.09626 0.87763 0.3686 0.0
C178 C 0.2725 0.92983 0.28821 0.0
C179 C 0.27829 1.00469 0.34243 0.0
O180 O 0.36616 0.96849 0.33098 0.0
O181 O 0.36367 0.96296 0.38418 0.0
O182 O 0.29524 0.92484 0.40936 0.0
O183 O 0.26746 0.9512 0.38722 0.0
O184 O 0.28974 0.88046 0.35015 0.0
O185 O 0.22921 0.86368 0.36656 0.0
O186 O 0.1741 0.89228 0.37044 0.0
O187 O 0.17509 0.8841 0.31737 0.0
O188 O 0.24541 0.9382 0.29224 0.0
O189 O 0.27488 0.91307 0.31379 0.0
O190 O 0.24351 0.97584 0.34833 0.0
O191 O 0.30892 0.99978 0.34163 0.0
H192 H 0.4094 0.94319 0.40989 0.0
H193 H 0.44684 0.91053 0.40869 0.0
H194 H 0.44881 0.91506 0.3021 0.0
H195 H 0.41174 0.94832 0.30332 0.0
H196 H 0.107 0.85599 0.28933 0.0
H197 H 0.03853 0.83592 0.28749 0.0
H198 H 0.04324 0.86832 0.38984 0.0
H199 H 0.11154 0.88795 0.39179 0.0
C200 C 0.08214 0.43959 0.35509 0.0
Eu201 Eu 0.10452 0.3885 0.35625 0.0
C202 C 0.10213 0.48229 0.3543 0.0
C203 C 0.09041 0.50172 0.37604 0.0
C204 C 0.10969 0.54204 0.37685 0.0
C205 C 0.14136 0.5641 0.35594 0.0
C206 C 0.15303 0.54448 0.33406 0.0
C207 C 0.13373 0.50405 0.33333 0.0
C208 C 0.10801 0.35633 0.41484 0.0
C209 C 0.19525 0.4188 0.35743 0.0
C210 C 0.1553 0.28508 0.34447 0.0
Eu211 Eu 0.12746 0.33143 0.34527 0.0
C212 C 0.17125 0.25878 0.34365 0.0
C213 C 0.18697 0.25373 0.31438 0.0
C214 C 0.20216 0.229 0.31344 0.0
C215 C 0.20137 0.20792 0.34161 0.0
C216 C 0.18532 0.213 0.3709 0.0
C217 C 0.17077 0.23835 0.37195 0.0
C218 C 0.11443 0.36064 0.28835 0.0
C219 C 0.03874 0.29712 0.34594 0.0
O220 O 0.08414 0.4218 0.32874 0.0
O221 O 0.08627 0.4245 0.38218 0.0
O222 O 0.12387 0.39296 0.40919 0.0
O223 O 0.09486 0.33835 0.38784 0.0
O224 O 0.16938 0.42939 0.35198 0.0
O225 O 0.18441 0.38215 0.36046 0.0
O226 O 0.15094 0.29993 0.37179 0.0
O227 O 0.1447 0.2955 0.31772 0.0
O228 O 0.10321 0.3246 0.29315 0.0
O229 O 0.13291 0.37988 0.31339 0.0
O230 O 0.06587 0.2893 0.35342 0.0
O231 O 0.04673 0.33341 0.34217 0.0
H232 H 0.06633 0.48563 0.39261 0.0
H233 H 0.0994 0.55589 0.39371 0.0
H234 H 0.17756 0.56032 0.31791 0.0
H235 H 0.14383 0.48988 0.31662 0.0
H236 H 0.18797 0.26928 0.29221 0.0
H237 H 0.21498 0.22695 0.29056 0.0
H238 H 0.18334 0.19699 0.39301 0.0
H239 H 0.15861 0.24152 0.39483 0.0
C240 C 0.27344 0.99799 0.68693 0.0
Eu241 Eu 0.32539 0.07119 0.68873 0.0
C242 C 0.2305 0.97547 0.6878 0.0
C243 C 0.21121 0.95997 0.71777 0.0
C244 C 0.1709 0.9385 0.71899 0.0
C245 C 0.14858 0.93133 0.69019 0.0
C246 C 0.16792 0.94714 0.6602 0.0
C247 C 0.20833 0.96893 0.65902 0.0
C248 C 0.35766 0.10665 0.74748 0.0
C249 C 0.29621 0.1322 0.69059 0.0
C250 C 0.43051 0.22447 0.67521 0.0
Eu251 Eu 0.38313 0.15049 0.67748 0.0
C252 C 0.45752 0.2666 0.67399 0.0
C253 C 0.46259 0.2874 0.64471 0.0
C254 C 0.48729 0.32744 0.64395 0.0
C255 C 0.50754 0.34754 0.67245 0.0
C256 C 0.50297 0.32642 0.70151 0.0
C257 C 0.47819 0.28649 0.70229 0.0
C258 C 0.35369 0.10747 0.62095 0.0
C259 C 0.41626 0.09531 0.67893 0.0
O260 O 0.28988 0.01838 0.6605 0.0
O261 O 0.29073 0.01632 0.71392 0.0
O262 O 0.32094 0.08606 0.74168 0.0
O263 O 0.37573 0.11144 0.72053 0.0
O264 O 0.28503 0.09558 0.68555 0.0
O265 O 0.33309 0.15786 0.69289 0.0
O266 O 0.41745 0.20569 0.70297 0.0
O267 O 0.41775 0.20312 0.64869 0.0
O268 O 0.39006 0.13075 0.62634 0.0
O269 O 0.33448 0.10788 0.64553 0.0
O270 O 0.42462 0.13046 0.68625 0.0
O271 O 0.37981 0.0674 0.67486 0.0
H272 H 0.2273 0.96441 0.74043 0.0
H273 H 0.15729 0.92761 0.7427 0.0
H274 H 0.15194 0.94198 0.6374 0.0
H275 H 0.22217 0.98033 0.63546 0.0
H276 H 0.44696 0.27285 0.62251 0.0
H277 H 0.48978 0.34274 0.62123 0.0
H278 H 0.51866 0.34077 0.72374 0.0
H279 H 0.47521 0.27117 0.72511 0.0
C280 C 0.04679 0.29752 0.68838 0.0
Eu281 Eu 0.97355 0.27653 0.68898 0.0
C282 C 0.06909 0.27684 0.68811 0.0
C283 C 0.07731 0.26389 0.71768 0.0
C284 C 0.09901 0.24522 0.71744 0.0
C285 C 0.11332 0.23914 0.68766 0.0
C286 C 0.10468 0.2517 0.65806 0.0
C287 C 0.08297 0.27035 0.65829 0.0
C288 C 0.93572 0.27342 0.74662 0.0
C289 C 0.91222 0.18592 0.68952 0.0
C290 C 0.81962 0.22765 0.67483 0.0
Eu291 Eu 0.89366 0.25439 0.676 0.0
C292 C 0.7774 0.21237 0.67461 0.0
C293 C 0.75732 0.20665 0.64476 0.0
C294 C 0.71728 0.19158 0.64472 0.0
C295 C 0.69641 0.18202 0.67456 0.0
C296 C 0.71681 0.18849 0.7044 0.0
C297 C 0.75674 0.20333 0.70441 0.0
C298 C 0.93763 0.26766 0.62018 0.0
C299 C 0.94865 0.34294 0.67893 0.0
O300 O 0.02735 0.29545 0.66174 0.0
O301 O 0.02761 0.29496 0.71523 0.0
O302 O 0.9573 0.25815 0.74233 0.0
O303 O 0.93229 0.2862 0.719 0.0
O304 O 0.94915 0.21166 0.68617 0.0
O305 O 0.88617 0.1967 0.68994 0.0
O306 O 0.838 0.22695 0.70131 0.0
O307 O 0.84141 0.24257 0.64879 0.0
O308 O 0.91287 0.2791 0.62437 0.0
O309 O 0.93741 0.24877 0.64525 0.0
O310 O 0.91367 0.31566 0.68633 0.0
O311 O 0.97697 0.33484 0.67502 0.0
H312 H 0.06732 0.2685 0.74118 0.0
H313 H 0.1054 0.23647 0.74078 0.0
H314 H 0.11467 0.24707 0.63457 0.0
H315 H 0.07721 0.27988 0.63505 0.0
H316 H 0.77245 0.21333 0.62138 0.0
H317 H 0.7026 0.18665 0.62123 0.0
H318 H 0.70196 0.18226 0.72789 0.0
H319 H 0.77145 0.2078 0.72784 0.0
C320 C 0.74578 0.77063 0.68867 0.0
Eu321 Eu 0.76808 0.71948 0.6886 0.0
C322 C 0.76587 0.81349 0.68946 0.0
C323 C 0.76124 0.83219 0.71694 0.0
C324 C 0.77989 0.87246 0.71846 0.0
C325 C 0.80342 0.89535 0.69231 0.0
C326 C 0.80841 0.87652 0.66492 0.0
C327 C 0.78998 0.83614 0.66355 0.0
C328 C 0.77291 0.68741 0.74668 0.0
C329 C 0.85802 0.75084 0.69231 0.0
C330 C 0.82914 0.62388 0.67684 0.0
Eu331 Eu 0.79347 0.66366 0.67691 0.0
C332 C 0.8347 0.59001 0.67331 0.0
C333 C 0.84948 0.58396 0.64382 0.0
C334 C 0.86202 0.55699 0.64233 0.0
C335 C 0.86049 0.53555 0.67041 0.0
C336 C 0.84431 0.54067 0.69957 0.0
C337 C 0.83166 0.56753 0.70099 0.0
C338 C 0.77951 0.69266 0.62052 0.0
C339 C 0.70413 0.62732 0.67614 0.0
O340 O 0.74867 0.75407 0.66185 0.0
O341 O 0.74846 0.7539 0.71532 0.0
O342 O 0.78798 0.72402 0.74131 0.0
O343 O 0.76011 0.66953 0.71955 0.0
O344 O 0.83252 0.76083 0.6837 0.0
O345 O 0.84679 0.7145 0.6977 0.0
O346 O 0.81143 0.62726 0.70267 0.0
O347 O 0.82616 0.64137 0.65075 0.0
O348 O 0.77001 0.65686 0.6243 0.0
O349 O 0.79717 0.71172 0.6459 0.0
O350 O 0.73193 0.6195 0.68085 0.0
O351 O 0.71096 0.6635 0.67509 0.0
H352 H 0.74315 0.81557 0.73741 0.0
H353 H 0.7759 0.88559 0.74035 0.0
H354 H 0.8259 0.89286 0.64411 0.0
H355 H 0.79446 0.82274 0.64206 0.0
H356 H 0.8528 0.60114 0.62213 0.0
H357 H 0.8736 0.55351 0.61925 0.0
H358 H 0.84301 0.52524 0.72189 0.0
H359 H 0.82113 0.5719 0.72432 0.0
H360 H 0.32148 0.5303 0.96462 0.0
H361 H 0.31524 0.46628 0.05233 0.0
H362 H 0.25141 0.50018 0.9643 0.0
H363 H 0.24526 0.43586 0.05185 0.0
H364 H 0.12744 0.43017 0.06257 0.0
H365 H 0.19507 0.44886 0.06175 0.0
H366 H 0.1916 0.44247 0.95515 0.0
H367 H 0.12345 0.42457 0.9564 0.0
C368 C 0.30519 0.50956 0.9837 0.0
C369 C 0.32425 0.50092 1.00856 0.0
C370 C 0.26484 0.49201 0.98341 0.0
C371 C 0.24229 0.46515 1.00788 0.0
C372 C 0.26144 0.45662 0.03276 0.0
C373 C 0.30176 0.47426 0.03312 0.0
C374 C 0.14043 0.43048 0.03908 0.0
C375 C 0.11958 0.42424 1.00964 0.0
C376 C 0.17964 0.44185 0.03851 0.0
C377 C 0.19927 0.44759 1.00836 0.0
C378 C 0.17772 0.43891 0.97886 0.0
C379 C 0.13836 0.4276 0.97952 0.0
H380 H 0.5438 0.83632 0.95115 0.0
H381 H 0.56323 0.84959 0.05661 0.0
H382 H 0.57269 0.79615 0.94897 0.0
H383 H 0.58779 0.80539 0.05502 0.0
H384 H 0.65046 0.73965 0.04584 0.0
H385 H 0.6358 0.79204 0.0431 0.0
H386 H 0.56232 0.73677 0.9585 0.0
H387 H 0.57948 0.68706 0.96021 0.0
C388 C 0.55419 0.83083 0.974 0.0
C389 C 0.5512 0.84691 1.00402 0.0
C390 C 0.57022 0.80684 0.97286 0.0
C391 C 0.58278 0.79696 1.00183 0.0
C392 C 0.5794 0.81268 0.03194 0.0
C393 C 0.56431 0.83756 0.03296 0.0
C394 C 0.63299 0.74023 0.02566 0.0
C395 C 0.61708 0.71008 1.0026 0.0
C396 C 0.62357 0.76962 0.02454 0.0
C397 C 0.59734 0.76891 1.00075 0.0
C398 C 0.58319 0.73944 0.97681 0.0
C399 C 0.59315 0.71073 0.97763 0.0
H400 H 0.3187 0.93076 0.9616 0.0
H401 H 0.33998 0.91231 0.0624 0.0
H402 H 0.26807 0.86255 0.95769 0.0
H403 H 0.28948 0.84572 0.05911 0.0
H404 H 0.24739 0.72312 0.02861 0.0
H405 H 0.28954 0.79263 0.03035 0.0
H406 H 0.20439 0.8078 0.97758 0.0
H407 H 0.16186 0.73777 0.97587 0.0
C408 C 0.31105 0.91282 0.98342 0.0
C409 C 0.33245 0.9273 1.01265 0.0
C410 C 0.28249 0.87364 0.9811 0.0
C411 C 0.27528 0.84849 1.00792 0.0
C412 C 0.29469 0.86399 0.03779 0.0
C413 C 0.32301 0.90265 0.04001 0.0
C414 C 0.23743 0.74118 0.01756 0.0
C415 C 0.20094 0.72476 1.00254 0.0
C416 C 0.26162 0.78112 0.01856 0.0
C417 C 0.25003 0.8059 1.00465 0.0
C418 C 0.21416 0.78955 0.98853 0.0
C419 C 0.18985 0.74942 0.98754 0.0
H420 H 0.45788 0.27294 0.06607 0.0
H421 H 0.53297 0.28322 0.98528 0.0
H422 H 0.48756 0.34239 0.06843 0.0
H423 H 0.5611 0.35312 0.98625 0.0
H424 H 0.62609 0.48197 0.01519 0.0
H425 H 0.6016 0.4123 0.01574 0.0
H426 H 0.48759 0.39227 0.03865 0.0
H427 H 0.51197 0.46082 0.03928 0.0
C428 C 0.48088 0.28994 0.04885 0.0
C429 C 0.49295 0.27209 0.02555 0.0
C430 C 0.4976 0.33001 0.04987 0.0
C431 C 0.52665 0.35369 0.02735 0.0
C432 C 0.53909 0.33598 1.0042 0.0
C433 C 0.5225 0.29574 1.00334 0.0
C434 C 0.59594 0.4626 0.02072 0.0
C435 C 0.5712 0.4772 0.02741 0.0
C436 C 0.58176 0.42261 0.02074 0.0
C437 C 0.54254 0.39639 0.02744 0.0
C438 C 0.51807 0.41128 0.03412 0.0
C439 C 0.53215 0.45091 0.03426 0.0
H440 H 0.56403 0.16291 0.03152 0.0
H441 H 0.58745 0.06978 0.01709 0.0
H442 H 0.63369 0.20914 0.03039 0.0
H443 H 0.65611 0.11542 0.01606 0.0
H444 H 0.77307 0.20701 0.98006 0.0
H445 H 0.70326 0.16549 0.98005 0.0
H446 H 0.69433 0.22904 0.06243 0.0
H447 H 0.76438 0.27156 0.06182 0.0
C448 C 0.5839 0.15228 0.02821 0.0
C449 C 0.56997 0.11257 0.02445 0.0
C450 C 0.62382 0.17873 0.02767 0.0
C451 C 0.65058 0.16606 0.02285 0.0
C452 C 0.63647 0.12635 0.0193 0.0
C453 C 0.59689 0.10007 0.02021 0.0
C454 C 0.7563 0.21264 0.99787 0.0
C455 C 0.7746 0.24271 0.02098 0.0
C456 C 0.71619 0.18849 0.99811 0.0
C457 C 0.69307 0.19366 0.02142 0.0
C458 C 0.71117 0.22432 0.04402 0.0
C459 C 0.75141 0.24845 0.04388 0.0
H460 H 0.88593 0.42405 0.03304 0.0
H461 H 0.98055 0.53947 0.01704 0.0
H462 H 0.84111 0.44897 0.0345 0.0
H463 H 0.93634 0.56385 0.01676 0.0
H464 H 0.85874 0.60741 0.04832 0.0
H465 H 0.89951 0.579 0.05004 0.0
H466 H 0.80916 0.47536 1.00453 0.0
H467 H 0.76688 0.50282 1.00536 0.0
C468 C 0.89714 0.45464 0.02971 0.0
C469 C 0.93695 0.47972 0.02537 0.0
C470 C 0.87143 0.46898 0.03029 0.0
C471 C 0.88487 0.50869 0.02613 0.0
C472 C 0.92467 0.53337 0.02111 0.0
C473 C 0.95021 0.51922 0.02104 0.0
C474 C 0.84702 0.57824 0.03926 0.0
C475 C 0.80913 0.55757 0.02685 0.0
C476 C 0.87088 0.56205 0.03967 0.0
C477 C 0.85812 0.52482 0.02705 0.0
C478 C 0.82014 0.50393 0.01474 0.0
C479 C 0.79597 0.52001 0.01475 0.0
H480 H 0.80084 0.77759 0.39618 0.0
H481 H 0.78846 0.75345 0.29185 0.0
H482 H 0.86758 0.79375 0.39392 0.0
H483 H 0.85605 0.76899 0.28925 0.0
H484 H 0.98845 0.85434 0.29079 0.0
H485 H 0.91836 0.82569 0.29166 0.0
H486 H 0.91459 0.7764 0.38739 0.0
H487 H 0.98435 0.80571 0.38676 0.0
C488 C 0.81188 0.77355 0.37303 0.0
C489 C 0.78893 0.76285 0.34446 0.0
C490 C 0.85055 0.78331 0.37158 0.0
C491 C 0.8677 0.78295 0.34135 0.0
C492 C 0.84408 0.77006 0.31294 0.0
C493 C 0.80506 0.7602 0.31448 0.0
C494 C 0.97258 0.83725 0.31194 0.0
C495 C 0.99223 0.83278 0.33886 0.0
C496 C 0.93225 0.82051 0.31236 0.0
C497 C 0.91043 0.79854 0.3396 0.0
C498 C 0.93019 0.7936 0.3662 0.0
C499 C 0.9704 0.81057 0.3659 0.0
H500 H 0.23548 0.18791 0.39148 0.0
H501 H 0.20293 0.1656 0.28854 0.0
H502 H 0.25908 0.14281 0.38909 0.0
H503 H 0.23075 0.12468 0.28509 0.0
H504 H 0.23754 0.01641 0.29681 0.0
H505 H 0.22058 0.06613 0.2966 0.0
H506 H 0.30445 0.12658 0.37381 0.0
H507 H 0.31902 0.07398 0.37542 0.0
C508 C 0.23348 0.17371 0.36822 0.0
C509 C 0.21706 0.18084 0.34022 0.0
C510 C 0.24795 0.14828 0.36665 0.0
C511 C 0.24725 0.12974 0.33685 0.0
C512 C 0.23141 0.13747 0.30879 0.0
C513 C 0.21601 0.16194 0.31059 0.0
C514 C 0.25331 0.04103 0.31299 0.0
C515 C 0.28014 0.04171 0.33565 0.0
C516 C 0.24357 0.06986 0.31294 0.0
C517 C 0.26094 0.101 0.3352 0.0
C518 C 0.28981 0.10292 0.3566 0.0
C519 C 0.29907 0.07335 0.35701 0.0
H520 H 1.00319 0.25782 0.29049 0.0
H521 H 0.99098 0.25775 0.39611 0.0
H522 H 0.95478 0.18937 0.28861 0.0
H523 H 0.94183 0.18956 0.39456 0.0
H524 H 0.90317 0.06132 0.38538 0.0
H525 H 0.94325 0.13126 0.38613 0.0
H526 H 0.88974 0.13796 0.29569 0.0
H527 H 0.84971 0.06804 0.29493 0.0
C528 C 0.98836 0.24363 0.31306 0.0
C529 C 0.99973 0.26343 0.34328 0.0
C530 C 0.96098 0.20418 0.31213 0.0
C531 C 0.94456 0.18357 0.3415 0.0
C532 C 0.95421 0.20418 0.37149 0.0
C533 C 0.98162 0.24355 0.37235 0.0
C534 C 0.89967 0.07767 0.36578 0.0
C535 C 0.87307 0.05877 0.34011 0.0
C536 C 0.92262 0.11793 0.36626 0.0
C537 C 0.91958 0.14057 0.34113 0.0
C538 C 0.8932 0.12164 0.31532 0.0
C539 C 0.87027 0.08138 0.31484 0.0
H540 H 0.19546 0.798 0.395 0.0
H541 H 0.28706 0.81561 0.32836 0.0
H542 H 0.1707 0.7289 0.39392 0.0
H543 H 0.26205 0.74576 0.32729 0.0
H544 H 0.1721 0.61561 0.30433 0.0
H545 H 0.20318 0.68584 0.30639 0.0
H546 H 0.18791 0.68078 0.41212 0.0
H547 H 0.15762 0.61089 0.41029 0.0
C548 C 0.21067 0.78714 0.3804 0.0
C549 C 0.24347 0.81244 0.36195 0.0
C550 C 0.19647 0.74742 0.37987 0.0
C551 C 0.21439 0.73167 0.36059 0.0
C552 C 0.24746 0.75694 0.3423 0.0
C553 C 0.26204 0.79696 0.34318 0.0
C554 C 0.17589 0.62944 0.32811 0.0
C555 C 0.16193 0.60726 0.35711 0.0
C556 C 0.19373 0.66978 0.32926 0.0
C557 C 0.19791 0.689 0.3594 0.0
C558 C 0.18464 0.66692 0.38841 0.0
C559 C 0.16708 0.62671 0.38731 0.0
H560 H 0.25406 0.40341 0.35512 0.0
H561 H 0.23253 0.4986 0.36018 0.0
H562 H 0.32266 0.44774 0.35429 0.0
H563 H 0.30233 0.54373 0.36094 0.0
H564 H 0.431 0.61467 0.33064 0.0
H565 H 0.36108 0.57242 0.33061 0.0
H566 H 0.37422 0.48826 0.38695 0.0
H567 H 0.44352 0.52872 0.3847 0.0
C568 C 0.26395 0.43394 0.35656 0.0
C569 C 0.23747 0.44728 0.35801 0.0
C570 C 0.30367 0.45958 0.35632 0.0
C571 C 0.31861 0.49964 0.35806 0.0
C572 C 0.29215 0.51317 0.35934 0.0
C573 C 0.25204 0.48729 0.35916 0.0
C574 C 0.41902 0.58691 0.34263 0.0
C575 C 0.44341 0.57537 0.35761 0.0
C576 C 0.37869 0.56282 0.34305 0.0
C577 C 0.36153 0.52654 0.3586 0.0
C578 C 0.38598 0.51548 0.37408 0.0
C579 C 0.4261 0.53922 0.37332 0.0
H580 H 0.51232 0.92639 0.31491 0.0
H581 H 0.44509 0.85104 0.39456 0.0
H582 H 0.55334 0.89763 0.31492 0.0
H583 H 0.4871 0.82302 0.39521 0.0
H584 H 0.55213 0.75806 0.36328 0.0
H585 H 0.50682 0.78259 0.36278 0.0
H586 H 0.60226 0.8984 0.35083 0.0
H587 H 0.64693 0.87433 0.35122 0.0
C588 C 0.50601 0.90347 0.33228 0.0
C589 C 0.47525 0.89118 0.35473 0.0
C590 C 0.52989 0.88722 0.33254 0.0
C591 C 0.52376 0.85809 0.35522 0.0
C592 C 0.49255 0.84518 0.37726 0.0
C593 C 0.4687 0.86159 0.37711 0.0
C594 C 0.56333 0.78872 0.36063 0.0
C595 C 0.60324 0.81408 0.35731 0.0
C596 C 0.53741 0.80283 0.36046 0.0
C597 C 0.55081 0.84251 0.35645 0.0
C598 C 0.59073 0.86767 0.35341 0.0
C599 C 0.61647 0.85374 0.35394 0.0
H600 H 0.65162 0.1995 0.63463 0.0
H601 H 0.6437 0.12474 0.71466 0.0
H602 H 0.5816 0.17023 0.63462 0.0
H603 H 0.57387 0.09555 0.71465 0.0
H604 H 0.45619 0.09017 0.72997 0.0
H605 H 0.52428 0.10935 0.72849 0.0
H606 H 0.52202 0.11239 0.62185 0.0
H607 H 0.45383 0.09409 0.62379 0.0
C608 C 0.63499 0.17655 0.65199 0.0
C609 C 0.65351 0.16452 0.67461 0.0
C610 C 0.59471 0.15962 0.65192 0.0
C611 C 0.57184 0.13014 0.67443 0.0
C612 C 0.59043 0.11832 0.69712 0.0
C613 C 0.63063 0.13522 0.69719 0.0
C614 C 0.4698 0.09289 0.7062 0.0
C615 C 0.44944 0.08926 0.67695 0.0
C616 C 0.50904 0.10443 0.7053 0.0
C617 C 0.52896 0.11282 0.67504 0.0
C618 C 0.50782 0.10668 0.64562 0.0
C619 C 0.46848 0.09516 0.6466 0.0
H620 H 0.96154 0.38937 0.62543 0.0
H621 H 0.94088 0.38085 0.7303 0.0
H622 H 0.94223 0.4386 0.62201 0.0
H623 H 0.92243 0.42987 0.72724 0.0
H624 H 0.83423 0.46618 0.70225 0.0
H625 H 0.86375 0.42592 0.7042 0.0
H626 H 0.95412 0.50439 0.63883 0.0
H627 H 0.92516 0.54542 0.63741 0.0
C628 C 0.95515 0.39965 0.64799 0.0
C629 C 0.95413 0.38218 0.67832 0.0
C630 C 0.94346 0.42738 0.64601 0.0
C631 C 0.9301 0.43771 0.6743 0.0
C632 C 0.93192 0.42222 0.70488 0.0
C633 C 0.94358 0.39478 0.7068 0.0
C634 C 0.86059 0.47523 0.68851 0.0
C635 C 0.87728 0.50943 0.66987 0.0
C636 C 0.87758 0.45205 0.68962 0.0
C637 C 0.91169 0.46217 0.672 0.0
C638 C 0.92784 0.49568 0.6526 0.0
C639 C 0.91101 0.51911 0.65169 0.0
H640 H 0.66668 0.58388 0.72834 0.0
H641 H 0.65703 0.59245 0.62323 0.0
H642 H 0.61716 0.51656 0.72682 0.0
H643 H 0.60511 0.525 0.62145 0.0
H644 H 0.55734 0.39383 0.62394 0.0
H645 H 0.5987 0.46366 0.62446 0.0
H646 H 0.55435 0.46813 0.72075 0.0
H647 H 0.51409 0.39852 0.72047 0.0
C648 C 0.6523 0.57173 0.7051 0.0
C649 C 0.66498 0.59361 0.67607 0.0
C650 C 0.62387 0.53286 0.7041 0.0
C651 C 0.60693 0.51476 0.67394 0.0
C652 C 0.61784 0.53756 0.64509 0.0
C653 C 0.64686 0.57653 0.64612 0.0
C654 C 0.55627 0.4098 0.64511 0.0
C655 C 0.53249 0.3904 0.67225 0.0
C656 C 0.57987 0.45002 0.64536 0.0
C657 C 0.58007 0.47202 0.67264 0.0
C658 C 0.55574 0.45247 0.6995 0.0
C659 C 0.53251 0.41233 0.69938 0.0
H660 H 0.77376 0.93807 0.71906 0.0
H661 H 0.87417 0.95101 0.66767 0.0
H662 H 0.80219 1.00733 0.7209 0.0
H663 H 0.9015 0.02073 0.66731 0.0
H664 H 0.95477 0.14902 0.69571 0.0
H665 H 0.93028 0.07943 0.69786 0.0
H666 H 0.81391 0.0584 0.687 0.0
H667 H 0.83796 0.12691 0.68629 0.0
C668 C 0.80203 0.95558 0.70821 0.0
C669 C 0.8215 0.93843 0.69328 0.0
C670 C 0.81817 0.99562 0.70876 0.0
C671 C 0.85413 0.0201 0.6939 0.0
C672 C 0.87392 1.00309 0.67925 0.0
C673 C 0.85789 0.96287 0.67902 0.0
C674 C 0.92397 0.12942 0.69401 0.0
C675 C 0.89845 0.14379 0.69109 0.0
C676 C 0.90986 0.08944 0.69501 0.0
C677 C 0.86992 0.06287 0.69289 0.0
C678 C 0.84469 0.07755 0.68961 0.0
C679 C 0.85866 0.11719 0.68895 0.0
H680 H 0.91627 0.73575 0.7027 0.0
H681 H 0.89548 0.82996 0.68448 0.0
H682 H 0.98498 0.77973 0.70174 0.0
H683 H 0.96523 0.87492 0.68496 0.0
H684 H 0.09356 0.93817 0.65432 0.0
H685 H 0.02373 0.89589 0.65523 0.0
H686 H 0.03603 0.82745 0.73145 0.0
H687 H 0.10546 0.86767 0.72876 0.0
C688 C 0.92631 0.76607 0.69899 0.0
C689 C 0.90009 0.77925 0.69384 0.0
C690 C 0.96605 0.79151 0.69865 0.0
C691 C 0.98108 0.83119 0.69359 0.0
C692 C 0.95487 0.84455 0.68862 0.0
C693 C 0.91482 0.81885 0.68865 0.0
C694 C 0.08142 0.91381 0.67098 0.0
C695 C 0.10553 0.90652 0.69142 0.0
C696 C 0.04117 0.88983 0.67187 0.0
C697 C 0.02387 0.85799 0.69336 0.0
C698 C 0.04803 0.85117 0.71412 0.0
C699 C 0.08812 0.87481 0.71298 0.0
H700 H 0.31163 0.20651 0.688 0.0
H701 H 0.21665 0.08962 0.69488 0.0
H702 H 0.26664 0.23034 0.68731 0.0
H703 H 0.17116 0.11379 0.694 0.0
H704 H 0.10628 0.17866 0.72538 0.0
H705 H 0.14918 0.1517 0.72673 0.0
H706 H 0.21934 0.23121 0.65051 0.0
H707 H 0.17746 0.25895 0.64992 0.0
C708 C 0.28108 0.18577 0.68952 0.0
C709 C 0.26787 0.14601 0.69153 0.0
C710 C 0.25518 0.19953 0.68882 0.0
C711 C 0.21516 0.17405 0.69032 0.0
C712 C 0.2018 0.13427 0.69295 0.0
C713 C 0.22785 0.12038 0.69332 0.0
C714 C 0.13097 0.19053 0.70901 0.0
C715 C 0.13832 0.22114 0.68758 0.0
C716 C 0.15535 0.17475 0.70955 0.0
C717 C 0.18788 0.18932 0.68883 0.0
C718 C 0.19487 0.21953 0.66712 0.0
C719 C 0.17049 0.23518 0.6665 0.0
H720 H 0.07747 0.32102 0.23269 0.0
H721 H 0.13063 0.43506 0.27483 0.0
H722 H 0.06036 0.34409 0.18347 0.0
H723 H 0.11302 0.45838 0.22536 0.0
H724 H 0.03351 0.47032 0.14421 0.0
H725 H 0.05604 0.45292 0.19445 0.0
H726 H 0.08886 0.38421 0.13543 0.0
H727 H 0.06571 0.40096 0.086 0.0
C728 C 0.08564 0.35115 0.23145 0.0
C729 C 0.10537 0.37606 0.25795 0.0
C730 C 0.07593 0.36451 0.20301 0.0
C731 C 0.08527 0.40328 0.20006 0.0
C732 C 0.10498 0.4283 0.22667 0.0
C733 C 0.1152 0.41495 0.25507 0.0
C734 C 0.04622 0.4521 0.14204 0.0
C735 C 0.04888 0.43798 0.1109 0.0
C736 C 0.05919 0.44209 0.17083 0.0
C737 C 0.07432 0.41696 0.1693 0.0
C738 C 0.07723 0.40334 0.13794 0.0
C739 C 0.06464 0.41358 0.10934 0.0
H740 H 0.72773 0.75781 0.2421 0.0
H741 H 0.61257 0.73462 0.2636 0.0
H742 H 0.70349 0.71485 0.19433 0.0
H743 H 0.58827 0.69217 0.21473 0.0
H744 H 0.58236 0.65843 0.09743 0.0
H745 H 0.59897 0.69829 0.14775 0.0
H746 H 0.65695 0.64078 0.18672 0.0
H747 H 0.6396 0.60048 0.13747 0.0
C748 C 0.69718 0.74369 0.23653 0.0
C749 C 0.67216 0.74976 0.2568 0.0
C750 C 0.68324 0.71891 0.20911 0.0
C751 C 0.64387 0.69993 0.20053 0.0
C752 C 0.61877 0.70641 0.22048 0.0
C753 C 0.63265 0.73061 0.24856 0.0
C754 C 0.59783 0.65365 0.11708 0.0
C755 C 0.60948 0.62599 0.11315 0.0
C756 C 0.60745 0.67661 0.14592 0.0
C757 C 0.62964 0.67305 0.17127 0.0
C758 C 0.64018 0.64463 0.16768 0.0
C759 C 0.62996 0.62129 0.13935 0.0
H760 H 0.46531 0.02991 0.14545 0.0
H761 H 0.36275 0.97155 0.08593 0.0
H762 H 0.42554 1.00625 0.19577 0.0
H763 H 0.32327 0.94717 0.13551 0.0
H764 H 0.26291 0.95704 0.22931 0.0
H765 H 0.30379 0.97584 0.18025 0.0
H766 H 0.38054 0.94539 0.22908 0.0
H767 H 0.33853 0.92515 0.27801 0.0
C768 C 0.43441 1.01122 0.14305 0.0
C769 C 0.41744 1.00143 0.11146 0.0
C770 C 0.41155 0.9976 0.17191 0.0
C771 C 0.37096 0.97458 0.16996 0.0
C772 C 0.35425 0.96478 0.13827 0.0
C773 C 0.37705 0.97805 0.10964 0.0
C774 C 0.28836 0.95409 0.22963 0.0
C775 C 0.29743 0.93982 0.25792 0.0
C776 C 0.31187 0.96482 0.20134 0.0
C777 C 0.34578 0.96237 0.20045 0.0
C778 C 0.35496 0.94811 0.22881 0.0
C779 C 0.33083 0.93647 0.25694 0.0
H780 H 0.47693 0.10181 0.9328 0.0
H781 H 0.39099 0.98523 0.90789 0.0
H782 H 0.45839 0.12526 0.88371 0.0
H783 H 0.372 1.00852 0.85979 0.0
H784 H 0.31674 0.06671 0.80196 0.0
H785 H 0.33989 0.04995 0.85131 0.0
H786 H 0.45708 0.11829 0.81712 0.0
H787 H 0.43369 0.13442 0.76667 0.0
C788 C 0.45411 0.0812 0.91694 0.0
C789 C 0.43551 0.04155 0.92441 0.0
C790 C 0.44358 0.09463 0.88871 0.0
C791 C 0.41352 0.06885 0.8677 0.0
C792 C 0.39501 0.02932 0.8754 0.0
C793 C 0.40604 0.01591 0.90303 0.0
C794 C 0.34755 0.07873 0.80492 0.0
C795 C 0.37322 0.10204 0.77999 0.0
C796 C 0.36083 0.06884 0.83331 0.0
C797 C 0.40038 0.08247 0.83831 0.0
C798 C 0.42643 0.10733 0.81424 0.0
C799 C 0.413 0.11665 0.7853 0.0
H800 H 0.94671 0.37864 0.94335 0.0
H801 H 0.05796 0.44484 0.89691 0.0
H802 H 0.92264 0.33706 0.89412 0.0
H803 H 0.03403 0.40425 0.84797 0.0
H804 H 0.97301 0.35115 0.75238 0.0
H805 H 0.98932 0.39052 0.80211 0.0
H806 H 0.93202 0.28758 0.86148 0.0
H807 H 0.91493 0.24799 0.81092 0.0
C808 C 0.96603 0.38437 0.92271 0.0
C809 C 1.0044 0.41508 0.92429 0.0
C810 C 0.95226 0.36047 0.89446 0.0
C811 C 0.97625 0.36719 0.86677 0.0
C812 C 1.01442 0.39826 0.86844 0.0
C813 C 0.02827 0.42158 0.8967 0.0
C814 C 0.96264 0.33687 0.77589 0.0
C815 C 0.94158 0.2964 0.77745 0.0
C816 C 0.97268 0.35948 0.80461 0.0
C817 C 0.96221 0.34246 0.83611 0.0
C818 C 0.94032 0.30184 0.83774 0.0
C819 C 0.93053 0.27909 0.80878 0.0
H820 H 0.77661 0.72711 0.80281 0.0
H821 H 0.72269 0.61145 0.76413 0.0
H822 H 0.73698 0.70406 0.85185 0.0
H823 H 0.68346 0.58754 0.81433 0.0
H824 H 0.58922 0.56282 0.89286 0.0
H825 H 0.63096 0.58269 0.84399 0.0
H826 H 0.72244 0.67355 0.90134 0.0
H827 H 0.67943 0.65541 0.94863 0.0
C828 C 0.75678 0.69644 0.80504 0.0
C829 C 0.75291 0.67129 0.77911 0.0
C830 C 0.73388 0.68299 0.83357 0.0
C831 C 0.70641 0.64361 0.83773 0.0
C832 C 0.70352 0.61814 0.81221 0.0
C833 C 0.72637 0.63178 0.78339 0.0
C834 C 0.61842 0.58684 0.8949 0.0
C835 C 0.63148 0.60664 0.92507 0.0
C836 C 0.64263 0.5982 0.86687 0.0
C837 C 0.68072 0.62985 0.86813 0.0
C838 C 0.69349 0.64937 0.89866 0.0
C839 C 0.66909 0.63833 0.92638 0.0
H840 H 0.73749 0.74047 0.41789 0.0
H841 H 0.69157 0.79721 0.47725 0.0
H842 H 0.7586 0.72191 0.4673 0.0
H843 H 0.71375 0.77983 0.52734 0.0
H844 H 0.72026 0.70734 0.61257 0.0
H845 H 0.70306 0.73099 0.56365 0.0
H846 H 0.79957 0.73581 0.5114 0.0
H847 H 0.8159 0.71146 0.56054 0.0
C848 C 0.73322 0.75029 0.44158 0.0
C849 C 0.7139 0.77146 0.44339 0.0
C850 C 0.74519 0.73939 0.47025 0.0
C851 C 0.73835 0.74926 0.50202 0.0
C852 C 0.71932 0.77096 0.5037 0.0
C853 C 0.70694 0.78149 0.47488 0.0
C854 C 0.73822 0.71426 0.59082 0.0
C855 C 0.77002 0.70843 0.59077 0.0
C856 C 0.72834 0.72786 0.56249 0.0
C857 C 0.74983 0.73588 0.53295 0.0
C858 C 0.78173 0.72978 0.53313 0.0
C859 C 0.79147 0.71607 0.5615 0.0
H860 H 0.25468 0.99581 0.42924 0.0
H861 H 0.30071 0.92922 0.47306 0.0
H862 H 0.27088 0.03507 0.47981 0.0
H863 H 0.31738 0.96865 0.52287 0.0
H864 H 0.39152 0.08187 0.58187 0.0
H865 H 0.36751 0.03927 0.53383 0.0
H866 H 0.2567 0.03163 0.54432 0.0
H867 H 0.28061 0.07362 0.59344 0.0
C868 C 0.26749 0.98897 0.44981 0.0
C869 C 0.27632 0.95916 0.44685 0.0
C870 C 0.27691 1.01161 0.47881 0.0
C871 C 0.29591 1.00541 0.50542 0.0
C872 C 0.30329 0.97468 0.50283 0.0
C873 C 0.29343 0.95183 0.47421 0.0
C874 C 0.36199 0.0711 0.57404 0.0
C875 C 0.33806 0.08124 0.5916 0.0
C876 C 0.34812 0.04647 0.5465 0.0
C877 C 0.31007 0.03182 0.53503 0.0
C878 C 0.28616 0.0424 0.55231 0.0
C879 C 0.29981 0.06633 0.58055 0.0
H880 H 0.98169 0.23592 0.59887 0.0
H881 H 0.95357 0.32377 0.57499 0.0
H882 H 0.02438 0.2546 0.55017 0.0
H883 H 0.99654 0.34288 0.52731 0.0
H884 H 0.11009 0.39689 0.46995 0.0
H885 H 0.07007 0.37372 0.51927 0.0
H886 H 1.01925 0.25696 0.48367 0.0
H887 H 0.0589 0.28038 0.43329 0.0
C888 C 0.98462 0.25919 0.58333 0.0
C889 C 0.96404 0.27827 0.59092 0.0
C890 C 1.00897 0.26981 0.55533 0.0
C891 C 1.01412 0.3004 0.53474 0.0
C892 C 0.99362 0.31942 0.54261 0.0
C893 C 0.96879 0.30833 0.56998 0.0
C894 C 0.09085 0.36617 0.4726 0.0
C895 C 0.08792 0.34063 0.44731 0.0
C896 C 0.06763 0.35288 0.50097 0.0
C897 C 0.04111 0.31346 0.50553 0.0
C898 C 0.03942 0.28751 0.48111 0.0
C899 C 0.06223 0.30094 0.45222 0.0
loop_
_geom_bond_atom_site_label_1
_geom_bond_atom_site_label_2
_geom_bond_distance
_geom_bond_site_symmetry_2
_ccdc_geom_bond_type
C0 Eu1 2.835 . S
C0 C2 1.500 . S
C0 O20 1.257 1_554 S
C0 O21 1.260 . S
Eu1 C0 2.835 . S
Eu1 O20 2.473 1_554 S
Eu1 O21 2.480 . S
Eu1 O22 2.430 . S
Eu1 O23 2.670 1_655 S
Eu1 O24 2.394 . S
Eu1 O29 2.355 1_554 S
Eu1 O31 2.374 1_654 S
C2 C0 1.500 . S
C2 C3 1.377 . S
C2 C7 1.377 1_554 S
C3 C2 1.377 . S
C3 C4 1.395 . S
C3 H32 0.931 . S
C4 C3 1.395 . S
C4 C5 1.383 . S
C4 H33 0.931 . S
C5 C4 1.383 . S
C5 C6 1.394 1_554 S
C6 C5 1.394 1_556 S
C6 C7 1.378 . S
C6 H34 0.931 . S
C7 C2 1.377 1_556 S
C7 C6 1.378 . S
C7 H35 0.931 . S
C8 O22 1.259 1_455 S
C8 O23 1.270 . S
C9 O24 1.251 . S
C9 O25 1.251 . S
C10 Eu11 2.835 . S
C10 C12 1.500 . S
C10 O26 1.257 1_556 S
C10 O27 1.260 . S
Eu11 C10 2.835 . S
Eu11 O23 2.355 1_556 S
Eu11 O25 2.374 1_456 S
Eu11 O26 2.473 1_556 S
Eu11 O27 2.480 . S
Eu11 O28 2.430 . S
Eu11 O29 2.670 1_455 S
Eu11 O30 2.394 . S
C12 C10 1.500 . S
C12 C13 1.377 . S
C12 C17 1.377 1_556 S
C13 C12 1.377 . S
C13 C14 1.395 . S
C13 H36 0.931 . S
C14 C13 1.395 . S
C14 C15 1.383 . S
C14 H37 0.931 . S
C15 C14 1.383 . S
C15 C16 1.394 1_556 S
C16 C15 1.394 1_554 S
C16 C17 1.378 . S
C16 H38 0.931 . S
C17 C12 1.377 1_554 S
C17 C16 1.378 . S
C17 H39 0.931 . S
C18 O28 1.259 1_655 S
C18 O29 1.270 . S
C19 O30 1.251 . S
C19 O31 1.251 . S
O20 C0 1.257 1_556 S
O20 Eu1 2.473 1_556 S
O21 C0 1.260 . S
O21 Eu1 2.480 . S
O22 Eu1 2.430 . S
O22 C8 1.259 1_655 S
O23 Eu1 2.670 1_455 S
O23 C8 1.270 . S
O23 Eu11 2.355 1_554 S
O24 Eu1 2.394 . S
O24 C9 1.251 . S
O25 C9 1.251 . S
O25 Eu11 2.374 1_654 S
O26 C10 1.257 1_554 S
O26 Eu11 2.473 1_554 S
O27 C10 1.260 . S
O27 Eu11 2.480 . S
O28 Eu11 2.430 . S
O28 C18 1.259 1_455 S
O29 Eu1 2.355 1_556 S
O29 Eu11 2.670 1_655 S
O29 C18 1.270 . S
O30 Eu11 2.394 . S
O30 C19 1.251 . S
O31 Eu1 2.374 1_456 S
O31 C19 1.251 . S
H32 C3 0.931 . S
H33 C4 0.931 . S
H34 C6 0.931 . S
H35 C7 0.931 . S
H36 C13 0.931 . S
H37 C14 0.931 . S
H38 C16 0.931 . S
H39 C17 0.931 . S
C40 Eu41 2.835 . S
C40 C42 1.500 . S
C40 O60 1.257 1_554 S
C40 O61 1.260 . S
Eu41 C40 2.835 . S
Eu41 O60 2.473 1_554 S
Eu41 O61 2.480 . S
Eu41 O62 2.430 . S
Eu41 O63 2.670 . S
Eu41 O64 2.394 . S
Eu41 O69 2.355 1_554 S
Eu41 O71 2.374 1_554 S
C42 C40 1.500 . S
C42 C43 1.377 . S
C42 C47 1.377 1_554 S
C43 C42 1.377 . S
C43 C44 1.395 . S
C43 H72 0.931 . S
C44 C43 1.395 . S
C44 C45 1.383 . S
C44 H73 0.931 . S
C45 C44 1.383 . S
C45 C46 1.394 1_554 S
C46 C45 1.394 1_556 S
C46 C47 1.378 . S
C46 H74 0.931 . S
C47 C42 1.377 1_556 S
C47 C46 1.378 . S
C47 H75 0.931 . S
C48 O62 1.259 . S
C48 O63 1.270 . S
C49 O64 1.251 . S
C49 O65 1.251 . S
C50 Eu51 2.835 . S
C50 C52 1.500 . S
C50 O66 1.257 1_556 S
C50 O67 1.260 . S
Eu51 C50 2.835 . S
Eu51 O63 2.355 1_556 S
Eu51 O65 2.374 1_556 S
Eu51 O66 2.473 1_556 S
Eu51 O67 2.480 . S
Eu51 O68 2.430 . S
Eu51 O69 2.670 . S
Eu51 O70 2.394 . S
C52 C50 1.500 . S
C52 C53 1.377 . S
C52 C57 1.377 1_556 S
C53 C52 1.377 . S
C53 C54 1.395 . S
C53 H76 0.931 . S
C54 C53 1.395 . S
C54 C55 1.383 . S
C54 H77 0.931 . S
C55 C54 1.383 . S
C55 C56 1.394 1_556 S
C56 C55 1.394 1_554 S
C56 C57 1.378 . S
C56 H78 0.931 . S
C57 C52 1.377 1_554 S
C57 C56 1.378 . S
C57 H79 0.931 . S
C58 O68 1.259 . S
C58 O69 1.270 . S
C59 O70 1.251 . S
C59 O71 1.251 . S
O60 C40 1.257 1_556 S
O60 Eu41 2.473 1_556 S
O61 C40 1.260 . S
O61 Eu41 2.480 . S
O62 Eu41 2.430 . S
O62 C48 1.259 . S
O63 Eu41 2.670 . S
O63 C48 1.270 . S
O63 Eu51 2.355 1_554 S
O64 Eu41 2.394 . S
O64 C49 1.251 . S
O65 C49 1.251 . S
O65 Eu51 2.374 1_554 S
O66 C50 1.257 1_554 S
O66 Eu51 2.473 1_554 S
O67 C50 1.260 . S
O67 Eu51 2.480 . S
O68 Eu51 2.430 . S
O68 C58 1.259 . S
O69 Eu41 2.355 1_556 S
O69 Eu51 2.670 . S
O69 C58 1.270 . S
O70 Eu51 2.394 . S
O70 C59 1.251 . S
O71 Eu41 2.374 1_556 S
O71 C59 1.251 . S
H72 C43 0.931 . S
H73 C44 0.931 . S
H74 C46 0.931 . S
H75 C47 0.931 . S
H76 C53 0.931 . S
H77 C54 0.931 . S
H78 C56 0.931 . S
H79 C57 0.931 . S
C80 Eu81 2.835 . S
C80 C82 1.500 . S
C80 O100 1.257 1_554 S
C80 O101 1.260 . S
Eu81 C80 2.835 . S
Eu81 O100 2.473 1_554 S
Eu81 O101 2.480 . S
Eu81 O102 2.430 . S
Eu81 O103 2.670 1_545 S
Eu81 O104 2.394 . S
Eu81 O109 2.355 1_554 S
Eu81 O111 2.374 1_544 S
C82 C80 1.500 . S
C82 C83 1.377 . S
C82 C87 1.377 1_554 S
C83 C82 1.377 . S
C83 C84 1.395 . S
C83 H112 0.931 . S
C84 C83 1.395 . S
C84 C85 1.383 . S
C84 H113 0.931 . S
C85 C84 1.383 . S
C85 C86 1.394 1_554 S
C86 C85 1.394 1_556 S
C86 C87 1.378 . S
C86 H114 0.931 . S
C87 C82 1.377 1_556 S
C87 C86 1.378 . S
C87 H115 0.931 . S
C88 O102 1.259 . S
C88 O103 1.270 1_545 S
C89 O104 1.251 . S
C89 O105 1.251 . S
C90 Eu91 2.835 . S
C90 C92 1.500 . S
C90 O106 1.257 1_556 S
C90 O107 1.260 . S
Eu91 C90 2.835 . S
Eu91 O103 2.355 1_556 S
Eu91 O105 2.374 1_566 S
Eu91 O106 2.473 1_556 S
Eu91 O107 2.480 . S
Eu91 O108 2.430 . S
Eu91 O109 2.670 1_565 S
Eu91 O110 2.394 . S
C92 C90 1.500 . S
C92 C93 1.377 . S
C92 C97 1.377 1_556 S
C93 C92 1.377 . S
C93 C94 1.395 . S
C93 H116 0.931 . S
C94 C93 1.395 . S
C94 C95 1.383 . S
C94 H117 0.931 . S
C95 C94 1.383 . S
C95 C96 1.394 1_556 S
C96 C95 1.394 1_554 S
C96 C97 1.378 . S
C96 H118 0.931 . S
C97 C92 1.377 1_554 S
C97 C96 1.378 . S
C97 H119 0.931 . S
C98 O108 1.259 1_545 S
C98 O109 1.270 . S
C99 O110 1.251 . S
C99 O111 1.251 . S
O100 C80 1.257 1_556 S
O100 Eu81 2.473 1_556 S
O101 C80 1.260 . S
O101 Eu81 2.480 . S
O102 Eu81 2.430 . S
O102 C88 1.259 . S
O103 Eu81 2.670 1_565 S
O103 C88 1.270 1_565 S
O103 Eu91 2.355 1_554 S
O104 Eu81 2.394 . S
O104 C89 1.251 . S
O105 C89 1.251 . S
O105 Eu91 2.374 1_544 S
O106 C90 1.257 1_554 S
O106 Eu91 2.473 1_554 S
O107 C90 1.260 . S
O107 Eu91 2.480 . S
O108 Eu91 2.430 . S
O108 C98 1.259 1_565 S
O109 Eu81 2.355 1_556 S
O109 Eu91 2.670 1_545 S
O109 C98 1.270 . S
O110 Eu91 2.394 . S
O110 C99 1.251 . S
O111 Eu81 2.374 1_566 S
O111 C99 1.251 . S
H112 C83 0.931 . S
H113 C84 0.931 . S
H114 C86 0.931 . S
H115 C87 0.931 . S
H116 C93 0.931 . S
H117 C94 0.931 . S
H118 C96 0.931 . S
H119 C97 0.931 . S
C120 Eu121 2.835 . S
C120 C122 1.500 . S
C120 O140 1.257 . S
C120 O141 1.260 . S
Eu121 C120 2.835 . S
Eu121 O140 2.473 . S
Eu121 O141 2.480 . S
Eu121 O142 2.430 . S
Eu121 O143 2.670 . S
Eu121 O144 2.394 . S
Eu121 O149 2.355 . S
Eu121 O151 2.374 . S
C122 C120 1.500 . S
C122 C123 1.377 . S
C122 C127 1.377 . S
C123 C122 1.377 . S
C123 C124 1.395 . S
C123 H152 0.931 . S
C124 C123 1.395 . S
C124 C125 1.383 . S
C124 H153 0.931 . S
C125 C124 1.383 . S
C125 C126 1.394 . S
C126 C125 1.394 . S
C126 C127 1.378 . S
C126 H154 0.931 . S
C127 C122 1.377 . S
C127 C126 1.378 . S
C127 H155 0.931 . S
C128 O142 1.259 . S
C128 O143 1.270 . S
C129 O144 1.251 . S
C129 O145 1.251 . S
C130 Eu131 2.835 . S
C130 C132 1.500 . S
C130 O146 1.257 . S
C130 O147 1.260 . S
Eu131 C130 2.835 . S
Eu131 O143 2.355 . S
Eu131 O145 2.374 . S
Eu131 O146 2.473 . S
Eu131 O147 2.480 . S
Eu131 O148 2.430 . S
Eu131 O149 2.670 . S
Eu131 O150 2.394 . S
C132 C130 1.500 . S
C132 C133 1.377 . S
C132 C137 1.377 . S
C133 C132 1.377 . S
C133 C134 1.395 . S
C133 H156 0.931 . S
C134 C133 1.395 . S
C134 C135 1.383 . S
C134 H157 0.931 1_565 S
C135 C134 1.383 . S
C135 C136 1.394 . S
C136 C135 1.394 . S
C136 C137 1.378 . S
C136 H158 0.931 . S
C137 C132 1.377 . S
C137 C136 1.378 . S
C137 H159 0.931 . S
C138 O148 1.259 . S
C138 O149 1.270 . S
C139 O150 1.251 . S
C139 O151 1.251 . S
O140 C120 1.257 . S
O140 Eu121 2.473 . S
O141 C120 1.260 . S
O141 Eu121 2.480 . S
O142 Eu121 2.430 . S
O142 C128 1.259 . S
O143 Eu121 2.670 . S
O143 C128 1.270 . S
O143 Eu131 2.355 . S
O144 Eu121 2.394 . S
O144 C129 1.251 . S
O145 C129 1.251 . S
O145 Eu131 2.374 . S
O146 C130 1.257 . S
O146 Eu131 2.473 . S
O147 C130 1.260 . S
O147 Eu131 2.480 . S
O148 Eu131 2.430 . S
O148 C138 1.259 . S
O149 Eu121 2.355 . S
O149 Eu131 2.670 . S
O149 C138 1.270 . S
O150 Eu131 2.394 . S
O150 C139 1.251 . S
O151 Eu121 2.374 . S
O151 C139 1.251 . S
H152 C123 0.931 . S
H153 C124 0.931 . S
H154 C126 0.931 . S
H155 C127 0.931 . S
H156 C133 0.931 . S
H157 C134 0.931 1_545 S
H158 C136 0.931 . S
H159 C137 0.931 . S
C160 Eu161 2.835 . S
C160 C162 1.500 . S
C160 O180 1.257 . S
C160 O181 1.260 . S
Eu161 C160 2.835 . S
Eu161 O180 2.473 . S
Eu161 O181 2.480 . S
Eu161 O182 2.430 . S
Eu161 O183 2.670 . S
Eu161 O184 2.394 . S
Eu161 O189 2.355 . S
Eu161 O191 2.374 . S
C162 C160 1.500 . S
C162 C163 1.377 . S
C162 C167 1.377 . S
C163 C162 1.377 . S
C163 C164 1.395 . S
C163 H192 0.931 . S
C164 C163 1.395 . S
C164 C165 1.383 . S
C164 H193 0.931 . S
C165 C164 1.383 . S
C165 C166 1.394 . S
C166 C165 1.394 . S
C166 C167 1.378 . S
C166 H194 0.931 . S
C167 C162 1.377 . S
C167 C166 1.378 . S
C167 H195 0.931 . S
C168 O182 1.259 . S
C168 O183 1.270 . S
C169 O184 1.251 . S
C169 O185 1.251 . S
C170 Eu171 2.835 . S
C170 C172 1.500 . S
C170 O186 1.257 . S
C170 O187 1.260 . S
Eu171 C170 2.835 . S
Eu171 O183 2.355 . S
Eu171 O185 2.374 . S
Eu171 O186 2.473 . S
Eu171 O187 2.480 . S
Eu171 O188 2.430 . S
Eu171 O189 2.670 . S
Eu171 O190 2.394 . S
C172 C170 1.500 . S
C172 C173 1.377 . S
C172 C177 1.377 . S
C173 C172 1.377 . S
C173 C174 1.395 . S
C173 H196 0.931 . S
C174 C173 1.395 . S
C174 C175 1.383 . S
C174 H197 0.931 . S
C175 C174 1.383 . S
C175 C176 1.394 . S
C176 C175 1.394 . S
C176 C177 1.378 . S
C176 H198 0.931 . S
C177 C172 1.377 . S
C177 C176 1.378 . S
C177 H199 0.931 . S
C178 O188 1.259 . S
C178 O189 1.270 . S
C179 O190 1.251 . S
C179 O191 1.251 . S
O180 C160 1.257 . S
O180 Eu161 2.473 . S
O181 C160 1.260 . S
O181 Eu161 2.480 . S
O182 Eu161 2.430 . S
O182 C168 1.259 . S
O183 Eu161 2.670 . S
O183 C168 1.270 . S
O183 Eu171 2.355 . S
O184 Eu161 2.394 . S
O184 C169 1.251 . S
O185 C169 1.251 . S
O185 Eu171 2.374 . S
O186 C170 1.257 . S
O186 Eu171 2.473 . S
O187 C170 1.260 . S
O187 Eu171 2.480 . S
O188 Eu171 2.430 . S
O188 C178 1.259 . S
O189 Eu161 2.355 . S
O189 Eu171 2.670 . S
O189 C178 1.270 . S
O190 Eu171 2.394 . S
O190 C179 1.251 . S
O191 Eu161 2.374 . S
O191 C179 1.251 . S
H192 C163 0.931 . S
H193 C164 0.931 . S
H194 C166 0.931 . S
H195 C167 0.931 . S
H196 C173 0.931 . S
H197 C174 0.931 . S
H198 C176 0.931 . S
H199 C177 0.931 . S
C200 Eu201 2.835 . S
C200 C202 1.500 . S
C200 O220 1.257 . S
C200 O221 1.260 . S
Eu201 C200 2.835 . S
Eu201 O220 2.473 . S
Eu201 O221 2.480 . S
Eu201 O222 2.430 . S
Eu201 O223 2.670 . S
Eu201 O224 2.394 . S
Eu201 O229 2.355 . S
Eu201 O231 2.374 . S
C202 C200 1.500 . S
C202 C203 1.377 . S
C202 C207 1.377 . S
C203 C202 1.377 . S
C203 C204 1.395 . S
C203 H232 0.931 . S
C204 C203 1.395 . S
C204 C205 1.383 . S
C204 H233 0.931 . S
C205 C204 1.383 . S
C205 C206 1.394 . S
C206 C205 1.394 . S
C206 C207 1.378 . S
C206 H234 0.931 . S
C207 C202 1.377 . S
C207 C206 1.378 . S
C207 H235 0.931 . S
C208 O222 1.259 . S
C208 O223 1.270 . S
C209 O224 1.251 . S
C209 O225 1.251 . S
C210 Eu211 2.835 . S
C210 C212 1.500 . S
C210 O226 1.257 . S
C210 O227 1.260 . S
Eu211 C210 2.835 . S
Eu211 O223 2.355 . S
Eu211 O225 2.374 . S
Eu211 O226 2.473 . S
Eu211 O227 2.480 . S
Eu211 O228 2.430 . S
Eu211 O229 2.670 . S
Eu211 O230 2.394 . S
C212 C210 1.500 . S
C212 C213 1.377 . S
C212 C217 1.377 . S
C213 C212 1.377 . S
C213 C214 1.395 . S
C213 H236 0.931 . S
C214 C213 1.395 . S
C214 C215 1.383 . S
C214 H237 0.931 . S
C215 C214 1.383 . S
C215 C216 1.394 . S
C216 C215 1.394 . S
C216 C217 1.378 . S
C216 H238 0.931 . S
C217 C212 1.377 . S
C217 C216 1.378 . S
C217 H239 0.931 . S
C218 O228 1.259 . S
C218 O229 1.270 . S
C219 O230 1.251 . S
C219 O231 1.251 . S
O220 C200 1.257 . S
O220 Eu201 2.473 . S
O221 C200 1.260 . S
O221 Eu201 2.480 . S
O222 Eu201 2.430 . S
O222 C208 1.259 . S
O223 Eu201 2.670 . S
O223 C208 1.270 . S
O223 Eu211 2.355 . S
O224 Eu201 2.394 . S
O224 C209 1.251 . S
O225 C209 1.251 . S
O225 Eu211 2.374 . S
O226 C210 1.257 . S
O226 Eu211 2.473 . S
O227 C210 1.260 . S
O227 Eu211 2.480 . S
O228 Eu211 2.430 . S
O228 C218 1.259 . S
O229 Eu201 2.355 . S
O229 Eu211 2.670 . S
O229 C218 1.270 . S
O230 Eu211 2.394 . S
O230 C219 1.251 . S
O231 Eu201 2.374 . S
O231 C219 1.251 . S
H232 C203 0.931 . S
H233 C204 0.931 . S
H234 C206 0.931 . S
H235 C207 0.931 . S
H236 C213 0.931 . S
H237 C214 0.931 . S
H238 C216 0.931 . S
H239 C217 0.931 . S
C240 Eu241 2.835 . S
C240 C242 1.500 1_545 S
C240 O260 1.257 . S
C240 O261 1.260 . S
Eu241 C240 2.835 . S
Eu241 O260 2.473 . S
Eu241 O261 2.480 . S
Eu241 O262 2.430 . S
Eu241 O263 2.670 . S
Eu241 O264 2.394 . S
Eu241 O269 2.355 . S
Eu241 O271 2.374 . S
C242 C240 1.500 1_565 S
C242 C243 1.377 . S
C242 C247 1.377 . S
C243 C242 1.377 . S
C243 C244 1.395 . S
C243 H272 0.931 . S
C244 C243 1.395 . S
C244 C245 1.383 . S
C244 H273 0.931 . S
C245 C244 1.383 . S
C245 C246 1.394 . S
C246 C245 1.394 . S
C246 C247 1.378 . S
C246 H274 0.931 . S
C247 C242 1.377 . S
C247 C246 1.378 . S
C247 H275 0.931 . S
C248 O262 1.259 . S
C248 O263 1.270 . S
C249 O264 1.251 . S
C249 O265 1.251 . S
C250 Eu251 2.835 . S
C250 C252 1.500 . S
C250 O266 1.257 . S
C250 O267 1.260 . S
Eu251 C250 2.835 . S
Eu251 O263 2.355 . S
Eu251 O265 2.374 . S
Eu251 O266 2.473 . S
Eu251 O267 2.480 . S
Eu251 O268 2.430 . S
Eu251 O269 2.670 . S
Eu251 O270 2.394 . S
C252 C250 1.500 . S
C252 C253 1.377 . S
C252 C257 1.377 . S
C253 C252 1.377 . S
C253 C254 1.395 . S
C253 H276 0.931 . S
C254 C253 1.395 . S
C254 C255 1.383 . S
C254 H277 0.931 . S
C255 C254 1.383 . S
C255 C256 1.394 . S
C256 C255 1.394 . S
C256 C257 1.378 . S
C256 H278 0.931 . S
C257 C252 1.377 . S
C257 C256 1.378 . S
C257 H279 0.931 . S
C258 O268 1.259 . S
C258 O269 1.270 . S
C259 O270 1.251 . S
C259 O271 1.251 . S
O260 C240 1.257 . S
O260 Eu241 2.473 . S
O261 C240 1.260 . S
O261 Eu241 2.480 . S
O262 Eu241 2.430 . S
O262 C248 1.259 . S
O263 Eu241 2.670 . S
O263 C248 1.270 . S
O263 Eu251 2.355 . S
O264 Eu241 2.394 . S
O264 C249 1.251 . S
O265 C249 1.251 . S
O265 Eu251 2.374 . S
O266 C250 1.257 . S
O266 Eu251 2.473 . S
O267 C250 1.260 . S
O267 Eu251 2.480 . S
O268 Eu251 2.430 . S
O268 C258 1.259 . S
O269 Eu241 2.355 . S
O269 Eu251 2.670 . S
O269 C258 1.270 . S
O270 Eu251 2.394 . S
O270 C259 1.251 . S
O271 Eu241 2.374 . S
O271 C259 1.251 . S
H272 C243 0.931 . S
H273 C244 0.931 . S
H274 C246 0.931 . S
H275 C247 0.931 . S
H276 C253 0.931 . S
H277 C254 0.931 . S
H278 C256 0.931 . S
H279 C257 0.931 . S
C280 Eu281 2.835 1_455 S
C280 C282 1.500 . S
C280 O300 1.257 1_455 S
C280 O301 1.260 1_455 S
Eu281 C280 2.835 1_655 S
Eu281 O300 2.473 . S
Eu281 O301 2.480 . S
Eu281 O302 2.430 . S
Eu281 O303 2.670 . S
Eu281 O304 2.394 . S
Eu281 O309 2.355 . S
Eu281 O311 2.374 . S
C282 C280 1.500 . S
C282 C283 1.377 . S
C282 C287 1.377 . S
C283 C282 1.377 . S
C283 C284 1.395 . S
C283 H312 0.931 . S
C284 C283 1.395 . S
C284 C285 1.383 . S
C284 H313 0.931 . S
C285 C284 1.383 . S
C285 C286 1.394 . S
C286 C285 1.394 . S
C286 C287 1.378 . S
C286 H314 0.931 . S
C287 C282 1.377 . S
C287 C286 1.378 . S
C287 H315 0.931 . S
C288 O302 1.259 . S
C288 O303 1.270 . S
C289 O304 1.251 . S
C289 O305 1.251 . S
C290 Eu291 2.835 . S
C290 C292 1.500 . S
C290 O306 1.257 . S
C290 O307 1.260 . S
Eu291 C290 2.835 . S
Eu291 O303 2.355 . S
Eu291 O305 2.374 . S
Eu291 O306 2.473 . S
Eu291 O307 2.480 . S
Eu291 O308 2.430 . S
Eu291 O309 2.670 . S
Eu291 O310 2.394 . S
C292 C290 1.500 . S
C292 C293 1.377 . S
C292 C297 1.377 . S
C293 C292 1.377 . S
C293 C294 1.395 . S
C293 H316 0.931 . S
C294 C293 1.395 . S
C294 C295 1.383 . S
C294 H317 0.931 . S
C295 C294 1.383 . S
C295 C296 1.394 . S
C296 C295 1.394 . S
C296 C297 1.378 . S
C296 H318 0.931 . S
C297 C292 1.377 . S
C297 C296 1.378 . S
C297 H319 0.931 . S
C298 O308 1.259 . S
C298 O309 1.270 . S
C299 O310 1.251 . S
C299 O311 1.251 . S
O300 C280 1.257 1_655 S
O300 Eu281 2.473 . S
O301 C280 1.260 1_655 S
O301 Eu281 2.480 . S
O302 Eu281 2.430 . S
O302 C288 1.259 . S
O303 Eu281 2.670 . S
O303 C288 1.270 . S
O303 Eu291 2.355 . S
O304 Eu281 2.394 . S
O304 C289 1.251 . S
O305 C289 1.251 . S
O305 Eu291 2.374 . S
O306 C290 1.257 . S
O306 Eu291 2.473 . S
O307 C290 1.260 . S
O307 Eu291 2.480 . S
O308 Eu291 2.430 . S
O308 C298 1.259 . S
O309 Eu281 2.355 . S
O309 Eu291 2.670 . S
O309 C298 1.270 . S
O310 Eu291 2.394 . S
O310 C299 1.251 . S
O311 Eu281 2.374 . S
O311 C299 1.251 . S
H312 C283 0.931 . S
H313 C284 0.931 . S
H314 C286 0.931 . S
H315 C287 0.931 . S
H316 C293 0.931 . S
H317 C294 0.931 . S
H318 C296 0.931 . S
H319 C297 0.931 . S
C320 Eu321 2.835 . S
C320 C322 1.500 . S
C320 O340 1.257 . S
C320 O341 1.260 . S
Eu321 C320 2.835 . S
Eu321 O340 2.473 . S
Eu321 O341 2.480 . S
Eu321 O342 2.430 . S
Eu321 O343 2.670 . S
Eu321 O344 2.394 . S
Eu321 O349 2.355 . S
Eu321 O351 2.374 . S
C322 C320 1.500 . S
C322 C323 1.377 . S
C322 C327 1.377 . S
C323 C322 1.377 . S
C323 C324 1.395 . S
C323 H352 0.931 . S
C324 C323 1.395 . S
C324 C325 1.383 . S
C324 H353 0.931 . S
C325 C324 1.383 . S
C325 C326 1.394 . S
C326 C325 1.394 . S
C326 C327 1.378 . S
C326 H354 0.931 . S
C327 C322 1.377 . S
C327 C326 1.378 . S
C327 H355 0.931 . S
C328 O342 1.259 . S
C328 O343 1.270 . S
C329 O344 1.251 . S
C329 O345 1.251 . S
C330 Eu331 2.835 . S
C330 C332 1.500 . S
C330 O346 1.257 . S
C330 O347 1.260 . S
Eu331 C330 2.835 . S
Eu331 O343 2.355 . S
Eu331 O345 2.374 . S
Eu331 O346 2.473 . S
Eu331 O347 2.480 . S
Eu331 O348 2.430 . S
Eu331 O349 2.670 . S
Eu331 O350 2.394 . S
C332 C330 1.500 . S
C332 C333 1.377 . S
C332 C337 1.377 . S
C333 C332 1.377 . S
C333 C334 1.395 . S
C333 H356 0.931 . S
C334 C333 1.395 . S
C334 C335 1.383 . S
C334 H357 0.931 . S
C335 C334 1.383 . S
C335 C336 1.394 . S
C336 C335 1.394 . S
C336 C337 1.378 . S
C336 H358 0.931 . S
C337 C332 1.377 . S
C337 C336 1.378 . S
C337 H359 0.931 . S
C338 O348 1.259 . S
C338 O349 1.270 . S
C339 O350 1.251 . S
C339 O351 1.251 . S
O340 C320 1.257 . S
O340 Eu321 2.473 . S
O341 C320 1.260 . S
O341 Eu321 2.480 . S
O342 Eu321 2.430 . S
O342 C328 1.259 . S
O343 Eu321 2.670 . S
O343 C328 1.270 . S
O343 Eu331 2.355 . S
O344 Eu321 2.394 . S
O344 C329 1.251 . S
O345 C329 1.251 . S
O345 Eu331 2.374 . S
O346 C330 1.257 . S
O346 Eu331 2.473 . S
O347 C330 1.260 . S
O347 Eu331 2.480 . S
O348 Eu331 2.430 . S
O348 C338 1.259 . S
O349 Eu321 2.355 . S
O349 Eu331 2.670 . S
O349 C338 1.270 . S
O350 Eu331 2.394 . S
O350 C339 1.251 . S
O351 Eu321 2.374 . S
O351 C339 1.251 . S
H352 C323 0.931 . S
H353 C324 0.931 . S
H354 C326 0.931 . S
H355 C327 0.931 . S
H356 C333 0.931 . S
H357 C334 0.931 . S
H358 C336 0.931 . S
H359 C337 0.931 . S
H360 C368 0.950 . S
H361 C373 0.950 . S
H362 C370 0.950 . S
H363 C372 0.950 . S
H364 C374 0.950 . S
H365 C376 0.950 . S
H366 C378 0.950 . S
H367 C379 0.950 . S
C368 H360 0.950 . S
C368 C369 1.386 . S
C368 C370 1.391 . S
C369 C368 1.386 . S
C369 C373 1.393 1_556 S
C370 H362 0.950 . S
C370 C368 1.391 . S
C370 C371 1.400 . S
C371 C370 1.400 . S
C371 C372 1.398 1_556 S
C371 C377 1.491 . S
C372 H363 0.950 . S
C372 C371 1.398 1_554 S
C372 C373 1.391 . S
C373 H361 0.950 . S
C373 C369 1.393 1_554 S
C373 C372 1.391 . S
C374 H364 0.950 . S
C374 C375 1.386 1_554 S
C374 C376 1.391 . S
C375 C374 1.386 1_556 S
C375 C379 1.393 . S
C376 H365 0.950 . S
C376 C374 1.391 . S
C376 C377 1.400 1_554 S
C377 C371 1.491 . S
C377 C376 1.400 1_556 S
C377 C378 1.398 . S
C378 H366 0.950 . S
C378 C377 1.398 . S
C378 C379 1.391 . S
C379 H367 0.950 . S
C379 C375 1.393 . S
C379 C378 1.391 . S
H380 C388 0.950 . S
H381 C393 0.950 . S
H382 C390 0.950 . S
H383 C392 0.950 . S
H384 C394 0.950 . S
H385 C396 0.950 . S
H386 C398 0.950 . S
H387 C399 0.950 . S
C388 H380 0.950 . S
C388 C389 1.386 . S
C388 C390 1.391 . S
C389 C388 1.386 . S
C389 C393 1.393 1_556 S
C390 H382 0.950 . S
C390 C388 1.391 . S
C390 C391 1.400 . S
C391 C390 1.400 . S
C391 C392 1.398 1_556 S
C391 C397 1.491 . S
C392 H383 0.950 . S
C392 C391 1.398 1_554 S
C392 C393 1.391 . S
C393 H381 0.950 . S
C393 C389 1.393 1_554 S
C393 C392 1.391 . S
C394 H384 0.950 . S
C394 C395 1.386 1_554 S
C394 C396 1.391 . S
C395 C394 1.386 1_556 S
C395 C399 1.393 . S
C396 H385 0.950 . S
C396 C394 1.391 . S
C396 C397 1.400 1_554 S
C397 C391 1.491 . S
C397 C396 1.400 1_556 S
C397 C398 1.398 . S
C398 H386 0.950 . S
C398 C397 1.398 . S
C398 C399 1.391 . S
C399 H387 0.950 . S
C399 C395 1.393 . S
C399 C398 1.391 . S
H400 C408 0.950 . S
H401 C413 0.947 1_554 S
H402 C410 0.950 . S
H403 C412 0.947 1_554 S
H404 C414 0.950 . S
H405 C416 0.950 . S
H406 C418 0.950 . S
H407 C419 0.950 . S
C408 H400 0.950 . S
C408 C409 1.386 . S
C408 C410 1.391 . S
C409 C408 1.386 . S
C409 C413 1.393 . S
C410 H402 0.950 . S
C410 C408 1.391 . S
C410 C411 1.400 . S
C411 C410 1.400 . S
C411 C412 1.398 . S
C411 C417 1.491 . S
C412 H403 0.947 1_556 S
C412 C411 1.398 . S
C412 C413 1.391 . S
C413 H401 0.947 1_556 S
C413 C409 1.393 . S
C413 C412 1.391 . S
C414 H404 0.950 . S
C414 C415 1.386 1_554 S
C414 C416 1.391 . S
C415 C414 1.386 1_556 S
C415 C419 1.393 . S
C416 H405 0.950 . S
C416 C414 1.391 . S
C416 C417 1.400 1_554 S
C417 C411 1.491 . S
C417 C416 1.400 1_556 S
C417 C418 1.398 . S
C418 H406 0.950 . S
C418 C417 1.398 . S
C418 C419 1.391 . S
C419 H407 0.950 . S
C419 C415 1.393 . S
C419 C418 1.391 . S
H420 C428 0.950 . S
H421 C433 0.950 . S
H422 C430 0.950 . S
H423 C432 0.950 . S
H424 C434 0.950 . S
H425 C436 0.950 . S
H426 C438 0.950 . S
H427 C439 0.950 . S
C428 H420 0.950 . S
C428 C429 1.386 . S
C428 C430 1.391 . S
C429 C428 1.386 . S
C429 C433 1.393 1_554 S
C430 H422 0.950 . S
C430 C428 1.391 . S
C430 C431 1.400 . S
C431 C430 1.400 . S
C431 C432 1.398 1_554 S
C431 C437 1.491 . S
C432 H423 0.950 . S
C432 C431 1.398 1_556 S
C432 C433 1.391 . S
C433 H421 0.950 . S
C433 C429 1.393 1_556 S
C433 C432 1.391 . S
C434 H424 0.950 . S
C434 C435 1.386 1_556 S
C434 C436 1.391 . S
C435 C434 1.386 1_554 S
C435 C439 1.393 . S
C436 H425 0.950 . S
C436 C434 1.391 . S
C436 C437 1.400 1_556 S
C437 C431 1.491 . S
C437 C436 1.400 1_554 S
C437 C438 1.398 . S
C438 H426 0.950 . S
C438 C437 1.398 . S
C438 C439 1.391 . S
C439 H427 0.950 . S
C439 C435 1.393 . S
C439 C438 1.391 . S
H440 C448 0.950 . S
H441 C453 0.950 . S
H442 C450 0.950 . S
H443 C452 0.950 . S
H444 C454 0.950 . S
H445 C456 0.950 . S
H446 C458 0.950 . S
H447 C459 0.950 . S
C448 H440 0.950 . S
C448 C449 1.386 . S
C448 C450 1.391 . S
C449 C448 1.386 . S
C449 C453 1.393 1_554 S
C450 H442 0.950 . S
C450 C448 1.391 . S
C450 C451 1.400 . S
C451 C450 1.400 . S
C451 C452 1.398 1_554 S
C451 C457 1.491 . S
C452 H443 0.950 . S
C452 C451 1.398 1_556 S
C452 C453 1.391 . S
C453 H441 0.950 . S
C453 C449 1.393 1_556 S
C453 C452 1.391 . S
C454 H444 0.950 . S
C454 C455 1.386 1_556 S
C454 C456 1.391 . S
C455 C454 1.386 1_554 S
C455 C459 1.393 . S
C456 H445 0.950 . S
C456 C454 1.391 . S
C456 C457 1.400 1_556 S
C457 C451 1.491 . S
C457 C456 1.400 1_554 S
C457 C458 1.398 . S
C458 H446 0.950 . S
C458 C457 1.398 . S
C458 C459 1.391 . S
C459 H447 0.950 . S
C459 C455 1.393 . S
C459 C458 1.391 . S
H460 C468 0.950 . S
H461 C473 0.956 . S
H462 C470 0.950 . S
H463 C472 0.954 . S
H464 C474 0.955 . S
H465 C476 0.946 1_556 S
H466 C478 0.950 . S
H467 C479 0.950 . S
C468 H460 0.950 . S
C468 C469 1.386 . S
C468 C470 1.391 . S
C469 C468 1.386 . S
C469 C473 1.393 . S
C470 H462 0.950 . S
C470 C468 1.391 . S
C470 C471 1.400 . S
C471 C470 1.400 . S
C471 C472 1.398 . S
C471 C477 1.491 . S
C472 H463 0.954 . S
C472 C471 1.398 . S
C472 C473 1.391 . S
C473 H461 0.956 . S
C473 C469 1.393 . S
C473 C472 1.391 . S
C474 H464 0.955 . S
C474 C475 1.381 1_556 S
C474 C476 1.390 1_556 S
C475 C474 1.381 1_554 S
C475 C479 1.393 . S
C476 H465 0.946 1_554 S
C476 C474 1.390 1_554 S
C476 C477 1.405 . S
C477 C471 1.491 . S
C477 C476 1.405 . S
C477 C478 1.398 . S
C478 H466 0.950 . S
C478 C477 1.398 . S
C478 C479 1.391 . S
C479 H467 0.950 . S
C479 C475 1.393 . S
C479 C478 1.391 . S
H480 C488 0.950 . S
H481 C493 0.950 . S
H482 C490 0.950 . S
H483 C492 0.950 . S
H484 C494 0.950 . S
H485 C496 0.950 . S
H486 C498 0.950 . S
H487 C499 0.950 . S
C488 H480 0.950 . S
C488 C489 1.386 . S
C488 C490 1.391 . S
C489 C488 1.386 . S
C489 C493 1.393 . S
C490 H482 0.950 . S
C490 C488 1.391 . S
C490 C491 1.400 . S
C491 C490 1.400 . S
C491 C492 1.398 . S
C491 C497 1.491 . S
C492 H483 0.950 . S
C492 C491 1.398 . S
C492 C493 1.391 . S
C493 H481 0.950 . S
C493 C489 1.393 . S
C493 C492 1.391 . S
C494 H484 0.950 . S
C494 C495 1.386 . S
C494 C496 1.391 . S
C495 C494 1.386 . S
C495 C499 1.393 . S
C496 H485 0.950 . S
C496 C494 1.391 . S
C496 C497 1.400 . S
C497 C491 1.491 . S
C497 C496 1.400 . S
C497 C498 1.398 . S
C498 H486 0.950 . S
C498 C497 1.398 . S
C498 C499 1.391 . S
C499 H487 0.950 . S
C499 C495 1.393 . S
C499 C498 1.391 . S
H500 C508 0.950 . S
H501 C513 0.950 . S
H502 C510 0.950 . S
H503 C512 0.950 . S
H504 C514 0.950 . S
H505 C516 0.950 . S
H506 C518 0.950 . S
H507 C519 0.950 . S
C508 H500 0.950 . S
C508 C509 1.386 . S
C508 C510 1.391 . S
C509 C508 1.386 . S
C509 C513 1.393 . S
C510 H502 0.950 . S
C510 C508 1.391 . S
C510 C511 1.400 . S
C511 C510 1.400 . S
C511 C512 1.398 . S
C511 C517 1.491 . S
C512 H503 0.950 . S
C512 C511 1.398 . S
C512 C513 1.391 . S
C513 H501 0.950 . S
C513 C509 1.393 . S
C513 C512 1.391 . S
C514 H504 0.950 . S
C514 C515 1.386 . S
C514 C516 1.391 . S
C515 C514 1.386 . S
C515 C519 1.393 1_565 S
C516 H505 0.950 . S
C516 C514 1.391 . S
C516 C517 1.400 1_565 S
C517 C511 1.491 . S
C517 C516 1.400 1_545 S
C517 C518 1.398 . S
C518 H506 0.950 . S
C518 C517 1.398 . S
C518 C519 1.391 . S
C519 H507 0.950 . S
C519 C515 1.393 1_545 S
C519 C518 1.391 . S
H520 C528 0.958 . S
H521 C533 0.950 . S
H522 C530 0.950 . S
H523 C532 0.950 . S
H524 C534 0.950 . S
H525 C536 0.950 . S
H526 C538 0.950 . S
H527 C539 0.950 . S
C528 H520 0.958 . S
C528 C529 1.377 1_655 S
C528 C530 1.393 . S
C529 C528 1.377 1_455 S
C529 C533 1.393 . S
C530 H522 0.950 . S
C530 C528 1.393 . S
C530 C531 1.400 . S
C531 C530 1.400 . S
C531 C532 1.398 1_655 S
C531 C537 1.491 . S
C532 H523 0.950 . S
C532 C531 1.398 1_455 S
C532 C533 1.391 . S
C533 H521 0.950 . S
C533 C529 1.393 . S
C533 C532 1.391 . S
C534 H524 0.950 . S
C534 C535 1.386 . S
C534 C536 1.391 . S
C535 C534 1.386 . S
C535 C539 1.393 . S
C536 H525 0.950 . S
C536 C534 1.391 . S
C536 C537 1.400 . S
C537 C531 1.491 . S
C537 C536 1.400 . S
C537 C538 1.398 . S
C538 H526 0.950 . S
C538 C537 1.398 . S
C538 C539 1.391 . S
C539 H527 0.950 . S
C539 C535 1.393 . S
C539 C538 1.391 . S
H540 C548 0.950 . S
H541 C553 0.950 . S
H542 C550 0.950 . S
H543 C552 0.950 . S
H544 C554 0.950 . S
H545 C556 0.950 . S
H546 C558 0.950 . S
H547 C559 0.950 . S
C548 H540 0.950 . S
C548 C549 1.386 . S
C548 C550 1.391 . S
C549 C548 1.386 . S
C549 C553 1.393 . S
C550 H542 0.950 . S
C550 C548 1.391 . S
C550 C551 1.400 . S
C551 C550 1.400 . S
C551 C552 1.398 . S
C551 C557 1.491 . S
C552 H543 0.950 . S
C552 C551 1.398 . S
C552 C553 1.391 . S
C553 H541 0.950 . S
C553 C549 1.393 . S
C553 C552 1.391 . S
C554 H544 0.950 . S
C554 C555 1.386 . S
C554 C556 1.391 . S
C555 C554 1.386 . S
C555 C559 1.393 . S
C556 H545 0.950 . S
C556 C554 1.391 . S
C556 C557 1.400 . S
C557 C551 1.491 . S
C557 C556 1.400 . S
C557 C558 1.398 . S
C558 H546 0.950 . S
C558 C557 1.398 . S
C558 C559 1.391 . S
C559 H547 0.950 . S
C559 C555 1.393 . S
C559 C558 1.391 . S
H560 C568 0.950 . S
H561 C573 0.950 . S
H562 C570 0.950 . S
H563 C572 0.950 . S
H564 C574 0.950 . S
H565 C576 0.950 . S
H566 C578 0.950 . S
H567 C579 0.950 . S
C568 H560 0.950 . S
C568 C569 1.386 . S
C568 C570 1.391 . S
C569 C568 1.386 . S
C569 C573 1.393 . S
C570 H562 0.950 . S
C570 C568 1.391 . S
C570 C571 1.400 . S
C571 C570 1.400 . S
C571 C572 1.398 . S
C571 C577 1.491 . S
C572 H563 0.950 . S
C572 C571 1.398 . S
C572 C573 1.391 . S
C573 H561 0.950 . S
C573 C569 1.393 . S
C573 C572 1.391 . S
C574 H564 0.950 . S
C574 C575 1.386 . S
C574 C576 1.391 . S
C575 C574 1.386 . S
C575 C579 1.393 . S
C576 H565 0.950 . S
C576 C574 1.391 . S
C576 C577 1.400 . S
C577 C571 1.491 . S
C577 C576 1.400 . S
C577 C578 1.398 . S
C578 H566 0.950 . S
C578 C577 1.398 . S
C578 C579 1.391 . S
C579 H567 0.950 . S
C579 C575 1.393 . S
C579 C578 1.391 . S
H580 C588 0.950 . S
H581 C593 0.950 . S
H582 C590 0.950 . S
H583 C592 0.950 . S
H584 C594 0.950 . S
H585 C596 0.950 . S
H586 C598 0.950 . S
H587 C599 0.950 . S
C588 H580 0.950 . S
C588 C589 1.386 . S
C588 C590 1.391 . S
C589 C588 1.386 . S
C589 C593 1.393 . S
C590 H582 0.950 . S
C590 C588 1.391 . S
C590 C591 1.400 . S
C591 C590 1.400 . S
C591 C592 1.398 . S
C591 C597 1.491 . S
C592 H583 0.950 . S
C592 C591 1.398 . S
C592 C593 1.391 . S
C593 H581 0.950 . S
C593 C589 1.393 . S
C593 C592 1.391 . S
C594 H584 0.950 . S
C594 C595 1.386 . S
C594 C596 1.391 . S
C595 C594 1.386 . S
C595 C599 1.393 . S
C596 H585 0.950 . S
C596 C594 1.391 . S
C596 C597 1.400 . S
C597 C591 1.491 . S
C597 C596 1.400 . S
C597 C598 1.398 . S
C598 H586 0.950 . S
C598 C597 1.398 . S
C598 C599 1.391 . S
C599 H587 0.950 . S
C599 C595 1.393 . S
C599 C598 1.391 . S
H600 C608 0.950 . S
H601 C613 0.950 . S
H602 C610 0.950 . S
H603 C612 0.950 . S
H604 C614 0.950 . S
H605 C616 0.950 . S
H606 C618 0.950 . S
H607 C619 0.950 . S
C608 H600 0.950 . S
C608 C609 1.386 . S
C608 C610 1.391 . S
C609 C608 1.386 . S
C609 C613 1.393 . S
C610 H602 0.950 . S
C610 C608 1.391 . S
C610 C611 1.400 . S
C611 C610 1.400 . S
C611 C612 1.398 . S
C611 C617 1.491 . S
C612 H603 0.950 . S
C612 C611 1.398 . S
C612 C613 1.391 . S
C613 H601 0.950 . S
C613 C609 1.393 . S
C613 C612 1.391 . S
C614 H604 0.950 . S
C614 C615 1.386 . S
C614 C616 1.391 . S
C615 C614 1.386 . S
C615 C619 1.393 . S
C616 H605 0.950 . S
C616 C614 1.391 . S
C616 C617 1.400 . S
C617 C611 1.491 . S
C617 C616 1.400 . S
C617 C618 1.398 . S
C618 H606 0.950 . S
C618 C617 1.398 . S
C618 C619 1.391 . S
C619 H607 0.950 . S
C619 C615 1.393 . S
C619 C618 1.391 . S
H620 C628 0.950 . S
H621 C633 0.950 . S
H622 C630 0.950 . S
H623 C632 0.950 . S
H624 C634 0.950 . S
H625 C636 0.950 . S
H626 C638 0.950 . S
H627 C639 0.950 . S
C628 H620 0.950 . S
C628 C629 1.386 . S
C628 C630 1.391 . S
C629 C628 1.386 . S
C629 C633 1.393 . S
C630 H622 0.950 . S
C630 C628 1.391 . S
C630 C631 1.400 . S
C631 C630 1.400 . S
C631 C632 1.398 . S
C631 C637 1.491 . S
C632 H623 0.950 . S
C632 C631 1.398 . S
C632 C633 1.391 . S
C633 H621 0.950 . S
C633 C629 1.393 . S
C633 C632 1.391 . S
C634 H624 0.950 . S
C634 C635 1.386 . S
C634 C636 1.391 . S
C635 C634 1.386 . S
C635 C639 1.393 . S
C636 H625 0.950 . S
C636 C634 1.391 . S
C636 C637 1.400 . S
C637 C631 1.491 . S
C637 C636 1.400 . S
C637 C638 1.398 . S
C638 H626 0.950 . S
C638 C637 1.398 . S
C638 C639 1.391 . S
C639 H627 0.950 . S
C639 C635 1.393 . S
C639 C638 1.391 . S
H640 C648 0.950 . S
H641 C653 0.950 . S
H642 C650 0.950 . S
H643 C652 0.950 . S
H644 C654 0.950 . S
H645 C656 0.950 . S
H646 C658 0.950 . S
H647 C659 0.950 . S
C648 H640 0.950 . S
C648 C649 1.386 . S
C648 C650 1.391 . S
C649 C648 1.386 . S
C649 C653 1.393 . S
C650 H642 0.950 . S
C650 C648 1.391 . S
C650 C651 1.400 . S
C651 C650 1.400 . S
C651 C652 1.398 . S
C651 C657 1.491 . S
C652 H643 0.950 . S
C652 C651 1.398 . S
C652 C653 1.391 . S
C653 H641 0.950 . S
C653 C649 1.393 . S
C653 C652 1.391 . S
C654 H644 0.950 . S
C654 C655 1.386 . S
C654 C656 1.391 . S
C655 C654 1.386 . S
C655 C659 1.393 . S
C656 H645 0.950 . S
C656 C654 1.391 . S
C656 C657 1.400 . S
C657 C651 1.491 . S
C657 C656 1.400 . S
C657 C658 1.398 . S
C658 H646 0.950 . S
C658 C657 1.398 . S
C658 C659 1.391 . S
C659 H647 0.950 . S
C659 C655 1.393 . S
C659 C658 1.391 . S
H660 C668 0.950 . S
H661 C673 0.950 . S
H662 C670 0.950 . S
H663 C672 0.950 1_545 S
H664 C674 0.950 . S
H665 C676 0.950 . S
H666 C678 0.950 . S
H667 C679 0.950 . S
C668 H660 0.950 . S
C668 C669 1.386 . S
C668 C670 1.391 . S
C669 C668 1.386 . S
C669 C673 1.393 . S
C670 H662 0.950 . S
C670 C668 1.391 . S
C670 C671 1.400 1_565 S
C671 C670 1.400 1_545 S
C671 C672 1.398 1_545 S
C671 C677 1.491 . S
C672 H663 0.950 1_565 S
C672 C671 1.398 1_565 S
C672 C673 1.391 . S
C673 H661 0.950 . S
C673 C669 1.393 . S
C673 C672 1.391 . S
C674 H664 0.950 . S
C674 C675 1.386 . S
C674 C676 1.391 . S
C675 C674 1.386 . S
C675 C679 1.393 . S
C676 H665 0.950 . S
C676 C674 1.391 . S
C676 C677 1.400 . S
C677 C671 1.491 . S
C677 C676 1.400 . S
C677 C678 1.398 . S
C678 H666 0.950 . S
C678 C677 1.398 . S
C678 C679 1.391 . S
C679 H667 0.950 . S
C679 C675 1.393 . S
C679 C678 1.391 . S
H680 C688 0.950 . S
H681 C693 0.950 . S
H682 C690 0.950 . S
H683 C692 0.950 . S
H684 C694 0.950 . S
H685 C696 0.950 . S
H686 C698 0.950 . S
H687 C699 0.950 . S
C688 H680 0.950 . S
C688 C689 1.386 . S
C688 C690 1.391 . S
C689 C688 1.386 . S
C689 C693 1.393 . S
C690 H682 0.950 . S
C690 C688 1.391 . S
C690 C691 1.400 . S
C691 C690 1.400 . S
C691 C692 1.398 . S
C691 C697 1.491 1_655 S
C692 H683 0.950 . S
C692 C691 1.398 . S
C692 C693 1.391 . S
C693 H681 0.950 . S
C693 C689 1.393 . S
C693 C692 1.391 . S
C694 H684 0.950 . S
C694 C695 1.386 . S
C694 C696 1.391 . S
C695 C694 1.386 . S
C695 C699 1.393 . S
C696 H685 0.950 . S
C696 C694 1.391 . S
C696 C697 1.400 . S
C697 C691 1.491 1_455 S
C697 C696 1.400 . S
C697 C698 1.398 . S
C698 H686 0.950 . S
C698 C697 1.398 . S
C698 C699 1.391 . S
C699 H687 0.950 . S
C699 C695 1.393 . S
C699 C698 1.391 . S
H700 C708 0.950 . S
H701 C713 0.950 . S
H702 C710 0.950 . S
H703 C712 0.950 . S
H704 C714 0.950 . S
H705 C716 0.950 . S
H706 C718 0.950 . S
H707 C719 0.950 . S
C708 H700 0.950 . S
C708 C709 1.386 . S
C708 C710 1.391 . S
C709 C708 1.386 . S
C709 C713 1.393 . S
C710 H702 0.950 . S
C710 C708 1.391 . S
C710 C711 1.400 . S
C711 C710 1.400 . S
C711 C712 1.398 . S
C711 C717 1.491 . S
C712 H703 0.950 . S
C712 C711 1.398 . S
C712 C713 1.391 . S
C713 H701 0.950 . S
C713 C709 1.393 . S
C713 C712 1.391 . S
C714 H704 0.950 . S
C714 C715 1.386 . S
C714 C716 1.391 . S
C715 C714 1.386 . S
C715 C719 1.393 . S
C716 H705 0.950 . S
C716 C714 1.391 . S
C716 C717 1.400 . S
C717 C711 1.491 . S
C717 C716 1.400 . S
C717 C718 1.398 . S
C718 H706 0.950 . S
C718 C717 1.398 . S
C718 C719 1.391 . S
C719 H707 0.950 . S
C719 C715 1.393 . S
C719 C718 1.391 . S
H720 C728 0.950 . S
H721 C733 0.950 . S
H722 C730 0.950 . S
H723 C732 0.950 . S
H724 C734 0.950 . S
H725 C736 0.950 . S
H726 C738 0.950 . S
H727 C739 0.950 . S
C728 H720 0.950 . S
C728 C729 1.386 . S
C728 C730 1.391 . S
C729 C728 1.386 . S
C729 C733 1.393 . S
C730 H722 0.950 . S
C730 C728 1.391 . S
C730 C731 1.400 . S
C731 C730 1.400 . S
C731 C732 1.398 . S
C731 C737 1.491 . S
C732 H723 0.950 . S
C732 C731 1.398 . S
C732 C733 1.391 . S
C733 H721 0.950 . S
C733 C729 1.393 . S
C733 C732 1.391 . S
C734 H724 0.950 . S
C734 C735 1.386 . S
C734 C736 1.391 . S
C735 C734 1.386 . S
C735 C739 1.393 . S
C736 H725 0.950 . S
C736 C734 1.391 . S
C736 C737 1.400 . S
C737 C731 1.491 . S
C737 C736 1.400 . S
C737 C738 1.398 . S
C738 H726 0.950 . S
C738 C737 1.398 . S
C738 C739 1.391 . S
C739 H727 0.950 . S
C739 C735 1.393 . S
C739 C738 1.391 . S
H740 C748 0.950 . S
H741 C753 0.950 . S
H742 C750 0.950 . S
H743 C752 0.950 . S
H744 C754 0.950 . S
H745 C756 0.950 . S
H746 C758 0.950 . S
H747 C759 0.950 . S
C748 H740 0.950 . S
C748 C749 1.386 . S
C748 C750 1.391 . S
C749 C748 1.386 . S
C749 C753 1.393 . S
C750 H742 0.950 . S
C750 C748 1.391 . S
C750 C751 1.400 . S
C751 C750 1.400 . S
C751 C752 1.398 . S
C751 C757 1.491 . S
C752 H743 0.950 . S
C752 C751 1.398 . S
C752 C753 1.391 . S
C753 H741 0.950 . S
C753 C749 1.393 . S
C753 C752 1.391 . S
C754 H744 0.950 . S
C754 C755 1.386 . S
C754 C756 1.391 . S
C755 C754 1.386 . S
C755 C759 1.393 . S
C756 H745 0.950 . S
C756 C754 1.391 . S
C756 C757 1.400 . S
C757 C751 1.491 . S
C757 C756 1.400 . S
C757 C758 1.398 . S
C758 H746 0.950 . S
C758 C757 1.398 . S
C758 C759 1.391 . S
C759 H747 0.950 . S
C759 C755 1.393 . S
C759 C758 1.391 . S
H760 C768 0.950 . S
H761 C773 0.950 . S
H762 C770 0.950 . S
H763 C772 0.950 . S
H764 C774 0.950 . S
H765 C776 0.950 . S
H766 C778 0.950 . S
H767 C779 0.950 . S
C768 H760 0.950 . S
C768 C769 1.386 . S
C768 C770 1.391 . S
C769 C768 1.386 . S
C769 C773 1.393 . S
C770 H762 0.950 . S
C770 C768 1.391 . S
C770 C771 1.400 . S
C771 C770 1.400 . S
C771 C772 1.398 . S
C771 C777 1.491 . S
C772 H763 0.950 . S
C772 C771 1.398 . S
C772 C773 1.391 . S
C773 H761 0.950 . S
C773 C769 1.393 . S
C773 C772 1.391 . S
C774 H764 0.950 . S
C774 C775 1.386 . S
C774 C776 1.391 . S
C775 C774 1.386 . S
C775 C779 1.393 . S
C776 H765 0.950 . S
C776 C774 1.391 . S
C776 C777 1.400 . S
C777 C771 1.491 . S
C777 C776 1.400 . S
C777 C778 1.398 . S
C778 H766 0.950 . S
C778 C777 1.398 . S
C778 C779 1.391 . S
C779 H767 0.950 . S
C779 C775 1.393 . S
C779 C778 1.391 . S
H780 C788 0.950 . S
H781 C793 0.950 1_565 S
H782 C790 0.950 . S
H783 C792 0.950 . S
H784 C794 0.950 . S
H785 C796 0.950 . S
H786 C798 0.950 . S
H787 C799 0.950 . S
C788 H780 0.950 . S
C788 C789 1.386 . S
C788 C790 1.391 . S
C789 C788 1.386 . S
C789 C793 1.393 . S
C790 H782 0.950 . S
C790 C788 1.391 . S
C790 C791 1.400 . S
C791 C790 1.400 . S
C791 C792 1.398 . S
C791 C797 1.491 . S
C792 H783 0.950 . S
C792 C791 1.398 . S
C792 C793 1.391 . S
C793 H781 0.950 1_545 S
C793 C789 1.393 . S
C793 C792 1.391 . S
C794 H784 0.950 . S
C794 C795 1.386 . S
C794 C796 1.391 . S
C795 C794 1.386 . S
C795 C799 1.393 . S
C796 H785 0.950 . S
C796 C794 1.391 . S
C796 C797 1.400 . S
C797 C791 1.491 . S
C797 C796 1.400 . S
C797 C798 1.398 . S
C798 H786 0.950 . S
C798 C797 1.398 . S
C798 C799 1.391 . S
C799 H787 0.950 . S
C799 C795 1.393 . S
C799 C798 1.391 . S
H800 C808 0.950 . S
H801 C813 0.950 1_455 S
H802 C810 0.950 . S
H803 C812 0.950 . S
H804 C814 0.950 . S
H805 C816 0.950 . S
H806 C818 0.950 . S
H807 C819 0.950 . S
C808 H800 0.950 . S
C808 C809 1.386 . S
C808 C810 1.391 . S
C809 C808 1.386 . S
C809 C813 1.393 . S
C810 H802 0.950 . S
C810 C808 1.391 . S
C810 C811 1.400 . S
C811 C810 1.400 . S
C811 C812 1.398 . S
C811 C817 1.491 . S
C812 H803 0.950 . S
C812 C811 1.398 . S
C812 C813 1.391 . S
C813 H801 0.950 1_655 S
C813 C809 1.393 . S
C813 C812 1.391 . S
C814 H804 0.950 . S
C814 C815 1.386 . S
C814 C816 1.391 . S
C815 C814 1.386 . S
C815 C819 1.393 . S
C816 H805 0.950 . S
C816 C814 1.391 . S
C816 C817 1.400 . S
C817 C811 1.491 . S
C817 C816 1.400 . S
C817 C818 1.398 . S
C818 H806 0.950 . S
C818 C817 1.398 . S
C818 C819 1.391 . S
C819 H807 0.950 . S
C819 C815 1.393 . S
C819 C818 1.391 . S
H820 C828 0.950 . S
H821 C833 0.950 . S
H822 C830 0.950 . S
H823 C832 0.950 . S
H824 C834 0.950 . S
H825 C836 0.950 . S
H826 C838 0.950 . S
H827 C839 0.950 . S
C828 H820 0.950 . S
C828 C829 1.386 . S
C828 C830 1.391 . S
C829 C828 1.386 . S
C829 C833 1.393 . S
C830 H822 0.950 . S
C830 C828 1.391 . S
C830 C831 1.400 . S
C831 C830 1.400 . S
C831 C832 1.398 . S
C831 C837 1.491 . S
C832 H823 0.950 . S
C832 C831 1.398 . S
C832 C833 1.391 . S
C833 H821 0.950 . S
C833 C829 1.393 . S
C833 C832 1.391 . S
C834 H824 0.950 . S
C834 C835 1.386 . S
C834 C836 1.391 . S
C835 C834 1.386 . S
C835 C839 1.393 . S
C836 H825 0.950 . S
C836 C834 1.391 . S
C836 C837 1.400 . S
C837 C831 1.491 . S
C837 C836 1.400 . S
C837 C838 1.398 . S
C838 H826 0.950 . S
C838 C837 1.398 . S
C838 C839 1.391 . S
C839 H827 0.950 . S
C839 C835 1.393 . S
C839 C838 1.391 . S
H840 C848 0.950 . S
H841 C853 0.950 . S
H842 C850 0.950 . S
H843 C852 0.950 . S
H844 C854 0.950 . S
H845 C856 0.950 . S
H846 C858 0.950 . S
H847 C859 0.950 . S
C848 H840 0.950 . S
C848 C849 1.386 . S
C848 C850 1.391 . S
C849 C848 1.386 . S
C849 C853 1.393 . S
C850 H842 0.950 . S
C850 C848 1.391 . S
C850 C851 1.400 . S
C851 C850 1.400 . S
C851 C852 1.398 . S
C851 C857 1.491 . S
C852 H843 0.950 . S
C852 C851 1.398 . S
C852 C853 1.391 . S
C853 H841 0.950 . S
C853 C849 1.393 . S
C853 C852 1.391 . S
C854 H844 0.950 . S
C854 C855 1.386 . S
C854 C856 1.391 . S
C855 C854 1.386 . S
C855 C859 1.393 . S
C856 H845 0.950 . S
C856 C854 1.391 . S
C856 C857 1.400 . S
C857 C851 1.491 . S
C857 C856 1.400 . S
C857 C858 1.398 . S
C858 H846 0.950 . S
C858 C857 1.398 . S
C858 C859 1.391 . S
C859 H847 0.950 . S
C859 C855 1.393 . S
C859 C858 1.391 . S
H860 C868 0.950 . S
H861 C873 0.950 . S
H862 C870 0.950 . S
H863 C872 0.950 . S
H864 C874 0.950 . S
H865 C876 0.950 . S
H866 C878 0.950 . S
H867 C879 0.950 . S
C868 H860 0.950 . S
C868 C869 1.386 . S
C868 C870 1.391 . S
C869 C868 1.386 . S
C869 C873 1.393 . S
C870 H862 0.950 . S
C870 C868 1.391 . S
C870 C871 1.400 . S
C871 C870 1.400 . S
C871 C872 1.398 . S
C871 C877 1.491 1_565 S
C872 H863 0.950 . S
C872 C871 1.398 . S
C872 C873 1.391 . S
C873 H861 0.950 . S
C873 C869 1.393 . S
C873 C872 1.391 . S
C874 H864 0.950 . S
C874 C875 1.386 . S
C874 C876 1.391 . S
C875 C874 1.386 . S
C875 C879 1.393 . S
C876 H865 0.950 . S
C876 C874 1.391 . S
C876 C877 1.400 . S
C877 C871 1.491 1_545 S
C877 C876 1.400 . S
C877 C878 1.398 . S
C878 H866 0.950 . S
C878 C877 1.398 . S
C878 C879 1.391 . S
C879 H867 0.950 . S
C879 C875 1.393 . S
C879 C878 1.391 . S
H880 C888 0.950 . S
H881 C893 0.950 . S
H882 C890 0.950 . S
H883 C892 0.950 . S
H884 C894 0.950 . S
H885 C896 0.950 . S
H886 C898 0.950 . S
H887 C899 0.950 . S
C888 H880 0.950 . S
C888 C889 1.386 . S
C888 C890 1.391 . S
C889 C888 1.386 . S
C889 C893 1.393 . S
C890 H882 0.950 . S
C890 C888 1.391 . S
C890 C891 1.400 . S
C891 C890 1.400 . S
C891 C892 1.398 . S
C891 C897 1.491 1_655 S
C892 H883 0.950 . S
C892 C891 1.398 . S
C892 C893 1.391 . S
C893 H881 0.950 . S
C893 C889 1.393 . S
C893 C892 1.391 . S
C894 H884 0.950 . S
C894 C895 1.386 . S
C894 C896 1.391 . S
C895 C894 1.386 . S
C895 C899 1.393 . S
C896 H885 0.950 . S
C896 C894 1.391 . S
C896 C897 1.400 . S
C897 C891 1.491 1_455 S
C897 C896 1.400 . S
C897 C898 1.398 . S
C898 H886 0.950 . S
C898 C897 1.398 . S
C898 C899 1.391 . S
C899 H887 0.950 . S
C899 C895 1.393 . S
C899 C898 1.391 . S
C369 C55 1.558 . S
C375 C19 1.595 . S
C389 C95 1.560 . S
C395 C59 1.597 . S
C409 C99 1.597 . S
C415 C15 1.566 . S
C429 C85 1.370 . S
C435 C49 1.338 . S
C449 C89 1.337 . S
C455 C5 1.373 . S
C469 C9 1.341 . S
C475 C45 1.377 . S
C489 C139 1.608 . S
C495 C175 1.581 1_655 S
C509 C215 1.577 . S
C515 C179 1.605 . S
C529 C219 1.593 . S
C535 C135 1.558 1_545 S
C549 C169 1.335 . S
C555 C205 1.369 . S
C569 C209 1.353 . S
C575 C125 1.379 . S
C589 C165 1.382 . S
C595 C129 1.356 . S
C609 C295 1.558 . S
C615 C259 1.595 . S
C629 C299 1.595 . S
C635 C335 1.562 . S
C649 C339 1.609 . S
C655 C255 1.580 . S
C669 C325 1.376 . S
C675 C289 1.349 . S
C689 C329 1.345 . S
C695 C245 1.374 . S
C709 C249 1.359 . S
C715 C285 1.384 . S
C729 C218 2.547 . S
C735 C8 2.182 . S
C749 C138 2.546 . S
C755 C48 2.174 . S
C769 C88 2.179 1_565 S
C775 C178 2.548 . S
C789 C98 2.551 . S
C795 C248 2.203 . S
C809 C18 2.550 . S
C815 C288 2.194 . S
C829 C328 2.173 . S
C835 C58 2.546 . S
C849 C128 2.200 . S
C855 C338 2.549 . S
C869 C168 2.204 . S
C875 C258 2.551 . S
C889 C298 2.551 . S
C895 C208 2.203 . S
