# Generated by pormake.
# Topology unp, (4)-cn, num edge types: 1
# Building blocks:
#     Node 0, Type 0, BuildingBlock: CEKHIL_clean_sbu_0, # of connection points: 4
#     Node 1, Type 0, BuildingBlock: CEKHIL_clean_sbu_0, # of connection points: 4
#     Node 2, Type 0, BuildingBlock: CEKHIL_clean_sbu_0, # of connection points: 4
#     Node 3, Type 0, BuildingBlock: CEKHIL_clean_sbu_0, # of connection points: 4
#     Node 4, Type 0, BuildingBlock: CEKHIL_clean_sbu_0, # of connection points: 4
#     Node 5, Type 0, BuildingBlock: CEKHIL_clean_sbu_0, # of connection points: 4
#     Node 6, Type 0, BuildingBlock: CEKHIL_clean_sbu_0, # of connection points: 4
#     Node 7, Type 0, BuildingBlock: CEKHIL_clean_sbu_0, # of connection points: 4
#     Node 8, Type 0, BuildingBlock: CEKHIL_clean_sbu_0, # of connection points: 4
#     Node 9, Type 0, BuildingBlock: CEKHIL_clean_sbu_0, # of connection points: 4
#     Node 10, Type 0, BuildingBlock: CEKHIL_clean_sbu_0, # of connection points: 4
#     Node 11, Type 0, BuildingBlock: CEKHIL_clean_sbu_0, # of connection points: 4
#     Node 12, Type 0, BuildingBlock: CEKHIL_clean_sbu_0, # of connection points: 4
#     Node 13, Type 0, BuildingBlock: CEKHIL_clean_sbu_0, # of connection points: 4
#     Node 14, Type 0, BuildingBlock: CEKHIL_clean_sbu_0, # of connection points: 4
#     Node 15, Type 0, BuildingBlock: CEKHIL_clean_sbu_0, # of connection points: 4
#     Node 16, Type 0, BuildingBlock: CEKHIL_clean_sbu_0, # of connection points: 4
#     Node 17, Type 0, BuildingBlock: CEKHIL_clean_sbu_0, # of connection points: 4
#     Edge 18, Type (0, 0), BuildingBlock: UVAHIK_clean_linker_0, # of connection points: 2
#     Edge 19, Type (0, 0), BuildingBlock: UVAHIK_clean_linker_0, # of connection points: 2
#     Edge 20, Type (0, 0), BuildingBlock: UVAHIK_clean_linker_0, # of connection points: 2
#     Edge 21, Type (0, 0), BuildingBlock: UVAHIK_clean_linker_0, # of connection points: 2
#     Edge 22, Type (0, 0), BuildingBlock: UVAHIK_clean_linker_0, # of connection points: 2
#     Edge 23, Type (0, 0), BuildingBlock: UVAHIK_clean_linker_0, # of connection points: 2
#     Edge 24, Type (0, 0), BuildingBlock: UVAHIK_clean_linker_0, # of connection points: 2
#     Edge 25, Type (0, 0), BuildingBlock: UVAHIK_clean_linker_0, # of connection points: 2
#     Edge 26, Type (0, 0), BuildingBlock: UVAHIK_clean_linker_0, # of connection points: 2
#     Edge 27, Type (0, 0), BuildingBlock: UVAHIK_clean_linker_0, # of connection points: 2
#     Edge 28, Type (0, 0), BuildingBlock: UVAHIK_clean_linker_0, # of connection points: 2
#     Edge 29, Type (0, 0), BuildingBlock: UVAHIK_clean_linker_0, # of connection points: 2
#     Edge 30, Type (0, 0), BuildingBlock: UVAHIK_clean_linker_0, # of connection points: 2
#     Edge 31, Type (0, 0), BuildingBlock: UVAHIK_clean_linker_0, # of connection points: 2
#     Edge 32, Type (0, 0), BuildingBlock: UVAHIK_clean_linker_0, # of connection points: 2
#     Edge 33, Type (0, 0), BuildingBlock: UVAHIK_clean_linker_0, # of connection points: 2
#     Edge 34, Type (0, 0), BuildingBlock: UVAHIK_clean_linker_0, # of connection points: 2
#     Edge 35, Type (0, 0), BuildingBlock: UVAHIK_clean_linker_0, # of connection points: 2
#     Edge 36, Type (0, 0), BuildingBlock: UVAHIK_clean_linker_0, # of connection points: 2
#     Edge 37, Type (0, 0), BuildingBlock: UVAHIK_clean_linker_0, # of connection points: 2
#     Edge 38, Type (0, 0), BuildingBlock: UVAHIK_clean_linker_0, # of connection points: 2
#     Edge 39, Type (0, 0), BuildingBlock: UVAHIK_clean_linker_0, # of connection points: 2
#     Edge 40, Type (0, 0), BuildingBlock: UVAHIK_clean_linker_0, # of connection points: 2
#     Edge 41, Type (0, 0), BuildingBlock: UVAHIK_clean_linker_0, # of connection points: 2
#     Edge 42, Type (0, 0), BuildingBlock: UVAHIK_clean_linker_0, # of connection points: 2
#     Edge 43, Type (0, 0), BuildingBlock: UVAHIK_clean_linker_0, # of connection points: 2
#     Edge 44, Type (0, 0), BuildingBlock: UVAHIK_clean_linker_0, # of connection points: 2
#     Edge 45, Type (0, 0), BuildingBlock: UVAHIK_clean_linker_0, # of connection points: 2
#     Edge 46, Type (0, 0), BuildingBlock: UVAHIK_clean_linker_0, # of connection points: 2
#     Edge 47, Type (0, 0), BuildingBlock: UVAHIK_clean_linker_0, # of connection points: 2
#     Edge 48, Type (0, 0), BuildingBlock: UVAHIK_clean_linker_0, # of connection points: 2
#     Edge 49, Type (0, 0), BuildingBlock: UVAHIK_clean_linker_0, # of connection points: 2
#     Edge 50, Type (0, 0), BuildingBlock: UVAHIK_clean_linker_0, # of connection points: 2
#     Edge 51, Type (0, 0), BuildingBlock: UVAHIK_clean_linker_0, # of connection points: 2
#     Edge 52, Type (0, 0), BuildingBlock: UVAHIK_clean_linker_0, # of connection points: 2
#     Edge 53, Type (0, 0), BuildingBlock: UVAHIK_clean_linker_0, # of connection points: 2
# Relax obj value: 0.425
# Max RMSD: 0.185
# Mean RMSD: 0.185
data_MOF--net-unp--node1-CEKHIL_clean_sbu_0--edge1-UVAHIK_clean_linker_0
_symmetry_space_group_name_H-M    P1
_symmetry_Int_Tables_number       1
_symmetry_cell_setting            triclinic
loop_
_symmetry_equiv_pos_as_xyz
'x, y, z'
_cell_length_a     62.138194
_cell_length_b     62.114285
_cell_length_c     69.549657
_cell_angle_alpha  90.015856
_cell_angle_beta   89.97946
_cell_angle_gamma 119.9866
loop_
_atom_site_label
_atom_site_type_symbol
_atom_site_fract_x
_atom_site_fract_y
_atom_site_fract_z
_atom_type_partial_charge
Co0 Co 0.18407 0.15387 0.14429 0.0
O1 O 0.21928 0.17475 0.14709 0.0
O2 O 0.19183 0.18767 0.14911 0.0
C3 C 0.18007 0.1226 0.16315 0.0
O4 O 0.14641 0.13763 0.14365 0.0
Co5 Co 0.16113 0.10163 0.12556 0.0
O6 O 0.12992 0.0969 0.13738 0.0
C7 C 0.18484 0.14635 0.10104 0.0
C8 C 0.2148 0.19278 0.14994 0.0
C9 C 0.12779 0.11534 0.14287 0.0
O10 O 0.18673 0.16004 0.11559 0.0
O11 O 0.17704 0.12304 0.10244 0.0
O12 O 0.18132 0.14229 0.17083 0.0
O13 O 0.18391 0.12373 0.14486 0.0
Co14 Co 0.84204 0.024 0.13755 0.0
O15 O 0.82551 0.04295 0.13878 0.0
O16 O 0.80839 0.00316 0.14681 0.0
C17 C 0.87806 0.05223 0.15124 0.0
O18 O 0.85395 0.99885 0.13877 0.0
Co19 Co 0.88997 0.04335 0.1128 0.0
O20 O 0.89275 0.01692 0.12674 0.0
C21 C 0.84149 0.02495 0.09412 0.0
C22 C 0.80609 0.02273 0.14463 0.0
C23 C 0.87462 -0.00074 0.13575 0.0
O24 O 0.83048 0.01491 0.11005 0.0
O25 O 0.86503 0.03922 0.09275 0.0
O26 O 0.85917 0.03782 0.16205 0.0
O27 O 0.87353 0.05089 0.13308 0.0
Co28 Co 0.98321 0.82709 0.13505 0.0
O29 O 0.96588 0.79213 0.12945 0.0
O30 O 0.00275 0.81262 0.14367 0.0
C31 C 0.95028 0.82821 0.14748 0.0
O32 O 0.00655 0.86273 0.14384 0.0
Co33 Co 0.96859 0.86358 0.11669 0.0
O34 O 0.98766 0.88501 0.13867 0.0
C35 C 0.99461 0.8433 0.09352 0.0
C36 C 0.98467 0.79174 0.13722 0.0
C37 C 0.00446 0.88209 0.14666 0.0
O38 O 0.9987 0.8338 0.10858 0.0
O39 O 0.98188 0.85437 0.09382 0.0
O40 O 0.96313 0.82166 0.15827 0.0
O41 O 0.9567 0.83214 0.12966 0.0
Co42 Co 0.14962 0.17744 0.8644 0.0
O43 O 0.16762 0.21301 0.86554 0.0
O44 O 0.18438 0.18958 0.85902 0.0
C45 C 0.11765 0.17366 0.84662 0.0
O46 O 0.13682 0.14038 0.86114 0.0
Co47 Co 0.09698 0.14701 0.88219 0.0
O48 O 0.09563 0.11962 0.86652 0.0
C49 C 0.14093 0.17104 0.90754 0.0
C50 C 0.18729 0.21165 0.86148 0.0
C51 C 0.11538 0.1205 0.86033 0.0
O52 O 0.15533 0.17609 0.89287 0.0
O53 O 0.11732 0.16125 0.90608 0.0
O54 O 0.13811 0.17791 0.83825 0.0
O55 O 0.11806 0.17407 0.86515 0.0
Co56 Co 0.81539 0.96961 0.86055 0.0
O57 O 0.77983 0.95119 0.86011 0.0
O58 O 0.80286 0.99101 0.85225 0.0
C59 C 0.82178 0.94094 0.84591 0.0
O60 O 0.85239 0.99442 0.85857 0.0
Co61 Co 0.84519 0.94992 0.88324 0.0
O62 O 0.87352 0.97555 0.86792 0.0
C63 C 0.8155 0.96763 0.90371 0.0
C64 C 0.7809 0.97167 0.85458 0.0
C65 C 0.8726 0.99353 0.85988 0.0
O66 O 0.81421 0.97842 0.88832 0.0
O67 O 0.82477 0.9533 0.90416 0.0
O68 O 0.81735 0.9558 0.83562 0.0
O69 O 0.81971 0.94238 0.86422 0.0
Co70 Co 0.02911 0.84477 0.8552 0.0
O71 O 0.04556 0.82573 0.85428 0.0
O72 O 0.00505 0.8103 0.84999 0.0
C73 C 0.05641 0.87689 0.83708 0.0
O74 O 0.00584 0.85897 0.85437 0.0
Co75 Co 0.05491 0.89694 0.87435 0.0
O76 O 0.02717 0.89943 0.86245 0.0
C77 C 0.0374 0.85207 0.89808 0.0
C78 C 0.0238 0.80651 0.85122 0.0
C79 C 0.00776 0.88053 0.85586 0.0
O80 O 0.02438 0.83858 0.88386 0.0
O81 O 0.05272 0.87541 0.89658 0.0
O82 O 0.03922 0.85683 0.82882 0.0
O83 O 0.05792 0.87572 0.85548 0.0
Co84 Co 0.84595 0.48627 0.47394 0.0
O85 O 0.88145 0.50491 0.47441 0.0
O86 O 0.85699 0.52029 0.48157 0.0
C87 C 0.84169 0.45254 0.48944 0.0
O88 O 0.80849 0.47201 0.47561 0.0
Co89 Co 0.81944 0.43606 0.45177 0.0
O90 O 0.78961 0.43235 0.46535 0.0
C91 C 0.84618 0.48321 0.43066 0.0
C92 C 0.87938 0.52392 0.4794 0.0
C93 C 0.78896 0.45049 0.47339 0.0
O94 O 0.84666 0.4952 0.4459 0.0
O95 O 0.83861 0.45989 0.43055 0.0
O96 O 0.84464 0.47164 0.49928 0.0
O97 O 0.8438 0.4555 0.47109 0.0
Co98 Co 0.50223 0.34814 0.46709 0.0
O99 O 0.486 0.36744 0.46713 0.0
O100 O 0.46867 0.32828 0.47687 0.0
C101 C 0.5385 0.3774 0.47997 0.0
O102 O 0.5138 0.32279 0.4698 0.0
Co103 Co 0.55004 0.36545 0.44251 0.0
O104 O 0.55236 0.33951 0.45748 0.0
C105 C 0.50136 0.34619 0.42372 0.0
C106 C 0.46661 0.34784 0.47381 0.0
C107 C 0.5342 0.32258 0.46696 0.0
O108 O 0.49026 0.33729 0.43985 0.0
O109 O 0.52495 0.36001 0.42225 0.0
O110 O 0.51979 0.36369 0.49116 0.0
O111 O 0.53377 0.37457 0.46184 0.0
Co112 Co 0.63994 0.14782 0.46857 0.0
O113 O 0.62311 0.11229 0.46828 0.0
O114 O 0.66202 0.13655 0.4779 0.0
C115 C 0.60898 0.15166 0.48196 0.0
O116 O 0.66301 0.18515 0.47145 0.0
Co117 Co 0.61901 0.17543 0.44443 0.0
O118 O 0.64524 0.20532 0.45783 0.0
C119 C 0.64196 0.1498 0.42514 0.0
C120 C 0.6436 0.11423 0.47474 0.0
C121 C 0.66251 0.20519 0.46764 0.0
O122 O 0.6513 0.14828 0.44126 0.0
O123 O 0.62638 0.15751 0.42375 0.0
O124 O 0.62385 0.14795 0.49284 0.0
O125 O 0.61182 0.15035 0.46373 0.0
Co126 Co 0.81663 0.51819 0.1948 0.0
O127 O 0.8354 0.55381 0.19387 0.0
O128 O 0.85036 0.52887 0.18698 0.0
C129 C 0.7828 0.51321 0.17906 0.0
O130 O 0.80272 0.48081 0.19341 0.0
Co131 Co 0.76631 0.49081 0.21657 0.0
O132 O 0.76249 0.46144 0.20213 0.0
C133 C 0.81323 0.51682 0.2383 0.0
C134 C 0.85409 0.55135 0.18857 0.0
C135 C 0.78113 0.4612 0.19469 0.0
O136 O 0.82563 0.51922 0.22283 0.0
O137 O 0.7897 0.50812 0.23847 0.0
O138 O 0.80215 0.51646 0.16945 0.0
O139 O 0.78557 0.51568 0.19744 0.0
Co140 Co 0.48004 0.29828 0.19126 0.0
O141 O 0.44457 0.28116 0.18891 0.0
O142 O 0.46924 0.32201 0.18629 0.0
C143 C 0.48685 0.27264 0.17263 0.0
O144 O 0.51726 0.32256 0.19203 0.0
Co145 Co 0.50756 0.27344 0.20992 0.0
O146 O 0.53734 0.30155 0.19782 0.0
C147 C 0.47902 0.28931 0.23424 0.0
C148 C 0.44688 0.30293 0.1863 0.0
C149 C 0.53722 0.32116 0.19259 0.0
O150 O 0.47655 0.30104 0.21992 0.0
O151 O 0.48912 0.27577 0.23273 0.0
O152 O 0.484 0.29005 0.16475 0.0
O153 O 0.48326 0.27003 0.19093 0.0
Co154 Co 0.69551 0.18013 0.19171 0.0
O155 O 0.71186 0.16175 0.18567 0.0
O156 O 0.67094 0.14603 0.18594 0.0
C157 C 0.72012 0.21383 0.17382 0.0
O158 O 0.67212 0.19369 0.19584 0.0
Co159 Co 0.72297 0.23068 0.21309 0.0
O160 O 0.69526 0.23445 0.20243 0.0
C161 C 0.70727 0.18423 0.23441 0.0
C162 C 0.6898 0.14276 0.18317 0.0
C163 C 0.67486 0.21558 0.19721 0.0
O164 O 0.69435 0.17154 0.21987 0.0
O165 O 0.72174 0.20782 0.23401 0.0
O166 O 0.70192 0.19432 0.16576 0.0
O167 O 0.72413 0.21136 0.19165 0.0
Co168 Co 0.51256 0.8131 0.80308 0.0
O169 O 0.54814 0.83119 0.80253 0.0
O170 O 0.52446 0.84773 0.80882 0.0
C171 C 0.50818 0.78058 0.82046 0.0
O172 O 0.47544 0.80019 0.80572 0.0
Co173 Co 0.48269 0.76087 0.78441 0.0
O174 O 0.45481 0.75915 0.79962 0.0
C175 C 0.50768 0.80551 0.75984 0.0
C176 C 0.5466 0.85078 0.80658 0.0
C177 C 0.45553 0.77874 0.80602 0.0
O178 O 0.51205 0.81953 0.77466 0.0
O179 O 0.49795 0.78188 0.76099 0.0
O180 O 0.51223 0.80084 0.82911 0.0
O181 O 0.50922 0.78159 0.80196 0.0
Co182 Co 0.17676 0.6967 0.81004 0.0
O183 O 0.15781 0.71238 0.8163 0.0
O184 O 0.14295 0.67158 0.81589 0.0
C185 C 0.21046 0.7216 0.82775 0.0
O186 O 0.1909 0.67383 0.80586 0.0
Co187 Co 0.22697 0.72486 0.78831 0.0
O188 O 0.23107 0.69671 0.79741 0.0
C189 C 0.18025 0.70934 0.7676 0.0
C190 C 0.13916 0.6901 0.81879 0.0
C191 C 0.21259 0.67645 0.80332 0.0
O192 O 0.16791 0.69553 0.78192 0.0
O193 O 0.20373 0.72434 0.76806 0.0
O194 O 0.19114 0.70325 0.83589 0.0
O195 O 0.20773 0.72563 0.80998 0.0
Co196 Co 0.29644 0.47943 0.80376 0.0
O197 O 0.27804 0.44383 0.80491 0.0
O198 O 0.31839 0.4671 0.81086 0.0
C199 C 0.26911 0.48638 0.81993 0.0
O200 O 0.32154 0.51647 0.80484 0.0
Co201 Co 0.27567 0.50944 0.78288 0.0
O202 O 0.30197 0.53765 0.7978 0.0
C203 C 0.29329 0.4809 0.76035 0.0
C204 C 0.29891 0.44507 0.80946 0.0
C205 C 0.32057 0.53669 0.80448 0.0
O206 O 0.30304 0.47746 0.77555 0.0
O207 O 0.28006 0.49141 0.76068 0.0
O208 O 0.28475 0.48222 0.82936 0.0
O209 O 0.26904 0.48379 0.80155 0.0
Co210 Co 0.48284 0.84826 0.52507 0.0
O211 O 0.50173 0.88379 0.52638 0.0
O212 O 0.51708 0.85955 0.51836 0.0
C213 C 0.44998 0.8454 0.5091 0.0
O214 O 0.46889 0.81106 0.5214 0.0
Co215 Co 0.43124 0.81899 0.54492 0.0
O216 O 0.42856 0.79062 0.52982 0.0
C217 C 0.47692 0.84333 0.5683 0.0
C218 C 0.52085 0.88183 0.5215 0.0
C219 C 0.44748 0.79113 0.52219 0.0
O220 O 0.49017 0.84658 0.55317 0.0
O221 O 0.45343 0.83473 0.56768 0.0
O222 O 0.46967 0.84931 0.49962 0.0
O223 O 0.45187 0.84573 0.52755 0.0
Co224 Co 0.15207 0.64603 0.5342 0.0
O225 O 0.11655 0.62684 0.53539 0.0
O226 O 0.13791 0.66519 0.52388 0.0
C227 C 0.15864 0.616 0.52237 0.0
O228 O 0.18874 0.67101 0.5299 0.0
Co229 Co 0.18393 0.63089 0.55917 0.0
O230 O 0.21125 0.65516 0.54244 0.0
C231 C 0.1553 0.65131 0.5774 0.0
C232 C 0.11644 0.64595 0.52794 0.0
C233 C 0.20943 0.67123 0.53221 0.0
O234 O 0.15253 0.65909 0.56094 0.0
O235 O 0.16501 0.63749 0.57944 0.0
O236 O 0.15276 0.6287 0.51077 0.0
O237 O 0.1576 0.62008 0.54041 0.0
Co238 Co 0.36251 0.5136 0.52854 0.0
O239 O 0.3798 0.4953 0.52831 0.0
O240 O 0.34003 0.47959 0.52083 0.0
C241 C 0.39165 0.54778 0.51323 0.0
O242 O 0.33873 0.52719 0.52646 0.0
Co243 Co 0.38453 0.56379 0.55059 0.0
O244 O 0.35885 0.56712 0.53605 0.0
C245 C 0.36354 0.51667 0.57207 0.0
C246 C 0.35889 0.47617 0.52319 0.0
C247 C 0.34032 0.54861 0.52813 0.0
O248 O 0.35386 0.50442 0.55649 0.0
O249 O 0.37814 0.54024 0.57237 0.0
O250 O 0.37616 0.52836 0.50334 0.0
O251 O 0.3906 0.54475 0.5316 0.0
C252 C 0.42486 0.32391 0.17236 0.0
C253 C 0.42478 0.30561 0.18429 0.0
C254 C 0.40288 0.32456 0.16937 0.0
C255 C 0.34795 0.29935 0.15488 0.0
H256 H 0.30185 0.28692 0.19668 0.0
C257 C 0.24342 0.23782 0.14312 0.0
C258 C 0.23501 0.21735 0.15551 0.0
C259 C 0.26569 0.25978 0.14713 0.0
C260 C 0.31455 0.29085 0.18479 0.0
H261 H 0.40251 0.27484 0.20339 0.0
H262 H 0.36451 0.27638 0.19863 0.0
H263 H 0.34631 0.30668 0.20333 0.0
H264 H 0.24175 0.20378 0.18212 0.0
H265 H 0.28012 0.24189 0.18938 0.0
H266 H 0.31607 0.28109 0.13666 0.0
C267 C 0.38131 0.29005 0.19144 0.0
C268 C 0.33996 0.3022 0.18859 0.0
C269 C 0.40295 0.28896 0.19399 0.0
C270 C 0.24798 0.21949 0.17248 0.0
C271 C 0.26982 0.24142 0.17667 0.0
C272 C 0.32248 0.2878 0.15109 0.0
C273 C 0.38089 0.30747 0.17881 0.0
C274 C 0.35662 0.30497 0.17388 0.0
C275 C 0.27943 0.26152 0.16374 0.0
C276 C 0.30546 0.28183 0.16626 0.0
H277 H 0.44157 0.33693 0.16474 0.0
H278 H 0.40288 0.33798 0.15942 0.0
H279 H 0.36046 0.30127 0.1433 0.0
H280 H 0.23363 0.2363 0.12985 0.0
H281 H 0.27272 0.27493 0.13689 0.0
C282 C 0.76404 0.00546 0.16019 0.0
C283 C 0.78231 0.02217 0.14742 0.0
C284 C 0.74238 0.00671 0.16339 0.0
C285 C 0.70514 0.03288 0.14314 0.0
H286 H 0.70094 0.05241 0.19532 0.0
C287 C 0.70209 0.11861 0.1623 0.0
C288 C 0.68687 0.11883 0.17705 0.0
C289 C 0.70211 0.09681 0.15777 0.0
C290 C 0.70113 0.04621 0.18079 0.0
H291 H 0.79176 0.05219 0.12723 0.0
H292 H 0.75423 0.05412 0.13254 0.0
H293 H 0.72351 0.03033 0.18887 0.0
H294 H 0.65926 0.09665 0.19841 0.0
H295 H 0.66023 0.05827 0.19105 0.0
H296 H 0.68502 0.05105 0.13482 0.0
C297 C 0.75643 0.04012 0.14015 0.0
C298 C 0.71407 0.03357 0.17709 0.0
C299 C 0.77811 0.03924 0.13729 0.0
C300 C 0.67098 0.09671 0.18685 0.0
C301 C 0.67154 0.07489 0.18268 0.0
C302 C 0.69235 0.04558 0.14681 0.0
C303 C 0.73849 0.02417 0.15342 0.0
C304 C 0.71762 0.02838 0.15807 0.0
C305 C 0.68737 0.07491 0.16823 0.0
C306 C 0.6917 0.05379 0.16549 0.0
H307 H 0.7669 0.9921 0.16814 0.0
H308 H 0.72889 0.99436 0.17381 0.0
H309 H 0.70729 0.02872 0.12837 0.0
H310 H 0.7145 0.13552 0.15461 0.0
H311 H 0.71481 0.09746 0.14679 0.0
C312 C 0.88586 0.5955 0.19413 0.0
C313 C 0.87808 0.57336 0.18388 0.0
C314 C 0.90655 0.61752 0.18807 0.0
C315 C 0.95832 0.65929 0.17255 0.0
H316 H 0.93528 0.67919 0.12789 0.0
C317 C 0.98869 0.76119 0.15771 0.0
C318 C 0.98438 0.76813 0.13961 0.0
C319 C 0.98328 0.73678 0.161 0.0
C320 C 0.94277 0.67405 0.13994 0.0
H321 H 0.8862 0.5564 0.15984 0.0
H322 H 0.92187 0.59554 0.14854 0.0
H323 H 0.91312 0.63634 0.1383 0.0
H324 H 0.9737 0.75633 0.11021 0.0
H325 H 0.96632 0.71439 0.11534 0.0
H326 H 0.98801 0.69688 0.17434 0.0
C327 C 0.91233 0.59554 0.16158 0.0
C328 C 0.92984 0.64934 0.14593 0.0
C329 C 0.892 0.57328 0.16801 0.0
C330 C 0.9768 0.75114 0.12438 0.0
C331 C 0.9723 0.72702 0.12745 0.0
C332 C 0.97177 0.68396 0.16623 0.0
C333 C 0.91939 0.61786 0.17138 0.0
C334 C 0.93691 0.64202 0.16269 0.0
C335 C 0.97412 0.71903 0.14604 0.0
C336 C 0.9635 0.69199 0.15035 0.0
H337 H 0.87541 0.59594 0.20645 0.0
H338 H 0.91151 0.63462 0.19566 0.0
H339 H 0.96403 0.65393 0.18556 0.0
H340 H 0.99442 0.77407 0.16967 0.0
H341 H 0.98477 0.73161 0.17558 0.0
C342 C 0.31928 0.42254 0.82364 0.0
C343 C 0.30008 0.42224 0.81275 0.0
C344 C 0.31867 0.40024 0.82813 0.0
C345 C 0.29618 0.3495 0.84834 0.0
H346 H 0.26697 0.29333 0.81341 0.0
C347 C 0.21542 0.25647 0.86801 0.0
C348 C 0.21155 0.23447 0.85927 0.0
C349 C 0.23667 0.27903 0.86395 0.0
C350 C 0.27579 0.30878 0.82334 0.0
H351 H 0.26619 0.3988 0.79696 0.0
H352 H 0.26516 0.36019 0.80461 0.0
H353 H 0.28649 0.33542 0.80061 0.0
H354 H 0.22753 0.21839 0.84042 0.0
H355 H 0.26473 0.25826 0.83283 0.0
H356 H 0.28396 0.32279 0.87114 0.0
C357 C 0.28071 0.37746 0.80972 0.0
C358 C 0.28678 0.3329 0.816 0.0
C359 C 0.28111 0.39956 0.80553 0.0
C360 C 0.23009 0.23516 0.84729 0.0
C361 C 0.25131 0.25792 0.84295 0.0
C362 C 0.28516 0.32537 0.85569 0.0
C363 C 0.29913 0.37744 0.82142 0.0
C364 C 0.29559 0.35337 0.82849 0.0
C365 C 0.25444 0.28017 0.85085 0.0
C366 C 0.27342 0.30477 0.8433 0.0
H367 H 0.33418 0.43984 0.82932 0.0
H368 H 0.33306 0.40073 0.83721 0.0
H369 H 0.3029 0.36491 0.85833 0.0
H370 H 0.20152 0.25642 0.87746 0.0
H371 H 0.23828 0.2958 0.87008 0.0
C372 C 0.75742 0.99039 0.83927 0.0
C373 C 0.75791 0.97255 0.8514 0.0
C374 C 0.73478 0.98909 0.83486 0.0
C375 C 0.68329 0.96371 0.81593 0.0
H376 H 0.62837 0.93636 0.85205 0.0
C377 C 0.59145 0.87901 0.8002 0.0
C378 C 0.56928 0.87523 0.80853 0.0
C379 C 0.6137 0.90094 0.80351 0.0
C380 C 0.64343 0.94462 0.84174 0.0
H381 H 0.73565 0.94063 0.86956 0.0
H382 H 0.6965 0.93839 0.86202 0.0
H383 H 0.67089 0.95868 0.86399 0.0
H384 H 0.55259 0.89191 0.82599 0.0
H385 H 0.59195 0.93034 0.8323 0.0
H386 H 0.65584 0.9482 0.79372 0.0
C387 C 0.71336 0.95339 0.85586 0.0
C388 C 0.66781 0.95723 0.8486 0.0
C389 C 0.73578 0.95445 0.85998 0.0
C390 C 0.5695 0.89437 0.81947 0.0
C391 C 0.59196 0.9163 0.82306 0.0
C392 C 0.65891 0.95111 0.80907 0.0
C393 C 0.71246 0.97025 0.84286 0.0
C394 C 0.68792 0.96537 0.8358 0.0
C395 C 0.61437 0.91954 0.81542 0.0
C396 C 0.63882 0.93998 0.82196 0.0
H397 H 0.7743 0.00461 0.83254 0.0
H398 H 0.73461 0.00229 0.82478 0.0
H399 H 0.69838 0.96986 0.8057 0.0
H400 H 0.59178 0.86467 0.79154 0.0
H401 H 0.63062 0.9026 0.79766 0.0
C402 C 0.09288 0.66918 0.81571 0.0
C403 C 0.11497 0.68645 0.82492 0.0
C404 C 0.07055 0.66869 0.81989 0.0
C405 C 0.0402 0.68935 0.85488 0.0
H406 H 0.02416 0.71865 0.81197 0.0
C407 C 0.03693 0.77669 0.86123 0.0
C408 C 0.02083 0.78151 0.85038 0.0
C409 C 0.03612 0.75399 0.85967 0.0
C410 C 0.02753 0.70966 0.82401 0.0
H411 H 0.13112 0.71545 0.84642 0.0
H412 H 0.09221 0.71399 0.85425 0.0
H413 H 0.04635 0.6961 0.80622 0.0
H414 H 0.9905 0.7662 0.82992 0.0
H415 H 0.98981 0.72634 0.82645 0.0
H416 H 0.02348 0.70488 0.87287 0.0
C417 C 0.09199 0.70101 0.84372 0.0
C418 C 0.04025 0.69674 0.8207 0.0
C419 C 0.11427 0.70202 0.83915 0.0
C420 C 0.00313 0.76282 0.8384 0.0
C421 C 0.0027 0.74011 0.83646 0.0
C422 C 0.02737 0.7021 0.85817 0.0
C423 C 0.07007 0.68485 0.8338 0.0
C424 C 0.0483 0.68819 0.83628 0.0
C425 C 0.01945 0.73566 0.84694 0.0
C426 C 0.02272 0.71405 0.84292 0.0
H427 H 0.09317 0.65713 0.80457 0.0
H428 H 0.05391 0.65632 0.81191 0.0
H429 H 0.04604 0.68269 0.86709 0.0
H430 H 0.05058 0.79071 0.87071 0.0
H431 H 0.04961 0.75137 0.86766 0.0
C432 C 0.90237 0.56629 0.49465 0.0
C433 C 0.90188 0.54838 0.48205 0.0
C434 C 0.92495 0.58789 0.49881 0.0
C435 C 0.97693 0.61487 0.51675 0.0
H436 H 0.03112 0.64298 0.47998 0.0
C437 C 0.07094 0.62666 0.53311 0.0
C438 C 0.09274 0.64548 0.52459 0.0
C439 C 0.04805 0.62469 0.52919 0.0
C440 C 0.01626 0.63597 0.49048 0.0
H441 H 0.92393 0.5398 0.46272 0.0
H442 H 0.96287 0.57704 0.46981 0.0
H443 H 0.98835 0.62229 0.46856 0.0
H444 H 0.10788 0.67771 0.50593 0.0
H445 H 0.06746 0.67396 0.49871 0.0
H446 H 0.00484 0.62744 0.53862 0.0
C447 C 0.94613 0.57474 0.47657 0.0
C448 C 0.99172 0.62392 0.48392 0.0
C449 C 0.92382 0.55316 0.47268 0.0
C450 C 0.09132 0.66294 0.51261 0.0
C451 C 0.06823 0.66081 0.5085 0.0
C452 C 0.00147 0.62702 0.5233 0.0
C453 C 0.94717 0.59202 0.49011 0.0
C454 C 0.97187 0.6118 0.49694 0.0
C455 C 0.0463 0.6414 0.51656 0.0
C456 C 0.02134 0.63621 0.51018 0.0
H457 H 0.88563 0.56303 0.502 0.0
H458 H 0.92519 0.60091 0.50929 0.0
H459 H 0.9621 0.60586 0.52717 0.0
H460 H 0.07142 0.61303 0.54253 0.0
H461 H 0.03155 0.60923 0.53536 0.0
C462 C 0.37503 0.44738 0.52894 0.0
C463 C 0.35701 0.45172 0.52057 0.0
C464 C 0.37503 0.42533 0.52542 0.0
C465 C 0.36903 0.37473 0.51987 0.0
H466 H 0.37284 0.36603 0.46505 0.0
C467 C 0.42512 0.33142 0.49008 0.0
C468 C 0.44339 0.34822 0.47736 0.0
C469 C 0.40453 0.334 0.49467 0.0
C470 C 0.37142 0.36785 0.48043 0.0
H471 H 0.32404 0.43589 0.50271 0.0
H472 H 0.3244 0.39721 0.49605 0.0
H473 H 0.354 0.38979 0.47672 0.0
H474 H 0.45365 0.37965 0.45848 0.0
H475 H 0.41815 0.38413 0.46638 0.0
H476 H 0.38861 0.35484 0.5235 0.0
C477 C 0.33842 0.41095 0.50548 0.0
C478 C 0.36041 0.38128 0.48713 0.0
C479 C 0.33822 0.43303 0.50926 0.0
C480 C 0.44001 0.36659 0.46848 0.0
C481 C 0.41942 0.36893 0.47283 0.0
C482 C 0.3801 0.36135 0.51317 0.0
C483 C 0.35713 0.4071 0.51327 0.0
C484 C 0.36061 0.38624 0.50686 0.0
C485 C 0.40174 0.3531 0.48632 0.0
C486 C 0.38287 0.35923 0.49333 0.0
H487 H 0.38958 0.46134 0.5379 0.0
H488 H 0.38996 0.42322 0.5314 0.0
H489 H 0.36894 0.37782 0.5352 0.0
H490 H 0.42726 0.31701 0.49705 0.0
H491 H 0.39119 0.32154 0.50512 0.0
C492 C 0.6286 0.06964 0.46873 0.0
C493 C 0.64539 0.09175 0.47809 0.0
C494 C 0.62791 0.04746 0.47312 0.0
C495 C 0.63143 0.00216 0.48165 0.0
H496 H 0.61902 0.98982 0.53624 0.0
C497 C 0.56481 0.90398 0.50926 0.0
C498 C 0.54563 0.90418 0.51983 0.0
C499 C 0.58727 0.92613 0.50622 0.0
C500 C 0.62282 0.99297 0.52099 0.0
H501 H 0.67567 0.10843 0.49856 0.0
H502 H 0.67403 0.06913 0.5067 0.0
H503 H 0.64156 0.03242 0.52451 0.0
H504 H 0.53549 0.92712 0.5367 0.0
H505 H 0.57419 0.9654 0.5314 0.0
H506 H 0.6104 0.96277 0.47793 0.0
C507 C 0.66154 0.06913 0.49585 0.0
C508 C 0.63597 0.01742 0.51427 0.0
C509 C 0.66246 0.09156 0.49121 0.0
C510 C 0.54982 0.92645 0.52829 0.0
C511 C 0.57222 0.94837 0.52548 0.0
C512 C 0.61815 0.97773 0.48836 0.0
C513 C 0.64383 0.04675 0.48712 0.0
C514 C 0.63881 0.02221 0.49442 0.0
C515 C 0.59098 0.94867 0.51398 0.0
C516 C 0.61218 0.97298 0.50796 0.0
H517 H 0.61539 0.06929 0.45839 0.0
H518 H 0.61373 0.03058 0.46635 0.0
H519 H 0.63388 0.00534 0.46629 0.0
H520 H 0.56207 0.88699 0.50268 0.0
H521 H 0.6014 0.92579 0.49732 0.0
C522 C 0.0816 0.08771 0.14532 0.0
C523 C 0.10294 0.11086 0.1487 0.0
C524 C 0.05817 0.08349 0.15076 0.0
C525 C 0.01114 0.07467 0.17049 0.0
H526 H 0.99659 0.12745 0.16039 0.0
C527 C 0.91082 0.05663 0.17459 0.0
C528 C 0.90398 0.06477 0.15807 0.0
C529 C 0.93597 0.06529 0.17853 0.0
C530 C 0.00036 0.11253 0.16338 0.0
H531 H 0.11641 0.14747 0.1611 0.0
H532 H 0.07558 0.13995 0.17088 0.0
H533 H 0.03888 0.13549 0.15682 0.0
H534 H 0.91782 0.08943 0.13348 0.0
H535 H 0.96128 0.10437 0.1402 0.0
H536 H 0.97224 0.05126 0.17571 0.0
C537 C 0.07689 0.12522 0.16363 0.0
C538 C 0.0247 0.11721 0.16153 0.0
C539 C 0.10033 0.12952 0.15803 0.0
C540 C 0.92259 0.08284 0.14633 0.0
C541 C 0.94757 0.09154 0.15027 0.0
C542 C 0.98673 0.06994 0.17219 0.0
C543 C 0.05547 0.10222 0.15991 0.0
C544 C 0.03028 0.09813 0.16448 0.0
C545 C 0.95459 0.08234 0.16607 0.0
C546 C 0.98093 0.08861 0.16804 0.0
H547 H 0.0829 0.0729 0.13819 0.0
H548 H 0.04209 0.0657 0.14732 0.0
H549 H 0.01485 0.05969 0.17331 0.0
H550 H 0.8968 0.04257 0.18382 0.0
H551 H 0.9408 0.05802 0.19092 0.0
C552 C 0.90101 0.97994 0.1415 0.0
C553 C 0.87784 0.97864 0.14315 0.0
C554 C 0.90441 0.96078 0.14838 0.0
C555 C 0.87064 0.89418 0.1587 0.0
H556 H 0.93497 0.90946 0.17878 0.0
C557 C 0.93721 0.84764 0.17318 0.0
C558 C 0.93327 0.83616 0.15513 0.0
C559 C 0.92489 0.86063 0.17802 0.0
C560 C 0.91664 0.90465 0.17368 0.0
H561 H 0.84008 0.95611 0.15364 0.0
H562 H 0.84608 0.92244 0.16564 0.0
H563 H 0.92489 0.94239 0.17559 0.0
H564 H 0.91197 0.82721 0.12877 0.0
H565 H 0.89062 0.84958 0.13707 0.0
H566 H 0.86265 0.85652 0.15634 0.0
C567 C 0.86157 0.93839 0.15893 0.0
C568 C 0.91101 0.92365 0.17157 0.0
C569 C 0.85816 0.95769 0.15206 0.0
C570 C 0.91534 0.83597 0.14277 0.0
C571 C 0.90296 0.84868 0.14763 0.0
C572 C 0.87623 0.87512 0.1609 0.0
C573 C 0.88476 0.93974 0.15715 0.0
C574 C 0.88843 0.91885 0.1632 0.0
C575 C 0.90834 0.86208 0.16494 0.0
C576 C 0.89976 0.88037 0.16755 0.0
H577 H 0.91664 0.99575 0.13477 0.0
H578 H 0.92237 0.96221 0.14638 0.0
H579 H 0.85304 0.88981 0.15227 0.0
H580 H 0.95108 0.84816 0.18289 0.0
H581 H 0.92926 0.87057 0.19155 0.0
C582 C 0.1506 0.09297 0.18752 0.0
C583 C 0.16833 0.09839 0.17303 0.0
C584 C 0.13491 0.06835 0.19324 0.0
C585 C 0.12212 0.00337 0.18879 0.0
H586 H 0.05518 0.98874 0.17715 0.0
C587 C 0.04851 0.91007 0.15667 0.0
C588 C 0.02328 0.90281 0.15827 0.0
C589 C 0.06662 0.93216 0.1652 0.0
C590 C 0.07351 0.99221 0.18105 0.0
H591 H 0.18534 0.083 0.15456 0.0
H592 H 0.1583 0.04017 0.16475 0.0
H593 H 0.08759 0.03139 0.18157 0.0
H594 H 0.99688 0.91132 0.17152 0.0
H595 H 0.02824 0.94901 0.18738 0.0
H596 H 0.10812 0.96414 0.18783 0.0
C597 C 0.15635 0.05474 0.17165 0.0
C598 C 0.09218 0.01684 0.18356 0.0
C599 C 0.17174 0.07924 0.16573 0.0
C600 C 0.01631 0.91684 0.1698 0.0
C601 C 0.03433 0.93853 0.17876 0.0
C602 C 0.10331 0.97859 0.18658 0.0
C603 C 0.13701 0.04892 0.18477 0.0
C604 C 0.11683 0.02275 0.18675 0.0
C605 C 0.05979 0.94712 0.17588 0.0
C606 C 0.07891 0.97274 0.18192 0.0
H607 H 0.14752 0.10741 0.1933 0.0
H608 H 0.12019 0.06434 0.20345 0.0
H609 H 0.14099 0.00744 0.19137 0.0
H610 H 0.05433 0.89954 0.14781 0.0
H611 H 0.08594 0.93813 0.16243 0.0
C612 C 0.0536 0.91 0.81923 0.0
C613 C 0.06829 0.90136 0.82779 0.0
C614 C 0.06305 0.93554 0.8168 0.0
C615 C 0.11052 0.9932 0.84036 0.0
H616 H 0.08433 0.02408 0.80644 0.0
C617 C 0.13442 0.09476 0.85068 0.0
C618 C 0.11344 0.09766 0.85202 0.0
C619 C 0.13219 0.07263 0.84366 0.0
C620 C 0.09187 0.01568 0.81594 0.0
H621 H 0.1049 0.91185 0.83845 0.0
H622 H 0.12214 0.95616 0.83274 0.0
H623 H 0.07576 0.98186 0.7997 0.0
H624 H 0.07393 0.08016 0.84607 0.0
H625 H 0.07012 0.04161 0.83379 0.0
H626 H 0.12636 0.02685 0.85668 0.0
C627 C 0.10297 0.9436 0.82884 0.0
C628 C 0.08691 0.99148 0.81214 0.0
C629 C 0.09328 0.91819 0.83181 0.0
C630 C 0.09039 0.07837 0.84547 0.0
C631 C 0.08824 0.0564 0.83823 0.0
C632 C 0.11574 0.01742 0.84397 0.0
C633 C 0.08753 0.95275 0.82251 0.0
C634 C 0.09569 0.97968 0.82457 0.0
C635 C 0.10902 0.05314 0.83756 0.0
C636 C 0.10601 0.02871 0.83208 0.0
H637 H 0.03412 0.89731 0.81631 0.0
H638 H 0.05048 0.94173 0.81197 0.0
H639 H 0.11714 0.98472 0.85061 0.0
H640 H 0.15244 0.10932 0.85552 0.0
H641 H 0.14852 0.07062 0.84322 0.0
C642 C 0.07728 0.17116 0.84055 0.0
C643 C 0.09371 0.16249 0.83658 0.0
C644 C 0.05211 0.15662 0.83609 0.0
C645 C 0.00432 0.0944 0.81588 0.0
H646 H 0.96581 0.09738 0.85865 0.0
C647 C 0.91576 0.01078 0.84705 0.0
C648 C 0.89581 0.01434 0.85201 0.0
C649 C 0.93805 0.03061 0.84028 0.0
C650 C 0.97617 0.09653 0.84641 0.0
H651 H 0.0975 0.13288 0.82369 0.0
H652 H 0.0534 0.10659 0.81709 0.0
H653 H 0.00852 0.12992 0.85474 0.0
H654 H 0.88335 0.04129 0.85321 0.0
H655 H 0.92269 0.07615 0.84192 0.0
H656 H 0.97197 0.05963 0.80871 0.0
C657 C 0.05971 0.12494 0.82291 0.0
C658 C 0.00075 0.11536 0.84402 0.0
C659 C 0.08509 0.13999 0.82671 0.0
C660 C 0.89841 0.03799 0.84957 0.0
C661 C 0.92087 0.05792 0.84311 0.0
C662 C 0.97978 0.07525 0.81854 0.0
C663 C 0.04268 0.13255 0.82844 0.0
C664 C 0.01542 0.11437 0.82895 0.0
C665 C 0.94097 0.05445 0.83861 0.0
C666 C 0.96567 0.07597 0.83405 0.0
H667 H 0.08367 0.18857 0.84811 0.0
H668 H 0.03984 0.16365 0.83983 0.0
H669 H 0.01473 0.09315 0.80388 0.0
H670 H 0.91422 0.9927 0.84854 0.0
H671 H 0.95336 0.0275 0.83708 0.0
C672 C 0.98747 0.90646 0.85227 0.0
C673 C 0.98682 0.88376 0.84932 0.0
C674 C 0.96797 0.90976 0.84602 0.0
C675 C 0.90144 0.87447 0.83376 0.0
H676 H 0.91418 0.93996 0.81885 0.0
C677 C 0.83408 0.90891 0.84947 0.0
C678 C 0.83396 0.92759 0.83822 0.0
C679 C 0.84972 0.89962 0.84489 0.0
C680 C 0.91016 0.92137 0.82252 0.0
H681 H 0.96527 0.84685 0.83701 0.0
H682 H 0.93131 0.85272 0.82592 0.0
H683 H 0.94865 0.93215 0.82182 0.0
H684 H 0.84872 0.95001 0.81256 0.0
H685 H 0.87611 0.93352 0.80433 0.0
H686 H 0.86295 0.86374 0.83455 0.0
C687 C 0.94679 0.86787 0.83335 0.0
C688 C 0.93002 0.917 0.82456 0.0
C689 C 0.96628 0.86451 0.83971 0.0
C690 C 0.84842 0.93554 0.82143 0.0
C691 C 0.86425 0.92627 0.81685 0.0
C692 C 0.88156 0.87878 0.83155 0.0
C693 C 0.94734 0.89051 0.83651 0.0
C694 C 0.92601 0.89381 0.831 0.0
C695 C 0.86569 0.90882 0.82894 0.0
C696 C 0.88577 0.90258 0.82673 0.0
H697 H 0.00296 0.92172 0.85961 0.0
H698 H 0.96885 0.92726 0.84911 0.0
H699 H 0.89759 0.85636 0.83871 0.0
H700 H 0.82306 0.90241 0.86248 0.0
H701 H 0.85046 0.88647 0.8547 0.0
C702 C 0.74332 0.42272 0.47885 0.0
C703 C 0.76457 0.44643 0.48026 0.0
C704 C 0.72014 0.41873 0.48474 0.0
C705 C 0.68543 0.45164 0.49141 0.0
H706 H 0.63561 0.38737 0.51109 0.0
C707 C 0.57173 0.38722 0.50467 0.0
C708 C 0.56443 0.39184 0.48676 0.0
C709 C 0.59703 0.39815 0.50928 0.0
C710 C 0.64933 0.40565 0.50601 0.0
H711 H 0.77807 0.48442 0.48956 0.0
H712 H 0.73746 0.47737 0.49992 0.0
H713 H 0.67889 0.39779 0.50973 0.0
H714 H 0.57759 0.41269 0.4602 0.0
H715 H 0.62125 0.43142 0.46804 0.0
H716 H 0.6558 0.45936 0.48745 0.0
C717 C 0.7388 0.46193 0.49405 0.0
C718 C 0.67413 0.41149 0.50497 0.0
C719 C 0.76209 0.46595 0.48814 0.0
C720 C 0.58267 0.4087 0.4741 0.0
C721 C 0.60778 0.41965 0.4787 0.0
C722 C 0.66065 0.44586 0.49256 0.0
C723 C 0.71751 0.43829 0.49228 0.0
C724 C 0.6923 0.43412 0.49688 0.0
C725 C 0.61536 0.41399 0.49609 0.0
C726 C 0.64213 0.42237 0.49909 0.0
H727 H 0.74443 0.40718 0.47294 0.0
H728 H 0.70413 0.40039 0.48279 0.0
H729 H 0.69889 0.46926 0.48512 0.0
H730 H 0.55802 0.37426 0.51469 0.0
H731 H 0.60226 0.39359 0.52288 0.0
C732 C 0.51816 0.28271 0.48587 0.0
C733 C 0.53711 0.30204 0.47501 0.0
C734 C 0.52148 0.26362 0.4934 0.0
C735 C 0.57071 0.24856 0.50497 0.0
H736 H 0.52168 0.18055 0.49249 0.0
C737 C 0.57451 0.16041 0.47729 0.0
C738 C 0.59295 0.16105 0.48931 0.0
C739 C 0.56218 0.17315 0.4823 0.0
C740 C 0.53543 0.19942 0.49632 0.0
H741 H 0.57438 0.31627 0.46362 0.0
H742 H 0.57993 0.28322 0.4765 0.0
H743 H 0.51156 0.21354 0.48812 0.0
H744 H 0.6117 0.17389 0.51669 0.0
H745 H 0.59015 0.19648 0.5255 0.0
H746 H 0.59525 0.23493 0.51177 0.0
C747 C 0.56271 0.28297 0.47953 0.0
C748 C 0.52956 0.21827 0.49395 0.0
C749 C 0.55938 0.30185 0.47197 0.0
C750 C 0.59758 0.17316 0.50715 0.0
C751 C 0.58533 0.18615 0.51213 0.0
C752 C 0.57657 0.22977 0.50734 0.0
C753 C 0.54389 0.26367 0.49036 0.0
C754 C 0.54762 0.24318 0.49731 0.0
C755 C 0.56813 0.187 0.49941 0.0
C756 C 0.55943 0.20517 0.50211 0.0
H757 H 0.50079 0.2823 0.48854 0.0
H758 H 0.50664 0.24891 0.50166 0.0
H759 H 0.58483 0.26757 0.50804 0.0
H760 H 0.57045 0.15105 0.46351 0.0
H761 H 0.54929 0.17357 0.47205 0.0
C762 C 0.83938 0.41177 0.49043 0.0
C763 C 0.83098 0.42741 0.49748 0.0
C764 C 0.82501 0.3861 0.49273 0.0
C765 C 0.76693 0.33417 0.51351 0.0
H766 H 0.76004 0.30688 0.4622 0.0
C767 C 0.69841 0.23074 0.48985 0.0
C768 C 0.68323 0.22933 0.47432 0.0
C769 C 0.71817 0.25377 0.49577 0.0
C770 C 0.76191 0.31417 0.47664 0.0
H771 H 0.80209 0.42901 0.51369 0.0
H772 H 0.77643 0.38387 0.51733 0.0
H773 H 0.79292 0.34906 0.46875 0.0
H774 H 0.67688 0.25095 0.45288 0.0
H775 H 0.71159 0.29079 0.46289 0.0
H776 H 0.73504 0.29908 0.52098 0.0
C777 C 0.79439 0.39141 0.51042 0.0
C778 C 0.7809 0.33826 0.48049 0.0
C779 C 0.80908 0.41725 0.50839 0.0
C780 C 0.68814 0.25135 0.46492 0.0
C781 C 0.70805 0.27416 0.47059 0.0
C782 C 0.74797 0.30979 0.50967 0.0
C783 C 0.80163 0.37556 0.50168 0.0
C784 C 0.78339 0.34876 0.49885 0.0
C785 C 0.72332 0.27559 0.48597 0.0
C786 C 0.745 0.29989 0.49105 0.0
H787 H 0.85625 0.41929 0.48196 0.0
H788 H 0.83135 0.3744 0.48622 0.0
H789 H 0.76841 0.34177 0.52778 0.0
H790 H 0.69498 0.2141 0.49745 0.0
H791 H 0.72977 0.25447 0.50765 0.0
C792 C 0.75572 0.25625 0.16918 0.0
C793 C 0.73074 0.23888 0.1656 0.0
C794 C 0.76458 0.28157 0.1665 0.0
C795 C 0.74639 0.32818 0.15066 0.0
H796 H 0.78918 0.36566 0.19317 0.0
C797 C 0.75392 0.41785 0.18252 0.0
C798 C 0.77775 0.43737 0.18728 0.0
C799 C 0.75058 0.3951 0.17598 0.0
C800 C 0.77755 0.35559 0.18104 0.0
H801 H 0.69567 0.23387 0.15534 0.0
H802 H 0.71061 0.27814 0.15161 0.0
H803 H 0.77947 0.32321 0.18786 0.0
H804 H 0.81685 0.44853 0.1884 0.0
H805 H 0.81089 0.40853 0.17739 0.0
H806 H 0.74343 0.36054 0.14479 0.0
C807 C 0.72378 0.27243 0.15583 0.0
C808 C 0.77205 0.33119 0.17786 0.0
C809 C 0.71513 0.24698 0.15794 0.0
C810 C 0.79825 0.43383 0.18494 0.0
C811 C 0.79485 0.41095 0.17866 0.0
C812 C 0.75161 0.35255 0.15406 0.0
C813 C 0.74837 0.29011 0.16092 0.0
C814 C 0.75617 0.31699 0.16275 0.0
C815 C 0.77096 0.3913 0.17429 0.0
C816 C 0.76703 0.36636 0.16943 0.0
H817 H 0.76808 0.25033 0.17506 0.0
H818 H 0.78385 0.29449 0.16987 0.0
H819 H 0.7344 0.31803 0.13872 0.0
H820 H 0.73779 0.4201 0.18393 0.0
H821 H 0.73194 0.3802 0.17286 0.0
C822 C 0.74966 0.47811 0.1605 0.0
C823 C 0.75764 0.50013 0.17094 0.0
C824 C 0.72426 0.46149 0.15806 0.0
C825 C 0.66567 0.44606 0.18316 0.0
H826 H 0.63671 0.39383 0.14485 0.0
C827 C 0.56374 0.36699 0.18711 0.0
C828 C 0.56094 0.3431 0.18676 0.0
C829 C 0.58634 0.38775 0.18195 0.0
C830 C 0.64459 0.40841 0.15559 0.0
H831 H 0.74599 0.52354 0.18517 0.0
H832 H 0.70182 0.49574 0.17949 0.0
H833 H 0.67867 0.42891 0.14002 0.0
H834 H 0.57927 0.3221 0.1799 0.0
H835 H 0.6187 0.35842 0.17073 0.0
H836 H 0.63156 0.42554 0.19864 0.0
C837 C 0.71484 0.4904 0.17412 0.0
C838 C 0.66866 0.42845 0.1529 0.0
C839 C 0.74015 0.50657 0.17711 0.0
C840 C 0.58096 0.34031 0.18056 0.0
C841 C 0.60342 0.36103 0.17511 0.0
C842 C 0.64154 0.42631 0.18565 0.0
C843 C 0.70647 0.46696 0.16561 0.0
C844 C 0.67975 0.44731 0.16687 0.0
C845 C 0.60642 0.38496 0.176 0.0
C846 C 0.63097 0.40705 0.17211 0.0
H847 H 0.76287 0.47262 0.15585 0.0
H848 H 0.71872 0.44363 0.15155 0.0
H849 H 0.67357 0.4597 0.19456 0.0
H850 H 0.54863 0.36973 0.19174 0.0
H851 H 0.5882 0.40602 0.18272 0.0
C852 C 0.49327 0.23707 0.16698 0.0
C853 C 0.50066 0.262 0.16339 0.0
C854 C 0.51011 0.2286 0.16484 0.0
C855 C 0.57611 0.24816 0.15181 0.0
H856 H 0.56973 0.2077 0.1963 0.0
C857 C 0.65816 0.24287 0.18639 0.0
C858 C 0.6539 0.21916 0.19155 0.0
C859 C 0.63864 0.24605 0.1799 0.0
C860 C 0.57164 0.21871 0.18366 0.0
H861 H 0.53052 0.2972 0.15312 0.0
H862 H 0.56047 0.28295 0.15031 0.0
H863 H 0.53653 0.21592 0.18853 0.0
H864 H 0.6258 0.1802 0.1939 0.0
H865 H 0.59163 0.1859 0.18299 0.0
H866 H 0.61209 0.2519 0.14781 0.0
C867 C 0.54155 0.26955 0.15423 0.0
C868 C 0.55247 0.22331 0.17905 0.0
C869 C 0.52436 0.27779 0.15578 0.0
C870 C 0.62968 0.19873 0.19014 0.0
C871 C 0.61012 0.20197 0.18389 0.0
C872 C 0.59549 0.24379 0.15662 0.0
C873 C 0.53499 0.2452 0.15981 0.0
C874 C 0.55447 0.23827 0.16315 0.0
C875 C 0.61441 0.22564 0.17865 0.0
C876 C 0.59349 0.22921 0.17271 0.0
H877 H 0.47501 0.22459 0.17283 0.0
H878 H 0.50407 0.20947 0.16851 0.0
H879 H 0.57825 0.25952 0.13937 0.0
H880 H 0.67666 0.25895 0.18707 0.0
H881 H 0.64241 0.26455 0.17615 0.0
C882 C 0.24379 0.71705 0.84373 0.0
C883 C 0.23558 0.73246 0.83583 0.0
C884 C 0.26924 0.72592 0.84603 0.0
C885 C 0.32787 0.77381 0.82384 0.0
H886 H 0.35718 0.74611 0.8579 0.0
C887 C 0.42962 0.79762 0.81558 0.0
C888 C 0.43245 0.77661 0.81398 0.0
C889 C 0.40728 0.79524 0.82221 0.0
C890 C 0.34922 0.75407 0.84836 0.0
H891 H 0.24683 0.76961 0.82595 0.0
H892 H 0.29103 0.78572 0.83129 0.0
H893 H 0.3148 0.73751 0.8638 0.0
H894 H 0.41459 0.73688 0.81909 0.0
H895 H 0.37568 0.73281 0.83069 0.0
H896 H 0.36216 0.79014 0.80833 0.0
C897 C 0.27817 0.76649 0.83484 0.0
C898 C 0.32492 0.74908 0.85167 0.0
C899 C 0.25284 0.75742 0.83204 0.0
C900 C 0.41287 0.75337 0.8199 0.0
C901 C 0.39069 0.75107 0.82676 0.0
C902 C 0.35219 0.77905 0.82071 0.0
C903 C 0.28682 0.7505 0.84081 0.0
C904 C 0.31371 0.75843 0.83918 0.0
C905 C 0.3875 0.77189 0.82765 0.0
C906 C 0.36292 0.76879 0.83266 0.0
H907 H 0.23078 0.69759 0.84647 0.0
H908 H 0.27506 0.71294 0.85052 0.0
H909 H 0.31986 0.7809 0.81357 0.0
H910 H 0.4444 0.8158 0.81124 0.0
H911 H 0.40535 0.81162 0.82286 0.0
C912 C 0.27007 0.51881 0.84182 0.0
C913 C 0.25756 0.50002 0.82809 0.0
C914 C 0.26275 0.5365 0.84509 0.0
C915 C 0.21368 0.55256 0.83287 0.0
H916 H 0.26964 0.61963 0.82952 0.0
C917 C 0.23783 0.6551 0.80264 0.0
C918 C 0.21651 0.6556 0.80869 0.0
C919 C 0.24206 0.63605 0.80864 0.0
C920 C 0.25378 0.60101 0.83033 0.0
H921 H 0.22654 0.48353 0.80833 0.0
H922 H 0.21371 0.51395 0.81399 0.0
H923 H 0.27696 0.5852 0.83521 0.0
H924 H 0.18319 0.63673 0.82616 0.0
H925 H 0.19084 0.60397 0.83697 0.0
H926 H 0.1906 0.56805 0.82657 0.0
C927 C 0.22902 0.51528 0.82236 0.0
C928 C 0.25796 0.58128 0.834 0.0
C929 C 0.2364 0.49782 0.81904 0.0
C930 C 0.1996 0.63669 0.82095 0.0
C931 C 0.204 0.61785 0.82716 0.0
C932 C 0.20952 0.57224 0.82898 0.0
C933 C 0.24273 0.53548 0.83478 0.0
C934 C 0.238 0.55671 0.83476 0.0
C935 C 0.22526 0.61723 0.82107 0.0
C936 C 0.22956 0.59666 0.82715 0.0
H937 H 0.28664 0.52105 0.84881 0.0
H938 H 0.27351 0.55164 0.85494 0.0
H939 H 0.19784 0.53392 0.83365 0.0
H940 H 0.25123 0.66939 0.7932 0.0
H941 H 0.25837 0.63594 0.80329 0.0
C942 C 0.47373 0.7481 0.83989 0.0
C943 C 0.49609 0.75622 0.82992 0.0
C944 C 0.45759 0.72268 0.84283 0.0
C945 C 0.44456 0.66407 0.81899 0.0
H946 H 0.39008 0.6349 0.85541 0.0
C947 C 0.36577 0.56239 0.81268 0.0
C948 C 0.342 0.55983 0.81181 0.0
C949 C 0.38617 0.58472 0.81878 0.0
C950 C 0.4053 0.64283 0.84522 0.0
H951 H 0.52071 0.74497 0.81729 0.0
H952 H 0.49379 0.7009 0.82395 0.0
H953 H 0.42464 0.67703 0.86084 0.0
H954 H 0.32075 0.57818 0.81763 0.0
H955 H 0.35643 0.61711 0.82843 0.0
H956 H 0.42517 0.62993 0.80339 0.0
C957 C 0.48779 0.71374 0.8285 0.0
C958 C 0.42506 0.66699 0.84826 0.0
C959 C 0.50347 0.73902 0.82498 0.0
C960 C 0.3389 0.57971 0.81789 0.0
C961 C 0.35924 0.60188 0.82429 0.0
C962 C 0.4251 0.63987 0.81617 0.0
C963 C 0.46391 0.70506 0.83626 0.0
C964 C 0.4447 0.67818 0.83492 0.0
C965 C 0.38313 0.60474 0.82447 0.0
C966 C 0.40502 0.62922 0.82899 0.0
H967 H 0.46755 0.76109 0.84361 0.0
H968 H 0.4394 0.7169 0.84878 0.0
H969 H 0.45883 0.67204 0.80805 0.0
H970 H 0.36873 0.54738 0.80815 0.0
H971 H 0.40441 0.58646 0.81884 0.0
C972 C 0.46446 0.76718 0.50487 0.0
C973 C 0.44467 0.76764 0.51432 0.0
C974 C 0.46183 0.74476 0.49807 0.0
C975 C 0.45659 0.69335 0.4986 0.0
H976 H 0.39213 0.63949 0.48292 0.0
C977 C 0.42344 0.59232 0.51619 0.0
C978 C 0.40504 0.57306 0.50508 0.0
C979 C 0.4326 0.61706 0.51104 0.0
C980 C 0.41046 0.65437 0.4868 0.0
H981 H 0.40636 0.74483 0.52358 0.0
H982 H 0.40204 0.70598 0.51229 0.0
H983 H 0.39892 0.68147 0.48512 0.0
H984 H 0.38316 0.5644 0.47903 0.0
H985 H 0.39945 0.60791 0.46979 0.0
H986 H 0.46806 0.66618 0.50041 0.0
C987 C 0.41946 0.72292 0.50971 0.0
C988 C 0.41424 0.67844 0.48838 0.0
C989 C 0.42205 0.74526 0.51641 0.0
C990 C 0.39736 0.57893 0.48785 0.0
C991 C 0.40653 0.60383 0.48268 0.0
C992 C 0.45288 0.66931 0.49683 0.0
C993 C 0.43936 0.7223 0.5006 0.0
C994 C 0.43698 0.698 0.49516 0.0
C995 C 0.42358 0.62319 0.49463 0.0
C996 C 0.42943 0.64932 0.49179 0.0
H997 H 0.48209 0.78409 0.50285 0.0
H998 H 0.47745 0.74502 0.49094 0.0
H999 H 0.47437 0.70791 0.50383 0.0
H1000 H 0.42978 0.58832 0.52952 0.0
H1001 H 0.44547 0.63133 0.52075 0.0
C1002 C 0.23156 0.70877 0.51067 0.0
C1003 C 0.23217 0.69071 0.52253 0.0
C1004 C 0.25323 0.72697 0.50162 0.0
C1005 C 0.31794 0.74246 0.48943 0.0
H1006 H 0.33314 0.81077 0.49443 0.0
C1007 C 0.40699 0.83775 0.51038 0.0
C1008 C 0.4253 0.83555 0.50025 0.0
C1009 C 0.38206 0.8234 0.50534 0.0
C1010 C 0.32913 0.79178 0.49274 0.0
H1011 H 0.25611 0.67758 0.53389 0.0
H1012 H 0.29357 0.7093 0.5186 0.0
H1013 H 0.2913 0.77711 0.5014 0.0
H1014 H 0.43235 0.81836 0.4758 0.0
H1015 H 0.38848 0.79317 0.46675 0.0
H1016 H 0.35619 0.75699 0.48245 0.0
C1017 C 0.27637 0.70922 0.5159 0.0
C1018 C 0.30504 0.77245 0.49657 0.0
C1019 C 0.25484 0.69113 0.5249 0.0
C1020 C 0.41854 0.82042 0.48382 0.0
C1021 C 0.39341 0.80586 0.47878 0.0
C1022 C 0.34205 0.76175 0.48578 0.0
C1023 C 0.27591 0.72741 0.50417 0.0
C1024 C 0.29952 0.74758 0.4959 0.0
C1025 C 0.3748 0.80636 0.49005 0.0
C1026 C 0.34824 0.78665 0.48835 0.0
H1027 H 0.2144 0.70893 0.50842 0.0
H1028 H 0.25222 0.74066 0.49262 0.0
H1029 H 0.31412 0.72348 0.48825 0.0
H1030 H 0.41177 0.84939 0.52307 0.0
H1031 H 0.36841 0.82423 0.51451 0.0
C1032 C 0.2977 0.53197 0.51369 0.0
C1033 C 0.31972 0.55205 0.52099 0.0
C1034 C 0.27799 0.53533 0.50786 0.0
C1035 C 0.26184 0.58434 0.49643 0.0
H1036 H 0.19702 0.53631 0.51628 0.0
C1037 C 0.18161 0.60569 0.49764 0.0
C1038 C 0.17056 0.60183 0.51587 0.0
C1039 C 0.19647 0.59527 0.4931 0.0
C1040 C 0.21497 0.54983 0.51052 0.0
H1041 H 0.33852 0.59162 0.52716 0.0
H1042 H 0.30426 0.59727 0.51744 0.0
H1043 H 0.23097 0.52745 0.51794 0.0
H1044 H 0.16499 0.5829 0.54315 0.0
H1045 H 0.19072 0.56495 0.53538 0.0
H1046 H 0.24629 0.60749 0.49027 0.0
C1047 C 0.30221 0.57899 0.51593 0.0
C1048 C 0.23439 0.54464 0.51128 0.0
C1049 C 0.32183 0.57565 0.52175 0.0
C1050 C 0.17333 0.58623 0.52899 0.0
C1051 C 0.18796 0.57575 0.52445 0.0
C1052 C 0.24244 0.58959 0.49575 0.0
C1053 C 0.27992 0.55884 0.50913 0.0
C1054 C 0.25832 0.56226 0.50494 0.0
C1055 C 0.20028 0.58067 0.50667 0.0
C1056 C 0.21904 0.57281 0.50348 0.0
H1057 H 0.29549 0.51357 0.51277 0.0
H1058 H 0.26116 0.51946 0.50252 0.0
H1059 H 0.27991 0.59809 0.49102 0.0
H1060 H 0.17983 0.61771 0.48728 0.0
H1061 H 0.20555 0.59924 0.47921 0.0
C1062 C 0.19336 0.18105 0.07802 0.0
C1063 C 0.19034 0.15739 0.08149 0.0
C1064 C 0.19535 0.18982 0.05916 0.0
C1065 C 0.204 0.17668 0.00811 0.0
H1066 H 0.1588 0.20103 0.99704 0.0
C1067 C 0.17752 0.18644 0.93005 0.0
C1068 C 0.15184 0.17634 0.92714 0.0
C1069 C 0.18732 0.1905 0.9487 0.0
C1070 C 0.17158 0.19433 -0.00012 0.0
H1071 H 0.18873 0.12514 0.06786 0.0
H1072 H 0.1918 0.14015 0.03531 0.0
H1073 H 0.16807 0.19654 0.03028 0.0
H1074 H 0.11648 0.16319 0.94169 0.0
H1075 H 0.1334 0.16983 0.97387 0.0
H1076 H 0.20615 0.17287 0.9777 0.0
C1077 C 0.19284 0.15212 0.04703 0.0
C1078 C 0.17717 0.19207 0.01897 0.0
C1079 C 0.1908 0.14337 0.06577 0.0
C1080 C 0.13634 0.17096 0.94329 0.0
C1081 C 0.1461 0.17503 0.96183 0.0
C1082 C 0.19832 0.17884 0.98901 0.0
C1083 C 0.19451 0.17516 0.04343 0.0
C1084 C 0.19271 0.18233 0.02333 0.0
C1085 C 0.17166 0.18466 0.96481 0.0
C1086 C 0.1813 0.18679 0.98471 0.0
H1087 H 0.19323 0.19242 0.08978 0.0
H1088 H 0.19691 0.2078 0.05689 0.0
H1089 H 0.21642 0.16955 0.01097 0.0
H1090 H 0.19003 0.19096 0.91795 0.0
H1091 H 0.20713 0.1981 0.95051 0.0
C1092 C 0.79167 0.95174 0.93402 0.0
C1093 C 0.80623 0.97192 0.92192 0.0
C1094 C 0.78542 0.95565 0.95244 0.0
C1095 C 0.79101 0.00513 0.98662 0.0
H1096 H 0.79856 0.96283 0.02378 0.0
C1097 C 0.83571 0.03586 0.0608 0.0
C1098 C 0.82688 0.01894 0.07619 0.0
C1099 C 0.82439 0.02906 0.04281 0.0
C1100 C 0.79578 0.97447 0.01365 0.0
H1101 H 0.82475 0.0119 0.91899 0.0
H1102 H 0.81529 0.01906 0.95164 0.0
H1103 H 0.7954 0.95262 0.98999 0.0
H1104 H 0.79822 0.98229 0.08522 0.0
H1105 H 0.77873 0.97009 0.05343 0.0
H1106 H 0.79356 0.02806 0.01059 0.0
C1107 C 0.80782 8e-05 0.94681 0.0
C1108 C 0.79391 0.96861 0.99416 0.0
C1109 C 0.81345 0.99606 0.92813 0.0
C1110 C 0.80546 0.99565 0.07358 0.0
C1111 C 0.79435 0.98867 0.05543 0.0
C1112 C 0.79329 0.0112 0.00618 0.0
C1113 C 0.79437 0.97992 0.95944 0.0
C1114 C 0.79223 0.98423 0.98028 0.0
C1115 C 0.80421 0.00508 0.03975 0.0
C1116 C 0.7964 0.99628 0.0198 0.0
H1117 H 0.78555 0.9329 0.92935 0.0
H1118 H 0.77432 0.93961 0.96142 0.0
H1119 H 0.78916 0.0173 0.97645 0.0
H1120 H 0.85201 0.05407 0.06248 0.0
H1121 H 0.83253 0.04202 0.03098 0.0
C1122 C 0.05288 0.85245 0.93121 0.0
C1123 C 0.034 0.84083 0.91738 0.0
C1124 C 0.04881 0.84429 0.95023 0.0
C1125 C 0.99784 0.81818 0.98375 0.0
H1126 H 0.04865 0.82468 0.0196 0.0
C1127 C 0.00322 0.85449 0.05891 0.0
C1128 C 0.00332 0.84012 0.07448 0.0
C1129 C 0.00719 0.84917 0.04027 0.0
C1130 C 0.03415 0.82238 0.00974 0.0
H1131 H 0.99666 0.81038 0.91233 0.0
H1132 H 0.98934 0.7963 0.94584 0.0
H1133 H 0.05457 0.82212 0.98494 0.0
H1134 H 0.00938 0.80987 0.08276 0.0
H1135 H 0.01684 0.80083 0.04976 0.0
H1136 H 0.97805 0.81976 0.00837 0.0
C1137 C 0.0073 0.81177 0.94187 0.0
C1138 C 0.03755 0.82103 0.98996 0.0
C1139 C 0.01149 0.81979 0.92271 0.0
C1140 C 0.00917 0.82127 0.07106 0.0
C1141 C 0.01332 0.81601 0.05223 0.0
C1142 C 0.99457 0.81972 0.00342 0.0
C1143 C 0.02568 0.82445 0.95593 0.0
C1144 C 0.01982 0.81985 0.97673 0.0
C1145 C 0.0115 0.82943 0.03667 0.0
C1146 C 0.01311 0.82282 0.01651 0.0
H1147 H 0.07057 0.86849 0.92749 0.0
H1148 H 0.06328 0.85462 0.96069 0.0
H1149 H 0.98393 0.81751 0.974 0.0
H1150 H -0.00076 0.86944 0.06102 0.0
H1151 H 0.00633 0.86019 0.02853 0.0
C1152 C 0.81608 0.52929 0.27273 0.0
C1153 C 0.82621 0.52312 0.25702 0.0
C1154 C 0.82638 0.53233 0.29104 0.0
C1155 C 0.85577 0.50662 0.31982 0.0
H1156 H 0.8634 0.55608 0.35742 0.0
C1157 C 0.86721 0.49067 0.39898 0.0
C1158 C 0.85355 0.49627 0.41208 0.0
C1159 C 0.87123 0.50001 0.38028 0.0
C1160 C 0.86121 0.54202 0.34715 0.0
H1161 H 0.85579 0.51649 0.24799 0.0
H1162 H 0.87343 0.52114 0.28027 0.0
H1163 H 0.85698 0.5619 0.32357 0.0
H1164 H 0.83435 0.51688 0.41639 0.0
H1165 H 0.84004 0.53213 0.3834 0.0
H1166 H 0.858 0.4857 0.34316 0.0
C1167 C 0.85764 0.52382 0.27826 0.0
C1168 C 0.85774 0.54549 0.32776 0.0
C1169 C 0.84759 0.52122 0.25983 0.0
C1170 C 0.84503 0.5124 0.40651 0.0
C1171 C 0.84845 0.52123 0.3876 0.0
C1172 C 0.85879 0.50292 0.33918 0.0
C1173 C 0.84678 0.52889 0.29409 0.0
C1174 C 0.8545 0.52756 0.31399 0.0
C1175 C 0.86096 0.51451 0.37405 0.0
C1176 C 0.86104 0.5203 0.35321 0.0
H1177 H 0.79973 0.5311 0.27097 0.0
H1178 H 0.8175 0.536 0.303 0.0
H1179 H 0.85291 0.4923 0.30955 0.0
H1180 H 0.87429 0.47854 0.40309 0.0
H1181 H 0.88169 0.4951 0.37054 0.0
C1182 C 0.4755 0.28139 0.26964 0.0
C1183 C 0.47028 0.29169 0.25355 0.0
C1184 C 0.46826 0.28416 0.28799 0.0
C1185 C 0.45502 0.32619 0.31578 0.0
H1186 H 0.44457 0.27835 0.3557 0.0
C1187 C 0.49714 0.35523 0.38955 0.0
C1188 C 0.4868 0.33988 0.40571 0.0
C1189 C 0.4855 0.34822 0.37173 0.0
C1190 C 0.44679 0.29175 0.3448 0.0
H1191 H 0.45238 0.31223 0.24415 0.0
H1192 H 0.43953 0.31695 0.27639 0.0
H1193 H 0.44074 0.26606 0.32214 0.0
H1194 H 0.45515 0.30592 0.41615 0.0
H1195 H 0.43466 0.29344 0.38469 0.0
H1196 H 0.46146 0.35199 0.33846 0.0
C1197 C 0.44956 0.30696 0.27472 0.0
C1198 C 0.44497 0.28481 0.3255 0.0
C1199 C 0.45694 0.30427 0.25625 0.0
C1200 C 0.46364 0.31804 0.40391 0.0
C1201 C 0.45198 0.31088 0.3859 0.0
C1202 C 0.45653 0.33305 0.33508 0.0
C1203 C 0.4554 0.29716 0.29085 0.0
C1204 C 0.45057 0.30238 0.31079 0.0
C1205 C 0.46316 0.32562 0.36951 0.0
C1206 C 0.45398 0.31637 0.34978 0.0
H1207 H 0.48576 0.27161 0.26819 0.0
H1208 H 0.47367 0.27687 0.30004 0.0
H1209 H 0.45928 0.34021 0.30488 0.0
H1210 H 0.51479 0.37237 0.3905 0.0
H1211 H 0.49493 0.35992 0.35947 0.0
C1212 C 0.63434 0.13523 0.39113 0.0
C1213 C 0.65029 0.14368 0.40711 0.0
C1214 C 0.64292 0.13243 0.3733 0.0
C1215 C 0.69844 0.16245 0.34534 0.0
H1216 H 0.66135 0.10993 0.30841 0.0
C1217 C 0.7241 0.18 0.26584 0.0
C1218 C 0.70405 0.17161 0.25304 0.0
C1219 C 0.72039 0.17087 0.28462 0.0
C1220 C 0.6719 0.12485 0.31848 0.0
H1221 H 0.68736 0.15463 0.41724 0.0
H1222 H 0.70266 0.1505 0.3857 0.0
H1223 H 0.64894 0.10372 0.34221 0.0
H1224 H 0.66465 0.14624 0.2494 0.0
H1225 H 0.65777 0.13126 0.2824 0.0
H1226 H 0.72011 0.18448 0.32179 0.0
C1227 C 0.68343 0.14578 0.38715 0.0
C1228 C 0.6649 0.12115 0.33786 0.0
C1229 C 0.67468 0.1481 0.40514 0.0
C1230 C 0.68045 0.15294 0.25899 0.0
C1231 C 0.67658 0.14425 0.27795 0.0
C1232 C 0.70516 0.16634 0.32597 0.0
C1233 C 0.66774 0.13844 0.37099 0.0
C1234 C 0.67774 0.14018 0.35136 0.0
C1235 C 0.69639 0.15369 0.29122 0.0
C1236 C 0.69157 0.14786 0.31214 0.0
H1237 H 0.61538 0.13148 0.39229 0.0
H1238 H 0.6305 0.12698 0.36105 0.0
H1239 H 0.70844 0.17757 0.3554 0.0
H1240 H 0.74258 0.19415 0.26148 0.0
H1241 H 0.73627 0.178 0.29414 0.0
C1242 C 0.51345 0.85414 0.59 0.0
C1243 C 0.48891 0.84915 0.58748 0.0
C1244 C 0.52369 0.85773 0.60848 0.0
C1245 C 0.51273 0.86793 0.65969 0.0
H1246 H 0.54104 0.82614 0.67092 0.0
C1247 C 0.50952 0.80182 0.72417 0.0
C1248 C 0.5137 0.81689 0.74041 0.0
C1249 C 0.51408 0.81193 0.70575 0.0
C1250 C 0.53331 0.83804 0.66802 0.0
H1251 H 0.45647 0.84545 0.60235 0.0
H1252 H 0.47401 0.85122 0.6342 0.0
H1253 H 0.53485 0.83383 0.63764 0.0
H1254 H 0.52679 0.85472 0.74995 0.0
H1255 H 0.53474 0.87243 0.71756 0.0
H1256 H 0.50938 0.87052 0.6901 0.0
C1257 C 0.48554 0.85265 0.62204 0.0
C1258 C 0.53005 0.84272 0.64892 0.0
C1259 C 0.47533 0.84899 0.6037 0.0
C1260 C 0.52321 0.84254 0.73776 0.0
C1261 C 0.52775 0.85269 0.71921 0.0
C1262 C 0.51585 0.86312 0.67881 0.0
C1263 C 0.50966 0.8566 0.62473 0.0
C1264 C 0.51865 0.85676 0.64455 0.0
C1265 C 0.52301 0.83742 0.70299 0.0
C1266 C 0.5251 0.84717 0.68316 0.0
H1267 H 0.52449 0.85458 0.57779 0.0
H1268 H 0.54239 0.86091 0.61007 0.0
H1269 H 0.50439 0.87929 0.65679 0.0
H1270 H 0.50226 0.78201 0.72558 0.0
H1271 H 0.50969 0.7995 0.6936 0.0
C1272 C 0.13907 0.64277 0.61087 0.0
C1273 C 0.14768 0.65895 0.59504 0.0
C1274 C 0.13466 0.65063 0.62846 0.0
C1275 C 0.16078 0.70561 0.65695 0.0
H1276 H 0.10756 0.66517 0.69246 0.0
C1277 C 0.17516 0.72734 0.73709 0.0
C1278 C 0.16749 0.70664 0.74913 0.0
C1279 C 0.16625 0.72437 0.71828 0.0
C1280 C 0.12263 0.67668 0.68279 0.0
H1281 H 0.15727 0.69563 0.58483 0.0
H1282 H 0.15039 0.70981 0.61602 0.0
H1283 H 0.10319 0.65414 0.6584 0.0
H1284 H 0.1435 0.66682 0.75144 0.0
H1285 H 0.12894 0.66129 0.71835 0.0
H1286 H 0.18125 0.72691 0.68118 0.0
C1287 C 0.14675 0.6909 0.61463 0.0
C1288 C 0.11999 0.67047 0.66325 0.0
C1289 C 0.15065 0.68281 0.59684 0.0
C1290 C 0.14963 0.68309 0.74244 0.0
C1291 C 0.14119 0.68 0.72344 0.0
C1292 C 0.16363 0.71158 0.67648 0.0
C1293 C 0.13921 0.67501 0.63069 0.0
C1294 C 0.13937 0.68444 0.65028 0.0
C1295 C 0.15005 0.70052 0.71088 0.0
C1296 C 0.14494 0.69672 0.6898 0.0
H1297 H 0.13641 0.62418 0.60981 0.0
H1298 H 0.12912 0.63808 0.64062 0.0
H1299 H 0.17615 0.71652 0.64731 0.0
H1300 H 0.18865 0.74578 0.74205 0.0
H1301 H 0.17289 0.74073 0.70933 0.0
C1302 C 0.36974 0.51608 0.60749 0.0
C1303 C 0.35727 0.50333 0.59072 0.0
C1304 C 0.36302 0.50448 0.62536 0.0
C1305 C 0.30891 0.45623 0.65038 0.0
H1306 H 0.35638 0.47759 0.69226 0.0
C1307 C 0.28598 0.47525 0.72494 0.0
C1308 C 0.29792 0.47309 0.74138 0.0
C1309 C 0.29145 0.46988 0.70677 0.0
C1310 C 0.3428 0.47083 0.68079 0.0
H1311 H 0.32864 0.46783 0.57954 0.0
H1312 H 0.31679 0.44747 0.61099 0.0
H1313 H 0.37112 0.48445 0.65922 0.0
H1314 H 0.32405 0.46215 0.75162 0.0
H1315 H 0.33366 0.45269 0.71967 0.0
H1316 H 0.28061 0.44305 0.67196 0.0
C1317 C 0.3317 0.4666 0.6102 0.0
C1318 C 0.35128 0.47505 0.66181 0.0
C1319 C 0.33851 0.47826 0.5922 0.0
C1320 C 0.31469 0.46425 0.73925 0.0
C1321 C 0.32021 0.45886 0.72095 0.0
C1322 C 0.30041 0.45178 0.66936 0.0
C1323 C 0.34365 0.47974 0.62702 0.0
C1324 C 0.33452 0.46912 0.64645 0.0
C1325 C 0.30898 0.46208 0.70446 0.0
C1326 C 0.31733 0.46034 0.68478 0.0
H1327 H 0.38441 0.53534 0.60696 0.0
H1328 H 0.37234 0.51538 0.63798 0.0
H1329 H 0.29544 0.45129 0.63892 0.0
H1330 H 0.2728 0.48179 0.72597 0.0
H1331 H 0.28275 0.47305 0.69445 0.0
loop_
_geom_bond_atom_site_label_1
_geom_bond_atom_site_label_2
_geom_bond_distance
_geom_bond_site_symmetry_2
_ccdc_geom_bond_type
Co0 O1 2.216 . S
Co0 O2 2.091 . S
Co0 O4 2.004 . S
Co0 O10 2.021 . S
Co0 O12 2.137 . S
Co0 O13 2.244 . S
O1 Co0 2.216 . S
O1 C8 1.247 . S
O2 Co0 2.091 . S
O2 C8 1.261 . S
C3 O12 1.247 . S
C3 O13 1.272 . S
O4 Co0 2.004 . S
O4 C9 1.259 . S
Co5 O6 2.061 . S
Co5 O11 2.052 . S
Co5 O13 2.135 . S
O6 Co5 2.061 . S
O6 C9 1.235 . S
C7 O10 1.238 . S
C7 O11 1.241 . S
C8 O1 1.247 . S
C8 O2 1.261 . S
C9 O4 1.259 . S
C9 O6 1.235 . S
O10 Co0 2.021 . S
O10 C7 1.238 . S
O11 Co5 2.052 . S
O11 C7 1.241 . S
O12 Co0 2.137 . S
O12 C3 1.247 . S
O13 Co0 2.244 . S
O13 C3 1.272 . S
O13 Co5 2.135 . S
Co14 O15 2.216 . S
Co14 O16 2.094 1_545 S
Co14 O18 2.004 1_545 S
Co14 O24 2.021 1_545 S
Co14 O26 2.137 . S
Co14 O27 2.244 . S
O15 Co14 2.216 . S
O15 C22 1.247 . S
O16 Co14 2.094 1_565 S
O16 C22 1.255 1_565 S
C17 O26 1.247 . S
C17 O27 1.272 . S
O18 Co14 2.004 1_565 S
O18 C23 1.259 . S
Co19 O20 2.061 1_545 S
Co19 O25 2.031 . S
Co19 O27 2.135 . S
O20 Co19 2.061 1_565 S
O20 C23 1.235 . S
C21 O24 1.238 . S
C21 O25 1.251 1_565 S
C22 O15 1.247 . S
C22 O16 1.255 1_545 S
C23 O18 1.259 . S
C23 O20 1.235 . S
O24 Co14 2.021 1_565 S
O24 C21 1.238 . S
O25 Co19 2.031 . S
O25 C21 1.251 1_545 S
O26 Co14 2.137 . S
O26 C17 1.247 . S
O27 Co14 2.244 . S
O27 C17 1.272 . S
O27 Co19 2.135 . S
Co28 O29 2.216 . S
Co28 O30 2.091 . S
Co28 O32 2.004 1_655 S
Co28 O38 2.021 1_655 S
Co28 O40 2.137 . S
Co28 O41 2.244 . S
O29 Co28 2.216 . S
O29 C36 1.247 . S
O30 Co28 2.091 . S
O30 C36 1.261 . S
C31 O40 1.247 . S
C31 O41 1.272 . S
O32 Co28 2.004 1_455 S
O32 C37 1.259 . S
Co33 O34 2.061 1_655 S
Co33 O39 2.052 . S
Co33 O41 2.135 . S
O34 Co33 2.061 1_455 S
O34 C37 1.235 . S
C35 O38 1.238 . S
C35 O39 1.241 1_455 S
C36 O29 1.247 . S
C36 O30 1.261 . S
C37 O32 1.259 . S
C37 O34 1.235 . S
O38 Co28 2.021 1_455 S
O38 C35 1.238 . S
O39 Co33 2.052 . S
O39 C35 1.241 1_655 S
O40 Co28 2.137 . S
O40 C31 1.247 . S
O41 Co28 2.244 . S
O41 C31 1.272 . S
O41 Co33 2.135 . S
Co42 O43 2.216 . S
Co42 O44 2.091 . S
Co42 O46 2.004 . S
Co42 O52 2.021 . S
Co42 O54 2.137 . S
Co42 O55 2.244 . S
O43 Co42 2.216 . S
O43 C50 1.247 . S
O44 Co42 2.091 . S
O44 C50 1.261 . S
C45 O54 1.247 . S
C45 O55 1.272 . S
O46 Co42 2.004 . S
O46 C51 1.259 . S
Co47 O48 2.061 . S
Co47 O53 2.052 . S
Co47 O55 2.135 . S
O48 Co47 2.061 . S
O48 C51 1.235 . S
C49 O52 1.238 . S
C49 O53 1.241 . S
C50 O43 1.247 . S
C50 O44 1.261 . S
C51 O46 1.259 . S
C51 O48 1.235 . S
O52 Co42 2.021 . S
O52 C49 1.238 . S
O53 Co47 2.052 . S
O53 C49 1.241 . S
O54 Co42 2.137 . S
O54 C45 1.247 . S
O55 Co42 2.244 . S
O55 C45 1.272 . S
O55 Co47 2.135 . S
Co56 O57 2.216 . S
Co56 O58 2.091 . S
Co56 O60 2.004 1_565 S
Co56 O66 2.021 1_565 S
Co56 O68 2.137 . S
Co56 O69 2.244 . S
O57 Co56 2.216 . S
O57 C64 1.247 . S
O58 Co56 2.091 . S
O58 C64 1.261 . S
C59 O68 1.247 . S
C59 O69 1.272 . S
O60 Co56 2.004 1_545 S
O60 C65 1.259 . S
Co61 O62 2.061 1_565 S
Co61 O67 2.052 . S
Co61 O69 2.135 . S
O62 Co61 2.061 1_545 S
O62 C65 1.235 . S
C63 O66 1.238 . S
C63 O67 1.241 1_545 S
C64 O57 1.247 . S
C64 O58 1.261 . S
C65 O60 1.259 . S
C65 O62 1.235 . S
O66 Co56 2.021 1_545 S
O66 C63 1.238 . S
O67 Co61 2.052 . S
O67 C63 1.241 1_565 S
O68 Co56 2.137 . S
O68 C59 1.247 . S
O69 Co56 2.244 . S
O69 C59 1.272 . S
O69 Co61 2.135 . S
Co70 O71 2.216 . S
Co70 O72 2.092 1_455 S
Co70 O74 2.004 1_455 S
Co70 O80 2.021 1_455 S
Co70 O82 2.137 . S
Co70 O83 2.244 . S
O71 Co70 2.216 . S
O71 C78 1.247 . S
O72 Co70 2.092 1_655 S
O72 C78 1.258 1_655 S
C73 O82 1.247 . S
C73 O83 1.272 . S
O74 Co70 2.004 1_655 S
O74 C79 1.259 . S
Co75 O76 2.061 1_455 S
Co75 O81 2.029 . S
Co75 O83 2.135 . S
O76 Co75 2.061 1_655 S
O76 C79 1.235 . S
C77 O80 1.238 . S
C77 O81 1.252 1_655 S
C78 O71 1.247 . S
C78 O72 1.258 1_455 S
C79 O74 1.259 . S
C79 O76 1.235 . S
O80 Co70 2.021 1_655 S
O80 C77 1.238 . S
O81 Co75 2.029 . S
O81 C77 1.252 1_455 S
O82 Co70 2.137 . S
O82 C73 1.247 . S
O83 Co70 2.244 . S
O83 C73 1.272 . S
O83 Co75 2.135 . S
Co84 O85 2.216 . S
Co84 O86 2.091 . S
Co84 O88 2.004 . S
Co84 O94 2.021 . S
Co84 O96 2.137 . S
Co84 O97 2.244 . S
O85 Co84 2.216 . S
O85 C92 1.247 . S
O86 Co84 2.091 . S
O86 C92 1.261 . S
C87 O96 1.247 . S
C87 O97 1.272 . S
O88 Co84 2.004 . S
O88 C93 1.259 . S
Co89 O90 2.061 . S
Co89 O95 2.052 . S
Co89 O97 2.135 . S
O90 Co89 2.061 . S
O90 C93 1.235 . S
C91 O94 1.238 . S
C91 O95 1.241 . S
C92 O85 1.247 . S
C92 O86 1.261 . S
C93 O88 1.259 . S
C93 O90 1.235 . S
O94 Co84 2.021 . S
O94 C91 1.238 . S
O95 Co89 2.052 . S
O95 C91 1.241 . S
O96 Co84 2.137 . S
O96 C87 1.247 . S
O97 Co84 2.244 . S
O97 C87 1.272 . S
O97 Co89 2.135 . S
Co98 O99 2.216 . S
Co98 O100 2.091 . S
Co98 O102 2.004 . S
Co98 O108 2.021 . S
Co98 O110 2.137 . S
Co98 O111 2.244 . S
O99 Co98 2.216 . S
O99 C106 1.247 . S
O100 Co98 2.091 . S
O100 C106 1.261 . S
C101 O110 1.247 . S
C101 O111 1.272 . S
O102 Co98 2.004 . S
O102 C107 1.259 . S
Co103 O104 2.061 . S
Co103 O109 2.052 . S
Co103 O111 2.135 . S
O104 Co103 2.061 . S
O104 C107 1.235 . S
C105 O108 1.238 . S
C105 O109 1.241 . S
C106 O99 1.247 . S
C106 O100 1.261 . S
C107 O102 1.259 . S
C107 O104 1.235 . S
O108 Co98 2.021 . S
O108 C105 1.238 . S
O109 Co103 2.052 . S
O109 C105 1.241 . S
O110 Co98 2.137 . S
O110 C101 1.247 . S
O111 Co98 2.244 . S
O111 C101 1.272 . S
O111 Co103 2.135 . S
Co112 O113 2.216 . S
Co112 O114 2.091 . S
Co112 O116 2.004 . S
Co112 O122 2.021 . S
Co112 O124 2.137 . S
Co112 O125 2.244 . S
O113 Co112 2.216 . S
O113 C120 1.247 . S
O114 Co112 2.091 . S
O114 C120 1.261 . S
C115 O124 1.247 . S
C115 O125 1.272 . S
O116 Co112 2.004 . S
O116 C121 1.259 . S
Co117 O118 2.061 . S
Co117 O123 2.052 . S
Co117 O125 2.135 . S
O118 Co117 2.061 . S
O118 C121 1.235 . S
C119 O122 1.238 . S
C119 O123 1.241 . S
C120 O113 1.247 . S
C120 O114 1.261 . S
C121 O116 1.259 . S
C121 O118 1.235 . S
O122 Co112 2.021 . S
O122 C119 1.238 . S
O123 Co117 2.052 . S
O123 C119 1.241 . S
O124 Co112 2.137 . S
O124 C115 1.247 . S
O125 Co112 2.244 . S
O125 C115 1.272 . S
O125 Co117 2.135 . S
Co126 O127 2.216 . S
Co126 O128 2.091 . S
Co126 O130 2.004 . S
Co126 O136 2.021 . S
Co126 O138 2.137 . S
Co126 O139 2.244 . S
O127 Co126 2.216 . S
O127 C134 1.247 . S
O128 Co126 2.091 . S
O128 C134 1.261 . S
C129 O138 1.247 . S
C129 O139 1.272 . S
O130 Co126 2.004 . S
O130 C135 1.259 . S
Co131 O132 2.061 . S
Co131 O137 2.052 . S
Co131 O139 2.135 . S
O132 Co131 2.061 . S
O132 C135 1.235 . S
C133 O136 1.238 . S
C133 O137 1.241 . S
C134 O127 1.247 . S
C134 O128 1.261 . S
C135 O130 1.259 . S
C135 O132 1.235 . S
O136 Co126 2.021 . S
O136 C133 1.238 . S
O137 Co131 2.052 . S
O137 C133 1.241 . S
O138 Co126 2.137 . S
O138 C129 1.247 . S
O139 Co126 2.244 . S
O139 C129 1.272 . S
O139 Co131 2.135 . S
Co140 O141 2.216 . S
Co140 O142 2.091 . S
Co140 O144 2.004 . S
Co140 O150 2.021 . S
Co140 O152 2.137 . S
Co140 O153 2.244 . S
O141 Co140 2.216 . S
O141 C148 1.247 . S
O142 Co140 2.091 . S
O142 C148 1.261 . S
C143 O152 1.247 . S
C143 O153 1.272 . S
O144 Co140 2.004 . S
O144 C149 1.259 . S
Co145 O146 2.061 . S
Co145 O151 2.052 . S
Co145 O153 2.135 . S
O146 Co145 2.061 . S
O146 C149 1.235 . S
C147 O150 1.238 . S
C147 O151 1.241 . S
C148 O141 1.247 . S
C148 O142 1.261 . S
C149 O144 1.259 . S
C149 O146 1.235 . S
O150 Co140 2.021 . S
O150 C147 1.238 . S
O151 Co145 2.052 . S
O151 C147 1.241 . S
O152 Co140 2.137 . S
O152 C143 1.247 . S
O153 Co140 2.244 . S
O153 C143 1.272 . S
O153 Co145 2.135 . S
Co154 O155 2.216 . S
Co154 O156 2.091 . S
Co154 O158 2.004 . S
Co154 O164 2.021 . S
Co154 O166 2.137 . S
Co154 O167 2.244 . S
O155 Co154 2.216 . S
O155 C162 1.247 . S
O156 Co154 2.091 . S
O156 C162 1.261 . S
C157 O166 1.247 . S
C157 O167 1.272 . S
O158 Co154 2.004 . S
O158 C163 1.259 . S
Co159 O160 2.061 . S
Co159 O165 2.052 . S
Co159 O167 2.135 . S
O160 Co159 2.061 . S
O160 C163 1.235 . S
C161 O164 1.238 . S
C161 O165 1.241 . S
C162 O155 1.247 . S
C162 O156 1.261 . S
C163 O158 1.259 . S
C163 O160 1.235 . S
O164 Co154 2.021 . S
O164 C161 1.238 . S
O165 Co159 2.052 . S
O165 C161 1.241 . S
O166 Co154 2.137 . S
O166 C157 1.247 . S
O167 Co154 2.244 . S
O167 C157 1.272 . S
O167 Co159 2.135 . S
Co168 O169 2.216 . S
Co168 O170 2.091 . S
Co168 O172 2.004 . S
Co168 O178 2.021 . S
Co168 O180 2.137 . S
Co168 O181 2.244 . S
O169 Co168 2.216 . S
O169 C176 1.247 . S
O170 Co168 2.091 . S
O170 C176 1.261 . S
C171 O180 1.247 . S
C171 O181 1.272 . S
O172 Co168 2.004 . S
O172 C177 1.259 . S
Co173 O174 2.061 . S
Co173 O179 2.052 . S
Co173 O181 2.135 . S
O174 Co173 2.061 . S
O174 C177 1.235 . S
C175 O178 1.238 . S
C175 O179 1.241 . S
C176 O169 1.247 . S
C176 O170 1.261 . S
C177 O172 1.259 . S
C177 O174 1.235 . S
O178 Co168 2.021 . S
O178 C175 1.238 . S
O179 Co173 2.052 . S
O179 C175 1.241 . S
O180 Co168 2.137 . S
O180 C171 1.247 . S
O181 Co168 2.244 . S
O181 C171 1.272 . S
O181 Co173 2.135 . S
Co182 O183 2.216 . S
Co182 O184 2.091 . S
Co182 O186 2.004 . S
Co182 O192 2.021 . S
Co182 O194 2.137 . S
Co182 O195 2.244 . S
O183 Co182 2.216 . S
O183 C190 1.247 . S
O184 Co182 2.091 . S
O184 C190 1.261 . S
C185 O194 1.247 . S
C185 O195 1.272 . S
O186 Co182 2.004 . S
O186 C191 1.259 . S
Co187 O188 2.061 . S
Co187 O193 2.052 . S
Co187 O195 2.135 . S
O188 Co187 2.061 . S
O188 C191 1.235 . S
C189 O192 1.238 . S
C189 O193 1.241 . S
C190 O183 1.247 . S
C190 O184 1.261 . S
C191 O186 1.259 . S
C191 O188 1.235 . S
O192 Co182 2.021 . S
O192 C189 1.238 . S
O193 Co187 2.052 . S
O193 C189 1.241 . S
O194 Co182 2.137 . S
O194 C185 1.247 . S
O195 Co182 2.244 . S
O195 C185 1.272 . S
O195 Co187 2.135 . S
Co196 O197 2.216 . S
Co196 O198 2.091 . S
Co196 O200 2.004 . S
Co196 O206 2.021 . S
Co196 O208 2.137 . S
Co196 O209 2.244 . S
O197 Co196 2.216 . S
O197 C204 1.247 . S
O198 Co196 2.091 . S
O198 C204 1.261 . S
C199 O208 1.247 . S
C199 O209 1.272 . S
O200 Co196 2.004 . S
O200 C205 1.259 . S
Co201 O202 2.061 . S
Co201 O207 2.052 . S
Co201 O209 2.135 . S
O202 Co201 2.061 . S
O202 C205 1.235 . S
C203 O206 1.238 . S
C203 O207 1.241 . S
C204 O197 1.247 . S
C204 O198 1.261 . S
C205 O200 1.259 . S
C205 O202 1.235 . S
O206 Co196 2.021 . S
O206 C203 1.238 . S
O207 Co201 2.052 . S
O207 C203 1.241 . S
O208 Co196 2.137 . S
O208 C199 1.247 . S
O209 Co196 2.244 . S
O209 C199 1.272 . S
O209 Co201 2.135 . S
Co210 O211 2.216 . S
Co210 O212 2.091 . S
Co210 O214 2.004 . S
Co210 O220 2.021 . S
Co210 O222 2.137 . S
Co210 O223 2.244 . S
O211 Co210 2.216 . S
O211 C218 1.247 . S
O212 Co210 2.091 . S
O212 C218 1.261 . S
C213 O222 1.247 . S
C213 O223 1.272 . S
O214 Co210 2.004 . S
O214 C219 1.259 . S
Co215 O216 2.061 . S
Co215 O221 2.052 . S
Co215 O223 2.135 . S
O216 Co215 2.061 . S
O216 C219 1.235 . S
C217 O220 1.238 . S
C217 O221 1.241 . S
C218 O211 1.247 . S
C218 O212 1.261 . S
C219 O214 1.259 . S
C219 O216 1.235 . S
O220 Co210 2.021 . S
O220 C217 1.238 . S
O221 Co215 2.052 . S
O221 C217 1.241 . S
O222 Co210 2.137 . S
O222 C213 1.247 . S
O223 Co210 2.244 . S
O223 C213 1.272 . S
O223 Co215 2.135 . S
Co224 O225 2.216 . S
Co224 O226 2.091 . S
Co224 O228 2.004 . S
Co224 O234 2.021 . S
Co224 O236 2.137 . S
Co224 O237 2.244 . S
O225 Co224 2.216 . S
O225 C232 1.247 . S
O226 Co224 2.091 . S
O226 C232 1.261 . S
C227 O236 1.247 . S
C227 O237 1.272 . S
O228 Co224 2.004 . S
O228 C233 1.259 . S
Co229 O230 2.061 . S
Co229 O235 2.052 . S
Co229 O237 2.135 . S
O230 Co229 2.061 . S
O230 C233 1.235 . S
C231 O234 1.238 . S
C231 O235 1.241 . S
C232 O225 1.247 . S
C232 O226 1.261 . S
C233 O228 1.259 . S
C233 O230 1.235 . S
O234 Co224 2.021 . S
O234 C231 1.238 . S
O235 Co229 2.052 . S
O235 C231 1.241 . S
O236 Co224 2.137 . S
O236 C227 1.247 . S
O237 Co224 2.244 . S
O237 C227 1.272 . S
O237 Co229 2.135 . S
Co238 O239 2.216 . S
Co238 O240 2.091 . S
Co238 O242 2.004 . S
Co238 O248 2.021 . S
Co238 O250 2.137 . S
Co238 O251 2.244 . S
O239 Co238 2.216 . S
O239 C246 1.247 . S
O240 Co238 2.091 . S
O240 C246 1.261 . S
C241 O250 1.247 . S
C241 O251 1.272 . S
O242 Co238 2.004 . S
O242 C247 1.259 . S
Co243 O244 2.061 . S
Co243 O249 2.052 . S
Co243 O251 2.135 . S
O244 Co243 2.061 . S
O244 C247 1.235 . S
C245 O248 1.238 . S
C245 O249 1.241 . S
C246 O239 1.247 . S
C246 O240 1.261 . S
C247 O242 1.259 . S
C247 O244 1.235 . S
O248 Co238 2.021 . S
O248 C245 1.238 . S
O249 Co243 2.052 . S
O249 C245 1.241 . S
O250 Co238 2.137 . S
O250 C241 1.247 . S
O251 Co238 2.244 . S
O251 C241 1.272 . S
O251 Co243 2.135 . S
C252 C253 1.349 . S
C252 C254 1.327 . S
C252 H277 0.950 . S
C253 C252 1.349 . S
C253 C269 1.349 . S
C254 C252 1.327 . S
C254 C273 1.429 . S
C254 H278 0.950 . S
C255 C272 1.574 . S
C255 C274 1.368 . S
C255 H279 0.949 . S
H256 C260 0.949 . S
C257 C258 1.349 . S
C257 C259 1.327 . S
C257 H280 0.950 . S
C258 C257 1.349 . S
C258 C270 1.349 . S
C259 C257 1.327 . S
C259 C275 1.429 . S
C259 H281 0.950 . S
C260 H256 0.949 . S
C260 C268 1.574 . S
C260 C276 1.368 . S
H261 C269 0.950 . S
H262 C267 0.950 . S
H263 C268 0.949 . S
H264 C270 0.950 . S
H265 C271 0.950 . S
H266 C272 0.949 . S
C267 H262 0.950 . S
C267 C269 1.327 . S
C267 C273 1.429 . S
C268 C260 1.574 . S
C268 H263 0.949 . S
C268 C274 1.368 . S
C269 C253 1.349 . S
C269 H261 0.950 . S
C269 C267 1.327 . S
C270 C258 1.349 . S
C270 H264 0.950 . S
C270 C271 1.327 . S
C271 H265 0.950 . S
C271 C270 1.327 . S
C271 C275 1.429 . S
C272 C255 1.574 . S
C272 H266 0.949 . S
C272 C276 1.368 . S
C273 C254 1.429 . S
C273 C267 1.429 . S
C273 C274 1.523 . S
C274 C255 1.368 . S
C274 C268 1.368 . S
C274 C273 1.523 . S
C275 C259 1.429 . S
C275 C271 1.429 . S
C275 C276 1.523 . S
C276 C260 1.368 . S
C276 C272 1.368 . S
C276 C275 1.523 . S
H277 C252 0.950 . S
H278 C254 0.950 . S
H279 C255 0.949 . S
H280 C257 0.950 . S
H281 C259 0.950 . S
C282 C283 1.349 . S
C282 C284 1.327 . S
C282 H307 0.950 . S
C283 C282 1.349 . S
C283 C299 1.349 . S
C284 C282 1.327 . S
C284 C303 1.429 . S
C284 H308 0.950 . S
C285 C302 1.574 . S
C285 C304 1.368 . S
C285 H309 0.949 . S
H286 C290 0.949 . S
C287 C288 1.349 . S
C287 C289 1.327 . S
C287 H310 0.950 . S
C288 C287 1.349 . S
C288 C300 1.349 . S
C289 C287 1.327 . S
C289 C305 1.429 . S
C289 H311 0.950 . S
C290 H286 0.949 . S
C290 C298 1.574 . S
C290 C306 1.368 . S
H291 C299 0.950 . S
H292 C297 0.950 . S
H293 C298 0.949 . S
H294 C300 0.950 . S
H295 C301 0.950 . S
H296 C302 0.949 . S
C297 H292 0.950 . S
C297 C299 1.327 . S
C297 C303 1.429 . S
C298 C290 1.574 . S
C298 H293 0.949 . S
C298 C304 1.368 . S
C299 C283 1.349 . S
C299 H291 0.950 . S
C299 C297 1.327 . S
C300 C288 1.349 . S
C300 H294 0.950 . S
C300 C301 1.327 . S
C301 H295 0.950 . S
C301 C300 1.327 . S
C301 C305 1.429 . S
C302 C285 1.574 . S
C302 H296 0.949 . S
C302 C306 1.368 . S
C303 C284 1.429 . S
C303 C297 1.429 . S
C303 C304 1.523 . S
C304 C285 1.368 . S
C304 C298 1.368 . S
C304 C303 1.523 . S
C305 C289 1.429 . S
C305 C301 1.429 . S
C305 C306 1.523 . S
C306 C290 1.368 . S
C306 C302 1.368 . S
C306 C305 1.523 . S
H307 C282 0.950 . S
H308 C284 0.950 . S
H309 C285 0.949 . S
H310 C287 0.950 . S
H311 C289 0.950 . S
C312 C313 1.349 . S
C312 C314 1.327 . S
C312 H337 0.950 . S
C313 C312 1.349 . S
C313 C329 1.349 . S
C314 C312 1.327 . S
C314 C333 1.429 . S
C314 H338 0.950 . S
C315 C332 1.574 . S
C315 C334 1.368 . S
C315 H339 0.949 . S
H316 C320 0.949 . S
C317 C318 1.349 . S
C317 C319 1.327 . S
C317 H340 0.950 . S
C318 C317 1.349 . S
C318 C330 1.349 . S
C319 C317 1.327 . S
C319 C335 1.429 . S
C319 H341 0.950 . S
C320 H316 0.949 . S
C320 C328 1.574 . S
C320 C336 1.368 . S
H321 C329 0.950 . S
H322 C327 0.950 . S
H323 C328 0.949 . S
H324 C330 0.950 . S
H325 C331 0.950 . S
H326 C332 0.949 . S
C327 H322 0.950 . S
C327 C329 1.327 . S
C327 C333 1.429 . S
C328 C320 1.574 . S
C328 H323 0.949 . S
C328 C334 1.368 . S
C329 C313 1.349 . S
C329 H321 0.950 . S
C329 C327 1.327 . S
C330 C318 1.349 . S
C330 H324 0.950 . S
C330 C331 1.327 . S
C331 H325 0.950 . S
C331 C330 1.327 . S
C331 C335 1.429 . S
C332 C315 1.574 . S
C332 H326 0.949 . S
C332 C336 1.368 . S
C333 C314 1.429 . S
C333 C327 1.429 . S
C333 C334 1.523 . S
C334 C315 1.368 . S
C334 C328 1.368 . S
C334 C333 1.523 . S
C335 C319 1.429 . S
C335 C331 1.429 . S
C335 C336 1.523 . S
C336 C320 1.368 . S
C336 C332 1.368 . S
C336 C335 1.523 . S
H337 C312 0.950 . S
H338 C314 0.950 . S
H339 C315 0.949 . S
H340 C317 0.950 . S
H341 C319 0.950 . S
C342 C343 1.349 . S
C342 C344 1.327 . S
C342 H367 0.950 . S
C343 C342 1.349 . S
C343 C359 1.349 . S
C344 C342 1.327 . S
C344 C363 1.429 . S
C344 H368 0.950 . S
C345 C362 1.574 . S
C345 C364 1.368 . S
C345 H369 0.949 . S
H346 C350 0.949 . S
C347 C348 1.349 . S
C347 C349 1.327 . S
C347 H370 0.950 . S
C348 C347 1.349 . S
C348 C360 1.349 . S
C349 C347 1.327 . S
C349 C365 1.429 . S
C349 H371 0.950 . S
C350 H346 0.949 . S
C350 C358 1.574 . S
C350 C366 1.368 . S
H351 C359 0.950 . S
H352 C357 0.950 . S
H353 C358 0.949 . S
H354 C360 0.950 . S
H355 C361 0.950 . S
H356 C362 0.949 . S
C357 H352 0.950 . S
C357 C359 1.327 . S
C357 C363 1.429 . S
C358 C350 1.574 . S
C358 H353 0.949 . S
C358 C364 1.368 . S
C359 C343 1.349 . S
C359 H351 0.950 . S
C359 C357 1.327 . S
C360 C348 1.349 . S
C360 H354 0.950 . S
C360 C361 1.327 . S
C361 H355 0.950 . S
C361 C360 1.327 . S
C361 C365 1.429 . S
C362 C345 1.574 . S
C362 H356 0.949 . S
C362 C366 1.368 . S
C363 C344 1.429 . S
C363 C357 1.429 . S
C363 C364 1.523 . S
C364 C345 1.368 . S
C364 C358 1.368 . S
C364 C363 1.523 . S
C365 C349 1.429 . S
C365 C361 1.429 . S
C365 C366 1.523 . S
C366 C350 1.368 . S
C366 C362 1.368 . S
C366 C365 1.523 . S
H367 C342 0.950 . S
H368 C344 0.950 . S
H369 C345 0.949 . S
H370 C347 0.950 . S
H371 C349 0.950 . S
C372 C373 1.349 . S
C372 C374 1.327 . S
C372 H397 0.950 . S
C373 C372 1.349 . S
C373 C389 1.349 . S
C374 C372 1.327 . S
C374 C393 1.429 . S
C374 H398 0.950 . S
C375 C392 1.574 . S
C375 C394 1.368 . S
C375 H399 0.949 . S
H376 C380 0.949 . S
C377 C378 1.349 . S
C377 C379 1.327 . S
C377 H400 0.950 . S
C378 C377 1.349 . S
C378 C390 1.349 . S
C379 C377 1.327 . S
C379 C395 1.429 . S
C379 H401 0.950 . S
C380 H376 0.949 . S
C380 C388 1.574 . S
C380 C396 1.368 . S
H381 C389 0.950 . S
H382 C387 0.950 . S
H383 C388 0.949 . S
H384 C390 0.950 . S
H385 C391 0.950 . S
H386 C392 0.949 . S
C387 H382 0.950 . S
C387 C389 1.327 . S
C387 C393 1.429 . S
C388 C380 1.574 . S
C388 H383 0.949 . S
C388 C394 1.368 . S
C389 C373 1.349 . S
C389 H381 0.950 . S
C389 C387 1.327 . S
C390 C378 1.349 . S
C390 H384 0.950 . S
C390 C391 1.327 . S
C391 H385 0.950 . S
C391 C390 1.327 . S
C391 C395 1.429 . S
C392 C375 1.574 . S
C392 H386 0.949 . S
C392 C396 1.368 . S
C393 C374 1.429 . S
C393 C387 1.429 . S
C393 C394 1.523 . S
C394 C375 1.368 . S
C394 C388 1.368 . S
C394 C393 1.523 . S
C395 C379 1.429 . S
C395 C391 1.429 . S
C395 C396 1.523 . S
C396 C380 1.368 . S
C396 C392 1.368 . S
C396 C395 1.523 . S
H397 C372 0.950 . S
H398 C374 0.950 . S
H399 C375 0.949 . S
H400 C377 0.950 . S
H401 C379 0.950 . S
C402 C403 1.349 . S
C402 C404 1.327 . S
C402 H427 0.950 . S
C403 C402 1.349 . S
C403 C419 1.349 . S
C404 C402 1.327 . S
C404 C423 1.429 . S
C404 H428 0.950 . S
C405 C422 1.574 . S
C405 C424 1.368 . S
C405 H429 0.949 . S
H406 C410 0.949 . S
C407 C408 1.349 . S
C407 C409 1.327 . S
C407 H430 0.950 . S
C408 C407 1.349 . S
C408 C420 1.349 . S
C409 C407 1.327 . S
C409 C425 1.429 . S
C409 H431 0.950 . S
C410 H406 0.949 . S
C410 C418 1.574 . S
C410 C426 1.368 . S
H411 C419 0.950 . S
H412 C417 0.950 . S
H413 C418 0.949 . S
H414 C420 0.950 . S
H415 C421 0.950 . S
H416 C422 0.949 . S
C417 H412 0.950 . S
C417 C419 1.327 . S
C417 C423 1.429 . S
C418 C410 1.574 . S
C418 H413 0.949 . S
C418 C424 1.368 . S
C419 C403 1.349 . S
C419 H411 0.950 . S
C419 C417 1.327 . S
C420 C408 1.349 . S
C420 H414 0.950 . S
C420 C421 1.327 . S
C421 H415 0.950 . S
C421 C420 1.327 . S
C421 C425 1.429 . S
C422 C405 1.574 . S
C422 H416 0.949 . S
C422 C426 1.368 . S
C423 C404 1.429 . S
C423 C417 1.429 . S
C423 C424 1.523 . S
C424 C405 1.368 . S
C424 C418 1.368 . S
C424 C423 1.523 . S
C425 C409 1.429 . S
C425 C421 1.429 . S
C425 C426 1.523 . S
C426 C410 1.368 . S
C426 C422 1.368 . S
C426 C425 1.523 . S
H427 C402 0.950 . S
H428 C404 0.950 . S
H429 C405 0.949 . S
H430 C407 0.950 . S
H431 C409 0.950 . S
C432 C433 1.349 . S
C432 C434 1.327 . S
C432 H457 0.950 . S
C433 C432 1.349 . S
C433 C449 1.349 . S
C434 C432 1.327 . S
C434 C453 1.429 . S
C434 H458 0.950 . S
C435 C452 1.574 1_655 S
C435 C454 1.368 . S
C435 H459 0.949 . S
H436 C440 0.949 . S
C437 C438 1.349 . S
C437 C439 1.327 . S
C437 H460 0.950 . S
C438 C437 1.349 . S
C438 C450 1.349 . S
C439 C437 1.327 . S
C439 C455 1.429 . S
C439 H461 0.950 . S
C440 H436 0.949 . S
C440 C448 1.574 1_455 S
C440 C456 1.368 . S
H441 C449 0.950 . S
H442 C447 0.950 . S
H443 C448 0.949 . S
H444 C450 0.950 . S
H445 C451 0.950 . S
H446 C452 0.949 . S
C447 H442 0.950 . S
C447 C449 1.327 . S
C447 C453 1.429 . S
C448 C440 1.574 1_655 S
C448 H443 0.949 . S
C448 C454 1.368 . S
C449 C433 1.349 . S
C449 H441 0.950 . S
C449 C447 1.327 . S
C450 C438 1.349 . S
C450 H444 0.950 . S
C450 C451 1.327 . S
C451 H445 0.950 . S
C451 C450 1.327 . S
C451 C455 1.429 . S
C452 C435 1.574 1_455 S
C452 H446 0.949 . S
C452 C456 1.368 . S
C453 C434 1.429 . S
C453 C447 1.429 . S
C453 C454 1.523 . S
C454 C435 1.368 . S
C454 C448 1.368 . S
C454 C453 1.523 . S
C455 C439 1.429 . S
C455 C451 1.429 . S
C455 C456 1.523 . S
C456 C440 1.368 . S
C456 C452 1.368 . S
C456 C455 1.523 . S
H457 C432 0.950 . S
H458 C434 0.950 . S
H459 C435 0.949 . S
H460 C437 0.950 . S
H461 C439 0.950 . S
C462 C463 1.349 . S
C462 C464 1.327 . S
C462 H487 0.950 . S
C463 C462 1.349 . S
C463 C479 1.349 . S
C464 C462 1.327 . S
C464 C483 1.429 . S
C464 H488 0.950 . S
C465 C482 1.574 . S
C465 C484 1.368 . S
C465 H489 0.949 . S
H466 C470 0.949 . S
C467 C468 1.349 . S
C467 C469 1.327 . S
C467 H490 0.950 . S
C468 C467 1.349 . S
C468 C480 1.349 . S
C469 C467 1.327 . S
C469 C485 1.429 . S
C469 H491 0.950 . S
C470 H466 0.949 . S
C470 C478 1.574 . S
C470 C486 1.368 . S
H471 C479 0.950 . S
H472 C477 0.950 . S
H473 C478 0.949 . S
H474 C480 0.950 . S
H475 C481 0.950 . S
H476 C482 0.949 . S
C477 H472 0.950 . S
C477 C479 1.327 . S
C477 C483 1.429 . S
C478 C470 1.574 . S
C478 H473 0.949 . S
C478 C484 1.368 . S
C479 C463 1.349 . S
C479 H471 0.950 . S
C479 C477 1.327 . S
C480 C468 1.349 . S
C480 H474 0.950 . S
C480 C481 1.327 . S
C481 H475 0.950 . S
C481 C480 1.327 . S
C481 C485 1.429 . S
C482 C465 1.574 . S
C482 H476 0.949 . S
C482 C486 1.368 . S
C483 C464 1.429 . S
C483 C477 1.429 . S
C483 C484 1.523 . S
C484 C465 1.368 . S
C484 C478 1.368 . S
C484 C483 1.523 . S
C485 C469 1.429 . S
C485 C481 1.429 . S
C485 C486 1.523 . S
C486 C470 1.368 . S
C486 C482 1.368 . S
C486 C485 1.523 . S
H487 C462 0.950 . S
H488 C464 0.950 . S
H489 C465 0.949 . S
H490 C467 0.950 . S
H491 C469 0.950 . S
C492 C493 1.349 . S
C492 C494 1.327 . S
C492 H517 0.950 . S
C493 C492 1.349 . S
C493 C509 1.349 . S
C494 C492 1.327 . S
C494 C513 1.429 . S
C494 H518 0.950 . S
C495 C512 1.574 1_545 S
C495 C514 1.368 . S
C495 H519 0.949 . S
H496 C500 0.949 . S
C497 C498 1.349 . S
C497 C499 1.327 . S
C497 H520 0.950 . S
C498 C497 1.349 . S
C498 C510 1.349 . S
C499 C497 1.327 . S
C499 C515 1.429 . S
C499 H521 0.950 . S
C500 H496 0.949 . S
C500 C508 1.574 1_565 S
C500 C516 1.368 . S
H501 C509 0.950 . S
H502 C507 0.950 . S
H503 C508 0.949 . S
H504 C510 0.950 . S
H505 C511 0.950 . S
H506 C512 0.949 . S
C507 H502 0.950 . S
C507 C509 1.327 . S
C507 C513 1.429 . S
C508 C500 1.574 1_545 S
C508 H503 0.949 . S
C508 C514 1.368 . S
C509 C493 1.349 . S
C509 H501 0.950 . S
C509 C507 1.327 . S
C510 C498 1.349 . S
C510 H504 0.950 . S
C510 C511 1.327 . S
C511 H505 0.950 . S
C511 C510 1.327 . S
C511 C515 1.429 . S
C512 C495 1.574 1_565 S
C512 H506 0.949 . S
C512 C516 1.368 . S
C513 C494 1.429 . S
C513 C507 1.429 . S
C513 C514 1.523 . S
C514 C495 1.368 . S
C514 C508 1.368 . S
C514 C513 1.523 . S
C515 C499 1.429 . S
C515 C511 1.429 . S
C515 C516 1.523 . S
C516 C500 1.368 . S
C516 C512 1.368 . S
C516 C515 1.523 . S
H517 C492 0.950 . S
H518 C494 0.950 . S
H519 C495 0.949 . S
H520 C497 0.950 . S
H521 C499 0.950 . S
C522 C523 1.349 . S
C522 C524 1.327 . S
C522 H547 0.950 . S
C523 C522 1.349 . S
C523 C539 1.349 . S
C524 C522 1.327 . S
C524 C543 1.429 . S
C524 H548 0.950 . S
C525 C542 1.574 1_455 S
C525 C544 1.368 . S
C525 H549 0.949 . S
H526 C530 0.949 . S
C527 C528 1.349 . S
C527 C529 1.327 . S
C527 H550 0.950 . S
C528 C527 1.349 . S
C528 C540 1.349 . S
C529 C527 1.327 . S
C529 C545 1.429 . S
C529 H551 0.950 . S
C530 H526 0.949 . S
C530 C538 1.574 1_655 S
C530 C546 1.368 . S
H531 C539 0.950 . S
H532 C537 0.950 . S
H533 C538 0.949 . S
H534 C540 0.950 . S
H535 C541 0.950 . S
H536 C542 0.949 . S
C537 H532 0.950 . S
C537 C539 1.327 . S
C537 C543 1.429 . S
C538 C530 1.574 1_455 S
C538 H533 0.949 . S
C538 C544 1.368 . S
C539 C523 1.349 . S
C539 H531 0.950 . S
C539 C537 1.327 . S
C540 C528 1.349 . S
C540 H534 0.950 . S
C540 C541 1.327 . S
C541 H535 0.950 . S
C541 C540 1.327 . S
C541 C545 1.429 . S
C542 C525 1.574 1_655 S
C542 H536 0.949 . S
C542 C546 1.368 . S
C543 C524 1.429 . S
C543 C537 1.429 . S
C543 C544 1.523 . S
C544 C525 1.368 . S
C544 C538 1.368 . S
C544 C543 1.523 . S
C545 C529 1.429 . S
C545 C541 1.429 . S
C545 C546 1.523 . S
C546 C530 1.368 . S
C546 C542 1.368 . S
C546 C545 1.523 . S
H547 C522 0.950 . S
H548 C524 0.950 . S
H549 C525 0.949 . S
H550 C527 0.950 . S
H551 C529 0.950 . S
C552 C553 1.349 . S
C552 C554 1.327 . S
C552 H577 0.950 . S
C553 C552 1.349 . S
C553 C569 1.349 . S
C554 C552 1.327 . S
C554 C573 1.429 . S
C554 H578 0.950 . S
C555 C572 1.574 . S
C555 C574 1.368 . S
C555 H579 0.949 . S
H556 C560 0.949 . S
C557 C558 1.349 . S
C557 C559 1.327 . S
C557 H580 0.950 . S
C558 C557 1.349 . S
C558 C570 1.349 . S
C559 C557 1.327 . S
C559 C575 1.429 . S
C559 H581 0.950 . S
C560 H556 0.949 . S
C560 C568 1.574 . S
C560 C576 1.368 . S
H561 C569 0.950 . S
H562 C567 0.950 . S
H563 C568 0.949 . S
H564 C570 0.950 . S
H565 C571 0.950 . S
H566 C572 0.949 . S
C567 H562 0.950 . S
C567 C569 1.327 . S
C567 C573 1.429 . S
C568 C560 1.574 . S
C568 H563 0.949 . S
C568 C574 1.368 . S
C569 C553 1.349 . S
C569 H561 0.950 . S
C569 C567 1.327 . S
C570 C558 1.349 . S
C570 H564 0.950 . S
C570 C571 1.327 . S
C571 H565 0.950 . S
C571 C570 1.327 . S
C571 C575 1.429 . S
C572 C555 1.574 . S
C572 H566 0.949 . S
C572 C576 1.368 . S
C573 C554 1.429 . S
C573 C567 1.429 . S
C573 C574 1.523 . S
C574 C555 1.368 . S
C574 C568 1.368 . S
C574 C573 1.523 . S
C575 C559 1.429 . S
C575 C571 1.429 . S
C575 C576 1.523 . S
C576 C560 1.368 . S
C576 C572 1.368 . S
C576 C575 1.523 . S
H577 C552 0.950 . S
H578 C554 0.950 . S
H579 C555 0.949 . S
H580 C557 0.950 . S
H581 C559 0.950 . S
C582 C583 1.349 . S
C582 C584 1.327 . S
C582 H607 0.950 . S
C583 C582 1.349 . S
C583 C599 1.349 . S
C584 C582 1.327 . S
C584 C603 1.429 . S
C584 H608 0.950 . S
C585 C602 1.574 1_545 S
C585 C604 1.368 . S
C585 H609 0.949 . S
H586 C590 0.949 . S
C587 C588 1.349 . S
C587 C589 1.327 . S
C587 H610 0.950 . S
C588 C587 1.349 . S
C588 C600 1.349 . S
C589 C587 1.327 . S
C589 C605 1.429 . S
C589 H611 0.950 . S
C590 H586 0.949 . S
C590 C598 1.574 1_565 S
C590 C606 1.368 . S
H591 C599 0.950 . S
H592 C597 0.950 . S
H593 C598 0.949 . S
H594 C600 0.950 . S
H595 C601 0.950 . S
H596 C602 0.949 . S
C597 H592 0.950 . S
C597 C599 1.327 . S
C597 C603 1.429 . S
C598 C590 1.574 1_545 S
C598 H593 0.949 . S
C598 C604 1.368 . S
C599 C583 1.349 . S
C599 H591 0.950 . S
C599 C597 1.327 . S
C600 C588 1.349 . S
C600 H594 0.950 . S
C600 C601 1.327 . S
C601 H595 0.950 . S
C601 C600 1.327 . S
C601 C605 1.429 . S
C602 C585 1.574 1_565 S
C602 H596 0.949 . S
C602 C606 1.368 . S
C603 C584 1.429 . S
C603 C597 1.429 . S
C603 C604 1.523 . S
C604 C585 1.368 . S
C604 C598 1.368 . S
C604 C603 1.523 . S
C605 C589 1.429 . S
C605 C601 1.429 . S
C605 C606 1.523 . S
C606 C590 1.368 . S
C606 C602 1.368 . S
C606 C605 1.523 . S
H607 C582 0.950 . S
H608 C584 0.950 . S
H609 C585 0.949 . S
H610 C587 0.950 . S
H611 C589 0.950 . S
C612 C613 1.349 . S
C612 C614 1.327 . S
C612 H637 0.950 . S
C613 C612 1.349 . S
C613 C629 1.349 . S
C614 C612 1.327 . S
C614 C633 1.429 . S
C614 H638 0.950 . S
C615 C632 1.574 1_565 S
C615 C634 1.368 . S
C615 H639 0.949 . S
H616 C620 0.949 . S
C617 C618 1.349 . S
C617 C619 1.327 . S
C617 H640 0.950 . S
C618 C617 1.349 . S
C618 C630 1.349 . S
C619 C617 1.327 . S
C619 C635 1.429 . S
C619 H641 0.950 . S
C620 H616 0.949 . S
C620 C628 1.574 1_545 S
C620 C636 1.368 . S
H621 C629 0.950 . S
H622 C627 0.950 . S
H623 C628 0.949 . S
H624 C630 0.950 . S
H625 C631 0.950 . S
H626 C632 0.949 . S
C627 H622 0.950 . S
C627 C629 1.327 . S
C627 C633 1.429 . S
C628 C620 1.574 1_565 S
C628 H623 0.949 . S
C628 C634 1.368 . S
C629 C613 1.349 . S
C629 H621 0.950 . S
C629 C627 1.327 . S
C630 C618 1.349 . S
C630 H624 0.950 . S
C630 C631 1.327 . S
C631 H625 0.950 . S
C631 C630 1.327 . S
C631 C635 1.429 . S
C632 C615 1.574 1_545 S
C632 H626 0.949 . S
C632 C636 1.368 . S
C633 C614 1.429 . S
C633 C627 1.429 . S
C633 C634 1.523 . S
C634 C615 1.368 . S
C634 C628 1.368 . S
C634 C633 1.523 . S
C635 C619 1.429 . S
C635 C631 1.429 . S
C635 C636 1.523 . S
C636 C620 1.368 . S
C636 C632 1.368 . S
C636 C635 1.523 . S
H637 C612 0.950 . S
H638 C614 0.950 . S
H639 C615 0.949 . S
H640 C617 0.950 . S
H641 C619 0.950 . S
C642 C643 1.349 . S
C642 C644 1.327 . S
C642 H667 0.950 . S
C643 C642 1.349 . S
C643 C659 1.349 . S
C644 C642 1.327 . S
C644 C663 1.429 . S
C644 H668 0.950 . S
C645 C662 1.574 1_455 S
C645 C664 1.368 . S
C645 H669 0.949 . S
H646 C650 0.949 . S
C647 C648 1.349 . S
C647 C649 1.327 . S
C647 H670 0.950 . S
C648 C647 1.349 . S
C648 C660 1.349 . S
C649 C647 1.327 . S
C649 C665 1.429 . S
C649 H671 0.950 . S
C650 H646 0.949 . S
C650 C658 1.574 1_655 S
C650 C666 1.368 . S
H651 C659 0.950 . S
H652 C657 0.950 . S
H653 C658 0.949 . S
H654 C660 0.950 . S
H655 C661 0.950 . S
H656 C662 0.949 . S
C657 H652 0.950 . S
C657 C659 1.327 . S
C657 C663 1.429 . S
C658 C650 1.574 1_455 S
C658 H653 0.949 . S
C658 C664 1.368 . S
C659 C643 1.349 . S
C659 H651 0.950 . S
C659 C657 1.327 . S
C660 C648 1.349 . S
C660 H654 0.950 . S
C660 C661 1.327 . S
C661 H655 0.950 . S
C661 C660 1.327 . S
C661 C665 1.429 . S
C662 C645 1.574 1_655 S
C662 H656 0.949 . S
C662 C666 1.368 . S
C663 C644 1.429 . S
C663 C657 1.429 . S
C663 C664 1.523 . S
C664 C645 1.368 . S
C664 C658 1.368 . S
C664 C663 1.523 . S
C665 C649 1.429 . S
C665 C661 1.429 . S
C665 C666 1.523 . S
C666 C650 1.368 . S
C666 C662 1.368 . S
C666 C665 1.523 . S
H667 C642 0.950 . S
H668 C644 0.950 . S
H669 C645 0.949 . S
H670 C647 0.950 . S
H671 C649 0.950 . S
C672 C673 1.349 . S
C672 C674 1.327 . S
C672 H697 0.950 . S
C673 C672 1.349 . S
C673 C689 1.349 . S
C674 C672 1.327 . S
C674 C693 1.429 . S
C674 H698 0.950 . S
C675 C692 1.574 . S
C675 C694 1.368 . S
C675 H699 0.949 . S
H676 C680 0.949 . S
C677 C678 1.349 . S
C677 C679 1.327 . S
C677 H700 0.950 . S
C678 C677 1.349 . S
C678 C690 1.349 . S
C679 C677 1.327 . S
C679 C695 1.429 . S
C679 H701 0.950 . S
C680 H676 0.949 . S
C680 C688 1.574 . S
C680 C696 1.368 . S
H681 C689 0.950 . S
H682 C687 0.950 . S
H683 C688 0.949 . S
H684 C690 0.950 . S
H685 C691 0.950 . S
H686 C692 0.949 . S
C687 H682 0.950 . S
C687 C689 1.327 . S
C687 C693 1.429 . S
C688 C680 1.574 . S
C688 H683 0.949 . S
C688 C694 1.368 . S
C689 C673 1.349 . S
C689 H681 0.950 . S
C689 C687 1.327 . S
C690 C678 1.349 . S
C690 H684 0.950 . S
C690 C691 1.327 . S
C691 H685 0.950 . S
C691 C690 1.327 . S
C691 C695 1.429 . S
C692 C675 1.574 . S
C692 H686 0.949 . S
C692 C696 1.368 . S
C693 C674 1.429 . S
C693 C687 1.429 . S
C693 C694 1.523 . S
C694 C675 1.368 . S
C694 C688 1.368 . S
C694 C693 1.523 . S
C695 C679 1.429 . S
C695 C691 1.429 . S
C695 C696 1.523 . S
C696 C680 1.368 . S
C696 C692 1.368 . S
C696 C695 1.523 . S
H697 C672 0.950 . S
H698 C674 0.950 . S
H699 C675 0.949 . S
H700 C677 0.950 . S
H701 C679 0.950 . S
C702 C703 1.349 . S
C702 C704 1.327 . S
C702 H727 0.950 . S
C703 C702 1.349 . S
C703 C719 1.349 . S
C704 C702 1.327 . S
C704 C723 1.429 . S
C704 H728 0.950 . S
C705 C722 1.574 . S
C705 C724 1.368 . S
C705 H729 0.949 . S
H706 C710 0.949 . S
C707 C708 1.349 . S
C707 C709 1.327 . S
C707 H730 0.950 . S
C708 C707 1.349 . S
C708 C720 1.349 . S
C709 C707 1.327 . S
C709 C725 1.429 . S
C709 H731 0.950 . S
C710 H706 0.949 . S
C710 C718 1.574 . S
C710 C726 1.368 . S
H711 C719 0.950 . S
H712 C717 0.950 . S
H713 C718 0.949 . S
H714 C720 0.950 . S
H715 C721 0.950 . S
H716 C722 0.949 . S
C717 H712 0.950 . S
C717 C719 1.327 . S
C717 C723 1.429 . S
C718 C710 1.574 . S
C718 H713 0.949 . S
C718 C724 1.368 . S
C719 C703 1.349 . S
C719 H711 0.950 . S
C719 C717 1.327 . S
C720 C708 1.349 . S
C720 H714 0.950 . S
C720 C721 1.327 . S
C721 H715 0.950 . S
C721 C720 1.327 . S
C721 C725 1.429 . S
C722 C705 1.574 . S
C722 H716 0.949 . S
C722 C726 1.368 . S
C723 C704 1.429 . S
C723 C717 1.429 . S
C723 C724 1.523 . S
C724 C705 1.368 . S
C724 C718 1.368 . S
C724 C723 1.523 . S
C725 C709 1.429 . S
C725 C721 1.429 . S
C725 C726 1.523 . S
C726 C710 1.368 . S
C726 C722 1.368 . S
C726 C725 1.523 . S
H727 C702 0.950 . S
H728 C704 0.950 . S
H729 C705 0.949 . S
H730 C707 0.950 . S
H731 C709 0.950 . S
C732 C733 1.349 . S
C732 C734 1.327 . S
C732 H757 0.950 . S
C733 C732 1.349 . S
C733 C749 1.349 . S
C734 C732 1.327 . S
C734 C753 1.429 . S
C734 H758 0.950 . S
C735 C752 1.574 . S
C735 C754 1.368 . S
C735 H759 0.949 . S
H736 C740 0.949 . S
C737 C738 1.349 . S
C737 C739 1.327 . S
C737 H760 0.950 . S
C738 C737 1.349 . S
C738 C750 1.349 . S
C739 C737 1.327 . S
C739 C755 1.429 . S
C739 H761 0.950 . S
C740 H736 0.949 . S
C740 C748 1.574 . S
C740 C756 1.368 . S
H741 C749 0.950 . S
H742 C747 0.950 . S
H743 C748 0.949 . S
H744 C750 0.950 . S
H745 C751 0.950 . S
H746 C752 0.949 . S
C747 H742 0.950 . S
C747 C749 1.327 . S
C747 C753 1.429 . S
C748 C740 1.574 . S
C748 H743 0.949 . S
C748 C754 1.368 . S
C749 C733 1.349 . S
C749 H741 0.950 . S
C749 C747 1.327 . S
C750 C738 1.349 . S
C750 H744 0.950 . S
C750 C751 1.327 . S
C751 H745 0.950 . S
C751 C750 1.327 . S
C751 C755 1.429 . S
C752 C735 1.574 . S
C752 H746 0.949 . S
C752 C756 1.368 . S
C753 C734 1.429 . S
C753 C747 1.429 . S
C753 C754 1.523 . S
C754 C735 1.368 . S
C754 C748 1.368 . S
C754 C753 1.523 . S
C755 C739 1.429 . S
C755 C751 1.429 . S
C755 C756 1.523 . S
C756 C740 1.368 . S
C756 C752 1.368 . S
C756 C755 1.523 . S
H757 C732 0.950 . S
H758 C734 0.950 . S
H759 C735 0.949 . S
H760 C737 0.950 . S
H761 C739 0.950 . S
C762 C763 1.349 . S
C762 C764 1.327 . S
C762 H787 0.950 . S
C763 C762 1.349 . S
C763 C779 1.349 . S
C764 C762 1.327 . S
C764 C783 1.429 . S
C764 H788 0.950 . S
C765 C782 1.574 . S
C765 C784 1.368 . S
C765 H789 0.949 . S
H766 C770 0.949 . S
C767 C768 1.349 . S
C767 C769 1.327 . S
C767 H790 0.950 . S
C768 C767 1.349 . S
C768 C780 1.349 . S
C769 C767 1.327 . S
C769 C785 1.429 . S
C769 H791 0.950 . S
C770 H766 0.949 . S
C770 C778 1.574 . S
C770 C786 1.368 . S
H771 C779 0.950 . S
H772 C777 0.950 . S
H773 C778 0.949 . S
H774 C780 0.950 . S
H775 C781 0.950 . S
H776 C782 0.949 . S
C777 H772 0.950 . S
C777 C779 1.327 . S
C777 C783 1.429 . S
C778 C770 1.574 . S
C778 H773 0.949 . S
C778 C784 1.368 . S
C779 C763 1.349 . S
C779 H771 0.950 . S
C779 C777 1.327 . S
C780 C768 1.349 . S
C780 H774 0.950 . S
C780 C781 1.327 . S
C781 H775 0.950 . S
C781 C780 1.327 . S
C781 C785 1.429 . S
C782 C765 1.574 . S
C782 H776 0.949 . S
C782 C786 1.368 . S
C783 C764 1.429 . S
C783 C777 1.429 . S
C783 C784 1.523 . S
C784 C765 1.368 . S
C784 C778 1.368 . S
C784 C783 1.523 . S
C785 C769 1.429 . S
C785 C781 1.429 . S
C785 C786 1.523 . S
C786 C770 1.368 . S
C786 C782 1.368 . S
C786 C785 1.523 . S
H787 C762 0.950 . S
H788 C764 0.950 . S
H789 C765 0.949 . S
H790 C767 0.950 . S
H791 C769 0.950 . S
C792 C793 1.349 . S
C792 C794 1.327 . S
C792 H817 0.950 . S
C793 C792 1.349 . S
C793 C809 1.349 . S
C794 C792 1.327 . S
C794 C813 1.429 . S
C794 H818 0.950 . S
C795 C812 1.574 . S
C795 C814 1.368 . S
C795 H819 0.949 . S
H796 C800 0.949 . S
C797 C798 1.349 . S
C797 C799 1.327 . S
C797 H820 0.950 . S
C798 C797 1.349 . S
C798 C810 1.349 . S
C799 C797 1.327 . S
C799 C815 1.429 . S
C799 H821 0.950 . S
C800 H796 0.949 . S
C800 C808 1.574 . S
C800 C816 1.368 . S
H801 C809 0.950 . S
H802 C807 0.950 . S
H803 C808 0.949 . S
H804 C810 0.950 . S
H805 C811 0.950 . S
H806 C812 0.949 . S
C807 H802 0.950 . S
C807 C809 1.327 . S
C807 C813 1.429 . S
C808 C800 1.574 . S
C808 H803 0.949 . S
C808 C814 1.368 . S
C809 C793 1.349 . S
C809 H801 0.950 . S
C809 C807 1.327 . S
C810 C798 1.349 . S
C810 H804 0.950 . S
C810 C811 1.327 . S
C811 H805 0.950 . S
C811 C810 1.327 . S
C811 C815 1.429 . S
C812 C795 1.574 . S
C812 H806 0.949 . S
C812 C816 1.368 . S
C813 C794 1.429 . S
C813 C807 1.429 . S
C813 C814 1.523 . S
C814 C795 1.368 . S
C814 C808 1.368 . S
C814 C813 1.523 . S
C815 C799 1.429 . S
C815 C811 1.429 . S
C815 C816 1.523 . S
C816 C800 1.368 . S
C816 C812 1.368 . S
C816 C815 1.523 . S
H817 C792 0.950 . S
H818 C794 0.950 . S
H819 C795 0.949 . S
H820 C797 0.950 . S
H821 C799 0.950 . S
C822 C823 1.349 . S
C822 C824 1.327 . S
C822 H847 0.950 . S
C823 C822 1.349 . S
C823 C839 1.349 . S
C824 C822 1.327 . S
C824 C843 1.429 . S
C824 H848 0.950 . S
C825 C842 1.574 . S
C825 C844 1.368 . S
C825 H849 0.949 . S
H826 C830 0.949 . S
C827 C828 1.349 . S
C827 C829 1.327 . S
C827 H850 0.950 . S
C828 C827 1.349 . S
C828 C840 1.349 . S
C829 C827 1.327 . S
C829 C845 1.429 . S
C829 H851 0.950 . S
C830 H826 0.949 . S
C830 C838 1.574 . S
C830 C846 1.368 . S
H831 C839 0.950 . S
H832 C837 0.950 . S
H833 C838 0.949 . S
H834 C840 0.950 . S
H835 C841 0.950 . S
H836 C842 0.949 . S
C837 H832 0.950 . S
C837 C839 1.327 . S
C837 C843 1.429 . S
C838 C830 1.574 . S
C838 H833 0.949 . S
C838 C844 1.368 . S
C839 C823 1.349 . S
C839 H831 0.950 . S
C839 C837 1.327 . S
C840 C828 1.349 . S
C840 H834 0.950 . S
C840 C841 1.327 . S
C841 H835 0.950 . S
C841 C840 1.327 . S
C841 C845 1.429 . S
C842 C825 1.574 . S
C842 H836 0.949 . S
C842 C846 1.368 . S
C843 C824 1.429 . S
C843 C837 1.429 . S
C843 C844 1.523 . S
C844 C825 1.368 . S
C844 C838 1.368 . S
C844 C843 1.523 . S
C845 C829 1.429 . S
C845 C841 1.429 . S
C845 C846 1.523 . S
C846 C830 1.368 . S
C846 C842 1.368 . S
C846 C845 1.523 . S
H847 C822 0.950 . S
H848 C824 0.950 . S
H849 C825 0.949 . S
H850 C827 0.950 . S
H851 C829 0.950 . S
C852 C853 1.349 . S
C852 C854 1.327 . S
C852 H877 0.950 . S
C853 C852 1.349 . S
C853 C869 1.349 . S
C854 C852 1.327 . S
C854 C873 1.429 . S
C854 H878 0.950 . S
C855 C872 1.574 . S
C855 C874 1.368 . S
C855 H879 0.949 . S
H856 C860 0.949 . S
C857 C858 1.349 . S
C857 C859 1.327 . S
C857 H880 0.950 . S
C858 C857 1.349 . S
C858 C870 1.349 . S
C859 C857 1.327 . S
C859 C875 1.429 . S
C859 H881 0.950 . S
C860 H856 0.949 . S
C860 C868 1.574 . S
C860 C876 1.368 . S
H861 C869 0.950 . S
H862 C867 0.950 . S
H863 C868 0.949 . S
H864 C870 0.950 . S
H865 C871 0.950 . S
H866 C872 0.949 . S
C867 H862 0.950 . S
C867 C869 1.327 . S
C867 C873 1.429 . S
C868 C860 1.574 . S
C868 H863 0.949 . S
C868 C874 1.368 . S
C869 C853 1.349 . S
C869 H861 0.950 . S
C869 C867 1.327 . S
C870 C858 1.349 . S
C870 H864 0.950 . S
C870 C871 1.327 . S
C871 H865 0.950 . S
C871 C870 1.327 . S
C871 C875 1.429 . S
C872 C855 1.574 . S
C872 H866 0.949 . S
C872 C876 1.368 . S
C873 C854 1.429 . S
C873 C867 1.429 . S
C873 C874 1.523 . S
C874 C855 1.368 . S
C874 C868 1.368 . S
C874 C873 1.523 . S
C875 C859 1.429 . S
C875 C871 1.429 . S
C875 C876 1.523 . S
C876 C860 1.368 . S
C876 C872 1.368 . S
C876 C875 1.523 . S
H877 C852 0.950 . S
H878 C854 0.950 . S
H879 C855 0.949 . S
H880 C857 0.950 . S
H881 C859 0.950 . S
C882 C883 1.349 . S
C882 C884 1.327 . S
C882 H907 0.950 . S
C883 C882 1.349 . S
C883 C899 1.349 . S
C884 C882 1.327 . S
C884 C903 1.429 . S
C884 H908 0.950 . S
C885 C902 1.574 . S
C885 C904 1.368 . S
C885 H909 0.949 . S
H886 C890 0.949 . S
C887 C888 1.349 . S
C887 C889 1.327 . S
C887 H910 0.950 . S
C888 C887 1.349 . S
C888 C900 1.349 . S
C889 C887 1.327 . S
C889 C905 1.429 . S
C889 H911 0.950 . S
C890 H886 0.949 . S
C890 C898 1.574 . S
C890 C906 1.368 . S
H891 C899 0.950 . S
H892 C897 0.950 . S
H893 C898 0.949 . S
H894 C900 0.950 . S
H895 C901 0.950 . S
H896 C902 0.949 . S
C897 H892 0.950 . S
C897 C899 1.327 . S
C897 C903 1.429 . S
C898 C890 1.574 . S
C898 H893 0.949 . S
C898 C904 1.368 . S
C899 C883 1.349 . S
C899 H891 0.950 . S
C899 C897 1.327 . S
C900 C888 1.349 . S
C900 H894 0.950 . S
C900 C901 1.327 . S
C901 H895 0.950 . S
C901 C900 1.327 . S
C901 C905 1.429 . S
C902 C885 1.574 . S
C902 H896 0.949 . S
C902 C906 1.368 . S
C903 C884 1.429 . S
C903 C897 1.429 . S
C903 C904 1.523 . S
C904 C885 1.368 . S
C904 C898 1.368 . S
C904 C903 1.523 . S
C905 C889 1.429 . S
C905 C901 1.429 . S
C905 C906 1.523 . S
C906 C890 1.368 . S
C906 C902 1.368 . S
C906 C905 1.523 . S
H907 C882 0.950 . S
H908 C884 0.950 . S
H909 C885 0.949 . S
H910 C887 0.950 . S
H911 C889 0.950 . S
C912 C913 1.349 . S
C912 C914 1.327 . S
C912 H937 0.950 . S
C913 C912 1.349 . S
C913 C929 1.349 . S
C914 C912 1.327 . S
C914 C933 1.429 . S
C914 H938 0.950 . S
C915 C932 1.574 . S
C915 C934 1.368 . S
C915 H939 0.949 . S
H916 C920 0.949 . S
C917 C918 1.349 . S
C917 C919 1.327 . S
C917 H940 0.950 . S
C918 C917 1.349 . S
C918 C930 1.349 . S
C919 C917 1.327 . S
C919 C935 1.429 . S
C919 H941 0.950 . S
C920 H916 0.949 . S
C920 C928 1.574 . S
C920 C936 1.368 . S
H921 C929 0.950 . S
H922 C927 0.950 . S
H923 C928 0.949 . S
H924 C930 0.950 . S
H925 C931 0.950 . S
H926 C932 0.949 . S
C927 H922 0.950 . S
C927 C929 1.327 . S
C927 C933 1.429 . S
C928 C920 1.574 . S
C928 H923 0.949 . S
C928 C934 1.368 . S
C929 C913 1.349 . S
C929 H921 0.950 . S
C929 C927 1.327 . S
C930 C918 1.349 . S
C930 H924 0.950 . S
C930 C931 1.327 . S
C931 H925 0.950 . S
C931 C930 1.327 . S
C931 C935 1.429 . S
C932 C915 1.574 . S
C932 H926 0.949 . S
C932 C936 1.368 . S
C933 C914 1.429 . S
C933 C927 1.429 . S
C933 C934 1.523 . S
C934 C915 1.368 . S
C934 C928 1.368 . S
C934 C933 1.523 . S
C935 C919 1.429 . S
C935 C931 1.429 . S
C935 C936 1.523 . S
C936 C920 1.368 . S
C936 C932 1.368 . S
C936 C935 1.523 . S
H937 C912 0.950 . S
H938 C914 0.950 . S
H939 C915 0.949 . S
H940 C917 0.950 . S
H941 C919 0.950 . S
C942 C943 1.349 . S
C942 C944 1.327 . S
C942 H967 0.950 . S
C943 C942 1.349 . S
C943 C959 1.349 . S
C944 C942 1.327 . S
C944 C963 1.429 . S
C944 H968 0.950 . S
C945 C962 1.574 . S
C945 C964 1.368 . S
C945 H969 0.949 . S
H946 C950 0.949 . S
C947 C948 1.349 . S
C947 C949 1.327 . S
C947 H970 0.950 . S
C948 C947 1.349 . S
C948 C960 1.349 . S
C949 C947 1.327 . S
C949 C965 1.429 . S
C949 H971 0.950 . S
C950 H946 0.949 . S
C950 C958 1.574 . S
C950 C966 1.368 . S
H951 C959 0.950 . S
H952 C957 0.950 . S
H953 C958 0.949 . S
H954 C960 0.950 . S
H955 C961 0.950 . S
H956 C962 0.949 . S
C957 H952 0.950 . S
C957 C959 1.327 . S
C957 C963 1.429 . S
C958 C950 1.574 . S
C958 H953 0.949 . S
C958 C964 1.368 . S
C959 C943 1.349 . S
C959 H951 0.950 . S
C959 C957 1.327 . S
C960 C948 1.349 . S
C960 H954 0.950 . S
C960 C961 1.327 . S
C961 H955 0.950 . S
C961 C960 1.327 . S
C961 C965 1.429 . S
C962 C945 1.574 . S
C962 H956 0.949 . S
C962 C966 1.368 . S
C963 C944 1.429 . S
C963 C957 1.429 . S
C963 C964 1.523 . S
C964 C945 1.368 . S
C964 C958 1.368 . S
C964 C963 1.523 . S
C965 C949 1.429 . S
C965 C961 1.429 . S
C965 C966 1.523 . S
C966 C950 1.368 . S
C966 C962 1.368 . S
C966 C965 1.523 . S
H967 C942 0.950 . S
H968 C944 0.950 . S
H969 C945 0.949 . S
H970 C947 0.950 . S
H971 C949 0.950 . S
C972 C973 1.349 . S
C972 C974 1.327 . S
C972 H997 0.950 . S
C973 C972 1.349 . S
C973 C989 1.349 . S
C974 C972 1.327 . S
C974 C993 1.429 . S
C974 H998 0.950 . S
C975 C992 1.574 . S
C975 C994 1.368 . S
C975 H999 0.949 . S
H976 C980 0.949 . S
C977 C978 1.349 . S
C977 C979 1.327 . S
C977 H1000 0.950 . S
C978 C977 1.349 . S
C978 C990 1.349 . S
C979 C977 1.327 . S
C979 C995 1.429 . S
C979 H1001 0.950 . S
C980 H976 0.949 . S
C980 C988 1.574 . S
C980 C996 1.368 . S
H981 C989 0.950 . S
H982 C987 0.950 . S
H983 C988 0.949 . S
H984 C990 0.950 . S
H985 C991 0.950 . S
H986 C992 0.949 . S
C987 H982 0.950 . S
C987 C989 1.327 . S
C987 C993 1.429 . S
C988 C980 1.574 . S
C988 H983 0.949 . S
C988 C994 1.368 . S
C989 C973 1.349 . S
C989 H981 0.950 . S
C989 C987 1.327 . S
C990 C978 1.349 . S
C990 H984 0.950 . S
C990 C991 1.327 . S
C991 H985 0.950 . S
C991 C990 1.327 . S
C991 C995 1.429 . S
C992 C975 1.574 . S
C992 H986 0.949 . S
C992 C996 1.368 . S
C993 C974 1.429 . S
C993 C987 1.429 . S
C993 C994 1.523 . S
C994 C975 1.368 . S
C994 C988 1.368 . S
C994 C993 1.523 . S
C995 C979 1.429 . S
C995 C991 1.429 . S
C995 C996 1.523 . S
C996 C980 1.368 . S
C996 C992 1.368 . S
C996 C995 1.523 . S
H997 C972 0.950 . S
H998 C974 0.950 . S
H999 C975 0.949 . S
H1000 C977 0.950 . S
H1001 C979 0.950 . S
C1002 C1003 1.349 . S
C1002 C1004 1.327 . S
C1002 H1027 0.950 . S
C1003 C1002 1.349 . S
C1003 C1019 1.349 . S
C1004 C1002 1.327 . S
C1004 C1023 1.429 . S
C1004 H1028 0.950 . S
C1005 C1022 1.574 . S
C1005 C1024 1.368 . S
C1005 H1029 0.949 . S
H1006 C1010 0.949 . S
C1007 C1008 1.349 . S
C1007 C1009 1.327 . S
C1007 H1030 0.950 . S
C1008 C1007 1.349 . S
C1008 C1020 1.349 . S
C1009 C1007 1.327 . S
C1009 C1025 1.429 . S
C1009 H1031 0.950 . S
C1010 H1006 0.949 . S
C1010 C1018 1.574 . S
C1010 C1026 1.368 . S
H1011 C1019 0.950 . S
H1012 C1017 0.950 . S
H1013 C1018 0.949 . S
H1014 C1020 0.950 . S
H1015 C1021 0.950 . S
H1016 C1022 0.949 . S
C1017 H1012 0.950 . S
C1017 C1019 1.327 . S
C1017 C1023 1.429 . S
C1018 C1010 1.574 . S
C1018 H1013 0.949 . S
C1018 C1024 1.368 . S
C1019 C1003 1.349 . S
C1019 H1011 0.950 . S
C1019 C1017 1.327 . S
C1020 C1008 1.349 . S
C1020 H1014 0.950 . S
C1020 C1021 1.327 . S
C1021 H1015 0.950 . S
C1021 C1020 1.327 . S
C1021 C1025 1.429 . S
C1022 C1005 1.574 . S
C1022 H1016 0.949 . S
C1022 C1026 1.368 . S
C1023 C1004 1.429 . S
C1023 C1017 1.429 . S
C1023 C1024 1.523 . S
C1024 C1005 1.368 . S
C1024 C1018 1.368 . S
C1024 C1023 1.523 . S
C1025 C1009 1.429 . S
C1025 C1021 1.429 . S
C1025 C1026 1.523 . S
C1026 C1010 1.368 . S
C1026 C1022 1.368 . S
C1026 C1025 1.523 . S
H1027 C1002 0.950 . S
H1028 C1004 0.950 . S
H1029 C1005 0.949 . S
H1030 C1007 0.950 . S
H1031 C1009 0.950 . S
C1032 C1033 1.349 . S
C1032 C1034 1.327 . S
C1032 H1057 0.950 . S
C1033 C1032 1.349 . S
C1033 C1049 1.349 . S
C1034 C1032 1.327 . S
C1034 C1053 1.429 . S
C1034 H1058 0.950 . S
C1035 C1052 1.574 . S
C1035 C1054 1.368 . S
C1035 H1059 0.949 . S
H1036 C1040 0.949 . S
C1037 C1038 1.349 . S
C1037 C1039 1.327 . S
C1037 H1060 0.950 . S
C1038 C1037 1.349 . S
C1038 C1050 1.349 . S
C1039 C1037 1.327 . S
C1039 C1055 1.429 . S
C1039 H1061 0.950 . S
C1040 H1036 0.949 . S
C1040 C1048 1.574 . S
C1040 C1056 1.368 . S
H1041 C1049 0.950 . S
H1042 C1047 0.950 . S
H1043 C1048 0.949 . S
H1044 C1050 0.950 . S
H1045 C1051 0.950 . S
H1046 C1052 0.949 . S
C1047 H1042 0.950 . S
C1047 C1049 1.327 . S
C1047 C1053 1.429 . S
C1048 C1040 1.574 . S
C1048 H1043 0.949 . S
C1048 C1054 1.368 . S
C1049 C1033 1.349 . S
C1049 H1041 0.950 . S
C1049 C1047 1.327 . S
C1050 C1038 1.349 . S
C1050 H1044 0.950 . S
C1050 C1051 1.327 . S
C1051 H1045 0.950 . S
C1051 C1050 1.327 . S
C1051 C1055 1.429 . S
C1052 C1035 1.574 . S
C1052 H1046 0.949 . S
C1052 C1056 1.368 . S
C1053 C1034 1.429 . S
C1053 C1047 1.429 . S
C1053 C1054 1.523 . S
C1054 C1035 1.368 . S
C1054 C1048 1.368 . S
C1054 C1053 1.523 . S
C1055 C1039 1.429 . S
C1055 C1051 1.429 . S
C1055 C1056 1.523 . S
C1056 C1040 1.368 . S
C1056 C1052 1.368 . S
C1056 C1055 1.523 . S
H1057 C1032 0.950 . S
H1058 C1034 0.950 . S
H1059 C1035 0.949 . S
H1060 C1037 0.950 . S
H1061 C1039 0.950 . S
C1062 C1063 1.349 . S
C1062 C1064 1.327 . S
C1062 H1087 0.950 . S
C1063 C1062 1.349 . S
C1063 C1079 1.349 . S
C1064 C1062 1.327 . S
C1064 C1083 1.429 . S
C1064 H1088 0.950 . S
C1065 C1082 1.574 1_554 S
C1065 C1084 1.368 . S
C1065 H1089 0.949 . S
H1066 C1070 0.949 . S
C1067 C1068 1.349 . S
C1067 C1069 1.327 . S
C1067 H1090 0.950 . S
C1068 C1067 1.349 . S
C1068 C1080 1.349 . S
C1069 C1067 1.327 . S
C1069 C1085 1.429 . S
C1069 H1091 0.950 . S
C1070 H1066 0.949 . S
C1070 C1078 1.574 1_556 S
C1070 C1086 1.368 . S
H1071 C1079 0.950 . S
H1072 C1077 0.950 . S
H1073 C1078 0.949 . S
H1074 C1080 0.950 . S
H1075 C1081 0.950 . S
H1076 C1082 0.949 . S
C1077 H1072 0.950 . S
C1077 C1079 1.327 . S
C1077 C1083 1.429 . S
C1078 C1070 1.574 1_554 S
C1078 H1073 0.949 . S
C1078 C1084 1.368 . S
C1079 C1063 1.349 . S
C1079 H1071 0.950 . S
C1079 C1077 1.327 . S
C1080 C1068 1.349 . S
C1080 H1074 0.950 . S
C1080 C1081 1.327 . S
C1081 H1075 0.950 . S
C1081 C1080 1.327 . S
C1081 C1085 1.429 . S
C1082 C1065 1.574 1_556 S
C1082 H1076 0.949 . S
C1082 C1086 1.368 . S
C1083 C1064 1.429 . S
C1083 C1077 1.429 . S
C1083 C1084 1.523 . S
C1084 C1065 1.368 . S
C1084 C1078 1.368 . S
C1084 C1083 1.523 . S
C1085 C1069 1.429 . S
C1085 C1081 1.429 . S
C1085 C1086 1.523 . S
C1086 C1070 1.368 . S
C1086 C1082 1.368 . S
C1086 C1085 1.523 . S
H1087 C1062 0.950 . S
H1088 C1064 0.950 . S
H1089 C1065 0.949 . S
H1090 C1067 0.950 . S
H1091 C1069 0.950 . S
C1092 C1093 1.349 1_565 S
C1092 C1094 1.327 . S
C1092 H1117 0.950 . S
C1093 C1092 1.349 1_545 S
C1093 C1109 1.349 . S
C1094 C1092 1.327 . S
C1094 C1113 1.429 1_565 S
C1094 H1118 0.950 . S
C1095 C1112 1.574 1_556 S
C1095 C1114 1.402 . S
C1095 H1119 0.949 . S
H1096 C1100 0.949 . S
C1097 C1098 1.349 1_545 S
C1097 C1099 1.327 . S
C1097 H1120 0.950 . S
C1098 C1097 1.349 1_565 S
C1098 C1110 1.349 . S
C1099 C1097 1.327 . S
C1099 C1115 1.429 1_545 S
C1099 H1121 0.950 . S
C1100 H1096 0.949 . S
C1100 C1108 1.574 1_554 S
C1100 C1116 1.368 . S
H1101 C1109 0.950 . S
H1102 C1107 0.950 . S
H1103 C1108 0.949 . S
H1104 C1110 0.950 . S
H1105 C1111 0.950 . S
H1106 C1112 0.949 . S
C1107 H1102 0.950 . S
C1107 C1109 1.327 . S
C1107 C1113 1.429 . S
C1108 C1100 1.574 1_556 S
C1108 H1103 0.949 . S
C1108 C1114 1.333 1_565 S
C1109 C1093 1.349 . S
C1109 H1101 0.950 . S
C1109 C1107 1.327 . S
C1110 C1098 1.349 . S
C1110 H1104 0.950 . S
C1110 C1111 1.327 . S
C1111 H1105 0.950 . S
C1111 C1110 1.327 . S
C1111 C1115 1.429 . S
C1112 C1095 1.574 1_554 S
C1112 H1106 0.949 . S
C1112 C1116 1.368 1_545 S
C1113 C1094 1.429 1_545 S
C1113 C1107 1.429 . S
C1113 C1114 1.525 . S
C1114 C1095 1.402 . S
C1114 C1108 1.333 1_545 S
C1114 C1113 1.525 . S
C1115 C1099 1.429 1_565 S
C1115 C1111 1.429 . S
C1115 C1116 1.523 . S
C1116 C1100 1.368 . S
C1116 C1112 1.368 1_565 S
C1116 C1115 1.523 . S
H1117 C1092 0.950 . S
H1118 C1094 0.950 . S
H1119 C1095 0.949 . S
H1120 C1097 0.950 . S
H1121 C1099 0.950 . S
C1122 C1123 1.349 . S
C1122 C1124 1.327 . S
C1122 H1147 0.950 . S
C1123 C1122 1.349 . S
C1123 C1139 1.349 . S
C1124 C1122 1.327 . S
C1124 C1143 1.429 . S
C1124 H1148 0.950 . S
C1125 C1142 1.574 1_556 S
C1125 C1144 1.368 . S
C1125 H1149 0.949 . S
H1126 C1130 0.949 . S
C1127 C1128 1.349 . S
C1127 C1129 1.327 . S
C1127 H1150 0.950 . S
C1128 C1127 1.349 . S
C1128 C1140 1.349 . S
C1129 C1127 1.327 . S
C1129 C1145 1.429 . S
C1129 H1151 0.952 1_455 S
C1130 H1126 0.949 . S
C1130 C1138 1.574 1_554 S
C1130 C1146 1.389 . S
H1131 C1139 0.950 . S
H1132 C1137 0.950 . S
H1133 C1138 0.935 . S
H1134 C1140 0.950 . S
H1135 C1141 0.950 . S
H1136 C1142 0.949 . S
C1137 H1132 0.950 . S
C1137 C1139 1.327 . S
C1137 C1143 1.429 . S
C1138 C1130 1.574 1_556 S
C1138 H1133 0.935 . S
C1138 C1144 1.369 1_455 S
C1139 C1123 1.349 . S
C1139 H1131 0.950 . S
C1139 C1137 1.327 . S
C1140 C1128 1.349 . S
C1140 H1134 0.950 . S
C1140 C1141 1.327 . S
C1141 H1135 0.950 . S
C1141 C1140 1.327 . S
C1141 C1145 1.429 . S
C1142 C1125 1.574 1_554 S
C1142 H1136 0.949 . S
C1142 C1146 1.347 1_655 S
C1143 C1124 1.429 . S
C1143 C1137 1.429 . S
C1143 C1144 1.523 . S
C1144 C1125 1.368 . S
C1144 C1138 1.369 1_655 S
C1144 C1143 1.523 . S
C1145 C1129 1.429 . S
C1145 C1141 1.429 . S
C1145 C1146 1.526 . S
C1146 C1130 1.389 . S
C1146 C1142 1.347 1_455 S
C1146 C1145 1.526 . S
H1147 C1122 0.950 . S
H1148 C1124 0.950 . S
H1149 C1125 0.949 . S
H1150 C1127 0.950 . S
H1151 C1129 0.952 1_655 S
C1152 C1153 1.349 . S
C1152 C1154 1.327 . S
C1152 H1177 0.950 . S
C1153 C1152 1.349 . S
C1153 C1169 1.349 . S
C1154 C1152 1.327 . S
C1154 C1173 1.429 . S
C1154 H1178 0.950 . S
C1155 C1172 1.574 . S
C1155 C1174 1.368 . S
C1155 H1179 0.949 . S
H1156 C1160 0.949 . S
C1157 C1158 1.349 . S
C1157 C1159 1.327 . S
C1157 H1180 0.950 . S
C1158 C1157 1.349 . S
C1158 C1170 1.349 . S
C1159 C1157 1.327 . S
C1159 C1175 1.429 . S
C1159 H1181 0.950 . S
C1160 H1156 0.949 . S
C1160 C1168 1.574 . S
C1160 C1176 1.368 . S
H1161 C1169 0.950 . S
H1162 C1167 0.950 . S
H1163 C1168 0.949 . S
H1164 C1170 0.950 . S
H1165 C1171 0.950 . S
H1166 C1172 0.949 . S
C1167 H1162 0.950 . S
C1167 C1169 1.327 . S
C1167 C1173 1.429 . S
C1168 C1160 1.574 . S
C1168 H1163 0.949 . S
C1168 C1174 1.368 . S
C1169 C1153 1.349 . S
C1169 H1161 0.950 . S
C1169 C1167 1.327 . S
C1170 C1158 1.349 . S
C1170 H1164 0.950 . S
C1170 C1171 1.327 . S
C1171 H1165 0.950 . S
C1171 C1170 1.327 . S
C1171 C1175 1.429 . S
C1172 C1155 1.574 . S
C1172 H1166 0.949 . S
C1172 C1176 1.368 . S
C1173 C1154 1.429 . S
C1173 C1167 1.429 . S
C1173 C1174 1.523 . S
C1174 C1155 1.368 . S
C1174 C1168 1.368 . S
C1174 C1173 1.523 . S
C1175 C1159 1.429 . S
C1175 C1171 1.429 . S
C1175 C1176 1.523 . S
C1176 C1160 1.368 . S
C1176 C1172 1.368 . S
C1176 C1175 1.523 . S
H1177 C1152 0.950 . S
H1178 C1154 0.950 . S
H1179 C1155 0.949 . S
H1180 C1157 0.950 . S
H1181 C1159 0.950 . S
C1182 C1183 1.349 . S
C1182 C1184 1.327 . S
C1182 H1207 0.950 . S
C1183 C1182 1.349 . S
C1183 C1199 1.349 . S
C1184 C1182 1.327 . S
C1184 C1203 1.429 . S
C1184 H1208 0.950 . S
C1185 C1202 1.574 . S
C1185 C1204 1.368 . S
C1185 H1209 0.949 . S
H1186 C1190 0.949 . S
C1187 C1188 1.349 . S
C1187 C1189 1.327 . S
C1187 H1210 0.950 . S
C1188 C1187 1.349 . S
C1188 C1200 1.349 . S
C1189 C1187 1.327 . S
C1189 C1205 1.429 . S
C1189 H1211 0.950 . S
C1190 H1186 0.949 . S
C1190 C1198 1.574 . S
C1190 C1206 1.368 . S
H1191 C1199 0.950 . S
H1192 C1197 0.950 . S
H1193 C1198 0.949 . S
H1194 C1200 0.950 . S
H1195 C1201 0.950 . S
H1196 C1202 0.949 . S
C1197 H1192 0.950 . S
C1197 C1199 1.327 . S
C1197 C1203 1.429 . S
C1198 C1190 1.574 . S
C1198 H1193 0.949 . S
C1198 C1204 1.368 . S
C1199 C1183 1.349 . S
C1199 H1191 0.950 . S
C1199 C1197 1.327 . S
C1200 C1188 1.349 . S
C1200 H1194 0.950 . S
C1200 C1201 1.327 . S
C1201 H1195 0.950 . S
C1201 C1200 1.327 . S
C1201 C1205 1.429 . S
C1202 C1185 1.574 . S
C1202 H1196 0.949 . S
C1202 C1206 1.368 . S
C1203 C1184 1.429 . S
C1203 C1197 1.429 . S
C1203 C1204 1.523 . S
C1204 C1185 1.368 . S
C1204 C1198 1.368 . S
C1204 C1203 1.523 . S
C1205 C1189 1.429 . S
C1205 C1201 1.429 . S
C1205 C1206 1.523 . S
C1206 C1190 1.368 . S
C1206 C1202 1.368 . S
C1206 C1205 1.523 . S
H1207 C1182 0.950 . S
H1208 C1184 0.950 . S
H1209 C1185 0.949 . S
H1210 C1187 0.950 . S
H1211 C1189 0.950 . S
C1212 C1213 1.349 . S
C1212 C1214 1.327 . S
C1212 H1237 0.950 . S
C1213 C1212 1.349 . S
C1213 C1229 1.349 . S
C1214 C1212 1.327 . S
C1214 C1233 1.429 . S
C1214 H1238 0.950 . S
C1215 C1232 1.574 . S
C1215 C1234 1.368 . S
C1215 H1239 0.949 . S
H1216 C1220 0.949 . S
C1217 C1218 1.349 . S
C1217 C1219 1.327 . S
C1217 H1240 0.950 . S
C1218 C1217 1.349 . S
C1218 C1230 1.349 . S
C1219 C1217 1.327 . S
C1219 C1235 1.429 . S
C1219 H1241 0.950 . S
C1220 H1216 0.949 . S
C1220 C1228 1.574 . S
C1220 C1236 1.368 . S
H1221 C1229 0.950 . S
H1222 C1227 0.950 . S
H1223 C1228 0.949 . S
H1224 C1230 0.950 . S
H1225 C1231 0.950 . S
H1226 C1232 0.949 . S
C1227 H1222 0.950 . S
C1227 C1229 1.327 . S
C1227 C1233 1.429 . S
C1228 C1220 1.574 . S
C1228 H1223 0.949 . S
C1228 C1234 1.368 . S
C1229 C1213 1.349 . S
C1229 H1221 0.950 . S
C1229 C1227 1.327 . S
C1230 C1218 1.349 . S
C1230 H1224 0.950 . S
C1230 C1231 1.327 . S
C1231 H1225 0.950 . S
C1231 C1230 1.327 . S
C1231 C1235 1.429 . S
C1232 C1215 1.574 . S
C1232 H1226 0.949 . S
C1232 C1236 1.368 . S
C1233 C1214 1.429 . S
C1233 C1227 1.429 . S
C1233 C1234 1.523 . S
C1234 C1215 1.368 . S
C1234 C1228 1.368 . S
C1234 C1233 1.523 . S
C1235 C1219 1.429 . S
C1235 C1231 1.429 . S
C1235 C1236 1.523 . S
C1236 C1220 1.368 . S
C1236 C1232 1.368 . S
C1236 C1235 1.523 . S
H1237 C1212 0.950 . S
H1238 C1214 0.950 . S
H1239 C1215 0.949 . S
H1240 C1217 0.950 . S
H1241 C1219 0.950 . S
C1242 C1243 1.349 . S
C1242 C1244 1.327 . S
C1242 H1267 0.950 . S
C1243 C1242 1.349 . S
C1243 C1259 1.349 . S
C1244 C1242 1.327 . S
C1244 C1263 1.429 . S
C1244 H1268 0.950 . S
C1245 C1262 1.574 . S
C1245 C1264 1.368 . S
C1245 H1269 0.949 . S
H1246 C1250 0.949 . S
C1247 C1248 1.349 . S
C1247 C1249 1.327 . S
C1247 H1270 0.950 . S
C1248 C1247 1.349 . S
C1248 C1260 1.349 . S
C1249 C1247 1.327 . S
C1249 C1265 1.429 . S
C1249 H1271 0.950 . S
C1250 H1246 0.949 . S
C1250 C1258 1.574 . S
C1250 C1266 1.368 . S
H1251 C1259 0.950 . S
H1252 C1257 0.950 . S
H1253 C1258 0.949 . S
H1254 C1260 0.950 . S
H1255 C1261 0.950 . S
H1256 C1262 0.949 . S
C1257 H1252 0.950 . S
C1257 C1259 1.327 . S
C1257 C1263 1.429 . S
C1258 C1250 1.574 . S
C1258 H1253 0.949 . S
C1258 C1264 1.368 . S
C1259 C1243 1.349 . S
C1259 H1251 0.950 . S
C1259 C1257 1.327 . S
C1260 C1248 1.349 . S
C1260 H1254 0.950 . S
C1260 C1261 1.327 . S
C1261 H1255 0.950 . S
C1261 C1260 1.327 . S
C1261 C1265 1.429 . S
C1262 C1245 1.574 . S
C1262 H1256 0.949 . S
C1262 C1266 1.368 . S
C1263 C1244 1.429 . S
C1263 C1257 1.429 . S
C1263 C1264 1.523 . S
C1264 C1245 1.368 . S
C1264 C1258 1.368 . S
C1264 C1263 1.523 . S
C1265 C1249 1.429 . S
C1265 C1261 1.429 . S
C1265 C1266 1.523 . S
C1266 C1250 1.368 . S
C1266 C1262 1.368 . S
C1266 C1265 1.523 . S
H1267 C1242 0.950 . S
H1268 C1244 0.950 . S
H1269 C1245 0.949 . S
H1270 C1247 0.950 . S
H1271 C1249 0.950 . S
C1272 C1273 1.349 . S
C1272 C1274 1.327 . S
C1272 H1297 0.950 . S
C1273 C1272 1.349 . S
C1273 C1289 1.349 . S
C1274 C1272 1.327 . S
C1274 C1293 1.429 . S
C1274 H1298 0.950 . S
C1275 C1292 1.574 . S
C1275 C1294 1.368 . S
C1275 H1299 0.949 . S
H1276 C1280 0.949 . S
C1277 C1278 1.349 . S
C1277 C1279 1.327 . S
C1277 H1300 0.950 . S
C1278 C1277 1.349 . S
C1278 C1290 1.349 . S
C1279 C1277 1.327 . S
C1279 C1295 1.429 . S
C1279 H1301 0.950 . S
C1280 H1276 0.949 . S
C1280 C1288 1.574 . S
C1280 C1296 1.368 . S
H1281 C1289 0.950 . S
H1282 C1287 0.950 . S
H1283 C1288 0.949 . S
H1284 C1290 0.950 . S
H1285 C1291 0.950 . S
H1286 C1292 0.949 . S
C1287 H1282 0.950 . S
C1287 C1289 1.327 . S
C1287 C1293 1.429 . S
C1288 C1280 1.574 . S
C1288 H1283 0.949 . S
C1288 C1294 1.368 . S
C1289 C1273 1.349 . S
C1289 H1281 0.950 . S
C1289 C1287 1.327 . S
C1290 C1278 1.349 . S
C1290 H1284 0.950 . S
C1290 C1291 1.327 . S
C1291 H1285 0.950 . S
C1291 C1290 1.327 . S
C1291 C1295 1.429 . S
C1292 C1275 1.574 . S
C1292 H1286 0.949 . S
C1292 C1296 1.368 . S
C1293 C1274 1.429 . S
C1293 C1287 1.429 . S
C1293 C1294 1.523 . S
C1294 C1275 1.368 . S
C1294 C1288 1.368 . S
C1294 C1293 1.523 . S
C1295 C1279 1.429 . S
C1295 C1291 1.429 . S
C1295 C1296 1.523 . S
C1296 C1280 1.368 . S
C1296 C1292 1.368 . S
C1296 C1295 1.523 . S
H1297 C1272 0.950 . S
H1298 C1274 0.950 . S
H1299 C1275 0.949 . S
H1300 C1277 0.950 . S
H1301 C1279 0.950 . S
C1302 C1303 1.349 . S
C1302 C1304 1.327 . S
C1302 H1327 0.950 . S
C1303 C1302 1.349 . S
C1303 C1319 1.349 . S
C1304 C1302 1.327 . S
C1304 C1323 1.429 . S
C1304 H1328 0.950 . S
C1305 C1322 1.574 . S
C1305 C1324 1.368 . S
C1305 H1329 0.949 . S
H1306 C1310 0.949 . S
C1307 C1308 1.349 . S
C1307 C1309 1.327 . S
C1307 H1330 0.950 . S
C1308 C1307 1.349 . S
C1308 C1320 1.349 . S
C1309 C1307 1.327 . S
C1309 C1325 1.429 . S
C1309 H1331 0.950 . S
C1310 H1306 0.949 . S
C1310 C1318 1.574 . S
C1310 C1326 1.368 . S
H1311 C1319 0.950 . S
H1312 C1317 0.950 . S
H1313 C1318 0.949 . S
H1314 C1320 0.950 . S
H1315 C1321 0.950 . S
H1316 C1322 0.949 . S
C1317 H1312 0.950 . S
C1317 C1319 1.327 . S
C1317 C1323 1.429 . S
C1318 C1310 1.574 . S
C1318 H1313 0.949 . S
C1318 C1324 1.368 . S
C1319 C1303 1.349 . S
C1319 H1311 0.950 . S
C1319 C1317 1.327 . S
C1320 C1308 1.349 . S
C1320 H1314 0.950 . S
C1320 C1321 1.327 . S
C1321 H1315 0.950 . S
C1321 C1320 1.327 . S
C1321 C1325 1.429 . S
C1322 C1305 1.574 . S
C1322 H1316 0.949 . S
C1322 C1326 1.368 . S
C1323 C1304 1.429 . S
C1323 C1317 1.429 . S
C1323 C1324 1.523 . S
C1324 C1305 1.368 . S
C1324 C1318 1.368 . S
C1324 C1323 1.523 . S
C1325 C1309 1.429 . S
C1325 C1321 1.429 . S
C1325 C1326 1.523 . S
C1326 C1310 1.368 . S
C1326 C1322 1.368 . S
C1326 C1325 1.523 . S
H1327 C1302 0.950 . S
H1328 C1304 0.950 . S
H1329 C1305 0.949 . S
H1330 C1307 0.950 . S
H1331 C1309 0.950 . S
C253 C148 1.013 . S
C258 C8 1.013 . S
C283 C22 1.013 . S
C288 C162 1.013 . S
C313 C134 1.013 . S
C318 C36 1.013 . S
C343 C204 1.013 . S
C348 C50 1.013 . S
C373 C64 1.013 . S
C378 C176 1.013 . S
C403 C190 1.013 . S
C408 C78 1.013 . S
C433 C92 1.013 . S
C438 C232 1.013 . S
C463 C246 1.013 . S
C468 C106 1.013 . S
C493 C120 1.013 . S
C498 C218 1.013 . S
C523 C9 0.823 . S
C528 C17 0.845 . S
C553 C23 0.822 . S
C558 C31 0.845 . S
C583 C3 0.845 . S
C588 C37 0.822 . S
C613 C73 0.845 . S
C618 C51 0.823 . S
C643 C45 0.845 . S
C648 C65 0.822 . S
C673 C79 0.822 . S
C678 C59 0.844 . S
C703 C93 0.823 . S
C708 C101 0.846 . S
C733 C107 0.822 . S
C738 C115 0.844 . S
C763 C87 0.845 . S
C768 C121 0.822 . S
C793 C157 0.845 . S
C798 C135 0.823 . S
C823 C129 0.845 . S
C828 C149 0.822 . S
C853 C143 0.845 . S
C858 C163 0.822 . S
C883 C185 0.846 . S
C888 C177 0.823 . S
C913 C199 0.845 . S
C918 C191 0.822 . S
C943 C171 0.845 . S
C948 C205 0.822 . S
C973 C219 0.823 . S
C978 C241 0.845 . S
C1003 C233 0.822 . S
C1008 C213 0.845 . S
C1033 C247 0.822 . S
C1038 C227 0.844 . S
C1063 C7 1.580 . S
C1068 C49 1.580 . S
C1093 C63 1.579 . S
C1098 C21 1.579 . S
C1123 C77 1.579 . S
C1128 C35 1.579 . S
C1153 C133 1.580 . S
C1158 C91 1.580 . S
C1183 C147 1.579 . S
C1188 C105 1.579 . S
C1213 C119 1.579 . S
C1218 C161 1.579 . S
C1243 C217 1.580 . S
C1248 C175 1.580 . S
C1273 C231 1.579 . S
C1278 C189 1.579 . S
C1303 C245 1.579 . S
C1308 C203 1.579 . S
