# Generated by pormake.
# Topology tsi, (8)-cn, num edge types: 1
# Building blocks:
#     Node 0, Type 0, BuildingBlock: TAGTUT_clean_sbu_1, # of connection points: 8
#     Node 1, Type 0, BuildingBlock: TAGTUT_clean_sbu_1, # of connection points: 8
#     Node 2, Type 0, BuildingBlock: TAGTUT_clean_sbu_1, # of connection points: 8
#     Node 3, Type 0, BuildingBlock: TAGTUT_clean_sbu_1, # of connection points: 8
#     Edge 4, Type (0, 0), BuildingBlock: FUNLAD_clean_linker_0, # of connection points: 2
#     Edge 5, Type (0, 0), BuildingBlock: FUNLAD_clean_linker_0, # of connection points: 2
#     Edge 6, Type (0, 0), BuildingBlock: FUNLAD_clean_linker_0, # of connection points: 2
#     Edge 7, Type (0, 0), BuildingBlock: FUNLAD_clean_linker_0, # of connection points: 2
#     Edge 8, Type (0, 0), BuildingBlock: FUNLAD_clean_linker_0, # of connection points: 2
#     Edge 9, Type (0, 0), BuildingBlock: FUNLAD_clean_linker_0, # of connection points: 2
#     Edge 10, Type (0, 0), BuildingBlock: FUNLAD_clean_linker_0, # of connection points: 2
#     Edge 11, Type (0, 0), BuildingBlock: FUNLAD_clean_linker_0, # of connection points: 2
#     Edge 12, Type (0, 0), BuildingBlock: FUNLAD_clean_linker_0, # of connection points: 2
#     Edge 13, Type (0, 0), BuildingBlock: FUNLAD_clean_linker_0, # of connection points: 2
#     Edge 14, Type (0, 0), BuildingBlock: FUNLAD_clean_linker_0, # of connection points: 2
#     Edge 15, Type (0, 0), BuildingBlock: FUNLAD_clean_linker_0, # of connection points: 2
#     Edge 16, Type (0, 0), BuildingBlock: FUNLAD_clean_linker_0, # of connection points: 2
#     Edge 17, Type (0, 0), BuildingBlock: FUNLAD_clean_linker_0, # of connection points: 2
#     Edge 18, Type (0, 0), BuildingBlock: FUNLAD_clean_linker_0, # of connection points: 2
#     Edge 19, Type (0, 0), BuildingBlock: FUNLAD_clean_linker_0, # of connection points: 2
# Relax obj value: 0.134
# Max RMSD: 0.247
# Mean RMSD: 0.247
data_MOF--net-tsi--node1-TAGTUT_clean_sbu_1--edge1-FUNLAD_clean_linker_0
_symmetry_space_group_name_H-M    P1
_symmetry_Int_Tables_number       1
_symmetry_cell_setting            triclinic
loop_
_symmetry_equiv_pos_as_xyz
'x, y, z'
_cell_length_a     17.732268
_cell_length_b     18.262821
_cell_length_c     74.733635
_cell_angle_alpha  93.23534
_cell_angle_beta   91.955401
_cell_angle_gamma 111.34376
loop_
_atom_site_label
_atom_site_type_symbol
_atom_site_fract_x
_atom_site_fract_y
_atom_site_fract_z
_atom_type_partial_charge
C0 C 0.04805 0.22158 0.42958 0.0
C1 C 0.00665 0.42655 0.41784 0.0
C2 C 0.85007 0.24039 0.3557 0.0
Mg3 Mg 0.1338 0.35901 0.40594 0.0
O4 O 0.05689 0.29359 0.38883 0.0
Mg5 Mg 0.9401 0.24759 0.39419 0.0
Mg6 Mg 0.04552 0.31903 0.36376 0.0
O7 O 0.03267 0.33955 0.33845 0.0
Mg8 Mg 0.96981 0.24725 0.3246 0.0
Mg9 Mg 0.14849 0.39073 0.33261 0.0
C10 C 0.24423 0.38468 0.37199 0.0
C11 C 0.10426 0.50926 0.36086 0.0
O12 O 0.98224 0.20829 0.42005 0.0
O13 O 0.11575 0.27471 0.42618 0.0
O14 O 0.9507 0.36337 0.41084 0.0
O15 O 0.08168 0.44124 0.41549 0.0
O16 O 0.23837 0.39067 0.3891 0.0
O17 O 0.18138 0.35732 0.361 0.0
C18 C 0.97923 0.12786 0.36546 0.0
O19 O 0.0245 0.18698 0.35739 0.0
O20 O 0.93943 0.13676 0.37883 0.0
O21 O 0.09225 0.41153 0.30489 0.0
O22 O 0.97001 0.31097 0.30206 0.0
O23 O 0.15449 0.28068 0.31827 0.0
C24 C 0.02308 0.37247 0.29643 0.0
O25 O 0.03908 0.17669 0.31582 0.0
O26 O 0.86063 0.21503 0.33991 0.0
C27 C 0.11409 0.20928 0.31278 0.0
O28 O 0.90999 0.28389 0.36637 0.0
O29 O 0.06561 0.45114 0.37004 0.0
O30 O 0.13959 0.49981 0.34676 0.0
C31 C -0.00495 0.68721 0.69448 0.0
C32 C 0.9011 0.8469 0.67722 0.0
C33 C 0.76279 0.66428 0.61969 0.0
Mg34 Mg 0.0437 0.80756 0.66521 0.0
O35 O 0.97943 0.71339 0.65203 0.0
Mg36 Mg 0.86495 0.66277 0.65874 0.0
Mg37 Mg 0.96223 0.73007 0.62659 0.0
O38 O 0.94671 0.75174 0.60134 0.0
Mg39 Mg 0.86812 0.68313 0.58496 0.0
Mg40 Mg 0.06244 0.79644 0.59516 0.0
C41 C 0.15813 0.8097 0.63325 0.0
C42 C 0.02706 0.92017 0.62343 0.0
O43 O 0.92564 0.64616 0.68634 0.0
O44 O 0.04678 0.74815 0.68834 0.0
O45 O 0.86122 0.77474 0.67241 0.0
O46 O 0.97569 0.87952 0.67388 0.0
O47 O 0.15027 0.83667 0.64909 0.0
O48 O 0.09669 0.7653 0.62311 0.0
C49 C 0.90513 0.54088 0.63076 0.0
O50 O 0.94193 0.59768 0.62107 0.0
O51 O 0.87221 0.55209 0.6451 0.0
O52 O 0.01672 0.83061 0.56908 0.0
O53 O 0.88308 0.76261 0.56371 0.0
O54 O 0.05016 0.67816 0.57948 0.0
C55 C 0.95007 0.81516 0.55972 0.0
O56 O 0.91922 0.59906 0.57603 0.0
O57 O 0.76639 0.65611 0.60254 0.0
C58 C -0.00613 0.61364 0.57325 0.0
O59 O 0.8272 0.69135 0.63023 0.0
O60 O 0.9836 0.86245 0.63215 0.0
O61 O 0.06448 0.90931 0.60979 0.0
C62 C 0.51241 0.68197 0.93142 0.0
C63 C 0.48397 0.88655 0.91572 0.0
C64 C 0.33579 0.69681 0.85415 0.0
Mg65 Mg 0.60918 0.81253 0.90705 0.0
O66 O 0.5353 0.74537 0.88966 0.0
Mg67 Mg 0.41673 0.70428 0.89369 0.0
Mg68 Mg 0.52949 0.77324 0.86454 0.0
O69 O 0.52273 0.79721 0.83928 0.0
Mg70 Mg 0.461 0.70974 0.82392 0.0
Mg71 Mg 0.63981 0.85078 0.83477 0.0
C72 C 0.7269 0.83516 0.87457 0.0
C73 C 0.59017 0.96484 0.86313 0.0
O74 O 0.44983 0.66777 0.92073 0.0
O75 O 0.58239 0.73256 0.92846 0.0
O76 O 0.42754 0.82256 0.90926 0.0
O77 O 0.55891 0.89949 0.91375 0.0
O78 O 0.71785 0.84004 0.89156 0.0
O79 O 0.66601 0.81083 0.86304 0.0
C80 C 0.46044 0.58215 0.86632 0.0
O81 O 0.50735 0.64072 0.85827 0.0
O82 O 0.41835 0.59193 0.87921 0.0
O83 O 0.58943 0.8794 0.8072 0.0
O84 O 0.46685 0.78032 0.80236 0.0
O85 O 0.64782 0.74364 0.81939 0.0
C86 C 0.5219 0.84321 0.79787 0.0
O87 O 0.53136 0.6414 0.81461 0.0
O88 O 0.34869 0.67469 0.83824 0.0
C89 C 0.60737 0.67421 0.81258 0.0
O90 O 0.39417 0.73883 0.86534 0.0
O91 O 0.54865 0.90487 0.87144 0.0
O92 O 0.6293 0.95779 0.84952 0.0
C93 C 0.50744 0.13761 0.19197 0.0
C94 C 0.41699 0.29846 0.17417 0.0
C95 C 0.27866 0.11512 0.11659 0.0
Mg96 Mg 0.55866 0.25639 0.16245 0.0
O97 O 0.4937 0.16249 0.14938 0.0
Mg98 Mg 0.37889 0.11327 0.15599 0.0
Mg99 Mg 0.47777 0.17856 0.12384 0.0
O100 O 0.46367 0.19986 0.09845 0.0
Mg101 Mg 0.38479 0.1323 0.08205 0.0
Mg102 Mg 0.57983 0.24196 0.09249 0.0
C103 C 0.67346 0.25714 0.13078 0.0
C104 C 0.54417 0.36833 0.12007 0.0
O105 O 0.43747 0.0977 0.18394 0.0
O106 O 0.56039 0.19718 0.18564 0.0
O107 O 0.37596 0.2264 0.16941 0.0
O108 O 0.49164 0.32982 0.17073 0.0
O109 O 0.66564 0.28461 0.14657 0.0
O110 O 0.61203 0.2125 0.12069 0.0
C111 C 0.41944 0.98952 0.12849 0.0
O112 O 0.45653 0.04582 0.11869 0.0
O113 O 0.38612 1.0015 0.14271 0.0
O114 O 0.53766 0.27414 0.06589 0.0
O115 O 0.4034 0.21042 0.06032 0.0
O116 O 0.56552 0.12205 0.07728 0.0
C117 C 0.47215 0.25968 0.05621 0.0
O118 O 0.4336 0.04535 0.07415 0.0
O119 O 0.28266 0.10759 0.09944 0.0
C120 C 0.50782 0.05798 0.07131 0.0
O121 O 0.34277 0.14091 0.12723 0.0
O122 O 0.50032 0.31131 0.12893 0.0
O123 O 0.58211 0.35644 0.1066 0.0
C124 C 0.05177 0.52812 0.44375 0.0
C125 C 0.98784 0.46917 0.43355 0.0
C126 C 0.04424 0.54546 0.46189 0.0
C127 C 0.97215 0.50516 0.47012 0.0
C128 C 0.90471 0.45498 0.45937 0.0
C129 C 0.91242 0.43685 0.44123 0.0
C130 C 0.96669 0.51155 0.4899 0.0
C131 C 0.03011 0.52125 0.50157 0.0
C132 C 0.02519 0.52874 0.52135 0.0
C133 C 0.09347 0.57844 0.53194 0.0
C134 C 0.0866 0.59844 0.55001 0.0
C135 C 0.01116 0.56856 0.55779 0.0
H136 H 0.90033 0.44856 0.52217 0.0
C137 C 0.94621 0.50977 0.54782 0.0
C138 C 0.95293 0.49054 0.52973 0.0
H139 H 0.88763 0.48389 0.55344 0.0
H140 H 0.11028 0.55576 0.43822 0.0
H141 H 0.09612 0.58778 0.46961 0.0
H142 H 0.84766 0.42501 0.4653 0.0
H143 H 0.86143 0.39201 0.43379 0.0
H144 H 0.90785 0.50454 0.49491 0.0
H145 H 0.08887 0.52817 0.49652 0.0
H146 H 0.15064 0.60677 0.52591 0.0
H147 H 0.13839 0.64296 0.5573 0.0
C148 C 0.59836 0.64551 0.77987 0.0
C149 C 0.64205 0.65254 0.79636 0.0
C150 C 0.63928 0.67188 0.7644 0.0
C151 C 0.72454 0.70365 0.76509 0.0
C152 C 0.76752 0.69853 0.7808 0.0
C153 C 0.72669 0.67367 0.79636 0.0
C154 C 0.77018 0.74639 0.75012 0.0
C155 C 0.7426 0.79061 0.73971 0.0
C156 C 0.78779 0.83211 0.72456 0.0
C157 C 0.74438 0.83513 0.70873 0.0
C158 C 0.78466 0.85662 0.69295 0.0
C159 C 0.86904 0.87608 0.69286 0.0
H160 H 0.90851 0.86526 0.7373 0.0
C161 C 0.91342 0.88641 0.70938 0.0
C162 C 0.87306 0.86341 0.72508 0.0
H163 H 0.97844 0.90092 0.70978 0.0
H164 H 0.53319 0.62999 0.77938 0.0
H165 H 0.60414 0.67163 0.75225 0.0
H166 H 0.83322 0.72069 0.78154 0.0
H167 H 0.76204 0.68031 0.80888 0.0
H168 H 0.82989 0.74433 0.74825 0.0
H169 H 0.68287 0.79264 0.74157 0.0
H170 H 0.67869 0.81329 0.70809 0.0
H171 H 0.74883 0.84762 0.68042 0.0
C172 C 0.5687 0.6301 0.95692 0.0
C173 C 0.50196 0.63703 0.94754 0.0
C174 C 0.55692 0.58299 0.97145 0.0
C175 C 0.47812 0.54236 0.97686 0.0
C176 C 0.41205 0.55226 0.96801 0.0
C177 C 0.42366 0.59851 0.9534 0.0
C178 C 0.46267 0.48957 0.99173 0.0
C179 C 0.50872 0.44721 -0.00472 0.0
C180 C 0.49543 0.39535 0.0103 0.0
C181 C 0.56241 0.38264 0.01793 0.0
C182 C 0.55406 0.33741 0.03263 0.0
C183 C 0.47809 0.30277 0.03989 0.0
H184 H 0.36504 0.3648 0.01114 0.0
C185 C 0.41003 0.31236 0.03178 0.0
C186 C 0.4186 0.35851 0.01711 0.0
H187 H 0.35066 0.28577 0.037 0.0
H188 H 0.62975 0.65968 0.95282 0.0
H189 H 0.60954 0.57882 0.97842 0.0
H190 H 0.35099 0.52251 0.97211 0.0
H191 H 0.371 0.60365 0.94664 0.0
H192 H 0.41058 0.48411 -0.00048 0.0
H193 H 0.56039 0.45274 0.98732 0.0
H194 H 0.62194 0.40942 0.01278 0.0
H195 H 0.60756 0.33013 0.0384 0.0
C196 C -0.00497 0.34029 0.26445 0.0
C197 C -0.00068 0.3935 0.27912 0.0
C198 C 0.9266 0.31309 0.25251 0.0
C199 C 0.86315 0.34096 0.25482 0.0
C200 C 0.87521 0.40515 0.26729 0.0
C201 C 0.94312 0.43132 0.27943 0.0
C202 C 0.7816 0.29932 0.24578 0.0
C203 C 0.74826 0.21984 0.24341 0.0
C204 C 0.66707 0.1776 0.23424 0.0
C205 C 0.65527 0.11131 0.22244 0.0
C206 C 0.58787 0.08317 0.21017 0.0
C207 C 0.53169 0.12095 0.2097 0.0
H208 H 0.60946 0.255 0.24535 0.0
C209 C 0.53578 0.17706 0.22373 0.0
C210 C 0.60377 0.20621 0.23578 0.0
H211 H 0.49334 0.20737 0.22361 0.0
H212 H 0.03755 0.3101 0.26393 0.0
H213 H 0.92054 0.26594 0.24244 0.0
H214 H 0.82803 0.42908 0.26898 0.0
H215 H 0.94473 0.47208 0.29068 0.0
H216 H 0.74658 0.33465 0.24204 0.0
H217 H 0.78351 0.18478 0.24721 0.0
H218 H 0.70232 0.08684 0.22134 0.0
H219 H 0.58653 0.04032 0.1994 0.0
C220 C 0.30087 0.30015 0.19146 0.0
C221 C 0.38509 0.33111 0.18943 0.0
C222 C 0.27064 0.29131 0.20856 0.0
C223 C 0.32409 0.31482 0.22393 0.0
C224 C 0.40667 0.35747 0.22186 0.0
C225 C 0.4371 0.3656 0.20473 0.0
C226 C 0.2965 0.29159 0.24206 0.0
C227 C 0.23684 0.22225 0.24474 0.0
C228 C 0.20921 0.19866 0.26286 0.0
C229 C 0.12689 0.15446 0.26482 0.0
C230 C 0.09611 0.14501 0.28191 0.0
C231 C 0.1475 0.17965 0.2973 0.0
H232 H 0.32676 0.25339 0.27725 0.0
C233 C 0.23171 0.21267 0.29535 0.0
C234 C 0.26226 0.22279 0.27828 0.0
H235 H 0.27307 0.23907 0.30696 0.0
H236 H 0.2591 0.2739 0.17991 0.0
H237 H 0.20603 0.26188 0.20968 0.0
H238 H 0.44885 0.37821 0.23352 0.0
H239 H 0.50224 0.38979 0.2037 0.0
H240 H 0.32926 0.33096 0.25352 0.0
H241 H 0.20421 0.18292 0.23327 0.0
H242 H 0.08505 0.13321 0.25311 0.0
H243 H 0.03099 0.11925 0.28286 0.0
C244 C 0.03513 0.72307 0.72615 0.0
C245 C 0.02204 0.66698 0.71157 0.0
C246 C 0.10378 0.74233 0.73786 0.0
C247 C 0.15925 0.70447 0.7353 0.0
C248 C 0.13847 0.63932 0.72267 0.0
C249 C 0.0703 0.62086 0.71079 0.0
C250 C 0.24152 0.73538 0.74444 0.0
C251 C 0.28383 0.81323 0.74822 0.0
C252 C 0.366 0.8431 0.75737 0.0
C253 C 0.38556 0.90405 0.77105 0.0
C254 C 0.45264 0.9185 0.78304 0.0
C255 C 0.5006 0.87225 0.78136 0.0
H256 H 0.41036 0.76192 0.74296 0.0
C257 C 0.48967 0.82213 0.76573 0.0
C258 C 0.42206 0.80673 0.75392 0.0
H259 H 0.52577 0.78559 0.76417 0.0
H260 H -0.00098 0.75985 0.72695 0.0
H261 H 0.11618 0.79046 0.74804 0.0
H262 H 0.1793 0.60791 0.72076 0.0
H263 H 0.06221 0.57815 0.69952 0.0
H264 H 0.26977 0.69309 0.74716 0.0
H265 H 0.25591 0.85583 0.7456 0.0
H266 H 0.34425 0.93435 0.77367 0.0
H267 H 0.45932 0.95695 0.79506 0.0
C268 C 0.40675 0.89055 0.94259 0.0
C269 C 0.46683 0.93144 0.93113 0.0
C270 C 0.41363 0.91498 0.96084 0.0
C271 C 0.47977 0.98158 0.96783 0.0
C272 C 0.5322 0.02907 0.9559 0.0
C273 C 0.5261 1.00405 0.93769 0.0
C274 C 0.49873 1.00008 0.98746 0.0
C275 C 0.48465 0.94365 -0.0008 0.0
C276 C 0.50467 0.96229 0.01879 0.0
C277 C 0.5723 0.02788 0.02559 0.0
C278 C 0.58121 0.05234 0.04386 0.0
C279 C 0.52169 0.01256 0.05556 0.0
H280 H 0.40112 0.86362 0.02602 0.0
C281 C 0.46048 0.9409 0.04912 0.0
C282 C 0.45238 0.9158 0.03088 0.0
H283 H 0.41408 0.90847 0.05781 0.0
H284 H 0.35975 0.83473 0.93801 0.0
H285 H 0.36976 0.87919 0.96959 0.0
H286 H 0.5823 0.08198 0.9609 0.0
H287 H 0.57285 0.03729 0.92917 0.0
H288 H 0.52941 0.06164 0.99216 0.0
H289 H 0.45395 0.88207 -0.00546 0.0
H290 H 0.616 0.06281 0.0167 0.0
H291 H 0.62966 0.10737 0.04832 0.0
C292 C 0.97275 0.10877 0.4474 0.0
C293 C 0.04458 0.17261 0.44483 0.0
C294 C 0.96793 0.06259 0.46183 0.0
C295 C 0.03466 0.07966 0.47419 0.0
C296 C 0.10704 0.14222 0.47142 0.0
C297 C 0.11198 0.18847 0.45691 0.0
C298 C 0.03148 0.03291 0.48991 0.0
C299 C 0.96206 0.99224 0.4975 0.0
C300 C 0.95978 0.94768 0.51357 0.0
C301 C 0.88857 0.88423 0.51661 0.0
C302 C 0.88467 0.84096 0.53163 0.0
C303 C 0.95197 0.86085 0.54394 0.0
H304 H 0.081 0.0192 0.52475 0.0
C305 C 0.02251 0.92552 0.54106 0.0
C306 C 0.02626 0.96869 0.52614 0.0
H307 H 0.07509 0.94346 0.55041 0.0
H308 H 0.92 0.09396 0.4382 0.0
H309 H 0.91208 0.01306 0.46303 0.0
H310 H 0.15963 0.15603 0.48065 0.0
H311 H 0.16837 0.23693 0.45526 0.0
H312 H 0.08904 0.03387 0.49557 0.0
H313 H 0.90433 0.99079 0.49183 0.0
H314 H 0.83613 0.86754 0.50723 0.0
H315 H 0.8293 0.79171 0.53351 0.0
C316 C 0.04857 0.03812 0.35413 0.0
C317 C 0.98013 0.04808 0.36115 0.0
C318 C 0.05646 0.96444 0.35382 0.0
C319 C -0.00436 0.89933 0.36041 0.0
C320 C 0.92468 0.90819 0.36606 0.0
C321 C 0.91727 0.98181 0.3666 0.0
C322 C 0.00416 0.82174 0.3618 0.0
C323 C 0.07626 0.81403 0.36468 0.0
C324 C 0.08512 0.73656 0.36595 0.0
C325 C 0.15623 0.72834 0.3602 0.0
C326 C 0.16429 0.65505 0.3596 0.0
C327 C 0.10207 0.5885 0.36512 0.0
H328 H 0.97029 0.67594 0.37766 0.0
C329 C 0.03337 0.59767 0.37218 0.0
C330 C 0.0247 0.67106 0.37251 0.0
H331 H 0.98447 0.54739 0.37652 0.0
H332 H 0.09794 0.08802 0.34979 0.0
H333 H 0.1107 0.95908 0.34869 0.0
H334 H 0.87626 0.85877 0.37088 0.0
H335 H 0.86344 0.98744 0.37195 0.0
H336 H 0.94877 0.76981 0.36109 0.0
H337 H 0.13161 0.866 0.36541 0.0
H338 H 0.20428 0.77803 0.35537 0.0
H339 H 0.21822 0.64987 0.35419 0.0
C340 C 0.3041 0.83881 0.64173 0.0
C341 C 0.23961 0.81322 0.62854 0.0
C342 C 0.3731 0.82042 0.63943 0.0
C343 C 0.37905 0.77664 0.62384 0.0
C344 C 0.31905 0.75905 0.60984 0.0
C345 C 0.24963 0.77677 0.61218 0.0
C346 C 0.44508 0.74583 0.622 0.0
C347 C 0.48041 0.72493 0.63608 0.0
C348 C 0.54543 0.69311 0.63376 0.0
C349 C 0.61131 0.71582 0.64647 0.0
C350 C 0.68021 0.69872 0.64286 0.0
C351 C 0.68367 0.65813 0.62654 0.0
H352 H 0.49328 0.62262 0.6089 0.0
C353 C 0.61348 0.62683 0.61496 0.0
C354 C 0.545 0.64431 0.61852 0.0
H355 H 0.61341 0.59378 0.60246 0.0
H356 H 0.29914 0.86819 0.65439 0.0
H357 H 0.42027 0.83826 0.65013 0.0
H358 H 0.32337 0.72703 0.5975 0.0
H359 H 0.20166 0.75716 0.60164 0.0
H360 H 0.46219 0.73645 0.60848 0.0
H361 H 0.46428 0.7345 0.64966 0.0
H362 H 0.61204 0.75189 0.65855 0.0
H363 H 0.73282 0.72314 0.6521 0.0
C364 C 0.53122 0.4919 0.85605 0.0
C365 C 0.46217 0.50216 0.86266 0.0
C366 C 0.53952 0.41846 0.85624 0.0
C367 C 0.47853 0.35375 0.86291 0.0
C368 C 0.4072 0.36284 0.86825 0.0
C369 C 0.39936 0.43626 0.86829 0.0
C370 C 0.487 0.27618 0.86458 0.0
C371 C 0.55907 0.2685 0.8676 0.0
C372 C 0.56837 0.19109 0.86882 0.0
C373 C 0.64072 0.18412 0.86354 0.0
C374 C 0.64956 0.11115 0.8628 0.0
C375 C 0.58677 0.04349 0.86768 0.0
H376 H 0.45183 0.12819 0.8796 0.0
C377 C 0.51668 0.0513 0.87432 0.0
C378 C 0.5073 0.12444 0.8748 0.0
H379 H 0.46733 1.00022 0.8782 0.0
H380 H 0.58065 0.54143 0.85161 0.0
H381 H 0.5941 0.41294 0.85135 0.0
H382 H 0.35866 0.31375 0.87313 0.0
H383 H 0.3451 0.44201 0.87335 0.0
H384 H 0.43161 0.22426 0.86381 0.0
H385 H 0.61431 0.32061 0.86842 0.0
H386 H 0.68931 0.23464 0.85917 0.0
H387 H 0.70459 0.10714 0.85775 0.0
C388 C 0.12945 0.0774 0.11177 0.0
C389 C 0.19942 0.10841 0.12341 0.0
C390 C 0.06069 0.09417 0.1154 0.0
C391 C 0.06069 0.14201 0.13079 0.0
C392 C 0.12633 0.16429 0.14354 0.0
C393 C 0.1955 0.14783 0.13985 0.0
C394 C -0.00442 0.17356 0.13316 0.0
C395 C 0.96101 0.19558 0.11915 0.0
C396 C 0.89488 0.22607 0.12106 0.0
C397 C 0.83472 0.20841 0.1071 0.0
C398 C 0.76503 0.22547 0.10956 0.0
C399 C 0.75498 0.26134 0.12598 0.0
H400 H 0.93618 0.2872 0.14739 0.0
C401 C 0.81961 0.28714 0.13913 0.0
C402 C 0.88887 0.26937 0.13672 0.0
H403 H 0.81457 0.31609 0.15184 0.0
H404 H 0.12975 0.04514 0.09917 0.0
H405 H 0.00912 0.07283 0.10574 0.0
H406 H 0.12667 0.1996 0.15572 0.0
H407 H 0.24793 0.17185 0.14915 0.0
H408 H 0.97882 0.18209 0.14675 0.0
H409 H 0.9787 0.18724 0.10563 0.0
H410 H 0.83913 0.17674 0.09471 0.0
H411 H 0.71693 0.20577 0.09905 0.0
C412 C 0.96214 0.01192 0.63586 0.0
C413 C 0.02716 1.00045 0.6275 0.0
C414 C 0.95461 0.08576 0.63639 0.0
C415 C 0.01239 0.1495 0.62865 0.0
C416 C 0.08029 0.13924 0.62154 0.0
C417 C 0.08731 0.06547 0.62082 0.0
C418 C 0.00374 0.22712 0.62757 0.0
C419 C 0.93127 0.23521 0.62619 0.0
C420 C 0.92234 0.31274 0.62527 0.0
C421 C 0.85444 0.32235 0.63255 0.0
C422 C 0.84685 0.39583 0.6334 0.0
C423 C 0.90626 0.46116 0.62665 0.0
H424 H 0.03126 0.37082 0.61124 0.0
C425 C 0.97137 0.45048 0.61816 0.0
C426 C 0.97962 0.37691 0.61755 0.0
H427 H 0.01795 0.49973 0.61281 0.0
H428 H 0.915 0.96308 0.6412 0.0
H429 H 0.90304 0.09231 0.64263 0.0
H430 H 0.12641 0.18764 0.6158 0.0
H431 H 0.13859 0.05875 0.61443 0.0
H432 H 0.05903 0.27863 0.62724 0.0
H433 H 0.87601 0.18366 0.62649 0.0
H434 H 0.80875 0.27364 0.63829 0.0
H435 H 0.79557 0.40208 0.63989 0.0
C436 C 0.8152 0.79395 0.85429 0.0
C437 C 0.80794 0.84261 0.86886 0.0
C438 C 0.88819 0.78261 0.85205 0.0
C439 C 0.95513 0.82033 0.86428 0.0
C440 C 0.95019 0.87512 0.87766 0.0
C441 C 0.877 0.88563 0.88006 0.0
C442 C 0.02942 0.80126 0.86409 0.0
C443 C 0.02845 0.72883 0.8591 0.0
C444 C 0.10285 0.70993 0.85989 0.0
C445 C 0.11296 0.65777 0.84654 0.0
C446 C 0.18713 0.64762 0.84553 0.0
C447 C 0.25203 0.6888 0.85803 0.0
H448 H 0.15739 0.78268 0.88437 0.0
C449 C 0.23864 0.73428 0.87251 0.0
C450 C 0.16482 0.74497 0.8734 0.0
H451 H 0.28681 0.76601 0.88253 0.0
H452 H 0.76299 0.75978 0.84549 0.0
H453 H 0.89106 0.74229 0.84114 0.0
H454 H 0.0015 0.90604 0.88702 0.0
H455 H 0.87318 0.92385 0.89133 0.0
H456 H 0.0858 0.84717 0.86931 0.0
H457 H 0.9725 0.68267 0.85378 0.0
H458 H 0.06521 0.62859 0.83624 0.0
H459 H 0.19504 0.61132 0.83432 0.0
C460 C 0.48054 0.4609 0.13276 0.0
C461 C 0.54392 0.44881 0.12379 0.0
C462 C 0.47258 0.53455 0.13327 0.0
C463 C 0.52819 0.59761 0.1249 0.0
C464 C 0.59445 0.58678 0.11706 0.0
C465 C 0.60194 0.51317 0.11638 0.0
C466 C 0.51919 0.67523 0.12397 0.0
C467 C 0.44681 0.68376 0.12372 0.0
C468 C 0.43759 0.76132 0.12303 0.0
C469 C 0.37153 0.77147 0.13111 0.0
C470 C 0.36362 0.84485 0.13205 0.0
C471 C 0.42085 0.90963 0.12461 0.0
H472 H 0.54269 0.81847 0.10776 0.0
C473 C 0.48406 0.89838 0.11541 0.0
C474 C 0.49263 0.82492 0.11469 0.0
H475 H 0.52892 0.9471 0.10949 0.0
H476 H 0.43503 0.41266 0.13867 0.0
H477 H 0.42243 0.54149 0.14007 0.0
H478 H 0.63897 0.63463 0.11081 0.0
H479 H 0.65195 0.5061 0.10951 0.0
H480 H 0.57407 0.72641 0.12287 0.0
H481 H 0.39194 0.63255 0.12479 0.0
H482 H 0.3275 0.72323 0.13736 0.0
H483 H 0.31376 0.85138 0.13908 0.0
C484 C 0.75686 0.28957 0.37263 0.0
C485 C 0.76737 0.23603 0.35959 0.0
C486 C 0.68392 0.30237 0.37286 0.0
C487 C 0.61994 0.26136 0.36016 0.0
C488 C 0.62735 0.202 0.34843 0.0
C489 C 0.70062 0.18975 0.34805 0.0
C490 C 0.54579 0.28054 0.35858 0.0
C491 C 0.54731 0.35451 0.36166 0.0
C492 C 0.47279 0.37327 0.36129 0.0
C493 C 0.46843 0.43196 0.37368 0.0
C494 C 0.39476 0.44162 0.37598 0.0
C495 C 0.32467 0.3938 0.36564 0.0
H496 H 0.40712 0.28734 0.33952 0.0
C497 C 0.33123 0.34144 0.35181 0.0
C498 C 0.40473 0.33091 0.34969 0.0
H499 H 0.27819 0.30361 0.34367 0.0
H500 H 0.80663 0.32565 0.38187 0.0
H501 H 0.67869 0.34602 0.38265 0.0
H502 H 0.57806 0.16826 0.33882 0.0
H503 H 0.70638 0.14737 0.33797 0.0
H504 H 0.48919 0.23273 0.35432 0.0
H505 H 0.60414 0.40213 0.36588 0.0
H506 H 0.52057 0.46641 0.38251 0.0
H507 H 0.39139 0.48269 0.38668 0.0
loop_
_geom_bond_atom_site_label_1
_geom_bond_atom_site_label_2
_geom_bond_distance
_geom_bond_site_symmetry_2
_ccdc_geom_bond_type
C0 O12 1.241 1_455 S
C0 O13 1.280 . S
C1 O14 1.277 . S
C1 O15 1.245 1_655 S
C2 O26 1.247 . S
C2 O28 1.289 . S
Mg3 O4 1.926 . S
Mg3 O13 1.984 . S
Mg3 O15 1.988 . S
Mg3 O16 2.061 . S
O4 Mg3 1.926 . S
O4 Mg5 1.986 1_455 S
O4 Mg6 1.917 . S
Mg5 O4 1.986 1_655 S
Mg5 O12 2.042 . S
Mg5 O14 2.041 . S
Mg5 O20 2.038 . S
Mg5 O28 2.238 . S
Mg6 O4 1.917 . S
Mg6 O7 1.917 1_455 S
Mg6 O17 2.106 . S
Mg6 O19 2.079 . S
Mg6 O28 2.106 1_455 S
Mg6 O29 2.079 . S
O7 Mg6 1.917 1_655 S
O7 Mg8 1.926 . S
O7 Mg9 1.986 1_655 S
Mg8 O7 1.926 . S
Mg8 O22 1.984 . S
Mg8 O25 1.988 . S
Mg8 O26 2.061 . S
Mg9 O7 1.986 1_455 S
Mg9 O17 2.238 . S
Mg9 O21 2.042 . S
Mg9 O23 2.041 . S
Mg9 O30 2.038 . S
C10 O16 1.247 . S
C10 O17 1.289 . S
C11 O29 1.245 . S
C11 O30 1.274 . S
O12 C0 1.241 1_655 S
O12 Mg5 2.042 . S
O13 C0 1.280 . S
O13 Mg3 1.984 . S
O14 C1 1.277 . S
O14 Mg5 2.041 . S
O15 C1 1.245 1_455 S
O15 Mg3 1.988 . S
O16 Mg3 2.061 . S
O16 C10 1.247 . S
O17 Mg6 2.106 . S
O17 Mg9 2.238 . S
O17 C10 1.289 . S
C18 O19 1.245 1_655 S
C18 O20 1.274 . S
O19 Mg6 2.079 . S
O19 C18 1.245 1_455 S
O20 Mg5 2.038 . S
O20 C18 1.274 . S
O21 Mg9 2.042 . S
O21 C24 1.241 1_455 S
O22 Mg8 1.984 . S
O22 C24 1.280 . S
O23 Mg9 2.041 . S
O23 C27 1.277 . S
C24 O21 1.241 1_655 S
C24 O22 1.280 . S
O25 Mg8 1.988 . S
O25 C27 1.245 1_655 S
O26 C2 1.247 . S
O26 Mg8 2.061 . S
C27 O23 1.277 . S
C27 O25 1.245 1_455 S
O28 C2 1.289 . S
O28 Mg5 2.238 . S
O28 Mg6 2.106 1_655 S
O29 Mg6 2.079 . S
O29 C11 1.245 . S
O30 Mg9 2.038 . S
O30 C11 1.274 . S
C31 O43 1.241 1_455 S
C31 O44 1.280 . S
C32 O45 1.277 . S
C32 O46 1.245 1_655 S
C33 O57 1.247 . S
C33 O59 1.289 . S
Mg34 O35 1.926 . S
Mg34 O44 1.984 . S
Mg34 O46 1.988 . S
Mg34 O47 2.061 . S
O35 Mg34 1.926 . S
O35 Mg36 1.986 1_455 S
O35 Mg37 1.917 . S
Mg36 O35 1.986 1_655 S
Mg36 O43 2.042 . S
Mg36 O45 2.041 . S
Mg36 O51 2.038 . S
Mg36 O59 2.238 . S
Mg37 O35 1.917 . S
Mg37 O38 1.917 1_455 S
Mg37 O48 2.106 . S
Mg37 O50 2.079 1_455 S
Mg37 O59 2.106 1_455 S
Mg37 O60 2.079 . S
O38 Mg37 1.917 1_655 S
O38 Mg39 1.926 . S
O38 Mg40 1.986 1_655 S
Mg39 O38 1.926 . S
Mg39 O53 1.984 . S
Mg39 O56 1.988 . S
Mg39 O57 2.061 . S
Mg40 O38 1.986 1_455 S
Mg40 O48 2.238 . S
Mg40 O52 2.042 . S
Mg40 O54 2.041 . S
Mg40 O61 2.038 . S
C41 O47 1.247 . S
C41 O48 1.289 . S
C42 O60 1.245 . S
C42 O61 1.274 . S
O43 C31 1.241 1_655 S
O43 Mg36 2.042 . S
O44 C31 1.280 . S
O44 Mg34 1.984 . S
O45 C32 1.277 . S
O45 Mg36 2.041 . S
O46 C32 1.245 1_455 S
O46 Mg34 1.988 . S
O47 Mg34 2.061 . S
O47 C41 1.247 . S
O48 Mg37 2.106 . S
O48 Mg40 2.238 . S
O48 C41 1.289 . S
C49 O50 1.245 . S
C49 O51 1.274 . S
O50 Mg37 2.079 1_655 S
O50 C49 1.245 . S
O51 Mg36 2.038 . S
O51 C49 1.274 . S
O52 Mg40 2.042 . S
O52 C55 1.241 1_455 S
O53 Mg39 1.984 . S
O53 C55 1.280 . S
O54 Mg40 2.041 . S
O54 C58 1.277 . S
C55 O52 1.241 1_655 S
C55 O53 1.280 . S
O56 Mg39 1.988 . S
O56 C58 1.245 1_655 S
O57 C33 1.247 . S
O57 Mg39 2.061 . S
C58 O54 1.277 . S
C58 O56 1.245 1_455 S
O59 C33 1.289 . S
O59 Mg36 2.238 . S
O59 Mg37 2.106 1_655 S
O60 Mg37 2.079 . S
O60 C42 1.245 . S
O61 Mg40 2.038 . S
O61 C42 1.274 . S
C62 O74 1.241 . S
C62 O75 1.280 . S
C63 O76 1.277 . S
C63 O77 1.245 . S
C64 O88 1.247 . S
C64 O90 1.289 . S
Mg65 O66 1.926 . S
Mg65 O75 1.984 . S
Mg65 O77 1.988 . S
Mg65 O78 2.061 . S
O66 Mg65 1.926 . S
O66 Mg67 1.986 . S
O66 Mg68 1.917 . S
Mg67 O66 1.986 . S
Mg67 O74 2.042 . S
Mg67 O76 2.041 . S
Mg67 O82 2.038 . S
Mg67 O90 2.238 . S
Mg68 O66 1.917 . S
Mg68 O69 1.917 . S
Mg68 O79 2.106 . S
Mg68 O81 2.079 . S
Mg68 O90 2.106 . S
Mg68 O91 2.079 . S
O69 Mg68 1.917 . S
O69 Mg70 1.926 . S
O69 Mg71 1.986 . S
Mg70 O69 1.926 . S
Mg70 O84 1.984 . S
Mg70 O87 1.988 . S
Mg70 O88 2.061 . S
Mg71 O69 1.986 . S
Mg71 O79 2.238 . S
Mg71 O83 2.042 . S
Mg71 O85 2.041 . S
Mg71 O92 2.038 . S
C72 O78 1.247 . S
C72 O79 1.289 . S
C73 O91 1.245 . S
C73 O92 1.274 . S
O74 C62 1.241 . S
O74 Mg67 2.042 . S
O75 C62 1.280 . S
O75 Mg65 1.984 . S
O76 C63 1.277 . S
O76 Mg67 2.041 . S
O77 C63 1.245 . S
O77 Mg65 1.988 . S
O78 Mg65 2.061 . S
O78 C72 1.247 . S
O79 Mg68 2.106 . S
O79 Mg71 2.238 . S
O79 C72 1.289 . S
C80 O81 1.245 . S
C80 O82 1.274 . S
O81 Mg68 2.079 . S
O81 C80 1.245 . S
O82 Mg67 2.038 . S
O82 C80 1.274 . S
O83 Mg71 2.042 . S
O83 C86 1.241 . S
O84 Mg70 1.984 . S
O84 C86 1.280 . S
O85 Mg71 2.041 . S
O85 C89 1.277 . S
C86 O83 1.241 . S
C86 O84 1.280 . S
O87 Mg70 1.988 . S
O87 C89 1.245 . S
O88 C64 1.247 . S
O88 Mg70 2.061 . S
C89 O85 1.277 . S
C89 O87 1.245 . S
O90 C64 1.289 . S
O90 Mg67 2.238 . S
O90 Mg68 2.106 . S
O91 Mg68 2.079 . S
O91 C73 1.245 . S
O92 Mg71 2.038 . S
O92 C73 1.274 . S
C93 O105 1.241 . S
C93 O106 1.280 . S
C94 O107 1.277 . S
C94 O108 1.245 . S
C95 O119 1.247 . S
C95 O121 1.289 . S
Mg96 O97 1.926 . S
Mg96 O106 1.984 . S
Mg96 O108 1.988 . S
Mg96 O109 2.061 . S
O97 Mg96 1.926 . S
O97 Mg98 1.986 . S
O97 Mg99 1.917 . S
Mg98 O97 1.986 . S
Mg98 O105 2.042 . S
Mg98 O107 2.041 . S
Mg98 O113 2.038 . S
Mg98 O121 2.238 . S
Mg99 O97 1.917 . S
Mg99 O100 1.917 . S
Mg99 O110 2.106 . S
Mg99 O112 2.079 . S
Mg99 O121 2.106 . S
Mg99 O122 2.079 . S
O100 Mg99 1.917 . S
O100 Mg101 1.926 . S
O100 Mg102 1.986 . S
Mg101 O100 1.926 . S
Mg101 O115 1.984 . S
Mg101 O118 1.988 . S
Mg101 O119 2.061 . S
Mg102 O100 1.986 . S
Mg102 O110 2.238 . S
Mg102 O114 2.042 . S
Mg102 O116 2.041 . S
Mg102 O123 2.038 . S
C103 O109 1.247 . S
C103 O110 1.289 . S
C104 O122 1.245 . S
C104 O123 1.274 . S
O105 C93 1.241 . S
O105 Mg98 2.042 . S
O106 C93 1.280 . S
O106 Mg96 1.984 . S
O107 C94 1.277 . S
O107 Mg98 2.041 . S
O108 C94 1.245 . S
O108 Mg96 1.988 . S
O109 Mg96 2.061 . S
O109 C103 1.247 . S
O110 Mg99 2.106 . S
O110 Mg102 2.238 . S
O110 C103 1.289 . S
C111 O112 1.245 . S
C111 O113 1.274 . S
O112 Mg99 2.079 . S
O112 C111 1.245 . S
O113 Mg98 2.038 . S
O113 C111 1.274 . S
O114 Mg102 2.042 . S
O114 C117 1.241 . S
O115 Mg101 1.984 . S
O115 C117 1.280 . S
O116 Mg102 2.041 . S
O116 C120 1.277 . S
C117 O114 1.241 . S
C117 O115 1.280 . S
O118 Mg101 1.988 . S
O118 C120 1.245 . S
O119 C95 1.247 . S
O119 Mg101 2.061 . S
C120 O116 1.277 . S
C120 O118 1.245 . S
O121 C95 1.289 . S
O121 Mg98 2.238 . S
O121 Mg99 2.106 . S
O122 Mg99 2.079 . S
O122 C104 1.245 . S
O123 Mg102 2.038 . S
O123 C104 1.274 . S
C124 C125 1.386 . S
C124 C126 1.383 . S
C124 H140 0.951 . S
C125 C124 1.386 . S
C125 C129 1.383 1_655 S
C126 C124 1.383 . S
C126 C127 1.402 . S
C126 H141 0.951 . S
C127 C126 1.402 . S
C127 C128 1.375 1_655 S
C127 C130 1.481 1_655 S
C128 C127 1.375 1_455 S
C128 C129 1.367 . S
C128 H142 0.951 . S
C129 C125 1.383 1_455 S
C129 C128 1.367 . S
C129 H143 0.950 . S
C130 C127 1.481 1_455 S
C130 C131 1.297 1_455 S
C130 H144 0.950 . S
C131 C130 1.297 1_655 S
C131 C132 1.479 . S
C131 H145 0.950 . S
C132 C131 1.479 . S
C132 C133 1.375 . S
C132 C138 1.404 1_655 S
C133 C132 1.375 . S
C133 C134 1.369 . S
C133 H146 0.950 . S
C134 C133 1.369 . S
C134 C135 1.392 1_655 S
C134 H147 0.951 . S
C135 C134 1.392 1_455 S
C135 C137 1.384 . S
H136 C138 0.949 . S
C137 C135 1.384 . S
C137 C138 1.385 . S
C137 H139 0.950 . S
C138 C132 1.404 1_455 S
C138 H136 0.949 . S
C138 C137 1.385 . S
H139 C137 0.950 . S
H140 C124 0.951 . S
H141 C126 0.951 . S
H142 C128 0.951 . S
H143 C129 0.950 . S
H144 C130 0.950 . S
H145 C131 0.950 . S
H146 C133 0.950 . S
H147 C134 0.951 . S
C148 C149 1.386 . S
C148 C150 1.383 . S
C148 H164 0.951 . S
C149 C148 1.386 . S
C149 C153 1.383 . S
C150 C148 1.383 . S
C150 C151 1.402 . S
C150 H165 0.951 . S
C151 C150 1.402 . S
C151 C152 1.375 . S
C151 C154 1.481 . S
C152 C151 1.375 . S
C152 C153 1.367 . S
C152 H166 0.951 . S
C153 C149 1.383 . S
C153 C152 1.367 . S
C153 H167 0.950 . S
C154 C151 1.481 . S
C154 C155 1.297 . S
C154 H168 0.950 . S
C155 C154 1.297 . S
C155 C156 1.479 . S
C155 H169 0.950 . S
C156 C155 1.479 . S
C156 C157 1.375 . S
C156 C162 1.404 . S
C157 C156 1.375 . S
C157 C158 1.369 . S
C157 H170 0.950 . S
C158 C157 1.369 . S
C158 C159 1.392 . S
C158 H171 0.951 . S
C159 C158 1.392 . S
C159 C161 1.384 . S
H160 C162 0.949 . S
C161 C159 1.384 . S
C161 C162 1.385 . S
C161 H163 0.950 . S
C162 C156 1.404 . S
C162 H160 0.949 . S
C162 C161 1.385 . S
H163 C161 0.950 . S
H164 C148 0.951 . S
H165 C150 0.951 . S
H166 C152 0.951 . S
H167 C153 0.950 . S
H168 C154 0.950 . S
H169 C155 0.950 . S
H170 C157 0.950 . S
H171 C158 0.951 . S
C172 C173 1.386 . S
C172 C174 1.383 . S
C172 H188 0.951 . S
C173 C172 1.386 . S
C173 C177 1.383 . S
C174 C172 1.383 . S
C174 C175 1.402 . S
C174 H189 0.951 . S
C175 C174 1.402 . S
C175 C176 1.375 . S
C175 C178 1.510 . S
C176 C175 1.375 . S
C176 C177 1.367 . S
C176 H190 0.951 . S
C177 C173 1.383 . S
C177 C176 1.367 . S
C177 H191 0.950 . S
C178 C175 1.510 . S
C178 C179 1.281 1_556 S
C178 H192 0.936 1_556 S
C179 C178 1.281 1_554 S
C179 C180 1.479 . S
C179 H193 0.950 . S
C180 C179 1.479 . S
C180 C181 1.375 . S
C180 C186 1.404 . S
C181 C180 1.375 . S
C181 C182 1.369 . S
C181 H194 0.950 . S
C182 C181 1.369 . S
C182 C183 1.392 . S
C182 H195 0.951 . S
C183 C182 1.392 . S
C183 C185 1.384 . S
H184 C186 0.949 . S
C185 C183 1.384 . S
C185 C186 1.385 . S
C185 H187 0.950 . S
C186 C180 1.404 . S
C186 H184 0.949 . S
C186 C185 1.385 . S
H187 C185 0.950 . S
H188 C172 0.951 . S
H189 C174 0.951 . S
H190 C176 0.951 . S
H191 C177 0.950 . S
H192 C178 0.936 1_554 S
H193 C179 0.950 . S
H194 C181 0.950 . S
H195 C182 0.951 . S
C196 C197 1.386 . S
C196 C198 1.383 . S
C196 H212 0.951 . S
C197 C196 1.386 . S
C197 C201 1.383 . S
C198 C196 1.383 . S
C198 C199 1.402 . S
C198 H213 0.951 . S
C199 C198 1.402 . S
C199 C200 1.375 . S
C199 C202 1.481 . S
C200 C199 1.375 . S
C200 C201 1.367 . S
C200 H214 0.951 . S
C201 C197 1.383 . S
C201 C200 1.367 . S
C201 H215 0.950 . S
C202 C199 1.481 . S
C202 C203 1.297 . S
C202 H216 0.950 . S
C203 C202 1.297 . S
C203 C204 1.479 . S
C203 H217 0.950 . S
C204 C203 1.479 . S
C204 C205 1.375 . S
C204 C210 1.404 . S
C205 C204 1.375 . S
C205 C206 1.369 . S
C205 H218 0.950 . S
C206 C205 1.369 . S
C206 C207 1.392 . S
C206 H219 0.951 . S
C207 C206 1.392 . S
C207 C209 1.384 . S
H208 C210 0.949 . S
C209 C207 1.384 . S
C209 C210 1.385 . S
C209 H211 0.950 . S
C210 C204 1.404 . S
C210 H208 0.949 . S
C210 C209 1.385 . S
H211 C209 0.950 . S
H212 C196 0.951 . S
H213 C198 0.951 . S
H214 C200 0.951 . S
H215 C201 0.950 . S
H216 C202 0.950 . S
H217 C203 0.950 . S
H218 C205 0.950 . S
H219 C206 0.951 . S
C220 C221 1.386 . S
C220 C222 1.383 . S
C220 H236 0.951 . S
C221 C220 1.386 . S
C221 C225 1.383 . S
C222 C220 1.383 . S
C222 C223 1.402 . S
C222 H237 0.951 . S
C223 C222 1.402 . S
C223 C224 1.375 . S
C223 C226 1.481 . S
C224 C223 1.375 . S
C224 C225 1.367 . S
C224 H238 0.951 . S
C225 C221 1.383 . S
C225 C224 1.367 . S
C225 H239 0.950 . S
C226 C223 1.481 . S
C226 C227 1.297 . S
C226 H240 0.950 . S
C227 C226 1.297 . S
C227 C228 1.479 . S
C227 H241 0.950 . S
C228 C227 1.479 . S
C228 C229 1.375 . S
C228 C234 1.404 . S
C229 C228 1.375 . S
C229 C230 1.369 . S
C229 H242 0.950 . S
C230 C229 1.369 . S
C230 C231 1.392 . S
C230 H243 0.951 . S
C231 C230 1.392 . S
C231 C233 1.384 . S
H232 C234 0.949 . S
C233 C231 1.384 . S
C233 C234 1.385 . S
C233 H235 0.950 . S
C234 C228 1.404 . S
C234 H232 0.949 . S
C234 C233 1.385 . S
H235 C233 0.950 . S
H236 C220 0.951 . S
H237 C222 0.951 . S
H238 C224 0.951 . S
H239 C225 0.950 . S
H240 C226 0.950 . S
H241 C227 0.950 . S
H242 C229 0.950 . S
H243 C230 0.951 . S
C244 C245 1.386 . S
C244 C246 1.383 . S
C244 H260 0.951 . S
C245 C244 1.386 . S
C245 C249 1.383 . S
C246 C244 1.383 . S
C246 C247 1.402 . S
C246 H261 0.951 . S
C247 C246 1.402 . S
C247 C248 1.375 . S
C247 C250 1.481 . S
C248 C247 1.375 . S
C248 C249 1.367 . S
C248 H262 0.951 . S
C249 C245 1.383 . S
C249 C248 1.367 . S
C249 H263 0.950 . S
C250 C247 1.481 . S
C250 C251 1.297 . S
C250 H264 0.950 . S
C251 C250 1.297 . S
C251 C252 1.479 . S
C251 H265 0.950 . S
C252 C251 1.479 . S
C252 C253 1.375 . S
C252 C258 1.404 . S
C253 C252 1.375 . S
C253 C254 1.369 . S
C253 H266 0.950 . S
C254 C253 1.369 . S
C254 C255 1.392 . S
C254 H267 0.951 . S
C255 C254 1.392 . S
C255 C257 1.384 . S
H256 C258 0.949 . S
C257 C255 1.384 . S
C257 C258 1.385 . S
C257 H259 0.950 . S
C258 C252 1.404 . S
C258 H256 0.949 . S
C258 C257 1.385 . S
H259 C257 0.950 . S
H260 C244 0.951 . S
H261 C246 0.951 . S
H262 C248 0.951 . S
H263 C249 0.950 . S
H264 C250 0.950 . S
H265 C251 0.950 . S
H266 C253 0.950 . S
H267 C254 0.951 . S
C268 C269 1.386 . S
C268 C270 1.383 . S
C268 H284 0.951 . S
C269 C268 1.386 . S
C269 C273 1.383 . S
C270 C268 1.383 . S
C270 C271 1.402 . S
C270 H285 0.951 . S
C271 C270 1.402 . S
C271 C272 1.375 . S
C271 C274 1.481 . S
C272 C271 1.375 . S
C272 C273 1.367 . S
C272 H286 0.951 . S
C273 C269 1.383 . S
C273 C272 1.367 . S
C273 H287 0.950 . S
C274 C271 1.481 . S
C274 C275 1.297 1_556 S
C274 H288 0.950 1_556 S
C275 C274 1.297 1_554 S
C275 C276 1.479 1_565 S
C275 H289 0.950 . S
C276 C275 1.479 1_545 S
C276 C277 1.375 . S
C276 C282 1.404 . S
C277 C276 1.375 . S
C277 C278 1.369 . S
C277 H290 0.950 . S
C278 C277 1.369 . S
C278 C279 1.392 . S
C278 H291 0.951 . S
C279 C278 1.392 . S
C279 C281 1.384 . S
H280 C282 0.949 1_565 S
C281 C279 1.384 . S
C281 C282 1.385 . S
C281 H283 0.950 . S
C282 C276 1.404 . S
C282 H280 0.949 1_545 S
C282 C281 1.385 . S
H283 C281 0.950 . S
H284 C268 0.951 . S
H285 C270 0.951 . S
H286 C272 0.951 . S
H287 C273 0.950 . S
H288 C274 0.950 1_554 S
H289 C275 0.950 . S
H290 C277 0.950 . S
H291 C278 0.951 . S
C292 C293 1.386 . S
C292 C294 1.383 1_455 S
C292 H308 0.951 1_455 S
C293 C292 1.386 . S
C293 C297 1.383 . S
C294 C292 1.383 1_655 S
C294 C295 1.402 1_655 S
C294 H309 0.951 1_545 S
C295 C294 1.402 1_455 S
C295 C296 1.375 . S
C295 C298 1.481 . S
C296 C295 1.375 . S
C296 C297 1.367 . S
C296 H310 0.951 . S
C297 C293 1.383 . S
C297 C296 1.367 . S
C297 H311 0.950 . S
C298 C295 1.481 . S
C298 C299 1.297 1_445 S
C298 H312 0.950 . S
C299 C298 1.297 1_665 S
C299 C300 1.479 . S
C299 H313 0.950 . S
C300 C299 1.479 . S
C300 C301 1.375 . S
C300 C306 1.404 1_655 S
C301 C300 1.375 . S
C301 C302 1.369 . S
C301 H314 0.950 . S
C302 C301 1.369 . S
C302 C303 1.392 . S
C302 H315 0.951 . S
C303 C302 1.392 . S
C303 C305 1.384 1_655 S
H304 C306 0.949 . S
C305 C303 1.384 1_455 S
C305 C306 1.385 . S
C305 H307 0.950 . S
C306 C300 1.404 1_455 S
C306 H304 0.949 . S
C306 C305 1.385 . S
H307 C305 0.950 . S
H308 C292 0.951 1_655 S
H309 C294 0.951 1_565 S
H310 C296 0.951 . S
H311 C297 0.950 . S
H312 C298 0.950 . S
H313 C299 0.950 . S
H314 C301 0.950 . S
H315 C302 0.951 . S
C316 C317 1.386 1_455 S
C316 C318 1.383 . S
C316 H332 0.951 1_565 S
C317 C316 1.386 1_655 S
C317 C321 1.383 . S
C318 C316 1.383 . S
C318 C319 1.402 1_455 S
C318 H333 0.951 . S
C319 C318 1.402 1_655 S
C319 C320 1.375 . S
C319 C322 1.481 . S
C320 C319 1.375 . S
C320 C321 1.367 . S
C320 H334 0.951 . S
C321 C317 1.383 . S
C321 C320 1.367 . S
C321 H335 0.950 . S
C322 C319 1.481 . S
C322 C323 1.297 1_655 S
C322 H336 0.950 . S
C323 C322 1.297 1_455 S
C323 C324 1.479 . S
C323 H337 0.950 . S
C324 C323 1.479 . S
C324 C325 1.375 . S
C324 C330 1.404 1_455 S
C325 C324 1.375 . S
C325 C326 1.369 . S
C325 H338 0.950 . S
C326 C325 1.369 . S
C326 C327 1.392 . S
C326 H339 0.951 . S
C327 C326 1.392 . S
C327 C329 1.384 1_455 S
H328 C330 0.949 . S
C329 C327 1.384 1_655 S
C329 C330 1.385 . S
C329 H331 0.950 . S
C330 C324 1.404 1_655 S
C330 H328 0.949 . S
C330 C329 1.385 . S
H331 C329 0.950 . S
H332 C316 0.951 1_545 S
H333 C318 0.951 . S
H334 C320 0.951 . S
H335 C321 0.950 . S
H336 C322 0.950 . S
H337 C323 0.950 . S
H338 C325 0.950 . S
H339 C326 0.951 . S
C340 C341 1.386 . S
C340 C342 1.383 . S
C340 H356 0.951 . S
C341 C340 1.386 . S
C341 C345 1.383 . S
C342 C340 1.383 . S
C342 C343 1.402 . S
C342 H357 0.951 . S
C343 C342 1.402 . S
C343 C344 1.375 . S
C343 C346 1.481 . S
C344 C343 1.375 . S
C344 C345 1.367 . S
C344 H358 0.951 . S
C345 C341 1.383 . S
C345 C344 1.367 . S
C345 H359 0.950 . S
C346 C343 1.481 . S
C346 C347 1.297 . S
C346 H360 0.950 . S
C347 C346 1.297 . S
C347 C348 1.479 . S
C347 H361 0.950 . S
C348 C347 1.479 . S
C348 C349 1.375 . S
C348 C354 1.404 . S
C349 C348 1.375 . S
C349 C350 1.369 . S
C349 H362 0.950 . S
C350 C349 1.369 . S
C350 C351 1.392 . S
C350 H363 0.951 . S
C351 C350 1.392 . S
C351 C353 1.384 . S
H352 C354 0.949 . S
C353 C351 1.384 . S
C353 C354 1.385 . S
C353 H355 0.950 . S
C354 C348 1.404 . S
C354 H352 0.949 . S
C354 C353 1.385 . S
H355 C353 0.950 . S
H356 C340 0.951 . S
H357 C342 0.951 . S
H358 C344 0.951 . S
H359 C345 0.950 . S
H360 C346 0.950 . S
H361 C347 0.950 . S
H362 C349 0.950 . S
H363 C350 0.951 . S
C364 C365 1.386 . S
C364 C366 1.383 . S
C364 H380 0.951 . S
C365 C364 1.386 . S
C365 C369 1.383 . S
C366 C364 1.383 . S
C366 C367 1.402 . S
C366 H381 0.951 . S
C367 C366 1.402 . S
C367 C368 1.375 . S
C367 C370 1.481 . S
C368 C367 1.375 . S
C368 C369 1.367 . S
C368 H382 0.951 . S
C369 C365 1.383 . S
C369 C368 1.367 . S
C369 H383 0.950 . S
C370 C367 1.481 . S
C370 C371 1.297 . S
C370 H384 0.950 . S
C371 C370 1.297 . S
C371 C372 1.479 . S
C371 H385 0.950 . S
C372 C371 1.479 . S
C372 C373 1.375 . S
C372 C378 1.404 . S
C373 C372 1.375 . S
C373 C374 1.369 . S
C373 H386 0.950 . S
C374 C373 1.369 . S
C374 C375 1.392 . S
C374 H387 0.951 . S
C375 C374 1.392 . S
C375 C377 1.384 . S
H376 C378 0.949 . S
C377 C375 1.384 . S
C377 C378 1.385 . S
C377 H379 0.950 . S
C378 C372 1.404 . S
C378 H376 0.949 . S
C378 C377 1.385 . S
H379 C377 0.950 . S
H380 C364 0.951 . S
H381 C366 0.951 . S
H382 C368 0.951 . S
H383 C369 0.950 . S
H384 C370 0.950 . S
H385 C371 0.950 . S
H386 C373 0.950 . S
H387 C374 0.951 . S
C388 C389 1.386 . S
C388 C390 1.383 . S
C388 H404 0.951 . S
C389 C388 1.386 . S
C389 C393 1.383 . S
C390 C388 1.383 . S
C390 C391 1.402 . S
C390 H405 0.951 . S
C391 C390 1.402 . S
C391 C392 1.375 . S
C391 C394 1.481 . S
C392 C391 1.375 . S
C392 C393 1.367 . S
C392 H406 0.951 . S
C393 C389 1.383 . S
C393 C392 1.367 . S
C393 H407 0.950 . S
C394 C391 1.481 . S
C394 C395 1.297 1_455 S
C394 H408 0.950 1_455 S
C395 C394 1.297 1_655 S
C395 C396 1.479 . S
C395 H409 0.950 . S
C396 C395 1.479 . S
C396 C397 1.375 . S
C396 C402 1.404 . S
C397 C396 1.375 . S
C397 C398 1.369 . S
C397 H410 0.950 . S
C398 C397 1.369 . S
C398 C399 1.392 . S
C398 H411 0.951 . S
C399 C398 1.392 . S
C399 C401 1.384 . S
H400 C402 0.949 . S
C401 C399 1.384 . S
C401 C402 1.385 . S
C401 H403 0.950 . S
C402 C396 1.404 . S
C402 H400 0.949 . S
C402 C401 1.385 . S
H403 C401 0.950 . S
H404 C388 0.951 . S
H405 C390 0.951 . S
H406 C392 0.951 . S
H407 C393 0.950 . S
H408 C394 0.950 1_655 S
H409 C395 0.950 . S
H410 C397 0.950 . S
H411 C398 0.951 . S
C412 C413 1.386 1_655 S
C412 C414 1.383 . S
C412 H428 0.951 1_545 S
C413 C412 1.386 1_455 S
C413 C417 1.383 . S
C414 C412 1.383 . S
C414 C415 1.402 1_655 S
C414 H429 0.951 . S
C415 C414 1.402 1_455 S
C415 C416 1.375 . S
C415 C418 1.481 . S
C416 C415 1.375 . S
C416 C417 1.367 . S
C416 H430 0.951 . S
C417 C413 1.383 . S
C417 C416 1.367 . S
C417 H431 0.950 . S
C418 C415 1.481 . S
C418 C419 1.297 1_455 S
C418 H432 0.950 . S
C419 C418 1.297 1_655 S
C419 C420 1.479 . S
C419 H433 0.950 . S
C420 C419 1.479 . S
C420 C421 1.375 . S
C420 C426 1.404 1_655 S
C421 C420 1.375 . S
C421 C422 1.369 . S
C421 H434 0.950 . S
C422 C421 1.369 . S
C422 C423 1.392 . S
C422 H435 0.951 . S
C423 C422 1.392 . S
C423 C425 1.384 1_655 S
H424 C426 0.949 . S
C425 C423 1.384 1_455 S
C425 C426 1.385 . S
C425 H427 0.950 . S
C426 C420 1.404 1_455 S
C426 H424 0.949 . S
C426 C425 1.385 . S
H427 C425 0.950 . S
H428 C412 0.951 1_565 S
H429 C414 0.951 . S
H430 C416 0.951 . S
H431 C417 0.950 . S
H432 C418 0.950 . S
H433 C419 0.950 . S
H434 C421 0.950 . S
H435 C422 0.951 . S
C436 C437 1.386 . S
C436 C438 1.383 . S
C436 H452 0.951 . S
C437 C436 1.386 . S
C437 C441 1.383 . S
C438 C436 1.383 . S
C438 C439 1.402 . S
C438 H453 0.951 . S
C439 C438 1.402 . S
C439 C440 1.375 . S
C439 C442 1.481 1_655 S
C440 C439 1.375 . S
C440 C441 1.367 . S
C440 H454 0.951 . S
C441 C437 1.383 . S
C441 C440 1.367 . S
C441 H455 0.950 . S
C442 C439 1.481 1_455 S
C442 C443 1.297 . S
C442 H456 0.950 . S
C443 C442 1.297 . S
C443 C444 1.479 . S
C443 H457 0.950 . S
C444 C443 1.479 . S
C444 C445 1.375 . S
C444 C450 1.404 . S
C445 C444 1.375 . S
C445 C446 1.369 . S
C445 H458 0.950 . S
C446 C445 1.369 . S
C446 C447 1.392 . S
C446 H459 0.951 . S
C447 C446 1.392 . S
C447 C449 1.384 . S
H448 C450 0.949 . S
C449 C447 1.384 . S
C449 C450 1.385 . S
C449 H451 0.950 . S
C450 C444 1.404 . S
C450 H448 0.949 . S
C450 C449 1.385 . S
H451 C449 0.950 . S
H452 C436 0.951 . S
H453 C438 0.951 . S
H454 C440 0.951 . S
H455 C441 0.950 . S
H456 C442 0.950 . S
H457 C443 0.950 . S
H458 C445 0.950 . S
H459 C446 0.951 . S
C460 C461 1.386 . S
C460 C462 1.383 . S
C460 H476 0.951 . S
C461 C460 1.386 . S
C461 C465 1.383 . S
C462 C460 1.383 . S
C462 C463 1.402 . S
C462 H477 0.951 . S
C463 C462 1.402 . S
C463 C464 1.375 . S
C463 C466 1.481 . S
C464 C463 1.375 . S
C464 C465 1.367 . S
C464 H478 0.951 . S
C465 C461 1.383 . S
C465 C464 1.367 . S
C465 H479 0.950 . S
C466 C463 1.481 . S
C466 C467 1.297 . S
C466 H480 0.950 . S
C467 C466 1.297 . S
C467 C468 1.479 . S
C467 H481 0.950 . S
C468 C467 1.479 . S
C468 C469 1.375 . S
C468 C474 1.404 . S
C469 C468 1.375 . S
C469 C470 1.369 . S
C469 H482 0.950 . S
C470 C469 1.369 . S
C470 C471 1.392 . S
C470 H483 0.951 1_565 S
C471 C470 1.392 . S
C471 C473 1.384 . S
H472 C474 0.949 . S
C473 C471 1.384 . S
C473 C474 1.385 . S
C473 H475 0.950 . S
C474 C468 1.404 . S
C474 H472 0.949 . S
C474 C473 1.385 . S
H475 C473 0.950 . S
H476 C460 0.951 . S
H477 C462 0.951 . S
H478 C464 0.951 . S
H479 C465 0.950 . S
H480 C466 0.950 . S
H481 C467 0.950 . S
H482 C469 0.950 . S
H483 C470 0.951 1_545 S
C484 C485 1.386 . S
C484 C486 1.383 . S
C484 H500 0.951 . S
C485 C484 1.386 . S
C485 C489 1.383 . S
C486 C484 1.383 . S
C486 C487 1.402 . S
C486 H501 0.951 . S
C487 C486 1.402 . S
C487 C488 1.375 . S
C487 C490 1.481 . S
C488 C487 1.375 . S
C488 C489 1.367 . S
C488 H502 0.951 . S
C489 C485 1.383 . S
C489 C488 1.367 . S
C489 H503 0.950 . S
C490 C487 1.481 . S
C490 C491 1.297 . S
C490 H504 0.950 . S
C491 C490 1.297 . S
C491 C492 1.479 . S
C491 H505 0.950 . S
C492 C491 1.479 . S
C492 C493 1.375 . S
C492 C498 1.404 . S
C493 C492 1.375 . S
C493 C494 1.369 . S
C493 H506 0.950 . S
C494 C493 1.369 . S
C494 C495 1.392 . S
C494 H507 0.951 . S
C495 C494 1.392 . S
C495 C497 1.384 . S
H496 C498 0.949 . S
C497 C495 1.384 . S
C497 C498 1.385 . S
C497 H499 0.950 . S
C498 C492 1.404 . S
C498 H496 0.949 . S
C498 C497 1.385 . S
H499 C497 0.950 . S
H500 C484 0.951 . S
H501 C486 0.951 . S
H502 C488 0.951 . S
H503 C489 0.950 . S
H504 C490 0.950 . S
H505 C491 0.950 . S
H506 C493 0.950 . S
H507 C494 0.951 . S
C125 C1 1.205 . S
C135 C58 1.215 . S
C149 C89 1.803 . S
C159 C32 1.865 . S
C173 C62 1.259 . S
C183 C117 1.279 . S
C197 C24 1.266 . S
C207 C93 1.394 . S
C221 C94 1.809 . S
C231 C27 1.833 . S
C245 C31 1.355 . S
C255 C86 1.215 . S
C269 C63 1.198 . S
C279 C120 1.232 . S
C293 C0 1.335 . S
C303 C55 1.217 . S
C317 C18 1.624 1_565 S
C327 C11 1.651 . S
C341 C41 1.300 . S
C351 C33 1.248 . S
C365 C80 1.632 . S
C375 C73 1.620 1_545 S
C389 C95 1.281 . S
C399 C103 1.298 . S
C413 C42 1.650 1_545 S
C423 C49 1.603 . S
C437 C72 1.255 . S
C447 C64 1.273 . S
C461 C104 1.624 . S
C471 C111 1.650 1_565 S
C485 C2 1.253 . S
C495 C10 1.279 . S
