# Generated by pormake.
# Topology bcg, (8)-cn, num edge types: 1
# Building blocks:
#     Node 0, Type 0, BuildingBlock: NUHRAL_clean_sbu_3, # of connection points: 8
#     Node 1, Type 0, BuildingBlock: NUHRAL_clean_sbu_3, # of connection points: 8
#     Node 2, Type 0, BuildingBlock: NUHRAL_clean_sbu_3, # of connection points: 8
#     Node 3, Type 0, BuildingBlock: NUHRAL_clean_sbu_3, # of connection points: 8
#     Edge 4, Type (0, 0), BuildingBlock: OJICUG_clean_linker_0, # of connection points: 2
#     Edge 5, Type (0, 0), BuildingBlock: OJICUG_clean_linker_0, # of connection points: 2
#     Edge 6, Type (0, 0), BuildingBlock: OJICUG_clean_linker_0, # of connection points: 2
#     Edge 7, Type (0, 0), BuildingBlock: OJICUG_clean_linker_0, # of connection points: 2
#     Edge 8, Type (0, 0), BuildingBlock: OJICUG_clean_linker_0, # of connection points: 2
#     Edge 9, Type (0, 0), BuildingBlock: OJICUG_clean_linker_0, # of connection points: 2
#     Edge 10, Type (0, 0), BuildingBlock: OJICUG_clean_linker_0, # of connection points: 2
#     Edge 11, Type (0, 0), BuildingBlock: OJICUG_clean_linker_0, # of connection points: 2
#     Edge 12, Type (0, 0), BuildingBlock: OJICUG_clean_linker_0, # of connection points: 2
#     Edge 13, Type (0, 0), BuildingBlock: OJICUG_clean_linker_0, # of connection points: 2
#     Edge 14, Type (0, 0), BuildingBlock: OJICUG_clean_linker_0, # of connection points: 2
#     Edge 15, Type (0, 0), BuildingBlock: OJICUG_clean_linker_0, # of connection points: 2
#     Edge 16, Type (0, 0), BuildingBlock: OJICUG_clean_linker_0, # of connection points: 2
#     Edge 17, Type (0, 0), BuildingBlock: OJICUG_clean_linker_0, # of connection points: 2
#     Edge 18, Type (0, 0), BuildingBlock: OJICUG_clean_linker_0, # of connection points: 2
#     Edge 19, Type (0, 0), BuildingBlock: OJICUG_clean_linker_0, # of connection points: 2
# Relax obj value: 0.197
# Max RMSD: 0.290
# Mean RMSD: 0.290
data_MOF--net-bcg--node1-NUHRAL_clean_sbu_3--edge1-OJICUG_clean_linker_0
_symmetry_space_group_name_H-M    P1
_symmetry_Int_Tables_number       1
_symmetry_cell_setting            triclinic
loop_
_symmetry_equiv_pos_as_xyz
'x, y, z'
_cell_length_a     17.111271
_cell_length_b     11.861749
_cell_length_c     25.906721
_cell_angle_alpha  83.393364
_cell_angle_beta   90.025022
_cell_angle_gamma 89.994206
loop_
_atom_site_label
_atom_site_type_symbol
_atom_site_fract_x
_atom_site_fract_y
_atom_site_fract_z
_atom_type_partial_charge
C0 C 0.07668 0.235 0.0674 0.0
C1 C 1.0111 0.21058 0.03804 0.0
C2 C 0.94103 0.17507 0.06276 0.0
C3 C 0.93786 0.16104 0.11702 0.0
C4 C 1.00357 0.17872 0.14737 0.0
C5 C 0.07297 0.21811 0.12221 0.0
O6 O 0.22864 0.04105 0.96921 0.0
Tb7 Tb 0.23309 0.2239 0.96849 0.0
O8 O 0.17447 0.23734 0.89346 0.0
O9 O 0.2418 -0.01885 0.05442 0.0
Eu10 Eu 0.35964 0.06711 0.04938 0.0
O11 O 0.14383 0.3258 0.99304 0.0
C12 C 0.44623 0.0155 0.97324 0.0
O13 O 0.2095 0.20824 0.04844 0.0
O14 O 0.36147 0.25635 0.04785 0.0
O15 O 0.3467 0.30847 0.96219 0.0
C16 C 0.14943 0.27684 0.0413 0.0
C17 C 0.39757 0.12511 0.15977 0.0
O18 O 0.33555 0.18809 0.14786 0.0
C19 C 0.20299 -0.02091 0.01073 0.0
C20 C 0.38545 0.31656 1.0055 0.0
O21 O 0.42096 0.05511 0.12698 0.0
C22 C 0.51866 0.0578 0.94683 0.0
C23 C 0.59149 0.11452 0.86678 0.0
C24 C 0.52218 0.07475 0.892 0.0
C25 C 0.58422 0.08263 0.9761 0.0
C26 C 0.65415 0.11844 0.95134 0.0
C27 C 0.65723 0.13241 0.89709 0.0
C28 C 0.19916 0.1708 0.85954 0.0
O29 O 0.2626 0.1102 0.87032 0.0
O30 O 0.45253 -0.03471 0.0212 0.0
O31 O 0.38567 0.08319 0.96647 0.0
H32 H 1.01433 0.2202 0.99599 0.0
H33 H 0.88248 0.13981 0.13596 0.0
H34 H 0.12393 0.23489 0.14498 0.0
H35 H 0.47121 0.05773 0.8693 0.0
H36 H 0.58108 0.07303 0.01816 0.0
H37 H 0.71259 0.15376 0.87815 0.0
C38 C 0.57667 0.73475 0.0682 0.0
C39 C 0.51111 0.71007 0.03889 0.0
C40 C 0.44112 0.67435 0.06364 0.0
C41 C 0.43801 0.66031 0.1179 0.0
C42 C 0.50371 0.67828 0.14821 0.0
C43 C 0.57303 0.7179 0.12301 0.0
O44 O 0.72866 0.54135 0.96976 0.0
Tb45 Tb 0.7329 0.72416 0.96918 0.0
O46 O 0.67418 0.73757 0.89422 0.0
O47 O 0.7415 0.48146 0.05497 0.0
Eu48 Eu 0.85942 0.5674 0.05006 0.0
O49 O 0.64357 0.8258 0.9938 0.0
C50 C 0.9461 0.51554 0.974 0.0
O51 O 0.7095 0.70846 0.04915 0.0
O52 O 0.86152 0.7567 0.04839 0.0
O53 O 0.84644 0.80877 0.96274 0.0
C54 C 0.64932 0.77687 0.04206 0.0
C55 C 0.89743 0.62557 0.16049 0.0
O56 O 0.83565 0.68901 0.1485 0.0
C57 C 0.70291 0.47929 0.01121 0.0
C58 C 0.88538 0.81681 1.00597 0.0
O59 O 0.92062 0.55535 0.12774 0.0
C60 C 1.01864 0.55753 0.94764 0.0
C61 C 0.09164 0.61404 0.86762 0.0
C62 C 1.02224 0.57452 0.89281 0.0
C63 C 0.08423 0.58208 0.97695 0.0
C64 C 0.15424 0.61766 0.95222 0.0
C65 C 0.15738 0.63161 0.89798 0.0
C66 C 0.69904 0.67127 0.86026 0.0
O67 O 0.76268 0.61108 0.87096 0.0
O68 O 0.95223 0.4653 0.02198 0.0
O69 O 0.88566 0.58344 0.96719 0.0
H70 H 0.5143 0.71968 0.99683 0.0
H71 H 0.38267 0.63893 0.13687 0.0
H72 H 0.62398 0.73489 0.14575 0.0
H73 H 0.97124 0.55774 0.87007 0.0
H74 H 0.08105 0.57247 0.01901 0.0
H75 H 0.21279 0.65278 0.87906 0.0
C76 C 0.07612 0.55935 0.45054 0.0
C77 C 1.01055 0.58373 0.47989 0.0
C78 C 0.94045 0.61922 0.45515 0.0
C79 C 0.93723 0.63323 0.40089 0.0
C80 C 1.00293 0.61561 0.37056 0.0
C81 C 0.07237 0.57627 0.39573 0.0
O82 O 0.22842 0.75354 0.54842 0.0
Tb83 Tb 0.23285 0.57064 0.5493 0.0
O84 O 0.17448 0.55739 0.62438 0.0
O85 O 0.24136 0.81315 0.46318 0.0
Eu86 Eu 0.35926 0.7273 0.46828 0.0
O87 O 0.14342 0.46875 0.52494 0.0
C88 C 0.44573 0.77896 0.54452 0.0
O89 O 0.20902 0.58595 0.46938 0.0
O90 O 0.36103 0.53804 0.46986 0.0
O91 O 0.34645 0.48598 0.55553 0.0
C92 C 0.14891 0.51749 0.47664 0.0
C93 C 0.3977 0.66912 0.35797 0.0
O94 O 0.33577 0.60594 0.36977 0.0
C95 C 0.20264 0.81533 0.50687 0.0
C96 C 0.38509 0.47783 0.5122 0.0
O97 O 0.42081 0.73928 0.39078 0.0
C98 C 0.51819 0.73679 0.57096 0.0
C99 C 0.5911 0.68025 0.65104 0.0
C100 C 0.52177 0.71998 0.62579 0.0
C101 C 0.58373 0.71187 0.54172 0.0
C102 C 0.65369 0.6761 0.56651 0.0
C103 C 0.65681 0.66225 0.62075 0.0
C104 C 0.19919 0.6241 0.65823 0.0
O105 O 0.26252 0.68485 0.64736 0.0
O106 O 0.45199 0.82926 0.49657 0.0
O107 O 0.38527 0.71111 0.55121 0.0
H108 H 1.01382 0.57409 0.52194 0.0
H109 H 0.88182 0.6544 0.38194 0.0
H110 H 0.12333 0.55956 0.37298 0.0
H111 H 0.47081 0.73707 0.64847 0.0
H112 H 0.58054 0.72136 0.49966 0.0
H113 H 0.71219 0.64091 0.63972 0.0
C114 C 0.5761 0.05958 0.44975 0.0
C115 C 0.51056 0.08422 0.47906 0.0
C116 C 0.44053 0.11991 0.45428 0.0
C117 C 0.43737 0.13391 0.40003 0.0
C118 C 0.50306 0.11601 0.36973 0.0
C119 C 0.57242 0.07647 0.39494 0.0
O120 O 0.72844 0.25325 0.54787 0.0
Tb121 Tb 0.73266 0.0704 0.54861 0.0
O122 O 0.67419 0.05717 0.62363 0.0
O123 O 0.74106 0.31286 0.46263 0.0
Eu124 Eu 0.85904 0.22702 0.46759 0.0
O125 O 0.64317 -0.03125 0.52417 0.0
C126 C 0.9456 0.27894 0.54375 0.0
O127 O 0.70902 0.08575 0.46867 0.0
O128 O 0.86108 0.03771 0.46931 0.0
O129 O 0.84619 -0.0143 0.55498 0.0
C130 C 0.6488 0.01747 0.47588 0.0
C131 C 0.89755 0.1687 0.35724 0.0
O132 O 0.83585 0.10507 0.36912 0.0
C133 C 0.70255 0.31515 0.5064 0.0
C134 C 0.88502 -0.02239 0.51173 0.0
O135 O 0.92046 0.23907 0.39001 0.0
C136 C 1.01816 0.23705 0.57015 0.0
C137 C 0.09122 0.18071 0.6502 0.0
C138 C 1.02181 0.22021 0.62499 0.0
C139 C 0.08373 0.21242 0.54088 0.0
C140 C 0.15376 0.17687 0.56564 0.0
C141 C 0.15695 0.16303 0.61988 0.0
C142 C 0.69906 0.12366 0.65752 0.0
O143 O 0.76259 0.18402 0.64672 0.0
O144 O 0.9517 0.32926 0.49579 0.0
O145 O 0.88525 0.21089 0.55049 0.0
H146 H 0.51379 0.07461 0.52111 0.0
H147 H 0.382 0.15522 0.38105 0.0
H148 H 0.62337 0.05954 0.37222 0.0
H149 H 0.97083 0.23705 0.6477 0.0
H150 H 0.08052 0.22193 0.49882 0.0
H151 H 0.21237 0.14185 0.63882 0.0
C152 C 0.77858 0.22301 0.96375 0.0
C153 C 0.72602 0.13582 0.98125 0.0
H154 H 0.88857 0.30092 0.97439 0.0
C155 C 0.74553 0.0606 0.02514 0.0
H156 H 0.76476 0.28385 0.93054 0.0
C157 C 0.81656 0.07074 0.05036 0.0
C158 C 0.86917 0.15783 0.03284 0.0
H159 H 0.7067 -0.00739 0.03964 0.0
H160 H 0.83034 0.00992 0.08359 0.0
C161 C 0.84968 0.23305 0.98893 0.0
C162 C 0.27862 0.72219 0.96466 0.0
C163 C 0.22608 0.635 0.98215 0.0
H164 H 0.38858 0.80013 0.97529 0.0
C165 C 0.24558 0.55978 0.02605 0.0
H166 H 0.2648 0.78304 0.93145 0.0
C167 C 0.31663 0.56993 0.05127 0.0
C168 C 0.36923 0.65704 0.03374 0.0
H169 H 0.20674 0.4918 0.04055 0.0
H170 H 0.33042 0.50913 0.0845 0.0
C171 C 0.34972 0.73224 0.98983 0.0
C172 C 0.77809 0.57146 0.55415 0.0
C173 C 0.72552 0.65864 0.53662 0.0
H174 H 0.88807 0.49349 0.54355 0.0
C175 C 0.74498 0.73379 0.49271 0.0
H176 H 0.76431 0.51067 0.58738 0.0
C177 C 0.81599 0.72359 0.4675 0.0
C178 C 0.86861 0.6365 0.48506 0.0
H179 H 0.70614 0.80178 0.47818 0.0
H180 H 0.82973 0.78436 0.43426 0.0
C181 C 0.84917 0.56135 0.52898 0.0
C182 C 0.24503 0.2346 0.49181 0.0
C183 C 0.22558 0.15945 0.53573 0.0
H184 H 0.3298 0.28513 0.43337 0.0
C185 C 0.27814 0.07226 0.55326 0.0
H186 H 0.20618 0.30258 0.47729 0.0
C187 C 0.34921 0.06214 0.5281 0.0
C188 C 0.36867 0.13727 0.48417 0.0
H189 H 0.26435 0.01147 0.58648 0.0
H190 H 0.38809 -0.00574 0.54267 0.0
C191 C 0.31605 0.22437 0.4666 0.0
C192 C 0.57993 0.4083 0.05587 0.0
C193 C 0.62283 0.43309 0.00993 0.0
H194 H 0.47038 0.35642 0.09018 0.0
C195 C 0.58589 0.42421 0.96192 0.0
H196 H 0.60614 0.41656 0.09332 0.0
C197 C 0.50767 0.39063 0.95995 0.0
C198 C 0.4649 0.3654 1.00597 0.0
H199 H 0.61749 0.44328 0.92573 0.0
H200 H 0.48138 0.38206 0.92256 0.0
C201 C 0.50179 0.37523 0.0539 0.0
C202 C 0.58566 0.37033 0.5557 0.0
C203 C 0.62245 0.36129 0.50768 0.0
H204 H 0.48126 0.41261 0.5951 0.0
C205 C 0.57941 0.38587 0.46176 0.0
H206 H 0.61737 0.35142 0.59187 0.0
C207 C 0.50126 0.41893 0.46376 0.0
C208 C 0.46453 0.42895 0.51171 0.0
H209 H 0.60551 0.37747 0.42431 0.0
H210 H 0.46974 0.4376 0.42751 0.0
C211 C 0.50744 0.40389 0.5577 0.0
C212 C 0.08032 -0.09192 0.05577 0.0
C213 C 0.12286 -0.06694 0.00968 0.0
H214 H 0.97103 0.85611 0.09043 0.0
C215 C 0.08552 -0.07552 0.96178 0.0
H216 H 0.10686 -0.08391 0.09314 0.0
C217 C 1.00726 0.89098 0.96006 0.0
C218 C 0.96487 0.86553 1.00623 0.0
H219 H 0.11682 -0.05628 0.92549 0.0
H220 H 0.98065 0.88265 0.92275 0.0
C221 C 1.00215 0.87509 0.05405 0.0
C222 C 1.00702 -0.09647 0.55759 0.0
C223 C 0.96449 -0.07117 0.51144 0.0
H224 H 0.11669 0.85094 0.59212 0.0
C225 C 1.00164 -0.08089 0.46361 0.0
H226 H 0.98052 -0.088 0.5949 0.0
C227 C 0.07981 0.88611 0.46187 0.0
C228 C 0.12249 0.86131 0.50794 0.0
H229 H 0.97041 -0.06204 0.42725 0.0
H230 H 0.10625 0.87797 0.42449 0.0
C231 C 0.08528 0.87004 0.55584 0.0
C232 C 0.522 0.05322 0.28056 0.0
C233 C 0.49423 0.13333 0.31212 0.0
H234 H 0.51285 -0.01186 0.20657 0.0
C235 C 0.44641 0.22209 0.28944 0.0
H236 H 0.56159 -0.01315 0.29615 0.0
C237 C 0.41788 0.22145 0.23915 0.0
C238 C 0.43798 0.13359 0.2097 0.0
H239 H 0.42682 0.28846 0.31184 0.0
H240 H 0.37746 0.28762 0.22423 0.0
C241 C 0.49389 0.05338 0.22958 0.0
C242 C 0.52233 0.74133 0.23737 0.0
C243 C 0.4949 0.66097 0.20582 0.0
H244 H 0.51275 0.80659 0.31128 0.0
C245 C 0.44727 0.57199 0.22847 0.0
H246 H 0.56175 0.80789 0.22178 0.0
C247 C 0.41859 0.57262 0.2787 0.0
C248 C 0.43833 0.66069 0.30813 0.0
H249 H 0.42793 0.50547 0.20607 0.0
H250 H 0.37831 0.50627 0.29359 0.0
C251 C 0.49407 0.74115 0.28829 0.0
C252 C 0.57262 0.74267 0.74039 0.0
C253 C 0.60001 0.6626 0.70866 0.0
H254 H 0.58286 0.8078 0.81435 0.0
C255 C 0.64795 0.57373 0.73113 0.0
H256 H 0.53286 0.809 0.72502 0.0
C257 C 0.67729 0.57458 0.78119 0.0
C258 C 0.65773 0.66256 0.81069 0.0
H259 H 0.66716 0.50726 0.70866 0.0
H260 H 0.71788 0.50845 0.79591 0.0
C261 C 0.60144 0.74255 0.7912 0.0
C262 C 0.64835 0.22102 0.78672 0.0
C263 C 0.60034 0.13224 0.80916 0.0
H264 H 0.71823 0.28626 0.72196 0.0
C265 C 0.57282 0.05232 0.7774 0.0
H266 H 0.66767 0.2874 0.80922 0.0
C267 C 0.60155 0.05245 0.72658 0.0
C268 C 0.65789 0.13234 0.70711 0.0
H269 H 0.53298 -0.01391 0.79273 0.0
H270 H 0.58285 -0.0127 0.7034 0.0
C271 C 0.6776 0.2202 0.73665 0.0
C272 C 0.94616 0.72188 0.29034 0.0
C273 C 0.99404 0.6331 0.31294 0.0
H274 H 0.87721 0.78766 0.22518 0.0
C275 C 1.02181 0.55315 0.28131 0.0
H276 H 0.92655 0.78812 0.31282 0.0
C277 C 0.99369 0.55351 0.23032 0.0
C278 C 0.93778 0.63377 0.21048 0.0
H279 H 0.06141 0.48676 0.29685 0.0
H280 H 1.01269 0.4884 0.20725 0.0
C281 C 0.91764 0.72145 0.24004 0.0
C282 C 0.99385 0.24105 0.28755 0.0
C283 C 0.93811 0.16055 0.30733 0.0
H284 H 0.06157 0.30801 0.22108 0.0
C285 C 0.91832 0.07267 0.2778 0.0
H286 H 1.01258 0.30634 0.31061 0.0
C287 C 0.94699 0.07225 0.22755 0.0
C288 C 0.99468 0.16123 0.20498 0.0
H289 H 0.87802 0.00629 0.29263 0.0
H290 H 0.9276 0.00586 0.20508 0.0
C291 C 1.02213 0.24142 0.23661 0.0
C292 C 0.10158 0.24237 0.79048 0.0
C293 C 0.15791 0.16238 0.80991 0.0
H294 H 1.03294 0.30903 0.72435 0.0
C295 C 0.17755 0.07463 0.78029 0.0
H296 H 0.08293 0.30743 0.81371 0.0
C297 C 0.14822 0.074 0.73021 0.0
C298 C 0.1002 0.16286 0.70783 0.0
H299 H 0.21818 0.00849 0.79493 0.0
H300 H 0.1675 0.00769 0.70766 0.0
C301 C 0.07276 0.2427 0.73965 0.0
C302 C 0.1779 0.72012 0.73756 0.0
C303 C 0.15809 0.6325 0.7079 0.0
H304 H 0.16807 0.78692 0.81023 0.0
C305 C 0.1017 0.55262 0.7273 0.0
H306 H 0.21857 0.78618 0.72294 0.0
C307 C 0.07298 0.55228 0.77814 0.0
C308 C 0.10057 0.63196 0.81 0.0
H309 H 0.08292 0.48767 0.70405 0.0
H310 H 1.03308 0.48607 0.79341 0.0
C311 C 0.14866 0.72072 0.78765 0.0
loop_
_geom_bond_atom_site_label_1
_geom_bond_atom_site_label_2
_geom_bond_distance
_geom_bond_site_symmetry_2
_ccdc_geom_bond_type
C0 C1 1.387 1_455 S
C0 C5 1.380 . S
C0 C16 1.494 . S
C1 C0 1.387 1_655 S
C1 C2 1.386 . S
C1 H32 0.930 . S
C2 C1 1.386 . S
C2 C3 1.397 . S
C3 C2 1.397 . S
C3 C4 1.393 . S
C3 H33 0.930 . S
C4 C3 1.393 . S
C4 C5 1.395 1_655 S
C5 C0 1.380 . S
C5 C4 1.395 1_455 S
C5 H34 0.930 . S
O6 Tb7 2.295 . S
O6 C19 1.242 1_556 S
Tb7 O6 2.295 . S
Tb7 O8 2.312 . S
Tb7 O11 2.438 . S
Tb7 O13 2.472 1_556 S
Tb7 O15 2.308 . S
Tb7 C16 2.821 1_556 S
O8 Tb7 2.312 . S
O8 C28 1.264 . S
O9 Eu10 2.308 1_565 S
O9 C19 1.243 1_565 S
Eu10 O9 2.308 1_545 S
Eu10 C12 2.821 1_554 S
Eu10 O14 2.295 . S
Eu10 O21 2.312 . S
Eu10 O30 2.438 . S
Eu10 O31 2.472 1_554 S
O11 Tb7 2.438 . S
O11 C16 1.263 1_556 S
C12 Eu10 2.821 1_556 S
C12 C22 1.494 . S
C12 O30 1.263 1_556 S
C12 O31 1.264 . S
O13 Tb7 2.472 1_554 S
O13 C16 1.264 . S
O14 Eu10 2.295 . S
O14 C20 1.242 . S
O15 Tb7 2.308 . S
O15 C20 1.243 1_556 S
C16 C0 1.494 . S
C16 Tb7 2.821 1_554 S
C16 O11 1.263 1_554 S
C16 O13 1.264 . S
C17 O18 1.260 . S
C17 O21 1.264 . S
O18 C17 1.260 . S
C19 O6 1.242 1_554 S
C19 O9 1.243 1_545 S
C20 O14 1.242 . S
C20 O15 1.243 1_554 S
O21 Eu10 2.312 . S
O21 C17 1.264 . S
C22 C12 1.494 . S
C22 C24 1.380 . S
C22 C25 1.387 . S
C23 C24 1.395 . S
C23 C27 1.393 . S
C24 C22 1.380 . S
C24 C23 1.395 . S
C24 H35 0.930 . S
C25 C22 1.387 . S
C25 C26 1.386 . S
C25 H36 0.930 . S
C26 C25 1.386 . S
C26 C27 1.397 . S
C27 C23 1.393 . S
C27 C26 1.397 . S
C27 H37 0.930 . S
C28 O8 1.264 . S
C28 O29 1.260 . S
O29 C28 1.260 . S
O30 Eu10 2.438 . S
O30 C12 1.263 1_554 S
O31 Eu10 2.472 1_556 S
O31 C12 1.264 . S
H32 C1 0.930 . S
H33 C3 0.930 . S
H34 C5 0.930 . S
H35 C24 0.930 . S
H36 C25 0.930 . S
H37 C27 0.930 . S
C38 C39 1.387 . S
C38 C43 1.380 . S
C38 C54 1.494 . S
C39 C38 1.387 . S
C39 C40 1.386 . S
C39 H70 0.930 . S
C40 C39 1.386 . S
C40 C41 1.397 . S
C41 C40 1.397 . S
C41 C42 1.393 . S
C41 H71 0.930 . S
C42 C41 1.393 . S
C42 C43 1.395 . S
C43 C38 1.380 . S
C43 C42 1.395 . S
C43 H72 0.930 . S
O44 Tb45 2.295 . S
O44 C57 1.242 1_556 S
Tb45 O44 2.295 . S
Tb45 O46 2.312 . S
Tb45 O49 2.438 . S
Tb45 O51 2.472 1_556 S
Tb45 O53 2.308 1_565 S
Tb45 C54 2.821 1_556 S
O46 Tb45 2.312 . S
O46 C66 1.264 . S
O47 Eu48 2.308 . S
O47 C57 1.243 . S
Eu48 O47 2.308 . S
Eu48 C50 2.821 1_554 S
Eu48 O52 2.295 . S
Eu48 O59 2.312 . S
Eu48 O68 2.438 . S
Eu48 O69 2.472 1_554 S
O49 Tb45 2.438 . S
O49 C54 1.263 1_556 S
C50 Eu48 2.821 1_556 S
C50 C60 1.494 . S
C50 O68 1.263 1_556 S
C50 O69 1.264 . S
O51 Tb45 2.472 1_554 S
O51 C54 1.264 . S
O52 Eu48 2.295 . S
O52 C58 1.242 . S
O53 Tb45 2.308 1_545 S
O53 C58 1.243 1_546 S
C54 C38 1.494 . S
C54 Tb45 2.821 1_554 S
C54 O49 1.263 1_554 S
C54 O51 1.264 . S
C55 O56 1.260 . S
C55 O59 1.264 . S
O56 C55 1.260 . S
C57 O44 1.242 1_554 S
C57 O47 1.243 . S
C58 O52 1.242 . S
C58 O53 1.243 1_564 S
O59 Eu48 2.312 . S
O59 C55 1.264 . S
C60 C50 1.494 . S
C60 C62 1.380 . S
C60 C63 1.387 1_655 S
C61 C62 1.395 1_455 S
C61 C65 1.393 . S
C62 C60 1.380 . S
C62 C61 1.395 1_655 S
C62 H73 0.930 . S
C63 C60 1.387 1_455 S
C63 C64 1.386 . S
C63 H74 0.930 . S
C64 C63 1.386 . S
C64 C65 1.397 . S
C65 C61 1.393 . S
C65 C64 1.397 . S
C65 H75 0.930 . S
C66 O46 1.264 . S
C66 O67 1.260 . S
O67 C66 1.260 . S
O68 Eu48 2.438 . S
O68 C50 1.263 1_554 S
O69 Eu48 2.472 1_556 S
O69 C50 1.264 . S
H70 C39 0.930 . S
H71 C41 0.930 . S
H72 C43 0.930 . S
H73 C62 0.930 . S
H74 C63 0.930 . S
H75 C65 0.930 . S
C76 C77 1.387 1_455 S
C76 C81 1.380 . S
C76 C92 1.494 . S
C77 C76 1.387 1_655 S
C77 C78 1.386 . S
C77 H108 0.930 . S
C78 C77 1.386 . S
C78 C79 1.397 . S
C79 C78 1.397 . S
C79 C80 1.393 . S
C79 H109 0.930 . S
C80 C79 1.393 . S
C80 C81 1.395 1_655 S
C81 C76 1.380 . S
C81 C80 1.395 1_455 S
C81 H110 0.930 . S
O82 Tb83 2.295 . S
O82 C95 1.242 . S
Tb83 O82 2.295 . S
Tb83 O84 2.312 . S
Tb83 O87 2.438 . S
Tb83 O89 2.472 . S
Tb83 O91 2.308 . S
Tb83 C92 2.821 . S
O84 Tb83 2.312 . S
O84 C104 1.264 . S
O85 Eu86 2.308 1_545 S
O85 C95 1.243 1_545 S
Eu86 O85 2.308 1_565 S
Eu86 C88 2.821 . S
Eu86 O90 2.295 . S
Eu86 O97 2.312 . S
Eu86 O106 2.438 . S
Eu86 O107 2.472 . S
O87 Tb83 2.438 . S
O87 C92 1.263 . S
C88 Eu86 2.821 . S
C88 C98 1.494 . S
C88 O106 1.263 . S
C88 O107 1.264 . S
O89 Tb83 2.472 . S
O89 C92 1.264 . S
O90 Eu86 2.295 . S
O90 C96 1.242 . S
O91 Tb83 2.308 . S
O91 C96 1.243 . S
C92 C76 1.494 . S
C92 Tb83 2.821 . S
C92 O87 1.263 . S
C92 O89 1.264 . S
C93 O94 1.260 . S
C93 O97 1.264 . S
O94 C93 1.260 . S
C95 O82 1.242 . S
C95 O85 1.243 1_565 S
C96 O90 1.242 . S
C96 O91 1.243 . S
O97 Eu86 2.312 . S
O97 C93 1.264 . S
C98 C88 1.494 . S
C98 C100 1.380 . S
C98 C101 1.387 . S
C99 C100 1.395 . S
C99 C103 1.393 . S
C100 C98 1.380 . S
C100 C99 1.395 . S
C100 H111 0.930 . S
C101 C98 1.387 . S
C101 C102 1.386 . S
C101 H112 0.930 . S
C102 C101 1.386 . S
C102 C103 1.397 . S
C103 C99 1.393 . S
C103 C102 1.397 . S
C103 H113 0.930 . S
C104 O84 1.264 . S
C104 O105 1.260 . S
O105 C104 1.260 . S
O106 Eu86 2.438 . S
O106 C88 1.263 . S
O107 Eu86 2.472 . S
O107 C88 1.264 . S
H108 C77 0.930 . S
H109 C79 0.930 . S
H110 C81 0.930 . S
H111 C100 0.930 . S
H112 C101 0.930 . S
H113 C103 0.930 . S
C114 C115 1.387 . S
C114 C119 1.380 . S
C114 C130 1.494 . S
C115 C114 1.387 . S
C115 C116 1.386 . S
C115 H146 0.930 . S
C116 C115 1.386 . S
C116 C117 1.397 . S
C117 C116 1.397 . S
C117 C118 1.393 . S
C117 H147 0.930 . S
C118 C117 1.393 . S
C118 C119 1.395 . S
C119 C114 1.380 . S
C119 C118 1.395 . S
C119 H148 0.930 . S
O120 Tb121 2.295 . S
O120 C133 1.242 . S
Tb121 O120 2.295 . S
Tb121 O122 2.312 . S
Tb121 O125 2.438 . S
Tb121 O127 2.472 . S
Tb121 O129 2.308 1_545 S
Tb121 C130 2.821 . S
O122 Tb121 2.312 . S
O122 C142 1.264 . S
O123 Eu124 2.308 . S
O123 C133 1.243 . S
Eu124 O123 2.308 . S
Eu124 C126 2.821 . S
Eu124 O128 2.295 . S
Eu124 O135 2.312 . S
Eu124 O144 2.438 . S
Eu124 O145 2.472 . S
O125 Tb121 2.438 . S
O125 C130 1.263 . S
C126 Eu124 2.821 . S
C126 C136 1.494 . S
C126 O144 1.263 . S
C126 O145 1.264 . S
O127 Tb121 2.472 . S
O127 C130 1.264 . S
O128 Eu124 2.295 . S
O128 C134 1.242 . S
O129 Tb121 2.308 1_565 S
O129 C134 1.243 1_565 S
C130 C114 1.494 . S
C130 Tb121 2.821 . S
C130 O125 1.263 . S
C130 O127 1.264 . S
C131 O132 1.260 . S
C131 O135 1.264 . S
O132 C131 1.260 . S
C133 O120 1.242 . S
C133 O123 1.243 . S
C134 O128 1.242 . S
C134 O129 1.243 1_545 S
O135 Eu124 2.312 . S
O135 C131 1.264 . S
C136 C126 1.494 . S
C136 C138 1.380 . S
C136 C139 1.387 1_655 S
C137 C138 1.395 1_455 S
C137 C141 1.393 . S
C138 C136 1.380 . S
C138 C137 1.395 1_655 S
C138 H149 0.930 . S
C139 C136 1.387 1_455 S
C139 C140 1.386 . S
C139 H150 0.930 . S
C140 C139 1.386 . S
C140 C141 1.397 . S
C141 C137 1.393 . S
C141 C140 1.397 . S
C141 H151 0.930 . S
C142 O122 1.264 . S
C142 O143 1.260 . S
O143 C142 1.260 . S
O144 Eu124 2.438 . S
O144 C126 1.263 . S
O145 Eu124 2.472 . S
O145 C126 1.264 . S
H146 C115 0.930 . S
H147 C117 0.930 . S
H148 C119 0.930 . S
H149 C138 0.930 . S
H150 C139 0.930 . S
H151 C141 0.930 . S
C152 C153 1.387 . S
C152 H156 0.950 . S
C152 C161 1.390 . S
C153 C152 1.387 . S
C153 C155 1.387 1_556 S
H154 C161 0.950 . S
C155 C153 1.387 1_554 S
C155 C157 1.390 . S
C155 H159 0.948 1_545 S
H156 C152 0.950 . S
C157 C155 1.390 . S
C157 C158 1.387 . S
C157 H160 0.950 . S
C158 C157 1.387 . S
C158 C161 1.387 1_554 S
H159 C155 0.948 1_565 S
H160 C157 0.950 . S
C161 C152 1.390 . S
C161 H154 0.950 . S
C161 C158 1.387 1_556 S
C162 C163 1.387 . S
C162 H166 0.950 . S
C162 C171 1.390 . S
C163 C162 1.387 . S
C163 C165 1.387 1_556 S
H164 C171 0.949 . S
C165 C163 1.387 1_554 S
C165 C167 1.390 . S
C165 H169 0.950 . S
H166 C162 0.950 . S
C167 C165 1.390 . S
C167 C168 1.387 . S
C167 H170 0.950 . S
C168 C167 1.387 . S
C168 C171 1.387 1_554 S
H169 C165 0.950 . S
H170 C167 0.950 . S
C171 C162 1.390 . S
C171 H164 0.949 . S
C171 C168 1.387 1_556 S
C172 C173 1.387 . S
C172 H176 0.950 . S
C172 C181 1.390 . S
C173 C172 1.387 . S
C173 C175 1.387 . S
H174 C181 0.950 . S
C175 C173 1.387 . S
C175 C177 1.390 . S
C175 H179 0.950 . S
H176 C172 0.950 . S
C177 C175 1.390 . S
C177 C178 1.387 . S
C177 H180 0.950 . S
C178 C177 1.387 . S
C178 C181 1.387 . S
H179 C175 0.950 . S
H180 C177 0.950 . S
C181 C172 1.390 . S
C181 H174 0.950 . S
C181 C178 1.387 . S
C182 C183 1.387 . S
C182 H186 0.950 . S
C182 C191 1.390 . S
C183 C182 1.387 . S
C183 C185 1.387 . S
H184 C191 0.950 . S
C185 C183 1.387 . S
C185 C187 1.390 . S
C185 H189 0.950 . S
H186 C182 0.950 . S
C187 C185 1.390 . S
C187 C188 1.387 . S
C187 H190 0.952 . S
C188 C187 1.387 . S
C188 C191 1.387 . S
H189 C185 0.950 . S
H190 C187 0.952 . S
C191 C182 1.390 . S
C191 H184 0.950 . S
C191 C188 1.387 . S
C192 C193 1.387 . S
C192 H196 0.950 . S
C192 C201 1.390 . S
C193 C192 1.387 . S
C193 C195 1.389 1_554 S
H194 C201 0.950 . S
C195 C193 1.389 1_556 S
C195 C197 1.390 . S
C195 H199 0.948 . S
H196 C192 0.950 . S
C197 C195 1.390 . S
C197 C198 1.387 1_556 S
C197 H200 0.950 . S
C198 C197 1.387 1_554 S
C198 C201 1.387 . S
H199 C195 0.948 . S
H200 C197 0.950 . S
C201 C192 1.390 . S
C201 H194 0.950 . S
C201 C198 1.387 . S
C202 C203 1.387 . S
C202 H206 0.950 . S
C202 C211 1.390 . S
C203 C202 1.387 . S
C203 C205 1.387 . S
H204 C211 0.950 . S
C205 C203 1.387 . S
C205 C207 1.390 . S
C205 H209 0.950 . S
H206 C202 0.950 . S
C207 C205 1.390 . S
C207 C208 1.387 . S
C207 H210 0.950 . S
C208 C207 1.387 . S
C208 C211 1.387 . S
H209 C205 0.950 . S
H210 C207 0.950 . S
C211 C202 1.390 . S
C211 H204 0.950 . S
C211 C208 1.387 . S
C212 C213 1.387 1_565 S
C212 H216 0.950 . S
C212 C221 1.390 1_455 S
C213 C212 1.387 1_545 S
C213 C215 1.387 1_554 S
H214 C221 0.950 . S
C215 C213 1.387 1_556 S
C215 C217 1.390 1_455 S
C215 H219 0.950 . S
H216 C212 0.950 . S
C217 C215 1.390 1_655 S
C217 C218 1.387 1_546 S
C217 H220 0.950 . S
C218 C217 1.387 1_564 S
C218 C221 1.387 . S
H219 C215 0.950 . S
H220 C217 0.950 . S
C221 C212 1.390 1_655 S
C221 H214 0.950 . S
C221 C218 1.387 . S
C222 C223 1.387 1_565 S
C222 H226 0.950 . S
C222 C231 1.390 1_655 S
C223 C222 1.387 1_545 S
C223 C225 1.387 . S
H224 C231 0.950 . S
C225 C223 1.387 . S
C225 C227 1.390 1_655 S
C225 H229 0.950 . S
H226 C222 0.950 . S
C227 C225 1.390 1_455 S
C227 C228 1.387 1_545 S
C227 H230 0.950 . S
C228 C227 1.387 1_565 S
C228 C231 1.387 . S
H229 C225 0.950 . S
H230 C227 0.950 . S
C231 C222 1.390 1_455 S
C231 H224 0.950 . S
C231 C228 1.387 . S
C232 C233 1.387 . S
C232 H236 0.950 . S
C232 C241 1.390 . S
C233 C232 1.387 . S
C233 C235 1.387 . S
H234 C241 0.950 . S
C235 C233 1.387 . S
C235 C237 1.390 . S
C235 H239 0.950 . S
H236 C232 0.950 . S
C237 C235 1.390 . S
C237 C238 1.387 . S
C237 H240 0.950 . S
C238 C237 1.387 . S
C238 C241 1.387 . S
H239 C235 0.950 . S
H240 C237 0.950 . S
C241 C232 1.390 . S
C241 H234 0.950 . S
C241 C238 1.387 . S
C242 C243 1.387 . S
C242 H246 0.950 1_565 S
C242 C251 1.390 . S
C243 C242 1.387 . S
C243 C245 1.387 . S
H244 C251 0.950 1_545 S
C245 C243 1.387 . S
C245 C247 1.390 . S
C245 H249 0.950 . S
H246 C242 0.950 1_545 S
C247 C245 1.390 . S
C247 C248 1.387 . S
C247 H250 0.950 . S
C248 C247 1.387 . S
C248 C251 1.387 . S
H249 C245 0.950 . S
H250 C247 0.950 . S
C251 C242 1.390 . S
C251 H244 0.950 1_565 S
C251 C248 1.387 . S
C252 C253 1.387 . S
C252 H256 0.950 1_565 S
C252 C261 1.390 . S
C253 C252 1.387 . S
C253 C255 1.387 . S
H254 C261 0.950 1_545 S
C255 C253 1.387 . S
C255 C257 1.390 . S
C255 H259 0.950 . S
H256 C252 0.950 1_545 S
C257 C255 1.390 . S
C257 C258 1.387 . S
C257 H260 0.950 . S
C258 C257 1.387 . S
C258 C261 1.387 . S
H259 C255 0.950 . S
H260 C257 0.950 . S
C261 C252 1.390 . S
C261 H254 0.950 1_565 S
C261 C258 1.387 . S
C262 C263 1.387 . S
C262 H266 0.950 . S
C262 C271 1.390 . S
C263 C262 1.387 . S
C263 C265 1.387 . S
H264 C271 0.950 . S
C265 C263 1.387 . S
C265 C267 1.390 . S
C265 H269 0.950 1_545 S
H266 C262 0.950 . S
C267 C265 1.390 . S
C267 C268 1.387 . S
C267 H270 0.950 1_545 S
C268 C267 1.387 . S
C268 C271 1.387 . S
H269 C265 0.950 1_565 S
H270 C267 0.950 1_565 S
C271 C262 1.390 . S
C271 H264 0.950 . S
C271 C268 1.387 . S
C272 C273 1.387 . S
C272 H276 0.950 . S
C272 C281 1.390 . S
C273 C272 1.387 . S
C273 C275 1.387 1_655 S
H274 C281 0.950 . S
C275 C273 1.387 1_455 S
C275 C277 1.390 1_455 S
C275 H279 0.950 . S
H276 C272 0.950 . S
C277 C275 1.390 1_655 S
C277 C278 1.387 . S
C277 H280 0.950 1_655 S
C278 C277 1.387 . S
C278 C281 1.387 . S
H279 C275 0.950 . S
H280 C277 0.950 1_455 S
C281 C272 1.390 . S
C281 H274 0.950 . S
C281 C278 1.387 . S
C282 C283 1.387 . S
C282 H286 0.950 . S
C282 C291 1.390 . S
C283 C282 1.387 . S
C283 C285 1.387 . S
H284 C291 0.950 . S
C285 C283 1.387 . S
C285 C287 1.390 . S
C285 H289 0.950 . S
H286 C282 0.950 . S
C287 C285 1.390 . S
C287 C288 1.387 . S
C287 H290 0.950 . S
C288 C287 1.387 . S
C288 C291 1.387 . S
H289 C285 0.950 . S
H290 C287 0.950 . S
C291 C282 1.390 . S
C291 H284 0.950 . S
C291 C288 1.387 . S
C292 C293 1.387 . S
C292 H296 0.950 . S
C292 C301 1.390 . S
C293 C292 1.387 . S
C293 C295 1.387 . S
H294 C301 0.950 . S
C295 C293 1.387 . S
C295 C297 1.390 . S
C295 H299 0.950 . S
H296 C292 0.950 . S
C297 C295 1.390 . S
C297 C298 1.387 . S
C297 H300 0.950 . S
C298 C297 1.387 . S
C298 C301 1.387 . S
H299 C295 0.950 . S
H300 C297 0.950 . S
C301 C292 1.390 . S
C301 H294 0.950 . S
C301 C298 1.387 . S
C302 C303 1.387 . S
C302 H306 0.950 . S
C302 C311 1.390 . S
C303 C302 1.387 . S
C303 C305 1.387 . S
H304 C311 0.950 . S
C305 C303 1.387 . S
C305 C307 1.390 . S
C305 H309 0.950 . S
H306 C302 0.950 . S
C307 C305 1.390 . S
C307 C308 1.387 . S
C307 H310 0.950 . S
C308 C307 1.387 . S
C308 C311 1.387 . S
H309 C305 0.950 . S
H310 C307 0.950 . S
C311 C302 1.390 . S
C311 H304 0.950 . S
C311 C308 1.387 . S
C153 C26 2.607 . S
C158 C2 2.607 . S
C163 C64 2.607 . S
C168 C40 2.607 . S
C173 C102 2.607 . S
C178 C78 2.607 . S
C183 C140 2.605 . S
C188 C116 2.605 . S
C193 C57 1.881 . S
C198 C20 1.881 . S
C203 C133 1.880 . S
C208 C96 1.880 . S
C213 C19 1.882 . S
C218 C58 1.882 . S
C223 C134 1.880 . S
C228 C95 1.880 . S
C233 C118 1.310 . S
C238 C17 1.337 . S
C243 C42 1.312 . S
C248 C93 1.337 . S
C253 C99 1.307 . S
C258 C66 1.340 . S
C263 C23 1.312 . S
C268 C142 1.337 . S
C273 C80 1.309 . S
C278 C55 1.340 . S
C283 C131 1.337 . S
C288 C4 1.312 . S
C293 C28 1.340 . S
C298 C137 1.307 . S
C303 C104 1.337 . S
C308 C61 1.312 . S
