# Generated by pormake.
# Topology ukh, (4)-cn, num edge types: 1
# Building blocks:
#     Node 0, Type 0, BuildingBlock: GALJAG_clean_sbu_0, # of connection points: 4
#     Node 1, Type 0, BuildingBlock: GALJAG_clean_sbu_0, # of connection points: 4
#     Node 2, Type 0, BuildingBlock: GALJAG_clean_sbu_0, # of connection points: 4
#     Node 3, Type 0, BuildingBlock: GALJAG_clean_sbu_0, # of connection points: 4
#     Node 4, Type 0, BuildingBlock: GALJAG_clean_sbu_0, # of connection points: 4
#     Node 5, Type 0, BuildingBlock: GALJAG_clean_sbu_0, # of connection points: 4
#     Node 6, Type 0, BuildingBlock: GALJAG_clean_sbu_0, # of connection points: 4
#     Node 7, Type 0, BuildingBlock: GALJAG_clean_sbu_0, # of connection points: 4
#     Node 8, Type 0, BuildingBlock: GALJAG_clean_sbu_0, # of connection points: 4
#     Node 9, Type 0, BuildingBlock: GALJAG_clean_sbu_0, # of connection points: 4
#     Node 10, Type 0, BuildingBlock: GALJAG_clean_sbu_0, # of connection points: 4
#     Node 11, Type 0, BuildingBlock: GALJAG_clean_sbu_0, # of connection points: 4
#     Edge 12, Type (0, 0), BuildingBlock: TEMPAE_clean_linker_10, # of connection points: 2
#     Edge 13, Type (0, 0), BuildingBlock: TEMPAE_clean_linker_10, # of connection points: 2
#     Edge 14, Type (0, 0), BuildingBlock: TEMPAE_clean_linker_10, # of connection points: 2
#     Edge 15, Type (0, 0), BuildingBlock: TEMPAE_clean_linker_10, # of connection points: 2
#     Edge 16, Type (0, 0), BuildingBlock: TEMPAE_clean_linker_10, # of connection points: 2
#     Edge 17, Type (0, 0), BuildingBlock: TEMPAE_clean_linker_10, # of connection points: 2
#     Edge 18, Type (0, 0), BuildingBlock: TEMPAE_clean_linker_10, # of connection points: 2
#     Edge 19, Type (0, 0), BuildingBlock: TEMPAE_clean_linker_10, # of connection points: 2
#     Edge 20, Type (0, 0), BuildingBlock: TEMPAE_clean_linker_10, # of connection points: 2
#     Edge 21, Type (0, 0), BuildingBlock: TEMPAE_clean_linker_10, # of connection points: 2
#     Edge 22, Type (0, 0), BuildingBlock: TEMPAE_clean_linker_10, # of connection points: 2
#     Edge 23, Type (0, 0), BuildingBlock: TEMPAE_clean_linker_10, # of connection points: 2
#     Edge 24, Type (0, 0), BuildingBlock: TEMPAE_clean_linker_10, # of connection points: 2
#     Edge 25, Type (0, 0), BuildingBlock: TEMPAE_clean_linker_10, # of connection points: 2
#     Edge 26, Type (0, 0), BuildingBlock: TEMPAE_clean_linker_10, # of connection points: 2
#     Edge 27, Type (0, 0), BuildingBlock: TEMPAE_clean_linker_10, # of connection points: 2
#     Edge 28, Type (0, 0), BuildingBlock: TEMPAE_clean_linker_10, # of connection points: 2
#     Edge 29, Type (0, 0), BuildingBlock: TEMPAE_clean_linker_10, # of connection points: 2
#     Edge 30, Type (0, 0), BuildingBlock: TEMPAE_clean_linker_10, # of connection points: 2
#     Edge 31, Type (0, 0), BuildingBlock: TEMPAE_clean_linker_10, # of connection points: 2
#     Edge 32, Type (0, 0), BuildingBlock: TEMPAE_clean_linker_10, # of connection points: 2
#     Edge 33, Type (0, 0), BuildingBlock: TEMPAE_clean_linker_10, # of connection points: 2
#     Edge 34, Type (0, 0), BuildingBlock: TEMPAE_clean_linker_10, # of connection points: 2
#     Edge 35, Type (0, 0), BuildingBlock: TEMPAE_clean_linker_10, # of connection points: 2
# Relax obj value: 0.072
# Max RMSD: 0.081
# Mean RMSD: 0.081
data_MOF--net-ukh--node1-GALJAG_clean_sbu_0--edge1-TEMPAE_clean_linker_10
_symmetry_space_group_name_H-M    P1
_symmetry_Int_Tables_number       1
_symmetry_cell_setting            triclinic
loop_
_symmetry_equiv_pos_as_xyz
'x, y, z'
_cell_length_a     31.717239
_cell_length_b     31.746329
_cell_length_c     68.529913
_cell_angle_alpha  89.96165
_cell_angle_beta   90.013234
_cell_angle_gamma 119.97689
loop_
_atom_site_label
_atom_site_type_symbol
_atom_site_fract_x
_atom_site_fract_y
_atom_site_fract_z
_atom_type_partial_charge
In0 In 0.31331 0.21435 0.05473 0.0
O1 O 0.38457 0.28219 0.04558 0.0
O2 O 0.3298 0.29149 0.05947 0.0
C3 C 0.31761 0.13784 0.04038 0.0
C4 C 0.31967 0.20118 0.09312 0.0
C5 C 0.2365 0.201 0.03326 0.0
O6 O 0.34871 0.18103 0.03569 0.0
O7 O 0.28587 0.13415 0.05243 0.0
O8 O 0.234 0.19529 0.05156 0.0
O9 O 0.27759 0.21348 0.02595 0.0
C10 C 0.37141 0.31141 0.05176 0.0
O11 O 0.28303 0.20076 0.08564 0.0
O12 O 0.35326 0.20891 0.08126 0.0
In13 In 0.1045 0.32243 0.38781 0.0
O14 O 0.08671 0.29289 0.41873 0.0
O15 O 0.15336 0.35899 0.41405 0.0
C16 C 0.03312 0.24899 0.36746 0.0
C17 C 0.07299 0.3869 0.38651 0.0
C18 C 0.17949 0.3187 0.37114 0.0
O19 O 0.04383 0.24345 0.38467 0.0
O20 O 0.05828 0.29136 0.36067 0.0
O21 O 0.17162 0.35337 0.36769 0.0
O22 O 0.15051 0.28765 0.38315 0.0
C23 C 0.12527 0.32697 0.42605 0.0
O24 O 0.1123 0.3954 0.37834 0.0
O25 O 0.05097 0.34689 0.39545 0.0
In26 In 0.7762 0.09152 0.72582 0.0
O27 O 0.71197 0.10192 0.7172 0.0
O28 O 0.69777 0.03922 0.73359 0.0
C29 C 0.85411 0.16638 0.70865 0.0
C30 C 0.7947 0.11119 0.76407 0.0
C31 C 0.77767 0.02014 0.70518 0.0
O32 O 0.81153 0.1593 0.70602 0.0
O33 O 0.85666 0.13657 0.72004 0.0
O34 O 0.79536 0.0316 0.72214 0.0
O35 O 0.75906 0.04443 0.69876 0.0
C36 C 0.68058 0.0627 0.72521 0.0
O37 O 0.7867 0.07151 0.7566 0.0
O38 O 0.793 0.14085 0.75225 0.0
In39 In 0.66314 0.76841 0.05293 0.0
O40 O 0.7038 0.79123 0.08195 0.0
O41 O 0.63646 0.79034 0.07972 0.0
C42 C 0.74347 0.76937 0.03958 0.0
C43 C 0.59045 0.67476 0.05277 0.0
C44 C 0.65758 0.83484 0.0298 0.0
O45 O 0.74563 0.80477 0.04888 0.0
O46 O 0.70115 0.73353 0.03751 0.0
O47 O 0.67488 0.80886 0.02417 0.0
O48 O 0.64039 0.82551 0.04684 0.0
C49 C 0.67223 0.79812 0.09028 0.0
O50 O 0.593 0.70489 0.04012 0.0
O51 O 0.62334 0.69237 0.06553 0.0
In52 In 0.90513 0.67787 0.3903 0.0
O53 O 0.9169 0.70979 0.4208 0.0
O54 O 0.85659 0.6386 0.41632 0.0
C55 C 0.97747 0.75271 0.37079 0.0
C56 C 0.93541 0.61234 0.38757 0.0
C57 C 0.82985 0.68251 0.37468 0.0
O58 O 0.97849 0.74843 0.38907 0.0
O59 O 0.9403 0.71951 0.36245 0.0
O60 O 0.83702 0.64745 0.37101 0.0
O61 O 0.8598 0.71372 0.38645 0.0
C62 C 0.88057 0.67304 0.42811 0.0
O63 O 0.89823 0.6067 0.37846 0.0
O64 O 0.95598 0.65002 0.39793 0.0
In65 In 0.22397 0.91036 0.72623 0.0
O66 O 0.28782 0.90227 0.71512 0.0
O67 O 0.30146 0.95546 0.73687 0.0
C68 C 0.14506 0.83938 0.70803 0.0
C69 C 0.20168 0.88472 0.76385 0.0
C70 C 0.22824 0.98656 0.70717 0.0
O71 O 0.1859 0.84135 0.70719 0.0
O72 O 0.14472 0.87245 0.71806 0.0
O73 O 0.20898 0.97344 0.72383 0.0
O74 O 0.24572 0.96167 0.70033 0.0
C75 C 0.31874 0.93598 0.72588 0.0
O76 O 0.21124 0.92587 0.75742 0.0
O77 O 0.20372 0.85666 0.75131 0.0
In78 In 0.77606 0.67765 0.60738 0.0
O79 O 0.78735 0.70565 0.57622 0.0
O80 O 0.78953 0.64062 0.58167 0.0
C81 C 0.77794 0.75173 0.6272 0.0
C82 C 0.68014 0.61272 0.60819 0.0
C83 C 0.85479 0.68167 0.62418 0.0
O84 O 0.79477 0.75688 0.61012 0.0
O85 O 0.76024 0.70944 0.63413 0.0
O86 O 0.81218 0.6476 0.628 0.0
O87 O 0.85691 0.7121 0.61183 0.0
C88 C 0.79277 0.67173 0.56934 0.0
O89 O 0.7107 0.6049 0.617 0.0
O90 O 0.69832 0.65234 0.59897 0.0
In91 In 0.08751 0.77207 0.94246 0.0
O92 O 0.09439 0.70676 0.95244 0.0
O93 O 0.03388 0.69404 0.93482 0.0
C94 C 0.1638 0.85086 0.95816 0.0
C95 C 0.10921 0.79056 0.90436 0.0
C96 C 0.0179 0.77504 0.96385 0.0
O97 O 0.15857 0.80885 0.96017 0.0
O98 O 0.13129 0.8524 0.94811 0.0
O99 O 0.02315 0.78479 0.94582 0.0
O100 O 0.0475 0.76356 0.97094 0.0
C101 C 0.05548 0.67603 0.94407 0.0
O102 O 0.07126 0.78744 0.91176 0.0
O103 O 0.13587 0.78387 0.91618 0.0
In104 In 0.3204 0.0893 0.27186 0.0
O105 O 0.39317 0.0981 0.28276 0.0
O106 O 0.34814 0.03819 0.26451 0.0
C107 C 0.3146 0.16389 0.28741 0.0
C108 C 0.32295 0.11322 0.23405 0.0
C109 C 0.24717 0.01776 0.29226 0.0
O110 O 0.35147 0.15902 0.29017 0.0
O111 O 0.28206 0.13189 0.27664 0.0
O112 O 0.24955 0.01651 0.27389 0.0
O113 O 0.2816 0.05467 0.30026 0.0
C114 C 0.38697 0.06016 0.27417 0.0
O115 O 0.28768 0.07558 0.24138 0.0
O116 O 0.3571 0.13856 0.24576 0.0
In117 In 0.22125 0.32117 0.60653 0.0
O118 O 0.20877 0.29148 0.5756 0.0
O119 O 0.20689 0.35681 0.58053 0.0
C120 C 0.22337 0.25028 0.62727 0.0
C121 C 0.31672 0.38755 0.60721 0.0
C122 C 0.14124 0.31458 0.62317 0.0
O123 O 0.2068 0.24349 0.61008 0.0
O124 O 0.23882 0.2926 0.63383 0.0
O125 O 0.18289 0.35163 0.62565 0.0
O126 O 0.14066 0.28245 0.6122 0.0
C127 C 0.20325 0.32511 0.56845 0.0
O128 O 0.2858 0.3941 0.61639 0.0
O129 O 0.29906 0.34852 0.59761 0.0
In130 In 0.8951 0.21862 0.94394 0.0
O131 O 0.91026 0.1945 0.91465 0.0
O132 O 0.84793 0.20286 0.91698 0.0
C133 C 0.97029 0.21019 0.95758 0.0
C134 C 0.92145 0.31376 0.94437 0.0
C135 C 0.82065 0.15529 0.96689 0.0
O136 O 0.96815 0.24867 0.95894 0.0
O137 O 0.9347 0.17568 0.94886 0.0
O138 O 0.86261 0.18386 0.9734 0.0
O139 O 0.81548 0.16048 0.94899 0.0
C140 C 0.87358 0.19209 0.90631 0.0
O141 O 0.88949 0.28344 0.95584 0.0
O142 O 0.93864 0.29572 0.93265 0.0
In143 In 0.68985 0.90647 0.2706 0.0
O144 O 0.71828 0.92482 0.2395 0.0
O145 O 0.65594 0.85548 0.24469 0.0
C146 C 0.76328 0.98043 0.29001 0.0
C147 C 0.62205 0.93383 0.2721 0.0
C148 C 0.69496 0.8333 0.28833 0.0
O149 O 0.76891 0.96731 0.27329 0.0
O150 O 0.72072 0.95657 0.29678 0.0
O151 O 0.65774 0.83793 0.28994 0.0
O152 O 0.72808 0.86463 0.27761 0.0
C153 C 0.68633 0.88467 0.23247 0.0
O154 O 0.61751 0.89759 0.28161 0.0
O155 O 0.65985 0.95496 0.26172 0.0
C156 C 0.52395 0.60157 0.03594 0.0
C157 C 0.55462 0.62221 0.05209 0.0
C158 C 0.49279 0.55099 0.03466 0.0
C159 C 0.49233 0.52066 0.04993 0.0
C160 C 0.52257 0.54151 0.06642 0.0
C161 C 0.55336 0.59198 0.06728 0.0
C162 C 0.46094 0.52995 0.01687 0.0
C163 C 0.52284 0.51046 0.08308 0.0
C164 C 0.38432 0.39445 0.05767 0.0
C165 C 0.40184 0.36486 0.0503 0.0
C166 C 0.41284 0.44525 0.05708 0.0
C167 C 0.46006 0.46704 0.04891 0.0
C168 C 0.47756 0.43742 0.041 0.0
C169 C 0.44819 0.38656 0.04181 0.0
C170 C 0.39294 0.47557 0.06571 0.0
C171 C 0.52773 0.45945 0.03213 0.0
H172 H 0.52501 0.62481 0.02413 0.0
H173 H 0.57697 0.60775 0.07982 0.0
H174 H 0.47021 0.50479 0.00927 0.0
H175 H 0.42218 0.50842 0.0213 0.0
H176 H 0.46503 0.55852 0.00642 0.0
H177 H 0.54817 0.53246 0.09495 0.0
H178 H 0.48571 0.4889 0.0893 0.0
H179 H 0.53369 0.48432 0.07768 0.0
H180 H 0.34839 0.37789 0.06417 0.0
H181 H 0.46177 0.36383 0.03601 0.0
H182 H 0.39532 0.50272 0.05492 0.0
H183 H 0.41515 0.49597 0.07852 0.0
H184 H 0.35445 0.45308 0.07045 0.0
H185 H 0.53245 0.48633 0.02075 0.0
H186 H 0.5347 0.43157 0.02551 0.0
H187 H 0.55562 0.4792 0.04352 0.0
C188 C 0.07441 0.46157 0.37362 0.0
C189 C 0.05294 0.42004 0.38547 0.0
C190 C 0.05468 0.49252 0.37252 0.0
C191 C 0.01282 0.48174 0.38366 0.0
C192 C 0.99085 0.43962 0.39551 0.0
C193 C 0.01109 0.40925 0.39622 0.0
C194 C 0.07891 0.53703 0.35965 0.0
C195 C 0.94652 0.42712 0.40777 0.0
C196 C 0.99209 0.58466 0.39886 0.0
C197 C 0.95457 0.57849 0.38626 0.0
C198 C 0.01169 0.55378 0.39796 0.0
C199 C 0.99365 0.51597 0.38399 0.0
C200 C 0.95607 0.50975 0.37107 0.0
C201 C 0.93673 0.54102 0.37242 0.0
C202 C 0.05128 0.56126 0.41218 0.0
C203 C 0.9362 0.46997 0.35591 0.0
H204 H 0.10656 0.46984 0.36519 0.0
H205 H 0.99423 0.37712 0.40539 0.0
H206 H 0.05197 0.53734 0.34941 0.0
H207 H 0.09318 0.57029 0.36873 0.0
H208 H 0.10947 0.53878 0.35108 0.0
H209 H 0.9328 0.39209 0.41565 0.0
H210 H 0.95548 0.45629 0.41864 0.0
H211 H 0.91685 0.42483 0.39844 0.0
H212 H 0.00603 0.61356 0.40961 0.0
H213 H 0.90794 0.53635 0.36258 0.0
H214 H 0.08404 0.56683 0.40414 0.0
H215 H 0.03876 0.52832 0.42136 0.0
H216 H 0.06188 0.59297 0.42191 0.0
H217 H 0.9662 0.47307 0.34657 0.0
H218 H 0.90839 0.47121 0.34645 0.0
H219 H 0.9195 0.43393 0.36316 0.0
C220 C 0.39141 0.93751 0.71069 0.0
C221 C 0.3715 0.95318 0.72531 0.0
C222 C 0.44185 0.95554 0.70972 0.0
C223 C 0.47287 0.98962 0.72381 0.0
C224 C 0.45283 0.00527 0.73865 0.0
C225 C 0.40246 0.98702 0.73917 0.0
C226 C 0.46199 0.9382 0.69363 0.0
C227 C 0.48458 0.04114 0.75407 0.0
C228 C 0.59563 0.00127 0.7344 0.0
C229 C 0.6276 0.04446 0.7246 0.0
C230 C 0.5452 0.98273 0.73401 0.0
C231 C 0.52616 0.00788 0.72351 0.0
C232 C 0.55817 0.0513 0.71343 0.0
C233 C 0.60862 0.06917 0.71413 0.0
C234 C 0.51235 0.9365 0.74505 0.0
C235 C 0.53912 0.07902 0.70205 0.0
H236 H 0.36764 0.9116 0.69988 0.0
H237 H 0.38727 -0.00074 0.75051 0.0
H238 H 0.48941 0.96971 0.68507 0.0
H239 H 0.48079 0.91987 0.7 0.0
H240 H 0.43316 0.91248 0.68355 0.0
H241 H 0.46331 0.04994 0.76451 0.0
H242 H 0.50414 0.02612 0.76237 0.0
H243 H 0.5125 0.07535 0.7471 0.0
H244 H 0.61003 0.98191 0.7425 0.0
H245 H 0.63316 0.10243 0.70647 0.0
H246 H 0.48501 0.90898 0.73502 0.0
H247 H 0.49212 0.94388 0.75648 0.0
H248 H 0.53287 0.92073 0.75212 0.0
H249 H 0.51217 0.05487 0.69106 0.0
H250 H 0.5686 0.11119 0.69444 0.0
H251 H 0.52004 0.09152 0.71202 0.0
C252 C 0.59636 0.58877 0.59712 0.0
C253 C 0.62695 0.57925 0.60882 0.0
C254 C 0.54574 0.55831 0.59754 0.0
C255 C 0.52507 0.51741 0.61006 0.0
C256 C 0.55567 0.50776 0.62206 0.0
C257 C 0.60639 0.53875 0.62124 0.0
C258 C 0.51444 0.56956 0.58436 0.0
C259 C 0.53481 0.46457 0.63566 0.0
C260 C 0.38985 0.46071 0.62104 0.0
C261 C 0.36979 0.42153 0.60798 0.0
C262 C 0.44051 0.49182 0.62217 0.0
C263 C 0.47156 0.48364 0.60983 0.0
C264 C 0.45137 0.44417 0.59661 0.0
C265 C 0.4008 0.41355 0.5959 0.0
C266 C 0.46083 0.53346 0.63651 0.0
C267 C 0.48317 0.43454 0.58305 0.0
H268 H 0.61203 0.62005 0.58749 0.0
H269 H 0.62989 0.53144 0.63039 0.0
H270 H 0.49405 0.53903 0.57405 0.0
H271 H 0.48722 0.5735 0.59312 0.0
H272 H 0.53618 0.60342 0.57579 0.0
H273 H 0.56335 0.4632 0.64459 0.0
H274 H 0.50783 0.4658 0.6456 0.0
H275 H 0.51535 0.43042 0.62712 0.0
H276 H 0.36602 0.46681 0.6305 0.0
H277 H 0.38551 0.38329 0.58576 0.0
H278 H 0.48077 0.56852 0.62857 0.0
H279 H 0.4873 0.53101 0.64636 0.0
H280 H 0.43194 0.53392 0.64551 0.0
H281 H 0.50403 0.46632 0.57334 0.0
H282 H 0.46175 0.40181 0.57385 0.0
H283 H 0.51 0.42944 0.5916 0.0
C284 C 0.9751 0.39739 0.93161 0.0
C285 C 0.93959 0.36661 0.94501 0.0
C286 C 0.99432 0.44782 0.9322 0.0
C287 C 0.97765 0.46804 0.94656 0.0
C288 C 0.94182 0.43722 0.96017 0.0
C289 C 0.92312 0.38672 0.95922 0.0
C290 C 0.0323 0.47944 0.91736 0.0
C291 C 0.92321 0.4576 0.97568 0.0
C292 C 0.05833 0.60322 0.95649 0.0
C293 C 0.03568 0.62293 0.94511 0.0
C294 C 0.03922 0.55267 0.95748 0.0
C295 C 0.99666 0.52136 0.94678 0.0
C296 C 0.97347 0.54113 0.93543 0.0
C297 C 0.99322 0.59164 0.93476 0.0
C298 C 0.06486 0.5328 0.96975 0.0
C299 C 0.92822 0.50897 0.92372 0.0
H300 H 0.98808 0.38207 0.92061 0.0
H301 H 0.89585 0.36306 0.96967 0.0
H302 H 0.01875 0.49949 0.9085 0.0
H303 H 0.06583 0.50691 0.92488 0.0
H304 H 0.04196 0.45803 0.90736 0.0
H305 H 0.89612 0.42886 0.98544 0.0
H306 H 0.95397 0.4846 0.98467 0.0
H307 H 0.90605 0.4769 0.96874 0.0
H308 H 0.09102 0.62728 0.96458 0.0
H309 H 0.97545 0.60665 0.92597 0.0
H310 H 0.07821 0.51356 0.9603 0.0
H311 H 0.03905 0.50586 0.98037 0.0
H312 H 0.09626 0.56182 0.97788 0.0
H313 H 0.93643 0.48873 0.91258 0.0
H314 H 0.91364 0.53002 0.91619 0.0
H315 H 0.89945 0.48167 0.93337 0.0
C316 C 0.46327 0.06455 0.28696 0.0
C317 C 0.42166 0.04191 0.27517 0.0
C318 C 0.49601 0.04687 0.28775 0.0
C319 C 0.48692 0.00588 0.27638 0.0
C320 C 0.44471 0.98272 0.26462 0.0
C321 C 0.4126 0.00093 0.26419 0.0
C322 C 0.54058 0.07232 0.30054 0.0
C323 C 0.43386 0.93916 0.25217 0.0
C324 C 0.59226 0.98899 0.26086 0.0
C325 C 0.58713 0.95172 0.27337 0.0
C326 C 0.56035 0.00742 0.26193 0.0
C327 C 0.52254 0.98839 0.27595 0.0
C328 C 0.51742 0.95108 0.28877 0.0
C329 C 0.5497 0.93299 0.28727 0.0
C330 C 0.56669 0.04679 0.24784 0.0
C331 C 0.47766 0.9301 0.30397 0.0
H332 H 0.47028 0.09608 0.29553 0.0
H333 H 0.38044 0.98317 0.25506 0.0
H334 H 0.54208 0.04592 0.31072 0.0
H335 H 0.57387 0.08768 0.29139 0.0
H336 H 0.54119 0.10223 0.30917 0.0
H337 H 0.39873 0.92451 0.24426 0.0
H338 H 0.46335 0.94936 0.24131 0.0
H339 H 0.43263 0.90981 0.26138 0.0
H340 H 0.62117 0.00366 0.2501 0.0
H341 H 0.54584 0.90443 0.29705 0.0
H342 H 0.57105 0.07893 0.25597 0.0
H343 H 0.5337 0.03348 0.23861 0.0
H344 H 0.59874 0.05853 0.23815 0.0
H345 H 0.47974 0.95958 0.31333 0.0
H346 H 0.47995 0.90283 0.3134 0.0
H347 H 0.44154 0.91243 0.29673 0.0
C348 C 0.29263 0.09259 0.19986 0.0
C349 C 0.32375 0.12706 0.21345 0.0
C350 C 0.29285 0.10531 0.18024 0.0
C351 C 0.32418 0.15392 0.17422 0.0
C352 C 0.3554 0.18897 0.18795 0.0
C353 C 0.35518 0.17497 0.20739 0.0
C354 C 0.25974 0.06672 0.16593 0.0
C355 C 0.38863 0.24133 0.18215 0.0
C356 C 0.35591 0.17808 0.12047 0.0
C357 C 0.32217 0.19125 0.11399 0.0
C358 C 0.35705 0.16592 0.14007 0.0
C359 C 0.32429 0.16797 0.15354 0.0
C360 C 0.29095 0.18243 0.14716 0.0
C361 C 0.28995 0.19343 0.12738 0.0
C362 C 0.39255 0.14987 0.14627 0.0
C363 C 0.25612 0.18594 0.16118 0.0
H364 H 0.26846 0.05546 0.20451 0.0
H365 H 0.37904 0.20176 0.21793 0.0
H366 H 0.23393 0.07675 0.15943 0.0
H367 H 0.28152 0.06413 0.1538 0.0
H368 H 0.23851 0.03036 0.17286 0.0
H369 H 0.40999 0.26427 0.19468 0.0
H370 H 0.4143 0.24352 0.17067 0.0
H371 H 0.3669 0.25668 0.17589 0.0
H372 H 0.38069 0.17609 0.11011 0.0
H373 H 0.26399 0.20384 0.12241 0.0
H374 H 0.3724 0.11239 0.15224 0.0
H375 H 0.41646 0.17379 0.15806 0.0
H376 H 0.41576 0.15051 0.134 0.0
H377 H 0.23098 0.14957 0.16741 0.0
H378 H 0.23414 0.20002 0.15406 0.0
H379 H 0.27654 0.21023 0.17353 0.0
C380 C 0.1013 0.29714 0.46017 0.0
C381 C 0.13693 0.32866 0.44699 0.0
C382 C 0.112 0.2976 0.48005 0.0
C383 C 0.15967 0.32991 0.48683 0.0
C384 C 0.19577 0.36194 0.47359 0.0
C385 C 0.18385 0.36117 0.45382 0.0
C386 C 0.07238 0.26336 0.49379 0.0
C387 C 0.24713 0.39649 0.48026 0.0
C388 C 0.17801 0.35929 0.54094 0.0
C389 C 0.19295 0.327 0.54755 0.0
C390 C 0.16708 0.36068 0.52119 0.0
C391 C 0.17189 0.32951 0.50774 0.0
C392 C 0.18764 0.29734 0.51431 0.0
C393 C 0.19765 0.29623 0.53418 0.0
C394 C 0.14981 0.39504 0.51476 0.0
C395 C 0.19377 0.26399 0.50035 0.0
H396 H 0.06491 0.27211 0.45495 0.0
H397 H 0.21153 0.38548 0.44364 0.0
H398 H 0.08268 0.23798 0.50051 0.0
H399 H 0.0679 0.28419 0.50581 0.0
H400 H 0.03681 0.24168 0.4863 0.0
H401 H 0.27083 0.41926 0.46813 0.0
H402 H 0.24693 0.42079 0.49183 0.0
H403 H 0.26329 0.37566 0.48667 0.0
H404 H 0.17419 0.38303 0.55126 0.0
H405 H 0.20942 0.27138 0.53923 0.0
H406 H 0.11305 0.37415 0.50815 0.0
H407 H 0.17448 0.42012 0.50338 0.0
H408 H 0.14817 0.417 0.52704 0.0
H409 H 0.15835 0.2387 0.49342 0.0
H410 H 0.20776 0.24222 0.5077 0.0
H411 H 0.21933 0.28556 0.48849 0.0
C412 C 0.82588 0.17019 0.7917 0.0
C413 C 0.8059 0.12231 0.78497 0.0
C414 C 0.83761 0.18144 0.81146 0.0
C415 C 0.82829 0.14372 0.82483 0.0
C416 C 0.80769 0.09522 0.81813 0.0
C417 C 0.79712 0.08515 0.79822 0.0
C418 C 0.86017 0.23369 0.81803 0.0
C419 C 0.79649 0.05395 0.832 0.0
C420 C 0.89599 0.17699 0.87315 0.0
C421 C 0.86175 0.17849 0.88561 0.0
C422 C 0.88561 0.16573 0.85329 0.0
C423 C 0.83964 0.15501 0.84586 0.0
C424 C 0.80464 0.15566 0.85847 0.0
C425 C 0.81627 0.16776 0.87818 0.0
C426 C 0.92405 0.16598 0.84022 0.0
C427 C 0.75498 0.14374 0.85114 0.0
H428 H 0.83298 0.19904 0.78146 0.0
H429 H 0.78149 0.04805 0.79306 0.0
H430 H 0.83636 0.23728 0.82895 0.0
H431 H 0.89565 0.24522 0.82522 0.0
H432 H 0.86614 0.25886 0.80571 0.0
H433 H 0.77998 0.01821 0.82448 0.0
H434 H 0.8303 0.06036 0.83941 0.0
H435 H 0.77106 0.05223 0.84351 0.0
H436 H 0.93126 0.18545 0.87885 0.0
H437 H 0.78961 0.16866 0.8878 0.0
H438 H 0.93317 0.19292 0.82832 0.0
H439 H 0.90996 0.12986 0.83326 0.0
H440 H 0.95793 0.17504 0.84828 0.0
H441 H 0.75875 0.17028 0.83976 0.0
H442 H 0.73136 0.14432 0.86298 0.0
H443 H 0.73654 0.1072 0.84428 0.0
C444 C 0.7113 0.81249 0.12312 0.0
C445 C 0.67602 0.8129 0.11092 0.0
C446 C 0.71391 0.82461 0.14295 0.0
C447 C 0.68084 0.83798 0.15065 0.0
C448 C 0.64571 0.83927 0.13831 0.0
C449 C 0.64354 0.82641 0.1186 0.0
C450 C 0.75157 0.82239 0.15572 0.0
C451 C 0.61023 0.85393 0.14594 0.0
C452 C 0.65483 0.82498 0.20505 0.0
C453 C 0.68486 0.87274 0.21158 0.0
C454 C 0.65354 0.81306 0.18527 0.0
C455 C 0.68247 0.84997 0.17169 0.0
C456 C 0.71262 0.89833 0.17819 0.0
C457 C 0.7137 0.90908 0.1981 0.0
C458 C 0.62135 0.76098 0.1789 0.0
C459 C 0.74348 0.93874 0.16409 0.0
H460 H 0.73637 0.80191 0.11724 0.0
H461 H 0.61633 0.82696 0.1092 0.0
H462 H 0.77528 0.85834 0.16255 0.0
H463 H 0.7333 0.79586 0.1677 0.0
H464 H 0.77481 0.81163 0.14744 0.0
H465 H 0.58618 0.85455 0.13429 0.0
H466 H 0.58713 0.8282 0.15748 0.0
H467 H 0.63028 0.89056 0.15268 0.0
H468 H 0.63265 0.79676 0.21545 0.0
H469 H 0.73684 0.94609 0.20309 0.0
H470 H 0.64351 0.74758 0.1715 0.0
H471 H 0.59405 0.75873 0.1682 0.0
H472 H 0.60185 0.73645 0.19134 0.0
H473 H 0.76921 0.93037 0.15642 0.0
H474 H 0.76467 0.97447 0.17149 0.0
H475 H 0.72 0.94175 0.15282 0.0
C476 C 0.82131 0.63927 0.5424 0.0
C477 C 0.8032 0.66931 0.54853 0.0
C478 C 0.83338 0.63825 0.52277 0.0
C479 C 0.82629 0.66732 0.50896 0.0
C480 C 0.80691 0.69683 0.51501 0.0
C481 C 0.79601 0.69781 0.53478 0.0
C482 C 0.85465 0.60689 0.51689 0.0
C483 C 0.79808 0.72769 0.50064 0.0
C484 C 0.90009 0.70443 0.46218 0.0
C485 C 0.86691 0.67084 0.44881 0.0
C486 C 0.88757 0.70315 0.48188 0.0
C487 C 0.84043 0.66798 0.48825 0.0
C488 C 0.80673 0.634 0.4748 0.0
C489 C 0.82055 0.63557 0.45524 0.0
C490 C 0.92476 0.73947 0.49586 0.0
C491 C 0.75589 0.59649 0.48102 0.0
H492 H 0.82709 0.61734 0.55302 0.0
H493 H 0.78172 0.72084 0.53948 0.0
H494 H 0.83203 0.58095 0.50534 0.0
H495 H 0.8916 0.63001 0.51072 0.0
H496 H 0.85726 0.58596 0.52938 0.0
H497 H 0.78062 0.74677 0.50756 0.0
H498 H 0.83308 0.75526 0.49407 0.0
H499 H 0.77446 0.70472 0.48857 0.0
H500 H 0.93606 0.73158 0.45725 0.0
H501 H 0.79475 0.60968 0.44491 0.0
H502 H 0.93056 0.72015 0.50815 0.0
H503 H 0.91118 0.76264 0.50217 0.0
H504 H 0.96034 0.76336 0.4887 0.0
H505 H 0.75749 0.57333 0.49279 0.0
H506 H 0.73406 0.57271 0.46875 0.0
H507 H 0.73677 0.61485 0.48703 0.0
C508 C 0.16864 0.81439 0.87697 0.0
C509 C 0.12217 0.80246 0.88361 0.0
C510 C 0.18213 0.82745 0.85745 0.0
C511 C 0.14808 0.82796 0.84423 0.0
C512 C 0.10084 0.81518 0.85079 0.0
C513 C 0.08854 0.80287 0.87046 0.0
C514 C 0.23302 0.84137 0.85103 0.0
C515 C 0.06338 0.81474 0.83705 0.0
C516 C 0.19466 0.90505 0.79843 0.0
C517 C 0.18851 0.8703 0.78442 0.0
C518 C 0.18201 0.89181 0.818 0.0
C519 C 0.16214 0.84254 0.82359 0.0
C520 C 0.15568 0.80727 0.80948 0.0
C521 C 0.16928 0.82166 0.79006 0.0
C522 C 0.18999 0.93054 0.8327 0.0
C523 C 0.13408 0.75431 0.81487 0.0
H524 H 0.19481 0.8143 0.88712 0.0
H525 H 0.05252 0.79349 0.87553 0.0
H526 H 0.23149 0.81733 0.83898 0.0
H527 H 0.25188 0.87915 0.84532 0.0
H528 H 0.25506 0.83892 0.86311 0.0
H529 H 0.02782 0.80251 0.84433 0.0
H530 H 0.07667 0.85173 0.83105 0.0
H531 H 0.05766 0.7903 0.82453 0.0
H532 H 0.20968 0.94274 0.79413 0.0
H533 H 0.16427 0.79465 0.77923 0.0
H534 H 0.2141 0.93127 0.8446 0.0
H535 H 0.15482 0.92201 0.83947 0.0
H536 H 0.2066 0.96732 0.82604 0.0
H537 H 0.15685 0.75017 0.82615 0.0
H538 H 0.13104 0.73138 0.80211 0.0
H539 H 0.09732 0.74044 0.82124 0.0
C540 C 0.19944 0.93747 0.96747 0.0
C541 C 0.20173 0.89456 0.96824 0.0
C542 C 0.22959 0.97741 0.97915 0.0
C543 C 0.26378 0.97486 0.99167 0.0
C544 C 0.2692 0.93319 0.99131 0.0
C545 C 0.23754 0.89308 0.97974 0.0
C546 C 0.22218 0.02092 0.97911 0.0
C547 C 0.30641 0.92973 0.00387 0.0
C548 C 0.34146 0.09873 0.01414 0.0
C549 C 0.31344 0.09445 0.03063 0.0
C550 C 0.3293 0.05813 0.00225 0.0
C551 C 0.28779 0.0129 0.00688 0.0
C552 C 0.26287 0.0075 0.02466 0.0
C553 C 0.27627 0.04832 0.03638 0.0
C554 C 0.35818 0.06467 0.9839 0.0
C555 C 0.21858 0.95991 0.03027 0.0
H556 H 0.17218 0.93907 0.95845 0.0
H557 H 0.23986 0.86017 0.9802 0.0
H558 H 0.20858 0.02443 0.9936 0.0
H559 H 0.25719 0.05478 0.97645 0.0
H560 H 0.19569 0.01802 0.96784 0.0
H561 H 0.31618 0.90333 0.99775 0.0
H562 H 0.34 0.96563 0.0054 0.0
H563 H 0.29109 0.91702 0.01866 0.0
H564 H 0.37084 0.1342 0.00981 0.0
H565 H 0.25513 0.0446 0.04936 0.0
H566 H 0.33904 0.06945 0.97129 0.0
H567 H 0.36169 0.03215 0.98103 0.0
H568 H 0.39512 0.09721 0.98481 0.0
H569 H 0.18804 0.95252 0.02031 0.0
H570 H 0.20673 0.96035 0.04549 0.0
H571 H 0.226 0.92946 0.02879 0.0
C572 C 0.22062 0.27078 0.36532 0.0
C573 C 0.2155 0.31089 0.36045 0.0
C574 C 0.2465 0.25608 0.35327 0.0
C575 C 0.2684 0.28252 0.336 0.0
C576 C 0.2673 0.32575 0.33196 0.0
C577 C 0.24048 0.33933 0.34421 0.0
C578 C 0.24662 0.20972 0.35817 0.0
C579 C 0.29146 0.3557 0.31402 0.0
C580 C 0.34218 0.2351 0.31009 0.0
C581 C 0.30691 0.20065 0.29752 0.0
C582 C 0.3317 0.2653 0.32169 0.0
C583 C 0.28465 0.25999 0.32093 0.0
C584 C 0.25008 0.22732 0.30739 0.0
C585 C 0.26181 0.19842 0.29576 0.0
C586 C 0.37 0.30078 0.33552 0.0
C587 C 0.1993 0.22012 0.30616 0.0
H588 H 0.20197 0.24902 0.37801 0.0
H589 H 0.23705 0.37068 0.34048 0.0
H590 H 0.22392 0.18112 0.34743 0.0
H591 H 0.28402 0.21543 0.35727 0.0
H592 H 0.23204 0.1961 0.37301 0.0
H593 H 0.29656 0.39287 0.31517 0.0
H594 H 0.32737 0.35858 0.3115 0.0
H595 H 0.26844 0.33774 0.30106 0.0
H596 H 0.37731 0.23735 0.31136 0.0
H597 H 0.23449 0.17217 0.28596 0.0
H598 H 0.36204 0.28551 0.3505 0.0
H599 H 0.36986 0.33566 0.33586 0.0
H600 H 0.40698 0.30819 0.33141 0.0
H601 H 0.17953 0.20383 0.31997 0.0
H602 H 0.178 0.19589 0.29391 0.0
H603 H 0.20085 0.25555 0.30426 0.0
C604 C 0.94231 0.20566 0.70108 0.0
C605 C 0.89741 0.20304 0.69787 0.0
C606 C 0.98227 0.23352 0.68896 0.0
C607 C 0.97751 0.26009 0.67336 0.0
C608 C 0.93357 0.261 0.67106 0.0
C609 C 0.89372 0.23203 0.68328 0.0
C610 C 0.02831 0.23124 0.69195 0.0
C611 C 0.92759 0.29004 0.65497 0.0
C612 C 0.0987 0.33838 0.64807 0.0
C613 C 0.09697 0.30611 0.63371 0.0
C614 C 0.05823 0.32588 0.66016 0.0
C615 C 0.0157 0.27984 0.65797 0.0
C616 C 0.01276 0.24886 0.64254 0.0
C617 C 0.05327 0.26255 0.63055 0.0
C618 C 0.06218 0.36054 0.67605 0.0
C619 C 0.96827 0.19936 0.63966 0.0
H620 H 0.94564 0.18382 0.71248 0.0
H621 H 0.85923 0.23056 0.68086 0.0
H622 H 0.03324 0.21162 0.67955 0.0
H623 H 0.06048 0.26836 0.6923 0.0
H624 H 0.02749 0.21223 0.70568 0.0
H625 H 0.89634 0.29581 0.65777 0.0
H626 H 0.9611 0.32593 0.65324 0.0
H627 H 0.92099 0.27024 0.64095 0.0
H628 H 0.13222 0.37238 0.65044 0.0
H629 H 0.05142 0.23768 0.6193 0.0
H630 H 0.06936 0.34831 0.69019 0.0
H631 H 0.02763 0.36112 0.67753 0.0
H632 H 0.09229 0.3981 0.67318 0.0
H633 H 0.9646 0.17549 0.65215 0.0
H634 H 0.97021 0.18153 0.62601 0.0
H635 H 0.9349 0.20232 0.6392 0.0
C636 C 0.69449 0.89225 0.00203 0.0
C637 C 0.66513 0.87808 0.01875 0.0
C638 C 0.71127 0.93817 0.99366 0.0
C639 C 0.6976 0.97041 0.002 0.0
C640 C 0.66444 0.95465 0.01781 0.0
C641 C 0.64892 0.90872 0.02616 0.0
C642 C 0.7467 0.9535 0.97682 0.0
C643 C 0.64777 0.98733 0.0267 0.0
C644 C 0.79745 0.10092 0.99585 0.0
C645 C 0.78394 0.11338 0.97826 0.0
C646 C 0.76778 0.05548 0.00455 0.0
C647 C 0.72308 0.02211 0.99561 0.0
C648 C 0.70704 0.03646 0.97893 0.0
C649 C 0.73796 0.08184 0.9703 0.0
C650 C 0.78641 0.04165 0.02231 0.0
C651 C 0.65891 0.00261 0.96936 0.0
H652 H 0.70696 0.86865 0.99617 0.0
H653 H 0.6259 0.89778 0.039 0.0
H654 H 0.73441 0.96778 0.96465 0.0
H655 H 0.78287 0.98322 0.98161 0.0
H656 H 0.75108 0.92306 0.97123 0.0
H657 H 0.61489 0.9666 0.03592 0.0
H658 H 0.67722 0.01506 0.03598 0.0
H659 H 0.63967 0.00688 0.01519 0.0
H660 H 0.83286 0.12524 0.00212 0.0
H661 H 0.72712 0.09154 0.95679 0.0
H662 H 0.79537 0.01316 0.01828 0.0
H663 H 0.75804 0.02627 0.0338 0.0
H664 H 0.81954 0.07313 0.02851 0.0
H665 H 0.66227 0.97482 0.96077 0.0
H666 H 0.64726 0.02239 0.95933 0.0
H667 H 0.63012 0.98321 0.98048 0.0
C668 C 0.66744 0.76563 0.31285 0.0
C669 C 0.70219 0.79744 0.29943 0.0
C670 C 0.67776 0.73654 0.32524 0.0
C671 C 0.72409 0.74016 0.32433 0.0
C672 C 0.75803 0.77009 0.30999 0.0
C673 C 0.7465 0.79803 0.29766 0.0
C674 C 0.64015 0.70407 0.33998 0.0
C675 C 0.80798 0.77531 0.30852 0.0
C676 C 0.79075 0.73227 0.36844 0.0
C677 C 0.7937 0.69062 0.36423 0.0
C678 C 0.76464 0.7467 0.35635 0.0
C679 C 0.74036 0.71844 0.33975 0.0
C680 C 0.73928 0.67384 0.33648 0.0
C681 C 0.76635 0.66055 0.34872 0.0
C682 C 0.76686 0.79454 0.36041 0.0
C683 C 0.71259 0.642 0.31927 0.0
H684 H 0.63293 0.76471 0.31416 0.0
H685 H 0.77338 0.82217 0.28719 0.0
H686 H 0.63895 0.66861 0.34115 0.0
H687 H 0.64997 0.72155 0.35455 0.0
H688 H 0.60327 0.6974 0.33616 0.0
H689 H 0.82883 0.79757 0.29575 0.0
H690 H 0.82907 0.79285 0.32194 0.0
H691 H 0.80496 0.73907 0.30733 0.0
H692 H 0.81127 0.75536 0.38056 0.0
H693 H 0.76805 0.628 0.34553 0.0
H694 H 0.73 0.79026 0.35968 0.0
H695 H 0.78953 0.82147 0.34911 0.0
H696 H 0.78277 0.80949 0.37496 0.0
H697 H 0.677 0.6401 0.31711 0.0
H698 H 0.70636 0.60454 0.3211 0.0
H699 H 0.73442 0.65776 0.30584 0.0
C700 C 0.10161 0.76753 0.68555 0.0
C701 C 0.10133 0.8037 0.6972 0.0
C702 C 0.0612 0.73711 0.67383 0.0
C703 C 0.02026 0.74383 0.67357 0.0
C704 C 0.01909 0.77876 0.68604 0.0
C705 C 0.05942 0.80793 0.69776 0.0
C706 C 0.06328 0.69944 0.6611 0.0
C707 C 0.9764 0.7875 0.68618 0.0
C708 C 0.94434 0.72791 0.62899 0.0
C709 C 0.89882 0.68954 0.63474 0.0
C710 C 0.98547 0.74327 0.6408 0.0
C711 C 0.98109 0.71939 0.65876 0.0
C712 C 0.93635 0.67757 0.66372 0.0
C713 C 0.89548 0.6632 0.65166 0.0
C714 C 0.03239 0.78799 0.63488 0.0
C715 C 0.93064 0.65032 0.68247 0.0
H716 H 0.13376 0.76381 0.6852 0.0
H717 H 0.05874 0.83553 0.70684 0.0
H718 H 0.02791 0.66491 0.66126 0.0
H719 H 0.07075 0.71264 0.64581 0.0
H720 H 0.09241 0.69196 0.66584 0.0
H721 H 0.98008 0.81414 0.69751 0.0
H722 H 0.97324 0.80151 0.67173 0.0
H723 H 0.94202 0.75295 0.68881 0.0
H724 H 0.94735 0.74796 0.61575 0.0
H725 H 0.86047 0.63317 0.65607 0.0
H726 H 0.06362 0.78178 0.63659 0.0
H727 H 0.03901 0.81877 0.64453 0.0
H728 H 0.03142 0.79879 0.61954 0.0
H729 H 0.96314 0.64672 0.6853 0.0
H730 H 0.89781 0.6135 0.6822 0.0
H731 H 0.92698 0.67084 0.69483 0.0
C732 C 0.00721 0.16017 0.96814 0.0
C733 C 0.00993 0.20552 0.96671 0.0
C734 C 0.04302 0.15517 0.97825 0.0
C735 C 0.08237 0.19655 0.98701 0.0
C736 C 0.08585 0.24258 0.98514 0.0
C737 C 0.04955 0.24647 0.97505 0.0
C738 C 0.03822 0.10554 0.97994 0.0
C739 C 0.12744 0.28765 0.99416 0.0
C740 C 0.15164 0.18618 0.03012 0.0
C741 C 0.19528 0.19543 0.02129 0.0
C742 C 0.11366 0.18444 0.01899 0.0
C743 C 0.11956 0.19205 0.99857 0.0
C744 C 0.1628 0.19945 0.98949 0.0
C745 C 0.20021 0.20114 0.00098 0.0
C746 C 0.06801 0.17639 0.02918 0.0
C747 C 0.17035 0.2075 0.96775 0.0
H748 H 0.97653 0.1284 0.96176 0.0
H749 H 0.0519 0.28165 0.97393 0.0
H750 H 0.07185 0.10675 0.97463 0.0
H751 H 0.03363 0.09431 0.99549 0.0
H752 H 0.00672 0.07747 0.97154 0.0
H753 H 0.1255 0.32092 0.99088 0.0
H754 H 0.12713 0.28327 0.01023 0.0
H755 H 0.16272 0.29296 0.98872 0.0
H756 H 0.1476 0.18152 0.04581 0.0
H757 H 0.23378 0.20794 0.99406 0.0
H758 H 0.03535 0.14657 0.02201 0.0
H759 H 0.06516 0.20976 0.02806 0.0
H760 H 0.06753 0.16729 0.04486 0.0
H761 H 0.13892 0.17838 0.95972 0.0
H762 H 0.20409 0.20836 0.96274 0.0
H763 H 0.17275 0.24253 0.9638 0.0
C764 C 0.85186 0.03657 0.29584 0.0
C765 C 0.80336 0.01999 0.30105 0.0
C766 C 0.89023 0.07322 0.30665 0.0
C767 C 0.87962 0.09427 0.32276 0.0
C768 C 0.83065 0.07799 0.32792 0.0
C769 C 0.79307 0.04068 0.3171 0.0
C770 C 0.94206 0.08918 0.30092 0.0
C771 C 0.81795 0.10021 0.34479 0.0
C772 C 0.97497 0.16076 0.36186 0.0
C773 C 0.99415 0.20926 0.35606 0.0
C774 C 0.93819 0.12279 0.35094 0.0
C775 C 0.9197 0.13384 0.33409 0.0
C776 C 0.93883 0.18281 0.32825 0.0
C777 C 0.97617 0.21994 0.33922 0.0
C778 C 0.91916 0.0709 0.35741 0.0
C779 C 0.91944 0.19603 0.31055 0.0
H780 H 0.85984 0.02033 0.28351 0.0
H781 H 0.75554 0.02801 0.3211 0.0
H782 H 0.96155 0.12837 0.29707 0.0
H783 H 0.96158 0.08457 0.31344 0.0
H784 H 0.94408 0.06829 0.28831 0.0
H785 H 0.77801 0.08384 0.34672 0.0
H786 H 0.83359 0.09534 0.35852 0.0
H787 H 0.83407 0.1399 0.34244 0.0
H788 H 0.98909 0.15246 0.37481 0.0
H789 H 0.99084 0.25747 0.33476 0.0
H790 H 0.92295 0.0496 0.3454 0.0
H791 H 0.87983 0.05362 0.36091 0.0
H792 H 0.93862 0.06841 0.37046 0.0
H793 H 0.92385 0.17838 0.29736 0.0
H794 H 0.93819 0.23591 0.30803 0.0
H795 H 0.87992 0.18238 0.31236 0.0
C796 C 0.74949 0.78159 0.65498 0.0
C797 C 0.77877 0.79182 0.63836 0.0
C798 C 0.74959 0.81906 0.66581 0.0
C799 C 0.7804 0.86795 0.66007 0.0
C800 C 0.81045 0.87854 0.6434 0.0
C801 C 0.80892 0.84023 0.63261 0.0
C802 C 0.71643 0.80631 0.68331 0.0
C803 C 0.84434 0.93031 0.63704 0.0
C804 C 0.7486 0.96219 0.67726 0.0
C805 C 0.77876 0.98155 0.69363 0.0
C806 C 0.74881 0.92519 0.66619 0.0
C807 C 0.78064 0.90788 0.67141 0.0
C808 C 0.81175 0.92786 0.68776 0.0
C809 C 0.81008 0.96419 0.69881 0.0
C810 C 0.7145 0.90415 0.64906 0.0
C811 C 0.84672 0.91082 0.69356 0.0
H812 H 0.72597 0.74413 0.65941 0.0
H813 H 0.83181 0.8482 0.61982 0.0
H814 H 0.73823 0.8232 0.69664 0.0
H815 H 0.69152 0.82108 0.68138 0.0
H816 H 0.69423 0.76642 0.68567 0.0
H817 H 0.86626 0.9324 0.62405 0.0
H818 H 0.82312 0.94846 0.63352 0.0
H819 H 0.86948 0.95106 0.64913 0.0
H820 H 0.72423 0.97547 0.67328 0.0
H821 H 0.83369 0.97941 0.71138 0.0
H822 H 0.68982 0.86458 0.65129 0.0
H823 H 0.73538 0.90856 0.63549 0.0
H824 H 0.69206 0.9217 0.64694 0.0
H825 H 0.82623 0.87168 0.69746 0.0
H826 H 0.86982 0.93146 0.70618 0.0
H827 H 0.87072 0.91478 0.68108 0.0
C828 C 0.8317 0.81358 0.03053 0.0
C829 C 0.78634 0.77074 0.03048 0.0
C830 C 0.87149 0.81617 0.02046 0.0
C831 C 0.86561 0.77488 0.01019 0.0
C832 C 0.82022 0.73117 0.01055 0.0
C833 C 0.78112 0.72966 0.02067 0.0
C834 C 0.91942 0.86335 0.0204 0.0
C835 C 0.81261 0.68629 -0.00014 0.0
C836 C 0.94812 0.79008 0.96744 0.0
C837 C 0.98001 0.77667 0.97581 0.0
C838 C 0.91135 0.7907 0.9786 0.0
C839 C 0.90639 0.77749 0.99856 0.0
C840 C 0.93898 0.76467 0.00716 0.0
C841 C 0.97545 0.76443 0.99567 0.0
C842 C 0.87726 0.80465 0.96894 0.0
C843 C 0.93476 0.75032 0.02839 0.0
H844 H 0.83583 0.84545 0.03806 0.0
H845 H 0.74613 0.69641 0.02062 0.0
H846 H 0.94902 0.8571 0.02554 0.0
H847 H 0.92863 0.8777 0.0053 0.0
H848 H 0.9186 0.89143 0.0298 0.0
H849 H 0.77557 0.6547 0.00219 0.0
H850 H 0.81816 0.69387 0.98398 0.0
H851 H 0.83975 0.67621 0.00476 0.0
H852 H 0.95164 0.79974 0.95212 0.0
H853 H 0.00013 0.75417 0.00222 0.0
H854 H 0.87736 0.83498 0.97702 0.0
H855 H 0.83951 0.77342 0.96935 0.0
H856 H 0.88727 0.81591 0.9535 0.0
H857 H 0.93586 0.77938 0.03773 0.0
H858 H 0.96429 0.74337 0.03305 0.0
H859 H 0.89925 0.71694 0.03101 0.0
C860 C 0.06534 0.81157 0.3654 0.0
C861 C 0.01679 0.79295 0.35983 0.0
C862 C 0.10325 0.84799 0.35432 0.0
C863 C 0.09197 0.86737 0.3378 0.0
C864 C 0.04277 0.84958 0.33251 0.0
C865 C 0.00574 0.81179 0.34339 0.0
C866 C 0.1553 0.86494 0.36003 0.0
C867 C 0.02925 0.87055 0.31543 0.0
C868 C 0.19018 0.9915 0.32036 0.0
C869 C 0.2071 0.97936 0.30362 0.0
C870 C 0.15193 0.95546 0.3314 0.0
C871 C 0.13165 0.90606 0.32596 0.0
C872 C 0.14924 0.89364 0.30919 0.0
C873 C 0.1862 0.93066 0.29797 0.0
C874 C 0.13293 0.97026 0.34875 0.0
C875 C 0.1296 0.84128 0.3033 0.0
H876 H 0.07368 0.79649 0.37805 0.0
H877 H 0.96801 0.79744 0.33922 0.0
H878 H 0.17472 0.85965 0.34764 0.0
H879 H 0.17455 0.90437 0.3634 0.0
H880 H 0.15783 0.84511 0.37293 0.0
H881 H 0.98923 0.85454 0.31397 0.0
H882 H 0.0461 0.91052 0.31713 0.0
H883 H 0.04351 0.86395 0.3017 0.0
H884 H 0.20625 0.02936 0.32458 0.0
H885 H 0.19974 0.92145 0.28508 0.0
H886 H 0.13841 0.95452 0.3623 0.0
H887 H 0.0932 0.95575 0.34715 0.0
H888 H 0.15121 0.01038 0.35046 0.0
H889 H 0.13347 0.82066 0.31559 0.0
H890 H 0.14864 0.83773 0.29035 0.0
H891 H 0.09023 0.82404 0.29992 0.0
C892 C 0.19641 0.04302 0.70086 0.0
C893 C 0.22878 0.02667 0.69612 0.0
C894 C 0.19484 0.07935 0.68973 0.0
C895 C 0.22714 0.10036 0.67378 0.0
C896 C 0.2606 0.08465 0.66921 0.0
C897 C 0.26066 0.04758 0.68032 0.0
C898 C 0.15815 0.09468 0.69484 0.0
C899 C 0.29627 0.10692 0.65257 0.0
C900 C 0.19667 0.16295 0.63349 0.0
C901 C 0.22445 0.21184 0.63899 0.0
C902 C 0.19671 0.12615 0.64483 0.0
C903 C 0.22594 0.13879 0.66183 0.0
C904 C 0.25443 0.18819 0.66732 0.0
C905 C 0.253 0.22411 0.65591 0.0
C906 C 0.16529 0.07375 0.63871 0.0
C907 C 0.28669 0.20312 0.68516 0.0
H908 H 0.1715 0.02661 0.71299 0.0
H909 H 0.28587 0.0351 0.6767 0.0
H910 H 0.17707 0.13413 0.69817 0.0
H911 H 0.13394 0.08855 0.68217 0.0
H912 H 0.13535 0.07444 0.70759 0.0
H913 H 0.32094 0.09163 0.65133 0.0
H914 H 0.27632 0.10065 0.6386 0.0
H915 H 0.31869 0.14684 0.65461 0.0
H916 H 0.17434 0.15339 0.62047 0.0
H917 H 0.27469 0.26196 0.66015 0.0
H918 H 0.13988 0.05261 0.65067 0.0
H919 H 0.18835 0.05727 0.63585 0.0
H920 H 0.14373 0.06997 0.62538 0.0
H921 H 0.26446 0.186 0.69838 0.0
H922 H 0.30709 0.24318 0.68726 0.0
H923 H 0.31321 0.19013 0.6839 0.0
loop_
_geom_bond_atom_site_label_1
_geom_bond_atom_site_label_2
_geom_bond_distance
_geom_bond_site_symmetry_2
_ccdc_geom_bond_type
In0 O1 2.294 . S
In0 O2 2.326 . S
In0 O6 2.266 . S
In0 O7 2.326 . S
In0 O8 2.266 . S
In0 O9 2.326 . S
In0 O11 2.294 . S
In0 O12 2.326 . S
O1 In0 2.294 . S
O1 C10 1.240 . S
O2 In0 2.326 . S
O2 C10 1.252 . S
C3 O6 1.252 . S
C3 O7 1.260 . S
C4 O11 1.240 . S
C4 O12 1.252 . S
C5 O8 1.252 . S
C5 O9 1.260 . S
O6 In0 2.266 . S
O6 C3 1.252 . S
O7 In0 2.326 . S
O7 C3 1.260 . S
O8 In0 2.266 . S
O8 C5 1.252 . S
O9 In0 2.326 . S
O9 C5 1.260 . S
C10 O1 1.240 . S
C10 O2 1.252 . S
O11 In0 2.294 . S
O11 C4 1.240 . S
O12 In0 2.326 . S
O12 C4 1.252 . S
In13 O14 2.294 . S
In13 O15 2.326 . S
In13 O19 2.266 . S
In13 O20 2.326 . S
In13 O21 2.266 . S
In13 O22 2.326 . S
In13 O24 2.294 . S
In13 O25 2.326 . S
O14 In13 2.294 . S
O14 C23 1.240 . S
O15 In13 2.326 . S
O15 C23 1.252 . S
C16 O19 1.252 . S
C16 O20 1.260 . S
C17 O24 1.240 . S
C17 O25 1.252 . S
C18 O21 1.252 . S
C18 O22 1.260 . S
O19 In13 2.266 . S
O19 C16 1.252 . S
O20 In13 2.326 . S
O20 C16 1.260 . S
O21 In13 2.266 . S
O21 C18 1.252 . S
O22 In13 2.326 . S
O22 C18 1.260 . S
C23 O14 1.240 . S
C23 O15 1.252 . S
O24 In13 2.294 . S
O24 C17 1.240 . S
O25 In13 2.326 . S
O25 C17 1.252 . S
In26 O27 2.294 . S
In26 O28 2.326 . S
In26 O32 2.266 . S
In26 O33 2.326 . S
In26 O34 2.266 . S
In26 O35 2.326 . S
In26 O37 2.294 . S
In26 O38 2.326 . S
O27 In26 2.294 . S
O27 C36 1.240 . S
O28 In26 2.326 . S
O28 C36 1.252 . S
C29 O32 1.252 . S
C29 O33 1.260 . S
C30 O37 1.240 . S
C30 O38 1.252 . S
C31 O34 1.252 . S
C31 O35 1.260 . S
O32 In26 2.266 . S
O32 C29 1.252 . S
O33 In26 2.326 . S
O33 C29 1.260 . S
O34 In26 2.266 . S
O34 C31 1.252 . S
O35 In26 2.326 . S
O35 C31 1.260 . S
C36 O27 1.240 . S
C36 O28 1.252 . S
O37 In26 2.294 . S
O37 C30 1.240 . S
O38 In26 2.326 . S
O38 C30 1.252 . S
In39 O40 2.294 . S
In39 O41 2.326 . S
In39 O45 2.266 . S
In39 O46 2.326 . S
In39 O47 2.266 . S
In39 O48 2.326 . S
In39 O50 2.294 . S
In39 O51 2.326 . S
O40 In39 2.294 . S
O40 C49 1.240 . S
O41 In39 2.326 . S
O41 C49 1.252 . S
C42 O45 1.252 . S
C42 O46 1.260 . S
C43 O50 1.240 . S
C43 O51 1.252 . S
C44 O47 1.252 . S
C44 O48 1.260 . S
O45 In39 2.266 . S
O45 C42 1.252 . S
O46 In39 2.326 . S
O46 C42 1.260 . S
O47 In39 2.266 . S
O47 C44 1.252 . S
O48 In39 2.326 . S
O48 C44 1.260 . S
C49 O40 1.240 . S
C49 O41 1.252 . S
O50 In39 2.294 . S
O50 C43 1.240 . S
O51 In39 2.326 . S
O51 C43 1.252 . S
In52 O53 2.294 . S
In52 O54 2.326 . S
In52 O58 2.266 . S
In52 O59 2.326 . S
In52 O60 2.266 . S
In52 O61 2.326 . S
In52 O63 2.294 . S
In52 O64 2.326 . S
O53 In52 2.294 . S
O53 C62 1.240 . S
O54 In52 2.326 . S
O54 C62 1.252 . S
C55 O58 1.252 . S
C55 O59 1.260 . S
C56 O63 1.240 . S
C56 O64 1.252 . S
C57 O60 1.252 . S
C57 O61 1.260 . S
O58 In52 2.266 . S
O58 C55 1.252 . S
O59 In52 2.326 . S
O59 C55 1.260 . S
O60 In52 2.266 . S
O60 C57 1.252 . S
O61 In52 2.326 . S
O61 C57 1.260 . S
C62 O53 1.240 . S
C62 O54 1.252 . S
O63 In52 2.294 . S
O63 C56 1.240 . S
O64 In52 2.326 . S
O64 C56 1.252 . S
In65 O66 2.294 . S
In65 O67 2.326 . S
In65 O71 2.266 . S
In65 O72 2.326 . S
In65 O73 2.266 . S
In65 O74 2.326 . S
In65 O76 2.294 . S
In65 O77 2.326 . S
O66 In65 2.294 . S
O66 C75 1.240 . S
O67 In65 2.326 . S
O67 C75 1.252 . S
C68 O71 1.252 . S
C68 O72 1.260 . S
C69 O76 1.240 . S
C69 O77 1.252 . S
C70 O73 1.252 . S
C70 O74 1.260 . S
O71 In65 2.266 . S
O71 C68 1.252 . S
O72 In65 2.326 . S
O72 C68 1.260 . S
O73 In65 2.266 . S
O73 C70 1.252 . S
O74 In65 2.326 . S
O74 C70 1.260 . S
C75 O66 1.240 . S
C75 O67 1.252 . S
O76 In65 2.294 . S
O76 C69 1.240 . S
O77 In65 2.326 . S
O77 C69 1.252 . S
In78 O79 2.294 . S
In78 O80 2.326 . S
In78 O84 2.266 . S
In78 O85 2.326 . S
In78 O86 2.266 . S
In78 O87 2.326 . S
In78 O89 2.294 . S
In78 O90 2.326 . S
O79 In78 2.294 . S
O79 C88 1.240 . S
O80 In78 2.326 . S
O80 C88 1.252 . S
C81 O84 1.252 . S
C81 O85 1.260 . S
C82 O89 1.240 . S
C82 O90 1.252 . S
C83 O86 1.252 . S
C83 O87 1.260 . S
O84 In78 2.266 . S
O84 C81 1.252 . S
O85 In78 2.326 . S
O85 C81 1.260 . S
O86 In78 2.266 . S
O86 C83 1.252 . S
O87 In78 2.326 . S
O87 C83 1.260 . S
C88 O79 1.240 . S
C88 O80 1.252 . S
O89 In78 2.294 . S
O89 C82 1.240 . S
O90 In78 2.326 . S
O90 C82 1.252 . S
In91 O92 2.294 . S
In91 O93 2.326 . S
In91 O97 2.266 . S
In91 O98 2.326 . S
In91 O99 2.266 . S
In91 O100 2.326 . S
In91 O102 2.294 . S
In91 O103 2.326 . S
O92 In91 2.294 . S
O92 C101 1.240 . S
O93 In91 2.326 . S
O93 C101 1.252 . S
C94 O97 1.252 . S
C94 O98 1.260 . S
C95 O102 1.240 . S
C95 O103 1.252 . S
C96 O99 1.252 . S
C96 O100 1.260 . S
O97 In91 2.266 . S
O97 C94 1.252 . S
O98 In91 2.326 . S
O98 C94 1.260 . S
O99 In91 2.266 . S
O99 C96 1.252 . S
O100 In91 2.326 . S
O100 C96 1.260 . S
C101 O92 1.240 . S
C101 O93 1.252 . S
O102 In91 2.294 . S
O102 C95 1.240 . S
O103 In91 2.326 . S
O103 C95 1.252 . S
In104 O105 2.294 . S
In104 O106 2.326 . S
In104 O110 2.266 . S
In104 O111 2.326 . S
In104 O112 2.266 . S
In104 O113 2.326 . S
In104 O115 2.294 . S
In104 O116 2.326 . S
O105 In104 2.294 . S
O105 C114 1.240 . S
O106 In104 2.326 . S
O106 C114 1.252 . S
C107 O110 1.252 . S
C107 O111 1.260 . S
C108 O115 1.240 . S
C108 O116 1.252 . S
C109 O112 1.252 . S
C109 O113 1.260 . S
O110 In104 2.266 . S
O110 C107 1.252 . S
O111 In104 2.326 . S
O111 C107 1.260 . S
O112 In104 2.266 . S
O112 C109 1.252 . S
O113 In104 2.326 . S
O113 C109 1.260 . S
C114 O105 1.240 . S
C114 O106 1.252 . S
O115 In104 2.294 . S
O115 C108 1.240 . S
O116 In104 2.326 . S
O116 C108 1.252 . S
In117 O118 2.294 . S
In117 O119 2.326 . S
In117 O123 2.266 . S
In117 O124 2.326 . S
In117 O125 2.266 . S
In117 O126 2.326 . S
In117 O128 2.294 . S
In117 O129 2.326 . S
O118 In117 2.294 . S
O118 C127 1.240 . S
O119 In117 2.326 . S
O119 C127 1.252 . S
C120 O123 1.252 . S
C120 O124 1.260 . S
C121 O128 1.240 . S
C121 O129 1.252 . S
C122 O125 1.252 . S
C122 O126 1.260 . S
O123 In117 2.266 . S
O123 C120 1.252 . S
O124 In117 2.326 . S
O124 C120 1.260 . S
O125 In117 2.266 . S
O125 C122 1.252 . S
O126 In117 2.326 . S
O126 C122 1.260 . S
C127 O118 1.240 . S
C127 O119 1.252 . S
O128 In117 2.294 . S
O128 C121 1.240 . S
O129 In117 2.326 . S
O129 C121 1.252 . S
In130 O131 2.294 . S
In130 O132 2.326 . S
In130 O136 2.266 . S
In130 O137 2.326 . S
In130 O138 2.266 . S
In130 O139 2.326 . S
In130 O141 2.294 . S
In130 O142 2.326 . S
O131 In130 2.294 . S
O131 C140 1.240 . S
O132 In130 2.326 . S
O132 C140 1.252 . S
C133 O136 1.252 . S
C133 O137 1.260 . S
C134 O141 1.240 . S
C134 O142 1.252 . S
C135 O138 1.252 . S
C135 O139 1.260 . S
O136 In130 2.266 . S
O136 C133 1.252 . S
O137 In130 2.326 . S
O137 C133 1.260 . S
O138 In130 2.266 . S
O138 C135 1.252 . S
O139 In130 2.326 . S
O139 C135 1.260 . S
C140 O131 1.240 . S
C140 O132 1.252 . S
O141 In130 2.294 . S
O141 C134 1.240 . S
O142 In130 2.326 . S
O142 C134 1.252 . S
In143 O144 2.294 . S
In143 O145 2.326 . S
In143 O149 2.266 . S
In143 O150 2.326 . S
In143 O151 2.266 . S
In143 O152 2.326 . S
In143 O154 2.294 . S
In143 O155 2.326 . S
O144 In143 2.294 . S
O144 C153 1.240 . S
O145 In143 2.326 . S
O145 C153 1.252 . S
C146 O149 1.252 . S
C146 O150 1.260 . S
C147 O154 1.240 . S
C147 O155 1.252 . S
C148 O151 1.252 . S
C148 O152 1.260 . S
O149 In143 2.266 . S
O149 C146 1.252 . S
O150 In143 2.326 . S
O150 C146 1.260 . S
O151 In143 2.266 . S
O151 C148 1.252 . S
O152 In143 2.326 . S
O152 C148 1.260 . S
C153 O144 1.240 . S
C153 O145 1.252 . S
O154 In143 2.294 . S
O154 C147 1.240 . S
O155 In143 2.326 . S
O155 C147 1.252 . S
C156 C157 1.391 . S
C156 C158 1.394 . S
C156 H172 0.931 . S
C157 C156 1.391 . S
C157 C161 1.376 . S
C158 C156 1.394 . S
C158 C159 1.369 . S
C158 C162 1.531 . S
C159 C158 1.369 . S
C159 C160 1.410 . S
C159 C167 1.503 . S
C160 C159 1.410 . S
C160 C161 1.392 . S
C160 C163 1.511 . S
C161 C157 1.376 . S
C161 C160 1.392 . S
C161 H173 0.929 . S
C162 C158 1.531 . S
C162 H174 0.960 . S
C162 H175 0.962 . S
C162 H176 0.960 . S
C163 C160 1.511 . S
C163 H177 0.961 . S
C163 H178 0.961 . S
C163 H179 0.961 . S
C164 C165 1.370 . S
C164 C166 1.363 . S
C164 H180 0.931 . S
C165 C164 1.370 . S
C165 C169 1.408 . S
C166 C164 1.363 . S
C166 C167 1.370 . S
C166 C170 1.524 . S
C167 C159 1.503 . S
C167 C166 1.370 . S
C167 C168 1.403 . S
C168 C167 1.403 . S
C168 C169 1.404 . S
C168 C171 1.539 . S
C169 C165 1.408 . S
C169 C168 1.404 . S
C169 H181 0.930 . S
C170 C166 1.524 . S
C170 H182 0.956 . S
C170 H183 0.961 . S
C170 H184 0.961 . S
C171 C168 1.539 . S
C171 H185 0.958 . S
C171 H186 0.961 . S
C171 H187 0.960 . S
H172 C156 0.931 . S
H173 C161 0.929 . S
H174 C162 0.960 . S
H175 C162 0.962 . S
H176 C162 0.960 . S
H177 C163 0.961 . S
H178 C163 0.961 . S
H179 C163 0.961 . S
H180 C164 0.931 . S
H181 C169 0.930 . S
H182 C170 0.956 . S
H183 C170 0.961 . S
H184 C170 0.961 . S
H185 C171 0.958 . S
H186 C171 0.961 . S
H187 C171 0.960 . S
C188 C189 1.391 . S
C188 C190 1.394 . S
C188 H204 0.931 . S
C189 C188 1.391 . S
C189 C193 1.376 . S
C190 C188 1.394 . S
C190 C191 1.369 . S
C190 C194 1.531 . S
C191 C190 1.369 . S
C191 C192 1.410 1_455 S
C191 C199 1.503 1_455 S
C192 C191 1.410 1_655 S
C192 C193 1.392 1_655 S
C192 C195 1.511 . S
C193 C189 1.376 . S
C193 C192 1.392 1_455 S
C193 H205 0.929 1_455 S
C194 C190 1.531 . S
C194 H206 0.960 . S
C194 H207 0.962 . S
C194 H208 0.960 . S
C195 C192 1.511 . S
C195 H209 0.961 . S
C195 H210 0.961 . S
C195 H211 0.961 . S
C196 C197 1.370 . S
C196 C198 1.363 . S
C196 H212 0.931 . S
C197 C196 1.370 . S
C197 C201 1.408 . S
C198 C196 1.363 . S
C198 C199 1.370 . S
C198 C202 1.524 1_655 S
C199 C191 1.503 1_655 S
C199 C198 1.370 . S
C199 C200 1.403 . S
C200 C199 1.403 . S
C200 C201 1.404 . S
C200 C203 1.539 . S
C201 C197 1.408 . S
C201 C200 1.404 . S
C201 H213 0.930 . S
C202 C198 1.524 1_455 S
C202 H214 0.956 . S
C202 H215 0.961 1_455 S
C202 H216 0.961 1_455 S
C203 C200 1.539 . S
C203 H217 0.958 . S
C203 H218 0.961 . S
C203 H219 0.960 . S
H204 C188 0.931 . S
H205 C193 0.929 1_655 S
H206 C194 0.960 . S
H207 C194 0.962 . S
H208 C194 0.960 . S
H209 C195 0.961 . S
H210 C195 0.961 . S
H211 C195 0.961 . S
H212 C196 0.931 . S
H213 C201 0.930 . S
H214 C202 0.956 . S
H215 C202 0.961 1_655 S
H216 C202 0.961 1_655 S
H217 C203 0.958 . S
H218 C203 0.961 . S
H219 C203 0.960 . S
C220 C221 1.391 . S
C220 C222 1.394 1_565 S
C220 H236 0.931 . S
C221 C220 1.391 . S
C221 C225 1.376 . S
C222 C220 1.394 1_545 S
C222 C223 1.369 1_545 S
C222 C226 1.531 . S
C223 C222 1.369 1_565 S
C223 C224 1.410 . S
C223 C231 1.503 1_565 S
C224 C223 1.410 . S
C224 C225 1.392 . S
C224 C227 1.511 . S
C225 C221 1.376 . S
C225 C224 1.392 . S
C225 H237 0.929 . S
C226 C222 1.531 . S
C226 H238 0.960 . S
C226 H239 0.962 . S
C226 H240 0.960 . S
C227 C224 1.511 . S
C227 H241 0.961 . S
C227 H242 0.961 . S
C227 H243 0.961 . S
C228 C229 1.370 . S
C228 C230 1.363 1_545 S
C228 H244 0.931 . S
C229 C228 1.370 . S
C229 C233 1.408 . S
C230 C228 1.363 1_565 S
C230 C231 1.370 1_565 S
C230 C234 1.524 . S
C231 C223 1.503 1_545 S
C231 C230 1.370 1_545 S
C231 C232 1.403 . S
C232 C231 1.403 . S
C232 C233 1.404 . S
C232 C235 1.539 . S
C233 C229 1.408 . S
C233 C232 1.404 . S
C233 H245 0.930 . S
C234 C230 1.524 . S
C234 H246 0.956 . S
C234 H247 0.961 . S
C234 H248 0.961 . S
C235 C232 1.539 . S
C235 H249 0.958 . S
C235 H250 0.961 . S
C235 H251 0.960 . S
H236 C220 0.931 . S
H237 C225 0.929 . S
H238 C226 0.960 . S
H239 C226 0.962 . S
H240 C226 0.960 . S
H241 C227 0.961 . S
H242 C227 0.961 . S
H243 C227 0.961 . S
H244 C228 0.931 . S
H245 C233 0.930 . S
H246 C234 0.956 . S
H247 C234 0.961 . S
H248 C234 0.961 . S
H249 C235 0.958 . S
H250 C235 0.961 . S
H251 C235 0.960 . S
C252 C253 1.391 . S
C252 C254 1.394 . S
C252 H268 0.931 . S
C253 C252 1.391 . S
C253 C257 1.376 . S
C254 C252 1.394 . S
C254 C255 1.369 . S
C254 C258 1.531 . S
C255 C254 1.369 . S
C255 C256 1.410 . S
C255 C263 1.503 . S
C256 C255 1.410 . S
C256 C257 1.392 . S
C256 C259 1.511 . S
C257 C253 1.376 . S
C257 C256 1.392 . S
C257 H269 0.929 . S
C258 C254 1.531 . S
C258 H270 0.960 . S
C258 H271 0.962 . S
C258 H272 0.960 . S
C259 C256 1.511 . S
C259 H273 0.961 . S
C259 H274 0.961 . S
C259 H275 0.961 . S
C260 C261 1.370 . S
C260 C262 1.363 . S
C260 H276 0.931 . S
C261 C260 1.370 . S
C261 C265 1.408 . S
C262 C260 1.363 . S
C262 C263 1.370 . S
C262 C266 1.524 . S
C263 C255 1.503 . S
C263 C262 1.370 . S
C263 C264 1.403 . S
C264 C263 1.403 . S
C264 C265 1.404 . S
C264 C267 1.539 . S
C265 C261 1.408 . S
C265 C264 1.404 . S
C265 H277 0.930 . S
C266 C262 1.524 . S
C266 H278 0.956 . S
C266 H279 0.961 . S
C266 H280 0.961 . S
C267 C264 1.539 . S
C267 H281 0.958 . S
C267 H282 0.961 . S
C267 H283 0.960 . S
H268 C252 0.931 . S
H269 C257 0.929 . S
H270 C258 0.960 . S
H271 C258 0.962 . S
H272 C258 0.960 . S
H273 C259 0.961 . S
H274 C259 0.961 . S
H275 C259 0.961 . S
H276 C260 0.931 . S
H277 C265 0.930 . S
H278 C266 0.956 . S
H279 C266 0.961 . S
H280 C266 0.961 . S
H281 C267 0.958 . S
H282 C267 0.961 . S
H283 C267 0.960 . S
C284 C285 1.391 . S
C284 C286 1.394 1_655 S
C284 H300 0.931 1_655 S
C285 C284 1.391 . S
C285 C289 1.376 . S
C286 C284 1.394 1_455 S
C286 C287 1.369 1_455 S
C286 C290 1.531 . S
C287 C286 1.369 1_655 S
C287 C288 1.410 . S
C287 C295 1.503 1_655 S
C288 C287 1.410 . S
C288 C289 1.392 . S
C288 C291 1.511 . S
C289 C285 1.376 . S
C289 C288 1.392 . S
C289 H301 0.929 . S
C290 C286 1.531 . S
C290 H302 0.960 . S
C290 H303 0.962 . S
C290 H304 0.960 . S
C291 C288 1.511 . S
C291 H305 0.961 . S
C291 H306 0.961 . S
C291 H307 0.961 . S
C292 C293 1.370 . S
C292 C294 1.363 . S
C292 H308 0.931 . S
C293 C292 1.370 . S
C293 C297 1.408 . S
C294 C292 1.363 . S
C294 C295 1.370 . S
C294 C298 1.524 . S
C295 C287 1.503 1_455 S
C295 C294 1.370 . S
C295 C296 1.403 . S
C296 C295 1.403 . S
C296 C297 1.404 . S
C296 C299 1.539 . S
C297 C293 1.408 . S
C297 C296 1.404 . S
C297 H309 0.930 . S
C298 C294 1.524 . S
C298 H310 0.956 . S
C298 H311 0.961 1_455 S
C298 H312 0.961 . S
C299 C296 1.539 . S
C299 H313 0.958 . S
C299 H314 0.961 . S
C299 H315 0.960 1_455 S
H300 C284 0.931 1_455 S
H301 C289 0.929 . S
H302 C290 0.960 . S
H303 C290 0.962 . S
H304 C290 0.960 . S
H305 C291 0.961 . S
H306 C291 0.961 . S
H307 C291 0.961 . S
H308 C292 0.931 . S
H309 C297 0.930 . S
H310 C298 0.956 . S
H311 C298 0.961 1_655 S
H312 C298 0.961 . S
H313 C299 0.958 . S
H314 C299 0.961 . S
H315 C299 0.960 1_655 S
C316 C317 1.391 . S
C316 C318 1.394 . S
C316 H332 0.931 . S
C317 C316 1.391 . S
C317 C321 1.376 . S
C318 C316 1.394 . S
C318 C319 1.369 . S
C318 C322 1.531 . S
C319 C318 1.369 . S
C319 C320 1.410 1_545 S
C319 C327 1.503 1_545 S
C320 C319 1.410 1_565 S
C320 C321 1.392 1_565 S
C320 C323 1.511 . S
C321 C317 1.376 . S
C321 C320 1.392 1_545 S
C321 H333 0.929 1_545 S
C322 C318 1.531 . S
C322 H334 0.960 . S
C322 H335 0.962 . S
C322 H336 0.960 . S
C323 C320 1.511 . S
C323 H337 0.961 . S
C323 H338 0.961 . S
C323 H339 0.961 . S
C324 C325 1.370 . S
C324 C326 1.363 . S
C324 H340 0.931 . S
C325 C324 1.370 . S
C325 C329 1.408 . S
C326 C324 1.363 . S
C326 C327 1.370 . S
C326 C330 1.524 . S
C327 C319 1.503 1_565 S
C327 C326 1.370 . S
C327 C328 1.403 . S
C328 C327 1.403 . S
C328 C329 1.404 . S
C328 C331 1.539 1_565 S
C329 C325 1.408 . S
C329 C328 1.404 . S
C329 H341 0.930 . S
C330 C326 1.524 . S
C330 H342 0.956 1_565 S
C330 H343 0.961 . S
C330 H344 0.961 . S
C331 C328 1.539 1_545 S
C331 H345 0.958 . S
C331 H346 0.961 1_545 S
C331 H347 0.960 . S
H332 C316 0.931 . S
H333 C321 0.929 1_565 S
H334 C322 0.960 . S
H335 C322 0.962 . S
H336 C322 0.960 . S
H337 C323 0.961 . S
H338 C323 0.961 . S
H339 C323 0.961 . S
H340 C324 0.931 . S
H341 C329 0.930 . S
H342 C330 0.956 1_545 S
H343 C330 0.961 . S
H344 C330 0.961 . S
H345 C331 0.958 . S
H346 C331 0.961 1_565 S
H347 C331 0.960 . S
C348 C349 1.391 . S
C348 C350 1.394 . S
C348 H364 0.931 . S
C349 C348 1.391 . S
C349 C353 1.376 . S
C350 C348 1.394 . S
C350 C351 1.369 . S
C350 C354 1.531 . S
C351 C350 1.369 . S
C351 C352 1.410 . S
C351 C359 1.503 . S
C352 C351 1.410 . S
C352 C353 1.392 . S
C352 C355 1.511 . S
C353 C349 1.376 . S
C353 C352 1.392 . S
C353 H365 0.929 . S
C354 C350 1.531 . S
C354 H366 0.960 . S
C354 H367 0.962 . S
C354 H368 0.960 . S
C355 C352 1.511 . S
C355 H369 0.961 . S
C355 H370 0.961 . S
C355 H371 0.961 . S
C356 C357 1.370 . S
C356 C358 1.363 . S
C356 H372 0.931 . S
C357 C356 1.370 . S
C357 C361 1.408 . S
C358 C356 1.363 . S
C358 C359 1.370 . S
C358 C362 1.524 . S
C359 C351 1.503 . S
C359 C358 1.370 . S
C359 C360 1.403 . S
C360 C359 1.403 . S
C360 C361 1.404 . S
C360 C363 1.539 . S
C361 C357 1.408 . S
C361 C360 1.404 . S
C361 H373 0.930 . S
C362 C358 1.524 . S
C362 H374 0.956 . S
C362 H375 0.961 . S
C362 H376 0.961 . S
C363 C360 1.539 . S
C363 H377 0.958 . S
C363 H378 0.961 . S
C363 H379 0.960 . S
H364 C348 0.931 . S
H365 C353 0.929 . S
H366 C354 0.960 . S
H367 C354 0.962 . S
H368 C354 0.960 . S
H369 C355 0.961 . S
H370 C355 0.961 . S
H371 C355 0.961 . S
H372 C356 0.931 . S
H373 C361 0.930 . S
H374 C362 0.956 . S
H375 C362 0.961 . S
H376 C362 0.961 . S
H377 C363 0.958 . S
H378 C363 0.961 . S
H379 C363 0.960 . S
C380 C381 1.391 . S
C380 C382 1.394 . S
C380 H396 0.931 . S
C381 C380 1.391 . S
C381 C385 1.376 . S
C382 C380 1.394 . S
C382 C383 1.369 . S
C382 C386 1.531 . S
C383 C382 1.369 . S
C383 C384 1.410 . S
C383 C391 1.503 . S
C384 C383 1.410 . S
C384 C385 1.392 . S
C384 C387 1.511 . S
C385 C381 1.376 . S
C385 C384 1.392 . S
C385 H397 0.929 . S
C386 C382 1.531 . S
C386 H398 0.960 . S
C386 H399 0.962 . S
C386 H400 0.960 . S
C387 C384 1.511 . S
C387 H401 0.961 . S
C387 H402 0.961 . S
C387 H403 0.961 . S
C388 C389 1.370 . S
C388 C390 1.363 . S
C388 H404 0.931 . S
C389 C388 1.370 . S
C389 C393 1.408 . S
C390 C388 1.363 . S
C390 C391 1.370 . S
C390 C394 1.524 . S
C391 C383 1.503 . S
C391 C390 1.370 . S
C391 C392 1.403 . S
C392 C391 1.403 . S
C392 C393 1.404 . S
C392 C395 1.539 . S
C393 C389 1.408 . S
C393 C392 1.404 . S
C393 H405 0.930 . S
C394 C390 1.524 . S
C394 H406 0.956 . S
C394 H407 0.961 . S
C394 H408 0.961 . S
C395 C392 1.539 . S
C395 H409 0.958 . S
C395 H410 0.961 . S
C395 H411 0.960 . S
H396 C380 0.931 . S
H397 C385 0.929 . S
H398 C386 0.960 . S
H399 C386 0.962 . S
H400 C386 0.960 . S
H401 C387 0.961 . S
H402 C387 0.961 . S
H403 C387 0.961 . S
H404 C388 0.931 . S
H405 C393 0.930 . S
H406 C394 0.956 . S
H407 C394 0.961 . S
H408 C394 0.961 . S
H409 C395 0.958 . S
H410 C395 0.961 . S
H411 C395 0.960 . S
C412 C413 1.391 . S
C412 C414 1.394 . S
C412 H428 0.931 . S
C413 C412 1.391 . S
C413 C417 1.376 . S
C414 C412 1.394 . S
C414 C415 1.369 . S
C414 C418 1.531 . S
C415 C414 1.369 . S
C415 C416 1.410 . S
C415 C423 1.503 . S
C416 C415 1.410 . S
C416 C417 1.392 . S
C416 C419 1.511 . S
C417 C413 1.376 . S
C417 C416 1.392 . S
C417 H429 0.929 . S
C418 C414 1.531 . S
C418 H430 0.960 . S
C418 H431 0.962 . S
C418 H432 0.960 . S
C419 C416 1.511 . S
C419 H433 0.961 . S
C419 H434 0.961 . S
C419 H435 0.961 . S
C420 C421 1.370 . S
C420 C422 1.363 . S
C420 H436 0.931 . S
C421 C420 1.370 . S
C421 C425 1.408 . S
C422 C420 1.363 . S
C422 C423 1.370 . S
C422 C426 1.524 . S
C423 C415 1.503 . S
C423 C422 1.370 . S
C423 C424 1.403 . S
C424 C423 1.403 . S
C424 C425 1.404 . S
C424 C427 1.539 . S
C425 C421 1.408 . S
C425 C424 1.404 . S
C425 H437 0.930 . S
C426 C422 1.524 . S
C426 H438 0.956 . S
C426 H439 0.961 . S
C426 H440 0.961 . S
C427 C424 1.539 . S
C427 H441 0.958 . S
C427 H442 0.961 . S
C427 H443 0.960 . S
H428 C412 0.931 . S
H429 C417 0.929 . S
H430 C418 0.960 . S
H431 C418 0.962 . S
H432 C418 0.960 . S
H433 C419 0.961 . S
H434 C419 0.961 . S
H435 C419 0.961 . S
H436 C420 0.931 . S
H437 C425 0.930 . S
H438 C426 0.956 . S
H439 C426 0.961 . S
H440 C426 0.961 . S
H441 C427 0.958 . S
H442 C427 0.961 . S
H443 C427 0.960 . S
C444 C445 1.391 . S
C444 C446 1.394 . S
C444 H460 0.931 . S
C445 C444 1.391 . S
C445 C449 1.376 . S
C446 C444 1.394 . S
C446 C447 1.369 . S
C446 C450 1.531 . S
C447 C446 1.369 . S
C447 C448 1.410 . S
C447 C455 1.503 . S
C448 C447 1.410 . S
C448 C449 1.392 . S
C448 C451 1.511 . S
C449 C445 1.376 . S
C449 C448 1.392 . S
C449 H461 0.929 . S
C450 C446 1.531 . S
C450 H462 0.960 . S
C450 H463 0.962 . S
C450 H464 0.960 . S
C451 C448 1.511 . S
C451 H465 0.961 . S
C451 H466 0.961 . S
C451 H467 0.961 . S
C452 C453 1.370 . S
C452 C454 1.363 . S
C452 H468 0.931 . S
C453 C452 1.370 . S
C453 C457 1.408 . S
C454 C452 1.363 . S
C454 C455 1.370 . S
C454 C458 1.524 . S
C455 C447 1.503 . S
C455 C454 1.370 . S
C455 C456 1.403 . S
C456 C455 1.403 . S
C456 C457 1.404 . S
C456 C459 1.539 . S
C457 C453 1.408 . S
C457 C456 1.404 . S
C457 H469 0.930 . S
C458 C454 1.524 . S
C458 H470 0.956 . S
C458 H471 0.961 . S
C458 H472 0.961 . S
C459 C456 1.539 . S
C459 H473 0.958 . S
C459 H474 0.961 . S
C459 H475 0.960 . S
H460 C444 0.931 . S
H461 C449 0.929 . S
H462 C450 0.960 . S
H463 C450 0.962 . S
H464 C450 0.960 . S
H465 C451 0.961 . S
H466 C451 0.961 . S
H467 C451 0.961 . S
H468 C452 0.931 . S
H469 C457 0.930 . S
H470 C458 0.956 . S
H471 C458 0.961 . S
H472 C458 0.961 . S
H473 C459 0.958 . S
H474 C459 0.961 . S
H475 C459 0.960 . S
C476 C477 1.391 . S
C476 C478 1.394 . S
C476 H492 0.931 . S
C477 C476 1.391 . S
C477 C481 1.376 . S
C478 C476 1.394 . S
C478 C479 1.369 . S
C478 C482 1.531 . S
C479 C478 1.369 . S
C479 C480 1.410 . S
C479 C487 1.503 . S
C480 C479 1.410 . S
C480 C481 1.392 . S
C480 C483 1.511 . S
C481 C477 1.376 . S
C481 C480 1.392 . S
C481 H493 0.929 . S
C482 C478 1.531 . S
C482 H494 0.960 . S
C482 H495 0.962 . S
C482 H496 0.960 . S
C483 C480 1.511 . S
C483 H497 0.961 . S
C483 H498 0.961 . S
C483 H499 0.961 . S
C484 C485 1.370 . S
C484 C486 1.363 . S
C484 H500 0.931 . S
C485 C484 1.370 . S
C485 C489 1.408 . S
C486 C484 1.363 . S
C486 C487 1.370 . S
C486 C490 1.524 . S
C487 C479 1.503 . S
C487 C486 1.370 . S
C487 C488 1.403 . S
C488 C487 1.403 . S
C488 C489 1.404 . S
C488 C491 1.539 . S
C489 C485 1.408 . S
C489 C488 1.404 . S
C489 H501 0.930 . S
C490 C486 1.524 . S
C490 H502 0.956 . S
C490 H503 0.961 . S
C490 H504 0.961 . S
C491 C488 1.539 . S
C491 H505 0.958 . S
C491 H506 0.961 . S
C491 H507 0.960 . S
H492 C476 0.931 . S
H493 C481 0.929 . S
H494 C482 0.960 . S
H495 C482 0.962 . S
H496 C482 0.960 . S
H497 C483 0.961 . S
H498 C483 0.961 . S
H499 C483 0.961 . S
H500 C484 0.931 . S
H501 C489 0.930 . S
H502 C490 0.956 . S
H503 C490 0.961 . S
H504 C490 0.961 . S
H505 C491 0.958 . S
H506 C491 0.961 . S
H507 C491 0.960 . S
C508 C509 1.391 . S
C508 C510 1.394 . S
C508 H524 0.931 . S
C509 C508 1.391 . S
C509 C513 1.376 . S
C510 C508 1.394 . S
C510 C511 1.369 . S
C510 C514 1.531 . S
C511 C510 1.369 . S
C511 C512 1.410 . S
C511 C519 1.503 . S
C512 C511 1.410 . S
C512 C513 1.392 . S
C512 C515 1.511 . S
C513 C509 1.376 . S
C513 C512 1.392 . S
C513 H525 0.929 . S
C514 C510 1.531 . S
C514 H526 0.960 . S
C514 H527 0.962 . S
C514 H528 0.960 . S
C515 C512 1.511 . S
C515 H529 0.961 . S
C515 H530 0.961 . S
C515 H531 0.961 . S
C516 C517 1.370 . S
C516 C518 1.363 . S
C516 H532 0.931 . S
C517 C516 1.370 . S
C517 C521 1.408 . S
C518 C516 1.363 . S
C518 C519 1.370 . S
C518 C522 1.524 . S
C519 C511 1.503 . S
C519 C518 1.370 . S
C519 C520 1.403 . S
C520 C519 1.403 . S
C520 C521 1.404 . S
C520 C523 1.539 . S
C521 C517 1.408 . S
C521 C520 1.404 . S
C521 H533 0.930 . S
C522 C518 1.524 . S
C522 H534 0.956 . S
C522 H535 0.961 . S
C522 H536 0.961 . S
C523 C520 1.539 . S
C523 H537 0.958 . S
C523 H538 0.961 . S
C523 H539 0.960 . S
H524 C508 0.931 . S
H525 C513 0.929 . S
H526 C514 0.960 . S
H527 C514 0.962 . S
H528 C514 0.960 . S
H529 C515 0.961 . S
H530 C515 0.961 . S
H531 C515 0.961 . S
H532 C516 0.931 . S
H533 C521 0.930 . S
H534 C522 0.956 . S
H535 C522 0.961 . S
H536 C522 0.961 . S
H537 C523 0.958 . S
H538 C523 0.961 . S
H539 C523 0.960 . S
C540 C541 1.391 . S
C540 C542 1.394 . S
C540 H556 0.931 . S
C541 C540 1.391 . S
C541 C545 1.376 . S
C542 C540 1.394 . S
C542 C543 1.369 . S
C542 C546 1.531 1_556 S
C543 C542 1.369 . S
C543 C544 1.410 . S
C543 C551 1.503 1_566 S
C544 C543 1.410 . S
C544 C545 1.392 . S
C544 C547 1.511 . S
C545 C541 1.376 . S
C545 C544 1.392 . S
C545 H557 0.929 . S
C546 C542 1.531 1_554 S
C546 H558 0.960 . S
C546 H559 0.944 1_554 S
C546 H560 0.960 . S
C547 C544 1.511 . S
C547 H561 0.961 . S
C547 H562 0.961 1_565 S
C547 H563 0.961 1_556 S
C548 C549 1.370 . S
C548 C550 1.363 1_554 S
C548 H564 0.931 . S
C549 C548 1.370 . S
C549 C553 1.408 . S
C550 C548 1.363 1_556 S
C550 C551 1.370 1_556 S
C550 C554 1.524 . S
C551 C543 1.503 1_544 S
C551 C550 1.370 1_554 S
C551 C552 1.403 . S
C552 C551 1.403 . S
C552 C553 1.404 . S
C552 C555 1.539 1_545 S
C553 C549 1.408 . S
C553 C552 1.404 . S
C553 H565 0.930 . S
C554 C550 1.524 . S
C554 H566 0.956 . S
C554 H567 0.961 . S
C554 H568 0.961 . S
C555 C552 1.539 1_565 S
C555 H569 0.958 . S
C555 H570 0.961 . S
C555 H571 0.960 . S
H556 C540 0.931 . S
H557 C545 0.929 . S
H558 C546 0.960 . S
H559 C546 0.944 1_556 S
H560 C546 0.960 . S
H561 C547 0.961 . S
H562 C547 0.961 1_545 S
H563 C547 0.961 1_554 S
H564 C548 0.931 . S
H565 C553 0.930 . S
H566 C554 0.956 . S
H567 C554 0.961 . S
H568 C554 0.961 . S
H569 C555 0.958 . S
H570 C555 0.961 . S
H571 C555 0.960 . S
C572 C573 1.391 . S
C572 C574 1.394 . S
C572 H588 0.931 . S
C573 C572 1.391 . S
C573 C577 1.376 . S
C574 C572 1.394 . S
C574 C575 1.369 . S
C574 C578 1.531 . S
C575 C574 1.369 . S
C575 C576 1.410 . S
C575 C583 1.503 . S
C576 C575 1.410 . S
C576 C577 1.392 . S
C576 C579 1.511 . S
C577 C573 1.376 . S
C577 C576 1.392 . S
C577 H589 0.929 . S
C578 C574 1.531 . S
C578 H590 0.960 . S
C578 H591 0.962 . S
C578 H592 0.960 . S
C579 C576 1.511 . S
C579 H593 0.961 . S
C579 H594 0.961 . S
C579 H595 0.961 . S
C580 C581 1.370 . S
C580 C582 1.363 . S
C580 H596 0.931 . S
C581 C580 1.370 . S
C581 C585 1.408 . S
C582 C580 1.363 . S
C582 C583 1.370 . S
C582 C586 1.524 . S
C583 C575 1.503 . S
C583 C582 1.370 . S
C583 C584 1.403 . S
C584 C583 1.403 . S
C584 C585 1.404 . S
C584 C587 1.539 . S
C585 C581 1.408 . S
C585 C584 1.404 . S
C585 H597 0.930 . S
C586 C582 1.524 . S
C586 H598 0.956 . S
C586 H599 0.961 . S
C586 H600 0.961 . S
C587 C584 1.539 . S
C587 H601 0.958 . S
C587 H602 0.961 . S
C587 H603 0.960 . S
H588 C572 0.931 . S
H589 C577 0.929 . S
H590 C578 0.960 . S
H591 C578 0.962 . S
H592 C578 0.960 . S
H593 C579 0.961 . S
H594 C579 0.961 . S
H595 C579 0.961 . S
H596 C580 0.931 . S
H597 C585 0.930 . S
H598 C586 0.956 . S
H599 C586 0.961 . S
H600 C586 0.961 . S
H601 C587 0.958 . S
H602 C587 0.961 . S
H603 C587 0.960 . S
C604 C605 1.391 . S
C604 C606 1.394 . S
C604 H620 0.931 . S
C605 C604 1.391 . S
C605 C609 1.376 . S
C606 C604 1.394 . S
C606 C607 1.369 . S
C606 C610 1.531 . S
C607 C606 1.369 . S
C607 C608 1.410 . S
C607 C615 1.503 1_655 S
C608 C607 1.410 . S
C608 C609 1.392 . S
C608 C611 1.511 . S
C609 C605 1.376 . S
C609 C608 1.392 . S
C609 H621 0.929 . S
C610 C606 1.531 . S
C610 H622 0.960 1_655 S
C610 H623 0.962 1_655 S
C610 H624 0.960 . S
C611 C608 1.511 . S
C611 H625 0.961 . S
C611 H626 0.961 . S
C611 H627 0.961 . S
C612 C613 1.370 . S
C612 C614 1.363 . S
C612 H628 0.931 . S
C613 C612 1.370 . S
C613 C617 1.408 . S
C614 C612 1.363 . S
C614 C615 1.370 . S
C614 C618 1.524 . S
C615 C607 1.503 1_455 S
C615 C614 1.370 . S
C615 C616 1.403 . S
C616 C615 1.403 . S
C616 C617 1.404 . S
C616 C619 1.539 1_455 S
C617 C613 1.408 . S
C617 C616 1.404 . S
C617 H629 0.930 . S
C618 C614 1.524 . S
C618 H630 0.956 . S
C618 H631 0.961 . S
C618 H632 0.961 . S
C619 C616 1.539 1_655 S
C619 H633 0.958 . S
C619 H634 0.961 . S
C619 H635 0.960 . S
H620 C604 0.931 . S
H621 C609 0.929 . S
H622 C610 0.960 1_455 S
H623 C610 0.962 1_455 S
H624 C610 0.960 . S
H625 C611 0.961 . S
H626 C611 0.961 . S
H627 C611 0.961 . S
H628 C612 0.931 . S
H629 C617 0.930 . S
H630 C618 0.956 . S
H631 C618 0.961 . S
H632 C618 0.961 . S
H633 C619 0.958 . S
H634 C619 0.961 . S
H635 C619 0.960 . S
C636 C637 1.391 . S
C636 C638 1.394 1_554 S
C636 H652 0.931 . S
C637 C636 1.391 . S
C637 C641 1.376 . S
C638 C636 1.394 1_556 S
C638 C639 1.369 1_556 S
C638 C642 1.531 . S
C639 C638 1.369 1_554 S
C639 C640 1.410 . S
C639 C647 1.503 1_564 S
C640 C639 1.410 . S
C640 C641 1.392 . S
C640 C643 1.511 1_565 S
C641 C637 1.376 . S
C641 C640 1.392 . S
C641 H653 0.929 . S
C642 C638 1.531 . S
C642 H654 0.960 . S
C642 H655 0.962 . S
C642 H656 0.960 . S
C643 C640 1.511 1_545 S
C643 H657 0.961 . S
C643 H658 0.961 . S
C643 H659 0.961 . S
C644 C645 1.370 . S
C644 C646 1.363 . S
C644 H660 0.931 . S
C645 C644 1.370 . S
C645 C649 1.408 . S
C646 C644 1.363 . S
C646 C647 1.370 . S
C646 C650 1.524 1_556 S
C647 C639 1.503 1_546 S
C647 C646 1.370 . S
C647 C648 1.403 . S
C648 C647 1.403 . S
C648 C649 1.404 . S
C648 C651 1.539 1_545 S
C649 C645 1.408 . S
C649 C648 1.404 . S
C649 H661 0.930 . S
C650 C646 1.524 1_554 S
C650 H662 0.956 . S
C650 H663 0.961 . S
C650 H664 0.961 . S
C651 C648 1.539 1_565 S
C651 H665 0.958 . S
C651 H666 0.961 1_565 S
C651 H667 0.960 . S
H652 C636 0.931 . S
H653 C641 0.929 . S
H654 C642 0.960 . S
H655 C642 0.962 . S
H656 C642 0.960 . S
H657 C643 0.961 . S
H658 C643 0.961 . S
H659 C643 0.961 . S
H660 C644 0.931 . S
H661 C649 0.930 . S
H662 C650 0.956 . S
H663 C650 0.961 . S
H664 C650 0.961 . S
H665 C651 0.958 . S
H666 C651 0.961 1_545 S
H667 C651 0.960 . S
C668 C669 1.391 . S
C668 C670 1.394 . S
C668 H684 0.931 . S
C669 C668 1.391 . S
C669 C673 1.376 . S
C670 C668 1.394 . S
C670 C671 1.369 . S
C670 C674 1.531 . S
C671 C670 1.369 . S
C671 C672 1.410 . S
C671 C679 1.503 . S
C672 C671 1.410 . S
C672 C673 1.392 . S
C672 C675 1.511 . S
C673 C669 1.376 . S
C673 C672 1.392 . S
C673 H685 0.929 . S
C674 C670 1.531 . S
C674 H686 0.960 . S
C674 H687 0.962 . S
C674 H688 0.960 . S
C675 C672 1.511 . S
C675 H689 0.961 . S
C675 H690 0.961 . S
C675 H691 0.961 . S
C676 C677 1.370 . S
C676 C678 1.363 . S
C676 H692 0.931 . S
C677 C676 1.370 . S
C677 C681 1.408 . S
C678 C676 1.363 . S
C678 C679 1.370 . S
C678 C682 1.524 . S
C679 C671 1.503 . S
C679 C678 1.370 . S
C679 C680 1.403 . S
C680 C679 1.403 . S
C680 C681 1.404 . S
C680 C683 1.539 . S
C681 C677 1.408 . S
C681 C680 1.404 . S
C681 H693 0.930 . S
C682 C678 1.524 . S
C682 H694 0.956 . S
C682 H695 0.961 . S
C682 H696 0.961 . S
C683 C680 1.539 . S
C683 H697 0.958 . S
C683 H698 0.961 . S
C683 H699 0.960 . S
H684 C668 0.931 . S
H685 C673 0.929 . S
H686 C674 0.960 . S
H687 C674 0.962 . S
H688 C674 0.960 . S
H689 C675 0.961 . S
H690 C675 0.961 . S
H691 C675 0.961 . S
H692 C676 0.931 . S
H693 C681 0.930 . S
H694 C682 0.956 . S
H695 C682 0.961 . S
H696 C682 0.961 . S
H697 C683 0.958 . S
H698 C683 0.961 . S
H699 C683 0.960 . S
C700 C701 1.391 . S
C700 C702 1.394 . S
C700 H716 0.931 . S
C701 C700 1.391 . S
C701 C705 1.376 . S
C702 C700 1.394 . S
C702 C703 1.369 . S
C702 C706 1.531 . S
C703 C702 1.369 . S
C703 C704 1.410 . S
C703 C711 1.503 1_455 S
C704 C703 1.410 . S
C704 C705 1.392 . S
C704 C707 1.511 1_455 S
C705 C701 1.376 . S
C705 C704 1.392 . S
C705 H717 0.929 . S
C706 C702 1.531 . S
C706 H718 0.960 . S
C706 H719 0.962 . S
C706 H720 0.960 . S
C707 C704 1.511 1_655 S
C707 H721 0.961 1_655 S
C707 H722 0.961 . S
C707 H723 0.961 . S
C708 C709 1.370 . S
C708 C710 1.363 . S
C708 H724 0.931 . S
C709 C708 1.370 . S
C709 C713 1.408 . S
C710 C708 1.363 . S
C710 C711 1.370 . S
C710 C714 1.524 1_655 S
C711 C703 1.503 1_655 S
C711 C710 1.370 . S
C711 C712 1.403 . S
C712 C711 1.403 . S
C712 C713 1.404 . S
C712 C715 1.539 . S
C713 C709 1.408 . S
C713 C712 1.404 . S
C713 H725 0.930 . S
C714 C710 1.524 1_455 S
C714 H726 0.956 . S
C714 H727 0.961 . S
C714 H728 0.961 . S
C715 C712 1.539 . S
C715 H729 0.958 . S
C715 H730 0.961 . S
C715 H731 0.960 . S
H716 C700 0.931 . S
H717 C705 0.929 . S
H718 C706 0.960 . S
H719 C706 0.962 . S
H720 C706 0.960 . S
H721 C707 0.961 1_455 S
H722 C707 0.961 . S
H723 C707 0.961 . S
H724 C708 0.931 . S
H725 C713 0.930 . S
H726 C714 0.956 . S
H727 C714 0.961 . S
H728 C714 0.961 . S
H729 C715 0.958 . S
H730 C715 0.961 . S
H731 C715 0.960 . S
C732 C733 1.391 . S
C732 C734 1.394 . S
C732 H748 0.931 1_455 S
C733 C732 1.391 . S
C733 C737 1.376 . S
C734 C732 1.394 . S
C734 C735 1.369 . S
C734 C738 1.531 1_556 S
C735 C734 1.369 . S
C735 C736 1.410 . S
C735 C743 1.503 1_556 S
C736 C735 1.410 . S
C736 C737 1.392 . S
C736 C739 1.511 . S
C737 C733 1.376 . S
C737 C736 1.392 . S
C737 H749 0.929 . S
C738 C734 1.531 1_554 S
C738 H750 0.960 . S
C738 H751 0.962 . S
C738 H752 0.960 . S
C739 C736 1.511 . S
C739 H753 0.961 . S
C739 H754 0.961 . S
C739 H755 0.961 . S
C740 C741 1.370 . S
C740 C742 1.363 . S
C740 H756 0.931 . S
C741 C740 1.370 . S
C741 C745 1.408 . S
C742 C740 1.363 . S
C742 C743 1.370 . S
C742 C746 1.524 . S
C743 C735 1.503 1_554 S
C743 C742 1.370 . S
C743 C744 1.403 1_554 S
C744 C743 1.403 1_556 S
C744 C745 1.404 1_556 S
C744 C747 1.539 . S
C745 C741 1.408 . S
C745 C744 1.404 1_554 S
C745 H757 0.930 . S
C746 C742 1.524 . S
C746 H758 0.956 . S
C746 H759 0.961 . S
C746 H760 0.961 . S
C747 C744 1.539 . S
C747 H761 0.958 . S
C747 H762 0.961 . S
C747 H763 0.960 . S
H748 C732 0.931 1_655 S
H749 C737 0.929 . S
H750 C738 0.960 . S
H751 C738 0.962 . S
H752 C738 0.960 . S
H753 C739 0.961 . S
H754 C739 0.961 . S
H755 C739 0.961 . S
H756 C740 0.931 . S
H757 C745 0.930 . S
H758 C746 0.956 . S
H759 C746 0.961 . S
H760 C746 0.961 . S
H761 C747 0.958 . S
H762 C747 0.961 . S
H763 C747 0.960 . S
C764 C765 1.391 . S
C764 C766 1.394 . S
C764 H780 0.931 . S
C765 C764 1.391 . S
C765 C769 1.376 . S
C766 C764 1.394 . S
C766 C767 1.369 . S
C766 C770 1.531 . S
C767 C766 1.369 . S
C767 C768 1.410 . S
C767 C775 1.503 . S
C768 C767 1.410 . S
C768 C769 1.392 . S
C768 C771 1.511 . S
C769 C765 1.376 . S
C769 C768 1.392 . S
C769 H781 0.929 . S
C770 C766 1.531 . S
C770 H782 0.960 . S
C770 H783 0.962 . S
C770 H784 0.960 . S
C771 C768 1.511 . S
C771 H785 0.961 . S
C771 H786 0.961 . S
C771 H787 0.961 . S
C772 C773 1.370 . S
C772 C774 1.363 . S
C772 H788 0.931 . S
C773 C772 1.370 . S
C773 C777 1.408 . S
C774 C772 1.363 . S
C774 C775 1.370 . S
C774 C778 1.524 . S
C775 C767 1.503 . S
C775 C774 1.370 . S
C775 C776 1.403 . S
C776 C775 1.403 . S
C776 C777 1.404 . S
C776 C779 1.539 . S
C777 C773 1.408 . S
C777 C776 1.404 . S
C777 H789 0.930 . S
C778 C774 1.524 . S
C778 H790 0.956 . S
C778 H791 0.961 . S
C778 H792 0.961 . S
C779 C776 1.539 . S
C779 H793 0.958 . S
C779 H794 0.961 . S
C779 H795 0.960 . S
H780 C764 0.931 . S
H781 C769 0.929 . S
H782 C770 0.960 . S
H783 C770 0.962 . S
H784 C770 0.960 . S
H785 C771 0.961 . S
H786 C771 0.961 . S
H787 C771 0.961 . S
H788 C772 0.931 . S
H789 C777 0.930 . S
H790 C778 0.956 . S
H791 C778 0.961 . S
H792 C778 0.961 . S
H793 C779 0.958 . S
H794 C779 0.961 . S
H795 C779 0.960 . S
C796 C797 1.391 . S
C796 C798 1.394 . S
C796 H812 0.931 . S
C797 C796 1.391 . S
C797 C801 1.376 . S
C798 C796 1.394 . S
C798 C799 1.369 . S
C798 C802 1.531 . S
C799 C798 1.369 . S
C799 C800 1.410 . S
C799 C807 1.503 . S
C800 C799 1.410 . S
C800 C801 1.392 . S
C800 C803 1.511 . S
C801 C797 1.376 . S
C801 C800 1.392 . S
C801 H813 0.929 . S
C802 C798 1.531 . S
C802 H814 0.960 . S
C802 H815 0.962 . S
C802 H816 0.960 . S
C803 C800 1.511 . S
C803 H817 0.961 . S
C803 H818 0.961 . S
C803 H819 0.961 . S
C804 C805 1.370 . S
C804 C806 1.363 . S
C804 H820 0.931 . S
C805 C804 1.370 . S
C805 C809 1.408 . S
C806 C804 1.363 . S
C806 C807 1.370 . S
C806 C810 1.524 . S
C807 C799 1.503 . S
C807 C806 1.370 . S
C807 C808 1.403 . S
C808 C807 1.403 . S
C808 C809 1.404 . S
C808 C811 1.539 . S
C809 C805 1.408 . S
C809 C808 1.404 . S
C809 H821 0.930 1_565 S
C810 C806 1.524 . S
C810 H822 0.956 . S
C810 H823 0.961 . S
C810 H824 0.961 . S
C811 C808 1.539 . S
C811 H825 0.958 . S
C811 H826 0.961 . S
C811 H827 0.960 . S
H812 C796 0.931 . S
H813 C801 0.929 . S
H814 C802 0.960 . S
H815 C802 0.962 . S
H816 C802 0.960 . S
H817 C803 0.961 . S
H818 C803 0.961 . S
H819 C803 0.961 . S
H820 C804 0.931 . S
H821 C809 0.930 1_545 S
H822 C810 0.956 . S
H823 C810 0.961 . S
H824 C810 0.961 . S
H825 C811 0.958 . S
H826 C811 0.961 . S
H827 C811 0.960 . S
C828 C829 1.391 . S
C828 C830 1.394 . S
C828 H844 0.931 . S
C829 C828 1.391 . S
C829 C833 1.376 . S
C830 C828 1.394 . S
C830 C831 1.369 . S
C830 C834 1.531 . S
C831 C830 1.369 . S
C831 C832 1.410 . S
C831 C839 1.503 1_554 S
C832 C831 1.410 . S
C832 C833 1.392 . S
C832 C835 1.511 . S
C833 C829 1.376 . S
C833 C832 1.392 . S
C833 H845 0.929 . S
C834 C830 1.531 . S
C834 H846 0.960 . S
C834 H847 0.962 . S
C834 H848 0.960 . S
C835 C832 1.511 . S
C835 H849 0.961 . S
C835 H850 0.961 1_554 S
C835 H851 0.961 . S
C836 C837 1.370 . S
C836 C838 1.363 . S
C836 H852 0.931 . S
C837 C836 1.370 . S
C837 C841 1.408 . S
C838 C836 1.363 . S
C838 C839 1.370 . S
C838 C842 1.524 . S
C839 C831 1.503 1_556 S
C839 C838 1.370 . S
C839 C840 1.403 1_556 S
C840 C839 1.403 1_554 S
C840 C841 1.404 1_554 S
C840 C843 1.539 . S
C841 C837 1.408 . S
C841 C840 1.404 1_556 S
C841 H853 0.928 1_655 S
C842 C838 1.524 . S
C842 H854 0.956 . S
C842 H855 0.961 . S
C842 H856 0.961 . S
C843 C840 1.539 . S
C843 H857 0.958 . S
C843 H858 0.961 . S
C843 H859 0.960 . S
H844 C828 0.931 . S
H845 C833 0.929 . S
H846 C834 0.960 . S
H847 C834 0.962 . S
H848 C834 0.960 . S
H849 C835 0.961 . S
H850 C835 0.961 1_556 S
H851 C835 0.961 . S
H852 C836 0.931 . S
H853 C841 0.928 1_455 S
H854 C842 0.956 . S
H855 C842 0.961 . S
H856 C842 0.961 . S
H857 C843 0.958 . S
H858 C843 0.961 . S
H859 C843 0.960 . S
C860 C861 1.391 . S
C860 C862 1.394 . S
C860 H876 0.931 . S
C861 C860 1.391 . S
C861 C865 1.376 . S
C862 C860 1.394 . S
C862 C863 1.369 . S
C862 C866 1.531 . S
C863 C862 1.369 . S
C863 C864 1.410 . S
C863 C871 1.503 . S
C864 C863 1.410 . S
C864 C865 1.392 . S
C864 C867 1.511 . S
C865 C861 1.376 . S
C865 C864 1.392 . S
C865 H877 0.929 1_455 S
C866 C862 1.531 . S
C866 H878 0.960 . S
C866 H879 0.962 . S
C866 H880 0.960 . S
C867 C864 1.511 . S
C867 H881 0.961 . S
C867 H882 0.961 . S
C867 H883 0.961 . S
C868 C869 1.370 . S
C868 C870 1.363 . S
C868 H884 0.931 1_565 S
C869 C868 1.370 . S
C869 C873 1.408 . S
C870 C868 1.363 . S
C870 C871 1.370 . S
C870 C874 1.524 . S
C871 C863 1.503 . S
C871 C870 1.370 . S
C871 C872 1.403 . S
C872 C871 1.403 . S
C872 C873 1.404 . S
C872 C875 1.539 . S
C873 C869 1.408 . S
C873 C872 1.404 . S
C873 H885 0.930 . S
C874 C870 1.524 . S
C874 H886 0.956 . S
C874 H887 0.961 . S
C874 H888 0.961 . S
C875 C872 1.539 . S
C875 H889 0.958 . S
C875 H890 0.961 . S
C875 H891 0.960 . S
H876 C860 0.931 . S
H877 C865 0.929 1_655 S
H878 C866 0.960 . S
H879 C866 0.962 . S
H880 C866 0.960 . S
H881 C867 0.961 . S
H882 C867 0.961 . S
H883 C867 0.961 . S
H884 C868 0.931 1_545 S
H885 C873 0.930 . S
H886 C874 0.956 . S
H887 C874 0.961 . S
H888 C874 0.961 . S
H889 C875 0.958 . S
H890 C875 0.961 . S
H891 C875 0.960 . S
C892 C893 1.391 . S
C892 C894 1.394 . S
C892 H908 0.931 1_545 S
C893 C892 1.391 . S
C893 C897 1.376 . S
C894 C892 1.394 . S
C894 C895 1.369 . S
C894 C898 1.531 . S
C895 C894 1.369 . S
C895 C896 1.410 . S
C895 C903 1.503 . S
C896 C895 1.410 . S
C896 C897 1.392 . S
C896 C899 1.511 . S
C897 C893 1.376 . S
C897 C896 1.392 . S
C897 H909 0.929 . S
C898 C894 1.531 . S
C898 H910 0.960 . S
C898 H911 0.962 . S
C898 H912 0.960 . S
C899 C896 1.511 . S
C899 H913 0.961 . S
C899 H914 0.961 . S
C899 H915 0.961 . S
C900 C901 1.370 . S
C900 C902 1.363 . S
C900 H916 0.931 . S
C901 C900 1.370 . S
C901 C905 1.408 . S
C902 C900 1.363 . S
C902 C903 1.370 . S
C902 C906 1.524 . S
C903 C895 1.503 . S
C903 C902 1.370 . S
C903 C904 1.403 . S
C904 C903 1.403 . S
C904 C905 1.404 . S
C904 C907 1.539 . S
C905 C901 1.408 . S
C905 C904 1.404 . S
C905 H917 0.930 . S
C906 C902 1.524 . S
C906 H918 0.956 . S
C906 H919 0.961 . S
C906 H920 0.961 . S
C907 C904 1.539 . S
C907 H921 0.958 . S
C907 H922 0.961 . S
C907 H923 0.960 . S
H908 C892 0.931 1_565 S
H909 C897 0.929 . S
H910 C898 0.960 . S
H911 C898 0.962 . S
H912 C898 0.960 . S
H913 C899 0.961 . S
H914 C899 0.961 . S
H915 C899 0.961 . S
H916 C900 0.931 . S
H917 C905 0.930 . S
H918 C906 0.956 . S
H919 C906 0.961 . S
H920 C906 0.961 . S
H921 C907 0.958 . S
H922 C907 0.961 . S
H923 C907 0.960 . S
C157 C43 1.543 . S
C165 C10 1.561 . S
C189 C17 1.548 . S
C197 C56 1.559 . S
C221 C75 1.539 . S
C229 C36 1.562 . S
C253 C82 1.567 . S
C261 C121 1.550 . S
C285 C134 1.554 . S
C293 C101 1.556 . S
C317 C114 1.555 . S
C325 C147 1.556 . S
C349 C108 1.647 . S
C357 C4 1.655 . S
C381 C23 1.648 . S
C389 C127 1.655 . S
C413 C30 1.658 . S
C421 C140 1.659 . S
C445 C49 1.653 . S
C453 C153 1.658 . S
C477 C88 1.658 . S
C485 C62 1.659 . S
C509 C95 1.653 . S
C517 C69 1.657 . S
C541 C94 1.275 . S
C549 C3 1.276 . S
C573 C18 1.255 . S
C581 C107 1.266 . S
C605 C29 1.261 . S
C613 C122 1.270 . S
C637 C44 1.284 . S
C645 C135 1.279 . S
C669 C148 1.284 . S
C677 C57 1.278 . S
C701 C68 1.277 . S
C709 C83 1.275 . S
C733 C133 1.403 1_455 S
C741 C5 1.405 . S
C765 C146 1.406 1_545 S
C773 C16 1.406 1_655 S
C797 C81 1.399 . S
C805 C31 1.405 1_565 S
C829 C42 1.406 . S
C837 C96 1.406 1_655 S
C861 C55 1.404 1_455 S
C869 C109 1.408 1_565 S
C893 C70 1.404 1_545 S
C901 C120 1.405 . S
