# Generated by pormake.
# Topology whr, (6)-cn, num edge types: 1
# Building blocks:
#     Node 0, Type 0, BuildingBlock: IZENUY_clean_sbu_0, # of connection points: 6
#     Node 1, Type 0, BuildingBlock: IZENUY_clean_sbu_0, # of connection points: 6
#     Node 2, Type 0, BuildingBlock: IZENUY_clean_sbu_0, # of connection points: 6
#     Node 3, Type 0, BuildingBlock: IZENUY_clean_sbu_0, # of connection points: 6
#     Node 4, Type 0, BuildingBlock: IZENUY_clean_sbu_0, # of connection points: 6
#     Node 5, Type 0, BuildingBlock: IZENUY_clean_sbu_0, # of connection points: 6
#     Node 6, Type 0, BuildingBlock: IZENUY_clean_sbu_0, # of connection points: 6
#     Node 7, Type 0, BuildingBlock: IZENUY_clean_sbu_0, # of connection points: 6
#     Node 8, Type 0, BuildingBlock: IZENUY_clean_sbu_0, # of connection points: 6
#     Node 9, Type 0, BuildingBlock: IZENUY_clean_sbu_0, # of connection points: 6
#     Node 10, Type 0, BuildingBlock: IZENUY_clean_sbu_0, # of connection points: 6
#     Node 11, Type 0, BuildingBlock: IZENUY_clean_sbu_0, # of connection points: 6
#     Node 12, Type 0, BuildingBlock: IZENUY_clean_sbu_0, # of connection points: 6
#     Node 13, Type 0, BuildingBlock: IZENUY_clean_sbu_0, # of connection points: 6
#     Node 14, Type 0, BuildingBlock: IZENUY_clean_sbu_0, # of connection points: 6
#     Node 15, Type 0, BuildingBlock: IZENUY_clean_sbu_0, # of connection points: 6
#     Edge 16, Type (0, 0), BuildingBlock: MIFKUJ_clean_linker_0, # of connection points: 2
#     Edge 17, Type (0, 0), BuildingBlock: MIFKUJ_clean_linker_0, # of connection points: 2
#     Edge 18, Type (0, 0), BuildingBlock: MIFKUJ_clean_linker_0, # of connection points: 2
#     Edge 19, Type (0, 0), BuildingBlock: MIFKUJ_clean_linker_0, # of connection points: 2
#     Edge 20, Type (0, 0), BuildingBlock: MIFKUJ_clean_linker_0, # of connection points: 2
#     Edge 21, Type (0, 0), BuildingBlock: MIFKUJ_clean_linker_0, # of connection points: 2
#     Edge 22, Type (0, 0), BuildingBlock: MIFKUJ_clean_linker_0, # of connection points: 2
#     Edge 23, Type (0, 0), BuildingBlock: MIFKUJ_clean_linker_0, # of connection points: 2
#     Edge 24, Type (0, 0), BuildingBlock: MIFKUJ_clean_linker_0, # of connection points: 2
#     Edge 25, Type (0, 0), BuildingBlock: MIFKUJ_clean_linker_0, # of connection points: 2
#     Edge 26, Type (0, 0), BuildingBlock: MIFKUJ_clean_linker_0, # of connection points: 2
#     Edge 27, Type (0, 0), BuildingBlock: MIFKUJ_clean_linker_0, # of connection points: 2
#     Edge 28, Type (0, 0), BuildingBlock: MIFKUJ_clean_linker_0, # of connection points: 2
#     Edge 29, Type (0, 0), BuildingBlock: MIFKUJ_clean_linker_0, # of connection points: 2
#     Edge 30, Type (0, 0), BuildingBlock: MIFKUJ_clean_linker_0, # of connection points: 2
#     Edge 31, Type (0, 0), BuildingBlock: MIFKUJ_clean_linker_0, # of connection points: 2
#     Edge 32, Type (0, 0), BuildingBlock: MIFKUJ_clean_linker_0, # of connection points: 2
#     Edge 33, Type (0, 0), BuildingBlock: MIFKUJ_clean_linker_0, # of connection points: 2
#     Edge 34, Type (0, 0), BuildingBlock: MIFKUJ_clean_linker_0, # of connection points: 2
#     Edge 35, Type (0, 0), BuildingBlock: MIFKUJ_clean_linker_0, # of connection points: 2
#     Edge 36, Type (0, 0), BuildingBlock: MIFKUJ_clean_linker_0, # of connection points: 2
#     Edge 37, Type (0, 0), BuildingBlock: MIFKUJ_clean_linker_0, # of connection points: 2
#     Edge 38, Type (0, 0), BuildingBlock: MIFKUJ_clean_linker_0, # of connection points: 2
#     Edge 39, Type (0, 0), BuildingBlock: MIFKUJ_clean_linker_0, # of connection points: 2
#     Edge 40, Type (0, 0), BuildingBlock: MIFKUJ_clean_linker_0, # of connection points: 2
#     Edge 41, Type (0, 0), BuildingBlock: MIFKUJ_clean_linker_0, # of connection points: 2
#     Edge 42, Type (0, 0), BuildingBlock: MIFKUJ_clean_linker_0, # of connection points: 2
#     Edge 43, Type (0, 0), BuildingBlock: MIFKUJ_clean_linker_0, # of connection points: 2
#     Edge 44, Type (0, 0), BuildingBlock: MIFKUJ_clean_linker_0, # of connection points: 2
#     Edge 45, Type (0, 0), BuildingBlock: MIFKUJ_clean_linker_0, # of connection points: 2
#     Edge 46, Type (0, 0), BuildingBlock: MIFKUJ_clean_linker_0, # of connection points: 2
#     Edge 47, Type (0, 0), BuildingBlock: MIFKUJ_clean_linker_0, # of connection points: 2
#     Edge 48, Type (0, 0), BuildingBlock: MIFKUJ_clean_linker_0, # of connection points: 2
#     Edge 49, Type (0, 0), BuildingBlock: MIFKUJ_clean_linker_0, # of connection points: 2
#     Edge 50, Type (0, 0), BuildingBlock: MIFKUJ_clean_linker_0, # of connection points: 2
#     Edge 51, Type (0, 0), BuildingBlock: MIFKUJ_clean_linker_0, # of connection points: 2
#     Edge 52, Type (0, 0), BuildingBlock: MIFKUJ_clean_linker_0, # of connection points: 2
#     Edge 53, Type (0, 0), BuildingBlock: MIFKUJ_clean_linker_0, # of connection points: 2
#     Edge 54, Type (0, 0), BuildingBlock: MIFKUJ_clean_linker_0, # of connection points: 2
#     Edge 55, Type (0, 0), BuildingBlock: MIFKUJ_clean_linker_0, # of connection points: 2
#     Edge 56, Type (0, 0), BuildingBlock: MIFKUJ_clean_linker_0, # of connection points: 2
#     Edge 57, Type (0, 0), BuildingBlock: MIFKUJ_clean_linker_0, # of connection points: 2
#     Edge 58, Type (0, 0), BuildingBlock: MIFKUJ_clean_linker_0, # of connection points: 2
#     Edge 59, Type (0, 0), BuildingBlock: MIFKUJ_clean_linker_0, # of connection points: 2
#     Edge 60, Type (0, 0), BuildingBlock: MIFKUJ_clean_linker_0, # of connection points: 2
#     Edge 61, Type (0, 0), BuildingBlock: MIFKUJ_clean_linker_0, # of connection points: 2
#     Edge 62, Type (0, 0), BuildingBlock: MIFKUJ_clean_linker_0, # of connection points: 2
#     Edge 63, Type (0, 0), BuildingBlock: MIFKUJ_clean_linker_0, # of connection points: 2
# Relax obj value: 0.339
# Max RMSD: 0.260
# Mean RMSD: 0.260
data_MOF--net-whr--node1-IZENUY_clean_sbu_0--edge1-MIFKUJ_clean_linker_0
_symmetry_space_group_name_H-M    P1
_symmetry_Int_Tables_number       1
_symmetry_cell_setting            triclinic
loop_
_symmetry_equiv_pos_as_xyz
'x, y, z'
_cell_length_a     61.639774
_cell_length_b     61.635859
_cell_length_c     36.273756
_cell_angle_alpha  89.993787
_cell_angle_beta   89.999661
_cell_angle_gamma 90.001889
loop_
_atom_site_label
_atom_site_type_symbol
_atom_site_fract_x
_atom_site_fract_y
_atom_site_fract_z
_atom_type_partial_charge
Fe0 Fe 0.19515 0.05972 0.07693 0.0
Fe1 Fe 0.24034 0.04679 0.04683 0.0
O2 O 0.21874 0.06588 0.05102 0.0
Fe3 Fe 0.22067 0.09146 0.02862 0.0
O4 O 0.1916 0.09551 0.02231 0.0
O5 O 0.17709 0.0646 0.03807 0.0
O6 O 0.19452 0.03112 0.06431 0.0
C7 C 0.20435 0.02008 0.04017 0.0
C8 C 0.20542 0.10289 0.09682 0.0
O9 O 0.22251 0.02603 0.0275 0.0
C10 C 0.26372 0.08452 0.05195 0.0
O11 O 0.21067 0.05423 0.11807 0.0
O12 O 0.23731 0.03544 0.09342 0.0
O13 O 0.21997 0.10583 0.07266 0.0
O14 O 0.19203 0.08736 0.0943 0.0
C15 C 0.23509 0.06375 0.97498 0.0
O16 O 0.26032 0.06594 0.06559 0.0
O17 O 0.25011 0.09295 0.03033 0.0
C18 C 0.22625 0.04115 0.12118 0.0
O19 O 0.24674 0.05462 0.99929 0.0
O20 O 0.22137 0.07816 0.98377 0.0
C21 C 0.1759 0.08245 0.02135 0.0
Fe22 Fe 0.04391 0.7624 0.9496 0.0
Fe23 Fe 0.0906 0.77975 0.9605 0.0
O24 O 0.0642 0.78229 0.9416 0.0
Fe25 Fe 0.05784 0.80501 0.91375 0.0
O26 O 0.03795 0.81413 0.94698 0.0
O27 O 0.02146 0.78245 0.95031 0.0
O28 O 0.04545 0.76601 0.9987 0.0
C29 C 0.06232 0.76571 0.01828 0.0
C30 C 0.03484 0.77165 0.87804 0.0
O31 O 0.08115 0.76808 0.00462 0.0
C32 C 0.09737 0.7937 0.88629 0.0
O33 O 0.06271 0.73914 0.95202 0.0
O34 O 0.09461 0.7533 0.94005 0.0
O35 O 0.03693 0.7914 0.88638 0.0
O36 O 0.04084 0.75711 0.90027 0.0
C37 C 0.08697 0.82362 0.96549 0.0
O38 O 0.10415 0.791 0.91915 0.0
O39 O 0.07746 0.79663 0.87959 0.0
C40 C 0.08262 0.73696 0.94417 0.0
O41 O 0.08933 0.80612 0.98288 0.0
O42 O 0.07747 0.82361 0.93469 0.0
C43 C 0.02176 0.80282 0.95641 0.0
Fe44 Fe 0.78113 0.91317 0.03799 0.0
Fe45 Fe 0.80194 0.94268 0.09594 0.0
O46 O 0.78192 0.93826 0.06191 0.0
Fe47 Fe 0.76288 0.95904 0.05189 0.0
O48 O 0.77193 0.96026 0.00481 0.0
O49 O 0.77199 0.92513 0.99369 0.0
O50 O 0.80873 0.91626 0.0213 0.0
C51 C 0.82492 0.91807 0.04227 0.0
C52 C 0.73768 0.92014 0.04677 0.0
O53 O 0.8226 0.92519 0.07475 0.0
C54 C 0.7649 0.96283 0.12661 0.0
O55 O 0.79014 0.89687 0.07813 0.0
O56 O 0.79154 0.92061 0.12334 0.0
O57 O 0.74038 0.94021 0.0402 0.0
O58 O 0.75369 0.90802 0.05296 0.0
C59 C 0.80266 0.98174 0.06087 0.0
O60 O 0.78525 0.96076 0.12403 0.0
O61 O 0.75277 0.9596 0.0991 0.0
C62 C 0.79024 0.90126 0.11238 0.0
O63 O 0.81332 0.96515 0.07033 0.0
O64 O 0.78204 0.98149 0.06076 0.0
C65 C 0.77291 0.94465 0.98257 0.0
Fe66 Fe 0.94143 0.19708 0.90422 0.0
Fe67 Fe 0.95835 0.23849 0.94042 0.0
O68 O 0.93726 0.2192 0.93437 0.0
Fe69 Fe 0.91215 0.2216 0.95782 0.0
O70 O 0.91464 0.19487 0.97875 0.0
O71 O 0.92285 0.17836 0.92744 0.0
O72 O 0.96286 0.18683 0.93326 0.0
C73 C 0.97972 0.19752 0.94104 0.0
C74 C 0.90079 0.20945 0.88427 0.0
O75 O 0.98032 0.21801 0.93637 0.0
C76 C 0.91978 0.26444 0.94161 0.0
O77 O 0.96079 0.21102 0.87423 0.0
O78 O 0.9592 0.24496 0.89138 0.0
O79 O 0.89598 0.21114 0.91835 0.0
O80 O 0.92019 0.2066 0.87422 0.0
C81 C 0.9437 0.2345 0.01157 0.0
O82 O 0.94001 0.262 0.94678 0.0
O83 O 0.9074 0.24828 0.93912 0.0
C84 C 0.96322 0.23091 0.86707 0.0
O85 O 0.9593 0.23369 0.98923 0.0
O86 O 0.92415 0.2327 1.00076 0.0
C87 C 0.91603 0.17766 0.96021 0.0
Fe88 Fe 0.80876 0.05721 0.58237 0.0
Fe89 Fe 0.76477 0.04258 0.55258 0.0
O90 O 0.78555 0.06253 0.55527 0.0
Fe91 Fe 0.7832 0.08739 0.53092 0.0
O92 O 0.80864 0.08358 0.50655 0.0
O93 O 0.82763 0.07309 0.55434 0.0
O94 O 0.81563 0.03395 0.55437 0.0
C95 C 0.80345 0.01767 0.55091 0.0
C96 C 0.80108 0.09938 0.60081 0.0
O97 O 0.78333 0.01913 0.55795 0.0
C98 C 0.74092 0.08237 0.5513 0.0
O99 O 0.79427 0.04065 0.61638 0.0
O100 O 0.75976 0.04384 0.60196 0.0
O101 O 0.79632 0.10382 0.56752 0.0
O102 O 0.80335 0.08008 0.61156 0.0
C103 C 0.76825 0.05514 0.48042 0.0
O104 O 0.74222 0.0621 0.54568 0.0
O105 O 0.75782 0.09369 0.55317 0.0
C106 C 0.77444 0.04029 0.62551 0.0
O107 O 0.7688 0.03997 0.5037 0.0
O108 O 0.76966 0.07492 0.49033 0.0
C109 C 0.82668 0.0806 0.522 0.0
Fe110 Fe 0.05796 0.20016 0.40533 0.0
Fe111 Fe 0.04231 0.24136 0.4435 0.0
O112 O 0.06319 0.22223 0.43501 0.0
Fe113 Fe 0.08901 0.22508 0.45593 0.0
O114 O 0.08766 0.19848 0.47723 0.0
O115 O 0.07674 0.18126 0.42777 0.0
O116 O 0.03694 0.19009 0.43579 0.0
C117 C 0.02023 0.20095 0.44374 0.0
C118 C 0.09832 0.21214 0.3821 0.0
O119 O 0.01999 0.2214 0.43924 0.0
C120 C 0.08055 0.26769 0.44255 0.0
O121 O 0.03817 0.21469 0.37682 0.0
O122 O 0.0406 0.24864 0.39479 0.0
O123 O 0.10405 0.21445 0.41558 0.0
O124 O 0.07868 0.2092 0.37361 0.0
C125 C 0.0589 0.23564 0.51267 0.0
O126 O 0.06075 0.26475 0.45073 0.0
O127 O 0.0927 0.25174 0.43626 0.0
C128 C 0.03565 0.23473 0.37062 0.0
O129 O 0.04257 0.23496 0.49185 0.0
O130 O 0.07809 0.23617 0.49981 0.0
C131 C 0.08512 0.18109 0.45955 0.0
Fe132 Fe 0.19767 0.94827 0.57864 0.0
Fe133 Fe 0.2411 0.96125 0.54499 0.0
O134 O 0.22066 0.94136 0.55199 0.0
Fe135 Fe 0.22298 0.91495 0.53299 0.0
O136 O 0.19701 0.91666 0.50947 0.0
O137 O 0.17888 0.92952 0.55628 0.0
O138 O 0.18978 0.96863 0.54531 0.0
C139 C 0.20162 0.98468 0.53735 0.0
C140 C 0.20711 0.90824 0.60631 0.0
O141 O 0.22182 0.98436 0.54461 0.0
C142 C 0.26565 0.92207 0.5506 0.0
O143 O 0.21163 0.96837 0.60717 0.0
O144 O 0.24602 0.96372 0.59445 0.0
O145 O 0.21085 0.90145 0.57374 0.0
O146 O 0.2046 0.92822 0.61285 0.0
C147 C 0.23784 0.94337 0.47596 0.0
O148 O 0.26388 0.94195 0.54244 0.0
O149 O 0.24907 0.91042 0.55455 0.0
C150 C 0.23133 0.96984 0.61633 0.0
O151 O 0.23761 0.9601 0.49593 0.0
O152 O 0.23535 0.92445 0.48933 0.0
C153 C 0.17925 0.91998 0.52558 0.0
Fe154 Fe 0.94801 0.80465 0.41812 0.0
Fe155 Fe 0.96105 0.76004 0.44696 0.0
O156 O 0.94126 0.78089 0.44291 0.0
Fe157 Fe 0.91515 0.77824 0.46294 0.0
O158 O 0.91731 0.8035 0.48842 0.0
O159 O 0.92978 0.82296 0.4429 0.0
O160 O 0.96898 0.81125 0.4512 0.0
C161 C 0.98503 0.79897 0.45698 0.0
C162 C 0.9076 0.79591 0.39106 0.0
O163 O 0.98431 0.77906 0.44782 0.0
C164 C 0.92151 0.73602 0.44145 0.0
O165 O 0.96745 0.7914 0.38736 0.0
O166 O 0.96268 0.75669 0.39693 0.0
O167 O 0.90109 0.79142 0.42357 0.0
O168 O 0.92746 0.79895 0.38428 0.0
C169 C 0.94451 0.76162 0.51736 0.0
O170 O 0.94158 0.73732 0.44849 0.0
O171 O 0.91004 0.75284 0.43964 0.0
C172 C 0.96855 0.77204 0.37609 0.0
O173 O 0.96081 0.76199 0.49637 0.0
O174 O 0.92536 0.76471 0.50523 0.0
C175 C 0.92053 0.8217 0.47381 0.0
Fe176 Fe 0.74012 0.54389 0.55797 0.0
Fe177 Fe 0.72281 0.58944 0.53841 0.0
O178 O 0.72091 0.56499 0.56386 0.0
Fe179 Fe 0.69948 0.56142 0.59552 0.0
O180 O 0.68885 0.53897 0.56889 0.0
O181 O 0.72019 0.52186 0.56584 0.0
O182 O 0.7334 0.54152 0.50988 0.0
C183 C 0.73334 0.55652 0.48633 0.0
C184 C 0.73438 0.54049 0.63173 0.0
O185 O 0.73338 0.57634 0.496 0.0
C186 C 0.71134 0.60284 0.6112 0.0
O187 O 0.76325 0.56216 0.54776 0.0
O188 O 0.74973 0.5948 0.55576 0.0
O189 O 0.71433 0.54305 0.626 0.0
O190 O 0.74794 0.54454 0.60657 0.0
C191 C 0.6789 0.58517 0.53851 0.0
O192 O 0.71264 0.60654 0.57672 0.0
O193 O 0.70926 0.58372 0.62324 0.0
C194 C 0.76584 0.58242 0.55239 0.0
O195 O 0.69576 0.58622 0.51896 0.0
O196 O 0.68017 0.57908 0.57167 0.0
C197 C 0.69965 0.52199 0.56237 0.0
Fe198 Fe 0.54536 0.26409 0.45368 0.0
Fe199 Fe 0.59103 0.28162 0.47134 0.0
O200 O 0.56588 0.28396 0.44808 0.0
Fe201 Fe 0.56096 0.30637 0.41893 0.0
O202 O 0.53891 0.31539 0.44797 0.0
O203 O 0.52264 0.28363 0.44885 0.0
O204 O 0.54396 0.26939 0.50218 0.0
C205 C 0.55947 0.26914 0.52471 0.0
C206 C 0.54091 0.27184 0.38069 0.0
O207 O 0.57908 0.26964 0.51377 0.0
C208 C 0.60218 0.29584 0.39881 0.0
O209 O 0.56425 0.24106 0.46091 0.0
O210 O 0.59629 0.25539 0.45118 0.0
O211 O 0.54238 0.29182 0.38813 0.0
O212 O 0.54532 0.25772 0.40468 0.0
C213 C 0.58576 0.32537 0.47634 0.0
O214 O 0.60698 0.29325 0.43269 0.0
O215 O 0.58275 0.29832 0.38874 0.0
C216 C 0.5844 0.23894 0.45467 0.0
O217 O 0.58803 0.30779 0.49351 0.0
O218 O 0.57859 0.32543 0.44371 0.0
C219 C 0.52231 0.30402 0.45439 0.0
Fe220 Fe 0.26364 0.45894 0.55699 0.0
Fe221 Fe 0.28052 0.4128 0.54047 0.0
O222 O 0.28319 0.43808 0.56339 0.0
Fe223 Fe 0.30552 0.44274 0.59283 0.0
O224 O 0.31487 0.46493 0.56427 0.0
O225 O 0.28331 0.48146 0.56222 0.0
O226 O 0.26941 0.45992 0.50838 0.0
C227 C 0.26858 0.44415 0.48635 0.0
C228 C 0.27081 0.46281 0.63069 0.0
O229 O 0.26865 0.42468 0.49796 0.0
C230 C 0.29473 0.40149 0.61282 0.0
O231 O 0.24043 0.44025 0.54952 0.0
O232 O 0.25422 0.40813 0.56082 0.0
O233 O 0.29085 0.46097 0.62385 0.0
O234 O 0.25682 0.45953 0.60586 0.0
C235 C 0.3244 0.41757 0.53553 0.0
O236 O 0.29196 0.39673 0.57903 0.0
O237 O 0.29735 0.42089 0.62284 0.0
C238 C 0.23796 0.4202 0.55653 0.0
O239 O 0.30681 0.41519 0.51833 0.0
O240 O 0.32453 0.42518 0.56788 0.0
C241 C 0.30375 0.48164 0.55757 0.0
Fe242 Fe 0.45937 0.73977 0.44975 0.0
Fe243 Fe 0.41373 0.72177 0.46798 0.0
O244 O 0.43874 0.71987 0.4439 0.0
Fe245 Fe 0.44304 0.6979 0.41329 0.0
O246 O 0.46564 0.68829 0.44026 0.0
O247 O 0.4819 0.72009 0.44498 0.0
O248 O 0.46081 0.73489 0.49857 0.0
C249 C 0.44524 0.73542 0.52097 0.0
C250 C 0.46335 0.73265 0.37587 0.0
O251 O 0.42572 0.73355 0.51025 0.0
C252 C 0.40158 0.70882 0.39567 0.0
O253 O 0.44036 0.76272 0.45651 0.0
O254 O 0.40813 0.74814 0.4486 0.0
O255 O 0.46101 0.71264 0.38205 0.0
O256 O 0.45986 0.74642 0.40086 0.0
C257 C 0.41911 0.67806 0.47124 0.0
O258 O 0.39733 0.71033 0.42984 0.0
O259 O 0.4208 0.70662 0.38454 0.0
C260 C 0.42011 0.76462 0.45085 0.0
O261 O 0.41716 0.6954 0.48928 0.0
O262 O 0.42581 0.67849 0.43829 0.0
C263 C 0.48227 0.69948 0.44741 0.0
Fe264 Fe 0.30231 0.56073 0.10027 0.0
Fe265 Fe 0.26279 0.54309 0.05902 0.0
O266 O 0.28157 0.56437 0.06732 0.0
Fe267 Fe 0.27992 0.58919 0.04279 0.0
O268 O 0.30728 0.5864 0.02462 0.0
O269 O 0.3221 0.57856 0.07776 0.0
O270 O 0.31371 0.53854 0.07421 0.0
C271 C 0.3034 0.52158 0.06567 0.0
C272 C 0.28997 0.60192 0.11645 0.0
O273 O 0.28278 0.52117 0.06707 0.0
C274 C 0.23678 0.58151 0.05424 0.0
O275 O 0.28676 0.54233 0.1295 0.0
O276 O 0.25373 0.5426 0.10694 0.0
O277 O 0.28932 0.60599 0.08207 0.0
O278 O 0.29186 0.58269 0.12785 0.0
C279 C 0.2708 0.55711 0.98859 0.0
O280 O 0.23966 0.56137 0.04842 0.0
O281 O 0.2527 0.59397 0.0591 0.0
C282 C 0.26658 0.53972 0.13362 0.0
O283 O 0.27067 0.54168 0.01131 0.0
O284 O 0.27015 0.5767 0.99935 0.0
C285 C 0.32386 0.5849 0.04478 0.0
Fe286 Fe 0.5598 0.69654 0.91051 0.0
Fe287 Fe 0.54346 0.73658 0.95162 0.0
O288 O 0.56431 0.71754 0.94283 0.0
Fe289 Fe 0.58959 0.71913 0.9659 0.0
O290 O 0.58679 0.69184 0.98446 0.0
O291 O 0.57872 0.67706 0.93147 0.0
O292 O 0.53838 0.68519 0.93863 0.0
C293 C 0.52173 0.69582 0.94813 0.0
C294 C 0.60031 0.70945 0.89123 0.0
O295 O 0.5214 0.71645 0.94613 0.0
C296 C 0.58212 0.76238 0.95389 0.0
O297 O 0.54011 0.71155 0.88282 0.0
O298 O 0.54215 0.74488 0.90332 0.0
O299 O 0.60532 0.70962 0.92532 0.0
O300 O 0.58085 0.70725 0.8811 0.0
C301 C 0.55865 0.72914 0.02161 0.0
O302 O 0.562 0.75975 0.96008 0.0
O303 O 0.59443 0.74631 0.94934 0.0
C304 C 0.53722 0.73163 0.87817 0.0
O305 O 0.54291 0.72952 0.99959 0.0
O306 O 0.5781 0.7291 0.01004 0.0
C307 C 0.58545 0.67532 0.96422 0.0
Fe308 Fe 0.69885 0.4406 0.09307 0.0
Fe309 Fe 0.74092 0.45668 0.0571 0.0
O310 O 0.72078 0.43625 0.06239 0.0
Fe311 Fe 0.7224 0.4114 0.03775 0.0
O312 O 0.69599 0.41526 0.01676 0.0
O313 O 0.67928 0.42357 0.06803 0.0
O314 O 0.6894 0.46343 0.06634 0.0
C315 C 0.70083 0.4799 0.05909 0.0
C316 C 0.70975 0.39902 0.11009 0.0
O317 O 0.72142 0.47937 0.06213 0.0
C318 C 0.76541 0.41715 0.05437 0.0
O319 O 0.71369 0.45833 0.12454 0.0
O320 O 0.74749 0.45665 0.10604 0.0
O321 O 0.71099 0.39486 0.07583 0.0
O322 O 0.70748 0.41819 0.12146 0.0
C323 C 0.73648 0.44321 0.98555 0.0
O324 O 0.7637 0.43752 0.0499 0.0
O325 O 0.74879 0.40536 0.0566 0.0
C326 C 0.73372 0.46006 0.13106 0.0
O327 O 0.73613 0.45856 0.00838 0.0
O328 O 0.73415 0.42362 0.99563 0.0
C329 C 0.67871 0.41708 0.03498 0.0
Fe330 Fe 0.45861 0.26412 0.95025 0.0
Fe331 Fe 0.41386 0.28326 0.9709 0.0
O332 O 0.43803 0.284 0.94451 0.0
Fe333 Fe 0.44182 0.30499 0.91201 0.0
O334 O 0.4649 0.31516 0.93755 0.0
O335 O 0.48114 0.28336 0.94112 0.0
O336 O 0.46175 0.27099 0.998 0.0
C337 C 0.44711 0.27163 0.02212 0.0
C338 C 0.4604 0.26893 0.87595 0.0
O339 O 0.4272 0.27307 0.01328 0.0
C340 C 0.40003 0.2936 0.89803 0.0
O341 O 0.43974 0.24162 0.96176 0.0
O342 O 0.40749 0.25627 0.95518 0.0
O343 O 0.4591 0.28914 0.88121 0.0
O344 O 0.45725 0.25582 0.90212 0.0
C345 C 0.41933 0.32699 0.96902 0.0
O346 O 0.39652 0.29328 0.93262 0.0
O347 O 0.419 0.29553 0.88541 0.0
C348 C 0.41926 0.23976 0.95915 0.0
O349 O 0.41808 0.31037 0.98902 0.0
O350 O 0.42507 0.32525 0.93573 0.0
C351 C 0.48156 0.30392 0.94435 0.0
H352 H 0.20957 0.14753 0.09773 0.0
H353 H 0.1972 0.1719 0.14745 0.0
H354 H 0.18223 0.11628 0.21506 0.0
H355 H 0.19405 0.09221 0.16585 0.0
H356 H 0.14765 0.14185 0.20575 0.0
H357 H 0.22323 0.14984 0.23702 0.0
H358 H 0.26143 0.15912 0.22425 0.0
H359 H 0.24306 0.22479 0.2001 0.0
H360 H 0.20469 0.21582 0.21215 0.0
H361 H 0.1403 0.19802 0.38972 0.0
H362 H 0.16449 0.18591 0.34014 0.0
H363 H 0.11786 0.20721 0.25926 0.0
H364 H 0.09344 0.21883 0.30844 0.0
H365 H 0.18432 0.20123 0.27395 0.0
H366 H 0.10973 0.16544 0.20086 0.0
H367 H 0.07214 0.15449 0.21514 0.0
H368 H 0.09049 0.14074 0.32695 0.0
H369 H 0.12824 0.15117 0.31309 0.0
C370 C 0.20412 0.14065 0.1236 0.0
C371 C 0.20243 0.11805 0.12787 0.0
C372 C 0.19706 0.15453 0.15192 0.0
C373 C 0.18856 0.14586 0.1848 0.0
C374 C 0.18847 0.12332 0.18982 0.0
C375 C 0.19524 0.10959 0.16167 0.0
C376 C 0.17747 0.15966 0.21255 0.0
C377 C 0.1557 0.1549 0.22045 0.0
C378 C 0.18796 0.17664 0.23186 0.0
C379 C 0.21105 0.1821 0.22509 0.0
C380 C 0.22731 0.16622 0.22868 0.0
C381 C 0.249 0.17143 0.22163 0.0
C382 C 0.25466 0.19251 0.21125 0.0
C383 C 0.23865 0.20846 0.20807 0.0
C384 C 0.21693 0.20332 0.21503 0.0
C385 C 0.13548 0.20067 0.36135 0.0
C386 C 0.11483 0.20905 0.35294 0.0
C387 C 0.14936 0.19383 0.33306 0.0
C388 C 0.14282 0.19539 0.29607 0.0
C389 C 0.1231 0.20563 0.28764 0.0
C390 C 0.10913 0.21219 0.31579 0.0
C391 C 0.15462 0.18324 0.26699 0.0
C392 C 0.17634 0.18831 0.25885 0.0
C393 C 0.14427 0.16621 0.24762 0.0
C394 C 0.12174 0.15932 0.25602 0.0
C395 C 0.10575 0.15994 0.22842 0.0
C396 C 0.08443 0.15381 0.23643 0.0
C397 C 0.07891 0.14699 0.27195 0.0
C398 C 0.09476 0.1461 0.29947 0.0
C399 C 0.11612 0.15211 0.29155 0.0
H400 H 0.06237 0.14237 0.27814 0.0
H401 H 0.27145 0.19651 0.20577 0.0
H402 H 0.13978 0.8065 0.89204 0.0
H403 H 0.16285 0.8201 0.84222 0.0
H404 H 0.11347 0.80355 0.76284 0.0
H405 H 0.09013 0.79035 0.81242 0.0
H406 H 0.18046 0.80669 0.77478 0.0
H407 H 0.10671 0.846 0.70695 0.0
H408 H 0.06915 0.85641 0.72251 0.0
H409 H 0.08797 0.86737 0.835 0.0
H410 H 0.12564 0.85726 0.81997 0.0
H411 H 0.20392 0.86372 0.60223 0.0
H412 H 0.18989 0.8392 0.64995 0.0
H413 H 0.18396 0.89308 0.72504 0.0
H414 H 0.19807 0.91755 0.67816 0.0
H415 H 0.14532 0.86971 0.71399 0.0
H416 H 0.22093 0.85752 0.742 0.0
H417 H 0.25856 0.84704 0.72735 0.0
H418 H 0.23703 0.78333 0.69644 0.0
H419 H 0.1992 0.79354 0.71042 0.0
C420 C 0.13406 0.80524 0.86388 0.0
C421 C 0.113 0.79771 0.85617 0.0
C422 C 0.14729 0.81298 0.83545 0.0
C423 C 0.13969 0.81319 0.79899 0.0
C424 C 0.11949 0.80382 0.79089 0.0
C425 C 0.10617 0.79634 0.81926 0.0
C426 C 0.15135 0.82588 0.77053 0.0
C427 C 0.17278 0.82039 0.76128 0.0
C428 C 0.14137 0.84388 0.75323 0.0
C429 C 0.11895 0.85079 0.76235 0.0
C430 C 0.10285 0.85081 0.73492 0.0
C431 C 0.08153 0.85662 0.74366 0.0
C432 C 0.07617 0.86253 0.77972 0.0
C433 C 0.09213 0.86277 0.80708 0.0
C434 C 0.11347 0.85701 0.79846 0.0
C435 C 0.20003 0.87027 0.62914 0.0
C436 C 0.20186 0.89266 0.63617 0.0
C437 C 0.19203 0.85624 0.65633 0.0
C438 C 0.18576 0.86442 0.69084 0.0
C439 C 0.18859 0.88651 0.69847 0.0
C440 C 0.19668 0.90046 0.67156 0.0
C441 C 0.17446 0.85055 0.71807 0.0
C442 C 0.153 0.85588 0.72713 0.0
C443 C 0.18449 0.83253 0.73515 0.0
C444 C 0.20721 0.82637 0.72687 0.0
C445 C 0.22419 0.84134 0.73175 0.0
C446 C 0.24556 0.83543 0.72364 0.0
C447 C 0.25018 0.81455 0.71086 0.0
C448 C 0.23343 0.79951 0.70628 0.0
C449 C 0.21203 0.80534 0.71432 0.0
H450 H 0.26673 0.81001 0.7046 0.0
H451 H 0.05964 0.86693 0.78646 0.0
H452 H 0.86292 0.7984 0.39487 0.0
H453 H 0.83813 0.81032 0.34576 0.0
H454 H 0.89212 0.81585 0.27079 0.0
H455 H 0.91678 0.80389 0.31894 0.0
H456 H 0.86778 0.85369 0.27746 0.0
H457 H 0.85768 0.77721 0.25682 0.0
H458 H 0.84832 0.73977 0.27475 0.0
H459 H 0.78384 0.76019 0.30306 0.0
H460 H 0.79291 0.79784 0.28581 0.0
H461 H 0.8058 0.85998 0.10134 0.0
H462 H 0.82008 0.83563 0.14901 0.0
H463 H 0.79763 0.87947 0.23335 0.0
H464 H 0.78327 0.90376 0.18623 0.0
H465 H 0.80539 0.81527 0.22061 0.0
H466 H 0.84457 0.89134 0.28253 0.0
H467 H 0.85405 0.92874 0.26436 0.0
H468 H 0.86197 0.90821 0.15204 0.0
H469 H 0.8528 0.87075 0.16963 0.0
C470 C 0.86943 0.80182 0.36775 0.0
C471 C 0.89188 0.80048 0.36106 0.0
C472 C 0.85526 0.80858 0.33974 0.0
C473 C 0.86336 0.81407 0.30476 0.0
C474 C 0.88557 0.81181 0.29766 0.0
C475 C 0.89965 0.80498 0.32535 0.0
C476 C 0.84929 0.82403 0.27631 0.0
C477 C 0.85413 0.84527 0.26513 0.0
C478 C 0.83155 0.813 0.26014 0.0
C479 C 0.82605 0.79038 0.2704 0.0
C480 C 0.84156 0.77376 0.2672 0.0
C481 C 0.8363 0.75249 0.27717 0.0
C482 C 0.81552 0.74761 0.29014 0.0
C483 C 0.79994 0.76399 0.29306 0.0
C484 C 0.80513 0.78529 0.28317 0.0
C485 C 0.80319 0.86403 0.13005 0.0
C486 C 0.79376 0.88398 0.14005 0.0
C487 C 0.81132 0.85008 0.15724 0.0
C488 C 0.81013 0.85595 0.19457 0.0
C489 C 0.7988 0.87475 0.20465 0.0
C490 C 0.7907 0.88865 0.17764 0.0
C491 C 0.82388 0.84489 0.22219 0.0
C492 C 0.819 0.82361 0.23317 0.0
C493 C 0.84174 0.8558 0.23822 0.0
C494 C 0.84784 0.87823 0.22739 0.0
C495 C 0.84845 0.8948 0.254 0.0
C496 C 0.85374 0.91603 0.24379 0.0
C497 C 0.85855 0.92087 0.20705 0.0
C498 C 0.85818 0.90447 0.18047 0.0
C499 C 0.85293 0.88323 0.19056 0.0
H500 H 0.86259 0.93732 0.19918 0.0
H501 H 0.81147 0.73113 0.29783 0.0
H502 H 0.83311 0.09782 0.65118 0.0
H503 H 0.84143 0.124 0.69921 0.0
H504 H 0.79069 0.16607 0.65908 0.0
H505 H 0.78267 0.13981 0.60951 0.0
H506 H 0.82575 0.18915 0.68137 0.0
H507 H 0.78098 0.13585 0.7344 0.0
H508 H 0.76761 0.0989 0.74717 0.0
H509 H 0.82734 0.08345 0.80206 0.0
H510 H 0.84126 0.12015 0.78903 0.0
H511 H 0.85708 0.20232 0.89441 0.0
H512 H 0.83047 0.19261 0.84692 0.0
H513 H 0.87955 0.20043 0.76309 0.0
H514 H 0.90577 0.21066 0.8098 0.0
H515 H 0.83134 0.15843 0.80748 0.0
H516 H 0.85982 0.21031 0.67947 0.0
H517 H 0.87012 0.24814 0.66632 0.0
H518 H 0.83722 0.26935 0.76418 0.0
H519 H 0.82611 0.23175 0.77742 0.0
C520 C 0.82375 0.11268 0.65241 0.0
C521 C 0.80699 0.11666 0.62708 0.0
C522 C 0.82847 0.12761 0.67997 0.0
C523 C 0.81621 0.14665 0.68351 0.0
C524 C 0.80014 0.1513 0.65711 0.0
C525 C 0.7956 0.13638 0.62887 0.0
C526 C 0.82034 0.16113 0.71544 0.0
C527 C 0.8268 0.18262 0.70907 0.0
C528 C 0.82065 0.15284 0.75186 0.0
C529 C 0.81218 0.13082 0.76066 0.0
C530 C 0.79131 0.12456 0.74908 0.0
C531 C 0.78364 0.10364 0.75634 0.0
C532 C 0.79662 0.08883 0.77541 0.0
C533 C 0.81729 0.09494 0.78733 0.0
C534 C 0.82507 0.11583 0.78007 0.0
C535 C 0.86199 0.20253 0.86575 0.0
C536 C 0.88361 0.20701 0.85597 0.0
C537 C 0.84679 0.19692 0.83862 0.0
C538 C 0.8529 0.19587 0.80128 0.0
C539 C 0.8742 0.2015 0.79147 0.0
C540 C 0.88931 0.20713 0.8184 0.0
C541 C 0.83834 0.18608 0.77308 0.0
C542 C 0.82982 0.16536 0.78012 0.0
C543 C 0.83565 0.19534 0.73756 0.0
C544 C 0.84219 0.21809 0.72955 0.0
C545 C 0.85458 0.22303 0.69805 0.0
C546 C 0.86057 0.24446 0.69057 0.0
C547 C 0.8544 0.26112 0.71447 0.0
C548 C 0.84207 0.25641 0.74577 0.0
C549 C 0.8359 0.23504 0.75325 0.0
H550 H 0.85914 0.27768 0.70869 0.0
H551 H 0.79066 0.07264 0.78096 0.0
H552 H 0.59932 0.72471 0.82101 0.0
H553 H 0.62381 0.7151 0.77059 0.0
H554 H 0.66285 0.67759 0.84613 0.0
H555 H 0.63902 0.68822 0.89698 0.0
H556 H 0.68816 0.69351 0.7963 0.0
H557 H 0.61996 0.65564 0.79309 0.0
H558 H 0.58023 0.65129 0.78992 0.0
H559 H 0.57915 0.68418 0.68557 0.0
H560 H 0.61884 0.68914 0.68851 0.0
H561 H 0.71832 0.60303 0.6853 0.0
H562 H 0.70541 0.62985 0.72979 0.0
H563 H 0.68176 0.6698 0.64083 0.0
H564 H 0.69483 0.64307 0.59602 0.0
H565 H 0.65022 0.65791 0.69199 0.0
H566 H 0.721 0.68926 0.69312 0.0
H567 H 0.76092 0.68915 0.69727 0.0
H568 H 0.75727 0.66347 0.80714 0.0
H569 H 0.71732 0.66313 0.80348 0.0
C570 C 0.61347 0.71487 0.82695 0.0
C571 C 0.61723 0.70705 0.86277 0.0
C572 C 0.62737 0.70926 0.7981 0.0
C573 C 0.64484 0.69507 0.80428 0.0
C574 C 0.64944 0.68846 0.84056 0.0
C575 C 0.63583 0.69454 0.86965 0.0
C576 C 0.65705 0.68554 0.77279 0.0
C577 C 0.67985 0.68567 0.77357 0.0
C578 C 0.64627 0.67557 0.74268 0.0
C579 C 0.62234 0.673 0.74125 0.0
C580 C 0.61122 0.66214 0.76965 0.0
C581 C 0.58872 0.65953 0.76787 0.0
C582 C 0.57718 0.66744 0.73756 0.0
C583 C 0.58812 0.67802 0.709 0.0
C584 C 0.61061 0.68081 0.71077 0.0
C585 C 0.71087 0.61779 0.67517 0.0
C586 C 0.70746 0.6209 0.6372 0.0
C587 C 0.7036 0.63316 0.70062 0.0
C588 C 0.69267 0.65182 0.6886 0.0
C589 C 0.69026 0.65553 0.65062 0.0
C590 C 0.6978 0.64029 0.62507 0.0
C591 C 0.68123 0.66568 0.71576 0.0
C592 C 0.65852 0.66621 0.71429 0.0
C593 C 0.6921 0.67576 0.74551 0.0
C594 C 0.71614 0.67605 0.74792 0.0
C595 C 0.7287 0.68344 0.71807 0.0
C596 C 0.75134 0.68348 0.72036 0.0
C597 C 0.76162 0.67628 0.75243 0.0
C598 C 0.74928 0.66905 0.78231 0.0
C599 C 0.72663 0.66896 0.78017 0.0
H600 H 0.77915 0.67632 0.75414 0.0
H601 H 0.55976 0.66542 0.73622 0.0
H602 H 0.59875 0.29126 0.32453 0.0
H603 H 0.62468 0.30266 0.27765 0.0
H604 H 0.6702 0.3208 0.36256 0.0
H605 H 0.64413 0.30939 0.40996 0.0
H606 H 0.66249 0.35359 0.31332 0.0
H607 H 0.6819 0.27884 0.3064 0.0
H608 H 0.6754 0.23947 0.30175 0.0
H609 H 0.64532 0.24838 0.19606 0.0
H610 H 0.65135 0.28785 0.20028 0.0
H611 H 0.72969 0.39512 0.17615 0.0
H612 H 0.71956 0.37082 0.22664 0.0
H613 H 0.6714 0.34084 0.15682 0.0
H614 H 0.6826 0.36425 0.10556 0.0
H615 H 0.68603 0.31189 0.20335 0.0
H616 H 0.6602 0.38577 0.21466 0.0
H617 H 0.66506 0.42546 0.21762 0.0
H618 H 0.70471 0.41845 0.31423 0.0
H619 H 0.70033 0.37866 0.3115 0.0
C620 C 0.61443 0.29731 0.33329 0.0
C621 C 0.61935 0.29954 0.37097 0.0
C622 C 0.62931 0.3037 0.30641 0.0
C623 C 0.64943 0.31248 0.31656 0.0
C624 C 0.65477 0.31398 0.35414 0.0
C625 C 0.63992 0.30737 0.38117 0.0
C626 C 0.66372 0.32205 0.28787 0.0
C627 C 0.66813 0.34435 0.28972 0.0
C628 C 0.67051 0.31013 0.25657 0.0
C629 C 0.66698 0.28635 0.25377 0.0
C630 C 0.67377 0.27244 0.28227 0.0
C631 C 0.67019 0.25009 0.27969 0.0
C632 C 0.65993 0.24143 0.24865 0.0
C633 C 0.65327 0.25511 0.22009 0.0
C634 C 0.6568 0.27747 0.22253 0.0
C635 C 0.71744 0.38284 0.17136 0.0
C636 C 0.70684 0.38152 0.1372 0.0
C637 C 0.71152 0.36909 0.20025 0.0
C638 C 0.69421 0.35447 0.19595 0.0
C639 C 0.6847 0.35207 0.16093 0.0
C640 C 0.69109 0.36541 0.13163 0.0
C641 C 0.6845 0.34348 0.22856 0.0
C642 C 0.68082 0.321 0.22734 0.0
C643 C 0.67805 0.35529 0.26031 0.0
C644 C 0.68012 0.37924 0.26265 0.0
C645 C 0.67 0.3927 0.23646 0.0
C646 C 0.67269 0.4152 0.23808 0.0
C647 C 0.68524 0.42447 0.26603 0.0
C648 C 0.69503 0.41125 0.29255 0.0
C649 C 0.69244 0.38872 0.291 0.0
H650 H 0.68735 0.44189 0.26718 0.0
H651 H 0.65716 0.22413 0.24672 0.0
H652 H 0.39516 0.27329 0.83243 0.0
H653 H 0.37035 0.28344 0.78269 0.0
H654 H 0.34125 0.33174 0.85328 0.0
H655 H 0.36522 0.32061 0.90378 0.0
H656 H 0.31178 0.31713 0.80746 0.0
H657 H 0.38569 0.34259 0.79475 0.0
H658 H 0.42534 0.33777 0.79051 0.0
H659 H 0.41737 0.29889 0.69322 0.0
H660 H 0.37762 0.30318 0.69726 0.0
H661 H 0.29079 0.4049 0.68724 0.0
H662 H 0.30231 0.37878 0.73376 0.0
H663 H 0.31933 0.33322 0.64826 0.0
H664 H 0.30776 0.35944 0.60124 0.0
H665 H 0.35266 0.34083 0.69668 0.0
H666 H 0.27797 0.32158 0.70516 0.0
H667 H 0.23865 0.32811 0.71072 0.0
H668 H 0.24839 0.3579 0.81643 0.0
H669 H 0.28782 0.35183 0.81129 0.0
C670 C 0.38294 0.28556 0.8376 0.0
C671 C 0.38206 0.29625 0.87173 0.0
C672 C 0.3689 0.29148 0.80912 0.0
C673 C 0.35439 0.30885 0.81381 0.0
C674 C 0.35238 0.31839 0.84888 0.0
C675 C 0.36604 0.31202 0.87775 0.0
C676 C 0.34317 0.31863 0.78151 0.0
C677 C 0.32072 0.32237 0.78329 0.0
C678 C 0.35474 0.32513 0.74953 0.0
C679 C 0.37867 0.323 0.74656 0.0
C680 C 0.39239 0.33293 0.77255 0.0
C681 C 0.41488 0.33028 0.7702 0.0
C682 C 0.42387 0.31796 0.7417 0.0
C683 C 0.41038 0.30837 0.71535 0.0
C684 C 0.38787 0.3109 0.71766 0.0
C685 C 0.2966 0.38916 0.67829 0.0
C686 C 0.29848 0.38427 0.64055 0.0
C687 C 0.30307 0.37419 0.70496 0.0
C688 C 0.31159 0.354 0.69452 0.0
C689 C 0.31272 0.34869 0.65689 0.0
C690 C 0.30602 0.36364 0.63009 0.0
C691 C 0.32133 0.33962 0.72287 0.0
C692 C 0.3436 0.33516 0.72046 0.0
C693 C 0.30964 0.33278 0.75438 0.0
C694 C 0.2859 0.33635 0.75773 0.0
C695 C 0.27176 0.32966 0.72949 0.0
C696 C 0.24944 0.33326 0.73258 0.0
C697 C 0.24103 0.34344 0.76388 0.0
C698 C 0.25493 0.35001 0.7922 0.0
C699 C 0.27726 0.34646 0.78923 0.0
H700 H 0.22375 0.34622 0.76622 0.0
H701 H 0.44128 0.31588 0.73997 0.0
H702 H 0.30252 0.64398 0.10337 0.0
H703 H 0.3149 0.67032 0.1494 0.0
H704 H 0.29775 0.62583 0.23645 0.0
H705 H 0.2851 0.59967 0.1909 0.0
H706 H 0.29082 0.6679 0.25726 0.0
H707 H 0.34811 0.6251 0.19979 0.0
H708 H 0.36946 0.61185 0.14682 0.0
H709 H 0.38646 0.67733 0.11854 0.0
H710 H 0.36497 0.69098 0.17112 0.0
H711 H 0.3655 0.68365 0.40293 0.0
H712 H 0.34072 0.67272 0.35371 0.0
H713 H 0.37337 0.71603 0.27832 0.0
H714 H 0.39907 0.72576 0.32695 0.0
H715 H 0.37008 0.68034 0.24702 0.0
H716 H 0.31732 0.72299 0.31118 0.0
H717 H 0.2967 0.7357 0.36529 0.0
H718 H 0.27127 0.67156 0.38163 0.0
H719 H 0.2919 0.65841 0.32784 0.0
C720 C 0.30081 0.64008 0.13234 0.0
C721 C 0.29317 0.6196 0.1435 0.0
C722 C 0.30797 0.6551 0.1586 0.0
C723 C 0.3076 0.64985 0.19632 0.0
C724 C 0.29826 0.6302 0.20753 0.0
C725 C 0.29116 0.6152 0.1814 0.0
C726 C 0.31929 0.66328 0.22382 0.0
C727 C 0.30814 0.67075 0.25509 0.0
C728 C 0.34181 0.66729 0.22063 0.0
C729 C 0.35478 0.65907 0.18914 0.0
C730 C 0.35629 0.63667 0.18213 0.0
C731 C 0.36842 0.62909 0.15221 0.0
C732 C 0.37931 0.64375 0.12937 0.0
C733 C 0.37803 0.66601 0.1363 0.0
C734 C 0.36588 0.67367 0.16614 0.0
C735 C 0.36698 0.69121 0.37607 0.0
C736 C 0.38408 0.70557 0.36862 0.0
C737 C 0.35275 0.68504 0.34792 0.0
C738 C 0.3549 0.6937 0.31218 0.0
C739 C 0.37133 0.70903 0.3055 0.0
C740 C 0.38593 0.71469 0.3333 0.0
C741 C 0.34171 0.68508 0.281 0.0
C742 C 0.35265 0.67824 0.24902 0.0
C743 C 0.319 0.68177 0.28359 0.0
C744 C 0.30622 0.68971 0.31552 0.0
C745 C 0.30738 0.71158 0.32637 0.0
C746 C 0.29568 0.71887 0.35699 0.0
C747 C 0.28269 0.70445 0.37689 0.0
C748 C 0.2813 0.68272 0.36614 0.0
C749 C 0.29295 0.67536 0.33553 0.0
H750 H 0.27368 0.71011 0.40063 0.0
H751 H 0.38881 0.63786 0.10639 0.0
H752 H 0.16172 0.00951 0.04249 0.0
H753 H 0.14494 0.97459 0.02981 0.0
H754 H 0.20731 0.94807 1.00019 0.0
H755 H 0.22427 0.98358 0.01171 0.0
H756 H 0.17639 0.93236 0.95575 0.0
H757 H 0.1853 0.93895 0.08582 0.0
H758 H 0.18256 0.95681 0.14653 0.0
H759 H 0.11311 0.95648 0.1386 0.0
H760 H 0.11536 0.93908 0.07753 0.0
H761 H 0.11437 0.82888 0.02485 0.0
H762 H 0.13759 0.86022 0.0382 0.0
H763 H 0.11044 0.89419 0.94506 0.0
H764 H 0.08741 0.86311 0.9314 0.0
H765 H 0.12987 0.90191 0.05482 0.0
H766 H 0.14991 0.92305 0.90177 0.0
H767 H 0.15436 0.90387 0.84254 0.0
H768 H 0.17018 0.84512 0.90014 0.0
H769 H 0.16617 0.86398 0.95965 0.0
C770 C 0.17192 0.99632 0.03306 0.0
C771 C 0.1944 0.99923 0.02869 0.0
C772 C 0.16229 0.9763 0.02594 0.0
C773 C 0.17492 0.95848 0.01505 0.0
C774 C 0.19726 0.96153 0.0089 0.0
C775 C 0.20693 0.9818 0.01552 0.0
C776 C 0.16462 0.93673 0.01116 0.0
C777 C 0.1663 0.92566 0.97745 0.0
C778 C 0.15191 0.92761 0.03986 0.0
C779 C 0.15051 0.93778 0.07694 0.0
C780 C 0.16944 0.94278 0.09691 0.0
C781 C 0.16798 0.95282 0.13139 0.0
C782 C 0.1477 0.95775 0.14639 0.0
C783 C 0.12881 0.95264 0.12696 0.0
C784 C 0.13017 0.94268 0.09241 0.0
C785 C 0.11317 0.84311 0.00745 0.0
C786 C 0.09908 0.84337 0.97691 0.0
C787 C 0.1265 0.86099 0.01506 0.0
C788 C 0.1261 0.87938 0.99216 0.0
C789 C 0.11141 0.88 0.96263 0.0
C790 C 0.0981 0.86223 0.95505 0.0
C791 C 0.1409 0.89805 0.99894 0.0
C792 C 0.14011 0.9085 0.03323 0.0
C793 C 0.15474 0.90632 0.97105 0.0
C794 C 0.15757 0.89493 0.93524 0.0
C795 C 0.15446 0.90607 0.90181 0.0
C796 C 0.15689 0.89525 0.86817 0.0
C797 C 0.16254 0.87329 0.86757 0.0
C798 C 0.16577 0.86211 0.90062 0.0
C799 C 0.16339 0.87286 0.93432 0.0
H800 H 0.16445 0.86496 0.8415 0.0
H801 H 0.14662 0.96552 0.17308 0.0
H802 H 0.83498 0.8965 0.97822 0.0
H803 H 0.86815 0.87624 0.96456 0.0
H804 H 0.89545 0.89633 0.06857 0.0
H805 H 0.86239 0.91648 0.08257 0.0
H806 H 0.9097 0.88675 0.95638 0.0
H807 H 0.92522 0.85406 0.10471 0.0
H808 H 0.90435 0.84374 0.16007 0.0
H809 H 0.84801 0.83222 0.09331 0.0
H810 H 0.86859 0.84211 0.03753 0.0
H811 H 0.016 0.84628 0.9683 0.0
H812 H 0.98248 0.86509 0.98433 0.0
H813 H 0.94875 0.8039 0.98991 0.0
H814 H 0.98232 0.78482 0.97394 0.0
H815 H 0.9361 0.83149 0.04529 0.0
H816 H 0.94401 0.83333 0.91451 0.0
H817 H 0.96303 0.83983 0.85575 0.0
H818 H 0.96822 0.90763 0.88156 0.0
H819 H 0.94953 0.90146 0.9408 0.0
C820 C 0.84811 0.89681 0.99805 0.0
C821 C 0.8459 0.908 0.03165 0.0
C822 C 0.86707 0.88519 0.9902 0.0
C823 C 0.88414 0.88443 0.01583 0.0
C824 C 0.88234 0.89631 0.04869 0.0
C825 C 0.86343 0.90794 0.05654 0.0
C826 C 0.90372 0.87103 0.00843 0.0
C827 C 0.91546 0.87471 0.97588 0.0
C828 C 0.91101 0.85492 0.03347 0.0
C829 C 0.89843 0.84903 0.06695 0.0
C830 C 0.9084 0.84926 0.10183 0.0
C831 C 0.89662 0.84347 0.13328 0.0
C832 C 0.87489 0.83728 0.13019 0.0
C833 C 0.86484 0.837 0.09567 0.0
C834 C 0.87655 0.84275 0.06413 0.0
C835 C 1.00152 0.83674 0.97314 0.0
C836 C 0.00182 0.81402 0.96928 0.0
C837 C 0.98235 0.84756 0.98228 0.0
C838 C 0.96304 0.83593 0.98773 0.0
C839 C 0.96345 0.8132 0.98563 0.0
C840 C 0.98264 0.80233 0.97635 0.0
C841 C 0.94228 0.84766 0.99376 0.0
C842 C 0.93033 0.84362 0.02596 0.0
C843 C 0.93447 0.86306 0.96801 0.0
C844 C 0.94554 0.86689 0.93225 0.0
C845 C 0.94935 0.8496 0.90779 0.0
C846 C 0.96005 0.85322 0.87438 0.0
C847 C 0.96687 0.87412 0.86496 0.0
C848 C 0.96295 0.89144 0.88891 0.0
C849 C 0.95229 0.88789 0.9224 0.0
H850 H 0.97515 0.8769 0.83908 0.0
H851 H 0.86582 0.83272 0.15456 0.0
H852 H 0.90975 0.14019 0.92184 0.0
H853 H 0.891 0.10756 0.94169 0.0
H854 H 0.88185 0.13532 0.04979 0.0
H855 H 0.90007 0.16863 0.02956 0.0
H856 H 0.89758 0.07779 0.98882 0.0
H857 H 0.83446 0.11686 0.08678 0.0
H858 H 0.81537 0.15174 0.09486 0.0
H859 H 0.82281 0.16548 0.97949 0.0
H860 H 0.84166 0.13058 0.97065 0.0
H861 H 0.84391 0.99277 0.08109 0.0
H862 H 0.86337 0.0263 0.06736 0.0
H863 H 0.80774 0.05023 0.0076 0.0
H864 H 0.78787 0.01699 0.02257 0.0
H865 H 0.82422 0.08199 0.04459 0.0
H866 H 0.85342 0.02857 0.96341 0.0
H867 H 0.86996 0.99359 0.94609 0.0
H868 H 0.92614 0.00856 0.0113 0.0
H869 H 0.90979 0.04352 0.02943 0.0
C870 C 0.90387 0.13942 0.94996 0.0
C871 C 0.9063 0.15717 0.97403 0.0
C872 C 0.89317 0.12064 0.96131 0.0
C873 C 0.88472 0.11898 0.99712 0.0
C874 C 0.88782 0.13634 0.02177 0.0
C875 C 0.89837 0.15533 0.01025 0.0
C876 C 0.87234 0.0992 0.00793 0.0
C877 C 0.88159 0.07875 0.0012 0.0
C878 C 0.85122 0.10032 0.02324 0.0
C879 C 0.8397 0.12123 0.02819 0.0
C880 C 0.83196 0.12731 0.06314 0.0
C881 C 0.82119 0.14708 0.06785 0.0
C882 C 0.81795 0.16085 0.03774 0.0
C883 C 0.8254 0.15484 0.00282 0.0
C884 C 0.83615 0.13508 0.99796 0.0
C885 C 0.8358 0.00518 0.06507 0.0
C886 C 0.81437 0.00219 0.0528 0.0
C887 C 0.84697 0.02435 0.05713 0.0
C888 C 0.83719 0.04073 0.03591 0.0
C889 C 0.81566 0.03789 0.02405 0.0
C890 C 0.80433 0.01885 0.03253 0.0
C891 C 0.84953 0.06061 0.02561 0.0
C892 C 0.84029 0.08105 0.03248 0.0
C893 C 0.87033 0.05951 0.00908 0.0
C894 C 0.88029 0.03856 0.99806 0.0
C895 C 0.86924 0.02433 0.97425 0.0
C896 C 0.87858 0.00452 0.96427 0.0
C897 C 0.89906 0.99883 0.97767 0.0
C898 C 0.91026 0.01298 1.00099 0.0
C899 C 0.90097 0.0328 0.01111 0.0
H900 H 0.90627 0.98349 0.96991 0.0
H901 H 0.80963 0.17616 0.04145 0.0
H902 H 0.98232 0.15639 0.96813 0.0
H903 H 0.01499 0.13522 0.9808 0.0
H904 H 0.05474 0.18957 0.94852 0.0
H905 H 0.02203 0.21103 0.93602 0.0
H906 H 0.06638 0.14971 0.91479 0.0
H907 H 0.05187 0.17814 0.03565 0.0
H908 H 0.02966 0.18573 0.09071 0.0
H909 H 0.02044 0.11742 0.1079 0.0
H910 H 0.04238 0.10943 0.05263 0.0
H911 H 0.16907 0.11868 0.98027 0.0
H912 H 0.13464 0.13539 0.96451 0.0
H913 H 0.10042 0.0814 0.013 0.0
H914 H 0.13516 0.06467 0.02996 0.0
H915 H 0.0844 0.11882 0.03734 0.0
H916 H 0.10068 0.09008 0.9186 0.0
H917 H 0.12306 0.08239 0.86381 0.0
H918 H 0.12863 0.15063 0.84194 0.0
H919 H 0.10654 0.15875 0.89692 0.0
C920 C 0.99801 0.16392 0.96393 0.0
C921 C 0.9996 0.18538 0.95096 0.0
C922 C 0.01665 0.1518 0.9713 0.0
C923 C 0.03725 0.16084 0.96562 0.0
C924 C 0.03895 0.18232 0.95303 0.0
C925 C 0.02028 0.19458 0.94609 0.0
C926 C 0.05698 0.14758 0.9718 0.0
C927 C 0.07051 0.14315 0.94165 0.0
C928 C 0.06184 0.13843 0.00659 0.0
C929 C 0.04857 0.14319 0.03975 0.0
C930 C 0.04493 0.16474 0.05095 0.0
C931 C 0.03244 0.16911 0.08225 0.0
C932 C 0.02359 0.15207 0.10272 0.0
C933 C 0.02727 0.13061 0.09198 0.0
C934 C 0.03975 0.12615 0.06069 0.0
C935 C 0.15427 0.11012 0.98718 0.0
C936 C 0.15491 0.09036 0.0066 0.0
C937 C 0.13453 0.11969 0.97791 0.0
C938 C 0.11489 0.10962 0.9873 0.0
C939 C 0.11539 0.08947 0.00546 0.0
C940 C 0.13525 0.07985 0.0149 0.0
C941 C 0.09405 0.12105 0.98035 0.0
C942 C 0.08024 0.12516 0.01035 0.0
C943 C 0.08887 0.12984 0.94534 0.0
C944 C 0.10206 0.12502 0.91207 0.0
C945 C 0.1068 0.10346 0.90227 0.0
C946 C 0.11941 0.09902 0.87114 0.0
C947 C 0.12729 0.11601 0.84944 0.0
C948 C 0.12252 0.13748 0.85878 0.0
C949 C 0.10992 0.14201 0.8899 0.0
H950 H 0.13706 0.11254 0.82536 0.0
H951 H 0.01394 0.15549 0.12696 0.0
H952 H 0.84172 0.00995 0.51608 0.0
H953 H 0.8595 0.97504 0.50579 0.0
H954 H 0.80628 0.94221 0.55911 0.0
H955 H 0.78815 0.97723 0.56916 0.0
H956 H 0.84884 0.92885 0.58336 0.0
H957 H 0.80852 0.93789 0.47201 0.0
H958 H 0.79535 0.95753 0.41719 0.0
H959 H 0.86055 0.96262 0.37645 0.0
H960 H 0.87418 0.94338 0.4314 0.0
H961 H 0.88755 0.82407 0.52463 0.0
H962 H 0.86626 0.85617 0.541 0.0
H963 H 0.90797 0.89585 0.47332 0.0
H964 H 0.92892 0.86384 0.45617 0.0
H965 H 0.86746 0.90392 0.45725 0.0
H966 H 0.90826 0.89756 0.56992 0.0
H967 H 0.92209 0.87913 0.6255 0.0
H968 H 0.85691 0.86969 0.66407 0.0
H969 H 0.84267 0.88782 0.60844 0.0
C970 C 0.83372 0.9953 0.52547 0.0
C971 C 0.8135 0.99632 0.54329 0.0
C972 C 0.84389 0.97538 0.51953 0.0
C973 C 0.83416 0.95606 0.53157 0.0
C974 C 0.81401 0.95696 0.54957 0.0
C975 C 0.80363 0.97693 0.55504 0.0
C976 C 0.84531 0.93505 0.52528 0.0
C977 C 0.85261 0.92312 0.55581 0.0
C978 C 0.85055 0.92791 0.48933 0.0
C979 C 0.8424 0.93934 0.45603 0.0
C980 C 0.82008 0.94336 0.45154 0.0
C981 C 0.81252 0.9544 0.42041 0.0
C982 C 0.8271 0.96136 0.39339 0.0
C983 C 0.84927 0.95724 0.39742 0.0
C984 C 0.85692 0.94625 0.42855 0.0
C985 C 0.89244 0.8397 0.51381 0.0
C986 C 0.90989 0.84137 0.48895 0.0
C987 C 0.88023 0.85807 0.52319 0.0
C988 C 0.88545 0.87849 0.50836 0.0
C989 C 0.90348 0.88028 0.48489 0.0
C990 C 0.91553 0.86195 0.47525 0.0
C991 C 0.87155 0.89783 0.51537 0.0
C992 C 0.86363 0.90946 0.48487 0.0
C993 C 0.86586 0.90472 0.55137 0.0
C994 C 0.87439 0.89382 0.5848 0.0
C995 C 0.89687 0.89138 0.59009 0.0
C996 C 0.90478 0.88103 0.62163 0.0
C997 C 0.89039 0.87318 0.64824 0.0
C998 C 0.86804 0.87574 0.6434 0.0
C999 C 0.86004 0.88606 0.61188 0.0
H1000 H 0.89655 0.86517 0.67264 0.0
H1001 H 0.82122 0.9699 0.36931 0.0
H1002 H 0.8685 0.0708 0.53952 0.0
H1003 H 0.90102 0.09103 0.52253 0.0
H1004 H 0.86271 0.13264 0.45249 0.0
H1005 H 0.83007 0.11207 0.46872 0.0
H1006 H 0.9018 0.12623 0.42259 0.0
H1007 H 0.87481 0.14816 0.53898 0.0
H1008 H 0.86102 0.14346 0.60229 0.0
H1009 H 0.92225 0.11667 0.63567 0.0
H1010 H 0.93628 0.12081 0.57234 0.0
H1011 H 0.97853 0.21429 0.43157 0.0
H1012 H 0.94509 0.1937 0.44259 0.0
H1013 H 0.98257 0.1409 0.48752 0.0
H1014 H 0.01611 0.16115 0.4758 0.0
H1015 H 0.94275 0.15525 0.52969 0.0
H1016 H 0.96784 0.13358 0.40757 0.0
H1017 H 0.97973 0.14178 0.34416 0.0
H1018 H 0.91898 0.17339 0.32244 0.0
H1019 H 0.90687 0.16567 0.38597 0.0
C1020 C 0.86704 0.08397 0.51991 0.0
C1021 C 0.84665 0.08999 0.50582 0.0
C1022 C 0.88563 0.09561 0.51037 0.0
C1023 C 0.88421 0.11373 0.48705 0.0
C1024 C 0.86417 0.11882 0.47078 0.0
C1025 C 0.84552 0.10701 0.48003 0.0
C1026 C 0.90334 0.12813 0.48187 0.0
C1027 C 0.91058 0.13274 0.44602 0.0
C1028 C 0.91476 0.13683 0.51243 0.0
C1029 C 0.90654 0.1346 0.55077 0.0
C1030 C 0.88529 0.14112 0.55975 0.0
C1031 C 0.87743 0.13857 0.59564 0.0
C1032 C 0.89073 0.12973 0.62296 0.0
C1033 C 0.91195 0.12349 0.61445 0.0
C1034 C 0.91987 0.12594 0.57855 0.0
C1035 C 0.97963 0.19838 0.44411 0.0
C1036 C 0.99993 0.18929 0.45276 0.0
C1037 C 0.96054 0.18664 0.45028 0.0
C1038 C 0.96142 0.16579 0.46577 0.0
C1039 C 0.98159 0.15698 0.47556 0.0
C1040 C 1.00071 0.16852 0.46873 0.0
C1041 C 0.94139 0.15283 0.47058 0.0
C1042 C 0.93391 0.14865 0.50637 0.0
C1043 C 0.92946 0.14503 0.44001 0.0
C1044 C 0.93655 0.14925 0.40162 0.0
C1045 C 0.95709 0.14243 0.38936 0.0
C1046 C 0.96385 0.14696 0.35338 0.0
C1047 C 0.95014 0.15816 0.32932 0.0
C1048 C 0.92959 0.16475 0.34113 0.0
C1049 C 0.92277 0.16028 0.3771 0.0
H1050 H 0.95542 0.16168 0.30149 0.0
H1051 H 0.88461 0.12775 0.65073 0.0
H1052 H 0.12062 0.17706 0.50425 0.0
H1053 H 0.14078 0.14373 0.51811 0.0
H1054 H 0.09343 0.10628 0.45811 0.0
H1055 H 0.07348 0.13957 0.44334 0.0
H1056 H 0.10805 0.08861 0.53056 0.0
H1057 H 0.1344 0.1163 0.41413 0.0
H1058 H 0.14934 0.14484 0.37382 0.0
H1059 H 0.20571 0.14959 0.44287 0.0
H1060 H 0.19088 0.12138 0.48409 0.0
H1061 H 0.16158 0.98946 0.50656 0.0
H1062 H 0.14246 0.02322 0.49304 0.0
H1063 H 0.19812 0.05996 0.52911 0.0
H1064 H 0.21764 0.02613 0.54173 0.0
H1065 H 0.17981 0.07896 0.47054 0.0
H1066 H 0.15493 0.05184 0.58651 0.0
H1067 H 0.14032 0.02461 0.62967 0.0
H1068 H 0.082 0.02007 0.56537 0.0
H1069 H 0.09641 0.04707 0.5215 0.0
C1070 C 0.1143 0.16169 0.49458 0.0
C1071 C 0.09549 0.16089 0.47268 0.0
C1072 C 0.12589 0.14271 0.50233 0.0
C1073 C 0.11863 0.12263 0.48888 0.0
C1074 C 0.09927 0.12165 0.46866 0.0
C1075 C 0.08793 0.14065 0.46025 0.0
C1076 C 0.13175 0.10278 0.49434 0.0
C1077 C 0.12363 0.08636 0.51718 0.0
C1078 C 0.15231 0.1002 0.47754 0.0
C1079 C 0.1614 0.11691 0.45246 0.0
C1080 C 0.14988 0.12358 0.42094 0.0
C1081 C 0.15834 0.13967 0.39789 0.0
C1082 C 0.17843 0.14906 0.40583 0.0
C1083 C 0.19013 0.14233 0.4368 0.0
C1084 C 0.1817 0.12629 0.46002 0.0
C1085 C 0.16984 0.00472 0.51134 0.0
C1086 C 0.19102 0.00512 0.52567 0.0
C1087 C 0.15886 0.02402 0.50369 0.0
C1088 C 0.16866 0.04415 0.51089 0.0
C1089 C 0.19018 0.04463 0.52358 0.0
C1090 C 0.20131 0.02527 0.5308 0.0
C1091 C 0.15605 0.06457 0.50667 0.0
C1092 C 0.16426 0.08116 0.48406 0.0
C1093 C 0.13564 0.06744 0.52404 0.0
C1094 C 0.12683 0.05133 0.55054 0.0
C1095 C 0.13905 0.04493 0.58144 0.0
C1096 C 0.1308 0.02955 0.60604 0.0
C1097 C 0.11027 0.02058 0.60022 0.0
C1098 C 0.09792 0.02702 0.56982 0.0
C1099 C 0.10611 0.04237 0.54509 0.0
H1100 H 0.10391 0.00867 0.6193 0.0
H1101 H 0.18497 0.1615 0.38796 0.0
H1102 H 0.17548 0.88673 0.47554 0.0
H1103 H 0.14318 0.86477 0.46337 0.0
H1104 H 0.10563 0.90599 0.53527 0.0
H1105 H 0.13783 0.92771 0.54806 0.0
H1106 H 0.09905 0.86481 0.55218 0.0
H1107 H 0.09951 0.90689 0.44061 0.0
H1108 H 0.11519 0.92199 0.38357 0.0
H1109 H 0.12507 0.85762 0.34151 0.0
H1110 H 0.1097 0.84213 0.39855 0.0
H1111 H 0.99126 0.83619 0.49617 0.0
H1112 H 0.02574 0.85445 0.50911 0.0
H1113 H 0.06031 0.80301 0.45399 0.0
H1114 H 0.02592 0.78439 0.44164 0.0
H1115 H 0.06974 0.84657 0.42869 0.0
H1116 H 0.06646 0.80481 0.53934 0.0
H1117 H 0.05065 0.79019 0.59664 0.0
H1118 H 0.04554 0.8546 0.64077 0.0
H1119 H 0.06095 0.86968 0.58346 0.0
C1120 C 0.16025 0.89138 0.48817 0.0
C1121 C 0.15925 0.90893 0.51288 0.0
C1122 C 0.14179 0.87877 0.48125 0.0
C1123 C 0.12196 0.88368 0.4985 0.0
C1124 C 0.12077 0.90176 0.5219 0.0
C1125 C 0.13919 0.91425 0.529 0.0
C1126 C 0.10264 0.86953 0.4936 0.0
C1127 C 0.09248 0.86105 0.52518 0.0
C1128 C 0.09446 0.86407 0.45835 0.0
C1129 C 0.10368 0.87335 0.42402 0.0
C1130 C 0.10519 0.89595 0.41933 0.0
C1131 C 0.11399 0.90458 0.38697 0.0
C1132 C 0.12118 0.89077 0.35898 0.0
C1133 C 0.11953 0.8683 0.36324 0.0
C1134 C 0.11076 0.85958 0.39557 0.0
C1135 C 0.00623 0.82863 0.48726 0.0
C1136 C 0.00591 0.80889 0.46786 0.0
C1137 C 0.02589 0.83903 0.49475 0.0
C1138 C 0.04551 0.83004 0.4825 0.0
C1139 C 0.0453 0.81015 0.46371 0.0
C1140 C 0.02567 0.79951 0.45683 0.0
C1141 C 0.06603 0.8422 0.48724 0.0
C1142 C 0.0764 0.85028 0.45565 0.0
C1143 C 0.07431 0.8474 0.5225 0.0
C1144 C 0.06463 0.83841 0.55682 0.0
C1145 C 0.0617 0.8159 0.56103 0.0
C1146 C 0.05287 0.80752 0.59357 0.0
C1147 C 0.04701 0.82146 0.62225 0.0
C1148 C 0.05002 0.84382 0.61848 0.0
C1149 C 0.05882 0.8523 0.58596 0.0
H1150 H 0.04019 0.81494 0.64742 0.0
H1151 H 0.12799 0.89748 0.33395 0.0
H1152 H 0.71236 0.48085 0.58011 0.0
H1153 H 0.6922 0.44717 0.57045 0.0
H1154 H 0.64064 0.4832 0.51801 0.0
H1155 H 0.66027 0.51702 0.5295 0.0
H1156 H 0.62339 0.45449 0.55941 0.0
H1157 H 0.68062 0.45201 0.46919 0.0
H1158 H 0.71864 0.45343 0.44814 0.0
H1159 H 0.73396 0.3982 0.51546 0.0
H1160 H 0.69609 0.39665 0.53732 0.0
H1161 H 0.57676 0.36701 0.45591 0.0
H1162 H 0.5953 0.40011 0.47593 0.0
H1163 H 0.63501 0.36253 0.55008 0.0
H1164 H 0.61632 0.32936 0.53068 0.0
H1165 H 0.65836 0.39081 0.50056 0.0
H1166 H 0.59964 0.3928 0.58747 0.0
H1167 H 0.56126 0.3918 0.60646 0.0
H1168 H 0.5482 0.44839 0.54108 0.0
H1169 H 0.58648 0.44954 0.52124 0.0
C1170 C 0.69677 0.48154 0.56637 0.0
C1171 C 0.68792 0.50151 0.55533 0.0
C1172 C 0.68526 0.46227 0.56074 0.0
C1173 C 0.66502 0.46252 0.54285 0.0
C1174 C 0.6562 0.48252 0.53188 0.0
C1175 C 0.66746 0.50184 0.5383 0.0
C1176 C 0.65295 0.44201 0.53565 0.0
C1177 C 0.63102 0.4407 0.54612 0.0
C1178 C 0.66292 0.42374 0.51899 0.0
C1179 C 0.68557 0.42435 0.50516 0.0
C1180 C 0.69212 0.44023 0.47962 0.0
C1181 C 0.71365 0.44105 0.46754 0.0
C1182 C 0.72872 0.42595 0.48056 0.0
C1183 C 0.72227 0.40991 0.50547 0.0
C1184 C 0.70078 0.40903 0.51768 0.0
C1185 C 0.58922 0.36583 0.47687 0.0
C1186 C 0.59509 0.34557 0.49167 0.0
C1187 C 0.59977 0.38474 0.48829 0.0
C1188 C 0.61654 0.38371 0.51439 0.0
C1189 C 0.62212 0.36361 0.52986 0.0
C1190 C 0.61133 0.34472 0.5189 0.0
C1191 C 0.62892 0.40351 0.52405 0.0
C1192 C 0.65085 0.40465 0.51395 0.0
C1193 C 0.61889 0.42169 0.54052 0.0
C1194 C 0.5959 0.42113 0.55259 0.0
C1195 C 0.58855 0.40492 0.57688 0.0
C1196 C 0.56682 0.40435 0.58785 0.0
C1197 C 0.55229 0.41999 0.57491 0.0
C1198 C 0.55948 0.43627 0.55105 0.0
C1199 C 0.5812 0.43691 0.53996 0.0
H1200 H 0.53547 0.41952 0.58343 0.0
H1201 H 0.74541 0.42665 0.4714 0.0
H1202 H 0.36602 0.42934 0.55089 0.0
H1203 H 0.39933 0.41013 0.53359 0.0
H1204 H 0.36163 0.36361 0.47222 0.0
H1205 H 0.32825 0.38306 0.48859 0.0
H1206 H 0.39338 0.34699 0.53033 0.0
H1207 H 0.38781 0.3933 0.42277 0.0
H1208 H 0.38385 0.42858 0.39155 0.0
H1209 H 0.44195 0.45158 0.44383 0.0
H1210 H 0.44609 0.41649 0.47583 0.0
H1211 H 0.4809 0.28773 0.4514 0.0
H1212 H 0.447 0.30713 0.4634 0.0
H1213 H 0.48326 0.36479 0.49096 0.0
H1214 H 0.51709 0.3457 0.47811 0.0
H1215 H 0.45132 0.37568 0.44888 0.0
H1216 H 0.45811 0.33307 0.5574 0.0
H1217 H 0.4632 0.30014 0.595 0.0
H1218 H 0.40488 0.27284 0.54982 0.0
H1219 H 0.39961 0.3055 0.5115 0.0
C1220 C 0.36487 0.41524 0.53318 0.0
C1221 C 0.34455 0.40774 0.521 0.0
C1222 C 0.38388 0.40428 0.5234 0.0
C1223 C 0.38287 0.38543 0.50182 0.0
C1224 C 0.36268 0.37813 0.48896 0.0
C1225 C 0.34368 0.38935 0.49808 0.0
C1226 C 0.40286 0.37292 0.49403 0.0
C1227 C 0.40593 0.353 0.51201 0.0
C1228 C 0.41951 0.3813 0.4714 0.0
C1229 C 0.41713 0.40234 0.45198 0.0
C1230 C 0.39963 0.40594 0.42788 0.0
C1231 C 0.39738 0.4259 0.40998 0.0
C1232 C 0.4126 0.44235 0.41577 0.0
C1233 C 0.43015 0.43884 0.4394 0.0
C1234 C 0.43248 0.41891 0.4574 0.0
C1235 C 0.48165 0.30449 0.46027 0.0
C1236 C 0.50171 0.31517 0.46371 0.0
C1237 C 0.46224 0.31557 0.46722 0.0
C1238 C 0.46252 0.33743 0.47833 0.0
C1239 C 0.48257 0.34799 0.48224 0.0
C1240 C 0.50193 0.33701 0.47498 0.0
C1241 C 0.44197 0.3495 0.48502 0.0
C1242 C 0.43879 0.36945 0.467 0.0
C1243 C 0.42544 0.34139 0.50843 0.0
C1244 C 0.4286 0.32164 0.53124 0.0
C1245 C 0.44647 0.31996 0.55521 0.0
C1246 C 0.44937 0.30136 0.57671 0.0
C1247 C 0.4344 0.28438 0.57472 0.0
C1248 C 0.41648 0.28599 0.55127 0.0
C1249 C 0.41352 0.30455 0.52967 0.0
H1250 H 0.43666 0.27 0.59141 0.0
H1251 H 0.41082 0.45778 0.40187 0.0
H1252 H 0.34514 0.48644 0.53225 0.0
H1253 H 0.3646 0.52008 0.51958 0.0
H1254 H 0.30801 0.55705 0.55052 0.0
H1255 H 0.28815 0.5233 0.56208 0.0
H1256 H 0.32591 0.57529 0.49341 0.0
H1257 H 0.35263 0.55113 0.6095 0.0
H1258 H 0.36808 0.5255 0.65456 0.0
H1259 H 0.42566 0.5195 0.58874 0.0
H1260 H 0.41047 0.54497 0.54304 0.0
H1261 H 0.38591 0.67395 0.52067 0.0
H1262 H 0.36652 0.64065 0.53741 0.0
H1263 H 0.41077 0.60313 0.4711 0.0
H1264 H 0.42989 0.63645 0.4533 0.0
H1265 H 0.39873 0.58648 0.54869 0.0
H1266 H 0.36928 0.61094 0.43145 0.0
H1267 H 0.35323 0.63849 0.39044 0.0
H1268 H 0.29945 0.64591 0.46463 0.0
H1269 H 0.3154 0.6186 0.50643 0.0
C1270 C 0.33679 0.50172 0.53631 0.0
C1271 C 0.31513 0.50217 0.54848 0.0
C1272 C 0.34799 0.52098 0.52922 0.0
C1273 C 0.33798 0.5412 0.53487 0.0
C1274 C 0.31616 0.5417 0.54612 0.0
C1275 C 0.30482 0.52238 0.55276 0.0
C1276 C 0.35037 0.5617 0.52913 0.0
C1277 C 0.34168 0.57779 0.50596 0.0
C1278 C 0.37108 0.56508 0.54524 0.0
C1279 C 0.38033 0.54981 0.57268 0.0
C1280 C 0.36853 0.54423 0.6045 0.0
C1281 C 0.37725 0.52975 0.63018 0.0
C1282 C 0.3978 0.52081 0.62447 0.0
C1283 C 0.40972 0.52641 0.59311 0.0
C1284 C 0.40108 0.5409 0.56733 0.0
C1285 C 0.39174 0.65857 0.51015 0.0
C1286 C 0.40942 0.65779 0.48564 0.0
C1287 C 0.38059 0.6396 0.5196 0.0
C1288 C 0.38718 0.61951 0.50531 0.0
C1289 C 0.40546 0.61852 0.48236 0.0
C1290 C 0.41633 0.63753 0.47222 0.0
C1291 C 0.37432 0.59968 0.5128 0.0
C1292 C 0.38292 0.58385 0.53634 0.0
C1293 C 0.35341 0.59671 0.49758 0.0
C1294 C 0.34367 0.61292 0.47228 0.0
C1295 C 0.35414 0.6186 0.43921 0.0
C1296 C 0.34504 0.63414 0.41578 0.0
C1297 C 0.32537 0.64402 0.42499 0.0
C1298 C 0.31472 0.63829 0.45758 0.0
C1299 C 0.32377 0.62276 0.48113 0.0
H1300 H 0.31834 0.65605 0.40684 0.0
H1301 H 0.40451 0.50959 0.64439 0.0
H1302 H 0.49315 0.65839 0.42706 0.0
H1303 H 0.52693 0.63915 0.439 0.0
H1304 H 0.55187 0.69505 0.4968 0.0
H1305 H 0.51826 0.71484 0.48331 0.0
H1306 H 0.58308 0.67809 0.45913 0.0
H1307 H 0.53071 0.64944 0.5428 0.0
H1308 H 0.49585 0.6333 0.56183 0.0
H1309 H 0.50907 0.57695 0.49595 0.0
H1310 H 0.54389 0.5929 0.47612 0.0
H1311 H 0.64209 0.59162 0.57846 0.0
H1312 H 0.60946 0.61084 0.56025 0.0
H1313 H 0.63549 0.61967 0.45082 0.0
H1314 H 0.66888 0.60097 0.46942 0.0
H1315 H 0.57893 0.60465 0.51468 0.0
H1316 H 0.61704 0.66757 0.41516 0.0
H1317 H 0.65203 0.68617 0.40538 0.0
H1318 H 0.6678 0.67808 0.51988 0.0
H1319 H 0.6328 0.65973 0.53041 0.0
C1320 C 0.50581 0.66662 0.44232 0.0
C1321 C 0.50296 0.68807 0.4546 0.0
C1322 C 0.52513 0.65556 0.44922 0.0
C1323 C 0.54183 0.66543 0.46951 0.0
C1324 C 0.53922 0.68704 0.48117 0.0
C1325 C 0.51999 0.69831 0.47359 0.0
C1326 C 0.56175 0.653 0.47912 0.0
C1327 C 0.58216 0.66202 0.47125 0.0
C1328 C 0.56066 0.63219 0.49562 0.0
C1329 C 0.53981 0.62246 0.5077 0.0
C1330 C 0.52612 0.63367 0.53219 0.0
C1331 C 0.50637 0.62455 0.54314 0.0
C1332 C 0.50022 0.60414 0.53003 0.0
C1333 C 0.51384 0.59277 0.50604 0.0
C1334 C 0.53359 0.60183 0.49496 0.0
C1335 C 0.64094 0.5975 0.55039 0.0
C1336 C 0.65825 0.59486 0.52547 0.0
C1337 C 0.62216 0.60848 0.53998 0.0
C1338 C 0.62004 0.61699 0.5043 0.0
C1339 C 0.6369 0.61364 0.47876 0.0
C1340 C 0.65592 0.60281 0.48933 0.0
C1341 C 0.6003 0.62966 0.49457 0.0
C1342 C 0.57988 0.62066 0.50236 0.0
C1343 C 0.60143 0.65082 0.47939 0.0
C1344 C 0.62241 0.66205 0.47343 0.0
C1345 C 0.62795 0.66983 0.43825 0.0
C1346 C 0.64779 0.68032 0.43258 0.0
C1347 C 0.66216 0.68323 0.46196 0.0
C1348 C 0.65669 0.67574 0.49711 0.0
C1349 C 0.63687 0.66528 0.50294 0.0
H1350 H 0.67752 0.69134 0.4575 0.0
H1351 H 0.48493 0.59711 0.53853 0.0
H1352 H 0.42049 0.36619 0.93399 0.0
H1353 H 0.40228 0.39971 0.95199 0.0
H1354 H 0.37851 0.3686 0.05058 0.0
H1355 H 0.39706 0.33508 0.03314 0.0
H1356 H 0.36071 0.40784 0.95968 0.0
H1357 H 0.37187 0.40613 0.11834 0.0
H1358 H 0.39849 0.39327 0.1642 0.0
H1359 H 0.44943 0.39844 0.08393 0.0
H1360 H 0.42318 0.41162 0.03776 0.0
H1361 H 0.28748 0.48186 0.04458 0.0
H1362 H 0.30825 0.44916 0.02958 0.0
H1363 H 0.3679 0.4834 0.05149 0.0
H1364 H 0.34738 0.516 0.06678 0.0
H1365 H 0.36885 0.4436 0.08141 0.0
H1366 H 0.35145 0.47527 0.9647 0.0
H1367 H 0.3273 0.49042 0.91698 0.0
H1368 H 0.29403 0.42941 0.90883 0.0
H1369 H 0.31772 0.414 0.95703 0.0
C1370 C 0.41163 0.36652 0.95977 0.0
C1371 C 0.41025 0.34791 0.98211 0.0
C1372 C 0.40111 0.38569 0.9699 0.0
C1373 C 0.38901 0.38672 0.00262 0.0
C1374 C 0.38796 0.36831 0.02541 0.0
C1375 C 0.39859 0.34913 0.01538 0.0
C1376 C 0.377 0.40687 0.01226 0.0
C1377 C 0.36249 0.41563 0.98632 0.0
C1378 C 0.37952 0.41727 0.04679 0.0
C1379 C 0.3955 0.40965 0.0745 0.0
C1380 C 0.38877 0.40461 0.11053 0.0
C1381 C 0.40379 0.39725 0.13657 0.0
C1382 C 0.42562 0.39497 0.12695 0.0
C1383 C 0.4325 0.40013 0.09131 0.0
C1384 C 0.41755 0.40752 0.06518 0.0
C1385 C 0.30501 0.48242 0.04632 0.0
C1386 C 0.31574 0.50158 0.05688 0.0
C1387 C 0.31686 0.46373 0.03763 0.0
C1388 C 0.33964 0.46388 0.03922 0.0
C1389 C 0.35035 0.48289 0.05018 0.0
C1390 C 0.33855 0.50155 0.05877 0.0
C1391 C 0.35242 0.44436 0.02902 0.0
C1392 C 0.36703 0.43573 0.05484 0.0
C1393 C 0.35037 0.43438 0.99406 0.0
C1394 C 0.33622 0.44354 0.96478 0.0
C1395 C 0.33887 0.46513 0.95296 0.0
C1396 C 0.32528 0.47376 0.9258 0.0
C1397 C 0.30912 0.4609 0.90994 0.0
C1398 C 0.30654 0.43937 0.92117 0.0
C1399 C 0.32004 0.43067 0.94842 0.0
H1400 H 0.29863 0.46761 0.88889 0.0
H1401 H 0.43722 0.38925 0.14713 0.0
H1402 H 0.36179 0.58676 0.08345 0.0
H1403 H 0.39542 0.60468 0.06599 0.0
H1404 H 0.3678 0.62136 0.96044 0.0
H1405 H 0.33375 0.60368 0.97801 0.0
H1406 H 0.42486 0.6 0.01655 0.0
H1407 H 0.38612 0.67079 0.93344 0.0
H1408 H 0.35195 0.69166 0.93224 0.0
H1409 H 0.34096 0.6766 0.04633 0.0
H1410 H 0.37515 0.65592 0.04826 0.0
H1411 H 0.50963 0.65525 0.92603 0.0
H1412 H 0.47614 0.63599 0.94089 0.0
H1413 H 0.45531 0.69001 0.00788 0.0
H1414 H 0.48835 0.7098 0.9914 0.0
H1415 H 0.42244 0.67635 0.97344 0.0
H1416 H 0.47668 0.64084 0.04484 0.0
H1417 H 0.5113 0.62206 0.05681 0.0
H1418 H 0.49211 0.57007 0.9851 0.0
H1419 H 0.45748 0.58869 0.97229 0.0
C1420 C 0.36283 0.5941 0.05637 0.0
C1421 C 0.34493 0.59394 0.03226 0.0
C1422 C 0.38216 0.60433 0.04641 0.0
C1423 C 0.38407 0.61474 0.01217 0.0
C1424 C 0.36657 0.61383 0.98734 0.0
C1425 C 0.34714 0.60361 0.99733 0.0
C1426 C 0.40416 0.62703 0.00313 0.0
C1427 C 0.42432 0.61667 0.00697 0.0
C1428 C 0.40358 0.64901 0.99177 0.0
C1429 C 0.38307 0.66159 0.99086 0.0
C1430 C 0.37643 0.67199 0.95827 0.0
C1431 C 0.35705 0.68379 0.95746 0.0
C1432 C 0.34425 0.68539 0.98914 0.0
C1433 C 0.35083 0.67528 0.02175 0.0
C1434 C 0.37019 0.6635 0.02271 0.0
C1435 C 0.49792 0.663 0.94397 0.0
C1436 C 0.50163 0.68399 0.95769 0.0
C1437 C 0.47879 0.65193 0.95261 0.0
C1438 C 0.46327 0.66133 0.9761 0.0
C1439 C 0.46696 0.68237 0.98967 0.0
C1440 C 0.48588 0.69365 0.98035 0.0
C1441 C 0.4432 0.64925 0.9864 0.0
C1442 C 0.42302 0.65965 0.98281 0.0
C1443 C 0.44383 0.62759 0.99953 0.0
C1444 C 0.46458 0.61626 0.00735 0.0
C1445 C 0.47991 0.62547 0.03144 0.0
C1446 C 0.49952 0.61485 0.0384 0.0
C1447 C 0.50393 0.59491 0.02165 0.0
C1448 C 0.48869 0.58553 0.99801 0.0
C1449 C 0.46905 0.5961 0.99091 0.0
H1450 H 0.51913 0.58672 0.02706 0.0
H1451 H 0.32925 0.69451 0.98844 0.0
H1452 H 0.58098 0.65196 0.02789 0.0
H1453 H 0.60033 0.61864 0.04489 0.0
H1454 H 0.63657 0.62193 0.94303 0.0
H1455 H 0.61589 0.65396 0.92494 0.0
H1456 H 0.62896 0.58352 0.95234 0.0
H1457 H 0.65701 0.63679 0.03556 0.0
H1458 H 0.6555 0.66559 0.08269 0.0
H1459 H 0.62552 0.62143 0.15876 0.0
H1460 H 0.6266 0.59242 0.11191 0.0
H1461 H 0.71566 0.51361 0.01684 0.0
H1462 H 0.69633 0.54738 0.00166 0.0
H1463 H 0.64208 0.52683 0.06792 0.0
H1464 H 0.66092 0.49292 0.08243 0.0
H1465 H 0.65996 0.57345 0.07736 0.0
H1466 H 0.63368 0.52024 0.98803 0.0
H1467 H 0.63893 0.49297 0.93911 0.0
H1468 H 0.67148 0.54031 0.87216 0.0
H1469 H 0.66684 0.56775 0.92106 0.0
C1470 C 0.59301 0.64538 0.00922 0.0
C1471 C 0.59694 0.65537 0.97514 0.0
C1472 C 0.60427 0.62648 0.01903 0.0
C1473 C 0.62039 0.61783 0.99567 0.0
C1474 C 0.62425 0.62804 0.96162 0.0
C1475 C 0.61247 0.64641 0.95129 0.0
C1476 C 0.63303 0.59805 0.00611 0.0
C1477 C 0.63596 0.58163 0.97959 0.0
C1478 C 0.64217 0.59516 0.04173 0.0
C1479 C 0.64169 0.6125 0.0701 0.0
C1480 C 0.64998 0.63326 0.06227 0.0
C1481 C 0.64922 0.64962 0.08894 0.0
C1482 C 0.64036 0.64536 0.12366 0.0
C1483 C 0.63234 0.62471 0.13183 0.0
C1484 C 0.63305 0.6083 0.10525 0.0
C1485 C 0.69966 0.51637 0.02828 0.0
C1486 C 0.68976 0.50062 0.05072 0.0
C1487 C 0.68866 0.53559 0.01953 0.0
C1488 C 0.66783 0.53951 0.03369 0.0
C1489 C 0.65816 0.52408 0.05681 0.0
C1490 C 0.6689 0.50469 0.06488 0.0
C1491 C 0.65577 0.55942 0.02358 0.0
C1492 C 0.65298 0.57569 0.05016 0.0
C1493 C 0.64736 0.5625 0.98775 0.0
C1494 C 0.65013 0.54598 0.95839 0.0
C1495 C 0.64218 0.52477 0.96307 0.0
C1496 C 0.645 0.50929 0.9353 0.0
C1497 C 0.65556 0.5149 0.90256 0.0
C1498 C 0.66327 0.53601 0.8975 0.0
C1499 C 0.66059 0.55151 0.92526 0.0
H1500 H 0.65776 0.50289 0.88112 0.0
H1501 H 0.63975 0.65806 0.14425 0.0
H1502 H 0.52279 0.29146 0.92608 0.0
H1503 H 0.55655 0.31123 0.93772 0.0
H1504 H 0.52051 0.36109 0.99469 0.0
H1505 H 0.4867 0.34201 0.98102 0.0
H1506 H 0.54858 0.37993 0.95593 0.0
H1507 H 0.55228 0.31943 0.03798 0.0
H1508 H 0.55201 0.28095 0.05659 0.0
H1509 H 0.60807 0.26897 0.98936 0.0
H1510 H 0.60843 0.30732 0.96985 0.0
H1511 H 0.63741 0.42424 0.05946 0.0
H1512 H 0.60422 0.4056 0.04015 0.0
H1513 H 0.64061 0.36935 0.95951 0.0
H1514 H 0.67386 0.38814 0.97822 0.0
H1515 H 0.61354 0.34369 0.00807 0.0
H1516 H 0.60919 0.40628 0.9287 0.0
H1517 H 0.60929 0.44554 0.91562 0.0
H1518 H 0.55371 0.4541 0.98547 0.0
H1519 H 0.55349 0.41493 0.99946 0.0
C1520 C 0.52214 0.30661 0.94117 0.0
C1521 C 0.50216 0.31521 0.95268 0.0
C1522 C 0.54146 0.31788 0.94799 0.0
C1523 C 0.54125 0.33758 0.96763 0.0
C1524 C 0.52122 0.34602 0.97936 0.0
C1525 C 0.50189 0.33506 0.97168 0.0
C1526 C 0.56175 0.34962 0.97558 0.0
C1527 C 0.56265 0.37196 0.96775 0.0
C1528 C 0.58039 0.33931 0.99045 0.0
C1529 C 0.58025 0.31623 0.00221 0.0
C1530 C 0.56446 0.30857 0.02701 0.0
C1531 C 0.5643 0.28678 0.03773 0.0
C1532 C 0.58 0.27252 0.02414 0.0
C1533 C 0.5959 0.28003 0.99984 0.0
C1534 C 0.59609 0.30179 0.98894 0.0
C1535 C 0.63831 0.41252 0.03726 0.0
C1536 C 0.65829 0.4077 0.02037 0.0
C1537 C 0.61934 0.40189 0.02628 0.0
C1538 C 0.61999 0.38607 0.99848 0.0
C1539 C 0.6398 0.38148 0.98107 0.0
C1540 C 0.65874 0.39236 0.99164 0.0
C1541 C 0.60012 0.37379 0.98858 0.0
C1542 C 0.5994 0.35147 0.99611 0.0
C1543 C 0.58152 0.38417 0.97419 0.0
C1544 C 0.58145 0.40769 0.96538 0.0
C1545 C 0.59709 0.41655 0.9415 0.0
C1546 C 0.59715 0.43879 0.93388 0.0
C1547 C 0.58155 0.45231 0.94977 0.0
C1548 C 0.5658 0.44361 0.97321 0.0
C1549 C 0.56569 0.42139 0.98097 0.0
H1550 H 0.58164 0.46953 0.94386 0.0
H1551 H 0.57986 0.25567 0.03249 0.0
H1552 H 0.20788 0.00216 0.64702 0.0
H1553 H 0.21382 0.02011 0.70594 0.0
H1554 H 0.272 0.98248 0.7226 0.0
H1555 H 0.26623 0.96442 0.66271 0.0
H1556 H 0.24118 0.98197 0.78279 0.0
H1557 H 0.2786 0.0334 0.70707 0.0
H1558 H 0.28326 0.05769 0.65365 0.0
H1559 H 0.22801 0.09501 0.68793 0.0
H1560 H 0.22282 0.07075 0.74129 0.0
H1561 H 0.2661 0.03683 0.94719 0.0
H1562 H 0.2693 0.0231 0.88456 0.0
H1563 H 0.21441 0.06185 0.85143 0.0
H1564 H 0.21108 0.07592 0.91446 0.0
H1565 H 0.24705 0.06172 0.79916 0.0
H1566 H 0.20711 0.01007 0.87025 0.0
H1567 H 0.19987 0.98566 0.9227 0.0
H1568 H 0.25666 0.94849 0.89613 0.0
H1569 H 0.26448 0.97293 0.8439 0.0
C1570 C 0.22209 0.99781 0.66299 0.0
C1571 C 0.23658 0.98182 0.6504 0.0
C1572 C 0.2255 0.00817 0.69658 0.0
C1573 C 0.24337 0.00268 0.7185 0.0
C1574 C 0.25814 0.98696 0.70589 0.0
C1575 C 0.25491 0.97676 0.67175 0.0
C1576 C 0.24556 0.01265 0.75545 0.0
C1577 C 0.24302 0.99934 0.7865 0.0
C1578 C 0.24707 0.03541 0.75999 0.0
C1579 C 0.25024 0.05015 0.72807 0.0
C1580 C 0.26734 0.04669 0.70308 0.0
C1581 C 0.2701 0.06047 0.67283 0.0
C1582 C 0.25592 0.07786 0.66736 0.0
C1583 C 0.23898 0.08153 0.6922 0.0
C1584 C 0.23614 0.06779 0.72248 0.0
C1585 C 0.25478 0.04267 0.92662 0.0
C1586 C 0.23819 0.05739 0.93596 0.0
C1587 C 0.25664 0.03472 0.8908 0.0
C1588 C 0.2419 0.04119 0.86353 0.0
C1589 C 0.22591 0.05661 0.87218 0.0
C1590 C 0.22402 0.06462 0.90818 0.0
C1591 C 0.24269 0.03104 0.82653 0.0
C1592 C 0.2456 0.04431 0.79552 0.0
C1593 C 0.2412 0.00825 0.82196 0.0
C1594 C 0.23653 0.9935 0.85338 0.0
C1595 C 0.21818 0.99683 0.87579 0.0
C1596 C 0.21395 0.98296 0.90545 0.0
C1597 C 0.22782 0.96557 0.91278 0.0
C1598 C 0.24595 0.962 0.89045 0.0
C1599 C 0.25029 0.97585 0.86081 0.0
H1600 H 0.2245 0.95482 0.93568 0.0
H1601 H 0.25807 0.08851 0.64392 0.0
H1602 H 0.97158 0.73376 0.33643 0.0
H1603 H 0.9895 0.72851 0.27645 0.0
H1604 H 0.00872 0.79583 0.27612 0.0
H1605 H 0.99068 0.80126 0.33468 0.0
H1606 H 0.99292 0.78581 0.21196 0.0
H1607 H 0.04449 0.75314 0.29603 0.0
H1608 H 0.05629 0.72727 0.34387 0.0
H1609 H 0.03974 0.6739 0.27317 0.0
H1610 H 0.02758 0.69948 0.22507 0.0
H1611 H 0.07309 0.79207 0.07547 0.0
H1612 H 0.0597 0.7889 0.13911 0.0
H1613 H 0.03103 0.72695 0.113 0.0
H1614 H 0.04387 0.73039 0.04924 0.0
H1615 H 0.05041 0.73116 0.18839 0.0
H1616 H 0.99901 0.76365 0.10477 0.0
H1617 H 0.9877 0.78931 0.05632 0.0
H1618 H 0.00404 0.84296 0.12651 0.0
H1619 H 0.0158 0.81757 0.17523 0.0
C1620 C 0.97968 0.74737 0.32351 0.0
C1621 C 0.97959 0.76792 0.34038 0.0
C1622 C 0.98998 0.74436 0.28932 0.0
C1623 C 1.00056 0.76178 0.27177 0.0
C1624 C 1.00058 0.78216 0.28887 0.0
C1625 C 0.99023 0.78521 0.32256 0.0
C1626 C 0.01133 0.75937 0.23525 0.0
C1627 C 0.00562 0.77396 0.20708 0.0
C1628 C 0.02754 0.74358 0.22831 0.0
C1629 C 0.0349 0.72821 0.25714 0.0
C1630 C 0.04321 0.73589 0.29081 0.0
C1631 C 0.04999 0.72128 0.31795 0.0
C1632 C 0.0487 0.69895 0.31161 0.0
C1633 C 0.04069 0.69119 0.27807 0.0
C1634 C 0.03386 0.70574 0.25086 0.0
C1635 C 0.06457 0.77749 0.08379 0.0
C1636 C 0.05947 0.76145 0.05781 0.0
C1637 C 0.05687 0.77571 0.11996 0.0
C1638 C 0.04428 0.75774 0.13057 0.0
C1639 C 0.04077 0.74088 0.10536 0.0
C1640 C 0.04806 0.74286 0.06905 0.0
C1641 C 0.03235 0.75798 0.166 0.0
C1642 C 0.0377 0.74295 0.19358 0.0
C1643 C 0.01579 0.77336 0.17254 0.0
C1644 C 0.00853 0.78871 0.14348 0.0
C1645 C 1.00039 0.78092 0.10975 0.0
C1646 C 0.99386 0.79542 0.08225 0.0
C1647 C 0.99521 0.81776 0.08826 0.0
C1648 C 0.00304 0.82565 0.12186 0.0
C1649 C 0.00963 0.81121 0.14944 0.0
H1650 H 0.99013 0.82896 0.06694 0.0
H1651 H 0.05396 0.68766 0.33265 0.0
H1652 H 0.79732 0.97545 0.95036 0.0
H1653 H 0.79427 0.98944 0.88771 0.0
H1654 H 0.74552 0.94129 0.86323 0.0
H1655 H 0.74929 0.92655 0.92609 0.0
H1656 H 0.77105 0.94909 0.80343 0.0
H1657 H 0.73068 0.9927 0.88828 0.0
H1658 H 0.72517 0.01372 0.94536 0.0
H1659 H 0.77496 0.05844 0.91245 0.0
H1660 H 0.78098 0.03753 0.85539 0.0
H1661 H 0.74116 0.01323 0.64575 0.0
H1662 H 0.73657 0.99538 0.70594 0.0
H1663 H 0.79119 0.03122 0.74861 0.0
H1664 H 0.79602 0.04871 0.68871 0.0
H1665 H 0.75638 0.02825 0.79836 0.0
H1666 H 0.79949 0.98255 0.71821 0.0
H1667 H 0.80601 0.96166 0.6613 0.0
H1668 H 0.75111 0.92117 0.68537 0.0
H1669 H 0.74402 0.94211 0.74214 0.0
C1670 C 0.78628 0.96755 0.93136 0.0
C1671 C 0.77343 0.95004 0.94299 0.0
C1672 C 0.78442 0.97565 0.89566 0.0
C1673 C 0.76916 0.96688 0.87111 0.0
C1674 C 0.75725 0.94845 0.88185 0.0
C1675 C 0.75944 0.94 0.91762 0.0
C1676 C 0.76499 0.97794 0.83534 0.0
C1677 C 0.76738 0.96629 0.80233 0.0
C1678 C 0.76036 1.00047 0.83381 0.0
C1679 C 0.75636 0.01346 0.86763 0.0
C1680 C 0.74051 0.00698 0.89326 0.0
C1681 C 0.7373 0.01887 0.92563 0.0
C1682 C 0.74974 0.03738 0.93255 0.0
C1683 C 0.76534 0.0441 0.90705 0.0
C1684 C 0.76863 0.03225 0.87466 0.0
C1685 C 0.75185 0.01759 0.66827 0.0
C1686 C 0.769 0.03225 0.66268 0.0
C1687 C 0.74931 0.00731 0.70248 0.0
C1688 C 0.76369 0.01184 0.73156 0.0
C1689 C 0.77996 0.02746 0.72653 0.0
C1690 C 0.78273 0.0374 0.69231 0.0
C1691 C 0.76289 0.9995 0.76663 0.0
C1692 C 0.75957 0.01095 0.79952 0.0
C1693 C 0.76663 0.97685 0.76797 0.0
C1694 C 0.77105 0.96407 0.73415 0.0
C1695 C 0.78869 0.96931 0.7112 0.0
C1696 C 0.79251 0.95745 0.679 0.0
C1697 C 0.77895 0.94014 0.66967 0.0
C1698 C 0.76158 0.93462 0.6926 0.0
C1699 C 0.75765 0.94648 0.72478 0.0
H1700 H 0.78193 0.93098 0.64472 0.0
H1701 H 0.74726 0.04654 0.95766 0.0
H1702 H 0.92096 0.22317 0.07432 0.0
H1703 H 0.93318 0.22743 0.13847 0.0
H1704 H 0.99023 0.26132 0.10048 0.0
H1705 H 0.97857 0.25651 0.03706 0.0
H1706 H 0.00214 0.23118 0.14473 0.0
H1707 H 0.94835 0.28908 0.15436 0.0
H1708 H 0.9119 0.30551 0.15035 0.0
H1709 H 0.88605 0.25482 0.21862 0.0
H1710 H 0.92251 0.23851 0.22403 0.0
H1711 H 0.04533 0.26432 0.31679 0.0
H1712 H 0.02619 0.26872 0.25759 0.0
H1713 H 0.97766 0.22278 0.29294 0.0
H1714 H 0.9969 0.21804 0.35139 0.0
H1715 H 0.9606 0.25911 0.25181 0.0
H1716 H 0.01555 0.20373 0.24661 0.0
H1717 H 0.0526 0.18954 0.25472 0.0
H1718 H 0.07659 0.23556 0.17575 0.0
H1719 H 0.0397 0.25048 0.16797 0.0
C1720 C 0.93594 0.23177 0.07985 0.0
C1721 C 0.94897 0.23917 0.05065 0.0
C1722 C 0.94288 0.23431 0.11651 0.0
C1723 C 0.96272 0.24468 0.12444 0.0
C1724 C 0.97503 0.25306 0.09522 0.0
C1725 C 0.96831 0.25026 0.05887 0.0
C1726 C 0.97184 0.24531 0.16249 0.0
C1727 C 0.99311 0.23766 0.16792 0.0
C1728 C 0.95999 0.25308 0.19319 0.0
C1729 C 0.93804 0.26249 0.18926 0.0
C1730 C 0.93485 0.2814 0.16833 0.0
C1731 C 0.91423 0.29073 0.16596 0.0
C1732 C 0.89663 0.28108 0.18386 0.0
C1733 C 0.89967 0.26224 0.20464 0.0
C1734 C 0.92033 0.25304 0.20762 0.0
C1735 C 0.03029 0.25565 0.31212 0.0
C1736 C 0.02255 0.24084 0.33835 0.0
C1737 C 0.01943 0.25808 0.27841 0.0
C1738 C 1.00057 0.24598 0.27092 0.0
C1739 C 0.9921 0.23231 0.29822 0.0
C1740 C 0.00314 0.22957 0.33147 0.0
C1741 C 0.99096 0.24563 0.23345 0.0
C1742 C 0.96962 0.25294 0.22834 0.0
C1743 C 0.00275 0.2376 0.20294 0.0
C1744 C 0.0249 0.22842 0.20708 0.0
C1745 C 0.02875 0.21098 0.23125 0.0
C1746 C 0.04973 0.20279 0.23575 0.0
C1747 C 0.06696 0.21166 0.21579 0.0
C1748 C 0.06323 0.22874 0.19125 0.0
C1749 C 0.04229 0.23709 0.18683 0.0
H1750 H 0.08318 0.20527 0.21927 0.0
H1751 H 0.88065 0.28827 0.18175 0.0
H1752 H 0.77603 0.95095 0.19542 0.0
H1753 H 0.76776 0.96984 0.2529 0.0
H1754 H 0.72768 0.01533 0.19351 0.0
H1755 H 0.73565 0.99599 0.13552 0.0
H1756 H 0.76137 0.03426 0.24011 0.0
H1757 H 0.70221 0.98481 0.24959 0.0
H1758 H 0.68423 0.94912 0.24671 0.0
H1759 H 0.72584 0.92532 0.33259 0.0
H1760 H 0.7443 0.96076 0.33563 0.0
H1761 H 0.75012 0.07963 0.42446 0.0
H1762 H 0.74162 0.06735 0.36148 0.0
H1763 H 0.76969 0.00483 0.386 0.0
H1764 H 0.77768 0.0167 0.44834 0.0
H1765 H 0.73218 0.99949 0.35299 0.0
H1766 H 0.79618 0.04407 0.33386 0.0
H1767 H 0.81719 0.07811 0.33591 0.0
H1768 H 0.7694 0.10945 0.2682 0.0
H1769 H 0.74795 0.07563 0.26615 0.0
C1770 C 0.76499 0.96464 0.19477 0.0
C1771 C 0.75632 0.97194 0.16122 0.0
C1772 C 0.76031 0.97543 0.22757 0.0
C1773 C 0.7471 0.99396 0.22746 0.0
C1774 C 0.73785 1.001 0.19412 0.0
C1775 C 0.74222 0.98987 0.16118 0.0
C1776 C 0.74454 0.00651 0.2621 0.0
C1777 C 0.75443 0.02698 0.26466 0.0
C1778 C 0.73589 0.99678 0.29416 0.0
C1779 C 0.72469 0.97546 0.29274 0.0
C1780 C 0.70762 0.97193 0.26772 0.0
C1781 C 0.69732 0.95175 0.26607 0.0
C1782 C 0.70389 0.93496 0.28943 0.0
C1783 C 0.72075 0.93834 0.31453 0.0
C1784 C 0.73111 0.9585 0.31628 0.0
C1785 C 0.7546 0.06335 0.41617 0.0
C1786 C 0.76446 0.0491 0.44141 0.0
C1787 C 0.74971 0.05633 0.38025 0.0
C1788 C 0.75492 0.03509 0.369 0.0
C1789 C 0.76522 0.02116 0.39406 0.0
C1790 C 0.76987 0.02803 0.42974 0.0
C1791 C 0.74984 0.02687 0.3314 0.0
C1792 C 0.73853 0.00715 0.32831 0.0
C1793 C 0.75749 0.03714 0.29899 0.0
C1794 C 0.77033 0.05744 0.30029 0.0
C1795 C 0.79006 0.05829 0.31969 0.0
C1796 C 0.80206 0.07752 0.3208 0.0
C1797 C 0.79459 0.09595 0.30232 0.0
C1798 C 0.77513 0.09517 0.28259 0.0
C1799 C 0.76305 0.07598 0.28144 0.0
H1800 H 0.80391 0.11083 0.30319 0.0
H1801 H 0.69591 0.91934 0.2881 0.0
H1802 H 0.07195 0.26742 0.56065 0.0
H1803 H 0.0575 0.27352 0.62314 0.0
H1804 H 0.02144 0.21362 0.6155 0.0
H1805 H 0.03504 0.20815 0.55304 0.0
H1806 H 0.99569 0.24473 0.63606 0.0
H1807 H 0.06839 0.2211 0.67216 0.0
H1808 H 0.10829 0.22429 0.67165 0.0
H1809 H 0.10368 0.28889 0.71527 0.0
H1810 H 0.06372 0.28614 0.71571 0.0
H1811 H 0.96728 0.20537 0.80675 0.0
H1812 H 0.98567 0.21331 0.74916 0.0
H1813 H 1.00102 0.27762 0.788 0.0
H1814 H 0.98256 0.26966 0.84678 0.0
H1815 H 0.0368 0.25501 0.75232 0.0
H1816 H 0.96346 0.27474 0.72681 0.0
H1817 H 0.92379 0.26965 0.72896 0.0
H1818 H 0.92969 0.21137 0.66492 0.0
H1819 H 0.96942 0.21591 0.66284 0.0
C1820 C 0.06142 0.25535 0.57295 0.0
C1821 C 0.0547 0.23722 0.55246 0.0
C1822 C 0.0531 0.25886 0.6085 0.0
C1823 C 0.0383 0.24406 0.62407 0.0
C1824 C 0.03263 0.22539 0.60406 0.0
C1825 C 0.04056 0.22214 0.56854 0.0
C1826 C 0.02749 0.24816 0.66012 0.0
C1827 C 0.00474 0.24694 0.66143 0.0
C1828 C 0.03912 0.25205 0.69313 0.0
C1829 C 0.06311 0.25349 0.69366 0.0
C1830 C 0.0759 0.23601 0.6815 0.0
C1831 C 0.09852 0.23774 0.68124 0.0
C1832 C 0.10851 0.2568 0.69334 0.0
C1833 C 0.09592 0.27414 0.7059 0.0
C1834 C 0.07329 0.2725 0.7062 0.0
C1835 C 0.97449 0.22126 0.80326 0.0
C1836 C 0.9734 0.23689 0.83144 0.0
C1837 C 0.985 0.22578 0.7702 0.0
C1838 C 0.99461 0.24608 0.76419 0.0
C1839 C 0.99369 0.26184 0.79214 0.0
C1840 C 0.983 0.25733 0.82551 0.0
C1841 C 0.00521 0.25036 0.72817 0.0
C1842 C 0.0278 0.2533 0.72679 0.0
C1843 C 0.99346 0.24798 0.69493 0.0
C1844 C 0.96946 0.24565 0.69478 0.0
C1845 C 0.95631 0.26082 0.71324 0.0
C1846 C 0.93381 0.25802 0.71447 0.0
C1847 C 0.92425 0.24017 0.69717 0.0
C1848 C 0.93713 0.22519 0.67832 0.0
C1849 C 0.95964 0.22789 0.67703 0.0
H1850 H 0.90687 0.23793 0.69841 0.0
H1851 H 0.12602 0.25812 0.69304 0.0
H1852 H 0.26571 0.97171 0.44496 0.0
H1853 H 0.26608 0.98391 0.38103 0.0
H1854 H 0.2181 0.93564 0.35334 0.0
H1855 H 0.21801 0.92298 0.41776 0.0
H1856 H 0.24765 0.94414 0.29501 0.0
H1857 H 0.20024 0.98272 0.37566 0.0
H1858 H 0.18979 0.00258 0.43193 0.0
H1859 H 0.23646 0.05219 0.40712 0.0
H1860 H 0.24749 0.0324 0.35102 0.0
H1861 H 0.19804 0.03953 0.17889 0.0
H1862 H 0.2014 0.01885 0.23561 0.0
H1863 H 0.26515 0.99737 0.20252 0.0
H1864 H 0.2614 0.01734 0.14444 0.0
H1865 H 0.22546 0.02151 0.29078 0.0
H1866 H 0.27699 0.9482 0.24177 0.0
H1867 H 0.28345 0.927 0.18515 0.0
H1868 H 0.22051 0.94465 0.14447 0.0
H1869 H 0.21346 0.96568 0.20115 0.0
C1870 C 0.25568 0.96329 0.42503 0.0
C1871 C 0.2416 0.94663 0.43624 0.0
C1872 C 0.2559 0.97027 0.38855 0.0
C1873 C 0.24176 0.96101 0.3627 0.0
C1874 C 0.22907 0.94305 0.37298 0.0
C1875 C 0.22904 0.93582 0.40968 0.0
C1876 C 0.23836 0.97206 0.32687 0.0
C1877 C 0.24278 0.96104 0.29391 0.0
C1878 C 0.23146 0.99396 0.32555 0.0
C1879 C 0.22484 0.00596 0.35927 0.0
C1880 C 0.20842 0.99776 0.38236 0.0
C1881 C 0.20237 0.00902 0.41422 0.0
C1882 C 0.21248 0.02862 0.42312 0.0
C1883 C 0.22866 0.03699 0.40019 0.0
C1884 C 0.23482 0.02577 0.36836 0.0
C1885 C 0.21286 0.0305 0.18362 0.0
C1886 C 0.22947 0.0301 0.15705 0.0
C1887 C 0.21474 0.01861 0.21617 0.0
C1888 C 0.2334 0.00624 0.22331 0.0
C1889 C 0.25035 0.00632 0.19734 0.0
C1890 C 0.2483 0.01793 0.1643 0.0
C1891 C 0.23506 0.99378 0.25838 0.0
C1892 C 0.2303 0.00459 0.29149 0.0
C1893 C 0.24096 0.97153 0.25957 0.0
C1894 C 0.24481 0.9587 0.22558 0.0
C1895 C 0.26447 0.94748 0.22083 0.0
C1896 C 0.26823 0.93551 0.18873 0.0
C1897 C 0.2524 0.93455 0.16121 0.0
C1898 C 0.23274 0.94548 0.16581 0.0
C1899 C 0.22886 0.95744 0.1979 0.0
H1900 H 0.25536 0.9253 0.13635 0.0
H1901 H 0.20773 0.03735 0.44769 0.0
H1902 H 0.04352 0.74033 0.82646 0.0
H1903 H 0.02516 0.7355 0.76664 0.0
H1904 H 0.97982 0.78613 0.79492 0.0
H1905 H 0.99841 0.79142 0.85382 0.0
H1906 H 0.96046 0.74868 0.76048 0.0
H1907 H 0.01714 0.80044 0.74535 0.0
H1908 H 0.05425 0.8152 0.74796 0.0
H1909 H 0.07624 0.7654 0.67416 0.0
H1910 H 0.03934 0.74992 0.67195 0.0
H1911 H 0.92255 0.77744 0.57769 0.0
H1912 H 0.9345 0.77553 0.64227 0.0
H1913 H 0.98765 0.73404 0.61027 0.0
H1914 H 0.97616 0.73636 0.54616 0.0
H1915 H 0.00227 0.76723 0.64801 0.0
H1916 H 0.94364 0.71519 0.66571 0.0
H1917 H 0.90559 0.70261 0.66416 0.0
H1918 H 0.88637 0.75666 0.7312 0.0
H1919 H 0.92429 0.76945 0.73345 0.0
C1920 C 0.02942 0.75012 0.82003 0.0
C1921 C 0.02237 0.76625 0.84456 0.0
C1922 C 0.01902 0.74744 0.78592 0.0
C1923 C 1.00119 0.76054 0.77638 0.0
C1924 C 0.99351 0.77585 0.80176 0.0
C1925 C 0.00417 0.77888 0.8353 0.0
C1926 C 0.99129 0.75929 0.73918 0.0
C1927 C 0.96955 0.75278 0.73583 0.0
C1928 C 0.00315 0.76478 0.70714 0.0
C1929 C 0.02551 0.77375 0.70905 0.0
C1930 C 0.02995 0.79238 0.73019 0.0
C1931 C 0.05094 0.80093 0.7315 0.0
C1932 C 0.06762 0.7912 0.71136 0.0
C1933 C 0.06333 0.77287 0.68989 0.0
C1934 C 0.04238 0.76417 0.68866 0.0
C1935 C 0.93644 0.7675 0.5847 0.0
C1936 C 0.94855 0.75724 0.55689 0.0
C1937 C 0.94328 0.76639 0.62159 0.0
C1938 C 0.96209 0.75471 0.63119 0.0
C1939 C 0.97325 0.74333 0.6036 0.0
C1940 C 0.96662 0.74464 0.56694 0.0
C1941 C 0.97154 0.75587 0.66894 0.0
C1942 C 0.99321 0.76273 0.6725 0.0
C1943 C 0.95953 0.75096 0.70112 0.0
C1944 C 0.93674 0.74337 0.69945 0.0
C1945 C 0.93126 0.72446 0.67989 0.0
C1946 C 0.90975 0.71727 0.67895 0.0
C1947 C 0.89358 0.72891 0.69731 0.0
C1948 C 0.8989 0.74769 0.71691 0.0
C1949 C 0.92041 0.75486 0.71816 0.0
H1950 H 0.87693 0.72333 0.69648 0.0
H1951 H 0.08383 0.79793 0.71222 0.0
H1952 H 0.71647 0.52043 0.4555 0.0
H1953 H 0.72178 0.50681 0.39322 0.0
H1954 H 0.75928 0.5637 0.366 0.0
H1955 H 0.7534 0.57788 0.42878 0.0
H1956 H 0.73413 0.55162 0.3086 0.0
H1957 H 0.78411 0.51584 0.38765 0.0
H1958 H 0.79661 0.49545 0.44212 0.0
H1959 H 0.75665 0.44142 0.41094 0.0
H1960 H 0.74332 0.46171 0.35709 0.0
H1961 H 0.76469 0.49086 0.14551 0.0
H1962 H 0.77037 0.50988 0.20447 0.0
H1963 H 0.72264 0.46866 0.25603 0.0
H1964 H 0.71657 0.45011 0.19738 0.0
H1965 H 0.76119 0.47599 0.29884 0.0
H1966 H 0.7067 0.51491 0.22754 0.0
H1967 H 0.69406 0.53484 0.17264 0.0
H1968 H 0.74409 0.58242 0.18856 0.0
H1969 H 0.75726 0.56252 0.24325 0.0
C1970 C 0.72571 0.53018 0.43621 0.0
C1971 C 0.73474 0.55011 0.4471 0.0
C1972 C 0.72884 0.52231 0.40063 0.0
C1973 C 0.74151 0.53389 0.37522 0.0
C1974 C 0.74967 0.55438 0.38532 0.0
C1975 C 0.74626 0.56248 0.42107 0.0
C1976 C 0.74639 0.52406 0.33867 0.0
C1977 C 0.74053 0.53528 0.30646 0.0
C1978 C 0.75468 0.50265 0.33573 0.0
C1979 C 0.76261 0.49039 0.36835 0.0
C1980 C 0.7778 0.4997 0.39261 0.0
C1981 C 0.78501 0.48816 0.42346 0.0
C1982 C 0.77735 0.46719 0.43013 0.0
C1983 C 0.76248 0.45771 0.40594 0.0
C1984 C 0.75508 0.46923 0.37525 0.0
C1985 C 0.7558 0.48562 0.16969 0.0
C1986 C 0.74022 0.46905 0.16706 0.0
C1987 C 0.75894 0.49656 0.20318 0.0
C1988 C 0.74681 0.49075 0.23447 0.0
C1989 C 0.73215 0.47339 0.23221 0.0
C1990 C 0.7287 0.46282 0.19875 0.0
C1991 C 0.74824 0.50326 0.26928 0.0
C1992 C 0.75531 0.49252 0.30109 0.0
C1993 C 0.74117 0.52505 0.27181 0.0
C1994 C 0.73315 0.53708 0.23915 0.0
C1995 C 0.71514 0.5295 0.21912 0.0
C1996 C 0.70785 0.54081 0.18808 0.0
C1997 C 0.71831 0.55985 0.17704 0.0
C1998 C 0.73604 0.56764 0.19709 0.0
C1999 C 0.74342 0.55635 0.2281 0.0
H2000 H 0.71264 0.56859 0.15302 0.0
H2001 H 0.78298 0.45825 0.45397 0.0
H2002 H 0.52172 0.28121 0.55616 0.0
H2003 H 0.51047 0.27735 0.61986 0.0
H2004 H 0.57253 0.24938 0.64742 0.0
H2005 H 0.58413 0.25318 0.58252 0.0
H2006 H 0.53315 0.22668 0.67658 0.0
H2007 H 0.56603 0.29712 0.67637 0.0
H2008 H 0.57354 0.33349 0.65106 0.0
H2009 H 0.50602 0.34986 0.6594 0.0
H2010 H 0.49803 0.31349 0.68425 0.0
H2011 H 0.49354 0.24003 0.8651 0.0
H2012 H 0.51501 0.23612 0.80839 0.0
H2013 H 0.4703 0.27838 0.75146 0.0
H2014 H 0.44947 0.28287 0.80814 0.0
H2015 H 0.50962 0.29276 0.74359 0.0
H2016 H 0.47536 0.22234 0.73346 0.0
H2017 H 0.4656 0.18557 0.75451 0.0
H2018 H 0.53307 0.16889 0.76267 0.0
H2019 H 0.54323 0.20568 0.74211 0.0
C2020 C 0.53309 0.27421 0.5756 0.0
C2021 C 0.55385 0.26748 0.56427 0.0
C2022 C 0.52661 0.27207 0.61208 0.0
C2023 C 0.54068 0.26319 0.63834 0.0
C2024 C 0.56146 0.25631 0.62744 0.0
C2025 C 0.56811 0.25863 0.59056 0.0
C2026 C 0.5331 0.26161 0.677 0.0
C2027 C 0.5285 0.24108 0.69185 0.0
C2028 C 0.52663 0.28043 0.69635 0.0
C2029 C 0.53144 0.30253 0.68215 0.0
C2030 C 0.55277 0.30844 0.67268 0.0
C2031 C 0.55711 0.32906 0.65841 0.0
C2032 C 0.54027 0.34397 0.65363 0.0
C2033 C 0.51905 0.3383 0.66318 0.0
C2034 C 0.51462 0.3177 0.67743 0.0
C2035 C 0.48799 0.24786 0.84009 0.0
C2036 C 0.46988 0.2617 0.84079 0.0
C2037 C 0.5003 0.24572 0.80775 0.0
C2038 C 0.49439 0.2571 0.77566 0.0
C2039 C 0.47535 0.26964 0.77591 0.0
C2040 C 0.46334 0.27205 0.80819 0.0
C2041 C 0.50874 0.25779 0.7427 0.0
C2042 C 0.51467 0.27826 0.72897 0.0
C2043 C 0.51616 0.23892 0.72432 0.0
C2044 C 0.51006 0.21684 0.73672 0.0
C2045 C 0.48812 0.2109 0.74008 0.0
C2046 C 0.48251 0.19004 0.75184 0.0
C2047 C 0.49871 0.17493 0.76005 0.0
C2048 C 0.52054 0.18062 0.75639 0.0
C2049 C 0.52624 0.20147 0.74467 0.0
H2050 H 0.49433 0.15878 0.76915 0.0
H2051 H 0.54365 0.35992 0.64255 0.0
H2052 H 0.23516 0.50856 0.14515 0.0
H2053 H 0.23023 0.48713 0.20194 0.0
H2054 H 0.27741 0.52733 0.2572 0.0
H2055 H 0.28248 0.54837 0.20104 0.0
H2056 H 0.28798 0.48478 0.26059 0.0
H2057 H 0.22401 0.52954 0.27875 0.0
H2058 H 0.18812 0.54418 0.26191 0.0
H2059 H 0.16179 0.47969 0.25962 0.0
H2060 H 0.19763 0.46464 0.27598 0.0
H2061 H 0.28242 0.48023 0.45116 0.0
H2062 H 0.27722 0.49024 0.38683 0.0
H2063 H 0.24355 0.43006 0.36696 0.0
H2064 H 0.24903 0.41964 0.43204 0.0
H2065 H 0.22299 0.47304 0.33873 0.0
H2066 H 0.28678 0.42931 0.33054 0.0
H2067 H 0.32281 0.416 0.34955 0.0
H2068 H 0.3496 0.47964 0.33394 0.0
H2069 H 0.31366 0.49344 0.31541 0.0
C2070 C 0.24394 0.51314 0.16981 0.0
C2071 C 0.2593 0.53001 0.16873 0.0
C2072 C 0.24121 0.50084 0.20214 0.0
C2073 C 0.25369 0.50545 0.23367 0.0
C2074 C 0.26783 0.52328 0.23311 0.0
C2075 C 0.27063 0.53537 0.20105 0.0
C2076 C 0.25376 0.49101 0.26649 0.0
C2077 C 0.27373 0.48219 0.27759 0.0
C2078 C 0.23504 0.48689 0.28798 0.0
C2079 C 0.21355 0.49594 0.27805 0.0
C2080 C 0.21062 0.51846 0.27427 0.0
C2081 C 0.19028 0.52684 0.2649 0.0
C2082 C 0.1727 0.51287 0.25955 0.0
C2083 C 0.17543 0.49049 0.26367 0.0
C2084 C 0.19575 0.48203 0.27299 0.0
C2085 C 0.27394 0.46904 0.43319 0.0
C2086 C 0.26613 0.44913 0.44664 0.0
C2087 C 0.27097 0.47481 0.39643 0.0
C2088 C 0.25994 0.46094 0.37225 0.0
C2089 C 0.25202 0.441 0.38535 0.0
C2090 C 0.25531 0.43501 0.42231 0.0
C2091 C 0.25737 0.4677 0.33329 0.0
C2092 C 0.23705 0.47509 0.32107 0.0
C2093 C 0.27578 0.47063 0.31066 0.0
C2094 C 0.29748 0.46243 0.32173 0.0
C2095 C 0.30031 0.44052 0.33144 0.0
C2096 C 0.32073 0.43287 0.34209 0.0
C2097 C 0.33847 0.44697 0.34296 0.0
C2098 C 0.33584 0.46874 0.33322 0.0
C2099 C 0.31545 0.47647 0.32259 0.0
H2100 H 0.35426 0.44101 0.35108 0.0
H2101 H 0.15696 0.51939 0.25232 0.0
H2102 H 0.42825 0.71662 0.58304 0.0
H2103 H 0.44091 0.72153 0.64662 0.0
H2104 H 0.48579 0.77078 0.60973 0.0
H2105 H 0.47409 0.76487 0.54626 0.0
H2106 H 0.50641 0.74573 0.65118 0.0
H2107 H 0.43744 0.7814 0.66624 0.0
H2108 H 0.39756 0.78507 0.66261 0.0
H2109 H 0.38992 0.72916 0.73194 0.0
H2110 H 0.42968 0.72509 0.73574 0.0
H2111 H 0.54165 0.76813 0.83498 0.0
H2112 H 0.52249 0.77553 0.77657 0.0
H2113 H 0.48426 0.71757 0.79169 0.0
H2114 H 0.50328 0.7101 0.84913 0.0
H2115 H 0.46014 0.75159 0.76256 0.0
H2116 H 0.52913 0.71566 0.74577 0.0
H2117 H 0.56881 0.71336 0.75271 0.0
H2118 H 0.57659 0.77009 0.68536 0.0
H2119 H 0.53683 0.77348 0.67974 0.0
C2120 C 0.44057 0.72869 0.58878 0.0
C2121 C 0.4503 0.74027 0.55988 0.0
C2122 C 0.44775 0.73162 0.62514 0.0
C2123 C 0.46427 0.7467 0.63329 0.0
C2124 C 0.47319 0.75894 0.60437 0.0
C2125 C 0.46644 0.75561 0.56809 0.0
C2126 C 0.47354 0.7486 0.67119 0.0
C2127 C 0.49623 0.74752 0.67537 0.0
C2128 C 0.4604 0.75043 0.70312 0.0
C2129 C 0.4365 0.75285 0.70093 0.0
C2130 C 0.42721 0.76982 0.68042 0.0
C2131 C 0.40466 0.77198 0.67839 0.0
C2132 C 0.39124 0.75731 0.69688 0.0
C2133 C 0.40034 0.7405 0.71758 0.0
C2134 C 0.42287 0.73828 0.71974 0.0
C2135 C 0.52885 0.75729 0.82603 0.0
C2136 C 0.52412 0.73842 0.84616 0.0
C2137 C 0.51796 0.76148 0.79278 0.0
C2138 C 0.50206 0.74698 0.77972 0.0
C2139 C 0.49641 0.72897 0.80121 0.0
C2140 C 0.50744 0.72464 0.83388 0.0
C2141 C 0.4928 0.7489 0.74212 0.0
C2142 C 0.4702 0.75038 0.7381 0.0
C2143 C 0.506 0.74747 0.71032 0.0
C2144 C 0.52994 0.74502 0.71279 0.0
C2145 C 0.53926 0.7278 0.73276 0.0
C2146 C 0.56178 0.72628 0.73645 0.0
C2147 C 0.57522 0.74148 0.71933 0.0
C2148 C 0.56615 0.75832 0.69864 0.0
C2149 C 0.54361 0.76013 0.69538 0.0
H2150 H 0.59266 0.7402 0.72211 0.0
H2151 H 0.37379 0.75901 0.69525 0.0
H2152 H 0.25237 0.57981 0.93106 0.0
H2153 H 0.24947 0.5679 0.86636 0.0
H2154 H 0.28545 0.5099 0.89277 0.0
H2155 H 0.28817 0.52148 0.95678 0.0
H2156 H 0.29942 0.52985 0.82825 0.0
H2157 H 0.23205 0.50952 0.88891 0.0
H2158 H 0.19767 0.517 0.9212 0.0
H2159 H 0.17546 0.55459 0.82896 0.0
H2160 H 0.21003 0.548 0.79669 0.0
H2161 H 0.28636 0.45084 0.69694 0.0
H2162 H 0.28285 0.47032 0.75521 0.0
H2163 H 0.23957 0.51623 0.70363 0.0
H2164 H 0.24242 0.49604 0.64523 0.0
H2165 H 0.22814 0.50941 0.7749 0.0
H2166 H 0.29323 0.52797 0.7117 0.0
H2167 H 0.3272 0.5209 0.67789 0.0
H2168 H 0.35342 0.48823 0.77248 0.0
H2169 H 0.31947 0.49478 0.80668 0.0
C2170 C 0.25984 0.56467 0.92281 0.0
C2171 C 0.27042 0.55154 0.94893 0.0
C2172 C 0.25808 0.55783 0.88599 0.0
C2173 C 0.26715 0.53794 0.87485 0.0
C2174 C 0.27832 0.52527 0.90073 0.0
C2175 C 0.2798 0.53189 0.93736 0.0
C2176 C 0.26486 0.52966 0.83662 0.0
C2177 C 0.28384 0.52539 0.81658 0.0
C2178 C 0.24447 0.52448 0.82091 0.0
C2179 C 0.22379 0.52857 0.84063 0.0
C2180 C 0.21999 0.51968 0.87575 0.0
C2181 C 0.20045 0.52375 0.89406 0.0
C2182 C 0.18444 0.53639 0.87726 0.0
C2183 C 0.18792 0.54493 0.84208 0.0
C2184 C 0.20751 0.5411 0.82382 0.0
C2185 C 0.27566 0.46477 0.69831 0.0
C2186 C 0.26471 0.47202 0.66672 0.0
C2187 C 0.27379 0.476 0.7315 0.0
C2188 C 0.2615 0.49514 0.73351 0.0
C2189 C 0.24931 0.50162 0.70262 0.0
C2190 C 0.25085 0.49005 0.66937 0.0
C2191 C 0.26278 0.50891 0.76716 0.0
C2192 C 0.24369 0.51426 0.78622 0.0
C2193 C 0.28307 0.51536 0.78191 0.0
C2194 C 0.30373 0.51178 0.7617 0.0
C2195 C 0.3062 0.5192 0.72525 0.0
C2196 C 0.32546 0.51528 0.706 0.0
C2197 C 0.34245 0.50409 0.72302 0.0
C2198 C 0.34024 0.49688 0.75935 0.0
C2199 C 0.321 0.50072 0.77869 0.0
H2200 H 0.35733 0.50101 0.70808 0.0
H2201 H 0.1693 0.53949 0.89144 0.0
H2202 H 0.58203 0.74839 0.07777 0.0
H2203 H 0.56938 0.75472 0.14134 0.0
H2204 H 0.51081 0.71897 0.11771 0.0
H2205 H 0.52305 0.71301 0.05485 0.0
H2206 H 0.50118 0.7568 0.14756 0.0
H2207 H 0.55176 0.69839 0.17183 0.0
H2208 H 0.58773 0.68087 0.17189 0.0
H2209 H 0.6133 0.73265 0.23811 0.0
H2210 H 0.57751 0.75064 0.238 0.0
H2211 H 0.45537 0.71489 0.3093 0.0
H2212 H 0.47498 0.72108 0.25174 0.0
H2213 H 0.51416 0.76987 0.30492 0.0
H2214 H 0.4941 0.76399 0.36291 0.0
H2215 H 0.53754 0.73458 0.26354 0.0
H2216 H 0.483 0.78894 0.24669 0.0
H2217 H 0.44571 0.80342 0.24732 0.0
H2218 H 0.42643 0.75605 0.16698 0.0
H2219 H 0.46352 0.74106 0.16624 0.0
C2220 C 0.56666 0.7416 0.08652 0.0
C2221 C 0.55344 0.73038 0.06134 0.0
C2222 C 0.55941 0.74528 0.12272 0.0
C2223 C 0.53901 0.73753 0.13418 0.0
C2224 C 0.52643 0.72541 0.10942 0.0
C2225 C 0.53351 0.72193 0.0735 0.0
C2226 C 0.52991 0.7425 0.17119 0.0
C2227 C 0.50918 0.75195 0.1729 0.0
C2228 C 0.54057 0.73681 0.20438 0.0
C2229 C 0.56206 0.72601 0.20447 0.0
C2230 C 0.56511 0.70615 0.18611 0.0
C2231 C 0.58545 0.69611 0.18621 0.0
C2232 C 0.60281 0.70568 0.20488 0.0
C2233 C 0.59985 0.72528 0.22358 0.0
C2234 C 0.57954 0.73541 0.22351 0.0
C2235 C 0.4679 0.72722 0.30856 0.0
C2236 C 0.47316 0.73906 0.3404 0.0
C2237 C 0.47911 0.73071 0.27574 0.0
C2238 C 0.49604 0.74587 0.27416 0.0
C2239 C 0.50114 0.75808 0.30568 0.0
C2240 C 0.48956 0.75488 0.33857 0.0
C2241 C 0.50858 0.74808 0.23951 0.0
C2242 C 0.52987 0.73998 0.23823 0.0
C2243 C 0.49834 0.75469 0.20654 0.0
C2244 C 0.47605 0.76382 0.20654 0.0
C2245 C 0.47078 0.78152 0.22932 0.0
C2246 C 0.44968 0.78983 0.22967 0.0
C2247 C 0.43371 0.78065 0.20723 0.0
C2248 C 0.43882 0.76315 0.18433 0.0
C2249 C 0.45989 0.75477 0.18388 0.0
H2250 H 0.41738 0.7871 0.20757 0.0
H2251 H 0.61854 0.69788 0.20493 0.0
H2252 H 0.76576 0.47267 0.96204 0.0
H2253 H 0.77125 0.48597 0.89942 0.0
H2254 H 0.72367 0.44036 0.85928 0.0
H2255 H 0.71881 0.42629 0.92228 0.0
H2256 H 0.75544 0.44562 0.80962 0.0
H2257 H 0.71056 0.49245 0.88186 0.0
H2258 H 0.70131 0.51499 0.93576 0.0
H2259 H 0.75398 0.55808 0.91066 0.0
H2260 H 0.76417 0.5353 0.85752 0.0
H2261 H 0.714 0.50515 0.65805 0.0
H2262 H 0.72073 0.48598 0.7157 0.0
H2263 H 0.77502 0.52812 0.73816 0.0
H2264 H 0.76845 0.54737 0.67948 0.0
H2265 H 0.7432 0.52483 0.7961 0.0
H2266 H 0.78585 0.47766 0.71998 0.0
H2267 H 0.79299 0.45466 0.66573 0.0
H2268 H 0.74032 0.41275 0.69622 0.0
H2269 H 0.73265 0.43567 0.75039 0.0
C2270 C 0.75671 0.46524 0.93976 0.0
C2271 C 0.74162 0.44868 0.94694 0.0
C2272 C 0.75982 0.47289 0.904 0.0
C2273 C 0.74743 0.46462 0.87478 0.0
C2274 C 0.7333 0.44711 0.88147 0.0
C2275 C 0.7305 0.43909 0.91737 0.0
C2276 C 0.74811 0.47538 0.83809 0.0
C2277 C 0.75261 0.4629 0.80665 0.0
C2278 C 0.74469 0.49805 0.83422 0.0
C2279 C 0.7383 0.51199 0.86588 0.0
C2280 C 0.72032 0.50661 0.888 0.0
C2281 C 0.71491 0.51942 0.91845 0.0
C2282 C 0.72701 0.53798 0.92655 0.0
C2283 C 0.74463 0.54369 0.90434 0.0
C2284 C 0.75029 0.53079 0.87414 0.0
C2285 C 0.72758 0.51017 0.67501 0.0
C2286 C 0.74068 0.52778 0.6645 0.0
C2287 C 0.73146 0.49912 0.70785 0.0
C2288 C 0.7484 0.50556 0.73113 0.0
C2289 C 0.7619 0.52286 0.7204 0.0
C2290 C 0.75824 0.53376 0.68696 0.0
C2291 C 0.75064 0.49509 0.76777 0.0
C2292 C 0.74641 0.50761 0.79922 0.0
C2293 C 0.75388 0.47245 0.77151 0.0
C2294 C 0.75859 0.45849 0.73915 0.0
C2295 C 0.77569 0.46363 0.71499 0.0
C2296 C 0.77985 0.45058 0.68427 0.0
C2297 C 0.76709 0.43227 0.67749 0.0
C2298 C 0.75019 0.42694 0.70149 0.0
C2299 C 0.74595 0.43993 0.73225 0.0
H2300 H 0.77033 0.4222 0.65368 0.0
H2301 H 0.72275 0.54794 0.95 0.0
H2302 H 0.49879 0.27978 0.3667 0.0
H2303 H 0.47998 0.27598 0.3075 0.0
H2304 H 0.53775 0.24813 0.2598 0.0
H2305 H 0.55651 0.25164 0.31946 0.0
H2306 H 0.5208 0.28542 0.22283 0.0
H2307 H 0.49559 0.21674 0.27041 0.0
H2308 H 0.47796 0.193 0.31619 0.0
H2309 H 0.4186 0.22883 0.30475 0.0
H2310 H 0.43597 0.25299 0.25926 0.0
H2311 H 0.48657 0.25884 0.04721 0.0
H2312 H 0.49918 0.25661 0.11034 0.0
H2313 H 0.43629 0.27693 0.14941 0.0
H2314 H 0.42318 0.27892 0.08536 0.0
H2315 H 0.45364 0.24468 0.19267 0.0
H2316 H 0.47619 0.3127 0.14666 0.0
H2317 H 0.49219 0.33913 0.10356 0.0
H2318 H 0.55449 0.30881 0.11567 0.0
H2319 H 0.53875 0.2818 0.15813 0.0
C2320 C 0.5072 0.27227 0.34377 0.0
C2321 C 0.52892 0.26575 0.34738 0.0
C2322 C 0.49649 0.27012 0.31007 0.0
C2323 C 0.50746 0.26171 0.27938 0.0
C2324 C 0.529 0.25455 0.2833 0.0
C2325 C 0.53964 0.25641 0.31726 0.0
C2326 C 0.49716 0.26249 0.24253 0.0
C2327 C 0.50635 0.27622 0.21596 0.0
C2328 C 0.47764 0.25139 0.23446 0.0
C2329 C 0.46716 0.23681 0.26168 0.0
C2330 C 0.47884 0.21968 0.27789 0.0
C2331 C 0.46888 0.20612 0.30374 0.0
C2332 C 0.44719 0.20944 0.31344 0.0
C2333 C 0.43541 0.22629 0.29724 0.0
C2334 C 0.4453 0.23991 0.27139 0.0
C2335 C 0.47527 0.26283 0.06905 0.0
C2336 C 0.45388 0.26934 0.06113 0.0
C2337 C 0.48257 0.26155 0.10524 0.0
C2338 C 0.46883 0.26701 0.13454 0.0
C2339 C 0.44719 0.27277 0.12709 0.0
C2340 C 0.43975 0.27394 0.09056 0.0
C2341 C 0.47764 0.26718 0.17259 0.0
C2342 C 0.46813 0.25384 0.19947 0.0
C2343 C 0.49665 0.27903 0.18134 0.0
C2344 C 0.50622 0.29508 0.15539 0.0
C2345 C 0.49325 0.31149 0.13982 0.0
C2346 C 0.50228 0.32659 0.11551 0.0
C2347 C 0.52433 0.32562 0.10682 0.0
C2348 C 0.53739 0.30951 0.12237 0.0
C2349 C 0.52842 0.29428 0.14654 0.0
H2350 H 0.5313 0.33742 0.08816 0.0
H2351 H 0.43951 0.19892 0.33347 0.0
H2352 H 0.43717 0.20054 0.9811 0.0
H2353 H 0.41746 0.16847 0.00411 0.0
H2354 H 0.35665 0.20014 0.98113 0.0
H2355 H 0.37582 0.23161 0.95738 0.0
H2356 H 0.36514 0.1835 0.05927 0.0
H2357 H 0.36653 0.16426 0.92772 0.0
H2358 H 0.38568 0.15508 0.87011 0.0
H2359 H 0.41726 0.10179 0.9243 0.0
H2360 H 0.39849 0.11088 0.98241 0.0
H2361 H 0.26879 0.1277 0.05539 0.0
H2362 H 0.30193 0.1484 0.04843 0.0
H2363 H 0.33938 0.08925 0.05039 0.0
H2364 H 0.30553 0.0681 0.05639 0.0
H2365 H 0.35194 0.11397 0.99417 0.0
H2366 H 0.3439 0.12756 0.12135 0.0
H2367 H 0.32477 0.136 0.17928 0.0
H2368 H 0.30765 0.19884 0.13732 0.0
H2369 H 0.32642 0.19071 0.07892 0.0
C2370 C 0.41961 0.20046 0.9802 0.0
C2371 C 0.40816 0.21881 0.96754 0.0
C2372 C 0.40839 0.18218 0.99354 0.0
C2373 C 0.38559 0.18208 0.99472 0.0
C2374 C 0.37423 0.19995 0.98077 0.0
C2375 C 0.38531 0.21795 0.96704 0.0
C2376 C 0.37312 0.16409 0.01193 0.0
C2377 C 0.36232 0.16822 0.04525 0.0
C2378 C 0.37014 0.14384 0.99437 0.0
C2379 C 0.38138 0.13845 0.9595 0.0
C2380 C 0.37775 0.15075 0.92746 0.0
C2381 C 0.38849 0.14552 0.89469 0.0
C2382 C 0.40276 0.12792 0.89358 0.0
C2383 C 0.40626 0.11546 0.92522 0.0
C2384 C 0.39557 0.12064 0.95807 0.0
C2385 C 0.28409 0.11904 0.05524 0.0
C2386 C 0.28453 0.09626 0.05655 0.0
C2387 C 0.30315 0.13096 0.05143 0.0
C2388 C 0.32334 0.12052 0.04932 0.0
C2389 C 0.32402 0.09772 0.05217 0.0
C2390 C 0.30473 0.08565 0.05601 0.0
C2391 C 0.34306 0.13374 0.04088 0.0
C2392 C 0.35524 0.12884 0.00914 0.0
C2393 C 0.34754 0.15324 0.06022 0.0
C2394 C 0.33658 0.15848 0.09565 0.0
C2395 C 0.336 0.14316 0.1244 0.0
C2396 C 0.32521 0.1479 0.15734 0.0
C2397 C 0.31499 0.16794 0.16197 0.0
C2398 C 0.31561 0.18333 0.13371 0.0
C2399 C 0.32638 0.17869 0.10071 0.0
H2400 H 0.3066 0.17155 0.18745 0.0
H2401 H 0.41104 0.12389 0.86818 0.0
H2402 H 0.20108 0.56534 0.01749 0.0
H2403 H 0.16862 0.5857 0.99889 0.0
H2404 H 0.1918 0.64156 0.05873 0.0
H2405 H 0.22378 0.62133 0.07787 0.0
H2406 H 0.14904 0.63963 0.0639 0.0
H2407 H 0.20267 0.63323 0.96623 0.0
H2408 H 0.22548 0.61273 0.92255 0.0
H2409 H 0.16846 0.5852 0.87318 0.0
H2410 H 0.14539 0.60508 0.91714 0.0
H2411 H 0.1233 0.72563 0.92124 0.0
H2412 H 0.14362 0.69315 0.93795 0.0
H2413 H 0.08676 0.66672 0.99068 0.0
H2414 H 0.0663 0.69945 0.97449 0.0
H2415 H 0.14202 0.64969 0.92869 0.0
H2416 H 0.1036 0.64359 0.07231 0.0
H2417 H 0.08244 0.66642 0.11517 0.0
H2418 H 0.11291 0.72359 0.07162 0.0
H2419 H 0.13452 0.70107 0.02903 0.0
C2420 C 0.19894 0.58175 0.0275 0.0
C2421 C 0.21517 0.59176 0.04886 0.0
C2422 C 0.18045 0.59345 0.01662 0.0
C2423 C 0.17791 0.61535 0.02682 0.0
C2424 C 0.19334 0.62475 0.05034 0.0
C2425 C 0.21172 0.61315 0.06116 0.0
C2426 C 0.16055 0.62929 0.01061 0.0
C2427 C 0.1473 0.64154 0.03432 0.0
C2428 C 0.15838 0.63214 0.97199 0.0
C2429 C 0.17232 0.6204 0.94529 0.0
C2430 C 0.19502 0.62264 0.94626 0.0
C2431 C 0.20801 0.6111 0.92148 0.0
C2432 C 0.19846 0.5975 0.89526 0.0
C2433 C 0.17589 0.59555 0.89365 0.0
C2434 C 0.16285 0.60694 0.91852 0.0
C2435 C 0.11492 0.71274 0.9357 0.0
C2436 C 0.09321 0.71532 0.9469 0.0
C2437 C 0.12659 0.69409 0.94514 0.0
C2438 C 0.11687 0.67761 0.96614 0.0
C2439 C 0.09471 0.67935 0.97489 0.0
C2440 C 0.08298 0.69803 0.96539 0.0
C2441 C 0.13063 0.66003 0.98197 0.0
C2442 C 0.14332 0.64727 0.95823 0.0
C2443 C 0.13261 0.65702 0.02057 0.0
C2444 C 0.12046 0.67065 0.04721 0.0
C2445 C 0.10587 0.66102 0.07208 0.0
C2446 C 0.0938 0.67391 0.0963 0.0
C2447 C 0.09626 0.69645 0.09601 0.0
C2448 C 0.11097 0.70614 0.07175 0.0
C2449 C 0.12314 0.69332 0.04759 0.0
H2450 H 0.08681 0.70641 0.11462 0.0
H2451 H 0.20854 0.58857 0.87611 0.0
H2452 H 0.70197 0.93552 0.00912 0.0
H2453 H 0.66882 0.91533 0.99356 0.0
H2454 H 0.6922 0.86043 0.05566 0.0
H2455 H 0.72495 0.88042 0.07153 0.0
H2456 H 0.66541 0.87896 0.95389 0.0
H2457 H 0.65166 0.83127 0.09072 0.0
H2458 H 0.65472 0.83759 0.15763 0.0
H2459 H 0.64695 0.90609 0.14061 0.0
H2460 H 0.64352 0.90017 0.07365 0.0
H2461 H 0.62208 0.77471 0.92955 0.0
H2462 H 0.64174 0.80788 0.94399 0.0
H2463 H 0.58584 0.83258 0.00187 0.0
H2464 H 0.56599 0.79901 0.98781 0.0
H2465 H 0.62127 0.83685 0.04312 0.0
H2466 H 0.60271 0.85617 0.92084 0.0
H2467 H 0.59821 0.85135 0.85381 0.0
H2468 H 0.667 0.84312 0.84153 0.0
H2469 H 0.6719 0.84757 0.90857 0.0
C2470 C 0.69979 0.91934 0.02014 0.0
C2471 C 0.71615 0.90961 0.04158 0.0
C2472 C 0.6809 0.90775 0.01101 0.0
C2473 C 0.67788 0.88636 0.02358 0.0
C2474 C 0.69389 0.87699 0.04604 0.0
C2475 C 0.71272 0.88845 0.05497 0.0
C2476 C 0.65895 0.87305 0.01135 0.0
C2477 C 0.65561 0.86993 0.97341 0.0
C2478 C 0.64574 0.86159 0.03672 0.0
C2479 C 0.64745 0.86526 0.07708 0.0
C2480 C 0.65046 0.84767 0.10125 0.0
C2481 C 0.65229 0.85119 0.1392 0.0
C2482 C 0.65108 0.87223 0.15335 0.0
C2483 C 0.64796 0.8898 0.1296 0.0
C2484 C 0.64609 0.88637 0.09163 0.0
C2485 C 0.61376 0.78731 0.94482 0.0
C2486 C 0.59242 0.78412 0.95756 0.0
C2487 C 0.62504 0.80639 0.95293 0.0
C2488 C 0.6153 0.82289 0.97387 0.0
C2489 C 0.59372 0.82012 0.98561 0.0
C2490 C 0.58232 0.80099 0.97732 0.0
C2491 C 0.62842 0.84205 0.98569 0.0
C2492 C 0.63074 0.8462 0.02357 0.0
C2493 C 0.64047 0.85467 0.96024 0.0
C2494 C 0.63765 0.85211 0.91982 0.0
C2495 C 0.61687 0.8532 0.90389 0.0
C2496 C 0.61425 0.85055 0.86588 0.0
C2497 C 0.63231 0.84691 0.84343 0.0
C2498 C 0.65303 0.84595 0.85895 0.0
C2499 C 0.65574 0.84857 0.89696 0.0
H2500 H 0.63024 0.84485 0.81401 0.0
H2501 H 0.65252 0.87493 0.18274 0.0
H2502 H 0.80488 0.43472 0.03404 0.0
H2503 H 0.83796 0.41482 0.01757 0.0
H2504 H 0.80686 0.35461 0.04742 0.0
H2505 H 0.77437 0.37427 0.06512 0.0
H2506 H 0.84695 0.35124 0.06445 0.0
H2507 H 0.80789 0.37527 0.95664 0.0
H2508 H 0.79117 0.40256 0.91579 0.0
H2509 H 0.85315 0.43308 0.90051 0.0
H2510 H 0.87017 0.40614 0.94178 0.0
H2511 H 0.8775 0.27492 0.92849 0.0
H2512 H 0.8585 0.3077 0.94742 0.0
H2513 H 0.91898 0.3364 0.98145 0.0
H2514 H 0.93833 0.30315 0.96356 0.0
H2515 H 0.87095 0.36024 0.93471 0.0
H2516 H 0.90857 0.3309 0.04775 0.0
H2517 H 0.92099 0.2977 0.07939 0.0
H2518 H 0.856 0.27265 0.07829 0.0
H2519 H 0.84339 0.30535 0.04527 0.0
C2520 C 0.80529 0.4173 0.03794 0.0
C2521 C 0.7868 0.40612 0.0505 0.0
C2522 C 0.82418 0.4059 0.02821 0.0
C2523 C 0.82483 0.38309 0.03042 0.0
C2524 C 0.80687 0.37215 0.04526 0.0
C2525 C 0.78817 0.38348 0.05525 0.0
C2526 C 0.84325 0.37025 0.01485 0.0
C2527 C 0.85242 0.35358 0.03631 0.0
C2528 C 0.85037 0.37289 0.97787 0.0
C2529 C 0.84024 0.38888 0.95265 0.0
C2530 C 0.81792 0.38788 0.94474 0.0
C2531 C 0.80839 0.40328 0.92151 0.0
C2532 C 0.82108 0.41959 0.90566 0.0
C2533 C 0.84334 0.42047 0.91289 0.0
C2534 C 0.85293 0.40515 0.9362 0.0
C2535 C 0.88696 0.2883 0.93932 0.0
C2536 C 0.90947 0.28618 0.94508 0.0
C2537 C 0.87601 0.3071 0.94995 0.0
C2538 C 0.88729 0.32434 0.96619 0.0
C2539 C 0.90999 0.32317 0.96911 0.0
C2540 C 0.92101 0.30417 0.9588 0.0
C2541 C 0.8747 0.34177 0.98459 0.0
C2542 C 0.86623 0.35881 0.96342 0.0
C2543 C 0.86787 0.33927 0.02154 0.0
C2544 C 0.8751 0.32046 0.04382 0.0
C2545 C 0.89697 0.31825 0.0541 0.0
C2546 C 0.90406 0.29949 0.07212 0.0
C2547 C 0.8893 0.28305 0.08077 0.0
C2548 C 0.86742 0.28538 0.07151 0.0
C2549 C 0.86031 0.30399 0.05305 0.0
H2550 H 0.89483 0.26854 0.09473 0.0
H2551 H 0.81367 0.4315 0.88771 0.0
H2552 H 0.70078 0.06615 0.53139 0.0
H2553 H 0.66787 0.08711 0.51784 0.0
H2554 H 0.70079 0.14592 0.54995 0.0
H2555 H 0.73314 0.12519 0.56471 0.0
H2556 H 0.66117 0.14928 0.57037 0.0
H2557 H 0.69698 0.12767 0.45752 0.0
H2558 H 0.7119 0.10115 0.41332 0.0
H2559 H 0.6489 0.07229 0.4011 0.0
H2560 H 0.63368 0.09849 0.44563 0.0
H2561 H 0.62663 0.22907 0.43952 0.0
H2562 H 0.64645 0.19641 0.4568 0.0
H2563 H 0.58727 0.1672 0.49583 0.0
H2564 H 0.56712 0.20023 0.47931 0.0
H2565 H 0.63369 0.14456 0.44201 0.0
H2566 H 0.59981 0.16915 0.56229 0.0
H2567 H 0.58865 0.19999 0.60144 0.0
H2568 H 0.65271 0.227 0.59356 0.0
H2569 H 0.66408 0.19649 0.55385 0.0
C2570 C 0.70083 0.08347 0.53634 0.0
C2571 C 0.71975 0.09396 0.54878 0.0
C2572 C 0.68204 0.09549 0.52827 0.0
C2573 C 0.6819 0.11823 0.53209 0.0
C2574 C 0.70037 0.12845 0.5466 0.0
C2575 C 0.71899 0.11651 0.55491 0.0
C2576 C 0.66335 0.13181 0.51893 0.0
C2577 C 0.65498 0.1479 0.54247 0.0
C2578 C 0.65521 0.13037 0.48239 0.0
C2579 C 0.66426 0.11485 0.45521 0.0
C2580 C 0.68635 0.11559 0.44555 0.0
C2581 C 0.69485 0.10063 0.42044 0.0
C2582 C 0.68137 0.085 0.40451 0.0
C2583 C 0.65933 0.08437 0.41353 0.0
C2584 C 0.65075 0.09927 0.43869 0.0
C2585 C 0.61764 0.21562 0.45119 0.0
C2586 C 0.59525 0.21746 0.4584 0.0
C2587 C 0.62905 0.19691 0.46094 0.0
C2588 C 0.61838 0.1795 0.47788 0.0
C2589 C 0.59581 0.18055 0.48292 0.0
C2590 C 0.58432 0.19941 0.47334 0.0
C2591 C 0.63152 0.16156 0.49365 0.0
C2592 C 0.63922 0.1451 0.47039 0.0
C2593 C 0.63933 0.1628 0.53019 0.0
C2594 C 0.63271 0.18068 0.55499 0.0
C2595 C 0.61145 0.18174 0.5688 0.0
C2596 C 0.60509 0.19914 0.59107 0.0
C2597 C 0.61995 0.21545 0.59994 0.0
C2598 C 0.64121 0.21436 0.58665 0.0
C2599 C 0.64762 0.19703 0.56428 0.0
H2600 H 0.615 0.22892 0.61716 0.0
H2601 H 0.68799 0.07341 0.38511 0.0
H2602 H 0.11965 0.28132 0.41621 0.0
H2603 H 0.14063 0.31266 0.43645 0.0
H2604 H 0.08689 0.33387 0.50352 0.0
H2605 H 0.06579 0.3022 0.48365 0.0
H2606 H 0.13835 0.35558 0.43519 0.0
H2607 H 0.10854 0.35334 0.58591 0.0
H2608 H 0.09169 0.32773 0.62978 0.0
H2609 H 0.11969 0.27404 0.57132 0.0
H2610 H 0.13699 0.29932 0.52752 0.0
H2611 H 0.20063 0.43664 0.52524 0.0
H2612 H 0.16793 0.41626 0.50826 0.0
H2613 H 0.1944 0.35895 0.5596 0.0
H2614 H 0.22664 0.37921 0.57733 0.0
H2615 H 0.1524 0.3592 0.56973 0.0
H2616 H 0.20038 0.36879 0.46537 0.0
H2617 H 0.22163 0.39015 0.42062 0.0
H2618 H 0.16368 0.42269 0.38511 0.0
H2619 H 0.14209 0.4015 0.42977 0.0
C2620 C 0.11208 0.29287 0.43467 0.0
C2621 C 0.09107 0.28913 0.44849 0.0
C2622 C 0.12411 0.31086 0.44619 0.0
C2623 C 0.11552 0.3255 0.472 0.0
C2624 C 0.09399 0.32265 0.48396 0.0
C2625 C 0.08187 0.30463 0.47231 0.0
C2626 C 0.12988 0.34247 0.48833 0.0
C2627 C 0.14114 0.35658 0.46467 0.0
C2628 C 0.13394 0.34358 0.52677 0.0
C2629 C 0.1238 0.32823 0.55316 0.0
C2630 C 0.11113 0.33607 0.58249 0.0
C2631 C 0.10152 0.32162 0.60735 0.0
C2632 C 0.10457 0.29928 0.60326 0.0
C2633 C 0.1173 0.29135 0.57439 0.0
C2634 C 0.12699 0.30573 0.54953 0.0
C2635 C 0.19923 0.41986 0.53374 0.0
C2636 C 0.21642 0.40954 0.55233 0.0
C2637 C 0.18058 0.40815 0.52374 0.0
C2638 C 0.17881 0.38589 0.53198 0.0
C2639 C 0.1953 0.37604 0.55276 0.0
C2640 C 0.21384 0.38768 0.56278 0.0
C2641 C 0.16093 0.37226 0.51657 0.0
C2642 C 0.1491 0.35867 0.54037 0.0
C2643 C 0.15681 0.37114 0.47817 0.0
C2644 C 0.16969 0.38377 0.45116 0.0
C2645 C 0.19221 0.38059 0.44815 0.0
C2646 C 0.20431 0.39266 0.4228 0.0
C2647 C 0.19404 0.40788 0.40019 0.0
C2648 C 0.17162 0.41095 0.40273 0.0
C2649 C 0.15944 0.39889 0.42799 0.0
H2650 H 0.20343 0.41723 0.38062 0.0
H2651 H 0.09712 0.28812 0.62252 0.0
H2652 H 0.43664 0.80318 0.4773 0.0
H2653 H 0.41608 0.83615 0.49198 0.0
H2654 H 0.35835 0.80727 0.44608 0.0
H2655 H 0.37875 0.77473 0.43058 0.0
H2656 H 0.35864 0.84997 0.4326 0.0
H2657 H 0.37127 0.80271 0.53923 0.0
H2658 H 0.39644 0.78336 0.58077 0.0
H2659 H 0.426 0.84383 0.61126 0.0
H2660 H 0.4012 0.86349 0.56952 0.0
H2661 H 0.27685 0.88194 0.57658 0.0
H2662 H 0.30908 0.86089 0.56052 0.0
H2663 H 0.33499 0.9158 0.50151 0.0
H2664 H 0.30277 0.93705 0.5175 0.0
H2665 H 0.35456 0.86438 0.56709 0.0
H2666 H 0.35345 0.89499 0.41835 0.0
H2667 H 0.32848 0.91359 0.37552 0.0
H2668 H 0.2739 0.88435 0.42978 0.0
H2669 H 0.29857 0.86529 0.47245 0.0
C2670 C 0.41972 0.80409 0.46943 0.0
C2671 C 0.4093 0.78615 0.45323 0.0
C2672 C 0.40793 0.82292 0.47806 0.0
C2673 C 0.38552 0.82405 0.47084 0.0
C2674 C 0.37556 0.80681 0.45211 0.0
C2675 C 0.38728 0.78811 0.44343 0.0
C2676 C 0.37177 0.84188 0.48592 0.0
C2677 C 0.35802 0.85333 0.46193 0.0
C2678 C 0.37068 0.84621 0.52427 0.0
C2679 C 0.38455 0.83452 0.55107 0.0
C2680 C 0.38312 0.81186 0.55486 0.0
C2681 C 0.39735 0.80084 0.57834 0.0
C2682 C 0.41288 0.81237 0.59843 0.0
C2683 C 0.41401 0.83494 0.59555 0.0
C2684 C 0.39987 0.84603 0.57203 0.0
C2685 C 0.28964 0.88975 0.56096 0.0
C2686 C 0.28709 0.91114 0.54804 0.0
C2687 C 0.30811 0.8777 0.55191 0.0
C2688 C 0.32432 0.88667 0.52942 0.0
C2689 C 0.3226 0.90851 0.51869 0.0
C2690 C 0.30419 0.92066 0.52801 0.0
C2691 C 0.34145 0.87236 0.51375 0.0
C2692 C 0.35564 0.86145 0.53766 0.0
C2693 C 0.3428 0.86837 0.47535 0.0
C2694 C 0.32785 0.87894 0.44882 0.0
C2695 C 0.33613 0.89244 0.42096 0.0
C2696 C 0.32203 0.90306 0.39673 0.0
C2697 C 0.29961 0.90023 0.40002 0.0
C2698 C 0.29126 0.88659 0.42733 0.0
C2699 C 0.30529 0.87587 0.45152 0.0
H2700 H 0.28872 0.90856 0.38138 0.0
H2701 H 0.42406 0.80382 0.6162 0.0
H2702 H 0.87979 0.72702 0.42108 0.0
H2703 H 0.8587 0.69485 0.43676 0.0
H2704 H 0.91609 0.66443 0.48088 0.0
H2705 H 0.93734 0.69682 0.46582 0.0
H2706 H 0.85802 0.65123 0.42444 0.0
H2707 H 0.90206 0.64104 0.56157 0.0
H2708 H 0.92714 0.66233 0.60046 0.0
H2709 H 0.89632 0.72136 0.56572 0.0
H2710 H 0.87085 0.7004 0.52712 0.0
H2711 H 0.80114 0.56637 0.51487 0.0
H2712 H 0.83335 0.58679 0.49537 0.0
H2713 H 0.81104 0.6424 0.55671 0.0
H2714 H 0.77903 0.62217 0.57634 0.0
H2715 H 0.85525 0.63915 0.5597 0.0
H2716 H 0.79832 0.63731 0.46745 0.0
H2717 H 0.7728 0.61884 0.42551 0.0
H2718 H 0.82612 0.58835 0.36968 0.0
H2719 H 0.85196 0.60641 0.4117 0.0
C2720 C 0.8881 0.71332 0.43336 0.0
C2721 C 0.91023 0.71469 0.44271 0.0
C2722 C 0.87599 0.69485 0.44218 0.0
C2723 C 0.88569 0.67735 0.46063 0.0
C2724 C 0.90818 0.67786 0.46709 0.0
C2725 C 0.92035 0.69638 0.45828 0.0
C2726 C 0.87171 0.6601 0.47693 0.0
C2727 C 0.85767 0.64833 0.45393 0.0
C2728 C 0.87089 0.65658 0.51552 0.0
C2729 C 0.88473 0.66916 0.54123 0.0
C2730 C 0.90049 0.65854 0.5626 0.0
C2731 C 0.9148 0.67055 0.58449 0.0
C2732 C 0.91343 0.69318 0.58529 0.0
C2733 C 0.89743 0.70384 0.5649 0.0
C2734 C 0.88303 0.6919 0.5431 0.0
C2735 C 0.80342 0.58273 0.52506 0.0
C2736 C 0.78742 0.5927 0.54692 0.0
C2737 C 0.82179 0.59444 0.5137 0.0
C2738 C 0.8245 0.61626 0.52415 0.0
C2739 C 0.80935 0.62563 0.54823 0.0
C2740 C 0.79098 0.61404 0.55933 0.0
C2741 C 0.84159 0.63015 0.50716 0.0
C2742 C 0.85605 0.64151 0.5301 0.0
C2743 C 0.84251 0.6336 0.46854 0.0
C2744 C 0.82704 0.62301 0.44295 0.0
C2745 C 0.80459 0.62656 0.44638 0.0
C2746 C 0.79007 0.61617 0.42259 0.0
C2747 C 0.79784 0.60239 0.39501 0.0
C2748 C 0.82014 0.599 0.3911 0.0
C2749 C 0.83472 0.6093 0.41489 0.0
H2750 H 0.78658 0.59439 0.37659 0.0
H2751 H 0.92478 0.70247 0.60169 0.0
loop_
_geom_bond_atom_site_label_1
_geom_bond_atom_site_label_2
_geom_bond_distance
_geom_bond_site_symmetry_2
_ccdc_geom_bond_type
Fe0 O2 1.918 . S
Fe0 O5 1.997 . S
Fe0 O6 2.002 . S
Fe0 O11 1.976 . S
Fe0 O14 1.996 . S
Fe1 O2 1.918 . S
Fe1 O9 1.997 . S
Fe1 O12 1.996 . S
Fe1 O16 1.976 . S
Fe1 O19 2.002 1_554 S
O2 Fe0 1.918 . S
O2 Fe1 1.918 . S
O2 Fe3 1.918 . S
Fe3 O2 1.918 . S
Fe3 O4 2.002 . S
Fe3 O13 1.976 . S
Fe3 O17 1.996 . S
Fe3 O20 1.997 1_554 S
O4 Fe3 2.002 . S
O4 C21 1.295 . S
O5 Fe0 1.997 . S
O5 C21 1.235 . S
O6 Fe0 2.002 . S
O6 C7 1.295 . S
C7 O6 1.295 . S
C7 O9 1.235 . S
C8 O13 1.287 . S
C8 O14 1.255 . S
O9 Fe1 1.997 . S
O9 C7 1.235 . S
C10 O16 1.287 . S
C10 O17 1.255 . S
O11 Fe0 1.976 . S
O11 C18 1.287 . S
O12 Fe1 1.996 . S
O12 C18 1.255 . S
O13 Fe3 1.976 . S
O13 C8 1.287 . S
O14 Fe0 1.996 . S
O14 C8 1.255 . S
C15 O19 1.295 . S
C15 O20 1.235 . S
O16 Fe1 1.976 . S
O16 C10 1.287 . S
O17 Fe3 1.996 . S
O17 C10 1.255 . S
C18 O11 1.287 . S
C18 O12 1.255 . S
O19 Fe1 2.002 1_556 S
O19 C15 1.295 . S
O20 Fe3 1.997 1_556 S
O20 C15 1.235 . S
C21 O4 1.295 . S
C21 O5 1.235 . S
Fe22 O24 1.918 . S
Fe22 O27 1.997 . S
Fe22 O28 2.002 1_556 S
Fe22 O33 1.976 . S
Fe22 O36 1.996 . S
Fe23 O24 1.918 . S
Fe23 O31 1.997 1_556 S
Fe23 O34 1.996 . S
Fe23 O38 1.976 . S
Fe23 O41 2.002 . S
O24 Fe22 1.918 . S
O24 Fe23 1.918 . S
O24 Fe25 1.918 . S
Fe25 O24 1.918 . S
Fe25 O26 2.002 . S
Fe25 O35 1.976 . S
Fe25 O39 1.996 . S
Fe25 O42 1.997 . S
O26 Fe25 2.002 . S
O26 C43 1.295 . S
O27 Fe22 1.997 . S
O27 C43 1.235 . S
O28 Fe22 2.002 1_554 S
O28 C29 1.295 . S
C29 O28 1.295 . S
C29 O31 1.235 . S
C30 O35 1.287 . S
C30 O36 1.255 . S
O31 Fe23 1.997 1_554 S
O31 C29 1.235 . S
C32 O38 1.287 . S
C32 O39 1.255 . S
O33 Fe22 1.976 . S
O33 C40 1.287 . S
O34 Fe23 1.996 . S
O34 C40 1.255 . S
O35 Fe25 1.976 . S
O35 C30 1.287 . S
O36 Fe22 1.996 . S
O36 C30 1.255 . S
C37 O41 1.295 . S
C37 O42 1.235 . S
O38 Fe23 1.976 . S
O38 C32 1.287 . S
O39 Fe25 1.996 . S
O39 C32 1.255 . S
C40 O33 1.287 . S
C40 O34 1.255 . S
O41 Fe23 2.002 . S
O41 C37 1.295 . S
O42 Fe25 1.997 . S
O42 C37 1.235 . S
C43 O26 1.295 . S
C43 O27 1.235 . S
Fe44 O46 1.918 . S
Fe44 O49 1.997 1_554 S
Fe44 O50 2.002 . S
Fe44 O55 1.976 . S
Fe44 O58 1.996 . S
Fe45 O46 1.918 . S
Fe45 O53 1.997 . S
Fe45 O56 1.996 . S
Fe45 O60 1.976 . S
Fe45 O63 2.002 . S
O46 Fe44 1.918 . S
O46 Fe45 1.918 . S
O46 Fe47 1.918 . S
Fe47 O46 1.918 . S
Fe47 O48 2.002 1_554 S
Fe47 O57 1.976 . S
Fe47 O61 1.996 . S
Fe47 O64 1.997 . S
O48 Fe47 2.002 1_556 S
O48 C65 1.295 . S
O49 Fe44 1.997 1_556 S
O49 C65 1.235 . S
O50 Fe44 2.002 . S
O50 C51 1.295 . S
C51 O50 1.295 . S
C51 O53 1.235 . S
C52 O57 1.287 . S
C52 O58 1.255 . S
O53 Fe45 1.997 . S
O53 C51 1.235 . S
C54 O60 1.287 . S
C54 O61 1.255 . S
O55 Fe44 1.976 . S
O55 C62 1.287 . S
O56 Fe45 1.996 . S
O56 C62 1.255 . S
O57 Fe47 1.976 . S
O57 C52 1.287 . S
O58 Fe44 1.996 . S
O58 C52 1.255 . S
C59 O63 1.295 . S
C59 O64 1.235 . S
O60 Fe45 1.976 . S
O60 C54 1.287 . S
O61 Fe47 1.996 . S
O61 C54 1.255 . S
C62 O55 1.287 . S
C62 O56 1.255 . S
O63 Fe45 2.002 . S
O63 C59 1.295 . S
O64 Fe47 1.997 . S
O64 C59 1.235 . S
C65 O48 1.295 . S
C65 O49 1.235 . S
Fe66 O68 1.918 . S
Fe66 O71 1.997 . S
Fe66 O72 2.002 . S
Fe66 O77 1.976 . S
Fe66 O80 1.996 . S
Fe67 O68 1.918 . S
Fe67 O75 1.997 . S
Fe67 O78 1.996 . S
Fe67 O82 1.976 . S
Fe67 O85 2.002 1_556 S
O68 Fe66 1.918 . S
O68 Fe67 1.918 . S
O68 Fe69 1.918 . S
Fe69 O68 1.918 . S
Fe69 O70 2.002 . S
Fe69 O79 1.976 . S
Fe69 O83 1.996 . S
Fe69 O86 1.997 1_556 S
O70 Fe69 2.002 . S
O70 C87 1.295 . S
O71 Fe66 1.997 . S
O71 C87 1.235 . S
O72 Fe66 2.002 . S
O72 C73 1.295 . S
C73 O72 1.295 . S
C73 O75 1.235 . S
C74 O79 1.287 . S
C74 O80 1.255 . S
O75 Fe67 1.997 . S
O75 C73 1.235 . S
C76 O82 1.287 . S
C76 O83 1.255 . S
O77 Fe66 1.976 . S
O77 C84 1.287 . S
O78 Fe67 1.996 . S
O78 C84 1.255 . S
O79 Fe69 1.976 . S
O79 C74 1.287 . S
O80 Fe66 1.996 . S
O80 C74 1.255 . S
C81 O85 1.295 . S
C81 O86 1.235 . S
O82 Fe67 1.976 . S
O82 C76 1.287 . S
O83 Fe69 1.996 . S
O83 C76 1.255 . S
C84 O77 1.287 . S
C84 O78 1.255 . S
O85 Fe67 2.002 1_554 S
O85 C81 1.295 . S
O86 Fe69 1.997 1_554 S
O86 C81 1.235 . S
C87 O70 1.295 . S
C87 O71 1.235 . S
Fe88 O90 1.918 . S
Fe88 O93 1.997 . S
Fe88 O94 2.002 . S
Fe88 O99 1.976 . S
Fe88 O102 1.996 . S
Fe89 O90 1.918 . S
Fe89 O97 1.997 . S
Fe89 O100 1.996 . S
Fe89 O104 1.976 . S
Fe89 O107 2.002 . S
O90 Fe88 1.918 . S
O90 Fe89 1.918 . S
O90 Fe91 1.918 . S
Fe91 O90 1.918 . S
Fe91 O92 2.002 . S
Fe91 O101 1.976 . S
Fe91 O105 1.996 . S
Fe91 O108 1.997 . S
O92 Fe91 2.002 . S
O92 C109 1.295 . S
O93 Fe88 1.997 . S
O93 C109 1.235 . S
O94 Fe88 2.002 . S
O94 C95 1.295 . S
C95 O94 1.295 . S
C95 O97 1.235 . S
C96 O101 1.287 . S
C96 O102 1.255 . S
O97 Fe89 1.997 . S
O97 C95 1.235 . S
C98 O104 1.287 . S
C98 O105 1.255 . S
O99 Fe88 1.976 . S
O99 C106 1.287 . S
O100 Fe89 1.996 . S
O100 C106 1.255 . S
O101 Fe91 1.976 . S
O101 C96 1.287 . S
O102 Fe88 1.996 . S
O102 C96 1.255 . S
C103 O107 1.295 . S
C103 O108 1.235 . S
O104 Fe89 1.976 . S
O104 C98 1.287 . S
O105 Fe91 1.996 . S
O105 C98 1.255 . S
C106 O99 1.287 . S
C106 O100 1.255 . S
O107 Fe89 2.002 . S
O107 C103 1.295 . S
O108 Fe91 1.997 . S
O108 C103 1.235 . S
C109 O92 1.295 . S
C109 O93 1.235 . S
Fe110 O112 1.918 . S
Fe110 O115 1.997 . S
Fe110 O116 2.002 . S
Fe110 O121 1.976 . S
Fe110 O124 1.996 . S
Fe111 O112 1.918 . S
Fe111 O119 1.997 . S
Fe111 O122 1.996 . S
Fe111 O126 1.976 . S
Fe111 O129 2.002 . S
O112 Fe110 1.918 . S
O112 Fe111 1.918 . S
O112 Fe113 1.918 . S
Fe113 O112 1.918 . S
Fe113 O114 2.002 . S
Fe113 O123 1.976 . S
Fe113 O127 1.996 . S
Fe113 O130 1.997 . S
O114 Fe113 2.002 . S
O114 C131 1.295 . S
O115 Fe110 1.997 . S
O115 C131 1.235 . S
O116 Fe110 2.002 . S
O116 C117 1.295 . S
C117 O116 1.295 . S
C117 O119 1.235 . S
C118 O123 1.287 . S
C118 O124 1.255 . S
O119 Fe111 1.997 . S
O119 C117 1.235 . S
C120 O126 1.287 . S
C120 O127 1.255 . S
O121 Fe110 1.976 . S
O121 C128 1.287 . S
O122 Fe111 1.996 . S
O122 C128 1.255 . S
O123 Fe113 1.976 . S
O123 C118 1.287 . S
O124 Fe110 1.996 . S
O124 C118 1.255 . S
C125 O129 1.295 . S
C125 O130 1.235 . S
O126 Fe111 1.976 . S
O126 C120 1.287 . S
O127 Fe113 1.996 . S
O127 C120 1.255 . S
C128 O121 1.287 . S
C128 O122 1.255 . S
O129 Fe111 2.002 . S
O129 C125 1.295 . S
O130 Fe113 1.997 . S
O130 C125 1.235 . S
C131 O114 1.295 . S
C131 O115 1.235 . S
Fe132 O134 1.918 . S
Fe132 O137 1.997 . S
Fe132 O138 2.002 . S
Fe132 O143 1.976 . S
Fe132 O146 1.996 . S
Fe133 O134 1.918 . S
Fe133 O141 1.997 . S
Fe133 O144 1.996 . S
Fe133 O148 1.976 . S
Fe133 O151 2.002 . S
O134 Fe132 1.918 . S
O134 Fe133 1.918 . S
O134 Fe135 1.918 . S
Fe135 O134 1.918 . S
Fe135 O136 2.002 . S
Fe135 O145 1.976 . S
Fe135 O149 1.996 . S
Fe135 O152 1.997 . S
O136 Fe135 2.002 . S
O136 C153 1.295 . S
O137 Fe132 1.997 . S
O137 C153 1.235 . S
O138 Fe132 2.002 . S
O138 C139 1.295 . S
C139 O138 1.295 . S
C139 O141 1.235 . S
C140 O145 1.287 . S
C140 O146 1.255 . S
O141 Fe133 1.997 . S
O141 C139 1.235 . S
C142 O148 1.287 . S
C142 O149 1.255 . S
O143 Fe132 1.976 . S
O143 C150 1.287 . S
O144 Fe133 1.996 . S
O144 C150 1.255 . S
O145 Fe135 1.976 . S
O145 C140 1.287 . S
O146 Fe132 1.996 . S
O146 C140 1.255 . S
C147 O151 1.295 . S
C147 O152 1.235 . S
O148 Fe133 1.976 . S
O148 C142 1.287 . S
O149 Fe135 1.996 . S
O149 C142 1.255 . S
C150 O143 1.287 . S
C150 O144 1.255 . S
O151 Fe133 2.002 . S
O151 C147 1.295 . S
O152 Fe135 1.997 . S
O152 C147 1.235 . S
C153 O136 1.295 . S
C153 O137 1.235 . S
Fe154 O156 1.918 . S
Fe154 O159 1.997 . S
Fe154 O160 2.002 . S
Fe154 O165 1.976 . S
Fe154 O168 1.996 . S
Fe155 O156 1.918 . S
Fe155 O163 1.997 . S
Fe155 O166 1.996 . S
Fe155 O170 1.976 . S
Fe155 O173 2.002 . S
O156 Fe154 1.918 . S
O156 Fe155 1.918 . S
O156 Fe157 1.918 . S
Fe157 O156 1.918 . S
Fe157 O158 2.002 . S
Fe157 O167 1.976 . S
Fe157 O171 1.996 . S
Fe157 O174 1.997 . S
O158 Fe157 2.002 . S
O158 C175 1.295 . S
O159 Fe154 1.997 . S
O159 C175 1.235 . S
O160 Fe154 2.002 . S
O160 C161 1.295 . S
C161 O160 1.295 . S
C161 O163 1.235 . S
C162 O167 1.287 . S
C162 O168 1.255 . S
O163 Fe155 1.997 . S
O163 C161 1.235 . S
C164 O170 1.287 . S
C164 O171 1.255 . S
O165 Fe154 1.976 . S
O165 C172 1.287 . S
O166 Fe155 1.996 . S
O166 C172 1.255 . S
O167 Fe157 1.976 . S
O167 C162 1.287 . S
O168 Fe154 1.996 . S
O168 C162 1.255 . S
C169 O173 1.295 . S
C169 O174 1.235 . S
O170 Fe155 1.976 . S
O170 C164 1.287 . S
O171 Fe157 1.996 . S
O171 C164 1.255 . S
C172 O165 1.287 . S
C172 O166 1.255 . S
O173 Fe155 2.002 . S
O173 C169 1.295 . S
O174 Fe157 1.997 . S
O174 C169 1.235 . S
C175 O158 1.295 . S
C175 O159 1.235 . S
Fe176 O178 1.918 . S
Fe176 O181 1.997 . S
Fe176 O182 2.002 . S
Fe176 O187 1.976 . S
Fe176 O190 1.996 . S
Fe177 O178 1.918 . S
Fe177 O185 1.997 . S
Fe177 O188 1.996 . S
Fe177 O192 1.976 . S
Fe177 O195 2.002 . S
O178 Fe176 1.918 . S
O178 Fe177 1.918 . S
O178 Fe179 1.918 . S
Fe179 O178 1.918 . S
Fe179 O180 2.002 . S
Fe179 O189 1.976 . S
Fe179 O193 1.996 . S
Fe179 O196 1.997 . S
O180 Fe179 2.002 . S
O180 C197 1.295 . S
O181 Fe176 1.997 . S
O181 C197 1.235 . S
O182 Fe176 2.002 . S
O182 C183 1.295 . S
C183 O182 1.295 . S
C183 O185 1.235 . S
C184 O189 1.287 . S
C184 O190 1.255 . S
O185 Fe177 1.997 . S
O185 C183 1.235 . S
C186 O192 1.287 . S
C186 O193 1.255 . S
O187 Fe176 1.976 . S
O187 C194 1.287 . S
O188 Fe177 1.996 . S
O188 C194 1.255 . S
O189 Fe179 1.976 . S
O189 C184 1.287 . S
O190 Fe176 1.996 . S
O190 C184 1.255 . S
C191 O195 1.295 . S
C191 O196 1.235 . S
O192 Fe177 1.976 . S
O192 C186 1.287 . S
O193 Fe179 1.996 . S
O193 C186 1.255 . S
C194 O187 1.287 . S
C194 O188 1.255 . S
O195 Fe177 2.002 . S
O195 C191 1.295 . S
O196 Fe179 1.997 . S
O196 C191 1.235 . S
C197 O180 1.295 . S
C197 O181 1.235 . S
Fe198 O200 1.918 . S
Fe198 O203 1.997 . S
Fe198 O204 2.002 . S
Fe198 O209 1.976 . S
Fe198 O212 1.996 . S
Fe199 O200 1.918 . S
Fe199 O207 1.997 . S
Fe199 O210 1.996 . S
Fe199 O214 1.976 . S
Fe199 O217 2.002 . S
O200 Fe198 1.918 . S
O200 Fe199 1.918 . S
O200 Fe201 1.918 . S
Fe201 O200 1.918 . S
Fe201 O202 2.002 . S
Fe201 O211 1.976 . S
Fe201 O215 1.996 . S
Fe201 O218 1.997 . S
O202 Fe201 2.002 . S
O202 C219 1.295 . S
O203 Fe198 1.997 . S
O203 C219 1.235 . S
O204 Fe198 2.002 . S
O204 C205 1.295 . S
C205 O204 1.295 . S
C205 O207 1.235 . S
C206 O211 1.287 . S
C206 O212 1.255 . S
O207 Fe199 1.997 . S
O207 C205 1.235 . S
C208 O214 1.287 . S
C208 O215 1.255 . S
O209 Fe198 1.976 . S
O209 C216 1.287 . S
O210 Fe199 1.996 . S
O210 C216 1.255 . S
O211 Fe201 1.976 . S
O211 C206 1.287 . S
O212 Fe198 1.996 . S
O212 C206 1.255 . S
C213 O217 1.295 . S
C213 O218 1.235 . S
O214 Fe199 1.976 . S
O214 C208 1.287 . S
O215 Fe201 1.996 . S
O215 C208 1.255 . S
C216 O209 1.287 . S
C216 O210 1.255 . S
O217 Fe199 2.002 . S
O217 C213 1.295 . S
O218 Fe201 1.997 . S
O218 C213 1.235 . S
C219 O202 1.295 . S
C219 O203 1.235 . S
Fe220 O222 1.918 . S
Fe220 O225 1.997 . S
Fe220 O226 2.002 . S
Fe220 O231 1.976 . S
Fe220 O234 1.996 . S
Fe221 O222 1.918 . S
Fe221 O229 1.997 . S
Fe221 O232 1.996 . S
Fe221 O236 1.976 . S
Fe221 O239 2.002 . S
O222 Fe220 1.918 . S
O222 Fe221 1.918 . S
O222 Fe223 1.918 . S
Fe223 O222 1.918 . S
Fe223 O224 2.002 . S
Fe223 O233 1.976 . S
Fe223 O237 1.996 . S
Fe223 O240 1.997 . S
O224 Fe223 2.002 . S
O224 C241 1.295 . S
O225 Fe220 1.997 . S
O225 C241 1.235 . S
O226 Fe220 2.002 . S
O226 C227 1.295 . S
C227 O226 1.295 . S
C227 O229 1.235 . S
C228 O233 1.287 . S
C228 O234 1.255 . S
O229 Fe221 1.997 . S
O229 C227 1.235 . S
C230 O236 1.287 . S
C230 O237 1.255 . S
O231 Fe220 1.976 . S
O231 C238 1.287 . S
O232 Fe221 1.996 . S
O232 C238 1.255 . S
O233 Fe223 1.976 . S
O233 C228 1.287 . S
O234 Fe220 1.996 . S
O234 C228 1.255 . S
C235 O239 1.295 . S
C235 O240 1.235 . S
O236 Fe221 1.976 . S
O236 C230 1.287 . S
O237 Fe223 1.996 . S
O237 C230 1.255 . S
C238 O231 1.287 . S
C238 O232 1.255 . S
O239 Fe221 2.002 . S
O239 C235 1.295 . S
O240 Fe223 1.997 . S
O240 C235 1.235 . S
C241 O224 1.295 . S
C241 O225 1.235 . S
Fe242 O244 1.918 . S
Fe242 O247 1.997 . S
Fe242 O248 2.002 . S
Fe242 O253 1.976 . S
Fe242 O256 1.996 . S
Fe243 O244 1.918 . S
Fe243 O251 1.997 . S
Fe243 O254 1.996 . S
Fe243 O258 1.976 . S
Fe243 O261 2.002 . S
O244 Fe242 1.918 . S
O244 Fe243 1.918 . S
O244 Fe245 1.918 . S
Fe245 O244 1.918 . S
Fe245 O246 2.002 . S
Fe245 O255 1.976 . S
Fe245 O259 1.996 . S
Fe245 O262 1.997 . S
O246 Fe245 2.002 . S
O246 C263 1.295 . S
O247 Fe242 1.997 . S
O247 C263 1.235 . S
O248 Fe242 2.002 . S
O248 C249 1.295 . S
C249 O248 1.295 . S
C249 O251 1.235 . S
C250 O255 1.287 . S
C250 O256 1.255 . S
O251 Fe243 1.997 . S
O251 C249 1.235 . S
C252 O258 1.287 . S
C252 O259 1.255 . S
O253 Fe242 1.976 . S
O253 C260 1.287 . S
O254 Fe243 1.996 . S
O254 C260 1.255 . S
O255 Fe245 1.976 . S
O255 C250 1.287 . S
O256 Fe242 1.996 . S
O256 C250 1.255 . S
C257 O261 1.295 . S
C257 O262 1.235 . S
O258 Fe243 1.976 . S
O258 C252 1.287 . S
O259 Fe245 1.996 . S
O259 C252 1.255 . S
C260 O253 1.287 . S
C260 O254 1.255 . S
O261 Fe243 2.002 . S
O261 C257 1.295 . S
O262 Fe245 1.997 . S
O262 C257 1.235 . S
C263 O246 1.295 . S
C263 O247 1.235 . S
Fe264 O266 1.918 . S
Fe264 O269 1.997 . S
Fe264 O270 2.002 . S
Fe264 O275 1.976 . S
Fe264 O278 1.996 . S
Fe265 O266 1.918 . S
Fe265 O273 1.997 . S
Fe265 O276 1.996 . S
Fe265 O280 1.976 . S
Fe265 O283 2.002 1_554 S
O266 Fe264 1.918 . S
O266 Fe265 1.918 . S
O266 Fe267 1.918 . S
Fe267 O266 1.918 . S
Fe267 O268 2.002 . S
Fe267 O277 1.976 . S
Fe267 O281 1.996 . S
Fe267 O284 1.997 1_554 S
O268 Fe267 2.002 . S
O268 C285 1.295 . S
O269 Fe264 1.997 . S
O269 C285 1.235 . S
O270 Fe264 2.002 . S
O270 C271 1.295 . S
C271 O270 1.295 . S
C271 O273 1.235 . S
C272 O277 1.287 . S
C272 O278 1.255 . S
O273 Fe265 1.997 . S
O273 C271 1.235 . S
C274 O280 1.287 . S
C274 O281 1.255 . S
O275 Fe264 1.976 . S
O275 C282 1.287 . S
O276 Fe265 1.996 . S
O276 C282 1.255 . S
O277 Fe267 1.976 . S
O277 C272 1.287 . S
O278 Fe264 1.996 . S
O278 C272 1.255 . S
C279 O283 1.295 . S
C279 O284 1.235 . S
O280 Fe265 1.976 . S
O280 C274 1.287 . S
O281 Fe267 1.996 . S
O281 C274 1.255 . S
C282 O275 1.287 . S
C282 O276 1.255 . S
O283 Fe265 2.002 1_556 S
O283 C279 1.295 . S
O284 Fe267 1.997 1_556 S
O284 C279 1.235 . S
C285 O268 1.295 . S
C285 O269 1.235 . S
Fe286 O288 1.918 . S
Fe286 O291 1.997 . S
Fe286 O292 2.002 . S
Fe286 O297 1.976 . S
Fe286 O300 1.996 . S
Fe287 O288 1.918 . S
Fe287 O295 1.997 . S
Fe287 O298 1.996 . S
Fe287 O302 1.976 . S
Fe287 O305 2.002 1_556 S
O288 Fe286 1.918 . S
O288 Fe287 1.918 . S
O288 Fe289 1.918 . S
Fe289 O288 1.918 . S
Fe289 O290 2.002 . S
Fe289 O299 1.976 . S
Fe289 O303 1.996 . S
Fe289 O306 1.997 1_556 S
O290 Fe289 2.002 . S
O290 C307 1.295 . S
O291 Fe286 1.997 . S
O291 C307 1.235 . S
O292 Fe286 2.002 . S
O292 C293 1.295 . S
C293 O292 1.295 . S
C293 O295 1.235 . S
C294 O299 1.287 . S
C294 O300 1.255 . S
O295 Fe287 1.997 . S
O295 C293 1.235 . S
C296 O302 1.287 . S
C296 O303 1.255 . S
O297 Fe286 1.976 . S
O297 C304 1.287 . S
O298 Fe287 1.996 . S
O298 C304 1.255 . S
O299 Fe289 1.976 . S
O299 C294 1.287 . S
O300 Fe286 1.996 . S
O300 C294 1.255 . S
C301 O305 1.295 . S
C301 O306 1.235 . S
O302 Fe287 1.976 . S
O302 C296 1.287 . S
O303 Fe289 1.996 . S
O303 C296 1.255 . S
C304 O297 1.287 . S
C304 O298 1.255 . S
O305 Fe287 2.002 1_554 S
O305 C301 1.295 . S
O306 Fe289 1.997 1_554 S
O306 C301 1.235 . S
C307 O290 1.295 . S
C307 O291 1.235 . S
Fe308 O310 1.918 . S
Fe308 O313 1.997 . S
Fe308 O314 2.002 . S
Fe308 O319 1.976 . S
Fe308 O322 1.996 . S
Fe309 O310 1.918 . S
Fe309 O317 1.997 . S
Fe309 O320 1.996 . S
Fe309 O324 1.976 . S
Fe309 O327 2.002 1_554 S
O310 Fe308 1.918 . S
O310 Fe309 1.918 . S
O310 Fe311 1.918 . S
Fe311 O310 1.918 . S
Fe311 O312 2.002 . S
Fe311 O321 1.976 . S
Fe311 O325 1.996 . S
Fe311 O328 1.997 1_554 S
O312 Fe311 2.002 . S
O312 C329 1.295 . S
O313 Fe308 1.997 . S
O313 C329 1.235 . S
O314 Fe308 2.002 . S
O314 C315 1.295 . S
C315 O314 1.295 . S
C315 O317 1.235 . S
C316 O321 1.287 . S
C316 O322 1.255 . S
O317 Fe309 1.997 . S
O317 C315 1.235 . S
C318 O324 1.287 . S
C318 O325 1.255 . S
O319 Fe308 1.976 . S
O319 C326 1.287 . S
O320 Fe309 1.996 . S
O320 C326 1.255 . S
O321 Fe311 1.976 . S
O321 C316 1.287 . S
O322 Fe308 1.996 . S
O322 C316 1.255 . S
C323 O327 1.295 . S
C323 O328 1.235 . S
O324 Fe309 1.976 . S
O324 C318 1.287 . S
O325 Fe311 1.996 . S
O325 C318 1.255 . S
C326 O319 1.287 . S
C326 O320 1.255 . S
O327 Fe309 2.002 1_556 S
O327 C323 1.295 . S
O328 Fe311 1.997 1_556 S
O328 C323 1.235 . S
C329 O312 1.295 . S
C329 O313 1.235 . S
Fe330 O332 1.918 . S
Fe330 O335 1.997 . S
Fe330 O336 2.002 1_556 S
Fe330 O341 1.976 . S
Fe330 O344 1.996 . S
Fe331 O332 1.918 . S
Fe331 O339 1.997 1_556 S
Fe331 O342 1.996 . S
Fe331 O346 1.976 . S
Fe331 O349 2.002 . S
O332 Fe330 1.918 . S
O332 Fe331 1.918 . S
O332 Fe333 1.918 . S
Fe333 O332 1.918 . S
Fe333 O334 2.002 . S
Fe333 O343 1.976 . S
Fe333 O347 1.996 . S
Fe333 O350 1.997 . S
O334 Fe333 2.002 . S
O334 C351 1.295 . S
O335 Fe330 1.997 . S
O335 C351 1.235 . S
O336 Fe330 2.002 1_554 S
O336 C337 1.295 . S
C337 O336 1.295 . S
C337 O339 1.235 . S
C338 O343 1.287 . S
C338 O344 1.255 . S
O339 Fe331 1.997 1_554 S
O339 C337 1.235 . S
C340 O346 1.287 . S
C340 O347 1.255 . S
O341 Fe330 1.976 . S
O341 C348 1.287 . S
O342 Fe331 1.996 . S
O342 C348 1.255 . S
O343 Fe333 1.976 . S
O343 C338 1.287 . S
O344 Fe330 1.996 . S
O344 C338 1.255 . S
C345 O349 1.295 . S
C345 O350 1.235 . S
O346 Fe331 1.976 . S
O346 C340 1.287 . S
O347 Fe333 1.996 . S
O347 C340 1.255 . S
C348 O341 1.287 . S
C348 O342 1.255 . S
O349 Fe331 2.002 . S
O349 C345 1.295 . S
O350 Fe333 1.997 . S
O350 C345 1.235 . S
C351 O334 1.295 . S
C351 O335 1.235 . S
H352 C370 0.951 . S
H353 C372 0.951 . S
H354 C374 0.950 . S
H355 C375 0.950 . S
H356 C377 0.950 . S
H357 C380 0.950 . S
H358 C381 0.950 . S
H359 C383 0.950 . S
H360 C384 0.950 . S
H361 C385 0.951 . S
H362 C387 0.951 . S
H363 C389 0.950 . S
H364 C390 0.950 . S
H365 C392 0.950 . S
H366 C395 0.950 . S
H367 C396 0.950 . S
H368 C398 0.950 . S
H369 C399 0.950 . S
C370 H352 0.951 . S
C370 C371 1.366 . S
C370 C372 1.388 . S
C371 C370 1.366 . S
C371 C375 1.385 . S
C372 H353 0.951 . S
C372 C370 1.388 . S
C372 C373 1.366 . S
C373 C372 1.366 . S
C373 C374 1.414 . S
C373 C376 1.499 . S
C374 H354 0.950 . S
C374 C373 1.414 . S
C374 C375 1.374 . S
C375 H355 0.950 . S
C375 C371 1.385 . S
C375 C374 1.374 . S
C376 C373 1.499 . S
C376 C377 1.373 . S
C376 C378 1.389 . S
C377 H356 0.950 . S
C377 C376 1.373 . S
C377 C393 1.377 . S
C378 C376 1.389 . S
C378 C379 1.524 . S
C378 C392 1.377 . S
C379 C378 1.524 . S
C379 C380 1.397 . S
C379 C384 1.363 . S
C380 H357 0.950 . S
C380 C379 1.397 . S
C380 C381 1.334 . S
C381 H358 0.950 . S
C381 C380 1.334 . S
C381 C382 1.287 . S
C382 C381 1.287 . S
C382 C383 1.524 . S
C382 H401 0.913 . S
C383 H359 0.950 . S
C383 C382 1.524 . S
C383 C384 1.415 . S
C384 H360 0.950 . S
C384 C379 1.363 . S
C384 C383 1.415 . S
C385 H361 0.951 . S
C385 C386 1.366 . S
C385 C387 1.388 . S
C386 C385 1.366 . S
C386 C390 1.385 . S
C387 H362 0.951 . S
C387 C385 1.388 . S
C387 C388 1.366 . S
C388 C387 1.366 . S
C388 C389 1.414 . S
C388 C391 1.499 . S
C389 H363 0.950 . S
C389 C388 1.414 . S
C389 C390 1.374 . S
C390 H364 0.950 . S
C390 C386 1.385 . S
C390 C389 1.374 . S
C391 C388 1.499 . S
C391 C392 1.373 . S
C391 C393 1.389 . S
C392 H365 0.950 . S
C392 C378 1.377 . S
C392 C391 1.373 . S
C393 C377 1.377 . S
C393 C391 1.389 . S
C393 C394 1.524 . S
C394 C393 1.524 . S
C394 C395 1.397 . S
C394 C399 1.363 . S
C395 H366 0.950 . S
C395 C394 1.397 . S
C395 C396 1.334 . S
C396 H367 0.950 . S
C396 C395 1.334 . S
C396 C397 1.287 . S
C397 C396 1.287 . S
C397 C398 1.524 . S
C397 H400 0.999 . S
C398 H368 0.950 . S
C398 C397 1.524 . S
C398 C399 1.415 . S
C399 H369 0.950 . S
C399 C394 1.363 . S
C399 C398 1.415 . S
H400 C397 0.999 . S
H401 C382 0.913 . S
H402 C420 0.951 . S
H403 C422 0.951 . S
H404 C424 0.950 . S
H405 C425 0.950 . S
H406 C427 0.950 . S
H407 C430 0.950 . S
H408 C431 0.950 . S
H409 C433 0.950 . S
H410 C434 0.950 . S
H411 C435 0.951 . S
H412 C437 0.951 . S
H413 C439 0.950 . S
H414 C440 0.950 . S
H415 C442 0.950 . S
H416 C445 0.950 . S
H417 C446 0.950 . S
H418 C448 0.950 . S
H419 C449 0.950 . S
C420 H402 0.951 . S
C420 C421 1.366 . S
C420 C422 1.388 . S
C421 C420 1.366 . S
C421 C425 1.385 . S
C422 H403 0.951 . S
C422 C420 1.388 . S
C422 C423 1.366 . S
C423 C422 1.366 . S
C423 C424 1.414 . S
C423 C426 1.499 . S
C424 H404 0.950 . S
C424 C423 1.414 . S
C424 C425 1.374 . S
C425 H405 0.950 . S
C425 C421 1.385 . S
C425 C424 1.374 . S
C426 C423 1.499 . S
C426 C427 1.373 . S
C426 C428 1.389 . S
C427 H406 0.950 . S
C427 C426 1.373 . S
C427 C443 1.377 . S
C428 C426 1.389 . S
C428 C429 1.524 . S
C428 C442 1.377 . S
C429 C428 1.524 . S
C429 C430 1.397 . S
C429 C434 1.363 . S
C430 H407 0.950 . S
C430 C429 1.397 . S
C430 C431 1.334 . S
C431 H408 0.950 . S
C431 C430 1.334 . S
C431 C432 1.287 . S
C432 C431 1.287 . S
C432 C433 1.524 . S
C432 H451 0.913 . S
C433 H409 0.950 . S
C433 C432 1.524 . S
C433 C434 1.415 . S
C434 H410 0.950 . S
C434 C429 1.363 . S
C434 C433 1.415 . S
C435 H411 0.951 . S
C435 C436 1.366 . S
C435 C437 1.388 . S
C436 C435 1.366 . S
C436 C440 1.385 . S
C437 H412 0.951 . S
C437 C435 1.388 . S
C437 C438 1.366 . S
C438 C437 1.366 . S
C438 C439 1.414 . S
C438 C441 1.499 . S
C439 H413 0.950 . S
C439 C438 1.414 . S
C439 C440 1.374 . S
C440 H414 0.950 . S
C440 C436 1.385 . S
C440 C439 1.374 . S
C441 C438 1.499 . S
C441 C442 1.373 . S
C441 C443 1.389 . S
C442 H415 0.950 . S
C442 C428 1.377 . S
C442 C441 1.373 . S
C443 C427 1.377 . S
C443 C441 1.389 . S
C443 C444 1.524 . S
C444 C443 1.524 . S
C444 C445 1.397 . S
C444 C449 1.363 . S
C445 H416 0.950 . S
C445 C444 1.397 . S
C445 C446 1.334 . S
C446 H417 0.950 . S
C446 C445 1.334 . S
C446 C447 1.287 . S
C447 C446 1.287 . S
C447 C448 1.524 . S
C447 H450 0.999 . S
C448 H418 0.950 . S
C448 C447 1.524 . S
C448 C449 1.415 . S
C449 H419 0.950 . S
C449 C444 1.363 . S
C449 C448 1.415 . S
H450 C447 0.999 . S
H451 C432 0.913 . S
H452 C470 0.951 . S
H453 C472 0.951 . S
H454 C474 0.950 . S
H455 C475 0.950 . S
H456 C477 0.950 . S
H457 C480 0.950 . S
H458 C481 0.950 . S
H459 C483 0.950 . S
H460 C484 0.950 . S
H461 C485 0.951 . S
H462 C487 0.951 . S
H463 C489 0.950 . S
H464 C490 0.950 . S
H465 C492 0.950 . S
H466 C495 0.950 . S
H467 C496 0.950 . S
H468 C498 0.950 . S
H469 C499 0.950 . S
C470 H452 0.951 . S
C470 C471 1.366 . S
C470 C472 1.388 . S
C471 C470 1.366 . S
C471 C475 1.385 . S
C472 H453 0.951 . S
C472 C470 1.388 . S
C472 C473 1.366 . S
C473 C472 1.366 . S
C473 C474 1.414 . S
C473 C476 1.499 . S
C474 H454 0.950 . S
C474 C473 1.414 . S
C474 C475 1.374 . S
C475 H455 0.950 . S
C475 C471 1.385 . S
C475 C474 1.374 . S
C476 C473 1.499 . S
C476 C477 1.373 . S
C476 C478 1.389 . S
C477 H456 0.950 . S
C477 C476 1.373 . S
C477 C493 1.377 . S
C478 C476 1.389 . S
C478 C479 1.524 . S
C478 C492 1.377 . S
C479 C478 1.524 . S
C479 C480 1.397 . S
C479 C484 1.363 . S
C480 H457 0.950 . S
C480 C479 1.397 . S
C480 C481 1.334 . S
C481 H458 0.950 . S
C481 C480 1.334 . S
C481 C482 1.287 . S
C482 C481 1.287 . S
C482 C483 1.524 . S
C482 H501 0.913 . S
C483 H459 0.950 . S
C483 C482 1.524 . S
C483 C484 1.415 . S
C484 H460 0.950 . S
C484 C479 1.363 . S
C484 C483 1.415 . S
C485 H461 0.951 . S
C485 C486 1.366 . S
C485 C487 1.388 . S
C486 C485 1.366 . S
C486 C490 1.385 . S
C487 H462 0.951 . S
C487 C485 1.388 . S
C487 C488 1.366 . S
C488 C487 1.366 . S
C488 C489 1.414 . S
C488 C491 1.499 . S
C489 H463 0.950 . S
C489 C488 1.414 . S
C489 C490 1.374 . S
C490 H464 0.950 . S
C490 C486 1.385 . S
C490 C489 1.374 . S
C491 C488 1.499 . S
C491 C492 1.373 . S
C491 C493 1.389 . S
C492 H465 0.950 . S
C492 C478 1.377 . S
C492 C491 1.373 . S
C493 C477 1.377 . S
C493 C491 1.389 . S
C493 C494 1.524 . S
C494 C493 1.524 . S
C494 C495 1.397 . S
C494 C499 1.363 . S
C495 H466 0.950 . S
C495 C494 1.397 . S
C495 C496 1.334 . S
C496 H467 0.950 . S
C496 C495 1.334 . S
C496 C497 1.287 . S
C497 C496 1.287 . S
C497 C498 1.524 . S
C497 H500 0.999 . S
C498 H468 0.950 . S
C498 C497 1.524 . S
C498 C499 1.415 . S
C499 H469 0.950 . S
C499 C494 1.363 . S
C499 C498 1.415 . S
H500 C497 0.999 . S
H501 C482 0.913 . S
H502 C520 0.951 . S
H503 C522 0.951 . S
H504 C524 0.950 . S
H505 C525 0.950 . S
H506 C527 0.950 . S
H507 C530 0.950 . S
H508 C531 0.950 . S
H509 C533 0.950 . S
H510 C534 0.950 . S
H511 C535 0.951 . S
H512 C537 0.951 . S
H513 C539 0.950 . S
H514 C540 0.950 . S
H515 C542 0.950 . S
H516 C545 0.950 . S
H517 C546 0.950 . S
H518 C548 0.950 . S
H519 C549 0.950 . S
C520 H502 0.951 . S
C520 C521 1.366 . S
C520 C522 1.388 . S
C521 C520 1.366 . S
C521 C525 1.385 . S
C522 H503 0.951 . S
C522 C520 1.388 . S
C522 C523 1.366 . S
C523 C522 1.366 . S
C523 C524 1.414 . S
C523 C526 1.499 . S
C524 H504 0.950 . S
C524 C523 1.414 . S
C524 C525 1.374 . S
C525 H505 0.950 . S
C525 C521 1.385 . S
C525 C524 1.374 . S
C526 C523 1.499 . S
C526 C527 1.373 . S
C526 C528 1.389 . S
C527 H506 0.950 . S
C527 C526 1.373 . S
C527 C543 1.377 . S
C528 C526 1.389 . S
C528 C529 1.524 . S
C528 C542 1.377 . S
C529 C528 1.524 . S
C529 C530 1.397 . S
C529 C534 1.363 . S
C530 H507 0.950 . S
C530 C529 1.397 . S
C530 C531 1.334 . S
C531 H508 0.950 . S
C531 C530 1.334 . S
C531 C532 1.287 . S
C532 C531 1.287 . S
C532 C533 1.524 . S
C532 H551 0.913 . S
C533 H509 0.950 . S
C533 C532 1.524 . S
C533 C534 1.415 . S
C534 H510 0.950 . S
C534 C529 1.363 . S
C534 C533 1.415 . S
C535 H511 0.951 . S
C535 C536 1.366 . S
C535 C537 1.388 . S
C536 C535 1.366 . S
C536 C540 1.385 . S
C537 H512 0.951 . S
C537 C535 1.388 . S
C537 C538 1.366 . S
C538 C537 1.366 . S
C538 C539 1.414 . S
C538 C541 1.499 . S
C539 H513 0.950 . S
C539 C538 1.414 . S
C539 C540 1.374 . S
C540 H514 0.950 . S
C540 C536 1.385 . S
C540 C539 1.374 . S
C541 C538 1.499 . S
C541 C542 1.373 . S
C541 C543 1.389 . S
C542 H515 0.950 . S
C542 C528 1.377 . S
C542 C541 1.373 . S
C543 C527 1.377 . S
C543 C541 1.389 . S
C543 C544 1.524 . S
C544 C543 1.524 . S
C544 C545 1.397 . S
C544 C549 1.363 . S
C545 H516 0.950 . S
C545 C544 1.397 . S
C545 C546 1.334 . S
C546 H517 0.950 . S
C546 C545 1.334 . S
C546 C547 1.287 . S
C547 C546 1.287 . S
C547 C548 1.524 . S
C547 H550 0.999 . S
C548 H518 0.950 . S
C548 C547 1.524 . S
C548 C549 1.415 . S
C549 H519 0.950 . S
C549 C544 1.363 . S
C549 C548 1.415 . S
H550 C547 0.999 . S
H551 C532 0.913 . S
H552 C570 0.951 . S
H553 C572 0.951 . S
H554 C574 0.950 . S
H555 C575 0.950 . S
H556 C577 0.950 . S
H557 C580 0.950 . S
H558 C581 0.950 . S
H559 C583 0.950 . S
H560 C584 0.950 . S
H561 C585 0.951 . S
H562 C587 0.951 . S
H563 C589 0.950 . S
H564 C590 0.950 . S
H565 C592 0.950 . S
H566 C595 0.950 . S
H567 C596 0.950 . S
H568 C598 0.950 . S
H569 C599 0.950 . S
C570 H552 0.951 . S
C570 C571 1.366 . S
C570 C572 1.388 . S
C571 C570 1.366 . S
C571 C575 1.385 . S
C572 H553 0.951 . S
C572 C570 1.388 . S
C572 C573 1.366 . S
C573 C572 1.366 . S
C573 C574 1.414 . S
C573 C576 1.499 . S
C574 H554 0.950 . S
C574 C573 1.414 . S
C574 C575 1.374 . S
C575 H555 0.950 . S
C575 C571 1.385 . S
C575 C574 1.374 . S
C576 C573 1.499 . S
C576 C577 1.373 . S
C576 C578 1.389 . S
C577 H556 0.950 . S
C577 C576 1.373 . S
C577 C593 1.377 . S
C578 C576 1.389 . S
C578 C579 1.524 . S
C578 C592 1.377 . S
C579 C578 1.524 . S
C579 C580 1.397 . S
C579 C584 1.363 . S
C580 H557 0.950 . S
C580 C579 1.397 . S
C580 C581 1.334 . S
C581 H558 0.950 . S
C581 C580 1.334 . S
C581 C582 1.287 . S
C582 C581 1.287 . S
C582 C583 1.524 . S
C582 H601 0.913 . S
C583 H559 0.950 . S
C583 C582 1.524 . S
C583 C584 1.415 . S
C584 H560 0.950 . S
C584 C579 1.363 . S
C584 C583 1.415 . S
C585 H561 0.951 . S
C585 C586 1.366 . S
C585 C587 1.388 . S
C586 C585 1.366 . S
C586 C590 1.385 . S
C587 H562 0.951 . S
C587 C585 1.388 . S
C587 C588 1.366 . S
C588 C587 1.366 . S
C588 C589 1.414 . S
C588 C591 1.499 . S
C589 H563 0.950 . S
C589 C588 1.414 . S
C589 C590 1.374 . S
C590 H564 0.950 . S
C590 C586 1.385 . S
C590 C589 1.374 . S
C591 C588 1.499 . S
C591 C592 1.373 . S
C591 C593 1.389 . S
C592 H565 0.950 . S
C592 C578 1.377 . S
C592 C591 1.373 . S
C593 C577 1.377 . S
C593 C591 1.389 . S
C593 C594 1.524 . S
C594 C593 1.524 . S
C594 C595 1.397 . S
C594 C599 1.363 . S
C595 H566 0.950 . S
C595 C594 1.397 . S
C595 C596 1.334 . S
C596 H567 0.950 . S
C596 C595 1.334 . S
C596 C597 1.287 . S
C597 C596 1.287 . S
C597 C598 1.524 . S
C597 H600 0.999 . S
C598 H568 0.950 . S
C598 C597 1.524 . S
C598 C599 1.415 . S
C599 H569 0.950 . S
C599 C594 1.363 . S
C599 C598 1.415 . S
H600 C597 0.999 . S
H601 C582 0.913 . S
H602 C620 0.951 . S
H603 C622 0.951 . S
H604 C624 0.950 . S
H605 C625 0.950 . S
H606 C627 0.950 . S
H607 C630 0.950 . S
H608 C631 0.950 . S
H609 C633 0.950 . S
H610 C634 0.950 . S
H611 C635 0.951 . S
H612 C637 0.951 . S
H613 C639 0.950 . S
H614 C640 0.950 . S
H615 C642 0.950 . S
H616 C645 0.950 . S
H617 C646 0.950 . S
H618 C648 0.950 . S
H619 C649 0.950 . S
C620 H602 0.951 . S
C620 C621 1.366 . S
C620 C622 1.388 . S
C621 C620 1.366 . S
C621 C625 1.385 . S
C622 H603 0.951 . S
C622 C620 1.388 . S
C622 C623 1.366 . S
C623 C622 1.366 . S
C623 C624 1.414 . S
C623 C626 1.499 . S
C624 H604 0.950 . S
C624 C623 1.414 . S
C624 C625 1.374 . S
C625 H605 0.950 . S
C625 C621 1.385 . S
C625 C624 1.374 . S
C626 C623 1.499 . S
C626 C627 1.373 . S
C626 C628 1.389 . S
C627 H606 0.950 . S
C627 C626 1.373 . S
C627 C643 1.377 . S
C628 C626 1.389 . S
C628 C629 1.524 . S
C628 C642 1.377 . S
C629 C628 1.524 . S
C629 C630 1.397 . S
C629 C634 1.363 . S
C630 H607 0.950 . S
C630 C629 1.397 . S
C630 C631 1.334 . S
C631 H608 0.950 . S
C631 C630 1.334 . S
C631 C632 1.287 . S
C632 C631 1.287 . S
C632 C633 1.524 . S
C632 H651 0.913 . S
C633 H609 0.950 . S
C633 C632 1.524 . S
C633 C634 1.415 . S
C634 H610 0.950 . S
C634 C629 1.363 . S
C634 C633 1.415 . S
C635 H611 0.951 . S
C635 C636 1.366 . S
C635 C637 1.388 . S
C636 C635 1.366 . S
C636 C640 1.385 . S
C637 H612 0.951 . S
C637 C635 1.388 . S
C637 C638 1.366 . S
C638 C637 1.366 . S
C638 C639 1.414 . S
C638 C641 1.499 . S
C639 H613 0.950 . S
C639 C638 1.414 . S
C639 C640 1.374 . S
C640 H614 0.950 . S
C640 C636 1.385 . S
C640 C639 1.374 . S
C641 C638 1.499 . S
C641 C642 1.373 . S
C641 C643 1.389 . S
C642 H615 0.950 . S
C642 C628 1.377 . S
C642 C641 1.373 . S
C643 C627 1.377 . S
C643 C641 1.389 . S
C643 C644 1.524 . S
C644 C643 1.524 . S
C644 C645 1.397 . S
C644 C649 1.363 . S
C645 H616 0.950 . S
C645 C644 1.397 . S
C645 C646 1.334 . S
C646 H617 0.950 . S
C646 C645 1.334 . S
C646 C647 1.287 . S
C647 C646 1.287 . S
C647 C648 1.524 . S
C647 H650 0.999 . S
C648 H618 0.950 . S
C648 C647 1.524 . S
C648 C649 1.415 . S
C649 H619 0.950 . S
C649 C644 1.363 . S
C649 C648 1.415 . S
H650 C647 0.999 . S
H651 C632 0.913 . S
H652 C670 0.951 . S
H653 C672 0.951 . S
H654 C674 0.950 . S
H655 C675 0.950 . S
H656 C677 0.950 . S
H657 C680 0.950 . S
H658 C681 0.950 . S
H659 C683 0.950 . S
H660 C684 0.950 . S
H661 C685 0.951 . S
H662 C687 0.951 . S
H663 C689 0.950 . S
H664 C690 0.950 . S
H665 C692 0.950 . S
H666 C695 0.950 . S
H667 C696 0.950 . S
H668 C698 0.950 . S
H669 C699 0.950 . S
C670 H652 0.951 . S
C670 C671 1.366 . S
C670 C672 1.388 . S
C671 C670 1.366 . S
C671 C675 1.385 . S
C672 H653 0.951 . S
C672 C670 1.388 . S
C672 C673 1.366 . S
C673 C672 1.366 . S
C673 C674 1.414 . S
C673 C676 1.499 . S
C674 H654 0.950 . S
C674 C673 1.414 . S
C674 C675 1.374 . S
C675 H655 0.950 . S
C675 C671 1.385 . S
C675 C674 1.374 . S
C676 C673 1.499 . S
C676 C677 1.373 . S
C676 C678 1.389 . S
C677 H656 0.950 . S
C677 C676 1.373 . S
C677 C693 1.377 . S
C678 C676 1.389 . S
C678 C679 1.524 . S
C678 C692 1.377 . S
C679 C678 1.524 . S
C679 C680 1.397 . S
C679 C684 1.363 . S
C680 H657 0.950 . S
C680 C679 1.397 . S
C680 C681 1.334 . S
C681 H658 0.950 . S
C681 C680 1.334 . S
C681 C682 1.287 . S
C682 C681 1.287 . S
C682 C683 1.524 . S
C682 H701 0.913 . S
C683 H659 0.950 . S
C683 C682 1.524 . S
C683 C684 1.415 . S
C684 H660 0.950 . S
C684 C679 1.363 . S
C684 C683 1.415 . S
C685 H661 0.951 . S
C685 C686 1.366 . S
C685 C687 1.388 . S
C686 C685 1.366 . S
C686 C690 1.385 . S
C687 H662 0.951 . S
C687 C685 1.388 . S
C687 C688 1.366 . S
C688 C687 1.366 . S
C688 C689 1.414 . S
C688 C691 1.499 . S
C689 H663 0.950 . S
C689 C688 1.414 . S
C689 C690 1.374 . S
C690 H664 0.950 . S
C690 C686 1.385 . S
C690 C689 1.374 . S
C691 C688 1.499 . S
C691 C692 1.373 . S
C691 C693 1.389 . S
C692 H665 0.950 . S
C692 C678 1.377 . S
C692 C691 1.373 . S
C693 C677 1.377 . S
C693 C691 1.389 . S
C693 C694 1.524 . S
C694 C693 1.524 . S
C694 C695 1.397 . S
C694 C699 1.363 . S
C695 H666 0.950 . S
C695 C694 1.397 . S
C695 C696 1.334 . S
C696 H667 0.950 . S
C696 C695 1.334 . S
C696 C697 1.287 . S
C697 C696 1.287 . S
C697 C698 1.524 . S
C697 H700 0.999 . S
C698 H668 0.950 . S
C698 C697 1.524 . S
C698 C699 1.415 . S
C699 H669 0.950 . S
C699 C694 1.363 . S
C699 C698 1.415 . S
H700 C697 0.999 . S
H701 C682 0.913 . S
H702 C720 0.951 . S
H703 C722 0.951 . S
H704 C724 0.950 . S
H705 C725 0.950 . S
H706 C727 0.950 . S
H707 C730 0.950 . S
H708 C731 0.950 . S
H709 C733 0.950 . S
H710 C734 0.950 . S
H711 C735 0.951 . S
H712 C737 0.951 . S
H713 C739 0.950 . S
H714 C740 0.950 . S
H715 C742 0.950 . S
H716 C745 0.950 . S
H717 C746 0.950 . S
H718 C748 0.950 . S
H719 C749 0.950 . S
C720 H702 0.951 . S
C720 C721 1.366 . S
C720 C722 1.388 . S
C721 C720 1.366 . S
C721 C725 1.385 . S
C722 H703 0.951 . S
C722 C720 1.388 . S
C722 C723 1.366 . S
C723 C722 1.366 . S
C723 C724 1.414 . S
C723 C726 1.499 . S
C724 H704 0.950 . S
C724 C723 1.414 . S
C724 C725 1.374 . S
C725 H705 0.950 . S
C725 C721 1.385 . S
C725 C724 1.374 . S
C726 C723 1.499 . S
C726 C727 1.373 . S
C726 C728 1.389 . S
C727 H706 0.950 . S
C727 C726 1.373 . S
C727 C743 1.377 . S
C728 C726 1.389 . S
C728 C729 1.524 . S
C728 C742 1.377 . S
C729 C728 1.524 . S
C729 C730 1.397 . S
C729 C734 1.363 . S
C730 H707 0.950 . S
C730 C729 1.397 . S
C730 C731 1.334 . S
C731 H708 0.950 . S
C731 C730 1.334 . S
C731 C732 1.287 . S
C732 C731 1.287 . S
C732 C733 1.524 . S
C732 H751 0.913 . S
C733 H709 0.950 . S
C733 C732 1.524 . S
C733 C734 1.415 . S
C734 H710 0.950 . S
C734 C729 1.363 . S
C734 C733 1.415 . S
C735 H711 0.951 . S
C735 C736 1.366 . S
C735 C737 1.388 . S
C736 C735 1.366 . S
C736 C740 1.385 . S
C737 H712 0.951 . S
C737 C735 1.388 . S
C737 C738 1.366 . S
C738 C737 1.366 . S
C738 C739 1.414 . S
C738 C741 1.499 . S
C739 H713 0.950 . S
C739 C738 1.414 . S
C739 C740 1.374 . S
C740 H714 0.950 . S
C740 C736 1.385 . S
C740 C739 1.374 . S
C741 C738 1.499 . S
C741 C742 1.373 . S
C741 C743 1.389 . S
C742 H715 0.950 . S
C742 C728 1.377 . S
C742 C741 1.373 . S
C743 C727 1.377 . S
C743 C741 1.389 . S
C743 C744 1.524 . S
C744 C743 1.524 . S
C744 C745 1.397 . S
C744 C749 1.363 . S
C745 H716 0.950 . S
C745 C744 1.397 . S
C745 C746 1.334 . S
C746 H717 0.950 . S
C746 C745 1.334 . S
C746 C747 1.287 . S
C747 C746 1.287 . S
C747 C748 1.524 . S
C747 H750 0.999 . S
C748 H718 0.950 . S
C748 C747 1.524 . S
C748 C749 1.415 . S
C749 H719 0.950 . S
C749 C744 1.363 . S
C749 C748 1.415 . S
H750 C747 0.999 . S
H751 C732 0.913 . S
H752 C770 0.951 1_545 S
H753 C772 0.951 . S
H754 C774 0.950 . S
H755 C775 0.950 . S
H756 C777 0.950 . S
H757 C780 0.950 . S
H758 C781 0.950 . S
H759 C783 0.950 . S
H760 C784 0.950 . S
H761 C785 0.951 . S
H762 C787 0.951 . S
H763 C789 0.950 1_554 S
H764 C790 0.950 . S
H765 C792 0.950 . S
H766 C795 0.950 . S
H767 C796 0.950 . S
H768 C798 0.950 . S
H769 C799 0.950 . S
C770 H752 0.951 1_565 S
C770 C771 1.366 . S
C770 C772 1.388 . S
C771 C770 1.366 . S
C771 C775 1.385 . S
C772 H753 0.951 . S
C772 C770 1.388 . S
C772 C773 1.366 . S
C773 C772 1.366 . S
C773 C774 1.414 . S
C773 C776 1.499 . S
C774 H754 0.950 . S
C774 C773 1.414 . S
C774 C775 1.374 . S
C775 H755 0.950 . S
C775 C771 1.385 . S
C775 C774 1.374 . S
C776 C773 1.499 . S
C776 C777 1.373 1_554 S
C776 C778 1.389 . S
C777 H756 0.950 . S
C777 C776 1.373 1_556 S
C777 C793 1.377 . S
C778 C776 1.389 . S
C778 C779 1.524 . S
C778 C792 1.377 . S
C779 C778 1.524 . S
C779 C780 1.397 . S
C779 C784 1.363 . S
C780 H757 0.950 . S
C780 C779 1.397 . S
C780 C781 1.334 . S
C781 H758 0.950 . S
C781 C780 1.334 . S
C781 C782 1.287 . S
C782 C781 1.287 . S
C782 C783 1.524 . S
C782 H801 0.913 . S
C783 H759 0.950 . S
C783 C782 1.524 . S
C783 C784 1.415 . S
C784 H760 0.950 . S
C784 C779 1.363 . S
C784 C783 1.415 . S
C785 H761 0.951 . S
C785 C786 1.366 . S
C785 C787 1.388 . S
C786 C785 1.366 . S
C786 C790 1.385 . S
C787 H762 0.951 . S
C787 C785 1.388 . S
C787 C788 1.366 . S
C788 C787 1.366 . S
C788 C789 1.414 . S
C788 C791 1.499 1_556 S
C789 H763 0.950 1_556 S
C789 C788 1.414 . S
C789 C790 1.374 . S
C790 H764 0.950 . S
C790 C786 1.385 . S
C790 C789 1.374 . S
C791 C788 1.499 1_554 S
C791 C792 1.373 . S
C791 C793 1.389 1_554 S
C792 H765 0.950 . S
C792 C778 1.377 . S
C792 C791 1.373 . S
C793 C777 1.377 . S
C793 C791 1.389 1_556 S
C793 C794 1.524 . S
C794 C793 1.524 . S
C794 C795 1.397 . S
C794 C799 1.363 . S
C795 H766 0.950 . S
C795 C794 1.397 . S
C795 C796 1.334 . S
C796 H767 0.950 . S
C796 C795 1.334 . S
C796 C797 1.287 . S
C797 C796 1.287 . S
C797 C798 1.524 . S
C797 H800 0.999 . S
C798 H768 0.950 . S
C798 C797 1.524 . S
C798 C799 1.415 . S
C799 H769 0.950 . S
C799 C794 1.363 . S
C799 C798 1.415 . S
H800 C797 0.999 . S
H801 C782 0.913 . S
H802 C820 0.951 . S
H803 C822 0.951 . S
H804 C824 0.950 . S
H805 C825 0.950 . S
H806 C827 0.950 . S
H807 C830 0.950 . S
H808 C831 0.950 . S
H809 C833 0.950 . S
H810 C834 0.950 . S
H811 C835 0.951 . S
H812 C837 0.951 . S
H813 C839 0.950 1_554 S
H814 C840 0.950 . S
H815 C842 0.950 . S
H816 C845 0.950 . S
H817 C846 0.950 . S
H818 C848 0.950 . S
H819 C849 0.950 . S
C820 H802 0.951 . S
C820 C821 1.366 . S
C820 C822 1.388 . S
C821 C820 1.366 . S
C821 C825 1.385 1_554 S
C822 H803 0.951 . S
C822 C820 1.388 . S
C822 C823 1.366 . S
C823 C822 1.366 . S
C823 C824 1.414 1_554 S
C823 C826 1.499 1_554 S
C824 H804 0.950 . S
C824 C823 1.414 1_556 S
C824 C825 1.374 . S
C825 H805 0.950 . S
C825 C821 1.385 1_556 S
C825 C824 1.374 . S
C826 C823 1.499 1_556 S
C826 C827 1.373 . S
C826 C828 1.389 1_556 S
C827 H806 0.950 . S
C827 C826 1.373 . S
C827 C843 1.377 . S
C828 C826 1.389 1_554 S
C828 C829 1.524 . S
C828 C842 1.377 . S
C829 C828 1.524 . S
C829 C830 1.397 . S
C829 C834 1.363 . S
C830 H807 0.950 . S
C830 C829 1.397 . S
C830 C831 1.334 . S
C831 H808 0.950 . S
C831 C830 1.334 . S
C831 C832 1.287 . S
C832 C831 1.287 . S
C832 C833 1.524 . S
C832 H851 0.913 . S
C833 H809 0.950 . S
C833 C832 1.524 . S
C833 C834 1.415 . S
C834 H810 0.950 . S
C834 C829 1.363 . S
C834 C833 1.415 . S
C835 H811 0.951 . S
C835 C836 1.366 . S
C835 C837 1.388 . S
C836 C835 1.366 . S
C836 C840 1.385 . S
C837 H812 0.951 . S
C837 C835 1.388 . S
C837 C838 1.366 . S
C838 C837 1.366 . S
C838 C839 1.414 . S
C838 C841 1.499 . S
C839 H813 0.950 1_556 S
C839 C838 1.414 . S
C839 C840 1.374 . S
C840 H814 0.950 . S
C840 C836 1.385 . S
C840 C839 1.374 . S
C841 C838 1.499 . S
C841 C842 1.373 1_556 S
C841 C843 1.389 . S
C842 H815 0.950 . S
C842 C828 1.377 . S
C842 C841 1.373 1_554 S
C843 C827 1.377 . S
C843 C841 1.389 . S
C843 C844 1.524 . S
C844 C843 1.524 . S
C844 C845 1.397 . S
C844 C849 1.363 . S
C845 H816 0.950 . S
C845 C844 1.397 . S
C845 C846 1.334 . S
C846 H817 0.950 . S
C846 C845 1.334 . S
C846 C847 1.287 . S
C847 C846 1.287 . S
C847 C848 1.524 . S
C847 H850 0.999 . S
C848 H818 0.950 . S
C848 C847 1.524 . S
C848 C849 1.415 . S
C849 H819 0.950 . S
C849 C844 1.363 . S
C849 C848 1.415 . S
H850 C847 0.999 . S
H851 C832 0.913 . S
H852 C870 0.951 . S
H853 C872 0.951 . S
H854 C874 0.950 . S
H855 C875 0.950 . S
H856 C877 0.950 . S
H857 C880 0.950 . S
H858 C881 0.950 . S
H859 C883 0.950 . S
H860 C884 0.950 . S
H861 C885 0.951 . S
H862 C887 0.951 . S
H863 C889 0.950 1_556 S
H864 C890 0.950 1_556 S
H865 C892 0.950 . S
H866 C895 0.950 1_556 S
H867 C896 0.950 1_566 S
H868 C898 0.950 . S
H869 C899 0.950 . S
C870 H852 0.951 . S
C870 C871 1.366 . S
C870 C872 1.388 . S
C871 C870 1.366 . S
C871 C875 1.385 1_556 S
C872 H853 0.951 . S
C872 C870 1.388 . S
C872 C873 1.366 . S
C873 C872 1.366 . S
C873 C874 1.414 1_556 S
C873 C876 1.499 1_556 S
C874 H854 0.950 . S
C874 C873 1.414 1_554 S
C874 C875 1.374 . S
C875 H855 0.950 . S
C875 C871 1.385 1_554 S
C875 C874 1.374 . S
C876 C873 1.499 1_554 S
C876 C877 1.373 . S
C876 C878 1.389 . S
C877 H856 0.950 . S
C877 C876 1.373 . S
C877 C893 1.377 . S
C878 C876 1.389 . S
C878 C879 1.524 1_554 S
C878 C892 1.377 . S
C879 C878 1.524 1_556 S
C879 C880 1.397 1_556 S
C879 C884 1.363 . S
C880 H857 0.950 . S
C880 C879 1.397 1_554 S
C880 C881 1.334 . S
C881 H858 0.950 . S
C881 C880 1.334 . S
C881 C882 1.287 1_554 S
C882 C881 1.287 1_556 S
C882 C883 1.524 . S
C882 H901 0.913 . S
C883 H859 0.950 . S
C883 C882 1.524 . S
C883 C884 1.415 . S
C884 H860 0.950 . S
C884 C879 1.363 . S
C884 C883 1.415 . S
C885 H861 0.951 . S
C885 C886 1.366 . S
C885 C887 1.388 . S
C886 C885 1.366 . S
C886 C890 1.385 . S
C887 H862 0.951 . S
C887 C885 1.388 . S
C887 C888 1.366 . S
C888 C887 1.366 . S
C888 C889 1.414 . S
C888 C891 1.499 . S
C889 H863 0.950 1_554 S
C889 C888 1.414 . S
C889 C890 1.374 . S
C890 H864 0.950 1_554 S
C890 C886 1.385 . S
C890 C889 1.374 . S
C891 C888 1.499 . S
C891 C892 1.373 . S
C891 C893 1.389 . S
C892 H865 0.950 . S
C892 C878 1.377 . S
C892 C891 1.373 . S
C893 C877 1.377 . S
C893 C891 1.389 . S
C893 C894 1.524 . S
C894 C893 1.524 . S
C894 C895 1.397 . S
C894 C899 1.363 . S
C895 H866 0.950 1_554 S
C895 C894 1.397 . S
C895 C896 1.334 . S
C896 H867 0.950 1_544 S
C896 C895 1.334 . S
C896 C897 1.287 . S
C897 C896 1.287 . S
C897 C898 1.524 . S
C897 H900 0.999 1_545 S
C898 H868 0.950 . S
C898 C897 1.524 . S
C898 C899 1.415 . S
C899 H869 0.950 . S
C899 C894 1.363 . S
C899 C898 1.415 . S
H900 C897 0.999 1_565 S
H901 C882 0.913 . S
H902 C920 0.951 1_655 S
H903 C922 0.951 . S
H904 C924 0.950 . S
H905 C925 0.950 . S
H906 C927 0.950 . S
H907 C930 0.950 . S
H908 C931 0.950 . S
H909 C933 0.950 . S
H910 C934 0.949 . S
H911 C935 0.951 . S
H912 C937 0.951 . S
H913 C939 0.950 . S
H914 C940 0.950 . S
H915 C942 0.950 . S
H916 C945 0.950 . S
H917 C946 0.950 . S
H918 C948 0.950 . S
H919 C949 0.950 . S
C920 H902 0.951 1_455 S
C920 C921 1.366 . S
C920 C922 1.388 . S
C921 C920 1.366 . S
C921 C925 1.385 . S
C922 H903 0.951 . S
C922 C920 1.388 . S
C922 C923 1.366 . S
C923 C922 1.366 . S
C923 C924 1.414 . S
C923 C926 1.499 . S
C924 H904 0.950 . S
C924 C923 1.414 . S
C924 C925 1.374 . S
C925 H905 0.950 . S
C925 C921 1.385 . S
C925 C924 1.374 . S
C926 C923 1.499 . S
C926 C927 1.373 . S
C926 C928 1.389 1_556 S
C927 H906 0.950 . S
C927 C926 1.373 . S
C927 C943 1.377 . S
C928 C926 1.389 1_554 S
C928 C929 1.524 . S
C928 C942 1.377 . S
C929 C928 1.524 . S
C929 C930 1.397 . S
C929 C934 1.363 . S
C930 H907 0.950 . S
C930 C929 1.397 . S
C930 C931 1.334 . S
C931 H908 0.950 . S
C931 C930 1.334 . S
C931 C932 1.287 . S
C932 C931 1.287 . S
C932 C933 1.524 . S
C932 H951 0.913 1_455 S
C933 H909 0.950 . S
C933 C932 1.524 . S
C933 C934 1.415 . S
C934 H910 0.949 . S
C934 C929 1.363 . S
C934 C933 1.415 . S
C935 H911 0.951 . S
C935 C936 1.366 . S
C935 C937 1.388 . S
C936 C935 1.366 . S
C936 C940 1.385 . S
C937 H912 0.951 . S
C937 C935 1.388 . S
C937 C938 1.366 . S
C938 C937 1.366 . S
C938 C939 1.414 1_554 S
C938 C941 1.499 1_554 S
C939 H913 0.950 . S
C939 C938 1.414 1_556 S
C939 C940 1.374 1_556 S
C940 H914 0.950 . S
C940 C936 1.385 . S
C940 C939 1.374 1_554 S
C941 C938 1.499 1_556 S
C941 C942 1.373 1_556 S
C941 C943 1.389 . S
C942 H915 0.950 . S
C942 C928 1.377 . S
C942 C941 1.373 1_554 S
C943 C927 1.377 . S
C943 C941 1.389 . S
C943 C944 1.524 . S
C944 C943 1.524 . S
C944 C945 1.397 . S
C944 C949 1.363 . S
C945 H916 0.950 . S
C945 C944 1.397 . S
C945 C946 1.334 . S
C946 H917 0.950 . S
C946 C945 1.334 . S
C946 C947 1.287 . S
C947 C946 1.287 . S
C947 C948 1.524 . S
C947 H950 0.999 . S
C948 H918 0.950 . S
C948 C947 1.524 . S
C948 C949 1.415 . S
C949 H919 0.950 . S
C949 C944 1.363 . S
C949 C948 1.415 . S
H950 C947 0.999 . S
H951 C932 0.913 1_655 S
H952 C970 0.951 1_545 S
H953 C972 0.951 . S
H954 C974 0.950 . S
H955 C975 0.950 . S
H956 C977 0.950 . S
H957 C980 0.950 . S
H958 C981 0.950 . S
H959 C983 0.950 . S
H960 C984 0.950 . S
H961 C985 0.951 . S
H962 C987 0.951 . S
H963 C989 0.950 . S
H964 C990 0.950 . S
H965 C992 0.950 . S
H966 C995 0.950 . S
H967 C996 0.950 . S
H968 C998 0.950 . S
H969 C999 0.950 . S
C970 H952 0.951 1_565 S
C970 C971 1.366 . S
C970 C972 1.388 . S
C971 C970 1.366 . S
C971 C975 1.385 . S
C972 H953 0.951 . S
C972 C970 1.388 . S
C972 C973 1.366 . S
C973 C972 1.366 . S
C973 C974 1.414 . S
C973 C976 1.499 . S
C974 H954 0.950 . S
C974 C973 1.414 . S
C974 C975 1.374 . S
C975 H955 0.950 . S
C975 C971 1.385 . S
C975 C974 1.374 . S
C976 C973 1.499 . S
C976 C977 1.373 . S
C976 C978 1.389 . S
C977 H956 0.950 . S
C977 C976 1.373 . S
C977 C993 1.377 . S
C978 C976 1.389 . S
C978 C979 1.524 . S
C978 C992 1.377 . S
C979 C978 1.524 . S
C979 C980 1.397 . S
C979 C984 1.363 . S
C980 H957 0.950 . S
C980 C979 1.397 . S
C980 C981 1.334 . S
C981 H958 0.950 . S
C981 C980 1.334 . S
C981 C982 1.287 . S
C982 C981 1.287 . S
C982 C983 1.524 . S
C982 H1001 0.913 . S
C983 H959 0.950 . S
C983 C982 1.524 . S
C983 C984 1.415 . S
C984 H960 0.950 . S
C984 C979 1.363 . S
C984 C983 1.415 . S
C985 H961 0.951 . S
C985 C986 1.366 . S
C985 C987 1.388 . S
C986 C985 1.366 . S
C986 C990 1.385 . S
C987 H962 0.951 . S
C987 C985 1.388 . S
C987 C988 1.366 . S
C988 C987 1.366 . S
C988 C989 1.414 . S
C988 C991 1.499 . S
C989 H963 0.950 . S
C989 C988 1.414 . S
C989 C990 1.374 . S
C990 H964 0.950 . S
C990 C986 1.385 . S
C990 C989 1.374 . S
C991 C988 1.499 . S
C991 C992 1.373 . S
C991 C993 1.389 . S
C992 H965 0.950 . S
C992 C978 1.377 . S
C992 C991 1.373 . S
C993 C977 1.377 . S
C993 C991 1.389 . S
C993 C994 1.524 . S
C994 C993 1.524 . S
C994 C995 1.397 . S
C994 C999 1.363 . S
C995 H966 0.950 . S
C995 C994 1.397 . S
C995 C996 1.334 . S
C996 H967 0.950 . S
C996 C995 1.334 . S
C996 C997 1.287 . S
C997 C996 1.287 . S
C997 C998 1.524 . S
C997 H1000 0.999 . S
C998 H968 0.950 . S
C998 C997 1.524 . S
C998 C999 1.415 . S
C999 H969 0.950 . S
C999 C994 1.363 . S
C999 C998 1.415 . S
H1000 C997 0.999 . S
H1001 C982 0.913 . S
H1002 C1020 0.951 . S
H1003 C1022 0.951 . S
H1004 C1024 0.950 . S
H1005 C1025 0.950 . S
H1006 C1027 0.950 . S
H1007 C1030 0.950 . S
H1008 C1031 0.950 . S
H1009 C1033 0.950 . S
H1010 C1034 0.950 . S
H1011 C1035 0.951 . S
H1012 C1037 0.951 . S
H1013 C1039 0.950 . S
H1014 C1040 0.950 1_455 S
H1015 C1042 0.950 . S
H1016 C1045 0.950 . S
H1017 C1046 0.950 . S
H1018 C1048 0.950 . S
H1019 C1049 0.950 . S
C1020 H1002 0.951 . S
C1020 C1021 1.366 . S
C1020 C1022 1.388 . S
C1021 C1020 1.366 . S
C1021 C1025 1.385 . S
C1022 H1003 0.951 . S
C1022 C1020 1.388 . S
C1022 C1023 1.366 . S
C1023 C1022 1.366 . S
C1023 C1024 1.414 . S
C1023 C1026 1.499 . S
C1024 H1004 0.950 . S
C1024 C1023 1.414 . S
C1024 C1025 1.374 . S
C1025 H1005 0.950 . S
C1025 C1021 1.385 . S
C1025 C1024 1.374 . S
C1026 C1023 1.499 . S
C1026 C1027 1.373 . S
C1026 C1028 1.389 . S
C1027 H1006 0.950 . S
C1027 C1026 1.373 . S
C1027 C1043 1.377 . S
C1028 C1026 1.389 . S
C1028 C1029 1.524 . S
C1028 C1042 1.377 . S
C1029 C1028 1.524 . S
C1029 C1030 1.397 . S
C1029 C1034 1.363 . S
C1030 H1007 0.950 . S
C1030 C1029 1.397 . S
C1030 C1031 1.334 . S
C1031 H1008 0.950 . S
C1031 C1030 1.334 . S
C1031 C1032 1.287 . S
C1032 C1031 1.287 . S
C1032 C1033 1.524 . S
C1032 H1051 0.913 . S
C1033 H1009 0.950 . S
C1033 C1032 1.524 . S
C1033 C1034 1.415 . S
C1034 H1010 0.950 . S
C1034 C1029 1.363 . S
C1034 C1033 1.415 . S
C1035 H1011 0.951 . S
C1035 C1036 1.366 . S
C1035 C1037 1.388 . S
C1036 C1035 1.366 . S
C1036 C1040 1.385 . S
C1037 H1012 0.951 . S
C1037 C1035 1.388 . S
C1037 C1038 1.366 . S
C1038 C1037 1.366 . S
C1038 C1039 1.414 . S
C1038 C1041 1.499 . S
C1039 H1013 0.950 . S
C1039 C1038 1.414 . S
C1039 C1040 1.374 . S
C1040 H1014 0.950 1_655 S
C1040 C1036 1.385 . S
C1040 C1039 1.374 . S
C1041 C1038 1.499 . S
C1041 C1042 1.373 . S
C1041 C1043 1.389 . S
C1042 H1015 0.950 . S
C1042 C1028 1.377 . S
C1042 C1041 1.373 . S
C1043 C1027 1.377 . S
C1043 C1041 1.389 . S
C1043 C1044 1.524 . S
C1044 C1043 1.524 . S
C1044 C1045 1.397 . S
C1044 C1049 1.363 . S
C1045 H1016 0.950 . S
C1045 C1044 1.397 . S
C1045 C1046 1.334 . S
C1046 H1017 0.950 . S
C1046 C1045 1.334 . S
C1046 C1047 1.287 . S
C1047 C1046 1.287 . S
C1047 C1048 1.524 . S
C1047 H1050 0.999 . S
C1048 H1018 0.950 . S
C1048 C1047 1.524 . S
C1048 C1049 1.415 . S
C1049 H1019 0.950 . S
C1049 C1044 1.363 . S
C1049 C1048 1.415 . S
H1050 C1047 0.999 . S
H1051 C1032 0.913 . S
H1052 C1070 0.951 . S
H1053 C1072 0.951 . S
H1054 C1074 0.950 . S
H1055 C1075 0.950 . S
H1056 C1077 0.950 . S
H1057 C1080 0.950 . S
H1058 C1081 0.950 . S
H1059 C1083 0.950 . S
H1060 C1084 0.950 . S
H1061 C1085 0.951 1_565 S
H1062 C1087 0.951 . S
H1063 C1089 0.950 . S
H1064 C1090 0.950 . S
H1065 C1092 0.950 . S
H1066 C1095 0.950 . S
H1067 C1096 0.950 . S
H1068 C1098 0.950 . S
H1069 C1099 0.950 . S
C1070 H1052 0.951 . S
C1070 C1071 1.366 . S
C1070 C1072 1.388 . S
C1071 C1070 1.366 . S
C1071 C1075 1.385 . S
C1072 H1053 0.951 . S
C1072 C1070 1.388 . S
C1072 C1073 1.366 . S
C1073 C1072 1.366 . S
C1073 C1074 1.414 . S
C1073 C1076 1.499 . S
C1074 H1054 0.950 . S
C1074 C1073 1.414 . S
C1074 C1075 1.374 . S
C1075 H1055 0.950 . S
C1075 C1071 1.385 . S
C1075 C1074 1.374 . S
C1076 C1073 1.499 . S
C1076 C1077 1.373 . S
C1076 C1078 1.389 . S
C1077 H1056 0.950 . S
C1077 C1076 1.373 . S
C1077 C1093 1.377 . S
C1078 C1076 1.389 . S
C1078 C1079 1.524 . S
C1078 C1092 1.377 . S
C1079 C1078 1.524 . S
C1079 C1080 1.397 . S
C1079 C1084 1.363 . S
C1080 H1057 0.950 . S
C1080 C1079 1.397 . S
C1080 C1081 1.334 . S
C1081 H1058 0.950 . S
C1081 C1080 1.334 . S
C1081 C1082 1.287 . S
C1082 C1081 1.287 . S
C1082 C1083 1.524 . S
C1082 H1101 0.913 . S
C1083 H1059 0.950 . S
C1083 C1082 1.524 . S
C1083 C1084 1.415 . S
C1084 H1060 0.950 . S
C1084 C1079 1.363 . S
C1084 C1083 1.415 . S
C1085 H1061 0.951 1_545 S
C1085 C1086 1.366 . S
C1085 C1087 1.388 . S
C1086 C1085 1.366 . S
C1086 C1090 1.385 . S
C1087 H1062 0.951 . S
C1087 C1085 1.388 . S
C1087 C1088 1.366 . S
C1088 C1087 1.366 . S
C1088 C1089 1.414 . S
C1088 C1091 1.499 . S
C1089 H1063 0.950 . S
C1089 C1088 1.414 . S
C1089 C1090 1.374 . S
C1090 H1064 0.950 . S
C1090 C1086 1.385 . S
C1090 C1089 1.374 . S
C1091 C1088 1.499 . S
C1091 C1092 1.373 . S
C1091 C1093 1.389 . S
C1092 H1065 0.950 . S
C1092 C1078 1.377 . S
C1092 C1091 1.373 . S
C1093 C1077 1.377 . S
C1093 C1091 1.389 . S
C1093 C1094 1.524 . S
C1094 C1093 1.524 . S
C1094 C1095 1.397 . S
C1094 C1099 1.363 . S
C1095 H1066 0.950 . S
C1095 C1094 1.397 . S
C1095 C1096 1.334 . S
C1096 H1067 0.950 . S
C1096 C1095 1.334 . S
C1096 C1097 1.287 . S
C1097 C1096 1.287 . S
C1097 C1098 1.524 . S
C1097 H1100 0.999 1_545 S
C1098 H1068 0.950 . S
C1098 C1097 1.524 . S
C1098 C1099 1.415 . S
C1099 H1069 0.950 . S
C1099 C1094 1.363 . S
C1099 C1098 1.415 . S
H1100 C1097 0.999 1_565 S
H1101 C1082 0.913 . S
H1102 C1120 0.951 . S
H1103 C1122 0.951 . S
H1104 C1124 0.950 . S
H1105 C1125 0.950 . S
H1106 C1127 0.950 . S
H1107 C1130 0.950 . S
H1108 C1131 0.950 . S
H1109 C1133 0.950 . S
H1110 C1134 0.950 . S
H1111 C1135 0.951 1_655 S
H1112 C1137 0.951 . S
H1113 C1139 0.950 . S
H1114 C1140 0.950 . S
H1115 C1142 0.950 . S
H1116 C1145 0.950 . S
H1117 C1146 0.950 . S
H1118 C1148 0.950 . S
H1119 C1149 0.950 . S
C1120 H1102 0.951 . S
C1120 C1121 1.366 . S
C1120 C1122 1.388 . S
C1121 C1120 1.366 . S
C1121 C1125 1.385 . S
C1122 H1103 0.951 . S
C1122 C1120 1.388 . S
C1122 C1123 1.366 . S
C1123 C1122 1.366 . S
C1123 C1124 1.414 . S
C1123 C1126 1.499 . S
C1124 H1104 0.950 . S
C1124 C1123 1.414 . S
C1124 C1125 1.374 . S
C1125 H1105 0.950 . S
C1125 C1121 1.385 . S
C1125 C1124 1.374 . S
C1126 C1123 1.499 . S
C1126 C1127 1.373 . S
C1126 C1128 1.389 . S
C1127 H1106 0.950 . S
C1127 C1126 1.373 . S
C1127 C1143 1.377 . S
C1128 C1126 1.389 . S
C1128 C1129 1.524 . S
C1128 C1142 1.377 . S
C1129 C1128 1.524 . S
C1129 C1130 1.397 . S
C1129 C1134 1.363 . S
C1130 H1107 0.950 . S
C1130 C1129 1.397 . S
C1130 C1131 1.334 . S
C1131 H1108 0.950 . S
C1131 C1130 1.334 . S
C1131 C1132 1.287 . S
C1132 C1131 1.287 . S
C1132 C1133 1.524 . S
C1132 H1151 0.913 . S
C1133 H1109 0.950 . S
C1133 C1132 1.524 . S
C1133 C1134 1.415 . S
C1134 H1110 0.950 . S
C1134 C1129 1.363 . S
C1134 C1133 1.415 . S
C1135 H1111 0.951 1_455 S
C1135 C1136 1.366 . S
C1135 C1137 1.388 . S
C1136 C1135 1.366 . S
C1136 C1140 1.385 . S
C1137 H1112 0.951 . S
C1137 C1135 1.388 . S
C1137 C1138 1.366 . S
C1138 C1137 1.366 . S
C1138 C1139 1.414 . S
C1138 C1141 1.499 . S
C1139 H1113 0.950 . S
C1139 C1138 1.414 . S
C1139 C1140 1.374 . S
C1140 H1114 0.950 . S
C1140 C1136 1.385 . S
C1140 C1139 1.374 . S
C1141 C1138 1.499 . S
C1141 C1142 1.373 . S
C1141 C1143 1.389 . S
C1142 H1115 0.950 . S
C1142 C1128 1.377 . S
C1142 C1141 1.373 . S
C1143 C1127 1.377 . S
C1143 C1141 1.389 . S
C1143 C1144 1.524 . S
C1144 C1143 1.524 . S
C1144 C1145 1.397 . S
C1144 C1149 1.363 . S
C1145 H1116 0.950 . S
C1145 C1144 1.397 . S
C1145 C1146 1.334 . S
C1146 H1117 0.950 . S
C1146 C1145 1.334 . S
C1146 C1147 1.287 . S
C1147 C1146 1.287 . S
C1147 C1148 1.524 . S
C1147 H1150 0.999 . S
C1148 H1118 0.950 . S
C1148 C1147 1.524 . S
C1148 C1149 1.415 . S
C1149 H1119 0.950 . S
C1149 C1144 1.363 . S
C1149 C1148 1.415 . S
H1150 C1147 0.999 . S
H1151 C1132 0.913 . S
H1152 C1170 0.951 . S
H1153 C1172 0.951 . S
H1154 C1174 0.950 . S
H1155 C1175 0.950 . S
H1156 C1177 0.950 . S
H1157 C1180 0.950 . S
H1158 C1181 0.950 . S
H1159 C1183 0.950 . S
H1160 C1184 0.950 . S
H1161 C1185 0.951 . S
H1162 C1187 0.951 . S
H1163 C1189 0.950 . S
H1164 C1190 0.950 . S
H1165 C1192 0.950 . S
H1166 C1195 0.950 . S
H1167 C1196 0.950 . S
H1168 C1198 0.950 . S
H1169 C1199 0.950 . S
C1170 H1152 0.951 . S
C1170 C1171 1.366 . S
C1170 C1172 1.388 . S
C1171 C1170 1.366 . S
C1171 C1175 1.385 . S
C1172 H1153 0.951 . S
C1172 C1170 1.388 . S
C1172 C1173 1.366 . S
C1173 C1172 1.366 . S
C1173 C1174 1.414 . S
C1173 C1176 1.499 . S
C1174 H1154 0.950 . S
C1174 C1173 1.414 . S
C1174 C1175 1.374 . S
C1175 H1155 0.950 . S
C1175 C1171 1.385 . S
C1175 C1174 1.374 . S
C1176 C1173 1.499 . S
C1176 C1177 1.373 . S
C1176 C1178 1.389 . S
C1177 H1156 0.950 . S
C1177 C1176 1.373 . S
C1177 C1193 1.377 . S
C1178 C1176 1.389 . S
C1178 C1179 1.524 . S
C1178 C1192 1.377 . S
C1179 C1178 1.524 . S
C1179 C1180 1.397 . S
C1179 C1184 1.363 . S
C1180 H1157 0.950 . S
C1180 C1179 1.397 . S
C1180 C1181 1.334 . S
C1181 H1158 0.950 . S
C1181 C1180 1.334 . S
C1181 C1182 1.287 . S
C1182 C1181 1.287 . S
C1182 C1183 1.524 . S
C1182 H1201 0.913 . S
C1183 H1159 0.950 . S
C1183 C1182 1.524 . S
C1183 C1184 1.415 . S
C1184 H1160 0.950 . S
C1184 C1179 1.363 . S
C1184 C1183 1.415 . S
C1185 H1161 0.951 . S
C1185 C1186 1.366 . S
C1185 C1187 1.388 . S
C1186 C1185 1.366 . S
C1186 C1190 1.385 . S
C1187 H1162 0.951 . S
C1187 C1185 1.388 . S
C1187 C1188 1.366 . S
C1188 C1187 1.366 . S
C1188 C1189 1.414 . S
C1188 C1191 1.499 . S
C1189 H1163 0.950 . S
C1189 C1188 1.414 . S
C1189 C1190 1.374 . S
C1190 H1164 0.950 . S
C1190 C1186 1.385 . S
C1190 C1189 1.374 . S
C1191 C1188 1.499 . S
C1191 C1192 1.373 . S
C1191 C1193 1.389 . S
C1192 H1165 0.950 . S
C1192 C1178 1.377 . S
C1192 C1191 1.373 . S
C1193 C1177 1.377 . S
C1193 C1191 1.389 . S
C1193 C1194 1.524 . S
C1194 C1193 1.524 . S
C1194 C1195 1.397 . S
C1194 C1199 1.363 . S
C1195 H1166 0.950 . S
C1195 C1194 1.397 . S
C1195 C1196 1.334 . S
C1196 H1167 0.950 . S
C1196 C1195 1.334 . S
C1196 C1197 1.287 . S
C1197 C1196 1.287 . S
C1197 C1198 1.524 . S
C1197 H1200 0.999 . S
C1198 H1168 0.950 . S
C1198 C1197 1.524 . S
C1198 C1199 1.415 . S
C1199 H1169 0.950 . S
C1199 C1194 1.363 . S
C1199 C1198 1.415 . S
H1200 C1197 0.999 . S
H1201 C1182 0.913 . S
H1202 C1220 0.951 . S
H1203 C1222 0.951 . S
H1204 C1224 0.950 . S
H1205 C1225 0.950 . S
H1206 C1227 0.950 . S
H1207 C1230 0.950 . S
H1208 C1231 0.950 . S
H1209 C1233 0.950 . S
H1210 C1234 0.950 . S
H1211 C1235 0.951 . S
H1212 C1237 0.951 . S
H1213 C1239 0.950 . S
H1214 C1240 0.950 . S
H1215 C1242 0.950 . S
H1216 C1245 0.950 . S
H1217 C1246 0.950 . S
H1218 C1248 0.950 . S
H1219 C1249 0.950 . S
C1220 H1202 0.951 . S
C1220 C1221 1.366 . S
C1220 C1222 1.388 . S
C1221 C1220 1.366 . S
C1221 C1225 1.385 . S
C1222 H1203 0.951 . S
C1222 C1220 1.388 . S
C1222 C1223 1.366 . S
C1223 C1222 1.366 . S
C1223 C1224 1.414 . S
C1223 C1226 1.499 . S
C1224 H1204 0.950 . S
C1224 C1223 1.414 . S
C1224 C1225 1.374 . S
C1225 H1205 0.950 . S
C1225 C1221 1.385 . S
C1225 C1224 1.374 . S
C1226 C1223 1.499 . S
C1226 C1227 1.373 . S
C1226 C1228 1.389 . S
C1227 H1206 0.950 . S
C1227 C1226 1.373 . S
C1227 C1243 1.377 . S
C1228 C1226 1.389 . S
C1228 C1229 1.524 . S
C1228 C1242 1.377 . S
C1229 C1228 1.524 . S
C1229 C1230 1.397 . S
C1229 C1234 1.363 . S
C1230 H1207 0.950 . S
C1230 C1229 1.397 . S
C1230 C1231 1.334 . S
C1231 H1208 0.950 . S
C1231 C1230 1.334 . S
C1231 C1232 1.287 . S
C1232 C1231 1.287 . S
C1232 C1233 1.524 . S
C1232 H1251 0.913 . S
C1233 H1209 0.950 . S
C1233 C1232 1.524 . S
C1233 C1234 1.415 . S
C1234 H1210 0.950 . S
C1234 C1229 1.363 . S
C1234 C1233 1.415 . S
C1235 H1211 0.951 . S
C1235 C1236 1.366 . S
C1235 C1237 1.388 . S
C1236 C1235 1.366 . S
C1236 C1240 1.385 . S
C1237 H1212 0.951 . S
C1237 C1235 1.388 . S
C1237 C1238 1.366 . S
C1238 C1237 1.366 . S
C1238 C1239 1.414 . S
C1238 C1241 1.499 . S
C1239 H1213 0.950 . S
C1239 C1238 1.414 . S
C1239 C1240 1.374 . S
C1240 H1214 0.950 . S
C1240 C1236 1.385 . S
C1240 C1239 1.374 . S
C1241 C1238 1.499 . S
C1241 C1242 1.373 . S
C1241 C1243 1.389 . S
C1242 H1215 0.950 . S
C1242 C1228 1.377 . S
C1242 C1241 1.373 . S
C1243 C1227 1.377 . S
C1243 C1241 1.389 . S
C1243 C1244 1.524 . S
C1244 C1243 1.524 . S
C1244 C1245 1.397 . S
C1244 C1249 1.363 . S
C1245 H1216 0.950 . S
C1245 C1244 1.397 . S
C1245 C1246 1.334 . S
C1246 H1217 0.950 . S
C1246 C1245 1.334 . S
C1246 C1247 1.287 . S
C1247 C1246 1.287 . S
C1247 C1248 1.524 . S
C1247 H1250 0.999 . S
C1248 H1218 0.950 . S
C1248 C1247 1.524 . S
C1248 C1249 1.415 . S
C1249 H1219 0.950 . S
C1249 C1244 1.363 . S
C1249 C1248 1.415 . S
H1250 C1247 0.999 . S
H1251 C1232 0.913 . S
H1252 C1270 0.951 . S
H1253 C1272 0.951 . S
H1254 C1274 0.950 . S
H1255 C1275 0.950 . S
H1256 C1277 0.950 . S
H1257 C1280 0.950 . S
H1258 C1281 0.950 . S
H1259 C1283 0.950 . S
H1260 C1284 0.950 . S
H1261 C1285 0.951 . S
H1262 C1287 0.951 . S
H1263 C1289 0.950 . S
H1264 C1290 0.950 . S
H1265 C1292 0.950 . S
H1266 C1295 0.950 . S
H1267 C1296 0.950 . S
H1268 C1298 0.950 . S
H1269 C1299 0.950 . S
C1270 H1252 0.951 . S
C1270 C1271 1.366 . S
C1270 C1272 1.388 . S
C1271 C1270 1.366 . S
C1271 C1275 1.385 . S
C1272 H1253 0.951 . S
C1272 C1270 1.388 . S
C1272 C1273 1.366 . S
C1273 C1272 1.366 . S
C1273 C1274 1.414 . S
C1273 C1276 1.499 . S
C1274 H1254 0.950 . S
C1274 C1273 1.414 . S
C1274 C1275 1.374 . S
C1275 H1255 0.950 . S
C1275 C1271 1.385 . S
C1275 C1274 1.374 . S
C1276 C1273 1.499 . S
C1276 C1277 1.373 . S
C1276 C1278 1.389 . S
C1277 H1256 0.950 . S
C1277 C1276 1.373 . S
C1277 C1293 1.377 . S
C1278 C1276 1.389 . S
C1278 C1279 1.524 . S
C1278 C1292 1.377 . S
C1279 C1278 1.524 . S
C1279 C1280 1.397 . S
C1279 C1284 1.363 . S
C1280 H1257 0.950 . S
C1280 C1279 1.397 . S
C1280 C1281 1.334 . S
C1281 H1258 0.950 . S
C1281 C1280 1.334 . S
C1281 C1282 1.287 . S
C1282 C1281 1.287 . S
C1282 C1283 1.524 . S
C1282 H1301 0.913 . S
C1283 H1259 0.950 . S
C1283 C1282 1.524 . S
C1283 C1284 1.415 . S
C1284 H1260 0.950 . S
C1284 C1279 1.363 . S
C1284 C1283 1.415 . S
C1285 H1261 0.951 . S
C1285 C1286 1.366 . S
C1285 C1287 1.388 . S
C1286 C1285 1.366 . S
C1286 C1290 1.385 . S
C1287 H1262 0.951 . S
C1287 C1285 1.388 . S
C1287 C1288 1.366 . S
C1288 C1287 1.366 . S
C1288 C1289 1.414 . S
C1288 C1291 1.499 . S
C1289 H1263 0.950 . S
C1289 C1288 1.414 . S
C1289 C1290 1.374 . S
C1290 H1264 0.950 . S
C1290 C1286 1.385 . S
C1290 C1289 1.374 . S
C1291 C1288 1.499 . S
C1291 C1292 1.373 . S
C1291 C1293 1.389 . S
C1292 H1265 0.950 . S
C1292 C1278 1.377 . S
C1292 C1291 1.373 . S
C1293 C1277 1.377 . S
C1293 C1291 1.389 . S
C1293 C1294 1.524 . S
C1294 C1293 1.524 . S
C1294 C1295 1.397 . S
C1294 C1299 1.363 . S
C1295 H1266 0.950 . S
C1295 C1294 1.397 . S
C1295 C1296 1.334 . S
C1296 H1267 0.950 . S
C1296 C1295 1.334 . S
C1296 C1297 1.287 . S
C1297 C1296 1.287 . S
C1297 C1298 1.524 . S
C1297 H1300 0.999 . S
C1298 H1268 0.950 . S
C1298 C1297 1.524 . S
C1298 C1299 1.415 . S
C1299 H1269 0.950 . S
C1299 C1294 1.363 . S
C1299 C1298 1.415 . S
H1300 C1297 0.999 . S
H1301 C1282 0.913 . S
H1302 C1320 0.951 . S
H1303 C1322 0.951 . S
H1304 C1324 0.950 . S
H1305 C1325 0.950 . S
H1306 C1327 0.950 . S
H1307 C1330 0.950 . S
H1308 C1331 0.950 . S
H1309 C1333 0.950 . S
H1310 C1334 0.950 . S
H1311 C1335 0.951 . S
H1312 C1337 0.951 . S
H1313 C1339 0.950 . S
H1314 C1340 0.950 . S
H1315 C1342 0.950 . S
H1316 C1345 0.950 . S
H1317 C1346 0.950 . S
H1318 C1348 0.950 . S
H1319 C1349 0.950 . S
C1320 H1302 0.951 . S
C1320 C1321 1.366 . S
C1320 C1322 1.388 . S
C1321 C1320 1.366 . S
C1321 C1325 1.385 . S
C1322 H1303 0.951 . S
C1322 C1320 1.388 . S
C1322 C1323 1.366 . S
C1323 C1322 1.366 . S
C1323 C1324 1.414 . S
C1323 C1326 1.499 . S
C1324 H1304 0.950 . S
C1324 C1323 1.414 . S
C1324 C1325 1.374 . S
C1325 H1305 0.950 . S
C1325 C1321 1.385 . S
C1325 C1324 1.374 . S
C1326 C1323 1.499 . S
C1326 C1327 1.373 . S
C1326 C1328 1.389 . S
C1327 H1306 0.950 . S
C1327 C1326 1.373 . S
C1327 C1343 1.377 . S
C1328 C1326 1.389 . S
C1328 C1329 1.524 . S
C1328 C1342 1.377 . S
C1329 C1328 1.524 . S
C1329 C1330 1.397 . S
C1329 C1334 1.363 . S
C1330 H1307 0.950 . S
C1330 C1329 1.397 . S
C1330 C1331 1.334 . S
C1331 H1308 0.950 . S
C1331 C1330 1.334 . S
C1331 C1332 1.287 . S
C1332 C1331 1.287 . S
C1332 C1333 1.524 . S
C1332 H1351 0.913 . S
C1333 H1309 0.950 . S
C1333 C1332 1.524 . S
C1333 C1334 1.415 . S
C1334 H1310 0.950 . S
C1334 C1329 1.363 . S
C1334 C1333 1.415 . S
C1335 H1311 0.951 . S
C1335 C1336 1.366 . S
C1335 C1337 1.388 . S
C1336 C1335 1.366 . S
C1336 C1340 1.385 . S
C1337 H1312 0.951 . S
C1337 C1335 1.388 . S
C1337 C1338 1.366 . S
C1338 C1337 1.366 . S
C1338 C1339 1.414 . S
C1338 C1341 1.499 . S
C1339 H1313 0.950 . S
C1339 C1338 1.414 . S
C1339 C1340 1.374 . S
C1340 H1314 0.950 . S
C1340 C1336 1.385 . S
C1340 C1339 1.374 . S
C1341 C1338 1.499 . S
C1341 C1342 1.373 . S
C1341 C1343 1.389 . S
C1342 H1315 0.950 . S
C1342 C1328 1.377 . S
C1342 C1341 1.373 . S
C1343 C1327 1.377 . S
C1343 C1341 1.389 . S
C1343 C1344 1.524 . S
C1344 C1343 1.524 . S
C1344 C1345 1.397 . S
C1344 C1349 1.363 . S
C1345 H1316 0.950 . S
C1345 C1344 1.397 . S
C1345 C1346 1.334 . S
C1346 H1317 0.950 . S
C1346 C1345 1.334 . S
C1346 C1347 1.287 . S
C1347 C1346 1.287 . S
C1347 C1348 1.524 . S
C1347 H1350 0.999 . S
C1348 H1318 0.950 . S
C1348 C1347 1.524 . S
C1348 C1349 1.415 . S
C1349 H1319 0.950 . S
C1349 C1344 1.363 . S
C1349 C1348 1.415 . S
H1350 C1347 0.999 . S
H1351 C1332 0.913 . S
H1352 C1370 0.951 . S
H1353 C1372 0.951 . S
H1354 C1374 0.950 . S
H1355 C1375 0.950 . S
H1356 C1377 0.950 . S
H1357 C1380 0.950 . S
H1358 C1381 0.950 . S
H1359 C1383 0.950 . S
H1360 C1384 0.950 . S
H1361 C1385 0.951 . S
H1362 C1387 0.951 . S
H1363 C1389 0.950 . S
H1364 C1390 0.950 . S
H1365 C1392 0.950 . S
H1366 C1395 0.950 . S
H1367 C1396 0.950 . S
H1368 C1398 0.950 . S
H1369 C1399 0.950 . S
C1370 H1352 0.951 . S
C1370 C1371 1.366 . S
C1370 C1372 1.388 . S
C1371 C1370 1.366 . S
C1371 C1375 1.385 . S
C1372 H1353 0.951 . S
C1372 C1370 1.388 . S
C1372 C1373 1.366 . S
C1373 C1372 1.366 . S
C1373 C1374 1.414 . S
C1373 C1376 1.499 1_556 S
C1374 H1354 0.950 . S
C1374 C1373 1.414 . S
C1374 C1375 1.374 . S
C1375 H1355 0.950 . S
C1375 C1371 1.385 . S
C1375 C1374 1.374 . S
C1376 C1373 1.499 1_554 S
C1376 C1377 1.373 1_554 S
C1376 C1378 1.389 . S
C1377 H1356 0.950 . S
C1377 C1376 1.373 1_556 S
C1377 C1393 1.377 . S
C1378 C1376 1.389 . S
C1378 C1379 1.524 . S
C1378 C1392 1.377 . S
C1379 C1378 1.524 . S
C1379 C1380 1.397 . S
C1379 C1384 1.363 . S
C1380 H1357 0.950 . S
C1380 C1379 1.397 . S
C1380 C1381 1.334 . S
C1381 H1358 0.950 . S
C1381 C1380 1.334 . S
C1381 C1382 1.287 . S
C1382 C1381 1.287 . S
C1382 C1383 1.524 . S
C1382 H1401 0.913 . S
C1383 H1359 0.950 . S
C1383 C1382 1.524 . S
C1383 C1384 1.415 . S
C1384 H1360 0.950 . S
C1384 C1379 1.363 . S
C1384 C1383 1.415 . S
C1385 H1361 0.951 . S
C1385 C1386 1.366 . S
C1385 C1387 1.388 . S
C1386 C1385 1.366 . S
C1386 C1390 1.385 . S
C1387 H1362 0.951 . S
C1387 C1385 1.388 . S
C1387 C1388 1.366 . S
C1388 C1387 1.366 . S
C1388 C1389 1.414 . S
C1388 C1391 1.499 . S
C1389 H1363 0.950 . S
C1389 C1388 1.414 . S
C1389 C1390 1.374 . S
C1390 H1364 0.950 . S
C1390 C1386 1.385 . S
C1390 C1389 1.374 . S
C1391 C1388 1.499 . S
C1391 C1392 1.373 . S
C1391 C1393 1.389 1_554 S
C1392 H1365 0.950 . S
C1392 C1378 1.377 . S
C1392 C1391 1.373 . S
C1393 C1377 1.377 . S
C1393 C1391 1.389 1_556 S
C1393 C1394 1.524 . S
C1394 C1393 1.524 . S
C1394 C1395 1.397 . S
C1394 C1399 1.363 . S
C1395 H1366 0.950 . S
C1395 C1394 1.397 . S
C1395 C1396 1.334 . S
C1396 H1367 0.950 . S
C1396 C1395 1.334 . S
C1396 C1397 1.287 . S
C1397 C1396 1.287 . S
C1397 C1398 1.524 . S
C1397 H1400 0.999 . S
C1398 H1368 0.950 . S
C1398 C1397 1.524 . S
C1398 C1399 1.415 . S
C1399 H1369 0.950 . S
C1399 C1394 1.363 . S
C1399 C1398 1.415 . S
H1400 C1397 0.999 . S
H1401 C1382 0.913 . S
H1402 C1420 0.951 . S
H1403 C1422 0.951 . S
H1404 C1424 0.950 . S
H1405 C1425 0.950 . S
H1406 C1427 0.950 . S
H1407 C1430 0.950 . S
H1408 C1431 0.950 . S
H1409 C1433 0.950 . S
H1410 C1434 0.950 . S
H1411 C1435 0.951 . S
H1412 C1437 0.951 . S
H1413 C1439 0.950 1_554 S
H1414 C1440 0.950 1_554 S
H1415 C1442 0.950 . S
H1416 C1445 0.950 1_554 S
H1417 C1446 0.950 1_554 S
H1418 C1448 0.950 . S
H1419 C1449 0.950 . S
C1420 H1402 0.951 . S
C1420 C1421 1.366 . S
C1420 C1422 1.388 . S
C1421 C1420 1.366 . S
C1421 C1425 1.385 1_554 S
C1422 H1403 0.951 . S
C1422 C1420 1.388 . S
C1422 C1423 1.366 . S
C1423 C1422 1.366 . S
C1423 C1424 1.414 1_554 S
C1423 C1426 1.499 1_554 S
C1424 H1404 0.950 . S
C1424 C1423 1.414 1_556 S
C1424 C1425 1.374 . S
C1425 H1405 0.950 . S
C1425 C1421 1.385 1_556 S
C1425 C1424 1.374 . S
C1426 C1423 1.499 1_556 S
C1426 C1427 1.373 . S
C1426 C1428 1.389 . S
C1427 H1406 0.950 . S
C1427 C1426 1.373 . S
C1427 C1443 1.377 . S
C1428 C1426 1.389 . S
C1428 C1429 1.524 1_556 S
C1428 C1442 1.377 . S
C1429 C1428 1.524 1_554 S
C1429 C1430 1.397 1_554 S
C1429 C1434 1.363 . S
C1430 H1407 0.950 . S
C1430 C1429 1.397 1_556 S
C1430 C1431 1.334 . S
C1431 H1408 0.950 . S
C1431 C1430 1.334 . S
C1431 C1432 1.287 1_556 S
C1432 C1431 1.287 1_554 S
C1432 C1433 1.524 . S
C1432 H1451 0.913 . S
C1433 H1409 0.950 . S
C1433 C1432 1.524 . S
C1433 C1434 1.415 . S
C1434 H1410 0.950 . S
C1434 C1429 1.363 . S
C1434 C1433 1.415 . S
C1435 H1411 0.951 . S
C1435 C1436 1.366 . S
C1435 C1437 1.388 . S
C1436 C1435 1.366 . S
C1436 C1440 1.385 . S
C1437 H1412 0.951 . S
C1437 C1435 1.388 . S
C1437 C1438 1.366 . S
C1438 C1437 1.366 . S
C1438 C1439 1.414 . S
C1438 C1441 1.499 . S
C1439 H1413 0.950 1_556 S
C1439 C1438 1.414 . S
C1439 C1440 1.374 . S
C1440 H1414 0.950 1_556 S
C1440 C1436 1.385 . S
C1440 C1439 1.374 . S
C1441 C1438 1.499 . S
C1441 C1442 1.373 . S
C1441 C1443 1.389 . S
C1442 H1415 0.950 . S
C1442 C1428 1.377 . S
C1442 C1441 1.373 . S
C1443 C1427 1.377 . S
C1443 C1441 1.389 . S
C1443 C1444 1.524 . S
C1444 C1443 1.524 . S
C1444 C1445 1.397 . S
C1444 C1449 1.363 . S
C1445 H1416 0.950 1_556 S
C1445 C1444 1.397 . S
C1445 C1446 1.334 . S
C1446 H1417 0.950 1_556 S
C1446 C1445 1.334 . S
C1446 C1447 1.287 . S
C1447 C1446 1.287 . S
C1447 C1448 1.524 . S
C1447 H1450 0.999 . S
C1448 H1418 0.950 . S
C1448 C1447 1.524 . S
C1448 C1449 1.415 . S
C1449 H1419 0.950 . S
C1449 C1444 1.363 . S
C1449 C1448 1.415 . S
H1450 C1447 0.999 . S
H1451 C1432 0.913 . S
H1452 C1470 0.951 . S
H1453 C1472 0.951 . S
H1454 C1474 0.950 . S
H1455 C1475 0.950 . S
H1456 C1477 0.950 . S
H1457 C1480 0.950 . S
H1458 C1481 0.950 . S
H1459 C1483 0.950 . S
H1460 C1484 0.950 . S
H1461 C1485 0.951 . S
H1462 C1487 0.951 1_556 S
H1463 C1489 0.950 . S
H1464 C1490 0.950 . S
H1465 C1492 0.950 . S
H1466 C1495 0.950 . S
H1467 C1496 0.950 . S
H1468 C1498 0.950 . S
H1469 C1499 0.950 . S
C1470 H1452 0.951 . S
C1470 C1471 1.366 1_554 S
C1470 C1472 1.388 . S
C1471 C1470 1.366 1_556 S
C1471 C1475 1.385 . S
C1472 H1453 0.951 . S
C1472 C1470 1.388 . S
C1472 C1473 1.366 1_554 S
C1473 C1472 1.366 1_556 S
C1473 C1474 1.414 . S
C1473 C1476 1.499 1_556 S
C1474 H1454 0.950 . S
C1474 C1473 1.414 . S
C1474 C1475 1.374 . S
C1475 H1455 0.950 . S
C1475 C1471 1.385 . S
C1475 C1474 1.374 . S
C1476 C1473 1.499 1_554 S
C1476 C1477 1.373 1_554 S
C1476 C1478 1.389 . S
C1477 H1456 0.950 . S
C1477 C1476 1.373 1_556 S
C1477 C1493 1.377 . S
C1478 C1476 1.389 . S
C1478 C1479 1.524 . S
C1478 C1492 1.377 . S
C1479 C1478 1.524 . S
C1479 C1480 1.397 . S
C1479 C1484 1.363 . S
C1480 H1457 0.950 . S
C1480 C1479 1.397 . S
C1480 C1481 1.334 . S
C1481 H1458 0.950 . S
C1481 C1480 1.334 . S
C1481 C1482 1.287 . S
C1482 C1481 1.287 . S
C1482 C1483 1.524 . S
C1482 H1501 0.913 . S
C1483 H1459 0.950 . S
C1483 C1482 1.524 . S
C1483 C1484 1.415 . S
C1484 H1460 0.950 . S
C1484 C1479 1.363 . S
C1484 C1483 1.415 . S
C1485 H1461 0.951 . S
C1485 C1486 1.366 . S
C1485 C1487 1.388 . S
C1486 C1485 1.366 . S
C1486 C1490 1.385 . S
C1487 H1462 0.951 1_554 S
C1487 C1485 1.388 . S
C1487 C1488 1.366 . S
C1488 C1487 1.366 . S
C1488 C1489 1.414 . S
C1488 C1491 1.499 . S
C1489 H1463 0.950 . S
C1489 C1488 1.414 . S
C1489 C1490 1.374 . S
C1490 H1464 0.950 . S
C1490 C1486 1.385 . S
C1490 C1489 1.374 . S
C1491 C1488 1.499 . S
C1491 C1492 1.373 . S
C1491 C1493 1.389 1_554 S
C1492 H1465 0.950 . S
C1492 C1478 1.377 . S
C1492 C1491 1.373 . S
C1493 C1477 1.377 . S
C1493 C1491 1.389 1_556 S
C1493 C1494 1.524 . S
C1494 C1493 1.524 . S
C1494 C1495 1.397 . S
C1494 C1499 1.363 . S
C1495 H1466 0.950 . S
C1495 C1494 1.397 . S
C1495 C1496 1.334 . S
C1496 H1467 0.950 . S
C1496 C1495 1.334 . S
C1496 C1497 1.287 . S
C1497 C1496 1.287 . S
C1497 C1498 1.524 . S
C1497 H1500 0.999 . S
C1498 H1468 0.950 . S
C1498 C1497 1.524 . S
C1498 C1499 1.415 . S
C1499 H1469 0.950 . S
C1499 C1494 1.363 . S
C1499 C1498 1.415 . S
H1500 C1497 0.999 . S
H1501 C1482 0.913 . S
H1502 C1520 0.951 . S
H1503 C1522 0.951 . S
H1504 C1524 0.950 1_554 S
H1505 C1525 0.950 1_554 S
H1506 C1527 0.948 1_554 S
H1507 C1530 0.950 . S
H1508 C1531 0.950 . S
H1509 C1533 0.950 . S
H1510 C1534 0.950 . S
H1511 C1535 0.951 . S
H1512 C1537 0.951 . S
H1513 C1539 0.950 . S
H1514 C1540 0.950 . S
H1515 C1542 0.950 . S
H1516 C1545 0.950 1_556 S
H1517 C1546 0.950 . S
H1518 C1548 0.950 . S
H1519 C1549 0.950 . S
C1520 H1502 0.951 . S
C1520 C1521 1.366 . S
C1520 C1522 1.388 . S
C1521 C1520 1.366 . S
C1521 C1525 1.385 . S
C1522 H1503 0.951 . S
C1522 C1520 1.388 . S
C1522 C1523 1.366 . S
C1523 C1522 1.366 . S
C1523 C1524 1.414 . S
C1523 C1526 1.499 . S
C1524 H1504 0.950 1_556 S
C1524 C1523 1.414 . S
C1524 C1525 1.374 . S
C1525 H1505 0.950 1_556 S
C1525 C1521 1.385 . S
C1525 C1524 1.374 . S
C1526 C1523 1.499 . S
C1526 C1527 1.376 . S
C1526 C1528 1.389 . S
C1527 H1506 0.948 1_556 S
C1527 C1526 1.376 . S
C1527 C1543 1.375 1_556 S
C1528 C1526 1.389 . S
C1528 C1529 1.524 . S
C1528 C1542 1.377 . S
C1529 C1528 1.524 . S
C1529 C1530 1.397 . S
C1529 C1534 1.363 . S
C1530 H1507 0.950 . S
C1530 C1529 1.397 . S
C1530 C1531 1.334 . S
C1531 H1508 0.950 . S
C1531 C1530 1.334 . S
C1531 C1532 1.287 . S
C1532 C1531 1.287 . S
C1532 C1533 1.524 . S
C1532 H1551 0.913 . S
C1533 H1509 0.950 . S
C1533 C1532 1.524 . S
C1533 C1534 1.415 . S
C1534 H1510 0.950 . S
C1534 C1529 1.363 . S
C1534 C1533 1.415 . S
C1535 H1511 0.951 . S
C1535 C1536 1.366 . S
C1535 C1537 1.388 . S
C1536 C1535 1.366 . S
C1536 C1540 1.385 1_554 S
C1537 H1512 0.951 . S
C1537 C1535 1.388 . S
C1537 C1538 1.366 . S
C1538 C1537 1.366 . S
C1538 C1539 1.414 1_554 S
C1538 C1541 1.499 1_554 S
C1539 H1513 0.950 . S
C1539 C1538 1.414 1_556 S
C1539 C1540 1.374 . S
C1540 H1514 0.950 . S
C1540 C1536 1.385 1_556 S
C1540 C1539 1.374 . S
C1541 C1538 1.499 1_556 S
C1541 C1542 1.373 . S
C1541 C1543 1.389 1_556 S
C1542 H1515 0.950 . S
C1542 C1528 1.377 . S
C1542 C1541 1.373 . S
C1543 C1527 1.375 1_554 S
C1543 C1541 1.389 1_554 S
C1543 C1544 1.524 . S
C1544 C1543 1.524 . S
C1544 C1545 1.397 . S
C1544 C1549 1.363 . S
C1545 H1516 0.950 1_554 S
C1545 C1544 1.397 . S
C1545 C1546 1.334 . S
C1546 H1517 0.950 . S
C1546 C1545 1.334 . S
C1546 C1547 1.287 . S
C1547 C1546 1.287 . S
C1547 C1548 1.524 . S
C1547 H1550 0.999 . S
C1548 H1518 0.950 . S
C1548 C1547 1.524 . S
C1548 C1549 1.415 . S
C1549 H1519 0.950 . S
C1549 C1544 1.363 . S
C1549 C1548 1.415 . S
H1550 C1547 0.999 . S
H1551 C1532 0.913 . S
H1552 C1570 0.951 1_545 S
H1553 C1572 0.951 . S
H1554 C1574 0.950 . S
H1555 C1575 0.950 . S
H1556 C1577 0.950 . S
H1557 C1580 0.935 1_565 S
H1558 C1581 0.950 . S
H1559 C1583 0.950 . S
H1560 C1584 0.950 . S
H1561 C1585 0.951 . S
H1562 C1587 0.951 . S
H1563 C1589 0.950 . S
H1564 C1590 0.950 . S
H1565 C1592 0.950 . S
H1566 C1595 0.950 . S
H1567 C1596 0.950 . S
H1568 C1598 0.950 . S
H1569 C1599 0.950 . S
C1570 H1552 0.951 1_565 S
C1570 C1571 1.366 . S
C1570 C1572 1.388 1_565 S
C1571 C1570 1.366 . S
C1571 C1575 1.385 . S
C1572 H1553 0.951 . S
C1572 C1570 1.388 1_545 S
C1572 C1573 1.366 1_545 S
C1573 C1572 1.366 1_565 S
C1573 C1574 1.414 . S
C1573 C1576 1.499 1_565 S
C1574 H1554 0.950 . S
C1574 C1573 1.414 . S
C1574 C1575 1.374 . S
C1575 H1555 0.950 . S
C1575 C1571 1.385 . S
C1575 C1574 1.374 . S
C1576 C1573 1.499 1_545 S
C1576 C1577 1.373 1_545 S
C1576 C1578 1.389 . S
C1577 H1556 0.950 . S
C1577 C1576 1.373 1_565 S
C1577 C1593 1.377 1_565 S
C1578 C1576 1.389 . S
C1578 C1579 1.524 . S
C1578 C1592 1.377 . S
C1579 C1578 1.524 . S
C1579 C1580 1.397 . S
C1579 C1584 1.363 . S
C1580 H1557 0.935 1_545 S
C1580 C1579 1.397 . S
C1580 C1581 1.334 . S
C1581 H1558 0.950 . S
C1581 C1580 1.334 . S
C1581 C1582 1.287 . S
C1582 C1581 1.287 . S
C1582 C1583 1.524 . S
C1582 H1601 0.913 . S
C1583 H1559 0.950 . S
C1583 C1582 1.524 . S
C1583 C1584 1.415 . S
C1584 H1560 0.950 . S
C1584 C1579 1.363 . S
C1584 C1583 1.415 . S
C1585 H1561 0.951 . S
C1585 C1586 1.366 . S
C1585 C1587 1.388 . S
C1586 C1585 1.366 . S
C1586 C1590 1.385 . S
C1587 H1562 0.951 . S
C1587 C1585 1.388 . S
C1587 C1588 1.366 . S
C1588 C1587 1.366 . S
C1588 C1589 1.414 . S
C1588 C1591 1.499 . S
C1589 H1563 0.950 . S
C1589 C1588 1.414 . S
C1589 C1590 1.374 . S
C1590 H1564 0.950 . S
C1590 C1586 1.385 . S
C1590 C1589 1.374 . S
C1591 C1588 1.499 . S
C1591 C1592 1.373 . S
C1591 C1593 1.389 . S
C1592 H1565 0.950 . S
C1592 C1578 1.377 . S
C1592 C1591 1.373 . S
C1593 C1577 1.377 1_545 S
C1593 C1591 1.389 . S
C1593 C1594 1.524 1_545 S
C1594 C1593 1.524 1_565 S
C1594 C1595 1.397 1_565 S
C1594 C1599 1.363 . S
C1595 H1566 0.950 . S
C1595 C1594 1.397 1_545 S
C1595 C1596 1.334 . S
C1596 H1567 0.950 . S
C1596 C1595 1.334 . S
C1596 C1597 1.287 1_545 S
C1597 C1596 1.287 1_565 S
C1597 C1598 1.524 . S
C1597 H1600 0.999 . S
C1598 H1568 0.950 . S
C1598 C1597 1.524 . S
C1598 C1599 1.415 . S
C1599 H1569 0.950 . S
C1599 C1594 1.363 . S
C1599 C1598 1.415 . S
H1600 C1597 0.999 . S
H1601 C1582 0.913 . S
H1602 C1620 0.951 . S
H1603 C1622 0.951 . S
H1604 C1624 0.950 . S
H1605 C1625 0.950 . S
H1606 C1627 0.950 . S
H1607 C1630 0.950 . S
H1608 C1631 0.950 . S
H1609 C1633 0.958 . S
H1610 C1634 0.950 1_655 S
H1611 C1635 0.951 . S
H1612 C1637 0.951 . S
H1613 C1639 0.950 . S
H1614 C1640 0.950 . S
H1615 C1642 0.950 . S
H1616 C1645 0.950 1_655 S
H1617 C1646 0.950 1_655 S
H1618 C1648 0.950 . S
H1619 C1649 0.950 . S
C1620 H1602 0.951 . S
C1620 C1621 1.366 . S
C1620 C1622 1.388 . S
C1621 C1620 1.366 . S
C1621 C1625 1.385 . S
C1622 H1603 0.951 . S
C1622 C1620 1.388 . S
C1622 C1623 1.366 . S
C1623 C1622 1.366 . S
C1623 C1624 1.414 1_655 S
C1623 C1626 1.499 1_655 S
C1624 H1604 0.950 . S
C1624 C1623 1.414 1_455 S
C1624 C1625 1.374 1_455 S
C1625 H1605 0.950 . S
C1625 C1621 1.385 . S
C1625 C1624 1.374 1_655 S
C1626 C1623 1.499 1_455 S
C1626 C1627 1.373 . S
C1626 C1628 1.389 . S
C1627 H1606 0.950 . S
C1627 C1626 1.373 . S
C1627 C1643 1.377 . S
C1628 C1626 1.389 . S
C1628 C1629 1.524 . S
C1628 C1642 1.377 . S
C1629 C1628 1.524 . S
C1629 C1630 1.397 . S
C1629 C1634 1.363 . S
C1630 H1607 0.950 . S
C1630 C1629 1.397 . S
C1630 C1631 1.334 . S
C1631 H1608 0.950 . S
C1631 C1630 1.334 . S
C1631 C1632 1.287 . S
C1632 C1631 1.287 . S
C1632 C1633 1.524 . S
C1632 H1651 0.913 . S
C1633 H1609 0.958 . S
C1633 C1632 1.524 . S
C1633 C1634 1.415 . S
C1634 H1610 0.950 1_455 S
C1634 C1629 1.363 . S
C1634 C1633 1.415 . S
C1635 H1611 0.951 . S
C1635 C1636 1.366 . S
C1635 C1637 1.388 . S
C1636 C1635 1.366 . S
C1636 C1640 1.385 . S
C1637 H1612 0.951 . S
C1637 C1635 1.388 . S
C1637 C1638 1.366 . S
C1638 C1637 1.366 . S
C1638 C1639 1.414 . S
C1638 C1641 1.499 . S
C1639 H1613 0.950 . S
C1639 C1638 1.414 . S
C1639 C1640 1.374 . S
C1640 H1614 0.950 . S
C1640 C1636 1.385 . S
C1640 C1639 1.374 . S
C1641 C1638 1.499 . S
C1641 C1642 1.373 . S
C1641 C1643 1.389 . S
C1642 H1615 0.950 . S
C1642 C1628 1.377 . S
C1642 C1641 1.373 . S
C1643 C1627 1.377 . S
C1643 C1641 1.389 . S
C1643 C1644 1.524 . S
C1644 C1643 1.524 . S
C1644 C1645 1.397 . S
C1644 C1649 1.363 . S
C1645 H1616 0.950 1_455 S
C1645 C1644 1.397 . S
C1645 C1646 1.334 . S
C1646 H1617 0.950 1_455 S
C1646 C1645 1.334 . S
C1646 C1647 1.287 . S
C1647 C1646 1.287 . S
C1647 C1648 1.524 . S
C1647 H1650 0.999 . S
C1648 H1618 0.950 . S
C1648 C1647 1.524 . S
C1648 C1649 1.415 . S
C1649 H1619 0.950 . S
C1649 C1644 1.363 . S
C1649 C1648 1.415 . S
H1650 C1647 0.999 . S
H1651 C1632 0.913 . S
H1652 C1670 0.951 . S
H1653 C1672 0.951 . S
H1654 C1674 0.950 . S
H1655 C1675 0.950 . S
H1656 C1677 0.950 . S
H1657 C1680 0.950 1_565 S
H1658 C1681 0.950 . S
H1659 C1683 0.950 . S
H1660 C1684 0.950 . S
H1661 C1685 0.951 . S
H1662 C1687 0.951 . S
H1663 C1689 0.950 . S
H1664 C1690 0.950 . S
H1665 C1692 0.950 . S
H1666 C1695 0.950 . S
H1667 C1696 0.950 . S
H1668 C1698 0.950 . S
H1669 C1699 0.950 . S
C1670 H1652 0.951 . S
C1670 C1671 1.366 . S
C1670 C1672 1.388 . S
C1671 C1670 1.366 . S
C1671 C1675 1.385 . S
C1672 H1653 0.951 . S
C1672 C1670 1.388 . S
C1672 C1673 1.366 . S
C1673 C1672 1.366 . S
C1673 C1674 1.414 . S
C1673 C1676 1.499 . S
C1674 H1654 0.950 . S
C1674 C1673 1.414 . S
C1674 C1675 1.374 . S
C1675 H1655 0.950 . S
C1675 C1671 1.385 . S
C1675 C1674 1.374 . S
C1676 C1673 1.499 . S
C1676 C1677 1.373 . S
C1676 C1678 1.433 . S
C1677 H1656 0.950 . S
C1677 C1676 1.373 . S
C1677 C1693 1.377 . S
C1678 C1676 1.433 . S
C1678 C1679 1.497 1_565 S
C1678 C1692 1.359 1_565 S
C1679 C1678 1.497 1_545 S
C1679 C1680 1.397 . S
C1679 C1684 1.363 . S
C1680 H1657 0.950 1_545 S
C1680 C1679 1.397 . S
C1680 C1681 1.334 . S
C1681 H1658 0.950 . S
C1681 C1680 1.334 . S
C1681 C1682 1.287 . S
C1682 C1681 1.287 . S
C1682 C1683 1.524 . S
C1682 H1701 0.913 . S
C1683 H1659 0.950 . S
C1683 C1682 1.524 . S
C1683 C1684 1.415 . S
C1684 H1660 0.950 . S
C1684 C1679 1.363 . S
C1684 C1683 1.415 . S
C1685 H1661 0.951 . S
C1685 C1686 1.366 . S
C1685 C1687 1.388 1_545 S
C1686 C1685 1.366 . S
C1686 C1690 1.385 . S
C1687 H1662 0.951 . S
C1687 C1685 1.388 1_565 S
C1687 C1688 1.366 1_565 S
C1688 C1687 1.366 1_545 S
C1688 C1689 1.414 . S
C1688 C1691 1.499 1_545 S
C1689 H1663 0.950 . S
C1689 C1688 1.414 . S
C1689 C1690 1.374 . S
C1690 H1664 0.950 . S
C1690 C1686 1.385 . S
C1690 C1689 1.374 . S
C1691 C1688 1.499 1_565 S
C1691 C1692 1.373 1_565 S
C1691 C1693 1.389 . S
C1692 H1665 0.950 . S
C1692 C1678 1.359 1_545 S
C1692 C1691 1.373 1_545 S
C1693 C1677 1.377 . S
C1693 C1691 1.389 . S
C1693 C1694 1.524 . S
C1694 C1693 1.524 . S
C1694 C1695 1.397 . S
C1694 C1699 1.363 . S
C1695 H1666 0.950 . S
C1695 C1694 1.397 . S
C1695 C1696 1.334 . S
C1696 H1667 0.950 . S
C1696 C1695 1.334 . S
C1696 C1697 1.287 . S
C1697 C1696 1.287 . S
C1697 C1698 1.524 . S
C1697 H1700 0.999 . S
C1698 H1668 0.950 . S
C1698 C1697 1.524 . S
C1698 C1699 1.415 . S
C1699 H1669 0.950 . S
C1699 C1694 1.363 . S
C1699 C1698 1.415 . S
H1700 C1697 0.999 . S
H1701 C1682 0.913 . S
H1702 C1720 0.951 . S
H1703 C1722 0.951 . S
H1704 C1724 0.950 . S
H1705 C1725 0.950 . S
H1706 C1727 0.950 1_455 S
H1707 C1730 0.950 . S
H1708 C1731 0.950 . S
H1709 C1733 0.950 . S
H1710 C1734 0.950 . S
H1711 C1735 0.951 . S
H1712 C1737 0.951 . S
H1713 C1739 0.973 . S
H1714 C1740 0.950 . S
H1715 C1742 0.950 . S
H1716 C1745 0.950 . S
H1717 C1746 0.950 . S
H1718 C1748 0.950 . S
H1719 C1749 0.950 . S
C1720 H1702 0.951 . S
C1720 C1721 1.366 . S
C1720 C1722 1.388 . S
C1721 C1720 1.366 . S
C1721 C1725 1.385 . S
C1722 H1703 0.951 . S
C1722 C1720 1.388 . S
C1722 C1723 1.366 . S
C1723 C1722 1.366 . S
C1723 C1724 1.414 . S
C1723 C1726 1.499 . S
C1724 H1704 0.950 . S
C1724 C1723 1.414 . S
C1724 C1725 1.374 . S
C1725 H1705 0.950 . S
C1725 C1721 1.385 . S
C1725 C1724 1.374 . S
C1726 C1723 1.499 . S
C1726 C1727 1.373 . S
C1726 C1728 1.389 . S
C1727 H1706 0.950 1_655 S
C1727 C1726 1.373 . S
C1727 C1743 1.377 1_655 S
C1728 C1726 1.389 . S
C1728 C1729 1.524 . S
C1728 C1742 1.377 . S
C1729 C1728 1.524 . S
C1729 C1730 1.397 . S
C1729 C1734 1.363 . S
C1730 H1707 0.950 . S
C1730 C1729 1.397 . S
C1730 C1731 1.334 . S
C1731 H1708 0.950 . S
C1731 C1730 1.334 . S
C1731 C1732 1.287 . S
C1732 C1731 1.287 . S
C1732 C1733 1.524 . S
C1732 H1751 0.913 . S
C1733 H1709 0.950 . S
C1733 C1732 1.524 . S
C1733 C1734 1.415 . S
C1734 H1710 0.950 . S
C1734 C1729 1.363 . S
C1734 C1733 1.415 . S
C1735 H1711 0.951 . S
C1735 C1736 1.366 . S
C1735 C1737 1.388 . S
C1736 C1735 1.366 . S
C1736 C1740 1.385 . S
C1737 H1712 0.951 . S
C1737 C1735 1.388 . S
C1737 C1738 1.366 . S
C1738 C1737 1.366 . S
C1738 C1739 1.414 . S
C1738 C1741 1.499 1_455 S
C1739 H1713 0.973 . S
C1739 C1738 1.414 . S
C1739 C1740 1.374 . S
C1740 H1714 0.950 . S
C1740 C1736 1.385 . S
C1740 C1739 1.374 . S
C1741 C1738 1.499 1_655 S
C1741 C1742 1.373 . S
C1741 C1743 1.389 1_655 S
C1742 H1715 0.950 . S
C1742 C1728 1.377 . S
C1742 C1741 1.373 . S
C1743 C1727 1.377 1_455 S
C1743 C1741 1.389 1_455 S
C1743 C1744 1.524 . S
C1744 C1743 1.524 . S
C1744 C1745 1.397 . S
C1744 C1749 1.363 . S
C1745 H1716 0.950 . S
C1745 C1744 1.397 . S
C1745 C1746 1.334 . S
C1746 H1717 0.950 . S
C1746 C1745 1.334 . S
C1746 C1747 1.287 . S
C1747 C1746 1.287 . S
C1747 C1748 1.524 . S
C1747 H1750 0.999 . S
C1748 H1718 0.950 . S
C1748 C1747 1.524 . S
C1748 C1749 1.415 . S
C1749 H1719 0.950 . S
C1749 C1744 1.363 . S
C1749 C1748 1.415 . S
H1750 C1747 0.999 . S
H1751 C1732 0.913 . S
H1752 C1770 0.951 . S
H1753 C1772 0.951 . S
H1754 C1774 0.950 . S
H1755 C1775 0.950 1_545 S
H1756 C1777 0.950 . S
H1757 C1780 0.950 . S
H1758 C1781 0.950 . S
H1759 C1783 0.950 . S
H1760 C1784 0.950 . S
H1761 C1785 0.951 . S
H1762 C1787 0.951 . S
H1763 C1789 0.950 . S
H1764 C1790 0.950 . S
H1765 C1792 0.943 1_565 S
H1766 C1795 0.950 . S
H1767 C1796 0.950 . S
H1768 C1798 0.950 . S
H1769 C1799 0.950 . S
C1770 H1752 0.951 . S
C1770 C1771 1.366 . S
C1770 C1772 1.388 . S
C1771 C1770 1.366 . S
C1771 C1775 1.385 . S
C1772 H1753 0.951 . S
C1772 C1770 1.388 . S
C1772 C1773 1.366 . S
C1773 C1772 1.366 . S
C1773 C1774 1.414 1_565 S
C1773 C1776 1.499 1_565 S
C1774 H1754 0.950 . S
C1774 C1773 1.414 1_545 S
C1774 C1775 1.374 1_545 S
C1775 H1755 0.950 1_565 S
C1775 C1771 1.385 . S
C1775 C1774 1.374 1_565 S
C1776 C1773 1.499 1_545 S
C1776 C1777 1.373 . S
C1776 C1778 1.389 1_545 S
C1777 H1756 0.950 . S
C1777 C1776 1.373 . S
C1777 C1793 1.377 . S
C1778 C1776 1.389 1_565 S
C1778 C1779 1.524 . S
C1778 C1792 1.377 1_565 S
C1779 C1778 1.524 . S
C1779 C1780 1.397 . S
C1779 C1784 1.363 . S
C1780 H1757 0.950 . S
C1780 C1779 1.397 . S
C1780 C1781 1.334 . S
C1781 H1758 0.950 . S
C1781 C1780 1.334 . S
C1781 C1782 1.287 . S
C1782 C1781 1.287 . S
C1782 C1783 1.524 . S
C1782 H1801 0.913 . S
C1783 H1759 0.950 . S
C1783 C1782 1.524 . S
C1783 C1784 1.415 . S
C1784 H1760 0.950 . S
C1784 C1779 1.363 . S
C1784 C1783 1.415 . S
C1785 H1761 0.951 . S
C1785 C1786 1.366 . S
C1785 C1787 1.388 . S
C1786 C1785 1.366 . S
C1786 C1790 1.385 . S
C1787 H1762 0.951 . S
C1787 C1785 1.388 . S
C1787 C1788 1.366 . S
C1788 C1787 1.366 . S
C1788 C1789 1.414 . S
C1788 C1791 1.499 . S
C1789 H1763 0.950 . S
C1789 C1788 1.414 . S
C1789 C1790 1.374 . S
C1790 H1764 0.950 . S
C1790 C1786 1.385 . S
C1790 C1789 1.374 . S
C1791 C1788 1.499 . S
C1791 C1792 1.373 . S
C1791 C1793 1.389 . S
C1792 H1765 0.943 1_545 S
C1792 C1778 1.377 1_545 S
C1792 C1791 1.373 . S
C1793 C1777 1.377 . S
C1793 C1791 1.389 . S
C1793 C1794 1.524 . S
C1794 C1793 1.524 . S
C1794 C1795 1.397 . S
C1794 C1799 1.363 . S
C1795 H1766 0.950 . S
C1795 C1794 1.397 . S
C1795 C1796 1.334 . S
C1796 H1767 0.950 . S
C1796 C1795 1.334 . S
C1796 C1797 1.287 . S
C1797 C1796 1.287 . S
C1797 C1798 1.524 . S
C1797 H1800 0.999 . S
C1798 H1768 0.950 . S
C1798 C1797 1.524 . S
C1798 C1799 1.415 . S
C1799 H1769 0.950 . S
C1799 C1794 1.363 . S
C1799 C1798 1.415 . S
H1800 C1797 0.999 . S
H1801 C1782 0.913 . S
H1802 C1820 0.951 . S
H1803 C1822 0.951 . S
H1804 C1824 0.950 . S
H1805 C1825 0.950 . S
H1806 C1827 0.950 1_655 S
H1807 C1830 0.950 . S
H1808 C1831 0.950 . S
H1809 C1833 0.950 . S
H1810 C1834 0.950 . S
H1811 C1835 0.951 . S
H1812 C1837 0.951 . S
H1813 C1839 0.950 1_455 S
H1814 C1840 0.950 . S
H1815 C1842 0.950 . S
H1816 C1845 0.950 . S
H1817 C1846 0.950 . S
H1818 C1848 0.950 . S
H1819 C1849 0.950 . S
C1820 H1802 0.951 . S
C1820 C1821 1.366 . S
C1820 C1822 1.388 . S
C1821 C1820 1.366 . S
C1821 C1825 1.385 . S
C1822 H1803 0.951 . S
C1822 C1820 1.388 . S
C1822 C1823 1.366 . S
C1823 C1822 1.366 . S
C1823 C1824 1.414 . S
C1823 C1826 1.499 . S
C1824 H1804 0.950 . S
C1824 C1823 1.414 . S
C1824 C1825 1.374 . S
C1825 H1805 0.950 . S
C1825 C1821 1.385 . S
C1825 C1824 1.374 . S
C1826 C1823 1.499 . S
C1826 C1827 1.373 . S
C1826 C1828 1.389 . S
C1827 H1806 0.950 1_455 S
C1827 C1826 1.373 . S
C1827 C1843 1.377 1_455 S
C1828 C1826 1.389 . S
C1828 C1829 1.524 . S
C1828 C1842 1.377 . S
C1829 C1828 1.524 . S
C1829 C1830 1.397 . S
C1829 C1834 1.363 . S
C1830 H1807 0.950 . S
C1830 C1829 1.397 . S
C1830 C1831 1.334 . S
C1831 H1808 0.950 . S
C1831 C1830 1.334 . S
C1831 C1832 1.287 . S
C1832 C1831 1.287 . S
C1832 C1833 1.524 . S
C1832 H1851 0.913 . S
C1833 H1809 0.950 . S
C1833 C1832 1.524 . S
C1833 C1834 1.415 . S
C1834 H1810 0.950 . S
C1834 C1829 1.363 . S
C1834 C1833 1.415 . S
C1835 H1811 0.951 . S
C1835 C1836 1.366 . S
C1835 C1837 1.388 . S
C1836 C1835 1.366 . S
C1836 C1840 1.385 . S
C1837 H1812 0.951 . S
C1837 C1835 1.388 . S
C1837 C1838 1.366 . S
C1838 C1837 1.366 . S
C1838 C1839 1.414 . S
C1838 C1841 1.499 1_655 S
C1839 H1813 0.950 1_655 S
C1839 C1838 1.414 . S
C1839 C1840 1.374 . S
C1840 H1814 0.950 . S
C1840 C1836 1.385 . S
C1840 C1839 1.374 . S
C1841 C1838 1.499 1_455 S
C1841 C1842 1.373 . S
C1841 C1843 1.389 1_455 S
C1842 H1815 0.950 . S
C1842 C1828 1.377 . S
C1842 C1841 1.373 . S
C1843 C1827 1.377 1_655 S
C1843 C1841 1.389 1_655 S
C1843 C1844 1.524 . S
C1844 C1843 1.524 . S
C1844 C1845 1.397 . S
C1844 C1849 1.363 . S
C1845 H1816 0.950 . S
C1845 C1844 1.397 . S
C1845 C1846 1.334 . S
C1846 H1817 0.950 . S
C1846 C1845 1.334 . S
C1846 C1847 1.287 . S
C1847 C1846 1.287 . S
C1847 C1848 1.524 . S
C1847 H1850 0.999 . S
C1848 H1818 0.950 . S
C1848 C1847 1.524 . S
C1848 C1849 1.415 . S
C1849 H1819 0.950 . S
C1849 C1844 1.363 . S
C1849 C1848 1.415 . S
H1850 C1847 0.999 . S
H1851 C1832 0.913 . S
H1852 C1870 0.951 . S
H1853 C1872 0.951 . S
H1854 C1874 0.950 . S
H1855 C1875 0.950 . S
H1856 C1877 0.950 . S
H1857 C1880 0.950 . S
H1858 C1881 0.950 . S
H1859 C1883 0.950 . S
H1860 C1884 0.950 . S
H1861 C1885 0.951 . S
H1862 C1887 0.951 . S
H1863 C1889 0.950 . S
H1864 C1890 0.950 . S
H1865 C1892 0.950 . S
H1866 C1895 0.950 . S
H1867 C1896 0.950 . S
H1868 C1898 0.950 . S
H1869 C1899 0.950 . S
C1870 H1852 0.951 . S
C1870 C1871 1.366 . S
C1870 C1872 1.388 . S
C1871 C1870 1.366 . S
C1871 C1875 1.385 . S
C1872 H1853 0.951 . S
C1872 C1870 1.388 . S
C1872 C1873 1.366 . S
C1873 C1872 1.366 . S
C1873 C1874 1.414 . S
C1873 C1876 1.499 . S
C1874 H1854 0.950 . S
C1874 C1873 1.414 . S
C1874 C1875 1.374 . S
C1875 H1855 0.950 . S
C1875 C1871 1.385 . S
C1875 C1874 1.374 . S
C1876 C1873 1.499 . S
C1876 C1877 1.373 . S
C1876 C1878 1.389 . S
C1877 H1856 0.950 . S
C1877 C1876 1.373 . S
C1877 C1893 1.377 . S
C1878 C1876 1.389 . S
C1878 C1879 1.524 1_565 S
C1878 C1892 1.377 1_565 S
C1879 C1878 1.524 1_545 S
C1879 C1880 1.397 . S
C1879 C1884 1.363 . S
C1880 H1857 0.950 . S
C1880 C1879 1.397 . S
C1880 C1881 1.334 . S
C1881 H1858 0.950 . S
C1881 C1880 1.334 . S
C1881 C1882 1.287 . S
C1882 C1881 1.287 . S
C1882 C1883 1.524 . S
C1882 H1901 0.913 . S
C1883 H1859 0.950 . S
C1883 C1882 1.524 . S
C1883 C1884 1.415 . S
C1884 H1860 0.950 . S
C1884 C1879 1.363 . S
C1884 C1883 1.415 . S
C1885 H1861 0.951 . S
C1885 C1886 1.366 . S
C1885 C1887 1.388 . S
C1886 C1885 1.366 . S
C1886 C1890 1.385 . S
C1887 H1862 0.951 . S
C1887 C1885 1.388 . S
C1887 C1888 1.366 . S
C1888 C1887 1.366 . S
C1888 C1889 1.414 . S
C1888 C1891 1.499 1_545 S
C1889 H1863 0.950 . S
C1889 C1888 1.414 . S
C1889 C1890 1.374 . S
C1890 H1864 0.950 . S
C1890 C1886 1.385 . S
C1890 C1889 1.374 . S
C1891 C1888 1.499 1_565 S
C1891 C1892 1.373 1_565 S
C1891 C1893 1.389 . S
C1892 H1865 0.950 . S
C1892 C1878 1.377 1_545 S
C1892 C1891 1.373 1_545 S
C1893 C1877 1.377 . S
C1893 C1891 1.389 . S
C1893 C1894 1.524 . S
C1894 C1893 1.524 . S
C1894 C1895 1.397 . S
C1894 C1899 1.363 . S
C1895 H1866 0.950 . S
C1895 C1894 1.397 . S
C1895 C1896 1.334 . S
C1896 H1867 0.950 . S
C1896 C1895 1.334 . S
C1896 C1897 1.287 . S
C1897 C1896 1.287 . S
C1897 C1898 1.524 . S
C1897 H1900 0.999 . S
C1898 H1868 0.950 . S
C1898 C1897 1.524 . S
C1898 C1899 1.415 . S
C1899 H1869 0.950 . S
C1899 C1894 1.363 . S
C1899 C1898 1.415 . S
H1900 C1897 0.999 . S
H1901 C1882 0.913 . S
H1902 C1920 0.951 . S
H1903 C1922 0.951 . S
H1904 C1924 0.950 . S
H1905 C1925 0.950 1_655 S
H1906 C1927 0.950 . S
H1907 C1930 0.950 . S
H1908 C1931 0.950 . S
H1909 C1933 0.950 . S
H1910 C1934 0.950 . S
H1911 C1935 0.951 . S
H1912 C1937 0.951 . S
H1913 C1939 0.950 . S
H1914 C1940 0.950 . S
H1915 C1942 0.950 1_455 S
H1916 C1945 0.950 . S
H1917 C1946 0.950 . S
H1918 C1948 0.950 . S
H1919 C1949 0.950 . S
C1920 H1902 0.951 . S
C1920 C1921 1.366 . S
C1920 C1922 1.388 . S
C1921 C1920 1.366 . S
C1921 C1925 1.385 . S
C1922 H1903 0.951 . S
C1922 C1920 1.388 . S
C1922 C1923 1.366 . S
C1923 C1922 1.366 . S
C1923 C1924 1.414 1_455 S
C1923 C1926 1.499 1_455 S
C1924 H1904 0.950 . S
C1924 C1923 1.414 1_655 S
C1924 C1925 1.374 1_655 S
C1925 H1905 0.950 1_455 S
C1925 C1921 1.385 . S
C1925 C1924 1.374 1_455 S
C1926 C1923 1.499 1_655 S
C1926 C1927 1.373 . S
C1926 C1928 1.389 1_655 S
C1927 H1906 0.950 . S
C1927 C1926 1.373 . S
C1927 C1943 1.377 . S
C1928 C1926 1.389 1_455 S
C1928 C1929 1.524 . S
C1928 C1942 1.377 1_455 S
C1929 C1928 1.524 . S
C1929 C1930 1.397 . S
C1929 C1934 1.363 . S
C1930 H1907 0.950 . S
C1930 C1929 1.397 . S
C1930 C1931 1.334 . S
C1931 H1908 0.950 . S
C1931 C1930 1.334 . S
C1931 C1932 1.287 . S
C1932 C1931 1.287 . S
C1932 C1933 1.524 . S
C1932 H1951 0.913 . S
C1933 H1909 0.950 . S
C1933 C1932 1.524 . S
C1933 C1934 1.415 . S
C1934 H1910 0.950 . S
C1934 C1929 1.363 . S
C1934 C1933 1.415 . S
C1935 H1911 0.951 . S
C1935 C1936 1.366 . S
C1935 C1937 1.388 . S
C1936 C1935 1.366 . S
C1936 C1940 1.385 . S
C1937 H1912 0.951 . S
C1937 C1935 1.388 . S
C1937 C1938 1.366 . S
C1938 C1937 1.366 . S
C1938 C1939 1.414 . S
C1938 C1941 1.499 . S
C1939 H1913 0.950 . S
C1939 C1938 1.414 . S
C1939 C1940 1.374 . S
C1940 H1914 0.950 . S
C1940 C1936 1.385 . S
C1940 C1939 1.374 . S
C1941 C1938 1.499 . S
C1941 C1942 1.373 . S
C1941 C1943 1.389 . S
C1942 H1915 0.950 1_655 S
C1942 C1928 1.377 1_655 S
C1942 C1941 1.373 . S
C1943 C1927 1.377 . S
C1943 C1941 1.389 . S
C1943 C1944 1.524 . S
C1944 C1943 1.524 . S
C1944 C1945 1.397 . S
C1944 C1949 1.363 . S
C1945 H1916 0.950 . S
C1945 C1944 1.397 . S
C1945 C1946 1.334 . S
C1946 H1917 0.950 . S
C1946 C1945 1.334 . S
C1946 C1947 1.287 . S
C1947 C1946 1.287 . S
C1947 C1948 1.524 . S
C1947 H1950 0.999 . S
C1948 H1918 0.950 . S
C1948 C1947 1.524 . S
C1948 C1949 1.415 . S
C1949 H1919 0.950 . S
C1949 C1944 1.363 . S
C1949 C1948 1.415 . S
H1950 C1947 0.999 . S
H1951 C1932 0.913 . S
H1952 C1970 0.951 . S
H1953 C1972 0.951 . S
H1954 C1974 0.950 . S
H1955 C1975 0.950 . S
H1956 C1977 0.950 . S
H1957 C1980 0.950 . S
H1958 C1981 0.950 . S
H1959 C1983 0.950 . S
H1960 C1984 0.950 . S
H1961 C1985 0.951 . S
H1962 C1987 0.951 . S
H1963 C1989 0.950 . S
H1964 C1990 0.950 . S
H1965 C1992 0.950 . S
H1966 C1995 0.950 . S
H1967 C1996 0.950 . S
H1968 C1998 0.950 . S
H1969 C1999 0.950 . S
C1970 H1952 0.951 . S
C1970 C1971 1.366 . S
C1970 C1972 1.388 . S
C1971 C1970 1.366 . S
C1971 C1975 1.385 . S
C1972 H1953 0.951 . S
C1972 C1970 1.388 . S
C1972 C1973 1.366 . S
C1973 C1972 1.366 . S
C1973 C1974 1.414 . S
C1973 C1976 1.499 . S
C1974 H1954 0.950 . S
C1974 C1973 1.414 . S
C1974 C1975 1.374 . S
C1975 H1955 0.950 . S
C1975 C1971 1.385 . S
C1975 C1974 1.374 . S
C1976 C1973 1.499 . S
C1976 C1977 1.373 . S
C1976 C1978 1.389 . S
C1977 H1956 0.950 . S
C1977 C1976 1.373 . S
C1977 C1993 1.377 . S
C1978 C1976 1.389 . S
C1978 C1979 1.524 . S
C1978 C1992 1.377 . S
C1979 C1978 1.524 . S
C1979 C1980 1.397 . S
C1979 C1984 1.363 . S
C1980 H1957 0.950 . S
C1980 C1979 1.397 . S
C1980 C1981 1.334 . S
C1981 H1958 0.950 . S
C1981 C1980 1.334 . S
C1981 C1982 1.287 . S
C1982 C1981 1.287 . S
C1982 C1983 1.524 . S
C1982 H2001 0.913 . S
C1983 H1959 0.950 . S
C1983 C1982 1.524 . S
C1983 C1984 1.415 . S
C1984 H1960 0.950 . S
C1984 C1979 1.363 . S
C1984 C1983 1.415 . S
C1985 H1961 0.951 . S
C1985 C1986 1.366 . S
C1985 C1987 1.388 . S
C1986 C1985 1.366 . S
C1986 C1990 1.385 . S
C1987 H1962 0.951 . S
C1987 C1985 1.388 . S
C1987 C1988 1.366 . S
C1988 C1987 1.366 . S
C1988 C1989 1.414 . S
C1988 C1991 1.499 . S
C1989 H1963 0.950 . S
C1989 C1988 1.414 . S
C1989 C1990 1.374 . S
C1990 H1964 0.950 . S
C1990 C1986 1.385 . S
C1990 C1989 1.374 . S
C1991 C1988 1.499 . S
C1991 C1992 1.373 . S
C1991 C1993 1.389 . S
C1992 H1965 0.950 . S
C1992 C1978 1.377 . S
C1992 C1991 1.373 . S
C1993 C1977 1.377 . S
C1993 C1991 1.389 . S
C1993 C1994 1.524 . S
C1994 C1993 1.524 . S
C1994 C1995 1.397 . S
C1994 C1999 1.363 . S
C1995 H1966 0.950 . S
C1995 C1994 1.397 . S
C1995 C1996 1.334 . S
C1996 H1967 0.950 . S
C1996 C1995 1.334 . S
C1996 C1997 1.287 . S
C1997 C1996 1.287 . S
C1997 C1998 1.524 . S
C1997 H2000 0.999 . S
C1998 H1968 0.950 . S
C1998 C1997 1.524 . S
C1998 C1999 1.415 . S
C1999 H1969 0.950 . S
C1999 C1994 1.363 . S
C1999 C1998 1.415 . S
H2000 C1997 0.999 . S
H2001 C1982 0.913 . S
H2002 C2020 0.951 . S
H2003 C2022 0.951 . S
H2004 C2024 0.950 . S
H2005 C2025 0.950 . S
H2006 C2027 0.950 . S
H2007 C2030 0.950 . S
H2008 C2031 0.950 . S
H2009 C2033 0.950 . S
H2010 C2034 0.950 . S
H2011 C2035 0.951 . S
H2012 C2037 0.951 . S
H2013 C2039 0.950 . S
H2014 C2040 0.950 . S
H2015 C2042 0.950 . S
H2016 C2045 0.950 . S
H2017 C2046 0.950 . S
H2018 C2048 0.950 . S
H2019 C2049 0.950 . S
C2020 H2002 0.951 . S
C2020 C2021 1.366 . S
C2020 C2022 1.388 . S
C2021 C2020 1.366 . S
C2021 C2025 1.385 . S
C2022 H2003 0.951 . S
C2022 C2020 1.388 . S
C2022 C2023 1.366 . S
C2023 C2022 1.366 . S
C2023 C2024 1.414 . S
C2023 C2026 1.499 . S
C2024 H2004 0.950 . S
C2024 C2023 1.414 . S
C2024 C2025 1.374 . S
C2025 H2005 0.950 . S
C2025 C2021 1.385 . S
C2025 C2024 1.374 . S
C2026 C2023 1.499 . S
C2026 C2027 1.373 . S
C2026 C2028 1.389 . S
C2027 H2006 0.950 . S
C2027 C2026 1.373 . S
C2027 C2043 1.377 . S
C2028 C2026 1.389 . S
C2028 C2029 1.524 . S
C2028 C2042 1.377 . S
C2029 C2028 1.524 . S
C2029 C2030 1.397 . S
C2029 C2034 1.363 . S
C2030 H2007 0.950 . S
C2030 C2029 1.397 . S
C2030 C2031 1.334 . S
C2031 H2008 0.950 . S
C2031 C2030 1.334 . S
C2031 C2032 1.287 . S
C2032 C2031 1.287 . S
C2032 C2033 1.524 . S
C2032 H2051 0.913 . S
C2033 H2009 0.950 . S
C2033 C2032 1.524 . S
C2033 C2034 1.415 . S
C2034 H2010 0.950 . S
C2034 C2029 1.363 . S
C2034 C2033 1.415 . S
C2035 H2011 0.951 . S
C2035 C2036 1.366 . S
C2035 C2037 1.388 . S
C2036 C2035 1.366 . S
C2036 C2040 1.385 . S
C2037 H2012 0.951 . S
C2037 C2035 1.388 . S
C2037 C2038 1.366 . S
C2038 C2037 1.366 . S
C2038 C2039 1.414 . S
C2038 C2041 1.499 . S
C2039 H2013 0.950 . S
C2039 C2038 1.414 . S
C2039 C2040 1.374 . S
C2040 H2014 0.950 . S
C2040 C2036 1.385 . S
C2040 C2039 1.374 . S
C2041 C2038 1.499 . S
C2041 C2042 1.373 . S
C2041 C2043 1.389 . S
C2042 H2015 0.950 . S
C2042 C2028 1.377 . S
C2042 C2041 1.373 . S
C2043 C2027 1.377 . S
C2043 C2041 1.389 . S
C2043 C2044 1.524 . S
C2044 C2043 1.524 . S
C2044 C2045 1.397 . S
C2044 C2049 1.363 . S
C2045 H2016 0.950 . S
C2045 C2044 1.397 . S
C2045 C2046 1.334 . S
C2046 H2017 0.950 . S
C2046 C2045 1.334 . S
C2046 C2047 1.287 . S
C2047 C2046 1.287 . S
C2047 C2048 1.524 . S
C2047 H2050 0.999 . S
C2048 H2018 0.950 . S
C2048 C2047 1.524 . S
C2048 C2049 1.415 . S
C2049 H2019 0.950 . S
C2049 C2044 1.363 . S
C2049 C2048 1.415 . S
H2050 C2047 0.999 . S
H2051 C2032 0.913 . S
H2052 C2070 0.951 . S
H2053 C2072 0.951 . S
H2054 C2074 0.950 . S
H2055 C2075 0.950 . S
H2056 C2077 0.950 . S
H2057 C2080 0.950 . S
H2058 C2081 0.950 . S
H2059 C2083 0.950 . S
H2060 C2084 0.950 . S
H2061 C2085 0.951 . S
H2062 C2087 0.951 . S
H2063 C2089 0.950 . S
H2064 C2090 0.950 . S
H2065 C2092 0.950 . S
H2066 C2095 0.950 . S
H2067 C2096 0.950 . S
H2068 C2098 0.950 . S
H2069 C2099 0.950 . S
C2070 H2052 0.951 . S
C2070 C2071 1.366 . S
C2070 C2072 1.388 . S
C2071 C2070 1.366 . S
C2071 C2075 1.385 . S
C2072 H2053 0.951 . S
C2072 C2070 1.388 . S
C2072 C2073 1.366 . S
C2073 C2072 1.366 . S
C2073 C2074 1.414 . S
C2073 C2076 1.499 . S
C2074 H2054 0.950 . S
C2074 C2073 1.414 . S
C2074 C2075 1.374 . S
C2075 H2055 0.950 . S
C2075 C2071 1.385 . S
C2075 C2074 1.374 . S
C2076 C2073 1.499 . S
C2076 C2077 1.373 . S
C2076 C2078 1.389 . S
C2077 H2056 0.950 . S
C2077 C2076 1.373 . S
C2077 C2093 1.377 . S
C2078 C2076 1.389 . S
C2078 C2079 1.524 . S
C2078 C2092 1.377 . S
C2079 C2078 1.524 . S
C2079 C2080 1.397 . S
C2079 C2084 1.363 . S
C2080 H2057 0.950 . S
C2080 C2079 1.397 . S
C2080 C2081 1.334 . S
C2081 H2058 0.950 . S
C2081 C2080 1.334 . S
C2081 C2082 1.287 . S
C2082 C2081 1.287 . S
C2082 C2083 1.524 . S
C2082 H2101 0.913 . S
C2083 H2059 0.950 . S
C2083 C2082 1.524 . S
C2083 C2084 1.415 . S
C2084 H2060 0.950 . S
C2084 C2079 1.363 . S
C2084 C2083 1.415 . S
C2085 H2061 0.951 . S
C2085 C2086 1.366 . S
C2085 C2087 1.388 . S
C2086 C2085 1.366 . S
C2086 C2090 1.385 . S
C2087 H2062 0.951 . S
C2087 C2085 1.388 . S
C2087 C2088 1.366 . S
C2088 C2087 1.366 . S
C2088 C2089 1.414 . S
C2088 C2091 1.499 . S
C2089 H2063 0.950 . S
C2089 C2088 1.414 . S
C2089 C2090 1.374 . S
C2090 H2064 0.950 . S
C2090 C2086 1.385 . S
C2090 C2089 1.374 . S
C2091 C2088 1.499 . S
C2091 C2092 1.373 . S
C2091 C2093 1.389 . S
C2092 H2065 0.950 . S
C2092 C2078 1.377 . S
C2092 C2091 1.373 . S
C2093 C2077 1.377 . S
C2093 C2091 1.389 . S
C2093 C2094 1.524 . S
C2094 C2093 1.524 . S
C2094 C2095 1.397 . S
C2094 C2099 1.363 . S
C2095 H2066 0.950 . S
C2095 C2094 1.397 . S
C2095 C2096 1.334 . S
C2096 H2067 0.950 . S
C2096 C2095 1.334 . S
C2096 C2097 1.287 . S
C2097 C2096 1.287 . S
C2097 C2098 1.524 . S
C2097 H2100 0.999 . S
C2098 H2068 0.950 . S
C2098 C2097 1.524 . S
C2098 C2099 1.415 . S
C2099 H2069 0.950 . S
C2099 C2094 1.363 . S
C2099 C2098 1.415 . S
H2100 C2097 0.999 . S
H2101 C2082 0.913 . S
H2102 C2120 0.951 . S
H2103 C2122 0.951 . S
H2104 C2124 0.950 . S
H2105 C2125 0.950 . S
H2106 C2127 0.950 . S
H2107 C2130 0.950 . S
H2108 C2131 0.950 . S
H2109 C2133 0.950 . S
H2110 C2134 0.950 . S
H2111 C2135 0.951 . S
H2112 C2137 0.951 . S
H2113 C2139 0.950 . S
H2114 C2140 0.950 . S
H2115 C2142 0.950 . S
H2116 C2145 0.950 . S
H2117 C2146 0.950 . S
H2118 C2148 0.950 . S
H2119 C2149 0.950 . S
C2120 H2102 0.951 . S
C2120 C2121 1.366 . S
C2120 C2122 1.388 . S
C2121 C2120 1.366 . S
C2121 C2125 1.385 . S
C2122 H2103 0.951 . S
C2122 C2120 1.388 . S
C2122 C2123 1.366 . S
C2123 C2122 1.366 . S
C2123 C2124 1.414 . S
C2123 C2126 1.499 . S
C2124 H2104 0.950 . S
C2124 C2123 1.414 . S
C2124 C2125 1.374 . S
C2125 H2105 0.950 . S
C2125 C2121 1.385 . S
C2125 C2124 1.374 . S
C2126 C2123 1.499 . S
C2126 C2127 1.373 . S
C2126 C2128 1.389 . S
C2127 H2106 0.950 . S
C2127 C2126 1.373 . S
C2127 C2143 1.377 . S
C2128 C2126 1.389 . S
C2128 C2129 1.524 . S
C2128 C2142 1.377 . S
C2129 C2128 1.524 . S
C2129 C2130 1.397 . S
C2129 C2134 1.363 . S
C2130 H2107 0.950 . S
C2130 C2129 1.397 . S
C2130 C2131 1.334 . S
C2131 H2108 0.950 . S
C2131 C2130 1.334 . S
C2131 C2132 1.287 . S
C2132 C2131 1.287 . S
C2132 C2133 1.524 . S
C2132 H2151 0.913 . S
C2133 H2109 0.950 . S
C2133 C2132 1.524 . S
C2133 C2134 1.415 . S
C2134 H2110 0.950 . S
C2134 C2129 1.363 . S
C2134 C2133 1.415 . S
C2135 H2111 0.951 . S
C2135 C2136 1.366 . S
C2135 C2137 1.388 . S
C2136 C2135 1.366 . S
C2136 C2140 1.385 . S
C2137 H2112 0.951 . S
C2137 C2135 1.388 . S
C2137 C2138 1.366 . S
C2138 C2137 1.366 . S
C2138 C2139 1.414 . S
C2138 C2141 1.499 . S
C2139 H2113 0.950 . S
C2139 C2138 1.414 . S
C2139 C2140 1.374 . S
C2140 H2114 0.950 . S
C2140 C2136 1.385 . S
C2140 C2139 1.374 . S
C2141 C2138 1.499 . S
C2141 C2142 1.373 . S
C2141 C2143 1.389 . S
C2142 H2115 0.950 . S
C2142 C2128 1.377 . S
C2142 C2141 1.373 . S
C2143 C2127 1.377 . S
C2143 C2141 1.389 . S
C2143 C2144 1.524 . S
C2144 C2143 1.524 . S
C2144 C2145 1.397 . S
C2144 C2149 1.363 . S
C2145 H2116 0.950 . S
C2145 C2144 1.397 . S
C2145 C2146 1.334 . S
C2146 H2117 0.950 . S
C2146 C2145 1.334 . S
C2146 C2147 1.287 . S
C2147 C2146 1.287 . S
C2147 C2148 1.524 . S
C2147 H2150 0.999 . S
C2148 H2118 0.950 . S
C2148 C2147 1.524 . S
C2148 C2149 1.415 . S
C2149 H2119 0.950 . S
C2149 C2144 1.363 . S
C2149 C2148 1.415 . S
H2150 C2147 0.999 . S
H2151 C2132 0.913 . S
H2152 C2170 0.951 . S
H2153 C2172 0.951 . S
H2154 C2174 0.950 . S
H2155 C2175 0.950 . S
H2156 C2177 0.950 . S
H2157 C2180 0.950 . S
H2158 C2181 0.950 . S
H2159 C2183 0.950 . S
H2160 C2184 0.950 . S
H2161 C2185 0.951 . S
H2162 C2187 0.951 . S
H2163 C2189 0.950 . S
H2164 C2190 0.950 . S
H2165 C2192 0.950 . S
H2166 C2195 0.950 . S
H2167 C2196 0.950 . S
H2168 C2198 0.950 . S
H2169 C2199 0.950 . S
C2170 H2152 0.951 . S
C2170 C2171 1.366 . S
C2170 C2172 1.388 . S
C2171 C2170 1.366 . S
C2171 C2175 1.385 . S
C2172 H2153 0.951 . S
C2172 C2170 1.388 . S
C2172 C2173 1.366 . S
C2173 C2172 1.366 . S
C2173 C2174 1.414 . S
C2173 C2176 1.499 . S
C2174 H2154 0.950 . S
C2174 C2173 1.414 . S
C2174 C2175 1.374 . S
C2175 H2155 0.950 . S
C2175 C2171 1.385 . S
C2175 C2174 1.374 . S
C2176 C2173 1.499 . S
C2176 C2177 1.373 . S
C2176 C2178 1.389 . S
C2177 H2156 0.950 . S
C2177 C2176 1.373 . S
C2177 C2193 1.377 . S
C2178 C2176 1.389 . S
C2178 C2179 1.524 . S
C2178 C2192 1.377 . S
C2179 C2178 1.524 . S
C2179 C2180 1.397 . S
C2179 C2184 1.363 . S
C2180 H2157 0.950 . S
C2180 C2179 1.397 . S
C2180 C2181 1.334 . S
C2181 H2158 0.950 . S
C2181 C2180 1.334 . S
C2181 C2182 1.287 . S
C2182 C2181 1.287 . S
C2182 C2183 1.524 . S
C2182 H2201 0.913 . S
C2183 H2159 0.950 . S
C2183 C2182 1.524 . S
C2183 C2184 1.415 . S
C2184 H2160 0.950 . S
C2184 C2179 1.363 . S
C2184 C2183 1.415 . S
C2185 H2161 0.951 . S
C2185 C2186 1.366 . S
C2185 C2187 1.388 . S
C2186 C2185 1.366 . S
C2186 C2190 1.385 . S
C2187 H2162 0.951 . S
C2187 C2185 1.388 . S
C2187 C2188 1.366 . S
C2188 C2187 1.366 . S
C2188 C2189 1.414 . S
C2188 C2191 1.499 . S
C2189 H2163 0.950 . S
C2189 C2188 1.414 . S
C2189 C2190 1.374 . S
C2190 H2164 0.950 . S
C2190 C2186 1.385 . S
C2190 C2189 1.374 . S
C2191 C2188 1.499 . S
C2191 C2192 1.373 . S
C2191 C2193 1.389 . S
C2192 H2165 0.950 . S
C2192 C2178 1.377 . S
C2192 C2191 1.373 . S
C2193 C2177 1.377 . S
C2193 C2191 1.389 . S
C2193 C2194 1.524 . S
C2194 C2193 1.524 . S
C2194 C2195 1.397 . S
C2194 C2199 1.363 . S
C2195 H2166 0.950 . S
C2195 C2194 1.397 . S
C2195 C2196 1.334 . S
C2196 H2167 0.950 . S
C2196 C2195 1.334 . S
C2196 C2197 1.287 . S
C2197 C2196 1.287 . S
C2197 C2198 1.524 . S
C2197 H2200 0.999 . S
C2198 H2168 0.950 . S
C2198 C2197 1.524 . S
C2198 C2199 1.415 . S
C2199 H2169 0.950 . S
C2199 C2194 1.363 . S
C2199 C2198 1.415 . S
H2200 C2197 0.999 . S
H2201 C2182 0.913 . S
H2202 C2220 0.951 . S
H2203 C2222 0.951 . S
H2204 C2224 0.950 . S
H2205 C2225 0.950 . S
H2206 C2227 0.950 . S
H2207 C2230 0.950 . S
H2208 C2231 0.950 . S
H2209 C2233 0.950 . S
H2210 C2234 0.950 . S
H2211 C2235 0.951 . S
H2212 C2237 0.951 . S
H2213 C2239 0.950 . S
H2214 C2240 0.950 . S
H2215 C2242 0.950 . S
H2216 C2245 0.950 . S
H2217 C2246 0.950 . S
H2218 C2248 0.950 . S
H2219 C2249 0.950 . S
C2220 H2202 0.951 . S
C2220 C2221 1.366 . S
C2220 C2222 1.388 . S
C2221 C2220 1.366 . S
C2221 C2225 1.385 . S
C2222 H2203 0.951 . S
C2222 C2220 1.388 . S
C2222 C2223 1.366 . S
C2223 C2222 1.366 . S
C2223 C2224 1.414 . S
C2223 C2226 1.499 . S
C2224 H2204 0.950 . S
C2224 C2223 1.414 . S
C2224 C2225 1.374 . S
C2225 H2205 0.950 . S
C2225 C2221 1.385 . S
C2225 C2224 1.374 . S
C2226 C2223 1.499 . S
C2226 C2227 1.373 . S
C2226 C2228 1.389 . S
C2227 H2206 0.950 . S
C2227 C2226 1.373 . S
C2227 C2243 1.377 . S
C2228 C2226 1.389 . S
C2228 C2229 1.524 . S
C2228 C2242 1.377 . S
C2229 C2228 1.524 . S
C2229 C2230 1.397 . S
C2229 C2234 1.363 . S
C2230 H2207 0.950 . S
C2230 C2229 1.397 . S
C2230 C2231 1.334 . S
C2231 H2208 0.950 . S
C2231 C2230 1.334 . S
C2231 C2232 1.287 . S
C2232 C2231 1.287 . S
C2232 C2233 1.524 . S
C2232 H2251 0.913 . S
C2233 H2209 0.950 . S
C2233 C2232 1.524 . S
C2233 C2234 1.415 . S
C2234 H2210 0.950 . S
C2234 C2229 1.363 . S
C2234 C2233 1.415 . S
C2235 H2211 0.951 . S
C2235 C2236 1.366 . S
C2235 C2237 1.388 . S
C2236 C2235 1.366 . S
C2236 C2240 1.385 . S
C2237 H2212 0.951 . S
C2237 C2235 1.388 . S
C2237 C2238 1.366 . S
C2238 C2237 1.366 . S
C2238 C2239 1.414 . S
C2238 C2241 1.499 . S
C2239 H2213 0.950 . S
C2239 C2238 1.414 . S
C2239 C2240 1.374 . S
C2240 H2214 0.950 . S
C2240 C2236 1.385 . S
C2240 C2239 1.374 . S
C2241 C2238 1.499 . S
C2241 C2242 1.373 . S
C2241 C2243 1.389 . S
C2242 H2215 0.950 . S
C2242 C2228 1.377 . S
C2242 C2241 1.373 . S
C2243 C2227 1.377 . S
C2243 C2241 1.389 . S
C2243 C2244 1.524 . S
C2244 C2243 1.524 . S
C2244 C2245 1.397 . S
C2244 C2249 1.363 . S
C2245 H2216 0.950 . S
C2245 C2244 1.397 . S
C2245 C2246 1.334 . S
C2246 H2217 0.950 . S
C2246 C2245 1.334 . S
C2246 C2247 1.287 . S
C2247 C2246 1.287 . S
C2247 C2248 1.524 . S
C2247 H2250 0.999 . S
C2248 H2218 0.950 . S
C2248 C2247 1.524 . S
C2248 C2249 1.415 . S
C2249 H2219 0.950 . S
C2249 C2244 1.363 . S
C2249 C2248 1.415 . S
H2250 C2247 0.999 . S
H2251 C2232 0.913 . S
H2252 C2270 0.951 . S
H2253 C2272 0.951 . S
H2254 C2274 0.950 . S
H2255 C2275 0.950 . S
H2256 C2277 0.950 . S
H2257 C2280 0.950 . S
H2258 C2281 0.950 . S
H2259 C2283 0.950 . S
H2260 C2284 0.950 . S
H2261 C2285 0.951 . S
H2262 C2287 0.951 . S
H2263 C2289 0.950 . S
H2264 C2290 0.950 . S
H2265 C2292 0.950 . S
H2266 C2295 0.950 . S
H2267 C2296 0.950 . S
H2268 C2298 0.950 . S
H2269 C2299 0.950 . S
C2270 H2252 0.951 . S
C2270 C2271 1.366 . S
C2270 C2272 1.388 . S
C2271 C2270 1.366 . S
C2271 C2275 1.385 . S
C2272 H2253 0.951 . S
C2272 C2270 1.388 . S
C2272 C2273 1.366 . S
C2273 C2272 1.366 . S
C2273 C2274 1.414 . S
C2273 C2276 1.499 . S
C2274 H2254 0.950 . S
C2274 C2273 1.414 . S
C2274 C2275 1.374 . S
C2275 H2255 0.950 . S
C2275 C2271 1.385 . S
C2275 C2274 1.374 . S
C2276 C2273 1.499 . S
C2276 C2277 1.373 . S
C2276 C2278 1.389 . S
C2277 H2256 0.950 . S
C2277 C2276 1.373 . S
C2277 C2293 1.377 . S
C2278 C2276 1.389 . S
C2278 C2279 1.524 . S
C2278 C2292 1.377 . S
C2279 C2278 1.524 . S
C2279 C2280 1.397 . S
C2279 C2284 1.363 . S
C2280 H2257 0.950 . S
C2280 C2279 1.397 . S
C2280 C2281 1.334 . S
C2281 H2258 0.950 . S
C2281 C2280 1.334 . S
C2281 C2282 1.287 . S
C2282 C2281 1.287 . S
C2282 C2283 1.524 . S
C2282 H2301 0.913 . S
C2283 H2259 0.950 . S
C2283 C2282 1.524 . S
C2283 C2284 1.415 . S
C2284 H2260 0.950 . S
C2284 C2279 1.363 . S
C2284 C2283 1.415 . S
C2285 H2261 0.951 . S
C2285 C2286 1.366 . S
C2285 C2287 1.388 . S
C2286 C2285 1.366 . S
C2286 C2290 1.385 . S
C2287 H2262 0.951 . S
C2287 C2285 1.388 . S
C2287 C2288 1.366 . S
C2288 C2287 1.366 . S
C2288 C2289 1.414 . S
C2288 C2291 1.499 . S
C2289 H2263 0.950 . S
C2289 C2288 1.414 . S
C2289 C2290 1.374 . S
C2290 H2264 0.950 . S
C2290 C2286 1.385 . S
C2290 C2289 1.374 . S
C2291 C2288 1.499 . S
C2291 C2292 1.373 . S
C2291 C2293 1.389 . S
C2292 H2265 0.950 . S
C2292 C2278 1.377 . S
C2292 C2291 1.373 . S
C2293 C2277 1.377 . S
C2293 C2291 1.389 . S
C2293 C2294 1.524 . S
C2294 C2293 1.524 . S
C2294 C2295 1.397 . S
C2294 C2299 1.363 . S
C2295 H2266 0.950 . S
C2295 C2294 1.397 . S
C2295 C2296 1.334 . S
C2296 H2267 0.950 . S
C2296 C2295 1.334 . S
C2296 C2297 1.287 . S
C2297 C2296 1.287 . S
C2297 C2298 1.524 . S
C2297 H2300 0.999 . S
C2298 H2268 0.950 . S
C2298 C2297 1.524 . S
C2298 C2299 1.415 . S
C2299 H2269 0.950 . S
C2299 C2294 1.363 . S
C2299 C2298 1.415 . S
H2300 C2297 0.999 . S
H2301 C2282 0.913 . S
H2302 C2320 0.951 . S
H2303 C2322 0.951 . S
H2304 C2324 0.950 . S
H2305 C2325 0.950 . S
H2306 C2327 0.950 . S
H2307 C2330 0.950 . S
H2308 C2331 0.950 . S
H2309 C2333 0.950 . S
H2310 C2334 0.950 . S
H2311 C2335 0.951 . S
H2312 C2337 0.951 . S
H2313 C2339 0.950 . S
H2314 C2340 0.950 . S
H2315 C2342 0.950 . S
H2316 C2345 0.950 . S
H2317 C2346 0.950 . S
H2318 C2348 0.950 . S
H2319 C2349 0.950 . S
C2320 H2302 0.951 . S
C2320 C2321 1.366 . S
C2320 C2322 1.388 . S
C2321 C2320 1.366 . S
C2321 C2325 1.385 . S
C2322 H2303 0.951 . S
C2322 C2320 1.388 . S
C2322 C2323 1.366 . S
C2323 C2322 1.366 . S
C2323 C2324 1.414 . S
C2323 C2326 1.499 . S
C2324 H2304 0.950 . S
C2324 C2323 1.414 . S
C2324 C2325 1.374 . S
C2325 H2305 0.950 . S
C2325 C2321 1.385 . S
C2325 C2324 1.374 . S
C2326 C2323 1.499 . S
C2326 C2327 1.373 . S
C2326 C2328 1.389 . S
C2327 H2306 0.950 . S
C2327 C2326 1.373 . S
C2327 C2343 1.377 . S
C2328 C2326 1.389 . S
C2328 C2329 1.524 . S
C2328 C2342 1.377 . S
C2329 C2328 1.524 . S
C2329 C2330 1.397 . S
C2329 C2334 1.363 . S
C2330 H2307 0.950 . S
C2330 C2329 1.397 . S
C2330 C2331 1.334 . S
C2331 H2308 0.950 . S
C2331 C2330 1.334 . S
C2331 C2332 1.287 . S
C2332 C2331 1.287 . S
C2332 C2333 1.524 . S
C2332 H2351 0.913 . S
C2333 H2309 0.950 . S
C2333 C2332 1.524 . S
C2333 C2334 1.415 . S
C2334 H2310 0.950 . S
C2334 C2329 1.363 . S
C2334 C2333 1.415 . S
C2335 H2311 0.951 . S
C2335 C2336 1.366 . S
C2335 C2337 1.388 . S
C2336 C2335 1.366 . S
C2336 C2340 1.385 . S
C2337 H2312 0.951 . S
C2337 C2335 1.388 . S
C2337 C2338 1.366 . S
C2338 C2337 1.366 . S
C2338 C2339 1.414 . S
C2338 C2341 1.499 . S
C2339 H2313 0.950 . S
C2339 C2338 1.414 . S
C2339 C2340 1.374 . S
C2340 H2314 0.950 . S
C2340 C2336 1.385 . S
C2340 C2339 1.374 . S
C2341 C2338 1.499 . S
C2341 C2342 1.373 . S
C2341 C2343 1.389 . S
C2342 H2315 0.950 . S
C2342 C2328 1.377 . S
C2342 C2341 1.373 . S
C2343 C2327 1.377 . S
C2343 C2341 1.389 . S
C2343 C2344 1.524 . S
C2344 C2343 1.524 . S
C2344 C2345 1.397 . S
C2344 C2349 1.363 . S
C2345 H2316 0.950 . S
C2345 C2344 1.397 . S
C2345 C2346 1.334 . S
C2346 H2317 0.950 . S
C2346 C2345 1.334 . S
C2346 C2347 1.287 . S
C2347 C2346 1.287 . S
C2347 C2348 1.524 . S
C2347 H2350 0.999 . S
C2348 H2318 0.950 . S
C2348 C2347 1.524 . S
C2348 C2349 1.415 . S
C2349 H2319 0.950 . S
C2349 C2344 1.363 . S
C2349 C2348 1.415 . S
H2350 C2347 0.999 . S
H2351 C2332 0.913 . S
H2352 C2370 0.951 . S
H2353 C2372 0.951 . S
H2354 C2374 0.950 . S
H2355 C2375 0.950 . S
H2356 C2377 0.950 . S
H2357 C2380 0.950 . S
H2358 C2381 0.950 . S
H2359 C2383 0.950 . S
H2360 C2384 0.950 . S
H2361 C2385 0.951 . S
H2362 C2387 0.951 . S
H2363 C2389 0.950 . S
H2364 C2390 0.950 . S
H2365 C2392 0.950 . S
H2366 C2395 0.950 . S
H2367 C2396 0.950 . S
H2368 C2398 0.950 . S
H2369 C2399 0.950 . S
C2370 H2352 0.951 . S
C2370 C2371 1.366 . S
C2370 C2372 1.388 . S
C2371 C2370 1.366 . S
C2371 C2375 1.385 . S
C2372 H2353 0.951 . S
C2372 C2370 1.388 . S
C2372 C2373 1.366 . S
C2373 C2372 1.366 . S
C2373 C2374 1.414 . S
C2373 C2376 1.499 . S
C2374 H2354 0.950 . S
C2374 C2373 1.414 . S
C2374 C2375 1.374 . S
C2375 H2355 0.950 . S
C2375 C2371 1.385 . S
C2375 C2374 1.374 . S
C2376 C2373 1.499 . S
C2376 C2377 1.373 1_556 S
C2376 C2378 1.389 . S
C2377 H2356 0.950 . S
C2377 C2376 1.373 1_554 S
C2377 C2393 1.377 . S
C2378 C2376 1.389 . S
C2378 C2379 1.524 . S
C2378 C2392 1.377 . S
C2379 C2378 1.524 . S
C2379 C2380 1.397 . S
C2379 C2384 1.363 . S
C2380 H2357 0.950 . S
C2380 C2379 1.397 . S
C2380 C2381 1.334 . S
C2381 H2358 0.950 . S
C2381 C2380 1.334 . S
C2381 C2382 1.287 . S
C2382 C2381 1.287 . S
C2382 C2383 1.524 . S
C2382 H2401 0.913 . S
C2383 H2359 0.950 . S
C2383 C2382 1.524 . S
C2383 C2384 1.415 . S
C2384 H2360 0.950 . S
C2384 C2379 1.363 . S
C2384 C2383 1.415 . S
C2385 H2361 0.951 . S
C2385 C2386 1.366 . S
C2385 C2387 1.388 . S
C2386 C2385 1.366 . S
C2386 C2390 1.385 . S
C2387 H2362 0.951 . S
C2387 C2385 1.388 . S
C2387 C2388 1.366 . S
C2388 C2387 1.366 . S
C2388 C2389 1.414 . S
C2388 C2391 1.499 . S
C2389 H2363 0.950 . S
C2389 C2388 1.414 . S
C2389 C2390 1.374 . S
C2390 H2364 0.950 . S
C2390 C2386 1.385 . S
C2390 C2389 1.374 . S
C2391 C2388 1.499 . S
C2391 C2392 1.373 1_554 S
C2391 C2393 1.389 . S
C2392 H2365 0.950 . S
C2392 C2378 1.377 . S
C2392 C2391 1.373 1_556 S
C2393 C2377 1.377 . S
C2393 C2391 1.389 . S
C2393 C2394 1.524 . S
C2394 C2393 1.524 . S
C2394 C2395 1.397 . S
C2394 C2399 1.363 . S
C2395 H2366 0.950 . S
C2395 C2394 1.397 . S
C2395 C2396 1.334 . S
C2396 H2367 0.950 . S
C2396 C2395 1.334 . S
C2396 C2397 1.287 . S
C2397 C2396 1.287 . S
C2397 C2398 1.524 . S
C2397 H2400 0.999 . S
C2398 H2368 0.950 . S
C2398 C2397 1.524 . S
C2398 C2399 1.415 . S
C2399 H2369 0.950 . S
C2399 C2394 1.363 . S
C2399 C2398 1.415 . S
H2400 C2397 0.999 . S
H2401 C2382 0.913 . S
H2402 C2420 0.934 1_556 S
H2403 C2422 0.951 1_556 S
H2404 C2424 0.950 . S
H2405 C2425 0.950 . S
H2406 C2427 0.950 . S
H2407 C2430 0.950 . S
H2408 C2431 0.950 . S
H2409 C2433 0.950 . S
H2410 C2434 0.950 . S
H2411 C2435 0.934 1_554 S
H2412 C2437 0.951 1_554 S
H2413 C2439 0.950 . S
H2414 C2440 0.950 . S
H2415 C2442 0.950 . S
H2416 C2445 0.950 . S
H2417 C2446 0.950 . S
H2418 C2448 0.950 . S
H2419 C2449 0.950 . S
C2420 H2402 0.934 1_554 S
C2420 C2421 1.366 . S
C2420 C2422 1.388 . S
C2421 C2420 1.366 . S
C2421 C2425 1.385 . S
C2422 H2403 0.951 1_554 S
C2422 C2420 1.388 . S
C2422 C2423 1.366 . S
C2423 C2422 1.366 . S
C2423 C2424 1.414 . S
C2423 C2426 1.499 . S
C2424 H2404 0.950 . S
C2424 C2423 1.414 . S
C2424 C2425 1.374 . S
C2425 H2405 0.950 . S
C2425 C2421 1.385 . S
C2425 C2424 1.374 . S
C2426 C2423 1.499 . S
C2426 C2427 1.373 . S
C2426 C2428 1.389 1_554 S
C2427 H2406 0.950 . S
C2427 C2426 1.373 . S
C2427 C2443 1.377 . S
C2428 C2426 1.389 1_556 S
C2428 C2429 1.524 . S
C2428 C2442 1.377 . S
C2429 C2428 1.524 . S
C2429 C2430 1.397 . S
C2429 C2434 1.363 . S
C2430 H2407 0.950 . S
C2430 C2429 1.397 . S
C2430 C2431 1.334 . S
C2431 H2408 0.950 . S
C2431 C2430 1.334 . S
C2431 C2432 1.287 . S
C2432 C2431 1.287 . S
C2432 C2433 1.524 . S
C2432 H2451 0.913 . S
C2433 H2409 0.950 . S
C2433 C2432 1.524 . S
C2433 C2434 1.415 . S
C2434 H2410 0.950 . S
C2434 C2429 1.363 . S
C2434 C2433 1.415 . S
C2435 H2411 0.934 1_556 S
C2435 C2436 1.366 . S
C2435 C2437 1.388 . S
C2436 C2435 1.366 . S
C2436 C2440 1.385 . S
C2437 H2412 0.951 1_556 S
C2437 C2435 1.388 . S
C2437 C2438 1.366 . S
C2438 C2437 1.366 . S
C2438 C2439 1.414 . S
C2438 C2441 1.499 . S
C2439 H2413 0.950 . S
C2439 C2438 1.414 . S
C2439 C2440 1.374 . S
C2440 H2414 0.950 . S
C2440 C2436 1.385 . S
C2440 C2439 1.374 . S
C2441 C2438 1.499 . S
C2441 C2442 1.373 . S
C2441 C2443 1.389 1_556 S
C2442 H2415 0.950 . S
C2442 C2428 1.377 . S
C2442 C2441 1.373 . S
C2443 C2427 1.377 . S
C2443 C2441 1.389 1_554 S
C2443 C2444 1.524 . S
C2444 C2443 1.524 . S
C2444 C2445 1.397 . S
C2444 C2449 1.363 . S
C2445 H2416 0.950 . S
C2445 C2444 1.397 . S
C2445 C2446 1.334 . S
C2446 H2417 0.950 . S
C2446 C2445 1.334 . S
C2446 C2447 1.287 . S
C2447 C2446 1.287 . S
C2447 C2448 1.524 . S
C2447 H2450 0.999 . S
C2448 H2418 0.950 . S
C2448 C2447 1.524 . S
C2448 C2449 1.415 . S
C2449 H2419 0.950 . S
C2449 C2444 1.363 . S
C2449 C2448 1.415 . S
H2450 C2447 0.999 . S
H2451 C2432 0.913 . S
H2452 C2470 0.951 . S
H2453 C2472 0.951 . S
H2454 C2474 0.948 1_556 S
H2455 C2475 0.950 . S
H2456 C2477 0.950 . S
H2457 C2480 0.950 . S
H2458 C2481 0.950 . S
H2459 C2483 0.950 . S
H2460 C2484 0.950 . S
H2461 C2485 0.951 . S
H2462 C2487 0.951 . S
H2463 C2489 0.948 1_554 S
H2464 C2490 0.950 . S
H2465 C2492 0.950 . S
H2466 C2495 0.950 . S
H2467 C2496 0.950 . S
H2468 C2498 0.950 . S
H2469 C2499 0.950 . S
C2470 H2452 0.951 . S
C2470 C2471 1.366 . S
C2470 C2472 1.388 . S
C2471 C2470 1.366 . S
C2471 C2475 1.385 . S
C2472 H2453 0.951 . S
C2472 C2470 1.388 . S
C2472 C2473 1.366 . S
C2473 C2472 1.366 . S
C2473 C2474 1.414 . S
C2473 C2476 1.499 . S
C2474 H2454 0.948 1_554 S
C2474 C2473 1.414 . S
C2474 C2475 1.374 . S
C2475 H2455 0.950 . S
C2475 C2471 1.385 . S
C2475 C2474 1.374 . S
C2476 C2473 1.499 . S
C2476 C2477 1.373 1_554 S
C2476 C2478 1.389 . S
C2477 H2456 0.950 . S
C2477 C2476 1.373 1_556 S
C2477 C2493 1.377 . S
C2478 C2476 1.389 . S
C2478 C2479 1.524 . S
C2478 C2492 1.377 . S
C2479 C2478 1.524 . S
C2479 C2480 1.397 . S
C2479 C2484 1.363 . S
C2480 H2457 0.950 . S
C2480 C2479 1.397 . S
C2480 C2481 1.334 . S
C2481 H2458 0.950 . S
C2481 C2480 1.334 . S
C2481 C2482 1.287 . S
C2482 C2481 1.287 . S
C2482 C2483 1.524 . S
C2482 H2501 0.913 . S
C2483 H2459 0.950 . S
C2483 C2482 1.524 . S
C2483 C2484 1.415 . S
C2484 H2460 0.950 . S
C2484 C2479 1.363 . S
C2484 C2483 1.415 . S
C2485 H2461 0.951 . S
C2485 C2486 1.366 . S
C2485 C2487 1.388 . S
C2486 C2485 1.366 . S
C2486 C2490 1.385 . S
C2487 H2462 0.951 . S
C2487 C2485 1.388 . S
C2487 C2488 1.366 . S
C2488 C2487 1.366 . S
C2488 C2489 1.414 . S
C2488 C2491 1.499 . S
C2489 H2463 0.948 1_556 S
C2489 C2488 1.414 . S
C2489 C2490 1.374 . S
C2490 H2464 0.950 . S
C2490 C2486 1.385 . S
C2490 C2489 1.374 . S
C2491 C2488 1.499 . S
C2491 C2492 1.373 1_556 S
C2491 C2493 1.389 . S
C2492 H2465 0.950 . S
C2492 C2478 1.377 . S
C2492 C2491 1.373 1_554 S
C2493 C2477 1.377 . S
C2493 C2491 1.389 . S
C2493 C2494 1.524 . S
C2494 C2493 1.524 . S
C2494 C2495 1.397 . S
C2494 C2499 1.363 . S
C2495 H2466 0.950 . S
C2495 C2494 1.397 . S
C2495 C2496 1.334 . S
C2496 H2467 0.950 . S
C2496 C2495 1.334 . S
C2496 C2497 1.287 . S
C2497 C2496 1.287 . S
C2497 C2498 1.524 . S
C2497 H2500 0.999 . S
C2498 H2468 0.950 . S
C2498 C2497 1.524 . S
C2498 C2499 1.415 . S
C2499 H2469 0.950 . S
C2499 C2494 1.363 . S
C2499 C2498 1.415 . S
H2500 C2497 0.999 . S
H2501 C2482 0.913 . S
H2502 C2520 0.951 . S
H2503 C2522 0.951 . S
H2504 C2524 0.950 . S
H2505 C2525 0.950 . S
H2506 C2527 0.950 . S
H2507 C2530 0.950 . S
H2508 C2531 0.950 . S
H2509 C2533 0.950 . S
H2510 C2534 0.950 . S
H2511 C2535 0.951 . S
H2512 C2537 0.951 . S
H2513 C2539 0.950 . S
H2514 C2540 0.950 . S
H2515 C2542 0.950 . S
H2516 C2545 0.950 . S
H2517 C2546 0.950 . S
H2518 C2548 0.950 . S
H2519 C2549 0.950 . S
C2520 H2502 0.951 . S
C2520 C2521 1.366 . S
C2520 C2522 1.388 . S
C2521 C2520 1.366 . S
C2521 C2525 1.385 . S
C2522 H2503 0.951 . S
C2522 C2520 1.388 . S
C2522 C2523 1.366 . S
C2523 C2522 1.366 . S
C2523 C2524 1.414 . S
C2523 C2526 1.499 . S
C2524 H2504 0.950 . S
C2524 C2523 1.414 . S
C2524 C2525 1.374 . S
C2525 H2505 0.950 . S
C2525 C2521 1.385 . S
C2525 C2524 1.374 . S
C2526 C2523 1.499 . S
C2526 C2527 1.373 . S
C2526 C2528 1.389 1_554 S
C2527 H2506 0.950 . S
C2527 C2526 1.373 . S
C2527 C2543 1.377 . S
C2528 C2526 1.389 1_556 S
C2528 C2529 1.524 . S
C2528 C2542 1.377 . S
C2529 C2528 1.524 . S
C2529 C2530 1.397 . S
C2529 C2534 1.363 . S
C2530 H2507 0.950 . S
C2530 C2529 1.397 . S
C2530 C2531 1.334 . S
C2531 H2508 0.950 . S
C2531 C2530 1.334 . S
C2531 C2532 1.287 . S
C2532 C2531 1.287 . S
C2532 C2533 1.524 . S
C2532 H2551 0.913 . S
C2533 H2509 0.950 . S
C2533 C2532 1.524 . S
C2533 C2534 1.415 . S
C2534 H2510 0.950 . S
C2534 C2529 1.363 . S
C2534 C2533 1.415 . S
C2535 H2511 0.951 . S
C2535 C2536 1.366 . S
C2535 C2537 1.388 . S
C2536 C2535 1.366 . S
C2536 C2540 1.385 . S
C2537 H2512 0.951 . S
C2537 C2535 1.388 . S
C2537 C2538 1.366 . S
C2538 C2537 1.366 . S
C2538 C2539 1.414 . S
C2538 C2541 1.499 . S
C2539 H2513 0.950 . S
C2539 C2538 1.414 . S
C2539 C2540 1.374 . S
C2540 H2514 0.950 . S
C2540 C2536 1.385 . S
C2540 C2539 1.374 . S
C2541 C2538 1.499 . S
C2541 C2542 1.373 . S
C2541 C2543 1.389 1_556 S
C2542 H2515 0.950 . S
C2542 C2528 1.377 . S
C2542 C2541 1.373 . S
C2543 C2527 1.377 . S
C2543 C2541 1.389 1_554 S
C2543 C2544 1.524 . S
C2544 C2543 1.524 . S
C2544 C2545 1.397 . S
C2544 C2549 1.363 . S
C2545 H2516 0.950 . S
C2545 C2544 1.397 . S
C2545 C2546 1.334 . S
C2546 H2517 0.950 . S
C2546 C2545 1.334 . S
C2546 C2547 1.287 . S
C2547 C2546 1.287 . S
C2547 C2548 1.524 . S
C2547 H2550 0.999 . S
C2548 H2518 0.950 . S
C2548 C2547 1.524 . S
C2548 C2549 1.415 . S
C2549 H2519 0.950 . S
C2549 C2544 1.363 . S
C2549 C2548 1.415 . S
H2550 C2547 0.999 . S
H2551 C2532 0.913 . S
H2552 C2570 0.951 . S
H2553 C2572 0.951 . S
H2554 C2574 0.950 . S
H2555 C2575 0.950 . S
H2556 C2577 0.950 . S
H2557 C2580 0.950 . S
H2558 C2581 0.950 . S
H2559 C2583 0.950 . S
H2560 C2584 0.950 . S
H2561 C2585 0.951 . S
H2562 C2587 0.951 . S
H2563 C2589 0.950 . S
H2564 C2590 0.950 . S
H2565 C2592 0.950 . S
H2566 C2595 0.950 . S
H2567 C2596 0.950 . S
H2568 C2598 0.950 . S
H2569 C2599 0.950 . S
C2570 H2552 0.951 . S
C2570 C2571 1.366 . S
C2570 C2572 1.388 . S
C2571 C2570 1.366 . S
C2571 C2575 1.385 . S
C2572 H2553 0.951 . S
C2572 C2570 1.388 . S
C2572 C2573 1.366 . S
C2573 C2572 1.366 . S
C2573 C2574 1.414 . S
C2573 C2576 1.499 . S
C2574 H2554 0.950 . S
C2574 C2573 1.414 . S
C2574 C2575 1.374 . S
C2575 H2555 0.950 . S
C2575 C2571 1.385 . S
C2575 C2574 1.374 . S
C2576 C2573 1.499 . S
C2576 C2577 1.373 . S
C2576 C2578 1.389 . S
C2577 H2556 0.950 . S
C2577 C2576 1.373 . S
C2577 C2593 1.377 . S
C2578 C2576 1.389 . S
C2578 C2579 1.524 . S
C2578 C2592 1.377 . S
C2579 C2578 1.524 . S
C2579 C2580 1.397 . S
C2579 C2584 1.363 . S
C2580 H2557 0.950 . S
C2580 C2579 1.397 . S
C2580 C2581 1.334 . S
C2581 H2558 0.950 . S
C2581 C2580 1.334 . S
C2581 C2582 1.287 . S
C2582 C2581 1.287 . S
C2582 C2583 1.524 . S
C2582 H2601 0.913 . S
C2583 H2559 0.950 . S
C2583 C2582 1.524 . S
C2583 C2584 1.415 . S
C2584 H2560 0.950 . S
C2584 C2579 1.363 . S
C2584 C2583 1.415 . S
C2585 H2561 0.951 . S
C2585 C2586 1.366 . S
C2585 C2587 1.388 . S
C2586 C2585 1.366 . S
C2586 C2590 1.385 . S
C2587 H2562 0.951 . S
C2587 C2585 1.388 . S
C2587 C2588 1.366 . S
C2588 C2587 1.366 . S
C2588 C2589 1.414 . S
C2588 C2591 1.499 . S
C2589 H2563 0.950 . S
C2589 C2588 1.414 . S
C2589 C2590 1.374 . S
C2590 H2564 0.950 . S
C2590 C2586 1.385 . S
C2590 C2589 1.374 . S
C2591 C2588 1.499 . S
C2591 C2592 1.373 . S
C2591 C2593 1.389 . S
C2592 H2565 0.950 . S
C2592 C2578 1.377 . S
C2592 C2591 1.373 . S
C2593 C2577 1.377 . S
C2593 C2591 1.389 . S
C2593 C2594 1.524 . S
C2594 C2593 1.524 . S
C2594 C2595 1.397 . S
C2594 C2599 1.363 . S
C2595 H2566 0.950 . S
C2595 C2594 1.397 . S
C2595 C2596 1.334 . S
C2596 H2567 0.950 . S
C2596 C2595 1.334 . S
C2596 C2597 1.287 . S
C2597 C2596 1.287 . S
C2597 C2598 1.524 . S
C2597 H2600 0.999 . S
C2598 H2568 0.950 . S
C2598 C2597 1.524 . S
C2598 C2599 1.415 . S
C2599 H2569 0.950 . S
C2599 C2594 1.363 . S
C2599 C2598 1.415 . S
H2600 C2597 0.999 . S
H2601 C2582 0.913 . S
H2602 C2620 0.951 . S
H2603 C2622 0.951 . S
H2604 C2624 0.950 . S
H2605 C2625 0.950 . S
H2606 C2627 0.950 . S
H2607 C2630 0.950 . S
H2608 C2631 0.950 . S
H2609 C2633 0.950 . S
H2610 C2634 0.950 . S
H2611 C2635 0.951 . S
H2612 C2637 0.951 . S
H2613 C2639 0.950 . S
H2614 C2640 0.950 . S
H2615 C2642 0.950 . S
H2616 C2645 0.950 . S
H2617 C2646 0.950 . S
H2618 C2648 0.950 . S
H2619 C2649 0.950 . S
C2620 H2602 0.951 . S
C2620 C2621 1.366 . S
C2620 C2622 1.388 . S
C2621 C2620 1.366 . S
C2621 C2625 1.385 . S
C2622 H2603 0.951 . S
C2622 C2620 1.388 . S
C2622 C2623 1.366 . S
C2623 C2622 1.366 . S
C2623 C2624 1.414 . S
C2623 C2626 1.499 . S
C2624 H2604 0.950 . S
C2624 C2623 1.414 . S
C2624 C2625 1.374 . S
C2625 H2605 0.950 . S
C2625 C2621 1.385 . S
C2625 C2624 1.374 . S
C2626 C2623 1.499 . S
C2626 C2627 1.373 . S
C2626 C2628 1.389 . S
C2627 H2606 0.950 . S
C2627 C2626 1.373 . S
C2627 C2643 1.377 . S
C2628 C2626 1.389 . S
C2628 C2629 1.524 . S
C2628 C2642 1.377 . S
C2629 C2628 1.524 . S
C2629 C2630 1.397 . S
C2629 C2634 1.363 . S
C2630 H2607 0.950 . S
C2630 C2629 1.397 . S
C2630 C2631 1.334 . S
C2631 H2608 0.950 . S
C2631 C2630 1.334 . S
C2631 C2632 1.287 . S
C2632 C2631 1.287 . S
C2632 C2633 1.524 . S
C2632 H2651 0.913 . S
C2633 H2609 0.950 . S
C2633 C2632 1.524 . S
C2633 C2634 1.415 . S
C2634 H2610 0.950 . S
C2634 C2629 1.363 . S
C2634 C2633 1.415 . S
C2635 H2611 0.951 . S
C2635 C2636 1.366 . S
C2635 C2637 1.388 . S
C2636 C2635 1.366 . S
C2636 C2640 1.385 . S
C2637 H2612 0.951 . S
C2637 C2635 1.388 . S
C2637 C2638 1.366 . S
C2638 C2637 1.366 . S
C2638 C2639 1.414 . S
C2638 C2641 1.499 . S
C2639 H2613 0.950 . S
C2639 C2638 1.414 . S
C2639 C2640 1.374 . S
C2640 H2614 0.950 . S
C2640 C2636 1.385 . S
C2640 C2639 1.374 . S
C2641 C2638 1.499 . S
C2641 C2642 1.373 . S
C2641 C2643 1.389 . S
C2642 H2615 0.950 . S
C2642 C2628 1.377 . S
C2642 C2641 1.373 . S
C2643 C2627 1.377 . S
C2643 C2641 1.389 . S
C2643 C2644 1.524 . S
C2644 C2643 1.524 . S
C2644 C2645 1.397 . S
C2644 C2649 1.363 . S
C2645 H2616 0.950 . S
C2645 C2644 1.397 . S
C2645 C2646 1.334 . S
C2646 H2617 0.950 . S
C2646 C2645 1.334 . S
C2646 C2647 1.287 . S
C2647 C2646 1.287 . S
C2647 C2648 1.524 . S
C2647 H2650 0.999 . S
C2648 H2618 0.950 . S
C2648 C2647 1.524 . S
C2648 C2649 1.415 . S
C2649 H2619 0.950 . S
C2649 C2644 1.363 . S
C2649 C2648 1.415 . S
H2650 C2647 0.999 . S
H2651 C2632 0.913 . S
H2652 C2670 0.951 . S
H2653 C2672 0.951 . S
H2654 C2674 0.950 . S
H2655 C2675 0.950 . S
H2656 C2677 0.950 . S
H2657 C2680 0.950 . S
H2658 C2681 0.950 . S
H2659 C2683 0.950 . S
H2660 C2684 0.950 . S
H2661 C2685 0.951 . S
H2662 C2687 0.951 . S
H2663 C2689 0.950 . S
H2664 C2690 0.950 . S
H2665 C2692 0.950 . S
H2666 C2695 0.950 . S
H2667 C2696 0.950 . S
H2668 C2698 0.950 . S
H2669 C2699 0.950 . S
C2670 H2652 0.951 . S
C2670 C2671 1.366 . S
C2670 C2672 1.388 . S
C2671 C2670 1.366 . S
C2671 C2675 1.385 . S
C2672 H2653 0.951 . S
C2672 C2670 1.388 . S
C2672 C2673 1.366 . S
C2673 C2672 1.366 . S
C2673 C2674 1.414 . S
C2673 C2676 1.499 . S
C2674 H2654 0.950 . S
C2674 C2673 1.414 . S
C2674 C2675 1.374 . S
C2675 H2655 0.950 . S
C2675 C2671 1.385 . S
C2675 C2674 1.374 . S
C2676 C2673 1.499 . S
C2676 C2677 1.373 . S
C2676 C2678 1.389 . S
C2677 H2656 0.950 . S
C2677 C2676 1.373 . S
C2677 C2693 1.377 . S
C2678 C2676 1.389 . S
C2678 C2679 1.524 . S
C2678 C2692 1.377 . S
C2679 C2678 1.524 . S
C2679 C2680 1.397 . S
C2679 C2684 1.363 . S
C2680 H2657 0.950 . S
C2680 C2679 1.397 . S
C2680 C2681 1.334 . S
C2681 H2658 0.950 . S
C2681 C2680 1.334 . S
C2681 C2682 1.287 . S
C2682 C2681 1.287 . S
C2682 C2683 1.524 . S
C2682 H2701 0.913 . S
C2683 H2659 0.950 . S
C2683 C2682 1.524 . S
C2683 C2684 1.415 . S
C2684 H2660 0.950 . S
C2684 C2679 1.363 . S
C2684 C2683 1.415 . S
C2685 H2661 0.951 . S
C2685 C2686 1.366 . S
C2685 C2687 1.388 . S
C2686 C2685 1.366 . S
C2686 C2690 1.385 . S
C2687 H2662 0.951 . S
C2687 C2685 1.388 . S
C2687 C2688 1.366 . S
C2688 C2687 1.366 . S
C2688 C2689 1.414 . S
C2688 C2691 1.499 . S
C2689 H2663 0.950 . S
C2689 C2688 1.414 . S
C2689 C2690 1.374 . S
C2690 H2664 0.950 . S
C2690 C2686 1.385 . S
C2690 C2689 1.374 . S
C2691 C2688 1.499 . S
C2691 C2692 1.373 . S
C2691 C2693 1.389 . S
C2692 H2665 0.950 . S
C2692 C2678 1.377 . S
C2692 C2691 1.373 . S
C2693 C2677 1.377 . S
C2693 C2691 1.389 . S
C2693 C2694 1.524 . S
C2694 C2693 1.524 . S
C2694 C2695 1.397 . S
C2694 C2699 1.363 . S
C2695 H2666 0.950 . S
C2695 C2694 1.397 . S
C2695 C2696 1.334 . S
C2696 H2667 0.950 . S
C2696 C2695 1.334 . S
C2696 C2697 1.287 . S
C2697 C2696 1.287 . S
C2697 C2698 1.524 . S
C2697 H2700 0.999 . S
C2698 H2668 0.950 . S
C2698 C2697 1.524 . S
C2698 C2699 1.415 . S
C2699 H2669 0.950 . S
C2699 C2694 1.363 . S
C2699 C2698 1.415 . S
H2700 C2697 0.999 . S
H2701 C2682 0.913 . S
H2702 C2720 0.951 . S
H2703 C2722 0.951 . S
H2704 C2724 0.950 . S
H2705 C2725 0.950 . S
H2706 C2727 0.950 . S
H2707 C2730 0.950 . S
H2708 C2731 0.950 . S
H2709 C2733 0.950 . S
H2710 C2734 0.950 . S
H2711 C2735 0.951 . S
H2712 C2737 0.951 . S
H2713 C2739 0.950 . S
H2714 C2740 0.950 . S
H2715 C2742 0.950 . S
H2716 C2745 0.950 . S
H2717 C2746 0.950 . S
H2718 C2748 0.950 . S
H2719 C2749 0.950 . S
C2720 H2702 0.951 . S
C2720 C2721 1.366 . S
C2720 C2722 1.388 . S
C2721 C2720 1.366 . S
C2721 C2725 1.385 . S
C2722 H2703 0.951 . S
C2722 C2720 1.388 . S
C2722 C2723 1.366 . S
C2723 C2722 1.366 . S
C2723 C2724 1.414 . S
C2723 C2726 1.499 . S
C2724 H2704 0.950 . S
C2724 C2723 1.414 . S
C2724 C2725 1.374 . S
C2725 H2705 0.950 . S
C2725 C2721 1.385 . S
C2725 C2724 1.374 . S
C2726 C2723 1.499 . S
C2726 C2727 1.373 . S
C2726 C2728 1.389 . S
C2727 H2706 0.950 . S
C2727 C2726 1.373 . S
C2727 C2743 1.377 . S
C2728 C2726 1.389 . S
C2728 C2729 1.524 . S
C2728 C2742 1.377 . S
C2729 C2728 1.524 . S
C2729 C2730 1.397 . S
C2729 C2734 1.363 . S
C2730 H2707 0.950 . S
C2730 C2729 1.397 . S
C2730 C2731 1.334 . S
C2731 H2708 0.950 . S
C2731 C2730 1.334 . S
C2731 C2732 1.287 . S
C2732 C2731 1.287 . S
C2732 C2733 1.524 . S
C2732 H2751 0.913 . S
C2733 H2709 0.950 . S
C2733 C2732 1.524 . S
C2733 C2734 1.415 . S
C2734 H2710 0.950 . S
C2734 C2729 1.363 . S
C2734 C2733 1.415 . S
C2735 H2711 0.951 . S
C2735 C2736 1.366 . S
C2735 C2737 1.388 . S
C2736 C2735 1.366 . S
C2736 C2740 1.385 . S
C2737 H2712 0.951 . S
C2737 C2735 1.388 . S
C2737 C2738 1.366 . S
C2738 C2737 1.366 . S
C2738 C2739 1.414 . S
C2738 C2741 1.499 . S
C2739 H2713 0.950 . S
C2739 C2738 1.414 . S
C2739 C2740 1.374 . S
C2740 H2714 0.950 . S
C2740 C2736 1.385 . S
C2740 C2739 1.374 . S
C2741 C2738 1.499 . S
C2741 C2742 1.373 . S
C2741 C2743 1.389 . S
C2742 H2715 0.950 . S
C2742 C2728 1.377 . S
C2742 C2741 1.373 . S
C2743 C2727 1.377 . S
C2743 C2741 1.389 . S
C2743 C2744 1.524 . S
C2744 C2743 1.524 . S
C2744 C2745 1.397 . S
C2744 C2749 1.363 . S
C2745 H2716 0.950 . S
C2745 C2744 1.397 . S
C2745 C2746 1.334 . S
C2746 H2717 0.950 . S
C2746 C2745 1.334 . S
C2746 C2747 1.287 . S
C2747 C2746 1.287 . S
C2747 C2748 1.524 . S
C2747 H2750 0.999 . S
C2748 H2718 0.950 . S
C2748 C2747 1.524 . S
C2748 C2749 1.415 . S
C2749 H2719 0.950 . S
C2749 C2744 1.363 . S
C2749 C2748 1.415 . S
H2750 C2747 0.999 . S
H2751 C2732 0.913 . S
C371 C8 1.071 . S
C386 C118 1.072 . S
C421 C32 1.072 . S
C436 C140 1.071 . S
C471 C162 1.071 . S
C486 C62 1.072 . S
C521 C96 1.072 . S
C536 C74 1.071 . S
C571 C294 1.072 . S
C586 C186 1.071 . S
C621 C208 1.071 . S
C636 C316 1.072 . S
C671 C340 1.072 . S
C686 C230 1.071 . S
C721 C272 1.072 . S
C736 C252 1.071 . S
C771 C7 1.449 1_565 S
C786 C37 1.403 . S
C821 C51 1.402 . S
C836 C43 1.449 1_655 S
C871 C87 1.403 . S
C886 C59 1.449 1_545 S
C921 C73 1.449 1_455 S
C936 C21 1.402 . S
C971 C95 1.449 1_565 S
C986 C175 1.402 . S
C1021 C109 1.403 . S
C1036 C117 1.449 1_655 S
C1071 C131 1.403 . S
C1086 C139 1.449 1_545 S
C1121 C153 1.402 . S
C1136 C161 1.449 1_455 S
C1171 C197 1.449 . S
C1186 C213 1.402 . S
C1221 C235 1.402 . S
C1236 C219 1.449 . S
C1271 C241 1.449 . S
C1286 C257 1.403 . S
C1321 C263 1.449 . S
C1336 C191 1.403 . S
C1371 C345 1.402 . S
C1386 C271 1.449 . S
C1421 C285 1.403 . S
C1436 C293 1.449 . S
C1471 C307 1.402 . S
C1486 C315 1.449 . S
C1521 C351 1.449 . S
C1536 C329 1.402 . S
C1571 C150 1.198 . S
C1586 C15 1.204 . S
C1621 C172 1.198 . S
C1636 C29 1.204 . S
C1671 C65 1.204 . S
C1686 C106 1.199 . S
C1721 C81 1.203 . S
C1736 C128 1.198 . S
C1771 C54 1.198 . S
C1786 C103 1.204 . S
C1821 C125 1.203 . S
C1836 C84 1.198 . S
C1871 C147 1.204 . S
C1886 C18 1.198 . S
C1921 C30 1.199 . S
C1936 C169 1.204 . S
C1971 C183 1.204 . S
C1986 C326 1.199 . S
C2021 C205 1.204 . S
C2036 C338 1.198 . S
C2071 C282 1.198 . S
C2086 C227 1.203 . S
C2121 C249 1.203 . S
C2136 C304 1.198 . S
C2171 C279 1.204 . S
C2186 C228 1.199 . S
C2221 C301 1.203 . S
C2236 C250 1.198 . S
C2271 C323 1.204 . S
C2286 C184 1.198 . S
C2321 C206 1.198 . S
C2336 C337 1.204 . S
C2371 C348 1.288 . S
C2386 C10 1.289 . S
C2421 C274 1.290 . S
C2436 C40 1.289 . S
C2471 C52 1.289 . S
C2486 C296 1.288 . S
C2521 C318 1.289 . S
C2536 C76 1.290 . S
C2571 C98 1.289 . S
C2586 C216 1.290 . S
C2621 C120 1.290 . S
C2636 C238 1.289 . S
C2671 C260 1.290 . S
C2686 C142 1.289 . S
C2721 C164 1.289 . S
C2736 C194 1.290 . S
