# Generated by pormake.
# Topology crs, (6)-cn, num edge types: 1
# Building blocks:
#     Node 0, Type 0, BuildingBlock: BETFAJ_clean_sbu_0, # of connection points: 6
#     Node 1, Type 0, BuildingBlock: BETFAJ_clean_sbu_0, # of connection points: 6
#     Node 2, Type 0, BuildingBlock: BETFAJ_clean_sbu_0, # of connection points: 6
#     Node 3, Type 0, BuildingBlock: BETFAJ_clean_sbu_0, # of connection points: 6
#     Node 4, Type 0, BuildingBlock: BETFAJ_clean_sbu_0, # of connection points: 6
#     Node 5, Type 0, BuildingBlock: BETFAJ_clean_sbu_0, # of connection points: 6
#     Node 6, Type 0, BuildingBlock: BETFAJ_clean_sbu_0, # of connection points: 6
#     Node 7, Type 0, BuildingBlock: BETFAJ_clean_sbu_0, # of connection points: 6
#     Node 8, Type 0, BuildingBlock: BETFAJ_clean_sbu_0, # of connection points: 6
#     Node 9, Type 0, BuildingBlock: BETFAJ_clean_sbu_0, # of connection points: 6
#     Node 10, Type 0, BuildingBlock: BETFAJ_clean_sbu_0, # of connection points: 6
#     Node 11, Type 0, BuildingBlock: BETFAJ_clean_sbu_0, # of connection points: 6
#     Node 12, Type 0, BuildingBlock: BETFAJ_clean_sbu_0, # of connection points: 6
#     Node 13, Type 0, BuildingBlock: BETFAJ_clean_sbu_0, # of connection points: 6
#     Node 14, Type 0, BuildingBlock: BETFAJ_clean_sbu_0, # of connection points: 6
#     Node 15, Type 0, BuildingBlock: BETFAJ_clean_sbu_0, # of connection points: 6
#     Edge 16, Type (0, 0), BuildingBlock: XIVTED_clean_linker_0, # of connection points: 2
#     Edge 17, Type (0, 0), BuildingBlock: XIVTED_clean_linker_0, # of connection points: 2
#     Edge 18, Type (0, 0), BuildingBlock: XIVTED_clean_linker_0, # of connection points: 2
#     Edge 19, Type (0, 0), BuildingBlock: XIVTED_clean_linker_0, # of connection points: 2
#     Edge 20, Type (0, 0), BuildingBlock: XIVTED_clean_linker_0, # of connection points: 2
#     Edge 21, Type (0, 0), BuildingBlock: XIVTED_clean_linker_0, # of connection points: 2
#     Edge 22, Type (0, 0), BuildingBlock: XIVTED_clean_linker_0, # of connection points: 2
#     Edge 23, Type (0, 0), BuildingBlock: XIVTED_clean_linker_0, # of connection points: 2
#     Edge 24, Type (0, 0), BuildingBlock: XIVTED_clean_linker_0, # of connection points: 2
#     Edge 25, Type (0, 0), BuildingBlock: XIVTED_clean_linker_0, # of connection points: 2
#     Edge 26, Type (0, 0), BuildingBlock: XIVTED_clean_linker_0, # of connection points: 2
#     Edge 27, Type (0, 0), BuildingBlock: XIVTED_clean_linker_0, # of connection points: 2
#     Edge 28, Type (0, 0), BuildingBlock: XIVTED_clean_linker_0, # of connection points: 2
#     Edge 29, Type (0, 0), BuildingBlock: XIVTED_clean_linker_0, # of connection points: 2
#     Edge 30, Type (0, 0), BuildingBlock: XIVTED_clean_linker_0, # of connection points: 2
#     Edge 31, Type (0, 0), BuildingBlock: XIVTED_clean_linker_0, # of connection points: 2
#     Edge 32, Type (0, 0), BuildingBlock: XIVTED_clean_linker_0, # of connection points: 2
#     Edge 33, Type (0, 0), BuildingBlock: XIVTED_clean_linker_0, # of connection points: 2
#     Edge 34, Type (0, 0), BuildingBlock: XIVTED_clean_linker_0, # of connection points: 2
#     Edge 35, Type (0, 0), BuildingBlock: XIVTED_clean_linker_0, # of connection points: 2
#     Edge 36, Type (0, 0), BuildingBlock: XIVTED_clean_linker_0, # of connection points: 2
#     Edge 37, Type (0, 0), BuildingBlock: XIVTED_clean_linker_0, # of connection points: 2
#     Edge 38, Type (0, 0), BuildingBlock: XIVTED_clean_linker_0, # of connection points: 2
#     Edge 39, Type (0, 0), BuildingBlock: XIVTED_clean_linker_0, # of connection points: 2
#     Edge 40, Type (0, 0), BuildingBlock: XIVTED_clean_linker_0, # of connection points: 2
#     Edge 41, Type (0, 0), BuildingBlock: XIVTED_clean_linker_0, # of connection points: 2
#     Edge 42, Type (0, 0), BuildingBlock: XIVTED_clean_linker_0, # of connection points: 2
#     Edge 43, Type (0, 0), BuildingBlock: XIVTED_clean_linker_0, # of connection points: 2
#     Edge 44, Type (0, 0), BuildingBlock: XIVTED_clean_linker_0, # of connection points: 2
#     Edge 45, Type (0, 0), BuildingBlock: XIVTED_clean_linker_0, # of connection points: 2
#     Edge 46, Type (0, 0), BuildingBlock: XIVTED_clean_linker_0, # of connection points: 2
#     Edge 47, Type (0, 0), BuildingBlock: XIVTED_clean_linker_0, # of connection points: 2
#     Edge 48, Type (0, 0), BuildingBlock: XIVTED_clean_linker_0, # of connection points: 2
#     Edge 49, Type (0, 0), BuildingBlock: XIVTED_clean_linker_0, # of connection points: 2
#     Edge 50, Type (0, 0), BuildingBlock: XIVTED_clean_linker_0, # of connection points: 2
#     Edge 51, Type (0, 0), BuildingBlock: XIVTED_clean_linker_0, # of connection points: 2
#     Edge 52, Type (0, 0), BuildingBlock: XIVTED_clean_linker_0, # of connection points: 2
#     Edge 53, Type (0, 0), BuildingBlock: XIVTED_clean_linker_0, # of connection points: 2
#     Edge 54, Type (0, 0), BuildingBlock: XIVTED_clean_linker_0, # of connection points: 2
#     Edge 55, Type (0, 0), BuildingBlock: XIVTED_clean_linker_0, # of connection points: 2
#     Edge 56, Type (0, 0), BuildingBlock: XIVTED_clean_linker_0, # of connection points: 2
#     Edge 57, Type (0, 0), BuildingBlock: XIVTED_clean_linker_0, # of connection points: 2
#     Edge 58, Type (0, 0), BuildingBlock: XIVTED_clean_linker_0, # of connection points: 2
#     Edge 59, Type (0, 0), BuildingBlock: XIVTED_clean_linker_0, # of connection points: 2
#     Edge 60, Type (0, 0), BuildingBlock: XIVTED_clean_linker_0, # of connection points: 2
#     Edge 61, Type (0, 0), BuildingBlock: XIVTED_clean_linker_0, # of connection points: 2
#     Edge 62, Type (0, 0), BuildingBlock: XIVTED_clean_linker_0, # of connection points: 2
#     Edge 63, Type (0, 0), BuildingBlock: XIVTED_clean_linker_0, # of connection points: 2
# Relax obj value: 0.481
# Max RMSD: 0.365
# Mean RMSD: 0.303
data_MOF--net-crs--node1-BETFAJ_clean_sbu_0--edge1-XIVTED_clean_linker_0
_symmetry_space_group_name_H-M    P1
_symmetry_Int_Tables_number       1
_symmetry_cell_setting            triclinic
loop_
_symmetry_equiv_pos_as_xyz
'x, y, z'
_cell_length_a     55.045874
_cell_length_b     56.206689
_cell_length_c     45.447784
_cell_angle_alpha  73.056937
_cell_angle_beta   75.793638
_cell_angle_gamma 63.113219
loop_
_atom_site_label
_atom_site_type_symbol
_atom_site_fract_x
_atom_site_fract_y
_atom_site_fract_z
_atom_type_partial_charge
Sm0 Sm 0.96395 0.98845 0.05562 0.0
Sm1 Sm -0.00193 0.00717 0.99978 0.0
C2 C 0.93191 0.9681 0.09797 0.0
C3 C 0.92531 0.94456 0.10352 0.0
C4 C 0.92499 0.93471 0.07866 0.0
C5 C 0.91952 0.91174 0.08433 0.0
C6 C 0.91447 0.89812 0.11494 0.0
C7 C 0.91536 0.90781 0.13974 0.0
C8 C 0.92073 0.93087 0.13403 0.0
C9 C 0.01387 0.98009 0.06739 0.0
C10 C -0.00128 0.94919 1.00462 0.0
C11 C 0.03012 0.02821 0.95857 0.0
C12 C 0.03805 0.05053 0.95558 0.0
C13 C 0.04228 0.05598 0.9817 0.0
C14 C 0.04911 0.07775 0.97853 0.0
C15 C 0.05155 0.09464 0.94924 0.0
C16 C 0.04666 0.08941 0.92329 0.0
C17 C 0.04004 0.06749 0.92646 0.0
C18 C 0.94815 0.01527 0.98834 0.0
C19 C 0.96274 0.04667 0.05011 0.0
O20 O 0.92301 0.98763 0.07399 0.0
O21 O 0.95711 0.96217 0.10092 0.0
O22 O 0.01024 0.97563 0.04347 0.0
O23 O -0.00879 0.98853 0.08596 0.0
O24 O 0.97708 0.95648 0.02589 0.0
O25 O 0.01349 0.96367 0.99336 0.0
O26 O 0.03939 0.00674 0.98065 0.0
O27 O 0.00437 0.03571 0.95629 0.0
O28 O 0.95193 0.01988 1.01203 0.0
O29 O 0.97054 0.00759 0.96916 0.0
O30 O -0.01501 0.03884 0.02978 0.0
O31 O 0.94778 0.03238 0.06092 0.0
H32 H 0.9288 0.94485 0.0549 0.0
H33 H 0.91853 0.90511 0.0647 0.0
H34 H 0.91185 0.8976 0.16355 0.0
H35 H 0.92136 0.938 0.15344 0.0
H36 H 0.04042 0.04336 1.00452 0.0
H37 H 0.0531 0.08092 0.99894 0.0
H38 H 0.04794 0.10225 0.90051 0.0
H39 H 0.03636 0.06383 0.90616 0.0
Sm40 Sm -0.01178 0.27593 0.2867 0.0
Sm41 Sm 0.97787 0.23762 0.25237 0.0
C42 C -0.01561 0.31721 0.30698 0.0
C43 C -0.00603 0.32298 0.33057 0.0
C44 C 0.00311 0.34393 0.32197 0.0
C45 C 0.01073 0.3511 0.34411 0.0
C46 C 0.00925 0.33751 0.3754 0.0
C47 C 0.00066 0.31607 0.38388 0.0
C48 C -0.00682 0.30879 0.36162 0.0
C49 C 0.02732 0.22191 0.29744 0.0
C50 C 0.94743 0.24468 0.32336 0.0
C51 C 0.98231 0.19612 0.23209 0.0
C52 C 0.97055 0.18903 0.21185 0.0
C53 C 0.96523 0.1656 0.22253 0.0
C54 C 0.95692 0.15657 0.2028 0.0
C55 C 0.95391 0.17078 0.17191 0.0
C56 C 0.95821 0.19489 0.16159 0.0
C57 C 0.96639 0.204 0.18143 0.0
C58 C 0.93903 0.29178 0.2412 0.0
C59 C 0.01921 0.26787 0.21641 0.0
O60 O 0.96659 0.30616 0.31677 0.0
O61 O 0.00281 0.30754 0.28413 0.0
O62 O 0.00721 0.23229 0.28251 0.0
O63 O 0.02647 0.24082 0.30925 0.0
O64 O 0.95432 0.26503 0.32078 0.0
O65 O 0.95711 0.22908 0.30257 0.0
O66 O -0.00335 0.21064 0.21862 0.0
O67 O 0.96712 0.20271 0.25803 0.0
O68 O 0.95904 0.2813 0.2563 0.0
O69 O 0.93957 0.27278 0.22981 0.0
O70 O 0.01336 0.24667 0.22033 0.0
O71 O 0.00829 0.28468 0.23599 0.0
H72 H 0.0038 0.35516 0.29815 0.0
H73 H 0.01685 0.36797 0.33689 0.0
H74 H -0.00046 0.30508 0.40774 0.0
H75 H -0.01363 0.29239 0.36879 0.0
H76 H 0.96841 0.15373 0.24588 0.0
H77 H 0.95414 0.13773 0.21134 0.0
H78 H 0.95578 0.20639 0.138 0.0
H79 H 0.97019 0.22229 0.17272 0.0
Sm80 Sm 0.72338 0.24758 0.49316 0.0
Sm81 Sm 0.7357 0.27475 0.53441 0.0
C82 C 0.70484 0.2212 0.4718 0.0
C83 C 0.68208 0.2127 0.48486 0.0
C84 C 0.68697 0.18523 0.48975 0.0
C85 C 0.66568 0.17687 0.50305 0.0
C86 C 0.63913 0.19591 0.51154 0.0
C87 C 0.63437 0.22332 0.50715 0.0
C88 C 0.65568 0.23164 0.49406 0.0
C89 C 0.72177 0.29866 0.46465 0.0
C90 C 0.67599 0.27326 0.55008 0.0
C91 C 0.74545 0.30837 0.55502 0.0
C92 C 0.76913 0.30673 0.56596 0.0
C93 C 0.79587 0.28925 0.55573 0.0
C94 C 0.81849 0.29036 0.56295 0.0
C95 C 0.81459 0.30872 0.5808 0.0
C96 C 0.78776 0.32477 0.5928 0.0
C97 C 0.76516 0.32384 0.5853 0.0
C98 C 0.74912 0.22003 0.56336 0.0
C99 C 0.78511 0.24363 0.48229 0.0
O100 O 0.72622 0.20859 0.48693 0.0
O101 O 0.69784 0.24751 0.46261 0.0
O102 O 0.71209 0.29223 0.49284 0.0
O103 O 0.73153 0.27825 0.45104 0.0
O104 O 0.68565 0.2561 0.53118 0.0
O105 O 0.68988 0.28648 0.5522 0.0
O106 O 0.74864 0.30834 0.52551 0.0
O107 O 0.73322 0.29298 0.57294 0.0
O108 O 0.73994 0.23229 0.53786 0.0
O109 O 0.75306 0.23684 0.57403 0.0
O110 O 0.77546 0.26199 0.49976 0.0
O111 O 0.77018 0.23168 0.47931 0.0
H112 H 0.70721 0.17029 0.48311 0.0
H113 H 0.66976 0.15566 0.50566 0.0
H114 H 0.6141 0.23834 0.51357 0.0
H115 H 0.65139 0.25294 0.49114 0.0
H116 H 0.79925 0.2756 0.54109 0.0
H117 H 0.83897 0.27773 0.55354 0.0
H118 H 0.78418 0.33936 0.60628 0.0
H119 H 0.74461 0.33731 0.5935 0.0
Sm120 Sm 0.71351 0.00759 0.74597 0.0
Sm121 Sm 0.75368 0.0102 0.78169 0.0
C122 C 0.67403 0.01749 0.71478 0.0
C123 C 0.66976 0.0181 0.68367 0.0
C124 C 0.66032 0.04293 0.6621 0.0
C125 C 0.65195 0.04425 0.6348 0.0
C126 C 0.65261 0.02081 0.62872 0.0
C127 C 0.66388 0.99567 0.64929 0.0
C128 C 0.67229 0.99434 0.67648 0.0
C129 C 0.76464 0.96455 0.74456 0.0
C130 C 0.74642 0.04762 0.71094 0.0
C131 C 0.79636 0.99996 0.80747 0.0
C132 C 0.8013 1.00497 0.83497 0.0
C133 C 0.82158 0.98417 0.85249 0.0
C134 C 0.82808 0.98909 0.87731 0.0
C135 C 0.81449 0.01499 0.88487 0.0
C136 C 0.79337 0.03549 0.86807 0.0
C137 C 0.78671 0.03048 0.8434 0.0
C138 C 0.70039 0.04854 0.79634 0.0
C139 C 0.71903 0.97291 0.81653 0.0
O140 O 0.68002 0.03664 0.71766 0.0
O141 O 0.68727 0.99367 0.73171 0.0
O142 O 0.76059 0.98903 0.74272 0.0
O143 O 0.74195 0.96333 0.74353 0.0
O144 O 0.72815 0.03883 0.70963 0.0
O145 O 0.76024 0.0382 0.7349 0.0
O146 O 0.78555 0.98238 0.81256 0.0
O147 O 0.78634 0.02131 0.7855 0.0
O148 O 0.70846 0.03185 0.77913 0.0
O149 O 0.72152 0.04484 0.80781 0.0
O150 O 0.74245 0.97524 0.8131 0.0
O151 O 0.70121 0.98783 0.79633 0.0
H152 H 0.65816 0.0616 0.66697 0.0
H153 H 0.64364 0.06387 0.61925 0.0
H154 H 0.66432 0.97727 0.64566 0.0
H155 H 0.67939 0.97489 0.69263 0.0
H156 H 0.83295 0.96434 0.8464 0.0
H157 H 0.84471 0.97301 0.88957 0.0
H158 H 0.78249 0.05557 0.87355 0.0
H159 H 0.77066 0.04675 0.83045 0.0
Sm160 Sm 0.48939 0.77435 0.28473 0.0
Sm161 Sm 0.47821 0.73567 0.25174 0.0
C162 C 0.48595 0.81622 0.30339 0.0
C163 C 0.49609 0.82241 0.32604 0.0
C164 C 0.50254 0.84513 0.31733 0.0
C165 C 0.51049 0.85264 0.33886 0.0
C166 C 0.51207 0.83758 0.36958 0.0
C167 C 0.5063 0.81433 0.37805 0.0
C168 C 0.49846 0.80673 0.35639 0.0
C169 C 0.52779 0.7202 0.29659 0.0
C170 C 0.44901 0.74328 0.32298 0.0
C171 C 0.48085 0.69433 0.23267 0.0
C172 C 0.4725 0.68854 0.2081 0.0
C173 C 0.4619 0.66873 0.216 0.0
C174 C 0.45552 0.66139 0.193 0.0
C175 C 0.45974 0.6737 0.16159 0.0
C176 C 0.46967 0.69414 0.15378 0.0
C177 C 0.47591 0.70158 0.17687 0.0
C178 C 0.43979 0.79002 0.24028 0.0
C179 C 0.51935 0.76592 0.21351 0.0
O180 O 0.46839 0.80495 0.31433 0.0
O181 O 0.50396 0.80634 0.2804 0.0
O182 O 0.50762 0.73051 0.28175 0.0
O183 O 0.5274 0.7393 0.30768 0.0
O184 O 0.45519 0.7643 0.31919 0.0
O185 O 0.45924 0.72692 0.30293 0.0
O186 O 0.50026 0.70333 0.22446 0.0
O187 O 0.46121 0.7061 0.25347 0.0
O188 O 0.46004 0.77942 0.25497 0.0
O189 O 0.44008 0.77109 0.229 0.0
O190 O 0.51206 0.74573 0.21674 0.0
O191 O 0.50992 0.78192 0.2339 0.0
H192 H 0.50079 0.85747 0.29401 0.0
H193 H 0.51439 0.87088 0.33171 0.0
H194 H 0.50756 0.80221 0.40147 0.0
H195 H 0.49379 0.78894 0.36352 0.0
H196 H 0.45916 0.65842 0.23996 0.0
H197 H 0.4483 0.64531 0.19975 0.0
H198 H 0.4729 0.70414 0.12981 0.0
H199 H 0.48385 0.71713 0.17025 0.0
Sm200 Sm 0.23026 0.73855 0.49828 0.0
Sm201 Sm 0.23733 0.76597 0.53687 0.0
C202 C 0.21563 0.71055 0.47388 0.0
C203 C 0.19179 0.70375 0.48153 0.0
C204 C 0.18031 0.69779 0.51252 0.0
C205 C 0.15603 0.69396 0.51929 0.0
C206 C 0.14278 0.69637 0.49515 0.0
C207 C 0.15435 0.70239 0.46419 0.0
C208 C 0.17868 0.70603 0.45747 0.0
C209 C 0.22737 0.78961 0.4662 0.0
C210 C 0.17754 0.76751 0.54822 0.0
C211 C 0.2495 0.79454 0.5636 0.0
C212 C 0.27215 0.8023 0.56029 0.0
C213 C 0.29121 0.80078 0.53326 0.0
C214 C 0.31397 0.80622 0.5314 0.0
C215 C 0.31781 0.81339 0.55655 0.0
C216 C 0.29831 0.81523 0.5834 0.0
C217 C 0.27574 0.80958 0.58527 0.0
C218 C 0.24006 0.7148 0.56867 0.0
C219 C 0.28994 0.73737 0.48611 0.0
O220 O 0.23325 0.69896 0.49391 0.0
O221 O 0.20988 0.73645 0.46334 0.0
O222 O 0.21592 0.78467 0.49383 0.0
O223 O 0.24027 0.76763 0.45517 0.0
O224 O 0.18987 0.74775 0.53264 0.0
O225 O 0.19059 0.78165 0.54978 0.0
O226 O 0.23451 0.80559 0.54096 0.0
O227 O 0.25552 0.76856 0.57357 0.0
O228 O 0.25172 0.71988 0.54122 0.0
O229 O 0.2269 0.73677 0.57968 0.0
O230 O 0.27802 0.75647 0.5027 0.0
O231 O 0.27673 0.72353 0.48404 0.0
H232 H 0.18989 0.69645 0.53147 0.0
H233 H 0.14751 0.68931 0.54331 0.0
H234 H 0.14487 0.70378 0.44514 0.0
H235 H 0.18711 0.71096 0.43345 0.0
H236 H 0.28859 0.79521 0.51376 0.0
H237 H 0.32863 0.80455 0.51046 0.0
H238 H 0.30024 0.82139 0.60288 0.0
H239 H 0.26117 0.81076 0.60631 0.0
Sm240 Sm 0.21414 0.50164 0.75271 0.0
Sm241 Sm 0.25238 0.50399 0.79145 0.0
C242 C 0.17222 0.5131 0.72485 0.0
C243 C 0.16635 0.51355 0.69462 0.0
C244 C 0.15855 0.53786 0.67198 0.0
C245 C 0.14966 0.53916 0.64506 0.0
C246 C 0.14821 0.51623 0.64036 0.0
C247 C 0.15736 0.49157 0.66227 0.0
C248 C 0.16625 0.49027 0.68913 0.0
C249 C 0.26747 0.46235 0.74102 0.0
C250 C 0.24794 0.54145 0.72138 0.0
C251 C 0.28719 0.4942 0.82877 0.0
C252 C 0.29737 0.50741 0.84325 0.0
C253 C 0.30416 0.4952 0.87338 0.0
C254 C 0.31504 0.50634 0.88764 0.0
C255 C 0.3194 0.52991 0.87192 0.0
C256 C 0.31175 0.54265 0.842 0.0
C257 C 0.30067 0.53151 0.82776 0.0
C258 C 0.2013 0.547 0.79038 0.0
C259 C 0.22261 0.46079 0.82002 0.0
O260 O 0.18007 0.53163 0.72589 0.0
O261 O 0.18498 0.48917 0.74211 0.0
O262 O 0.25892 0.47916 0.75822 0.0
O263 O 0.24706 0.46664 0.72776 0.0
O264 O 0.22745 0.53537 0.72089 0.0
O265 O 0.26321 0.52967 0.7444 0.0
O266 O 0.26179 0.49705 0.83859 0.0
O267 O 0.29424 0.4952 0.7988 0.0
O268 O 0.20575 0.52238 0.79245 0.0
O269 O 0.22374 0.54869 0.79157 0.0
O270 O 0.24402 0.466 0.81869 0.0
O271 O 0.20511 0.47489 0.79949 0.0
H272 H 0.15835 0.55619 0.67556 0.0
H273 H 0.14291 0.5584 0.6285 0.0
H274 H 0.15604 0.47364 0.65971 0.0
H275 H 0.17193 0.47127 0.70618 0.0
H276 H 0.30161 0.47663 0.88566 0.0
H277 H 0.32121 0.49575 0.91043 0.0
H278 H 0.31481 0.56088 0.82943 0.0
H279 H 0.29519 0.54138 0.80457 0.0
Sm280 Sm 0.96674 0.50072 0.54174 0.0
Sm281 Sm 0.0113 0.50987 0.48862 0.0
C282 C 0.92697 0.48726 0.57616 0.0
C283 C 0.91809 0.46655 0.57555 0.0
C284 C 0.92601 0.45538 0.5491 0.0
C285 C 0.92052 0.43342 0.5495 0.0
C286 C 0.90646 0.42256 0.5762 0.0
C287 C 0.89783 0.43446 0.60238 0.0
C288 C 0.90383 0.45616 0.60211 0.0
C289 C 0.01223 0.49656 0.56055 0.0
C290 C 0.00979 0.45189 0.50255 0.0
C291 C 0.04899 0.52636 0.45513 0.0
C292 C 0.05371 0.5493 0.45829 0.0
C293 C 0.07208 0.54467 0.4781 0.0
C294 C 0.07243 0.56649 0.48641 0.0
C295 C 0.05449 0.59342 0.47498 0.0
C296 C 0.037 0.59812 0.4541 0.0
C297 C 0.03669 0.57632 0.44572 0.0
C298 C 0.96534 0.51458 0.47031 0.0
C299 C 0.96952 0.55848 0.52807 0.0
O300 O 0.92286 0.50761 0.55206 0.0
O301 O 0.9514 0.47749 0.58449 0.0
O302 O 0.01234 0.4875 0.53817 0.0
O303 O -0.01233 0.50614 0.57559 0.0
O304 O -0.01434 0.46293 0.51919 0.0
O305 O 0.02641 0.46445 0.49154 0.0
O306 O 0.05455 0.5052 0.47837 0.0
O307 O 0.02585 0.53302 0.44521 0.0
O308 O 0.96565 0.52358 0.49249 0.0
O309 O -0.01018 0.50437 0.45529 0.0
O310 O -0.00662 0.5473 0.51121 0.0
O311 O 0.95266 0.54615 0.53921 0.0
H312 H 0.93698 0.46326 0.52831 0.0
H313 H 0.9278 0.42469 0.52903 0.0
H314 H 0.88635 0.42712 0.62308 0.0
H315 H 0.89764 0.46458 0.62273 0.0
H316 H 0.08549 0.52412 0.48813 0.0
H317 H 0.08674 0.56222 0.50186 0.0
H318 H 0.02294 0.61862 0.44489 0.0
H319 H 0.02223 0.58066 0.43044 0.0
Sm320 Sm 0.22837 0.23825 1.00199 0.0
Sm321 Sm 0.24168 0.27053 0.0422 0.0
C322 C 0.22116 0.20195 0.98329 0.0
C323 C 0.1981 0.2006 0.97426 0.0
C324 C 0.17112 0.21319 0.98859 0.0
C325 C 0.14959 0.21032 0.9811 0.0
C326 C 0.1547 0.1951 0.95891 0.0
C327 C 0.18158 0.18345 0.94377 0.0
C328 C 0.20312 0.18613 0.95147 0.0
C329 C 0.21371 0.29325 0.97397 0.0
C330 C 0.18059 0.2687 0.05546 0.0
C331 C 0.24953 0.30687 0.05986 0.0
C332 C 0.27319 0.30778 0.06826 0.0
C333 C 0.28238 0.32783 0.05054 0.0
C334 C 0.30587 0.32816 0.05641 0.0
C335 C 0.32045 0.30859 0.08037 0.0
C336 C 0.3111 0.28869 0.09847 0.0
C337 C 0.28773 0.28812 0.09229 0.0
C338 C 0.25615 0.2156 0.0705 0.0
C339 C 0.28942 0.24046 0.9885 0.0
O340 O 0.21914 0.20206 1.01257 0.0
O341 O 0.2309 0.21908 0.96427 0.0
O342 O 0.22335 0.28043 0.9992 0.0
O343 O 0.20943 0.27661 0.96327 0.0
O344 O 0.18936 0.2508 0.03745 0.0
O345 O 0.19534 0.28123 0.05772 0.0
O346 O 0.25149 0.30647 0.03071 0.0
O347 O 0.23893 0.2905 0.07916 0.0
O348 O 0.24662 0.2283 0.04515 0.0
O349 O 0.26029 0.23235 0.08118 0.0
O350 O 0.28069 0.258 1.00692 0.0
O351 O 0.27468 0.22804 0.98591 0.0
H352 H 0.16677 0.22478 1.00599 0.0
H353 H 0.12904 0.21967 0.99293 0.0
H354 H 0.18618 0.17131 0.92688 0.0
H355 H 0.2238 0.17641 0.94011 0.0
H356 H 0.27151 0.34313 0.03188 0.0
H357 H 0.31234 0.34408 0.04256 0.0
H358 H 0.32198 0.27351 0.11716 0.0
H359 H 0.28122 0.27223 0.10614 0.0
Sm360 Sm 0.21424 1.00502 0.24716 0.0
Sm361 Sm 0.25259 0.00612 0.29093 0.0
C362 C 0.17387 0.01702 0.21655 0.0
C363 C 0.16662 1.00501 0.19728 0.0
C364 C 0.15143 0.02233 0.17298 0.0
C365 C 0.14439 0.01163 0.15393 0.0
C366 C 0.1524 0.98336 0.15892 0.0
C367 C 0.16814 0.96594 0.18298 0.0
C368 C 0.17536 0.9767 0.20196 0.0
C369 C 0.26748 0.96455 0.23993 0.0
C370 C 0.24489 0.04815 0.22308 0.0
C371 C 0.29308 0.99427 0.32119 0.0
C372 C 0.30154 0.00659 0.3389 0.0
C373 C 0.31328 0.99046 0.36592 0.0
C374 C 0.32244 1.00111 0.38287 0.0
C375 C 0.32011 0.0281 0.37299 0.0
C376 C 0.30749 0.04456 0.34639 0.0
C377 C 0.29813 0.03389 0.3295 0.0
C378 C 0.19937 0.04694 0.29743 0.0
C379 C 0.22196 0.96307 0.31541 0.0
O380 O 0.19466 0.02369 0.20427 0.0
O381 O 0.17363 0.00607 0.24634 0.0
O382 O 0.25796 0.98194 0.25671 0.0
O383 O 0.24807 0.96894 0.22492 0.0
O384 O 0.22459 0.04214 0.22157 0.0
O385 O 0.26083 0.03498 0.24544 0.0
O386 O 0.27154 0.98903 0.33424 0.0
O387 O 0.29389 1.00365 0.29106 0.0
O388 O 0.20902 0.02919 0.28115 0.0
O389 O 0.21877 0.04293 0.31225 0.0
O390 O 0.24176 0.96957 0.31737 0.0
O391 O 0.20654 0.97553 0.29251 0.0
H392 H 0.14476 0.04422 0.16893 0.0
H393 H 0.13181 0.02563 0.13599 0.0
H394 H 0.17464 0.94408 0.18726 0.0
H395 H 0.18753 0.96299 0.22035 0.0
H396 H 0.31589 0.96939 0.37357 0.0
H397 H 0.33251 0.98778 0.40293 0.0
H398 H 0.30535 0.06546 0.33835 0.0
H399 H 0.28871 0.04679 0.3089 0.0
Sm400 Sm 0.48799 0.27529 0.78663 0.0
Sm401 Sm 0.47926 0.23461 0.75415 0.0
C402 C 0.4821 0.31737 0.80682 0.0
C403 C 0.48805 0.32301 0.83332 0.0
C404 C 0.46682 0.34204 0.84958 0.0
C405 C 0.47188 0.34843 0.87428 0.0
C406 C 0.49837 0.336 0.8831 0.0
C407 C 0.51959 0.31664 0.86704 0.0
C408 C 0.51445 0.31008 0.84242 0.0
C409 C 0.52726 0.22161 0.79964 0.0
C410 C 0.44927 0.24236 0.82535 0.0
C411 C 0.48436 0.19204 0.73559 0.0
C412 C 0.47608 0.1856 0.71153 0.0
C413 C 0.46837 0.16372 0.71948 0.0
C414 C 0.46165 0.15625 0.69689 0.0
C415 C 0.46261 0.1705 0.66585 0.0
C416 C 0.46976 0.19285 0.65805 0.0
C417 C 0.47634 0.20043 0.68076 0.0
C418 C 0.43999 0.2883 0.74101 0.0
C419 C 0.51846 0.26708 0.71583 0.0
O420 O 0.46292 0.30827 0.81279 0.0
O421 O 0.50305 0.30565 0.78703 0.0
O422 O 0.50732 0.23121 0.78462 0.0
O423 O 0.52618 0.24128 0.81022 0.0
O424 O 0.45545 0.2633 0.822 0.0
O425 O 0.45921 0.22638 0.80493 0.0
O426 O 0.50256 0.20261 0.72654 0.0
O427 O 0.46477 0.20293 0.75695 0.0
O428 O 0.45979 0.27869 0.75626 0.0
O429 O 0.44119 0.26863 0.73034 0.0
O430 O 0.51273 0.24577 0.71965 0.0
O431 O 0.5079 0.28361 0.73575 0.0
H432 H 0.44633 0.35227 0.8429 0.0
H433 H 0.45521 0.36375 0.88587 0.0
H434 H 0.54015 0.30664 0.87346 0.0
H435 H 0.53117 0.29512 0.8304 0.0
H436 H 0.46805 0.15206 0.74312 0.0
H437 H 0.45662 0.13869 0.70355 0.0
H438 H 0.47045 0.20434 0.63438 0.0
H439 H 0.48198 0.21759 0.67419 0.0
Sm440 Sm -0.01227 0.77461 0.77653 0.0
Sm441 Sm 0.97786 0.73638 0.75361 0.0
C442 C -0.01427 0.81429 0.79878 0.0
C443 C -0.00762 0.82024 0.82447 0.0
C444 C 0.00231 0.84046 0.81762 0.0
C445 C 0.00779 0.84771 0.84131 0.0
C446 C 0.00345 0.83485 0.87246 0.0
C447 C -0.00608 0.81417 0.87928 0.0
C448 C -0.01152 0.80686 0.85542 0.0
C449 C 0.03005 0.72277 0.78419 0.0
C450 C 0.95117 0.74245 0.82307 0.0
C451 C 0.9795 0.69705 0.73097 0.0
C452 C 0.97437 0.69092 0.70431 0.0
C453 C 0.96092 0.67368 0.71019 0.0
C454 C 0.95681 0.6661 0.68583 0.0
C455 C 0.96611 0.67561 0.65492 0.0
C456 C 0.97928 0.69328 0.64898 0.0
C457 C 0.98334 0.70094 0.6735 0.0
C458 C 0.93569 0.78838 0.74651 0.0
C459 C 0.01436 0.76848 0.70698 0.0
O460 O 0.96547 0.80679 0.80436 0.0
O461 O 0.00642 0.80125 0.77994 0.0
O462 O 0.00479 0.7276 0.7891 0.0
O463 O 0.03316 0.74524 0.77803 0.0
O464 O 0.95495 0.76519 0.81503 0.0
O465 O 0.96341 0.72426 0.80538 0.0
O466 O 0.00059 0.70292 0.72759 0.0
O467 O 0.95804 0.71151 0.74795 0.0
O468 O 0.96099 0.78329 0.74108 0.0
O469 O 0.93229 0.76602 0.75315 0.0
O470 O 0.01046 0.74583 0.71488 0.0
O471 O 0.0022 0.78661 0.72474 0.0
H472 H 0.00537 0.85105 0.79387 0.0
H473 H 0.01459 0.86406 0.83523 0.0
H474 H -0.00944 0.80376 0.90301 0.0
H475 H 0.98097 0.79104 0.86117 0.0
H476 H 0.95399 0.66561 0.73381 0.0
H477 H 0.9471 0.65205 0.69135 0.0
H478 H -0.01348 0.7011 0.62542 0.0
H479 H -0.00629 0.71438 0.66841 0.0
Sm480 Sm 0.71575 0.50795 0.24421 0.0
Sm481 Sm 0.75599 0.51032 0.28478 0.0
C482 C 0.6734 0.51804 0.21793 0.0
C483 C 0.66735 0.51457 0.18992 0.0
C484 C 0.66103 0.53625 0.16398 0.0
C485 C 0.65188 0.53431 0.13906 0.0
C486 C 0.64865 0.51075 0.13971 0.0
C487 C 0.65639 0.48854 0.16492 0.0
C488 C 0.66557 0.49045 0.18979 0.0
C489 C 0.7697 0.46956 0.23343 0.0
C490 C 0.74716 0.54963 0.21434 0.0
C491 C 0.79872 0.49982 0.31061 0.0
C492 C 0.80551 0.50012 0.33994 0.0
C493 C 0.81188 0.47675 0.364 0.0
C494 C 0.82176 0.47589 0.38998 0.0
C495 C 0.8256 0.49831 0.39231 0.0
C496 C 0.81786 0.52215 0.36901 0.0
C497 C 0.80801 0.52301 0.34306 0.0
C498 C 0.70186 0.54788 0.29631 0.0
C499 C 0.72273 0.47051 0.31591 0.0
O500 O 0.68362 0.53593 0.21402 0.0
O501 O 0.68403 0.49605 0.23903 0.0
O502 O 0.7603 0.48698 0.25015 0.0
O503 O 0.74971 0.47326 0.21976 0.0
O504 O 0.72687 0.54331 0.21368 0.0
O505 O 0.76319 0.53725 0.2367 0.0
O506 O 0.79052 0.48111 0.31117 0.0
O507 O 0.7857 0.52343 0.29295 0.0
O508 O 0.71149 0.53098 0.27895 0.0
O509 O 0.72176 0.54431 0.31007 0.0
O510 O 0.74305 0.47661 0.31706 0.0
O511 O 0.70761 0.48223 0.29271 0.0
H512 H 0.66215 0.55514 0.16341 0.0
H513 H 0.64626 0.55169 0.11985 0.0
H514 H 0.65371 0.47026 0.16644 0.0
H515 H 0.67012 0.47343 0.20947 0.0
H516 H 0.81024 0.45873 0.36227 0.0
H517 H 0.8274 0.45731 0.40766 0.0
H518 H 0.82102 0.53962 0.36979 0.0
H519 H 0.80349 0.54124 0.32484 0.0
Sm520 Sm 0.72744 0.74856 0.99454 0.0
Sm521 Sm 0.73832 0.77558 0.03555 0.0
C522 C 0.71051 0.72329 0.96897 0.0
C523 C 0.68984 0.71202 0.97925 0.0
C524 C 0.68299 0.7023 1.01091 0.0
C525 C 0.66165 0.69365 0.02055 0.0
C526 C 0.64665 0.69513 0.99868 0.0
C527 C 0.65349 0.70508 0.96706 0.0
C528 C 0.67497 0.71342 0.95743 0.0
C529 C 0.72474 0.80019 0.96622 0.0
C530 C 0.67948 0.77232 0.05124 0.0
C531 C 0.74579 0.81004 0.05739 0.0
C532 C 0.76666 0.80812 0.07366 0.0
C533 C 0.76063 0.82836 0.08962 0.0
C534 C 0.78092 0.82768 0.10355 0.0
C535 C 0.80757 0.80673 0.1016 0.0
C536 C 0.81322 0.78589 0.0865 0.0
C537 C 0.79283 0.78652 0.07271 0.0
C538 C 0.75249 0.72112 0.06585 0.0
C539 C 0.78865 0.74537 0.98382 0.0
O540 O 0.73246 0.71068 0.98315 0.0
O541 O 0.70043 0.74984 0.96477 0.0
O542 O 0.71474 0.79353 0.9941 0.0
O543 O 0.73596 0.77955 0.95286 0.0
O544 O 0.69023 0.75437 0.03323 0.0
O545 O 0.69236 0.78684 0.05231 0.0
O546 O 0.75395 0.80704 0.02859 0.0
O547 O 0.73047 0.79707 0.07309 0.0
O548 O 0.74347 0.7322 0.04005 0.0
O549 O 0.7558 0.73872 0.07571 0.0
O550 O 0.77823 0.76421 1.00073 0.0
O551 O 0.77428 0.73268 0.98141 0.0
H552 H 0.69391 0.70168 0.02815 0.0
H553 H 0.65671 0.68605 0.04503 0.0
H554 H 0.64255 0.70592 0.94969 0.0
H555 H 0.67981 0.72124 0.93298 0.0
H556 H 0.74046 0.84509 0.0906 0.0
H557 H 0.77608 0.84427 0.11457 0.0
H558 H 0.83352 0.76945 0.08481 0.0
H559 H 0.79766 0.77055 0.06068 0.0
Sm560 Sm 0.47045 0.99837 0.54014 0.0
Sm561 Sm 0.51125 0.01274 0.48753 0.0
C562 C 0.43547 0.97893 0.57645 0.0
C563 C 0.42753 0.95795 0.57416 0.0
C564 C 0.42082 0.95828 0.54613 0.0
C565 C 0.41604 0.93682 0.54321 0.0
C566 C 0.41829 0.91441 0.56807 0.0
C567 C 0.42511 0.91413 0.59608 0.0
C568 C 0.42958 0.93579 0.59911 0.0
C569 C 0.51695 0.99327 0.55794 0.0
C570 C 0.51039 0.95545 0.49375 0.0
C571 C 0.54788 0.03154 0.45587 0.0
C572 C 0.55235 0.05367 0.46165 0.0
C573 C 0.57375 0.04721 0.47813 0.0
C574 C 0.57445 0.06704 0.4901 0.0
C575 C 0.55382 0.09376 0.48571 0.0
C576 C 0.53338 0.1006 0.46761 0.0
C577 C 0.53264 0.08078 0.45568 0.0
C578 C 0.46424 0.02107 0.46847 0.0
C579 C 0.46932 0.05671 0.53266 0.0
O580 O 0.42776 1.00183 0.55575 0.0
O581 O 0.46087 0.96983 0.58147 0.0
O582 O 0.51606 0.98599 0.53464 0.0
O583 O 0.49283 1.00187 0.57405 0.0
O584 O 0.4867 0.96504 0.51156 0.0
O585 O 0.5266 0.96848 0.4842 0.0
O586 O 0.55412 0.00922 0.4775 0.0
O587 O 0.5246 0.03871 0.44605 0.0
O588 O 0.46508 0.02663 0.49312 0.0
O589 O 0.48835 0.01233 0.45225 0.0
O590 O 0.49284 0.04765 0.51435 0.0
O591 O 0.45379 0.04295 0.54289 0.0
H592 H 0.41958 0.97492 0.52629 0.0
H593 H 0.41029 0.93799 0.52152 0.0
H594 H 0.42736 0.89703 0.61555 0.0
H595 H 0.43526 0.93495 0.62071 0.0
H596 H 0.58924 0.02653 0.48302 0.0
H597 H 0.59106 0.06131 0.50305 0.0
H598 H 0.51719 0.12097 0.46379 0.0
H599 H 0.51578 0.08649 0.44315 0.0
Sm600 Sm 0.46171 0.4995 0.04492 0.0
Sm601 Sm 0.50961 0.5052 0.99733 0.0
C602 C 0.42131 0.48663 0.0784 0.0
C603 C 0.41613 0.46222 0.08309 0.0
C604 C 0.41486 0.45356 0.05769 0.0
C605 C 0.41307 0.4288 0.06203 0.0
C606 C 0.41279 0.41201 0.09178 0.0
C607 C 0.41385 0.42082 0.11721 0.0
C608 C 0.41541 0.44575 0.11289 0.0
C609 C 0.50743 0.48939 0.06873 0.0
C610 C 0.50294 0.45008 1.00666 0.0
C611 C 0.55199 0.51672 0.96984 0.0
C612 C 0.55779 0.53896 0.97283 0.0
C613 C 0.58024 0.53281 0.98737 0.0
C614 C 0.58318 0.55345 0.99536 0.0
C615 C 0.56368 0.5806 0.9889 0.0
C616 C 0.54167 0.58679 0.97353 0.0
C617 C 0.53873 0.5662 0.96559 0.0
C618 C 0.46429 0.51782 0.9717 0.0
C619 C 0.46685 0.55535 0.03426 0.0
O620 O 0.41916 0.50272 0.05083 0.0
O621 O 0.4428 0.48241 0.08992 0.0
O622 O 0.50735 0.48131 0.04567 0.0
O623 O 0.4825 0.50212 0.08115 0.0
O624 O 0.47853 0.46244 0.02191 0.0
O625 O 0.52113 0.46083 0.99762 0.0
O626 O 0.55312 0.49776 0.995 0.0
O627 O 0.53084 0.52395 0.95579 0.0
O628 O 0.46356 0.52456 0.99624 0.0
O629 O 0.48933 0.50537 0.95916 0.0
O630 O 0.49173 0.54268 1.02004 0.0
O631 O 0.44865 0.54462 0.04243 0.0
H632 H 0.4157 0.46565 0.03434 0.0
H633 H 0.41162 0.42298 0.04202 0.0
H634 H 0.41383 0.40831 0.14039 0.0
H635 H 0.41674 0.45188 0.13274 0.0
H636 H 0.59502 0.51192 0.99349 0.0
H637 H 0.60071 0.5481 1.00661 0.0
H638 H 0.52613 0.60742 0.96855 0.0
H639 H 0.52086 0.57162 0.95492 0.0
H640 H -0.01291 0.08261 0.03146 0.0
H641 H 0.91786 0.14701 0.18176 0.0
H642 H 0.92354 0.06489 0.09847 0.0
H643 H 0.97884 0.16708 0.11245 0.0
H644 H 0.91524 0.12143 0.14826 0.0
H645 H 0.97996 0.11813 0.05725 0.0
C646 C 0.97142 0.08636 0.05142 0.0
C647 C 0.95614 0.07047 0.06308 0.0
C648 C 0.92892 0.13174 0.14018 0.0
C649 C 0.94801 0.11106 0.09288 0.0
C650 C 0.93048 0.14627 0.15934 0.0
C651 C 0.94882 0.15894 0.15003 0.0
C652 C 0.94602 0.12965 0.11162 0.0
C653 C 0.96434 0.15773 0.12053 0.0
C654 C 0.96734 0.1067 0.06613 0.0
C655 C 0.93595 0.07648 0.08882 0.0
N656 N 0.96285 0.14302 0.10256 0.0
N657 N 0.93271 0.09607 0.10309 0.0
H658 H 0.82198 0.26355 0.48334 0.0
H659 H 0.92164 0.2104 0.3332 0.0
H660 H 0.81041 0.21331 0.43672 0.0
H661 H 0.92546 0.26895 0.37383 0.0
H662 H 0.88471 0.20649 0.37446 0.0
H663 H 0.86364 0.26064 0.44737 0.0
C664 C 0.8283 0.25163 0.46576 0.0
C665 C 0.81239 0.23881 0.46304 0.0
C666 C 0.89377 0.22004 0.37445 0.0
C667 C 0.86035 0.23558 0.42134 0.0
C668 C 0.91497 0.22224 0.35092 0.0
C669 C 0.92671 0.24016 0.34981 0.0
C670 C 0.88423 0.23576 0.39722 0.0
C671 C 0.91704 0.25498 0.3735 0.0
C672 C 0.85214 0.25006 0.4451 0.0
C673 C 0.8219 0.22358 0.43975 0.0
N674 N 0.89637 0.25251 0.39607 0.0
N675 N 0.84511 0.22256 0.41968 0.0
H676 H 0.78035 0.07272 0.70658 0.0
H677 H 0.72827 0.18681 0.55361 0.0
H678 H 0.72101 0.07486 0.65785 0.0
H679 H 0.77531 0.19029 0.61412 0.0
H680 H 0.72959 0.14302 0.58703 0.0
H681 H 0.78314 0.11252 0.66851 0.0
C682 C 0.76806 0.08132 0.68772 0.0
C683 C 0.75033 0.07022 0.68571 0.0
C684 C 0.73981 0.15327 0.59282 0.0
C685 C 0.75337 0.11645 0.64165 0.0
C686 C 0.73921 0.17819 0.57363 0.0
C687 C 0.75176 0.19224 0.58102 0.0
C688 C 0.75328 0.14219 0.61945 0.0
C689 C 0.76534 0.18023 0.60749 0.0
C690 C 0.76961 0.10424 0.66595 0.0
C691 C 0.73497 0.08258 0.66052 0.0
N692 N 0.76572 0.15606 0.62562 0.0
N693 N 0.73676 0.10502 0.63962 0.0
H694 H 0.92739 0.05034 0.93687 0.0
H695 H 0.82816 0.98458 0.94244 0.0
H696 H 0.90913 0.9965 1.01948 0.0
H697 H 0.8249 0.05936 0.87838 0.0
H698 H 0.85412 0.99091 0.97405 0.0
H699 H 0.88673 0.05681 0.91748 0.0
C700 C 0.91432 0.04041 0.95119 0.0
C701 C 0.92125 0.02306 0.97978 0.0
C702 C 0.84713 0.00627 0.95349 0.0
C703 C 0.87539 0.02952 0.95754 0.0
C704 C 0.83246 1.0026 0.9354 0.0
C705 C 0.82476 0.02128 0.90757 0.0
C706 C 0.85457 0.02848 0.94327 0.0
C707 C 0.83047 0.04445 0.89965 0.0
C708 C 0.89113 0.04409 0.94021 0.0
C709 C 0.90404 0.01036 0.99751 0.0
N710 N 0.84553 0.04711 0.91708 0.0
N711 N 0.88209 0.0134 0.9858 0.0
H712 H 0.02739 0.95536 0.12501 0.0
H713 H 0.1494 0.99744 0.09635 0.0
H714 H 0.06074 0.98415 0.03262 0.0
H715 H 0.13045 0.94567 0.18105 0.0
H716 H 0.12181 0.98789 0.07029 0.0
H717 H 0.06888 0.94653 0.14415 0.0
C718 C 0.04375 0.95945 0.10868 0.0
C719 C 0.04068 0.97078 0.07732 0.0
C720 C 0.12427 0.97807 0.09436 0.0
C721 C 0.08799 0.96135 0.09907 0.0
C722 C 0.13989 0.98362 0.10927 0.0
C723 C 0.14169 0.97279 0.14107 0.0
C724 C 0.1101 0.96193 0.11154 0.0
C725 C 0.12948 0.95458 0.15658 0.0
C726 C 0.0675 0.9543 0.11956 0.0
C727 C 0.06244 0.97549 0.05699 0.0
N728 N 0.11373 0.95018 0.14182 0.0
N729 N 0.08505 0.97134 0.06835 0.0
H730 H 0.98144 0.41944 0.52042 0.0
H731 H 0.05103 0.35252 0.37191 0.0
H732 H 0.05154 0.42845 0.45872 0.0
H733 H 0.98023 0.34452 0.43285 0.0
H734 H 0.05614 0.37412 0.40818 0.0
H735 H -0.01442 0.38553 0.49393 0.0
C736 C -0.00201 0.414 0.50163 0.0
C737 C 0.01583 0.42725 0.49143 0.0
C738 C 0.03969 0.36733 0.41384 0.0
C739 C 0.02062 0.38846 0.46082 0.0
C740 C 0.0367 0.3551 0.39307 0.0
C741 C 0.01496 0.34703 0.39915 0.0
C742 C 0.02067 0.37173 0.44082 0.0
C743 C -0.00267 0.35037 0.42723 0.0
C744 C 0.00033 0.39461 0.48647 0.0
C745 C 0.03713 0.419 0.46723 0.0
N746 N 0.00036 0.36279 0.44681 0.0
N747 N 0.03867 0.40044 0.45246 0.0
H748 H 0.64339 0.24669 0.55516 0.0
H749 H 0.54209 0.3037 0.70278 0.0
H750 H 0.64919 0.3052 0.59393 0.0
H751 H 0.5416 0.24061 0.66719 0.0
H752 H 0.57822 0.30792 0.66039 0.0
H753 H 0.60311 0.2478 0.59296 0.0
C754 C 0.63605 0.26005 0.57135 0.0
C755 C 0.64987 0.27587 0.5712 0.0
C756 C 0.57006 0.29328 0.66177 0.0
C757 C 0.60359 0.27698 0.61517 0.0
C758 C 0.54933 0.2909 0.68595 0.0
C759 C 0.53874 0.27167 0.68879 0.0
C760 C 0.58032 0.27637 0.64012 0.0
C761 C 0.54912 0.25564 0.66619 0.0
C762 C 0.61304 0.26057 0.59312 0.0
C763 C 0.63931 0.29262 0.59308 0.0
N764 N 0.56931 0.25829 0.64299 0.0
N765 N 0.61694 0.29262 0.61424 0.0
H766 H 0.7394 0.95138 0.87228 0.0
H767 H 0.7118 0.81936 0.90759 0.0
H768 H 0.68863 0.94439 0.81938 0.0
H769 H 0.72321 0.84514 0.98175 0.0
H770 H 0.70585 0.86382 0.87393 0.0
H771 H 0.73632 0.91193 0.91166 0.0
C772 C 0.7273 0.94177 0.8691 0.0
C773 C 0.71422 0.95132 0.84239 0.0
C774 C 0.70933 0.85996 0.89764 0.0
C775 C 0.71117 0.90562 0.88721 0.0
C776 C 0.71279 0.83453 0.91692 0.0
C777 C 0.71797 0.82849 0.94761 0.0
C778 C 0.71184 0.8795 0.90867 0.0
C779 C 0.71909 0.84898 0.95834 0.0
C780 C 0.72553 0.91927 0.89167 0.0
C781 C 0.6989 0.93793 0.83961 0.0
N782 N 0.71653 0.87342 0.93873 0.0
N783 N 0.69819 0.91556 0.86141 0.0
H784 H 0.15574 0.30086 0.0992 0.0
H785 H 0.0398 0.24303 0.16671 0.0
H786 H 0.14429 0.24668 0.05863 0.0
H787 H 0.04615 0.30149 0.20508 0.0
H788 H 0.07643 0.24651 0.12529 0.0
H789 H 0.11424 0.30386 0.13609 0.0
C790 C 0.1444 0.28983 0.09774 0.0
C791 C 0.15377 0.27335 0.07573 0.0
C792 C 0.06975 0.25875 0.1426 0.0
C793 C 0.10622 0.27656 0.11825 0.0
C794 C 0.04877 0.25677 0.16638 0.0
C795 C 0.03987 0.27188 0.18966 0.0
C796 C 0.08229 0.27583 0.142 0.0
C797 C 0.05228 0.28944 0.18769 0.0
C798 C 0.12069 0.29152 0.11892 0.0
C799 C 0.13808 0.25956 0.07515 0.0
N800 N 0.073 0.29076 0.16445 0.0
N801 N 0.1153 0.26133 0.09617 0.0
H802 H 0.69571 0.44033 0.31396 0.0
H803 H 0.71681 0.34397 0.48328 0.0
H804 H 0.73907 0.44932 0.3744 0.0
H805 H 0.71669 0.3173 0.4035 0.0
H806 H 0.71446 0.38803 0.44912 0.0
H807 H 0.69209 0.40081 0.35236 0.0
C808 C 0.70412 0.43431 0.33548 0.0
C809 C 0.71785 0.44825 0.34073 0.0
C810 C 0.71476 0.37249 0.4393 0.0
C811 C 0.71355 0.40283 0.38514 0.0
C812 C 0.71601 0.34742 0.45878 0.0
C813 C 0.71724 0.32674 0.44625 0.0
C814 C 0.71387 0.37713 0.40731 0.0
C815 C 0.71602 0.33247 0.41425 0.0
C816 C 0.70216 0.41161 0.35736 0.0
C817 C 0.72845 0.43917 0.36918 0.0
N818 N 0.71428 0.35699 0.39606 0.0
N819 N 0.72608 0.41709 0.39029 0.0
H820 H 0.50985 0.0353 0.5815 0.0
H821 H 0.66638 0.98555 0.59003 0.0
H822 H 0.57223 0.97024 0.53801 0.0
H823 H 0.60309 0.06083 0.61342 0.0
H824 H 0.63441 0.98311 0.56307 0.0
H825 H 0.54489 0.04837 0.58632 0.0
C826 C 0.53105 0.0237 0.57302 0.0
C827 C 0.53834 1.00131 0.55994 0.0
C828 C 0.62779 1.0005 0.57344 0.0
C829 C 0.5788 0.01584 0.56587 0.0
C830 C 0.64601 1.00189 0.58887 0.0
C831 C 0.6372 0.02305 0.60472 0.0
C832 C 0.60058 0.02026 0.57424 0.0
C833 C 0.61083 0.044 0.60181 0.0
C834 C 0.55108 0.03131 0.57553 0.0
C835 C 0.56597 0.98737 0.54869 0.0
N836 N 0.59329 0.04173 0.58755 0.0
N837 N 0.58539 0.99452 0.55249 0.0
H838 H 0.04068 0.92827 0.95963 0.0
H839 H 0.97077 0.84278 0.92811 0.0
H840 H 0.96992 0.91751 1.01765 0.0
H841 H 0.04464 0.84916 0.87378 0.0
H842 H 0.97373 0.86487 0.96529 0.0
H843 H 0.04594 0.89458 0.93202 0.0
C844 C 0.02644 0.9186 0.96685 0.0
C845 C 0.00458 0.92606 0.99073 0.0
C846 C -0.01051 0.86114 0.94543 0.0
C847 C 0.01036 0.88758 0.95898 0.0
C848 C -0.01209 0.84834 0.92428 0.0
C849 C 0.00726 0.84445 0.89751 0.0
C850 C 0.01047 0.87026 0.93972 0.0
C851 C 0.02889 0.85233 0.89369 0.0
C852 C 0.02945 0.89934 0.95103 0.0
C853 C -0.01309 0.91264 0.99919 0.0
N854 N 0.02972 0.86514 0.91433 0.0
N855 N -0.01002 0.89432 0.98308 0.0
H856 H 0.08687 0.10954 0.90187 0.0
H857 H 0.14237 0.19669 0.90334 0.0
H858 H 0.03775 0.12928 0.9885 0.0
H859 H 0.11722 0.18001 1.00211 0.0
H860 H 0.11125 0.17956 0.89566 0.0
H861 H 0.10634 0.14119 0.89921 0.0
C862 C 0.07958 0.12111 0.91995 0.0
C863 C 0.06077 0.11652 0.94558 0.0
C864 C 0.1126 0.17949 0.91903 0.0
C865 C 0.08305 0.15317 0.94266 0.0
C866 C 0.1302 0.18947 0.92338 0.0
C867 C 0.13278 0.1892 0.95343 0.0
C868 C 0.09789 0.1687 0.94502 0.0
C869 C 0.11597 0.18043 0.97854 0.0
C870 C 0.0907 0.13938 0.91836 0.0
C871 C 0.05263 0.13173 0.96863 0.0
N872 N 0.09951 0.17016 0.9738 0.0
N873 N 0.06415 0.14905 0.96685 0.0
H874 H 0.68105 0.58265 0.33564 0.0
H875 H 0.53948 0.68051 0.26411 0.0
H876 H 0.65926 0.56543 0.26176 0.0
H877 H 0.56868 0.69684 0.33258 0.0
H878 H 0.58035 0.63669 0.26502 0.0
H879 H 0.63744 0.62243 0.33724 0.0
C880 C 0.66695 0.58714 0.31983 0.0
C881 C 0.67396 0.57062 0.29848 0.0
C882 C 0.57766 0.64981 0.27999 0.0
C883 C 0.62348 0.61684 0.29993 0.0
C884 C 0.55427 0.67476 0.27957 0.0
C885 C 0.55062 0.69242 0.29829 0.0
C886 C 0.59743 0.64244 0.29942 0.0
C887 C 0.57057 0.68398 0.31771 0.0
C888 C 0.64195 0.61001 0.32069 0.0
C889 C 0.65471 0.57757 0.27861 0.0
N890 N 0.59296 0.6598 0.3177 0.0
N891 N 0.63041 0.60023 0.27968 0.0
H892 H 0.33986 0.84206 0.50654 0.0
H893 H 0.43096 0.89166 0.51728 0.0
H894 H 0.34891 0.80066 0.60212 0.0
H895 H 0.39166 0.88625 0.61233 0.0
H896 H 0.4144 0.85991 0.51109 0.0
H897 H 0.37287 0.85976 0.5066 0.0
C898 C 0.34936 0.83605 0.52728 0.0
C899 C 0.34121 0.82028 0.55456 0.0
C900 C 0.40956 0.86566 0.53328 0.0
C901 C 0.37894 0.84052 0.5548 0.0
C902 C 0.41892 0.88379 0.53685 0.0
C903 C 0.41209 0.89221 0.56516 0.0
C904 C 0.39338 0.85586 0.55824 0.0
C905 C 0.3974 0.88047 0.59007 0.0
C906 C 0.36832 0.84611 0.52726 0.0
C907 C 0.35399 0.81343 0.58085 0.0
N908 N 0.38834 0.86306 0.58593 0.0
N909 N 0.37177 0.82411 0.58053 0.0
H910 H 0.08256 0.71206 0.78673 0.0
H911 H 0.14879 0.55137 0.78899 0.0
H912 H 0.03167 0.67142 0.78895 0.0
H913 H 0.19215 0.59781 0.79254 0.0
H914 H 0.10544 0.59323 0.78907 0.0
H915 H 0.12241 0.66891 0.78929 0.0
C916 C 0.07972 0.69393 0.78791 0.0
C917 C 0.05362 0.69548 0.7877 0.0
C918 C 0.12451 0.59407 0.78995 0.0
C919 C 0.09992 0.64518 0.79033 0.0
C920 C 0.14921 0.57022 0.7899 0.0
C921 C 0.17421 0.57101 0.79079 0.0
C922 C 0.12497 0.61873 0.79089 0.0
C923 C 0.17354 0.59602 0.79183 0.0
C924 C 0.10264 0.6691 0.78935 0.0
C925 C 0.05141 0.67112 0.78925 0.0
N926 N 0.14955 0.6186 0.79184 0.0
N927 N 0.07431 0.64693 0.79035 0.0
H928 H 0.82794 0.31441 0.63188 0.0
H929 H 0.894 0.41168 0.52802 0.0
H930 H 0.85275 0.31752 0.53359 0.0
H931 H 0.90496 0.38027 0.62496 0.0
H932 H 0.88097 0.37538 0.52977 0.0
H933 H 0.85839 0.3357 0.63109 0.0
C934 C 0.84035 0.31896 0.61034 0.0
C935 C 0.83763 0.3146 0.5827 0.0
C936 C 0.88664 0.37618 0.55055 0.0
C937 C 0.87185 0.33927 0.58148 0.0
C938 C 0.89416 0.39693 0.54959 0.0
C939 C 0.90033 0.39935 0.5765 0.0
C940 C 0.88462 0.35802 0.57876 0.0
C941 C 0.8996 0.37976 0.60385 0.0
C942 C 0.85772 0.33102 0.60989 0.0
C943 C 0.85425 0.32059 0.55541 0.0
N944 N 0.89139 0.36017 0.60443 0.0
N945 N 0.87021 0.33322 0.55533 0.0
H946 H 0.28788 0.92949 0.20114 0.0
H947 H 0.42876 0.82925 0.27315 0.0
H948 H 0.30955 0.94554 0.27603 0.0
H949 H 0.39844 0.81398 0.20482 0.0
H950 H 0.38818 0.8733 0.2727 0.0
H951 H 0.33083 0.88906 0.20011 0.0
C952 C 0.3018 0.92458 0.21735 0.0
C953 C 0.29495 0.94103 0.23873 0.0
C954 C 0.39056 0.86035 0.25769 0.0
C955 C 0.34478 0.89399 0.23788 0.0
C956 C 0.41378 0.83527 0.25784 0.0
C957 C 0.41705 0.81785 0.23897 0.0
C958 C 0.37058 0.86811 0.23839 0.0
C959 C 0.39686 0.82663 0.21977 0.0
C960 C 0.32645 0.90133 0.21679 0.0
C961 C 0.314 0.93349 0.2591 0.0
N962 N 0.37467 0.85094 0.22002 0.0
N963 N 0.338 0.91045 0.25828 0.0
H964 H 0.31073 0.44609 0.77345 0.0
H965 H 0.39875 0.30952 0.70579 0.0
H966 H 0.28648 0.4248 0.70492 0.0
H967 H 0.42794 0.32978 0.77081 0.0
H968 H 0.35848 0.35285 0.70422 0.0
H969 H 0.35434 0.40514 0.77209 0.0
C970 C 0.31467 0.43297 0.75792 0.0
C971 C 0.29488 0.43892 0.73925 0.0
C972 C 0.37367 0.34804 0.71877 0.0
C973 C 0.34466 0.39192 0.73771 0.0
C974 C 0.39678 0.32322 0.71964 0.0
C975 C 0.41681 0.3159 0.73851 0.0
C976 C 0.37016 0.36592 0.73712 0.0
C977 C 0.41304 0.33457 0.75593 0.0
C978 C 0.33955 0.40955 0.7572 0.0
C979 C 0.30106 0.42108 0.71972 0.0
N980 N 0.39011 0.35863 0.75499 0.0
N981 N 0.32521 0.39848 0.71957 0.0
H982 H 0.1463 0.73951 0.55339 0.0
H983 H 0.03419 0.80831 0.68852 0.0
H984 H 0.14667 0.8037 0.5869 0.0
H985 H 0.04142 0.73688 0.66318 0.0
H986 H 0.07144 0.81085 0.64698 0.0
H987 H 0.10427 0.74228 0.58879 0.0
C988 C 0.13744 0.75441 0.56795 0.0
C989 C 0.15028 0.77128 0.56718 0.0
C990 C 0.06472 0.79476 0.65034 0.0
C991 C 0.10189 0.77449 0.60813 0.0
C992 C 0.04331 0.79335 0.674 0.0
C993 C 0.03462 0.77227 0.67954 0.0
C994 C 0.07756 0.775 0.6319 0.0
C995 C 0.04742 0.75345 0.65994 0.0
C996 C 0.1134 0.75591 0.58829 0.0
C997 C 0.13763 0.79021 0.58667 0.0
N998 N 0.06826 0.75519 0.63717 0.0
N999 N 0.11427 0.79119 0.60642 0.0
H1000 H 0.23367 0.94578 0.37527 0.0
H1001 H 0.22573 0.8036 0.40404 0.0
H1002 H 0.20212 0.92728 0.3108 0.0
H1003 H 0.21737 0.83805 0.48108 0.0
H1004 H 0.22064 0.84728 0.36881 0.0
H1005 H 0.23126 0.90555 0.41349 0.0
C1006 C 0.22604 0.93338 0.36918 0.0
C1007 C 0.2181 0.94002 0.33963 0.0
C1008 C 0.21965 0.84545 0.39343 0.0
C1009 C 0.21579 0.89345 0.38335 0.0
C1010 C 0.22263 0.82045 0.41362 0.0
C1011 C 0.2219 0.81711 0.44567 0.0
C1012 C 0.21664 0.86732 0.40503 0.0
C1013 C 0.21786 0.83975 0.45662 0.0
C1014 C 0.22459 0.91044 0.39112 0.0
C1015 C 0.20833 0.92312 0.33325 0.0
N1016 N 0.21579 0.86377 0.4363 0.0
N1017 N 0.20784 0.90046 0.35469 0.0
H1018 H 0.00378 0.66016 0.60425 0.0
H1019 H 0.92451 0.58692 0.56573 0.0
H1020 H 0.92216 0.6681 0.64772 0.0
H1021 H 0.00267 0.58559 0.51605 0.0
H1022 H 0.92054 0.62153 0.59113 0.0
H1023 H 0.00117 0.6379 0.56702 0.0
C1024 C -0.0149 0.6577 0.60564 0.0
C1025 C 0.96331 0.66567 0.62948 0.0
C1026 C 0.93836 0.61398 0.57429 0.0
C1027 C 0.96036 0.63972 0.58722 0.0
C1028 C 0.94059 0.59425 0.55969 0.0
C1029 C 0.96408 0.58306 0.53894 0.0
C1030 C 0.95989 0.6224 0.56834 0.0
C1031 C -0.01577 0.59346 0.53199 0.0
C1032 C -0.01632 0.64482 0.58446 0.0
C1033 C 0.93972 0.6617 0.63022 0.0
N1034 N 0.98186 0.61222 0.54699 0.0
N1035 N 0.93901 0.64873 0.60968 0.0
H1036 H 0.32273 0.76339 0.48295 0.0
H1037 H 0.42617 0.70603 0.33652 0.0
H1038 H 0.31827 0.70462 0.44338 0.0
H1039 H 0.42491 0.77047 0.37112 0.0
H1040 H 0.39004 0.70164 0.37871 0.0
H1041 H 0.36341 0.76241 0.44579 0.0
C1042 C 0.33039 0.75006 0.46669 0.0
C1043 C 0.31676 0.73422 0.4663 0.0
C1044 C 0.39779 0.71662 0.37719 0.0
C1045 C 0.36361 0.7331 0.42328 0.0
C1046 C 0.41853 0.71911 0.35309 0.0
C1047 C 0.42866 0.73875 0.35001 0.0
C1048 C 0.38702 0.73384 0.39855 0.0
C1049 C 0.41778 0.7551 0.37233 0.0
C1050 C 0.35368 0.74957 0.44534 0.0
C1051 C 0.32796 0.71725 0.44461 0.0
N1052 N 0.39756 0.75234 0.39548 0.0
N1053 N 0.35055 0.71728 0.4239 0.0
H1054 H 0.28104 0.07115 0.21896 0.0
H1055 H 0.22755 0.18693 0.06759 0.0
H1056 H 0.21811 0.07817 0.17193 0.0
H1057 H 0.2867 0.18322 0.11744 0.0
H1058 H 0.22671 0.14485 0.10283 0.0
H1059 H 0.28592 0.10999 0.18 0.0
C1060 C 0.26832 0.0807 0.20044 0.0
C1061 C 0.24906 0.07121 0.199 0.0
C1062 C 0.24019 0.15299 0.10585 0.0
C1063 C 0.25459 0.11597 0.15402 0.0
C1064 C 0.24097 0.17685 0.08532 0.0
C1065 C 0.25765 0.18836 0.08901 0.0
C1066 C 0.25617 0.14049 0.13047 0.0
C1067 C 0.27368 0.17497 0.11352 0.0
C1068 C 0.27111 0.10297 0.17815 0.0
C1069 C 0.23319 0.08464 0.17427 0.0
N1070 N 0.27253 0.15188 0.13325 0.0
N1071 N 0.23627 0.10622 0.15295 0.0
H1072 H 0.82268 0.77009 0.98007 0.0
H1073 H 0.92995 0.70369 0.84067 0.0
H1074 H 0.81682 0.7107 0.94287 0.0
H1075 H 0.92572 0.773 0.86796 0.0
H1076 H 0.89287 0.70129 0.88261 0.0
H1077 H 0.86456 0.76653 0.94408 0.0
C1078 C 0.8303 0.75604 0.96459 0.0
C1079 C 0.81593 0.74079 0.9645 0.0
C1080 C 0.90022 0.71688 0.87958 0.0
C1081 C 0.86417 0.73674 0.92284 0.0
C1082 C 0.92153 0.71818 0.8557 0.0
C1083 C 0.931 0.73865 0.8506 0.0
C1084 C 0.88832 0.73606 0.89871 0.0
C1085 C 0.91908 0.75693 0.87084 0.0
C1086 C 0.85425 0.75411 0.9439 0.0
C1087 C 0.82705 0.72293 0.9438 0.0
N1088 N 0.89838 0.75525 0.89384 0.0
N1089 N 0.85038 0.72152 0.92373 0.0
H1090 H 0.2347 0.55837 0.66205 0.0
H1091 H 0.24325 0.70055 0.6305 0.0
H1092 H 0.26946 0.5766 0.72353 0.0
H1093 H 0.24923 0.66647 0.55413 0.0
H1094 H 0.2491 0.65672 0.6658 0.0
H1095 H 0.23642 0.59859 0.62311 0.0
C1096 C 0.243 0.57063 0.66728 0.0
C1097 C 0.25204 0.56391 0.69622 0.0
C1098 C 0.24941 0.65866 0.64131 0.0
C1099 C 0.25343 0.61054 0.65178 0.0
C1100 C 0.24598 0.68374 0.62108 0.0
C1101 C 0.24588 0.68723 0.58919 0.0
C1102 C 0.25199 0.63682 0.62994 0.0
C1103 C 0.24944 0.66465 0.57845 0.0
C1104 C 0.244 0.59359 0.64495 0.0
C1105 C 0.26248 0.58074 0.70155 0.0
N1106 N 0.25195 0.64053 0.59883 0.0
N1107 N 0.26249 0.60341 0.67982 0.0
H1108 H 0.35248 0.05566 0.3453 0.0
H1109 H 0.41257 0.03008 0.50006 0.0
H1110 H 0.31982 0.02136 0.43539 0.0
H1111 H 0.45843 0.03042 0.40827 0.0
H1112 H 0.37155 0.04012 0.47787 0.0
H1113 H 0.3834 0.06168 0.36995 0.0
C1114 C 0.35125 0.0501 0.37036 0.0
C1115 C 0.33392 0.03755 0.38831 0.0
C1116 C 0.39057 0.03831 0.46269 0.0
C1117 C 0.36958 0.04389 0.41649 0.0
C1118 C 0.41388 0.03254 0.47528 0.0
C1119 C 0.43886 0.02902 0.45596 0.0
C1120 C 0.39237 0.04117 0.43057 0.0
C1121 C 0.43961 0.03261 0.424 0.0
C1122 C 0.36909 0.0533 0.38437 0.0
C1123 C 0.33335 0.03058 0.4207 0.0
N1124 N 0.4167 0.03846 0.4123 0.0
N1125 N 0.35129 0.03347 0.4338 0.0
H1126 H 0.80638 0.81997 0.15554 0.0
H1127 H 0.93519 0.85637 0.08373 0.0
H1128 H 0.8593 0.79832 0.07141 0.0
H1129 H 0.87477 0.88792 0.15942 0.0
H1130 H 0.91539 0.82421 0.08787 0.0
H1131 H 0.83925 0.83339 0.16634 0.0
C1132 C 0.82517 0.81758 0.13965 0.0
C1133 C 0.82986 0.80863 0.1122 0.0
C1134 C 0.90681 0.83785 0.10393 0.0
C1135 C 0.86737 0.82408 0.12423 0.0
C1136 C 0.91799 0.85631 0.10146 0.0
C1137 C 0.90622 0.87529 0.12079 0.0
C1138 C 0.88365 0.83848 0.12578 0.0
C1139 C 0.88447 0.87376 0.14395 0.0
C1140 C 0.84394 0.82519 0.14583 0.0
C1141 C 0.8548 0.80529 0.09276 0.0
N1142 N 0.87361 0.856 0.14546 0.0
N1143 N 0.8724 0.81353 0.09883 0.0
H1144 H 0.63655 0.15115 0.55456 0.0
H1145 H 0.54077 0.14793 0.45989 0.0
H1146 H 0.58946 0.22152 0.49027 0.0
H1147 H 0.56727 0.08719 0.54266 0.0
H1148 H 0.54957 0.17933 0.4783 0.0
H1149 H 0.60384 0.13158 0.55922 0.0
C1150 C 0.61891 0.16274 0.54204 0.0
C1151 C 0.61605 0.18754 0.52133 0.0
C1152 C 0.55298 0.15933 0.49282 0.0
C1153 C 0.57894 0.16526 0.52605 0.0
C1154 C 0.5479 0.14133 0.48228 0.0
C1155 C 0.5543 0.11451 0.49922 0.0
C1156 C 0.56518 0.1502 0.52006 0.0
C1157 C 0.56334 0.10727 0.52817 0.0
C1158 C 0.60017 0.15167 0.54478 0.0
C1159 C 0.59259 0.20212 0.50617 0.0
N1160 N 0.56921 0.12478 0.53734 0.0
N1161 N 0.57529 0.19042 0.50819 0.0
H1162 H 0.78909 0.4327 0.19684 0.0
H1163 H 0.92856 0.3323 0.2719 0.0
H1164 H 0.8124 0.45149 0.26823 0.0
H1165 H 0.89785 0.31512 0.20553 0.0
H1166 H 0.88888 0.37714 0.26919 0.0
H1167 H 0.83129 0.39127 0.19758 0.0
C1168 C 0.80322 0.42822 0.21261 0.0
C1169 C 0.79699 0.4457 0.23259 0.0
C1170 C 0.89095 0.36358 0.25512 0.0
C1171 C 0.8459 0.39753 0.23384 0.0
C1172 C 0.91365 0.33802 0.25659 0.0
C1173 C 0.91657 0.31986 0.23892 0.0
C1174 C 0.87113 0.37107 0.2357 0.0
C1175 C 0.89652 0.32834 0.21961 0.0
C1176 C 0.82741 0.40438 0.2131 0.0
C1177 C 0.81628 0.43864 0.25247 0.0
N1178 N 0.87483 0.35311 0.21858 0.0
N1179 N 0.83979 0.41505 0.25272 0.0
H1180 H 0.05079 0.64259 0.43786 0.0
H1181 H 0.09541 0.72515 0.4684 0.0
H1182 H 0.05956 0.59685 0.53206 0.0
H1183 H 0.13451 0.65387 0.53696 0.0
H1184 H 0.06094 0.70846 0.47023 0.0
H1185 H 0.06014 0.67657 0.44989 0.0
C1186 C 0.05385 0.64011 0.4614 0.0
C1187 C 0.05508 0.6165 0.48376 0.0
C1188 C 0.07695 0.69654 0.48499 0.0
C1189 C 0.06585 0.65555 0.49789 0.0
C1190 C 0.09649 0.70614 0.4841 0.0
C1191 C 0.1183 0.69034 0.50175 0.0
C1192 C 0.07977 0.67072 0.50315 0.0
C1193 C 0.11828 0.66642 0.52257 0.0
C1194 C 0.05906 0.65972 0.46839 0.0
C1195 C 0.05938 0.61432 0.51381 0.0
N1196 N 0.09964 0.65699 0.52218 0.0
N1197 N 0.06529 0.63328 0.5198 0.0
H1198 H 0.65554 0.0634 0.76722 0.0
H1199 H 0.56917 0.20068 0.83379 0.0
H1200 H 0.68274 0.08691 0.83108 0.0
H1201 H 0.53889 0.18011 0.77006 0.0
H1202 H 0.6096 0.15754 0.83476 0.0
H1203 H 0.61184 0.10413 0.7694 0.0
C1204 C 0.65225 0.077 0.78187 0.0
C1205 C 0.6729 0.07175 0.79893 0.0
C1206 C 0.59414 0.16224 0.82063 0.0
C1207 C 0.62296 0.11845 0.80151 0.0
C1208 C 0.57093 0.18695 0.82011 0.0
C1209 C 0.55055 0.19412 0.80178 0.0
C1210 C 0.59737 0.1443 0.80251 0.0
C1211 C 0.55406 0.17541 0.78455 0.0
C1212 C 0.62731 0.10027 0.78307 0.0
C1213 C 0.66749 0.0901 0.8175 0.0
N1214 N 0.57709 0.15144 0.78518 0.0
N1215 N 0.64322 0.11254 0.81819 0.0
H1216 H 0.72331 0.57577 0.16053 0.0
H1217 H 0.77682 0.69419 0.11845 0.0
H1218 H 0.77929 0.57653 0.21176 0.0
H1219 H 0.73426 0.68549 0.05703 0.0
H1220 H 0.77793 0.65116 0.15256 0.0
H1221 H 0.72692 0.6155 0.12253 0.0
C1222 C 0.73654 0.5841 0.16377 0.0
C1223 C 0.751 0.57256 0.18965 0.0
C1224 C 0.76853 0.65845 0.13153 0.0
C1225 C 0.75499 0.61863 0.14596 0.0
C1226 C 0.76791 0.68307 0.11196 0.0
C1227 C 0.75545 0.69353 0.08473 0.0
C1228 C 0.75626 0.64409 0.12424 0.0
C1229 C 0.74416 0.67819 0.07768 0.0
C1230 C 0.73858 0.60687 0.14194 0.0
C1231 C 0.76778 0.5845 0.1923 0.0
N1232 N 0.74461 0.65442 0.0974 0.0
N1233 N 0.76912 0.60688 0.17097 0.0
H1234 H 0.91056 0.54136 0.48932 0.0
H1235 H 0.87153 0.45479 0.41239 0.0
H1236 H 0.96855 0.47499 0.44506 0.0
H1237 H 0.81616 0.53608 0.4257 0.0
H1238 H 0.90338 0.45478 0.44129 0.0
H1239 H 0.87282 0.53293 0.48105 0.0
C1240 C 0.91527 0.52494 0.47807 0.0
C1241 C 0.94247 0.50927 0.46711 0.0
C1242 C 0.88402 0.47242 0.43838 0.0
C1243 C 0.89994 0.49918 0.45832 0.0
C1244 C 0.86566 0.47236 0.42215 0.0
C1245 C 0.84137 0.49572 0.41608 0.0
C1246 C 0.87813 0.49603 0.44845 0.0
C1247 C 0.83501 0.51793 0.4292 0.0
C1248 C 0.89385 0.52009 0.47349 0.0
C1249 C 0.94774 0.48798 0.45311 0.0
N1250 N 0.85354 0.51775 0.44435 0.0
N1251 N 0.92664 0.48363 0.44898 0.0
H1252 H 0.1611 0.47977 0.60364 0.0
H1253 H 0.00607 0.53858 0.58346 0.0
H1254 H 0.10093 0.55828 0.62139 0.0
H1255 H 0.06766 0.47121 0.54303 0.0
H1256 H 0.04203 0.54931 0.59068 0.0
H1257 H 0.12975 0.47929 0.57408 0.0
C1258 C 0.14156 0.49717 0.60075 0.0
C1259 C 0.13335 0.51878 0.61566 0.0
C1260 C 0.04783 0.53229 0.57998 0.0
C1261 C 0.09744 0.51829 0.58212 0.0
C1262 C 0.02728 0.52601 0.57611 0.0
C1263 C 0.03408 0.50359 0.56333 0.0
C1264 C 0.07549 0.51546 0.57194 0.0
C1265 C 0.06175 0.48839 0.55349 0.0
C1266 C 0.12373 0.49693 0.58378 0.0
C1267 C 0.10812 0.54108 0.61053 0.0
N1268 N 0.0816 0.49424 0.55862 0.0
N1269 N 0.09083 0.53999 0.59474 0.0
H1270 H 0.54247 0.73874 0.16538 0.0
H1271 H 0.6514 0.80564 0.09339 0.0
H1272 H 0.54441 0.80137 0.20045 0.0
H1273 H 0.64809 0.74397 0.05788 0.0
H1274 H 0.61073 0.80633 0.13074 0.0
H1275 H 0.57934 0.74237 0.12414 0.0
C1276 C 0.55045 0.75343 0.16435 0.0
C1277 C 0.5402 0.76971 0.18668 0.0
C1278 C 0.61879 0.79277 0.11465 0.0
C1279 C 0.58288 0.77384 0.13924 0.0
C1280 C 0.64204 0.7924 0.09321 0.0
C1281 C 0.65338 0.77467 0.07236 0.0
C1282 C 0.60668 0.77524 0.11545 0.0
C1283 C 0.64022 0.75797 0.07342 0.0
C1284 C 0.57161 0.75546 0.14071 0.0
C1285 C 0.55153 0.78837 0.18388 0.0
N1286 N 0.61775 0.75858 0.09464 0.0
N1287 N 0.5723 0.78979 0.16078 0.0
H1288 H 0.65889 0.469 0.11203 0.0
H1289 H 0.50391 0.53245 0.08754 0.0
H1290 H 0.6029 0.55224 0.11656 0.0
H1291 H 0.56265 0.4585 0.05738 0.0
H1292 H 0.54148 0.54141 0.09356 0.0
H1293 H 0.62646 0.46607 0.08623 0.0
C1294 C 0.64006 0.48682 0.10702 0.0
C1295 C 0.63332 0.51069 0.1171 0.0
C1296 C 0.54631 0.52327 0.08545 0.0
C1297 C 0.59619 0.50742 0.08792 0.0
C1298 C 0.52483 0.518 0.08233 0.0
C1299 C 0.53031 0.49445 0.0725 0.0
C1300 C 0.57353 0.50441 0.0796 0.0
C1301 C 0.55772 0.4767 0.06544 0.0
C1302 C 0.62162 0.48516 0.09222 0.0
C1303 C 0.60897 0.53336 0.10939 0.0
N1304 N 0.57842 0.4818 0.06963 0.0
N1305 N 0.59105 0.53097 0.09585 0.0
H1306 H 0.43629 0.37469 0.05416 0.0
H1307 H 0.33004 0.30833 0.13658 0.0
H1308 H 0.3823 0.39052 0.1396 0.0
H1309 H 0.36435 0.31376 0.04 0.0
H1310 H 0.36285 0.32307 0.14523 0.0
H1311 H 0.42318 0.33797 0.05647 0.0
C1312 C 0.42197 0.37023 0.07361 0.0
C1313 C 0.40968 0.38629 0.0962 0.0
C1314 C 0.36363 0.32037 0.12232 0.0
C1315 C 0.3951 0.34407 0.09923 0.0
C1316 C 0.34504 0.31184 0.11742 0.0
C1317 C 0.34418 0.31053 0.0874 0.0
C1318 C 0.38132 0.32758 0.09698 0.0
C1319 C 0.36402 0.31522 0.06334 0.0
C1320 C 0.4147 0.34914 0.07503 0.0
C1321 C 0.3921 0.3789 0.1215 0.0
N1322 N 0.38152 0.32402 0.06853 0.0
N1323 N 0.38496 0.35862 0.12204 0.0
H1324 H 0.06754 0.1984 0.33423 0.0
H1325 H 0.1577 0.06459 0.26136 0.0
H1326 H 0.04005 0.1825 0.26389 0.0
H1327 H 0.17876 0.08369 0.33431 0.0
H1328 H 0.11409 0.10595 0.26192 0.0
H1329 H 0.10752 0.15508 0.33486 0.0
C1330 C 0.06982 0.18564 0.319 0.0
C1331 C 0.05031 0.19419 0.29902 0.0
C1332 C 0.12823 0.10094 0.2779 0.0
C1333 C 0.0968 0.14404 0.29928 0.0
C1334 C 0.15309 0.07731 0.27762 0.0
C1335 C 0.17198 0.07063 0.29782 0.0
C1336 C 0.12228 0.11795 0.29852 0.0
C1337 C 0.16495 0.08795 0.31827 0.0
C1338 C 0.09281 0.16079 0.31931 0.0
C1339 C 0.05452 0.17667 0.27979 0.0
N1340 N 0.14091 0.11063 0.31801 0.0
N1341 N 0.07738 0.1525 0.28024 0.0
H1342 H 0.24387 0.32096 0.9751 0.0
H1343 H 0.18413 0.43977 0.82835 0.0
H1344 H 0.18105 0.32679 0.92927 0.0
H1345 H 0.25274 0.42915 0.86833 0.0
H1346 H 0.17989 0.40103 0.86797 0.0
H1347 H 0.24426 0.36322 0.93979 0.0
C1348 C 0.22956 0.33156 0.95829 0.0
C1349 C 0.21197 0.3206 0.95571 0.0
C1350 C 0.19582 0.40723 0.86816 0.0
C1351 C 0.21289 0.36864 0.91421 0.0
C1352 C 0.19824 0.42944 0.84549 0.0
C1353 C 0.21889 0.43787 0.84474 0.0
C1354 C 0.2141 0.39321 0.8905 0.0
C1355 C 0.23654 0.42348 0.86775 0.0
C1356 C 0.23008 0.3555 0.93771 0.0
C1357 C 0.19479 0.33462 0.93232 0.0
N1358 N 0.23377 0.40195 0.88952 0.0
N1359 N 0.19568 0.35778 0.91255 0.0
H1360 H 0.32585 0.26178 0.98716 0.0
H1361 H 0.42383 0.20751 0.8367 0.0
H1362 H 0.31414 0.21 0.943 0.0
H1363 H 0.428 0.2669 0.87555 0.0
H1364 H 0.38737 0.20365 0.87879 0.0
H1365 H 0.36688 0.25911 0.95011 0.0
C1366 C 0.33199 0.24959 0.96989 0.0
C1367 C 0.31623 0.23622 0.96824 0.0
C1368 C 0.39642 0.21737 0.8782 0.0
C1369 C 0.3635 0.23326 0.92529 0.0
C1370 C 0.41736 0.21953 0.85421 0.0
C1371 C 0.42904 0.23768 0.85235 0.0
C1372 C 0.3871 0.23338 0.90067 0.0
C1373 C 0.41961 0.25274 0.87579 0.0
C1374 C 0.35548 0.24816 0.94861 0.0
C1375 C 0.3255 0.22071 0.94524 0.0
N1376 N 0.39921 0.25032 0.89879 0.0
N1377 N 0.34838 0.21981 0.92458 0.0
H1378 H 0.4648 0.51912 0.91164 0.0
H1379 H 0.31323 0.5345 0.93213 0.0
H1380 H 0.40961 0.53735 0.99558 0.0
H1381 H 0.36148 0.5448 0.84271 0.0
H1382 H 0.34609 0.53875 0.95589 0.0
H1383 H 0.42585 0.53094 0.88582 0.0
C1384 C 0.44437 0.52574 0.92461 0.0
C1385 C 0.44036 0.52688 0.95589 0.0
C1386 C 0.3491 0.54073 0.93098 0.0
C1387 C 0.39562 0.54025 0.92655 0.0
C1388 C 0.33043 0.53821 0.91743 0.0
C1389 C 0.33492 0.53885 0.88548 0.0
C1390 C 0.37252 0.54351 0.91245 0.0
C1391 C 0.35723 0.54414 0.86742 0.0
C1392 C 0.4221 0.53268 0.90979 0.0
C1393 C 0.41349 0.53589 0.97152 0.0
N1394 N 0.37549 0.54575 0.88125 0.0
N1395 N 0.39206 0.54182 0.95681 0.0
H1396 H 0.59502 0.71952 0.98208 0.0
H1397 H 0.55354 0.63229 0.95514 0.0
H1398 H 0.64985 0.6465 0.03644 0.0
H1399 H 0.58089 0.57895 0.04161 0.0
H1400 H 0.56389 0.66615 0.96587 0.0
H1401 H 0.56455 0.69713 0.98776 0.0
C1402 C 0.60042 0.69884 0.99549 0.0
C1403 C 0.62528 0.68446 1.00803 0.0
C1404 C 0.56679 0.64751 0.98314 0.0
C1405 C 0.59137 0.65842 1.0135 0.0
C1406 C 0.56102 0.62798 0.97686 0.0
C1407 C 0.56674 0.60255 0.99728 0.0
C1408 C 0.57862 0.64152 1.00995 0.0
C1409 C 0.57689 0.59801 0.02481 0.0
C1410 C 0.5832 0.68599 0.9985 0.0
C1411 C 0.63102 0.6581 0.02603 0.0
N1412 N 0.58303 0.61712 0.03005 0.0
N1413 N 0.61444 0.64566 0.0277 0.0
H1414 H 0.9361 0.83961 0.73657 0.0
H1415 H 0.77117 0.91287 0.75206 0.0
H1416 H 0.88163 0.79962 0.75356 0.0
H1417 H 0.81879 0.95951 0.73852 0.0
H1418 H 0.81292 0.87175 0.75203 0.0
H1419 H 0.8955 0.88382 0.73623 0.0
C1420 C 0.91571 0.84012 0.74004 0.0
C1421 C 0.91231 0.81582 0.74494 0.0
C1422 C 0.81459 0.89081 0.74903 0.0
C1423 C 0.86595 0.8661 0.74478 0.0
C1424 C 0.79053 0.91453 0.74901 0.0
C1425 C 0.79129 0.93991 0.74508 0.0
C1426 C 0.84019 0.89193 0.74504 0.0
C1427 C 0.81721 0.94041 0.74152 0.0
C1428 C 0.89257 0.86532 0.73995 0.0
C1429 C 0.88541 0.81768 0.74959 0.0
N1430 N 0.84071 0.91675 0.74148 0.0
N1431 N 0.86353 0.84216 0.74936 0.0
H1432 H 0.42272 0.15327 0.66818 0.0
H1433 H 0.49806 0.08818 0.51953 0.0
H1434 H 0.49227 0.16512 0.60845 0.0
H1435 H 0.42627 0.07888 0.57626 0.0
H1436 H 0.49205 0.12185 0.54731 0.0
H1437 H 0.41964 0.13127 0.63091 0.0
C1438 C 0.43718 0.15146 0.64707 0.0
C1439 C 0.45799 0.16074 0.64158 0.0
C1440 C 0.4773 0.11283 0.5534 0.0
C1441 C 0.45462 0.13559 0.59885 0.0
C1442 C 0.48065 0.09365 0.53737 0.0
C1443 C 0.46275 0.08052 0.54563 0.0
C1444 C 0.45599 0.11882 0.57815 0.0
C1445 C 0.44066 0.08835 0.56918 0.0
C1446 C 0.43535 0.13901 0.62575 0.0
C1447 C 0.47586 0.15834 0.6136 0.0
N1448 N 0.43812 0.10673 0.58491 0.0
N1449 N 0.47399 0.14569 0.59348 0.0
H1450 H 0.4674 0.34452 0.93931 0.0
H1451 H 0.54652 0.42315 0.96663 0.0
H1452 H 0.54179 0.34748 0.88265 0.0
H1453 H 0.47131 0.42107 0.02211 0.0
H1454 H 0.55004 0.38825 0.94202 0.0
H1455 H 0.47319 0.36548 0.97575 0.0
C1456 C 0.48511 0.34934 0.93473 0.0
C1457 C 0.50391 0.34466 0.90769 0.0
C1458 C 0.53298 0.39515 0.95991 0.0
C1459 C 0.51066 0.36872 0.94919 0.0
C1460 C 0.531 0.41503 0.97406 0.0
C1461 C 0.50829 0.42547 0.99603 0.0
C1462 C 0.51205 0.38574 0.96771 0.0
C1463 C 0.48893 0.41401 1.00488 0.0
C1464 C 0.48847 0.36122 0.95557 0.0
C1465 C 0.52679 0.35077 0.90319 0.0
N1466 N 0.49105 0.39506 0.99038 0.0
N1467 N 0.5293 0.36286 0.92349 0.0
H1468 H 0.48616 0.8403 0.42895 0.0
H1469 H 0.55243 0.93392 0.44907 0.0
H1470 H 0.55044 0.85779 0.36338 0.0
H1471 H 0.48295 0.92236 0.50963 0.0
H1472 H 0.55806 0.89891 0.4232 0.0
H1473 H 0.491 0.86284 0.46432 0.0
C1474 C 0.50169 0.8484 0.42224 0.0
C1475 C 0.51769 0.84748 0.39299 0.0
C1476 C 0.54181 0.90381 0.44241 0.0
C1477 C 0.52302 0.8737 0.43316 0.0
C1478 C 0.53862 0.92375 0.45727 0.0
C1479 C 0.51691 0.93143 0.48123 0.0
C1480 C 0.52313 0.8915 0.45157 0.0
C1481 C 0.49976 0.91741 0.49096 0.0
C1482 C 0.50431 0.86144 0.44237 0.0
C1483 C 0.5373 0.85854 0.38545 0.0
N1484 N 0.50305 0.89835 0.47586 0.0
N1485 N 0.53921 0.87145 0.40526 0.0
H1486 H 0.49962 0.58264 0.02271 0.0
H1487 H 0.41757 0.66069 0.16057 0.0
H1488 H 0.42154 0.5835 0.07185 0.0
H1489 H 0.49321 0.66324 0.10717 0.0
H1490 H 0.41524 0.63774 0.12383 0.0
H1491 H 0.49409 0.6176 0.04821 0.0
C1492 C 0.48101 0.59058 0.03837 0.0
C1493 C 0.46113 0.57993 0.04526 0.0
C1494 C 0.43214 0.64366 0.11989 0.0
C1495 C 0.45486 0.61973 0.0752 0.0
C1496 C 0.43354 0.65667 0.14093 0.0
C1497 C 0.45579 0.66359 0.13715 0.0
C1498 C 0.4533 0.63731 0.09503 0.0
C1499 C 0.47564 0.65835 0.11098 0.0
C1500 C 0.47791 0.61052 0.05309 0.0
C1501 C 0.43749 0.59098 0.06592 0.0
N1502 N 0.47411 0.6452 0.09117 0.0
N1503 N 0.4352 0.61001 0.08051 0.0
loop_
_geom_bond_atom_site_label_1
_geom_bond_atom_site_label_2
_geom_bond_distance
_geom_bond_site_symmetry_2
_ccdc_geom_bond_type
Sm0 C2 2.846 . S
Sm0 O20 2.543 . S
Sm0 O21 2.450 . S
Sm0 O22 2.681 1_655 S
Sm0 O23 2.464 1_655 S
Sm0 O24 2.382 1_654 S
Sm0 O28 2.386 1_564 S
Sm0 O31 2.408 1_565 S
Sm1 C11 2.846 . S
Sm1 O22 2.386 1_546 S
Sm1 O25 2.408 1_545 S
Sm1 O26 2.543 . S
Sm1 O27 2.450 . S
Sm1 O28 2.681 1_455 S
Sm1 O29 2.464 1_455 S
Sm1 O30 2.371 1_456 S
C2 Sm0 2.846 . S
C2 C3 1.506 . S
C2 O20 1.261 . S
C2 O21 1.242 . S
C3 C2 1.506 . S
C3 C4 1.358 . S
C3 C8 1.382 . S
C4 C3 1.358 . S
C4 C5 1.385 . S
C4 H32 0.931 1_554 S
C5 C4 1.385 . S
C5 C6 1.395 . S
C5 H33 0.929 . S
C6 C5 1.395 . S
C6 C7 1.335 . S
C7 C6 1.335 . S
C7 C8 1.398 . S
C7 H34 0.930 . S
C8 C3 1.382 . S
C8 C7 1.398 . S
C8 H35 0.929 . S
C9 O22 1.271 . S
C9 O23 1.251 . S
C10 O24 1.271 . S
C10 O25 1.272 . S
C11 Sm1 2.846 . S
C11 C12 1.506 . S
C11 O26 1.261 . S
C11 O27 1.242 . S
C12 C11 1.506 . S
C12 C13 1.358 . S
C12 C17 1.382 . S
C13 C12 1.358 . S
C13 C14 1.385 . S
C13 H36 0.918 1_556 S
C14 C13 1.385 . S
C14 C15 1.395 . S
C14 H37 0.929 . S
C15 C14 1.395 . S
C15 C16 1.335 . S
C16 C15 1.335 . S
C16 C17 1.398 . S
C16 H38 0.930 . S
C17 C12 1.382 . S
C17 C16 1.398 . S
C17 H39 0.929 . S
C18 O28 1.271 . S
C18 O29 1.251 . S
C19 O30 1.288 . S
C19 O31 1.272 . S
O20 Sm0 2.543 . S
O20 C2 1.261 . S
O21 Sm0 2.450 . S
O21 C2 1.242 . S
O22 Sm0 2.681 1_455 S
O22 Sm1 2.386 1_564 S
O22 C9 1.271 . S
O23 Sm0 2.464 1_455 S
O23 C9 1.251 . S
O24 Sm0 2.382 1_456 S
O24 C10 1.271 . S
O25 Sm1 2.408 1_565 S
O25 C10 1.272 . S
O26 Sm1 2.543 . S
O26 C11 1.261 . S
O27 Sm1 2.450 . S
O27 C11 1.242 . S
O28 Sm0 2.386 1_546 S
O28 Sm1 2.681 1_655 S
O28 C18 1.271 . S
O29 Sm1 2.464 1_655 S
O29 C18 1.251 . S
O30 Sm1 2.371 1_654 S
O30 C19 1.288 . S
O31 Sm0 2.408 1_545 S
O31 C19 1.272 . S
H32 C4 0.931 1_556 S
H33 C5 0.929 . S
H34 C7 0.930 . S
H35 C8 0.929 . S
H36 C13 0.918 1_554 S
H37 C14 0.929 . S
H38 C16 0.930 . S
H39 C17 0.929 . S
Sm40 C42 2.846 . S
Sm40 O60 2.543 1_455 S
Sm40 O61 2.450 . S
Sm40 O62 2.681 . S
Sm40 O63 2.464 . S
Sm40 O64 2.396 1_455 S
Sm40 O68 2.386 1_455 S
Sm40 O71 2.408 . S
Sm41 C51 2.846 . S
Sm41 O62 2.386 1_655 S
Sm41 O65 2.408 . S
Sm41 O66 2.543 1_655 S
Sm41 O67 2.450 . S
Sm41 O68 2.681 . S
Sm41 O69 2.464 . S
Sm41 O70 2.396 1_655 S
C42 Sm40 2.846 . S
C42 C43 1.507 1_455 S
C42 O60 1.261 1_455 S
C42 O61 1.242 . S
C43 C42 1.507 1_655 S
C43 C44 1.362 . S
C43 C48 1.377 1_655 S
C44 C43 1.362 . S
C44 C45 1.385 . S
C44 H72 0.930 . S
C45 C44 1.385 . S
C45 C46 1.395 . S
C45 H73 0.929 . S
C46 C45 1.395 . S
C46 C47 1.335 1_655 S
C47 C46 1.335 1_455 S
C47 C48 1.398 . S
C47 H74 0.930 . S
C48 C43 1.377 1_455 S
C48 C47 1.398 . S
C48 H75 0.929 . S
C49 O62 1.271 . S
C49 O63 1.251 . S
C50 O64 1.252 . S
C50 O65 1.272 . S
C51 Sm41 2.846 . S
C51 C52 1.511 1_655 S
C51 O66 1.261 1_655 S
C51 O67 1.242 . S
C52 C51 1.511 1_455 S
C52 C53 1.379 . S
C52 C57 1.356 1_455 S
C53 C52 1.379 . S
C53 C54 1.385 . S
C53 H76 0.930 . S
C54 C53 1.385 . S
C54 C55 1.395 . S
C54 H77 0.929 . S
C55 C54 1.395 . S
C55 C56 1.335 1_455 S
C56 C55 1.335 1_655 S
C56 C57 1.398 . S
C56 H78 0.930 . S
C57 C52 1.356 1_655 S
C57 C56 1.398 . S
C57 H79 0.929 . S
C58 O68 1.271 . S
C58 O69 1.251 . S
C59 O70 1.252 . S
C59 O71 1.272 . S
O60 Sm40 2.543 1_655 S
O60 C42 1.261 1_655 S
O61 Sm40 2.450 . S
O61 C42 1.242 . S
O62 Sm40 2.681 . S
O62 Sm41 2.386 1_455 S
O62 C49 1.271 . S
O63 Sm40 2.464 . S
O63 C49 1.251 . S
O64 Sm40 2.396 1_655 S
O64 C50 1.252 . S
O65 Sm41 2.408 . S
O65 C50 1.272 . S
O66 Sm41 2.543 1_455 S
O66 C51 1.261 1_455 S
O67 Sm41 2.450 . S
O67 C51 1.242 . S
O68 Sm40 2.386 1_655 S
O68 Sm41 2.681 . S
O68 C58 1.271 . S
O69 Sm41 2.464 . S
O69 C58 1.251 . S
O70 Sm41 2.396 1_455 S
O70 C59 1.252 . S
O71 Sm40 2.408 . S
O71 C59 1.272 . S
H72 C44 0.930 . S
H73 C45 0.929 . S
H74 C47 0.930 . S
H75 C48 0.929 . S
H76 C53 0.930 . S
H77 C54 0.929 . S
H78 C56 0.930 . S
H79 C57 0.929 . S
Sm80 C82 2.846 . S
Sm80 O100 2.543 . S
Sm80 O101 2.450 . S
Sm80 O102 2.681 . S
Sm80 O103 2.464 . S
Sm80 O104 2.396 . S
Sm80 O108 2.386 . S
Sm80 O111 2.408 . S
Sm81 C91 2.846 . S
Sm81 O102 2.386 . S
Sm81 O105 2.408 . S
Sm81 O106 2.543 . S
Sm81 O107 2.450 . S
Sm81 O108 2.681 . S
Sm81 O109 2.464 . S
Sm81 O110 2.396 . S
C82 Sm80 2.846 . S
C82 C83 1.506 . S
C82 O100 1.261 . S
C82 O101 1.242 . S
C83 C82 1.506 . S
C83 C84 1.358 . S
C83 C88 1.382 . S
C84 C83 1.358 . S
C84 C85 1.385 . S
C84 H112 0.930 . S
C85 C84 1.385 . S
C85 C86 1.395 . S
C85 H113 0.929 . S
C86 C85 1.395 . S
C86 C87 1.335 . S
C87 C86 1.335 . S
C87 C88 1.398 . S
C87 H114 0.930 . S
C88 C83 1.382 . S
C88 C87 1.398 . S
C88 H115 0.929 . S
C89 O102 1.271 . S
C89 O103 1.251 . S
C90 O104 1.252 . S
C90 O105 1.272 . S
C91 Sm81 2.846 . S
C91 C92 1.506 . S
C91 O106 1.261 . S
C91 O107 1.242 . S
C92 C91 1.506 . S
C92 C93 1.358 . S
C92 C97 1.382 . S
C93 C92 1.358 . S
C93 C94 1.385 . S
C93 H116 0.930 . S
C94 C93 1.385 . S
C94 C95 1.395 . S
C94 H117 0.929 . S
C95 C94 1.395 . S
C95 C96 1.335 . S
C96 C95 1.335 . S
C96 C97 1.398 . S
C96 H118 0.930 . S
C97 C92 1.382 . S
C97 C96 1.398 . S
C97 H119 0.929 . S
C98 O108 1.271 . S
C98 O109 1.251 . S
C99 O110 1.252 . S
C99 O111 1.272 . S
O100 Sm80 2.543 . S
O100 C82 1.261 . S
O101 Sm80 2.450 . S
O101 C82 1.242 . S
O102 Sm80 2.681 . S
O102 Sm81 2.386 . S
O102 C89 1.271 . S
O103 Sm80 2.464 . S
O103 C89 1.251 . S
O104 Sm80 2.396 . S
O104 C90 1.252 . S
O105 Sm81 2.408 . S
O105 C90 1.272 . S
O106 Sm81 2.543 . S
O106 C91 1.261 . S
O107 Sm81 2.450 . S
O107 C91 1.242 . S
O108 Sm80 2.386 . S
O108 Sm81 2.681 . S
O108 C98 1.271 . S
O109 Sm81 2.464 . S
O109 C98 1.251 . S
O110 Sm81 2.396 . S
O110 C99 1.252 . S
O111 Sm80 2.408 . S
O111 C99 1.272 . S
H112 C84 0.930 . S
H113 C85 0.929 . S
H114 C87 0.930 . S
H115 C88 0.929 . S
H116 C93 0.930 . S
H117 C94 0.929 . S
H118 C96 0.930 . S
H119 C97 0.929 . S
Sm120 C122 2.846 . S
Sm120 O140 2.543 1_565 S
Sm120 O141 2.450 . S
Sm120 O142 2.681 . S
Sm120 O143 2.464 . S
Sm120 O144 2.396 1_565 S
Sm120 O148 2.386 1_565 S
Sm120 O151 2.408 . S
Sm121 C131 2.846 . S
Sm121 O142 2.386 1_545 S
Sm121 O145 2.408 . S
Sm121 O146 2.543 1_545 S
Sm121 O147 2.450 . S
Sm121 O148 2.681 . S
Sm121 O149 2.464 . S
Sm121 O150 2.396 1_545 S
C122 Sm120 2.846 . S
C122 C123 1.506 1_565 S
C122 O140 1.261 1_565 S
C122 O141 1.242 . S
C123 C122 1.506 1_545 S
C123 C124 1.358 . S
C123 C128 1.382 1_545 S
C124 C123 1.358 . S
C124 C125 1.385 . S
C124 H152 0.930 . S
C125 C124 1.385 . S
C125 C126 1.395 . S
C125 H153 0.929 . S
C126 C125 1.395 . S
C126 C127 1.335 1_545 S
C127 C126 1.335 1_565 S
C127 C128 1.398 . S
C127 H154 0.930 . S
C128 C123 1.382 1_565 S
C128 C127 1.398 . S
C128 H155 0.929 . S
C129 O142 1.271 . S
C129 O143 1.251 . S
C130 O144 1.252 . S
C130 O145 1.272 . S
C131 Sm121 2.846 . S
C131 C132 1.506 1_545 S
C131 O146 1.261 1_545 S
C131 O147 1.242 . S
C132 C131 1.506 1_565 S
C132 C133 1.358 . S
C132 C137 1.382 1_565 S
C133 C132 1.358 . S
C133 C134 1.385 . S
C133 H156 0.930 . S
C134 C133 1.385 . S
C134 C135 1.395 . S
C134 H157 0.929 . S
C135 C134 1.395 . S
C135 C136 1.335 1_565 S
C136 C135 1.335 1_545 S
C136 C137 1.398 . S
C136 H158 0.930 . S
C137 C132 1.382 1_545 S
C137 C136 1.398 . S
C137 H159 0.929 . S
C138 O148 1.271 . S
C138 O149 1.251 . S
C139 O150 1.252 . S
C139 O151 1.272 . S
O140 Sm120 2.543 1_545 S
O140 C122 1.261 1_545 S
O141 Sm120 2.450 . S
O141 C122 1.242 . S
O142 Sm120 2.681 . S
O142 Sm121 2.386 1_565 S
O142 C129 1.271 . S
O143 Sm120 2.464 . S
O143 C129 1.251 . S
O144 Sm120 2.396 1_545 S
O144 C130 1.252 . S
O145 Sm121 2.408 . S
O145 C130 1.272 . S
O146 Sm121 2.543 1_565 S
O146 C131 1.261 1_565 S
O147 Sm121 2.450 . S
O147 C131 1.242 . S
O148 Sm120 2.386 1_545 S
O148 Sm121 2.681 . S
O148 C138 1.271 . S
O149 Sm121 2.464 . S
O149 C138 1.251 . S
O150 Sm121 2.396 1_565 S
O150 C139 1.252 . S
O151 Sm120 2.408 . S
O151 C139 1.272 . S
H152 C124 0.930 . S
H153 C125 0.929 . S
H154 C127 0.930 . S
H155 C128 0.929 . S
H156 C133 0.930 . S
H157 C134 0.929 . S
H158 C136 0.930 . S
H159 C137 0.929 . S
Sm160 C162 2.846 . S
Sm160 O180 2.543 . S
Sm160 O181 2.450 . S
Sm160 O182 2.681 . S
Sm160 O183 2.464 . S
Sm160 O184 2.396 . S
Sm160 O188 2.386 . S
Sm160 O191 2.408 . S
Sm161 C171 2.846 . S
Sm161 O182 2.386 . S
Sm161 O185 2.408 . S
Sm161 O186 2.543 . S
Sm161 O187 2.450 . S
Sm161 O188 2.681 . S
Sm161 O189 2.464 . S
Sm161 O190 2.396 . S
C162 Sm160 2.846 . S
C162 C163 1.506 . S
C162 O180 1.261 . S
C162 O181 1.242 . S
C163 C162 1.506 . S
C163 C164 1.358 . S
C163 C168 1.382 . S
C164 C163 1.358 . S
C164 C165 1.385 . S
C164 H192 0.930 . S
C165 C164 1.385 . S
C165 C166 1.395 . S
C165 H193 0.929 . S
C166 C165 1.395 . S
C166 C167 1.335 . S
C167 C166 1.335 . S
C167 C168 1.398 . S
C167 H194 0.930 . S
C168 C163 1.382 . S
C168 C167 1.398 . S
C168 H195 0.929 . S
C169 O182 1.271 . S
C169 O183 1.251 . S
C170 O184 1.252 . S
C170 O185 1.272 . S
C171 Sm161 2.846 . S
C171 C172 1.506 . S
C171 O186 1.261 . S
C171 O187 1.242 . S
C172 C171 1.506 . S
C172 C173 1.358 . S
C172 C177 1.382 . S
C173 C172 1.358 . S
C173 C174 1.385 . S
C173 H196 0.930 . S
C174 C173 1.385 . S
C174 C175 1.395 . S
C174 H197 0.929 . S
C175 C174 1.395 . S
C175 C176 1.335 . S
C176 C175 1.335 . S
C176 C177 1.398 . S
C176 H198 0.930 . S
C177 C172 1.382 . S
C177 C176 1.398 . S
C177 H199 0.929 . S
C178 O188 1.271 . S
C178 O189 1.251 . S
C179 O190 1.252 . S
C179 O191 1.272 . S
O180 Sm160 2.543 . S
O180 C162 1.261 . S
O181 Sm160 2.450 . S
O181 C162 1.242 . S
O182 Sm160 2.681 . S
O182 Sm161 2.386 . S
O182 C169 1.271 . S
O183 Sm160 2.464 . S
O183 C169 1.251 . S
O184 Sm160 2.396 . S
O184 C170 1.252 . S
O185 Sm161 2.408 . S
O185 C170 1.272 . S
O186 Sm161 2.543 . S
O186 C171 1.261 . S
O187 Sm161 2.450 . S
O187 C171 1.242 . S
O188 Sm160 2.386 . S
O188 Sm161 2.681 . S
O188 C178 1.271 . S
O189 Sm161 2.464 . S
O189 C178 1.251 . S
O190 Sm161 2.396 . S
O190 C179 1.252 . S
O191 Sm160 2.408 . S
O191 C179 1.272 . S
H192 C164 0.930 . S
H193 C165 0.929 . S
H194 C167 0.930 . S
H195 C168 0.929 . S
H196 C173 0.930 . S
H197 C174 0.929 . S
H198 C176 0.930 . S
H199 C177 0.929 . S
Sm200 C202 2.846 . S
Sm200 O220 2.543 . S
Sm200 O221 2.450 . S
Sm200 O222 2.681 . S
Sm200 O223 2.464 . S
Sm200 O224 2.396 . S
Sm200 O228 2.386 . S
Sm200 O231 2.408 . S
Sm201 C211 2.846 . S
Sm201 O222 2.386 . S
Sm201 O225 2.408 . S
Sm201 O226 2.543 . S
Sm201 O227 2.450 . S
Sm201 O228 2.681 . S
Sm201 O229 2.464 . S
Sm201 O230 2.396 . S
C202 Sm200 2.846 . S
C202 C203 1.506 . S
C202 O220 1.261 . S
C202 O221 1.242 . S
C203 C202 1.506 . S
C203 C204 1.358 . S
C203 C208 1.382 . S
C204 C203 1.358 . S
C204 C205 1.385 . S
C204 H232 0.930 . S
C205 C204 1.385 . S
C205 C206 1.395 . S
C205 H233 0.929 . S
C206 C205 1.395 . S
C206 C207 1.335 . S
C207 C206 1.335 . S
C207 C208 1.398 . S
C207 H234 0.930 . S
C208 C203 1.382 . S
C208 C207 1.398 . S
C208 H235 0.929 . S
C209 O222 1.271 . S
C209 O223 1.251 . S
C210 O224 1.252 . S
C210 O225 1.272 . S
C211 Sm201 2.846 . S
C211 C212 1.506 . S
C211 O226 1.261 . S
C211 O227 1.242 . S
C212 C211 1.506 . S
C212 C213 1.358 . S
C212 C217 1.382 . S
C213 C212 1.358 . S
C213 C214 1.385 . S
C213 H236 0.930 . S
C214 C213 1.385 . S
C214 C215 1.395 . S
C214 H237 0.929 . S
C215 C214 1.395 . S
C215 C216 1.335 . S
C216 C215 1.335 . S
C216 C217 1.398 . S
C216 H238 0.930 . S
C217 C212 1.382 . S
C217 C216 1.398 . S
C217 H239 0.929 . S
C218 O228 1.271 . S
C218 O229 1.251 . S
C219 O230 1.252 . S
C219 O231 1.272 . S
O220 Sm200 2.543 . S
O220 C202 1.261 . S
O221 Sm200 2.450 . S
O221 C202 1.242 . S
O222 Sm200 2.681 . S
O222 Sm201 2.386 . S
O222 C209 1.271 . S
O223 Sm200 2.464 . S
O223 C209 1.251 . S
O224 Sm200 2.396 . S
O224 C210 1.252 . S
O225 Sm201 2.408 . S
O225 C210 1.272 . S
O226 Sm201 2.543 . S
O226 C211 1.261 . S
O227 Sm201 2.450 . S
O227 C211 1.242 . S
O228 Sm200 2.386 . S
O228 Sm201 2.681 . S
O228 C218 1.271 . S
O229 Sm201 2.464 . S
O229 C218 1.251 . S
O230 Sm201 2.396 . S
O230 C219 1.252 . S
O231 Sm200 2.408 . S
O231 C219 1.272 . S
H232 C204 0.930 . S
H233 C205 0.929 . S
H234 C207 0.930 . S
H235 C208 0.929 . S
H236 C213 0.930 . S
H237 C214 0.929 . S
H238 C216 0.930 . S
H239 C217 0.929 . S
Sm240 C242 2.846 . S
Sm240 O260 2.543 . S
Sm240 O261 2.450 . S
Sm240 O262 2.681 . S
Sm240 O263 2.464 . S
Sm240 O264 2.396 . S
Sm240 O268 2.386 . S
Sm240 O271 2.408 . S
Sm241 C251 2.846 . S
Sm241 O262 2.386 . S
Sm241 O265 2.408 . S
Sm241 O266 2.543 . S
Sm241 O267 2.450 . S
Sm241 O268 2.681 . S
Sm241 O269 2.464 . S
Sm241 O270 2.396 . S
C242 Sm240 2.846 . S
C242 C243 1.506 . S
C242 O260 1.261 . S
C242 O261 1.242 . S
C243 C242 1.506 . S
C243 C244 1.358 . S
C243 C248 1.382 . S
C244 C243 1.358 . S
C244 C245 1.385 . S
C244 H272 0.930 . S
C245 C244 1.385 . S
C245 C246 1.395 . S
C245 H273 0.929 . S
C246 C245 1.395 . S
C246 C247 1.335 . S
C247 C246 1.335 . S
C247 C248 1.398 . S
C247 H274 0.930 . S
C248 C243 1.382 . S
C248 C247 1.398 . S
C248 H275 0.929 . S
C249 O262 1.271 . S
C249 O263 1.251 . S
C250 O264 1.252 . S
C250 O265 1.272 . S
C251 Sm241 2.846 . S
C251 C252 1.506 . S
C251 O266 1.261 . S
C251 O267 1.242 . S
C252 C251 1.506 . S
C252 C253 1.358 . S
C252 C257 1.382 . S
C253 C252 1.358 . S
C253 C254 1.385 . S
C253 H276 0.930 . S
C254 C253 1.385 . S
C254 C255 1.395 . S
C254 H277 0.929 . S
C255 C254 1.395 . S
C255 C256 1.335 . S
C256 C255 1.335 . S
C256 C257 1.398 . S
C256 H278 0.930 . S
C257 C252 1.382 . S
C257 C256 1.398 . S
C257 H279 0.929 . S
C258 O268 1.271 . S
C258 O269 1.251 . S
C259 O270 1.252 . S
C259 O271 1.272 . S
O260 Sm240 2.543 . S
O260 C242 1.261 . S
O261 Sm240 2.450 . S
O261 C242 1.242 . S
O262 Sm240 2.681 . S
O262 Sm241 2.386 . S
O262 C249 1.271 . S
O263 Sm240 2.464 . S
O263 C249 1.251 . S
O264 Sm240 2.396 . S
O264 C250 1.252 . S
O265 Sm241 2.408 . S
O265 C250 1.272 . S
O266 Sm241 2.543 . S
O266 C251 1.261 . S
O267 Sm241 2.450 . S
O267 C251 1.242 . S
O268 Sm240 2.386 . S
O268 Sm241 2.681 . S
O268 C258 1.271 . S
O269 Sm241 2.464 . S
O269 C258 1.251 . S
O270 Sm241 2.396 . S
O270 C259 1.252 . S
O271 Sm240 2.408 . S
O271 C259 1.272 . S
H272 C244 0.930 . S
H273 C245 0.929 . S
H274 C247 0.930 . S
H275 C248 0.929 . S
H276 C253 0.930 . S
H277 C254 0.929 . S
H278 C256 0.930 . S
H279 C257 0.929 . S
Sm280 C282 2.846 . S
Sm280 O300 2.543 . S
Sm280 O301 2.450 . S
Sm280 O302 2.681 1_655 S
Sm280 O303 2.464 1_655 S
Sm280 O304 2.396 1_655 S
Sm280 O308 2.386 . S
Sm280 O311 2.408 . S
Sm281 C291 2.846 . S
Sm281 O302 2.386 . S
Sm281 O305 2.408 . S
Sm281 O306 2.543 . S
Sm281 O307 2.450 . S
Sm281 O308 2.681 1_455 S
Sm281 O309 2.464 1_455 S
Sm281 O310 2.396 1_455 S
C282 Sm280 2.846 . S
C282 C283 1.506 . S
C282 O300 1.261 . S
C282 O301 1.242 . S
C283 C282 1.506 . S
C283 C284 1.358 . S
C283 C288 1.382 . S
C284 C283 1.358 . S
C284 C285 1.385 . S
C284 H312 0.930 . S
C285 C284 1.385 . S
C285 C286 1.395 . S
C285 H313 0.929 . S
C286 C285 1.395 . S
C286 C287 1.335 . S
C287 C286 1.335 . S
C287 C288 1.398 . S
C287 H314 0.930 . S
C288 C283 1.382 . S
C288 C287 1.398 . S
C288 H315 0.929 . S
C289 O302 1.271 . S
C289 O303 1.251 . S
C290 O304 1.252 . S
C290 O305 1.272 . S
C291 Sm281 2.846 . S
C291 C292 1.506 . S
C291 O306 1.261 . S
C291 O307 1.242 . S
C292 C291 1.506 . S
C292 C293 1.358 . S
C292 C297 1.382 . S
C293 C292 1.358 . S
C293 C294 1.385 . S
C293 H316 0.930 . S
C294 C293 1.385 . S
C294 C295 1.395 . S
C294 H317 0.929 . S
C295 C294 1.395 . S
C295 C296 1.335 . S
C296 C295 1.335 . S
C296 C297 1.398 . S
C296 H318 0.930 . S
C297 C292 1.382 . S
C297 C296 1.398 . S
C297 H319 0.929 . S
C298 O308 1.271 . S
C298 O309 1.251 . S
C299 O310 1.252 . S
C299 O311 1.272 . S
O300 Sm280 2.543 . S
O300 C282 1.261 . S
O301 Sm280 2.450 . S
O301 C282 1.242 . S
O302 Sm280 2.681 1_455 S
O302 Sm281 2.386 . S
O302 C289 1.271 . S
O303 Sm280 2.464 1_455 S
O303 C289 1.251 . S
O304 Sm280 2.396 1_455 S
O304 C290 1.252 . S
O305 Sm281 2.408 . S
O305 C290 1.272 . S
O306 Sm281 2.543 . S
O306 C291 1.261 . S
O307 Sm281 2.450 . S
O307 C291 1.242 . S
O308 Sm280 2.386 . S
O308 Sm281 2.681 1_655 S
O308 C298 1.271 . S
O309 Sm281 2.464 1_655 S
O309 C298 1.251 . S
O310 Sm281 2.396 1_655 S
O310 C299 1.252 . S
O311 Sm280 2.408 . S
O311 C299 1.272 . S
H312 C284 0.930 . S
H313 C285 0.929 . S
H314 C287 0.930 . S
H315 C288 0.929 . S
H316 C293 0.930 . S
H317 C294 0.929 . S
H318 C296 0.930 . S
H319 C297 0.929 . S
Sm320 C322 2.846 . S
Sm320 O340 2.544 . S
Sm320 O341 2.450 . S
Sm320 O342 2.681 . S
Sm320 O343 2.464 . S
Sm320 O344 2.396 1_556 S
Sm320 O348 2.386 1_556 S
Sm320 O351 2.408 . S
Sm321 C331 2.846 . S
Sm321 O342 2.386 1_554 S
Sm321 O345 2.408 . S
Sm321 O346 2.549 . S
Sm321 O347 2.450 . S
Sm321 O348 2.681 . S
Sm321 O349 2.464 . S
Sm321 O350 2.396 1_554 S
C322 Sm320 2.846 . S
C322 C323 1.506 . S
C322 O340 1.267 . S
C322 O341 1.242 . S
C323 C322 1.506 . S
C323 C324 1.358 1_556 S
C323 C328 1.382 . S
C324 C323 1.358 1_554 S
C324 C325 1.385 . S
C324 H352 0.930 . S
C325 C324 1.385 . S
C325 C326 1.395 1_554 S
C325 H353 0.929 . S
C326 C325 1.395 1_556 S
C326 C327 1.335 . S
C327 C326 1.335 . S
C327 C328 1.398 . S
C327 H354 0.930 . S
C328 C323 1.382 . S
C328 C327 1.398 . S
C328 H355 0.929 . S
C329 O342 1.271 . S
C329 O343 1.251 . S
C330 O344 1.252 . S
C330 O345 1.272 . S
C331 Sm321 2.846 . S
C331 C332 1.506 . S
C331 O346 1.284 . S
C331 O347 1.242 . S
C332 C331 1.506 . S
C332 C333 1.358 1_554 S
C332 C337 1.382 . S
C333 C332 1.358 1_556 S
C333 C334 1.385 . S
C333 H356 0.930 . S
C334 C333 1.385 . S
C334 C335 1.395 1_556 S
C334 H357 0.929 . S
C335 C334 1.395 1_554 S
C335 C336 1.335 . S
C336 C335 1.335 . S
C336 C337 1.398 . S
C336 H358 0.930 . S
C337 C332 1.382 . S
C337 C336 1.398 . S
C337 H359 0.929 . S
C338 O348 1.271 . S
C338 O349 1.251 . S
C339 O350 1.252 . S
C339 O351 1.272 . S
O340 Sm320 2.544 . S
O340 C322 1.267 . S
O341 Sm320 2.450 . S
O341 C322 1.242 . S
O342 Sm320 2.681 . S
O342 Sm321 2.386 1_556 S
O342 C329 1.271 . S
O343 Sm320 2.464 . S
O343 C329 1.251 . S
O344 Sm320 2.396 1_554 S
O344 C330 1.252 . S
O345 Sm321 2.408 . S
O345 C330 1.272 . S
O346 Sm321 2.549 . S
O346 C331 1.284 . S
O347 Sm321 2.450 . S
O347 C331 1.242 . S
O348 Sm320 2.386 1_554 S
O348 Sm321 2.681 . S
O348 C338 1.271 . S
O349 Sm321 2.464 . S
O349 C338 1.251 . S
O350 Sm321 2.396 1_556 S
O350 C339 1.252 . S
O351 Sm320 2.408 . S
O351 C339 1.272 . S
H352 C324 0.930 . S
H353 C325 0.929 . S
H354 C327 0.930 . S
H355 C328 0.929 . S
H356 C333 0.930 . S
H357 C334 0.929 . S
H358 C336 0.930 . S
H359 C337 0.929 . S
Sm360 C362 2.846 . S
Sm360 O380 2.543 1_565 S
Sm360 O381 2.450 . S
Sm360 O382 2.681 . S
Sm360 O383 2.464 . S
Sm360 O384 2.396 1_565 S
Sm360 O388 2.386 1_565 S
Sm360 O391 2.408 . S
Sm361 C371 2.846 . S
Sm361 O382 2.386 1_545 S
Sm361 O385 2.408 . S
Sm361 O386 2.543 1_545 S
Sm361 O387 2.450 . S
Sm361 O388 2.681 . S
Sm361 O389 2.464 . S
Sm361 O390 2.396 1_545 S
C362 Sm360 2.846 . S
C362 C363 1.506 1_565 S
C362 O380 1.261 1_565 S
C362 O381 1.242 . S
C363 C362 1.506 1_545 S
C363 C364 1.358 . S
C363 C368 1.382 1_545 S
C364 C363 1.358 . S
C364 C365 1.385 . S
C364 H392 0.930 . S
C365 C364 1.385 . S
C365 C366 1.395 . S
C365 H393 0.929 . S
C366 C365 1.395 . S
C366 C367 1.335 1_545 S
C367 C366 1.335 1_565 S
C367 C368 1.398 . S
C367 H394 0.930 . S
C368 C363 1.382 1_565 S
C368 C367 1.398 . S
C368 H395 0.929 . S
C369 O382 1.271 . S
C369 O383 1.251 . S
C370 O384 1.252 . S
C370 O385 1.272 . S
C371 Sm361 2.846 . S
C371 C372 1.506 1_545 S
C371 O386 1.261 1_545 S
C371 O387 1.242 . S
C372 C371 1.506 1_565 S
C372 C373 1.358 . S
C372 C377 1.382 1_565 S
C373 C372 1.358 . S
C373 C374 1.385 . S
C373 H396 0.930 . S
C374 C373 1.385 . S
C374 C375 1.395 . S
C374 H397 0.929 . S
C375 C374 1.395 . S
C375 C376 1.335 1_565 S
C376 C375 1.335 1_545 S
C376 C377 1.398 . S
C376 H398 0.930 . S
C377 C372 1.382 1_545 S
C377 C376 1.398 . S
C377 H399 0.929 . S
C378 O388 1.271 . S
C378 O389 1.251 . S
C379 O390 1.252 . S
C379 O391 1.272 . S
O380 Sm360 2.543 1_545 S
O380 C362 1.261 1_545 S
O381 Sm360 2.450 . S
O381 C362 1.242 . S
O382 Sm360 2.681 . S
O382 Sm361 2.386 1_565 S
O382 C369 1.271 . S
O383 Sm360 2.464 . S
O383 C369 1.251 . S
O384 Sm360 2.396 1_545 S
O384 C370 1.252 . S
O385 Sm361 2.408 . S
O385 C370 1.272 . S
O386 Sm361 2.543 1_565 S
O386 C371 1.261 1_565 S
O387 Sm361 2.450 . S
O387 C371 1.242 . S
O388 Sm360 2.386 1_545 S
O388 Sm361 2.681 . S
O388 C378 1.271 . S
O389 Sm361 2.464 . S
O389 C378 1.251 . S
O390 Sm361 2.396 1_565 S
O390 C379 1.252 . S
O391 Sm360 2.408 . S
O391 C379 1.272 . S
H392 C364 0.930 . S
H393 C365 0.929 . S
H394 C367 0.930 . S
H395 C368 0.929 . S
H396 C373 0.930 . S
H397 C374 0.929 . S
H398 C376 0.930 . S
H399 C377 0.929 . S
Sm400 C402 2.846 . S
Sm400 O420 2.543 . S
Sm400 O421 2.450 . S
Sm400 O422 2.681 . S
Sm400 O423 2.464 . S
Sm400 O424 2.396 . S
Sm400 O428 2.386 . S
Sm400 O431 2.408 . S
Sm401 C411 2.846 . S
Sm401 O422 2.386 . S
Sm401 O425 2.408 . S
Sm401 O426 2.543 . S
Sm401 O427 2.450 . S
Sm401 O428 2.681 . S
Sm401 O429 2.464 . S
Sm401 O430 2.396 . S
C402 Sm400 2.846 . S
C402 C403 1.506 . S
C402 O420 1.261 . S
C402 O421 1.242 . S
C403 C402 1.506 . S
C403 C404 1.358 . S
C403 C408 1.382 . S
C404 C403 1.358 . S
C404 C405 1.385 . S
C404 H432 0.930 . S
C405 C404 1.385 . S
C405 C406 1.395 . S
C405 H433 0.929 . S
C406 C405 1.395 . S
C406 C407 1.335 . S
C407 C406 1.335 . S
C407 C408 1.398 . S
C407 H434 0.930 . S
C408 C403 1.382 . S
C408 C407 1.398 . S
C408 H435 0.929 . S
C409 O422 1.271 . S
C409 O423 1.251 . S
C410 O424 1.252 . S
C410 O425 1.272 . S
C411 Sm401 2.846 . S
C411 C412 1.506 . S
C411 O426 1.261 . S
C411 O427 1.242 . S
C412 C411 1.506 . S
C412 C413 1.358 . S
C412 C417 1.382 . S
C413 C412 1.358 . S
C413 C414 1.385 . S
C413 H436 0.930 . S
C414 C413 1.385 . S
C414 C415 1.395 . S
C414 H437 0.929 . S
C415 C414 1.395 . S
C415 C416 1.335 . S
C416 C415 1.335 . S
C416 C417 1.398 . S
C416 H438 0.930 . S
C417 C412 1.382 . S
C417 C416 1.398 . S
C417 H439 0.929 . S
C418 O428 1.271 . S
C418 O429 1.251 . S
C419 O430 1.252 . S
C419 O431 1.272 . S
O420 Sm400 2.543 . S
O420 C402 1.261 . S
O421 Sm400 2.450 . S
O421 C402 1.242 . S
O422 Sm400 2.681 . S
O422 Sm401 2.386 . S
O422 C409 1.271 . S
O423 Sm400 2.464 . S
O423 C409 1.251 . S
O424 Sm400 2.396 . S
O424 C410 1.252 . S
O425 Sm401 2.408 . S
O425 C410 1.272 . S
O426 Sm401 2.543 . S
O426 C411 1.261 . S
O427 Sm401 2.450 . S
O427 C411 1.242 . S
O428 Sm400 2.386 . S
O428 Sm401 2.681 . S
O428 C418 1.271 . S
O429 Sm401 2.464 . S
O429 C418 1.251 . S
O430 Sm401 2.396 . S
O430 C419 1.252 . S
O431 Sm400 2.408 . S
O431 C419 1.272 . S
H432 C404 0.930 . S
H433 C405 0.929 . S
H434 C407 0.930 . S
H435 C408 0.929 . S
H436 C413 0.930 . S
H437 C414 0.929 . S
H438 C416 0.930 . S
H439 C417 0.929 . S
Sm440 C442 2.846 . S
Sm440 O460 2.543 1_455 S
Sm440 O461 2.450 . S
Sm440 O462 2.681 . S
Sm440 O463 2.464 . S
Sm440 O464 2.396 1_455 S
Sm440 O468 2.386 1_455 S
Sm440 O471 2.408 . S
Sm441 C451 2.846 . S
Sm441 O462 2.386 1_655 S
Sm441 O465 2.408 . S
Sm441 O466 2.543 1_655 S
Sm441 O467 2.450 . S
Sm441 O468 2.681 . S
Sm441 O469 2.464 . S
Sm441 O470 2.396 1_655 S
C442 Sm440 2.846 . S
C442 C443 1.507 1_455 S
C442 O460 1.261 1_455 S
C442 O461 1.242 . S
C443 C442 1.507 1_655 S
C443 C444 1.362 . S
C443 C448 1.377 1_655 S
C444 C443 1.362 . S
C444 C445 1.385 . S
C444 H472 0.930 . S
C445 C444 1.385 . S
C445 C446 1.395 . S
C445 H473 0.929 . S
C446 C445 1.395 . S
C446 C447 1.335 1_655 S
C447 C446 1.335 1_455 S
C447 C448 1.398 . S
C447 H474 0.930 . S
C448 C443 1.377 1_455 S
C448 C447 1.398 . S
C448 H475 0.929 . S
C449 O462 1.271 . S
C449 O463 1.251 . S
C450 O464 1.252 . S
C450 O465 1.272 . S
C451 Sm441 2.846 . S
C451 C452 1.511 1_655 S
C451 O466 1.261 1_655 S
C451 O467 1.242 . S
C452 C451 1.511 1_455 S
C452 C453 1.379 . S
C452 C457 1.356 1_455 S
C453 C452 1.379 . S
C453 C454 1.385 . S
C453 H476 0.930 . S
C454 C453 1.385 . S
C454 C455 1.395 . S
C454 H477 0.929 . S
C455 C454 1.395 . S
C455 C456 1.335 1_455 S
C456 C455 1.335 1_655 S
C456 C457 1.398 . S
C456 H478 0.930 . S
C457 C452 1.356 1_655 S
C457 C456 1.398 . S
C457 H479 0.929 . S
C458 O468 1.271 . S
C458 O469 1.251 . S
C459 O470 1.252 . S
C459 O471 1.272 . S
O460 Sm440 2.543 1_655 S
O460 C442 1.261 1_655 S
O461 Sm440 2.450 . S
O461 C442 1.242 . S
O462 Sm440 2.681 . S
O462 Sm441 2.386 1_455 S
O462 C449 1.271 . S
O463 Sm440 2.464 . S
O463 C449 1.251 . S
O464 Sm440 2.396 1_655 S
O464 C450 1.252 . S
O465 Sm441 2.408 . S
O465 C450 1.272 . S
O466 Sm441 2.543 1_455 S
O466 C451 1.261 1_455 S
O467 Sm441 2.450 . S
O467 C451 1.242 . S
O468 Sm440 2.386 1_655 S
O468 Sm441 2.681 . S
O468 C458 1.271 . S
O469 Sm441 2.464 . S
O469 C458 1.251 . S
O470 Sm441 2.396 1_455 S
O470 C459 1.252 . S
O471 Sm440 2.408 . S
O471 C459 1.272 . S
H472 C444 0.930 . S
H473 C445 0.929 . S
H474 C447 0.930 . S
H475 C448 0.929 . S
H476 C453 0.930 . S
H477 C454 0.929 . S
H478 C456 0.930 . S
H479 C457 0.929 . S
Sm480 C482 2.846 . S
Sm480 O500 2.543 . S
Sm480 O501 2.450 . S
Sm480 O502 2.681 . S
Sm480 O503 2.464 . S
Sm480 O504 2.396 . S
Sm480 O508 2.386 . S
Sm480 O511 2.408 . S
Sm481 C491 2.846 . S
Sm481 O502 2.386 . S
Sm481 O505 2.408 . S
Sm481 O506 2.543 . S
Sm481 O507 2.450 . S
Sm481 O508 2.681 . S
Sm481 O509 2.464 . S
Sm481 O510 2.396 . S
C482 Sm480 2.846 . S
C482 C483 1.506 . S
C482 O500 1.261 . S
C482 O501 1.242 . S
C483 C482 1.506 . S
C483 C484 1.358 . S
C483 C488 1.382 . S
C484 C483 1.358 . S
C484 C485 1.385 . S
C484 H512 0.930 . S
C485 C484 1.385 . S
C485 C486 1.395 . S
C485 H513 0.929 . S
C486 C485 1.395 . S
C486 C487 1.335 . S
C487 C486 1.335 . S
C487 C488 1.398 . S
C487 H514 0.930 . S
C488 C483 1.382 . S
C488 C487 1.398 . S
C488 H515 0.929 . S
C489 O502 1.271 . S
C489 O503 1.251 . S
C490 O504 1.252 . S
C490 O505 1.272 . S
C491 Sm481 2.846 . S
C491 C492 1.506 . S
C491 O506 1.261 . S
C491 O507 1.242 . S
C492 C491 1.506 . S
C492 C493 1.358 . S
C492 C497 1.382 . S
C493 C492 1.358 . S
C493 C494 1.385 . S
C493 H516 0.930 . S
C494 C493 1.385 . S
C494 C495 1.395 . S
C494 H517 0.929 . S
C495 C494 1.395 . S
C495 C496 1.335 . S
C496 C495 1.335 . S
C496 C497 1.398 . S
C496 H518 0.930 . S
C497 C492 1.382 . S
C497 C496 1.398 . S
C497 H519 0.929 . S
C498 O508 1.271 . S
C498 O509 1.251 . S
C499 O510 1.252 . S
C499 O511 1.272 . S
O500 Sm480 2.543 . S
O500 C482 1.261 . S
O501 Sm480 2.450 . S
O501 C482 1.242 . S
O502 Sm480 2.681 . S
O502 Sm481 2.386 . S
O502 C489 1.271 . S
O503 Sm480 2.464 . S
O503 C489 1.251 . S
O504 Sm480 2.396 . S
O504 C490 1.252 . S
O505 Sm481 2.408 . S
O505 C490 1.272 . S
O506 Sm481 2.543 . S
O506 C491 1.261 . S
O507 Sm481 2.450 . S
O507 C491 1.242 . S
O508 Sm480 2.386 . S
O508 Sm481 2.681 . S
O508 C498 1.271 . S
O509 Sm481 2.464 . S
O509 C498 1.251 . S
O510 Sm481 2.396 . S
O510 C499 1.252 . S
O511 Sm480 2.408 . S
O511 C499 1.272 . S
H512 C484 0.930 . S
H513 C485 0.929 . S
H514 C487 0.930 . S
H515 C488 0.929 . S
H516 C493 0.930 . S
H517 C494 0.929 . S
H518 C496 0.930 . S
H519 C497 0.929 . S
Sm520 C522 2.846 . S
Sm520 O540 2.544 . S
Sm520 O541 2.450 . S
Sm520 O542 2.681 . S
Sm520 O543 2.464 . S
Sm520 O544 2.396 1_556 S
Sm520 O548 2.386 1_556 S
Sm520 O551 2.408 . S
Sm521 C531 2.846 . S
Sm521 O542 2.386 1_554 S
Sm521 O545 2.408 . S
Sm521 O546 2.549 . S
Sm521 O547 2.450 . S
Sm521 O548 2.681 . S
Sm521 O549 2.464 . S
Sm521 O550 2.396 1_554 S
C522 Sm520 2.846 . S
C522 C523 1.506 . S
C522 O540 1.267 . S
C522 O541 1.242 . S
C523 C522 1.506 . S
C523 C524 1.358 1_556 S
C523 C528 1.382 . S
C524 C523 1.358 1_554 S
C524 C525 1.385 . S
C524 H552 0.930 . S
C525 C524 1.385 . S
C525 C526 1.395 1_554 S
C525 H553 0.929 . S
C526 C525 1.395 1_556 S
C526 C527 1.335 . S
C527 C526 1.335 . S
C527 C528 1.398 . S
C527 H554 0.930 . S
C528 C523 1.382 . S
C528 C527 1.398 . S
C528 H555 0.929 . S
C529 O542 1.271 . S
C529 O543 1.251 . S
C530 O544 1.252 . S
C530 O545 1.272 . S
C531 Sm521 2.846 . S
C531 C532 1.506 . S
C531 O546 1.284 . S
C531 O547 1.242 . S
C532 C531 1.506 . S
C532 C533 1.358 1_554 S
C532 C537 1.382 . S
C533 C532 1.358 1_556 S
C533 C534 1.385 . S
C533 H556 0.930 . S
C534 C533 1.385 . S
C534 C535 1.395 1_556 S
C534 H557 0.929 . S
C535 C534 1.395 1_554 S
C535 C536 1.335 . S
C536 C535 1.335 . S
C536 C537 1.398 . S
C536 H558 0.930 . S
C537 C532 1.382 . S
C537 C536 1.398 . S
C537 H559 0.929 . S
C538 O548 1.271 . S
C538 O549 1.251 . S
C539 O550 1.252 . S
C539 O551 1.272 . S
O540 Sm520 2.544 . S
O540 C522 1.267 . S
O541 Sm520 2.450 . S
O541 C522 1.242 . S
O542 Sm520 2.681 . S
O542 Sm521 2.386 1_556 S
O542 C529 1.271 . S
O543 Sm520 2.464 . S
O543 C529 1.251 . S
O544 Sm520 2.396 1_554 S
O544 C530 1.252 . S
O545 Sm521 2.408 . S
O545 C530 1.272 . S
O546 Sm521 2.549 . S
O546 C531 1.284 . S
O547 Sm521 2.450 . S
O547 C531 1.242 . S
O548 Sm520 2.386 1_554 S
O548 Sm521 2.681 . S
O548 C538 1.271 . S
O549 Sm521 2.464 . S
O549 C538 1.251 . S
O550 Sm521 2.396 1_556 S
O550 C539 1.252 . S
O551 Sm520 2.408 . S
O551 C539 1.272 . S
H552 C524 0.930 . S
H553 C525 0.929 . S
H554 C527 0.930 . S
H555 C528 0.929 . S
H556 C533 0.930 . S
H557 C534 0.929 . S
H558 C536 0.930 . S
H559 C537 0.929 . S
Sm560 C562 2.846 . S
Sm560 O580 2.543 . S
Sm560 O581 2.450 . S
Sm560 O582 2.681 . S
Sm560 O583 2.464 . S
Sm560 O584 2.396 . S
Sm560 O588 2.386 1_565 S
Sm560 O591 2.408 1_565 S
Sm561 C571 2.846 . S
Sm561 O582 2.386 1_545 S
Sm561 O585 2.408 1_545 S
Sm561 O586 2.543 . S
Sm561 O587 2.450 . S
Sm561 O588 2.681 . S
Sm561 O589 2.464 . S
Sm561 O590 2.396 . S
C562 Sm560 2.846 . S
C562 C563 1.506 . S
C562 O580 1.261 . S
C562 O581 1.242 . S
C563 C562 1.506 . S
C563 C564 1.358 . S
C563 C568 1.382 . S
C564 C563 1.358 . S
C564 C565 1.385 . S
C564 H592 0.930 . S
C565 C564 1.385 . S
C565 C566 1.395 . S
C565 H593 0.929 . S
C566 C565 1.395 . S
C566 C567 1.335 . S
C567 C566 1.335 . S
C567 C568 1.398 . S
C567 H594 0.930 . S
C568 C563 1.382 . S
C568 C567 1.398 . S
C568 H595 0.929 . S
C569 O582 1.271 . S
C569 O583 1.251 . S
C570 O584 1.252 . S
C570 O585 1.272 . S
C571 Sm561 2.846 . S
C571 C572 1.506 . S
C571 O586 1.261 . S
C571 O587 1.242 . S
C572 C571 1.506 . S
C572 C573 1.358 . S
C572 C577 1.382 . S
C573 C572 1.358 . S
C573 C574 1.385 . S
C573 H596 0.930 . S
C574 C573 1.385 . S
C574 C575 1.395 . S
C574 H597 0.929 . S
C575 C574 1.395 . S
C575 C576 1.335 . S
C576 C575 1.335 . S
C576 C577 1.398 . S
C576 H598 0.930 . S
C577 C572 1.382 . S
C577 C576 1.398 . S
C577 H599 0.929 . S
C578 O588 1.271 . S
C578 O589 1.251 . S
C579 O590 1.252 . S
C579 O591 1.272 . S
O580 Sm560 2.543 . S
O580 C562 1.261 . S
O581 Sm560 2.450 . S
O581 C562 1.242 . S
O582 Sm560 2.681 . S
O582 Sm561 2.386 1_565 S
O582 C569 1.271 . S
O583 Sm560 2.464 . S
O583 C569 1.251 . S
O584 Sm560 2.396 . S
O584 C570 1.252 . S
O585 Sm561 2.408 1_565 S
O585 C570 1.272 . S
O586 Sm561 2.543 . S
O586 C571 1.261 . S
O587 Sm561 2.450 . S
O587 C571 1.242 . S
O588 Sm560 2.386 1_545 S
O588 Sm561 2.681 . S
O588 C578 1.271 . S
O589 Sm561 2.464 . S
O589 C578 1.251 . S
O590 Sm561 2.396 . S
O590 C579 1.252 . S
O591 Sm560 2.408 1_545 S
O591 C579 1.272 . S
H592 C564 0.930 . S
H593 C565 0.929 . S
H594 C567 0.930 . S
H595 C568 0.929 . S
H596 C573 0.930 . S
H597 C574 0.929 . S
H598 C576 0.930 . S
H599 C577 0.929 . S
Sm600 C602 2.846 . S
Sm600 O620 2.543 . S
Sm600 O621 2.450 . S
Sm600 O622 2.681 . S
Sm600 O623 2.464 . S
Sm600 O624 2.383 1_554 S
Sm600 O628 2.386 1_554 S
Sm600 O631 2.408 . S
Sm601 C611 2.846 . S
Sm601 O622 2.386 1_556 S
Sm601 O625 2.408 . S
Sm601 O626 2.543 . S
Sm601 O627 2.450 . S
Sm601 O628 2.681 . S
Sm601 O629 2.464 . S
Sm601 O630 2.370 1_556 S
C602 Sm600 2.846 . S
C602 C603 1.506 . S
C602 O620 1.261 . S
C602 O621 1.242 . S
C603 C602 1.506 . S
C603 C604 1.358 . S
C603 C608 1.382 . S
C604 C603 1.358 . S
C604 C605 1.385 . S
C604 H632 0.932 1_554 S
C605 C604 1.385 . S
C605 C606 1.395 . S
C605 H633 0.929 . S
C606 C605 1.395 . S
C606 C607 1.335 . S
C607 C606 1.335 . S
C607 C608 1.398 . S
C607 H634 0.930 . S
C608 C603 1.382 . S
C608 C607 1.398 . S
C608 H635 0.929 . S
C609 O622 1.271 . S
C609 O623 1.251 . S
C610 O624 1.270 . S
C610 O625 1.272 . S
C611 Sm601 2.846 . S
C611 C612 1.506 . S
C611 O626 1.261 . S
C611 O627 1.242 . S
C612 C611 1.506 . S
C612 C613 1.358 . S
C612 C617 1.382 . S
C613 C612 1.358 . S
C613 C614 1.385 . S
C613 H636 0.917 1_556 S
C614 C613 1.385 . S
C614 C615 1.395 . S
C614 H637 0.929 . S
C615 C614 1.395 . S
C615 C616 1.335 . S
C616 C615 1.335 . S
C616 C617 1.398 . S
C616 H638 0.930 . S
C617 C612 1.382 . S
C617 C616 1.398 . S
C617 H639 0.929 . S
C618 O628 1.271 . S
C618 O629 1.251 . S
C619 O630 1.289 . S
C619 O631 1.272 . S
O620 Sm600 2.543 . S
O620 C602 1.261 . S
O621 Sm600 2.450 . S
O621 C602 1.242 . S
O622 Sm600 2.681 . S
O622 Sm601 2.386 1_554 S
O622 C609 1.271 . S
O623 Sm600 2.464 . S
O623 C609 1.251 . S
O624 Sm600 2.383 1_556 S
O624 C610 1.270 . S
O625 Sm601 2.408 . S
O625 C610 1.272 . S
O626 Sm601 2.543 . S
O626 C611 1.261 . S
O627 Sm601 2.450 . S
O627 C611 1.242 . S
O628 Sm600 2.386 1_556 S
O628 Sm601 2.681 . S
O628 C618 1.271 . S
O629 Sm601 2.464 . S
O629 C618 1.251 . S
O630 Sm601 2.370 1_554 S
O630 C619 1.289 . S
O631 Sm600 2.408 . S
O631 C619 1.272 . S
H632 C604 0.932 1_556 S
H633 C605 0.929 . S
H634 C607 0.930 . S
H635 C608 0.929 . S
H636 C613 0.917 1_554 S
H637 C614 0.929 . S
H638 C616 0.930 . S
H639 C617 0.929 . S
H640 C646 0.930 . S
H641 C650 0.930 . S
H642 C655 0.929 . S
H643 C653 0.929 . S
H644 C648 0.929 . S
H645 C654 0.929 . S
C646 H640 0.930 . S
C646 C647 1.367 . S
C646 C654 1.378 . S
C647 C646 1.367 . S
C647 C655 1.433 1_655 S
C648 H644 0.929 . S
C648 C650 1.378 . S
C648 C652 1.362 . S
C649 C652 1.454 1_655 S
C649 C654 1.350 . S
C649 N657 1.427 1_655 S
C650 H641 0.930 . S
C650 C648 1.378 . S
C650 C651 1.367 . S
C651 C650 1.367 . S
C651 C653 1.433 1_455 S
C652 C648 1.362 . S
C652 C649 1.454 1_455 S
C652 N656 1.423 1_455 S
C653 H643 0.929 . S
C653 C651 1.433 1_655 S
C653 N656 1.384 . S
C654 H645 0.929 . S
C654 C646 1.378 . S
C654 C649 1.350 . S
C655 H642 0.929 . S
C655 C647 1.433 1_455 S
C655 N657 1.384 . S
N656 C652 1.423 1_655 S
N656 C653 1.384 . S
N657 C649 1.427 1_455 S
N657 C655 1.384 . S
H658 C664 0.930 . S
H659 C668 0.930 . S
H660 C673 0.929 . S
H661 C671 0.929 . S
H662 C666 0.929 . S
H663 C672 0.929 . S
C664 H658 0.930 . S
C664 C665 1.367 . S
C664 C672 1.378 . S
C665 C664 1.367 . S
C665 C673 1.433 . S
C666 H662 0.929 . S
C666 C668 1.378 . S
C666 C670 1.350 . S
C667 C670 1.463 . S
C667 C672 1.350 . S
C667 N675 1.427 . S
C668 H659 0.930 . S
C668 C666 1.378 . S
C668 C669 1.367 . S
C669 C668 1.367 . S
C669 C671 1.433 . S
C670 C666 1.350 . S
C670 C667 1.463 . S
C670 N674 1.427 . S
C671 H661 0.929 . S
C671 C669 1.433 . S
C671 N674 1.384 . S
C672 H663 0.929 . S
C672 C664 1.378 . S
C672 C667 1.350 . S
C673 H660 0.929 . S
C673 C665 1.433 . S
C673 N675 1.384 . S
N674 C670 1.427 . S
N674 C671 1.384 . S
N675 C667 1.427 . S
N675 C673 1.384 . S
H676 C682 0.930 . S
H677 C686 0.930 . S
H678 C691 0.929 . S
H679 C689 0.929 . S
H680 C684 0.929 . S
H681 C690 0.929 . S
C682 H676 0.930 . S
C682 C683 1.367 . S
C682 C690 1.378 . S
C683 C682 1.367 . S
C683 C691 1.433 . S
C684 H680 0.929 . S
C684 C686 1.378 . S
C684 C688 1.350 . S
C685 C688 1.463 . S
C685 C690 1.350 . S
C685 N693 1.427 . S
C686 H677 0.930 . S
C686 C684 1.378 . S
C686 C687 1.367 . S
C687 C686 1.367 . S
C687 C689 1.433 . S
C688 C684 1.350 . S
C688 C685 1.463 . S
C688 N692 1.427 . S
C689 H679 0.929 . S
C689 C687 1.433 . S
C689 N692 1.384 . S
C690 H681 0.929 . S
C690 C682 1.378 . S
C690 C685 1.350 . S
C691 H678 0.929 . S
C691 C683 1.433 . S
C691 N693 1.384 . S
N692 C688 1.427 . S
N692 C689 1.384 . S
N693 C685 1.427 . S
N693 C691 1.384 . S
H694 C700 0.930 . S
H695 C704 0.930 . S
H696 C709 0.929 . S
H697 C707 0.929 . S
H698 C702 0.929 . S
H699 C708 0.929 . S
C700 H694 0.930 . S
C700 C701 1.367 . S
C700 C708 1.378 . S
C701 C700 1.367 . S
C701 C709 1.433 . S
C702 H698 0.929 . S
C702 C704 1.378 . S
C702 C706 1.350 1_565 S
C703 C706 1.463 . S
C703 C708 1.350 . S
C703 N711 1.427 . S
C704 H695 0.930 . S
C704 C702 1.378 . S
C704 C705 1.367 . S
C705 C704 1.367 . S
C705 C707 1.433 1_565 S
C706 C702 1.350 1_545 S
C706 C703 1.463 . S
C706 N710 1.427 . S
C707 H697 0.929 . S
C707 C705 1.433 1_545 S
C707 N710 1.384 . S
C708 H699 0.929 . S
C708 C700 1.378 . S
C708 C703 1.350 . S
C709 H696 0.929 . S
C709 C701 1.433 . S
C709 N711 1.384 . S
N710 C706 1.427 . S
N710 C707 1.384 . S
N711 C703 1.427 . S
N711 C709 1.384 . S
H712 C718 0.930 . S
H713 C722 0.930 . S
H714 C727 0.929 . S
H715 C725 0.929 . S
H716 C720 0.929 . S
H717 C726 0.929 . S
C718 H712 0.930 . S
C718 C719 1.367 . S
C718 C726 1.378 . S
C719 C718 1.367 . S
C719 C727 1.433 . S
C720 H716 0.929 . S
C720 C722 1.378 . S
C720 C724 1.350 1_545 S
C721 C724 1.463 . S
C721 C726 1.350 . S
C721 N729 1.427 . S
C722 H713 0.930 . S
C722 C720 1.378 . S
C722 C723 1.367 . S
C723 C722 1.367 . S
C723 C725 1.433 1_545 S
C724 C720 1.350 1_565 S
C724 C721 1.463 . S
C724 N728 1.427 . S
C725 H715 0.929 . S
C725 C723 1.433 1_565 S
C725 N728 1.384 . S
C726 H717 0.929 . S
C726 C718 1.378 . S
C726 C721 1.350 . S
C727 H714 0.929 . S
C727 C719 1.433 . S
C727 N729 1.384 . S
N728 C724 1.427 . S
N728 C725 1.384 . S
N729 C721 1.427 . S
N729 C727 1.384 . S
H730 C736 0.930 . S
H731 C740 0.930 . S
H732 C745 0.929 . S
H733 C743 0.929 . S
H734 C738 0.929 . S
H735 C744 0.939 . S
C736 H730 0.930 . S
C736 C737 1.367 . S
C736 C744 1.367 1_455 S
C737 C736 1.367 . S
C737 C745 1.433 . S
C738 H734 0.929 . S
C738 C740 1.378 . S
C738 C742 1.350 . S
C739 C742 1.463 . S
C739 C744 1.350 1_455 S
C739 N747 1.427 . S
C740 H731 0.930 . S
C740 C738 1.378 . S
C740 C741 1.367 1_455 S
C741 C740 1.367 1_655 S
C741 C743 1.433 . S
C742 C738 1.350 . S
C742 C739 1.463 . S
C742 N746 1.427 1_455 S
C743 H733 0.929 . S
C743 C741 1.433 . S
C743 N746 1.384 . S
C744 H735 0.939 . S
C744 C736 1.367 1_655 S
C744 C739 1.350 1_655 S
C745 H732 0.929 . S
C745 C737 1.433 . S
C745 N747 1.384 . S
N746 C742 1.427 1_655 S
N746 C743 1.384 . S
N747 C739 1.427 . S
N747 C745 1.384 . S
H748 C754 0.930 . S
H749 C758 0.930 . S
H750 C763 0.929 . S
H751 C761 0.929 . S
H752 C756 0.929 . S
H753 C762 0.929 . S
C754 H748 0.930 . S
C754 C755 1.367 . S
C754 C762 1.378 . S
C755 C754 1.367 . S
C755 C763 1.433 . S
C756 H752 0.929 . S
C756 C758 1.378 . S
C756 C760 1.350 . S
C757 C760 1.463 . S
C757 C762 1.350 . S
C757 N765 1.427 . S
C758 H749 0.930 . S
C758 C756 1.378 . S
C758 C759 1.367 . S
C759 C758 1.367 . S
C759 C761 1.433 . S
C760 C756 1.350 . S
C760 C757 1.463 . S
C760 N764 1.427 . S
C761 H751 0.929 . S
C761 C759 1.433 . S
C761 N764 1.384 . S
C762 H753 0.929 . S
C762 C754 1.378 . S
C762 C757 1.350 . S
C763 H750 0.929 . S
C763 C755 1.433 . S
C763 N765 1.384 . S
N764 C760 1.427 . S
N764 C761 1.384 . S
N765 C757 1.427 . S
N765 C763 1.384 . S
H766 C772 0.930 . S
H767 C776 0.930 . S
H768 C781 0.929 . S
H769 C779 0.929 . S
H770 C774 0.929 . S
H771 C780 0.929 . S
C772 H766 0.930 . S
C772 C773 1.367 . S
C772 C780 1.378 . S
C773 C772 1.367 . S
C773 C781 1.433 . S
C774 H770 0.929 . S
C774 C776 1.378 . S
C774 C778 1.350 . S
C775 C778 1.463 . S
C775 C780 1.350 . S
C775 N783 1.427 . S
C776 H767 0.930 . S
C776 C774 1.378 . S
C776 C777 1.367 . S
C777 C776 1.367 . S
C777 C779 1.433 . S
C778 C774 1.350 . S
C778 C775 1.463 . S
C778 N782 1.427 . S
C779 H769 0.929 . S
C779 C777 1.433 . S
C779 N782 1.384 . S
C780 H771 0.929 . S
C780 C772 1.378 . S
C780 C775 1.350 . S
C781 H768 0.929 . S
C781 C773 1.433 . S
C781 N783 1.384 . S
N782 C778 1.427 . S
N782 C779 1.384 . S
N783 C775 1.427 . S
N783 C781 1.384 . S
H784 C790 0.930 . S
H785 C794 0.930 . S
H786 C799 0.929 . S
H787 C797 0.929 . S
H788 C792 0.929 . S
H789 C798 0.929 . S
C790 H784 0.930 . S
C790 C791 1.367 . S
C790 C798 1.378 . S
C791 C790 1.367 . S
C791 C799 1.433 . S
C792 H788 0.929 . S
C792 C794 1.378 . S
C792 C796 1.350 . S
C793 C796 1.463 . S
C793 C798 1.350 . S
C793 N801 1.427 . S
C794 H785 0.930 . S
C794 C792 1.378 . S
C794 C795 1.367 . S
C795 C794 1.367 . S
C795 C797 1.433 . S
C796 C792 1.350 . S
C796 C793 1.463 . S
C796 N800 1.427 . S
C797 H787 0.929 . S
C797 C795 1.433 . S
C797 N800 1.384 . S
C798 H789 0.929 . S
C798 C790 1.378 . S
C798 C793 1.350 . S
C799 H786 0.929 . S
C799 C791 1.433 . S
C799 N801 1.384 . S
N800 C796 1.427 . S
N800 C797 1.384 . S
N801 C793 1.427 . S
N801 C799 1.384 . S
H802 C808 0.930 . S
H803 C812 0.930 . S
H804 C817 0.929 . S
H805 C815 0.929 . S
H806 C810 0.929 . S
H807 C816 0.929 . S
C808 H802 0.930 . S
C808 C809 1.367 . S
C808 C816 1.378 . S
C809 C808 1.367 . S
C809 C817 1.433 . S
C810 H806 0.929 . S
C810 C812 1.378 . S
C810 C814 1.350 . S
C811 C814 1.463 . S
C811 C816 1.350 . S
C811 N819 1.427 . S
C812 H803 0.930 . S
C812 C810 1.378 . S
C812 C813 1.367 . S
C813 C812 1.367 . S
C813 C815 1.433 . S
C814 C810 1.350 . S
C814 C811 1.463 . S
C814 N818 1.427 . S
C815 H805 0.929 . S
C815 C813 1.433 . S
C815 N818 1.384 . S
C816 H807 0.929 . S
C816 C808 1.378 . S
C816 C811 1.350 . S
C817 H804 0.929 . S
C817 C809 1.433 . S
C817 N819 1.384 . S
N818 C814 1.427 . S
N818 C815 1.384 . S
N819 C811 1.427 . S
N819 C817 1.384 . S
H820 C826 0.930 . S
H821 C830 0.930 . S
H822 C835 0.929 . S
H823 C833 0.929 . S
H824 C828 0.929 . S
H825 C834 0.929 . S
C826 H820 0.930 . S
C826 C827 1.367 . S
C826 C834 1.378 . S
C827 C826 1.367 . S
C827 C835 1.433 . S
C828 H824 0.929 . S
C828 C830 1.378 . S
C828 C832 1.350 1_545 S
C829 C832 1.463 . S
C829 C834 1.350 . S
C829 N837 1.427 . S
C830 H821 0.930 . S
C830 C828 1.378 . S
C830 C831 1.367 . S
C831 C830 1.367 . S
C831 C833 1.433 . S
C832 C828 1.350 1_565 S
C832 C829 1.463 . S
C832 N836 1.427 . S
C833 H823 0.929 . S
C833 C831 1.433 . S
C833 N836 1.384 1_545 S
C834 H825 0.929 . S
C834 C826 1.378 . S
C834 C829 1.350 . S
C835 H822 0.929 . S
C835 C827 1.433 . S
C835 N837 1.384 . S
N836 C832 1.427 . S
N836 C833 1.384 1_565 S
N837 C829 1.427 . S
N837 C835 1.384 . S
H838 C844 0.930 . S
H839 C848 0.930 . S
H840 C853 0.929 1_554 S
H841 C851 0.929 . S
H842 C846 0.929 . S
H843 C852 0.929 . S
C844 H838 0.930 . S
C844 C845 1.367 . S
C844 C852 1.378 . S
C845 C844 1.367 . S
C845 C853 1.433 . S
C846 H842 0.929 . S
C846 C848 1.378 . S
C846 C850 1.336 1_655 S
C847 C850 1.481 . S
C847 C852 1.350 . S
C847 N855 1.427 . S
C848 H839 0.930 . S
C848 C846 1.378 . S
C848 C849 1.367 . S
C849 C848 1.367 . S
C849 C851 1.433 . S
C850 C846 1.336 1_455 S
C850 C847 1.481 . S
C850 N854 1.424 . S
C851 H841 0.929 . S
C851 C849 1.433 . S
C851 N854 1.384 1_655 S
C852 H843 0.929 . S
C852 C844 1.378 . S
C852 C847 1.350 . S
C853 H840 0.929 1_556 S
C853 C845 1.433 . S
C853 N855 1.384 . S
N854 C850 1.424 . S
N854 C851 1.384 1_455 S
N855 C847 1.427 . S
N855 C853 1.384 . S
H856 C862 0.930 . S
H857 C866 0.930 . S
H858 C871 0.929 . S
H859 C869 0.929 1_554 S
H860 C864 0.929 . S
H861 C870 0.929 . S
C862 H856 0.930 . S
C862 C863 1.367 . S
C862 C870 1.378 . S
C863 C862 1.367 . S
C863 C871 1.433 . S
C864 H860 0.929 . S
C864 C866 1.378 . S
C864 C868 1.350 . S
C865 C868 1.463 . S
C865 C870 1.350 . S
C865 N873 1.427 . S
C866 H857 0.930 . S
C866 C864 1.378 . S
C866 C867 1.367 . S
C867 C866 1.367 . S
C867 C869 1.433 . S
C868 C864 1.350 . S
C868 C865 1.463 . S
C868 N872 1.427 . S
C869 H859 0.929 1_556 S
C869 C867 1.433 . S
C869 N872 1.384 . S
C870 H861 0.929 . S
C870 C862 1.378 . S
C870 C865 1.350 . S
C871 H858 0.929 . S
C871 C863 1.433 . S
C871 N873 1.384 . S
N872 C868 1.427 . S
N872 C869 1.384 . S
N873 C865 1.427 . S
N873 C871 1.384 . S
H874 C880 0.930 . S
H875 C884 0.930 . S
H876 C889 0.929 . S
H877 C887 0.929 . S
H878 C882 0.929 . S
H879 C888 0.929 . S
C880 H874 0.930 . S
C880 C881 1.367 . S
C880 C888 1.378 . S
C881 C880 1.367 . S
C881 C889 1.433 . S
C882 H878 0.929 . S
C882 C884 1.378 . S
C882 C886 1.350 . S
C883 C886 1.463 . S
C883 C888 1.350 . S
C883 N891 1.427 . S
C884 H875 0.930 . S
C884 C882 1.378 . S
C884 C885 1.367 . S
C885 C884 1.367 . S
C885 C887 1.433 . S
C886 C882 1.350 . S
C886 C883 1.463 . S
C886 N890 1.427 . S
C887 H877 0.929 . S
C887 C885 1.433 . S
C887 N890 1.384 . S
C888 H879 0.929 . S
C888 C880 1.378 . S
C888 C883 1.350 . S
C889 H876 0.929 . S
C889 C881 1.433 . S
C889 N891 1.384 . S
N890 C886 1.427 . S
N890 C887 1.384 . S
N891 C883 1.427 . S
N891 C889 1.384 . S
H892 C898 0.930 . S
H893 C902 0.930 . S
H894 C907 0.929 . S
H895 C905 0.929 . S
H896 C900 0.929 . S
H897 C906 0.929 . S
C898 H892 0.930 . S
C898 C899 1.367 . S
C898 C906 1.378 . S
C899 C898 1.367 . S
C899 C907 1.433 . S
C900 H896 0.929 . S
C900 C902 1.378 . S
C900 C904 1.350 . S
C901 C904 1.463 . S
C901 C906 1.350 . S
C901 N909 1.427 . S
C902 H893 0.930 . S
C902 C900 1.378 . S
C902 C903 1.367 . S
C903 C902 1.367 . S
C903 C905 1.433 . S
C904 C900 1.350 . S
C904 C901 1.463 . S
C904 N908 1.427 . S
C905 H895 0.929 . S
C905 C903 1.433 . S
C905 N908 1.384 . S
C906 H897 0.929 . S
C906 C898 1.378 . S
C906 C901 1.350 . S
C907 H894 0.929 . S
C907 C899 1.433 . S
C907 N909 1.384 . S
N908 C904 1.427 . S
N908 C905 1.384 . S
N909 C901 1.427 . S
N909 C907 1.384 . S
H910 C916 0.930 . S
H911 C920 0.930 . S
H912 C925 0.929 . S
H913 C923 0.929 . S
H914 C918 0.929 . S
H915 C924 0.929 . S
C916 H910 0.930 . S
C916 C917 1.367 . S
C916 C924 1.378 . S
C917 C916 1.367 . S
C917 C925 1.433 . S
C918 H914 0.929 . S
C918 C920 1.378 . S
C918 C922 1.350 . S
C919 C922 1.463 . S
C919 C924 1.350 . S
C919 N927 1.427 . S
C920 H911 0.930 . S
C920 C918 1.378 . S
C920 C921 1.367 . S
C921 C920 1.367 . S
C921 C923 1.433 . S
C922 C918 1.350 . S
C922 C919 1.463 . S
C922 N926 1.427 . S
C923 H913 0.929 . S
C923 C921 1.433 . S
C923 N926 1.384 . S
C924 H915 0.929 . S
C924 C916 1.378 . S
C924 C919 1.350 . S
C925 H912 0.929 . S
C925 C917 1.433 . S
C925 N927 1.384 . S
N926 C922 1.427 . S
N926 C923 1.384 . S
N927 C919 1.427 . S
N927 C925 1.384 . S
H928 C934 0.930 . S
H929 C938 0.930 . S
H930 C943 0.929 . S
H931 C941 0.929 . S
H932 C936 0.929 . S
H933 C942 0.929 . S
C934 H928 0.930 . S
C934 C935 1.367 . S
C934 C942 1.378 . S
C935 C934 1.367 . S
C935 C943 1.433 . S
C936 H932 0.929 . S
C936 C938 1.378 . S
C936 C940 1.350 . S
C937 C940 1.463 . S
C937 C942 1.350 . S
C937 N945 1.427 . S
C938 H929 0.930 . S
C938 C936 1.378 . S
C938 C939 1.367 . S
C939 C938 1.367 . S
C939 C941 1.433 . S
C940 C936 1.350 . S
C940 C937 1.463 . S
C940 N944 1.427 . S
C941 H931 0.929 . S
C941 C939 1.433 . S
C941 N944 1.384 . S
C942 H933 0.929 . S
C942 C934 1.378 . S
C942 C937 1.350 . S
C943 H930 0.929 . S
C943 C935 1.433 . S
C943 N945 1.384 . S
N944 C940 1.427 . S
N944 C941 1.384 . S
N945 C937 1.427 . S
N945 C943 1.384 . S
H946 C952 0.930 . S
H947 C956 0.930 . S
H948 C961 0.929 . S
H949 C959 0.929 . S
H950 C954 0.929 . S
H951 C960 0.929 . S
C952 H946 0.930 . S
C952 C953 1.367 . S
C952 C960 1.378 . S
C953 C952 1.367 . S
C953 C961 1.433 . S
C954 H950 0.929 . S
C954 C956 1.378 . S
C954 C958 1.350 . S
C955 C958 1.463 . S
C955 C960 1.350 . S
C955 N963 1.427 . S
C956 H947 0.930 . S
C956 C954 1.378 . S
C956 C957 1.367 . S
C957 C956 1.367 . S
C957 C959 1.433 . S
C958 C954 1.350 . S
C958 C955 1.463 . S
C958 N962 1.427 . S
C959 H949 0.929 . S
C959 C957 1.433 . S
C959 N962 1.384 . S
C960 H951 0.929 . S
C960 C952 1.378 . S
C960 C955 1.350 . S
C961 H948 0.929 . S
C961 C953 1.433 . S
C961 N963 1.384 . S
N962 C958 1.427 . S
N962 C959 1.384 . S
N963 C955 1.427 . S
N963 C961 1.384 . S
H964 C970 0.930 . S
H965 C974 0.930 . S
H966 C979 0.929 . S
H967 C977 0.929 . S
H968 C972 0.929 . S
H969 C978 0.929 . S
C970 H964 0.930 . S
C970 C971 1.367 . S
C970 C978 1.378 . S
C971 C970 1.367 . S
C971 C979 1.433 . S
C972 H968 0.929 . S
C972 C974 1.378 . S
C972 C976 1.350 . S
C973 C976 1.463 . S
C973 C978 1.350 . S
C973 N981 1.427 . S
C974 H965 0.930 . S
C974 C972 1.378 . S
C974 C975 1.367 . S
C975 C974 1.367 . S
C975 C977 1.433 . S
C976 C972 1.350 . S
C976 C973 1.463 . S
C976 N980 1.427 . S
C977 H967 0.929 . S
C977 C975 1.433 . S
C977 N980 1.384 . S
C978 H969 0.929 . S
C978 C970 1.378 . S
C978 C973 1.350 . S
C979 H966 0.929 . S
C979 C971 1.433 . S
C979 N981 1.384 . S
N980 C976 1.427 . S
N980 C977 1.384 . S
N981 C973 1.427 . S
N981 C979 1.384 . S
H982 C988 0.930 . S
H983 C992 0.930 . S
H984 C997 0.929 . S
H985 C995 0.929 . S
H986 C990 0.929 . S
H987 C996 0.929 . S
C988 H982 0.930 . S
C988 C989 1.367 . S
C988 C996 1.378 . S
C989 C988 1.367 . S
C989 C997 1.433 . S
C990 H986 0.929 . S
C990 C992 1.378 . S
C990 C994 1.350 . S
C991 C994 1.463 . S
C991 C996 1.350 . S
C991 N999 1.427 . S
C992 H983 0.930 . S
C992 C990 1.378 . S
C992 C993 1.367 . S
C993 C992 1.367 . S
C993 C995 1.433 . S
C994 C990 1.350 . S
C994 C991 1.463 . S
C994 N998 1.427 . S
C995 H985 0.929 . S
C995 C993 1.433 . S
C995 N998 1.384 . S
C996 H987 0.929 . S
C996 C988 1.378 . S
C996 C991 1.350 . S
C997 H984 0.929 . S
C997 C989 1.433 . S
C997 N999 1.384 . S
N998 C994 1.427 . S
N998 C995 1.384 . S
N999 C991 1.427 . S
N999 C997 1.384 . S
H1000 C1006 0.930 . S
H1001 C1010 0.930 . S
H1002 C1015 0.929 . S
H1003 C1013 0.929 . S
H1004 C1008 0.929 . S
H1005 C1014 0.929 . S
C1006 H1000 0.930 . S
C1006 C1007 1.367 . S
C1006 C1014 1.378 . S
C1007 C1006 1.367 . S
C1007 C1015 1.433 . S
C1008 H1004 0.929 . S
C1008 C1010 1.378 . S
C1008 C1012 1.350 . S
C1009 C1012 1.463 . S
C1009 C1014 1.350 . S
C1009 N1017 1.427 . S
C1010 H1001 0.930 . S
C1010 C1008 1.378 . S
C1010 C1011 1.367 . S
C1011 C1010 1.367 . S
C1011 C1013 1.433 . S
C1012 C1008 1.350 . S
C1012 C1009 1.463 . S
C1012 N1016 1.427 . S
C1013 H1003 0.929 . S
C1013 C1011 1.433 . S
C1013 N1016 1.384 . S
C1014 H1005 0.929 . S
C1014 C1006 1.378 . S
C1014 C1009 1.350 . S
C1015 H1002 0.929 . S
C1015 C1007 1.433 . S
C1015 N1017 1.384 . S
N1016 C1012 1.427 . S
N1016 C1013 1.384 . S
N1017 C1009 1.427 . S
N1017 C1015 1.384 . S
H1018 C1024 0.930 . S
H1019 C1028 0.930 . S
H1020 C1033 0.929 . S
H1021 C1031 0.929 . S
H1022 C1026 0.929 . S
H1023 C1032 0.929 . S
C1024 H1018 0.930 . S
C1024 C1025 1.367 1_655 S
C1024 C1032 1.378 . S
C1025 C1024 1.367 1_455 S
C1025 C1033 1.433 . S
C1026 H1022 0.929 . S
C1026 C1028 1.378 . S
C1026 C1030 1.350 1_455 S
C1027 C1030 1.487 . S
C1027 C1032 1.360 . S
C1027 N1035 1.393 1_655 S
C1028 H1019 0.930 . S
C1028 C1026 1.378 . S
C1028 C1029 1.367 1_455 S
C1029 C1028 1.367 1_655 S
C1029 C1031 1.433 . S
C1030 C1026 1.350 1_655 S
C1030 C1027 1.487 . S
C1030 N1034 1.427 . S
C1031 H1021 0.929 . S
C1031 C1029 1.433 . S
C1031 N1034 1.384 . S
C1032 H1023 0.929 . S
C1032 C1024 1.378 . S
C1032 C1027 1.360 . S
C1033 H1020 0.929 . S
C1033 C1025 1.433 . S
C1033 N1035 1.384 . S
N1034 C1030 1.427 . S
N1034 C1031 1.384 . S
N1035 C1027 1.393 1_455 S
N1035 C1033 1.384 . S
H1036 C1042 0.930 . S
H1037 C1046 0.930 . S
H1038 C1051 0.929 . S
H1039 C1049 0.929 . S
H1040 C1044 0.929 . S
H1041 C1050 0.929 . S
C1042 H1036 0.930 . S
C1042 C1043 1.367 . S
C1042 C1050 1.378 . S
C1043 C1042 1.367 . S
C1043 C1051 1.433 . S
C1044 H1040 0.929 . S
C1044 C1046 1.378 . S
C1044 C1048 1.350 . S
C1045 C1048 1.463 . S
C1045 C1050 1.350 . S
C1045 N1053 1.427 . S
C1046 H1037 0.930 . S
C1046 C1044 1.378 . S
C1046 C1047 1.367 . S
C1047 C1046 1.367 . S
C1047 C1049 1.433 . S
C1048 C1044 1.350 . S
C1048 C1045 1.463 . S
C1048 N1052 1.427 . S
C1049 H1039 0.929 . S
C1049 C1047 1.433 . S
C1049 N1052 1.384 . S
C1050 H1041 0.929 . S
C1050 C1042 1.378 . S
C1050 C1045 1.350 . S
C1051 H1038 0.929 . S
C1051 C1043 1.433 . S
C1051 N1053 1.384 . S
N1052 C1048 1.427 . S
N1052 C1049 1.384 . S
N1053 C1045 1.427 . S
N1053 C1051 1.384 . S
H1054 C1060 0.930 . S
H1055 C1064 0.930 . S
H1056 C1069 0.929 . S
H1057 C1067 0.929 . S
H1058 C1062 0.929 . S
H1059 C1068 0.929 . S
C1060 H1054 0.930 . S
C1060 C1061 1.367 . S
C1060 C1068 1.378 . S
C1061 C1060 1.367 . S
C1061 C1069 1.433 . S
C1062 H1058 0.929 . S
C1062 C1064 1.378 . S
C1062 C1066 1.350 . S
C1063 C1066 1.463 . S
C1063 C1068 1.350 . S
C1063 N1071 1.427 . S
C1064 H1055 0.930 . S
C1064 C1062 1.378 . S
C1064 C1065 1.367 . S
C1065 C1064 1.367 . S
C1065 C1067 1.433 . S
C1066 C1062 1.350 . S
C1066 C1063 1.463 . S
C1066 N1070 1.427 . S
C1067 H1057 0.929 . S
C1067 C1065 1.433 . S
C1067 N1070 1.384 . S
C1068 H1059 0.929 . S
C1068 C1060 1.378 . S
C1068 C1063 1.350 . S
C1069 H1056 0.929 . S
C1069 C1061 1.433 . S
C1069 N1071 1.384 . S
N1070 C1066 1.427 . S
N1070 C1067 1.384 . S
N1071 C1063 1.427 . S
N1071 C1069 1.384 . S
H1072 C1078 0.930 . S
H1073 C1082 0.930 . S
H1074 C1087 0.929 . S
H1075 C1085 0.929 . S
H1076 C1080 0.929 . S
H1077 C1086 0.929 . S
C1078 H1072 0.930 . S
C1078 C1079 1.367 . S
C1078 C1086 1.378 . S
C1079 C1078 1.367 . S
C1079 C1087 1.433 . S
C1080 H1076 0.929 . S
C1080 C1082 1.378 . S
C1080 C1084 1.350 . S
C1081 C1084 1.463 . S
C1081 C1086 1.350 . S
C1081 N1089 1.427 . S
C1082 H1073 0.930 . S
C1082 C1080 1.378 . S
C1082 C1083 1.367 . S
C1083 C1082 1.367 . S
C1083 C1085 1.433 . S
C1084 C1080 1.350 . S
C1084 C1081 1.463 . S
C1084 N1088 1.427 . S
C1085 H1075 0.929 . S
C1085 C1083 1.433 . S
C1085 N1088 1.384 . S
C1086 H1077 0.929 . S
C1086 C1078 1.378 . S
C1086 C1081 1.350 . S
C1087 H1074 0.929 . S
C1087 C1079 1.433 . S
C1087 N1089 1.384 . S
N1088 C1084 1.427 . S
N1088 C1085 1.384 . S
N1089 C1081 1.427 . S
N1089 C1087 1.384 . S
H1090 C1096 0.930 . S
H1091 C1100 0.930 . S
H1092 C1105 0.929 . S
H1093 C1103 0.929 . S
H1094 C1098 0.929 . S
H1095 C1104 0.929 . S
C1096 H1090 0.930 . S
C1096 C1097 1.367 . S
C1096 C1104 1.378 . S
C1097 C1096 1.367 . S
C1097 C1105 1.433 . S
C1098 H1094 0.929 . S
C1098 C1100 1.378 . S
C1098 C1102 1.350 . S
C1099 C1102 1.463 . S
C1099 C1104 1.350 . S
C1099 N1107 1.427 . S
C1100 H1091 0.930 . S
C1100 C1098 1.378 . S
C1100 C1101 1.367 . S
C1101 C1100 1.367 . S
C1101 C1103 1.433 . S
C1102 C1098 1.350 . S
C1102 C1099 1.463 . S
C1102 N1106 1.427 . S
C1103 H1093 0.929 . S
C1103 C1101 1.433 . S
C1103 N1106 1.384 . S
C1104 H1095 0.929 . S
C1104 C1096 1.378 . S
C1104 C1099 1.350 . S
C1105 H1092 0.929 . S
C1105 C1097 1.433 . S
C1105 N1107 1.384 . S
N1106 C1102 1.427 . S
N1106 C1103 1.384 . S
N1107 C1099 1.427 . S
N1107 C1105 1.384 . S
H1108 C1114 0.930 . S
H1109 C1118 0.930 . S
H1110 C1123 0.929 . S
H1111 C1121 0.929 . S
H1112 C1116 0.929 1_565 S
H1113 C1122 0.929 . S
C1114 H1108 0.930 . S
C1114 C1115 1.367 1_545 S
C1114 C1122 1.378 . S
C1115 C1114 1.367 1_565 S
C1115 C1123 1.433 . S
C1116 H1112 0.929 1_545 S
C1116 C1118 1.378 . S
C1116 C1120 1.350 . S
C1117 C1120 1.463 . S
C1117 C1122 1.350 . S
C1117 N1125 1.427 1_545 S
C1118 H1109 0.930 . S
C1118 C1116 1.378 . S
C1118 C1119 1.367 . S
C1119 C1118 1.367 . S
C1119 C1121 1.433 . S
C1120 C1116 1.350 . S
C1120 C1117 1.463 . S
C1120 N1124 1.427 . S
C1121 H1111 0.929 . S
C1121 C1119 1.433 . S
C1121 N1124 1.384 . S
C1122 H1113 0.929 . S
C1122 C1114 1.378 . S
C1122 C1117 1.350 . S
C1123 H1110 0.929 . S
C1123 C1115 1.433 . S
C1123 N1125 1.384 . S
N1124 C1120 1.427 . S
N1124 C1121 1.384 . S
N1125 C1117 1.427 1_565 S
N1125 C1123 1.384 . S
H1126 C1132 0.930 . S
H1127 C1136 0.930 . S
H1128 C1141 0.929 . S
H1129 C1139 0.929 . S
H1130 C1134 0.929 . S
H1131 C1140 0.929 . S
C1132 H1126 0.930 . S
C1132 C1133 1.367 . S
C1132 C1140 1.378 . S
C1133 C1132 1.367 . S
C1133 C1141 1.433 1_554 S
C1134 H1130 0.929 . S
C1134 C1136 1.378 . S
C1134 C1138 1.350 . S
C1135 C1138 1.463 . S
C1135 C1140 1.350 . S
C1135 N1143 1.427 . S
C1136 H1127 0.930 . S
C1136 C1134 1.378 . S
C1136 C1137 1.367 . S
C1137 C1136 1.367 . S
C1137 C1139 1.433 . S
C1138 C1134 1.350 . S
C1138 C1135 1.463 . S
C1138 N1142 1.427 . S
C1139 H1129 0.929 . S
C1139 C1137 1.433 . S
C1139 N1142 1.384 . S
C1140 H1131 0.929 . S
C1140 C1132 1.378 . S
C1140 C1135 1.350 . S
C1141 H1128 0.929 . S
C1141 C1133 1.433 1_556 S
C1141 N1143 1.384 1_556 S
N1142 C1138 1.427 . S
N1142 C1139 1.384 . S
N1143 C1135 1.427 . S
N1143 C1141 1.384 1_554 S
H1144 C1150 0.930 . S
H1145 C1154 0.930 . S
H1146 C1159 0.929 . S
H1147 C1157 0.929 . S
H1148 C1152 0.929 . S
H1149 C1158 0.929 . S
C1150 H1144 0.930 . S
C1150 C1151 1.367 . S
C1150 C1158 1.378 . S
C1151 C1150 1.367 . S
C1151 C1159 1.433 . S
C1152 H1148 0.929 . S
C1152 C1154 1.378 . S
C1152 C1156 1.350 . S
C1153 C1156 1.463 . S
C1153 C1158 1.350 . S
C1153 N1161 1.427 . S
C1154 H1145 0.930 . S
C1154 C1152 1.378 . S
C1154 C1155 1.367 . S
C1155 C1154 1.367 . S
C1155 C1157 1.433 . S
C1156 C1152 1.350 . S
C1156 C1153 1.463 . S
C1156 N1160 1.427 . S
C1157 H1147 0.929 . S
C1157 C1155 1.433 . S
C1157 N1160 1.384 . S
C1158 H1149 0.929 . S
C1158 C1150 1.378 . S
C1158 C1153 1.350 . S
C1159 H1146 0.929 . S
C1159 C1151 1.433 . S
C1159 N1161 1.384 . S
N1160 C1156 1.427 . S
N1160 C1157 1.384 . S
N1161 C1153 1.427 . S
N1161 C1159 1.384 . S
H1162 C1168 0.930 . S
H1163 C1172 0.930 . S
H1164 C1177 0.929 . S
H1165 C1175 0.929 . S
H1166 C1170 0.929 . S
H1167 C1176 0.929 . S
C1168 H1162 0.930 . S
C1168 C1169 1.367 . S
C1168 C1176 1.378 . S
C1169 C1168 1.367 . S
C1169 C1177 1.433 . S
C1170 H1166 0.929 . S
C1170 C1172 1.378 . S
C1170 C1174 1.350 . S
C1171 C1174 1.463 . S
C1171 C1176 1.350 . S
C1171 N1179 1.427 . S
C1172 H1163 0.930 . S
C1172 C1170 1.378 . S
C1172 C1173 1.367 . S
C1173 C1172 1.367 . S
C1173 C1175 1.433 . S
C1174 C1170 1.350 . S
C1174 C1171 1.463 . S
C1174 N1178 1.427 . S
C1175 H1165 0.929 . S
C1175 C1173 1.433 . S
C1175 N1178 1.384 . S
C1176 H1167 0.929 . S
C1176 C1168 1.378 . S
C1176 C1171 1.350 . S
C1177 H1164 0.929 . S
C1177 C1169 1.433 . S
C1177 N1179 1.384 . S
N1178 C1174 1.427 . S
N1178 C1175 1.384 . S
N1179 C1171 1.427 . S
N1179 C1177 1.384 . S
H1180 C1186 0.930 . S
H1181 C1190 0.930 . S
H1182 C1195 0.929 . S
H1183 C1193 0.929 . S
H1184 C1188 0.929 . S
H1185 C1194 0.929 . S
C1186 H1180 0.930 . S
C1186 C1187 1.367 . S
C1186 C1194 1.378 . S
C1187 C1186 1.367 . S
C1187 C1195 1.433 . S
C1188 H1184 0.929 . S
C1188 C1190 1.378 . S
C1188 C1192 1.350 . S
C1189 C1192 1.463 . S
C1189 C1194 1.350 . S
C1189 N1197 1.427 . S
C1190 H1181 0.930 . S
C1190 C1188 1.378 . S
C1190 C1191 1.367 . S
C1191 C1190 1.367 . S
C1191 C1193 1.433 . S
C1192 C1188 1.350 . S
C1192 C1189 1.463 . S
C1192 N1196 1.427 . S
C1193 H1183 0.929 . S
C1193 C1191 1.433 . S
C1193 N1196 1.384 . S
C1194 H1185 0.929 . S
C1194 C1186 1.378 . S
C1194 C1189 1.350 . S
C1195 H1182 0.929 . S
C1195 C1187 1.433 . S
C1195 N1197 1.384 . S
N1196 C1192 1.427 . S
N1196 C1193 1.384 . S
N1197 C1189 1.427 . S
N1197 C1195 1.384 . S
H1198 C1204 0.930 . S
H1199 C1208 0.930 . S
H1200 C1213 0.929 . S
H1201 C1211 0.929 . S
H1202 C1206 0.929 . S
H1203 C1212 0.929 . S
C1204 H1198 0.930 . S
C1204 C1205 1.367 . S
C1204 C1212 1.378 . S
C1205 C1204 1.367 . S
C1205 C1213 1.433 . S
C1206 H1202 0.929 . S
C1206 C1208 1.378 . S
C1206 C1210 1.350 . S
C1207 C1210 1.463 . S
C1207 C1212 1.350 . S
C1207 N1215 1.427 . S
C1208 H1199 0.930 . S
C1208 C1206 1.378 . S
C1208 C1209 1.367 . S
C1209 C1208 1.367 . S
C1209 C1211 1.433 . S
C1210 C1206 1.350 . S
C1210 C1207 1.463 . S
C1210 N1214 1.427 . S
C1211 H1201 0.929 . S
C1211 C1209 1.433 . S
C1211 N1214 1.384 . S
C1212 H1203 0.929 . S
C1212 C1204 1.378 . S
C1212 C1207 1.350 . S
C1213 H1200 0.929 . S
C1213 C1205 1.433 . S
C1213 N1215 1.384 . S
N1214 C1210 1.427 . S
N1214 C1211 1.384 . S
N1215 C1207 1.427 . S
N1215 C1213 1.384 . S
H1216 C1222 0.930 . S
H1217 C1226 0.930 . S
H1218 C1231 0.929 . S
H1219 C1229 0.929 . S
H1220 C1224 0.929 . S
H1221 C1230 0.929 . S
C1222 H1216 0.930 . S
C1222 C1223 1.367 . S
C1222 C1230 1.378 . S
C1223 C1222 1.367 . S
C1223 C1231 1.433 . S
C1224 H1220 0.929 . S
C1224 C1226 1.378 . S
C1224 C1228 1.350 . S
C1225 C1228 1.463 . S
C1225 C1230 1.350 . S
C1225 N1233 1.427 . S
C1226 H1217 0.930 . S
C1226 C1224 1.378 . S
C1226 C1227 1.367 . S
C1227 C1226 1.367 . S
C1227 C1229 1.433 . S
C1228 C1224 1.350 . S
C1228 C1225 1.463 . S
C1228 N1232 1.427 . S
C1229 H1219 0.929 . S
C1229 C1227 1.433 . S
C1229 N1232 1.384 . S
C1230 H1221 0.929 . S
C1230 C1222 1.378 . S
C1230 C1225 1.350 . S
C1231 H1218 0.929 . S
C1231 C1223 1.433 . S
C1231 N1233 1.384 . S
N1232 C1228 1.427 . S
N1232 C1229 1.384 . S
N1233 C1225 1.427 . S
N1233 C1231 1.384 . S
H1234 C1240 0.930 . S
H1235 C1244 0.930 . S
H1236 C1249 0.929 . S
H1237 C1247 0.929 . S
H1238 C1242 0.929 . S
H1239 C1248 0.929 . S
C1240 H1234 0.930 . S
C1240 C1241 1.367 . S
C1240 C1248 1.378 . S
C1241 C1240 1.367 . S
C1241 C1249 1.433 . S
C1242 H1238 0.929 . S
C1242 C1244 1.378 . S
C1242 C1246 1.350 . S
C1243 C1246 1.463 . S
C1243 C1248 1.350 . S
C1243 N1251 1.427 . S
C1244 H1235 0.930 . S
C1244 C1242 1.378 . S
C1244 C1245 1.367 . S
C1245 C1244 1.367 . S
C1245 C1247 1.433 . S
C1246 C1242 1.350 . S
C1246 C1243 1.463 . S
C1246 N1250 1.427 . S
C1247 H1237 0.929 . S
C1247 C1245 1.433 . S
C1247 N1250 1.384 . S
C1248 H1239 0.929 . S
C1248 C1240 1.378 . S
C1248 C1243 1.350 . S
C1249 H1236 0.929 . S
C1249 C1241 1.433 . S
C1249 N1251 1.384 . S
N1250 C1246 1.427 . S
N1250 C1247 1.384 . S
N1251 C1243 1.427 . S
N1251 C1249 1.384 . S
H1252 C1258 0.930 . S
H1253 C1262 0.930 . S
H1254 C1267 0.929 . S
H1255 C1265 0.929 . S
H1256 C1260 0.929 . S
H1257 C1266 0.929 . S
C1258 H1252 0.930 . S
C1258 C1259 1.367 . S
C1258 C1266 1.378 . S
C1259 C1258 1.367 . S
C1259 C1267 1.433 . S
C1260 H1256 0.929 . S
C1260 C1262 1.378 . S
C1260 C1264 1.350 . S
C1261 C1264 1.463 . S
C1261 C1266 1.350 . S
C1261 N1269 1.427 . S
C1262 H1253 0.930 . S
C1262 C1260 1.378 . S
C1262 C1263 1.367 . S
C1263 C1262 1.367 . S
C1263 C1265 1.433 . S
C1264 C1260 1.350 . S
C1264 C1261 1.463 . S
C1264 N1268 1.427 . S
C1265 H1255 0.929 . S
C1265 C1263 1.433 . S
C1265 N1268 1.384 . S
C1266 H1257 0.929 . S
C1266 C1258 1.378 . S
C1266 C1261 1.350 . S
C1267 H1254 0.929 . S
C1267 C1259 1.433 . S
C1267 N1269 1.384 . S
N1268 C1264 1.427 . S
N1268 C1265 1.384 . S
N1269 C1261 1.427 . S
N1269 C1267 1.384 . S
H1270 C1276 0.930 . S
H1271 C1280 0.930 . S
H1272 C1285 0.929 . S
H1273 C1283 0.929 . S
H1274 C1278 0.929 . S
H1275 C1284 0.929 . S
C1276 H1270 0.930 . S
C1276 C1277 1.367 . S
C1276 C1284 1.378 . S
C1277 C1276 1.367 . S
C1277 C1285 1.433 . S
C1278 H1274 0.929 . S
C1278 C1280 1.378 . S
C1278 C1282 1.350 . S
C1279 C1282 1.463 . S
C1279 C1284 1.350 . S
C1279 N1287 1.427 . S
C1280 H1271 0.930 . S
C1280 C1278 1.378 . S
C1280 C1281 1.367 . S
C1281 C1280 1.367 . S
C1281 C1283 1.433 . S
C1282 C1278 1.350 . S
C1282 C1279 1.463 . S
C1282 N1286 1.427 . S
C1283 H1273 0.929 . S
C1283 C1281 1.433 . S
C1283 N1286 1.384 . S
C1284 H1275 0.929 . S
C1284 C1276 1.378 . S
C1284 C1279 1.350 . S
C1285 H1272 0.929 . S
C1285 C1277 1.433 . S
C1285 N1287 1.384 . S
N1286 C1282 1.427 . S
N1286 C1283 1.384 . S
N1287 C1279 1.427 . S
N1287 C1285 1.384 . S
H1288 C1294 0.930 . S
H1289 C1298 0.930 . S
H1290 C1303 0.929 . S
H1291 C1301 0.929 . S
H1292 C1296 0.929 . S
H1293 C1302 0.929 . S
C1294 H1288 0.930 . S
C1294 C1295 1.367 . S
C1294 C1302 1.378 . S
C1295 C1294 1.367 . S
C1295 C1303 1.433 . S
C1296 H1292 0.929 . S
C1296 C1298 1.378 . S
C1296 C1300 1.350 . S
C1297 C1300 1.463 . S
C1297 C1302 1.350 . S
C1297 N1305 1.427 . S
C1298 H1289 0.930 . S
C1298 C1296 1.378 . S
C1298 C1299 1.367 . S
C1299 C1298 1.367 . S
C1299 C1301 1.433 . S
C1300 C1296 1.350 . S
C1300 C1297 1.463 . S
C1300 N1304 1.427 . S
C1301 H1291 0.929 . S
C1301 C1299 1.433 . S
C1301 N1304 1.384 . S
C1302 H1293 0.929 . S
C1302 C1294 1.378 . S
C1302 C1297 1.350 . S
C1303 H1290 0.929 . S
C1303 C1295 1.433 . S
C1303 N1305 1.384 . S
N1304 C1300 1.427 . S
N1304 C1301 1.384 . S
N1305 C1297 1.427 . S
N1305 C1303 1.384 . S
H1306 C1312 0.930 . S
H1307 C1316 0.930 . S
H1308 C1321 0.929 . S
H1309 C1319 0.929 . S
H1310 C1314 0.929 . S
H1311 C1320 0.929 1_556 S
C1312 H1306 0.930 . S
C1312 C1313 1.367 . S
C1312 C1320 1.378 . S
C1313 C1312 1.367 . S
C1313 C1321 1.433 . S
C1314 H1310 0.929 . S
C1314 C1316 1.378 . S
C1314 C1318 1.350 . S
C1315 C1318 1.463 . S
C1315 C1320 1.350 . S
C1315 N1323 1.427 . S
C1316 H1307 0.930 . S
C1316 C1314 1.378 . S
C1316 C1317 1.367 . S
C1317 C1316 1.367 . S
C1317 C1319 1.433 1_554 S
C1318 C1314 1.350 . S
C1318 C1315 1.463 . S
C1318 N1322 1.395 1_554 S
C1319 H1309 0.929 . S
C1319 C1317 1.433 1_556 S
C1319 N1322 1.401 . S
C1320 H1311 0.929 1_554 S
C1320 C1312 1.378 . S
C1320 C1315 1.350 . S
C1321 H1308 0.929 . S
C1321 C1313 1.433 . S
C1321 N1323 1.384 . S
N1322 C1318 1.395 1_556 S
N1322 C1319 1.401 . S
N1323 C1315 1.427 . S
N1323 C1321 1.384 . S
H1324 C1330 0.930 . S
H1325 C1334 0.930 . S
H1326 C1339 0.929 . S
H1327 C1337 0.929 . S
H1328 C1332 0.929 . S
H1329 C1338 0.929 . S
C1330 H1324 0.930 . S
C1330 C1331 1.367 . S
C1330 C1338 1.378 . S
C1331 C1330 1.367 . S
C1331 C1339 1.433 . S
C1332 H1328 0.929 . S
C1332 C1334 1.378 . S
C1332 C1336 1.350 . S
C1333 C1336 1.463 . S
C1333 C1338 1.350 . S
C1333 N1341 1.427 . S
C1334 H1325 0.930 . S
C1334 C1332 1.378 . S
C1334 C1335 1.367 . S
C1335 C1334 1.367 . S
C1335 C1337 1.433 . S
C1336 C1332 1.350 . S
C1336 C1333 1.463 . S
C1336 N1340 1.427 . S
C1337 H1327 0.929 . S
C1337 C1335 1.433 . S
C1337 N1340 1.384 . S
C1338 H1329 0.929 . S
C1338 C1330 1.378 . S
C1338 C1333 1.350 . S
C1339 H1326 0.929 . S
C1339 C1331 1.433 . S
C1339 N1341 1.384 . S
N1340 C1336 1.427 . S
N1340 C1337 1.384 . S
N1341 C1333 1.427 . S
N1341 C1339 1.384 . S
H1342 C1348 0.930 . S
H1343 C1352 0.930 . S
H1344 C1357 0.929 . S
H1345 C1355 0.929 . S
H1346 C1350 0.929 . S
H1347 C1356 0.929 . S
C1348 H1342 0.930 . S
C1348 C1349 1.367 . S
C1348 C1356 1.378 . S
C1349 C1348 1.367 . S
C1349 C1357 1.433 . S
C1350 H1346 0.929 . S
C1350 C1352 1.378 . S
C1350 C1354 1.350 . S
C1351 C1354 1.463 . S
C1351 C1356 1.350 . S
C1351 N1359 1.427 . S
C1352 H1343 0.930 . S
C1352 C1350 1.378 . S
C1352 C1353 1.367 . S
C1353 C1352 1.367 . S
C1353 C1355 1.433 . S
C1354 C1350 1.350 . S
C1354 C1351 1.463 . S
C1354 N1358 1.427 . S
C1355 H1345 0.929 . S
C1355 C1353 1.433 . S
C1355 N1358 1.384 . S
C1356 H1347 0.929 . S
C1356 C1348 1.378 . S
C1356 C1351 1.350 . S
C1357 H1344 0.929 . S
C1357 C1349 1.433 . S
C1357 N1359 1.384 . S
N1358 C1354 1.427 . S
N1358 C1355 1.384 . S
N1359 C1351 1.427 . S
N1359 C1357 1.384 . S
H1360 C1366 0.930 . S
H1361 C1370 0.930 . S
H1362 C1375 0.929 . S
H1363 C1373 0.929 . S
H1364 C1368 0.929 . S
H1365 C1374 0.929 . S
C1366 H1360 0.930 . S
C1366 C1367 1.367 . S
C1366 C1374 1.378 . S
C1367 C1366 1.367 . S
C1367 C1375 1.433 . S
C1368 H1364 0.929 . S
C1368 C1370 1.378 . S
C1368 C1372 1.350 . S
C1369 C1372 1.463 . S
C1369 C1374 1.350 . S
C1369 N1377 1.427 . S
C1370 H1361 0.930 . S
C1370 C1368 1.378 . S
C1370 C1371 1.367 . S
C1371 C1370 1.367 . S
C1371 C1373 1.433 . S
C1372 C1368 1.350 . S
C1372 C1369 1.463 . S
C1372 N1376 1.427 . S
C1373 H1363 0.929 . S
C1373 C1371 1.433 . S
C1373 N1376 1.384 . S
C1374 H1365 0.929 . S
C1374 C1366 1.378 . S
C1374 C1369 1.350 . S
C1375 H1362 0.929 . S
C1375 C1367 1.433 . S
C1375 N1377 1.384 . S
N1376 C1372 1.427 . S
N1376 C1373 1.384 . S
N1377 C1369 1.427 . S
N1377 C1375 1.384 . S
H1378 C1384 0.930 . S
H1379 C1388 0.930 . S
H1380 C1393 0.929 . S
H1381 C1391 0.929 . S
H1382 C1386 0.929 . S
H1383 C1392 0.929 . S
C1384 H1378 0.930 . S
C1384 C1385 1.367 . S
C1384 C1392 1.378 . S
C1385 C1384 1.367 . S
C1385 C1393 1.433 . S
C1386 H1382 0.929 . S
C1386 C1388 1.378 . S
C1386 C1390 1.350 . S
C1387 C1390 1.463 . S
C1387 C1392 1.350 . S
C1387 N1395 1.427 . S
C1388 H1379 0.930 . S
C1388 C1386 1.378 . S
C1388 C1389 1.367 . S
C1389 C1388 1.367 . S
C1389 C1391 1.433 . S
C1390 C1386 1.350 . S
C1390 C1387 1.463 . S
C1390 N1394 1.427 . S
C1391 H1381 0.929 . S
C1391 C1389 1.433 . S
C1391 N1394 1.384 . S
C1392 H1383 0.929 . S
C1392 C1384 1.378 . S
C1392 C1387 1.350 . S
C1393 H1380 0.929 . S
C1393 C1385 1.433 . S
C1393 N1395 1.384 . S
N1394 C1390 1.427 . S
N1394 C1391 1.384 . S
N1395 C1387 1.427 . S
N1395 C1393 1.384 . S
H1396 C1402 0.930 . S
H1397 C1406 0.930 . S
H1398 C1411 0.929 . S
H1399 C1409 0.929 . S
H1400 C1404 0.929 . S
H1401 C1410 0.929 1_554 S
C1402 H1396 0.930 . S
C1402 C1403 1.367 1_554 S
C1402 C1410 1.378 1_554 S
C1403 C1402 1.367 1_556 S
C1403 C1411 1.433 . S
C1404 H1400 0.929 . S
C1404 C1406 1.378 . S
C1404 C1408 1.350 . S
C1405 C1408 1.463 . S
C1405 C1410 1.350 . S
C1405 N1413 1.427 . S
C1406 H1397 0.930 . S
C1406 C1404 1.378 . S
C1406 C1407 1.367 . S
C1407 C1406 1.367 . S
C1407 C1409 1.433 . S
C1408 C1404 1.350 . S
C1408 C1405 1.463 . S
C1408 N1412 1.427 . S
C1409 H1399 0.929 . S
C1409 C1407 1.433 . S
C1409 N1412 1.384 . S
C1410 H1401 0.929 1_556 S
C1410 C1402 1.378 1_556 S
C1410 C1405 1.350 . S
C1411 H1398 0.929 . S
C1411 C1403 1.433 . S
C1411 N1413 1.384 . S
N1412 C1408 1.427 . S
N1412 C1409 1.384 . S
N1413 C1405 1.427 . S
N1413 C1411 1.384 . S
H1414 C1420 0.930 . S
H1415 C1424 0.930 . S
H1416 C1429 0.929 . S
H1417 C1427 0.929 . S
H1418 C1422 0.929 . S
H1419 C1428 0.929 . S
C1420 H1414 0.930 . S
C1420 C1421 1.367 . S
C1420 C1428 1.378 . S
C1421 C1420 1.367 . S
C1421 C1429 1.433 . S
C1422 H1418 0.929 . S
C1422 C1424 1.378 . S
C1422 C1426 1.350 . S
C1423 C1426 1.463 . S
C1423 C1428 1.350 . S
C1423 N1431 1.427 . S
C1424 H1415 0.930 . S
C1424 C1422 1.378 . S
C1424 C1425 1.367 . S
C1425 C1424 1.367 . S
C1425 C1427 1.433 . S
C1426 C1422 1.350 . S
C1426 C1423 1.463 . S
C1426 N1430 1.427 . S
C1427 H1417 0.929 . S
C1427 C1425 1.433 . S
C1427 N1430 1.384 . S
C1428 H1419 0.929 . S
C1428 C1420 1.378 . S
C1428 C1423 1.350 . S
C1429 H1416 0.929 . S
C1429 C1421 1.433 . S
C1429 N1431 1.384 . S
N1430 C1426 1.427 . S
N1430 C1427 1.384 . S
N1431 C1423 1.427 . S
N1431 C1429 1.384 . S
H1432 C1438 0.930 . S
H1433 C1442 0.930 . S
H1434 C1447 0.929 . S
H1435 C1445 0.929 . S
H1436 C1440 0.929 . S
H1437 C1446 0.929 . S
C1438 H1432 0.930 . S
C1438 C1439 1.367 . S
C1438 C1446 1.378 . S
C1439 C1438 1.367 . S
C1439 C1447 1.433 . S
C1440 H1436 0.929 . S
C1440 C1442 1.378 . S
C1440 C1444 1.350 . S
C1441 C1444 1.463 . S
C1441 C1446 1.350 . S
C1441 N1449 1.427 . S
C1442 H1433 0.930 . S
C1442 C1440 1.378 . S
C1442 C1443 1.367 . S
C1443 C1442 1.367 . S
C1443 C1445 1.433 . S
C1444 C1440 1.350 . S
C1444 C1441 1.463 . S
C1444 N1448 1.427 . S
C1445 H1435 0.929 . S
C1445 C1443 1.433 . S
C1445 N1448 1.384 . S
C1446 H1437 0.929 . S
C1446 C1438 1.378 . S
C1446 C1441 1.350 . S
C1447 H1434 0.929 . S
C1447 C1439 1.433 . S
C1447 N1449 1.384 . S
N1448 C1444 1.427 . S
N1448 C1445 1.384 . S
N1449 C1441 1.427 . S
N1449 C1447 1.384 . S
H1450 C1456 0.930 . S
H1451 C1460 0.930 . S
H1452 C1465 0.929 . S
H1453 C1463 0.929 . S
H1454 C1458 0.929 . S
H1455 C1464 0.929 . S
C1456 H1450 0.930 . S
C1456 C1457 1.367 . S
C1456 C1464 1.378 . S
C1457 C1456 1.367 . S
C1457 C1465 1.433 . S
C1458 H1454 0.929 . S
C1458 C1460 1.378 . S
C1458 C1462 1.350 . S
C1459 C1462 1.463 . S
C1459 C1464 1.350 . S
C1459 N1467 1.427 . S
C1460 H1451 0.930 . S
C1460 C1458 1.378 . S
C1460 C1461 1.367 . S
C1461 C1460 1.367 . S
C1461 C1463 1.433 . S
C1462 C1458 1.350 . S
C1462 C1459 1.463 . S
C1462 N1466 1.427 . S
C1463 H1453 0.929 . S
C1463 C1461 1.433 . S
C1463 N1466 1.384 . S
C1464 H1455 0.929 . S
C1464 C1456 1.378 . S
C1464 C1459 1.350 . S
C1465 H1452 0.929 . S
C1465 C1457 1.433 . S
C1465 N1467 1.384 . S
N1466 C1462 1.427 . S
N1466 C1463 1.384 . S
N1467 C1459 1.427 . S
N1467 C1465 1.384 . S
H1468 C1474 0.930 . S
H1469 C1478 0.930 . S
H1470 C1483 0.929 . S
H1471 C1481 0.929 . S
H1472 C1476 0.929 . S
H1473 C1482 0.929 . S
C1474 H1468 0.930 . S
C1474 C1475 1.367 . S
C1474 C1482 1.378 . S
C1475 C1474 1.367 . S
C1475 C1483 1.433 . S
C1476 H1472 0.929 . S
C1476 C1478 1.378 . S
C1476 C1480 1.350 . S
C1477 C1480 1.463 . S
C1477 C1482 1.350 . S
C1477 N1485 1.427 . S
C1478 H1469 0.930 . S
C1478 C1476 1.378 . S
C1478 C1479 1.367 . S
C1479 C1478 1.367 . S
C1479 C1481 1.433 . S
C1480 C1476 1.350 . S
C1480 C1477 1.463 . S
C1480 N1484 1.427 . S
C1481 H1471 0.929 . S
C1481 C1479 1.433 . S
C1481 N1484 1.384 . S
C1482 H1473 0.929 . S
C1482 C1474 1.378 . S
C1482 C1477 1.350 . S
C1483 H1470 0.929 . S
C1483 C1475 1.433 . S
C1483 N1485 1.384 . S
N1484 C1480 1.427 . S
N1484 C1481 1.384 . S
N1485 C1477 1.427 . S
N1485 C1483 1.384 . S
H1486 C1492 0.930 . S
H1487 C1496 0.930 . S
H1488 C1501 0.929 . S
H1489 C1499 0.929 . S
H1490 C1494 0.929 . S
H1491 C1500 0.929 . S
C1492 H1486 0.930 . S
C1492 C1493 1.367 . S
C1492 C1500 1.378 . S
C1493 C1492 1.367 . S
C1493 C1501 1.433 . S
C1494 H1490 0.929 . S
C1494 C1496 1.378 . S
C1494 C1498 1.350 . S
C1495 C1498 1.463 . S
C1495 C1500 1.350 . S
C1495 N1503 1.427 . S
C1496 H1487 0.930 . S
C1496 C1494 1.378 . S
C1496 C1497 1.367 . S
C1497 C1496 1.367 . S
C1497 C1499 1.433 . S
C1498 C1494 1.350 . S
C1498 C1495 1.463 . S
C1498 N1502 1.427 . S
C1499 H1489 0.929 . S
C1499 C1497 1.433 . S
C1499 N1502 1.384 . S
C1500 H1491 0.929 . S
C1500 C1492 1.378 . S
C1500 C1495 1.350 . S
C1501 H1488 0.929 . S
C1501 C1493 1.433 . S
C1501 N1503 1.384 . S
N1502 C1498 1.427 . S
N1502 C1499 1.384 . S
N1503 C1495 1.427 . S
N1503 C1501 1.384 . S
C647 C19 1.214 . S
C651 C55 1.169 . S
C665 C99 1.919 . S
C669 C50 1.882 . S
C683 C130 2.214 . S
C687 C98 2.234 . S
C701 C18 1.352 . S
C705 C135 1.323 . S
C719 C9 1.354 . S
C723 C366 1.324 . S
C737 C290 1.208 . S
C741 C46 1.159 . S
C755 C90 1.918 . S
C759 C419 1.881 . S
C773 C139 2.220 . S
C777 C529 2.231 . S
C791 C330 1.917 . S
C795 C59 1.887 . S
C809 C499 2.218 . S
C813 C89 2.239 . S
C827 C569 1.349 . S
C831 C126 1.322 . S
C845 C10 1.217 . S
C849 C446 1.179 . S
C863 C15 0.456 . S
C867 C326 0.404 . S
C881 C498 1.648 . S
C885 C169 1.661 . S
C899 C215 0.390 . S
C903 C566 0.481 . S
C917 C449 1.653 . S
C921 C258 1.656 . S
C935 C95 0.396 . S
C939 C286 0.450 . S
C953 C369 1.650 . S
C957 C178 1.658 . S
C971 C249 1.650 . S
C975 C418 1.658 . S
C989 C210 1.918 . S
C993 C459 1.885 . S
C1007 C379 2.221 . S
C1011 C209 2.232 . S
C1025 C455 1.172 . S
C1029 C299 1.212 . S
C1043 C219 1.919 . S
C1047 C170 1.884 . S
C1061 C370 2.217 . S
C1065 C338 2.239 . S
C1079 C539 1.918 . S
C1083 C450 1.881 . S
C1097 C250 2.218 . S
C1101 C218 2.231 . S
C1115 C375 1.303 . S
C1119 C578 1.348 . S
C1133 C535 0.379 . S
C1137 C6 0.456 . S
C1151 C86 0.411 . S
C1155 C575 0.487 . S
C1169 C489 1.652 . S
C1173 C58 1.656 . S
C1187 C295 0.457 . S
C1191 C206 0.405 . S
C1205 C138 1.653 . S
C1209 C409 1.656 . S
C1223 C490 2.223 . S
C1227 C538 2.236 . S
C1241 C298 1.353 . S
C1245 C495 1.306 . S
C1259 C246 1.323 . S
C1263 C289 1.350 . S
C1277 C179 1.889 . S
C1281 C530 1.917 . S
C1295 C486 1.321 . S
C1299 C609 1.348 . S
C1313 C606 0.451 . S
C1317 C335 0.381 . S
C1331 C49 1.659 . S
C1335 C378 1.650 . S
C1349 C329 2.234 . S
C1353 C259 2.215 . S
C1367 C339 1.919 . S
C1371 C410 1.881 . S
C1385 C618 1.352 . S
C1389 C255 1.324 . S
C1403 C526 0.416 . S
C1407 C615 0.478 . S
C1421 C458 1.664 . S
C1425 C129 1.645 . S
C1439 C415 1.159 . S
C1443 C579 1.208 . S
C1457 C406 1.172 . S
C1461 C610 1.215 . S
C1475 C166 1.170 . S
C1479 C570 1.211 . S
C1493 C619 1.210 . S
C1497 C175 1.162 . S
