# Generated by pormake.
# Topology ict, (4)-cn, num edge types: 1
# Building blocks:
#     Node 0, Type 0, BuildingBlock: CEKHIL_clean_sbu_0, # of connection points: 4
#     Node 1, Type 0, BuildingBlock: CEKHIL_clean_sbu_0, # of connection points: 4
#     Node 2, Type 0, BuildingBlock: CEKHIL_clean_sbu_0, # of connection points: 4
#     Node 3, Type 0, BuildingBlock: CEKHIL_clean_sbu_0, # of connection points: 4
#     Node 4, Type 0, BuildingBlock: CEKHIL_clean_sbu_0, # of connection points: 4
#     Node 5, Type 0, BuildingBlock: CEKHIL_clean_sbu_0, # of connection points: 4
#     Node 6, Type 0, BuildingBlock: CEKHIL_clean_sbu_0, # of connection points: 4
#     Node 7, Type 0, BuildingBlock: CEKHIL_clean_sbu_0, # of connection points: 4
#     Node 8, Type 0, BuildingBlock: CEKHIL_clean_sbu_0, # of connection points: 4
#     Node 9, Type 0, BuildingBlock: CEKHIL_clean_sbu_0, # of connection points: 4
#     Node 10, Type 0, BuildingBlock: CEKHIL_clean_sbu_0, # of connection points: 4
#     Node 11, Type 0, BuildingBlock: CEKHIL_clean_sbu_0, # of connection points: 4
#     Node 12, Type 0, BuildingBlock: CEKHIL_clean_sbu_0, # of connection points: 4
#     Node 13, Type 0, BuildingBlock: CEKHIL_clean_sbu_0, # of connection points: 4
#     Node 14, Type 0, BuildingBlock: CEKHIL_clean_sbu_0, # of connection points: 4
#     Node 15, Type 0, BuildingBlock: CEKHIL_clean_sbu_0, # of connection points: 4
#     Node 16, Type 0, BuildingBlock: CEKHIL_clean_sbu_0, # of connection points: 4
#     Node 17, Type 0, BuildingBlock: CEKHIL_clean_sbu_0, # of connection points: 4
#     Node 18, Type 0, BuildingBlock: CEKHIL_clean_sbu_0, # of connection points: 4
#     Node 19, Type 0, BuildingBlock: CEKHIL_clean_sbu_0, # of connection points: 4
#     Node 20, Type 0, BuildingBlock: CEKHIL_clean_sbu_0, # of connection points: 4
#     Node 21, Type 0, BuildingBlock: CEKHIL_clean_sbu_0, # of connection points: 4
#     Node 22, Type 0, BuildingBlock: CEKHIL_clean_sbu_0, # of connection points: 4
#     Node 23, Type 0, BuildingBlock: CEKHIL_clean_sbu_0, # of connection points: 4
#     Node 24, Type 0, BuildingBlock: CEKHIL_clean_sbu_0, # of connection points: 4
#     Node 25, Type 0, BuildingBlock: CEKHIL_clean_sbu_0, # of connection points: 4
#     Node 26, Type 0, BuildingBlock: CEKHIL_clean_sbu_0, # of connection points: 4
#     Node 27, Type 0, BuildingBlock: CEKHIL_clean_sbu_0, # of connection points: 4
#     Node 28, Type 0, BuildingBlock: CEKHIL_clean_sbu_0, # of connection points: 4
#     Node 29, Type 0, BuildingBlock: CEKHIL_clean_sbu_0, # of connection points: 4
#     Node 30, Type 0, BuildingBlock: CEKHIL_clean_sbu_0, # of connection points: 4
#     Node 31, Type 0, BuildingBlock: CEKHIL_clean_sbu_0, # of connection points: 4
#     Node 32, Type 0, BuildingBlock: CEKHIL_clean_sbu_0, # of connection points: 4
#     Node 33, Type 0, BuildingBlock: CEKHIL_clean_sbu_0, # of connection points: 4
#     Node 34, Type 0, BuildingBlock: CEKHIL_clean_sbu_0, # of connection points: 4
#     Node 35, Type 0, BuildingBlock: CEKHIL_clean_sbu_0, # of connection points: 4
#     Edge 36, Type (0, 0), BuildingBlock: CIFDUS_clean_linker_0, # of connection points: 2
#     Edge 37, Type (0, 0), BuildingBlock: CIFDUS_clean_linker_0, # of connection points: 2
#     Edge 38, Type (0, 0), BuildingBlock: CIFDUS_clean_linker_0, # of connection points: 2
#     Edge 39, Type (0, 0), BuildingBlock: CIFDUS_clean_linker_0, # of connection points: 2
#     Edge 40, Type (0, 0), BuildingBlock: CIFDUS_clean_linker_0, # of connection points: 2
#     Edge 41, Type (0, 0), BuildingBlock: CIFDUS_clean_linker_0, # of connection points: 2
#     Edge 42, Type (0, 0), BuildingBlock: CIFDUS_clean_linker_0, # of connection points: 2
#     Edge 43, Type (0, 0), BuildingBlock: CIFDUS_clean_linker_0, # of connection points: 2
#     Edge 44, Type (0, 0), BuildingBlock: CIFDUS_clean_linker_0, # of connection points: 2
#     Edge 45, Type (0, 0), BuildingBlock: CIFDUS_clean_linker_0, # of connection points: 2
#     Edge 46, Type (0, 0), BuildingBlock: CIFDUS_clean_linker_0, # of connection points: 2
#     Edge 47, Type (0, 0), BuildingBlock: CIFDUS_clean_linker_0, # of connection points: 2
#     Edge 48, Type (0, 0), BuildingBlock: CIFDUS_clean_linker_0, # of connection points: 2
#     Edge 49, Type (0, 0), BuildingBlock: CIFDUS_clean_linker_0, # of connection points: 2
#     Edge 50, Type (0, 0), BuildingBlock: CIFDUS_clean_linker_0, # of connection points: 2
#     Edge 51, Type (0, 0), BuildingBlock: CIFDUS_clean_linker_0, # of connection points: 2
#     Edge 52, Type (0, 0), BuildingBlock: CIFDUS_clean_linker_0, # of connection points: 2
#     Edge 53, Type (0, 0), BuildingBlock: CIFDUS_clean_linker_0, # of connection points: 2
#     Edge 54, Type (0, 0), BuildingBlock: CIFDUS_clean_linker_0, # of connection points: 2
#     Edge 55, Type (0, 0), BuildingBlock: CIFDUS_clean_linker_0, # of connection points: 2
#     Edge 56, Type (0, 0), BuildingBlock: CIFDUS_clean_linker_0, # of connection points: 2
#     Edge 57, Type (0, 0), BuildingBlock: CIFDUS_clean_linker_0, # of connection points: 2
#     Edge 58, Type (0, 0), BuildingBlock: CIFDUS_clean_linker_0, # of connection points: 2
#     Edge 59, Type (0, 0), BuildingBlock: CIFDUS_clean_linker_0, # of connection points: 2
#     Edge 60, Type (0, 0), BuildingBlock: CIFDUS_clean_linker_0, # of connection points: 2
#     Edge 61, Type (0, 0), BuildingBlock: CIFDUS_clean_linker_0, # of connection points: 2
#     Edge 62, Type (0, 0), BuildingBlock: CIFDUS_clean_linker_0, # of connection points: 2
#     Edge 63, Type (0, 0), BuildingBlock: CIFDUS_clean_linker_0, # of connection points: 2
#     Edge 64, Type (0, 0), BuildingBlock: CIFDUS_clean_linker_0, # of connection points: 2
#     Edge 65, Type (0, 0), BuildingBlock: CIFDUS_clean_linker_0, # of connection points: 2
#     Edge 66, Type (0, 0), BuildingBlock: CIFDUS_clean_linker_0, # of connection points: 2
#     Edge 67, Type (0, 0), BuildingBlock: CIFDUS_clean_linker_0, # of connection points: 2
#     Edge 68, Type (0, 0), BuildingBlock: CIFDUS_clean_linker_0, # of connection points: 2
#     Edge 69, Type (0, 0), BuildingBlock: CIFDUS_clean_linker_0, # of connection points: 2
#     Edge 70, Type (0, 0), BuildingBlock: CIFDUS_clean_linker_0, # of connection points: 2
#     Edge 71, Type (0, 0), BuildingBlock: CIFDUS_clean_linker_0, # of connection points: 2
#     Edge 72, Type (0, 0), BuildingBlock: CIFDUS_clean_linker_0, # of connection points: 2
#     Edge 73, Type (0, 0), BuildingBlock: CIFDUS_clean_linker_0, # of connection points: 2
#     Edge 74, Type (0, 0), BuildingBlock: CIFDUS_clean_linker_0, # of connection points: 2
#     Edge 75, Type (0, 0), BuildingBlock: CIFDUS_clean_linker_0, # of connection points: 2
#     Edge 76, Type (0, 0), BuildingBlock: CIFDUS_clean_linker_0, # of connection points: 2
#     Edge 77, Type (0, 0), BuildingBlock: CIFDUS_clean_linker_0, # of connection points: 2
#     Edge 78, Type (0, 0), BuildingBlock: CIFDUS_clean_linker_0, # of connection points: 2
#     Edge 79, Type (0, 0), BuildingBlock: CIFDUS_clean_linker_0, # of connection points: 2
#     Edge 80, Type (0, 0), BuildingBlock: CIFDUS_clean_linker_0, # of connection points: 2
#     Edge 81, Type (0, 0), BuildingBlock: CIFDUS_clean_linker_0, # of connection points: 2
#     Edge 82, Type (0, 0), BuildingBlock: CIFDUS_clean_linker_0, # of connection points: 2
#     Edge 83, Type (0, 0), BuildingBlock: CIFDUS_clean_linker_0, # of connection points: 2
#     Edge 84, Type (0, 0), BuildingBlock: CIFDUS_clean_linker_0, # of connection points: 2
#     Edge 85, Type (0, 0), BuildingBlock: CIFDUS_clean_linker_0, # of connection points: 2
#     Edge 86, Type (0, 0), BuildingBlock: CIFDUS_clean_linker_0, # of connection points: 2
#     Edge 87, Type (0, 0), BuildingBlock: CIFDUS_clean_linker_0, # of connection points: 2
#     Edge 88, Type (0, 0), BuildingBlock: CIFDUS_clean_linker_0, # of connection points: 2
#     Edge 89, Type (0, 0), BuildingBlock: CIFDUS_clean_linker_0, # of connection points: 2
#     Edge 90, Type (0, 0), BuildingBlock: CIFDUS_clean_linker_0, # of connection points: 2
#     Edge 91, Type (0, 0), BuildingBlock: CIFDUS_clean_linker_0, # of connection points: 2
#     Edge 92, Type (0, 0), BuildingBlock: CIFDUS_clean_linker_0, # of connection points: 2
#     Edge 93, Type (0, 0), BuildingBlock: CIFDUS_clean_linker_0, # of connection points: 2
#     Edge 94, Type (0, 0), BuildingBlock: CIFDUS_clean_linker_0, # of connection points: 2
#     Edge 95, Type (0, 0), BuildingBlock: CIFDUS_clean_linker_0, # of connection points: 2
#     Edge 96, Type (0, 0), BuildingBlock: CIFDUS_clean_linker_0, # of connection points: 2
#     Edge 97, Type (0, 0), BuildingBlock: CIFDUS_clean_linker_0, # of connection points: 2
#     Edge 98, Type (0, 0), BuildingBlock: CIFDUS_clean_linker_0, # of connection points: 2
#     Edge 99, Type (0, 0), BuildingBlock: CIFDUS_clean_linker_0, # of connection points: 2
#     Edge 100, Type (0, 0), BuildingBlock: CIFDUS_clean_linker_0, # of connection points: 2
#     Edge 101, Type (0, 0), BuildingBlock: CIFDUS_clean_linker_0, # of connection points: 2
#     Edge 102, Type (0, 0), BuildingBlock: CIFDUS_clean_linker_0, # of connection points: 2
#     Edge 103, Type (0, 0), BuildingBlock: CIFDUS_clean_linker_0, # of connection points: 2
#     Edge 104, Type (0, 0), BuildingBlock: CIFDUS_clean_linker_0, # of connection points: 2
#     Edge 105, Type (0, 0), BuildingBlock: CIFDUS_clean_linker_0, # of connection points: 2
#     Edge 106, Type (0, 0), BuildingBlock: CIFDUS_clean_linker_0, # of connection points: 2
#     Edge 107, Type (0, 0), BuildingBlock: CIFDUS_clean_linker_0, # of connection points: 2
# Relax obj value: 0.096
# Max RMSD: 0.121
# Mean RMSD: 0.121
data_MOF--net-ict--node1-CEKHIL_clean_sbu_0--edge1-CIFDUS_clean_linker_0
_symmetry_space_group_name_H-M    P1
_symmetry_Int_Tables_number       1
_symmetry_cell_setting            triclinic
loop_
_symmetry_equiv_pos_as_xyz
'x, y, z'
_cell_length_a     56.266138
_cell_length_b     56.317723
_cell_length_c     32.25241
_cell_angle_alpha  90.029269
_cell_angle_beta   89.947306
_cell_angle_gamma 119.97256
loop_
_atom_site_label
_atom_site_type_symbol
_atom_site_fract_x
_atom_site_fract_y
_atom_site_fract_z
_atom_type_partial_charge
Co0 Co 0.23319 0.21128 0.04537 0.0
O1 O 0.24224 0.2188 0.98738 0.0
O2 O 0.27246 0.23526 0.03838 0.0
C3 C 0.19616 0.21723 0.04352 0.0
O4 O 0.23138 0.2086 0.10912 0.0
Co5 Co 0.17692 0.16152 0.07193 0.0
O6 O 0.18902 0.17578 0.12873 0.0
C7 C 0.21942 0.1528 0.0332 0.0
C8 C 0.26769 0.23338 0.99868 0.0
C9 C 0.21321 0.19493 0.13718 0.0
O10 O 0.23776 0.17785 0.0407 0.0
O11 O 0.19375 0.14343 0.0391 0.0
O12 O 0.22065 0.23848 0.0467 0.0
O13 O 0.19536 0.1942 0.03853 0.0
Co14 Co 0.78839 0.02294 0.06256 0.0
O15 O 0.78306 0.03039 1.00569 0.0
O16 O 0.76946 0.04364 0.06094 0.0
C17 C 0.7753 0.97813 0.05273 0.0
O18 O 0.78849 0.0185 0.12592 0.0
Co19 Co 0.82979 0.00393 0.08775 0.0
O20 O 0.81537 1.00118 0.14456 0.0
C21 C 0.85008 0.06151 0.06257 0.0
C22 C 0.77094 0.04301 0.02078 0.0
C23 C 0.79868 0.00947 0.15341 0.0
O24 O 0.82559 0.05803 0.06345 0.0
O25 O 0.85514 0.04192 0.06762 0.0
O26 O 0.75679 0.98528 0.05777 0.0
O27 O 0.80024 0.99797 0.05098 0.0
Co28 Co 0.98226 0.76475 0.04565 0.0
O29 O 0.97729 0.74872 0.9914 0.0
O30 O 0.96263 0.72495 0.04949 0.0
C31 C 0.02689 0.79644 0.0346 0.0
O32 O 0.98465 0.77431 0.10779 0.0
Co33 Co 0.99797 0.82553 0.05513 0.0
O34 O 1.00106 0.81967 0.11487 0.0
C35 C 0.94198 0.78447 0.02854 0.0
C36 C 0.96474 0.72496 0.00926 0.0
C37 C 0.99293 0.79601 0.13031 0.0
O38 O 0.9464 0.76491 0.03906 0.0
O39 O 0.96083 0.80972 0.02899 0.0
O40 O 0.02034 0.77196 0.04707 0.0
O41 O 0.0066 0.80035 0.0276 0.0
Co42 Co 0.21913 0.23031 0.47124 0.0
O43 O 0.22341 0.24043 0.52882 0.0
O44 O 0.24115 0.26995 0.47712 0.0
C45 C 0.22781 0.19545 0.48099 0.0
O46 O 0.21976 0.22719 0.40765 0.0
Co47 Co 0.17408 0.17263 0.44309 0.0
O48 O 0.19487 0.18264 0.39031 0.0
C49 C 0.15906 0.21328 0.47246 0.0
C50 C 0.2376 0.26572 0.51693 0.0
C51 C 0.21153 0.20753 0.38093 0.0
O52 O 0.18429 0.23251 0.46975 0.0
O53 O 0.15144 0.18798 0.46636 0.0
O54 O 0.24804 0.22034 0.47604 0.0
O55 O 0.20375 0.19287 0.4815 0.0
Co56 Co 0.7727 0.98345 0.47963 0.0
O57 O 0.75526 0.97084 0.53264 0.0
O58 O 0.73298 0.96471 0.47364 0.0
C59 C 0.80343 0.02532 0.50441 0.0
O60 O 0.78392 0.9948 0.41874 0.0
Co61 Co 0.83425 0.00266 0.46707 0.0
O62 O 0.82992 0.01898 0.41548 0.0
C63 C 0.79354 0.94325 0.47216 0.0
C64 C 0.73199 0.96156 0.51374 0.0
C65 C 0.80646 0.01034 0.39897 0.0
O66 O 0.77332 0.94796 0.47207 0.0
O67 O 0.81875 0.96221 0.47264 0.0
O68 O 0.77938 0.02052 0.49243 0.0
O69 O 0.80769 0.00493 0.50203 0.0
Co70 Co 0.01895 0.77845 0.46447 0.0
O71 O 0.02527 0.76959 0.51967 0.0
O72 O 0.03915 0.75881 0.46225 0.0
C73 C 0.97443 0.76554 0.47651 0.0
O74 O 0.01513 0.78284 0.40169 0.0
Co75 Co 1.00115 0.82172 0.44912 0.0
O76 O 0.99405 0.80734 0.39184 0.0
C77 C 0.05688 0.83833 0.47997 0.0
C78 C 0.03791 0.75817 0.50259 0.0
C79 C 0.00361 0.79263 0.37787 0.0
O80 O 0.05427 0.81514 0.46878 0.0
O81 O 0.03718 0.8435 0.47804 0.0
O82 O 0.98091 0.7472 0.46579 0.0
O83 O 0.99467 0.79003 0.48086 0.0
Co84 Co 0.76651 0.78982 0.96409 0.0
O85 O 0.75293 0.78035 0.02031 0.0
O86 O 0.72773 0.76327 0.96389 0.0
C87 C 0.80516 0.78734 0.97359 0.0
O88 O 0.77308 0.79327 0.90098 0.0
Co89 Co 0.82193 0.8424 0.9447 0.0
O90 O 0.81654 0.82628 0.88849 0.0
C91 C 0.77494 0.84658 0.97547 0.0
C92 C 0.72901 0.76421 1.00417 0.0
C93 C 0.79359 0.80658 0.87613 0.0
O94 O 0.75854 0.82132 0.96568 0.0
O95 O 0.80107 0.85778 0.97358 0.0
O96 O 0.78189 0.76504 0.96708 0.0
O97 O 0.80367 0.80931 0.97745 0.0
Co98 Co 0.21171 0.97491 0.95698 0.0
O99 O 0.21224 0.96867 0.01576 0.0
O100 O 0.23494 0.95931 0.96869 0.0
C101 C 0.21734 0.01746 0.9634 0.0
O102 O 0.21735 0.97971 0.89357 0.0
Co103 Co 0.16761 0.98545 0.91654 0.0
O104 O 0.19404 0.99985 0.87004 0.0
C105 C 0.15284 0.92944 0.94363 0.0
C106 C 0.22874 0.95943 0.00754 0.0
C107 C 0.21172 0.9923 0.86509 0.0
O108 O 0.17817 0.93699 0.95106 0.0
O109 O 0.14471 0.94597 0.93212 0.0
O110 O 0.2386 0.01414 0.96503 0.0
O111 O 0.19395 0.99528 0.96078 0.0
Co112 Co 0.01911 0.23826 0.97541 0.0
O113 O 0.02431 0.2486 0.03293 0.0
O114 O 0.03601 0.27782 0.98082 0.0
C115 C 0.9757 0.20307 0.98466 0.0
O116 O 0.01567 0.23512 0.9119 0.0
Co117 Co 0.00788 0.18106 0.94758 0.0
O118 O 1.00021 0.19136 0.89257 0.0
C119 C 0.06216 0.22162 0.98073 0.0
C120 C 0.03484 0.27379 0.0207 0.0
C121 C 0.00672 0.21598 0.8843 0.0
O122 O 0.05644 0.24087 0.97496 0.0
O123 O 0.04452 0.19623 0.97548 0.0
O124 O 0.98013 0.22785 0.97942 0.0
O125 O 0.99734 0.20074 0.98568 0.0
Co126 Co 0.78939 0.76737 0.54702 0.0
O127 O 0.77961 0.75072 0.49322 0.0
O128 O 0.76761 0.72754 0.55201 0.0
C129 C 0.77853 0.80016 0.53188 0.0
O130 O 0.79549 0.77838 0.60883 0.0
Co131 Co 0.8361 0.82827 0.55395 0.0
O132 O 0.82435 0.82401 0.61256 0.0
C133 C 0.84995 0.78451 0.541 0.0
C134 C 0.76696 0.72717 0.51159 0.0
C135 C 0.80867 0.80093 0.62965 0.0
O136 O 0.82463 0.76569 0.5451 0.0
O137 O 0.85809 0.81018 0.54095 0.0
O138 O 0.75955 0.77614 0.54441 0.0
O139 O 0.80242 0.80281 0.5269 0.0
Co140 Co 0.23409 0.01286 0.53467 0.0
O141 O 0.24374 0.02175 0.47705 0.0
O142 O 0.27368 0.03382 0.5282 0.0
C143 C 0.20226 0.96836 0.52301 0.0
O144 O 0.23206 0.0063 0.59791 0.0
Co145 Co 0.17496 0.99247 0.56735 0.0
O146 O 0.18761 0.97997 0.61547 0.0
C147 C 0.21105 0.05115 0.54588 0.0
C148 C 0.26922 0.03386 0.48862 0.0
C149 C 0.21303 0.99086 0.62387 0.0
O150 O 0.23195 0.0477 0.54149 0.0
O151 O 0.18678 0.03139 0.55321 0.0
O152 O 0.2281 0.97563 0.52482 0.0
O153 O 0.19698 0.98807 0.52558 0.0
Co154 Co 0.98477 0.21777 0.55321 0.0
O155 O 0.97619 0.22241 0.4967 0.0
O156 O 0.97392 0.24537 0.55071 0.0
C157 C 0.02367 0.21705 0.53722 0.0
O158 O 0.99284 0.21973 0.61595 0.0
Co159 Co 0.98933 0.16748 0.58215 0.0
O160 O 0.00837 0.19082 0.63053 0.0
C161 C 0.93486 0.16159 0.5644 0.0
C162 C 0.97061 0.24062 0.51105 0.0
C163 C 0.00431 0.21036 0.6406 0.0
O164 O 0.94528 0.18775 0.56109 0.0
O165 O 0.94921 0.15001 0.57018 0.0
O166 O 0.02446 0.24044 0.54131 0.0
O167 O 0.99975 0.19571 0.54075 0.0
Co168 Co 0.90356 0.54587 0.37749 0.0
O169 O 0.91186 0.54955 0.31902 0.0
O170 O 0.94189 0.57295 0.36813 0.0
C171 C 0.86384 0.5466 0.37086 0.0
O172 O 0.90203 0.5484 0.44131 0.0
Co173 Co 0.85049 0.49501 0.41066 0.0
O174 O 0.86106 0.51465 0.46419 0.0
C175 C 0.89745 0.48915 0.38381 0.0
C176 C 0.93678 0.56777 0.32876 0.0
C177 C 0.8843 0.53593 0.47051 0.0
O178 O 0.91285 0.51538 0.38081 0.0
O179 O 0.87183 0.47721 0.39229 0.0
O180 O 0.88714 0.56947 0.37174 0.0
O181 O 0.86561 0.52467 0.37103 0.0
Co182 Co 0.45462 0.36031 0.38878 0.0
O183 O 0.4484 0.36988 0.33432 0.0
O184 O 0.42955 0.3747 0.39146 0.0
C185 C 0.44995 0.31977 0.36753 0.0
O186 O 0.45543 0.35136 0.4507 0.0
Co187 Co 0.50369 0.35104 0.40531 0.0
O188 O 0.48428 0.33484 0.45794 0.0
C189 C 0.51252 0.40581 0.38328 0.0
C190 C 0.43245 0.37752 0.35137 0.0
C191 C 0.46587 0.33947 0.47228 0.0
O192 O 0.48771 0.39845 0.39406 0.0
O193 O 0.52172 0.38912 0.38196 0.0
O194 O 0.42827 0.32121 0.37742 0.0
O195 O 0.47281 0.34249 0.36989 0.0
Co196 Co 0.65602 0.10068 0.37562 0.0
O197 O 0.65284 0.09275 0.31699 0.0
O198 O 0.6379 0.0614 0.36642 0.0
C199 C 0.70036 0.13498 0.37262 0.0
O200 O 0.65613 0.10094 0.43947 0.0
Co201 Co 0.66901 0.15776 0.40895 0.0
O202 O 0.67495 0.14438 0.46258 0.0
C203 C 0.61448 0.11964 0.37284 0.0
C204 C 0.6407 0.067 0.32696 0.0
C205 C 0.66559 0.11892 0.46886 0.0
O206 O 0.61959 0.09976 0.37412 0.0
O207 O 0.63236 0.14442 0.38191 0.0
O208 O 0.69471 0.10961 0.3744 0.0
O209 O 0.67943 0.1384 0.37031 0.0
Co210 Co 0.88133 0.56782 0.79942 0.0
O211 O 0.88844 0.58159 0.85553 0.0
O212 O 0.90968 0.60608 0.80001 0.0
C213 C 0.88053 0.52807 0.81383 0.0
O214 O 0.88058 0.56031 0.73648 0.0
Co215 Co 0.8278 0.51426 0.77706 0.0
O216 O 0.8487 0.51608 0.7267 0.0
C217 C 0.82552 0.56425 0.79619 0.0
C218 C 0.90637 0.60507 0.84006 0.0
C219 C 0.86901 0.53842 0.71388 0.0
O220 O 0.85192 0.57859 0.79541 0.0
O221 O 0.81212 0.5382 0.79179 0.0
O222 O 0.90385 0.55045 0.80802 0.0
O223 O 0.85922 0.53102 0.81372 0.0
Co224 Co 0.43717 0.31597 0.8087 0.0
O225 O 0.42792 0.30868 0.86669 0.0
O226 O 0.39764 0.29774 0.8163 0.0
C227 C 0.47155 0.35973 0.81875 0.0
O228 O 0.43887 0.32125 0.74522 0.0
Co229 Co 0.49523 0.33158 0.77565 0.0
O230 O 0.4826 0.33962 0.72315 0.0
C231 C 0.45571 0.27397 0.79867 0.0
C232 C 0.40242 0.298 0.85583 0.0
C233 C 0.45743 0.33176 0.71664 0.0
O234 O 0.43613 0.27942 0.80339 0.0
O235 O 0.48054 0.29226 0.79075 0.0
O236 O 0.44626 0.35438 0.81669 0.0
O237 O 0.47477 0.33869 0.81694 0.0
Co238 Co 0.69253 0.11883 0.80362 0.0
O239 O 0.7011 0.11496 0.86063 0.0
O240 O 0.71108 0.09783 0.80605 0.0
C241 C 0.64893 0.10938 0.81725 0.0
O242 O 0.68698 0.11707 0.74044 0.0
Co243 Co 0.67488 0.15986 0.77264 0.0
O244 O 0.66349 0.13775 0.72111 0.0
C245 C 0.73338 0.17924 0.79381 0.0
C246 C 0.71192 0.10097 0.84602 0.0
C247 C 0.67405 0.12291 0.71294 0.0
O248 O 0.72868 0.15451 0.79869 0.0
O249 O 0.71452 0.18505 0.78606 0.0
O250 O 0.65404 0.0894 0.81242 0.0
O251 O 0.66997 0.13359 0.815 0.0
Co252 Co 0.44098 0.12761 0.30409 0.0
O253 O 0.43078 0.12431 0.36181 0.0
O254 O 0.40205 0.10183 0.31078 0.0
C255 C 0.47965 0.12545 0.31486 0.0
O256 O 0.4443 0.12463 0.24068 0.0
Co257 Co 0.49594 0.17605 0.27142 0.0
O258 O 0.4888 0.15132 0.22367 0.0
C259 C 0.45055 0.18537 0.2967 0.0
C260 C 0.40592 0.107 0.35031 0.0
C261 C 0.46455 0.13246 0.21505 0.0
O262 O 0.43368 0.15934 0.29876 0.0
O263 O 0.47617 0.19563 0.28902 0.0
O264 O 0.45604 0.10293 0.31287 0.0
O265 O 0.47865 0.14774 0.31284 0.0
Co266 Co 0.88777 0.31664 0.30284 0.0
O267 O 0.89973 0.31287 0.35717 0.0
O268 O 0.90451 0.29366 0.30045 0.0
C269 C 0.90492 0.36243 0.30808 0.0
O270 O 0.87908 0.31696 0.24078 0.0
Co271 Co 0.84664 0.33769 0.29248 0.0
O272 O 0.85361 0.3373 0.23245 0.0
C273 C 0.82795 0.28242 0.32671 0.0
C274 C 0.90827 0.2976 0.34028 0.0
C275 C 0.86687 0.32634 0.21769 0.0
O276 O 0.85026 0.28345 0.3143 0.0
O277 O 0.82414 0.30298 0.32437 0.0
O278 O 0.92081 0.35304 0.29653 0.0
O279 O 0.88033 0.34426 0.3182 0.0
Co280 Co 0.68874 0.57088 0.29854 0.0
O281 O 0.69322 0.58317 0.35569 0.0
O282 O 0.70757 0.61032 0.30081 0.0
C283 C 0.64438 0.53753 0.30476 0.0
O284 O 0.68763 0.5668 0.23507 0.0
Co285 Co 0.67428 0.51191 0.27319 0.0
O286 O 0.66969 0.52262 0.21646 0.0
C287 C 0.72916 0.55086 0.30725 0.0
C288 C 0.70553 0.60796 0.34092 0.0
C289 C 0.67862 0.54767 0.20748 0.0
O290 O 0.72473 0.571 0.30194 0.0
O291 O 0.71073 0.52581 0.3012 0.0
O292 O 0.65033 0.56279 0.29922 0.0
O293 O 0.66498 0.53372 0.30878 0.0
Co294 Co 0.46118 0.10518 0.882 0.0
O295 O 0.45801 0.09564 0.82417 0.0
O296 O 0.44282 0.06555 0.87532 0.0
C297 C 0.44726 0.13629 0.87289 0.0
O298 O 0.45939 0.10725 0.94575 0.0
Co299 Co 0.50033 0.16405 0.91273 0.0
O300 O 0.47826 0.15159 0.96414 0.0
C301 C 0.52251 0.12974 0.87972 0.0
C302 C 0.44575 0.07018 0.83557 0.0
C303 C 0.46408 0.12617 0.97253 0.0
O304 O 0.49868 0.10802 0.88283 0.0
O305 O 0.52649 0.15379 0.88735 0.0
O306 O 0.42919 0.11049 0.87744 0.0
O307 O 0.47249 0.1421 0.87251 0.0
Co308 Co 0.90406 0.35156 0.88262 0.0
O309 O 0.91859 0.35852 0.82694 0.0
O310 O 0.94389 0.37101 0.88374 0.0
C311 C 0.87197 0.30744 0.86969 0.0
O312 O 0.89668 0.34689 0.94556 0.0
Co313 Co 0.8438 0.33491 0.90092 0.0
O314 O 0.85133 0.32633 0.95721 0.0
C315 C 0.88333 0.39167 0.87488 0.0
C316 C 0.94284 0.37031 0.8434 0.0
C317 C 0.87575 0.33534 0.97012 0.0
O318 O 0.90352 0.38737 0.88124 0.0
O319 O 0.85821 0.37267 0.87774 0.0
O320 O 0.89683 0.31356 0.87929 0.0
O321 O 0.86781 0.32787 0.86676 0.0
Co322 Co 0.65013 0.55258 0.87271 0.0
O323 O 0.64109 0.55807 0.81694 0.0
O324 O 0.62696 0.56896 0.87399 0.0
C325 C 0.69509 0.56932 0.85731 0.0
O326 O 0.65538 0.55158 0.93576 0.0
Co327 Co 0.67565 0.51717 0.89616 0.0
O328 O 0.68355 0.5354 0.95089 0.0
C329 C 0.61721 0.4912 0.86908 0.0
C330 C 0.62752 0.56866 0.83371 0.0
C331 C 0.6699 0.54678 0.96176 0.0
O332 O 0.61732 0.51407 0.87282 0.0
O333 O 0.63878 0.48928 0.87408 0.0
O334 O 0.6863 0.58603 0.86694 0.0
O335 O 0.67686 0.54372 0.85712 0.0
Co336 Co 0.56997 0.88412 0.71616 0.0
O337 O 0.58472 0.89132 0.66052 0.0
O338 O 0.60941 0.90717 0.71772 0.0
C339 C 0.53473 0.89154 0.70197 0.0
O340 O 0.56246 0.8824 0.7788 0.0
Co341 Co 0.51147 0.83666 0.73573 0.0
O342 O 0.51744 0.8547 0.79064 0.0
C343 C 0.55494 0.82517 0.70866 0.0
C344 C 0.60874 0.90547 0.67746 0.0
C345 C 0.5414 0.87227 0.80308 0.0
O346 O 0.57338 0.84995 0.71755 0.0
O347 O 0.52919 0.8168 0.7101 0.0
O348 O 0.55896 0.91216 0.71006 0.0
O349 O 0.53324 0.86798 0.70057 0.0
Co350 Co 0.12515 0.6872 0.7117 0.0
O351 O 0.11581 0.692 0.65589 0.0
O352 O 0.10082 0.70227 0.71268 0.0
C353 C 0.11914 0.6447 0.70188 0.0
O354 O 0.12905 0.68352 0.77492 0.0
Co355 Co 0.1759 0.6801 0.72748 0.0
O356 O 0.16021 0.67001 0.78383 0.0
C357 C 0.18275 0.73181 0.69489 0.0
C358 C 0.10129 0.70161 0.67234 0.0
C359 C 0.14153 0.67433 0.79791 0.0
O360 O 0.15871 0.72547 0.70846 0.0
O361 O 0.192 0.71519 0.69581 0.0
O362 O 0.09795 0.64753 0.70927 0.0
O363 O 0.14201 0.6672 0.69732 0.0
Co364 Co 0.31786 0.43477 0.70584 0.0
O365 O 0.31331 0.42627 0.64739 0.0
O366 O 0.29558 0.39555 0.6976 0.0
C367 C 0.36347 0.46447 0.70117 0.0
O368 O 0.31873 0.43546 0.76974 0.0
Co369 Co 0.33943 0.49374 0.73951 0.0
O370 O 0.34503 0.47886 0.79187 0.0
C371 C 0.28274 0.46144 0.70564 0.0
C372 C 0.29906 0.40068 0.65804 0.0
C373 C 0.33169 0.45318 0.79865 0.0
O374 O 0.28435 0.43938 0.70487 0.0
O375 O 0.30305 0.48491 0.71542 0.0
O376 O 0.35453 0.43831 0.7036 0.0
O377 O 0.34491 0.47143 0.69965 0.0
Co378 Co 0.54635 0.89904 0.13606 0.0
O379 O 0.55691 0.90828 0.19309 0.0
O380 O 0.56958 0.93853 0.1423 0.0
C381 C 0.55431 0.86349 0.13328 0.0
O382 O 0.53992 0.89634 0.07281 0.0
Co383 Co 0.49602 0.8415 0.1159 0.0
O384 O 0.506 0.85345 0.0577 0.0
C385 C 0.48866 0.88307 0.16002 0.0
C386 C 0.57016 0.93374 0.18171 0.0
C387 C 0.52439 0.87745 0.04672 0.0
O388 O 0.51235 0.90195 0.14725 0.0
O389 O 0.47998 0.8575 0.15484 0.0
O390 O 0.57466 0.88836 0.12872 0.0
O391 O 0.5312 0.86149 0.14284 0.0
Co392 Co 0.10356 0.65942 0.13479 0.0
O393 O 0.09399 0.65542 0.19264 0.0
O394 O 0.06399 0.6431 0.14157 0.0
C395 C 0.13966 0.7026 0.14154 0.0
O396 O 0.10657 0.66177 0.07091 0.0
Co397 Co 0.16087 0.66854 0.10883 0.0
O398 O 0.14965 0.67287 0.05254 0.0
C399 C 0.11884 0.61557 0.14335 0.0
C400 C 0.06861 0.64479 0.18136 0.0
C401 C 0.12556 0.66792 0.04342 0.0
O402 O 0.1001 0.62178 0.13575 0.0
O403 O 0.14447 0.63267 0.13897 0.0
O404 O 0.11498 0.69878 0.13748 0.0
O405 O 0.14107 0.68055 0.14374 0.0
Co406 Co 0.35198 0.45139 0.13511 0.0
O407 O 0.35856 0.44632 0.19265 0.0
O408 O 0.3746 0.4347 0.13839 0.0
C409 C 0.30652 0.43567 0.14322 0.0
O410 O 0.34943 0.4518 0.07151 0.0
Co411 Co 0.32927 0.48849 0.10496 0.0
O412 O 0.32279 0.46891 0.0514 0.0
C413 C 0.38669 0.51308 0.13604 0.0
C414 C 0.37275 0.43562 0.17845 0.0
C415 C 0.33607 0.45663 0.04344 0.0
O416 O 0.38541 0.48955 0.13576 0.0
O417 O 0.36599 0.51598 0.1279 0.0
O418 O 0.31522 0.41833 0.13855 0.0
O419 O 0.32521 0.46109 0.14467 0.0
Co420 Co 0.10016 0.44794 0.63192 0.0
O421 O 0.08583 0.44131 0.68771 0.0
O422 O 0.06051 0.42497 0.63127 0.0
C423 C 0.13525 0.44031 0.64629 0.0
O424 O 0.1078 0.44936 0.56912 0.0
Co425 Co 0.15949 0.49487 0.61237 0.0
O426 O 0.1535 0.47465 0.55965 0.0
C427 C 0.11621 0.50734 0.63768 0.0
C428 C 0.06163 0.42694 0.67154 0.0
C429 C 0.12949 0.45804 0.54635 0.0
O430 O 0.09731 0.48247 0.63015 0.0
O431 O 0.14186 0.51529 0.63564 0.0
O432 O 0.11095 0.41966 0.63865 0.0
O433 O 0.13676 0.46385 0.64718 0.0
Co434 Co 0.5474 0.6483 0.62664 0.0
O435 O 0.55652 0.64341 0.6827 0.0
O436 O 0.56976 0.63112 0.62601 0.0
C437 C 0.55581 0.69181 0.63497 0.0
O438 O 0.5436 0.65089 0.56337 0.0
Co439 Co 0.4994 0.65911 0.60746 0.0
O440 O 0.51359 0.66524 0.55002 0.0
C441 C 0.48914 0.607 0.64445 0.0
C442 C 0.56957 0.63213 0.66627 0.0
C443 C 0.53149 0.65918 0.53799 0.0
O444 O 0.51257 0.61126 0.6311 0.0
O445 O 0.4816 0.62493 0.64166 0.0
O446 O 0.57615 0.68753 0.6279 0.0
O447 O 0.53226 0.67014 0.63966 0.0
Co448 Co 0.35596 0.90327 0.64252 0.0
O449 O 0.36214 0.91086 0.70118 0.0
O450 O 0.37948 0.94222 0.65181 0.0
C451 C 0.31021 0.87452 0.64878 0.0
O452 O 0.35357 0.90381 0.57876 0.0
Co453 Co 0.33237 0.84491 0.60566 0.0
O454 O 0.32588 0.86103 0.55532 0.0
C455 C 0.38986 0.87524 0.63668 0.0
C456 C 0.37693 0.93653 0.69121 0.0
C457 C 0.33953 0.88682 0.54959 0.0
O458 O 0.38875 0.89749 0.63991 0.0
O459 O 0.36905 0.8522 0.62652 0.0
O460 O 0.31991 0.90085 0.64796 0.0
O461 O 0.32819 0.86674 0.64805 0.0
Co462 Co 0.12453 0.44265 0.20903 0.0
O463 O 0.11964 0.43469 0.15036 0.0
O464 O 0.09995 0.40394 0.20022 0.0
C465 C 0.12007 0.48036 0.20633 0.0
O466 O 0.1232 0.44294 0.27279 0.0
Co467 Co 0.17335 0.49671 0.24311 0.0
O468 O 0.15403 0.48477 0.29696 0.0
C469 C 0.18263 0.45562 0.20086 0.0
C470 C 0.10367 0.40924 0.16074 0.0
C471 C 0.13412 0.46055 0.30245 0.0
O472 O 0.15753 0.43711 0.20777 0.0
O473 O 0.19195 0.48103 0.20881 0.0
O474 O 0.09825 0.45616 0.20694 0.0
O475 O 0.14308 0.48066 0.20426 0.0
Co476 Co 0.5683 0.68368 0.20766 0.0
O477 O 0.58443 0.68759 0.15364 0.0
O478 O 0.60792 0.70018 0.21219 0.0
C479 C 0.53309 0.64038 0.19699 0.0
O480 O 0.55824 0.6819 0.26953 0.0
Co481 Co 0.50887 0.6743 0.21449 0.0
O482 O 0.51376 0.67047 0.27441 0.0
C483 C 0.55445 0.72758 0.1869 0.0
C484 C 0.60809 0.69864 0.17189 0.0
C485 C 0.53652 0.67592 0.29096 0.0
O486 O 0.57201 0.72127 0.20108 0.0
O487 O 0.52868 0.71045 0.18524 0.0
O488 O 0.5569 0.64417 0.20858 0.0
O489 O 0.53237 0.66244 0.18987 0.0
Co490 Co 0.31968 0.88933 0.21268 0.0
O491 O 0.31613 0.89257 0.15375 0.0
O492 O 0.29739 0.90612 0.20164 0.0
C493 C 0.36531 0.90472 0.2106 0.0
O494 O 0.31962 0.89024 0.27669 0.0
Co495 Co 0.34003 0.85151 0.24939 0.0
O496 O 0.34544 0.87297 0.30067 0.0
C497 C 0.28479 0.82774 0.21086 0.0
C498 C 0.30131 0.90364 0.16246 0.0
C499 C 0.33241 0.88579 0.30628 0.0
O500 O 0.28617 0.85129 0.21124 0.0
O501 O 0.30487 0.82445 0.22172 0.0
O502 O 0.35663 0.92223 0.21111 0.0
O503 O 0.34654 0.87935 0.20906 0.0
H504 H 0.34721 0.27545 0.8434 0.0
H505 H 0.40775 0.29645 0.93961 0.0
H506 H 0.37184 0.27939 0.99229 0.0
H507 H 0.32301 0.25791 0.01139 0.0
H508 H 0.26241 0.23634 0.91516 0.0
H509 H 0.29841 0.25429 0.86256 0.0
C510 C 0.35254 0.27627 0.87588 0.0
C511 C 0.38018 0.2872 0.8874 0.0
C512 C 0.33172 0.26638 0.90622 0.0
C513 C 0.38668 0.28813 0.92972 0.0
C514 C 0.36613 0.27839 0.95998 0.0
C515 C 0.31771 0.25732 0.97895 0.0
C516 C 0.29001 0.24582 0.96736 0.0
C517 C 0.33856 0.26745 0.94865 0.0
C518 C 0.28353 0.24507 0.92507 0.0
C519 C 0.30413 0.2553 0.89486 0.0
H520 H 0.7147 0.1022 0.93066 0.0
H521 H 0.73764 0.07293 0.82268 0.0
H522 H 0.75816 0.05283 0.86688 0.0
H523 H 0.76929 0.04306 0.93626 0.0
H524 H 0.74602 0.07188 0.04438 0.0
H525 H 0.72605 0.09258 1.00018 0.0
C526 C 0.72422 0.09146 0.91679 0.0
C527 C 0.72457 0.08909 0.87335 0.0
C528 C 0.73595 0.0798 0.94246 0.0
C529 C 0.737 0.07506 0.85598 0.0
C530 C 0.74878 0.06354 0.88126 0.0
C531 C 0.7599 0.05391 0.95018 0.0
C532 C 0.75918 0.05586 0.99363 0.0
C533 C 0.74832 0.06571 0.92454 0.0
C534 C 0.74687 0.07 0.01106 0.0
C535 C 0.73542 0.08187 0.98578 0.0
H536 H 0.97124 0.72078 0.92681 0.0
H537 H 0.93199 0.67188 0.03527 0.0
H538 H 0.91123 0.63032 0.99262 0.0
H539 H 0.90303 0.60817 0.92402 0.0
H540 H 0.94254 0.65749 0.81593 0.0
H541 H 0.96452 0.69861 0.85906 0.0
C542 C 0.95821 0.70104 0.94124 0.0
C543 C 0.95307 0.69947 0.98421 0.0
C544 C 0.94639 0.67731 0.91656 0.0
C545 C 0.93628 0.67368 1.00232 0.0
C546 C 0.92437 0.64992 0.97791 0.0
C547 C 0.91658 0.62789 0.90991 0.0
C548 C 0.92106 0.62972 0.86671 0.0
C549 C 0.92911 0.65152 0.93493 0.0
C550 C 0.93872 0.65545 0.84902 0.0
C551 C 0.95126 0.679 0.87367 0.0
H552 H 0.2726 0.34555 0.67101 0.0
H553 H 0.30176 0.40628 0.57381 0.0
H554 H 0.28582 0.37021 0.52141 0.0
H555 H 0.26376 0.32113 0.50298 0.0
H556 H 0.23487 0.26076 0.6008 0.0
H557 H 0.25059 0.29683 0.65277 0.0
C558 C 0.27536 0.3509 0.63837 0.0
C559 C 0.28833 0.37859 0.62644 0.0
C560 C 0.2663 0.33005 0.60833 0.0
C561 C 0.29183 0.38513 0.58394 0.0
C562 C 0.28276 0.3645 0.55388 0.0
C563 C 0.26101 0.31591 0.53566 0.0
C564 C 0.24819 0.28824 0.54784 0.0
C565 C 0.27005 0.33686 0.56568 0.0
C566 C 0.24468 0.28185 0.5904 0.0
C567 C 0.25364 0.30249 0.62028 0.0
H568 H 0.61316 0.90612 0.5931 0.0
H569 H 0.66154 0.93272 0.70511 0.0
H570 H 0.70359 0.9518 0.66419 0.0
H571 H 0.72666 0.96065 0.5971 0.0
H572 H 0.67905 0.93524 0.48441 0.0
H573 H 0.6366 0.91584 0.52516 0.0
C574 C 0.63291 0.91617 0.60854 0.0
C575 C 0.63416 0.91796 0.65218 0.0
C576 C 0.65711 0.92718 0.58475 0.0
C577 C 0.65993 0.93108 0.67165 0.0
C578 C 0.68402 0.94195 0.64826 0.0
C579 C 0.70702 0.95079 0.58133 0.0
C580 C 0.70603 0.94926 0.53773 0.0
C581 C 0.68284 0.94002 0.60487 0.0
C582 C 0.68038 0.93662 0.51791 0.0
C583 C 0.65612 0.92557 0.54122 0.0
H584 H 0.03711 0.75389 0.58659 0.0
H585 H 0.06737 0.7342 0.47644 0.0
H586 H 0.08911 0.71449 0.51917 0.0
H587 H 0.10022 0.70359 0.58794 0.0
H588 H 0.06999 0.72352 0.69793 0.0
H589 H 0.0475 0.74231 0.6551 0.0
C590 C 0.04841 0.74524 0.57185 0.0
C591 C 0.05062 0.74558 0.52828 0.0
C592 C 0.06088 0.73398 0.59662 0.0
C593 C 0.06532 0.73423 0.50983 0.0
C594 C 0.07778 0.72296 0.53428 0.0
C595 C 0.08863 0.71195 0.60258 0.0
C596 C 0.08684 0.71214 0.64619 0.0
C597 C 0.07579 0.72282 0.57772 0.0
C598 C 0.07173 0.72309 0.66453 0.0
C599 C 0.05887 0.73387 0.64002 0.0
H600 H 0.61268 0.69605 0.08855 0.0
H601 H 0.66128 0.72806 0.19948 0.0
H602 H 0.70316 0.75044 0.15748 0.0
H603 H 0.72571 0.76261 0.0888 0.0
H604 H 0.67647 0.73055 0.97835 0.0
H605 H 0.63515 0.7065 0.02066 0.0
C606 C 0.63243 0.70776 0.10367 0.0
C607 C 0.63379 0.71043 0.14717 0.0
C608 C 0.65633 0.7207 0.07934 0.0
C609 C 0.65961 0.72563 0.16611 0.0
C610 C 0.68356 0.73851 0.14207 0.0
C611 C 0.70595 0.75023 0.07399 0.0
C612 C 0.70423 0.74851 0.03037 0.0
C613 C 0.68214 0.73646 0.0986 0.0
C614 C 0.67845 0.73232 0.01177 0.0
C615 C 0.65476 0.71855 0.03597 0.0
H616 H 0.26725 0.92504 0.17009 0.0
H617 H 0.30914 0.90289 0.07923 0.0
H618 H 0.29051 0.91797 0.0235 0.0
H619 H 0.26243 0.9377 1.00013 0.0
H620 H 0.22017 0.95952 0.09079 0.0
H621 H 0.23872 0.94436 0.14661 0.0
C622 C 0.2723 0.92353 0.13811 0.0
C623 C 0.28963 0.91287 0.129 0.0
C624 C 0.26142 0.93219 0.10598 0.0
C625 C 0.29587 0.91099 0.08728 0.0
C626 C 0.28522 0.91963 0.05527 0.0
C627 C 0.25726 0.93912 0.03209 0.0
C628 C 0.23994 0.94979 0.04113 0.0
C629 C 0.26799 0.9303 0.0642 0.0
C630 C 0.23345 0.95142 0.0828 0.0
C631 C 0.24407 0.94275 0.11485 0.0
H632 H 0.07329 0.35434 0.17387 0.0
H633 H 0.10648 0.41476 0.07635 0.0
H634 H 0.08764 0.37842 0.02414 0.0
H635 H 0.06254 0.32915 1.00614 0.0
H636 H 0.03035 0.26919 0.10451 0.0
H637 H 0.04792 0.30557 0.15611 0.0
C638 C 0.07629 0.35959 0.1412 0.0
C639 C 0.09126 0.38724 0.1291 0.0
C640 C 0.06562 0.33861 0.11135 0.0
C641 C 0.09503 0.39364 0.08658 0.0
C642 C 0.08428 0.37286 0.05666 0.0
C643 C 0.0593 0.32409 0.03885 0.0
C644 C 0.04516 0.29644 0.05132 0.0
C645 C 0.06966 0.34522 0.06866 0.0
C646 C 0.0412 0.29025 0.09391 0.0
C647 C 0.05124 0.31107 0.12356 0.0
H648 H 0.70694 0.60996 0.426 0.0
H649 H 0.73058 0.66125 0.31691 0.0
H650 H 0.75097 0.70209 0.36021 0.0
H651 H 0.76281 0.72344 0.42828 0.0
H652 H 0.7401 0.67347 0.53854 0.0
H653 H 0.71856 0.63191 0.49556 0.0
C654 C 0.71649 0.63009 0.41176 0.0
C655 C 0.71723 0.63248 0.36816 0.0
C656 C 0.72837 0.65371 0.43701 0.0
C657 C 0.72971 0.65873 0.35027 0.0
C658 C 0.74141 0.68215 0.37503 0.0
C659 C 0.75313 0.70349 0.44312 0.0
C660 C 0.75313 0.70161 0.48664 0.0
C661 C 0.74096 0.67989 0.41833 0.0
C662 C 0.7404 0.67553 0.50513 0.0
C663 C 0.72812 0.65178 0.48053 0.0
H664 H 0.32443 0.06298 0.50317 0.0
H665 H 0.26477 0.03261 0.40439 0.0
H666 H 0.30148 0.05184 0.35296 0.0
H667 H 0.35074 0.07735 0.33564 0.0
H668 H 0.41033 0.10865 0.43447 0.0
H669 H 0.37362 0.089 0.48589 0.0
C670 C 0.31946 0.0606 0.4704 0.0
C671 C 0.29184 0.04633 0.45778 0.0
C672 C 0.34074 0.07185 0.44081 0.0
C673 C 0.28582 0.04352 0.41511 0.0
C674 C 0.30683 0.05448 0.38557 0.0
C675 C 0.35568 0.07977 0.36842 0.0
C676 C 0.38328 0.09439 0.38108 0.0
C677 C 0.33439 0.06865 0.39801 0.0
C678 C 0.38928 0.09751 0.42375 0.0
C679 C 0.36828 0.08628 0.45327 0.0
H680 H 0.9207 0.30583 0.42216 0.0
H681 H 0.92493 0.26146 0.31598 0.0
H682 H 0.94513 0.24033 0.35918 0.0
H683 H 0.96074 0.23381 0.42767 0.0
H684 H 0.95632 0.27854 0.53332 0.0
H685 H 0.93713 0.30021 0.48971 0.0
C686 C 0.92606 0.29157 0.40834 0.0
C687 C 0.92121 0.2852 0.36583 0.0
C688 C 0.93765 0.27955 0.43333 0.0
C689 C 0.92842 0.26674 0.34856 0.0
C690 C 0.93995 0.25463 0.37329 0.0
C691 C 0.95569 0.24839 0.44113 0.0
C692 C 0.95997 0.25449 0.48382 0.0
C693 C 0.94455 0.26079 0.41578 0.0
C694 C 0.95327 0.27343 0.50065 0.0
C695 C 0.94225 0.28583 0.47571 0.0
H696 H 0.01318 0.61193 0.16996 0.0
H697 H 0.07447 0.65381 0.2644 0.0
H698 H 0.03936 0.63457 0.31809 0.0
H699 H 0.99137 0.60441 0.33898 0.0
H700 H 0.93003 0.56162 0.24498 0.0
H701 H 0.96479 0.58253 0.19087 0.0
C702 C 0.01878 0.61702 0.20225 0.0
C703 C 0.04646 0.63428 0.21301 0.0
C704 C 0.99843 0.60555 0.2333 0.0
C705 C 0.05336 0.64051 0.25511 0.0
C706 C 0.03327 0.62949 0.28597 0.0
C707 C 0.98559 0.59975 0.30666 0.0
C708 C 0.95811 0.5814 0.29621 0.0
C709 C 0.00577 0.61174 0.27554 0.0
C710 C 0.95103 0.57561 0.25407 0.0
C711 C 0.97092 0.58758 0.22298 0.0
H712 H 0.43589 0.38418 0.26827 0.0
H713 H 0.39867 0.39717 0.37644 0.0
H714 H 0.37712 0.41677 0.33267 0.0
H715 H 0.36886 0.43008 0.26309 0.0
H716 H 0.40642 0.41624 0.15592 0.0
H717 H 0.42788 0.39721 0.19999 0.0
C718 C 0.42306 0.39126 0.28244 0.0
C719 C 0.4189 0.38918 0.32563 0.0
C720 C 0.41082 0.40243 0.25719 0.0
C721 C 0.40219 0.39849 0.34329 0.0
C722 C 0.38989 0.40973 0.31825 0.0
C723 C 0.3818 0.42296 0.24945 0.0
C724 C 0.386 0.42462 0.20617 0.0
C725 C 0.39407 0.41181 0.27509 0.0
C726 C 0.40277 0.41521 0.18903 0.0
C727 C 0.41508 0.40429 0.21422 0.0
H728 H 0.59743 0.98939 0.16958 0.0
H729 H 0.5735 0.92771 0.26475 0.0
H730 H 0.59343 0.96314 0.31775 0.0
H731 H 0.61654 0.01169 0.33785 0.0
H732 H 0.64078 0.07364 0.24313 0.0
H733 H 0.622 0.03826 0.18963 0.0
C734 C 0.59674 0.98373 0.20188 0.0
C735 C 0.5839 0.95587 0.21302 0.0
C736 C 0.60824 0.00432 0.23251 0.0
C737 C 0.58319 0.94895 0.25512 0.0
C738 C 0.59457 0.96923 0.2856 0.0
C739 C 0.61779 0.01746 0.3055 0.0
C740 C 0.63 0.0453 0.29465 0.0
C741 C 0.60695 0.99698 0.27476 0.0
C742 C 0.63149 0.05237 0.25248 0.0
C743 C 0.62072 0.03213 0.22177 0.0
H744 H 0.40734 0.99172 0.67964 0.0
H745 H 0.37435 0.93 0.77535 0.0
H746 H 0.39308 0.96559 0.82864 0.0
H747 H 0.41794 0.01458 0.84824 0.0
H748 H 0.45052 0.07593 0.75185 0.0
H749 H 0.43294 0.04029 0.69904 0.0
C750 C 0.40434 0.98603 0.71214 0.0
C751 C 0.38941 0.95822 0.72339 0.0
C752 C 0.41506 0.00661 0.74269 0.0
C753 C 0.38574 0.95126 0.76573 0.0
C754 C 0.39643 0.97162 0.7963 0.0
C755 C 0.42126 0.02012 0.8157 0.0
C756 C 0.43549 0.04794 0.80417 0.0
C757 C 0.41098 0.99941 0.78518 0.0
C758 C 0.43961 0.05472 0.76177 0.0
C759 C 0.42954 0.03433 0.73141 0.0
H760 H 0.05905 0.42773 0.75576 0.0
H761 H 0.00802 0.39741 0.64679 0.0
H762 H 0.96694 0.37728 0.69035 0.0
H763 H 0.94548 0.36866 0.7593 0.0
H764 H 0.99649 0.39876 0.86833 0.0
H765 H 0.0376 0.41861 0.82479 0.0
C766 C 0.03895 0.41667 0.74148 0.0
C767 C 0.03666 0.41412 0.69798 0.0
C768 C 0.0154 0.40515 0.76675 0.0
C769 C 0.01042 0.39969 0.68012 0.0
C770 C 0.9869 0.38819 0.70504 0.0
C771 C 0.96559 0.37957 0.77361 0.0
C772 C 0.96786 0.38225 0.8171 0.0
C773 C 0.98914 0.39087 0.74837 0.0
C774 C 0.99411 0.39638 0.835 0.0
C775 C 0.01764 0.40775 0.8101 0.0
H776 H 0.62869 0.57379 0.74966 0.0
H777 H 0.597 0.59122 0.86033 0.0
H778 H 0.57672 0.61276 0.81857 0.0
H779 H 0.56814 0.62692 0.75051 0.0
H780 H 0.59987 0.60937 0.63996 0.0
H781 H 0.62004 0.5878 0.68175 0.0
C782 C 0.61726 0.5822 0.76467 0.0
C783 C 0.61435 0.58081 0.80812 0.0
C784 C 0.60575 0.5947 0.74046 0.0
C785 C 0.59954 0.59194 0.82698 0.0
C786 C 0.58797 0.60433 0.8031 0.0
C787 C 0.57956 0.61848 0.73556 0.0
C788 C 0.58253 0.61987 0.6921 0.0
C789 C 0.59102 0.60592 0.75981 0.0
C790 C 0.59729 0.60866 0.6733 0.0
C791 C 0.60881 0.59626 0.69719 0.0
H792 H 0.25608 0.06511 1.00087 0.0
H793 H 0.18117 0.02991 0.92964 0.0
H794 H 0.17725 0.07032 0.94133 0.0
H795 H 0.19148 0.11273 0.97845 0.0
H796 H 0.26532 0.14908 0.05174 0.0
H797 H 0.27355 0.11152 0.03231 0.0
C798 C 0.2393 0.06667 0.98723 0.0
C799 C 0.21876 0.04437 0.96481 0.0
C800 C 0.23677 0.09 0.99492 0.0
C801 C 0.19706 0.04656 0.94742 0.0
C802 C 0.19474 0.06969 0.95412 0.0
C803 C 0.20956 0.11261 0.98985 0.0
C804 C 0.2275 0.13328 0.01701 0.0
C805 C 0.21388 0.09103 0.97897 0.0
C806 C 0.25115 0.13325 0.03087 0.0
C807 C 0.25574 0.11171 0.01994 0.0
H808 H 0.96758 0.16239 0.03552 0.0
H809 H 0.92362 0.19183 0.96237 0.0
H810 H 0.87978 0.15128 0.98229 0.0
H811 H 0.85442 0.10564 0.01805 0.0
H812 H 0.90076 0.07928 0.09266 0.0
H813 H 0.94303 0.1206 0.07517 0.0
C814 C 0.94841 0.15998 0.0238 0.0
C815 C 0.94879 0.17972 0.99692 0.0
C816 C 0.92365 0.13716 0.03591 0.0
C817 C 0.92379 0.17669 0.98288 0.0
C818 C 0.89878 0.15354 0.9943 0.0
C819 C 0.87374 0.10926 0.03095 0.0
C820 C 0.87438 0.08909 0.05612 0.0
C821 C 0.89846 0.13339 0.02055 0.0
C822 C 0.89962 0.09413 0.07264 0.0
C823 C 0.92391 0.1178 0.06267 0.0
H824 H 0.81639 0.74695 0.99749 0.0
H825 H 0.85452 0.83083 0.95539 0.0
H826 H 0.89964 0.83635 0.96604 0.0
H827 H 0.92843 0.8191 0.99166 0.0
H828 H 0.89243 0.7361 0.03683 0.0
H829 H 0.8465 0.72845 0.02039 0.0
C830 C 0.83463 0.76624 0.99013 0.0
C831 C 0.83202 0.7885 0.97584 0.0
C832 C 0.86093 0.76956 0.99727 0.0
C833 C 0.85583 0.81344 0.96671 0.0
C834 C 0.88174 0.81666 0.97282 0.0
C835 C 0.91064 0.79922 0.99797 0.0
C836 C 0.91399 0.77834 0.01604 0.0
C837 C 0.88452 0.79513 0.98893 0.0
C838 C 0.89054 0.75263 0.02316 0.0
C839 C 0.86424 0.74827 0.01382 0.0
H840 H 0.10788 0.17783 0.49873 0.0
H841 H 0.16194 0.26384 0.47438 0.0
H842 H 0.12533 0.27338 0.49407 0.0
H843 H 0.0768 0.25645 0.51643 0.0
H844 H 0.02476 0.16984 0.54026 0.0
H845 H 0.06179 0.16162 0.52288 0.0
C846 C 0.11181 0.19874 0.49745 0.0
C847 C 0.13757 0.21999 0.48451 0.0
C848 C 0.09093 0.20403 0.50898 0.0
C849 C 0.14224 0.24699 0.48395 0.0
C850 C 0.1213 0.25246 0.49525 0.0
C851 C 0.07376 0.23588 0.51813 0.0
C852 C 0.0479 0.21383 0.52955 0.0
C853 C 0.0954 0.23105 0.50764 0.0
C854 C 0.04429 0.18727 0.53152 0.0
C855 C 0.06549 0.18243 0.52146 0.0
H856 H 0.8062 0.83939 0.47593 0.0
H857 H 0.73982 0.81164 0.56367 0.0
H858 H 0.73592 0.85251 0.54926 0.0
H859 H 0.75503 0.89864 0.51606 0.0
H860 H 0.82166 0.92467 0.42876 0.0
H861 H 0.82145 0.88172 0.43792 0.0
C862 C 0.79073 0.84217 0.49177 0.0
C863 C 0.77365 0.82289 0.52131 0.0
C864 C 0.78862 0.86539 0.48319 0.0
C865 C 0.75332 0.82639 0.54095 0.0
C866 C 0.75115 0.84975 0.53274 0.0
C867 C 0.76895 0.89449 0.49836 0.0
C868 C 0.78849 0.91486 0.47199 0.0
C869 C 0.76912 0.86973 0.50446 0.0
C870 C 0.80661 0.90939 0.44946 0.0
C871 C 0.80659 0.88489 0.45479 0.0
H872 H 0.11036 0.85133 0.46242 0.0
H873 H 0.06195 0.87485 0.53776 0.0
H874 H 0.10308 0.91542 0.56109 0.0
H875 H 0.15168 0.94689 0.55444 0.0
H876 H 0.20214 0.92589 0.48023 0.0
H877 H 0.16159 0.88158 0.46263 0.0
C878 C 0.10898 0.86515 0.48443 0.0
C879 C 0.08301 0.86034 0.49754 0.0
C880 C 0.13303 0.889 0.49771 0.0
C881 C 0.08156 0.87834 0.52634 0.0
C882 C 0.1051 0.90158 0.53989 0.0
C883 C 0.15398 0.93251 0.53489 0.0
C884 C 0.17973 0.93974 0.51827 0.0
C885 C 0.13077 0.90754 0.52479 0.0
C886 C 0.18243 0.9207 0.49345 0.0
C887 C 0.15921 0.89549 0.48316 0.0
H888 H 0.74189 0.93709 0.99932 0.0
H889 H 0.79723 0.95588 0.10231 0.0
H890 H 0.79849 0.91386 0.09079 0.0
H891 H 0.79015 0.87612 0.04494 0.0
H892 H 0.73654 0.85687 0.9398 0.0
H893 H 0.72787 0.89426 0.95863 0.0
C894 C 0.75341 0.93138 0.01996 0.0
C895 C 0.76948 0.94952 0.05168 0.0
C896 C 0.7547 0.90734 0.01224 0.0
C897 C 0.78476 0.94227 0.07778 0.0
C898 C 0.7856 0.91829 0.07105 0.0
C899 C 0.77603 0.87972 0.02674 0.0
C900 C 0.76415 0.86405 0.99096 0.0
C901 C 0.77163 0.90134 0.03738 0.0
C902 C 0.74581 0.86868 0.96762 0.0
C903 C 0.74107 0.89019 0.97823 0.0
H904 H 0.14745 0.89436 1.00678 0.0
H905 H 0.10882 0.90052 0.89495 0.0
H906 H 0.06704 0.85817 0.91208 0.0
H907 H 0.03947 0.82321 0.96283 0.0
H908 H 0.07622 0.8154 0.07519 0.0
H909 H 0.1208 0.85444 0.05407 0.0
C910 C 0.13014 0.88589 0.98568 0.0
C911 C 0.1311 0.90063 0.94979 0.0
C912 C 0.10572 0.86161 0.99626 0.0
C913 C 0.10847 0.88963 0.92285 0.0
C914 C 0.08451 0.8655 0.93272 0.0
C915 C 0.05737 0.82987 0.98245 0.0
C916 C 0.05468 0.81693 0.02069 0.0
C917 C 0.08257 0.85199 0.97004 0.0
C918 C 0.07794 0.82526 0.04563 0.0
C919 C 0.10333 0.84759 0.03358 0.0
H920 H 0.18695 0.25737 0.01202 0.0
H921 H 0.14734 0.17885 0.07357 0.0
H922 H 0.10267 0.17445 0.06193 0.0
H923 H 0.07448 0.19014 0.02822 0.0
H924 H 0.1121 0.26811 0.96548 0.0
H925 H 0.15781 0.27566 0.98377 0.0
C926 C 0.16854 0.23968 0.02369 0.0
C927 C 0.17043 0.21834 0.04336 0.0
C928 C 0.14254 0.23696 0.01606 0.0
C929 C 0.14643 0.1954 0.05801 0.0
C930 C 0.12083 0.19281 0.05127 0.0
C931 C 0.09266 0.20889 0.01864 0.0
C932 C 0.08992 0.22828 0.99484 0.0
C933 C 0.11859 0.21299 0.02919 0.0
C934 C 0.11367 0.25276 0.98359 0.0
C935 C 0.1398 0.25702 0.99398 0.0
H936 H 0.96184 0.78693 0.54022 0.0
H937 H 0.92496 0.73127 0.43787 0.0
H938 H 0.88084 0.72918 0.45194 0.0
H939 H 0.85478 0.74832 0.4889 0.0
H940 H 0.89429 0.8052 0.58948 0.0
H941 H 0.93523 0.80139 0.58114 0.0
C942 C 0.94401 0.774 0.52132 0.0
C943 C 0.94656 0.75954 0.48784 0.0
C944 C 0.91923 0.77325 0.52932 0.0
C945 C 0.92335 0.74256 0.46389 0.0
C946 C 0.89825 0.74155 0.47181 0.0
C947 C 0.87217 0.75927 0.50947 0.0
C948 C 0.87171 0.77718 0.53962 0.0
C949 C 0.89616 0.75749 0.50378 0.0
C950 C 0.89435 0.79148 0.56594 0.0
C951 C 0.91777 0.78938 0.56113 0.0
H952 H 0.19435 0.15279 0.52818 0.0
H953 H 0.26941 0.1854 0.45814 0.0
H954 H 0.27237 0.14415 0.47415 0.0
H955 H 0.25143 0.09714 0.50535 0.0
H956 H 0.17698 0.06745 0.57717 0.0
H957 H 0.17627 0.10933 0.56359 0.0
C958 C 0.21142 0.15094 0.51635 0.0
C959 C 0.23137 0.17182 0.49146 0.0
C960 C 0.21312 0.12764 0.52617 0.0
C961 C 0.25369 0.16943 0.47719 0.0
C962 C 0.25534 0.14586 0.48634 0.0
C963 C 0.23534 0.10009 0.51851 0.0
C964 C 0.21405 0.07883 0.54173 0.0
C965 C 0.23492 0.12459 0.5105 0.0
C966 C 0.1934 0.0831 0.55861 0.0
C967 C 0.1929 0.10711 0.55089 0.0
H968 H 0.90326 0.11406 0.60335 0.0
H969 H 0.90055 0.16692 0.50933 0.0
H970 H 0.85615 0.1295 0.48499 0.0
H971 H 0.8224 0.07918 0.48322 0.0
H972 H 0.82901 0.02703 0.57489 0.0
H973 H 0.86734 0.06652 0.60746 0.0
C974 C 0.89259 0.11759 0.57819 0.0
C975 C 0.9052 0.14299 0.55783 0.0
C976 C 0.86793 0.09583 0.56347 0.0
C977 C 0.89113 0.14749 0.52558 0.0
C978 C 0.86594 0.12598 0.51134 0.0
C979 C 0.83195 0.07675 0.51085 0.0
C980 C 0.82325 0.05033 0.52646 0.0
C981 C 0.85476 0.09966 0.52884 0.0
C982 C 0.8357 0.04721 0.56211 0.0
C983 C 0.85758 0.06975 0.58079 0.0
H984 H 0.91672 0.47882 0.31266 0.0
H985 H 0.90185 0.45762 0.44213 0.0
H986 H 0.90766 0.41796 0.43058 0.0
H987 H 0.90851 0.3851 0.38189 0.0
H988 H 0.92088 0.40395 0.25168 0.0
H989 H 0.92486 0.44883 0.26488 0.0
C990 C 0.91585 0.46604 0.33844 0.0
C991 C 0.90911 0.47109 0.37826 0.0
C992 C 0.91825 0.44262 0.33118 0.0
C993 C 0.90731 0.45414 0.41138 0.0
C994 C 0.91037 0.43136 0.4047 0.0
C995 C 0.91296 0.39949 0.35666 0.0
C996 C 0.91455 0.39155 0.31601 0.0
C997 C 0.9146 0.42475 0.3645 0.0
C998 C 0.91997 0.40996 0.28329 0.0
C999 C 0.92197 0.43545 0.29085 0.0
H1000 H 0.60212 0.52989 0.35547 0.0
H1001 H 0.62465 0.49173 0.25915 0.0
H1002 H 0.58345 0.44799 0.2722 0.0
H1003 H 0.54505 0.41932 0.31713 0.0
H1004 H 0.52197 0.45518 0.41602 0.0
H1005 H 0.55904 0.50112 0.39587 0.0
C1006 C 0.5974 0.51213 0.33658 0.0
C1007 C 0.61627 0.51395 0.30623 0.0
C1008 C 0.57391 0.48659 0.34534 0.0
C1009 C 0.61038 0.49079 0.28248 0.0
C1010 C 0.5869 0.46573 0.29013 0.0
C1011 C 0.54792 0.43726 0.33399 0.0
C1012 C 0.53126 0.43397 0.36842 0.0
C1013 C 0.5692 0.46318 0.32251 0.0
C1014 C 0.53472 0.4573 0.38952 0.0
C1015 C 0.55597 0.48348 0.37807 0.0
H1016 H 0.49019 0.08391 0.33511 0.0
H1017 H 0.52958 0.17007 0.30472 0.0
H1018 H 0.57416 0.17515 0.31812 0.0
H1019 H 0.60211 0.15654 0.34225 0.0
H1020 H 0.56503 0.07088 0.37359 0.0
H1021 H 0.5196 0.06418 0.35581 0.0
C1022 C 0.50859 0.10365 0.33099 0.0
C1023 C 0.50641 0.12659 0.31918 0.0
C1024 C 0.53462 0.10664 0.33926 0.0
C1025 C 0.53047 0.15206 0.314 0.0
C1026 C 0.55611 0.15507 0.32172 0.0
C1027 C 0.58415 0.13633 0.3453 0.0
C1028 C 0.58695 0.11436 0.35988 0.0
C1029 C 0.55839 0.1327 0.3351 0.0
C1030 C 0.56344 0.08821 0.36265 0.0
C1031 C 0.53747 0.0844 0.35256 0.0
H1032 H 0.78315 0.56136 0.75324 0.0
H1033 H 0.83081 0.59514 0.86415 0.0
H1034 H 0.79565 0.60442 0.89202 0.0
H1035 H 0.74722 0.5946 0.88948 0.0
H1036 H 0.70064 0.56102 0.77743 0.0
H1037 H 0.73953 0.5606 0.7449 0.0
C1038 C 0.78623 0.57166 0.78284 0.0
C1039 C 0.80933 0.57748 0.80672 0.0
C1040 C 0.76591 0.57671 0.79862 0.0
C1041 C 0.8132 0.5907 0.84512 0.0
C1042 C 0.79295 0.59573 0.86123 0.0
C1043 C 0.74613 0.58831 0.85742 0.0
C1044 C 0.72122 0.57787 0.83574 0.0
C1045 C 0.76862 0.5877 0.839 0.0
C1046 C 0.71973 0.56925 0.7945 0.0
C1047 C 0.74188 0.56879 0.776 0.0
H1048 H 0.46801 0.16994 0.80856 0.0
H1049 H 0.41119 0.14963 0.90976 0.0
H1050 H 0.40579 0.1894 0.8929 0.0
H1051 H 0.42177 0.2331 0.85316 0.0
H1052 H 0.47857 0.25127 0.75191 0.0
H1053 H 0.47902 0.20898 0.76436 0.0
C1054 C 0.45415 0.17404 0.82659 0.0
C1055 C 0.44026 0.15727 0.86053 0.0
C1056 C 0.4512 0.19661 0.81662 0.0
C1057 C 0.42208 0.16241 0.88343 0.0
C1058 C 0.41913 0.18518 0.87386 0.0
C1059 C 0.43363 0.22735 0.83328 0.0
C1060 C 0.4504 0.24549 0.80195 0.0
C1061 C 0.43414 0.20288 0.84103 0.0
C1062 C 0.46578 0.23786 0.77652 0.0
C1063 C 0.46613 0.2137 0.78365 0.0
H1064 H 0.77538 0.18538 0.84505 0.0
H1065 H 0.75435 0.22662 0.75152 0.0
H1066 H 0.79631 0.26933 0.76546 0.0
H1067 H 0.83616 0.29618 0.80861 0.0
H1068 H 0.8595 0.25705 0.90188 0.0
H1069 H 0.81964 0.21229 0.88368 0.0
C1070 C 0.78039 0.2036 0.82717 0.0
C1071 C 0.76155 0.2029 0.79767 0.0
C1072 C 0.8047 0.22852 0.83574 0.0
C1073 C 0.76827 0.22668 0.77478 0.0
C1074 C 0.79225 0.25117 0.78276 0.0
C1075 C 0.83265 0.2778 0.8248 0.0
C1076 C 0.85032 0.27982 0.85694 0.0
C1077 C 0.81009 0.25252 0.814 0.0
C1078 C 0.84597 0.25589 0.87711 0.0
C1079 C 0.82318 0.23038 0.86675 0.0
H1080 H 0.47405 0.23764 0.27129 0.0
H1081 H 0.40658 0.1779 0.34476 0.0
H1082 H 0.39826 0.21408 0.37125 0.0
H1083 H 0.41419 0.2642 0.37936 0.0
H1084 H 0.48422 0.3224 0.30799 0.0
H1085 H 0.48754 0.28547 0.27523 0.0
C1086 C 0.45726 0.23236 0.29275 0.0
C1087 C 0.4412 0.20518 0.30637 0.0
C1088 C 0.45333 0.25321 0.30879 0.0
C1089 C 0.41925 0.19869 0.33366 0.0
C1090 C 0.41469 0.21944 0.34915 0.0
C1091 C 0.42991 0.2686 0.35633 0.0
C1092 C 0.44918 0.29604 0.34659 0.0
C1093 C 0.4322 0.247 0.33793 0.0
C1094 C 0.46944 0.30152 0.31664 0.0
C1095 C 0.47133 0.28041 0.29766 0.0
H1096 H 0.81856 0.22931 0.32067 0.0
H1097 H 0.78534 0.27749 0.37237 0.0
H1098 H 0.74464 0.23621 0.39481 0.0
H1099 H 0.71627 0.18674 0.39429 0.0
H1100 H 0.74727 0.13681 0.34322 0.0
H1101 H 0.79107 0.17826 0.32686 0.0
C1102 C 0.80255 0.23073 0.33728 0.0
C1103 C 0.80494 0.25662 0.34394 0.0
C1104 C 0.77869 0.20657 0.3502 0.0
C1105 C 0.78401 0.25798 0.36589 0.0
C1106 C 0.76063 0.23432 0.37898 0.0
C1107 C 0.73272 0.18484 0.38008 0.0
C1108 C 0.72847 0.15882 0.36959 0.0
C1109 C 0.75744 0.20857 0.37037 0.0
C1110 C 0.7501 0.15668 0.35169 0.0
C1111 C 0.77505 0.18039 0.34203 0.0
H1112 H 0.85305 0.58729 0.3482 0.0
H1113 H 0.81403 0.50198 0.38333 0.0
H1114 H 0.76922 0.49643 0.36852 0.0
H1115 H 0.74125 0.51447 0.34145 0.0
H1116 H 0.77865 0.59937 0.30504 0.0
H1117 H 0.82388 0.60644 0.3247 0.0
C1118 C 0.83468 0.56764 0.35314 0.0
C1119 C 0.83692 0.54504 0.3666 0.0
C1120 C 0.80871 0.56441 0.34393 0.0
C1121 C 0.81295 0.51967 0.37274 0.0
C1122 C 0.78726 0.51642 0.3642 0.0
C1123 C 0.75924 0.5346 0.33772 0.0
C1124 C 0.75657 0.55624 0.32116 0.0
C1125 C 0.78495 0.53845 0.34897 0.0
C1126 C 0.78011 0.58228 0.31747 0.0
C1127 C 0.80598 0.58632 0.32866 0.0
H1128 H 0.63563 0.14872 0.81319 0.0
H1129 H 0.60045 0.06274 0.84055 0.0
H1130 H 0.55722 0.0606 0.8613 0.0
H1131 H 0.53047 0.08468 0.87532 0.0
H1132 H 0.56916 0.17137 0.84819 0.0
H1133 H 0.60977 0.17153 0.82396 0.0
C1134 C 0.61854 0.12933 0.82338 0.0
C1135 C 0.62139 0.10597 0.82546 0.0
C1136 C 0.5943 0.12846 0.83579 0.0
C1137 C 0.59881 0.08106 0.83852 0.0
C1138 C 0.57415 0.07991 0.85063 0.0
C1139 C 0.54779 0.10352 0.86404 0.0
C1140 C 0.54665 0.12806 0.8644 0.0
C1141 C 0.57179 0.10368 0.85005 0.0
C1142 C 0.56934 0.15224 0.84926 0.0
C1143 C 0.59271 0.15241 0.83505 0.0
H1144 H 0.92111 0.51584 0.83153 0.0
H1145 H 0.83371 0.47905 0.81302 0.0
H1146 H 0.82736 0.4342 0.82957 0.0
H1147 H 0.84575 0.40555 0.85137 0.0
H1148 H 0.93277 0.44051 0.87121 0.0
H1149 H 0.94008 0.48588 0.85213 0.0
C1150 C 0.90075 0.49794 0.83081 0.0
C1151 C 0.87791 0.50088 0.82113 0.0
C1152 C 0.8971 0.47191 0.84092 0.0
C1153 C 0.85165 0.47749 0.82049 0.0
C1154 C 0.84795 0.45176 0.83002 0.0
C1155 C 0.86642 0.42299 0.85171 0.0
C1156 C 0.88864 0.4195 0.86315 0.0
C1157 C 0.87042 0.44879 0.84074 0.0
C1158 C 0.91523 0.44251 0.86279 0.0
C1159 C 0.91942 0.46848 0.85182 0.0
H1160 H 0.56379 0.48144 0.86285 0.0
H1161 H 0.61323 0.44287 0.84759 0.0
H1162 H 0.57314 0.40031 0.82856 0.0
H1163 H 0.52438 0.37309 0.81825 0.0
H1164 H 0.47262 0.40866 0.83399 0.0
H1165 H 0.5132 0.45322 0.85024 0.0
C1166 C 0.56573 0.46372 0.85533 0.0
C1167 C 0.5917 0.46559 0.85721 0.0
C1168 C 0.54219 0.43868 0.84432 0.0
C1169 C 0.59371 0.44231 0.84706 0.0
C1170 C 0.57072 0.41778 0.83592 0.0
C1171 C 0.52181 0.39056 0.82497 0.0
C1172 C 0.4955 0.38751 0.82502 0.0
C1173 C 0.54493 0.41567 0.83477 0.0
C1174 C 0.49271 0.41048 0.83367 0.0
C1175 C 0.5159 0.43591 0.84314 0.0
H1176 H 0.59273 0.73777 0.67792 0.0
H1177 H 0.52266 0.70627 0.5966 0.0
H1178 H 0.51786 0.74604 0.60992 0.0
H1179 H 0.5296 0.78658 0.65075 0.0
H1180 H 0.59881 0.81948 0.73364 0.0
H1181 H 0.60808 0.78265 0.71375 0.0
C1182 C 0.57699 0.74014 0.66231 0.0
C1183 C 0.55804 0.71907 0.63627 0.0
C1184 C 0.57382 0.76302 0.67112 0.0
C1185 C 0.53744 0.7221 0.61674 0.0
C1186 C 0.53456 0.74482 0.62454 0.0
C1187 C 0.54684 0.78582 0.66434 0.0
C1188 C 0.56313 0.8053 0.69424 0.0
C1189 C 0.55194 0.76481 0.65278 0.0
C1190 C 0.58583 0.80451 0.71078 0.0
C1191 C 0.59106 0.78343 0.69945 0.0
H1192 H 0.19832 0.78406 0.72234 0.0
H1193 H 0.20793 0.73887 0.622 0.0
H1194 H 0.24618 0.78074 0.59444 0.0
H1195 H 0.28168 0.82813 0.60566 0.0
H1196 H 0.27396 0.87472 0.7052 0.0
H1197 H 0.23013 0.83478 0.72599 0.0
C1198 C 0.20831 0.78367 0.69379 0.0
C1199 C 0.20064 0.75841 0.67451 0.0
C1200 C 0.23089 0.80801 0.67833 0.0
C1201 C 0.21376 0.75807 0.6376 0.0
C1202 C 0.23569 0.78197 0.62186 0.0
C1203 C 0.26996 0.82976 0.6311 0.0
C1204 C 0.28093 0.8541 0.65401 0.0
C1205 C 0.24518 0.80677 0.64299 0.0
C1206 C 0.26567 0.85612 0.68693 0.0
C1207 C 0.24079 0.83319 0.69906 0.0
H1208 H 0.23215 0.41655 0.68592 0.0
H1209 H 0.27456 0.50482 0.69914 0.0
H1210 H 0.23337 0.50544 0.68058 0.0
H1211 H 0.18566 0.48196 0.66189 0.0
H1212 H 0.1407 0.39401 0.64895 0.0
H1213 H 0.18253 0.39233 0.6658 0.0
C1214 C 0.23233 0.43588 0.68475 0.0
C1215 C 0.25666 0.46056 0.69423 0.0
C1216 C 0.20815 0.43625 0.674 0.0
C1217 C 0.25638 0.48541 0.69236 0.0
C1218 C 0.23274 0.48589 0.6816 0.0
C1219 C 0.18483 0.4623 0.6625 0.0
C1220 C 0.16006 0.43814 0.65417 0.0
C1221 C 0.2086 0.46154 0.67254 0.0
C1222 C 0.15955 0.41294 0.65521 0.0
C1223 C 0.18345 0.412 0.66495 0.0
H1224 H 0.38842 0.87921 0.24854 0.0
H1225 H 0.40669 0.94579 0.16504 0.0
H1226 H 0.44999 0.94797 0.14537 0.0
H1227 H 0.47825 0.92503 0.14353 0.0
H1228 H 0.45693 0.85672 0.22552 0.0
H1229 H 0.4195 0.86126 0.25451 0.0
C1230 C 0.40225 0.8947 0.22686 0.0
C1231 C 0.39439 0.91213 0.20798 0.0
C1232 C 0.4264 0.89517 0.21496 0.0
C1233 C 0.41248 0.93226 0.18017 0.0
C1234 C 0.43704 0.93324 0.16856 0.0
C1235 C 0.46578 0.91166 0.16843 0.0
C1236 C 0.47001 0.89025 0.18191 0.0
C1237 C 0.44361 0.91394 0.18443 0.0
C1238 C 0.45374 0.87303 0.21417 0.0
C1239 C 0.43234 0.8756 0.23081 0.0
H1240 H 0.14887 0.60248 0.19272 0.0
H1241 H 0.07192 0.56625 0.12709 0.0
H1242 H 0.06346 0.52023 0.14517 0.0
H1243 H 0.0809 0.49051 0.17366 0.0
H1244 H 0.15878 0.52875 0.23725 0.0
H1245 H 0.16373 0.57368 0.22643 0.0
C1246 C 0.13012 0.58453 0.18251 0.0
C1247 C 0.1113 0.58773 0.15794 0.0
C1248 C 0.1256 0.55845 0.1927 0.0
C1249 C 0.08681 0.5643 0.14584 0.0
C1250 C 0.08205 0.53801 0.15606 0.0
C1251 C 0.09859 0.50868 0.18587 0.0
C1252 C 0.11958 0.50635 0.20592 0.0
C1253 C 0.10167 0.53482 0.17866 0.0
C1254 C 0.1425 0.53002 0.22137 0.0
C1255 C 0.1454 0.55577 0.21513 0.0
H1256 H 0.48344 0.6315 0.17542 0.0
H1257 H 0.52697 0.58839 0.20215 0.0
H1258 H 0.48545 0.54458 0.18552 0.0
H1259 H 0.4365 0.51889 0.16168 0.0
H1260 H 0.39574 0.56505 0.13453 0.0
H1261 H 0.43656 0.60713 0.15286 0.0
C1262 C 0.48402 0.61259 0.1779 0.0
C1263 C 0.5083 0.61326 0.19005 0.0
C1264 C 0.46049 0.58791 0.1679 0.0
C1265 C 0.50848 0.58844 0.19299 0.0
C1266 C 0.48478 0.56343 0.18331 0.0
C1267 C 0.43663 0.53817 0.15967 0.0
C1268 C 0.4128 0.53848 0.14658 0.0
C1269 C 0.46061 0.56293 0.17036 0.0
C1270 C 0.41348 0.5638 0.14439 0.0
C1271 C 0.43691 0.5881 0.15496 0.0
H1272 H 0.07951 0.59581 0.66821 0.0
H1273 H 0.15782 0.63431 0.7306 0.0
H1274 H 0.16208 0.59416 0.71932 0.0
H1275 H 0.14649 0.55051 0.68628 0.0
H1276 H 0.06966 0.51069 0.62026 0.0
H1277 H 0.06171 0.54866 0.63855 0.0
C1278 C 0.09715 0.59503 0.67999 0.0
C1279 C 0.11836 0.6181 0.70023 0.0
C1280 C 0.09995 0.57183 0.67216 0.0
C1281 C 0.14127 0.61701 0.7149 0.0
C1282 C 0.1438 0.59402 0.70833 0.0
C1283 C 0.12791 0.55 0.6758 0.0
C1284 C 0.10899 0.52813 0.65118 0.0
C1285 C 0.12375 0.57175 0.68598 0.0
C1286 C 0.08468 0.52746 0.63896 0.0
C1287 C 0.08021 0.5492 0.64934 0.0
H1288 H 0.38878 0.51368 0.73718 0.0
H1289 H 0.40259 0.46272 0.6525 0.0
H1290 H 0.44599 0.50261 0.63004 0.0
H1291 H 0.47589 0.55366 0.62694 0.0
H1292 H 0.45949 0.60314 0.71165 0.0
H1293 H 0.42161 0.56231 0.74197 0.0
C1294 C 0.40168 0.51118 0.71462 0.0
C1295 C 0.39257 0.48553 0.69627 0.0
C1296 C 0.42601 0.53413 0.7014 0.0
C1297 C 0.40941 0.48237 0.66724 0.0
C1298 C 0.43403 0.50524 0.65407 0.0
C1299 C 0.46435 0.55532 0.65263 0.0
C1300 C 0.47007 0.58139 0.66643 0.0
C1301 C 0.44198 0.5315 0.66972 0.0
C1302 C 0.45509 0.58332 0.69988 0.0
C1303 C 0.43342 0.55998 0.71735 0.0
H1304 H 0.43914 0.91778 0.6658 0.0
H1305 H 0.39932 0.83264 0.62861 0.0
H1306 H 0.43999 0.83058 0.64635 0.0
H1307 H 0.48634 0.85194 0.67283 0.0
H1308 H 0.52838 0.93701 0.70899 0.0
H1309 H 0.48742 0.94001 0.69142 0.0
C1310 C 0.43943 0.89885 0.66137 0.0
C1311 C 0.41591 0.87541 0.64591 0.0
C1312 C 0.46324 0.89766 0.67167 0.0
C1313 C 0.41683 0.85106 0.64049 0.0
C1314 C 0.44017 0.84976 0.6507 0.0
C1315 C 0.48665 0.8712 0.67708 0.0
C1316 C 0.51034 0.89417 0.69245 0.0
C1317 C 0.46335 0.8728 0.66649 0.0
C1318 C 0.51035 0.91898 0.69732 0.0
C1319 C 0.48694 0.92068 0.6872 0.0
H1320 H 0.1946 0.41456 0.21754 0.0
H1321 H 0.21307 0.4818 0.13481 0.0
H1322 H 0.25034 0.4778 0.10392 0.0
H1323 H 0.28189 0.4604 0.10761 0.0
H1324 H 0.26676 0.39496 0.19156 0.0
H1325 H 0.22373 0.39241 0.21413 0.0
C1326 C 0.20646 0.42781 0.19214 0.0
C1327 C 0.20142 0.44872 0.1788 0.0
C1328 C 0.22856 0.42584 0.17498 0.0
C1329 C 0.21688 0.46585 0.14593 0.0
C1330 C 0.23819 0.46357 0.12822 0.0
C1331 C 0.26883 0.4451 0.13008 0.0
C1332 C 0.27747 0.42804 0.14811 0.0
C1333 C 0.24486 0.44442 0.14357 0.0
C1334 C 0.26033 0.40816 0.17701 0.0
C1335 C 0.23594 0.40698 0.19026 0.0
H1336 H 0.59244 0.85315 0.16824 0.0
H1337 H 0.52026 0.81788 0.0911 0.0
H1338 H 0.51642 0.77298 0.09652 0.0
H1339 H 0.52936 0.74281 0.13084 0.0
H1340 H 0.59956 0.77602 0.21201 0.0
H1341 H 0.60875 0.82264 0.19702 0.0
C1342 C 0.57644 0.83571 0.15171 0.0
C1343 C 0.55663 0.83868 0.12926 0.0
C1344 C 0.57374 0.80955 0.15632 0.0
C1345 C 0.53566 0.81599 0.10853 0.0
C1346 C 0.53338 0.7903 0.1118 0.0
C1347 C 0.54689 0.76025 0.14499 0.0
C1348 C 0.56342 0.75595 0.17314 0.0
C1349 C 0.55161 0.78667 0.13691 0.0
C1350 C 0.5864 0.77878 0.19042 0.0
C1351 C 0.59156 0.80542 0.182 0.0
H1352 H 0.19093 0.71216 0.15201 0.0
H1353 H 0.14398 0.75358 0.14893 0.0
H1354 H 0.18503 0.79669 0.16922 0.0
H1355 H 0.23415 0.82183 0.19143 0.0
H1356 H 0.27856 0.77753 0.1962 0.0
H1357 H 0.23852 0.73644 0.1721 0.0
C1358 C 0.18956 0.73061 0.15542 0.0
C1359 C 0.16441 0.72963 0.14905 0.0
C1360 C 0.21282 0.75484 0.16795 0.0
C1361 C 0.16315 0.75381 0.15356 0.0
C1362 C 0.18658 0.7784 0.1654 0.0
C1363 C 0.23502 0.80319 0.18718 0.0
C1364 C 0.25949 0.80298 0.19611 0.0
C1365 C 0.21152 0.77907 0.17335 0.0
C1366 C 0.26015 0.77853 0.19016 0.0
C1367 C 0.23721 0.75487 0.17613 0.0
H1368 H 0.2233 0.23727 0.19014 0.0
H1369 H 0.21866 0.15864 0.18347 0.0
H1370 H 0.22101 0.15709 0.25888 0.0
H1371 H 0.21832 0.17501 0.32652 0.0
H1372 H 0.22215 0.25318 0.3355 0.0
H1373 H 0.22662 0.25831 0.2598 0.0
C1374 C 0.22364 0.22028 0.20535 0.0
C1375 C 0.22098 0.19813 0.18144 0.0
C1376 C 0.22445 0.21927 0.24914 0.0
C1377 C 0.2209 0.17594 0.20135 0.0
C1378 C 0.22206 0.17497 0.24445 0.0
C1379 C 0.22058 0.19341 0.31199 0.0
C1380 C 0.21956 0.21352 0.33657 0.0
C1381 C 0.22289 0.19604 0.26866 0.0
C1382 C 0.22289 0.23739 0.31731 0.0
C1383 C 0.22525 0.24022 0.27396 0.0
H1384 H 0.83372 0.04259 0.21108 0.0
H1385 H 0.75069 0.97698 0.19498 0.0
H1386 H 0.74432 0.97274 0.27067 0.0
H1387 H 0.76459 0.98473 0.34161 0.0
H1388 H 0.84801 0.0511 0.35529 0.0
H1389 H 0.85181 0.05824 0.28085 0.0
C1390 C 0.81404 0.02781 0.22426 0.0
C1391 C 0.79267 0.01021 0.19781 0.0
C1392 C 0.8107 0.02545 0.26751 0.0
C1393 C 0.76731 0.99095 0.21495 0.0
C1394 C 0.76378 0.98841 0.25819 0.0
C1395 C 0.78339 1.00108 0.32835 0.0
C1396 C 0.80612 0.01699 0.35428 0.0
C1397 C 0.78562 0.00511 0.28489 0.0
C1398 C 0.83029 0.03816 0.33633 0.0
C1399 C 0.83255 0.04234 0.29359 0.0
H1400 H 0.98055 0.81021 0.32075 0.0
H1401 H 0.023 0.76442 0.33125 0.0
H1402 H 0.02168 0.75923 0.25552 0.0
H1403 H 0.01032 0.77005 0.1853 0.0
H1404 H 0.96991 0.8179 0.17809 0.0
H1405 H 0.96837 0.81964 0.25335 0.0
C1406 C 0.98951 0.79896 0.30681 0.0
C1407 C 1.00201 0.78789 0.33205 0.0
C1408 C 0.98899 0.79638 0.26349 0.0
C1409 C 0.0133 0.77329 0.31283 0.0
C1410 C 0.01256 0.77032 0.26942 0.0
C1411 C 1.0009 0.78049 0.2004 0.0
C1412 C 0.99024 0.79386 0.17612 0.0
C1413 C 1.00069 0.78205 0.24427 0.0
C1414 C 0.97836 0.80759 0.19605 0.0
C1415 C 0.97749 0.80863 0.23912 0.0
H1416 H 0.83435 0.82539 0.81923 0.0
H1417 H 0.74691 0.772 0.83101 0.0
H1418 H 0.74352 0.76346 0.75593 0.0
H1419 H 0.76566 0.77357 0.68552 0.0
H1420 H 0.85313 0.82835 0.67732 0.0
H1421 H 0.85613 0.83367 0.75211 0.0
C1422 C 0.81443 0.81181 0.80567 0.0
C1423 C 0.7909 0.79963 0.831 0.0
C1424 C 0.81263 0.8072 0.76275 0.0
C1425 C 0.76542 0.78181 0.81243 0.0
C1426 C 0.76346 0.77693 0.7694 0.0
C1427 C 0.78533 0.78634 0.70032 0.0
C1428 C 0.80912 0.80072 0.67572 0.0
C1429 C 0.78694 0.78981 0.74401 0.0
C1430 C 0.83447 0.81732 0.69537 0.0
C1431 C 0.83625 0.82039 0.73823 0.0
H1432 H 0.24289 0.02994 0.68131 0.0
H1433 H 0.19634 0.94261 0.66276 0.0
H1434 H 0.19668 0.93498 0.73734 0.0
H1435 H 0.20312 0.95331 0.80845 0.0
H1436 H 0.24499 0.04061 0.82719 0.0
H1437 H 0.2541 0.04825 0.75271 0.0
C1438 C 0.23374 0.00929 0.69361 0.0
C1439 C 0.21986 0.98685 0.66666 0.0
C1440 C 0.23289 0.00511 0.73688 0.0
C1441 C 0.20735 0.96016 0.68298 0.0
C1442 C 0.20736 0.9558 0.72567 0.0
C1443 C 0.21516 0.97394 0.79625 0.0
C1444 C 0.22381 0.99638 0.82318 0.0
C1445 C 0.21908 0.97812 0.75309 0.0
C1446 C 0.23856 0.02307 0.807 0.0
C1447 C 0.24352 0.02741 0.76436 0.0
H1448 H 0.97145 0.21459 0.69899 0.0
H1449 H 0.0527 0.22723 0.67911 0.0
H1450 H 0.06217 0.2342 0.7534 0.0
H1451 H 0.04508 0.23004 0.82481 0.0
H1452 H 0.96287 0.21408 0.84588 0.0
H1453 H 0.9559 0.21512 0.7709 0.0
C1454 C 0.99147 0.21972 0.71094 0.0
C1455 C 0.01145 0.22061 0.68367 0.0
C1456 C 0.99639 0.22265 0.7541 0.0
C1457 C 0.03709 0.22659 0.69956 0.0
C1458 C 0.04245 0.2304 0.74206 0.0
C1459 C 0.02597 0.22761 0.81286 0.0
C1460 C 0.00464 0.2224 0.84055 0.0
C1461 C 0.02195 0.22752 0.76976 0.0
C1462 C 0.97969 0.21858 0.82497 0.0
C1463 C 0.97567 0.21898 0.78212 0.0
H1464 H 0.8831 0.50504 0.53411 0.0
H1465 H 0.89857 0.5861 0.5051 0.0
H1466 H 0.89844 0.59591 0.57954 0.0
H1467 H 0.88769 0.57858 0.65281 0.0
H1468 H 0.87165 0.49665 0.67854 0.0
H1469 H 0.87864 0.49022 0.60601 0.0
C1470 C 0.88712 0.52511 0.54419 0.0
C1471 C 0.89085 0.54481 0.51433 0.0
C1472 C 0.88661 0.53032 0.58665 0.0
C1473 C 0.89595 0.57071 0.52761 0.0
C1474 C 0.89559 0.57618 0.57017 0.0
C1475 C 0.8864 0.55963 0.64257 0.0
C1476 C 0.87877 0.53798 0.67111 0.0
C1477 C 0.89006 0.55579 0.60005 0.0
C1478 C 0.87708 0.51349 0.65725 0.0
C1479 C 0.88106 0.50975 0.61569 0.0
H1480 H 0.45123 0.36495 0.53222 0.0
H1481 H 0.46195 0.29521 0.51089 0.0
H1482 H 0.45626 0.28447 0.58451 0.0
H1483 H 0.45446 0.29812 0.6559 0.0
H1484 H 0.44543 0.36834 0.67979 0.0
H1485 H 0.44389 0.37554 0.6048 0.0
C1486 C 0.45167 0.34708 0.54368 0.0
C1487 C 0.45733 0.33109 0.51602 0.0
C1488 C 0.44891 0.34122 0.5867 0.0
C1489 C 0.458 0.30807 0.53146 0.0
C1490 C 0.45476 0.30188 0.57365 0.0
C1491 C 0.45132 0.31449 0.64457 0.0
C1492 C 0.44969 0.33246 0.67307 0.0
C1493 C 0.45111 0.31878 0.60168 0.0
C1494 C 0.44621 0.35397 0.65827 0.0
C1495 C 0.44562 0.35822 0.61541 0.0
H1496 H 0.63267 0.10251 0.65631 0.0
H1497 H 0.7186 0.12947 0.67048 0.0
H1498 H 0.7235 0.12804 0.59521 0.0
H1499 H 0.70435 0.12489 0.52483 0.0
H1500 H 0.61784 0.0949 0.51095 0.0
H1501 H 0.61192 0.09124 0.58636 0.0
C1502 C 0.65228 0.10742 0.64287 0.0
C1503 C 0.67528 0.11626 0.6688 0.0
C1504 C 0.65483 0.10611 0.59957 0.0
C1505 C 0.70058 0.12245 0.65114 0.0
C1506 C 0.70343 0.12183 0.60807 0.0
C1507 C 0.68411 0.1167 0.53844 0.0
C1508 C 0.6615 0.10999 0.51259 0.0
C1509 C 0.68087 0.11447 0.58188 0.0
C1510 C 0.63541 0.09978 0.53036 0.0
C1511 C 0.63209 0.09796 0.57347 0.0
H1512 H 0.42937 0.13102 0.15564 0.0
H1513 H 0.49192 0.10995 0.17903 0.0
H1514 H 0.49391 0.10118 0.10522 0.0
H1515 H 0.4832 0.10667 0.03292 0.0
H1516 H 0.42413 0.13225 0.00887 0.0
H1517 H 0.41504 0.13172 0.08329 0.0
C1518 C 0.4427 0.12361 0.1446 0.0
C1519 C 0.46028 0.12086 0.17269 0.0
C1520 C 0.44459 0.11976 0.10168 0.0
C1521 C 0.47805 0.11198 0.15793 0.0
C1522 C 0.47933 0.10715 0.11568 0.0
C1523 C 0.46768 0.11117 0.04406 0.0
C1524 C 0.454 0.11904 0.01562 0.0
C1525 C 0.46346 0.11196 0.08705 0.0
C1526 C 0.43456 0.12572 0.03032 0.0
C1527 C 0.42954 0.12564 0.07288 0.0
H1528 H 0.90894 0.34333 0.16082 0.0
H1529 H 0.82084 0.3008 0.17265 0.0
H1530 H 0.81591 0.29826 0.09745 0.0
H1531 H 0.83615 0.31082 0.02882 0.0
H1532 H 0.92417 0.35541 0.01438 0.0
H1533 H 0.92962 0.35438 0.08972 0.0
C1534 C 0.88875 0.33309 0.14672 0.0
C1535 C 0.86523 0.32209 0.1722 0.0
C1536 C 0.88604 0.33238 0.103 0.0
C1537 C 0.83918 0.30932 0.15366 0.0
C1538 C 0.83635 0.30796 0.11066 0.0
C1539 C 0.85663 0.32025 0.04185 0.0
C1540 C 0.8797 0.33337 0.0156 0.0
C1541 C 0.85959 0.3199 0.08506 0.0
C1542 C 0.90598 0.34524 0.03359 0.0
C1543 C 0.90912 0.34468 0.07679 0.0
H1544 H 0.63911 0.53965 0.15138 0.0
H1545 H 0.72591 0.57077 0.16416 0.0
H1546 H 0.73152 0.57501 0.0887 0.0
H1547 H 0.71085 0.56544 0.01887 0.0
H1548 H 0.62457 0.53723 1.00569 0.0
H1549 H 0.61958 0.53662 0.08122 0.0
C1550 C 0.65929 0.54797 0.1375 0.0
C1551 C 0.68212 0.55499 0.16304 0.0
C1552 C 0.66237 0.55065 0.09404 0.0
C1553 C 0.70815 0.56553 0.14496 0.0
C1554 C 0.71131 0.56776 0.10186 0.0
C1555 C 0.69108 0.55965 0.03259 0.0
C1556 C 0.66807 0.5512 1.00677 0.0
C1557 C 0.68847 0.55975 0.07603 0.0
C1558 C 0.64261 0.54395 0.02489 0.0
C1559 C 0.63971 0.54341 0.06811 0.0
H1560 H 0.56896 0.89539 0.99483 0.0
H1561 H 0.48297 0.87027 0.99751 0.0
H1562 H 0.4812 0.86859 0.92199 0.0
H1563 H 0.50242 0.86903 0.85587 0.0
H1564 H 0.58812 0.89306 0.851 0.0
H1565 H 0.59179 0.90058 0.92622 0.0
C1566 C 0.55013 0.89037 0.97867 0.0
C1567 C 0.52614 0.88311 1.00165 0.0
C1568 C 0.54907 0.88873 0.93484 0.0
C1569 C 0.5017 0.87607 0.98044 0.0
C1570 C 0.50062 0.87491 0.93726 0.0
C1571 C 0.522 0.87613 0.87112 0.0
C1572 C 0.54484 0.88005 0.84778 0.0
C1573 C 0.52391 0.8803 0.91423 0.0
C1574 C 0.57015 0.88974 0.86813 0.0
C1575 C 0.57223 0.89398 0.91124 0.0
H1576 H 0.1342 0.63971 0.98486 0.0
H1577 H 0.10518 0.69673 1.00143 0.0
H1578 H 0.10535 0.70277 0.92568 0.0
H1579 H 0.11882 0.69506 0.85459 0.0
H1580 H 0.14762 0.63719 0.84204 0.0
H1581 H 0.14227 0.62821 0.91574 0.0
C1582 C 0.12737 0.65305 0.97181 0.0
C1583 C 0.11971 0.66774 0.99854 0.0
C1584 C 0.12785 0.65656 0.92871 0.0
C1585 C 0.1109 0.68497 0.98137 0.0
C1586 C 0.11128 0.6886 0.93807 0.0
C1587 C 0.12353 0.68024 0.86799 0.0
C1588 C 0.13425 0.66736 0.84255 0.0
C1589 C 0.12046 0.67503 0.91133 0.0
C1590 C 0.14001 0.64801 0.86064 0.0
C1591 C 0.13686 0.64268 0.90297 0.0
H1592 H 0.29603 0.43132 0.98539 0.0
H1593 H 0.3836 0.47164 1.00249 0.0
H1594 H 0.39026 0.47201 0.92739 0.0
H1595 H 0.37121 0.4659 0.85654 0.0
H1596 H 0.28359 0.4223 0.83934 0.0
H1597 H 0.27675 0.41765 0.91461 0.0
C1598 C 0.31649 0.43959 0.97259 0.0
C1599 C 0.33932 0.45161 0.99928 0.0
C1600 C 0.32011 0.43923 0.92938 0.0
C1601 C 0.36574 0.46216 0.98252 0.0
C1602 C 0.36955 0.46253 0.93957 0.0
C1603 C 0.35066 0.4547 0.86937 0.0
C1604 C 0.32792 0.44447 0.84258 0.0
C1605 C 0.34693 0.45183 0.91265 0.0
C1606 C 0.30137 0.43007 0.85939 0.0
C1607 C 0.29748 0.42766 0.90243 0.0
H1608 H 0.09546 0.45854 0.48596 0.0
H1609 H 0.15999 0.43998 0.508 0.0
H1610 H 0.16439 0.43503 0.43364 0.0
H1611 H 0.15462 0.4425 0.3621 0.0
H1612 H 0.09225 0.46372 0.33881 0.0
H1613 H 0.08211 0.46106 0.4133 0.0
C1614 C 0.1099 0.45266 0.47439 0.0
C1615 C 0.12738 0.44961 0.50236 0.0
C1616 C 0.11296 0.45072 0.43121 0.0
C1617 C 0.14636 0.44247 0.487 0.0
C1618 C 0.14897 0.43975 0.44447 0.0
C1619 C 0.13826 0.44569 0.37339 0.0
C1620 C 0.12389 0.45287 0.34527 0.0
C1621 C 0.13309 0.44477 0.41623 0.0
C1622 C 0.10318 0.45766 0.36005 0.0
C1623 C 0.09757 0.45637 0.40263 0.0
H1624 H 0.55998 0.65622 0.34702 0.0
H1625 H 0.51499 0.69958 0.33814 0.0
H1626 H 0.51088 0.69935 0.41312 0.0
H1627 H 0.51715 0.6847 0.4806 0.0
H1628 H 0.5606 0.64005 0.493 0.0
H1629 H 0.56829 0.643 0.41767 0.0
C1630 C 0.54966 0.66591 0.36171 0.0
C1631 C 0.53767 0.67779 0.33693 0.0
C1632 C 0.54679 0.66522 0.40547 0.0
C1633 C 0.52417 0.69009 0.35639 0.0
C1634 C 0.52177 0.68997 0.39933 0.0
C1635 C 0.52835 0.67554 0.46711 0.0
C1636 C 0.53796 0.66186 0.49269 0.0
C1637 C 0.53247 0.67714 0.42408 0.0
C1638 C 0.55281 0.6506 0.47423 0.0
C1639 C 0.55719 0.65226 0.43106 0.0
H1640 H 0.37243 0.91422 0.36275 0.0
H1641 H 0.28464 0.86916 0.34779 0.0
H1642 H 0.27865 0.86768 0.42321 0.0
H1643 H 0.2988 0.87332 0.49329 0.0
H1644 H 0.38652 0.92098 0.50828 0.0
H1645 H 0.39224 0.9278 0.43314 0.0
C1646 C 0.35201 0.90488 0.37608 0.0
C1647 C 0.32899 0.89178 0.34987 0.0
C1648 C 0.34877 0.90431 0.41946 0.0
C1649 C 0.30263 0.87962 0.36735 0.0
C1650 C 0.29923 0.87853 0.41049 0.0
C1651 C 0.31909 0.88584 0.4801 0.0
C1652 C 0.34224 0.89651 0.50619 0.0
C1653 C 0.32217 0.88993 0.43686 0.0
C1654 C 0.36842 0.91274 0.48885 0.0
C1655 C 0.37169 0.91643 0.44584 0.0
loop_
_geom_bond_atom_site_label_1
_geom_bond_atom_site_label_2
_geom_bond_distance
_geom_bond_site_symmetry_2
_ccdc_geom_bond_type
Co0 O1 2.216 1_554 S
Co0 O2 2.091 . S
Co0 O4 2.004 . S
Co0 O10 2.021 . S
Co0 O12 2.137 . S
Co0 O13 2.244 . S
O1 Co0 2.216 1_556 S
O1 C8 1.247 . S
O2 Co0 2.091 . S
O2 C8 1.261 1_554 S
C3 O12 1.247 . S
C3 O13 1.272 . S
O4 Co0 2.004 . S
O4 C9 1.259 . S
Co5 O6 2.061 . S
Co5 O11 2.052 . S
Co5 O13 2.135 . S
O6 Co5 2.061 . S
O6 C9 1.235 . S
C7 O10 1.238 . S
C7 O11 1.241 . S
C8 O1 1.247 . S
C8 O2 1.261 1_556 S
C9 O4 1.259 . S
C9 O6 1.235 . S
O10 Co0 2.021 . S
O10 C7 1.238 . S
O11 Co5 2.052 . S
O11 C7 1.241 . S
O12 Co0 2.137 . S
O12 C3 1.247 . S
O13 Co0 2.244 . S
O13 C3 1.272 . S
O13 Co5 2.135 . S
Co14 O15 2.216 1_554 S
Co14 O16 2.091 . S
Co14 O18 2.004 . S
Co14 O24 2.021 . S
Co14 O26 2.137 1_545 S
Co14 O27 2.244 1_545 S
O15 Co14 2.216 1_556 S
O15 C22 1.247 . S
O16 Co14 2.091 . S
O16 C22 1.261 1_554 S
C17 O26 1.247 . S
C17 O27 1.272 . S
O18 Co14 2.004 . S
O18 C23 1.259 . S
Co19 O20 2.061 . S
Co19 O25 2.052 . S
Co19 O27 2.135 1_545 S
O20 Co19 2.061 . S
O20 C23 1.235 . S
C21 O24 1.238 . S
C21 O25 1.241 . S
C22 O15 1.247 . S
C22 O16 1.261 1_556 S
C23 O18 1.259 . S
C23 O20 1.235 . S
O24 Co14 2.021 . S
O24 C21 1.238 . S
O25 Co19 2.052 . S
O25 C21 1.241 . S
O26 Co14 2.137 1_565 S
O26 C17 1.247 . S
O27 Co14 2.244 1_565 S
O27 C17 1.272 . S
O27 Co19 2.135 1_565 S
Co28 O29 2.216 1_554 S
Co28 O30 2.091 . S
Co28 O32 2.004 . S
Co28 O38 2.021 . S
Co28 O40 2.137 1_655 S
Co28 O41 2.244 1_655 S
O29 Co28 2.216 1_556 S
O29 C36 1.247 . S
O30 Co28 2.091 . S
O30 C36 1.261 1_554 S
C31 O40 1.247 . S
C31 O41 1.272 . S
O32 Co28 2.004 . S
O32 C37 1.259 . S
Co33 O34 2.061 . S
Co33 O39 2.052 . S
Co33 O41 2.135 1_655 S
O34 Co33 2.061 . S
O34 C37 1.235 . S
C35 O38 1.238 . S
C35 O39 1.241 . S
C36 O29 1.247 . S
C36 O30 1.261 1_556 S
C37 O32 1.259 . S
C37 O34 1.235 . S
O38 Co28 2.021 . S
O38 C35 1.238 . S
O39 Co33 2.052 . S
O39 C35 1.241 . S
O40 Co28 2.137 1_455 S
O40 C31 1.247 . S
O41 Co28 2.244 1_455 S
O41 C31 1.272 . S
O41 Co33 2.135 1_455 S
Co42 O43 2.216 . S
Co42 O44 2.091 . S
Co42 O46 2.004 . S
Co42 O52 2.021 . S
Co42 O54 2.137 . S
Co42 O55 2.244 . S
O43 Co42 2.216 . S
O43 C50 1.247 . S
O44 Co42 2.091 . S
O44 C50 1.261 . S
C45 O54 1.247 . S
C45 O55 1.272 . S
O46 Co42 2.004 . S
O46 C51 1.259 . S
Co47 O48 2.061 . S
Co47 O53 2.052 . S
Co47 O55 2.135 . S
O48 Co47 2.061 . S
O48 C51 1.235 . S
C49 O52 1.238 . S
C49 O53 1.241 . S
C50 O43 1.247 . S
C50 O44 1.261 . S
C51 O46 1.259 . S
C51 O48 1.235 . S
O52 Co42 2.021 . S
O52 C49 1.238 . S
O53 Co47 2.052 . S
O53 C49 1.241 . S
O54 Co42 2.137 . S
O54 C45 1.247 . S
O55 Co42 2.244 . S
O55 C45 1.272 . S
O55 Co47 2.135 . S
Co56 O57 2.216 . S
Co56 O58 2.091 . S
Co56 O60 2.004 . S
Co56 O66 2.021 . S
Co56 O68 2.137 1_565 S
Co56 O69 2.244 1_565 S
O57 Co56 2.216 . S
O57 C64 1.247 . S
O58 Co56 2.091 . S
O58 C64 1.261 . S
C59 O68 1.247 . S
C59 O69 1.272 . S
O60 Co56 2.004 . S
O60 C65 1.259 . S
Co61 O62 2.061 . S
Co61 O67 2.052 . S
Co61 O69 2.135 1_565 S
O62 Co61 2.061 . S
O62 C65 1.235 . S
C63 O66 1.238 . S
C63 O67 1.241 . S
C64 O57 1.247 . S
C64 O58 1.261 . S
C65 O60 1.259 . S
C65 O62 1.235 . S
O66 Co56 2.021 . S
O66 C63 1.238 . S
O67 Co61 2.052 . S
O67 C63 1.241 . S
O68 Co56 2.137 1_545 S
O68 C59 1.247 . S
O69 Co56 2.244 1_545 S
O69 C59 1.272 . S
O69 Co61 2.135 1_545 S
Co70 O71 2.216 . S
Co70 O72 2.091 . S
Co70 O74 2.004 . S
Co70 O80 2.021 . S
Co70 O82 2.137 1_455 S
Co70 O83 2.244 1_455 S
O71 Co70 2.216 . S
O71 C78 1.247 . S
O72 Co70 2.091 . S
O72 C78 1.261 . S
C73 O82 1.247 . S
C73 O83 1.272 . S
O74 Co70 2.004 . S
O74 C79 1.259 . S
Co75 O76 2.061 . S
Co75 O81 2.052 . S
Co75 O83 2.135 1_455 S
O76 Co75 2.061 . S
O76 C79 1.235 . S
C77 O80 1.238 . S
C77 O81 1.241 . S
C78 O71 1.247 . S
C78 O72 1.261 . S
C79 O74 1.259 . S
C79 O76 1.235 . S
O80 Co70 2.021 . S
O80 C77 1.238 . S
O81 Co75 2.052 . S
O81 C77 1.241 . S
O82 Co70 2.137 1_655 S
O82 C73 1.247 . S
O83 Co70 2.244 1_655 S
O83 C73 1.272 . S
O83 Co75 2.135 1_655 S
Co84 O85 2.216 1_556 S
Co84 O86 2.091 . S
Co84 O88 2.004 . S
Co84 O94 2.021 . S
Co84 O96 2.137 . S
Co84 O97 2.244 . S
O85 Co84 2.216 1_554 S
O85 C92 1.247 . S
O86 Co84 2.091 . S
O86 C92 1.261 1_556 S
C87 O96 1.247 . S
C87 O97 1.272 . S
O88 Co84 2.004 . S
O88 C93 1.259 . S
Co89 O90 2.061 . S
Co89 O95 2.052 . S
Co89 O97 2.135 . S
O90 Co89 2.061 . S
O90 C93 1.235 . S
C91 O94 1.238 . S
C91 O95 1.241 . S
C92 O85 1.247 . S
C92 O86 1.261 1_554 S
C93 O88 1.259 . S
C93 O90 1.235 . S
O94 Co84 2.021 . S
O94 C91 1.238 . S
O95 Co89 2.052 . S
O95 C91 1.241 . S
O96 Co84 2.137 . S
O96 C87 1.247 . S
O97 Co84 2.244 . S
O97 C87 1.272 . S
O97 Co89 2.135 . S
Co98 O99 2.216 1_556 S
Co98 O100 2.091 . S
Co98 O102 2.004 . S
Co98 O108 2.021 . S
Co98 O110 2.137 1_565 S
Co98 O111 2.244 1_565 S
O99 Co98 2.216 1_554 S
O99 C106 1.247 . S
O100 Co98 2.091 . S
O100 C106 1.261 1_556 S
C101 O110 1.247 . S
C101 O111 1.272 . S
O102 Co98 2.004 . S
O102 C107 1.259 . S
Co103 O104 2.061 . S
Co103 O109 2.052 . S
Co103 O111 2.135 1_565 S
O104 Co103 2.061 . S
O104 C107 1.235 . S
C105 O108 1.238 . S
C105 O109 1.241 . S
C106 O99 1.247 . S
C106 O100 1.261 1_554 S
C107 O102 1.259 . S
C107 O104 1.235 . S
O108 Co98 2.021 . S
O108 C105 1.238 . S
O109 Co103 2.052 . S
O109 C105 1.241 . S
O110 Co98 2.137 1_545 S
O110 C101 1.247 . S
O111 Co98 2.244 1_545 S
O111 C101 1.272 . S
O111 Co103 2.135 1_545 S
Co112 O113 2.216 1_556 S
Co112 O114 2.091 . S
Co112 O116 2.004 . S
Co112 O122 2.021 . S
Co112 O124 2.137 1_455 S
Co112 O125 2.244 1_455 S
O113 Co112 2.216 1_554 S
O113 C120 1.247 . S
O114 Co112 2.091 . S
O114 C120 1.261 1_556 S
C115 O124 1.247 . S
C115 O125 1.272 . S
O116 Co112 2.004 . S
O116 C121 1.259 . S
Co117 O118 2.061 . S
Co117 O123 2.052 . S
Co117 O125 2.135 1_455 S
O118 Co117 2.061 . S
O118 C121 1.235 . S
C119 O122 1.238 . S
C119 O123 1.241 . S
C120 O113 1.247 . S
C120 O114 1.261 1_554 S
C121 O116 1.259 . S
C121 O118 1.235 . S
O122 Co112 2.021 . S
O122 C119 1.238 . S
O123 Co117 2.052 . S
O123 C119 1.241 . S
O124 Co112 2.137 1_655 S
O124 C115 1.247 . S
O125 Co112 2.244 1_655 S
O125 C115 1.272 . S
O125 Co117 2.135 1_655 S
Co126 O127 2.216 . S
Co126 O128 2.091 . S
Co126 O130 2.004 . S
Co126 O136 2.021 . S
Co126 O138 2.137 . S
Co126 O139 2.244 . S
O127 Co126 2.216 . S
O127 C134 1.247 . S
O128 Co126 2.091 . S
O128 C134 1.261 . S
C129 O138 1.247 . S
C129 O139 1.272 . S
O130 Co126 2.004 . S
O130 C135 1.259 . S
Co131 O132 2.061 . S
Co131 O137 2.052 . S
Co131 O139 2.135 . S
O132 Co131 2.061 . S
O132 C135 1.235 . S
C133 O136 1.238 . S
C133 O137 1.241 . S
C134 O127 1.247 . S
C134 O128 1.261 . S
C135 O130 1.259 . S
C135 O132 1.235 . S
O136 Co126 2.021 . S
O136 C133 1.238 . S
O137 Co131 2.052 . S
O137 C133 1.241 . S
O138 Co126 2.137 . S
O138 C129 1.247 . S
O139 Co126 2.244 . S
O139 C129 1.272 . S
O139 Co131 2.135 . S
Co140 O141 2.216 . S
Co140 O142 2.091 . S
Co140 O144 2.004 . S
Co140 O150 2.021 . S
Co140 O152 2.137 1_545 S
Co140 O153 2.244 1_545 S
O141 Co140 2.216 . S
O141 C148 1.247 . S
O142 Co140 2.091 . S
O142 C148 1.261 . S
C143 O152 1.247 . S
C143 O153 1.272 . S
O144 Co140 2.004 . S
O144 C149 1.259 . S
Co145 O146 2.061 . S
Co145 O151 2.052 . S
Co145 O153 2.135 1_545 S
O146 Co145 2.061 . S
O146 C149 1.235 . S
C147 O150 1.238 . S
C147 O151 1.241 . S
C148 O141 1.247 . S
C148 O142 1.261 . S
C149 O144 1.259 . S
C149 O146 1.235 . S
O150 Co140 2.021 . S
O150 C147 1.238 . S
O151 Co145 2.052 . S
O151 C147 1.241 . S
O152 Co140 2.137 1_565 S
O152 C143 1.247 . S
O153 Co140 2.244 1_565 S
O153 C143 1.272 . S
O153 Co145 2.135 1_565 S
Co154 O155 2.216 . S
Co154 O156 2.091 . S
Co154 O158 2.004 . S
Co154 O164 2.021 . S
Co154 O166 2.137 1_655 S
Co154 O167 2.244 1_655 S
O155 Co154 2.216 . S
O155 C162 1.247 . S
O156 Co154 2.091 . S
O156 C162 1.261 . S
C157 O166 1.247 . S
C157 O167 1.272 . S
O158 Co154 2.004 . S
O158 C163 1.259 . S
Co159 O160 2.061 . S
Co159 O165 2.052 . S
Co159 O167 2.135 1_655 S
O160 Co159 2.061 . S
O160 C163 1.235 . S
C161 O164 1.238 . S
C161 O165 1.241 . S
C162 O155 1.247 . S
C162 O156 1.261 . S
C163 O158 1.259 . S
C163 O160 1.235 . S
O164 Co154 2.021 . S
O164 C161 1.238 . S
O165 Co159 2.052 . S
O165 C161 1.241 . S
O166 Co154 2.137 1_455 S
O166 C157 1.247 . S
O167 Co154 2.244 1_455 S
O167 C157 1.272 . S
O167 Co159 2.135 1_455 S
Co168 O169 2.216 . S
Co168 O170 2.091 . S
Co168 O172 2.004 . S
Co168 O178 2.021 . S
Co168 O180 2.137 . S
Co168 O181 2.244 . S
O169 Co168 2.216 . S
O169 C176 1.247 . S
O170 Co168 2.091 . S
O170 C176 1.261 . S
C171 O180 1.247 . S
C171 O181 1.272 . S
O172 Co168 2.004 . S
O172 C177 1.259 . S
Co173 O174 2.061 . S
Co173 O179 2.052 . S
Co173 O181 2.135 . S
O174 Co173 2.061 . S
O174 C177 1.235 . S
C175 O178 1.238 . S
C175 O179 1.241 . S
C176 O169 1.247 . S
C176 O170 1.261 . S
C177 O172 1.259 . S
C177 O174 1.235 . S
O178 Co168 2.021 . S
O178 C175 1.238 . S
O179 Co173 2.052 . S
O179 C175 1.241 . S
O180 Co168 2.137 . S
O180 C171 1.247 . S
O181 Co168 2.244 . S
O181 C171 1.272 . S
O181 Co173 2.135 . S
Co182 O183 2.216 . S
Co182 O184 2.091 . S
Co182 O186 2.004 . S
Co182 O192 2.021 . S
Co182 O194 2.137 . S
Co182 O195 2.244 . S
O183 Co182 2.216 . S
O183 C190 1.247 . S
O184 Co182 2.091 . S
O184 C190 1.261 . S
C185 O194 1.247 . S
C185 O195 1.272 . S
O186 Co182 2.004 . S
O186 C191 1.259 . S
Co187 O188 2.061 . S
Co187 O193 2.052 . S
Co187 O195 2.135 . S
O188 Co187 2.061 . S
O188 C191 1.235 . S
C189 O192 1.238 . S
C189 O193 1.241 . S
C190 O183 1.247 . S
C190 O184 1.261 . S
C191 O186 1.259 . S
C191 O188 1.235 . S
O192 Co182 2.021 . S
O192 C189 1.238 . S
O193 Co187 2.052 . S
O193 C189 1.241 . S
O194 Co182 2.137 . S
O194 C185 1.247 . S
O195 Co182 2.244 . S
O195 C185 1.272 . S
O195 Co187 2.135 . S
Co196 O197 2.216 . S
Co196 O198 2.091 . S
Co196 O200 2.004 . S
Co196 O206 2.021 . S
Co196 O208 2.137 . S
Co196 O209 2.244 . S
O197 Co196 2.216 . S
O197 C204 1.247 . S
O198 Co196 2.091 . S
O198 C204 1.261 . S
C199 O208 1.247 . S
C199 O209 1.272 . S
O200 Co196 2.004 . S
O200 C205 1.259 . S
Co201 O202 2.061 . S
Co201 O207 2.052 . S
Co201 O209 2.135 . S
O202 Co201 2.061 . S
O202 C205 1.235 . S
C203 O206 1.238 . S
C203 O207 1.241 . S
C204 O197 1.247 . S
C204 O198 1.261 . S
C205 O200 1.259 . S
C205 O202 1.235 . S
O206 Co196 2.021 . S
O206 C203 1.238 . S
O207 Co201 2.052 . S
O207 C203 1.241 . S
O208 Co196 2.137 . S
O208 C199 1.247 . S
O209 Co196 2.244 . S
O209 C199 1.272 . S
O209 Co201 2.135 . S
Co210 O211 2.216 . S
Co210 O212 2.091 . S
Co210 O214 2.004 . S
Co210 O220 2.021 . S
Co210 O222 2.137 . S
Co210 O223 2.244 . S
O211 Co210 2.216 . S
O211 C218 1.247 . S
O212 Co210 2.091 . S
O212 C218 1.261 . S
C213 O222 1.247 . S
C213 O223 1.272 . S
O214 Co210 2.004 . S
O214 C219 1.259 . S
Co215 O216 2.061 . S
Co215 O221 2.052 . S
Co215 O223 2.135 . S
O216 Co215 2.061 . S
O216 C219 1.235 . S
C217 O220 1.238 . S
C217 O221 1.241 . S
C218 O211 1.247 . S
C218 O212 1.261 . S
C219 O214 1.259 . S
C219 O216 1.235 . S
O220 Co210 2.021 . S
O220 C217 1.238 . S
O221 Co215 2.052 . S
O221 C217 1.241 . S
O222 Co210 2.137 . S
O222 C213 1.247 . S
O223 Co210 2.244 . S
O223 C213 1.272 . S
O223 Co215 2.135 . S
Co224 O225 2.216 . S
Co224 O226 2.091 . S
Co224 O228 2.004 . S
Co224 O234 2.021 . S
Co224 O236 2.137 . S
Co224 O237 2.244 . S
O225 Co224 2.216 . S
O225 C232 1.247 . S
O226 Co224 2.091 . S
O226 C232 1.261 . S
C227 O236 1.247 . S
C227 O237 1.272 . S
O228 Co224 2.004 . S
O228 C233 1.259 . S
Co229 O230 2.061 . S
Co229 O235 2.052 . S
Co229 O237 2.135 . S
O230 Co229 2.061 . S
O230 C233 1.235 . S
C231 O234 1.238 . S
C231 O235 1.241 . S
C232 O225 1.247 . S
C232 O226 1.261 . S
C233 O228 1.259 . S
C233 O230 1.235 . S
O234 Co224 2.021 . S
O234 C231 1.238 . S
O235 Co229 2.052 . S
O235 C231 1.241 . S
O236 Co224 2.137 . S
O236 C227 1.247 . S
O237 Co224 2.244 . S
O237 C227 1.272 . S
O237 Co229 2.135 . S
Co238 O239 2.216 . S
Co238 O240 2.091 . S
Co238 O242 2.004 . S
Co238 O248 2.021 . S
Co238 O250 2.137 . S
Co238 O251 2.244 . S
O239 Co238 2.216 . S
O239 C246 1.247 . S
O240 Co238 2.091 . S
O240 C246 1.261 . S
C241 O250 1.247 . S
C241 O251 1.272 . S
O242 Co238 2.004 . S
O242 C247 1.259 . S
Co243 O244 2.061 . S
Co243 O249 2.052 . S
Co243 O251 2.135 . S
O244 Co243 2.061 . S
O244 C247 1.235 . S
C245 O248 1.238 . S
C245 O249 1.241 . S
C246 O239 1.247 . S
C246 O240 1.261 . S
C247 O242 1.259 . S
C247 O244 1.235 . S
O248 Co238 2.021 . S
O248 C245 1.238 . S
O249 Co243 2.052 . S
O249 C245 1.241 . S
O250 Co238 2.137 . S
O250 C241 1.247 . S
O251 Co238 2.244 . S
O251 C241 1.272 . S
O251 Co243 2.135 . S
Co252 O253 2.216 . S
Co252 O254 2.091 . S
Co252 O256 2.004 . S
Co252 O262 2.021 . S
Co252 O264 2.137 . S
Co252 O265 2.244 . S
O253 Co252 2.216 . S
O253 C260 1.247 . S
O254 Co252 2.091 . S
O254 C260 1.261 . S
C255 O264 1.247 . S
C255 O265 1.272 . S
O256 Co252 2.004 . S
O256 C261 1.259 . S
Co257 O258 2.061 . S
Co257 O263 2.052 . S
Co257 O265 2.135 . S
O258 Co257 2.061 . S
O258 C261 1.235 . S
C259 O262 1.238 . S
C259 O263 1.241 . S
C260 O253 1.247 . S
C260 O254 1.261 . S
C261 O256 1.259 . S
C261 O258 1.235 . S
O262 Co252 2.021 . S
O262 C259 1.238 . S
O263 Co257 2.052 . S
O263 C259 1.241 . S
O264 Co252 2.137 . S
O264 C255 1.247 . S
O265 Co252 2.244 . S
O265 C255 1.272 . S
O265 Co257 2.135 . S
Co266 O267 2.216 . S
Co266 O268 2.091 . S
Co266 O270 2.004 . S
Co266 O276 2.021 . S
Co266 O278 2.137 . S
Co266 O279 2.244 . S
O267 Co266 2.216 . S
O267 C274 1.247 . S
O268 Co266 2.091 . S
O268 C274 1.261 . S
C269 O278 1.247 . S
C269 O279 1.272 . S
O270 Co266 2.004 . S
O270 C275 1.259 . S
Co271 O272 2.061 . S
Co271 O277 2.052 . S
Co271 O279 2.135 . S
O272 Co271 2.061 . S
O272 C275 1.235 . S
C273 O276 1.238 . S
C273 O277 1.241 . S
C274 O267 1.247 . S
C274 O268 1.261 . S
C275 O270 1.259 . S
C275 O272 1.235 . S
O276 Co266 2.021 . S
O276 C273 1.238 . S
O277 Co271 2.052 . S
O277 C273 1.241 . S
O278 Co266 2.137 . S
O278 C269 1.247 . S
O279 Co266 2.244 . S
O279 C269 1.272 . S
O279 Co271 2.135 . S
Co280 O281 2.216 . S
Co280 O282 2.091 . S
Co280 O284 2.004 . S
Co280 O290 2.021 . S
Co280 O292 2.137 . S
Co280 O293 2.244 . S
O281 Co280 2.216 . S
O281 C288 1.247 . S
O282 Co280 2.091 . S
O282 C288 1.261 . S
C283 O292 1.247 . S
C283 O293 1.272 . S
O284 Co280 2.004 . S
O284 C289 1.259 . S
Co285 O286 2.061 . S
Co285 O291 2.052 . S
Co285 O293 2.135 . S
O286 Co285 2.061 . S
O286 C289 1.235 . S
C287 O290 1.238 . S
C287 O291 1.241 . S
C288 O281 1.247 . S
C288 O282 1.261 . S
C289 O284 1.259 . S
C289 O286 1.235 . S
O290 Co280 2.021 . S
O290 C287 1.238 . S
O291 Co285 2.052 . S
O291 C287 1.241 . S
O292 Co280 2.137 . S
O292 C283 1.247 . S
O293 Co280 2.244 . S
O293 C283 1.272 . S
O293 Co285 2.135 . S
Co294 O295 2.216 . S
Co294 O296 2.091 . S
Co294 O298 2.004 . S
Co294 O304 2.021 . S
Co294 O306 2.137 . S
Co294 O307 2.244 . S
O295 Co294 2.216 . S
O295 C302 1.247 . S
O296 Co294 2.091 . S
O296 C302 1.261 . S
C297 O306 1.247 . S
C297 O307 1.272 . S
O298 Co294 2.004 . S
O298 C303 1.259 . S
Co299 O300 2.061 . S
Co299 O305 2.052 . S
Co299 O307 2.135 . S
O300 Co299 2.061 . S
O300 C303 1.235 . S
C301 O304 1.238 . S
C301 O305 1.241 . S
C302 O295 1.247 . S
C302 O296 1.261 . S
C303 O298 1.259 . S
C303 O300 1.235 . S
O304 Co294 2.021 . S
O304 C301 1.238 . S
O305 Co299 2.052 . S
O305 C301 1.241 . S
O306 Co294 2.137 . S
O306 C297 1.247 . S
O307 Co294 2.244 . S
O307 C297 1.272 . S
O307 Co299 2.135 . S
Co308 O309 2.216 . S
Co308 O310 2.091 . S
Co308 O312 2.004 . S
Co308 O318 2.021 . S
Co308 O320 2.137 . S
Co308 O321 2.244 . S
O309 Co308 2.216 . S
O309 C316 1.247 . S
O310 Co308 2.091 . S
O310 C316 1.261 . S
C311 O320 1.247 . S
C311 O321 1.272 . S
O312 Co308 2.004 . S
O312 C317 1.259 . S
Co313 O314 2.061 . S
Co313 O319 2.052 . S
Co313 O321 2.135 . S
O314 Co313 2.061 . S
O314 C317 1.235 . S
C315 O318 1.238 . S
C315 O319 1.241 . S
C316 O309 1.247 . S
C316 O310 1.261 . S
C317 O312 1.259 . S
C317 O314 1.235 . S
O318 Co308 2.021 . S
O318 C315 1.238 . S
O319 Co313 2.052 . S
O319 C315 1.241 . S
O320 Co308 2.137 . S
O320 C311 1.247 . S
O321 Co308 2.244 . S
O321 C311 1.272 . S
O321 Co313 2.135 . S
Co322 O323 2.216 . S
Co322 O324 2.091 . S
Co322 O326 2.004 . S
Co322 O332 2.021 . S
Co322 O334 2.137 . S
Co322 O335 2.244 . S
O323 Co322 2.216 . S
O323 C330 1.247 . S
O324 Co322 2.091 . S
O324 C330 1.261 . S
C325 O334 1.247 . S
C325 O335 1.272 . S
O326 Co322 2.004 . S
O326 C331 1.259 . S
Co327 O328 2.061 . S
Co327 O333 2.052 . S
Co327 O335 2.135 . S
O328 Co327 2.061 . S
O328 C331 1.235 . S
C329 O332 1.238 . S
C329 O333 1.241 . S
C330 O323 1.247 . S
C330 O324 1.261 . S
C331 O326 1.259 . S
C331 O328 1.235 . S
O332 Co322 2.021 . S
O332 C329 1.238 . S
O333 Co327 2.052 . S
O333 C329 1.241 . S
O334 Co322 2.137 . S
O334 C325 1.247 . S
O335 Co322 2.244 . S
O335 C325 1.272 . S
O335 Co327 2.135 . S
Co336 O337 2.216 . S
Co336 O338 2.091 . S
Co336 O340 2.004 . S
Co336 O346 2.021 . S
Co336 O348 2.137 . S
Co336 O349 2.244 . S
O337 Co336 2.216 . S
O337 C344 1.247 . S
O338 Co336 2.091 . S
O338 C344 1.261 . S
C339 O348 1.247 . S
C339 O349 1.272 . S
O340 Co336 2.004 . S
O340 C345 1.259 . S
Co341 O342 2.061 . S
Co341 O347 2.052 . S
Co341 O349 2.135 . S
O342 Co341 2.061 . S
O342 C345 1.235 . S
C343 O346 1.238 . S
C343 O347 1.241 . S
C344 O337 1.247 . S
C344 O338 1.261 . S
C345 O340 1.259 . S
C345 O342 1.235 . S
O346 Co336 2.021 . S
O346 C343 1.238 . S
O347 Co341 2.052 . S
O347 C343 1.241 . S
O348 Co336 2.137 . S
O348 C339 1.247 . S
O349 Co336 2.244 . S
O349 C339 1.272 . S
O349 Co341 2.135 . S
Co350 O351 2.216 . S
Co350 O352 2.091 . S
Co350 O354 2.004 . S
Co350 O360 2.021 . S
Co350 O362 2.137 . S
Co350 O363 2.244 . S
O351 Co350 2.216 . S
O351 C358 1.247 . S
O352 Co350 2.091 . S
O352 C358 1.261 . S
C353 O362 1.247 . S
C353 O363 1.272 . S
O354 Co350 2.004 . S
O354 C359 1.259 . S
Co355 O356 2.061 . S
Co355 O361 2.052 . S
Co355 O363 2.135 . S
O356 Co355 2.061 . S
O356 C359 1.235 . S
C357 O360 1.238 . S
C357 O361 1.241 . S
C358 O351 1.247 . S
C358 O352 1.261 . S
C359 O354 1.259 . S
C359 O356 1.235 . S
O360 Co350 2.021 . S
O360 C357 1.238 . S
O361 Co355 2.052 . S
O361 C357 1.241 . S
O362 Co350 2.137 . S
O362 C353 1.247 . S
O363 Co350 2.244 . S
O363 C353 1.272 . S
O363 Co355 2.135 . S
Co364 O365 2.216 . S
Co364 O366 2.091 . S
Co364 O368 2.004 . S
Co364 O374 2.021 . S
Co364 O376 2.137 . S
Co364 O377 2.244 . S
O365 Co364 2.216 . S
O365 C372 1.247 . S
O366 Co364 2.091 . S
O366 C372 1.261 . S
C367 O376 1.247 . S
C367 O377 1.272 . S
O368 Co364 2.004 . S
O368 C373 1.259 . S
Co369 O370 2.061 . S
Co369 O375 2.052 . S
Co369 O377 2.135 . S
O370 Co369 2.061 . S
O370 C373 1.235 . S
C371 O374 1.238 . S
C371 O375 1.241 . S
C372 O365 1.247 . S
C372 O366 1.261 . S
C373 O368 1.259 . S
C373 O370 1.235 . S
O374 Co364 2.021 . S
O374 C371 1.238 . S
O375 Co369 2.052 . S
O375 C371 1.241 . S
O376 Co364 2.137 . S
O376 C367 1.247 . S
O377 Co364 2.244 . S
O377 C367 1.272 . S
O377 Co369 2.135 . S
Co378 O379 2.216 . S
Co378 O380 2.091 . S
Co378 O382 2.004 . S
Co378 O388 2.021 . S
Co378 O390 2.137 . S
Co378 O391 2.244 . S
O379 Co378 2.216 . S
O379 C386 1.247 . S
O380 Co378 2.091 . S
O380 C386 1.261 . S
C381 O390 1.247 . S
C381 O391 1.272 . S
O382 Co378 2.004 . S
O382 C387 1.259 . S
Co383 O384 2.061 . S
Co383 O389 2.052 . S
Co383 O391 2.135 . S
O384 Co383 2.061 . S
O384 C387 1.235 . S
C385 O388 1.238 . S
C385 O389 1.241 . S
C386 O379 1.247 . S
C386 O380 1.261 . S
C387 O382 1.259 . S
C387 O384 1.235 . S
O388 Co378 2.021 . S
O388 C385 1.238 . S
O389 Co383 2.052 . S
O389 C385 1.241 . S
O390 Co378 2.137 . S
O390 C381 1.247 . S
O391 Co378 2.244 . S
O391 C381 1.272 . S
O391 Co383 2.135 . S
Co392 O393 2.216 . S
Co392 O394 2.091 . S
Co392 O396 2.004 . S
Co392 O402 2.021 . S
Co392 O404 2.137 . S
Co392 O405 2.244 . S
O393 Co392 2.216 . S
O393 C400 1.247 . S
O394 Co392 2.091 . S
O394 C400 1.261 . S
C395 O404 1.247 . S
C395 O405 1.272 . S
O396 Co392 2.004 . S
O396 C401 1.259 . S
Co397 O398 2.061 . S
Co397 O403 2.052 . S
Co397 O405 2.135 . S
O398 Co397 2.061 . S
O398 C401 1.235 . S
C399 O402 1.238 . S
C399 O403 1.241 . S
C400 O393 1.247 . S
C400 O394 1.261 . S
C401 O396 1.259 . S
C401 O398 1.235 . S
O402 Co392 2.021 . S
O402 C399 1.238 . S
O403 Co397 2.052 . S
O403 C399 1.241 . S
O404 Co392 2.137 . S
O404 C395 1.247 . S
O405 Co392 2.244 . S
O405 C395 1.272 . S
O405 Co397 2.135 . S
Co406 O407 2.216 . S
Co406 O408 2.091 . S
Co406 O410 2.004 . S
Co406 O416 2.021 . S
Co406 O418 2.137 . S
Co406 O419 2.244 . S
O407 Co406 2.216 . S
O407 C414 1.247 . S
O408 Co406 2.091 . S
O408 C414 1.261 . S
C409 O418 1.247 . S
C409 O419 1.272 . S
O410 Co406 2.004 . S
O410 C415 1.259 . S
Co411 O412 2.061 . S
Co411 O417 2.052 . S
Co411 O419 2.135 . S
O412 Co411 2.061 . S
O412 C415 1.235 . S
C413 O416 1.238 . S
C413 O417 1.241 . S
C414 O407 1.247 . S
C414 O408 1.261 . S
C415 O410 1.259 . S
C415 O412 1.235 . S
O416 Co406 2.021 . S
O416 C413 1.238 . S
O417 Co411 2.052 . S
O417 C413 1.241 . S
O418 Co406 2.137 . S
O418 C409 1.247 . S
O419 Co406 2.244 . S
O419 C409 1.272 . S
O419 Co411 2.135 . S
Co420 O421 2.216 . S
Co420 O422 2.091 . S
Co420 O424 2.004 . S
Co420 O430 2.021 . S
Co420 O432 2.137 . S
Co420 O433 2.244 . S
O421 Co420 2.216 . S
O421 C428 1.247 . S
O422 Co420 2.091 . S
O422 C428 1.261 . S
C423 O432 1.247 . S
C423 O433 1.272 . S
O424 Co420 2.004 . S
O424 C429 1.259 . S
Co425 O426 2.061 . S
Co425 O431 2.052 . S
Co425 O433 2.135 . S
O426 Co425 2.061 . S
O426 C429 1.235 . S
C427 O430 1.238 . S
C427 O431 1.241 . S
C428 O421 1.247 . S
C428 O422 1.261 . S
C429 O424 1.259 . S
C429 O426 1.235 . S
O430 Co420 2.021 . S
O430 C427 1.238 . S
O431 Co425 2.052 . S
O431 C427 1.241 . S
O432 Co420 2.137 . S
O432 C423 1.247 . S
O433 Co420 2.244 . S
O433 C423 1.272 . S
O433 Co425 2.135 . S
Co434 O435 2.216 . S
Co434 O436 2.091 . S
Co434 O438 2.004 . S
Co434 O444 2.021 . S
Co434 O446 2.137 . S
Co434 O447 2.244 . S
O435 Co434 2.216 . S
O435 C442 1.247 . S
O436 Co434 2.091 . S
O436 C442 1.261 . S
C437 O446 1.247 . S
C437 O447 1.272 . S
O438 Co434 2.004 . S
O438 C443 1.259 . S
Co439 O440 2.061 . S
Co439 O445 2.052 . S
Co439 O447 2.135 . S
O440 Co439 2.061 . S
O440 C443 1.235 . S
C441 O444 1.238 . S
C441 O445 1.241 . S
C442 O435 1.247 . S
C442 O436 1.261 . S
C443 O438 1.259 . S
C443 O440 1.235 . S
O444 Co434 2.021 . S
O444 C441 1.238 . S
O445 Co439 2.052 . S
O445 C441 1.241 . S
O446 Co434 2.137 . S
O446 C437 1.247 . S
O447 Co434 2.244 . S
O447 C437 1.272 . S
O447 Co439 2.135 . S
Co448 O449 2.216 . S
Co448 O450 2.091 . S
Co448 O452 2.004 . S
Co448 O458 2.021 . S
Co448 O460 2.137 . S
Co448 O461 2.244 . S
O449 Co448 2.216 . S
O449 C456 1.247 . S
O450 Co448 2.091 . S
O450 C456 1.261 . S
C451 O460 1.247 . S
C451 O461 1.272 . S
O452 Co448 2.004 . S
O452 C457 1.259 . S
Co453 O454 2.061 . S
Co453 O459 2.052 . S
Co453 O461 2.135 . S
O454 Co453 2.061 . S
O454 C457 1.235 . S
C455 O458 1.238 . S
C455 O459 1.241 . S
C456 O449 1.247 . S
C456 O450 1.261 . S
C457 O452 1.259 . S
C457 O454 1.235 . S
O458 Co448 2.021 . S
O458 C455 1.238 . S
O459 Co453 2.052 . S
O459 C455 1.241 . S
O460 Co448 2.137 . S
O460 C451 1.247 . S
O461 Co448 2.244 . S
O461 C451 1.272 . S
O461 Co453 2.135 . S
Co462 O463 2.216 . S
Co462 O464 2.091 . S
Co462 O466 2.004 . S
Co462 O472 2.021 . S
Co462 O474 2.137 . S
Co462 O475 2.244 . S
O463 Co462 2.216 . S
O463 C470 1.247 . S
O464 Co462 2.091 . S
O464 C470 1.261 . S
C465 O474 1.247 . S
C465 O475 1.272 . S
O466 Co462 2.004 . S
O466 C471 1.259 . S
Co467 O468 2.061 . S
Co467 O473 2.052 . S
Co467 O475 2.135 . S
O468 Co467 2.061 . S
O468 C471 1.235 . S
C469 O472 1.238 . S
C469 O473 1.241 . S
C470 O463 1.247 . S
C470 O464 1.261 . S
C471 O466 1.259 . S
C471 O468 1.235 . S
O472 Co462 2.021 . S
O472 C469 1.238 . S
O473 Co467 2.052 . S
O473 C469 1.241 . S
O474 Co462 2.137 . S
O474 C465 1.247 . S
O475 Co462 2.244 . S
O475 C465 1.272 . S
O475 Co467 2.135 . S
Co476 O477 2.216 . S
Co476 O478 2.091 . S
Co476 O480 2.004 . S
Co476 O486 2.021 . S
Co476 O488 2.137 . S
Co476 O489 2.244 . S
O477 Co476 2.216 . S
O477 C484 1.247 . S
O478 Co476 2.091 . S
O478 C484 1.261 . S
C479 O488 1.247 . S
C479 O489 1.272 . S
O480 Co476 2.004 . S
O480 C485 1.259 . S
Co481 O482 2.061 . S
Co481 O487 2.052 . S
Co481 O489 2.135 . S
O482 Co481 2.061 . S
O482 C485 1.235 . S
C483 O486 1.238 . S
C483 O487 1.241 . S
C484 O477 1.247 . S
C484 O478 1.261 . S
C485 O480 1.259 . S
C485 O482 1.235 . S
O486 Co476 2.021 . S
O486 C483 1.238 . S
O487 Co481 2.052 . S
O487 C483 1.241 . S
O488 Co476 2.137 . S
O488 C479 1.247 . S
O489 Co476 2.244 . S
O489 C479 1.272 . S
O489 Co481 2.135 . S
Co490 O491 2.216 . S
Co490 O492 2.091 . S
Co490 O494 2.004 . S
Co490 O500 2.021 . S
Co490 O502 2.137 . S
Co490 O503 2.244 . S
O491 Co490 2.216 . S
O491 C498 1.247 . S
O492 Co490 2.091 . S
O492 C498 1.261 . S
C493 O502 1.247 . S
C493 O503 1.272 . S
O494 Co490 2.004 . S
O494 C499 1.259 . S
Co495 O496 2.061 . S
Co495 O501 2.052 . S
Co495 O503 2.135 . S
O496 Co495 2.061 . S
O496 C499 1.235 . S
C497 O500 1.238 . S
C497 O501 1.241 . S
C498 O491 1.247 . S
C498 O492 1.261 . S
C499 O494 1.259 . S
C499 O496 1.235 . S
O500 Co490 2.021 . S
O500 C497 1.238 . S
O501 Co495 2.052 . S
O501 C497 1.241 . S
O502 Co490 2.137 . S
O502 C493 1.247 . S
O503 Co490 2.244 . S
O503 C493 1.272 . S
O503 Co495 2.135 . S
H504 C510 0.930 . S
H505 C513 0.930 . S
H506 C514 0.930 . S
H507 C515 0.930 . S
H508 C518 0.930 . S
H509 C519 0.930 . S
C510 H504 0.930 . S
C510 C511 1.355 . S
C510 C512 1.415 . S
C511 C510 1.355 . S
C511 C513 1.419 . S
C512 C510 1.415 . S
C512 C517 1.425 . S
C512 C519 1.409 . S
C513 H505 0.930 . S
C513 C511 1.419 . S
C513 C514 1.362 . S
C514 H506 0.930 . S
C514 C513 1.362 . S
C514 C517 1.409 . S
C515 H507 0.930 . S
C515 C516 1.355 . S
C515 C517 1.415 . S
C516 C515 1.355 . S
C516 C518 1.419 . S
C517 C512 1.425 . S
C517 C514 1.409 . S
C517 C515 1.415 . S
C518 H508 0.930 . S
C518 C516 1.419 . S
C518 C519 1.362 . S
C519 H509 0.930 . S
C519 C512 1.409 . S
C519 C518 1.362 . S
H520 C526 0.930 . S
H521 C529 0.930 . S
H522 C530 0.930 . S
H523 C531 0.930 . S
H524 C534 0.930 1_554 S
H525 C535 0.930 . S
C526 H520 0.930 . S
C526 C527 1.355 . S
C526 C528 1.415 . S
C527 C526 1.355 . S
C527 C529 1.419 . S
C528 C526 1.415 . S
C528 C533 1.425 . S
C528 C535 1.409 . S
C529 H521 0.930 . S
C529 C527 1.419 . S
C529 C530 1.362 . S
C530 H522 0.930 . S
C530 C529 1.362 . S
C530 C533 1.409 . S
C531 H523 0.930 . S
C531 C532 1.355 . S
C531 C533 1.415 . S
C532 C531 1.355 . S
C532 C534 1.419 . S
C533 C528 1.425 . S
C533 C530 1.409 . S
C533 C531 1.415 . S
C534 H524 0.930 1_556 S
C534 C532 1.419 . S
C534 C535 1.362 . S
C535 H525 0.930 . S
C535 C528 1.409 . S
C535 C534 1.362 . S
H536 C542 0.930 . S
H537 C545 0.930 1_554 S
H538 C546 0.930 . S
H539 C547 0.930 . S
H540 C550 0.930 . S
H541 C551 0.930 . S
C542 H536 0.930 . S
C542 C543 1.355 . S
C542 C544 1.415 . S
C543 C542 1.355 . S
C543 C545 1.419 . S
C544 C542 1.415 . S
C544 C549 1.425 . S
C544 C551 1.409 . S
C545 H537 0.930 1_556 S
C545 C543 1.419 . S
C545 C546 1.362 . S
C546 H538 0.930 . S
C546 C545 1.362 . S
C546 C549 1.409 . S
C547 H539 0.930 . S
C547 C548 1.355 . S
C547 C549 1.415 . S
C548 C547 1.355 . S
C548 C550 1.419 . S
C549 C544 1.425 . S
C549 C546 1.409 . S
C549 C547 1.415 . S
C550 H540 0.930 . S
C550 C548 1.419 . S
C550 C551 1.362 . S
C551 H541 0.930 . S
C551 C544 1.409 . S
C551 C550 1.362 . S
H552 C558 0.930 . S
H553 C561 0.930 . S
H554 C562 0.930 . S
H555 C563 0.930 . S
H556 C566 0.930 . S
H557 C567 0.930 . S
C558 H552 0.930 . S
C558 C559 1.355 . S
C558 C560 1.415 . S
C559 C558 1.355 . S
C559 C561 1.419 . S
C560 C558 1.415 . S
C560 C565 1.425 . S
C560 C567 1.409 . S
C561 H553 0.930 . S
C561 C559 1.419 . S
C561 C562 1.362 . S
C562 H554 0.930 . S
C562 C561 1.362 . S
C562 C565 1.409 . S
C563 H555 0.930 . S
C563 C564 1.355 . S
C563 C565 1.415 . S
C564 C563 1.355 . S
C564 C566 1.419 . S
C565 C560 1.425 . S
C565 C562 1.409 . S
C565 C563 1.415 . S
C566 H556 0.930 . S
C566 C564 1.419 . S
C566 C567 1.362 . S
C567 H557 0.930 . S
C567 C560 1.409 . S
C567 C566 1.362 . S
H568 C574 0.930 . S
H569 C577 0.930 . S
H570 C578 0.930 . S
H571 C579 0.930 . S
H572 C582 0.930 . S
H573 C583 0.930 . S
C574 H568 0.930 . S
C574 C575 1.355 . S
C574 C576 1.415 . S
C575 C574 1.355 . S
C575 C577 1.419 . S
C576 C574 1.415 . S
C576 C581 1.425 . S
C576 C583 1.409 . S
C577 H569 0.930 . S
C577 C575 1.419 . S
C577 C578 1.362 . S
C578 H570 0.930 . S
C578 C577 1.362 . S
C578 C581 1.409 . S
C579 H571 0.930 . S
C579 C580 1.355 . S
C579 C581 1.415 . S
C580 C579 1.355 . S
C580 C582 1.419 . S
C581 C576 1.425 . S
C581 C578 1.409 . S
C581 C579 1.415 . S
C582 H572 0.930 . S
C582 C580 1.419 . S
C582 C583 1.362 . S
C583 H573 0.930 . S
C583 C576 1.409 . S
C583 C582 1.362 . S
H584 C590 0.930 . S
H585 C593 0.930 . S
H586 C594 0.930 . S
H587 C595 0.930 . S
H588 C598 0.930 . S
H589 C599 0.930 . S
C590 H584 0.930 . S
C590 C591 1.355 . S
C590 C592 1.415 . S
C591 C590 1.355 . S
C591 C593 1.419 . S
C592 C590 1.415 . S
C592 C597 1.425 . S
C592 C599 1.409 . S
C593 H585 0.930 . S
C593 C591 1.419 . S
C593 C594 1.362 . S
C594 H586 0.930 . S
C594 C593 1.362 . S
C594 C597 1.409 . S
C595 H587 0.930 . S
C595 C596 1.355 . S
C595 C597 1.415 . S
C596 C595 1.355 . S
C596 C598 1.419 . S
C597 C592 1.425 . S
C597 C594 1.409 . S
C597 C595 1.415 . S
C598 H588 0.930 . S
C598 C596 1.419 . S
C598 C599 1.362 . S
C599 H589 0.930 . S
C599 C592 1.409 . S
C599 C598 1.362 . S
H600 C606 0.930 . S
H601 C609 0.930 . S
H602 C610 0.930 . S
H603 C611 0.930 . S
H604 C614 0.930 . S
H605 C615 0.930 . S
C606 H600 0.930 . S
C606 C607 1.355 . S
C606 C608 1.415 . S
C607 C606 1.355 . S
C607 C609 1.419 . S
C608 C606 1.415 . S
C608 C613 1.425 . S
C608 C615 1.409 . S
C609 H601 0.930 . S
C609 C607 1.419 . S
C609 C610 1.362 . S
C610 H602 0.930 . S
C610 C609 1.362 . S
C610 C613 1.409 . S
C611 H603 0.930 . S
C611 C612 1.355 . S
C611 C613 1.415 . S
C612 C611 1.355 . S
C612 C614 1.419 . S
C613 C608 1.425 . S
C613 C610 1.409 . S
C613 C611 1.415 . S
C614 H604 0.930 . S
C614 C612 1.419 . S
C614 C615 1.362 . S
C615 H605 0.930 . S
C615 C608 1.409 . S
C615 C614 1.362 . S
H616 C622 0.930 . S
H617 C625 0.930 . S
H618 C626 0.930 . S
H619 C627 0.930 . S
H620 C630 0.930 1_545 S
H621 C631 0.930 . S
C622 H616 0.930 . S
C622 C623 1.355 . S
C622 C624 1.415 . S
C623 C622 1.355 . S
C623 C625 1.419 . S
C624 C622 1.415 . S
C624 C629 1.425 . S
C624 C631 1.409 . S
C625 H617 0.930 . S
C625 C623 1.419 . S
C625 C626 1.362 . S
C626 H618 0.930 . S
C626 C625 1.362 . S
C626 C629 1.409 . S
C627 H619 0.930 . S
C627 C628 1.355 . S
C627 C629 1.415 . S
C628 C627 1.355 . S
C628 C630 1.419 . S
C629 C624 1.425 . S
C629 C626 1.409 . S
C629 C627 1.415 . S
C630 H620 0.930 1_565 S
C630 C628 1.419 . S
C630 C631 1.362 . S
C631 H621 0.930 . S
C631 C624 1.409 . S
C631 C630 1.362 . S
H632 C638 0.930 . S
H633 C641 0.930 . S
H634 C642 0.930 . S
H635 C643 0.930 . S
H636 C646 0.930 . S
H637 C647 0.930 . S
C638 H632 0.930 . S
C638 C639 1.355 . S
C638 C640 1.415 . S
C639 C638 1.355 . S
C639 C641 1.419 . S
C640 C638 1.415 . S
C640 C645 1.425 . S
C640 C647 1.409 . S
C641 H633 0.930 . S
C641 C639 1.419 . S
C641 C642 1.362 . S
C642 H634 0.930 . S
C642 C641 1.362 . S
C642 C645 1.409 . S
C643 H635 0.930 . S
C643 C644 1.355 . S
C643 C645 1.415 . S
C644 C643 1.355 . S
C644 C646 1.419 . S
C645 C640 1.425 . S
C645 C642 1.409 . S
C645 C643 1.415 . S
C646 H636 0.930 . S
C646 C644 1.419 . S
C646 C647 1.362 . S
C647 H637 0.930 . S
C647 C640 1.409 . S
C647 C646 1.362 . S
H648 C654 0.930 . S
H649 C657 0.930 . S
H650 C658 0.930 . S
H651 C659 0.930 . S
H652 C662 0.930 . S
H653 C663 0.930 . S
C654 H648 0.930 . S
C654 C655 1.355 . S
C654 C656 1.415 . S
C655 C654 1.355 . S
C655 C657 1.419 . S
C656 C654 1.415 . S
C656 C661 1.425 . S
C656 C663 1.409 . S
C657 H649 0.930 . S
C657 C655 1.419 . S
C657 C658 1.362 . S
C658 H650 0.930 . S
C658 C657 1.362 . S
C658 C661 1.409 . S
C659 H651 0.930 . S
C659 C660 1.355 . S
C659 C661 1.415 . S
C660 C659 1.355 . S
C660 C662 1.419 . S
C661 C656 1.425 . S
C661 C658 1.409 . S
C661 C659 1.415 . S
C662 H652 0.930 . S
C662 C660 1.419 . S
C662 C663 1.362 . S
C663 H653 0.930 . S
C663 C656 1.409 . S
C663 C662 1.362 . S
H664 C670 0.930 . S
H665 C673 0.930 . S
H666 C674 0.930 . S
H667 C675 0.930 . S
H668 C678 0.930 . S
H669 C679 0.930 . S
C670 H664 0.930 . S
C670 C671 1.355 . S
C670 C672 1.415 . S
C671 C670 1.355 . S
C671 C673 1.419 . S
C672 C670 1.415 . S
C672 C677 1.425 . S
C672 C679 1.409 . S
C673 H665 0.930 . S
C673 C671 1.419 . S
C673 C674 1.362 . S
C674 H666 0.930 . S
C674 C673 1.362 . S
C674 C677 1.409 . S
C675 H667 0.930 . S
C675 C676 1.355 . S
C675 C677 1.415 . S
C676 C675 1.355 . S
C676 C678 1.419 . S
C677 C672 1.425 . S
C677 C674 1.409 . S
C677 C675 1.415 . S
C678 H668 0.930 . S
C678 C676 1.419 . S
C678 C679 1.362 . S
C679 H669 0.930 . S
C679 C672 1.409 . S
C679 C678 1.362 . S
H680 C686 0.930 . S
H681 C689 0.930 . S
H682 C690 0.930 . S
H683 C691 0.930 . S
H684 C694 0.930 . S
H685 C695 0.930 . S
C686 H680 0.930 . S
C686 C687 1.355 . S
C686 C688 1.415 . S
C687 C686 1.355 . S
C687 C689 1.419 . S
C688 C686 1.415 . S
C688 C693 1.425 . S
C688 C695 1.409 . S
C689 H681 0.930 . S
C689 C687 1.419 . S
C689 C690 1.362 . S
C690 H682 0.930 . S
C690 C689 1.362 . S
C690 C693 1.409 . S
C691 H683 0.930 . S
C691 C692 1.355 . S
C691 C693 1.415 . S
C692 C691 1.355 . S
C692 C694 1.419 . S
C693 C688 1.425 . S
C693 C690 1.409 . S
C693 C691 1.415 . S
C694 H684 0.930 . S
C694 C692 1.419 . S
C694 C695 1.362 . S
C695 H685 0.930 . S
C695 C688 1.409 . S
C695 C694 1.362 . S
H696 C702 0.930 . S
H697 C705 0.930 . S
H698 C706 0.930 . S
H699 C707 0.930 . S
H700 C710 0.930 . S
H701 C711 0.930 . S
C702 H696 0.930 . S
C702 C703 1.355 . S
C702 C704 1.415 1_455 S
C703 C702 1.355 . S
C703 C705 1.419 . S
C704 C702 1.415 1_655 S
C704 C709 1.425 1_655 S
C704 C711 1.409 . S
C705 H697 0.930 . S
C705 C703 1.419 . S
C705 C706 1.362 . S
C706 H698 0.930 . S
C706 C705 1.362 . S
C706 C709 1.409 . S
C707 H699 0.930 . S
C707 C708 1.355 . S
C707 C709 1.415 1_655 S
C708 C707 1.355 . S
C708 C710 1.419 . S
C709 C704 1.425 1_455 S
C709 C706 1.409 . S
C709 C707 1.415 1_455 S
C710 H700 0.930 . S
C710 C708 1.419 . S
C710 C711 1.362 . S
C711 H701 0.930 . S
C711 C704 1.409 . S
C711 C710 1.362 . S
H712 C718 0.930 . S
H713 C721 0.930 . S
H714 C722 0.930 . S
H715 C723 0.930 . S
H716 C726 0.930 . S
H717 C727 0.930 . S
C718 H712 0.930 . S
C718 C719 1.355 . S
C718 C720 1.415 . S
C719 C718 1.355 . S
C719 C721 1.419 . S
C720 C718 1.415 . S
C720 C725 1.425 . S
C720 C727 1.409 . S
C721 H713 0.930 . S
C721 C719 1.419 . S
C721 C722 1.362 . S
C722 H714 0.930 . S
C722 C721 1.362 . S
C722 C725 1.409 . S
C723 H715 0.930 . S
C723 C724 1.355 . S
C723 C725 1.415 . S
C724 C723 1.355 . S
C724 C726 1.419 . S
C725 C720 1.425 . S
C725 C722 1.409 . S
C725 C723 1.415 . S
C726 H716 0.930 . S
C726 C724 1.419 . S
C726 C727 1.362 . S
C727 H717 0.930 . S
C727 C720 1.409 . S
C727 C726 1.362 . S
H728 C734 0.930 . S
H729 C737 0.930 . S
H730 C738 0.930 . S
H731 C739 0.930 . S
H732 C742 0.930 . S
H733 C743 0.930 . S
C734 H728 0.930 . S
C734 C735 1.355 . S
C734 C736 1.415 1_565 S
C735 C734 1.355 . S
C735 C737 1.419 . S
C736 C734 1.415 1_545 S
C736 C741 1.425 1_545 S
C736 C743 1.409 . S
C737 H729 0.930 . S
C737 C735 1.419 . S
C737 C738 1.362 . S
C738 H730 0.930 . S
C738 C737 1.362 . S
C738 C741 1.409 . S
C739 H731 0.930 . S
C739 C740 1.355 . S
C739 C741 1.415 1_545 S
C740 C739 1.355 . S
C740 C742 1.419 . S
C741 C736 1.425 1_565 S
C741 C738 1.409 . S
C741 C739 1.415 1_565 S
C742 H732 0.930 . S
C742 C740 1.419 . S
C742 C743 1.362 . S
C743 H733 0.930 . S
C743 C736 1.409 . S
C743 C742 1.362 . S
H744 C750 0.930 . S
H745 C753 0.930 . S
H746 C754 0.930 . S
H747 C755 0.930 . S
H748 C758 0.930 . S
H749 C759 0.930 . S
C750 H744 0.930 . S
C750 C751 1.355 . S
C750 C752 1.415 1_565 S
C751 C750 1.355 . S
C751 C753 1.419 . S
C752 C750 1.415 1_545 S
C752 C757 1.425 1_545 S
C752 C759 1.409 . S
C753 H745 0.930 . S
C753 C751 1.419 . S
C753 C754 1.362 . S
C754 H746 0.930 . S
C754 C753 1.362 . S
C754 C757 1.409 . S
C755 H747 0.930 . S
C755 C756 1.355 . S
C755 C757 1.415 1_545 S
C756 C755 1.355 . S
C756 C758 1.419 . S
C757 C752 1.425 1_565 S
C757 C754 1.409 . S
C757 C755 1.415 1_565 S
C758 H748 0.930 . S
C758 C756 1.419 . S
C758 C759 1.362 . S
C759 H749 0.930 . S
C759 C752 1.409 . S
C759 C758 1.362 . S
H760 C766 0.930 . S
H761 C769 0.930 . S
H762 C770 0.930 . S
H763 C771 0.930 . S
H764 C774 0.930 . S
H765 C775 0.930 . S
C766 H760 0.930 . S
C766 C767 1.355 . S
C766 C768 1.415 . S
C767 C766 1.355 . S
C767 C769 1.419 . S
C768 C766 1.415 . S
C768 C773 1.425 1_455 S
C768 C775 1.409 . S
C769 H761 0.930 . S
C769 C767 1.419 . S
C769 C770 1.362 1_455 S
C770 H762 0.930 . S
C770 C769 1.362 1_655 S
C770 C773 1.409 . S
C771 H763 0.930 . S
C771 C772 1.355 . S
C771 C773 1.415 . S
C772 C771 1.355 . S
C772 C774 1.419 . S
C773 C768 1.425 1_655 S
C773 C770 1.409 . S
C773 C771 1.415 . S
C774 H764 0.930 . S
C774 C772 1.419 . S
C774 C775 1.362 1_655 S
C775 H765 0.930 . S
C775 C768 1.409 . S
C775 C774 1.362 1_455 S
H776 C782 0.930 . S
H777 C785 0.930 . S
H778 C786 0.930 . S
H779 C787 0.930 . S
H780 C790 0.930 . S
H781 C791 0.930 . S
C782 H776 0.930 . S
C782 C783 1.355 . S
C782 C784 1.415 . S
C783 C782 1.355 . S
C783 C785 1.419 . S
C784 C782 1.415 . S
C784 C789 1.425 . S
C784 C791 1.409 . S
C785 H777 0.930 . S
C785 C783 1.419 . S
C785 C786 1.362 . S
C786 H778 0.930 . S
C786 C785 1.362 . S
C786 C789 1.409 . S
C787 H779 0.930 . S
C787 C788 1.355 . S
C787 C789 1.415 . S
C788 C787 1.355 . S
C788 C790 1.419 . S
C789 C784 1.425 . S
C789 C786 1.409 . S
C789 C787 1.415 . S
C790 H780 0.930 . S
C790 C788 1.419 . S
C790 C791 1.362 . S
C791 H781 0.930 . S
C791 C784 1.409 . S
C791 C790 1.362 . S
H792 C798 0.930 . S
H793 C801 0.930 . S
H794 C802 0.930 . S
H795 C803 0.930 1_556 S
H796 C806 0.930 . S
H797 C807 0.930 . S
C798 H792 0.930 . S
C798 C799 1.355 1_554 S
C798 C800 1.415 . S
C799 C798 1.355 1_556 S
C799 C801 1.419 . S
C800 C798 1.415 . S
C800 C805 1.427 . S
C800 C807 1.409 . S
C801 H793 0.930 . S
C801 C799 1.419 . S
C801 C802 1.362 . S
C802 H794 0.930 . S
C802 C801 1.362 . S
C802 C805 1.406 1_556 S
C803 H795 0.930 1_554 S
C803 C804 1.355 . S
C803 C805 1.416 . S
C804 C803 1.355 . S
C804 C806 1.419 . S
C805 C800 1.427 . S
C805 C802 1.406 1_554 S
C805 C803 1.416 . S
C806 H796 0.930 . S
C806 C804 1.419 . S
C806 C807 1.362 . S
C807 H797 0.930 . S
C807 C800 1.409 . S
C807 C806 1.362 . S
H808 C814 0.930 . S
H809 C817 0.930 . S
H810 C818 0.930 . S
H811 C819 0.930 1_556 S
H812 C822 0.930 . S
H813 C823 0.930 . S
C814 H808 0.930 . S
C814 C815 1.355 1_554 S
C814 C816 1.415 . S
C815 C814 1.355 1_556 S
C815 C817 1.419 . S
C816 C814 1.415 . S
C816 C821 1.418 1_554 S
C816 C823 1.409 . S
C817 H809 0.930 . S
C817 C815 1.419 . S
C817 C818 1.362 . S
C818 H810 0.930 . S
C818 C817 1.362 . S
C818 C821 1.420 . S
C819 H811 0.930 1_554 S
C819 C820 1.355 . S
C819 C821 1.411 1_554 S
C820 C819 1.355 . S
C820 C822 1.419 . S
C821 C816 1.418 1_556 S
C821 C818 1.420 . S
C821 C819 1.411 1_556 S
C822 H812 0.930 . S
C822 C820 1.419 . S
C822 C823 1.362 . S
C823 H813 0.930 . S
C823 C816 1.409 . S
C823 C822 1.362 . S
H824 C830 0.930 . S
H825 C833 0.929 1_556 S
H826 C834 0.930 . S
H827 C835 0.930 . S
H828 C838 0.930 . S
H829 C839 0.930 1_556 S
C830 H824 0.930 . S
C830 C831 1.355 . S
C830 C832 1.415 1_556 S
C831 C830 1.355 . S
C831 C833 1.413 1_556 S
C832 C830 1.415 1_554 S
C832 C837 1.425 . S
C832 C839 1.409 . S
C833 H825 0.929 1_554 S
C833 C831 1.413 1_554 S
C833 C834 1.369 . S
C834 H826 0.930 . S
C834 C833 1.369 . S
C834 C837 1.409 . S
C835 H827 0.930 . S
C835 C836 1.355 . S
C835 C837 1.415 . S
C836 C835 1.355 . S
C836 C838 1.419 . S
C837 C832 1.425 . S
C837 C834 1.409 . S
C837 C835 1.415 . S
C838 H828 0.930 . S
C838 C836 1.419 . S
C838 C839 1.362 . S
C839 H829 0.930 1_554 S
C839 C832 1.409 . S
C839 C838 1.362 . S
H840 C846 0.930 . S
H841 C849 0.930 . S
H842 C850 0.930 . S
H843 C851 0.930 . S
H844 C854 0.930 . S
H845 C855 0.930 . S
C846 H840 0.930 . S
C846 C847 1.355 . S
C846 C848 1.415 . S
C847 C846 1.355 . S
C847 C849 1.419 . S
C848 C846 1.415 . S
C848 C853 1.425 . S
C848 C855 1.409 . S
C849 H841 0.930 . S
C849 C847 1.419 . S
C849 C850 1.362 . S
C850 H842 0.930 . S
C850 C849 1.362 . S
C850 C853 1.409 . S
C851 H843 0.930 . S
C851 C852 1.355 . S
C851 C853 1.415 . S
C852 C851 1.355 . S
C852 C854 1.419 . S
C853 C848 1.425 . S
C853 C850 1.409 . S
C853 C851 1.415 . S
C854 H844 0.930 . S
C854 C852 1.419 . S
C854 C855 1.362 . S
C855 H845 0.930 . S
C855 C848 1.409 . S
C855 C854 1.362 . S
H856 C862 0.930 . S
H857 C865 0.930 . S
H858 C866 0.930 . S
H859 C867 0.930 . S
H860 C870 0.930 . S
H861 C871 0.930 . S
C862 H856 0.930 . S
C862 C863 1.355 . S
C862 C864 1.415 . S
C863 C862 1.355 . S
C863 C865 1.419 . S
C864 C862 1.415 . S
C864 C869 1.425 . S
C864 C871 1.409 . S
C865 H857 0.930 . S
C865 C863 1.419 . S
C865 C866 1.362 . S
C866 H858 0.930 . S
C866 C865 1.362 . S
C866 C869 1.409 . S
C867 H859 0.930 . S
C867 C868 1.355 . S
C867 C869 1.415 . S
C868 C867 1.355 . S
C868 C870 1.419 . S
C869 C864 1.425 . S
C869 C866 1.409 . S
C869 C867 1.415 . S
C870 H860 0.930 . S
C870 C868 1.419 . S
C870 C871 1.362 . S
C871 H861 0.930 . S
C871 C864 1.409 . S
C871 C870 1.362 . S
H872 C878 0.930 . S
H873 C881 0.930 . S
H874 C882 0.930 . S
H875 C883 0.930 . S
H876 C886 0.930 . S
H877 C887 0.930 . S
C878 H872 0.930 . S
C878 C879 1.355 . S
C878 C880 1.415 . S
C879 C878 1.355 . S
C879 C881 1.419 . S
C880 C878 1.415 . S
C880 C885 1.425 . S
C880 C887 1.409 . S
C881 H873 0.930 . S
C881 C879 1.419 . S
C881 C882 1.362 . S
C882 H874 0.930 . S
C882 C881 1.362 . S
C882 C885 1.409 . S
C883 H875 0.930 . S
C883 C884 1.355 . S
C883 C885 1.415 . S
C884 C883 1.355 . S
C884 C886 1.419 . S
C885 C880 1.425 . S
C885 C882 1.409 . S
C885 C883 1.415 . S
C886 H876 0.930 . S
C886 C884 1.419 . S
C886 C887 1.362 . S
C887 H877 0.930 . S
C887 C880 1.409 . S
C887 C886 1.362 . S
H888 C894 0.930 . S
H889 C897 0.930 . S
H890 C898 0.930 . S
H891 C899 0.930 1_554 S
H892 C902 0.930 . S
H893 C903 0.930 . S
C894 H888 0.930 . S
C894 C895 1.355 1_556 S
C894 C896 1.415 . S
C895 C894 1.355 1_554 S
C895 C897 1.419 . S
C896 C894 1.415 . S
C896 C901 1.425 1_556 S
C896 C903 1.409 . S
C897 H889 0.930 . S
C897 C895 1.419 . S
C897 C898 1.362 . S
C898 H890 0.930 . S
C898 C897 1.362 . S
C898 C901 1.409 . S
C899 H891 0.930 1_556 S
C899 C900 1.355 . S
C899 C901 1.415 1_556 S
C900 C899 1.355 . S
C900 C902 1.419 . S
C901 C896 1.425 1_554 S
C901 C898 1.409 . S
C901 C899 1.415 1_554 S
C902 H892 0.930 . S
C902 C900 1.419 . S
C902 C903 1.362 . S
C903 H893 0.930 . S
C903 C896 1.409 . S
C903 C902 1.362 . S
H904 C910 0.930 . S
H905 C913 0.930 . S
H906 C914 0.930 . S
H907 C915 0.930 1_556 S
H908 C918 0.930 . S
H909 C919 0.930 . S
C910 H904 0.930 . S
C910 C911 1.355 . S
C910 C912 1.415 . S
C911 C910 1.355 . S
C911 C913 1.419 . S
C912 C910 1.415 . S
C912 C917 1.425 . S
C912 C919 1.409 1_556 S
C913 H905 0.930 . S
C913 C911 1.419 . S
C913 C914 1.362 . S
C914 H906 0.930 . S
C914 C913 1.362 . S
C914 C917 1.409 . S
C915 H907 0.930 1_554 S
C915 C916 1.355 . S
C915 C917 1.415 1_554 S
C916 C915 1.355 . S
C916 C918 1.419 . S
C917 C912 1.425 . S
C917 C914 1.409 . S
C917 C915 1.415 1_556 S
C918 H908 0.930 . S
C918 C916 1.419 . S
C918 C919 1.362 . S
C919 H909 0.930 . S
C919 C912 1.409 1_554 S
C919 C918 1.362 . S
H920 C926 0.930 . S
H921 C929 0.930 . S
H922 C930 0.930 . S
H923 C931 0.930 . S
H924 C934 0.930 . S
H925 C935 0.930 . S
C926 H920 0.930 . S
C926 C927 1.355 . S
C926 C928 1.415 . S
C927 C926 1.355 . S
C927 C929 1.419 1_554 S
C928 C926 1.415 . S
C928 C933 1.425 1_554 S
C928 C935 1.409 . S
C929 H921 0.930 . S
C929 C927 1.419 1_556 S
C929 C930 1.362 . S
C930 H922 0.930 . S
C930 C929 1.362 . S
C930 C933 1.409 . S
C931 H923 0.930 . S
C931 C932 1.355 . S
C931 C933 1.415 . S
C932 C931 1.355 . S
C932 C934 1.419 1_556 S
C933 C928 1.425 1_556 S
C933 C930 1.409 . S
C933 C931 1.415 . S
C934 H924 0.930 . S
C934 C932 1.419 1_554 S
C934 C935 1.362 . S
C935 H925 0.930 . S
C935 C928 1.409 . S
C935 C934 1.362 . S
H936 C942 0.930 . S
H937 C945 0.930 . S
H938 C946 0.930 . S
H939 C947 0.930 . S
H940 C950 0.930 . S
H941 C951 0.930 . S
C942 H936 0.930 . S
C942 C943 1.355 . S
C942 C944 1.415 . S
C943 C942 1.355 . S
C943 C945 1.419 . S
C944 C942 1.415 . S
C944 C949 1.425 . S
C944 C951 1.409 . S
C945 H937 0.930 . S
C945 C943 1.419 . S
C945 C946 1.362 . S
C946 H938 0.930 . S
C946 C945 1.362 . S
C946 C949 1.409 . S
C947 H939 0.930 . S
C947 C948 1.355 . S
C947 C949 1.415 . S
C948 C947 1.355 . S
C948 C950 1.419 . S
C949 C944 1.425 . S
C949 C946 1.409 . S
C949 C947 1.415 . S
C950 H940 0.930 . S
C950 C948 1.419 . S
C950 C951 1.362 . S
C951 H941 0.930 . S
C951 C944 1.409 . S
C951 C950 1.362 . S
H952 C958 0.930 . S
H953 C961 0.930 . S
H954 C962 0.930 . S
H955 C963 0.930 . S
H956 C966 0.930 . S
H957 C967 0.930 . S
C958 H952 0.930 . S
C958 C959 1.355 . S
C958 C960 1.415 . S
C959 C958 1.355 . S
C959 C961 1.419 . S
C960 C958 1.415 . S
C960 C965 1.425 . S
C960 C967 1.409 . S
C961 H953 0.930 . S
C961 C959 1.419 . S
C961 C962 1.362 . S
C962 H954 0.930 . S
C962 C961 1.362 . S
C962 C965 1.409 . S
C963 H955 0.930 . S
C963 C964 1.355 . S
C963 C965 1.415 . S
C964 C963 1.355 . S
C964 C966 1.419 . S
C965 C960 1.425 . S
C965 C962 1.409 . S
C965 C963 1.415 . S
C966 H956 0.930 . S
C966 C964 1.419 . S
C966 C967 1.362 . S
C967 H957 0.930 . S
C967 C960 1.409 . S
C967 C966 1.362 . S
H968 C974 0.930 . S
H969 C977 0.930 . S
H970 C978 0.930 . S
H971 C979 0.930 . S
H972 C982 0.930 . S
H973 C983 0.930 . S
C974 H968 0.930 . S
C974 C975 1.355 . S
C974 C976 1.415 . S
C975 C974 1.355 . S
C975 C977 1.419 . S
C976 C974 1.415 . S
C976 C981 1.425 . S
C976 C983 1.409 . S
C977 H969 0.930 . S
C977 C975 1.419 . S
C977 C978 1.362 . S
C978 H970 0.930 . S
C978 C977 1.362 . S
C978 C981 1.409 . S
C979 H971 0.930 . S
C979 C980 1.355 . S
C979 C981 1.415 . S
C980 C979 1.355 . S
C980 C982 1.419 . S
C981 C976 1.425 . S
C981 C978 1.409 . S
C981 C979 1.415 . S
C982 H972 0.930 . S
C982 C980 1.419 . S
C982 C983 1.362 . S
C983 H973 0.930 . S
C983 C976 1.409 . S
C983 C982 1.362 . S
H984 C990 0.930 . S
H985 C993 0.930 . S
H986 C994 0.930 . S
H987 C995 0.930 . S
H988 C998 0.930 . S
H989 C999 0.930 . S
C990 H984 0.930 . S
C990 C991 1.355 . S
C990 C992 1.415 . S
C991 C990 1.355 . S
C991 C993 1.419 . S
C992 C990 1.415 . S
C992 C997 1.425 . S
C992 C999 1.409 . S
C993 H985 0.930 . S
C993 C991 1.419 . S
C993 C994 1.362 . S
C994 H986 0.930 . S
C994 C993 1.362 . S
C994 C997 1.409 . S
C995 H987 0.930 . S
C995 C996 1.355 . S
C995 C997 1.415 . S
C996 C995 1.355 . S
C996 C998 1.419 . S
C997 C992 1.425 . S
C997 C994 1.409 . S
C997 C995 1.415 . S
C998 H988 0.930 . S
C998 C996 1.419 . S
C998 C999 1.362 . S
C999 H989 0.930 . S
C999 C992 1.409 . S
C999 C998 1.362 . S
H1000 C1006 0.930 . S
H1001 C1009 0.930 . S
H1002 C1010 0.930 . S
H1003 C1011 0.930 . S
H1004 C1014 0.930 . S
H1005 C1015 0.930 . S
C1006 H1000 0.930 . S
C1006 C1007 1.355 . S
C1006 C1008 1.415 . S
C1007 C1006 1.355 . S
C1007 C1009 1.419 . S
C1008 C1006 1.415 . S
C1008 C1013 1.425 . S
C1008 C1015 1.409 . S
C1009 H1001 0.930 . S
C1009 C1007 1.419 . S
C1009 C1010 1.362 . S
C1010 H1002 0.930 . S
C1010 C1009 1.362 . S
C1010 C1013 1.409 . S
C1011 H1003 0.930 . S
C1011 C1012 1.355 . S
C1011 C1013 1.415 . S
C1012 C1011 1.355 . S
C1012 C1014 1.419 . S
C1013 C1008 1.425 . S
C1013 C1010 1.409 . S
C1013 C1011 1.415 . S
C1014 H1004 0.930 . S
C1014 C1012 1.419 . S
C1014 C1015 1.362 . S
C1015 H1005 0.930 . S
C1015 C1008 1.409 . S
C1015 C1014 1.362 . S
H1016 C1022 0.930 . S
H1017 C1025 0.930 . S
H1018 C1026 0.930 . S
H1019 C1027 0.930 . S
H1020 C1030 0.930 . S
H1021 C1031 0.930 . S
C1022 H1016 0.930 . S
C1022 C1023 1.355 . S
C1022 C1024 1.415 . S
C1023 C1022 1.355 . S
C1023 C1025 1.419 . S
C1024 C1022 1.415 . S
C1024 C1029 1.425 . S
C1024 C1031 1.409 . S
C1025 H1017 0.930 . S
C1025 C1023 1.419 . S
C1025 C1026 1.362 . S
C1026 H1018 0.930 . S
C1026 C1025 1.362 . S
C1026 C1029 1.409 . S
C1027 H1019 0.930 . S
C1027 C1028 1.355 . S
C1027 C1029 1.415 . S
C1028 C1027 1.355 . S
C1028 C1030 1.419 . S
C1029 C1024 1.425 . S
C1029 C1026 1.409 . S
C1029 C1027 1.415 . S
C1030 H1020 0.930 . S
C1030 C1028 1.419 . S
C1030 C1031 1.362 . S
C1031 H1021 0.930 . S
C1031 C1024 1.409 . S
C1031 C1030 1.362 . S
H1032 C1038 0.930 . S
H1033 C1041 0.930 . S
H1034 C1042 0.930 . S
H1035 C1043 0.930 . S
H1036 C1046 0.930 . S
H1037 C1047 0.930 . S
C1038 H1032 0.930 . S
C1038 C1039 1.355 . S
C1038 C1040 1.415 . S
C1039 C1038 1.355 . S
C1039 C1041 1.419 . S
C1040 C1038 1.415 . S
C1040 C1045 1.425 . S
C1040 C1047 1.409 . S
C1041 H1033 0.930 . S
C1041 C1039 1.419 . S
C1041 C1042 1.362 . S
C1042 H1034 0.930 . S
C1042 C1041 1.362 . S
C1042 C1045 1.409 . S
C1043 H1035 0.930 . S
C1043 C1044 1.355 . S
C1043 C1045 1.415 . S
C1044 C1043 1.355 . S
C1044 C1046 1.419 . S
C1045 C1040 1.425 . S
C1045 C1042 1.409 . S
C1045 C1043 1.415 . S
C1046 H1036 0.930 . S
C1046 C1044 1.419 . S
C1046 C1047 1.362 . S
C1047 H1037 0.930 . S
C1047 C1040 1.409 . S
C1047 C1046 1.362 . S
H1048 C1054 0.930 . S
H1049 C1057 0.930 . S
H1050 C1058 0.930 . S
H1051 C1059 0.930 . S
H1052 C1062 0.930 . S
H1053 C1063 0.930 . S
C1054 H1048 0.930 . S
C1054 C1055 1.355 . S
C1054 C1056 1.415 . S
C1055 C1054 1.355 . S
C1055 C1057 1.419 . S
C1056 C1054 1.415 . S
C1056 C1061 1.425 . S
C1056 C1063 1.409 . S
C1057 H1049 0.930 . S
C1057 C1055 1.419 . S
C1057 C1058 1.362 . S
C1058 H1050 0.930 . S
C1058 C1057 1.362 . S
C1058 C1061 1.409 . S
C1059 H1051 0.930 . S
C1059 C1060 1.355 . S
C1059 C1061 1.415 . S
C1060 C1059 1.355 . S
C1060 C1062 1.419 . S
C1061 C1056 1.425 . S
C1061 C1058 1.409 . S
C1061 C1059 1.415 . S
C1062 H1052 0.930 . S
C1062 C1060 1.419 . S
C1062 C1063 1.362 . S
C1063 H1053 0.930 . S
C1063 C1056 1.409 . S
C1063 C1062 1.362 . S
H1064 C1070 0.930 . S
H1065 C1073 0.930 . S
H1066 C1074 0.930 . S
H1067 C1075 0.930 . S
H1068 C1078 0.930 . S
H1069 C1079 0.930 . S
C1070 H1064 0.930 . S
C1070 C1071 1.355 . S
C1070 C1072 1.415 . S
C1071 C1070 1.355 . S
C1071 C1073 1.419 . S
C1072 C1070 1.415 . S
C1072 C1077 1.425 . S
C1072 C1079 1.409 . S
C1073 H1065 0.930 . S
C1073 C1071 1.419 . S
C1073 C1074 1.362 . S
C1074 H1066 0.930 . S
C1074 C1073 1.362 . S
C1074 C1077 1.409 . S
C1075 H1067 0.930 . S
C1075 C1076 1.355 . S
C1075 C1077 1.415 . S
C1076 C1075 1.355 . S
C1076 C1078 1.419 . S
C1077 C1072 1.425 . S
C1077 C1074 1.409 . S
C1077 C1075 1.415 . S
C1078 H1068 0.930 . S
C1078 C1076 1.419 . S
C1078 C1079 1.362 . S
C1079 H1069 0.930 . S
C1079 C1072 1.409 . S
C1079 C1078 1.362 . S
H1080 C1086 0.930 . S
H1081 C1089 0.930 . S
H1082 C1090 0.930 . S
H1083 C1091 0.930 . S
H1084 C1094 0.930 . S
H1085 C1095 0.930 . S
C1086 H1080 0.930 . S
C1086 C1087 1.355 . S
C1086 C1088 1.415 . S
C1087 C1086 1.355 . S
C1087 C1089 1.419 . S
C1088 C1086 1.415 . S
C1088 C1093 1.425 . S
C1088 C1095 1.409 . S
C1089 H1081 0.930 . S
C1089 C1087 1.419 . S
C1089 C1090 1.362 . S
C1090 H1082 0.930 . S
C1090 C1089 1.362 . S
C1090 C1093 1.409 . S
C1091 H1083 0.930 . S
C1091 C1092 1.355 . S
C1091 C1093 1.415 . S
C1092 C1091 1.355 . S
C1092 C1094 1.419 . S
C1093 C1088 1.425 . S
C1093 C1090 1.409 . S
C1093 C1091 1.415 . S
C1094 H1084 0.930 . S
C1094 C1092 1.419 . S
C1094 C1095 1.362 . S
C1095 H1085 0.930 . S
C1095 C1088 1.409 . S
C1095 C1094 1.362 . S
H1096 C1102 0.930 . S
H1097 C1105 0.930 . S
H1098 C1106 0.930 . S
H1099 C1107 0.930 . S
H1100 C1110 0.930 . S
H1101 C1111 0.930 . S
C1102 H1096 0.930 . S
C1102 C1103 1.355 . S
C1102 C1104 1.415 . S
C1103 C1102 1.355 . S
C1103 C1105 1.419 . S
C1104 C1102 1.415 . S
C1104 C1109 1.425 . S
C1104 C1111 1.409 . S
C1105 H1097 0.930 . S
C1105 C1103 1.419 . S
C1105 C1106 1.362 . S
C1106 H1098 0.930 . S
C1106 C1105 1.362 . S
C1106 C1109 1.409 . S
C1107 H1099 0.930 . S
C1107 C1108 1.355 . S
C1107 C1109 1.415 . S
C1108 C1107 1.355 . S
C1108 C1110 1.419 . S
C1109 C1104 1.425 . S
C1109 C1106 1.409 . S
C1109 C1107 1.415 . S
C1110 H1100 0.930 . S
C1110 C1108 1.419 . S
C1110 C1111 1.362 . S
C1111 H1101 0.930 . S
C1111 C1104 1.409 . S
C1111 C1110 1.362 . S
H1112 C1118 0.930 . S
H1113 C1121 0.930 . S
H1114 C1122 0.930 . S
H1115 C1123 0.930 . S
H1116 C1126 0.930 . S
H1117 C1127 0.930 . S
C1118 H1112 0.930 . S
C1118 C1119 1.355 . S
C1118 C1120 1.415 . S
C1119 C1118 1.355 . S
C1119 C1121 1.419 . S
C1120 C1118 1.415 . S
C1120 C1125 1.425 . S
C1120 C1127 1.409 . S
C1121 H1113 0.930 . S
C1121 C1119 1.419 . S
C1121 C1122 1.362 . S
C1122 H1114 0.930 . S
C1122 C1121 1.362 . S
C1122 C1125 1.409 . S
C1123 H1115 0.930 . S
C1123 C1124 1.355 . S
C1123 C1125 1.415 . S
C1124 C1123 1.355 . S
C1124 C1126 1.419 . S
C1125 C1120 1.425 . S
C1125 C1122 1.409 . S
C1125 C1123 1.415 . S
C1126 H1116 0.930 . S
C1126 C1124 1.419 . S
C1126 C1127 1.362 . S
C1127 H1117 0.930 . S
C1127 C1120 1.409 . S
C1127 C1126 1.362 . S
H1128 C1134 0.930 . S
H1129 C1137 0.930 . S
H1130 C1138 0.930 . S
H1131 C1139 0.930 . S
H1132 C1142 0.930 . S
H1133 C1143 0.930 . S
C1134 H1128 0.930 . S
C1134 C1135 1.355 . S
C1134 C1136 1.415 . S
C1135 C1134 1.355 . S
C1135 C1137 1.419 . S
C1136 C1134 1.415 . S
C1136 C1141 1.425 . S
C1136 C1143 1.409 . S
C1137 H1129 0.930 . S
C1137 C1135 1.419 . S
C1137 C1138 1.362 . S
C1138 H1130 0.930 . S
C1138 C1137 1.362 . S
C1138 C1141 1.409 . S
C1139 H1131 0.930 . S
C1139 C1140 1.355 . S
C1139 C1141 1.415 . S
C1140 C1139 1.355 . S
C1140 C1142 1.419 . S
C1141 C1136 1.425 . S
C1141 C1138 1.409 . S
C1141 C1139 1.415 . S
C1142 H1132 0.930 . S
C1142 C1140 1.419 . S
C1142 C1143 1.362 . S
C1143 H1133 0.930 . S
C1143 C1136 1.409 . S
C1143 C1142 1.362 . S
H1144 C1150 0.930 . S
H1145 C1153 0.930 . S
H1146 C1154 0.930 . S
H1147 C1155 0.930 . S
H1148 C1158 0.930 . S
H1149 C1159 0.930 . S
C1150 H1144 0.930 . S
C1150 C1151 1.355 . S
C1150 C1152 1.415 . S
C1151 C1150 1.355 . S
C1151 C1153 1.419 . S
C1152 C1150 1.415 . S
C1152 C1157 1.425 . S
C1152 C1159 1.409 . S
C1153 H1145 0.930 . S
C1153 C1151 1.419 . S
C1153 C1154 1.362 . S
C1154 H1146 0.930 . S
C1154 C1153 1.362 . S
C1154 C1157 1.409 . S
C1155 H1147 0.930 . S
C1155 C1156 1.355 . S
C1155 C1157 1.415 . S
C1156 C1155 1.355 . S
C1156 C1158 1.419 . S
C1157 C1152 1.425 . S
C1157 C1154 1.409 . S
C1157 C1155 1.415 . S
C1158 H1148 0.930 . S
C1158 C1156 1.419 . S
C1158 C1159 1.362 . S
C1159 H1149 0.930 . S
C1159 C1152 1.409 . S
C1159 C1158 1.362 . S
H1160 C1166 0.930 . S
H1161 C1169 0.930 . S
H1162 C1170 0.930 . S
H1163 C1171 0.930 . S
H1164 C1174 0.930 . S
H1165 C1175 0.930 . S
C1166 H1160 0.930 . S
C1166 C1167 1.355 . S
C1166 C1168 1.415 . S
C1167 C1166 1.355 . S
C1167 C1169 1.419 . S
C1168 C1166 1.415 . S
C1168 C1173 1.425 . S
C1168 C1175 1.409 . S
C1169 H1161 0.930 . S
C1169 C1167 1.419 . S
C1169 C1170 1.362 . S
C1170 H1162 0.930 . S
C1170 C1169 1.362 . S
C1170 C1173 1.409 . S
C1171 H1163 0.930 . S
C1171 C1172 1.355 . S
C1171 C1173 1.415 . S
C1172 C1171 1.355 . S
C1172 C1174 1.419 . S
C1173 C1168 1.425 . S
C1173 C1170 1.409 . S
C1173 C1171 1.415 . S
C1174 H1164 0.930 . S
C1174 C1172 1.419 . S
C1174 C1175 1.362 . S
C1175 H1165 0.930 . S
C1175 C1168 1.409 . S
C1175 C1174 1.362 . S
H1176 C1182 0.930 . S
H1177 C1185 0.930 . S
H1178 C1186 0.930 . S
H1179 C1187 0.930 . S
H1180 C1190 0.930 . S
H1181 C1191 0.930 . S
C1182 H1176 0.930 . S
C1182 C1183 1.355 . S
C1182 C1184 1.415 . S
C1183 C1182 1.355 . S
C1183 C1185 1.419 . S
C1184 C1182 1.415 . S
C1184 C1189 1.425 . S
C1184 C1191 1.409 . S
C1185 H1177 0.930 . S
C1185 C1183 1.419 . S
C1185 C1186 1.362 . S
C1186 H1178 0.930 . S
C1186 C1185 1.362 . S
C1186 C1189 1.409 . S
C1187 H1179 0.930 . S
C1187 C1188 1.355 . S
C1187 C1189 1.415 . S
C1188 C1187 1.355 . S
C1188 C1190 1.419 . S
C1189 C1184 1.425 . S
C1189 C1186 1.409 . S
C1189 C1187 1.415 . S
C1190 H1180 0.930 . S
C1190 C1188 1.419 . S
C1190 C1191 1.362 . S
C1191 H1181 0.930 . S
C1191 C1184 1.409 . S
C1191 C1190 1.362 . S
H1192 C1198 0.930 . S
H1193 C1201 0.930 . S
H1194 C1202 0.930 . S
H1195 C1203 0.930 . S
H1196 C1206 0.930 . S
H1197 C1207 0.930 . S
C1198 H1192 0.930 . S
C1198 C1199 1.355 . S
C1198 C1200 1.415 . S
C1199 C1198 1.355 . S
C1199 C1201 1.419 . S
C1200 C1198 1.415 . S
C1200 C1205 1.425 . S
C1200 C1207 1.409 . S
C1201 H1193 0.930 . S
C1201 C1199 1.419 . S
C1201 C1202 1.362 . S
C1202 H1194 0.930 . S
C1202 C1201 1.362 . S
C1202 C1205 1.409 . S
C1203 H1195 0.930 . S
C1203 C1204 1.355 . S
C1203 C1205 1.415 . S
C1204 C1203 1.355 . S
C1204 C1206 1.419 . S
C1205 C1200 1.425 . S
C1205 C1202 1.409 . S
C1205 C1203 1.415 . S
C1206 H1196 0.930 . S
C1206 C1204 1.419 . S
C1206 C1207 1.362 . S
C1207 H1197 0.930 . S
C1207 C1200 1.409 . S
C1207 C1206 1.362 . S
H1208 C1214 0.930 . S
H1209 C1217 0.930 . S
H1210 C1218 0.930 . S
H1211 C1219 0.930 . S
H1212 C1222 0.930 . S
H1213 C1223 0.930 . S
C1214 H1208 0.930 . S
C1214 C1215 1.355 . S
C1214 C1216 1.415 . S
C1215 C1214 1.355 . S
C1215 C1217 1.419 . S
C1216 C1214 1.415 . S
C1216 C1221 1.425 . S
C1216 C1223 1.409 . S
C1217 H1209 0.930 . S
C1217 C1215 1.419 . S
C1217 C1218 1.362 . S
C1218 H1210 0.930 . S
C1218 C1217 1.362 . S
C1218 C1221 1.409 . S
C1219 H1211 0.930 . S
C1219 C1220 1.355 . S
C1219 C1221 1.415 . S
C1220 C1219 1.355 . S
C1220 C1222 1.419 . S
C1221 C1216 1.425 . S
C1221 C1218 1.409 . S
C1221 C1219 1.415 . S
C1222 H1212 0.930 . S
C1222 C1220 1.419 . S
C1222 C1223 1.362 . S
C1223 H1213 0.930 . S
C1223 C1216 1.409 . S
C1223 C1222 1.362 . S
H1224 C1230 0.930 . S
H1225 C1233 0.930 . S
H1226 C1234 0.930 . S
H1227 C1235 0.930 . S
H1228 C1238 0.930 . S
H1229 C1239 0.930 . S
C1230 H1224 0.930 . S
C1230 C1231 1.355 . S
C1230 C1232 1.415 . S
C1231 C1230 1.355 . S
C1231 C1233 1.419 . S
C1232 C1230 1.415 . S
C1232 C1237 1.425 . S
C1232 C1239 1.409 . S
C1233 H1225 0.930 . S
C1233 C1231 1.419 . S
C1233 C1234 1.362 . S
C1234 H1226 0.930 . S
C1234 C1233 1.362 . S
C1234 C1237 1.409 . S
C1235 H1227 0.930 . S
C1235 C1236 1.355 . S
C1235 C1237 1.415 . S
C1236 C1235 1.355 . S
C1236 C1238 1.419 . S
C1237 C1232 1.425 . S
C1237 C1234 1.409 . S
C1237 C1235 1.415 . S
C1238 H1228 0.930 . S
C1238 C1236 1.419 . S
C1238 C1239 1.362 . S
C1239 H1229 0.930 . S
C1239 C1232 1.409 . S
C1239 C1238 1.362 . S
H1240 C1246 0.930 . S
H1241 C1249 0.930 . S
H1242 C1250 0.930 . S
H1243 C1251 0.930 . S
H1244 C1254 0.930 . S
H1245 C1255 0.930 . S
C1246 H1240 0.930 . S
C1246 C1247 1.355 . S
C1246 C1248 1.415 . S
C1247 C1246 1.355 . S
C1247 C1249 1.419 . S
C1248 C1246 1.415 . S
C1248 C1253 1.425 . S
C1248 C1255 1.409 . S
C1249 H1241 0.930 . S
C1249 C1247 1.419 . S
C1249 C1250 1.362 . S
C1250 H1242 0.930 . S
C1250 C1249 1.362 . S
C1250 C1253 1.409 . S
C1251 H1243 0.930 . S
C1251 C1252 1.355 . S
C1251 C1253 1.415 . S
C1252 C1251 1.355 . S
C1252 C1254 1.419 . S
C1253 C1248 1.425 . S
C1253 C1250 1.409 . S
C1253 C1251 1.415 . S
C1254 H1244 0.930 . S
C1254 C1252 1.419 . S
C1254 C1255 1.362 . S
C1255 H1245 0.930 . S
C1255 C1248 1.409 . S
C1255 C1254 1.362 . S
H1256 C1262 0.930 . S
H1257 C1265 0.930 . S
H1258 C1266 0.930 . S
H1259 C1267 0.930 . S
H1260 C1270 0.930 . S
H1261 C1271 0.930 . S
C1262 H1256 0.930 . S
C1262 C1263 1.355 . S
C1262 C1264 1.415 . S
C1263 C1262 1.355 . S
C1263 C1265 1.419 . S
C1264 C1262 1.415 . S
C1264 C1269 1.425 . S
C1264 C1271 1.409 . S
C1265 H1257 0.930 . S
C1265 C1263 1.419 . S
C1265 C1266 1.362 . S
C1266 H1258 0.930 . S
C1266 C1265 1.362 . S
C1266 C1269 1.409 . S
C1267 H1259 0.930 . S
C1267 C1268 1.355 . S
C1267 C1269 1.415 . S
C1268 C1267 1.355 . S
C1268 C1270 1.419 . S
C1269 C1264 1.425 . S
C1269 C1266 1.409 . S
C1269 C1267 1.415 . S
C1270 H1260 0.930 . S
C1270 C1268 1.419 . S
C1270 C1271 1.362 . S
C1271 H1261 0.930 . S
C1271 C1264 1.409 . S
C1271 C1270 1.362 . S
H1272 C1278 0.930 . S
H1273 C1281 0.930 . S
H1274 C1282 0.930 . S
H1275 C1283 0.930 . S
H1276 C1286 0.930 . S
H1277 C1287 0.930 . S
C1278 H1272 0.930 . S
C1278 C1279 1.355 . S
C1278 C1280 1.415 . S
C1279 C1278 1.355 . S
C1279 C1281 1.419 . S
C1280 C1278 1.415 . S
C1280 C1285 1.425 . S
C1280 C1287 1.409 . S
C1281 H1273 0.930 . S
C1281 C1279 1.419 . S
C1281 C1282 1.362 . S
C1282 H1274 0.930 . S
C1282 C1281 1.362 . S
C1282 C1285 1.409 . S
C1283 H1275 0.930 . S
C1283 C1284 1.355 . S
C1283 C1285 1.415 . S
C1284 C1283 1.355 . S
C1284 C1286 1.419 . S
C1285 C1280 1.425 . S
C1285 C1282 1.409 . S
C1285 C1283 1.415 . S
C1286 H1276 0.930 . S
C1286 C1284 1.419 . S
C1286 C1287 1.362 . S
C1287 H1277 0.930 . S
C1287 C1280 1.409 . S
C1287 C1286 1.362 . S
H1288 C1294 0.930 . S
H1289 C1297 0.930 . S
H1290 C1298 0.930 . S
H1291 C1299 0.930 . S
H1292 C1302 0.930 . S
H1293 C1303 0.930 . S
C1294 H1288 0.930 . S
C1294 C1295 1.355 . S
C1294 C1296 1.415 . S
C1295 C1294 1.355 . S
C1295 C1297 1.419 . S
C1296 C1294 1.415 . S
C1296 C1301 1.425 . S
C1296 C1303 1.409 . S
C1297 H1289 0.930 . S
C1297 C1295 1.419 . S
C1297 C1298 1.362 . S
C1298 H1290 0.930 . S
C1298 C1297 1.362 . S
C1298 C1301 1.409 . S
C1299 H1291 0.930 . S
C1299 C1300 1.355 . S
C1299 C1301 1.415 . S
C1300 C1299 1.355 . S
C1300 C1302 1.419 . S
C1301 C1296 1.425 . S
C1301 C1298 1.409 . S
C1301 C1299 1.415 . S
C1302 H1292 0.930 . S
C1302 C1300 1.419 . S
C1302 C1303 1.362 . S
C1303 H1293 0.930 . S
C1303 C1296 1.409 . S
C1303 C1302 1.362 . S
H1304 C1310 0.930 . S
H1305 C1313 0.930 . S
H1306 C1314 0.930 . S
H1307 C1315 0.930 . S
H1308 C1318 0.930 . S
H1309 C1319 0.930 . S
C1310 H1304 0.930 . S
C1310 C1311 1.355 . S
C1310 C1312 1.415 . S
C1311 C1310 1.355 . S
C1311 C1313 1.419 . S
C1312 C1310 1.415 . S
C1312 C1317 1.425 . S
C1312 C1319 1.409 . S
C1313 H1305 0.930 . S
C1313 C1311 1.419 . S
C1313 C1314 1.362 . S
C1314 H1306 0.930 . S
C1314 C1313 1.362 . S
C1314 C1317 1.409 . S
C1315 H1307 0.930 . S
C1315 C1316 1.355 . S
C1315 C1317 1.415 . S
C1316 C1315 1.355 . S
C1316 C1318 1.419 . S
C1317 C1312 1.425 . S
C1317 C1314 1.409 . S
C1317 C1315 1.415 . S
C1318 H1308 0.930 . S
C1318 C1316 1.419 . S
C1318 C1319 1.362 . S
C1319 H1309 0.930 . S
C1319 C1312 1.409 . S
C1319 C1318 1.362 . S
H1320 C1326 0.930 . S
H1321 C1329 0.930 . S
H1322 C1330 0.930 . S
H1323 C1331 0.930 . S
H1324 C1334 0.930 . S
H1325 C1335 0.930 . S
C1326 H1320 0.930 . S
C1326 C1327 1.355 . S
C1326 C1328 1.415 . S
C1327 C1326 1.355 . S
C1327 C1329 1.419 . S
C1328 C1326 1.415 . S
C1328 C1333 1.425 . S
C1328 C1335 1.409 . S
C1329 H1321 0.930 . S
C1329 C1327 1.419 . S
C1329 C1330 1.362 . S
C1330 H1322 0.930 . S
C1330 C1329 1.362 . S
C1330 C1333 1.409 . S
C1331 H1323 0.930 . S
C1331 C1332 1.355 . S
C1331 C1333 1.415 . S
C1332 C1331 1.355 . S
C1332 C1334 1.419 . S
C1333 C1328 1.425 . S
C1333 C1330 1.409 . S
C1333 C1331 1.415 . S
C1334 H1324 0.930 . S
C1334 C1332 1.419 . S
C1334 C1335 1.362 . S
C1335 H1325 0.930 . S
C1335 C1328 1.409 . S
C1335 C1334 1.362 . S
H1336 C1342 0.930 . S
H1337 C1345 0.930 . S
H1338 C1346 0.930 . S
H1339 C1347 0.930 . S
H1340 C1350 0.930 . S
H1341 C1351 0.930 . S
C1342 H1336 0.930 . S
C1342 C1343 1.355 . S
C1342 C1344 1.415 . S
C1343 C1342 1.355 . S
C1343 C1345 1.419 . S
C1344 C1342 1.415 . S
C1344 C1349 1.425 . S
C1344 C1351 1.409 . S
C1345 H1337 0.930 . S
C1345 C1343 1.419 . S
C1345 C1346 1.362 . S
C1346 H1338 0.930 . S
C1346 C1345 1.362 . S
C1346 C1349 1.409 . S
C1347 H1339 0.930 . S
C1347 C1348 1.355 . S
C1347 C1349 1.415 . S
C1348 C1347 1.355 . S
C1348 C1350 1.419 . S
C1349 C1344 1.425 . S
C1349 C1346 1.409 . S
C1349 C1347 1.415 . S
C1350 H1340 0.930 . S
C1350 C1348 1.419 . S
C1350 C1351 1.362 . S
C1351 H1341 0.930 . S
C1351 C1344 1.409 . S
C1351 C1350 1.362 . S
H1352 C1358 0.930 . S
H1353 C1361 0.930 . S
H1354 C1362 0.930 . S
H1355 C1363 0.930 . S
H1356 C1366 0.930 . S
H1357 C1367 0.930 . S
C1358 H1352 0.930 . S
C1358 C1359 1.355 . S
C1358 C1360 1.415 . S
C1359 C1358 1.355 . S
C1359 C1361 1.419 . S
C1360 C1358 1.415 . S
C1360 C1365 1.425 . S
C1360 C1367 1.409 . S
C1361 H1353 0.930 . S
C1361 C1359 1.419 . S
C1361 C1362 1.362 . S
C1362 H1354 0.930 . S
C1362 C1361 1.362 . S
C1362 C1365 1.409 . S
C1363 H1355 0.930 . S
C1363 C1364 1.355 . S
C1363 C1365 1.415 . S
C1364 C1363 1.355 . S
C1364 C1366 1.419 . S
C1365 C1360 1.425 . S
C1365 C1362 1.409 . S
C1365 C1363 1.415 . S
C1366 H1356 0.930 . S
C1366 C1364 1.419 . S
C1366 C1367 1.362 . S
C1367 H1357 0.930 . S
C1367 C1360 1.409 . S
C1367 C1366 1.362 . S
H1368 C1374 0.930 . S
H1369 C1377 0.930 . S
H1370 C1378 0.930 . S
H1371 C1379 0.930 . S
H1372 C1382 0.930 . S
H1373 C1383 0.930 . S
C1374 H1368 0.930 . S
C1374 C1375 1.355 . S
C1374 C1376 1.415 . S
C1375 C1374 1.355 . S
C1375 C1377 1.419 . S
C1376 C1374 1.415 . S
C1376 C1381 1.425 . S
C1376 C1383 1.409 . S
C1377 H1369 0.930 . S
C1377 C1375 1.419 . S
C1377 C1378 1.362 . S
C1378 H1370 0.930 . S
C1378 C1377 1.362 . S
C1378 C1381 1.409 . S
C1379 H1371 0.930 . S
C1379 C1380 1.355 . S
C1379 C1381 1.415 . S
C1380 C1379 1.355 . S
C1380 C1382 1.419 . S
C1381 C1376 1.425 . S
C1381 C1378 1.409 . S
C1381 C1379 1.415 . S
C1382 H1372 0.930 . S
C1382 C1380 1.419 . S
C1382 C1383 1.362 . S
C1383 H1373 0.930 . S
C1383 C1376 1.409 . S
C1383 C1382 1.362 . S
H1384 C1390 0.930 . S
H1385 C1393 0.930 . S
H1386 C1394 0.930 . S
H1387 C1395 0.930 . S
H1388 C1398 0.930 . S
H1389 C1399 0.930 . S
C1390 H1384 0.930 . S
C1390 C1391 1.355 . S
C1390 C1392 1.415 . S
C1391 C1390 1.355 . S
C1391 C1393 1.419 1_545 S
C1392 C1390 1.415 . S
C1392 C1397 1.425 1_545 S
C1392 C1399 1.409 . S
C1393 H1385 0.930 . S
C1393 C1391 1.419 1_565 S
C1393 C1394 1.362 . S
C1394 H1386 0.930 . S
C1394 C1393 1.362 . S
C1394 C1397 1.409 . S
C1395 H1387 0.930 . S
C1395 C1396 1.355 . S
C1395 C1397 1.415 . S
C1396 C1395 1.355 . S
C1396 C1398 1.419 1_565 S
C1397 C1392 1.425 1_565 S
C1397 C1394 1.409 . S
C1397 C1395 1.415 . S
C1398 H1388 0.930 . S
C1398 C1396 1.419 1_545 S
C1398 C1399 1.362 . S
C1399 H1389 0.930 . S
C1399 C1392 1.409 . S
C1399 C1398 1.362 . S
H1400 C1406 0.930 . S
H1401 C1409 0.930 . S
H1402 C1410 0.930 . S
H1403 C1411 0.930 . S
H1404 C1414 0.930 . S
H1405 C1415 0.930 . S
C1406 H1400 0.930 . S
C1406 C1407 1.355 1_655 S
C1406 C1408 1.415 . S
C1407 C1406 1.355 1_455 S
C1407 C1409 1.419 . S
C1408 C1406 1.415 . S
C1408 C1413 1.425 1_655 S
C1408 C1415 1.409 . S
C1409 H1401 0.930 . S
C1409 C1407 1.419 . S
C1409 C1410 1.362 . S
C1410 H1402 0.930 . S
C1410 C1409 1.362 . S
C1410 C1413 1.409 . S
C1411 H1403 0.930 . S
C1411 C1412 1.355 1_455 S
C1411 C1413 1.415 . S
C1412 C1411 1.355 1_655 S
C1412 C1414 1.419 . S
C1413 C1408 1.425 1_455 S
C1413 C1410 1.409 . S
C1413 C1411 1.415 . S
C1414 H1404 0.930 . S
C1414 C1412 1.419 . S
C1414 C1415 1.362 . S
C1415 H1405 0.930 . S
C1415 C1408 1.409 . S
C1415 C1414 1.362 . S
H1416 C1422 0.930 . S
H1417 C1425 0.930 . S
H1418 C1426 0.930 . S
H1419 C1427 0.930 . S
H1420 C1430 0.930 . S
H1421 C1431 0.930 . S
C1422 H1416 0.930 . S
C1422 C1423 1.355 . S
C1422 C1424 1.415 . S
C1423 C1422 1.355 . S
C1423 C1425 1.419 . S
C1424 C1422 1.415 . S
C1424 C1429 1.425 . S
C1424 C1431 1.409 . S
C1425 H1417 0.930 . S
C1425 C1423 1.419 . S
C1425 C1426 1.362 . S
C1426 H1418 0.930 . S
C1426 C1425 1.362 . S
C1426 C1429 1.409 . S
C1427 H1419 0.930 . S
C1427 C1428 1.355 . S
C1427 C1429 1.415 . S
C1428 C1427 1.355 . S
C1428 C1430 1.419 . S
C1429 C1424 1.425 . S
C1429 C1426 1.409 . S
C1429 C1427 1.415 . S
C1430 H1420 0.930 . S
C1430 C1428 1.419 . S
C1430 C1431 1.362 . S
C1431 H1421 0.930 . S
C1431 C1424 1.409 . S
C1431 C1430 1.362 . S
H1432 C1438 0.930 . S
H1433 C1441 0.930 . S
H1434 C1442 0.930 . S
H1435 C1443 0.930 . S
H1436 C1446 0.930 . S
H1437 C1447 0.930 . S
C1438 H1432 0.930 . S
C1438 C1439 1.355 . S
C1438 C1440 1.415 . S
C1439 C1438 1.355 . S
C1439 C1441 1.419 1_545 S
C1440 C1438 1.415 . S
C1440 C1445 1.425 1_545 S
C1440 C1447 1.409 . S
C1441 H1433 0.930 . S
C1441 C1439 1.419 1_565 S
C1441 C1442 1.362 . S
C1442 H1434 0.930 . S
C1442 C1441 1.362 . S
C1442 C1445 1.409 . S
C1443 H1435 0.930 . S
C1443 C1444 1.355 . S
C1443 C1445 1.415 . S
C1444 C1443 1.355 . S
C1444 C1446 1.419 1_565 S
C1445 C1440 1.425 1_565 S
C1445 C1442 1.409 . S
C1445 C1443 1.415 . S
C1446 H1436 0.930 . S
C1446 C1444 1.419 1_545 S
C1446 C1447 1.362 . S
C1447 H1437 0.930 . S
C1447 C1440 1.409 . S
C1447 C1446 1.362 . S
H1448 C1454 0.930 . S
H1449 C1457 0.934 1_455 S
H1450 C1458 0.930 . S
H1451 C1459 0.930 . S
H1452 C1462 0.934 1_655 S
H1453 C1463 0.930 . S
C1454 H1448 0.930 . S
C1454 C1455 1.355 . S
C1454 C1456 1.415 . S
C1455 C1454 1.355 . S
C1455 C1457 1.416 . S
C1456 C1454 1.415 . S
C1456 C1461 1.425 1_655 S
C1456 C1463 1.409 . S
C1457 H1449 0.934 1_655 S
C1457 C1455 1.416 . S
C1457 C1458 1.361 1_655 S
C1458 H1450 0.930 . S
C1458 C1457 1.361 1_455 S
C1458 C1461 1.409 . S
C1459 H1451 0.930 . S
C1459 C1460 1.355 . S
C1459 C1461 1.415 . S
C1460 C1459 1.355 . S
C1460 C1462 1.416 . S
C1461 C1456 1.425 1_455 S
C1461 C1458 1.409 . S
C1461 C1459 1.415 . S
C1462 H1452 0.934 1_455 S
C1462 C1460 1.416 . S
C1462 C1463 1.361 1_455 S
C1463 H1453 0.930 . S
C1463 C1456 1.409 . S
C1463 C1462 1.361 1_655 S
H1464 C1470 0.930 . S
H1465 C1473 0.930 . S
H1466 C1474 0.930 . S
H1467 C1475 0.930 . S
H1468 C1478 0.930 . S
H1469 C1479 0.930 . S
C1470 H1464 0.930 . S
C1470 C1471 1.355 . S
C1470 C1472 1.415 . S
C1471 C1470 1.355 . S
C1471 C1473 1.419 . S
C1472 C1470 1.415 . S
C1472 C1477 1.425 . S
C1472 C1479 1.409 . S
C1473 H1465 0.930 . S
C1473 C1471 1.419 . S
C1473 C1474 1.362 . S
C1474 H1466 0.930 . S
C1474 C1473 1.362 . S
C1474 C1477 1.409 . S
C1475 H1467 0.930 . S
C1475 C1476 1.355 . S
C1475 C1477 1.415 . S
C1476 C1475 1.355 . S
C1476 C1478 1.419 . S
C1477 C1472 1.425 . S
C1477 C1474 1.409 . S
C1477 C1475 1.415 . S
C1478 H1468 0.930 . S
C1478 C1476 1.419 . S
C1478 C1479 1.362 . S
C1479 H1469 0.930 . S
C1479 C1472 1.409 . S
C1479 C1478 1.362 . S
H1480 C1486 0.930 . S
H1481 C1489 0.930 . S
H1482 C1490 0.930 . S
H1483 C1491 0.930 . S
H1484 C1494 0.930 . S
H1485 C1495 0.930 . S
C1486 H1480 0.930 . S
C1486 C1487 1.355 . S
C1486 C1488 1.415 . S
C1487 C1486 1.355 . S
C1487 C1489 1.419 . S
C1488 C1486 1.415 . S
C1488 C1493 1.425 . S
C1488 C1495 1.409 . S
C1489 H1481 0.930 . S
C1489 C1487 1.419 . S
C1489 C1490 1.362 . S
C1490 H1482 0.930 . S
C1490 C1489 1.362 . S
C1490 C1493 1.409 . S
C1491 H1483 0.930 . S
C1491 C1492 1.355 . S
C1491 C1493 1.415 . S
C1492 C1491 1.355 . S
C1492 C1494 1.419 . S
C1493 C1488 1.425 . S
C1493 C1490 1.409 . S
C1493 C1491 1.415 . S
C1494 H1484 0.930 . S
C1494 C1492 1.419 . S
C1494 C1495 1.362 . S
C1495 H1485 0.930 . S
C1495 C1488 1.409 . S
C1495 C1494 1.362 . S
H1496 C1502 0.930 . S
H1497 C1505 0.930 . S
H1498 C1506 0.930 . S
H1499 C1507 0.930 . S
H1500 C1510 0.930 . S
H1501 C1511 0.930 . S
C1502 H1496 0.930 . S
C1502 C1503 1.355 . S
C1502 C1504 1.415 . S
C1503 C1502 1.355 . S
C1503 C1505 1.419 . S
C1504 C1502 1.415 . S
C1504 C1509 1.425 . S
C1504 C1511 1.409 . S
C1505 H1497 0.930 . S
C1505 C1503 1.419 . S
C1505 C1506 1.362 . S
C1506 H1498 0.930 . S
C1506 C1505 1.362 . S
C1506 C1509 1.409 . S
C1507 H1499 0.930 . S
C1507 C1508 1.355 . S
C1507 C1509 1.415 . S
C1508 C1507 1.355 . S
C1508 C1510 1.419 . S
C1509 C1504 1.425 . S
C1509 C1506 1.409 . S
C1509 C1507 1.415 . S
C1510 H1500 0.930 . S
C1510 C1508 1.419 . S
C1510 C1511 1.362 . S
C1511 H1501 0.930 . S
C1511 C1504 1.409 . S
C1511 C1510 1.362 . S
H1512 C1518 0.930 . S
H1513 C1521 0.930 . S
H1514 C1522 0.930 . S
H1515 C1523 0.930 . S
H1516 C1526 0.930 1_556 S
H1517 C1527 0.930 . S
C1518 H1512 0.930 . S
C1518 C1519 1.355 . S
C1518 C1520 1.415 . S
C1519 C1518 1.355 . S
C1519 C1521 1.419 . S
C1520 C1518 1.415 . S
C1520 C1525 1.425 . S
C1520 C1527 1.409 . S
C1521 H1513 0.930 . S
C1521 C1519 1.419 . S
C1521 C1522 1.362 . S
C1522 H1514 0.930 . S
C1522 C1521 1.362 . S
C1522 C1525 1.409 . S
C1523 H1515 0.930 . S
C1523 C1524 1.355 . S
C1523 C1525 1.415 . S
C1524 C1523 1.355 . S
C1524 C1526 1.419 . S
C1525 C1520 1.425 . S
C1525 C1522 1.409 . S
C1525 C1523 1.415 . S
C1526 H1516 0.930 1_554 S
C1526 C1524 1.419 . S
C1526 C1527 1.362 . S
C1527 H1517 0.930 . S
C1527 C1520 1.409 . S
C1527 C1526 1.362 . S
H1528 C1534 0.930 . S
H1529 C1537 0.930 . S
H1530 C1538 0.930 . S
H1531 C1539 0.930 . S
H1532 C1542 0.930 . S
H1533 C1543 0.930 . S
C1534 H1528 0.930 . S
C1534 C1535 1.355 . S
C1534 C1536 1.415 . S
C1535 C1534 1.355 . S
C1535 C1537 1.419 . S
C1536 C1534 1.415 . S
C1536 C1541 1.425 . S
C1536 C1543 1.409 . S
C1537 H1529 0.930 . S
C1537 C1535 1.419 . S
C1537 C1538 1.362 . S
C1538 H1530 0.930 . S
C1538 C1537 1.362 . S
C1538 C1541 1.409 . S
C1539 H1531 0.930 . S
C1539 C1540 1.355 . S
C1539 C1541 1.415 . S
C1540 C1539 1.355 . S
C1540 C1542 1.419 . S
C1541 C1536 1.425 . S
C1541 C1538 1.409 . S
C1541 C1539 1.415 . S
C1542 H1532 0.930 . S
C1542 C1540 1.419 . S
C1542 C1543 1.362 . S
C1543 H1533 0.930 . S
C1543 C1536 1.409 . S
C1543 C1542 1.362 . S
H1544 C1550 0.930 . S
H1545 C1553 0.930 . S
H1546 C1554 0.930 . S
H1547 C1555 0.930 . S
H1548 C1558 0.930 . S
H1549 C1559 0.930 . S
C1550 H1544 0.930 . S
C1550 C1551 1.355 . S
C1550 C1552 1.415 . S
C1551 C1550 1.355 . S
C1551 C1553 1.419 . S
C1552 C1550 1.415 . S
C1552 C1557 1.425 . S
C1552 C1559 1.409 . S
C1553 H1545 0.930 . S
C1553 C1551 1.419 . S
C1553 C1554 1.362 . S
C1554 H1546 0.930 . S
C1554 C1553 1.362 . S
C1554 C1557 1.409 . S
C1555 H1547 0.930 . S
C1555 C1556 1.355 . S
C1555 C1557 1.415 . S
C1556 C1555 1.355 . S
C1556 C1558 1.419 . S
C1557 C1552 1.425 . S
C1557 C1554 1.409 . S
C1557 C1555 1.415 . S
C1558 H1548 0.930 . S
C1558 C1556 1.419 . S
C1558 C1559 1.362 . S
C1559 H1549 0.930 . S
C1559 C1552 1.409 . S
C1559 C1558 1.362 . S
H1560 C1566 0.930 . S
H1561 C1569 0.930 . S
H1562 C1570 0.930 . S
H1563 C1571 0.930 . S
H1564 C1574 0.930 . S
H1565 C1575 0.930 . S
C1566 H1560 0.930 . S
C1566 C1567 1.355 . S
C1566 C1568 1.415 . S
C1567 C1566 1.355 . S
C1567 C1569 1.419 . S
C1568 C1566 1.415 . S
C1568 C1573 1.425 . S
C1568 C1575 1.409 . S
C1569 H1561 0.930 . S
C1569 C1567 1.419 . S
C1569 C1570 1.362 . S
C1570 H1562 0.930 . S
C1570 C1569 1.362 . S
C1570 C1573 1.409 . S
C1571 H1563 0.930 . S
C1571 C1572 1.355 . S
C1571 C1573 1.415 . S
C1572 C1571 1.355 . S
C1572 C1574 1.419 . S
C1573 C1568 1.425 . S
C1573 C1570 1.409 . S
C1573 C1571 1.415 . S
C1574 H1564 0.930 . S
C1574 C1572 1.419 . S
C1574 C1575 1.362 . S
C1575 H1565 0.930 . S
C1575 C1568 1.409 . S
C1575 C1574 1.362 . S
H1576 C1582 0.930 . S
H1577 C1585 0.930 1_554 S
H1578 C1586 0.930 . S
H1579 C1587 0.930 . S
H1580 C1590 0.930 . S
H1581 C1591 0.930 . S
C1582 H1576 0.930 . S
C1582 C1583 1.355 . S
C1582 C1584 1.415 . S
C1583 C1582 1.355 . S
C1583 C1585 1.419 . S
C1584 C1582 1.415 . S
C1584 C1589 1.425 . S
C1584 C1591 1.409 . S
C1585 H1577 0.930 1_556 S
C1585 C1583 1.419 . S
C1585 C1586 1.362 . S
C1586 H1578 0.930 . S
C1586 C1585 1.362 . S
C1586 C1589 1.409 . S
C1587 H1579 0.930 . S
C1587 C1588 1.355 . S
C1587 C1589 1.415 . S
C1588 C1587 1.355 . S
C1588 C1590 1.419 . S
C1589 C1584 1.425 . S
C1589 C1586 1.409 . S
C1589 C1587 1.415 . S
C1590 H1580 0.930 . S
C1590 C1588 1.419 . S
C1590 C1591 1.362 . S
C1591 H1581 0.930 . S
C1591 C1584 1.409 . S
C1591 C1590 1.362 . S
H1592 C1598 0.930 . S
H1593 C1601 0.930 . S
H1594 C1602 0.930 . S
H1595 C1603 0.930 . S
H1596 C1606 0.930 . S
H1597 C1607 0.930 . S
C1598 H1592 0.930 . S
C1598 C1599 1.355 . S
C1598 C1600 1.415 . S
C1599 C1598 1.355 . S
C1599 C1601 1.419 . S
C1600 C1598 1.415 . S
C1600 C1605 1.425 . S
C1600 C1607 1.409 . S
C1601 H1593 0.930 . S
C1601 C1599 1.419 . S
C1601 C1602 1.362 . S
C1602 H1594 0.930 . S
C1602 C1601 1.362 . S
C1602 C1605 1.409 . S
C1603 H1595 0.930 . S
C1603 C1604 1.355 . S
C1603 C1605 1.415 . S
C1604 C1603 1.355 . S
C1604 C1606 1.419 . S
C1605 C1600 1.425 . S
C1605 C1602 1.409 . S
C1605 C1603 1.415 . S
C1606 H1596 0.930 . S
C1606 C1604 1.419 . S
C1606 C1607 1.362 . S
C1607 H1597 0.930 . S
C1607 C1600 1.409 . S
C1607 C1606 1.362 . S
H1608 C1614 0.930 . S
H1609 C1617 0.930 . S
H1610 C1618 0.930 . S
H1611 C1619 0.930 . S
H1612 C1622 0.930 . S
H1613 C1623 0.930 . S
C1614 H1608 0.930 . S
C1614 C1615 1.355 . S
C1614 C1616 1.415 . S
C1615 C1614 1.355 . S
C1615 C1617 1.419 . S
C1616 C1614 1.415 . S
C1616 C1621 1.425 . S
C1616 C1623 1.409 . S
C1617 H1609 0.930 . S
C1617 C1615 1.419 . S
C1617 C1618 1.362 . S
C1618 H1610 0.930 . S
C1618 C1617 1.362 . S
C1618 C1621 1.409 . S
C1619 H1611 0.930 . S
C1619 C1620 1.355 . S
C1619 C1621 1.415 . S
C1620 C1619 1.355 . S
C1620 C1622 1.419 . S
C1621 C1616 1.425 . S
C1621 C1618 1.409 . S
C1621 C1619 1.415 . S
C1622 H1612 0.930 . S
C1622 C1620 1.419 . S
C1622 C1623 1.362 . S
C1623 H1613 0.930 . S
C1623 C1616 1.409 . S
C1623 C1622 1.362 . S
H1624 C1630 0.930 . S
H1625 C1633 0.930 . S
H1626 C1634 0.930 . S
H1627 C1635 0.930 . S
H1628 C1638 0.930 . S
H1629 C1639 0.930 . S
C1630 H1624 0.930 . S
C1630 C1631 1.355 . S
C1630 C1632 1.415 . S
C1631 C1630 1.355 . S
C1631 C1633 1.419 . S
C1632 C1630 1.415 . S
C1632 C1637 1.425 . S
C1632 C1639 1.409 . S
C1633 H1625 0.930 . S
C1633 C1631 1.419 . S
C1633 C1634 1.362 . S
C1634 H1626 0.930 . S
C1634 C1633 1.362 . S
C1634 C1637 1.409 . S
C1635 H1627 0.930 . S
C1635 C1636 1.355 . S
C1635 C1637 1.415 . S
C1636 C1635 1.355 . S
C1636 C1638 1.419 . S
C1637 C1632 1.425 . S
C1637 C1634 1.409 . S
C1637 C1635 1.415 . S
C1638 H1628 0.930 . S
C1638 C1636 1.419 . S
C1638 C1639 1.362 . S
C1639 H1629 0.930 . S
C1639 C1632 1.409 . S
C1639 C1638 1.362 . S
H1640 C1646 0.930 . S
H1641 C1649 0.930 . S
H1642 C1650 0.930 . S
H1643 C1651 0.930 . S
H1644 C1654 0.930 . S
H1645 C1655 0.930 . S
C1646 H1640 0.930 . S
C1646 C1647 1.355 . S
C1646 C1648 1.415 . S
C1647 C1646 1.355 . S
C1647 C1649 1.419 . S
C1648 C1646 1.415 . S
C1648 C1653 1.425 . S
C1648 C1655 1.409 . S
C1649 H1641 0.930 . S
C1649 C1647 1.419 . S
C1649 C1650 1.362 . S
C1650 H1642 0.930 . S
C1650 C1649 1.362 . S
C1650 C1653 1.409 . S
C1651 H1643 0.930 . S
C1651 C1652 1.355 . S
C1651 C1653 1.415 . S
C1652 C1651 1.355 . S
C1652 C1654 1.419 . S
C1653 C1648 1.425 . S
C1653 C1650 1.409 . S
C1653 C1651 1.415 . S
C1654 H1644 0.930 . S
C1654 C1652 1.419 . S
C1654 C1655 1.362 . S
C1655 H1645 0.930 . S
C1655 C1648 1.409 . S
C1655 C1654 1.362 . S
C511 C232 1.198 . S
C516 C8 1.191 . S
C527 C246 1.172 . S
C532 C22 1.185 . S
C543 C36 1.172 . S
C548 C218 1.188 . S
C559 C372 1.199 . S
C564 C50 1.185 . S
C575 C344 1.173 . S
C580 C64 1.181 . S
C591 C78 1.177 . S
C596 C358 1.175 . S
C607 C484 1.195 . S
C612 C92 1.176 . S
C623 C498 1.180 . S
C628 C106 1.198 . S
C639 C470 1.199 . S
C644 C120 1.184 . S
C655 C288 1.191 . S
C660 C134 1.173 . S
C671 C148 1.175 . S
C676 C260 1.194 . S
C687 C274 1.188 . S
C692 C162 1.172 . S
C703 C400 1.198 . S
C708 C176 1.181 . S
C719 C190 1.172 . S
C724 C414 1.185 . S
C735 C386 1.194 . S
C740 C204 1.195 . S
C751 C456 1.198 . S
C756 C302 1.189 . S
C767 C428 1.185 . S
C772 C316 1.172 . S
C783 C330 1.174 . S
C788 C442 1.180 . S
C799 C101 1.546 . S
C804 C7 1.560 . S
C815 C115 1.561 . S
C820 C21 1.530 . S
C831 C87 1.546 . S
C836 C35 1.557 . S
C847 C49 1.547 . S
C852 C157 1.550 . S
C863 C129 1.562 . S
C868 C63 1.526 . S
C879 C77 1.543 . S
C884 C143 1.552 . S
C895 C17 1.552 . S
C900 C91 1.550 . S
C911 C105 1.525 . S
C916 C31 1.562 . S
C927 C3 1.548 . S
C932 C119 1.552 . S
C943 C73 1.559 . S
C948 C133 1.535 . S
C959 C45 1.563 . S
C964 C147 1.522 . S
C975 C161 1.555 . S
C980 C59 1.547 . S
C991 C175 1.527 . S
C996 C269 1.562 . S
C1007 C283 1.546 . S
C1012 C189 1.560 . S
C1023 C255 1.551 . S
C1028 C203 1.545 . S
C1039 C217 1.554 . S
C1044 C325 1.547 . S
C1055 C297 1.560 . S
C1060 C231 1.532 . S
C1071 C245 1.522 . S
C1076 C311 1.563 . S
C1087 C259 1.539 . S
C1092 C185 1.553 . S
C1103 C273 1.523 . S
C1108 C199 1.563 . S
C1119 C171 1.550 . S
C1124 C287 1.548 . S
C1135 C241 1.551 . S
C1140 C301 1.544 . S
C1151 C213 1.552 . S
C1156 C315 1.550 . S
C1167 C329 1.523 . S
C1172 C227 1.563 . S
C1183 C437 1.546 . S
C1188 C343 1.560 . S
C1199 C357 1.525 . S
C1204 C451 1.561 . S
C1215 C371 1.540 . S
C1220 C423 1.553 . S
C1231 C493 1.558 . S
C1236 C385 1.529 . S
C1247 C399 1.545 . S
C1252 C465 1.554 . S
C1263 C479 1.558 . S
C1268 C413 1.531 . S
C1279 C353 1.547 . S
C1284 C427 1.559 . S
C1295 C367 1.560 . S
C1300 C441 1.526 . S
C1311 C455 1.530 . S
C1316 C339 1.558 . S
C1327 C469 1.522 . S
C1332 C409 1.563 . S
C1343 C381 1.546 . S
C1348 C483 1.558 . S
C1359 C395 1.563 . S
C1364 C497 1.523 . S
C1375 C9 1.550 . S
C1380 C51 1.561 . S
C1391 C23 1.543 . S
C1396 C65 1.535 . S
C1407 C79 1.564 . S
C1412 C37 1.546 . S
C1423 C93 1.566 . S
C1428 C135 1.540 . S
C1439 C149 1.538 . S
C1444 C107 1.540 . S
C1455 C163 1.565 . S
C1460 C121 1.531 . S
C1471 C177 1.552 . S
C1476 C219 1.530 . S
C1487 C191 1.533 . S
C1492 C233 1.546 . S
C1503 C247 1.559 . S
C1508 C205 1.553 . S
C1519 C261 1.534 . S
C1524 C303 1.545 1_554 S
C1535 C275 1.528 . S
C1540 C317 1.560 1_554 S
C1551 C289 1.551 . S
C1556 C331 1.561 1_554 S
C1567 C387 1.553 1_556 S
C1572 C345 1.559 . S
C1583 C401 1.549 1_556 S
C1588 C359 1.531 . S
C1599 C415 1.558 1_556 S
C1604 C373 1.555 . S
C1615 C429 1.565 . S
C1620 C471 1.531 . S
C1631 C485 1.545 . S
C1636 C443 1.564 . S
C1647 C499 1.560 . S
C1652 C457 1.553 . S
