# Generated by pormake.
# Topology snp, (6)-cn, num edge types: 1
# Building blocks:
#     Node 0, Type 0, BuildingBlock: CUWYAW_clean_sbu_0, # of connection points: 6
#     Node 1, Type 0, BuildingBlock: CUWYAW_clean_sbu_0, # of connection points: 6
#     Node 2, Type 0, BuildingBlock: CUWYAW_clean_sbu_0, # of connection points: 6
#     Node 3, Type 0, BuildingBlock: CUWYAW_clean_sbu_0, # of connection points: 6
#     Edge 4, Type (0, 0), BuildingBlock: UVAHIK_clean_linker_0, # of connection points: 2
#     Edge 5, Type (0, 0), BuildingBlock: UVAHIK_clean_linker_0, # of connection points: 2
#     Edge 6, Type (0, 0), BuildingBlock: UVAHIK_clean_linker_0, # of connection points: 2
#     Edge 7, Type (0, 0), BuildingBlock: UVAHIK_clean_linker_0, # of connection points: 2
#     Edge 8, Type (0, 0), BuildingBlock: UVAHIK_clean_linker_0, # of connection points: 2
#     Edge 9, Type (0, 0), BuildingBlock: UVAHIK_clean_linker_0, # of connection points: 2
#     Edge 10, Type (0, 0), BuildingBlock: UVAHIK_clean_linker_0, # of connection points: 2
#     Edge 11, Type (0, 0), BuildingBlock: UVAHIK_clean_linker_0, # of connection points: 2
#     Edge 12, Type (0, 0), BuildingBlock: UVAHIK_clean_linker_0, # of connection points: 2
#     Edge 13, Type (0, 0), BuildingBlock: UVAHIK_clean_linker_0, # of connection points: 2
#     Edge 14, Type (0, 0), BuildingBlock: UVAHIK_clean_linker_0, # of connection points: 2
#     Edge 15, Type (0, 0), BuildingBlock: UVAHIK_clean_linker_0, # of connection points: 2
# Relax obj value: 0.296
# Max RMSD: 0.215
# Mean RMSD: 0.201
data_MOF--net-snp--node1-CUWYAW_clean_sbu_0--edge1-UVAHIK_clean_linker_0
_symmetry_space_group_name_H-M    P1
_symmetry_Int_Tables_number       1
_symmetry_cell_setting            triclinic
loop_
_symmetry_equiv_pos_as_xyz
'x, y, z'
_cell_length_a     33.493711
_cell_length_b     31.816135
_cell_length_c     41.135102
_cell_angle_alpha  93.802512
_cell_angle_beta   81.341075
_cell_angle_gamma 122.8036
loop_
_atom_site_label
_atom_site_type_symbol
_atom_site_fract_x
_atom_site_fract_y
_atom_site_fract_z
_atom_type_partial_charge
C0 C 0.23114 0.94727 0.15875 0.0
Eu1 Eu 0.24983 0.03193 0.18438 0.0
C2 C 0.23999 0.93019 0.12628 0.0
C3 C 0.26825 0.96482 0.10045 0.0
C4 C 0.27736 0.94853 0.0696 0.0
C5 C 0.25839 0.89735 0.06418 0.0
C6 C 0.23022 0.86282 0.09026 0.0
C7 C 0.22115 0.87922 0.12117 0.0
C8 C 0.18968 0.05452 0.21872 0.0
C9 C 0.2665 0.11533 0.13108 0.0
C10 C 0.3333 0.22848 0.22854 0.0
Eu11 Eu 0.29829 0.14007 0.20258 0.0
C12 C 0.3448 0.2495 0.26113 0.0
C13 C 0.37189 0.30143 0.26499 0.0
C14 C 0.38446 0.32151 0.29585 0.0
C15 C 0.3702 0.28979 0.32323 0.0
C16 C 0.34298 0.23773 0.31908 0.0
C17 C 0.33061 0.21788 0.28832 0.0
C18 C 0.35668 0.10995 0.1724 0.0
C19 C 0.26055 0.05442 0.26021 0.0
O20 O 0.26959 0.97754 0.17255 0.0
O21 O 0.20092 0.96179 0.16183 0.0
O22 O 0.18436 0.01111 0.22007 0.0
O23 O 0.22315 0.08241 0.19643 0.0
O24 O 0.26136 0.07146 0.13544 0.0
O25 O 0.27593 0.14726 0.15539 0.0
O26 O 0.28783 0.19775 0.22582 0.0
O27 O 0.35961 0.21221 0.21385 0.0
O28 O 0.36063 0.15099 0.16468 0.0
O29 O 0.32252 0.08726 0.19507 0.0
O30 O 0.27434 0.10069 0.25277 0.0
O31 O 0.25494 0.02167 0.23699 0.0
H32 H 0.28313 0.00439 0.10415 0.0
H33 H 0.2984 0.97589 1.04982 0.0
H34 H 0.21535 0.82322 0.08677 0.0
H35 H 0.19951 0.85219 0.14107 0.0
H36 H 0.38354 0.32641 0.24412 0.0
H37 H 0.40566 0.36176 0.29822 0.0
H38 H 0.33051 0.21219 0.33973 0.0
H39 H 0.31002 0.17783 0.28582 0.0
C40 C 0.1539 0.29927 0.73975 0.0
Eu41 Eu 0.1328 0.32455 0.68861 0.0
C42 C 0.16579 0.28446 0.76907 0.0
C43 C 0.20202 0.32042 0.78706 0.0
C44 C 0.21168 0.30673 0.8154 0.0
C45 C 0.18538 0.25656 0.8268 0.0
C46 C 0.14936 0.22061 0.8085 0.0
C47 C 0.13977 0.23432 0.78017 0.0
C48 C 0.14138 0.41192 0.67639 0.0
C49 C 0.03192 0.31462 0.6899 0.0
C50 C 0.06763 0.33985 0.56941 0.0
Eu51 Eu 0.09889 0.32958 0.62139 0.0
C52 C 0.05358 0.31638 0.53712 0.0
C53 C 0.04263 0.26765 0.53 0.0
C54 C 0.02751 0.24588 0.49967 0.0
C55 C 0.02288 0.27225 0.47568 0.0
C56 C 0.03419 0.32116 0.48311 0.0
C57 C 0.04936 0.34281 0.51329 0.0
C58 C 0.07777 0.23771 0.63965 0.0
C59 C 0.2038 0.35039 0.61956 0.0
O60 O 0.12177 0.26657 0.72165 0.0
O61 O 0.1755 0.34574 0.72946 0.0
O62 O 0.13559 0.39489 0.70571 0.0
O63 O 0.14769 0.38502 0.65489 0.0
O64 O 0.05586 0.30067 0.70435 0.0
O65 O 0.04643 0.33517 0.66009 0.0
O66 O 0.03976 0.31406 0.59583 0.0
O67 O 0.11305 0.36378 0.57296 0.0
O68 O 0.08933 0.25412 0.60952 0.0
O69 O 0.07873 0.27131 0.65768 0.0
O70 O 0.17696 0.361 0.60589 0.0
O71 O 0.19061 0.32912 0.64915 0.0
H72 H 0.22289 0.35939 0.77935 0.0
H73 H 0.2402 0.33565 0.82821 0.0
H74 H 0.12765 0.18176 0.81643 0.0
H75 H 0.11137 0.20554 0.76718 0.0
H76 H 0.0455 0.24633 0.54796 0.0
H77 H 0.0198 0.20848 0.49499 0.0
H78 H 0.03036 0.34262 0.46589 0.0
H79 H 0.0572 0.38025 0.51822 0.0
C80 C 0.84998 0.15947 0.05891 0.0
Eu81 Eu 0.83814 0.08262 0.0877 0.0
C82 C 0.83665 0.16568 1.02808 0.0
C83 C 0.83372 0.13474 1.00141 0.0
C84 C 0.81876 0.13899 0.97268 0.0
C85 C 0.80632 0.17421 0.97011 0.0
C86 C 0.80876 0.2048 0.99703 0.0
C87 C 0.8237 0.20042 1.02587 0.0
C88 C 0.89853 0.06156 0.10644 0.0
C89 C 0.81823 0.98954 1.03769 0.0
C90 C 0.74301 0.88963 0.14527 0.0
Eu91 Eu 0.78454 0.97607 0.11545 0.0
C92 C 0.74213 0.87081 0.17693 0.0
C93 C 0.70608 0.82183 0.18709 0.0
C94 C 0.7031 0.8045 0.21821 0.0
C95 C 0.73647 0.83594 0.23946 0.0
C96 C 0.77298 0.88493 0.22878 0.0
C97 C 0.77534 0.90234 0.19793 0.0
C98 C 0.72994 0.00861 0.09854 0.0
C99 C 0.83367 0.07024 0.16578 0.0
O100 O 0.81374 0.13212 0.08141 0.0
O101 O 0.88317 0.14899 0.05622 0.0
O102 O 0.90853 0.10682 0.10281 0.0
O103 O 0.86005 0.03006 0.09473 0.0
O104 O 0.82747 0.03573 1.04099 0.0
O105 O 0.80402 0.95982 0.06352 0.0
O106 O 0.78319 0.90871 0.12515 0.0
O107 O 0.72416 0.91654 0.14669 0.0
O108 O 0.72256 0.96497 0.09112 0.0
O109 O 0.76581 0.03233 0.11351 0.0
O110 O 0.81403 0.02168 0.16072 0.0
O111 O 0.84217 0.10154 0.142 0.0
H112 H 0.84323 0.10743 1.00267 0.0
H113 H 0.81825 0.11563 0.95215 0.0
H114 H 0.79926 0.23215 0.99574 0.0
H115 H 0.82506 0.22403 1.04646 0.0
H116 H 0.67974 0.79731 0.17121 0.0
H117 H 0.67409 0.76689 0.22582 0.0
H118 H 0.79982 0.90996 0.24419 0.0
H119 H 0.80267 0.94054 0.19059 0.0
C120 C 0.13361 0.8869 0.67591 0.0
Eu121 Eu 0.04738 0.86182 0.66977 0.0
C122 C 0.1546 0.87714 0.70074 0.0
C123 C 0.12974 0.86167 0.73254 0.0
C124 C 0.14876 0.85025 0.75585 0.0
C125 C 0.19273 0.85359 0.74762 0.0
C126 C 0.21724 0.86859 0.71552 0.0
C127 C 0.19821 0.88024 0.69221 0.0
C128 C 0.00585 0.9143 0.6702 0.0
C129 C -0.03759 0.82733 0.72846 0.0
C130 C 0.85822 0.76074 0.64028 0.0
Eu131 Eu 0.94704 0.803 0.6503 0.0
C132 C 0.83713 0.75176 0.60995 0.0
C133 C 0.78774 0.71869 0.60956 0.0
C134 C 0.76852 0.70991 0.58006 0.0
C135 C 0.7987 0.73392 0.55074 0.0
C136 C 0.84809 0.76726 0.55152 0.0
C137 C 0.86707 0.77597 0.58081 0.0
C138 C -0.00984 0.75175 0.65039 0.0
C139 C 0.03353 0.85944 0.5915 0.0
O140 O 0.10435 0.8473 0.66019 0.0
O141 O 0.11723 0.91577 0.68467 0.0
O142 O 0.03677 0.9236 0.68973 0.0
O143 O 0.00344 0.88251 0.64934 0.0
O144 O 0.00707 0.83861 0.72113 0.0
O145 O 0.93443 0.81496 0.70531 0.0
O146 O 0.8852 0.80774 0.64771 0.0
O147 O 0.87799 0.73568 0.64355 0.0
O148 O -0.03452 0.74807 0.62774 0.0
O149 O -0.00953 0.78159 0.6723 0.0
O150 O -0.01321 0.83841 0.60015 0.0
O151 O 0.06215 0.86863 0.61364 0.0
H152 H 0.09566 0.8585 0.73935 0.0
H153 H 0.12942 0.83978 0.78051 0.0
H154 H 0.25095 0.87109 0.7084 0.0
H155 H 0.21733 0.89138 0.66751 0.0
H156 H 0.76422 0.69966 0.63195 0.0
H157 H 0.73031 0.68409 0.58009 0.0
H158 H 0.87213 0.78732 0.52954 0.0
H159 H 0.90521 0.80184 0.58069 0.0
C160 C 0.95697 0.09282 0.14554 0.0
C161 C 0.91812 0.05163 0.13255 0.0
C162 C -0.03096 0.08875 0.17543 0.0
C163 C -0.02001 0.08244 0.24424 0.0
H164 H 0.0024 0.97624 0.24982 0.0
C165 C 0.15205 0.10448 0.22902 0.0
C166 C 0.15646 0.06587 0.2384 0.0
C167 C 0.11166 0.10556 0.24206 0.0
C168 C -0.00481 0.00557 0.24981 0.0
H169 H 0.86482 0.97262 0.13876 0.0
H170 H 0.88616 0.96486 0.19155 0.0
H171 H 0.94512 0.96572 0.21595 0.0
H172 H 0.12826 0.00442 0.27304 0.0
H173 H 0.05698 0.00541 0.29496 0.0
H174 H 0.03609 0.12519 0.27403 0.0
C175 C 0.90616 0.00086 0.17899 0.0
C176 C -0.03785 -0.0005 0.2301 0.0
C177 C 0.89423 0.00501 0.14864 0.0
C178 C 0.12446 0.03347 0.26459 0.0
C179 C 0.08411 0.0345 0.27758 0.0
C180 C 0.01413 0.08908 0.26321 0.0
C181 C 0.94271 0.04324 0.19323 0.0
C182 C 0.95823 0.04001 0.22439 0.0
C183 C 0.07533 0.0677 0.26426 0.0
C184 C 0.02542 0.05259 0.26312 0.0
H185 H -0.02308 0.12915 0.13331 0.0
H186 H -0.00064 0.1216 0.18443 0.0
H187 H -0.02442 0.1133 0.24169 0.0
H188 H 0.17702 0.13058 0.20939 0.0
H189 H 0.106 0.13183 0.23136 0.0
C190 C 0.93711 0.9157 0.65638 0.0
C191 C -0.0338 0.9219 0.67961 0.0
C192 C 0.89827 0.92096 0.66525 0.0
C193 C 0.87149 -0.00624 0.72974 0.0
H194 H 0.87449 0.03314 0.64236 0.0
C195 C 0.03363 0.16328 0.67613 0.0
C196 C 0.03654 0.18725 0.64783 0.0
C197 C -0.01027 0.12265 0.6899 0.0
C198 C 0.87331 0.02345 0.66735 0.0
H199 H -0.02458 0.93392 0.73107 0.0
H200 H 0.90876 0.94385 0.74685 0.0
H201 H 0.83173 0.94568 0.65743 0.0
H202 H -0.00394 0.18952 0.61226 0.0
H203 H 0.91926 0.11857 0.63621 0.0
H204 H 0.91163 0.07168 0.74081 0.0
C205 C 0.91545 0.93594 0.72138 0.0
C206 C 0.84926 0.97286 0.67594 0.0
C207 C 0.95442 0.93077 0.71236 0.0
C208 C -0.00503 0.17004 0.63335 0.0
C209 C 0.95079 0.13002 0.64747 0.0
C210 C 0.89435 0.04455 0.72215 0.0
C211 C 0.88847 0.93464 0.69752 0.0
C212 C 0.86085 0.9599 0.70362 0.0
C213 C 0.94747 0.10599 0.67612 0.0
C214 C 0.90217 0.05952 0.68917 0.0
H215 H 0.94482 0.90743 0.63108 0.0
H216 H 0.87831 0.91733 0.64581 0.0
H217 H 0.87195 0.98357 0.75417 0.0
H218 H 0.06504 0.17698 0.68819 0.0
H219 H -0.01075 0.10416 0.71125 0.0
C220 C 0.65096 0.99074 0.08606 0.0
C221 C 0.69285 0.0209 0.10075 0.0
C222 C 0.61409 0.0001 0.09114 0.0
C223 C 0.56301 0.05369 0.15182 0.0
H224 H 0.50022 0.05921 0.08178 0.0
C225 C 0.39135 0.05859 0.17769 0.0
C226 C 0.39232 0.09641 0.16109 0.0
C227 C 0.42674 0.04774 0.16868 0.0
C228 C 0.51749 0.05779 0.10156 0.0
H229 H 0.72949 0.0852 0.13161 0.0
H230 H 0.66514 0.101 0.14074 0.0
H231 H 0.56541 0.04421 0.06862 0.0
H232 H 0.4301 0.1514 0.12138 0.0
H233 H 0.49174 0.13179 0.10518 0.0
H234 H 0.51513 0.06691 0.1848 0.0
C235 C 0.66069 0.07016 0.12534 0.0
C236 C 0.55452 0.0489 0.09405 0.0
C237 C 0.69767 0.06127 0.11991 0.0
C238 C 0.42857 0.12213 0.13462 0.0
C239 C 0.46367 0.11077 0.12529 0.0
C240 C 0.52557 0.06175 0.15936 0.0
C241 C 0.61823 0.03931 0.1114 0.0
C242 C 0.57795 0.04723 0.1191 0.0
C243 C 0.46354 0.07398 0.14257 0.0
C244 C 0.50258 0.06421 0.13431 0.0
H245 H 0.64628 0.95934 0.07122 0.0
H246 H 0.58169 0.97564 0.08016 0.0
H247 H 0.58011 0.05216 0.17168 0.0
H248 H 0.36381 0.03807 0.19818 0.0
H249 H 0.42542 0.01887 0.18225 0.0
C250 C 0.13063 0.48098 0.69654 0.0
C251 C 0.13341 0.45184 0.67021 0.0
C252 C 0.1196 0.51648 0.6921 0.0
C253 C 0.05672 0.5453 0.6414 0.0
H254 H 0.12508 0.67644 0.68011 0.0
C255 C 0.01107 0.69214 0.62417 0.0
C256 C 0.01151 0.72171 0.65117 0.0
C257 C 0.02918 0.66176 0.6249 0.0
C258 C 0.10522 0.63979 0.66948 0.0
H259 H 0.12719 0.43709 0.61849 0.0
H260 H 0.10719 0.49915 0.61066 0.0
H261 H 0.15137 0.61899 0.68354 0.0
H262 H 0.03204 0.74361 0.69991 0.0
H263 H 0.06272 0.68949 0.70168 0.0
H264 H 0.00961 0.56516 0.62821 0.0
C265 C 0.11379 0.49449 0.63474 0.0
C266 C 0.12048 0.60699 0.67129 0.0
C267 C 0.1255 0.45927 0.63913 0.0
C268 C 0.03122 0.72107 0.67878 0.0
C269 C 0.04906 0.69029 0.67964 0.0
C270 C 0.04117 0.5779 0.63984 0.0
C271 C 0.11057 0.52333 0.66127 0.0
C272 C 0.09625 0.5593 0.65743 0.0
C273 C 0.04786 0.65985 0.65279 0.0
C274 C 0.06509 0.62554 0.65397 0.0
H275 H 0.13634 0.47587 0.72083 0.0
H276 H 0.11678 0.53761 0.71309 0.0
H277 H 0.03688 0.5085 0.63094 0.0
H278 H -0.00352 0.69227 0.60242 0.0
H279 H 0.0286 0.63982 0.60348 0.0
C280 C 0.26952 0.39603 0.57373 0.0
C281 C 0.24882 0.36083 0.59969 0.0
C282 C 0.3059 0.39943 0.55043 0.0
C283 C 0.38475 0.40342 0.50254 0.0
H284 H 0.33875 0.26911 0.47132 0.0
C285 C 0.37659 0.35015 0.36767 0.0
C286 C 0.38149 0.31031 0.35641 0.0
C287 C 0.38043 0.36473 0.4004 0.0
C288 C 0.35314 0.30695 0.47994 0.0
H289 H 0.2532 0.30511 0.62366 0.0
H290 H 0.31724 0.31093 0.58263 0.0
H291 H 0.31069 0.28089 0.52689 0.0
H292 H 0.3984 0.25743 0.36988 0.0
H293 H 0.40422 0.28239 0.42726 0.0
H294 H 0.42415 0.42898 0.45437 0.0
C295 C 0.30476 0.33549 0.58015 0.0
C296 C 0.33714 0.31376 0.51197 0.0
C297 C 0.26828 0.33227 0.60369 0.0
C298 C 0.39337 0.28753 0.37803 0.0
C299 C 0.39699 0.30197 0.4108 0.0
C300 C 0.40046 0.39655 0.47037 0.0
C301 C 0.32242 0.36755 0.55247 0.0
C302 C 0.35075 0.36192 0.52305 0.0
C303 C 0.38913 0.33969 0.42255 0.0
C304 C 0.38294 0.34811 0.45831 0.0
H305 H 0.25577 0.41918 0.57032 0.0
H306 H 0.31819 0.42428 0.52942 0.0
H307 H 0.39671 0.44108 0.5106 0.0
H308 H 0.36702 0.36818 0.35174 0.0
H309 H 0.37347 0.39345 0.40882 0.0
C310 C 0.94433 0.25495 0.699 0.0
C311 C -0.01544 0.3008 0.70618 0.0
C312 C 0.90045 0.236 0.71913 0.0
C313 C 0.83721 0.26483 0.79069 0.0
H314 H 0.81029 0.14106 0.82652 0.0
C315 C 0.81773 0.23039 0.92537 0.0
C316 C 0.79533 0.18181 0.93829 0.0
C317 C 0.81618 0.23779 0.89269 0.0
C318 C 0.81562 0.17463 0.8165 0.0
H319 H 0.01115 0.36452 0.73802 0.0
H320 H 0.9345 0.33183 0.77335 0.0
H321 H 0.85513 0.16964 0.7723 0.0
H322 H 0.74907 0.10295 0.92848 0.0
H323 H 0.74632 0.11588 0.87118 0.0
H324 H 0.80044 0.27141 0.83606 0.0
C325 C 0.93618 0.31063 0.75205 0.0
C326 C 0.84154 0.19112 0.78524 0.0
C327 C -0.0199 0.32927 0.73211 0.0
C328 C 0.76751 0.14083 0.91887 0.0
C329 C 0.76581 0.14823 0.88614 0.0
C330 C 0.81089 0.24812 0.82191 0.0
C331 C 0.89646 0.26288 0.74659 0.0
C332 C 0.85539 0.23803 0.77306 0.0
C333 C 0.79211 0.19674 0.87225 0.0
C334 C 0.80292 0.2047 0.83604 0.0
H335 H 0.94761 0.2324 0.67913 0.0
H336 H 0.87048 0.19912 0.71443 0.0
H337 H 0.84668 0.30069 0.78153 0.0
H338 H 0.8397 0.26271 0.93963 0.0
H339 H 0.83746 0.27568 0.88284 0.0
C340 C 0.80499 0.72279 0.49001 0.0
C341 C 0.77947 0.72638 0.51932 0.0
C342 C 0.79274 0.72551 0.45973 0.0
C343 C 0.70341 0.71617 0.41469 0.0
H344 H 0.81145 0.83154 0.36527 0.0
C345 C 0.71963 0.76846 0.27801 0.0
C346 C 0.7332 0.81804 0.27271 0.0
C347 C 0.71884 0.75253 0.30905 0.0
C348 C 0.78106 0.7993 0.37887 0.0
H349 H 0.71868 0.73134 0.54005 0.0
H350 H 0.69662 0.73511 0.48664 0.0
H351 H 0.82092 0.80774 0.41745 0.0
H352 H 0.75412 0.88889 0.29638 0.0
H353 H 0.75483 0.86148 0.35009 0.0
H354 H 0.66387 0.70755 0.37552 0.0
C355 C 0.72627 0.73055 0.48739 0.0
C356 C 0.78653 0.78551 0.40847 0.0
C357 C 0.73885 0.72832 0.51783 0.0
C358 C 0.74473 0.85087 0.29933 0.0
C359 C 0.7447 0.83517 0.33014 0.0
C360 C 0.69818 0.72946 0.38461 0.0
C361 C 0.75436 0.73113 0.45823 0.0
C362 C 0.74779 0.74395 0.42659 0.0
C363 C 0.73227 0.78611 0.33508 0.0
C364 C 0.73696 0.77134 0.3667 0.0
H365 H 0.83582 0.72014 0.49048 0.0
H366 H 0.81449 0.72534 0.43743 0.0
H367 H 0.67315 0.68407 0.42846 0.0
H368 H 0.71108 0.74235 0.258 0.0
H369 H 0.70961 0.71463 0.31239 0.0
C370 C 0.26279 0.87661 0.77609 0.0
C371 C 0.21386 0.84426 0.77321 0.0
C372 C 0.28092 0.87334 0.80356 0.0
C373 C 0.29273 0.88977 0.87506 0.0
H374 H 0.23934 0.77062 0.92883 0.0
C375 C 0.31074 0.9072 1.01125 0.0
C376 C 0.2659 0.88021 1.03087 0.0
C377 C 0.31591 0.89565 0.97821 0.0
C378 C 0.25493 0.80416 0.91394 0.0
H379 H 0.14671 0.77982 0.79497 0.0
H380 H 0.17767 0.77549 0.84349 0.0
H381 H 0.22875 0.76249 0.87073 0.0
H382 H 0.1921 0.81813 1.03193 0.0
H383 H 0.20102 0.79814 0.97424 0.0
H384 H 0.31683 0.93141 0.91839 0.0
C385 C 0.20234 0.80305 0.82451 0.0
C386 C 0.24883 0.79955 0.88076 0.0
C387 C 0.18434 0.80603 0.79693 0.0
C388 C 0.22717 0.83932 1.01746 0.0
C389 C 0.23235 0.82776 0.98443 0.0
C390 C 0.29903 0.89435 0.90807 0.0
C391 C 0.25037 0.83798 0.82877 0.0
C392 C 0.26602 0.8423 0.86133 0.0
C393 C 0.27634 0.85691 0.96423 0.0
C394 C 0.27861 0.85159 0.92813 0.0
H395 H 0.2865 0.90646 0.75822 0.0
H396 H 0.31829 0.90023 0.80588 0.0
H397 H 0.30578 0.9235 0.86105 0.0
H398 H 0.34142 0.93833 1.02118 0.0
H399 H 0.35036 0.91832 0.96325 0.0
C400 C 0.8143 0.92139 1.00062 0.0
C401 C 0.82809 0.97164 1.00466 0.0
C402 C 0.82727 0.90499 0.97078 0.0
C403 C 0.9165 0.95067 0.89504 0.0
H404 H 0.82867 0.81908 0.86286 0.0
C405 C -0.0231 0.86195 0.78571 0.0
C406 C 0.94517 0.83644 0.76232 0.0
C407 C -0.03772 0.8774 0.81548 0.0
C408 C 0.85369 0.85606 0.87131 0.0
H409 H 0.86608 0.04382 0.9797 0.0
H410 H 0.88846 0.01513 0.92754 0.0
H411 H 0.80294 0.84909 0.91259 0.0
H412 H 0.8726 0.80664 0.75263 0.0
H413 H 0.84731 0.83304 0.80417 0.0
H414 H -0.03291 0.95777 0.85347 0.0
C415 C 0.86783 0.98843 0.94771 0.0
C416 C 0.83902 0.87316 0.90013 0.0
C417 C 0.85453 0.00482 0.97759 0.0
C418 C 0.89804 0.8256 0.77005 0.0
C419 C 0.88342 0.84084 0.79978 0.0
C420 C 0.93129 0.93342 0.86628 0.0
C421 C 0.85473 0.9383 0.94392 0.0
C422 C 0.87016 0.92073 0.91252 0.0
C423 C 0.91544 0.8676 0.82281 0.0
C424 C 0.90011 0.88581 0.85393 0.0
H425 H 0.79409 0.89461 1.0208 0.0
H426 H 0.81685 0.8663 0.96912 0.0
H427 H 0.94176 0.98727 0.90387 0.0
H428 H 0.0136 0.87152 0.78062 0.0
H429 H -0.01213 0.89734 0.83269 0.0
C430 C 0.23434 0.06511 0.31927 0.0
C431 C 0.24309 0.03643 0.29517 0.0
C432 C 0.21205 0.04565 0.35112 0.0
C433 C 0.18281 0.94562 0.40991 0.0
H434 H 0.08718 0.97175 0.45268 0.0
C435 C 0.1048 0.89609 0.54727 0.0
C436 C 0.05566 0.87683 0.55682 0.0
C437 C 0.12664 0.9143 0.51521 0.0
C438 C 0.11349 0.96371 0.44103 0.0
H439 H 0.23554 0.96469 0.28621 0.0
H440 H 0.19704 0.93096 0.34162 0.0
H441 H 0.12793 0.00624 0.39764 0.0
H442 H -0.00897 0.86161 0.5396 0.0
H443 H 0.02921 0.89332 0.48351 0.0
H444 H 0.16807 0.90267 0.45305 0.0
C445 C 0.20777 0.96876 0.336 0.0
C446 C 0.13737 0.98407 0.40956 0.0
C447 C 0.22987 0.98814 0.30411 0.0
C448 C 0.0289 0.87605 0.5332 0.0
C449 C 0.05091 0.89461 0.50106 0.0
C450 C 0.15913 0.9255 0.44139 0.0
C451 C 0.19793 -0.00304 0.35988 0.0
C452 C 0.17248 0.97541 0.39354 0.0
C453 C 0.10016 0.91404 0.49161 0.0
C454 C 0.12423 0.93435 0.4575 0.0
H455 H 0.24319 0.10209 0.31333 0.0
H456 H 0.20569 0.0688 0.36887 0.0
H457 H 0.20979 0.93835 0.39857 0.0
H458 H 0.12675 0.89749 0.56465 0.0
H459 H 0.16469 0.92953 0.50912 0.0
C460 C 0.20869 0.27396 0.88473 0.0
C461 C 0.19504 0.24187 0.85762 0.0
C462 C 0.21719 0.26007 0.91351 0.0
C463 C 0.19376 0.14852 0.95913 0.0
H464 H 0.29434 0.24886 1.0074 0.0
C465 C 0.24751 0.09606 0.0721 0.0
C466 C 0.26028 0.1291 0.0987 0.0
C467 C 0.24037 0.10922 1.04235 0.0
C468 C 0.26565 0.22023 0.99457 0.0
H469 H 0.18084 0.16976 0.84016 0.0
H470 H 0.1954 0.14571 0.88998 0.0
H471 H 0.28024 0.27271 0.95733 0.0
H472 H 0.27553 0.20237 0.11416 0.0
H473 H 0.26287 0.2248 0.0631 0.0
H474 H 0.17909 0.09608 0.99649 0.0
C475 C 0.19879 0.18147 0.88926 0.0
C476 C 0.2575 0.23404 0.96563 0.0
C477 C 0.19037 0.19539 0.86046 0.0
C478 C 0.26596 0.17576 0.09442 0.0
C479 C 0.25894 0.18889 0.06479 0.0
C480 C 0.20189 0.1347 0.98812 0.0
C481 C 0.21234 0.21351 0.91637 0.0
C482 C 0.22131 0.19851 0.94736 0.0
C483 C 0.24591 0.15593 1.03815 0.0
C484 C 0.23789 0.17033 1.0065 0.0
H485 H 0.21196 0.30966 0.88408 0.0
H486 H 0.22673 0.28568 0.93382 0.0
H487 H 0.16504 0.11996 0.94629 0.0
H488 H 0.24277 0.05983 0.07427 0.0
H489 H 0.23095 0.08283 1.02249 0.0
C490 C 0.88349 0.14184 0.20238 0.0
C491 C 0.85146 0.0903 0.19815 0.0
C492 C 0.90308 0.15999 0.23195 0.0
C493 C 0.88293 0.12727 0.32064 0.0
H494 H 0.01699 0.23249 0.3185 0.0
C495 C -0.02909 0.19772 0.44111 0.0
C496 C 0.00578 0.24911 0.44332 0.0
C497 C 0.95355 0.17689 0.41118 0.0
C498 C -0.02071 0.20358 0.31977 0.0
H499 H 0.81542 0.01757 0.22223 0.0
H500 H 0.84898 0.04916 0.27359 0.0
H501 H -0.01626 0.20014 0.26712 0.0
H502 H 0.05066 0.31808 0.41455 0.0
H503 H 0.01949 0.28256 0.36324 0.0
H504 H 0.87797 0.13123 0.37316 0.0
C505 C 0.8587 0.07571 0.25414 0.0
C506 C -0.03981 0.1849 0.29011 0.0
C507 C 0.83947 0.05755 0.22451 0.0
C508 C 0.02325 0.27862 0.41433 0.0
C509 C 0.00575 0.25789 0.3845 0.0
C510 C 0.90189 0.14626 0.35031 0.0
C511 C 0.89094 0.12722 0.25833 0.0
C512 C 0.91164 0.14661 0.29005 0.0
C513 C -0.02969 0.20669 0.38235 0.0
C514 C 0.95039 0.185 0.35048 0.0
H515 H 0.89419 0.16825 0.18261 0.0
H516 H 0.92751 0.1999 0.23424 0.0
H517 H 0.84529 0.09815 0.32171 0.0
H518 H 0.95608 0.17352 0.4627 0.0
H519 H 0.92692 0.13721 0.41074 0.0
loop_
_geom_bond_atom_site_label_1
_geom_bond_atom_site_label_2
_geom_bond_distance
_geom_bond_site_symmetry_2
_ccdc_geom_bond_type
C0 Eu1 2.835 . S
C0 C2 1.500 . S
C0 O20 1.257 . S
C0 O21 1.260 . S
Eu1 C0 2.835 . S
Eu1 O20 2.473 . S
Eu1 O21 2.480 . S
Eu1 O22 2.430 . S
Eu1 O23 2.670 . S
Eu1 O24 2.394 . S
Eu1 O29 2.355 . S
Eu1 O31 2.374 . S
C2 C0 1.500 . S
C2 C3 1.377 1_545 S
C2 C7 1.377 . S
C3 C2 1.377 1_565 S
C3 C4 1.395 1_554 S
C3 H32 0.931 . S
C4 C3 1.395 1_556 S
C4 C5 1.383 . S
C4 H33 0.931 . S
C5 C4 1.383 . S
C5 C6 1.394 1_565 S
C6 C5 1.394 1_545 S
C6 C7 1.378 1_556 S
C6 H34 0.931 . S
C7 C2 1.377 . S
C7 C6 1.378 1_554 S
C7 H35 0.931 . S
C8 O22 1.259 . S
C8 O23 1.270 . S
C9 O24 1.251 . S
C9 O25 1.251 . S
C10 Eu11 2.835 . S
C10 C12 1.500 . S
C10 O26 1.257 . S
C10 O27 1.260 . S
Eu11 C10 2.835 . S
Eu11 O23 2.355 . S
Eu11 O25 2.374 . S
Eu11 O26 2.473 . S
Eu11 O27 2.480 . S
Eu11 O28 2.430 . S
Eu11 O29 2.670 . S
Eu11 O30 2.394 . S
C12 C10 1.500 . S
C12 C13 1.377 . S
C12 C17 1.377 . S
C13 C12 1.377 . S
C13 C14 1.395 . S
C13 H36 0.931 . S
C14 C13 1.395 . S
C14 C15 1.383 . S
C14 H37 0.931 . S
C15 C14 1.383 . S
C15 C16 1.394 . S
C16 C15 1.394 . S
C16 C17 1.378 . S
C16 H38 0.931 . S
C17 C12 1.377 . S
C17 C16 1.378 . S
C17 H39 0.931 . S
C18 O28 1.259 . S
C18 O29 1.270 . S
C19 O30 1.251 . S
C19 O31 1.251 . S
O20 C0 1.257 . S
O20 Eu1 2.473 . S
O21 C0 1.260 . S
O21 Eu1 2.480 . S
O22 Eu1 2.430 . S
O22 C8 1.259 . S
O23 Eu1 2.670 . S
O23 C8 1.270 . S
O23 Eu11 2.355 . S
O24 Eu1 2.394 . S
O24 C9 1.251 . S
O25 C9 1.251 . S
O25 Eu11 2.374 . S
O26 C10 1.257 . S
O26 Eu11 2.473 . S
O27 C10 1.260 . S
O27 Eu11 2.480 . S
O28 Eu11 2.430 . S
O28 C18 1.259 . S
O29 Eu1 2.355 . S
O29 Eu11 2.670 . S
O29 C18 1.270 . S
O30 Eu11 2.394 . S
O30 C19 1.251 . S
O31 Eu1 2.374 . S
O31 C19 1.251 . S
H32 C3 0.931 . S
H33 C4 0.931 . S
H34 C6 0.931 . S
H35 C7 0.931 . S
H36 C13 0.931 . S
H37 C14 0.931 . S
H38 C16 0.931 . S
H39 C17 0.931 . S
C40 Eu41 2.835 . S
C40 C42 1.500 . S
C40 O60 1.257 . S
C40 O61 1.260 . S
Eu41 C40 2.835 . S
Eu41 O60 2.473 . S
Eu41 O61 2.480 . S
Eu41 O62 2.430 . S
Eu41 O63 2.670 . S
Eu41 O64 2.394 . S
Eu41 O69 2.355 . S
Eu41 O71 2.374 . S
C42 C40 1.500 . S
C42 C43 1.377 . S
C42 C47 1.377 . S
C43 C42 1.377 . S
C43 C44 1.395 . S
C43 H72 0.931 . S
C44 C43 1.395 . S
C44 C45 1.383 . S
C44 H73 0.931 . S
C45 C44 1.383 . S
C45 C46 1.394 . S
C46 C45 1.394 . S
C46 C47 1.378 . S
C46 H74 0.931 . S
C47 C42 1.377 . S
C47 C46 1.378 . S
C47 H75 0.931 . S
C48 O62 1.259 . S
C48 O63 1.270 . S
C49 O64 1.251 . S
C49 O65 1.251 . S
C50 Eu51 2.835 . S
C50 C52 1.500 . S
C50 O66 1.257 . S
C50 O67 1.260 . S
Eu51 C50 2.835 . S
Eu51 O63 2.355 . S
Eu51 O65 2.374 . S
Eu51 O66 2.473 . S
Eu51 O67 2.480 . S
Eu51 O68 2.430 . S
Eu51 O69 2.670 . S
Eu51 O70 2.394 . S
C52 C50 1.500 . S
C52 C53 1.377 . S
C52 C57 1.377 . S
C53 C52 1.377 . S
C53 C54 1.395 . S
C53 H76 0.931 . S
C54 C53 1.395 . S
C54 C55 1.383 . S
C54 H77 0.931 1_455 S
C55 C54 1.383 . S
C55 C56 1.394 . S
C56 C55 1.394 . S
C56 C57 1.378 . S
C56 H78 0.931 . S
C57 C52 1.377 . S
C57 C56 1.378 . S
C57 H79 0.931 . S
C58 O68 1.259 . S
C58 O69 1.270 . S
C59 O70 1.251 . S
C59 O71 1.251 . S
O60 C40 1.257 . S
O60 Eu41 2.473 . S
O61 C40 1.260 . S
O61 Eu41 2.480 . S
O62 Eu41 2.430 . S
O62 C48 1.259 . S
O63 Eu41 2.670 . S
O63 C48 1.270 . S
O63 Eu51 2.355 . S
O64 Eu41 2.394 . S
O64 C49 1.251 . S
O65 C49 1.251 . S
O65 Eu51 2.374 . S
O66 C50 1.257 . S
O66 Eu51 2.473 . S
O67 C50 1.260 . S
O67 Eu51 2.480 . S
O68 Eu51 2.430 . S
O68 C58 1.259 . S
O69 Eu41 2.355 . S
O69 Eu51 2.670 . S
O69 C58 1.270 . S
O70 Eu51 2.394 . S
O70 C59 1.251 . S
O71 Eu41 2.374 . S
O71 C59 1.251 . S
H72 C43 0.931 . S
H73 C44 0.931 . S
H74 C46 0.931 . S
H75 C47 0.931 . S
H76 C53 0.931 . S
H77 C54 0.931 1_655 S
H78 C56 0.931 . S
H79 C57 0.931 . S
C80 Eu81 2.835 1_556 S
C80 C82 1.500 . S
C80 O100 1.257 1_556 S
C80 O101 1.262 . S
Eu81 C80 2.835 1_554 S
Eu81 O100 2.473 . S
Eu81 O101 2.476 1_554 S
Eu81 O102 2.430 . S
Eu81 O103 2.670 . S
Eu81 O104 2.394 1_545 S
Eu81 O109 2.355 . S
Eu81 O111 2.374 . S
C82 C80 1.500 . S
C82 C83 1.377 . S
C82 C87 1.377 . S
C83 C82 1.377 . S
C83 C84 1.395 . S
C83 H112 0.931 . S
C84 C83 1.395 . S
C84 C85 1.383 . S
C84 H113 0.931 . S
C85 C84 1.383 . S
C85 C86 1.394 . S
C86 C85 1.394 . S
C86 C87 1.378 . S
C86 H114 0.931 . S
C87 C82 1.377 . S
C87 C86 1.378 . S
C87 H115 0.931 . S
C88 O102 1.259 . S
C88 O103 1.270 . S
C89 O104 1.251 . S
C89 O105 1.251 . S
C90 Eu91 2.835 . S
C90 C92 1.500 . S
C90 O106 1.257 . S
C90 O107 1.260 . S
Eu91 C90 2.835 . S
Eu91 O103 2.355 1_565 S
Eu91 O105 2.374 . S
Eu91 O106 2.473 . S
Eu91 O107 2.480 . S
Eu91 O108 2.430 . S
Eu91 O109 2.670 1_565 S
Eu91 O110 2.394 1_565 S
C92 C90 1.500 . S
C92 C93 1.377 . S
C92 C97 1.377 . S
C93 C92 1.377 . S
C93 C94 1.395 . S
C93 H116 0.931 . S
C94 C93 1.395 . S
C94 C95 1.383 . S
C94 H117 0.931 . S
C95 C94 1.383 . S
C95 C96 1.394 . S
C96 C95 1.394 . S
C96 C97 1.378 . S
C96 H118 0.931 . S
C97 C92 1.377 . S
C97 C96 1.378 . S
C97 H119 0.931 . S
C98 O108 1.259 . S
C98 O109 1.270 1_565 S
C99 O110 1.251 . S
C99 O111 1.251 . S
O100 C80 1.257 1_554 S
O100 Eu81 2.473 . S
O101 C80 1.262 . S
O101 Eu81 2.476 1_556 S
O102 Eu81 2.430 . S
O102 C88 1.259 . S
O103 Eu81 2.670 . S
O103 C88 1.270 . S
O103 Eu91 2.355 1_545 S
O104 Eu81 2.394 1_565 S
O104 C89 1.251 . S
O105 C89 1.251 . S
O105 Eu91 2.374 . S
O106 C90 1.257 . S
O106 Eu91 2.473 . S
O107 C90 1.260 . S
O107 Eu91 2.480 . S
O108 Eu91 2.430 . S
O108 C98 1.259 . S
O109 Eu81 2.355 . S
O109 Eu91 2.670 1_545 S
O109 C98 1.270 1_545 S
O110 Eu91 2.394 1_545 S
O110 C99 1.251 . S
O111 Eu81 2.374 . S
O111 C99 1.251 . S
H112 C83 0.931 . S
H113 C84 0.931 . S
H114 C86 0.931 . S
H115 C87 0.931 . S
H116 C93 0.931 . S
H117 C94 0.931 . S
H118 C96 0.931 . S
H119 C97 0.931 . S
C120 Eu121 2.835 . S
C120 C122 1.500 . S
C120 O140 1.257 . S
C120 O141 1.260 . S
Eu121 C120 2.835 . S
Eu121 O140 2.473 . S
Eu121 O141 2.480 . S
Eu121 O142 2.430 . S
Eu121 O143 2.670 . S
Eu121 O144 2.389 1_455 S
Eu121 O149 2.355 . S
Eu121 O151 2.374 . S
C122 C120 1.500 . S
C122 C123 1.377 . S
C122 C127 1.377 . S
C123 C122 1.377 . S
C123 C124 1.395 . S
C123 H152 0.931 . S
C124 C123 1.395 . S
C124 C125 1.383 . S
C124 H153 0.931 . S
C125 C124 1.383 . S
C125 C126 1.394 . S
C126 C125 1.394 . S
C126 C127 1.378 . S
C126 H154 0.931 . S
C127 C122 1.377 . S
C127 C126 1.378 . S
C127 H155 0.931 . S
C128 O142 1.259 . S
C128 O143 1.270 . S
C129 O144 1.255 . S
C129 O145 1.251 . S
C130 Eu131 2.835 . S
C130 C132 1.500 . S
C130 O146 1.257 . S
C130 O147 1.260 . S
Eu131 C130 2.835 . S
Eu131 O143 2.355 1_655 S
Eu131 O145 2.374 . S
Eu131 O146 2.473 . S
Eu131 O147 2.480 . S
Eu131 O148 2.430 . S
Eu131 O149 2.670 1_655 S
Eu131 O150 2.394 1_655 S
C132 C130 1.500 . S
C132 C133 1.377 . S
C132 C137 1.377 . S
C133 C132 1.377 . S
C133 C134 1.395 . S
C133 H156 0.931 . S
C134 C133 1.395 . S
C134 C135 1.383 . S
C134 H157 0.931 . S
C135 C134 1.383 . S
C135 C136 1.394 . S
C136 C135 1.394 . S
C136 C137 1.378 . S
C136 H158 0.931 . S
C137 C132 1.377 . S
C137 C136 1.378 . S
C137 H159 0.931 . S
C138 O148 1.259 . S
C138 O149 1.270 1_655 S
C139 O150 1.251 . S
C139 O151 1.251 . S
O140 C120 1.257 . S
O140 Eu121 2.473 . S
O141 C120 1.260 . S
O141 Eu121 2.480 . S
O142 Eu121 2.430 . S
O142 C128 1.259 . S
O143 Eu121 2.670 . S
O143 C128 1.270 . S
O143 Eu131 2.355 1_455 S
O144 Eu121 2.389 1_655 S
O144 C129 1.255 . S
O145 C129 1.251 . S
O145 Eu131 2.374 . S
O146 C130 1.257 . S
O146 Eu131 2.473 . S
O147 C130 1.260 . S
O147 Eu131 2.480 . S
O148 Eu131 2.430 . S
O148 C138 1.259 . S
O149 Eu121 2.355 . S
O149 Eu131 2.670 1_455 S
O149 C138 1.270 1_455 S
O150 Eu131 2.394 1_455 S
O150 C139 1.251 . S
O151 Eu121 2.374 . S
O151 C139 1.251 . S
H152 C123 0.931 . S
H153 C124 0.931 . S
H154 C126 0.931 . S
H155 C127 0.931 . S
H156 C133 0.931 . S
H157 C134 0.931 . S
H158 C136 0.931 . S
H159 C137 0.931 . S
C160 C161 1.349 . S
C160 C162 1.327 . S
C160 H185 0.950 . S
C161 C160 1.349 . S
C161 C177 1.349 1_565 S
C162 C160 1.327 . S
C162 C181 1.429 1_565 S
C162 H186 0.950 . S
C163 C180 1.574 . S
C163 C182 1.368 . S
C163 H187 0.949 . S
H164 C168 0.949 . S
C165 C166 1.349 . S
C165 C167 1.327 . S
C165 H188 0.950 . S
C166 C165 1.349 . S
C166 C178 1.349 . S
C167 C165 1.327 . S
C167 C183 1.429 . S
C167 H189 0.950 . S
C168 H164 0.949 . S
C168 C176 1.574 . S
C168 C184 1.368 . S
H169 C177 0.950 . S
H170 C175 0.950 . S
H171 C176 0.949 1_565 S
H172 C178 0.950 . S
H173 C179 0.950 . S
H174 C180 0.949 . S
C175 H170 0.950 . S
C175 C177 1.327 . S
C175 C181 1.429 . S
C176 C168 1.574 . S
C176 H171 0.949 1_545 S
C176 C182 1.368 . S
C177 C161 1.349 1_545 S
C177 H169 0.950 . S
C177 C175 1.327 . S
C178 C166 1.349 . S
C178 H172 0.950 . S
C178 C179 1.327 . S
C179 H173 0.950 . S
C179 C178 1.327 . S
C179 C183 1.429 . S
C180 C163 1.574 . S
C180 H174 0.949 . S
C180 C184 1.368 . S
C181 C162 1.429 1_545 S
C181 C175 1.429 . S
C181 C182 1.523 1_655 S
C182 C163 1.368 . S
C182 C176 1.368 . S
C182 C181 1.523 1_455 S
C183 C167 1.429 . S
C183 C179 1.429 . S
C183 C184 1.523 . S
C184 C168 1.368 . S
C184 C180 1.368 . S
C184 C183 1.523 . S
H185 C160 0.950 . S
H186 C162 0.950 . S
H187 C163 0.949 . S
H188 C165 0.950 . S
H189 C167 0.950 . S
C190 C191 1.349 . S
C190 C192 1.327 1_655 S
C190 H215 0.950 . S
C191 C190 1.349 . S
C191 C207 1.349 1_655 S
C192 C190 1.327 1_455 S
C192 C211 1.429 . S
C192 H216 0.950 1_455 S
C193 C210 1.574 . S
C193 C212 1.368 . S
C193 H217 0.949 . S
H194 C198 0.949 . S
C195 C196 1.349 . S
C195 C197 1.327 . S
C195 H218 0.950 . S
C196 C195 1.349 . S
C196 C208 1.349 . S
C197 C195 1.327 . S
C197 C213 1.429 . S
C197 H219 0.950 . S
C198 H194 0.949 . S
C198 C206 1.574 . S
C198 C214 1.368 . S
H199 C207 0.950 . S
H200 C205 0.950 . S
H201 C206 0.949 . S
H202 C208 0.950 . S
H203 C209 0.950 . S
H204 C210 0.949 . S
C205 H200 0.950 . S
C205 C207 1.327 . S
C205 C211 1.429 . S
C206 C198 1.574 . S
C206 H201 0.949 . S
C206 C212 1.368 . S
C207 C191 1.349 1_455 S
C207 H199 0.950 . S
C207 C205 1.327 . S
C208 C196 1.349 . S
C208 H202 0.950 . S
C208 C209 1.327 . S
C209 H203 0.950 . S
C209 C208 1.327 . S
C209 C213 1.429 . S
C210 C193 1.574 . S
C210 H204 0.949 . S
C210 C214 1.368 . S
C211 C192 1.429 . S
C211 C205 1.429 . S
C211 C212 1.523 1_565 S
C212 C193 1.368 . S
C212 C206 1.368 . S
C212 C211 1.523 1_545 S
C213 C197 1.429 . S
C213 C209 1.429 . S
C213 C214 1.523 . S
C214 C198 1.368 . S
C214 C210 1.368 . S
C214 C213 1.523 . S
H215 C190 0.950 . S
H216 C192 0.950 1_655 S
H217 C193 0.949 . S
H218 C195 0.950 . S
H219 C197 0.950 . S
C220 C221 1.349 . S
C220 C222 1.327 1_565 S
C220 H245 0.950 . S
C221 C220 1.349 . S
C221 C237 1.349 1_565 S
C222 C220 1.327 1_545 S
C222 C241 1.429 . S
C222 H246 0.950 . S
C223 C240 1.574 . S
C223 C242 1.368 . S
C223 H247 0.949 . S
H224 C228 0.949 . S
C225 C226 1.349 . S
C225 C227 1.327 . S
C225 H248 0.950 . S
C226 C225 1.349 . S
C226 C238 1.349 . S
C227 C225 1.327 . S
C227 C243 1.429 . S
C227 H249 0.950 . S
C228 H224 0.949 . S
C228 C236 1.574 . S
C228 C244 1.368 . S
H229 C237 0.950 . S
H230 C235 0.950 . S
H231 C236 0.949 . S
H232 C238 0.950 . S
H233 C239 0.950 . S
H234 C240 0.949 . S
C235 H230 0.950 . S
C235 C237 1.327 . S
C235 C241 1.429 . S
C236 C228 1.574 . S
C236 H231 0.949 . S
C236 C242 1.368 . S
C237 C221 1.349 1_545 S
C237 H229 0.950 . S
C237 C235 1.327 . S
C238 C226 1.349 . S
C238 H232 0.950 . S
C238 C239 1.327 . S
C239 H233 0.950 . S
C239 C238 1.327 . S
C239 C243 1.429 . S
C240 C223 1.574 . S
C240 H234 0.949 . S
C240 C244 1.368 . S
C241 C222 1.429 . S
C241 C235 1.429 . S
C241 C242 1.523 . S
C242 C223 1.368 . S
C242 C236 1.368 . S
C242 C241 1.523 . S
C243 C227 1.429 . S
C243 C239 1.429 . S
C243 C244 1.523 . S
C244 C228 1.368 . S
C244 C240 1.368 . S
C244 C243 1.523 . S
H245 C220 0.950 . S
H246 C222 0.950 . S
H247 C223 0.949 . S
H248 C225 0.950 . S
H249 C227 0.950 . S
C250 C251 1.349 . S
C250 C252 1.327 . S
C250 H275 0.950 . S
C251 C250 1.349 . S
C251 C267 1.349 . S
C252 C250 1.327 . S
C252 C271 1.429 . S
C252 H276 0.950 . S
C253 C270 1.574 . S
C253 C272 1.368 . S
C253 H277 0.949 . S
H254 C258 0.949 . S
C255 C256 1.347 . S
C255 C257 1.335 . S
C255 H278 0.944 1_455 S
C256 C255 1.347 . S
C256 C268 1.349 . S
C257 C255 1.335 . S
C257 C273 1.429 . S
C257 H279 0.950 . S
C258 H254 0.949 . S
C258 C266 1.574 . S
C258 C274 1.368 . S
H259 C267 0.950 . S
H260 C265 0.950 . S
H261 C266 0.949 . S
H262 C268 0.950 . S
H263 C269 0.950 . S
H264 C270 0.949 . S
C265 H260 0.950 . S
C265 C267 1.327 . S
C265 C271 1.429 . S
C266 C258 1.574 . S
C266 H261 0.949 . S
C266 C272 1.368 . S
C267 C251 1.349 . S
C267 H259 0.950 . S
C267 C265 1.327 . S
C268 C256 1.349 . S
C268 H262 0.950 . S
C268 C269 1.327 . S
C269 H263 0.950 . S
C269 C268 1.327 . S
C269 C273 1.429 . S
C270 C253 1.574 . S
C270 H264 0.949 . S
C270 C274 1.368 . S
C271 C252 1.429 . S
C271 C265 1.429 . S
C271 C272 1.523 . S
C272 C253 1.368 . S
C272 C266 1.368 . S
C272 C271 1.523 . S
C273 C257 1.429 . S
C273 C269 1.429 . S
C273 C274 1.523 . S
C274 C258 1.368 . S
C274 C270 1.368 . S
C274 C273 1.523 . S
H275 C250 0.950 . S
H276 C252 0.950 . S
H277 C253 0.949 . S
H278 C255 0.944 1_655 S
H279 C257 0.950 . S
C280 C281 1.349 . S
C280 C282 1.327 . S
C280 H305 0.950 . S
C281 C280 1.349 . S
C281 C297 1.349 . S
C282 C280 1.327 . S
C282 C301 1.429 . S
C282 H306 0.950 . S
C283 C300 1.574 . S
C283 C302 1.368 . S
C283 H307 0.949 . S
H284 C288 0.949 . S
C285 C286 1.349 . S
C285 C287 1.327 . S
C285 H308 0.950 . S
C286 C285 1.349 . S
C286 C298 1.349 . S
C287 C285 1.327 . S
C287 C303 1.429 . S
C287 H309 0.950 . S
C288 H284 0.949 . S
C288 C296 1.574 . S
C288 C304 1.368 . S
H289 C297 0.950 . S
H290 C295 0.950 . S
H291 C296 0.949 . S
H292 C298 0.950 . S
H293 C299 0.950 . S
H294 C300 0.949 . S
C295 H290 0.950 . S
C295 C297 1.327 . S
C295 C301 1.429 . S
C296 C288 1.574 . S
C296 H291 0.949 . S
C296 C302 1.368 . S
C297 C281 1.349 . S
C297 H289 0.950 . S
C297 C295 1.327 . S
C298 C286 1.349 . S
C298 H292 0.950 . S
C298 C299 1.327 . S
C299 H293 0.950 . S
C299 C298 1.327 . S
C299 C303 1.429 . S
C300 C283 1.574 . S
C300 H294 0.949 . S
C300 C304 1.368 . S
C301 C282 1.429 . S
C301 C295 1.429 . S
C301 C302 1.523 . S
C302 C283 1.368 . S
C302 C296 1.368 . S
C302 C301 1.523 . S
C303 C287 1.429 . S
C303 C299 1.429 . S
C303 C304 1.523 . S
C304 C288 1.368 . S
C304 C300 1.368 . S
C304 C303 1.523 . S
H305 C280 0.950 . S
H306 C282 0.950 . S
H307 C283 0.949 . S
H308 C285 0.950 . S
H309 C287 0.950 . S
C310 C311 1.349 . S
C310 C312 1.327 . S
C310 H335 0.950 . S
C311 C310 1.349 . S
C311 C327 1.349 . S
C312 C310 1.327 . S
C312 C331 1.429 . S
C312 H336 0.950 . S
C313 C330 1.574 1_455 S
C313 C332 1.368 . S
C313 H337 0.949 . S
H314 C318 0.949 . S
C315 C316 1.349 . S
C315 C317 1.327 . S
C315 H338 0.950 . S
C316 C315 1.349 . S
C316 C328 1.349 . S
C317 C315 1.327 . S
C317 C333 1.429 . S
C317 H339 0.950 . S
C318 H314 0.949 . S
C318 C326 1.574 1_655 S
C318 C334 1.368 . S
H319 C327 0.950 . S
H320 C325 0.950 . S
H321 C326 0.949 . S
H322 C328 0.950 . S
H323 C329 0.950 . S
H324 C330 0.949 . S
C325 H320 0.950 . S
C325 C327 1.327 . S
C325 C331 1.429 . S
C326 C318 1.574 1_455 S
C326 H321 0.949 . S
C326 C332 1.368 . S
C327 C311 1.349 . S
C327 H319 0.950 . S
C327 C325 1.327 . S
C328 C316 1.349 . S
C328 H322 0.950 . S
C328 C329 1.327 . S
C329 H323 0.950 . S
C329 C328 1.327 . S
C329 C333 1.429 . S
C330 C313 1.574 1_655 S
C330 H324 0.949 . S
C330 C334 1.368 . S
C331 C312 1.429 . S
C331 C325 1.429 . S
C331 C332 1.523 . S
C332 C313 1.368 . S
C332 C326 1.368 . S
C332 C331 1.523 . S
C333 C317 1.429 . S
C333 C329 1.429 . S
C333 C334 1.523 . S
C334 C318 1.368 . S
C334 C330 1.368 . S
C334 C333 1.523 . S
H335 C310 0.950 . S
H336 C312 0.950 . S
H337 C313 0.949 . S
H338 C315 0.950 . S
H339 C317 0.950 . S
C340 C341 1.349 . S
C340 C342 1.327 . S
C340 H365 0.950 . S
C341 C340 1.349 . S
C341 C357 1.349 . S
C342 C340 1.327 . S
C342 C361 1.429 . S
C342 H366 0.950 . S
C343 C360 1.574 . S
C343 C362 1.368 . S
C343 H367 0.949 . S
H344 C348 0.949 . S
C345 C346 1.349 . S
C345 C347 1.327 . S
C345 H368 0.950 . S
C346 C345 1.349 . S
C346 C358 1.349 . S
C347 C345 1.327 . S
C347 C363 1.429 . S
C347 H369 0.950 . S
C348 H344 0.949 . S
C348 C356 1.574 . S
C348 C364 1.368 . S
H349 C357 0.950 . S
H350 C355 0.950 . S
H351 C356 0.949 . S
H352 C358 0.950 . S
H353 C359 0.950 . S
H354 C360 0.949 . S
C355 H350 0.950 . S
C355 C357 1.327 . S
C355 C361 1.429 . S
C356 C348 1.574 . S
C356 H351 0.949 . S
C356 C362 1.368 . S
C357 C341 1.349 . S
C357 H349 0.950 . S
C357 C355 1.327 . S
C358 C346 1.349 . S
C358 H352 0.950 . S
C358 C359 1.327 . S
C359 H353 0.950 . S
C359 C358 1.327 . S
C359 C363 1.429 . S
C360 C343 1.574 . S
C360 H354 0.949 . S
C360 C364 1.368 . S
C361 C342 1.429 . S
C361 C355 1.429 . S
C361 C362 1.523 . S
C362 C343 1.368 . S
C362 C356 1.368 . S
C362 C361 1.523 . S
C363 C347 1.429 . S
C363 C359 1.429 . S
C363 C364 1.523 . S
C364 C348 1.368 . S
C364 C360 1.368 . S
C364 C363 1.523 . S
H365 C340 0.950 . S
H366 C342 0.950 . S
H367 C343 0.949 . S
H368 C345 0.950 . S
H369 C347 0.950 . S
C370 C371 1.349 . S
C370 C372 1.327 . S
C370 H395 0.950 . S
C371 C370 1.349 . S
C371 C387 1.349 . S
C372 C370 1.327 . S
C372 C391 1.429 . S
C372 H396 0.950 . S
C373 C390 1.574 . S
C373 C392 1.368 . S
C373 H397 0.949 . S
H374 C378 0.949 . S
C375 C376 1.349 1_545 S
C375 C377 1.327 1_545 S
C375 H398 0.950 . S
C376 C375 1.349 1_565 S
C376 C388 1.349 . S
C377 C375 1.327 1_565 S
C377 C393 1.429 . S
C377 H399 0.950 1_565 S
C378 H374 0.949 . S
C378 C386 1.574 . S
C378 C394 1.368 . S
H379 C387 0.950 . S
H380 C385 0.950 . S
H381 C386 0.949 . S
H382 C388 0.950 . S
H383 C389 0.950 . S
H384 C390 0.949 . S
C385 H380 0.950 . S
C385 C387 1.327 . S
C385 C391 1.429 . S
C386 C378 1.574 . S
C386 H381 0.949 . S
C386 C392 1.368 . S
C387 C371 1.349 . S
C387 H379 0.950 . S
C387 C385 1.327 . S
C388 C376 1.349 . S
C388 H382 0.950 . S
C388 C389 1.327 . S
C389 H383 0.950 . S
C389 C388 1.327 . S
C389 C393 1.429 . S
C390 C373 1.574 . S
C390 H384 0.949 . S
C390 C394 1.368 . S
C391 C372 1.429 . S
C391 C385 1.429 . S
C391 C392 1.523 . S
C392 C373 1.368 . S
C392 C386 1.368 . S
C392 C391 1.523 . S
C393 C377 1.429 . S
C393 C389 1.429 . S
C393 C394 1.523 . S
C394 C378 1.368 . S
C394 C390 1.368 . S
C394 C393 1.523 . S
H395 C370 0.950 . S
H396 C372 0.950 . S
H397 C373 0.949 . S
H398 C375 0.950 . S
H399 C377 0.950 1_545 S
C400 C401 1.349 . S
C400 C402 1.327 . S
C400 H425 0.950 . S
C401 C400 1.349 . S
C401 C417 1.349 . S
C402 C400 1.327 . S
C402 C421 1.429 . S
C402 H426 0.950 . S
C403 C420 1.574 . S
C403 C422 1.368 . S
C403 H427 0.949 . S
H404 C408 0.949 . S
C405 C406 1.349 . S
C405 C407 1.327 . S
C405 H428 0.950 . S
C406 C405 1.349 . S
C406 C418 1.349 . S
C407 C405 1.327 . S
C407 C423 1.429 . S
C407 H429 0.950 . S
C408 H404 0.949 . S
C408 C416 1.574 . S
C408 C424 1.368 . S
H409 C417 0.950 . S
H410 C415 0.950 . S
H411 C416 0.949 . S
H412 C418 0.950 . S
H413 C419 0.950 . S
H414 C420 0.949 . S
C415 H410 0.950 . S
C415 C417 1.327 . S
C415 C421 1.429 . S
C416 C408 1.574 . S
C416 H411 0.949 . S
C416 C422 1.368 . S
C417 C401 1.349 . S
C417 H409 0.950 . S
C417 C415 1.327 . S
C418 C406 1.349 . S
C418 H412 0.950 . S
C418 C419 1.327 . S
C419 H413 0.950 . S
C419 C418 1.327 . S
C419 C423 1.429 . S
C420 C403 1.574 . S
C420 H414 0.949 . S
C420 C424 1.368 . S
C421 C402 1.429 . S
C421 C415 1.429 . S
C421 C422 1.523 . S
C422 C403 1.368 . S
C422 C416 1.368 . S
C422 C421 1.523 . S
C423 C407 1.429 . S
C423 C419 1.429 . S
C423 C424 1.523 . S
C424 C408 1.368 . S
C424 C420 1.368 . S
C424 C423 1.523 . S
H425 C400 0.950 . S
H426 C402 0.950 . S
H427 C403 0.949 . S
H428 C405 0.950 . S
H429 C407 0.950 . S
C430 C431 1.349 . S
C430 C432 1.327 . S
C430 H455 0.950 . S
C431 C430 1.349 . S
C431 C447 1.349 1_545 S
C432 C430 1.327 . S
C432 C451 1.429 1_545 S
C432 H456 0.950 . S
C433 C450 1.574 . S
C433 C452 1.368 . S
C433 H457 0.949 . S
H434 C438 0.949 . S
C435 C436 1.349 . S
C435 C437 1.327 . S
C435 H458 0.950 . S
C436 C435 1.349 . S
C436 C448 1.349 . S
C437 C435 1.327 . S
C437 C453 1.429 . S
C437 H459 0.950 . S
C438 H434 0.949 . S
C438 C446 1.574 . S
C438 C454 1.368 . S
H439 C447 0.950 . S
H440 C445 0.950 . S
H441 C446 0.949 1_545 S
H442 C448 0.950 . S
H443 C449 0.950 . S
H444 C450 0.949 . S
C445 H440 0.950 . S
C445 C447 1.327 . S
C445 C451 1.429 . S
C446 C438 1.574 . S
C446 H441 0.949 1_565 S
C446 C452 1.368 . S
C447 C431 1.349 1_565 S
C447 H439 0.950 . S
C447 C445 1.327 . S
C448 C436 1.349 . S
C448 H442 0.950 . S
C448 C449 1.327 . S
C449 H443 0.950 . S
C449 C448 1.327 . S
C449 C453 1.429 . S
C450 C433 1.574 . S
C450 H444 0.949 . S
C450 C454 1.368 . S
C451 C432 1.429 1_565 S
C451 C445 1.429 . S
C451 C452 1.523 . S
C452 C433 1.368 . S
C452 C446 1.368 . S
C452 C451 1.523 . S
C453 C437 1.429 . S
C453 C449 1.429 . S
C453 C454 1.523 . S
C454 C438 1.368 . S
C454 C450 1.368 . S
C454 C453 1.523 . S
H455 C430 0.950 . S
H456 C432 0.950 . S
H457 C433 0.949 . S
H458 C435 0.950 . S
H459 C437 0.950 . S
C460 C461 1.349 . S
C460 C462 1.327 . S
C460 H485 0.950 . S
C461 C460 1.349 . S
C461 C477 1.349 . S
C462 C460 1.327 . S
C462 C481 1.429 . S
C462 H486 0.950 . S
C463 C480 1.574 . S
C463 C482 1.368 . S
C463 H487 0.949 . S
H464 C468 0.949 . S
C465 C466 1.349 1_556 S
C465 C467 1.327 . S
C465 H488 0.948 1_556 S
C466 C465 1.349 1_554 S
C466 C478 1.349 . S
C467 C465 1.327 . S
C467 C483 1.429 . S
C467 H489 0.950 . S
C468 H464 0.949 . S
C468 C476 1.574 . S
C468 C484 1.368 . S
H469 C477 0.950 . S
H470 C475 0.950 . S
H471 C476 0.949 . S
H472 C478 0.950 . S
H473 C479 0.950 . S
H474 C480 0.949 . S
C475 H470 0.950 . S
C475 C477 1.327 . S
C475 C481 1.429 . S
C476 C468 1.574 . S
C476 H471 0.949 . S
C476 C482 1.368 . S
C477 C461 1.349 . S
C477 H469 0.950 . S
C477 C475 1.327 . S
C478 C466 1.349 . S
C478 H472 0.950 . S
C478 C479 1.327 1_554 S
C479 H473 0.950 . S
C479 C478 1.327 1_556 S
C479 C483 1.429 . S
C480 C463 1.574 . S
C480 H474 0.949 . S
C480 C484 1.368 . S
C481 C462 1.429 . S
C481 C475 1.429 . S
C481 C482 1.523 . S
C482 C463 1.368 . S
C482 C476 1.368 . S
C482 C481 1.523 . S
C483 C467 1.429 . S
C483 C479 1.429 . S
C483 C484 1.523 . S
C484 C468 1.368 . S
C484 C480 1.368 . S
C484 C483 1.523 . S
H485 C460 0.950 . S
H486 C462 0.950 . S
H487 C463 0.949 . S
H488 C465 0.948 1_554 S
H489 C467 0.950 . S
C490 C491 1.349 . S
C490 C492 1.327 . S
C490 H515 0.950 . S
C491 C490 1.349 . S
C491 C507 1.349 . S
C492 C490 1.327 . S
C492 C511 1.429 . S
C492 H516 0.950 . S
C493 C510 1.574 . S
C493 C512 1.368 . S
C493 H517 0.949 . S
H494 C498 0.949 1_455 S
C495 C496 1.349 . S
C495 C497 1.327 . S
C495 H518 0.950 . S
C496 C495 1.349 . S
C496 C508 1.349 1_655 S
C497 C495 1.327 . S
C497 C513 1.429 . S
C497 H519 0.950 . S
C498 H494 0.949 1_655 S
C498 C506 1.574 . S
C498 C514 1.368 . S
H499 C507 0.950 . S
H500 C505 0.950 . S
H501 C506 0.949 . S
H502 C508 0.950 . S
H503 C509 0.950 . S
H504 C510 0.949 . S
C505 H500 0.950 . S
C505 C507 1.327 . S
C505 C511 1.429 . S
C506 C498 1.574 . S
C506 H501 0.949 . S
C506 C512 1.368 . S
C507 C491 1.349 . S
C507 H499 0.950 . S
C507 C505 1.327 . S
C508 C496 1.349 1_455 S
C508 H502 0.950 . S
C508 C509 1.327 . S
C509 H503 0.950 . S
C509 C508 1.327 . S
C509 C513 1.429 1_455 S
C510 C493 1.574 . S
C510 H504 0.949 . S
C510 C514 1.368 . S
C511 C492 1.429 . S
C511 C505 1.429 . S
C511 C512 1.523 . S
C512 C493 1.368 . S
C512 C506 1.368 . S
C512 C511 1.523 . S
C513 C497 1.429 . S
C513 C509 1.429 1_655 S
C513 C514 1.523 . S
C514 C498 1.368 . S
C514 C510 1.368 . S
C514 C513 1.523 . S
H515 C490 0.950 . S
H516 C492 0.950 . S
H517 C493 0.949 . S
H518 C495 0.950 . S
H519 C497 0.950 . S
C161 C88 0.775 1_565 S
C166 C8 0.925 . S
C191 C128 1.018 1_655 S
C196 C58 1.018 . S
C221 C98 1.105 . S
C226 C18 1.115 . S
C251 C48 1.079 . S
C256 C138 1.079 1_455 S
C281 C59 0.581 . S
C286 C15 0.570 . S
C311 C49 0.516 . S
C316 C85 0.555 . S
C341 C135 0.301 . S
C346 C95 0.310 . S
C371 C125 0.339 . S
C376 C5 0.453 . S
C401 C89 3.317 1_556 S
C406 C129 3.285 . S
C431 C19 3.363 . S
C436 C139 3.359 . S
C461 C45 2.847 . S
C466 C9 2.815 . S
C491 C99 2.482 . S
C496 C55 2.430 1_655 S
