# Generated by pormake.
# Topology snk, (6)-cn, num edge types: 1
# Building blocks:
#     Node 0, Type 0, BuildingBlock: MIFKUJ_clean_sbu_0, # of connection points: 6
#     Node 1, Type 0, BuildingBlock: MIFKUJ_clean_sbu_0, # of connection points: 6
#     Node 2, Type 0, BuildingBlock: MIFKUJ_clean_sbu_0, # of connection points: 6
#     Node 3, Type 0, BuildingBlock: MIFKUJ_clean_sbu_0, # of connection points: 6
#     Node 4, Type 0, BuildingBlock: MIFKUJ_clean_sbu_0, # of connection points: 6
#     Node 5, Type 0, BuildingBlock: MIFKUJ_clean_sbu_0, # of connection points: 6
#     Node 6, Type 0, BuildingBlock: MIFKUJ_clean_sbu_0, # of connection points: 6
#     Node 7, Type 0, BuildingBlock: MIFKUJ_clean_sbu_0, # of connection points: 6
#     Edge 8, Type (0, 0), BuildingBlock: CIFDUS_clean_linker_0, # of connection points: 2
#     Edge 9, Type (0, 0), BuildingBlock: CIFDUS_clean_linker_0, # of connection points: 2
#     Edge 10, Type (0, 0), BuildingBlock: CIFDUS_clean_linker_0, # of connection points: 2
#     Edge 11, Type (0, 0), BuildingBlock: CIFDUS_clean_linker_0, # of connection points: 2
#     Edge 12, Type (0, 0), BuildingBlock: CIFDUS_clean_linker_0, # of connection points: 2
#     Edge 13, Type (0, 0), BuildingBlock: CIFDUS_clean_linker_0, # of connection points: 2
#     Edge 14, Type (0, 0), BuildingBlock: CIFDUS_clean_linker_0, # of connection points: 2
#     Edge 15, Type (0, 0), BuildingBlock: CIFDUS_clean_linker_0, # of connection points: 2
#     Edge 16, Type (0, 0), BuildingBlock: CIFDUS_clean_linker_0, # of connection points: 2
#     Edge 17, Type (0, 0), BuildingBlock: CIFDUS_clean_linker_0, # of connection points: 2
#     Edge 18, Type (0, 0), BuildingBlock: CIFDUS_clean_linker_0, # of connection points: 2
#     Edge 19, Type (0, 0), BuildingBlock: CIFDUS_clean_linker_0, # of connection points: 2
#     Edge 20, Type (0, 0), BuildingBlock: CIFDUS_clean_linker_0, # of connection points: 2
#     Edge 21, Type (0, 0), BuildingBlock: CIFDUS_clean_linker_0, # of connection points: 2
#     Edge 22, Type (0, 0), BuildingBlock: CIFDUS_clean_linker_0, # of connection points: 2
#     Edge 23, Type (0, 0), BuildingBlock: CIFDUS_clean_linker_0, # of connection points: 2
#     Edge 24, Type (0, 0), BuildingBlock: CIFDUS_clean_linker_0, # of connection points: 2
#     Edge 25, Type (0, 0), BuildingBlock: CIFDUS_clean_linker_0, # of connection points: 2
#     Edge 26, Type (0, 0), BuildingBlock: CIFDUS_clean_linker_0, # of connection points: 2
#     Edge 27, Type (0, 0), BuildingBlock: CIFDUS_clean_linker_0, # of connection points: 2
#     Edge 28, Type (0, 0), BuildingBlock: CIFDUS_clean_linker_0, # of connection points: 2
#     Edge 29, Type (0, 0), BuildingBlock: CIFDUS_clean_linker_0, # of connection points: 2
#     Edge 30, Type (0, 0), BuildingBlock: CIFDUS_clean_linker_0, # of connection points: 2
#     Edge 31, Type (0, 0), BuildingBlock: CIFDUS_clean_linker_0, # of connection points: 2
# Relax obj value: 0.038
# Max RMSD: 0.073
# Mean RMSD: 0.069
data_MOF--net-snk--node1-MIFKUJ_clean_sbu_0--edge1-CIFDUS_clean_linker_0
_symmetry_space_group_name_H-M    P1
_symmetry_Int_Tables_number       1
_symmetry_cell_setting            triclinic
loop_
_symmetry_equiv_pos_as_xyz
'x, y, z'
_cell_length_a     37.090145
_cell_length_b     37.017227
_cell_length_c     16.610955
_cell_angle_alpha  98.824958
_cell_angle_beta   81.577237
_cell_angle_gamma 88.65245
loop_
_atom_site_label
_atom_site_type_symbol
_atom_site_fract_x
_atom_site_fract_y
_atom_site_fract_z
_atom_type_partial_charge
Zn0 Zn 0.009 0.02327 0.43019 0.0
Zn1 Zn 0.01975 0.02598 0.62975 0.0
C2 C 0.93943 0.05194 0.42077 0.0
O3 O 0.93783 0.01777 0.38593 0.0
C4 C 0.09045 0.99297 0.60773 0.0
O5 O 0.09686 0.02717 0.63384 0.0
O6 O 0.01621 0.01172 0.30521 0.0
O7 O 0.05486 0.04733 0.45853 0.0
O8 O 0.03921 0.07125 0.5901 0.0
C9 C 0.02291 0.03947 0.26954 0.0
O10 O 0.02671 0.07106 0.31504 0.0
O11 O 0.96762 0.06142 0.45262 0.0
C12 C 0.00729 1.00534 0.78839 0.0
O13 O 1.00112 0.97468 0.74215 0.0
O14 O 0.01488 0.03331 0.75415 0.0
O15 O 0.97136 0.01025 0.60106 0.0
O16 O 0.99166 0.97845 0.47896 0.0
O17 O 0.05831 0.98479 0.59591 0.0
C18 C 0.05884 0.07091 0.52049 0.0
C19 C 0.97005 0.9823 0.54701 0.0
Zn20 Zn 0.24746 0.75551 0.85152 0.0
Zn21 Zn 0.2573 0.759 0.65979 0.0
C22 C 0.27076 0.68196 0.85032 0.0
O23 O 0.2357 0.68042 0.87592 0.0
C24 C 0.22523 0.82851 0.65089 0.0
O25 O 0.2582 0.83186 0.61213 0.0
O26 O 0.23199 0.76232 0.97334 0.0
O27 O 0.27428 0.80067 0.82933 0.0
O28 O 0.30219 0.77644 0.70588 0.0
C29 C 0.25748 0.76251 0.01677 0.0
O30 O 0.29151 0.7607 0.98008 0.0
O31 O 0.28311 0.71172 0.83088 0.0
C32 C 0.24584 0.74951 0.49402 0.0
O33 O 0.21189 0.7501 0.53067 0.0
O34 O 0.27138 0.75161 0.53753 0.0
O35 O 0.23361 0.71307 0.68501 0.0
O36 O 0.20235 0.74146 0.80106 0.0
O37 O 0.21843 0.79982 0.68266 0.0
C38 C 0.30057 0.79997 0.77072 0.0
C39 C 0.20499 0.71658 0.73834 0.0
Zn40 Zn 0.51106 1.00628 0.08518 0.0
Zn41 Zn 0.49898 1.00192 0.88786 0.0
C42 C 0.57682 0.04613 0.09335 0.0
O43 O 0.59091 0.01383 0.09858 0.0
C44 C 0.439 0.95789 0.85839 0.0
O45 O 0.43527 0.9825 0.81072 0.0
O46 O 0.5077 0.99731 0.2034 0.0
O47 O 0.46075 0.02563 0.07275 0.0
O48 O 0.47535 0.04799 0.95676 0.0
C49 C 0.49877 0.02475 0.25981 0.0
O50 O 0.49099 0.05645 0.23854 0.0
O51 O 0.54379 0.049 0.08201 0.0
C52 C 0.51481 0.98202 0.7119 0.0
O53 O 0.52558 0.95133 0.73361 0.0
O54 O 0.50277 0.00874 0.76797 0.0
O55 O 0.55001 0.98732 0.90151 0.0
O56 O 0.53632 0.96073 0.01108 0.0
O57 O 0.46467 0.96038 0.90189 0.0
C58 C 0.45547 0.04902 0.02634 0.0
C59 C 0.55657 0.96255 0.94314 0.0
Zn60 Zn 0.26436 0.26612 0.18246 0.0
Zn61 Zn 0.26577 0.25705 0.37815 0.0
C62 C 0.29373 0.337 0.18557 0.0
O63 O 0.25912 0.34693 0.19115 0.0
C64 C 0.22415 0.19629 0.40744 0.0
O65 O 0.25006 0.19219 0.45179 0.0
O66 O 0.25458 0.26181 0.06424 0.0
O67 O 0.2876 0.21734 0.1934 0.0
O68 O 0.31126 0.23243 0.30821 0.0
C69 C 0.28243 0.25377 0.00896 0.0
O70 O 0.31403 0.24711 0.03201 0.0
O71 O 0.30279 0.30367 0.18546 0.0
C72 C 0.24471 0.27197 0.55355 0.0
O73 O 0.21373 0.28043 0.52983 0.0
O74 O 0.2724 0.26198 0.49883 0.0
O75 O 0.24821 0.30678 0.36172 0.0
O76 O 0.21834 0.28683 0.25985 0.0
O77 O 0.22516 0.22234 0.3656 0.0
C78 C 0.311 0.21173 0.23965 0.0
C79 C 0.22041 0.30877 0.32585 0.0
Zn80 Zn 0.74372 0.24451 0.32818 0.0
Zn81 Zn 0.76093 0.25621 0.13918 0.0
C82 C 0.77593 0.17384 0.32337 0.0
O83 O 0.74131 0.16686 0.33996 0.0
C84 C 0.72631 0.32466 0.14939 0.0
O85 O 0.76079 0.33092 0.12755 0.0
O86 O 0.72583 0.24728 0.44989 0.0
O87 O 0.7657 0.29327 0.31756 0.0
O88 O 0.80111 0.27838 0.19724 0.0
C89 C 0.75124 0.25195 0.49385 0.0
O90 O 0.78449 0.256 0.45745 0.0
O91 O 0.78448 0.20565 0.30971 0.0
C92 C 0.75024 0.24756 0.97352 0.0
O93 O 0.71739 0.24246 0.01062 0.0
O94 O 0.77584 0.25323 0.01663 0.0
O95 O 0.74593 0.20573 0.15591 0.0
O96 O 0.70393 0.22564 0.26214 0.0
O97 O 0.71783 0.29282 0.16304 0.0
C98 C 0.79394 0.2982 0.26777 0.0
C99 C 0.71512 0.20243 0.19804 0.0
Zn100 Zn 0.77712 0.78633 0.66658 0.0
Zn101 Zn 0.74774 0.72921 0.85976 0.0
C102 C 0.8161 0.85275 0.71128 0.0
O103 O 0.79077 0.8595 0.77648 0.0
C104 C 0.71203 0.67204 0.94099 0.0
O105 O 0.73796 0.67646 0.98712 0.0
O106 O 0.75957 0.7816 0.55788 0.0
O107 O 0.8018 0.73765 0.66934 0.0
O108 O 0.78739 0.70498 0.76963 0.0
C109 C 0.78292 0.77695 0.49277 0.0
O110 O 0.81778 0.77435 0.49894 0.0
O111 O 0.81558 0.82354 0.66031 0.0
C112 C 0.7491 0.75721 0.02605 0.0
O113 O 0.71449 0.76321 0.0212 0.0
O114 O 0.77046 0.74283 0.96165 0.0
O115 O 0.71801 0.77438 0.84945 0.0
O116 O 0.73366 0.80693 0.74953 0.0
O117 O 0.71144 0.69073 0.88291 0.0
C118 C 0.8063 0.70929 0.70182 0.0
C119 C 0.71268 0.80162 0.81381 0.0
Zn120 Zn 0.49061 0.49625 0.88902 0.0
Zn121 Zn 0.50186 0.50041 0.08772 0.0
C122 C 0.42281 0.53415 0.8988 0.0
O123 O 0.41567 0.50158 0.86245 0.0
C124 C 0.56548 0.46127 0.09465 0.0
O125 O 0.57106 0.49463 0.12927 0.0
O126 O 0.49278 0.48684 0.7644 0.0
O127 O 0.53972 0.51411 0.90894 0.0
O128 O 0.5288 0.54094 0.03965 0.0
C129 C 0.49963 0.51489 0.72983 0.0
O130 O 0.50577 0.54563 0.7758 0.0
O131 O 0.45352 0.53855 0.92344 0.0
C132 C 0.48308 0.48459 0.24877 0.0
O133 O 0.47469 0.45454 0.2035 0.0
O134 O 0.49448 0.51112 0.21287 0.0
O135 O 0.45283 0.48806 0.05565 0.0
O136 O 0.47249 0.45218 0.93863 0.0
O137 O 0.53618 0.45561 0.06428 0.0
C138 C 0.54718 0.53768 0.96763 0.0
C139 C 0.45139 0.45823 0.00729 0.0
Zn140 Zn 0.01552 0.51018 0.59331 0.0
Zn141 Zn 0.98766 0.49671 0.38509 0.0
C142 C 0.07052 0.55869 0.62813 0.0
O143 O 0.07641 0.53312 0.672 0.0
C144 C 0.92502 0.46533 0.32163 0.0
O145 O 0.92911 0.49199 0.27771 0.0
O146 O 0.01118 0.50331 0.7116 0.0
O147 O 0.96332 0.51766 0.57533 0.0
O148 O 0.96906 0.54322 0.46365 0.0
C149 C 0.99816 0.52971 0.76735 0.0
O150 O 0.98657 0.56011 0.74574 0.0
O151 O 0.04503 0.5554 0.58418 0.0
C152 C 0.01228 0.48331 0.2146 0.0
O153 O 0.01646 0.45045 0.23353 0.0
O154 O 1.0011 0.50976 0.2719 0.0
O155 O 0.03026 0.46499 0.40242 0.0
O156 O 0.04563 0.46714 0.52682 0.0
O157 O 0.94562 0.46288 0.37566 0.0
C158 C 0.95491 0.54338 0.53812 0.0
C159 C 0.04998 0.45372 0.4508 0.0
H160 H 0.09026 0.09558 0.38217 0.0
H161 H 0.09441 0.10339 0.64261 0.0
H162 H 0.1467 0.14197 0.62943 0.0
H163 H 0.19198 0.17243 0.5437 0.0
H164 H 0.18497 0.16977 0.28619 0.0
H165 H 0.13287 0.13021 0.29813 0.0
C166 C 0.10258 0.10585 0.43599 0.0
C167 C 0.08879 0.09631 0.51304 0.0
C168 C 0.1321 0.12878 0.42837 0.0
C169 C 0.10459 0.11025 0.58258 0.0
C170 C 0.13455 0.13222 0.57509 0.0
C171 C 0.17906 0.16303 0.49022 0.0
C172 C 0.1924 0.17332 0.41394 0.0
C173 C 0.14867 0.14139 0.49825 0.0
C174 C 0.17508 0.16189 0.34537 0.0
C175 C 0.14541 0.13932 0.35224 0.0
H176 H 0.08257 0.92459 0.64584 0.0
H177 H 0.16309 0.99835 0.56322 0.0
H178 H 0.21205 0.95391 0.56932 0.0
H179 H 0.23197 0.89507 0.60244 0.0
H180 H 0.15174 0.82253 0.69292 0.0
H181 H 0.1027 0.86568 0.68069 0.0
C182 C 0.11084 0.93058 0.62797 0.0
C183 C 0.11934 0.96439 0.60314 0.0
C184 C 0.13887 0.90541 0.63439 0.0
C185 C 0.15602 0.97233 0.58204 0.0
C186 C 0.18397 0.94704 0.58589 0.0
C187 C 0.20377 0.88871 0.6197 0.0
C188 C 0.19558 0.85565 0.64867 0.0
C189 C 0.17574 0.9137 0.61296 0.0
C190 C 0.15885 0.84791 0.671 0.0
C191 C 0.13076 0.87247 0.66354 0.0
H192 H 0.32883 0.83212 0.90539 0.0
H193 H 0.33359 0.83122 0.64403 0.0
H194 H 0.37656 0.88015 0.6487 0.0
H195 H 0.41177 0.92406 0.72705 0.0
H196 H 0.41211 0.92219 0.98566 0.0
H197 H 0.36844 0.87327 0.98237 0.0
C198 C 0.33941 0.84268 0.84963 0.0
C199 C 0.32787 0.82837 0.77458 0.0
C200 C 0.36501 0.8702 0.85234 0.0
C201 C 0.34211 0.8418 0.70244 0.0
C202 C 0.36661 0.86983 0.70509 0.0
C203 C 0.40229 0.91287 0.78267 0.0
C204 C 0.41467 0.92687 0.8567 0.0
C205 C 0.37806 0.88435 0.77967 0.0
C206 C 0.40283 0.91176 0.92801 0.0
C207 C 0.37782 0.88394 0.92612 0.0
H208 H 0.428 0.07965 0.18372 0.0
H209 H 0.41814 0.08438 0.92996 0.0
H210 H 0.37173 0.13425 0.97361 0.0
H211 H 0.33492 0.17747 0.08359 0.0
H212 H 0.34787 0.17591 0.33697 0.0
H213 H 0.39217 0.12405 0.29388 0.0
C214 C 0.41551 0.09147 0.1381 0.0
C215 C 0.42638 0.07824 0.05377 0.0
C216 C 0.38955 0.12087 0.16356 0.0
C217 C 0.41029 0.09414 0.99526 0.0
C218 C 0.38374 0.12264 0.02015 0.0
C219 C 0.34735 0.16571 0.12941 0.0
C220 C 0.33803 0.18048 0.21337 0.0
C221 C 0.37333 0.13639 0.10408 0.0
C222 C 0.35469 0.16517 0.2719 0.0
C223 C 0.37994 0.13543 0.24734 0.0
H224 H 0.92167 0.98288 0.68662 0.0
H225 H 0.95861 0.91866 0.44755 0.0
H226 H 0.91483 0.87249 0.47847 0.0
H227 H 0.86583 0.85077 0.57282 0.0
H228 H 0.82849 0.91567 0.81092 0.0
H229 H 0.87296 0.96122 0.78073 0.0
C230 C 0.9202 0.95883 0.64103 0.0
C231 C 0.94341 0.95431 0.56473 0.0
C232 C 0.89499 0.9325 0.65911 0.0
C233 C 0.94108 0.92289 0.50668 0.0
C234 C 0.91607 0.89646 0.52436 0.0
C235 C 0.86749 0.87479 0.61837 0.0
C236 C 0.84386 0.87976 0.69416 0.0
C237 C 0.89289 0.90102 0.60035 0.0
C238 C 0.84631 0.91115 0.75216 0.0
C239 C 0.87171 0.93723 0.73491 0.0
H240 H 0.8748 0.03953 0.36583 0.0
H241 H 0.94156 0.12655 0.45377 0.0
H242 H 0.89791 0.17193 0.42634 0.0
H243 H 0.84094 0.18687 0.37604 0.0
H244 H 0.7731 0.09987 0.294 0.0
H245 H 0.81733 0.05441 0.31915 0.0
C246 C 0.87974 0.06843 0.37946 0.0
C247 C 0.91142 0.07959 0.41179 0.0
C248 C 0.85457 0.09434 0.36352 0.0
C249 C 0.9173 0.11718 0.42933 0.0
C250 C 0.89248 0.14316 0.41312 0.0
C251 C 0.83615 0.15792 0.36271 0.0
C252 C 0.80412 0.1466 0.33224 0.0
C253 C 0.86118 0.13203 0.37958 0.0
C254 C 0.79771 0.10912 0.31705 0.0
C255 C 0.82289 0.08318 0.33171 0.0
H256 H 0.64155 0.19891 0.2069 0.0
H257 H 0.74216 0.13343 0.13794 0.0
H258 H 0.70844 0.07924 0.09837 0.0
H259 H 0.65027 0.05033 0.08406 0.0
H260 H 0.54977 0.11644 0.14422 0.0
H261 H 0.58339 0.17048 0.18538 0.0
C262 C 0.65593 0.17269 0.18351 0.0
C263 C 0.69415 0.16998 0.17583 0.0
C264 C 0.63642 0.14184 0.15862 0.0
C265 C 0.71269 0.13609 0.1442 0.0
C266 C 0.69344 0.10512 0.12161 0.0
C267 C 0.63577 0.07662 0.10576 0.0
C268 C 0.59761 0.07932 0.11122 0.0
C269 C 0.65531 0.10767 0.12842 0.0
C270 C 0.5792 0.11363 0.1389 0.0
C271 C 0.59837 0.14453 0.16296 0.0
H272 H 0.69308 0.86292 0.75523 0.0
H273 H 0.66228 0.80079 0.95223 0.0
H274 H 0.61196 0.84519 0.01073 0.0
H275 H 0.57623 0.90177 0.00567 0.0
H276 H 0.60715 0.9628 0.80658 0.0
H277 H 0.65767 0.91882 0.74985 0.0
C278 C 0.67541 0.85896 0.81095 0.0
C279 C 0.68168 0.82842 0.84907 0.0
C280 C 0.6464 0.88453 0.84423 0.0
C281 C 0.6583 0.82396 0.92135 0.0
C282 C 0.62943 0.8494 0.95499 0.0
C283 C 0.59408 0.90551 0.95003 0.0
C284 C 0.58775 0.93571 0.91077 0.0
C285 C 0.62318 0.87983 0.91697 0.0
C286 C 0.61119 0.93993 0.83841 0.0
C287 C 0.64019 0.91472 0.80568 0.0
H288 H 0.58968 0.57107 0.07472 0.0
H289 H 0.57254 0.55853 0.82072 0.0
H290 H 0.62148 0.59942 0.79036 0.0
H291 H 0.6691 0.63901 0.83571 0.0
H292 H 0.68956 0.64845 0.08693 0.0
H293 H 0.63966 0.60842 0.11853 0.0
C294 C 0.59665 0.57743 0.01288 0.0
C295 C 0.57728 0.56211 0.95031 0.0
C296 C 0.62552 0.6003 0.99524 0.0
C297 C 0.58696 0.57005 0.87006 0.0
C298 C 0.61495 0.59345 0.85258 0.0
C299 C 0.6626 0.63229 0.89735 0.0
C300 C 0.68278 0.64678 0.95897 0.0
C301 C 0.63438 0.60877 0.91466 0.0
C302 C 0.67443 0.63751 0.03833 0.0
C303 C 0.64584 0.61473 0.05654 0.0
H304 H 0.65787 0.31697 0.10948 0.0
H305 H 0.73291 0.39748 0.18839 0.0
H306 H 0.68981 0.44671 0.17763 0.0
H307 H 0.63197 0.46691 0.1422 0.0
H308 H 0.55715 0.38732 0.05742 0.0
H309 H 0.5992 0.33764 0.0728 0.0
C310 C 0.66442 0.34532 0.1254 0.0
C311 C 0.6983 0.3537 0.15041 0.0
C312 C 0.63987 0.37357 0.11676 0.0
C313 C 0.70692 0.39046 0.16924 0.0
C314 C 0.68237 0.41859 0.16282 0.0
C315 C 0.62479 0.43871 0.12688 0.0
C316 C 0.59148 0.43085 0.09862 0.0
C317 C 0.649 0.41046 0.13576 0.0
C318 C 0.58274 0.39412 0.07881 0.0
C319 C 0.60668 0.36572 0.08807 0.0
H320 H 0.88954 0.42183 0.42267 0.0
H321 H 0.90545 0.44272 0.17176 0.0
H322 H 0.86771 0.39185 0.13196 0.0
H323 H 0.83074 0.34082 0.16784 0.0
H324 H 0.80965 0.32338 0.42084 0.0
H325 H 0.84893 0.37317 0.46047 0.0
C326 C 0.88457 0.41523 0.35944 0.0
C327 C 0.90029 0.43587 0.30022 0.0
C328 C 0.86209 0.38642 0.33728 0.0
C329 C 0.89343 0.42736 0.21861 0.0
C330 C 0.87201 0.39815 0.19566 0.0
C331 C 0.83482 0.34792 0.23157 0.0
C332 C 0.81769 0.32829 0.2912 0.0
C333 C 0.85635 0.37739 0.25434 0.0
C334 C 0.82269 0.33809 0.37382 0.0
C335 C 0.84512 0.36654 0.39651 0.0
H336 H 0.83047 0.64948 0.76024 0.0
H337 H 0.84635 0.70503 0.54822 0.0
H338 H 0.8934 0.65892 0.47917 0.0
H339 H 0.93038 0.6028 0.47863 0.0
H340 H 0.91494 0.54779 0.69149 0.0
H341 H 0.86766 0.59369 0.76008 0.0
C342 C 0.84411 0.65151 0.69884 0.0
C343 C 0.83469 0.6808 0.65972 0.0
C344 C 0.87141 0.62497 0.65942 0.0
C345 C 0.85294 0.68292 0.58017 0.0
C346 C 0.87992 0.6565 0.54045 0.0
C347 C 0.91668 0.6008 0.54 0.0
C348 C 0.92631 0.57173 0.57953 0.0
C349 C 0.88944 0.62742 0.57947 0.0
C350 C 0.90823 0.56978 0.6593 0.0
C351 C 0.88108 0.59604 0.69873 0.0
H352 H 0.3573 0.32371 0.08083 0.0
H353 H 0.29174 0.40938 0.24717 0.0
H354 H 0.33562 0.45444 0.20836 0.0
H355 H 0.39119 0.46965 0.12334 0.0
H356 H 0.45422 0.38494 0.94828 0.0
H357 H 0.41257 0.33924 0.99359 0.0
C358 C 0.35301 0.35218 0.10933 0.0
C359 C 0.32175 0.36332 0.16751 0.0
C360 C 0.37757 0.37806 0.08431 0.0
C361 C 0.31582 0.40032 0.20262 0.0
C362 C 0.34079 0.42602 0.18025 0.0
C363 C 0.39586 0.44117 0.09516 0.0
C364 C 0.42573 0.43067 0.03258 0.0
C365 C 0.3715 0.41526 0.12046 0.0
C366 C 0.43126 0.39373 0.99619 0.0
C367 C 0.40758 0.36759 0.02235 0.0
H368 H 0.35327 0.53311 0.86609 0.0
H369 H 0.43673 0.6068 0.93013 0.0
H370 H 0.39781 0.65899 0.91622 0.0
H371 H 0.3403 0.68366 0.88339 0.0
H372 H 0.25595 0.61005 0.82613 0.0
H373 H 0.29517 0.5578 0.83861 0.0
C374 C 0.36288 0.5606 0.87753 0.0
C375 C 0.39788 0.566 0.89899 0.0
C376 C 0.34037 0.59046 0.86952 0.0
C377 C 0.40983 0.60185 0.91399 0.0
C378 C 0.38769 0.63171 0.90546 0.0
C379 C 0.33076 0.65611 0.87279 0.0
C380 C 0.29556 0.65054 0.85277 0.0
C381 C 0.35306 0.62631 0.88245 0.0
C382 C 0.28307 0.61488 0.84111 0.0
C383 C 0.30541 0.58505 0.84851 0.0
H384 H 0.18325 0.68244 0.59783 0.0
H385 H 0.16175 0.69167 0.86272 0.0
H386 H 0.11735 0.64415 0.8516 0.0
H387 H 0.08711 0.59771 0.76642 0.0
H388 H 0.10378 0.59167 0.50249 0.0
H389 H 0.1473 0.64061 0.51293 0.0
C390 C 0.16865 0.67409 0.65296 0.0
C391 C 0.17615 0.69 0.73093 0.0
C392 C 0.14233 0.64749 0.64616 0.0
C393 C 0.1566 0.6796 0.80206 0.0
C394 C 0.13125 0.65244 0.79576 0.0
C395 C 0.10005 0.60746 0.71136 0.0
C396 C 0.09274 0.59114 0.6338 0.0
C397 C 0.12428 0.63589 0.71817 0.0
C398 C 0.10909 0.60408 0.56277 0.0
C399 C 0.13406 0.63183 0.5688 0.0
H400 H 0.16161 0.32718 0.25648 0.0
H401 H 0.2127 0.35399 0.47413 0.0
H402 H 0.16423 0.40026 0.53277 0.0
H403 H 0.10755 0.43374 0.52212 0.0
H404 H 0.05707 0.40767 0.30349 0.0
H405 H 0.10496 0.36071 0.24579 0.0
C406 C 0.16215 0.3431 0.31678 0.0
C407 C 0.19084 0.33701 0.36065 0.0
C408 C 0.13424 0.36993 0.35015 0.0
C409 C 0.19107 0.35807 0.43868 0.0
C410 C 0.16329 0.38456 0.47247 0.0
C411 C 0.10689 0.41767 0.46203 0.0
C412 C 0.07868 0.42441 0.41727 0.0
C413 C 0.13475 0.39078 0.42876 0.0
C414 C 0.07852 0.40341 0.33917 0.0
C415 C 0.1059 0.3764 0.30609 0.0
H416 H 0.02821 0.06057 0.89783 0.0
H417 H 0.98739 0.95185 0.88011 0.0
H418 H 0.98975 0.95205 0.02623 0.0
H419 H 1.00317 0.98322 0.15991 0.0
H420 H 0.04392 0.09198 0.17676 0.0
H421 H 0.04205 0.09142 0.03061 0.0
C422 C 0.01968 0.03697 0.92595 0.0
C423 C 0.00756 1.00632 0.87792 0.0
C424 C 0.02129 0.03714 0.01006 0.0
C425 C 0.99683 0.97588 0.91547 0.0
C426 C 0.99822 0.97591 0.99914 0.0
C427 C 0.01189 1.00667 0.13145 0.0
C428 C 0.02369 0.03755 0.17944 0.0
C429 C 0.01049 1.00635 0.04709 0.0
C430 C 0.03466 0.06782 0.14153 0.0
C431 C 0.03355 0.0676 0.05781 0.0
H432 H 0.1974 0.75601 0.38899 0.0
H433 H 0.31277 0.74442 0.39845 0.0
H434 H 0.32644 0.74822 0.25184 0.0
H435 H 0.30573 0.75537 0.12169 0.0
H436 H 0.1904 0.76717 0.11205 0.0
H437 H 0.17666 0.76304 0.25857 0.0
C438 C 0.22553 0.75409 0.35893 0.0
C439 C 0.254 0.74987 0.40452 0.0
C440 C 0.23323 0.75663 0.27488 0.0
C441 C 0.29032 0.74765 0.36473 0.0
C442 C 0.29819 0.74991 0.28096 0.0
C443 C 0.27758 0.75721 0.15163 0.0
C444 C 0.24915 0.76167 0.10608 0.0
C445 C 0.26986 0.75459 0.2356 0.0
C446 C 0.21281 0.76382 0.14577 0.0
C447 C 0.20492 0.76137 0.22948 0.0
H448 H 0.49085 0.03967 0.64628 0.0
H449 H 0.53837 0.92965 0.5786 0.0
H450 H 0.53692 0.9327 0.4334 0.0
H451 H 0.52222 0.96659 0.32504 0.0
H452 H 0.4751 0.07677 0.39317 0.0
H453 H 0.47624 0.07351 0.53825 0.0
C454 C 0.50099 0.01638 0.59982 0.0
C455 C 0.51474 0.98452 0.62358 0.0
C456 C 0.50004 0.01825 0.51623 0.0
C457 C 0.52767 0.95458 0.56232 0.0
C458 C 0.52681 0.95625 0.4791 0.0
C459 C 0.51206 0.98983 0.37163 0.0
C460 C 0.49856 0.02184 0.34799 0.0
C461 C 0.513 0.98791 0.45528 0.0
C462 C 0.48568 0.05176 0.40935 0.0
C463 C 0.48634 0.04997 0.49251 0.0
H464 H 0.22472 0.27601 0.94008 0.0
H465 H 0.3359 0.23207 0.87828 0.0
H466 H 0.33439 0.23436 0.73299 0.0
H467 H 0.30185 0.24918 0.62282 0.0
H468 H 0.19075 0.29334 0.68401 0.0
H469 H 0.19205 0.29075 0.82945 0.0
C470 C 0.24854 0.26676 0.89479 0.0
C471 C 0.28033 0.25385 0.92037 0.0
C472 C 0.24764 0.26837 0.81092 0.0
C473 C 0.31102 0.24216 0.86066 0.0
C474 C 0.31024 0.2435 0.77734 0.0
C475 C 0.27796 0.25839 0.66795 0.0
C476 C 0.24631 0.27152 0.64223 0.0
C477 C 0.27878 0.2567 0.75173 0.0
C478 C 0.21555 0.28315 0.70179 0.0
C479 C 0.21621 0.28162 0.78517 0.0
H480 H 0.69997 0.24165 0.86902 0.0
H481 H 0.81473 0.25598 0.87639 0.0
H482 H 0.82477 0.25908 0.72904 0.0
H483 H 0.80108 0.25788 0.59874 0.0
H484 H 0.68639 0.24361 0.59061 0.0
H485 H 0.67621 0.24051 0.73821 0.0
C486 C 0.72723 0.24534 0.83845 0.0
C487 C 0.75658 0.2485 0.88377 0.0
C488 C 0.73279 0.24727 0.75379 0.0
C489 C 0.79166 0.25342 0.84308 0.0
C490 C 0.79742 0.25524 0.75882 0.0
C491 C 0.77378 0.25418 0.62911 0.0
C492 C 0.74451 0.25104 0.5836 0.0
C493 C 0.76818 0.25228 0.71369 0.0
C494 C 0.70939 0.24617 0.62413 0.0
C495 C 0.70356 0.24434 0.70849 0.0
H496 H 0.82548 0.76565 0.34264 0.0
H497 H 0.71342 0.78488 0.46042 0.0
H498 H 0.69347 0.78236 0.32633 0.0
H499 H 0.70753 0.77335 0.1761 0.0
H500 H 0.81924 0.7526 0.05733 0.0
H501 H 0.83966 0.75743 0.19176 0.0
C502 C 0.79669 0.76933 0.33902 0.0
C503 C 0.771 0.77534 0.4114 0.0
C504 C 0.78535 0.76771 0.2617 0.0
C505 C 0.73379 0.78008 0.40563 0.0
C506 C 0.72233 0.77872 0.329 0.0
C507 C 0.73639 0.77018 0.17951 0.0
C508 C 0.76183 0.76264 0.10691 0.0
C509 C 0.74785 0.77243 0.25671 0.0
C510 C 0.7991 0.75839 0.11241 0.0
C511 C 0.81079 0.76107 0.18919 0.0
H512 H 0.47539 0.46139 0.62047 0.0
H513 H 0.52288 0.56712 0.63804 0.0
H514 H 0.52102 0.56779 0.49226 0.0
H515 H 0.50622 0.53839 0.35886 0.0
H516 H 0.45826 0.43288 0.34116 0.0
H517 H 0.4598 0.43232 0.48719 0.0
C518 C 0.48549 0.48448 0.59229 0.0
C519 C 0.49935 0.51407 0.64031 0.0
C520 C 0.48407 0.4849 0.50816 0.0
C521 C 0.51203 0.54393 0.60278 0.0
C522 C 0.51096 0.5444 0.51924 0.0
C523 C 0.49588 0.51538 0.38702 0.0
C524 C 0.48215 0.48577 0.33882 0.0
C525 C 0.49698 0.51509 0.47128 0.0
C526 C 0.46901 0.45611 0.37653 0.0
C527 C 0.46994 0.45568 0.4602 0.0
H528 H 0.02624 0.47361 0.82991 0.0
H529 H 0.97126 0.58031 0.90179 0.0
H530 H 0.9728 0.57636 0.04669 0.0
H531 H 0.98846 0.54193 0.15296 0.0
H532 H 0.04263 0.43488 0.08029 0.0
H533 H 0.04304 0.4399 0.93547 0.0
C534 C 0.01452 0.49601 0.87719 0.0
C535 C 0.9985 0.52711 0.85507 0.0
C536 C 0.01555 0.4936 0.96019 0.0
C537 C 0.98365 0.55597 0.91715 0.0
C538 C 0.98459 0.55379 1.00002 0.0
C539 C 1.00072 0.51988 0.10541 0.0
C540 C 0.0155 0.4881 0.12732 0.0
C541 C 1.00039 0.52269 0.02224 0.0
C542 C 0.03102 0.45963 0.06504 0.0
C543 C 0.03118 0.46241 0.98221 0.0
loop_
_geom_bond_atom_site_label_1
_geom_bond_atom_site_label_2
_geom_bond_distance
_geom_bond_site_symmetry_2
_ccdc_geom_bond_type
Zn0 O6 1.969 1_545 S
Zn0 O7 1.965 1_655 S
Zn0 O11 2.024 . S
Zn0 O16 1.969 1_545 S
Zn1 O8 1.969 1_565 S
Zn1 O14 1.969 1_565 S
Zn1 O15 1.965 1_455 S
Zn1 O17 2.024 . S
C2 O3 1.229 . S
C2 O11 1.058 . S
O3 C2 1.229 . S
C4 O5 1.229 . S
C4 O17 1.058 . S
O5 C4 1.229 . S
O6 Zn0 1.969 1_565 S
O6 C9 1.267 1_565 S
O7 Zn0 1.965 1_455 S
O7 C18 1.260 . S
O8 Zn1 1.969 1_545 S
O8 C18 1.258 . S
C9 O6 1.267 1_545 S
C9 O10 1.232 . S
O10 C9 1.232 . S
O11 Zn0 2.024 . S
O11 C2 1.058 . S
C12 O13 1.234 . S
C12 O14 1.267 1_565 S
O13 C12 1.234 . S
O14 Zn1 1.969 1_545 S
O14 C12 1.267 1_545 S
O15 Zn1 1.965 1_655 S
O15 C19 1.260 . S
O16 Zn0 1.969 1_565 S
O16 C19 1.258 . S
O17 Zn1 2.024 . S
O17 C4 1.058 . S
C18 O7 1.260 . S
C18 O8 1.258 . S
C19 O15 1.260 . S
C19 O16 1.258 . S
Zn20 O26 1.969 . S
Zn20 O27 1.965 . S
Zn20 O31 2.024 . S
Zn20 O36 1.969 . S
Zn21 O28 1.969 . S
Zn21 O34 1.969 . S
Zn21 O35 1.965 . S
Zn21 O37 2.024 . S
C22 O23 1.229 . S
C22 O31 1.058 . S
O23 C22 1.229 . S
C24 O25 1.229 . S
C24 O37 1.058 . S
O25 C24 1.229 . S
O26 Zn20 1.969 . S
O26 C29 1.267 1_556 S
O27 Zn20 1.965 . S
O27 C38 1.260 . S
O28 Zn21 1.969 . S
O28 C38 1.258 . S
C29 O26 1.267 1_554 S
C29 O30 1.228 1_554 S
O30 C29 1.228 1_556 S
O31 Zn20 2.024 . S
O31 C22 1.058 . S
C32 O33 1.228 . S
C32 O34 1.267 . S
O33 C32 1.228 . S
O34 Zn21 1.969 . S
O34 C32 1.267 . S
O35 Zn21 1.965 . S
O35 C39 1.260 . S
O36 Zn20 1.969 . S
O36 C39 1.258 . S
O37 Zn21 2.024 . S
O37 C24 1.058 . S
C38 O27 1.260 . S
C38 O28 1.258 . S
C39 O35 1.260 . S
C39 O36 1.258 . S
Zn40 O46 1.969 1_545 S
Zn40 O47 1.965 . S
Zn40 O51 2.024 . S
Zn40 O56 1.969 1_545 S
Zn41 O48 1.969 1_565 S
Zn41 O54 1.969 1_565 S
Zn41 O55 1.965 . S
Zn41 O57 2.024 . S
C42 O43 1.229 . S
C42 O51 1.058 . S
O43 C42 1.229 . S
C44 O45 1.229 . S
C44 O57 1.058 . S
O45 C44 1.229 . S
O46 Zn40 1.969 1_565 S
O46 C49 1.267 1_565 S
O47 Zn40 1.965 . S
O47 C58 1.260 . S
O48 Zn41 1.969 1_545 S
O48 C58 1.258 1_556 S
C49 O46 1.267 1_545 S
C49 O50 1.228 . S
O50 C49 1.228 . S
O51 Zn40 2.024 . S
O51 C42 1.058 . S
C52 O53 1.228 . S
C52 O54 1.267 1_565 S
O53 C52 1.228 . S
O54 Zn41 1.969 1_545 S
O54 C52 1.267 1_545 S
O55 Zn41 1.965 . S
O55 C59 1.260 . S
O56 Zn40 1.969 1_565 S
O56 C59 1.258 1_554 S
O57 Zn41 2.024 . S
O57 C44 1.058 . S
C58 O47 1.260 . S
C58 O48 1.258 1_554 S
C59 O55 1.260 . S
C59 O56 1.258 1_556 S
Zn60 O66 1.969 . S
Zn60 O67 1.965 . S
Zn60 O71 2.024 . S
Zn60 O76 1.969 . S
Zn61 O68 1.969 . S
Zn61 O74 1.969 . S
Zn61 O75 1.965 . S
Zn61 O77 2.024 . S
C62 O63 1.229 . S
C62 O71 1.058 . S
O63 C62 1.229 . S
C64 O65 1.229 . S
C64 O77 1.058 . S
O65 C64 1.229 . S
O66 Zn60 1.969 . S
O66 C69 1.267 1_554 S
O67 Zn60 1.965 . S
O67 C78 1.260 . S
O68 Zn61 1.969 . S
O68 C78 1.258 . S
C69 O66 1.267 1_556 S
C69 O70 1.228 . S
O70 C69 1.228 . S
O71 Zn60 2.024 . S
O71 C62 1.058 . S
C72 O73 1.228 . S
C72 O74 1.267 . S
O73 C72 1.228 . S
O74 Zn61 1.969 . S
O74 C72 1.267 . S
O75 Zn61 1.965 . S
O75 C79 1.260 . S
O76 Zn60 1.969 . S
O76 C79 1.258 . S
O77 Zn61 2.024 . S
O77 C64 1.058 . S
C78 O67 1.260 . S
C78 O68 1.258 . S
C79 O75 1.260 . S
C79 O76 1.258 . S
Zn80 O86 1.969 . S
Zn80 O87 1.965 . S
Zn80 O91 2.024 . S
Zn80 O96 1.969 . S
Zn81 O88 1.969 . S
Zn81 O94 1.969 . S
Zn81 O95 1.965 . S
Zn81 O97 2.024 . S
C82 O83 1.229 . S
C82 O91 1.058 . S
O83 C82 1.229 . S
C84 O85 1.229 . S
C84 O97 1.058 . S
O85 C84 1.229 . S
O86 Zn80 1.969 . S
O86 C89 1.267 . S
O87 Zn80 1.965 . S
O87 C98 1.260 . S
O88 Zn81 1.969 . S
O88 C98 1.258 . S
C89 O86 1.267 . S
C89 O90 1.228 . S
O90 C89 1.228 . S
O91 Zn80 2.024 . S
O91 C82 1.058 . S
C92 O93 1.228 1_556 S
C92 O94 1.267 1_556 S
O93 C92 1.228 1_554 S
O94 Zn81 1.969 . S
O94 C92 1.267 1_554 S
O95 Zn81 1.965 . S
O95 C99 1.260 . S
O96 Zn80 1.969 . S
O96 C99 1.258 . S
O97 Zn81 2.024 . S
O97 C84 1.058 . S
C98 O87 1.260 . S
C98 O88 1.258 . S
C99 O95 1.260 . S
C99 O96 1.258 . S
Zn100 O106 1.969 . S
Zn100 O107 1.965 . S
Zn100 O111 2.024 . S
Zn100 O116 1.969 . S
Zn101 O108 1.969 . S
Zn101 O114 1.969 . S
Zn101 O115 1.965 . S
Zn101 O117 2.024 . S
C102 O103 1.229 . S
C102 O111 1.058 . S
O103 C102 1.229 . S
C104 O105 1.229 . S
C104 O117 1.058 . S
O105 C104 1.229 . S
O106 Zn100 1.969 . S
O106 C109 1.267 . S
O107 Zn100 1.965 . S
O107 C118 1.260 . S
O108 Zn101 1.969 . S
O108 C118 1.258 . S
C109 O106 1.267 . S
C109 O110 1.228 . S
O110 C109 1.228 . S
O111 Zn100 2.024 . S
O111 C102 1.058 . S
C112 O113 1.228 . S
C112 O114 1.267 1_554 S
O113 C112 1.228 . S
O114 Zn101 1.969 . S
O114 C112 1.267 1_556 S
O115 Zn101 1.965 . S
O115 C119 1.260 . S
O116 Zn100 1.969 . S
O116 C119 1.258 . S
O117 Zn101 2.024 . S
O117 C104 1.058 . S
C118 O107 1.260 . S
C118 O108 1.258 . S
C119 O115 1.260 . S
C119 O116 1.258 . S
Zn120 O126 1.969 . S
Zn120 O127 1.965 . S
Zn120 O131 2.024 . S
Zn120 O136 1.969 . S
Zn121 O128 1.969 . S
Zn121 O134 1.969 . S
Zn121 O135 1.965 . S
Zn121 O137 2.024 . S
C122 O123 1.229 . S
C122 O131 1.058 . S
O123 C122 1.229 . S
C124 O125 1.229 . S
C124 O137 1.058 . S
O125 C124 1.229 . S
O126 Zn120 1.969 . S
O126 C129 1.267 . S
O127 Zn120 1.965 . S
O127 C138 1.260 . S
O128 Zn121 1.969 . S
O128 C138 1.258 1_554 S
C129 O126 1.267 . S
C129 O130 1.228 . S
O130 C129 1.228 . S
O131 Zn120 2.024 . S
O131 C122 1.058 . S
C132 O133 1.228 . S
C132 O134 1.267 . S
O133 C132 1.228 . S
O134 Zn121 1.969 . S
O134 C132 1.267 . S
O135 Zn121 1.965 . S
O135 C139 1.260 . S
O136 Zn120 1.969 . S
O136 C139 1.258 1_556 S
O137 Zn121 2.024 . S
O137 C124 1.058 . S
C138 O127 1.260 . S
C138 O128 1.258 1_556 S
C139 O135 1.260 . S
C139 O136 1.258 1_554 S
Zn140 O146 1.969 . S
Zn140 O147 1.965 1_455 S
Zn140 O151 2.024 . S
Zn140 O156 1.969 . S
Zn141 O148 1.969 . S
Zn141 O154 1.969 . S
Zn141 O155 1.965 1_655 S
Zn141 O157 2.024 . S
C142 O143 1.229 . S
C142 O151 1.058 . S
O143 C142 1.229 . S
C144 O145 1.229 . S
C144 O157 1.058 . S
O145 C144 1.229 . S
O146 Zn140 1.969 . S
O146 C149 1.267 . S
O147 Zn140 1.965 1_655 S
O147 C158 1.260 . S
O148 Zn141 1.969 . S
O148 C158 1.258 . S
C149 O146 1.267 . S
C149 O150 1.229 . S
O150 C149 1.229 . S
O151 Zn140 2.024 . S
O151 C142 1.058 . S
C152 O153 1.228 . S
C152 O154 1.267 . S
O153 C152 1.228 . S
O154 Zn141 1.969 . S
O154 C152 1.267 . S
O155 Zn141 1.965 1_455 S
O155 C159 1.260 . S
O156 Zn140 1.969 . S
O156 C159 1.258 . S
O157 Zn141 2.024 . S
O157 C144 1.058 . S
C158 O147 1.260 . S
C158 O148 1.258 . S
C159 O155 1.260 . S
C159 O156 1.258 . S
H160 C166 0.930 . S
H161 C169 0.930 . S
H162 C170 0.930 . S
H163 C171 0.930 . S
H164 C174 0.930 . S
H165 C175 0.930 . S
C166 H160 0.930 . S
C166 C167 1.355 . S
C166 C168 1.415 . S
C167 C166 1.355 . S
C167 C169 1.419 . S
C168 C166 1.415 . S
C168 C173 1.425 . S
C168 C175 1.409 . S
C169 H161 0.930 . S
C169 C167 1.419 . S
C169 C170 1.362 . S
C170 H162 0.930 . S
C170 C169 1.362 . S
C170 C173 1.409 . S
C171 H163 0.930 . S
C171 C172 1.355 . S
C171 C173 1.415 . S
C172 C171 1.355 . S
C172 C174 1.419 . S
C173 C168 1.425 . S
C173 C170 1.409 . S
C173 C171 1.415 . S
C174 H164 0.930 . S
C174 C172 1.419 . S
C174 C175 1.362 . S
C175 H165 0.930 . S
C175 C168 1.409 . S
C175 C174 1.362 . S
H176 C182 0.930 . S
H177 C185 0.930 . S
H178 C186 0.930 . S
H179 C187 0.930 . S
H180 C190 0.930 . S
H181 C191 0.930 . S
C182 H176 0.930 . S
C182 C183 1.355 . S
C182 C184 1.415 . S
C183 C182 1.355 . S
C183 C185 1.419 . S
C184 C182 1.415 . S
C184 C189 1.425 . S
C184 C191 1.409 . S
C185 H177 0.930 . S
C185 C183 1.419 . S
C185 C186 1.362 . S
C186 H178 0.930 . S
C186 C185 1.362 . S
C186 C189 1.409 . S
C187 H179 0.930 . S
C187 C188 1.355 . S
C187 C189 1.415 . S
C188 C187 1.355 . S
C188 C190 1.419 . S
C189 C184 1.425 . S
C189 C186 1.409 . S
C189 C187 1.415 . S
C190 H180 0.930 . S
C190 C188 1.419 . S
C190 C191 1.362 . S
C191 H181 0.930 . S
C191 C184 1.409 . S
C191 C190 1.362 . S
H192 C198 0.930 . S
H193 C201 0.930 . S
H194 C202 0.930 . S
H195 C203 0.930 . S
H196 C206 0.930 . S
H197 C207 0.930 . S
C198 H192 0.930 . S
C198 C199 1.355 . S
C198 C200 1.415 . S
C199 C198 1.355 . S
C199 C201 1.419 . S
C200 C198 1.415 . S
C200 C205 1.425 . S
C200 C207 1.409 . S
C201 H193 0.930 . S
C201 C199 1.419 . S
C201 C202 1.362 . S
C202 H194 0.930 . S
C202 C201 1.362 . S
C202 C205 1.409 . S
C203 H195 0.930 . S
C203 C204 1.355 . S
C203 C205 1.415 . S
C204 C203 1.355 . S
C204 C206 1.419 . S
C205 C200 1.425 . S
C205 C202 1.409 . S
C205 C203 1.415 . S
C206 H196 0.930 . S
C206 C204 1.419 . S
C206 C207 1.362 . S
C207 H197 0.930 . S
C207 C200 1.409 . S
C207 C206 1.362 . S
H208 C214 0.930 . S
H209 C217 0.930 . S
H210 C218 0.930 . S
H211 C219 0.930 . S
H212 C222 0.930 . S
H213 C223 0.930 . S
C214 H208 0.930 . S
C214 C215 1.355 . S
C214 C216 1.415 . S
C215 C214 1.355 . S
C215 C217 1.419 . S
C216 C214 1.415 . S
C216 C221 1.425 . S
C216 C223 1.409 . S
C217 H209 0.930 . S
C217 C215 1.419 . S
C217 C218 1.362 . S
C218 H210 0.930 . S
C218 C217 1.362 . S
C218 C221 1.409 . S
C219 H211 0.930 . S
C219 C220 1.355 . S
C219 C221 1.415 . S
C220 C219 1.355 . S
C220 C222 1.419 . S
C221 C216 1.425 . S
C221 C218 1.409 . S
C221 C219 1.415 . S
C222 H212 0.930 . S
C222 C220 1.419 . S
C222 C223 1.362 . S
C223 H213 0.930 . S
C223 C216 1.409 . S
C223 C222 1.362 . S
H224 C230 0.930 . S
H225 C233 0.930 . S
H226 C234 0.930 . S
H227 C235 0.930 . S
H228 C238 0.930 . S
H229 C239 0.930 . S
C230 H224 0.930 . S
C230 C231 1.355 . S
C230 C232 1.415 . S
C231 C230 1.355 . S
C231 C233 1.419 . S
C232 C230 1.415 . S
C232 C237 1.425 . S
C232 C239 1.409 . S
C233 H225 0.930 . S
C233 C231 1.419 . S
C233 C234 1.362 . S
C234 H226 0.930 . S
C234 C233 1.362 . S
C234 C237 1.409 . S
C235 H227 0.930 . S
C235 C236 1.355 . S
C235 C237 1.415 . S
C236 C235 1.355 . S
C236 C238 1.419 . S
C237 C232 1.425 . S
C237 C234 1.409 . S
C237 C235 1.415 . S
C238 H228 0.930 . S
C238 C236 1.419 . S
C238 C239 1.362 . S
C239 H229 0.930 . S
C239 C232 1.409 . S
C239 C238 1.362 . S
H240 C246 0.930 . S
H241 C249 0.930 . S
H242 C250 0.930 . S
H243 C251 0.930 . S
H244 C254 0.930 . S
H245 C255 0.930 . S
C246 H240 0.930 . S
C246 C247 1.355 . S
C246 C248 1.415 . S
C247 C246 1.355 . S
C247 C249 1.419 . S
C248 C246 1.415 . S
C248 C253 1.425 . S
C248 C255 1.409 . S
C249 H241 0.930 . S
C249 C247 1.419 . S
C249 C250 1.362 . S
C250 H242 0.930 . S
C250 C249 1.362 . S
C250 C253 1.409 . S
C251 H243 0.930 . S
C251 C252 1.355 . S
C251 C253 1.415 . S
C252 C251 1.355 . S
C252 C254 1.419 . S
C253 C248 1.425 . S
C253 C250 1.409 . S
C253 C251 1.415 . S
C254 H244 0.930 . S
C254 C252 1.419 . S
C254 C255 1.362 . S
C255 H245 0.930 . S
C255 C248 1.409 . S
C255 C254 1.362 . S
H256 C262 0.930 . S
H257 C265 0.930 . S
H258 C266 0.930 . S
H259 C267 0.930 . S
H260 C270 0.930 . S
H261 C271 0.930 . S
C262 H256 0.930 . S
C262 C263 1.355 . S
C262 C264 1.415 . S
C263 C262 1.355 . S
C263 C265 1.419 . S
C264 C262 1.415 . S
C264 C269 1.425 . S
C264 C271 1.409 . S
C265 H257 0.930 . S
C265 C263 1.419 . S
C265 C266 1.362 . S
C266 H258 0.930 . S
C266 C265 1.362 . S
C266 C269 1.409 . S
C267 H259 0.930 . S
C267 C268 1.355 . S
C267 C269 1.415 . S
C268 C267 1.355 . S
C268 C270 1.419 . S
C269 C264 1.425 . S
C269 C266 1.409 . S
C269 C267 1.415 . S
C270 H260 0.930 . S
C270 C268 1.419 . S
C270 C271 1.362 . S
C271 H261 0.930 . S
C271 C264 1.409 . S
C271 C270 1.362 . S
H272 C278 0.930 . S
H273 C281 0.930 . S
H274 C282 0.930 1_554 S
H275 C283 0.930 1_554 S
H276 C286 0.930 . S
H277 C287 0.930 . S
C278 H272 0.930 . S
C278 C279 1.355 . S
C278 C280 1.415 . S
C279 C278 1.355 . S
C279 C281 1.419 . S
C280 C278 1.415 . S
C280 C285 1.425 . S
C280 C287 1.409 . S
C281 H273 0.930 . S
C281 C279 1.419 . S
C281 C282 1.362 . S
C282 H274 0.930 1_556 S
C282 C281 1.362 . S
C282 C285 1.409 . S
C283 H275 0.930 1_556 S
C283 C284 1.355 . S
C283 C285 1.415 . S
C284 C283 1.355 . S
C284 C286 1.419 . S
C285 C280 1.425 . S
C285 C282 1.409 . S
C285 C283 1.415 . S
C286 H276 0.930 . S
C286 C284 1.419 . S
C286 C287 1.362 . S
C287 H277 0.930 . S
C287 C280 1.409 . S
C287 C286 1.362 . S
H288 C294 0.930 1_554 S
H289 C297 0.930 . S
H290 C298 0.930 . S
H291 C299 0.930 . S
H292 C302 0.930 . S
H293 C303 0.930 1_554 S
C294 H288 0.930 1_556 S
C294 C295 1.355 . S
C294 C296 1.415 . S
C295 C294 1.355 . S
C295 C297 1.419 . S
C296 C294 1.415 . S
C296 C301 1.425 . S
C296 C303 1.409 . S
C297 H289 0.930 . S
C297 C295 1.419 . S
C297 C298 1.362 . S
C298 H290 0.930 . S
C298 C297 1.362 . S
C298 C301 1.409 . S
C299 H291 0.930 . S
C299 C300 1.355 . S
C299 C301 1.415 . S
C300 C299 1.355 . S
C300 C302 1.419 . S
C301 C296 1.425 . S
C301 C298 1.409 . S
C301 C299 1.415 . S
C302 H292 0.930 . S
C302 C300 1.419 . S
C302 C303 1.362 . S
C303 H293 0.930 1_556 S
C303 C296 1.409 . S
C303 C302 1.362 . S
H304 C310 0.930 . S
H305 C313 0.930 . S
H306 C314 0.930 . S
H307 C315 0.930 . S
H308 C318 0.930 . S
H309 C319 0.930 . S
C310 H304 0.930 . S
C310 C311 1.355 . S
C310 C312 1.415 . S
C311 C310 1.355 . S
C311 C313 1.419 . S
C312 C310 1.415 . S
C312 C317 1.425 . S
C312 C319 1.409 . S
C313 H305 0.930 . S
C313 C311 1.419 . S
C313 C314 1.362 . S
C314 H306 0.930 . S
C314 C313 1.362 . S
C314 C317 1.409 . S
C315 H307 0.930 . S
C315 C316 1.355 . S
C315 C317 1.415 . S
C316 C315 1.355 . S
C316 C318 1.419 . S
C317 C312 1.425 . S
C317 C314 1.409 . S
C317 C315 1.415 . S
C318 H308 0.930 . S
C318 C316 1.419 . S
C318 C319 1.362 . S
C319 H309 0.930 . S
C319 C312 1.409 . S
C319 C318 1.362 . S
H320 C326 0.930 . S
H321 C329 0.930 . S
H322 C330 0.930 . S
H323 C331 0.930 . S
H324 C334 0.930 . S
H325 C335 0.930 . S
C326 H320 0.930 . S
C326 C327 1.355 . S
C326 C328 1.415 . S
C327 C326 1.355 . S
C327 C329 1.419 . S
C328 C326 1.415 . S
C328 C333 1.425 . S
C328 C335 1.409 . S
C329 H321 0.930 . S
C329 C327 1.419 . S
C329 C330 1.362 . S
C330 H322 0.930 . S
C330 C329 1.362 . S
C330 C333 1.409 . S
C331 H323 0.930 . S
C331 C332 1.355 . S
C331 C333 1.415 . S
C332 C331 1.355 . S
C332 C334 1.419 . S
C333 C328 1.425 . S
C333 C330 1.409 . S
C333 C331 1.415 . S
C334 H324 0.930 . S
C334 C332 1.419 . S
C334 C335 1.362 . S
C335 H325 0.930 . S
C335 C328 1.409 . S
C335 C334 1.362 . S
H336 C342 0.930 . S
H337 C345 0.930 . S
H338 C346 0.930 . S
H339 C347 0.930 . S
H340 C350 0.930 . S
H341 C351 0.930 . S
C342 H336 0.930 . S
C342 C343 1.355 . S
C342 C344 1.415 . S
C343 C342 1.355 . S
C343 C345 1.419 . S
C344 C342 1.415 . S
C344 C349 1.425 . S
C344 C351 1.409 . S
C345 H337 0.930 . S
C345 C343 1.419 . S
C345 C346 1.362 . S
C346 H338 0.930 . S
C346 C345 1.362 . S
C346 C349 1.409 . S
C347 H339 0.930 . S
C347 C348 1.355 . S
C347 C349 1.415 . S
C348 C347 1.355 . S
C348 C350 1.419 . S
C349 C344 1.425 . S
C349 C346 1.409 . S
C349 C347 1.415 . S
C350 H340 0.930 . S
C350 C348 1.419 . S
C350 C351 1.362 . S
C351 H341 0.930 . S
C351 C344 1.409 . S
C351 C350 1.362 . S
H352 C358 0.930 . S
H353 C361 0.930 . S
H354 C362 0.930 . S
H355 C363 0.930 . S
H356 C366 0.930 . S
H357 C367 0.930 . S
C358 H352 0.930 . S
C358 C359 1.355 . S
C358 C360 1.415 . S
C359 C358 1.355 . S
C359 C361 1.419 . S
C360 C358 1.415 . S
C360 C365 1.425 . S
C360 C367 1.409 . S
C361 H353 0.930 . S
C361 C359 1.419 . S
C361 C362 1.362 . S
C362 H354 0.930 . S
C362 C361 1.362 . S
C362 C365 1.409 . S
C363 H355 0.930 . S
C363 C364 1.355 . S
C363 C365 1.415 . S
C364 C363 1.355 . S
C364 C366 1.419 . S
C365 C360 1.425 . S
C365 C362 1.409 . S
C365 C363 1.415 . S
C366 H356 0.930 . S
C366 C364 1.419 . S
C366 C367 1.362 . S
C367 H357 0.930 . S
C367 C360 1.409 . S
C367 C366 1.362 . S
H368 C374 0.930 . S
H369 C377 0.930 . S
H370 C378 0.930 . S
H371 C379 0.930 . S
H372 C382 0.930 . S
H373 C383 0.930 . S
C374 H368 0.930 . S
C374 C375 1.355 . S
C374 C376 1.415 . S
C375 C374 1.355 . S
C375 C377 1.419 . S
C376 C374 1.415 . S
C376 C381 1.425 . S
C376 C383 1.409 . S
C377 H369 0.930 . S
C377 C375 1.419 . S
C377 C378 1.362 . S
C378 H370 0.930 . S
C378 C377 1.362 . S
C378 C381 1.409 . S
C379 H371 0.930 . S
C379 C380 1.355 . S
C379 C381 1.415 . S
C380 C379 1.355 . S
C380 C382 1.419 . S
C381 C376 1.425 . S
C381 C378 1.409 . S
C381 C379 1.415 . S
C382 H372 0.930 . S
C382 C380 1.419 . S
C382 C383 1.362 . S
C383 H373 0.930 . S
C383 C376 1.409 . S
C383 C382 1.362 . S
H384 C390 0.930 . S
H385 C393 0.930 . S
H386 C394 0.930 . S
H387 C395 0.930 . S
H388 C398 0.930 . S
H389 C399 0.930 . S
C390 H384 0.930 . S
C390 C391 1.355 . S
C390 C392 1.415 . S
C391 C390 1.355 . S
C391 C393 1.419 . S
C392 C390 1.415 . S
C392 C397 1.425 . S
C392 C399 1.409 . S
C393 H385 0.930 . S
C393 C391 1.419 . S
C393 C394 1.362 . S
C394 H386 0.930 . S
C394 C393 1.362 . S
C394 C397 1.409 . S
C395 H387 0.930 . S
C395 C396 1.355 . S
C395 C397 1.415 . S
C396 C395 1.355 . S
C396 C398 1.419 . S
C397 C392 1.425 . S
C397 C394 1.409 . S
C397 C395 1.415 . S
C398 H388 0.930 . S
C398 C396 1.419 . S
C398 C399 1.362 . S
C399 H389 0.930 . S
C399 C392 1.409 . S
C399 C398 1.362 . S
H400 C406 0.930 . S
H401 C409 0.930 . S
H402 C410 0.930 . S
H403 C411 0.930 . S
H404 C414 0.930 . S
H405 C415 0.930 . S
C406 H400 0.930 . S
C406 C407 1.355 . S
C406 C408 1.415 . S
C407 C406 1.355 . S
C407 C409 1.419 . S
C408 C406 1.415 . S
C408 C413 1.425 . S
C408 C415 1.409 . S
C409 H401 0.930 . S
C409 C407 1.419 . S
C409 C410 1.362 . S
C410 H402 0.930 . S
C410 C409 1.362 . S
C410 C413 1.409 . S
C411 H403 0.930 . S
C411 C412 1.355 . S
C411 C413 1.415 . S
C412 C411 1.355 . S
C412 C414 1.419 . S
C413 C408 1.425 . S
C413 C410 1.409 . S
C413 C411 1.415 . S
C414 H404 0.930 . S
C414 C412 1.419 . S
C414 C415 1.362 . S
C415 H405 0.930 . S
C415 C408 1.409 . S
C415 C414 1.362 . S
H416 C422 0.930 . S
H417 C425 0.930 . S
H418 C426 0.930 . S
H419 C427 0.930 . S
H420 C430 0.930 . S
H421 C431 0.930 . S
C422 H416 0.930 . S
C422 C423 1.339 1_455 S
C422 C424 1.415 . S
C423 C422 1.339 1_655 S
C423 C425 1.436 1_545 S
C424 C422 1.415 . S
C424 C429 1.425 1_446 S
C424 C431 1.409 1_556 S
C425 H417 0.930 . S
C425 C423 1.436 1_565 S
C425 C426 1.362 . S
C426 H418 0.930 . S
C426 C425 1.362 . S
C426 C429 1.409 1_556 S
C427 H419 0.930 . S
C427 C428 1.333 1_655 S
C427 C429 1.415 . S
C428 C427 1.333 1_455 S
C428 C430 1.443 1_565 S
C429 C424 1.425 1_664 S
C429 C426 1.409 1_554 S
C429 C427 1.415 . S
C430 H420 0.930 . S
C430 C428 1.443 1_545 S
C430 C431 1.362 . S
C431 H421 0.930 . S
C431 C424 1.409 1_554 S
C431 C430 1.362 . S
H432 C438 0.930 . S
H433 C441 0.930 . S
H434 C442 0.930 . S
H435 C443 0.930 . S
H436 C446 0.930 . S
H437 C447 0.930 . S
C438 H432 0.930 . S
C438 C439 1.355 . S
C438 C440 1.415 . S
C439 C438 1.355 . S
C439 C441 1.419 . S
C440 C438 1.415 . S
C440 C445 1.425 . S
C440 C447 1.409 . S
C441 H433 0.930 . S
C441 C439 1.419 . S
C441 C442 1.362 . S
C442 H434 0.930 . S
C442 C441 1.362 . S
C442 C445 1.409 . S
C443 H435 0.930 . S
C443 C444 1.355 . S
C443 C445 1.415 . S
C444 C443 1.355 . S
C444 C446 1.419 . S
C445 C440 1.425 . S
C445 C442 1.409 . S
C445 C443 1.415 . S
C446 H436 0.930 . S
C446 C444 1.419 . S
C446 C447 1.362 . S
C447 H437 0.930 . S
C447 C440 1.409 . S
C447 C446 1.362 . S
H448 C454 0.930 . S
H449 C457 0.930 . S
H450 C458 0.930 . S
H451 C459 0.930 . S
H452 C462 0.930 . S
H453 C463 0.930 . S
C454 H448 0.930 . S
C454 C455 1.355 . S
C454 C456 1.422 . S
C455 C454 1.355 . S
C455 C457 1.419 . S
C456 C454 1.422 . S
C456 C461 1.421 1_565 S
C456 C463 1.404 1_565 S
C457 H449 0.930 . S
C457 C455 1.419 . S
C457 C458 1.362 . S
C458 H450 0.930 . S
C458 C457 1.362 . S
C458 C461 1.403 1_565 S
C459 H451 0.930 . S
C459 C460 1.355 . S
C459 C461 1.425 . S
C460 C459 1.355 . S
C460 C462 1.419 . S
C461 C456 1.421 1_545 S
C461 C458 1.403 1_545 S
C461 C459 1.425 . S
C462 H452 0.930 . S
C462 C460 1.419 . S
C462 C463 1.362 . S
C463 H453 0.930 . S
C463 C456 1.404 1_545 S
C463 C462 1.362 . S
H464 C470 0.930 . S
H465 C473 0.930 . S
H466 C474 0.930 . S
H467 C475 0.930 . S
H468 C478 0.930 . S
H469 C479 0.930 . S
C470 H464 0.930 . S
C470 C471 1.355 . S
C470 C472 1.415 . S
C471 C470 1.355 . S
C471 C473 1.419 . S
C472 C470 1.415 . S
C472 C477 1.425 . S
C472 C479 1.409 . S
C473 H465 0.930 . S
C473 C471 1.419 . S
C473 C474 1.362 . S
C474 H466 0.930 . S
C474 C473 1.362 . S
C474 C477 1.409 . S
C475 H467 0.930 . S
C475 C476 1.355 . S
C475 C477 1.415 . S
C476 C475 1.355 . S
C476 C478 1.419 . S
C477 C472 1.425 . S
C477 C474 1.409 . S
C477 C475 1.415 . S
C478 H468 0.930 . S
C478 C476 1.419 . S
C478 C479 1.362 . S
C479 H469 0.930 . S
C479 C472 1.409 . S
C479 C478 1.362 . S
H480 C486 0.930 . S
H481 C489 0.930 . S
H482 C490 0.930 . S
H483 C491 0.930 . S
H484 C494 0.930 . S
H485 C495 0.930 . S
C486 H480 0.930 . S
C486 C487 1.355 . S
C486 C488 1.415 . S
C487 C486 1.355 . S
C487 C489 1.419 . S
C488 C486 1.415 . S
C488 C493 1.425 . S
C488 C495 1.409 . S
C489 H481 0.930 . S
C489 C487 1.419 . S
C489 C490 1.362 . S
C490 H482 0.930 . S
C490 C489 1.362 . S
C490 C493 1.409 . S
C491 H483 0.930 . S
C491 C492 1.355 . S
C491 C493 1.415 . S
C492 C491 1.355 . S
C492 C494 1.419 . S
C493 C488 1.425 . S
C493 C490 1.409 . S
C493 C491 1.415 . S
C494 H484 0.930 . S
C494 C492 1.419 . S
C494 C495 1.362 . S
C495 H485 0.930 . S
C495 C488 1.409 . S
C495 C494 1.362 . S
H496 C502 0.930 . S
H497 C505 0.930 . S
H498 C506 0.930 . S
H499 C507 0.930 . S
H500 C510 0.930 . S
H501 C511 0.930 . S
C502 H496 0.930 . S
C502 C503 1.355 . S
C502 C504 1.415 . S
C503 C502 1.355 . S
C503 C505 1.419 . S
C504 C502 1.415 . S
C504 C509 1.425 . S
C504 C511 1.409 . S
C505 H497 0.930 . S
C505 C503 1.419 . S
C505 C506 1.362 . S
C506 H498 0.930 . S
C506 C505 1.362 . S
C506 C509 1.409 . S
C507 H499 0.930 . S
C507 C508 1.355 . S
C507 C509 1.415 . S
C508 C507 1.355 . S
C508 C510 1.419 . S
C509 C504 1.425 . S
C509 C506 1.409 . S
C509 C507 1.415 . S
C510 H500 0.930 . S
C510 C508 1.419 . S
C510 C511 1.362 . S
C511 H501 0.930 . S
C511 C504 1.409 . S
C511 C510 1.362 . S
H512 C518 0.930 . S
H513 C521 0.930 . S
H514 C522 0.930 . S
H515 C523 0.930 . S
H516 C526 0.930 . S
H517 C527 0.930 . S
C518 H512 0.930 . S
C518 C519 1.355 . S
C518 C520 1.415 . S
C519 C518 1.355 . S
C519 C521 1.419 . S
C520 C518 1.415 . S
C520 C525 1.425 . S
C520 C527 1.409 . S
C521 H513 0.930 . S
C521 C519 1.419 . S
C521 C522 1.362 . S
C522 H514 0.930 . S
C522 C521 1.362 . S
C522 C525 1.409 . S
C523 H515 0.930 . S
C523 C524 1.355 . S
C523 C525 1.415 . S
C524 C523 1.355 . S
C524 C526 1.419 . S
C525 C520 1.425 . S
C525 C522 1.409 . S
C525 C523 1.415 . S
C526 H516 0.930 . S
C526 C524 1.419 . S
C526 C527 1.362 . S
C527 H517 0.930 . S
C527 C520 1.409 . S
C527 C526 1.362 . S
H528 C534 0.930 . S
H529 C537 0.930 . S
H530 C538 0.930 1_554 S
H531 C539 0.930 . S
H532 C542 0.930 . S
H533 C543 0.930 1_556 S
C534 H528 0.930 . S
C534 C535 1.351 1_455 S
C534 C536 1.415 . S
C535 C534 1.351 1_655 S
C535 C537 1.423 . S
C536 C534 1.415 . S
C536 C541 1.425 1_456 S
C536 C543 1.409 1_556 S
C537 H529 0.930 . S
C537 C535 1.423 . S
C537 C538 1.362 . S
C538 H530 0.930 1_556 S
C538 C537 1.362 . S
C538 C541 1.409 1_556 S
C539 H531 0.930 . S
C539 C540 1.348 1_655 S
C539 C541 1.415 . S
C540 C539 1.348 1_455 S
C540 C542 1.425 . S
C541 C536 1.425 1_654 S
C541 C538 1.409 1_554 S
C541 C539 1.415 . S
C542 H532 0.930 . S
C542 C540 1.425 . S
C542 C543 1.362 . S
C543 H533 0.930 1_554 S
C543 C536 1.409 1_554 S
C543 C542 1.362 . S
C167 C18 1.476 . S
C172 C64 1.458 . S
C183 C4 0.978 . S
C188 C24 1.008 . S
C199 C38 1.478 . S
C204 C44 1.474 . S
C215 C58 2.039 . S
C220 C78 2.012 . S
C231 C19 1.508 . S
C236 C102 1.407 . S
C247 C2 1.005 . S
C252 C82 0.974 . S
C263 C99 1.477 . S
C268 C42 1.440 . S
C279 C119 2.035 . S
C284 C59 2.039 . S
C295 C138 1.508 . S
C300 C104 1.404 . S
C311 C84 0.975 . S
C316 C124 1.008 . S
C327 C144 1.406 . S
C332 C98 1.494 . S
C343 C118 2.041 . S
C348 C158 2.015 . S
C359 C62 1.424 . S
C364 C139 1.510 . S
C375 C122 0.947 . S
C380 C22 0.926 . S
C391 C39 1.503 . S
C396 C142 1.455 . S
C407 C79 2.030 . S
C412 C159 2.039 . S
C423 C12 1.434 1_645 S
C428 C9 1.433 1_465 S
C439 C32 1.479 . S
C444 C29 1.479 . S
C455 C52 1.513 . S
C460 C49 1.513 . S
C471 C69 1.494 . S
C476 C72 1.494 . S
C487 C92 1.481 . S
C492 C89 1.481 . S
C503 C109 1.493 . S
C508 C112 1.493 . S
C519 C129 1.412 . S
C524 C132 1.412 . S
C535 C149 1.504 1_655 S
C540 C152 1.504 1_455 S
