# Generated by pormake.
# Topology uox, (4)-cn, num edge types: 1
# Building blocks:
#     Node 0, Type 0, BuildingBlock: KUFVIS_clean_sbu_0, # of connection points: 4
#     Node 1, Type 0, BuildingBlock: KUFVIS_clean_sbu_0, # of connection points: 4
#     Node 2, Type 0, BuildingBlock: KUFVIS_clean_sbu_0, # of connection points: 4
#     Node 3, Type 0, BuildingBlock: KUFVIS_clean_sbu_0, # of connection points: 4
#     Node 4, Type 0, BuildingBlock: KUFVIS_clean_sbu_0, # of connection points: 4
#     Node 5, Type 0, BuildingBlock: KUFVIS_clean_sbu_0, # of connection points: 4
#     Node 6, Type 0, BuildingBlock: KUFVIS_clean_sbu_0, # of connection points: 4
#     Node 7, Type 0, BuildingBlock: KUFVIS_clean_sbu_0, # of connection points: 4
#     Node 8, Type 0, BuildingBlock: KUFVIS_clean_sbu_0, # of connection points: 4
#     Node 9, Type 0, BuildingBlock: KUFVIS_clean_sbu_0, # of connection points: 4
#     Node 10, Type 0, BuildingBlock: KUFVIS_clean_sbu_0, # of connection points: 4
#     Node 11, Type 0, BuildingBlock: KUFVIS_clean_sbu_0, # of connection points: 4
#     Node 12, Type 0, BuildingBlock: KUFVIS_clean_sbu_0, # of connection points: 4
#     Node 13, Type 0, BuildingBlock: KUFVIS_clean_sbu_0, # of connection points: 4
#     Node 14, Type 0, BuildingBlock: KUFVIS_clean_sbu_0, # of connection points: 4
#     Node 15, Type 0, BuildingBlock: KUFVIS_clean_sbu_0, # of connection points: 4
#     Node 16, Type 0, BuildingBlock: KUFVIS_clean_sbu_0, # of connection points: 4
#     Node 17, Type 0, BuildingBlock: KUFVIS_clean_sbu_0, # of connection points: 4
#     Node 18, Type 0, BuildingBlock: KUFVIS_clean_sbu_0, # of connection points: 4
#     Node 19, Type 0, BuildingBlock: KUFVIS_clean_sbu_0, # of connection points: 4
#     Node 20, Type 0, BuildingBlock: KUFVIS_clean_sbu_0, # of connection points: 4
#     Node 21, Type 0, BuildingBlock: KUFVIS_clean_sbu_0, # of connection points: 4
#     Node 22, Type 0, BuildingBlock: KUFVIS_clean_sbu_0, # of connection points: 4
#     Node 23, Type 0, BuildingBlock: KUFVIS_clean_sbu_0, # of connection points: 4
#     Node 24, Type 0, BuildingBlock: KUFVIS_clean_sbu_0, # of connection points: 4
#     Node 25, Type 0, BuildingBlock: KUFVIS_clean_sbu_0, # of connection points: 4
#     Node 26, Type 0, BuildingBlock: KUFVIS_clean_sbu_0, # of connection points: 4
#     Node 27, Type 0, BuildingBlock: KUFVIS_clean_sbu_0, # of connection points: 4
#     Node 28, Type 0, BuildingBlock: KUFVIS_clean_sbu_0, # of connection points: 4
#     Node 29, Type 0, BuildingBlock: KUFVIS_clean_sbu_0, # of connection points: 4
#     Node 30, Type 0, BuildingBlock: KUFVIS_clean_sbu_0, # of connection points: 4
#     Node 31, Type 0, BuildingBlock: KUFVIS_clean_sbu_0, # of connection points: 4
#     Edge 32, Type (0, 0), BuildingBlock: XUDNAN_clean_linker_2, # of connection points: 2
#     Edge 33, Type (0, 0), BuildingBlock: XUDNAN_clean_linker_2, # of connection points: 2
#     Edge 34, Type (0, 0), BuildingBlock: XUDNAN_clean_linker_2, # of connection points: 2
#     Edge 35, Type (0, 0), BuildingBlock: XUDNAN_clean_linker_2, # of connection points: 2
#     Edge 36, Type (0, 0), BuildingBlock: XUDNAN_clean_linker_2, # of connection points: 2
#     Edge 37, Type (0, 0), BuildingBlock: XUDNAN_clean_linker_2, # of connection points: 2
#     Edge 38, Type (0, 0), BuildingBlock: XUDNAN_clean_linker_2, # of connection points: 2
#     Edge 39, Type (0, 0), BuildingBlock: XUDNAN_clean_linker_2, # of connection points: 2
#     Edge 40, Type (0, 0), BuildingBlock: XUDNAN_clean_linker_2, # of connection points: 2
#     Edge 41, Type (0, 0), BuildingBlock: XUDNAN_clean_linker_2, # of connection points: 2
#     Edge 42, Type (0, 0), BuildingBlock: XUDNAN_clean_linker_2, # of connection points: 2
#     Edge 43, Type (0, 0), BuildingBlock: XUDNAN_clean_linker_2, # of connection points: 2
#     Edge 44, Type (0, 0), BuildingBlock: XUDNAN_clean_linker_2, # of connection points: 2
#     Edge 45, Type (0, 0), BuildingBlock: XUDNAN_clean_linker_2, # of connection points: 2
#     Edge 46, Type (0, 0), BuildingBlock: XUDNAN_clean_linker_2, # of connection points: 2
#     Edge 47, Type (0, 0), BuildingBlock: XUDNAN_clean_linker_2, # of connection points: 2
#     Edge 48, Type (0, 0), BuildingBlock: XUDNAN_clean_linker_2, # of connection points: 2
#     Edge 49, Type (0, 0), BuildingBlock: XUDNAN_clean_linker_2, # of connection points: 2
#     Edge 50, Type (0, 0), BuildingBlock: XUDNAN_clean_linker_2, # of connection points: 2
#     Edge 51, Type (0, 0), BuildingBlock: XUDNAN_clean_linker_2, # of connection points: 2
#     Edge 52, Type (0, 0), BuildingBlock: XUDNAN_clean_linker_2, # of connection points: 2
#     Edge 53, Type (0, 0), BuildingBlock: XUDNAN_clean_linker_2, # of connection points: 2
#     Edge 54, Type (0, 0), BuildingBlock: XUDNAN_clean_linker_2, # of connection points: 2
#     Edge 55, Type (0, 0), BuildingBlock: XUDNAN_clean_linker_2, # of connection points: 2
#     Edge 56, Type (0, 0), BuildingBlock: XUDNAN_clean_linker_2, # of connection points: 2
#     Edge 57, Type (0, 0), BuildingBlock: XUDNAN_clean_linker_2, # of connection points: 2
#     Edge 58, Type (0, 0), BuildingBlock: XUDNAN_clean_linker_2, # of connection points: 2
#     Edge 59, Type (0, 0), BuildingBlock: XUDNAN_clean_linker_2, # of connection points: 2
#     Edge 60, Type (0, 0), BuildingBlock: XUDNAN_clean_linker_2, # of connection points: 2
#     Edge 61, Type (0, 0), BuildingBlock: XUDNAN_clean_linker_2, # of connection points: 2
#     Edge 62, Type (0, 0), BuildingBlock: XUDNAN_clean_linker_2, # of connection points: 2
#     Edge 63, Type (0, 0), BuildingBlock: XUDNAN_clean_linker_2, # of connection points: 2
#     Edge 64, Type (0, 0), BuildingBlock: XUDNAN_clean_linker_2, # of connection points: 2
#     Edge 65, Type (0, 0), BuildingBlock: XUDNAN_clean_linker_2, # of connection points: 2
#     Edge 66, Type (0, 0), BuildingBlock: XUDNAN_clean_linker_2, # of connection points: 2
#     Edge 67, Type (0, 0), BuildingBlock: XUDNAN_clean_linker_2, # of connection points: 2
#     Edge 68, Type (0, 0), BuildingBlock: XUDNAN_clean_linker_2, # of connection points: 2
#     Edge 69, Type (0, 0), BuildingBlock: XUDNAN_clean_linker_2, # of connection points: 2
#     Edge 70, Type (0, 0), BuildingBlock: XUDNAN_clean_linker_2, # of connection points: 2
#     Edge 71, Type (0, 0), BuildingBlock: XUDNAN_clean_linker_2, # of connection points: 2
#     Edge 72, Type (0, 0), BuildingBlock: XUDNAN_clean_linker_2, # of connection points: 2
#     Edge 73, Type (0, 0), BuildingBlock: XUDNAN_clean_linker_2, # of connection points: 2
#     Edge 74, Type (0, 0), BuildingBlock: XUDNAN_clean_linker_2, # of connection points: 2
#     Edge 75, Type (0, 0), BuildingBlock: XUDNAN_clean_linker_2, # of connection points: 2
#     Edge 76, Type (0, 0), BuildingBlock: XUDNAN_clean_linker_2, # of connection points: 2
#     Edge 77, Type (0, 0), BuildingBlock: XUDNAN_clean_linker_2, # of connection points: 2
#     Edge 78, Type (0, 0), BuildingBlock: XUDNAN_clean_linker_2, # of connection points: 2
#     Edge 79, Type (0, 0), BuildingBlock: XUDNAN_clean_linker_2, # of connection points: 2
#     Edge 80, Type (0, 0), BuildingBlock: XUDNAN_clean_linker_2, # of connection points: 2
#     Edge 81, Type (0, 0), BuildingBlock: XUDNAN_clean_linker_2, # of connection points: 2
#     Edge 82, Type (0, 0), BuildingBlock: XUDNAN_clean_linker_2, # of connection points: 2
#     Edge 83, Type (0, 0), BuildingBlock: XUDNAN_clean_linker_2, # of connection points: 2
#     Edge 84, Type (0, 0), BuildingBlock: XUDNAN_clean_linker_2, # of connection points: 2
#     Edge 85, Type (0, 0), BuildingBlock: XUDNAN_clean_linker_2, # of connection points: 2
#     Edge 86, Type (0, 0), BuildingBlock: XUDNAN_clean_linker_2, # of connection points: 2
#     Edge 87, Type (0, 0), BuildingBlock: XUDNAN_clean_linker_2, # of connection points: 2
#     Edge 88, Type (0, 0), BuildingBlock: XUDNAN_clean_linker_2, # of connection points: 2
#     Edge 89, Type (0, 0), BuildingBlock: XUDNAN_clean_linker_2, # of connection points: 2
#     Edge 90, Type (0, 0), BuildingBlock: XUDNAN_clean_linker_2, # of connection points: 2
#     Edge 91, Type (0, 0), BuildingBlock: XUDNAN_clean_linker_2, # of connection points: 2
#     Edge 92, Type (0, 0), BuildingBlock: XUDNAN_clean_linker_2, # of connection points: 2
#     Edge 93, Type (0, 0), BuildingBlock: XUDNAN_clean_linker_2, # of connection points: 2
#     Edge 94, Type (0, 0), BuildingBlock: XUDNAN_clean_linker_2, # of connection points: 2
#     Edge 95, Type (0, 0), BuildingBlock: XUDNAN_clean_linker_2, # of connection points: 2
# Relax obj value: 0.068
# Max RMSD: 0.100
# Mean RMSD: 0.100
data_MOF--net-uox--node1-KUFVIS_clean_sbu_0--edge1-XUDNAN_clean_linker_2
_symmetry_space_group_name_H-M    P1
_symmetry_Int_Tables_number       1
_symmetry_cell_setting            triclinic
loop_
_symmetry_equiv_pos_as_xyz
'x, y, z'
_cell_length_a     45.819987
_cell_length_b     45.810151
_cell_length_c     77.194241
_cell_angle_alpha  89.980452
_cell_angle_beta   90.011978
_cell_angle_gamma 89.979983
loop_
_atom_site_label
_atom_site_type_symbol
_atom_site_fract_x
_atom_site_fract_y
_atom_site_fract_z
_atom_type_partial_charge
Mn0 Mn 0.4084 0.06956 0.16353 0.0
Mn1 Mn 0.44602 0.00863 0.1535 0.0
C2 C 0.4578 0.07247 0.15684 0.0
C3 C 0.37999 0.1096 0.15478 0.0
C4 C 0.42597 0.02317 0.19012 0.0
O5 O 0.37635 0.04017 0.15725 0.0
O6 O 0.40399 1.0022 0.14832 0.0
C7 C 0.43843 0.00685 0.11544 0.0
N8 N 0.45631 0.00809 0.12952 0.0
C9 C 0.49912 0.00764 0.11147 0.0
C10 C 0.48117 0.00628 0.09678 0.0
C11 C 0.45069 0.0059 0.09878 0.0
C12 C 0.48567 0.00824 0.12775 0.0
H13 H 0.41499 0.00665 0.11692 0.0
C14 C 0.3792 0.01469 0.15061 0.0
O15 O 0.37929 0.09987 0.17059 0.0
O16 O 0.39646 0.09554 0.14398 0.0
N17 N 0.48696 0.01282 0.15776 0.0
C18 C 0.50105 0.01671 0.17313 0.0
C19 C 0.53162 0.01884 0.17334 0.0
C20 C 0.54735 0.01692 0.15777 0.0
C21 C 0.53237 0.01312 0.1421 0.0
C22 C 0.50191 0.01088 0.14271 0.0
H23 H 0.48904 0.01831 0.18512 0.0
O24 O 0.44547 0.09278 0.166 0.0
O25 O 0.44094 0.05098 0.15237 0.0
O26 O 0.41564 0.04848 0.18683 0.0
O27 O 0.43699 0.00666 0.1785 0.0
C28 C 0.54641 0.01207 0.12588 0.0
C29 C 0.5298 0.0093 0.11057 0.0
H30 H 0.49053 0.00584 0.0839 0.0
H31 H 0.43669 0.00498 0.0875 0.0
H32 H 0.54303 0.02202 0.18547 0.0
H33 H 0.57092 0.01864 0.15799 0.0
H34 H 0.56993 0.01385 0.125 0.0
H35 H 0.54082 0.00899 0.09816 0.0
Mn36 Mn 0.1866 0.17271 0.41046 0.0
Mn37 Mn 0.24969 0.20981 0.40702 0.0
C38 C 0.1858 0.22327 0.40971 0.0
C39 C 0.14857 0.14826 0.39635 0.0
C40 C 0.22963 0.18006 0.44022 0.0
O41 O 0.21603 0.14178 0.40278 0.0
O42 O 0.25529 0.16994 0.39725 0.0
C43 C 0.255 0.21473 0.36894 0.0
N44 N 0.25287 0.22771 0.38476 0.0
C45 C 0.25856 0.27544 0.37223 0.0
C46 C 0.26096 0.26261 0.3558 0.0
C47 C 0.25899 0.23213 0.35414 0.0
C48 C 0.2543 0.25702 0.38647 0.0
H49 H 0.2538 0.19129 0.36764 0.0
C50 C 0.242 0.14528 0.39707 0.0
O51 O 0.15465 0.14294 0.41249 0.0
O52 O 0.16456 0.16748 0.38852 0.0
N53 N 0.24703 0.24872 0.41589 0.0
C54 C 0.24365 0.25769 0.4326 0.0
C55 C 0.24386 0.28766 0.4364 0.0
C56 C 0.24795 0.30806 0.42303 0.0
C57 C 0.25182 0.29829 0.40597 0.0
C58 C 0.25117 0.26816 0.40295 0.0
H59 H 0.24068 0.24211 0.44295 0.0
O60 O 0.16367 0.20879 0.41571 0.0
O61 O 0.20743 0.20761 0.40403 0.0
O62 O 0.20415 0.17264 0.43512 0.0
O63 O 0.24838 0.1926 0.4305 0.0
C64 C 0.25641 0.31723 0.39186 0.0
C65 C 0.26009 0.30579 0.37503 0.0
H66 H 0.26415 0.27595 0.34437 0.0
H67 H 0.26073 0.22206 0.3415 0.0
H68 H 0.24096 0.29503 0.4496 0.0
H69 H 0.24816 0.33117 0.42601 0.0
H70 H 0.25716 0.34064 0.39379 0.0
H71 H 0.26361 0.32057 0.36428 0.0
Mn72 Mn 0.09523 0.93877 0.66372 0.0
Mn73 Mn 0.0576 1.0002 0.65464 0.0
C74 C 0.04489 0.93691 0.66099 0.0
C75 C 0.12188 0.89788 0.6547 0.0
C76 C 0.08254 0.98679 0.69024 0.0
O77 O 0.12677 0.96685 0.65521 0.0
O78 O 0.09889 0.0051 0.64725 0.0
C79 C 0.05985 0.99905 0.61634 0.0
N80 N 0.044 0.99942 0.63126 0.0
C81 C 0.99899 1.0037 0.61545 0.0
C82 C 0.0148 1.00344 0.59989 0.0
C83 C 0.04535 1.00089 0.60034 0.0
C84 C 0.01458 1.00127 0.63096 0.0
H85 H 0.08337 0.99756 0.61666 0.0
C86 C 0.12362 0.99217 0.6485 0.0
O87 O 0.12488 0.90886 0.6701 0.0
O88 O 0.10388 0.91108 0.64434 0.0
N89 N 0.0173 0.99847 0.66101 0.0
C90 C 0.00528 0.99804 0.67716 0.0
C91 C 0.9748 0.99915 0.67895 0.0
C92 C 0.95706 1.00134 0.66416 0.0
C93 C 0.96997 1.00239 0.64771 0.0
C94 C 1.00043 1.00074 0.64671 0.0
H95 H 0.01883 0.9967 0.68857 0.0
O96 O 0.0589 0.91656 0.66922 0.0
O97 O 0.06084 0.9575 0.65427 0.0
O98 O 0.09204 0.96127 0.68674 0.0
O99 O 0.0702 1.00325 0.67907 0.0
C100 C 0.95385 0.00533 0.63227 0.0
C101 C 0.96838 0.00628 0.61616 0.0
H102 H 1.00371 0.00509 0.58754 0.0
H103 H 0.05771 1.00063 0.5884 0.0
H104 H 0.96501 0.99851 0.6917 0.0
H105 H 0.93356 1.00237 0.6656 0.0
H106 H 0.93026 0.00684 0.63263 0.0
H107 H 0.95573 0.00844 0.60437 0.0
Mn108 Mn 0.32121 0.8375 0.91403 0.0
Mn109 Mn 0.26019 0.79971 0.90442 0.0
C110 C 0.3236 0.78725 0.91049 0.0
C111 C 0.36174 0.86501 0.90533 0.0
C112 C 0.27323 0.82376 0.94033 0.0
O113 O 0.29272 0.86911 0.90597 0.0
O114 O 0.25503 0.8411 0.89729 0.0
C115 C 0.26135 0.80267 0.86614 0.0
N116 N 0.26112 0.78655 0.88097 0.0
C117 C 0.25705 0.7418 0.86488 0.0
C118 C 0.25717 0.7579 0.84943 0.0
C119 C 0.25956 0.78846 0.85006 0.0
C120 C 0.25945 0.75712 0.88049 0.0
H121 H 0.2627 0.8262 0.86661 0.0
C122 C 0.26761 0.86594 0.89898 0.0
O123 O 0.35081 0.86719 0.92079 0.0
O124 O 0.34873 0.84728 0.89474 0.0
N125 N 0.26223 0.75931 0.91056 0.0
C126 C 0.26274 0.747 0.92663 0.0
C127 C 0.26182 0.71647 0.92823 0.0
C128 C 0.25974 0.69898 0.91334 0.0
C129 C 0.25862 0.71219 0.89697 0.0
C130 C 0.26007 0.74268 0.89615 0.0
H131 H 0.26398 0.76035 0.93812 0.0
O132 O 0.34382 0.80106 0.91893 0.0
O133 O 0.30282 0.80333 0.9041 0.0
O134 O 0.29884 0.83322 0.93707 0.0
O135 O 0.25691 0.81188 0.92892 0.0
C136 C 0.25575 0.69633 0.88143 0.0
C137 C 0.25463 0.71116 0.86541 0.0
H138 H 0.25554 0.74702 0.83701 0.0
H139 H 0.2597 0.80104 0.83819 0.0
H140 H 0.26252 0.70646 0.94092 0.0
H141 H 0.25885 0.67545 0.91464 0.0
H142 H 0.25438 0.67273 0.88164 0.0
H143 H 0.25248 0.69872 0.85355 0.0
Mn144 Mn 0.41176 0.94191 0.3484 0.0
Mn145 Mn 0.44928 0.00513 0.34741 0.0
C146 C 0.46168 0.94191 0.35366 0.0
C147 C 0.38469 0.90724 0.36392 0.0
C148 C 0.42667 0.97486 0.315 0.0
O149 O 0.37996 0.97292 0.35092 0.0
O150 O 0.40755 0.01366 0.35274 0.0
C151 C 0.44471 0.02337 0.38409 0.0
N152 N 0.46147 0.01593 0.37021 0.0
C153 C 0.50562 0.02279 0.38659 0.0
C154 C 0.48883 0.03065 0.40104 0.0
C155 C 0.45825 0.03094 0.39978 0.0
C156 C 0.49093 0.01584 0.37123 0.0
H157 H 0.42118 0.02345 0.38322 0.0
C158 C 0.38286 1.00041 0.35339 0.0
O159 O 0.38252 0.90939 0.34719 0.0
O160 O 0.40187 0.92566 0.37156 0.0
N161 N 0.48989 0.99905 0.34278 0.0
C162 C 0.50275 0.98854 0.32814 0.0
C163 C 0.53323 0.98553 0.32755 0.0
C164 C 0.55015 0.99333 0.342 0.0
C165 C 0.53642 0.004 0.35694 0.0
C166 C 0.50598 0.00677 0.35673 0.0
H167 H 0.48984 0.98227 0.31705 0.0
O168 O 0.44871 0.91836 0.34837 0.0
O169 O 0.44502 0.96471 0.35528 0.0
O170 O 0.41685 0.95214 0.32262 0.0
O171 O 0.43834 0.99615 0.32313 0.0
C172 C 0.55169 0.0113 0.37218 0.0
C173 C 0.53631 0.02075 0.38698 0.0
H174 H 0.49918 0.03617 0.41323 0.0
H175 H 0.44514 0.03684 0.4109 0.0
H176 H 0.54366 0.97706 0.31602 0.0
H177 H 0.57364 0.99075 0.34154 0.0
H178 H 0.57522 0.0093 0.37274 0.0
H179 H 0.54825 0.02589 0.3987 0.0
Mn180 Mn 0.32559 0.1601 0.59427 0.0
Mn181 Mn 0.26296 0.19864 0.59739 0.0
C182 C 0.32729 0.21049 0.5966 0.0
C183 C 0.36416 0.13291 0.60593 0.0
C184 C 0.28471 0.17324 0.56354 0.0
O185 O 0.29586 0.12912 0.60107 0.0
O186 O 0.25572 0.15711 0.60388 0.0
C187 C 0.25467 0.19517 0.63537 0.0
N188 N 0.25813 0.21148 0.62076 0.0
C189 C 0.25216 0.25613 0.63676 0.0
C190 C 0.24846 0.23982 0.65198 0.0
C191 C 0.24988 0.20921 0.65129 0.0
C192 C 0.25732 0.24095 0.62133 0.0
H193 H 0.25545 0.17162 0.63488 0.0
C194 C 0.26889 0.13243 0.60474 0.0
O195 O 0.3557 0.1299 0.59 0.0
O196 O 0.34978 0.15149 0.61537 0.0
N197 N 0.26671 0.23913 0.59173 0.0
C198 C 0.27067 0.25166 0.57589 0.0
C199 C 0.27063 0.28222 0.57442 0.0
C200 C 0.26596 0.29954 0.58917 0.0
C201 C 0.26121 0.28613 0.60525 0.0
C202 C 0.26178 0.25559 0.60596 0.0
H203 H 0.274 0.23846 0.56447 0.0
O204 O 0.34903 0.1961 0.59003 0.0
O205 O 0.30517 0.19495 0.60179 0.0
O206 O 0.30802 0.1625 0.56993 0.0
O207 O 0.26598 0.18702 0.57266 0.0
C208 C 0.25562 0.30184 0.62058 0.0
C209 C 0.25092 0.28684 0.6363 0.0
H210 H 0.24457 0.25058 0.66426 0.0
H211 H 0.24709 0.19647 0.66298 0.0
H212 H 0.2741 0.2924 0.56193 0.0
H213 H 0.26585 0.3231 0.58798 0.0
H214 H 0.25495 0.32548 0.62043 0.0
H215 H 0.24676 0.29918 0.64801 0.0
Mn216 Mn 0.09734 0.06837 0.84821 0.0
Mn217 Mn 0.06097 0.00445 0.84673 0.0
C218 C 0.04691 0.06824 0.84951 0.0
C219 C 0.1218 0.10412 0.86417 0.0
C220 C 0.08728 0.03326 0.8149 0.0
O221 O 0.12904 0.03834 0.85323 0.0
O222 O 0.10207 0.9973 0.85413 0.0
C223 C 0.06137 0.99035 0.88416 0.0
N224 N 0.04625 0.99566 0.86929 0.0
C225 C 1.00039 0.98771 0.8837 0.0
C226 C 0.01547 0.98204 0.89915 0.0
C227 C 0.04609 0.98349 0.89939 0.0
C228 C 0.01677 0.99472 0.86898 0.0
H229 H 0.08492 0.99133 0.88439 0.0
C230 C 0.12635 0.01095 0.85582 0.0
O231 O 0.1265 0.10079 0.8477 0.0
O232 O 0.10337 0.0864 0.87137 0.0
N233 N 0.02093 0.00814 0.84001 0.0
C234 C 0.00966 0.01419 0.82406 0.0
C235 C 0.97927 0.01422 0.82171 0.0
C236 C 0.96081 0.00761 0.8357 0.0
C237 C 0.97293 1.0008 0.85188 0.0
C238 C 1.00337 1.00118 0.85346 0.0
H239 H 0.02373 0.01914 0.81324 0.0
O240 O 0.06093 0.09166 0.84509 0.0
O241 O 0.0629 0.04568 0.8534 0.0
O242 O 0.09639 0.0562 0.8226 0.0
O243 O 0.07468 0.01219 0.82279 0.0
C244 C 0.95601 0.99348 0.86648 0.0
C245 C 0.96974 0.98678 0.88235 0.0
H246 H 1.00375 0.97666 0.91091 0.0
H247 H 0.05788 0.97922 0.91127 0.0
H248 H 0.97009 0.01931 0.80915 0.0
H249 H 0.93738 0.00769 0.83384 0.0
H250 H 0.93242 0.99298 0.86566 0.0
H251 H 0.9565 0.98128 0.89351 0.0
Mn252 Mn 0.17824 0.84652 0.09494 0.0
Mn253 Mn 0.2414 0.80881 0.09794 0.0
C254 C 0.17722 0.79616 0.09735 0.0
C255 C 0.13914 0.87296 0.10653 0.0
C256 C 0.21858 0.83307 0.06403 0.0
O257 O 0.20763 0.87801 0.1016 0.0
O258 O 0.24811 0.85048 0.10424 0.0
C259 C 0.25009 0.81291 0.13587 0.0
N260 N 0.2467 0.79635 0.12136 0.0
C261 C 0.25329 0.75201 0.13759 0.0
C262 C 0.25693 0.76857 0.15271 0.0
C263 C 0.25516 0.79915 0.15185 0.0
C264 C 0.24785 0.7669 0.12209 0.0
H265 H 0.24903 0.83644 0.13526 0.0
C266 C 0.23467 0.875 0.10521 0.0
O267 O 0.14758 0.87613 0.09062 0.0
O268 O 0.15404 0.8549 0.11606 0.0
N269 N 0.2382 0.76818 0.0925 0.0
C270 C 0.23431 0.75537 0.07673 0.0
C271 C 0.23474 0.7248 0.07543 0.0
C272 C 0.23974 0.70775 0.09026 0.0
C273 C 0.24441 0.72146 0.10626 0.0
C274 C 0.24346 0.75199 0.1068 0.0
H275 H 0.23072 0.76835 0.06525 0.0
O276 O 0.15523 0.81025 0.09085 0.0
O277 O 0.1992 0.81197 0.10249 0.0
O278 O 0.19539 0.84388 0.07051 0.0
O279 O 0.23782 0.81996 0.07314 0.0
C280 C 0.2503 0.70603 0.12165 0.0
C281 C 0.25489 0.7213 0.13729 0.0
H282 H 0.26103 0.75804 0.16503 0.0
H283 H 0.25791 0.81209 0.16347 0.0
H284 H 0.23133 0.7144 0.06301 0.0
H285 H 0.24013 0.68418 0.0892 0.0
H286 H 0.25128 0.6824 0.12163 0.0
H287 H 0.25924 0.70919 0.14906 0.0
Mn288 Mn 0.59353 0.94333 0.84832 0.0
Mn289 Mn 0.55606 1.00392 0.85916 0.0
C290 C 0.54432 0.94012 0.85537 0.0
C291 C 0.62242 0.90318 0.85607 0.0
C292 C 0.57577 0.99051 0.82234 0.0
O293 O 0.62557 0.97259 0.85474 0.0
O294 O 0.59811 0.01023 0.86437 0.0
C295 C 0.56375 0.00467 0.89722 0.0
N296 N 0.54583 1.00373 0.88316 0.0
C297 C 0.50307 1.0033 0.90125 0.0
C298 C 0.52106 0.00434 0.91594 0.0
C299 C 0.55153 0.00502 0.91391 0.0
C300 C 0.51648 1.00333 0.88495 0.0
H301 H 0.58718 0.00508 0.89572 0.0
C302 C 0.62284 0.99776 0.86179 0.0
O303 O 0.6225 0.91368 0.84045 0.0
O304 O 0.6062 0.91652 0.86733 0.0
N305 N 0.51512 0.99971 0.85489 0.0
C306 C 0.50102 0.99615 0.8395 0.0
C307 C 0.47047 0.99373 0.8393 0.0
C308 C 0.45477 0.99501 0.8549 0.0
C309 C 0.46977 0.9985 0.8706 0.0
C310 C 0.50021 1.00104 0.86998 0.0
H311 H 0.513 0.995 0.82748 0.0
O312 O 0.55648 0.92013 0.84587 0.0
O313 O 0.56123 0.96152 0.85994 0.0
O314 O 0.58583 0.96504 0.82538 0.0
O315 O 0.56501 0.0068 0.83413 0.0
C316 C 0.45578 0.9989 0.88685 0.0
C317 C 0.47241 1.00135 0.90216 0.0
H318 H 0.51174 0.0043 0.92883 0.0
H319 H 0.56556 0.0057 0.92518 0.0
H320 H 0.45905 0.9908 0.82715 0.0
H321 H 0.43122 0.99305 0.8547 0.0
H322 H 0.43227 0.99688 0.88772 0.0
H323 H 0.46143 1.00117 0.91459 0.0
Mn324 Mn 0.82249 0.84143 0.59959 0.0
Mn325 Mn 0.75829 0.80545 0.59929 0.0
C326 C 0.82213 0.7909 0.60013 0.0
C327 C 0.85957 0.86508 0.61495 0.0
C328 C 0.78454 0.83345 0.56714 0.0
O329 O 0.79302 0.87296 0.60602 0.0
O330 O 0.75203 0.84603 0.60791 0.0
C331 C 0.74731 0.80335 0.63706 0.0
N332 N 0.75134 0.78923 0.62172 0.0
C333 C 0.74444 0.74243 0.63526 0.0
C334 C 0.7401 0.75647 0.65119 0.0
C335 C 0.74166 0.78705 0.65211 0.0
C336 C 0.75026 0.75979 0.62074 0.0
H337 H 0.74838 0.82686 0.63782 0.0
C338 C 0.76596 0.87015 0.60963 0.0
O339 O 0.85504 0.87045 0.59865 0.0
O340 O 0.84237 0.84636 0.62234 0.0
N341 N 0.76128 0.76588 0.59154 0.0
C342 C 0.76604 0.75568 0.5752 0.0
C343 C 0.7658 0.72546 0.57215 0.0
C344 C 0.76028 0.70608 0.58586 0.0
C345 C 0.75483 0.71711 0.60249 0.0
C346 C 0.75539 0.74743 0.60475 0.0
H347 H 0.77016 0.77045 0.56458 0.0
O348 O 0.84526 0.805 0.59527 0.0
O349 O 0.80002 0.80686 0.60484 0.0
O350 O 0.80825 0.84178 0.57434 0.0
O351 O 0.76399 0.82073 0.57544 0.0
C352 C 0.74871 0.69923 0.61688 0.0
C353 C 0.74334 0.7119 0.63323 0.0
H354 H 0.73566 0.74397 0.66281 0.0
H355 H 0.73841 0.79805 0.66436 0.0
H356 H 0.76986 0.71712 0.55926 0.0
H357 H 0.76016 0.68278 0.58347 0.0
H358 H 0.7481 0.6757 0.61553 0.0
H359 H 0.73872 0.69792 0.64421 0.0
Mn360 Mn 0.91303 0.07264 0.34748 0.0
Mn361 Mn 0.95096 0.0118 0.35752 0.0
C362 C 0.96323 0.07516 0.35096 0.0
C363 C 0.88546 0.11312 0.35626 0.0
C364 C 0.9276 0.02436 0.32141 0.0
O365 O 0.88142 0.04431 0.35556 0.0
O366 O 0.90933 0.00646 0.36411 0.0
C367 C 0.94658 0.01377 0.39574 0.0
N368 N 0.96324 0.01318 0.38114 0.0
C369 C 0.0074 0.00977 0.39786 0.0
C370 C 0.99073 0.01028 0.41309 0.0
C371 C 0.9602 0.0125 0.41202 0.0
C372 C 0.99265 0.01167 0.38202 0.0
H373 H 0.92307 0.01503 0.39495 0.0
C374 C 0.88451 0.01905 0.36234 0.0
O375 O 0.88314 0.10223 0.34078 0.0
O376 O 0.90343 0.10017 0.36673 0.0
N377 N 0.99157 0.01376 0.35192 0.0
C378 C 0.00446 0.01369 0.33601 0.0
C379 C 0.03503 0.01268 0.33481 0.0
C380 C 0.05196 0.01107 0.34995 0.0
C381 C 0.03816 0.01044 0.36616 0.0
C382 C 0.00766 0.01196 0.36655 0.0
H383 H 0.99153 0.01454 0.32433 0.0
O384 O 0.94933 0.09526 0.34246 0.0
O385 O 0.94726 0.05443 0.3575 0.0
O386 O 0.91746 0.0498 0.32456 0.0
O387 O 0.93971 0.00837 0.33291 0.0
C388 C 0.05345 0.008 0.38193 0.0
C389 C 0.03805 0.00741 0.39776 0.0
H390 H 1.00115 0.00904 0.42567 0.0
H391 H 0.94718 0.01293 0.42372 0.0
H392 H 0.0455 0.01296 0.32225 0.0
H393 H 0.07553 0.01011 0.34898 0.0
H394 H 0.07704 0.00661 0.38204 0.0
H395 H 0.05005 0.00565 0.4098 0.0
Mn396 Mn 0.68514 0.16578 0.0977 0.0
Mn397 Mn 0.74773 0.20303 0.10434 0.0
C398 C 0.6846 0.21637 0.09935 0.0
C399 C 0.64342 0.14095 0.10716 0.0
C400 C 0.73175 0.17683 0.06964 0.0
O401 O 0.71219 0.13433 0.10709 0.0
O402 O 0.7528 0.16123 0.1111 0.0
C403 C 0.75008 0.19904 0.1426 0.0
N404 N 0.74926 0.21556 0.12793 0.0
C405 C 0.75492 0.25983 0.14433 0.0
C406 C 0.75588 0.24332 0.15961 0.0
C407 C 0.75326 0.2128 0.15875 0.0
C408 C 0.7512 0.24496 0.12865 0.0
H409 H 0.74848 0.17555 0.14199 0.0
C410 C 0.73873 0.13703 0.11187 0.0
O411 O 0.65464 0.13657 0.09197 0.0
O412 O 0.65685 0.15935 0.11718 0.0
N413 N 0.74591 0.24367 0.09868 0.0
C414 C 0.74421 0.25647 0.08278 0.0
C415 C 0.74542 0.28702 0.08144 0.0
C416 C 0.74892 0.30405 0.09642 0.0
C417 C 0.75119 0.29035 0.11261 0.0
C418 C 0.74945 0.25985 0.11317 0.0
H419 H 0.74165 0.24349 0.07122 0.0
O420 O 0.66406 0.20242 0.09126 0.0
O421 O 0.70504 0.20035 0.10617 0.0
O422 O 0.70769 0.16572 0.07468 0.0
O423 O 0.74834 0.19177 0.07952 0.0
C424 C 0.75541 0.30574 0.12821 0.0
C425 C 0.75751 0.29047 0.14403 0.0
H426 H 0.75856 0.25384 0.17208 0.0
H427 H 0.75396 0.19989 0.17049 0.0
H428 H 0.74376 0.2974 0.06889 0.0
H429 H 0.74998 0.3276 0.09534 0.0
H430 H 0.757 0.32933 0.12818 0.0
H431 H 0.76062 0.30255 0.15595 0.0
Mn432 Mn 0.59782 0.0702 0.66391 0.0
Mn433 Mn 0.56059 0.00679 0.6652 0.0
C434 C 0.54787 0.06995 0.65893 0.0
C435 C 0.62466 0.10461 0.64807 0.0
C436 C 0.58321 0.03759 0.69744 0.0
O437 O 0.62971 0.03927 0.66136 0.0
O438 O 0.60222 0.99849 0.65954 0.0
C439 C 0.56456 0.98823 0.62854 0.0
N440 N 0.54803 0.99568 0.64252 0.0
C441 C 0.50359 0.988 0.62654 0.0
C442 C 0.52014 0.98013 0.612 0.0
C443 C 0.55075 0.98025 0.61301 0.0
C444 C 0.51855 0.99536 0.64175 0.0
H445 H 0.5881 0.98846 0.62921 0.0
C446 C 0.62683 0.01183 0.65872 0.0
O447 O 0.62693 0.10286 0.66482 0.0
O448 O 0.60745 0.08604 0.64061 0.0
N449 N 0.52003 0.01265 0.67009 0.0
C450 C 0.50737 0.0233 0.68475 0.0
C451 C 0.47688 0.02605 0.68555 0.0
C452 C 0.45973 0.01781 0.67129 0.0
C453 C 0.47325 0.00697 0.65632 0.0
C454 C 0.50371 0.0045 0.65632 0.0
H455 H 0.52044 0.02991 0.69571 0.0
O456 O 0.56082 0.09365 0.664 0.0
O457 O 0.56458 0.04719 0.65728 0.0
O458 O 0.59288 0.06033 0.68976 0.0
O459 O 0.57185 0.01607 0.68937 0.0
C460 C 0.45773 0.99922 0.64125 0.0
C461 C 0.47288 0.98967 0.62639 0.0
H462 H 0.50958 0.97429 0.59993 0.0
H463 H 0.56367 0.97435 0.60181 0.0
H464 H 0.46662 0.03465 0.6971 0.0
H465 H 0.43624 0.02018 0.6719 0.0
H466 H 0.43416 1.00097 0.64086 0.0
H467 H 0.46073 0.98421 0.61479 0.0
Mn468 Mn 0.68459 0.84767 0.41609 0.0
Mn469 Mn 0.74579 0.80936 0.40756 0.0
C470 C 0.68206 0.79737 0.41274 0.0
C471 C 0.64476 0.87536 0.40629 0.0
C472 C 0.73146 0.83382 0.44319 0.0
O473 O 0.71357 0.879 0.40837 0.0
O474 O 0.75161 0.85072 0.40055 0.0
C475 C 0.74618 0.81233 0.36928 0.0
N476 N 0.74573 0.7962 0.3841 0.0
C477 C 0.75008 0.75142 0.36806 0.0
C478 C 0.75066 0.76753 0.35261 0.0
C479 C 0.74849 0.79811 0.35322 0.0
C480 C 0.7472 0.76676 0.38364 0.0
H481 H 0.74499 0.83587 0.36973 0.0
C482 C 0.73908 0.87564 0.40197 0.0
O483 O 0.65475 0.87784 0.42197 0.0
O484 O 0.65819 0.85712 0.39622 0.0
N485 N 0.74323 0.76897 0.41365 0.0
C486 C 0.74201 0.75666 0.42971 0.0
C487 C 0.74266 0.72613 0.43133 0.0
C488 C 0.74519 0.70863 0.41647 0.0
C489 C 0.74705 0.72183 0.40011 0.0
C490 C 0.74584 0.75233 0.39929 0.0
H491 H 0.74042 0.77003 0.44119 0.0
O492 O 0.66155 0.81143 0.42079 0.0
O493 O 0.70323 0.81324 0.40664 0.0
O494 O 0.70607 0.8436 0.43953 0.0
O495 O 0.74806 0.82153 0.43208 0.0
C496 C 0.75041 0.70594 0.38462 0.0
C497 C 0.75225 0.72076 0.36863 0.0
H498 H 0.75269 0.75664 0.34022 0.0
H499 H 0.74888 0.81069 0.34136 0.0
H500 H 0.74139 0.71612 0.44401 0.0
H501 H 0.74587 0.68509 0.41777 0.0
H502 H 0.7516 0.68233 0.38485 0.0
H503 H 0.75476 0.70831 0.35679 0.0
Mn504 Mn 0.90432 0.93399 0.16602 0.0
Mn505 Mn 0.94272 0.99675 0.16353 0.0
C506 C 0.95379 0.93279 0.15966 0.0
C507 C 0.87523 0.89707 0.1541 0.0
C508 C 0.92242 0.97056 0.19754 0.0
O509 O 0.87268 0.96496 0.16258 0.0
O510 O 0.90072 0.00509 0.1592 0.0
C511 C 0.93487 0.01107 0.12641 0.0
N512 N 0.95283 0.00511 0.14002 0.0
C513 C 0.99553 0.01116 0.12223 0.0
C514 C 0.97749 0.01746 0.10803 0.0
C515 C 0.94703 0.0174 0.11014 0.0
C516 C 0.98218 0.00533 0.13817 0.0
H517 H 0.91145 0.01096 0.12794 0.0
C518 C 0.87586 0.99217 0.15928 0.0
O519 O 0.87493 0.90311 0.17051 0.0
O520 O 0.89192 0.91311 0.14438 0.0
N521 N 0.98366 0.99096 0.16708 0.0
C522 C 0.99784 0.98199 0.18166 0.0
C523 C 0.02839 0.9796 0.18151 0.0
C524 C 0.04403 0.98651 0.16641 0.0
C525 C 0.02895 0.99554 0.15154 0.0
C526 C 0.99851 0.99774 0.15249 0.0
H527 H 0.98592 0.97652 0.19328 0.0
O528 O 0.94108 0.91013 0.16639 0.0
O529 O 0.93726 0.95549 0.15726 0.0
O530 O 0.91132 0.94768 0.1909 0.0
O531 O 0.93411 0.99071 0.18847 0.0
C532 C 0.04288 1.00182 0.1357 0.0
C533 C 0.02619 0.00966 0.12106 0.0
H534 H 0.98677 0.02208 0.09542 0.0
H535 H 0.93296 0.02212 0.09923 0.0
H536 H 0.03987 0.97238 0.19299 0.0
H537 H 0.06758 0.98454 0.16632 0.0
H538 H 0.06639 1.00022 0.13456 0.0
H539 H 0.03712 0.01399 0.10889 0.0
Mn540 Mn 0.82867 0.16089 0.91467 0.0
Mn541 Mn 0.7662 0.19986 0.9157 0.0
C542 C 0.82964 0.21125 0.9108 0.0
C543 C 0.86345 0.13469 0.8987 0.0
C544 C 0.7945 0.17424 0.94789 0.0
O545 O 0.79749 0.13003 0.91042 0.0
O546 O 0.75713 0.15835 0.90975 0.0
C547 C 0.74895 0.19671 0.87878 0.0
N548 N 0.75623 0.21291 0.89293 0.0
C549 C 0.75016 0.2577 0.87701 0.0
C550 C 0.7425 0.24148 0.8623 0.0
C551 C 0.74189 0.21086 0.86319 0.0
C552 C 0.75661 0.24241 0.89226 0.0
H553 H 0.7486 0.17316 0.87936 0.0
C554 C 0.77005 0.13357 0.90817 0.0
O555 O 0.86068 0.13094 0.91531 0.0
O556 O 0.84582 0.15315 0.89148 0.0
N557 N 0.77274 0.24023 0.92082 0.0
C558 C 0.7831 0.25249 0.93567 0.0
C559 C 0.78637 0.28292 0.93666 0.0
C560 C 0.779 0.30041 0.92237 0.0
C561 C 0.76855 0.2873 0.90718 0.0
C562 C 0.76549 0.25688 0.90701 0.0
H563 H 0.78909 0.23913 0.94662 0.0
O564 O 0.85267 0.19759 0.91632 0.0
O565 O 0.80675 0.19505 0.90843 0.0
O566 O 0.8167 0.16306 0.94039 0.0
O567 O 0.77446 0.18812 0.93989 0.0
C568 C 0.76174 0.30315 0.89207 0.0
C569 C 0.75249 0.28837 0.87701 0.0
H570 H 0.73736 0.2523 0.85019 0.0
H571 H 0.73613 0.19819 0.85187 0.0
H572 H 0.7947 0.29286 0.94837 0.0
H573 H 0.78173 0.32386 0.92314 0.0
H574 H 0.76398 0.32669 0.89181 0.0
H575 H 0.74774 0.30077 0.86539 0.0
Mn576 Mn 0.91843 0.56923 0.65968 0.0
Mn577 Mn 0.95637 0.50645 0.65709 0.0
C578 C 0.9685 0.57035 0.65472 0.0
C579 C 0.89114 0.60514 0.64523 0.0
C580 C 0.93151 0.53051 0.69078 0.0
O581 O 0.88706 0.53825 0.6554 0.0
O582 O 0.91525 0.49872 0.65017 0.0
C583 C 0.95509 0.49505 0.61938 0.0
N584 N 0.97058 0.50001 0.63415 0.0
C585 C 0.01616 0.49597 0.61885 0.0
C586 C 1.0007 0.49076 0.60348 0.0
C587 C 0.97004 0.4903 0.60375 0.0
C588 C 1.00009 0.50025 0.63407 0.0
H589 H 0.93152 0.49482 0.61953 0.0
C590 C 0.89035 0.51158 0.6508 0.0
O591 O 0.8886 0.60129 0.66185 0.0
O592 O 0.90903 0.58802 0.63717 0.0
N593 N 0.99643 0.51193 0.66332 0.0
C594 C 0.00792 0.51958 0.67895 0.0
C595 C 0.0383 0.52215 0.68074 0.0
C596 C 0.05653 0.51685 0.66646 0.0
C597 C 0.04419 0.50922 0.65046 0.0
C598 C 0.01378 0.50669 0.6495 0.0
H599 H 0.994 0.5238 0.68995 0.0
O600 O 0.95531 0.59304 0.66106 0.0
O601 O 0.95195 0.54787 0.65195 0.0
O602 O 0.92282 0.55518 0.68499 0.0
O603 O 0.94305 0.51084 0.68128 0.0
C604 C 0.06083 0.5046 0.63537 0.0
C605 C 0.04683 0.49794 0.61957 0.0
H606 H 0.01213 0.48738 0.59136 0.0
H607 H 0.95796 0.48642 0.59193 0.0
H608 H 0.04766 0.52827 0.69309 0.0
H609 H 0.07995 0.51892 0.66789 0.0
H610 H 0.08439 0.50652 0.6357 0.0
H611 H 0.05983 0.49486 0.608 0.0
Mn612 Mn 0.69129 0.66478 0.90642 0.0
Mn613 Mn 0.75393 0.70235 0.90189 0.0
C614 C 0.68991 0.71492 0.90164 0.0
C615 C 0.65447 0.63765 0.89258 0.0
C616 C 0.73278 0.67744 0.93633 0.0
O617 O 0.72172 0.63329 0.90129 0.0
O618 O 0.76082 0.66119 0.89469 0.0
C619 C 0.76192 0.70117 0.86387 0.0
N620 N 0.75845 0.71662 0.8788 0.0
C621 C 0.76168 0.76225 0.86346 0.0
C622 C 0.76538 0.74682 0.84793 0.0
C623 C 0.76549 0.71615 0.84814 0.0
C624 C 0.75855 0.74614 0.87877 0.0
H625 H 0.76189 0.67759 0.86398 0.0
C626 C 0.74792 0.63637 0.89582 0.0
O627 O 0.65918 0.63492 0.90912 0.0
O628 O 0.67109 0.65574 0.88434 0.0
N629 N 0.74932 0.74243 0.90833 0.0
C630 C 0.74308 0.75391 0.92418 0.0
C631 C 0.74093 0.78432 0.92608 0.0
C632 C 0.74522 0.80258 0.91168 0.0
C633 C 0.75142 0.79025 0.89548 0.0
C634 C 0.75357 0.75981 0.8944 0.0
H635 H 0.73965 0.73998 0.93527 0.0
O636 O 0.6677 0.70172 0.90854 0.0
O637 O 0.71207 0.69831 0.89815 0.0
O638 O 0.70746 0.66905 0.93139 0.0
O639 O 0.7515 0.68896 0.92615 0.0
C640 C 0.75494 0.80693 0.88028 0.0
C641 C 0.76012 0.79295 0.86429 0.0
H642 H 0.76783 0.7583 0.83574 0.0
H643 H 0.7682 0.7041 0.83619 0.0
H644 H 0.73591 0.79367 0.9386 0.0
H645 H 0.74347 0.82601 0.9132 0.0
H646 H 0.75329 0.83051 0.88071 0.0
H647 H 0.76234 0.80598 0.85266 0.0
Mn648 Mn 0.59102 0.4388 0.16252 0.0
Mn649 Mn 0.55389 0.502 0.15958 0.0
C650 C 0.54055 0.43823 0.15923 0.0
C651 C 0.6161 0.40152 0.14789 0.0
C652 C 0.58197 0.48008 0.19293 0.0
O653 O 0.62235 0.4689 0.15627 0.0
O654 O 0.59416 0.50835 0.15074 0.0
C655 C 0.55087 0.51108 0.12167 0.0
N656 N 0.5371 0.50708 0.13713 0.0
C657 C 0.48989 0.51053 0.1236 0.0
C658 C 0.50357 0.5147 0.10755 0.0
C659 C 0.53419 0.51499 0.10659 0.0
C660 C 0.50764 0.50713 0.13824 0.0
H661 H 0.5744 0.51118 0.12087 0.0
C662 C 0.61887 0.49508 0.15078 0.0
O663 O 0.6204 0.40619 0.16431 0.0
O664 O 0.59773 0.41854 0.14014 0.0
N665 N 0.51458 0.49747 0.16755 0.0
C666 C 0.50487 0.49073 0.18375 0.0
C667 C 0.47476 0.48817 0.18676 0.0
C668 C 0.45497 0.49251 0.1731 0.0
C669 C 0.46548 0.49928 0.15652 0.0
C670 C 0.49571 0.50179 0.15433 0.0
H671 H 0.51999 0.48715 0.19426 0.0
O672 O 0.5539 0.41577 0.16574 0.0
O673 O 0.55722 0.4602 0.15547 0.0
O674 O 0.58934 0.45468 0.18761 0.0
O675 O 0.56992 0.49922 0.18326 0.0
C676 C 0.44718 0.50295 0.14202 0.0
C677 C 0.45937 0.50867 0.12558 0.0
H678 H 0.49079 0.51736 0.09584 0.0
H679 H 0.54491 0.51808 0.09423 0.0
H680 H 0.46683 0.48272 0.19956 0.0
H681 H 0.43178 0.49032 0.17546 0.0
H682 H 0.42372 0.50101 0.14331 0.0
H683 H 0.44509 0.51103 0.11448 0.0
Mn684 Mn 0.81974 0.34989 0.40922 0.0
Mn685 Mn 0.75659 0.31213 0.40988 0.0
C686 C 0.82001 0.29975 0.40474 0.0
C687 C 0.85487 0.37648 0.39371 0.0
C688 C 0.78548 0.3362 0.44237 0.0
O689 O 0.78881 0.38145 0.4058 0.0
O690 O 0.7482 0.35368 0.40396 0.0
C691 C 0.73978 0.3155 0.37291 0.0
N692 N 0.74665 0.2992 0.38709 0.0
C693 C 0.74015 0.25449 0.3712 0.0
C694 C 0.73288 0.2708 0.35644 0.0
C695 C 0.7327 0.30143 0.3573 0.0
C696 C 0.74664 0.26971 0.38645 0.0
H697 H 0.73977 0.33905 0.37348 0.0
C698 C 0.76141 0.37837 0.40312 0.0
O699 O 0.85215 0.37932 0.41038 0.0
O700 O 0.83685 0.35883 0.38613 0.0
N701 N 0.76248 0.27169 0.41507 0.0
C702 C 0.77232 0.2593 0.43003 0.0
C703 C 0.77506 0.22881 0.43107 0.0
C704 C 0.76766 0.21142 0.41675 0.0
C705 C 0.75768 0.22467 0.40148 0.0
C706 C 0.75514 0.25513 0.40125 0.0
H707 H 0.77824 0.27257 0.44103 0.0
O708 O 0.84334 0.31298 0.41015 0.0
O709 O 0.79727 0.31628 0.40255 0.0
O710 O 0.80836 0.34602 0.43492 0.0
O711 O 0.76472 0.32384 0.43412 0.0
C712 C 0.7508 0.20889 0.38636 0.0
C713 C 0.74199 0.22378 0.37124 0.0
H714 H 0.72772 0.26004 0.34432 0.0
H715 H 0.72726 0.31417 0.34594 0.0
H716 H 0.78299 0.21875 0.44285 0.0
H717 H 0.76997 0.18793 0.41757 0.0
H718 H 0.75265 0.18531 0.38614 0.0
H719 H 0.73719 0.21144 0.35962 0.0
Mn720 Mn 0.91849 0.43406 0.8449 0.0
Mn721 Mn 0.95662 0.49695 0.84786 0.0
C722 C 0.96892 0.4328 0.84679 0.0
C723 C 0.89219 0.39497 0.8567 0.0
C724 C 0.9305 0.47541 0.81418 0.0
O725 O 0.88744 0.46344 0.8521 0.0
O726 O 0.91513 0.50386 0.85454 0.0
C727 C 0.95362 0.5051 0.88587 0.0
N728 N 0.96975 0.50177 0.87118 0.0
C729 C 0.01456 0.50802 0.88697 0.0
C730 C 0.99845 0.51159 0.90227 0.0
C731 C 0.96784 0.50995 0.90172 0.0
C732 C 0.99921 0.50279 0.87161 0.0
H733 H 0.93008 0.50417 0.88548 0.0
C734 C 0.8906 0.49048 0.85563 0.0
O735 O 0.88854 0.40359 0.84086 0.0
O736 O 0.91083 0.40954 0.866 0.0
N737 N 0.99704 0.49347 0.84201 0.0
C738 C 0.00937 0.48953 0.82612 0.0
C739 C 0.0399 0.48971 0.82451 0.0
C740 C 0.05739 0.49449 0.83918 0.0
C741 C 0.04418 0.49917 0.85533 0.0
C742 C 0.01366 0.49846 0.85617 0.0
H743 H 0.99603 0.4861 0.81477 0.0
O744 O 0.9546 0.41103 0.8402 0.0
O745 O 0.9533 0.45472 0.85219 0.0
O746 O 0.91992 0.45205 0.8206 0.0
O747 O 0.94466 0.49399 0.8232 0.0
C748 C 0.06007 0.50482 0.87058 0.0
C749 C 0.04525 0.50945 0.88637 0.0
H750 H 0.00934 0.51553 0.9145 0.0
H751 H 0.95525 0.51264 0.91347 0.0
H752 H 0.04992 0.48627 0.81198 0.0
H753 H 0.08093 0.4947 0.83789 0.0
H754 H 0.08369 0.50562 0.87033 0.0
H755 H 0.05772 0.51367 0.89803 0.0
Mn756 Mn 0.81556 0.66487 0.09426 0.0
Mn757 Mn 0.75126 0.7006 0.09327 0.0
C758 C 0.81412 0.71497 0.0988 0.0
C759 C 0.8512 0.63937 0.10996 0.0
C760 C 0.78119 0.67716 0.06096 0.0
O761 O 0.78564 0.63236 0.09766 0.0
O762 O 0.7442 0.65894 0.0994 0.0
C763 C 0.7339 0.69725 0.13015 0.0
N764 N 0.74064 0.71355 0.11594 0.0
C765 C 0.73282 0.75827 0.13163 0.0
C766 C 0.72571 0.74196 0.14641 0.0
C767 C 0.72625 0.71132 0.14566 0.0
C768 C 0.73988 0.74305 0.11646 0.0
H769 H 0.73445 0.6737 0.12968 0.0
C770 C 0.75819 0.63468 0.10041 0.0
O771 O 0.84889 0.6365 0.09327 0.0
O772 O 0.83258 0.6565 0.11745 0.0
N773 N 0.75612 0.74113 0.08792 0.0
C774 C 0.76602 0.75358 0.073 0.0
C775 C 0.76824 0.78409 0.0719 0.0
C776 C 0.76029 0.80147 0.08612 0.0
C777 C 0.75025 0.78816 0.10135 0.0
C778 C 0.74826 0.75766 0.10165 0.0
H779 H 0.77242 0.74032 0.06209 0.0
O780 O 0.83794 0.70258 0.09344 0.0
O781 O 0.79193 0.69767 0.10078 0.0
O782 O 0.80438 0.66827 0.06851 0.0
O783 O 0.75993 0.68881 0.06912 0.0
C784 C 0.74284 0.80394 0.11639 0.0
C785 C 0.73405 0.78901 0.1315 0.0
H786 H 0.72014 0.75272 0.15846 0.0
H787 H 0.72092 0.69858 0.15703 0.0
H788 H 0.77622 0.7942 0.06015 0.0
H789 H 0.76227 0.82499 0.08527 0.0
H790 H 0.74425 0.82754 0.11655 0.0
H791 H 0.72883 0.80136 0.14305 0.0
Mn792 Mn 0.58909 0.57579 0.34792 0.0
Mn793 Mn 0.55265 0.51184 0.3481 0.0
C794 C 0.53855 0.57569 0.34782 0.0
C795 C 0.61211 0.61324 0.36344 0.0
C796 C 0.58189 0.53652 0.31592 0.0
O797 O 0.6202 0.54648 0.35511 0.0
O798 O 0.59316 0.50553 0.35688 0.0
C799 C 0.55013 0.50172 0.38595 0.0
N800 N 0.53619 0.50552 0.37053 0.0
C801 C 0.48928 0.49838 0.38385 0.0
C802 C 0.50313 0.49427 0.39986 0.0
C803 C 0.53368 0.4961 0.40093 0.0
C804 C 0.50678 0.50422 0.3694 0.0
H805 H 0.57363 0.50291 0.3868 0.0
C806 C 0.61729 0.51943 0.35869 0.0
O807 O 0.61826 0.60844 0.34725 0.0
O808 O 0.59298 0.59622 0.37054 0.0
N809 N 0.51319 0.51489 0.34018 0.0
C810 C 0.50318 0.51977 0.3238 0.0
C811 C 0.473 0.5196 0.32064 0.0
C812 C 0.45347 0.51402 0.33427 0.0
C813 C 0.46432 0.50852 0.35094 0.0
C814 C 0.49461 0.50913 0.35333 0.0
H815 H 0.51808 0.52392 0.31326 0.0
O816 O 0.55294 0.59852 0.34275 0.0
O817 O 0.55424 0.55372 0.35307 0.0
O818 O 0.59057 0.56038 0.32283 0.0
O819 O 0.5682 0.51677 0.32434 0.0
C820 C 0.4463 0.50233 0.36525 0.0
C821 C 0.45878 0.49704 0.38166 0.0
H822 H 0.49051 0.48984 0.41144 0.0
H823 H 0.54453 0.49303 0.41325 0.0
H824 H 0.4648 0.52373 0.30772 0.0
H825 H 0.43021 0.5139 0.33177 0.0
H826 H 0.42279 0.50163 0.36379 0.0
H827 H 0.44469 0.4924 0.39259 0.0
Mn828 Mn 0.69317 0.33817 0.59647 0.0
Mn829 Mn 0.75642 0.30135 0.60002 0.0
C830 C 0.69262 0.28755 0.59761 0.0
C831 C 0.65541 0.36262 0.61101 0.0
C832 C 0.73626 0.33085 0.5667 0.0
O833 O 0.72257 0.3693 0.60379 0.0
O834 O 0.76181 0.34128 0.60969 0.0
C835 C 0.76149 0.29658 0.63812 0.0
N836 N 0.75953 0.28355 0.62232 0.0
C837 C 0.76486 0.23584 0.63494 0.0
C838 C 0.76712 0.24874 0.65136 0.0
C839 C 0.76524 0.27924 0.65296 0.0
C840 C 0.76086 0.25421 0.62065 0.0
H841 H 0.76032 0.32004 0.63937 0.0
C842 C 0.7485 0.36594 0.60956 0.0
O843 O 0.66088 0.3679 0.59478 0.0
O844 O 0.67172 0.34341 0.61858 0.0
N845 N 0.75391 0.2624 0.5912 0.0
C846 C 0.75087 0.25338 0.57447 0.0
C847 C 0.75123 0.22339 0.57071 0.0
C848 C 0.75507 0.20303 0.58413 0.0
C849 C 0.75859 0.21287 0.6012 0.0
C850 C 0.75791 0.24301 0.60418 0.0
H851 H 0.74809 0.26892 0.56409 0.0
O852 O 0.67031 0.30176 0.5916 0.0
O853 O 0.71422 0.30351 0.60295 0.0
O854 O 0.71058 0.33798 0.57169 0.0
O855 O 0.75501 0.31849 0.57654 0.0
C856 C 0.76288 0.19396 0.61537 0.0
C857 C 0.76629 0.20546 0.6322 0.0
H858 H 0.7701 0.23543 0.66283 0.0
H859 H 0.76684 0.28935 0.66559 0.0
H860 H 0.74859 0.21598 0.55749 0.0
H861 H 0.75535 0.17992 0.58118 0.0
H862 H 0.76361 0.17055 0.61347 0.0
H863 H 0.76963 0.19071 0.64299 0.0
Mn864 Mn 0.09108 0.44418 0.34681 0.0
Mn865 Mn 0.05427 0.50792 0.34603 0.0
C866 C 0.04053 0.44392 0.3472 0.0
C867 C 0.11512 0.40772 0.36259 0.0
C868 C 0.0829 0.48157 0.31412 0.0
O869 O 0.12214 0.47411 0.3531 0.0
O870 O 0.09483 0.51492 0.35454 0.0
C871 C 0.05215 0.51969 0.38372 0.0
N872 N 0.03804 0.51517 0.36842 0.0
C873 C 0.99123 0.52214 0.3819 0.0
C874 C 0.00526 0.527 0.39779 0.0
C875 C 0.03585 0.52563 0.39871 0.0
C876 C 0.00861 0.51602 0.36744 0.0
H877 H 0.07567 0.51881 0.38447 0.0
C878 C 0.1191 0.50127 0.35636 0.0
O879 O 0.12061 0.41196 0.34627 0.0
O880 O 0.096 0.42479 0.36971 0.0
N881 N 0.01473 0.5043 0.33834 0.0
C882 C 0.00454 0.49896 0.32205 0.0
C883 C 0.97432 0.49885 0.31902 0.0
C884 C 0.95492 0.50461 0.33269 0.0
C885 C 0.96594 0.51065 0.34925 0.0
C886 C 0.99626 0.51038 0.35151 0.0
H887 H 0.01933 0.49467 0.31147 0.0
O888 O 0.05497 0.42089 0.34249 0.0
O889 O 0.05619 0.4663 0.35182 0.0
O890 O 0.09163 0.45811 0.32147 0.0
O891 O 0.06956 0.50191 0.32225 0.0
C892 C 0.94804 0.51709 0.36358 0.0
C893 C 0.9607 0.52303 0.37986 0.0
H894 H 0.99275 0.53167 0.40937 0.0
H895 H 0.04683 0.52927 0.41093 0.0
H896 H 0.966 0.49433 0.30618 0.0
H897 H 0.93163 0.50448 0.3303 0.0
H898 H 0.92452 0.51751 0.36223 0.0
H899 H 0.9467 0.52788 0.3908 0.0
Mn900 Mn 0.31659 0.3456 0.09803 0.0
Mn901 Mn 0.25321 0.30836 0.10046 0.0
C902 C 0.31692 0.29605 0.10427 0.0
C903 C 0.35467 0.374 0.10914 0.0
C904 C 0.27913 0.32906 0.06651 0.0
O905 O 0.28638 0.37782 0.10178 0.0
O906 O 0.24559 0.35057 0.10477 0.0
C907 C 0.2394 0.31636 0.13762 0.0
N908 N 0.24495 0.29833 0.12399 0.0
C909 C 0.23894 0.2557 0.14187 0.0
C910 C 0.23305 0.27382 0.15608 0.0
C911 C 0.23329 0.30428 0.15394 0.0
C912 C 0.24456 0.26898 0.12587 0.0
H913 H 0.23968 0.33979 0.13606 0.0
C914 C 0.25903 0.37519 0.1048 0.0
O915 O 0.34759 0.37425 0.0929 0.0
O916 O 0.33894 0.35772 0.11931 0.0
N917 N 0.25832 0.26734 0.09687 0.0
C918 C 0.26679 0.25306 0.08223 0.0
C919 C 0.26882 0.22248 0.08237 0.0
C920 C 0.2621 0.20692 0.09753 0.0
C921 C 0.2536 0.2221 0.11247 0.0
C922 C 0.25171 0.25257 0.11152 0.0
H923 H 0.27213 0.26494 0.07057 0.0
O924 O 0.33961 0.30834 0.09731 0.0
O925 O 0.29459 0.31301 0.10686 0.0
O926 O 0.30209 0.33949 0.07336 0.0
O927 O 0.259 0.317 0.07541 0.0
C928 C 0.24755 0.20824 0.12836 0.0
C929 C 0.24019 0.22503 0.14305 0.0
H930 H 0.22861 0.2646 0.16873 0.0
H931 H 0.2289 0.31841 0.16487 0.0
H932 H 0.27563 0.21092 0.07083 0.0
H933 H 0.26379 0.18334 0.09761 0.0
H934 H 0.24893 0.18471 0.1295 0.0
H935 H 0.23602 0.21415 0.15526 0.0
Mn936 Mn 0.4189 0.56659 0.84612 0.0
Mn937 Mn 0.45559 0.50276 0.84608 0.0
C938 C 0.46944 0.56676 0.84701 0.0
C939 C 0.3949 0.60341 0.86162 0.0
C940 C 0.42778 0.52854 0.81372 0.0
O941 O 0.38753 0.53686 0.85228 0.0
O942 O 0.41469 0.49598 0.85406 0.0
C943 C 0.45632 0.49189 0.88388 0.0
N944 N 0.471 0.496 0.86873 0.0
C945 C 0.51732 0.48995 0.88296 0.0
C946 C 0.50271 0.48552 0.8987 0.0
C947 C 0.47208 0.48661 0.89917 0.0
C948 C 0.50047 0.49538 0.86818 0.0
H949 H 0.43277 0.49263 0.88429 0.0
C950 C 0.39038 0.50968 0.85555 0.0
O951 O 0.38963 0.59911 0.84528 0.0
O952 O 0.41366 0.58618 0.86892 0.0
N953 N 0.4954 0.50612 0.83887 0.0
C954 C 0.50617 0.51078 0.82264 0.0
C955 C 0.53649 0.51086 0.82001 0.0
C956 C 0.5554 0.50577 0.83401 0.0
C957 C 0.54379 0.50038 0.85051 0.0
C958 C 0.51339 0.50057 0.85235 0.0
H959 H 0.49175 0.51459 0.81181 0.0
O960 O 0.45518 0.58972 0.84201 0.0
O961 O 0.45361 0.54446 0.85156 0.0
O962 O 0.41884 0.55215 0.82083 0.0
O963 O 0.44108 0.50842 0.82208 0.0
C964 C 0.56117 0.49465 0.86517 0.0
C965 C 0.54794 0.48929 0.88137 0.0
H966 H 0.51479 0.48138 0.91051 0.0
H967 H 0.46064 0.48331 0.91128 0.0
H968 H 0.54528 0.51485 0.80721 0.0
H969 H 0.57878 0.50591 0.83194 0.0
H970 H 0.58475 0.49435 0.86415 0.0
H971 H 0.56154 0.48499 0.89256 0.0
Mn972 Mn 0.19401 0.66452 0.5966 0.0
Mn973 Mn 0.25528 0.70175 0.60632 0.0
C974 C 0.1913 0.71359 0.60406 0.0
C975 C 0.15447 0.63555 0.60521 0.0
C976 C 0.23928 0.68311 0.56969 0.0
O977 O 0.2237 0.63225 0.60187 0.0
O978 O 0.26202 0.65949 0.61068 0.0
C979 C 0.25857 0.69244 0.6442 0.0
N980 N 0.25681 0.71095 0.63044 0.0
C981 C 0.25802 0.75295 0.64915 0.0
C982 C 0.25995 0.73433 0.66352 0.0
C983 C 0.2602 0.70394 0.66104 0.0
C984 C 0.25676 0.74023 0.63267 0.0
H985 H 0.25867 0.66907 0.64234 0.0
C986 C 0.24951 0.63481 0.60807 0.0
O987 O 0.16375 0.63573 0.58931 0.0
O988 O 0.16872 0.65152 0.6162 0.0
N989 N 0.2509 0.74287 0.60277 0.0
C990 C 0.24637 0.75764 0.58768 0.0
C991 C 0.24425 0.78822 0.58798 0.0
C992 C 0.24686 0.80326 0.60376 0.0
C993 C 0.25133 0.78757 0.61913 0.0
C994 C 0.25351 0.75714 0.61802 0.0
H995 H 0.24424 0.74616 0.57554 0.0
O996 O 0.17065 0.7016 0.59501 0.0
O997 O 0.21298 0.69659 0.60803 0.0
O998 O 0.21411 0.67277 0.5732 0.0
O999 O 0.25626 0.69378 0.58117 0.0
C1000 C 0.25307 0.80088 0.63555 0.0
C1001 C 0.25645 0.78359 0.65055 0.0
H1002 H 0.26092 0.74311 0.67654 0.0
H1003 H 0.26155 0.68943 0.67207 0.0
H1004 H 0.24055 0.80017 0.57609 0.0
H1005 H 0.24514 0.82683 0.60394 0.0
H1006 H 0.25136 0.82437 0.63682 0.0
H1007 H 0.25728 0.79404 0.66312 0.0
Mn1008 Mn 0.08637 0.57259 0.15981 0.0
Mn1009 Mn 0.04994 0.50904 0.15684 0.0
C1010 C 0.03575 0.57279 0.15907 0.0
C1011 C 0.11019 0.61048 0.14508 0.0
C1012 C 0.07993 0.52988 0.18984 0.0
O1013 O 0.11756 0.5433 0.15232 0.0
O1014 O 0.08967 0.50381 0.14688 0.0
C1015 C 0.0444 0.50338 0.11881 0.0
N1016 N 0.03169 0.5055 0.1347 0.0
C1017 C 0.98377 0.49966 0.12247 0.0
C1018 C 0.99634 0.49723 0.10597 0.0
C1019 C 0.02678 0.49929 0.10412 0.0
C1020 C 1.00241 0.50399 0.13659 0.0
H1021 H 0.06782 0.50468 0.11737 0.0
C1022 C 0.11423 0.51727 0.14667 0.0
O1023 O 0.11585 0.60505 0.16127 0.0
O1024 O 0.09101 0.59398 0.13763 0.0
N1025 N 0.01117 0.51141 0.16595 0.0
C1026 C 1.00247 0.51466 0.18272 0.0
C1027 C 0.97258 0.51417 0.18671 0.0
C1028 C 0.95197 0.50999 0.17346 0.0
C1029 C 0.96148 0.50628 0.15634 0.0
C1030 C 0.99154 0.50711 0.15313 0.0
H1031 H 0.0182 0.51769 0.19297 0.0
O1032 O 0.04993 0.59524 0.16489 0.0
O1033 O 0.05172 0.55123 0.15366 0.0
O1034 O 0.0868 0.55549 0.18463 0.0
O1035 O 0.06756 0.51086 0.18021 0.0
C1036 C 0.94231 0.50166 0.14234 0.0
C1037 C 0.95348 0.49806 0.12544 0.0
H1038 H 0.98282 0.49399 0.09462 0.0
H1039 H 0.03664 0.49755 0.09143 0.0
H1040 H 0.96543 0.51696 0.19997 0.0
H1041 H 0.92893 0.50962 0.17659 0.0
H1042 H 0.91895 0.5008 0.14442 0.0
H1043 H 0.93853 0.49447 0.11478 0.0
Mn1044 Mn 0.19022 0.34037 0.91133 0.0
Mn1045 Mn 0.25324 0.30269 0.90913 0.0
C1046 C 0.18915 0.28983 0.91067 0.0
C1047 C 0.15321 0.36483 0.89614 0.0
C1048 C 0.23124 0.33196 0.94205 0.0
O1049 O 0.22028 0.37115 0.90436 0.0
O1050 O 0.25971 0.34274 0.89985 0.0
C1051 C 0.26058 0.29876 0.87113 0.0
N1052 N 0.25761 0.28538 0.88679 0.0
C1053 C 0.26399 0.23798 0.87397 0.0
C1054 C 0.26726 0.25123 0.8577 0.0
C1055 C 0.26536 0.28175 0.85627 0.0
C1056 C 0.25891 0.25602 0.88827 0.0
H1057 H 0.25945 0.32224 0.87002 0.0
C1058 C 0.24664 0.3675 0.89938 0.0
O1059 O 0.15814 0.37036 0.91241 0.0
O1060 O 0.16977 0.34552 0.88887 0.0
N1061 N 0.24998 0.26356 0.9176 0.0
C1062 C 0.24595 0.25418 0.93418 0.0
C1063 C 0.24609 0.22411 0.93773 0.0
C1064 C 0.25086 0.20405 0.92426 0.0
C1065 C 0.25551 0.21427 0.90736 0.0
C1066 C 0.25487 0.24446 0.90458 0.0
H1067 H 0.2425 0.26949 0.94461 0.0
O1068 O 0.16672 0.30448 0.91611 0.0
O1069 O 0.2112 0.30529 0.90539 0.0
O1070 O 0.20629 0.34017 0.93639 0.0
O1071 O 0.25039 0.31923 0.93268 0.0
C1072 C 0.26095 0.19569 0.89319 0.0
C1073 C 0.2655 0.20757 0.87654 0.0
H1074 H 0.27108 0.23818 0.84623 0.0
H1075 H 0.26777 0.29214 0.84376 0.0
H1076 H 0.24263 0.21641 0.95083 0.0
H1077 H 0.25103 0.18088 0.92706 0.0
H1078 H 0.26171 0.17224 0.89494 0.0
H1079 H 0.26964 0.19306 0.86574 0.0
Mn1080 Mn 0.42023 0.43292 0.65984 0.0
Mn1081 Mn 0.45759 0.496 0.65696 0.0
C1082 C 0.47086 0.43201 0.65889 0.0
C1083 C 0.39591 0.39535 0.64503 0.0
C1084 C 0.42789 0.47524 0.69006 0.0
O1085 O 0.38931 0.46265 0.65255 0.0
O1086 O 0.41762 0.50199 0.64747 0.0
C1087 C 0.46203 0.50208 0.6189 0.0
N1088 N 0.4752 0.4996 0.63465 0.0
C1089 C 0.5228 0.50504 0.62194 0.0
C1090 C 0.50977 0.5078 0.60558 0.0
C1091 C 0.47926 0.50613 0.60405 0.0
C1092 C 0.50455 0.50073 0.63624 0.0
H1093 H 0.43856 0.50108 0.61771 0.0
C1094 C 0.39289 0.48885 0.64724 0.0
O1095 O 0.3904 0.40069 0.66125 0.0
O1096 O 0.41516 0.41179 0.6376 0.0
N1097 N 0.49659 0.49299 0.66565 0.0
C1098 C 0.50574 0.48944 0.68232 0.0
C1099 C 0.53575 0.48952 0.686 0.0
C1100 C 0.556 0.49363 0.67256 0.0
C1101 C 0.54604 0.4977 0.65555 0.0
C1102 C 0.51588 0.49724 0.65265 0.0
H1103 H 0.49027 0.48646 0.69272 0.0
O1104 O 0.45641 0.40975 0.66474 0.0
O1105 O 0.45514 0.45387 0.65361 0.0
O1106 O 0.42023 0.44989 0.68475 0.0
O1107 O 0.44064 0.49407 0.68048 0.0
C1108 C 0.56483 0.50233 0.64137 0.0
C1109 C 0.5532 0.50629 0.62461 0.0
H1110 H 0.52298 0.51103 0.59411 0.0
H1111 H 0.46904 0.50814 0.59147 0.0
H1112 H 0.54326 0.48647 0.69917 0.0
H1113 H 0.57914 0.4937 0.67545 0.0
H1114 H 0.58826 0.5029 0.64321 0.0
H1115 H 0.56786 0.50986 0.61382 0.0
Mn1116 Mn 0.31911 0.67036 0.41118 0.0
Mn1117 Mn 0.25545 0.70732 0.41278 0.0
C1118 C 0.31945 0.72086 0.41016 0.0
C1119 C 0.35454 0.64551 0.39504 0.0
C1120 C 0.28395 0.68027 0.44452 0.0
O1121 O 0.28871 0.63909 0.40604 0.0
O1122 O 0.24798 0.66652 0.40493 0.0
C1123 C 0.24168 0.70807 0.37531 0.0
N1124 N 0.24697 0.72274 0.39033 0.0
C1125 C 0.23926 0.76905 0.37637 0.0
C1126 C 0.23362 0.75445 0.36076 0.0
C1127 C 0.23496 0.72383 0.36022 0.0
C1128 C 0.24616 0.75221 0.39093 0.0
H1129 H 0.24255 0.68452 0.37485 0.0
C1130 C 0.26143 0.64213 0.4032 0.0
O1131 O 0.3512 0.64071 0.41151 0.0
O1132 O 0.33708 0.66435 0.38797 0.0
N1133 N 0.25938 0.74715 0.41989 0.0
C1134 C 0.26526 0.75792 0.43597 0.0
C1135 C 0.26534 0.78825 0.43863 0.0
C1136 C 0.25892 0.80715 0.42481 0.0
C1137 C 0.25224 0.79553 0.40849 0.0
C1138 C 0.25258 0.76513 0.4066 0.0
H1139 H 0.27003 0.74353 0.44668 0.0
O1140 O 0.34277 0.70652 0.41443 0.0
O1141 O 0.29674 0.70515 0.4062 0.0
O1142 O 0.30692 0.67122 0.4368 0.0
O1143 O 0.26288 0.69292 0.43664 0.0
C1144 C 0.24502 0.8129 0.39405 0.0
C1145 C 0.23838 0.79966 0.37803 0.0
H1146 H 0.22832 0.76654 0.34911 0.0
H1147 H 0.23071 0.7124 0.34821 0.0
H1148 H 0.27031 0.79704 0.4513 0.0
H1149 H 0.25902 0.83053 0.42691 0.0
H1150 H 0.24455 0.83647 0.39511 0.0
H1151 H 0.23295 0.81325 0.367 0.0
H1152 H 0.43024 0.02393 0.29431 0.0
H1153 H 0.41896 0.9299 0.29201 0.0
H1154 H 0.41703 0.93251 0.26009 0.0
H1155 H 0.38085 0.0407 0.25888 0.0
H1156 H 0.40263 0.07055 0.25086 0.0
H1157 H 0.40335 0.06142 0.27357 0.0
H1158 H 0.45954 0.05584 0.27224 0.0
H1159 H 0.45901 0.06493 0.24953 0.0
H1160 H 0.4755 0.03127 0.25665 0.0
H1161 H 0.41865 0.94483 0.2285 0.0
H1162 H 0.42058 0.96617 0.19923 0.0
H1163 H 0.42798 0.05284 0.2215 0.0
C1164 C 0.42737 1.00386 0.28711 0.0
C1165 C 0.42486 0.97663 0.29575 0.0
C1166 C 0.42086 0.95099 0.28577 0.0
C1167 C 0.4198 0.95226 0.2676 0.0
C1168 C 0.42241 0.97937 0.25953 0.0
C1169 C 0.42582 0.00477 0.26893 0.0
C1170 C 0.42764 0.03114 0.257 0.0
C1171 C 0.40209 0.05219 0.26027 0.0
C1172 C 0.45718 0.04671 0.25897 0.0
C1173 C 0.42499 0.01655 0.2394 0.0
C1174 C 0.42222 0.98664 0.24122 0.0
C1175 C 0.42057 0.96822 0.22692 0.0
C1176 C 0.4218 0.98059 0.21033 0.0
C1177 C 0.4243 0.01121 0.20802 0.0
C1178 C 0.4257 0.02942 0.22282 0.0
H1179 H 0.23777 0.19256 0.54378 0.0
H1180 H 0.32005 0.14569 0.54011 0.0
H1181 H 0.31278 0.14 0.50877 0.0
H1182 H 0.1988 0.14926 0.51133 0.0
H1183 H 0.17937 0.18015 0.50259 0.0
H1184 H 0.19017 0.17993 0.52504 0.0
H1185 H 0.21754 0.22884 0.52069 0.0
H1186 H 0.20673 0.22927 0.49826 0.0
H1187 H 0.24481 0.23165 0.50394 0.0
H1188 H 0.29884 0.14174 0.47778 0.0
H1189 H 0.27832 0.15043 0.44867 0.0
H1190 H 0.20388 0.1943 0.47154 0.0
C1191 C 0.25417 0.18091 0.53642 0.0
C1192 C 0.27952 0.16956 0.54458 0.0
C1193 C 0.30044 0.15461 0.53434 0.0
C1194 C 0.2965 0.15118 0.51646 0.0
C1195 C 0.27144 0.16264 0.50887 0.0
C1196 C 0.25053 0.17713 0.51846 0.0
C1197 C 0.22595 0.18792 0.50684 0.0
C1198 C 0.19685 0.17345 0.51175 0.0
C1199 C 0.22364 0.22141 0.50747 0.0
C1200 C 0.23656 0.1775 0.48923 0.0
C1201 C 0.26289 0.16297 0.4908 0.0
C1202 C 0.27805 0.15271 0.4764 0.0
C1203 C 0.26625 0.15773 0.45993 0.0
C1204 C 0.23936 0.17253 0.45793 0.0
C1205 C 0.2241 0.18225 0.47279 0.0
H1206 H 0.08239 0.98451 0.79408 0.0
H1207 H 0.09843 0.0779 0.7922 0.0
H1208 H 0.10034 0.07565 0.7603 0.0
H1209 H 0.1306 0.96565 0.75804 0.0
H1210 H 0.10692 0.93721 0.75013 0.0
H1211 H 0.10751 0.94594 0.77289 0.0
H1212 H 0.05165 0.95458 0.77227 0.0
H1213 H 0.05088 0.94596 0.74951 0.0
H1214 H 0.03654 0.98034 0.75704 0.0
H1215 H 0.0968 0.0641 0.72864 0.0
H1216 H 0.09182 0.04339 0.69927 0.0
H1217 H 0.08101 0.95694 0.72132 0.0
C1218 C 0.08652 0.00448 0.78698 0.0
C1219 C 0.09024 0.03143 0.79573 0.0
C1220 C 0.09566 0.05698 0.78589 0.0
C1221 C 0.09671 0.05595 0.76772 0.0
C1222 C 0.09267 0.02914 0.75954 0.0
C1223 C 0.08804 1.00379 0.76883 0.0
C1224 C 0.08435 0.97781 0.7568 0.0
C1225 C 0.10881 0.95533 0.75964 0.0
C1226 C 0.05405 0.96386 0.75904 0.0
C1227 C 0.0872 0.99261 0.73929 0.0
C1228 C 0.0918 0.02226 0.7412 0.0
C1229 C 0.09358 0.04087 0.72697 0.0
C1230 C 0.09062 0.02891 0.71035 0.0
C1231 C 0.0863 0.99854 0.708 0.0
C1232 C 0.0848 0.98016 0.72271 0.0
H1233 H 0.30133 0.82056 0.97211 0.0
H1234 H 0.21681 0.83533 0.94829 0.0
H1235 H 0.19462 0.84116 0.97716 0.0
H1236 H 0.27364 0.77727 0.00744 0.0
H1237 H 0.29906 0.79121 0.02322 0.0
H1238 H 0.30907 0.79001 1.00067 0.0
H1239 H 0.32032 0.8454 1.0013 0.0
H1240 H 0.31033 0.84676 0.02387 0.0
H1241 H 0.29259 0.87054 0.00852 0.0
H1242 H 0.18132 0.8457 0.00822 0.0
H1243 H 0.17666 0.84504 0.03994 0.0
H1244 H 0.26887 0.82428 0.04459 0.0
C1245 C 0.27823 0.82531 0.97303 0.0
C1246 C 0.26081 0.8277 0.95794 0.0
C1247 C 0.23056 0.83337 0.95966 0.0
C1248 C 0.21776 0.83684 0.976 0.0
C1249 C 0.23538 0.83418 0.99062 0.0
C1250 C 0.26488 0.82825 0.98937 0.0
C1251 C 0.27832 0.82491 0.00729 0.0
C1252 C 0.29076 0.79401 0.0098 0.0
C1253 C 0.30178 0.8483 0.01043 0.0
C1254 C 0.25175 0.82995 0.01871 0.0
C1255 C 0.22735 0.83559 0.00875 0.0
C1256 C 0.20025 0.84124 0.01617 0.0
C1257 C 0.19787 0.8409 0.03426 0.0
C1258 C 0.22235 0.83461 0.04488 0.0
C1259 C 0.2497 0.8291 0.0369 0.0
H1260 H 0.5768 0.96087 0.79102 0.0
H1261 H 0.57878 0.04789 0.81323 0.0
H1262 H 0.58252 0.0691 0.78397 0.0
H1263 H 0.62678 0.97425 0.7556 0.0
H1264 H 0.60665 0.95249 0.74025 0.0
H1265 H 0.60519 0.94381 0.763 0.0
H1266 H 0.54877 0.94745 0.76231 0.0
H1267 H 0.55007 0.95605 0.73955 0.0
H1268 H 0.53179 0.98034 0.75437 0.0
H1269 H 0.5872 0.08113 0.75229 0.0
H1270 H 0.58815 0.08318 0.72031 0.0
H1271 H 0.58023 0.9888 0.71828 0.0
C1272 C 0.57815 0.98437 0.78971 0.0
C1273 C 0.57761 1.00268 0.80449 0.0
C1274 C 0.57903 0.03336 0.80216 0.0
C1275 C 0.58131 0.04566 0.78557 0.0
C1276 C 0.58177 0.02708 0.7713 0.0
C1277 C 0.57989 0.99711 0.77315 0.0
C1278 C 0.57958 0.98223 0.75558 0.0
C1279 C 0.60613 0.962 0.75349 0.0
C1280 C 0.55084 0.96553 0.75279 0.0
C1281 C 0.58169 0.00849 0.74362 0.0
C1282 C 0.58327 0.03412 0.75297 0.0
C1283 C 0.58583 0.06119 0.74482 0.0
C1284 C 0.58648 0.06213 0.72663 0.0
C1285 C 0.58418 0.03621 0.71671 0.0
C1286 C 0.58185 0.00906 0.72543 0.0
H1287 H 0.70297 0.8287 0.47474 0.0
H1288 H 0.78729 0.84695 0.45162 0.0
H1289 H 0.80911 0.85146 0.48069 0.0
H1290 H 0.71048 0.87637 0.51266 0.0
H1291 H 0.69307 0.85095 0.52719 0.0
H1292 H 0.68327 0.85143 0.50458 0.0
H1293 H 0.69549 0.79635 0.50228 0.0
H1294 H 0.70535 0.79573 0.52486 0.0
H1295 H 0.73111 0.78365 0.50874 0.0
H1296 H 0.8223 0.85321 0.51205 0.0
H1297 H 0.82677 0.84899 0.54375 0.0
H1298 H 0.73475 0.82687 0.54716 0.0
C1299 C 0.7259 0.83408 0.47587 0.0
C1300 C 0.74341 0.83774 0.46091 0.0
C1301 C 0.77349 0.84408 0.46288 0.0
C1302 C 0.78607 0.8468 0.47935 0.0
C1303 C 0.76842 0.84276 0.49383 0.0
C1304 C 0.73904 0.83631 0.49231 0.0
C1305 C 0.72558 0.83115 0.51005 0.0
C1306 C 0.70168 0.85383 0.51384 0.0
C1307 C 0.71368 0.79986 0.51156 0.0
C1308 C 0.75198 0.83564 0.52168 0.0
C1309 C 0.77635 0.84266 0.51203 0.0
C1310 C 0.80336 0.84775 0.51976 0.0
C1311 C 0.80565 0.84535 0.53783 0.0
C1312 C 0.78117 0.83759 0.54808 0.0
C1313 C 0.75394 0.83283 0.53978 0.0
H1314 H 0.92888 0.05281 0.28968 0.0
H1315 H 0.92036 0.96723 0.31329 0.0
H1316 H 0.9172 0.94478 0.28436 0.0
H1317 H 0.88044 0.04009 0.25297 0.0
H1318 H 0.90289 0.05991 0.23783 0.0
H1319 H 0.903 0.06979 0.26042 0.0
H1320 H 0.95913 0.06328 0.26137 0.0
H1321 H 0.95918 0.0533 0.2388 0.0
H1322 H 0.97496 0.02908 0.25464 0.0
H1323 H 0.91472 0.93125 0.25321 0.0
H1324 H 0.91546 0.92709 0.2214 0.0
H1325 H 0.92832 0.02077 0.21722 0.0
C1326 C 0.92602 0.02941 0.28871 0.0
C1327 C 0.9247 0.01179 0.30377 0.0
C1328 C 0.9215 0.98117 0.30196 0.0
C1329 C 0.91959 0.96819 0.28558 0.0
C1330 C 0.92126 0.98602 0.27101 0.0
C1331 C 0.92461 0.01593 0.27234 0.0
C1332 C 0.9271 0.02971 0.25449 0.0
C1333 C 0.90185 0.05114 0.25124 0.0
C1334 C 0.95686 0.04473 0.25219 0.0
C1335 C 0.92455 1.00288 0.243 0.0
C1336 C 0.92093 0.97799 0.25286 0.0
C1337 C 0.91761 0.95057 0.24533 0.0
C1338 C 0.91801 0.94845 0.22721 0.0
C1339 C 0.92202 0.97355 0.21673 0.0
C1340 C 0.92543 1.00112 0.22483 0.0
H1341 H 0.79266 0.2137 0.97469 0.0
H1342 H 0.78381 0.12177 0.96267 0.0
H1343 H 0.76752 0.11215 0.99275 0.0
H1344 H 0.82051 0.20202 0.01944 0.0
H1345 H 0.80189 0.23374 0.02773 0.0
H1346 H 0.81406 0.23298 0.00553 0.0
H1347 H 0.76145 0.2444 0.99531 0.0
H1348 H 0.74904 0.24484 0.01744 0.0
H1349 H 0.73195 0.22088 1.00195 0.0
H1350 H 0.74629 0.1138 0.02291 0.0
H1351 H 0.72898 0.12503 0.05253 0.0
H1352 H 0.75641 0.21496 0.04617 0.0
C1353 C 0.78787 0.19149 0.97855 0.0
C1354 C 0.78965 0.16836 0.96649 0.0
C1355 C 0.78298 0.13962 0.97187 0.0
C1356 C 0.77353 0.13403 0.98886 0.0
C1357 C 0.77146 0.15736 1.00041 0.0
C1358 C 0.77917 0.18541 0.99563 0.0
C1359 C 0.77521 0.2065 0.01063 0.0
C1360 C 0.80467 0.21958 0.01616 0.0
C1361 C 0.75309 0.23057 0.00605 0.0
C1362 C 0.76326 0.18611 0.02442 0.0
C1363 C 0.76096 0.15792 0.01817 0.0
C1364 C 0.74855 0.13566 0.02805 0.0
C1365 C 0.7386 0.14227 0.04481 0.0
C1366 C 0.7416 0.17075 0.05169 0.0
C1367 C 0.75424 0.19289 0.04135 0.0
H1368 H 0.95198 0.55435 0.72154 0.0
H1369 H 0.89709 0.48609 0.70034 0.0
H1370 H 0.8891 0.46632 0.72969 0.0
H1371 H 0.98732 0.50942 0.75251 0.0
H1372 H 0.98929 0.53658 0.76936 0.0
H1373 H 0.9885 0.54764 0.74698 0.0
H1374 H 0.94333 0.58008 0.75296 0.0
H1375 H 0.94412 0.5693 0.77542 0.0
H1376 H 0.9114 0.56417 0.76282 0.0
H1377 H 0.88942 0.45182 0.76055 0.0
H1378 H 0.89736 0.44345 0.79163 0.0
H1379 H 0.95304 0.52017 0.79384 0.0
C1380 C 0.93771 0.53573 0.72324 0.0
C1381 C 0.92468 0.52194 0.70878 0.0
C1382 C 0.90693 0.49706 0.71133 0.0
C1383 C 0.9023 0.48568 0.72793 0.0
C1384 C 0.91579 0.49928 0.74192 0.0
C1385 C 0.93308 0.52379 0.73985 0.0
C1386 C 0.94633 0.53288 0.75711 0.0
C1387 C 0.97985 0.53154 0.75644 0.0
C1388 C 0.93565 0.56342 0.76239 0.0
C1389 C 0.93401 0.50949 0.76904 0.0
C1390 C 0.91634 0.4905 0.75995 0.0
C1391 C 0.90304 0.46666 0.76787 0.0
C1392 C 0.9078 0.46204 0.78558 0.0
C1393 C 0.92581 0.48111 0.79535 0.0
C1394 C 0.93902 0.50523 0.78686 0.0
H1395 H 0.73363 0.68964 0.04012 0.0
H1396 H 0.82261 0.65695 0.0382 0.0
H1397 H 0.81835 0.65128 0.00654 0.0
H1398 H 0.70431 0.64165 0.00687 0.0
H1399 H 0.68047 0.66908 0.99791 0.0
H1400 H 0.69005 0.67018 0.02054 0.0
H1401 H 0.70915 0.72302 0.01692 0.0
H1402 H 0.69952 0.72215 0.99431 0.0
H1403 H 0.73638 0.73068 1.00069 0.0
H1404 H 0.80562 0.6511 0.97517 0.0
H1405 H 0.78523 0.65626 0.9458 0.0
H1406 H 0.70361 0.68746 0.96741 0.0
C1407 C 0.75225 0.6812 0.03309 0.0
C1408 C 0.77853 0.67375 0.04179 0.0
C1409 C 0.80226 0.66281 0.03196 0.0
C1410 C 0.80003 0.65946 0.01394 0.0
C1411 C 0.77388 0.66695 0.00583 0.0
C1412 C 0.75035 0.67754 0.01505 0.0
C1413 C 0.72489 0.68437 1.00304 0.0
C1414 C 0.69836 0.66517 0.00735 0.0
C1415 C 0.71703 0.71699 1.00379 0.0
C1416 C 0.73791 0.67624 0.9856 0.0
C1417 C 0.76622 0.66625 0.9876 0.0
C1418 C 0.78342 0.65864 0.97346 0.0
C1419 C 0.77163 0.66168 0.95683 0.0
C1420 C 0.74278 0.672 0.95433 0.0
C1421 C 0.72551 0.67898 0.96895 0.0
H1422 H 0.56491 0.48941 0.29594 0.0
H1423 H 0.6112 0.57204 0.29307 0.0
H1424 H 0.61927 0.56419 0.26183 0.0
H1425 H 0.6104 0.45001 0.2648 0.0
H1426 H 0.58004 0.43034 0.25562 0.0
H1427 H 0.57905 0.44156 0.27799 0.0
H1428 H 0.53032 0.46873 0.27256 0.0
H1429 H 0.53108 0.4575 0.25022 0.0
H1430 H 0.5283 0.49569 0.25558 0.0
H1431 H 0.6196 0.54927 0.23071 0.0
H1432 H 0.61205 0.52833 0.2016 0.0
H1433 H 0.56686 0.45446 0.2242 0.0
C1434 C 0.57701 0.50579 0.28882 0.0
C1435 C 0.58748 0.53139 0.29711 0.0
C1436 C 0.60297 0.55226 0.28715 0.0
C1437 C 0.60773 0.54795 0.26936 0.0
C1438 C 0.59704 0.52259 0.26164 0.0
C1439 C 0.58203 0.50181 0.27103 0.0
C1440 C 0.57191 0.47699 0.25941 0.0
C1441 C 0.58621 0.44801 0.26478 0.0
C1442 C 0.53842 0.4746 0.25945 0.0
C1443 C 0.58321 0.48727 0.24195 0.0
C1444 C 0.59772 0.51363 0.24362 0.0
C1445 C 0.60866 0.52848 0.22929 0.0
C1446 C 0.60429 0.51641 0.21282 0.0
C1447 C 0.58936 0.48959 0.21072 0.0
C1448 C 0.57904 0.47459 0.22551 0.0
H1449 H 0.7078 0.32114 0.53553 0.0
H1450 H 0.78788 0.35485 0.55776 0.0
H1451 H 0.80824 0.36187 0.52847 0.0
H1452 H 0.74241 0.2802 0.50239 0.0
H1453 H 0.71503 0.28686 0.48609 0.0
H1454 H 0.70518 0.28726 0.50867 0.0
H1455 H 0.68412 0.33943 0.5053 0.0
H1456 H 0.69369 0.33909 0.48266 0.0
H1457 H 0.7068 0.36795 0.49649 0.0
H1458 H 0.82118 0.36295 0.49702 0.0
H1459 H 0.8259 0.35783 0.46534 0.0
H1460 H 0.73834 0.32162 0.46303 0.0
C1461 C 0.7293 0.33066 0.53414 0.0
C1462 C 0.74615 0.33786 0.54889 0.0
C1463 C 0.77457 0.3494 0.54662 0.0
C1464 C 0.78633 0.35347 0.53004 0.0
C1465 C 0.76954 0.34561 0.51575 0.0
C1466 C 0.74164 0.33445 0.51757 0.0
C1467 C 0.72914 0.32604 0.50004 0.0
C1468 C 0.72256 0.29314 0.49926 0.0
C1469 C 0.70182 0.34422 0.49588 0.0
C1470 C 0.75439 0.33407 0.48818 0.0
C1471 C 0.77737 0.34551 0.49753 0.0
C1472 C 0.80327 0.35414 0.48954 0.0
C1473 C 0.80576 0.35109 0.47149 0.0
C1474 C 0.78257 0.33932 0.46154 0.0
C1475 C 0.75655 0.33072 0.47014 0.0
H1476 H 0.06868 0.52877 0.29335 0.0
H1477 H 0.10796 0.44246 0.29163 0.0
H1478 H 0.11439 0.44737 0.26008 0.0
H1479 H 0.029 0.52297 0.25403 0.0
H1480 H 0.03466 0.56034 0.24754 0.0
H1481 H 0.03449 0.55085 0.27018 0.0
H1482 H 0.08572 0.57395 0.27378 0.0
H1483 H 0.08609 0.58346 0.25112 0.0
H1484 H 0.11527 0.56186 0.26013 0.0
H1485 H 0.11332 0.45973 0.22859 0.0
H1486 H 0.10567 0.47924 0.19913 0.0
H1487 H 0.06901 0.55851 0.22074 0.0
C1488 C 0.07891 0.51097 0.2864 0.0
C1489 C 0.08784 0.48518 0.29513 0.0
C1490 C 0.10096 0.46245 0.28539 0.0
C1491 C 0.10476 0.46504 0.26742 0.0
C1492 C 0.09556 0.4906 0.25927 0.0
C1493 C 0.08303 0.51325 0.26842 0.0
C1494 C 0.07427 0.53801 0.25636 0.0
C1495 C 0.04114 0.54335 0.25707 0.0
C1496 C 0.09136 0.56598 0.2606 0.0
C1497 C 0.08343 0.52553 0.23896 0.0
C1498 C 0.09567 0.49813 0.241 0.0
C1499 C 0.10417 0.48132 0.22685 0.0
C1500 C 0.09974 0.49257 0.21018 0.0
C1501 C 0.08722 0.52052 0.20769 0.0
C1502 C 0.07933 0.53741 0.2223 0.0
H1503 H 0.23219 0.31308 0.04553 0.0
H1504 H 0.31841 0.35264 0.04393 0.0
H1505 H 0.31328 0.36036 0.01266 0.0
H1506 H 0.2382 0.27547 1.00455 0.0
H1507 H 0.2007 0.28143 0.99844 0.0
H1508 H 0.21054 0.27933 0.021 0.0
H1509 H 0.18695 0.32995 0.02621 0.0
H1510 H 0.17729 0.33232 1.00361 0.0
H1511 H 0.19874 0.36079 0.01349 0.0
H1512 H 0.30043 0.3629 0.98176 0.0
H1513 H 0.28085 0.35817 0.95215 0.0
H1514 H 0.20227 0.31811 0.9725 0.0
C1515 C 0.24999 0.32333 0.0386 0.0
C1516 C 0.27572 0.33227 0.04738 0.0
C1517 C 0.29845 0.34557 0.0377 0.0
C1518 C 0.29574 0.35019 0.01986 0.0
C1519 C 0.27015 0.34147 0.01169 0.0
C1520 C 0.24767 0.32819 0.02063 0.0
C1521 C 0.22284 0.32036 0.00836 0.0
C1522 C 0.21778 0.28717 0.00807 0.0
C1523 C 0.19479 0.33684 0.01321 0.0
C1524 C 0.2351 0.33115 0.99119 0.0
C1525 C 0.26241 0.34332 0.99355 0.0
C1526 C 0.27896 0.35367 0.97974 0.0
C1527 C 0.26765 0.35096 0.96298 0.0
C1528 C 0.23993 0.33826 0.9601 0.0
C1529 C 0.22319 0.32862 0.97442 0.0
H1530 H 0.4434 0.48127 0.79337 0.0
H1531 H 0.40094 0.566 0.7909 0.0
H1532 H 0.39346 0.55948 0.75952 0.0
H1533 H 0.48124 0.48685 0.75322 0.0
H1534 H 0.47673 0.44898 0.74749 0.0
H1535 H 0.47761 0.4596 0.76994 0.0
H1536 H 0.42754 0.43469 0.77481 0.0
H1537 H 0.42643 0.42411 0.75233 0.0
H1538 H 0.39689 0.44501 0.7615 0.0
H1539 H 0.3932 0.5455 0.72824 0.0
H1540 H 0.40017 0.52489 0.69899 0.0
H1541 H 0.44117 0.44827 0.72122 0.0
C1542 C 0.43231 0.49841 0.78629 0.0
C1543 C 0.42273 0.5242 0.79477 0.0
C1544 C 0.40849 0.54605 0.78486 0.0
C1545 C 0.40406 0.54251 0.76698 0.0
C1546 C 0.41381 0.51693 0.75909 0.0
C1547 C 0.42759 0.49519 0.7684 0.0
C1548 C 0.43672 0.47021 0.7566 0.0
C1549 C 0.47005 0.46618 0.75683 0.0
C1550 C 0.42095 0.44182 0.76161 0.0
C1551 C 0.42625 0.48148 0.73916 0.0
C1552 C 0.41306 0.50849 0.74097 0.0
C1553 C 0.40311 0.52421 0.7267 0.0
C1554 C 0.40713 0.51232 0.71014 0.0
C1555 C 0.42069 0.48481 0.70789 0.0
C1556 C 0.43 0.46897 0.72263 0.0
H1557 H 0.20866 0.68547 0.53867 0.0
H1558 H 0.29583 0.67642 0.56003 0.0
H1559 H 0.31605 0.67252 0.53057 0.0
H1560 H 0.21785 0.63653 0.50206 0.0
H1561 H 0.19731 0.65902 0.48726 0.0
H1562 H 0.18911 0.65976 0.51009 0.0
H1563 H 0.19664 0.71579 0.51051 0.0
H1564 H 0.20477 0.71523 0.48769 0.0
H1565 H 0.23051 0.73089 0.50269 0.0
H1566 H 0.32712 0.66882 0.49899 0.0
H1567 H 0.32891 0.67013 0.46709 0.0
H1568 H 0.23524 0.68458 0.46553 0.0
C1569 C 0.23196 0.68251 0.5371 0.0
C1570 C 0.25065 0.68115 0.55169 0.0
C1571 C 0.28108 0.67767 0.54909 0.0
C1572 C 0.29279 0.67527 0.53239 0.0
C1573 C 0.2739 0.67675 0.5183 0.0
C1574 C 0.24418 0.68065 0.52041 0.0
C1575 C 0.22908 0.68304 0.50293 0.0
C1576 C 0.20703 0.6581 0.50044 0.0
C1577 C 0.21439 0.71302 0.50084 0.0
C1578 C 0.25495 0.6798 0.49076 0.0
C1579 C 0.28051 0.67582 0.49993 0.0
C1580 C 0.30725 0.67202 0.49164 0.0
C1581 C 0.30802 0.67267 0.47348 0.0
C1582 C 0.28227 0.67748 0.46371 0.0
C1583 C 0.25536 0.68094 0.47257 0.0
H1584 H 0.37622 0.9582 0.1391 0.0
H1585 H 0.32229 0.03452 0.14858 0.0
H1586 H 0.27924 0.00762 0.13757 0.0
H1587 H 0.34227 0.93608 0.09969 0.0
H1588 H 0.34544 0.89765 0.10434 0.0
H1589 H 0.37164 0.92291 0.11314 0.0
H1590 H 0.36031 0.90438 0.14415 0.0
H1591 H 0.33418 0.87896 0.13545 0.0
H1592 H 0.32317 0.90469 0.15186 0.0
H1593 H 0.24201 0.97178 0.12483 0.0
H1594 H 0.21409 0.93017 0.11288 0.0
H1595 H 0.29331 0.87808 0.11221 0.0
C1596 C 0.35541 0.96941 0.13894 0.0
C1597 C 0.35277 0.9986 0.14473 0.0
C1598 C 0.32496 0.01218 0.14428 0.0
C1599 C 0.30037 0.99708 0.13799 0.0
C1600 C 0.30392 0.9684 0.13226 0.0
C1601 C 0.33077 0.95472 0.13279 0.0
C1602 C 0.32901 0.92378 0.12601 0.0
C1603 C 0.34823 0.9199 0.10984 0.0
C1604 C 0.33714 0.90165 0.14022 0.0
C1605 C 0.29693 0.92208 0.12152 0.0
C1606 C 0.28275 0.94799 0.12513 0.0
C1607 C 0.25295 0.9514 0.12198 0.0
C1608 C 0.23728 0.92763 0.11514 0.0
C1609 C 0.2514 0.90072 0.11155 0.0
C1610 C 0.2817 0.89822 0.11475 0.0
H1611 H 0.29906 0.14264 0.38621 0.0
H1612 H 0.22098 0.08966 0.39157 0.0
H1613 H 0.24773 0.04721 0.3798 0.0
H1614 H 0.3247 0.11075 0.34623 0.0
H1615 H 0.36256 0.11264 0.35247 0.0
H1616 H 0.33694 0.13895 0.36081 0.0
H1617 H 0.35171 0.12527 0.3922 0.0
H1618 H 0.3774 0.09898 0.38397 0.0
H1619 H 0.3496 0.08771 0.39907 0.0
H1620 H 0.28386 0.01001 0.36792 0.0
H1621 H 0.32624 0.98132 0.35779 0.0
H1622 H 0.3802 0.05915 0.36046 0.0
C1623 C 0.28741 0.1222 0.38486 0.0
C1624 C 0.25779 0.11963 0.38984 0.0
C1625 C 0.24363 0.09229 0.38789 0.0
C1626 C 0.25864 0.06803 0.38117 0.0
C1627 C 0.28783 0.07139 0.37644 0.0
C1628 C 0.30204 0.09781 0.37824 0.0
C1629 C 0.33365 0.0956 0.37267 0.0
C1630 C 0.33981 0.11567 0.35712 0.0
C1631 C 0.3543 0.10228 0.38788 0.0
C1632 C 0.33511 0.06375 0.36753 0.0
C1633 C 0.30847 0.05013 0.36971 0.0
C1634 C 0.30479 0.02052 0.36611 0.0
C1635 C 0.32903 0.0044 0.36032 0.0
C1636 C 0.35668 0.01787 0.35823 0.0
C1637 C 0.35945 0.04806 0.36178 0.0
H1638 H 0.12643 0.0486 0.63679 0.0
H1639 H 0.18004 0.97168 0.64522 0.0
H1640 H 0.22309 0.99863 0.63432 0.0
H1641 H 0.16098 0.07264 0.59751 0.0
H1642 H 0.15789 0.11078 0.60294 0.0
H1643 H 0.13145 0.08511 0.61105 0.0
H1644 H 0.14236 0.10185 0.64247 0.0
H1645 H 0.16883 0.12757 0.63446 0.0
H1646 H 0.17936 0.1008 0.6504 0.0
H1647 H 0.26054 0.03479 0.62251 0.0
H1648 H 0.28895 0.07686 0.61165 0.0
H1649 H 0.21015 0.1296 0.61155 0.0
C1650 C 0.14714 0.03723 0.63632 0.0
C1651 C 0.14973 0.0079 0.64186 0.0
C1652 C 0.17742 0.99411 0.64107 0.0
C1653 C 0.20201 0.00924 0.63487 0.0
C1654 C 0.19859 0.03816 0.62955 0.0
C1655 C 0.17182 0.05197 0.63027 0.0
C1656 C 0.17386 0.08329 0.62415 0.0
C1657 C 0.15493 0.08823 0.60795 0.0
C1658 C 0.16562 0.10463 0.63874 0.0
C1659 C 0.20602 0.08507 0.61987 0.0
C1660 C 0.21996 0.05883 0.62298 0.0
C1661 C 0.24979 0.05541 0.62002 0.0
C1662 C 0.26575 0.07946 0.61382 0.0
C1663 C 0.25189 0.10667 0.61071 0.0
C1664 C 0.22155 0.10923 0.61376 0.0
H1665 H 0.13025 0.95182 0.86125 0.0
H1666 H 0.18123 0.03161 0.86386 0.0
H1667 H 0.22342 1.0034 0.87474 0.0
H1668 H 0.15765 0.91964 0.89981 0.0
H1669 H 0.15771 0.88304 0.89124 0.0
H1670 H 0.132 0.90948 0.88316 0.0
H1671 H 0.15055 0.90063 0.85187 0.0
H1672 H 0.17628 0.87411 0.85986 0.0
H1673 H 0.18888 0.90463 0.84716 0.0
H1674 H 0.25983 0.966 0.88642 0.0
H1675 H 0.28711 0.92291 0.89705 0.0
H1676 H 0.21176 0.86833 0.88629 0.0
C1677 C 0.15028 0.96347 0.86399 0.0
C1678 C 0.15229 0.99403 0.86164 0.0
C1679 C 0.17905 0.00823 0.86546 0.0
C1680 C 0.20318 0.99238 0.87168 0.0
C1681 C 0.20029 0.96232 0.87396 0.0
C1682 C 0.17452 0.94804 0.87013 0.0
C1683 C 0.17679 0.91569 0.87386 0.0
C1684 C 0.15473 0.90643 0.88785 0.0
C1685 C 0.1729 0.89772 0.85719 0.0
C1686 C 0.20781 0.91395 0.8805 0.0
C1687 C 0.22109 0.94101 0.88049 0.0
C1688 C 0.24965 0.94469 0.8864 0.0
C1689 C 0.26496 0.92008 0.89244 0.0
C1690 C 0.25171 0.8921 0.89251 0.0
C1691 C 0.22273 0.88926 0.88638 0.0
H1692 H 0.71095 0.13165 0.90208 0.0
H1693 H 0.78912 0.07804 0.9004 0.0
H1694 H 0.76026 0.03733 0.88831 0.0
H1695 H 0.66085 0.07381 0.91413 0.0
H1696 H 0.63169 0.08813 0.90095 0.0
H1697 H 0.65847 0.11249 0.91003 0.0
H1698 H 0.66996 0.13229 0.87931 0.0
H1699 H 0.64338 0.10784 0.87013 0.0
H1700 H 0.68053 0.10717 0.86247 0.0
H1701 H 0.7227 1.00287 0.87512 0.0
H1702 H 0.67939 0.97716 0.86355 0.0
H1703 H 0.62644 0.05375 0.87421 0.0
C1704 C 0.72207 0.1113 0.89937 0.0
C1705 C 0.75241 0.10818 0.90227 0.0
C1706 C 0.76593 0.08107 0.8984 0.0
C1707 C 0.74972 0.05779 0.89146 0.0
C1708 C 0.71997 0.06185 0.88851 0.0
C1709 C 0.70627 0.08788 0.89249 0.0
C1710 C 0.67416 0.08687 0.88794 0.0
C1711 C 0.65518 0.09054 0.90424 0.0
C1712 C 0.66658 0.10991 0.87414 0.0
C1713 C 0.6719 0.05626 0.8807 0.0
C1714 C 0.69852 0.04213 0.88108 0.0
C1715 C 0.70172 0.01372 0.87484 0.0
C1716 C 0.67699 0.99932 0.86823 0.0
C1717 C 0.64938 0.01332 0.86795 0.0
C1718 C 0.64709 0.04226 0.87423 0.0
H1719 H 0.62883 0.95391 0.64956 0.0
H1720 H 0.68352 0.03089 0.6546 0.0
H1721 H 0.72527 1.00312 0.64278 0.0
H1722 H 0.68423 0.9005 0.66092 0.0
H1723 H 0.67106 0.87414 0.64546 0.0
H1724 H 0.64612 0.8998 0.65512 0.0
H1725 H 0.63027 0.91707 0.62455 0.0
H1726 H 0.65531 0.89164 0.61479 0.0
H1727 H 0.65753 0.92991 0.60953 0.0
H1728 H 0.76074 0.96698 0.62922 0.0
H1729 H 0.78708 0.92542 0.61611 0.0
H1730 H 0.70853 0.87272 0.61988 0.0
C1731 C 0.64963 0.96497 0.64844 0.0
C1732 C 0.65278 0.99468 0.65313 0.0
C1733 C 0.68046 0.00816 0.6512 0.0
C1734 C 0.70433 0.99257 0.64446 0.0
C1735 C 0.70024 0.96348 0.63969 0.0
C1736 C 0.67359 0.94981 0.6417 0.0
C1737 C 0.67459 0.91861 0.63524 0.0
C1738 C 0.66866 0.89699 0.65007 0.0
C1739 C 0.65316 0.91406 0.62013 0.0
C1740 C 0.70595 0.91685 0.62917 0.0
C1741 C 0.72044 0.9429 0.63184 0.0
C1742 C 0.7496 0.94646 0.62713 0.0
C1743 C 0.76436 0.9227 0.61963 0.0
C1744 C 0.74997 0.89567 0.61688 0.0
C1745 C 0.72029 0.89298 0.62172 0.0
H1746 H 0.79707 0.87859 0.39372 0.0
H1747 H 0.71885 0.93184 0.39694 0.0
H1748 H 0.74721 0.97477 0.38708 0.0
H1749 H 0.84658 0.93272 0.40954 0.0
H1750 H 0.87581 0.92163 0.39537 0.0
H1751 H 0.84909 0.89535 0.40238 0.0
H1752 H 0.83747 0.88271 0.37037 0.0
H1753 H 0.86418 0.90892 0.36326 0.0
H1754 H 0.82708 0.91146 0.35565 0.0
H1755 H 0.78494 0.01195 0.37626 0.0
H1756 H 0.82831 0.03974 0.36651 0.0
H1757 H 0.88105 0.9614 0.37142 0.0
C1758 C 0.78572 0.8992 0.39231 0.0
C1759 C 0.75562 0.90172 0.39605 0.0
C1760 C 0.74188 0.92929 0.39417 0.0
C1761 C 0.75781 0.9538 0.38855 0.0
C1762 C 0.78749 0.95044 0.38499 0.0
C1763 C 0.80126 0.92379 0.38689 0.0
C1764 C 0.83337 0.92576 0.38253 0.0
C1765 C 0.85232 0.91844 0.3984 0.0
C1766 C 0.84095 0.90605 0.36703 0.0
C1767 C 0.83563 0.9577 0.37779 0.0
C1768 C 0.809 0.97165 0.37919 0.0
C1769 C 0.8059 1.00121 0.37519 0.0
C1770 C 0.83066 0.01681 0.36963 0.0
C1771 C 0.85821 1.00287 0.36825 0.0
C1772 C 0.86047 0.9729 0.37244 0.0
H1773 H 0.7956 0.13361 0.1229 0.0
H1774 H 0.71674 0.08179 0.11753 0.0
H1775 H 0.74237 0.03942 0.13027 0.0
H1776 H 0.84581 0.07699 0.11177 0.0
H1777 H 0.8731 0.08879 0.12706 0.0
H1778 H 0.8482 0.11492 0.11782 0.0
H1779 H 0.83232 0.13075 0.14866 0.0
H1780 H 0.85707 0.10454 0.15799 0.0
H1781 H 0.81891 0.10368 0.16363 0.0
H1782 H 0.77744 1.00224 0.14347 0.0
H1783 H 0.81903 0.97353 0.15479 0.0
H1784 H 0.87411 0.05049 0.15136 0.0
C1785 C 0.78359 0.11341 0.12436 0.0
C1786 C 0.75407 0.11116 0.11916 0.0
C1787 C 0.73935 0.08416 0.12136 0.0
C1788 C 0.75371 0.05995 0.12864 0.0
C1789 C 0.78277 0.06305 0.13368 0.0
C1790 C 0.79752 0.08911 0.13156 0.0
C1791 C 0.8288 0.08677 0.1377 0.0
C1792 C 0.85023 0.09218 0.12269 0.0
C1793 C 0.8346 0.10767 0.1529 0.0
C1794 C 0.82946 0.05525 0.14353 0.0
C1795 C 0.80273 0.04188 0.14121 0.0
C1796 C 0.79843 0.01256 0.1454 0.0
C1797 C 0.8222 0.99644 0.15187 0.0
C1798 C 0.84995 0.00965 0.15405 0.0
C1799 C 0.85327 0.03959 0.14998 0.0
H1800 H 0.80602 0.36917 0.61924 0.0
H1801 H 0.72724 0.42149 0.61514 0.0
H1802 H 0.75439 0.46442 0.62596 0.0
H1803 H 0.83381 0.40199 0.65831 0.0
H1804 H 0.87127 0.40013 0.65126 0.0
H1805 H 0.84529 0.37355 0.64367 0.0
H1806 H 0.85808 0.38668 0.61189 0.0
H1807 H 0.88407 0.4133 0.61938 0.0
H1808 H 0.85527 0.42408 0.60481 0.0
H1809 H 0.791 0.50205 0.63703 0.0
H1810 H 0.83368 0.53085 0.64665 0.0
H1811 H 0.88785 0.45326 0.64295 0.0
C1812 C 0.7943 0.38956 0.62068 0.0
C1813 C 0.76439 0.39183 0.61634 0.0
C1814 C 0.75012 0.41911 0.61835 0.0
C1815 C 0.76536 0.44364 0.62452 0.0
C1816 C 0.79486 0.44058 0.6286 0.0
C1817 C 0.80913 0.41419 0.62672 0.0
C1818 C 0.84102 0.41664 0.63158 0.0
C1819 C 0.84826 0.39691 0.64713 0.0
C1820 C 0.86076 0.40978 0.61598 0.0
C1821 C 0.84258 0.44858 0.63645 0.0
C1822 C 0.81576 0.46207 0.63474 0.0
C1823 C 0.81208 0.49165 0.63843 0.0
C1824 C 0.83647 0.50784 0.64391 0.0
C1825 C 0.86424 0.49443 0.64558 0.0
C1826 C 0.86705 0.46433 0.64183 0.0
H1827 H 0.88776 0.54912 0.86276 0.0
H1828 H 0.83491 0.47041 0.86207 0.0
H1829 H 0.79252 0.49889 0.8724 0.0
H1830 H 0.85722 0.58006 0.90122 0.0
H1831 H 0.85882 0.617 0.89323 0.0
H1832 H 0.88479 0.59035 0.88572 0.0
H1833 H 0.8698 0.60099 0.85395 0.0
H1834 H 0.8438 0.62769 0.86136 0.0
H1835 H 0.83198 0.598 0.84775 0.0
H1836 H 0.75581 0.53646 0.88322 0.0
H1837 H 0.72802 0.57977 0.8929 0.0
H1838 H 0.80543 0.63327 0.88607 0.0
C1839 C 0.86732 0.53774 0.86473 0.0
C1840 C 0.86479 0.50743 0.86157 0.0
C1841 C 0.83749 0.49359 0.86435 0.0
C1842 C 0.81326 0.50958 0.87025 0.0
C1843 C 0.81662 0.53941 0.87327 0.0
C1844 C 0.84297 0.55332 0.87054 0.0
C1845 C 0.84098 0.58554 0.87467 0.0
C1846 C 0.86168 0.59371 0.8896 0.0
C1847 C 0.84699 0.60414 0.85847 0.0
C1848 C 0.80937 0.58766 0.88017 0.0
C1849 C 0.79563 0.56086 0.87933 0.0
C1850 C 0.76637 0.55755 0.8839 0.0
C1851 C 0.75077 0.5823 0.88941 0.0
C1852 C 0.76443 0.61005 0.89027 0.0
C1853 C 0.79418 0.61251 0.88556 0.0
H1854 H 0.69998 0.63111 0.10838 0.0
H1855 H 0.77921 0.57912 0.10644 0.0
H1856 H 0.75234 0.53724 0.11886 0.0
H1857 H 0.67479 0.60487 0.1486 0.0
H1858 H 0.63681 0.60524 0.14252 0.0
H1859 H 0.66188 0.63037 0.13254 0.0
H1860 H 0.64705 0.6114 0.10214 0.0
H1861 H 0.62175 0.58635 0.11202 0.0
H1862 H 0.64947 0.57291 0.09751 0.0
H1863 H 0.71662 0.5015 0.13288 0.0
H1864 H 0.67515 0.47496 0.14605 0.0
H1865 H 0.62029 0.55132 0.13868 0.0
C1866 C 0.71175 0.61087 0.11031 0.0
C1867 C 0.74178 0.60851 0.10634 0.0
C1868 C 0.75619 0.58153 0.10927 0.0
C1869 C 0.74112 0.55761 0.11637 0.0
C1870 C 0.71165 0.56096 0.12043 0.0
C1871 C 0.69713 0.5869 0.11738 0.0
C1872 C 0.66567 0.58531 0.12322 0.0
C1873 C 0.65944 0.60778 0.13757 0.0
C1874 C 0.64475 0.58922 0.1078 0.0
C1875 C 0.66471 0.55446 0.13017 0.0
C1876 C 0.69137 0.54067 0.12847 0.0
C1877 C 0.69563 0.5121 0.1342 0.0
C1878 C 0.67194 0.49722 0.14173 0.0
C1879 C 0.64435 0.51096 0.14346 0.0
C1880 C 0.64097 0.54003 0.1376 0.0
H1881 H 0.70328 0.38032 0.39442 0.0
H1882 H 0.78008 0.43525 0.39952 0.0
H1883 H 0.75155 0.47752 0.38908 0.0
H1884 H 0.67696 0.41176 0.35547 0.0
H1885 H 0.63902 0.40886 0.36141 0.0
H1886 H 0.66515 0.38331 0.37001 0.0
H1887 H 0.64943 0.39676 0.40126 0.0
H1888 H 0.62316 0.42227 0.39275 0.0
H1889 H 0.6503 0.4344 0.40804 0.0
H1890 H 0.71466 0.51361 0.37711 0.0
H1891 H 0.67247 0.54054 0.36523 0.0
H1892 H 0.62025 0.46153 0.36801 0.0
C1893 C 0.71416 0.40125 0.39354 0.0
C1894 C 0.74402 0.40435 0.39788 0.0
C1895 C 0.75726 0.43222 0.39635 0.0
C1896 C 0.74123 0.45639 0.39041 0.0
C1897 C 0.71196 0.45241 0.38606 0.0
C1898 C 0.69855 0.42554 0.38763 0.0
C1899 C 0.66702 0.42681 0.3818 0.0
C1900 C 0.66174 0.40648 0.36625 0.0
C1901 C 0.64625 0.41964 0.39687 0.0
C1902 C 0.66477 0.45859 0.37659 0.0
C1903 C 0.69088 0.47303 0.37916 0.0
C1904 C 0.69409 0.50251 0.37511 0.0
C1905 C 0.66996 0.51762 0.36832 0.0
C1906 C 0.64291 0.50325 0.36562 0.0
C1907 C 0.64051 0.47328 0.36986 0.0
H1908 H 0.12142 0.55906 0.36608 0.0
H1909 H 0.17483 0.48096 0.36209 0.0
H1910 H 0.21681 0.50814 0.37397 0.0
H1911 H 0.17737 0.61026 0.35395 0.0
H1912 H 0.16517 0.63789 0.36891 0.0
H1913 H 0.13942 0.61224 0.36002 0.0
H1914 H 0.12392 0.59717 0.39105 0.0
H1915 H 0.14969 0.62271 0.40004 0.0
H1916 H 0.15125 0.58477 0.40616 0.0
H1917 H 0.25316 0.54408 0.38646 0.0
H1918 H 0.28095 0.58595 0.39801 0.0
H1919 H 0.20349 0.64023 0.39384 0.0
C1920 C 0.14193 0.54759 0.36761 0.0
C1921 C 0.14469 0.51778 0.36307 0.0
C1922 C 0.17203 0.50376 0.36541 0.0
C1923 C 0.19605 0.51901 0.37218 0.0
C1924 C 0.19247 0.5483 0.37659 0.0
C1925 C 0.1661 0.56245 0.37435 0.0
C1926 C 0.16794 0.59401 0.3801 0.0
C1927 C 0.16214 0.61482 0.36484 0.0
C1928 C 0.14696 0.6 0.39524 0.0
C1929 C 0.19948 0.59545 0.38591 0.0
C1930 C 0.21328 0.56887 0.3838 0.0
C1931 C 0.24255 0.56499 0.38817 0.0
C1932 C 0.25816 0.58894 0.39476 0.0
C1933 C 0.2445 0.6165 0.39693 0.0
C1934 C 0.21468 0.61954 0.39247 0.0
H1935 H 0.2002 0.37864 0.11102 0.0
H1936 H 0.27879 0.43158 0.10946 0.0
H1937 H 0.2502 0.47439 0.11912 0.0
H1938 H 0.15013 0.43464 0.09591 0.0
H1939 H 0.12114 0.42258 0.10997 0.0
H1940 H 0.14766 0.39677 0.1021 0.0
H1941 H 0.15971 0.38169 0.13367 0.0
H1942 H 0.13333 0.40751 0.14165 0.0
H1943 H 0.17062 0.40925 0.14903 0.0
H1944 H 0.21281 0.51102 0.13049 0.0
H1945 H 0.17015 0.53807 0.14179 0.0
H1946 H 0.11677 0.46044 0.13555 0.0
C1947 C 0.2115 0.39925 0.11251 0.0
C1948 C 0.24185 0.40163 0.10942 0.0
C1949 C 0.25558 0.42912 0.11165 0.0
C1950 C 0.23951 0.45359 0.11716 0.0
C1951 C 0.20971 0.45028 0.12031 0.0
C1952 C 0.19587 0.42379 0.11795 0.0
C1953 C 0.16384 0.42559 0.12261 0.0
C1954 C 0.14456 0.41954 0.1067 0.0
C1955 C 0.15646 0.40478 0.13763 0.0
C1956 C 0.1618 0.45718 0.12817 0.0
C1957 C 0.18841 0.47115 0.12673 0.0
C1958 C 0.19184 0.50029 0.13155 0.0
C1959 C 0.16746 0.51548 0.138 0.0
C1960 C 0.13997 0.5015 0.13958 0.0
C1961 C 0.13732 0.47195 0.13448 0.0
H1962 H 0.38714 0.4513 0.86372 0.0
H1963 H 0.33477 0.53028 0.86146 0.0
H1964 H 0.29214 0.50266 0.87216 0.0
H1965 H 0.33085 0.40176 0.84966 0.0
H1966 H 0.34243 0.37285 0.86394 0.0
H1967 H 0.36864 0.39885 0.85594 0.0
H1968 H 0.38371 0.41136 0.88744 0.0
H1969 H 0.35754 0.3854 0.89554 0.0
H1970 H 0.35621 0.42283 0.90269 0.0
H1971 H 0.25513 0.46611 0.88363 0.0
H1972 H 0.22709 0.42386 0.89457 0.0
H1973 H 0.30403 0.3692 0.88904 0.0
C1974 C 0.36673 0.46288 0.86539 0.0
C1975 C 0.36444 0.49306 0.86168 0.0
C1976 C 0.3372 0.5072 0.86415 0.0
C1977 C 0.31281 0.49169 0.87024 0.0
C1978 C 0.31592 0.46201 0.8738 0.0
C1979 C 0.3422 0.44777 0.87143 0.0
C1980 C 0.33993 0.41582 0.87629 0.0
C1981 C 0.3458 0.39617 0.86052 0.0
C1982 C 0.36057 0.40843 0.89139 0.0
C1983 C 0.30827 0.41428 0.88183 0.0
C1984 C 0.29474 0.44111 0.88032 0.0
C1985 C 0.26552 0.44499 0.88483 0.0
C1986 C 0.24977 0.42083 0.89106 0.0
C1987 C 0.26323 0.39307 0.89271 0.0
C1988 C 0.29292 0.38999 0.88796 0.0
H1989 H 0.38991 0.54716 0.6395 0.0
H1990 H 0.33758 0.46815 0.64012 0.0
H1991 H 0.29512 0.49634 0.62945 0.0
H1992 H 0.33423 0.59503 0.6546 0.0
H1993 H 0.34577 0.62514 0.64122 0.0
H1994 H 0.37198 0.59841 0.64833 0.0
H1995 H 0.38678 0.58864 0.61643 0.0
H1996 H 0.36061 0.61536 0.60922 0.0
H1997 H 0.35914 0.57862 0.60091 0.0
H1998 H 0.258 0.53415 0.6187 0.0
H1999 H 0.22983 0.57785 0.60987 0.0
H2000 H 0.30721 0.63121 0.61704 0.0
C2001 C 0.36963 0.5356 0.63732 0.0
C2002 C 0.36722 0.50533 0.64063 0.0
C2003 C 0.34006 0.49131 0.63771 0.0
C2004 C 0.31581 0.50714 0.63162 0.0
C2005 C 0.31901 0.53699 0.62855 0.0
C2006 C 0.34528 0.55102 0.63138 0.0
C2007 C 0.34308 0.58332 0.62754 0.0
C2008 C 0.34912 0.60154 0.6439 0.0
C2009 C 0.36362 0.59198 0.61264 0.0
C2010 C 0.31143 0.5854 0.62214 0.0
C2011 C 0.29784 0.5585 0.62269 0.0
C2012 C 0.26848 0.55529 0.61823 0.0
C2013 C 0.25266 0.58025 0.6132 0.0
C2014 C 0.26618 0.60808 0.61276 0.0
C2015 C 0.29603 0.61039 0.61725 0.0
H2016 H 0.37913 0.13582 0.12269 0.0
H2017 H 0.34616 0.14499 0.17512 0.0
H2018 H 0.32389 0.19224 0.16719 0.0
H2019 H 0.39842 0.20942 0.11648 0.0
H2020 H 0.3875 0.211 0.09406 0.0
H2021 H 0.39887 0.17683 0.1034 0.0
H2022 H 0.35029 0.15356 0.09386 0.0
H2023 H 0.33775 0.18768 0.08489 0.0
H2024 H 0.31627 0.16906 0.10104 0.0
H2025 H 0.31013 0.2407 0.15465 0.0
H2026 H 0.30249 0.28571 0.13767 0.0
H2027 H 0.34206 0.24489 0.09285 0.0
C2028 C 0.36683 0.14753 0.13244 0.0
C2029 C 0.36436 0.13662 0.14955 0.0
C2030 C 0.34829 0.1528 0.16194 0.0
C2031 C 0.33556 0.17969 0.15755 0.0
C2032 C 0.33889 0.19006 0.14069 0.0
C2033 C 0.35388 0.17439 0.12826 0.0
C2034 C 0.35512 0.19102 0.11124 0.0
C2035 C 0.38686 0.19745 0.10599 0.0
C2036 C 0.33889 0.17435 0.0969 0.0
C2037 C 0.33908 0.21878 0.11616 0.0
C2038 C 0.32989 0.21769 0.13322 0.0
C2039 C 0.31649 0.24147 0.14116 0.0
C2040 C 0.31205 0.26686 0.13138 0.0
C2041 C 0.32035 0.26819 0.11375 0.0
C2042 C 0.33452 0.244 0.10614 0.0
H2043 H 0.09649 0.12808 0.40955 0.0
H2044 H 0.14619 0.13608 0.36198 0.0
H2045 H 0.10561 0.11372 0.34566 0.0
H2046 H 0.06238 0.06143 0.40111 0.0
H2047 H 0.026 0.07009 0.4087 0.0
H2048 H 0.0574 0.08764 0.4181 0.0
H2049 H 0.04019 0.13898 0.41109 0.0
H2050 H 0.00653 0.12361 0.40324 0.0
H2051 H 0.02755 0.14762 0.38958 0.0
H2052 H 0.05836 0.09535 0.33406 0.0
H2053 H 0.00734 0.081 0.32796 0.0
H2054 H 0.98817 0.0823 0.38288 0.0
C2055 C 0.09892 0.12466 0.39575 0.0
C2056 C 0.12459 0.13343 0.38703 0.0
C2057 C 0.12674 0.12937 0.3689 0.0
C2058 C 0.10384 0.11665 0.35952 0.0
C2059 C 0.07871 0.10844 0.36843 0.0
C2060 C 0.07594 0.11254 0.38609 0.0
C2061 C 0.04582 0.10355 0.39227 0.0
C2062 C 0.04795 0.07917 0.40584 0.0
C2063 C 0.02904 0.13001 0.39946 0.0
C2064 C 0.03238 0.09296 0.37539 0.0
C2065 C 0.05167 0.09649 0.36177 0.0
C2066 C 0.04329 0.09175 0.34464 0.0
C2067 C 0.01436 0.0836 0.34128 0.0
C2068 C 0.9944 0.07935 0.35498 0.0
C2069 C 1.00354 0.08398 0.37226 0.0
H2070 H 0.1265 0.87331 0.62214 0.0
H2071 H 0.15098 0.8603 0.67593 0.0
H2072 H 0.1728 0.81279 0.66839 0.0
H2073 H 0.10732 0.80004 0.61276 0.0
H2074 H 0.12243 0.79985 0.5912 0.0
H2075 H 0.10969 0.83352 0.60056 0.0
H2076 H 0.15997 0.85671 0.59492 0.0
H2077 H 0.17385 0.82307 0.58603 0.0
H2078 H 0.19224 0.84027 0.60397 0.0
H2079 H 0.18633 0.76459 0.65597 0.0
H2080 H 0.19714 0.72082 0.63855 0.0
H2081 H 0.16845 0.76564 0.59215 0.0
C2082 C 0.13672 0.86057 0.63229 0.0
C2083 C 0.13695 0.87051 0.64966 0.0
C2084 C 0.15058 0.85323 0.66255 0.0
C2085 C 0.16298 0.82615 0.65841 0.0
C2086 C 0.16198 0.81678 0.64126 0.0
C2087 C 0.14964 0.83358 0.62832 0.0
C2088 C 0.15151 0.81816 0.61093 0.0
C2089 C 0.12092 0.81256 0.60343 0.0
C2090 C 0.17053 0.83558 0.5982 0.0
C2091 C 0.16623 0.78982 0.61621 0.0
C2092 C 0.17182 0.78951 0.63382 0.0
C2093 C 0.18299 0.76495 0.6421 0.0
C2094 C 0.18929 0.74028 0.63208 0.0
C2095 C 0.18527 0.74054 0.61392 0.0
C2096 C 0.17291 0.7654 0.60593 0.0
H2097 H 0.49229 0.91764 0.84315 0.0
H2098 H 0.53744 0.94358 0.88998 0.0
H2099 H 0.49409 0.93107 0.90734 0.0
H2100 H 0.41764 0.93991 0.85608 0.0
H2101 H 0.40139 0.90824 0.84622 0.0
H2102 H 0.43477 0.92314 0.83756 0.0
H2103 H 0.45869 0.87184 0.8411 0.0
H2104 H 0.42547 0.85769 0.85029 0.0
H2105 H 0.45921 0.8549 0.86218 0.0
H2106 H 0.44639 0.91603 0.9197 0.0
H2107 H 0.39936 0.89302 0.927 0.0
H2108 H 0.38566 0.87219 0.87273 0.0
C2109 C 0.49267 0.92115 0.85702 0.0
C2110 C 0.51752 0.93319 0.86518 0.0
C2111 C 0.51798 0.93598 0.88342 0.0
C2112 C 0.49355 0.92872 0.89339 0.0
C2113 C 0.469 0.91785 0.88498 0.0
C2114 C 0.46845 0.91353 0.86726 0.0
C2115 C 0.44019 0.89884 0.8618 0.0
C2116 C 0.42247 0.91872 0.84969 0.0
C2117 C 0.44627 0.86905 0.85335 0.0
C2118 C 0.42519 0.89539 0.87923 0.0
C2119 C 0.44204 0.90707 0.89235 0.0
C2120 C 0.43299 0.90672 0.90957 0.0
C2121 C 0.40618 0.89365 0.91357 0.0
C2122 C 0.38884 0.8807 0.90047 0.0
C2123 C 0.39845 0.88184 0.88304 0.0
H2124 H 0.31538 0.74911 0.37916 0.0
H2125 H 0.33235 0.76261 0.43371 0.0
H2126 H 0.34454 0.8143 0.42794 0.0
H2127 H 0.37687 0.78723 0.3663 0.0
H2128 H 0.36183 0.80245 0.34671 0.0
H2129 H 0.3477 0.76868 0.35514 0.0
H2130 H 0.29482 0.79046 0.35672 0.0
H2131 H 0.30974 0.82281 0.34682 0.0
H2132 H 0.28996 0.82574 0.36682 0.0
H2133 H 0.35962 0.86252 0.41612 0.0
H2134 H 0.37974 0.90326 0.39903 0.0
H2135 H 0.35711 0.85792 0.35153 0.0
C2136 C 0.32044 0.76344 0.38991 0.0
C2137 C 0.32159 0.7525 0.40701 0.0
C2138 C 0.33032 0.77106 0.42066 0.0
C2139 C 0.33726 0.80038 0.41747 0.0
C2140 C 0.33631 0.81054 0.40045 0.0
C2141 C 0.32832 0.79262 0.38683 0.0
C2142 C 0.33384 0.80754 0.36955 0.0
C2143 C 0.3564 0.79046 0.3588 0.0
C2144 C 0.30535 0.81183 0.35939 0.0
C2145 C 0.34606 0.83658 0.37559 0.0
C2146 C 0.34693 0.83793 0.39347 0.0
C2147 C 0.3587 0.86186 0.40212 0.0
C2148 C 0.37013 0.8849 0.39228 0.0
C2149 C 0.36985 0.88391 0.37393 0.0
C2150 C 0.35725 0.85954 0.36552 0.0
H2151 H 0.38991 0.13571 0.63838 0.0
H2152 H 0.39742 0.0941 0.58802 0.0
H2153 H 0.44299 0.07044 0.59726 0.0
H2154 H 0.46393 0.15154 0.644 0.0
H2155 H 0.46534 0.14354 0.66685 0.0
H2156 H 0.43157 0.15513 0.65712 0.0
H2157 H 0.40616 0.10874 0.66878 0.0
H2158 H 0.43989 0.09652 0.67841 0.0
H2159 H 0.42066 0.07331 0.66341 0.0
H2160 H 0.49052 0.05689 0.61 0.0
H2161 H 0.53588 0.05063 0.62673 0.0
H2162 H 0.49775 0.09764 0.66982 0.0
C2163 C 0.40089 0.1212 0.62943 0.0
C2164 C 0.39003 0.11681 0.61245 0.0
C2165 C 0.4052 0.09785 0.60108 0.0
C2166 C 0.43115 0.08423 0.60621 0.0
C2167 C 0.44159 0.08945 0.62284 0.0
C2168 C 0.42686 0.10714 0.63441 0.0
C2169 C 0.44375 0.1099 0.65128 0.0
C2170 C 0.45161 0.14193 0.65502 0.0
C2171 C 0.42659 0.09631 0.66637 0.0
C2172 C 0.47071 0.09197 0.64707 0.0
C2173 C 0.46881 0.08027 0.63061 0.0
C2174 C 0.49187 0.06505 0.62312 0.0
C2175 C 0.51746 0.06138 0.63277 0.0
C2176 C 0.5196 0.07215 0.64988 0.0
C2177 C 0.49609 0.08808 0.65703 0.0
H2178 H 0.14693 0.15441 0.85187 0.0
H2179 H 0.12725 0.1076 0.89931 0.0
H2180 H 0.1477 0.14829 0.91643 0.0
H2181 H 0.21332 0.18665 0.86508 0.0
H2182 H 0.20745 0.22244 0.85577 0.0
H2183 H 0.19146 0.19059 0.84593 0.0
H2184 H 0.13952 0.21006 0.84806 0.0
H2185 H 0.15402 0.2438 0.85634 0.0
H2186 H 0.12633 0.22448 0.86833 0.0
H2187 H 0.16452 0.19614 0.92839 0.0
H2188 H 0.17796 0.24752 0.93429 0.0
H2189 H 0.18977 0.26255 0.87938 0.0
C2190 C 0.14742 0.15252 0.86585 0.0
C2191 C 0.13579 0.12773 0.87427 0.0
C2192 C 0.13617 0.12635 0.8926 0.0
C2193 C 0.14779 0.14932 0.90243 0.0
C2194 C 0.15883 0.1736 0.89375 0.0
C2195 C 0.15859 0.17544 0.87588 0.0
C2196 C 0.16994 0.20477 0.86979 0.0
C2197 C 0.19722 0.20095 0.85849 0.0
C2198 C 0.14603 0.22177 0.86006 0.0
C2199 C 0.17697 0.21905 0.88704 0.0
C2200 C 0.17001 0.20078 0.9007 0.0
C2201 C 0.17086 0.21036 0.91785 0.0
C2202 C 0.17853 0.23948 0.9211 0.0
C2203 C 0.1861 0.25836 0.90736 0.0
C2204 C 0.18552 0.24797 0.89014 0.0
H2205 H 0.11362 0.87017 0.13908 0.0
H2206 H 0.10379 0.90907 0.08808 0.0
H2207 H 0.05684 0.9303 0.09691 0.0
H2208 H 0.0398 0.85088 0.14514 0.0
H2209 H 0.03835 0.85991 0.16785 0.0
H2210 H 0.07244 0.84919 0.15815 0.0
H2211 H 0.09601 0.89683 0.16902 0.0
H2212 H 0.062 0.90865 0.17845 0.0
H2213 H 0.08053 0.93147 0.16294 0.0
H2214 H 0.00864 0.94161 0.10941 0.0
H2215 H 0.96375 0.94816 0.12651 0.0
H2216 H 0.00466 0.90599 0.17051 0.0
C2217 C 0.10179 0.88355 0.12989 0.0
C2218 C 0.11244 0.88787 0.11285 0.0
C2219 C 0.09619 0.90539 0.10118 0.0
C2220 C 0.06943 0.91757 0.10606 0.0
C2221 C 0.05923 0.91237 0.12275 0.0
C2222 C 0.07498 0.8962 0.13462 0.0
C2223 C 0.05841 0.89361 0.15162 0.0
C2224 C 0.05187 0.86149 0.15594 0.0
C2225 C 0.07523 0.90853 0.16639 0.0
C2226 C 0.03066 0.91019 0.14722 0.0
C2227 C 0.0317 0.92066 0.13043 0.0
C2228 C 0.00792 0.93444 0.12276 0.0
C2229 C 0.98261 0.93826 0.13261 0.0
C2230 C 0.98143 0.92914 0.15009 0.0
C2231 C 0.00553 0.91428 0.15738 0.0
H2232 H 0.66706 0.76593 0.91494 0.0
H2233 H 0.69976 0.72621 0.86789 0.0
H2234 H 0.69055 0.77186 0.85187 0.0
H2235 H 0.60827 0.80227 0.89459 0.0
H2236 H 0.60971 0.83453 0.90792 0.0
H2237 H 0.62233 0.80015 0.91637 0.0
H2238 H 0.67327 0.82285 0.92322 0.0
H2239 H 0.65972 0.85735 0.91533 0.0
H2240 H 0.69247 0.84196 0.90627 0.0
H2241 H 0.67642 0.82078 0.84065 0.0
H2242 H 0.65364 0.86833 0.83415 0.0
H2243 H 0.62691 0.8762 0.88791 0.0
C2244 C 0.67282 0.76724 0.90136 0.0
C2245 C 0.68559 0.74317 0.8928 0.0
C2246 C 0.69142 0.74497 0.87484 0.0
C2247 C 0.68608 0.77074 0.86562 0.0
C2248 C 0.67422 0.7944 0.87446 0.0
C2249 C 0.66732 0.79287 0.89188 0.0
C2250 C 0.65216 0.8206 0.89779 0.0
C2251 C 0.62129 0.81398 0.90456 0.0
C2252 C 0.6705 0.83662 0.91147 0.0
C2253 C 0.65119 0.83763 0.88091 0.0
C2254 C 0.66454 0.82227 0.86772 0.0
C2255 C 0.66598 0.8331 0.85087 0.0
C2256 C 0.65299 0.86017 0.84732 0.0
C2257 C 0.63847 0.87604 0.86049 0.0
C2258 C 0.63794 0.86468 0.87756 0.0
H2259 H 0.01953 0.93105 0.62917 0.0
H2260 H 1.00109 0.93007 0.68416 0.0
H2261 H 0.95011 0.91545 0.67811 0.0
H2262 H 0.94509 0.95223 0.61176 0.0
H2263 H 0.95003 0.92695 0.59427 0.0
H2264 H 0.98144 0.94419 0.60385 0.0
H2265 H 1.0016 0.89095 0.60834 0.0
H2266 H 0.96815 0.87533 0.60035 0.0
H2267 H 0.98113 0.86594 0.62167 0.0
H2268 H 0.90274 0.89679 0.66638 0.0
H2269 H 0.86212 0.875 0.64972 0.0
H2270 H 0.91157 0.88574 0.60225 0.0
C2271 C 0.00431 0.92884 0.63982 0.0
C2272 C 0.01366 0.93283 0.65711 0.0
C2273 C 0.99391 0.92794 0.67085 0.0
C2274 C 0.965 0.91962 0.66752 0.0
C2275 C 0.95644 0.91543 0.65036 0.0
C2276 C 0.97551 0.91977 0.6367 0.0
C2277 C 0.962 0.90975 0.61973 0.0
C2278 C 0.95957 0.93484 0.60664 0.0
C2279 C 0.97925 0.88397 0.61208 0.0
C2280 C 0.93212 0.90014 0.62591 0.0
C2281 C 0.92945 0.90341 0.64363 0.0
C2282 C 0.90444 0.89453 0.65246 0.0
C2283 C 0.88152 0.88213 0.64291 0.0
C2284 C 0.88358 0.87906 0.6247 0.0
C2285 C 0.90918 0.88836 0.61612 0.0
H2286 H 0.84663 0.24983 0.41674 0.0
H2287 H 0.80294 0.28697 0.37213 0.0
H2288 H 0.81063 0.24123 0.3559 0.0
H2289 H 0.90221 0.21546 0.39298 0.0
H2290 H 0.90467 0.18344 0.40648 0.0
H2291 H 0.89222 0.21743 0.41554 0.0
H2292 H 0.8441 0.1927 0.42583 0.0
H2293 H 0.85723 0.15858 0.41717 0.0
H2294 H 0.82238 0.17274 0.41038 0.0
H2295 H 0.8255 0.19293 0.34388 0.0
H2296 H 0.84928 0.14639 0.33616 0.0
H2297 H 0.88579 0.14077 0.38796 0.0
C2298 C 0.83811 0.24791 0.40371 0.0
C2299 C 0.82284 0.27128 0.39594 0.0
C2300 C 0.81331 0.2687 0.37858 0.0
C2301 C 0.81778 0.24289 0.36923 0.0
C2302 C 0.83242 0.21999 0.3773 0.0
C2303 C 0.84264 0.22225 0.39411 0.0
C2304 C 0.86003 0.19534 0.39912 0.0
C2305 C 0.89165 0.20341 0.4038 0.0
C2306 C 0.84504 0.17887 0.41402 0.0
C2307 C 0.85859 0.17802 0.38238 0.0
C2308 C 0.84213 0.19247 0.37007 0.0
C2309 C 0.83829 0.1813 0.35344 0.0
C2310 C 0.85191 0.15483 0.34917 0.0
C2311 C 0.86941 0.13988 0.36143 0.0
C2312 C 0.87246 0.15158 0.37831 0.0
H2313 H 0.6183 0.13698 0.13974 0.0
H2314 H 0.60533 0.11317 0.08584 0.0
H2315 H 0.55744 0.09222 0.09312 0.0
H2316 H 0.58437 0.07144 0.15738 0.0
H2317 H 0.56712 0.08951 0.17542 0.0
H2318 H 0.60091 0.10338 0.16674 0.0
H2319 H 0.57813 0.15396 0.1614 0.0
H2320 H 0.54431 0.14124 0.17059 0.0
H2321 H 0.54475 0.15685 0.14915 0.0
H2322 H 0.50919 0.07921 0.1052 0.0
H2323 H 0.4653 0.06798 0.12236 0.0
H2324 H 0.50978 0.0951 0.1692 0.0
C2325 C 0.60542 0.12717 0.12952 0.0
C2326 C 0.61555 0.12684 0.11219 0.0
C2327 C 0.59813 0.11366 0.0992 0.0
C2328 C 0.57082 0.10176 0.10319 0.0
C2329 C 0.56131 0.10276 0.12029 0.0
C2330 C 0.57815 0.11465 0.13334 0.0
C2331 C 0.56256 0.11249 0.15069 0.0
C2332 C 0.57975 0.09304 0.16331 0.0
C2333 C 0.55712 0.14295 0.15841 0.0
C2334 C 0.53415 0.09808 0.14522 0.0
C2335 C 0.53393 0.093 0.12757 0.0
C2336 C 0.50944 0.08215 0.11911 0.0
C2337 C 0.4847 0.07561 0.12897 0.0
C2338 C 0.48483 0.079 0.14718 0.0
C2339 C 0.50963 0.09111 0.15538 0.0
H2340 H 0.69041 0.26335 0.62974 0.0
H2341 H 0.68421 0.24271 0.57517 0.0
H2342 H 0.67169 0.19156 0.58245 0.0
H2343 H 0.71476 0.19021 0.6475 0.0
H2344 H 0.69095 0.19509 0.66572 0.0
H2345 H 0.70663 0.22656 0.65526 0.0
H2346 H 0.653 0.2459 0.65206 0.0
H2347 H 0.63857 0.2127 0.66112 0.0
H2348 H 0.62705 0.22452 0.63992 0.0
H2349 H 0.65556 0.1443 0.59552 0.0
H2350 H 0.63446 0.10476 0.61326 0.0
H2351 H 0.64762 0.15668 0.6596 0.0
C2352 C 0.68752 0.24763 0.6194 0.0
C2353 C 0.68953 0.25637 0.60188 0.0
C2354 C 0.68373 0.23598 0.58862 0.0
C2355 C 0.67661 0.20697 0.59266 0.0
C2356 C 0.67447 0.199 0.61006 0.0
C2357 C 0.67953 0.21879 0.62326 0.0
C2358 C 0.6712 0.20595 0.64073 0.0
C2359 C 0.6975 0.20442 0.65301 0.0
C2360 C 0.64596 0.2233 0.64893 0.0
C2361 C 0.66137 0.17568 0.63534 0.0
C2362 C 0.6635 0.17214 0.6176 0.0
C2363 C 0.65415 0.1467 0.60944 0.0
C2364 C 0.64216 0.12436 0.61963 0.0
C2365 C 0.63967 0.1275 0.63783 0.0
C2366 C 0.64975 0.15342 0.64576 0.0
H2367 H 0.51195 0.91461 0.34283 0.0
H2368 H 0.47319 0.96025 0.38622 0.0
H2369 H 0.51797 0.95247 0.40336 0.0
H2370 H 0.54425 0.85934 0.36766 0.0
H2371 H 0.57695 0.85609 0.35482 0.0
H2372 H 0.54368 0.86883 0.34499 0.0
H2373 H 0.56971 0.91624 0.33478 0.0
H2374 H 0.60315 0.90299 0.34428 0.0
H2375 H 0.58899 0.93819 0.35042 0.0
H2376 H 0.56527 0.93691 0.41653 0.0
H2377 H 0.61091 0.91251 0.42539 0.0
H2378 H 0.61882 0.87466 0.37405 0.0
C2379 C 0.51334 0.92357 0.35578 0.0
C2380 C 0.48977 0.93936 0.36294 0.0
C2381 C 0.49164 0.94947 0.38022 0.0
C2382 C 0.51689 0.94494 0.39009 0.0
C2383 C 0.53997 0.92968 0.38263 0.0
C2384 C 0.53844 0.91901 0.36589 0.0
C2385 C 0.56534 0.90108 0.36157 0.0
C2386 C 0.55705 0.86946 0.357 0.0
C2387 C 0.58283 0.91548 0.34689 0.0
C2388 C 0.58175 0.90264 0.37864 0.0
C2389 C 0.56693 0.91967 0.39049 0.0
C2390 C 0.57721 0.9237 0.40732 0.0
C2391 C 0.60317 0.9097 0.41224 0.0
C2392 C 0.61851 0.89166 0.40045 0.0
C2393 C 0.60771 0.88841 0.38336 0.0
H2394 H 0.83996 0.76644 0.08828 0.0
H2395 H 0.79581 0.72507 0.13139 0.0
H2396 H 0.80134 0.76982 0.14872 0.0
H2397 H 0.89359 0.80036 0.11365 0.0
H2398 H 0.89581 0.83347 0.10109 0.0
H2399 H 0.88446 0.79999 0.09093 0.0
H2400 H 0.83636 0.82464 0.08067 0.0
H2401 H 0.84811 0.85829 0.09059 0.0
H2402 H 0.81339 0.84259 0.09635 0.0
H2403 H 0.81421 0.81695 0.16212 0.0
H2404 H 0.83749 0.86242 0.17191 0.0
H2405 H 0.87631 0.87372 0.12102 0.0
C2406 C 0.83085 0.76726 0.10121 0.0
C2407 C 0.81598 0.74295 0.10821 0.0
C2408 C 0.80577 0.74406 0.12548 0.0
C2409 C 0.809 0.76932 0.13547 0.0
C2410 C 0.82315 0.79318 0.12814 0.0
C2411 C 0.8342 0.79239 0.11148 0.0
C2412 C 0.85119 0.82007 0.1075 0.0
C2413 C 0.88315 0.81304 0.10303 0.0
C2414 C 0.83638 0.83742 0.0929 0.0
C2415 C 0.84874 0.83598 0.12472 0.0
C2416 C 0.83191 0.82024 0.13626 0.0
C2417 C 0.82727 0.82962 0.15318 0.0
C2418 C 0.84065 0.85551 0.15862 0.0
C2419 C 0.85874 0.8717 0.14726 0.0
C2420 C 0.8624 0.86199 0.12997 0.0
H2421 H 0.01989 0.06347 0.88084 0.0
H2422 H 0.00428 0.08157 0.8266 0.0
H2423 H 0.95299 0.09414 0.8332 0.0
H2424 H 0.94346 0.03844 0.89392 0.0
H2425 H 0.94713 0.05772 0.91407 0.0
H2426 H 0.97904 0.04268 0.90374 0.0
H2427 H 1.00164 0.09509 0.90542 0.0
H2428 H 0.96842 0.10951 0.91442 0.0
H2429 H 0.98311 0.12483 0.89476 0.0
H2430 H 0.90577 0.11008 0.84579 0.0
H2431 H 0.86616 0.13067 0.86357 0.0
H2432 H 0.91274 0.10596 0.91029 0.0
C2433 C 0.00516 0.06882 0.87033 0.0
C2434 C 0.01541 0.07027 0.85309 0.0
C2435 C 0.99635 0.07934 0.83976 0.0
C2436 C 0.96726 0.08651 0.84341 0.0
C2437 C 0.95782 0.08536 0.86057 0.0
C2438 C 0.97619 0.07688 0.87388 0.0
C2439 C 0.96203 0.0822 0.89141 0.0
C2440 C 0.95771 0.05351 0.90136 0.0
C2441 C 0.97986 0.10422 0.90212 0.0
C2442 C 0.93296 0.09502 0.88586 0.0
C2443 C 0.93092 0.0963 0.86801 0.0
C2444 C 0.90695 0.10881 0.85977 0.0
C2445 C 0.88457 0.12053 0.87 0.0
C2446 C 0.88623 0.11977 0.88833 0.0
C2447 C 0.91062 0.10645 0.89632 0.0
H2448 H 0.81993 0.76296 0.63131 0.0
H2449 H 0.83316 0.74884 0.57644 0.0
H2450 H 0.84576 0.69724 0.58213 0.0
H2451 H 0.88203 0.72512 0.64302 0.0
H2452 H 0.86824 0.70994 0.66295 0.0
H2453 H 0.85342 0.74358 0.65474 0.0
H2454 H 0.80067 0.72153 0.65434 0.0
H2455 H 0.81628 0.6892 0.66392 0.0
H2456 H 0.79532 0.68626 0.64433 0.0
H2457 H 0.86217 0.6495 0.59371 0.0
H2458 H 0.88386 0.60912 0.61038 0.0
H2459 H 0.8639 0.65436 0.65833 0.0
C2460 C 0.82423 0.7485 0.6205 0.0
C2461 C 0.82427 0.75927 0.60334 0.0
C2462 C 0.832 0.74054 0.58957 0.0
C2463 C 0.83918 0.71127 0.5927 0.0
C2464 C 0.83942 0.7013 0.60978 0.0
C2465 C 0.8323 0.71934 0.62351 0.0
C2466 C 0.83896 0.70455 0.64071 0.0
C2467 C 0.86203 0.72183 0.65095 0.0
C2468 C 0.81111 0.70018 0.65145 0.0
C2469 C 0.851 0.67552 0.63449 0.0
C2470 C 0.85068 0.67406 0.6166 0.0
C2471 C 0.86216 0.65023 0.60772 0.0
C2472 C 0.87452 0.62741 0.61733 0.0
C2473 C 0.87544 0.62846 0.63567 0.0
C2474 C 0.8631 0.6527 0.64434 0.0
H2475 H 0.605 0.61063 0.90582 0.0
H2476 H 0.65074 0.6295 0.85788 0.0
H2477 H 0.61062 0.6075 0.84124 0.0
H2478 H 0.57332 0.5417 0.8922 0.0
H2479 H 0.53795 0.54723 0.90202 0.0
H2480 H 0.57012 0.56315 0.91159 0.0
H2481 H 0.54949 0.61494 0.91013 0.0
H2482 H 0.51587 0.60021 0.90185 0.0
H2483 H 0.53467 0.62848 0.89004 0.0
H2484 H 0.56324 0.59083 0.82952 0.0
H2485 H 0.51188 0.57773 0.82358 0.0
H2486 H 0.4968 0.56554 0.87846 0.0
C2487 C 0.6068 0.60951 0.89185 0.0
C2488 C 0.63114 0.62169 0.88317 0.0
C2489 C 0.63238 0.62035 0.86484 0.0
C2490 C 0.60971 0.60779 0.85524 0.0
C2491 C 0.58579 0.5965 0.8641 0.0
C2492 C 0.58411 0.59712 0.88198 0.0
C2493 C 0.55493 0.5852 0.8881 0.0
C2494 C 0.55929 0.55765 0.89912 0.0
C2495 C 0.53773 0.60861 0.89812 0.0
C2496 C 0.54042 0.57823 0.87086 0.0
C2497 C 0.55868 0.5851 0.85719 0.0
C2498 C 0.54905 0.58441 0.84006 0.0
C2499 C 0.51992 0.57692 0.83678 0.0
C2500 C 0.50098 0.56928 0.85047 0.0
C2501 C 0.51141 0.56975 0.86772 0.0
H2502 H 0.63755 0.34909 0.16028 0.0
H2503 H 0.62648 0.39991 0.11331 0.0
H2504 H 0.64702 0.35948 0.09612 0.0
H2505 H 0.70369 0.31454 0.14929 0.0
H2506 H 0.69537 0.2782 0.15707 0.0
H2507 H 0.67921 0.30973 0.16719 0.0
H2508 H 0.62707 0.29298 0.16199 0.0
H2509 H 0.64128 0.25932 0.1534 0.0
H2510 H 0.61611 0.28083 0.14076 0.0
H2511 H 0.66306 0.312 0.08361 0.0
H2512 H 0.67625 0.2609 0.07675 0.0
H2513 H 0.68038 0.24095 0.13153 0.0
C2514 C 0.63999 0.35184 0.14643 0.0
C2515 C 0.6307 0.37777 0.13814 0.0
C2516 C 0.63354 0.38029 0.11993 0.0
C2517 C 0.64521 0.35744 0.11005 0.0
C2518 C 0.65379 0.33201 0.11851 0.0
C2519 C 0.65122 0.32896 0.13627 0.0
C2520 C 0.66053 0.29862 0.14195 0.0
C2521 C 0.68629 0.3003 0.15461 0.0
C2522 C 0.63471 0.28196 0.15 0.0
C2523 C 0.66929 0.28534 0.12465 0.0
C2524 C 0.66468 0.3049 0.11128 0.0
C2525 C 0.66754 0.29672 0.09396 0.0
C2526 C 0.67501 0.26772 0.09017 0.0
C2527 C 0.6805 0.24752 0.1036 0.0
C2528 C 0.67769 0.25647 0.12106 0.0
H2529 H 0.90434 0.40382 0.40611 0.0
H2530 H 0.85871 0.38171 0.35863 0.0
H2531 H 0.8992 0.40229 0.34151 0.0
H2532 H 0.93606 0.47119 0.39129 0.0
H2533 H 0.97142 0.46624 0.40127 0.0
H2534 H 0.93923 0.45079 0.41108 0.0
H2535 H 0.9597 0.39895 0.41065 0.0
H2536 H 0.99343 0.4132 0.40224 0.0
H2537 H 0.97472 0.38435 0.39089 0.0
H2538 H 0.94706 0.41842 0.32958 0.0
H2539 H 0.99851 0.43142 0.32368 0.0
H2540 H 0.01261 0.44682 0.37836 0.0
C2541 C 0.90262 0.40388 0.39212 0.0
C2542 C 0.87821 0.39133 0.38371 0.0
C2543 C 0.8771 0.39127 0.36537 0.0
C2544 C 0.89999 0.40298 0.35552 0.0
C2545 C 0.92393 0.41475 0.36416 0.0
C2546 C 0.92544 0.41535 0.38204 0.0
C2547 C 0.95454 0.42753 0.38805 0.0
C2548 C 0.9501 0.45565 0.39853 0.0
C2549 C 0.9716 0.40464 0.39857 0.0
C2550 C 0.9692 0.43352 0.37075 0.0
C2551 C 0.95117 0.42574 0.35714 0.0
C2552 C 0.96107 0.42549 0.34006 0.0
C2553 C 0.99025 0.43291 0.3368 0.0
C2554 C 0.00893 0.44139 0.35045 0.0
C2555 C 0.99821 0.44191 0.36762 0.0
H2556 H 0.8955 0.36948 0.88928 0.0
H2557 H 0.85445 0.36052 0.83883 0.0
H2558 H 0.83187 0.31449 0.84815 0.0
H2559 H 0.9126 0.29534 0.89545 0.0
H2560 H 0.90426 0.2943 0.91827 0.0
H2561 H 0.91561 0.32801 0.90835 0.0
H2562 H 0.86887 0.35308 0.91962 0.0
H2563 H 0.85668 0.31944 0.92936 0.0
H2564 H 0.83367 0.33828 0.91407 0.0
H2565 H 0.81902 0.26705 0.86105 0.0
H2566 H 0.8122 0.22226 0.87817 0.0
H2567 H 0.85796 0.26158 0.92139 0.0
C2568 C 0.8814 0.35803 0.88031 0.0
C2569 C 0.87683 0.36867 0.86328 0.0
C2570 C 0.85834 0.35293 0.85191 0.0
C2571 C 0.84535 0.3267 0.85709 0.0
C2572 C 0.85073 0.31652 0.87376 0.0
C2573 C 0.86794 0.33176 0.88534 0.0
C2574 C 0.87063 0.31521 0.90236 0.0
C2575 C 0.90268 0.30777 0.90633 0.0
C2576 C 0.85663 0.33253 0.91724 0.0
C2577 C 0.8531 0.28792 0.89825 0.0
C2578 C 0.84182 0.28934 0.88166 0.0
C2579 C 0.82688 0.26605 0.87425 0.0
C2580 C 0.82292 0.24079 0.88413 0.0
C2581 C 0.83309 0.23913 0.9014 0.0
C2582 C 0.84891 0.26281 0.90845 0.0
H2583 H 0.0106 0.57421 0.12717 0.0
H2584 H 0.99153 0.58148 0.1819 0.0
H2585 H 0.94021 0.59391 0.17505 0.0
H2586 H 0.97156 0.6373 0.11684 0.0
H2587 H 0.95905 0.62532 0.09589 0.0
H2588 H 0.9925 0.611 0.1047 0.0
H2589 H 0.97297 0.55736 0.10218 0.0
H2590 H 0.9412 0.57286 0.09195 0.0
H2591 H 0.93688 0.54949 0.11043 0.0
H2592 H 0.89265 0.60999 0.16236 0.0
H2593 H 0.85256 0.63066 0.14487 0.0
H2594 H 0.90305 0.61636 0.09809 0.0
C2595 C 0.99519 0.57729 0.13765 0.0
C2596 C 0.00444 0.57565 0.15509 0.0
C2597 C 0.98442 0.5817 0.16852 0.0
C2598 C 0.95532 0.58877 0.16472 0.0
C2599 C 0.94686 0.59061 0.14739 0.0
C2600 C 0.96624 0.58523 0.13403 0.0
C2601 C 0.95288 0.59319 0.11663 0.0
C2602 C 0.97002 0.61819 0.10802 0.0
C2603 C 0.95093 0.56659 0.1046 0.0
C2604 C 0.92281 0.60322 0.12226 0.0
C2605 C 0.91981 0.60149 0.14005 0.0
C2606 C 0.89462 0.61108 0.14841 0.0
C2607 C 0.87198 0.62284 0.13836 0.0
C2608 C 0.87455 0.62487 0.12011 0.0
C2609 C 0.90023 0.61461 0.11198 0.0
H2610 H 0.63286 0.66596 0.35148 0.0
H2611 H 0.62129 0.61469 0.39821 0.0
H2612 H 0.64209 0.65487 0.4156 0.0
H2613 H 0.69843 0.69957 0.362 0.0
H2614 H 0.69057 0.73629 0.35466 0.0
H2615 H 0.67353 0.70536 0.34442 0.0
H2616 H 0.62181 0.72245 0.35032 0.0
H2617 H 0.63672 0.75582 0.3589 0.0
H2618 H 0.61169 0.73449 0.37172 0.0
H2619 H 0.65973 0.70189 0.42821 0.0
H2620 H 0.67408 0.75262 0.43516 0.0
H2621 H 0.67683 0.77332 0.38046 0.0
C2622 C 0.63511 0.6631 0.36534 0.0
C2623 C 0.62582 0.63709 0.3735 0.0
C2624 C 0.6284 0.6344 0.39171 0.0
C2625 C 0.64022 0.65708 0.40169 0.0
C2626 C 0.64903 0.68254 0.39331 0.0
C2627 C 0.64631 0.68585 0.37558 0.0
C2628 C 0.65583 0.71613 0.36996 0.0
C2629 C 0.68116 0.71431 0.35701 0.0
C2630 C 0.62997 0.73322 0.36228 0.0
C2631 C 0.66523 0.72901 0.38724 0.0
C2632 C 0.66056 0.70937 0.40056 0.0
C2633 C 0.66417 0.71723 0.41788 0.0
C2634 C 0.67234 0.74601 0.42173 0.0
C2635 C 0.67773 0.76632 0.40834 0.0
C2636 C 0.67423 0.75769 0.39088 0.0
H2637 H 0.60438 0.38714 0.5985 0.0
H2638 H 0.65283 0.37055 0.64578 0.0
H2639 H 0.61276 0.39178 0.66295 0.0
H2640 H 0.57159 0.45438 0.61105 0.0
H2641 H 0.53555 0.44763 0.60238 0.0
H2642 H 0.56721 0.43153 0.59236 0.0
H2643 H 0.54834 0.37953 0.59566 0.0
H2644 H 0.51484 0.3941 0.60423 0.0
H2645 H 0.53499 0.36717 0.61636 0.0
H2646 H 0.56563 0.4088 0.67528 0.0
H2647 H 0.51449 0.42218 0.68186 0.0
H2648 H 0.4966 0.4309 0.62704 0.0
C2649 C 0.60672 0.38853 0.61243 0.0
C2650 C 0.63185 0.37744 0.6208 0.0
C2651 C 0.63382 0.37897 0.63909 0.0
C2652 C 0.61119 0.39106 0.64897 0.0
C2653 C 0.58654 0.40145 0.64041 0.0
C2654 C 0.58404 0.40021 0.62257 0.0
C2655 C 0.55427 0.41101 0.61678 0.0
C2656 C 0.55728 0.43778 0.60495 0.0
C2657 C 0.5371 0.38649 0.60773 0.0
C2658 C 0.5406 0.41877 0.63413 0.0
C2659 C 0.55958 0.41273 0.6476 0.0
C2660 C 0.55083 0.41444 0.66488 0.0
C2661 C 0.52183 0.42207 0.66852 0.0
C2662 C 0.50219 0.42879 0.655 0.0
C2663 C 0.51174 0.42729 0.6376 0.0
H2664 H 0.1404 0.35736 0.35031 0.0
H2665 H 0.12106 0.40448 0.39767 0.0
H2666 H 0.1425 0.36434 0.41484 0.0
H2667 H 0.1211 0.28714 0.36741 0.0
H2668 H 0.14875 0.26798 0.3553 0.0
H2669 H 0.13357 0.30138 0.34695 0.0
H2670 H 0.18521 0.32165 0.34427 0.0
H2671 H 0.20172 0.28997 0.35402 0.0
H2672 H 0.20757 0.32584 0.36319 0.0
H2673 H 0.1609 0.31715 0.42695 0.0
H2674 H 0.17532 0.26611 0.4331 0.0
H2675 H 0.18522 0.24998 0.37817 0.0
C2676 C 0.14115 0.35941 0.36428 0.0
C2677 C 0.12936 0.38418 0.37267 0.0
C2678 C 0.13007 0.38575 0.39098 0.0
C2679 C 0.14228 0.36309 0.40084 0.0
C2680 C 0.15352 0.33886 0.39221 0.0
C2681 C 0.15285 0.33674 0.37435 0.0
C2682 C 0.16446 0.30743 0.36836 0.0
C2683 C 0.14054 0.28996 0.35896 0.0
C2684 C 0.19139 0.31141 0.35679 0.0
C2685 C 0.17215 0.29351 0.38564 0.0
C2686 C 0.16536 0.31197 0.39924 0.0
C2687 C 0.16704 0.30279 0.41644 0.0
C2688 C 0.17528 0.27385 0.41984 0.0
C2689 C 0.18253 0.25471 0.40616 0.0
C2690 C 0.1812 0.26474 0.38887 0.0
H2691 H 0.37927 0.37605 0.14209 0.0
H2692 H 0.39008 0.40777 0.08942 0.0
H2693 H 0.43689 0.42988 0.09742 0.0
H2694 H 0.41358 0.44124 0.16283 0.0
H2695 H 0.43123 0.4203 0.17961 0.0
H2696 H 0.39692 0.40817 0.17069 0.0
H2697 H 0.41945 0.35828 0.16272 0.0
H2698 H 0.4538 0.36966 0.17181 0.0
H2699 H 0.45211 0.35707 0.14971 0.0
H2700 H 0.48501 0.44154 0.10916 0.0
H2701 H 0.53027 0.44913 0.12565 0.0
H2702 H 0.48902 0.41457 0.17181 0.0
C2703 C 0.39125 0.38815 0.13237 0.0
C2704 C 0.38096 0.39002 0.11508 0.0
C2705 C 0.3974 0.4059 0.10271 0.0
C2706 C 0.4241 0.4186 0.10711 0.0
C2707 C 0.43403 0.41568 0.12403 0.0
C2708 C 0.41803 0.4014 0.13661 0.0
C2709 C 0.43455 0.40108 0.15372 0.0
C2710 C 0.41809 0.41875 0.16754 0.0
C2711 C 0.44031 0.36965 0.15984 0.0
C2712 C 0.4627 0.41627 0.14849 0.0
C2713 C 0.4617 0.42443 0.13127 0.0
C2714 C 0.48571 0.43631 0.12283 0.0
C2715 C 0.51126 0.44072 0.13232 0.0
C2716 C 0.5125 0.43408 0.15019 0.0
C2717 C 0.48812 0.42104 0.15833 0.0
H2718 H 0.32998 0.76346 0.87823 0.0
H2719 H 0.33037 0.74226 0.93289 0.0
H2720 H 0.3447 0.69149 0.92599 0.0
H2721 H 0.30863 0.69005 0.85933 0.0
H2722 H 0.33413 0.69595 0.84208 0.0
H2723 H 0.31691 0.72684 0.85226 0.0
H2724 H 0.37044 0.74615 0.85726 0.0
H2725 H 0.3858 0.71294 0.84875 0.0
H2726 H 0.39504 0.72471 0.87033 0.0
H2727 H 0.36273 0.6445 0.9135 0.0
H2728 H 0.38423 0.60444 0.89628 0.0
H2729 H 0.37474 0.65626 0.84959 0.0
C2730 C 0.33205 0.74771 0.88863 0.0
C2731 C 0.32791 0.75622 0.90606 0.0
C2732 C 0.33261 0.73575 0.91946 0.0
C2733 C 0.34075 0.70695 0.91565 0.0
C2734 C 0.345 0.69921 0.89836 0.0
C2735 C 0.34097 0.719 0.88503 0.0
C2736 C 0.35105 0.70621 0.86786 0.0
C2737 C 0.32613 0.70477 0.85462 0.0
C2738 C 0.37713 0.72353 0.86063 0.0
C2739 C 0.36026 0.67588 0.87354 0.0
C2740 C 0.35677 0.6724 0.8912 0.0
C2741 C 0.36519 0.64684 0.89963 0.0
C2742 C 0.3774 0.62423 0.88975 0.0
C2743 C 0.38077 0.62712 0.8716 0.0
C2744 C 0.37187 0.65324 0.8634 0.0
H2745 H 0.01988 0.59423 0.66681 0.0
H2746 H 0.97864 0.55798 0.62115 0.0
H2747 H 0.02361 0.56626 0.60432 0.0
H2748 H 0.05526 0.65158 0.64468 0.0
H2749 H 0.08803 0.65106 0.65759 0.0
H2750 H 0.05404 0.63893 0.66679 0.0
H2751 H 0.07715 0.58846 0.67447 0.0
H2752 H 0.11128 0.60162 0.66584 0.0
H2753 H 0.09571 0.56826 0.65771 0.0
H2754 H 0.07185 0.58022 0.59205 0.0
H2755 H 0.11895 0.6029 0.5844 0.0
H2756 H 0.12889 0.63268 0.63746 0.0
C2757 C 0.02071 0.58751 0.65337 0.0
C2758 C 0.9964 0.57411 0.64544 0.0
C2759 C 0.99759 0.56693 0.62763 0.0
C2760 C 0.02296 0.57172 0.61795 0.0
C2761 C 0.04687 0.5843 0.62618 0.0
C2762 C 0.04597 0.59238 0.64344 0.0
C2763 C 0.07386 0.60796 0.64862 0.0
C2764 C 0.0674 0.63924 0.65478 0.0
C2765 C 0.09047 0.59053 0.66249 0.0
C2766 C 0.09021 0.60786 0.63151 0.0
C2767 C 0.07441 0.59364 0.61884 0.0
C2768 C 0.08454 0.59129 0.60188 0.0
C2769 C 0.11134 0.60424 0.59765 0.0
C2770 C 0.12767 0.61956 0.6103 0.0
C2771 C 0.11704 0.62099 0.62751 0.0
H2772 H 0.13505 0.6613 0.15761 0.0
H2773 H 0.11654 0.61389 0.11021 0.0
H2774 H 0.13681 0.65444 0.09305 0.0
H2775 H 0.11419 0.73117 0.14066 0.0
H2776 H 0.14167 0.75105 0.15249 0.0
H2777 H 0.12753 0.71733 0.16104 0.0
H2778 H 0.17965 0.69836 0.16332 0.0
H2779 H 0.19526 0.73028 0.15331 0.0
H2780 H 0.20162 0.69444 0.14421 0.0
H2781 H 0.15297 0.70183 0.08086 0.0
H2782 H 0.16611 0.75303 0.07441 0.0
H2783 H 0.17751 0.76985 0.12919 0.0
C2784 C 0.1358 0.6593 0.14364 0.0
C2785 C 0.12444 0.63432 0.13525 0.0
C2786 C 0.12516 0.63278 0.11692 0.0
C2787 C 0.13671 0.65568 0.10705 0.0
C2788 C 0.14736 0.68017 0.11564 0.0
C2789 C 0.14694 0.68226 0.13351 0.0
C2790 C 0.158 0.71191 0.13936 0.0
C2791 C 0.13391 0.72886 0.14895 0.0
C2792 C 0.1853 0.70861 0.15071 0.0
C2793 C 0.16494 0.72599 0.12199 0.0
C2794 C 0.15826 0.7073 0.1085 0.0
C2795 C 0.15911 0.7164 0.09127 0.0
C2796 C 0.16659 0.74544 0.08771 0.0
C2797 C 0.17405 0.7648 0.10123 0.0
C2798 C 0.17336 0.75493 0.11859 0.0
H2799 H 0.1021 0.38978 0.90817 0.0
H2800 H 0.15079 0.3713 0.86124 0.0
H2801 H 0.11067 0.39154 0.84369 0.0
H2802 H 0.03264 0.36896 0.89053 0.0
H2803 H 0.01251 0.39645 0.90221 0.0
H2804 H 0.04596 0.38219 0.91105 0.0
H2805 H 0.06485 0.43426 0.91359 0.0
H2806 H 0.03335 0.45008 0.90322 0.0
H2807 H 0.06952 0.45623 0.89455 0.0
H2808 H 0.06351 0.40776 0.83104 0.0
H2809 H 0.01253 0.42123 0.82416 0.0
H2810 H 0.99447 0.43262 0.8788 0.0
C2811 C 0.10448 0.39054 0.89423 0.0
C2812 C 0.1297 0.3792 0.88607 0.0
C2813 C 0.13172 0.37992 0.86777 0.0
C2814 C 0.10906 0.39143 0.85767 0.0
C2815 C 0.08433 0.40206 0.86603 0.0
C2816 C 0.08177 0.40164 0.88388 0.0
C2817 C 0.052 0.41274 0.88946 0.0
C2818 C 0.03477 0.38865 0.89887 0.0
C2819 C 0.05505 0.44 0.90087 0.0
C2820 C 0.0384 0.41976 0.87197 0.0
C2821 C 0.05738 0.41301 0.85864 0.0
C2822 C 0.04871 0.41394 0.84133 0.0
C2823 C 0.01979 0.4216 0.83752 0.0
C2824 C 1.00015 0.42916 0.85088 0.0
C2825 C 0.00961 0.42837 0.86832 0.0
H2826 H 0.32773 0.23636 0.62857 0.0
H2827 H 0.33876 0.25389 0.57385 0.0
H2828 H 0.35238 0.30489 0.5805 0.0
H2829 H 0.30429 0.31171 0.64398 0.0
H2830 H 0.32622 0.30708 0.66305 0.0
H2831 H 0.31035 0.27556 0.65274 0.0
H2832 H 0.36367 0.25443 0.6518 0.0
H2833 H 0.37833 0.2878 0.66051 0.0
H2834 H 0.3913 0.27419 0.64001 0.0
H2835 H 0.3688 0.3521 0.59287 0.0
H2836 H 0.38924 0.39239 0.61018 0.0
H2837 H 0.371 0.34435 0.6574 0.0
C2838 C 0.33193 0.2514 0.61803 0.0
C2839 C 0.33098 0.24177 0.60062 0.0
C2840 C 0.33848 0.26127 0.58718 0.0
C2841 C 0.34622 0.29022 0.59086 0.0
C2842 C 0.34728 0.29907 0.60813 0.0
C2843 C 0.34055 0.28025 0.62156 0.0
C2844 C 0.34776 0.29407 0.63897 0.0
C2845 C 0.32048 0.29722 0.65034 0.0
C2846 C 0.37169 0.27658 0.64837 0.0
C2847 C 0.35897 0.32372 0.63322 0.0
C2848 C 0.3584 0.32606 0.61537 0.0
C2849 C 0.36902 0.35066 0.60687 0.0
C2850 C 0.38065 0.37342 0.61682 0.0
C2851 C 0.38149 0.37165 0.63514 0.0
C2852 C 0.37017 0.34654 0.64344 0.0
H2853 H 0.51072 0.57278 0.37894 0.0
H2854 H 0.49658 0.5885 0.3243 0.0
H2855 H 0.44546 0.60264 0.33032 0.0
H2856 H 0.43384 0.54965 0.39179 0.0
H2857 H 0.43735 0.56971 0.41167 0.0
H2858 H 0.46927 0.55382 0.40184 0.0
H2859 H 0.49261 0.60588 0.40288 0.0
H2860 H 0.45943 0.62118 0.41142 0.0
H2861 H 0.47476 0.63545 0.39166 0.0
H2862 H 0.39826 0.62062 0.34246 0.0
H2863 H 0.35835 0.64188 0.35984 0.0
H2864 H 0.40359 0.61728 0.40702 0.0
C2865 C 0.49634 0.57795 0.36823 0.0
C2866 C 0.50699 0.57839 0.35106 0.0
C2867 C 0.48836 0.58714 0.33743 0.0
C2868 C 0.45937 0.59521 0.34076 0.0
C2869 C 0.44959 0.59517 0.35787 0.0
C2870 C 0.4675 0.58679 0.37143 0.0
C2871 C 0.4531 0.593 0.38877 0.0
C2872 C 0.44815 0.56482 0.39911 0.0
C2873 C 0.47104 0.6152 0.39929 0.0
C2874 C 0.42436 0.60603 0.38284 0.0
C2875 C 0.42274 0.60692 0.36497 0.0
C2876 C 0.3991 0.6196 0.35646 0.0
C2877 C 0.37656 0.63171 0.36644 0.0
C2878 C 0.37771 0.63101 0.38478 0.0
C2879 C 0.40185 0.6177 0.39303 0.0
loop_
_geom_bond_atom_site_label_1
_geom_bond_atom_site_label_2
_geom_bond_distance
_geom_bond_site_symmetry_2
_ccdc_geom_bond_type
Mn0 O5 2.095 . S
Mn0 O15 2.162 . S
Mn0 O16 2.297 . S
Mn0 O24 2.385 . S
Mn0 O25 2.209 . S
Mn0 O26 2.094 . S
Mn1 O6 2.124 . S
Mn1 N8 2.267 . S
Mn1 N17 2.281 1_565 S
Mn1 O25 2.189 1_565 S
Mn1 O27 2.109 1_565 S
C2 O24 1.234 . S
C2 O25 1.283 . S
C3 O15 1.281 . S
C3 O16 1.236 . S
C4 O26 1.240 . S
C4 O27 1.264 . S
O5 Mn0 2.095 . S
O5 C14 1.250 . S
O6 Mn1 2.124 . S
O6 C14 1.258 1_565 S
C7 N8 1.326 . S
C7 C11 1.460 . S
C7 H13 0.929 . S
N8 Mn1 2.267 . S
N8 C7 1.326 . S
N8 C12 1.362 . S
C9 C10 1.258 . S
C9 C12 1.431 . S
C9 C29 1.449 . S
C10 C9 1.258 . S
C10 C11 1.477 . S
C10 H30 0.931 . S
C11 C7 1.460 . S
C11 C10 1.477 . S
C11 H31 0.930 . S
C12 N8 1.362 . S
C12 C9 1.431 . S
C12 C22 1.476 . S
H13 C7 0.929 . S
C14 O5 1.250 . S
C14 O6 1.258 1_545 S
O15 Mn0 2.162 . S
O15 C3 1.281 . S
O16 Mn0 2.297 . S
O16 C3 1.236 . S
N17 Mn1 2.281 1_545 S
N17 C18 1.328 . S
N17 C22 1.318 1_545 S
C18 N17 1.328 . S
C18 C19 1.457 . S
C18 H23 0.929 . S
C19 C18 1.457 . S
C19 C20 1.291 . S
C19 H32 0.931 . S
C20 C19 1.291 . S
C20 C21 1.373 1_545 S
C20 H33 0.929 . S
C21 C20 1.373 1_565 S
C21 C22 1.396 . S
C21 C28 1.403 . S
C22 C12 1.476 . S
C22 N17 1.318 1_565 S
C22 C21 1.396 . S
H23 C18 0.929 . S
O24 Mn0 2.385 . S
O24 C2 1.234 . S
O25 Mn0 2.209 . S
O25 Mn1 2.189 1_545 S
O25 C2 1.283 . S
O26 Mn0 2.094 . S
O26 C4 1.240 . S
O27 Mn1 2.109 1_545 S
O27 C4 1.264 . S
C28 C21 1.403 . S
C28 C29 1.399 . S
C28 H34 0.929 . S
C29 C9 1.449 . S
C29 C28 1.399 . S
C29 H35 0.930 . S
H30 C10 0.931 . S
H31 C11 0.930 . S
H32 C19 0.931 . S
H33 C20 0.929 . S
H34 C28 0.929 . S
H35 C29 0.930 . S
Mn36 O41 2.095 . S
Mn36 O51 2.162 . S
Mn36 O52 2.297 . S
Mn36 O60 2.385 . S
Mn36 O61 2.209 . S
Mn36 O62 2.094 . S
Mn37 O42 2.121 . S
Mn37 N44 2.257 . S
Mn37 N53 2.282 . S
Mn37 O61 2.215 . S
Mn37 O63 2.117 . S
C38 O60 1.234 . S
C38 O61 1.283 . S
C39 O51 1.281 . S
C39 O52 1.236 . S
C40 O62 1.240 . S
C40 O63 1.264 . S
O41 Mn36 2.095 . S
O41 C50 1.250 . S
O42 Mn37 2.121 . S
O42 C50 1.258 . S
C43 N44 1.326 . S
C43 C47 1.460 . S
C43 H49 0.929 . S
N44 Mn37 2.257 . S
N44 C43 1.326 . S
N44 C48 1.362 . S
C45 C46 1.258 . S
C45 C48 1.431 . S
C45 C65 1.449 . S
C46 C45 1.258 . S
C46 C47 1.477 . S
C46 H66 0.931 . S
C47 C43 1.460 . S
C47 C46 1.477 . S
C47 H67 0.930 . S
C48 N44 1.362 . S
C48 C45 1.431 . S
C48 C58 1.476 . S
H49 C43 0.929 . S
C50 O41 1.250 . S
C50 O42 1.258 . S
O51 Mn36 2.162 . S
O51 C39 1.281 . S
O52 Mn36 2.297 . S
O52 C39 1.236 . S
N53 Mn37 2.282 . S
N53 C54 1.328 . S
N53 C58 1.318 . S
C54 N53 1.328 . S
C54 C55 1.457 . S
C54 H59 0.929 . S
C55 C54 1.457 . S
C55 C56 1.291 . S
C55 H68 0.931 . S
C56 C55 1.291 . S
C56 C57 1.373 . S
C56 H69 0.929 . S
C57 C56 1.373 . S
C57 C58 1.396 . S
C57 C64 1.403 . S
C58 C48 1.476 . S
C58 N53 1.318 . S
C58 C57 1.396 . S
H59 C54 0.929 . S
O60 Mn36 2.385 . S
O60 C38 1.234 . S
O61 Mn36 2.209 . S
O61 Mn37 2.215 . S
O61 C38 1.283 . S
O62 Mn36 2.094 . S
O62 C40 1.240 . S
O63 Mn37 2.117 . S
O63 C40 1.264 . S
C64 C57 1.403 . S
C64 C65 1.399 . S
C64 H70 0.929 . S
C65 C45 1.449 . S
C65 C64 1.399 . S
C65 H71 0.930 . S
H66 C46 0.931 . S
H67 C47 0.930 . S
H68 C55 0.931 . S
H69 C56 0.929 . S
H70 C64 0.929 . S
H71 C65 0.930 . S
Mn72 O77 2.095 . S
Mn72 O87 2.162 . S
Mn72 O88 2.297 . S
Mn72 O96 2.385 . S
Mn72 O97 2.209 . S
Mn72 O98 2.094 . S
Mn73 O78 2.124 . S
Mn73 N80 2.267 . S
Mn73 N89 2.281 1_545 S
Mn73 O97 2.189 1_545 S
Mn73 O99 2.109 1_545 S
C74 O96 1.234 . S
C74 O97 1.283 . S
C75 O87 1.281 . S
C75 O88 1.236 . S
C76 O98 1.240 . S
C76 O99 1.264 . S
O77 Mn72 2.095 . S
O77 C86 1.250 . S
O78 Mn73 2.124 . S
O78 C86 1.258 1_545 S
C79 N80 1.326 . S
C79 C83 1.460 . S
C79 H85 0.929 . S
N80 Mn73 2.267 . S
N80 C79 1.326 . S
N80 C84 1.362 . S
C81 C82 1.258 1_655 S
C81 C84 1.431 1_655 S
C81 C101 1.449 . S
C82 C81 1.258 1_455 S
C82 C83 1.477 . S
C82 H102 0.931 1_455 S
C83 C79 1.460 . S
C83 C82 1.477 . S
C83 H103 0.930 . S
C84 N80 1.362 . S
C84 C81 1.431 1_455 S
C84 C94 1.476 . S
H85 C79 0.929 . S
C86 O77 1.250 . S
C86 O78 1.258 1_565 S
O87 Mn72 2.162 . S
O87 C75 1.281 . S
O88 Mn72 2.297 . S
O88 C75 1.236 . S
N89 Mn73 2.281 1_565 S
N89 C90 1.328 . S
N89 C94 1.318 1_565 S
C90 N89 1.328 . S
C90 C91 1.457 1_455 S
C90 H95 0.929 . S
C91 C90 1.457 1_655 S
C91 C92 1.291 . S
C91 H104 0.931 . S
C92 C91 1.291 . S
C92 C93 1.373 1_565 S
C92 H105 0.929 . S
C93 C92 1.373 1_545 S
C93 C94 1.396 1_655 S
C93 C100 1.403 . S
C94 C84 1.476 . S
C94 N89 1.318 1_545 S
C94 C93 1.396 1_455 S
H95 C90 0.929 . S
O96 Mn72 2.385 . S
O96 C74 1.234 . S
O97 Mn72 2.209 . S
O97 Mn73 2.189 1_565 S
O97 C74 1.283 . S
O98 Mn72 2.094 . S
O98 C76 1.240 . S
O99 Mn73 2.109 1_565 S
O99 C76 1.264 . S
C100 C93 1.403 . S
C100 C101 1.399 . S
C100 H106 0.929 . S
C101 C81 1.449 . S
C101 C100 1.399 . S
C101 H107 0.930 . S
H102 C82 0.931 1_655 S
H103 C83 0.930 . S
H104 C91 0.931 . S
H105 C92 0.929 . S
H106 C100 0.929 . S
H107 C101 0.930 . S
Mn108 O113 2.095 . S
Mn108 O123 2.162 . S
Mn108 O124 2.297 . S
Mn108 O132 2.385 . S
Mn108 O133 2.209 . S
Mn108 O134 2.094 . S
Mn109 O114 2.121 . S
Mn109 N116 2.257 . S
Mn109 N125 2.282 . S
Mn109 O133 2.215 . S
Mn109 O135 2.117 . S
C110 O132 1.234 . S
C110 O133 1.283 . S
C111 O123 1.281 . S
C111 O124 1.236 . S
C112 O134 1.240 . S
C112 O135 1.264 . S
O113 Mn108 2.095 . S
O113 C122 1.250 . S
O114 Mn109 2.121 . S
O114 C122 1.258 . S
C115 N116 1.326 . S
C115 C119 1.460 . S
C115 H121 0.929 . S
N116 Mn109 2.257 . S
N116 C115 1.326 . S
N116 C120 1.362 . S
C117 C118 1.258 . S
C117 C120 1.431 . S
C117 C137 1.449 . S
C118 C117 1.258 . S
C118 C119 1.477 . S
C118 H138 0.931 . S
C119 C115 1.460 . S
C119 C118 1.477 . S
C119 H139 0.930 . S
C120 N116 1.362 . S
C120 C117 1.431 . S
C120 C130 1.476 . S
H121 C115 0.929 . S
C122 O113 1.250 . S
C122 O114 1.258 . S
O123 Mn108 2.162 . S
O123 C111 1.281 . S
O124 Mn108 2.297 . S
O124 C111 1.236 . S
N125 Mn109 2.282 . S
N125 C126 1.328 . S
N125 C130 1.318 . S
C126 N125 1.328 . S
C126 C127 1.457 . S
C126 H131 0.929 . S
C127 C126 1.457 . S
C127 C128 1.291 . S
C127 H140 0.931 . S
C128 C127 1.291 . S
C128 C129 1.373 . S
C128 H141 0.929 . S
C129 C128 1.373 . S
C129 C130 1.396 . S
C129 C136 1.403 . S
C130 C120 1.476 . S
C130 N125 1.318 . S
C130 C129 1.396 . S
H131 C126 0.929 . S
O132 Mn108 2.385 . S
O132 C110 1.234 . S
O133 Mn108 2.209 . S
O133 Mn109 2.215 . S
O133 C110 1.283 . S
O134 Mn108 2.094 . S
O134 C112 1.240 . S
O135 Mn109 2.117 . S
O135 C112 1.264 . S
C136 C129 1.403 . S
C136 C137 1.399 . S
C136 H142 0.929 . S
C137 C117 1.449 . S
C137 C136 1.399 . S
C137 H143 0.930 . S
H138 C118 0.931 . S
H139 C119 0.930 . S
H140 C127 0.931 . S
H141 C128 0.929 . S
H142 C136 0.929 . S
H143 C137 0.930 . S
Mn144 O149 2.095 . S
Mn144 O159 2.162 . S
Mn144 O160 2.297 . S
Mn144 O168 2.385 . S
Mn144 O169 2.209 . S
Mn144 O170 2.094 . S
Mn145 O150 2.124 . S
Mn145 N152 2.267 . S
Mn145 N161 2.281 1_545 S
Mn145 O169 2.189 1_545 S
Mn145 O171 2.109 1_545 S
C146 O168 1.234 . S
C146 O169 1.283 . S
C147 O159 1.281 . S
C147 O160 1.236 . S
C148 O170 1.240 . S
C148 O171 1.264 . S
O149 Mn144 2.095 . S
O149 C158 1.250 . S
O150 Mn145 2.124 . S
O150 C158 1.258 1_545 S
C151 N152 1.326 . S
C151 C155 1.460 . S
C151 H157 0.929 . S
N152 Mn145 2.267 . S
N152 C151 1.326 . S
N152 C156 1.362 . S
C153 C154 1.258 . S
C153 C156 1.431 . S
C153 C173 1.449 . S
C154 C153 1.258 . S
C154 C155 1.477 . S
C154 H174 0.931 . S
C155 C151 1.460 . S
C155 C154 1.477 . S
C155 H175 0.930 . S
C156 N152 1.362 . S
C156 C153 1.431 . S
C156 C166 1.476 . S
H157 C151 0.929 . S
C158 O149 1.250 . S
C158 O150 1.258 1_565 S
O159 Mn144 2.162 . S
O159 C147 1.281 . S
O160 Mn144 2.297 . S
O160 C147 1.236 . S
N161 Mn145 2.281 1_565 S
N161 C162 1.328 . S
N161 C166 1.318 1_565 S
C162 N161 1.328 . S
C162 C163 1.457 . S
C162 H167 0.929 . S
C163 C162 1.457 . S
C163 C164 1.291 . S
C163 H176 0.931 . S
C164 C163 1.291 . S
C164 C165 1.373 1_565 S
C164 H177 0.929 . S
C165 C164 1.373 1_545 S
C165 C166 1.396 . S
C165 C172 1.403 . S
C166 C156 1.476 . S
C166 N161 1.318 1_545 S
C166 C165 1.396 . S
H167 C162 0.929 . S
O168 Mn144 2.385 . S
O168 C146 1.234 . S
O169 Mn144 2.209 . S
O169 Mn145 2.189 1_565 S
O169 C146 1.283 . S
O170 Mn144 2.094 . S
O170 C148 1.240 . S
O171 Mn145 2.109 1_565 S
O171 C148 1.264 . S
C172 C165 1.403 . S
C172 C173 1.399 . S
C172 H178 0.929 . S
C173 C153 1.449 . S
C173 C172 1.399 . S
C173 H179 0.930 . S
H174 C154 0.931 . S
H175 C155 0.930 . S
H176 C163 0.931 . S
H177 C164 0.929 . S
H178 C172 0.929 . S
H179 C173 0.930 . S
Mn180 O185 2.095 . S
Mn180 O195 2.162 . S
Mn180 O196 2.297 . S
Mn180 O204 2.385 . S
Mn180 O205 2.209 . S
Mn180 O206 2.094 . S
Mn181 O186 2.121 . S
Mn181 N188 2.257 . S
Mn181 N197 2.282 . S
Mn181 O205 2.215 . S
Mn181 O207 2.117 . S
C182 O204 1.234 . S
C182 O205 1.283 . S
C183 O195 1.281 . S
C183 O196 1.236 . S
C184 O206 1.240 . S
C184 O207 1.264 . S
O185 Mn180 2.095 . S
O185 C194 1.250 . S
O186 Mn181 2.121 . S
O186 C194 1.258 . S
C187 N188 1.326 . S
C187 C191 1.460 . S
C187 H193 0.929 . S
N188 Mn181 2.257 . S
N188 C187 1.326 . S
N188 C192 1.362 . S
C189 C190 1.258 . S
C189 C192 1.431 . S
C189 C209 1.449 . S
C190 C189 1.258 . S
C190 C191 1.477 . S
C190 H210 0.931 . S
C191 C187 1.460 . S
C191 C190 1.477 . S
C191 H211 0.930 . S
C192 N188 1.362 . S
C192 C189 1.431 . S
C192 C202 1.476 . S
H193 C187 0.929 . S
C194 O185 1.250 . S
C194 O186 1.258 . S
O195 Mn180 2.162 . S
O195 C183 1.281 . S
O196 Mn180 2.297 . S
O196 C183 1.236 . S
N197 Mn181 2.282 . S
N197 C198 1.328 . S
N197 C202 1.318 . S
C198 N197 1.328 . S
C198 C199 1.457 . S
C198 H203 0.929 . S
C199 C198 1.457 . S
C199 C200 1.291 . S
C199 H212 0.931 . S
C200 C199 1.291 . S
C200 C201 1.373 . S
C200 H213 0.929 . S
C201 C200 1.373 . S
C201 C202 1.396 . S
C201 C208 1.403 . S
C202 C192 1.476 . S
C202 N197 1.318 . S
C202 C201 1.396 . S
H203 C198 0.929 . S
O204 Mn180 2.385 . S
O204 C182 1.234 . S
O205 Mn180 2.209 . S
O205 Mn181 2.215 . S
O205 C182 1.283 . S
O206 Mn180 2.094 . S
O206 C184 1.240 . S
O207 Mn181 2.117 . S
O207 C184 1.264 . S
C208 C201 1.403 . S
C208 C209 1.399 . S
C208 H214 0.929 . S
C209 C189 1.449 . S
C209 C208 1.399 . S
C209 H215 0.930 . S
H210 C190 0.931 . S
H211 C191 0.930 . S
H212 C199 0.931 . S
H213 C200 0.929 . S
H214 C208 0.929 . S
H215 C209 0.930 . S
Mn216 O221 2.095 . S
Mn216 O231 2.162 . S
Mn216 O232 2.297 . S
Mn216 O240 2.385 . S
Mn216 O241 2.209 . S
Mn216 O242 2.094 . S
Mn217 O222 2.124 . S
Mn217 N224 2.267 . S
Mn217 N233 2.281 1_565 S
Mn217 O241 2.189 1_565 S
Mn217 O243 2.109 1_565 S
C218 O240 1.234 . S
C218 O241 1.283 . S
C219 O231 1.281 . S
C219 O232 1.236 . S
C220 O242 1.240 . S
C220 O243 1.264 . S
O221 Mn216 2.095 . S
O221 C230 1.250 . S
O222 Mn217 2.124 . S
O222 C230 1.258 1_565 S
C223 N224 1.326 . S
C223 C227 1.460 . S
C223 H229 0.929 . S
N224 Mn217 2.267 . S
N224 C223 1.326 . S
N224 C228 1.362 . S
C225 C226 1.258 1_655 S
C225 C228 1.431 1_655 S
C225 C245 1.449 . S
C226 C225 1.258 1_455 S
C226 C227 1.477 . S
C226 H246 0.931 1_455 S
C227 C223 1.460 . S
C227 C226 1.477 . S
C227 H247 0.930 . S
C228 N224 1.362 . S
C228 C225 1.431 1_455 S
C228 C238 1.476 . S
H229 C223 0.929 . S
C230 O221 1.250 . S
C230 O222 1.258 1_545 S
O231 Mn216 2.162 . S
O231 C219 1.281 . S
O232 Mn216 2.297 . S
O232 C219 1.236 . S
N233 Mn217 2.281 1_545 S
N233 C234 1.328 . S
N233 C238 1.318 1_545 S
C234 N233 1.328 . S
C234 C235 1.457 1_455 S
C234 H239 0.929 . S
C235 C234 1.457 1_655 S
C235 C236 1.291 . S
C235 H248 0.931 . S
C236 C235 1.291 . S
C236 C237 1.373 1_545 S
C236 H249 0.929 . S
C237 C236 1.373 1_565 S
C237 C238 1.396 1_655 S
C237 C244 1.403 . S
C238 C228 1.476 . S
C238 N233 1.318 1_565 S
C238 C237 1.396 1_455 S
H239 C234 0.929 . S
O240 Mn216 2.385 . S
O240 C218 1.234 . S
O241 Mn216 2.209 . S
O241 Mn217 2.189 1_545 S
O241 C218 1.283 . S
O242 Mn216 2.094 . S
O242 C220 1.240 . S
O243 Mn217 2.109 1_545 S
O243 C220 1.264 . S
C244 C237 1.403 . S
C244 C245 1.399 . S
C244 H250 0.929 . S
C245 C225 1.449 . S
C245 C244 1.399 . S
C245 H251 0.930 . S
H246 C226 0.931 1_655 S
H247 C227 0.930 . S
H248 C235 0.931 . S
H249 C236 0.929 . S
H250 C244 0.929 . S
H251 C245 0.930 . S
Mn252 O257 2.095 . S
Mn252 O267 2.162 . S
Mn252 O268 2.297 . S
Mn252 O276 2.385 . S
Mn252 O277 2.209 . S
Mn252 O278 2.094 . S
Mn253 O258 2.121 . S
Mn253 N260 2.257 . S
Mn253 N269 2.282 . S
Mn253 O277 2.215 . S
Mn253 O279 2.117 . S
C254 O276 1.234 . S
C254 O277 1.283 . S
C255 O267 1.281 . S
C255 O268 1.236 . S
C256 O278 1.240 . S
C256 O279 1.264 . S
O257 Mn252 2.095 . S
O257 C266 1.250 . S
O258 Mn253 2.121 . S
O258 C266 1.258 . S
C259 N260 1.326 . S
C259 C263 1.460 . S
C259 H265 0.929 . S
N260 Mn253 2.257 . S
N260 C259 1.326 . S
N260 C264 1.362 . S
C261 C262 1.258 . S
C261 C264 1.431 . S
C261 C281 1.449 . S
C262 C261 1.258 . S
C262 C263 1.477 . S
C262 H282 0.931 . S
C263 C259 1.460 . S
C263 C262 1.477 . S
C263 H283 0.930 . S
C264 N260 1.362 . S
C264 C261 1.431 . S
C264 C274 1.476 . S
H265 C259 0.929 . S
C266 O257 1.250 . S
C266 O258 1.258 . S
O267 Mn252 2.162 . S
O267 C255 1.281 . S
O268 Mn252 2.297 . S
O268 C255 1.236 . S
N269 Mn253 2.282 . S
N269 C270 1.328 . S
N269 C274 1.318 . S
C270 N269 1.328 . S
C270 C271 1.457 . S
C270 H275 0.929 . S
C271 C270 1.457 . S
C271 C272 1.291 . S
C271 H284 0.931 . S
C272 C271 1.291 . S
C272 C273 1.373 . S
C272 H285 0.929 . S
C273 C272 1.373 . S
C273 C274 1.396 . S
C273 C280 1.403 . S
C274 C264 1.476 . S
C274 N269 1.318 . S
C274 C273 1.396 . S
H275 C270 0.929 . S
O276 Mn252 2.385 . S
O276 C254 1.234 . S
O277 Mn252 2.209 . S
O277 Mn253 2.215 . S
O277 C254 1.283 . S
O278 Mn252 2.094 . S
O278 C256 1.240 . S
O279 Mn253 2.117 . S
O279 C256 1.264 . S
C280 C273 1.403 . S
C280 C281 1.399 . S
C280 H286 0.929 . S
C281 C261 1.449 . S
C281 C280 1.399 . S
C281 H287 0.930 . S
H282 C262 0.931 . S
H283 C263 0.930 . S
H284 C271 0.931 . S
H285 C272 0.929 . S
H286 C280 0.929 . S
H287 C281 0.930 . S
Mn288 O293 2.095 . S
Mn288 O303 2.162 . S
Mn288 O304 2.297 . S
Mn288 O312 2.385 . S
Mn288 O313 2.209 . S
Mn288 O314 2.094 . S
Mn289 O294 2.124 . S
Mn289 N296 2.267 . S
Mn289 N305 2.281 1_545 S
Mn289 O313 2.189 1_545 S
Mn289 O315 2.109 1_545 S
C290 O312 1.234 . S
C290 O313 1.283 . S
C291 O303 1.281 . S
C291 O304 1.236 . S
C292 O314 1.240 . S
C292 O315 1.264 . S
O293 Mn288 2.095 . S
O293 C302 1.250 . S
O294 Mn289 2.124 . S
O294 C302 1.258 1_545 S
C295 N296 1.326 . S
C295 C299 1.460 . S
C295 H301 0.929 . S
N296 Mn289 2.267 . S
N296 C295 1.326 . S
N296 C300 1.362 . S
C297 C298 1.258 . S
C297 C300 1.431 . S
C297 C317 1.449 . S
C298 C297 1.258 . S
C298 C299 1.477 . S
C298 H318 0.931 . S
C299 C295 1.460 . S
C299 C298 1.477 . S
C299 H319 0.930 . S
C300 N296 1.362 . S
C300 C297 1.431 . S
C300 C310 1.476 . S
H301 C295 0.929 . S
C302 O293 1.250 . S
C302 O294 1.258 1_565 S
O303 Mn288 2.162 . S
O303 C291 1.281 . S
O304 Mn288 2.297 . S
O304 C291 1.236 . S
N305 Mn289 2.281 1_565 S
N305 C306 1.328 . S
N305 C310 1.318 1_565 S
C306 N305 1.328 . S
C306 C307 1.457 . S
C306 H311 0.929 . S
C307 C306 1.457 . S
C307 C308 1.291 . S
C307 H320 0.931 . S
C308 C307 1.291 . S
C308 C309 1.373 1_565 S
C308 H321 0.929 . S
C309 C308 1.373 1_545 S
C309 C310 1.396 . S
C309 C316 1.403 . S
C310 C300 1.476 . S
C310 N305 1.318 1_545 S
C310 C309 1.396 . S
H311 C306 0.929 . S
O312 Mn288 2.385 . S
O312 C290 1.234 . S
O313 Mn288 2.209 . S
O313 Mn289 2.189 1_565 S
O313 C290 1.283 . S
O314 Mn288 2.094 . S
O314 C292 1.240 . S
O315 Mn289 2.109 1_565 S
O315 C292 1.264 . S
C316 C309 1.403 . S
C316 C317 1.399 . S
C316 H322 0.929 . S
C317 C297 1.449 . S
C317 C316 1.399 . S
C317 H323 0.930 . S
H318 C298 0.931 . S
H319 C299 0.930 . S
H320 C307 0.931 . S
H321 C308 0.929 . S
H322 C316 0.929 . S
H323 C317 0.930 . S
Mn324 O329 2.095 . S
Mn324 O339 2.162 . S
Mn324 O340 2.297 . S
Mn324 O348 2.385 . S
Mn324 O349 2.209 . S
Mn324 O350 2.094 . S
Mn325 O330 2.121 . S
Mn325 N332 2.257 . S
Mn325 N341 2.282 . S
Mn325 O349 2.215 . S
Mn325 O351 2.117 . S
C326 O348 1.234 . S
C326 O349 1.283 . S
C327 O339 1.281 . S
C327 O340 1.236 . S
C328 O350 1.240 . S
C328 O351 1.264 . S
O329 Mn324 2.095 . S
O329 C338 1.250 . S
O330 Mn325 2.121 . S
O330 C338 1.258 . S
C331 N332 1.326 . S
C331 C335 1.460 . S
C331 H337 0.929 . S
N332 Mn325 2.257 . S
N332 C331 1.326 . S
N332 C336 1.362 . S
C333 C334 1.258 . S
C333 C336 1.431 . S
C333 C353 1.449 . S
C334 C333 1.258 . S
C334 C335 1.477 . S
C334 H354 0.931 . S
C335 C331 1.460 . S
C335 C334 1.477 . S
C335 H355 0.930 . S
C336 N332 1.362 . S
C336 C333 1.431 . S
C336 C346 1.476 . S
H337 C331 0.929 . S
C338 O329 1.250 . S
C338 O330 1.258 . S
O339 Mn324 2.162 . S
O339 C327 1.281 . S
O340 Mn324 2.297 . S
O340 C327 1.236 . S
N341 Mn325 2.282 . S
N341 C342 1.328 . S
N341 C346 1.318 . S
C342 N341 1.328 . S
C342 C343 1.457 . S
C342 H347 0.929 . S
C343 C342 1.457 . S
C343 C344 1.291 . S
C343 H356 0.931 . S
C344 C343 1.291 . S
C344 C345 1.373 . S
C344 H357 0.929 . S
C345 C344 1.373 . S
C345 C346 1.396 . S
C345 C352 1.403 . S
C346 C336 1.476 . S
C346 N341 1.318 . S
C346 C345 1.396 . S
H347 C342 0.929 . S
O348 Mn324 2.385 . S
O348 C326 1.234 . S
O349 Mn324 2.209 . S
O349 Mn325 2.215 . S
O349 C326 1.283 . S
O350 Mn324 2.094 . S
O350 C328 1.240 . S
O351 Mn325 2.117 . S
O351 C328 1.264 . S
C352 C345 1.403 . S
C352 C353 1.399 . S
C352 H358 0.929 . S
C353 C333 1.449 . S
C353 C352 1.399 . S
C353 H359 0.930 . S
H354 C334 0.931 . S
H355 C335 0.930 . S
H356 C343 0.931 . S
H357 C344 0.929 . S
H358 C352 0.929 . S
H359 C353 0.930 . S
Mn360 O365 2.095 . S
Mn360 O375 2.162 . S
Mn360 O376 2.297 . S
Mn360 O384 2.385 . S
Mn360 O385 2.209 . S
Mn360 O386 2.094 . S
Mn361 O366 2.124 . S
Mn361 N368 2.267 . S
Mn361 N377 2.281 1_565 S
Mn361 O385 2.189 1_565 S
Mn361 O387 2.109 1_565 S
C362 O384 1.234 . S
C362 O385 1.283 . S
C363 O375 1.281 . S
C363 O376 1.236 . S
C364 O386 1.240 . S
C364 O387 1.264 . S
O365 Mn360 2.095 . S
O365 C374 1.250 . S
O366 Mn361 2.124 . S
O366 C374 1.258 1_565 S
C367 N368 1.326 . S
C367 C371 1.460 . S
C367 H373 0.929 . S
N368 Mn361 2.267 . S
N368 C367 1.326 . S
N368 C372 1.362 . S
C369 C370 1.258 1_455 S
C369 C372 1.431 1_455 S
C369 C389 1.449 . S
C370 C369 1.258 1_655 S
C370 C371 1.477 . S
C370 H390 0.931 1_655 S
C371 C367 1.460 . S
C371 C370 1.477 . S
C371 H391 0.930 . S
C372 N368 1.362 . S
C372 C369 1.431 1_655 S
C372 C382 1.476 . S
H373 C367 0.929 . S
C374 O365 1.250 . S
C374 O366 1.258 1_545 S
O375 Mn360 2.162 . S
O375 C363 1.281 . S
O376 Mn360 2.297 . S
O376 C363 1.236 . S
N377 Mn361 2.281 1_545 S
N377 C378 1.328 . S
N377 C382 1.318 1_545 S
C378 N377 1.328 . S
C378 C379 1.457 1_655 S
C378 H383 0.929 . S
C379 C378 1.457 1_455 S
C379 C380 1.291 . S
C379 H392 0.931 . S
C380 C379 1.291 . S
C380 C381 1.373 1_545 S
C380 H393 0.929 . S
C381 C380 1.373 1_565 S
C381 C382 1.396 1_455 S
C381 C388 1.403 . S
C382 C372 1.476 . S
C382 N377 1.318 1_565 S
C382 C381 1.396 1_655 S
H383 C378 0.929 . S
O384 Mn360 2.385 . S
O384 C362 1.234 . S
O385 Mn360 2.209 . S
O385 Mn361 2.189 1_545 S
O385 C362 1.283 . S
O386 Mn360 2.094 . S
O386 C364 1.240 . S
O387 Mn361 2.109 1_545 S
O387 C364 1.264 . S
C388 C381 1.403 . S
C388 C389 1.399 . S
C388 H394 0.929 . S
C389 C369 1.449 . S
C389 C388 1.399 . S
C389 H395 0.930 . S
H390 C370 0.931 1_455 S
H391 C371 0.930 . S
H392 C379 0.931 . S
H393 C380 0.929 . S
H394 C388 0.929 . S
H395 C389 0.930 . S
Mn396 O401 2.095 . S
Mn396 O411 2.162 . S
Mn396 O412 2.297 . S
Mn396 O420 2.385 . S
Mn396 O421 2.209 . S
Mn396 O422 2.094 . S
Mn397 O402 2.121 . S
Mn397 N404 2.257 . S
Mn397 N413 2.282 . S
Mn397 O421 2.215 . S
Mn397 O423 2.117 . S
C398 O420 1.234 . S
C398 O421 1.283 . S
C399 O411 1.281 . S
C399 O412 1.236 . S
C400 O422 1.240 . S
C400 O423 1.264 . S
O401 Mn396 2.095 . S
O401 C410 1.250 . S
O402 Mn397 2.121 . S
O402 C410 1.258 . S
C403 N404 1.326 . S
C403 C407 1.460 . S
C403 H409 0.929 . S
N404 Mn397 2.257 . S
N404 C403 1.326 . S
N404 C408 1.362 . S
C405 C406 1.258 . S
C405 C408 1.431 . S
C405 C425 1.449 . S
C406 C405 1.258 . S
C406 C407 1.477 . S
C406 H426 0.931 . S
C407 C403 1.460 . S
C407 C406 1.477 . S
C407 H427 0.930 . S
C408 N404 1.362 . S
C408 C405 1.431 . S
C408 C418 1.476 . S
H409 C403 0.929 . S
C410 O401 1.250 . S
C410 O402 1.258 . S
O411 Mn396 2.162 . S
O411 C399 1.281 . S
O412 Mn396 2.297 . S
O412 C399 1.236 . S
N413 Mn397 2.282 . S
N413 C414 1.328 . S
N413 C418 1.318 . S
C414 N413 1.328 . S
C414 C415 1.457 . S
C414 H419 0.929 . S
C415 C414 1.457 . S
C415 C416 1.291 . S
C415 H428 0.931 . S
C416 C415 1.291 . S
C416 C417 1.373 . S
C416 H429 0.929 . S
C417 C416 1.373 . S
C417 C418 1.396 . S
C417 C424 1.403 . S
C418 C408 1.476 . S
C418 N413 1.318 . S
C418 C417 1.396 . S
H419 C414 0.929 . S
O420 Mn396 2.385 . S
O420 C398 1.234 . S
O421 Mn396 2.209 . S
O421 Mn397 2.215 . S
O421 C398 1.283 . S
O422 Mn396 2.094 . S
O422 C400 1.240 . S
O423 Mn397 2.117 . S
O423 C400 1.264 . S
C424 C417 1.403 . S
C424 C425 1.399 . S
C424 H430 0.929 . S
C425 C405 1.449 . S
C425 C424 1.399 . S
C425 H431 0.930 . S
H426 C406 0.931 . S
H427 C407 0.930 . S
H428 C415 0.931 . S
H429 C416 0.929 . S
H430 C424 0.929 . S
H431 C425 0.930 . S
Mn432 O437 2.095 . S
Mn432 O447 2.162 . S
Mn432 O448 2.297 . S
Mn432 O456 2.385 . S
Mn432 O457 2.209 . S
Mn432 O458 2.094 . S
Mn433 O438 2.124 . S
Mn433 N440 2.267 . S
Mn433 N449 2.281 1_565 S
Mn433 O457 2.189 1_565 S
Mn433 O459 2.109 1_565 S
C434 O456 1.234 . S
C434 O457 1.283 . S
C435 O447 1.281 . S
C435 O448 1.236 . S
C436 O458 1.240 . S
C436 O459 1.264 . S
O437 Mn432 2.095 . S
O437 C446 1.250 . S
O438 Mn433 2.124 . S
O438 C446 1.258 1_565 S
C439 N440 1.326 . S
C439 C443 1.460 . S
C439 H445 0.929 . S
N440 Mn433 2.267 . S
N440 C439 1.326 . S
N440 C444 1.362 . S
C441 C442 1.258 . S
C441 C444 1.431 . S
C441 C461 1.449 . S
C442 C441 1.258 . S
C442 C443 1.477 . S
C442 H462 0.931 . S
C443 C439 1.460 . S
C443 C442 1.477 . S
C443 H463 0.930 . S
C444 N440 1.362 . S
C444 C441 1.431 . S
C444 C454 1.476 . S
H445 C439 0.929 . S
C446 O437 1.250 . S
C446 O438 1.258 1_545 S
O447 Mn432 2.162 . S
O447 C435 1.281 . S
O448 Mn432 2.297 . S
O448 C435 1.236 . S
N449 Mn433 2.281 1_545 S
N449 C450 1.328 . S
N449 C454 1.318 1_545 S
C450 N449 1.328 . S
C450 C451 1.457 . S
C450 H455 0.929 . S
C451 C450 1.457 . S
C451 C452 1.291 . S
C451 H464 0.931 . S
C452 C451 1.291 . S
C452 C453 1.373 1_545 S
C452 H465 0.929 . S
C453 C452 1.373 1_565 S
C453 C454 1.396 . S
C453 C460 1.403 . S
C454 C444 1.476 . S
C454 N449 1.318 1_565 S
C454 C453 1.396 . S
H455 C450 0.929 . S
O456 Mn432 2.385 . S
O456 C434 1.234 . S
O457 Mn432 2.209 . S
O457 Mn433 2.189 1_545 S
O457 C434 1.283 . S
O458 Mn432 2.094 . S
O458 C436 1.240 . S
O459 Mn433 2.109 1_545 S
O459 C436 1.264 . S
C460 C453 1.403 . S
C460 C461 1.399 . S
C460 H466 0.929 . S
C461 C441 1.449 . S
C461 C460 1.399 . S
C461 H467 0.930 . S
H462 C442 0.931 . S
H463 C443 0.930 . S
H464 C451 0.931 . S
H465 C452 0.929 . S
H466 C460 0.929 . S
H467 C461 0.930 . S
Mn468 O473 2.095 . S
Mn468 O483 2.162 . S
Mn468 O484 2.297 . S
Mn468 O492 2.385 . S
Mn468 O493 2.209 . S
Mn468 O494 2.094 . S
Mn469 O474 2.121 . S
Mn469 N476 2.257 . S
Mn469 N485 2.282 . S
Mn469 O493 2.215 . S
Mn469 O495 2.117 . S
C470 O492 1.234 . S
C470 O493 1.283 . S
C471 O483 1.281 . S
C471 O484 1.236 . S
C472 O494 1.240 . S
C472 O495 1.264 . S
O473 Mn468 2.095 . S
O473 C482 1.250 . S
O474 Mn469 2.121 . S
O474 C482 1.258 . S
C475 N476 1.326 . S
C475 C479 1.460 . S
C475 H481 0.929 . S
N476 Mn469 2.257 . S
N476 C475 1.326 . S
N476 C480 1.362 . S
C477 C478 1.258 . S
C477 C480 1.431 . S
C477 C497 1.449 . S
C478 C477 1.258 . S
C478 C479 1.477 . S
C478 H498 0.931 . S
C479 C475 1.460 . S
C479 C478 1.477 . S
C479 H499 0.930 . S
C480 N476 1.362 . S
C480 C477 1.431 . S
C480 C490 1.476 . S
H481 C475 0.929 . S
C482 O473 1.250 . S
C482 O474 1.258 . S
O483 Mn468 2.162 . S
O483 C471 1.281 . S
O484 Mn468 2.297 . S
O484 C471 1.236 . S
N485 Mn469 2.282 . S
N485 C486 1.328 . S
N485 C490 1.318 . S
C486 N485 1.328 . S
C486 C487 1.457 . S
C486 H491 0.929 . S
C487 C486 1.457 . S
C487 C488 1.291 . S
C487 H500 0.931 . S
C488 C487 1.291 . S
C488 C489 1.373 . S
C488 H501 0.929 . S
C489 C488 1.373 . S
C489 C490 1.396 . S
C489 C496 1.403 . S
C490 C480 1.476 . S
C490 N485 1.318 . S
C490 C489 1.396 . S
H491 C486 0.929 . S
O492 Mn468 2.385 . S
O492 C470 1.234 . S
O493 Mn468 2.209 . S
O493 Mn469 2.215 . S
O493 C470 1.283 . S
O494 Mn468 2.094 . S
O494 C472 1.240 . S
O495 Mn469 2.117 . S
O495 C472 1.264 . S
C496 C489 1.403 . S
C496 C497 1.399 . S
C496 H502 0.929 . S
C497 C477 1.449 . S
C497 C496 1.399 . S
C497 H503 0.930 . S
H498 C478 0.931 . S
H499 C479 0.930 . S
H500 C487 0.931 . S
H501 C488 0.929 . S
H502 C496 0.929 . S
H503 C497 0.930 . S
Mn504 O509 2.095 . S
Mn504 O519 2.162 . S
Mn504 O520 2.297 . S
Mn504 O528 2.385 . S
Mn504 O529 2.209 . S
Mn504 O530 2.094 . S
Mn505 O510 2.124 . S
Mn505 N512 2.267 . S
Mn505 N521 2.281 1_545 S
Mn505 O529 2.189 1_545 S
Mn505 O531 2.109 1_545 S
C506 O528 1.234 . S
C506 O529 1.283 . S
C507 O519 1.281 . S
C507 O520 1.236 . S
C508 O530 1.240 . S
C508 O531 1.264 . S
O509 Mn504 2.095 . S
O509 C518 1.250 . S
O510 Mn505 2.124 . S
O510 C518 1.258 1_545 S
C511 N512 1.326 . S
C511 C515 1.460 . S
C511 H517 0.929 . S
N512 Mn505 2.267 . S
N512 C511 1.326 . S
N512 C516 1.362 . S
C513 C514 1.258 1_455 S
C513 C516 1.431 1_455 S
C513 C533 1.449 . S
C514 C513 1.258 1_655 S
C514 C515 1.477 . S
C514 H534 0.931 1_655 S
C515 C511 1.460 . S
C515 C514 1.477 . S
C515 H535 0.930 . S
C516 N512 1.362 . S
C516 C513 1.431 1_655 S
C516 C526 1.476 . S
H517 C511 0.929 . S
C518 O509 1.250 . S
C518 O510 1.258 1_565 S
O519 Mn504 2.162 . S
O519 C507 1.281 . S
O520 Mn504 2.297 . S
O520 C507 1.236 . S
N521 Mn505 2.281 1_565 S
N521 C522 1.328 . S
N521 C526 1.318 1_565 S
C522 N521 1.328 . S
C522 C523 1.457 1_655 S
C522 H527 0.929 . S
C523 C522 1.457 1_455 S
C523 C524 1.291 . S
C523 H536 0.931 . S
C524 C523 1.291 . S
C524 C525 1.373 1_565 S
C524 H537 0.929 . S
C525 C524 1.373 1_545 S
C525 C526 1.396 1_455 S
C525 C532 1.403 . S
C526 C516 1.476 . S
C526 N521 1.318 1_545 S
C526 C525 1.396 1_655 S
H527 C522 0.929 . S
O528 Mn504 2.385 . S
O528 C506 1.234 . S
O529 Mn504 2.209 . S
O529 Mn505 2.189 1_565 S
O529 C506 1.283 . S
O530 Mn504 2.094 . S
O530 C508 1.240 . S
O531 Mn505 2.109 1_565 S
O531 C508 1.264 . S
C532 C525 1.403 . S
C532 C533 1.399 . S
C532 H538 0.929 . S
C533 C513 1.449 . S
C533 C532 1.399 . S
C533 H539 0.930 . S
H534 C514 0.931 1_455 S
H535 C515 0.930 . S
H536 C523 0.931 . S
H537 C524 0.929 . S
H538 C532 0.929 . S
H539 C533 0.930 . S
Mn540 O545 2.095 . S
Mn540 O555 2.162 . S
Mn540 O556 2.297 . S
Mn540 O564 2.385 . S
Mn540 O565 2.209 . S
Mn540 O566 2.094 . S
Mn541 O546 2.121 . S
Mn541 N548 2.257 . S
Mn541 N557 2.282 . S
Mn541 O565 2.215 . S
Mn541 O567 2.117 . S
C542 O564 1.234 . S
C542 O565 1.283 . S
C543 O555 1.281 . S
C543 O556 1.236 . S
C544 O566 1.240 . S
C544 O567 1.264 . S
O545 Mn540 2.095 . S
O545 C554 1.250 . S
O546 Mn541 2.121 . S
O546 C554 1.258 . S
C547 N548 1.326 . S
C547 C551 1.460 . S
C547 H553 0.929 . S
N548 Mn541 2.257 . S
N548 C547 1.326 . S
N548 C552 1.362 . S
C549 C550 1.258 . S
C549 C552 1.431 . S
C549 C569 1.449 . S
C550 C549 1.258 . S
C550 C551 1.477 . S
C550 H570 0.931 . S
C551 C547 1.460 . S
C551 C550 1.477 . S
C551 H571 0.930 . S
C552 N548 1.362 . S
C552 C549 1.431 . S
C552 C562 1.476 . S
H553 C547 0.929 . S
C554 O545 1.250 . S
C554 O546 1.258 . S
O555 Mn540 2.162 . S
O555 C543 1.281 . S
O556 Mn540 2.297 . S
O556 C543 1.236 . S
N557 Mn541 2.282 . S
N557 C558 1.328 . S
N557 C562 1.318 . S
C558 N557 1.328 . S
C558 C559 1.457 . S
C558 H563 0.929 . S
C559 C558 1.457 . S
C559 C560 1.291 . S
C559 H572 0.931 . S
C560 C559 1.291 . S
C560 C561 1.373 . S
C560 H573 0.929 . S
C561 C560 1.373 . S
C561 C562 1.396 . S
C561 C568 1.403 . S
C562 C552 1.476 . S
C562 N557 1.318 . S
C562 C561 1.396 . S
H563 C558 0.929 . S
O564 Mn540 2.385 . S
O564 C542 1.234 . S
O565 Mn540 2.209 . S
O565 Mn541 2.215 . S
O565 C542 1.283 . S
O566 Mn540 2.094 . S
O566 C544 1.240 . S
O567 Mn541 2.117 . S
O567 C544 1.264 . S
C568 C561 1.403 . S
C568 C569 1.399 . S
C568 H574 0.929 . S
C569 C549 1.449 . S
C569 C568 1.399 . S
C569 H575 0.930 . S
H570 C550 0.931 . S
H571 C551 0.930 . S
H572 C559 0.931 . S
H573 C560 0.929 . S
H574 C568 0.929 . S
H575 C569 0.930 . S
Mn576 O581 2.095 . S
Mn576 O591 2.162 . S
Mn576 O592 2.297 . S
Mn576 O600 2.385 . S
Mn576 O601 2.209 . S
Mn576 O602 2.094 . S
Mn577 O582 2.121 . S
Mn577 N584 2.257 . S
Mn577 N593 2.282 . S
Mn577 O601 2.215 . S
Mn577 O603 2.117 . S
C578 O600 1.234 . S
C578 O601 1.283 . S
C579 O591 1.281 . S
C579 O592 1.236 . S
C580 O602 1.240 . S
C580 O603 1.264 . S
O581 Mn576 2.095 . S
O581 C590 1.250 . S
O582 Mn577 2.121 . S
O582 C590 1.258 . S
C583 N584 1.326 . S
C583 C587 1.460 . S
C583 H589 0.929 . S
N584 Mn577 2.257 . S
N584 C583 1.326 . S
N584 C588 1.362 . S
C585 C586 1.258 1_455 S
C585 C588 1.431 1_455 S
C585 C605 1.449 . S
C586 C585 1.258 1_655 S
C586 C587 1.477 . S
C586 H606 0.931 1_655 S
C587 C583 1.460 . S
C587 C586 1.477 . S
C587 H607 0.930 . S
C588 N584 1.362 . S
C588 C585 1.431 1_655 S
C588 C598 1.476 . S
H589 C583 0.929 . S
C590 O581 1.250 . S
C590 O582 1.258 . S
O591 Mn576 2.162 . S
O591 C579 1.281 . S
O592 Mn576 2.297 . S
O592 C579 1.236 . S
N593 Mn577 2.282 . S
N593 C594 1.328 . S
N593 C598 1.318 . S
C594 N593 1.328 . S
C594 C595 1.457 1_655 S
C594 H599 0.929 . S
C595 C594 1.457 1_455 S
C595 C596 1.291 . S
C595 H608 0.931 . S
C596 C595 1.291 . S
C596 C597 1.373 . S
C596 H609 0.929 . S
C597 C596 1.373 . S
C597 C598 1.396 1_455 S
C597 C604 1.403 . S
C598 C588 1.476 . S
C598 N593 1.318 . S
C598 C597 1.396 1_655 S
H599 C594 0.929 . S
O600 Mn576 2.385 . S
O600 C578 1.234 . S
O601 Mn576 2.209 . S
O601 Mn577 2.215 . S
O601 C578 1.283 . S
O602 Mn576 2.094 . S
O602 C580 1.240 . S
O603 Mn577 2.117 . S
O603 C580 1.264 . S
C604 C597 1.403 . S
C604 C605 1.399 . S
C604 H610 0.929 . S
C605 C585 1.449 . S
C605 C604 1.399 . S
C605 H611 0.930 . S
H606 C586 0.931 1_455 S
H607 C587 0.930 . S
H608 C595 0.931 . S
H609 C596 0.929 . S
H610 C604 0.929 . S
H611 C605 0.930 . S
Mn612 O617 2.095 . S
Mn612 O627 2.162 . S
Mn612 O628 2.297 . S
Mn612 O636 2.385 . S
Mn612 O637 2.209 . S
Mn612 O638 2.094 . S
Mn613 O618 2.121 . S
Mn613 N620 2.257 . S
Mn613 N629 2.282 . S
Mn613 O637 2.215 . S
Mn613 O639 2.117 . S
C614 O636 1.234 . S
C614 O637 1.283 . S
C615 O627 1.281 . S
C615 O628 1.236 . S
C616 O638 1.240 . S
C616 O639 1.264 . S
O617 Mn612 2.095 . S
O617 C626 1.250 . S
O618 Mn613 2.121 . S
O618 C626 1.258 . S
C619 N620 1.326 . S
C619 C623 1.460 . S
C619 H625 0.929 . S
N620 Mn613 2.257 . S
N620 C619 1.326 . S
N620 C624 1.362 . S
C621 C622 1.258 . S
C621 C624 1.431 . S
C621 C641 1.449 . S
C622 C621 1.258 . S
C622 C623 1.477 . S
C622 H642 0.931 . S
C623 C619 1.460 . S
C623 C622 1.477 . S
C623 H643 0.930 . S
C624 N620 1.362 . S
C624 C621 1.431 . S
C624 C634 1.476 . S
H625 C619 0.929 . S
C626 O617 1.250 . S
C626 O618 1.258 . S
O627 Mn612 2.162 . S
O627 C615 1.281 . S
O628 Mn612 2.297 . S
O628 C615 1.236 . S
N629 Mn613 2.282 . S
N629 C630 1.328 . S
N629 C634 1.318 . S
C630 N629 1.328 . S
C630 C631 1.457 . S
C630 H635 0.929 . S
C631 C630 1.457 . S
C631 C632 1.291 . S
C631 H644 0.931 . S
C632 C631 1.291 . S
C632 C633 1.373 . S
C632 H645 0.929 . S
C633 C632 1.373 . S
C633 C634 1.396 . S
C633 C640 1.403 . S
C634 C624 1.476 . S
C634 N629 1.318 . S
C634 C633 1.396 . S
H635 C630 0.929 . S
O636 Mn612 2.385 . S
O636 C614 1.234 . S
O637 Mn612 2.209 . S
O637 Mn613 2.215 . S
O637 C614 1.283 . S
O638 Mn612 2.094 . S
O638 C616 1.240 . S
O639 Mn613 2.117 . S
O639 C616 1.264 . S
C640 C633 1.403 . S
C640 C641 1.399 . S
C640 H646 0.929 . S
C641 C621 1.449 . S
C641 C640 1.399 . S
C641 H647 0.930 . S
H642 C622 0.931 . S
H643 C623 0.930 . S
H644 C631 0.931 . S
H645 C632 0.929 . S
H646 C640 0.929 . S
H647 C641 0.930 . S
Mn648 O653 2.095 . S
Mn648 O663 2.162 . S
Mn648 O664 2.297 . S
Mn648 O672 2.385 . S
Mn648 O673 2.209 . S
Mn648 O674 2.094 . S
Mn649 O654 2.121 . S
Mn649 N656 2.257 . S
Mn649 N665 2.282 . S
Mn649 O673 2.215 . S
Mn649 O675 2.117 . S
C650 O672 1.234 . S
C650 O673 1.283 . S
C651 O663 1.281 . S
C651 O664 1.236 . S
C652 O674 1.240 . S
C652 O675 1.264 . S
O653 Mn648 2.095 . S
O653 C662 1.250 . S
O654 Mn649 2.121 . S
O654 C662 1.258 . S
C655 N656 1.326 . S
C655 C659 1.460 . S
C655 H661 0.929 . S
N656 Mn649 2.257 . S
N656 C655 1.326 . S
N656 C660 1.362 . S
C657 C658 1.258 . S
C657 C660 1.431 . S
C657 C677 1.449 . S
C658 C657 1.258 . S
C658 C659 1.477 . S
C658 H678 0.931 . S
C659 C655 1.460 . S
C659 C658 1.477 . S
C659 H679 0.930 . S
C660 N656 1.362 . S
C660 C657 1.431 . S
C660 C670 1.476 . S
H661 C655 0.929 . S
C662 O653 1.250 . S
C662 O654 1.258 . S
O663 Mn648 2.162 . S
O663 C651 1.281 . S
O664 Mn648 2.297 . S
O664 C651 1.236 . S
N665 Mn649 2.282 . S
N665 C666 1.328 . S
N665 C670 1.318 . S
C666 N665 1.328 . S
C666 C667 1.457 . S
C666 H671 0.929 . S
C667 C666 1.457 . S
C667 C668 1.291 . S
C667 H680 0.931 . S
C668 C667 1.291 . S
C668 C669 1.373 . S
C668 H681 0.929 . S
C669 C668 1.373 . S
C669 C670 1.396 . S
C669 C676 1.403 . S
C670 C660 1.476 . S
C670 N665 1.318 . S
C670 C669 1.396 . S
H671 C666 0.929 . S
O672 Mn648 2.385 . S
O672 C650 1.234 . S
O673 Mn648 2.209 . S
O673 Mn649 2.215 . S
O673 C650 1.283 . S
O674 Mn648 2.094 . S
O674 C652 1.240 . S
O675 Mn649 2.117 . S
O675 C652 1.264 . S
C676 C669 1.403 . S
C676 C677 1.399 . S
C676 H682 0.929 . S
C677 C657 1.449 . S
C677 C676 1.399 . S
C677 H683 0.930 . S
H678 C658 0.931 . S
H679 C659 0.930 . S
H680 C667 0.931 . S
H681 C668 0.929 . S
H682 C676 0.929 . S
H683 C677 0.930 . S
Mn684 O689 2.095 . S
Mn684 O699 2.162 . S
Mn684 O700 2.297 . S
Mn684 O708 2.385 . S
Mn684 O709 2.209 . S
Mn684 O710 2.094 . S
Mn685 O690 2.121 . S
Mn685 N692 2.257 . S
Mn685 N701 2.282 . S
Mn685 O709 2.215 . S
Mn685 O711 2.117 . S
C686 O708 1.234 . S
C686 O709 1.283 . S
C687 O699 1.281 . S
C687 O700 1.236 . S
C688 O710 1.240 . S
C688 O711 1.264 . S
O689 Mn684 2.095 . S
O689 C698 1.250 . S
O690 Mn685 2.121 . S
O690 C698 1.258 . S
C691 N692 1.326 . S
C691 C695 1.460 . S
C691 H697 0.929 . S
N692 Mn685 2.257 . S
N692 C691 1.326 . S
N692 C696 1.362 . S
C693 C694 1.258 . S
C693 C696 1.431 . S
C693 C713 1.449 . S
C694 C693 1.258 . S
C694 C695 1.477 . S
C694 H714 0.931 . S
C695 C691 1.460 . S
C695 C694 1.477 . S
C695 H715 0.930 . S
C696 N692 1.362 . S
C696 C693 1.431 . S
C696 C706 1.476 . S
H697 C691 0.929 . S
C698 O689 1.250 . S
C698 O690 1.258 . S
O699 Mn684 2.162 . S
O699 C687 1.281 . S
O700 Mn684 2.297 . S
O700 C687 1.236 . S
N701 Mn685 2.282 . S
N701 C702 1.328 . S
N701 C706 1.318 . S
C702 N701 1.328 . S
C702 C703 1.457 . S
C702 H707 0.929 . S
C703 C702 1.457 . S
C703 C704 1.291 . S
C703 H716 0.931 . S
C704 C703 1.291 . S
C704 C705 1.373 . S
C704 H717 0.929 . S
C705 C704 1.373 . S
C705 C706 1.396 . S
C705 C712 1.403 . S
C706 C696 1.476 . S
C706 N701 1.318 . S
C706 C705 1.396 . S
H707 C702 0.929 . S
O708 Mn684 2.385 . S
O708 C686 1.234 . S
O709 Mn684 2.209 . S
O709 Mn685 2.215 . S
O709 C686 1.283 . S
O710 Mn684 2.094 . S
O710 C688 1.240 . S
O711 Mn685 2.117 . S
O711 C688 1.264 . S
C712 C705 1.403 . S
C712 C713 1.399 . S
C712 H718 0.929 . S
C713 C693 1.449 . S
C713 C712 1.399 . S
C713 H719 0.930 . S
H714 C694 0.931 . S
H715 C695 0.930 . S
H716 C703 0.931 . S
H717 C704 0.929 . S
H718 C712 0.929 . S
H719 C713 0.930 . S
Mn720 O725 2.095 . S
Mn720 O735 2.162 . S
Mn720 O736 2.297 . S
Mn720 O744 2.385 . S
Mn720 O745 2.209 . S
Mn720 O746 2.094 . S
Mn721 O726 2.121 . S
Mn721 N728 2.257 . S
Mn721 N737 2.282 . S
Mn721 O745 2.215 . S
Mn721 O747 2.117 . S
C722 O744 1.234 . S
C722 O745 1.283 . S
C723 O735 1.281 . S
C723 O736 1.236 . S
C724 O746 1.240 . S
C724 O747 1.264 . S
O725 Mn720 2.095 . S
O725 C734 1.250 . S
O726 Mn721 2.121 . S
O726 C734 1.258 . S
C727 N728 1.326 . S
C727 C731 1.460 . S
C727 H733 0.929 . S
N728 Mn721 2.257 . S
N728 C727 1.326 . S
N728 C732 1.362 . S
C729 C730 1.258 1_455 S
C729 C732 1.431 1_455 S
C729 C749 1.449 . S
C730 C729 1.258 1_655 S
C730 C731 1.477 . S
C730 H750 0.931 1_655 S
C731 C727 1.460 . S
C731 C730 1.477 . S
C731 H751 0.930 . S
C732 N728 1.362 . S
C732 C729 1.431 1_655 S
C732 C742 1.476 . S
H733 C727 0.929 . S
C734 O725 1.250 . S
C734 O726 1.258 . S
O735 Mn720 2.162 . S
O735 C723 1.281 . S
O736 Mn720 2.297 . S
O736 C723 1.236 . S
N737 Mn721 2.282 . S
N737 C738 1.328 . S
N737 C742 1.318 . S
C738 N737 1.328 . S
C738 C739 1.457 1_655 S
C738 H743 0.929 . S
C739 C738 1.457 1_455 S
C739 C740 1.291 . S
C739 H752 0.931 . S
C740 C739 1.291 . S
C740 C741 1.373 . S
C740 H753 0.929 . S
C741 C740 1.373 . S
C741 C742 1.396 1_455 S
C741 C748 1.403 . S
C742 C732 1.476 . S
C742 N737 1.318 . S
C742 C741 1.396 1_655 S
H743 C738 0.929 . S
O744 Mn720 2.385 . S
O744 C722 1.234 . S
O745 Mn720 2.209 . S
O745 Mn721 2.215 . S
O745 C722 1.283 . S
O746 Mn720 2.094 . S
O746 C724 1.240 . S
O747 Mn721 2.117 . S
O747 C724 1.264 . S
C748 C741 1.403 . S
C748 C749 1.399 . S
C748 H754 0.929 . S
C749 C729 1.449 . S
C749 C748 1.399 . S
C749 H755 0.930 . S
H750 C730 0.931 1_455 S
H751 C731 0.930 . S
H752 C739 0.931 . S
H753 C740 0.929 . S
H754 C748 0.929 . S
H755 C749 0.930 . S
Mn756 O761 2.095 . S
Mn756 O771 2.162 . S
Mn756 O772 2.297 . S
Mn756 O780 2.385 . S
Mn756 O781 2.209 . S
Mn756 O782 2.094 . S
Mn757 O762 2.121 . S
Mn757 N764 2.257 . S
Mn757 N773 2.282 . S
Mn757 O781 2.215 . S
Mn757 O783 2.117 . S
C758 O780 1.234 . S
C758 O781 1.283 . S
C759 O771 1.281 . S
C759 O772 1.236 . S
C760 O782 1.240 . S
C760 O783 1.264 . S
O761 Mn756 2.095 . S
O761 C770 1.250 . S
O762 Mn757 2.121 . S
O762 C770 1.258 . S
C763 N764 1.326 . S
C763 C767 1.460 . S
C763 H769 0.929 . S
N764 Mn757 2.257 . S
N764 C763 1.326 . S
N764 C768 1.362 . S
C765 C766 1.258 . S
C765 C768 1.431 . S
C765 C785 1.449 . S
C766 C765 1.258 . S
C766 C767 1.477 . S
C766 H786 0.931 . S
C767 C763 1.460 . S
C767 C766 1.477 . S
C767 H787 0.930 . S
C768 N764 1.362 . S
C768 C765 1.431 . S
C768 C778 1.476 . S
H769 C763 0.929 . S
C770 O761 1.250 . S
C770 O762 1.258 . S
O771 Mn756 2.162 . S
O771 C759 1.281 . S
O772 Mn756 2.297 . S
O772 C759 1.236 . S
N773 Mn757 2.282 . S
N773 C774 1.328 . S
N773 C778 1.318 . S
C774 N773 1.328 . S
C774 C775 1.457 . S
C774 H779 0.929 . S
C775 C774 1.457 . S
C775 C776 1.291 . S
C775 H788 0.931 . S
C776 C775 1.291 . S
C776 C777 1.373 . S
C776 H789 0.929 . S
C777 C776 1.373 . S
C777 C778 1.396 . S
C777 C784 1.403 . S
C778 C768 1.476 . S
C778 N773 1.318 . S
C778 C777 1.396 . S
H779 C774 0.929 . S
O780 Mn756 2.385 . S
O780 C758 1.234 . S
O781 Mn756 2.209 . S
O781 Mn757 2.215 . S
O781 C758 1.283 . S
O782 Mn756 2.094 . S
O782 C760 1.240 . S
O783 Mn757 2.117 . S
O783 C760 1.264 . S
C784 C777 1.403 . S
C784 C785 1.399 . S
C784 H790 0.929 . S
C785 C765 1.449 . S
C785 C784 1.399 . S
C785 H791 0.930 . S
H786 C766 0.931 . S
H787 C767 0.930 . S
H788 C775 0.931 . S
H789 C776 0.929 . S
H790 C784 0.929 . S
H791 C785 0.930 . S
Mn792 O797 2.095 . S
Mn792 O807 2.162 . S
Mn792 O808 2.297 . S
Mn792 O816 2.385 . S
Mn792 O817 2.209 . S
Mn792 O818 2.094 . S
Mn793 O798 2.121 . S
Mn793 N800 2.257 . S
Mn793 N809 2.282 . S
Mn793 O817 2.215 . S
Mn793 O819 2.117 . S
C794 O816 1.234 . S
C794 O817 1.283 . S
C795 O807 1.281 . S
C795 O808 1.236 . S
C796 O818 1.240 . S
C796 O819 1.264 . S
O797 Mn792 2.095 . S
O797 C806 1.250 . S
O798 Mn793 2.121 . S
O798 C806 1.258 . S
C799 N800 1.326 . S
C799 C803 1.460 . S
C799 H805 0.929 . S
N800 Mn793 2.257 . S
N800 C799 1.326 . S
N800 C804 1.362 . S
C801 C802 1.258 . S
C801 C804 1.431 . S
C801 C821 1.449 . S
C802 C801 1.258 . S
C802 C803 1.477 . S
C802 H822 0.931 . S
C803 C799 1.460 . S
C803 C802 1.477 . S
C803 H823 0.930 . S
C804 N800 1.362 . S
C804 C801 1.431 . S
C804 C814 1.476 . S
H805 C799 0.929 . S
C806 O797 1.250 . S
C806 O798 1.258 . S
O807 Mn792 2.162 . S
O807 C795 1.281 . S
O808 Mn792 2.297 . S
O808 C795 1.236 . S
N809 Mn793 2.282 . S
N809 C810 1.328 . S
N809 C814 1.318 . S
C810 N809 1.328 . S
C810 C811 1.457 . S
C810 H815 0.929 . S
C811 C810 1.457 . S
C811 C812 1.291 . S
C811 H824 0.931 . S
C812 C811 1.291 . S
C812 C813 1.373 . S
C812 H825 0.929 . S
C813 C812 1.373 . S
C813 C814 1.396 . S
C813 C820 1.403 . S
C814 C804 1.476 . S
C814 N809 1.318 . S
C814 C813 1.396 . S
H815 C810 0.929 . S
O816 Mn792 2.385 . S
O816 C794 1.234 . S
O817 Mn792 2.209 . S
O817 Mn793 2.215 . S
O817 C794 1.283 . S
O818 Mn792 2.094 . S
O818 C796 1.240 . S
O819 Mn793 2.117 . S
O819 C796 1.264 . S
C820 C813 1.403 . S
C820 C821 1.399 . S
C820 H826 0.929 . S
C821 C801 1.449 . S
C821 C820 1.399 . S
C821 H827 0.930 . S
H822 C802 0.931 . S
H823 C803 0.930 . S
H824 C811 0.931 . S
H825 C812 0.929 . S
H826 C820 0.929 . S
H827 C821 0.930 . S
Mn828 O833 2.095 . S
Mn828 O843 2.162 . S
Mn828 O844 2.297 . S
Mn828 O852 2.385 . S
Mn828 O853 2.209 . S
Mn828 O854 2.094 . S
Mn829 O834 2.121 . S
Mn829 N836 2.257 . S
Mn829 N845 2.282 . S
Mn829 O853 2.215 . S
Mn829 O855 2.117 . S
C830 O852 1.234 . S
C830 O853 1.283 . S
C831 O843 1.281 . S
C831 O844 1.236 . S
C832 O854 1.240 . S
C832 O855 1.264 . S
O833 Mn828 2.095 . S
O833 C842 1.250 . S
O834 Mn829 2.121 . S
O834 C842 1.258 . S
C835 N836 1.326 . S
C835 C839 1.460 . S
C835 H841 0.929 . S
N836 Mn829 2.257 . S
N836 C835 1.326 . S
N836 C840 1.362 . S
C837 C838 1.258 . S
C837 C840 1.431 . S
C837 C857 1.449 . S
C838 C837 1.258 . S
C838 C839 1.477 . S
C838 H858 0.931 . S
C839 C835 1.460 . S
C839 C838 1.477 . S
C839 H859 0.930 . S
C840 N836 1.362 . S
C840 C837 1.431 . S
C840 C850 1.476 . S
H841 C835 0.929 . S
C842 O833 1.250 . S
C842 O834 1.258 . S
O843 Mn828 2.162 . S
O843 C831 1.281 . S
O844 Mn828 2.297 . S
O844 C831 1.236 . S
N845 Mn829 2.282 . S
N845 C846 1.328 . S
N845 C850 1.318 . S
C846 N845 1.328 . S
C846 C847 1.457 . S
C846 H851 0.929 . S
C847 C846 1.457 . S
C847 C848 1.291 . S
C847 H860 0.931 . S
C848 C847 1.291 . S
C848 C849 1.373 . S
C848 H861 0.929 . S
C849 C848 1.373 . S
C849 C850 1.396 . S
C849 C856 1.403 . S
C850 C840 1.476 . S
C850 N845 1.318 . S
C850 C849 1.396 . S
H851 C846 0.929 . S
O852 Mn828 2.385 . S
O852 C830 1.234 . S
O853 Mn828 2.209 . S
O853 Mn829 2.215 . S
O853 C830 1.283 . S
O854 Mn828 2.094 . S
O854 C832 1.240 . S
O855 Mn829 2.117 . S
O855 C832 1.264 . S
C856 C849 1.403 . S
C856 C857 1.399 . S
C856 H862 0.929 . S
C857 C837 1.449 . S
C857 C856 1.399 . S
C857 H863 0.930 . S
H858 C838 0.931 . S
H859 C839 0.930 . S
H860 C847 0.931 . S
H861 C848 0.929 . S
H862 C856 0.929 . S
H863 C857 0.930 . S
Mn864 O869 2.095 . S
Mn864 O879 2.162 . S
Mn864 O880 2.297 . S
Mn864 O888 2.385 . S
Mn864 O889 2.209 . S
Mn864 O890 2.094 . S
Mn865 O870 2.121 . S
Mn865 N872 2.257 . S
Mn865 N881 2.282 . S
Mn865 O889 2.215 . S
Mn865 O891 2.117 . S
C866 O888 1.234 . S
C866 O889 1.283 . S
C867 O879 1.281 . S
C867 O880 1.236 . S
C868 O890 1.240 . S
C868 O891 1.264 . S
O869 Mn864 2.095 . S
O869 C878 1.250 . S
O870 Mn865 2.121 . S
O870 C878 1.258 . S
C871 N872 1.326 . S
C871 C875 1.460 . S
C871 H877 0.929 . S
N872 Mn865 2.257 . S
N872 C871 1.326 . S
N872 C876 1.362 . S
C873 C874 1.258 1_655 S
C873 C876 1.431 1_655 S
C873 C893 1.449 . S
C874 C873 1.258 1_455 S
C874 C875 1.477 . S
C874 H894 0.931 1_455 S
C875 C871 1.460 . S
C875 C874 1.477 . S
C875 H895 0.930 . S
C876 N872 1.362 . S
C876 C873 1.431 1_455 S
C876 C886 1.476 . S
H877 C871 0.929 . S
C878 O869 1.250 . S
C878 O870 1.258 . S
O879 Mn864 2.162 . S
O879 C867 1.281 . S
O880 Mn864 2.297 . S
O880 C867 1.236 . S
N881 Mn865 2.282 . S
N881 C882 1.328 . S
N881 C886 1.318 . S
C882 N881 1.328 . S
C882 C883 1.457 1_455 S
C882 H887 0.929 . S
C883 C882 1.457 1_655 S
C883 C884 1.291 . S
C883 H896 0.931 . S
C884 C883 1.291 . S
C884 C885 1.373 . S
C884 H897 0.929 . S
C885 C884 1.373 . S
C885 C886 1.396 1_655 S
C885 C892 1.403 . S
C886 C876 1.476 . S
C886 N881 1.318 . S
C886 C885 1.396 1_455 S
H887 C882 0.929 . S
O888 Mn864 2.385 . S
O888 C866 1.234 . S
O889 Mn864 2.209 . S
O889 Mn865 2.215 . S
O889 C866 1.283 . S
O890 Mn864 2.094 . S
O890 C868 1.240 . S
O891 Mn865 2.117 . S
O891 C868 1.264 . S
C892 C885 1.403 . S
C892 C893 1.399 . S
C892 H898 0.929 . S
C893 C873 1.449 . S
C893 C892 1.399 . S
C893 H899 0.930 . S
H894 C874 0.931 1_655 S
H895 C875 0.930 . S
H896 C883 0.931 . S
H897 C884 0.929 . S
H898 C892 0.929 . S
H899 C893 0.930 . S
Mn900 O905 2.095 . S
Mn900 O915 2.162 . S
Mn900 O916 2.297 . S
Mn900 O924 2.385 . S
Mn900 O925 2.209 . S
Mn900 O926 2.094 . S
Mn901 O906 2.121 . S
Mn901 N908 2.257 . S
Mn901 N917 2.282 . S
Mn901 O925 2.215 . S
Mn901 O927 2.117 . S
C902 O924 1.234 . S
C902 O925 1.283 . S
C903 O915 1.281 . S
C903 O916 1.236 . S
C904 O926 1.240 . S
C904 O927 1.264 . S
O905 Mn900 2.095 . S
O905 C914 1.250 . S
O906 Mn901 2.121 . S
O906 C914 1.258 . S
C907 N908 1.326 . S
C907 C911 1.460 . S
C907 H913 0.929 . S
N908 Mn901 2.257 . S
N908 C907 1.326 . S
N908 C912 1.362 . S
C909 C910 1.258 . S
C909 C912 1.431 . S
C909 C929 1.449 . S
C910 C909 1.258 . S
C910 C911 1.477 . S
C910 H930 0.931 . S
C911 C907 1.460 . S
C911 C910 1.477 . S
C911 H931 0.930 . S
C912 N908 1.362 . S
C912 C909 1.431 . S
C912 C922 1.476 . S
H913 C907 0.929 . S
C914 O905 1.250 . S
C914 O906 1.258 . S
O915 Mn900 2.162 . S
O915 C903 1.281 . S
O916 Mn900 2.297 . S
O916 C903 1.236 . S
N917 Mn901 2.282 . S
N917 C918 1.328 . S
N917 C922 1.318 . S
C918 N917 1.328 . S
C918 C919 1.457 . S
C918 H923 0.929 . S
C919 C918 1.457 . S
C919 C920 1.291 . S
C919 H932 0.931 . S
C920 C919 1.291 . S
C920 C921 1.373 . S
C920 H933 0.929 . S
C921 C920 1.373 . S
C921 C922 1.396 . S
C921 C928 1.403 . S
C922 C912 1.476 . S
C922 N917 1.318 . S
C922 C921 1.396 . S
H923 C918 0.929 . S
O924 Mn900 2.385 . S
O924 C902 1.234 . S
O925 Mn900 2.209 . S
O925 Mn901 2.215 . S
O925 C902 1.283 . S
O926 Mn900 2.094 . S
O926 C904 1.240 . S
O927 Mn901 2.117 . S
O927 C904 1.264 . S
C928 C921 1.403 . S
C928 C929 1.399 . S
C928 H934 0.929 . S
C929 C909 1.449 . S
C929 C928 1.399 . S
C929 H935 0.930 . S
H930 C910 0.931 . S
H931 C911 0.930 . S
H932 C919 0.931 . S
H933 C920 0.929 . S
H934 C928 0.929 . S
H935 C929 0.930 . S
Mn936 O941 2.095 . S
Mn936 O951 2.162 . S
Mn936 O952 2.297 . S
Mn936 O960 2.385 . S
Mn936 O961 2.209 . S
Mn936 O962 2.094 . S
Mn937 O942 2.121 . S
Mn937 N944 2.257 . S
Mn937 N953 2.282 . S
Mn937 O961 2.215 . S
Mn937 O963 2.117 . S
C938 O960 1.234 . S
C938 O961 1.283 . S
C939 O951 1.281 . S
C939 O952 1.236 . S
C940 O962 1.240 . S
C940 O963 1.264 . S
O941 Mn936 2.095 . S
O941 C950 1.250 . S
O942 Mn937 2.121 . S
O942 C950 1.258 . S
C943 N944 1.326 . S
C943 C947 1.460 . S
C943 H949 0.929 . S
N944 Mn937 2.257 . S
N944 C943 1.326 . S
N944 C948 1.362 . S
C945 C946 1.258 . S
C945 C948 1.431 . S
C945 C965 1.449 . S
C946 C945 1.258 . S
C946 C947 1.477 . S
C946 H966 0.931 . S
C947 C943 1.460 . S
C947 C946 1.477 . S
C947 H967 0.930 . S
C948 N944 1.362 . S
C948 C945 1.431 . S
C948 C958 1.476 . S
H949 C943 0.929 . S
C950 O941 1.250 . S
C950 O942 1.258 . S
O951 Mn936 2.162 . S
O951 C939 1.281 . S
O952 Mn936 2.297 . S
O952 C939 1.236 . S
N953 Mn937 2.282 . S
N953 C954 1.328 . S
N953 C958 1.318 . S
C954 N953 1.328 . S
C954 C955 1.457 . S
C954 H959 0.929 . S
C955 C954 1.457 . S
C955 C956 1.291 . S
C955 H968 0.931 . S
C956 C955 1.291 . S
C956 C957 1.373 . S
C956 H969 0.929 . S
C957 C956 1.373 . S
C957 C958 1.396 . S
C957 C964 1.403 . S
C958 C948 1.476 . S
C958 N953 1.318 . S
C958 C957 1.396 . S
H959 C954 0.929 . S
O960 Mn936 2.385 . S
O960 C938 1.234 . S
O961 Mn936 2.209 . S
O961 Mn937 2.215 . S
O961 C938 1.283 . S
O962 Mn936 2.094 . S
O962 C940 1.240 . S
O963 Mn937 2.117 . S
O963 C940 1.264 . S
C964 C957 1.403 . S
C964 C965 1.399 . S
C964 H970 0.929 . S
C965 C945 1.449 . S
C965 C964 1.399 . S
C965 H971 0.930 . S
H966 C946 0.931 . S
H967 C947 0.930 . S
H968 C955 0.931 . S
H969 C956 0.929 . S
H970 C964 0.929 . S
H971 C965 0.930 . S
Mn972 O977 2.095 . S
Mn972 O987 2.162 . S
Mn972 O988 2.297 . S
Mn972 O996 2.385 . S
Mn972 O997 2.209 . S
Mn972 O998 2.094 . S
Mn973 O978 2.121 . S
Mn973 N980 2.257 . S
Mn973 N989 2.282 . S
Mn973 O997 2.215 . S
Mn973 O999 2.117 . S
C974 O996 1.234 . S
C974 O997 1.283 . S
C975 O987 1.281 . S
C975 O988 1.236 . S
C976 O998 1.240 . S
C976 O999 1.264 . S
O977 Mn972 2.095 . S
O977 C986 1.250 . S
O978 Mn973 2.121 . S
O978 C986 1.258 . S
C979 N980 1.326 . S
C979 C983 1.460 . S
C979 H985 0.929 . S
N980 Mn973 2.257 . S
N980 C979 1.326 . S
N980 C984 1.362 . S
C981 C982 1.258 . S
C981 C984 1.431 . S
C981 C1001 1.449 . S
C982 C981 1.258 . S
C982 C983 1.477 . S
C982 H1002 0.931 . S
C983 C979 1.460 . S
C983 C982 1.477 . S
C983 H1003 0.930 . S
C984 N980 1.362 . S
C984 C981 1.431 . S
C984 C994 1.476 . S
H985 C979 0.929 . S
C986 O977 1.250 . S
C986 O978 1.258 . S
O987 Mn972 2.162 . S
O987 C975 1.281 . S
O988 Mn972 2.297 . S
O988 C975 1.236 . S
N989 Mn973 2.282 . S
N989 C990 1.328 . S
N989 C994 1.318 . S
C990 N989 1.328 . S
C990 C991 1.457 . S
C990 H995 0.929 . S
C991 C990 1.457 . S
C991 C992 1.291 . S
C991 H1004 0.931 . S
C992 C991 1.291 . S
C992 C993 1.373 . S
C992 H1005 0.929 . S
C993 C992 1.373 . S
C993 C994 1.396 . S
C993 C1000 1.403 . S
C994 C984 1.476 . S
C994 N989 1.318 . S
C994 C993 1.396 . S
H995 C990 0.929 . S
O996 Mn972 2.385 . S
O996 C974 1.234 . S
O997 Mn972 2.209 . S
O997 Mn973 2.215 . S
O997 C974 1.283 . S
O998 Mn972 2.094 . S
O998 C976 1.240 . S
O999 Mn973 2.117 . S
O999 C976 1.264 . S
C1000 C993 1.403 . S
C1000 C1001 1.399 . S
C1000 H1006 0.929 . S
C1001 C981 1.449 . S
C1001 C1000 1.399 . S
C1001 H1007 0.930 . S
H1002 C982 0.931 . S
H1003 C983 0.930 . S
H1004 C991 0.931 . S
H1005 C992 0.929 . S
H1006 C1000 0.929 . S
H1007 C1001 0.930 . S
Mn1008 O1013 2.095 . S
Mn1008 O1023 2.162 . S
Mn1008 O1024 2.297 . S
Mn1008 O1032 2.385 . S
Mn1008 O1033 2.209 . S
Mn1008 O1034 2.094 . S
Mn1009 O1014 2.121 . S
Mn1009 N1016 2.257 . S
Mn1009 N1025 2.282 . S
Mn1009 O1033 2.215 . S
Mn1009 O1035 2.117 . S
C1010 O1032 1.234 . S
C1010 O1033 1.283 . S
C1011 O1023 1.281 . S
C1011 O1024 1.236 . S
C1012 O1034 1.240 . S
C1012 O1035 1.264 . S
O1013 Mn1008 2.095 . S
O1013 C1022 1.250 . S
O1014 Mn1009 2.121 . S
O1014 C1022 1.258 . S
C1015 N1016 1.326 . S
C1015 C1019 1.460 . S
C1015 H1021 0.929 . S
N1016 Mn1009 2.257 . S
N1016 C1015 1.326 . S
N1016 C1020 1.362 . S
C1017 C1018 1.258 1_655 S
C1017 C1020 1.431 1_655 S
C1017 C1037 1.449 . S
C1018 C1017 1.258 1_455 S
C1018 C1019 1.477 . S
C1018 H1038 0.931 1_455 S
C1019 C1015 1.460 . S
C1019 C1018 1.477 . S
C1019 H1039 0.930 . S
C1020 N1016 1.362 . S
C1020 C1017 1.431 1_455 S
C1020 C1030 1.476 . S
H1021 C1015 0.929 . S
C1022 O1013 1.250 . S
C1022 O1014 1.258 . S
O1023 Mn1008 2.162 . S
O1023 C1011 1.281 . S
O1024 Mn1008 2.297 . S
O1024 C1011 1.236 . S
N1025 Mn1009 2.282 . S
N1025 C1026 1.328 . S
N1025 C1030 1.318 . S
C1026 N1025 1.328 . S
C1026 C1027 1.457 1_455 S
C1026 H1031 0.929 . S
C1027 C1026 1.457 1_655 S
C1027 C1028 1.291 . S
C1027 H1040 0.931 . S
C1028 C1027 1.291 . S
C1028 C1029 1.373 . S
C1028 H1041 0.929 . S
C1029 C1028 1.373 . S
C1029 C1030 1.396 1_655 S
C1029 C1036 1.403 . S
C1030 C1020 1.476 . S
C1030 N1025 1.318 . S
C1030 C1029 1.396 1_455 S
H1031 C1026 0.929 . S
O1032 Mn1008 2.385 . S
O1032 C1010 1.234 . S
O1033 Mn1008 2.209 . S
O1033 Mn1009 2.215 . S
O1033 C1010 1.283 . S
O1034 Mn1008 2.094 . S
O1034 C1012 1.240 . S
O1035 Mn1009 2.117 . S
O1035 C1012 1.264 . S
C1036 C1029 1.403 . S
C1036 C1037 1.399 . S
C1036 H1042 0.929 . S
C1037 C1017 1.449 . S
C1037 C1036 1.399 . S
C1037 H1043 0.930 . S
H1038 C1018 0.931 1_655 S
H1039 C1019 0.930 . S
H1040 C1027 0.931 . S
H1041 C1028 0.929 . S
H1042 C1036 0.929 . S
H1043 C1037 0.930 . S
Mn1044 O1049 2.095 . S
Mn1044 O1059 2.162 . S
Mn1044 O1060 2.297 . S
Mn1044 O1068 2.385 . S
Mn1044 O1069 2.209 . S
Mn1044 O1070 2.094 . S
Mn1045 O1050 2.121 . S
Mn1045 N1052 2.257 . S
Mn1045 N1061 2.282 . S
Mn1045 O1069 2.215 . S
Mn1045 O1071 2.117 . S
C1046 O1068 1.234 . S
C1046 O1069 1.283 . S
C1047 O1059 1.281 . S
C1047 O1060 1.236 . S
C1048 O1070 1.240 . S
C1048 O1071 1.264 . S
O1049 Mn1044 2.095 . S
O1049 C1058 1.250 . S
O1050 Mn1045 2.121 . S
O1050 C1058 1.258 . S
C1051 N1052 1.326 . S
C1051 C1055 1.460 . S
C1051 H1057 0.929 . S
N1052 Mn1045 2.257 . S
N1052 C1051 1.326 . S
N1052 C1056 1.362 . S
C1053 C1054 1.258 . S
C1053 C1056 1.431 . S
C1053 C1073 1.449 . S
C1054 C1053 1.258 . S
C1054 C1055 1.477 . S
C1054 H1074 0.931 . S
C1055 C1051 1.460 . S
C1055 C1054 1.477 . S
C1055 H1075 0.930 . S
C1056 N1052 1.362 . S
C1056 C1053 1.431 . S
C1056 C1066 1.476 . S
H1057 C1051 0.929 . S
C1058 O1049 1.250 . S
C1058 O1050 1.258 . S
O1059 Mn1044 2.162 . S
O1059 C1047 1.281 . S
O1060 Mn1044 2.297 . S
O1060 C1047 1.236 . S
N1061 Mn1045 2.282 . S
N1061 C1062 1.328 . S
N1061 C1066 1.318 . S
C1062 N1061 1.328 . S
C1062 C1063 1.457 . S
C1062 H1067 0.929 . S
C1063 C1062 1.457 . S
C1063 C1064 1.291 . S
C1063 H1076 0.931 . S
C1064 C1063 1.291 . S
C1064 C1065 1.373 . S
C1064 H1077 0.929 . S
C1065 C1064 1.373 . S
C1065 C1066 1.396 . S
C1065 C1072 1.403 . S
C1066 C1056 1.476 . S
C1066 N1061 1.318 . S
C1066 C1065 1.396 . S
H1067 C1062 0.929 . S
O1068 Mn1044 2.385 . S
O1068 C1046 1.234 . S
O1069 Mn1044 2.209 . S
O1069 Mn1045 2.215 . S
O1069 C1046 1.283 . S
O1070 Mn1044 2.094 . S
O1070 C1048 1.240 . S
O1071 Mn1045 2.117 . S
O1071 C1048 1.264 . S
C1072 C1065 1.403 . S
C1072 C1073 1.399 . S
C1072 H1078 0.929 . S
C1073 C1053 1.449 . S
C1073 C1072 1.399 . S
C1073 H1079 0.930 . S
H1074 C1054 0.931 . S
H1075 C1055 0.930 . S
H1076 C1063 0.931 . S
H1077 C1064 0.929 . S
H1078 C1072 0.929 . S
H1079 C1073 0.930 . S
Mn1080 O1085 2.095 . S
Mn1080 O1095 2.162 . S
Mn1080 O1096 2.297 . S
Mn1080 O1104 2.385 . S
Mn1080 O1105 2.209 . S
Mn1080 O1106 2.094 . S
Mn1081 O1086 2.121 . S
Mn1081 N1088 2.257 . S
Mn1081 N1097 2.282 . S
Mn1081 O1105 2.215 . S
Mn1081 O1107 2.117 . S
C1082 O1104 1.234 . S
C1082 O1105 1.283 . S
C1083 O1095 1.281 . S
C1083 O1096 1.236 . S
C1084 O1106 1.240 . S
C1084 O1107 1.264 . S
O1085 Mn1080 2.095 . S
O1085 C1094 1.250 . S
O1086 Mn1081 2.121 . S
O1086 C1094 1.258 . S
C1087 N1088 1.326 . S
C1087 C1091 1.460 . S
C1087 H1093 0.929 . S
N1088 Mn1081 2.257 . S
N1088 C1087 1.326 . S
N1088 C1092 1.362 . S
C1089 C1090 1.258 . S
C1089 C1092 1.431 . S
C1089 C1109 1.449 . S
C1090 C1089 1.258 . S
C1090 C1091 1.477 . S
C1090 H1110 0.931 . S
C1091 C1087 1.460 . S
C1091 C1090 1.477 . S
C1091 H1111 0.930 . S
C1092 N1088 1.362 . S
C1092 C1089 1.431 . S
C1092 C1102 1.476 . S
H1093 C1087 0.929 . S
C1094 O1085 1.250 . S
C1094 O1086 1.258 . S
O1095 Mn1080 2.162 . S
O1095 C1083 1.281 . S
O1096 Mn1080 2.297 . S
O1096 C1083 1.236 . S
N1097 Mn1081 2.282 . S
N1097 C1098 1.328 . S
N1097 C1102 1.318 . S
C1098 N1097 1.328 . S
C1098 C1099 1.457 . S
C1098 H1103 0.929 . S
C1099 C1098 1.457 . S
C1099 C1100 1.291 . S
C1099 H1112 0.931 . S
C1100 C1099 1.291 . S
C1100 C1101 1.373 . S
C1100 H1113 0.929 . S
C1101 C1100 1.373 . S
C1101 C1102 1.396 . S
C1101 C1108 1.403 . S
C1102 C1092 1.476 . S
C1102 N1097 1.318 . S
C1102 C1101 1.396 . S
H1103 C1098 0.929 . S
O1104 Mn1080 2.385 . S
O1104 C1082 1.234 . S
O1105 Mn1080 2.209 . S
O1105 Mn1081 2.215 . S
O1105 C1082 1.283 . S
O1106 Mn1080 2.094 . S
O1106 C1084 1.240 . S
O1107 Mn1081 2.117 . S
O1107 C1084 1.264 . S
C1108 C1101 1.403 . S
C1108 C1109 1.399 . S
C1108 H1114 0.929 . S
C1109 C1089 1.449 . S
C1109 C1108 1.399 . S
C1109 H1115 0.930 . S
H1110 C1090 0.931 . S
H1111 C1091 0.930 . S
H1112 C1099 0.931 . S
H1113 C1100 0.929 . S
H1114 C1108 0.929 . S
H1115 C1109 0.930 . S
Mn1116 O1121 2.095 . S
Mn1116 O1131 2.162 . S
Mn1116 O1132 2.297 . S
Mn1116 O1140 2.385 . S
Mn1116 O1141 2.209 . S
Mn1116 O1142 2.094 . S
Mn1117 O1122 2.121 . S
Mn1117 N1124 2.257 . S
Mn1117 N1133 2.282 . S
Mn1117 O1141 2.215 . S
Mn1117 O1143 2.117 . S
C1118 O1140 1.234 . S
C1118 O1141 1.283 . S
C1119 O1131 1.281 . S
C1119 O1132 1.236 . S
C1120 O1142 1.240 . S
C1120 O1143 1.264 . S
O1121 Mn1116 2.095 . S
O1121 C1130 1.250 . S
O1122 Mn1117 2.121 . S
O1122 C1130 1.258 . S
C1123 N1124 1.326 . S
C1123 C1127 1.460 . S
C1123 H1129 0.929 . S
N1124 Mn1117 2.257 . S
N1124 C1123 1.326 . S
N1124 C1128 1.362 . S
C1125 C1126 1.258 . S
C1125 C1128 1.431 . S
C1125 C1145 1.449 . S
C1126 C1125 1.258 . S
C1126 C1127 1.477 . S
C1126 H1146 0.931 . S
C1127 C1123 1.460 . S
C1127 C1126 1.477 . S
C1127 H1147 0.930 . S
C1128 N1124 1.362 . S
C1128 C1125 1.431 . S
C1128 C1138 1.476 . S
H1129 C1123 0.929 . S
C1130 O1121 1.250 . S
C1130 O1122 1.258 . S
O1131 Mn1116 2.162 . S
O1131 C1119 1.281 . S
O1132 Mn1116 2.297 . S
O1132 C1119 1.236 . S
N1133 Mn1117 2.282 . S
N1133 C1134 1.328 . S
N1133 C1138 1.318 . S
C1134 N1133 1.328 . S
C1134 C1135 1.457 . S
C1134 H1139 0.929 . S
C1135 C1134 1.457 . S
C1135 C1136 1.291 . S
C1135 H1148 0.931 . S
C1136 C1135 1.291 . S
C1136 C1137 1.373 . S
C1136 H1149 0.929 . S
C1137 C1136 1.373 . S
C1137 C1138 1.396 . S
C1137 C1144 1.403 . S
C1138 C1128 1.476 . S
C1138 N1133 1.318 . S
C1138 C1137 1.396 . S
H1139 C1134 0.929 . S
O1140 Mn1116 2.385 . S
O1140 C1118 1.234 . S
O1141 Mn1116 2.209 . S
O1141 Mn1117 2.215 . S
O1141 C1118 1.283 . S
O1142 Mn1116 2.094 . S
O1142 C1120 1.240 . S
O1143 Mn1117 2.117 . S
O1143 C1120 1.264 . S
C1144 C1137 1.403 . S
C1144 C1145 1.399 . S
C1144 H1150 0.929 . S
C1145 C1125 1.449 . S
C1145 C1144 1.399 . S
C1145 H1151 0.930 . S
H1146 C1126 0.931 . S
H1147 C1127 0.930 . S
H1148 C1135 0.931 . S
H1149 C1136 0.929 . S
H1150 C1144 0.929 . S
H1151 C1145 0.930 . S
H1152 C1164 0.930 1_545 S
H1153 C1166 0.930 . S
H1154 C1167 0.930 . S
H1155 C1171 0.959 . S
H1156 C1171 0.959 . S
H1157 C1171 0.961 . S
H1158 C1172 0.960 . S
H1159 C1172 0.961 . S
H1160 C1172 0.959 . S
H1161 C1175 0.929 . S
H1162 C1176 0.931 1_565 S
H1163 C1178 0.930 . S
C1164 H1152 0.930 1_565 S
C1164 C1165 1.399 . S
C1164 C1169 1.399 1_565 S
C1165 C1164 1.399 . S
C1165 C1166 1.376 . S
C1166 H1153 0.930 . S
C1166 C1165 1.376 . S
C1166 C1167 1.388 . S
C1167 H1154 0.930 . S
C1167 C1166 1.388 . S
C1167 C1168 1.390 . S
C1168 C1167 1.390 . S
C1168 C1169 1.394 1_565 S
C1168 C1174 1.465 . S
C1169 C1164 1.399 1_545 S
C1169 C1168 1.394 1_545 S
C1169 C1170 1.516 . S
C1170 C1169 1.516 . S
C1170 C1171 1.502 . S
C1170 C1172 1.561 . S
C1170 C1173 1.526 . S
C1171 H1155 0.959 . S
C1171 H1156 0.959 . S
C1171 H1157 0.961 . S
C1171 C1170 1.502 . S
C1172 H1158 0.960 . S
C1172 H1159 0.961 . S
C1172 H1160 0.959 . S
C1172 C1170 1.561 . S
C1173 C1170 1.526 . S
C1173 C1174 1.396 1_545 S
C1173 C1178 1.390 . S
C1174 C1168 1.465 . S
C1174 C1173 1.396 1_565 S
C1174 C1175 1.399 . S
C1175 H1161 0.929 . S
C1175 C1174 1.399 . S
C1175 C1176 1.385 1_565 S
C1176 H1162 0.931 1_545 S
C1176 C1175 1.385 1_545 S
C1176 C1177 1.389 . S
C1177 C1176 1.389 . S
C1177 C1178 1.387 . S
C1178 H1163 0.930 . S
C1178 C1173 1.390 . S
C1178 C1177 1.387 . S
H1179 C1191 0.930 . S
H1180 C1193 0.930 . S
H1181 C1194 0.930 . S
H1182 C1198 0.959 . S
H1183 C1198 0.959 . S
H1184 C1198 0.961 . S
H1185 C1199 0.960 . S
H1186 C1199 0.961 . S
H1187 C1199 0.959 . S
H1188 C1202 0.929 . S
H1189 C1203 0.931 . S
H1190 C1205 0.930 . S
C1191 H1179 0.930 . S
C1191 C1192 1.399 . S
C1191 C1196 1.399 . S
C1192 C1191 1.399 . S
C1192 C1193 1.376 . S
C1193 H1180 0.930 . S
C1193 C1192 1.376 . S
C1193 C1194 1.388 . S
C1194 H1181 0.930 . S
C1194 C1193 1.388 . S
C1194 C1195 1.390 . S
C1195 C1194 1.390 . S
C1195 C1196 1.394 . S
C1195 C1201 1.465 . S
C1196 C1191 1.399 . S
C1196 C1195 1.394 . S
C1196 C1197 1.516 . S
C1197 C1196 1.516 . S
C1197 C1198 1.502 . S
C1197 C1199 1.561 . S
C1197 C1200 1.526 . S
C1198 H1182 0.959 . S
C1198 H1183 0.959 . S
C1198 H1184 0.961 . S
C1198 C1197 1.502 . S
C1199 H1185 0.960 . S
C1199 H1186 0.961 . S
C1199 H1187 0.959 . S
C1199 C1197 1.561 . S
C1200 C1197 1.526 . S
C1200 C1201 1.396 . S
C1200 C1205 1.390 . S
C1201 C1195 1.465 . S
C1201 C1200 1.396 . S
C1201 C1202 1.399 . S
C1202 H1188 0.929 . S
C1202 C1201 1.399 . S
C1202 C1203 1.385 . S
C1203 H1189 0.931 . S
C1203 C1202 1.385 . S
C1203 C1204 1.389 . S
C1204 C1203 1.389 . S
C1204 C1205 1.387 . S
C1205 H1190 0.930 . S
C1205 C1200 1.390 . S
C1205 C1204 1.387 . S
H1206 C1218 0.952 . S
H1207 C1220 0.930 . S
H1208 C1221 0.930 . S
H1209 C1225 0.959 . S
H1210 C1225 0.959 . S
H1211 C1225 0.961 . S
H1212 C1226 0.960 . S
H1213 C1226 0.961 . S
H1214 C1226 0.959 . S
H1215 C1229 0.929 . S
H1216 C1230 0.931 . S
H1217 C1232 0.930 . S
C1218 H1206 0.952 . S
C1218 C1219 1.372 1_565 S
C1218 C1223 1.404 . S
C1219 C1218 1.372 1_545 S
C1219 C1220 1.376 . S
C1220 H1207 0.930 . S
C1220 C1219 1.376 . S
C1220 C1221 1.388 . S
C1221 H1208 0.930 . S
C1221 C1220 1.388 . S
C1221 C1222 1.390 . S
C1222 C1221 1.390 . S
C1222 C1223 1.394 1_545 S
C1222 C1228 1.465 . S
C1223 C1218 1.404 . S
C1223 C1222 1.394 1_565 S
C1223 C1224 1.516 . S
C1224 C1223 1.516 . S
C1224 C1225 1.502 . S
C1224 C1226 1.561 . S
C1224 C1227 1.526 . S
C1225 H1209 0.959 . S
C1225 H1210 0.959 . S
C1225 H1211 0.961 . S
C1225 C1224 1.502 . S
C1226 H1212 0.960 . S
C1226 H1213 0.961 . S
C1226 H1214 0.959 . S
C1226 C1224 1.561 . S
C1227 C1224 1.526 . S
C1227 C1228 1.396 1_565 S
C1227 C1232 1.390 . S
C1228 C1222 1.465 . S
C1228 C1227 1.396 1_545 S
C1228 C1229 1.399 . S
C1229 H1215 0.929 . S
C1229 C1228 1.399 . S
C1229 C1230 1.385 . S
C1230 H1216 0.931 . S
C1230 C1229 1.385 . S
C1230 C1231 1.389 1_545 S
C1231 C1230 1.389 1_565 S
C1231 C1232 1.387 . S
C1232 H1217 0.930 . S
C1232 C1227 1.390 . S
C1232 C1231 1.387 . S
H1233 C1245 0.930 . S
H1234 C1247 0.930 . S
H1235 C1248 0.930 . S
H1236 C1252 0.959 . S
H1237 C1252 0.959 . S
H1238 C1252 0.961 1_556 S
H1239 C1253 0.960 . S
H1240 C1253 0.961 1_554 S
H1241 C1253 0.959 . S
H1242 C1256 0.929 . S
H1243 C1257 0.931 . S
H1244 C1259 0.930 . S
C1245 H1233 0.930 . S
C1245 C1246 1.399 . S
C1245 C1250 1.399 . S
C1246 C1245 1.399 . S
C1246 C1247 1.376 . S
C1247 H1234 0.930 . S
C1247 C1246 1.376 . S
C1247 C1248 1.388 . S
C1248 H1235 0.930 . S
C1248 C1247 1.388 . S
C1248 C1249 1.390 . S
C1249 C1248 1.390 . S
C1249 C1250 1.394 . S
C1249 C1255 1.465 1_556 S
C1250 C1245 1.399 . S
C1250 C1249 1.394 . S
C1250 C1251 1.470 1_556 S
C1251 C1250 1.470 1_554 S
C1251 C1252 1.520 . S
C1251 C1253 1.548 1_554 S
C1251 C1254 1.568 . S
C1252 H1236 0.959 . S
C1252 H1237 0.959 . S
C1252 H1238 0.961 1_554 S
C1252 C1251 1.520 . S
C1253 H1239 0.960 . S
C1253 H1240 0.961 1_556 S
C1253 H1241 0.959 . S
C1253 C1251 1.548 1_556 S
C1254 C1251 1.568 . S
C1254 C1255 1.396 . S
C1254 C1259 1.390 . S
C1255 C1249 1.465 1_554 S
C1255 C1254 1.396 . S
C1255 C1256 1.399 . S
C1256 H1242 0.929 . S
C1256 C1255 1.399 . S
C1256 C1257 1.385 . S
C1257 H1243 0.931 . S
C1257 C1256 1.385 . S
C1257 C1258 1.389 . S
C1258 C1257 1.389 . S
C1258 C1259 1.387 . S
C1259 H1244 0.930 . S
C1259 C1254 1.390 . S
C1259 C1258 1.387 . S
H1260 C1272 0.930 . S
H1261 C1274 0.930 . S
H1262 C1275 0.930 . S
H1263 C1279 0.959 . S
H1264 C1279 0.959 . S
H1265 C1279 0.961 . S
H1266 C1280 0.960 . S
H1267 C1280 0.961 . S
H1268 C1280 0.959 . S
H1269 C1283 0.929 . S
H1270 C1284 0.931 . S
H1271 C1286 0.935 . S
C1272 H1260 0.930 . S
C1272 C1273 1.399 . S
C1272 C1277 1.399 . S
C1273 C1272 1.399 . S
C1273 C1274 1.376 1_565 S
C1274 H1261 0.930 . S
C1274 C1273 1.376 1_545 S
C1274 C1275 1.388 . S
C1275 H1262 0.930 . S
C1275 C1274 1.388 . S
C1275 C1276 1.390 . S
C1276 C1275 1.390 . S
C1276 C1277 1.394 1_545 S
C1276 C1282 1.465 . S
C1277 C1272 1.399 . S
C1277 C1276 1.394 1_565 S
C1277 C1278 1.516 . S
C1278 C1277 1.516 . S
C1278 C1279 1.502 . S
C1278 C1280 1.561 . S
C1278 C1281 1.526 . S
C1279 H1263 0.959 . S
C1279 H1264 0.959 . S
C1279 H1265 0.961 . S
C1279 C1278 1.502 . S
C1280 H1266 0.960 . S
C1280 H1267 0.961 . S
C1280 H1268 0.959 . S
C1280 C1278 1.561 . S
C1281 C1278 1.526 . S
C1281 C1282 1.396 1_565 S
C1281 C1286 1.391 . S
C1282 C1276 1.465 . S
C1282 C1281 1.396 1_545 S
C1282 C1283 1.399 . S
C1283 H1269 0.929 . S
C1283 C1282 1.399 . S
C1283 C1284 1.385 . S
C1284 H1270 0.931 . S
C1284 C1283 1.385 . S
C1284 C1285 1.389 . S
C1285 C1284 1.389 . S
C1285 C1286 1.380 1_545 S
C1286 H1271 0.935 . S
C1286 C1281 1.391 . S
C1286 C1285 1.380 1_565 S
H1287 C1299 0.930 . S
H1288 C1301 0.930 . S
H1289 C1302 0.930 . S
H1290 C1306 0.959 . S
H1291 C1306 0.959 . S
H1292 C1306 0.961 . S
H1293 C1307 0.960 . S
H1294 C1307 0.961 . S
H1295 C1307 0.959 . S
H1296 C1310 0.929 . S
H1297 C1311 0.931 . S
H1298 C1313 0.930 . S
C1299 H1287 0.930 . S
C1299 C1300 1.399 . S
C1299 C1304 1.399 . S
C1300 C1299 1.399 . S
C1300 C1301 1.376 . S
C1301 H1288 0.930 . S
C1301 C1300 1.376 . S
C1301 C1302 1.388 . S
C1302 H1289 0.930 . S
C1302 C1301 1.388 . S
C1302 C1303 1.390 . S
C1303 C1302 1.390 . S
C1303 C1304 1.394 . S
C1303 C1309 1.465 . S
C1304 C1299 1.399 . S
C1304 C1303 1.394 . S
C1304 C1305 1.516 . S
C1305 C1304 1.516 . S
C1305 C1306 1.502 . S
C1305 C1307 1.561 . S
C1305 C1308 1.526 . S
C1306 H1290 0.959 . S
C1306 H1291 0.959 . S
C1306 H1292 0.961 . S
C1306 C1305 1.502 . S
C1307 H1293 0.960 . S
C1307 H1294 0.961 . S
C1307 H1295 0.959 . S
C1307 C1305 1.561 . S
C1308 C1305 1.526 . S
C1308 C1309 1.396 . S
C1308 C1313 1.390 . S
C1309 C1303 1.465 . S
C1309 C1308 1.396 . S
C1309 C1310 1.399 . S
C1310 H1296 0.929 . S
C1310 C1309 1.399 . S
C1310 C1311 1.385 . S
C1311 H1297 0.931 . S
C1311 C1310 1.385 . S
C1311 C1312 1.389 . S
C1312 C1311 1.389 . S
C1312 C1313 1.387 . S
C1313 H1298 0.930 . S
C1313 C1308 1.390 . S
C1313 C1312 1.387 . S
H1314 C1326 0.930 . S
H1315 C1328 0.930 . S
H1316 C1329 0.930 . S
H1317 C1333 0.959 . S
H1318 C1333 0.959 . S
H1319 C1333 0.961 . S
H1320 C1334 0.960 . S
H1321 C1334 0.961 . S
H1322 C1334 0.959 . S
H1323 C1337 0.929 . S
H1324 C1338 0.931 . S
H1325 C1340 0.930 . S
C1326 H1314 0.930 . S
C1326 C1327 1.399 . S
C1326 C1331 1.399 . S
C1327 C1326 1.399 . S
C1327 C1328 1.376 1_545 S
C1328 H1315 0.930 . S
C1328 C1327 1.376 1_565 S
C1328 C1329 1.388 . S
C1329 H1316 0.930 . S
C1329 C1328 1.388 . S
C1329 C1330 1.390 . S
C1330 C1329 1.390 . S
C1330 C1331 1.394 1_565 S
C1330 C1336 1.465 . S
C1331 C1326 1.399 . S
C1331 C1330 1.394 1_545 S
C1331 C1332 1.516 . S
C1332 C1331 1.516 . S
C1332 C1333 1.502 . S
C1332 C1334 1.561 . S
C1332 C1335 1.526 . S
C1333 H1317 0.959 . S
C1333 H1318 0.959 . S
C1333 H1319 0.961 . S
C1333 C1332 1.502 . S
C1334 H1320 0.960 . S
C1334 H1321 0.961 . S
C1334 H1322 0.959 . S
C1334 C1332 1.561 . S
C1335 C1332 1.526 . S
C1335 C1336 1.396 1_545 S
C1335 C1340 1.390 . S
C1336 C1330 1.465 . S
C1336 C1335 1.396 1_565 S
C1336 C1337 1.399 . S
C1337 H1323 0.929 . S
C1337 C1336 1.399 . S
C1337 C1338 1.385 . S
C1338 H1324 0.931 . S
C1338 C1337 1.385 . S
C1338 C1339 1.389 . S
C1339 C1338 1.389 . S
C1339 C1340 1.387 1_565 S
C1340 H1325 0.930 . S
C1340 C1335 1.390 . S
C1340 C1339 1.387 1_545 S
H1341 C1353 0.930 . S
H1342 C1355 0.930 . S
H1343 C1356 0.930 . S
H1344 C1360 0.959 . S
H1345 C1360 0.959 . S
H1346 C1360 0.961 1_556 S
H1347 C1361 0.960 . S
H1348 C1361 0.961 1_554 S
H1349 C1361 0.959 . S
H1350 C1364 0.929 . S
H1351 C1365 0.931 . S
H1352 C1367 0.930 . S
C1353 H1341 0.930 . S
C1353 C1354 1.399 . S
C1353 C1358 1.399 . S
C1354 C1353 1.399 . S
C1354 C1355 1.376 . S
C1355 H1342 0.930 . S
C1355 C1354 1.376 . S
C1355 C1356 1.388 . S
C1356 H1343 0.930 . S
C1356 C1355 1.388 . S
C1356 C1357 1.390 . S
C1357 C1356 1.390 . S
C1357 C1358 1.394 . S
C1357 C1363 1.465 1_556 S
C1358 C1353 1.399 . S
C1358 C1357 1.394 . S
C1358 C1359 1.516 1_556 S
C1359 C1358 1.516 1_554 S
C1359 C1360 1.502 . S
C1359 C1361 1.561 1_554 S
C1359 C1362 1.526 . S
C1360 H1344 0.959 . S
C1360 H1345 0.959 . S
C1360 H1346 0.961 1_554 S
C1360 C1359 1.502 . S
C1361 H1347 0.960 . S
C1361 H1348 0.961 1_556 S
C1361 H1349 0.959 . S
C1361 C1359 1.561 1_556 S
C1362 C1359 1.526 . S
C1362 C1363 1.396 . S
C1362 C1367 1.390 . S
C1363 C1357 1.465 1_554 S
C1363 C1362 1.396 . S
C1363 C1364 1.399 . S
C1364 H1350 0.929 . S
C1364 C1363 1.399 . S
C1364 C1365 1.385 . S
C1365 H1351 0.931 . S
C1365 C1364 1.385 . S
C1365 C1366 1.389 . S
C1366 C1365 1.389 . S
C1366 C1367 1.387 . S
C1367 H1352 0.930 . S
C1367 C1362 1.390 . S
C1367 C1366 1.387 . S
H1368 C1380 0.930 . S
H1369 C1382 0.930 . S
H1370 C1383 0.930 . S
H1371 C1387 0.959 . S
H1372 C1387 0.959 . S
H1373 C1387 0.961 . S
H1374 C1388 0.960 . S
H1375 C1388 0.961 . S
H1376 C1388 0.959 . S
H1377 C1391 0.929 . S
H1378 C1392 0.931 . S
H1379 C1394 0.930 . S
C1380 H1368 0.930 . S
C1380 C1381 1.399 . S
C1380 C1385 1.399 . S
C1381 C1380 1.399 . S
C1381 C1382 1.376 . S
C1382 H1369 0.930 . S
C1382 C1381 1.376 . S
C1382 C1383 1.388 . S
C1383 H1370 0.930 . S
C1383 C1382 1.388 . S
C1383 C1384 1.390 . S
C1384 C1383 1.390 . S
C1384 C1385 1.394 . S
C1384 C1390 1.465 . S
C1385 C1380 1.399 . S
C1385 C1384 1.394 . S
C1385 C1386 1.516 . S
C1386 C1385 1.516 . S
C1386 C1387 1.502 . S
C1386 C1388 1.561 . S
C1386 C1389 1.526 . S
C1387 H1371 0.959 . S
C1387 H1372 0.959 . S
C1387 H1373 0.961 . S
C1387 C1386 1.502 . S
C1388 H1374 0.960 . S
C1388 H1375 0.961 . S
C1388 H1376 0.959 . S
C1388 C1386 1.561 . S
C1389 C1386 1.526 . S
C1389 C1390 1.396 . S
C1389 C1394 1.390 . S
C1390 C1384 1.465 . S
C1390 C1389 1.396 . S
C1390 C1391 1.399 . S
C1391 H1377 0.929 . S
C1391 C1390 1.399 . S
C1391 C1392 1.385 . S
C1392 H1378 0.931 . S
C1392 C1391 1.385 . S
C1392 C1393 1.389 . S
C1393 C1392 1.389 . S
C1393 C1394 1.387 . S
C1394 H1379 0.930 . S
C1394 C1389 1.390 . S
C1394 C1393 1.387 . S
H1395 C1407 0.930 . S
H1396 C1409 0.930 . S
H1397 C1410 0.930 . S
H1398 C1414 0.959 . S
H1399 C1414 0.959 . S
H1400 C1414 0.961 . S
H1401 C1415 0.960 . S
H1402 C1415 0.961 1_556 S
H1403 C1415 0.959 1_556 S
H1404 C1418 0.929 . S
H1405 C1419 0.931 . S
H1406 C1421 0.930 . S
C1407 H1395 0.930 . S
C1407 C1408 1.399 . S
C1407 C1412 1.399 . S
C1408 C1407 1.399 . S
C1408 C1409 1.376 . S
C1409 H1396 0.930 . S
C1409 C1408 1.376 . S
C1409 C1410 1.388 . S
C1410 H1397 0.930 . S
C1410 C1409 1.388 . S
C1410 C1411 1.390 . S
C1411 C1410 1.390 . S
C1411 C1412 1.394 . S
C1411 C1417 1.465 1_554 S
C1412 C1407 1.399 . S
C1412 C1411 1.394 . S
C1412 C1413 1.516 . S
C1413 C1412 1.516 . S
C1413 C1414 1.502 . S
C1413 C1415 1.561 . S
C1413 C1416 1.526 1_554 S
C1414 H1398 0.959 . S
C1414 H1399 0.959 . S
C1414 H1400 0.961 . S
C1414 C1413 1.502 . S
C1415 H1401 0.960 . S
C1415 H1402 0.961 1_554 S
C1415 H1403 0.959 1_554 S
C1415 C1413 1.561 . S
C1416 C1413 1.526 1_556 S
C1416 C1417 1.396 . S
C1416 C1421 1.390 . S
C1417 C1411 1.465 1_556 S
C1417 C1416 1.396 . S
C1417 C1418 1.399 . S
C1418 H1404 0.929 . S
C1418 C1417 1.399 . S
C1418 C1419 1.385 . S
C1419 H1405 0.931 . S
C1419 C1418 1.385 . S
C1419 C1420 1.389 . S
C1420 C1419 1.389 . S
C1420 C1421 1.387 . S
C1421 H1406 0.930 . S
C1421 C1416 1.390 . S
C1421 C1420 1.387 . S
H1422 C1434 0.930 . S
H1423 C1436 0.930 . S
H1424 C1437 0.930 . S
H1425 C1441 0.959 . S
H1426 C1441 0.959 . S
H1427 C1441 0.961 . S
H1428 C1442 0.960 . S
H1429 C1442 0.961 . S
H1430 C1442 0.959 . S
H1431 C1445 0.929 . S
H1432 C1446 0.931 . S
H1433 C1448 0.930 . S
C1434 H1422 0.930 . S
C1434 C1435 1.399 . S
C1434 C1439 1.399 . S
C1435 C1434 1.399 . S
C1435 C1436 1.376 . S
C1436 H1423 0.930 . S
C1436 C1435 1.376 . S
C1436 C1437 1.388 . S
C1437 H1424 0.930 . S
C1437 C1436 1.388 . S
C1437 C1438 1.390 . S
C1438 C1437 1.390 . S
C1438 C1439 1.394 . S
C1438 C1444 1.465 . S
C1439 C1434 1.399 . S
C1439 C1438 1.394 . S
C1439 C1440 1.516 . S
C1440 C1439 1.516 . S
C1440 C1441 1.502 . S
C1440 C1442 1.561 . S
C1440 C1443 1.526 . S
C1441 H1425 0.959 . S
C1441 H1426 0.959 . S
C1441 H1427 0.961 . S
C1441 C1440 1.502 . S
C1442 H1428 0.960 . S
C1442 H1429 0.961 . S
C1442 H1430 0.959 . S
C1442 C1440 1.561 . S
C1443 C1440 1.526 . S
C1443 C1444 1.396 . S
C1443 C1448 1.390 . S
C1444 C1438 1.465 . S
C1444 C1443 1.396 . S
C1444 C1445 1.399 . S
C1445 H1431 0.929 . S
C1445 C1444 1.399 . S
C1445 C1446 1.385 . S
C1446 H1432 0.931 . S
C1446 C1445 1.385 . S
C1446 C1447 1.389 . S
C1447 C1446 1.389 . S
C1447 C1448 1.387 . S
C1448 H1433 0.930 . S
C1448 C1443 1.390 . S
C1448 C1447 1.387 . S
H1449 C1461 0.930 . S
H1450 C1463 0.930 . S
H1451 C1464 0.930 . S
H1452 C1468 0.959 . S
H1453 C1468 0.959 . S
H1454 C1468 0.961 . S
H1455 C1469 0.960 . S
H1456 C1469 0.961 . S
H1457 C1469 0.959 . S
H1458 C1472 0.929 . S
H1459 C1473 0.931 . S
H1460 C1475 0.930 . S
C1461 H1449 0.930 . S
C1461 C1462 1.399 . S
C1461 C1466 1.399 . S
C1462 C1461 1.399 . S
C1462 C1463 1.376 . S
C1463 H1450 0.930 . S
C1463 C1462 1.376 . S
C1463 C1464 1.388 . S
C1464 H1451 0.930 . S
C1464 C1463 1.388 . S
C1464 C1465 1.390 . S
C1465 C1464 1.390 . S
C1465 C1466 1.394 . S
C1465 C1471 1.465 . S
C1466 C1461 1.399 . S
C1466 C1465 1.394 . S
C1466 C1467 1.516 . S
C1467 C1466 1.516 . S
C1467 C1468 1.502 . S
C1467 C1469 1.561 . S
C1467 C1470 1.526 . S
C1468 H1452 0.959 . S
C1468 H1453 0.959 . S
C1468 H1454 0.961 . S
C1468 C1467 1.502 . S
C1469 H1455 0.960 . S
C1469 H1456 0.961 . S
C1469 H1457 0.959 . S
C1469 C1467 1.561 . S
C1470 C1467 1.526 . S
C1470 C1471 1.396 . S
C1470 C1475 1.390 . S
C1471 C1465 1.465 . S
C1471 C1470 1.396 . S
C1471 C1472 1.399 . S
C1472 H1458 0.929 . S
C1472 C1471 1.399 . S
C1472 C1473 1.385 . S
C1473 H1459 0.931 . S
C1473 C1472 1.385 . S
C1473 C1474 1.389 . S
C1474 C1473 1.389 . S
C1474 C1475 1.387 . S
C1475 H1460 0.930 . S
C1475 C1470 1.390 . S
C1475 C1474 1.387 . S
H1476 C1488 0.930 . S
H1477 C1490 0.930 . S
H1478 C1491 0.930 . S
H1479 C1495 0.959 . S
H1480 C1495 0.959 . S
H1481 C1495 0.961 . S
H1482 C1496 0.960 . S
H1483 C1496 0.961 . S
H1484 C1496 0.959 . S
H1485 C1499 0.929 . S
H1486 C1500 0.931 . S
H1487 C1502 0.930 . S
C1488 H1476 0.930 . S
C1488 C1489 1.399 . S
C1488 C1493 1.399 . S
C1489 C1488 1.399 . S
C1489 C1490 1.376 . S
C1490 H1477 0.930 . S
C1490 C1489 1.376 . S
C1490 C1491 1.388 . S
C1491 H1478 0.930 . S
C1491 C1490 1.388 . S
C1491 C1492 1.390 . S
C1492 C1491 1.390 . S
C1492 C1493 1.394 . S
C1492 C1498 1.465 . S
C1493 C1488 1.399 . S
C1493 C1492 1.394 . S
C1493 C1494 1.516 . S
C1494 C1493 1.516 . S
C1494 C1495 1.502 . S
C1494 C1496 1.561 . S
C1494 C1497 1.526 . S
C1495 H1479 0.959 . S
C1495 H1480 0.959 . S
C1495 H1481 0.961 . S
C1495 C1494 1.502 . S
C1496 H1482 0.960 . S
C1496 H1483 0.961 . S
C1496 H1484 0.959 . S
C1496 C1494 1.561 . S
C1497 C1494 1.526 . S
C1497 C1498 1.396 . S
C1497 C1502 1.390 . S
C1498 C1492 1.465 . S
C1498 C1497 1.396 . S
C1498 C1499 1.399 . S
C1499 H1485 0.929 . S
C1499 C1498 1.399 . S
C1499 C1500 1.385 . S
C1500 H1486 0.931 . S
C1500 C1499 1.385 . S
C1500 C1501 1.389 . S
C1501 C1500 1.389 . S
C1501 C1502 1.387 . S
C1502 H1487 0.930 . S
C1502 C1497 1.390 . S
C1502 C1501 1.387 . S
H1503 C1515 0.930 . S
H1504 C1517 0.930 . S
H1505 C1518 0.930 . S
H1506 C1522 0.959 . S
H1507 C1522 0.963 1_556 S
H1508 C1522 0.961 . S
H1509 C1523 0.921 1_554 S
H1510 C1523 0.991 . S
H1511 C1523 0.978 . S
H1512 C1526 0.929 . S
H1513 C1527 0.931 . S
H1514 C1529 0.930 . S
C1515 H1503 0.930 . S
C1515 C1516 1.399 . S
C1515 C1520 1.399 . S
C1516 C1515 1.399 . S
C1516 C1517 1.376 . S
C1517 H1504 0.930 . S
C1517 C1516 1.376 . S
C1517 C1518 1.388 . S
C1518 H1505 0.930 . S
C1518 C1517 1.388 . S
C1518 C1519 1.390 . S
C1519 C1518 1.390 . S
C1519 C1520 1.394 . S
C1519 C1525 1.465 1_554 S
C1520 C1515 1.399 . S
C1520 C1519 1.394 . S
C1520 C1521 1.516 . S
C1521 C1520 1.516 . S
C1521 C1522 1.502 . S
C1521 C1523 1.554 1_554 S
C1521 C1524 1.526 1_554 S
C1522 H1506 0.959 . S
C1522 H1507 0.963 1_554 S
C1522 H1508 0.961 . S
C1522 C1521 1.502 . S
C1523 H1509 0.921 1_556 S
C1523 H1510 0.991 . S
C1523 H1511 0.978 . S
C1523 C1521 1.554 1_556 S
C1524 C1521 1.526 1_556 S
C1524 C1525 1.396 . S
C1524 C1529 1.390 . S
C1525 C1519 1.465 1_556 S
C1525 C1524 1.396 . S
C1525 C1526 1.399 . S
C1526 H1512 0.929 . S
C1526 C1525 1.399 . S
C1526 C1527 1.385 . S
C1527 H1513 0.931 . S
C1527 C1526 1.385 . S
C1527 C1528 1.389 . S
C1528 C1527 1.389 . S
C1528 C1529 1.387 . S
C1529 H1514 0.930 . S
C1529 C1524 1.390 . S
C1529 C1528 1.387 . S
H1530 C1542 0.930 . S
H1531 C1544 0.930 . S
H1532 C1545 0.930 . S
H1533 C1549 0.959 . S
H1534 C1549 0.959 . S
H1535 C1549 0.961 . S
H1536 C1550 0.960 . S
H1537 C1550 0.961 . S
H1538 C1550 0.959 . S
H1539 C1553 0.929 . S
H1540 C1554 0.931 . S
H1541 C1556 0.930 . S
C1542 H1530 0.930 . S
C1542 C1543 1.399 . S
C1542 C1547 1.399 . S
C1543 C1542 1.399 . S
C1543 C1544 1.376 . S
C1544 H1531 0.930 . S
C1544 C1543 1.376 . S
C1544 C1545 1.388 . S
C1545 H1532 0.930 . S
C1545 C1544 1.388 . S
C1545 C1546 1.390 . S
C1546 C1545 1.390 . S
C1546 C1547 1.394 . S
C1546 C1552 1.465 . S
C1547 C1542 1.399 . S
C1547 C1546 1.394 . S
C1547 C1548 1.516 . S
C1548 C1547 1.516 . S
C1548 C1549 1.502 . S
C1548 C1550 1.561 . S
C1548 C1551 1.526 . S
C1549 H1533 0.959 . S
C1549 H1534 0.959 . S
C1549 H1535 0.961 . S
C1549 C1548 1.502 . S
C1550 H1536 0.960 . S
C1550 H1537 0.961 . S
C1550 H1538 0.959 . S
C1550 C1548 1.561 . S
C1551 C1548 1.526 . S
C1551 C1552 1.396 . S
C1551 C1556 1.390 . S
C1552 C1546 1.465 . S
C1552 C1551 1.396 . S
C1552 C1553 1.399 . S
C1553 H1539 0.929 . S
C1553 C1552 1.399 . S
C1553 C1554 1.385 . S
C1554 H1540 0.931 . S
C1554 C1553 1.385 . S
C1554 C1555 1.389 . S
C1555 C1554 1.389 . S
C1555 C1556 1.387 . S
C1556 H1541 0.930 . S
C1556 C1551 1.390 . S
C1556 C1555 1.387 . S
H1557 C1569 0.930 . S
H1558 C1571 0.930 . S
H1559 C1572 0.930 . S
H1560 C1576 0.959 . S
H1561 C1576 0.959 . S
H1562 C1576 0.961 . S
H1563 C1577 0.960 . S
H1564 C1577 0.961 . S
H1565 C1577 0.959 . S
H1566 C1580 0.929 . S
H1567 C1581 0.931 . S
H1568 C1583 0.930 . S
C1569 H1557 0.930 . S
C1569 C1570 1.399 . S
C1569 C1574 1.399 . S
C1570 C1569 1.399 . S
C1570 C1571 1.376 . S
C1571 H1558 0.930 . S
C1571 C1570 1.376 . S
C1571 C1572 1.388 . S
C1572 H1559 0.930 . S
C1572 C1571 1.388 . S
C1572 C1573 1.390 . S
C1573 C1572 1.390 . S
C1573 C1574 1.394 . S
C1573 C1579 1.465 . S
C1574 C1569 1.399 . S
C1574 C1573 1.394 . S
C1574 C1575 1.516 . S
C1575 C1574 1.516 . S
C1575 C1576 1.502 . S
C1575 C1577 1.561 . S
C1575 C1578 1.526 . S
C1576 H1560 0.959 . S
C1576 H1561 0.959 . S
C1576 H1562 0.961 . S
C1576 C1575 1.502 . S
C1577 H1563 0.960 . S
C1577 H1564 0.961 . S
C1577 H1565 0.959 . S
C1577 C1575 1.561 . S
C1578 C1575 1.526 . S
C1578 C1579 1.396 . S
C1578 C1583 1.390 . S
C1579 C1573 1.465 . S
C1579 C1578 1.396 . S
C1579 C1580 1.399 . S
C1580 H1566 0.929 . S
C1580 C1579 1.399 . S
C1580 C1581 1.385 . S
C1581 H1567 0.931 . S
C1581 C1580 1.385 . S
C1581 C1582 1.389 . S
C1582 C1581 1.389 . S
C1582 C1583 1.387 . S
C1583 H1568 0.930 . S
C1583 C1578 1.390 . S
C1583 C1582 1.387 . S
H1584 C1596 0.930 . S
H1585 C1598 0.930 . S
H1586 C1599 0.930 . S
H1587 C1603 0.959 . S
H1588 C1603 0.959 . S
H1589 C1603 0.961 . S
H1590 C1604 0.960 . S
H1591 C1604 0.961 . S
H1592 C1604 0.959 . S
H1593 C1607 0.929 . S
H1594 C1608 0.931 . S
H1595 C1610 0.930 . S
C1596 H1584 0.930 . S
C1596 C1597 1.399 1_565 S
C1596 C1601 1.399 . S
C1597 C1596 1.399 1_545 S
C1597 C1598 1.376 . S
C1598 H1585 0.930 . S
C1598 C1597 1.376 . S
C1598 C1599 1.388 1_545 S
C1599 H1586 0.930 . S
C1599 C1598 1.388 1_565 S
C1599 C1600 1.390 . S
C1600 C1599 1.390 . S
C1600 C1601 1.394 . S
C1600 C1606 1.465 . S
C1601 C1596 1.399 . S
C1601 C1600 1.394 . S
C1601 C1602 1.516 . S
C1602 C1601 1.516 . S
C1602 C1603 1.502 . S
C1602 C1604 1.561 . S
C1602 C1605 1.526 . S
C1603 H1587 0.959 . S
C1603 H1588 0.959 . S
C1603 H1589 0.961 . S
C1603 C1602 1.502 . S
C1604 H1590 0.960 . S
C1604 H1591 0.961 . S
C1604 H1592 0.959 . S
C1604 C1602 1.561 . S
C1605 C1602 1.526 . S
C1605 C1606 1.396 . S
C1605 C1610 1.390 . S
C1606 C1600 1.465 . S
C1606 C1605 1.396 . S
C1606 C1607 1.399 . S
C1607 H1593 0.929 . S
C1607 C1606 1.399 . S
C1607 C1608 1.385 . S
C1608 H1594 0.931 . S
C1608 C1607 1.385 . S
C1608 C1609 1.389 . S
C1609 C1608 1.389 . S
C1609 C1610 1.387 . S
C1610 H1595 0.930 . S
C1610 C1605 1.390 . S
C1610 C1609 1.387 . S
H1611 C1623 0.930 . S
H1612 C1625 0.930 . S
H1613 C1626 0.930 . S
H1614 C1630 0.959 . S
H1615 C1630 0.959 . S
H1616 C1630 0.961 . S
H1617 C1631 0.960 . S
H1618 C1631 0.961 . S
H1619 C1631 0.959 . S
H1620 C1634 0.929 1_565 S
H1621 C1635 0.931 . S
H1622 C1637 0.930 . S
C1623 H1611 0.930 . S
C1623 C1624 1.399 . S
C1623 C1628 1.399 . S
C1624 C1623 1.399 . S
C1624 C1625 1.376 . S
C1625 H1612 0.930 . S
C1625 C1624 1.376 . S
C1625 C1626 1.388 . S
C1626 H1613 0.930 . S
C1626 C1625 1.388 . S
C1626 C1627 1.390 . S
C1627 C1626 1.390 . S
C1627 C1628 1.394 . S
C1627 C1633 1.465 . S
C1628 C1623 1.399 . S
C1628 C1627 1.394 . S
C1628 C1629 1.516 . S
C1629 C1628 1.516 . S
C1629 C1630 1.502 . S
C1629 C1631 1.561 . S
C1629 C1632 1.526 . S
C1630 H1614 0.959 . S
C1630 H1615 0.959 . S
C1630 H1616 0.961 . S
C1630 C1629 1.502 . S
C1631 H1617 0.960 . S
C1631 H1618 0.961 . S
C1631 H1619 0.959 . S
C1631 C1629 1.561 . S
C1632 C1629 1.526 . S
C1632 C1633 1.396 . S
C1632 C1637 1.390 . S
C1633 C1627 1.465 . S
C1633 C1632 1.396 . S
C1633 C1634 1.399 . S
C1634 H1620 0.929 1_545 S
C1634 C1633 1.399 . S
C1634 C1635 1.385 1_545 S
C1635 H1621 0.931 . S
C1635 C1634 1.385 1_565 S
C1635 C1636 1.389 . S
C1636 C1635 1.389 . S
C1636 C1637 1.387 1_565 S
C1637 H1622 0.930 . S
C1637 C1632 1.390 . S
C1637 C1636 1.387 1_545 S
H1638 C1650 0.930 . S
H1639 C1652 0.930 . S
H1640 C1653 0.945 . S
H1641 C1657 0.959 . S
H1642 C1657 0.959 . S
H1643 C1657 0.961 . S
H1644 C1658 0.960 . S
H1645 C1658 0.961 . S
H1646 C1658 0.959 . S
H1647 C1661 0.929 . S
H1648 C1662 0.931 . S
H1649 C1664 0.930 . S
C1650 H1638 0.930 . S
C1650 C1651 1.399 1_545 S
C1650 C1655 1.399 . S
C1651 C1650 1.399 1_565 S
C1651 C1652 1.376 . S
C1652 H1639 0.930 . S
C1652 C1651 1.376 . S
C1652 C1653 1.406 . S
C1653 H1640 0.945 . S
C1653 C1652 1.406 . S
C1653 C1654 1.358 1_565 S
C1654 C1653 1.358 1_545 S
C1654 C1655 1.394 . S
C1654 C1660 1.465 . S
C1655 C1650 1.399 . S
C1655 C1654 1.394 . S
C1655 C1656 1.516 . S
C1656 C1655 1.516 . S
C1656 C1657 1.502 . S
C1656 C1658 1.561 . S
C1656 C1659 1.526 . S
C1657 H1641 0.959 . S
C1657 H1642 0.959 . S
C1657 H1643 0.961 . S
C1657 C1656 1.502 . S
C1658 H1644 0.960 . S
C1658 H1645 0.961 . S
C1658 H1646 0.959 . S
C1658 C1656 1.561 . S
C1659 C1656 1.526 . S
C1659 C1660 1.396 . S
C1659 C1664 1.390 . S
C1660 C1654 1.465 . S
C1660 C1659 1.396 . S
C1660 C1661 1.399 . S
C1661 H1647 0.929 . S
C1661 C1660 1.399 . S
C1661 C1662 1.385 . S
C1662 H1648 0.931 . S
C1662 C1661 1.385 . S
C1662 C1663 1.389 . S
C1663 C1662 1.389 . S
C1663 C1664 1.387 . S
C1664 H1649 0.930 . S
C1664 C1659 1.390 . S
C1664 C1663 1.387 . S
H1665 C1677 0.930 . S
H1666 C1679 0.930 . S
H1667 C1680 0.940 . S
H1668 C1684 0.959 . S
H1669 C1684 0.959 . S
H1670 C1684 0.961 . S
H1671 C1685 0.960 . S
H1672 C1685 0.961 . S
H1673 C1685 0.959 . S
H1674 C1688 0.929 . S
H1675 C1689 0.931 . S
H1676 C1691 0.930 . S
C1677 H1665 0.930 . S
C1677 C1678 1.399 1_565 S
C1677 C1682 1.399 . S
C1678 C1677 1.399 1_545 S
C1678 C1679 1.376 . S
C1679 H1666 0.930 . S
C1679 C1678 1.376 . S
C1679 C1680 1.401 . S
C1680 H1667 0.940 . S
C1680 C1679 1.401 . S
C1680 C1681 1.368 1_545 S
C1681 C1680 1.368 1_565 S
C1681 C1682 1.394 . S
C1681 C1687 1.465 . S
C1682 C1677 1.399 . S
C1682 C1681 1.394 . S
C1682 C1683 1.516 . S
C1683 C1682 1.516 . S
C1683 C1684 1.502 . S
C1683 C1685 1.561 . S
C1683 C1686 1.526 . S
C1684 H1668 0.959 . S
C1684 H1669 0.959 . S
C1684 H1670 0.961 . S
C1684 C1683 1.502 . S
C1685 H1671 0.960 . S
C1685 H1672 0.961 . S
C1685 H1673 0.959 . S
C1685 C1683 1.561 . S
C1686 C1683 1.526 . S
C1686 C1687 1.396 . S
C1686 C1691 1.390 . S
C1687 C1681 1.465 . S
C1687 C1686 1.396 . S
C1687 C1688 1.399 . S
C1688 H1674 0.929 . S
C1688 C1687 1.399 . S
C1688 C1689 1.385 . S
C1689 H1675 0.931 . S
C1689 C1688 1.385 . S
C1689 C1690 1.389 . S
C1690 C1689 1.389 . S
C1690 C1691 1.387 . S
C1691 H1676 0.930 . S
C1691 C1686 1.390 . S
C1691 C1690 1.387 . S
H1692 C1704 0.930 . S
H1693 C1706 0.930 . S
H1694 C1707 0.930 . S
H1695 C1711 0.959 . S
H1696 C1711 0.959 . S
H1697 C1711 0.961 . S
H1698 C1712 0.960 . S
H1699 C1712 0.961 . S
H1700 C1712 0.959 . S
H1701 C1715 0.929 . S
H1702 C1716 0.931 . S
H1703 C1718 0.930 . S
C1704 H1692 0.930 . S
C1704 C1705 1.399 . S
C1704 C1709 1.399 . S
C1705 C1704 1.399 . S
C1705 C1706 1.376 . S
C1706 H1693 0.930 . S
C1706 C1705 1.376 . S
C1706 C1707 1.388 . S
C1707 H1694 0.930 . S
C1707 C1706 1.388 . S
C1707 C1708 1.390 . S
C1708 C1707 1.390 . S
C1708 C1709 1.394 . S
C1708 C1714 1.465 . S
C1709 C1704 1.399 . S
C1709 C1708 1.394 . S
C1709 C1710 1.516 . S
C1710 C1709 1.516 . S
C1710 C1711 1.502 . S
C1710 C1712 1.561 . S
C1710 C1713 1.526 . S
C1711 H1695 0.959 . S
C1711 H1696 0.959 . S
C1711 H1697 0.961 . S
C1711 C1710 1.502 . S
C1712 H1698 0.960 . S
C1712 H1699 0.961 . S
C1712 H1700 0.959 . S
C1712 C1710 1.561 . S
C1713 C1710 1.526 . S
C1713 C1714 1.396 . S
C1713 C1718 1.390 . S
C1714 C1708 1.465 . S
C1714 C1713 1.396 . S
C1714 C1715 1.399 . S
C1715 H1701 0.929 . S
C1715 C1714 1.399 . S
C1715 C1716 1.385 1_545 S
C1716 H1702 0.931 . S
C1716 C1715 1.385 1_565 S
C1716 C1717 1.389 . S
C1717 C1716 1.389 . S
C1717 C1718 1.387 1_565 S
C1718 H1703 0.930 . S
C1718 C1713 1.390 . S
C1718 C1717 1.387 1_545 S
H1719 C1731 0.930 . S
H1720 C1733 0.930 . S
H1721 C1734 0.930 . S
H1722 C1738 0.959 . S
H1723 C1738 0.959 . S
H1724 C1738 0.961 . S
H1725 C1739 0.960 . S
H1726 C1739 0.961 . S
H1727 C1739 0.959 . S
H1728 C1742 0.929 . S
H1729 C1743 0.931 . S
H1730 C1745 0.930 . S
C1731 H1719 0.930 . S
C1731 C1732 1.399 1_565 S
C1731 C1736 1.399 . S
C1732 C1731 1.399 1_545 S
C1732 C1733 1.376 . S
C1733 H1720 0.930 . S
C1733 C1732 1.376 . S
C1733 C1734 1.388 1_545 S
C1734 H1721 0.930 . S
C1734 C1733 1.388 1_565 S
C1734 C1735 1.390 . S
C1735 C1734 1.390 . S
C1735 C1736 1.394 . S
C1735 C1741 1.465 . S
C1736 C1731 1.399 . S
C1736 C1735 1.394 . S
C1736 C1737 1.516 . S
C1737 C1736 1.516 . S
C1737 C1738 1.502 . S
C1737 C1739 1.561 . S
C1737 C1740 1.526 . S
C1738 H1722 0.959 . S
C1738 H1723 0.959 . S
C1738 H1724 0.961 . S
C1738 C1737 1.502 . S
C1739 H1725 0.960 . S
C1739 H1726 0.961 . S
C1739 H1727 0.959 . S
C1739 C1737 1.561 . S
C1740 C1737 1.526 . S
C1740 C1741 1.396 . S
C1740 C1745 1.390 . S
C1741 C1735 1.465 . S
C1741 C1740 1.396 . S
C1741 C1742 1.399 . S
C1742 H1728 0.929 . S
C1742 C1741 1.399 . S
C1742 C1743 1.385 . S
C1743 H1729 0.931 . S
C1743 C1742 1.385 . S
C1743 C1744 1.389 . S
C1744 C1743 1.389 . S
C1744 C1745 1.387 . S
C1745 H1730 0.930 . S
C1745 C1740 1.390 . S
C1745 C1744 1.387 . S
H1746 C1758 0.930 . S
H1747 C1760 0.930 . S
H1748 C1761 0.930 . S
H1749 C1765 0.959 . S
H1750 C1765 0.959 1_545 S
H1751 C1765 0.961 . S
H1752 C1766 0.960 . S
H1753 C1766 0.961 . S
H1754 C1766 0.959 . S
H1755 C1769 0.929 . S
H1756 C1770 0.931 . S
H1757 C1772 0.956 . S
C1758 H1746 0.930 . S
C1758 C1759 1.399 . S
C1758 C1763 1.399 . S
C1759 C1758 1.399 . S
C1759 C1760 1.376 . S
C1760 H1747 0.930 . S
C1760 C1759 1.376 . S
C1760 C1761 1.388 . S
C1761 H1748 0.930 . S
C1761 C1760 1.388 . S
C1761 C1762 1.390 . S
C1762 C1761 1.390 . S
C1762 C1763 1.394 . S
C1762 C1768 1.465 . S
C1763 C1758 1.399 . S
C1763 C1762 1.394 . S
C1763 C1764 1.516 . S
C1764 C1763 1.516 . S
C1764 C1765 1.502 . S
C1764 C1766 1.561 . S
C1764 C1767 1.526 . S
C1765 H1749 0.959 . S
C1765 H1750 0.959 1_565 S
C1765 H1751 0.961 . S
C1765 C1764 1.502 . S
C1766 H1752 0.960 . S
C1766 H1753 0.961 . S
C1766 H1754 0.959 . S
C1766 C1764 1.561 . S
C1767 C1764 1.526 . S
C1767 C1768 1.396 . S
C1767 C1772 1.365 1_565 S
C1768 C1762 1.465 . S
C1768 C1767 1.396 . S
C1768 C1769 1.399 . S
C1769 H1755 0.929 . S
C1769 C1768 1.399 . S
C1769 C1770 1.385 . S
C1770 H1756 0.931 . S
C1770 C1769 1.385 . S
C1770 C1771 1.417 . S
C1771 C1770 1.417 . S
C1771 C1772 1.385 1_565 S
C1772 H1757 0.956 . S
C1772 C1767 1.365 1_545 S
C1772 C1771 1.385 1_545 S
H1773 C1785 0.930 . S
H1774 C1787 0.930 . S
H1775 C1788 0.930 . S
H1776 C1792 0.959 . S
H1777 C1792 0.959 . S
H1778 C1792 0.961 . S
H1779 C1793 0.960 . S
H1780 C1793 0.961 . S
H1781 C1793 0.959 . S
H1782 C1796 0.929 . S
H1783 C1797 0.931 1_565 S
H1784 C1799 0.930 . S
C1785 H1773 0.930 . S
C1785 C1786 1.399 . S
C1785 C1790 1.399 . S
C1786 C1785 1.399 . S
C1786 C1787 1.376 . S
C1787 H1774 0.930 . S
C1787 C1786 1.376 . S
C1787 C1788 1.388 . S
C1788 H1775 0.930 . S
C1788 C1787 1.388 . S
C1788 C1789 1.390 . S
C1789 C1788 1.390 . S
C1789 C1790 1.394 . S
C1789 C1795 1.465 . S
C1790 C1785 1.399 . S
C1790 C1789 1.394 . S
C1790 C1791 1.516 . S
C1791 C1790 1.516 . S
C1791 C1792 1.502 . S
C1791 C1793 1.561 . S
C1791 C1794 1.526 . S
C1792 H1776 0.959 . S
C1792 H1777 0.959 . S
C1792 H1778 0.961 . S
C1792 C1791 1.502 . S
C1793 H1779 0.960 . S
C1793 H1780 0.961 . S
C1793 H1781 0.959 . S
C1793 C1791 1.561 . S
C1794 C1791 1.526 . S
C1794 C1795 1.396 . S
C1794 C1799 1.390 . S
C1795 C1789 1.465 . S
C1795 C1794 1.396 . S
C1795 C1796 1.399 . S
C1796 H1782 0.929 . S
C1796 C1795 1.399 . S
C1796 C1797 1.385 . S
C1797 H1783 0.931 1_545 S
C1797 C1796 1.385 . S
C1797 C1798 1.379 1_545 S
C1798 C1797 1.379 1_565 S
C1798 C1799 1.372 1_565 S
C1799 H1784 0.930 . S
C1799 C1794 1.390 . S
C1799 C1798 1.372 1_545 S
H1800 C1812 0.930 . S
H1801 C1814 0.930 . S
H1802 C1815 0.930 . S
H1803 C1819 0.959 . S
H1804 C1819 0.959 . S
H1805 C1819 0.961 . S
H1806 C1820 0.960 . S
H1807 C1820 0.961 . S
H1808 C1820 0.959 . S
H1809 C1823 0.929 . S
H1810 C1824 0.931 . S
H1811 C1826 0.930 . S
C1812 H1800 0.930 . S
C1812 C1813 1.399 . S
C1812 C1817 1.399 . S
C1813 C1812 1.399 . S
C1813 C1814 1.376 . S
C1814 H1801 0.930 . S
C1814 C1813 1.376 . S
C1814 C1815 1.388 . S
C1815 H1802 0.930 . S
C1815 C1814 1.388 . S
C1815 C1816 1.390 . S
C1816 C1815 1.390 . S
C1816 C1817 1.394 . S
C1816 C1822 1.465 . S
C1817 C1812 1.399 . S
C1817 C1816 1.394 . S
C1817 C1818 1.516 . S
C1818 C1817 1.516 . S
C1818 C1819 1.502 . S
C1818 C1820 1.561 . S
C1818 C1821 1.526 . S
C1819 H1803 0.959 . S
C1819 H1804 0.959 . S
C1819 H1805 0.961 . S
C1819 C1818 1.502 . S
C1820 H1806 0.960 . S
C1820 H1807 0.961 . S
C1820 H1808 0.959 . S
C1820 C1818 1.561 . S
C1821 C1818 1.526 . S
C1821 C1822 1.396 . S
C1821 C1826 1.390 . S
C1822 C1816 1.465 . S
C1822 C1821 1.396 . S
C1822 C1823 1.399 . S
C1823 H1809 0.929 . S
C1823 C1822 1.399 . S
C1823 C1824 1.385 . S
C1824 H1810 0.931 . S
C1824 C1823 1.385 . S
C1824 C1825 1.389 . S
C1825 C1824 1.389 . S
C1825 C1826 1.387 . S
C1826 H1811 0.930 . S
C1826 C1821 1.390 . S
C1826 C1825 1.387 . S
H1827 C1839 0.930 . S
H1828 C1841 0.930 . S
H1829 C1842 0.930 . S
H1830 C1846 0.959 . S
H1831 C1846 0.959 . S
H1832 C1846 0.961 . S
H1833 C1847 0.960 . S
H1834 C1847 0.961 . S
H1835 C1847 0.959 . S
H1836 C1850 0.929 . S
H1837 C1851 0.931 . S
H1838 C1853 0.930 . S
C1839 H1827 0.930 . S
C1839 C1840 1.399 . S
C1839 C1844 1.399 . S
C1840 C1839 1.399 . S
C1840 C1841 1.376 . S
C1841 H1828 0.930 . S
C1841 C1840 1.376 . S
C1841 C1842 1.388 . S
C1842 H1829 0.930 . S
C1842 C1841 1.388 . S
C1842 C1843 1.390 . S
C1843 C1842 1.390 . S
C1843 C1844 1.394 . S
C1843 C1849 1.465 . S
C1844 C1839 1.399 . S
C1844 C1843 1.394 . S
C1844 C1845 1.516 . S
C1845 C1844 1.516 . S
C1845 C1846 1.502 . S
C1845 C1847 1.561 . S
C1845 C1848 1.526 . S
C1846 H1830 0.959 . S
C1846 H1831 0.959 . S
C1846 H1832 0.961 . S
C1846 C1845 1.502 . S
C1847 H1833 0.960 . S
C1847 H1834 0.961 . S
C1847 H1835 0.959 . S
C1847 C1845 1.561 . S
C1848 C1845 1.526 . S
C1848 C1849 1.396 . S
C1848 C1853 1.390 . S
C1849 C1843 1.465 . S
C1849 C1848 1.396 . S
C1849 C1850 1.399 . S
C1850 H1836 0.929 . S
C1850 C1849 1.399 . S
C1850 C1851 1.385 . S
C1851 H1837 0.931 . S
C1851 C1850 1.385 . S
C1851 C1852 1.389 . S
C1852 C1851 1.389 . S
C1852 C1853 1.387 . S
C1853 H1838 0.930 . S
C1853 C1848 1.390 . S
C1853 C1852 1.387 . S
H1854 C1866 0.930 . S
H1855 C1868 0.930 . S
H1856 C1869 0.930 . S
H1857 C1873 0.959 . S
H1858 C1873 0.959 . S
H1859 C1873 0.961 . S
H1860 C1874 0.960 . S
H1861 C1874 0.961 . S
H1862 C1874 0.959 . S
H1863 C1877 0.929 . S
H1864 C1878 0.931 . S
H1865 C1880 0.930 . S
C1866 H1854 0.930 . S
C1866 C1867 1.399 . S
C1866 C1871 1.399 . S
C1867 C1866 1.399 . S
C1867 C1868 1.376 . S
C1868 H1855 0.930 . S
C1868 C1867 1.376 . S
C1868 C1869 1.388 . S
C1869 H1856 0.930 . S
C1869 C1868 1.388 . S
C1869 C1870 1.390 . S
C1870 C1869 1.390 . S
C1870 C1871 1.394 . S
C1870 C1876 1.465 . S
C1871 C1866 1.399 . S
C1871 C1870 1.394 . S
C1871 C1872 1.516 . S
C1872 C1871 1.516 . S
C1872 C1873 1.502 . S
C1872 C1874 1.561 . S
C1872 C1875 1.526 . S
C1873 H1857 0.959 . S
C1873 H1858 0.959 . S
C1873 H1859 0.961 . S
C1873 C1872 1.502 . S
C1874 H1860 0.960 . S
C1874 H1861 0.961 . S
C1874 H1862 0.959 . S
C1874 C1872 1.561 . S
C1875 C1872 1.526 . S
C1875 C1876 1.396 . S
C1875 C1880 1.390 . S
C1876 C1870 1.465 . S
C1876 C1875 1.396 . S
C1876 C1877 1.399 . S
C1877 H1863 0.929 . S
C1877 C1876 1.399 . S
C1877 C1878 1.385 . S
C1878 H1864 0.931 . S
C1878 C1877 1.385 . S
C1878 C1879 1.389 . S
C1879 C1878 1.389 . S
C1879 C1880 1.387 . S
C1880 H1865 0.930 . S
C1880 C1875 1.390 . S
C1880 C1879 1.387 . S
H1881 C1893 0.930 . S
H1882 C1895 0.930 . S
H1883 C1896 0.930 . S
H1884 C1900 0.959 . S
H1885 C1900 0.959 . S
H1886 C1900 0.961 . S
H1887 C1901 0.960 . S
H1888 C1901 0.961 . S
H1889 C1901 0.959 . S
H1890 C1904 0.929 . S
H1891 C1905 0.931 . S
H1892 C1907 0.930 . S
C1893 H1881 0.930 . S
C1893 C1894 1.399 . S
C1893 C1898 1.399 . S
C1894 C1893 1.399 . S
C1894 C1895 1.376 . S
C1895 H1882 0.930 . S
C1895 C1894 1.376 . S
C1895 C1896 1.388 . S
C1896 H1883 0.930 . S
C1896 C1895 1.388 . S
C1896 C1897 1.390 . S
C1897 C1896 1.390 . S
C1897 C1898 1.394 . S
C1897 C1903 1.465 . S
C1898 C1893 1.399 . S
C1898 C1897 1.394 . S
C1898 C1899 1.516 . S
C1899 C1898 1.516 . S
C1899 C1900 1.502 . S
C1899 C1901 1.561 . S
C1899 C1902 1.526 . S
C1900 H1884 0.959 . S
C1900 H1885 0.959 . S
C1900 H1886 0.961 . S
C1900 C1899 1.502 . S
C1901 H1887 0.960 . S
C1901 H1888 0.961 . S
C1901 H1889 0.959 . S
C1901 C1899 1.561 . S
C1902 C1899 1.526 . S
C1902 C1903 1.396 . S
C1902 C1907 1.390 . S
C1903 C1897 1.465 . S
C1903 C1902 1.396 . S
C1903 C1904 1.399 . S
C1904 H1890 0.929 . S
C1904 C1903 1.399 . S
C1904 C1905 1.385 . S
C1905 H1891 0.931 . S
C1905 C1904 1.385 . S
C1905 C1906 1.389 . S
C1906 C1905 1.389 . S
C1906 C1907 1.387 . S
C1907 H1892 0.930 . S
C1907 C1902 1.390 . S
C1907 C1906 1.387 . S
H1908 C1920 0.930 . S
H1909 C1922 0.930 . S
H1910 C1923 0.930 . S
H1911 C1927 0.959 . S
H1912 C1927 0.959 . S
H1913 C1927 0.961 . S
H1914 C1928 0.960 . S
H1915 C1928 0.961 . S
H1916 C1928 0.959 . S
H1917 C1931 0.929 . S
H1918 C1932 0.931 . S
H1919 C1934 0.930 . S
C1920 H1908 0.930 . S
C1920 C1921 1.399 . S
C1920 C1925 1.399 . S
C1921 C1920 1.399 . S
C1921 C1922 1.376 . S
C1922 H1909 0.930 . S
C1922 C1921 1.376 . S
C1922 C1923 1.388 . S
C1923 H1910 0.930 . S
C1923 C1922 1.388 . S
C1923 C1924 1.390 . S
C1924 C1923 1.390 . S
C1924 C1925 1.394 . S
C1924 C1930 1.465 . S
C1925 C1920 1.399 . S
C1925 C1924 1.394 . S
C1925 C1926 1.516 . S
C1926 C1925 1.516 . S
C1926 C1927 1.502 . S
C1926 C1928 1.561 . S
C1926 C1929 1.526 . S
C1927 H1911 0.959 . S
C1927 H1912 0.959 . S
C1927 H1913 0.961 . S
C1927 C1926 1.502 . S
C1928 H1914 0.960 . S
C1928 H1915 0.961 . S
C1928 H1916 0.959 . S
C1928 C1926 1.561 . S
C1929 C1926 1.526 . S
C1929 C1930 1.396 . S
C1929 C1934 1.390 . S
C1930 C1924 1.465 . S
C1930 C1929 1.396 . S
C1930 C1931 1.399 . S
C1931 H1917 0.929 . S
C1931 C1930 1.399 . S
C1931 C1932 1.385 . S
C1932 H1918 0.931 . S
C1932 C1931 1.385 . S
C1932 C1933 1.389 . S
C1933 C1932 1.389 . S
C1933 C1934 1.387 . S
C1934 H1919 0.930 . S
C1934 C1929 1.390 . S
C1934 C1933 1.387 . S
H1935 C1947 0.930 . S
H1936 C1949 0.930 . S
H1937 C1950 0.930 . S
H1938 C1954 0.959 . S
H1939 C1954 0.959 . S
H1940 C1954 0.961 . S
H1941 C1955 0.960 . S
H1942 C1955 0.961 . S
H1943 C1955 0.959 . S
H1944 C1958 0.929 . S
H1945 C1959 0.931 . S
H1946 C1961 0.930 . S
C1947 H1935 0.930 . S
C1947 C1948 1.399 . S
C1947 C1952 1.399 . S
C1948 C1947 1.399 . S
C1948 C1949 1.376 . S
C1949 H1936 0.930 . S
C1949 C1948 1.376 . S
C1949 C1950 1.388 . S
C1950 H1937 0.930 . S
C1950 C1949 1.388 . S
C1950 C1951 1.390 . S
C1951 C1950 1.390 . S
C1951 C1952 1.394 . S
C1951 C1957 1.465 . S
C1952 C1947 1.399 . S
C1952 C1951 1.394 . S
C1952 C1953 1.516 . S
C1953 C1952 1.516 . S
C1953 C1954 1.502 . S
C1953 C1955 1.561 . S
C1953 C1956 1.526 . S
C1954 H1938 0.959 . S
C1954 H1939 0.959 . S
C1954 H1940 0.961 . S
C1954 C1953 1.502 . S
C1955 H1941 0.960 . S
C1955 H1942 0.961 . S
C1955 H1943 0.959 . S
C1955 C1953 1.561 . S
C1956 C1953 1.526 . S
C1956 C1957 1.396 . S
C1956 C1961 1.390 . S
C1957 C1951 1.465 . S
C1957 C1956 1.396 . S
C1957 C1958 1.399 . S
C1958 H1944 0.929 . S
C1958 C1957 1.399 . S
C1958 C1959 1.385 . S
C1959 H1945 0.931 . S
C1959 C1958 1.385 . S
C1959 C1960 1.389 . S
C1960 C1959 1.389 . S
C1960 C1961 1.387 . S
C1961 H1946 0.930 . S
C1961 C1956 1.390 . S
C1961 C1960 1.387 . S
H1962 C1974 0.930 . S
H1963 C1976 0.930 . S
H1964 C1977 0.930 . S
H1965 C1981 0.959 . S
H1966 C1981 0.959 . S
H1967 C1981 0.961 . S
H1968 C1982 0.960 . S
H1969 C1982 0.961 . S
H1970 C1982 0.959 . S
H1971 C1985 0.929 . S
H1972 C1986 0.931 . S
H1973 C1988 0.930 . S
C1974 H1962 0.930 . S
C1974 C1975 1.399 . S
C1974 C1979 1.399 . S
C1975 C1974 1.399 . S
C1975 C1976 1.376 . S
C1976 H1963 0.930 . S
C1976 C1975 1.376 . S
C1976 C1977 1.388 . S
C1977 H1964 0.930 . S
C1977 C1976 1.388 . S
C1977 C1978 1.390 . S
C1978 C1977 1.390 . S
C1978 C1979 1.394 . S
C1978 C1984 1.465 . S
C1979 C1974 1.399 . S
C1979 C1978 1.394 . S
C1979 C1980 1.516 . S
C1980 C1979 1.516 . S
C1980 C1981 1.502 . S
C1980 C1982 1.561 . S
C1980 C1983 1.526 . S
C1981 H1965 0.959 . S
C1981 H1966 0.959 . S
C1981 H1967 0.961 . S
C1981 C1980 1.502 . S
C1982 H1968 0.960 . S
C1982 H1969 0.961 . S
C1982 H1970 0.959 . S
C1982 C1980 1.561 . S
C1983 C1980 1.526 . S
C1983 C1984 1.396 . S
C1983 C1988 1.390 . S
C1984 C1978 1.465 . S
C1984 C1983 1.396 . S
C1984 C1985 1.399 . S
C1985 H1971 0.929 . S
C1985 C1984 1.399 . S
C1985 C1986 1.385 . S
C1986 H1972 0.931 . S
C1986 C1985 1.385 . S
C1986 C1987 1.389 . S
C1987 C1986 1.389 . S
C1987 C1988 1.387 . S
C1988 H1973 0.930 . S
C1988 C1983 1.390 . S
C1988 C1987 1.387 . S
H1989 C2001 0.930 . S
H1990 C2003 0.930 . S
H1991 C2004 0.930 . S
H1992 C2008 0.959 . S
H1993 C2008 0.959 . S
H1994 C2008 0.961 . S
H1995 C2009 0.960 . S
H1996 C2009 0.961 . S
H1997 C2009 0.959 . S
H1998 C2012 0.929 . S
H1999 C2013 0.931 . S
H2000 C2015 0.930 . S
C2001 H1989 0.930 . S
C2001 C2002 1.399 . S
C2001 C2006 1.399 . S
C2002 C2001 1.399 . S
C2002 C2003 1.376 . S
C2003 H1990 0.930 . S
C2003 C2002 1.376 . S
C2003 C2004 1.388 . S
C2004 H1991 0.930 . S
C2004 C2003 1.388 . S
C2004 C2005 1.390 . S
C2005 C2004 1.390 . S
C2005 C2006 1.394 . S
C2005 C2011 1.465 . S
C2006 C2001 1.399 . S
C2006 C2005 1.394 . S
C2006 C2007 1.516 . S
C2007 C2006 1.516 . S
C2007 C2008 1.502 . S
C2007 C2009 1.561 . S
C2007 C2010 1.526 . S
C2008 H1992 0.959 . S
C2008 H1993 0.959 . S
C2008 H1994 0.961 . S
C2008 C2007 1.502 . S
C2009 H1995 0.960 . S
C2009 H1996 0.961 . S
C2009 H1997 0.959 . S
C2009 C2007 1.561 . S
C2010 C2007 1.526 . S
C2010 C2011 1.396 . S
C2010 C2015 1.390 . S
C2011 C2005 1.465 . S
C2011 C2010 1.396 . S
C2011 C2012 1.399 . S
C2012 H1998 0.929 . S
C2012 C2011 1.399 . S
C2012 C2013 1.385 . S
C2013 H1999 0.931 . S
C2013 C2012 1.385 . S
C2013 C2014 1.389 . S
C2014 C2013 1.389 . S
C2014 C2015 1.387 . S
C2015 H2000 0.930 . S
C2015 C2010 1.390 . S
C2015 C2014 1.387 . S
H2016 C2028 0.930 . S
H2017 C2030 0.930 . S
H2018 C2031 0.930 . S
H2019 C2035 0.959 . S
H2020 C2035 0.959 . S
H2021 C2035 0.961 . S
H2022 C2036 0.960 . S
H2023 C2036 0.961 . S
H2024 C2036 0.959 . S
H2025 C2039 0.929 . S
H2026 C2040 0.931 . S
H2027 C2042 0.930 . S
C2028 H2016 0.930 . S
C2028 C2029 1.399 . S
C2028 C2033 1.399 . S
C2029 C2028 1.399 . S
C2029 C2030 1.376 . S
C2030 H2017 0.930 . S
C2030 C2029 1.376 . S
C2030 C2031 1.388 . S
C2031 H2018 0.930 . S
C2031 C2030 1.388 . S
C2031 C2032 1.390 . S
C2032 C2031 1.390 . S
C2032 C2033 1.394 . S
C2032 C2038 1.465 . S
C2033 C2028 1.399 . S
C2033 C2032 1.394 . S
C2033 C2034 1.516 . S
C2034 C2033 1.516 . S
C2034 C2035 1.502 . S
C2034 C2036 1.561 . S
C2034 C2037 1.526 . S
C2035 H2019 0.959 . S
C2035 H2020 0.959 . S
C2035 H2021 0.961 . S
C2035 C2034 1.502 . S
C2036 H2022 0.960 . S
C2036 H2023 0.961 . S
C2036 H2024 0.959 . S
C2036 C2034 1.561 . S
C2037 C2034 1.526 . S
C2037 C2038 1.396 . S
C2037 C2042 1.390 . S
C2038 C2032 1.465 . S
C2038 C2037 1.396 . S
C2038 C2039 1.399 . S
C2039 H2025 0.929 . S
C2039 C2038 1.399 . S
C2039 C2040 1.385 . S
C2040 H2026 0.931 . S
C2040 C2039 1.385 . S
C2040 C2041 1.389 . S
C2041 C2040 1.389 . S
C2041 C2042 1.387 . S
C2042 H2027 0.930 . S
C2042 C2037 1.390 . S
C2042 C2041 1.387 . S
H2043 C2055 0.930 . S
H2044 C2057 0.930 . S
H2045 C2058 0.930 . S
H2046 C2062 0.959 . S
H2047 C2062 0.959 . S
H2048 C2062 0.961 . S
H2049 C2063 0.960 . S
H2050 C2063 0.961 . S
H2051 C2063 0.959 . S
H2052 C2066 0.929 . S
H2053 C2067 0.931 . S
H2054 C2069 0.929 1_655 S
C2055 H2043 0.930 . S
C2055 C2056 1.399 . S
C2055 C2060 1.399 . S
C2056 C2055 1.399 . S
C2056 C2057 1.376 . S
C2057 H2044 0.930 . S
C2057 C2056 1.376 . S
C2057 C2058 1.388 . S
C2058 H2045 0.930 . S
C2058 C2057 1.388 . S
C2058 C2059 1.390 . S
C2059 C2058 1.390 . S
C2059 C2060 1.394 . S
C2059 C2065 1.465 . S
C2060 C2055 1.399 . S
C2060 C2059 1.394 . S
C2060 C2061 1.516 . S
C2061 C2060 1.516 . S
C2061 C2062 1.502 . S
C2061 C2063 1.561 . S
C2061 C2064 1.526 . S
C2062 H2046 0.959 . S
C2062 H2047 0.959 . S
C2062 H2048 0.961 . S
C2062 C2061 1.502 . S
C2063 H2049 0.960 . S
C2063 H2050 0.961 . S
C2063 H2051 0.959 . S
C2063 C2061 1.561 . S
C2064 C2061 1.526 . S
C2064 C2065 1.396 . S
C2064 C2069 1.399 . S
C2065 C2059 1.465 . S
C2065 C2064 1.396 . S
C2065 C2066 1.399 . S
C2066 H2052 0.929 . S
C2066 C2065 1.399 . S
C2066 C2067 1.385 1_455 S
C2067 H2053 0.931 . S
C2067 C2066 1.385 1_655 S
C2067 C2068 1.389 . S
C2068 C2067 1.389 . S
C2068 C2069 1.378 1_655 S
C2069 H2054 0.929 1_455 S
C2069 C2064 1.399 . S
C2069 C2068 1.378 1_455 S
H2070 C2082 0.930 . S
H2071 C2084 0.930 . S
H2072 C2085 0.930 . S
H2073 C2089 0.959 . S
H2074 C2089 0.959 . S
H2075 C2089 0.961 . S
H2076 C2090 0.960 . S
H2077 C2090 0.961 . S
H2078 C2090 0.959 . S
H2079 C2093 0.929 . S
H2080 C2094 0.931 . S
H2081 C2096 0.930 . S
C2082 H2070 0.930 . S
C2082 C2083 1.399 . S
C2082 C2087 1.399 . S
C2083 C2082 1.399 . S
C2083 C2084 1.376 . S
C2084 H2071 0.930 . S
C2084 C2083 1.376 . S
C2084 C2085 1.388 . S
C2085 H2072 0.930 . S
C2085 C2084 1.388 . S
C2085 C2086 1.390 . S
C2086 C2085 1.390 . S
C2086 C2087 1.394 . S
C2086 C2092 1.465 . S
C2087 C2082 1.399 . S
C2087 C2086 1.394 . S
C2087 C2088 1.516 . S
C2088 C2087 1.516 . S
C2088 C2089 1.502 . S
C2088 C2090 1.561 . S
C2088 C2091 1.526 . S
C2089 H2073 0.959 . S
C2089 H2074 0.959 . S
C2089 H2075 0.961 . S
C2089 C2088 1.502 . S
C2090 H2076 0.960 . S
C2090 H2077 0.961 . S
C2090 H2078 0.959 . S
C2090 C2088 1.561 . S
C2091 C2088 1.526 . S
C2091 C2092 1.396 . S
C2091 C2096 1.390 . S
C2092 C2086 1.465 . S
C2092 C2091 1.396 . S
C2092 C2093 1.399 . S
C2093 H2079 0.929 . S
C2093 C2092 1.399 . S
C2093 C2094 1.385 . S
C2094 H2080 0.931 . S
C2094 C2093 1.385 . S
C2094 C2095 1.389 . S
C2095 C2094 1.389 . S
C2095 C2096 1.387 . S
C2096 H2081 0.930 . S
C2096 C2091 1.390 . S
C2096 C2095 1.387 . S
H2097 C2109 0.930 . S
H2098 C2111 0.930 . S
H2099 C2112 0.930 . S
H2100 C2116 0.959 . S
H2101 C2116 0.959 . S
H2102 C2116 0.961 . S
H2103 C2117 0.960 . S
H2104 C2117 0.961 . S
H2105 C2117 0.959 . S
H2106 C2120 0.929 . S
H2107 C2121 0.931 . S
H2108 C2123 0.930 . S
C2109 H2097 0.930 . S
C2109 C2110 1.399 . S
C2109 C2114 1.399 . S
C2110 C2109 1.399 . S
C2110 C2111 1.376 . S
C2111 H2098 0.930 . S
C2111 C2110 1.376 . S
C2111 C2112 1.388 . S
C2112 H2099 0.930 . S
C2112 C2111 1.388 . S
C2112 C2113 1.390 . S
C2113 C2112 1.390 . S
C2113 C2114 1.394 . S
C2113 C2119 1.465 . S
C2114 C2109 1.399 . S
C2114 C2113 1.394 . S
C2114 C2115 1.516 . S
C2115 C2114 1.516 . S
C2115 C2116 1.502 . S
C2115 C2117 1.561 . S
C2115 C2118 1.526 . S
C2116 H2100 0.959 . S
C2116 H2101 0.959 . S
C2116 H2102 0.961 . S
C2116 C2115 1.502 . S
C2117 H2103 0.960 . S
C2117 H2104 0.961 . S
C2117 H2105 0.959 . S
C2117 C2115 1.561 . S
C2118 C2115 1.526 . S
C2118 C2119 1.396 . S
C2118 C2123 1.390 . S
C2119 C2113 1.465 . S
C2119 C2118 1.396 . S
C2119 C2120 1.399 . S
C2120 H2106 0.929 . S
C2120 C2119 1.399 . S
C2120 C2121 1.385 . S
C2121 H2107 0.931 . S
C2121 C2120 1.385 . S
C2121 C2122 1.389 . S
C2122 C2121 1.389 . S
C2122 C2123 1.387 . S
C2123 H2108 0.930 . S
C2123 C2118 1.390 . S
C2123 C2122 1.387 . S
H2124 C2136 0.930 . S
H2125 C2138 0.930 . S
H2126 C2139 0.930 . S
H2127 C2143 0.959 . S
H2128 C2143 0.959 . S
H2129 C2143 0.961 . S
H2130 C2144 0.960 . S
H2131 C2144 0.961 . S
H2132 C2144 0.959 . S
H2133 C2147 0.929 . S
H2134 C2148 0.931 . S
H2135 C2150 0.930 . S
C2136 H2124 0.930 . S
C2136 C2137 1.399 . S
C2136 C2141 1.399 . S
C2137 C2136 1.399 . S
C2137 C2138 1.376 . S
C2138 H2125 0.930 . S
C2138 C2137 1.376 . S
C2138 C2139 1.388 . S
C2139 H2126 0.930 . S
C2139 C2138 1.388 . S
C2139 C2140 1.390 . S
C2140 C2139 1.390 . S
C2140 C2141 1.394 . S
C2140 C2146 1.465 . S
C2141 C2136 1.399 . S
C2141 C2140 1.394 . S
C2141 C2142 1.516 . S
C2142 C2141 1.516 . S
C2142 C2143 1.502 . S
C2142 C2144 1.561 . S
C2142 C2145 1.526 . S
C2143 H2127 0.959 . S
C2143 H2128 0.959 . S
C2143 H2129 0.961 . S
C2143 C2142 1.502 . S
C2144 H2130 0.960 . S
C2144 H2131 0.961 . S
C2144 H2132 0.959 . S
C2144 C2142 1.561 . S
C2145 C2142 1.526 . S
C2145 C2146 1.396 . S
C2145 C2150 1.390 . S
C2146 C2140 1.465 . S
C2146 C2145 1.396 . S
C2146 C2147 1.399 . S
C2147 H2133 0.929 . S
C2147 C2146 1.399 . S
C2147 C2148 1.385 . S
C2148 H2134 0.931 . S
C2148 C2147 1.385 . S
C2148 C2149 1.389 . S
C2149 C2148 1.389 . S
C2149 C2150 1.387 . S
C2150 H2135 0.930 . S
C2150 C2145 1.390 . S
C2150 C2149 1.387 . S
H2151 C2163 0.930 . S
H2152 C2165 0.930 . S
H2153 C2166 0.930 . S
H2154 C2170 0.959 . S
H2155 C2170 0.959 . S
H2156 C2170 0.961 . S
H2157 C2171 0.960 . S
H2158 C2171 0.961 . S
H2159 C2171 0.959 . S
H2160 C2174 0.929 . S
H2161 C2175 0.931 . S
H2162 C2177 0.930 . S
C2163 H2151 0.930 . S
C2163 C2164 1.399 . S
C2163 C2168 1.399 . S
C2164 C2163 1.399 . S
C2164 C2165 1.376 . S
C2165 H2152 0.930 . S
C2165 C2164 1.376 . S
C2165 C2166 1.388 . S
C2166 H2153 0.930 . S
C2166 C2165 1.388 . S
C2166 C2167 1.390 . S
C2167 C2166 1.390 . S
C2167 C2168 1.394 . S
C2167 C2173 1.465 . S
C2168 C2163 1.399 . S
C2168 C2167 1.394 . S
C2168 C2169 1.516 . S
C2169 C2168 1.516 . S
C2169 C2170 1.502 . S
C2169 C2171 1.561 . S
C2169 C2172 1.526 . S
C2170 H2154 0.959 . S
C2170 H2155 0.959 . S
C2170 H2156 0.961 . S
C2170 C2169 1.502 . S
C2171 H2157 0.960 . S
C2171 H2158 0.961 . S
C2171 H2159 0.959 . S
C2171 C2169 1.561 . S
C2172 C2169 1.526 . S
C2172 C2173 1.396 . S
C2172 C2177 1.390 . S
C2173 C2167 1.465 . S
C2173 C2172 1.396 . S
C2173 C2174 1.399 . S
C2174 H2160 0.929 . S
C2174 C2173 1.399 . S
C2174 C2175 1.385 . S
C2175 H2161 0.931 . S
C2175 C2174 1.385 . S
C2175 C2176 1.389 . S
C2176 C2175 1.389 . S
C2176 C2177 1.387 . S
C2177 H2162 0.930 . S
C2177 C2172 1.390 . S
C2177 C2176 1.387 . S
H2178 C2190 0.930 . S
H2179 C2192 0.930 . S
H2180 C2193 0.930 . S
H2181 C2197 0.959 . S
H2182 C2197 0.959 . S
H2183 C2197 0.961 . S
H2184 C2198 0.960 . S
H2185 C2198 0.961 . S
H2186 C2198 0.959 . S
H2187 C2201 0.929 . S
H2188 C2202 0.931 . S
H2189 C2204 0.930 . S
C2190 H2178 0.930 . S
C2190 C2191 1.399 . S
C2190 C2195 1.399 . S
C2191 C2190 1.399 . S
C2191 C2192 1.376 . S
C2192 H2179 0.930 . S
C2192 C2191 1.376 . S
C2192 C2193 1.388 . S
C2193 H2180 0.930 . S
C2193 C2192 1.388 . S
C2193 C2194 1.390 . S
C2194 C2193 1.390 . S
C2194 C2195 1.394 . S
C2194 C2200 1.465 . S
C2195 C2190 1.399 . S
C2195 C2194 1.394 . S
C2195 C2196 1.516 . S
C2196 C2195 1.516 . S
C2196 C2197 1.502 . S
C2196 C2198 1.561 . S
C2196 C2199 1.526 . S
C2197 H2181 0.959 . S
C2197 H2182 0.959 . S
C2197 H2183 0.961 . S
C2197 C2196 1.502 . S
C2198 H2184 0.960 . S
C2198 H2185 0.961 . S
C2198 H2186 0.959 . S
C2198 C2196 1.561 . S
C2199 C2196 1.526 . S
C2199 C2200 1.396 . S
C2199 C2204 1.390 . S
C2200 C2194 1.465 . S
C2200 C2199 1.396 . S
C2200 C2201 1.399 . S
C2201 H2187 0.929 . S
C2201 C2200 1.399 . S
C2201 C2202 1.385 . S
C2202 H2188 0.931 . S
C2202 C2201 1.385 . S
C2202 C2203 1.389 . S
C2203 C2202 1.389 . S
C2203 C2204 1.387 . S
C2204 H2189 0.930 . S
C2204 C2199 1.390 . S
C2204 C2203 1.387 . S
H2205 C2217 0.930 . S
H2206 C2219 0.930 . S
H2207 C2220 0.930 . S
H2208 C2224 0.959 . S
H2209 C2224 0.959 . S
H2210 C2224 0.961 . S
H2211 C2225 0.960 . S
H2212 C2225 0.961 . S
H2213 C2225 0.959 . S
H2214 C2228 0.929 . S
H2215 C2229 0.931 . S
H2216 C2231 0.930 . S
C2217 H2205 0.930 . S
C2217 C2218 1.399 . S
C2217 C2222 1.399 . S
C2218 C2217 1.399 . S
C2218 C2219 1.376 . S
C2219 H2206 0.930 . S
C2219 C2218 1.376 . S
C2219 C2220 1.388 . S
C2220 H2207 0.930 . S
C2220 C2219 1.388 . S
C2220 C2221 1.390 . S
C2221 C2220 1.390 . S
C2221 C2222 1.394 . S
C2221 C2227 1.465 . S
C2222 C2217 1.399 . S
C2222 C2221 1.394 . S
C2222 C2223 1.516 . S
C2223 C2222 1.516 . S
C2223 C2224 1.502 . S
C2223 C2225 1.561 . S
C2223 C2226 1.526 . S
C2224 H2208 0.959 . S
C2224 H2209 0.959 . S
C2224 H2210 0.961 . S
C2224 C2223 1.502 . S
C2225 H2211 0.960 . S
C2225 H2212 0.961 . S
C2225 H2213 0.959 . S
C2225 C2223 1.561 . S
C2226 C2223 1.526 . S
C2226 C2227 1.396 . S
C2226 C2231 1.390 1_455 S
C2227 C2221 1.465 . S
C2227 C2226 1.396 . S
C2227 C2228 1.399 . S
C2228 H2214 0.929 . S
C2228 C2227 1.399 . S
C2228 C2229 1.385 1_455 S
C2229 H2215 0.931 . S
C2229 C2228 1.385 1_655 S
C2229 C2230 1.389 . S
C2230 C2229 1.389 . S
C2230 C2231 1.387 . S
C2231 H2216 0.930 . S
C2231 C2226 1.390 1_655 S
C2231 C2230 1.387 . S
H2232 C2244 0.930 . S
H2233 C2246 0.930 . S
H2234 C2247 0.930 . S
H2235 C2251 0.959 . S
H2236 C2251 0.959 . S
H2237 C2251 0.961 . S
H2238 C2252 0.960 . S
H2239 C2252 0.961 . S
H2240 C2252 0.959 . S
H2241 C2255 0.929 . S
H2242 C2256 0.931 . S
H2243 C2258 0.930 . S
C2244 H2232 0.930 . S
C2244 C2245 1.399 . S
C2244 C2249 1.399 . S
C2245 C2244 1.399 . S
C2245 C2246 1.376 . S
C2246 H2233 0.930 . S
C2246 C2245 1.376 . S
C2246 C2247 1.388 . S
C2247 H2234 0.930 . S
C2247 C2246 1.388 . S
C2247 C2248 1.390 . S
C2248 C2247 1.390 . S
C2248 C2249 1.394 . S
C2248 C2254 1.465 . S
C2249 C2244 1.399 . S
C2249 C2248 1.394 . S
C2249 C2250 1.516 . S
C2250 C2249 1.516 . S
C2250 C2251 1.502 . S
C2250 C2252 1.561 . S
C2250 C2253 1.526 . S
C2251 H2235 0.959 . S
C2251 H2236 0.959 . S
C2251 H2237 0.961 . S
C2251 C2250 1.502 . S
C2252 H2238 0.960 . S
C2252 H2239 0.961 . S
C2252 H2240 0.959 . S
C2252 C2250 1.561 . S
C2253 C2250 1.526 . S
C2253 C2254 1.396 . S
C2253 C2258 1.390 . S
C2254 C2248 1.465 . S
C2254 C2253 1.396 . S
C2254 C2255 1.399 . S
C2255 H2241 0.929 . S
C2255 C2254 1.399 . S
C2255 C2256 1.385 . S
C2256 H2242 0.931 . S
C2256 C2255 1.385 . S
C2256 C2257 1.389 . S
C2257 C2256 1.389 . S
C2257 C2258 1.387 . S
C2258 H2243 0.930 . S
C2258 C2253 1.390 . S
C2258 C2257 1.387 . S
H2259 C2271 0.930 . S
H2260 C2273 0.930 . S
H2261 C2274 0.931 . S
H2262 C2278 0.959 . S
H2263 C2278 0.959 . S
H2264 C2278 0.961 . S
H2265 C2279 0.960 . S
H2266 C2279 0.961 . S
H2267 C2279 0.959 . S
H2268 C2282 0.929 . S
H2269 C2283 0.931 . S
H2270 C2285 0.930 . S
C2271 H2259 0.930 . S
C2271 C2272 1.399 1_655 S
C2271 C2276 1.399 . S
C2272 C2271 1.399 1_455 S
C2272 C2273 1.376 . S
C2273 H2260 0.930 . S
C2273 C2272 1.376 . S
C2273 C2274 1.401 . S
C2274 H2261 0.931 . S
C2274 C2273 1.401 . S
C2274 C2275 1.377 1_455 S
C2275 C2274 1.377 1_655 S
C2275 C2276 1.394 . S
C2275 C2281 1.465 . S
C2276 C2271 1.399 . S
C2276 C2275 1.394 . S
C2276 C2277 1.516 . S
C2277 C2276 1.516 . S
C2277 C2278 1.502 . S
C2277 C2279 1.561 . S
C2277 C2280 1.526 . S
C2278 H2262 0.959 . S
C2278 H2263 0.959 . S
C2278 H2264 0.961 . S
C2278 C2277 1.502 . S
C2279 H2265 0.960 . S
C2279 H2266 0.961 . S
C2279 H2267 0.959 . S
C2279 C2277 1.561 . S
C2280 C2277 1.526 . S
C2280 C2281 1.396 . S
C2280 C2285 1.390 . S
C2281 C2275 1.465 . S
C2281 C2280 1.396 . S
C2281 C2282 1.399 . S
C2282 H2268 0.929 . S
C2282 C2281 1.399 . S
C2282 C2283 1.385 . S
C2283 H2269 0.931 . S
C2283 C2282 1.385 . S
C2283 C2284 1.389 . S
C2284 C2283 1.389 . S
C2284 C2285 1.387 . S
C2285 H2270 0.930 . S
C2285 C2280 1.390 . S
C2285 C2284 1.387 . S
H2286 C2298 0.930 . S
H2287 C2300 0.930 . S
H2288 C2301 0.930 . S
H2289 C2305 0.959 . S
H2290 C2305 0.959 . S
H2291 C2305 0.961 . S
H2292 C2306 0.960 . S
H2293 C2306 0.961 . S
H2294 C2306 0.959 . S
H2295 C2309 0.929 . S
H2296 C2310 0.931 . S
H2297 C2312 0.930 . S
C2298 H2286 0.930 . S
C2298 C2299 1.399 . S
C2298 C2303 1.399 . S
C2299 C2298 1.399 . S
C2299 C2300 1.376 . S
C2300 H2287 0.930 . S
C2300 C2299 1.376 . S
C2300 C2301 1.388 . S
C2301 H2288 0.930 . S
C2301 C2300 1.388 . S
C2301 C2302 1.390 . S
C2302 C2301 1.390 . S
C2302 C2303 1.394 . S
C2302 C2308 1.465 . S
C2303 C2298 1.399 . S
C2303 C2302 1.394 . S
C2303 C2304 1.516 . S
C2304 C2303 1.516 . S
C2304 C2305 1.502 . S
C2304 C2306 1.561 . S
C2304 C2307 1.526 . S
C2305 H2289 0.959 . S
C2305 H2290 0.959 . S
C2305 H2291 0.961 . S
C2305 C2304 1.502 . S
C2306 H2292 0.960 . S
C2306 H2293 0.961 . S
C2306 H2294 0.959 . S
C2306 C2304 1.561 . S
C2307 C2304 1.526 . S
C2307 C2308 1.396 . S
C2307 C2312 1.390 . S
C2308 C2302 1.465 . S
C2308 C2307 1.396 . S
C2308 C2309 1.399 . S
C2309 H2295 0.929 . S
C2309 C2308 1.399 . S
C2309 C2310 1.385 . S
C2310 H2296 0.931 . S
C2310 C2309 1.385 . S
C2310 C2311 1.389 . S
C2311 C2310 1.389 . S
C2311 C2312 1.387 . S
C2312 H2297 0.930 . S
C2312 C2307 1.390 . S
C2312 C2311 1.387 . S
H2313 C2325 0.930 . S
H2314 C2327 0.930 . S
H2315 C2328 0.930 . S
H2316 C2332 0.959 . S
H2317 C2332 0.959 . S
H2318 C2332 0.961 . S
H2319 C2333 0.960 . S
H2320 C2333 0.961 . S
H2321 C2333 0.959 . S
H2322 C2336 0.929 . S
H2323 C2337 0.931 . S
H2324 C2339 0.930 . S
C2325 H2313 0.930 . S
C2325 C2326 1.399 . S
C2325 C2330 1.399 . S
C2326 C2325 1.399 . S
C2326 C2327 1.376 . S
C2327 H2314 0.930 . S
C2327 C2326 1.376 . S
C2327 C2328 1.388 . S
C2328 H2315 0.930 . S
C2328 C2327 1.388 . S
C2328 C2329 1.390 . S
C2329 C2328 1.390 . S
C2329 C2330 1.394 . S
C2329 C2335 1.465 . S
C2330 C2325 1.399 . S
C2330 C2329 1.394 . S
C2330 C2331 1.516 . S
C2331 C2330 1.516 . S
C2331 C2332 1.502 . S
C2331 C2333 1.561 . S
C2331 C2334 1.526 . S
C2332 H2316 0.959 . S
C2332 H2317 0.959 . S
C2332 H2318 0.961 . S
C2332 C2331 1.502 . S
C2333 H2319 0.960 . S
C2333 H2320 0.961 . S
C2333 H2321 0.959 . S
C2333 C2331 1.561 . S
C2334 C2331 1.526 . S
C2334 C2335 1.396 . S
C2334 C2339 1.390 . S
C2335 C2329 1.465 . S
C2335 C2334 1.396 . S
C2335 C2336 1.399 . S
C2336 H2322 0.929 . S
C2336 C2335 1.399 . S
C2336 C2337 1.385 . S
C2337 H2323 0.931 . S
C2337 C2336 1.385 . S
C2337 C2338 1.389 . S
C2338 C2337 1.389 . S
C2338 C2339 1.387 . S
C2339 H2324 0.930 . S
C2339 C2334 1.390 . S
C2339 C2338 1.387 . S
H2340 C2352 0.930 . S
H2341 C2354 0.930 . S
H2342 C2355 0.930 . S
H2343 C2359 0.959 . S
H2344 C2359 0.959 . S
H2345 C2359 0.961 . S
H2346 C2360 0.960 . S
H2347 C2360 0.961 . S
H2348 C2360 0.959 . S
H2349 C2363 0.929 . S
H2350 C2364 0.931 . S
H2351 C2366 0.930 . S
C2352 H2340 0.930 . S
C2352 C2353 1.399 . S
C2352 C2357 1.399 . S
C2353 C2352 1.399 . S
C2353 C2354 1.376 . S
C2354 H2341 0.930 . S
C2354 C2353 1.376 . S
C2354 C2355 1.388 . S
C2355 H2342 0.930 . S
C2355 C2354 1.388 . S
C2355 C2356 1.390 . S
C2356 C2355 1.390 . S
C2356 C2357 1.394 . S
C2356 C2362 1.465 . S
C2357 C2352 1.399 . S
C2357 C2356 1.394 . S
C2357 C2358 1.516 . S
C2358 C2357 1.516 . S
C2358 C2359 1.502 . S
C2358 C2360 1.561 . S
C2358 C2361 1.526 . S
C2359 H2343 0.959 . S
C2359 H2344 0.959 . S
C2359 H2345 0.961 . S
C2359 C2358 1.502 . S
C2360 H2346 0.960 . S
C2360 H2347 0.961 . S
C2360 H2348 0.959 . S
C2360 C2358 1.561 . S
C2361 C2358 1.526 . S
C2361 C2362 1.396 . S
C2361 C2366 1.390 . S
C2362 C2356 1.465 . S
C2362 C2361 1.396 . S
C2362 C2363 1.399 . S
C2363 H2349 0.929 . S
C2363 C2362 1.399 . S
C2363 C2364 1.385 . S
C2364 H2350 0.931 . S
C2364 C2363 1.385 . S
C2364 C2365 1.389 . S
C2365 C2364 1.389 . S
C2365 C2366 1.387 . S
C2366 H2351 0.930 . S
C2366 C2361 1.390 . S
C2366 C2365 1.387 . S
H2367 C2379 0.930 . S
H2368 C2381 0.930 . S
H2369 C2382 0.930 . S
H2370 C2386 0.959 . S
H2371 C2386 0.959 . S
H2372 C2386 0.961 . S
H2373 C2387 0.960 . S
H2374 C2387 0.961 . S
H2375 C2387 0.959 . S
H2376 C2390 0.929 . S
H2377 C2391 0.931 . S
H2378 C2393 0.930 . S
C2379 H2367 0.930 . S
C2379 C2380 1.399 . S
C2379 C2384 1.399 . S
C2380 C2379 1.399 . S
C2380 C2381 1.376 . S
C2381 H2368 0.930 . S
C2381 C2380 1.376 . S
C2381 C2382 1.388 . S
C2382 H2369 0.930 . S
C2382 C2381 1.388 . S
C2382 C2383 1.390 . S
C2383 C2382 1.390 . S
C2383 C2384 1.394 . S
C2383 C2389 1.465 . S
C2384 C2379 1.399 . S
C2384 C2383 1.394 . S
C2384 C2385 1.516 . S
C2385 C2384 1.516 . S
C2385 C2386 1.502 . S
C2385 C2387 1.561 . S
C2385 C2388 1.526 . S
C2386 H2370 0.959 . S
C2386 H2371 0.959 . S
C2386 H2372 0.961 . S
C2386 C2385 1.502 . S
C2387 H2373 0.960 . S
C2387 H2374 0.961 . S
C2387 H2375 0.959 . S
C2387 C2385 1.561 . S
C2388 C2385 1.526 . S
C2388 C2389 1.396 . S
C2388 C2393 1.390 . S
C2389 C2383 1.465 . S
C2389 C2388 1.396 . S
C2389 C2390 1.399 . S
C2390 H2376 0.929 . S
C2390 C2389 1.399 . S
C2390 C2391 1.385 . S
C2391 H2377 0.931 . S
C2391 C2390 1.385 . S
C2391 C2392 1.389 . S
C2392 C2391 1.389 . S
C2392 C2393 1.387 . S
C2393 H2378 0.930 . S
C2393 C2388 1.390 . S
C2393 C2392 1.387 . S
H2394 C2406 0.930 . S
H2395 C2408 0.930 . S
H2396 C2409 0.930 . S
H2397 C2413 0.959 . S
H2398 C2413 0.959 . S
H2399 C2413 0.961 . S
H2400 C2414 0.960 . S
H2401 C2414 0.961 . S
H2402 C2414 0.959 . S
H2403 C2417 0.929 . S
H2404 C2418 0.931 . S
H2405 C2420 0.930 . S
C2406 H2394 0.930 . S
C2406 C2407 1.399 . S
C2406 C2411 1.399 . S
C2407 C2406 1.399 . S
C2407 C2408 1.376 . S
C2408 H2395 0.930 . S
C2408 C2407 1.376 . S
C2408 C2409 1.388 . S
C2409 H2396 0.930 . S
C2409 C2408 1.388 . S
C2409 C2410 1.390 . S
C2410 C2409 1.390 . S
C2410 C2411 1.394 . S
C2410 C2416 1.465 . S
C2411 C2406 1.399 . S
C2411 C2410 1.394 . S
C2411 C2412 1.516 . S
C2412 C2411 1.516 . S
C2412 C2413 1.502 . S
C2412 C2414 1.561 . S
C2412 C2415 1.526 . S
C2413 H2397 0.959 . S
C2413 H2398 0.959 . S
C2413 H2399 0.961 . S
C2413 C2412 1.502 . S
C2414 H2400 0.960 . S
C2414 H2401 0.961 . S
C2414 H2402 0.959 . S
C2414 C2412 1.561 . S
C2415 C2412 1.526 . S
C2415 C2416 1.396 . S
C2415 C2420 1.390 . S
C2416 C2410 1.465 . S
C2416 C2415 1.396 . S
C2416 C2417 1.399 . S
C2417 H2403 0.929 . S
C2417 C2416 1.399 . S
C2417 C2418 1.385 . S
C2418 H2404 0.931 . S
C2418 C2417 1.385 . S
C2418 C2419 1.389 . S
C2419 C2418 1.389 . S
C2419 C2420 1.387 . S
C2420 H2405 0.930 . S
C2420 C2415 1.390 . S
C2420 C2419 1.387 . S
H2421 C2433 0.930 . S
H2422 C2435 0.930 . S
H2423 C2436 0.930 . S
H2424 C2440 0.959 . S
H2425 C2440 0.959 . S
H2426 C2440 0.961 . S
H2427 C2441 0.960 . S
H2428 C2441 0.961 . S
H2429 C2441 0.959 . S
H2430 C2444 0.929 . S
H2431 C2445 0.931 . S
H2432 C2447 0.930 . S
C2433 H2421 0.930 . S
C2433 C2434 1.399 . S
C2433 C2438 1.399 1_455 S
C2434 C2433 1.399 . S
C2434 C2435 1.376 . S
C2435 H2422 0.930 . S
C2435 C2434 1.376 . S
C2435 C2436 1.388 1_455 S
C2436 H2423 0.930 . S
C2436 C2435 1.388 1_655 S
C2436 C2437 1.390 . S
C2437 C2436 1.390 . S
C2437 C2438 1.394 . S
C2437 C2443 1.465 . S
C2438 C2433 1.399 1_655 S
C2438 C2437 1.394 . S
C2438 C2439 1.516 . S
C2439 C2438 1.516 . S
C2439 C2440 1.502 . S
C2439 C2441 1.561 . S
C2439 C2442 1.526 . S
C2440 H2424 0.959 . S
C2440 H2425 0.959 . S
C2440 H2426 0.961 . S
C2440 C2439 1.502 . S
C2441 H2427 0.960 . S
C2441 H2428 0.961 . S
C2441 H2429 0.959 . S
C2441 C2439 1.561 . S
C2442 C2439 1.526 . S
C2442 C2443 1.396 . S
C2442 C2447 1.390 . S
C2443 C2437 1.465 . S
C2443 C2442 1.396 . S
C2443 C2444 1.399 . S
C2444 H2430 0.929 . S
C2444 C2443 1.399 . S
C2444 C2445 1.385 . S
C2445 H2431 0.931 . S
C2445 C2444 1.385 . S
C2445 C2446 1.389 . S
C2446 C2445 1.389 . S
C2446 C2447 1.387 . S
C2447 H2432 0.930 . S
C2447 C2442 1.390 . S
C2447 C2446 1.387 . S
H2448 C2460 0.930 . S
H2449 C2462 0.930 . S
H2450 C2463 0.930 . S
H2451 C2467 0.959 . S
H2452 C2467 0.959 . S
H2453 C2467 0.961 . S
H2454 C2468 0.960 . S
H2455 C2468 0.961 . S
H2456 C2468 0.959 . S
H2457 C2471 0.929 . S
H2458 C2472 0.931 . S
H2459 C2474 0.930 . S
C2460 H2448 0.930 . S
C2460 C2461 1.399 . S
C2460 C2465 1.399 . S
C2461 C2460 1.399 . S
C2461 C2462 1.376 . S
C2462 H2449 0.930 . S
C2462 C2461 1.376 . S
C2462 C2463 1.388 . S
C2463 H2450 0.930 . S
C2463 C2462 1.388 . S
C2463 C2464 1.390 . S
C2464 C2463 1.390 . S
C2464 C2465 1.394 . S
C2464 C2470 1.465 . S
C2465 C2460 1.399 . S
C2465 C2464 1.394 . S
C2465 C2466 1.516 . S
C2466 C2465 1.516 . S
C2466 C2467 1.502 . S
C2466 C2468 1.561 . S
C2466 C2469 1.526 . S
C2467 H2451 0.959 . S
C2467 H2452 0.959 . S
C2467 H2453 0.961 . S
C2467 C2466 1.502 . S
C2468 H2454 0.960 . S
C2468 H2455 0.961 . S
C2468 H2456 0.959 . S
C2468 C2466 1.561 . S
C2469 C2466 1.526 . S
C2469 C2470 1.396 . S
C2469 C2474 1.390 . S
C2470 C2464 1.465 . S
C2470 C2469 1.396 . S
C2470 C2471 1.399 . S
C2471 H2457 0.929 . S
C2471 C2470 1.399 . S
C2471 C2472 1.385 . S
C2472 H2458 0.931 . S
C2472 C2471 1.385 . S
C2472 C2473 1.389 . S
C2473 C2472 1.389 . S
C2473 C2474 1.387 . S
C2474 H2459 0.930 . S
C2474 C2469 1.390 . S
C2474 C2473 1.387 . S
H2475 C2487 0.930 . S
H2476 C2489 0.930 . S
H2477 C2490 0.930 . S
H2478 C2494 0.959 . S
H2479 C2494 0.959 . S
H2480 C2494 0.961 . S
H2481 C2495 0.960 . S
H2482 C2495 0.961 . S
H2483 C2495 0.959 . S
H2484 C2498 0.929 . S
H2485 C2499 0.931 . S
H2486 C2501 0.930 . S
C2487 H2475 0.930 . S
C2487 C2488 1.399 . S
C2487 C2492 1.399 . S
C2488 C2487 1.399 . S
C2488 C2489 1.376 . S
C2489 H2476 0.930 . S
C2489 C2488 1.376 . S
C2489 C2490 1.388 . S
C2490 H2477 0.930 . S
C2490 C2489 1.388 . S
C2490 C2491 1.390 . S
C2491 C2490 1.390 . S
C2491 C2492 1.394 . S
C2491 C2497 1.465 . S
C2492 C2487 1.399 . S
C2492 C2491 1.394 . S
C2492 C2493 1.516 . S
C2493 C2492 1.516 . S
C2493 C2494 1.502 . S
C2493 C2495 1.561 . S
C2493 C2496 1.526 . S
C2494 H2478 0.959 . S
C2494 H2479 0.959 . S
C2494 H2480 0.961 . S
C2494 C2493 1.502 . S
C2495 H2481 0.960 . S
C2495 H2482 0.961 . S
C2495 H2483 0.959 . S
C2495 C2493 1.561 . S
C2496 C2493 1.526 . S
C2496 C2497 1.396 . S
C2496 C2501 1.390 . S
C2497 C2491 1.465 . S
C2497 C2496 1.396 . S
C2497 C2498 1.399 . S
C2498 H2484 0.929 . S
C2498 C2497 1.399 . S
C2498 C2499 1.385 . S
C2499 H2485 0.931 . S
C2499 C2498 1.385 . S
C2499 C2500 1.389 . S
C2500 C2499 1.389 . S
C2500 C2501 1.387 . S
C2501 H2486 0.930 . S
C2501 C2496 1.390 . S
C2501 C2500 1.387 . S
H2502 C2514 0.930 . S
H2503 C2516 0.930 . S
H2504 C2517 0.930 . S
H2505 C2521 0.959 . S
H2506 C2521 0.959 . S
H2507 C2521 0.961 . S
H2508 C2522 0.960 . S
H2509 C2522 0.961 . S
H2510 C2522 0.959 . S
H2511 C2525 0.929 . S
H2512 C2526 0.931 . S
H2513 C2528 0.930 . S
C2514 H2502 0.930 . S
C2514 C2515 1.399 . S
C2514 C2519 1.399 . S
C2515 C2514 1.399 . S
C2515 C2516 1.376 . S
C2516 H2503 0.930 . S
C2516 C2515 1.376 . S
C2516 C2517 1.388 . S
C2517 H2504 0.930 . S
C2517 C2516 1.388 . S
C2517 C2518 1.390 . S
C2518 C2517 1.390 . S
C2518 C2519 1.394 . S
C2518 C2524 1.465 . S
C2519 C2514 1.399 . S
C2519 C2518 1.394 . S
C2519 C2520 1.516 . S
C2520 C2519 1.516 . S
C2520 C2521 1.502 . S
C2520 C2522 1.561 . S
C2520 C2523 1.526 . S
C2521 H2505 0.959 . S
C2521 H2506 0.959 . S
C2521 H2507 0.961 . S
C2521 C2520 1.502 . S
C2522 H2508 0.960 . S
C2522 H2509 0.961 . S
C2522 H2510 0.959 . S
C2522 C2520 1.561 . S
C2523 C2520 1.526 . S
C2523 C2524 1.396 . S
C2523 C2528 1.390 . S
C2524 C2518 1.465 . S
C2524 C2523 1.396 . S
C2524 C2525 1.399 . S
C2525 H2511 0.929 . S
C2525 C2524 1.399 . S
C2525 C2526 1.385 . S
C2526 H2512 0.931 . S
C2526 C2525 1.385 . S
C2526 C2527 1.389 . S
C2527 C2526 1.389 . S
C2527 C2528 1.387 . S
C2528 H2513 0.930 . S
C2528 C2523 1.390 . S
C2528 C2527 1.387 . S
H2529 C2541 0.930 . S
H2530 C2543 0.930 . S
H2531 C2544 0.930 . S
H2532 C2548 0.959 . S
H2533 C2548 0.959 . S
H2534 C2548 0.961 . S
H2535 C2549 0.960 . S
H2536 C2549 0.942 1_455 S
H2537 C2549 0.959 . S
H2538 C2552 0.929 . S
H2539 C2553 0.921 1_455 S
H2540 C2555 0.930 . S
C2541 H2529 0.930 . S
C2541 C2542 1.399 . S
C2541 C2546 1.399 . S
C2542 C2541 1.399 . S
C2542 C2543 1.376 . S
C2543 H2530 0.930 . S
C2543 C2542 1.376 . S
C2543 C2544 1.388 . S
C2544 H2531 0.930 . S
C2544 C2543 1.388 . S
C2544 C2545 1.390 . S
C2545 C2544 1.390 . S
C2545 C2546 1.394 . S
C2545 C2551 1.465 . S
C2546 C2541 1.399 . S
C2546 C2545 1.394 . S
C2546 C2547 1.516 . S
C2547 C2546 1.516 . S
C2547 C2548 1.502 . S
C2547 C2549 1.561 . S
C2547 C2550 1.526 . S
C2548 H2532 0.959 . S
C2548 H2533 0.959 . S
C2548 H2534 0.961 . S
C2548 C2547 1.502 . S
C2549 H2535 0.960 . S
C2549 H2536 0.942 1_655 S
C2549 H2537 0.959 . S
C2549 C2547 1.561 . S
C2550 C2547 1.526 . S
C2550 C2551 1.396 . S
C2550 C2555 1.390 1_655 S
C2551 C2545 1.465 . S
C2551 C2550 1.396 . S
C2551 C2552 1.399 . S
C2552 H2538 0.929 . S
C2552 C2551 1.399 . S
C2552 C2553 1.423 . S
C2553 H2539 0.921 1_655 S
C2553 C2552 1.423 . S
C2553 C2554 1.362 1_655 S
C2554 C2553 1.362 1_455 S
C2554 C2555 1.387 . S
C2555 H2540 0.930 . S
C2555 C2550 1.390 1_455 S
C2555 C2554 1.387 . S
H2556 C2568 0.930 . S
H2557 C2570 0.930 . S
H2558 C2571 0.930 . S
H2559 C2575 0.959 . S
H2560 C2575 0.959 . S
H2561 C2575 0.961 . S
H2562 C2576 0.960 . S
H2563 C2576 0.961 . S
H2564 C2576 0.959 . S
H2565 C2579 0.929 . S
H2566 C2580 0.931 . S
H2567 C2582 0.930 . S
C2568 H2556 0.930 . S
C2568 C2569 1.399 . S
C2568 C2573 1.399 . S
C2569 C2568 1.399 . S
C2569 C2570 1.376 . S
C2570 H2557 0.930 . S
C2570 C2569 1.376 . S
C2570 C2571 1.388 . S
C2571 H2558 0.930 . S
C2571 C2570 1.388 . S
C2571 C2572 1.390 . S
C2572 C2571 1.390 . S
C2572 C2573 1.394 . S
C2572 C2578 1.465 . S
C2573 C2568 1.399 . S
C2573 C2572 1.394 . S
C2573 C2574 1.516 . S
C2574 C2573 1.516 . S
C2574 C2575 1.502 . S
C2574 C2576 1.561 . S
C2574 C2577 1.526 . S
C2575 H2559 0.959 . S
C2575 H2560 0.959 . S
C2575 H2561 0.961 . S
C2575 C2574 1.502 . S
C2576 H2562 0.960 . S
C2576 H2563 0.961 . S
C2576 H2564 0.959 . S
C2576 C2574 1.561 . S
C2577 C2574 1.526 . S
C2577 C2578 1.396 . S
C2577 C2582 1.390 . S
C2578 C2572 1.465 . S
C2578 C2577 1.396 . S
C2578 C2579 1.399 . S
C2579 H2565 0.929 . S
C2579 C2578 1.399 . S
C2579 C2580 1.385 . S
C2580 H2566 0.931 . S
C2580 C2579 1.385 . S
C2580 C2581 1.389 . S
C2581 C2580 1.389 . S
C2581 C2582 1.387 . S
C2582 H2567 0.930 . S
C2582 C2577 1.390 . S
C2582 C2581 1.387 . S
H2583 C2595 0.930 . S
H2584 C2597 0.930 . S
H2585 C2598 0.930 . S
H2586 C2602 0.959 . S
H2587 C2602 0.959 . S
H2588 C2602 0.961 . S
H2589 C2603 0.960 . S
H2590 C2603 0.961 . S
H2591 C2603 0.959 . S
H2592 C2606 0.929 . S
H2593 C2607 0.931 . S
H2594 C2609 0.930 . S
C2595 H2583 0.930 . S
C2595 C2596 1.399 . S
C2595 C2600 1.399 1_455 S
C2596 C2595 1.399 . S
C2596 C2597 1.376 . S
C2597 H2584 0.930 . S
C2597 C2596 1.376 . S
C2597 C2598 1.388 1_455 S
C2598 H2585 0.930 . S
C2598 C2597 1.388 1_655 S
C2598 C2599 1.390 . S
C2599 C2598 1.390 . S
C2599 C2600 1.394 . S
C2599 C2605 1.465 . S
C2600 C2595 1.399 1_655 S
C2600 C2599 1.394 . S
C2600 C2601 1.516 . S
C2601 C2600 1.516 . S
C2601 C2602 1.502 . S
C2601 C2603 1.561 . S
C2601 C2604 1.526 . S
C2602 H2586 0.959 . S
C2602 H2587 0.959 . S
C2602 H2588 0.961 . S
C2602 C2601 1.502 . S
C2603 H2589 0.960 . S
C2603 H2590 0.961 . S
C2603 H2591 0.959 . S
C2603 C2601 1.561 . S
C2604 C2601 1.526 . S
C2604 C2605 1.396 . S
C2604 C2609 1.390 . S
C2605 C2599 1.465 . S
C2605 C2604 1.396 . S
C2605 C2606 1.399 . S
C2606 H2592 0.929 . S
C2606 C2605 1.399 . S
C2606 C2607 1.385 . S
C2607 H2593 0.931 . S
C2607 C2606 1.385 . S
C2607 C2608 1.389 . S
C2608 C2607 1.389 . S
C2608 C2609 1.387 . S
C2609 H2594 0.930 . S
C2609 C2604 1.390 . S
C2609 C2608 1.387 . S
H2610 C2622 0.930 . S
H2611 C2624 0.930 . S
H2612 C2625 0.930 . S
H2613 C2629 0.959 . S
H2614 C2629 0.959 . S
H2615 C2629 0.961 . S
H2616 C2630 0.960 . S
H2617 C2630 0.961 . S
H2618 C2630 0.959 . S
H2619 C2633 0.929 . S
H2620 C2634 0.931 . S
H2621 C2636 0.930 . S
C2622 H2610 0.930 . S
C2622 C2623 1.399 . S
C2622 C2627 1.399 . S
C2623 C2622 1.399 . S
C2623 C2624 1.376 . S
C2624 H2611 0.930 . S
C2624 C2623 1.376 . S
C2624 C2625 1.388 . S
C2625 H2612 0.930 . S
C2625 C2624 1.388 . S
C2625 C2626 1.390 . S
C2626 C2625 1.390 . S
C2626 C2627 1.394 . S
C2626 C2632 1.465 . S
C2627 C2622 1.399 . S
C2627 C2626 1.394 . S
C2627 C2628 1.516 . S
C2628 C2627 1.516 . S
C2628 C2629 1.502 . S
C2628 C2630 1.561 . S
C2628 C2631 1.526 . S
C2629 H2613 0.959 . S
C2629 H2614 0.959 . S
C2629 H2615 0.961 . S
C2629 C2628 1.502 . S
C2630 H2616 0.960 . S
C2630 H2617 0.961 . S
C2630 H2618 0.959 . S
C2630 C2628 1.561 . S
C2631 C2628 1.526 . S
C2631 C2632 1.396 . S
C2631 C2636 1.390 . S
C2632 C2626 1.465 . S
C2632 C2631 1.396 . S
C2632 C2633 1.399 . S
C2633 H2619 0.929 . S
C2633 C2632 1.399 . S
C2633 C2634 1.385 . S
C2634 H2620 0.931 . S
C2634 C2633 1.385 . S
C2634 C2635 1.389 . S
C2635 C2634 1.389 . S
C2635 C2636 1.387 . S
C2636 H2621 0.930 . S
C2636 C2631 1.390 . S
C2636 C2635 1.387 . S
H2637 C2649 0.930 . S
H2638 C2651 0.930 . S
H2639 C2652 0.930 . S
H2640 C2656 0.959 . S
H2641 C2656 0.959 . S
H2642 C2656 0.961 . S
H2643 C2657 0.960 . S
H2644 C2657 0.961 . S
H2645 C2657 0.959 . S
H2646 C2660 0.929 . S
H2647 C2661 0.931 . S
H2648 C2663 0.930 . S
C2649 H2637 0.930 . S
C2649 C2650 1.399 . S
C2649 C2654 1.399 . S
C2650 C2649 1.399 . S
C2650 C2651 1.376 . S
C2651 H2638 0.930 . S
C2651 C2650 1.376 . S
C2651 C2652 1.388 . S
C2652 H2639 0.930 . S
C2652 C2651 1.388 . S
C2652 C2653 1.390 . S
C2653 C2652 1.390 . S
C2653 C2654 1.394 . S
C2653 C2659 1.465 . S
C2654 C2649 1.399 . S
C2654 C2653 1.394 . S
C2654 C2655 1.516 . S
C2655 C2654 1.516 . S
C2655 C2656 1.502 . S
C2655 C2657 1.561 . S
C2655 C2658 1.526 . S
C2656 H2640 0.959 . S
C2656 H2641 0.959 . S
C2656 H2642 0.961 . S
C2656 C2655 1.502 . S
C2657 H2643 0.960 . S
C2657 H2644 0.961 . S
C2657 H2645 0.959 . S
C2657 C2655 1.561 . S
C2658 C2655 1.526 . S
C2658 C2659 1.396 . S
C2658 C2663 1.390 . S
C2659 C2653 1.465 . S
C2659 C2658 1.396 . S
C2659 C2660 1.399 . S
C2660 H2646 0.929 . S
C2660 C2659 1.399 . S
C2660 C2661 1.385 . S
C2661 H2647 0.931 . S
C2661 C2660 1.385 . S
C2661 C2662 1.389 . S
C2662 C2661 1.389 . S
C2662 C2663 1.387 . S
C2663 H2648 0.930 . S
C2663 C2658 1.390 . S
C2663 C2662 1.387 . S
H2664 C2676 0.930 . S
H2665 C2678 0.930 . S
H2666 C2679 0.930 . S
H2667 C2683 0.959 . S
H2668 C2683 0.959 . S
H2669 C2683 0.961 . S
H2670 C2684 0.960 . S
H2671 C2684 0.961 . S
H2672 C2684 0.959 . S
H2673 C2687 0.929 . S
H2674 C2688 0.931 . S
H2675 C2690 0.930 . S
C2676 H2664 0.930 . S
C2676 C2677 1.399 . S
C2676 C2681 1.399 . S
C2677 C2676 1.399 . S
C2677 C2678 1.376 . S
C2678 H2665 0.930 . S
C2678 C2677 1.376 . S
C2678 C2679 1.388 . S
C2679 H2666 0.930 . S
C2679 C2678 1.388 . S
C2679 C2680 1.390 . S
C2680 C2679 1.390 . S
C2680 C2681 1.394 . S
C2680 C2686 1.465 . S
C2681 C2676 1.399 . S
C2681 C2680 1.394 . S
C2681 C2682 1.516 . S
C2682 C2681 1.516 . S
C2682 C2683 1.502 . S
C2682 C2684 1.561 . S
C2682 C2685 1.526 . S
C2683 H2667 0.959 . S
C2683 H2668 0.959 . S
C2683 H2669 0.961 . S
C2683 C2682 1.502 . S
C2684 H2670 0.960 . S
C2684 H2671 0.961 . S
C2684 H2672 0.959 . S
C2684 C2682 1.561 . S
C2685 C2682 1.526 . S
C2685 C2686 1.396 . S
C2685 C2690 1.390 . S
C2686 C2680 1.465 . S
C2686 C2685 1.396 . S
C2686 C2687 1.399 . S
C2687 H2673 0.929 . S
C2687 C2686 1.399 . S
C2687 C2688 1.385 . S
C2688 H2674 0.931 . S
C2688 C2687 1.385 . S
C2688 C2689 1.389 . S
C2689 C2688 1.389 . S
C2689 C2690 1.387 . S
C2690 H2675 0.930 . S
C2690 C2685 1.390 . S
C2690 C2689 1.387 . S
H2691 C2703 0.930 . S
H2692 C2705 0.930 . S
H2693 C2706 0.930 . S
H2694 C2710 0.959 . S
H2695 C2710 0.959 . S
H2696 C2710 0.961 . S
H2697 C2711 0.960 . S
H2698 C2711 0.961 . S
H2699 C2711 0.959 . S
H2700 C2714 0.929 . S
H2701 C2715 0.931 . S
H2702 C2717 0.930 . S
C2703 H2691 0.930 . S
C2703 C2704 1.399 . S
C2703 C2708 1.399 . S
C2704 C2703 1.399 . S
C2704 C2705 1.376 . S
C2705 H2692 0.930 . S
C2705 C2704 1.376 . S
C2705 C2706 1.388 . S
C2706 H2693 0.930 . S
C2706 C2705 1.388 . S
C2706 C2707 1.390 . S
C2707 C2706 1.390 . S
C2707 C2708 1.394 . S
C2707 C2713 1.465 . S
C2708 C2703 1.399 . S
C2708 C2707 1.394 . S
C2708 C2709 1.516 . S
C2709 C2708 1.516 . S
C2709 C2710 1.502 . S
C2709 C2711 1.561 . S
C2709 C2712 1.526 . S
C2710 H2694 0.959 . S
C2710 H2695 0.959 . S
C2710 H2696 0.961 . S
C2710 C2709 1.502 . S
C2711 H2697 0.960 . S
C2711 H2698 0.961 . S
C2711 H2699 0.959 . S
C2711 C2709 1.561 . S
C2712 C2709 1.526 . S
C2712 C2713 1.396 . S
C2712 C2717 1.390 . S
C2713 C2707 1.465 . S
C2713 C2712 1.396 . S
C2713 C2714 1.399 . S
C2714 H2700 0.929 . S
C2714 C2713 1.399 . S
C2714 C2715 1.385 . S
C2715 H2701 0.931 . S
C2715 C2714 1.385 . S
C2715 C2716 1.389 . S
C2716 C2715 1.389 . S
C2716 C2717 1.387 . S
C2717 H2702 0.930 . S
C2717 C2712 1.390 . S
C2717 C2716 1.387 . S
H2718 C2730 0.930 . S
H2719 C2732 0.930 . S
H2720 C2733 0.930 . S
H2721 C2737 0.959 . S
H2722 C2737 0.959 . S
H2723 C2737 0.961 . S
H2724 C2738 0.960 . S
H2725 C2738 0.961 . S
H2726 C2738 0.959 . S
H2727 C2741 0.929 . S
H2728 C2742 0.931 . S
H2729 C2744 0.930 . S
C2730 H2718 0.930 . S
C2730 C2731 1.399 . S
C2730 C2735 1.399 . S
C2731 C2730 1.399 . S
C2731 C2732 1.376 . S
C2732 H2719 0.930 . S
C2732 C2731 1.376 . S
C2732 C2733 1.388 . S
C2733 H2720 0.930 . S
C2733 C2732 1.388 . S
C2733 C2734 1.390 . S
C2734 C2733 1.390 . S
C2734 C2735 1.394 . S
C2734 C2740 1.465 . S
C2735 C2730 1.399 . S
C2735 C2734 1.394 . S
C2735 C2736 1.516 . S
C2736 C2735 1.516 . S
C2736 C2737 1.502 . S
C2736 C2738 1.561 . S
C2736 C2739 1.526 . S
C2737 H2721 0.959 . S
C2737 H2722 0.959 . S
C2737 H2723 0.961 . S
C2737 C2736 1.502 . S
C2738 H2724 0.960 . S
C2738 H2725 0.961 . S
C2738 H2726 0.959 . S
C2738 C2736 1.561 . S
C2739 C2736 1.526 . S
C2739 C2740 1.396 . S
C2739 C2744 1.390 . S
C2740 C2734 1.465 . S
C2740 C2739 1.396 . S
C2740 C2741 1.399 . S
C2741 H2727 0.929 . S
C2741 C2740 1.399 . S
C2741 C2742 1.385 . S
C2742 H2728 0.931 . S
C2742 C2741 1.385 . S
C2742 C2743 1.389 . S
C2743 C2742 1.389 . S
C2743 C2744 1.387 . S
C2744 H2729 0.930 . S
C2744 C2739 1.390 . S
C2744 C2743 1.387 . S
H2745 C2757 0.930 . S
H2746 C2759 0.943 . S
H2747 C2760 0.930 . S
H2748 C2764 0.959 . S
H2749 C2764 0.959 . S
H2750 C2764 0.964 . S
H2751 C2765 0.960 . S
H2752 C2765 0.961 . S
H2753 C2765 0.959 . S
H2754 C2768 0.929 . S
H2755 C2769 0.931 . S
H2756 C2771 0.930 . S
C2757 H2745 0.930 . S
C2757 C2758 1.399 . S
C2757 C2762 1.399 1_655 S
C2758 C2757 1.399 . S
C2758 C2759 1.402 . S
C2759 H2746 0.943 . S
C2759 C2758 1.402 . S
C2759 C2760 1.351 1_655 S
C2760 H2747 0.930 . S
C2760 C2759 1.351 1_455 S
C2760 C2761 1.390 . S
C2761 C2760 1.390 . S
C2761 C2762 1.394 . S
C2761 C2767 1.465 . S
C2762 C2757 1.399 1_455 S
C2762 C2761 1.394 . S
C2762 C2763 1.516 . S
C2763 C2762 1.516 . S
C2763 C2764 1.502 . S
C2763 C2765 1.561 . S
C2763 C2766 1.526 . S
C2764 H2748 0.959 . S
C2764 H2749 0.959 . S
C2764 H2750 0.964 . S
C2764 C2763 1.502 . S
C2765 H2751 0.960 . S
C2765 H2752 0.961 . S
C2765 H2753 0.959 . S
C2765 C2763 1.561 . S
C2766 C2763 1.526 . S
C2766 C2767 1.396 . S
C2766 C2771 1.390 . S
C2767 C2761 1.465 . S
C2767 C2766 1.396 . S
C2767 C2768 1.399 . S
C2768 H2754 0.929 . S
C2768 C2767 1.399 . S
C2768 C2769 1.385 . S
C2769 H2755 0.931 . S
C2769 C2768 1.385 . S
C2769 C2770 1.389 . S
C2770 C2769 1.389 . S
C2770 C2771 1.387 . S
C2771 H2756 0.930 . S
C2771 C2766 1.390 . S
C2771 C2770 1.387 . S
H2772 C2784 0.930 . S
H2773 C2786 0.930 . S
H2774 C2787 0.930 . S
H2775 C2791 0.959 . S
H2776 C2791 0.959 . S
H2777 C2791 0.961 . S
H2778 C2792 0.960 . S
H2779 C2792 0.961 . S
H2780 C2792 0.959 . S
H2781 C2795 0.929 . S
H2782 C2796 0.931 . S
H2783 C2798 0.930 . S
C2784 H2772 0.930 . S
C2784 C2785 1.399 . S
C2784 C2789 1.399 . S
C2785 C2784 1.399 . S
C2785 C2786 1.376 . S
C2786 H2773 0.930 . S
C2786 C2785 1.376 . S
C2786 C2787 1.388 . S
C2787 H2774 0.930 . S
C2787 C2786 1.388 . S
C2787 C2788 1.390 . S
C2788 C2787 1.390 . S
C2788 C2789 1.394 . S
C2788 C2794 1.465 . S
C2789 C2784 1.399 . S
C2789 C2788 1.394 . S
C2789 C2790 1.516 . S
C2790 C2789 1.516 . S
C2790 C2791 1.502 . S
C2790 C2792 1.561 . S
C2790 C2793 1.526 . S
C2791 H2775 0.959 . S
C2791 H2776 0.959 . S
C2791 H2777 0.961 . S
C2791 C2790 1.502 . S
C2792 H2778 0.960 . S
C2792 H2779 0.961 . S
C2792 H2780 0.959 . S
C2792 C2790 1.561 . S
C2793 C2790 1.526 . S
C2793 C2794 1.396 . S
C2793 C2798 1.390 . S
C2794 C2788 1.465 . S
C2794 C2793 1.396 . S
C2794 C2795 1.399 . S
C2795 H2781 0.929 . S
C2795 C2794 1.399 . S
C2795 C2796 1.385 . S
C2796 H2782 0.931 . S
C2796 C2795 1.385 . S
C2796 C2797 1.389 . S
C2797 C2796 1.389 . S
C2797 C2798 1.387 . S
C2798 H2783 0.930 . S
C2798 C2793 1.390 . S
C2798 C2797 1.387 . S
H2799 C2811 0.930 . S
H2800 C2813 0.930 . S
H2801 C2814 0.930 . S
H2802 C2818 0.959 . S
H2803 C2818 0.959 . S
H2804 C2818 0.961 . S
H2805 C2819 0.960 . S
H2806 C2819 0.934 1_655 S
H2807 C2819 0.959 . S
H2808 C2822 0.929 . S
H2809 C2823 0.922 1_655 S
H2810 C2825 0.930 . S
C2811 H2799 0.930 . S
C2811 C2812 1.399 . S
C2811 C2816 1.399 . S
C2812 C2811 1.399 . S
C2812 C2813 1.376 . S
C2813 H2800 0.930 . S
C2813 C2812 1.376 . S
C2813 C2814 1.388 . S
C2814 H2801 0.930 . S
C2814 C2813 1.388 . S
C2814 C2815 1.390 . S
C2815 C2814 1.390 . S
C2815 C2816 1.394 . S
C2815 C2821 1.465 . S
C2816 C2811 1.399 . S
C2816 C2815 1.394 . S
C2816 C2817 1.516 . S
C2817 C2816 1.516 . S
C2817 C2818 1.502 . S
C2817 C2819 1.561 . S
C2817 C2820 1.526 . S
C2818 H2802 0.959 . S
C2818 H2803 0.959 . S
C2818 H2804 0.961 . S
C2818 C2817 1.502 . S
C2819 H2805 0.960 . S
C2819 H2806 0.934 1_455 S
C2819 H2807 0.959 . S
C2819 C2817 1.561 . S
C2820 C2817 1.526 . S
C2820 C2821 1.396 . S
C2820 C2825 1.390 1_455 S
C2821 C2815 1.465 . S
C2821 C2820 1.396 . S
C2821 C2822 1.399 . S
C2822 H2808 0.929 . S
C2822 C2821 1.399 . S
C2822 C2823 1.420 . S
C2823 H2809 0.922 1_455 S
C2823 C2822 1.420 . S
C2823 C2824 1.364 1_455 S
C2824 C2823 1.364 1_655 S
C2824 C2825 1.387 . S
C2825 H2810 0.930 . S
C2825 C2820 1.390 1_655 S
C2825 C2824 1.387 . S
H2826 C2838 0.930 . S
H2827 C2840 0.930 . S
H2828 C2841 0.930 . S
H2829 C2845 0.959 . S
H2830 C2845 0.959 . S
H2831 C2845 0.961 . S
H2832 C2846 0.960 . S
H2833 C2846 0.961 . S
H2834 C2846 0.959 . S
H2835 C2849 0.929 . S
H2836 C2850 0.931 . S
H2837 C2852 0.930 . S
C2838 H2826 0.930 . S
C2838 C2839 1.399 . S
C2838 C2843 1.399 . S
C2839 C2838 1.399 . S
C2839 C2840 1.376 . S
C2840 H2827 0.930 . S
C2840 C2839 1.376 . S
C2840 C2841 1.388 . S
C2841 H2828 0.930 . S
C2841 C2840 1.388 . S
C2841 C2842 1.390 . S
C2842 C2841 1.390 . S
C2842 C2843 1.394 . S
C2842 C2848 1.465 . S
C2843 C2838 1.399 . S
C2843 C2842 1.394 . S
C2843 C2844 1.516 . S
C2844 C2843 1.516 . S
C2844 C2845 1.502 . S
C2844 C2846 1.561 . S
C2844 C2847 1.526 . S
C2845 H2829 0.959 . S
C2845 H2830 0.959 . S
C2845 H2831 0.961 . S
C2845 C2844 1.502 . S
C2846 H2832 0.960 . S
C2846 H2833 0.961 . S
C2846 H2834 0.959 . S
C2846 C2844 1.561 . S
C2847 C2844 1.526 . S
C2847 C2848 1.396 . S
C2847 C2852 1.390 . S
C2848 C2842 1.465 . S
C2848 C2847 1.396 . S
C2848 C2849 1.399 . S
C2849 H2835 0.929 . S
C2849 C2848 1.399 . S
C2849 C2850 1.385 . S
C2850 H2836 0.931 . S
C2850 C2849 1.385 . S
C2850 C2851 1.389 . S
C2851 C2850 1.389 . S
C2851 C2852 1.387 . S
C2852 H2837 0.930 . S
C2852 C2847 1.390 . S
C2852 C2851 1.387 . S
H2853 C2865 0.930 . S
H2854 C2867 0.930 . S
H2855 C2868 0.930 . S
H2856 C2872 0.959 . S
H2857 C2872 0.959 . S
H2858 C2872 0.961 . S
H2859 C2873 0.960 . S
H2860 C2873 0.961 . S
H2861 C2873 0.959 . S
H2862 C2876 0.929 . S
H2863 C2877 0.931 . S
H2864 C2879 0.930 . S
C2865 H2853 0.930 . S
C2865 C2866 1.399 . S
C2865 C2870 1.399 . S
C2866 C2865 1.399 . S
C2866 C2867 1.376 . S
C2867 H2854 0.930 . S
C2867 C2866 1.376 . S
C2867 C2868 1.388 . S
C2868 H2855 0.930 . S
C2868 C2867 1.388 . S
C2868 C2869 1.390 . S
C2869 C2868 1.390 . S
C2869 C2870 1.394 . S
C2869 C2875 1.465 . S
C2870 C2865 1.399 . S
C2870 C2869 1.394 . S
C2870 C2871 1.516 . S
C2871 C2870 1.516 . S
C2871 C2872 1.502 . S
C2871 C2873 1.561 . S
C2871 C2874 1.526 . S
C2872 H2856 0.959 . S
C2872 H2857 0.959 . S
C2872 H2858 0.961 . S
C2872 C2871 1.502 . S
C2873 H2859 0.960 . S
C2873 H2860 0.961 . S
C2873 H2861 0.959 . S
C2873 C2871 1.561 . S
C2874 C2871 1.526 . S
C2874 C2875 1.396 . S
C2874 C2879 1.390 . S
C2875 C2869 1.465 . S
C2875 C2874 1.396 . S
C2875 C2876 1.399 . S
C2876 H2862 0.929 . S
C2876 C2875 1.399 . S
C2876 C2877 1.385 . S
C2877 H2863 0.931 . S
C2877 C2876 1.385 . S
C2877 C2878 1.389 . S
C2878 C2877 1.389 . S
C2878 C2879 1.387 . S
C2879 H2864 0.930 . S
C2879 C2874 1.390 . S
C2879 C2878 1.387 . S
C1165 C148 1.495 . S
C1177 C4 1.490 . S
C1192 C184 1.504 . S
C1204 C40 1.496 . S
C1219 C220 1.499 . S
C1231 C76 1.488 . S
C1246 C112 1.489 . S
C1258 C256 1.496 . S
C1273 C292 1.489 . S
C1285 C436 1.502 . S
C1300 C472 1.493 . S
C1312 C328 1.503 . S
C1327 C364 1.488 . S
C1339 C508 1.502 . S
C1354 C544 1.493 . S
C1366 C400 1.503 . S
C1381 C580 1.492 . S
C1393 C724 1.505 . S
C1408 C760 1.505 . S
C1420 C616 1.493 . S
C1435 C796 1.499 . S
C1447 C652 1.488 . S
C1462 C832 1.503 . S
C1474 C688 1.497 . S
C1489 C868 1.504 . S
C1501 C1012 1.492 . S
C1516 C904 1.501 . S
C1528 C1048 1.489 . S
C1543 C940 1.502 . S
C1555 C1084 1.495 . S
C1570 C976 1.493 . S
C1582 C1120 1.503 . S
C1597 C14 1.133 . S
C1609 C266 1.076 . S
C1624 C50 1.119 . S
C1636 C158 1.116 . S
C1651 C86 1.130 . S
C1663 C194 1.100 . S
C1678 C230 1.130 . S
C1690 C122 1.099 . S
C1705 C554 1.095 . S
C1717 C302 1.130 . S
C1732 C446 1.111 . S
C1744 C338 1.133 . S
C1759 C482 1.050 . S
C1771 C374 1.015 1_565 S
C1786 C410 1.102 . S
C1798 C518 1.069 . S
C1813 C842 1.127 . S
C1825 C590 1.056 . S
C1840 C734 1.035 . S
C1852 C626 1.063 . S
C1867 C770 1.129 . S
C1879 C662 1.059 . S
C1894 C698 1.121 . S
C1906 C806 1.046 . S
C1921 C878 1.079 . S
C1933 C1130 1.037 . S
C1948 C914 1.037 . S
C1960 C1022 1.037 . S
C1975 C950 1.064 . S
C1987 C1058 1.032 . S
C2002 C1094 1.109 . S
C2014 C986 1.133 . S
C2029 C3 1.447 . S
C2041 C902 1.438 . S
C2056 C39 1.449 . S
C2068 C362 1.398 . S
C2083 C75 1.448 . S
C2095 C974 1.448 . S
C2110 C290 1.422 . S
C2122 C111 1.447 . S
C2137 C1118 1.447 . S
C2149 C147 1.452 . S
C2164 C183 1.447 . S
C2176 C434 1.432 . S
C2191 C219 1.452 . S
C2203 C1046 1.401 . S
C2218 C255 1.451 . S
C2230 C506 1.449 . S
C2245 C614 1.448 . S
C2257 C291 1.447 . S
C2272 C74 1.405 . S
C2284 C327 1.450 . S
C2299 C686 1.452 . S
C2311 C363 1.448 . S
C2326 C399 1.447 . S
C2338 C2 1.450 . S
C2353 C830 1.437 . S
C2365 C435 1.452 . S
C2380 C146 1.445 . S
C2392 C471 1.451 . S
C2407 C758 1.416 . S
C2419 C507 1.448 . S
C2434 C218 1.398 . S
C2446 C543 1.453 . S
C2461 C326 1.444 . S
C2473 C579 1.453 . S
C2488 C615 1.452 . S
C2500 C938 1.406 . S
C2515 C651 1.452 . S
C2527 C398 1.406 . S
C2542 C687 1.453 . S
C2554 C866 1.428 . S
C2569 C723 1.448 . S
C2581 C542 1.446 . S
C2596 C1010 1.427 . S
C2608 C759 1.453 . S
C2623 C795 1.452 . S
C2635 C470 1.401 . S
C2650 C831 1.449 . S
C2662 C1082 1.397 . S
C2677 C867 1.453 . S
C2689 C38 1.416 . S
C2704 C903 1.447 . S
C2716 C650 1.440 . S
C2731 C110 1.398 . S
C2743 C939 1.453 . S
C2758 C578 1.442 . S
C2770 C975 1.451 . S
C2785 C1011 1.452 . S
C2797 C254 1.436 . S
C2812 C1047 1.450 . S
C2824 C722 1.445 . S
C2839 C182 1.401 . S
C2851 C1083 1.453 . S
C2866 C794 1.433 . S
C2878 C1119 1.452 . S
