# Generated by pormake.
# Topology ukg, (4)-cn, num edge types: 1
# Building blocks:
#     Node 0, Type 0, BuildingBlock: KOZSID_clean_sbu_0, # of connection points: 4
#     Node 1, Type 0, BuildingBlock: KOZSID_clean_sbu_0, # of connection points: 4
#     Node 2, Type 0, BuildingBlock: KOZSID_clean_sbu_0, # of connection points: 4
#     Node 3, Type 0, BuildingBlock: KOZSID_clean_sbu_0, # of connection points: 4
#     Node 4, Type 0, BuildingBlock: KOZSID_clean_sbu_0, # of connection points: 4
#     Node 5, Type 0, BuildingBlock: KOZSID_clean_sbu_0, # of connection points: 4
#     Node 6, Type 0, BuildingBlock: KOZSID_clean_sbu_0, # of connection points: 4
#     Node 7, Type 0, BuildingBlock: KOZSID_clean_sbu_0, # of connection points: 4
#     Edge 8, Type (0, 0), BuildingBlock: OJICUG_clean_linker_0, # of connection points: 2
#     Edge 9, Type (0, 0), BuildingBlock: OJICUG_clean_linker_0, # of connection points: 2
#     Edge 10, Type (0, 0), BuildingBlock: OJICUG_clean_linker_0, # of connection points: 2
#     Edge 11, Type (0, 0), BuildingBlock: OJICUG_clean_linker_0, # of connection points: 2
#     Edge 12, Type (0, 0), BuildingBlock: OJICUG_clean_linker_0, # of connection points: 2
#     Edge 13, Type (0, 0), BuildingBlock: OJICUG_clean_linker_0, # of connection points: 2
#     Edge 14, Type (0, 0), BuildingBlock: OJICUG_clean_linker_0, # of connection points: 2
#     Edge 15, Type (0, 0), BuildingBlock: OJICUG_clean_linker_0, # of connection points: 2
#     Edge 16, Type (0, 0), BuildingBlock: OJICUG_clean_linker_0, # of connection points: 2
#     Edge 17, Type (0, 0), BuildingBlock: OJICUG_clean_linker_0, # of connection points: 2
#     Edge 18, Type (0, 0), BuildingBlock: OJICUG_clean_linker_0, # of connection points: 2
#     Edge 19, Type (0, 0), BuildingBlock: OJICUG_clean_linker_0, # of connection points: 2
#     Edge 20, Type (0, 0), BuildingBlock: OJICUG_clean_linker_0, # of connection points: 2
#     Edge 21, Type (0, 0), BuildingBlock: OJICUG_clean_linker_0, # of connection points: 2
#     Edge 22, Type (0, 0), BuildingBlock: OJICUG_clean_linker_0, # of connection points: 2
#     Edge 23, Type (0, 0), BuildingBlock: OJICUG_clean_linker_0, # of connection points: 2
# Relax obj value: 0.110
# Max RMSD: 0.261
# Mean RMSD: 0.247
data_MOF--net-ukg--node1-KOZSID_clean_sbu_0--edge1-OJICUG_clean_linker_0
_symmetry_space_group_name_H-M    P1
_symmetry_Int_Tables_number       1
_symmetry_cell_setting            triclinic
loop_
_symmetry_equiv_pos_as_xyz
'x, y, z'
_cell_length_a     27.458449
_cell_length_b     27.54505
_cell_length_c     37.619159
_cell_angle_alpha  90.490508
_cell_angle_beta   89.485971
_cell_angle_gamma 89.984283
loop_
_atom_site_label
_atom_site_type_symbol
_atom_site_fract_x
_atom_site_fract_y
_atom_site_fract_z
_atom_type_partial_charge
C0 C 0.93476 0.63258 0.17942 0.0
C1 C 0.89437 0.65793 0.16763 0.0
C2 C 0.91005 0.7036 0.1592 0.0
C3 C 0.95904 0.70357 0.16598 0.0
N4 N 0.9755 0.66055 0.17767 0.0
Co5 Co 0.04426 0.6458 0.19059 0.0
N6 N 0.06972 0.70581 0.16718 0.0
C7 C 0.04228 0.74384 0.15725 0.0
C8 C 0.06906 0.78185 0.14427 0.0
C9 C 0.11657 0.76737 0.14653 0.0
C10 C 0.11627 0.72091 0.16062 0.0
N11 N 0.11305 0.63099 0.20369 0.0
C12 C 0.1558 0.65026 0.19196 0.0
C13 C 0.19532 0.6251 0.20551 0.0
C14 C 0.17698 0.59098 0.228 0.0
C15 C 0.12747 0.59622 0.22631 0.0
N16 N 1.01937 0.58572 0.21403 0.0
C17 C 0.04444 0.55767 0.23663 0.0
C18 C 1.01841 0.519 0.24922 0.0
C19 C 0.97375 0.52287 0.23393 0.0
C20 C 0.97506 0.56388 0.21259 0.0
N21 N 0.05181 0.60943 0.14557 0.0
C22 C 0.04404 0.55228 0.08356 0.0
C23 C 0.06714 0.53426 0.11385 0.0
C24 C 0.07039 0.5633 0.14465 0.0
C25 C 0.02771 0.60033 0.08431 0.0
C26 C 0.03264 0.62837 0.1152 0.0
N27 N 0.0343 0.68297 0.2352 0.0
C28 C 0.97527 0.71219 0.27818 0.0
C29 C 1.00341 0.75348 0.28502 0.0
C30 C 0.05003 0.75585 0.26942 0.0
C31 C 0.06495 0.71995 0.24481 0.0
C32 C 0.99142 0.67743 0.25358 0.0
H33 H 0.09989 0.72402 0.23191 0.0
H34 H 0.96706 0.64804 0.24767 0.0
H35 H 0.08618 0.54773 0.16804 0.0
H36 H 1.01883 0.66486 0.11481 0.0
C37 C 0.99148 0.74105 0.15801 0.0
C38 C 0.9317 0.58407 0.19548 0.0
C39 C 0.16091 0.69506 0.17118 0.0
C40 C 0.09397 0.56475 0.24163 0.0
H41 H 0.85721 0.64505 0.16602 0.0
H42 H 0.88844 0.73302 0.14877 0.0
H43 H 0.05566 0.81608 0.13435 0.0
H44 H 0.1478 0.78937 0.13961 0.0
H45 H 0.23361 0.6311 0.20016 0.0
H46 H 0.1973 0.56443 0.24287 0.0
H47 H 0.03073 0.49076 0.26684 0.0
H48 H 0.94349 0.49867 0.23881 0.0
H49 H 0.08062 0.49731 0.11427 0.0
H50 H 1.01051 0.61598 0.06127 0.0
H51 H 0.93967 0.70789 0.29041 0.0
H52 H 0.07349 0.78674 0.2743 0.0
C53 C 0.43926 0.51845 0.60767 0.0
C54 C 0.47836 0.55037 0.60662 0.0
C55 C 0.4726 0.58171 0.63496 0.0
C56 C 0.43038 0.56743 0.65169 0.0
N57 N 0.40957 0.52879 0.63578 0.0
Co58 Co 0.34734 0.49812 0.65066 0.0
N59 N 0.35013 0.5279 0.69886 0.0
C60 C 0.37711 0.56665 0.70814 0.0
C61 C 0.3717 0.57883 0.74347 0.0
C62 C 0.3391 0.54578 0.75708 0.0
C63 C 0.32633 0.51528 0.72917 0.0
N64 N 0.28517 0.4674 0.66542 0.0
C65 C 0.26694 0.45976 0.69843 0.0
C66 C 0.22159 0.4375 0.69682 0.0
C67 C 0.21141 0.431 0.6615 0.0
C68 C 0.25083 0.44969 0.64358 0.0
N69 N 0.34389 0.46842 0.60252 0.0
C70 C 0.30379 0.44925 0.58754 0.0
C71 C 0.31262 0.42961 0.5545 0.0
C72 C 0.36113 0.43737 0.5481 0.0
C73 C 0.37921 0.46214 0.57751 0.0
N74 N 0.3835 0.44212 0.66803 0.0
C75 C 0.43036 0.3642 0.70099 0.0
C76 C 0.39107 0.35623 0.67791 0.0
C77 C 0.36815 0.39569 0.66171 0.0
C78 C 0.44688 0.41191 0.70561 0.0
C79 C 0.42328 0.45001 0.68886 0.0
N80 N 0.31177 0.55528 0.63396 0.0
C81 C 0.30954 0.62548 0.59621 0.0
C82 C 0.27481 0.64749 0.61857 0.0
C83 C 0.25643 0.62098 0.64728 0.0
C84 C 0.27552 0.57514 0.65463 0.0
C85 C 0.32684 0.57899 0.60398 0.0
H86 H 0.26274 0.55701 0.67821 0.0
H87 H 0.35429 0.56337 0.5867 0.0
H88 H 0.33716 0.38885 0.64496 0.0
H89 H 0.4362 0.48621 0.69406 0.0
C90 C 0.41294 0.58446 0.68477 0.0
C91 C 0.42875 0.48236 0.57962 0.0
C92 C 0.28983 0.47633 0.73149 0.0
C93 C 0.26099 0.44309 0.60741 0.0
H94 H 0.5075 0.55144 0.58708 0.0
H95 H 0.49696 0.61067 0.64285 0.0
H96 H 0.39071 0.60699 0.75801 0.0
H97 H 0.32629 0.54431 0.78433 0.0
H98 H 0.19821 0.42723 0.71881 0.0
H99 H 0.17999 0.41294 0.65032 0.0
H100 H 0.28733 0.41015 0.53768 0.0
H101 H 0.38068 0.42608 0.52435 0.0
H102 H 0.37736 0.31998 0.67298 0.0
H103 H 0.47637 0.42045 0.72352 0.0
H104 H 0.32412 0.64458 0.57342 0.0
H105 H 0.22956 0.63672 0.66522 0.0
C106 C 0.57441 0.85317 0.17876 0.0
C107 C 0.61377 0.83947 0.15755 0.0
C108 C 0.59499 0.81671 0.12814 0.0
C109 C 0.54538 0.8178 0.13295 0.0
N110 N 0.53175 0.83918 0.16378 0.0
Co111 Co 0.46329 0.85047 0.17973 0.0
N112 N 0.43674 0.80331 0.14429 0.0
C113 C 0.46103 0.78565 0.11573 0.0
C114 C 0.43469 0.7518 0.09708 0.0
C115 C 0.39091 0.7483 0.11472 0.0
C116 C 0.39252 0.78092 0.14303 0.0
N117 N 0.39487 0.86218 0.19542 0.0
C118 C 0.35356 0.83699 0.18835 0.0
C119 C 0.31287 0.86087 0.20211 0.0
C120 C 0.32935 0.90188 0.21879 0.0
C121 C 0.37888 0.90112 0.21401 0.0
N122 N 0.48877 0.89793 0.21519 0.0
C123 C 0.46228 0.93142 0.23312 0.0
C124 C 0.48922 0.95881 0.25631 0.0
C125 C 0.53586 0.94213 0.2524 0.0
C126 C 0.53478 0.90564 0.22664 0.0
N127 N 0.45836 0.90268 0.14445 0.0
C128 C 0.46374 0.96535 0.08552 0.0
C129 C 0.50066 0.96417 0.11101 0.0
C130 C 0.49685 0.93366 0.14023 0.0
C131 C 0.4224 0.93612 0.09165 0.0
C132 C 0.42052 0.90502 0.12111 0.0
N133 N 0.4708 0.79777 0.21434 0.0
C134 C 0.47886 0.77038 0.27497 0.0
C135 C 0.50407 0.72868 0.26326 0.0
C136 C 0.50855 0.7208 0.22661 0.0
C137 C 0.49175 0.75534 0.20285 0.0
C138 C 0.46244 0.80453 0.25 0.0
H139 H 0.49839 0.74853 0.1751 0.0
H140 H 0.44504 0.83731 0.2596 0.0
H141 H 0.52682 0.93353 0.15834 0.0
H142 H 0.38926 0.88166 0.12428 0.0
C143 C 0.51093 0.79475 0.11136 0.0
C144 C 0.57876 0.88414 0.21061 0.0
C145 C 0.35092 0.7922 0.16693 0.0
C146 C 0.4117 0.93241 0.23048 0.0
H147 H 0.65196 0.84627 0.16244 0.0
H148 H 0.61518 0.80076 0.10613 0.0
H149 H 0.44672 0.73035 0.07441 0.0
H150 H 0.36164 0.72405 0.10751 0.0
H151 H 0.27509 0.85017 0.2 0.0
H152 H 0.30786 0.92844 0.23339 0.0
H153 H 0.47641 0.98697 0.27432 0.0
H154 H 0.56729 0.95624 0.26623 0.0
H155 H 0.53378 0.98502 0.10797 0.0
H156 H 0.39194 0.93644 0.07362 0.0
H157 H 0.47385 0.77764 0.3031 0.0
H158 H 0.52631 0.6885 0.21616 0.0
C159 C 0.0588 0.98233 0.60919 0.0
C160 C 1.0191 0.95119 0.60789 0.0
C161 C 0.02364 0.91985 0.63589 0.0
C162 C 0.06579 0.93336 0.65271 0.0
N163 N 0.08768 0.9715 0.63713 0.0
Co164 Co 0.15007 1.00117 0.65218 0.0
N165 N 0.14551 0.97198 0.70013 0.0
C166 C 0.11767 0.93379 0.70917 0.0
C167 C 0.122 0.92201 0.74445 0.0
C168 C 0.15477 0.95475 0.75825 0.0
C169 C 0.1687 0.98468 0.73052 0.0
N170 N 0.21242 0.03087 0.66704 0.0
C171 C 0.2299 0.03864 0.70008 0.0
C172 C 0.27578 0.05985 0.69862 0.0
C173 C 0.28708 0.06552 0.66334 0.0
C174 C 0.24774 0.04742 0.6453 0.0
N175 N 0.1553 0.03026 0.60428 0.0
C176 C 0.19618 0.04824 0.58932 0.0
C177 C 0.18851 0.06765 0.55641 0.0
C178 C 0.13995 0.06102 0.55008 0.0
C179 C 0.12067 0.03711 0.57942 0.0
N180 N 0.11452 0.05803 0.67001 0.0
C181 C 0.0686 0.13692 0.70411 0.0
C182 C 0.10869 0.14405 0.68118 0.0
C183 C 0.13109 0.10412 0.66436 0.0
C184 C 0.05084 0.08959 0.70798 0.0
C185 C 0.074 0.05102 0.69069 0.0
N186 N 0.18499 0.94315 0.63512 0.0
C187 C 0.18709 0.87232 0.59706 0.0
C188 C 0.2212 0.8503 0.6192 0.0
C189 C 0.23927 0.877 0.64801 0.0
C190 C 0.22054 0.92312 0.65564 0.0
C191 C 0.17018 0.91915 0.60509 0.0
H192 H 0.23305 0.94139 0.6793 0.0
H193 H 0.14327 0.93488 0.58796 0.0
H194 H 0.16266 0.11028 0.64772 0.0
H195 H 0.06014 1.01511 0.69541 0.0
C196 C 0.0821 0.91631 0.68566 0.0
C197 C 0.07061 1.01822 0.5816 0.0
C198 C 0.20564 0.02316 0.73299 0.0
C199 C 0.23868 0.05369 0.60916 0.0
H200 H 0.99034 0.95068 0.58841 0.0
H201 H 0.99851 0.89146 0.64356 0.0
H202 H 0.10217 0.89436 0.75883 0.0
H203 H 0.16693 0.95642 0.78551 0.0
H204 H 0.29879 0.06997 0.72068 0.0
H205 H 0.3192 0.08269 0.65228 0.0
H206 H 0.21461 0.08626 0.53964 0.0
H207 H 0.12116 0.07247 0.52644 0.0
H208 H 0.12338 0.17999 0.67683 0.0
H209 H 0.02067 0.08169 0.72572 0.0
H210 H 0.17276 0.85304 0.57422 0.0
H211 H 0.26565 0.86122 0.66579 0.0
C212 C 0.0245 0.37616 0.96347 0.0
C213 C 0.04164 0.35592 0.99468 0.0
C214 C 0.05849 0.31073 0.98613 0.0
C215 C 0.0501 0.30554 0.95047 0.0
N216 N 0.02824 0.34432 0.93579 0.0
Co217 Co 1.00846 0.35037 0.88494 0.0
N218 N 0.02204 0.28005 0.87507 0.0
C219 C 0.04384 0.24863 0.8971 0.0
C220 C 0.04712 0.2023 0.88372 0.0
C221 C 0.02677 0.20448 0.85082 0.0
C222 C 1.01233 0.25228 0.84596 0.0
N223 N 0.99012 0.35663 0.83378 0.0
C224 C 0.98651 0.32257 0.80759 0.0
C225 C 0.97558 0.34346 0.7752 0.0
C226 C 0.97304 0.39243 0.78103 0.0
C227 C 0.98253 0.3986 0.81651 0.0
N228 N 0.99363 0.42038 0.89531 0.0
C229 C 0.98475 0.4547 0.87087 0.0
C230 C 0.9777 0.5001 0.88518 0.0
C231 C 0.98311 0.49455 0.92097 0.0
C232 C 0.99306 0.44577 0.92657 0.0
N233 N 0.07614 0.36784 0.87146 0.0
C234 C 0.16268 0.4033 0.8401 0.0
C235 C 0.14219 0.42608 0.87024 0.0
C236 C 0.09953 0.4072 0.88594 0.0
C237 C 0.14082 0.36061 0.82782 0.0
C238 C 0.09809 0.34378 0.84369 0.0
N239 N 0.94036 0.33294 0.89714 0.0
C240 C 0.85467 0.33902 0.88342 0.0
C241 C 0.84383 0.29852 0.90432 0.0
C242 C 0.88203 0.27733 0.92323 0.0
C243 C 0.92989 0.29482 0.91913 0.0
C244 C 0.90268 0.35597 0.88064 0.0
H245 H 0.95844 0.27621 0.93284 0.0
H246 H 0.90927 0.38685 0.86403 0.0
H247 H 0.08472 0.42576 0.90886 0.0
H248 H 0.08176 0.31259 0.83187 0.0
C249 C 0.0571 0.26284 0.93116 0.0
C250 C 1.00821 0.42674 0.96115 0.0
C251 C 0.99799 0.27101 0.81126 0.0
C252 C 0.9813 0.44267 0.83493 0.0
H253 H 0.04233 0.37222 0.02094 0.0
H254 H 0.07388 0.28431 1.00397 0.0
H255 H 0.06237 0.1707 0.89641 0.0
H256 H 0.02458 0.17471 0.83193 0.0
H257 H 0.9711 0.32518 0.74985 0.0
H258 H 0.96513 0.42019 0.76172 0.0
H259 H 0.96999 0.5334 0.87122 0.0
H260 H 0.98172 0.52358 0.9405 0.0
H261 H 0.15834 0.45877 0.88115 0.0
H262 H 0.15481 0.34164 0.80454 0.0
H263 H 0.82624 0.35717 0.86881 0.0
H264 H 0.87541 0.24602 0.93981 0.0
C265 C 0.56503 0.52451 0.32623 0.0
C266 C 0.52362 0.52442 0.30519 0.0
C267 C 0.52043 0.4794 0.29004 0.0
C268 C 0.55979 0.4545 0.3025 0.0
N269 N 0.58758 0.48053 0.32505 0.0
Co270 Co 0.64807 0.45697 0.34879 0.0
N271 N 0.63502 0.38796 0.33487 0.0
C272 C 0.60058 0.37268 0.31205 0.0
C273 C 0.59726 0.32321 0.30919 0.0
C274 C 0.63225 0.30577 0.33117 0.0
C275 C 0.65581 0.34581 0.34575 0.0
N276 N 0.7086 0.4329 0.37234 0.0
C277 C 0.72471 0.38689 0.37858 0.0
C278 C 0.77073 0.38763 0.3936 0.0
C279 C 0.78401 0.43533 0.39671 0.0
C280 C 0.74571 0.46113 0.38334 0.0
N281 N 0.66097 0.52597 0.36269 0.0
C282 C 0.70327 0.54317 0.37556 0.0
C283 C 0.70269 0.59229 0.38188 0.0
C284 C 0.65739 0.60736 0.37185 0.0
C285 C 0.63285 0.56648 0.35976 0.0
N286 N 0.61116 0.44856 0.39346 0.0
C287 C 0.5542 0.45306 0.45592 0.0
C288 C 0.60334 0.46626 0.45627 0.0
C289 C 0.63094 0.4641 0.42486 0.0
C290 C 0.53483 0.43496 0.42407 0.0
C291 C 0.56408 0.43229 0.39335 0.0
N292 N 0.68575 0.46741 0.30459 0.0
C293 C 0.7598 0.4531 0.27098 0.0
C294 C 0.75656 0.49939 0.25584 0.0
C295 C 0.71432 0.52648 0.26235 0.0
C296 C 0.67939 0.50973 0.2864 0.0
C297 C 0.72371 0.4376 0.29507 0.0
H298 H 0.64914 0.53321 0.29202 0.0
H299 H 0.72838 0.40297 0.30768 0.0
H300 H 0.66779 0.47704 0.42592 0.0
H301 H 0.54792 0.41869 0.36929 0.0
C302 C 0.56811 0.40523 0.29718 0.0
C303 C 0.58527 0.569 0.3421 0.0
C304 C 0.70039 0.34181 0.36699 0.0
C305 C 0.7414 0.51166 0.38358 0.0
H306 H 0.49887 0.5541 0.30031 0.0
H307 H 0.49229 0.46618 0.27247 0.0
H308 H 0.57151 0.30227 0.29374 0.0
H309 H 0.6399 0.26777 0.33556 0.0
H310 H 0.7931 0.35694 0.4007 0.0
H311 H 0.81753 0.44949 0.40761 0.0
H312 H 0.73167 0.6145 0.39258 0.0
H313 H 0.64431 0.64444 0.37236 0.0
H314 H 0.61979 0.48049 0.48026 0.0
H315 H 0.49712 0.42362 0.42279 0.0
H316 H 0.79151 0.43048 0.26625 0.0
H317 H 0.70946 0.56179 0.2504 0.0
C318 C 0.46722 0.13082 0.95912 0.0
C319 C 0.44224 0.14891 0.98872 0.0
C320 C 0.42381 0.19293 0.97949 0.0
C321 C 0.43802 0.19917 0.94487 0.0
N322 N 0.46478 0.16211 0.93148 0.0
Co323 Co 0.48747 0.15527 0.88104 0.0
N324 N 0.47182 0.22465 0.87073 0.0
C325 C 0.44685 0.25552 0.89204 0.0
C326 C 0.44266 0.30136 0.87856 0.0
C327 C 0.46576 0.29935 0.84631 0.0
C328 C 0.48253 0.25205 0.84188 0.0
N329 N 0.50852 0.14811 0.83018 0.0
C330 C 0.51265 0.18162 0.80404 0.0
C331 C 0.52582 0.16021 0.77185 0.0
C332 C 0.52937 0.11146 0.77779 0.0
C333 C 0.51817 0.1059 0.81313 0.0
N334 N 0.50424 0.08624 0.8918 0.0
C335 C 0.51608 0.05156 0.86776 0.0
C336 C 0.52695 1.0077 0.88271 0.0
C337 C 0.52092 1.01471 0.9185 0.0
C338 C 0.50602 0.06251 0.92335 0.0
N339 N 0.42118 0.13511 0.86704 0.0
C340 C 0.33426 0.09841 0.83799 0.0
C341 C 0.3549 0.0772 0.86812 0.0
C342 C 0.39786 0.09662 0.88259 0.0
C343 C 0.35669 0.13974 0.82409 0.0
C344 C 0.39969 0.15717 0.8388 0.0
N345 N 0.5542 0.17542 0.89404 0.0
C346 C 0.64069 0.17168 0.88168 0.0
C347 C 0.64911 0.21297 0.9027 0.0
C348 C 0.60923 0.23351 0.92094 0.0
C349 C 0.56216 0.21443 0.91609 0.0
C350 C 0.59344 0.15319 0.87815 0.0
H351 H 0.53212 0.23237 0.92928 0.0
H352 H 0.58876 0.12173 0.86148 0.0
H353 H 0.41279 0.07935 0.90562 0.0
H354 H 0.41642 0.18737 0.82604 0.0
C355 C 0.43061 0.24113 0.92539 0.0
C356 C 0.48931 0.08232 0.95777 0.0
C357 C 0.49972 0.23297 0.80752 0.0
C358 C 0.52049 0.06247 0.83176 0.0
H359 H 0.43678 0.13184 1.01422 0.0
H360 H 0.40284 0.21762 0.99613 0.0
H361 H 0.4248 0.33248 0.89066 0.0
H362 H 0.468 0.32872 0.82743 0.0
H363 H 0.53123 0.17797 0.74656 0.0
H364 H 0.53925 0.08347 0.75869 0.0
H365 H 0.53849 0.97471 0.86925 0.0
H366 H 0.52595 0.98737 0.93861 0.0
H367 H 0.3385 0.04545 0.88005 0.0
H368 H 0.34267 0.15721 0.8006 0.0
H369 H 0.67047 0.15403 0.86758 0.0
H370 H 0.61402 0.26538 0.9376 0.0
C371 C 0.94171 0.97144 0.33255 0.0
C372 C 0.98334 0.97066 0.31117 0.0
C373 C 0.9855 1.01424 0.29433 0.0
C374 C 0.94532 0.03918 0.30612 0.0
N375 N 0.91797 1.01457 0.32983 0.0
Co376 Co 0.85628 0.03854 0.35281 0.0
N377 N 0.8677 0.10645 0.33629 0.0
C378 C 0.90203 0.12052 0.3127 0.0
C379 C 0.90424 0.16973 0.30815 0.0
C380 C 0.86866 0.18824 0.32985 0.0
C381 C 0.84588 0.14899 0.34596 0.0
N382 N 0.79461 0.06309 0.37555 0.0
C383 C 0.77746 0.1092 0.3805 0.0
C384 C 0.7311 0.10869 0.39555 0.0
C385 C 0.71871 0.06101 0.40005 0.0
C386 C 0.75785 0.03497 0.38741 0.0
N387 N 0.84496 0.97072 0.36932 0.0
C388 C 0.80284 0.9536 0.3829 0.0
C389 C 0.80481 0.90532 0.39138 0.0
C390 C 0.85084 0.8907 0.38203 0.0
C391 C 0.87438 0.93094 0.36805 0.0
N392 N 0.89185 0.05196 0.39699 0.0
C393 C 0.94796 0.05033 0.45904 0.0
C394 C 0.89861 0.03808 0.46004 0.0
C395 C 0.87143 0.03882 0.42884 0.0
C396 C 0.96787 0.0667 0.42683 0.0
C397 C 0.93898 0.06807 0.39628 0.0
N398 N 0.81994 0.02264 0.30923 0.0
C399 C 0.74472 0.02932 0.27698 0.0
C400 C 0.75027 0.98172 0.26379 0.0
C401 C 0.79419 0.95789 0.2702 0.0
C402 C 0.82847 0.97899 0.29262 0.0
C403 C 0.78036 0.04935 0.29932 0.0
H404 H 0.85996 0.95769 0.2985 0.0
H405 H 0.77401 0.08495 0.31053 0.0
H406 H 0.83451 0.02614 0.43042 0.0
H407 H 0.95552 0.08005 0.37184 0.0
C408 C 0.93565 0.08756 0.29893 0.0
C409 C 0.92232 0.92804 0.35021 0.0
C410 C 0.80128 0.15382 0.36773 0.0
C411 C 0.76354 0.98469 0.38959 0.0
H412 H 1.00894 0.94129 0.30712 0.0
H413 H 1.01345 0.02652 0.27603 0.0
H414 H 0.92975 0.1899 0.29189 0.0
H415 H 0.86028 0.2264 0.33311 0.0
H416 H 0.70802 0.13947 0.40184 0.0
H417 H 0.6853 0.04703 0.41151 0.0
H418 H 0.77627 0.88338 0.40308 0.0
H419 H 0.86504 0.85419 0.38422 0.0
H420 H 0.88175 0.02523 0.48435 0.0
H421 H 1.00579 0.07733 0.42508 0.0
H422 H 0.71174 0.04969 0.27217 0.0
H423 H 0.80106 0.92186 0.25949 0.0
C424 C 0.97902 0.48549 1.00872 0.0
C425 C 1.01752 0.4607 0.99175 0.0
H426 H 0.95743 0.53421 0.05089 0.0
C427 C 0.06507 0.46711 1.00472 0.0
H428 H 0.94209 0.48114 0.99933 0.0
C429 C 0.07371 0.4963 0.03473 0.0
C430 C 0.03518 0.52094 0.05179 0.0
H431 H 0.09551 0.44884 0.99189 0.0
H432 H 0.11057 0.50006 0.04439 0.0
C433 C 0.98783 0.51568 0.03821 0.0
C434 C 0.44946 0.4952 0.51511 0.0
C435 C 0.46254 0.47684 0.54845 0.0
H436 H 0.46748 0.50082 0.45971 0.0
C437 C 0.50694 0.45203 0.55159 0.0
H438 H 0.41584 0.51531 0.51216 0.0
C439 C 0.537 0.44442 0.52163 0.0
C440 C 0.52279 0.46094 0.48795 0.0
H441 H 0.51797 0.43794 0.57707 0.0
H442 H 0.57089 0.42482 0.52465 0.0
C443 C 0.47885 0.48671 0.48512 0.0
C444 C 0.49913 0.03758 0.05273 0.0
C445 C 0.46971 0.9955 0.05257 0.0
H446 H 0.52981 0.09633 0.02282 0.0
C447 C 0.44781 0.98174 0.02023 0.0
H448 H 0.51566 0.0508 0.07693 0.0
C449 C 0.45475 1.0093 0.9894 0.0
C450 C 0.48487 0.05054 0.98975 0.0
H451 H 0.42557 0.94942 0.01844 0.0
H452 H 0.43625 0.99855 0.96527 0.0
C453 C 0.50719 0.06414 0.02168 0.0
C454 C 0.02182 1.01476 0.48744 0.0
C455 C 0.97899 0.0424 0.49069 0.0
H456 H 0.08315 0.98384 0.51398 0.0
C457 C 0.96501 0.05999 0.52453 0.0
H458 H 0.03287 0.99975 0.4619 0.0
C459 C 0.99425 0.05146 0.55426 0.0
C460 C 0.03752 0.02466 0.55072 0.0
H461 H 0.93188 0.08096 0.52784 0.0
H462 H 0.98348 0.06633 0.5799 0.0
C463 C 0.05036 1.00538 0.51721 0.0
C464 C 0.23634 0.72894 0.20054 0.0
C465 C 0.20991 0.71984 0.16928 0.0
H466 H 0.30225 0.75554 0.22382 0.0
C467 C 0.23068 0.73414 0.13667 0.0
H468 H 0.221 0.71973 0.22624 0.0
C469 C 0.27651 0.75708 0.13549 0.0
C470 C 0.30375 0.76417 0.16671 0.0
H471 H 0.21108 0.72826 0.11216 0.0
H472 H 0.29001 0.77021 0.11023 0.0
C473 C 0.28293 0.74956 0.19918 0.0
C474 C 0.2117 0.71317 0.614 0.0
C475 C 0.2609 0.69917 0.61411 0.0
H476 H 0.16069 0.77224 0.61462 0.0
C477 C 0.29703 0.73531 0.61312 0.0
H478 H 0.18318 0.68603 0.61484 0.0
C479 C 0.28422 0.78452 0.61365 0.0
C480 C 0.23502 0.79853 0.61435 0.0
H481 H 0.33523 0.7255 0.61358 0.0
H482 H 0.31273 0.81168 0.61424 0.0
C483 C 0.19888 0.7624 0.6137 0.0
C484 C 0.72355 0.24604 0.87189 0.0
C485 C 0.6987 0.23553 0.90377 0.0
H486 H 0.78808 0.27456 0.84718 0.0
C487 C 0.72182 0.24632 0.93615 0.0
H488 H 0.70671 0.23844 0.84652 0.0
C489 C 0.76907 0.26627 0.93653 0.0
C490 C 0.79366 0.27714 0.90455 0.0
H491 H 0.70371 0.23852 0.96114 0.0
H492 H 0.78616 0.27375 0.96183 0.0
C493 C 0.77009 0.26699 0.87228 0.0
C494 C 0.73933 0.26969 0.336 0.0
C495 C 0.72692 0.2938 0.36795 0.0
H496 H 0.76937 0.20605 0.31102 0.0
C497 C 0.73881 0.27128 0.40022 0.0
H498 H 0.73122 0.28612 0.31067 0.0
C499 C 0.76263 0.22587 0.4004 0.0
C500 C 0.77434 0.20164 0.36832 0.0
H501 H 0.72967 0.28883 0.42527 0.0
H502 H 0.77201 0.20972 0.42557 0.0
C503 C 0.76148 0.22388 0.3362 0.0
C504 C 0.81324 0.5694 0.24658 0.0
C505 C 0.79878 0.52205 0.23708 0.0
H506 H 0.86655 0.62566 0.241 0.0
C507 C 0.82638 0.49654 0.21135 0.0
H508 H 0.79334 0.58977 0.26674 0.0
C509 C 0.86797 0.51778 0.19597 0.0
C510 C 0.88317 0.56444 0.20658 0.0
H511 H 0.81616 0.46006 0.20349 0.0
H512 H 0.88948 0.49705 0.17693 0.0
C513 C 0.85507 0.59013 0.23175 0.0
C514 C 0.42016 0.28879 0.73743 0.0
C515 C 0.451 0.32448 0.72306 0.0
H516 H 0.41194 0.23137 0.77482 0.0
C517 C 0.50029 0.3251 0.73342 0.0
H518 H 0.38197 0.28731 0.7306 0.0
C519 C 0.51717 0.29342 0.75952 0.0
C520 C 0.48532 0.26004 0.77522 0.0
H521 H 0.52546 0.35132 0.72239 0.0
H522 H 0.55442 0.29638 0.76852 0.0
C523 C 0.43723 0.25683 0.7631 0.0
C524 C 0.65799 0.88263 0.24308 0.0
C525 C 0.62654 0.90626 0.21983 0.0
H526 H 0.72153 0.8881 0.27533 0.0
C527 C 0.63762 0.95373 0.2089 0.0
H528 H 0.64974 0.84629 0.25213 0.0
C529 C 0.6784 0.97805 0.22236 0.0
C530 C 0.70923 0.95509 0.24666 0.0
H531 H 0.61347 0.97265 0.19109 0.0
H532 H 0.68537 1.01503 0.21419 0.0
C533 C 0.69901 0.90671 0.25628 0.0
C534 C 0.98134 0.20994 0.76295 0.0
C535 C 1.01332 0.2427 0.77919 0.0
H536 H 0.97311 0.15201 0.7252 0.0
C537 C 0.062 0.24455 0.76755 0.0
H538 H 0.94364 0.20804 0.77155 0.0
C539 C 0.0793 0.21201 0.74171 0.0
C540 C 0.04816 0.17705 0.72668 0.0
H541 H 0.08739 0.26955 0.77965 0.0
H542 H 0.11776 0.21253 0.73514 0.0
C543 C 0.99848 0.17765 0.73671 0.0
C544 C 0.23957 0.39553 0.80344 0.0
C545 C 0.20335 0.42529 0.81902 0.0
H546 H 0.29596 0.38896 0.76376 0.0
C547 C 0.20196 0.47464 0.80964 0.0
H548 H 0.24198 0.35748 0.81025 0.0
C549 C 0.23326 0.49267 0.78315 0.0
C550 C 0.26686 0.46183 0.76586 0.0
H551 H 0.17421 0.49842 0.82073 0.0
H552 H 0.22882 0.52975 0.77439 0.0
C553 C 0.27079 0.41356 0.77705 0.0
C554 C 0.52231 0.63592 0.33693 0.0
C555 C 0.56808 0.61642 0.32748 0.0
H556 H 0.46587 0.68702 0.32408 0.0
C557 C 0.5946 0.63804 0.29978 0.0
H558 H 0.50102 0.61957 0.35803 0.0
C559 C 0.57465 0.6762 0.28044 0.0
C560 C 0.52748 0.69373 0.28811 0.0
H561 H 0.62983 0.6237 0.29184 0.0
H562 H 0.59556 0.69086 0.25846 0.0
C563 C 0.50221 0.67439 0.31747 0.0
C564 C 0.29323 0.0262 0.80978 0.0
C565 C 0.29267 0.07597 0.81857 0.0
H566 H 0.26526 0.97007 0.77557 0.0
C567 C 0.25639 0.10551 0.80373 0.0
H568 H 0.32099 1.00259 0.82039 0.0
C569 C 0.22447 0.08679 0.77827 0.0
C570 C 0.22785 0.0381 0.76733 0.0
H571 H 0.25467 0.14388 0.81017 0.0
H572 H 0.19948 0.11119 0.76523 0.0
C573 C 0.26125 1.00748 0.78421 0.0
C574 C 1.00854 0.82233 0.33015 0.0
C575 C 0.98177 0.79557 0.30496 0.0
H576 H 1.01 0.88448 0.36528 0.0
C577 C 0.93403 0.81073 0.2973 0.0
H578 H 0.04529 0.81158 0.33673 0.0
C579 C 0.91419 0.85231 0.31335 0.0
C580 C 0.94125 0.87966 0.33785 0.0
H581 H 0.91257 0.79157 0.27765 0.0
H582 H 0.87824 0.86419 0.30555 0.0
C583 C 0.98826 0.86371 0.3467 0.0
loop_
_geom_bond_atom_site_label_1
_geom_bond_atom_site_label_2
_geom_bond_distance
_geom_bond_site_symmetry_2
_ccdc_geom_bond_type
C0 C1 1.443 . S
C0 N4 1.376 . S
C0 C38 1.389 . S
C1 C0 1.443 . S
C1 C2 1.340 . S
C1 H41 0.951 . S
C2 C1 1.340 . S
C2 C3 1.439 . S
C2 H42 0.950 . S
C3 C2 1.439 . S
C3 N4 1.374 . S
C3 C37 1.395 . S
N4 C0 1.376 . S
N4 C3 1.374 . S
N4 Co5 2.008 1_655 S
Co5 N4 2.008 1_455 S
Co5 N6 1.995 . S
Co5 N11 2.008 . S
Co5 N16 1.995 1_455 S
Co5 N21 2.282 . S
Co5 N27 2.282 1_455 S
N6 Co5 1.995 . S
N6 C7 1.376 1_455 S
N6 C10 1.383 . S
C7 N6 1.376 1_655 S
C7 C8 1.446 1_655 S
C7 C37 1.391 . S
C8 C7 1.446 1_455 S
C8 C9 1.339 . S
C8 H43 0.949 . S
C9 C8 1.339 . S
C9 C10 1.439 . S
C9 H44 0.950 . S
C10 N6 1.383 . S
C10 C9 1.439 . S
C10 C39 1.392 . S
N11 Co5 2.008 . S
N11 C12 1.376 . S
N11 C15 1.374 . S
C12 N11 1.376 . S
C12 C13 1.443 . S
C12 C39 1.389 . S
C13 C12 1.443 . S
C13 C14 1.340 . S
C13 H45 0.951 . S
C14 C13 1.340 . S
C14 C15 1.439 . S
C14 H46 0.950 . S
C15 N11 1.374 . S
C15 C14 1.439 . S
C15 C40 1.395 . S
N16 Co5 1.995 1_655 S
N16 C17 1.376 1_655 S
N16 C20 1.383 . S
C17 N16 1.376 1_455 S
C17 C18 1.446 1_455 S
C17 C40 1.391 . S
C18 C17 1.446 1_655 S
C18 C19 1.339 . S
C18 H47 0.949 . S
C19 C18 1.339 . S
C19 C20 1.439 . S
C19 H48 0.950 . S
C20 N16 1.383 . S
C20 C19 1.439 . S
C20 C38 1.392 . S
N21 Co5 2.282 . S
N21 C24 1.332 . S
N21 C26 1.332 . S
C22 C23 1.386 . S
C22 C25 1.388 . S
C23 C22 1.386 . S
C23 C24 1.382 . S
C23 H49 0.950 . S
C24 N21 1.332 . S
C24 C23 1.382 . S
C24 H35 0.952 . S
C25 C22 1.388 . S
C25 C26 1.382 . S
C25 H50 0.950 . S
C26 N21 1.332 . S
C26 C25 1.382 . S
C26 H36 0.948 1_455 S
N27 Co5 2.282 1_655 S
N27 C31 1.332 . S
N27 C32 1.332 . S
C28 C29 1.388 . S
C28 C32 1.382 . S
C28 H51 0.950 . S
C29 C28 1.388 . S
C29 C30 1.386 . S
C30 C29 1.386 . S
C30 C31 1.382 . S
C30 H52 0.950 . S
C31 N27 1.332 . S
C31 C30 1.382 . S
C31 H33 0.952 . S
C32 N27 1.332 . S
C32 C28 1.382 . S
C32 H34 0.948 1_655 S
H33 C31 0.952 . S
H34 C32 0.948 1_455 S
H35 C24 0.952 . S
H36 C26 0.948 1_655 S
C37 C3 1.395 . S
C37 C7 1.391 . S
C38 C0 1.389 . S
C38 C20 1.392 . S
C39 C10 1.392 . S
C39 C12 1.389 . S
C40 C15 1.395 . S
C40 C17 1.391 . S
H41 C1 0.951 . S
H42 C2 0.950 . S
H43 C8 0.949 . S
H44 C9 0.950 . S
H45 C13 0.951 . S
H46 C14 0.950 . S
H47 C18 0.949 . S
H48 C19 0.950 . S
H49 C23 0.950 . S
H50 C25 0.950 . S
H51 C28 0.950 . S
H52 C30 0.950 . S
C53 C54 1.443 . S
C53 N57 1.376 . S
C53 C91 1.389 . S
C54 C53 1.443 . S
C54 C55 1.340 . S
C54 H94 0.951 . S
C55 C54 1.340 . S
C55 C56 1.439 . S
C55 H95 0.950 . S
C56 C55 1.439 . S
C56 N57 1.374 . S
C56 C90 1.395 . S
N57 C53 1.376 . S
N57 C56 1.374 . S
N57 Co58 2.008 . S
Co58 N57 2.008 . S
Co58 N59 1.995 . S
Co58 N64 2.008 . S
Co58 N69 1.995 . S
Co58 N74 2.282 . S
Co58 N80 2.282 . S
N59 Co58 1.995 . S
N59 C60 1.376 . S
N59 C63 1.383 . S
C60 N59 1.376 . S
C60 C61 1.446 . S
C60 C90 1.391 . S
C61 C60 1.446 . S
C61 C62 1.339 . S
C61 H96 0.949 . S
C62 C61 1.339 . S
C62 C63 1.439 . S
C62 H97 0.950 . S
C63 N59 1.383 . S
C63 C62 1.439 . S
C63 C92 1.392 . S
N64 Co58 2.008 . S
N64 C65 1.376 . S
N64 C68 1.374 . S
C65 N64 1.376 . S
C65 C66 1.443 . S
C65 C92 1.389 . S
C66 C65 1.443 . S
C66 C67 1.340 . S
C66 H98 0.951 . S
C67 C66 1.340 . S
C67 C68 1.439 . S
C67 H99 0.950 . S
C68 N64 1.374 . S
C68 C67 1.439 . S
C68 C93 1.395 . S
N69 Co58 1.995 . S
N69 C70 1.376 . S
N69 C73 1.383 . S
C70 N69 1.376 . S
C70 C71 1.446 . S
C70 C93 1.391 . S
C71 C70 1.446 . S
C71 C72 1.339 . S
C71 H100 0.949 . S
C72 C71 1.339 . S
C72 C73 1.439 . S
C72 H101 0.950 . S
C73 N69 1.383 . S
C73 C72 1.439 . S
C73 C91 1.392 . S
N74 Co58 2.282 . S
N74 C77 1.332 . S
N74 C79 1.332 . S
C75 C76 1.386 . S
C75 C78 1.388 . S
C76 C75 1.386 . S
C76 C77 1.382 . S
C76 H102 0.950 . S
C77 N74 1.332 . S
C77 C76 1.382 . S
C77 H88 0.952 . S
C78 C75 1.388 . S
C78 C79 1.382 . S
C78 H103 0.950 . S
C79 N74 1.332 . S
C79 C78 1.382 . S
C79 H89 0.948 . S
N80 Co58 2.282 . S
N80 C84 1.332 . S
N80 C85 1.332 . S
C81 C82 1.388 . S
C81 C85 1.382 . S
C81 H104 0.950 . S
C82 C81 1.388 . S
C82 C83 1.386 . S
C83 C82 1.386 . S
C83 C84 1.382 . S
C83 H105 0.950 . S
C84 N80 1.332 . S
C84 C83 1.382 . S
C84 H86 0.952 . S
C85 N80 1.332 . S
C85 C81 1.382 . S
C85 H87 0.948 . S
H86 C84 0.952 . S
H87 C85 0.948 . S
H88 C77 0.952 . S
H89 C79 0.948 . S
C90 C56 1.395 . S
C90 C60 1.391 . S
C91 C53 1.389 . S
C91 C73 1.392 . S
C92 C63 1.392 . S
C92 C65 1.389 . S
C93 C68 1.395 . S
C93 C70 1.391 . S
H94 C54 0.951 . S
H95 C55 0.950 . S
H96 C61 0.949 . S
H97 C62 0.950 . S
H98 C66 0.951 . S
H99 C67 0.950 . S
H100 C71 0.949 . S
H101 C72 0.950 . S
H102 C76 0.950 . S
H103 C78 0.950 . S
H104 C81 0.950 . S
H105 C83 0.950 . S
C106 C107 1.443 . S
C106 N110 1.376 . S
C106 C144 1.389 . S
C107 C106 1.443 . S
C107 C108 1.340 . S
C107 H147 0.951 . S
C108 C107 1.340 . S
C108 C109 1.439 . S
C108 H148 0.950 . S
C109 C108 1.439 . S
C109 N110 1.374 . S
C109 C143 1.395 . S
N110 C106 1.376 . S
N110 C109 1.374 . S
N110 Co111 2.008 . S
Co111 N110 2.008 . S
Co111 N112 1.995 . S
Co111 N117 2.008 . S
Co111 N122 1.995 . S
Co111 N127 2.282 . S
Co111 N133 2.282 . S
N112 Co111 1.995 . S
N112 C113 1.376 . S
N112 C116 1.383 . S
C113 N112 1.376 . S
C113 C114 1.446 . S
C113 C143 1.391 . S
C114 C113 1.446 . S
C114 C115 1.339 . S
C114 H149 0.949 . S
C115 C114 1.339 . S
C115 C116 1.439 . S
C115 H150 0.950 . S
C116 N112 1.383 . S
C116 C115 1.439 . S
C116 C145 1.392 . S
N117 Co111 2.008 . S
N117 C118 1.376 . S
N117 C121 1.374 . S
C118 N117 1.376 . S
C118 C119 1.443 . S
C118 C145 1.389 . S
C119 C118 1.443 . S
C119 C120 1.340 . S
C119 H151 0.951 . S
C120 C119 1.340 . S
C120 C121 1.439 . S
C120 H152 0.950 . S
C121 N117 1.374 . S
C121 C120 1.439 . S
C121 C146 1.395 . S
N122 Co111 1.995 . S
N122 C123 1.376 . S
N122 C126 1.383 . S
C123 N122 1.376 . S
C123 C124 1.446 . S
C123 C146 1.391 . S
C124 C123 1.446 . S
C124 C125 1.339 . S
C124 H153 0.949 . S
C125 C124 1.339 . S
C125 C126 1.439 . S
C125 H154 0.950 . S
C126 N122 1.383 . S
C126 C125 1.439 . S
C126 C144 1.392 . S
N127 Co111 2.282 . S
N127 C130 1.332 . S
N127 C132 1.332 . S
C128 C129 1.386 . S
C128 C131 1.388 . S
C129 C128 1.386 . S
C129 C130 1.382 . S
C129 H155 0.950 . S
C130 N127 1.332 . S
C130 C129 1.382 . S
C130 H141 0.952 . S
C131 C128 1.388 . S
C131 C132 1.382 . S
C131 H156 0.950 . S
C132 N127 1.332 . S
C132 C131 1.382 . S
C132 H142 0.948 . S
N133 Co111 2.282 . S
N133 C137 1.332 . S
N133 C138 1.332 . S
C134 C135 1.388 . S
C134 C138 1.382 . S
C134 H157 0.950 . S
C135 C134 1.388 . S
C135 C136 1.386 . S
C136 C135 1.386 . S
C136 C137 1.382 . S
C136 H158 0.950 . S
C137 N133 1.332 . S
C137 C136 1.382 . S
C137 H139 0.952 . S
C138 N133 1.332 . S
C138 C134 1.382 . S
C138 H140 0.948 . S
H139 C137 0.952 . S
H140 C138 0.948 . S
H141 C130 0.952 . S
H142 C132 0.948 . S
C143 C109 1.395 . S
C143 C113 1.391 . S
C144 C106 1.389 . S
C144 C126 1.392 . S
C145 C116 1.392 . S
C145 C118 1.389 . S
C146 C121 1.395 . S
C146 C123 1.391 . S
H147 C107 0.951 . S
H148 C108 0.950 . S
H149 C114 0.949 . S
H150 C115 0.950 . S
H151 C119 0.951 . S
H152 C120 0.950 . S
H153 C124 0.949 . S
H154 C125 0.950 . S
H155 C129 0.950 . S
H156 C131 0.950 . S
H157 C134 0.950 . S
H158 C136 0.950 . S
C159 C160 1.443 . S
C159 N163 1.376 . S
C159 C197 1.389 . S
C160 C159 1.443 . S
C160 C161 1.340 . S
C160 H200 0.951 . S
C161 C160 1.340 . S
C161 C162 1.439 . S
C161 H201 0.950 . S
C162 C161 1.439 . S
C162 N163 1.374 . S
C162 C196 1.395 . S
N163 C159 1.376 . S
N163 C162 1.374 . S
N163 Co164 2.008 . S
Co164 N163 2.008 . S
Co164 N165 1.995 . S
Co164 N170 2.008 1_565 S
Co164 N175 1.995 1_565 S
Co164 N180 2.282 1_565 S
Co164 N186 2.282 . S
N165 Co164 1.995 . S
N165 C166 1.376 . S
N165 C169 1.383 . S
C166 N165 1.376 . S
C166 C167 1.446 . S
C166 C196 1.391 . S
C167 C166 1.446 . S
C167 C168 1.339 . S
C167 H202 0.949 . S
C168 C167 1.339 . S
C168 C169 1.439 . S
C168 H203 0.950 . S
C169 N165 1.383 . S
C169 C168 1.439 . S
C169 C198 1.392 1_565 S
N170 Co164 2.008 1_545 S
N170 C171 1.376 . S
N170 C174 1.374 . S
C171 N170 1.376 . S
C171 C172 1.443 . S
C171 C198 1.389 . S
C172 C171 1.443 . S
C172 C173 1.340 . S
C172 H204 0.951 . S
C173 C172 1.340 . S
C173 C174 1.439 . S
C173 H205 0.950 . S
C174 N170 1.374 . S
C174 C173 1.439 . S
C174 C199 1.395 . S
N175 Co164 1.995 1_545 S
N175 C176 1.376 . S
N175 C179 1.383 . S
C176 N175 1.376 . S
C176 C177 1.446 . S
C176 C199 1.391 . S
C177 C176 1.446 . S
C177 C178 1.339 . S
C177 H206 0.949 . S
C178 C177 1.339 . S
C178 C179 1.439 . S
C178 H207 0.950 . S
C179 N175 1.383 . S
C179 C178 1.439 . S
C179 C197 1.392 1_545 S
N180 Co164 2.282 1_545 S
N180 C183 1.332 . S
N180 C185 1.332 . S
C181 C182 1.386 . S
C181 C184 1.388 . S
C182 C181 1.386 . S
C182 C183 1.382 . S
C182 H208 0.950 . S
C183 N180 1.332 . S
C183 C182 1.382 . S
C183 H194 0.952 . S
C184 C181 1.388 . S
C184 C185 1.382 . S
C184 H209 0.950 . S
C185 N180 1.332 . S
C185 C184 1.382 . S
C185 H195 0.948 . S
N186 Co164 2.282 . S
N186 C190 1.332 . S
N186 C191 1.332 . S
C187 C188 1.388 . S
C187 C191 1.382 . S
C187 H210 0.950 . S
C188 C187 1.388 . S
C188 C189 1.386 . S
C189 C188 1.386 . S
C189 C190 1.382 . S
C189 H211 0.950 . S
C190 N186 1.332 . S
C190 C189 1.382 . S
C190 H192 0.952 . S
C191 N186 1.332 . S
C191 C187 1.382 . S
C191 H193 0.948 . S
H192 C190 0.952 . S
H193 C191 0.948 . S
H194 C183 0.952 . S
H195 C185 0.948 . S
C196 C162 1.395 . S
C196 C166 1.391 . S
C197 C159 1.389 . S
C197 C179 1.392 1_565 S
C198 C169 1.392 1_545 S
C198 C171 1.389 . S
C199 C174 1.395 . S
C199 C176 1.391 . S
H200 C160 0.951 . S
H201 C161 0.950 . S
H202 C167 0.949 . S
H203 C168 0.950 . S
H204 C172 0.951 . S
H205 C173 0.950 . S
H206 C177 0.949 . S
H207 C178 0.950 . S
H208 C182 0.950 . S
H209 C184 0.950 . S
H210 C187 0.950 . S
H211 C189 0.950 . S
C212 C213 1.441 1_655 S
C212 N216 1.373 1_655 S
C212 C250 1.395 . S
C213 C212 1.441 1_455 S
C213 C214 1.340 . S
C213 H253 0.951 1_556 S
C214 C213 1.340 . S
C214 C215 1.439 . S
C214 H254 0.950 1_556 S
C215 C214 1.439 . S
C215 N216 1.374 . S
C215 C249 1.395 . S
N216 C212 1.373 1_455 S
N216 C215 1.374 . S
N216 Co217 2.008 1_455 S
Co217 N216 2.008 1_655 S
Co217 N218 1.995 1_655 S
Co217 N223 2.008 . S
Co217 N228 1.995 . S
Co217 N233 2.282 1_655 S
Co217 N239 2.282 . S
N218 Co217 1.995 1_455 S
N218 C219 1.376 . S
N218 C222 1.383 . S
C219 N218 1.376 . S
C219 C220 1.446 . S
C219 C249 1.391 . S
C220 C219 1.446 . S
C220 C221 1.339 . S
C220 H255 0.949 . S
C221 C220 1.339 . S
C221 C222 1.439 . S
C221 H256 0.950 . S
C222 N218 1.383 . S
C222 C221 1.439 . S
C222 C251 1.392 . S
N223 Co217 2.008 . S
N223 C224 1.374 1_655 S
N223 C227 1.374 . S
C224 N223 1.374 1_455 S
C224 C225 1.442 1_455 S
C224 C251 1.392 . S
C225 C224 1.442 1_655 S
C225 C226 1.340 . S
C225 H257 0.951 . S
C226 C225 1.340 . S
C226 C227 1.439 . S
C226 H258 0.950 . S
C227 N223 1.374 . S
C227 C226 1.439 . S
C227 C252 1.395 . S
N228 Co217 1.995 . S
N228 C229 1.376 . S
N228 C232 1.383 . S
C229 N228 1.376 . S
C229 C230 1.446 . S
C229 C252 1.391 . S
C230 C229 1.446 . S
C230 C231 1.339 . S
C230 H259 0.949 . S
C231 C230 1.339 . S
C231 C232 1.439 . S
C231 H260 0.950 . S
C232 N228 1.383 . S
C232 C231 1.439 . S
C232 C250 1.392 . S
N233 Co217 2.282 1_455 S
N233 C236 1.332 . S
N233 C238 1.332 . S
C234 C235 1.386 . S
C234 C237 1.388 . S
C235 C234 1.386 . S
C235 C236 1.382 . S
C235 H261 0.950 . S
C236 N233 1.332 . S
C236 C235 1.382 . S
C236 H247 0.952 . S
C237 C234 1.388 . S
C237 C238 1.382 . S
C237 H262 0.950 . S
C238 N233 1.332 . S
C238 C237 1.382 . S
C238 H248 0.948 . S
N239 Co217 2.282 . S
N239 C243 1.332 . S
N239 C244 1.332 . S
C240 C241 1.388 . S
C240 C244 1.382 . S
C240 H263 0.950 . S
C241 C240 1.388 . S
C241 C242 1.386 . S
C242 C241 1.386 . S
C242 C243 1.382 . S
C242 H264 0.950 . S
C243 N239 1.332 . S
C243 C242 1.382 . S
C243 H245 0.952 . S
C244 N239 1.332 . S
C244 C240 1.382 . S
C244 H246 0.948 . S
H245 C243 0.952 . S
H246 C244 0.948 . S
H247 C236 0.952 . S
H248 C238 0.948 . S
C249 C215 1.395 . S
C249 C219 1.391 . S
C250 C212 1.395 . S
C250 C232 1.392 . S
C251 C222 1.392 . S
C251 C224 1.392 . S
C252 C227 1.395 . S
C252 C229 1.391 . S
H253 C213 0.951 1_554 S
H254 C214 0.950 1_554 S
H255 C220 0.949 . S
H256 C221 0.950 . S
H257 C225 0.951 . S
H258 C226 0.950 . S
H259 C230 0.949 . S
H260 C231 0.950 . S
H261 C235 0.950 . S
H262 C237 0.950 . S
H263 C240 0.950 . S
H264 C242 0.950 . S
C265 C266 1.443 . S
C265 N269 1.376 . S
C265 C303 1.389 . S
C266 C265 1.443 . S
C266 C267 1.340 . S
C266 H306 0.951 . S
C267 C266 1.340 . S
C267 C268 1.439 . S
C267 H307 0.950 . S
C268 C267 1.439 . S
C268 N269 1.374 . S
C268 C302 1.395 . S
N269 C265 1.376 . S
N269 C268 1.374 . S
N269 Co270 2.008 . S
Co270 N269 2.008 . S
Co270 N271 1.995 . S
Co270 N276 2.008 . S
Co270 N281 1.995 . S
Co270 N286 2.282 . S
Co270 N292 2.282 . S
N271 Co270 1.995 . S
N271 C272 1.376 . S
N271 C275 1.383 . S
C272 N271 1.376 . S
C272 C273 1.446 . S
C272 C302 1.391 . S
C273 C272 1.446 . S
C273 C274 1.339 . S
C273 H308 0.949 . S
C274 C273 1.339 . S
C274 C275 1.439 . S
C274 H309 0.950 . S
C275 N271 1.383 . S
C275 C274 1.439 . S
C275 C304 1.392 . S
N276 Co270 2.008 . S
N276 C277 1.376 . S
N276 C280 1.374 . S
C277 N276 1.376 . S
C277 C278 1.443 . S
C277 C304 1.389 . S
C278 C277 1.443 . S
C278 C279 1.340 . S
C278 H310 0.951 . S
C279 C278 1.340 . S
C279 C280 1.439 . S
C279 H311 0.950 . S
C280 N276 1.374 . S
C280 C279 1.439 . S
C280 C305 1.395 . S
N281 Co270 1.995 . S
N281 C282 1.376 . S
N281 C285 1.383 . S
C282 N281 1.376 . S
C282 C283 1.446 . S
C282 C305 1.391 . S
C283 C282 1.446 . S
C283 C284 1.339 . S
C283 H312 0.949 . S
C284 C283 1.339 . S
C284 C285 1.439 . S
C284 H313 0.950 . S
C285 N281 1.383 . S
C285 C284 1.439 . S
C285 C303 1.392 . S
N286 Co270 2.282 . S
N286 C289 1.332 . S
N286 C291 1.332 . S
C287 C288 1.386 . S
C287 C290 1.388 . S
C288 C287 1.386 . S
C288 C289 1.382 . S
C288 H314 0.950 . S
C289 N286 1.332 . S
C289 C288 1.382 . S
C289 H300 0.952 . S
C290 C287 1.388 . S
C290 C291 1.382 . S
C290 H315 0.950 . S
C291 N286 1.332 . S
C291 C290 1.382 . S
C291 H301 0.948 . S
N292 Co270 2.282 . S
N292 C296 1.332 . S
N292 C297 1.332 . S
C293 C294 1.388 . S
C293 C297 1.382 . S
C293 H316 0.950 . S
C294 C293 1.388 . S
C294 C295 1.386 . S
C295 C294 1.386 . S
C295 C296 1.382 . S
C295 H317 0.950 . S
C296 N292 1.332 . S
C296 C295 1.382 . S
C296 H298 0.952 . S
C297 N292 1.332 . S
C297 C293 1.382 . S
C297 H299 0.948 . S
H298 C296 0.952 . S
H299 C297 0.948 . S
H300 C289 0.952 . S
H301 C291 0.948 . S
C302 C268 1.395 . S
C302 C272 1.391 . S
C303 C265 1.389 . S
C303 C285 1.392 . S
C304 C275 1.392 . S
C304 C277 1.389 . S
C305 C280 1.395 . S
C305 C282 1.391 . S
H306 C266 0.951 . S
H307 C267 0.950 . S
H308 C273 0.949 . S
H309 C274 0.950 . S
H310 C278 0.951 . S
H311 C279 0.950 . S
H312 C283 0.949 . S
H313 C284 0.950 . S
H314 C288 0.950 . S
H315 C290 0.950 . S
H316 C293 0.950 . S
H317 C295 0.950 . S
C318 C319 1.443 . S
C318 N322 1.376 . S
C318 C356 1.389 . S
C319 C318 1.443 . S
C319 C320 1.340 . S
C319 H359 0.951 1_556 S
C320 C319 1.340 . S
C320 C321 1.439 . S
C320 H360 0.950 1_556 S
C321 C320 1.439 . S
C321 N322 1.374 . S
C321 C355 1.395 . S
N322 C318 1.376 . S
N322 C321 1.374 . S
N322 Co323 2.008 . S
Co323 N322 2.008 . S
Co323 N324 1.995 . S
Co323 N329 2.008 . S
Co323 N334 1.995 . S
Co323 N339 2.282 . S
Co323 N345 2.282 . S
N324 Co323 1.995 . S
N324 C325 1.376 . S
N324 C328 1.383 . S
C325 N324 1.376 . S
C325 C326 1.446 . S
C325 C355 1.391 . S
C326 C325 1.446 . S
C326 C327 1.339 . S
C326 H361 0.949 . S
C327 C326 1.339 . S
C327 C328 1.439 . S
C327 H362 0.950 . S
C328 N324 1.383 . S
C328 C327 1.439 . S
C328 C357 1.392 . S
N329 Co323 2.008 . S
N329 C330 1.376 . S
N329 C333 1.374 . S
C330 N329 1.376 . S
C330 C331 1.443 . S
C330 C357 1.389 . S
C331 C330 1.443 . S
C331 C332 1.340 . S
C331 H363 0.951 . S
C332 C331 1.340 . S
C332 C333 1.439 . S
C332 H364 0.950 . S
C333 N329 1.374 . S
C333 C332 1.439 . S
C333 C358 1.395 . S
N334 Co323 1.995 . S
N334 C335 1.376 . S
N334 C338 1.383 . S
C335 N334 1.376 . S
C335 C336 1.446 . S
C335 C358 1.391 . S
C336 C335 1.446 . S
C336 C337 1.339 . S
C336 H365 0.949 . S
C337 C336 1.339 . S
C337 C338 1.439 . S
C337 H366 0.950 . S
C338 N334 1.383 . S
C338 C337 1.439 . S
C338 C356 1.392 . S
N339 Co323 2.282 . S
N339 C342 1.332 . S
N339 C344 1.332 . S
C340 C341 1.386 . S
C340 C343 1.388 . S
C341 C340 1.386 . S
C341 C342 1.382 . S
C341 H367 0.950 . S
C342 N339 1.332 . S
C342 C341 1.382 . S
C342 H353 0.952 . S
C343 C340 1.388 . S
C343 C344 1.382 . S
C343 H368 0.950 . S
C344 N339 1.332 . S
C344 C343 1.382 . S
C344 H354 0.948 . S
N345 Co323 2.282 . S
N345 C349 1.332 . S
N345 C350 1.332 . S
C346 C347 1.388 . S
C346 C350 1.382 . S
C346 H369 0.950 . S
C347 C346 1.388 . S
C347 C348 1.386 . S
C348 C347 1.386 . S
C348 C349 1.382 . S
C348 H370 0.950 . S
C349 N345 1.332 . S
C349 C348 1.382 . S
C349 H351 0.952 . S
C350 N345 1.332 . S
C350 C346 1.382 . S
C350 H352 0.948 . S
H351 C349 0.952 . S
H352 C350 0.948 . S
H353 C342 0.952 . S
H354 C344 0.948 . S
C355 C321 1.395 . S
C355 C325 1.391 . S
C356 C318 1.389 . S
C356 C338 1.392 . S
C357 C328 1.392 . S
C357 C330 1.389 . S
C358 C333 1.395 . S
C358 C335 1.391 . S
H359 C319 0.951 1_554 S
H360 C320 0.950 1_554 S
H361 C326 0.949 . S
H362 C327 0.950 . S
H363 C331 0.951 . S
H364 C332 0.950 . S
H365 C336 0.949 . S
H366 C337 0.950 . S
H367 C341 0.950 . S
H368 C343 0.950 . S
H369 C346 0.950 . S
H370 C348 0.950 . S
C371 C372 1.443 . S
C371 N375 1.376 . S
C371 C409 1.389 . S
C372 C371 1.443 . S
C372 C373 1.340 . S
C372 H412 0.951 . S
C373 C372 1.340 . S
C373 C374 1.439 1_565 S
C373 H413 0.950 . S
C374 C373 1.439 1_545 S
C374 N375 1.374 1_545 S
C374 C408 1.395 . S
N375 C371 1.376 . S
N375 C374 1.374 1_565 S
N375 Co376 2.008 1_565 S
Co376 N375 2.008 1_545 S
Co376 N377 1.995 . S
Co376 N382 2.008 . S
Co376 N387 1.995 1_545 S
Co376 N392 2.282 . S
Co376 N398 2.282 1_545 S
N377 Co376 1.995 . S
N377 C378 1.376 . S
N377 C381 1.383 . S
C378 N377 1.376 . S
C378 C379 1.446 . S
C378 C408 1.391 . S
C379 C378 1.446 . S
C379 C380 1.339 . S
C379 H414 0.949 . S
C380 C379 1.339 . S
C380 C381 1.439 . S
C380 H415 0.950 . S
C381 N377 1.383 . S
C381 C380 1.439 . S
C381 C410 1.392 . S
N382 Co376 2.008 . S
N382 C383 1.376 . S
N382 C386 1.374 1_545 S
C383 N382 1.376 . S
C383 C384 1.443 . S
C383 C410 1.389 . S
C384 C383 1.443 . S
C384 C385 1.340 . S
C384 H416 0.951 . S
C385 C384 1.340 . S
C385 C386 1.439 1_545 S
C385 H417 0.950 . S
C386 N382 1.374 1_565 S
C386 C385 1.439 1_565 S
C386 C411 1.395 . S
N387 Co376 1.995 1_565 S
N387 C388 1.376 . S
N387 C391 1.383 . S
C388 N387 1.376 . S
C388 C389 1.446 . S
C388 C411 1.391 . S
C389 C388 1.446 . S
C389 C390 1.339 . S
C389 H418 0.949 . S
C390 C389 1.339 . S
C390 C391 1.439 . S
C390 H419 0.950 . S
C391 N387 1.383 . S
C391 C390 1.439 . S
C391 C409 1.392 . S
N392 Co376 2.282 . S
N392 C395 1.332 1_545 S
N392 C397 1.332 . S
C393 C394 1.386 . S
C393 C396 1.388 . S
C394 C393 1.386 . S
C394 C395 1.382 1_545 S
C394 H420 0.950 1_545 S
C395 N392 1.332 1_565 S
C395 C394 1.382 1_565 S
C395 H406 0.952 . S
C396 C393 1.388 . S
C396 C397 1.382 . S
C396 H421 0.950 . S
C397 N392 1.332 . S
C397 C396 1.382 . S
C397 H407 0.948 . S
N398 Co376 2.282 1_565 S
N398 C402 1.332 1_565 S
N398 C403 1.332 . S
C399 C400 1.388 . S
C399 C403 1.382 . S
C399 H422 0.950 . S
C400 C399 1.388 . S
C400 C401 1.386 . S
C401 C400 1.386 . S
C401 C402 1.382 1_565 S
C401 H423 0.950 1_565 S
C402 N398 1.332 1_545 S
C402 C401 1.382 1_545 S
C402 H404 0.952 . S
C403 N398 1.332 . S
C403 C399 1.382 . S
C403 H405 0.948 . S
H404 C402 0.952 . S
H405 C403 0.948 . S
H406 C395 0.952 . S
H407 C397 0.948 . S
C408 C374 1.395 . S
C408 C378 1.391 . S
C409 C371 1.389 . S
C409 C391 1.392 . S
C410 C381 1.392 . S
C410 C383 1.389 . S
C411 C386 1.395 . S
C411 C388 1.391 . S
H412 C372 0.951 . S
H413 C373 0.950 . S
H414 C379 0.949 . S
H415 C380 0.950 . S
H416 C384 0.951 . S
H417 C385 0.950 . S
H418 C389 0.949 . S
H419 C390 0.950 . S
H420 C394 0.950 1_565 S
H421 C396 0.950 . S
H422 C399 0.950 . S
H423 C401 0.950 1_545 S
C424 C425 1.387 . S
C424 H428 0.950 . S
C424 C433 1.390 . S
C425 C424 1.387 . S
C425 C427 1.387 1_655 S
H426 C433 0.950 . S
C427 C425 1.387 1_455 S
C427 C429 1.390 1_556 S
C427 H431 0.950 . S
H428 C424 0.950 . S
C429 C427 1.390 1_554 S
C429 C430 1.387 . S
C429 H432 0.950 . S
C430 C429 1.387 . S
C430 C433 1.387 1_454 S
H431 C427 0.950 . S
H432 C429 0.950 . S
C433 C424 1.390 . S
C433 H426 0.950 . S
C433 C430 1.387 1_656 S
C434 C435 1.387 . S
C434 H438 0.950 . S
C434 C443 1.390 . S
C435 C434 1.387 . S
C435 C437 1.387 . S
H436 C443 0.950 . S
C437 C435 1.387 . S
C437 C439 1.390 . S
C437 H441 0.950 . S
H438 C434 0.950 . S
C439 C437 1.390 . S
C439 C440 1.387 . S
C439 H442 0.950 . S
C440 C439 1.387 . S
C440 C443 1.387 . S
H441 C437 0.950 . S
H442 C439 0.950 . S
C443 C434 1.390 . S
C443 H436 0.950 . S
C443 C440 1.387 . S
C444 C445 1.387 1_545 S
C444 H448 0.950 . S
C444 C453 1.390 . S
C445 C444 1.387 1_565 S
C445 C447 1.387 1_554 S
H446 C453 0.950 . S
C447 C445 1.387 1_556 S
C447 C449 1.390 . S
C447 H451 0.950 . S
H448 C444 0.950 . S
C449 C447 1.390 . S
C449 C450 1.387 1_565 S
C449 H452 0.950 . S
C450 C449 1.387 1_545 S
C450 C453 1.387 1_556 S
H451 C447 0.950 . S
H452 C449 0.950 . S
C453 C444 1.390 . S
C453 H446 0.950 . S
C453 C450 1.387 1_554 S
C454 C455 1.387 1_455 S
C454 H458 0.950 . S
C454 C463 1.390 1_545 S
C455 C454 1.387 1_655 S
C455 C457 1.387 . S
H456 C463 0.950 . S
C457 C455 1.387 . S
C457 C459 1.390 . S
C457 H461 0.950 . S
H458 C454 0.950 . S
C459 C457 1.390 . S
C459 C460 1.387 1_645 S
C459 H462 0.950 . S
C460 C459 1.387 1_465 S
C460 C463 1.387 . S
H461 C457 0.950 . S
H462 C459 0.950 . S
C463 C454 1.390 1_565 S
C463 H456 0.950 . S
C463 C460 1.387 . S
C464 C465 1.387 . S
C464 H468 0.950 . S
C464 C473 1.390 . S
C465 C464 1.387 . S
C465 C467 1.387 . S
H466 C473 0.950 . S
C467 C465 1.387 . S
C467 C469 1.390 . S
C467 H471 0.950 . S
H468 C464 0.950 . S
C469 C467 1.390 . S
C469 C470 1.387 . S
C469 H472 0.950 . S
C470 C469 1.387 . S
C470 C473 1.387 . S
H471 C467 0.950 . S
H472 C469 0.950 . S
C473 C464 1.390 . S
C473 H466 0.950 . S
C473 C470 1.387 . S
C474 C475 1.387 . S
C474 H478 0.950 . S
C474 C483 1.390 . S
C475 C474 1.387 . S
C475 C477 1.387 . S
H476 C483 0.950 . S
C477 C475 1.387 . S
C477 C479 1.390 . S
C477 H481 0.950 . S
H478 C474 0.950 . S
C479 C477 1.390 . S
C479 C480 1.387 . S
C479 H482 0.950 . S
C480 C479 1.387 . S
C480 C483 1.387 . S
H481 C477 0.950 . S
H482 C479 0.950 . S
C483 C474 1.390 . S
C483 H476 0.950 . S
C483 C480 1.387 . S
C484 C485 1.387 . S
C484 H488 0.950 . S
C484 C493 1.390 . S
C485 C484 1.387 . S
C485 C487 1.387 . S
H486 C493 0.950 . S
C487 C485 1.387 . S
C487 C489 1.390 . S
C487 H491 0.950 . S
H488 C484 0.950 . S
C489 C487 1.390 . S
C489 C490 1.387 . S
C489 H492 0.950 . S
C490 C489 1.387 . S
C490 C493 1.387 . S
H491 C487 0.950 . S
H492 C489 0.950 . S
C493 C484 1.390 . S
C493 H486 0.950 . S
C493 C490 1.387 . S
C494 C495 1.387 . S
C494 H498 0.950 . S
C494 C503 1.390 . S
C495 C494 1.387 . S
C495 C497 1.387 . S
H496 C503 0.950 . S
C497 C495 1.387 . S
C497 C499 1.390 . S
C497 H501 0.950 . S
H498 C494 0.950 . S
C499 C497 1.390 . S
C499 C500 1.387 . S
C499 H502 0.950 . S
C500 C499 1.387 . S
C500 C503 1.387 . S
H501 C497 0.950 . S
H502 C499 0.950 . S
C503 C494 1.390 . S
C503 H496 0.950 . S
C503 C500 1.387 . S
C504 C505 1.387 . S
C504 H508 0.950 . S
C504 C513 1.390 . S
C505 C504 1.387 . S
C505 C507 1.387 . S
H506 C513 0.950 . S
C507 C505 1.387 . S
C507 C509 1.390 . S
C507 H511 0.950 . S
H508 C504 0.950 . S
C509 C507 1.390 . S
C509 C510 1.387 . S
C509 H512 0.950 . S
C510 C509 1.387 . S
C510 C513 1.387 . S
H511 C507 0.950 . S
H512 C509 0.950 . S
C513 C504 1.390 . S
C513 H506 0.950 . S
C513 C510 1.387 . S
C514 C515 1.387 . S
C514 H518 0.950 . S
C514 C523 1.390 . S
C515 C514 1.387 . S
C515 C517 1.387 . S
H516 C523 0.950 . S
C517 C515 1.387 . S
C517 C519 1.390 . S
C517 H521 0.950 . S
H518 C514 0.950 . S
C519 C517 1.390 . S
C519 C520 1.387 . S
C519 H522 0.950 . S
C520 C519 1.387 . S
C520 C523 1.387 . S
H521 C517 0.950 . S
H522 C519 0.950 . S
C523 C514 1.390 . S
C523 H516 0.950 . S
C523 C520 1.387 . S
C524 C525 1.387 . S
C524 H528 0.950 . S
C524 C533 1.390 . S
C525 C524 1.387 . S
C525 C527 1.387 . S
H526 C533 0.950 . S
C527 C525 1.387 . S
C527 C529 1.390 . S
C527 H531 0.950 . S
H528 C524 0.950 . S
C529 C527 1.390 . S
C529 C530 1.387 . S
C529 H532 0.950 . S
C530 C529 1.387 . S
C530 C533 1.387 . S
H531 C527 0.950 . S
H532 C529 0.950 . S
C533 C524 1.390 . S
C533 H526 0.950 . S
C533 C530 1.387 . S
C534 C535 1.387 . S
C534 H538 0.950 1_455 S
C534 C543 1.390 . S
C535 C534 1.387 . S
C535 C537 1.387 . S
H536 C543 0.950 . S
C537 C535 1.387 . S
C537 C539 1.390 . S
C537 H541 0.950 . S
H538 C534 0.950 1_655 S
C539 C537 1.390 . S
C539 C540 1.387 . S
C539 H542 0.950 . S
C540 C539 1.387 . S
C540 C543 1.387 . S
H541 C537 0.950 . S
H542 C539 0.950 . S
C543 C534 1.390 . S
C543 H536 0.950 . S
C543 C540 1.387 . S
C544 C545 1.387 . S
C544 H548 0.950 . S
C544 C553 1.390 . S
C545 C544 1.387 . S
C545 C547 1.387 . S
H546 C553 0.950 . S
C547 C545 1.387 . S
C547 C549 1.390 . S
C547 H551 0.950 . S
H548 C544 0.950 . S
C549 C547 1.390 . S
C549 C550 1.387 . S
C549 H552 0.950 . S
C550 C549 1.387 . S
C550 C553 1.387 . S
H551 C547 0.950 . S
H552 C549 0.950 . S
C553 C544 1.390 . S
C553 H546 0.950 . S
C553 C550 1.387 . S
C554 C555 1.387 . S
C554 H558 0.950 . S
C554 C563 1.390 . S
C555 C554 1.387 . S
C555 C557 1.387 . S
H556 C563 0.950 . S
C557 C555 1.387 . S
C557 C559 1.390 . S
C557 H561 0.950 . S
H558 C554 0.950 . S
C559 C557 1.390 . S
C559 C560 1.387 . S
C559 H562 0.950 . S
C560 C559 1.387 . S
C560 C563 1.387 . S
H561 C557 0.950 . S
H562 C559 0.950 . S
C563 C554 1.390 . S
C563 H556 0.950 . S
C563 C560 1.387 . S
C564 C565 1.387 . S
C564 H568 0.950 . S
C564 C573 1.390 . S
C565 C564 1.387 . S
C565 C567 1.387 . S
H566 C573 0.950 . S
C567 C565 1.387 . S
C567 C569 1.390 . S
C567 H571 0.950 . S
H568 C564 0.950 . S
C569 C567 1.390 . S
C569 C570 1.387 . S
C569 H572 0.950 . S
C570 C569 1.387 . S
C570 C573 1.387 . S
H571 C567 0.950 . S
H572 C569 0.950 . S
C573 C564 1.390 . S
C573 H566 0.950 . S
C573 C570 1.387 . S
C574 C575 1.387 . S
C574 H578 0.950 . S
C574 C583 1.390 . S
C575 C574 1.387 . S
C575 C577 1.387 . S
H576 C583 0.950 . S
C577 C575 1.387 . S
C577 C579 1.390 . S
C577 H581 0.950 . S
H578 C574 0.950 . S
C579 C577 1.390 . S
C579 C580 1.387 . S
C579 H582 0.950 . S
C580 C579 1.387 . S
C580 C583 1.387 . S
H581 C577 0.950 . S
H582 C579 0.950 . S
C583 C574 1.390 . S
C583 H576 0.950 . S
C583 C580 1.387 . S
C425 C250 2.059 . S
C430 C22 2.049 . S
C435 C91 1.949 . S
C440 C287 1.943 . S
C445 C128 1.859 . S
C450 C356 1.866 . S
C455 C393 1.983 . S
C460 C197 1.996 . S
C465 C39 2.666 . S
C470 C145 2.666 . S
C475 C82 2.297 . S
C480 C188 2.313 . S
C485 C347 2.296 . S
C490 C241 2.290 . S
C495 C304 2.674 . S
C500 C410 2.691 . S
C505 C294 1.717 . S
C510 C38 1.652 . S
C515 C75 1.772 . S
C520 C357 1.922 . S
C525 C144 1.714 . S
C530 C400 1.780 . S
C535 C251 1.726 . S
C540 C181 1.613 . S
C545 C234 1.690 . S
C550 C92 1.811 . S
C555 C303 1.697 . S
C560 C135 1.792 . S
C565 C340 1.720 . S
C570 C198 1.856 . S
C575 C29 1.702 . S
C580 C409 1.642 . S
