# Generated by pormake.
# Topology mer, (4)-cn, num edge types: 1
# Building blocks:
#     Node 0, Type 0, BuildingBlock: ESEHIV_clean_sbu_0, # of connection points: 4
#     Node 1, Type 0, BuildingBlock: ESEHIV_clean_sbu_0, # of connection points: 4
#     Node 2, Type 0, BuildingBlock: ESEHIV_clean_sbu_0, # of connection points: 4
#     Node 3, Type 0, BuildingBlock: ESEHIV_clean_sbu_0, # of connection points: 4
#     Node 4, Type 0, BuildingBlock: ESEHIV_clean_sbu_0, # of connection points: 4
#     Node 5, Type 0, BuildingBlock: ESEHIV_clean_sbu_0, # of connection points: 4
#     Node 6, Type 0, BuildingBlock: ESEHIV_clean_sbu_0, # of connection points: 4
#     Node 7, Type 0, BuildingBlock: ESEHIV_clean_sbu_0, # of connection points: 4
#     Node 8, Type 0, BuildingBlock: ESEHIV_clean_sbu_0, # of connection points: 4
#     Node 9, Type 0, BuildingBlock: ESEHIV_clean_sbu_0, # of connection points: 4
#     Node 10, Type 0, BuildingBlock: ESEHIV_clean_sbu_0, # of connection points: 4
#     Node 11, Type 0, BuildingBlock: ESEHIV_clean_sbu_0, # of connection points: 4
#     Node 12, Type 0, BuildingBlock: ESEHIV_clean_sbu_0, # of connection points: 4
#     Node 13, Type 0, BuildingBlock: ESEHIV_clean_sbu_0, # of connection points: 4
#     Node 14, Type 0, BuildingBlock: ESEHIV_clean_sbu_0, # of connection points: 4
#     Node 15, Type 0, BuildingBlock: ESEHIV_clean_sbu_0, # of connection points: 4
#     Node 16, Type 0, BuildingBlock: ESEHIV_clean_sbu_0, # of connection points: 4
#     Node 17, Type 0, BuildingBlock: ESEHIV_clean_sbu_0, # of connection points: 4
#     Node 18, Type 0, BuildingBlock: ESEHIV_clean_sbu_0, # of connection points: 4
#     Node 19, Type 0, BuildingBlock: ESEHIV_clean_sbu_0, # of connection points: 4
#     Node 20, Type 0, BuildingBlock: ESEHIV_clean_sbu_0, # of connection points: 4
#     Node 21, Type 0, BuildingBlock: ESEHIV_clean_sbu_0, # of connection points: 4
#     Node 22, Type 0, BuildingBlock: ESEHIV_clean_sbu_0, # of connection points: 4
#     Node 23, Type 0, BuildingBlock: ESEHIV_clean_sbu_0, # of connection points: 4
#     Node 24, Type 0, BuildingBlock: ESEHIV_clean_sbu_0, # of connection points: 4
#     Node 25, Type 0, BuildingBlock: ESEHIV_clean_sbu_0, # of connection points: 4
#     Node 26, Type 0, BuildingBlock: ESEHIV_clean_sbu_0, # of connection points: 4
#     Node 27, Type 0, BuildingBlock: ESEHIV_clean_sbu_0, # of connection points: 4
#     Node 28, Type 0, BuildingBlock: ESEHIV_clean_sbu_0, # of connection points: 4
#     Node 29, Type 0, BuildingBlock: ESEHIV_clean_sbu_0, # of connection points: 4
#     Node 30, Type 0, BuildingBlock: ESEHIV_clean_sbu_0, # of connection points: 4
#     Node 31, Type 0, BuildingBlock: ESEHIV_clean_sbu_0, # of connection points: 4
#     Edge 32, Type (0, 0), BuildingBlock: CIFDUS_clean_linker_0, # of connection points: 2
#     Edge 33, Type (0, 0), BuildingBlock: CIFDUS_clean_linker_0, # of connection points: 2
#     Edge 34, Type (0, 0), BuildingBlock: CIFDUS_clean_linker_0, # of connection points: 2
#     Edge 35, Type (0, 0), BuildingBlock: CIFDUS_clean_linker_0, # of connection points: 2
#     Edge 36, Type (0, 0), BuildingBlock: CIFDUS_clean_linker_0, # of connection points: 2
#     Edge 37, Type (0, 0), BuildingBlock: CIFDUS_clean_linker_0, # of connection points: 2
#     Edge 38, Type (0, 0), BuildingBlock: CIFDUS_clean_linker_0, # of connection points: 2
#     Edge 39, Type (0, 0), BuildingBlock: CIFDUS_clean_linker_0, # of connection points: 2
#     Edge 40, Type (0, 0), BuildingBlock: CIFDUS_clean_linker_0, # of connection points: 2
#     Edge 41, Type (0, 0), BuildingBlock: CIFDUS_clean_linker_0, # of connection points: 2
#     Edge 42, Type (0, 0), BuildingBlock: CIFDUS_clean_linker_0, # of connection points: 2
#     Edge 43, Type (0, 0), BuildingBlock: CIFDUS_clean_linker_0, # of connection points: 2
#     Edge 44, Type (0, 0), BuildingBlock: CIFDUS_clean_linker_0, # of connection points: 2
#     Edge 45, Type (0, 0), BuildingBlock: CIFDUS_clean_linker_0, # of connection points: 2
#     Edge 46, Type (0, 0), BuildingBlock: CIFDUS_clean_linker_0, # of connection points: 2
#     Edge 47, Type (0, 0), BuildingBlock: CIFDUS_clean_linker_0, # of connection points: 2
#     Edge 48, Type (0, 0), BuildingBlock: CIFDUS_clean_linker_0, # of connection points: 2
#     Edge 49, Type (0, 0), BuildingBlock: CIFDUS_clean_linker_0, # of connection points: 2
#     Edge 50, Type (0, 0), BuildingBlock: CIFDUS_clean_linker_0, # of connection points: 2
#     Edge 51, Type (0, 0), BuildingBlock: CIFDUS_clean_linker_0, # of connection points: 2
#     Edge 52, Type (0, 0), BuildingBlock: CIFDUS_clean_linker_0, # of connection points: 2
#     Edge 53, Type (0, 0), BuildingBlock: CIFDUS_clean_linker_0, # of connection points: 2
#     Edge 54, Type (0, 0), BuildingBlock: CIFDUS_clean_linker_0, # of connection points: 2
#     Edge 55, Type (0, 0), BuildingBlock: CIFDUS_clean_linker_0, # of connection points: 2
#     Edge 56, Type (0, 0), BuildingBlock: CIFDUS_clean_linker_0, # of connection points: 2
#     Edge 57, Type (0, 0), BuildingBlock: CIFDUS_clean_linker_0, # of connection points: 2
#     Edge 58, Type (0, 0), BuildingBlock: CIFDUS_clean_linker_0, # of connection points: 2
#     Edge 59, Type (0, 0), BuildingBlock: CIFDUS_clean_linker_0, # of connection points: 2
#     Edge 60, Type (0, 0), BuildingBlock: CIFDUS_clean_linker_0, # of connection points: 2
#     Edge 61, Type (0, 0), BuildingBlock: CIFDUS_clean_linker_0, # of connection points: 2
#     Edge 62, Type (0, 0), BuildingBlock: CIFDUS_clean_linker_0, # of connection points: 2
#     Edge 63, Type (0, 0), BuildingBlock: CIFDUS_clean_linker_0, # of connection points: 2
#     Edge 64, Type (0, 0), BuildingBlock: CIFDUS_clean_linker_0, # of connection points: 2
#     Edge 65, Type (0, 0), BuildingBlock: CIFDUS_clean_linker_0, # of connection points: 2
#     Edge 66, Type (0, 0), BuildingBlock: CIFDUS_clean_linker_0, # of connection points: 2
#     Edge 67, Type (0, 0), BuildingBlock: CIFDUS_clean_linker_0, # of connection points: 2
#     Edge 68, Type (0, 0), BuildingBlock: CIFDUS_clean_linker_0, # of connection points: 2
#     Edge 69, Type (0, 0), BuildingBlock: CIFDUS_clean_linker_0, # of connection points: 2
#     Edge 70, Type (0, 0), BuildingBlock: CIFDUS_clean_linker_0, # of connection points: 2
#     Edge 71, Type (0, 0), BuildingBlock: CIFDUS_clean_linker_0, # of connection points: 2
#     Edge 72, Type (0, 0), BuildingBlock: CIFDUS_clean_linker_0, # of connection points: 2
#     Edge 73, Type (0, 0), BuildingBlock: CIFDUS_clean_linker_0, # of connection points: 2
#     Edge 74, Type (0, 0), BuildingBlock: CIFDUS_clean_linker_0, # of connection points: 2
#     Edge 75, Type (0, 0), BuildingBlock: CIFDUS_clean_linker_0, # of connection points: 2
#     Edge 76, Type (0, 0), BuildingBlock: CIFDUS_clean_linker_0, # of connection points: 2
#     Edge 77, Type (0, 0), BuildingBlock: CIFDUS_clean_linker_0, # of connection points: 2
#     Edge 78, Type (0, 0), BuildingBlock: CIFDUS_clean_linker_0, # of connection points: 2
#     Edge 79, Type (0, 0), BuildingBlock: CIFDUS_clean_linker_0, # of connection points: 2
#     Edge 80, Type (0, 0), BuildingBlock: CIFDUS_clean_linker_0, # of connection points: 2
#     Edge 81, Type (0, 0), BuildingBlock: CIFDUS_clean_linker_0, # of connection points: 2
#     Edge 82, Type (0, 0), BuildingBlock: CIFDUS_clean_linker_0, # of connection points: 2
#     Edge 83, Type (0, 0), BuildingBlock: CIFDUS_clean_linker_0, # of connection points: 2
#     Edge 84, Type (0, 0), BuildingBlock: CIFDUS_clean_linker_0, # of connection points: 2
#     Edge 85, Type (0, 0), BuildingBlock: CIFDUS_clean_linker_0, # of connection points: 2
#     Edge 86, Type (0, 0), BuildingBlock: CIFDUS_clean_linker_0, # of connection points: 2
#     Edge 87, Type (0, 0), BuildingBlock: CIFDUS_clean_linker_0, # of connection points: 2
#     Edge 88, Type (0, 0), BuildingBlock: CIFDUS_clean_linker_0, # of connection points: 2
#     Edge 89, Type (0, 0), BuildingBlock: CIFDUS_clean_linker_0, # of connection points: 2
#     Edge 90, Type (0, 0), BuildingBlock: CIFDUS_clean_linker_0, # of connection points: 2
#     Edge 91, Type (0, 0), BuildingBlock: CIFDUS_clean_linker_0, # of connection points: 2
#     Edge 92, Type (0, 0), BuildingBlock: CIFDUS_clean_linker_0, # of connection points: 2
#     Edge 93, Type (0, 0), BuildingBlock: CIFDUS_clean_linker_0, # of connection points: 2
#     Edge 94, Type (0, 0), BuildingBlock: CIFDUS_clean_linker_0, # of connection points: 2
#     Edge 95, Type (0, 0), BuildingBlock: CIFDUS_clean_linker_0, # of connection points: 2
# Relax obj value: 0.085
# Max RMSD: 0.222
# Mean RMSD: 0.222
data_MOF--net-mer--node1-ESEHIV_clean_sbu_0--edge1-CIFDUS_clean_linker_0
_symmetry_space_group_name_H-M    P1
_symmetry_Int_Tables_number       1
_symmetry_cell_setting            triclinic
loop_
_symmetry_equiv_pos_as_xyz
'x, y, z'
_cell_length_a     63.035757
_cell_length_b     63.319335
_cell_length_c     48.481399
_cell_angle_alpha  90.018829
_cell_angle_beta   90.006844
_cell_angle_gamma 90.028351
loop_
_atom_site_label
_atom_site_type_symbol
_atom_site_fract_x
_atom_site_fract_y
_atom_site_fract_z
_atom_type_partial_charge
Cu0 Cu 0.13953 0.29829 0.40464 0.0
N1 N 0.14387 0.2693 0.40023 0.0
N2 N 0.16128 0.2386 0.39988 0.0
C3 C 0.16004 0.2581 0.411 0.0
C4 C 0.14528 0.2374 0.38151 0.0
C5 C 0.13446 0.25635 0.38188 0.0
O6 O 0.15941 0.31242 0.37987 0.0
C7 C 0.13709 0.32344 0.45297 0.0
O8 O 0.1284 0.33709 0.43599 0.0
H9 H 0.17145 0.26454 0.42542 0.0
H10 H 0.12137 0.26078 0.36867 0.0
N11 N 0.11216 0.3062 0.39365 0.0
N12 N 0.07705 0.30833 0.38736 0.0
C13 C 0.09319 0.29694 0.3983 0.0
C14 C 0.10784 0.32385 0.37931 0.0
C15 C 0.08632 0.32519 0.37535 0.0
C16 C 0.15723 0.30889 0.3541 0.0
O17 O 0.14197 0.2962 0.34597 0.0
H18 H 0.09127 0.28242 0.4098 0.0
H19 H 0.11961 0.33506 0.37231 0.0
O20 O 0.14375 0.30592 0.44338 0.0
H21 H 0.142 0.22399 0.36831 0.0
H22 H 0.07819 0.33756 0.36417 0.0
Cu23 Cu 0.73281 0.13037 0.40295 0.0
N24 N 0.75925 0.14223 0.39579 0.0
N25 N 0.78449 0.16599 0.38703 0.0
C26 C 0.76348 0.16182 0.38657 0.0
C27 C 0.79379 0.14836 0.39688 0.0
C28 C 0.77817 0.13374 0.4023 0.0
O29 O 0.71174 0.14463 0.3798 0.0
C30 C 0.71471 0.12931 0.45951 0.0
O31 O 0.69623 0.1229 0.45017 0.0
H32 H 0.75133 0.1731 0.38095 0.0
H33 H 0.78033 0.11823 0.41122 0.0
N34 N 0.7344 0.10184 0.39345 0.0
N35 N 0.72941 0.06691 0.39174 0.0
C36 C 0.7233 0.08534 0.40346 0.0
C37 C 0.7479 0.09359 0.37486 0.0
C38 C 0.74484 0.07214 0.3737 0.0
C39 C 0.71477 0.1435 0.35381 0.0
O40 O 0.7313 0.13293 0.34481 0.0
H41 H 0.71125 0.08681 0.41923 0.0
H42 H 0.75921 0.1026 0.3629 0.0
O43 O 0.72972 0.13333 0.44273 0.0
H44 H 0.81063 0.14632 0.40036 0.0
H45 H 0.75314 0.06131 0.36022 0.0
Cu46 Cu 0.87832 0.71637 0.40356 0.0
N47 N 0.86469 0.74182 0.41144 0.0
N48 N 0.84598 0.77179 0.40923 0.0
C49 C 0.85157 0.75378 0.396 0.0
C50 C 0.85626 0.7711 0.43365 0.0
C51 C 0.86769 0.7527 0.43491 0.0
O52 O 0.86462 0.70077 0.37369 0.0
C53 C 0.89495 0.70529 0.45565 0.0
O54 O 0.90973 0.71872 0.44813 0.0
H55 H 0.84622 0.74931 0.37562 0.0
H56 H 0.87778 0.74774 0.45172 0.0
N57 N 0.90526 0.72327 0.39057 0.0
N58 N 0.93983 0.72202 0.38063 0.0
C59 C 0.92297 0.71141 0.3909 0.0
C60 C 0.91094 0.74181 0.37928 0.0
C61 C 0.93224 0.74112 0.37315 0.0
C62 C 0.84485 0.70008 0.36841 0.0
O63 O 0.83141 0.70913 0.38543 0.0
H64 H 0.92358 0.69566 0.39951 0.0
H65 H 0.90034 0.755 0.37602 0.0
O66 O 0.88005 0.70097 0.43871 0.0
H67 H 0.85595 0.78316 0.44944 0.0
H68 H 0.94138 0.75375 0.36394 0.0
Cu69 Cu 0.29609 0.88173 0.40267 0.0
N70 N 0.27011 0.86949 0.41189 0.0
N71 N 0.23972 0.85132 0.41236 0.0
C72 C 0.25681 0.85712 0.39724 0.0
C73 C 0.24231 0.86063 0.43716 0.0
C74 C 0.26096 0.87179 0.43676 0.0
O75 O 0.30765 0.86965 0.36854 0.0
C76 C 0.31347 0.88926 0.45609 0.0
O77 O 0.30333 0.9073 0.45409 0.0
H78 H 0.25979 0.85215 0.37624 0.0
H79 H 0.26748 0.88097 0.45355 0.0
N80 N 0.29057 0.91037 0.39639 0.0
N81 N 0.29278 0.94553 0.39241 0.0
C82 C 0.30336 0.92742 0.39811 0.0
C83 C 0.27147 0.9179 0.38899 0.0
C84 C 0.27275 0.93947 0.38653 0.0
C85 C 0.30765 0.85 0.36278 0.0
O86 O 0.30062 0.83652 0.38123 0.0
H87 H 0.31989 0.92657 0.40403 0.0
H88 H 0.25752 0.90829 0.38563 0.0
O89 O 0.31388 0.87688 0.4353 0.0
H90 H 0.23142 0.85957 0.45436 0.0
H91 H 0.25991 0.94982 0.38052 0.0
Cu92 Cu 0.12493 0.71834 0.66884 0.0
N93 N 0.15114 0.73215 0.66947 0.0
N94 N 0.17731 0.75596 0.66938 0.0
C95 C 0.15639 0.75251 0.66495 0.0
C96 C 0.18543 0.73703 0.67656 0.0
C97 C 0.16931 0.72247 0.67663 0.0
O98 O 0.12744 0.69561 0.69553 0.0
C99 C 0.13282 0.70304 0.61421 0.0
O100 O 0.15282 0.70229 0.62176 0.0
H101 H 0.14508 0.7646 0.65926 0.0
H102 H 0.17065 0.70591 0.6818 0.0
N103 N 0.10278 0.73612 0.67965 0.0
N104 N 0.06978 0.74781 0.6871 0.0
C105 C 0.0819 0.73205 0.67686 0.0
C106 C 0.10396 0.75504 0.69218 0.0
C107 C 0.08365 0.76232 0.69673 0.0
C108 C 0.13075 0.70139 0.72033 0.0
O109 O 0.13058 0.72168 0.72603 0.0
H110 H 0.07578 0.71786 0.66727 0.0
H111 H 0.11853 0.76286 0.69799 0.0
O112 O 0.11879 0.70848 0.63171 0.0
H113 H 0.20189 0.73387 0.68136 0.0
H114 H 0.07945 0.77697 0.70683 0.0
Cu115 Cu 0.30449 0.12895 0.66413 0.0
N116 N 0.28068 0.14535 0.65625 0.0
N117 N 0.25189 0.16602 0.65728 0.0
C118 C 0.26805 0.15756 0.67209 0.0
C119 C 0.2545 0.15853 0.6314 0.0
C120 C 0.27217 0.14595 0.63087 0.0
O121 O 0.31887 0.13782 0.69807 0.0
C122 C 0.33233 0.11638 0.61961 0.0
O123 O 0.33532 0.09883 0.63346 0.0
H124 H 0.27075 0.16025 0.69385 0.0
H125 H 0.2783 0.13745 0.61323 0.0
N126 N 0.29471 0.10128 0.66851 0.0
N127 N 0.29297 0.06653 0.67654 0.0
C128 C 0.30533 0.08401 0.67705 0.0
C129 C 0.27492 0.0946 0.66291 0.0
C130 C 0.27378 0.07325 0.66781 0.0
C131 C 0.32073 0.15702 0.70556 0.0
O132 O 0.31382 0.17198 0.68909 0.0
H133 H 0.32192 0.0842 0.68277 0.0
H134 H 0.26218 0.10455 0.65558 0.0
O135 O 0.32158 0.13122 0.63053 0.0
H136 H 0.24419 0.16152 0.614 0.0
H137 H 0.25983 0.0635 0.66519 0.0
Cu138 Cu 0.89001 0.31159 0.64283 0.0
N139 N 0.87236 0.28867 0.6348 0.0
N140 N 0.85115 0.26051 0.63808 0.0
C141 C 0.86177 0.27569 0.65201 0.0
C142 C 0.85528 0.26406 0.61119 0.0
C143 C 0.8684 0.28133 0.60926 0.0
O144 O 0.87793 0.32942 0.67177 0.0
C145 C 0.87885 0.33339 0.59373 0.0
O146 O 0.8596 0.33262 0.60406 0.0
H147 H 0.86185 0.27725 0.6742 0.0
H148 H 0.87494 0.28788 0.5905 0.0
N149 N 0.91635 0.30148 0.65423 0.0
N150 N 0.95118 0.30007 0.66268 0.0
C151 C 0.93484 0.31211 0.65381 0.0
C152 C 0.92105 0.28207 0.66365 0.0
C153 C 0.94254 0.28114 0.6689 0.0
C154 C 0.87667 0.32286 0.6966 0.0
O155 O 0.8836 0.30386 0.70262 0.0
H156 H 0.93626 0.32823 0.64665 0.0
H157 H 0.90966 0.26947 0.66645 0.0
O158 O 0.89428 0.32662 0.6082 0.0
H159 H 0.84973 0.25447 0.59416 0.0
H160 H 0.95104 0.26765 0.67699 0.0
Cu161 Cu 0.69635 0.87838 0.67347 0.0
N162 N 0.72473 0.8708 0.67848 0.0
N163 N 0.75411 0.85111 0.67685 0.0
C164 C 0.73378 0.85315 0.66852 0.0
C165 C 0.75794 0.86809 0.69294 0.0
C166 C 0.73975 0.8802 0.69395 0.0
O167 O 0.68 0.86317 0.70085 0.0
C168 C 0.69976 0.87422 0.61602 0.0
O169 O 0.71914 0.8809 0.62082 0.0
H170 H 0.7254 0.84181 0.65586 0.0
H171 H 0.73753 0.89462 0.70555 0.0
N172 N 0.69178 0.90717 0.67865 0.0
N173 N 0.69556 0.94215 0.68134 0.0
C174 C 0.70553 0.92345 0.67778 0.0
C175 C 0.67258 0.91584 0.68282 0.0
C176 C 0.67484 0.9374 0.6845 0.0
C177 C 0.68373 0.86711 0.72615 0.0
O178 O 0.69792 0.88156 0.73237 0.0
H179 H 0.72236 0.92171 0.67407 0.0
H180 H 0.65793 0.90702 0.6844 0.0
O181 O 0.68711 0.87158 0.63619 0.0
H182 H 0.77281 0.87159 0.70312 0.0
H183 H 0.66226 0.94869 0.68816 0.0
Cu184 Cu 0.88557 0.71661 0.6678 0.0
N185 N 0.86655 0.73773 0.65716 0.0
N186 N 0.84244 0.76362 0.65669 0.0
C187 C 0.85428 0.75059 0.67259 0.0
C188 C 0.84759 0.75878 0.63043 0.0
C189 C 0.86235 0.74288 0.63081 0.0
O190 O 0.87244 0.69871 0.69606 0.0
C191 C 0.90537 0.70966 0.6169 0.0
O192 O 0.91497 0.72724 0.62405 0.0
H193 H 0.85383 0.7502 0.69489 0.0
H194 H 0.86949 0.73555 0.61296 0.0
N195 N 0.91021 0.72922 0.68201 0.0
N196 N 0.94441 0.73623 0.69069 0.0
C197 C 0.93029 0.72188 0.6811 0.0
C198 C 0.91162 0.7487 0.6929 0.0
C199 C 0.93261 0.75304 0.69834 0.0
C200 C 0.87086 0.7052 0.72092 0.0
O201 O 0.87837 0.72393 0.72725 0.0
H202 H 0.93451 0.7068 0.67214 0.0
H203 H 0.89834 0.75923 0.696 0.0
O204 O 0.89215 0.70133 0.63359 0.0
H205 H 0.84135 0.76638 0.61216 0.0
H206 H 0.93867 0.76762 0.70693 0.0
Cu207 Cu 0.31451 0.88126 0.67432 0.0
N208 N 0.28625 0.87278 0.67144 0.0
N209 N 0.25747 0.85216 0.67216 0.0
C210 C 0.27852 0.85345 0.6771 0.0
C211 C 0.25178 0.87145 0.66292 0.0
C212 C 0.26957 0.88413 0.66251 0.0
O213 O 0.32915 0.86193 0.6995 0.0
C214 C 0.32263 0.86999 0.61775 0.0
O215 O 0.31294 0.85217 0.62356 0.0
H216 H 0.28832 0.8405 0.68412 0.0
H217 H 0.2703 0.90043 0.65595 0.0
N218 N 0.3157 0.90846 0.68921 0.0
N219 N 0.31187 0.94342 0.69354 0.0
C220 C 0.30761 0.92617 0.67804 0.0
C221 C 0.32563 0.9147 0.71239 0.0
C222 C 0.32321 0.93621 0.7152 0.0
C223 C 0.32195 0.86049 0.72407 0.0
O224 O 0.30512 0.87159 0.73078 0.0
H225 H 0.29928 0.92642 0.65855 0.0
H226 H 0.33424 0.90439 0.72618 0.0
O227 O 0.32613 0.88324 0.63704 0.0
H228 H 0.2359 0.87615 0.65709 0.0
H229 H 0.32927 0.94571 0.732 0.0
Cu230 Cu 0.13938 0.30997 0.67374 0.0
N231 N 0.14449 0.28175 0.68202 0.0
N232 N 0.16122 0.25069 0.68071 0.0
C233 C 0.15784 0.26928 0.66785 0.0
C234 C 0.14939 0.25147 0.70391 0.0
C235 C 0.13904 0.27071 0.70465 0.0
O236 O 0.15516 0.327 0.70024 0.0
C237 C 0.1381 0.32608 0.61824 0.0
O238 O 0.12306 0.33866 0.62728 0.0
H239 H 0.166 0.27438 0.64937 0.0
H240 H 0.12907 0.27662 0.72108 0.0
N241 N 0.11079 0.31634 0.67892 0.0
N242 N 0.07533 0.31582 0.6785 0.0
C243 C 0.09332 0.30597 0.6703 0.0
C244 C 0.10367 0.33316 0.69307 0.0
C245 C 0.08187 0.3329 0.69287 0.0
C246 C 0.173 0.32146 0.7102 0.0
O247 O 0.18289 0.30513 0.69956 0.0
H248 H 0.09384 0.29166 0.65811 0.0
H249 H 0.1137 0.34475 0.703 0.0
O250 O 0.14757 0.31395 0.63521 0.0
H251 H 0.14867 0.23928 0.71953 0.0
H252 H 0.07167 0.34423 0.70303 0.0
Cu253 Cu 0.72554 0.12652 0.68103 0.0
N254 N 0.75233 0.13909 0.68076 0.0
N255 N 0.77781 0.16292 0.67337 0.0
C256 C 0.75727 0.15778 0.66922 0.0
C257 C 0.78611 0.14684 0.68807 0.0
C258 C 0.77036 0.13213 0.69254 0.0
O259 O 0.7095 0.14118 0.70943 0.0
C260 C 0.72587 0.12388 0.624 0.0
O261 O 0.74516 0.11734 0.62973 0.0
H262 H 0.74592 0.16753 0.65834 0.0
H263 H 0.77204 0.11743 0.7036 0.0
N264 N 0.72806 0.09822 0.69109 0.0
N265 N 0.72436 0.06316 0.69176 0.0
C266 C 0.72039 0.08118 0.67778 0.0
C267 C 0.73695 0.09076 0.71436 0.0
C268 C 0.73482 0.06913 0.71475 0.0
C269 C 0.69432 0.13295 0.723 0.0
O270 O 0.68699 0.11435 0.71565 0.0
H271 H 0.71185 0.08204 0.65844 0.0
H272 H 0.74395 0.10047 0.73031 0.0
O273 O 0.71355 0.12867 0.64389 0.0
H274 H 0.80245 0.14565 0.69475 0.0
H275 H 0.7398 0.0587 0.73121 0.0
Cu276 Cu 0.89012 0.32155 0.38127 0.0
N277 N 0.86777 0.30252 0.37708 0.0
N278 N 0.84683 0.27403 0.37686 0.0
C279 C 0.86609 0.28192 0.38374 0.0
C280 C 0.83608 0.29039 0.36577 0.0
C281 C 0.849 0.30782 0.3659 0.0
O282 O 0.88556 0.34248 0.35237 0.0
C283 C 0.87202 0.33942 0.42972 0.0
O284 O 0.85477 0.34052 0.4146 0.0
H285 H 0.87877 0.27294 0.39316 0.0
H286 H 0.84496 0.32342 0.35852 0.0
N287 N 0.91643 0.30841 0.37646 0.0
N288 N 0.95161 0.30361 0.37708 0.0
C289 C 0.93539 0.31682 0.38302 0.0
C290 C 0.92071 0.2892 0.36601 0.0
C291 C 0.94239 0.28617 0.3664 0.0
C292 C 0.88615 0.33576 0.32756 0.0
O293 O 0.89212 0.31617 0.32314 0.0
H294 H 0.93716 0.33233 0.39212 0.0
H295 H 0.90894 0.27827 0.35828 0.0
O296 O 0.88912 0.33288 0.41868 0.0
H297 H 0.81985 0.29002 0.35852 0.0
H298 H 0.95071 0.27242 0.35873 0.0
Cu299 Cu 0.70188 0.88208 0.39804 0.0
N300 N 0.72975 0.87783 0.38686 0.0
N301 N 0.76152 0.86235 0.38596 0.0
C302 C 0.74392 0.86624 0.40092 0.0
C303 C 0.75832 0.87197 0.36147 0.0
C304 C 0.73863 0.88157 0.3621 0.0
O305 O 0.68395 0.86832 0.37117 0.0
C306 C 0.686 0.875 0.45309 0.0
O307 O 0.66949 0.88649 0.44616 0.0
H308 H 0.7407 0.85947 0.42098 0.0
H309 H 0.73086 0.88964 0.34525 0.0
N310 N 0.69546 0.91074 0.39835 0.0
N311 N 0.69868 0.94587 0.39861 0.0
C312 C 0.70896 0.92715 0.40005 0.0
C313 C 0.67603 0.91924 0.39575 0.0
C314 C 0.67794 0.94089 0.39594 0.0
C315 C 0.6874 0.84947 0.36336 0.0
O316 O 0.70171 0.83811 0.37632 0.0
H317 H 0.72594 0.92532 0.40216 0.0
H318 H 0.66154 0.91027 0.3934 0.0
O319 O 0.69999 0.87067 0.43507 0.0
H320 H 0.76907 0.87149 0.34407 0.0
H321 H 0.66509 0.95205 0.39339 0.0
Cu322 Cu 0.12662 0.70875 0.39407 0.0
N323 N 0.13001 0.73781 0.39163 0.0
N324 N 0.14647 0.76887 0.39523 0.0
C325 C 0.1448 0.74905 0.40517 0.0
C326 C 0.13208 0.77019 0.37469 0.0
C327 C 0.12192 0.75095 0.37253 0.0
O328 O 0.14469 0.69696 0.36589 0.0
C329 C 0.12082 0.70341 0.4506 0.0
O330 O 0.10257 0.71224 0.44448 0.0
H331 H 0.15522 0.74232 0.4206 0.0
H332 H 0.11036 0.74647 0.3571 0.0
N333 N 0.09887 0.70099 0.38547 0.0
N334 N 0.06376 0.70177 0.37926 0.0
C335 C 0.08105 0.71253 0.38797 0.0
C336 C 0.09274 0.68241 0.37466 0.0
C337 C 0.07113 0.68282 0.37081 0.0
C338 C 0.14995 0.67768 0.36391 0.0
O339 O 0.14463 0.66444 0.38359 0.0
H340 H 0.08081 0.72835 0.39639 0.0
H341 H 0.10327 0.66949 0.3697 0.0
O342 O 0.13402 0.69983 0.43127 0.0
H343 H 0.12965 0.78381 0.36157 0.0
H344 H 0.06169 0.67022 0.36205 0.0
Cu345 Cu 0.31306 0.13187 0.40292 0.0
N346 N 0.28381 0.13651 0.4046 0.0
N347 N 0.25244 0.1529 0.40326 0.0
C348 C 0.27225 0.15194 0.39264 0.0
C349 C 0.2515 0.13754 0.42245 0.0
C350 C 0.27083 0.12749 0.42323 0.0
O351 O 0.32599 0.14973 0.37459 0.0
C352 C 0.33323 0.12502 0.45556 0.0
O353 O 0.3393 0.10684 0.44519 0.0
H354 H 0.27864 0.16314 0.37796 0.0
H355 H 0.27556 0.11532 0.43761 0.0
N356 N 0.31867 0.1037 0.39368 0.0
N357 N 0.31676 0.0685 0.39005 0.0
C358 C 0.30752 0.08621 0.40008 0.0
C359 C 0.33548 0.09688 0.37912 0.0
C360 C 0.33435 0.07524 0.37681 0.0
C361 C 0.32181 0.14633 0.3492 0.0
O362 O 0.30805 0.1315 0.34289 0.0
H363 H 0.29313 0.08646 0.41219 0.0
H364 H 0.34771 0.107 0.37073 0.0
O365 O 0.32342 0.13813 0.44018 0.0
H366 H 0.23803 0.13436 0.43567 0.0
H367 H 0.34548 0.06532 0.36582 0.0
Cu368 Cu 0.62895 0.79659 0.9139 0.0
N369 N 0.63503 0.7685 0.90547 0.0
N370 N 0.65489 0.73935 0.90112 0.0
C371 C 0.65447 0.76003 0.90806 0.0
C372 C 0.63472 0.73477 0.89367 0.0
C373 C 0.62253 0.75278 0.89632 0.0
O374 O 0.64369 0.81396 0.88718 0.0
C375 C 0.63105 0.81405 0.96832 0.0
O376 O 0.61557 0.82648 0.9603 0.0
H377 H 0.66804 0.76914 0.91475 0.0
H378 H 0.60579 0.75425 0.8919 0.0
N379 N 0.60006 0.80303 0.91156 0.0
N380 N 0.56461 0.802 0.91265 0.0
C381 C 0.5828 0.79109 0.91682 0.0
C382 C 0.59251 0.82201 0.90389 0.0
C383 C 0.57073 0.82145 0.90456 0.0
C384 C 0.6388 0.81127 0.86194 0.0
O385 O 0.62432 0.79712 0.85567 0.0
H386 H 0.58355 0.77484 0.92363 0.0
H387 H 0.60228 0.83532 0.89803 0.0
O388 O 0.63923 0.80121 0.95117 0.0
H389 H 0.62897 0.71947 0.88712 0.0
H390 H 0.5602 0.83418 0.8987 0.0
Cu391 Cu 0.19183 0.62677 0.90262 0.0
N392 N 0.22143 0.62658 0.90077 0.0
N393 N 0.25486 0.63846 0.90258 0.0
C394 C 0.23427 0.64353 0.89831 0.0
C395 C 0.25485 0.61751 0.90775 0.0
C396 C 0.2343 0.61034 0.907 0.0
O397 O 0.18019 0.64498 0.87424 0.0
C398 C 0.18423 0.62601 0.95988 0.0
O399 O 0.18707 0.60561 0.95682 0.0
H400 H 0.22844 0.65945 0.89535 0.0
H401 H 0.22908 0.59464 0.91248 0.0
N402 N 0.18074 0.59942 0.89843 0.0
N403 N 0.17883 0.56467 0.89047 0.0
C404 C 0.1905 0.58242 0.88757 0.0
C405 C 0.16192 0.5923 0.90769 0.0
C406 C 0.16077 0.57083 0.90306 0.0
C407 C 0.17709 0.63844 0.84972 0.0
O408 O 0.18236 0.619 0.84323 0.0
H409 H 0.20618 0.58289 0.87858 0.0
H410 H 0.15023 0.60193 0.9181 0.0
O411 O 0.18501 0.63803 0.93888 0.0
H412 H 0.26862 0.60807 0.9128 0.0
H413 H 0.14787 0.56052 0.90902 0.0
Cu414 Cu 0.38964 0.20297 0.8915 0.0
N415 N 0.38293 0.23141 0.88748 0.0
N416 N 0.3654 0.26195 0.88951 0.0
C417 C 0.36784 0.24256 0.90068 0.0
C418 C 0.3795 0.26304 0.86865 0.0
C419 C 0.39031 0.24418 0.86748 0.0
O420 O 0.37145 0.18835 0.86496 0.0
C421 C 0.39553 0.17912 0.941 0.0
O422 O 0.4065 0.16656 0.92482 0.0
H423 H 0.35813 0.23624 0.91715 0.0
H424 H 0.40215 0.23975 0.85241 0.0
N425 N 0.41785 0.19977 0.88045 0.0
N426 N 0.45331 0.19932 0.88033 0.0
C427 C 0.43559 0.20115 0.89587 0.0
C428 C 0.42456 0.19709 0.85435 0.0
C429 C 0.44639 0.19675 0.8542 0.0
C430 C 0.3753 0.17038 0.85423 0.0
O431 O 0.39097 0.15894 0.86399 0.0
H432 H 0.43547 0.2039 0.9179 0.0
H433 H 0.41424 0.19575 0.8366 0.0
O434 O 0.38612 0.19498 0.93039 0.0
H435 H 0.38156 0.27638 0.85495 0.0
H436 H 0.45636 0.19459 0.83625 0.0
Cu437 Cu 0.7915 0.39272 0.86278 0.0
N438 N 0.7639 0.3854 0.85234 0.0
N439 N 0.73308 0.36794 0.84922 0.0
C440 C 0.75252 0.36868 0.8611 0.0
C441 C 0.73236 0.38492 0.83238 0.0
C442 C 0.75129 0.39562 0.83439 0.0
O443 O 0.81085 0.37375 0.84297 0.0
C444 C 0.80464 0.38087 0.91903 0.0
O445 O 0.81959 0.3688 0.90866 0.0
H446 H 0.7584 0.35744 0.87606 0.0
H447 H 0.75552 0.40982 0.82336 0.0
N448 N 0.79615 0.42083 0.85241 0.0
N449 N 0.80268 0.45552 0.85465 0.0
C450 C 0.80067 0.43731 0.869 0.0
C451 C 0.79527 0.42887 0.82674 0.0
C452 C 0.79931 0.45021 0.82804 0.0
C453 C 0.82635 0.38035 0.82839 0.0
O454 O 0.83181 0.40033 0.8296 0.0
H455 H 0.80212 0.43596 0.89117 0.0
H456 H 0.79211 0.41975 0.80832 0.0
O457 O 0.7925 0.39122 0.90296 0.0
H458 H 0.71926 0.38917 0.81908 0.0
H459 H 0.80003 0.46088 0.81064 0.0
Cu460 Cu 0.64776 0.21012 0.16894 0.0
N461 N 0.64993 0.23895 0.1773 0.0
N462 N 0.66279 0.27188 0.17917 0.0
C463 C 0.66698 0.25144 0.1732 0.0
C464 C 0.64238 0.27215 0.18761 0.0
C465 C 0.63452 0.25185 0.18647 0.0
O466 O 0.66015 0.19331 0.19856 0.0
C467 C 0.66027 0.21691 0.1141 0.0
O468 O 0.64942 0.2344 0.11767 0.0
H469 H 0.68184 0.24579 0.16479 0.0
H470 H 0.61854 0.24698 0.19137 0.0
N471 N 0.61965 0.2021 0.16159 0.0
N472 N 0.58436 0.19802 0.16084 0.0
C473 C 0.60124 0.2054 0.17526 0.0
C474 C 0.61411 0.19204 0.13821 0.0
C475 C 0.5925 0.18956 0.13765 0.0
C476 C 0.65623 0.19619 0.22409 0.0
O477 O 0.64256 0.21082 0.23137 0.0
H478 H 0.60017 0.21338 0.19494 0.0
H479 H 0.62508 0.18699 0.12239 0.0
O480 O 0.66275 0.20447 0.1345 0.0
H481 H 0.63365 0.28605 0.19391 0.0
H482 H 0.58348 0.18193 0.12146 0.0
Cu483 Cu 0.79191 0.63264 0.1828 0.0
N484 N 0.76329 0.63933 0.17925 0.0
N485 N 0.73268 0.6571 0.17847 0.0
C486 C 0.75379 0.65813 0.18328 0.0
C487 C 0.72888 0.63686 0.17116 0.0
C488 C 0.74777 0.62598 0.17164 0.0
O489 O 0.80438 0.6498 0.21202 0.0
C490 C 0.80068 0.64817 0.12805 0.0
O491 O 0.7878 0.66381 0.13406 0.0
H492 H 0.7622 0.67221 0.18969 0.0
H493 H 0.75011 0.60951 0.16657 0.0
N494 N 0.79383 0.60436 0.19316 0.0
N495 N 0.7978 0.56934 0.18991 0.0
C496 C 0.79628 0.58781 0.17605 0.0
C497 C 0.79368 0.59621 0.21876 0.0
C498 C 0.79613 0.57461 0.21684 0.0
C499 C 0.82299 0.64633 0.22114 0.0
O500 O 0.83487 0.63218 0.20872 0.0
H501 H 0.79688 0.58942 0.15385 0.0
H502 H 0.79222 0.60539 0.23748 0.0
O503 O 0.80544 0.63478 0.14668 0.0
H504 H 0.71362 0.63045 0.16526 0.0
H505 H 0.79715 0.56376 0.23403 0.0
Cu506 Cu 0.36481 0.79287 0.17378 0.0
N507 N 0.35614 0.7648 0.17188 0.0
N508 N 0.33749 0.73478 0.17226 0.0
C509 C 0.33727 0.75577 0.17761 0.0
C510 C 0.35718 0.73065 0.16274 0.0
C511 C 0.36856 0.74912 0.16251 0.0
O512 O 0.34787 0.80774 0.20153 0.0
C513 C 0.37107 0.8193 0.12446 0.0
O514 O 0.3801 0.83368 0.14005 0.0
H515 H 0.32373 0.76444 0.18535 0.0
H516 H 0.38473 0.75114 0.1555 0.0
N517 N 0.39264 0.79159 0.18672 0.0
N518 N 0.42768 0.79381 0.19187 0.0
C519 C 0.41064 0.80088 0.17778 0.0
C520 C 0.39863 0.77852 0.20718 0.0
C521 C 0.42024 0.77975 0.21029 0.0
C522 C 0.35407 0.82519 0.21191 0.0
O523 O 0.37074 0.83461 0.2013 0.0
H524 H 0.41141 0.81196 0.16085 0.0
H525 H 0.38796 0.76838 0.21858 0.0
O526 O 0.3633 0.80278 0.13554 0.0
H527 H 0.36283 0.71548 0.15552 0.0
H528 H 0.42981 0.771 0.22489 0.0
Cu529 Cu 0.22851 0.37395 0.17188 0.0
N530 N 0.25585 0.36371 0.16634 0.0
N531 N 0.2849 0.34362 0.16537 0.0
C532 C 0.26396 0.34439 0.1713 0.0
C533 C 0.29002 0.36307 0.1562 0.0
C534 C 0.27208 0.37537 0.15673 0.0
O535 O 0.21264 0.3567 0.19797 0.0
C536 C 0.21556 0.36409 0.11637 0.0
O537 O 0.22461 0.34564 0.12026 0.0
H538 H 0.25483 0.33134 0.17951 0.0
H539 H 0.2709 0.39177 0.15069 0.0
N540 N 0.23095 0.40115 0.18607 0.0
N541 N 0.22571 0.43591 0.19022 0.0
C542 C 0.21843 0.41756 0.17953 0.0
C543 C 0.24667 0.40921 0.20159 0.0
C544 C 0.24347 0.43063 0.20425 0.0
C545 C 0.21837 0.35624 0.22318 0.0
O546 O 0.23553 0.36655 0.23058 0.0
H547 H 0.20458 0.41599 0.16655 0.0
H548 H 0.26 0.40028 0.20941 0.0
O549 O 0.21465 0.37718 0.13627 0.0
H550 H 0.3056 0.36797 0.14929 0.0
H551 H 0.25401 0.44152 0.21464 0.0
Cu552 Cu 0.39613 0.20069 0.16196 0.0
N553 N 0.39399 0.22977 0.16728 0.0
N554 N 0.37962 0.26186 0.17228 0.0
C555 C 0.37591 0.24087 0.17003 0.0
C556 C 0.40096 0.26383 0.1709 0.0
C557 C 0.40973 0.24407 0.16786 0.0
O558 O 0.37698 0.18709 0.18841 0.0
C559 C 0.39812 0.18318 0.10665 0.0
O560 O 0.41328 0.17096 0.11615 0.0
H561 H 0.36041 0.23356 0.17027 0.0
H562 H 0.4264 0.24048 0.16576 0.0
N563 N 0.42393 0.19208 0.16996 0.0
N564 N 0.45938 0.19048 0.17166 0.0
C565 C 0.44231 0.19868 0.15857 0.0
C566 C 0.42962 0.17908 0.19063 0.0
C567 C 0.45142 0.1781 0.19178 0.0
C568 C 0.3782 0.19271 0.21368 0.0
O569 O 0.39197 0.20739 0.22052 0.0
H570 H 0.44313 0.20973 0.14158 0.0
H571 H 0.41866 0.17113 0.20428 0.0
O572 O 0.38861 0.19567 0.12317 0.0
H573 H 0.40974 0.2785 0.17127 0.0
H574 H 0.46068 0.16891 0.20624 0.0
Cu575 Cu 0.80908 0.38517 0.14077 0.0
N576 N 0.78111 0.37852 0.15052 0.0
N577 N 0.75238 0.35901 0.16032 0.0
C578 C 0.77341 0.35891 0.15464 0.0
C579 C 0.74676 0.3796 0.15973 0.0
C580 C 0.76443 0.39153 0.15357 0.0
O581 O 0.82816 0.37209 0.16749 0.0
C582 C 0.80201 0.38383 0.08457 0.0
O583 O 0.78724 0.39714 0.09254 0.0
H584 H 0.78305 0.34486 0.15273 0.0
H585 H 0.76491 0.40847 0.15097 0.0
N586 N 0.8142 0.41431 0.14059 0.0
N587 N 0.81405 0.44913 0.14872 0.0
C588 C 0.80561 0.43015 0.1555 0.0
C589 C 0.82863 0.42354 0.12413 0.0
C590 C 0.8286 0.4449 0.12904 0.0
C591 C 0.82827 0.37906 0.19219 0.0
O592 O 0.81555 0.39472 0.19865 0.0
H593 H 0.79342 0.42781 0.17089 0.0
H594 H 0.8386 0.41519 0.1096 0.0
O595 O 0.81389 0.37556 0.10293 0.0
H596 H 0.73101 0.38577 0.16342 0.0
H597 H 0.83883 0.45634 0.11914 0.0
Cu598 Cu 0.61478 0.79563 0.18385 0.0
N599 N 0.61861 0.76642 0.18139 0.0
N600 N 0.6343 0.73475 0.1818 0.0
C601 C 0.63668 0.75569 0.18627 0.0
C602 C 0.61392 0.73229 0.17385 0.0
C603 C 0.60434 0.7518 0.17357 0.0
O604 O 0.63368 0.80659 0.21186 0.0
C605 C 0.63396 0.80287 0.13156 0.0
O606 O 0.64785 0.78869 0.13957 0.0
H607 H 0.65127 0.76314 0.19291 0.0
H608 H 0.58817 0.75503 0.16763 0.0
N609 N 0.58706 0.80193 0.19464 0.0
N610 N 0.55174 0.80388 0.19551 0.0
C611 C 0.56882 0.79553 0.18281 0.0
C612 C 0.58122 0.81481 0.21542 0.0
C613 C 0.55941 0.81608 0.21597 0.0
C614 C 0.63578 0.82631 0.21591 0.0
O615 O 0.62643 0.83958 0.19898 0.0
H616 H 0.568 0.78523 0.16505 0.0
H617 H 0.59203 0.82267 0.22935 0.0
O618 O 0.6193 0.80846 0.14804 0.0
H619 H 0.60659 0.71752 0.1679 0.0
H620 H 0.54991 0.82476 0.23071 0.0
Cu621 Cu 0.197 0.61949 0.17237 0.0
N622 N 0.22617 0.62313 0.16844 0.0
N623 N 0.25825 0.63806 0.16902 0.0
C624 C 0.23764 0.64008 0.17611 0.0
C625 C 0.25976 0.61907 0.15652 0.0
C626 C 0.23992 0.60994 0.15609 0.0
O627 O 0.1875 0.63289 0.20591 0.0
C628 C 0.19005 0.64106 0.12113 0.0
O629 O 0.20756 0.65155 0.12644 0.0
H630 H 0.23097 0.65369 0.18643 0.0
H631 H 0.23571 0.59495 0.14689 0.0
N632 N 0.19045 0.59099 0.17527 0.0
N633 N 0.19218 0.55614 0.18127 0.0
C634 C 0.20245 0.57475 0.18407 0.0
C635 C 0.17201 0.58243 0.16695 0.0
C636 C 0.17302 0.56093 0.17058 0.0
C637 C 0.18548 0.65266 0.20937 0.0
O638 O 0.18903 0.66552 0.18861 0.0
H639 H 0.21856 0.57644 0.19148 0.0
H640 H 0.15887 0.59125 0.15839 0.0
O641 O 0.18241 0.62877 0.13935 0.0
H642 H 0.27404 0.61254 0.14749 0.0
H643 H 0.16065 0.54969 0.1656 0.0
Cu644 Cu 0.377 0.78116 0.90763 0.0
N645 N 0.3665 0.75374 0.90329 0.0
N646 N 0.34508 0.72569 0.89987 0.0
C647 C 0.34642 0.74703 0.89908 0.0
C648 C 0.36504 0.71888 0.90455 0.0
C649 C 0.37809 0.73613 0.90684 0.0
O650 O 0.3632 0.80014 0.88116 0.0
C651 C 0.37675 0.80471 0.95999 0.0
O652 O 0.38644 0.82037 0.94746 0.0
H653 H 0.33302 0.75755 0.89669 0.0
H654 H 0.39484 0.73586 0.91162 0.0
N655 N 0.40616 0.77983 0.89993 0.0
N656 N 0.44154 0.78234 0.90176 0.0
C657 C 0.42291 0.78866 0.91295 0.0
C658 C 0.4146 0.76776 0.87986 0.0
C659 C 0.43629 0.76925 0.88093 0.0
C660 C 0.36396 0.79584 0.85543 0.0
O661 O 0.37338 0.77838 0.8475 0.0
H662 H 0.42155 0.79903 0.9306 0.0
H663 H 0.40561 0.75803 0.86576 0.0
O664 O 0.37169 0.78824 0.94636 0.0
H665 H 0.36988 0.70256 0.90657 0.0
H666 H 0.44736 0.76141 0.86728 0.0
Cu667 Cu 0.22389 0.38268 0.90063 0.0
N668 N 0.25137 0.37287 0.90627 0.0
N669 N 0.28039 0.35277 0.90517 0.0
C670 C 0.26164 0.35722 0.89302 0.0
C671 C 0.282 0.36615 0.92671 0.0
C672 C 0.26409 0.37856 0.92729 0.0
O673 O 0.21215 0.36896 0.86805 0.0
C674 C 0.21034 0.38775 0.95579 0.0
O675 O 0.21946 0.40629 0.95321 0.0
H676 H 0.2551 0.34867 0.87565 0.0
H677 H 0.26028 0.39048 0.94248 0.0
N678 N 0.22533 0.41171 0.8939 0.0
N679 N 0.21753 0.44601 0.88969 0.0
C680 C 0.21053 0.42679 0.89781 0.0
C681 C 0.24216 0.42168 0.88293 0.0
C682 C 0.23745 0.44279 0.88035 0.0
C683 C 0.19476 0.37503 0.85731 0.0
O684 O 0.18367 0.38975 0.86981 0.0
H685 H 0.19494 0.42368 0.90624 0.0
H686 H 0.25689 0.41407 0.87726 0.0
O687 O 0.20888 0.3758 0.9347 0.0
H688 H 0.29508 0.36673 0.94116 0.0
H689 H 0.24805 0.45488 0.87268 0.0
Cu690 Cu 0.64101 0.21151 0.89934 0.0
N691 N 0.64272 0.23834 0.88365 0.0
N692 N 0.65812 0.269 0.87259 0.0
C693 C 0.65795 0.25241 0.89003 0.0
C694 C 0.64212 0.26536 0.85468 0.0
C695 C 0.63276 0.24631 0.86141 0.0
O696 O 0.65438 0.19201 0.87363 0.0
C697 C 0.66022 0.19985 0.95211 0.0
O698 O 0.65848 0.17988 0.94516 0.0
H699 H 0.66941 0.24992 0.90632 0.0
H700 H 0.62054 0.23825 0.84983 0.0
N701 N 0.61291 0.20315 0.90538 0.0
N702 N 0.57754 0.20016 0.90406 0.0
C703 C 0.59474 0.21066 0.89445 0.0
C704 C 0.60699 0.18742 0.92235 0.0
C705 C 0.58527 0.18554 0.92162 0.0
C706 C 0.67237 0.19634 0.86313 0.0
O707 O 0.68301 0.21262 0.87269 0.0
H708 H 0.59409 0.22358 0.87993 0.0
H709 H 0.61775 0.17777 0.93425 0.0
O710 O 0.65477 0.21413 0.93507 0.0
H711 H 0.63842 0.27502 0.8369 0.0
H712 H 0.57596 0.17391 0.93262 0.0
Cu713 Cu 0.80544 0.6377 0.90678 0.0
N714 N 0.77612 0.63792 0.90087 0.0
N715 N 0.7432 0.65024 0.89501 0.0
C716 C 0.76403 0.65514 0.89648 0.0
C717 C 0.74214 0.62916 0.89871 0.0
C718 C 0.76243 0.62164 0.9026 0.0
O719 O 0.81917 0.65563 0.8792 0.0
C720 C 0.80712 0.63508 0.96466 0.0
O721 O 0.80149 0.61551 0.95944 0.0
H722 H 0.77038 0.67098 0.89491 0.0
H723 H 0.76674 0.60556 0.90749 0.0
N724 N 0.8164 0.6103 0.90325 0.0
N725 N 0.81999 0.57613 0.89248 0.0
C726 C 0.80834 0.59385 0.88904 0.0
C727 C 0.83399 0.60285 0.91558 0.0
C728 C 0.83619 0.58178 0.90914 0.0
C729 C 0.81855 0.65029 0.85382 0.0
O730 O 0.80831 0.63299 0.84692 0.0
H731 H 0.794 0.59474 0.87687 0.0
H732 H 0.84428 0.61207 0.92879 0.0
O733 O 0.81009 0.64775 0.94455 0.0
H734 H 0.72766 0.62 0.8998 0.0
H735 H 0.84874 0.57144 0.91617 0.0
H736 H 0.22943 0.17366 0.44098 0.0
H737 H 0.23987 0.16746 0.35363 0.0
H738 H 0.21162 0.19324 0.34448 0.0
H739 H 0.18368 0.21741 0.36172 0.0
H740 H 0.17546 0.22555 0.44921 0.0
H741 H 0.20302 0.1991 0.4582 0.0
C742 C 0.22541 0.17796 0.41998 0.0
C743 C 0.23645 0.1686 0.39794 0.0
C744 C 0.20955 0.19307 0.41503 0.0
C745 C 0.23151 0.17454 0.37081 0.0
C746 C 0.21535 0.18918 0.36564 0.0
C747 C 0.18794 0.21323 0.38269 0.0
C748 C 0.1775 0.22311 0.40485 0.0
C749 C 0.2042 0.19849 0.3876 0.0
C750 C 0.18333 0.21803 0.43196 0.0
C751 C 0.19903 0.20294 0.43705 0.0
H752 H 0.81905 0.18253 0.41158 0.0
H753 H 0.77244 0.19401 0.34824 0.0
H754 H 0.78845 0.22839 0.33856 0.0
H755 H 0.81507 0.25525 0.34876 0.0
H756 H 0.86078 0.24472 0.41363 0.0
H757 H 0.84614 0.20953 0.42147 0.0
C758 C 0.81258 0.19246 0.39543 0.0
C759 C 0.79458 0.18578 0.38063 0.0
C760 C 0.82173 0.21228 0.39022 0.0
C761 C 0.78615 0.19894 0.36007 0.0
C762 C 0.79534 0.21852 0.35448 0.0
C763 C 0.82176 0.24543 0.36483 0.0
C764 C 0.83892 0.25283 0.38073 0.0
C765 C 0.81299 0.22543 0.36962 0.0
C766 C 0.84769 0.23948 0.40092 0.0
C767 C 0.83923 0.21937 0.40555 0.0
H768 H 0.82549 0.80021 0.44098 0.0
H769 H 0.83396 0.78054 0.35642 0.0
H770 H 0.80916 0.80782 0.34131 0.0
H771 H 0.78411 0.83662 0.35249 0.0
H772 H 0.77682 0.8563 0.43714 0.0
H773 H 0.80261 0.8299 0.45177 0.0
C774 C 0.82232 0.802 0.41917 0.0
C775 C 0.83172 0.7882 0.39995 0.0
C776 C 0.80826 0.81781 0.41062 0.0
C777 C 0.82684 0.79067 0.37181 0.0
C778 C 0.81274 0.80639 0.3631 0.0
C779 C 0.78847 0.83536 0.37404 0.0
C780 C 0.77847 0.84833 0.39374 0.0
C781 C 0.80325 0.81999 0.38236 0.0
C782 C 0.78409 0.84632 0.42166 0.0
C783 C 0.79884 0.83125 0.43003 0.0
H784 H 0.16713 0.79554 0.36122 0.0
H785 H 0.16181 0.77604 0.44611 0.0
H786 H 0.19043 0.80016 0.459 0.0
H787 H 0.21751 0.82586 0.44593 0.0
H788 H 0.22359 0.8453 0.36108 0.0
H789 H 0.19426 0.8219 0.34818 0.0
C790 C 0.17207 0.79684 0.38256 0.0
C791 C 0.16235 0.78413 0.40275 0.0
C792 C 0.18877 0.8105 0.38972 0.0
C793 C 0.16916 0.78561 0.43026 0.0
C794 C 0.18548 0.79938 0.43761 0.0
C795 C 0.21227 0.82521 0.42467 0.0
C796 C 0.22263 0.83742 0.40453 0.0
C797 C 0.19549 0.81176 0.41748 0.0
C798 C 0.21598 0.83595 0.37693 0.0
C799 C 0.19913 0.82268 0.36959 0.0
H800 H 0.21158 0.76684 0.69908 0.0
H801 H 0.16887 0.78945 0.63624 0.0
H802 H 0.18969 0.82198 0.63206 0.0
H803 H 0.22111 0.84311 0.64487 0.0
H804 H 0.26355 0.81991 0.70783 0.0
H805 H 0.242 0.78822 0.71288 0.0
C806 C 0.20689 0.77879 0.6843 0.0
C807 C 0.18882 0.7756 0.66777 0.0
C808 C 0.219 0.79726 0.68188 0.0
C809 C 0.18265 0.79154 0.64927 0.0
C810 C 0.19463 0.81008 0.64678 0.0
C811 C 0.22552 0.83125 0.65991 0.0
C812 C 0.24408 0.83387 0.67576 0.0
C813 C 0.21296 0.81301 0.66281 0.0
C814 C 0.24962 0.81817 0.69497 0.0
C815 C 0.23722 0.80008 0.69801 0.0
H816 H 0.22792 0.19149 0.62538 0.0
H817 H 0.23851 0.17309 0.71002 0.0
H818 H 0.21065 0.19738 0.72495 0.0
H819 H 0.18357 0.22436 0.7138 0.0
H820 H 0.17268 0.24108 0.62869 0.0
H821 H 0.20014 0.21647 0.6141 0.0
C822 C 0.22403 0.19238 0.64709 0.0
C823 C 0.2354 0.18026 0.66644 0.0
C824 C 0.20784 0.20609 0.65546 0.0
C825 C 0.23027 0.18229 0.69458 0.0
C826 C 0.2142 0.1961 0.70315 0.0
C827 C 0.18699 0.22237 0.69206 0.0
C828 C 0.17616 0.23469 0.67238 0.0
C829 C 0.20289 0.20812 0.68375 0.0
C830 C 0.18099 0.23207 0.64428 0.0
C831 C 0.19665 0.21796 0.63591 0.0
H832 H 0.80978 0.18327 0.69883 0.0
H833 H 0.77016 0.18446 0.62636 0.0
H834 H 0.78907 0.21553 0.60935 0.0
H835 H 0.81746 0.24176 0.61455 0.0
H836 H 0.85721 0.24065 0.6869 0.0
H837 H 0.83758 0.21025 0.70468 0.0
C838 C 0.80539 0.19029 0.67927 0.0
C839 C 0.78867 0.18153 0.6638 0.0
C840 C 0.8163 0.20818 0.66967 0.0
C841 C 0.78285 0.19102 0.63873 0.0
C842 C 0.79372 0.20871 0.62894 0.0
C843 C 0.82186 0.2348 0.63415 0.0
C844 C 0.83885 0.24336 0.64929 0.0
C845 C 0.81055 0.21733 0.64416 0.0
C846 C 0.8441 0.23447 0.67495 0.0
C847 C 0.83297 0.217 0.68503 0.0
H848 H 0.80841 0.77711 0.62835 0.0
H849 H 0.84244 0.78578 0.70468 0.0
H850 H 0.81775 0.81382 0.71807 0.0
H851 H 0.78689 0.83645 0.70734 0.0
H852 H 0.75389 0.8279 0.63014 0.0
H853 H 0.77792 0.79934 0.61773 0.0
C854 C 0.8106 0.78523 0.64781 0.0
C855 C 0.82739 0.77945 0.66535 0.0
C856 C 0.79652 0.8014 0.65519 0.0
C857 C 0.82958 0.7898 0.69086 0.0
C858 C 0.81555 0.80594 0.69843 0.0
C859 C 0.78508 0.82843 0.68773 0.0
C860 C 0.76856 0.83432 0.66973 0.0
C861 C 0.79905 0.81199 0.68063 0.0
C862 C 0.76624 0.82354 0.64456 0.0
C863 C 0.78005 0.80726 0.63736 0.0
H864 H 0.65869 0.70072 0.87708 0.0
H865 H 0.69255 0.7459 0.92745 0.0
H866 H 0.72317 0.72281 0.92851 0.0
H867 H 0.74036 0.68931 0.91641 0.0
H868 H 0.7062 0.64317 0.8685 0.0
H869 H 0.67564 0.66693 0.86564 0.0
C870 C 0.67262 0.70556 0.88849 0.0
C871 C 0.67305 0.72531 0.90195 0.0
C872 C 0.69023 0.69193 0.88957 0.0
C873 C 0.69158 0.73112 0.91639 0.0
C874 C 0.7092 0.7178 0.91721 0.0
C875 C 0.72631 0.68459 0.90508 0.0
C876 C 0.72556 0.66458 0.89255 0.0
C877 C 0.70872 0.69818 0.90392 0.0
C878 C 0.70708 0.65847 0.87842 0.0
C879 C 0.68965 0.67206 0.87675 0.0
H880 H 0.25952 0.67692 0.87858 0.0
H881 H 0.29065 0.63228 0.9324 0.0
H882 H 0.32107 0.65551 0.93624 0.0
H883 H 0.33899 0.68834 0.9248 0.0
H884 H 0.30877 0.73375 0.87152 0.0
H885 H 0.2776 0.71071 0.86769 0.0
C886 C 0.27289 0.67235 0.89127 0.0
C887 C 0.27275 0.65265 0.90486 0.0
C888 C 0.29047 0.68599 0.89368 0.0
C889 C 0.29036 0.647 0.92112 0.0
C890 C 0.30778 0.6604 0.92357 0.0
C891 C 0.32572 0.69316 0.91208 0.0
C892 C 0.32634 0.71265 0.89821 0.0
C893 C 0.30805 0.67984 0.90987 0.0
C894 C 0.30867 0.71886 0.88249 0.0
C895 C 0.29091 0.70564 0.88018 0.0
H896 H 0.34324 0.28642 0.85473 0.0
H897 H 0.35267 0.27239 0.94078 0.0
H898 H 0.32694 0.29973 0.95351 0.0
H899 H 0.30212 0.32791 0.93994 0.0
H900 H 0.29142 0.34075 0.85382 0.0
H901 H 0.31727 0.31353 0.84111 0.0
C902 C 0.3397 0.28948 0.87624 0.0
C903 C 0.34992 0.27764 0.89686 0.0
C904 C 0.32469 0.30494 0.88328 0.0
C905 C 0.34492 0.28134 0.92465 0.0
C906 C 0.3303 0.29698 0.93188 0.0
C907 C 0.30558 0.32477 0.91843 0.0
C908 C 0.29511 0.33638 0.8978 0.0
C909 C 0.32017 0.30893 0.91137 0.0
C910 C 0.2993 0.33192 0.86997 0.0
C911 C 0.3141 0.31645 0.86275 0.0
H912 H 0.65274 0.30899 0.85502 0.0
H913 H 0.69961 0.26548 0.88606 0.0
H914 H 0.72697 0.29252 0.88218 0.0
H915 H 0.73788 0.32811 0.86855 0.0
H916 H 0.69094 0.37213 0.83857 0.0
H917 H 0.66353 0.34526 0.84297 0.0
C918 C 0.66895 0.30548 0.86088 0.0
C919 C 0.67406 0.28528 0.87091 0.0
C920 C 0.68468 0.32114 0.85859 0.0
C921 C 0.69513 0.28098 0.87869 0.0
C922 C 0.71085 0.29641 0.87629 0.0
C923 C 0.72166 0.33201 0.86329 0.0
C924 C 0.71669 0.35221 0.85302 0.0
C925 C 0.70583 0.31653 0.86618 0.0
C926 C 0.69547 0.35668 0.84603 0.0
C927 C 0.67967 0.34133 0.84871 0.0
H928 H 0.70554 0.27275 0.1833 0.0
H929 H 0.65103 0.31167 0.16594 0.0
H930 H 0.674 0.34216 0.15873 0.0
H931 H 0.70948 0.35765 0.1564 0.0
H932 H 0.76419 0.31919 0.1751 0.0
H933 H 0.74129 0.28866 0.18209 0.0
C934 C 0.69873 0.28788 0.17781 0.0
C935 C 0.67656 0.28987 0.17523 0.0
C936 C 0.71208 0.30545 0.17374 0.0
C937 C 0.66797 0.3097 0.16844 0.0
C938 C 0.68113 0.32715 0.16414 0.0
C939 C 0.7165 0.34273 0.16232 0.0
C940 C 0.7387 0.34095 0.16506 0.0
C941 C 0.7032 0.32522 0.16672 0.0
C942 C 0.74728 0.32118 0.17236 0.0
C943 C 0.73415 0.30364 0.17656 0.0
H944 H 0.6909 0.65352 0.18908 0.0
H945 H 0.73999 0.69896 0.1712 0.0
H946 H 0.71384 0.72742 0.17187 0.0
H947 H 0.67669 0.73914 0.17537 0.0
H948 H 0.62774 0.69342 0.19291 0.0
H949 H 0.65411 0.66529 0.19398 0.0
C950 C 0.69589 0.66962 0.18516 0.0
C951 C 0.71739 0.67403 0.17995 0.0
C952 C 0.68075 0.68586 0.18532 0.0
C953 C 0.72361 0.69509 0.1755 0.0
C954 C 0.70862 0.71138 0.17571 0.0
C955 C 0.67182 0.72309 0.17978 0.0
C956 C 0.65019 0.71843 0.18387 0.0
C957 C 0.68711 0.70693 0.18038 0.0
C958 C 0.64418 0.69743 0.18923 0.0
C959 C 0.65928 0.68133 0.18999 0.0
H960 H 0.25413 0.68049 0.16955 0.0
H961 H 0.29997 0.63019 0.1761 0.0
H962 H 0.32864 0.65601 0.17934 0.0
H963 H 0.34071 0.69266 0.17879 0.0
H964 H 0.29521 0.74315 0.1705 0.0
H965 H 0.26627 0.71747 0.17045 0.0
C966 C 0.27035 0.67519 0.17208 0.0
C967 C 0.27492 0.65342 0.17246 0.0
C968 C 0.28678 0.69015 0.17372 0.0
C969 C 0.29608 0.64682 0.17535 0.0
C970 C 0.31245 0.66158 0.17734 0.0
C971 C 0.3245 0.69811 0.17679 0.0
C972 C 0.32024 0.71985 0.17435 0.0
C973 C 0.30801 0.68326 0.17618 0.0
C974 C 0.29902 0.72657 0.17257 0.0
C975 C 0.28244 0.71186 0.17233 0.0
H976 H 0.32578 0.34506 0.1803 0.0
H977 H 0.27582 0.30247 0.15614 0.0
H978 H 0.30081 0.27282 0.15691 0.0
H979 H 0.33725 0.25967 0.16185 0.0
H980 H 0.3868 0.30251 0.18787 0.0
H981 H 0.3616 0.33146 0.18845 0.0
C982 C 0.3204 0.32927 0.17519 0.0
C983 C 0.29909 0.32594 0.16789 0.0
C984 C 0.33481 0.31241 0.17573 0.0
C985 C 0.29216 0.30536 0.16191 0.0
C986 C 0.30647 0.28847 0.1622 0.0
C987 C 0.34262 0.27519 0.16802 0.0
C988 C 0.36419 0.27872 0.17437 0.0
C989 C 0.32791 0.29187 0.16876 0.0
C990 C 0.37056 0.29919 0.18219 0.0
C991 C 0.35608 0.31584 0.18274 0.0
H992 H 0.98305 0.27487 0.3837 0.0
H993 H 0.97094 0.34179 0.37743 0.0
H994 H 0.00871 0.34907 0.38162 0.0
H995 H 0.04522 0.33661 0.38568 0.0
H996 H 0.0581 0.26984 0.39049 0.0
H997 H 0.02001 0.26233 0.38854 0.0
C998 C 0.98868 0.29103 0.3831 0.0
C999 C 0.97404 0.30773 0.38022 0.0
C1000 C 0.01057 0.29515 0.38532 0.0
C1001 C 0.98168 0.32861 0.37997 0.0
C1002 C 1.00334 0.33281 0.3822 0.0
C1003 C 0.03976 0.32038 0.38609 0.0
C1004 C 0.05458 0.30381 0.38792 0.0
C1005 C 0.01793 0.31621 0.38466 0.0
C1006 C 0.04709 0.28291 0.38922 0.0
C1007 C 0.0253 0.27861 0.38792 0.0
H1008 H 0.74992 0.03002 0.38435 0.0
H1009 H 0.69021 0.05654 0.41065 0.0
H1010 H 0.67569 0.02106 0.41662 0.0
H1011 H 0.67951 0.98257 0.41236 0.0
H1012 H 0.73879 0.95643 0.38368 0.0
H1013 H 0.7539 0.99173 0.38072 0.0
C1014 C 0.73367 0.02811 0.39118 0.0
C1015 C 0.72114 0.046 0.39676 0.0
C1016 C 0.72533 0.0077 0.39415 0.0
C1017 C 0.70029 0.04311 0.40635 0.0
C1018 C 0.69192 0.02281 0.40959 0.0
C1019 C 0.69569 0.98456 0.4053 0.0
C1020 C 0.7079 0.96675 0.39813 0.0
C1021 C 0.70422 1.005 0.40321 0.0
C1022 C 0.72902 0.96971 0.38961 0.0
C1023 C 0.73767 0.98995 0.38772 0.0
H1024 H 0.02859 0.67742 0.37945 0.0
H1025 H 0.0497 0.7423 0.37885 0.0
H1026 H 0.01298 0.7543 0.3793 0.0
H1027 H 0.97497 0.74641 0.38023 0.0
H1028 H 0.95385 0.68156 0.37879 0.0
H1029 H 0.99059 0.66953 0.37862 0.0
C1030 C 0.02524 0.69418 0.37905 0.0
C1031 C 0.04202 0.70888 0.37915 0.0
C1032 C 1.00407 0.701 0.37899 0.0
C1033 C 0.03721 0.73058 0.37918 0.0
C1034 C 0.01618 0.73748 0.37925 0.0
C1035 C 0.97832 0.72965 0.37949 0.0
C1036 C 0.96156 0.71494 0.37955 0.0
C1037 C 0.99949 0.72283 0.37918 0.0
C1038 C 0.96636 0.69325 0.37912 0.0
C1039 C 0.98739 0.68635 0.37888 0.0
H1040 H 0.27016 0.98124 0.40016 0.0
H1041 H 0.33361 0.95827 0.38546 0.0
H1042 H 0.34684 0.99454 0.38441 0.0
H1043 H 0.34019 0.03277 0.38646 0.0
H1044 H 0.27634 0.05546 0.39908 0.0
H1045 H 0.26352 0.01925 0.40213 0.0
C1046 C 0.28686 0.98408 0.39643 0.0
C1047 C 0.3008 0.96692 0.39266 0.0
C1048 C 0.29431 1.00496 0.39551 0.0
C1049 C 0.3225 0.97107 0.38861 0.0
C1050 C 0.33007 0.99184 0.38784 0.0
C1051 C 0.32344 0.02986 0.38964 0.0
C1052 C 0.3093 0.04698 0.39245 0.0
C1053 C 0.31608 0.00892 0.39105 0.0
C1054 C 0.28769 0.04274 0.39715 0.0
C1055 C 0.28029 0.02198 0.39872 0.0
H1056 H 0.04202 0.71521 0.6888 0.0
H1057 H 0.04581 0.78322 0.68664 0.0
H1058 H 1.00722 0.78561 0.68801 0.0
H1059 H 0.97245 0.76851 0.68904 0.0
H1060 H 0.96826 0.70052 0.69161 0.0
H1061 H 1.00692 0.69801 0.69023 0.0
C1062 C 0.03441 0.73054 0.6884 0.0
C1063 C 0.04689 0.74901 0.68766 0.0
C1064 C 0.01212 0.73182 0.68915 0.0
C1065 C 0.03669 0.76876 0.68757 0.0
C1066 C 0.01458 0.77014 0.68821 0.0
C1067 C 0.9799 0.75312 0.68967 0.0
C1068 C 0.96731 0.73474 0.69051 0.0
C1069 C 1.00215 0.75179 0.68904 0.0
C1070 C 0.97745 0.71494 0.6907 0.0
C1071 C 0.9996 0.71349 0.69004 0.0
H1072 H 0.33095 0.97897 0.71222 0.0
H1073 H 0.27882 0.95671 0.66225 0.0
H1074 H 0.26858 0.99299 0.65232 0.0
H1075 H 0.27442 0.03092 0.65758 0.0
H1076 H 0.32554 0.05345 0.70904 0.0
H1077 H 0.33616 0.01712 0.7186 0.0
C1078 C 0.31721 0.98199 0.6994 0.0
C1079 C 0.30575 0.96499 0.68797 0.0
C1080 C 0.31124 1.00296 0.69397 0.0
C1081 C 0.28818 0.96936 0.67102 0.0
C1082 C 0.28221 0.99016 0.66545 0.0
C1083 C 0.28771 0.02798 0.6712 0.0
C1084 C 0.29909 0.04504 0.68259 0.0
C1085 C 0.29362 0.00706 0.67681 0.0
C1086 C 0.31659 0.04074 0.6997 0.0
C1087 C 0.32262 0.01992 0.70531 0.0
H1088 H 0.04105 0.34119 0.67695 0.0
H1089 H 0.06053 0.27618 0.66896 0.0
H1090 H 0.02357 0.26549 0.66271 0.0
H1091 H 0.9856 0.27459 0.66069 0.0
H1092 H 0.96644 0.33961 0.67039 0.0
H1093 H 1.00341 0.35027 0.67492 0.0
C1094 C 0.03726 0.32465 0.6741 0.0
C1095 C 0.05362 0.30952 0.67365 0.0
C1096 C 0.01599 0.3186 0.67084 0.0
C1097 C 0.04835 0.2882 0.6692 0.0
C1098 C 0.02717 0.28206 0.66581 0.0
C1099 C 0.98948 0.29106 0.66401 0.0
C1100 C 0.97316 0.30625 0.6652 0.0
C1101 C 0.01084 0.29711 0.66681 0.0
C1102 C 0.97859 0.32759 0.66903 0.0
C1103 C 0.99976 0.33371 0.67179 0.0
H1104 H 0.74441 0.02676 0.70344 0.0
H1105 H 0.68824 0.05231 0.66525 0.0
H1106 H 0.67474 0.01665 0.65727 0.0
H1107 H 0.678 0.97829 0.66357 0.0
H1108 H 0.73409 0.95258 0.70167 0.0
H1109 H 0.74866 0.98818 0.70715 0.0
C1110 C 0.72923 0.02447 0.69336 0.0
C1111 C 0.71726 0.04214 0.68514 0.0
C1112 C 0.72157 1.00392 0.6889 0.0
C1113 C 0.69781 0.03898 0.6716 0.0
C1114 C 0.69002 0.0186 0.6672 0.0
C1115 C 0.69341 0.98052 0.67307 0.0
C1116 C 0.70487 0.96289 0.68248 0.0
C1117 C 0.70162 1.00099 0.67614 0.0
C1118 C 0.72503 0.96591 0.69418 0.0
C1119 C 0.73329 0.98626 0.69746 0.0
H1120 H 0.52964 0.82441 0.92547 0.0
H1121 H 0.55113 0.76219 0.90249 0.0
H1122 H 0.51442 0.75005 0.89937 0.0
H1123 H 0.4763 0.75793 0.89939 0.0
H1124 H 0.45456 0.82019 0.92144 0.0
H1125 H 0.49128 0.83154 0.929 0.0
C1126 C 0.52627 0.80818 0.91986 0.0
C1127 C 0.54311 0.79429 0.91391 0.0
C1128 C 0.5051 0.80138 0.91786 0.0
C1129 C 0.53851 0.77317 0.90729 0.0
C1130 C 0.51751 0.76627 0.90531 0.0
C1131 C 0.47962 0.77397 0.90591 0.0
C1132 C 0.46279 0.78831 0.90946 0.0
C1133 C 0.50071 0.78036 0.90995 0.0
C1134 C 0.46724 0.80888 0.91862 0.0
C1135 C 0.48823 0.81539 0.92274 0.0
H1136 H 0.2235 0.48005 0.85728 0.0
H1137 H 0.18684 0.45709 0.92615 0.0
H1138 H 0.17016 0.49171 0.93114 0.0
H1139 H 0.168 0.52922 0.91806 0.0
H1140 H 0.20538 0.55221 0.84987 0.0
H1141 H 0.22002 0.51694 0.84274 0.0
C1142 C 0.21193 0.48261 0.87346 0.0
C1143 C 0.20661 0.466 0.89147 0.0
C1144 C 0.20263 0.50262 0.87644 0.0
C1145 C 0.19116 0.46951 0.91189 0.0
C1146 C 0.18171 0.48936 0.91486 0.0
C1147 C 0.17905 0.52644 0.90133 0.0
C1148 C 0.18568 0.5434 0.88462 0.0
C1149 C 0.18755 0.50612 0.8975 0.0
C1150 C 0.20025 0.53953 0.86326 0.0
C1151 C 0.20858 0.51935 0.85913 0.0
H1152 H 0.48741 0.21222 0.85124 0.0
H1153 H 0.46832 0.18737 0.93026 0.0
H1154 H 0.50532 0.18646 0.94518 0.0
H1155 H 0.54316 0.19141 0.9351 0.0
H1156 H 0.56236 0.2154 0.85566 0.0
H1157 H 0.52525 0.21813 0.84164 0.0
C1158 C 0.49135 0.2065 0.87167 0.0
C1159 C 0.47508 0.19973 0.88952 0.0
C1160 C 0.51268 0.2059 0.88004 0.0
C1161 C 0.48046 0.19282 0.91617 0.0
C1162 C 0.50164 0.19218 0.92466 0.0
C1163 C 0.53925 0.19714 0.91467 0.0
C1164 C 0.5556 0.20302 0.8964 0.0
C1165 C 0.51789 0.19847 0.90665 0.0
C1166 C 0.55017 0.2109 0.87022 0.0
C1167 C 0.52893 0.21233 0.86212 0.0
H1168 H 0.79204 0.49298 0.83197 0.0
H1169 H 0.82412 0.46501 0.90157 0.0
H1170 H 0.8324 0.50009 0.9195 0.0
H1171 H 0.83055 0.53873 0.91539 0.0
H1172 H 0.79904 0.56662 0.84532 0.0
H1173 H 0.79062 0.53154 0.82753 0.0
C1174 C 0.80103 0.49451 0.85091 0.0
C1175 C 0.80746 0.47629 0.86533 0.0
C1176 C 0.80584 0.51474 0.86103 0.0
C1177 C 0.81874 0.47868 0.89017 0.0
C1178 C 0.82361 0.49877 0.90036 0.0
C1179 C 0.82206 0.53716 0.89607 0.0
C1180 C 0.81548 0.55535 0.88172 0.0
C1181 C 0.81727 0.51691 0.88594 0.0
C1182 C 0.80411 0.55294 0.85696 0.0
C1183 C 0.79936 0.53287 0.8467 0.0
H1184 H 0.49182 0.1911 0.20803 0.0
H1185 H 0.47679 0.19819 0.12175 0.0
H1186 H 0.51443 0.20245 0.11099 0.0
H1187 H 0.55165 0.20242 0.12579 0.0
H1188 H 0.56705 0.19528 0.21188 0.0
H1189 H 0.52919 0.19301 0.22319 0.0
C1190 C 0.49681 0.19351 0.18687 0.0
C1191 C 0.48151 0.19412 0.16566 0.0
C1192 C 0.51851 0.19597 0.18087 0.0
C1193 C 0.48819 0.19775 0.13843 0.0
C1194 C 0.50972 0.20009 0.13227 0.0
C1195 C 0.54672 0.20034 0.14703 0.0
C1196 C 0.56214 0.19874 0.16795 0.0
C1197 C 0.52501 0.19896 0.15327 0.0
C1198 C 0.55549 0.1966 0.19545 0.0
C1199 C 0.53387 0.19516 0.20186 0.0
H1200 H 0.7892 0.53152 0.21369 0.0
H1201 H 0.81473 0.56004 0.13987 0.0
H1202 H 0.82106 0.52529 0.12032 0.0
H1203 H 0.81998 0.48691 0.12418 0.0
H1204 H 0.79634 0.4579 0.19863 0.0
H1205 H 0.78856 0.49274 0.21778 0.0
C1206 C 0.7963 0.53019 0.19343 0.0
C1207 C 0.80138 0.54857 0.17837 0.0
C1208 C 0.80023 0.51003 0.18233 0.0
C1209 C 0.81029 0.54636 0.1519 0.0
C1210 C 0.81409 0.52641 0.1407 0.0
C1211 C 0.81335 0.4881 0.14472 0.0
C1212 C 0.80892 0.46967 0.15992 0.0
C1213 C 0.80921 0.50816 0.15577 0.0
C1214 C 0.79979 0.47171 0.18628 0.0
C1215 C 0.79545 0.49167 0.19734 0.0
H1216 H 0.46001 0.76724 0.1851 0.0
H1217 H 0.44396 0.83309 0.19094 0.0
H1218 H 0.48179 0.84252 0.1915 0.0
H1219 H 0.51941 0.83139 0.19408 0.0
H1220 H 0.53515 0.76554 0.18566 0.0
H1221 H 0.49748 0.75651 0.18208 0.0
C1222 C 0.46494 0.78363 0.18613 0.0
C1223 C 0.44951 0.7995 0.18823 0.0
C1224 C 0.48655 0.78881 0.18612 0.0
C1225 C 0.45576 0.82074 0.18924 0.0
C1226 C 0.4773 0.82605 0.18973 0.0
C1227 C 0.51447 0.81514 0.1912 0.0
C1228 C 0.52984 0.79908 0.19038 0.0
C1229 C 0.49283 0.81016 0.18878 0.0
C1230 C 0.52349 0.77808 0.18625 0.0
C1231 C 0.50201 0.77294 0.18435 0.0
H1232 H 0.23414 0.47135 0.21967 0.0
H1233 H 0.19842 0.44819 0.14978 0.0
H1234 H 0.18457 0.48332 0.14155 0.0
H1235 H 0.18309 0.52081 0.15318 0.0
H1236 H 0.21972 0.54477 0.22143 0.0
H1237 H 0.23322 0.50921 0.23078 0.0
C1238 C 0.22349 0.47392 0.20249 0.0
C1239 C 0.21735 0.45686 0.18557 0.0
C1240 C 0.21584 0.49439 0.1974 0.0
C1241 C 0.20324 0.4607 0.1636 0.0
C1242 C 0.19538 0.48091 0.15866 0.0
C1243 C 0.19386 0.51821 0.17028 0.0
C1244 C 0.20029 0.53532 0.18672 0.0
C1245 C 0.20159 0.49785 0.17537 0.0
C1246 C 0.21465 0.53183 0.2084 0.0
C1247 C 0.22227 0.51151 0.21381 0.0
H1248 H 0.15625 0.30057 0.49409 0.0
H1249 H 0.11833 0.35628 0.4799 0.0
H1250 H 0.11619 0.36257 0.52938 0.0
H1251 H 0.12343 0.3514 0.57695 0.0
H1252 H 0.16179 0.29609 0.59157 0.0
H1253 H 0.16553 0.29071 0.54191 0.0
C1254 C 0.14764 0.31416 0.50181 0.0
C1255 C 0.13735 0.32782 0.48315 0.0
C1256 C 0.14649 0.31779 0.53049 0.0
C1257 C 0.12639 0.34544 0.49363 0.0
C1258 C 0.1251 0.34907 0.52202 0.0
C1259 C 0.13276 0.33826 0.56932 0.0
C1260 C 0.14219 0.32413 0.58809 0.0
C1261 C 0.13485 0.33522 0.54067 0.0
C1262 C 0.15434 0.30727 0.5777 0.0
C1263 C 0.15643 0.3041 0.54923 0.0
H1264 H 0.75166 0.12931 0.58038 0.0
H1265 H 0.68557 0.12345 0.60182 0.0
H1266 H 0.67592 0.12486 0.55271 0.0
H1267 H 0.68675 0.12652 0.50326 0.0
H1268 H 0.75326 0.13377 0.48374 0.0
H1269 H 0.76213 0.13309 0.53238 0.0
C1270 C 0.7351 0.12835 0.57438 0.0
C1271 C 0.71938 0.12605 0.5947 0.0
C1272 C 0.72974 0.1294 0.54633 0.0
C1273 C 0.69799 0.12521 0.58655 0.0
C1274 C 0.69249 0.12595 0.55847 0.0
C1275 C 0.70315 0.12805 0.50969 0.0
C1276 C 0.71927 0.13007 0.48964 0.0
C1277 C 0.70828 0.12785 0.53809 0.0
C1278 C 0.74044 0.13219 0.49848 0.0
C1279 C 0.74561 0.13176 0.52641 0.0
H1280 H 0.92747 0.70457 0.49178 0.0
H1281 H 0.86048 0.69165 0.48569 0.0
H1282 H 0.8583 0.68831 0.53602 0.0
H1283 H 0.87462 0.69462 0.58207 0.0
H1284 H 0.94127 0.70955 0.58682 0.0
H1285 H 0.94448 0.70624 0.53689 0.0
C1286 C 0.91244 0.70063 0.50139 0.0
C1287 C 0.89412 0.69864 0.48501 0.0
C1288 C 0.91124 0.69924 0.53025 0.0
C1289 C 0.87483 0.69328 0.49779 0.0
C1290 C 0.87356 0.69153 0.52662 0.0
C1291 C 0.88994 0.69645 0.57218 0.0
C1292 C 0.90771 0.70233 0.58808 0.0
C1293 C 0.89153 0.69523 0.54315 0.0
C1294 C 0.9274 0.70505 0.57499 0.0
C1295 C 0.92922 0.70327 0.54642 0.0
H1296 H 0.32251 0.84478 0.57182 0.0
H1297 H 0.32988 0.90961 0.59767 0.0
H1298 H 0.32976 0.92109 0.54968 0.0
H1299 H 0.32376 0.91322 0.50062 0.0
H1300 H 0.31733 0.84849 0.47423 0.0
H1301 H 0.32122 0.83651 0.52195 0.0
C1302 C 0.32441 0.86139 0.56694 0.0
C1303 C 0.32595 0.8763 0.58847 0.0
C1304 C 0.3244 0.86795 0.53912 0.0
C1305 C 0.32862 0.89774 0.58166 0.0
C1306 C 0.32846 0.90437 0.55415 0.0
C1307 C 0.3236 0.89646 0.50524 0.0
C1308 C 0.32009 0.8818 0.48387 0.0
C1309 C 0.3258 0.88968 0.53275 0.0
C1310 C 0.32009 0.86013 0.49021 0.0
C1311 C 0.32214 0.85327 0.51757 0.0
H1312 H 0.09421 0.70412 0.49442 0.0
H1313 H 0.15982 0.69411 0.47266 0.0
H1314 H 0.16915 0.69151 0.52156 0.0
H1315 H 0.15898 0.69482 0.57053 0.0
H1316 H 0.09322 0.70515 0.59163 0.0
H1317 H 0.08368 0.70471 0.54294 0.0
C1318 C 0.11055 0.70122 0.50031 0.0
C1319 C 0.12632 0.69953 0.47989 0.0
C1320 C 0.1158 0.69988 0.52839 0.0
C1321 C 0.14736 0.69551 0.48794 0.0
C1322 C 0.15272 0.6941 0.51592 0.0
C1323 C 0.14252 0.69674 0.56451 0.0
C1324 C 0.12689 0.70022 0.5848 0.0
C1325 C 0.13712 0.69666 0.53634 0.0
C1326 C 0.10563 0.70257 0.57655 0.0
C1327 C 0.10014 0.70237 0.54866 0.0
H1328 H 0.35226 0.09993 0.49398 0.0
H1329 H 0.31763 0.15835 0.48548 0.0
H1330 H 0.31611 0.16194 0.53562 0.0
H1331 H 0.32164 0.14676 0.58188 0.0
H1332 H 0.35556 0.08787 0.59005 0.0
H1333 H 0.36047 0.08638 0.54018 0.0
C1334 C 0.34461 0.11361 0.50302 0.0
C1335 C 0.33492 0.12875 0.48582 0.0
C1336 C 0.34354 0.11545 0.53193 0.0
C1337 C 0.32518 0.14641 0.49808 0.0
C1338 C 0.32424 0.14844 0.52682 0.0
C1339 C 0.33043 0.13377 0.57284 0.0
C1340 C 0.33808 0.11737 0.58984 0.0
C1341 C 0.33293 0.13281 0.54397 0.0
C1342 C 0.34939 0.10067 0.5776 0.0
C1343 C 0.35216 0.09976 0.549 0.0
H1344 H 0.90397 0.33629 0.46775 0.0
H1345 H 0.83717 0.35015 0.46011 0.0
H1346 H 0.83383 0.35147 0.51018 0.0
H1347 H 0.84906 0.34554 0.55615 0.0
H1348 H 0.91574 0.33126 0.56398 0.0
H1349 H 0.9199 0.33354 0.51401 0.0
C1350 C 0.88872 0.33987 0.477 0.0
C1351 C 0.87081 0.3429 0.46004 0.0
C1352 C 0.88683 0.34043 0.50595 0.0
C1353 C 0.85123 0.34762 0.47252 0.0
C1354 C 0.84927 0.34834 0.50123 0.0
C1355 C 0.86458 0.34322 0.54701 0.0
C1356 C 0.882 0.33804 0.56392 0.0
C1357 C 0.86684 0.3443 0.51816 0.0
C1358 C 0.90201 0.33519 0.55158 0.0
C1359 C 0.9044 0.33641 0.52293 0.0
H1360 H 0.72365 0.86306 0.57223 0.0
H1361 H 0.65975 0.87962 0.59532 0.0
H1362 H 0.64921 0.87995 0.54665 0.0
H1363 H 0.65917 0.87861 0.49729 0.0
H1364 H 0.72303 0.86064 0.47508 0.0
H1365 H 0.73244 0.85755 0.52355 0.0
C1366 C 0.70735 0.86652 0.56659 0.0
C1367 C 0.69256 0.87156 0.58722 0.0
C1368 C 0.70141 0.86652 0.5387 0.0
C1369 C 0.67143 0.87569 0.57975 0.0
C1370 C 0.66543 0.87599 0.55193 0.0
C1371 C 0.67505 0.87375 0.50307 0.0
C1372 C 0.6904 0.87016 0.48248 0.0
C1373 C 0.68042 0.87189 0.53117 0.0
C1374 C 0.71087 0.86363 0.49038 0.0
C1375 C 0.71633 0.86192 0.51816 0.0
H1376 H 0.65871 0.78945 0.08895 0.0
H1377 H 0.60798 0.83267 0.10876 0.0
H1378 H 0.60403 0.8415 0.06007 0.0
H1379 H 0.61266 0.83451 1.01157 0.0
H1380 H 0.66259 0.79041 0.99164 0.0
H1381 H 0.66926 0.7846 0.04062 0.0
C1382 C 0.64697 0.80102 0.08269 0.0
C1383 C 0.63353 0.8102 0.10252 0.0
C1384 C 0.64453 0.80579 0.05456 0.0
C1385 C 0.61845 0.82521 0.09397 0.0
C1386 C 0.61614 0.83027 0.06608 0.0
C1387 C 0.62521 0.82384 1.0179 0.0
C1388 C 0.63695 0.81277 0.99789 0.0
C1389 C 0.62874 0.82027 0.04614 0.0
C1390 C 0.65318 0.79905 1.00655 0.0
C1391 C 0.657 0.79566 0.03459 0.0
H1392 H 0.16416 0.60899 1.00364 0.0
H1393 H 0.20167 0.66265 0.97892 0.0
H1394 H 0.20498 0.67373 1.02718 0.0
H1395 H 0.20084 0.6654 0.0767 0.0
H1396 H 0.16201 0.61226 0.10067 0.0
H1397 H 0.15522 0.60405 0.05247 0.0
C1398 C 0.17272 0.62332 1.00885 0.0
C1399 C 0.18288 0.63486 0.98796 0.0
C1400 C 0.17441 0.62963 0.0365 0.0
C1401 C 0.19371 0.65354 0.99476 0.0
C1402 C 0.19571 0.65979 1.02233 0.0
C1403 C 0.19055 0.65229 0.07138 0.0
C1404 C 0.18231 0.63926 0.09234 0.0
C1405 C 0.18666 0.64758 0.04346 0.0
C1406 C 0.16874 0.6225 0.08505 0.0
C1407 C 0.16492 0.61767 0.05743 0.0
H1408 H 0.41373 0.15737 0.0663 0.0
H1409 H 0.37227 0.21073 0.07876 0.0
H1410 H 0.36703 0.21374 1.02896 0.0
H1411 H 0.37565 0.20233 0.98144 0.0
H1412 H 0.41697 0.14874 0.96951 0.0
H1413 H 0.42066 0.14475 1.01924 0.0
C1414 C 0.40341 0.16958 0.0582 0.0
C1415 C 0.39351 0.18385 0.07644 0.0
C1416 C 0.40047 0.17126 1.02945 0.0
C1417 C 0.38012 0.19949 0.06537 0.0
C1418 C 0.37715 0.20128 0.0368 0.0
C1419 C 0.38532 0.18966 0.9897 0.0
C1420 C 0.39607 0.17593 0.97152 0.0
C1421 C 0.38745 0.18742 1.01857 0.0
C1422 C 0.4085 0.1596 0.98279 0.0
C1423 C 0.41068 0.1573 1.01134 0.0
H1424 H 0.77906 0.39996 0.04241 0.0
H1425 H 0.83218 0.35897 0.05906 0.0
H1426 H 0.83769 0.35411 1.00936 0.0
H1427 H 0.82765 0.36225 0.96088 0.0
H1428 H 0.7745 0.40375 0.94579 0.0
H1429 H 0.7689 0.40763 0.99508 0.0
C1430 C 0.79184 0.38988 0.0353 0.0
C1431 C 0.80518 0.37986 0.05457 0.0
C1432 C 0.79498 0.3873 1.00683 0.0
C1433 C 0.82163 0.36687 0.04477 0.0
C1434 C 0.82481 0.36412 1.01631 0.0
C1435 C 0.81483 0.37211 0.96838 0.0
C1436 C 0.80157 0.38271 0.94942 0.0
C1437 C 0.81164 0.37437 0.99709 0.0
C1438 C 0.78503 0.39541 0.95967 0.0
C1439 C 0.78177 0.39766 0.98797 0.0
H1440 H 0.66517 0.24195 0.06936 0.0
H1441 H 0.66718 0.17676 0.09491 0.0
H1442 H 0.66951 0.16553 0.04668 0.0
H1443 H 0.66669 0.17424 0.99704 0.0
H1444 H 0.6647 0.23975 0.97231 0.0
H1445 H 0.66684 0.25074 1.02028 0.0
C1446 C 0.66646 0.22529 0.06441 0.0
C1447 C 0.66577 0.21022 0.08568 0.0
C1448 C 0.66759 0.21896 0.03668 0.0
C1449 C 0.66771 0.1887 0.07894 0.0
C1450 C 0.66888 0.18226 0.05132 0.0
C1451 C 0.66709 0.19091 1.0021 0.0
C1452 C 0.66517 0.20609 0.98098 0.0
C1453 C 0.66819 0.19724 1.02996 0.0
C1454 C 0.66588 0.22765 0.98803 0.0
C1455 C 0.66708 0.23401 1.01553 0.0
H1456 H 0.79775 0.67484 0.08367 0.0
H1457 H 0.8165 0.61163 0.10652 0.0
H1458 H 0.82126 0.60251 0.05811 0.0
H1459 H 0.81722 0.61138 1.00913 0.0
H1460 H 0.79992 0.6747 0.98553 0.0
H1461 H 0.79766 0.68491 0.03426 0.0
C1462 C 0.80315 0.65916 0.07807 0.0
C1463 C 0.80654 0.64392 0.09883 0.0
C1464 C 0.80598 0.65397 0.05 0.0
C1465 C 0.81373 0.62372 0.09113 0.0
C1466 C 0.81637 0.61842 0.06336 0.0
C1467 C 0.81317 0.62749 1.01466 0.0
C1468 C 0.80852 0.6422 0.99377 0.0
C1469 C 0.81209 0.63325 0.04263 0.0
C1470 C 0.80359 0.66308 1.00122 0.0
C1471 C 0.80219 0.66889 1.02909 0.0
H1472 H 0.388 0.8356 0.99712 0.0
H1473 H 0.35608 0.7754 0.99132 0.0
H1474 H 0.35059 0.77521 0.04103 0.0
H1475 H 0.35604 0.79117 0.08652 0.0
H1476 H 0.38829 0.8511 0.09309 0.0
H1477 H 0.39224 0.85236 0.04293 0.0
C1478 C 0.37972 0.8225 1.00668 0.0
C1479 C 0.37257 0.8055 0.99029 0.0
C1480 C 0.37667 0.82239 0.03555 0.0
C1481 C 0.36187 0.78868 1.00323 0.0
C1482 C 0.3587 0.78853 1.03177 0.0
C1483 C 0.36379 0.80464 0.07705 0.0
C1484 C 0.37188 0.821 0.09376 0.0
C1485 C 0.3662 0.80517 0.04818 0.0
C1486 C 0.38189 0.83826 0.0809 0.0
C1487 C 0.38421 0.83897 0.05214 0.0
H1488 H 0.20347 0.4103 1.0025 0.0
H1489 H 0.20841 0.34643 0.97227 0.0
H1490 H 0.20874 0.33311 1.01962 0.0
H1491 H 0.21179 0.34004 0.06966 0.0
H1492 H 0.20615 0.40408 0.09943 0.0
H1493 H 0.20176 0.41678 0.05237 0.0
C1494 C 0.20424 0.39343 1.00626 0.0
C1495 C 0.20613 0.37942 0.98387 0.0
C1496 C 0.20453 0.38589 0.03353 0.0
C1497 C 0.2069 0.35758 0.9891 0.0
C1498 C 0.20726 0.34996 1.01621 0.0
C1499 C 0.2093 0.35673 0.06588 0.0
C1500 C 0.20963 0.37107 0.08812 0.0
C1501 C 0.20674 0.36402 0.03861 0.0
C1502 C 0.2061 0.39264 0.0828 0.0
C1503 C 0.20366 0.39997 0.05582 0.0
H1504 H 0.22318 0.35764 0.279 0.0
H1505 H 0.18414 0.33038 0.21503 0.0
H1506 H 0.16212 0.31325 0.24994 0.0
H1507 H 0.15363 0.30643 0.29842 0.0
H1508 H 0.19203 0.33418 0.36265 0.0
H1509 H 0.21463 0.35075 0.32774 0.0
C1510 C 0.20991 0.34787 0.27264 0.0
C1511 C 0.20537 0.34528 0.24435 0.0
C1512 C 0.19717 0.33823 0.29286 0.0
C1513 C 0.18802 0.33267 0.23659 0.0
C1514 C 0.17541 0.32287 0.25656 0.0
C1515 C 0.16696 0.31607 0.30488 0.0
C1516 C 0.17111 0.31903 0.33319 0.0
C1517 C 0.17978 0.32562 0.28473 0.0
C1518 C 0.18844 0.33164 0.34105 0.0
C1519 C 0.20138 0.34111 0.32108 0.0
H1520 H 0.65232 0.19848 0.28041 0.0
H1521 H 0.68638 0.16596 0.2158 0.0
H1522 H 0.70674 0.14663 0.25019 0.0
H1523 H 0.71577 0.1396 0.29823 0.0
H1524 H 0.68222 0.17163 0.36356 0.0
H1525 H 0.66071 0.19039 0.32925 0.0
C1526 C 0.66413 0.1871 0.27384 0.0
C1527 C 0.66781 0.18381 0.24542 0.0
C1528 C 0.67592 0.17596 0.29385 0.0
C1529 C 0.68317 0.16892 0.23741 0.0
C1530 C 0.69488 0.15783 0.2571 0.0
C1531 C 0.70373 0.15065 0.3051 0.0
C1532 C 0.70073 0.15426 0.33352 0.0
C1533 C 0.69152 0.16135 0.28532 0.0
C1534 C 0.6849 0.16852 0.34187 0.0
C1535 C 0.67263 0.17929 0.32222 0.0
H1536 H 0.7994 0.66706 0.25995 0.0
H1537 H 0.86346 0.64793 0.24099 0.0
H1538 H 0.87577 0.66254 0.28478 0.0
H1539 H 0.86839 0.68032 0.32879 0.0
H1540 H 0.80422 0.69876 0.34841 0.0
H1541 H 0.79197 0.68472 0.30426 0.0
C1542 C 0.81608 0.66625 0.26528 0.0
C1543 C 0.83048 0.65648 0.24706 0.0
C1544 C 0.82304 0.67439 0.29079 0.0
C1545 C 0.85201 0.65536 0.25453 0.0
C1546 C 0.85908 0.66368 0.27964 0.0
C1547 C 0.8517 0.68123 0.3235 0.0
C1548 C 0.83728 0.6906 0.34206 0.0
C1549 C 0.84473 0.67311 0.29802 0.0
C1550 C 0.81571 0.6916 0.33469 0.0
C1551 C 0.80868 0.68362 0.30934 0.0
H1552 H 0.33156 0.80356 0.25098 0.0
H1553 H 0.35586 0.86549 0.23161 0.0
H1554 H 0.34338 0.87878 0.27607 0.0
H1555 H 0.32674 0.87258 0.32138 0.0
H1556 H 0.30396 0.81018 0.34156 0.0
H1557 H 0.31473 0.79741 0.29619 0.0
C1558 C 0.33386 0.82003 0.25633 0.0
C1559 C 0.34453 0.83352 0.23782 0.0
C1560 C 0.32712 0.82748 0.28233 0.0
C1561 C 0.34768 0.85475 0.24537 0.0
C1562 C 0.3406 0.86237 0.27087 0.0
C1563 C 0.3241 0.85619 0.31587 0.0
C1564 C 0.31457 0.8424 0.33506 0.0
C1565 C 0.33053 0.84883 0.2897 0.0
C1566 C 0.31135 0.82119 0.32742 0.0
C1567 C 0.31745 0.81384 0.30136 0.0
H1568 H 0.16557 0.62855 0.79702 0.0
H1569 H 0.1669 0.68011 0.85535 0.0
H1570 H 0.15159 0.70361 0.82087 0.0
H1571 H 0.13889 0.70987 0.77402 0.0
H1572 H 0.13771 0.65875 0.71511 0.0
H1573 H 0.15167 0.63464 0.75016 0.0
C1574 C 0.1625 0.64492 0.80222 0.0
C1575 C 0.16751 0.65255 0.82875 0.0
C1576 C 0.15365 0.6584 0.78225 0.0
C1577 C 0.16328 0.67379 0.83513 0.0
C1578 C 0.1545 0.68726 0.81541 0.0
C1579 C 0.14153 0.69343 0.7688 0.0
C1580 C 0.13731 0.68616 0.74191 0.0
C1581 C 0.14975 0.67977 0.7889 0.0
C1582 C 0.14079 0.66477 0.73564 0.0
C1583 C 0.14886 0.651 0.75565 0.0
H1584 H 0.34006 0.13087 0.74307 0.0
H1585 H 0.32119 0.19568 0.73041 0.0
H1586 H 0.33498 0.20512 0.77574 0.0
H1587 H 0.35313 0.19536 0.81869 0.0
H1588 H 0.37357 0.13104 0.83091 0.0
H1589 H 0.35829 0.12106 0.78636 0.0
C1590 C 0.33896 0.14706 0.75022 0.0
C1591 C 0.3296 0.16252 0.73316 0.0
C1592 C 0.34712 0.15249 0.77639 0.0
C1593 C 0.32837 0.18342 0.74288 0.0
C1594 C 0.33621 0.18886 0.76892 0.0
C1595 C 0.35403 0.17909 0.8118 0.0
C1596 C 0.36438 0.16395 0.82831 0.0
C1597 C 0.34566 0.17356 0.78584 0.0
C1598 C 0.36566 0.14302 0.81873 0.0
C1599 C 0.35697 0.13731 0.79318 0.0
H1600 H 0.86094 0.31055 0.74637 0.0
H1601 H 0.87275 0.36584 0.69668 0.0
H1602 H 0.8594 0.38841 0.73375 0.0
H1603 H 0.84411 0.39246 0.78005 0.0
H1604 H 0.82975 0.3372 0.82858 0.0
H1605 H 0.84449 0.31457 0.79229 0.0
C1606 C 0.86062 0.32755 0.74367 0.0
C1607 C 0.86794 0.3365 0.71879 0.0
C1608 C 0.85255 0.34041 0.76491 0.0
C1609 C 0.86717 0.35853 0.71553 0.0
C1610 C 0.8596 0.37145 0.73678 0.0
C1611 C 0.84439 0.37547 0.78283 0.0
C1612 C 0.83609 0.36653 0.80716 0.0
C1613 C 0.85228 0.36257 0.76155 0.0
C1614 C 0.83614 0.34446 0.81013 0.0
C1615 C 0.84453 0.33153 0.78936 0.0
H1616 H 0.69017 0.87064 0.78138 0.0
H1617 H 0.65305 0.83677 0.72095 0.0
H1618 H 0.63586 0.81668 0.75771 0.0
H1619 H 0.63165 0.8085 0.80683 0.0
H1620 H 0.66895 0.84216 0.86727 0.0
H1621 H 0.68582 0.86258 0.83055 0.0
C1622 C 0.67828 0.85891 0.77619 0.0
C1623 C 0.67292 0.85523 0.7484 0.0
C1624 C 0.66853 0.84735 0.79741 0.0
C1625 C 0.65749 0.83993 0.74213 0.0
C1626 C 0.64766 0.82842 0.76315 0.0
C1627 C 0.64346 0.82031 0.81203 0.0
C1628 C 0.64903 0.82377 0.8398 0.0
C1629 C 0.65311 0.83196 0.79084 0.0
C1630 C 0.66437 0.83915 0.8461 0.0
C1631 C 0.67402 0.85084 0.82511 0.0
H1632 H 0.86705 0.71427 0.77565 0.0
H1633 H 0.85121 0.66675 0.71517 0.0
H1634 H 0.83367 0.64576 0.75086 0.0
H1635 H 0.82264 0.64098 0.79915 0.0
H1636 H 0.83881 0.68836 0.85966 0.0
H1637 H 0.85639 0.7093 0.82399 0.0
C1638 C 0.85978 0.69931 0.77019 0.0
C1639 C 0.86047 0.69216 0.74263 0.0
C1640 C 0.84974 0.6873 0.79085 0.0
C1641 C 0.85097 0.67269 0.73612 0.0
C1642 C 0.84091 0.66067 0.75655 0.0
C1643 C 0.82998 0.6559 0.8046 0.0
C1644 C 0.82931 0.66307 0.83216 0.0
C1645 C 0.84015 0.66784 0.78397 0.0
C1646 C 0.83903 0.68242 0.83871 0.0
C1647 C 0.8491 0.69442 0.81829 0.0
H1648 H 0.37076 0.79524 0.8 0.0
H1649 H 0.33632 0.82874 0.86329 0.0
H1650 H 0.32041 0.85156 0.82819 0.0
H1651 H 0.31591 0.86165 0.77955 0.0
H1652 H 0.35126 0.82899 0.71639 0.0
H1653 H 0.36724 0.80619 0.75149 0.0
C1654 C 0.35975 0.80752 0.80618 0.0
C1655 C 0.35464 0.81015 0.83432 0.0
C1656 C 0.35084 0.82072 0.7859 0.0
C1657 C 0.34054 0.82633 0.84186 0.0
C1658 C 0.33141 0.83936 0.82177 0.0
C1659 C 0.3271 0.84954 0.7734 0.0
C1660 C 0.33226 0.84697 0.74527 0.0
C1661 C 0.33638 0.83665 0.79373 0.0
C1662 C 0.347 0.83134 0.73781 0.0
C1663 C 0.35611 0.81827 0.7579 0.0
H1664 H 0.1525 0.34941 0.74374 0.0
H1665 H 0.21127 0.31505 0.73537 0.0
H1666 H 0.22309 0.32828 0.78013 0.0
H1667 H 0.21636 0.34882 0.82237 0.0
H1668 H 0.15741 0.3829 0.83075 0.0
H1669 H 0.14606 0.37043 0.78548 0.0
C1670 C 0.168 0.34498 0.75153 0.0
C1671 C 0.18097 0.33126 0.73608 0.0
C1672 C 0.1746 0.35241 0.77751 0.0
C1673 C 0.20094 0.32559 0.74672 0.0
C1674 C 0.20769 0.33309 0.77241 0.0
C1675 C 0.20099 0.35347 0.81436 0.0
C1676 C 0.18774 0.36672 0.83011 0.0
C1677 C 0.19456 0.34632 0.78815 0.0
C1678 C 0.16794 0.37268 0.81921 0.0
C1679 C 0.16143 0.36559 0.79324 0.0
H1680 H 0.71398 0.16374 0.75253 0.0
H1681 H 0.65802 0.12448 0.75196 0.0
H1682 H 0.6466 0.13995 0.79577 0.0
H1683 H 0.6525 0.16482 0.83426 0.0
H1684 H 0.70912 0.20325 0.83491 0.0
H1685 H 0.72034 0.18771 0.79133 0.0
C1686 C 0.69918 0.15867 0.76185 0.0
C1687 C 0.68677 0.1431 0.7488 0.0
C1688 C 0.69292 0.16733 0.78727 0.0
C1689 C 0.66783 0.1365 0.76146 0.0
C1690 C 0.66132 0.1453 0.78658 0.0
C1691 C 0.66738 0.16967 0.825 0.0
C1692 C 0.67991 0.18523 0.83796 0.0
C1693 C 0.67378 0.16069 0.79974 0.0
C1694 C 0.69913 0.19132 0.82554 0.0
C1695 C 0.70555 0.1825 0.80049 0.0
H1696 H 0.83448 0.39303 0.24472 0.0
H1697 H 0.85281 0.34345 0.18841 0.0
H1698 H 0.8736 0.32665 0.22488 0.0
H1699 H 0.88495 0.32499 0.27328 0.0
H1700 H 0.86633 0.37431 0.3298 0.0
H1701 H 0.84751 0.3924 0.29255 0.0
C1702 C 0.84308 0.37859 0.24033 0.0
C1703 C 0.84191 0.36944 0.21383 0.0
C1704 C 0.85499 0.36898 0.26143 0.0
C1705 C 0.85335 0.35082 0.20857 0.0
C1706 C 0.86524 0.34119 0.22945 0.0
C1707 C 0.87697 0.33982 0.27747 0.0
C1708 C 0.87701 0.3482 0.30443 0.0
C1709 C 0.86595 0.34999 0.25603 0.0
C1710 C 0.86661 0.36748 0.30932 0.0
C1711 C 0.85574 0.37779 0.28803 0.0
H1712 H 0.65451 0.80296 0.25636 0.0
H1713 H 0.63922 0.86711 0.23362 0.0
H1714 H 0.6529 0.87972 0.27773 0.0
H1715 H 0.66875 0.87258 0.32295 0.0
H1716 H 0.68497 0.80865 0.34538 0.0
H1717 H 0.6711 0.79589 0.3013 0.0
C1718 C 0.65428 0.81972 0.26095 0.0
C1719 C 0.64581 0.83405 0.24165 0.0
C1720 C 0.6621 0.82689 0.28643 0.0
C1721 C 0.64568 0.85572 0.24801 0.0
C1722 C 0.6534 0.86295 0.27331 0.0
C1723 C 0.66907 0.85582 0.31833 0.0
C1724 C 0.6777 0.84155 0.33755 0.0
C1725 C 0.66147 0.84866 0.29276 0.0
C1726 C 0.67832 0.81994 0.33101 0.0
C1727 C 0.67046 0.81265 0.30577 0.0
H1728 H 0.15881 0.70065 0.31799 0.0
H1729 H 0.16143 0.63724 0.3506 0.0
H1730 H 0.17304 0.62405 0.3057 0.0
H1731 H 0.18072 0.63029 0.2568 0.0
H1732 H 0.1776 0.69364 0.22407 0.0
H1733 H 0.16776 0.70707 0.26956 0.0
C1734 C 0.16209 0.68395 0.31542 0.0
C1735 C 0.15916 0.66994 0.33767 0.0
C1736 C 0.16845 0.67645 0.28948 0.0
C1737 C 0.16353 0.64837 0.33387 0.0
C1738 C 0.17008 0.64081 0.30816 0.0
C1739 C 0.1779 0.64705 0.25956 0.0
C1740 C 0.17974 0.66092 0.23696 0.0
C1741 C 0.17227 0.65466 0.28574 0.0
C1742 C 0.1762 0.6826 0.24103 0.0
C1743 C 0.1706 0.6903 0.26705 0.0
H1744 H 0.31887 0.1399 0.29364 0.0
H1745 H 0.35045 0.17866 0.35437 0.0
H1746 H 0.37012 0.19659 0.31779 0.0
H1747 H 0.37904 0.20071 0.26882 0.0
H1748 H 0.34801 0.16167 0.20796 0.0
H1749 H 0.32743 0.14445 0.24439 0.0
C1750 C 0.32998 0.15234 0.29894 0.0
C1751 C 0.33314 0.15787 0.32685 0.0
C1752 C 0.34139 0.1625 0.27776 0.0
C1753 C 0.34767 0.17402 0.33317 0.0
C1754 C 0.35896 0.18428 0.31223 0.0
C1755 C 0.36774 0.18847 0.26341 0.0
C1756 C 0.36515 0.1825 0.23556 0.0
C1757 C 0.35606 0.17856 0.28449 0.0
C1758 C 0.35039 0.1666 0.22913 0.0
C1759 C 0.33861 0.15673 0.24999 0.0
loop_
_geom_bond_atom_site_label_1
_geom_bond_atom_site_label_2
_geom_bond_distance
_geom_bond_site_symmetry_2
_ccdc_geom_bond_type
Cu0 N1 1.999 . S
Cu0 O6 1.974 . S
Cu0 N11 1.985 . S
Cu0 O20 1.959 . S
N1 Cu0 1.999 . S
N1 C3 1.263 . S
N1 C5 1.389 . S
N2 C3 1.358 . S
N2 C4 1.400 . S
C3 N1 1.263 . S
C3 N2 1.358 . S
C3 H9 0.930 . S
C4 N2 1.400 . S
C4 C5 1.351 . S
C4 H21 0.930 . S
C5 N1 1.389 . S
C5 C4 1.351 . S
C5 H10 0.930 . S
O6 Cu0 1.974 . S
O6 C16 1.282 . S
C7 O8 1.261 . S
C7 O20 1.251 . S
O8 C7 1.261 . S
H9 C3 0.930 . S
H10 C5 0.930 . S
N11 Cu0 1.985 . S
N11 C13 1.335 . S
N11 C14 1.390 . S
N12 C13 1.345 . S
N12 C15 1.336 . S
C13 N11 1.335 . S
C13 N12 1.345 . S
C13 H18 0.930 . S
C14 N11 1.390 . S
C14 C15 1.346 . S
C14 H19 0.930 . S
C15 N12 1.336 . S
C15 C14 1.346 . S
C15 H22 0.929 . S
C16 O6 1.282 . S
C16 O17 1.216 . S
O17 C16 1.216 . S
H18 C13 0.930 . S
H19 C14 0.930 . S
O20 Cu0 1.959 . S
O20 C7 1.251 . S
H21 C4 0.930 . S
H22 C15 0.929 . S
Cu23 N24 1.999 . S
Cu23 O29 1.974 . S
Cu23 N34 1.985 . S
Cu23 O43 1.959 . S
N24 Cu23 1.999 . S
N24 C26 1.263 . S
N24 C28 1.389 . S
N25 C26 1.358 . S
N25 C27 1.400 . S
C26 N24 1.263 . S
C26 N25 1.358 . S
C26 H32 0.930 . S
C27 N25 1.400 . S
C27 C28 1.351 . S
C27 H44 0.930 . S
C28 N24 1.389 . S
C28 C27 1.351 . S
C28 H33 0.930 . S
O29 Cu23 1.974 . S
O29 C39 1.282 . S
C30 O31 1.261 . S
C30 O43 1.251 . S
O31 C30 1.261 . S
H32 C26 0.930 . S
H33 C28 0.930 . S
N34 Cu23 1.985 . S
N34 C36 1.335 . S
N34 C37 1.390 . S
N35 C36 1.345 . S
N35 C38 1.336 . S
C36 N34 1.335 . S
C36 N35 1.345 . S
C36 H41 0.930 . S
C37 N34 1.390 . S
C37 C38 1.346 . S
C37 H42 0.930 . S
C38 N35 1.336 . S
C38 C37 1.346 . S
C38 H45 0.929 . S
C39 O29 1.282 . S
C39 O40 1.216 . S
O40 C39 1.216 . S
H41 C36 0.930 . S
H42 C37 0.930 . S
O43 Cu23 1.959 . S
O43 C30 1.251 . S
H44 C27 0.930 . S
H45 C38 0.929 . S
Cu46 N47 1.999 . S
Cu46 O52 1.974 . S
Cu46 N57 1.985 . S
Cu46 O66 1.959 . S
N47 Cu46 1.999 . S
N47 C49 1.263 . S
N47 C51 1.389 . S
N48 C49 1.358 . S
N48 C50 1.400 . S
C49 N47 1.263 . S
C49 N48 1.358 . S
C49 H55 0.930 . S
C50 N48 1.400 . S
C50 C51 1.351 . S
C50 H67 0.930 . S
C51 N47 1.389 . S
C51 C50 1.351 . S
C51 H56 0.930 . S
O52 Cu46 1.974 . S
O52 C62 1.282 . S
C53 O54 1.261 . S
C53 O66 1.251 . S
O54 C53 1.261 . S
H55 C49 0.930 . S
H56 C51 0.930 . S
N57 Cu46 1.985 . S
N57 C59 1.335 . S
N57 C60 1.390 . S
N58 C59 1.345 . S
N58 C61 1.336 . S
C59 N57 1.335 . S
C59 N58 1.345 . S
C59 H64 0.930 . S
C60 N57 1.390 . S
C60 C61 1.346 . S
C60 H65 0.930 . S
C61 N58 1.336 . S
C61 C60 1.346 . S
C61 H68 0.929 . S
C62 O52 1.282 . S
C62 O63 1.216 . S
O63 C62 1.216 . S
H64 C59 0.930 . S
H65 C60 0.930 . S
O66 Cu46 1.959 . S
O66 C53 1.251 . S
H67 C50 0.930 . S
H68 C61 0.929 . S
Cu69 N70 1.999 . S
Cu69 O75 1.974 . S
Cu69 N80 1.985 . S
Cu69 O89 1.959 . S
N70 Cu69 1.999 . S
N70 C72 1.263 . S
N70 C74 1.389 . S
N71 C72 1.358 . S
N71 C73 1.400 . S
C72 N70 1.263 . S
C72 N71 1.358 . S
C72 H78 0.930 . S
C73 N71 1.400 . S
C73 C74 1.351 . S
C73 H90 0.930 . S
C74 N70 1.389 . S
C74 C73 1.351 . S
C74 H79 0.930 . S
O75 Cu69 1.974 . S
O75 C85 1.282 . S
C76 O77 1.261 . S
C76 O89 1.251 . S
O77 C76 1.261 . S
H78 C72 0.930 . S
H79 C74 0.930 . S
N80 Cu69 1.985 . S
N80 C82 1.335 . S
N80 C83 1.390 . S
N81 C82 1.345 . S
N81 C84 1.336 . S
C82 N80 1.335 . S
C82 N81 1.345 . S
C82 H87 0.930 . S
C83 N80 1.390 . S
C83 C84 1.346 . S
C83 H88 0.930 . S
C84 N81 1.336 . S
C84 C83 1.346 . S
C84 H91 0.929 . S
C85 O75 1.282 . S
C85 O86 1.216 . S
O86 C85 1.216 . S
H87 C82 0.930 . S
H88 C83 0.930 . S
O89 Cu69 1.959 . S
O89 C76 1.251 . S
H90 C73 0.930 . S
H91 C84 0.929 . S
Cu92 N93 1.999 . S
Cu92 O98 1.974 . S
Cu92 N103 1.985 . S
Cu92 O112 1.959 . S
N93 Cu92 1.999 . S
N93 C95 1.263 . S
N93 C97 1.389 . S
N94 C95 1.358 . S
N94 C96 1.400 . S
C95 N93 1.263 . S
C95 N94 1.358 . S
C95 H101 0.930 . S
C96 N94 1.400 . S
C96 C97 1.351 . S
C96 H113 0.930 . S
C97 N93 1.389 . S
C97 C96 1.351 . S
C97 H102 0.930 . S
O98 Cu92 1.974 . S
O98 C108 1.282 . S
C99 O100 1.261 . S
C99 O112 1.251 . S
O100 C99 1.261 . S
H101 C95 0.930 . S
H102 C97 0.930 . S
N103 Cu92 1.985 . S
N103 C105 1.335 . S
N103 C106 1.390 . S
N104 C105 1.345 . S
N104 C107 1.336 . S
C105 N103 1.335 . S
C105 N104 1.345 . S
C105 H110 0.930 . S
C106 N103 1.390 . S
C106 C107 1.346 . S
C106 H111 0.930 . S
C107 N104 1.336 . S
C107 C106 1.346 . S
C107 H114 0.929 . S
C108 O98 1.282 . S
C108 O109 1.216 . S
O109 C108 1.216 . S
H110 C105 0.930 . S
H111 C106 0.930 . S
O112 Cu92 1.959 . S
O112 C99 1.251 . S
H113 C96 0.930 . S
H114 C107 0.929 . S
Cu115 N116 1.999 . S
Cu115 O121 1.974 . S
Cu115 N126 1.985 . S
Cu115 O135 1.959 . S
N116 Cu115 1.999 . S
N116 C118 1.263 . S
N116 C120 1.389 . S
N117 C118 1.358 . S
N117 C119 1.400 . S
C118 N116 1.263 . S
C118 N117 1.358 . S
C118 H124 0.930 . S
C119 N117 1.400 . S
C119 C120 1.351 . S
C119 H136 0.930 . S
C120 N116 1.389 . S
C120 C119 1.351 . S
C120 H125 0.930 . S
O121 Cu115 1.974 . S
O121 C131 1.282 . S
C122 O123 1.261 . S
C122 O135 1.251 . S
O123 C122 1.261 . S
H124 C118 0.930 . S
H125 C120 0.930 . S
N126 Cu115 1.985 . S
N126 C128 1.335 . S
N126 C129 1.390 . S
N127 C128 1.345 . S
N127 C130 1.336 . S
C128 N126 1.335 . S
C128 N127 1.345 . S
C128 H133 0.930 . S
C129 N126 1.390 . S
C129 C130 1.346 . S
C129 H134 0.930 . S
C130 N127 1.336 . S
C130 C129 1.346 . S
C130 H137 0.929 . S
C131 O121 1.282 . S
C131 O132 1.216 . S
O132 C131 1.216 . S
H133 C128 0.930 . S
H134 C129 0.930 . S
O135 Cu115 1.959 . S
O135 C122 1.251 . S
H136 C119 0.930 . S
H137 C130 0.929 . S
Cu138 N139 1.999 . S
Cu138 O144 1.974 . S
Cu138 N149 1.985 . S
Cu138 O158 1.959 . S
N139 Cu138 1.999 . S
N139 C141 1.263 . S
N139 C143 1.389 . S
N140 C141 1.358 . S
N140 C142 1.400 . S
C141 N139 1.263 . S
C141 N140 1.358 . S
C141 H147 0.930 . S
C142 N140 1.400 . S
C142 C143 1.351 . S
C142 H159 0.930 . S
C143 N139 1.389 . S
C143 C142 1.351 . S
C143 H148 0.930 . S
O144 Cu138 1.974 . S
O144 C154 1.282 . S
C145 O146 1.261 . S
C145 O158 1.251 . S
O146 C145 1.261 . S
H147 C141 0.930 . S
H148 C143 0.930 . S
N149 Cu138 1.985 . S
N149 C151 1.335 . S
N149 C152 1.390 . S
N150 C151 1.345 . S
N150 C153 1.336 . S
C151 N149 1.335 . S
C151 N150 1.345 . S
C151 H156 0.930 . S
C152 N149 1.390 . S
C152 C153 1.346 . S
C152 H157 0.930 . S
C153 N150 1.336 . S
C153 C152 1.346 . S
C153 H160 0.929 . S
C154 O144 1.282 . S
C154 O155 1.216 . S
O155 C154 1.216 . S
H156 C151 0.930 . S
H157 C152 0.930 . S
O158 Cu138 1.959 . S
O158 C145 1.251 . S
H159 C142 0.930 . S
H160 C153 0.929 . S
Cu161 N162 1.999 . S
Cu161 O167 1.974 . S
Cu161 N172 1.985 . S
Cu161 O181 1.959 . S
N162 Cu161 1.999 . S
N162 C164 1.263 . S
N162 C166 1.389 . S
N163 C164 1.358 . S
N163 C165 1.400 . S
C164 N162 1.263 . S
C164 N163 1.358 . S
C164 H170 0.930 . S
C165 N163 1.400 . S
C165 C166 1.351 . S
C165 H182 0.930 . S
C166 N162 1.389 . S
C166 C165 1.351 . S
C166 H171 0.930 . S
O167 Cu161 1.974 . S
O167 C177 1.282 . S
C168 O169 1.261 . S
C168 O181 1.251 . S
O169 C168 1.261 . S
H170 C164 0.930 . S
H171 C166 0.930 . S
N172 Cu161 1.985 . S
N172 C174 1.335 . S
N172 C175 1.390 . S
N173 C174 1.345 . S
N173 C176 1.336 . S
C174 N172 1.335 . S
C174 N173 1.345 . S
C174 H179 0.930 . S
C175 N172 1.390 . S
C175 C176 1.346 . S
C175 H180 0.930 . S
C176 N173 1.336 . S
C176 C175 1.346 . S
C176 H183 0.929 . S
C177 O167 1.282 . S
C177 O178 1.216 . S
O178 C177 1.216 . S
H179 C174 0.930 . S
H180 C175 0.930 . S
O181 Cu161 1.959 . S
O181 C168 1.251 . S
H182 C165 0.930 . S
H183 C176 0.929 . S
Cu184 N185 1.999 . S
Cu184 O190 1.974 . S
Cu184 N195 1.985 . S
Cu184 O204 1.959 . S
N185 Cu184 1.999 . S
N185 C187 1.263 . S
N185 C189 1.389 . S
N186 C187 1.358 . S
N186 C188 1.400 . S
C187 N185 1.263 . S
C187 N186 1.358 . S
C187 H193 0.930 . S
C188 N186 1.400 . S
C188 C189 1.351 . S
C188 H205 0.930 . S
C189 N185 1.389 . S
C189 C188 1.351 . S
C189 H194 0.930 . S
O190 Cu184 1.974 . S
O190 C200 1.282 . S
C191 O192 1.261 . S
C191 O204 1.251 . S
O192 C191 1.261 . S
H193 C187 0.930 . S
H194 C189 0.930 . S
N195 Cu184 1.985 . S
N195 C197 1.335 . S
N195 C198 1.390 . S
N196 C197 1.345 . S
N196 C199 1.336 . S
C197 N195 1.335 . S
C197 N196 1.345 . S
C197 H202 0.930 . S
C198 N195 1.390 . S
C198 C199 1.346 . S
C198 H203 0.930 . S
C199 N196 1.336 . S
C199 C198 1.346 . S
C199 H206 0.929 . S
C200 O190 1.282 . S
C200 O201 1.216 . S
O201 C200 1.216 . S
H202 C197 0.930 . S
H203 C198 0.930 . S
O204 Cu184 1.959 . S
O204 C191 1.251 . S
H205 C188 0.930 . S
H206 C199 0.929 . S
Cu207 N208 1.999 . S
Cu207 O213 1.974 . S
Cu207 N218 1.985 . S
Cu207 O227 1.959 . S
N208 Cu207 1.999 . S
N208 C210 1.263 . S
N208 C212 1.389 . S
N209 C210 1.358 . S
N209 C211 1.400 . S
C210 N208 1.263 . S
C210 N209 1.358 . S
C210 H216 0.930 . S
C211 N209 1.400 . S
C211 C212 1.351 . S
C211 H228 0.930 . S
C212 N208 1.389 . S
C212 C211 1.351 . S
C212 H217 0.930 . S
O213 Cu207 1.974 . S
O213 C223 1.282 . S
C214 O215 1.261 . S
C214 O227 1.251 . S
O215 C214 1.261 . S
H216 C210 0.930 . S
H217 C212 0.930 . S
N218 Cu207 1.985 . S
N218 C220 1.335 . S
N218 C221 1.390 . S
N219 C220 1.345 . S
N219 C222 1.336 . S
C220 N218 1.335 . S
C220 N219 1.345 . S
C220 H225 0.930 . S
C221 N218 1.390 . S
C221 C222 1.346 . S
C221 H226 0.930 . S
C222 N219 1.336 . S
C222 C221 1.346 . S
C222 H229 0.929 . S
C223 O213 1.282 . S
C223 O224 1.216 . S
O224 C223 1.216 . S
H225 C220 0.930 . S
H226 C221 0.930 . S
O227 Cu207 1.959 . S
O227 C214 1.251 . S
H228 C211 0.930 . S
H229 C222 0.929 . S
Cu230 N231 1.999 . S
Cu230 O236 1.974 . S
Cu230 N241 1.985 . S
Cu230 O250 1.959 . S
N231 Cu230 1.999 . S
N231 C233 1.263 . S
N231 C235 1.389 . S
N232 C233 1.358 . S
N232 C234 1.400 . S
C233 N231 1.263 . S
C233 N232 1.358 . S
C233 H239 0.930 . S
C234 N232 1.400 . S
C234 C235 1.351 . S
C234 H251 0.930 . S
C235 N231 1.389 . S
C235 C234 1.351 . S
C235 H240 0.930 . S
O236 Cu230 1.974 . S
O236 C246 1.282 . S
C237 O238 1.261 . S
C237 O250 1.251 . S
O238 C237 1.261 . S
H239 C233 0.930 . S
H240 C235 0.930 . S
N241 Cu230 1.985 . S
N241 C243 1.335 . S
N241 C244 1.390 . S
N242 C243 1.345 . S
N242 C245 1.336 . S
C243 N241 1.335 . S
C243 N242 1.345 . S
C243 H248 0.930 . S
C244 N241 1.390 . S
C244 C245 1.346 . S
C244 H249 0.930 . S
C245 N242 1.336 . S
C245 C244 1.346 . S
C245 H252 0.929 . S
C246 O236 1.282 . S
C246 O247 1.216 . S
O247 C246 1.216 . S
H248 C243 0.930 . S
H249 C244 0.930 . S
O250 Cu230 1.959 . S
O250 C237 1.251 . S
H251 C234 0.930 . S
H252 C245 0.929 . S
Cu253 N254 1.999 . S
Cu253 O259 1.974 . S
Cu253 N264 1.985 . S
Cu253 O273 1.959 . S
N254 Cu253 1.999 . S
N254 C256 1.263 . S
N254 C258 1.389 . S
N255 C256 1.358 . S
N255 C257 1.400 . S
C256 N254 1.263 . S
C256 N255 1.358 . S
C256 H262 0.930 . S
C257 N255 1.400 . S
C257 C258 1.351 . S
C257 H274 0.930 . S
C258 N254 1.389 . S
C258 C257 1.351 . S
C258 H263 0.930 . S
O259 Cu253 1.974 . S
O259 C269 1.282 . S
C260 O261 1.261 . S
C260 O273 1.251 . S
O261 C260 1.261 . S
H262 C256 0.930 . S
H263 C258 0.930 . S
N264 Cu253 1.985 . S
N264 C266 1.335 . S
N264 C267 1.390 . S
N265 C266 1.345 . S
N265 C268 1.336 . S
C266 N264 1.335 . S
C266 N265 1.345 . S
C266 H271 0.930 . S
C267 N264 1.390 . S
C267 C268 1.346 . S
C267 H272 0.930 . S
C268 N265 1.336 . S
C268 C267 1.346 . S
C268 H275 0.929 . S
C269 O259 1.282 . S
C269 O270 1.216 . S
O270 C269 1.216 . S
H271 C266 0.930 . S
H272 C267 0.930 . S
O273 Cu253 1.959 . S
O273 C260 1.251 . S
H274 C257 0.930 . S
H275 C268 0.929 . S
Cu276 N277 1.999 . S
Cu276 O282 1.974 . S
Cu276 N287 1.985 . S
Cu276 O296 1.959 . S
N277 Cu276 1.999 . S
N277 C279 1.263 . S
N277 C281 1.389 . S
N278 C279 1.358 . S
N278 C280 1.400 . S
C279 N277 1.263 . S
C279 N278 1.358 . S
C279 H285 0.930 . S
C280 N278 1.400 . S
C280 C281 1.351 . S
C280 H297 0.930 . S
C281 N277 1.389 . S
C281 C280 1.351 . S
C281 H286 0.930 . S
O282 Cu276 1.974 . S
O282 C292 1.282 . S
C283 O284 1.261 . S
C283 O296 1.251 . S
O284 C283 1.261 . S
H285 C279 0.930 . S
H286 C281 0.930 . S
N287 Cu276 1.985 . S
N287 C289 1.335 . S
N287 C290 1.390 . S
N288 C289 1.345 . S
N288 C291 1.336 . S
C289 N287 1.335 . S
C289 N288 1.345 . S
C289 H294 0.930 . S
C290 N287 1.390 . S
C290 C291 1.346 . S
C290 H295 0.930 . S
C291 N288 1.336 . S
C291 C290 1.346 . S
C291 H298 0.929 . S
C292 O282 1.282 . S
C292 O293 1.216 . S
O293 C292 1.216 . S
H294 C289 0.930 . S
H295 C290 0.930 . S
O296 Cu276 1.959 . S
O296 C283 1.251 . S
H297 C280 0.930 . S
H298 C291 0.929 . S
Cu299 N300 1.999 . S
Cu299 O305 1.974 . S
Cu299 N310 1.985 . S
Cu299 O319 1.959 . S
N300 Cu299 1.999 . S
N300 C302 1.263 . S
N300 C304 1.389 . S
N301 C302 1.358 . S
N301 C303 1.400 . S
C302 N300 1.263 . S
C302 N301 1.358 . S
C302 H308 0.930 . S
C303 N301 1.400 . S
C303 C304 1.351 . S
C303 H320 0.930 . S
C304 N300 1.389 . S
C304 C303 1.351 . S
C304 H309 0.930 . S
O305 Cu299 1.974 . S
O305 C315 1.282 . S
C306 O307 1.261 . S
C306 O319 1.251 . S
O307 C306 1.261 . S
H308 C302 0.930 . S
H309 C304 0.930 . S
N310 Cu299 1.985 . S
N310 C312 1.335 . S
N310 C313 1.390 . S
N311 C312 1.345 . S
N311 C314 1.336 . S
C312 N310 1.335 . S
C312 N311 1.345 . S
C312 H317 0.930 . S
C313 N310 1.390 . S
C313 C314 1.346 . S
C313 H318 0.930 . S
C314 N311 1.336 . S
C314 C313 1.346 . S
C314 H321 0.929 . S
C315 O305 1.282 . S
C315 O316 1.216 . S
O316 C315 1.216 . S
H317 C312 0.930 . S
H318 C313 0.930 . S
O319 Cu299 1.959 . S
O319 C306 1.251 . S
H320 C303 0.930 . S
H321 C314 0.929 . S
Cu322 N323 1.999 . S
Cu322 O328 1.974 . S
Cu322 N333 1.985 . S
Cu322 O342 1.959 . S
N323 Cu322 1.999 . S
N323 C325 1.263 . S
N323 C327 1.389 . S
N324 C325 1.358 . S
N324 C326 1.400 . S
C325 N323 1.263 . S
C325 N324 1.358 . S
C325 H331 0.930 . S
C326 N324 1.400 . S
C326 C327 1.351 . S
C326 H343 0.930 . S
C327 N323 1.389 . S
C327 C326 1.351 . S
C327 H332 0.930 . S
O328 Cu322 1.974 . S
O328 C338 1.282 . S
C329 O330 1.261 . S
C329 O342 1.251 . S
O330 C329 1.261 . S
H331 C325 0.930 . S
H332 C327 0.930 . S
N333 Cu322 1.985 . S
N333 C335 1.335 . S
N333 C336 1.390 . S
N334 C335 1.345 . S
N334 C337 1.336 . S
C335 N333 1.335 . S
C335 N334 1.345 . S
C335 H340 0.930 . S
C336 N333 1.390 . S
C336 C337 1.346 . S
C336 H341 0.930 . S
C337 N334 1.336 . S
C337 C336 1.346 . S
C337 H344 0.929 . S
C338 O328 1.282 . S
C338 O339 1.216 . S
O339 C338 1.216 . S
H340 C335 0.930 . S
H341 C336 0.930 . S
O342 Cu322 1.959 . S
O342 C329 1.251 . S
H343 C326 0.930 . S
H344 C337 0.929 . S
Cu345 N346 1.999 . S
Cu345 O351 1.974 . S
Cu345 N356 1.985 . S
Cu345 O365 1.959 . S
N346 Cu345 1.999 . S
N346 C348 1.263 . S
N346 C350 1.389 . S
N347 C348 1.358 . S
N347 C349 1.400 . S
C348 N346 1.263 . S
C348 N347 1.358 . S
C348 H354 0.930 . S
C349 N347 1.400 . S
C349 C350 1.351 . S
C349 H366 0.930 . S
C350 N346 1.389 . S
C350 C349 1.351 . S
C350 H355 0.930 . S
O351 Cu345 1.974 . S
O351 C361 1.282 . S
C352 O353 1.261 . S
C352 O365 1.251 . S
O353 C352 1.261 . S
H354 C348 0.930 . S
H355 C350 0.930 . S
N356 Cu345 1.985 . S
N356 C358 1.335 . S
N356 C359 1.390 . S
N357 C358 1.345 . S
N357 C360 1.336 . S
C358 N356 1.335 . S
C358 N357 1.345 . S
C358 H363 0.930 . S
C359 N356 1.390 . S
C359 C360 1.346 . S
C359 H364 0.930 . S
C360 N357 1.336 . S
C360 C359 1.346 . S
C360 H367 0.929 . S
C361 O351 1.282 . S
C361 O362 1.216 . S
O362 C361 1.216 . S
H363 C358 0.930 . S
H364 C359 0.930 . S
O365 Cu345 1.959 . S
O365 C352 1.251 . S
H366 C349 0.930 . S
H367 C360 0.929 . S
Cu368 N369 1.999 . S
Cu368 O374 1.974 . S
Cu368 N379 1.985 . S
Cu368 O388 1.959 . S
N369 Cu368 1.999 . S
N369 C371 1.263 . S
N369 C373 1.389 . S
N370 C371 1.358 . S
N370 C372 1.400 . S
C371 N369 1.263 . S
C371 N370 1.358 . S
C371 H377 0.930 . S
C372 N370 1.400 . S
C372 C373 1.351 . S
C372 H389 0.930 . S
C373 N369 1.389 . S
C373 C372 1.351 . S
C373 H378 0.930 . S
O374 Cu368 1.974 . S
O374 C384 1.282 . S
C375 O376 1.261 . S
C375 O388 1.251 . S
O376 C375 1.261 . S
H377 C371 0.930 . S
H378 C373 0.930 . S
N379 Cu368 1.985 . S
N379 C381 1.335 . S
N379 C382 1.390 . S
N380 C381 1.345 . S
N380 C383 1.336 . S
C381 N379 1.335 . S
C381 N380 1.345 . S
C381 H386 0.930 . S
C382 N379 1.390 . S
C382 C383 1.346 . S
C382 H387 0.930 . S
C383 N380 1.336 . S
C383 C382 1.346 . S
C383 H390 0.929 . S
C384 O374 1.282 . S
C384 O385 1.216 . S
O385 C384 1.216 . S
H386 C381 0.930 . S
H387 C382 0.930 . S
O388 Cu368 1.959 . S
O388 C375 1.251 . S
H389 C372 0.930 . S
H390 C383 0.929 . S
Cu391 N392 1.999 . S
Cu391 O397 1.974 . S
Cu391 N402 1.985 . S
Cu391 O411 1.959 . S
N392 Cu391 1.999 . S
N392 C394 1.263 . S
N392 C396 1.389 . S
N393 C394 1.358 . S
N393 C395 1.400 . S
C394 N392 1.263 . S
C394 N393 1.358 . S
C394 H400 0.930 . S
C395 N393 1.400 . S
C395 C396 1.351 . S
C395 H412 0.930 . S
C396 N392 1.389 . S
C396 C395 1.351 . S
C396 H401 0.930 . S
O397 Cu391 1.974 . S
O397 C407 1.282 . S
C398 O399 1.261 . S
C398 O411 1.251 . S
O399 C398 1.261 . S
H400 C394 0.930 . S
H401 C396 0.930 . S
N402 Cu391 1.985 . S
N402 C404 1.335 . S
N402 C405 1.390 . S
N403 C404 1.345 . S
N403 C406 1.336 . S
C404 N402 1.335 . S
C404 N403 1.345 . S
C404 H409 0.930 . S
C405 N402 1.390 . S
C405 C406 1.346 . S
C405 H410 0.930 . S
C406 N403 1.336 . S
C406 C405 1.346 . S
C406 H413 0.929 . S
C407 O397 1.282 . S
C407 O408 1.216 . S
O408 C407 1.216 . S
H409 C404 0.930 . S
H410 C405 0.930 . S
O411 Cu391 1.959 . S
O411 C398 1.251 . S
H412 C395 0.930 . S
H413 C406 0.929 . S
Cu414 N415 1.999 . S
Cu414 O420 1.974 . S
Cu414 N425 1.985 . S
Cu414 O434 1.959 . S
N415 Cu414 1.999 . S
N415 C417 1.263 . S
N415 C419 1.389 . S
N416 C417 1.358 . S
N416 C418 1.400 . S
C417 N415 1.263 . S
C417 N416 1.358 . S
C417 H423 0.930 . S
C418 N416 1.400 . S
C418 C419 1.351 . S
C418 H435 0.930 . S
C419 N415 1.389 . S
C419 C418 1.351 . S
C419 H424 0.930 . S
O420 Cu414 1.974 . S
O420 C430 1.282 . S
C421 O422 1.261 . S
C421 O434 1.251 . S
O422 C421 1.261 . S
H423 C417 0.930 . S
H424 C419 0.930 . S
N425 Cu414 1.985 . S
N425 C427 1.335 . S
N425 C428 1.390 . S
N426 C427 1.345 . S
N426 C429 1.336 . S
C427 N425 1.335 . S
C427 N426 1.345 . S
C427 H432 0.930 . S
C428 N425 1.390 . S
C428 C429 1.346 . S
C428 H433 0.930 . S
C429 N426 1.336 . S
C429 C428 1.346 . S
C429 H436 0.929 . S
C430 O420 1.282 . S
C430 O431 1.216 . S
O431 C430 1.216 . S
H432 C427 0.930 . S
H433 C428 0.930 . S
O434 Cu414 1.959 . S
O434 C421 1.251 . S
H435 C418 0.930 . S
H436 C429 0.929 . S
Cu437 N438 1.999 . S
Cu437 O443 1.974 . S
Cu437 N448 1.985 . S
Cu437 O457 1.959 . S
N438 Cu437 1.999 . S
N438 C440 1.263 . S
N438 C442 1.389 . S
N439 C440 1.358 . S
N439 C441 1.400 . S
C440 N438 1.263 . S
C440 N439 1.358 . S
C440 H446 0.930 . S
C441 N439 1.400 . S
C441 C442 1.351 . S
C441 H458 0.930 . S
C442 N438 1.389 . S
C442 C441 1.351 . S
C442 H447 0.930 . S
O443 Cu437 1.974 . S
O443 C453 1.282 . S
C444 O445 1.261 . S
C444 O457 1.251 . S
O445 C444 1.261 . S
H446 C440 0.930 . S
H447 C442 0.930 . S
N448 Cu437 1.985 . S
N448 C450 1.335 . S
N448 C451 1.390 . S
N449 C450 1.345 . S
N449 C452 1.336 . S
C450 N448 1.335 . S
C450 N449 1.345 . S
C450 H455 0.930 . S
C451 N448 1.390 . S
C451 C452 1.346 . S
C451 H456 0.930 . S
C452 N449 1.336 . S
C452 C451 1.346 . S
C452 H459 0.929 . S
C453 O443 1.282 . S
C453 O454 1.216 . S
O454 C453 1.216 . S
H455 C450 0.930 . S
H456 C451 0.930 . S
O457 Cu437 1.959 . S
O457 C444 1.251 . S
H458 C441 0.930 . S
H459 C452 0.929 . S
Cu460 N461 1.999 . S
Cu460 O466 1.974 . S
Cu460 N471 1.985 . S
Cu460 O480 1.959 . S
N461 Cu460 1.999 . S
N461 C463 1.263 . S
N461 C465 1.389 . S
N462 C463 1.358 . S
N462 C464 1.400 . S
C463 N461 1.263 . S
C463 N462 1.358 . S
C463 H469 0.930 . S
C464 N462 1.400 . S
C464 C465 1.351 . S
C464 H481 0.930 . S
C465 N461 1.389 . S
C465 C464 1.351 . S
C465 H470 0.930 . S
O466 Cu460 1.974 . S
O466 C476 1.282 . S
C467 O468 1.261 . S
C467 O480 1.251 . S
O468 C467 1.261 . S
H469 C463 0.930 . S
H470 C465 0.930 . S
N471 Cu460 1.985 . S
N471 C473 1.335 . S
N471 C474 1.390 . S
N472 C473 1.345 . S
N472 C475 1.336 . S
C473 N471 1.335 . S
C473 N472 1.345 . S
C473 H478 0.930 . S
C474 N471 1.390 . S
C474 C475 1.346 . S
C474 H479 0.930 . S
C475 N472 1.336 . S
C475 C474 1.346 . S
C475 H482 0.929 . S
C476 O466 1.282 . S
C476 O477 1.216 . S
O477 C476 1.216 . S
H478 C473 0.930 . S
H479 C474 0.930 . S
O480 Cu460 1.959 . S
O480 C467 1.251 . S
H481 C464 0.930 . S
H482 C475 0.929 . S
Cu483 N484 1.999 . S
Cu483 O489 1.974 . S
Cu483 N494 1.985 . S
Cu483 O503 1.959 . S
N484 Cu483 1.999 . S
N484 C486 1.263 . S
N484 C488 1.389 . S
N485 C486 1.358 . S
N485 C487 1.400 . S
C486 N484 1.263 . S
C486 N485 1.358 . S
C486 H492 0.930 . S
C487 N485 1.400 . S
C487 C488 1.351 . S
C487 H504 0.930 . S
C488 N484 1.389 . S
C488 C487 1.351 . S
C488 H493 0.930 . S
O489 Cu483 1.974 . S
O489 C499 1.282 . S
C490 O491 1.261 . S
C490 O503 1.251 . S
O491 C490 1.261 . S
H492 C486 0.930 . S
H493 C488 0.930 . S
N494 Cu483 1.985 . S
N494 C496 1.335 . S
N494 C497 1.390 . S
N495 C496 1.345 . S
N495 C498 1.336 . S
C496 N494 1.335 . S
C496 N495 1.345 . S
C496 H501 0.930 . S
C497 N494 1.390 . S
C497 C498 1.346 . S
C497 H502 0.930 . S
C498 N495 1.336 . S
C498 C497 1.346 . S
C498 H505 0.929 . S
C499 O489 1.282 . S
C499 O500 1.216 . S
O500 C499 1.216 . S
H501 C496 0.930 . S
H502 C497 0.930 . S
O503 Cu483 1.959 . S
O503 C490 1.251 . S
H504 C487 0.930 . S
H505 C498 0.929 . S
Cu506 N507 1.999 . S
Cu506 O512 1.974 . S
Cu506 N517 1.985 . S
Cu506 O526 1.959 . S
N507 Cu506 1.999 . S
N507 C509 1.263 . S
N507 C511 1.389 . S
N508 C509 1.358 . S
N508 C510 1.400 . S
C509 N507 1.263 . S
C509 N508 1.358 . S
C509 H515 0.930 . S
C510 N508 1.400 . S
C510 C511 1.351 . S
C510 H527 0.930 . S
C511 N507 1.389 . S
C511 C510 1.351 . S
C511 H516 0.930 . S
O512 Cu506 1.974 . S
O512 C522 1.282 . S
C513 O514 1.261 . S
C513 O526 1.251 . S
O514 C513 1.261 . S
H515 C509 0.930 . S
H516 C511 0.930 . S
N517 Cu506 1.985 . S
N517 C519 1.335 . S
N517 C520 1.390 . S
N518 C519 1.345 . S
N518 C521 1.336 . S
C519 N517 1.335 . S
C519 N518 1.345 . S
C519 H524 0.930 . S
C520 N517 1.390 . S
C520 C521 1.346 . S
C520 H525 0.930 . S
C521 N518 1.336 . S
C521 C520 1.346 . S
C521 H528 0.929 . S
C522 O512 1.282 . S
C522 O523 1.216 . S
O523 C522 1.216 . S
H524 C519 0.930 . S
H525 C520 0.930 . S
O526 Cu506 1.959 . S
O526 C513 1.251 . S
H527 C510 0.930 . S
H528 C521 0.929 . S
Cu529 N530 1.999 . S
Cu529 O535 1.974 . S
Cu529 N540 1.985 . S
Cu529 O549 1.959 . S
N530 Cu529 1.999 . S
N530 C532 1.263 . S
N530 C534 1.389 . S
N531 C532 1.358 . S
N531 C533 1.400 . S
C532 N530 1.263 . S
C532 N531 1.358 . S
C532 H538 0.930 . S
C533 N531 1.400 . S
C533 C534 1.351 . S
C533 H550 0.930 . S
C534 N530 1.389 . S
C534 C533 1.351 . S
C534 H539 0.930 . S
O535 Cu529 1.974 . S
O535 C545 1.282 . S
C536 O537 1.261 . S
C536 O549 1.251 . S
O537 C536 1.261 . S
H538 C532 0.930 . S
H539 C534 0.930 . S
N540 Cu529 1.985 . S
N540 C542 1.335 . S
N540 C543 1.390 . S
N541 C542 1.345 . S
N541 C544 1.336 . S
C542 N540 1.335 . S
C542 N541 1.345 . S
C542 H547 0.930 . S
C543 N540 1.390 . S
C543 C544 1.346 . S
C543 H548 0.930 . S
C544 N541 1.336 . S
C544 C543 1.346 . S
C544 H551 0.929 . S
C545 O535 1.282 . S
C545 O546 1.216 . S
O546 C545 1.216 . S
H547 C542 0.930 . S
H548 C543 0.930 . S
O549 Cu529 1.959 . S
O549 C536 1.251 . S
H550 C533 0.930 . S
H551 C544 0.929 . S
Cu552 N553 1.999 . S
Cu552 O558 1.974 . S
Cu552 N563 1.985 . S
Cu552 O572 1.959 . S
N553 Cu552 1.999 . S
N553 C555 1.263 . S
N553 C557 1.389 . S
N554 C555 1.358 . S
N554 C556 1.400 . S
C555 N553 1.263 . S
C555 N554 1.358 . S
C555 H561 0.930 . S
C556 N554 1.400 . S
C556 C557 1.351 . S
C556 H573 0.930 . S
C557 N553 1.389 . S
C557 C556 1.351 . S
C557 H562 0.930 . S
O558 Cu552 1.974 . S
O558 C568 1.282 . S
C559 O560 1.261 . S
C559 O572 1.251 . S
O560 C559 1.261 . S
H561 C555 0.930 . S
H562 C557 0.930 . S
N563 Cu552 1.985 . S
N563 C565 1.335 . S
N563 C566 1.390 . S
N564 C565 1.345 . S
N564 C567 1.336 . S
C565 N563 1.335 . S
C565 N564 1.345 . S
C565 H570 0.930 . S
C566 N563 1.390 . S
C566 C567 1.346 . S
C566 H571 0.930 . S
C567 N564 1.336 . S
C567 C566 1.346 . S
C567 H574 0.929 . S
C568 O558 1.282 . S
C568 O569 1.216 . S
O569 C568 1.216 . S
H570 C565 0.930 . S
H571 C566 0.930 . S
O572 Cu552 1.959 . S
O572 C559 1.251 . S
H573 C556 0.930 . S
H574 C567 0.929 . S
Cu575 N576 1.999 . S
Cu575 O581 1.974 . S
Cu575 N586 1.985 . S
Cu575 O595 1.959 . S
N576 Cu575 1.999 . S
N576 C578 1.263 . S
N576 C580 1.389 . S
N577 C578 1.358 . S
N577 C579 1.400 . S
C578 N576 1.263 . S
C578 N577 1.358 . S
C578 H584 0.930 . S
C579 N577 1.400 . S
C579 C580 1.351 . S
C579 H596 0.930 . S
C580 N576 1.389 . S
C580 C579 1.351 . S
C580 H585 0.930 . S
O581 Cu575 1.974 . S
O581 C591 1.282 . S
C582 O583 1.261 . S
C582 O595 1.251 . S
O583 C582 1.261 . S
H584 C578 0.930 . S
H585 C580 0.930 . S
N586 Cu575 1.985 . S
N586 C588 1.335 . S
N586 C589 1.390 . S
N587 C588 1.345 . S
N587 C590 1.336 . S
C588 N586 1.335 . S
C588 N587 1.345 . S
C588 H593 0.930 . S
C589 N586 1.390 . S
C589 C590 1.346 . S
C589 H594 0.930 . S
C590 N587 1.336 . S
C590 C589 1.346 . S
C590 H597 0.929 . S
C591 O581 1.282 . S
C591 O592 1.216 . S
O592 C591 1.216 . S
H593 C588 0.930 . S
H594 C589 0.930 . S
O595 Cu575 1.959 . S
O595 C582 1.251 . S
H596 C579 0.930 . S
H597 C590 0.929 . S
Cu598 N599 1.999 . S
Cu598 O604 1.974 . S
Cu598 N609 1.985 . S
Cu598 O618 1.959 . S
N599 Cu598 1.999 . S
N599 C601 1.263 . S
N599 C603 1.389 . S
N600 C601 1.358 . S
N600 C602 1.400 . S
C601 N599 1.263 . S
C601 N600 1.358 . S
C601 H607 0.930 . S
C602 N600 1.400 . S
C602 C603 1.351 . S
C602 H619 0.930 . S
C603 N599 1.389 . S
C603 C602 1.351 . S
C603 H608 0.930 . S
O604 Cu598 1.974 . S
O604 C614 1.282 . S
C605 O606 1.261 . S
C605 O618 1.251 . S
O606 C605 1.261 . S
H607 C601 0.930 . S
H608 C603 0.930 . S
N609 Cu598 1.985 . S
N609 C611 1.335 . S
N609 C612 1.390 . S
N610 C611 1.345 . S
N610 C613 1.336 . S
C611 N609 1.335 . S
C611 N610 1.345 . S
C611 H616 0.930 . S
C612 N609 1.390 . S
C612 C613 1.346 . S
C612 H617 0.930 . S
C613 N610 1.336 . S
C613 C612 1.346 . S
C613 H620 0.929 . S
C614 O604 1.282 . S
C614 O615 1.216 . S
O615 C614 1.216 . S
H616 C611 0.930 . S
H617 C612 0.930 . S
O618 Cu598 1.959 . S
O618 C605 1.251 . S
H619 C602 0.930 . S
H620 C613 0.929 . S
Cu621 N622 1.999 . S
Cu621 O627 1.974 . S
Cu621 N632 1.985 . S
Cu621 O641 1.959 . S
N622 Cu621 1.999 . S
N622 C624 1.263 . S
N622 C626 1.389 . S
N623 C624 1.358 . S
N623 C625 1.400 . S
C624 N622 1.263 . S
C624 N623 1.358 . S
C624 H630 0.930 . S
C625 N623 1.400 . S
C625 C626 1.351 . S
C625 H642 0.930 . S
C626 N622 1.389 . S
C626 C625 1.351 . S
C626 H631 0.930 . S
O627 Cu621 1.974 . S
O627 C637 1.282 . S
C628 O629 1.261 . S
C628 O641 1.251 . S
O629 C628 1.261 . S
H630 C624 0.930 . S
H631 C626 0.930 . S
N632 Cu621 1.985 . S
N632 C634 1.335 . S
N632 C635 1.390 . S
N633 C634 1.345 . S
N633 C636 1.336 . S
C634 N632 1.335 . S
C634 N633 1.345 . S
C634 H639 0.930 . S
C635 N632 1.390 . S
C635 C636 1.346 . S
C635 H640 0.930 . S
C636 N633 1.336 . S
C636 C635 1.346 . S
C636 H643 0.929 . S
C637 O627 1.282 . S
C637 O638 1.216 . S
O638 C637 1.216 . S
H639 C634 0.930 . S
H640 C635 0.930 . S
O641 Cu621 1.959 . S
O641 C628 1.251 . S
H642 C625 0.930 . S
H643 C636 0.929 . S
Cu644 N645 1.999 . S
Cu644 O650 1.974 . S
Cu644 N655 1.985 . S
Cu644 O664 1.959 . S
N645 Cu644 1.999 . S
N645 C647 1.263 . S
N645 C649 1.389 . S
N646 C647 1.358 . S
N646 C648 1.400 . S
C647 N645 1.263 . S
C647 N646 1.358 . S
C647 H653 0.930 . S
C648 N646 1.400 . S
C648 C649 1.351 . S
C648 H665 0.930 . S
C649 N645 1.389 . S
C649 C648 1.351 . S
C649 H654 0.930 . S
O650 Cu644 1.974 . S
O650 C660 1.282 . S
C651 O652 1.261 . S
C651 O664 1.251 . S
O652 C651 1.261 . S
H653 C647 0.930 . S
H654 C649 0.930 . S
N655 Cu644 1.985 . S
N655 C657 1.335 . S
N655 C658 1.390 . S
N656 C657 1.345 . S
N656 C659 1.336 . S
C657 N655 1.335 . S
C657 N656 1.345 . S
C657 H662 0.930 . S
C658 N655 1.390 . S
C658 C659 1.346 . S
C658 H663 0.930 . S
C659 N656 1.336 . S
C659 C658 1.346 . S
C659 H666 0.929 . S
C660 O650 1.282 . S
C660 O661 1.216 . S
O661 C660 1.216 . S
H662 C657 0.930 . S
H663 C658 0.930 . S
O664 Cu644 1.959 . S
O664 C651 1.251 . S
H665 C648 0.930 . S
H666 C659 0.929 . S
Cu667 N668 1.999 . S
Cu667 O673 1.974 . S
Cu667 N678 1.985 . S
Cu667 O687 1.959 . S
N668 Cu667 1.999 . S
N668 C670 1.263 . S
N668 C672 1.389 . S
N669 C670 1.358 . S
N669 C671 1.400 . S
C670 N668 1.263 . S
C670 N669 1.358 . S
C670 H676 0.930 . S
C671 N669 1.400 . S
C671 C672 1.351 . S
C671 H688 0.930 . S
C672 N668 1.389 . S
C672 C671 1.351 . S
C672 H677 0.930 . S
O673 Cu667 1.974 . S
O673 C683 1.282 . S
C674 O675 1.261 . S
C674 O687 1.251 . S
O675 C674 1.261 . S
H676 C670 0.930 . S
H677 C672 0.930 . S
N678 Cu667 1.985 . S
N678 C680 1.335 . S
N678 C681 1.390 . S
N679 C680 1.345 . S
N679 C682 1.336 . S
C680 N678 1.335 . S
C680 N679 1.345 . S
C680 H685 0.930 . S
C681 N678 1.390 . S
C681 C682 1.346 . S
C681 H686 0.930 . S
C682 N679 1.336 . S
C682 C681 1.346 . S
C682 H689 0.929 . S
C683 O673 1.282 . S
C683 O684 1.216 . S
O684 C683 1.216 . S
H685 C680 0.930 . S
H686 C681 0.930 . S
O687 Cu667 1.959 . S
O687 C674 1.251 . S
H688 C671 0.930 . S
H689 C682 0.929 . S
Cu690 N691 1.999 . S
Cu690 O696 1.974 . S
Cu690 N701 1.985 . S
Cu690 O710 1.959 . S
N691 Cu690 1.999 . S
N691 C693 1.263 . S
N691 C695 1.389 . S
N692 C693 1.358 . S
N692 C694 1.400 . S
C693 N691 1.263 . S
C693 N692 1.358 . S
C693 H699 0.930 . S
C694 N692 1.400 . S
C694 C695 1.351 . S
C694 H711 0.930 . S
C695 N691 1.389 . S
C695 C694 1.351 . S
C695 H700 0.930 . S
O696 Cu690 1.974 . S
O696 C706 1.282 . S
C697 O698 1.261 . S
C697 O710 1.251 . S
O698 C697 1.261 . S
H699 C693 0.930 . S
H700 C695 0.930 . S
N701 Cu690 1.985 . S
N701 C703 1.335 . S
N701 C704 1.390 . S
N702 C703 1.345 . S
N702 C705 1.336 . S
C703 N701 1.335 . S
C703 N702 1.345 . S
C703 H708 0.930 . S
C704 N701 1.390 . S
C704 C705 1.346 . S
C704 H709 0.930 . S
C705 N702 1.336 . S
C705 C704 1.346 . S
C705 H712 0.929 . S
C706 O696 1.282 . S
C706 O707 1.216 . S
O707 C706 1.216 . S
H708 C703 0.930 . S
H709 C704 0.930 . S
O710 Cu690 1.959 . S
O710 C697 1.251 . S
H711 C694 0.930 . S
H712 C705 0.929 . S
Cu713 N714 1.999 . S
Cu713 O719 1.974 . S
Cu713 N724 1.985 . S
Cu713 O733 1.959 . S
N714 Cu713 1.999 . S
N714 C716 1.263 . S
N714 C718 1.389 . S
N715 C716 1.358 . S
N715 C717 1.400 . S
C716 N714 1.263 . S
C716 N715 1.358 . S
C716 H722 0.930 . S
C717 N715 1.400 . S
C717 C718 1.351 . S
C717 H734 0.930 . S
C718 N714 1.389 . S
C718 C717 1.351 . S
C718 H723 0.930 . S
O719 Cu713 1.974 . S
O719 C729 1.282 . S
C720 O721 1.261 . S
C720 O733 1.251 . S
O721 C720 1.261 . S
H722 C716 0.930 . S
H723 C718 0.930 . S
N724 Cu713 1.985 . S
N724 C726 1.335 . S
N724 C727 1.390 . S
N725 C726 1.345 . S
N725 C728 1.336 . S
C726 N724 1.335 . S
C726 N725 1.345 . S
C726 H731 0.930 . S
C727 N724 1.390 . S
C727 C728 1.346 . S
C727 H732 0.930 . S
C728 N725 1.336 . S
C728 C727 1.346 . S
C728 H735 0.929 . S
C729 O719 1.282 . S
C729 O730 1.216 . S
O730 C729 1.216 . S
H731 C726 0.930 . S
H732 C727 0.930 . S
O733 Cu713 1.959 . S
O733 C720 1.251 . S
H734 C717 0.930 . S
H735 C728 0.929 . S
H736 C742 0.930 . S
H737 C745 0.930 . S
H738 C746 0.930 . S
H739 C747 0.930 . S
H740 C750 0.930 . S
H741 C751 0.930 . S
C742 H736 0.930 . S
C742 C743 1.355 . S
C742 C744 1.415 . S
C743 C742 1.355 . S
C743 C745 1.419 . S
C744 C742 1.415 . S
C744 C749 1.425 . S
C744 C751 1.409 . S
C745 H737 0.930 . S
C745 C743 1.419 . S
C745 C746 1.362 . S
C746 H738 0.930 . S
C746 C745 1.362 . S
C746 C749 1.409 . S
C747 H739 0.930 . S
C747 C748 1.355 . S
C747 C749 1.415 . S
C748 C747 1.355 . S
C748 C750 1.419 . S
C749 C744 1.425 . S
C749 C746 1.409 . S
C749 C747 1.415 . S
C750 H740 0.930 . S
C750 C748 1.419 . S
C750 C751 1.362 . S
C751 H741 0.930 . S
C751 C744 1.409 . S
C751 C750 1.362 . S
H752 C758 0.930 . S
H753 C761 0.930 . S
H754 C762 0.930 . S
H755 C763 0.930 . S
H756 C766 0.930 . S
H757 C767 0.930 . S
C758 H752 0.930 . S
C758 C759 1.355 . S
C758 C760 1.415 . S
C759 C758 1.355 . S
C759 C761 1.419 . S
C760 C758 1.415 . S
C760 C765 1.425 . S
C760 C767 1.409 . S
C761 H753 0.930 . S
C761 C759 1.419 . S
C761 C762 1.362 . S
C762 H754 0.930 . S
C762 C761 1.362 . S
C762 C765 1.409 . S
C763 H755 0.930 . S
C763 C764 1.355 . S
C763 C765 1.415 . S
C764 C763 1.355 . S
C764 C766 1.419 . S
C765 C760 1.425 . S
C765 C762 1.409 . S
C765 C763 1.415 . S
C766 H756 0.930 . S
C766 C764 1.419 . S
C766 C767 1.362 . S
C767 H757 0.930 . S
C767 C760 1.409 . S
C767 C766 1.362 . S
H768 C774 0.930 . S
H769 C777 0.930 . S
H770 C778 0.930 . S
H771 C779 0.930 . S
H772 C782 0.930 . S
H773 C783 0.930 . S
C774 H768 0.930 . S
C774 C775 1.355 . S
C774 C776 1.415 . S
C775 C774 1.355 . S
C775 C777 1.419 . S
C776 C774 1.415 . S
C776 C781 1.425 . S
C776 C783 1.409 . S
C777 H769 0.930 . S
C777 C775 1.419 . S
C777 C778 1.362 . S
C778 H770 0.930 . S
C778 C777 1.362 . S
C778 C781 1.409 . S
C779 H771 0.930 . S
C779 C780 1.355 . S
C779 C781 1.415 . S
C780 C779 1.355 . S
C780 C782 1.419 . S
C781 C776 1.425 . S
C781 C778 1.409 . S
C781 C779 1.415 . S
C782 H772 0.930 . S
C782 C780 1.419 . S
C782 C783 1.362 . S
C783 H773 0.930 . S
C783 C776 1.409 . S
C783 C782 1.362 . S
H784 C790 0.930 . S
H785 C793 0.930 . S
H786 C794 0.930 . S
H787 C795 0.930 . S
H788 C798 0.930 . S
H789 C799 0.930 . S
C790 H784 0.930 . S
C790 C791 1.355 . S
C790 C792 1.415 . S
C791 C790 1.355 . S
C791 C793 1.419 . S
C792 C790 1.415 . S
C792 C797 1.425 . S
C792 C799 1.409 . S
C793 H785 0.930 . S
C793 C791 1.419 . S
C793 C794 1.362 . S
C794 H786 0.930 . S
C794 C793 1.362 . S
C794 C797 1.409 . S
C795 H787 0.930 . S
C795 C796 1.355 . S
C795 C797 1.415 . S
C796 C795 1.355 . S
C796 C798 1.419 . S
C797 C792 1.425 . S
C797 C794 1.409 . S
C797 C795 1.415 . S
C798 H788 0.930 . S
C798 C796 1.419 . S
C798 C799 1.362 . S
C799 H789 0.930 . S
C799 C792 1.409 . S
C799 C798 1.362 . S
H800 C806 0.930 . S
H801 C809 0.930 . S
H802 C810 0.930 . S
H803 C811 0.930 . S
H804 C814 0.930 . S
H805 C815 0.930 . S
C806 H800 0.930 . S
C806 C807 1.355 . S
C806 C808 1.415 . S
C807 C806 1.355 . S
C807 C809 1.419 . S
C808 C806 1.415 . S
C808 C813 1.425 . S
C808 C815 1.409 . S
C809 H801 0.930 . S
C809 C807 1.419 . S
C809 C810 1.362 . S
C810 H802 0.930 . S
C810 C809 1.362 . S
C810 C813 1.409 . S
C811 H803 0.930 . S
C811 C812 1.355 . S
C811 C813 1.415 . S
C812 C811 1.355 . S
C812 C814 1.419 . S
C813 C808 1.425 . S
C813 C810 1.409 . S
C813 C811 1.415 . S
C814 H804 0.930 . S
C814 C812 1.419 . S
C814 C815 1.362 . S
C815 H805 0.930 . S
C815 C808 1.409 . S
C815 C814 1.362 . S
H816 C822 0.930 . S
H817 C825 0.930 . S
H818 C826 0.930 . S
H819 C827 0.930 . S
H820 C830 0.930 . S
H821 C831 0.930 . S
C822 H816 0.930 . S
C822 C823 1.355 . S
C822 C824 1.415 . S
C823 C822 1.355 . S
C823 C825 1.419 . S
C824 C822 1.415 . S
C824 C829 1.425 . S
C824 C831 1.409 . S
C825 H817 0.930 . S
C825 C823 1.419 . S
C825 C826 1.362 . S
C826 H818 0.930 . S
C826 C825 1.362 . S
C826 C829 1.409 . S
C827 H819 0.930 . S
C827 C828 1.355 . S
C827 C829 1.415 . S
C828 C827 1.355 . S
C828 C830 1.419 . S
C829 C824 1.425 . S
C829 C826 1.409 . S
C829 C827 1.415 . S
C830 H820 0.930 . S
C830 C828 1.419 . S
C830 C831 1.362 . S
C831 H821 0.930 . S
C831 C824 1.409 . S
C831 C830 1.362 . S
H832 C838 0.930 . S
H833 C841 0.930 . S
H834 C842 0.930 . S
H835 C843 0.930 . S
H836 C846 0.930 . S
H837 C847 0.930 . S
C838 H832 0.930 . S
C838 C839 1.355 . S
C838 C840 1.415 . S
C839 C838 1.355 . S
C839 C841 1.419 . S
C840 C838 1.415 . S
C840 C845 1.425 . S
C840 C847 1.409 . S
C841 H833 0.930 . S
C841 C839 1.419 . S
C841 C842 1.362 . S
C842 H834 0.930 . S
C842 C841 1.362 . S
C842 C845 1.409 . S
C843 H835 0.930 . S
C843 C844 1.355 . S
C843 C845 1.415 . S
C844 C843 1.355 . S
C844 C846 1.419 . S
C845 C840 1.425 . S
C845 C842 1.409 . S
C845 C843 1.415 . S
C846 H836 0.930 . S
C846 C844 1.419 . S
C846 C847 1.362 . S
C847 H837 0.930 . S
C847 C840 1.409 . S
C847 C846 1.362 . S
H848 C854 0.930 . S
H849 C857 0.930 . S
H850 C858 0.930 . S
H851 C859 0.930 . S
H852 C862 0.930 . S
H853 C863 0.930 . S
C854 H848 0.930 . S
C854 C855 1.355 . S
C854 C856 1.415 . S
C855 C854 1.355 . S
C855 C857 1.419 . S
C856 C854 1.415 . S
C856 C861 1.425 . S
C856 C863 1.409 . S
C857 H849 0.930 . S
C857 C855 1.419 . S
C857 C858 1.362 . S
C858 H850 0.930 . S
C858 C857 1.362 . S
C858 C861 1.409 . S
C859 H851 0.930 . S
C859 C860 1.355 . S
C859 C861 1.415 . S
C860 C859 1.355 . S
C860 C862 1.419 . S
C861 C856 1.425 . S
C861 C858 1.409 . S
C861 C859 1.415 . S
C862 H852 0.930 . S
C862 C860 1.419 . S
C862 C863 1.362 . S
C863 H853 0.930 . S
C863 C856 1.409 . S
C863 C862 1.362 . S
H864 C870 0.930 . S
H865 C873 0.930 . S
H866 C874 0.930 . S
H867 C875 0.930 . S
H868 C878 0.930 . S
H869 C879 0.930 . S
C870 H864 0.930 . S
C870 C871 1.355 . S
C870 C872 1.415 . S
C871 C870 1.355 . S
C871 C873 1.419 . S
C872 C870 1.415 . S
C872 C877 1.425 . S
C872 C879 1.409 . S
C873 H865 0.930 . S
C873 C871 1.419 . S
C873 C874 1.362 . S
C874 H866 0.930 . S
C874 C873 1.362 . S
C874 C877 1.409 . S
C875 H867 0.930 . S
C875 C876 1.355 . S
C875 C877 1.415 . S
C876 C875 1.355 . S
C876 C878 1.419 . S
C877 C872 1.425 . S
C877 C874 1.409 . S
C877 C875 1.415 . S
C878 H868 0.930 . S
C878 C876 1.419 . S
C878 C879 1.362 . S
C879 H869 0.930 . S
C879 C872 1.409 . S
C879 C878 1.362 . S
H880 C886 0.930 . S
H881 C889 0.930 . S
H882 C890 0.930 . S
H883 C891 0.930 . S
H884 C894 0.930 . S
H885 C895 0.930 . S
C886 H880 0.930 . S
C886 C887 1.355 . S
C886 C888 1.415 . S
C887 C886 1.355 . S
C887 C889 1.419 . S
C888 C886 1.415 . S
C888 C893 1.425 . S
C888 C895 1.409 . S
C889 H881 0.930 . S
C889 C887 1.419 . S
C889 C890 1.362 . S
C890 H882 0.930 . S
C890 C889 1.362 . S
C890 C893 1.409 . S
C891 H883 0.930 . S
C891 C892 1.355 . S
C891 C893 1.415 . S
C892 C891 1.355 . S
C892 C894 1.419 . S
C893 C888 1.425 . S
C893 C890 1.409 . S
C893 C891 1.415 . S
C894 H884 0.930 . S
C894 C892 1.419 . S
C894 C895 1.362 . S
C895 H885 0.930 . S
C895 C888 1.409 . S
C895 C894 1.362 . S
H896 C902 0.930 . S
H897 C905 0.930 . S
H898 C906 0.930 . S
H899 C907 0.930 . S
H900 C910 0.930 . S
H901 C911 0.930 . S
C902 H896 0.930 . S
C902 C903 1.355 . S
C902 C904 1.415 . S
C903 C902 1.355 . S
C903 C905 1.419 . S
C904 C902 1.415 . S
C904 C909 1.425 . S
C904 C911 1.409 . S
C905 H897 0.930 . S
C905 C903 1.419 . S
C905 C906 1.362 . S
C906 H898 0.930 . S
C906 C905 1.362 . S
C906 C909 1.409 . S
C907 H899 0.930 . S
C907 C908 1.355 . S
C907 C909 1.415 . S
C908 C907 1.355 . S
C908 C910 1.419 . S
C909 C904 1.425 . S
C909 C906 1.409 . S
C909 C907 1.415 . S
C910 H900 0.930 . S
C910 C908 1.419 . S
C910 C911 1.362 . S
C911 H901 0.930 . S
C911 C904 1.409 . S
C911 C910 1.362 . S
H912 C918 0.930 . S
H913 C921 0.930 . S
H914 C922 0.930 . S
H915 C923 0.930 . S
H916 C926 0.930 . S
H917 C927 0.930 . S
C918 H912 0.930 . S
C918 C919 1.355 . S
C918 C920 1.415 . S
C919 C918 1.355 . S
C919 C921 1.419 . S
C920 C918 1.415 . S
C920 C925 1.425 . S
C920 C927 1.409 . S
C921 H913 0.930 . S
C921 C919 1.419 . S
C921 C922 1.362 . S
C922 H914 0.930 . S
C922 C921 1.362 . S
C922 C925 1.409 . S
C923 H915 0.930 . S
C923 C924 1.355 . S
C923 C925 1.415 . S
C924 C923 1.355 . S
C924 C926 1.419 . S
C925 C920 1.425 . S
C925 C922 1.409 . S
C925 C923 1.415 . S
C926 H916 0.930 . S
C926 C924 1.419 . S
C926 C927 1.362 . S
C927 H917 0.930 . S
C927 C920 1.409 . S
C927 C926 1.362 . S
H928 C934 0.930 . S
H929 C937 0.930 . S
H930 C938 0.930 . S
H931 C939 0.930 . S
H932 C942 0.930 . S
H933 C943 0.930 . S
C934 H928 0.930 . S
C934 C935 1.355 . S
C934 C936 1.415 . S
C935 C934 1.355 . S
C935 C937 1.419 . S
C936 C934 1.415 . S
C936 C941 1.425 . S
C936 C943 1.409 . S
C937 H929 0.930 . S
C937 C935 1.419 . S
C937 C938 1.362 . S
C938 H930 0.930 . S
C938 C937 1.362 . S
C938 C941 1.409 . S
C939 H931 0.930 . S
C939 C940 1.355 . S
C939 C941 1.415 . S
C940 C939 1.355 . S
C940 C942 1.419 . S
C941 C936 1.425 . S
C941 C938 1.409 . S
C941 C939 1.415 . S
C942 H932 0.930 . S
C942 C940 1.419 . S
C942 C943 1.362 . S
C943 H933 0.930 . S
C943 C936 1.409 . S
C943 C942 1.362 . S
H944 C950 0.930 . S
H945 C953 0.930 . S
H946 C954 0.930 . S
H947 C955 0.930 . S
H948 C958 0.930 . S
H949 C959 0.930 . S
C950 H944 0.930 . S
C950 C951 1.355 . S
C950 C952 1.415 . S
C951 C950 1.355 . S
C951 C953 1.419 . S
C952 C950 1.415 . S
C952 C957 1.425 . S
C952 C959 1.409 . S
C953 H945 0.930 . S
C953 C951 1.419 . S
C953 C954 1.362 . S
C954 H946 0.930 . S
C954 C953 1.362 . S
C954 C957 1.409 . S
C955 H947 0.930 . S
C955 C956 1.355 . S
C955 C957 1.415 . S
C956 C955 1.355 . S
C956 C958 1.419 . S
C957 C952 1.425 . S
C957 C954 1.409 . S
C957 C955 1.415 . S
C958 H948 0.930 . S
C958 C956 1.419 . S
C958 C959 1.362 . S
C959 H949 0.930 . S
C959 C952 1.409 . S
C959 C958 1.362 . S
H960 C966 0.930 . S
H961 C969 0.930 . S
H962 C970 0.930 . S
H963 C971 0.930 . S
H964 C974 0.930 . S
H965 C975 0.930 . S
C966 H960 0.930 . S
C966 C967 1.355 . S
C966 C968 1.415 . S
C967 C966 1.355 . S
C967 C969 1.419 . S
C968 C966 1.415 . S
C968 C973 1.425 . S
C968 C975 1.409 . S
C969 H961 0.930 . S
C969 C967 1.419 . S
C969 C970 1.362 . S
C970 H962 0.930 . S
C970 C969 1.362 . S
C970 C973 1.409 . S
C971 H963 0.930 . S
C971 C972 1.355 . S
C971 C973 1.415 . S
C972 C971 1.355 . S
C972 C974 1.419 . S
C973 C968 1.425 . S
C973 C970 1.409 . S
C973 C971 1.415 . S
C974 H964 0.930 . S
C974 C972 1.419 . S
C974 C975 1.362 . S
C975 H965 0.930 . S
C975 C968 1.409 . S
C975 C974 1.362 . S
H976 C982 0.930 . S
H977 C985 0.930 . S
H978 C986 0.930 . S
H979 C987 0.930 . S
H980 C990 0.930 . S
H981 C991 0.930 . S
C982 H976 0.930 . S
C982 C983 1.355 . S
C982 C984 1.415 . S
C983 C982 1.355 . S
C983 C985 1.419 . S
C984 C982 1.415 . S
C984 C989 1.425 . S
C984 C991 1.409 . S
C985 H977 0.930 . S
C985 C983 1.419 . S
C985 C986 1.362 . S
C986 H978 0.930 . S
C986 C985 1.362 . S
C986 C989 1.409 . S
C987 H979 0.930 . S
C987 C988 1.355 . S
C987 C989 1.415 . S
C988 C987 1.355 . S
C988 C990 1.419 . S
C989 C984 1.425 . S
C989 C986 1.409 . S
C989 C987 1.415 . S
C990 H980 0.930 . S
C990 C988 1.419 . S
C990 C991 1.362 . S
C991 H981 0.930 . S
C991 C984 1.409 . S
C991 C990 1.362 . S
H992 C998 0.930 . S
H993 C1001 0.930 . S
H994 C1002 0.930 . S
H995 C1003 0.930 . S
H996 C1006 0.930 . S
H997 C1007 0.930 . S
C998 H992 0.930 . S
C998 C999 1.355 . S
C998 C1000 1.415 . S
C999 C998 1.355 . S
C999 C1001 1.419 . S
C1000 C998 1.415 . S
C1000 C1005 1.425 1_655 S
C1000 C1007 1.409 1_655 S
C1001 H993 0.930 . S
C1001 C999 1.419 . S
C1001 C1002 1.362 . S
C1002 H994 0.930 . S
C1002 C1001 1.362 . S
C1002 C1005 1.409 1_655 S
C1003 H995 0.930 . S
C1003 C1004 1.355 . S
C1003 C1005 1.415 . S
C1004 C1003 1.355 . S
C1004 C1006 1.419 . S
C1005 C1000 1.425 1_455 S
C1005 C1002 1.409 1_455 S
C1005 C1003 1.415 . S
C1006 H996 0.930 . S
C1006 C1004 1.419 . S
C1006 C1007 1.362 . S
C1007 H997 0.930 . S
C1007 C1000 1.409 1_455 S
C1007 C1006 1.362 . S
H1008 C1014 0.930 . S
H1009 C1017 0.930 . S
H1010 C1018 0.930 . S
H1011 C1019 0.930 . S
H1012 C1022 0.930 . S
H1013 C1023 0.930 . S
C1014 H1008 0.930 . S
C1014 C1015 1.355 . S
C1014 C1016 1.415 . S
C1015 C1014 1.355 . S
C1015 C1017 1.419 . S
C1016 C1014 1.415 . S
C1016 C1021 1.425 1_545 S
C1016 C1023 1.409 1_545 S
C1017 H1009 0.930 . S
C1017 C1015 1.419 . S
C1017 C1018 1.362 . S
C1018 H1010 0.930 . S
C1018 C1017 1.362 . S
C1018 C1021 1.409 1_545 S
C1019 H1011 0.930 . S
C1019 C1020 1.355 . S
C1019 C1021 1.415 . S
C1020 C1019 1.355 . S
C1020 C1022 1.419 . S
C1021 C1016 1.425 1_565 S
C1021 C1018 1.409 1_565 S
C1021 C1019 1.415 . S
C1022 H1012 0.930 . S
C1022 C1020 1.419 . S
C1022 C1023 1.362 . S
C1023 H1013 0.930 . S
C1023 C1016 1.409 1_565 S
C1023 C1022 1.362 . S
H1024 C1030 0.930 . S
H1025 C1033 0.930 . S
H1026 C1034 0.930 . S
H1027 C1035 0.930 . S
H1028 C1038 0.930 . S
H1029 C1039 0.930 . S
C1030 H1024 0.930 . S
C1030 C1031 1.355 . S
C1030 C1032 1.415 . S
C1031 C1030 1.355 . S
C1031 C1033 1.419 . S
C1032 C1030 1.415 . S
C1032 C1037 1.425 1_455 S
C1032 C1039 1.409 1_455 S
C1033 H1025 0.930 . S
C1033 C1031 1.419 . S
C1033 C1034 1.362 . S
C1034 H1026 0.930 . S
C1034 C1033 1.362 . S
C1034 C1037 1.409 1_455 S
C1035 H1027 0.930 . S
C1035 C1036 1.355 . S
C1035 C1037 1.415 . S
C1036 C1035 1.355 . S
C1036 C1038 1.419 . S
C1037 C1032 1.425 1_655 S
C1037 C1034 1.409 1_655 S
C1037 C1035 1.415 . S
C1038 H1028 0.930 . S
C1038 C1036 1.419 . S
C1038 C1039 1.362 . S
C1039 H1029 0.930 . S
C1039 C1032 1.409 1_655 S
C1039 C1038 1.362 . S
H1040 C1046 0.930 . S
H1041 C1049 0.930 . S
H1042 C1050 0.930 . S
H1043 C1051 0.930 . S
H1044 C1054 0.930 . S
H1045 C1055 0.930 . S
C1046 H1040 0.930 . S
C1046 C1047 1.355 . S
C1046 C1048 1.415 . S
C1047 C1046 1.355 . S
C1047 C1049 1.419 . S
C1048 C1046 1.415 . S
C1048 C1053 1.425 1_565 S
C1048 C1055 1.409 1_565 S
C1049 H1041 0.930 . S
C1049 C1047 1.419 . S
C1049 C1050 1.362 . S
C1050 H1042 0.930 . S
C1050 C1049 1.362 . S
C1050 C1053 1.409 1_565 S
C1051 H1043 0.930 . S
C1051 C1052 1.355 . S
C1051 C1053 1.415 . S
C1052 C1051 1.355 . S
C1052 C1054 1.419 . S
C1053 C1048 1.425 1_545 S
C1053 C1050 1.409 1_545 S
C1053 C1051 1.415 . S
C1054 H1044 0.930 . S
C1054 C1052 1.419 . S
C1054 C1055 1.362 . S
C1055 H1045 0.930 . S
C1055 C1048 1.409 1_545 S
C1055 C1054 1.362 . S
H1056 C1062 0.930 . S
H1057 C1065 0.930 . S
H1058 C1066 0.930 . S
H1059 C1067 0.930 . S
H1060 C1070 0.930 . S
H1061 C1071 0.930 . S
C1062 H1056 0.930 . S
C1062 C1063 1.355 . S
C1062 C1064 1.415 . S
C1063 C1062 1.355 . S
C1063 C1065 1.419 . S
C1064 C1062 1.415 . S
C1064 C1069 1.425 1_455 S
C1064 C1071 1.409 1_455 S
C1065 H1057 0.930 . S
C1065 C1063 1.419 . S
C1065 C1066 1.362 . S
C1066 H1058 0.930 . S
C1066 C1065 1.362 . S
C1066 C1069 1.409 1_455 S
C1067 H1059 0.930 . S
C1067 C1068 1.355 . S
C1067 C1069 1.415 . S
C1068 C1067 1.355 . S
C1068 C1070 1.419 . S
C1069 C1064 1.425 1_655 S
C1069 C1066 1.409 1_655 S
C1069 C1067 1.415 . S
C1070 H1060 0.930 . S
C1070 C1068 1.419 . S
C1070 C1071 1.362 . S
C1071 H1061 0.930 . S
C1071 C1064 1.409 1_655 S
C1071 C1070 1.362 . S
H1072 C1078 0.930 . S
H1073 C1081 0.930 . S
H1074 C1082 0.930 . S
H1075 C1083 0.930 . S
H1076 C1086 0.930 . S
H1077 C1087 0.930 . S
C1078 H1072 0.930 . S
C1078 C1079 1.355 . S
C1078 C1080 1.415 . S
C1079 C1078 1.355 . S
C1079 C1081 1.419 . S
C1080 C1078 1.415 . S
C1080 C1085 1.425 1_565 S
C1080 C1087 1.409 1_565 S
C1081 H1073 0.930 . S
C1081 C1079 1.419 . S
C1081 C1082 1.362 . S
C1082 H1074 0.930 . S
C1082 C1081 1.362 . S
C1082 C1085 1.409 1_565 S
C1083 H1075 0.930 . S
C1083 C1084 1.355 . S
C1083 C1085 1.415 . S
C1084 C1083 1.355 . S
C1084 C1086 1.419 . S
C1085 C1080 1.425 1_545 S
C1085 C1082 1.409 1_545 S
C1085 C1083 1.415 . S
C1086 H1076 0.930 . S
C1086 C1084 1.419 . S
C1086 C1087 1.362 . S
C1087 H1077 0.930 . S
C1087 C1080 1.409 1_545 S
C1087 C1086 1.362 . S
H1088 C1094 0.930 . S
H1089 C1097 0.930 . S
H1090 C1098 0.930 . S
H1091 C1099 0.930 . S
H1092 C1102 0.930 . S
H1093 C1103 0.930 . S
C1094 H1088 0.930 . S
C1094 C1095 1.355 . S
C1094 C1096 1.415 . S
C1095 C1094 1.355 . S
C1095 C1097 1.419 . S
C1096 C1094 1.415 . S
C1096 C1101 1.425 1_455 S
C1096 C1103 1.409 1_455 S
C1097 H1089 0.930 . S
C1097 C1095 1.419 . S
C1097 C1098 1.362 . S
C1098 H1090 0.930 . S
C1098 C1097 1.362 . S
C1098 C1101 1.409 1_455 S
C1099 H1091 0.930 . S
C1099 C1100 1.355 . S
C1099 C1101 1.415 . S
C1100 C1099 1.355 . S
C1100 C1102 1.419 . S
C1101 C1096 1.425 1_655 S
C1101 C1098 1.409 1_655 S
C1101 C1099 1.415 . S
C1102 H1092 0.930 . S
C1102 C1100 1.419 . S
C1102 C1103 1.362 . S
C1103 H1093 0.930 . S
C1103 C1096 1.409 1_655 S
C1103 C1102 1.362 . S
H1104 C1110 0.930 . S
H1105 C1113 0.930 . S
H1106 C1114 0.930 . S
H1107 C1115 0.930 . S
H1108 C1118 0.930 . S
H1109 C1119 0.930 . S
C1110 H1104 0.930 . S
C1110 C1111 1.355 . S
C1110 C1112 1.415 . S
C1111 C1110 1.355 . S
C1111 C1113 1.419 . S
C1112 C1110 1.415 . S
C1112 C1117 1.425 1_545 S
C1112 C1119 1.409 1_545 S
C1113 H1105 0.930 . S
C1113 C1111 1.419 . S
C1113 C1114 1.362 . S
C1114 H1106 0.930 . S
C1114 C1113 1.362 . S
C1114 C1117 1.409 1_545 S
C1115 H1107 0.930 . S
C1115 C1116 1.355 . S
C1115 C1117 1.415 . S
C1116 C1115 1.355 . S
C1116 C1118 1.419 . S
C1117 C1112 1.425 1_565 S
C1117 C1114 1.409 1_565 S
C1117 C1115 1.415 . S
C1118 H1108 0.930 . S
C1118 C1116 1.419 . S
C1118 C1119 1.362 . S
C1119 H1109 0.930 . S
C1119 C1112 1.409 1_565 S
C1119 C1118 1.362 . S
H1120 C1126 0.930 . S
H1121 C1129 0.930 . S
H1122 C1130 0.930 . S
H1123 C1131 0.930 . S
H1124 C1134 0.930 . S
H1125 C1135 0.930 . S
C1126 H1120 0.930 . S
C1126 C1127 1.355 . S
C1126 C1128 1.415 . S
C1127 C1126 1.355 . S
C1127 C1129 1.419 . S
C1128 C1126 1.415 . S
C1128 C1133 1.425 . S
C1128 C1135 1.409 . S
C1129 H1121 0.930 . S
C1129 C1127 1.419 . S
C1129 C1130 1.362 . S
C1130 H1122 0.930 . S
C1130 C1129 1.362 . S
C1130 C1133 1.409 . S
C1131 H1123 0.930 . S
C1131 C1132 1.355 . S
C1131 C1133 1.415 . S
C1132 C1131 1.355 . S
C1132 C1134 1.419 . S
C1133 C1128 1.425 . S
C1133 C1130 1.409 . S
C1133 C1131 1.415 . S
C1134 H1124 0.930 . S
C1134 C1132 1.419 . S
C1134 C1135 1.362 . S
C1135 H1125 0.930 . S
C1135 C1128 1.409 . S
C1135 C1134 1.362 . S
H1136 C1142 0.930 . S
H1137 C1145 0.930 . S
H1138 C1146 0.930 . S
H1139 C1147 0.930 . S
H1140 C1150 0.930 . S
H1141 C1151 0.930 . S
C1142 H1136 0.930 . S
C1142 C1143 1.355 . S
C1142 C1144 1.415 . S
C1143 C1142 1.355 . S
C1143 C1145 1.419 . S
C1144 C1142 1.415 . S
C1144 C1149 1.425 . S
C1144 C1151 1.409 . S
C1145 H1137 0.930 . S
C1145 C1143 1.419 . S
C1145 C1146 1.362 . S
C1146 H1138 0.930 . S
C1146 C1145 1.362 . S
C1146 C1149 1.409 . S
C1147 H1139 0.930 . S
C1147 C1148 1.355 . S
C1147 C1149 1.415 . S
C1148 C1147 1.355 . S
C1148 C1150 1.419 . S
C1149 C1144 1.425 . S
C1149 C1146 1.409 . S
C1149 C1147 1.415 . S
C1150 H1140 0.930 . S
C1150 C1148 1.419 . S
C1150 C1151 1.362 . S
C1151 H1141 0.930 . S
C1151 C1144 1.409 . S
C1151 C1150 1.362 . S
H1152 C1158 0.930 . S
H1153 C1161 0.930 . S
H1154 C1162 0.930 . S
H1155 C1163 0.930 . S
H1156 C1166 0.930 . S
H1157 C1167 0.930 . S
C1158 H1152 0.930 . S
C1158 C1159 1.355 . S
C1158 C1160 1.415 . S
C1159 C1158 1.355 . S
C1159 C1161 1.419 . S
C1160 C1158 1.415 . S
C1160 C1165 1.425 . S
C1160 C1167 1.409 . S
C1161 H1153 0.930 . S
C1161 C1159 1.419 . S
C1161 C1162 1.362 . S
C1162 H1154 0.930 . S
C1162 C1161 1.362 . S
C1162 C1165 1.409 . S
C1163 H1155 0.930 . S
C1163 C1164 1.355 . S
C1163 C1165 1.415 . S
C1164 C1163 1.355 . S
C1164 C1166 1.419 . S
C1165 C1160 1.425 . S
C1165 C1162 1.409 . S
C1165 C1163 1.415 . S
C1166 H1156 0.930 . S
C1166 C1164 1.419 . S
C1166 C1167 1.362 . S
C1167 H1157 0.930 . S
C1167 C1160 1.409 . S
C1167 C1166 1.362 . S
H1168 C1174 0.930 . S
H1169 C1177 0.930 . S
H1170 C1178 0.930 . S
H1171 C1179 0.930 . S
H1172 C1182 0.930 . S
H1173 C1183 0.930 . S
C1174 H1168 0.930 . S
C1174 C1175 1.355 . S
C1174 C1176 1.415 . S
C1175 C1174 1.355 . S
C1175 C1177 1.419 . S
C1176 C1174 1.415 . S
C1176 C1181 1.425 . S
C1176 C1183 1.409 . S
C1177 H1169 0.930 . S
C1177 C1175 1.419 . S
C1177 C1178 1.362 . S
C1178 H1170 0.930 . S
C1178 C1177 1.362 . S
C1178 C1181 1.409 . S
C1179 H1171 0.930 . S
C1179 C1180 1.355 . S
C1179 C1181 1.415 . S
C1180 C1179 1.355 . S
C1180 C1182 1.419 . S
C1181 C1176 1.425 . S
C1181 C1178 1.409 . S
C1181 C1179 1.415 . S
C1182 H1172 0.930 . S
C1182 C1180 1.419 . S
C1182 C1183 1.362 . S
C1183 H1173 0.930 . S
C1183 C1176 1.409 . S
C1183 C1182 1.362 . S
H1184 C1190 0.930 . S
H1185 C1193 0.930 . S
H1186 C1194 0.930 . S
H1187 C1195 0.930 . S
H1188 C1198 0.930 . S
H1189 C1199 0.930 . S
C1190 H1184 0.930 . S
C1190 C1191 1.355 . S
C1190 C1192 1.415 . S
C1191 C1190 1.355 . S
C1191 C1193 1.419 . S
C1192 C1190 1.415 . S
C1192 C1197 1.425 . S
C1192 C1199 1.409 . S
C1193 H1185 0.930 . S
C1193 C1191 1.419 . S
C1193 C1194 1.362 . S
C1194 H1186 0.930 . S
C1194 C1193 1.362 . S
C1194 C1197 1.409 . S
C1195 H1187 0.930 . S
C1195 C1196 1.355 . S
C1195 C1197 1.415 . S
C1196 C1195 1.355 . S
C1196 C1198 1.419 . S
C1197 C1192 1.425 . S
C1197 C1194 1.409 . S
C1197 C1195 1.415 . S
C1198 H1188 0.930 . S
C1198 C1196 1.419 . S
C1198 C1199 1.362 . S
C1199 H1189 0.930 . S
C1199 C1192 1.409 . S
C1199 C1198 1.362 . S
H1200 C1206 0.930 . S
H1201 C1209 0.930 . S
H1202 C1210 0.930 . S
H1203 C1211 0.930 . S
H1204 C1214 0.930 . S
H1205 C1215 0.930 . S
C1206 H1200 0.930 . S
C1206 C1207 1.355 . S
C1206 C1208 1.415 . S
C1207 C1206 1.355 . S
C1207 C1209 1.419 . S
C1208 C1206 1.415 . S
C1208 C1213 1.425 . S
C1208 C1215 1.409 . S
C1209 H1201 0.930 . S
C1209 C1207 1.419 . S
C1209 C1210 1.362 . S
C1210 H1202 0.930 . S
C1210 C1209 1.362 . S
C1210 C1213 1.409 . S
C1211 H1203 0.930 . S
C1211 C1212 1.355 . S
C1211 C1213 1.415 . S
C1212 C1211 1.355 . S
C1212 C1214 1.419 . S
C1213 C1208 1.425 . S
C1213 C1210 1.409 . S
C1213 C1211 1.415 . S
C1214 H1204 0.930 . S
C1214 C1212 1.419 . S
C1214 C1215 1.362 . S
C1215 H1205 0.930 . S
C1215 C1208 1.409 . S
C1215 C1214 1.362 . S
H1216 C1222 0.930 . S
H1217 C1225 0.930 . S
H1218 C1226 0.930 . S
H1219 C1227 0.930 . S
H1220 C1230 0.930 . S
H1221 C1231 0.930 . S
C1222 H1216 0.930 . S
C1222 C1223 1.355 . S
C1222 C1224 1.415 . S
C1223 C1222 1.355 . S
C1223 C1225 1.419 . S
C1224 C1222 1.415 . S
C1224 C1229 1.425 . S
C1224 C1231 1.409 . S
C1225 H1217 0.930 . S
C1225 C1223 1.419 . S
C1225 C1226 1.362 . S
C1226 H1218 0.930 . S
C1226 C1225 1.362 . S
C1226 C1229 1.409 . S
C1227 H1219 0.930 . S
C1227 C1228 1.355 . S
C1227 C1229 1.415 . S
C1228 C1227 1.355 . S
C1228 C1230 1.419 . S
C1229 C1224 1.425 . S
C1229 C1226 1.409 . S
C1229 C1227 1.415 . S
C1230 H1220 0.930 . S
C1230 C1228 1.419 . S
C1230 C1231 1.362 . S
C1231 H1221 0.930 . S
C1231 C1224 1.409 . S
C1231 C1230 1.362 . S
H1232 C1238 0.930 . S
H1233 C1241 0.930 . S
H1234 C1242 0.930 . S
H1235 C1243 0.930 . S
H1236 C1246 0.930 . S
H1237 C1247 0.930 . S
C1238 H1232 0.930 . S
C1238 C1239 1.355 . S
C1238 C1240 1.415 . S
C1239 C1238 1.355 . S
C1239 C1241 1.419 . S
C1240 C1238 1.415 . S
C1240 C1245 1.425 . S
C1240 C1247 1.409 . S
C1241 H1233 0.930 . S
C1241 C1239 1.419 . S
C1241 C1242 1.362 . S
C1242 H1234 0.930 . S
C1242 C1241 1.362 . S
C1242 C1245 1.409 . S
C1243 H1235 0.930 . S
C1243 C1244 1.355 . S
C1243 C1245 1.415 . S
C1244 C1243 1.355 . S
C1244 C1246 1.419 . S
C1245 C1240 1.425 . S
C1245 C1242 1.409 . S
C1245 C1243 1.415 . S
C1246 H1236 0.930 . S
C1246 C1244 1.419 . S
C1246 C1247 1.362 . S
C1247 H1237 0.930 . S
C1247 C1240 1.409 . S
C1247 C1246 1.362 . S
H1248 C1254 0.930 . S
H1249 C1257 0.930 . S
H1250 C1258 0.930 . S
H1251 C1259 0.930 . S
H1252 C1262 0.930 . S
H1253 C1263 0.930 . S
C1254 H1248 0.930 . S
C1254 C1255 1.355 . S
C1254 C1256 1.415 . S
C1255 C1254 1.355 . S
C1255 C1257 1.419 . S
C1256 C1254 1.415 . S
C1256 C1261 1.425 . S
C1256 C1263 1.409 . S
C1257 H1249 0.930 . S
C1257 C1255 1.419 . S
C1257 C1258 1.362 . S
C1258 H1250 0.930 . S
C1258 C1257 1.362 . S
C1258 C1261 1.409 . S
C1259 H1251 0.930 . S
C1259 C1260 1.355 . S
C1259 C1261 1.415 . S
C1260 C1259 1.355 . S
C1260 C1262 1.419 . S
C1261 C1256 1.425 . S
C1261 C1258 1.409 . S
C1261 C1259 1.415 . S
C1262 H1252 0.930 . S
C1262 C1260 1.419 . S
C1262 C1263 1.362 . S
C1263 H1253 0.930 . S
C1263 C1256 1.409 . S
C1263 C1262 1.362 . S
H1264 C1270 0.930 . S
H1265 C1273 0.930 . S
H1266 C1274 0.930 . S
H1267 C1275 0.930 . S
H1268 C1278 0.930 . S
H1269 C1279 0.930 . S
C1270 H1264 0.930 . S
C1270 C1271 1.355 . S
C1270 C1272 1.415 . S
C1271 C1270 1.355 . S
C1271 C1273 1.419 . S
C1272 C1270 1.415 . S
C1272 C1277 1.425 . S
C1272 C1279 1.409 . S
C1273 H1265 0.930 . S
C1273 C1271 1.419 . S
C1273 C1274 1.362 . S
C1274 H1266 0.930 . S
C1274 C1273 1.362 . S
C1274 C1277 1.409 . S
C1275 H1267 0.930 . S
C1275 C1276 1.355 . S
C1275 C1277 1.415 . S
C1276 C1275 1.355 . S
C1276 C1278 1.419 . S
C1277 C1272 1.425 . S
C1277 C1274 1.409 . S
C1277 C1275 1.415 . S
C1278 H1268 0.930 . S
C1278 C1276 1.419 . S
C1278 C1279 1.362 . S
C1279 H1269 0.930 . S
C1279 C1272 1.409 . S
C1279 C1278 1.362 . S
H1280 C1286 0.930 . S
H1281 C1289 0.930 . S
H1282 C1290 0.930 . S
H1283 C1291 0.930 . S
H1284 C1294 0.930 . S
H1285 C1295 0.930 . S
C1286 H1280 0.930 . S
C1286 C1287 1.355 . S
C1286 C1288 1.415 . S
C1287 C1286 1.355 . S
C1287 C1289 1.419 . S
C1288 C1286 1.415 . S
C1288 C1293 1.425 . S
C1288 C1295 1.409 . S
C1289 H1281 0.930 . S
C1289 C1287 1.419 . S
C1289 C1290 1.362 . S
C1290 H1282 0.930 . S
C1290 C1289 1.362 . S
C1290 C1293 1.409 . S
C1291 H1283 0.930 . S
C1291 C1292 1.355 . S
C1291 C1293 1.415 . S
C1292 C1291 1.355 . S
C1292 C1294 1.419 . S
C1293 C1288 1.425 . S
C1293 C1290 1.409 . S
C1293 C1291 1.415 . S
C1294 H1284 0.930 . S
C1294 C1292 1.419 . S
C1294 C1295 1.362 . S
C1295 H1285 0.930 . S
C1295 C1288 1.409 . S
C1295 C1294 1.362 . S
H1296 C1302 0.930 . S
H1297 C1305 0.930 . S
H1298 C1306 0.930 . S
H1299 C1307 0.930 . S
H1300 C1310 0.930 . S
H1301 C1311 0.930 . S
C1302 H1296 0.930 . S
C1302 C1303 1.355 . S
C1302 C1304 1.415 . S
C1303 C1302 1.355 . S
C1303 C1305 1.419 . S
C1304 C1302 1.415 . S
C1304 C1309 1.425 . S
C1304 C1311 1.409 . S
C1305 H1297 0.930 . S
C1305 C1303 1.419 . S
C1305 C1306 1.362 . S
C1306 H1298 0.930 . S
C1306 C1305 1.362 . S
C1306 C1309 1.409 . S
C1307 H1299 0.930 . S
C1307 C1308 1.355 . S
C1307 C1309 1.415 . S
C1308 C1307 1.355 . S
C1308 C1310 1.419 . S
C1309 C1304 1.425 . S
C1309 C1306 1.409 . S
C1309 C1307 1.415 . S
C1310 H1300 0.930 . S
C1310 C1308 1.419 . S
C1310 C1311 1.362 . S
C1311 H1301 0.930 . S
C1311 C1304 1.409 . S
C1311 C1310 1.362 . S
H1312 C1318 0.930 . S
H1313 C1321 0.930 . S
H1314 C1322 0.930 . S
H1315 C1323 0.930 . S
H1316 C1326 0.930 . S
H1317 C1327 0.930 . S
C1318 H1312 0.930 . S
C1318 C1319 1.355 . S
C1318 C1320 1.415 . S
C1319 C1318 1.355 . S
C1319 C1321 1.419 . S
C1320 C1318 1.415 . S
C1320 C1325 1.425 . S
C1320 C1327 1.409 . S
C1321 H1313 0.930 . S
C1321 C1319 1.419 . S
C1321 C1322 1.362 . S
C1322 H1314 0.930 . S
C1322 C1321 1.362 . S
C1322 C1325 1.409 . S
C1323 H1315 0.930 . S
C1323 C1324 1.355 . S
C1323 C1325 1.415 . S
C1324 C1323 1.355 . S
C1324 C1326 1.419 . S
C1325 C1320 1.425 . S
C1325 C1322 1.409 . S
C1325 C1323 1.415 . S
C1326 H1316 0.930 . S
C1326 C1324 1.419 . S
C1326 C1327 1.362 . S
C1327 H1317 0.930 . S
C1327 C1320 1.409 . S
C1327 C1326 1.362 . S
H1328 C1334 0.930 . S
H1329 C1337 0.930 . S
H1330 C1338 0.930 . S
H1331 C1339 0.930 . S
H1332 C1342 0.930 . S
H1333 C1343 0.930 . S
C1334 H1328 0.930 . S
C1334 C1335 1.355 . S
C1334 C1336 1.415 . S
C1335 C1334 1.355 . S
C1335 C1337 1.419 . S
C1336 C1334 1.415 . S
C1336 C1341 1.425 . S
C1336 C1343 1.409 . S
C1337 H1329 0.930 . S
C1337 C1335 1.419 . S
C1337 C1338 1.362 . S
C1338 H1330 0.930 . S
C1338 C1337 1.362 . S
C1338 C1341 1.409 . S
C1339 H1331 0.930 . S
C1339 C1340 1.355 . S
C1339 C1341 1.415 . S
C1340 C1339 1.355 . S
C1340 C1342 1.419 . S
C1341 C1336 1.425 . S
C1341 C1338 1.409 . S
C1341 C1339 1.415 . S
C1342 H1332 0.930 . S
C1342 C1340 1.419 . S
C1342 C1343 1.362 . S
C1343 H1333 0.930 . S
C1343 C1336 1.409 . S
C1343 C1342 1.362 . S
H1344 C1350 0.930 . S
H1345 C1353 0.930 . S
H1346 C1354 0.930 . S
H1347 C1355 0.930 . S
H1348 C1358 0.930 . S
H1349 C1359 0.930 . S
C1350 H1344 0.930 . S
C1350 C1351 1.355 . S
C1350 C1352 1.415 . S
C1351 C1350 1.355 . S
C1351 C1353 1.419 . S
C1352 C1350 1.415 . S
C1352 C1357 1.425 . S
C1352 C1359 1.409 . S
C1353 H1345 0.930 . S
C1353 C1351 1.419 . S
C1353 C1354 1.362 . S
C1354 H1346 0.930 . S
C1354 C1353 1.362 . S
C1354 C1357 1.409 . S
C1355 H1347 0.930 . S
C1355 C1356 1.355 . S
C1355 C1357 1.415 . S
C1356 C1355 1.355 . S
C1356 C1358 1.419 . S
C1357 C1352 1.425 . S
C1357 C1354 1.409 . S
C1357 C1355 1.415 . S
C1358 H1348 0.930 . S
C1358 C1356 1.419 . S
C1358 C1359 1.362 . S
C1359 H1349 0.930 . S
C1359 C1352 1.409 . S
C1359 C1358 1.362 . S
H1360 C1366 0.930 . S
H1361 C1369 0.930 . S
H1362 C1370 0.930 . S
H1363 C1371 0.930 . S
H1364 C1374 0.930 . S
H1365 C1375 0.930 . S
C1366 H1360 0.930 . S
C1366 C1367 1.355 . S
C1366 C1368 1.415 . S
C1367 C1366 1.355 . S
C1367 C1369 1.419 . S
C1368 C1366 1.415 . S
C1368 C1373 1.425 . S
C1368 C1375 1.409 . S
C1369 H1361 0.930 . S
C1369 C1367 1.419 . S
C1369 C1370 1.362 . S
C1370 H1362 0.930 . S
C1370 C1369 1.362 . S
C1370 C1373 1.409 . S
C1371 H1363 0.930 . S
C1371 C1372 1.355 . S
C1371 C1373 1.415 . S
C1372 C1371 1.355 . S
C1372 C1374 1.419 . S
C1373 C1368 1.425 . S
C1373 C1370 1.409 . S
C1373 C1371 1.415 . S
C1374 H1364 0.930 . S
C1374 C1372 1.419 . S
C1374 C1375 1.362 . S
C1375 H1365 0.930 . S
C1375 C1368 1.409 . S
C1375 C1374 1.362 . S
H1376 C1382 0.930 . S
H1377 C1385 0.930 . S
H1378 C1386 0.930 . S
H1379 C1387 0.930 . S
H1380 C1390 0.930 . S
H1381 C1391 0.930 . S
C1382 H1376 0.930 . S
C1382 C1383 1.355 . S
C1382 C1384 1.415 . S
C1383 C1382 1.355 . S
C1383 C1385 1.419 . S
C1384 C1382 1.415 . S
C1384 C1389 1.425 1_554 S
C1384 C1391 1.409 1_554 S
C1385 H1377 0.930 . S
C1385 C1383 1.419 . S
C1385 C1386 1.362 . S
C1386 H1378 0.930 . S
C1386 C1385 1.362 . S
C1386 C1389 1.409 1_554 S
C1387 H1379 0.930 . S
C1387 C1388 1.355 . S
C1387 C1389 1.415 . S
C1388 C1387 1.355 . S
C1388 C1390 1.419 . S
C1389 C1384 1.425 1_556 S
C1389 C1386 1.409 1_556 S
C1389 C1387 1.415 . S
C1390 H1380 0.930 . S
C1390 C1388 1.419 . S
C1390 C1391 1.362 . S
C1391 H1381 0.930 . S
C1391 C1384 1.409 1_556 S
C1391 C1390 1.362 . S
H1392 C1398 0.930 . S
H1393 C1401 0.930 . S
H1394 C1402 0.930 . S
H1395 C1403 0.930 . S
H1396 C1406 0.930 . S
H1397 C1407 0.930 . S
C1398 H1392 0.930 . S
C1398 C1399 1.355 . S
C1398 C1400 1.415 . S
C1399 C1398 1.355 . S
C1399 C1401 1.419 . S
C1400 C1398 1.415 . S
C1400 C1405 1.425 1_556 S
C1400 C1407 1.409 1_556 S
C1401 H1393 0.930 . S
C1401 C1399 1.419 . S
C1401 C1402 1.362 . S
C1402 H1394 0.930 . S
C1402 C1401 1.362 . S
C1402 C1405 1.409 1_556 S
C1403 H1395 0.930 . S
C1403 C1404 1.355 . S
C1403 C1405 1.415 . S
C1404 C1403 1.355 . S
C1404 C1406 1.419 . S
C1405 C1400 1.425 1_554 S
C1405 C1402 1.409 1_554 S
C1405 C1403 1.415 . S
C1406 H1396 0.930 . S
C1406 C1404 1.419 . S
C1406 C1407 1.362 . S
C1407 H1397 0.930 . S
C1407 C1400 1.409 1_554 S
C1407 C1406 1.362 . S
H1408 C1414 0.930 . S
H1409 C1417 0.930 . S
H1410 C1418 0.930 . S
H1411 C1419 0.930 . S
H1412 C1422 0.930 . S
H1413 C1423 0.930 . S
C1414 H1408 0.930 . S
C1414 C1415 1.355 . S
C1414 C1416 1.415 . S
C1415 C1414 1.355 . S
C1415 C1417 1.419 . S
C1416 C1414 1.415 . S
C1416 C1421 1.425 1_554 S
C1416 C1423 1.409 1_554 S
C1417 H1409 0.930 . S
C1417 C1415 1.419 . S
C1417 C1418 1.362 . S
C1418 H1410 0.930 . S
C1418 C1417 1.362 . S
C1418 C1421 1.409 1_554 S
C1419 H1411 0.930 . S
C1419 C1420 1.355 . S
C1419 C1421 1.415 . S
C1420 C1419 1.355 . S
C1420 C1422 1.419 . S
C1421 C1416 1.425 1_556 S
C1421 C1418 1.409 1_556 S
C1421 C1419 1.415 . S
C1422 H1412 0.930 . S
C1422 C1420 1.419 . S
C1422 C1423 1.362 . S
C1423 H1413 0.930 . S
C1423 C1416 1.409 1_556 S
C1423 C1422 1.362 . S
H1424 C1430 0.930 . S
H1425 C1433 0.930 . S
H1426 C1434 0.930 . S
H1427 C1435 0.930 . S
H1428 C1438 0.930 . S
H1429 C1439 0.930 . S
C1430 H1424 0.930 . S
C1430 C1431 1.355 . S
C1430 C1432 1.415 . S
C1431 C1430 1.355 . S
C1431 C1433 1.419 . S
C1432 C1430 1.415 . S
C1432 C1437 1.425 1_554 S
C1432 C1439 1.409 1_554 S
C1433 H1425 0.930 . S
C1433 C1431 1.419 . S
C1433 C1434 1.362 . S
C1434 H1426 0.930 . S
C1434 C1433 1.362 . S
C1434 C1437 1.409 1_554 S
C1435 H1427 0.930 . S
C1435 C1436 1.355 . S
C1435 C1437 1.415 . S
C1436 C1435 1.355 . S
C1436 C1438 1.419 . S
C1437 C1432 1.425 1_556 S
C1437 C1434 1.409 1_556 S
C1437 C1435 1.415 . S
C1438 H1428 0.930 . S
C1438 C1436 1.419 . S
C1438 C1439 1.362 . S
C1439 H1429 0.930 . S
C1439 C1432 1.409 1_556 S
C1439 C1438 1.362 . S
H1440 C1446 0.930 . S
H1441 C1449 0.930 . S
H1442 C1450 0.930 . S
H1443 C1451 0.930 . S
H1444 C1454 0.930 . S
H1445 C1455 0.930 . S
C1446 H1440 0.930 . S
C1446 C1447 1.355 . S
C1446 C1448 1.415 . S
C1447 C1446 1.355 . S
C1447 C1449 1.419 . S
C1448 C1446 1.415 . S
C1448 C1453 1.425 1_554 S
C1448 C1455 1.409 1_554 S
C1449 H1441 0.930 . S
C1449 C1447 1.419 . S
C1449 C1450 1.362 . S
C1450 H1442 0.930 . S
C1450 C1449 1.362 . S
C1450 C1453 1.409 1_554 S
C1451 H1443 0.930 . S
C1451 C1452 1.355 . S
C1451 C1453 1.415 . S
C1452 C1451 1.355 . S
C1452 C1454 1.419 . S
C1453 C1448 1.425 1_556 S
C1453 C1450 1.409 1_556 S
C1453 C1451 1.415 . S
C1454 H1444 0.930 . S
C1454 C1452 1.419 . S
C1454 C1455 1.362 . S
C1455 H1445 0.930 . S
C1455 C1448 1.409 1_556 S
C1455 C1454 1.362 . S
H1456 C1462 0.930 . S
H1457 C1465 0.930 . S
H1458 C1466 0.930 . S
H1459 C1467 0.930 . S
H1460 C1470 0.930 . S
H1461 C1471 0.930 . S
C1462 H1456 0.930 . S
C1462 C1463 1.355 . S
C1462 C1464 1.415 . S
C1463 C1462 1.355 . S
C1463 C1465 1.419 . S
C1464 C1462 1.415 . S
C1464 C1469 1.425 1_554 S
C1464 C1471 1.409 1_554 S
C1465 H1457 0.930 . S
C1465 C1463 1.419 . S
C1465 C1466 1.362 . S
C1466 H1458 0.930 . S
C1466 C1465 1.362 . S
C1466 C1469 1.409 1_554 S
C1467 H1459 0.930 . S
C1467 C1468 1.355 . S
C1467 C1469 1.415 . S
C1468 C1467 1.355 . S
C1468 C1470 1.419 . S
C1469 C1464 1.425 1_556 S
C1469 C1466 1.409 1_556 S
C1469 C1467 1.415 . S
C1470 H1460 0.930 . S
C1470 C1468 1.419 . S
C1470 C1471 1.362 . S
C1471 H1461 0.930 . S
C1471 C1464 1.409 1_556 S
C1471 C1470 1.362 . S
H1472 C1478 0.930 . S
H1473 C1481 0.930 . S
H1474 C1482 0.930 . S
H1475 C1483 0.930 . S
H1476 C1486 0.930 . S
H1477 C1487 0.930 . S
C1478 H1472 0.930 . S
C1478 C1479 1.355 . S
C1478 C1480 1.415 . S
C1479 C1478 1.355 . S
C1479 C1481 1.419 . S
C1480 C1478 1.415 . S
C1480 C1485 1.425 1_556 S
C1480 C1487 1.409 1_556 S
C1481 H1473 0.930 . S
C1481 C1479 1.419 . S
C1481 C1482 1.362 . S
C1482 H1474 0.930 . S
C1482 C1481 1.362 . S
C1482 C1485 1.409 1_556 S
C1483 H1475 0.930 . S
C1483 C1484 1.355 . S
C1483 C1485 1.415 . S
C1484 C1483 1.355 . S
C1484 C1486 1.419 . S
C1485 C1480 1.425 1_554 S
C1485 C1482 1.409 1_554 S
C1485 C1483 1.415 . S
C1486 H1476 0.930 . S
C1486 C1484 1.419 . S
C1486 C1487 1.362 . S
C1487 H1477 0.930 . S
C1487 C1480 1.409 1_554 S
C1487 C1486 1.362 . S
H1488 C1494 0.930 . S
H1489 C1497 0.930 . S
H1490 C1498 0.930 . S
H1491 C1499 0.930 . S
H1492 C1502 0.930 . S
H1493 C1503 0.930 . S
C1494 H1488 0.930 . S
C1494 C1495 1.355 . S
C1494 C1496 1.415 . S
C1495 C1494 1.355 . S
C1495 C1497 1.419 . S
C1496 C1494 1.415 . S
C1496 C1501 1.425 1_556 S
C1496 C1503 1.409 1_556 S
C1497 H1489 0.930 . S
C1497 C1495 1.419 . S
C1497 C1498 1.362 . S
C1498 H1490 0.930 . S
C1498 C1497 1.362 . S
C1498 C1501 1.409 1_556 S
C1499 H1491 0.930 . S
C1499 C1500 1.355 . S
C1499 C1501 1.415 . S
C1500 C1499 1.355 . S
C1500 C1502 1.419 . S
C1501 C1496 1.425 1_554 S
C1501 C1498 1.409 1_554 S
C1501 C1499 1.415 . S
C1502 H1492 0.930 . S
C1502 C1500 1.419 . S
C1502 C1503 1.362 . S
C1503 H1493 0.930 . S
C1503 C1496 1.409 1_554 S
C1503 C1502 1.362 . S
H1504 C1510 0.930 . S
H1505 C1513 0.930 . S
H1506 C1514 0.930 . S
H1507 C1515 0.930 . S
H1508 C1518 0.930 . S
H1509 C1519 0.930 . S
C1510 H1504 0.930 . S
C1510 C1511 1.355 . S
C1510 C1512 1.415 . S
C1511 C1510 1.355 . S
C1511 C1513 1.419 . S
C1512 C1510 1.415 . S
C1512 C1517 1.425 . S
C1512 C1519 1.409 . S
C1513 H1505 0.930 . S
C1513 C1511 1.419 . S
C1513 C1514 1.362 . S
C1514 H1506 0.930 . S
C1514 C1513 1.362 . S
C1514 C1517 1.409 . S
C1515 H1507 0.930 . S
C1515 C1516 1.355 . S
C1515 C1517 1.415 . S
C1516 C1515 1.355 . S
C1516 C1518 1.419 . S
C1517 C1512 1.425 . S
C1517 C1514 1.409 . S
C1517 C1515 1.415 . S
C1518 H1508 0.930 . S
C1518 C1516 1.419 . S
C1518 C1519 1.362 . S
C1519 H1509 0.930 . S
C1519 C1512 1.409 . S
C1519 C1518 1.362 . S
H1520 C1526 0.930 . S
H1521 C1529 0.930 . S
H1522 C1530 0.930 . S
H1523 C1531 0.930 . S
H1524 C1534 0.930 . S
H1525 C1535 0.930 . S
C1526 H1520 0.930 . S
C1526 C1527 1.355 . S
C1526 C1528 1.415 . S
C1527 C1526 1.355 . S
C1527 C1529 1.419 . S
C1528 C1526 1.415 . S
C1528 C1533 1.425 . S
C1528 C1535 1.409 . S
C1529 H1521 0.930 . S
C1529 C1527 1.419 . S
C1529 C1530 1.362 . S
C1530 H1522 0.930 . S
C1530 C1529 1.362 . S
C1530 C1533 1.409 . S
C1531 H1523 0.930 . S
C1531 C1532 1.355 . S
C1531 C1533 1.415 . S
C1532 C1531 1.355 . S
C1532 C1534 1.419 . S
C1533 C1528 1.425 . S
C1533 C1530 1.409 . S
C1533 C1531 1.415 . S
C1534 H1524 0.930 . S
C1534 C1532 1.419 . S
C1534 C1535 1.362 . S
C1535 H1525 0.930 . S
C1535 C1528 1.409 . S
C1535 C1534 1.362 . S
H1536 C1542 0.930 . S
H1537 C1545 0.930 . S
H1538 C1546 0.930 . S
H1539 C1547 0.930 . S
H1540 C1550 0.930 . S
H1541 C1551 0.930 . S
C1542 H1536 0.930 . S
C1542 C1543 1.355 . S
C1542 C1544 1.415 . S
C1543 C1542 1.355 . S
C1543 C1545 1.419 . S
C1544 C1542 1.415 . S
C1544 C1549 1.425 . S
C1544 C1551 1.409 . S
C1545 H1537 0.930 . S
C1545 C1543 1.419 . S
C1545 C1546 1.362 . S
C1546 H1538 0.930 . S
C1546 C1545 1.362 . S
C1546 C1549 1.409 . S
C1547 H1539 0.930 . S
C1547 C1548 1.355 . S
C1547 C1549 1.415 . S
C1548 C1547 1.355 . S
C1548 C1550 1.419 . S
C1549 C1544 1.425 . S
C1549 C1546 1.409 . S
C1549 C1547 1.415 . S
C1550 H1540 0.930 . S
C1550 C1548 1.419 . S
C1550 C1551 1.362 . S
C1551 H1541 0.930 . S
C1551 C1544 1.409 . S
C1551 C1550 1.362 . S
H1552 C1558 0.930 . S
H1553 C1561 0.930 . S
H1554 C1562 0.930 . S
H1555 C1563 0.930 . S
H1556 C1566 0.930 . S
H1557 C1567 0.930 . S
C1558 H1552 0.930 . S
C1558 C1559 1.355 . S
C1558 C1560 1.415 . S
C1559 C1558 1.355 . S
C1559 C1561 1.419 . S
C1560 C1558 1.415 . S
C1560 C1565 1.425 . S
C1560 C1567 1.409 . S
C1561 H1553 0.930 . S
C1561 C1559 1.419 . S
C1561 C1562 1.362 . S
C1562 H1554 0.930 . S
C1562 C1561 1.362 . S
C1562 C1565 1.409 . S
C1563 H1555 0.930 . S
C1563 C1564 1.355 . S
C1563 C1565 1.415 . S
C1564 C1563 1.355 . S
C1564 C1566 1.419 . S
C1565 C1560 1.425 . S
C1565 C1562 1.409 . S
C1565 C1563 1.415 . S
C1566 H1556 0.930 . S
C1566 C1564 1.419 . S
C1566 C1567 1.362 . S
C1567 H1557 0.930 . S
C1567 C1560 1.409 . S
C1567 C1566 1.362 . S
H1568 C1574 0.930 . S
H1569 C1577 0.930 . S
H1570 C1578 0.930 . S
H1571 C1579 0.930 . S
H1572 C1582 0.930 . S
H1573 C1583 0.930 . S
C1574 H1568 0.930 . S
C1574 C1575 1.355 . S
C1574 C1576 1.415 . S
C1575 C1574 1.355 . S
C1575 C1577 1.419 . S
C1576 C1574 1.415 . S
C1576 C1581 1.425 . S
C1576 C1583 1.409 . S
C1577 H1569 0.930 . S
C1577 C1575 1.419 . S
C1577 C1578 1.362 . S
C1578 H1570 0.930 . S
C1578 C1577 1.362 . S
C1578 C1581 1.409 . S
C1579 H1571 0.930 . S
C1579 C1580 1.355 . S
C1579 C1581 1.415 . S
C1580 C1579 1.355 . S
C1580 C1582 1.419 . S
C1581 C1576 1.425 . S
C1581 C1578 1.409 . S
C1581 C1579 1.415 . S
C1582 H1572 0.930 . S
C1582 C1580 1.419 . S
C1582 C1583 1.362 . S
C1583 H1573 0.930 . S
C1583 C1576 1.409 . S
C1583 C1582 1.362 . S
H1584 C1590 0.930 . S
H1585 C1593 0.930 . S
H1586 C1594 0.930 . S
H1587 C1595 0.930 . S
H1588 C1598 0.930 . S
H1589 C1599 0.930 . S
C1590 H1584 0.930 . S
C1590 C1591 1.355 . S
C1590 C1592 1.415 . S
C1591 C1590 1.355 . S
C1591 C1593 1.419 . S
C1592 C1590 1.415 . S
C1592 C1597 1.425 . S
C1592 C1599 1.409 . S
C1593 H1585 0.930 . S
C1593 C1591 1.419 . S
C1593 C1594 1.362 . S
C1594 H1586 0.930 . S
C1594 C1593 1.362 . S
C1594 C1597 1.409 . S
C1595 H1587 0.930 . S
C1595 C1596 1.355 . S
C1595 C1597 1.415 . S
C1596 C1595 1.355 . S
C1596 C1598 1.419 . S
C1597 C1592 1.425 . S
C1597 C1594 1.409 . S
C1597 C1595 1.415 . S
C1598 H1588 0.930 . S
C1598 C1596 1.419 . S
C1598 C1599 1.362 . S
C1599 H1589 0.930 . S
C1599 C1592 1.409 . S
C1599 C1598 1.362 . S
H1600 C1606 0.930 . S
H1601 C1609 0.930 . S
H1602 C1610 0.930 . S
H1603 C1611 0.930 . S
H1604 C1614 0.930 . S
H1605 C1615 0.930 . S
C1606 H1600 0.930 . S
C1606 C1607 1.355 . S
C1606 C1608 1.415 . S
C1607 C1606 1.355 . S
C1607 C1609 1.419 . S
C1608 C1606 1.415 . S
C1608 C1613 1.425 . S
C1608 C1615 1.409 . S
C1609 H1601 0.930 . S
C1609 C1607 1.419 . S
C1609 C1610 1.362 . S
C1610 H1602 0.930 . S
C1610 C1609 1.362 . S
C1610 C1613 1.409 . S
C1611 H1603 0.930 . S
C1611 C1612 1.355 . S
C1611 C1613 1.415 . S
C1612 C1611 1.355 . S
C1612 C1614 1.419 . S
C1613 C1608 1.425 . S
C1613 C1610 1.409 . S
C1613 C1611 1.415 . S
C1614 H1604 0.930 . S
C1614 C1612 1.419 . S
C1614 C1615 1.362 . S
C1615 H1605 0.930 . S
C1615 C1608 1.409 . S
C1615 C1614 1.362 . S
H1616 C1622 0.930 . S
H1617 C1625 0.930 . S
H1618 C1626 0.930 . S
H1619 C1627 0.930 . S
H1620 C1630 0.930 . S
H1621 C1631 0.930 . S
C1622 H1616 0.930 . S
C1622 C1623 1.355 . S
C1622 C1624 1.415 . S
C1623 C1622 1.355 . S
C1623 C1625 1.419 . S
C1624 C1622 1.415 . S
C1624 C1629 1.425 . S
C1624 C1631 1.409 . S
C1625 H1617 0.930 . S
C1625 C1623 1.419 . S
C1625 C1626 1.362 . S
C1626 H1618 0.930 . S
C1626 C1625 1.362 . S
C1626 C1629 1.409 . S
C1627 H1619 0.930 . S
C1627 C1628 1.355 . S
C1627 C1629 1.415 . S
C1628 C1627 1.355 . S
C1628 C1630 1.419 . S
C1629 C1624 1.425 . S
C1629 C1626 1.409 . S
C1629 C1627 1.415 . S
C1630 H1620 0.930 . S
C1630 C1628 1.419 . S
C1630 C1631 1.362 . S
C1631 H1621 0.930 . S
C1631 C1624 1.409 . S
C1631 C1630 1.362 . S
H1632 C1638 0.930 . S
H1633 C1641 0.930 . S
H1634 C1642 0.930 . S
H1635 C1643 0.930 . S
H1636 C1646 0.930 . S
H1637 C1647 0.930 . S
C1638 H1632 0.930 . S
C1638 C1639 1.355 . S
C1638 C1640 1.415 . S
C1639 C1638 1.355 . S
C1639 C1641 1.419 . S
C1640 C1638 1.415 . S
C1640 C1645 1.425 . S
C1640 C1647 1.409 . S
C1641 H1633 0.930 . S
C1641 C1639 1.419 . S
C1641 C1642 1.362 . S
C1642 H1634 0.930 . S
C1642 C1641 1.362 . S
C1642 C1645 1.409 . S
C1643 H1635 0.930 . S
C1643 C1644 1.355 . S
C1643 C1645 1.415 . S
C1644 C1643 1.355 . S
C1644 C1646 1.419 . S
C1645 C1640 1.425 . S
C1645 C1642 1.409 . S
C1645 C1643 1.415 . S
C1646 H1636 0.930 . S
C1646 C1644 1.419 . S
C1646 C1647 1.362 . S
C1647 H1637 0.930 . S
C1647 C1640 1.409 . S
C1647 C1646 1.362 . S
H1648 C1654 0.930 . S
H1649 C1657 0.930 . S
H1650 C1658 0.930 . S
H1651 C1659 0.930 . S
H1652 C1662 0.930 . S
H1653 C1663 0.930 . S
C1654 H1648 0.930 . S
C1654 C1655 1.355 . S
C1654 C1656 1.415 . S
C1655 C1654 1.355 . S
C1655 C1657 1.419 . S
C1656 C1654 1.415 . S
C1656 C1661 1.425 . S
C1656 C1663 1.409 . S
C1657 H1649 0.930 . S
C1657 C1655 1.419 . S
C1657 C1658 1.362 . S
C1658 H1650 0.930 . S
C1658 C1657 1.362 . S
C1658 C1661 1.409 . S
C1659 H1651 0.930 . S
C1659 C1660 1.355 . S
C1659 C1661 1.415 . S
C1660 C1659 1.355 . S
C1660 C1662 1.419 . S
C1661 C1656 1.425 . S
C1661 C1658 1.409 . S
C1661 C1659 1.415 . S
C1662 H1652 0.930 . S
C1662 C1660 1.419 . S
C1662 C1663 1.362 . S
C1663 H1653 0.930 . S
C1663 C1656 1.409 . S
C1663 C1662 1.362 . S
H1664 C1670 0.930 . S
H1665 C1673 0.930 . S
H1666 C1674 0.930 . S
H1667 C1675 0.930 . S
H1668 C1678 0.930 . S
H1669 C1679 0.930 . S
C1670 H1664 0.930 . S
C1670 C1671 1.355 . S
C1670 C1672 1.415 . S
C1671 C1670 1.355 . S
C1671 C1673 1.419 . S
C1672 C1670 1.415 . S
C1672 C1677 1.425 . S
C1672 C1679 1.409 . S
C1673 H1665 0.930 . S
C1673 C1671 1.419 . S
C1673 C1674 1.362 . S
C1674 H1666 0.930 . S
C1674 C1673 1.362 . S
C1674 C1677 1.409 . S
C1675 H1667 0.930 . S
C1675 C1676 1.355 . S
C1675 C1677 1.415 . S
C1676 C1675 1.355 . S
C1676 C1678 1.419 . S
C1677 C1672 1.425 . S
C1677 C1674 1.409 . S
C1677 C1675 1.415 . S
C1678 H1668 0.930 . S
C1678 C1676 1.419 . S
C1678 C1679 1.362 . S
C1679 H1669 0.930 . S
C1679 C1672 1.409 . S
C1679 C1678 1.362 . S
H1680 C1686 0.930 . S
H1681 C1689 0.930 . S
H1682 C1690 0.930 . S
H1683 C1691 0.930 . S
H1684 C1694 0.930 . S
H1685 C1695 0.930 . S
C1686 H1680 0.930 . S
C1686 C1687 1.355 . S
C1686 C1688 1.415 . S
C1687 C1686 1.355 . S
C1687 C1689 1.419 . S
C1688 C1686 1.415 . S
C1688 C1693 1.425 . S
C1688 C1695 1.409 . S
C1689 H1681 0.930 . S
C1689 C1687 1.419 . S
C1689 C1690 1.362 . S
C1690 H1682 0.930 . S
C1690 C1689 1.362 . S
C1690 C1693 1.409 . S
C1691 H1683 0.930 . S
C1691 C1692 1.355 . S
C1691 C1693 1.415 . S
C1692 C1691 1.355 . S
C1692 C1694 1.419 . S
C1693 C1688 1.425 . S
C1693 C1690 1.409 . S
C1693 C1691 1.415 . S
C1694 H1684 0.930 . S
C1694 C1692 1.419 . S
C1694 C1695 1.362 . S
C1695 H1685 0.930 . S
C1695 C1688 1.409 . S
C1695 C1694 1.362 . S
H1696 C1702 0.930 . S
H1697 C1705 0.930 . S
H1698 C1706 0.930 . S
H1699 C1707 0.930 . S
H1700 C1710 0.930 . S
H1701 C1711 0.930 . S
C1702 H1696 0.930 . S
C1702 C1703 1.355 . S
C1702 C1704 1.415 . S
C1703 C1702 1.355 . S
C1703 C1705 1.419 . S
C1704 C1702 1.415 . S
C1704 C1709 1.425 . S
C1704 C1711 1.409 . S
C1705 H1697 0.930 . S
C1705 C1703 1.419 . S
C1705 C1706 1.362 . S
C1706 H1698 0.930 . S
C1706 C1705 1.362 . S
C1706 C1709 1.409 . S
C1707 H1699 0.930 . S
C1707 C1708 1.355 . S
C1707 C1709 1.415 . S
C1708 C1707 1.355 . S
C1708 C1710 1.419 . S
C1709 C1704 1.425 . S
C1709 C1706 1.409 . S
C1709 C1707 1.415 . S
C1710 H1700 0.930 . S
C1710 C1708 1.419 . S
C1710 C1711 1.362 . S
C1711 H1701 0.930 . S
C1711 C1704 1.409 . S
C1711 C1710 1.362 . S
H1712 C1718 0.930 . S
H1713 C1721 0.930 . S
H1714 C1722 0.930 . S
H1715 C1723 0.930 . S
H1716 C1726 0.930 . S
H1717 C1727 0.930 . S
C1718 H1712 0.930 . S
C1718 C1719 1.355 . S
C1718 C1720 1.415 . S
C1719 C1718 1.355 . S
C1719 C1721 1.419 . S
C1720 C1718 1.415 . S
C1720 C1725 1.425 . S
C1720 C1727 1.409 . S
C1721 H1713 0.930 . S
C1721 C1719 1.419 . S
C1721 C1722 1.362 . S
C1722 H1714 0.930 . S
C1722 C1721 1.362 . S
C1722 C1725 1.409 . S
C1723 H1715 0.930 . S
C1723 C1724 1.355 . S
C1723 C1725 1.415 . S
C1724 C1723 1.355 . S
C1724 C1726 1.419 . S
C1725 C1720 1.425 . S
C1725 C1722 1.409 . S
C1725 C1723 1.415 . S
C1726 H1716 0.930 . S
C1726 C1724 1.419 . S
C1726 C1727 1.362 . S
C1727 H1717 0.930 . S
C1727 C1720 1.409 . S
C1727 C1726 1.362 . S
H1728 C1734 0.930 . S
H1729 C1737 0.930 . S
H1730 C1738 0.930 . S
H1731 C1739 0.930 . S
H1732 C1742 0.930 . S
H1733 C1743 0.930 . S
C1734 H1728 0.930 . S
C1734 C1735 1.355 . S
C1734 C1736 1.415 . S
C1735 C1734 1.355 . S
C1735 C1737 1.419 . S
C1736 C1734 1.415 . S
C1736 C1741 1.425 . S
C1736 C1743 1.409 . S
C1737 H1729 0.930 . S
C1737 C1735 1.419 . S
C1737 C1738 1.362 . S
C1738 H1730 0.930 . S
C1738 C1737 1.362 . S
C1738 C1741 1.409 . S
C1739 H1731 0.930 . S
C1739 C1740 1.355 . S
C1739 C1741 1.415 . S
C1740 C1739 1.355 . S
C1740 C1742 1.419 . S
C1741 C1736 1.425 . S
C1741 C1738 1.409 . S
C1741 C1739 1.415 . S
C1742 H1732 0.930 . S
C1742 C1740 1.419 . S
C1742 C1743 1.362 . S
C1743 H1733 0.930 . S
C1743 C1736 1.409 . S
C1743 C1742 1.362 . S
H1744 C1750 0.930 . S
H1745 C1753 0.930 . S
H1746 C1754 0.930 . S
H1747 C1755 0.930 . S
H1748 C1758 0.930 . S
H1749 C1759 0.930 . S
C1750 H1744 0.930 . S
C1750 C1751 1.355 . S
C1750 C1752 1.415 . S
C1751 C1750 1.355 . S
C1751 C1753 1.419 . S
C1752 C1750 1.415 . S
C1752 C1757 1.425 . S
C1752 C1759 1.409 . S
C1753 H1745 0.930 . S
C1753 C1751 1.419 . S
C1753 C1754 1.362 . S
C1754 H1746 0.930 . S
C1754 C1753 1.362 . S
C1754 C1757 1.409 . S
C1755 H1747 0.930 . S
C1755 C1756 1.355 . S
C1755 C1757 1.415 . S
C1756 C1755 1.355 . S
C1756 C1758 1.419 . S
C1757 C1752 1.425 . S
C1757 C1754 1.409 . S
C1757 C1755 1.415 . S
C1758 H1748 0.930 . S
C1758 C1756 1.419 . S
C1758 C1759 1.362 . S
C1759 H1749 0.930 . S
C1759 C1752 1.409 . S
C1759 C1758 1.362 . S
C743 N347 1.922 . S
C748 N2 1.898 . S
C759 N25 1.949 . S
C764 N278 1.870 . S
C775 N48 1.891 . S
C780 N301 1.929 . S
C791 N324 1.948 . S
C796 N71 1.871 . S
C807 N94 1.870 . S
C812 N209 1.949 . S
C823 N117 1.935 . S
C828 N232 1.885 . S
C839 N255 1.947 . S
C844 N140 1.872 . S
C855 N186 1.891 . S
C860 N163 1.929 . S
C871 N370 1.949 . S
C876 N715 1.870 . S
C887 N393 1.873 . S
C892 N646 1.947 . S
C903 N416 1.911 . S
C908 N669 1.909 . S
C919 N692 1.941 . S
C924 N439 1.879 . S
C935 N462 1.872 . S
C940 N577 1.948 . S
C951 N485 1.949 . S
C956 N600 1.870 . S
C967 N623 1.870 . S
C972 N508 1.949 . S
C983 N531 1.942 . S
C988 N554 1.877 . S
C999 N288 2.018 . S
C1004 N12 1.969 . S
C1015 N35 1.994 . S
C1020 N311 1.992 . S
C1031 N334 1.976 . S
C1036 N58 2.011 . S
C1047 N81 2.015 . S
C1052 N357 1.972 . S
C1063 N104 1.972 . S
C1068 N196 2.014 . S
C1079 N219 1.997 . S
C1084 N127 1.990 . S
C1095 N242 1.969 . S
C1100 N150 2.017 . S
C1111 N265 2.016 . S
C1116 N173 1.970 . S
C1127 N380 1.975 . S
C1132 N656 2.011 . S
C1143 N679 2.016 . S
C1148 N403 1.971 . S
C1159 N426 2.014 . S
C1164 N702 1.972 . S
C1175 N449 2.010 . S
C1180 N725 1.976 . S
C1191 N564 2.008 . S
C1196 N472 1.978 . S
C1207 N495 2.010 . S
C1212 N587 1.976 . S
C1223 N518 1.982 . S
C1228 N610 2.005 . S
C1239 N541 2.017 . S
C1244 N633 1.969 . S
C1255 C7 1.574 . S
C1260 C237 1.561 . S
C1271 C260 1.584 . S
C1276 C30 1.551 . S
C1287 C53 1.557 . S
C1292 C191 1.578 . S
C1303 C214 1.586 . S
C1308 C76 1.550 . S
C1319 C329 1.552 . S
C1324 C99 1.583 . S
C1335 C352 1.565 . S
C1340 C122 1.570 . S
C1351 C283 1.550 . S
C1356 C145 1.585 . S
C1367 C168 1.585 . S
C1372 C306 1.550 . S
C1383 C605 1.553 . S
C1388 C375 1.583 . S
C1399 C398 1.550 . S
C1404 C628 1.585 . S
C1415 C559 1.568 . S
C1420 C421 1.568 . S
C1431 C582 1.570 . S
C1436 C444 1.565 . S
C1447 C467 1.586 . S
C1452 C697 1.550 . S
C1463 C490 1.574 . S
C1468 C720 1.561 . S
C1479 C651 1.561 . S
C1484 C513 1.574 . S
C1495 C674 1.550 . S
C1500 C536 1.586 . S
C1511 C545 1.551 . S
C1516 C16 1.521 . S
C1527 C476 1.548 . S
C1532 C39 1.547 . S
C1543 C499 1.498 . S
C1548 C62 1.512 . S
C1559 C522 1.498 . S
C1564 C85 1.522 . S
C1575 C407 1.547 . S
C1580 C108 1.513 . S
C1591 C131 1.523 . S
C1596 C430 1.498 . S
C1607 C154 1.518 . S
C1612 C453 1.549 . S
C1623 C177 1.541 . S
C1628 C384 1.552 . S
C1639 C200 1.523 . S
C1644 C729 1.551 . S
C1655 C660 1.538 . S
C1660 C223 1.504 . S
C1671 C246 1.509 . S
C1676 C683 1.500 . S
C1687 C269 1.498 . S
C1692 C706 1.522 . S
C1703 C591 1.545 . S
C1708 C292 1.511 . S
C1719 C614 1.500 . S
C1724 C315 1.530 . S
C1735 C338 1.509 . S
C1740 C637 1.543 . S
C1751 C361 1.552 . S
C1756 C568 1.525 . S
