# Generated by pormake.
# Topology whw, (6)-cn, num edge types: 1
# Building blocks:
#     Node 0, Type 0, BuildingBlock: MIDCAF_clean_sbu_0, # of connection points: 6
#     Node 1, Type 0, BuildingBlock: MIDCAF_clean_sbu_0, # of connection points: 6
#     Node 2, Type 0, BuildingBlock: MIDCAF_clean_sbu_0, # of connection points: 6
#     Node 3, Type 0, BuildingBlock: MIDCAF_clean_sbu_0, # of connection points: 6
#     Node 4, Type 0, BuildingBlock: MIDCAF_clean_sbu_0, # of connection points: 6
#     Node 5, Type 0, BuildingBlock: MIDCAF_clean_sbu_0, # of connection points: 6
#     Node 6, Type 0, BuildingBlock: MIDCAF_clean_sbu_0, # of connection points: 6
#     Node 7, Type 0, BuildingBlock: MIDCAF_clean_sbu_0, # of connection points: 6
#     Node 8, Type 0, BuildingBlock: MIDCAF_clean_sbu_0, # of connection points: 6
#     Node 9, Type 0, BuildingBlock: MIDCAF_clean_sbu_0, # of connection points: 6
#     Node 10, Type 0, BuildingBlock: MIDCAF_clean_sbu_0, # of connection points: 6
#     Node 11, Type 0, BuildingBlock: MIDCAF_clean_sbu_0, # of connection points: 6
#     Node 12, Type 0, BuildingBlock: MIDCAF_clean_sbu_0, # of connection points: 6
#     Node 13, Type 0, BuildingBlock: MIDCAF_clean_sbu_0, # of connection points: 6
#     Node 14, Type 0, BuildingBlock: MIDCAF_clean_sbu_0, # of connection points: 6
#     Node 15, Type 0, BuildingBlock: MIDCAF_clean_sbu_0, # of connection points: 6
#     Edge 16, Type (0, 0), None
#     Edge 17, Type (0, 0), None
#     Edge 18, Type (0, 0), None
#     Edge 19, Type (0, 0), None
#     Edge 20, Type (0, 0), None
#     Edge 21, Type (0, 0), None
#     Edge 22, Type (0, 0), None
#     Edge 23, Type (0, 0), None
#     Edge 24, Type (0, 0), None
#     Edge 25, Type (0, 0), None
#     Edge 26, Type (0, 0), None
#     Edge 27, Type (0, 0), None
#     Edge 28, Type (0, 0), None
#     Edge 29, Type (0, 0), None
#     Edge 30, Type (0, 0), None
#     Edge 31, Type (0, 0), None
#     Edge 32, Type (0, 0), None
#     Edge 33, Type (0, 0), None
#     Edge 34, Type (0, 0), None
#     Edge 35, Type (0, 0), None
#     Edge 36, Type (0, 0), None
#     Edge 37, Type (0, 0), None
#     Edge 38, Type (0, 0), None
#     Edge 39, Type (0, 0), None
#     Edge 40, Type (0, 0), None
#     Edge 41, Type (0, 0), None
#     Edge 42, Type (0, 0), None
#     Edge 43, Type (0, 0), None
#     Edge 44, Type (0, 0), None
#     Edge 45, Type (0, 0), None
#     Edge 46, Type (0, 0), None
#     Edge 47, Type (0, 0), None
#     Edge 48, Type (0, 0), None
#     Edge 49, Type (0, 0), None
#     Edge 50, Type (0, 0), None
#     Edge 51, Type (0, 0), None
#     Edge 52, Type (0, 0), None
#     Edge 53, Type (0, 0), None
#     Edge 54, Type (0, 0), None
#     Edge 55, Type (0, 0), None
#     Edge 56, Type (0, 0), None
#     Edge 57, Type (0, 0), None
#     Edge 58, Type (0, 0), None
#     Edge 59, Type (0, 0), None
#     Edge 60, Type (0, 0), None
#     Edge 61, Type (0, 0), None
#     Edge 62, Type (0, 0), None
#     Edge 63, Type (0, 0), None
# Relax obj value: 0.744
# Max RMSD: 0.306
# Mean RMSD: 0.305
data_MOF--net-whw--node1-MIDCAF_clean_sbu_0--edge1-none
_symmetry_space_group_name_H-M    P1
_symmetry_Int_Tables_number       1
_symmetry_cell_setting            triclinic
loop_
_symmetry_equiv_pos_as_xyz
'x, y, z'
_cell_length_a     24.638786
_cell_length_b     24.64053
_cell_length_c     9.9810648
_cell_angle_alpha  89.920051
_cell_angle_beta   90.011189
_cell_angle_gamma 90.382006
loop_
_atom_site_label
_atom_site_type_symbol
_atom_site_fract_x
_atom_site_fract_y
_atom_site_fract_z
_atom_type_partial_charge
Zn0 Zn 0.8543 0.21633 0.14343 0.0
Zn1 Zn 0.08946 0.01357 0.15505 0.0
Zn2 Zn -0.00451 0.09806 0.1427 0.0
C3 C 0.09786 0.1004 0.94807 0.0
C4 C -0.01071 0.97651 0.09282 0.0
O5 O 0.91827 0.13481 0.22159 0.0
O6 O 0.85082 0.17418 0.3261 0.0
C7 C 0.96775 0.22161 0.13737 0.0
O8 O 0.05137 0.11686 0.98654 0.0
O9 O 0.11916 0.05799 0.99736 0.0
O10 O 0.03064 0.95325 0.13904 0.0
O11 O 0.97365 0.0167 0.16174 0.0
O12 O 0.93002 0.25631 0.13661 0.0
O13 O 0.95306 0.1715 0.14078 0.0
O14 O 0.91702 0.13288 0.06853 0.0
O15 O 0.84824 0.17084 0.96684 0.0
C16 C 0.88747 0.13788 0.96131 0.0
O17 O 0.05189 0.12057 0.29491 0.0
O18 O 0.11131 0.05403 0.32098 0.0
C19 C 0.89013 0.14113 0.33084 0.0
C20 C 0.09429 0.10111 0.34963 0.0
Zn21 Zn 0.00593 0.58738 0.39528 0.0
Zn22 Zn 0.21473 0.81934 0.4048 0.0
Zn23 Zn 0.12763 0.72711 0.39371 0.0
C24 C 0.12823 0.82947 0.19804 0.0
C25 C 0.24897 0.71819 0.3462 0.0
O26 O 0.08909 0.65025 0.47244 0.0
O27 O 0.04822 0.58327 0.57758 0.0
C28 C 0.00347 0.70086 0.38919 0.0
O29 O 0.11029 0.78339 0.23738 0.0
O30 O 0.17155 0.84984 0.24624 0.0
O31 O 0.27347 0.75945 0.39026 0.0
O32 O 0.20814 0.70408 0.41559 0.0
O33 O 0.96782 0.66356 0.38888 0.0
O34 O 0.05319 0.68555 0.39235 0.0
O35 O 0.09081 0.64919 0.31939 0.0
O36 O 0.05103 0.58096 0.21808 0.0
C37 C 0.08498 0.61978 0.21224 0.0
O38 O 0.10653 0.78374 0.54563 0.0
O39 O 0.17463 0.84233 0.57035 0.0
C40 C 0.08223 0.62219 0.58185 0.0
C41 C 0.12713 0.82596 0.59966 0.0
Zn42 Zn 0.40334 0.94538 0.65379 0.0
Zn43 Zn 0.63851 0.74256 0.64356 0.0
Zn44 Zn 0.49733 0.86084 0.64219 0.0
C45 C 0.60527 0.82097 0.46076 0.0
C46 C 0.52506 0.73728 0.63746 0.0
O47 O 0.44081 0.83817 0.79419 0.0
O48 O 0.38121 0.90458 0.8192 0.0
C49 C 0.50369 -0.01753 0.59314 0.0
O50 O 0.57575 0.826 0.56796 0.0
O51 O 0.6445 0.78801 0.46655 0.0
O52 O 0.56279 0.70258 0.63702 0.0
O53 O 0.53975 0.78739 0.6407 0.0
O54 O 0.46231 0.00565 0.63922 0.0
O55 O 0.51924 0.94214 0.66194 0.0
O56 O 0.44157 0.8422 0.48579 0.0
O57 O 0.37385 0.90115 0.49571 0.0
C58 C 0.39517 0.85873 0.4468 0.0
O59 O 0.57459 0.82409 0.72102 0.0
O60 O 0.64205 0.78477 0.82588 0.0
C61 C 0.39828 0.85754 0.84831 0.0
C62 C 0.60275 0.81782 0.83032 0.0
Zn63 Zn 0.27827 0.14008 0.90515 0.0
Zn64 Zn 0.48692 0.37188 0.89423 0.0
Zn65 Zn 0.36513 0.23223 0.89332 0.0
C66 C 0.40779 0.33957 0.71148 0.0
C67 C 0.48932 0.2584 0.88887 0.0
O68 O 0.38613 0.17569 0.04596 0.0
O69 O 0.318 0.11718 0.07136 0.0
C70 C 0.24378 0.24114 0.84446 0.0
O71 O 0.40199 0.31013 0.81879 0.0
O72 O 0.44176 0.37837 0.71709 0.0
O73 O 0.52498 0.29569 0.88824 0.0
O74 O 0.43961 0.27371 0.89179 0.0
O75 O 0.21951 0.19987 0.88949 0.0
O76 O 0.28459 0.25565 0.9134 0.0
O77 O 0.38266 0.17586 0.73758 0.0
O78 O 0.3215 0.10934 0.74727 0.0
C79 C 0.36481 0.1297 0.69886 0.0
O80 O 0.40375 0.30901 0.97187 0.0
O81 O 0.4447 0.37596 0.07655 0.0
C82 C 0.3655 0.13354 0.10054 0.0
C83 C 0.41066 0.33705 0.08109 0.0
Zn84 Zn 0.85427 0.74211 0.8987 0.0
Zn85 Zn 0.09053 0.94635 0.88781 0.0
Zn86 Zn -0.00375 0.86117 0.89899 0.0
C87 C 0.09864 0.85975 0.09476 0.0
C88 C -0.01026 -0.0175 0.94661 0.0
O89 O 0.91873 0.82396 0.82063 0.0
O90 O 0.851 0.78426 0.71596 0.0
C91 C 0.96768 0.7375 0.90454 0.0
O92 O 0.05222 0.84281 0.05531 0.0
O93 O 0.12 0.90262 0.0465 0.0
O94 O 0.03156 0.00594 0.90199 0.0
O95 O 0.97435 0.94205 0.87767 0.0
O96 O 0.92971 0.70256 0.9055 0.0
O97 O 0.95333 0.7875 0.90112 0.0
O98 O 0.91766 0.82589 0.97365 0.0
O99 O 0.84866 0.78754 0.07537 0.0
C100 C 0.88813 0.82072 0.08091 0.0
O101 O 0.05244 0.83898 0.74691 0.0
O102 O 0.11269 0.90565 0.72253 0.0
C103 C 0.89055 0.81754 0.71134 0.0
C104 C 0.09519 0.8586 0.69304 0.0
Zn105 Zn 0.27889 0.81824 0.13687 0.0
Zn106 Zn 0.48565 0.58708 0.14845 0.0
Zn107 Zn 0.36476 0.72604 0.14926 0.0
C108 C 0.40659 0.61874 0.33067 0.0
C109 C 0.48883 0.70062 0.15414 0.0
O110 O 0.38624 0.7827 0.99653 0.0
O111 O 0.31861 0.84085 0.97036 0.0
C112 C 0.24316 0.7176 0.19999 0.0
O113 O 0.40106 0.64821 0.22341 0.0
O114 O 0.44029 0.58013 0.32517 0.0
O115 O 0.52419 0.66352 0.15495 0.0
O116 O 0.43898 0.68503 0.15108 0.0
O117 O 0.21939 0.75865 0.15377 0.0
O118 O 0.28373 0.70249 0.13154 0.0
O119 O 0.38284 0.78237 0.30484 0.0
O120 O 0.3227 0.84902 0.29411 0.0
C121 C 0.36558 0.82857 0.34313 0.0
O122 O 0.40296 0.64956 0.07033 0.0
O123 O 0.44358 0.58287 0.96591 0.0
C124 C 0.36599 0.82468 0.94158 0.0
C125 C 0.40983 0.62157 0.96113 0.0
Zn126 Zn 0.40232 0.01299 0.389 0.0
Zn127 Zn 0.63852 0.21726 0.39881 0.0
Zn128 Zn 0.49663 0.09811 0.39961 0.0
C129 C 0.5251 0.22182 0.40452 0.0
C130 C 0.60232 0.14177 0.21201 0.0
O131 O 0.51882 0.01728 0.37843 0.0
O132 O 0.46143 0.95347 0.40198 0.0
C133 C 0.39437 0.09939 0.59583 0.0
O134 O 0.53946 0.17183 0.40134 0.0
O135 O 0.56307 0.25676 0.40524 0.0
O136 O 0.64185 0.17509 0.21641 0.0
O137 O 0.57414 0.13538 0.32129 0.0
O138 O 0.37301 0.05651 0.54794 0.0
O139 O 0.44073 0.11638 0.55599 0.0
O140 O 0.44034 0.12041 0.24751 0.0
O141 O 0.37987 0.05389 0.22409 0.0
C142 C 0.39746 0.10089 0.19412 0.0
O143 O 0.57514 0.13346 0.47432 0.0
O144 O 0.64411 0.17187 0.57588 0.0
C145 C 0.50328 0.9767 0.44693 0.0
C146 C 0.60465 0.13867 0.5816 0.0
Zn147 Zn 0.00718 0.37189 0.64737 0.0
Zn148 Zn 0.21408 0.14056 0.6375 0.0
Zn149 Zn 0.12796 0.23284 0.64899 0.0
C150 C 0.12746 0.13053 0.8442 0.0
C151 C 0.24957 0.24133 0.69824 0.0
O152 O 0.08986 0.30942 0.5699 0.0
O153 O 0.04933 0.37614 0.46493 0.0
C154 C 0.00393 0.25837 0.65381 0.0
O155 O 0.1101 0.17663 0.80522 0.0
O156 O 0.17035 0.11007 0.79546 0.0
O157 O 0.27357 0.20028 0.65303 0.0
O158 O 0.20895 0.25601 0.6293 0.0
O159 O 0.96858 0.29547 0.65424 0.0
O160 O 0.05378 0.27394 0.65053 0.0
O161 O 0.09171 0.31068 0.72296 0.0
O162 O 0.05248 0.37875 0.82425 0.0
C163 C 0.08615 0.34012 0.83006 0.0
O164 O 0.10634 0.17605 0.49703 0.0
O165 O 0.17393 0.11781 0.47173 0.0
C166 C 0.08307 0.33743 0.4605 0.0
C167 C 0.12655 0.13397 0.44274 0.0
Zn168 Zn 0.77894 0.31837 0.63675 0.0
Zn169 Zn -0.01422 0.08717 0.64841 0.0
Zn170 Zn 0.86503 0.22624 0.64913 0.0
C171 C 0.90679 0.11893 0.83073 0.0
C172 C -0.01095 0.20069 0.65405 0.0
O173 O 0.8866 0.28295 0.49664 0.0
O174 O 0.81888 0.34101 0.47051 0.0
C175 C 0.74344 0.21776 0.69901 0.0
O176 O 0.90125 0.1484 0.72346 0.0
O177 O 0.94044 0.08029 0.82521 0.0
O178 O 0.02441 0.16358 0.65479 0.0
O179 O 0.9392 0.18512 0.65091 0.0
O180 O 0.71939 0.25873 0.65324 0.0
O181 O 0.78401 0.20312 0.63001 0.0
O182 O 0.88298 0.28247 0.8049 0.0
O183 O 0.82273 0.34904 0.79426 0.0
C184 C 0.86562 0.32862 0.8433 0.0
O185 O 0.90313 0.14968 0.57037 0.0
O186 O 0.94366 0.08293 0.46592 0.0
C187 C 0.8663 0.32493 0.44179 0.0
C188 C 0.90994 0.12166 0.46118 0.0
Zn189 Zn 0.50704 0.87181 0.14723 0.0
Zn190 Zn 0.71404 0.64044 0.1373 0.0
Zn191 Zn 0.62769 0.73264 0.14879 0.0
C192 C 0.62742 0.63047 0.34429 0.0
C193 C 0.74929 0.74119 0.19716 0.0
O194 O 0.58969 0.8093 0.06986 0.0
O195 O 0.54925 0.87608 0.96486 0.0
C196 C 0.50371 0.75829 0.15363 0.0
O197 O 0.60996 0.67653 0.30519 0.0
O198 O 0.67034 0.61006 0.29553 0.0
O199 O 0.77357 0.70022 0.15241 0.0
O200 O 0.70865 0.75538 0.12769 0.0
O201 O 0.46836 0.79541 0.15398 0.0
O202 O 0.55356 0.77384 0.15028 0.0
O203 O 0.59152 0.8105 0.22293 0.0
O204 O 0.55232 0.8786 0.3242 0.0
C205 C 0.58595 0.83993 0.33002 0.0
O206 O 0.60599 0.67582 0.99706 0.0
O207 O 0.67368 0.61767 0.97178 0.0
C208 C 0.58295 0.83733 0.96047 0.0
C209 C 0.62626 0.63374 0.94285 0.0
Zn210 Zn 0.50606 0.0873 0.89522 0.0
Zn211 Zn 0.71477 0.31925 0.90465 0.0
Zn212 Zn 0.6279 0.22694 0.89358 0.0
C213 C 0.62828 0.32944 0.69817 0.0
C214 C 0.74925 0.21805 0.84523 0.0
O215 O 0.58925 0.15016 0.97249 0.0
O216 O 0.5483 0.0832 0.07758 0.0
C217 C 0.5037 0.20081 0.8891 0.0
O218 O 0.61043 0.28331 0.73742 0.0
O219 O 0.67159 0.34984 0.74633 0.0
O220 O 0.77347 0.2594 0.88973 0.0
O221 O 0.70842 0.20346 0.9141 0.0
O222 O 0.46804 0.16352 0.88869 0.0
O223 O 0.55341 0.18549 0.89218 0.0
O224 O 0.59099 0.14904 0.81942 0.0
O225 O 0.55119 0.08079 0.71813 0.0
C226 C 0.58516 0.11961 0.7123 0.0
O227 O 0.60688 0.28352 0.04571 0.0
O228 O 0.67488 0.34221 0.07044 0.0
C229 C 0.58233 0.12212 0.08189 0.0
C230 C 0.62743 0.32576 0.09981 0.0
Zn231 Zn 0.77821 0.64022 0.40497 0.0
Zn232 Zn -0.01319 0.87196 0.39413 0.0
Zn233 Zn 0.86486 0.73242 0.39312 0.0
C234 C 0.90764 0.83976 0.2115 0.0
C235 C -0.0109 0.75845 0.38874 0.0
O236 O 0.88576 0.67592 0.54599 0.0
O237 O 0.81772 0.61734 0.57145 0.0
C238 C 0.74351 0.74131 0.34338 0.0
O239 O 0.90183 0.8103 0.31878 0.0
O240 O 0.94163 0.87854 0.21709 0.0
O241 O 0.02477 0.79573 0.38802 0.0
O242 O 0.9394 0.77378 0.39157 0.0
O243 O 0.7195 0.69997 0.38888 0.0
O244 O 0.78431 0.7563 0.41176 0.0
O245 O 0.88252 0.67596 0.23758 0.0
O246 O 0.82146 0.60936 0.24736 0.0
C247 C 0.86475 0.62975 0.19897 0.0
O248 O 0.9036 0.80911 0.47187 0.0
O249 O 0.94463 0.87604 0.5765 0.0
C250 C 0.86518 0.63378 0.60067 0.0
C251 C 0.91058 0.83714 0.58109 0.0
Zn252 Zn 0.35418 0.71618 0.64327 0.0
Zn253 Zn 0.58936 0.51346 0.6549 0.0
Zn254 Zn 0.49533 0.59783 0.64249 0.0
C255 C 0.59783 0.60033 0.44815 0.0
C256 C 0.48919 0.4763 0.59203 0.0
O257 O 0.41815 0.63465 0.72151 0.0
O258 O 0.35072 0.67407 0.82599 0.0
C259 C 0.46765 0.72141 0.63721 0.0
O260 O 0.5513 0.61672 0.48653 0.0
O261 O 0.61916 0.55792 0.49741 0.0
O262 O 0.53055 0.45318 0.6386 0.0
O263 O 0.47331 0.51645 0.66072 0.0
O264 O 0.42993 0.75611 0.63638 0.0
O265 O 0.45295 0.6713 0.64053 0.0
O266 O 0.41686 0.6327 0.56844 0.0
O267 O 0.34806 0.67066 0.46676 0.0
C268 C 0.38729 0.6377 0.46125 0.0
O269 O 0.55166 0.62027 0.79489 0.0
O270 O 0.61114 0.5538 0.82102 0.0
C271 C 0.39003 0.64103 0.83076 0.0
C272 C 0.59405 0.60084 0.84972 0.0
Zn273 Zn 0.90344 0.44549 0.15371 0.0
Zn274 Zn 0.13863 0.24271 0.14348 0.0
Zn275 Zn -0.00249 0.36108 0.14203 0.0
C276 C 0.10546 0.32114 0.96079 0.0
C277 C 0.02516 0.23748 0.13739 0.0
O278 O 0.94105 0.33849 0.29424 0.0
O279 O 0.8814 0.40484 0.31936 0.0
C280 C 0.00379 0.48269 0.09223 0.0
O281 O 0.07592 0.32618 0.06795 0.0
O282 O 0.14469 0.28818 0.96656 0.0
O283 O 0.06288 0.20278 0.13689 0.0
O284 O 0.03986 0.28759 0.14053 0.0
O285 O 0.96241 0.50572 0.13875 0.0
O286 O 0.01962 0.4424 0.16079 0.0
O287 O 0.94165 0.34233 0.98584 0.0
O288 O 0.87386 0.40121 0.99587 0.0
C289 C 0.8952 0.3588 0.94697 0.0
O290 O 0.07471 0.32425 0.22103 0.0
O291 O 0.14215 0.28487 0.32586 0.0
C292 C 0.89853 0.35783 0.3485 0.0
C293 C 0.10285 0.31792 0.33033 0.0
Zn294 Zn 0.3544 0.24193 0.39859 0.0
Zn295 Zn 0.59062 0.44626 0.3877 0.0
Zn296 Zn 0.49641 0.36094 0.39883 0.0
C297 C 0.59868 0.35969 0.59488 0.0
C298 C 0.48983 0.48228 0.44581 0.0
O299 O 0.41886 0.32378 0.32059 0.0
O300 O 0.3511 0.28413 0.21591 0.0
C301 C 0.46781 0.23729 0.40443 0.0
O302 O 0.5523 0.34268 0.55534 0.0
O303 O 0.62001 0.40257 0.5466 0.0
O304 O 0.53163 0.50587 0.40157 0.0
O305 O 0.47468 0.4418 0.37669 0.0
O306 O 0.42983 0.20236 0.40534 0.0
O307 O 0.45347 0.28729 0.40093 0.0
O308 O 0.41784 0.32569 0.47363 0.0
O309 O 0.34882 0.28734 0.57533 0.0
C310 C 0.38832 0.3205 0.58089 0.0
O311 O 0.55267 0.33869 0.24695 0.0
O312 O 0.61286 0.40544 0.22262 0.0
C313 C 0.39066 0.31739 0.21132 0.0
C314 C 0.59543 0.35836 0.19317 0.0
Zn315 Zn 0.90218 0.51309 0.88888 0.0
Zn316 Zn 0.13839 0.71741 0.89866 0.0
Zn317 Zn -0.00356 0.59834 0.89938 0.0
C318 C 0.02498 0.72202 0.90437 0.0
C319 C 0.1022 0.6419 0.71195 0.0
O320 O 0.01843 0.51754 0.87729 0.0
O321 O 0.96131 0.45354 0.9015 0.0
C322 C 0.89432 0.59945 0.09593 0.0
O323 O 0.03932 0.67202 0.9011 0.0
O324 O 0.06295 0.75696 0.90505 0.0
O325 O 0.14174 0.67519 0.71632 0.0
O326 O 0.07399 0.63554 0.8212 0.0
O327 O 0.87298 0.55656 0.04804 0.0
O328 O 0.94063 0.61651 0.05596 0.0
O329 O 0.94008 0.62072 0.74751 0.0
O330 O 0.87967 0.55414 0.72418 0.0
C331 C 0.89718 0.60117 0.69425 0.0
O332 O 0.07495 0.63365 0.97425 0.0
O333 O 0.14393 0.67204 0.07579 0.0
C334 C 0.00315 0.47692 0.94602 0.0
C335 C 0.10445 0.63887 0.08153 0.0
loop_
_geom_bond_atom_site_label_1
_geom_bond_atom_site_label_2
_geom_bond_distance
_geom_bond_site_symmetry_2
_ccdc_geom_bond_type
Zn0 O6 1.920 . S
Zn0 O12 1.898 . S
Zn0 O15 1.905 1_554 S
Zn1 O9 1.905 1_554 S
Zn1 O10 1.898 1_545 S
Zn1 O18 1.920 . S
Zn2 O5 2.080 1_455 S
Zn2 O8 2.114 1_554 S
Zn2 O11 2.120 . S
Zn2 O13 2.120 . S
Zn2 O14 2.114 1_454 S
Zn2 O17 2.080 . S
C3 O8 1.166 . S
C3 O9 1.182 . S
C4 O10 1.167 1_545 S
C4 O11 1.299 . S
O5 Zn2 2.080 1_655 S
O5 C19 1.305 . S
O6 Zn0 1.920 . S
O6 C19 1.234 . S
C7 O12 1.167 . S
C7 O13 1.299 1_655 S
O8 Zn2 2.114 1_556 S
O8 C3 1.166 . S
O9 Zn1 1.905 1_556 S
O9 C3 1.182 . S
O10 Zn1 1.898 1_565 S
O10 C4 1.167 1_565 S
O11 Zn2 2.120 . S
O11 C4 1.299 . S
O12 Zn0 1.898 . S
O12 C7 1.167 . S
O13 Zn2 2.120 . S
O13 C7 1.299 1_455 S
O14 Zn2 2.114 1_656 S
O14 C16 1.166 . S
O15 Zn0 1.905 1_556 S
O15 C16 1.182 . S
C16 O14 1.166 . S
C16 O15 1.182 . S
O17 Zn2 2.080 . S
O17 C20 1.305 . S
O18 Zn1 1.920 . S
O18 C20 1.234 . S
C19 O5 1.305 . S
C19 O6 1.234 . S
C20 O17 1.305 . S
C20 O18 1.234 . S
Zn21 O27 1.920 . S
Zn21 O33 1.898 1_455 S
Zn21 O36 1.905 . S
Zn22 O30 1.905 . S
Zn22 O31 1.898 . S
Zn22 O39 1.920 . S
Zn23 O26 2.080 . S
Zn23 O29 2.114 . S
Zn23 O32 2.120 . S
Zn23 O34 2.120 . S
Zn23 O35 2.114 . S
Zn23 O38 2.080 . S
C24 O29 1.166 . S
C24 O30 1.182 . S
C25 O31 1.167 . S
C25 O32 1.299 . S
O26 Zn23 2.080 . S
O26 C40 1.305 . S
O27 Zn21 1.920 . S
O27 C40 1.234 . S
C28 O33 1.167 1_455 S
C28 O34 1.299 . S
O29 Zn23 2.114 . S
O29 C24 1.166 . S
O30 Zn22 1.905 . S
O30 C24 1.182 . S
O31 Zn22 1.898 . S
O31 C25 1.167 . S
O32 Zn23 2.120 . S
O32 C25 1.299 . S
O33 Zn21 1.898 1_655 S
O33 C28 1.167 1_655 S
O34 Zn23 2.120 . S
O34 C28 1.299 . S
O35 Zn23 2.114 . S
O35 C37 1.166 . S
O36 Zn21 1.905 . S
O36 C37 1.182 . S
C37 O35 1.166 . S
C37 O36 1.182 . S
O38 Zn23 2.080 . S
O38 C41 1.305 . S
O39 Zn22 1.920 . S
O39 C41 1.234 . S
C40 O26 1.305 . S
C40 O27 1.234 . S
C41 O38 1.305 . S
C41 O39 1.234 . S
Zn42 O48 1.920 . S
Zn42 O54 1.898 1_565 S
Zn42 O57 1.905 . S
Zn43 O51 1.905 . S
Zn43 O52 1.898 . S
Zn43 O60 1.920 . S
Zn44 O47 2.080 . S
Zn44 O50 2.114 . S
Zn44 O53 2.120 . S
Zn44 O55 2.120 . S
Zn44 O56 2.114 . S
Zn44 O59 2.080 . S
C45 O50 1.166 . S
C45 O51 1.182 . S
C46 O52 1.167 . S
C46 O53 1.299 . S
O47 Zn44 2.080 . S
O47 C61 1.305 . S
O48 Zn42 1.920 . S
O48 C61 1.234 . S
C49 O54 1.167 1_565 S
C49 O55 1.299 . S
O50 Zn44 2.114 . S
O50 C45 1.166 . S
O51 Zn43 1.905 . S
O51 C45 1.182 . S
O52 Zn43 1.898 . S
O52 C46 1.167 . S
O53 Zn44 2.120 . S
O53 C46 1.299 . S
O54 Zn42 1.898 1_545 S
O54 C49 1.167 1_545 S
O55 Zn44 2.120 . S
O55 C49 1.299 . S
O56 Zn44 2.114 . S
O56 C58 1.166 . S
O57 Zn42 1.905 . S
O57 C58 1.182 . S
C58 O56 1.166 . S
C58 O57 1.182 . S
O59 Zn44 2.080 . S
O59 C62 1.305 . S
O60 Zn43 1.920 . S
O60 C62 1.234 . S
C61 O47 1.305 . S
C61 O48 1.234 . S
C62 O59 1.305 . S
C62 O60 1.234 . S
Zn63 O69 1.920 1_556 S
Zn63 O75 1.898 . S
Zn63 O78 1.905 . S
Zn64 O72 1.905 . S
Zn64 O73 1.898 . S
Zn64 O81 1.920 1_556 S
Zn65 O68 2.080 . S
Zn65 O71 2.114 . S
Zn65 O74 2.120 . S
Zn65 O76 2.120 . S
Zn65 O77 2.114 . S
Zn65 O80 2.080 . S
C66 O71 1.166 . S
C66 O72 1.182 . S
C67 O73 1.167 . S
C67 O74 1.299 . S
O68 Zn65 2.080 . S
O68 C82 1.305 1_556 S
O69 Zn63 1.920 1_554 S
O69 C82 1.234 . S
C70 O75 1.167 . S
C70 O76 1.299 . S
O71 Zn65 2.114 . S
O71 C66 1.166 . S
O72 Zn64 1.905 . S
O72 C66 1.182 . S
O73 Zn64 1.898 . S
O73 C67 1.167 . S
O74 Zn65 2.120 . S
O74 C67 1.299 . S
O75 Zn63 1.898 . S
O75 C70 1.167 . S
O76 Zn65 2.120 . S
O76 C70 1.299 . S
O77 Zn65 2.114 . S
O77 C79 1.166 . S
O78 Zn63 1.905 . S
O78 C79 1.182 . S
C79 O77 1.166 . S
C79 O78 1.182 . S
O80 Zn65 2.080 . S
O80 C83 1.305 1_556 S
O81 Zn64 1.920 1_554 S
O81 C83 1.234 . S
C82 O68 1.305 1_554 S
C82 O69 1.234 . S
C83 O80 1.305 1_554 S
C83 O81 1.234 . S
Zn84 O90 1.920 . S
Zn84 O96 1.898 . S
Zn84 O99 1.905 1_556 S
Zn85 O93 1.905 1_556 S
Zn85 O94 1.898 1_565 S
Zn85 O102 1.920 . S
Zn86 O89 2.080 1_455 S
Zn86 O92 2.114 1_556 S
Zn86 O95 2.120 . S
Zn86 O97 2.120 . S
Zn86 O98 2.114 1_456 S
Zn86 O101 2.080 . S
C87 O92 1.166 . S
C87 O93 1.182 . S
C88 O94 1.165 1_565 S
C88 O95 1.306 . S
O89 Zn86 2.080 1_655 S
O89 C103 1.305 . S
O90 Zn84 1.920 . S
O90 C103 1.234 . S
C91 O96 1.167 . S
C91 O97 1.299 1_655 S
O92 Zn86 2.114 1_554 S
O92 C87 1.166 . S
O93 Zn85 1.905 1_554 S
O93 C87 1.182 . S
O94 Zn85 1.898 1_545 S
O94 C88 1.165 1_545 S
O95 Zn86 2.120 . S
O95 C88 1.306 . S
O96 Zn84 1.898 . S
O96 C91 1.167 . S
O97 Zn86 2.120 . S
O97 C91 1.299 1_455 S
O98 Zn86 2.114 1_654 S
O98 C100 1.166 . S
O99 Zn84 1.905 1_554 S
O99 C100 1.182 . S
C100 O98 1.166 . S
C100 O99 1.182 . S
O101 Zn86 2.080 . S
O101 C104 1.305 . S
O102 Zn85 1.920 . S
O102 C104 1.234 . S
C103 O89 1.305 . S
C103 O90 1.234 . S
C104 O101 1.305 . S
C104 O102 1.234 . S
Zn105 O111 1.920 1_554 S
Zn105 O117 1.898 . S
Zn105 O120 1.905 . S
Zn106 O114 1.905 . S
Zn106 O115 1.898 . S
Zn106 O123 1.920 1_554 S
Zn107 O110 2.080 . S
Zn107 O113 2.114 . S
Zn107 O116 2.120 . S
Zn107 O118 2.120 . S
Zn107 O119 2.114 . S
Zn107 O122 2.080 . S
C108 O113 1.166 . S
C108 O114 1.182 . S
C109 O115 1.167 . S
C109 O116 1.299 . S
O110 Zn107 2.080 . S
O110 C124 1.305 1_554 S
O111 Zn105 1.920 1_556 S
O111 C124 1.234 . S
C112 O117 1.167 . S
C112 O118 1.299 . S
O113 Zn107 2.114 . S
O113 C108 1.166 . S
O114 Zn106 1.905 . S
O114 C108 1.182 . S
O115 Zn106 1.898 . S
O115 C109 1.167 . S
O116 Zn107 2.120 . S
O116 C109 1.299 . S
O117 Zn105 1.898 . S
O117 C112 1.167 . S
O118 Zn107 2.120 . S
O118 C112 1.299 . S
O119 Zn107 2.114 . S
O119 C121 1.166 . S
O120 Zn105 1.905 . S
O120 C121 1.182 . S
C121 O119 1.166 . S
C121 O120 1.182 . S
O122 Zn107 2.080 . S
O122 C125 1.305 1_554 S
O123 Zn106 1.920 1_556 S
O123 C125 1.234 . S
C124 O110 1.305 1_556 S
C124 O111 1.234 . S
C125 O122 1.305 1_556 S
C125 O123 1.234 . S
Zn126 O132 1.920 1_545 S
Zn126 O138 1.898 . S
Zn126 O141 1.905 . S
Zn127 O135 1.905 . S
Zn127 O136 1.898 . S
Zn127 O144 1.920 . S
Zn128 O131 2.080 . S
Zn128 O134 2.114 . S
Zn128 O137 2.120 . S
Zn128 O139 2.120 . S
Zn128 O140 2.114 . S
Zn128 O143 2.080 . S
C129 O134 1.166 . S
C129 O135 1.182 . S
C130 O136 1.167 . S
C130 O137 1.299 . S
O131 Zn128 2.080 . S
O131 C145 1.305 . S
O132 Zn126 1.920 1_565 S
O132 C145 1.234 1_565 S
C133 O138 1.167 . S
C133 O139 1.299 . S
O134 Zn128 2.114 . S
O134 C129 1.166 . S
O135 Zn127 1.905 . S
O135 C129 1.182 . S
O136 Zn127 1.898 . S
O136 C130 1.167 . S
O137 Zn128 2.120 . S
O137 C130 1.299 . S
O138 Zn126 1.898 . S
O138 C133 1.167 . S
O139 Zn128 2.120 . S
O139 C133 1.299 . S
O140 Zn128 2.114 . S
O140 C142 1.166 . S
O141 Zn126 1.905 . S
O141 C142 1.182 . S
C142 O140 1.166 . S
C142 O141 1.182 . S
O143 Zn128 2.080 . S
O143 C146 1.305 . S
O144 Zn127 1.920 . S
O144 C146 1.234 . S
C145 O131 1.305 . S
C145 O132 1.234 1_545 S
C146 O143 1.305 . S
C146 O144 1.234 . S
Zn147 O153 1.920 . S
Zn147 O159 1.898 1_455 S
Zn147 O162 1.905 . S
Zn148 O156 1.905 . S
Zn148 O157 1.898 . S
Zn148 O165 1.920 . S
Zn149 O152 2.080 . S
Zn149 O155 2.114 . S
Zn149 O158 2.120 . S
Zn149 O160 2.120 . S
Zn149 O161 2.114 . S
Zn149 O164 2.080 . S
C150 O155 1.166 . S
C150 O156 1.182 . S
C151 O157 1.167 . S
C151 O158 1.299 . S
O152 Zn149 2.080 . S
O152 C166 1.305 . S
O153 Zn147 1.920 . S
O153 C166 1.234 . S
C154 O159 1.167 1_455 S
C154 O160 1.299 . S
O155 Zn149 2.114 . S
O155 C150 1.166 . S
O156 Zn148 1.905 . S
O156 C150 1.182 . S
O157 Zn148 1.898 . S
O157 C151 1.167 . S
O158 Zn149 2.120 . S
O158 C151 1.299 . S
O159 Zn147 1.898 1_655 S
O159 C154 1.167 1_655 S
O160 Zn149 2.120 . S
O160 C154 1.299 . S
O161 Zn149 2.114 . S
O161 C163 1.166 . S
O162 Zn147 1.905 . S
O162 C163 1.182 . S
C163 O161 1.166 . S
C163 O162 1.182 . S
O164 Zn149 2.080 . S
O164 C167 1.305 . S
O165 Zn148 1.920 . S
O165 C167 1.234 . S
C166 O152 1.305 . S
C166 O153 1.234 . S
C167 O164 1.305 . S
C167 O165 1.234 . S
Zn168 O174 1.920 . S
Zn168 O180 1.898 . S
Zn168 O183 1.905 . S
Zn169 O177 1.905 . S
Zn169 O178 1.898 1_655 S
Zn169 O186 1.920 . S
Zn170 O173 2.080 . S
Zn170 O176 2.114 . S
Zn170 O179 2.120 . S
Zn170 O181 2.120 . S
Zn170 O182 2.114 . S
Zn170 O185 2.080 . S
C171 O176 1.166 . S
C171 O177 1.182 . S
C172 O178 1.167 . S
C172 O179 1.299 1_455 S
O173 Zn170 2.080 . S
O173 C187 1.305 . S
O174 Zn168 1.920 . S
O174 C187 1.234 . S
C175 O180 1.167 . S
C175 O181 1.299 . S
O176 Zn170 2.114 . S
O176 C171 1.166 . S
O177 Zn169 1.905 . S
O177 C171 1.182 . S
O178 Zn169 1.898 1_455 S
O178 C172 1.167 . S
O179 Zn170 2.120 . S
O179 C172 1.299 1_655 S
O180 Zn168 1.898 . S
O180 C175 1.167 . S
O181 Zn170 2.120 . S
O181 C175 1.299 . S
O182 Zn170 2.114 . S
O182 C184 1.166 . S
O183 Zn168 1.905 . S
O183 C184 1.182 . S
C184 O182 1.166 . S
C184 O183 1.182 . S
O185 Zn170 2.080 . S
O185 C188 1.305 . S
O186 Zn169 1.920 . S
O186 C188 1.234 . S
C187 O173 1.305 . S
C187 O174 1.234 . S
C188 O185 1.305 . S
C188 O186 1.234 . S
Zn189 O195 1.920 1_554 S
Zn189 O201 1.898 . S
Zn189 O204 1.905 . S
Zn190 O198 1.905 . S
Zn190 O199 1.898 . S
Zn190 O207 1.920 1_554 S
Zn191 O194 2.080 . S
Zn191 O197 2.114 . S
Zn191 O200 2.120 . S
Zn191 O202 2.120 . S
Zn191 O203 2.114 . S
Zn191 O206 2.080 . S
C192 O197 1.166 . S
C192 O198 1.182 . S
C193 O199 1.167 . S
C193 O200 1.299 . S
O194 Zn191 2.080 . S
O194 C208 1.305 1_554 S
O195 Zn189 1.920 1_556 S
O195 C208 1.234 . S
C196 O201 1.167 . S
C196 O202 1.299 . S
O197 Zn191 2.114 . S
O197 C192 1.166 . S
O198 Zn190 1.905 . S
O198 C192 1.182 . S
O199 Zn190 1.898 . S
O199 C193 1.167 . S
O200 Zn191 2.120 . S
O200 C193 1.299 . S
O201 Zn189 1.898 . S
O201 C196 1.167 . S
O202 Zn191 2.120 . S
O202 C196 1.299 . S
O203 Zn191 2.114 . S
O203 C205 1.166 . S
O204 Zn189 1.905 . S
O204 C205 1.182 . S
C205 O203 1.166 . S
C205 O204 1.182 . S
O206 Zn191 2.080 . S
O206 C209 1.305 1_554 S
O207 Zn190 1.920 1_556 S
O207 C209 1.234 . S
C208 O194 1.305 1_556 S
C208 O195 1.234 . S
C209 O206 1.305 1_556 S
C209 O207 1.234 . S
Zn210 O216 1.920 1_556 S
Zn210 O222 1.898 . S
Zn210 O225 1.905 . S
Zn211 O219 1.905 . S
Zn211 O220 1.898 . S
Zn211 O228 1.920 1_556 S
Zn212 O215 2.080 . S
Zn212 O218 2.114 . S
Zn212 O221 2.120 . S
Zn212 O223 2.120 . S
Zn212 O224 2.114 . S
Zn212 O227 2.080 . S
C213 O218 1.166 . S
C213 O219 1.182 . S
C214 O220 1.167 . S
C214 O221 1.299 . S
O215 Zn212 2.080 . S
O215 C229 1.305 1_556 S
O216 Zn210 1.920 1_554 S
O216 C229 1.234 . S
C217 O222 1.167 . S
C217 O223 1.299 . S
O218 Zn212 2.114 . S
O218 C213 1.166 . S
O219 Zn211 1.905 . S
O219 C213 1.182 . S
O220 Zn211 1.898 . S
O220 C214 1.167 . S
O221 Zn212 2.120 . S
O221 C214 1.299 . S
O222 Zn210 1.898 . S
O222 C217 1.167 . S
O223 Zn212 2.120 . S
O223 C217 1.299 . S
O224 Zn212 2.114 . S
O224 C226 1.166 . S
O225 Zn210 1.905 . S
O225 C226 1.182 . S
C226 O224 1.166 . S
C226 O225 1.182 . S
O227 Zn212 2.080 . S
O227 C230 1.305 1_556 S
O228 Zn211 1.920 1_554 S
O228 C230 1.234 . S
C229 O215 1.305 1_554 S
C229 O216 1.234 . S
C230 O227 1.305 1_554 S
C230 O228 1.234 . S
Zn231 O237 1.920 . S
Zn231 O243 1.898 . S
Zn231 O246 1.905 . S
Zn232 O240 1.905 . S
Zn232 O241 1.898 1_655 S
Zn232 O249 1.920 . S
Zn233 O236 2.080 . S
Zn233 O239 2.114 . S
Zn233 O242 2.120 . S
Zn233 O244 2.120 . S
Zn233 O245 2.114 . S
Zn233 O248 2.080 . S
C234 O239 1.166 . S
C234 O240 1.182 . S
C235 O241 1.167 . S
C235 O242 1.299 1_455 S
O236 Zn233 2.080 . S
O236 C250 1.305 . S
O237 Zn231 1.920 . S
O237 C250 1.234 . S
C238 O243 1.167 . S
C238 O244 1.299 . S
O239 Zn233 2.114 . S
O239 C234 1.166 . S
O240 Zn232 1.905 . S
O240 C234 1.182 . S
O241 Zn232 1.898 1_455 S
O241 C235 1.167 . S
O242 Zn233 2.120 . S
O242 C235 1.299 1_655 S
O243 Zn231 1.898 . S
O243 C238 1.167 . S
O244 Zn233 2.120 . S
O244 C238 1.299 . S
O245 Zn233 2.114 . S
O245 C247 1.166 . S
O246 Zn231 1.905 . S
O246 C247 1.182 . S
C247 O245 1.166 . S
C247 O246 1.182 . S
O248 Zn233 2.080 . S
O248 C251 1.305 . S
O249 Zn232 1.920 . S
O249 C251 1.234 . S
C250 O236 1.305 . S
C250 O237 1.234 . S
C251 O248 1.305 . S
C251 O249 1.234 . S
Zn252 O258 1.920 . S
Zn252 O264 1.898 . S
Zn252 O267 1.905 . S
Zn253 O261 1.905 . S
Zn253 O262 1.898 . S
Zn253 O270 1.920 . S
Zn254 O257 2.080 . S
Zn254 O260 2.114 . S
Zn254 O263 2.120 . S
Zn254 O265 2.120 . S
Zn254 O266 2.114 . S
Zn254 O269 2.080 . S
C255 O260 1.166 . S
C255 O261 1.182 . S
C256 O262 1.167 . S
C256 O263 1.299 . S
O257 Zn254 2.080 . S
O257 C271 1.305 . S
O258 Zn252 1.920 . S
O258 C271 1.234 . S
C259 O264 1.167 . S
C259 O265 1.299 . S
O260 Zn254 2.114 . S
O260 C255 1.166 . S
O261 Zn253 1.905 . S
O261 C255 1.182 . S
O262 Zn253 1.898 . S
O262 C256 1.167 . S
O263 Zn254 2.120 . S
O263 C256 1.299 . S
O264 Zn252 1.898 . S
O264 C259 1.167 . S
O265 Zn254 2.120 . S
O265 C259 1.299 . S
O266 Zn254 2.114 . S
O266 C268 1.166 . S
O267 Zn252 1.905 . S
O267 C268 1.182 . S
C268 O266 1.166 . S
C268 O267 1.182 . S
O269 Zn254 2.080 . S
O269 C272 1.305 . S
O270 Zn253 1.920 . S
O270 C272 1.234 . S
C271 O257 1.305 . S
C271 O258 1.234 . S
C272 O269 1.305 . S
C272 O270 1.234 . S
Zn273 O279 1.920 . S
Zn273 O285 1.898 . S
Zn273 O288 1.905 1_554 S
Zn274 O282 1.905 1_554 S
Zn274 O283 1.898 . S
Zn274 O291 1.920 . S
Zn275 O278 2.080 1_455 S
Zn275 O281 2.114 1_554 S
Zn275 O284 2.120 . S
Zn275 O286 2.120 . S
Zn275 O287 2.114 1_454 S
Zn275 O290 2.080 . S
C276 O281 1.166 . S
C276 O282 1.182 . S
C277 O283 1.167 . S
C277 O284 1.299 . S
O278 Zn275 2.080 1_655 S
O278 C292 1.305 . S
O279 Zn273 1.920 . S
O279 C292 1.234 . S
C280 O285 1.160 1_455 S
C280 O286 1.302 . S
O281 Zn275 2.114 1_556 S
O281 C276 1.166 . S
O282 Zn274 1.905 1_556 S
O282 C276 1.182 . S
O283 Zn274 1.898 . S
O283 C277 1.167 . S
O284 Zn275 2.120 . S
O284 C277 1.299 . S
O285 Zn273 1.898 . S
O285 C280 1.160 1_655 S
O286 Zn275 2.120 . S
O286 C280 1.302 . S
O287 Zn275 2.114 1_656 S
O287 C289 1.166 . S
O288 Zn273 1.905 1_556 S
O288 C289 1.182 . S
C289 O287 1.166 . S
C289 O288 1.182 . S
O290 Zn275 2.080 . S
O290 C293 1.305 . S
O291 Zn274 1.920 . S
O291 C293 1.234 . S
C292 O278 1.305 . S
C292 O279 1.234 . S
C293 O290 1.305 . S
C293 O291 1.234 . S
Zn294 O300 1.920 . S
Zn294 O306 1.898 . S
Zn294 O309 1.905 . S
Zn295 O303 1.905 . S
Zn295 O304 1.898 . S
Zn295 O312 1.920 . S
Zn296 O299 2.080 . S
Zn296 O302 2.114 . S
Zn296 O305 2.120 . S
Zn296 O307 2.120 . S
Zn296 O308 2.114 . S
Zn296 O311 2.080 . S
C297 O302 1.166 . S
C297 O303 1.182 . S
C298 O304 1.167 . S
C298 O305 1.299 . S
O299 Zn296 2.080 . S
O299 C313 1.305 . S
O300 Zn294 1.920 . S
O300 C313 1.234 . S
C301 O306 1.167 . S
C301 O307 1.299 . S
O302 Zn296 2.114 . S
O302 C297 1.166 . S
O303 Zn295 1.905 . S
O303 C297 1.182 . S
O304 Zn295 1.898 . S
O304 C298 1.167 . S
O305 Zn296 2.120 . S
O305 C298 1.299 . S
O306 Zn294 1.898 . S
O306 C301 1.167 . S
O307 Zn296 2.120 . S
O307 C301 1.299 . S
O308 Zn296 2.114 . S
O308 C310 1.166 . S
O309 Zn294 1.905 . S
O309 C310 1.182 . S
C310 O308 1.166 . S
C310 O309 1.182 . S
O311 Zn296 2.080 . S
O311 C314 1.305 . S
O312 Zn295 1.920 . S
O312 C314 1.234 . S
C313 O299 1.305 . S
C313 O300 1.234 . S
C314 O311 1.305 . S
C314 O312 1.234 . S
Zn315 O321 1.920 . S
Zn315 O327 1.898 1_556 S
Zn315 O330 1.905 . S
Zn316 O324 1.905 . S
Zn316 O325 1.898 . S
Zn316 O333 1.914 1_556 S
Zn317 O320 2.080 . S
Zn317 O323 2.114 . S
Zn317 O326 2.120 . S
Zn317 O328 2.120 1_456 S
Zn317 O329 2.114 1_455 S
Zn317 O332 2.080 1_556 S
C318 O323 1.166 . S
C318 O324 1.182 . S
C319 O325 1.167 . S
C319 O326 1.299 . S
O320 Zn317 2.080 . S
O320 C334 1.305 1_455 S
O321 Zn315 1.920 . S
O321 C334 1.234 . S
C322 O327 1.167 . S
C322 O328 1.299 . S
O323 Zn317 2.114 . S
O323 C318 1.166 . S
O324 Zn316 1.905 . S
O324 C318 1.182 . S
O325 Zn316 1.898 . S
O325 C319 1.167 . S
O326 Zn317 2.120 . S
O326 C319 1.299 . S
O327 Zn315 1.898 1_554 S
O327 C322 1.167 . S
O328 Zn317 2.120 1_654 S
O328 C322 1.299 . S
O329 Zn317 2.114 1_655 S
O329 C331 1.166 . S
O330 Zn315 1.905 . S
O330 C331 1.182 . S
C331 O329 1.166 . S
C331 O330 1.182 . S
O332 Zn317 2.080 1_554 S
O332 C335 1.305 . S
O333 Zn316 1.914 1_554 S
O333 C335 1.239 . S
C334 O320 1.305 1_655 S
C334 O321 1.234 . S
C335 O332 1.305 . S
C335 O333 1.239 . S
C3 C150 1.579 . S
C24 C87 1.585 . S
C121 C58 1.579 . S
C79 C133 1.596 . S
C234 C100 1.566 . S
C171 C16 1.545 . S
C226 C146 1.531 . S
C45 C205 1.544 . S
C192 C255 1.579 . S
C213 C297 1.585 . S
C289 C184 1.579 . S
C247 C322 1.596 . S
C310 C66 1.566 . S
C268 C108 1.546 . S
C37 C335 1.531 . S
C163 C276 1.544 . S
C277 C7 1.308 1_455 S
C235 C28 1.214 . S
C259 C46 1.308 . S
C217 C67 1.213 . S
C91 C318 1.147 1_655 S
C196 C109 1.306 . S
C129 C301 1.147 . S
C154 C172 1.306 . S
C4 C88 0.808 1_544 S
C25 C112 0.812 . S
C145 C49 0.812 1_545 S
C70 C151 0.809 . S
C214 C175 0.812 . S
C238 C193 0.808 . S
C256 C298 0.808 . S
C334 C280 0.812 1_656 S
C20 C167 2.493 . S
C41 C104 2.514 . S
C124 C61 2.486 . S
C142 C82 2.539 . S
C251 C103 1.041 . S
C188 C19 1.062 . S
C229 C130 1.028 . S
C62 C208 1.063 . S
C272 C209 2.493 . S
C314 C230 2.515 . S
C292 C187 2.486 . S
C331 C250 2.540 . S
C313 C83 1.041 . S
C125 C271 1.062 . S
C40 C319 1.028 . S
C293 C166 1.063 . S
