# Generated by pormake.
# Topology sxg, (6)-cn, num edge types: 1
# Building blocks:
#     Node 0, Type 0, BuildingBlock: OJICUG_clean_sbu_0, # of connection points: 6
#     Node 1, Type 0, BuildingBlock: OJICUG_clean_sbu_0, # of connection points: 6
#     Node 2, Type 0, BuildingBlock: OJICUG_clean_sbu_0, # of connection points: 6
#     Node 3, Type 0, BuildingBlock: OJICUG_clean_sbu_0, # of connection points: 6
#     Node 4, Type 0, BuildingBlock: OJICUG_clean_sbu_0, # of connection points: 6
#     Node 5, Type 0, BuildingBlock: OJICUG_clean_sbu_0, # of connection points: 6
#     Node 6, Type 0, BuildingBlock: OJICUG_clean_sbu_0, # of connection points: 6
#     Node 7, Type 0, BuildingBlock: OJICUG_clean_sbu_0, # of connection points: 6
#     Node 8, Type 0, BuildingBlock: OJICUG_clean_sbu_0, # of connection points: 6
#     Node 9, Type 0, BuildingBlock: OJICUG_clean_sbu_0, # of connection points: 6
#     Node 10, Type 0, BuildingBlock: OJICUG_clean_sbu_0, # of connection points: 6
#     Node 11, Type 0, BuildingBlock: OJICUG_clean_sbu_0, # of connection points: 6
#     Node 12, Type 0, BuildingBlock: OJICUG_clean_sbu_0, # of connection points: 6
#     Node 13, Type 0, BuildingBlock: OJICUG_clean_sbu_0, # of connection points: 6
#     Node 14, Type 0, BuildingBlock: OJICUG_clean_sbu_0, # of connection points: 6
#     Node 15, Type 0, BuildingBlock: OJICUG_clean_sbu_0, # of connection points: 6
#     Node 16, Type 0, BuildingBlock: OJICUG_clean_sbu_0, # of connection points: 6
#     Node 17, Type 0, BuildingBlock: OJICUG_clean_sbu_0, # of connection points: 6
#     Node 18, Type 0, BuildingBlock: OJICUG_clean_sbu_0, # of connection points: 6
#     Node 19, Type 0, BuildingBlock: OJICUG_clean_sbu_0, # of connection points: 6
#     Node 20, Type 0, BuildingBlock: OJICUG_clean_sbu_0, # of connection points: 6
#     Node 21, Type 0, BuildingBlock: OJICUG_clean_sbu_0, # of connection points: 6
#     Node 22, Type 0, BuildingBlock: OJICUG_clean_sbu_0, # of connection points: 6
#     Node 23, Type 0, BuildingBlock: OJICUG_clean_sbu_0, # of connection points: 6
#     Edge 24, Type (0, 0), BuildingBlock: XUDNAN_clean_linker_2, # of connection points: 2
#     Edge 25, Type (0, 0), BuildingBlock: XUDNAN_clean_linker_2, # of connection points: 2
#     Edge 26, Type (0, 0), BuildingBlock: XUDNAN_clean_linker_2, # of connection points: 2
#     Edge 27, Type (0, 0), BuildingBlock: XUDNAN_clean_linker_2, # of connection points: 2
#     Edge 28, Type (0, 0), BuildingBlock: XUDNAN_clean_linker_2, # of connection points: 2
#     Edge 29, Type (0, 0), BuildingBlock: XUDNAN_clean_linker_2, # of connection points: 2
#     Edge 30, Type (0, 0), BuildingBlock: XUDNAN_clean_linker_2, # of connection points: 2
#     Edge 31, Type (0, 0), BuildingBlock: XUDNAN_clean_linker_2, # of connection points: 2
#     Edge 32, Type (0, 0), BuildingBlock: XUDNAN_clean_linker_2, # of connection points: 2
#     Edge 33, Type (0, 0), BuildingBlock: XUDNAN_clean_linker_2, # of connection points: 2
#     Edge 34, Type (0, 0), BuildingBlock: XUDNAN_clean_linker_2, # of connection points: 2
#     Edge 35, Type (0, 0), BuildingBlock: XUDNAN_clean_linker_2, # of connection points: 2
#     Edge 36, Type (0, 0), BuildingBlock: XUDNAN_clean_linker_2, # of connection points: 2
#     Edge 37, Type (0, 0), BuildingBlock: XUDNAN_clean_linker_2, # of connection points: 2
#     Edge 38, Type (0, 0), BuildingBlock: XUDNAN_clean_linker_2, # of connection points: 2
#     Edge 39, Type (0, 0), BuildingBlock: XUDNAN_clean_linker_2, # of connection points: 2
#     Edge 40, Type (0, 0), BuildingBlock: XUDNAN_clean_linker_2, # of connection points: 2
#     Edge 41, Type (0, 0), BuildingBlock: XUDNAN_clean_linker_2, # of connection points: 2
#     Edge 42, Type (0, 0), BuildingBlock: XUDNAN_clean_linker_2, # of connection points: 2
#     Edge 43, Type (0, 0), BuildingBlock: XUDNAN_clean_linker_2, # of connection points: 2
#     Edge 44, Type (0, 0), BuildingBlock: XUDNAN_clean_linker_2, # of connection points: 2
#     Edge 45, Type (0, 0), BuildingBlock: XUDNAN_clean_linker_2, # of connection points: 2
#     Edge 46, Type (0, 0), BuildingBlock: XUDNAN_clean_linker_2, # of connection points: 2
#     Edge 47, Type (0, 0), BuildingBlock: XUDNAN_clean_linker_2, # of connection points: 2
#     Edge 48, Type (0, 0), BuildingBlock: XUDNAN_clean_linker_2, # of connection points: 2
#     Edge 49, Type (0, 0), BuildingBlock: XUDNAN_clean_linker_2, # of connection points: 2
#     Edge 50, Type (0, 0), BuildingBlock: XUDNAN_clean_linker_2, # of connection points: 2
#     Edge 51, Type (0, 0), BuildingBlock: XUDNAN_clean_linker_2, # of connection points: 2
#     Edge 52, Type (0, 0), BuildingBlock: XUDNAN_clean_linker_2, # of connection points: 2
#     Edge 53, Type (0, 0), BuildingBlock: XUDNAN_clean_linker_2, # of connection points: 2
#     Edge 54, Type (0, 0), BuildingBlock: XUDNAN_clean_linker_2, # of connection points: 2
#     Edge 55, Type (0, 0), BuildingBlock: XUDNAN_clean_linker_2, # of connection points: 2
#     Edge 56, Type (0, 0), BuildingBlock: XUDNAN_clean_linker_2, # of connection points: 2
#     Edge 57, Type (0, 0), BuildingBlock: XUDNAN_clean_linker_2, # of connection points: 2
#     Edge 58, Type (0, 0), BuildingBlock: XUDNAN_clean_linker_2, # of connection points: 2
#     Edge 59, Type (0, 0), BuildingBlock: XUDNAN_clean_linker_2, # of connection points: 2
#     Edge 60, Type (0, 0), BuildingBlock: XUDNAN_clean_linker_2, # of connection points: 2
#     Edge 61, Type (0, 0), BuildingBlock: XUDNAN_clean_linker_2, # of connection points: 2
#     Edge 62, Type (0, 0), BuildingBlock: XUDNAN_clean_linker_2, # of connection points: 2
#     Edge 63, Type (0, 0), BuildingBlock: XUDNAN_clean_linker_2, # of connection points: 2
#     Edge 64, Type (0, 0), BuildingBlock: XUDNAN_clean_linker_2, # of connection points: 2
#     Edge 65, Type (0, 0), BuildingBlock: XUDNAN_clean_linker_2, # of connection points: 2
#     Edge 66, Type (0, 0), BuildingBlock: XUDNAN_clean_linker_2, # of connection points: 2
#     Edge 67, Type (0, 0), BuildingBlock: XUDNAN_clean_linker_2, # of connection points: 2
#     Edge 68, Type (0, 0), BuildingBlock: XUDNAN_clean_linker_2, # of connection points: 2
#     Edge 69, Type (0, 0), BuildingBlock: XUDNAN_clean_linker_2, # of connection points: 2
#     Edge 70, Type (0, 0), BuildingBlock: XUDNAN_clean_linker_2, # of connection points: 2
#     Edge 71, Type (0, 0), BuildingBlock: XUDNAN_clean_linker_2, # of connection points: 2
#     Edge 72, Type (0, 0), BuildingBlock: XUDNAN_clean_linker_2, # of connection points: 2
#     Edge 73, Type (0, 0), BuildingBlock: XUDNAN_clean_linker_2, # of connection points: 2
#     Edge 74, Type (0, 0), BuildingBlock: XUDNAN_clean_linker_2, # of connection points: 2
#     Edge 75, Type (0, 0), BuildingBlock: XUDNAN_clean_linker_2, # of connection points: 2
#     Edge 76, Type (0, 0), BuildingBlock: XUDNAN_clean_linker_2, # of connection points: 2
#     Edge 77, Type (0, 0), BuildingBlock: XUDNAN_clean_linker_2, # of connection points: 2
#     Edge 78, Type (0, 0), BuildingBlock: XUDNAN_clean_linker_2, # of connection points: 2
#     Edge 79, Type (0, 0), BuildingBlock: XUDNAN_clean_linker_2, # of connection points: 2
#     Edge 80, Type (0, 0), BuildingBlock: XUDNAN_clean_linker_2, # of connection points: 2
#     Edge 81, Type (0, 0), BuildingBlock: XUDNAN_clean_linker_2, # of connection points: 2
#     Edge 82, Type (0, 0), BuildingBlock: XUDNAN_clean_linker_2, # of connection points: 2
#     Edge 83, Type (0, 0), BuildingBlock: XUDNAN_clean_linker_2, # of connection points: 2
#     Edge 84, Type (0, 0), BuildingBlock: XUDNAN_clean_linker_2, # of connection points: 2
#     Edge 85, Type (0, 0), BuildingBlock: XUDNAN_clean_linker_2, # of connection points: 2
#     Edge 86, Type (0, 0), BuildingBlock: XUDNAN_clean_linker_2, # of connection points: 2
#     Edge 87, Type (0, 0), BuildingBlock: XUDNAN_clean_linker_2, # of connection points: 2
#     Edge 88, Type (0, 0), BuildingBlock: XUDNAN_clean_linker_2, # of connection points: 2
#     Edge 89, Type (0, 0), BuildingBlock: XUDNAN_clean_linker_2, # of connection points: 2
#     Edge 90, Type (0, 0), BuildingBlock: XUDNAN_clean_linker_2, # of connection points: 2
#     Edge 91, Type (0, 0), BuildingBlock: XUDNAN_clean_linker_2, # of connection points: 2
#     Edge 92, Type (0, 0), BuildingBlock: XUDNAN_clean_linker_2, # of connection points: 2
#     Edge 93, Type (0, 0), BuildingBlock: XUDNAN_clean_linker_2, # of connection points: 2
#     Edge 94, Type (0, 0), BuildingBlock: XUDNAN_clean_linker_2, # of connection points: 2
#     Edge 95, Type (0, 0), BuildingBlock: XUDNAN_clean_linker_2, # of connection points: 2
# Relax obj value: 0.142
# Max RMSD: 0.235
# Mean RMSD: 0.235
data_MOF--net-sxg--node1-OJICUG_clean_sbu_0--edge1-XUDNAN_clean_linker_2
_symmetry_space_group_name_H-M    P1
_symmetry_Int_Tables_number       1
_symmetry_cell_setting            triclinic
loop_
_symmetry_equiv_pos_as_xyz
'x, y, z'
_cell_length_a     46.660861
_cell_length_b     46.657678
_cell_length_c     46.671198
_cell_angle_alpha  90.109005
_cell_angle_beta   89.899024
_cell_angle_gamma 90.022255
loop_
_atom_site_label
_atom_site_type_symbol
_atom_site_fract_x
_atom_site_fract_y
_atom_site_fract_z
_atom_type_partial_charge
Sc0 Sc 0.07196 0.38042 0.16921 0.0
Sc1 Sc 0.05911 0.35907 0.24043 0.0
Sc2 Sc 0.0604 0.30762 0.18487 0.0
O3 O 0.06348 0.349 0.1982 0.0
C4 C 0.03159 0.3389 0.13203 0.0
C5 C 0.02328 0.4084 0.20789 0.0
C6 C 0.01187 0.30953 0.23342 0.0
C7 C 0.10965 0.40144 0.22246 0.0
C8 C 0.1157 0.33161 0.15146 0.0
C9 C 0.09473 0.30086 0.24348 0.0
O10 O 0.04453 0.36237 0.13686 0.0
O11 O 0.03001 0.39408 0.23021 0.0
O12 O 0.02224 0.29916 0.21028 0.0
O13 O 0.10192 0.40245 0.19644 0.0
O14 O 0.09977 0.31122 0.16027 0.0
O15 O 0.08702 0.32466 0.25449 0.0
O16 O 0.10842 0.35779 0.153 0.0
O17 O 0.09637 0.38661 0.24101 0.0
O18 O 0.0865 0.29255 0.21898 0.0
O19 O 0.0362 0.4055 0.18401 0.0
O20 O 0.03376 0.31732 0.14841 0.0
O21 O 0.02249 0.33141 0.24582 0.0
Sc22 Sc 0.42531 0.6204 0.67428 0.0
Sc23 Sc 0.44877 0.64207 0.7426 0.0
Sc24 Sc 0.43862 0.69323 0.68814 0.0
O25 O 0.43778 0.65188 0.70166 0.0
C26 C 0.46765 0.65972 0.63661 0.0
C27 C 0.4748 0.58853 0.70846 0.0
C28 C 0.49248 0.69198 0.73155 0.0
C29 C 0.39273 0.60386 0.73193 0.0
C30 C 0.38333 0.66983 0.65496 0.0
C31 C 0.41199 0.70005 0.74964 0.0
O32 O 0.45432 0.63638 0.64176 0.0
O33 O 0.47458 0.6049 0.73032 0.0
O34 O 0.47676 0.70382 0.71266 0.0
O35 O 0.39542 0.60238 0.70482 0.0
O36 O 0.3993 0.69009 0.66368 0.0
O37 O 0.42517 0.67847 0.76002 0.0
O38 O 0.39004 0.64378 0.65772 0.0
O39 O 0.41055 0.61689 0.74794 0.0
O40 O 0.41288 0.70666 0.72329 0.0
O41 O 0.45828 0.59206 0.68731 0.0
O42 O 0.46469 0.68232 0.65165 0.0
O43 O 0.48712 0.66728 0.74163 0.0
Sc44 Sc 0.56618 0.20076 0.80525 0.0
Sc45 Sc 0.55664 0.14413 0.75639 0.0
Sc46 Sc 0.56831 0.12937 0.82966 0.0
O47 O 0.56355 0.15811 0.79711 0.0
C48 C 0.61734 0.1748 0.84279 0.0
C49 C 0.59674 0.19853 0.74484 0.0
C50 C 0.60448 0.10107 0.77793 0.0
C51 C 0.51372 0.19659 0.76129 0.0
C52 C 0.53229 0.1791 0.86054 0.0
C53 C 0.51917 0.09969 0.79377 0.0
O54 O 0.60497 0.19544 0.82997 0.0
O55 O 0.58445 0.17578 0.7362 0.0
O56 O 0.59679 0.10271 0.80413 0.0
O57 O 0.52832 0.21031 0.77988 0.0
O58 O 0.54094 0.15323 0.85911 0.0
O59 O 0.52724 0.11103 0.77031 0.0
O60 O 0.53954 0.19793 0.84236 0.0
O61 O 0.52053 0.17198 0.75176 0.0
O62 O 0.53108 0.10522 0.81756 0.0
O63 O 0.59311 0.20899 0.76957 0.0
O64 O 0.60631 0.15003 0.84491 0.0
O65 O 0.59253 0.11539 0.75811 0.0
Sc66 Sc 0.93054 0.80158 0.30581 0.0
Sc67 Sc 0.94233 0.86099 0.26076 0.0
Sc68 Sc 0.92432 0.87109 0.33368 0.0
O69 O 0.93279 0.84459 0.30011 0.0
C70 C 0.87704 0.8233 0.34324 0.0
C71 C 0.90296 0.80652 0.24484 0.0
C72 C 0.89028 0.90028 0.28134 0.0
C73 C 0.98461 0.80826 0.26277 0.0
C74 C 0.96174 0.82157 0.36328 0.0
C75 C 0.97379 0.90598 0.30279 0.0
O76 O 0.89087 0.80365 0.3303 0.0
O77 O 0.91719 0.82872 0.23756 0.0
O78 O 0.89585 0.89711 0.3079 0.0
O79 O 0.96855 0.79347 0.27932 0.0
O80 O 0.95146 0.84692 0.36298 0.0
O81 O 0.96965 0.89524 0.27797 0.0
O82 O 0.95668 0.80333 0.34362 0.0
O83 O 0.97969 0.83436 0.2566 0.0
O84 O 0.95992 0.89805 0.32474 0.0
O85 O 0.90392 0.79598 0.26974 0.0
O86 O 0.88685 0.84837 0.34632 0.0
O87 O 0.90491 0.88833 0.26158 0.0
Sc88 Sc 0.17379 0.07818 0.37468 0.0
Sc89 Sc 0.24046 0.0481 0.35762 0.0
Sc90 Sc 0.19079 0.0625 0.30351 0.0
O91 O 0.20156 0.06259 0.34542 0.0
C92 C 0.13451 0.03956 0.3323 0.0
C93 C 0.19984 0.02617 0.40883 0.0
C94 C 0.22954 0.00539 0.3083 0.0
C95 C 0.23362 0.10517 0.39454 0.0
C96 C 0.16247 0.12127 0.32466 0.0
C97 C 0.25364 0.08353 0.30004 0.0
O98 O 0.13845 0.05508 0.3546 0.0
O99 O 0.22385 0.02634 0.39571 0.0
O100 O 0.21549 0.02383 0.29391 0.0
O101 O 0.20645 0.10315 0.39665 0.0
O102 O 0.16697 0.10272 0.30513 0.0
O103 O 0.2618 0.06728 0.32047 0.0
O104 O 0.16597 0.11579 0.35087 0.0
O105 O 0.24874 0.08723 0.38057 0.0
O106 O 0.22748 0.08742 0.29381 0.0
O107 O 0.17937 0.04267 0.40228 0.0
O108 O 0.15288 0.03755 0.31215 0.0
O109 O 0.23514 0.00865 0.33471 0.0
Sc110 Sc 0.30407 0.93219 0.80096 0.0
Sc111 Sc 0.25436 0.94115 0.85603 0.0
Sc112 Sc 0.32684 0.92788 0.87282 0.0
O113 O 0.29523 0.93398 0.84331 0.0
C114 C 0.34256 0.88122 0.82597 0.0
C115 C 0.24451 0.90177 0.80051 0.0
C116 C 0.27401 0.8901 0.89607 0.0
C117 C 0.25956 0.98466 0.80548 0.0
C118 C 0.35783 0.9665 0.82475 0.0
C119 C 0.29054 0.97611 0.90344 0.0
O120 O 0.33097 0.8948 0.80542 0.0
O121 O 0.23468 0.91614 0.82156 0.0
O122 O 0.30008 0.89837 0.89791 0.0
O123 O 0.27663 0.96876 0.79116 0.0
O124 O 0.35697 0.95592 0.84999 0.0
O125 O 0.26722 0.9681 0.89175 0.0
O126 O 0.33936 0.96058 0.80571 0.0
O127 O 0.25156 0.97914 0.83088 0.0
O128 O 0.31446 0.96461 0.89759 0.0
O129 O 0.27029 0.90317 0.79236 0.0
O130 O 0.34258 0.89044 0.85152 0.0
O131 O 0.25533 0.903 0.8811 0.0
Sc132 Sc 0.69371 0.43705 0.69512 0.0
Sc133 Sc 0.74551 0.43922 0.64024 0.0
Sc134 Sc 0.67323 0.42294 0.62398 0.0
O135 O 0.70414 0.43339 0.65306 0.0
C136 C 0.66089 0.38 0.67525 0.0
C137 C 0.75393 0.40467 0.69763 0.0
C138 C 0.72675 0.38742 0.59987 0.0
C139 C 0.73955 0.48699 0.68961 0.0
C140 C 0.63769 0.46317 0.66704 0.0
C141 C 0.7088 0.47222 0.59237 0.0
O142 O 0.67122 0.39676 0.69412 0.0
O143 O 0.7629 0.41161 0.67291 0.0
O144 O 0.7002 0.39308 0.6014 0.0
O145 O 0.71709 0.4764 0.70091 0.0
O146 O 0.64118 0.45006 0.64339 0.0
O147 O 0.73176 0.46718 0.60625 0.0
O148 O 0.65549 0.46168 0.68748 0.0
O149 O 0.75162 0.47606 0.66767 0.0
O150 O 0.68552 0.45843 0.5965 0.0
O151 O 0.73023 0.41288 0.70806 0.0
O152 O 0.65945 0.38636 0.64881 0.0
O153 O 0.74567 0.40237 0.61241 0.0
Sc154 Sc 0.83053 0.57555 0.12711 0.0
Sc155 Sc 0.75667 0.56014 0.13697 0.0
Sc156 Sc 0.80224 0.57113 0.19633 0.0
O157 O 0.79644 0.56851 0.15344 0.0
C158 C 0.85851 0.53722 0.17662 0.0
C159 C 0.79725 0.52629 0.09334 0.0
C160 C 0.75655 0.51925 0.19162 0.0
C161 C 0.78002 0.61058 0.09663 0.0
C162 C 0.84185 0.62277 0.17473 0.0
C163 C 0.74238 0.60221 0.18914 0.0
O164 O 0.85809 0.5462 0.15079 0.0
O165 O 0.773 0.52958 0.10549 0.0
O166 O 0.7761 0.5334 0.20455 0.0
O167 O 0.80642 0.60591 0.10176 0.0
O168 O 0.82686 0.6105 0.19388 0.0
O169 O 0.73506 0.58941 0.16617 0.0
O170 O 0.84594 0.61183 0.15025 0.0
O171 O 0.75999 0.59524 0.10702 0.0
O172 O 0.76605 0.59789 0.20159 0.0
O173 O 0.81908 0.5412 0.09951 0.0
O174 O 0.83979 0.54459 0.19505 0.0
O175 O 0.74839 0.52527 0.16629 0.0
Sc176 Sc 0.37249 0.16963 0.07158 0.0
Sc177 Sc 0.35627 0.24331 0.06291 0.0
Sc178 Sc 0.30091 0.19302 0.07044 0.0
O179 O 0.34324 0.20199 0.06811 0.0
C180 C 0.32351 0.13994 0.03354 0.0
C181 C 0.40164 0.20843 0.02415 0.0
C182 C 0.30309 0.24079 0.02072 0.0
C183 C 0.39933 0.22027 0.11055 0.0
C184 C 0.327 0.15251 0.11908 0.0
C185 C 0.30113 0.25217 0.10319 0.0
O186 O 0.3493 0.14101 0.04255 0.0
O187 O 0.38985 0.23143 0.03297 0.0
O188 O 0.29068 0.22074 0.03458 0.0
O189 O 0.39826 0.19437 0.10167 0.0
O190 O 0.30641 0.16593 0.10737 0.0
O191 O 0.32362 0.26155 0.09087 0.0
O192 O 0.352 0.15156 0.10845 0.0
O193 O 0.38486 0.24035 0.09911 0.0
O194 O 0.29201 0.22687 0.09964 0.0
O195 O 0.39655 0.18416 0.03528 0.0
O196 O 0.30454 0.15775 0.0415 0.0
O197 O 0.32805 0.2499 0.02702 0.0
Sc198 Sc 0.80083 0.30672 0.94055 0.0
Sc199 Sc 0.859 0.25819 0.94099 0.0
Sc200 Sc 0.86884 0.33002 0.91908 0.0
O201 O 0.84293 0.29827 0.93383 0.0
C202 C 0.8133 0.33866 0.88144 0.0
C203 C 0.79953 0.24472 0.91118 0.0
C204 C 0.89297 0.27665 0.88403 0.0
C205 C 0.81219 0.26354 0.99151 0.0
C206 C 0.82884 0.36491 0.96238 0.0
C207 C 0.90721 0.29949 0.96687 0.0
O208 O 0.79658 0.32656 0.89918 0.0
O209 O 0.82538 0.23755 0.91624 0.0
O210 O 0.88837 0.30318 0.88749 0.0
O211 O 0.79983 0.28564 0.98147 0.0
O212 O 0.8518 0.36131 0.94817 0.0
O213 O 0.89376 0.27563 0.9671 0.0
O214 O 0.8084 0.34694 0.9622 0.0
O215 O 0.83366 0.25181 0.97933 0.0
O216 O 0.90076 0.32001 0.95021 0.0
O217 O 0.78851 0.26809 0.91968 0.0
O218 O 0.83975 0.34257 0.8861 0.0
O219 O 0.885 0.25797 0.90223 0.0
Sc220 Sc 0.70003 0.68948 0.42671 0.0
Sc221 Sc 0.64135 0.73505 0.4416 0.0
Sc222 Sc 0.63024 0.66248 0.42227 0.0
O223 O 0.65724 0.69576 0.43045 0.0
C224 C 0.67567 0.65468 0.37277 0.0
C225 C 0.69347 0.75123 0.39951 0.0
C226 C 0.59872 0.71525 0.3918 0.0
C227 C 0.69695 0.73224 0.4809 0.0
C228 C 0.68053 0.63142 0.4569 0.0
C229 C 0.60132 0.69141 0.47672 0.0
O230 O 0.69587 0.66716 0.38616 0.0
O231 O 0.67058 0.75811 0.41293 0.0
O232 O 0.60311 0.68864 0.39563 0.0
O233 O 0.70974 0.71357 0.46548 0.0
O234 O 0.65488 0.63236 0.44767 0.0
O235 O 0.61133 0.7166 0.47291 0.0
O236 O 0.69892 0.65069 0.45125 0.0
O237 O 0.67151 0.7406 0.47587 0.0
O238 O 0.60631 0.67088 0.45971 0.0
O239 O 0.70537 0.72701 0.40201 0.0
O240 O 0.65114 0.65082 0.3836 0.0
O241 O 0.61041 0.7345 0.40718 0.0
Sc242 Sc 0.12143 0.82501 0.5773 0.0
Sc243 Sc 0.14061 0.75505 0.55729 0.0
Sc244 Sc 0.19299 0.80869 0.55913 0.0
O245 O 0.15169 0.79632 0.5643 0.0
C246 C 0.16105 0.86325 0.53576 0.0
C247 C 0.08829 0.79053 0.52948 0.0
C248 C 0.18432 0.76501 0.50659 0.0
C249 C 0.10426 0.76896 0.61273 0.0
C250 C 0.17364 0.83926 0.61784 0.0
C251 C 0.2019 0.74798 0.58719 0.0
O252 O 0.13919 0.85932 0.55164 0.0
O253 O 0.10159 0.7674 0.53533 0.0
O254 O 0.19889 0.78401 0.51981 0.0
O255 O 0.09988 0.79497 0.60578 0.0
O256 O 0.19235 0.83232 0.59915 0.0
O257 O 0.17865 0.73743 0.57757 0.0
O258 O 0.14682 0.83718 0.61371 0.0
O259 O 0.11993 0.75225 0.59805 0.0
O260 O 0.20891 0.77393 0.58359 0.0
O261 O 0.09403 0.8143 0.54162 0.0
O262 O 0.18152 0.84542 0.53414 0.0
O263 O 0.1613 0.75429 0.51642 0.0
Sc264 Sc 0.93037 0.70009 0.80669 0.0
Sc265 Sc 0.93998 0.64323 0.75844 0.0
Sc266 Sc 0.92631 0.62891 0.83148 0.0
O267 O 0.93244 0.65742 0.79892 0.0
C268 C 0.96256 0.67811 0.86282 0.0
C269 C 0.98395 0.69466 0.76392 0.0
C270 C 0.9754 0.59805 0.79637 0.0
C271 C 0.90145 0.69824 0.7456 0.0
C272 C 0.87768 0.67536 0.84299 0.0
C273 C 0.89048 0.60172 0.77909 0.0
O274 O 0.95603 0.69693 0.84437 0.0
O275 O 0.97702 0.66999 0.75463 0.0
O276 O 0.96345 0.60391 0.82013 0.0
O277 O 0.90429 0.70849 0.77053 0.0
O278 O 0.88823 0.65044 0.84579 0.0
O279 O 0.90323 0.61574 0.75953 0.0
O280 O 0.89088 0.69564 0.83043 0.0
O281 O 0.91397 0.67547 0.73743 0.0
O282 O 0.89772 0.60292 0.80542 0.0
O283 O 0.96898 0.70887 0.78191 0.0
O284 O 0.95355 0.65235 0.8614 0.0
O285 O 0.96777 0.60947 0.77289 0.0
Sc286 Sc 0.57036 0.2995 0.3076 0.0
Sc287 Sc 0.55503 0.35879 0.26257 0.0
Sc288 Sc 0.5755 0.36926 0.33481 0.0
O289 O 0.56675 0.34243 0.30152 0.0
C290 C 0.54077 0.31934 0.36654 0.0
C291 C 0.51552 0.30289 0.26583 0.0
C292 C 0.52129 0.39971 0.30679 0.0
C293 C 0.59534 0.30581 0.24462 0.0
C294 C 0.62474 0.3232 0.34246 0.0
C295 C 0.60596 0.4009 0.28179 0.0
O296 O 0.54701 0.3007 0.34757 0.0
O297 O 0.5207 0.32827 0.25722 0.0
O298 O 0.53891 0.39447 0.32665 0.0
O299 O 0.59324 0.29343 0.26866 0.0
O300 O 0.6135 0.34745 0.34692 0.0
O301 O 0.58971 0.39003 0.26271 0.0
O302 O 0.61187 0.30334 0.32881 0.0
O303 O 0.58318 0.32959 0.23875 0.0
O304 O 0.60283 0.39564 0.30837 0.0
O305 O 0.53076 0.29029 0.28472 0.0
O306 O 0.54928 0.34525 0.36496 0.0
O307 O 0.52393 0.38902 0.28169 0.0
Sc308 Sc 0.43393 0.80355 0.19588 0.0
Sc309 Sc 0.44159 0.85813 0.24643 0.0
Sc310 Sc 0.42529 0.87537 0.17408 0.0
O311 O 0.43403 0.84577 0.20536 0.0
C312 C 0.46379 0.82914 0.14019 0.0
C313 C 0.48631 0.80741 0.24047 0.0
C314 C 0.47474 0.90631 0.20939 0.0
C315 C 0.40416 0.80166 0.25655 0.0
C316 C 0.37945 0.82666 0.1615 0.0
C317 C 0.38899 0.89773 0.22833 0.0
O318 O 0.45926 0.80976 0.15864 0.0
O319 O 0.4791 0.8317 0.25064 0.0
O320 O 0.46154 0.90167 0.186 0.0
O321 O 0.40806 0.79251 0.23137 0.0
O322 O 0.38775 0.8525 0.15967 0.0
O323 O 0.40384 0.88391 0.24638 0.0
O324 O 0.39444 0.80695 0.17269 0.0
O325 O 0.4158 0.82447 0.26593 0.0
O326 O 0.39536 0.89899 0.20175 0.0
O327 O 0.47237 0.79499 0.22049 0.0
O328 O 0.45305 0.85426 0.14226 0.0
O329 O 0.46877 0.89309 0.23253 0.0
Sc330 Sc 0.05709 0.19028 0.6857 0.0
Sc331 Sc 0.05242 0.14162 0.74283 0.0
Sc332 Sc 0.07036 0.11677 0.67404 0.0
O333 O 0.05976 0.14962 0.70082 0.0
C334 C 0.02995 0.15569 0.63409 0.0
C335 C 0.00494 0.18835 0.73113 0.0
C336 C 0.02113 0.08885 0.71112 0.0
C337 C 0.08637 0.2014 0.74578 0.0
C338 C 0.11315 0.1652 0.65409 0.0
C339 C 0.10577 0.10139 0.73045 0.0
O340 O 0.03088 0.17791 0.64984 0.0
O341 O 0.01349 0.1656 0.74329 0.0
O342 O 0.03439 0.09178 0.68755 0.0
O343 O 0.08286 0.20721 0.71949 0.0
O344 O 0.10695 0.13908 0.65827 0.0
O345 O 0.09147 0.11798 0.74659 0.0
O346 O 0.09649 0.18575 0.66108 0.0
O347 O 0.07588 0.17908 0.75749 0.0
O348 O 0.09905 0.09657 0.70448 0.0
O349 O 0.01846 0.19998 0.71034 0.0
O350 O 0.04397 0.133 0.63974 0.0
O351 O 0.02691 0.1038 0.73329 0.0
Sc352 Sc 0.82584 0.92763 0.62409 0.0
Sc353 Sc 0.75192 0.93803 0.63787 0.0
Sc354 Sc 0.79995 0.92906 0.69464 0.0
O355 O 0.7926 0.93193 0.65217 0.0
C356 C 0.83958 0.87916 0.66952 0.0
C357 C 0.77548 0.88991 0.59568 0.0
C358 C 0.74061 0.89743 0.69207 0.0
C359 C 0.78942 0.97557 0.59338 0.0
C360 C 0.85442 0.96466 0.67462 0.0
C361 C 0.75319 0.97981 0.69119 0.0
O362 O 0.84116 0.88944 0.64443 0.0
O363 O 0.75518 0.90116 0.6101 0.0
O364 O 0.76594 0.8997 0.70139 0.0
O365 O 0.81348 0.96483 0.60008 0.0
O366 O 0.83532 0.95787 0.69274 0.0
O367 O 0.74534 0.97457 0.66555 0.0
O368 O 0.85452 0.95503 0.64901 0.0
O369 O 0.76584 0.96679 0.60406 0.0
O370 O 0.77201 0.96489 0.70418 0.0
O371 O 0.80125 0.899 0.59682 0.0
O372 O 0.82697 0.892 0.68999 0.0
O373 O 0.73175 0.91109 0.67023 0.0
Sc374 Sc 0.6946 0.06995 0.19884 0.0
Sc375 Sc 0.74128 0.06072 0.14065 0.0
Sc376 Sc 0.66752 0.07534 0.12868 0.0
O377 O 0.70108 0.06832 0.156 0.0
C378 C 0.63693 0.03886 0.17789 0.0
C379 C 0.73912 0.01841 0.19486 0.0
C380 C 0.7017 0.024 0.09834 0.0
C381 C 0.75527 0.10088 0.193 0.0
C382 C 0.65887 0.12388 0.17628 0.0
C383 C 0.7189 0.10955 0.09851 0.0
O384 O 0.65534 0.04602 0.19661 0.0
O385 O 0.74955 0.02695 0.17113 0.0
O386 O 0.67899 0.03878 0.102 0.0
O387 O 0.73257 0.09413 0.20627 0.0
O388 O 0.65315 0.11323 0.15182 0.0
O389 O 0.73856 0.09437 0.1095 0.0
O390 O 0.67329 0.11064 0.19515 0.0
O391 O 0.76183 0.09136 0.16841 0.0
O392 O 0.69239 0.10508 0.10317 0.0
O393 O 0.71767 0.0305 0.20678 0.0
O394 O 0.63853 0.04709 0.15192 0.0
O395 O 0.7251 0.02947 0.11117 0.0
Sc396 Sc 0.30924 0.56246 0.30767 0.0
Sc397 Sc 0.255 0.55197 0.35931 0.0
Sc398 Sc 0.32308 0.57668 0.38032 0.0
O399 O 0.2958 0.56347 0.3491 0.0
C400 C 0.36174 0.53485 0.34096 0.0
C401 C 0.26692 0.50752 0.31007 0.0
C402 C 0.28978 0.52697 0.4128 0.0
C403 C 0.24708 0.58778 0.30094 0.0
C404 C 0.34114 0.61886 0.33058 0.0
C405 C 0.2649 0.60885 0.39661 0.0
O406 O 0.34662 0.53757 0.31844 0.0
O407 O 0.25642 0.51339 0.33451 0.0
O408 O 0.31063 0.54385 0.40901 0.0
O409 O 0.27338 0.58695 0.29405 0.0
O410 O 0.33908 0.61181 0.35658 0.0
O411 O 0.2492 0.59043 0.38404 0.0
O412 O 0.33237 0.60287 0.31032 0.0
O413 O 0.23695 0.57491 0.32284 0.0
O414 O 0.29207 0.60658 0.39811 0.0
O415 O 0.28571 0.52329 0.29794 0.0
O416 O 0.35616 0.54801 0.36437 0.0
O417 O 0.26785 0.5267 0.39659 0.0
Sc418 Sc 0.16955 0.42933 0.87216 0.0
Sc419 Sc 0.24329 0.43967 0.85845 0.0
Sc420 Sc 0.19462 0.43583 0.80106 0.0
O421 O 0.2025 0.43506 0.84388 0.0
C422 C 0.15607 0.38349 0.8233 0.0
C423 C 0.21985 0.3908 0.89948 0.0
C424 C 0.25378 0.40256 0.80135 0.0
C425 C 0.20619 0.47689 0.90411 0.0
C426 C 0.13956 0.46858 0.82474 0.0
C427 C 0.24033 0.48624 0.80877 0.0
O428 O 0.15412 0.3928 0.84884 0.0
O429 O 0.24012 0.40293 0.88592 0.0
O430 O 0.22983 0.40915 0.79069 0.0
O431 O 0.18228 0.46524 0.89826 0.0
O432 O 0.15799 0.46258 0.8057 0.0
O433 O 0.24999 0.4766 0.83228 0.0
O434 O 0.14056 0.45827 0.84995 0.0
O435 O 0.22968 0.46882 0.89252 0.0
O436 O 0.22063 0.47395 0.79436 0.0
O437 O 0.19387 0.39902 0.8977 0.0
O438 O 0.1691 0.3971 0.80352 0.0
O439 O 0.26236 0.41173 0.82563 0.0
Sc440 Sc 0.62304 0.8325 0.92662 0.0
Sc441 Sc 0.63836 0.75916 0.93902 0.0
Sc442 Sc 0.69432 0.80842 0.92991 0.0
O443 O 0.65189 0.80003 0.93218 0.0
C444 C 0.66924 0.84588 0.8784 0.0
C445 C 0.59645 0.7807 0.88978 0.0
C446 C 0.69302 0.74828 0.89884 0.0
C447 C 0.59307 0.79657 0.97575 0.0
C448 C 0.67154 0.86308 0.96421 0.0
C449 C 0.69149 0.76235 0.98121 0.0
O450 O 0.64419 0.84787 0.88881 0.0
O451 O 0.61025 0.76106 0.90262 0.0
O452 O 0.70284 0.77333 0.90225 0.0
O453 O 0.59826 0.82019 0.96335 0.0
O454 O 0.69055 0.84487 0.95734 0.0
O455 O 0.66648 0.75327 0.97508 0.0
O456 O 0.64602 0.86202 0.9546 0.0
O457 O 0.60494 0.77308 0.96832 0.0
O458 O 0.704 0.78208 0.96697 0.0
O459 O 0.59746 0.80693 0.89742 0.0
O460 O 0.68967 0.83356 0.89149 0.0
O461 O 0.6705 0.73942 0.91146 0.0
Sc462 Sc 0.1983 0.69595 0.0688 0.0
Sc463 Sc 0.1441 0.74589 0.0569 0.0
Sc464 Sc 0.12597 0.67413 0.07281 0.0
O465 O 0.15607 0.70515 0.06589 0.0
C466 C 0.17422 0.6413 0.03524 0.0
C467 C 0.19611 0.73925 0.01511 0.0
C468 C 0.09603 0.70946 0.02344 0.0
C469 C 0.19865 0.75675 0.09686 0.0
C470 C 0.17211 0.65877 0.12024 0.0
C471 C 0.1031 0.72887 0.10876 0.0
O472 O 0.19354 0.65954 0.04133 0.0
O473 O 0.17041 0.74726 0.01929 0.0
O474 O 0.10109 0.6859 0.03594 0.0
O475 O 0.20657 0.73084 0.09693 0.0
O476 O 0.14675 0.65861 0.11058 0.0
O477 O 0.11804 0.74677 0.09463 0.0
O478 O 0.19291 0.67022 0.10686 0.0
O479 O 0.17814 0.76603 0.08159 0.0
O480 O 0.10142 0.70228 0.10202 0.0
O481 O 0.2095 0.72235 0.03187 0.0
O482 O 0.14865 0.643 0.0452 0.0
O483 O 0.10871 0.73264 0.03016 0.0
Sc484 Sc 0.3015 0.3062 0.55832 0.0
Sc485 Sc 0.35533 0.25416 0.55671 0.0
Sc486 Sc 0.37253 0.32474 0.57604 0.0
O487 O 0.3431 0.29512 0.56335 0.0
C488 C 0.33138 0.36193 0.5351 0.0
C489 C 0.31175 0.26247 0.50588 0.0
C490 C 0.4069 0.29097 0.52854 0.0
C491 C 0.29406 0.24539 0.58649 0.0
C492 C 0.32006 0.33718 0.61724 0.0
C493 C 0.39124 0.26949 0.61167 0.0
O494 O 0.31176 0.34321 0.53307 0.0
O495 O 0.33515 0.25271 0.51571 0.0
O496 O 0.40004 0.31487 0.5399 0.0
O497 O 0.28657 0.27119 0.58302 0.0
O498 O 0.34696 0.33588 0.61293 0.0
O499 O 0.37546 0.25233 0.5977 0.0
O500 O 0.30155 0.32999 0.59844 0.0
O501 O 0.31751 0.23537 0.57671 0.0
O502 O 0.39545 0.29532 0.60399 0.0
O503 O 0.29645 0.281 0.51907 0.0
O504 O 0.3533 0.35871 0.551 0.0
O505 O 0.39442 0.26751 0.53508 0.0
Sc506 Sc 0.86778 0.16398 0.41733 0.0
Sc507 Sc 0.86304 0.23671 0.43946 0.0
Sc508 Sc 0.80099 0.19429 0.43287 0.0
O509 O 0.84404 0.19834 0.4302 0.0
C510 C 0.81516 0.16182 0.37466 0.0
C511 C 0.89847 0.21576 0.38428 0.0
C512 C 0.80734 0.25658 0.40584 0.0
C513 C 0.90589 0.19111 0.46742 0.0
C514 C 0.82103 0.13347 0.4569 0.0
C515 C 0.81295 0.234 0.48674 0.0
O516 O 0.83988 0.15358 0.38232 0.0
O517 O 0.8911 0.2347 0.40252 0.0
O518 O 0.79375 0.2342 0.41281 0.0
O519 O 0.89861 0.17131 0.4502 0.0
O520 O 0.80284 0.15324 0.45294 0.0
O521 O 0.83612 0.2442 0.47649 0.0
O522 O 0.84624 0.13435 0.44639 0.0
O523 O 0.89454 0.21601 0.46715 0.0
O524 O 0.79898 0.21395 0.47456 0.0
O525 O 0.89143 0.18952 0.38671 0.0
O526 O 0.79872 0.17646 0.39065 0.0
O527 O 0.83324 0.26128 0.41309 0.0
H528 H 0.13021 0.4126 0.27683 0.0
H529 H 0.15064 0.42342 0.18666 0.0
H530 H 0.19674 0.44555 0.19971 0.0
H531 H 0.15841 0.47952 0.2994 0.0
H532 H 0.1718 0.46617 0.33303 0.0
H533 H 0.14149 0.4492 0.31635 0.0
H534 H 0.16824 0.40052 0.31785 0.0
H535 H 0.19889 0.41756 0.33406 0.0
H536 H 0.20306 0.39739 0.30134 0.0
H537 H 0.23995 0.46824 0.22236 0.0
H538 H 0.27357 0.4954 0.25276 0.0
H539 H 0.22513 0.47015 0.32817 0.0
C540 C 0.14441 0.4195 0.25981 0.0
C541 C 0.13667 0.4162 0.2307 0.0
C542 C 0.15587 0.4258 0.20914 0.0
C543 C 0.18232 0.43816 0.21631 0.0
C544 C 0.18938 0.44085 0.24516 0.0
C545 C 0.17086 0.4321 0.26658 0.0
C546 C 0.18271 0.43939 0.29592 0.0
C547 C 0.1624 0.45979 0.31211 0.0
C548 C 0.18857 0.41208 0.31331 0.0
C549 C 0.21043 0.4542 0.28759 0.0
C550 C 0.21416 0.45432 0.25824 0.0
C551 C 0.23738 0.46811 0.24541 0.0
C552 C 0.25653 0.48335 0.26293 0.0
C553 C 0.25216 0.48502 0.29296 0.0
C554 C 0.22938 0.46919 0.30537 0.0
H555 H 0.264 0.49362 0.75569 0.0
H556 H 0.25095 0.53513 0.8378 0.0
H557 H 0.28516 0.57307 0.82425 0.0
H558 H 0.3361 0.50182 0.75403 0.0
H559 H 0.34013 0.50879 0.71625 0.0
H560 H 0.30993 0.48851 0.72895 0.0
H561 H 0.27492 0.52388 0.70478 0.0
H562 H 0.30501 0.54413 0.69142 0.0
H563 H 0.27769 0.56167 0.71244 0.0
H564 H 0.3262 0.6007 0.80632 0.0
H565 H 0.36947 0.61973 0.78302 0.0
H566 H 0.3572 0.56094 0.71181 0.0
C567 C 0.26734 0.51155 0.77009 0.0
C568 C 0.25449 0.51199 0.7975 0.0
C569 C 0.2603 0.53487 0.81653 0.0
C570 C 0.27971 0.55643 0.80903 0.0
C571 C 0.29316 0.55473 0.78243 0.0
C572 C 0.28699 0.53318 0.76298 0.0
C573 C 0.30695 0.53465 0.73728 0.0
C574 C 0.32431 0.50679 0.73396 0.0
C575 C 0.29013 0.5415 0.70985 0.0
C576 C 0.32597 0.55954 0.74597 0.0
C577 C 0.31738 0.5709 0.77196 0.0
C578 C 0.33281 0.59243 0.78567 0.0
C579 C 0.35756 0.60287 0.77237 0.0
C580 C 0.36673 0.59184 0.74557 0.0
C581 C 0.35053 0.57002 0.73213 0.0
H582 H 0.61999 0.08157 0.72453 0.0
H583 H 0.64576 0.07979 0.81387 0.0
H584 H 0.68887 0.05202 0.80062 0.0
H585 H 0.64185 0.00988 0.70811 0.0
H586 H 0.65366 0.01851 0.67236 0.0
H587 H 0.62555 0.03914 0.68893 0.0
H588 H 0.65474 0.08561 0.6802 0.0
H589 H 0.68313 0.06504 0.66394 0.0
H590 H 0.69077 0.08831 0.69384 0.0
H591 H 0.72917 0.02443 0.77761 0.0
H592 H 0.76088 0.99467 0.7476 0.0
H593 H 0.70822 0.01364 0.67331 0.0
C594 C 0.6347 0.07539 0.74134 0.0
C595 C 0.62947 0.08293 0.77026 0.0
C596 C 0.64917 0.07415 0.7916 0.0
C597 C 0.67385 0.05857 0.78425 0.0
C598 C 0.67848 0.0518 0.75551 0.0
C599 C 0.65928 0.05963 0.73444 0.0
C600 C 0.66855 0.0485 0.70534 0.0
C601 C 0.64607 0.02777 0.69297 0.0
C602 C 0.67466 0.07335 0.68461 0.0
C603 C 0.69587 0.03296 0.71336 0.0
C604 C 0.70141 0.03544 0.74233 0.0
C605 C 0.72507 0.02236 0.75489 0.0
C606 C 0.74304 0.00556 0.73757 0.0
C607 C 0.73716 0.0017 0.70798 0.0
C608 C 0.71355 0.01623 0.69574 0.0
H609 H 0.87602 0.92169 0.22817 0.0
H610 H 0.84591 0.91698 0.31614 0.0
H611 H 0.80197 0.94294 0.30255 0.0
H612 H 0.85074 0.99291 0.21505 0.0
H613 H 0.84107 0.98579 0.17834 0.0
H614 H 0.86952 0.96576 0.19489 0.0
H615 H 0.84342 0.9184 0.18205 0.0
H616 H 0.81468 0.93835 0.16579 0.0
H617 H 0.80701 0.91298 0.19385 0.0
H618 H 0.76126 0.96982 0.27949 0.0
H619 H 0.72943 -0.00022 0.24991 0.0
H620 H 0.78637 0.9877 0.17713 0.0
C621 C 0.86019 0.92605 0.2446 0.0
C622 C 0.86453 0.91721 0.27326 0.0
C623 C 0.84327 0.92362 0.29408 0.0
C624 C 0.81808 0.93818 0.28653 0.0
C625 C 0.8144 0.94636 0.25808 0.0
C626 C 0.835 0.9408 0.2375 0.0
C627 C 0.82641 0.95315 0.20874 0.0
C628 C 0.84822 0.97575 0.19868 0.0
C629 C 0.82266 0.92929 0.18628 0.0
C630 C 0.79788 0.96672 0.21643 0.0
C631 C 0.79117 0.96225 0.2449 0.0
C632 C 0.76626 0.97339 0.25713 0.0
C633 C 0.7482 0.9903 0.24006 0.0
C634 C 0.75521 0.99618 0.21107 0.0
C635 C 0.78014 0.98355 0.1991 0.0
H636 H 0.25837 0.23966 0.49851 0.0
H637 H 0.34117 0.24939 0.45752 0.0
H638 H 0.32802 0.21257 0.42188 0.0
H639 H 0.2564 0.16711 0.49523 0.0
H640 H 0.21872 0.16284 0.48795 0.0
H641 H 0.23128 0.19426 0.50646 0.0
H642 H 0.20793 0.22704 0.46838 0.0
H643 H 0.19458 0.19571 0.45007 0.0
H644 H 0.21605 0.22154 0.43099 0.0
H645 H 0.31014 0.16947 0.39685 0.0
H646 H 0.28617 0.12585 0.37955 0.0
H647 H 0.21418 0.14291 0.43622 0.0
C648 C 0.27301 0.23512 0.48104 0.0
C649 C 0.30051 0.24782 0.48023 0.0
C650 C 0.3198 0.24031 0.45804 0.0
C651 C 0.31256 0.21931 0.43784 0.0
C652 C 0.28593 0.20599 0.44014 0.0
C653 C 0.26616 0.21389 0.46079 0.0
C654 C 0.24031 0.19405 0.46029 0.0
C655 C 0.23647 0.17867 0.4892 0.0
C656 C 0.2131 0.21057 0.45192 0.0
C657 C 0.24917 0.17323 0.43687 0.0
C658 C 0.27551 0.18067 0.42552 0.0
C659 C 0.28924 0.16373 0.40514 0.0
C660 C 0.27553 0.13876 0.39567 0.0
C661 C 0.24823 0.13085 0.40647 0.0
C662 C 0.23491 0.14846 0.42735 0.0
H663 H 0.28726 0.86667 0.94933 0.0
H664 H 0.24012 0.85102 0.87076 0.0
H665 H 0.22107 0.80622 0.89069 0.0
H666 H 0.30257 0.78942 0.96627 0.0
H667 H 0.29691 0.79445 0.00415 0.0
H668 H 0.31064 0.82348 0.98269 0.0
H669 H 0.26928 0.85606 4e-05 0.0
H670 H 0.25535 0.82731 0.02156 0.0
H671 H 0.23273 0.8444 0.99542 0.0
H672 H 0.20166 0.76745 0.9202 0.0
H673 H 0.18255 0.73668 0.95881 0.0
H674 H 0.24218 0.77492 0.01878 0.0
C675 C 0.27348 0.85338 0.93622 0.0
C676 C 0.26515 0.86231 0.90851 0.0
C677 C 0.2466 0.8447 0.89212 0.0
C678 C 0.23584 0.81906 0.90314 0.0
C679 C 0.24378 0.81109 0.93068 0.0
C680 C 0.26217 0.82759 0.94712 0.0
C681 C 0.2648 0.81522 0.97711 0.0
C682 C 0.29556 0.80504 0.98289 0.0
C683 C 0.25495 0.83705 -0.00014 0.0
C684 C 0.24425 0.78999 0.97508 0.0
C685 C 0.23272 0.78786 0.94791 0.0
C686 C 0.21106 0.76831 0.94136 0.0
C687 C 0.20037 0.75089 0.96332 0.0
C688 C 0.21158 0.7529 0.99131 0.0
C689 C 0.23418 0.77224 0.99716 0.0
H690 H 0.83147 0.28293 0.51402 0.0
H691 H 0.76191 0.22098 0.51298 0.0
H692 H 0.73336 0.25272 0.54404 0.0
H693 H 0.81938 0.30849 0.58951 0.0
H694 H 0.82848 0.3448 0.58002 0.0
H695 H 0.84508 0.31523 0.56143 0.0
H696 H 0.82787 0.33637 0.51316 0.0
H697 H 0.81062 0.36558 0.53154 0.0
H698 H 0.79019 0.34298 0.50777 0.0
H699 H 0.70945 0.29414 0.56813 0.0
H700 H 0.69419 0.33986 0.58991 0.0
H701 H 0.77955 0.37457 0.57679 0.0
C702 C 0.81065 0.2755 0.5211 0.0
C703 C 0.79901 0.24938 0.5109 0.0
C704 C 0.77143 0.2408 0.52045 0.0
C705 C 0.75495 0.25875 0.53806 0.0
C706 C 0.76646 0.28503 0.54633 0.0
C707 C 0.79393 0.29312 0.53878 0.0
C708 C 0.80054 0.32323 0.54912 0.0
C709 C 0.82481 0.32291 0.57135 0.0
C710 C 0.80772 0.3432 0.52389 0.0
C711 C 0.77215 0.33114 0.56278 0.0
C712 C 0.7528 0.30879 0.56091 0.0
C713 C 0.72457 0.31161 0.57022 0.0
C714 C 0.71602 0.33779 0.58227 0.0
C715 C 0.73568 0.36079 0.58508 0.0
C716 C 0.76411 0.35731 0.57517 0.0
H717 H 0.72673 0.62525 0.0761 0.0
H718 H 0.81512 0.65439 0.07869 0.0
H719 H 0.80123 0.6985 0.05311 0.0
H720 H 0.7115 0.65096 0.00554 0.0
H721 H 0.67515 0.66093 0.01407 0.0
H722 H 0.69218 0.63218 0.03323 0.0
H723 H 0.68125 0.65808 0.08122 0.0
H724 H 0.66457 0.68715 0.06212 0.0
H725 H 0.6936 0.69431 0.08654 0.0
H726 H 0.77761 0.73951 0.02684 0.0
H727 H 0.74724 0.77166 0.998 0.0
H728 H 0.6744 0.71551 0.01266 0.0
C729 C 0.74324 0.64083 0.0713 0.0
C730 C 0.77207 0.63622 0.07949 0.0
C731 C 0.79292 0.65725 0.07258 0.0
C732 C 0.78521 0.68252 0.05822 0.0
C733 C 0.75655 0.68651 0.05084 0.0
C734 C 0.73596 0.66611 0.0569 0.0
C735 C 0.70686 0.67506 0.0457 0.0
C736 C 0.69578 0.65351 0.0233 0.0
C737 C 0.6853 0.67888 0.07037 0.0
C738 C 0.71433 0.70358 0.03213 0.0
C739 C 0.74303 0.70997 0.03559 0.0
C740 C 0.75508 0.73476 0.02408 0.0
C741 C 0.73756 0.753 0.00781 0.0
C742 C 0.7083 0.74629 0.00299 0.0
C743 C 0.69655 0.72155 0.01605 0.0
H744 H 0.4144 0.27352 0.1314 0.0
H745 H 0.42393 0.18258 0.1485 0.0
H746 H 0.45082 0.19395 0.19263 0.0
H747 H 0.48459 0.29377 0.15479 0.0
H748 H 0.47297 0.32739 0.16993 0.0
H749 H 0.45366 0.31184 0.1404 0.0
H750 H 0.40684 0.31382 0.17032 0.0
H751 H 0.42615 0.32899 0.20011 0.0
H752 H 0.40559 0.29663 0.20486 0.0
H753 H 0.47727 0.21545 0.23503 0.0
H754 H 0.50505 0.2449 0.26905 0.0
H755 H 0.47851 0.32174 0.22393 0.0
C756 C 0.42207 0.25593 0.14439 0.0
C757 C 0.41692 0.2271 0.13634 0.0
C758 C 0.42763 0.20484 0.154 0.0
C759 C 0.44278 0.21108 0.17928 0.0
C760 C 0.44718 0.23972 0.18669 0.0
C761 C 0.43739 0.26177 0.16958 0.0
C762 C 0.44607 0.2907 0.18164 0.0
C763 C 0.46548 0.30687 0.16043 0.0
C764 C 0.41958 0.30858 0.18971 0.0
C765 C 0.46248 0.28151 0.20809 0.0
C766 C 0.46261 0.25204 0.21083 0.0
C767 C 0.47718 0.23856 0.23313 0.0
C768 C 0.49278 0.25555 0.25254 0.0
C769 C 0.49399 0.28579 0.24946 0.0
C770 C 0.47792 0.29878 0.22724 0.0
H771 H 0.91066 0.22231 0.86807 0.0
H772 H 0.90677 0.31032 0.83804 0.0
H773 H 0.92901 0.29576 0.7925 0.0
H774 H 0.97879 0.20693 0.83923 0.0
H775 H 0.97035 0.17044 0.82969 0.0
H776 H 0.95181 0.18748 0.85892 0.0
H777 H 0.90324 0.17603 0.8345 0.0
H778 H 0.92176 0.15932 0.80494 0.0
H779 H 0.89685 0.18808 0.79839 0.0
H780 H 0.95471 0.2725 0.7513 0.0
H781 H 0.98547 0.24294 0.71988 0.0
H782 H 0.97184 0.17007 0.7761 0.0
C783 C 0.91426 0.2385 0.85186 0.0
C784 C 0.90689 0.26747 0.85683 0.0
C785 C 0.91224 0.28796 0.83498 0.0
C786 C 0.92469 0.2799 0.80884 0.0
C787 C 0.93163 0.25121 0.80463 0.0
C788 C 0.92674 0.23083 0.82557 0.0
C789 C 0.93803 0.20181 0.81637 0.0
C790 C 0.96112 0.19105 0.83729 0.0
C791 C 0.9135 0.18002 0.81337 0.0
C792 C 0.95073 0.20929 0.78741 0.0
C793 C 0.94643 0.23777 0.78079 0.0
C794 C 0.95793 0.25004 0.75606 0.0
C795 C 0.97528 0.23302 0.73822 0.0
C796 C 0.98115 0.20411 0.74535 0.0
C797 C 0.96769 0.19199 0.76975 0.0
H798 H 0.51717 0.82397 0.28793 0.0
H799 H 0.50473 0.75254 0.22939 0.0
H800 H 0.533 0.72158 0.26139 0.0
H801 H 0.59095 0.80418 0.31075 0.0
H802 H 0.5844 0.81585 0.34702 0.0
H803 H 0.56628 0.83312 0.31768 0.0
H804 H 0.51751 0.8223 0.34195 0.0
H805 H 0.53536 0.8044 0.371 0.0
H806 H 0.50833 0.78579 0.35063 0.0
H807 H 0.5572 0.6969 0.30255 0.0
H808 H 0.58116 0.68161 0.34695 0.0
H809 H 0.57838 0.7692 0.37861 0.0
C810 C 0.52105 0.80206 0.2813 0.0
C811 C 0.50862 0.79081 0.25598 0.0
C812 C 0.51405 0.76183 0.2485 0.0
C813 C 0.52999 0.74398 0.26665 0.0
C814 C 0.54064 0.75543 0.29209 0.0
C815 C 0.53693 0.78395 0.29914 0.0
C816 C 0.5495 0.79061 0.32836 0.0
C817 C 0.57426 0.81222 0.32579 0.0
C818 C 0.52628 0.80141 0.3492 0.0
C819 C 0.56029 0.76123 0.33692 0.0
C820 C 0.55492 0.74125 0.3157 0.0
C821 C 0.56185 0.71244 0.31914 0.0
C822 C 0.57524 0.70393 0.34463 0.0
C823 C 0.58171 0.72416 0.36643 0.0
C824 C 0.57386 0.75317 0.36243 0.0
H825 H 0.05611 0.78724 0.6423 0.0
H826 H 0.12521 0.72496 0.64437 0.0
H827 H 0.10552 0.70457 0.68873 0.0
H828 H 0.04875 0.79637 0.72142 0.0
H829 H 0.01021 0.79844 0.71975 0.0
H830 H 0.0316 0.81107 0.69014 0.0
H831 H 0.00413 0.77734 0.65557 0.0
H832 H 0.98254 0.76491 0.68497 0.0
H833 H 0.00227 0.73957 0.66344 0.0
H834 H 0.07627 0.68709 0.72884 0.0
H835 H 0.03706 0.67183 0.76097 0.0
H836 H 0.98663 0.74512 0.73474 0.0
C837 C 0.06731 0.76966 0.65242 0.0
C838 C 0.0922 0.75772 0.63984 0.0
C839 C 0.106 0.73437 0.65345 0.0
C840 C 0.09516 0.72279 0.67886 0.0
C841 C 0.07047 0.73475 0.69055 0.0
C842 C 0.05657 0.75757 0.67781 0.0
C843 C 0.02878 0.76435 0.69337 0.0
C844 C 0.02992 0.79434 0.70698 0.0
C845 C 0.00291 0.76135 0.67314 0.0
C846 C 0.02886 0.74114 0.71613 0.0
C847 C 0.05342 0.72466 0.71435 0.0
C848 C 0.05726 0.70019 0.73099 0.0
C849 C 0.03498 0.69173 0.74922 0.0
C850 C 0.00938 0.7078 0.75082 0.0
C851 C 0.00657 0.73323 0.73471 0.0
H852 H 0.8777 0.57949 0.7263 0.0
H853 H 0.84503 0.58658 0.81316 0.0
H854 H 0.80033 0.56233 0.79822 0.0
H855 H 0.81092 0.59081 0.68938 0.0
H856 H 0.81842 0.5647 0.66186 0.0
H857 H 0.84744 0.58349 0.67906 0.0
H858 H 0.87074 0.53517 0.69345 0.0
H859 H 0.8421 0.5163 0.67584 0.0
H860 H 0.84985 0.50919 0.71297 0.0
H861 H 0.75904 0.53765 0.77354 0.0
H862 H 0.7274 0.50826 0.74317 0.0
H863 H 0.78784 0.5163 0.67271 0.0
C864 C 0.86115 0.57594 0.74221 0.0
C865 C 0.86482 0.58497 0.77089 0.0
C866 C 0.84278 0.57965 0.79112 0.0
C867 C 0.8172 0.56617 0.78276 0.0
C868 C 0.81411 0.55799 0.75418 0.0
C869 C 0.83569 0.56225 0.73433 0.0
C870 C 0.82774 0.54997 0.70536 0.0
C871 C 0.82603 0.57366 0.68258 0.0
C872 C 0.84885 0.52625 0.69639 0.0
C873 C 0.79837 0.5379 0.71204 0.0
C874 C 0.79069 0.54316 0.74017 0.0
C875 C 0.76483 0.53342 0.75147 0.0
C876 C 0.74688 0.51687 0.73392 0.0
C877 C 0.75505 0.50985 0.70545 0.0
C878 C 0.78079 0.52134 0.69426 0.0
H879 H 0.61863 0.42313 0.22802 0.0
H880 H 0.65087 0.41845 0.31517 0.0
H881 H 0.69416 0.44477 0.30057 0.0
H882 H 0.68691 0.41488 0.19212 0.0
H883 H 0.67887 0.44028 0.16422 0.0
H884 H 0.65033 0.42044 0.18107 0.0
H885 H 0.62468 0.46786 0.19446 0.0
H886 H 0.65294 0.4878 0.17732 0.0
H887 H 0.64392 0.49495 0.21422 0.0
H888 H 0.73434 0.47143 0.27681 0.0
H889 H 0.76621 0.50078 0.24662 0.0
H890 H 0.70811 0.48938 0.17484 0.0
C891 C 0.63473 0.42769 0.24407 0.0
C892 C 0.63111 0.4186 0.27283 0.0
C893 C 0.65283 0.42519 0.29307 0.0
C894 C 0.67771 0.44002 0.28494 0.0
C895 C 0.68073 0.44835 0.25647 0.0
C896 C 0.65973 0.44275 0.23638 0.0
C897 C 0.66796 0.45511 0.20741 0.0
C898 C 0.67121 0.43125 0.18488 0.0
C899 C 0.64608 0.47778 0.1978 0.0
C900 C 0.69674 0.46864 0.21446 0.0
C901 C 0.70381 0.46418 0.24281 0.0
C902 C 0.72903 0.47505 0.25455 0.0
C903 C 0.74711 0.49165 0.23712 0.0
C904 C 0.73991 0.4975 0.2082 0.0
C905 C 0.71456 0.48521 0.19671 0.0
H906 H 0.35978 0.94823 0.21438 0.0
H907 H 0.35463 0.87118 0.26615 0.0
H908 H 0.30906 0.88757 0.28665 0.0
H909 H 0.33448 0.99514 0.26823 0.0
H910 H 0.31406 0.01785 0.24466 0.0
H911 H 0.34466 0.99866 0.23111 0.0
H912 H 0.31271 0.97571 0.1919 0.0
H913 H 0.28198 0.9947 0.2057 0.0
H914 H 0.28097 0.95622 0.20221 0.0
H915 H 0.26772 0.91367 0.30606 0.0
H916 H 0.23332 0.94958 0.32434 0.0
H917 H 0.26273 0.01006 0.26036 0.0
C918 C 0.34871 0.9347 0.22964 0.0
C919 C 0.36087 0.90845 0.23873 0.0
C920 C 0.34596 0.8915 0.25908 0.0
C921 C 0.31986 0.90049 0.2707 0.0
C922 C 0.30865 0.92658 0.26186 0.0
C923 C 0.32249 0.94359 0.24188 0.0
C924 C 0.30669 0.97187 0.23826 0.0
C925 C 0.32613 0.99737 0.24604 0.0
C926 C 0.29488 0.97478 0.20769 0.0
C927 C 0.28252 0.96824 0.25992 0.0
C928 C 0.28395 0.94174 0.27296 0.0
C929 C 0.26586 0.93425 0.29558 0.0
C930 C 0.24632 0.95468 0.30578 0.0
C931 C 0.24478 0.98213 0.29318 0.0
C932 C 0.26264 0.98874 0.26951 0.0
H933 H 0.22693 0.98366 0.75728 0.0
H934 H 0.25823 0.03931 0.82471 0.0
H935 H 0.22514 0.07742 0.8089 0.0
H936 H 0.21069 0.04078 0.7025 0.0
H937 H 0.17827 0.02293 0.69142 0.0
H938 H 0.20829 0.00224 0.70408 0.0
H939 H 0.17569 0.97845 0.7425 0.0
H940 H 0.14577 0.99898 0.72964 0.0
H941 H 0.15582 0.00088 0.76687 0.0
H942 H 0.18405 0.1056 0.79188 0.0
H943 H 0.13913 0.12455 0.77202 0.0
H944 H 0.13309 0.05106 0.71512 0.0
C945 C 0.22773 0.00444 0.76766 0.0
C946 C 0.2456 0.00911 0.79159 0.0
C947 C 0.24512 0.03582 0.80588 0.0
C948 C 0.22635 0.05746 0.79711 0.0
C949 C 0.20807 0.05187 0.77419 0.0
C950 C 0.20872 0.02615 0.75941 0.0
C951 C 0.18441 0.02444 0.73787 0.0
C952 C 0.19612 0.02249 0.70714 0.0
C953 C 0.16425 0.9992 0.74463 0.0
C954 C 0.16974 0.05294 0.7433 0.0
C955 C 0.18384 0.06834 0.76432 0.0
C956 C 0.17312 0.09405 0.77499 0.0
C957 C 0.14741 0.10448 0.76376 0.0
C958 C 0.13265 0.08931 0.74198 0.0
C959 C 0.14414 0.0633 0.73146 0.0
H960 H 0.72276 0.86745 0.58142 0.0
H961 H 0.81412 0.85284 0.57104 0.0
H962 H 0.80391 0.80797 0.5449 0.0
H963 H 0.70216 0.79327 0.59135 0.0
H964 H 0.66946 0.7968 0.57116 0.0
H965 H 0.68385 0.82726 0.59008 0.0
H966 H 0.68442 0.85675 0.54304 0.0
H967 H 0.6696 0.82656 0.52415 0.0
H968 H 0.70261 0.84257 0.51199 0.0
H969 H 0.78361 0.76477 0.51904 0.0
H970 H 0.755 0.73005 0.49117 0.0
H971 H 0.67706 0.7731 0.51849 0.0
C972 C 0.74068 0.85485 0.5737 0.0
C973 C 0.76927 0.86382 0.57837 0.0
C974 C 0.79201 0.84664 0.56767 0.0
C975 C 0.78644 0.82094 0.55298 0.0
C976 C 0.75803 0.8126 0.54908 0.0
C977 C 0.73553 0.82922 0.55888 0.0
C978 C 0.70693 0.81623 0.55065 0.0
C979 C 0.68958 0.80789 0.57741 0.0
C980 C 0.6899 0.83674 0.5313 0.0
C981 C 0.71685 0.78992 0.53434 0.0
C982 C 0.74638 0.78796 0.534 0.0
C983 C 0.76045 0.76602 0.5193 0.0
C984 C 0.74396 0.74624 0.50365 0.0
C985 C 0.71368 0.74865 0.50257 0.0
C986 C 0.7001 0.77037 0.51894 0.0
H987 H 0.82745 0.21172 0.01504 0.0
H988 H 0.76224 0.27806 0.01922 0.0
H989 H 0.73137 0.24587 0.04742 0.0
H990 H 0.78198 0.15489 0.00409 0.0
H991 H 0.80098 0.12942 0.02596 0.0
H992 H 0.82003 0.15869 0.00962 0.0
H993 H 0.83879 0.17533 0.05915 0.0
H994 H 0.8205 0.14559 0.07563 0.0
H995 H 0.8137 0.1816 0.0879 0.0
H996 H 0.70474 0.20411 0.069 0.0
H997 H 0.68763 0.15845 0.08966 0.0
H998 H 0.7705 0.11985 0.07219 0.0
C999 C 0.80711 0.21993 0.02266 0.0
C1000 C 0.79737 0.24752 0.01472 0.0
C1001 C 0.77036 0.25711 0.02498 0.0
C1002 C 0.75251 0.23889 0.0409 0.0
C1003 C 0.76209 0.21126 0.04679 0.0
C1004 C 0.78906 0.20207 0.03865 0.0
C1005 C 0.79377 0.17098 0.04669 0.0
C1006 C 0.79952 0.15242 0.02 0.0
C1007 C 0.81813 0.16822 0.06865 0.0
C1008 C 0.76499 0.16394 0.05997 0.0
C1009 C 0.74696 0.1874 0.05972 0.0
C1010 C 0.71883 0.1857 0.0697 0.0
C1011 C 0.70918 0.15957 0.08107 0.0
C1012 C 0.7277 0.13554 0.08254 0.0
C1013 C 0.75585 0.13782 0.07148 0.0
H1014 H 0.23805 0.74319 0.4998 0.0
H1015 H 0.15597 0.75229 0.45759 0.0
H1016 H 0.1705 0.71643 0.42147 0.0
H1017 H 0.28224 0.72635 0.43274 0.0
H1018 H 0.30345 0.7005 0.45199 0.0
H1019 H 0.28947 0.73156 0.47033 0.0
H1020 H 0.26549 0.69828 0.50767 0.0
H1021 H 0.27869 0.66713 0.48915 0.0
H1022 H 0.24082 0.67104 0.49572 0.0
H1023 H 0.18934 0.67406 0.39628 0.0
H1024 H 0.21346 0.63028 0.37974 0.0
H1025 H 0.2841 0.64712 0.43791 0.0
C1026 C 0.22389 0.73876 0.48197 0.0
C1027 C 0.1962 0.75099 0.4809 0.0
C1028 C 0.17748 0.74359 0.45827 0.0
C1029 C 0.18552 0.72316 0.43779 0.0
C1030 C 0.21234 0.71027 0.44029 0.0
C1031 C 0.23152 0.71805 0.46148 0.0
C1032 C 0.25751 0.69841 0.46132 0.0
C1033 C 0.28479 0.71521 0.45363 0.0
C1034 C 0.2608 0.6828 0.49017 0.0
C1035 C 0.24934 0.67774 0.43755 0.0
C1036 C 0.2233 0.68522 0.42564 0.0
C1037 C 0.21003 0.66831 0.40499 0.0
C1038 C 0.22382 0.64325 0.39597 0.0
C1039 C 0.25073 0.63518 0.40751 0.0
C1040 C 0.26371 0.65285 0.42847 0.0
H1041 H 0.32179 0.28457 0.98597 0.0
H1042 H 0.24623 0.23426 0.00675 0.0
H1043 H 0.21685 0.26623 0.97672 0.0
H1044 H 0.2893 0.35148 0.98953 0.0
H1045 H 0.30874 0.36696 0.95996 0.0
H1046 H 0.32454 0.33844 0.98046 0.0
H1047 H 0.33151 0.30829 0.93429 0.0
H1048 H 0.31615 0.33693 0.91352 0.0
H1049 H 0.30121 0.30136 0.91138 0.0
H1050 H 0.19479 0.30693 0.94859 0.0
H1051 H 0.18272 0.35034 0.92084 0.0
H1052 H 0.27286 0.37338 0.91807 0.0
C1053 C 0.29919 0.27979 0.98374 0.0
C1054 C 0.28643 0.25676 0.9988 0.0
C1055 C 0.25666 0.25158 0.99537 0.0
C1056 C 0.23971 0.26973 0.97842 0.0
C1057 C 0.25284 0.29282 0.96477 0.0
C1058 C 0.28199 0.2976 0.96686 0.0
C1059 C 0.29071 0.32452 0.95097 0.0
C1060 C 0.30411 0.34665 0.97146 0.0
C1061 C 0.3111 0.31734 0.92606 0.0
C1062 C 0.26183 0.33449 0.94014 0.0
C1063 C 0.24023 0.31595 0.9483 0.0
C1064 C 0.21159 0.3214 0.94178 0.0
C1065 C 0.20492 0.34624 0.92618 0.0
C1066 C 0.22681 0.36531 0.91717 0.0
C1067 C 0.2556 0.3592 0.92439 0.0
H1068 H 0.5294 0.67479 0.77387 0.0
H1069 H 0.503 0.74969 0.72553 0.0
H1070 H 0.52862 0.78072 0.75983 0.0
H1071 H 0.51782 0.70298 0.84031 0.0
H1072 H 0.54817 0.68668 0.85768 0.0
H1073 H 0.53236 0.66975 0.82688 0.0
H1074 H 0.58126 0.67004 0.8005 0.0
H1075 H 0.5975 0.68626 0.83156 0.0
H1076 H 0.60081 0.70319 0.79703 0.0
H1077 H 0.55084 0.80392 0.80355 0.0
H1078 H 0.57323 0.81702 0.84967 0.0
H1079 H 0.58452 0.72676 0.86928 0.0
C1080 C 0.52978 0.69763 0.76981 0.0
C1081 C 0.51411 0.70968 0.74686 0.0
C1082 C 0.51498 0.73979 0.74273 0.0
C1083 C 0.52934 0.75766 0.76225 0.0
C1084 C 0.54303 0.74512 0.78561 0.0
C1085 C 0.54393 0.71573 0.78908 0.0
C1086 C 0.55841 0.70764 0.81694 0.0
C1087 C 0.53796 0.69077 0.8366 0.0
C1088 C 0.58615 0.69079 0.81115 0.0
C1089 C 0.56475 0.73706 0.82904 0.0
C1090 C 0.55583 0.75844 0.81065 0.0
C1091 C 0.55829 0.78733 0.8179 0.0
C1092 C 0.57079 0.79456 0.84431 0.0
C1093 C 0.58068 0.77296 0.86323 0.0
C1094 C 0.57733 0.74385 0.85537 0.0
H1095 H 0.98272 0.76009 0.22895 0.0
H1096 H 0.03955 0.82687 0.25959 0.0
H1097 H 0.07734 0.80985 0.22658 0.0
H1098 H 0.03923 0.70414 0.21414 0.0
H1099 H 0.02166 0.69224 0.18187 0.0
H1100 H 0.00076 0.70622 0.21127 0.0
H1101 H 0.97792 0.74345 0.17724 0.0
H1102 H 0.99893 0.72986 0.14783 0.0
H1103 H 0.00077 0.76731 0.1572 0.0
H1104 H 0.10638 0.79024 0.18718 0.0
H1105 H 0.12628 0.7687 0.14353 0.0
H1106 H 0.05129 0.7141 0.13572 0.0
C1107 C 0.00359 0.77024 0.22948 0.0
C1108 C 0.00864 0.79428 0.24743 0.0
C1109 C 0.03559 0.80807 0.24652 0.0
C1110 C 0.05711 0.79857 0.22778 0.0
C1111 C 0.05127 0.7754 0.20978 0.0
C1112 C 0.02527 0.76124 0.21045 0.0
C1113 C 0.02374 0.73886 0.18664 0.0
C1114 C 0.0212 0.70856 0.19923 0.0
C1115 C 0.99886 0.74527 0.16601 0.0
C1116 C 0.05266 0.74319 0.17209 0.0
C1117 C 0.06813 0.76424 0.18614 0.0
C1118 C 0.09463 0.77352 0.1762 0.0
C1119 C 0.10566 0.76122 0.15118 0.0
C1120 C 0.09037 0.73972 0.13602 0.0
C1121 C 0.06363 0.73023 0.14695 0.0
H1122 H 0.5126 0.24516 0.72919 0.0
H1123 H 0.45958 0.17618 0.76151 0.0
H1124 H 0.41986 0.19185 0.73031 0.0
H1125 H 0.45338 0.29909 0.71607 0.0
H1126 H 0.46985 0.31109 0.68325 0.0
H1127 H 0.49185 0.29852 0.71236 0.0
H1128 H 0.51556 0.26134 0.67836 0.0
H1129 H 0.49368 0.2739 0.64933 0.0
H1130 H 0.49323 0.23651 0.65899 0.0
H1131 H 0.38977 0.20898 0.69073 0.0
H1132 H 0.36926 0.22835 0.6463 0.0
H1133 H 0.44136 0.28663 0.63813 0.0
C1134 C 0.49208 0.23438 0.73062 0.0
C1135 C 0.48857 0.21009 0.74825 0.0
C1136 C 0.46217 0.19529 0.7486 0.0
C1137 C 0.43961 0.20401 0.73093 0.0
C1138 C 0.44398 0.22739 0.71291 0.0
C1139 C 0.46944 0.2426 0.71272 0.0
C1140 C 0.46979 0.26452 0.68871 0.0
C1141 C 0.4713 0.29512 0.70083 0.0
C1142 C 0.49453 0.25871 0.66761 0.0
C1143 C 0.44095 0.25863 0.67496 0.0
C1144 C 0.42642 0.23726 0.68946 0.0
C1145 C 0.40062 0.22614 0.67952 0.0
C1146 C 0.3893 0.2371 0.65409 0.0
C1147 C 0.4037 0.25903 0.63881 0.0
C1148 C 0.42969 0.27019 0.64963 0.0
H1149 H 0.92291 0.26846 0.37329 0.0
H1150 H 0.90955 0.18433 0.33561 0.0
H1151 H 0.9332 0.20055 0.29116 0.0
H1152 H 0.91121 0.30971 0.30887 0.0
H1153 H 0.93887 0.33544 0.31699 0.0
H1154 H 0.92014 0.31755 0.34563 0.0
H1155 H 0.96839 0.29956 0.36636 0.0
H1156 H 0.98724 0.31774 0.33805 0.0
H1157 H 0.99268 0.2799 0.34356 0.0
H1158 H 0.95903 0.22601 0.25064 0.0
H1159 H 0.98878 0.25691 0.21962 0.0
H1160 H 0.98516 0.32421 0.28396 0.0
C1161 C 0.92492 0.25337 0.35574 0.0
C1162 C 0.91429 0.22505 0.35812 0.0
C1163 C 0.91759 0.20608 0.33453 0.0
C1164 C 0.93083 0.21516 0.30904 0.0
C1165 C 0.94075 0.2433 0.30735 0.0
C1166 C 0.93819 0.26203 0.33019 0.0
C1167 C 0.95168 0.29077 0.32334 0.0
C1168 C 0.92912 0.31478 0.32373 0.0
C1169 C 0.97647 0.29737 0.34405 0.0
C1170 C 0.96253 0.2852 0.29321 0.0
C1171 C 0.95574 0.25782 0.28421 0.0
C1172 C 0.96435 0.24755 0.25745 0.0
C1173 C 0.98114 0.26537 0.23986 0.0
C1174 C 0.98938 0.29314 0.24915 0.0
C1175 C 0.97917 0.30326 0.27594 0.0
H1176 H 0.15635 0.14541 0.27092 0.0
H1177 H 0.15015 0.16477 0.36189 0.0
H1178 H 0.13853 0.21475 0.35073 0.0
H1179 H 0.18695 0.21499 0.24891 0.0
H1180 H 0.16645 0.21542 0.21621 0.0
H1181 H 0.17711 0.18178 0.23174 0.0
H1182 H 0.12367 0.16575 0.23201 0.0
H1183 H 0.11337 0.19961 0.21683 0.0
H1184 H 0.09744 0.18778 0.24998 0.0
H1185 H 0.12461 0.26188 0.33033 0.0
H1186 H 0.10517 0.30168 0.30144 0.0
H1187 H 0.12112 0.25236 0.22398 0.0
C1188 C 0.15265 0.16016 0.28848 0.0
C1189 C 0.15423 0.151 0.31725 0.0
C1190 C 0.14913 0.17109 0.3396 0.0
C1191 C 0.14271 0.19969 0.33355 0.0
C1192 C 0.14155 0.20808 0.30505 0.0
C1193 C 0.14621 0.18893 0.28285 0.0
C1194 C 0.14171 0.20314 0.25411 0.0
C1195 C 0.16974 0.20389 0.23674 0.0
C1196 C 0.11761 0.18819 0.23726 0.0
C1197 C 0.13295 0.23292 0.26377 0.0
C1198 C 0.13346 0.23547 0.29321 0.0
C1199 C 0.12441 0.26034 0.30719 0.0
C1200 C 0.1135 0.28288 0.29062 0.0
C1201 C 0.11152 0.28015 0.2605 0.0
C1202 C 0.12236 0.25519 0.24698 0.0
H1203 H 0.33734 0.84889 0.77714 0.0
H1204 H 0.37401 0.84777 0.86263 0.0
H1205 H 0.39077 0.79825 0.85458 0.0
H1206 H 0.31353 0.77468 0.77648 0.0
H1207 H 0.32232 0.7697 0.73917 0.0
H1208 H 0.312 0.80461 0.75216 0.0
H1209 H 0.35928 0.82631 0.7324 0.0
H1210 H 0.36935 0.7916 0.71897 0.0
H1211 H 0.39305 0.81071 0.74275 0.0
H1212 H 0.40551 0.7495 0.83626 0.0
H1213 H 0.42064 0.70758 0.80744 0.0
H1214 H 0.37285 0.74063 0.73494 0.0
C1215 C 0.34897 0.83834 0.79418 0.0
C1216 C 0.35441 0.85231 0.82048 0.0
C1217 C 0.36958 0.83755 0.84225 0.0
C1218 C 0.37902 0.80934 0.83799 0.0
C1219 C 0.37289 0.79608 0.81196 0.0
C1220 C 0.35833 0.81017 0.79039 0.0
C1221 C 0.35557 0.79169 0.76393 0.0
C1222 C 0.32398 0.78476 0.75757 0.0
C1223 C 0.3702 0.80592 0.738 0.0
C1224 C 0.37161 0.76531 0.77367 0.0
C1225 C 0.38109 0.768 0.80157 0.0
C1226 C 0.39794 0.74699 0.81449 0.0
C1227 C 0.40627 0.72316 0.79804 0.0
C1228 C 0.39793 0.72084 0.76898 0.0
C1229 C 0.37951 0.74171 0.75715 0.0
H1230 H 0.61489 0.34409 0.66362 0.0
H1231 H 0.69722 0.3483 0.70623 0.0
H1232 H 0.6936 0.29725 0.71885 0.0
H1233 H 0.5833 0.30299 0.71851 0.0
H1234 H 0.56035 0.28222 0.69549 0.0
H1235 H 0.57138 0.31753 0.68481 0.0
H1236 H 0.59197 0.29707 0.6375 0.0
H1237 H 0.58105 0.26151 0.64795 0.0
H1238 H 0.61793 0.26849 0.6387 0.0
H1239 H 0.68025 0.24783 0.73029 0.0
H1240 H 0.65379 0.20579 0.74835 0.0
H1241 H 0.57841 0.23281 0.70174 0.0
C1242 C 0.63222 0.33399 0.67525 0.0
C1243 C 0.65658 0.34987 0.68364 0.0
C1244 C 0.67853 0.33634 0.6995 0.0
C1245 C 0.6768 0.30729 0.70647 0.0
C1246 C 0.65266 0.29206 0.69788 0.0
C1247 C 0.63038 0.30501 0.68327 0.0
C1248 C 0.60496 0.28484 0.68083 0.0
C1249 C 0.57844 0.29766 0.6958 0.0
C1250 C 0.59861 0.27755 0.64936 0.0
C1251 C 0.61634 0.25887 0.69678 0.0
C1252 C 0.64425 0.2633 0.70564 0.0
C1253 C 0.65862 0.24375 0.72299 0.0
C1254 C 0.64359 0.21978 0.7329 0.0
C1255 C 0.61455 0.21566 0.7255 0.0
C1256 C 0.60105 0.23484 0.70643 0.0
H1257 H 0.82647 0.66083 0.21728 0.0
H1258 H 0.88134 0.6518 0.14252 0.0
H1259 H 0.89616 0.70223 0.14731 0.0
H1260 H 0.8041 0.73473 0.20329 0.0
H1261 H 0.80476 0.74461 0.24064 0.0
H1262 H 0.79681 0.7082 0.23039 0.0
H1263 H 0.83825 0.68956 0.26219 0.0
H1264 H 0.8456 0.72577 0.2731 0.0
H1265 H 0.87372 0.70422 0.25758 0.0
H1266 H 0.90786 0.75253 0.16206 0.0
H1267 H 0.91996 0.79617 0.18963 0.0
H1268 H 0.85603 0.77344 0.25315 0.0
C1269 C 0.84169 0.6694 0.20197 0.0
C1270 C 0.85273 0.65225 0.17955 0.0
C1271 C 0.8725 0.66444 0.15989 0.0
C1272 C 0.88088 0.69319 0.16225 0.0
C1273 C 0.86912 0.70967 0.18418 0.0
C1274 C 0.85015 0.69816 0.20386 0.0
C1275 C 0.84212 0.71994 0.22655 0.0
C1276 C 0.81004 0.7273 0.22511 0.0
C1277 C 0.85045 0.70924 0.25662 0.0
C1278 C 0.86044 0.74509 0.21717 0.0
C1279 C 0.87543 0.73898 0.19235 0.0
C1280 C 0.89584 0.75786 0.1812 0.0
C1281 C 0.90236 0.78281 0.19678 0.0
C1282 C 0.88871 0.7883 0.22329 0.0
C1283 C 0.86639 0.77 0.23263 0.0
H1284 H 0.24628 0.13008 0.26644 0.0
H1285 H 0.30709 0.06274 0.28634 0.0
H1286 H 0.33536 0.07572 0.24332 0.0
H1287 H 0.2422 0.11592 0.19573 0.0
H1288 H 0.23871 0.15245 0.18371 0.0
H1289 H 0.227 0.14277 0.21908 0.0
H1290 H 0.26005 0.18123 0.24158 0.0
H1291 H 0.27132 0.19174 0.20618 0.0
H1292 H 0.29764 0.18172 0.23256 0.0
H1293 H 0.35275 0.09177 0.19439 0.0
H1294 H 0.35934 0.11113 0.1455 0.0
H1295 H 0.28469 0.1654 0.15734 0.0
C1296 C 0.26612 0.11872 0.26236 0.0
C1297 C 0.27466 0.09555 0.27976 0.0
C1298 C 0.3005 0.08092 0.27355 0.0
C1299 C 0.31654 0.08802 0.24905 0.0
C1300 C 0.30645 0.10989 0.23135 0.0
C1301 C 0.28203 0.1253 0.23802 0.0
C1302 C 0.27374 0.14557 0.21421 0.0
C1303 C 0.24364 0.13874 0.20251 0.0
C1304 C 0.27583 0.17692 0.22423 0.0
C1305 C 0.29673 0.13851 0.19258 0.0
C1306 C 0.3157 0.11825 0.20292 0.0
C1307 C 0.33822 0.10787 0.18624 0.0
C1308 C 0.34168 0.11885 0.15846 0.0
C1309 C 0.32238 0.13958 0.14755 0.0
C1310 C 0.29961 0.14934 0.16491 0.0
H1311 H 0.20265 0.92121 0.76514 0.0
H1312 H 0.24769 0.84481 0.79212 0.0
H1313 H 0.23034 0.81914 0.74928 0.0
H1314 H 0.13992 0.88336 0.72823 0.0
H1315 H 0.13952 0.90964 0.69998 0.0
H1316 H 0.14993 0.91995 0.73573 0.0
H1317 H 0.198 0.93979 0.71579 0.0
H1318 H 0.18764 0.92933 0.68019 0.0
H1319 H 0.22086 0.91653 0.6951 0.0
H1320 H 0.21847 0.80586 0.69963 0.0
H1321 H 0.20452 0.80206 0.64879 0.0
H1322 H 0.16457 0.88583 0.65336 0.0
C1323 C 0.20717 0.89854 0.76286 0.0
C1324 C 0.22561 0.88454 0.78228 0.0
C1325 C 0.23278 0.85544 0.77787 0.0
C1326 C 0.22326 0.84084 0.75347 0.0
C1327 C 0.20652 0.85568 0.73376 0.0
C1328 C 0.19784 0.88365 0.73843 0.0
C1329 C 0.18246 0.8955 0.71234 0.0
C1330 C 0.15109 0.90252 0.7195 0.0
C1331 C 0.19818 0.92184 0.70015 0.0
C1332 C 0.18469 0.87015 0.69205 0.0
C1333 C 0.19888 0.84754 0.70487 0.0
C1334 C 0.20657 0.82303 0.68962 0.0
C1335 C 0.19892 0.82122 0.66071 0.0
C1336 C 0.18347 0.84361 0.64743 0.0
C1337 C 0.17611 0.86834 0.66328 0.0
H1338 H 0.79548 0.42119 0.73423 0.0
H1339 H 0.74773 0.34769 0.70396 0.0
H1340 H 0.76037 0.32115 0.74789 0.0
H1341 H 0.85352 0.37734 0.77397 0.0
H1342 H 0.8552 0.40422 0.80171 0.0
H1343 H 0.8478 0.41453 0.76525 0.0
H1344 H 0.80172 0.44001 0.78276 0.0
H1345 H 0.80811 0.4288 0.81901 0.0
H1346 H 0.77481 0.41971 0.8017 0.0
H1347 H 0.76721 0.30827 0.79889 0.0
H1348 H 0.77868 0.30408 0.85031 0.0
H1349 H 0.82562 0.38422 0.84671 0.0
C1350 C 0.78938 0.39887 0.73615 0.0
C1351 C 0.77104 0.38611 0.71589 0.0
C1352 C 0.76211 0.35743 0.71933 0.0
C1353 C 0.76908 0.34233 0.74421 0.0
C1354 C 0.78552 0.35619 0.76491 0.0
C1355 C 0.79661 0.38338 0.76069 0.0
C1356 C 0.81169 0.39425 0.7873 0.0
C1357 C 0.84398 0.39778 0.78172 0.0
C1358 C 0.79826 0.42234 0.79832 0.0
C1359 C 0.80583 0.36968 0.80757 0.0
C1360 C 0.79059 0.34804 0.79425 0.0
C1361 C 0.77996 0.3246 0.80934 0.0
C1362 C 0.78612 0.32265 0.83859 0.0
C1363 C 0.803 0.34382 0.85225 0.0
C1364 C 0.81285 0.36768 0.83658 0.0
H1365 H 0.75388 0.64777 0.22283 0.0
H1366 H 0.68499 0.59232 0.19461 0.0
H1367 H 0.65672 0.60596 0.2372 0.0
H1368 H 0.75513 0.62629 0.28815 0.0
H1369 H 0.76237 0.65952 0.30654 0.0
H1370 H 0.77308 0.65525 0.26985 0.0
H1371 H 0.7442 0.69991 0.25482 0.0
H1372 H 0.73424 0.70534 0.29178 0.0
H1373 H 0.70693 0.70287 0.26462 0.0
H1374 H 0.64273 0.61396 0.28771 0.0
H1375 H 0.63975 0.62233 0.33966 0.0
H1376 H 0.71913 0.67095 0.33641 0.0
C1377 C 0.7321 0.63994 0.2248 0.0
C1378 C 0.72147 0.61911 0.20557 0.0
C1379 C 0.69324 0.60869 0.20888 0.0
C1380 C 0.67718 0.61614 0.23319 0.0
C1381 C 0.6896 0.63434 0.25345 0.0
C1382 C 0.71611 0.64689 0.24909 0.0
C1383 C 0.72681 0.6618 0.27592 0.0
C1384 C 0.75605 0.64997 0.28566 0.0
C1385 C 0.7281 0.69442 0.27151 0.0
C1386 C 0.70326 0.65376 0.29665 0.0
C1387 C 0.68174 0.63848 0.28314 0.0
C1388 C 0.65899 0.62663 0.29833 0.0
C1389 C 0.65772 0.63121 0.32794 0.0
C1390 C 0.67926 0.64729 0.34218 0.0
C1391 C 0.70238 0.65853 0.32622 0.0
H1392 H 0.25804 0.23885 0.14034 0.0
H1393 H 0.29734 0.31038 0.09582 0.0
H1394 H 0.25458 0.33989 0.10601 0.0
H1395 H 0.19242 0.24584 0.11235 0.0
H1396 H 0.17194 0.23672 0.14384 0.0
H1397 H 0.20775 0.22318 0.13957 0.0
H1398 H 0.22241 0.24509 0.18814 0.0
H1399 H 0.18666 0.2589 0.19313 0.0
H1400 H 0.21693 0.28279 0.19472 0.0
H1401 H 0.2044 0.35843 0.11332 0.0
H1402 H 0.15306 0.36689 0.12287 0.0
H1403 H 0.14623 0.28226 0.16089 0.0
C1404 C 0.2582 0.2611 0.13378 0.0
C1405 C 0.28108 0.27232 0.11731 0.0
C1406 C 0.2803 0.30143 0.10881 0.0
C1407 C 0.25594 0.31827 0.11427 0.0
C1408 C 0.23284 0.30578 0.12859 0.0
C1409 C 0.23408 0.27806 0.1389 0.0
C1410 C 0.20555 0.26871 0.15132 0.0
C1411 C 0.19374 0.24204 0.13582 0.0
C1412 C 0.20805 0.26357 0.18375 0.0
C1413 C 0.18764 0.29493 0.14503 0.0
C1414 C 0.20382 0.31624 0.13231 0.0
C1415 C 0.19165 0.34206 0.12368 0.0
C1416 C 0.16239 0.34654 0.12896 0.0
C1417 C 0.14549 0.32517 0.14246 0.0
C1418 C 0.15838 0.29893 0.15025 0.0
H1419 H 0.76117 0.26023 0.87134 0.0
H1420 H 0.79258 0.1867 0.91819 0.0
H1421 H 0.75026 0.15867 0.90223 0.0
H1422 H 0.69256 0.25464 0.89101 0.0
H1423 H 0.67658 0.26559 0.85764 0.0
H1424 H 0.71197 0.27766 0.86679 0.0
H1425 H 0.7325 0.25662 0.81971 0.0
H1426 H 0.69697 0.24519 0.80976 0.0
H1427 H 0.72587 0.21959 0.81081 0.0
H1428 H 0.7005 0.14221 0.88815 0.0
H1429 H 0.65019 0.13652 0.87305 0.0
H1430 H 0.65177 0.22203 0.83639 0.0
C1431 C 0.75977 0.23783 0.87716 0.0
C1432 C 0.78012 0.2254 0.89564 0.0
C1433 C 0.77743 0.1963 0.90351 0.0
C1434 C 0.75337 0.18039 0.89472 0.0
C1435 C 0.73272 0.19394 0.87784 0.0
C1436 C 0.73609 0.22186 0.8686 0.0
C1437 C 0.70982 0.23266 0.85308 0.0
C1438 C 0.69699 0.25919 0.86804 0.0
C1439 C 0.7167 0.23887 0.82146 0.0
C1440 C 0.69048 0.20691 0.8561 0.0
C1441 C 0.7041 0.18467 0.87012 0.0
C1442 C 0.68985 0.15929 0.8767 0.0
C1443 C 0.66115 0.1564 0.86824 0.0
C1444 C 0.6469 0.17887 0.85356 0.0
C1445 C 0.66191 0.20444 0.84759 0.0
H1446 H 0.7277 0.74209 0.35354 0.0
H1447 H 0.70068 0.80772 0.41357 0.0
H1448 H 0.74373 0.83613 0.40156 0.0
H1449 H 0.79499 0.73978 0.37361 0.0
H1450 H 0.81185 0.73435 0.33924 0.0
H1451 H 0.77542 0.72316 0.34471 0.0
H1452 H 0.75807 0.75422 0.3023 0.0
H1453 H 0.79475 0.76443 0.29568 0.0
H1454 H 0.76774 0.79159 0.30083 0.0
H1455 H 0.79413 0.85139 0.3918 0.0
H1456 H 0.84525 0.85641 0.37972 0.0
H1457 H 0.84069 0.77934 0.32758 0.0
C1458 C 0.73005 0.76322 0.36292 0.0
C1459 C 0.71079 0.77289 0.38431 0.0
C1460 C 0.71481 0.80025 0.39671 0.0
C1461 C 0.73943 0.81634 0.39023 0.0
C1462 C 0.75941 0.80487 0.37105 0.0
C1463 C 0.75459 0.77927 0.3569 0.0
C1464 C 0.78089 0.7697 0.34025 0.0
C1465 C 0.79138 0.74001 0.35007 0.0
C1466 C 0.77501 0.77002 0.30784 0.0
C1467 C 0.80183 0.79302 0.34859 0.0
C1468 C 0.78887 0.81332 0.36595 0.0
C1469 C 0.80428 0.83599 0.37771 0.0
C1470 C 0.83343 0.83847 0.37091 0.0
C1471 C 0.84711 0.81823 0.35271 0.0
C1472 C 0.831 0.79507 0.34166 0.0
H1473 H 0.35412 0.72103 0.65642 0.0
H1474 H 0.34739 0.63285 0.62708 0.0
H1475 H 0.29804 0.64193 0.6109 0.0
H1476 H 0.28125 0.72744 0.68209 0.0
H1477 H 0.27736 0.76398 0.67027 0.0
H1478 H 0.31214 0.75058 0.68027 0.0
H1479 H 0.33263 0.76501 0.63066 0.0
H1480 H 0.2981 0.77894 0.62077 0.0
H1481 H 0.31525 0.75232 0.59857 0.0
H1482 H 0.24965 0.66076 0.59686 0.0
H1483 H 0.20768 0.68956 0.58209 0.0
H1484 H 0.24588 0.76472 0.62157 0.0
C1485 C 0.34237 0.70368 0.64641 0.0
C1486 C 0.3547 0.67626 0.64303 0.0
C1487 C 0.33844 0.65407 0.62998 0.0
C1488 C 0.3103 0.65893 0.62085 0.0
C1489 C 0.29861 0.68602 0.62503 0.0
C1490 C 0.31418 0.70808 0.6373 0.0
C1491 C 0.29692 0.73546 0.63847 0.0
C1492 C 0.29161 0.74491 0.66963 0.0
C1493 C 0.3116 0.75933 0.62107 0.0
C1494 C 0.26949 0.72546 0.62437 0.0
C1495 C 0.27069 0.6968 0.61709 0.0
C1496 C 0.24832 0.68319 0.60264 0.0
C1497 C 0.22449 0.69963 0.59451 0.0
C1498 C 0.22353 0.72932 0.60067 0.0
C1499 C 0.24596 0.74203 0.61658 0.0
H1500 H 0.82853 0.84494 0.71567 0.0
H1501 H 0.87319 0.84616 0.63395 0.0
H1502 H 0.8871 0.79553 0.64089 0.0
H1503 H 0.87867 0.80396 0.75307 0.0
H1504 H 0.85214 0.78483 0.77367 0.0
H1505 H 0.8444 0.82017 0.76064 0.0
H1506 H 0.79888 0.80032 0.73573 0.0
H1507 H 0.80706 0.76467 0.74806 0.0
H1508 H 0.80212 0.77131 0.71036 0.0
H1509 H 0.89933 0.74602 0.65875 0.0
H1510 H 0.91304 0.70432 0.68835 0.0
H1511 H 0.85831 0.73535 0.75687 0.0
C1512 C 0.84129 0.83468 0.69919 0.0
C1513 C 0.84992 0.84961 0.67435 0.0
C1514 C 0.86641 0.83519 0.65323 0.0
C1515 C 0.87416 0.80636 0.65684 0.0
C1516 C 0.86489 0.79218 0.68142 0.0
C1517 C 0.8489 0.80596 0.70227 0.0
C1518 C 0.84309 0.78668 0.72757 0.0
C1519 C 0.85533 0.79968 0.75536 0.0
C1520 C 0.81087 0.78038 0.73059 0.0
C1521 C 0.85943 0.76026 0.71832 0.0
C1522 C 0.87138 0.76354 0.69139 0.0
C1523 C 0.88966 0.74295 0.67962 0.0
C1524 C 0.89714 0.71919 0.69645 0.0
C1525 C 0.88658 0.71663 0.72477 0.0
C1526 C 0.8664 0.73666 0.73513 0.0
H1527 H 0.60817 0.15496 0.17331 0.0
H1528 H 0.69908 0.16239 0.19042 0.0
H1529 H 0.6935 0.21413 0.19956 0.0
H1530 H 0.59747 0.22792 0.14161 0.0
H1531 H 0.56351 0.23293 0.1594 0.0
H1532 H 0.57501 0.19743 0.14926 0.0
H1533 H 0.56915 0.18024 0.20176 0.0
H1534 H 0.55711 0.21546 0.21172 0.0
H1535 H 0.58711 0.19951 0.23003 0.0
H1536 H 0.67794 0.26318 0.21226 0.0
H1537 H 0.65239 0.30433 0.23381 0.0
H1538 H 0.57126 0.26637 0.20998 0.0
C1539 C 0.62686 0.16773 0.17843 0.0
C1540 C 0.65412 0.15486 0.18101 0.0
C1541 C 0.67805 0.17196 0.18841 0.0
C1542 C 0.67513 0.20141 0.19333 0.0
C1543 C 0.64802 0.21359 0.19095 0.0
C1544 C 0.62417 0.19729 0.18404 0.0
C1545 C 0.59702 0.21503 0.18676 0.0
C1546 C 0.5824 0.21853 0.15751 0.0
C1547 C 0.5764 0.20178 0.20889 0.0
C1548 C 0.60929 0.24337 0.19722 0.0
C1549 C 0.63885 0.24227 0.19871 0.0
C1550 C 0.65487 0.26466 0.21049 0.0
C1551 C 0.64026 0.28814 0.22238 0.0
C1552 C 0.61003 0.28902 0.22237 0.0
C1553 C 0.59445 0.26683 0.2088 0.0
H1554 H 0.36427 0.7621 0.24164 0.0
H1555 H 0.41121 0.79553 0.31458 0.0
H1556 H 0.39691 0.75306 0.34283 0.0
H1557 H 0.30586 0.72403 0.28322 0.0
H1558 H 0.30582 0.69488 0.25783 0.0
H1559 H 0.31396 0.73075 0.24605 0.0
H1560 H 0.36165 0.71222 0.22453 0.0
H1561 H 0.35425 0.67655 0.23702 0.0
H1562 H 0.38702 0.69421 0.24737 0.0
H1563 H 0.38539 0.70357 0.3596 0.0
H1564 H 0.37206 0.65305 0.36653 0.0
H1565 H 0.33397 0.65108 0.28168 0.0
C1566 C 0.37059 0.76105 0.26394 0.0
C1567 C 0.38881 0.78207 0.27601 0.0
C1568 C 0.39692 0.77988 0.30509 0.0
C1569 C 0.38909 0.7557 0.32118 0.0
C1570 C 0.37291 0.73432 0.30786 0.0
C1571 C 0.36316 0.73708 0.28009 0.0
C1572 C 0.34866 0.70991 0.2697 0.0
C1573 C 0.31667 0.71521 0.26387 0.0
C1574 C 0.36382 0.69751 0.24309 0.0
C1575 C 0.35288 0.69093 0.29554 0.0
C1576 C 0.36662 0.70552 0.3174 0.0
C1577 C 0.37413 0.69212 0.34287 0.0
C1578 C 0.36664 0.66331 0.34646 0.0
C1579 C 0.35194 0.64805 0.32462 0.0
C1580 C 0.34532 0.66206 0.29869 0.0
H1581 H 0.11869 0.24683 0.72757 0.0
H1582 H 0.08484 0.2067 0.8044 0.0
H1583 H 0.10073 0.2484 0.83295 0.0
H1584 H 0.18129 0.28178 0.76215 0.0
H1585 H 0.17816 0.31308 0.7398 0.0
H1586 H 0.16735 0.27853 0.72629 0.0
H1587 H 0.11718 0.29912 0.7146 0.0
H1588 H 0.12755 0.33356 0.72856 0.0
H1589 H 0.09636 0.31566 0.7427 0.0
H1590 H 0.11498 0.29673 0.8519 0.0
H1591 H 0.13099 0.34617 0.86111 0.0
H1592 H 0.15562 0.35467 0.77167 0.0
C1593 C 0.11517 0.24644 0.75051 0.0
C1594 C 0.10047 0.22345 0.76375 0.0
C1595 C 0.09624 0.22391 0.79381 0.0
C1596 C 0.10506 0.24758 0.81017 0.0
C1597 C 0.11837 0.27039 0.79619 0.0
C1598 C 0.1239 0.26978 0.76712 0.0
C1599 C 0.1373 0.29757 0.75701 0.0
C1600 C 0.16784 0.29243 0.74565 0.0
C1601 C 0.11846 0.31234 0.73439 0.0
C1602 C 0.13765 0.31429 0.78481 0.0
C1603 C 0.12675 0.29819 0.80716 0.0
C1604 C 0.12389 0.30941 0.83466 0.0
C1605 C 0.13288 0.33765 0.83959 0.0
C1606 C 0.14459 0.35447 0.81711 0.0
C1607 C 0.14681 0.3425 0.78934 0.0
H1608 H 0.71489 0.83321 0.84363 0.0
H1609 H 0.63338 0.87812 0.8447 0.0
H1610 H 0.63893 0.88889 0.7932 0.0
H1611 H 0.75125 0.88078 0.79787 0.0
H1612 H 0.77116 0.85294 0.77987 0.0
H1613 H 0.7593 0.84773 0.81613 0.0
H1614 H 0.73356 0.80098 0.80042 0.0
H1615 H 0.74493 0.80661 0.76393 0.0
H1616 H 0.7074 0.80223 0.77208 0.0
H1617 H 0.65509 0.89762 0.74236 0.0
H1618 H 0.6833 0.90865 0.69891 0.0
H1619 H 0.75267 0.85573 0.7307 0.0
C1620 C 0.69822 0.84545 0.83316 0.0
C1621 C 0.67377 0.85496 0.84833 0.0
C1622 C 0.65238 0.87068 0.8336 0.0
C1623 C 0.65518 0.87665 0.80427 0.0
C1624 C 0.67929 0.86641 0.78986 0.0
C1625 C 0.70051 0.85131 0.8039 0.0
C1626 C 0.72513 0.84413 0.78406 0.0
C1627 C 0.75335 0.8572 0.79513 0.0
C1628 C 0.7279 0.81155 0.77987 0.0
C1629 C 0.715 0.85861 0.75692 0.0
C1630 C 0.68826 0.87087 0.76045 0.0
C1631 C 0.67582 0.88772 0.73914 0.0
C1632 C 0.69187 0.89363 0.71435 0.0
C1633 C 0.72012 0.88297 0.71139 0.0
C1634 C 0.73099 0.86391 0.73222 0.0
H1635 H 0.80012 0.08467 0.22499 0.0
H1636 H 0.75057 0.15808 0.19818 0.0
H1637 H 0.76673 0.18491 0.2407 0.0
H1638 H 0.78181 0.08499 0.29103 0.0
H1639 H 0.81508 0.07574 0.30825 0.0
H1640 H 0.80897 0.0653 0.27175 0.0
H1641 H 0.85481 0.09154 0.25493 0.0
H1642 H 0.86211 0.101 0.29169 0.0
H1643 H 0.86036 0.12853 0.26471 0.0
H1644 H 0.77413 0.19666 0.29121 0.0
H1645 H 0.78287 0.19829 0.34314 0.0
H1646 H 0.83017 0.11844 0.3378 0.0
C1647 C 0.79464 0.10714 0.2271 0.0
C1648 C 0.77476 0.11977 0.20832 0.0
C1649 C 0.76639 0.14855 0.21217 0.0
C1650 C 0.77533 0.16381 0.23635 0.0
C1651 C 0.79292 0.14992 0.25601 0.0
C1652 C 0.80351 0.12261 0.25117 0.0
C1653 C 0.81859 0.11108 0.27749 0.0
C1654 C 0.80529 0.08262 0.2877 0.0
C1655 C 0.85089 0.10786 0.27187 0.0
C1656 C 0.81267 0.13509 0.29847 0.0
C1657 C 0.79802 0.15733 0.28556 0.0
C1658 C 0.78665 0.17999 0.30133 0.0
C1659 C 0.79128 0.18047 0.33089 0.0
C1660 C 0.80736 0.15859 0.34434 0.0
C1661 C 0.81817 0.13563 0.3279 0.0
H1662 H 0.21987 0.66523 0.15377 0.0
H1663 H 0.13548 0.62595 0.1526 0.0
H1664 H 0.14303 0.60835 0.20186 0.0
H1665 H 0.25527 0.61004 0.19094 0.0
H1666 H 0.27789 0.634 0.21113 0.0
H1667 H 0.26476 0.64461 0.17655 0.0
H1668 H 0.24304 0.69049 0.19935 0.0
H1669 H 0.25567 0.67963 0.23414 0.0
H1670 H 0.2182 0.68724 0.22879 0.0
H1671 H 0.16106 0.59272 0.2505 0.0
H1672 H 0.18969 0.57738 0.29237 0.0
H1673 H 0.2612 0.62835 0.26164 0.0
C1674 C 0.20295 0.6529 0.16378 0.0
C1675 C 0.17713 0.6469 0.14921 0.0
C1676 C 0.15548 0.63083 0.16328 0.0
C1677 C 0.15947 0.62088 0.19135 0.0
C1678 C 0.18508 0.62746 0.20518 0.0
C1679 C 0.20646 0.64304 0.1918 0.0
C1680 C 0.23249 0.64618 0.21076 0.0
C1681 C 0.25916 0.6329 0.1965 0.0
C1682 C 0.23764 0.67776 0.21873 0.0
C1683 C 0.22282 0.62905 0.23649 0.0
C1684 C 0.19526 0.61878 0.23317 0.0
C1685 C 0.18254 0.60093 0.25352 0.0
C1686 C 0.19887 0.59248 0.27733 0.0
C1687 C 0.22762 0.60169 0.28027 0.0
C1688 C 0.23922 0.62102 0.26006 0.0
H1689 H 0.29872 0.41775 0.7672 0.0
H1690 H 0.24474 0.34648 0.79187 0.0
H1691 H 0.25897 0.32037 0.74812 0.0
H1692 H 0.28186 0.41813 0.69744 0.0
H1693 H 0.31669 0.42633 0.68281 0.0
H1694 H 0.30793 0.437 0.71881 0.0
H1695 H 0.35194 0.40973 0.73841 0.0
H1696 H 0.36135 0.39949 0.70233 0.0
H1697 H 0.35676 0.37242 0.72947 0.0
H1698 H 0.26928 0.30751 0.69758 0.0
H1699 H 0.2836 0.30347 0.6468 0.0
H1700 H 0.33412 0.3811 0.65465 0.0
C1701 C 0.29156 0.39585 0.76427 0.0
C1702 C 0.27148 0.3836 0.78338 0.0
C1703 C 0.26098 0.35567 0.77802 0.0
C1704 C 0.26867 0.34087 0.75302 0.0
C1705 C 0.28716 0.35418 0.7337 0.0
C1706 C 0.29931 0.38064 0.73939 0.0
C1707 C 0.31663 0.3911 0.71381 0.0
C1708 C 0.30507 0.41984 0.70256 0.0
C1709 C 0.34857 0.3933 0.72146 0.0
C1710 C 0.31123 0.36705 0.69252 0.0
C1711 C 0.294 0.34611 0.70446 0.0
C1712 C 0.28347 0.32331 0.68826 0.0
C1713 C 0.29139 0.32141 0.65934 0.0
C1714 C 0.30996 0.34192 0.64692 0.0
C1715 C 0.32012 0.36499 0.66378 0.0
H1716 H 0.8435 0.72173 0.83148 0.0
H1717 H 0.84327 0.63901 0.87403 0.0
H1718 H 0.79197 0.6451 0.88545 0.0
H1719 H 0.79929 0.75746 0.88068 0.0
H1720 H 0.78126 0.77856 0.85387 0.0
H1721 H 0.81714 0.76612 0.84751 0.0
H1722 H 0.80001 0.74219 0.80037 0.0
H1723 H 0.76385 0.75398 0.80712 0.0
H1724 H 0.77118 0.71648 0.80141 0.0
H1725 H 0.74167 0.66189 0.89548 0.0
H1726 H 0.69901 0.69061 0.90825 0.0
H1727 H 0.73173 0.76109 0.85732 0.0
C1728 C 0.83275 0.70486 0.84325 0.0
C1729 C 0.84754 0.67994 0.85195 0.0
C1730 C 0.83249 0.65836 0.86718 0.0
C1731 C 0.80325 0.66147 0.87352 0.0
C1732 C 0.78925 0.6861 0.86419 0.0
C1733 C 0.80358 0.70749 0.84953 0.0
C1734 C 0.78422 0.73274 0.84356 0.0
C1735 C 0.79618 0.76033 0.85724 0.0
C1736 C 0.77954 0.73655 0.81119 0.0
C1737 C 0.75708 0.72277 0.8583 0.0
C1738 C 0.76014 0.69555 0.86954 0.0
C1739 C 0.73881 0.68301 0.88638 0.0
C1740 C 0.71448 0.69937 0.89332 0.0
C1741 C 0.71205 0.728 0.88369 0.0
C1742 C 0.73289 0.73912 0.86472 0.0
H1743 H 0.23591 0.79574 0.07548 0.0
H1744 H 0.20383 0.75889 0.15429 0.0
H1745 H 0.24456 0.77977 0.18073 0.0
H1746 H 0.30427 0.77817 0.08564 0.0
H1747 H 0.32095 0.80969 0.0708 0.0
H1748 H 0.28575 0.7993 0.05922 0.0
H1749 H 0.26571 0.84911 0.07344 0.0
H1750 H 0.30113 0.85988 0.08452 0.0
H1751 H 0.27148 0.86257 0.1092 0.0
H1752 H 0.29261 0.79352 0.19588 0.0
H1753 H 0.3439 0.80484 0.2008 0.0
H1754 H 0.34655 0.83417 0.11272 0.0
C1755 C 0.23668 0.79374 0.0986 0.0
C1756 C 0.21644 0.77667 0.11324 0.0
C1757 C 0.21876 0.77273 0.14311 0.0
C1758 C 0.24188 0.78438 0.15818 0.0
C1759 C 0.26245 0.79981 0.14296 0.0
C1760 C 0.2599 0.80507 0.11391 0.0
C1761 C 0.28699 0.81877 0.10207 0.0
C1762 C 0.30026 0.80038 0.07802 0.0
C1763 C 0.28096 0.84941 0.0917 0.0
C1764 C 0.30567 0.81886 0.12863 0.0
C1765 C 0.29086 0.80805 0.15196 0.0
C1766 C 0.3042 0.80281 0.17806 0.0
C1767 C 0.33336 0.80897 0.18054 0.0
C1768 C 0.34891 0.82041 0.15716 0.0
C1769 C 0.33488 0.82583 0.13097 0.0
H1770 H 0.24967 0.26144 0.6207 0.0
H1771 H 0.2893 0.18671 0.58176 0.0
H1772 H 0.24771 0.15728 0.59673 0.0
H1773 H 0.21446 0.22416 0.68131 0.0
H1774 H 0.18336 0.24694 0.67913 0.0
H1775 H 0.21808 0.26063 0.66913 0.0
H1776 H 0.19777 0.27492 0.61954 0.0
H1777 H 0.16321 0.26073 0.62908 0.0
H1778 H 0.18121 0.24798 0.59731 0.0
H1779 H 0.19942 0.13762 0.61126 0.0
H1780 H 0.14996 0.1281 0.6273 0.0
H1781 H 0.14184 0.21662 0.65512 0.0
C1782 C 0.25001 0.23872 0.61587 0.0
C1783 C 0.27273 0.22632 0.60007 0.0
C1784 C 0.27227 0.19657 0.59412 0.0
C1785 C 0.24867 0.17977 0.60238 0.0
C1786 C 0.22599 0.19308 0.61673 0.0
C1787 C 0.22672 0.22181 0.6238 0.0
C1788 C 0.19898 0.23154 0.63757 0.0
C1789 C 0.20403 0.24139 0.66863 0.0
C1790 C 0.18445 0.25518 0.6198 0.0
C1791 C 0.18211 0.20393 0.63649 0.0
C1792 C 0.19812 0.18194 0.62464 0.0
C1793 C 0.18682 0.1546 0.62084 0.0
C1794 C 0.15864 0.14948 0.6299 0.0
C1795 C 0.14194 0.17165 0.64241 0.0
C1796 C 0.1539 0.19927 0.64546 0.0
H1797 H 0.66287 0.28003 0.32831 0.0
H1798 H 0.65506 0.3584 0.37812 0.0
H1799 H 0.70573 0.35491 0.39181 0.0
H1800 H 0.70649 0.24347 0.37736 0.0
H1801 H 0.72774 0.22573 0.35034 0.0
H1802 H 0.69161 0.23634 0.34244 0.0
H1803 H 0.71044 0.26493 0.2986 0.0
H1804 H 0.74676 0.25495 0.30714 0.0
H1805 H 0.73729 0.29225 0.30378 0.0
H1806 H 0.75583 0.34072 0.40426 0.0
H1807 H 0.79879 0.31317 0.41876 0.0
H1808 H 0.77523 0.24578 0.35953 0.0
C1809 C 0.67183 0.29648 0.34202 0.0
C1810 C 0.65484 0.31948 0.35202 0.0
C1811 C 0.66752 0.34056 0.37 0.0
C1812 C 0.69644 0.33896 0.37774 0.0
C1813 C 0.7127 0.31632 0.36718 0.0
C1814 C 0.70081 0.29533 0.34988 0.0
C1815 C 0.72235 0.27195 0.34345 0.0
C1816 C 0.7114 0.24266 0.35405 0.0
C1817 C 0.72964 0.27098 0.31133 0.0
C1818 C 0.74766 0.28248 0.36086 0.0
C1819 C 0.74196 0.30845 0.37392 0.0
C1820 C 0.76091 0.32071 0.39364 0.0
C1821 C 0.78547 0.30517 0.40152 0.0
C1822 C 0.79047 0.27771 0.38979 0.0
C1823 C 0.77219 0.26711 0.36812 0.0
H1824 H 0.98927 0.29958 0.11797 0.0
H1825 H 0.03766 0.37174 0.08437 0.0
H1826 H 0.01365 0.36619 0.03792 0.0
H1827 H 0.98814 0.25714 0.05269 0.0
H1828 H 0.95174 0.24506 0.05738 0.0
H1829 H 0.97338 0.2535 0.08822 0.0
H1830 H 0.93501 0.2896 0.10581 0.0
H1831 H 0.91313 0.28103 0.07522 0.0
H1832 H 0.92321 0.31769 0.08213 0.0
H1833 H 0.9857 0.35338 0.99548 0.0
H1834 H 0.95035 0.33768 0.95998 0.0
H1835 H 0.91737 0.27464 0.02003 0.0
C1836 C 0.99479 0.31416 0.1008 0.0
C1837 C 0.01545 0.33607 0.10485 0.0
C1838 C 0.02186 0.3549 0.08193 0.0
C1839 C 0.0085 0.35179 0.05534 0.0
C1840 C 0.98855 0.32991 0.05195 0.0
C1841 C 0.98128 0.31164 0.07404 0.0
C1842 C 0.95783 0.29099 0.06476 0.0
C1843 C 0.96841 0.25982 0.06583 0.0
C1844 C 0.93069 0.29509 0.08307 0.0
C1845 C 0.95307 0.3007 0.03407 0.0
C1846 C 0.97143 0.32292 0.02722 0.0
C1847 C 0.97113 0.33606 0.00055 0.0
C1848 C 0.9509 0.32694 0.98053 0.0
C1849 C 0.93094 0.305 0.98721 0.0
C1850 C 0.93251 0.29123 0.01418 0.0
H1851 H 0.56697 0.72587 0.51204 0.0
H1852 H 0.59871 0.63894 0.50058 0.0
H1853 H 0.56874 0.62248 0.54015 0.0
H1854 H 0.56263 0.72164 0.59142 0.0
H1855 H 0.53018 0.7425 0.59338 0.0
H1856 H 0.55542 0.74858 0.56475 0.0
H1857 H 0.51514 0.73998 0.52759 0.0
H1858 H 0.48986 0.73361 0.55609 0.0
H1859 H 0.4951 0.70694 0.52858 0.0
H1860 H 0.5331 0.61358 0.57714 0.0
H1861 H 0.49605 0.61382 0.61468 0.0
H1862 H 0.48748 0.70611 0.60567 0.0
C1863 C 0.56783 0.70353 0.5182 0.0
C1864 C 0.58487 0.6837 0.50278 0.0
C1865 C 0.58543 0.65455 0.51154 0.0
C1866 C 0.56855 0.64488 0.53415 0.0
C1867 C 0.55131 0.66456 0.54824 0.0
C1868 C 0.551 0.69332 0.54111 0.0
C1869 C 0.5299 0.70947 0.56001 0.0
C1870 C 0.54547 0.73188 0.57849 0.0
C1871 C 0.50609 0.72331 0.54198 0.0
C1872 C 0.51825 0.68508 0.57823 0.0
C1873 C 0.53095 0.65942 0.57084 0.0
C1874 C 0.52315 0.63356 0.58347 0.0
C1875 C 0.50192 0.63389 0.60461 0.0
C1876 C 0.48892 0.65994 0.61313 0.0
C1877 C 0.49724 0.6859 0.59973 0.0
H1878 H 0.42889 0.16352 0.99704 0.0
H1879 H 0.41984 0.25623 0.99517 0.0
H1880 H 0.45242 0.25829 0.95359 0.0
H1881 H 0.5038 0.16119 0.9778 0.0
H1882 H 0.50021 0.12954 0.9559 0.0
H1883 H 0.47635 0.13518 0.98577 0.0
H1884 H 0.43265 0.13032 0.95194 0.0
H1885 H 0.45635 0.12471 0.92195 0.0
H1886 H 0.43017 0.15308 0.92086 0.0
H1887 H 0.48506 0.25057 0.91224 0.0
H1888 H 0.51645 0.23391 0.87347 0.0
H1889 H 0.50496 0.14587 0.90165 0.0
C1890 C 0.43381 0.18431 0.98802 0.0
C1891 C 0.42176 0.20976 -0.00048 0.0
C1892 C 0.42875 0.23645 0.98687 0.0
C1893 C 0.44724 0.23785 0.96322 0.0
C1894 C 0.45859 0.2124 0.95243 0.0
C1895 C 0.45221 0.18612 0.96437 0.0
C1896 C 0.46718 0.162 0.94841 0.0
C1897 C 0.48813 0.14604 0.96815 0.0
C1898 C 0.44528 0.14131 0.935 0.0
C1899 C 0.48301 0.17888 0.92561 0.0
C1900 C 0.47764 0.20789 0.9284 0.0
C1901 C 0.48947 0.22793 0.90984 0.0
C1902 C 0.5073 0.21813 0.8878 0.0
C1903 C 0.5133 0.18848 0.88436 0.0
C1904 C 0.50095 0.16864 0.90368 0.0
H1905 H 0.0607 0.83613 0.50346 0.0
H1906 H 0.06719 0.74321 0.50196 0.0
H1907 H 0.03488 0.74158 0.46044 0.0
H1908 H 0.98497 0.83992 0.48224 0.0
H1909 H 0.9902 0.87131 0.4604 0.0
H1910 H 0.01266 0.86535 0.49119 0.0
H1911 H 0.05774 0.86909 0.45896 0.0
H1912 H 0.03544 0.87484 0.42805 0.0
H1913 H 0.06106 0.84594 0.42816 0.0
H1914 H 0.00473 0.74962 0.41759 0.0
H1915 H 0.97607 0.76663 0.37699 0.0
H1916 H 0.98764 0.85458 0.40561 0.0
C1917 C 0.05497 0.8154 0.49472 0.0
C1918 C 0.06657 0.78978 0.50617 0.0
C1919 C 0.05871 0.76316 0.49374 0.0
C1920 C 0.04032 0.76198 0.47008 0.0
C1921 C 0.02978 0.78757 0.45903 0.0
C1922 C 0.03655 0.81379 0.47099 0.0
C1923 C 0.02275 0.83807 0.45429 0.0
C1924 C 0.00137 0.85464 0.47316 0.0
C1925 C 0.04562 0.85816 0.44162 0.0
C1926 C 0.00745 0.82133 0.43093 0.0
C1927 C 0.01191 0.79224 0.43417 0.0
C1928 C 0.00088 0.77232 0.41493 0.0
C1929 C 0.98469 0.78229 0.3918 0.0
C1930 C 0.97946 0.81201 0.38796 0.0
C1931 C 0.99103 0.83175 0.40796 0.0
H1932 H 0.12123 0.99496 0.29533 0.0
H1933 H 0.08573 0.04752 0.36369 0.0
H1934 H 0.04033 0.02096 0.36046 0.0
H1935 H 0.05509 0.98766 0.25374 0.0
H1936 H 0.06181 0.95081 0.24421 0.0
H1937 H 0.0914 0.97486 0.25042 0.0
H1938 H 0.11167 0.94026 0.28867 0.0
H1939 H 0.08222 0.91609 0.28251 0.0
H1940 H 0.08918 0.92932 0.31814 0.0
H1941 H -9e-05 0.98848 0.35178 0.0
H1942 H 0.9663 0.94997 0.33947 0.0
H1943 H 0.02647 0.91688 0.27649 0.0
C1944 C 0.1038 0.00106 0.30942 0.0
C1945 C 0.10712 0.02349 0.32974 0.0
C1946 C 0.08387 0.03048 0.34802 0.0
C1947 C 0.05789 0.01559 0.34626 0.0
C1948 C 0.05538 0.99365 0.32615 0.0
C1949 C 0.07763 0.98622 0.3081 0.0
C1950 C 0.06941 0.96074 0.28941 0.0
C1951 C 0.06943 0.96902 0.25755 0.0
C1952 C 0.0893 0.93509 0.29503 0.0
C1953 C 0.03917 0.95489 0.30009 0.0
C1954 C 0.03165 0.9744 0.32115 0.0
C1955 C 0.00546 0.97315 0.33525 0.0
C1956 C 0.98655 0.95109 0.32812 0.0
C1957 C 0.99374 0.93036 0.30704 0.0
C1958 C 0.02026 0.9326 0.29242 0.0
H1959 H 0.49324 0.07242 0.8396 0.0
H1960 H 0.48933 0.08106 0.74691 0.0
H1961 H 0.44839 0.04793 0.74569 0.0
H1962 H 0.47523 0.99707 0.8422 0.0
H1963 H 0.45368 0.00016 0.87415 0.0
H1964 H 0.48299 0.02461 0.86821 0.0
H1965 H 0.44835 0.06764 0.87368 0.0
H1966 H 0.41893 0.04334 0.87963 0.0
H1967 H 0.41689 0.06955 0.85139 0.0
H1968 H 0.40841 0.01488 0.75374 0.0
H1969 H 0.37054 0.98279 0.77033 0.0
H1970 H 0.39892 0.99418 0.85838 0.0
C1971 C 0.48384 0.0673 0.81901 0.0
C1972 C 0.49466 0.07941 0.7933 0.0
C1973 C 0.48158 0.07216 0.76689 0.0
C1974 C 0.45828 0.05332 0.76595 0.0
C1975 C 0.44821 0.04187 0.79158 0.0
C1976 C 0.46044 0.04847 0.81765 0.0
C1977 C 0.44507 0.0331 0.84195 0.0
C1978 C 0.46546 0.01251 0.85754 0.0
C1979 C 0.43151 0.0547 0.86289 0.0
C1980 C 0.42231 0.01682 0.82532 0.0
C1981 C 0.42469 0.02238 0.79633 0.0
C1982 C 0.40628 0.01032 0.77637 0.0
C1983 C 0.38471 0.9921 0.78617 0.0
C1984 C 0.38151 0.98587 0.8158 0.0
C1985 C 0.40077 0.99838 0.83564 0.0
H1986 H 0.62778 0.51132 0.70013 0.0
H1987 H 0.58584 0.449 0.64515 0.0
H1988 H 0.53922 0.47164 0.65508 0.0
H1989 H 0.57062 0.51899 0.75305 0.0
H1990 H 0.57496 0.55721 0.75677 0.0
H1991 H 0.60526 0.53516 0.74731 0.0
H1992 H 0.61397 0.56577 0.70187 0.0
H1993 H 0.58398 0.58811 0.71142 0.0
H1994 H 0.58509 0.57096 0.67679 0.0
H1995 H 0.49778 0.50005 0.67016 0.0
H1996 H 0.46354 0.53769 0.68357 0.0
H1997 H 0.53118 0.58447 0.72711 0.0
C1998 C 0.6087 0.50247 0.69033 0.0
C1999 C 0.61034 0.47833 0.67195 0.0
C2000 C 0.58508 0.46755 0.65913 0.0
C2001 C 0.55847 0.48007 0.66489 0.0
C2002 C 0.55749 0.5036 0.68324 0.0
C2003 C 0.58188 0.51514 0.69537 0.0
C2004 C 0.57478 0.54206 0.71237 0.0
C2005 C 0.58183 0.53811 0.74428 0.0
C2006 C 0.59037 0.56828 0.69986 0.0
C2007 C 0.54263 0.54388 0.70762 0.0
C2008 C 0.53324 0.52104 0.69119 0.0
C2009 C 0.5048 0.51805 0.68301 0.0
C2010 C 0.48553 0.53956 0.69077 0.0
C2011 C 0.49472 0.564 0.70634 0.0
C2012 C 0.5235 0.56581 0.71562 0.0
H2013 H -0.00012 0.4401 0.16395 0.0
H2014 H 0.98997 0.42173 0.25469 0.0
H2015 H 0.94726 0.45283 0.25624 0.0
H2016 H 0.97775 0.51457 0.16732 0.0
H2017 H 0.95912 0.51322 0.13354 0.0
H2018 H 0.98944 0.49016 0.13969 0.0
H2019 H 0.9583 0.44585 0.12742 0.0
H2020 H 0.92783 0.46874 0.12138 0.0
H2021 H 0.92541 0.43982 0.14683 0.0
H2022 H 0.90502 0.4846 0.24781 0.0
H2023 H 0.86656 0.516 0.2306 0.0
H2024 H 0.90348 0.51418 0.14502 0.0
C2025 C 0.98894 0.44275 0.18426 0.0
C2026 C 0.99848 0.42841 0.20926 0.0
C2027 C 0.98326 0.43244 0.23527 0.0
C2028 C 0.95892 0.45007 0.23636 0.0
C2029 C 0.95 0.46357 0.21129 0.0
C2030 C 0.96457 0.46024 0.18575 0.0
C2031 C 0.95019 0.47688 0.16181 0.0
C2032 C 0.97033 0.50009 0.1499 0.0
C2033 C 0.93982 0.45661 0.13796 0.0
C2034 C 0.92517 0.49003 0.1779 0.0
C2035 C 0.92553 0.48202 0.2064 0.0
C2036 C 0.90457 0.4911 0.22557 0.0
C2037 C 0.88273 0.50897 0.21547 0.0
C2038 C 0.88183 0.51776 0.18635 0.0
C2039 C 0.90346 0.508 0.16737 0.0
H2040 H 0.35613 0.09739 0.00698 0.0
H2041 H 0.26902 0.12959 0.01527 0.0
H2042 H 0.25174 0.09113 0.98406 0.0
H2043 H 0.35 0.07706 0.93202 0.0
H2044 H 0.37144 0.04516 0.93569 0.0
H2045 H 0.37757 0.07539 0.95897 0.0
H2046 H 0.37034 0.04276 0.00326 0.0
H2047 H 0.36405 0.01247 0.9801 0.0
H2048 H 0.33773 0.02228 0.00669 0.0
H2049 H 0.24295 0.04932 0.95271 0.0
H2050 H 0.2438 0.0071 0.92101 0.0
H2051 H 0.33615 0.00123 0.93169 0.0
C2052 C 0.33345 0.09637 0.00219 0.0
C2053 C 0.31407 0.11669 0.01379 0.0
C2054 C 0.28451 0.11449 0.00681 0.0
C2055 C 0.27433 0.0926 0.98906 0.0
C2056 C 0.29385 0.07293 0.97818 0.0
C2057 C 0.3228 0.07457 0.98424 0.0
C2058 C 0.339 0.0506 0.96926 0.0
C2059 C 0.36079 0.06279 0.94771 0.0
C2060 C 0.35364 0.03086 0.99114 0.0
C2061 C 0.31455 0.03534 0.95409 0.0
C2062 C 0.28872 0.04862 0.95965 0.0
C2063 C 0.26305 0.03868 0.94812 0.0
C2064 C 0.26375 0.01461 0.93015 0.0
C2065 C 0.28999 0.00067 0.92378 0.0
C2066 C 0.31568 0.01123 0.93614 0.0
H2067 H 0.79352 0.37648 0.00872 0.0
H2068 H 0.85648 0.41493 0.9518 0.0
H2069 H 0.85128 0.46083 0.97703 0.0
H2070 H 0.74777 0.43996 0.0169 0.0
H2071 H 0.74098 0.43385 0.05443 0.0
H2072 H 0.74775 0.40395 0.03085 0.0
H2073 H 0.78939 0.38737 0.06347 0.0
H2074 H 0.78265 0.41709 0.0872 0.0
H2075 H 0.81783 0.41212 0.07197 0.0
H2076 H 0.84134 0.50144 0.00807 0.0
H2077 H 0.8296 0.53524 0.04658 0.0
H2078 H 0.77339 0.47211 0.0856 0.0
C2079 C 0.80599 0.39467 0.00148 0.0
C2080 C 0.82539 0.39213 0.97824 0.0
C2081 C 0.84163 0.41627 0.96962 0.0
C2082 C 0.83868 0.44253 0.98366 0.0
C2083 C 0.8195 0.44435 0.00642 0.0
C2084 C 0.80356 0.42117 0.01557 0.0
C2085 C 0.78593 0.42891 0.04191 0.0
C2086 C 0.75369 0.42652 0.03564 0.0
C2087 C 0.79447 0.41026 0.06766 0.0
C2088 C 0.79486 0.45993 0.04621 0.0
C2089 C 0.81398 0.46825 0.02514 0.0
C2090 C 0.82634 0.4953 0.02467 0.0
C2091 C 0.81958 0.51428 0.04672 0.0
C2092 C 0.8007 0.50623 0.06912 0.0
C2093 C 0.78763 0.47888 0.06857 0.0
H2094 H 0.6468 0.59139 0.48498 0.0
H2095 H 0.73534 0.61661 0.47053 0.0
H2096 H 0.75154 0.57788 0.50216 0.0
H2097 H 0.65497 0.57465 0.55923 0.0
H2098 H 0.63116 0.54423 0.55859 0.0
H2099 H 0.6261 0.57319 0.53365 0.0
H2100 H 0.62898 0.53734 0.49129 0.0
H2101 H 0.63403 0.50825 0.51612 0.0
H2102 H 0.65978 0.51425 0.48792 0.0
H2103 H 0.75861 0.53813 0.53614 0.0
H2104 H 0.75629 0.49888 0.57103 0.0
H2105 H 0.66335 0.49827 0.56442 0.0
C2106 C 0.6696 0.58856 0.48823 0.0
C2107 C 0.68977 0.60711 0.47515 0.0
C2108 C 0.71941 0.60283 0.48028 0.0
C2109 C 0.72889 0.58081 0.49819 0.0
C2110 C 0.70853 0.56314 0.51092 0.0
C2111 C 0.67952 0.56664 0.50624 0.0
C2112 C 0.66229 0.545 0.52342 0.0
C2113 C 0.64246 0.56018 0.545 0.0
C2114 C 0.64527 0.52503 0.50349 0.0
C2115 C 0.68623 0.52899 0.53851 0.0
C2116 C 0.71268 0.53988 0.53085 0.0
C2117 C 0.73805 0.52929 0.54226 0.0
C2118 C 0.73645 0.50698 0.56216 0.0
C2119 C 0.70964 0.49534 0.57056 0.0
C2120 C 0.6842 0.50649 0.55835 0.0
H2121 H 0.19794 0.87602 0.49137 0.0
H2122 H 0.12995 0.91219 0.54393 0.0
H2123 H 0.13561 0.95843 0.51924 0.0
H2124 H 0.2425 0.93939 0.48804 0.0
H2125 H 0.25262 0.93406 0.45113 0.0
H2126 H 0.2441 0.90366 0.47334 0.0
H2127 H 0.20555 0.88731 0.43692 0.0
H2128 H 0.21416 0.91746 0.41447 0.0
H2129 H 0.17781 0.91202 0.42641 0.0
H2130 H 0.14814 0.00022 0.48968 0.0
H2131 H 0.16352 0.03482 0.45322 0.0
H2132 H 0.22306 0.97227 0.41823 0.0
C2133 C 0.18427 0.89368 0.49772 0.0
C2134 C 0.16354 0.89047 0.51971 0.0
C2135 C 0.14589 0.91404 0.52714 0.0
C2136 C 0.14908 0.94046 0.51338 0.0
C2137 C 0.16989 0.94297 0.49212 0.0
C2138 C 0.18698 0.92021 0.48401 0.0
C2139 C 0.2068 0.92851 0.45953 0.0
C2140 C 0.23838 0.92627 0.46856 0.0
C2141 C 0.2007 0.91024 0.43275 0.0
C2142 C 0.19801 0.95948 0.4551 0.0
C2143 C 0.17689 0.96729 0.47443 0.0
C2144 C 0.16464 0.9944 0.47441 0.0
C2145 C 0.17355 0.01388 0.45357 0.0
C2146 C 0.19445 0.00622 0.43281 0.0
C2147 C 0.20732 0.97883 0.43401 0.0
H2148 H 0.99137 0.64479 0.90292 0.0
H2149 H 0.97595 0.73302 0.87736 0.0
H2150 H 0.00726 0.74992 0.91591 0.0
H2151 H 0.9936 0.65848 0.97974 0.0
H2152 H 0.02213 0.6333 0.98631 0.0
H2153 H 0.99778 0.62752 0.95693 0.0
H2154 H 0.04068 0.62508 0.9217 0.0
H2155 H 0.06514 0.63087 0.95096 0.0
H2156 H 0.06582 0.65441 0.92039 0.0
H2157 H 0.04063 0.758 0.95596 0.0
H2158 H 0.07475 0.75661 0.99603 0.0
H2159 H 0.06948 0.66357 0.99686 0.0
C2160 C 0.99444 0.66764 0.90558 0.0
C2161 C 0.98111 0.68748 0.88694 0.0
C2162 C 0.98592 0.71725 0.89111 0.0
C2163 C 0.00366 0.72718 0.91306 0.0
C2164 C 0.0166 0.70719 0.93083 0.0
C2165 C 0.01232 0.67806 0.92747 0.0
C2166 C 0.02947 0.66135 0.94946 0.0
C2167 C 0.00955 0.64415 0.96929 0.0
C2168 C 0.05159 0.64178 0.93474 0.0
C2169 C 0.04397 0.68573 0.9655 0.0
C2170 C 0.03614 0.71193 0.95432 0.0
C2171 C 0.04691 0.73763 0.96503 0.0
C2172 C 0.06634 0.73659 0.98781 0.0
C2173 C 0.07485 0.71002 -0.00025 0.0
C2174 C 0.06333 0.68427 0.9884 0.0
H2175 H 0.51159 0.35308 0.40609 0.0
H2176 H 0.52897 0.26448 0.38314 0.0
H2177 H 0.49862 0.24825 0.42307 0.0
H2178 H 0.5102 0.34261 0.48361 0.0
H2179 H 0.48107 0.36733 0.48937 0.0
H2180 H 0.50521 0.37243 0.45963 0.0
H2181 H 0.46226 0.37229 0.42458 0.0
H2182 H 0.43799 0.36724 0.4542 0.0
H2183 H 0.43781 0.34236 0.42461 0.0
H2184 H 0.4657 0.24111 0.46438 0.0
H2185 H 0.431 0.24343 0.504 0.0
H2186 H 0.43364 0.33649 0.50095 0.0
C2187 C 0.50923 0.33028 0.40963 0.0
C2188 C 0.52287 0.3101 0.39136 0.0
C2189 C 0.51883 0.28044 0.39664 0.0
C2190 C 0.50165 0.27095 0.41939 0.0
C2191 C 0.48845 0.29129 0.43681 0.0
C2192 C 0.49191 0.32034 0.43225 0.0
C2193 C 0.47435 0.33755 0.45371 0.0
C2194 C 0.49388 0.35608 0.47271 0.0
C2195 C 0.45176 0.35594 0.43835 0.0
C2196 C 0.46042 0.31359 0.47086 0.0
C2197 C 0.46905 0.28713 0.46075 0.0
C2198 C 0.45884 0.26172 0.47257 0.0
C2199 C 0.43905 0.2633 0.49514 0.0
C2200 C 0.42946 0.29013 0.50584 0.0
C2201 C 0.44062 0.31561 0.49355 0.0
H2202 H 0.56966 0.84302 0.00431 0.0
H2203 H 0.56981 0.74985 0.00235 0.0
H2204 H 0.53594 0.74916 0.04279 0.0
H2205 H 0.56724 0.85001 0.08096 0.0
H2206 H 0.54389 0.88077 0.08093 0.0
H2207 H 0.56759 0.87443 0.05107 0.0
H2208 H 0.52436 0.87549 0.01639 0.0
H2209 H 0.50049 0.88182 0.04614 0.0
H2210 H 0.49443 0.85182 0.02251 0.0
H2211 H 0.50318 0.75774 0.08288 0.0
H2212 H 0.47339 0.77472 0.12245 0.0
H2213 H 0.49349 0.86305 0.10046 0.0
C2214 C 0.56244 0.82246 0.01226 0.0
C2215 C 0.57241 0.79642 -2e-05 0.0
C2216 C 0.5626 0.77004 0.01128 0.0
C2217 C 0.54327 0.76942 0.03424 0.0
C2218 C 0.53397 0.79535 0.04578 0.0
C2219 C 0.54318 0.82142 0.03536 0.0
C2220 C 0.53016 0.84605 0.05241 0.0
C2221 C 0.55362 0.86386 0.06722 0.0
C2222 C 0.51123 0.86491 0.03321 0.0
C2223 C 0.51225 0.82962 0.0741 0.0
C2224 C 0.51487 0.80043 0.06959 0.0
C2225 C 0.50096 0.78052 0.08669 0.0
C2226 C 0.48411 0.79054 0.10927 0.0
C2227 C 0.48113 0.82034 0.11489 0.0
C2228 C 0.49521 0.8402 0.09675 0.0
H2229 H 0.92013 0.2194 0.51799 0.0
H2230 H 0.94172 0.14525 0.46566 0.0
H2231 H 0.97518 0.12882 0.50246 0.0
H2232 H 0.99282 0.23048 0.54646 0.0
H2233 H 0.98026 0.24071 0.58156 0.0
H2234 H 0.9585 0.24776 0.5505 0.0
H2235 H 0.91644 0.21994 0.57375 0.0
H2236 H 0.93815 0.21255 0.60473 0.0
H2237 H 0.92188 0.18346 0.58519 0.0
H2238 H 0.00391 0.11825 0.54516 0.0
H2239 H 0.0299 0.11616 0.59085 0.0
H2240 H 0.99168 0.1973 0.61635 0.0
C2241 C 0.93223 0.19997 0.51413 0.0
C2242 C 0.92806 0.18361 0.4889 0.0
C2243 C 0.94421 0.15814 0.48482 0.0
C2244 C 0.96338 0.14854 0.50561 0.0
C2245 C 0.96646 0.16466 0.53044 0.0
C2246 C 0.95169 0.18998 0.53479 0.0
C2247 C 0.95904 0.20278 0.56381 0.0
C2248 C 0.97352 0.23217 0.56037 0.0
C2249 C 0.93228 0.20479 0.583 0.0
C2250 C 0.97996 0.1805 0.57496 0.0
C2251 C 0.98375 0.1587 0.5553 0.0
C2252 C 0.00138 0.1353 0.56071 0.0
C2253 C 0.01596 0.13426 0.58684 0.0
C2254 C 0.01299 0.15659 0.60727 0.0
C2255 C 0.99457 0.17995 0.60118 0.0
H2256 H 0.90131 0.98563 0.64444 0.0
H2257 H 0.8607 0.98693 0.72838 0.0
H2258 H 0.89972 0.01677 0.74694 0.0
H2259 H 0.97426 0.98233 0.66981 0.0
H2260 H 0.98821 0.00582 0.64252 0.0
H2261 H 0.95708 0.98414 0.63528 0.0
H2262 H 0.92832 0.0296 0.62158 0.0
H2263 H 0.95943 0.05136 0.62855 0.0
H2264 H 0.92612 0.05898 0.64663 0.0
H2265 H 0.9428 0.0464 0.75704 0.0
H2266 H 0.98639 0.0763 0.75699 0.0
H2267 H -0.00054 0.05639 0.66687 0.0
C2268 C 0.90059 0.99222 0.66669 0.0
C2269 C 0.87782 0.98372 0.68484 0.0
C2270 C 0.87779 0.99298 0.71387 0.0
C2271 C 0.89995 0.00994 0.72476 0.0
C2272 C 0.92212 0.01767 0.70646 0.0
C2273 C 0.92261 0.00935 0.67801 0.0
C2274 C 0.94884 0.02124 0.66294 0.0
C2275 C 0.96825 0.99693 0.652 0.0
C2276 C 0.94015 0.0415 0.63849 0.0
C2277 C 0.96283 0.0375 0.6874 0.0
C2278 C 0.94711 0.03503 0.71232 0.0
C2279 C 0.9554 0.04849 0.73767 0.0
C2280 C 0.98025 0.06539 0.73744 0.0
C2281 C 0.99651 0.06872 0.712 0.0
C2282 C 0.98772 0.05421 0.68678 0.0
H2283 H 0.59609 0.01062 0.14479 0.0
H2284 H 0.6229 0.02484 0.23285 0.0
H2285 H 0.58401 0.99379 0.24978 0.0
H2286 H 0.51942 0.00921 0.15917 0.0
H2287 H 0.51215 0.98103 0.13373 0.0
H2288 H 0.54187 0.00502 0.12796 0.0
H2289 H 0.5764 0.96169 0.12468 0.0
H2290 H 0.54679 0.93757 0.13041 0.0
H2291 H 0.57757 0.93622 0.15366 0.0
H2292 H 0.54333 0.96083 0.25782 0.0
H2293 H 0.50279 0.92719 0.2564 0.0
H2294 H 0.50111 0.93333 0.16349 0.0
C2295 C 0.59367 0.00733 0.16762 0.0
C2296 C 0.61273 0.02032 0.1874 0.0
C2297 C 0.60881 0.0152 0.21713 0.0
C2298 C 0.58667 0.99759 0.22706 0.0
C2299 C 0.56845 0.98506 0.20711 0.0
C2300 C 0.5716 0.98959 0.17802 0.0
C2301 C 0.54915 0.97289 0.16132 0.0
C2302 C 0.52948 0.99326 0.14456 0.0
C2303 C 0.56333 0.95078 0.14134 0.0
C2304 C 0.53306 0.95834 0.18564 0.0
C2305 C 0.54464 0.96577 0.21182 0.0
C2306 C 0.53397 0.95487 0.23746 0.0
C2307 C 0.5109 0.93571 0.2364 0.0
C2308 C 0.49856 0.92753 0.20986 0.0
C2309 C 0.50983 0.93923 0.18416 0.0
H2310 H 0.48226 0.43065 0.27266 0.0
H2311 H 0.5034 0.40971 0.36099 0.0
H2312 H 0.46578 0.44154 0.37804 0.0
H2313 H 0.46616 0.5049 0.28504 0.0
H2314 H 0.43584 0.50639 0.2612 0.0
H2315 H 0.46427 0.48109 0.25463 0.0
H2316 H 0.42761 0.43941 0.25488 0.0
H2317 H 0.39904 0.46464 0.26126 0.0
H2318 H 0.4042 0.43491 0.28532 0.0
H2319 H 0.42871 0.47702 0.38699 0.0
H2320 H 0.3897 0.51235 0.38693 0.0
H2321 H 0.38896 0.51078 0.29378 0.0
C2322 C 0.47875 0.43263 0.29551 0.0
C2323 C 0.49638 0.41786 0.31531 0.0
C2324 C 0.49085 0.42105 0.34514 0.0
C2325 C 0.46933 0.4391 0.35525 0.0
C2326 C 0.45296 0.45386 0.33545 0.0
C2327 C 0.45693 0.45073 0.30623 0.0
C2328 C 0.43572 0.46945 0.29006 0.0
C2329 C 0.45145 0.49178 0.27164 0.0
C2330 C 0.41544 0.451 0.2718 0.0
C2331 C 0.41979 0.48361 0.31488 0.0
C2332 C 0.43035 0.47424 0.34078 0.0
C2333 C 0.41999 0.48446 0.36686 0.0
C2334 C 0.39789 0.50468 0.36659 0.0
C2335 C 0.38614 0.51441 0.34041 0.0
C2336 C 0.39735 0.50368 0.31418 0.0
H2337 H 0.09891 0.49577 0.859 0.0
H2338 H 0.12582 0.48424 0.77043 0.0
H2339 H 0.0866 0.51504 0.75445 0.0
H2340 H 0.02254 0.49619 0.84511 0.0
H2341 H 0.01465 0.52376 0.87104 0.0
H2342 H 0.0449 0.50037 0.87631 0.0
H2343 H 0.0785 0.54442 0.88017 0.0
H2344 H 0.04835 0.56794 0.87499 0.0
H2345 H 0.07905 0.57041 0.85164 0.0
H2346 H 0.04535 0.54637 0.74717 0.0
H2347 H 0.00388 0.5786 0.74909 0.0
H2348 H 0.00243 0.57152 0.84202 0.0
C2349 C 0.09647 0.4997 0.83627 0.0
C2350 C 0.11559 0.4875 0.81606 0.0
C2351 C 0.11169 0.49334 0.78648 0.0
C2352 C 0.08936 0.51079 0.77706 0.0
C2353 C 0.07101 0.52244 0.7974 0.0
C2354 C 0.07422 0.51737 0.82637 0.0
C2355 C 0.05145 0.53322 0.84347 0.0
C2356 C 0.03225 0.51212 0.85995 0.0
C2357 C 0.06516 0.55531 0.86376 0.0
C2358 C 0.03508 0.54779 0.81944 0.0
C2359 C 0.04683 0.5411 0.79311 0.0
C2360 C 0.03586 0.55185 0.76763 0.0
C2361 C 0.01224 0.57017 0.769 0.0
C2362 C -0.00024 0.57768 0.7957 0.0
C2363 C 0.01135 0.56615 0.82126 0.0
H2364 H 0.63785 0.90499 0.99043 0.0
H2365 H 0.72554 0.87406 0.98314 0.0
H2366 H 0.74156 0.91157 0.01603 0.0
H2367 H 0.65578 0.98057 0.99373 0.0
H2368 H 0.62867 0.98927 0.01989 0.0
H2369 H 0.62321 0.95983 0.99546 0.0
H2370 H 0.61484 0.92564 0.03833 0.0
H2371 H 0.62026 0.95498 0.06289 0.0
H2372 H 0.64168 0.923 0.06593 0.0
H2373 H 0.74904 0.95118 0.04911 0.0
H2374 H 0.74776 0.99223 0.08174 0.0
H2375 H 0.65566 -0.00045 0.06927 0.0
C2376 C 0.6604 0.90619 0.99571 0.0
C2377 C 0.68034 0.8864 0.98406 0.0
C2378 C 0.70968 0.88873 0.99168 0.0
C2379 C 0.71912 0.91005 0.0104 0.0
C2380 C 0.69907 0.92904 0.0215 0.0
C2381 C 0.67034 0.92749 0.01461 0.0
C2382 C 0.65359 0.95087 0.03003 0.0
C2383 C 0.63948 0.97135 0.00849 0.0
C2384 C 0.63127 0.93784 0.05051 0.0
C2385 C 0.67755 0.96566 0.04645 0.0
C2386 C 0.7035 0.9525 0.04108 0.0
C2387 C 0.72888 0.96176 0.05355 0.0
C2388 C 0.72785 0.98518 0.07215 0.0
C2389 C 0.7016 -0.00069 0.07821 0.0
C2390 C 0.67607 0.98935 0.06506 0.0
H2391 H 0.16009 0.50409 0.93018 0.0
H2392 H 0.25309 0.5056 0.92476 0.0
H2393 H 0.25413 0.5468 0.95777 0.0
H2394 H 0.15029 0.58063 0.932 0.0
H2395 H 0.12094 0.5797 0.95715 0.0
H2396 H 0.12708 0.54976 0.93349 0.0
H2397 H 0.12986 0.51568 0.97709 0.0
H2398 H 0.12369 0.5455 0.00091 0.0
H2399 H 0.15491 0.52324 0.0055 0.0
H2400 H 0.24573 0.58777 0.99024 0.0
H2401 H 0.22884 0.62667 0.02104 0.0
H2402 H 0.14061 0.60018 0.00682 0.0
C2403 C 0.18072 0.51294 0.93605 0.0
C2404 C 0.20659 0.50134 0.92478 0.0
C2405 C 0.23301 0.51387 0.93297 0.0
C2406 C 0.23382 0.53734 0.95176 0.0
C2407 C 0.20805 0.54823 0.96229 0.0
C2408 C 0.18195 0.53653 0.95483 0.0
C2409 C 0.15747 0.55281 0.96913 0.0
C2410 C 0.13779 0.56654 0.9466 0.0
C2411 C 0.14048 0.53313 0.98936 0.0
C2412 C 0.17397 0.57549 0.9858 0.0
C2413 C 0.2031 0.57227 0.98136 0.0
C2414 C 0.22298 0.5905 0.9939 0.0
C2415 C 0.21301 0.61271 0.0114 0.0
C2416 C 0.18324 0.61683 0.01653 0.0
C2417 C 0.16345 0.59771 0.00353 0.0
H2418 H 0.29756 0.37334 0.48803 0.0
H2419 H 0.3559 0.41318 0.54866 0.0
H2420 H 0.34688 0.46016 0.52653 0.0
H2421 H 0.31948 0.4157 0.42763 0.0
H2422 H 0.28409 0.41789 0.41237 0.0
H2423 H 0.29384 0.38747 0.43393 0.0
H2424 H 0.25021 0.39717 0.46697 0.0
H2425 H 0.24058 0.4279 0.44571 0.0
H2426 H 0.24632 0.43181 0.4837 0.0
H2427 H 0.33189 0.50231 0.49894 0.0
H2428 H 0.31742 0.53722 0.46247 0.0
H2429 H 0.27003 0.47099 0.41735 0.0
C2430 C 0.30839 0.39199 0.49665 0.0
C2431 C 0.32737 0.3896 0.52019 0.0
C2432 C 0.3414 0.41442 0.53061 0.0
C2433 C 0.3362 0.44126 0.51837 0.0
C2434 C 0.3171 0.44293 0.49555 0.0
C2435 C 0.30376 0.41899 0.48438 0.0
C2436 C 0.28568 0.42674 0.45846 0.0
C2437 C 0.29642 0.41102 0.4315 0.0
C2438 C 0.25381 0.42053 0.46406 0.0
C2439 C 0.29128 0.45874 0.45667 0.0
C2440 C 0.30904 0.46752 0.47871 0.0
C2441 C 0.31802 0.49575 0.48156 0.0
C2442 C 0.30963 0.51541 0.46071 0.0
C2443 C 0.29265 0.50681 0.43703 0.0
C2444 C 0.28264 0.47824 0.43542 0.0
H2445 H 0.8543 0.09417 0.48672 0.0
H2446 H 0.76616 0.11715 0.46755 0.0
H2447 H 0.74902 0.07899 0.49938 0.0
H2448 H 0.84218 0.01658 0.49145 0.0
H2449 H 0.86666 0.01196 0.52091 0.0
H2450 H 0.87245 0.04028 0.49535 0.0
H2451 H 0.87289 0.07746 0.53664 0.0
H2452 H 0.86692 0.04928 0.56229 0.0
H2453 H 0.84276 0.07938 0.56081 0.0
H2454 H 0.74078 0.04023 0.53454 0.0
H2455 H 0.74214 0.00165 0.57042 0.0
H2456 H 0.83527 0.0029 0.56765 0.0
C2457 C 0.83143 0.09087 0.48893 0.0
C2458 C 0.81163 0.10877 0.47459 0.0
C2459 C 0.78183 0.10393 0.47838 0.0
C2460 C 0.77179 0.08222 0.49639 0.0
C2461 C 0.79174 0.06537 0.51061 0.0
C2462 C 0.82092 0.06924 0.50709 0.0
C2463 C 0.83756 0.04847 0.52573 0.0
C2464 C 0.85579 0.02811 0.50725 0.0
C2465 C 0.85612 0.06462 0.54767 0.0
C2466 C 0.81312 0.0326 0.54028 0.0
C2467 C 0.78691 0.04273 0.53116 0.0
C2468 C 0.76117 0.03195 0.54179 0.0
C2469 C 0.76218 0.01004 0.56225 0.0
C2470 C 0.78877 0.99907 0.57193 0.0
C2471 C 0.81455 0.01064 0.56069 0.0
loop_
_geom_bond_atom_site_label_1
_geom_bond_atom_site_label_2
_geom_bond_distance
_geom_bond_site_symmetry_2
_ccdc_geom_bond_type
Sc0 O3 2.025 . S
Sc0 O10 2.105 . S
Sc0 O13 2.105 . S
Sc0 O16 2.105 . S
Sc0 O19 2.105 . S
Sc1 O3 2.025 . S
Sc1 O11 2.105 . S
Sc1 O15 2.105 . S
Sc1 O17 2.105 . S
Sc1 O21 2.105 . S
Sc2 O3 2.025 . S
Sc2 O12 2.085 1_455 S
Sc2 O14 2.105 . S
Sc2 O18 2.105 . S
Sc2 O20 2.105 . S
O3 Sc0 2.025 . S
O3 Sc1 2.025 . S
O3 Sc2 2.025 . S
C4 O10 1.268 1_655 S
C4 O20 1.268 1_655 S
C5 O11 1.268 . S
C5 O19 1.268 . S
C6 O12 1.278 . S
C6 O21 1.268 1_655 S
C7 O13 1.268 . S
C7 O17 1.268 . S
C8 O14 1.268 . S
C8 O16 1.268 . S
C9 O15 1.268 . S
C9 O18 1.268 . S
O10 Sc0 2.105 . S
O10 C4 1.268 1_455 S
O11 Sc1 2.105 . S
O11 C5 1.268 . S
O12 Sc2 2.085 1_655 S
O12 C6 1.278 . S
O13 Sc0 2.105 . S
O13 C7 1.268 . S
O14 Sc2 2.105 . S
O14 C8 1.268 . S
O15 Sc1 2.105 . S
O15 C9 1.268 . S
O16 Sc0 2.105 . S
O16 C8 1.268 . S
O17 Sc1 2.105 . S
O17 C7 1.268 . S
O18 Sc2 2.105 . S
O18 C9 1.268 . S
O19 Sc0 2.105 . S
O19 C5 1.268 . S
O20 Sc2 2.105 . S
O20 C4 1.268 1_455 S
O21 Sc1 2.105 . S
O21 C6 1.268 1_455 S
Sc22 O25 2.025 . S
Sc22 O32 2.105 . S
Sc22 O35 2.105 . S
Sc22 O38 2.105 . S
Sc22 O41 2.105 . S
Sc23 O25 2.025 . S
Sc23 O33 2.105 . S
Sc23 O37 2.105 . S
Sc23 O39 2.105 . S
Sc23 O43 2.105 . S
Sc24 O25 2.025 . S
Sc24 O34 2.105 . S
Sc24 O36 2.105 . S
Sc24 O40 2.105 . S
Sc24 O42 2.105 . S
O25 Sc22 2.025 . S
O25 Sc23 2.025 . S
O25 Sc24 2.025 . S
C26 O32 1.268 . S
C26 O42 1.268 . S
C27 O33 1.268 . S
C27 O41 1.268 . S
C28 O34 1.268 . S
C28 O43 1.268 . S
C29 O35 1.268 . S
C29 O39 1.268 . S
C30 O36 1.268 . S
C30 O38 1.268 . S
C31 O37 1.268 . S
C31 O40 1.268 . S
O32 Sc22 2.105 . S
O32 C26 1.268 . S
O33 Sc23 2.105 . S
O33 C27 1.268 . S
O34 Sc24 2.105 . S
O34 C28 1.268 . S
O35 Sc22 2.105 . S
O35 C29 1.268 . S
O36 Sc24 2.105 . S
O36 C30 1.268 . S
O37 Sc23 2.105 . S
O37 C31 1.268 . S
O38 Sc22 2.105 . S
O38 C30 1.268 . S
O39 Sc23 2.105 . S
O39 C29 1.268 . S
O40 Sc24 2.105 . S
O40 C31 1.268 . S
O41 Sc22 2.105 . S
O41 C27 1.268 . S
O42 Sc24 2.105 . S
O42 C26 1.268 . S
O43 Sc23 2.105 . S
O43 C28 1.268 . S
Sc44 O47 2.025 . S
Sc44 O54 2.105 . S
Sc44 O57 2.105 . S
Sc44 O60 2.105 . S
Sc44 O63 2.105 . S
Sc45 O47 2.025 . S
Sc45 O55 2.105 . S
Sc45 O59 2.105 . S
Sc45 O61 2.105 . S
Sc45 O65 2.105 . S
Sc46 O47 2.025 . S
Sc46 O56 2.105 . S
Sc46 O58 2.105 . S
Sc46 O62 2.105 . S
Sc46 O64 2.105 . S
O47 Sc44 2.025 . S
O47 Sc45 2.025 . S
O47 Sc46 2.025 . S
C48 O54 1.268 . S
C48 O64 1.268 . S
C49 O55 1.268 . S
C49 O63 1.268 . S
C50 O56 1.268 . S
C50 O65 1.268 . S
C51 O57 1.268 . S
C51 O61 1.268 . S
C52 O58 1.268 . S
C52 O60 1.268 . S
C53 O59 1.268 . S
C53 O62 1.268 . S
O54 Sc44 2.105 . S
O54 C48 1.268 . S
O55 Sc45 2.105 . S
O55 C49 1.268 . S
O56 Sc46 2.105 . S
O56 C50 1.268 . S
O57 Sc44 2.105 . S
O57 C51 1.268 . S
O58 Sc46 2.105 . S
O58 C52 1.268 . S
O59 Sc45 2.105 . S
O59 C53 1.268 . S
O60 Sc44 2.105 . S
O60 C52 1.268 . S
O61 Sc45 2.105 . S
O61 C51 1.268 . S
O62 Sc46 2.105 . S
O62 C53 1.268 . S
O63 Sc44 2.105 . S
O63 C49 1.268 . S
O64 Sc46 2.105 . S
O64 C48 1.268 . S
O65 Sc45 2.105 . S
O65 C50 1.268 . S
Sc66 O69 2.025 . S
Sc66 O76 2.105 . S
Sc66 O79 2.085 1_655 S
Sc66 O82 2.105 . S
Sc66 O85 2.105 . S
Sc67 O69 2.025 . S
Sc67 O77 2.105 . S
Sc67 O81 2.105 . S
Sc67 O83 2.105 . S
Sc67 O87 2.105 . S
Sc68 O69 2.025 . S
Sc68 O78 2.105 . S
Sc68 O80 2.105 . S
Sc68 O84 2.105 . S
Sc68 O86 2.105 . S
O69 Sc66 2.025 . S
O69 Sc67 2.025 . S
O69 Sc68 2.025 . S
C70 O76 1.268 . S
C70 O86 1.268 . S
C71 O77 1.268 . S
C71 O85 1.268 . S
C72 O78 1.268 . S
C72 O87 1.268 . S
C73 O79 1.278 . S
C73 O83 1.268 1_455 S
C74 O80 1.268 1_455 S
C74 O82 1.268 1_455 S
C75 O81 1.268 . S
C75 O84 1.268 . S
O76 Sc66 2.105 . S
O76 C70 1.268 . S
O77 Sc67 2.105 . S
O77 C71 1.268 . S
O78 Sc68 2.105 . S
O78 C72 1.268 . S
O79 Sc66 2.085 1_455 S
O79 C73 1.278 . S
O80 Sc68 2.105 . S
O80 C74 1.268 1_655 S
O81 Sc67 2.105 . S
O81 C75 1.268 . S
O82 Sc66 2.105 . S
O82 C74 1.268 1_655 S
O83 Sc67 2.105 . S
O83 C73 1.268 1_655 S
O84 Sc68 2.105 . S
O84 C75 1.268 . S
O85 Sc66 2.105 . S
O85 C71 1.268 . S
O86 Sc68 2.105 . S
O86 C70 1.268 . S
O87 Sc67 2.105 . S
O87 C72 1.268 . S
Sc88 O91 2.025 . S
Sc88 O98 2.105 . S
Sc88 O101 2.105 . S
Sc88 O104 2.105 . S
Sc88 O107 2.105 . S
Sc89 O91 2.025 . S
Sc89 O99 2.105 . S
Sc89 O103 2.105 . S
Sc89 O105 2.105 . S
Sc89 O109 2.105 . S
Sc90 O91 2.025 . S
Sc90 O100 2.085 1_545 S
Sc90 O102 2.105 . S
Sc90 O106 2.105 . S
Sc90 O108 2.105 . S
O91 Sc88 2.025 . S
O91 Sc89 2.025 . S
O91 Sc90 2.025 . S
C92 O98 1.268 1_565 S
C92 O108 1.268 1_565 S
C93 O99 1.268 . S
C93 O107 1.268 . S
C94 O100 1.278 . S
C94 O109 1.268 1_565 S
C95 O101 1.268 . S
C95 O105 1.268 . S
C96 O102 1.268 . S
C96 O104 1.268 . S
C97 O103 1.268 . S
C97 O106 1.268 . S
O98 Sc88 2.105 . S
O98 C92 1.268 1_545 S
O99 Sc89 2.105 . S
O99 C93 1.268 . S
O100 Sc90 2.085 1_565 S
O100 C94 1.278 . S
O101 Sc88 2.105 . S
O101 C95 1.268 . S
O102 Sc90 2.105 . S
O102 C96 1.268 . S
O103 Sc89 2.105 . S
O103 C97 1.268 . S
O104 Sc88 2.105 . S
O104 C96 1.268 . S
O105 Sc89 2.105 . S
O105 C95 1.268 . S
O106 Sc90 2.105 . S
O106 C97 1.268 . S
O107 Sc88 2.105 . S
O107 C93 1.268 . S
O108 Sc90 2.105 . S
O108 C92 1.268 1_545 S
O109 Sc89 2.105 . S
O109 C94 1.268 1_545 S
Sc110 O113 2.025 . S
Sc110 O120 2.105 . S
Sc110 O123 2.085 1_565 S
Sc110 O126 2.105 . S
Sc110 O129 2.105 . S
Sc111 O113 2.025 . S
Sc111 O121 2.105 . S
Sc111 O125 2.105 . S
Sc111 O127 2.105 . S
Sc111 O131 2.105 . S
Sc112 O113 2.025 . S
Sc112 O122 2.105 . S
Sc112 O124 2.105 . S
Sc112 O128 2.105 . S
Sc112 O130 2.105 . S
O113 Sc110 2.025 . S
O113 Sc111 2.025 . S
O113 Sc112 2.025 . S
C114 O120 1.268 . S
C114 O130 1.268 . S
C115 O121 1.268 . S
C115 O129 1.268 . S
C116 O122 1.268 . S
C116 O131 1.268 . S
C117 O123 1.278 . S
C117 O127 1.268 1_545 S
C118 O124 1.268 1_545 S
C118 O126 1.268 1_545 S
C119 O125 1.268 . S
C119 O128 1.268 . S
O120 Sc110 2.105 . S
O120 C114 1.268 . S
O121 Sc111 2.105 . S
O121 C115 1.268 . S
O122 Sc112 2.105 . S
O122 C116 1.268 . S
O123 Sc110 2.085 1_545 S
O123 C117 1.278 . S
O124 Sc112 2.105 . S
O124 C118 1.268 1_565 S
O125 Sc111 2.105 . S
O125 C119 1.268 . S
O126 Sc110 2.105 . S
O126 C118 1.268 1_565 S
O127 Sc111 2.105 . S
O127 C117 1.268 1_565 S
O128 Sc112 2.105 . S
O128 C119 1.268 . S
O129 Sc110 2.105 . S
O129 C115 1.268 . S
O130 Sc112 2.105 . S
O130 C114 1.268 . S
O131 Sc111 2.105 . S
O131 C116 1.268 . S
Sc132 O135 2.025 . S
Sc132 O142 2.105 . S
Sc132 O145 2.105 . S
Sc132 O148 2.105 . S
Sc132 O151 2.105 . S
Sc133 O135 2.025 . S
Sc133 O143 2.105 . S
Sc133 O147 2.105 . S
Sc133 O149 2.105 . S
Sc133 O153 2.105 . S
Sc134 O135 2.025 . S
Sc134 O144 2.105 . S
Sc134 O146 2.105 . S
Sc134 O150 2.105 . S
Sc134 O152 2.105 . S
O135 Sc132 2.025 . S
O135 Sc133 2.025 . S
O135 Sc134 2.025 . S
C136 O142 1.268 . S
C136 O152 1.268 . S
C137 O143 1.268 . S
C137 O151 1.268 . S
C138 O144 1.268 . S
C138 O153 1.268 . S
C139 O145 1.268 . S
C139 O149 1.268 . S
C140 O146 1.268 . S
C140 O148 1.268 . S
C141 O147 1.268 . S
C141 O150 1.268 . S
O142 Sc132 2.105 . S
O142 C136 1.268 . S
O143 Sc133 2.105 . S
O143 C137 1.268 . S
O144 Sc134 2.105 . S
O144 C138 1.268 . S
O145 Sc132 2.105 . S
O145 C139 1.268 . S
O146 Sc134 2.105 . S
O146 C140 1.268 . S
O147 Sc133 2.105 . S
O147 C141 1.268 . S
O148 Sc132 2.105 . S
O148 C140 1.268 . S
O149 Sc133 2.105 . S
O149 C139 1.268 . S
O150 Sc134 2.105 . S
O150 C141 1.268 . S
O151 Sc132 2.105 . S
O151 C137 1.268 . S
O152 Sc134 2.105 . S
O152 C136 1.268 . S
O153 Sc133 2.105 . S
O153 C138 1.268 . S
Sc154 O157 2.025 . S
Sc154 O164 2.105 . S
Sc154 O167 2.105 . S
Sc154 O170 2.105 . S
Sc154 O173 2.105 . S
Sc155 O157 2.025 . S
Sc155 O165 2.105 . S
Sc155 O169 2.105 . S
Sc155 O171 2.105 . S
Sc155 O175 2.105 . S
Sc156 O157 2.025 . S
Sc156 O166 2.105 . S
Sc156 O168 2.105 . S
Sc156 O172 2.105 . S
Sc156 O174 2.105 . S
O157 Sc154 2.025 . S
O157 Sc155 2.025 . S
O157 Sc156 2.025 . S
C158 O164 1.268 . S
C158 O174 1.268 . S
C159 O165 1.268 . S
C159 O173 1.268 . S
C160 O166 1.268 . S
C160 O175 1.268 . S
C161 O167 1.268 . S
C161 O171 1.268 . S
C162 O168 1.268 . S
C162 O170 1.268 . S
C163 O169 1.268 . S
C163 O172 1.268 . S
O164 Sc154 2.105 . S
O164 C158 1.268 . S
O165 Sc155 2.105 . S
O165 C159 1.268 . S
O166 Sc156 2.105 . S
O166 C160 1.268 . S
O167 Sc154 2.105 . S
O167 C161 1.268 . S
O168 Sc156 2.105 . S
O168 C162 1.268 . S
O169 Sc155 2.105 . S
O169 C163 1.268 . S
O170 Sc154 2.105 . S
O170 C162 1.268 . S
O171 Sc155 2.105 . S
O171 C161 1.268 . S
O172 Sc156 2.105 . S
O172 C163 1.268 . S
O173 Sc154 2.105 . S
O173 C159 1.268 . S
O174 Sc156 2.105 . S
O174 C158 1.268 . S
O175 Sc155 2.105 . S
O175 C160 1.268 . S
Sc176 O179 2.025 . S
Sc176 O186 2.105 . S
Sc176 O189 2.105 . S
Sc176 O192 2.105 . S
Sc176 O195 2.105 . S
Sc177 O179 2.025 . S
Sc177 O187 2.105 . S
Sc177 O191 2.105 . S
Sc177 O193 2.105 . S
Sc177 O197 2.105 . S
Sc178 O179 2.025 . S
Sc178 O188 2.085 1_554 S
Sc178 O190 2.105 . S
Sc178 O194 2.105 . S
Sc178 O196 2.105 . S
O179 Sc176 2.025 . S
O179 Sc177 2.025 . S
O179 Sc178 2.025 . S
C180 O186 1.268 1_556 S
C180 O196 1.268 1_556 S
C181 O187 1.268 . S
C181 O195 1.268 . S
C182 O188 1.278 . S
C182 O197 1.268 1_556 S
C183 O189 1.268 . S
C183 O193 1.268 . S
C184 O190 1.268 . S
C184 O192 1.268 . S
C185 O191 1.268 . S
C185 O194 1.268 . S
O186 Sc176 2.105 . S
O186 C180 1.268 1_554 S
O187 Sc177 2.105 . S
O187 C181 1.268 . S
O188 Sc178 2.085 1_556 S
O188 C182 1.278 . S
O189 Sc176 2.105 . S
O189 C183 1.268 . S
O190 Sc178 2.105 . S
O190 C184 1.268 . S
O191 Sc177 2.105 . S
O191 C185 1.268 . S
O192 Sc176 2.105 . S
O192 C184 1.268 . S
O193 Sc177 2.105 . S
O193 C183 1.268 . S
O194 Sc178 2.105 . S
O194 C185 1.268 . S
O195 Sc176 2.105 . S
O195 C181 1.268 . S
O196 Sc178 2.105 . S
O196 C180 1.268 1_554 S
O197 Sc177 2.105 . S
O197 C182 1.268 1_554 S
Sc198 O201 2.025 . S
Sc198 O208 2.105 . S
Sc198 O211 2.085 1_556 S
Sc198 O214 2.105 . S
Sc198 O217 2.105 . S
Sc199 O201 2.025 . S
Sc199 O209 2.105 . S
Sc199 O213 2.105 . S
Sc199 O215 2.105 . S
Sc199 O219 2.105 . S
Sc200 O201 2.025 . S
Sc200 O210 2.105 . S
Sc200 O212 2.105 . S
Sc200 O216 2.105 . S
Sc200 O218 2.105 . S
O201 Sc198 2.025 . S
O201 Sc199 2.025 . S
O201 Sc200 2.025 . S
C202 O208 1.268 . S
C202 O218 1.268 . S
C203 O209 1.268 . S
C203 O217 1.268 . S
C204 O210 1.268 . S
C204 O219 1.268 . S
C205 O211 1.278 . S
C205 O215 1.268 1_554 S
C206 O212 1.268 1_554 S
C206 O214 1.268 1_554 S
C207 O213 1.268 . S
C207 O216 1.268 . S
O208 Sc198 2.105 . S
O208 C202 1.268 . S
O209 Sc199 2.105 . S
O209 C203 1.268 . S
O210 Sc200 2.105 . S
O210 C204 1.268 . S
O211 Sc198 2.085 1_554 S
O211 C205 1.278 . S
O212 Sc200 2.105 . S
O212 C206 1.268 1_556 S
O213 Sc199 2.105 . S
O213 C207 1.268 . S
O214 Sc198 2.105 . S
O214 C206 1.268 1_556 S
O215 Sc199 2.105 . S
O215 C205 1.268 1_556 S
O216 Sc200 2.105 . S
O216 C207 1.268 . S
O217 Sc198 2.105 . S
O217 C203 1.268 . S
O218 Sc200 2.105 . S
O218 C202 1.268 . S
O219 Sc199 2.105 . S
O219 C204 1.268 . S
Sc220 O223 2.025 . S
Sc220 O230 2.105 . S
Sc220 O233 2.105 . S
Sc220 O236 2.105 . S
Sc220 O239 2.105 . S
Sc221 O223 2.025 . S
Sc221 O231 2.105 . S
Sc221 O235 2.105 . S
Sc221 O237 2.105 . S
Sc221 O241 2.105 . S
Sc222 O223 2.025 . S
Sc222 O232 2.105 . S
Sc222 O234 2.105 . S
Sc222 O238 2.105 . S
Sc222 O240 2.105 . S
O223 Sc220 2.025 . S
O223 Sc221 2.025 . S
O223 Sc222 2.025 . S
C224 O230 1.268 . S
C224 O240 1.268 . S
C225 O231 1.268 . S
C225 O239 1.268 . S
C226 O232 1.268 . S
C226 O241 1.268 . S
C227 O233 1.268 . S
C227 O237 1.268 . S
C228 O234 1.268 . S
C228 O236 1.268 . S
C229 O235 1.268 . S
C229 O238 1.268 . S
O230 Sc220 2.105 . S
O230 C224 1.268 . S
O231 Sc221 2.105 . S
O231 C225 1.268 . S
O232 Sc222 2.105 . S
O232 C226 1.268 . S
O233 Sc220 2.105 . S
O233 C227 1.268 . S
O234 Sc222 2.105 . S
O234 C228 1.268 . S
O235 Sc221 2.105 . S
O235 C229 1.268 . S
O236 Sc220 2.105 . S
O236 C228 1.268 . S
O237 Sc221 2.105 . S
O237 C227 1.268 . S
O238 Sc222 2.105 . S
O238 C229 1.268 . S
O239 Sc220 2.105 . S
O239 C225 1.268 . S
O240 Sc222 2.105 . S
O240 C224 1.268 . S
O241 Sc221 2.105 . S
O241 C226 1.268 . S
Sc242 O245 2.025 . S
Sc242 O252 2.105 . S
Sc242 O255 2.105 . S
Sc242 O258 2.105 . S
Sc242 O261 2.105 . S
Sc243 O245 2.025 . S
Sc243 O253 2.105 . S
Sc243 O257 2.105 . S
Sc243 O259 2.105 . S
Sc243 O263 2.105 . S
Sc244 O245 2.025 . S
Sc244 O254 2.105 . S
Sc244 O256 2.105 . S
Sc244 O260 2.105 . S
Sc244 O262 2.105 . S
O245 Sc242 2.025 . S
O245 Sc243 2.025 . S
O245 Sc244 2.025 . S
C246 O252 1.268 . S
C246 O262 1.268 . S
C247 O253 1.268 . S
C247 O261 1.268 . S
C248 O254 1.268 . S
C248 O263 1.268 . S
C249 O255 1.268 . S
C249 O259 1.268 . S
C250 O256 1.268 . S
C250 O258 1.268 . S
C251 O257 1.268 . S
C251 O260 1.268 . S
O252 Sc242 2.105 . S
O252 C246 1.268 . S
O253 Sc243 2.105 . S
O253 C247 1.268 . S
O254 Sc244 2.105 . S
O254 C248 1.268 . S
O255 Sc242 2.105 . S
O255 C249 1.268 . S
O256 Sc244 2.105 . S
O256 C250 1.268 . S
O257 Sc243 2.105 . S
O257 C251 1.268 . S
O258 Sc242 2.105 . S
O258 C250 1.268 . S
O259 Sc243 2.105 . S
O259 C249 1.268 . S
O260 Sc244 2.105 . S
O260 C251 1.268 . S
O261 Sc242 2.105 . S
O261 C247 1.268 . S
O262 Sc244 2.105 . S
O262 C246 1.268 . S
O263 Sc243 2.105 . S
O263 C248 1.268 . S
Sc264 O267 2.025 . S
Sc264 O274 2.105 . S
Sc264 O277 2.105 . S
Sc264 O280 2.105 . S
Sc264 O283 2.085 1_655 S
Sc265 O267 2.025 . S
Sc265 O275 2.105 . S
Sc265 O279 2.105 . S
Sc265 O281 2.105 . S
Sc265 O285 2.105 . S
Sc266 O267 2.025 . S
Sc266 O276 2.105 . S
Sc266 O278 2.105 . S
Sc266 O282 2.105 . S
Sc266 O284 2.105 . S
O267 Sc264 2.025 . S
O267 Sc265 2.025 . S
O267 Sc266 2.025 . S
C268 O274 1.268 1_455 S
C268 O284 1.268 1_455 S
C269 O275 1.268 1_455 S
C269 O283 1.278 . S
C270 O276 1.268 . S
C270 O285 1.268 . S
C271 O277 1.268 . S
C271 O281 1.268 . S
C272 O278 1.268 . S
C272 O280 1.268 . S
C273 O279 1.268 . S
C273 O282 1.268 . S
O274 Sc264 2.105 . S
O274 C268 1.268 1_655 S
O275 Sc265 2.105 . S
O275 C269 1.268 1_655 S
O276 Sc266 2.105 . S
O276 C270 1.268 . S
O277 Sc264 2.105 . S
O277 C271 1.268 . S
O278 Sc266 2.105 . S
O278 C272 1.268 . S
O279 Sc265 2.105 . S
O279 C273 1.268 . S
O280 Sc264 2.105 . S
O280 C272 1.268 . S
O281 Sc265 2.105 . S
O281 C271 1.268 . S
O282 Sc266 2.105 . S
O282 C273 1.268 . S
O283 Sc264 2.085 1_455 S
O283 C269 1.278 . S
O284 Sc266 2.105 . S
O284 C268 1.268 1_655 S
O285 Sc265 2.105 . S
O285 C270 1.268 . S
Sc286 O289 2.025 . S
Sc286 O296 2.105 . S
Sc286 O299 2.105 . S
Sc286 O302 2.105 . S
Sc286 O305 2.105 . S
Sc287 O289 2.025 . S
Sc287 O297 2.105 . S
Sc287 O301 2.105 . S
Sc287 O303 2.105 . S
Sc287 O307 2.105 . S
Sc288 O289 2.025 . S
Sc288 O298 2.105 . S
Sc288 O300 2.105 . S
Sc288 O304 2.105 . S
Sc288 O306 2.105 . S
O289 Sc286 2.025 . S
O289 Sc287 2.025 . S
O289 Sc288 2.025 . S
C290 O296 1.268 . S
C290 O306 1.268 . S
C291 O297 1.268 . S
C291 O305 1.268 . S
C292 O298 1.268 . S
C292 O307 1.268 . S
C293 O299 1.268 . S
C293 O303 1.268 . S
C294 O300 1.268 . S
C294 O302 1.268 . S
C295 O301 1.268 . S
C295 O304 1.268 . S
O296 Sc286 2.105 . S
O296 C290 1.268 . S
O297 Sc287 2.105 . S
O297 C291 1.268 . S
O298 Sc288 2.105 . S
O298 C292 1.268 . S
O299 Sc286 2.105 . S
O299 C293 1.268 . S
O300 Sc288 2.105 . S
O300 C294 1.268 . S
O301 Sc287 2.105 . S
O301 C295 1.268 . S
O302 Sc286 2.105 . S
O302 C294 1.268 . S
O303 Sc287 2.105 . S
O303 C293 1.268 . S
O304 Sc288 2.105 . S
O304 C295 1.268 . S
O305 Sc286 2.105 . S
O305 C291 1.268 . S
O306 Sc288 2.105 . S
O306 C290 1.268 . S
O307 Sc287 2.105 . S
O307 C292 1.268 . S
Sc308 O311 2.025 . S
Sc308 O318 2.105 . S
Sc308 O321 2.105 . S
Sc308 O324 2.105 . S
Sc308 O327 2.105 . S
Sc309 O311 2.025 . S
Sc309 O319 2.105 . S
Sc309 O323 2.105 . S
Sc309 O325 2.105 . S
Sc309 O329 2.105 . S
Sc310 O311 2.025 . S
Sc310 O320 2.105 . S
Sc310 O322 2.105 . S
Sc310 O326 2.105 . S
Sc310 O328 2.105 . S
O311 Sc308 2.025 . S
O311 Sc309 2.025 . S
O311 Sc310 2.025 . S
C312 O318 1.268 . S
C312 O328 1.268 . S
C313 O319 1.268 . S
C313 O327 1.268 . S
C314 O320 1.268 . S
C314 O329 1.268 . S
C315 O321 1.268 . S
C315 O325 1.268 . S
C316 O322 1.268 . S
C316 O324 1.268 . S
C317 O323 1.268 . S
C317 O326 1.268 . S
O318 Sc308 2.105 . S
O318 C312 1.268 . S
O319 Sc309 2.105 . S
O319 C313 1.268 . S
O320 Sc310 2.105 . S
O320 C314 1.268 . S
O321 Sc308 2.105 . S
O321 C315 1.268 . S
O322 Sc310 2.105 . S
O322 C316 1.268 . S
O323 Sc309 2.105 . S
O323 C317 1.268 . S
O324 Sc308 2.105 . S
O324 C316 1.268 . S
O325 Sc309 2.105 . S
O325 C315 1.268 . S
O326 Sc310 2.105 . S
O326 C317 1.268 . S
O327 Sc308 2.105 . S
O327 C313 1.268 . S
O328 Sc310 2.105 . S
O328 C312 1.268 . S
O329 Sc309 2.105 . S
O329 C314 1.268 . S
Sc330 O333 2.025 . S
Sc330 O340 2.105 . S
Sc330 O343 2.105 . S
Sc330 O346 2.105 . S
Sc330 O349 2.085 1_455 S
Sc331 O333 2.025 . S
Sc331 O341 2.105 . S
Sc331 O345 2.105 . S
Sc331 O347 2.105 . S
Sc331 O351 2.105 . S
Sc332 O333 2.025 . S
Sc332 O342 2.105 . S
Sc332 O344 2.105 . S
Sc332 O348 2.105 . S
Sc332 O350 2.105 . S
O333 Sc330 2.025 . S
O333 Sc331 2.025 . S
O333 Sc332 2.025 . S
C334 O340 1.268 1_655 S
C334 O350 1.268 1_655 S
C335 O341 1.268 1_655 S
C335 O349 1.278 . S
C336 O342 1.268 . S
C336 O351 1.268 . S
C337 O343 1.268 . S
C337 O347 1.268 . S
C338 O344 1.268 . S
C338 O346 1.268 . S
C339 O345 1.268 . S
C339 O348 1.268 . S
O340 Sc330 2.105 . S
O340 C334 1.268 1_455 S
O341 Sc331 2.105 . S
O341 C335 1.268 1_455 S
O342 Sc332 2.105 . S
O342 C336 1.268 . S
O343 Sc330 2.105 . S
O343 C337 1.268 . S
O344 Sc332 2.105 . S
O344 C338 1.268 . S
O345 Sc331 2.105 . S
O345 C339 1.268 . S
O346 Sc330 2.105 . S
O346 C338 1.268 . S
O347 Sc331 2.105 . S
O347 C337 1.268 . S
O348 Sc332 2.105 . S
O348 C339 1.268 . S
O349 Sc330 2.085 1_655 S
O349 C335 1.278 . S
O350 Sc332 2.105 . S
O350 C334 1.268 1_455 S
O351 Sc331 2.105 . S
O351 C336 1.268 . S
Sc352 O355 2.025 . S
Sc352 O362 2.105 . S
Sc352 O365 2.105 . S
Sc352 O368 2.105 . S
Sc352 O371 2.105 . S
Sc353 O355 2.025 . S
Sc353 O363 2.105 . S
Sc353 O367 2.105 . S
Sc353 O369 2.105 . S
Sc353 O373 2.105 . S
Sc354 O355 2.025 . S
Sc354 O364 2.105 . S
Sc354 O366 2.105 . S
Sc354 O370 2.085 1_565 S
Sc354 O372 2.105 . S
O355 Sc352 2.025 . S
O355 Sc353 2.025 . S
O355 Sc354 2.025 . S
C356 O362 1.268 . S
C356 O372 1.268 . S
C357 O363 1.268 . S
C357 O371 1.268 . S
C358 O364 1.268 . S
C358 O373 1.268 . S
C359 O365 1.268 . S
C359 O369 1.268 . S
C360 O366 1.268 1_545 S
C360 O368 1.268 1_545 S
C361 O367 1.268 1_545 S
C361 O370 1.278 . S
O362 Sc352 2.105 . S
O362 C356 1.268 . S
O363 Sc353 2.105 . S
O363 C357 1.268 . S
O364 Sc354 2.105 . S
O364 C358 1.268 . S
O365 Sc352 2.105 . S
O365 C359 1.268 . S
O366 Sc354 2.105 . S
O366 C360 1.268 1_565 S
O367 Sc353 2.105 . S
O367 C361 1.268 1_565 S
O368 Sc352 2.105 . S
O368 C360 1.268 1_565 S
O369 Sc353 2.105 . S
O369 C359 1.268 . S
O370 Sc354 2.085 1_545 S
O370 C361 1.278 . S
O371 Sc352 2.105 . S
O371 C357 1.268 . S
O372 Sc354 2.105 . S
O372 C356 1.268 . S
O373 Sc353 2.105 . S
O373 C358 1.268 . S
Sc374 O377 2.025 . S
Sc374 O384 2.105 . S
Sc374 O387 2.105 . S
Sc374 O390 2.105 . S
Sc374 O393 2.085 1_545 S
Sc375 O377 2.025 . S
Sc375 O385 2.105 . S
Sc375 O389 2.105 . S
Sc375 O391 2.105 . S
Sc375 O395 2.105 . S
Sc376 O377 2.025 . S
Sc376 O386 2.105 . S
Sc376 O388 2.105 . S
Sc376 O392 2.105 . S
Sc376 O394 2.105 . S
O377 Sc374 2.025 . S
O377 Sc375 2.025 . S
O377 Sc376 2.025 . S
C378 O384 1.268 1_565 S
C378 O394 1.268 1_565 S
C379 O385 1.268 1_565 S
C379 O393 1.278 . S
C380 O386 1.268 . S
C380 O395 1.268 . S
C381 O387 1.268 . S
C381 O391 1.268 . S
C382 O388 1.268 . S
C382 O390 1.268 . S
C383 O389 1.268 . S
C383 O392 1.268 . S
O384 Sc374 2.105 . S
O384 C378 1.268 1_545 S
O385 Sc375 2.105 . S
O385 C379 1.268 1_545 S
O386 Sc376 2.105 . S
O386 C380 1.268 . S
O387 Sc374 2.105 . S
O387 C381 1.268 . S
O388 Sc376 2.105 . S
O388 C382 1.268 . S
O389 Sc375 2.105 . S
O389 C383 1.268 . S
O390 Sc374 2.105 . S
O390 C382 1.268 . S
O391 Sc375 2.105 . S
O391 C381 1.268 . S
O392 Sc376 2.105 . S
O392 C383 1.268 . S
O393 Sc374 2.085 1_565 S
O393 C379 1.278 . S
O394 Sc376 2.105 . S
O394 C378 1.268 1_545 S
O395 Sc375 2.105 . S
O395 C380 1.268 . S
Sc396 O399 2.025 . S
Sc396 O406 2.105 . S
Sc396 O409 2.105 . S
Sc396 O412 2.105 . S
Sc396 O415 2.105 . S
Sc397 O399 2.025 . S
Sc397 O407 2.105 . S
Sc397 O411 2.105 . S
Sc397 O413 2.105 . S
Sc397 O417 2.105 . S
Sc398 O399 2.025 . S
Sc398 O408 2.105 . S
Sc398 O410 2.105 . S
Sc398 O414 2.105 . S
Sc398 O416 2.105 . S
O399 Sc396 2.025 . S
O399 Sc397 2.025 . S
O399 Sc398 2.025 . S
C400 O406 1.268 . S
C400 O416 1.268 . S
C401 O407 1.268 . S
C401 O415 1.268 . S
C402 O408 1.268 . S
C402 O417 1.268 . S
C403 O409 1.268 . S
C403 O413 1.268 . S
C404 O410 1.268 . S
C404 O412 1.268 . S
C405 O411 1.268 . S
C405 O414 1.268 . S
O406 Sc396 2.105 . S
O406 C400 1.268 . S
O407 Sc397 2.105 . S
O407 C401 1.268 . S
O408 Sc398 2.105 . S
O408 C402 1.268 . S
O409 Sc396 2.105 . S
O409 C403 1.268 . S
O410 Sc398 2.105 . S
O410 C404 1.268 . S
O411 Sc397 2.105 . S
O411 C405 1.268 . S
O412 Sc396 2.105 . S
O412 C404 1.268 . S
O413 Sc397 2.105 . S
O413 C403 1.268 . S
O414 Sc398 2.105 . S
O414 C405 1.268 . S
O415 Sc396 2.105 . S
O415 C401 1.268 . S
O416 Sc398 2.105 . S
O416 C400 1.268 . S
O417 Sc397 2.105 . S
O417 C402 1.268 . S
Sc418 O421 2.025 . S
Sc418 O428 2.105 . S
Sc418 O431 2.105 . S
Sc418 O434 2.105 . S
Sc418 O437 2.105 . S
Sc419 O421 2.025 . S
Sc419 O429 2.105 . S
Sc419 O433 2.105 . S
Sc419 O435 2.105 . S
Sc419 O439 2.105 . S
Sc420 O421 2.025 . S
Sc420 O430 2.105 . S
Sc420 O432 2.105 . S
Sc420 O436 2.105 . S
Sc420 O438 2.105 . S
O421 Sc418 2.025 . S
O421 Sc419 2.025 . S
O421 Sc420 2.025 . S
C422 O428 1.268 . S
C422 O438 1.268 . S
C423 O429 1.268 . S
C423 O437 1.268 . S
C424 O430 1.268 . S
C424 O439 1.268 . S
C425 O431 1.268 . S
C425 O435 1.268 . S
C426 O432 1.268 . S
C426 O434 1.268 . S
C427 O433 1.268 . S
C427 O436 1.268 . S
O428 Sc418 2.105 . S
O428 C422 1.268 . S
O429 Sc419 2.105 . S
O429 C423 1.268 . S
O430 Sc420 2.105 . S
O430 C424 1.268 . S
O431 Sc418 2.105 . S
O431 C425 1.268 . S
O432 Sc420 2.105 . S
O432 C426 1.268 . S
O433 Sc419 2.105 . S
O433 C427 1.268 . S
O434 Sc418 2.105 . S
O434 C426 1.268 . S
O435 Sc419 2.105 . S
O435 C425 1.268 . S
O436 Sc420 2.105 . S
O436 C427 1.268 . S
O437 Sc418 2.105 . S
O437 C423 1.268 . S
O438 Sc420 2.105 . S
O438 C422 1.268 . S
O439 Sc419 2.105 . S
O439 C424 1.268 . S
Sc440 O443 2.025 . S
Sc440 O450 2.105 . S
Sc440 O453 2.105 . S
Sc440 O456 2.105 . S
Sc440 O459 2.105 . S
Sc441 O443 2.025 . S
Sc441 O451 2.105 . S
Sc441 O455 2.105 . S
Sc441 O457 2.105 . S
Sc441 O461 2.105 . S
Sc442 O443 2.025 . S
Sc442 O452 2.105 . S
Sc442 O454 2.105 . S
Sc442 O458 2.085 1_556 S
Sc442 O460 2.105 . S
O443 Sc440 2.025 . S
O443 Sc441 2.025 . S
O443 Sc442 2.025 . S
C444 O450 1.268 . S
C444 O460 1.268 . S
C445 O451 1.268 . S
C445 O459 1.268 . S
C446 O452 1.268 . S
C446 O461 1.268 . S
C447 O453 1.268 . S
C447 O457 1.268 . S
C448 O454 1.268 1_554 S
C448 O456 1.268 1_554 S
C449 O455 1.268 1_554 S
C449 O458 1.278 . S
O450 Sc440 2.105 . S
O450 C444 1.268 . S
O451 Sc441 2.105 . S
O451 C445 1.268 . S
O452 Sc442 2.105 . S
O452 C446 1.268 . S
O453 Sc440 2.105 . S
O453 C447 1.268 . S
O454 Sc442 2.105 . S
O454 C448 1.268 1_556 S
O455 Sc441 2.105 . S
O455 C449 1.268 1_556 S
O456 Sc440 2.105 . S
O456 C448 1.268 1_556 S
O457 Sc441 2.105 . S
O457 C447 1.268 . S
O458 Sc442 2.085 1_554 S
O458 C449 1.278 . S
O459 Sc440 2.105 . S
O459 C445 1.268 . S
O460 Sc442 2.105 . S
O460 C444 1.268 . S
O461 Sc441 2.105 . S
O461 C446 1.268 . S
Sc462 O465 2.025 . S
Sc462 O472 2.105 . S
Sc462 O475 2.105 . S
Sc462 O478 2.105 . S
Sc462 O481 2.085 1_554 S
Sc463 O465 2.025 . S
Sc463 O473 2.105 . S
Sc463 O477 2.105 . S
Sc463 O479 2.105 . S
Sc463 O483 2.105 . S
Sc464 O465 2.025 . S
Sc464 O474 2.105 . S
Sc464 O476 2.105 . S
Sc464 O480 2.105 . S
Sc464 O482 2.105 . S
O465 Sc462 2.025 . S
O465 Sc463 2.025 . S
O465 Sc464 2.025 . S
C466 O472 1.268 1_556 S
C466 O482 1.268 1_556 S
C467 O473 1.268 1_556 S
C467 O481 1.278 . S
C468 O474 1.268 . S
C468 O483 1.268 . S
C469 O475 1.268 . S
C469 O479 1.268 . S
C470 O476 1.268 . S
C470 O478 1.268 . S
C471 O477 1.268 . S
C471 O480 1.268 . S
O472 Sc462 2.105 . S
O472 C466 1.268 1_554 S
O473 Sc463 2.105 . S
O473 C467 1.268 1_554 S
O474 Sc464 2.105 . S
O474 C468 1.268 . S
O475 Sc462 2.105 . S
O475 C469 1.268 . S
O476 Sc464 2.105 . S
O476 C470 1.268 . S
O477 Sc463 2.105 . S
O477 C471 1.268 . S
O478 Sc462 2.105 . S
O478 C470 1.268 . S
O479 Sc463 2.105 . S
O479 C469 1.268 . S
O480 Sc464 2.105 . S
O480 C471 1.268 . S
O481 Sc462 2.085 1_556 S
O481 C467 1.278 . S
O482 Sc464 2.105 . S
O482 C466 1.268 1_554 S
O483 Sc463 2.105 . S
O483 C468 1.268 . S
Sc484 O487 2.025 . S
Sc484 O494 2.105 . S
Sc484 O497 2.105 . S
Sc484 O500 2.105 . S
Sc484 O503 2.105 . S
Sc485 O487 2.025 . S
Sc485 O495 2.105 . S
Sc485 O499 2.105 . S
Sc485 O501 2.105 . S
Sc485 O505 2.105 . S
Sc486 O487 2.025 . S
Sc486 O496 2.105 . S
Sc486 O498 2.105 . S
Sc486 O502 2.105 . S
Sc486 O504 2.105 . S
O487 Sc484 2.025 . S
O487 Sc485 2.025 . S
O487 Sc486 2.025 . S
C488 O494 1.268 . S
C488 O504 1.268 . S
C489 O495 1.268 . S
C489 O503 1.268 . S
C490 O496 1.268 . S
C490 O505 1.268 . S
C491 O497 1.268 . S
C491 O501 1.268 . S
C492 O498 1.268 . S
C492 O500 1.268 . S
C493 O499 1.268 . S
C493 O502 1.268 . S
O494 Sc484 2.105 . S
O494 C488 1.268 . S
O495 Sc485 2.105 . S
O495 C489 1.268 . S
O496 Sc486 2.105 . S
O496 C490 1.268 . S
O497 Sc484 2.105 . S
O497 C491 1.268 . S
O498 Sc486 2.105 . S
O498 C492 1.268 . S
O499 Sc485 2.105 . S
O499 C493 1.268 . S
O500 Sc484 2.105 . S
O500 C492 1.268 . S
O501 Sc485 2.105 . S
O501 C491 1.268 . S
O502 Sc486 2.105 . S
O502 C493 1.268 . S
O503 Sc484 2.105 . S
O503 C489 1.268 . S
O504 Sc486 2.105 . S
O504 C488 1.268 . S
O505 Sc485 2.105 . S
O505 C490 1.268 . S
Sc506 O509 2.025 . S
Sc506 O516 2.105 . S
Sc506 O519 2.105 . S
Sc506 O522 2.105 . S
Sc506 O525 2.105 . S
Sc507 O509 2.025 . S
Sc507 O517 2.105 . S
Sc507 O521 2.105 . S
Sc507 O523 2.105 . S
Sc507 O527 2.105 . S
Sc508 O509 2.025 . S
Sc508 O518 2.105 . S
Sc508 O520 2.105 . S
Sc508 O524 2.105 . S
Sc508 O526 2.105 . S
O509 Sc506 2.025 . S
O509 Sc507 2.025 . S
O509 Sc508 2.025 . S
C510 O516 1.268 . S
C510 O526 1.268 . S
C511 O517 1.268 . S
C511 O525 1.268 . S
C512 O518 1.268 . S
C512 O527 1.268 . S
C513 O519 1.268 . S
C513 O523 1.268 . S
C514 O520 1.268 . S
C514 O522 1.268 . S
C515 O521 1.268 . S
C515 O524 1.268 . S
O516 Sc506 2.105 . S
O516 C510 1.268 . S
O517 Sc507 2.105 . S
O517 C511 1.268 . S
O518 Sc508 2.105 . S
O518 C512 1.268 . S
O519 Sc506 2.105 . S
O519 C513 1.268 . S
O520 Sc508 2.105 . S
O520 C514 1.268 . S
O521 Sc507 2.105 . S
O521 C515 1.268 . S
O522 Sc506 2.105 . S
O522 C514 1.268 . S
O523 Sc507 2.105 . S
O523 C513 1.268 . S
O524 Sc508 2.105 . S
O524 C515 1.268 . S
O525 Sc506 2.105 . S
O525 C511 1.268 . S
O526 Sc508 2.105 . S
O526 C510 1.268 . S
O527 Sc507 2.105 . S
O527 C512 1.268 . S
H528 C540 0.930 . S
H529 C542 0.930 . S
H530 C543 0.930 . S
H531 C547 0.959 . S
H532 C547 0.959 . S
H533 C547 0.961 . S
H534 C548 0.960 . S
H535 C548 0.961 . S
H536 C548 0.959 . S
H537 C551 0.929 . S
H538 C552 0.931 . S
H539 C554 0.930 . S
C540 H528 0.930 . S
C540 C541 1.399 . S
C540 C545 1.399 . S
C541 C540 1.399 . S
C541 C542 1.376 . S
C542 H529 0.930 . S
C542 C541 1.376 . S
C542 C543 1.388 . S
C543 H530 0.930 . S
C543 C542 1.388 . S
C543 C544 1.390 . S
C544 C543 1.390 . S
C544 C545 1.394 . S
C544 C550 1.465 . S
C545 C540 1.399 . S
C545 C544 1.394 . S
C545 C546 1.516 . S
C546 C545 1.516 . S
C546 C547 1.502 . S
C546 C548 1.561 . S
C546 C549 1.526 . S
C547 H531 0.959 . S
C547 H532 0.959 . S
C547 H533 0.961 . S
C547 C546 1.502 . S
C548 H534 0.960 . S
C548 H535 0.961 . S
C548 H536 0.959 . S
C548 C546 1.561 . S
C549 C546 1.526 . S
C549 C550 1.396 . S
C549 C554 1.390 . S
C550 C544 1.465 . S
C550 C549 1.396 . S
C550 C551 1.399 . S
C551 H537 0.929 . S
C551 C550 1.399 . S
C551 C552 1.385 . S
C552 H538 0.931 . S
C552 C551 1.385 . S
C552 C553 1.389 . S
C553 C552 1.389 . S
C553 C554 1.387 . S
C554 H539 0.930 . S
C554 C549 1.390 . S
C554 C553 1.387 . S
H555 C567 0.930 . S
H556 C569 0.930 . S
H557 C570 0.930 . S
H558 C574 0.959 . S
H559 C574 0.959 . S
H560 C574 0.961 . S
H561 C575 0.960 . S
H562 C575 0.961 . S
H563 C575 0.959 . S
H564 C578 0.929 . S
H565 C579 0.931 . S
H566 C581 0.930 . S
C567 H555 0.930 . S
C567 C568 1.399 . S
C567 C572 1.399 . S
C568 C567 1.399 . S
C568 C569 1.376 . S
C569 H556 0.930 . S
C569 C568 1.376 . S
C569 C570 1.388 . S
C570 H557 0.930 . S
C570 C569 1.388 . S
C570 C571 1.390 . S
C571 C570 1.390 . S
C571 C572 1.394 . S
C571 C577 1.465 . S
C572 C567 1.399 . S
C572 C571 1.394 . S
C572 C573 1.516 . S
C573 C572 1.516 . S
C573 C574 1.502 . S
C573 C575 1.561 . S
C573 C576 1.526 . S
C574 H558 0.959 . S
C574 H559 0.959 . S
C574 H560 0.961 . S
C574 C573 1.502 . S
C575 H561 0.960 . S
C575 H562 0.961 . S
C575 H563 0.959 . S
C575 C573 1.561 . S
C576 C573 1.526 . S
C576 C577 1.396 . S
C576 C581 1.390 . S
C577 C571 1.465 . S
C577 C576 1.396 . S
C577 C578 1.399 . S
C578 H564 0.929 . S
C578 C577 1.399 . S
C578 C579 1.385 . S
C579 H565 0.931 . S
C579 C578 1.385 . S
C579 C580 1.389 . S
C580 C579 1.389 . S
C580 C581 1.387 . S
C581 H566 0.930 . S
C581 C576 1.390 . S
C581 C580 1.387 . S
H582 C594 0.930 . S
H583 C596 0.930 . S
H584 C597 0.930 . S
H585 C601 0.959 . S
H586 C601 0.959 . S
H587 C601 0.961 . S
H588 C602 0.960 . S
H589 C602 0.961 . S
H590 C602 0.959 . S
H591 C605 0.929 . S
H592 C606 0.931 . S
H593 C608 0.930 . S
C594 H582 0.930 . S
C594 C595 1.399 . S
C594 C599 1.399 . S
C595 C594 1.399 . S
C595 C596 1.376 . S
C596 H583 0.930 . S
C596 C595 1.376 . S
C596 C597 1.388 . S
C597 H584 0.930 . S
C597 C596 1.388 . S
C597 C598 1.390 . S
C598 C597 1.390 . S
C598 C599 1.394 . S
C598 C604 1.465 . S
C599 C594 1.399 . S
C599 C598 1.394 . S
C599 C600 1.516 . S
C600 C599 1.516 . S
C600 C601 1.502 . S
C600 C602 1.561 . S
C600 C603 1.526 . S
C601 H585 0.959 . S
C601 H586 0.959 . S
C601 H587 0.961 . S
C601 C600 1.502 . S
C602 H588 0.960 . S
C602 H589 0.961 . S
C602 H590 0.959 . S
C602 C600 1.561 . S
C603 C600 1.526 . S
C603 C604 1.396 . S
C603 C608 1.390 . S
C604 C598 1.465 . S
C604 C603 1.396 . S
C604 C605 1.399 . S
C605 H591 0.929 . S
C605 C604 1.399 . S
C605 C606 1.385 . S
C606 H592 0.931 . S
C606 C605 1.385 . S
C606 C607 1.389 . S
C607 C606 1.389 . S
C607 C608 1.387 . S
C608 H593 0.930 . S
C608 C603 1.390 . S
C608 C607 1.387 . S
H609 C621 0.930 . S
H610 C623 0.930 . S
H611 C624 0.930 . S
H612 C628 0.959 . S
H613 C628 0.959 . S
H614 C628 0.961 . S
H615 C629 0.960 . S
H616 C629 0.961 . S
H617 C629 0.959 . S
H618 C632 0.929 . S
H619 C633 0.931 . S
H620 C635 0.930 . S
C621 H609 0.930 . S
C621 C622 1.399 . S
C621 C626 1.399 . S
C622 C621 1.399 . S
C622 C623 1.376 . S
C623 H610 0.930 . S
C623 C622 1.376 . S
C623 C624 1.388 . S
C624 H611 0.930 . S
C624 C623 1.388 . S
C624 C625 1.390 . S
C625 C624 1.390 . S
C625 C626 1.394 . S
C625 C631 1.465 . S
C626 C621 1.399 . S
C626 C625 1.394 . S
C626 C627 1.516 . S
C627 C626 1.516 . S
C627 C628 1.502 . S
C627 C629 1.561 . S
C627 C630 1.526 . S
C628 H612 0.959 . S
C628 H613 0.959 . S
C628 H614 0.961 . S
C628 C627 1.502 . S
C629 H615 0.960 . S
C629 H616 0.961 . S
C629 H617 0.959 . S
C629 C627 1.561 . S
C630 C627 1.526 . S
C630 C631 1.396 . S
C630 C635 1.390 . S
C631 C625 1.465 . S
C631 C630 1.396 . S
C631 C632 1.399 . S
C632 H618 0.929 . S
C632 C631 1.399 . S
C632 C633 1.385 . S
C633 H619 0.931 . S
C633 C632 1.385 . S
C633 C634 1.389 . S
C634 C633 1.389 . S
C634 C635 1.387 . S
C635 H620 0.930 . S
C635 C630 1.390 . S
C635 C634 1.387 . S
H636 C648 0.930 . S
H637 C650 0.930 . S
H638 C651 0.930 . S
H639 C655 0.959 . S
H640 C655 0.959 . S
H641 C655 0.961 . S
H642 C656 0.960 . S
H643 C656 0.961 . S
H644 C656 0.959 . S
H645 C659 0.929 . S
H646 C660 0.931 . S
H647 C662 0.930 . S
C648 H636 0.930 . S
C648 C649 1.399 . S
C648 C653 1.399 . S
C649 C648 1.399 . S
C649 C650 1.376 . S
C650 H637 0.930 . S
C650 C649 1.376 . S
C650 C651 1.388 . S
C651 H638 0.930 . S
C651 C650 1.388 . S
C651 C652 1.390 . S
C652 C651 1.390 . S
C652 C653 1.394 . S
C652 C658 1.465 . S
C653 C648 1.399 . S
C653 C652 1.394 . S
C653 C654 1.516 . S
C654 C653 1.516 . S
C654 C655 1.502 . S
C654 C656 1.561 . S
C654 C657 1.526 . S
C655 H639 0.959 . S
C655 H640 0.959 . S
C655 H641 0.961 . S
C655 C654 1.502 . S
C656 H642 0.960 . S
C656 H643 0.961 . S
C656 H644 0.959 . S
C656 C654 1.561 . S
C657 C654 1.526 . S
C657 C658 1.396 . S
C657 C662 1.390 . S
C658 C652 1.465 . S
C658 C657 1.396 . S
C658 C659 1.399 . S
C659 H645 0.929 . S
C659 C658 1.399 . S
C659 C660 1.385 . S
C660 H646 0.931 . S
C660 C659 1.385 . S
C660 C661 1.389 . S
C661 C660 1.389 . S
C661 C662 1.387 . S
C662 H647 0.930 . S
C662 C657 1.390 . S
C662 C661 1.387 . S
H663 C675 0.930 . S
H664 C677 0.930 . S
H665 C678 0.930 . S
H666 C682 0.959 . S
H667 C682 0.959 . S
H668 C682 0.961 . S
H669 C683 0.960 . S
H670 C683 0.961 . S
H671 C683 0.959 . S
H672 C686 0.929 . S
H673 C687 0.931 . S
H674 C689 0.930 . S
C675 H663 0.930 . S
C675 C676 1.399 . S
C675 C680 1.399 . S
C676 C675 1.399 . S
C676 C677 1.376 . S
C677 H664 0.930 . S
C677 C676 1.376 . S
C677 C678 1.388 . S
C678 H665 0.930 . S
C678 C677 1.388 . S
C678 C679 1.390 . S
C679 C678 1.390 . S
C679 C680 1.394 . S
C679 C685 1.465 . S
C680 C675 1.399 . S
C680 C679 1.394 . S
C680 C681 1.516 . S
C681 C680 1.516 . S
C681 C682 1.502 . S
C681 C683 1.561 . S
C681 C684 1.526 . S
C682 H666 0.959 . S
C682 H667 0.959 . S
C682 H668 0.961 . S
C682 C681 1.502 . S
C683 H669 0.960 . S
C683 H670 0.961 . S
C683 H671 0.959 . S
C683 C681 1.561 . S
C684 C681 1.526 . S
C684 C685 1.396 . S
C684 C689 1.390 . S
C685 C679 1.465 . S
C685 C684 1.396 . S
C685 C686 1.399 . S
C686 H672 0.929 . S
C686 C685 1.399 . S
C686 C687 1.385 . S
C687 H673 0.931 . S
C687 C686 1.385 . S
C687 C688 1.389 . S
C688 C687 1.389 . S
C688 C689 1.387 . S
C689 H674 0.930 . S
C689 C684 1.390 . S
C689 C688 1.387 . S
H690 C702 0.930 . S
H691 C704 0.930 . S
H692 C705 0.930 . S
H693 C709 0.959 . S
H694 C709 0.959 . S
H695 C709 0.961 . S
H696 C710 0.960 . S
H697 C710 0.961 . S
H698 C710 0.959 . S
H699 C713 0.929 . S
H700 C714 0.931 . S
H701 C716 0.930 . S
C702 H690 0.930 . S
C702 C703 1.399 . S
C702 C707 1.399 . S
C703 C702 1.399 . S
C703 C704 1.376 . S
C704 H691 0.930 . S
C704 C703 1.376 . S
C704 C705 1.388 . S
C705 H692 0.930 . S
C705 C704 1.388 . S
C705 C706 1.390 . S
C706 C705 1.390 . S
C706 C707 1.394 . S
C706 C712 1.465 . S
C707 C702 1.399 . S
C707 C706 1.394 . S
C707 C708 1.516 . S
C708 C707 1.516 . S
C708 C709 1.502 . S
C708 C710 1.561 . S
C708 C711 1.526 . S
C709 H693 0.959 . S
C709 H694 0.959 . S
C709 H695 0.961 . S
C709 C708 1.502 . S
C710 H696 0.960 . S
C710 H697 0.961 . S
C710 H698 0.959 . S
C710 C708 1.561 . S
C711 C708 1.526 . S
C711 C712 1.396 . S
C711 C716 1.390 . S
C712 C706 1.465 . S
C712 C711 1.396 . S
C712 C713 1.399 . S
C713 H699 0.929 . S
C713 C712 1.399 . S
C713 C714 1.385 . S
C714 H700 0.931 . S
C714 C713 1.385 . S
C714 C715 1.389 . S
C715 C714 1.389 . S
C715 C716 1.387 . S
C716 H701 0.930 . S
C716 C711 1.390 . S
C716 C715 1.387 . S
H717 C729 0.930 . S
H718 C731 0.930 . S
H719 C732 0.930 . S
H720 C736 0.959 . S
H721 C736 0.959 . S
H722 C736 0.961 . S
H723 C737 0.960 . S
H724 C737 0.961 . S
H725 C737 0.959 . S
H726 C740 0.929 . S
H727 C741 0.948 . S
H728 C743 0.930 . S
C729 H717 0.930 . S
C729 C730 1.399 . S
C729 C734 1.399 . S
C730 C729 1.399 . S
C730 C731 1.376 . S
C731 H718 0.930 . S
C731 C730 1.376 . S
C731 C732 1.388 . S
C732 H719 0.930 . S
C732 C731 1.388 . S
C732 C733 1.390 . S
C733 C732 1.390 . S
C733 C734 1.394 . S
C733 C739 1.465 . S
C734 C729 1.399 . S
C734 C733 1.394 . S
C734 C735 1.516 . S
C735 C734 1.516 . S
C735 C736 1.502 . S
C735 C737 1.561 . S
C735 C738 1.526 . S
C736 H720 0.959 . S
C736 H721 0.959 . S
C736 H722 0.961 . S
C736 C735 1.502 . S
C737 H723 0.960 . S
C737 H724 0.961 . S
C737 H725 0.959 . S
C737 C735 1.561 . S
C738 C735 1.526 . S
C738 C739 1.396 . S
C738 C743 1.390 . S
C739 C733 1.465 . S
C739 C738 1.396 . S
C739 C740 1.399 . S
C740 H726 0.929 . S
C740 C739 1.399 . S
C740 C741 1.385 . S
C741 H727 0.948 . S
C741 C740 1.385 . S
C741 C742 1.389 . S
C742 C741 1.389 . S
C742 C743 1.387 . S
C743 H728 0.930 . S
C743 C738 1.390 . S
C743 C742 1.387 . S
H744 C756 0.930 . S
H745 C758 0.930 . S
H746 C759 0.930 . S
H747 C763 0.959 . S
H748 C763 0.959 . S
H749 C763 0.961 . S
H750 C764 0.960 . S
H751 C764 0.961 . S
H752 C764 0.959 . S
H753 C767 0.929 . S
H754 C768 0.931 . S
H755 C770 0.930 . S
C756 H744 0.930 . S
C756 C757 1.399 . S
C756 C761 1.399 . S
C757 C756 1.399 . S
C757 C758 1.376 . S
C758 H745 0.930 . S
C758 C757 1.376 . S
C758 C759 1.388 . S
C759 H746 0.930 . S
C759 C758 1.388 . S
C759 C760 1.390 . S
C760 C759 1.390 . S
C760 C761 1.394 . S
C760 C766 1.465 . S
C761 C756 1.399 . S
C761 C760 1.394 . S
C761 C762 1.516 . S
C762 C761 1.516 . S
C762 C763 1.502 . S
C762 C764 1.561 . S
C762 C765 1.526 . S
C763 H747 0.959 . S
C763 H748 0.959 . S
C763 H749 0.961 . S
C763 C762 1.502 . S
C764 H750 0.960 . S
C764 H751 0.961 . S
C764 H752 0.959 . S
C764 C762 1.561 . S
C765 C762 1.526 . S
C765 C766 1.396 . S
C765 C770 1.390 . S
C766 C760 1.465 . S
C766 C765 1.396 . S
C766 C767 1.399 . S
C767 H753 0.929 . S
C767 C766 1.399 . S
C767 C768 1.385 . S
C768 H754 0.931 . S
C768 C767 1.385 . S
C768 C769 1.389 . S
C769 C768 1.389 . S
C769 C770 1.387 . S
C770 H755 0.930 . S
C770 C765 1.390 . S
C770 C769 1.387 . S
H771 C783 0.930 . S
H772 C785 0.930 . S
H773 C786 0.930 . S
H774 C790 0.959 . S
H775 C790 0.959 . S
H776 C790 0.961 . S
H777 C791 0.960 . S
H778 C791 0.961 . S
H779 C791 0.959 . S
H780 C794 0.929 . S
H781 C795 0.931 . S
H782 C797 0.930 . S
C783 H771 0.930 . S
C783 C784 1.399 . S
C783 C788 1.399 . S
C784 C783 1.399 . S
C784 C785 1.376 . S
C785 H772 0.930 . S
C785 C784 1.376 . S
C785 C786 1.388 . S
C786 H773 0.930 . S
C786 C785 1.388 . S
C786 C787 1.390 . S
C787 C786 1.390 . S
C787 C788 1.394 . S
C787 C793 1.465 . S
C788 C783 1.399 . S
C788 C787 1.394 . S
C788 C789 1.516 . S
C789 C788 1.516 . S
C789 C790 1.502 . S
C789 C791 1.561 . S
C789 C792 1.526 . S
C790 H774 0.959 . S
C790 H775 0.959 . S
C790 H776 0.961 . S
C790 C789 1.502 . S
C791 H777 0.960 . S
C791 H778 0.961 . S
C791 H779 0.959 . S
C791 C789 1.561 . S
C792 C789 1.526 . S
C792 C793 1.396 . S
C792 C797 1.390 . S
C793 C787 1.465 . S
C793 C792 1.396 . S
C793 C794 1.399 . S
C794 H780 0.929 . S
C794 C793 1.399 . S
C794 C795 1.385 . S
C795 H781 0.931 . S
C795 C794 1.385 . S
C795 C796 1.389 . S
C796 C795 1.389 . S
C796 C797 1.387 . S
C797 H782 0.930 . S
C797 C792 1.390 . S
C797 C796 1.387 . S
H798 C810 0.930 . S
H799 C812 0.930 . S
H800 C813 0.930 . S
H801 C817 0.959 . S
H802 C817 0.959 . S
H803 C817 0.961 . S
H804 C818 0.960 . S
H805 C818 0.961 . S
H806 C818 0.959 . S
H807 C821 0.929 . S
H808 C822 0.931 . S
H809 C824 0.930 . S
C810 H798 0.930 . S
C810 C811 1.399 . S
C810 C815 1.399 . S
C811 C810 1.399 . S
C811 C812 1.376 . S
C812 H799 0.930 . S
C812 C811 1.376 . S
C812 C813 1.388 . S
C813 H800 0.930 . S
C813 C812 1.388 . S
C813 C814 1.390 . S
C814 C813 1.390 . S
C814 C815 1.394 . S
C814 C820 1.465 . S
C815 C810 1.399 . S
C815 C814 1.394 . S
C815 C816 1.516 . S
C816 C815 1.516 . S
C816 C817 1.502 . S
C816 C818 1.561 . S
C816 C819 1.526 . S
C817 H801 0.959 . S
C817 H802 0.959 . S
C817 H803 0.961 . S
C817 C816 1.502 . S
C818 H804 0.960 . S
C818 H805 0.961 . S
C818 H806 0.959 . S
C818 C816 1.561 . S
C819 C816 1.526 . S
C819 C820 1.396 . S
C819 C824 1.390 . S
C820 C814 1.465 . S
C820 C819 1.396 . S
C820 C821 1.399 . S
C821 H807 0.929 . S
C821 C820 1.399 . S
C821 C822 1.385 . S
C822 H808 0.931 . S
C822 C821 1.385 . S
C822 C823 1.389 . S
C823 C822 1.389 . S
C823 C824 1.387 . S
C824 H809 0.930 . S
C824 C819 1.390 . S
C824 C823 1.387 . S
H825 C837 0.930 . S
H826 C839 0.930 . S
H827 C840 0.930 . S
H828 C844 0.959 . S
H829 C844 0.959 . S
H830 C844 0.961 . S
H831 C845 0.960 . S
H832 C845 0.961 . S
H833 C845 0.959 . S
H834 C848 0.929 . S
H835 C849 0.931 . S
H836 C851 0.930 . S
C837 H825 0.930 . S
C837 C838 1.399 . S
C837 C842 1.399 . S
C838 C837 1.399 . S
C838 C839 1.376 . S
C839 H826 0.930 . S
C839 C838 1.376 . S
C839 C840 1.388 . S
C840 H827 0.930 . S
C840 C839 1.388 . S
C840 C841 1.390 . S
C841 C840 1.390 . S
C841 C842 1.394 . S
C841 C847 1.465 . S
C842 C837 1.399 . S
C842 C841 1.394 . S
C842 C843 1.516 . S
C843 C842 1.516 . S
C843 C844 1.502 . S
C843 C845 1.561 . S
C843 C846 1.526 . S
C844 H828 0.959 . S
C844 H829 0.959 . S
C844 H830 0.961 . S
C844 C843 1.502 . S
C845 H831 0.960 . S
C845 H832 0.961 . S
C845 H833 0.959 . S
C845 C843 1.561 . S
C846 C843 1.526 . S
C846 C847 1.396 . S
C846 C851 1.390 . S
C847 C841 1.465 . S
C847 C846 1.396 . S
C847 C848 1.399 . S
C848 H834 0.929 . S
C848 C847 1.399 . S
C848 C849 1.385 . S
C849 H835 0.931 . S
C849 C848 1.385 . S
C849 C850 1.389 . S
C850 C849 1.389 . S
C850 C851 1.387 . S
C851 H836 0.930 . S
C851 C846 1.390 . S
C851 C850 1.387 . S
H852 C864 0.930 . S
H853 C866 0.930 . S
H854 C867 0.930 . S
H855 C871 0.959 . S
H856 C871 0.959 . S
H857 C871 0.961 . S
H858 C872 0.960 . S
H859 C872 0.961 . S
H860 C872 0.959 . S
H861 C875 0.929 . S
H862 C876 0.931 . S
H863 C878 0.930 . S
C864 H852 0.930 . S
C864 C865 1.399 . S
C864 C869 1.399 . S
C865 C864 1.399 . S
C865 C866 1.376 . S
C866 H853 0.930 . S
C866 C865 1.376 . S
C866 C867 1.388 . S
C867 H854 0.930 . S
C867 C866 1.388 . S
C867 C868 1.390 . S
C868 C867 1.390 . S
C868 C869 1.394 . S
C868 C874 1.465 . S
C869 C864 1.399 . S
C869 C868 1.394 . S
C869 C870 1.516 . S
C870 C869 1.516 . S
C870 C871 1.502 . S
C870 C872 1.561 . S
C870 C873 1.526 . S
C871 H855 0.959 . S
C871 H856 0.959 . S
C871 H857 0.961 . S
C871 C870 1.502 . S
C872 H858 0.960 . S
C872 H859 0.961 . S
C872 H860 0.959 . S
C872 C870 1.561 . S
C873 C870 1.526 . S
C873 C874 1.396 . S
C873 C878 1.390 . S
C874 C868 1.465 . S
C874 C873 1.396 . S
C874 C875 1.399 . S
C875 H861 0.929 . S
C875 C874 1.399 . S
C875 C876 1.385 . S
C876 H862 0.931 . S
C876 C875 1.385 . S
C876 C877 1.389 . S
C877 C876 1.389 . S
C877 C878 1.387 . S
C878 H863 0.930 . S
C878 C873 1.390 . S
C878 C877 1.387 . S
H879 C891 0.930 . S
H880 C893 0.930 . S
H881 C894 0.930 . S
H882 C898 0.959 . S
H883 C898 0.959 . S
H884 C898 0.961 . S
H885 C899 0.960 . S
H886 C899 0.961 . S
H887 C899 0.959 . S
H888 C902 0.929 . S
H889 C903 0.931 . S
H890 C905 0.930 . S
C891 H879 0.930 . S
C891 C892 1.399 . S
C891 C896 1.399 . S
C892 C891 1.399 . S
C892 C893 1.376 . S
C893 H880 0.930 . S
C893 C892 1.376 . S
C893 C894 1.388 . S
C894 H881 0.930 . S
C894 C893 1.388 . S
C894 C895 1.390 . S
C895 C894 1.390 . S
C895 C896 1.394 . S
C895 C901 1.465 . S
C896 C891 1.399 . S
C896 C895 1.394 . S
C896 C897 1.516 . S
C897 C896 1.516 . S
C897 C898 1.502 . S
C897 C899 1.561 . S
C897 C900 1.526 . S
C898 H882 0.959 . S
C898 H883 0.959 . S
C898 H884 0.961 . S
C898 C897 1.502 . S
C899 H885 0.960 . S
C899 H886 0.961 . S
C899 H887 0.959 . S
C899 C897 1.561 . S
C900 C897 1.526 . S
C900 C901 1.396 . S
C900 C905 1.390 . S
C901 C895 1.465 . S
C901 C900 1.396 . S
C901 C902 1.399 . S
C902 H888 0.929 . S
C902 C901 1.399 . S
C902 C903 1.385 . S
C903 H889 0.931 . S
C903 C902 1.385 . S
C903 C904 1.389 . S
C904 C903 1.389 . S
C904 C905 1.387 . S
C905 H890 0.930 . S
C905 C900 1.390 . S
C905 C904 1.387 . S
H906 C918 0.930 . S
H907 C920 0.930 . S
H908 C921 0.930 . S
H909 C925 0.959 . S
H910 C925 0.959 . S
H911 C925 0.961 . S
H912 C926 0.960 . S
H913 C926 0.961 . S
H914 C926 0.959 . S
H915 C929 0.929 . S
H916 C930 0.931 . S
H917 C932 0.930 . S
C918 H906 0.930 . S
C918 C919 1.399 . S
C918 C923 1.399 . S
C919 C918 1.399 . S
C919 C920 1.376 . S
C920 H907 0.930 . S
C920 C919 1.376 . S
C920 C921 1.388 . S
C921 H908 0.930 . S
C921 C920 1.388 . S
C921 C922 1.390 . S
C922 C921 1.390 . S
C922 C923 1.394 . S
C922 C928 1.465 . S
C923 C918 1.399 . S
C923 C922 1.394 . S
C923 C924 1.516 . S
C924 C923 1.516 . S
C924 C925 1.502 . S
C924 C926 1.561 . S
C924 C927 1.526 . S
C925 H909 0.959 . S
C925 H910 0.959 . S
C925 H911 0.961 . S
C925 C924 1.502 . S
C926 H912 0.960 . S
C926 H913 0.961 . S
C926 H914 0.959 . S
C926 C924 1.561 . S
C927 C924 1.526 . S
C927 C928 1.396 . S
C927 C932 1.390 . S
C928 C922 1.465 . S
C928 C927 1.396 . S
C928 C929 1.399 . S
C929 H915 0.929 . S
C929 C928 1.399 . S
C929 C930 1.385 . S
C930 H916 0.931 . S
C930 C929 1.385 . S
C930 C931 1.389 . S
C931 C930 1.389 . S
C931 C932 1.387 . S
C932 H917 0.930 . S
C932 C927 1.390 . S
C932 C931 1.387 . S
H933 C945 0.930 . S
H934 C947 0.930 . S
H935 C948 0.930 . S
H936 C952 0.959 . S
H937 C952 0.959 . S
H938 C952 0.961 . S
H939 C953 0.960 . S
H940 C953 0.961 . S
H941 C953 0.959 . S
H942 C956 0.929 . S
H943 C957 0.931 . S
H944 C959 0.930 . S
C945 H933 0.930 . S
C945 C946 1.399 . S
C945 C950 1.399 . S
C946 C945 1.399 . S
C946 C947 1.376 . S
C947 H934 0.930 . S
C947 C946 1.376 . S
C947 C948 1.388 . S
C948 H935 0.930 . S
C948 C947 1.388 . S
C948 C949 1.390 . S
C949 C948 1.390 . S
C949 C950 1.394 . S
C949 C955 1.465 . S
C950 C945 1.399 . S
C950 C949 1.394 . S
C950 C951 1.516 . S
C951 C950 1.516 . S
C951 C952 1.502 . S
C951 C953 1.561 . S
C951 C954 1.526 . S
C952 H936 0.959 . S
C952 H937 0.959 . S
C952 H938 0.961 . S
C952 C951 1.502 . S
C953 H939 0.960 . S
C953 H940 0.961 . S
C953 H941 0.959 . S
C953 C951 1.561 . S
C954 C951 1.526 . S
C954 C955 1.396 . S
C954 C959 1.390 . S
C955 C949 1.465 . S
C955 C954 1.396 . S
C955 C956 1.399 . S
C956 H942 0.929 . S
C956 C955 1.399 . S
C956 C957 1.385 . S
C957 H943 0.931 . S
C957 C956 1.385 . S
C957 C958 1.389 . S
C958 C957 1.389 . S
C958 C959 1.387 . S
C959 H944 0.930 . S
C959 C954 1.390 . S
C959 C958 1.387 . S
H960 C972 0.930 . S
H961 C974 0.930 . S
H962 C975 0.930 . S
H963 C979 0.959 . S
H964 C979 0.959 . S
H965 C979 0.961 . S
H966 C980 0.960 . S
H967 C980 0.961 . S
H968 C980 0.959 . S
H969 C983 0.929 . S
H970 C984 0.931 . S
H971 C986 0.930 . S
C972 H960 0.930 . S
C972 C973 1.399 . S
C972 C977 1.399 . S
C973 C972 1.399 . S
C973 C974 1.376 . S
C974 H961 0.930 . S
C974 C973 1.376 . S
C974 C975 1.388 . S
C975 H962 0.930 . S
C975 C974 1.388 . S
C975 C976 1.390 . S
C976 C975 1.390 . S
C976 C977 1.394 . S
C976 C982 1.465 . S
C977 C972 1.399 . S
C977 C976 1.394 . S
C977 C978 1.516 . S
C978 C977 1.516 . S
C978 C979 1.502 . S
C978 C980 1.561 . S
C978 C981 1.526 . S
C979 H963 0.959 . S
C979 H964 0.959 . S
C979 H965 0.961 . S
C979 C978 1.502 . S
C980 H966 0.960 . S
C980 H967 0.961 . S
C980 H968 0.959 . S
C980 C978 1.561 . S
C981 C978 1.526 . S
C981 C982 1.396 . S
C981 C986 1.390 . S
C982 C976 1.465 . S
C982 C981 1.396 . S
C982 C983 1.399 . S
C983 H969 0.929 . S
C983 C982 1.399 . S
C983 C984 1.385 . S
C984 H970 0.931 . S
C984 C983 1.385 . S
C984 C985 1.389 . S
C985 C984 1.389 . S
C985 C986 1.387 . S
C986 H971 0.930 . S
C986 C981 1.390 . S
C986 C985 1.387 . S
H987 C999 0.930 . S
H988 C1001 0.930 . S
H989 C1002 0.930 . S
H990 C1006 0.959 . S
H991 C1006 0.959 . S
H992 C1006 0.961 . S
H993 C1007 0.960 . S
H994 C1007 0.961 . S
H995 C1007 0.959 . S
H996 C1010 0.929 . S
H997 C1011 0.931 . S
H998 C1013 0.930 . S
C999 H987 0.930 . S
C999 C1000 1.399 . S
C999 C1004 1.399 . S
C1000 C999 1.399 . S
C1000 C1001 1.376 . S
C1001 H988 0.930 . S
C1001 C1000 1.376 . S
C1001 C1002 1.388 . S
C1002 H989 0.930 . S
C1002 C1001 1.388 . S
C1002 C1003 1.390 . S
C1003 C1002 1.390 . S
C1003 C1004 1.394 . S
C1003 C1009 1.465 . S
C1004 C999 1.399 . S
C1004 C1003 1.394 . S
C1004 C1005 1.516 . S
C1005 C1004 1.516 . S
C1005 C1006 1.502 . S
C1005 C1007 1.561 . S
C1005 C1008 1.526 . S
C1006 H990 0.959 . S
C1006 H991 0.959 . S
C1006 H992 0.961 . S
C1006 C1005 1.502 . S
C1007 H993 0.960 . S
C1007 H994 0.961 . S
C1007 H995 0.959 . S
C1007 C1005 1.561 . S
C1008 C1005 1.526 . S
C1008 C1009 1.396 . S
C1008 C1013 1.390 . S
C1009 C1003 1.465 . S
C1009 C1008 1.396 . S
C1009 C1010 1.399 . S
C1010 H996 0.929 . S
C1010 C1009 1.399 . S
C1010 C1011 1.385 . S
C1011 H997 0.931 . S
C1011 C1010 1.385 . S
C1011 C1012 1.389 . S
C1012 C1011 1.389 . S
C1012 C1013 1.387 . S
C1013 H998 0.930 . S
C1013 C1008 1.390 . S
C1013 C1012 1.387 . S
H1014 C1026 0.930 . S
H1015 C1028 0.930 . S
H1016 C1029 0.930 . S
H1017 C1033 0.959 . S
H1018 C1033 0.959 . S
H1019 C1033 0.961 . S
H1020 C1034 0.960 . S
H1021 C1034 0.961 . S
H1022 C1034 0.959 . S
H1023 C1037 0.929 . S
H1024 C1038 0.931 . S
H1025 C1040 0.930 . S
C1026 H1014 0.930 . S
C1026 C1027 1.399 . S
C1026 C1031 1.399 . S
C1027 C1026 1.399 . S
C1027 C1028 1.376 . S
C1028 H1015 0.930 . S
C1028 C1027 1.376 . S
C1028 C1029 1.388 . S
C1029 H1016 0.930 . S
C1029 C1028 1.388 . S
C1029 C1030 1.390 . S
C1030 C1029 1.390 . S
C1030 C1031 1.394 . S
C1030 C1036 1.465 . S
C1031 C1026 1.399 . S
C1031 C1030 1.394 . S
C1031 C1032 1.516 . S
C1032 C1031 1.516 . S
C1032 C1033 1.502 . S
C1032 C1034 1.561 . S
C1032 C1035 1.526 . S
C1033 H1017 0.959 . S
C1033 H1018 0.959 . S
C1033 H1019 0.961 . S
C1033 C1032 1.502 . S
C1034 H1020 0.960 . S
C1034 H1021 0.961 . S
C1034 H1022 0.959 . S
C1034 C1032 1.561 . S
C1035 C1032 1.526 . S
C1035 C1036 1.396 . S
C1035 C1040 1.390 . S
C1036 C1030 1.465 . S
C1036 C1035 1.396 . S
C1036 C1037 1.399 . S
C1037 H1023 0.929 . S
C1037 C1036 1.399 . S
C1037 C1038 1.385 . S
C1038 H1024 0.931 . S
C1038 C1037 1.385 . S
C1038 C1039 1.389 . S
C1039 C1038 1.389 . S
C1039 C1040 1.387 . S
C1040 H1025 0.930 . S
C1040 C1035 1.390 . S
C1040 C1039 1.387 . S
H1041 C1053 0.930 . S
H1042 C1055 0.930 . S
H1043 C1056 0.930 . S
H1044 C1060 0.959 . S
H1045 C1060 0.959 . S
H1046 C1060 0.961 . S
H1047 C1061 0.960 . S
H1048 C1061 0.961 . S
H1049 C1061 0.959 . S
H1050 C1064 0.929 . S
H1051 C1065 0.931 . S
H1052 C1067 0.930 . S
C1053 H1041 0.930 . S
C1053 C1054 1.399 . S
C1053 C1058 1.399 . S
C1054 C1053 1.399 . S
C1054 C1055 1.376 . S
C1055 H1042 0.930 . S
C1055 C1054 1.376 . S
C1055 C1056 1.388 . S
C1056 H1043 0.930 . S
C1056 C1055 1.388 . S
C1056 C1057 1.390 . S
C1057 C1056 1.390 . S
C1057 C1058 1.394 . S
C1057 C1063 1.465 . S
C1058 C1053 1.399 . S
C1058 C1057 1.394 . S
C1058 C1059 1.516 . S
C1059 C1058 1.516 . S
C1059 C1060 1.502 . S
C1059 C1061 1.561 . S
C1059 C1062 1.526 . S
C1060 H1044 0.959 . S
C1060 H1045 0.959 . S
C1060 H1046 0.961 . S
C1060 C1059 1.502 . S
C1061 H1047 0.960 . S
C1061 H1048 0.961 . S
C1061 H1049 0.959 . S
C1061 C1059 1.561 . S
C1062 C1059 1.526 . S
C1062 C1063 1.396 . S
C1062 C1067 1.390 . S
C1063 C1057 1.465 . S
C1063 C1062 1.396 . S
C1063 C1064 1.399 . S
C1064 H1050 0.929 . S
C1064 C1063 1.399 . S
C1064 C1065 1.385 . S
C1065 H1051 0.931 . S
C1065 C1064 1.385 . S
C1065 C1066 1.389 . S
C1066 C1065 1.389 . S
C1066 C1067 1.387 . S
C1067 H1052 0.930 . S
C1067 C1062 1.390 . S
C1067 C1066 1.387 . S
H1068 C1080 0.930 . S
H1069 C1082 0.930 . S
H1070 C1083 0.930 . S
H1071 C1087 0.959 . S
H1072 C1087 0.959 . S
H1073 C1087 0.961 . S
H1074 C1088 0.960 . S
H1075 C1088 0.961 . S
H1076 C1088 0.959 . S
H1077 C1091 0.929 . S
H1078 C1092 0.931 . S
H1079 C1094 0.930 . S
C1080 H1068 0.930 . S
C1080 C1081 1.399 . S
C1080 C1085 1.399 . S
C1081 C1080 1.399 . S
C1081 C1082 1.376 . S
C1082 H1069 0.930 . S
C1082 C1081 1.376 . S
C1082 C1083 1.388 . S
C1083 H1070 0.930 . S
C1083 C1082 1.388 . S
C1083 C1084 1.390 . S
C1084 C1083 1.390 . S
C1084 C1085 1.394 . S
C1084 C1090 1.465 . S
C1085 C1080 1.399 . S
C1085 C1084 1.394 . S
C1085 C1086 1.516 . S
C1086 C1085 1.516 . S
C1086 C1087 1.502 . S
C1086 C1088 1.561 . S
C1086 C1089 1.526 . S
C1087 H1071 0.959 . S
C1087 H1072 0.959 . S
C1087 H1073 0.961 . S
C1087 C1086 1.502 . S
C1088 H1074 0.960 . S
C1088 H1075 0.961 . S
C1088 H1076 0.959 . S
C1088 C1086 1.561 . S
C1089 C1086 1.526 . S
C1089 C1090 1.396 . S
C1089 C1094 1.390 . S
C1090 C1084 1.465 . S
C1090 C1089 1.396 . S
C1090 C1091 1.399 . S
C1091 H1077 0.929 . S
C1091 C1090 1.399 . S
C1091 C1092 1.385 . S
C1092 H1078 0.931 . S
C1092 C1091 1.385 . S
C1092 C1093 1.389 . S
C1093 C1092 1.389 . S
C1093 C1094 1.387 . S
C1094 H1079 0.930 . S
C1094 C1089 1.390 . S
C1094 C1093 1.387 . S
H1095 C1107 0.930 . S
H1096 C1109 0.930 . S
H1097 C1110 0.930 . S
H1098 C1114 0.959 . S
H1099 C1114 0.959 . S
H1100 C1114 0.961 . S
H1101 C1115 0.960 . S
H1102 C1115 0.961 . S
H1103 C1115 0.959 . S
H1104 C1118 0.929 . S
H1105 C1119 0.931 . S
H1106 C1121 0.930 . S
C1107 H1095 0.930 . S
C1107 C1108 1.399 . S
C1107 C1112 1.399 . S
C1108 C1107 1.399 . S
C1108 C1109 1.376 . S
C1109 H1096 0.930 . S
C1109 C1108 1.376 . S
C1109 C1110 1.388 . S
C1110 H1097 0.930 . S
C1110 C1109 1.388 . S
C1110 C1111 1.390 . S
C1111 C1110 1.390 . S
C1111 C1112 1.394 . S
C1111 C1117 1.465 . S
C1112 C1107 1.399 . S
C1112 C1111 1.394 . S
C1112 C1113 1.516 . S
C1113 C1112 1.516 . S
C1113 C1114 1.502 . S
C1113 C1115 1.561 . S
C1113 C1116 1.526 . S
C1114 H1098 0.959 . S
C1114 H1099 0.959 . S
C1114 H1100 0.961 . S
C1114 C1113 1.502 . S
C1115 H1101 0.960 . S
C1115 H1102 0.961 . S
C1115 H1103 0.959 . S
C1115 C1113 1.561 . S
C1116 C1113 1.526 . S
C1116 C1117 1.396 . S
C1116 C1121 1.390 . S
C1117 C1111 1.465 . S
C1117 C1116 1.396 . S
C1117 C1118 1.399 . S
C1118 H1104 0.929 . S
C1118 C1117 1.399 . S
C1118 C1119 1.385 . S
C1119 H1105 0.931 . S
C1119 C1118 1.385 . S
C1119 C1120 1.389 . S
C1120 C1119 1.389 . S
C1120 C1121 1.387 . S
C1121 H1106 0.930 . S
C1121 C1116 1.390 . S
C1121 C1120 1.387 . S
H1122 C1134 0.930 . S
H1123 C1136 0.930 . S
H1124 C1137 0.930 . S
H1125 C1141 0.959 . S
H1126 C1141 0.959 . S
H1127 C1141 0.961 . S
H1128 C1142 0.960 . S
H1129 C1142 0.961 . S
H1130 C1142 0.959 . S
H1131 C1145 0.929 . S
H1132 C1146 0.931 . S
H1133 C1148 0.930 . S
C1134 H1122 0.930 . S
C1134 C1135 1.399 . S
C1134 C1139 1.399 . S
C1135 C1134 1.399 . S
C1135 C1136 1.376 . S
C1136 H1123 0.930 . S
C1136 C1135 1.376 . S
C1136 C1137 1.388 . S
C1137 H1124 0.930 . S
C1137 C1136 1.388 . S
C1137 C1138 1.390 . S
C1138 C1137 1.390 . S
C1138 C1139 1.394 . S
C1138 C1144 1.465 . S
C1139 C1134 1.399 . S
C1139 C1138 1.394 . S
C1139 C1140 1.516 . S
C1140 C1139 1.516 . S
C1140 C1141 1.502 . S
C1140 C1142 1.561 . S
C1140 C1143 1.526 . S
C1141 H1125 0.959 . S
C1141 H1126 0.959 . S
C1141 H1127 0.961 . S
C1141 C1140 1.502 . S
C1142 H1128 0.960 . S
C1142 H1129 0.961 . S
C1142 H1130 0.959 . S
C1142 C1140 1.561 . S
C1143 C1140 1.526 . S
C1143 C1144 1.396 . S
C1143 C1148 1.390 . S
C1144 C1138 1.465 . S
C1144 C1143 1.396 . S
C1144 C1145 1.399 . S
C1145 H1131 0.929 . S
C1145 C1144 1.399 . S
C1145 C1146 1.385 . S
C1146 H1132 0.931 . S
C1146 C1145 1.385 . S
C1146 C1147 1.389 . S
C1147 C1146 1.389 . S
C1147 C1148 1.387 . S
C1148 H1133 0.930 . S
C1148 C1143 1.390 . S
C1148 C1147 1.387 . S
H1149 C1161 0.930 . S
H1150 C1163 0.930 . S
H1151 C1164 0.930 . S
H1152 C1168 0.959 . S
H1153 C1168 0.959 . S
H1154 C1168 0.961 . S
H1155 C1169 0.960 . S
H1156 C1169 0.961 . S
H1157 C1169 0.959 . S
H1158 C1172 0.929 . S
H1159 C1173 0.931 . S
H1160 C1175 0.930 . S
C1161 H1149 0.930 . S
C1161 C1162 1.399 . S
C1161 C1166 1.399 . S
C1162 C1161 1.399 . S
C1162 C1163 1.376 . S
C1163 H1150 0.930 . S
C1163 C1162 1.376 . S
C1163 C1164 1.388 . S
C1164 H1151 0.930 . S
C1164 C1163 1.388 . S
C1164 C1165 1.390 . S
C1165 C1164 1.390 . S
C1165 C1166 1.394 . S
C1165 C1171 1.465 . S
C1166 C1161 1.399 . S
C1166 C1165 1.394 . S
C1166 C1167 1.516 . S
C1167 C1166 1.516 . S
C1167 C1168 1.502 . S
C1167 C1169 1.561 . S
C1167 C1170 1.526 . S
C1168 H1152 0.959 . S
C1168 H1153 0.959 . S
C1168 H1154 0.961 . S
C1168 C1167 1.502 . S
C1169 H1155 0.960 . S
C1169 H1156 0.961 . S
C1169 H1157 0.959 . S
C1169 C1167 1.561 . S
C1170 C1167 1.526 . S
C1170 C1171 1.396 . S
C1170 C1175 1.390 . S
C1171 C1165 1.465 . S
C1171 C1170 1.396 . S
C1171 C1172 1.399 . S
C1172 H1158 0.929 . S
C1172 C1171 1.399 . S
C1172 C1173 1.385 . S
C1173 H1159 0.931 . S
C1173 C1172 1.385 . S
C1173 C1174 1.389 . S
C1174 C1173 1.389 . S
C1174 C1175 1.387 . S
C1175 H1160 0.930 . S
C1175 C1170 1.390 . S
C1175 C1174 1.387 . S
H1176 C1188 0.930 . S
H1177 C1190 0.930 . S
H1178 C1191 0.930 . S
H1179 C1195 0.959 . S
H1180 C1195 0.959 . S
H1181 C1195 0.961 . S
H1182 C1196 0.960 . S
H1183 C1196 0.961 . S
H1184 C1196 0.959 . S
H1185 C1199 0.929 . S
H1186 C1200 0.931 . S
H1187 C1202 0.930 . S
C1188 H1176 0.930 . S
C1188 C1189 1.399 . S
C1188 C1193 1.399 . S
C1189 C1188 1.399 . S
C1189 C1190 1.376 . S
C1190 H1177 0.930 . S
C1190 C1189 1.376 . S
C1190 C1191 1.388 . S
C1191 H1178 0.930 . S
C1191 C1190 1.388 . S
C1191 C1192 1.390 . S
C1192 C1191 1.390 . S
C1192 C1193 1.394 . S
C1192 C1198 1.465 . S
C1193 C1188 1.399 . S
C1193 C1192 1.394 . S
C1193 C1194 1.516 . S
C1194 C1193 1.516 . S
C1194 C1195 1.502 . S
C1194 C1196 1.561 . S
C1194 C1197 1.526 . S
C1195 H1179 0.959 . S
C1195 H1180 0.959 . S
C1195 H1181 0.961 . S
C1195 C1194 1.502 . S
C1196 H1182 0.960 . S
C1196 H1183 0.961 . S
C1196 H1184 0.959 . S
C1196 C1194 1.561 . S
C1197 C1194 1.526 . S
C1197 C1198 1.396 . S
C1197 C1202 1.390 . S
C1198 C1192 1.465 . S
C1198 C1197 1.396 . S
C1198 C1199 1.399 . S
C1199 H1185 0.929 . S
C1199 C1198 1.399 . S
C1199 C1200 1.385 . S
C1200 H1186 0.931 . S
C1200 C1199 1.385 . S
C1200 C1201 1.389 . S
C1201 C1200 1.389 . S
C1201 C1202 1.387 . S
C1202 H1187 0.930 . S
C1202 C1197 1.390 . S
C1202 C1201 1.387 . S
H1203 C1215 0.930 . S
H1204 C1217 0.930 . S
H1205 C1218 0.930 . S
H1206 C1222 0.959 . S
H1207 C1222 0.959 . S
H1208 C1222 0.961 . S
H1209 C1223 0.960 . S
H1210 C1223 0.961 . S
H1211 C1223 0.959 . S
H1212 C1226 0.929 . S
H1213 C1227 0.931 . S
H1214 C1229 0.930 . S
C1215 H1203 0.930 . S
C1215 C1216 1.399 . S
C1215 C1220 1.399 . S
C1216 C1215 1.399 . S
C1216 C1217 1.376 . S
C1217 H1204 0.930 . S
C1217 C1216 1.376 . S
C1217 C1218 1.388 . S
C1218 H1205 0.930 . S
C1218 C1217 1.388 . S
C1218 C1219 1.390 . S
C1219 C1218 1.390 . S
C1219 C1220 1.394 . S
C1219 C1225 1.465 . S
C1220 C1215 1.399 . S
C1220 C1219 1.394 . S
C1220 C1221 1.516 . S
C1221 C1220 1.516 . S
C1221 C1222 1.502 . S
C1221 C1223 1.561 . S
C1221 C1224 1.526 . S
C1222 H1206 0.959 . S
C1222 H1207 0.959 . S
C1222 H1208 0.961 . S
C1222 C1221 1.502 . S
C1223 H1209 0.960 . S
C1223 H1210 0.961 . S
C1223 H1211 0.959 . S
C1223 C1221 1.561 . S
C1224 C1221 1.526 . S
C1224 C1225 1.396 . S
C1224 C1229 1.390 . S
C1225 C1219 1.465 . S
C1225 C1224 1.396 . S
C1225 C1226 1.399 . S
C1226 H1212 0.929 . S
C1226 C1225 1.399 . S
C1226 C1227 1.385 . S
C1227 H1213 0.931 . S
C1227 C1226 1.385 . S
C1227 C1228 1.389 . S
C1228 C1227 1.389 . S
C1228 C1229 1.387 . S
C1229 H1214 0.930 . S
C1229 C1224 1.390 . S
C1229 C1228 1.387 . S
H1230 C1242 0.930 . S
H1231 C1244 0.930 . S
H1232 C1245 0.930 . S
H1233 C1249 0.959 . S
H1234 C1249 0.959 . S
H1235 C1249 0.961 . S
H1236 C1250 0.960 . S
H1237 C1250 0.961 . S
H1238 C1250 0.959 . S
H1239 C1253 0.929 . S
H1240 C1254 0.931 . S
H1241 C1256 0.930 . S
C1242 H1230 0.930 . S
C1242 C1243 1.399 . S
C1242 C1247 1.399 . S
C1243 C1242 1.399 . S
C1243 C1244 1.376 . S
C1244 H1231 0.930 . S
C1244 C1243 1.376 . S
C1244 C1245 1.388 . S
C1245 H1232 0.930 . S
C1245 C1244 1.388 . S
C1245 C1246 1.390 . S
C1246 C1245 1.390 . S
C1246 C1247 1.394 . S
C1246 C1252 1.465 . S
C1247 C1242 1.399 . S
C1247 C1246 1.394 . S
C1247 C1248 1.516 . S
C1248 C1247 1.516 . S
C1248 C1249 1.502 . S
C1248 C1250 1.561 . S
C1248 C1251 1.526 . S
C1249 H1233 0.959 . S
C1249 H1234 0.959 . S
C1249 H1235 0.961 . S
C1249 C1248 1.502 . S
C1250 H1236 0.960 . S
C1250 H1237 0.961 . S
C1250 H1238 0.959 . S
C1250 C1248 1.561 . S
C1251 C1248 1.526 . S
C1251 C1252 1.396 . S
C1251 C1256 1.390 . S
C1252 C1246 1.465 . S
C1252 C1251 1.396 . S
C1252 C1253 1.399 . S
C1253 H1239 0.929 . S
C1253 C1252 1.399 . S
C1253 C1254 1.385 . S
C1254 H1240 0.931 . S
C1254 C1253 1.385 . S
C1254 C1255 1.389 . S
C1255 C1254 1.389 . S
C1255 C1256 1.387 . S
C1256 H1241 0.930 . S
C1256 C1251 1.390 . S
C1256 C1255 1.387 . S
H1257 C1269 0.930 . S
H1258 C1271 0.930 . S
H1259 C1272 0.930 . S
H1260 C1276 0.959 . S
H1261 C1276 0.959 . S
H1262 C1276 0.961 . S
H1263 C1277 0.960 . S
H1264 C1277 0.961 . S
H1265 C1277 0.959 . S
H1266 C1280 0.929 . S
H1267 C1281 0.931 . S
H1268 C1283 0.930 . S
C1269 H1257 0.930 . S
C1269 C1270 1.399 . S
C1269 C1274 1.399 . S
C1270 C1269 1.399 . S
C1270 C1271 1.376 . S
C1271 H1258 0.930 . S
C1271 C1270 1.376 . S
C1271 C1272 1.388 . S
C1272 H1259 0.930 . S
C1272 C1271 1.388 . S
C1272 C1273 1.390 . S
C1273 C1272 1.390 . S
C1273 C1274 1.394 . S
C1273 C1279 1.465 . S
C1274 C1269 1.399 . S
C1274 C1273 1.394 . S
C1274 C1275 1.516 . S
C1275 C1274 1.516 . S
C1275 C1276 1.502 . S
C1275 C1277 1.561 . S
C1275 C1278 1.526 . S
C1276 H1260 0.959 . S
C1276 H1261 0.959 . S
C1276 H1262 0.961 . S
C1276 C1275 1.502 . S
C1277 H1263 0.960 . S
C1277 H1264 0.961 . S
C1277 H1265 0.959 . S
C1277 C1275 1.561 . S
C1278 C1275 1.526 . S
C1278 C1279 1.396 . S
C1278 C1283 1.390 . S
C1279 C1273 1.465 . S
C1279 C1278 1.396 . S
C1279 C1280 1.399 . S
C1280 H1266 0.929 . S
C1280 C1279 1.399 . S
C1280 C1281 1.385 . S
C1281 H1267 0.931 . S
C1281 C1280 1.385 . S
C1281 C1282 1.389 . S
C1282 C1281 1.389 . S
C1282 C1283 1.387 . S
C1283 H1268 0.930 . S
C1283 C1278 1.390 . S
C1283 C1282 1.387 . S
H1284 C1296 0.930 . S
H1285 C1298 0.930 . S
H1286 C1299 0.930 . S
H1287 C1303 0.959 . S
H1288 C1303 0.959 . S
H1289 C1303 0.961 . S
H1290 C1304 0.960 . S
H1291 C1304 0.961 . S
H1292 C1304 0.959 . S
H1293 C1307 0.929 . S
H1294 C1308 0.931 . S
H1295 C1310 0.930 . S
C1296 H1284 0.930 . S
C1296 C1297 1.399 . S
C1296 C1301 1.399 . S
C1297 C1296 1.399 . S
C1297 C1298 1.376 . S
C1298 H1285 0.930 . S
C1298 C1297 1.376 . S
C1298 C1299 1.388 . S
C1299 H1286 0.930 . S
C1299 C1298 1.388 . S
C1299 C1300 1.390 . S
C1300 C1299 1.390 . S
C1300 C1301 1.394 . S
C1300 C1306 1.465 . S
C1301 C1296 1.399 . S
C1301 C1300 1.394 . S
C1301 C1302 1.516 . S
C1302 C1301 1.516 . S
C1302 C1303 1.502 . S
C1302 C1304 1.561 . S
C1302 C1305 1.526 . S
C1303 H1287 0.959 . S
C1303 H1288 0.959 . S
C1303 H1289 0.961 . S
C1303 C1302 1.502 . S
C1304 H1290 0.960 . S
C1304 H1291 0.961 . S
C1304 H1292 0.959 . S
C1304 C1302 1.561 . S
C1305 C1302 1.526 . S
C1305 C1306 1.396 . S
C1305 C1310 1.390 . S
C1306 C1300 1.465 . S
C1306 C1305 1.396 . S
C1306 C1307 1.399 . S
C1307 H1293 0.929 . S
C1307 C1306 1.399 . S
C1307 C1308 1.385 . S
C1308 H1294 0.931 . S
C1308 C1307 1.385 . S
C1308 C1309 1.389 . S
C1309 C1308 1.389 . S
C1309 C1310 1.387 . S
C1310 H1295 0.930 . S
C1310 C1305 1.390 . S
C1310 C1309 1.387 . S
H1311 C1323 0.930 . S
H1312 C1325 0.930 . S
H1313 C1326 0.930 . S
H1314 C1330 0.959 . S
H1315 C1330 0.959 . S
H1316 C1330 0.961 . S
H1317 C1331 0.960 . S
H1318 C1331 0.961 . S
H1319 C1331 0.959 . S
H1320 C1334 0.929 . S
H1321 C1335 0.931 . S
H1322 C1337 0.930 . S
C1323 H1311 0.930 . S
C1323 C1324 1.399 . S
C1323 C1328 1.399 . S
C1324 C1323 1.399 . S
C1324 C1325 1.376 . S
C1325 H1312 0.930 . S
C1325 C1324 1.376 . S
C1325 C1326 1.388 . S
C1326 H1313 0.930 . S
C1326 C1325 1.388 . S
C1326 C1327 1.390 . S
C1327 C1326 1.390 . S
C1327 C1328 1.394 . S
C1327 C1333 1.465 . S
C1328 C1323 1.399 . S
C1328 C1327 1.394 . S
C1328 C1329 1.516 . S
C1329 C1328 1.516 . S
C1329 C1330 1.502 . S
C1329 C1331 1.561 . S
C1329 C1332 1.526 . S
C1330 H1314 0.959 . S
C1330 H1315 0.959 . S
C1330 H1316 0.961 . S
C1330 C1329 1.502 . S
C1331 H1317 0.960 . S
C1331 H1318 0.961 . S
C1331 H1319 0.959 . S
C1331 C1329 1.561 . S
C1332 C1329 1.526 . S
C1332 C1333 1.396 . S
C1332 C1337 1.390 . S
C1333 C1327 1.465 . S
C1333 C1332 1.396 . S
C1333 C1334 1.399 . S
C1334 H1320 0.929 . S
C1334 C1333 1.399 . S
C1334 C1335 1.385 . S
C1335 H1321 0.931 . S
C1335 C1334 1.385 . S
C1335 C1336 1.389 . S
C1336 C1335 1.389 . S
C1336 C1337 1.387 . S
C1337 H1322 0.930 . S
C1337 C1332 1.390 . S
C1337 C1336 1.387 . S
H1338 C1350 0.930 . S
H1339 C1352 0.930 . S
H1340 C1353 0.930 . S
H1341 C1357 0.959 . S
H1342 C1357 0.959 . S
H1343 C1357 0.961 . S
H1344 C1358 0.960 . S
H1345 C1358 0.961 . S
H1346 C1358 0.959 . S
H1347 C1361 0.929 . S
H1348 C1362 0.931 . S
H1349 C1364 0.930 . S
C1350 H1338 0.930 . S
C1350 C1351 1.399 . S
C1350 C1355 1.399 . S
C1351 C1350 1.399 . S
C1351 C1352 1.376 . S
C1352 H1339 0.930 . S
C1352 C1351 1.376 . S
C1352 C1353 1.388 . S
C1353 H1340 0.930 . S
C1353 C1352 1.388 . S
C1353 C1354 1.390 . S
C1354 C1353 1.390 . S
C1354 C1355 1.394 . S
C1354 C1360 1.465 . S
C1355 C1350 1.399 . S
C1355 C1354 1.394 . S
C1355 C1356 1.516 . S
C1356 C1355 1.516 . S
C1356 C1357 1.502 . S
C1356 C1358 1.561 . S
C1356 C1359 1.526 . S
C1357 H1341 0.959 . S
C1357 H1342 0.959 . S
C1357 H1343 0.961 . S
C1357 C1356 1.502 . S
C1358 H1344 0.960 . S
C1358 H1345 0.961 . S
C1358 H1346 0.959 . S
C1358 C1356 1.561 . S
C1359 C1356 1.526 . S
C1359 C1360 1.396 . S
C1359 C1364 1.390 . S
C1360 C1354 1.465 . S
C1360 C1359 1.396 . S
C1360 C1361 1.399 . S
C1361 H1347 0.929 . S
C1361 C1360 1.399 . S
C1361 C1362 1.385 . S
C1362 H1348 0.931 . S
C1362 C1361 1.385 . S
C1362 C1363 1.389 . S
C1363 C1362 1.389 . S
C1363 C1364 1.387 . S
C1364 H1349 0.930 . S
C1364 C1359 1.390 . S
C1364 C1363 1.387 . S
H1365 C1377 0.930 . S
H1366 C1379 0.930 . S
H1367 C1380 0.930 . S
H1368 C1384 0.959 . S
H1369 C1384 0.959 . S
H1370 C1384 0.961 . S
H1371 C1385 0.960 . S
H1372 C1385 0.961 . S
H1373 C1385 0.959 . S
H1374 C1388 0.929 . S
H1375 C1389 0.931 . S
H1376 C1391 0.930 . S
C1377 H1365 0.930 . S
C1377 C1378 1.399 . S
C1377 C1382 1.399 . S
C1378 C1377 1.399 . S
C1378 C1379 1.376 . S
C1379 H1366 0.930 . S
C1379 C1378 1.376 . S
C1379 C1380 1.388 . S
C1380 H1367 0.930 . S
C1380 C1379 1.388 . S
C1380 C1381 1.390 . S
C1381 C1380 1.390 . S
C1381 C1382 1.394 . S
C1381 C1387 1.465 . S
C1382 C1377 1.399 . S
C1382 C1381 1.394 . S
C1382 C1383 1.516 . S
C1383 C1382 1.516 . S
C1383 C1384 1.502 . S
C1383 C1385 1.561 . S
C1383 C1386 1.526 . S
C1384 H1368 0.959 . S
C1384 H1369 0.959 . S
C1384 H1370 0.961 . S
C1384 C1383 1.502 . S
C1385 H1371 0.960 . S
C1385 H1372 0.961 . S
C1385 H1373 0.959 . S
C1385 C1383 1.561 . S
C1386 C1383 1.526 . S
C1386 C1387 1.396 . S
C1386 C1391 1.390 . S
C1387 C1381 1.465 . S
C1387 C1386 1.396 . S
C1387 C1388 1.399 . S
C1388 H1374 0.929 . S
C1388 C1387 1.399 . S
C1388 C1389 1.385 . S
C1389 H1375 0.931 . S
C1389 C1388 1.385 . S
C1389 C1390 1.389 . S
C1390 C1389 1.389 . S
C1390 C1391 1.387 . S
C1391 H1376 0.930 . S
C1391 C1386 1.390 . S
C1391 C1390 1.387 . S
H1392 C1404 0.930 . S
H1393 C1406 0.930 . S
H1394 C1407 0.930 . S
H1395 C1411 0.959 . S
H1396 C1411 0.959 . S
H1397 C1411 0.961 . S
H1398 C1412 0.960 . S
H1399 C1412 0.961 . S
H1400 C1412 0.959 . S
H1401 C1415 0.929 . S
H1402 C1416 0.931 . S
H1403 C1418 0.930 . S
C1404 H1392 0.930 . S
C1404 C1405 1.399 . S
C1404 C1409 1.399 . S
C1405 C1404 1.399 . S
C1405 C1406 1.376 . S
C1406 H1393 0.930 . S
C1406 C1405 1.376 . S
C1406 C1407 1.388 . S
C1407 H1394 0.930 . S
C1407 C1406 1.388 . S
C1407 C1408 1.390 . S
C1408 C1407 1.390 . S
C1408 C1409 1.394 . S
C1408 C1414 1.465 . S
C1409 C1404 1.399 . S
C1409 C1408 1.394 . S
C1409 C1410 1.516 . S
C1410 C1409 1.516 . S
C1410 C1411 1.502 . S
C1410 C1412 1.561 . S
C1410 C1413 1.526 . S
C1411 H1395 0.959 . S
C1411 H1396 0.959 . S
C1411 H1397 0.961 . S
C1411 C1410 1.502 . S
C1412 H1398 0.960 . S
C1412 H1399 0.961 . S
C1412 H1400 0.959 . S
C1412 C1410 1.561 . S
C1413 C1410 1.526 . S
C1413 C1414 1.396 . S
C1413 C1418 1.390 . S
C1414 C1408 1.465 . S
C1414 C1413 1.396 . S
C1414 C1415 1.399 . S
C1415 H1401 0.929 . S
C1415 C1414 1.399 . S
C1415 C1416 1.385 . S
C1416 H1402 0.931 . S
C1416 C1415 1.385 . S
C1416 C1417 1.389 . S
C1417 C1416 1.389 . S
C1417 C1418 1.387 . S
C1418 H1403 0.930 . S
C1418 C1413 1.390 . S
C1418 C1417 1.387 . S
H1419 C1431 0.930 . S
H1420 C1433 0.930 . S
H1421 C1434 0.930 . S
H1422 C1438 0.959 . S
H1423 C1438 0.959 . S
H1424 C1438 0.961 . S
H1425 C1439 0.960 . S
H1426 C1439 0.961 . S
H1427 C1439 0.959 . S
H1428 C1442 0.929 . S
H1429 C1443 0.931 . S
H1430 C1445 0.930 . S
C1431 H1419 0.930 . S
C1431 C1432 1.399 . S
C1431 C1436 1.399 . S
C1432 C1431 1.399 . S
C1432 C1433 1.376 . S
C1433 H1420 0.930 . S
C1433 C1432 1.376 . S
C1433 C1434 1.388 . S
C1434 H1421 0.930 . S
C1434 C1433 1.388 . S
C1434 C1435 1.390 . S
C1435 C1434 1.390 . S
C1435 C1436 1.394 . S
C1435 C1441 1.465 . S
C1436 C1431 1.399 . S
C1436 C1435 1.394 . S
C1436 C1437 1.516 . S
C1437 C1436 1.516 . S
C1437 C1438 1.502 . S
C1437 C1439 1.561 . S
C1437 C1440 1.526 . S
C1438 H1422 0.959 . S
C1438 H1423 0.959 . S
C1438 H1424 0.961 . S
C1438 C1437 1.502 . S
C1439 H1425 0.960 . S
C1439 H1426 0.961 . S
C1439 H1427 0.959 . S
C1439 C1437 1.561 . S
C1440 C1437 1.526 . S
C1440 C1441 1.396 . S
C1440 C1445 1.390 . S
C1441 C1435 1.465 . S
C1441 C1440 1.396 . S
C1441 C1442 1.399 . S
C1442 H1428 0.929 . S
C1442 C1441 1.399 . S
C1442 C1443 1.385 . S
C1443 H1429 0.931 . S
C1443 C1442 1.385 . S
C1443 C1444 1.389 . S
C1444 C1443 1.389 . S
C1444 C1445 1.387 . S
C1445 H1430 0.930 . S
C1445 C1440 1.390 . S
C1445 C1444 1.387 . S
H1446 C1458 0.930 . S
H1447 C1460 0.930 . S
H1448 C1461 0.930 . S
H1449 C1465 0.959 . S
H1450 C1465 0.959 . S
H1451 C1465 0.961 . S
H1452 C1466 0.960 . S
H1453 C1466 0.961 . S
H1454 C1466 0.959 . S
H1455 C1469 0.929 . S
H1456 C1470 0.931 . S
H1457 C1472 0.930 . S
C1458 H1446 0.930 . S
C1458 C1459 1.399 . S
C1458 C1463 1.399 . S
C1459 C1458 1.399 . S
C1459 C1460 1.376 . S
C1460 H1447 0.930 . S
C1460 C1459 1.376 . S
C1460 C1461 1.388 . S
C1461 H1448 0.930 . S
C1461 C1460 1.388 . S
C1461 C1462 1.390 . S
C1462 C1461 1.390 . S
C1462 C1463 1.394 . S
C1462 C1468 1.465 . S
C1463 C1458 1.399 . S
C1463 C1462 1.394 . S
C1463 C1464 1.516 . S
C1464 C1463 1.516 . S
C1464 C1465 1.502 . S
C1464 C1466 1.561 . S
C1464 C1467 1.526 . S
C1465 H1449 0.959 . S
C1465 H1450 0.959 . S
C1465 H1451 0.961 . S
C1465 C1464 1.502 . S
C1466 H1452 0.960 . S
C1466 H1453 0.961 . S
C1466 H1454 0.959 . S
C1466 C1464 1.561 . S
C1467 C1464 1.526 . S
C1467 C1468 1.396 . S
C1467 C1472 1.390 . S
C1468 C1462 1.465 . S
C1468 C1467 1.396 . S
C1468 C1469 1.399 . S
C1469 H1455 0.929 . S
C1469 C1468 1.399 . S
C1469 C1470 1.385 . S
C1470 H1456 0.931 . S
C1470 C1469 1.385 . S
C1470 C1471 1.389 . S
C1471 C1470 1.389 . S
C1471 C1472 1.387 . S
C1472 H1457 0.930 . S
C1472 C1467 1.390 . S
C1472 C1471 1.387 . S
H1473 C1485 0.930 . S
H1474 C1487 0.930 . S
H1475 C1488 0.930 . S
H1476 C1492 0.959 . S
H1477 C1492 0.959 . S
H1478 C1492 0.961 . S
H1479 C1493 0.960 . S
H1480 C1493 0.961 . S
H1481 C1493 0.959 . S
H1482 C1496 0.929 . S
H1483 C1497 0.931 . S
H1484 C1499 0.930 . S
C1485 H1473 0.930 . S
C1485 C1486 1.399 . S
C1485 C1490 1.399 . S
C1486 C1485 1.399 . S
C1486 C1487 1.376 . S
C1487 H1474 0.930 . S
C1487 C1486 1.376 . S
C1487 C1488 1.388 . S
C1488 H1475 0.930 . S
C1488 C1487 1.388 . S
C1488 C1489 1.390 . S
C1489 C1488 1.390 . S
C1489 C1490 1.394 . S
C1489 C1495 1.465 . S
C1490 C1485 1.399 . S
C1490 C1489 1.394 . S
C1490 C1491 1.516 . S
C1491 C1490 1.516 . S
C1491 C1492 1.502 . S
C1491 C1493 1.561 . S
C1491 C1494 1.526 . S
C1492 H1476 0.959 . S
C1492 H1477 0.959 . S
C1492 H1478 0.961 . S
C1492 C1491 1.502 . S
C1493 H1479 0.960 . S
C1493 H1480 0.961 . S
C1493 H1481 0.959 . S
C1493 C1491 1.561 . S
C1494 C1491 1.526 . S
C1494 C1495 1.396 . S
C1494 C1499 1.390 . S
C1495 C1489 1.465 . S
C1495 C1494 1.396 . S
C1495 C1496 1.399 . S
C1496 H1482 0.929 . S
C1496 C1495 1.399 . S
C1496 C1497 1.385 . S
C1497 H1483 0.931 . S
C1497 C1496 1.385 . S
C1497 C1498 1.389 . S
C1498 C1497 1.389 . S
C1498 C1499 1.387 . S
C1499 H1484 0.930 . S
C1499 C1494 1.390 . S
C1499 C1498 1.387 . S
H1500 C1512 0.930 . S
H1501 C1514 0.930 . S
H1502 C1515 0.930 . S
H1503 C1519 0.959 . S
H1504 C1519 0.959 . S
H1505 C1519 0.961 . S
H1506 C1520 0.960 . S
H1507 C1520 0.961 . S
H1508 C1520 0.959 . S
H1509 C1523 0.929 . S
H1510 C1524 0.931 . S
H1511 C1526 0.930 . S
C1512 H1500 0.930 . S
C1512 C1513 1.399 . S
C1512 C1517 1.399 . S
C1513 C1512 1.399 . S
C1513 C1514 1.376 . S
C1514 H1501 0.930 . S
C1514 C1513 1.376 . S
C1514 C1515 1.388 . S
C1515 H1502 0.930 . S
C1515 C1514 1.388 . S
C1515 C1516 1.390 . S
C1516 C1515 1.390 . S
C1516 C1517 1.394 . S
C1516 C1522 1.465 . S
C1517 C1512 1.399 . S
C1517 C1516 1.394 . S
C1517 C1518 1.516 . S
C1518 C1517 1.516 . S
C1518 C1519 1.502 . S
C1518 C1520 1.561 . S
C1518 C1521 1.526 . S
C1519 H1503 0.959 . S
C1519 H1504 0.959 . S
C1519 H1505 0.961 . S
C1519 C1518 1.502 . S
C1520 H1506 0.960 . S
C1520 H1507 0.961 . S
C1520 H1508 0.959 . S
C1520 C1518 1.561 . S
C1521 C1518 1.526 . S
C1521 C1522 1.396 . S
C1521 C1526 1.390 . S
C1522 C1516 1.465 . S
C1522 C1521 1.396 . S
C1522 C1523 1.399 . S
C1523 H1509 0.929 . S
C1523 C1522 1.399 . S
C1523 C1524 1.385 . S
C1524 H1510 0.931 . S
C1524 C1523 1.385 . S
C1524 C1525 1.389 . S
C1525 C1524 1.389 . S
C1525 C1526 1.387 . S
C1526 H1511 0.930 . S
C1526 C1521 1.390 . S
C1526 C1525 1.387 . S
H1527 C1539 0.930 . S
H1528 C1541 0.930 . S
H1529 C1542 0.930 . S
H1530 C1546 0.959 . S
H1531 C1546 0.959 . S
H1532 C1546 0.961 . S
H1533 C1547 0.960 . S
H1534 C1547 0.961 . S
H1535 C1547 0.959 . S
H1536 C1550 0.929 . S
H1537 C1551 0.931 . S
H1538 C1553 0.930 . S
C1539 H1527 0.930 . S
C1539 C1540 1.399 . S
C1539 C1544 1.399 . S
C1540 C1539 1.399 . S
C1540 C1541 1.376 . S
C1541 H1528 0.930 . S
C1541 C1540 1.376 . S
C1541 C1542 1.388 . S
C1542 H1529 0.930 . S
C1542 C1541 1.388 . S
C1542 C1543 1.390 . S
C1543 C1542 1.390 . S
C1543 C1544 1.394 . S
C1543 C1549 1.465 . S
C1544 C1539 1.399 . S
C1544 C1543 1.394 . S
C1544 C1545 1.516 . S
C1545 C1544 1.516 . S
C1545 C1546 1.502 . S
C1545 C1547 1.561 . S
C1545 C1548 1.526 . S
C1546 H1530 0.959 . S
C1546 H1531 0.959 . S
C1546 H1532 0.961 . S
C1546 C1545 1.502 . S
C1547 H1533 0.960 . S
C1547 H1534 0.961 . S
C1547 H1535 0.959 . S
C1547 C1545 1.561 . S
C1548 C1545 1.526 . S
C1548 C1549 1.396 . S
C1548 C1553 1.390 . S
C1549 C1543 1.465 . S
C1549 C1548 1.396 . S
C1549 C1550 1.399 . S
C1550 H1536 0.929 . S
C1550 C1549 1.399 . S
C1550 C1551 1.385 . S
C1551 H1537 0.931 . S
C1551 C1550 1.385 . S
C1551 C1552 1.389 . S
C1552 C1551 1.389 . S
C1552 C1553 1.387 . S
C1553 H1538 0.930 . S
C1553 C1548 1.390 . S
C1553 C1552 1.387 . S
H1554 C1566 0.930 . S
H1555 C1568 0.930 . S
H1556 C1569 0.930 . S
H1557 C1573 0.959 . S
H1558 C1573 0.959 . S
H1559 C1573 0.961 . S
H1560 C1574 0.960 . S
H1561 C1574 0.961 . S
H1562 C1574 0.959 . S
H1563 C1577 0.929 . S
H1564 C1578 0.931 . S
H1565 C1580 0.930 . S
C1566 H1554 0.930 . S
C1566 C1567 1.399 . S
C1566 C1571 1.399 . S
C1567 C1566 1.399 . S
C1567 C1568 1.376 . S
C1568 H1555 0.930 . S
C1568 C1567 1.376 . S
C1568 C1569 1.388 . S
C1569 H1556 0.930 . S
C1569 C1568 1.388 . S
C1569 C1570 1.390 . S
C1570 C1569 1.390 . S
C1570 C1571 1.394 . S
C1570 C1576 1.465 . S
C1571 C1566 1.399 . S
C1571 C1570 1.394 . S
C1571 C1572 1.516 . S
C1572 C1571 1.516 . S
C1572 C1573 1.502 . S
C1572 C1574 1.561 . S
C1572 C1575 1.526 . S
C1573 H1557 0.959 . S
C1573 H1558 0.959 . S
C1573 H1559 0.961 . S
C1573 C1572 1.502 . S
C1574 H1560 0.960 . S
C1574 H1561 0.961 . S
C1574 H1562 0.959 . S
C1574 C1572 1.561 . S
C1575 C1572 1.526 . S
C1575 C1576 1.396 . S
C1575 C1580 1.390 . S
C1576 C1570 1.465 . S
C1576 C1575 1.396 . S
C1576 C1577 1.399 . S
C1577 H1563 0.929 . S
C1577 C1576 1.399 . S
C1577 C1578 1.385 . S
C1578 H1564 0.931 . S
C1578 C1577 1.385 . S
C1578 C1579 1.389 . S
C1579 C1578 1.389 . S
C1579 C1580 1.387 . S
C1580 H1565 0.930 . S
C1580 C1575 1.390 . S
C1580 C1579 1.387 . S
H1581 C1593 0.930 . S
H1582 C1595 0.930 . S
H1583 C1596 0.930 . S
H1584 C1600 0.959 . S
H1585 C1600 0.959 . S
H1586 C1600 0.961 . S
H1587 C1601 0.960 . S
H1588 C1601 0.961 . S
H1589 C1601 0.959 . S
H1590 C1604 0.929 . S
H1591 C1605 0.931 . S
H1592 C1607 0.930 . S
C1593 H1581 0.930 . S
C1593 C1594 1.399 . S
C1593 C1598 1.399 . S
C1594 C1593 1.399 . S
C1594 C1595 1.376 . S
C1595 H1582 0.930 . S
C1595 C1594 1.376 . S
C1595 C1596 1.388 . S
C1596 H1583 0.930 . S
C1596 C1595 1.388 . S
C1596 C1597 1.390 . S
C1597 C1596 1.390 . S
C1597 C1598 1.394 . S
C1597 C1603 1.465 . S
C1598 C1593 1.399 . S
C1598 C1597 1.394 . S
C1598 C1599 1.516 . S
C1599 C1598 1.516 . S
C1599 C1600 1.502 . S
C1599 C1601 1.561 . S
C1599 C1602 1.526 . S
C1600 H1584 0.959 . S
C1600 H1585 0.959 . S
C1600 H1586 0.961 . S
C1600 C1599 1.502 . S
C1601 H1587 0.960 . S
C1601 H1588 0.961 . S
C1601 H1589 0.959 . S
C1601 C1599 1.561 . S
C1602 C1599 1.526 . S
C1602 C1603 1.396 . S
C1602 C1607 1.390 . S
C1603 C1597 1.465 . S
C1603 C1602 1.396 . S
C1603 C1604 1.399 . S
C1604 H1590 0.929 . S
C1604 C1603 1.399 . S
C1604 C1605 1.385 . S
C1605 H1591 0.931 . S
C1605 C1604 1.385 . S
C1605 C1606 1.389 . S
C1606 C1605 1.389 . S
C1606 C1607 1.387 . S
C1607 H1592 0.930 . S
C1607 C1602 1.390 . S
C1607 C1606 1.387 . S
H1608 C1620 0.930 . S
H1609 C1622 0.930 . S
H1610 C1623 0.930 . S
H1611 C1627 0.959 . S
H1612 C1627 0.959 . S
H1613 C1627 0.961 . S
H1614 C1628 0.960 . S
H1615 C1628 0.961 . S
H1616 C1628 0.959 . S
H1617 C1631 0.929 . S
H1618 C1632 0.931 . S
H1619 C1634 0.930 . S
C1620 H1608 0.930 . S
C1620 C1621 1.399 . S
C1620 C1625 1.399 . S
C1621 C1620 1.399 . S
C1621 C1622 1.376 . S
C1622 H1609 0.930 . S
C1622 C1621 1.376 . S
C1622 C1623 1.388 . S
C1623 H1610 0.930 . S
C1623 C1622 1.388 . S
C1623 C1624 1.390 . S
C1624 C1623 1.390 . S
C1624 C1625 1.394 . S
C1624 C1630 1.465 . S
C1625 C1620 1.399 . S
C1625 C1624 1.394 . S
C1625 C1626 1.516 . S
C1626 C1625 1.516 . S
C1626 C1627 1.502 . S
C1626 C1628 1.561 . S
C1626 C1629 1.526 . S
C1627 H1611 0.959 . S
C1627 H1612 0.959 . S
C1627 H1613 0.961 . S
C1627 C1626 1.502 . S
C1628 H1614 0.960 . S
C1628 H1615 0.961 . S
C1628 H1616 0.959 . S
C1628 C1626 1.561 . S
C1629 C1626 1.526 . S
C1629 C1630 1.396 . S
C1629 C1634 1.390 . S
C1630 C1624 1.465 . S
C1630 C1629 1.396 . S
C1630 C1631 1.399 . S
C1631 H1617 0.929 . S
C1631 C1630 1.399 . S
C1631 C1632 1.385 . S
C1632 H1618 0.931 . S
C1632 C1631 1.385 . S
C1632 C1633 1.389 . S
C1633 C1632 1.389 . S
C1633 C1634 1.387 . S
C1634 H1619 0.930 . S
C1634 C1629 1.390 . S
C1634 C1633 1.387 . S
H1635 C1647 0.930 . S
H1636 C1649 0.930 . S
H1637 C1650 0.930 . S
H1638 C1654 0.959 . S
H1639 C1654 0.959 . S
H1640 C1654 0.961 . S
H1641 C1655 0.960 . S
H1642 C1655 0.961 . S
H1643 C1655 0.959 . S
H1644 C1658 0.929 . S
H1645 C1659 0.931 . S
H1646 C1661 0.930 . S
C1647 H1635 0.930 . S
C1647 C1648 1.399 . S
C1647 C1652 1.399 . S
C1648 C1647 1.399 . S
C1648 C1649 1.376 . S
C1649 H1636 0.930 . S
C1649 C1648 1.376 . S
C1649 C1650 1.388 . S
C1650 H1637 0.930 . S
C1650 C1649 1.388 . S
C1650 C1651 1.390 . S
C1651 C1650 1.390 . S
C1651 C1652 1.394 . S
C1651 C1657 1.465 . S
C1652 C1647 1.399 . S
C1652 C1651 1.394 . S
C1652 C1653 1.516 . S
C1653 C1652 1.516 . S
C1653 C1654 1.502 . S
C1653 C1655 1.561 . S
C1653 C1656 1.526 . S
C1654 H1638 0.959 . S
C1654 H1639 0.959 . S
C1654 H1640 0.961 . S
C1654 C1653 1.502 . S
C1655 H1641 0.960 . S
C1655 H1642 0.961 . S
C1655 H1643 0.959 . S
C1655 C1653 1.561 . S
C1656 C1653 1.526 . S
C1656 C1657 1.396 . S
C1656 C1661 1.390 . S
C1657 C1651 1.465 . S
C1657 C1656 1.396 . S
C1657 C1658 1.399 . S
C1658 H1644 0.929 . S
C1658 C1657 1.399 . S
C1658 C1659 1.385 . S
C1659 H1645 0.931 . S
C1659 C1658 1.385 . S
C1659 C1660 1.389 . S
C1660 C1659 1.389 . S
C1660 C1661 1.387 . S
C1661 H1646 0.930 . S
C1661 C1656 1.390 . S
C1661 C1660 1.387 . S
H1662 C1674 0.930 . S
H1663 C1676 0.930 . S
H1664 C1677 0.930 . S
H1665 C1681 0.959 . S
H1666 C1681 0.959 . S
H1667 C1681 0.961 . S
H1668 C1682 0.960 . S
H1669 C1682 0.961 . S
H1670 C1682 0.959 . S
H1671 C1685 0.929 . S
H1672 C1686 0.931 . S
H1673 C1688 0.930 . S
C1674 H1662 0.930 . S
C1674 C1675 1.399 . S
C1674 C1679 1.399 . S
C1675 C1674 1.399 . S
C1675 C1676 1.376 . S
C1676 H1663 0.930 . S
C1676 C1675 1.376 . S
C1676 C1677 1.388 . S
C1677 H1664 0.930 . S
C1677 C1676 1.388 . S
C1677 C1678 1.390 . S
C1678 C1677 1.390 . S
C1678 C1679 1.394 . S
C1678 C1684 1.465 . S
C1679 C1674 1.399 . S
C1679 C1678 1.394 . S
C1679 C1680 1.516 . S
C1680 C1679 1.516 . S
C1680 C1681 1.502 . S
C1680 C1682 1.561 . S
C1680 C1683 1.526 . S
C1681 H1665 0.959 . S
C1681 H1666 0.959 . S
C1681 H1667 0.961 . S
C1681 C1680 1.502 . S
C1682 H1668 0.960 . S
C1682 H1669 0.961 . S
C1682 H1670 0.959 . S
C1682 C1680 1.561 . S
C1683 C1680 1.526 . S
C1683 C1684 1.396 . S
C1683 C1688 1.390 . S
C1684 C1678 1.465 . S
C1684 C1683 1.396 . S
C1684 C1685 1.399 . S
C1685 H1671 0.929 . S
C1685 C1684 1.399 . S
C1685 C1686 1.385 . S
C1686 H1672 0.931 . S
C1686 C1685 1.385 . S
C1686 C1687 1.389 . S
C1687 C1686 1.389 . S
C1687 C1688 1.387 . S
C1688 H1673 0.930 . S
C1688 C1683 1.390 . S
C1688 C1687 1.387 . S
H1689 C1701 0.930 . S
H1690 C1703 0.930 . S
H1691 C1704 0.930 . S
H1692 C1708 0.959 . S
H1693 C1708 0.959 . S
H1694 C1708 0.961 . S
H1695 C1709 0.960 . S
H1696 C1709 0.961 . S
H1697 C1709 0.959 . S
H1698 C1712 0.929 . S
H1699 C1713 0.931 . S
H1700 C1715 0.930 . S
C1701 H1689 0.930 . S
C1701 C1702 1.399 . S
C1701 C1706 1.399 . S
C1702 C1701 1.399 . S
C1702 C1703 1.376 . S
C1703 H1690 0.930 . S
C1703 C1702 1.376 . S
C1703 C1704 1.388 . S
C1704 H1691 0.930 . S
C1704 C1703 1.388 . S
C1704 C1705 1.390 . S
C1705 C1704 1.390 . S
C1705 C1706 1.394 . S
C1705 C1711 1.465 . S
C1706 C1701 1.399 . S
C1706 C1705 1.394 . S
C1706 C1707 1.516 . S
C1707 C1706 1.516 . S
C1707 C1708 1.502 . S
C1707 C1709 1.561 . S
C1707 C1710 1.526 . S
C1708 H1692 0.959 . S
C1708 H1693 0.959 . S
C1708 H1694 0.961 . S
C1708 C1707 1.502 . S
C1709 H1695 0.960 . S
C1709 H1696 0.961 . S
C1709 H1697 0.959 . S
C1709 C1707 1.561 . S
C1710 C1707 1.526 . S
C1710 C1711 1.396 . S
C1710 C1715 1.390 . S
C1711 C1705 1.465 . S
C1711 C1710 1.396 . S
C1711 C1712 1.399 . S
C1712 H1698 0.929 . S
C1712 C1711 1.399 . S
C1712 C1713 1.385 . S
C1713 H1699 0.931 . S
C1713 C1712 1.385 . S
C1713 C1714 1.389 . S
C1714 C1713 1.389 . S
C1714 C1715 1.387 . S
C1715 H1700 0.930 . S
C1715 C1710 1.390 . S
C1715 C1714 1.387 . S
H1716 C1728 0.930 . S
H1717 C1730 0.930 . S
H1718 C1731 0.930 . S
H1719 C1735 0.959 . S
H1720 C1735 0.959 . S
H1721 C1735 0.961 . S
H1722 C1736 0.960 . S
H1723 C1736 0.961 . S
H1724 C1736 0.959 . S
H1725 C1739 0.929 . S
H1726 C1740 0.931 . S
H1727 C1742 0.930 . S
C1728 H1716 0.930 . S
C1728 C1729 1.399 . S
C1728 C1733 1.399 . S
C1729 C1728 1.399 . S
C1729 C1730 1.376 . S
C1730 H1717 0.930 . S
C1730 C1729 1.376 . S
C1730 C1731 1.388 . S
C1731 H1718 0.930 . S
C1731 C1730 1.388 . S
C1731 C1732 1.390 . S
C1732 C1731 1.390 . S
C1732 C1733 1.394 . S
C1732 C1738 1.465 . S
C1733 C1728 1.399 . S
C1733 C1732 1.394 . S
C1733 C1734 1.516 . S
C1734 C1733 1.516 . S
C1734 C1735 1.502 . S
C1734 C1736 1.561 . S
C1734 C1737 1.526 . S
C1735 H1719 0.959 . S
C1735 H1720 0.959 . S
C1735 H1721 0.961 . S
C1735 C1734 1.502 . S
C1736 H1722 0.960 . S
C1736 H1723 0.961 . S
C1736 H1724 0.959 . S
C1736 C1734 1.561 . S
C1737 C1734 1.526 . S
C1737 C1738 1.396 . S
C1737 C1742 1.390 . S
C1738 C1732 1.465 . S
C1738 C1737 1.396 . S
C1738 C1739 1.399 . S
C1739 H1725 0.929 . S
C1739 C1738 1.399 . S
C1739 C1740 1.385 . S
C1740 H1726 0.931 . S
C1740 C1739 1.385 . S
C1740 C1741 1.389 . S
C1741 C1740 1.389 . S
C1741 C1742 1.387 . S
C1742 H1727 0.930 . S
C1742 C1737 1.390 . S
C1742 C1741 1.387 . S
H1743 C1755 0.930 . S
H1744 C1757 0.930 . S
H1745 C1758 0.930 . S
H1746 C1762 0.959 . S
H1747 C1762 0.959 . S
H1748 C1762 0.961 . S
H1749 C1763 0.960 . S
H1750 C1763 0.961 . S
H1751 C1763 0.959 . S
H1752 C1766 0.929 . S
H1753 C1767 0.931 . S
H1754 C1769 0.930 . S
C1755 H1743 0.930 . S
C1755 C1756 1.399 . S
C1755 C1760 1.399 . S
C1756 C1755 1.399 . S
C1756 C1757 1.376 . S
C1757 H1744 0.930 . S
C1757 C1756 1.376 . S
C1757 C1758 1.388 . S
C1758 H1745 0.930 . S
C1758 C1757 1.388 . S
C1758 C1759 1.390 . S
C1759 C1758 1.390 . S
C1759 C1760 1.394 . S
C1759 C1765 1.465 . S
C1760 C1755 1.399 . S
C1760 C1759 1.394 . S
C1760 C1761 1.516 . S
C1761 C1760 1.516 . S
C1761 C1762 1.502 . S
C1761 C1763 1.561 . S
C1761 C1764 1.526 . S
C1762 H1746 0.959 . S
C1762 H1747 0.959 . S
C1762 H1748 0.961 . S
C1762 C1761 1.502 . S
C1763 H1749 0.960 . S
C1763 H1750 0.961 . S
C1763 H1751 0.959 . S
C1763 C1761 1.561 . S
C1764 C1761 1.526 . S
C1764 C1765 1.396 . S
C1764 C1769 1.390 . S
C1765 C1759 1.465 . S
C1765 C1764 1.396 . S
C1765 C1766 1.399 . S
C1766 H1752 0.929 . S
C1766 C1765 1.399 . S
C1766 C1767 1.385 . S
C1767 H1753 0.931 . S
C1767 C1766 1.385 . S
C1767 C1768 1.389 . S
C1768 C1767 1.389 . S
C1768 C1769 1.387 . S
C1769 H1754 0.930 . S
C1769 C1764 1.390 . S
C1769 C1768 1.387 . S
H1770 C1782 0.930 . S
H1771 C1784 0.930 . S
H1772 C1785 0.930 . S
H1773 C1789 0.959 . S
H1774 C1789 0.959 . S
H1775 C1789 0.961 . S
H1776 C1790 0.960 . S
H1777 C1790 0.961 . S
H1778 C1790 0.959 . S
H1779 C1793 0.929 . S
H1780 C1794 0.931 . S
H1781 C1796 0.930 . S
C1782 H1770 0.930 . S
C1782 C1783 1.399 . S
C1782 C1787 1.399 . S
C1783 C1782 1.399 . S
C1783 C1784 1.376 . S
C1784 H1771 0.930 . S
C1784 C1783 1.376 . S
C1784 C1785 1.388 . S
C1785 H1772 0.930 . S
C1785 C1784 1.388 . S
C1785 C1786 1.390 . S
C1786 C1785 1.390 . S
C1786 C1787 1.394 . S
C1786 C1792 1.465 . S
C1787 C1782 1.399 . S
C1787 C1786 1.394 . S
C1787 C1788 1.516 . S
C1788 C1787 1.516 . S
C1788 C1789 1.502 . S
C1788 C1790 1.561 . S
C1788 C1791 1.526 . S
C1789 H1773 0.959 . S
C1789 H1774 0.959 . S
C1789 H1775 0.961 . S
C1789 C1788 1.502 . S
C1790 H1776 0.960 . S
C1790 H1777 0.961 . S
C1790 H1778 0.959 . S
C1790 C1788 1.561 . S
C1791 C1788 1.526 . S
C1791 C1792 1.396 . S
C1791 C1796 1.390 . S
C1792 C1786 1.465 . S
C1792 C1791 1.396 . S
C1792 C1793 1.399 . S
C1793 H1779 0.929 . S
C1793 C1792 1.399 . S
C1793 C1794 1.385 . S
C1794 H1780 0.931 . S
C1794 C1793 1.385 . S
C1794 C1795 1.389 . S
C1795 C1794 1.389 . S
C1795 C1796 1.387 . S
C1796 H1781 0.930 . S
C1796 C1791 1.390 . S
C1796 C1795 1.387 . S
H1797 C1809 0.930 . S
H1798 C1811 0.930 . S
H1799 C1812 0.930 . S
H1800 C1816 0.959 . S
H1801 C1816 0.959 . S
H1802 C1816 0.961 . S
H1803 C1817 0.960 . S
H1804 C1817 0.961 . S
H1805 C1817 0.959 . S
H1806 C1820 0.929 . S
H1807 C1821 0.931 . S
H1808 C1823 0.930 . S
C1809 H1797 0.930 . S
C1809 C1810 1.399 . S
C1809 C1814 1.399 . S
C1810 C1809 1.399 . S
C1810 C1811 1.376 . S
C1811 H1798 0.930 . S
C1811 C1810 1.376 . S
C1811 C1812 1.388 . S
C1812 H1799 0.930 . S
C1812 C1811 1.388 . S
C1812 C1813 1.390 . S
C1813 C1812 1.390 . S
C1813 C1814 1.394 . S
C1813 C1819 1.465 . S
C1814 C1809 1.399 . S
C1814 C1813 1.394 . S
C1814 C1815 1.516 . S
C1815 C1814 1.516 . S
C1815 C1816 1.502 . S
C1815 C1817 1.561 . S
C1815 C1818 1.526 . S
C1816 H1800 0.959 . S
C1816 H1801 0.959 . S
C1816 H1802 0.961 . S
C1816 C1815 1.502 . S
C1817 H1803 0.960 . S
C1817 H1804 0.961 . S
C1817 H1805 0.959 . S
C1817 C1815 1.561 . S
C1818 C1815 1.526 . S
C1818 C1819 1.396 . S
C1818 C1823 1.390 . S
C1819 C1813 1.465 . S
C1819 C1818 1.396 . S
C1819 C1820 1.399 . S
C1820 H1806 0.929 . S
C1820 C1819 1.399 . S
C1820 C1821 1.385 . S
C1821 H1807 0.931 . S
C1821 C1820 1.385 . S
C1821 C1822 1.389 . S
C1822 C1821 1.389 . S
C1822 C1823 1.387 . S
C1823 H1808 0.930 . S
C1823 C1818 1.390 . S
C1823 C1822 1.387 . S
H1824 C1836 0.930 . S
H1825 C1838 0.930 . S
H1826 C1839 0.930 . S
H1827 C1843 0.959 . S
H1828 C1843 0.959 . S
H1829 C1843 0.961 . S
H1830 C1844 0.960 . S
H1831 C1844 0.961 . S
H1832 C1844 0.959 . S
H1833 C1847 0.929 . S
H1834 C1848 0.931 . S
H1835 C1850 0.930 . S
C1836 H1824 0.930 . S
C1836 C1837 1.399 . S
C1836 C1841 1.399 . S
C1837 C1836 1.399 . S
C1837 C1838 1.376 . S
C1838 H1825 0.930 . S
C1838 C1837 1.376 . S
C1838 C1839 1.388 . S
C1839 H1826 0.930 . S
C1839 C1838 1.388 . S
C1839 C1840 1.390 . S
C1840 C1839 1.390 . S
C1840 C1841 1.394 . S
C1840 C1846 1.465 . S
C1841 C1836 1.399 . S
C1841 C1840 1.394 . S
C1841 C1842 1.516 . S
C1842 C1841 1.516 . S
C1842 C1843 1.502 . S
C1842 C1844 1.561 . S
C1842 C1845 1.526 . S
C1843 H1827 0.959 . S
C1843 H1828 0.959 . S
C1843 H1829 0.961 . S
C1843 C1842 1.502 . S
C1844 H1830 0.960 . S
C1844 H1831 0.961 . S
C1844 H1832 0.959 . S
C1844 C1842 1.561 . S
C1845 C1842 1.526 . S
C1845 C1846 1.396 . S
C1845 C1850 1.390 . S
C1846 C1840 1.465 . S
C1846 C1845 1.396 . S
C1846 C1847 1.399 . S
C1847 H1833 0.929 . S
C1847 C1846 1.399 . S
C1847 C1848 1.385 . S
C1848 H1834 0.931 . S
C1848 C1847 1.385 . S
C1848 C1849 1.389 . S
C1849 C1848 1.389 . S
C1849 C1850 1.387 . S
C1850 H1835 0.930 . S
C1850 C1845 1.390 . S
C1850 C1849 1.387 . S
H1851 C1863 0.930 . S
H1852 C1865 0.930 . S
H1853 C1866 0.930 . S
H1854 C1870 0.959 . S
H1855 C1870 0.959 . S
H1856 C1870 0.961 . S
H1857 C1871 0.960 . S
H1858 C1871 0.961 . S
H1859 C1871 0.959 . S
H1860 C1874 0.929 . S
H1861 C1875 0.931 . S
H1862 C1877 0.930 . S
C1863 H1851 0.930 . S
C1863 C1864 1.399 . S
C1863 C1868 1.399 . S
C1864 C1863 1.399 . S
C1864 C1865 1.376 . S
C1865 H1852 0.930 . S
C1865 C1864 1.376 . S
C1865 C1866 1.388 . S
C1866 H1853 0.930 . S
C1866 C1865 1.388 . S
C1866 C1867 1.390 . S
C1867 C1866 1.390 . S
C1867 C1868 1.394 . S
C1867 C1873 1.465 . S
C1868 C1863 1.399 . S
C1868 C1867 1.394 . S
C1868 C1869 1.516 . S
C1869 C1868 1.516 . S
C1869 C1870 1.502 . S
C1869 C1871 1.561 . S
C1869 C1872 1.526 . S
C1870 H1854 0.959 . S
C1870 H1855 0.959 . S
C1870 H1856 0.961 . S
C1870 C1869 1.502 . S
C1871 H1857 0.960 . S
C1871 H1858 0.961 . S
C1871 H1859 0.959 . S
C1871 C1869 1.561 . S
C1872 C1869 1.526 . S
C1872 C1873 1.396 . S
C1872 C1877 1.390 . S
C1873 C1867 1.465 . S
C1873 C1872 1.396 . S
C1873 C1874 1.399 . S
C1874 H1860 0.929 . S
C1874 C1873 1.399 . S
C1874 C1875 1.385 . S
C1875 H1861 0.931 . S
C1875 C1874 1.385 . S
C1875 C1876 1.389 . S
C1876 C1875 1.389 . S
C1876 C1877 1.387 . S
C1877 H1862 0.930 . S
C1877 C1872 1.390 . S
C1877 C1876 1.387 . S
H1878 C1890 0.930 . S
H1879 C1892 0.930 . S
H1880 C1893 0.930 . S
H1881 C1897 0.959 . S
H1882 C1897 0.959 . S
H1883 C1897 0.961 . S
H1884 C1898 0.960 . S
H1885 C1898 0.961 . S
H1886 C1898 0.959 . S
H1887 C1901 0.929 . S
H1888 C1902 0.931 . S
H1889 C1904 0.930 . S
C1890 H1878 0.930 . S
C1890 C1891 1.399 . S
C1890 C1895 1.399 . S
C1891 C1890 1.399 . S
C1891 C1892 1.376 . S
C1892 H1879 0.930 . S
C1892 C1891 1.376 . S
C1892 C1893 1.388 . S
C1893 H1880 0.930 . S
C1893 C1892 1.388 . S
C1893 C1894 1.390 . S
C1894 C1893 1.390 . S
C1894 C1895 1.394 . S
C1894 C1900 1.465 . S
C1895 C1890 1.399 . S
C1895 C1894 1.394 . S
C1895 C1896 1.516 . S
C1896 C1895 1.516 . S
C1896 C1897 1.502 . S
C1896 C1898 1.561 . S
C1896 C1899 1.526 . S
C1897 H1881 0.959 . S
C1897 H1882 0.959 . S
C1897 H1883 0.961 . S
C1897 C1896 1.502 . S
C1898 H1884 0.960 . S
C1898 H1885 0.961 . S
C1898 H1886 0.959 . S
C1898 C1896 1.561 . S
C1899 C1896 1.526 . S
C1899 C1900 1.396 . S
C1899 C1904 1.390 . S
C1900 C1894 1.465 . S
C1900 C1899 1.396 . S
C1900 C1901 1.399 . S
C1901 H1887 0.929 . S
C1901 C1900 1.399 . S
C1901 C1902 1.385 . S
C1902 H1888 0.931 . S
C1902 C1901 1.385 . S
C1902 C1903 1.389 . S
C1903 C1902 1.389 . S
C1903 C1904 1.387 . S
C1904 H1889 0.930 . S
C1904 C1899 1.390 . S
C1904 C1903 1.387 . S
H1905 C1917 0.930 . S
H1906 C1919 0.930 . S
H1907 C1920 0.930 . S
H1908 C1924 0.959 . S
H1909 C1924 0.959 . S
H1910 C1924 0.961 . S
H1911 C1925 0.960 . S
H1912 C1925 0.961 . S
H1913 C1925 0.959 . S
H1914 C1928 0.929 . S
H1915 C1929 0.931 . S
H1916 C1931 0.930 . S
C1917 H1905 0.930 . S
C1917 C1918 1.399 . S
C1917 C1922 1.399 . S
C1918 C1917 1.399 . S
C1918 C1919 1.376 . S
C1919 H1906 0.930 . S
C1919 C1918 1.376 . S
C1919 C1920 1.388 . S
C1920 H1907 0.930 . S
C1920 C1919 1.388 . S
C1920 C1921 1.390 . S
C1921 C1920 1.390 . S
C1921 C1922 1.394 . S
C1921 C1927 1.465 . S
C1922 C1917 1.399 . S
C1922 C1921 1.394 . S
C1922 C1923 1.516 . S
C1923 C1922 1.516 . S
C1923 C1924 1.502 . S
C1923 C1925 1.561 . S
C1923 C1926 1.526 . S
C1924 H1908 0.959 . S
C1924 H1909 0.959 . S
C1924 H1910 0.961 . S
C1924 C1923 1.502 . S
C1925 H1911 0.960 . S
C1925 H1912 0.961 . S
C1925 H1913 0.959 . S
C1925 C1923 1.561 . S
C1926 C1923 1.526 . S
C1926 C1927 1.396 . S
C1926 C1931 1.390 . S
C1927 C1921 1.465 . S
C1927 C1926 1.396 . S
C1927 C1928 1.399 . S
C1928 H1914 0.929 . S
C1928 C1927 1.399 . S
C1928 C1929 1.385 . S
C1929 H1915 0.931 . S
C1929 C1928 1.385 . S
C1929 C1930 1.389 . S
C1930 C1929 1.389 . S
C1930 C1931 1.387 . S
C1931 H1916 0.930 . S
C1931 C1926 1.390 . S
C1931 C1930 1.387 . S
H1932 C1944 0.930 . S
H1933 C1946 0.944 . S
H1934 C1947 0.930 . S
H1935 C1951 0.959 . S
H1936 C1951 0.959 . S
H1937 C1951 0.961 . S
H1938 C1952 0.960 . S
H1939 C1952 0.961 . S
H1940 C1952 0.959 . S
H1941 C1955 0.929 . S
H1942 C1956 0.931 1_655 S
H1943 C1958 0.930 . S
C1944 H1932 0.930 . S
C1944 C1945 1.399 . S
C1944 C1949 1.399 . S
C1945 C1944 1.399 . S
C1945 C1946 1.376 . S
C1946 H1933 0.944 . S
C1946 C1945 1.376 . S
C1946 C1947 1.388 . S
C1947 H1934 0.930 . S
C1947 C1946 1.388 . S
C1947 C1948 1.390 . S
C1948 C1947 1.390 . S
C1948 C1949 1.394 . S
C1948 C1954 1.465 . S
C1949 C1944 1.399 . S
C1949 C1948 1.394 . S
C1949 C1950 1.516 . S
C1950 C1949 1.516 . S
C1950 C1951 1.502 . S
C1950 C1952 1.561 . S
C1950 C1953 1.526 . S
C1951 H1935 0.959 . S
C1951 H1936 0.959 . S
C1951 H1937 0.961 . S
C1951 C1950 1.502 . S
C1952 H1938 0.960 . S
C1952 H1939 0.961 . S
C1952 H1940 0.959 . S
C1952 C1950 1.561 . S
C1953 C1950 1.526 . S
C1953 C1954 1.396 . S
C1953 C1958 1.390 . S
C1954 C1948 1.465 . S
C1954 C1953 1.396 . S
C1954 C1955 1.399 . S
C1955 H1941 0.929 . S
C1955 C1954 1.399 . S
C1955 C1956 1.385 . S
C1956 H1942 0.931 1_455 S
C1956 C1955 1.385 . S
C1956 C1957 1.389 . S
C1957 C1956 1.389 . S
C1957 C1958 1.387 . S
C1958 H1943 0.930 . S
C1958 C1953 1.390 . S
C1958 C1957 1.387 . S
H1959 C1971 0.930 . S
H1960 C1973 0.930 . S
H1961 C1974 0.930 . S
H1962 C1978 0.959 . S
H1963 C1978 0.959 . S
H1964 C1978 0.961 . S
H1965 C1979 0.960 . S
H1966 C1979 0.961 . S
H1967 C1979 0.959 . S
H1968 C1982 0.929 . S
H1969 C1983 0.931 . S
H1970 C1985 0.930 . S
C1971 H1959 0.930 . S
C1971 C1972 1.399 . S
C1971 C1976 1.399 . S
C1972 C1971 1.399 . S
C1972 C1973 1.376 . S
C1973 H1960 0.930 . S
C1973 C1972 1.376 . S
C1973 C1974 1.388 . S
C1974 H1961 0.930 . S
C1974 C1973 1.388 . S
C1974 C1975 1.390 . S
C1975 C1974 1.390 . S
C1975 C1976 1.394 . S
C1975 C1981 1.465 . S
C1976 C1971 1.399 . S
C1976 C1975 1.394 . S
C1976 C1977 1.516 . S
C1977 C1976 1.516 . S
C1977 C1978 1.502 . S
C1977 C1979 1.561 . S
C1977 C1980 1.526 . S
C1978 H1962 0.959 . S
C1978 H1963 0.959 . S
C1978 H1964 0.961 . S
C1978 C1977 1.502 . S
C1979 H1965 0.960 . S
C1979 H1966 0.961 . S
C1979 H1967 0.959 . S
C1979 C1977 1.561 . S
C1980 C1977 1.526 . S
C1980 C1981 1.396 . S
C1980 C1985 1.390 . S
C1981 C1975 1.465 . S
C1981 C1980 1.396 . S
C1981 C1982 1.399 . S
C1982 H1968 0.929 . S
C1982 C1981 1.399 . S
C1982 C1983 1.385 . S
C1983 H1969 0.931 . S
C1983 C1982 1.385 . S
C1983 C1984 1.389 . S
C1984 C1983 1.389 . S
C1984 C1985 1.387 . S
C1985 H1970 0.930 . S
C1985 C1980 1.390 . S
C1985 C1984 1.387 . S
H1986 C1998 0.930 . S
H1987 C2000 0.930 . S
H1988 C2001 0.930 . S
H1989 C2005 0.959 . S
H1990 C2005 0.959 . S
H1991 C2005 0.961 . S
H1992 C2006 0.960 . S
H1993 C2006 0.961 . S
H1994 C2006 0.959 . S
H1995 C2009 0.929 . S
H1996 C2010 0.931 . S
H1997 C2012 0.930 . S
C1998 H1986 0.930 . S
C1998 C1999 1.399 . S
C1998 C2003 1.399 . S
C1999 C1998 1.399 . S
C1999 C2000 1.376 . S
C2000 H1987 0.930 . S
C2000 C1999 1.376 . S
C2000 C2001 1.388 . S
C2001 H1988 0.930 . S
C2001 C2000 1.388 . S
C2001 C2002 1.390 . S
C2002 C2001 1.390 . S
C2002 C2003 1.394 . S
C2002 C2008 1.465 . S
C2003 C1998 1.399 . S
C2003 C2002 1.394 . S
C2003 C2004 1.516 . S
C2004 C2003 1.516 . S
C2004 C2005 1.502 . S
C2004 C2006 1.561 . S
C2004 C2007 1.526 . S
C2005 H1989 0.959 . S
C2005 H1990 0.959 . S
C2005 H1991 0.961 . S
C2005 C2004 1.502 . S
C2006 H1992 0.960 . S
C2006 H1993 0.961 . S
C2006 H1994 0.959 . S
C2006 C2004 1.561 . S
C2007 C2004 1.526 . S
C2007 C2008 1.396 . S
C2007 C2012 1.390 . S
C2008 C2002 1.465 . S
C2008 C2007 1.396 . S
C2008 C2009 1.399 . S
C2009 H1995 0.929 . S
C2009 C2008 1.399 . S
C2009 C2010 1.385 . S
C2010 H1996 0.931 . S
C2010 C2009 1.385 . S
C2010 C2011 1.389 . S
C2011 C2010 1.389 . S
C2011 C2012 1.387 . S
C2012 H1997 0.930 . S
C2012 C2007 1.390 . S
C2012 C2011 1.387 . S
H2013 C2025 0.930 . S
H2014 C2027 0.930 . S
H2015 C2028 0.930 . S
H2016 C2032 0.959 . S
H2017 C2032 0.959 . S
H2018 C2032 0.961 . S
H2019 C2033 0.960 . S
H2020 C2033 0.961 . S
H2021 C2033 0.959 . S
H2022 C2036 0.929 . S
H2023 C2037 0.931 . S
H2024 C2039 0.930 . S
C2025 H2013 0.930 . S
C2025 C2026 1.399 . S
C2025 C2030 1.399 . S
C2026 C2025 1.399 . S
C2026 C2027 1.376 . S
C2027 H2014 0.930 . S
C2027 C2026 1.376 . S
C2027 C2028 1.388 . S
C2028 H2015 0.930 . S
C2028 C2027 1.388 . S
C2028 C2029 1.390 . S
C2029 C2028 1.390 . S
C2029 C2030 1.394 . S
C2029 C2035 1.465 . S
C2030 C2025 1.399 . S
C2030 C2029 1.394 . S
C2030 C2031 1.516 . S
C2031 C2030 1.516 . S
C2031 C2032 1.502 . S
C2031 C2033 1.561 . S
C2031 C2034 1.526 . S
C2032 H2016 0.959 . S
C2032 H2017 0.959 . S
C2032 H2018 0.961 . S
C2032 C2031 1.502 . S
C2033 H2019 0.960 . S
C2033 H2020 0.961 . S
C2033 H2021 0.959 . S
C2033 C2031 1.561 . S
C2034 C2031 1.526 . S
C2034 C2035 1.396 . S
C2034 C2039 1.390 . S
C2035 C2029 1.465 . S
C2035 C2034 1.396 . S
C2035 C2036 1.399 . S
C2036 H2022 0.929 . S
C2036 C2035 1.399 . S
C2036 C2037 1.385 . S
C2037 H2023 0.931 . S
C2037 C2036 1.385 . S
C2037 C2038 1.389 . S
C2038 C2037 1.389 . S
C2038 C2039 1.387 . S
C2039 H2024 0.930 . S
C2039 C2034 1.390 . S
C2039 C2038 1.387 . S
H2040 C2052 0.930 . S
H2041 C2054 0.930 . S
H2042 C2055 0.930 . S
H2043 C2059 0.959 . S
H2044 C2059 0.959 . S
H2045 C2059 0.961 . S
H2046 C2060 0.960 . S
H2047 C2060 0.961 . S
H2048 C2060 0.959 . S
H2049 C2063 0.929 . S
H2050 C2064 0.931 . S
H2051 C2066 0.930 . S
C2052 H2040 0.930 . S
C2052 C2053 1.399 . S
C2052 C2057 1.399 . S
C2053 C2052 1.399 . S
C2053 C2054 1.376 . S
C2054 H2041 0.930 . S
C2054 C2053 1.376 . S
C2054 C2055 1.388 . S
C2055 H2042 0.930 . S
C2055 C2054 1.388 . S
C2055 C2056 1.390 . S
C2056 C2055 1.390 . S
C2056 C2057 1.394 . S
C2056 C2062 1.465 . S
C2057 C2052 1.399 . S
C2057 C2056 1.394 . S
C2057 C2058 1.516 . S
C2058 C2057 1.516 . S
C2058 C2059 1.502 . S
C2058 C2060 1.561 . S
C2058 C2061 1.526 . S
C2059 H2043 0.959 . S
C2059 H2044 0.959 . S
C2059 H2045 0.961 . S
C2059 C2058 1.502 . S
C2060 H2046 0.960 . S
C2060 H2047 0.961 . S
C2060 H2048 0.959 . S
C2060 C2058 1.561 . S
C2061 C2058 1.526 . S
C2061 C2062 1.396 . S
C2061 C2066 1.390 . S
C2062 C2056 1.465 . S
C2062 C2061 1.396 . S
C2062 C2063 1.399 . S
C2063 H2049 0.929 . S
C2063 C2062 1.399 . S
C2063 C2064 1.385 . S
C2064 H2050 0.931 . S
C2064 C2063 1.385 . S
C2064 C2065 1.389 . S
C2065 C2064 1.389 . S
C2065 C2066 1.387 . S
C2066 H2051 0.930 . S
C2066 C2061 1.390 . S
C2066 C2065 1.387 . S
H2067 C2079 0.930 . S
H2068 C2081 0.930 . S
H2069 C2082 0.930 . S
H2070 C2086 0.959 . S
H2071 C2086 0.959 . S
H2072 C2086 0.961 . S
H2073 C2087 0.960 . S
H2074 C2087 0.961 . S
H2075 C2087 0.959 . S
H2076 C2090 0.929 . S
H2077 C2091 0.931 . S
H2078 C2093 0.930 . S
C2079 H2067 0.930 . S
C2079 C2080 1.399 . S
C2079 C2084 1.399 . S
C2080 C2079 1.399 . S
C2080 C2081 1.376 . S
C2081 H2068 0.930 . S
C2081 C2080 1.376 . S
C2081 C2082 1.388 . S
C2082 H2069 0.930 . S
C2082 C2081 1.388 . S
C2082 C2083 1.390 . S
C2083 C2082 1.390 . S
C2083 C2084 1.394 . S
C2083 C2089 1.465 . S
C2084 C2079 1.399 . S
C2084 C2083 1.394 . S
C2084 C2085 1.516 . S
C2085 C2084 1.516 . S
C2085 C2086 1.502 . S
C2085 C2087 1.561 . S
C2085 C2088 1.526 . S
C2086 H2070 0.959 . S
C2086 H2071 0.959 . S
C2086 H2072 0.961 . S
C2086 C2085 1.502 . S
C2087 H2073 0.960 . S
C2087 H2074 0.961 . S
C2087 H2075 0.959 . S
C2087 C2085 1.561 . S
C2088 C2085 1.526 . S
C2088 C2089 1.396 . S
C2088 C2093 1.390 . S
C2089 C2083 1.465 . S
C2089 C2088 1.396 . S
C2089 C2090 1.399 . S
C2090 H2076 0.929 . S
C2090 C2089 1.399 . S
C2090 C2091 1.385 . S
C2091 H2077 0.931 . S
C2091 C2090 1.385 . S
C2091 C2092 1.389 . S
C2092 C2091 1.389 . S
C2092 C2093 1.387 . S
C2093 H2078 0.930 . S
C2093 C2088 1.390 . S
C2093 C2092 1.387 . S
H2094 C2106 0.930 . S
H2095 C2108 0.930 . S
H2096 C2109 0.930 . S
H2097 C2113 0.959 . S
H2098 C2113 0.959 . S
H2099 C2113 0.961 . S
H2100 C2114 0.960 . S
H2101 C2114 0.961 . S
H2102 C2114 0.959 . S
H2103 C2117 0.929 . S
H2104 C2118 0.931 . S
H2105 C2120 0.930 . S
C2106 H2094 0.930 . S
C2106 C2107 1.399 . S
C2106 C2111 1.399 . S
C2107 C2106 1.399 . S
C2107 C2108 1.376 . S
C2108 H2095 0.930 . S
C2108 C2107 1.376 . S
C2108 C2109 1.388 . S
C2109 H2096 0.930 . S
C2109 C2108 1.388 . S
C2109 C2110 1.390 . S
C2110 C2109 1.390 . S
C2110 C2111 1.394 . S
C2110 C2116 1.465 . S
C2111 C2106 1.399 . S
C2111 C2110 1.394 . S
C2111 C2112 1.516 . S
C2112 C2111 1.516 . S
C2112 C2113 1.502 . S
C2112 C2114 1.561 . S
C2112 C2115 1.526 . S
C2113 H2097 0.959 . S
C2113 H2098 0.959 . S
C2113 H2099 0.961 . S
C2113 C2112 1.502 . S
C2114 H2100 0.960 . S
C2114 H2101 0.961 . S
C2114 H2102 0.959 . S
C2114 C2112 1.561 . S
C2115 C2112 1.526 . S
C2115 C2116 1.396 . S
C2115 C2120 1.390 . S
C2116 C2110 1.465 . S
C2116 C2115 1.396 . S
C2116 C2117 1.399 . S
C2117 H2103 0.929 . S
C2117 C2116 1.399 . S
C2117 C2118 1.385 . S
C2118 H2104 0.931 . S
C2118 C2117 1.385 . S
C2118 C2119 1.389 . S
C2119 C2118 1.389 . S
C2119 C2120 1.387 . S
C2120 H2105 0.930 . S
C2120 C2115 1.390 . S
C2120 C2119 1.387 . S
H2121 C2133 0.930 . S
H2122 C2135 0.930 . S
H2123 C2136 0.930 . S
H2124 C2140 0.959 . S
H2125 C2140 0.959 . S
H2126 C2140 0.961 . S
H2127 C2141 0.960 . S
H2128 C2141 0.961 . S
H2129 C2141 0.959 . S
H2130 C2144 0.929 . S
H2131 C2145 0.931 1_545 S
H2132 C2147 0.930 . S
C2133 H2121 0.930 . S
C2133 C2134 1.399 . S
C2133 C2138 1.399 . S
C2134 C2133 1.399 . S
C2134 C2135 1.376 . S
C2135 H2122 0.930 . S
C2135 C2134 1.376 . S
C2135 C2136 1.388 . S
C2136 H2123 0.930 . S
C2136 C2135 1.388 . S
C2136 C2137 1.390 . S
C2137 C2136 1.390 . S
C2137 C2138 1.394 . S
C2137 C2143 1.465 . S
C2138 C2133 1.399 . S
C2138 C2137 1.394 . S
C2138 C2139 1.516 . S
C2139 C2138 1.516 . S
C2139 C2140 1.502 . S
C2139 C2141 1.561 . S
C2139 C2142 1.526 . S
C2140 H2124 0.959 . S
C2140 H2125 0.959 . S
C2140 H2126 0.961 . S
C2140 C2139 1.502 . S
C2141 H2127 0.960 . S
C2141 H2128 0.961 . S
C2141 H2129 0.959 . S
C2141 C2139 1.561 . S
C2142 C2139 1.526 . S
C2142 C2143 1.396 . S
C2142 C2147 1.390 . S
C2143 C2137 1.465 . S
C2143 C2142 1.396 . S
C2143 C2144 1.399 . S
C2144 H2130 0.929 . S
C2144 C2143 1.399 . S
C2144 C2145 1.385 . S
C2145 H2131 0.931 1_565 S
C2145 C2144 1.385 . S
C2145 C2146 1.389 . S
C2146 C2145 1.389 . S
C2146 C2147 1.387 . S
C2147 H2132 0.930 . S
C2147 C2142 1.390 . S
C2147 C2146 1.387 . S
H2148 C2160 0.930 . S
H2149 C2162 0.930 . S
H2150 C2163 0.930 . S
H2151 C2167 0.959 . S
H2152 C2167 0.959 . S
H2153 C2167 0.961 . S
H2154 C2168 0.960 . S
H2155 C2168 0.961 . S
H2156 C2168 0.959 . S
H2157 C2171 0.929 . S
H2158 C2172 0.931 . S
H2159 C2174 0.930 . S
C2160 H2148 0.930 . S
C2160 C2161 1.399 . S
C2160 C2165 1.399 . S
C2161 C2160 1.399 . S
C2161 C2162 1.376 . S
C2162 H2149 0.930 . S
C2162 C2161 1.376 . S
C2162 C2163 1.388 . S
C2163 H2150 0.930 . S
C2163 C2162 1.388 . S
C2163 C2164 1.390 . S
C2164 C2163 1.390 . S
C2164 C2165 1.394 . S
C2164 C2170 1.465 . S
C2165 C2160 1.399 . S
C2165 C2164 1.394 . S
C2165 C2166 1.516 . S
C2166 C2165 1.516 . S
C2166 C2167 1.502 . S
C2166 C2168 1.561 . S
C2166 C2169 1.526 . S
C2167 H2151 0.959 . S
C2167 H2152 0.959 . S
C2167 H2153 0.961 . S
C2167 C2166 1.502 . S
C2168 H2154 0.960 . S
C2168 H2155 0.961 . S
C2168 H2156 0.959 . S
C2168 C2166 1.561 . S
C2169 C2166 1.526 . S
C2169 C2170 1.396 . S
C2169 C2174 1.390 . S
C2170 C2164 1.465 . S
C2170 C2169 1.396 . S
C2170 C2171 1.399 . S
C2171 H2157 0.929 . S
C2171 C2170 1.399 . S
C2171 C2172 1.385 . S
C2172 H2158 0.931 . S
C2172 C2171 1.385 . S
C2172 C2173 1.389 . S
C2173 C2172 1.389 . S
C2173 C2174 1.387 . S
C2174 H2159 0.930 . S
C2174 C2169 1.390 . S
C2174 C2173 1.387 . S
H2175 C2187 0.930 . S
H2176 C2189 0.930 . S
H2177 C2190 0.930 . S
H2178 C2194 0.959 . S
H2179 C2194 0.959 . S
H2180 C2194 0.961 . S
H2181 C2195 0.960 . S
H2182 C2195 0.961 . S
H2183 C2195 0.959 . S
H2184 C2198 0.929 . S
H2185 C2199 0.931 . S
H2186 C2201 0.930 . S
C2187 H2175 0.930 . S
C2187 C2188 1.399 . S
C2187 C2192 1.399 . S
C2188 C2187 1.399 . S
C2188 C2189 1.376 . S
C2189 H2176 0.930 . S
C2189 C2188 1.376 . S
C2189 C2190 1.388 . S
C2190 H2177 0.930 . S
C2190 C2189 1.388 . S
C2190 C2191 1.390 . S
C2191 C2190 1.390 . S
C2191 C2192 1.394 . S
C2191 C2197 1.465 . S
C2192 C2187 1.399 . S
C2192 C2191 1.394 . S
C2192 C2193 1.516 . S
C2193 C2192 1.516 . S
C2193 C2194 1.502 . S
C2193 C2195 1.561 . S
C2193 C2196 1.526 . S
C2194 H2178 0.959 . S
C2194 H2179 0.959 . S
C2194 H2180 0.961 . S
C2194 C2193 1.502 . S
C2195 H2181 0.960 . S
C2195 H2182 0.961 . S
C2195 H2183 0.959 . S
C2195 C2193 1.561 . S
C2196 C2193 1.526 . S
C2196 C2197 1.396 . S
C2196 C2201 1.390 . S
C2197 C2191 1.465 . S
C2197 C2196 1.396 . S
C2197 C2198 1.399 . S
C2198 H2184 0.929 . S
C2198 C2197 1.399 . S
C2198 C2199 1.385 . S
C2199 H2185 0.931 . S
C2199 C2198 1.385 . S
C2199 C2200 1.389 . S
C2200 C2199 1.389 . S
C2200 C2201 1.387 . S
C2201 H2186 0.930 . S
C2201 C2196 1.390 . S
C2201 C2200 1.387 . S
H2202 C2214 0.930 . S
H2203 C2216 0.930 . S
H2204 C2217 0.930 . S
H2205 C2221 0.959 . S
H2206 C2221 0.959 . S
H2207 C2221 0.961 . S
H2208 C2222 0.960 . S
H2209 C2222 0.961 . S
H2210 C2222 0.959 . S
H2211 C2225 0.929 . S
H2212 C2226 0.931 . S
H2213 C2228 0.930 . S
C2214 H2202 0.930 . S
C2214 C2215 1.399 . S
C2214 C2219 1.399 . S
C2215 C2214 1.399 . S
C2215 C2216 1.376 . S
C2216 H2203 0.930 . S
C2216 C2215 1.376 . S
C2216 C2217 1.388 . S
C2217 H2204 0.930 . S
C2217 C2216 1.388 . S
C2217 C2218 1.390 . S
C2218 C2217 1.390 . S
C2218 C2219 1.394 . S
C2218 C2224 1.465 . S
C2219 C2214 1.399 . S
C2219 C2218 1.394 . S
C2219 C2220 1.516 . S
C2220 C2219 1.516 . S
C2220 C2221 1.502 . S
C2220 C2222 1.561 . S
C2220 C2223 1.526 . S
C2221 H2205 0.959 . S
C2221 H2206 0.959 . S
C2221 H2207 0.961 . S
C2221 C2220 1.502 . S
C2222 H2208 0.960 . S
C2222 H2209 0.961 . S
C2222 H2210 0.959 . S
C2222 C2220 1.561 . S
C2223 C2220 1.526 . S
C2223 C2224 1.396 . S
C2223 C2228 1.390 . S
C2224 C2218 1.465 . S
C2224 C2223 1.396 . S
C2224 C2225 1.399 . S
C2225 H2211 0.929 . S
C2225 C2224 1.399 . S
C2225 C2226 1.385 . S
C2226 H2212 0.931 . S
C2226 C2225 1.385 . S
C2226 C2227 1.389 . S
C2227 C2226 1.389 . S
C2227 C2228 1.387 . S
C2228 H2213 0.930 . S
C2228 C2223 1.390 . S
C2228 C2227 1.387 . S
H2229 C2241 0.930 . S
H2230 C2243 0.930 . S
H2231 C2244 0.930 . S
H2232 C2248 0.959 . S
H2233 C2248 0.959 . S
H2234 C2248 0.961 . S
H2235 C2249 0.960 . S
H2236 C2249 0.961 . S
H2237 C2249 0.959 . S
H2238 C2252 0.929 . S
H2239 C2253 0.931 . S
H2240 C2255 0.930 . S
C2241 H2229 0.930 . S
C2241 C2242 1.399 . S
C2241 C2246 1.399 . S
C2242 C2241 1.399 . S
C2242 C2243 1.376 . S
C2243 H2230 0.930 . S
C2243 C2242 1.376 . S
C2243 C2244 1.388 . S
C2244 H2231 0.930 . S
C2244 C2243 1.388 . S
C2244 C2245 1.390 . S
C2245 C2244 1.390 . S
C2245 C2246 1.394 . S
C2245 C2251 1.465 . S
C2246 C2241 1.399 . S
C2246 C2245 1.394 . S
C2246 C2247 1.516 . S
C2247 C2246 1.516 . S
C2247 C2248 1.502 . S
C2247 C2249 1.561 . S
C2247 C2250 1.526 . S
C2248 H2232 0.959 . S
C2248 H2233 0.959 . S
C2248 H2234 0.961 . S
C2248 C2247 1.502 . S
C2249 H2235 0.960 . S
C2249 H2236 0.961 . S
C2249 H2237 0.959 . S
C2249 C2247 1.561 . S
C2250 C2247 1.526 . S
C2250 C2251 1.396 . S
C2250 C2255 1.390 . S
C2251 C2245 1.465 . S
C2251 C2250 1.396 . S
C2251 C2252 1.399 . S
C2252 H2238 0.929 . S
C2252 C2251 1.399 . S
C2252 C2253 1.385 . S
C2253 H2239 0.931 . S
C2253 C2252 1.385 . S
C2253 C2254 1.389 . S
C2254 C2253 1.389 . S
C2254 C2255 1.387 . S
C2255 H2240 0.930 . S
C2255 C2250 1.390 . S
C2255 C2254 1.387 . S
H2256 C2268 0.930 . S
H2257 C2270 0.930 1_565 S
H2258 C2271 0.930 . S
H2259 C2275 0.959 . S
H2260 C2275 0.959 . S
H2261 C2275 0.961 . S
H2262 C2276 0.960 . S
H2263 C2276 0.961 . S
H2264 C2276 0.959 . S
H2265 C2279 0.929 . S
H2266 C2280 0.931 1_455 S
H2267 C2282 0.930 . S
C2268 H2256 0.930 . S
C2268 C2269 1.399 . S
C2268 C2273 1.399 . S
C2269 C2268 1.399 . S
C2269 C2270 1.376 . S
C2270 H2257 0.930 1_545 S
C2270 C2269 1.376 . S
C2270 C2271 1.388 . S
C2271 H2258 0.930 . S
C2271 C2270 1.388 . S
C2271 C2272 1.390 . S
C2272 C2271 1.390 . S
C2272 C2273 1.394 . S
C2272 C2278 1.465 . S
C2273 C2268 1.399 . S
C2273 C2272 1.394 . S
C2273 C2274 1.516 . S
C2274 C2273 1.516 . S
C2274 C2275 1.502 . S
C2274 C2276 1.561 . S
C2274 C2277 1.526 . S
C2275 H2259 0.959 . S
C2275 H2260 0.959 . S
C2275 H2261 0.961 . S
C2275 C2274 1.502 . S
C2276 H2262 0.960 . S
C2276 H2263 0.961 . S
C2276 H2264 0.959 . S
C2276 C2274 1.561 . S
C2277 C2274 1.526 . S
C2277 C2278 1.396 . S
C2277 C2282 1.390 . S
C2278 C2272 1.465 . S
C2278 C2277 1.396 . S
C2278 C2279 1.399 . S
C2279 H2265 0.929 . S
C2279 C2278 1.399 . S
C2279 C2280 1.385 . S
C2280 H2266 0.931 1_655 S
C2280 C2279 1.385 . S
C2280 C2281 1.389 . S
C2281 C2280 1.389 . S
C2281 C2282 1.387 . S
C2282 H2267 0.930 . S
C2282 C2277 1.390 . S
C2282 C2281 1.387 . S
H2283 C2295 0.930 . S
H2284 C2297 0.930 . S
H2285 C2298 0.930 . S
H2286 C2302 0.959 . S
H2287 C2302 0.959 . S
H2288 C2302 0.961 . S
H2289 C2303 0.960 . S
H2290 C2303 0.961 . S
H2291 C2303 0.959 . S
H2292 C2306 0.929 . S
H2293 C2307 0.931 . S
H2294 C2309 0.930 . S
C2295 H2283 0.930 . S
C2295 C2296 1.399 . S
C2295 C2300 1.399 . S
C2296 C2295 1.399 . S
C2296 C2297 1.376 . S
C2297 H2284 0.930 . S
C2297 C2296 1.376 . S
C2297 C2298 1.388 . S
C2298 H2285 0.930 . S
C2298 C2297 1.388 . S
C2298 C2299 1.390 . S
C2299 C2298 1.390 . S
C2299 C2300 1.394 . S
C2299 C2305 1.465 . S
C2300 C2295 1.399 . S
C2300 C2299 1.394 . S
C2300 C2301 1.516 . S
C2301 C2300 1.516 . S
C2301 C2302 1.502 . S
C2301 C2303 1.561 . S
C2301 C2304 1.526 . S
C2302 H2286 0.959 . S
C2302 H2287 0.959 . S
C2302 H2288 0.961 . S
C2302 C2301 1.502 . S
C2303 H2289 0.960 . S
C2303 H2290 0.961 . S
C2303 H2291 0.959 . S
C2303 C2301 1.561 . S
C2304 C2301 1.526 . S
C2304 C2305 1.396 . S
C2304 C2309 1.390 . S
C2305 C2299 1.465 . S
C2305 C2304 1.396 . S
C2305 C2306 1.399 . S
C2306 H2292 0.929 . S
C2306 C2305 1.399 . S
C2306 C2307 1.385 . S
C2307 H2293 0.931 . S
C2307 C2306 1.385 . S
C2307 C2308 1.389 . S
C2308 C2307 1.389 . S
C2308 C2309 1.387 . S
C2309 H2294 0.930 . S
C2309 C2304 1.390 . S
C2309 C2308 1.387 . S
H2310 C2322 0.930 . S
H2311 C2324 0.930 . S
H2312 C2325 0.930 . S
H2313 C2329 0.959 . S
H2314 C2329 0.959 . S
H2315 C2329 0.961 . S
H2316 C2330 0.960 . S
H2317 C2330 0.961 . S
H2318 C2330 0.959 . S
H2319 C2333 0.929 . S
H2320 C2334 0.931 . S
H2321 C2336 0.930 . S
C2322 H2310 0.930 . S
C2322 C2323 1.399 . S
C2322 C2327 1.399 . S
C2323 C2322 1.399 . S
C2323 C2324 1.376 . S
C2324 H2311 0.930 . S
C2324 C2323 1.376 . S
C2324 C2325 1.388 . S
C2325 H2312 0.930 . S
C2325 C2324 1.388 . S
C2325 C2326 1.390 . S
C2326 C2325 1.390 . S
C2326 C2327 1.394 . S
C2326 C2332 1.465 . S
C2327 C2322 1.399 . S
C2327 C2326 1.394 . S
C2327 C2328 1.516 . S
C2328 C2327 1.516 . S
C2328 C2329 1.502 . S
C2328 C2330 1.561 . S
C2328 C2331 1.526 . S
C2329 H2313 0.959 . S
C2329 H2314 0.959 . S
C2329 H2315 0.961 . S
C2329 C2328 1.502 . S
C2330 H2316 0.960 . S
C2330 H2317 0.961 . S
C2330 H2318 0.959 . S
C2330 C2328 1.561 . S
C2331 C2328 1.526 . S
C2331 C2332 1.396 . S
C2331 C2336 1.390 . S
C2332 C2326 1.465 . S
C2332 C2331 1.396 . S
C2332 C2333 1.399 . S
C2333 H2319 0.929 . S
C2333 C2332 1.399 . S
C2333 C2334 1.385 . S
C2334 H2320 0.931 . S
C2334 C2333 1.385 . S
C2334 C2335 1.389 . S
C2335 C2334 1.389 . S
C2335 C2336 1.387 . S
C2336 H2321 0.930 . S
C2336 C2331 1.390 . S
C2336 C2335 1.387 . S
H2337 C2349 0.930 . S
H2338 C2351 0.930 . S
H2339 C2352 0.930 . S
H2340 C2356 0.959 . S
H2341 C2356 0.959 . S
H2342 C2356 0.961 . S
H2343 C2357 0.960 . S
H2344 C2357 0.961 . S
H2345 C2357 0.959 . S
H2346 C2360 0.929 . S
H2347 C2361 0.931 . S
H2348 C2363 0.930 . S
C2349 H2337 0.930 . S
C2349 C2350 1.399 . S
C2349 C2354 1.399 . S
C2350 C2349 1.399 . S
C2350 C2351 1.376 . S
C2351 H2338 0.930 . S
C2351 C2350 1.376 . S
C2351 C2352 1.388 . S
C2352 H2339 0.930 . S
C2352 C2351 1.388 . S
C2352 C2353 1.390 . S
C2353 C2352 1.390 . S
C2353 C2354 1.394 . S
C2353 C2359 1.465 . S
C2354 C2349 1.399 . S
C2354 C2353 1.394 . S
C2354 C2355 1.516 . S
C2355 C2354 1.516 . S
C2355 C2356 1.502 . S
C2355 C2357 1.561 . S
C2355 C2358 1.526 . S
C2356 H2340 0.959 . S
C2356 H2341 0.959 . S
C2356 H2342 0.961 . S
C2356 C2355 1.502 . S
C2357 H2343 0.960 . S
C2357 H2344 0.961 . S
C2357 H2345 0.959 . S
C2357 C2355 1.561 . S
C2358 C2355 1.526 . S
C2358 C2359 1.396 . S
C2358 C2363 1.390 . S
C2359 C2353 1.465 . S
C2359 C2358 1.396 . S
C2359 C2360 1.399 . S
C2360 H2346 0.929 . S
C2360 C2359 1.399 . S
C2360 C2361 1.385 . S
C2361 H2347 0.931 . S
C2361 C2360 1.385 . S
C2361 C2362 1.389 . S
C2362 C2361 1.389 . S
C2362 C2363 1.387 . S
C2363 H2348 0.930 . S
C2363 C2358 1.390 . S
C2363 C2362 1.387 . S
H2364 C2376 0.930 . S
H2365 C2378 0.930 . S
H2366 C2379 0.930 . S
H2367 C2383 0.959 . S
H2368 C2383 0.959 . S
H2369 C2383 0.961 . S
H2370 C2384 0.960 . S
H2371 C2384 0.961 . S
H2372 C2384 0.959 . S
H2373 C2387 0.929 . S
H2374 C2388 0.931 . S
H2375 C2390 0.930 . S
C2376 H2364 0.930 . S
C2376 C2377 1.399 . S
C2376 C2381 1.399 . S
C2377 C2376 1.399 . S
C2377 C2378 1.376 . S
C2378 H2365 0.930 . S
C2378 C2377 1.376 . S
C2378 C2379 1.388 . S
C2379 H2366 0.930 . S
C2379 C2378 1.388 . S
C2379 C2380 1.390 . S
C2380 C2379 1.390 . S
C2380 C2381 1.394 . S
C2380 C2386 1.465 . S
C2381 C2376 1.399 . S
C2381 C2380 1.394 . S
C2381 C2382 1.516 . S
C2382 C2381 1.516 . S
C2382 C2383 1.502 . S
C2382 C2384 1.561 . S
C2382 C2385 1.526 . S
C2383 H2367 0.959 . S
C2383 H2368 0.959 . S
C2383 H2369 0.961 . S
C2383 C2382 1.502 . S
C2384 H2370 0.960 . S
C2384 H2371 0.961 . S
C2384 H2372 0.959 . S
C2384 C2382 1.561 . S
C2385 C2382 1.526 . S
C2385 C2386 1.396 . S
C2385 C2390 1.390 . S
C2386 C2380 1.465 . S
C2386 C2385 1.396 . S
C2386 C2387 1.399 . S
C2387 H2373 0.929 . S
C2387 C2386 1.399 . S
C2387 C2388 1.385 . S
C2388 H2374 0.931 . S
C2388 C2387 1.385 . S
C2388 C2389 1.389 . S
C2389 C2388 1.389 . S
C2389 C2390 1.387 . S
C2390 H2375 0.930 . S
C2390 C2385 1.390 . S
C2390 C2389 1.387 . S
H2391 C2403 0.930 . S
H2392 C2405 0.930 . S
H2393 C2406 0.930 . S
H2394 C2410 0.959 . S
H2395 C2410 0.959 . S
H2396 C2410 0.961 . S
H2397 C2411 0.960 . S
H2398 C2411 0.961 . S
H2399 C2411 0.959 . S
H2400 C2414 0.929 . S
H2401 C2415 0.931 . S
H2402 C2417 0.930 . S
C2403 H2391 0.930 . S
C2403 C2404 1.399 . S
C2403 C2408 1.399 . S
C2404 C2403 1.399 . S
C2404 C2405 1.376 . S
C2405 H2392 0.930 . S
C2405 C2404 1.376 . S
C2405 C2406 1.388 . S
C2406 H2393 0.930 . S
C2406 C2405 1.388 . S
C2406 C2407 1.390 . S
C2407 C2406 1.390 . S
C2407 C2408 1.394 . S
C2407 C2413 1.465 . S
C2408 C2403 1.399 . S
C2408 C2407 1.394 . S
C2408 C2409 1.516 . S
C2409 C2408 1.516 . S
C2409 C2410 1.502 . S
C2409 C2411 1.561 . S
C2409 C2412 1.526 . S
C2410 H2394 0.959 . S
C2410 H2395 0.959 . S
C2410 H2396 0.961 . S
C2410 C2409 1.502 . S
C2411 H2397 0.960 . S
C2411 H2398 0.961 . S
C2411 H2399 0.959 . S
C2411 C2409 1.561 . S
C2412 C2409 1.526 . S
C2412 C2413 1.396 . S
C2412 C2417 1.390 . S
C2413 C2407 1.465 . S
C2413 C2412 1.396 . S
C2413 C2414 1.399 . S
C2414 H2400 0.929 . S
C2414 C2413 1.399 . S
C2414 C2415 1.385 . S
C2415 H2401 0.931 . S
C2415 C2414 1.385 . S
C2415 C2416 1.389 . S
C2416 C2415 1.389 . S
C2416 C2417 1.387 . S
C2417 H2402 0.930 . S
C2417 C2412 1.390 . S
C2417 C2416 1.387 . S
H2418 C2430 0.930 . S
H2419 C2432 0.930 . S
H2420 C2433 0.930 . S
H2421 C2437 0.959 . S
H2422 C2437 0.959 . S
H2423 C2437 0.961 . S
H2424 C2438 0.960 . S
H2425 C2438 0.961 . S
H2426 C2438 0.959 . S
H2427 C2441 0.929 . S
H2428 C2442 0.931 . S
H2429 C2444 0.930 . S
C2430 H2418 0.930 . S
C2430 C2431 1.399 . S
C2430 C2435 1.399 . S
C2431 C2430 1.399 . S
C2431 C2432 1.376 . S
C2432 H2419 0.930 . S
C2432 C2431 1.376 . S
C2432 C2433 1.388 . S
C2433 H2420 0.930 . S
C2433 C2432 1.388 . S
C2433 C2434 1.390 . S
C2434 C2433 1.390 . S
C2434 C2435 1.394 . S
C2434 C2440 1.465 . S
C2435 C2430 1.399 . S
C2435 C2434 1.394 . S
C2435 C2436 1.516 . S
C2436 C2435 1.516 . S
C2436 C2437 1.502 . S
C2436 C2438 1.561 . S
C2436 C2439 1.526 . S
C2437 H2421 0.959 . S
C2437 H2422 0.959 . S
C2437 H2423 0.961 . S
C2437 C2436 1.502 . S
C2438 H2424 0.960 . S
C2438 H2425 0.961 . S
C2438 H2426 0.959 . S
C2438 C2436 1.561 . S
C2439 C2436 1.526 . S
C2439 C2440 1.396 . S
C2439 C2444 1.390 . S
C2440 C2434 1.465 . S
C2440 C2439 1.396 . S
C2440 C2441 1.399 . S
C2441 H2427 0.929 . S
C2441 C2440 1.399 . S
C2441 C2442 1.385 . S
C2442 H2428 0.931 . S
C2442 C2441 1.385 . S
C2442 C2443 1.389 . S
C2443 C2442 1.389 . S
C2443 C2444 1.387 . S
C2444 H2429 0.930 . S
C2444 C2439 1.390 . S
C2444 C2443 1.387 . S
H2445 C2457 0.930 . S
H2446 C2459 0.930 . S
H2447 C2460 0.930 . S
H2448 C2464 0.959 . S
H2449 C2464 0.959 . S
H2450 C2464 0.961 . S
H2451 C2465 0.960 . S
H2452 C2465 0.961 . S
H2453 C2465 0.959 . S
H2454 C2468 0.929 . S
H2455 C2469 0.931 . S
H2456 C2471 0.930 . S
C2457 H2445 0.930 . S
C2457 C2458 1.399 . S
C2457 C2462 1.399 . S
C2458 C2457 1.399 . S
C2458 C2459 1.376 . S
C2459 H2446 0.930 . S
C2459 C2458 1.376 . S
C2459 C2460 1.388 . S
C2460 H2447 0.930 . S
C2460 C2459 1.388 . S
C2460 C2461 1.390 . S
C2461 C2460 1.390 . S
C2461 C2462 1.394 . S
C2461 C2467 1.465 . S
C2462 C2457 1.399 . S
C2462 C2461 1.394 . S
C2462 C2463 1.516 . S
C2463 C2462 1.516 . S
C2463 C2464 1.502 . S
C2463 C2465 1.561 . S
C2463 C2466 1.526 . S
C2464 H2448 0.959 . S
C2464 H2449 0.959 . S
C2464 H2450 0.961 . S
C2464 C2463 1.502 . S
C2465 H2451 0.960 . S
C2465 H2452 0.961 . S
C2465 H2453 0.959 . S
C2465 C2463 1.561 . S
C2466 C2463 1.526 . S
C2466 C2467 1.396 . S
C2466 C2471 1.390 . S
C2467 C2461 1.465 . S
C2467 C2466 1.396 . S
C2467 C2468 1.399 . S
C2468 H2454 0.929 . S
C2468 C2467 1.399 . S
C2468 C2469 1.385 . S
C2469 H2455 0.931 . S
C2469 C2468 1.385 . S
C2469 C2470 1.389 . S
C2470 C2469 1.389 . S
C2470 C2471 1.387 . S
C2471 H2456 0.930 . S
C2471 C2466 1.390 . S
C2471 C2470 1.387 . S
C541 C7 1.780 . S
C553 C401 1.725 . S
C568 C427 1.753 . S
C580 C29 1.785 . S
C595 C50 1.783 . S
C607 C361 1.732 . S
C622 C72 1.789 . S
C634 C379 1.754 . S
C649 C489 1.748 . S
C661 C95 1.788 . S
C676 C116 1.760 . S
C688 C467 1.712 . S
C703 C515 1.745 . S
C715 C138 1.788 . S
C730 C161 1.760 . S
C742 C449 1.691 . S
C757 C183 1.787 . S
C769 C291 1.743 . S
C784 C204 1.778 . S
C796 C335 1.720 . S
C811 C313 1.716 . S
C823 C226 1.776 . S
C838 C249 1.780 . S
C850 C269 1.746 . S
C865 C273 1.785 . S
C877 C139 1.741 . S
C892 C295 1.764 . S
C904 C160 1.715 . S
C919 C317 1.783 . S
C931 C94 1.737 . S
C946 C117 1.743 . S
C958 C339 1.786 . S
C973 C357 1.786 . S
C985 C227 1.752 . S
C1000 C205 1.686 . S
C1012 C383 1.754 . S
C1027 C248 1.688 . S
C1039 C405 1.757 . S
C1054 C182 1.701 . S
C1066 C423 1.759 . S
C1081 C28 1.747 . S
C1093 C445 1.782 . S
C1108 C73 1.702 . S
C1120 C471 1.766 . S
C1135 C51 1.688 . S
C1147 C493 1.757 . S
C1162 C511 1.762 . S
C1174 C6 1.712 . S
C1189 C96 1.200 . S
C1201 C9 1.143 . S
C1216 C114 1.202 . S
C1228 C31 1.133 . S
C1243 C136 1.201 . S
C1255 C49 1.145 . S
C1270 C162 1.202 . S
C1282 C71 1.133 . S
C1297 C97 1.087 . S
C1309 C184 1.212 . S
C1324 C115 1.093 . S
C1336 C250 1.212 . S
C1351 C137 1.150 . S
C1363 C202 1.200 . S
C1378 C163 1.131 . S
C1390 C224 1.202 . S
C1405 C185 1.195 . S
C1417 C8 1.189 . S
C1432 C203 1.187 . S
C1444 C48 1.191 . S
C1459 C225 1.102 . S
C1471 C70 1.209 . S
C1486 C30 1.207 . S
C1498 C251 1.109 . S
C1513 C356 1.188 . S
C1525 C271 1.188 . S
C1540 C382 1.215 . S
C1552 C293 1.090 . S
C1567 C315 1.121 . S
C1579 C404 1.197 . S
C1594 C337 1.134 . S
C1606 C422 1.194 . S
C1621 C444 1.195 . S
C1633 C358 1.126 . S
C1648 C381 1.193 . S
C1660 C510 1.189 . S
C1675 C470 1.204 . S
C1687 C403 1.089 . S
C1702 C424 1.195 . S
C1714 C492 1.190 . S
C1729 C272 1.188 . S
C1741 C446 1.184 . S
C1756 C469 1.179 . S
C1768 C316 1.201 . S
C1783 C491 1.089 . S
C1795 C338 1.204 . S
C1810 C294 1.211 . S
C1822 C512 1.075 . S
C1837 C4 1.306 . S
C1849 C207 1.288 1_554 S
C1864 C229 1.286 . S
C1876 C26 1.278 . S
C1891 C181 1.313 1_556 S
C1903 C52 1.280 . S
C1918 C247 1.310 . S
C1930 C74 1.297 . S
C1945 C92 1.282 . S
C1957 C75 1.285 1_455 S
C1972 C53 1.312 . S
C1984 C118 1.288 . S
C1999 C140 1.306 . S
C2011 C27 1.287 . S
C2026 C5 1.308 1_655 S
C2038 C158 1.304 . S
C2053 C180 1.304 . S
C2065 C119 1.307 1_545 S
C2080 C206 1.286 . S
C2092 C159 1.285 . S
C2107 C228 1.268 . S
C2119 C141 1.311 . S
C2134 C246 1.276 . S
C2146 C93 1.287 1_565 S
C2161 C268 1.295 . S
C2173 C468 1.313 1_556 S
C2188 C290 1.294 . S
C2200 C490 1.312 . S
C2215 C447 1.305 1_554 S
C2227 C312 1.270 . S
C2242 C513 1.293 . S
C2254 C334 1.303 . S
C2269 C360 1.267 . S
C2281 C336 1.303 1_655 S
C2296 C378 1.304 . S
C2308 C314 1.312 . S
C2323 C292 1.287 . S
C2335 C400 1.292 . S
C2350 C426 1.298 . S
C2362 C270 1.313 1_455 S
C2377 C448 1.293 . S
C2389 C380 1.312 1_565 S
C2404 C425 1.303 . S
C2416 C466 1.267 . S
C2431 C488 1.291 . S
C2443 C402 1.288 . S
C2458 C514 1.313 . S
C2470 C359 1.305 1_545 S
