# Generated by pormake.
# Topology wlu, (5)-cn, num edge types: 1
# Building blocks:
#     Node 0, Type 0, BuildingBlock: XOMCOT_clean_sbu_0, # of connection points: 5
#     Node 1, Type 0, BuildingBlock: XOMCOT_clean_sbu_0, # of connection points: 5
#     Node 2, Type 0, BuildingBlock: XOMCOT_clean_sbu_0, # of connection points: 5
#     Node 3, Type 0, BuildingBlock: XOMCOT_clean_sbu_0, # of connection points: 5
#     Node 4, Type 0, BuildingBlock: XOMCOT_clean_sbu_0, # of connection points: 5
#     Node 5, Type 0, BuildingBlock: XOMCOT_clean_sbu_0, # of connection points: 5
#     Node 6, Type 0, BuildingBlock: XOMCOT_clean_sbu_0, # of connection points: 5
#     Node 7, Type 0, BuildingBlock: XOMCOT_clean_sbu_0, # of connection points: 5
#     Node 8, Type 0, BuildingBlock: XOMCOT_clean_sbu_0, # of connection points: 5
#     Node 9, Type 0, BuildingBlock: XOMCOT_clean_sbu_0, # of connection points: 5
#     Node 10, Type 0, BuildingBlock: XOMCOT_clean_sbu_0, # of connection points: 5
#     Node 11, Type 0, BuildingBlock: XOMCOT_clean_sbu_0, # of connection points: 5
#     Node 12, Type 0, BuildingBlock: XOMCOT_clean_sbu_0, # of connection points: 5
#     Node 13, Type 0, BuildingBlock: XOMCOT_clean_sbu_0, # of connection points: 5
#     Node 14, Type 0, BuildingBlock: XOMCOT_clean_sbu_0, # of connection points: 5
#     Node 15, Type 0, BuildingBlock: XOMCOT_clean_sbu_0, # of connection points: 5
#     Node 16, Type 0, BuildingBlock: XOMCOT_clean_sbu_0, # of connection points: 5
#     Node 17, Type 0, BuildingBlock: XOMCOT_clean_sbu_0, # of connection points: 5
#     Node 18, Type 0, BuildingBlock: XOMCOT_clean_sbu_0, # of connection points: 5
#     Node 19, Type 0, BuildingBlock: XOMCOT_clean_sbu_0, # of connection points: 5
#     Node 20, Type 0, BuildingBlock: XOMCOT_clean_sbu_0, # of connection points: 5
#     Node 21, Type 0, BuildingBlock: XOMCOT_clean_sbu_0, # of connection points: 5
#     Node 22, Type 0, BuildingBlock: XOMCOT_clean_sbu_0, # of connection points: 5
#     Node 23, Type 0, BuildingBlock: XOMCOT_clean_sbu_0, # of connection points: 5
#     Node 24, Type 0, BuildingBlock: XOMCOT_clean_sbu_0, # of connection points: 5
#     Node 25, Type 0, BuildingBlock: XOMCOT_clean_sbu_0, # of connection points: 5
#     Node 26, Type 0, BuildingBlock: XOMCOT_clean_sbu_0, # of connection points: 5
#     Node 27, Type 0, BuildingBlock: XOMCOT_clean_sbu_0, # of connection points: 5
#     Node 28, Type 0, BuildingBlock: XOMCOT_clean_sbu_0, # of connection points: 5
#     Node 29, Type 0, BuildingBlock: XOMCOT_clean_sbu_0, # of connection points: 5
#     Node 30, Type 0, BuildingBlock: XOMCOT_clean_sbu_0, # of connection points: 5
#     Node 31, Type 0, BuildingBlock: XOMCOT_clean_sbu_0, # of connection points: 5
#     Node 32, Type 0, BuildingBlock: XOMCOT_clean_sbu_0, # of connection points: 5
#     Node 33, Type 0, BuildingBlock: XOMCOT_clean_sbu_0, # of connection points: 5
#     Node 34, Type 0, BuildingBlock: XOMCOT_clean_sbu_0, # of connection points: 5
#     Node 35, Type 0, BuildingBlock: XOMCOT_clean_sbu_0, # of connection points: 5
#     Edge 36, Type (0, 0), BuildingBlock: XIVTED_clean_linker_0, # of connection points: 2
#     Edge 37, Type (0, 0), BuildingBlock: XIVTED_clean_linker_0, # of connection points: 2
#     Edge 38, Type (0, 0), BuildingBlock: XIVTED_clean_linker_0, # of connection points: 2
#     Edge 39, Type (0, 0), BuildingBlock: XIVTED_clean_linker_0, # of connection points: 2
#     Edge 40, Type (0, 0), BuildingBlock: XIVTED_clean_linker_0, # of connection points: 2
#     Edge 41, Type (0, 0), BuildingBlock: XIVTED_clean_linker_0, # of connection points: 2
#     Edge 42, Type (0, 0), BuildingBlock: XIVTED_clean_linker_0, # of connection points: 2
#     Edge 43, Type (0, 0), BuildingBlock: XIVTED_clean_linker_0, # of connection points: 2
#     Edge 44, Type (0, 0), BuildingBlock: XIVTED_clean_linker_0, # of connection points: 2
#     Edge 45, Type (0, 0), BuildingBlock: XIVTED_clean_linker_0, # of connection points: 2
#     Edge 46, Type (0, 0), BuildingBlock: XIVTED_clean_linker_0, # of connection points: 2
#     Edge 47, Type (0, 0), BuildingBlock: XIVTED_clean_linker_0, # of connection points: 2
#     Edge 48, Type (0, 0), BuildingBlock: XIVTED_clean_linker_0, # of connection points: 2
#     Edge 49, Type (0, 0), BuildingBlock: XIVTED_clean_linker_0, # of connection points: 2
#     Edge 50, Type (0, 0), BuildingBlock: XIVTED_clean_linker_0, # of connection points: 2
#     Edge 51, Type (0, 0), BuildingBlock: XIVTED_clean_linker_0, # of connection points: 2
#     Edge 52, Type (0, 0), BuildingBlock: XIVTED_clean_linker_0, # of connection points: 2
#     Edge 53, Type (0, 0), BuildingBlock: XIVTED_clean_linker_0, # of connection points: 2
#     Edge 54, Type (0, 0), BuildingBlock: XIVTED_clean_linker_0, # of connection points: 2
#     Edge 55, Type (0, 0), BuildingBlock: XIVTED_clean_linker_0, # of connection points: 2
#     Edge 56, Type (0, 0), BuildingBlock: XIVTED_clean_linker_0, # of connection points: 2
#     Edge 57, Type (0, 0), BuildingBlock: XIVTED_clean_linker_0, # of connection points: 2
#     Edge 58, Type (0, 0), BuildingBlock: XIVTED_clean_linker_0, # of connection points: 2
#     Edge 59, Type (0, 0), BuildingBlock: XIVTED_clean_linker_0, # of connection points: 2
#     Edge 60, Type (0, 0), BuildingBlock: XIVTED_clean_linker_0, # of connection points: 2
#     Edge 61, Type (0, 0), BuildingBlock: XIVTED_clean_linker_0, # of connection points: 2
#     Edge 62, Type (0, 0), BuildingBlock: XIVTED_clean_linker_0, # of connection points: 2
#     Edge 63, Type (0, 0), BuildingBlock: XIVTED_clean_linker_0, # of connection points: 2
#     Edge 64, Type (0, 0), BuildingBlock: XIVTED_clean_linker_0, # of connection points: 2
#     Edge 65, Type (0, 0), BuildingBlock: XIVTED_clean_linker_0, # of connection points: 2
#     Edge 66, Type (0, 0), BuildingBlock: XIVTED_clean_linker_0, # of connection points: 2
#     Edge 67, Type (0, 0), BuildingBlock: XIVTED_clean_linker_0, # of connection points: 2
#     Edge 68, Type (0, 0), BuildingBlock: XIVTED_clean_linker_0, # of connection points: 2
#     Edge 69, Type (0, 0), BuildingBlock: XIVTED_clean_linker_0, # of connection points: 2
#     Edge 70, Type (0, 0), BuildingBlock: XIVTED_clean_linker_0, # of connection points: 2
#     Edge 71, Type (0, 0), BuildingBlock: XIVTED_clean_linker_0, # of connection points: 2
#     Edge 72, Type (0, 0), BuildingBlock: XIVTED_clean_linker_0, # of connection points: 2
#     Edge 73, Type (0, 0), BuildingBlock: XIVTED_clean_linker_0, # of connection points: 2
#     Edge 74, Type (0, 0), BuildingBlock: XIVTED_clean_linker_0, # of connection points: 2
#     Edge 75, Type (0, 0), BuildingBlock: XIVTED_clean_linker_0, # of connection points: 2
#     Edge 76, Type (0, 0), BuildingBlock: XIVTED_clean_linker_0, # of connection points: 2
#     Edge 77, Type (0, 0), BuildingBlock: XIVTED_clean_linker_0, # of connection points: 2
#     Edge 78, Type (0, 0), BuildingBlock: XIVTED_clean_linker_0, # of connection points: 2
#     Edge 79, Type (0, 0), BuildingBlock: XIVTED_clean_linker_0, # of connection points: 2
#     Edge 80, Type (0, 0), BuildingBlock: XIVTED_clean_linker_0, # of connection points: 2
#     Edge 81, Type (0, 0), BuildingBlock: XIVTED_clean_linker_0, # of connection points: 2
#     Edge 82, Type (0, 0), BuildingBlock: XIVTED_clean_linker_0, # of connection points: 2
#     Edge 83, Type (0, 0), BuildingBlock: XIVTED_clean_linker_0, # of connection points: 2
#     Edge 84, Type (0, 0), BuildingBlock: XIVTED_clean_linker_0, # of connection points: 2
#     Edge 85, Type (0, 0), BuildingBlock: XIVTED_clean_linker_0, # of connection points: 2
#     Edge 86, Type (0, 0), BuildingBlock: XIVTED_clean_linker_0, # of connection points: 2
#     Edge 87, Type (0, 0), BuildingBlock: XIVTED_clean_linker_0, # of connection points: 2
#     Edge 88, Type (0, 0), BuildingBlock: XIVTED_clean_linker_0, # of connection points: 2
#     Edge 89, Type (0, 0), BuildingBlock: XIVTED_clean_linker_0, # of connection points: 2
#     Edge 90, Type (0, 0), BuildingBlock: XIVTED_clean_linker_0, # of connection points: 2
#     Edge 91, Type (0, 0), BuildingBlock: XIVTED_clean_linker_0, # of connection points: 2
#     Edge 92, Type (0, 0), BuildingBlock: XIVTED_clean_linker_0, # of connection points: 2
#     Edge 93, Type (0, 0), BuildingBlock: XIVTED_clean_linker_0, # of connection points: 2
#     Edge 94, Type (0, 0), BuildingBlock: XIVTED_clean_linker_0, # of connection points: 2
#     Edge 95, Type (0, 0), BuildingBlock: XIVTED_clean_linker_0, # of connection points: 2
#     Edge 96, Type (0, 0), BuildingBlock: XIVTED_clean_linker_0, # of connection points: 2
#     Edge 97, Type (0, 0), BuildingBlock: XIVTED_clean_linker_0, # of connection points: 2
#     Edge 98, Type (0, 0), BuildingBlock: XIVTED_clean_linker_0, # of connection points: 2
#     Edge 99, Type (0, 0), BuildingBlock: XIVTED_clean_linker_0, # of connection points: 2
#     Edge 100, Type (0, 0), BuildingBlock: XIVTED_clean_linker_0, # of connection points: 2
#     Edge 101, Type (0, 0), BuildingBlock: XIVTED_clean_linker_0, # of connection points: 2
#     Edge 102, Type (0, 0), BuildingBlock: XIVTED_clean_linker_0, # of connection points: 2
#     Edge 103, Type (0, 0), BuildingBlock: XIVTED_clean_linker_0, # of connection points: 2
#     Edge 104, Type (0, 0), BuildingBlock: XIVTED_clean_linker_0, # of connection points: 2
#     Edge 105, Type (0, 0), BuildingBlock: XIVTED_clean_linker_0, # of connection points: 2
#     Edge 106, Type (0, 0), BuildingBlock: XIVTED_clean_linker_0, # of connection points: 2
#     Edge 107, Type (0, 0), BuildingBlock: XIVTED_clean_linker_0, # of connection points: 2
#     Edge 108, Type (0, 0), BuildingBlock: XIVTED_clean_linker_0, # of connection points: 2
#     Edge 109, Type (0, 0), BuildingBlock: XIVTED_clean_linker_0, # of connection points: 2
#     Edge 110, Type (0, 0), BuildingBlock: XIVTED_clean_linker_0, # of connection points: 2
#     Edge 111, Type (0, 0), BuildingBlock: XIVTED_clean_linker_0, # of connection points: 2
#     Edge 112, Type (0, 0), BuildingBlock: XIVTED_clean_linker_0, # of connection points: 2
#     Edge 113, Type (0, 0), BuildingBlock: XIVTED_clean_linker_0, # of connection points: 2
#     Edge 114, Type (0, 0), BuildingBlock: XIVTED_clean_linker_0, # of connection points: 2
#     Edge 115, Type (0, 0), BuildingBlock: XIVTED_clean_linker_0, # of connection points: 2
#     Edge 116, Type (0, 0), BuildingBlock: XIVTED_clean_linker_0, # of connection points: 2
#     Edge 117, Type (0, 0), BuildingBlock: XIVTED_clean_linker_0, # of connection points: 2
#     Edge 118, Type (0, 0), BuildingBlock: XIVTED_clean_linker_0, # of connection points: 2
#     Edge 119, Type (0, 0), BuildingBlock: XIVTED_clean_linker_0, # of connection points: 2
#     Edge 120, Type (0, 0), BuildingBlock: XIVTED_clean_linker_0, # of connection points: 2
#     Edge 121, Type (0, 0), BuildingBlock: XIVTED_clean_linker_0, # of connection points: 2
#     Edge 122, Type (0, 0), BuildingBlock: XIVTED_clean_linker_0, # of connection points: 2
#     Edge 123, Type (0, 0), BuildingBlock: XIVTED_clean_linker_0, # of connection points: 2
#     Edge 124, Type (0, 0), BuildingBlock: XIVTED_clean_linker_0, # of connection points: 2
#     Edge 125, Type (0, 0), BuildingBlock: XIVTED_clean_linker_0, # of connection points: 2
# Relax obj value: 0.117
# Max RMSD: 0.162
# Mean RMSD: 0.160
data_MOF--net-wlu--node1-XOMCOT_clean_sbu_0--edge1-XIVTED_clean_linker_0
_symmetry_space_group_name_H-M    P1
_symmetry_Int_Tables_number       1
_symmetry_cell_setting            triclinic
loop_
_symmetry_equiv_pos_as_xyz
'x, y, z'
_cell_length_a     66.509067
_cell_length_b     66.553957
_cell_length_c     56.522723
_cell_angle_alpha  89.979681
_cell_angle_beta   89.951812
_cell_angle_gamma 120.01643
loop_
_atom_site_label
_atom_site_type_symbol
_atom_site_fract_x
_atom_site_fract_y
_atom_site_fract_z
_atom_type_partial_charge
Co0 Co 0.28331 0.1942 0.01925 0.0
C1 C 0.25901 0.14339 0.00903 0.0
C2 C 0.23727 0.158 1.00254 0.0
C3 C 0.22562 0.13516 0.9954 0.0
N4 N 0.25801 0.1631 0.01179 0.0
N5 N 0.2394 0.12606 0.99934 0.0
H6 H 0.27414 0.14196 0.01263 0.0
H7 H 0.23151 0.17039 0.99973 0.0
C8 C 0.24141 0.19253 0.04246 0.0
O9 O 0.23538 0.17217 0.05171 0.0
N10 N 0.30869 0.22518 0.02603 0.0
C11 C 0.33144 0.23176 0.02625 0.0
C12 C 0.34398 0.2545 0.0335 0.0
C13 C 0.3077 0.24399 0.03341 0.0
N14 N 0.32903 0.26213 0.0381 0.0
C15 C 0.29893 0.17195 0.05173 0.0
C16 C 0.29586 0.19359 0.09214 0.0
C17 C 0.30754 0.18093 0.09334 0.0
C18 C 0.30837 0.16951 0.07286 0.0
C19 C 0.28657 0.19556 0.07056 0.0
N20 N 0.2882 0.18486 0.05056 0.0
H21 H 0.30203 0.16487 0.03598 0.0
H22 H 0.27971 0.20719 0.06971 0.0
H23 H 0.33847 0.22062 0.02222 0.0
H24 H 0.29177 0.24438 0.03576 0.0
O25 O 0.30421 0.1879 1.00093 0.0
O26 O 0.28351 0.20284 0.98666 0.0
O27 O 0.26035 0.20355 0.03082 0.0
C28 C 0.29846 0.19603 0.98284 0.0
H29 H 0.20899 0.12642 0.98652 0.0
H30 H 0.36256 0.26431 0.03626 0.0
H31 H 0.2952 0.20314 0.10734 0.0
H32 H 0.31714 0.15951 0.07284 0.0
Co33 Co 0.82834 0.09215 0.0201 0.0
C34 C 0.87923 0.12002 0.00972 0.0
C35 C 0.86471 0.08377 1.00221 0.0
C36 C 0.88768 0.09518 0.99561 0.0
N37 N 0.8594 0.09923 0.01125 0.0
N38 N 0.89695 0.11803 1.0003 0.0
H39 H 0.88052 0.13624 0.01493 0.0
H40 H 0.85248 0.06553 0.99965 0.0
C41 C 0.80797 0.04505 0.04604 0.0
O42 O 0.79513 0.04942 0.06045 0.0
N43 N 0.79711 0.08543 0.0284 0.0
C44 C 0.79169 0.1012 0.0365 0.0
C45 C 0.76825 0.0904 0.04087 0.0
C46 C 0.77654 0.06536 0.02697 0.0
N47 N 0.75876 0.0678 0.03523 0.0
C48 C 0.84757 0.13153 0.05071 0.0
C49 C 0.84028 0.10846 0.09315 0.0
C50 C 0.845 0.13154 0.09339 0.0
C51 C 0.85 0.14337 0.0718 0.0
C52 C 0.83823 0.09725 0.07147 0.0
N53 N 0.83996 0.10825 0.05049 0.0
H54 H 0.85042 0.14106 0.03448 0.0
H55 H 0.83478 0.07971 0.07193 0.0
H56 H 0.80392 0.11935 0.03938 0.0
H57 H 0.77464 0.04912 0.02075 0.0
O58 O 0.83184 0.11809 1.00149 0.0
O59 O 0.81829 0.08252 0.98774 0.0
O60 O 0.82239 0.06067 0.03188 0.0
C61 C 0.8237 0.1039 0.98375 0.0
H62 H 0.89651 0.08721 0.98709 0.0
H63 H 0.75908 0.09832 0.04881 0.0
H64 H 0.83713 0.09877 0.10944 0.0
H65 H 0.85492 0.16152 0.07104 0.0
Co66 Co 0.92694 0.73499 0.01845 0.0
C67 C 0.90099 0.76066 0.01059 0.0
C68 C 0.93649 0.77991 0.99953 0.0
C69 C 0.92567 0.79209 0.99312 0.0
N70 N 0.92122 0.76036 0.01097 0.0
N71 N 0.90326 0.77998 0.99999 0.0
H72 H 0.88467 0.74668 0.01684 0.0
H73 H 0.95403 0.78442 0.9949 0.0
C74 C 0.96837 0.77722 0.03936 0.0
O75 O 0.95454 0.78352 0.04937 0.0
N76 N 0.93274 0.7097 0.02527 0.0
C77 C 0.91664 0.68695 0.02618 0.0
C78 C 0.92715 0.67461 0.03317 0.0
C79 C 0.95283 0.71087 0.03199 0.0
N80 N 0.94986 0.68966 0.03694 0.0
C81 C 0.89086 0.72109 0.05285 0.0
C82 C 0.91734 0.7257 0.09224 0.0
C83 C 0.89314 0.7151 0.09483 0.0
C84 C 0.88 0.71325 0.07474 0.0
C85 C 0.92759 0.7335 0.06991 0.0
N86 N 0.91439 0.73131 0.05047 0.0
H87 H 0.87992 0.71722 0.03755 0.0
H88 H 0.94596 0.7399 0.06815 0.0
H89 H 0.89832 0.67978 0.02276 0.0
H90 H 0.96922 0.72684 0.03366 0.0
O91 O 0.89872 0.71361 1.00196 0.0
O92 O 0.93347 0.73365 0.98535 0.0
O93 O 0.95984 0.75808 0.02806 0.0
C94 C 0.91148 0.71871 0.98303 0.0
H95 H 0.93348 0.80798 0.98293 0.0
H96 H 0.91851 0.65609 0.03629 0.0
H97 H 0.92825 0.72734 0.10717 0.0
H98 H 0.86122 0.70444 0.07553 0.0
Co99 Co 0.20858 0.27336 0.47711 0.0
C100 C 0.25694 0.29668 0.45848 0.0
C101 C 0.25582 0.2967 0.49647 0.0
C102 C 0.27869 0.30745 0.48938 0.0
N103 N 0.24222 0.29005 0.47712 0.0
N104 N 0.27939 0.30753 0.46552 0.0
H105 H 0.25134 0.29361 0.44021 0.0
H106 H 0.2495 0.29391 0.51449 0.0
C107 C 0.20123 0.30896 0.5036 0.0
O108 O 0.18917 0.31087 0.48625 0.0
N109 N 0.17451 0.25579 0.47777 0.0
C110 C 0.16081 0.23727 0.46405 0.0
C111 C 0.13819 0.22747 0.47156 0.0
C112 C 0.15975 0.25641 0.49398 0.0
N113 N 0.13751 0.23952 0.49034 0.0
C114 C 0.19575 0.28335 0.43155 0.0
C115 C 0.22313 0.3311 0.43425 0.0
C116 C 0.20854 0.32135 0.41464 0.0
C117 C 0.19498 0.29712 0.41328 0.0
C118 C 0.22309 0.31669 0.45232 0.0
N119 N 0.20884 0.29312 0.4513 0.0
H120 H 0.18593 0.26481 0.4296 0.0
H121 H 0.2343 0.32458 0.4674 0.0
H122 H 0.16678 0.23062 0.44991 0.0
H123 H 0.16503 0.26791 0.50901 0.0
O124 O 0.20918 0.2486 0.45927 0.0
O125 O 0.2088 0.25097 0.49836 0.0
O126 O 0.20928 0.29516 0.50219 0.0
C127 C 0.20941 0.23975 0.47983 0.0
H128 H 0.29369 0.3151 0.50091 0.0
H129 H 0.12338 0.21244 0.46393 0.0
H130 H 0.23408 0.34973 0.43591 0.0
H131 H 0.18406 0.28884 0.39805 0.0
Co132 Co 0.75406 0.94302 0.4748 0.0
C133 C 0.72977 0.96716 0.45682 0.0
C134 C 0.73487 0.97076 0.49443 0.0
C135 C 0.72336 0.98219 0.48752 0.0
N136 N 0.73884 0.96133 0.47519 0.0
N137 N 0.72007 0.97981 0.46389 0.0
H138 H 0.73026 0.96228 0.43867 0.0
H139 H 0.73978 0.96918 0.51228 0.0
C140 C 0.72137 0.90169 0.50519 0.0
O141 O 0.72083 0.88663 0.48982 0.0
N142 N 0.76962 0.9247 0.47482 0.0
C143 C 0.77954 0.92026 0.45622 0.0
C144 C 0.78736 0.9056 0.46328 0.0
C145 C 0.77275 0.91354 0.49331 0.0
N146 N 0.78305 0.90136 0.48654 0.0
C147 C 0.74151 0.92634 0.4272 0.0
C148 C 0.69522 0.89489 0.43525 0.0
C149 C 0.70451 0.89543 0.41275 0.0
C150 C 0.72782 0.91228 0.40871 0.0
C151 C 0.70953 0.90975 0.45314 0.0
N152 N 0.73287 0.92383 0.44958 0.0
H153 H 0.75914 0.93947 0.42333 0.0
H154 H 0.70167 0.90983 0.4698 0.0
H155 H 0.78132 0.92716 0.43863 0.0
H156 H 0.76701 0.91369 0.51119 0.0
O157 O 0.7789 0.96703 0.45584 0.0
O158 O 0.77828 0.96546 0.495 0.0
O159 O 0.7328 0.92346 0.50108 0.0
C160 C 0.78895 0.97637 0.47584 0.0
H161 H 0.7173 0.991 0.4991 0.0
H162 H 0.79553 0.89848 0.45215 0.0
H163 H 0.67717 0.88291 0.43927 0.0
H164 H 0.73557 0.91478 0.39133 0.0
Co165 Co 0.08221 0.8184 0.4682 0.0
C166 C 0.05856 0.7702 0.44905 0.0
C167 C 0.05598 0.77112 0.48688 0.0
C168 C 0.04445 0.74831 0.47967 0.0
N169 N 0.06481 0.78481 0.46772 0.0
N170 N 0.04613 0.74773 0.45592 0.0
H171 H 0.06289 0.77585 0.43087 0.0
H172 H 0.0579 0.77733 0.50488 0.0
C173 C 0.1245 0.82712 0.49708 0.0
O174 O 0.13903 0.84397 0.48315 0.0
N175 N 0.09935 0.85236 0.46925 0.0
C176 C 0.09854 0.86679 0.45294 0.0
C177 C 0.11091 0.88926 0.46098 0.0
C178 C 0.11159 0.86648 0.48747 0.0
N179 N 0.11927 0.88908 0.4826 0.0
C180 C 0.10046 0.82667 0.42078 0.0
C181 C 0.12948 0.80848 0.42653 0.0
C182 C 0.12984 0.81891 0.4048 0.0
C183 C 0.11447 0.82744 0.40195 0.0
C184 C 0.11491 0.80779 0.44481 0.0
N185 N 0.10165 0.81808 0.44232 0.0
H186 H 0.08828 0.83257 0.41778 0.0
H187 H 0.1142 0.7987 0.46087 0.0
H188 H 0.08879 0.86152 0.43668 0.0
H189 H 0.11412 0.86045 0.50436 0.0
O190 O 0.05737 0.81871 0.45032 0.0
O191 O 0.05959 0.8186 0.48944 0.0
O192 O 0.10269 0.81634 0.49309 0.0
C193 C 0.0482 0.81854 0.47076 0.0
H194 H 0.03594 0.73328 0.49111 0.0
H195 H 0.11349 0.9046 0.45168 0.0
H196 H 0.14052 0.80111 0.42963 0.0
H197 H 0.11296 0.83443 0.38519 0.0
Co198 Co 0.73615 0.81687 0.98845 0.0
C199 C 0.75862 0.86709 1.00238 0.0
C200 C 0.77743 0.85081 0.0148 0.0
C201 C 0.78853 0.87343 0.02267 0.0
N202 N 0.75895 0.8469 1.00155 0.0
N203 N 0.77661 0.8836 0.01494 0.0
H204 H 0.74542 0.86976 0.99447 0.0
H205 H 0.78227 0.83792 0.01888 0.0
C206 C 0.78229 0.82508 0.97017 0.0
O207 O 0.78823 0.84656 0.96483 0.0
N208 N 0.71328 0.78703 0.97581 0.0
C209 C 0.69273 0.78228 0.96645 0.0
C210 C 0.68256 0.76071 0.95613 0.0
C211 C 0.71519 0.76806 0.97147 0.0
N212 N 0.69665 0.75184 0.9593 0.0
C213 C 0.72162 0.84136 0.95762 0.0
C214 C 0.7329 0.82792 0.9158 0.0
C215 C 0.71885 0.83812 0.91485 0.0
C216 C 0.71387 0.8455 0.93617 0.0
C217 C 0.74032 0.82409 0.93767 0.0
N218 N 0.73452 0.83059 0.95838 0.0
H219 H 0.71526 0.84492 0.9737 0.0
H220 H 0.74895 0.81405 0.9378 0.0
H221 H 0.68598 0.79406 0.96637 0.0
H222 H 0.73011 0.76651 0.97619 0.0
O223 O 0.71184 0.81855 0.00594 0.0
O224 O 0.73247 0.80317 0.0193 0.0
O225 O 0.76181 0.81105 0.97764 0.0
C226 C 0.71614 0.80809 0.023 0.0
H227 H 0.8037 0.88151 0.03394 0.0
H228 H 0.66616 0.75223 0.94679 0.0
H229 H 0.73725 0.82189 0.89986 0.0
H230 H 0.70257 0.85284 0.93656 0.0
Co231 Co 0.20016 0.92358 0.97801 0.0
C232 C 0.15172 0.89408 0.99681 0.0
C233 C 0.16647 0.93015 0.00519 0.0
C234 C 0.14448 0.91828 0.01459 0.0
N235 N 0.17101 0.91509 0.99383 0.0
N236 N 0.13509 0.89554 0.00938 0.0
H237 H 0.14997 0.87803 0.99038 0.0
H238 H 0.17843 0.94859 0.00669 0.0
C239 C 0.2146 0.97004 0.95383 0.0
O240 O 0.22807 0.96762 0.93851 0.0
N241 N 0.22959 0.93205 0.96257 0.0
C242 C 0.23293 0.92003 0.94525 0.0
C243 C 0.25552 0.93227 0.9377 0.0
C244 C 0.25077 0.95102 0.96613 0.0
N245 N 0.26665 0.95173 0.95068 0.0
C246 C 0.17539 0.88243 0.95016 0.0
C247 C 0.17703 0.90387 0.90782 0.0
C248 C 0.17113 0.88047 0.90757 0.0
C249 C 0.16919 0.8695 0.92927 0.0
C250 C 0.18269 0.91612 0.92923 0.0
N251 N 0.1833 0.90578 0.94992 0.0
H252 H 0.17563 0.87386 0.96624 0.0
H253 H 0.18769 0.93413 0.92862 0.0
H254 H 0.21992 0.90364 0.93805 0.0
H255 H 0.25408 0.96471 0.97856 0.0
O256 O 0.20263 0.8996 0.99508 0.0
O257 O 0.21613 0.9356 0.00769 0.0
O258 O 0.20123 0.95332 0.96756 0.0
C259 C 0.21329 0.91508 0.01145 0.0
H260 H 0.13602 0.92602 0.02426 0.0
H261 H 0.26317 0.92751 0.92341 0.0
H262 H 0.1781 0.91288 0.89149 0.0
H263 H 0.16469 0.85146 0.93002 0.0
Co264 Co 0.10087 0.28553 0.98948 0.0
C265 C 0.12494 0.25883 1.00149 0.0
C266 C 0.09041 0.24322 0.01547 0.0
C267 C 0.10057 0.23084 0.02341 0.0
N268 N 0.10553 0.26065 1.00144 0.0
N269 N 0.12237 0.24068 0.0147 0.0
H270 H 0.14082 0.27075 0.99262 0.0
H271 H 0.07337 0.24019 0.02028 0.0
C272 C 0.06199 0.2415 0.96932 0.0
O273 O 0.07708 0.23494 0.96398 0.0
N274 N 0.09665 0.31061 0.9781 0.0
C275 C 0.11433 0.33197 0.97315 0.0
C276 C 0.10554 0.34506 0.96407 0.0
C277 C 0.07715 0.31092 0.97186 0.0
N278 N 0.08215 0.33196 0.96329 0.0
C279 C 0.14061 0.29963 0.95952 0.0
C280 C 0.11723 0.29173 0.91713 0.0
C281 C 0.1416 0.30449 0.91687 0.0
C282 C 0.15325 0.30776 0.93843 0.0
C283 C 0.10524 0.28377 0.9386 0.0
N284 N 0.11687 0.28784 0.9596 0.0
H285 H 0.15011 0.30459 0.97594 0.0
H286 H 0.08663 0.27609 0.93826 0.0
H287 H 0.13252 0.33752 0.97539 0.0
H288 H 0.05981 0.29614 0.97342 0.0
O289 O 0.12698 0.30754 0.00868 0.0
O290 O 0.09031 0.28837 0.02039 0.0
O291 O 0.06909 0.26197 0.97716 0.0
C292 C 0.11178 0.30333 0.02529 0.0
H293 H 0.09275 0.21632 0.03554 0.0
H294 H 0.11578 0.36273 0.9578 0.0
H295 H 0.10741 0.28878 0.90097 0.0
H296 H 0.172 0.318 0.93931 0.0
Co297 Co 0.82518 0.74694 0.53307 0.0
C298 C 0.87422 0.77287 0.51664 0.0
C299 C 0.857 0.79219 0.51006 0.0
C300 C 0.87937 0.80464 0.50135 0.0
N301 N 0.85399 0.77258 0.52047 0.0
N302 N 0.89 0.7923 0.50541 0.0
H303 H 0.8773 0.75888 0.52095 0.0
H304 H 0.84365 0.7968 0.50805 0.0
C305 C 0.82563 0.78963 0.55244 0.0
O306 O 0.8471 0.79812 0.55983 0.0
N307 N 0.79679 0.72092 0.54524 0.0
C308 C 0.7945 0.70004 0.55005 0.0
C309 C 0.77374 0.68655 0.56132 0.0
C310 C 0.77721 0.71984 0.55373 0.0
N311 N 0.76291 0.69896 0.56381 0.0
C312 C 0.85433 0.73847 0.56396 0.0
C313 C 0.83715 0.74526 0.60583 0.0
C314 C 0.85196 0.73596 0.60671 0.0
C315 C 0.86104 0.73317 0.58541 0.0
C316 C 0.83116 0.75071 0.58397 0.0
N317 N 0.83971 0.74733 0.56325 0.0
H318 H 0.85936 0.73341 0.54797 0.0
H319 H 0.81817 0.75589 0.58379 0.0
H320 H 0.8075 0.69521 0.54652 0.0
H321 H 0.77397 0.73423 0.55361 0.0
O322 O 0.83127 0.72546 0.51538 0.0
O323 O 0.81158 0.74187 0.50207 0.0
O324 O 0.8146 0.76914 0.54384 0.0
C325 C 0.8195 0.72785 0.4983 0.0
H326 H 0.88687 0.82091 0.49179 0.0
H327 H 0.7673 0.66902 0.56765 0.0
H328 H 0.82942 0.74736 0.62184 0.0
H329 H 0.87182 0.72523 0.58513 0.0
Co330 Co 0.27821 0.08289 0.53052 0.0
C331 C 0.2516 0.10654 0.51747 0.0
C332 C 0.23945 0.07444 0.49902 0.0
C333 C 0.22774 0.08517 0.49051 0.0
N334 N 0.25442 0.08783 0.51602 0.0
N335 N 0.23543 0.10535 0.50221 0.0
H336 H 0.26177 0.1214 0.52848 0.0
H337 H 0.23768 0.05828 0.49274 0.0
C338 C 0.23249 0.04398 0.5467 0.0
O339 O 0.22604 0.05934 0.55101 0.0
N340 N 0.30233 0.07854 0.54438 0.0
C341 C 0.32308 0.09612 0.55134 0.0
C342 C 0.33663 0.08721 0.55883 0.0
C343 C 0.30338 0.05898 0.54794 0.0
N344 N 0.32431 0.06395 0.5567 0.0
C345 C 0.28976 0.12196 0.55999 0.0
C346 C 0.27578 0.09865 0.60255 0.0
C347 C 0.28802 0.12306 0.60273 0.0
C348 C 0.29472 0.13456 0.58092 0.0
C349 C 0.27114 0.0866 0.58101 0.0
N350 N 0.27786 0.09826 0.55993 0.0
H351 H 0.2967 0.13157 0.54381 0.0
H352 H 0.2634 0.06798 0.58157 0.0
H353 H 0.32822 0.1143 0.55058 0.0
H354 H 0.28958 0.0417 0.54353 0.0
O355 O 0.3016 0.10962 0.5133 0.0
O356 O 0.28402 0.07349 0.50007 0.0
O357 O 0.25361 0.05082 0.54122 0.0
C358 C 0.29903 0.09526 0.49645 0.0
H359 H 0.21485 0.0788 0.4766 0.0
H360 H 0.35431 0.09707 0.56522 0.0
H361 H 0.27042 0.08889 0.61892 0.0
H362 H 0.305 0.1533 0.57993 0.0
Co363 Co 0.94143 0.20241 0.52828 0.0
C364 C 0.91702 0.15297 0.51285 0.0
C365 C 0.95335 0.16974 0.50499 0.0
C366 C 0.943 0.14718 0.49686 0.0
N367 N 0.93719 0.17318 0.51581 0.0
N368 N 0.92016 0.13682 0.50172 0.0
H369 H 0.90017 0.15008 0.51788 0.0
H370 H 0.97135 0.18288 0.50256 0.0
C371 C 0.98094 0.19847 0.54879 0.0
O372 O 0.96597 0.17717 0.55543 0.0
N373 N 0.9449 0.23127 0.5403 0.0
C374 C 0.92682 0.23462 0.54433 0.0
C375 C 0.93452 0.25509 0.55623 0.0
C376 C 0.96356 0.24995 0.54986 0.0
N377 N 0.95753 0.26469 0.55984 0.0
C378 C 0.90274 0.17445 0.55874 0.0
C379 C 0.92647 0.19004 0.60093 0.0
C380 C 0.90224 0.17592 0.60155 0.0
C381 C 0.89045 0.16774 0.58006 0.0
C382 C 0.93814 0.19612 0.57919 0.0
N383 N 0.92636 0.18816 0.55831 0.0
H384 H 0.89284 0.1701 0.54263 0.0
H385 H 0.95646 0.2086 0.57929 0.0
H386 H 0.90893 0.22241 0.54002 0.0
H387 H 0.98079 0.25213 0.55074 0.0
O388 O 0.91454 0.19748 0.51016 0.0
O389 O 0.95087 0.21603 0.49726 0.0
O390 O 0.97365 0.21128 0.53979 0.0
C391 C 0.92909 0.20883 0.49319 0.0
H392 H 0.95138 0.1393 0.48727 0.0
H393 H 0.92387 0.26211 0.5624 0.0
H394 H 0.93627 0.1971 0.61707 0.0
H395 H 0.87167 0.15759 0.57959 0.0
Co396 Co 0.95094 0.52919 0.35558 0.0
C397 C 0.92739 0.47863 0.34369 0.0
C398 C 0.90499 0.49272 0.3388 0.0
C399 C 0.89363 0.47009 0.33101 0.0
N400 N 0.92598 0.49801 0.34749 0.0
N401 N 0.9078 0.46128 0.33395 0.0
H402 H 0.9428 0.47749 0.34659 0.0
H403 H 0.89883 0.50487 0.33672 0.0
C404 C 0.90875 0.52705 0.37884 0.0
O405 O 0.90291 0.50691 0.38856 0.0
N406 N 0.97591 0.56026 0.36299 0.0
C407 C 0.99862 0.5669 0.36452 0.0
C408 C 1.0108 0.58976 0.3715 0.0
C409 C 0.97457 0.57918 0.36929 0.0
N410 N 0.99568 0.59745 0.37459 0.0
C411 C 0.96558 0.50589 0.38788 0.0
C412 C 0.9621 0.52689 0.42858 0.0
C413 C 0.97271 0.51322 0.4299 0.0
C414 C 0.97394 0.50232 0.40919 0.0
C415 C 0.95378 0.52989 0.40684 0.0
N416 N 0.95548 0.51938 0.38675 0.0
H417 H 0.96898 0.49918 0.37202 0.0
H418 H 0.94739 0.54192 0.40604 0.0
H419 H 1.00582 0.55572 0.36146 0.0
H420 H 0.95854 0.57959 0.37028 0.0
O421 O 0.97235 0.52359 0.33726 0.0
O422 O 0.9513 0.53826 0.3232 0.0
O423 O 0.92761 0.53796 0.36708 0.0
C424 C 0.9664 0.53168 0.31927 0.0
H425 H 0.87686 0.46132 0.32239 0.0
H426 H 0.02926 0.59967 0.37498 0.0
H427 H 0.96089 0.53582 0.44405 0.0
H428 H 0.98268 0.49228 0.40904 0.0
Co429 Co 0.49705 0.42319 0.36068 0.0
C430 C 0.54816 0.44872 0.34997 0.0
C431 C 0.53128 0.41295 0.33993 0.0
C432 C 0.55382 0.4236 0.33194 0.0
N433 N 0.52771 0.42851 0.35171 0.0
N434 N 0.56449 0.44618 0.33812 0.0
H435 H 0.55085 0.46519 0.35608 0.0
H436 H 0.51797 0.39531 0.33611 0.0
C437 C 0.50014 0.38355 0.38255 0.0
O438 O 0.52105 0.39821 0.39042 0.0
N439 N 0.46638 0.41788 0.36888 0.0
C440 C 0.46001 0.43418 0.36955 0.0
C441 C 0.43732 0.42408 0.37706 0.0
C442 C 0.4475 0.39809 0.37631 0.0
N443 N 0.42949 0.40143 0.38139 0.0
C444 C 0.52041 0.46156 0.39227 0.0
C445 C 0.50081 0.43728 0.4335 0.0
C446 C 0.51324 0.46163 0.4343 0.0
C447 C 0.52366 0.47367 0.41338 0.0
C448 C 0.49805 0.42577 0.41194 0.0
N449 N 0.50773 0.43789 0.39154 0.0
H450 H 0.52668 0.47153 0.37624 0.0
H451 H 0.48657 0.40724 0.41151 0.0
H452 H 0.47122 0.45233 0.36541 0.0
H453 H 0.44689 0.38162 0.37817 0.0
O454 O 0.50295 0.45014 0.34218 0.0
O455 O 0.48709 0.41419 0.32853 0.0
O456 O 0.48805 0.39111 0.37246 0.0
C457 C 0.49422 0.43595 0.3244 0.0
H458 H 0.56125 0.41556 0.32109 0.0
H459 H 0.4276 0.43292 0.37996 0.0
H460 H 0.49198 0.42721 0.44906 0.0
H461 H 0.53347 0.49246 0.41304 0.0
Co462 Co 0.59892 0.07434 0.35718 0.0
C463 C 0.57369 0.09958 0.34423 0.0
C464 C 0.61037 0.12026 0.33902 0.0
C465 C 0.6001 0.13235 0.33063 0.0
N466 N 0.59395 0.09989 0.34822 0.0
N467 N 0.57692 0.11932 0.33371 0.0
H468 H 0.55685 0.08463 0.34721 0.0
H469 H 0.62853 0.12554 0.33722 0.0
C470 C 0.63884 0.11605 0.38093 0.0
O471 O 0.62458 0.12246 0.38963 0.0
N472 N 0.60397 0.04888 0.36547 0.0
C473 C 0.58753 0.02629 0.3669 0.0
C474 C 0.59757 0.01383 0.37499 0.0
C475 C 0.62377 0.04986 0.37292 0.0
N476 N 0.62032 0.02867 0.37889 0.0
C477 C 0.56009 0.06025 0.38819 0.0
C478 C 0.58319 0.06316 0.42976 0.0
C479 C 0.55886 0.0524 0.43021 0.0
C480 C 0.54744 0.0516 0.4091 0.0
C481 C 0.59523 0.07169 0.40838 0.0
N482 N 0.5837 0.07019 0.38783 0.0
H483 H 0.5505 0.05724 0.37201 0.0
H484 H 0.61364 0.07789 0.40821 0.0
H485 H 0.56932 0.01939 0.36305 0.0
H486 H 0.64032 0.0657 0.3743 0.0
O487 O 0.57222 0.05345 0.33826 0.0
O488 O 0.60843 0.0736 0.32518 0.0
O489 O 0.63087 0.09705 0.36948 0.0
C490 C 0.58673 0.05898 0.32071 0.0
H491 H 0.60918 0.14915 0.32214 0.0
H492 H 0.5886 0.9954 0.37868 0.0
H493 H 0.59277 0.06371 0.44545 0.0
H494 H 0.5287 0.04349 0.40848 0.0
Co495 Co 0.8726 0.60002 0.80217 0.0
C496 C 0.92085 0.62426 0.78342 0.0
C497 C 0.91985 0.62192 0.82135 0.0
C498 C 0.94272 0.63342 0.81416 0.0
N499 N 0.9062 0.61629 0.8021 0.0
N500 N 0.94332 0.635 0.79034 0.0
H501 H 0.91519 0.62236 0.7652 0.0
H502 H 0.91359 0.61811 0.83938 0.0
C503 C 0.86466 0.63446 0.82981 0.0
O504 O 0.85157 0.63545 0.813 0.0
N505 N 0.83859 0.58304 0.80298 0.0
C506 C 0.82404 0.56716 0.78718 0.0
C507 C 0.80146 0.55846 0.79458 0.0
C508 C 0.82446 0.58252 0.82058 0.0
N509 N 0.80186 0.5681 0.81556 0.0
C510 C 0.86177 0.6112 0.75624 0.0
C511 C 0.8861 0.65887 0.76146 0.0
C512 C 0.87248 0.64935 0.74116 0.0
C513 C 0.86067 0.62519 0.73845 0.0
C514 C 0.88643 0.64416 0.779 0.0
N515 N 0.87328 0.62054 0.77689 0.0
H516 H 0.85362 0.59287 0.75312 0.0
H517 H 0.89707 0.65182 0.7945 0.0
H518 H 0.82924 0.56143 0.77168 0.0
H519 H 0.83034 0.59208 0.83694 0.0
O520 O 0.8727 0.57555 0.78345 0.0
O521 O 0.8722 0.57674 0.82268 0.0
O522 O 0.8737 0.62154 0.82783 0.0
C523 C 0.87259 0.566 0.80364 0.0
H524 H 0.95775 0.64067 0.82564 0.0
H525 H 0.78594 0.54573 0.78551 0.0
H526 H 0.89597 0.67748 0.76403 0.0
H527 H 0.85085 0.61716 0.72253 0.0
Co528 Co 0.42128 0.27407 0.80176 0.0
C529 C 0.39768 0.29895 0.78398 0.0
C530 C 0.40264 0.30206 0.82162 0.0
C531 C 0.39158 0.31397 0.81491 0.0
N532 N 0.40642 0.29266 0.80225 0.0
N533 N 0.3884 0.31192 0.79127 0.0
H534 H 0.39813 0.29423 0.76577 0.0
H535 H 0.40741 0.30017 0.83944 0.0
C536 C 0.38998 0.233 0.83315 0.0
O537 O 0.39308 0.21847 0.82006 0.0
N538 N 0.4366 0.25561 0.80183 0.0
C539 C 0.44338 0.24792 0.78305 0.0
C540 C 0.45189 0.23408 0.79094 0.0
C541 C 0.44232 0.24726 0.82099 0.0
N542 N 0.45112 0.23361 0.81473 0.0
C543 C 0.40791 0.25808 0.75381 0.0
C544 C 0.36224 0.22531 0.76316 0.0
C545 C 0.37081 0.2269 0.7402 0.0
C546 C 0.39376 0.24407 0.73544 0.0
C547 C 0.37687 0.24 0.78088 0.0
N548 N 0.39992 0.25499 0.77657 0.0
H549 H 0.42549 0.2713 0.74971 0.0
H550 H 0.36928 0.23941 0.79787 0.0
H551 H 0.44224 0.25172 0.76478 0.0
H552 H 0.43883 0.24997 0.83906 0.0
O553 O 0.4464 0.29799 0.783 0.0
O554 O 0.44544 0.29621 0.82217 0.0
O555 O 0.39942 0.25444 0.82762 0.0
C556 C 0.45631 0.30716 0.80311 0.0
H557 H 0.38577 0.32291 0.82662 0.0
H558 H 0.45778 0.22467 0.78002 0.0
H559 H 0.34426 0.21305 0.7673 0.0
H560 H 0.40089 0.24633 0.71776 0.0
Co561 Co 0.74815 0.1504 0.80195 0.0
C562 C 0.72397 0.10342 0.78018 0.0
C563 C 0.72135 0.10211 0.8181 0.0
C564 C 0.7093 0.07979 0.80947 0.0
N565 N 0.7306 0.11688 0.79976 0.0
N566 N 0.71109 0.08066 0.78568 0.0
H567 H 0.72844 0.11011 0.76232 0.0
H568 H 0.72324 0.10726 0.83648 0.0
C569 C 0.78911 0.15404 0.82988 0.0
O570 O 0.80436 0.1665 0.81357 0.0
N571 N 0.76527 0.18434 0.80478 0.0
C572 C 0.76094 0.19913 0.79233 0.0
C573 C 0.77407 0.22118 0.80117 0.0
C574 C 0.78078 0.1979 0.82152 0.0
N575 N 0.78657 0.22042 0.81947 0.0
C576 C 0.77267 0.16583 0.75769 0.0
C577 C 0.79251 0.13792 0.75838 0.0
C578 C 0.79805 0.15377 0.73977 0.0
C579 C 0.78763 0.16759 0.73942 0.0
C580 C 0.77767 0.13694 0.77651 0.0
N581 N 0.7686 0.15142 0.77649 0.0
H582 H 0.76418 0.17593 0.75647 0.0
H583 H 0.77367 0.12467 0.79077 0.0
H584 H 0.7485 0.19428 0.77812 0.0
H585 H 0.78681 0.19155 0.83581 0.0
O586 O 0.72397 0.15138 0.78348 0.0
O587 O 0.72482 0.14962 0.82267 0.0
O588 O 0.7676 0.1474 0.82746 0.0
C589 C 0.71411 0.15035 0.80377 0.0
H590 H 0.70037 0.06407 0.8199 0.0
H591 H 0.77424 0.2366 0.79477 0.0
H592 H 0.79994 0.12669 0.75921 0.0
H593 H 0.79074 0.17946 0.72493 0.0
Co594 Co 0.41111 0.15515 0.31164 0.0
C595 C 0.43655 0.20494 0.32727 0.0
C596 C 0.45258 0.18578 0.33927 0.0
C597 C 0.46426 0.20765 0.34899 0.0
N598 N 0.43534 0.18408 0.32534 0.0
N599 N 0.45413 0.21972 0.34154 0.0
H600 H 0.42454 0.20917 0.3191 0.0
H601 H 0.45583 0.1717 0.34291 0.0
C602 C 0.45607 0.16137 0.29243 0.0
O603 O 0.46307 0.18324 0.28772 0.0
N604 N 0.38685 0.12629 0.2986 0.0
C605 C 0.36508 0.12157 0.29378 0.0
C606 C 0.35257 0.09928 0.28534 0.0
C607 C 0.38746 0.10691 0.29273 0.0
N608 N 0.36667 0.0902 0.28459 0.0
C609 C 0.39789 0.18207 0.28311 0.0
C610 C 0.40601 0.168 0.23996 0.0
C611 C 0.39292 0.17927 0.24051 0.0
C612 C 0.38975 0.18711 0.26246 0.0
C613 C 0.41411 0.16352 0.2611 0.0
N614 N 0.40973 0.17022 0.28248 0.0
H615 H 0.39274 0.18603 0.29975 0.0
H616 H 0.42194 0.15274 0.26024 0.0
H617 H 0.35866 0.13347 0.29642 0.0
H618 H 0.40245 0.10479 0.29496 0.0
O619 O 0.38814 0.15799 0.33036 0.0
O620 O 0.40712 0.14023 0.34188 0.0
O621 O 0.43528 0.14788 0.2994 0.0
C622 C 0.39174 0.14625 0.34657 0.0
H623 H 0.47842 0.21372 0.3615 0.0
H624 H 0.33446 0.09033 0.28023 0.0
H625 H 0.40855 0.16115 0.22357 0.0
H626 H 0.37996 0.19604 0.26391 0.0
Co627 Co 0.86669 0.25888 0.30878 0.0
C628 C 0.81945 0.23163 0.33068 0.0
C629 C 0.83423 0.26829 0.33522 0.0
C630 C 0.81274 0.25725 0.34589 0.0
N631 N 0.83836 0.25229 0.32534 0.0
N632 N 0.80335 0.23412 0.34306 0.0
H633 H 0.81771 0.2151 0.32627 0.0
H634 H 0.84615 0.28678 0.33505 0.0
C635 C 0.88259 0.30592 0.2842 0.0
O636 O 0.89596 0.30348 0.26876 0.0
N637 N 0.89518 0.26519 0.29262 0.0
C638 C 0.89722 0.25083 0.2772 0.0
C639 C 0.91936 0.26154 0.26833 0.0
C640 C 0.91676 0.28402 0.29398 0.0
N641 N 0.93158 0.28251 0.2786 0.0
C642 C 0.83896 0.21742 0.28245 0.0
C643 C 0.84477 0.23823 0.23881 0.0
C644 C 0.83752 0.21447 0.23975 0.0
C645 C 0.8332 0.2039 0.26203 0.0
C646 C 0.85004 0.25115 0.25981 0.0
N647 N 0.84867 0.241 0.28124 0.0
H648 H 0.83786 0.20895 0.29902 0.0
H649 H 0.85684 0.2695 0.25835 0.0
H650 H 0.88359 0.23371 0.27236 0.0
H651 H 0.92111 0.29906 0.30481 0.0
O652 O 0.86761 0.23425 0.32611 0.0
O653 O 0.88389 0.27083 0.33787 0.0
O654 O 0.86917 0.28921 0.29792 0.0
C655 C 0.87949 0.24979 0.34204 0.0
H656 H 0.80471 0.26579 0.35486 0.0
H657 H 0.92597 0.25452 0.25514 0.0
H658 H 0.84804 0.24717 0.22201 0.0
H659 H 0.82692 0.18548 0.26373 0.0
Co660 Co 0.76547 0.61434 0.31476 0.0
C661 C 0.79111 0.59006 0.32988 0.0
C662 C 0.75571 0.57248 0.34137 0.0
C663 C 0.76642 0.56105 0.35046 0.0
N664 N 0.77101 0.59044 0.328 0.0
N665 N 0.78882 0.57215 0.34335 0.0
H666 H 0.80739 0.60323 0.32271 0.0
H667 H 0.73806 0.56835 0.3449 0.0
C668 C 0.72668 0.56924 0.29628 0.0
O669 O 0.74194 0.563 0.29059 0.0
N670 N 0.76014 0.63834 0.30218 0.0
C671 C 0.77705 0.65993 0.29645 0.0
C672 C 0.76702 0.67242 0.28868 0.0
C673 C 0.73994 0.63784 0.2975 0.0
N674 N 0.74378 0.65854 0.28924 0.0
C675 C 0.80444 0.62698 0.28431 0.0
C676 C 0.78037 0.61793 0.24225 0.0
C677 C 0.80473 0.63043 0.24161 0.0
C678 C 0.81672 0.63427 0.26301 0.0
C679 C 0.76872 0.61073 0.26398 0.0
N680 N 0.78071 0.61539 0.28481 0.0
H681 H 0.81428 0.63267 0.30047 0.0
H682 H 0.75011 0.60322 0.26397 0.0
H683 H 0.79546 0.66623 0.29802 0.0
H684 H 0.7229 0.623 0.30064 0.0
O685 O 0.79201 0.63763 0.33234 0.0
O686 O 0.75582 0.61862 0.3456 0.0
O687 O 0.73358 0.58978 0.30377 0.0
C688 C 0.7774 0.6341 0.34934 0.0
H689 H 0.75826 0.54597 0.36183 0.0
H690 H 0.77607 0.69041 0.28312 0.0
H691 H 0.77033 0.61465 0.22619 0.0
H692 H 0.83549 0.64445 0.26356 0.0
Co693 Co 0.4924 0.08155 0.87023 0.0
C694 C 0.5406 0.10511 0.85089 0.0
C695 C 0.52443 0.12557 0.84545 0.0
C696 C 0.54629 0.13704 0.8355 0.0
N697 N 0.52113 0.10592 0.85602 0.0
N698 N 0.55629 0.12401 0.83887 0.0
H699 H 0.5431 0.09067 0.8548 0.0
H700 H 0.51153 0.13085 0.84403 0.0
C701 C 0.49408 0.12541 0.88762 0.0
O702 O 0.51545 0.13355 0.89519 0.0
N703 N 0.46399 0.05696 0.88393 0.0
C704 C 0.46201 0.0375 0.89351 0.0
C705 C 0.44094 0.0255 0.90475 0.0
C706 C 0.4439 0.05645 0.88926 0.0
N707 N 0.42961 0.03742 0.90217 0.0
C708 C 0.5229 0.07618 0.90198 0.0
C709 C 0.50443 0.08267 0.94311 0.0
C710 C 0.51988 0.07416 0.94464 0.0
C711 C 0.5297 0.07167 0.92374 0.0
C712 C 0.49837 0.08737 0.92092 0.0
N713 N 0.50739 0.08389 0.90058 0.0
H714 H 0.52845 0.07117 0.88634 0.0
H715 H 0.48486 0.09182 0.92016 0.0
H716 H 0.47541 0.03283 0.89318 0.0
H717 H 0.4402 0.07007 0.88474 0.0
O718 O 0.49736 0.05823 0.85508 0.0
O719 O 0.4786 0.0747 0.83926 0.0
O720 O 0.48279 0.10493 0.87905 0.0
C721 C 0.48611 0.06013 0.83719 0.0
H722 H 0.55384 0.15314 0.82563 0.0
H723 H 0.43451 1.00934 0.91433 0.0
H724 H 0.49619 0.08455 0.95882 0.0
H725 H 0.54105 0.06437 0.924 0.0
Co726 Co 0.94384 0.41458 0.86665 0.0
C727 C 0.91861 0.43815 0.84906 0.0
C728 C 0.89807 0.40137 0.84491 0.0
C729 C 0.88585 0.41132 0.83583 0.0
N730 N 0.91828 0.4181 0.85423 0.0
N731 N 0.89893 0.43445 0.83838 0.0
H732 H 0.93326 0.45526 0.85187 0.0
H733 H 0.89286 0.38321 0.84365 0.0
C734 C 0.90174 0.37278 0.8862 0.0
O735 O 0.89509 0.38679 0.89508 0.0
N736 N 0.96978 0.4119 0.87836 0.0
C737 C 0.98976 0.43036 0.88564 0.0
C738 C 1.00445 0.42296 0.89332 0.0
C739 C 0.97248 0.39325 0.88197 0.0
N740 N 0.99376 0.3997 0.891 0.0
C741 C 0.94832 0.4495 0.89953 0.0
C742 C 0.94599 0.4252 0.94004 0.0
C743 C 0.95233 0.44864 0.94201 0.0
C744 C 0.95285 0.46059 0.92143 0.0
C745 C 0.94121 0.41461 0.91775 0.0
N746 N 0.94244 0.42674 0.89771 0.0
H747 H 0.9517 0.45999 0.88402 0.0
H748 H 0.93821 0.39713 0.91652 0.0
H749 H 0.99327 0.44807 0.88577 0.0
H750 H 0.95934 0.37554 0.87809 0.0
O751 O 0.96582 0.44334 0.85128 0.0
O752 O 0.94984 0.4084 0.83488 0.0
O753 O 0.92142 0.38125 0.87584 0.0
C754 C 0.96388 0.43064 0.83299 0.0
H755 H 0.86918 0.40239 0.82703 0.0
H756 H 0.02158 0.43389 0.90069 0.0
H757 H 0.9457 0.41539 0.95546 0.0
H758 H 0.95851 0.47894 0.92198 0.0
Co759 Co 0.60698 0.52937 0.86938 0.0
C760 C 0.58258 0.48151 0.8491 0.0
C761 C 0.61872 0.49963 0.84024 0.0
C762 C 0.60855 0.47791 0.83002 0.0
N763 N 0.6026 0.50165 0.85296 0.0
N764 N 0.58582 0.4667 0.83555 0.0
H765 H 0.56575 0.47771 0.85536 0.0
H766 H 0.63657 0.51321 0.838 0.0
C767 C 0.64827 0.52522 0.88454 0.0
O768 O 0.63453 0.50328 0.89005 0.0
N769 N 0.61103 0.5569 0.8853 0.0
C770 C 0.59441 0.55823 0.8977 0.0
C771 C 0.60404 0.57956 0.90845 0.0
C772 C 0.63054 0.57769 0.88823 0.0
N773 N 0.62666 0.59172 0.90248 0.0
C774 C 0.56934 0.49843 0.89896 0.0
C775 C 0.5936 0.50986 0.94103 0.0
C776 C 0.56924 0.49648 0.94175 0.0
C777 C 0.55727 0.49037 0.92018 0.0
C778 C 0.60508 0.51773 0.91927 0.0
N779 N 0.59296 0.51204 0.89846 0.0
H780 H 0.55922 0.49558 0.88322 0.0
H781 H 0.62348 0.5299 0.9195 0.0
H782 H 0.57657 0.54443 0.89923 0.0
H783 H 0.64725 0.58221 0.88071 0.0
O784 O 0.57937 0.5259 0.85404 0.0
O785 O 0.61515 0.54579 0.83971 0.0
O786 O 0.63963 0.5378 0.87844 0.0
C787 C 0.59317 0.53863 0.83715 0.0
H788 H 0.61696 0.47118 0.81872 0.0
H789 H 0.59515 0.58575 0.91977 0.0
H790 H 0.60371 0.51518 0.95716 0.0
H791 H 0.53849 0.48096 0.91959 0.0
Co792 Co 0.61682 0.8616 0.69342 0.0
C793 C 0.59532 0.81208 0.67824 0.0
C794 C 0.57166 0.82505 0.67607 0.0
C795 C 0.56082 0.80283 0.66734 0.0
N796 N 0.59322 0.83086 0.68318 0.0
N797 N 0.57569 0.79463 0.6685 0.0
H798 H 0.6112 0.81161 0.68063 0.0
H799 H 0.56451 0.83646 0.67614 0.0
C800 C 0.58917 0.88222 0.71699 0.0
O801 O 0.60635 0.89643 0.73073 0.0
N802 N 0.64085 0.89243 0.70303 0.0
C803 C 0.66079 0.89742 0.71405 0.0
C804 C 0.67365 0.92096 0.71774 0.0
C805 C 0.64236 0.91323 0.69927 0.0
N806 N 0.66194 0.93085 0.70874 0.0
C807 C 0.63344 0.83925 0.72456 0.0
C808 C 0.61833 0.84823 0.76659 0.0
C809 C 0.63439 0.84041 0.7674 0.0
C810 C 0.64113 0.83499 0.74596 0.0
C811 C 0.61088 0.85207 0.74471 0.0
N812 N 0.61956 0.84899 0.72395 0.0
H813 H 0.64005 0.83604 0.70847 0.0
H814 H 0.59859 0.85799 0.7449 0.0
H815 H 0.66566 0.88485 0.71935 0.0
H816 H 0.62904 0.91537 0.69059 0.0
O817 O 0.64028 0.85871 0.676 0.0
O818 O 0.61882 0.87254 0.66121 0.0
O819 O 0.59077 0.86721 0.70415 0.0
C820 C 0.63497 0.86723 0.65798 0.0
H821 H 0.54336 0.79364 0.66034 0.0
H822 H 0.68985 0.92998 0.72738 0.0
H823 H 0.6119 0.85179 0.78273 0.0
H824 H 0.65339 0.82879 0.74554 0.0
Co825 Co 0.15966 0.75979 0.68538 0.0
C826 C 0.21086 0.78683 0.67571 0.0
C827 C 0.19574 0.75085 0.66707 0.0
C828 C 0.21855 0.76212 0.65994 0.0
N829 N 0.1909 0.76615 0.67751 0.0
N830 N 0.22814 0.78487 0.66518 0.0
H831 H 0.21234 0.80321 0.68034 0.0
H832 H 0.1832 0.73285 0.66367 0.0
C833 C 0.16224 0.7197 0.70754 0.0
O834 O 0.18264 0.73402 0.71674 0.0
N835 N 0.12843 0.75341 0.69262 0.0
C836 C 0.12124 0.76908 0.69315 0.0
C837 C 0.09852 0.75829 0.70074 0.0
C838 C 0.11 0.73331 0.70015 0.0
N839 N 0.09151 0.73584 0.70525 0.0
C840 C 0.18131 0.79732 0.7183 0.0
C841 C 0.16093 0.7716 0.7586 0.0
C842 C 0.17309 0.79592 0.76031 0.0
C843 C 0.18374 0.80871 0.73978 0.0
C844 C 0.15882 0.76087 0.73669 0.0
N845 N 0.16898 0.77368 0.71677 0.0
H846 H 0.18788 0.80779 0.70261 0.0
H847 H 0.14762 0.74233 0.73565 0.0
H848 H 0.13195 0.78732 0.68906 0.0
H849 H 0.11009 0.71722 0.70226 0.0
O850 O 0.16543 0.78701 0.66733 0.0
O851 O 0.15094 0.75152 0.65283 0.0
O852 O 0.15095 0.7276 0.69642 0.0
C853 C 0.15752 0.77322 0.64915 0.0
H854 H 0.22708 0.75411 0.65092 0.0
H855 H 0.08828 0.76659 0.7037 0.0
H856 H 0.15236 0.76087 0.77387 0.0
H857 H 0.19268 0.82748 0.73984 0.0
Co858 Co 0.26492 0.40754 0.69317 0.0
C859 C 0.23825 0.43167 0.68225 0.0
C860 C 0.27463 0.4532 0.67582 0.0
C861 C 0.26351 0.46462 0.66791 0.0
N862 N 0.25896 0.43272 0.68548 0.0
N863 N 0.24053 0.45102 0.67175 0.0
H864 H 0.2217 0.41636 0.68547 0.0
H865 H 0.29278 0.45891 0.67307 0.0
C866 C 0.30668 0.44967 0.71419 0.0
O867 O 0.29305 0.45573 0.72504 0.0
N868 N 0.27083 0.38238 0.70008 0.0
C869 C 0.25461 0.35976 0.70216 0.0
C870 C 0.26525 0.34748 0.70884 0.0
C871 C 0.29114 0.38355 0.70576 0.0
N872 N 0.28819 0.36245 0.71122 0.0
C873 C 0.22935 0.39506 0.7281 0.0
C874 C 0.2558 0.3978 0.76691 0.0
C875 C 0.2317 0.38797 0.76988 0.0
C876 C 0.21861 0.38713 0.75008 0.0
C877 C 0.26592 0.40561 0.74452 0.0
N878 N 0.25273 0.40421 0.72534 0.0
H879 H 0.2184 0.39207 0.713 0.0
H880 H 0.28414 0.41139 0.74246 0.0
H881 H 0.23615 0.3527 0.69978 0.0
H882 H 0.3077 0.39947 0.70633 0.0
O883 O 0.23655 0.38585 0.67702 0.0
O884 O 0.27113 0.40594 0.66005 0.0
O885 O 0.29793 0.43077 0.70243 0.0
C886 C 0.24913 0.39093 0.65794 0.0
H887 H 0.27179 0.48129 0.65911 0.0
H888 H 0.25663 0.32909 0.71272 0.0
H889 H 0.26674 0.39883 0.78158 0.0
H890 H 0.19989 0.37904 0.75109 0.0
Co891 Co 0.54281 0.93925 0.13935 0.0
C892 C 0.58945 0.96202 0.11681 0.0
C893 C 0.59146 0.96148 0.15472 0.0
C894 C 0.61366 0.97181 0.14562 0.0
N895 N 0.57634 0.9554 0.13667 0.0
N896 N 0.61236 0.97222 0.12182 0.0
H897 H 0.58239 0.95931 0.0991 0.0
H898 H 0.58666 0.95856 0.17322 0.0
C899 C 0.53599 0.97426 0.16735 0.0
O900 O 0.51935 0.97212 0.15322 0.0
N901 N 0.50884 0.92218 0.14242 0.0
C902 C 0.49394 0.90516 0.12783 0.0
C903 C 0.47176 0.89576 0.1365 0.0
C904 C 0.49526 0.92193 0.16054 0.0
N905 N 0.4725 0.90634 0.15703 0.0
C906 C 0.52917 0.94852 0.09381 0.0
C907 C 0.55373 0.99635 0.09775 0.0
C908 C 0.53951 0.98633 0.07796 0.0
C909 C 0.52743 0.96209 0.07592 0.0
C910 C 0.55472 0.98213 0.11534 0.0
N911 N 0.54172 0.95847 0.11381 0.0
H912 H 0.52071 0.93007 0.0913 0.0
H913 H 0.56609 0.99025 0.13026 0.0
H914 H 0.49873 0.89906 0.11231 0.0
H915 H 0.5018 0.93211 0.17647 0.0
O916 O 0.54165 0.91358 0.12156 0.0
O917 O 0.54398 0.91742 0.1606 0.0
O918 O 0.54605 0.96244 0.164 0.0
C919 C 0.54304 0.90541 0.14212 0.0
H920 H 0.62958 0.97891 0.15575 0.0
H921 H 0.45625 0.88209 0.12824 0.0
H922 H 0.5637 0.01501 0.09985 0.0
H923 H 0.517 0.95368 0.06044 0.0
Co924 Co 0.085 0.60733 0.137 0.0
C925 C 0.05994 0.63008 0.11696 0.0
C926 C 0.06248 0.63236 0.15486 0.0
C927 C 0.05107 0.64363 0.14727 0.0
N928 N 0.06801 0.62388 0.1359 0.0
N929 N 0.04943 0.64215 0.12347 0.0
H930 H 0.06188 0.62602 0.09885 0.0
H931 H 0.0665 0.63047 0.17298 0.0
C932 C 0.05194 0.56538 0.16628 0.0
O933 O 0.0542 0.55095 0.15215 0.0
N934 N 0.10275 0.59114 0.13886 0.0
C935 C 0.11876 0.59262 0.12317 0.0
C936 C 0.12885 0.58038 0.13155 0.0
C937 C 0.10442 0.57894 0.15725 0.0
N938 N 0.11977 0.57164 0.15297 0.0
C939 C 0.07486 0.58531 0.09124 0.0
C940 C 0.02732 0.55877 0.09714 0.0
C941 C 0.03738 0.55567 0.07668 0.0
C942 C 0.06143 0.5696 0.07362 0.0
C943 C 0.04148 0.57451 0.11448 0.0
N944 N 0.06512 0.58663 0.112 0.0
H945 H 0.09305 0.59661 0.08793 0.0
H946 H 0.03336 0.57692 0.12994 0.0
H947 H 0.12379 0.60275 0.10712 0.0
H948 H 0.09537 0.57619 0.17387 0.0
O949 O 0.10934 0.6318 0.11808 0.0
O950 O 0.10772 0.63101 0.15732 0.0
O951 O 0.06307 0.5872 0.16249 0.0
C952 C 0.11851 0.64185 0.13815 0.0
H953 H 0.04412 0.65191 0.15846 0.0
H954 H 0.14197 0.57818 0.1225 0.0
H955 H 1.00873 0.5488 0.09997 0.0
H956 H 0.06979 0.56858 0.05757 0.0
Co957 Co 0.41904 0.47849 0.14225 0.0
C958 C 0.39565 0.43118 0.12153 0.0
C959 C 0.39439 0.43066 0.15952 0.0
C960 C 0.38273 0.40814 0.15146 0.0
N961 N 0.40246 0.44503 0.14078 0.0
N962 N 0.38357 0.4085 0.1276 0.0
H963 H 0.39917 0.43755 0.10352 0.0
H964 H 0.39675 0.4362 0.17779 0.0
C965 C 0.46107 0.4884 0.1719 0.0
O966 O 0.47523 0.50604 0.15855 0.0
N967 N 0.43536 0.51228 0.14431 0.0
C968 C 0.43682 0.52726 0.12739 0.0
C969 C 0.44893 0.54949 0.13608 0.0
C970 C 0.4458 0.52576 0.16347 0.0
N971 N 0.45476 0.54859 0.15872 0.0
C972 C 0.43763 0.487 0.09475 0.0
C973 C 0.4681 0.47071 0.10182 0.0
C974 C 0.46777 0.48009 0.0798 0.0
C975 C 0.45186 0.48774 0.07611 0.0
C976 C 0.45319 0.46978 0.11974 0.0
N977 N 0.43927 0.47927 0.11666 0.0
H978 H 0.42487 0.49208 0.09131 0.0
H979 H 0.45257 0.46084 0.13586 0.0
H980 H 0.42913 0.5226 0.11006 0.0
H981 H 0.44659 0.51906 0.18067 0.0
O982 O 0.39432 0.47883 0.12414 0.0
O983 O 0.3956 0.47701 0.16323 0.0
O984 O 0.43941 0.47656 0.16731 0.0
C985 C 0.38432 0.47705 0.1445 0.0
H986 H 0.37458 0.39267 0.16234 0.0
H987 H 0.45334 0.56516 0.12632 0.0
H988 H 0.47938 0.4636 0.10496 0.0
H989 H 0.45052 0.49436 0.05903 0.0
Co990 Co 0.07536 0.48835 0.64971 0.0
C991 C 0.10004 0.53874 0.66307 0.0
C992 C 0.1196 0.52218 0.67156 0.0
C993 C 0.13138 0.54455 0.67996 0.0
N994 N 0.10018 0.51858 0.66035 0.0
N995 N 0.11904 0.55503 0.67474 0.0
H996 H 0.08568 0.54103 0.65824 0.0
H997 H 0.12443 0.5091 0.67448 0.0
C998 C 0.1187 0.4913 0.62947 0.0
O999 O 0.12496 0.51196 0.62086 0.0
N1000 N 0.05056 0.45823 0.63979 0.0
C1001 C 0.02865 0.45317 0.63512 0.0
C1002 C 0.01587 0.43031 0.62851 0.0
C1003 C 0.05094 0.4384 0.63562 0.0
N1004 N 0.02986 0.42106 0.62879 0.0
C1005 C 0.06378 0.51387 0.61708 0.0
C1006 C 0.06897 0.49397 0.57638 0.0
C1007 C 0.05848 0.50773 0.57475 0.0
C1008 C 0.0565 0.51817 0.59545 0.0
C1009 C 0.07622 0.49025 0.59843 0.0
N1010 N 0.07359 0.50013 0.61855 0.0
H1011 H 0.05949 0.52 0.63281 0.0
H1012 H 0.08229 0.47797 0.59941 0.0
H1013 H 0.02241 0.46534 0.63623 0.0
H1014 H 0.06611 0.43657 0.63773 0.0
O1015 O 0.05281 0.49341 0.66636 0.0
O1016 O 0.07208 0.47735 0.68184 0.0
O1017 O 0.099 0.47948 0.63958 0.0
C1018 C 0.05675 0.48384 0.6845 0.0
H1019 H 0.14751 0.55216 0.6897 0.0
H1020 H 0.99775 0.42124 0.62344 0.0
H1021 H 0.07073 0.48537 0.56092 0.0
H1022 H 0.04781 0.52825 0.59533 0.0
Co1023 Co 0.53763 0.59266 0.65186 0.0
C1024 C 0.48726 0.56783 0.66522 0.0
C1025 C 0.50438 0.60396 0.67381 0.0
C1026 C 0.48199 0.5936 0.68231 0.0
N1027 N 0.50765 0.58795 0.66259 0.0
N1028 N 0.47117 0.57077 0.67703 0.0
H1029 H 0.48461 0.55112 0.66008 0.0
H1030 H 0.51768 0.62184 0.67653 0.0
C1031 C 0.53421 0.63204 0.62964 0.0
O1032 O 0.51279 0.61761 0.62295 0.0
N1033 N 0.56743 0.59712 0.64181 0.0
C1034 C 0.57211 0.57988 0.63813 0.0
C1035 C 0.59494 0.58939 0.63147 0.0
C1036 C 0.58745 0.61698 0.63706 0.0
N1037 N 0.60456 0.61266 0.63077 0.0
C1038 C 0.51227 0.55297 0.62218 0.0
C1039 C 0.52921 0.57569 0.57963 0.0
C1040 C 0.51682 0.55133 0.57979 0.0
C1041 C 0.50774 0.54007 0.6014 0.0
C1042 C 0.53326 0.58799 0.60087 0.0
N1043 N 0.52489 0.57666 0.62192 0.0
H1044 H 0.50716 0.54362 0.63866 0.0
H1045 H 0.5448 0.60651 0.60042 0.0
H1046 H 0.55973 0.56159 0.64011 0.0
H1047 H 0.58963 0.63417 0.63853 0.0
O1048 O 0.53297 0.56658 0.67127 0.0
O1049 O 0.54992 0.60322 0.68303 0.0
O1050 O 0.5464 0.62429 0.63909 0.0
C1051 C 0.54343 0.58177 0.68797 0.0
H1052 H 0.47457 0.60227 0.69213 0.0
H1053 H 0.60378 0.57991 0.62719 0.0
H1054 H 0.53711 0.58519 0.56352 0.0
H1055 H 0.49807 0.52131 0.60251 0.0
Co1056 Co 0.43254 0.95076 0.65255 0.0
C1057 C 0.45968 0.92774 0.66567 0.0
C1058 C 0.42352 0.90636 0.67345 0.0
C1059 C 0.43507 0.89541 0.68173 0.0
N1060 N 0.43883 0.92641 0.66275 0.0
N1061 N 0.45785 0.90898 0.67694 0.0
H1062 H 0.47607 0.94252 0.66083 0.0
H1063 H 0.40535 0.9006 0.67626 0.0
C1064 C 0.39291 0.90715 0.6315 0.0
O1065 O 0.40762 0.90117 0.62313 0.0
N1066 N 0.42664 0.97533 0.64283 0.0
C1067 C 0.44337 0.99765 0.63986 0.0
C1068 C 0.43402 0.00947 0.62891 0.0
C1069 C 0.40717 0.97391 0.63358 0.0
N1070 N 0.41135 0.99457 0.62482 0.0
C1071 C 0.47074 0.96497 0.62078 0.0
C1072 C 0.44633 0.95898 0.57941 0.0
C1073 C 0.47071 0.97108 0.57853 0.0
C1074 C 0.48279 0.97327 0.59953 0.0
C1075 C 0.43486 0.95067 0.60114 0.0
N1076 N 0.44705 0.95381 0.62163 0.0
H1077 H 0.48082 0.96944 0.63675 0.0
H1078 H 0.41629 0.94344 0.60158 0.0
H1079 H 0.46151 1.00468 0.6441 0.0
H1080 H 0.39075 0.95796 0.63186 0.0
O1081 O 0.45945 0.97326 0.67011 0.0
O1082 O 0.42383 0.95286 0.68466 0.0
O1083 O 0.40043 0.92673 0.6417 0.0
C1084 C 0.44547 0.96841 0.688 0.0
H1085 H 0.42748 0.87938 0.69172 0.0
H1086 H 0.44339 0.02752 0.62358 0.0
H1087 H 0.4362 0.95725 0.56377 0.0
H1088 H 0.50159 0.98237 0.59985 0.0
Co1089 Co 0.16237 0.41736 0.20842 0.0
C1090 C 0.20579 0.43306 0.18059 0.0
C1091 C 0.20267 0.46188 0.19256 0.0
C1092 C 0.22383 0.47029 0.18153 0.0
N1093 N 0.19111 0.43846 0.19181 0.0
N1094 N 0.22586 0.45214 0.17423 0.0
H1095 H 0.20254 0.41556 0.17823 0.0
H1096 H 0.19726 0.47235 0.20212 0.0
C1097 C 0.14376 0.44906 0.22653 0.0
O1098 O 0.12913 0.43405 0.24185 0.0
N1099 N 0.13415 0.39558 0.22518 0.0
C1100 C 0.13334 0.38077 0.24198 0.0
C1101 C 0.11121 0.36836 0.25068 0.0
C1102 C 0.11188 0.39074 0.22278 0.0
N1103 N 0.09777 0.37475 0.23884 0.0
C1104 C 0.19488 0.41216 0.23672 0.0
C1105 C 0.18323 0.42389 0.2794 0.0
C1106 C 0.19623 0.41255 0.2795 0.0
C1107 C 0.20306 0.4078 0.25774 0.0
C1108 C 0.17573 0.42834 0.25789 0.0
N1109 N 0.18042 0.42121 0.23699 0.0
H1110 H 0.19858 0.40635 0.22034 0.0
H1111 H 0.1645 0.43558 0.25841 0.0
H1112 H 0.14789 0.37906 0.24773 0.0
H1113 H 0.10637 0.39947 0.21044 0.0
O1114 O 0.16275 0.39083 0.19453 0.0
O1115 O 0.14568 0.40903 0.1789 0.0
O1116 O 0.15812 0.44505 0.21526 0.0
C1117 C 0.15084 0.39266 0.17722 0.0
H1118 H 0.23748 0.48828 0.1808 0.0
H1119 H 0.10537 0.35556 0.2647 0.0
H1120 H 0.17785 0.42816 0.29584 0.0
H1121 H 0.213 0.39897 0.25693 0.0
Co1122 Co 0.60456 0.74675 0.20832 0.0
C1123 C 0.58169 0.76924 0.1824 0.0
C1124 C 0.55749 0.73943 0.20225 0.0
C1125 C 0.54603 0.75008 0.1934 0.0
N1126 N 0.57988 0.75116 0.19524 0.0
N1127 N 0.56126 0.76906 0.18122 0.0
H1128 H 0.59794 0.78341 0.17594 0.0
H1129 H 0.55024 0.72546 0.21494 0.0
C1130 C 0.57605 0.69657 0.22996 0.0
O1131 O 0.59178 0.69751 0.24463 0.0
N1132 N 0.62973 0.74356 0.22182 0.0
C1133 C 0.64754 0.76118 0.23334 0.0
C1134 C 0.66193 0.75381 0.24199 0.0
C1135 C 0.63428 0.72585 0.22258 0.0
N1136 N 0.65347 0.73148 0.2357 0.0
C1137 C 0.60996 0.78464 0.23602 0.0
C1138 C 0.60561 0.76451 0.27991 0.0
C1139 C 0.61501 0.7886 0.27842 0.0
C1140 C 0.61622 0.79847 0.25623 0.0
C1141 C 0.59976 0.75126 0.25911 0.0
N1142 N 0.60302 0.76159 0.23745 0.0
H1143 H 0.61261 0.79293 0.21899 0.0
H1144 H 0.59446 0.7332 0.26048 0.0
H1145 H 0.64971 0.77827 0.23572 0.0
H1146 H 0.62346 0.70906 0.21452 0.0
O1147 O 0.62786 0.77394 0.19145 0.0
O1148 O 0.61037 0.73793 0.17772 0.0
O1149 O 0.57954 0.71433 0.21794 0.0
C1150 C 0.62535 0.75975 0.17437 0.0
H1151 H 0.52816 0.74509 0.19713 0.0
H1152 H 0.67735 0.76408 0.25251 0.0
H1153 H 0.6045 0.75628 0.29677 0.0
H1154 H 0.62325 0.81701 0.25439 0.0
Co1155 Co 0.27517 0.86536 0.19619 0.0
C1156 C 0.24884 0.81815 0.17487 0.0
C1157 C 0.28561 0.83177 0.17318 0.0
C1158 C 0.27465 0.80957 0.16416 0.0
N1159 N 0.26943 0.83698 0.18047 0.0
N1160 N 0.25157 0.80111 0.16523 0.0
H1161 H 0.23212 0.8166 0.178 0.0
H1162 H 0.30414 0.84325 0.17421 0.0
C1163 C 0.32288 0.88258 0.22089 0.0
O1164 O 0.3208 0.89636 0.23603 0.0
N1165 N 0.27997 0.89357 0.21166 0.0
C1166 C 0.26306 0.8946 0.22384 0.0
C1167 C 0.27166 0.91628 0.23315 0.0
C1168 C 0.29846 0.91542 0.21257 0.0
N1169 N 0.294 0.92932 0.22651 0.0
C1170 C 0.23413 0.83655 0.22283 0.0
C1171 C 0.25489 0.84242 0.26651 0.0
C1172 C 0.23085 0.83357 0.2654 0.0
C1173 C 0.22042 0.82959 0.24315 0.0
C1174 C 0.26811 0.84927 0.24559 0.0
N1175 N 0.25782 0.84749 0.22413 0.0
H1176 H 0.22556 0.8353 0.20632 0.0
H1177 H 0.2866 0.85729 0.24714 0.0
H1178 H 0.24548 0.88053 0.22595 0.0
H1179 H 0.31504 0.92074 0.20424 0.0
O1180 O 0.24991 0.86502 0.17885 0.0
O1181 O 0.28638 0.88185 0.1665 0.0
O1182 O 0.30608 0.86924 0.20723 0.0
C1183 C 0.26508 0.87676 0.16255 0.0
H1184 H 0.28297 0.80036 0.1573 0.0
H1185 H 0.26224 0.922 0.2443 0.0
H1186 H 0.26358 0.84561 0.28344 0.0
H1187 H 0.20185 0.82259 0.24152 0.0
H1188 H 0.37757 0.19443 0.86066 0.0
H1189 H 0.29513 0.21889 0.94439 0.0
H1190 H 0.3666 0.25272 0.8525 0.0
H1191 H 0.32627 0.17895 0.9679 0.0
H1192 H 0.31526 0.22543 0.90658 0.0
H1193 H 0.35302 0.18281 0.89635 0.0
C1194 C 0.36983 0.20462 0.86625 0.0
C1195 C 0.37422 0.22463 0.85375 0.0
C1196 C 0.3176 0.21514 0.91997 0.0
C1197 C 0.34614 0.21141 0.89412 0.0
C1198 C 0.30606 0.21133 0.94152 0.0
C1199 C 0.30921 0.19853 0.95937 0.0
C1200 C 0.33224 0.20591 0.91611 0.0
C1201 C 0.32354 0.18909 0.95465 0.0
C1202 C 0.35596 0.19806 0.88661 0.0
C1203 C 0.36387 0.2373 0.86175 0.0
N1204 N 0.3346 0.19301 0.93345 0.0
N1205 N 0.3503 0.23045 0.88137 0.0
H1206 H 0.82206 0.08526 0.93998 0.0
H1207 H 0.77432 0.15652 0.87379 0.0
H1208 H 0.81766 0.1406 0.9748 0.0
H1209 H 0.82042 0.13921 0.83695 0.0
H1210 H 0.78447 0.14523 0.91116 0.0
H1211 H 0.81602 0.09917 0.90169 0.0
C1212 C 0.8198 0.10028 0.93954 0.0
C1213 C 0.8203 0.11181 0.9605 0.0
C1214 C 0.79248 0.14405 0.89492 0.0
C1215 C 0.81314 0.12745 0.91718 0.0
C1216 C 0.78668 0.15042 0.87365 0.0
C1217 C 0.79666 0.14885 0.8524 0.0
C1218 C 0.80784 0.13539 0.89486 0.0
C1219 C 0.81256 0.14083 0.85308 0.0
C1220 C 0.81654 0.10827 0.91777 0.0
C1221 C 0.81744 0.13127 0.95903 0.0
N1222 N 0.81745 0.13404 0.87402 0.0
N1223 N 0.81368 0.1383 0.93777 0.0
H1224 H 0.87491 0.67944 0.83551 0.0
H1225 H 0.8738 0.67594 0.97604 0.0
H1226 H 0.86286 0.61861 0.87431 0.0
H1227 H 0.92703 0.73521 0.93849 0.0
H1228 H 0.85962 0.65562 0.93818 0.0
H1229 H 0.8844 0.70121 0.87307 0.0
C1230 C 0.87392 0.67065 0.85197 0.0
C1231 C 0.86824 0.64733 0.85199 0.0
C1232 C 0.87423 0.67317 0.9383 0.0
C1233 C 0.87848 0.6717 0.89453 0.0
C1234 C 0.88227 0.68477 0.95979 0.0
C1235 C 0.90168 0.70716 0.96029 0.0
C1236 C 0.88534 0.6843 0.91721 0.0
C1237 C 0.91212 0.71784 0.93879 0.0
C1238 C 0.87942 0.68303 0.87324 0.0
C1239 C 0.86733 0.63664 0.87365 0.0
N1240 N 0.90377 0.70632 0.91801 0.0
N1241 N 0.87228 0.64888 0.89411 0.0
H1242 H 0.21385 0.35459 0.50975 0.0
H1243 H 0.21067 0.34868 0.6506 0.0
H1244 H 0.19644 0.29188 0.54799 0.0
H1245 H 0.26484 0.40766 0.61353 0.0
H1246 H 0.19592 0.32904 0.6125 0.0
H1247 H 0.22343 0.37581 0.54765 0.0
C1248 C 0.21167 0.34528 0.52615 0.0
C1249 C 0.20449 0.32158 0.52592 0.0
C1250 C 0.21089 0.34638 0.61278 0.0
C1251 C 0.21491 0.34538 0.56885 0.0
C1252 C 0.21925 0.35759 0.63442 0.0
C1253 C 0.23909 0.37969 0.63512 0.0
C1254 C 0.22211 0.35761 0.59175 0.0
C1255 C 0.24963 0.39049 0.61368 0.0
C1256 C 0.21723 0.35735 0.54763 0.0
C1257 C 0.20209 0.31022 0.54752 0.0
N1258 N 0.24097 0.37936 0.59279 0.0
N1259 N 0.2072 0.3222 0.56816 0.0
H1260 H 0.61847 0.86754 0.61368 0.0
H1261 H 0.73819 0.91827 0.5487 0.0
H1262 H 0.67855 0.8747 0.65037 0.0
H1263 H 0.67603 0.86825 0.51265 0.0
H1264 H 0.71661 0.90805 0.58612 0.0
H1265 H 0.63911 0.87334 0.57586 0.0
C1266 C 0.636 0.87039 0.61374 0.0
C1267 C 0.64691 0.87072 0.63508 0.0
C1268 C 0.70776 0.89918 0.57005 0.0
C1269 C 0.67048 0.87761 0.59227 0.0
C1270 C 0.72 0.90499 0.54879 0.0
C1271 C 0.70881 0.89391 0.52777 0.0
C1272 C 0.684 0.88274 0.57013 0.0
C1273 C 0.68523 0.87693 0.52864 0.0
C1274 C 0.64763 0.8735 0.59224 0.0
C1275 C 0.66954 0.87429 0.63427 0.0
N1276 N 0.67342 0.87207 0.5495 0.0
N1277 N 0.68073 0.87792 0.61322 0.0
H1278 H 0.16274 0.85354 0.52495 0.0
H1279 H 0.13594 0.74707 0.61036 0.0
H1280 H 0.10498 0.78408 0.51614 0.0
H1281 H 0.17444 0.81814 0.63415 0.0
H1282 H 0.13081 0.76054 0.57192 0.0
H1283 H 0.17345 0.84086 0.56147 0.0
C1284 C 0.15255 0.83561 0.53053 0.0
C1285 C 0.1329 0.81984 0.51768 0.0
C1286 C 0.14046 0.77322 0.58551 0.0
C1287 C 0.14502 0.80531 0.55896 0.0
C1288 C 0.14344 0.76554 0.60745 0.0
C1289 C 0.15545 0.78151 0.62554 0.0
C1290 C 0.14971 0.79705 0.58149 0.0
C1291 C 0.16488 0.80525 0.62072 0.0
C1292 C 0.15855 0.82845 0.55137 0.0
C1293 C 0.12014 0.79684 0.52568 0.0
N1294 N 0.16178 0.81235 0.59911 0.0
N1295 N 0.12643 0.79028 0.54576 0.0
H1296 H 0.71107 0.77462 0.05394 0.0
H1297 H 0.64618 0.80331 0.15479 0.0
H1298 H 0.69116 0.82646 0.04296 0.0
H1299 H 0.63513 0.7344 0.14358 0.0
H1300 H 0.66825 0.81576 0.11748 0.0
H1301 H 0.68893 0.76329 0.09088 0.0
C1302 C 0.70209 0.78368 0.05937 0.0
C1303 C 0.70287 0.80146 0.04538 0.0
C1304 C 0.66092 0.79793 0.12325 0.0
C1305 C 0.67778 0.78875 0.08774 0.0
C1306 C 0.64849 0.79086 0.14452 0.0
C1307 C 0.63885 0.76781 0.15221 0.0
C1308 C 0.66416 0.78193 0.10999 0.0
C1309 C 0.6422 0.75231 0.13823 0.0
C1310 C 0.6894 0.77713 0.08038 0.0
C1311 C 0.69086 0.81256 0.05321 0.0
N1312 N 0.65475 0.7597 0.11791 0.0
N1313 N 0.67891 0.80615 0.07403 0.0
H1314 H 0.22795 0.88371 0.01765 0.0
H1315 H 0.23066 0.88712 0.15665 0.0
H1316 H 0.21729 0.93409 0.05507 0.0
H1317 H 0.28366 0.88132 0.1184 0.0
H1318 H 0.21864 0.89725 0.11951 0.0
H1319 H 0.24179 0.8752 0.05463 0.0
C1320 C 0.22845 0.89288 0.03367 0.0
C1321 C 0.22155 0.90964 0.03341 0.0
C1322 C 0.23293 0.89381 0.11934 0.0
C1323 C 0.23678 0.8997 0.07551 0.0
C1324 C 0.23973 0.88798 0.14041 0.0
C1325 C 0.25821 0.88352 0.14049 0.0
C1326 C 0.24422 0.89442 0.09816 0.0
C1327 C 0.26944 0.88486 0.11903 0.0
C1328 C 0.23644 0.88813 0.05463 0.0
C1329 C 0.2226 0.92114 0.05456 0.0
N1330 N 0.26207 0.8899 0.0986 0.0
N1331 N 0.22981 0.91575 0.07487 0.0
H1332 H 0.15477 0.32675 0.04638 0.0
H1333 H 0.11461 0.3815 0.14754 0.0
H1334 H 0.08306 0.30759 0.05655 0.0
H1335 H 0.17252 0.37043 0.15845 0.0
H1336 H 0.10514 0.35876 0.11107 0.0
H1337 H 0.16423 0.34725 0.0846 0.0
C1338 C 0.14106 0.32686 0.05664 0.0
C1339 C 0.1181 0.31547 0.04833 0.0
C1340 C 0.11984 0.36118 0.12151 0.0
C1341 C 0.12881 0.33901 0.09162 0.0
C1342 C 0.12527 0.37418 0.14227 0.0
C1343 C 0.1443 0.37772 0.15603 0.0
C1344 C 0.13385 0.35211 0.11411 0.0
C1345 C 0.15757 0.36788 0.1484 0.0
C1346 C 0.14644 0.33842 0.07843 0.0
C1347 C 0.10097 0.31606 0.06232 0.0
N1348 N 0.15226 0.35571 0.12776 0.0
N1349 N 0.1067 0.32782 0.08313 0.0
H1350 H 0.78488 0.7188 0.46724 0.0
H1351 H 0.82112 0.65837 0.36845 0.0
H1352 H 0.84197 0.70656 0.47892 0.0
H1353 H 0.75004 0.64062 0.38049 0.0
H1354 H 0.83231 0.68136 0.40515 0.0
H1355 H 0.77517 0.69576 0.43106 0.0
C1356 C 0.79547 0.71136 0.4621 0.0
C1357 C 0.81422 0.71451 0.47609 0.0
C1358 C 0.81428 0.67232 0.39971 0.0
C1359 C 0.8033 0.68832 0.43461 0.0
C1360 C 0.80791 0.65932 0.37881 0.0
C1361 C 0.78462 0.6476 0.3715 0.0
C1362 C 0.79731 0.67399 0.41296 0.0
C1363 C 0.76816 0.64931 0.38555 0.0
C1364 C 0.78983 0.69813 0.44153 0.0
C1365 C 0.82729 0.7044 0.46864 0.0
N1366 N 0.77485 0.66244 0.40547 0.0
N1367 N 0.82168 0.69183 0.44825 0.0
H1368 H 0.32074 0.13901 0.47779 0.0
H1369 H 0.38523 0.11111 0.37595 0.0
H1370 H 0.30807 0.06973 0.46493 0.0
H1371 H 0.3679 0.16513 0.36776 0.0
H1372 H 0.36238 0.09873 0.41244 0.0
H1373 H 0.34334 0.15193 0.44096 0.0
C1374 C 0.32277 0.12656 0.46723 0.0
C1375 C 0.31255 0.10328 0.47434 0.0
C1376 C 0.36359 0.11328 0.40264 0.0
C1377 C 0.33852 0.11796 0.43261 0.0
C1378 C 0.37671 0.12044 0.38192 0.0
C1379 C 0.37841 0.13915 0.36886 0.0
C1380 C 0.35247 0.12521 0.41062 0.0
C1381 C 0.36692 0.15056 0.37731 0.0
C1382 C 0.33554 0.13391 0.44624 0.0
C1383 C 0.3156 0.08781 0.46001 0.0
N1384 N 0.35454 0.14351 0.39781 0.0
N1385 N 0.3285 0.09547 0.43991 0.0
H1386 H 0.88565 0.18644 0.47357 0.0
H1387 H 0.91497 0.27873 0.37118 0.0
H1388 H 0.9552 0.24313 0.4617 0.0
H1389 H 0.86144 0.20719 0.36289 0.0
H1390 H 0.92721 0.26835 0.40791 0.0
H1391 H 0.87352 0.19604 0.43619 0.0
C1392 C 0.89833 0.2009 0.4631 0.0
C1393 C 0.92145 0.214 0.47064 0.0
C1394 C 0.91283 0.25495 0.39799 0.0
C1395 C 0.90767 0.22523 0.42831 0.0
C1396 C 0.90579 0.26086 0.37712 0.0
C1397 C 0.88723 0.24376 0.36401 0.0
C1398 C 0.90087 0.23189 0.40603 0.0
C1399 C 0.87594 0.22085 0.37244 0.0
C1400 C 0.89143 0.20629 0.4418 0.0
C1401 C 0.93723 0.23251 0.45643 0.0
N1402 N 0.8828 0.21559 0.39307 0.0
N1403 N 0.93 0.23773 0.43605 0.0
H1404 H 0.9613 0.55319 0.2807 0.0
H1405 H 0.04076 0.52722 0.19407 0.0
H1406 H 0.9944 0.51494 0.30377 0.0
H1407 H 0.02828 0.58451 0.18574 0.0
H1408 H 0.01765 0.51627 0.23082 0.0
H1409 H 0.97953 0.5584 0.24203 0.0
C1410 C 0.97232 0.54577 0.27759 0.0
C1411 C 0.97655 0.53382 0.29554 0.0
C1412 C 0.0199 0.53112 0.22077 0.0
C1413 C 0.9974 0.53966 0.25122 0.0
C1414 C 0.03289 0.53725 0.19981 0.0
C1415 C 0.03648 0.55685 0.18703 0.0
C1416 C 1.01017 0.54446 0.22857 0.0
C1417 C 0.02611 0.56941 0.19523 0.0
C1418 C 0.98275 0.54879 0.25552 0.0
C1419 C 0.99089 0.52448 0.29045 0.0
N1420 N 1.01343 0.56299 0.21543 0.0
N1421 N 1.00089 0.52763 0.26872 0.0
H1422 H 0.49829 0.51568 0.20056 0.0
H1423 H 0.47295 0.40941 0.28572 0.0
H1424 H 0.44329 0.44512 0.1899 0.0
H1425 H 0.511 0.48067 0.30905 0.0
H1426 H 0.46811 0.42257 0.247 0.0
H1427 H 0.50926 0.50332 0.23708 0.0
C1428 C 0.48879 0.49759 0.20573 0.0
C1429 C 0.46979 0.4814 0.19239 0.0
C1430 C 0.47759 0.43535 0.26056 0.0
C1431 C 0.48216 0.46724 0.23369 0.0
C1432 C 0.48038 0.42786 0.28266 0.0
C1433 C 0.49218 0.44397 0.30068 0.0
C1434 C 0.48676 0.45915 0.25635 0.0
C1435 C 0.50158 0.46767 0.29567 0.0
C1436 C 0.49492 0.49059 0.22657 0.0
C1437 C 0.4579 0.45819 0.19985 0.0
N1438 N 0.49861 0.47459 0.27393 0.0
N1439 N 0.46427 0.45182 0.21998 0.0
H1440 H 0.50959 0.98684 0.19424 0.0
H1441 H 0.61406 0.06302 0.28305 0.0
H1442 H 0.5786 0.99677 0.18747 0.0
H1443 H 0.54224 0.03235 0.30407 0.0
H1444 H 0.6016 0.04511 0.24419 0.0
H1445 H 0.52169 0.00979 0.23099 0.0
C1446 C 0.52733 0.99413 0.20031 0.0
C1447 C 0.54311 0.98986 0.18797 0.0
C1448 C 0.58855 0.04235 0.25727 0.0
C1449 C 0.55699 0.01598 0.22957 0.0
C1450 C 0.59565 0.05259 0.27945 0.0
C1451 C 0.57915 0.04896 0.29688 0.0
C1452 C 0.56477 0.02851 0.25235 0.0
C1453 C 0.55551 0.03539 0.29117 0.0
C1454 C 0.53416 1.00704 0.22129 0.0
C1455 C 0.56584 0.9995 0.19661 0.0
N1456 N 0.54899 0.02558 0.26935 0.0
N1457 N 0.57209 0.0121 0.21684 0.0
H1458 H 0.42835 0.9525 0.73221 0.0
H1459 H 0.48509 0.07409 0.79235 0.0
H1460 H 0.48046 0.01272 0.69492 0.0
H1461 H 0.47825 0.01589 0.83251 0.0
H1462 H 0.47738 0.05131 0.75595 0.0
H1463 H 0.44049 0.9747 0.76935 0.0
C1464 C 0.4424 0.97034 0.73191 0.0
C1465 C 0.45347 0.98088 0.7106 0.0
C1466 C 0.47771 0.04362 0.77274 0.0
C1467 C 0.46692 1.00626 0.75256 0.0
C1468 C 0.48195 0.0565 0.79344 0.0
C1469 C 0.48226 0.04675 0.81532 0.0
C1470 C 0.47304 0.02064 0.77408 0.0
C1471 C 0.47824 0.02397 0.81588 0.0
C1472 C 0.44935 0.98289 0.75302 0.0
C1473 C 0.47161 1.00399 0.71106 0.0
N1474 N 0.4734 0.01147 0.79553 0.0
N1475 N 0.47753 0.01608 0.73168 0.0
H1476 H 1.01192 0.47371 0.68944 0.0
H1477 H 1.0074 0.46815 0.82933 0.0
H1478 H 0.07111 0.48281 0.72942 0.0
H1479 H 0.95115 0.41617 0.7876 0.0
H1480 H 0.03064 0.48346 0.793 0.0
H1481 H 0.98877 0.4623 0.72603 0.0
C1482 C 0.0201 0.47366 0.70599 0.0
C1483 C 0.04336 0.47911 0.70655 0.0
C1484 C 1.01314 0.46882 0.7919 0.0
C1485 C 0.01729 0.46656 0.74813 0.0
C1486 C 0.99989 0.46018 0.81248 0.0
C1487 C 0.97746 0.44086 0.81131 0.0
C1488 C 1.00352 0.45847 0.77007 0.0
C1489 C 0.96848 0.43101 0.78915 0.0
C1490 C 1.0069 0.46704 0.72672 0.0
C1491 C 0.05315 0.47858 0.72834 0.0
N1492 N 0.9815 0.44004 0.7693 0.0
N1493 N 0.04008 0.47253 0.74838 0.0
H1494 H 0.54932 0.51561 0.81855 0.0
H1495 H 0.57529 0.61067 0.71989 0.0
H1496 H 0.61726 0.57531 0.80765 0.0
H1497 H 0.52473 0.53858 0.70824 0.0
H1498 H 0.58644 0.60007 0.75698 0.0
H1499 H 0.53576 0.52583 0.78245 0.0
C1500 C 0.5613 0.53092 0.80863 0.0
C1501 C 0.58443 0.54466 0.81597 0.0
C1502 C 0.57285 0.5866 0.74633 0.0
C1503 C 0.56903 0.55649 0.7752 0.0
C1504 C 0.56638 0.59262 0.72525 0.0
C1505 C 0.54912 0.57543 0.71098 0.0
C1506 C 0.56171 0.56329 0.75341 0.0
C1507 C 0.53822 0.55231 0.71873 0.0
C1508 C 0.5536 0.53663 0.78807 0.0
C1509 C 0.59932 0.56422 0.8025 0.0
N1510 N 0.54464 0.54687 0.73955 0.0
N1511 N 0.59132 0.56966 0.78284 0.0
H1512 H 0.4008 0.40466 0.08535 0.0
H1513 H 0.30298 0.27124 0.06854 0.0
H1514 H 0.34477 0.3669 0.13469 0.0
H1515 H 0.36838 0.30338 0.0313 0.0
H1516 H 0.31474 0.30817 0.08843 0.0
H1517 H 0.38586 0.3696 0.06093 0.0
C1518 C 0.38521 0.38907 0.09088 0.0
C1519 C 0.3741 0.38861 0.11216 0.0
C1520 C 0.32645 0.30718 0.07578 0.0
C1521 C 0.35694 0.34851 0.08441 0.0
C1522 C 0.31967 0.28615 0.0643 0.0
C1523 C 0.33479 0.2842 0.04835 0.0
C1524 C 0.34843 0.32647 0.07113 0.0
C1525 C 0.35634 0.30406 0.04372 0.0
C1526 C 0.37677 0.36905 0.07704 0.0
C1527 C 0.35405 0.36789 0.11861 0.0
N1528 N 0.36254 0.32434 0.05509 0.0
N1529 N 0.34614 0.34868 0.10482 0.0
H1530 H 0.74616 0.02574 0.05433 0.0
H1531 H 0.61569 0.99582 0.08149 0.0
H1532 H 0.71907 0.06955 0.03232 0.0
H1533 H 0.65309 0.97244 0.12513 0.0
H1534 H 0.65012 0.01626 0.056 0.0
H1535 H 0.70854 0.9991 0.07265 0.0
C1536 C 0.7321 0.02942 0.05283 0.0
C1537 C 0.73572 0.0499 0.04189 0.0
C1538 C 0.65067 1.00646 0.07103 0.0
C1539 C 0.69276 0.01966 0.06286 0.0
C1540 C 0.63103 0.99471 0.08547 0.0
C1541 C 0.63164 0.98258 0.10552 0.0
C1542 C 0.67091 1.0057 0.07644 0.0
C1543 C 0.65203 0.98185 0.11001 0.0
C1544 C 0.71074 0.01437 0.06348 0.0
C1545 C 0.71699 0.05401 0.04074 0.0
N1546 N 0.67084 0.99325 0.09561 0.0
N1547 N 0.69635 0.0391 0.05117 0.0
H1548 H 0.9516 0.65022 0.03024 0.0
H1549 H 0.04695 0.68109 0.13037 0.0
H1550 H 0.98624 0.71632 0.06585 0.0
H1551 H 0.02545 0.62323 0.0829 0.0
H1552 H 0.02462 0.69411 0.1071 0.0
H1553 H 0.97813 0.63974 0.04934 0.0
C1554 C 0.96486 0.66256 0.04201 0.0
C1555 C 0.96663 0.68414 0.04653 0.0
C1556 C 0.02491 0.67867 0.10162 0.0
C1557 C 0.99703 0.67224 0.06855 0.0
C1558 C 0.03757 0.67117 0.11497 0.0
C1559 C 0.03794 0.65097 0.10864 0.0
C1560 C 1.0122 0.66572 0.08191 0.0
C1561 C 0.02572 0.63896 0.08832 0.0
C1562 C 0.98008 0.65662 0.05281 0.0
C1563 C 0.98434 0.69959 0.06171 0.0
N1564 N 1.01314 0.64636 0.07582 0.0
N1565 N 0.99867 0.69324 0.07236 0.0
H1566 H 0.28488 0.32861 0.42294 0.0
H1567 H 0.4194 0.36582 0.41161 0.0
H1568 H 0.32103 0.31115 0.47495 0.0
H1569 H 0.38846 0.3997 0.3736 0.0
H1570 H 0.38176 0.34032 0.43044 0.0
H1571 H 0.32103 0.34943 0.40013 0.0
C1572 C 0.30034 0.3289 0.42939 0.0
C1573 C 0.29999 0.31825 0.45094 0.0
C1574 C 0.38319 0.35325 0.41786 0.0
C1575 C 0.3414 0.34204 0.425 0.0
C1576 C 0.40462 0.36768 0.40699 0.0
C1577 C 0.4071 0.385 0.39112 0.0
C1578 C 0.36401 0.35595 0.4126 0.0
C1579 C 0.38738 0.38679 0.38597 0.0
C1580 C 0.321 0.34091 0.41647 0.0
C1581 C 0.32062 0.31938 0.4586 0.0
N1582 N 0.36671 0.37248 0.39666 0.0
N1583 N 0.34047 0.33105 0.44566 0.0
H1584 H 0.69461 0.95968 0.4244 0.0
H1585 H 0.65689 0.05592 0.40737 0.0
H1586 H 0.71669 0.01836 0.4709 0.0
H1587 H 0.62124 0.98857 0.37429 0.0
H1588 H 0.68304 0.04505 0.42671 0.0
H1589 H 0.67171 0.97263 0.40182 0.0
C1590 C 0.69485 0.97542 0.42971 0.0
C1591 C 0.70753 0.98791 0.44963 0.0
C1592 C 0.66955 0.03269 0.41514 0.0
C1593 C 0.68129 1.00281 0.42392 0.0
C1594 C 0.65473 0.03895 0.40395 0.0
C1595 C 0.63678 0.0231 0.38924 0.0
C1596 C 0.6666 0.01048 0.41141 0.0
C1597 C 0.63465 1.00121 0.38571 0.0
C1598 C 0.68164 0.98272 0.41692 0.0
C1599 C 0.70695 1.00806 0.45585 0.0
N1600 N 0.64935 0.99556 0.39668 0.0
N1601 N 0.69409 0.01488 0.44305 0.0
H1602 H 0.96841 0.60764 0.40211 0.0
H1603 H 0.06518 0.74207 0.41569 0.0
H1604 H 0.03538 0.63852 0.36808 0.0
H1605 H 1.00711 0.70631 0.46323 0.0
H1606 H 0.0515 0.70589 0.39338 0.0
H1607 H 0.97932 0.64532 0.41993 0.0
C1608 C 0.98529 0.6224 0.39814 0.0
C1609 C 1.00106 0.61988 0.38369 0.0
C1610 C 0.04168 0.70601 0.40862 0.0
C1611 C 1.01373 0.66306 0.4041 0.0
C1612 C 0.0494 0.72669 0.42125 0.0
C1613 C 0.03735 0.72716 0.44145 0.0
C1614 C 0.02161 0.68572 0.41607 0.0
C1615 C 0.0171 0.70663 0.44798 0.0
C1616 C 0.99158 0.64387 0.40845 0.0
C1617 C 0.02282 0.63961 0.37937 0.0
N1618 N 1.00989 0.68678 0.43537 0.0
N1619 N 0.02851 0.66032 0.38953 0.0
H1620 H 0.65468 0.62869 0.87519 0.0
H1621 H 0.69959 0.71834 0.98354 0.0
H1622 H 0.63446 0.60736 0.94732 0.0
H1623 H 0.68404 0.73537 0.91502 0.0
H1624 H 0.68708 0.67878 0.96923 0.0
H1625 H 0.67705 0.66939 0.88855 0.0
C1626 C 0.65548 0.63261 0.89387 0.0
C1627 C 0.64277 0.61488 0.91023 0.0
C1628 C 0.68679 0.69134 0.95726 0.0
C1629 C 0.66822 0.6609 0.9256 0.0
C1630 C 0.69401 0.71382 0.96537 0.0
C1631 C 0.69263 0.72989 0.95043 0.0
C1632 C 0.6787 0.6852 0.93393 0.0
C1633 C 0.68512 0.7233 0.92706 0.0
C1634 C 0.66805 0.65571 0.90146 0.0
C1635 C 0.64402 0.62069 0.93425 0.0
N1636 N 0.67842 0.70144 0.9195 0.0
N1637 N 0.65649 0.64322 0.94125 0.0
H1638 H 0.28303 0.97426 0.90958 0.0
H1639 H 0.41307 0.01817 0.94498 0.0
H1640 H 0.30288 0.97049 0.98113 0.0
H1641 H 0.39497 0.04153 0.88165 0.0
H1642 H 0.37326 1.00227 0.95936 0.0
H1643 H 0.32385 1.00068 0.89957 0.0
C1644 C 0.2961 0.97945 0.92326 0.0
C1645 C 0.28981 0.97031 0.94615 0.0
C1646 C 0.37801 0.01115 0.94248 0.0
C1647 C 0.33651 0.99997 0.93483 0.0
C1648 C 0.40069 0.02011 0.93421 0.0
C1649 C 0.40717 0.0309 0.91197 0.0
C1650 C 0.36152 0.01258 0.92821 0.0
C1651 C 0.39061 0.0333 0.89887 0.0
C1652 C 0.31934 0.99449 0.91759 0.0
C1653 C 0.30719 0.97736 0.96333 0.0
N1654 N 0.36841 0.02384 0.90699 0.0
N1655 N 0.32986 0.99148 0.95722 0.0
H1656 H 0.09029 0.37601 0.96105 0.0
H1657 H 0.97185 0.35586 0.90985 0.0
H1658 H 0.03829 0.30534 0.94497 0.0
H1659 H 0.03877 0.41175 0.88805 0.0
H1660 H 0.99143 0.33621 0.92781 0.0
H1661 H 0.06681 0.38948 0.94149 0.0
C1662 C 0.07396 0.36324 0.95332 0.0
C1663 C 0.06666 0.33948 0.95415 0.0
C1664 C 1.00164 0.35263 0.91878 0.0
C1665 C 0.03923 0.35501 0.932 0.0
C1666 C 0.99053 0.36376 0.90847 0.0
C1667 C 1.00378 0.38571 0.89789 0.0
C1668 C 0.02603 0.3638 0.91863 0.0
C1669 C 0.02793 0.39521 0.8966 0.0
C1670 C 0.0605 0.371 0.9422 0.0
C1671 C 0.04471 0.32382 0.94461 0.0
N1672 N 0.03823 0.38442 0.90715 0.0
N1673 N 0.03171 0.33186 0.9338 0.0
H1674 H 0.6422 0.6103 0.64363 0.0
H1675 H 0.7284 0.70848 0.55371 0.0
H1676 H 0.62099 0.65174 0.60384 0.0
H1677 H 0.74831 0.67192 0.60269 0.0
H1678 H 0.68984 0.69059 0.5728 0.0
H1679 H 0.68189 0.63493 0.62991 0.0
C1680 C 0.64603 0.62476 0.63205 0.0
C1681 C 0.62833 0.6289 0.6247 0.0
C1682 C 0.70279 0.68672 0.57948 0.0
C1683 C 0.67388 0.65726 0.60853 0.0
C1684 C 0.72476 0.69698 0.56866 0.0
C1685 C 0.74138 0.69131 0.57636 0.0
C1686 C 0.69759 0.6708 0.59812 0.0
C1687 C 0.73584 0.67631 0.59579 0.0
C1688 C 0.66872 0.6389 0.62423 0.0
C1689 C 0.63424 0.64805 0.60992 0.0
N1690 N 0.71446 0.6665 0.6058 0.0
N1691 N 0.65651 0.66139 0.60202 0.0
H1692 H 0.42261 0.02136 0.58591 0.0
H1693 H 0.30355 0.02404 0.58244 0.0
H1694 H 0.36549 0.97938 0.63258 0.0
H1695 H 0.36541 0.06949 0.54319 0.0
H1696 H 0.32252 1.00243 0.59652 0.0
H1697 H 0.39863 0.03394 0.56552 0.0
C1698 C 0.4049 0.01476 0.59182 0.0
C1699 C 0.39614 0.99968 0.61122 0.0
C1700 C 0.33176 0.01691 0.58453 0.0
C1701 C 0.36837 0.01413 0.58797 0.0
C1702 C 0.3209 0.02907 0.5764 0.0
C1703 C 0.33308 0.04858 0.56181 0.0
C1704 C 0.35481 0.02432 0.57776 0.0
C1705 C 0.35557 0.05466 0.55461 0.0
C1706 C 0.39114 0.02189 0.58013 0.0
C1707 C 0.37287 0.99115 0.61775 0.0
N1708 N 0.36571 0.0427 0.56274 0.0
N1709 N 0.35983 0.99877 0.60636 0.0
H1710 H 0.05422 0.40581 0.60306 0.0
H1711 H 0.94506 0.27661 0.60035 0.0
H1712 H 0.98975 0.38277 0.6402 0.0
H1713 H 1.00157 0.29961 0.55076 0.0
H1714 H 0.96569 0.31382 0.62054 0.0
H1715 H 0.03948 0.36579 0.58876 0.0
C1716 C 0.03716 0.39223 0.60851 0.0
C1717 C 0.02304 0.39752 0.62263 0.0
C1718 C 0.97378 0.31082 0.60535 0.0
C1719 C 1.00618 0.35205 0.60653 0.0
C1720 C 0.96197 0.28955 0.59383 0.0
C1721 C 0.97147 0.28524 0.57364 0.0
C1722 C 0.99527 0.32818 0.59657 0.0
C1723 C 0.99368 0.30239 0.56623 0.0
C1724 C 0.02872 0.36951 0.60026 0.0
C1725 C 1.00102 0.37944 0.62909 0.0
N1726 N 1.00475 0.32333 0.57751 0.0
N1727 N 0.99328 0.35762 0.62095 0.0
H1728 H 0.94778 0.65809 0.74926 0.0
H1729 H 0.08325 0.70043 0.73504 0.0
H1730 H 0.98576 0.63991 0.79828 0.0
H1731 H 0.0496 0.73267 0.69891 0.0
H1732 H 0.04627 0.67363 0.75418 0.0
H1733 H 0.98356 0.68098 0.72644 0.0
C1734 C 0.96357 0.65868 0.75505 0.0
C1735 C 0.96381 0.64715 0.77577 0.0
C1736 C 0.04696 0.6865 0.74196 0.0
C1737 C 1.00483 0.67338 0.74981 0.0
C1738 C 0.06803 0.70169 0.7309 0.0
C1739 C 0.06955 0.7189 0.71541 0.0
C1740 C 0.02718 0.68833 0.73733 0.0
C1741 C 0.04928 0.71987 0.71095 0.0
C1742 C 0.98402 0.67188 0.74213 0.0
C1743 C 0.98487 0.64876 0.7826 0.0
N1744 N 0.02896 0.70484 0.72184 0.0
N1745 N 1.00451 0.66161 0.76968 0.0
H1746 H 0.36278 0.29257 0.75171 0.0
H1747 H 0.32597 0.38979 0.73818 0.0
H1748 H 0.38623 0.35104 0.79877 0.0
H1749 H 0.2892 0.32263 0.70485 0.0
H1750 H 0.35276 0.37882 0.75582 0.0
H1751 H 0.34024 0.30632 0.72971 0.0
C1752 C 0.36341 0.30845 0.75724 0.0
C1753 C 0.3763 0.32061 0.77719 0.0
C1754 C 0.33891 0.36654 0.74453 0.0
C1755 C 0.35051 0.33641 0.75217 0.0
C1756 C 0.32373 0.37287 0.73431 0.0
C1757 C 0.30525 0.35704 0.72012 0.0
C1758 C 0.33574 0.34432 0.74033 0.0
C1759 C 0.30302 0.33522 0.71593 0.0
C1760 C 0.35042 0.3162 0.74479 0.0
C1761 C 0.37628 0.34096 0.78371 0.0
N1762 N 0.31804 0.32949 0.72599 0.0
N1763 N 0.36358 0.34821 0.77126 0.0
H1764 H 0.73275 0.07585 0.74728 0.0
H1765 H 0.63204 0.94536 0.72169 0.0
H1766 H 0.66989 0.04072 0.78846 0.0
H1767 H 0.70419 0.96961 0.70712 0.0
H1768 H 0.64272 0.98402 0.73687 0.0
H1769 H 0.71942 0.0405 0.72344 0.0
C1770 C 0.71597 0.06082 0.75099 0.0
C1771 C 0.70243 0.06107 0.76992 0.0
C1772 C 0.65614 0.98096 0.72997 0.0
C1773 C 0.68705 0.02083 0.74274 0.0
C1774 C 0.65004 0.959 0.72111 0.0
C1775 C 0.6673 0.95433 0.71326 0.0
C1776 C 0.67962 0.99842 0.73059 0.0
C1777 C 0.69043 0.97255 0.71318 0.0
C1778 C 0.70844 0.04067 0.73751 0.0
C1779 C 0.68091 0.04109 0.77417 0.0
N1780 N 0.69595 0.99378 0.72181 0.0
N1781 N 0.67387 0.02177 0.76071 0.0
H1782 H 0.32992 0.05173 0.30128 0.0
H1783 H 0.32882 0.96657 0.20327 0.0
H1784 H 0.38744 0.07563 0.25295 0.0
H1785 H 0.2949 0.94394 0.27094 0.0
H1786 H 0.3506 1.0067 0.21877 0.0
H1787 H 0.3158 0.01198 0.28805 0.0
C1788 C 0.33963 0.04843 0.28796 0.0
C1789 C 0.3598 0.06675 0.2782 0.0
C1790 C 0.33861 0.9928 0.23023 0.0
C1791 C 0.34366 0.02141 0.26253 0.0
C1792 C 0.32628 0.97 0.22143 0.0
C1793 C 0.30968 0.95211 0.2357 0.0
C1794 C 0.33407 0.99746 0.25332 0.0
C1795 C 0.30702 0.95735 0.25913 0.0
C1796 C 0.33167 0.0258 0.28043 0.0
C1797 C 0.37188 0.06176 0.26095 0.0
N1798 N 0.31879 0.97949 0.26706 0.0
N1799 N 0.36344 0.0395 0.25335 0.0
H1800 H 0.07889 0.36924 0.28214 0.0
H1801 H 0.95041 0.29169 0.23485 0.0
H1802 H 0.06213 0.36202 0.20794 0.0
H1803 H 0.96567 0.31335 0.30759 0.0
H1804 H 0.99083 0.31861 0.22442 0.0
H1805 H 0.03757 0.35058 0.29175 0.0
C1806 C 0.0664 0.36389 0.26787 0.0
C1807 C 0.07381 0.3669 0.24422 0.0
C1808 C 0.98537 0.31771 0.24263 0.0
C1809 C 0.02644 0.34527 0.25503 0.0
C1810 C 0.96233 0.30222 0.24863 0.0
C1811 C 0.95482 0.30005 0.2722 0.0
C1812 C 1.00121 0.33096 0.26038 0.0
C1813 C 0.97082 0.31447 0.28926 0.0
C1814 C 0.04284 0.35331 0.27335 0.0
C1815 C 0.05705 0.35997 0.22637 0.0
N1816 N 0.99338 0.32908 0.28308 0.0
N1817 N 0.03407 0.34911 0.23213 0.0
H1818 H 0.7438 0.69614 0.306 0.0
H1819 H 0.65348 0.69493 0.21336 0.0
H1820 H 0.70664 0.63765 0.25965 0.0
H1821 H 0.6729 0.73424 0.27824 0.0
H1822 H 0.67263 0.67357 0.22783 0.0
H1823 H 0.7185 0.71102 0.29391 0.0
C1824 C 0.73006 0.68636 0.29339 0.0
C1825 C 0.72716 0.66569 0.28385 0.0
C1826 C 0.67245 0.68676 0.23888 0.0
C1827 C 0.69827 0.68274 0.26942 0.0
C1828 C 0.66153 0.69889 0.23066 0.0
C1829 C 0.66213 0.71681 0.24434 0.0
C1830 C 0.68398 0.69274 0.26084 0.0
C1831 C 0.67267 0.72116 0.26671 0.0
C1832 C 0.71559 0.69478 0.28647 0.0
C1833 C 0.70917 0.65358 0.2675 0.0
N1834 N 0.68332 0.70945 0.27407 0.0
N1835 N 0.69551 0.66245 0.2605 0.0
H1836 H 0.35049 0.18471 0.09626 0.0
H1837 H 0.3494 0.17431 0.23744 0.0
H1838 H 0.2943 0.17801 0.1401 0.0
H1839 H 0.40809 0.18704 0.19406 0.0
H1840 H 0.32906 0.17554 0.20214 0.0
H1841 H 0.37146 0.18493 0.13174 0.0
C1842 C 0.34242 0.18307 0.11334 0.0
C1843 C 0.32039 0.18108 0.11508 0.0
C1844 C 0.34643 0.17819 0.20032 0.0
C1845 C 0.34467 0.18169 0.15604 0.0
C1846 C 0.35822 0.1777 0.22056 0.0
C1847 C 0.38072 0.1808 0.21892 0.0
C1848 C 0.35702 0.18165 0.17805 0.0
C1849 C 0.39077 0.1844 0.1963 0.0
C1850 C 0.35454 0.18339 0.13365 0.0
C1851 C 0.31121 0.17964 0.13783 0.0
N1852 N 0.37887 0.1847 0.17681 0.0
N1853 N 0.32333 0.17988 0.15736 0.0
H1854 H 0.85902 0.12851 0.13868 0.0
H1855 H 0.82241 0.2166 0.19475 0.0
H1856 H 0.82721 0.16055 0.09875 0.0
H1857 H 0.8521 0.18278 0.23517 0.0
H1858 H 0.82383 0.19606 0.15938 0.0
H1859 H 0.85615 0.1478 0.17438 0.0
C1860 C 0.85139 0.13952 0.13738 0.0
C1861 C 0.84358 0.14303 0.11553 0.0
C1862 C 0.8299 0.19304 0.17604 0.0
C1863 C 0.84031 0.16531 0.15639 0.0
C1864 C 0.82915 0.20483 0.19624 0.0
C1865 C 0.83694 0.20132 0.2181 0.0
C1866 C 0.83867 0.17773 0.1776 0.0
C1867 C 0.84541 0.18572 0.21888 0.0
C1868 C 0.84983 0.15062 0.15778 0.0
C1869 C 0.83397 0.15767 0.11502 0.0
N1870 N 0.8461 0.1746 0.19899 0.0
N1871 N 0.83264 0.16825 0.13506 0.0
H1872 H 0.84579 0.63473 0.22532 0.0
H1873 H 0.85494 0.7143 0.11454 0.0
H1874 H 0.79347 0.65242 0.20743 0.0
H1875 H 0.90379 0.69072 0.12709 0.0
H1876 H 0.83335 0.69322 0.1497 0.0
H1877 H 0.86811 0.65617 0.19041 0.0
C1878 C 0.83893 0.64302 0.21402 0.0
C1879 C 0.81762 0.64163 0.21935 0.0
C1880 C 0.84883 0.69269 0.14483 0.0
C1881 C 0.84321 0.66638 0.17936 0.0
C1882 C 0.86119 0.70474 0.12469 0.0
C1883 C 0.88123 0.70427 0.11764 0.0
C1884 C 0.85648 0.68001 0.15822 0.0
C1885 C 0.88863 0.69185 0.13187 0.0
C1886 C 0.85168 0.65525 0.19407 0.0
C1887 C 0.80958 0.65264 0.20391 0.0
N1888 N 0.87623 0.68017 0.15139 0.0
N1889 N 0.8224 0.66459 0.18475 0.0
H1890 H 0.16961 0.31782 0.39443 0.0
H1891 H 0.23591 0.41327 0.29478 0.0
H1892 H 0.24434 0.35887 0.39212 0.0
H1893 H 0.16464 0.38879 0.3143 0.0
H1894 H 0.23962 0.39249 0.3289 0.0
H1895 H 0.16743 0.34214 0.36322 0.0
C1896 C 0.18557 0.33193 0.38728 0.0
C1897 C 0.20719 0.33627 0.39583 0.0
C1898 C 0.22327 0.39193 0.32586 0.0
C1899 C 0.20485 0.36424 0.36005 0.0
C1900 C 0.22114 0.40376 0.3064 0.0
C1901 C 0.19996 0.40286 0.30173 0.0
C1902 C 0.20395 0.37872 0.34048 0.0
C1903 C 0.18138 0.39025 0.31738 0.0
C1904 C 0.18432 0.34592 0.3696 0.0
C1905 C 0.22732 0.35499 0.38612 0.0
N1906 N 0.18373 0.37849 0.33585 0.0
N1907 N 0.22567 0.36817 0.3686 0.0
H1908 H 0.7195 0.87758 0.37749 0.0
H1909 H 0.59712 0.78794 0.32271 0.0
H1910 H 0.65699 0.87435 0.40416 0.0
H1911 H 0.65961 0.82353 0.28097 0.0
H1912 H 0.61806 0.81366 0.35637 0.0
H1913 H 0.69704 0.85172 0.34549 0.0
C1914 C 0.70113 0.87172 0.37663 0.0
C1915 C 0.69039 0.87875 0.39357 0.0
C1916 C 0.62705 0.81581 0.33977 0.0
C1917 C 0.66429 0.84809 0.35709 0.0
C1918 C 0.61519 0.80116 0.32067 0.0
C1919 C 0.62665 0.80382 0.29904 0.0
C1920 C 0.65062 0.83267 0.33728 0.0
C1921 C 0.65008 0.82112 0.29726 0.0
C1922 C 0.68828 0.85672 0.35836 0.0
C1923 C 0.66618 0.86946 0.39175 0.0
N1924 N 0.66132 0.83472 0.31615 0.0
N1925 N 0.65394 0.85458 0.37387 0.0
H1926 H 0.14575 0.78879 0.39285 0.0
H1927 H 0.20461 0.85361 0.27264 0.0
H1928 H 0.15107 0.85372 0.37181 0.0
H1929 H 0.22576 0.80923 0.30678 0.0
H1930 H 0.18102 0.85021 0.30714 0.0
H1931 H 0.17172 0.79271 0.36018 0.0
C1932 C 0.15241 0.80395 0.38158 0.0
C1933 C 0.14589 0.82086 0.38519 0.0
C1934 C 0.19083 0.84122 0.30719 0.0
C1935 C 0.17529 0.82507 0.34739 0.0
C1936 C 0.20419 0.84305 0.28745 0.0
C1937 C 0.21701 0.83155 0.28683 0.0
C1938 C 0.18993 0.82751 0.32647 0.0
C1939 C 0.2161 0.81835 0.30661 0.0
C1940 C 0.16719 0.80608 0.36286 0.0
C1941 C 0.15496 0.83987 0.36957 0.0
N1942 N 0.20257 0.81649 0.32561 0.0
N1943 N 0.16897 0.84134 0.35135 0.0
H1944 H 0.64894 0.87122 0.80443 0.0
H1945 H 0.70123 0.80556 0.87932 0.0
H1946 H 0.64524 0.80747 0.78207 0.0
H1947 H 0.70975 0.87204 0.89909 0.0
H1948 H 0.68031 0.80575 0.84398 0.0
H1949 H 0.66968 0.87096 0.84003 0.0
C1950 C 0.6522 0.85698 0.80712 0.0
C1951 C 0.64527 0.83933 0.79013 0.0
C1952 C 0.68683 0.82036 0.85598 0.0
C1953 C 0.66947 0.83916 0.83082 0.0
C1954 C 0.69903 0.82039 0.87612 0.0
C1955 C 0.70747 0.83888 0.89232 0.0
C1956 C 0.68283 0.83889 0.85189 0.0
C1957 C 0.70343 0.85728 0.88733 0.0
C1958 C 0.66427 0.85698 0.82738 0.0
C1959 C 0.65043 0.82159 0.79448 0.0
N1960 N 0.6914 0.85679 0.86764 0.0
N1961 N 0.66221 0.82198 0.81432 0.0
H1962 H 0.13899 0.83573 0.89488 0.0
H1963 H 0.20803 0.83723 0.7783 0.0
H1964 H 0.19994 0.89692 0.86913 0.0
H1965 H 0.13816 0.7825 0.79345 0.0
H1966 H 0.20658 0.85807 0.81319 0.0
H1967 H 0.13934 0.81482 0.85931 0.0
C1968 C 0.15233 0.84482 0.88166 0.0
C1969 C 0.1694 0.86817 0.88497 0.0
C1970 C 0.19158 0.84148 0.80888 0.0
C1971 C 0.17011 0.84423 0.84437 0.0
C1972 C 0.19235 0.82954 0.78888 0.0
C1973 C 0.17316 0.80799 0.78268 0.0
C1974 C 0.17154 0.83182 0.82307 0.0
C1975 C 0.15355 0.79882 0.79756 0.0
C1976 C 0.15252 0.83287 0.86137 0.0
C1977 C 0.18625 0.87906 0.8672 0.0
N1978 N 0.15325 0.81076 0.817 0.0
N1979 N 0.18628 0.86697 0.84781 0.0
H1980 H 0.24231 0.36318 0.80176 0.0
H1981 H 0.13018 0.32656 0.88288 0.0
H1982 H 0.19367 0.38725 0.79031 0.0
H1983 H 0.18322 0.30986 0.90066 0.0
H1984 H 0.15249 0.34731 0.84793 0.0
H1985 H 0.22089 0.34305 0.83749 0.0
C1986 C 0.22733 0.36453 0.80684 0.0
C1987 C 0.21987 0.37702 0.79278 0.0
C1988 C 0.15927 0.33908 0.85942 0.0
C1989 C 0.19486 0.35341 0.83363 0.0
C1990 C 0.14639 0.32697 0.87932 0.0
C1991 C 0.15468 0.31622 0.89479 0.0
C1992 C 0.18069 0.34049 0.85471 0.0
C1993 C 0.17615 0.31795 0.88938 0.0
C1994 C 0.21497 0.35282 0.8272 0.0
C1995 C 0.19998 0.37761 0.80023 0.0
N1996 N 0.18835 0.32977 0.86982 0.0
N1997 N 0.18818 0.36595 0.81999 0.0
H1998 H 0.9071 0.68939 0.72083 0.0
H1999 H 0.81961 0.70924 0.63995 0.0
H2000 H 0.83294 0.64335 0.72007 0.0
H2001 H 0.89263 0.74039 0.62407 0.0
H2002 H 0.82502 0.69 0.67421 0.0
H2003 H 0.9028 0.71287 0.68982 0.0
C2004 C 0.88992 0.68433 0.71426 0.0
C2005 C 0.87036 0.6643 0.72292 0.0
C2006 C 0.83991 0.70119 0.66335 0.0
C2007 C 0.8653 0.69112 0.68766 0.0
C2008 C 0.83688 0.71238 0.64392 0.0
C2009 C 0.8557 0.72648 0.6291 0.0
C2010 C 0.86197 0.70422 0.6682 0.0
C2011 C 0.87761 0.72955 0.63492 0.0
C2012 C 0.88749 0.69766 0.69651 0.0
C2013 C 0.84851 0.65848 0.71368 0.0
N2014 N 0.88015 0.7185 0.65399 0.0
N2015 N 0.84657 0.67182 0.69663 0.0
H2016 H 0.34488 0.17954 0.74204 0.0
H2017 H 0.29219 0.16556 0.61225 0.0
H2018 H 0.36301 0.23752 0.69554 0.0
H2019 H 0.30181 0.11217 0.64465 0.0
H2020 H 0.31055 0.19033 0.64653 0.0
H2021 H 0.32174 0.15297 0.71008 0.0
C2022 C 0.3438 0.18665 0.72517 0.0
C2023 C 0.35593 0.21074 0.72136 0.0
C2024 C 0.30848 0.17313 0.64616 0.0
C2025 C 0.32936 0.18055 0.68495 0.0
C2026 C 0.29804 0.15893 0.62655 0.0
C2027 C 0.29575 0.13677 0.62519 0.0
C2028 C 0.31639 0.16507 0.66487 0.0
C2029 C 0.30305 0.12901 0.6448 0.0
C2030 C 0.33071 0.17151 0.70696 0.0
C2031 C 0.35408 0.21907 0.69913 0.0
N2032 N 0.31313 0.14318 0.66376 0.0
N2033 N 0.34098 0.20401 0.6818 0.0
H2034 H 0.90924 0.20732 0.63641 0.0
H2035 H 0.80015 0.11915 0.71527 0.0
H2036 H 0.8647 0.13547 0.61756 0.0
H2037 H 0.83362 0.19365 0.72103 0.0
H2038 H 0.82693 0.12375 0.68305 0.0
H2039 H 0.8852 0.2014 0.67134 0.0
C2040 C 0.89462 0.19018 0.63981 0.0
C2041 C 0.889 0.17185 0.62401 0.0
C2042 C 0.82842 0.13906 0.69143 0.0
C2043 C 0.86117 0.16503 0.66391 0.0
C2044 C 0.81324 0.13646 0.70988 0.0
C2045 C 0.81457 0.15606 0.72076 0.0
C2046 C 0.84526 0.16143 0.68402 0.0
C2047 C 0.83177 0.17807 0.71294 0.0
C2048 C 0.88076 0.18688 0.65965 0.0
C2049 C 0.86956 0.15013 0.62917 0.0
N2050 N 0.84643 0.18015 0.69511 0.0
N2051 N 0.85633 0.14732 0.64865 0.0
H2052 H 0.05784 0.5457 0.55633 0.0
H2053 H 0.97376 0.47545 0.44821 0.0
H2054 H 0.03352 0.4734 0.54225 0.0
H2055 H 0.99842 0.54789 0.46189 0.0
H2056 H 0.99545 0.47437 0.48261 0.0
H2057 H 0.03652 0.54696 0.52166 0.0
C2058 C 0.0481 0.5301 0.54592 0.0
C2059 C 0.04753 0.50941 0.55233 0.0
C2060 C 0.99607 0.49049 0.47815 0.0
C2061 C 0.02295 0.51072 0.51247 0.0
C2062 C 0.98369 0.49114 0.45846 0.0
C2063 C 0.98421 0.5118 0.45203 0.0
C2064 C 1.00918 0.51067 0.49163 0.0
C2065 C 0.99719 0.53148 0.46626 0.0
C2066 C 0.03593 0.53084 0.52608 0.0
C2067 C 0.03478 0.48983 0.5379 0.0
N2068 N 1.00919 0.53044 0.48528 0.0
N2069 N 0.02295 0.49095 0.51878 0.0
H2070 H 0.51012 0.55982 0.53353 0.0
H2071 H 0.51781 0.45178 0.48073 0.0
H2072 H 0.52034 0.51201 0.57647 0.0
H2073 H 0.50931 0.50065 0.43778 0.0
H2074 H 0.51788 0.47305 0.51612 0.0
H2075 H 0.50917 0.538 0.49829 0.0
C2076 C 0.51215 0.54475 0.53559 0.0
C2077 C 0.51519 0.53775 0.55812 0.0
C2078 C 0.51606 0.47915 0.49893 0.0
C2079 C 0.51404 0.51255 0.51774 0.0
C2080 C 0.51594 0.46695 0.47871 0.0
C2081 C 0.51376 0.47449 0.45614 0.0
C2082 C 0.51387 0.49902 0.49666 0.0
C2083 C 0.51153 0.4944 0.4547 0.0
C2084 C 0.51153 0.53223 0.51545 0.0
C2085 C 0.51751 0.51789 0.5596 0.0
N2086 N 0.51164 0.50592 0.47461 0.0
N2087 N 0.51693 0.50607 0.53975 0.0
H2088 H 0.51818 0.01065 0.43343 0.0
H2089 H 0.50986 0.01393 0.57462 0.0
H2090 H 0.56873 0.06655 0.47669 0.0
H2091 H 0.46091 0.95622 0.5321 0.0
H2092 H 0.5311 0.03357 0.53889 0.0
H2093 H 0.49643 0.991 0.46906 0.0
C2094 C 0.52462 0.01896 0.45039 0.0
C2095 C 0.54531 0.04047 0.45194 0.0
C2096 C 0.51576 0.01659 0.53732 0.0
C2097 C 0.52051 0.0177 0.49304 0.0
C2098 C 0.50366 1.00521 0.5578 0.0
C2099 C 0.48363 0.98314 0.55653 0.0
C2100 C 0.50785 1.00599 0.5152 0.0
C2101 C 0.47617 0.97319 0.53402 0.0
C2102 C 0.51224 1.00758 0.47078 0.0
C2103 C 0.553 0.04998 0.47456 0.0
N2104 N 0.48829 0.98465 0.51429 0.0
N2105 N 0.54059 0.03857 0.49416 0.0
H2106 H 0.57411 0.02605 0.05742 0.0
H2107 H 0.48689 0.04644 0.97684 0.0
H2108 H 0.49989 0.98022 0.05679 0.0
H2109 H 0.56052 0.0798 0.96328 0.0
H2110 H 0.4919 0.02663 0.01082 0.0
H2111 H 0.56985 0.04996 0.02703 0.0
C2112 C 0.55691 0.0211 0.05097 0.0
C2113 C 0.53732 1.00106 0.05955 0.0
C2114 C 0.507 0.03845 1.00055 0.0
C2115 C 0.53232 0.02837 0.02493 0.0
C2116 C 0.5042 0.04998 0.9813 0.0
C2117 C 0.52333 0.06481 0.9672 0.0
C2118 C 0.52912 0.04186 0.00586 0.0
C2119 C 0.54529 0.06838 0.97359 0.0
C2120 C 0.55451 0.03469 0.03359 0.0
C2121 C 0.51547 0.99536 0.05044 0.0
N2122 N 0.54758 0.05693 0.99241 0.0
N2123 N 0.51356 1.00896 0.03368 0.0
H2124 H 0.94286 0.48063 0.96205 0.0
H2125 H 0.04666 0.52469 0.05469 0.0
H2126 H 0.98284 0.4466 0.973 0.0
H2127 H 0.99561 0.54653 0.05752 0.0
H2128 H 0.02385 0.49662 0.02401 0.0
H2129 H 0.96188 0.50526 0.99651 0.0
C2130 C 0.95544 0.47817 0.97187 0.0
C2131 C 0.96125 0.46152 0.96463 0.0
C2132 C 0.01753 0.50743 0.03141 0.0
C2133 C 0.98331 0.48983 1.00386 0.0
C2134 C 0.03064 0.52358 0.04881 0.0
C2135 C 0.0231 0.53807 0.05858 0.0
C2136 C 0.99681 0.50589 0.02341 0.0
C2137 C 1.00201 0.53563 0.05053 0.0
C2138 C 0.96627 0.4922 0.99154 0.0
C2139 C 0.97762 0.45902 0.97806 0.0
N2140 N 0.98971 0.52001 0.03326 0.0
N2141 N 0.98824 0.47318 0.99683 0.0
H2142 H 0.51498 0.50052 0.08126 0.0
H2143 H 0.52727 0.458 0.95316 0.0
H2144 H 0.45639 0.46234 0.03506 0.0
H2145 H 0.58055 0.52302 0.98236 0.0
H2146 H 0.50291 0.45304 0.98752 0.0
H2147 H 0.54103 0.50286 0.04912 0.0
C2148 C 0.50765 0.49254 0.06437 0.0
C2149 C 0.48358 0.48134 0.06066 0.0
C2150 C 0.52004 0.46826 0.98641 0.0
C2151 C 0.51307 0.48353 0.02421 0.0
C2152 C 0.53399 0.47119 0.96678 0.0
C2153 C 0.55598 0.4912 0.96446 0.0
C2154 C 0.52823 0.48517 1.00421 0.0
C2155 C 0.56388 0.50724 0.98325 0.0
C2156 C 0.52247 0.49392 0.0461 0.0
C2157 C 0.47488 0.4713 0.0385 0.0
N2158 N 0.54998 0.50391 1.00227 0.0
N2159 N 0.48961 0.47251 0.02112 0.0
H2160 H 0.19806 0.08599 0.99886 0.0
H2161 H 0.24974 0.01235 0.93908 0.0
H2162 H 0.27068 0.11454 0.98274 0.0
H2163 H 0.18452 0.98049 0.97676 0.0
H2164 H 0.25537 0.05058 0.94919 0.0
H2165 H 0.19076 0.04778 0.98566 0.0
C2166 C 0.21244 0.0842 0.9925 0.0
C2167 C 0.23502 0.10343 0.99204 0.0
C2168 C 0.23976 0.03521 0.95511 0.0
C2169 C 0.2268 0.05988 0.97669 0.0
C2170 C 0.23641 0.01335 0.94916 0.0
C2171 C 0.21664 0.99312 0.95714 0.0
C2172 C 0.2231 0.03692 0.9689 0.0
C2173 C 0.20008 0.99559 0.97035 0.0
C2174 C 0.20829 0.06241 0.98504 0.0
C2175 C 0.25307 0.10013 0.98373 0.0
N2176 N 0.20369 0.01707 0.97582 0.0
N2177 N 0.24856 0.07883 0.97628 0.0
H2178 H 0.9346 0.11299 0.99219 0.0
H2179 H 0.02544 0.24853 0.97938 0.0
H2180 H 0.91396 0.16494 0.99669 0.0
H2181 H 0.04089 0.19452 0.96213 0.0
H2182 H 0.98478 0.21883 0.98601 0.0
H2183 H 0.97369 0.14307 0.98209 0.0
C2184 C 0.9381 0.13066 0.99091 0.0
C2185 C 0.92056 0.13617 0.99515 0.0
C2186 C 0.99704 0.21351 0.98056 0.0
C2187 C 0.96605 0.17117 0.98383 0.0
C2188 C 0.02027 0.23047 0.97669 0.0
C2189 C 0.03674 0.22408 0.97022 0.0
C2190 C 0.99018 0.18992 0.97817 0.0
C2191 C 0.02893 0.20036 0.96706 0.0
C2192 C 0.96062 0.14794 0.98518 0.0
C2193 C 0.92673 0.1597 0.99375 0.0
N2194 N 1.00634 0.18422 0.97126 0.0
N2195 N 0.94893 0.1763 0.98824 0.0
H2196 H 0.82942 0.85194 0.9634 0.0
H2197 H 0.85621 0.75072 0.99831 0.0
H2198 H 0.77606 0.78183 0.97962 0.0
H2199 H 0.90907 0.82264 0.99011 0.0
H2200 H 0.82668 0.76113 0.98913 0.0
H2201 H 0.85881 0.84066 0.96971 0.0
C2202 C 0.82383 0.83411 0.96799 0.0
C2203 C 0.80016 0.81786 0.97103 0.0
C2204 C 0.84476 0.77462 0.98931 0.0
C2205 C 0.83387 0.80484 0.97856 0.0
C2206 C 0.8617 0.76871 0.99474 0.0
C2207 C 0.88536 0.78578 0.99503 0.0
C2208 C 0.85141 0.79778 0.98406 0.0
C2209 C 0.8912 0.80876 0.98982 0.0
C2210 C 0.84066 0.8277 0.97175 0.0
C2211 C 0.79407 0.795 0.97712 0.0
N2212 N 0.87441 0.81404 0.98457 0.0
N2213 N 0.81078 0.78922 0.98077 0.0
H2214 H 1.00141 0.17174 0.55342 0.0
H2215 H 0.12734 0.27069 0.50983 0.0
H2216 H 0.01759 0.24193 0.53878 0.0
H2217 H 0.10098 0.19739 0.5011 0.0
H2218 H 0.09048 0.26188 0.5289 0.0
H2219 H 0.04129 0.18259 0.54321 0.0
C2220 C 1.01343 0.18956 0.54851 0.0
C2221 C 1.006 0.20589 0.54679 0.0
C2222 C 0.0929 0.24776 0.52299 0.0
C2223 C 0.0518 0.21838 0.53491 0.0
C2224 C 0.11392 0.25277 0.51226 0.0
C2225 C 0.11708 0.23474 0.5037 0.0
C2226 C 0.07512 0.22454 0.52554 0.0
C2227 C 0.09911 0.2118 0.50714 0.0
C2228 C 0.03619 0.19569 0.54251 0.0
C2229 C 0.02247 0.22871 0.54021 0.0
N2230 N 0.07894 0.20736 0.51775 0.0
N2231 N 0.04454 0.23425 0.53437 0.0
H2232 H 0.78421 0.77899 0.53193 0.0
H2233 H 0.8044 0.90807 0.52919 0.0
H2234 H 0.84483 0.83605 0.56393 0.0
H2235 H 0.76955 0.8574 0.47444 0.0
H2236 H 0.81284 0.88029 0.5498 0.0
H2237 H 0.7716 0.80593 0.51922 0.0
C2238 C 0.79473 0.79712 0.53669 0.0
C2239 C 0.81584 0.80524 0.54881 0.0
C2240 C 0.80316 0.87525 0.53338 0.0
C2241 C 0.80131 0.83628 0.53417 0.0
C2242 C 0.79827 0.89099 0.52176 0.0
C2243 C 0.7864 0.88494 0.5001 0.0
C2244 C 0.79554 0.85321 0.52349 0.0
C2245 C 0.7789 0.8627 0.49102 0.0
C2246 C 0.78752 0.81252 0.52928 0.0
C2247 C 0.82853 0.829 0.5545 0.0
N2248 N 0.78352 0.84765 0.50275 0.0
N2249 N 0.82116 0.84374 0.54698 0.0
H2250 H 0.18524 0.02488 0.54585 0.0
H2251 H 0.15677 0.89702 0.50876 0.0
H2252 H 0.23866 1.0064 0.53964 0.0
H2253 H 0.11516 0.92716 0.48849 0.0
H2254 H 0.18392 0.93356 0.52894 0.0
H2255 H 0.15636 0.9855 0.53414 0.0
C2256 C 0.1909 0.01246 0.54246 0.0
C2257 C 0.21454 0.01912 0.54358 0.0
C2258 C 0.1687 0.93203 0.52028 0.0
C2259 C 0.18135 0.97382 0.53004 0.0
C2260 C 0.15317 0.91119 0.50894 0.0
C2261 C 0.1338 0.90918 0.49687 0.0
C2262 C 0.16451 0.95076 0.51992 0.0
C2263 C 0.13001 0.9281 0.4974 0.0
C2264 C 0.17437 0.98998 0.53561 0.0
C2265 C 0.22069 1.00212 0.53888 0.0
N2266 N 0.14517 0.94804 0.50871 0.0
N2267 N 0.20423 0.9803 0.5322 0.0
H2268 H 0.7696 1.00432 0.05954 0.0
H2269 H 0.819 0.92208 0.0192 0.0
H2270 H 0.8374 0.03106 0.02811 0.0
H2271 H 0.74575 0.89841 0.02262 0.0
H2272 H 0.82733 0.96154 0.02845 0.0
H2273 H 0.76198 0.96476 0.05259 0.0
C2274 C 0.78302 1.00191 0.05147 0.0
C2275 C 0.80418 0.0211 0.04435 0.0
C2276 C 0.80944 0.94771 0.02716 0.0
C2277 C 0.79551 0.97579 0.03636 0.0
C2278 C 0.80468 0.92519 0.02198 0.0
C2279 C 0.78165 0.90695 0.02005 0.0
C2280 C 0.79104 0.952 0.03091 0.0
C2281 C 0.76374 0.912 0.02367 0.0
C2282 C 0.77856 0.9793 0.04733 0.0
C2283 C 0.82081 0.01682 0.03377 0.0
N2284 N 0.7688 0.934 0.02907 0.0
N2285 N 0.81615 0.99466 0.03016 0.0
H2286 H 0.99374 0.82014 0.06025 0.0
H2287 H 0.11026 0.85261 0.98916 0.0
H2288 H 1.00122 0.77175 0.01547 0.0
H2289 H 0.10651 0.89589 0.04388 0.0
H2290 H 0.07051 0.82273 0.99865 0.0
H2291 H 0.03506 0.84809 0.05465 0.0
C2292 C 1.00407 0.81528 0.04943 0.0
C2293 C 0.99386 0.79353 0.03827 0.0
C2294 C 0.07845 0.83876 0.00864 0.0
C2295 C 0.04125 0.82564 0.03152 0.0
C2296 C 0.10128 0.85586 1.00328 0.0
C2297 C 0.11196 0.87708 0.01554 0.0
C2298 C 0.06603 0.84285 0.0263 0.0
C2299 C 0.09907 0.88015 0.03353 0.0
C2300 C 0.02769 0.83128 0.0462 0.0
C2301 C 1.00823 0.78828 0.02442 0.0
N2302 N 0.07684 0.86335 0.03823 0.0
N2303 N 0.03107 0.80425 0.0213 0.0
H2304 H 0.24916 0.2351 0.0277 0.0
H2305 H 0.11479 0.19873 0.0306 0.0
H2306 H 0.19522 0.16956 0.05509 0.0
H2307 H 0.16964 0.26704 0.01064 0.0
H2308 H 0.14392 0.18791 0.03988 0.0
H2309 H 0.22045 0.24734 0.02205 0.0
C2310 C 0.23132 0.22334 0.03278 0.0
C2311 C 0.22466 0.2012 0.04186 0.0
C2312 C 0.14959 0.2053 0.03352 0.0
C2313 C 0.19148 0.21508 0.03508 0.0
C2314 C 0.13291 0.21157 0.02826 0.0
C2315 C 0.13957 0.23393 0.01979 0.0
C2316 C 0.17326 0.2214 0.03025 0.0
C2317 C 0.16347 0.24954 0.0168 0.0
C2318 C 0.21489 0.23035 0.02947 0.0
C2319 C 0.20123 0.18679 0.0481 0.0
N2320 N 0.17937 0.24297 0.02198 0.0
N2321 N 0.1855 0.1939 0.04442 0.0
H2322 H 0.92982 0.83302 0.51148 0.0
H2323 H 1.01059 0.79668 0.4414 0.0
H2324 H 0.90235 0.76422 0.48298 0.0
H2325 H 0.03392 0.83688 0.50557 0.0
H2326 H 0.97159 0.79132 0.44809 0.0
H2327 H 0.96931 0.84141 0.50111 0.0
C2328 C 0.93216 0.81984 0.50279 0.0
C2329 C 0.91298 0.7979 0.49816 0.0
C2330 C 0.98537 0.8015 0.46052 0.0
C2331 C 0.95767 0.80742 0.48587 0.0
C2332 C 1.00758 0.80469 0.45665 0.0
C2333 C 0.0254 0.81719 0.47301 0.0
C2334 C 0.98122 0.81145 0.4805 0.0
C2335 C 0.02058 0.82703 0.49262 0.0
C2336 C 0.95457 0.82456 0.49699 0.0
C2337 C 0.9168 0.78127 0.48699 0.0
N2338 N 0.99898 0.82407 0.49577 0.0
N2339 N 0.93871 0.7864 0.48107 0.0
H2340 H 0.22201 0.11628 0.46091 0.0
H2341 H 0.2113 0.21957 0.52093 0.0
H2342 H 0.23478 0.13486 0.53467 0.0
H2343 H 0.2112 0.21135 0.4452 0.0
H2344 H 0.21567 0.1857 0.52606 0.0
H2345 H 0.2138 0.14804 0.45467 0.0
C2346 C 0.22287 0.12688 0.47582 0.0
C2347 C 0.22921 0.12299 0.49834 0.0
C2348 C 0.21466 0.1912 0.50828 0.0
C2349 C 0.21994 0.15932 0.49133 0.0
C2350 C 0.21211 0.21058 0.50531 0.0
C2351 C 0.21099 0.21843 0.48257 0.0
C2352 C 0.21607 0.17936 0.48838 0.0
C2353 C 0.21207 0.20594 0.46305 0.0
C2354 C 0.21834 0.14509 0.47222 0.0
C2355 C 0.23028 0.13742 0.51697 0.0
N2356 N 0.21461 0.18702 0.46639 0.0
N2357 N 0.22571 0.15487 0.51305 0.0
H2358 H 0.82301 0.99121 0.50917 0.0
H2359 H 0.87864 0.12386 0.4815 0.0
H2360 H 0.80341 0.01344 0.44597 0.0
H2361 H 0.92139 0.09719 0.50803 0.0
H2362 H 0.84789 0.08396 0.47255 0.0
H2363 H 0.85674 0.03037 0.51341 0.0
C2364 C 0.82596 1.0043 0.49608 0.0
C2365 C 0.81053 0.99913 0.47713 0.0
C2366 C 0.86408 0.08689 0.48016 0.0
C2367 C 0.84854 0.04395 0.48227 0.0
C2368 C 0.88148 0.10954 0.48538 0.0
C2369 C 0.90246 0.11366 0.49549 0.0
C2370 C 0.86744 0.06823 0.48577 0.0
C2371 C 0.90546 0.09462 0.50011 0.0
C2372 C 0.84518 0.02656 0.49849 0.0
C2373 C 0.81505 0.01671 0.46069 0.0
N2374 N 0.88799 0.07265 0.49557 0.0
N2375 N 0.83345 0.03849 0.46386 0.0
H2376 H 0.91913 0.34845 0.27196 0.0
H2377 H 0.86651 0.42116 0.33241 0.0
H2378 H 0.85183 0.31642 0.30552 0.0
H2379 H 0.93932 0.45016 0.31691 0.0
H2380 H 0.85935 0.3834 0.31805 0.0
H2381 H 0.92508 0.38662 0.2831 0.0
C2382 C 0.90544 0.34943 0.28136 0.0
C2383 C 0.88498 0.32913 0.28792 0.0
C2384 C 0.8769 0.39802 0.31781 0.0
C2385 C 0.8918 0.37285 0.3009 0.0
C2386 C 0.88098 0.41959 0.32593 0.0
C2387 C 0.90356 0.43885 0.32599 0.0
C2388 C 0.89549 0.39567 0.30934 0.0
C2389 C 0.9217 0.43574 0.31753 0.0
C2390 C 0.90896 0.37124 0.2879 0.0
C2391 C 0.86797 0.33154 0.3003 0.0
N2392 N 0.91726 0.41462 0.30947 0.0
N2393 N 0.87176 0.35296 0.3064 0.0
H2394 H 0.60077 0.44028 0.32577 0.0
H2395 H 0.69011 0.57578 0.30732 0.0
H2396 H 0.5817 0.49304 0.33463 0.0
H2397 H 0.70619 0.52197 0.29124 0.0
H2398 H 0.65021 0.54595 0.31652 0.0
H2399 H 0.63928 0.47005 0.3129 0.0
C2400 C 0.60455 0.45808 0.32493 0.0
C2401 C 0.5877 0.46397 0.3313 0.0
C2402 C 0.6624 0.54066 0.31078 0.0
C2403 C 0.63225 0.49845 0.31668 0.0
C2404 C 0.68522 0.55771 0.30542 0.0
C2405 C 0.70166 0.55144 0.29852 0.0
C2406 C 0.65591 0.51709 0.30943 0.0
C2407 C 0.69419 0.52769 0.29643 0.0
C2408 C 0.62667 0.47514 0.3176 0.0
C2409 C 0.59403 0.48754 0.3302 0.0
N2410 N 0.67197 0.51144 0.30204 0.0
N2411 N 0.61574 0.50386 0.32306 0.0
H2412 H 0.44856 0.11906 0.30776 0.0
H2413 H 0.5825 0.15436 0.30399 0.0
H2414 H 0.50282 0.1853 0.28206 0.0
H2415 H 0.5306 0.09674 0.34485 0.0
H2416 H 0.55299 0.16344 0.29155 0.0
H2417 H 0.47767 0.10796 0.31625 0.0
C2418 C 0.46655 0.1312 0.30357 0.0
C2419 C 0.47319 0.15326 0.29425 0.0
C2420 C 0.54808 0.14878 0.3032 0.0
C2421 C 0.50676 0.14058 0.30417 0.0
C2422 C 0.56502 0.14355 0.3105 0.0
C2423 C 0.55935 0.12468 0.32575 0.0
C2424 C 0.52509 0.13501 0.31095 0.0
C2425 C 0.53603 0.1113 0.33301 0.0
C2426 C 0.4832 0.12486 0.30859 0.0
C2427 C 0.49684 0.16815 0.28927 0.0
N2428 N 0.51984 0.11673 0.32556 0.0
N2429 N 0.51275 0.16158 0.29438 0.0
H2430 H 0.67419 0.50425 0.89411 0.0
H2431 H 0.77339 0.58412 0.80408 0.0
H2432 H 0.67959 0.56638 0.86393 0.0
H2433 H 0.785 0.54404 0.85629 0.0
H2434 H 0.73759 0.57603 0.82472 0.0
H2435 H 0.71377 0.51685 0.8802 0.0
C2436 C 0.68377 0.52068 0.88493 0.0
C2437 C 0.67339 0.53416 0.88007 0.0
C2438 C 0.74806 0.5692 0.83189 0.0
C2439 C 0.71842 0.54836 0.8637 0.0
C2440 C 0.76837 0.5738 0.8201 0.0
C2441 C 0.78198 0.56482 0.82871 0.0
C2442 C 0.74102 0.55502 0.85215 0.0
C2443 C 0.77487 0.55133 0.84936 0.0
C2444 C 0.70634 0.52783 0.87698 0.0
C2445 C 0.68672 0.5553 0.86805 0.0
N2446 N 0.75467 0.54657 0.86029 0.0
N2447 N 0.70832 0.56154 0.85999 0.0
H2448 H 0.4772 0.24466 0.85471 0.0
H2449 H 0.45122 0.11429 0.87089 0.0
H2450 H 0.43406 0.18796 0.80834 0.0
H2451 H 0.51563 0.1728 0.8947 0.0
H2452 H 0.43873 0.14094 0.85694 0.0
H2453 H 0.48598 0.21827 0.87764 0.0
C2454 C 0.4694 0.22661 0.84961 0.0
C2455 C 0.4551 0.21839 0.82958 0.0
C2456 C 0.45549 0.14794 0.86548 0.0
C2457 C 0.46456 0.1883 0.85565 0.0
C2458 C 0.46263 0.13273 0.87358 0.0
C2459 C 0.48472 0.14128 0.88368 0.0
C2460 C 0.47039 0.17197 0.86758 0.0
C2461 C 0.49854 0.16541 0.88686 0.0
C2462 C 0.47444 0.21165 0.86255 0.0
C2463 C 0.44538 0.19494 0.82353 0.0
N2464 N 0.49125 0.17997 0.8786 0.0
N2465 N 0.45024 0.18073 0.8365 0.0
H2466 H 0.82818 0.22938 0.83722 0.0
H2467 H 0.85468 0.35094 0.8931 0.0
H2468 H 0.78088 0.25581 0.83442 0.0
H2469 H 0.90913 0.33771 0.871 0.0
H2470 H 0.82587 0.31172 0.88078 0.0
H2471 H 0.8564 0.26487 0.85822 0.0
C2472 C 0.82364 0.2425 0.84136 0.0
C2473 C 0.8023 0.23982 0.83393 0.0
C2474 C 0.84413 0.31731 0.87891 0.0
C2475 C 0.8342 0.28015 0.85799 0.0
C2476 C 0.86064 0.33967 0.8861 0.0
C2477 C 0.88443 0.34779 0.8829 0.0
C2478 C 0.85137 0.30276 0.86864 0.0
C2479 C 0.89099 0.33228 0.87364 0.0
C2480 C 0.83973 0.26274 0.85319 0.0
C2481 C 0.79726 0.25737 0.83957 0.0
N2482 N 0.87456 0.31057 0.8667 0.0
N2483 N 0.81306 0.27674 0.85124 0.0
H2484 H 0.42614 0.23889 0.34113 0.0
H2485 H 0.52469 0.36137 0.39235 0.0
H2486 H 0.4954 0.25386 0.35892 0.0
H2487 H 0.45756 0.34826 0.36845 0.0
H2488 H 0.51296 0.3209 0.38391 0.0
H2489 H 0.43639 0.27793 0.35372 0.0
C2490 C 0.44354 0.25033 0.34753 0.0
C2491 C 0.45992 0.24289 0.34881 0.0
C2492 C 0.50073 0.32683 0.3807 0.0
C2493 C 0.47169 0.28779 0.36372 0.0
C2494 C 0.50736 0.34994 0.38569 0.0
C2495 C 0.49216 0.35835 0.38103 0.0
C2496 C 0.4787 0.31196 0.371 0.0
C2497 C 0.46995 0.34265 0.37224 0.0
C2498 C 0.44934 0.27265 0.35491 0.0
C2499 C 0.48207 0.25859 0.35777 0.0
N2500 N 0.46397 0.32031 0.3674 0.0
N2501 N 0.48729 0.28022 0.36482 0.0
H2502 H 0.77914 0.18886 0.32867 0.0
H2503 H 0.66317 0.1609 0.39781 0.0
H2504 H 0.77509 0.23769 0.37599 0.0
H2505 H 0.67267 0.10912 0.36162 0.0
H2506 H 0.70425 0.18918 0.39095 0.0
H2507 H 0.74037 0.15942 0.34114 0.0
C2508 C 0.77034 0.19347 0.34182 0.0
C2509 C 0.78068 0.21609 0.35109 0.0
C2510 C 0.69737 0.17155 0.38474 0.0
C2511 C 0.7357 0.18219 0.36526 0.0
C2512 C 0.67391 0.15536 0.38874 0.0
C2513 C 0.6643 0.13258 0.38017 0.0
C2514 C 0.71131 0.16499 0.37191 0.0
C2515 C 0.67916 0.12648 0.36846 0.0
C2516 C 0.74803 0.17656 0.34889 0.0
C2517 C 0.76792 0.22078 0.36792 0.0
N2518 N 0.70177 0.1426 0.36449 0.0
N2519 N 0.74613 0.20408 0.37431 0.0
H2520 H 0.83229 0.58984 0.32423 0.0
H2521 H 0.86442 0.50696 0.39733 0.0
H2522 H 0.78685 0.54174 0.37733 0.0
H2523 H 0.91409 0.56598 0.3566 0.0
H2524 H 0.83542 0.51876 0.39011 0.0
H2525 H 0.86193 0.58043 0.3353 0.0
C2526 C 0.82842 0.57744 0.33831 0.0
C2527 C 0.80673 0.56671 0.34978 0.0
C2528 C 0.85275 0.52922 0.38295 0.0
C2529 C 0.84093 0.55551 0.36238 0.0
C2530 C 0.86935 0.52253 0.38714 0.0
C2531 C 0.89177 0.53539 0.3775 0.0
C2532 C 0.85851 0.54879 0.36883 0.0
C2533 C 0.89706 0.55541 0.36436 0.0
C2534 C 0.84548 0.57201 0.3446 0.0
C2535 C 0.80302 0.55042 0.36767 0.0
N2536 N 0.88055 0.56132 0.36025 0.0
N2537 N 0.81985 0.54529 0.37331 0.0
H2538 H 0.56732 0.0942 0.81797 0.0
H2539 H 0.70133 0.17135 0.8368 0.0
H2540 H 0.59647 0.16485 0.84162 0.0
H2541 H 0.67559 0.12665 0.77584 0.0
H2542 H 0.66262 0.16653 0.84282 0.0
H2543 H 0.6064 0.10253 0.80616 0.0
C2544 C 0.58199 0.11145 0.8206 0.0
C2545 C 0.57882 0.12889 0.83079 0.0
C2546 C 0.66552 0.15801 0.82798 0.0
C2547 C 0.62331 0.13839 0.81776 0.0
C2548 C 0.68752 0.1607 0.82456 0.0
C2549 C 0.69157 0.14946 0.80574 0.0
C2550 C 0.64726 0.14333 0.81294 0.0
C2551 C 0.67314 0.13577 0.79041 0.0
C2552 C 0.60416 0.11623 0.81373 0.0
C2553 C 0.59828 0.15104 0.83371 0.0
N2554 N 0.6516 0.13273 0.79459 0.0
N2555 N 0.61979 0.15508 0.82759 0.0
H2556 H 0.89577 0.55144 0.77456 0.0
H2557 H 0.85806 0.43338 0.84367 0.0
H2558 H 0.85288 0.53222 0.83707 0.0
H2559 H 0.92723 0.47487 0.81578 0.0
H2560 H 0.84964 0.46423 0.83276 0.0
H2561 H 0.90122 0.51782 0.78094 0.0
C2562 C 0.88718 0.5399 0.78934 0.0
C2563 C 0.8739 0.54454 0.80536 0.0
C2564 C 0.86658 0.46644 0.82888 0.0
C2565 C 0.87977 0.50619 0.8125 0.0
C2566 C 0.87133 0.44888 0.83499 0.0
C2567 C 0.89338 0.45175 0.83073 0.0
C2568 C 0.88382 0.48671 0.81787 0.0
C2569 C 0.91011 0.47219 0.81956 0.0
C2570 C 0.89042 0.5209 0.79305 0.0
C2571 C 0.86333 0.52925 0.82439 0.0
N2572 N 0.90496 0.48889 0.81339 0.0
N2573 N 0.86639 0.51068 0.82739 0.0
H2574 H 0.4911 0.32062 0.83532 0.0
H2575 H 0.54357 0.45402 0.81734 0.0
H2576 H 0.46989 0.34544 0.77526 0.0
H2577 H 0.58842 0.4275 0.8371 0.0
H2578 H 0.51335 0.41448 0.80629 0.0
H2579 H 0.52452 0.35978 0.84085 0.0
C2580 C 0.49367 0.33429 0.82314 0.0
C2581 C 0.47789 0.32985 0.80471 0.0
C2582 C 0.52989 0.41739 0.81287 0.0
C2583 C 0.51546 0.37464 0.81142 0.0
C2584 C 0.54699 0.43982 0.81928 0.0
C2585 C 0.56839 0.44386 0.8281 0.0
C2586 C 0.53401 0.39884 0.81602 0.0
C2587 C 0.57214 0.42498 0.83023 0.0
C2588 C 0.5127 0.35654 0.82629 0.0
C2589 C 0.48186 0.34815 0.78951 0.0
N2590 N 0.55496 0.40318 0.8246 0.0
N2591 N 0.50005 0.3699 0.79345 0.0
H2592 H 0.57602 0.66621 0.64673 0.0
H2593 H 0.54312 0.7662 0.63653 0.0
H2594 H 0.51225 0.65585 0.61563 0.0
H2595 H 0.59864 0.77166 0.68062 0.0
H2596 H 0.5347 0.72777 0.62419 0.0
H2597 H 0.58777 0.70677 0.654 0.0
C2598 C 0.56458 0.67249 0.6411 0.0
C2599 C 0.54297 0.65742 0.63066 0.0
C2600 C 0.54876 0.73738 0.63653 0.0
C2601 C 0.5564 0.70404 0.63916 0.0
C2602 C 0.55354 0.75939 0.64378 0.0
C2603 C 0.57147 0.7723 0.66003 0.0
C2604 C 0.56204 0.72805 0.6454 0.0
C2605 C 0.5847 0.76253 0.66808 0.0
C2606 C 0.5713 0.69568 0.64541 0.0
C2607 C 0.52901 0.66672 0.62377 0.0
N2608 N 0.57966 0.74099 0.66077 0.0
N2609 N 0.5359 0.68937 0.62827 0.0
H2610 H 0.36965 0.86252 0.6141 0.0
H2611 H 0.25165 0.82899 0.68288 0.0
H2612 H 0.35854 0.91206 0.65277 0.0
H2613 H 0.25827 0.7833 0.63322 0.0
H2614 H 0.29086 0.85944 0.67247 0.0
H2615 H 0.32897 0.83314 0.62099 0.0
C2616 C 0.35864 0.86733 0.6238 0.0
C2617 C 0.36767 0.88985 0.6329 0.0
C2618 C 0.28366 0.84274 0.66381 0.0
C2619 C 0.32105 0.85612 0.6412 0.0
C2620 C 0.26115 0.82528 0.66971 0.0
C2621 C 0.25135 0.80327 0.65906 0.0
C2622 C 0.29669 0.83825 0.64722 0.0
C2623 C 0.26494 0.79968 0.6423 0.0
C2624 C 0.3354 0.8505 0.6278 0.0
C2625 C 0.35247 0.89496 0.64541 0.0
N2626 N 0.28683 0.81688 0.63702 0.0
N2627 N 0.33004 0.87823 0.64935 0.0
H2628 H 0.16384 0.51274 0.6134 0.0
H2629 H 0.19554 0.42965 0.68703 0.0
H2630 H 0.11312 0.45204 0.65131 0.0
H2631 H 0.24324 0.48241 0.63879 0.0
H2632 H 0.16518 0.43763 0.67418 0.0
H2633 H 0.19315 0.50181 0.62214 0.0
C2634 C 0.15876 0.49697 0.6233 0.0
C2635 C 0.13594 0.48339 0.6317 0.0
C2636 C 0.1823 0.44739 0.66636 0.0
C2637 C 0.16957 0.47094 0.64211 0.0
C2638 C 0.1997 0.44279 0.67366 0.0
C2639 C 0.22222 0.45537 0.66415 0.0
C2640 C 0.18737 0.46483 0.64949 0.0
C2641 C 0.22641 0.47245 0.64704 0.0
C2642 C 0.17555 0.49077 0.62836 0.0
C2643 C 0.13047 0.46314 0.64449 0.0
N2644 N 0.20924 0.4767 0.64038 0.0
N2645 N 0.14717 0.45767 0.64948 0.0
H2646 H 0.33172 0.8492 0.20402 0.0
H2647 H 0.46786 0.93692 0.18541 0.0
H2648 H 0.36633 0.91969 0.22947 0.0
H2649 H 0.43161 0.86596 0.1613 0.0
H2650 H 0.43223 0.93019 0.20554 0.0
H2651 H 0.36922 0.85413 0.19217 0.0
C2652 C 0.34724 0.8657 0.20723 0.0
C2653 C 0.34578 0.88416 0.21741 0.0
C2654 C 0.43216 0.91605 0.19601 0.0
C2655 C 0.38906 0.89003 0.20381 0.0
C2656 C 0.45255 0.91986 0.18463 0.0
C2657 C 0.45269 0.90207 0.17136 0.0
C2658 C 0.41179 0.89428 0.19418 0.0
C2659 C 0.43224 0.88033 0.17086 0.0
C2660 C 0.36872 0.86851 0.20052 0.0
C2661 C 0.36661 0.90498 0.22167 0.0
N2662 N 0.41268 0.87713 0.18191 0.0
N2663 N 0.38735 0.90746 0.21458 0.0
H2664 H 0.1598 0.57013 0.15358 0.0
H2665 H 0.11159 0.46104 0.24139 0.0
H2666 H 0.09191 0.5395 0.1857 0.0
H2667 H 0.17147 0.48438 0.19609 0.0
H2668 H 0.10672 0.49305 0.2266 0.0
H2669 H 0.16697 0.54243 0.17464 0.0
C2670 C 0.14637 0.55759 0.16509 0.0
C2671 C 0.12506 0.55698 0.16751 0.0
C2672 C 0.12108 0.49126 0.22017 0.0
C2673 C 0.13328 0.52508 0.19201 0.0
C2674 C 0.12397 0.47305 0.22868 0.0
C2675 C 0.14209 0.46992 0.22012 0.0
C2676 C 0.13653 0.50657 0.2031 0.0
C2677 C 0.15741 0.48601 0.20349 0.0
C2678 C 0.15052 0.54178 0.17722 0.0
C2679 C 0.10859 0.54065 0.18327 0.0
N2680 N 0.15424 0.50349 0.19554 0.0
N2681 N 0.11297 0.52521 0.19477 0.0
H2682 H 0.53892 0.68878 0.20257 0.0
H2683 H 0.48461 0.55164 0.19345 0.0
H2684 H 0.56532 0.65231 0.24362 0.0
H2685 H 0.45771 0.59064 0.15807 0.0
H2686 H 0.51204 0.58694 0.21501 0.0
H2687 H 0.50708 0.65212 0.1894 0.0
C2688 C 0.53788 0.6731 0.20926 0.0
C2689 C 0.55498 0.6739 0.22444 0.0
C2690 C 0.49995 0.58767 0.20271 0.0
C2691 C 0.51835 0.63116 0.20855 0.0
C2692 C 0.4842 0.5675 0.1905 0.0
C2693 C 0.469 0.56824 0.1737 0.0
C2694 C 0.50042 0.60868 0.19811 0.0
C2695 C 0.46938 0.58933 0.17046 0.0
C2696 C 0.51961 0.65197 0.20151 0.0
C2697 C 0.55256 0.65264 0.232 0.0
N2698 N 0.48489 0.60863 0.18237 0.0
N2699 N 0.53476 0.63214 0.22376 0.0
H2700 H 0.12211 0.68585 0.68732 0.0
H2701 H 0.15055 0.58369 0.70769 0.0
H2702 H 0.18301 0.69566 0.72462 0.0
H2703 H 0.09991 0.58007 0.65743 0.0
H2704 H 0.15985 0.62295 0.71791 0.0
H2705 H 0.11062 0.64528 0.68091 0.0
C2706 C 0.13299 0.67946 0.69442 0.0
C2707 C 0.1537 0.69436 0.70643 0.0
C2708 C 0.14666 0.61351 0.70469 0.0
C2709 C 0.14056 0.64766 0.69894 0.0
C2710 C 0.14136 0.591 0.69868 0.0
C2711 C 0.12438 0.57823 0.68147 0.0
C2712 C 0.13486 0.62346 0.69361 0.0
C2713 C 0.11292 0.58888 0.67091 0.0
C2714 C 0.12642 0.65625 0.69062 0.0
C2715 C 0.16695 0.6849 0.71522 0.0
N2716 N 0.11837 0.61079 0.67714 0.0
N2717 N 0.16021 0.6622 0.71121 0.0
H2718 H 0.33922 0.44374 0.69029 0.0
H2719 H 0.44324 0.57366 0.7109 0.0
H2720 H 0.33203 0.49403 0.73213 0.0
H2721 H 0.44528 0.52688 0.65925 0.0
H2722 H 0.40403 0.54384 0.72177 0.0
H2723 H 0.37961 0.47274 0.68243 0.0
C2724 C 0.34616 0.46081 0.69807 0.0
C2725 C 0.33202 0.4664 0.71184 0.0
C2726 C 0.4131 0.54011 0.70808 0.0
C2727 C 0.37854 0.49992 0.70268 0.0
C2728 C 0.43557 0.55724 0.7017 0.0
C2729 C 0.4479 0.55305 0.68395 0.0
C2730 C 0.4027 0.51843 0.6968 0.0
C2731 C 0.43681 0.53105 0.67316 0.0
C2732 C 0.36927 0.47743 0.69344 0.0
C2733 C 0.34217 0.48888 0.7214 0.0
N2734 N 0.41494 0.51466 0.67973 0.0
N2735 N 0.36474 0.50482 0.71656 0.0
H2736 H 0.54542 0.84975 0.70235 0.0
H2737 H 0.50201 0.94148 0.68882 0.0
H2738 H 0.58556 0.92075 0.7258 0.0
H2739 H 0.45627 0.86766 0.68197 0.0
H2740 H 0.53329 0.93446 0.70089 0.0
H2741 H 0.51287 0.85597 0.69385 0.0
C2742 C 0.54737 0.86662 0.70581 0.0
C2743 C 0.56835 0.8848 0.71462 0.0
C2744 C 0.5164 0.91978 0.69682 0.0
C2745 C 0.53113 0.89211 0.70478 0.0
C2746 C 0.49857 0.92379 0.68971 0.0
C2747 C 0.47648 0.90512 0.68422 0.0
C2748 C 0.51226 0.89694 0.69821 0.0
C2749 C 0.47297 0.88254 0.68616 0.0
C2750 C 0.52873 0.87015 0.70102 0.0
C2751 C 0.56971 0.90621 0.71909 0.0
N2752 N 0.49068 0.87909 0.69282 0.0
N2753 N 0.55147 0.90934 0.71389 0.0
H2754 H 0.24211 0.4237 0.18707 0.0
H2755 H 0.35997 0.4884 0.11291 0.0
H2756 H 0.25814 0.48351 0.14426 0.0
H2757 H 0.35425 0.45627 0.18078 0.0
H2758 H 0.31989 0.48087 0.11766 0.0
H2759 H 0.28033 0.4288 0.17763 0.0
C2760 C 0.2535 0.43762 0.17528 0.0
C2761 C 0.24701 0.45323 0.16642 0.0
C2762 C 0.32752 0.4755 0.13142 0.0
C2763 C 0.29075 0.45923 0.15567 0.0
C2764 C 0.35029 0.47976 0.12873 0.0
C2765 C 0.36046 0.47313 0.14658 0.0
C2766 C 0.31478 0.46399 0.15177 0.0
C2767 C 0.34718 0.46192 0.16671 0.0
C2768 C 0.27537 0.44066 0.1701 0.0
C2769 C 0.26263 0.47122 0.15153 0.0
N2770 N 0.32502 0.45757 0.16868 0.0
N2771 N 0.28383 0.47376 0.14658 0.0
H2772 H 0.53191 0.78144 0.20079 0.0
H2773 H 0.5579 0.884 0.11036 0.0
H2774 H 0.58217 0.79952 0.14475 0.0
H2775 H 0.53057 0.87795 0.18086 0.0
H2776 H 0.56198 0.84966 0.11815 0.0
H2777 H 0.52595 0.81306 0.18891 0.0
C2778 C 0.54151 0.79187 0.18573 0.0
C2779 C 0.55747 0.78763 0.17364 0.0
C2780 C 0.55501 0.85589 0.13179 0.0
C2781 C 0.55091 0.82446 0.16008 0.0
C2782 C 0.55252 0.87529 0.12731 0.0
C2783 C 0.54392 0.88379 0.14502 0.0
C2784 C 0.54841 0.84481 0.15393 0.0
C2785 C 0.53739 0.87207 0.16674 0.0
C2786 C 0.53824 0.81014 0.17907 0.0
C2787 C 0.56979 0.80225 0.15459 0.0
N2788 N 0.53971 0.85322 0.17053 0.0
N2789 N 0.56623 0.82006 0.14832 0.0
H2790 H 0.13316 0.67822 0.10719 0.0
H2791 H 0.25116 0.76112 0.17441 0.0
H2792 H 0.15151 0.65791 0.17248 0.0
H2793 H 0.21103 0.78854 0.14266 0.0
H2794 H 0.21952 0.72163 0.16594 0.0
H2795 H 0.16668 0.71762 0.11218 0.0
C2796 C 0.14445 0.68198 0.12235 0.0
C2797 C 0.13965 0.6649 0.13948 0.0
C2798 C 0.21775 0.73632 0.1607 0.0
C2799 C 0.17787 0.70947 0.14506 0.0
C2800 C 0.23577 0.75877 0.1654 0.0
C2801 C 0.23358 0.778 0.15925 0.0
C2802 C 0.19764 0.73311 0.14924 0.0
C2803 C 0.21322 0.77409 0.14781 0.0
C2804 C 0.16338 0.70441 0.12525 0.0
C2805 C 0.15461 0.67066 0.15894 0.0
N2806 N 0.19603 0.75205 0.14301 0.0
N2807 N 0.17316 0.69242 0.16113 0.0
loop_
_geom_bond_atom_site_label_1
_geom_bond_atom_site_label_2
_geom_bond_distance
_geom_bond_site_symmetry_2
_ccdc_geom_bond_type
Co0 N4 2.148 . S
Co0 N10 2.128 . S
Co0 N20 2.194 . S
Co0 O25 2.351 . S
Co0 O26 2.155 1_554 S
Co0 O27 2.096 . S
C1 N4 1.301 . S
C1 N5 1.328 . S
C1 H6 0.930 . S
C2 C3 1.333 . S
C2 N4 1.317 . S
C2 H7 0.930 . S
C3 C2 1.333 . S
C3 N5 1.350 . S
C3 H29 0.931 . S
N4 Co0 2.148 . S
N4 C1 1.301 . S
N4 C2 1.317 . S
N5 C1 1.328 . S
N5 C3 1.350 . S
H6 C1 0.930 . S
H7 C2 0.930 . S
C8 O9 1.224 . S
C8 O27 1.247 . S
O9 C8 1.224 . S
N10 Co0 2.128 . S
N10 C11 1.355 . S
N10 C13 1.311 . S
C11 N10 1.355 . S
C11 C12 1.363 . S
C11 H23 0.929 . S
C12 C11 1.363 . S
C12 N14 1.375 . S
C12 H30 0.931 . S
C13 N10 1.311 . S
C13 N14 1.347 . S
C13 H24 0.929 . S
N14 C12 1.375 . S
N14 C13 1.347 . S
C15 C18 1.365 . S
C15 N20 1.328 . S
C15 H21 0.929 . S
C16 C17 1.362 . S
C16 C19 1.378 . S
C16 H31 0.929 . S
C17 C16 1.362 . S
C17 C18 1.366 . S
C18 C15 1.365 . S
C18 C17 1.366 . S
C18 H32 0.930 . S
C19 C16 1.378 . S
C19 N20 1.315 . S
C19 H22 0.930 . S
N20 Co0 2.194 . S
N20 C15 1.328 . S
N20 C19 1.315 . S
H21 C15 0.929 . S
H22 C19 0.930 . S
H23 C11 0.929 . S
H24 C13 0.929 . S
O25 Co0 2.351 . S
O25 C28 1.244 1_554 S
O26 Co0 2.155 1_556 S
O26 C28 1.240 . S
O27 Co0 2.096 . S
O27 C8 1.247 . S
C28 O25 1.244 1_556 S
C28 O26 1.240 . S
H29 C3 0.931 . S
H30 C12 0.931 . S
H31 C16 0.929 . S
H32 C18 0.930 . S
Co33 N37 2.148 . S
Co33 N43 2.128 . S
Co33 N53 2.194 . S
Co33 O58 2.351 . S
Co33 O59 2.155 1_554 S
Co33 O60 2.096 . S
C34 N37 1.301 . S
C34 N38 1.328 . S
C34 H39 0.930 . S
C35 C36 1.333 . S
C35 N37 1.317 . S
C35 H40 0.930 . S
C36 C35 1.333 . S
C36 N38 1.350 . S
C36 H62 0.931 . S
N37 Co33 2.148 . S
N37 C34 1.301 . S
N37 C35 1.317 . S
N38 C34 1.328 . S
N38 C36 1.350 . S
H39 C34 0.930 . S
H40 C35 0.930 . S
C41 O42 1.224 . S
C41 O60 1.247 . S
O42 C41 1.224 . S
N43 Co33 2.128 . S
N43 C44 1.355 . S
N43 C46 1.311 . S
C44 N43 1.355 . S
C44 C45 1.363 . S
C44 H56 0.929 . S
C45 C44 1.363 . S
C45 N47 1.375 . S
C45 H63 0.931 . S
C46 N43 1.311 . S
C46 N47 1.347 . S
C46 H57 0.929 . S
N47 C45 1.375 . S
N47 C46 1.347 . S
C48 C51 1.365 . S
C48 N53 1.328 . S
C48 H54 0.929 . S
C49 C50 1.362 . S
C49 C52 1.378 . S
C49 H64 0.929 . S
C50 C49 1.362 . S
C50 C51 1.366 . S
C51 C48 1.365 . S
C51 C50 1.366 . S
C51 H65 0.930 . S
C52 C49 1.378 . S
C52 N53 1.315 . S
C52 H55 0.930 . S
N53 Co33 2.194 . S
N53 C48 1.328 . S
N53 C52 1.315 . S
H54 C48 0.929 . S
H55 C52 0.930 . S
H56 C44 0.929 . S
H57 C46 0.929 . S
O58 Co33 2.351 . S
O58 C61 1.244 1_554 S
O59 Co33 2.155 1_556 S
O59 C61 1.240 . S
O60 Co33 2.096 . S
O60 C41 1.247 . S
C61 O58 1.244 1_556 S
C61 O59 1.240 . S
H62 C36 0.931 . S
H63 C45 0.931 . S
H64 C49 0.929 . S
H65 C51 0.930 . S
Co66 N70 2.148 . S
Co66 N76 2.128 . S
Co66 N86 2.194 . S
Co66 O91 2.351 . S
Co66 O92 2.155 1_554 S
Co66 O93 2.096 . S
C67 N70 1.301 . S
C67 N71 1.328 . S
C67 H72 0.930 . S
C68 C69 1.333 . S
C68 N70 1.317 . S
C68 H73 0.930 . S
C69 C68 1.333 . S
C69 N71 1.350 . S
C69 H95 0.931 . S
N70 Co66 2.148 . S
N70 C67 1.301 . S
N70 C68 1.317 . S
N71 C67 1.328 . S
N71 C69 1.350 . S
H72 C67 0.930 . S
H73 C68 0.930 . S
C74 O75 1.224 . S
C74 O93 1.247 . S
O75 C74 1.224 . S
N76 Co66 2.128 . S
N76 C77 1.355 . S
N76 C79 1.311 . S
C77 N76 1.355 . S
C77 C78 1.363 . S
C77 H89 0.929 . S
C78 C77 1.363 . S
C78 N80 1.375 . S
C78 H96 0.931 . S
C79 N76 1.311 . S
C79 N80 1.347 . S
C79 H90 0.929 . S
N80 C78 1.375 . S
N80 C79 1.347 . S
C81 C84 1.365 . S
C81 N86 1.328 . S
C81 H87 0.929 . S
C82 C83 1.362 . S
C82 C85 1.378 . S
C82 H97 0.929 . S
C83 C82 1.362 . S
C83 C84 1.366 . S
C84 C81 1.365 . S
C84 C83 1.366 . S
C84 H98 0.930 . S
C85 C82 1.378 . S
C85 N86 1.315 . S
C85 H88 0.930 . S
N86 Co66 2.194 . S
N86 C81 1.328 . S
N86 C85 1.315 . S
H87 C81 0.929 . S
H88 C85 0.930 . S
H89 C77 0.929 . S
H90 C79 0.929 . S
O91 Co66 2.351 . S
O91 C94 1.244 1_554 S
O92 Co66 2.155 1_556 S
O92 C94 1.240 . S
O93 Co66 2.096 . S
O93 C74 1.247 . S
C94 O91 1.244 1_556 S
C94 O92 1.240 . S
H95 C69 0.931 . S
H96 C78 0.931 . S
H97 C82 0.929 . S
H98 C84 0.930 . S
Co99 N103 2.148 . S
Co99 N109 2.128 . S
Co99 N119 2.194 . S
Co99 O124 2.351 . S
Co99 O125 2.155 . S
Co99 O126 2.096 . S
C100 N103 1.301 . S
C100 N104 1.328 . S
C100 H105 0.930 . S
C101 C102 1.333 . S
C101 N103 1.317 . S
C101 H106 0.930 . S
C102 C101 1.333 . S
C102 N104 1.350 . S
C102 H128 0.931 . S
N103 Co99 2.148 . S
N103 C100 1.301 . S
N103 C101 1.317 . S
N104 C100 1.328 . S
N104 C102 1.350 . S
H105 C100 0.930 . S
H106 C101 0.930 . S
C107 O108 1.224 . S
C107 O126 1.247 . S
O108 C107 1.224 . S
N109 Co99 2.128 . S
N109 C110 1.355 . S
N109 C112 1.311 . S
C110 N109 1.355 . S
C110 C111 1.363 . S
C110 H122 0.929 . S
C111 C110 1.363 . S
C111 N113 1.375 . S
C111 H129 0.931 . S
C112 N109 1.311 . S
C112 N113 1.347 . S
C112 H123 0.929 . S
N113 C111 1.375 . S
N113 C112 1.347 . S
C114 C117 1.365 . S
C114 N119 1.328 . S
C114 H120 0.929 . S
C115 C116 1.362 . S
C115 C118 1.378 . S
C115 H130 0.929 . S
C116 C115 1.362 . S
C116 C117 1.366 . S
C117 C114 1.365 . S
C117 C116 1.366 . S
C117 H131 0.930 . S
C118 C115 1.378 . S
C118 N119 1.315 . S
C118 H121 0.930 . S
N119 Co99 2.194 . S
N119 C114 1.328 . S
N119 C118 1.315 . S
H120 C114 0.929 . S
H121 C118 0.930 . S
H122 C110 0.929 . S
H123 C112 0.929 . S
O124 Co99 2.351 . S
O124 C127 1.244 . S
O125 Co99 2.155 . S
O125 C127 1.240 . S
O126 Co99 2.096 . S
O126 C107 1.247 . S
C127 O124 1.244 . S
C127 O125 1.240 . S
H128 C102 0.931 . S
H129 C111 0.931 . S
H130 C115 0.929 . S
H131 C117 0.930 . S
Co132 N136 2.148 . S
Co132 N142 2.128 . S
Co132 N152 2.194 . S
Co132 O157 2.351 . S
Co132 O158 2.155 . S
Co132 O159 2.096 . S
C133 N136 1.301 . S
C133 N137 1.328 . S
C133 H138 0.930 . S
C134 C135 1.333 . S
C134 N136 1.317 . S
C134 H139 0.930 . S
C135 C134 1.333 . S
C135 N137 1.350 . S
C135 H161 0.931 . S
N136 Co132 2.148 . S
N136 C133 1.301 . S
N136 C134 1.317 . S
N137 C133 1.328 . S
N137 C135 1.350 . S
H138 C133 0.930 . S
H139 C134 0.930 . S
C140 O141 1.224 . S
C140 O159 1.247 . S
O141 C140 1.224 . S
N142 Co132 2.128 . S
N142 C143 1.355 . S
N142 C145 1.311 . S
C143 N142 1.355 . S
C143 C144 1.363 . S
C143 H155 0.929 . S
C144 C143 1.363 . S
C144 N146 1.375 . S
C144 H162 0.931 . S
C145 N142 1.311 . S
C145 N146 1.347 . S
C145 H156 0.929 . S
N146 C144 1.375 . S
N146 C145 1.347 . S
C147 C150 1.365 . S
C147 N152 1.328 . S
C147 H153 0.929 . S
C148 C149 1.362 . S
C148 C151 1.378 . S
C148 H163 0.929 . S
C149 C148 1.362 . S
C149 C150 1.366 . S
C150 C147 1.365 . S
C150 C149 1.366 . S
C150 H164 0.930 . S
C151 C148 1.378 . S
C151 N152 1.315 . S
C151 H154 0.930 . S
N152 Co132 2.194 . S
N152 C147 1.328 . S
N152 C151 1.315 . S
H153 C147 0.929 . S
H154 C151 0.930 . S
H155 C143 0.929 . S
H156 C145 0.929 . S
O157 Co132 2.351 . S
O157 C160 1.244 . S
O158 Co132 2.155 . S
O158 C160 1.240 . S
O159 Co132 2.096 . S
O159 C140 1.247 . S
C160 O157 1.244 . S
C160 O158 1.240 . S
H161 C135 0.931 . S
H162 C144 0.931 . S
H163 C148 0.929 . S
H164 C150 0.930 . S
Co165 N169 2.148 . S
Co165 N175 2.128 . S
Co165 N185 2.194 . S
Co165 O190 2.351 . S
Co165 O191 2.155 . S
Co165 O192 2.096 . S
C166 N169 1.301 . S
C166 N170 1.328 . S
C166 H171 0.930 . S
C167 C168 1.333 . S
C167 N169 1.317 . S
C167 H172 0.930 . S
C168 C167 1.333 . S
C168 N170 1.350 . S
C168 H194 0.931 . S
N169 Co165 2.148 . S
N169 C166 1.301 . S
N169 C167 1.317 . S
N170 C166 1.328 . S
N170 C168 1.350 . S
H171 C166 0.930 . S
H172 C167 0.930 . S
C173 O174 1.224 . S
C173 O192 1.247 . S
O174 C173 1.224 . S
N175 Co165 2.128 . S
N175 C176 1.355 . S
N175 C178 1.311 . S
C176 N175 1.355 . S
C176 C177 1.363 . S
C176 H188 0.929 . S
C177 C176 1.363 . S
C177 N179 1.375 . S
C177 H195 0.931 . S
C178 N175 1.311 . S
C178 N179 1.347 . S
C178 H189 0.929 . S
N179 C177 1.375 . S
N179 C178 1.347 . S
C180 C183 1.365 . S
C180 N185 1.328 . S
C180 H186 0.929 . S
C181 C182 1.362 . S
C181 C184 1.378 . S
C181 H196 0.929 . S
C182 C181 1.362 . S
C182 C183 1.366 . S
C183 C180 1.365 . S
C183 C182 1.366 . S
C183 H197 0.930 . S
C184 C181 1.378 . S
C184 N185 1.315 . S
C184 H187 0.930 . S
N185 Co165 2.194 . S
N185 C180 1.328 . S
N185 C184 1.315 . S
H186 C180 0.929 . S
H187 C184 0.930 . S
H188 C176 0.929 . S
H189 C178 0.929 . S
O190 Co165 2.351 . S
O190 C193 1.244 . S
O191 Co165 2.155 . S
O191 C193 1.240 . S
O192 Co165 2.096 . S
O192 C173 1.247 . S
C193 O190 1.244 . S
C193 O191 1.240 . S
H194 C168 0.931 . S
H195 C177 0.931 . S
H196 C181 0.929 . S
H197 C183 0.930 . S
Co198 N202 2.148 . S
Co198 N208 2.128 . S
Co198 N218 2.194 . S
Co198 O223 2.351 . S
Co198 O224 2.155 1_556 S
Co198 O225 2.096 . S
C199 N202 1.301 . S
C199 N203 1.328 . S
C199 H204 0.930 . S
C200 C201 1.333 . S
C200 N202 1.317 . S
C200 H205 0.930 . S
C201 C200 1.333 . S
C201 N203 1.350 . S
C201 H227 0.931 . S
N202 Co198 2.148 . S
N202 C199 1.301 . S
N202 C200 1.317 . S
N203 C199 1.328 . S
N203 C201 1.350 . S
H204 C199 0.930 . S
H205 C200 0.930 . S
C206 O207 1.224 . S
C206 O225 1.247 . S
O207 C206 1.224 . S
N208 Co198 2.128 . S
N208 C209 1.355 . S
N208 C211 1.311 . S
C209 N208 1.355 . S
C209 C210 1.363 . S
C209 H221 0.929 . S
C210 C209 1.363 . S
C210 N212 1.375 . S
C210 H228 0.931 . S
C211 N208 1.311 . S
C211 N212 1.347 . S
C211 H222 0.929 . S
N212 C210 1.375 . S
N212 C211 1.347 . S
C213 C216 1.365 . S
C213 N218 1.328 . S
C213 H219 0.929 . S
C214 C215 1.362 . S
C214 C217 1.378 . S
C214 H229 0.929 . S
C215 C214 1.362 . S
C215 C216 1.366 . S
C216 C213 1.365 . S
C216 C215 1.366 . S
C216 H230 0.930 . S
C217 C214 1.378 . S
C217 N218 1.315 . S
C217 H220 0.930 . S
N218 Co198 2.194 . S
N218 C213 1.328 . S
N218 C217 1.315 . S
H219 C213 0.929 . S
H220 C217 0.930 . S
H221 C209 0.929 . S
H222 C211 0.929 . S
O223 Co198 2.351 . S
O223 C226 1.244 1_556 S
O224 Co198 2.155 1_554 S
O224 C226 1.240 . S
O225 Co198 2.096 . S
O225 C206 1.247 . S
C226 O223 1.244 1_554 S
C226 O224 1.240 . S
H227 C201 0.931 . S
H228 C210 0.931 . S
H229 C214 0.929 . S
H230 C216 0.930 . S
Co231 N235 2.148 . S
Co231 N241 2.128 . S
Co231 N251 2.194 . S
Co231 O256 2.351 . S
Co231 O257 2.155 1_556 S
Co231 O258 2.096 . S
C232 N235 1.301 . S
C232 N236 1.328 . S
C232 H237 0.930 . S
C233 C234 1.333 . S
C233 N235 1.317 . S
C233 H238 0.930 . S
C234 C233 1.333 . S
C234 N236 1.350 . S
C234 H260 0.931 . S
N235 Co231 2.148 . S
N235 C232 1.301 . S
N235 C233 1.317 . S
N236 C232 1.328 . S
N236 C234 1.350 . S
H237 C232 0.930 . S
H238 C233 0.930 . S
C239 O240 1.224 . S
C239 O258 1.247 . S
O240 C239 1.224 . S
N241 Co231 2.128 . S
N241 C242 1.355 . S
N241 C244 1.311 . S
C242 N241 1.355 . S
C242 C243 1.363 . S
C242 H254 0.929 . S
C243 C242 1.363 . S
C243 N245 1.375 . S
C243 H261 0.931 . S
C244 N241 1.311 . S
C244 N245 1.347 . S
C244 H255 0.929 . S
N245 C243 1.375 . S
N245 C244 1.347 . S
C246 C249 1.365 . S
C246 N251 1.328 . S
C246 H252 0.929 . S
C247 C248 1.362 . S
C247 C250 1.378 . S
C247 H262 0.929 . S
C248 C247 1.362 . S
C248 C249 1.366 . S
C249 C246 1.365 . S
C249 C248 1.366 . S
C249 H263 0.930 . S
C250 C247 1.378 . S
C250 N251 1.315 . S
C250 H253 0.930 . S
N251 Co231 2.194 . S
N251 C246 1.328 . S
N251 C250 1.315 . S
H252 C246 0.929 . S
H253 C250 0.930 . S
H254 C242 0.929 . S
H255 C244 0.929 . S
O256 Co231 2.351 . S
O256 C259 1.244 1_556 S
O257 Co231 2.155 1_554 S
O257 C259 1.240 . S
O258 Co231 2.096 . S
O258 C239 1.247 . S
C259 O256 1.244 1_554 S
C259 O257 1.240 . S
H260 C234 0.931 . S
H261 C243 0.931 . S
H262 C247 0.929 . S
H263 C249 0.930 . S
Co264 N268 2.148 . S
Co264 N274 2.128 . S
Co264 N284 2.194 . S
Co264 O289 2.351 . S
Co264 O290 2.155 1_556 S
Co264 O291 2.096 . S
C265 N268 1.301 . S
C265 N269 1.328 . S
C265 H270 0.930 . S
C266 C267 1.333 . S
C266 N268 1.317 . S
C266 H271 0.930 . S
C267 C266 1.333 . S
C267 N269 1.350 . S
C267 H293 0.931 . S
N268 Co264 2.148 . S
N268 C265 1.301 . S
N268 C266 1.317 . S
N269 C265 1.328 . S
N269 C267 1.350 . S
H270 C265 0.930 . S
H271 C266 0.930 . S
C272 O273 1.224 . S
C272 O291 1.247 . S
O273 C272 1.224 . S
N274 Co264 2.128 . S
N274 C275 1.355 . S
N274 C277 1.311 . S
C275 N274 1.355 . S
C275 C276 1.363 . S
C275 H287 0.929 . S
C276 C275 1.363 . S
C276 N278 1.375 . S
C276 H294 0.931 . S
C277 N274 1.311 . S
C277 N278 1.347 . S
C277 H288 0.929 . S
N278 C276 1.375 . S
N278 C277 1.347 . S
C279 C282 1.365 . S
C279 N284 1.328 . S
C279 H285 0.929 . S
C280 C281 1.362 . S
C280 C283 1.378 . S
C280 H295 0.929 . S
C281 C280 1.362 . S
C281 C282 1.366 . S
C282 C279 1.365 . S
C282 C281 1.366 . S
C282 H296 0.930 . S
C283 C280 1.378 . S
C283 N284 1.315 . S
C283 H286 0.930 . S
N284 Co264 2.194 . S
N284 C279 1.328 . S
N284 C283 1.315 . S
H285 C279 0.929 . S
H286 C283 0.930 . S
H287 C275 0.929 . S
H288 C277 0.929 . S
O289 Co264 2.351 . S
O289 C292 1.244 1_556 S
O290 Co264 2.155 1_554 S
O290 C292 1.240 . S
O291 Co264 2.096 . S
O291 C272 1.247 . S
C292 O289 1.244 1_554 S
C292 O290 1.240 . S
H293 C267 0.931 . S
H294 C276 0.931 . S
H295 C280 0.929 . S
H296 C282 0.930 . S
Co297 N301 2.148 . S
Co297 N307 2.128 . S
Co297 N317 2.194 . S
Co297 O322 2.351 . S
Co297 O323 2.155 . S
Co297 O324 2.096 . S
C298 N301 1.301 . S
C298 N302 1.328 . S
C298 H303 0.930 . S
C299 C300 1.333 . S
C299 N301 1.317 . S
C299 H304 0.930 . S
C300 C299 1.333 . S
C300 N302 1.350 . S
C300 H326 0.931 . S
N301 Co297 2.148 . S
N301 C298 1.301 . S
N301 C299 1.317 . S
N302 C298 1.328 . S
N302 C300 1.350 . S
H303 C298 0.930 . S
H304 C299 0.930 . S
C305 O306 1.224 . S
C305 O324 1.247 . S
O306 C305 1.224 . S
N307 Co297 2.128 . S
N307 C308 1.355 . S
N307 C310 1.311 . S
C308 N307 1.355 . S
C308 C309 1.363 . S
C308 H320 0.929 . S
C309 C308 1.363 . S
C309 N311 1.375 . S
C309 H327 0.931 . S
C310 N307 1.311 . S
C310 N311 1.347 . S
C310 H321 0.929 . S
N311 C309 1.375 . S
N311 C310 1.347 . S
C312 C315 1.365 . S
C312 N317 1.328 . S
C312 H318 0.929 . S
C313 C314 1.362 . S
C313 C316 1.378 . S
C313 H328 0.929 . S
C314 C313 1.362 . S
C314 C315 1.366 . S
C315 C312 1.365 . S
C315 C314 1.366 . S
C315 H329 0.930 . S
C316 C313 1.378 . S
C316 N317 1.315 . S
C316 H319 0.930 . S
N317 Co297 2.194 . S
N317 C312 1.328 . S
N317 C316 1.315 . S
H318 C312 0.929 . S
H319 C316 0.930 . S
H320 C308 0.929 . S
H321 C310 0.929 . S
O322 Co297 2.351 . S
O322 C325 1.244 . S
O323 Co297 2.155 . S
O323 C325 1.240 . S
O324 Co297 2.096 . S
O324 C305 1.247 . S
C325 O322 1.244 . S
C325 O323 1.240 . S
H326 C300 0.931 . S
H327 C309 0.931 . S
H328 C313 0.929 . S
H329 C315 0.930 . S
Co330 N334 2.148 . S
Co330 N340 2.128 . S
Co330 N350 2.194 . S
Co330 O355 2.351 . S
Co330 O356 2.155 . S
Co330 O357 2.096 . S
C331 N334 1.301 . S
C331 N335 1.328 . S
C331 H336 0.930 . S
C332 C333 1.333 . S
C332 N334 1.317 . S
C332 H337 0.930 . S
C333 C332 1.333 . S
C333 N335 1.350 . S
C333 H359 0.931 . S
N334 Co330 2.148 . S
N334 C331 1.301 . S
N334 C332 1.317 . S
N335 C331 1.328 . S
N335 C333 1.350 . S
H336 C331 0.930 . S
H337 C332 0.930 . S
C338 O339 1.224 . S
C338 O357 1.247 . S
O339 C338 1.224 . S
N340 Co330 2.128 . S
N340 C341 1.355 . S
N340 C343 1.311 . S
C341 N340 1.355 . S
C341 C342 1.363 . S
C341 H353 0.929 . S
C342 C341 1.363 . S
C342 N344 1.375 . S
C342 H360 0.931 . S
C343 N340 1.311 . S
C343 N344 1.347 . S
C343 H354 0.929 . S
N344 C342 1.375 . S
N344 C343 1.347 . S
C345 C348 1.365 . S
C345 N350 1.328 . S
C345 H351 0.929 . S
C346 C347 1.362 . S
C346 C349 1.378 . S
C346 H361 0.929 . S
C347 C346 1.362 . S
C347 C348 1.366 . S
C348 C345 1.365 . S
C348 C347 1.366 . S
C348 H362 0.930 . S
C349 C346 1.378 . S
C349 N350 1.315 . S
C349 H352 0.930 . S
N350 Co330 2.194 . S
N350 C345 1.328 . S
N350 C349 1.315 . S
H351 C345 0.929 . S
H352 C349 0.930 . S
H353 C341 0.929 . S
H354 C343 0.929 . S
O355 Co330 2.351 . S
O355 C358 1.244 . S
O356 Co330 2.155 . S
O356 C358 1.240 . S
O357 Co330 2.096 . S
O357 C338 1.247 . S
C358 O355 1.244 . S
C358 O356 1.240 . S
H359 C333 0.931 . S
H360 C342 0.931 . S
H361 C346 0.929 . S
H362 C348 0.930 . S
Co363 N367 2.148 . S
Co363 N373 2.128 . S
Co363 N383 2.194 . S
Co363 O388 2.351 . S
Co363 O389 2.155 . S
Co363 O390 2.096 . S
C364 N367 1.301 . S
C364 N368 1.328 . S
C364 H369 0.930 . S
C365 C366 1.333 . S
C365 N367 1.317 . S
C365 H370 0.930 . S
C366 C365 1.333 . S
C366 N368 1.350 . S
C366 H392 0.931 . S
N367 Co363 2.148 . S
N367 C364 1.301 . S
N367 C365 1.317 . S
N368 C364 1.328 . S
N368 C366 1.350 . S
H369 C364 0.930 . S
H370 C365 0.930 . S
C371 O372 1.224 . S
C371 O390 1.247 . S
O372 C371 1.224 . S
N373 Co363 2.128 . S
N373 C374 1.355 . S
N373 C376 1.311 . S
C374 N373 1.355 . S
C374 C375 1.363 . S
C374 H386 0.929 . S
C375 C374 1.363 . S
C375 N377 1.375 . S
C375 H393 0.931 . S
C376 N373 1.311 . S
C376 N377 1.347 . S
C376 H387 0.929 . S
N377 C375 1.375 . S
N377 C376 1.347 . S
C378 C381 1.365 . S
C378 N383 1.328 . S
C378 H384 0.929 . S
C379 C380 1.362 . S
C379 C382 1.378 . S
C379 H394 0.929 . S
C380 C379 1.362 . S
C380 C381 1.366 . S
C381 C378 1.365 . S
C381 C380 1.366 . S
C381 H395 0.930 . S
C382 C379 1.378 . S
C382 N383 1.315 . S
C382 H385 0.930 . S
N383 Co363 2.194 . S
N383 C378 1.328 . S
N383 C382 1.315 . S
H384 C378 0.929 . S
H385 C382 0.930 . S
H386 C374 0.929 . S
H387 C376 0.929 . S
O388 Co363 2.351 . S
O388 C391 1.244 . S
O389 Co363 2.155 . S
O389 C391 1.240 . S
O390 Co363 2.096 . S
O390 C371 1.247 . S
C391 O388 1.244 . S
C391 O389 1.240 . S
H392 C366 0.931 . S
H393 C375 0.931 . S
H394 C379 0.929 . S
H395 C381 0.930 . S
Co396 N400 2.148 . S
Co396 N406 2.128 . S
Co396 N416 2.194 . S
Co396 O421 2.351 . S
Co396 O422 2.155 . S
Co396 O423 2.096 . S
C397 N400 1.301 . S
C397 N401 1.328 . S
C397 H402 0.930 . S
C398 C399 1.333 . S
C398 N400 1.317 . S
C398 H403 0.930 . S
C399 C398 1.333 . S
C399 N401 1.350 . S
C399 H425 0.931 . S
N400 Co396 2.148 . S
N400 C397 1.301 . S
N400 C398 1.317 . S
N401 C397 1.328 . S
N401 C399 1.350 . S
H402 C397 0.930 . S
H403 C398 0.930 . S
C404 O405 1.224 . S
C404 O423 1.247 . S
O405 C404 1.224 . S
N406 Co396 2.128 . S
N406 C407 1.355 . S
N406 C409 1.311 . S
C407 N406 1.355 . S
C407 C408 1.363 . S
C407 H419 0.929 . S
C408 C407 1.363 . S
C408 N410 1.375 . S
C408 H426 0.931 . S
C409 N406 1.311 . S
C409 N410 1.347 . S
C409 H420 0.929 . S
N410 C408 1.375 . S
N410 C409 1.347 . S
C411 C414 1.365 . S
C411 N416 1.328 . S
C411 H417 0.929 . S
C412 C413 1.362 . S
C412 C415 1.378 . S
C412 H427 0.929 . S
C413 C412 1.362 . S
C413 C414 1.366 . S
C414 C411 1.365 . S
C414 C413 1.366 . S
C414 H428 0.930 . S
C415 C412 1.378 . S
C415 N416 1.315 . S
C415 H418 0.930 . S
N416 Co396 2.194 . S
N416 C411 1.328 . S
N416 C415 1.315 . S
H417 C411 0.929 . S
H418 C415 0.930 . S
H419 C407 0.929 . S
H420 C409 0.929 . S
O421 Co396 2.351 . S
O421 C424 1.244 . S
O422 Co396 2.155 . S
O422 C424 1.240 . S
O423 Co396 2.096 . S
O423 C404 1.247 . S
C424 O421 1.244 . S
C424 O422 1.240 . S
H425 C399 0.931 . S
H426 C408 0.931 . S
H427 C412 0.929 . S
H428 C414 0.930 . S
Co429 N433 2.148 . S
Co429 N439 2.128 . S
Co429 N449 2.194 . S
Co429 O454 2.351 . S
Co429 O455 2.155 . S
Co429 O456 2.096 . S
C430 N433 1.301 . S
C430 N434 1.328 . S
C430 H435 0.930 . S
C431 C432 1.333 . S
C431 N433 1.317 . S
C431 H436 0.930 . S
C432 C431 1.333 . S
C432 N434 1.350 . S
C432 H458 0.931 . S
N433 Co429 2.148 . S
N433 C430 1.301 . S
N433 C431 1.317 . S
N434 C430 1.328 . S
N434 C432 1.350 . S
H435 C430 0.930 . S
H436 C431 0.930 . S
C437 O438 1.224 . S
C437 O456 1.247 . S
O438 C437 1.224 . S
N439 Co429 2.128 . S
N439 C440 1.355 . S
N439 C442 1.311 . S
C440 N439 1.355 . S
C440 C441 1.363 . S
C440 H452 0.929 . S
C441 C440 1.363 . S
C441 N443 1.375 . S
C441 H459 0.931 . S
C442 N439 1.311 . S
C442 N443 1.347 . S
C442 H453 0.929 . S
N443 C441 1.375 . S
N443 C442 1.347 . S
C444 C447 1.365 . S
C444 N449 1.328 . S
C444 H450 0.929 . S
C445 C446 1.362 . S
C445 C448 1.378 . S
C445 H460 0.929 . S
C446 C445 1.362 . S
C446 C447 1.366 . S
C447 C444 1.365 . S
C447 C446 1.366 . S
C447 H461 0.930 . S
C448 C445 1.378 . S
C448 N449 1.315 . S
C448 H451 0.930 . S
N449 Co429 2.194 . S
N449 C444 1.328 . S
N449 C448 1.315 . S
H450 C444 0.929 . S
H451 C448 0.930 . S
H452 C440 0.929 . S
H453 C442 0.929 . S
O454 Co429 2.351 . S
O454 C457 1.244 . S
O455 Co429 2.155 . S
O455 C457 1.240 . S
O456 Co429 2.096 . S
O456 C437 1.247 . S
C457 O454 1.244 . S
C457 O455 1.240 . S
H458 C432 0.931 . S
H459 C441 0.931 . S
H460 C445 0.929 . S
H461 C447 0.930 . S
Co462 N466 2.148 . S
Co462 N472 2.128 . S
Co462 N482 2.194 . S
Co462 O487 2.351 . S
Co462 O488 2.155 . S
Co462 O489 2.096 . S
C463 N466 1.301 . S
C463 N467 1.328 . S
C463 H468 0.930 . S
C464 C465 1.333 . S
C464 N466 1.317 . S
C464 H469 0.930 . S
C465 C464 1.333 . S
C465 N467 1.350 . S
C465 H491 0.931 . S
N466 Co462 2.148 . S
N466 C463 1.301 . S
N466 C464 1.317 . S
N467 C463 1.328 . S
N467 C465 1.350 . S
H468 C463 0.930 . S
H469 C464 0.930 . S
C470 O471 1.224 . S
C470 O489 1.247 . S
O471 C470 1.224 . S
N472 Co462 2.128 . S
N472 C473 1.355 . S
N472 C475 1.311 . S
C473 N472 1.355 . S
C473 C474 1.363 . S
C473 H485 0.929 . S
C474 C473 1.363 . S
C474 N476 1.375 . S
C474 H492 0.931 . S
C475 N472 1.311 . S
C475 N476 1.347 . S
C475 H486 0.929 . S
N476 C474 1.375 . S
N476 C475 1.347 . S
C477 C480 1.365 . S
C477 N482 1.328 . S
C477 H483 0.929 . S
C478 C479 1.362 . S
C478 C481 1.378 . S
C478 H493 0.929 . S
C479 C478 1.362 . S
C479 C480 1.366 . S
C480 C477 1.365 . S
C480 C479 1.366 . S
C480 H494 0.930 . S
C481 C478 1.378 . S
C481 N482 1.315 . S
C481 H484 0.930 . S
N482 Co462 2.194 . S
N482 C477 1.328 . S
N482 C481 1.315 . S
H483 C477 0.929 . S
H484 C481 0.930 . S
H485 C473 0.929 . S
H486 C475 0.929 . S
O487 Co462 2.351 . S
O487 C490 1.244 . S
O488 Co462 2.155 . S
O488 C490 1.240 . S
O489 Co462 2.096 . S
O489 C470 1.247 . S
C490 O487 1.244 . S
C490 O488 1.240 . S
H491 C465 0.931 . S
H492 C474 0.931 . S
H493 C478 0.929 . S
H494 C480 0.930 . S
Co495 N499 2.148 . S
Co495 N505 2.128 . S
Co495 N515 2.194 . S
Co495 O520 2.351 . S
Co495 O521 2.155 . S
Co495 O522 2.096 . S
C496 N499 1.301 . S
C496 N500 1.328 . S
C496 H501 0.930 . S
C497 C498 1.333 . S
C497 N499 1.317 . S
C497 H502 0.930 . S
C498 C497 1.333 . S
C498 N500 1.350 . S
C498 H524 0.931 . S
N499 Co495 2.148 . S
N499 C496 1.301 . S
N499 C497 1.317 . S
N500 C496 1.328 . S
N500 C498 1.350 . S
H501 C496 0.930 . S
H502 C497 0.930 . S
C503 O504 1.224 . S
C503 O522 1.247 . S
O504 C503 1.224 . S
N505 Co495 2.128 . S
N505 C506 1.355 . S
N505 C508 1.311 . S
C506 N505 1.355 . S
C506 C507 1.363 . S
C506 H518 0.929 . S
C507 C506 1.363 . S
C507 N509 1.375 . S
C507 H525 0.931 . S
C508 N505 1.311 . S
C508 N509 1.347 . S
C508 H519 0.929 . S
N509 C507 1.375 . S
N509 C508 1.347 . S
C510 C513 1.365 . S
C510 N515 1.328 . S
C510 H516 0.929 . S
C511 C512 1.362 . S
C511 C514 1.378 . S
C511 H526 0.929 . S
C512 C511 1.362 . S
C512 C513 1.366 . S
C513 C510 1.365 . S
C513 C512 1.366 . S
C513 H527 0.930 . S
C514 C511 1.378 . S
C514 N515 1.315 . S
C514 H517 0.930 . S
N515 Co495 2.194 . S
N515 C510 1.328 . S
N515 C514 1.315 . S
H516 C510 0.929 . S
H517 C514 0.930 . S
H518 C506 0.929 . S
H519 C508 0.929 . S
O520 Co495 2.351 . S
O520 C523 1.244 . S
O521 Co495 2.155 . S
O521 C523 1.240 . S
O522 Co495 2.096 . S
O522 C503 1.247 . S
C523 O520 1.244 . S
C523 O521 1.240 . S
H524 C498 0.931 . S
H525 C507 0.931 . S
H526 C511 0.929 . S
H527 C513 0.930 . S
Co528 N532 2.148 . S
Co528 N538 2.128 . S
Co528 N548 2.194 . S
Co528 O553 2.351 . S
Co528 O554 2.155 . S
Co528 O555 2.096 . S
C529 N532 1.301 . S
C529 N533 1.328 . S
C529 H534 0.930 . S
C530 C531 1.333 . S
C530 N532 1.317 . S
C530 H535 0.930 . S
C531 C530 1.333 . S
C531 N533 1.350 . S
C531 H557 0.931 . S
N532 Co528 2.148 . S
N532 C529 1.301 . S
N532 C530 1.317 . S
N533 C529 1.328 . S
N533 C531 1.350 . S
H534 C529 0.930 . S
H535 C530 0.930 . S
C536 O537 1.224 . S
C536 O555 1.247 . S
O537 C536 1.224 . S
N538 Co528 2.128 . S
N538 C539 1.355 . S
N538 C541 1.311 . S
C539 N538 1.355 . S
C539 C540 1.363 . S
C539 H551 0.929 . S
C540 C539 1.363 . S
C540 N542 1.375 . S
C540 H558 0.931 . S
C541 N538 1.311 . S
C541 N542 1.347 . S
C541 H552 0.929 . S
N542 C540 1.375 . S
N542 C541 1.347 . S
C543 C546 1.365 . S
C543 N548 1.328 . S
C543 H549 0.929 . S
C544 C545 1.362 . S
C544 C547 1.378 . S
C544 H559 0.929 . S
C545 C544 1.362 . S
C545 C546 1.366 . S
C546 C543 1.365 . S
C546 C545 1.366 . S
C546 H560 0.930 . S
C547 C544 1.378 . S
C547 N548 1.315 . S
C547 H550 0.930 . S
N548 Co528 2.194 . S
N548 C543 1.328 . S
N548 C547 1.315 . S
H549 C543 0.929 . S
H550 C547 0.930 . S
H551 C539 0.929 . S
H552 C541 0.929 . S
O553 Co528 2.351 . S
O553 C556 1.244 . S
O554 Co528 2.155 . S
O554 C556 1.240 . S
O555 Co528 2.096 . S
O555 C536 1.247 . S
C556 O553 1.244 . S
C556 O554 1.240 . S
H557 C531 0.931 . S
H558 C540 0.931 . S
H559 C544 0.929 . S
H560 C546 0.930 . S
Co561 N565 2.148 . S
Co561 N571 2.128 . S
Co561 N581 2.194 . S
Co561 O586 2.351 . S
Co561 O587 2.155 . S
Co561 O588 2.096 . S
C562 N565 1.301 . S
C562 N566 1.328 . S
C562 H567 0.930 . S
C563 C564 1.333 . S
C563 N565 1.317 . S
C563 H568 0.930 . S
C564 C563 1.333 . S
C564 N566 1.350 . S
C564 H590 0.931 . S
N565 Co561 2.148 . S
N565 C562 1.301 . S
N565 C563 1.317 . S
N566 C562 1.328 . S
N566 C564 1.350 . S
H567 C562 0.930 . S
H568 C563 0.930 . S
C569 O570 1.224 . S
C569 O588 1.247 . S
O570 C569 1.224 . S
N571 Co561 2.128 . S
N571 C572 1.355 . S
N571 C574 1.311 . S
C572 N571 1.355 . S
C572 C573 1.363 . S
C572 H584 0.929 . S
C573 C572 1.363 . S
C573 N575 1.375 . S
C573 H591 0.931 . S
C574 N571 1.311 . S
C574 N575 1.347 . S
C574 H585 0.929 . S
N575 C573 1.375 . S
N575 C574 1.347 . S
C576 C579 1.365 . S
C576 N581 1.328 . S
C576 H582 0.929 . S
C577 C578 1.362 . S
C577 C580 1.378 . S
C577 H592 0.929 . S
C578 C577 1.362 . S
C578 C579 1.366 . S
C579 C576 1.365 . S
C579 C578 1.366 . S
C579 H593 0.930 . S
C580 C577 1.378 . S
C580 N581 1.315 . S
C580 H583 0.930 . S
N581 Co561 2.194 . S
N581 C576 1.328 . S
N581 C580 1.315 . S
H582 C576 0.929 . S
H583 C580 0.930 . S
H584 C572 0.929 . S
H585 C574 0.929 . S
O586 Co561 2.351 . S
O586 C589 1.244 . S
O587 Co561 2.155 . S
O587 C589 1.240 . S
O588 Co561 2.096 . S
O588 C569 1.247 . S
C589 O586 1.244 . S
C589 O587 1.240 . S
H590 C564 0.931 . S
H591 C573 0.931 . S
H592 C577 0.929 . S
H593 C579 0.930 . S
Co594 N598 2.148 . S
Co594 N604 2.128 . S
Co594 N614 2.194 . S
Co594 O619 2.351 . S
Co594 O620 2.155 . S
Co594 O621 2.096 . S
C595 N598 1.301 . S
C595 N599 1.328 . S
C595 H600 0.930 . S
C596 C597 1.333 . S
C596 N598 1.317 . S
C596 H601 0.930 . S
C597 C596 1.333 . S
C597 N599 1.350 . S
C597 H623 0.931 . S
N598 Co594 2.148 . S
N598 C595 1.301 . S
N598 C596 1.317 . S
N599 C595 1.328 . S
N599 C597 1.350 . S
H600 C595 0.930 . S
H601 C596 0.930 . S
C602 O603 1.224 . S
C602 O621 1.247 . S
O603 C602 1.224 . S
N604 Co594 2.128 . S
N604 C605 1.355 . S
N604 C607 1.311 . S
C605 N604 1.355 . S
C605 C606 1.363 . S
C605 H617 0.929 . S
C606 C605 1.363 . S
C606 N608 1.375 . S
C606 H624 0.931 . S
C607 N604 1.311 . S
C607 N608 1.347 . S
C607 H618 0.929 . S
N608 C606 1.375 . S
N608 C607 1.347 . S
C609 C612 1.365 . S
C609 N614 1.328 . S
C609 H615 0.929 . S
C610 C611 1.362 . S
C610 C613 1.378 . S
C610 H625 0.929 . S
C611 C610 1.362 . S
C611 C612 1.366 . S
C612 C609 1.365 . S
C612 C611 1.366 . S
C612 H626 0.930 . S
C613 C610 1.378 . S
C613 N614 1.315 . S
C613 H616 0.930 . S
N614 Co594 2.194 . S
N614 C609 1.328 . S
N614 C613 1.315 . S
H615 C609 0.929 . S
H616 C613 0.930 . S
H617 C605 0.929 . S
H618 C607 0.929 . S
O619 Co594 2.351 . S
O619 C622 1.244 . S
O620 Co594 2.155 . S
O620 C622 1.240 . S
O621 Co594 2.096 . S
O621 C602 1.247 . S
C622 O619 1.244 . S
C622 O620 1.240 . S
H623 C597 0.931 . S
H624 C606 0.931 . S
H625 C610 0.929 . S
H626 C612 0.930 . S
Co627 N631 2.148 . S
Co627 N637 2.128 . S
Co627 N647 2.194 . S
Co627 O652 2.351 . S
Co627 O653 2.155 . S
Co627 O654 2.096 . S
C628 N631 1.301 . S
C628 N632 1.328 . S
C628 H633 0.930 . S
C629 C630 1.333 . S
C629 N631 1.317 . S
C629 H634 0.930 . S
C630 C629 1.333 . S
C630 N632 1.350 . S
C630 H656 0.931 . S
N631 Co627 2.148 . S
N631 C628 1.301 . S
N631 C629 1.317 . S
N632 C628 1.328 . S
N632 C630 1.350 . S
H633 C628 0.930 . S
H634 C629 0.930 . S
C635 O636 1.224 . S
C635 O654 1.247 . S
O636 C635 1.224 . S
N637 Co627 2.128 . S
N637 C638 1.355 . S
N637 C640 1.311 . S
C638 N637 1.355 . S
C638 C639 1.363 . S
C638 H650 0.929 . S
C639 C638 1.363 . S
C639 N641 1.375 . S
C639 H657 0.931 . S
C640 N637 1.311 . S
C640 N641 1.347 . S
C640 H651 0.929 . S
N641 C639 1.375 . S
N641 C640 1.347 . S
C642 C645 1.365 . S
C642 N647 1.328 . S
C642 H648 0.929 . S
C643 C644 1.362 . S
C643 C646 1.378 . S
C643 H658 0.929 . S
C644 C643 1.362 . S
C644 C645 1.366 . S
C645 C642 1.365 . S
C645 C644 1.366 . S
C645 H659 0.930 . S
C646 C643 1.378 . S
C646 N647 1.315 . S
C646 H649 0.930 . S
N647 Co627 2.194 . S
N647 C642 1.328 . S
N647 C646 1.315 . S
H648 C642 0.929 . S
H649 C646 0.930 . S
H650 C638 0.929 . S
H651 C640 0.929 . S
O652 Co627 2.351 . S
O652 C655 1.244 . S
O653 Co627 2.155 . S
O653 C655 1.240 . S
O654 Co627 2.096 . S
O654 C635 1.247 . S
C655 O652 1.244 . S
C655 O653 1.240 . S
H656 C630 0.931 . S
H657 C639 0.931 . S
H658 C643 0.929 . S
H659 C645 0.930 . S
Co660 N664 2.148 . S
Co660 N670 2.128 . S
Co660 N680 2.194 . S
Co660 O685 2.351 . S
Co660 O686 2.155 . S
Co660 O687 2.096 . S
C661 N664 1.301 . S
C661 N665 1.328 . S
C661 H666 0.930 . S
C662 C663 1.333 . S
C662 N664 1.317 . S
C662 H667 0.930 . S
C663 C662 1.333 . S
C663 N665 1.350 . S
C663 H689 0.931 . S
N664 Co660 2.148 . S
N664 C661 1.301 . S
N664 C662 1.317 . S
N665 C661 1.328 . S
N665 C663 1.350 . S
H666 C661 0.930 . S
H667 C662 0.930 . S
C668 O669 1.224 . S
C668 O687 1.247 . S
O669 C668 1.224 . S
N670 Co660 2.128 . S
N670 C671 1.355 . S
N670 C673 1.311 . S
C671 N670 1.355 . S
C671 C672 1.363 . S
C671 H683 0.929 . S
C672 C671 1.363 . S
C672 N674 1.375 . S
C672 H690 0.931 . S
C673 N670 1.311 . S
C673 N674 1.347 . S
C673 H684 0.929 . S
N674 C672 1.375 . S
N674 C673 1.347 . S
C675 C678 1.365 . S
C675 N680 1.328 . S
C675 H681 0.929 . S
C676 C677 1.362 . S
C676 C679 1.378 . S
C676 H691 0.929 . S
C677 C676 1.362 . S
C677 C678 1.366 . S
C678 C675 1.365 . S
C678 C677 1.366 . S
C678 H692 0.930 . S
C679 C676 1.378 . S
C679 N680 1.315 . S
C679 H682 0.930 . S
N680 Co660 2.194 . S
N680 C675 1.328 . S
N680 C679 1.315 . S
H681 C675 0.929 . S
H682 C679 0.930 . S
H683 C671 0.929 . S
H684 C673 0.929 . S
O685 Co660 2.351 . S
O685 C688 1.244 . S
O686 Co660 2.155 . S
O686 C688 1.240 . S
O687 Co660 2.096 . S
O687 C668 1.247 . S
C688 O685 1.244 . S
C688 O686 1.240 . S
H689 C663 0.931 . S
H690 C672 0.931 . S
H691 C676 0.929 . S
H692 C678 0.930 . S
Co693 N697 2.148 . S
Co693 N703 2.128 . S
Co693 N713 2.194 . S
Co693 O718 2.351 . S
Co693 O719 2.155 . S
Co693 O720 2.096 . S
C694 N697 1.301 . S
C694 N698 1.328 . S
C694 H699 0.930 . S
C695 C696 1.333 . S
C695 N697 1.317 . S
C695 H700 0.930 . S
C696 C695 1.333 . S
C696 N698 1.350 . S
C696 H722 0.931 . S
N697 Co693 2.148 . S
N697 C694 1.301 . S
N697 C695 1.317 . S
N698 C694 1.328 . S
N698 C696 1.350 . S
H699 C694 0.930 . S
H700 C695 0.930 . S
C701 O702 1.224 . S
C701 O720 1.247 . S
O702 C701 1.224 . S
N703 Co693 2.128 . S
N703 C704 1.355 . S
N703 C706 1.311 . S
C704 N703 1.355 . S
C704 C705 1.363 . S
C704 H716 0.929 . S
C705 C704 1.363 . S
C705 N707 1.375 . S
C705 H723 0.931 . S
C706 N703 1.311 . S
C706 N707 1.347 . S
C706 H717 0.929 . S
N707 C705 1.375 . S
N707 C706 1.347 . S
C708 C711 1.365 . S
C708 N713 1.328 . S
C708 H714 0.929 . S
C709 C710 1.362 . S
C709 C712 1.378 . S
C709 H724 0.929 . S
C710 C709 1.362 . S
C710 C711 1.366 . S
C711 C708 1.365 . S
C711 C710 1.366 . S
C711 H725 0.930 . S
C712 C709 1.378 . S
C712 N713 1.315 . S
C712 H715 0.930 . S
N713 Co693 2.194 . S
N713 C708 1.328 . S
N713 C712 1.315 . S
H714 C708 0.929 . S
H715 C712 0.930 . S
H716 C704 0.929 . S
H717 C706 0.929 . S
O718 Co693 2.351 . S
O718 C721 1.244 . S
O719 Co693 2.155 . S
O719 C721 1.240 . S
O720 Co693 2.096 . S
O720 C701 1.247 . S
C721 O718 1.244 . S
C721 O719 1.240 . S
H722 C696 0.931 . S
H723 C705 0.931 . S
H724 C709 0.929 . S
H725 C711 0.930 . S
Co726 N730 2.148 . S
Co726 N736 2.128 . S
Co726 N746 2.194 . S
Co726 O751 2.351 . S
Co726 O752 2.155 . S
Co726 O753 2.096 . S
C727 N730 1.301 . S
C727 N731 1.328 . S
C727 H732 0.930 . S
C728 C729 1.333 . S
C728 N730 1.317 . S
C728 H733 0.930 . S
C729 C728 1.333 . S
C729 N731 1.350 . S
C729 H755 0.931 . S
N730 Co726 2.148 . S
N730 C727 1.301 . S
N730 C728 1.317 . S
N731 C727 1.328 . S
N731 C729 1.350 . S
H732 C727 0.930 . S
H733 C728 0.930 . S
C734 O735 1.224 . S
C734 O753 1.247 . S
O735 C734 1.224 . S
N736 Co726 2.128 . S
N736 C737 1.355 . S
N736 C739 1.311 . S
C737 N736 1.355 . S
C737 C738 1.363 . S
C737 H749 0.929 . S
C738 C737 1.363 . S
C738 N740 1.375 . S
C738 H756 0.931 . S
C739 N736 1.311 . S
C739 N740 1.347 . S
C739 H750 0.929 . S
N740 C738 1.375 . S
N740 C739 1.347 . S
C741 C744 1.365 . S
C741 N746 1.328 . S
C741 H747 0.929 . S
C742 C743 1.362 . S
C742 C745 1.378 . S
C742 H757 0.929 . S
C743 C742 1.362 . S
C743 C744 1.366 . S
C744 C741 1.365 . S
C744 C743 1.366 . S
C744 H758 0.930 . S
C745 C742 1.378 . S
C745 N746 1.315 . S
C745 H748 0.930 . S
N746 Co726 2.194 . S
N746 C741 1.328 . S
N746 C745 1.315 . S
H747 C741 0.929 . S
H748 C745 0.930 . S
H749 C737 0.929 . S
H750 C739 0.929 . S
O751 Co726 2.351 . S
O751 C754 1.244 . S
O752 Co726 2.155 . S
O752 C754 1.240 . S
O753 Co726 2.096 . S
O753 C734 1.247 . S
C754 O751 1.244 . S
C754 O752 1.240 . S
H755 C729 0.931 . S
H756 C738 0.931 . S
H757 C742 0.929 . S
H758 C744 0.930 . S
Co759 N763 2.148 . S
Co759 N769 2.128 . S
Co759 N779 2.194 . S
Co759 O784 2.351 . S
Co759 O785 2.155 . S
Co759 O786 2.096 . S
C760 N763 1.301 . S
C760 N764 1.328 . S
C760 H765 0.930 . S
C761 C762 1.333 . S
C761 N763 1.317 . S
C761 H766 0.930 . S
C762 C761 1.333 . S
C762 N764 1.350 . S
C762 H788 0.931 . S
N763 Co759 2.148 . S
N763 C760 1.301 . S
N763 C761 1.317 . S
N764 C760 1.328 . S
N764 C762 1.350 . S
H765 C760 0.930 . S
H766 C761 0.930 . S
C767 O768 1.224 . S
C767 O786 1.247 . S
O768 C767 1.224 . S
N769 Co759 2.128 . S
N769 C770 1.355 . S
N769 C772 1.311 . S
C770 N769 1.355 . S
C770 C771 1.363 . S
C770 H782 0.929 . S
C771 C770 1.363 . S
C771 N773 1.375 . S
C771 H789 0.931 . S
C772 N769 1.311 . S
C772 N773 1.347 . S
C772 H783 0.929 . S
N773 C771 1.375 . S
N773 C772 1.347 . S
C774 C777 1.365 . S
C774 N779 1.328 . S
C774 H780 0.929 . S
C775 C776 1.362 . S
C775 C778 1.378 . S
C775 H790 0.929 . S
C776 C775 1.362 . S
C776 C777 1.366 . S
C777 C774 1.365 . S
C777 C776 1.366 . S
C777 H791 0.930 . S
C778 C775 1.378 . S
C778 N779 1.315 . S
C778 H781 0.930 . S
N779 Co759 2.194 . S
N779 C774 1.328 . S
N779 C778 1.315 . S
H780 C774 0.929 . S
H781 C778 0.930 . S
H782 C770 0.929 . S
H783 C772 0.929 . S
O784 Co759 2.351 . S
O784 C787 1.244 . S
O785 Co759 2.155 . S
O785 C787 1.240 . S
O786 Co759 2.096 . S
O786 C767 1.247 . S
C787 O784 1.244 . S
C787 O785 1.240 . S
H788 C762 0.931 . S
H789 C771 0.931 . S
H790 C775 0.929 . S
H791 C777 0.930 . S
Co792 N796 2.148 . S
Co792 N802 2.128 . S
Co792 N812 2.194 . S
Co792 O817 2.351 . S
Co792 O818 2.155 . S
Co792 O819 2.096 . S
C793 N796 1.301 . S
C793 N797 1.328 . S
C793 H798 0.930 . S
C794 C795 1.333 . S
C794 N796 1.317 . S
C794 H799 0.930 . S
C795 C794 1.333 . S
C795 N797 1.350 . S
C795 H821 0.931 . S
N796 Co792 2.148 . S
N796 C793 1.301 . S
N796 C794 1.317 . S
N797 C793 1.328 . S
N797 C795 1.350 . S
H798 C793 0.930 . S
H799 C794 0.930 . S
C800 O801 1.224 . S
C800 O819 1.247 . S
O801 C800 1.224 . S
N802 Co792 2.128 . S
N802 C803 1.355 . S
N802 C805 1.311 . S
C803 N802 1.355 . S
C803 C804 1.363 . S
C803 H815 0.929 . S
C804 C803 1.363 . S
C804 N806 1.375 . S
C804 H822 0.931 . S
C805 N802 1.311 . S
C805 N806 1.347 . S
C805 H816 0.929 . S
N806 C804 1.375 . S
N806 C805 1.347 . S
C807 C810 1.365 . S
C807 N812 1.328 . S
C807 H813 0.929 . S
C808 C809 1.362 . S
C808 C811 1.378 . S
C808 H823 0.929 . S
C809 C808 1.362 . S
C809 C810 1.366 . S
C810 C807 1.365 . S
C810 C809 1.366 . S
C810 H824 0.930 . S
C811 C808 1.378 . S
C811 N812 1.315 . S
C811 H814 0.930 . S
N812 Co792 2.194 . S
N812 C807 1.328 . S
N812 C811 1.315 . S
H813 C807 0.929 . S
H814 C811 0.930 . S
H815 C803 0.929 . S
H816 C805 0.929 . S
O817 Co792 2.351 . S
O817 C820 1.244 . S
O818 Co792 2.155 . S
O818 C820 1.240 . S
O819 Co792 2.096 . S
O819 C800 1.247 . S
C820 O817 1.244 . S
C820 O818 1.240 . S
H821 C795 0.931 . S
H822 C804 0.931 . S
H823 C808 0.929 . S
H824 C810 0.930 . S
Co825 N829 2.148 . S
Co825 N835 2.128 . S
Co825 N845 2.194 . S
Co825 O850 2.351 . S
Co825 O851 2.155 . S
Co825 O852 2.096 . S
C826 N829 1.301 . S
C826 N830 1.328 . S
C826 H831 0.930 . S
C827 C828 1.333 . S
C827 N829 1.317 . S
C827 H832 0.930 . S
C828 C827 1.333 . S
C828 N830 1.350 . S
C828 H854 0.931 . S
N829 Co825 2.148 . S
N829 C826 1.301 . S
N829 C827 1.317 . S
N830 C826 1.328 . S
N830 C828 1.350 . S
H831 C826 0.930 . S
H832 C827 0.930 . S
C833 O834 1.224 . S
C833 O852 1.247 . S
O834 C833 1.224 . S
N835 Co825 2.128 . S
N835 C836 1.355 . S
N835 C838 1.311 . S
C836 N835 1.355 . S
C836 C837 1.363 . S
C836 H848 0.929 . S
C837 C836 1.363 . S
C837 N839 1.375 . S
C837 H855 0.931 . S
C838 N835 1.311 . S
C838 N839 1.347 . S
C838 H849 0.929 . S
N839 C837 1.375 . S
N839 C838 1.347 . S
C840 C843 1.365 . S
C840 N845 1.328 . S
C840 H846 0.929 . S
C841 C842 1.362 . S
C841 C844 1.378 . S
C841 H856 0.929 . S
C842 C841 1.362 . S
C842 C843 1.366 . S
C843 C840 1.365 . S
C843 C842 1.366 . S
C843 H857 0.930 . S
C844 C841 1.378 . S
C844 N845 1.315 . S
C844 H847 0.930 . S
N845 Co825 2.194 . S
N845 C840 1.328 . S
N845 C844 1.315 . S
H846 C840 0.929 . S
H847 C844 0.930 . S
H848 C836 0.929 . S
H849 C838 0.929 . S
O850 Co825 2.351 . S
O850 C853 1.244 . S
O851 Co825 2.155 . S
O851 C853 1.240 . S
O852 Co825 2.096 . S
O852 C833 1.247 . S
C853 O850 1.244 . S
C853 O851 1.240 . S
H854 C828 0.931 . S
H855 C837 0.931 . S
H856 C841 0.929 . S
H857 C843 0.930 . S
Co858 N862 2.148 . S
Co858 N868 2.128 . S
Co858 N878 2.194 . S
Co858 O883 2.351 . S
Co858 O884 2.155 . S
Co858 O885 2.096 . S
C859 N862 1.301 . S
C859 N863 1.328 . S
C859 H864 0.930 . S
C860 C861 1.333 . S
C860 N862 1.317 . S
C860 H865 0.930 . S
C861 C860 1.333 . S
C861 N863 1.350 . S
C861 H887 0.931 . S
N862 Co858 2.148 . S
N862 C859 1.301 . S
N862 C860 1.317 . S
N863 C859 1.328 . S
N863 C861 1.350 . S
H864 C859 0.930 . S
H865 C860 0.930 . S
C866 O867 1.224 . S
C866 O885 1.247 . S
O867 C866 1.224 . S
N868 Co858 2.128 . S
N868 C869 1.355 . S
N868 C871 1.311 . S
C869 N868 1.355 . S
C869 C870 1.363 . S
C869 H881 0.929 . S
C870 C869 1.363 . S
C870 N872 1.375 . S
C870 H888 0.931 . S
C871 N868 1.311 . S
C871 N872 1.347 . S
C871 H882 0.929 . S
N872 C870 1.375 . S
N872 C871 1.347 . S
C873 C876 1.365 . S
C873 N878 1.328 . S
C873 H879 0.929 . S
C874 C875 1.362 . S
C874 C877 1.378 . S
C874 H889 0.929 . S
C875 C874 1.362 . S
C875 C876 1.366 . S
C876 C873 1.365 . S
C876 C875 1.366 . S
C876 H890 0.930 . S
C877 C874 1.378 . S
C877 N878 1.315 . S
C877 H880 0.930 . S
N878 Co858 2.194 . S
N878 C873 1.328 . S
N878 C877 1.315 . S
H879 C873 0.929 . S
H880 C877 0.930 . S
H881 C869 0.929 . S
H882 C871 0.929 . S
O883 Co858 2.351 . S
O883 C886 1.244 . S
O884 Co858 2.155 . S
O884 C886 1.240 . S
O885 Co858 2.096 . S
O885 C866 1.247 . S
C886 O883 1.244 . S
C886 O884 1.240 . S
H887 C861 0.931 . S
H888 C870 0.931 . S
H889 C874 0.929 . S
H890 C876 0.930 . S
Co891 N895 2.148 . S
Co891 N901 2.128 . S
Co891 N911 2.194 . S
Co891 O916 2.351 . S
Co891 O917 2.155 . S
Co891 O918 2.096 . S
C892 N895 1.301 . S
C892 N896 1.328 . S
C892 H897 0.930 . S
C893 C894 1.333 . S
C893 N895 1.317 . S
C893 H898 0.930 . S
C894 C893 1.333 . S
C894 N896 1.350 . S
C894 H920 0.931 . S
N895 Co891 2.148 . S
N895 C892 1.301 . S
N895 C893 1.317 . S
N896 C892 1.328 . S
N896 C894 1.350 . S
H897 C892 0.930 . S
H898 C893 0.930 . S
C899 O900 1.224 . S
C899 O918 1.247 . S
O900 C899 1.224 . S
N901 Co891 2.128 . S
N901 C902 1.355 . S
N901 C904 1.311 . S
C902 N901 1.355 . S
C902 C903 1.363 . S
C902 H914 0.929 . S
C903 C902 1.363 . S
C903 N905 1.375 . S
C903 H921 0.931 . S
C904 N901 1.311 . S
C904 N905 1.347 . S
C904 H915 0.929 . S
N905 C903 1.375 . S
N905 C904 1.347 . S
C906 C909 1.365 . S
C906 N911 1.328 . S
C906 H912 0.929 . S
C907 C908 1.362 . S
C907 C910 1.378 . S
C907 H922 0.929 . S
C908 C907 1.362 . S
C908 C909 1.366 . S
C909 C906 1.365 . S
C909 C908 1.366 . S
C909 H923 0.930 . S
C910 C907 1.378 . S
C910 N911 1.315 . S
C910 H913 0.930 . S
N911 Co891 2.194 . S
N911 C906 1.328 . S
N911 C910 1.315 . S
H912 C906 0.929 . S
H913 C910 0.930 . S
H914 C902 0.929 . S
H915 C904 0.929 . S
O916 Co891 2.351 . S
O916 C919 1.244 . S
O917 Co891 2.155 . S
O917 C919 1.240 . S
O918 Co891 2.096 . S
O918 C899 1.247 . S
C919 O916 1.244 . S
C919 O917 1.240 . S
H920 C894 0.931 . S
H921 C903 0.931 . S
H922 C907 0.929 . S
H923 C909 0.930 . S
Co924 N928 2.148 . S
Co924 N934 2.128 . S
Co924 N944 2.194 . S
Co924 O949 2.351 . S
Co924 O950 2.155 . S
Co924 O951 2.096 . S
C925 N928 1.301 . S
C925 N929 1.328 . S
C925 H930 0.930 . S
C926 C927 1.333 . S
C926 N928 1.317 . S
C926 H931 0.930 . S
C927 C926 1.333 . S
C927 N929 1.350 . S
C927 H953 0.931 . S
N928 Co924 2.148 . S
N928 C925 1.301 . S
N928 C926 1.317 . S
N929 C925 1.328 . S
N929 C927 1.350 . S
H930 C925 0.930 . S
H931 C926 0.930 . S
C932 O933 1.224 . S
C932 O951 1.247 . S
O933 C932 1.224 . S
N934 Co924 2.128 . S
N934 C935 1.355 . S
N934 C937 1.311 . S
C935 N934 1.355 . S
C935 C936 1.363 . S
C935 H947 0.929 . S
C936 C935 1.363 . S
C936 N938 1.375 . S
C936 H954 0.931 . S
C937 N934 1.311 . S
C937 N938 1.347 . S
C937 H948 0.929 . S
N938 C936 1.375 . S
N938 C937 1.347 . S
C939 C942 1.365 . S
C939 N944 1.328 . S
C939 H945 0.929 . S
C940 C941 1.362 . S
C940 C943 1.378 . S
C940 H955 0.929 . S
C941 C940 1.362 . S
C941 C942 1.366 . S
C942 C939 1.365 . S
C942 C941 1.366 . S
C942 H956 0.930 . S
C943 C940 1.378 . S
C943 N944 1.315 . S
C943 H946 0.930 . S
N944 Co924 2.194 . S
N944 C939 1.328 . S
N944 C943 1.315 . S
H945 C939 0.929 . S
H946 C943 0.930 . S
H947 C935 0.929 . S
H948 C937 0.929 . S
O949 Co924 2.351 . S
O949 C952 1.244 . S
O950 Co924 2.155 . S
O950 C952 1.240 . S
O951 Co924 2.096 . S
O951 C932 1.247 . S
C952 O949 1.244 . S
C952 O950 1.240 . S
H953 C927 0.931 . S
H954 C936 0.931 . S
H955 C940 0.929 . S
H956 C942 0.930 . S
Co957 N961 2.148 . S
Co957 N967 2.128 . S
Co957 N977 2.194 . S
Co957 O982 2.351 . S
Co957 O983 2.155 . S
Co957 O984 2.096 . S
C958 N961 1.301 . S
C958 N962 1.328 . S
C958 H963 0.930 . S
C959 C960 1.333 . S
C959 N961 1.317 . S
C959 H964 0.930 . S
C960 C959 1.333 . S
C960 N962 1.350 . S
C960 H986 0.931 . S
N961 Co957 2.148 . S
N961 C958 1.301 . S
N961 C959 1.317 . S
N962 C958 1.328 . S
N962 C960 1.350 . S
H963 C958 0.930 . S
H964 C959 0.930 . S
C965 O966 1.224 . S
C965 O984 1.247 . S
O966 C965 1.224 . S
N967 Co957 2.128 . S
N967 C968 1.355 . S
N967 C970 1.311 . S
C968 N967 1.355 . S
C968 C969 1.363 . S
C968 H980 0.929 . S
C969 C968 1.363 . S
C969 N971 1.375 . S
C969 H987 0.931 . S
C970 N967 1.311 . S
C970 N971 1.347 . S
C970 H981 0.929 . S
N971 C969 1.375 . S
N971 C970 1.347 . S
C972 C975 1.365 . S
C972 N977 1.328 . S
C972 H978 0.929 . S
C973 C974 1.362 . S
C973 C976 1.378 . S
C973 H988 0.929 . S
C974 C973 1.362 . S
C974 C975 1.366 . S
C975 C972 1.365 . S
C975 C974 1.366 . S
C975 H989 0.930 . S
C976 C973 1.378 . S
C976 N977 1.315 . S
C976 H979 0.930 . S
N977 Co957 2.194 . S
N977 C972 1.328 . S
N977 C976 1.315 . S
H978 C972 0.929 . S
H979 C976 0.930 . S
H980 C968 0.929 . S
H981 C970 0.929 . S
O982 Co957 2.351 . S
O982 C985 1.244 . S
O983 Co957 2.155 . S
O983 C985 1.240 . S
O984 Co957 2.096 . S
O984 C965 1.247 . S
C985 O982 1.244 . S
C985 O983 1.240 . S
H986 C960 0.931 . S
H987 C969 0.931 . S
H988 C973 0.929 . S
H989 C975 0.930 . S
Co990 N994 2.148 . S
Co990 N1000 2.128 . S
Co990 N1010 2.194 . S
Co990 O1015 2.351 . S
Co990 O1016 2.155 . S
Co990 O1017 2.096 . S
C991 N994 1.301 . S
C991 N995 1.328 . S
C991 H996 0.930 . S
C992 C993 1.333 . S
C992 N994 1.317 . S
C992 H997 0.930 . S
C993 C992 1.333 . S
C993 N995 1.350 . S
C993 H1019 0.931 . S
N994 Co990 2.148 . S
N994 C991 1.301 . S
N994 C992 1.317 . S
N995 C991 1.328 . S
N995 C993 1.350 . S
H996 C991 0.930 . S
H997 C992 0.930 . S
C998 O999 1.224 . S
C998 O1017 1.247 . S
O999 C998 1.224 . S
N1000 Co990 2.128 . S
N1000 C1001 1.355 . S
N1000 C1003 1.311 . S
C1001 N1000 1.355 . S
C1001 C1002 1.363 . S
C1001 H1013 0.929 . S
C1002 C1001 1.363 . S
C1002 N1004 1.375 . S
C1002 H1020 0.931 . S
C1003 N1000 1.311 . S
C1003 N1004 1.347 . S
C1003 H1014 0.929 . S
N1004 C1002 1.375 . S
N1004 C1003 1.347 . S
C1005 C1008 1.365 . S
C1005 N1010 1.328 . S
C1005 H1011 0.929 . S
C1006 C1007 1.362 . S
C1006 C1009 1.378 . S
C1006 H1021 0.929 . S
C1007 C1006 1.362 . S
C1007 C1008 1.366 . S
C1008 C1005 1.365 . S
C1008 C1007 1.366 . S
C1008 H1022 0.930 . S
C1009 C1006 1.378 . S
C1009 N1010 1.315 . S
C1009 H1012 0.930 . S
N1010 Co990 2.194 . S
N1010 C1005 1.328 . S
N1010 C1009 1.315 . S
H1011 C1005 0.929 . S
H1012 C1009 0.930 . S
H1013 C1001 0.929 . S
H1014 C1003 0.929 . S
O1015 Co990 2.351 . S
O1015 C1018 1.244 . S
O1016 Co990 2.155 . S
O1016 C1018 1.240 . S
O1017 Co990 2.096 . S
O1017 C998 1.247 . S
C1018 O1015 1.244 . S
C1018 O1016 1.240 . S
H1019 C993 0.931 . S
H1020 C1002 0.931 . S
H1021 C1006 0.929 . S
H1022 C1008 0.930 . S
Co1023 N1027 2.148 . S
Co1023 N1033 2.128 . S
Co1023 N1043 2.194 . S
Co1023 O1048 2.351 . S
Co1023 O1049 2.155 . S
Co1023 O1050 2.096 . S
C1024 N1027 1.301 . S
C1024 N1028 1.328 . S
C1024 H1029 0.930 . S
C1025 C1026 1.333 . S
C1025 N1027 1.317 . S
C1025 H1030 0.930 . S
C1026 C1025 1.333 . S
C1026 N1028 1.350 . S
C1026 H1052 0.931 . S
N1027 Co1023 2.148 . S
N1027 C1024 1.301 . S
N1027 C1025 1.317 . S
N1028 C1024 1.328 . S
N1028 C1026 1.350 . S
H1029 C1024 0.930 . S
H1030 C1025 0.930 . S
C1031 O1032 1.224 . S
C1031 O1050 1.247 . S
O1032 C1031 1.224 . S
N1033 Co1023 2.128 . S
N1033 C1034 1.355 . S
N1033 C1036 1.311 . S
C1034 N1033 1.355 . S
C1034 C1035 1.363 . S
C1034 H1046 0.929 . S
C1035 C1034 1.363 . S
C1035 N1037 1.375 . S
C1035 H1053 0.931 . S
C1036 N1033 1.311 . S
C1036 N1037 1.347 . S
C1036 H1047 0.929 . S
N1037 C1035 1.375 . S
N1037 C1036 1.347 . S
C1038 C1041 1.365 . S
C1038 N1043 1.328 . S
C1038 H1044 0.929 . S
C1039 C1040 1.362 . S
C1039 C1042 1.378 . S
C1039 H1054 0.929 . S
C1040 C1039 1.362 . S
C1040 C1041 1.366 . S
C1041 C1038 1.365 . S
C1041 C1040 1.366 . S
C1041 H1055 0.930 . S
C1042 C1039 1.378 . S
C1042 N1043 1.315 . S
C1042 H1045 0.930 . S
N1043 Co1023 2.194 . S
N1043 C1038 1.328 . S
N1043 C1042 1.315 . S
H1044 C1038 0.929 . S
H1045 C1042 0.930 . S
H1046 C1034 0.929 . S
H1047 C1036 0.929 . S
O1048 Co1023 2.351 . S
O1048 C1051 1.244 . S
O1049 Co1023 2.155 . S
O1049 C1051 1.240 . S
O1050 Co1023 2.096 . S
O1050 C1031 1.247 . S
C1051 O1048 1.244 . S
C1051 O1049 1.240 . S
H1052 C1026 0.931 . S
H1053 C1035 0.931 . S
H1054 C1039 0.929 . S
H1055 C1041 0.930 . S
Co1056 N1060 2.148 . S
Co1056 N1066 2.128 . S
Co1056 N1076 2.194 . S
Co1056 O1081 2.351 . S
Co1056 O1082 2.155 . S
Co1056 O1083 2.096 . S
C1057 N1060 1.301 . S
C1057 N1061 1.328 . S
C1057 H1062 0.930 . S
C1058 C1059 1.333 . S
C1058 N1060 1.317 . S
C1058 H1063 0.930 . S
C1059 C1058 1.333 . S
C1059 N1061 1.350 . S
C1059 H1085 0.931 . S
N1060 Co1056 2.148 . S
N1060 C1057 1.301 . S
N1060 C1058 1.317 . S
N1061 C1057 1.328 . S
N1061 C1059 1.350 . S
H1062 C1057 0.930 . S
H1063 C1058 0.930 . S
C1064 O1065 1.224 . S
C1064 O1083 1.247 . S
O1065 C1064 1.224 . S
N1066 Co1056 2.128 . S
N1066 C1067 1.355 . S
N1066 C1069 1.311 . S
C1067 N1066 1.355 . S
C1067 C1068 1.363 . S
C1067 H1079 0.929 . S
C1068 C1067 1.363 . S
C1068 N1070 1.375 . S
C1068 H1086 0.931 . S
C1069 N1066 1.311 . S
C1069 N1070 1.347 . S
C1069 H1080 0.929 . S
N1070 C1068 1.375 . S
N1070 C1069 1.347 . S
C1071 C1074 1.365 . S
C1071 N1076 1.328 . S
C1071 H1077 0.929 . S
C1072 C1073 1.362 . S
C1072 C1075 1.378 . S
C1072 H1087 0.929 . S
C1073 C1072 1.362 . S
C1073 C1074 1.366 . S
C1074 C1071 1.365 . S
C1074 C1073 1.366 . S
C1074 H1088 0.930 . S
C1075 C1072 1.378 . S
C1075 N1076 1.315 . S
C1075 H1078 0.930 . S
N1076 Co1056 2.194 . S
N1076 C1071 1.328 . S
N1076 C1075 1.315 . S
H1077 C1071 0.929 . S
H1078 C1075 0.930 . S
H1079 C1067 0.929 . S
H1080 C1069 0.929 . S
O1081 Co1056 2.351 . S
O1081 C1084 1.244 . S
O1082 Co1056 2.155 . S
O1082 C1084 1.240 . S
O1083 Co1056 2.096 . S
O1083 C1064 1.247 . S
C1084 O1081 1.244 . S
C1084 O1082 1.240 . S
H1085 C1059 0.931 . S
H1086 C1068 0.931 . S
H1087 C1072 0.929 . S
H1088 C1074 0.930 . S
Co1089 N1093 2.148 . S
Co1089 N1099 2.128 . S
Co1089 N1109 2.194 . S
Co1089 O1114 2.351 . S
Co1089 O1115 2.155 . S
Co1089 O1116 2.096 . S
C1090 N1093 1.301 . S
C1090 N1094 1.328 . S
C1090 H1095 0.930 . S
C1091 C1092 1.333 . S
C1091 N1093 1.317 . S
C1091 H1096 0.930 . S
C1092 C1091 1.333 . S
C1092 N1094 1.350 . S
C1092 H1118 0.931 . S
N1093 Co1089 2.148 . S
N1093 C1090 1.301 . S
N1093 C1091 1.317 . S
N1094 C1090 1.328 . S
N1094 C1092 1.350 . S
H1095 C1090 0.930 . S
H1096 C1091 0.930 . S
C1097 O1098 1.224 . S
C1097 O1116 1.247 . S
O1098 C1097 1.224 . S
N1099 Co1089 2.128 . S
N1099 C1100 1.355 . S
N1099 C1102 1.311 . S
C1100 N1099 1.355 . S
C1100 C1101 1.363 . S
C1100 H1112 0.929 . S
C1101 C1100 1.363 . S
C1101 N1103 1.375 . S
C1101 H1119 0.931 . S
C1102 N1099 1.311 . S
C1102 N1103 1.347 . S
C1102 H1113 0.929 . S
N1103 C1101 1.375 . S
N1103 C1102 1.347 . S
C1104 C1107 1.365 . S
C1104 N1109 1.328 . S
C1104 H1110 0.929 . S
C1105 C1106 1.362 . S
C1105 C1108 1.378 . S
C1105 H1120 0.929 . S
C1106 C1105 1.362 . S
C1106 C1107 1.366 . S
C1107 C1104 1.365 . S
C1107 C1106 1.366 . S
C1107 H1121 0.930 . S
C1108 C1105 1.378 . S
C1108 N1109 1.315 . S
C1108 H1111 0.930 . S
N1109 Co1089 2.194 . S
N1109 C1104 1.328 . S
N1109 C1108 1.315 . S
H1110 C1104 0.929 . S
H1111 C1108 0.930 . S
H1112 C1100 0.929 . S
H1113 C1102 0.929 . S
O1114 Co1089 2.351 . S
O1114 C1117 1.244 . S
O1115 Co1089 2.155 . S
O1115 C1117 1.240 . S
O1116 Co1089 2.096 . S
O1116 C1097 1.247 . S
C1117 O1114 1.244 . S
C1117 O1115 1.240 . S
H1118 C1092 0.931 . S
H1119 C1101 0.931 . S
H1120 C1105 0.929 . S
H1121 C1107 0.930 . S
Co1122 N1126 2.148 . S
Co1122 N1132 2.128 . S
Co1122 N1142 2.194 . S
Co1122 O1147 2.351 . S
Co1122 O1148 2.155 . S
Co1122 O1149 2.096 . S
C1123 N1126 1.301 . S
C1123 N1127 1.328 . S
C1123 H1128 0.930 . S
C1124 C1125 1.333 . S
C1124 N1126 1.317 . S
C1124 H1129 0.930 . S
C1125 C1124 1.333 . S
C1125 N1127 1.350 . S
C1125 H1151 0.931 . S
N1126 Co1122 2.148 . S
N1126 C1123 1.301 . S
N1126 C1124 1.317 . S
N1127 C1123 1.328 . S
N1127 C1125 1.350 . S
H1128 C1123 0.930 . S
H1129 C1124 0.930 . S
C1130 O1131 1.224 . S
C1130 O1149 1.247 . S
O1131 C1130 1.224 . S
N1132 Co1122 2.128 . S
N1132 C1133 1.355 . S
N1132 C1135 1.311 . S
C1133 N1132 1.355 . S
C1133 C1134 1.363 . S
C1133 H1145 0.929 . S
C1134 C1133 1.363 . S
C1134 N1136 1.375 . S
C1134 H1152 0.931 . S
C1135 N1132 1.311 . S
C1135 N1136 1.347 . S
C1135 H1146 0.929 . S
N1136 C1134 1.375 . S
N1136 C1135 1.347 . S
C1137 C1140 1.365 . S
C1137 N1142 1.328 . S
C1137 H1143 0.929 . S
C1138 C1139 1.362 . S
C1138 C1141 1.378 . S
C1138 H1153 0.929 . S
C1139 C1138 1.362 . S
C1139 C1140 1.366 . S
C1140 C1137 1.365 . S
C1140 C1139 1.366 . S
C1140 H1154 0.930 . S
C1141 C1138 1.378 . S
C1141 N1142 1.315 . S
C1141 H1144 0.930 . S
N1142 Co1122 2.194 . S
N1142 C1137 1.328 . S
N1142 C1141 1.315 . S
H1143 C1137 0.929 . S
H1144 C1141 0.930 . S
H1145 C1133 0.929 . S
H1146 C1135 0.929 . S
O1147 Co1122 2.351 . S
O1147 C1150 1.244 . S
O1148 Co1122 2.155 . S
O1148 C1150 1.240 . S
O1149 Co1122 2.096 . S
O1149 C1130 1.247 . S
C1150 O1147 1.244 . S
C1150 O1148 1.240 . S
H1151 C1125 0.931 . S
H1152 C1134 0.931 . S
H1153 C1138 0.929 . S
H1154 C1140 0.930 . S
Co1155 N1159 2.148 . S
Co1155 N1165 2.128 . S
Co1155 N1175 2.194 . S
Co1155 O1180 2.351 . S
Co1155 O1181 2.155 . S
Co1155 O1182 2.096 . S
C1156 N1159 1.301 . S
C1156 N1160 1.328 . S
C1156 H1161 0.930 . S
C1157 C1158 1.333 . S
C1157 N1159 1.317 . S
C1157 H1162 0.930 . S
C1158 C1157 1.333 . S
C1158 N1160 1.350 . S
C1158 H1184 0.931 . S
N1159 Co1155 2.148 . S
N1159 C1156 1.301 . S
N1159 C1157 1.317 . S
N1160 C1156 1.328 . S
N1160 C1158 1.350 . S
H1161 C1156 0.930 . S
H1162 C1157 0.930 . S
C1163 O1164 1.224 . S
C1163 O1182 1.247 . S
O1164 C1163 1.224 . S
N1165 Co1155 2.128 . S
N1165 C1166 1.355 . S
N1165 C1168 1.311 . S
C1166 N1165 1.355 . S
C1166 C1167 1.363 . S
C1166 H1178 0.929 . S
C1167 C1166 1.363 . S
C1167 N1169 1.375 . S
C1167 H1185 0.931 . S
C1168 N1165 1.311 . S
C1168 N1169 1.347 . S
C1168 H1179 0.929 . S
N1169 C1167 1.375 . S
N1169 C1168 1.347 . S
C1170 C1173 1.365 . S
C1170 N1175 1.328 . S
C1170 H1176 0.929 . S
C1171 C1172 1.362 . S
C1171 C1174 1.378 . S
C1171 H1186 0.929 . S
C1172 C1171 1.362 . S
C1172 C1173 1.366 . S
C1173 C1170 1.365 . S
C1173 C1172 1.366 . S
C1173 H1187 0.930 . S
C1174 C1171 1.378 . S
C1174 N1175 1.315 . S
C1174 H1177 0.930 . S
N1175 Co1155 2.194 . S
N1175 C1170 1.328 . S
N1175 C1174 1.315 . S
H1176 C1170 0.929 . S
H1177 C1174 0.930 . S
H1178 C1166 0.929 . S
H1179 C1168 0.929 . S
O1180 Co1155 2.351 . S
O1180 C1183 1.244 . S
O1181 Co1155 2.155 . S
O1181 C1183 1.240 . S
O1182 Co1155 2.096 . S
O1182 C1163 1.247 . S
C1183 O1180 1.244 . S
C1183 O1181 1.240 . S
H1184 C1158 0.931 . S
H1185 C1167 0.931 . S
H1186 C1171 0.929 . S
H1187 C1173 0.930 . S
H1188 C1194 0.930 . S
H1189 C1198 0.930 . S
H1190 C1203 0.929 . S
H1191 C1201 0.929 . S
H1192 C1196 0.929 . S
H1193 C1202 0.929 . S
C1194 H1188 0.930 . S
C1194 C1195 1.367 . S
C1194 C1202 1.378 . S
C1195 C1194 1.367 . S
C1195 C1203 1.433 . S
C1196 H1192 0.929 . S
C1196 C1198 1.378 . S
C1196 C1200 1.350 . S
C1197 C1200 1.463 . S
C1197 C1202 1.350 . S
C1197 N1205 1.427 . S
C1198 H1189 0.930 . S
C1198 C1196 1.378 . S
C1198 C1199 1.367 . S
C1199 C1198 1.367 . S
C1199 C1201 1.433 . S
C1200 C1196 1.350 . S
C1200 C1197 1.463 . S
C1200 N1204 1.427 . S
C1201 H1191 0.929 . S
C1201 C1199 1.433 . S
C1201 N1204 1.384 . S
C1202 H1193 0.929 . S
C1202 C1194 1.378 . S
C1202 C1197 1.350 . S
C1203 H1190 0.929 . S
C1203 C1195 1.433 . S
C1203 N1205 1.384 . S
N1204 C1200 1.427 . S
N1204 C1201 1.384 . S
N1205 C1197 1.427 . S
N1205 C1203 1.384 . S
H1206 C1212 0.930 . S
H1207 C1216 0.930 . S
H1208 C1221 0.929 . S
H1209 C1219 0.929 . S
H1210 C1214 0.929 . S
H1211 C1220 0.929 . S
C1212 H1206 0.930 . S
C1212 C1213 1.367 . S
C1212 C1220 1.378 . S
C1213 C1212 1.367 . S
C1213 C1221 1.433 . S
C1214 H1210 0.929 . S
C1214 C1216 1.378 . S
C1214 C1218 1.350 . S
C1215 C1218 1.463 . S
C1215 C1220 1.350 . S
C1215 N1223 1.427 . S
C1216 H1207 0.930 . S
C1216 C1214 1.378 . S
C1216 C1217 1.367 . S
C1217 C1216 1.367 . S
C1217 C1219 1.433 . S
C1218 C1214 1.350 . S
C1218 C1215 1.463 . S
C1218 N1222 1.427 . S
C1219 H1209 0.929 . S
C1219 C1217 1.433 . S
C1219 N1222 1.384 . S
C1220 H1211 0.929 . S
C1220 C1212 1.378 . S
C1220 C1215 1.350 . S
C1221 H1208 0.929 . S
C1221 C1213 1.433 . S
C1221 N1223 1.384 . S
N1222 C1218 1.427 . S
N1222 C1219 1.384 . S
N1223 C1215 1.427 . S
N1223 C1221 1.384 . S
H1224 C1230 0.930 . S
H1225 C1234 0.930 . S
H1226 C1239 0.929 . S
H1227 C1237 0.929 . S
H1228 C1232 0.929 . S
H1229 C1238 0.929 . S
C1230 H1224 0.930 . S
C1230 C1231 1.367 . S
C1230 C1238 1.378 . S
C1231 C1230 1.367 . S
C1231 C1239 1.433 . S
C1232 H1228 0.929 . S
C1232 C1234 1.378 . S
C1232 C1236 1.350 . S
C1233 C1236 1.463 . S
C1233 C1238 1.350 . S
C1233 N1241 1.427 . S
C1234 H1225 0.930 . S
C1234 C1232 1.378 . S
C1234 C1235 1.367 . S
C1235 C1234 1.367 . S
C1235 C1237 1.433 . S
C1236 C1232 1.350 . S
C1236 C1233 1.463 . S
C1236 N1240 1.427 . S
C1237 H1227 0.929 . S
C1237 C1235 1.433 . S
C1237 N1240 1.384 . S
C1238 H1229 0.929 . S
C1238 C1230 1.378 . S
C1238 C1233 1.350 . S
C1239 H1226 0.929 . S
C1239 C1231 1.433 . S
C1239 N1241 1.384 . S
N1240 C1236 1.427 . S
N1240 C1237 1.384 . S
N1241 C1233 1.427 . S
N1241 C1239 1.384 . S
H1242 C1248 0.930 . S
H1243 C1252 0.930 . S
H1244 C1257 0.929 . S
H1245 C1255 0.929 . S
H1246 C1250 0.929 . S
H1247 C1256 0.929 . S
C1248 H1242 0.930 . S
C1248 C1249 1.367 . S
C1248 C1256 1.378 . S
C1249 C1248 1.367 . S
C1249 C1257 1.433 . S
C1250 H1246 0.929 . S
C1250 C1252 1.378 . S
C1250 C1254 1.350 . S
C1251 C1254 1.463 . S
C1251 C1256 1.350 . S
C1251 N1259 1.427 . S
C1252 H1243 0.930 . S
C1252 C1250 1.378 . S
C1252 C1253 1.367 . S
C1253 C1252 1.367 . S
C1253 C1255 1.433 . S
C1254 C1250 1.350 . S
C1254 C1251 1.463 . S
C1254 N1258 1.427 . S
C1255 H1245 0.929 . S
C1255 C1253 1.433 . S
C1255 N1258 1.384 . S
C1256 H1247 0.929 . S
C1256 C1248 1.378 . S
C1256 C1251 1.350 . S
C1257 H1244 0.929 . S
C1257 C1249 1.433 . S
C1257 N1259 1.384 . S
N1258 C1254 1.427 . S
N1258 C1255 1.384 . S
N1259 C1251 1.427 . S
N1259 C1257 1.384 . S
H1260 C1266 0.930 . S
H1261 C1270 0.930 . S
H1262 C1275 0.929 . S
H1263 C1273 0.929 . S
H1264 C1268 0.929 . S
H1265 C1274 0.929 . S
C1266 H1260 0.930 . S
C1266 C1267 1.367 . S
C1266 C1274 1.378 . S
C1267 C1266 1.367 . S
C1267 C1275 1.433 . S
C1268 H1264 0.929 . S
C1268 C1270 1.378 . S
C1268 C1272 1.350 . S
C1269 C1272 1.463 . S
C1269 C1274 1.350 . S
C1269 N1277 1.427 . S
C1270 H1261 0.930 . S
C1270 C1268 1.378 . S
C1270 C1271 1.367 . S
C1271 C1270 1.367 . S
C1271 C1273 1.433 . S
C1272 C1268 1.350 . S
C1272 C1269 1.463 . S
C1272 N1276 1.427 . S
C1273 H1263 0.929 . S
C1273 C1271 1.433 . S
C1273 N1276 1.384 . S
C1274 H1265 0.929 . S
C1274 C1266 1.378 . S
C1274 C1269 1.350 . S
C1275 H1262 0.929 . S
C1275 C1267 1.433 . S
C1275 N1277 1.384 . S
N1276 C1272 1.427 . S
N1276 C1273 1.384 . S
N1277 C1269 1.427 . S
N1277 C1275 1.384 . S
H1278 C1284 0.930 . S
H1279 C1288 0.930 . S
H1280 C1293 0.929 . S
H1281 C1291 0.929 . S
H1282 C1286 0.929 . S
H1283 C1292 0.929 . S
C1284 H1278 0.930 . S
C1284 C1285 1.367 . S
C1284 C1292 1.378 . S
C1285 C1284 1.367 . S
C1285 C1293 1.433 . S
C1286 H1282 0.929 . S
C1286 C1288 1.378 . S
C1286 C1290 1.350 . S
C1287 C1290 1.463 . S
C1287 C1292 1.350 . S
C1287 N1295 1.427 . S
C1288 H1279 0.930 . S
C1288 C1286 1.378 . S
C1288 C1289 1.367 . S
C1289 C1288 1.367 . S
C1289 C1291 1.433 . S
C1290 C1286 1.350 . S
C1290 C1287 1.463 . S
C1290 N1294 1.427 . S
C1291 H1281 0.929 . S
C1291 C1289 1.433 . S
C1291 N1294 1.384 . S
C1292 H1283 0.929 . S
C1292 C1284 1.378 . S
C1292 C1287 1.350 . S
C1293 H1280 0.929 . S
C1293 C1285 1.433 . S
C1293 N1295 1.384 . S
N1294 C1290 1.427 . S
N1294 C1291 1.384 . S
N1295 C1287 1.427 . S
N1295 C1293 1.384 . S
H1296 C1302 0.930 . S
H1297 C1306 0.930 . S
H1298 C1311 0.929 . S
H1299 C1309 0.929 . S
H1300 C1304 0.929 . S
H1301 C1310 0.929 . S
C1302 H1296 0.930 . S
C1302 C1303 1.367 . S
C1302 C1310 1.378 . S
C1303 C1302 1.367 . S
C1303 C1311 1.433 . S
C1304 H1300 0.929 . S
C1304 C1306 1.378 . S
C1304 C1308 1.350 . S
C1305 C1308 1.463 . S
C1305 C1310 1.350 . S
C1305 N1313 1.427 . S
C1306 H1297 0.930 . S
C1306 C1304 1.378 . S
C1306 C1307 1.367 . S
C1307 C1306 1.367 . S
C1307 C1309 1.433 . S
C1308 C1304 1.350 . S
C1308 C1305 1.463 . S
C1308 N1312 1.427 . S
C1309 H1299 0.929 . S
C1309 C1307 1.433 . S
C1309 N1312 1.384 . S
C1310 H1301 0.929 . S
C1310 C1302 1.378 . S
C1310 C1305 1.350 . S
C1311 H1298 0.929 . S
C1311 C1303 1.433 . S
C1311 N1313 1.384 . S
N1312 C1308 1.427 . S
N1312 C1309 1.384 . S
N1313 C1305 1.427 . S
N1313 C1311 1.384 . S
H1314 C1320 0.930 . S
H1315 C1324 0.930 . S
H1316 C1329 0.929 . S
H1317 C1327 0.929 . S
H1318 C1322 0.929 . S
H1319 C1328 0.929 . S
C1320 H1314 0.930 . S
C1320 C1321 1.367 . S
C1320 C1328 1.378 . S
C1321 C1320 1.367 . S
C1321 C1329 1.433 . S
C1322 H1318 0.929 . S
C1322 C1324 1.378 . S
C1322 C1326 1.350 . S
C1323 C1326 1.463 . S
C1323 C1328 1.350 . S
C1323 N1331 1.427 . S
C1324 H1315 0.930 . S
C1324 C1322 1.378 . S
C1324 C1325 1.367 . S
C1325 C1324 1.367 . S
C1325 C1327 1.433 . S
C1326 C1322 1.350 . S
C1326 C1323 1.463 . S
C1326 N1330 1.427 . S
C1327 H1317 0.929 . S
C1327 C1325 1.433 . S
C1327 N1330 1.384 . S
C1328 H1319 0.929 . S
C1328 C1320 1.378 . S
C1328 C1323 1.350 . S
C1329 H1316 0.929 . S
C1329 C1321 1.433 . S
C1329 N1331 1.384 . S
N1330 C1326 1.427 . S
N1330 C1327 1.384 . S
N1331 C1323 1.427 . S
N1331 C1329 1.384 . S
H1332 C1338 0.930 . S
H1333 C1342 0.930 . S
H1334 C1347 0.929 . S
H1335 C1345 0.929 . S
H1336 C1340 0.929 . S
H1337 C1346 0.929 . S
C1338 H1332 0.930 . S
C1338 C1339 1.367 . S
C1338 C1346 1.378 . S
C1339 C1338 1.367 . S
C1339 C1347 1.433 . S
C1340 H1336 0.929 . S
C1340 C1342 1.378 . S
C1340 C1344 1.350 . S
C1341 C1344 1.463 . S
C1341 C1346 1.350 . S
C1341 N1349 1.427 . S
C1342 H1333 0.930 . S
C1342 C1340 1.378 . S
C1342 C1343 1.367 . S
C1343 C1342 1.367 . S
C1343 C1345 1.433 . S
C1344 C1340 1.350 . S
C1344 C1341 1.463 . S
C1344 N1348 1.427 . S
C1345 H1335 0.929 . S
C1345 C1343 1.433 . S
C1345 N1348 1.384 . S
C1346 H1337 0.929 . S
C1346 C1338 1.378 . S
C1346 C1341 1.350 . S
C1347 H1334 0.929 . S
C1347 C1339 1.433 . S
C1347 N1349 1.384 . S
N1348 C1344 1.427 . S
N1348 C1345 1.384 . S
N1349 C1341 1.427 . S
N1349 C1347 1.384 . S
H1350 C1356 0.930 . S
H1351 C1360 0.930 . S
H1352 C1365 0.929 . S
H1353 C1363 0.929 . S
H1354 C1358 0.929 . S
H1355 C1364 0.929 . S
C1356 H1350 0.930 . S
C1356 C1357 1.367 . S
C1356 C1364 1.378 . S
C1357 C1356 1.367 . S
C1357 C1365 1.433 . S
C1358 H1354 0.929 . S
C1358 C1360 1.378 . S
C1358 C1362 1.350 . S
C1359 C1362 1.463 . S
C1359 C1364 1.350 . S
C1359 N1367 1.427 . S
C1360 H1351 0.930 . S
C1360 C1358 1.378 . S
C1360 C1361 1.367 . S
C1361 C1360 1.367 . S
C1361 C1363 1.433 . S
C1362 C1358 1.350 . S
C1362 C1359 1.463 . S
C1362 N1366 1.427 . S
C1363 H1353 0.929 . S
C1363 C1361 1.433 . S
C1363 N1366 1.384 . S
C1364 H1355 0.929 . S
C1364 C1356 1.378 . S
C1364 C1359 1.350 . S
C1365 H1352 0.929 . S
C1365 C1357 1.433 . S
C1365 N1367 1.384 . S
N1366 C1362 1.427 . S
N1366 C1363 1.384 . S
N1367 C1359 1.427 . S
N1367 C1365 1.384 . S
H1368 C1374 0.930 . S
H1369 C1378 0.930 . S
H1370 C1383 0.929 . S
H1371 C1381 0.929 . S
H1372 C1376 0.929 . S
H1373 C1382 0.929 . S
C1374 H1368 0.930 . S
C1374 C1375 1.367 . S
C1374 C1382 1.378 . S
C1375 C1374 1.367 . S
C1375 C1383 1.433 . S
C1376 H1372 0.929 . S
C1376 C1378 1.378 . S
C1376 C1380 1.350 . S
C1377 C1380 1.463 . S
C1377 C1382 1.350 . S
C1377 N1385 1.427 . S
C1378 H1369 0.930 . S
C1378 C1376 1.378 . S
C1378 C1379 1.367 . S
C1379 C1378 1.367 . S
C1379 C1381 1.433 . S
C1380 C1376 1.350 . S
C1380 C1377 1.463 . S
C1380 N1384 1.427 . S
C1381 H1371 0.929 . S
C1381 C1379 1.433 . S
C1381 N1384 1.384 . S
C1382 H1373 0.929 . S
C1382 C1374 1.378 . S
C1382 C1377 1.350 . S
C1383 H1370 0.929 . S
C1383 C1375 1.433 . S
C1383 N1385 1.384 . S
N1384 C1380 1.427 . S
N1384 C1381 1.384 . S
N1385 C1377 1.427 . S
N1385 C1383 1.384 . S
H1386 C1392 0.930 . S
H1387 C1396 0.930 . S
H1388 C1401 0.929 . S
H1389 C1399 0.929 . S
H1390 C1394 0.929 . S
H1391 C1400 0.929 . S
C1392 H1386 0.930 . S
C1392 C1393 1.367 . S
C1392 C1400 1.378 . S
C1393 C1392 1.367 . S
C1393 C1401 1.433 . S
C1394 H1390 0.929 . S
C1394 C1396 1.378 . S
C1394 C1398 1.350 . S
C1395 C1398 1.463 . S
C1395 C1400 1.350 . S
C1395 N1403 1.427 . S
C1396 H1387 0.930 . S
C1396 C1394 1.378 . S
C1396 C1397 1.367 . S
C1397 C1396 1.367 . S
C1397 C1399 1.433 . S
C1398 C1394 1.350 . S
C1398 C1395 1.463 . S
C1398 N1402 1.427 . S
C1399 H1389 0.929 . S
C1399 C1397 1.433 . S
C1399 N1402 1.384 . S
C1400 H1391 0.929 . S
C1400 C1392 1.378 . S
C1400 C1395 1.350 . S
C1401 H1388 0.929 . S
C1401 C1393 1.433 . S
C1401 N1403 1.384 . S
N1402 C1398 1.427 . S
N1402 C1399 1.384 . S
N1403 C1395 1.427 . S
N1403 C1401 1.384 . S
H1404 C1410 0.930 . S
H1405 C1414 0.930 . S
H1406 C1419 0.929 . S
H1407 C1417 0.929 . S
H1408 C1412 0.929 1_655 S
H1409 C1418 0.929 1_455 S
C1410 H1404 0.930 . S
C1410 C1411 1.367 . S
C1410 C1418 1.378 . S
C1411 C1410 1.367 . S
C1411 C1419 1.433 . S
C1412 H1408 0.929 1_455 S
C1412 C1414 1.378 . S
C1412 C1416 1.350 . S
C1413 C1416 1.463 1_655 S
C1413 C1418 1.350 . S
C1413 N1421 1.427 . S
C1414 H1405 0.930 . S
C1414 C1412 1.378 . S
C1414 C1415 1.367 . S
C1415 C1414 1.367 . S
C1415 C1417 1.433 . S
C1416 C1412 1.350 . S
C1416 C1413 1.463 1_455 S
C1416 N1420 1.427 . S
C1417 H1407 0.929 . S
C1417 C1415 1.433 . S
C1417 N1420 1.384 . S
C1418 H1409 0.929 1_655 S
C1418 C1410 1.378 . S
C1418 C1413 1.350 . S
C1419 H1406 0.929 . S
C1419 C1411 1.433 . S
C1419 N1421 1.384 . S
N1420 C1416 1.427 . S
N1420 C1417 1.384 . S
N1421 C1413 1.427 . S
N1421 C1419 1.384 . S
H1422 C1428 0.930 . S
H1423 C1432 0.930 . S
H1424 C1437 0.929 . S
H1425 C1435 0.929 . S
H1426 C1430 0.929 . S
H1427 C1436 0.929 . S
C1428 H1422 0.930 . S
C1428 C1429 1.367 . S
C1428 C1436 1.378 . S
C1429 C1428 1.367 . S
C1429 C1437 1.433 . S
C1430 H1426 0.929 . S
C1430 C1432 1.378 . S
C1430 C1434 1.350 . S
C1431 C1434 1.463 . S
C1431 C1436 1.350 . S
C1431 N1439 1.427 . S
C1432 H1423 0.930 . S
C1432 C1430 1.378 . S
C1432 C1433 1.367 . S
C1433 C1432 1.367 . S
C1433 C1435 1.433 . S
C1434 C1430 1.350 . S
C1434 C1431 1.463 . S
C1434 N1438 1.427 . S
C1435 H1425 0.929 . S
C1435 C1433 1.433 . S
C1435 N1438 1.384 . S
C1436 H1427 0.929 . S
C1436 C1428 1.378 . S
C1436 C1431 1.350 . S
C1437 H1424 0.929 . S
C1437 C1429 1.433 . S
C1437 N1439 1.384 . S
N1438 C1434 1.427 . S
N1438 C1435 1.384 . S
N1439 C1431 1.427 . S
N1439 C1437 1.384 . S
H1440 C1446 0.930 . S
H1441 C1450 0.930 . S
H1442 C1455 0.929 . S
H1443 C1453 0.929 . S
H1444 C1448 0.929 . S
H1445 C1454 0.923 . S
C1446 H1440 0.930 . S
C1446 C1447 1.367 . S
C1446 C1454 1.380 1_565 S
C1447 C1446 1.367 . S
C1447 C1455 1.433 . S
C1448 H1444 0.929 . S
C1448 C1450 1.378 1_565 S
C1448 C1452 1.350 1_565 S
C1449 C1452 1.463 1_565 S
C1449 C1454 1.353 1_565 S
C1449 N1457 1.427 . S
C1450 H1441 0.930 . S
C1450 C1448 1.378 1_545 S
C1450 C1451 1.367 . S
C1451 C1450 1.367 . S
C1451 C1453 1.433 . S
C1452 C1448 1.350 1_545 S
C1452 C1449 1.463 1_545 S
C1452 N1456 1.427 . S
C1453 H1443 0.929 . S
C1453 C1451 1.433 . S
C1453 N1456 1.384 . S
C1454 H1445 0.923 . S
C1454 C1446 1.380 1_545 S
C1454 C1449 1.353 1_545 S
C1455 H1442 0.929 . S
C1455 C1447 1.433 . S
C1455 N1457 1.384 . S
N1456 C1452 1.427 . S
N1456 C1453 1.384 . S
N1457 C1449 1.427 . S
N1457 C1455 1.384 . S
H1458 C1464 0.930 . S
H1459 C1468 0.930 . S
H1460 C1473 0.929 1_545 S
H1461 C1471 0.927 . S
H1462 C1466 0.929 . S
H1463 C1472 0.929 . S
C1464 H1458 0.930 . S
C1464 C1465 1.367 . S
C1464 C1472 1.378 . S
C1465 C1464 1.367 . S
C1465 C1473 1.433 . S
C1466 H1462 0.929 . S
C1466 C1468 1.378 . S
C1466 C1470 1.350 . S
C1467 C1470 1.463 1_565 S
C1467 C1472 1.350 . S
C1467 N1475 1.427 1_565 S
C1468 H1459 0.930 . S
C1468 C1466 1.378 . S
C1468 C1469 1.367 . S
C1469 C1468 1.367 . S
C1469 C1471 1.433 . S
C1470 C1466 1.350 . S
C1470 C1467 1.463 1_545 S
C1470 N1474 1.427 1_545 S
C1471 H1461 0.927 . S
C1471 C1469 1.433 . S
C1471 N1474 1.384 1_545 S
C1472 H1463 0.929 . S
C1472 C1464 1.378 . S
C1472 C1467 1.350 . S
C1473 H1460 0.929 1_565 S
C1473 C1465 1.433 . S
C1473 N1475 1.384 1_565 S
N1474 C1470 1.427 1_565 S
N1474 C1471 1.384 1_565 S
N1475 C1467 1.427 1_545 S
N1475 C1473 1.384 1_545 S
H1476 C1482 0.930 . S
H1477 C1486 0.930 . S
H1478 C1491 0.929 . S
H1479 C1489 0.929 . S
H1480 C1484 0.918 1_455 S
H1481 C1490 0.929 . S
C1482 H1476 0.930 . S
C1482 C1483 1.367 . S
C1482 C1490 1.378 1_455 S
C1483 C1482 1.367 . S
C1483 C1491 1.433 . S
C1484 H1480 0.918 1_655 S
C1484 C1486 1.382 . S
C1484 C1488 1.356 . S
C1485 C1488 1.463 1_455 S
C1485 C1490 1.350 1_455 S
C1485 N1493 1.427 . S
C1486 H1477 0.930 . S
C1486 C1484 1.382 . S
C1486 C1487 1.367 . S
C1487 C1486 1.367 . S
C1487 C1489 1.433 . S
C1488 C1484 1.356 . S
C1488 C1485 1.463 1_655 S
C1488 N1492 1.427 . S
C1489 H1479 0.929 . S
C1489 C1487 1.433 . S
C1489 N1492 1.384 . S
C1490 H1481 0.929 . S
C1490 C1482 1.378 1_655 S
C1490 C1485 1.350 1_655 S
C1491 H1478 0.929 . S
C1491 C1483 1.433 . S
C1491 N1493 1.384 . S
N1492 C1488 1.427 . S
N1492 C1489 1.384 . S
N1493 C1485 1.427 . S
N1493 C1491 1.384 . S
H1494 C1500 0.930 . S
H1495 C1504 0.930 . S
H1496 C1509 0.929 . S
H1497 C1507 0.929 . S
H1498 C1502 0.929 . S
H1499 C1508 0.929 . S
C1500 H1494 0.930 . S
C1500 C1501 1.367 . S
C1500 C1508 1.378 . S
C1501 C1500 1.367 . S
C1501 C1509 1.433 . S
C1502 H1498 0.929 . S
C1502 C1504 1.378 . S
C1502 C1506 1.350 . S
C1503 C1506 1.463 . S
C1503 C1508 1.350 . S
C1503 N1511 1.427 . S
C1504 H1495 0.930 . S
C1504 C1502 1.378 . S
C1504 C1505 1.367 . S
C1505 C1504 1.367 . S
C1505 C1507 1.433 . S
C1506 C1502 1.350 . S
C1506 C1503 1.463 . S
C1506 N1510 1.427 . S
C1507 H1497 0.929 . S
C1507 C1505 1.433 . S
C1507 N1510 1.384 . S
C1508 H1499 0.929 . S
C1508 C1500 1.378 . S
C1508 C1503 1.350 . S
C1509 H1496 0.929 . S
C1509 C1501 1.433 . S
C1509 N1511 1.384 . S
N1510 C1506 1.427 . S
N1510 C1507 1.384 . S
N1511 C1503 1.427 . S
N1511 C1509 1.384 . S
H1512 C1518 0.930 . S
H1513 C1522 0.930 . S
H1514 C1527 0.929 . S
H1515 C1525 0.929 . S
H1516 C1520 0.929 . S
H1517 C1526 0.929 . S
C1518 H1512 0.930 . S
C1518 C1519 1.367 . S
C1518 C1526 1.378 . S
C1519 C1518 1.367 . S
C1519 C1527 1.433 . S
C1520 H1516 0.929 . S
C1520 C1522 1.378 . S
C1520 C1524 1.350 . S
C1521 C1524 1.463 . S
C1521 C1526 1.350 . S
C1521 N1529 1.427 . S
C1522 H1513 0.930 . S
C1522 C1520 1.378 . S
C1522 C1523 1.367 . S
C1523 C1522 1.367 . S
C1523 C1525 1.433 . S
C1524 C1520 1.350 . S
C1524 C1521 1.463 . S
C1524 N1528 1.427 . S
C1525 H1515 0.929 . S
C1525 C1523 1.433 . S
C1525 N1528 1.384 . S
C1526 H1517 0.929 . S
C1526 C1518 1.378 . S
C1526 C1521 1.350 . S
C1527 H1514 0.929 . S
C1527 C1519 1.433 . S
C1527 N1529 1.384 . S
N1528 C1524 1.427 . S
N1528 C1525 1.384 . S
N1529 C1521 1.427 . S
N1529 C1527 1.384 . S
H1530 C1536 0.930 . S
H1531 C1540 0.930 . S
H1532 C1545 0.929 1_565 S
H1533 C1543 0.929 1_545 S
H1534 C1538 0.929 . S
H1535 C1544 0.929 . S
C1536 H1530 0.930 . S
C1536 C1537 1.367 . S
C1536 C1544 1.378 . S
C1537 C1536 1.367 . S
C1537 C1545 1.433 . S
C1538 H1534 0.929 . S
C1538 C1540 1.378 . S
C1538 C1542 1.350 . S
C1539 C1542 1.463 1_545 S
C1539 C1544 1.350 . S
C1539 N1547 1.427 1_545 S
C1540 H1531 0.930 . S
C1540 C1538 1.378 . S
C1540 C1541 1.367 . S
C1541 C1540 1.367 . S
C1541 C1543 1.433 . S
C1542 C1538 1.350 . S
C1542 C1539 1.463 1_565 S
C1542 N1546 1.427 1_565 S
C1543 H1533 0.929 1_565 S
C1543 C1541 1.433 . S
C1543 N1546 1.384 1_565 S
C1544 H1535 0.929 . S
C1544 C1536 1.378 . S
C1544 C1539 1.350 . S
C1545 H1532 0.929 1_545 S
C1545 C1537 1.433 . S
C1545 N1547 1.384 1_545 S
N1546 C1542 1.427 1_545 S
N1546 C1543 1.384 1_545 S
N1547 C1539 1.427 1_565 S
N1547 C1545 1.384 1_565 S
H1548 C1554 0.930 . S
H1549 C1558 0.930 . S
H1550 C1563 0.929 . S
H1551 C1561 0.929 . S
H1552 C1556 0.929 . S
H1553 C1562 0.929 . S
C1554 H1548 0.930 . S
C1554 C1555 1.367 . S
C1554 C1562 1.378 . S
C1555 C1554 1.367 . S
C1555 C1563 1.433 . S
C1556 H1552 0.929 . S
C1556 C1558 1.378 . S
C1556 C1560 1.350 . S
C1557 C1560 1.463 1_655 S
C1557 C1562 1.350 . S
C1557 N1565 1.427 . S
C1558 H1549 0.930 . S
C1558 C1556 1.378 . S
C1558 C1559 1.367 . S
C1559 C1558 1.367 . S
C1559 C1561 1.433 . S
C1560 C1556 1.350 . S
C1560 C1557 1.463 1_455 S
C1560 N1564 1.427 . S
C1561 H1551 0.929 . S
C1561 C1559 1.433 . S
C1561 N1564 1.384 . S
C1562 H1553 0.929 . S
C1562 C1554 1.378 . S
C1562 C1557 1.350 . S
C1563 H1550 0.929 . S
C1563 C1555 1.433 . S
C1563 N1565 1.384 . S
N1564 C1560 1.427 . S
N1564 C1561 1.384 . S
N1565 C1557 1.427 . S
N1565 C1563 1.384 . S
H1566 C1572 0.930 . S
H1567 C1576 0.930 . S
H1568 C1581 0.929 . S
H1569 C1579 0.929 . S
H1570 C1574 0.929 . S
H1571 C1580 0.929 . S
C1572 H1566 0.930 . S
C1572 C1573 1.367 . S
C1572 C1580 1.378 . S
C1573 C1572 1.367 . S
C1573 C1581 1.433 . S
C1574 H1570 0.929 . S
C1574 C1576 1.378 . S
C1574 C1578 1.350 . S
C1575 C1578 1.463 . S
C1575 C1580 1.350 . S
C1575 N1583 1.427 . S
C1576 H1567 0.930 . S
C1576 C1574 1.378 . S
C1576 C1577 1.367 . S
C1577 C1576 1.367 . S
C1577 C1579 1.433 . S
C1578 C1574 1.350 . S
C1578 C1575 1.463 . S
C1578 N1582 1.427 . S
C1579 H1569 0.929 . S
C1579 C1577 1.433 . S
C1579 N1582 1.384 . S
C1580 H1571 0.929 . S
C1580 C1572 1.378 . S
C1580 C1575 1.350 . S
C1581 H1568 0.929 . S
C1581 C1573 1.433 . S
C1581 N1583 1.384 . S
N1582 C1578 1.427 . S
N1582 C1579 1.384 . S
N1583 C1575 1.427 . S
N1583 C1581 1.384 . S
H1584 C1590 0.930 . S
H1585 C1594 0.930 . S
H1586 C1599 0.929 . S
H1587 C1597 0.929 . S
H1588 C1592 0.929 . S
H1589 C1598 0.929 . S
C1590 H1584 0.930 . S
C1590 C1591 1.367 . S
C1590 C1598 1.378 . S
C1591 C1590 1.367 . S
C1591 C1599 1.433 . S
C1592 H1588 0.929 . S
C1592 C1594 1.378 . S
C1592 C1596 1.350 . S
C1593 C1596 1.463 1_565 S
C1593 C1598 1.350 . S
C1593 N1601 1.427 . S
C1594 H1585 0.930 . S
C1594 C1592 1.378 . S
C1594 C1595 1.367 . S
C1595 C1594 1.367 . S
C1595 C1597 1.433 . S
C1596 C1592 1.350 . S
C1596 C1593 1.463 1_545 S
C1596 N1600 1.427 . S
C1597 H1587 0.929 . S
C1597 C1595 1.433 . S
C1597 N1600 1.384 . S
C1598 H1589 0.929 . S
C1598 C1590 1.378 . S
C1598 C1593 1.350 . S
C1599 H1586 0.929 . S
C1599 C1591 1.433 . S
C1599 N1601 1.384 . S
N1600 C1596 1.427 . S
N1600 C1597 1.384 . S
N1601 C1593 1.427 . S
N1601 C1599 1.384 . S
H1602 C1608 0.930 . S
H1603 C1612 0.930 . S
H1604 C1617 0.929 . S
H1605 C1615 0.929 . S
H1606 C1610 0.929 1_655 S
H1607 C1616 0.929 1_455 S
C1608 H1602 0.930 . S
C1608 C1609 1.367 . S
C1608 C1616 1.378 . S
C1609 C1608 1.367 . S
C1609 C1617 1.433 . S
C1610 H1606 0.929 1_455 S
C1610 C1612 1.378 . S
C1610 C1614 1.350 . S
C1611 C1614 1.463 1_655 S
C1611 C1616 1.350 . S
C1611 N1619 1.427 . S
C1612 H1603 0.930 . S
C1612 C1610 1.378 . S
C1612 C1613 1.367 . S
C1613 C1612 1.367 . S
C1613 C1615 1.433 . S
C1614 C1610 1.350 . S
C1614 C1611 1.463 1_455 S
C1614 N1618 1.427 . S
C1615 H1605 0.929 . S
C1615 C1613 1.433 . S
C1615 N1618 1.384 . S
C1616 H1607 0.929 1_655 S
C1616 C1608 1.378 . S
C1616 C1611 1.350 . S
C1617 H1604 0.929 . S
C1617 C1609 1.433 . S
C1617 N1619 1.384 . S
N1618 C1614 1.427 . S
N1618 C1615 1.384 . S
N1619 C1611 1.427 . S
N1619 C1617 1.384 . S
H1620 C1626 0.930 . S
H1621 C1630 0.930 . S
H1622 C1635 0.929 . S
H1623 C1633 0.929 . S
H1624 C1628 0.929 . S
H1625 C1634 0.929 . S
C1626 H1620 0.930 . S
C1626 C1627 1.367 . S
C1626 C1634 1.378 . S
C1627 C1626 1.367 . S
C1627 C1635 1.433 . S
C1628 H1624 0.929 . S
C1628 C1630 1.378 . S
C1628 C1632 1.350 . S
C1629 C1632 1.463 . S
C1629 C1634 1.350 . S
C1629 N1637 1.427 . S
C1630 H1621 0.930 . S
C1630 C1628 1.378 . S
C1630 C1631 1.367 . S
C1631 C1630 1.367 . S
C1631 C1633 1.433 . S
C1632 C1628 1.350 . S
C1632 C1629 1.463 . S
C1632 N1636 1.427 . S
C1633 H1623 0.929 . S
C1633 C1631 1.433 . S
C1633 N1636 1.384 . S
C1634 H1625 0.929 . S
C1634 C1626 1.378 . S
C1634 C1629 1.350 . S
C1635 H1622 0.929 . S
C1635 C1627 1.433 . S
C1635 N1637 1.384 . S
N1636 C1632 1.427 . S
N1636 C1633 1.384 . S
N1637 C1629 1.427 . S
N1637 C1635 1.384 . S
H1638 C1644 0.930 . S
H1639 C1648 0.930 . S
H1640 C1653 0.929 . S
H1641 C1651 0.929 . S
H1642 C1646 0.929 . S
H1643 C1652 0.929 . S
C1644 H1638 0.930 . S
C1644 C1645 1.367 . S
C1644 C1652 1.378 . S
C1645 C1644 1.367 . S
C1645 C1653 1.433 . S
C1646 H1642 0.929 . S
C1646 C1648 1.378 . S
C1646 C1650 1.350 . S
C1647 C1650 1.463 1_565 S
C1647 C1652 1.350 . S
C1647 N1655 1.427 1_565 S
C1648 H1639 0.930 . S
C1648 C1646 1.378 . S
C1648 C1649 1.367 . S
C1649 C1648 1.367 . S
C1649 C1651 1.433 . S
C1650 C1646 1.350 . S
C1650 C1647 1.463 1_545 S
C1650 N1654 1.427 . S
C1651 H1641 0.929 . S
C1651 C1649 1.433 . S
C1651 N1654 1.384 . S
C1652 H1643 0.929 . S
C1652 C1644 1.378 . S
C1652 C1647 1.350 . S
C1653 H1640 0.929 . S
C1653 C1645 1.433 . S
C1653 N1655 1.384 1_565 S
N1654 C1650 1.427 . S
N1654 C1651 1.384 . S
N1655 C1647 1.427 1_545 S
N1655 C1653 1.384 1_545 S
H1656 C1662 0.930 . S
H1657 C1666 0.930 . S
H1658 C1671 0.929 1_655 S
H1659 C1669 0.929 1_455 S
H1660 C1664 0.929 . S
H1661 C1670 0.929 . S
C1662 H1656 0.930 . S
C1662 C1663 1.367 . S
C1662 C1670 1.378 . S
C1663 C1662 1.367 . S
C1663 C1671 1.433 . S
C1664 H1660 0.929 . S
C1664 C1666 1.378 . S
C1664 C1668 1.350 . S
C1665 C1668 1.463 1_455 S
C1665 C1670 1.350 . S
C1665 N1673 1.427 1_455 S
C1666 H1657 0.930 . S
C1666 C1664 1.378 . S
C1666 C1667 1.367 . S
C1667 C1666 1.367 . S
C1667 C1669 1.433 . S
C1668 C1664 1.350 . S
C1668 C1665 1.463 1_655 S
C1668 N1672 1.427 1_655 S
C1669 H1659 0.929 1_655 S
C1669 C1667 1.433 . S
C1669 N1672 1.384 1_655 S
C1670 H1661 0.929 . S
C1670 C1662 1.378 . S
C1670 C1665 1.350 . S
C1671 H1658 0.929 1_455 S
C1671 C1663 1.433 . S
C1671 N1673 1.384 1_455 S
N1672 C1668 1.427 1_455 S
N1672 C1669 1.384 1_455 S
N1673 C1665 1.427 1_655 S
N1673 C1671 1.384 1_655 S
H1674 C1680 0.930 . S
H1675 C1684 0.930 . S
H1676 C1689 0.929 . S
H1677 C1687 0.929 . S
H1678 C1682 0.929 . S
H1679 C1688 0.929 . S
C1680 H1674 0.930 . S
C1680 C1681 1.367 . S
C1680 C1688 1.378 . S
C1681 C1680 1.367 . S
C1681 C1689 1.433 . S
C1682 H1678 0.929 . S
C1682 C1684 1.378 . S
C1682 C1686 1.350 . S
C1683 C1686 1.463 . S
C1683 C1688 1.350 . S
C1683 N1691 1.427 . S
C1684 H1675 0.930 . S
C1684 C1682 1.378 . S
C1684 C1685 1.367 . S
C1685 C1684 1.367 . S
C1685 C1687 1.433 . S
C1686 C1682 1.350 . S
C1686 C1683 1.463 . S
C1686 N1690 1.427 . S
C1687 H1677 0.929 . S
C1687 C1685 1.433 . S
C1687 N1690 1.384 . S
C1688 H1679 0.929 . S
C1688 C1680 1.378 . S
C1688 C1683 1.350 . S
C1689 H1676 0.929 . S
C1689 C1681 1.433 . S
C1689 N1691 1.384 . S
N1690 C1686 1.427 . S
N1690 C1687 1.384 . S
N1691 C1683 1.427 . S
N1691 C1689 1.384 . S
H1692 C1698 0.930 . S
H1693 C1702 0.931 1_565 S
H1694 C1707 0.929 . S
H1695 C1705 0.929 . S
H1696 C1700 0.929 . S
H1697 C1706 0.929 . S
C1698 H1692 0.930 . S
C1698 C1699 1.367 . S
C1698 C1706 1.378 1_565 S
C1699 C1698 1.367 . S
C1699 C1707 1.433 . S
C1700 H1696 0.929 . S
C1700 C1702 1.378 1_565 S
C1700 C1704 1.350 1_565 S
C1701 C1704 1.463 1_565 S
C1701 C1706 1.350 1_565 S
C1701 N1709 1.427 . S
C1702 H1693 0.931 1_545 S
C1702 C1700 1.378 1_545 S
C1702 C1703 1.367 . S
C1703 C1702 1.367 . S
C1703 C1705 1.433 . S
C1704 C1700 1.350 1_545 S
C1704 C1701 1.463 1_545 S
C1704 N1708 1.427 . S
C1705 H1695 0.929 . S
C1705 C1703 1.433 . S
C1705 N1708 1.384 . S
C1706 H1697 0.929 . S
C1706 C1698 1.378 1_545 S
C1706 C1701 1.350 1_545 S
C1707 H1694 0.929 . S
C1707 C1699 1.433 . S
C1707 N1709 1.384 . S
N1708 C1704 1.427 . S
N1708 C1705 1.384 . S
N1709 C1701 1.427 . S
N1709 C1707 1.384 . S
H1710 C1716 0.930 . S
H1711 C1720 0.930 . S
H1712 C1725 0.929 . S
H1713 C1723 0.929 1_455 S
H1714 C1718 0.929 . S
H1715 C1724 0.929 . S
C1716 H1710 0.930 . S
C1716 C1717 1.367 . S
C1716 C1724 1.378 . S
C1717 C1716 1.367 . S
C1717 C1725 1.433 . S
C1718 H1714 0.929 . S
C1718 C1720 1.378 . S
C1718 C1722 1.350 . S
C1719 C1722 1.463 1_455 S
C1719 C1724 1.350 . S
C1719 N1727 1.427 1_455 S
C1720 H1711 0.930 . S
C1720 C1718 1.378 . S
C1720 C1721 1.367 . S
C1721 C1720 1.367 . S
C1721 C1723 1.433 . S
C1722 C1718 1.350 . S
C1722 C1719 1.463 1_655 S
C1722 N1726 1.427 1_655 S
C1723 H1713 0.929 1_655 S
C1723 C1721 1.433 . S
C1723 N1726 1.384 1_655 S
C1724 H1715 0.929 . S
C1724 C1716 1.378 . S
C1724 C1719 1.350 . S
C1725 H1712 0.929 . S
C1725 C1717 1.433 . S
C1725 N1727 1.384 1_455 S
N1726 C1722 1.427 1_455 S
N1726 C1723 1.384 1_455 S
N1727 C1719 1.427 1_655 S
N1727 C1725 1.384 1_655 S
H1728 C1734 0.930 . S
H1729 C1738 0.930 . S
H1730 C1743 0.929 . S
H1731 C1741 0.929 . S
H1732 C1736 0.929 . S
H1733 C1742 0.929 . S
C1734 H1728 0.930 . S
C1734 C1735 1.367 . S
C1734 C1742 1.378 . S
C1735 C1734 1.367 . S
C1735 C1743 1.433 . S
C1736 H1732 0.929 . S
C1736 C1738 1.378 . S
C1736 C1740 1.350 . S
C1737 C1740 1.463 1_655 S
C1737 C1742 1.350 . S
C1737 N1745 1.427 . S
C1738 H1729 0.930 . S
C1738 C1736 1.378 . S
C1738 C1739 1.367 . S
C1739 C1738 1.367 . S
C1739 C1741 1.433 . S
C1740 C1736 1.350 . S
C1740 C1737 1.463 1_455 S
C1740 N1744 1.427 . S
C1741 H1731 0.929 . S
C1741 C1739 1.433 . S
C1741 N1744 1.384 . S
C1742 H1733 0.929 . S
C1742 C1734 1.378 . S
C1742 C1737 1.350 . S
C1743 H1730 0.929 . S
C1743 C1735 1.433 . S
C1743 N1745 1.384 . S
N1744 C1740 1.427 . S
N1744 C1741 1.384 . S
N1745 C1737 1.427 . S
N1745 C1743 1.384 . S
H1746 C1752 0.930 . S
H1747 C1756 0.930 . S
H1748 C1761 0.929 . S
H1749 C1759 0.929 . S
H1750 C1754 0.929 . S
H1751 C1760 0.929 . S
C1752 H1746 0.930 . S
C1752 C1753 1.367 . S
C1752 C1760 1.378 . S
C1753 C1752 1.367 . S
C1753 C1761 1.433 . S
C1754 H1750 0.929 . S
C1754 C1756 1.378 . S
C1754 C1758 1.350 . S
C1755 C1758 1.463 . S
C1755 C1760 1.350 . S
C1755 N1763 1.427 . S
C1756 H1747 0.930 . S
C1756 C1754 1.378 . S
C1756 C1757 1.367 . S
C1757 C1756 1.367 . S
C1757 C1759 1.433 . S
C1758 C1754 1.350 . S
C1758 C1755 1.463 . S
C1758 N1762 1.427 . S
C1759 H1749 0.929 . S
C1759 C1757 1.433 . S
C1759 N1762 1.384 . S
C1760 H1751 0.929 . S
C1760 C1752 1.378 . S
C1760 C1755 1.350 . S
C1761 H1748 0.929 . S
C1761 C1753 1.433 . S
C1761 N1763 1.384 . S
N1762 C1758 1.427 . S
N1762 C1759 1.384 . S
N1763 C1755 1.427 . S
N1763 C1761 1.384 . S
H1764 C1770 0.930 . S
H1765 C1774 0.930 . S
H1766 C1779 0.929 . S
H1767 C1777 0.929 . S
H1768 C1772 0.929 . S
H1769 C1778 0.929 . S
C1770 H1764 0.930 . S
C1770 C1771 1.367 . S
C1770 C1778 1.378 . S
C1771 C1770 1.367 . S
C1771 C1779 1.433 . S
C1772 H1768 0.929 . S
C1772 C1774 1.378 . S
C1772 C1776 1.350 . S
C1773 C1776 1.463 1_545 S
C1773 C1778 1.350 . S
C1773 N1781 1.427 . S
C1774 H1765 0.930 . S
C1774 C1772 1.378 . S
C1774 C1775 1.367 . S
C1775 C1774 1.367 . S
C1775 C1777 1.433 . S
C1776 C1772 1.350 . S
C1776 C1773 1.463 1_565 S
C1776 N1780 1.427 . S
C1777 H1767 0.929 . S
C1777 C1775 1.433 . S
C1777 N1780 1.384 . S
C1778 H1769 0.929 . S
C1778 C1770 1.378 . S
C1778 C1773 1.350 . S
C1779 H1766 0.929 . S
C1779 C1771 1.433 . S
C1779 N1781 1.384 . S
N1780 C1776 1.427 . S
N1780 C1777 1.384 . S
N1781 C1773 1.427 . S
N1781 C1779 1.384 . S
H1782 C1788 0.930 . S
H1783 C1792 0.930 . S
H1784 C1797 0.929 . S
H1785 C1795 0.929 . S
H1786 C1790 0.929 . S
H1787 C1796 0.929 . S
C1788 H1782 0.930 . S
C1788 C1789 1.367 . S
C1788 C1796 1.378 . S
C1789 C1788 1.367 . S
C1789 C1797 1.433 . S
C1790 H1786 0.929 . S
C1790 C1792 1.378 . S
C1790 C1794 1.350 . S
C1791 C1794 1.463 1_545 S
C1791 C1796 1.350 . S
C1791 N1799 1.427 . S
C1792 H1783 0.930 . S
C1792 C1790 1.378 . S
C1792 C1793 1.367 . S
C1793 C1792 1.367 . S
C1793 C1795 1.433 . S
C1794 C1790 1.350 . S
C1794 C1791 1.463 1_565 S
C1794 N1798 1.427 . S
C1795 H1785 0.929 . S
C1795 C1793 1.433 . S
C1795 N1798 1.384 . S
C1796 H1787 0.929 . S
C1796 C1788 1.378 . S
C1796 C1791 1.350 . S
C1797 H1784 0.929 . S
C1797 C1789 1.433 . S
C1797 N1799 1.384 . S
N1798 C1794 1.427 . S
N1798 C1795 1.384 . S
N1799 C1791 1.427 . S
N1799 C1797 1.384 . S
H1800 C1806 0.930 . S
H1801 C1810 0.930 . S
H1802 C1815 0.929 . S
H1803 C1813 0.929 . S
H1804 C1808 0.929 . S
H1805 C1814 0.929 . S
C1806 H1800 0.930 . S
C1806 C1807 1.367 . S
C1806 C1814 1.378 . S
C1807 C1806 1.367 . S
C1807 C1815 1.433 . S
C1808 H1804 0.929 . S
C1808 C1810 1.378 . S
C1808 C1812 1.350 . S
C1809 C1812 1.463 1_455 S
C1809 C1814 1.350 . S
C1809 N1817 1.427 . S
C1810 H1801 0.930 . S
C1810 C1808 1.378 . S
C1810 C1811 1.367 . S
C1811 C1810 1.367 . S
C1811 C1813 1.433 . S
C1812 C1808 1.350 . S
C1812 C1809 1.463 1_655 S
C1812 N1816 1.427 . S
C1813 H1803 0.929 . S
C1813 C1811 1.433 . S
C1813 N1816 1.384 . S
C1814 H1805 0.929 . S
C1814 C1806 1.378 . S
C1814 C1809 1.350 . S
C1815 H1802 0.929 . S
C1815 C1807 1.433 . S
C1815 N1817 1.384 . S
N1816 C1812 1.427 . S
N1816 C1813 1.384 . S
N1817 C1809 1.427 . S
N1817 C1815 1.384 . S
H1818 C1824 0.930 . S
H1819 C1828 0.930 . S
H1820 C1833 0.929 . S
H1821 C1831 0.929 . S
H1822 C1826 0.929 . S
H1823 C1832 0.929 . S
C1824 H1818 0.930 . S
C1824 C1825 1.367 . S
C1824 C1832 1.378 . S
C1825 C1824 1.367 . S
C1825 C1833 1.433 . S
C1826 H1822 0.929 . S
C1826 C1828 1.378 . S
C1826 C1830 1.350 . S
C1827 C1830 1.463 . S
C1827 C1832 1.350 . S
C1827 N1835 1.427 . S
C1828 H1819 0.930 . S
C1828 C1826 1.378 . S
C1828 C1829 1.367 . S
C1829 C1828 1.367 . S
C1829 C1831 1.433 . S
C1830 C1826 1.350 . S
C1830 C1827 1.463 . S
C1830 N1834 1.427 . S
C1831 H1821 0.929 . S
C1831 C1829 1.433 . S
C1831 N1834 1.384 . S
C1832 H1823 0.929 . S
C1832 C1824 1.378 . S
C1832 C1827 1.350 . S
C1833 H1820 0.929 . S
C1833 C1825 1.433 . S
C1833 N1835 1.384 . S
N1834 C1830 1.427 . S
N1834 C1831 1.384 . S
N1835 C1827 1.427 . S
N1835 C1833 1.384 . S
H1836 C1842 0.930 . S
H1837 C1846 0.930 . S
H1838 C1851 0.929 . S
H1839 C1849 0.929 . S
H1840 C1844 0.929 . S
H1841 C1850 0.929 . S
C1842 H1836 0.930 . S
C1842 C1843 1.367 . S
C1842 C1850 1.378 . S
C1843 C1842 1.367 . S
C1843 C1851 1.433 . S
C1844 H1840 0.929 . S
C1844 C1846 1.378 . S
C1844 C1848 1.350 . S
C1845 C1848 1.463 . S
C1845 C1850 1.350 . S
C1845 N1853 1.427 . S
C1846 H1837 0.930 . S
C1846 C1844 1.378 . S
C1846 C1847 1.367 . S
C1847 C1846 1.367 . S
C1847 C1849 1.433 . S
C1848 C1844 1.350 . S
C1848 C1845 1.463 . S
C1848 N1852 1.427 . S
C1849 H1839 0.929 . S
C1849 C1847 1.433 . S
C1849 N1852 1.384 . S
C1850 H1841 0.929 . S
C1850 C1842 1.378 . S
C1850 C1845 1.350 . S
C1851 H1838 0.929 . S
C1851 C1843 1.433 . S
C1851 N1853 1.384 . S
N1852 C1848 1.427 . S
N1852 C1849 1.384 . S
N1853 C1845 1.427 . S
N1853 C1851 1.384 . S
H1854 C1860 0.930 . S
H1855 C1864 0.930 . S
H1856 C1869 0.929 . S
H1857 C1867 0.929 . S
H1858 C1862 0.929 . S
H1859 C1868 0.929 . S
C1860 H1854 0.930 . S
C1860 C1861 1.367 . S
C1860 C1868 1.378 . S
C1861 C1860 1.367 . S
C1861 C1869 1.433 . S
C1862 H1858 0.929 . S
C1862 C1864 1.378 . S
C1862 C1866 1.350 . S
C1863 C1866 1.463 . S
C1863 C1868 1.350 . S
C1863 N1871 1.427 . S
C1864 H1855 0.930 . S
C1864 C1862 1.378 . S
C1864 C1865 1.367 . S
C1865 C1864 1.367 . S
C1865 C1867 1.433 . S
C1866 C1862 1.350 . S
C1866 C1863 1.463 . S
C1866 N1870 1.427 . S
C1867 H1857 0.929 . S
C1867 C1865 1.433 . S
C1867 N1870 1.384 . S
C1868 H1859 0.929 . S
C1868 C1860 1.378 . S
C1868 C1863 1.350 . S
C1869 H1856 0.929 . S
C1869 C1861 1.433 . S
C1869 N1871 1.384 . S
N1870 C1866 1.427 . S
N1870 C1867 1.384 . S
N1871 C1863 1.427 . S
N1871 C1869 1.384 . S
H1872 C1878 0.930 . S
H1873 C1882 0.930 . S
H1874 C1887 0.929 . S
H1875 C1885 0.929 . S
H1876 C1880 0.929 . S
H1877 C1886 0.929 . S
C1878 H1872 0.930 . S
C1878 C1879 1.367 . S
C1878 C1886 1.378 . S
C1879 C1878 1.367 . S
C1879 C1887 1.433 . S
C1880 H1876 0.929 . S
C1880 C1882 1.378 . S
C1880 C1884 1.350 . S
C1881 C1884 1.463 . S
C1881 C1886 1.350 . S
C1881 N1889 1.427 . S
C1882 H1873 0.930 . S
C1882 C1880 1.378 . S
C1882 C1883 1.367 . S
C1883 C1882 1.367 . S
C1883 C1885 1.433 . S
C1884 C1880 1.350 . S
C1884 C1881 1.463 . S
C1884 N1888 1.427 . S
C1885 H1875 0.929 . S
C1885 C1883 1.433 . S
C1885 N1888 1.384 . S
C1886 H1877 0.929 . S
C1886 C1878 1.378 . S
C1886 C1881 1.350 . S
C1887 H1874 0.929 . S
C1887 C1879 1.433 . S
C1887 N1889 1.384 . S
N1888 C1884 1.427 . S
N1888 C1885 1.384 . S
N1889 C1881 1.427 . S
N1889 C1887 1.384 . S
H1890 C1896 0.930 . S
H1891 C1900 0.930 . S
H1892 C1905 0.929 . S
H1893 C1903 0.929 . S
H1894 C1898 0.929 . S
H1895 C1904 0.929 . S
C1896 H1890 0.930 . S
C1896 C1897 1.367 . S
C1896 C1904 1.378 . S
C1897 C1896 1.367 . S
C1897 C1905 1.433 . S
C1898 H1894 0.929 . S
C1898 C1900 1.378 . S
C1898 C1902 1.350 . S
C1899 C1902 1.463 . S
C1899 C1904 1.350 . S
C1899 N1907 1.427 . S
C1900 H1891 0.930 . S
C1900 C1898 1.378 . S
C1900 C1901 1.367 . S
C1901 C1900 1.367 . S
C1901 C1903 1.433 . S
C1902 C1898 1.350 . S
C1902 C1899 1.463 . S
C1902 N1906 1.427 . S
C1903 H1893 0.929 . S
C1903 C1901 1.433 . S
C1903 N1906 1.384 . S
C1904 H1895 0.929 . S
C1904 C1896 1.378 . S
C1904 C1899 1.350 . S
C1905 H1892 0.929 . S
C1905 C1897 1.433 . S
C1905 N1907 1.384 . S
N1906 C1902 1.427 . S
N1906 C1903 1.384 . S
N1907 C1899 1.427 . S
N1907 C1905 1.384 . S
H1908 C1914 0.930 . S
H1909 C1918 0.930 . S
H1910 C1923 0.929 . S
H1911 C1921 0.929 . S
H1912 C1916 0.929 . S
H1913 C1922 0.929 . S
C1914 H1908 0.930 . S
C1914 C1915 1.367 . S
C1914 C1922 1.378 . S
C1915 C1914 1.367 . S
C1915 C1923 1.433 . S
C1916 H1912 0.929 . S
C1916 C1918 1.378 . S
C1916 C1920 1.350 . S
C1917 C1920 1.463 . S
C1917 C1922 1.350 . S
C1917 N1925 1.427 . S
C1918 H1909 0.930 . S
C1918 C1916 1.378 . S
C1918 C1919 1.367 . S
C1919 C1918 1.367 . S
C1919 C1921 1.433 . S
C1920 C1916 1.350 . S
C1920 C1917 1.463 . S
C1920 N1924 1.427 . S
C1921 H1911 0.929 . S
C1921 C1919 1.433 . S
C1921 N1924 1.384 . S
C1922 H1913 0.929 . S
C1922 C1914 1.378 . S
C1922 C1917 1.350 . S
C1923 H1910 0.929 . S
C1923 C1915 1.433 . S
C1923 N1925 1.384 . S
N1924 C1920 1.427 . S
N1924 C1921 1.384 . S
N1925 C1917 1.427 . S
N1925 C1923 1.384 . S
H1926 C1932 0.930 . S
H1927 C1936 0.930 . S
H1928 C1941 0.929 . S
H1929 C1939 0.929 . S
H1930 C1934 0.929 . S
H1931 C1940 0.929 . S
C1932 H1926 0.930 . S
C1932 C1933 1.367 . S
C1932 C1940 1.378 . S
C1933 C1932 1.367 . S
C1933 C1941 1.433 . S
C1934 H1930 0.929 . S
C1934 C1936 1.378 . S
C1934 C1938 1.350 . S
C1935 C1938 1.463 . S
C1935 C1940 1.350 . S
C1935 N1943 1.427 . S
C1936 H1927 0.930 . S
C1936 C1934 1.378 . S
C1936 C1937 1.367 . S
C1937 C1936 1.367 . S
C1937 C1939 1.433 . S
C1938 C1934 1.350 . S
C1938 C1935 1.463 . S
C1938 N1942 1.427 . S
C1939 H1929 0.929 . S
C1939 C1937 1.433 . S
C1939 N1942 1.384 . S
C1940 H1931 0.929 . S
C1940 C1932 1.378 . S
C1940 C1935 1.350 . S
C1941 H1928 0.929 . S
C1941 C1933 1.433 . S
C1941 N1943 1.384 . S
N1942 C1938 1.427 . S
N1942 C1939 1.384 . S
N1943 C1935 1.427 . S
N1943 C1941 1.384 . S
H1944 C1950 0.930 . S
H1945 C1954 0.930 . S
H1946 C1959 0.929 . S
H1947 C1957 0.929 . S
H1948 C1952 0.929 . S
H1949 C1958 0.929 . S
C1950 H1944 0.930 . S
C1950 C1951 1.367 . S
C1950 C1958 1.378 . S
C1951 C1950 1.367 . S
C1951 C1959 1.433 . S
C1952 H1948 0.929 . S
C1952 C1954 1.378 . S
C1952 C1956 1.350 . S
C1953 C1956 1.463 . S
C1953 C1958 1.350 . S
C1953 N1961 1.427 . S
C1954 H1945 0.930 . S
C1954 C1952 1.378 . S
C1954 C1955 1.367 . S
C1955 C1954 1.367 . S
C1955 C1957 1.433 . S
C1956 C1952 1.350 . S
C1956 C1953 1.463 . S
C1956 N1960 1.427 . S
C1957 H1947 0.929 . S
C1957 C1955 1.433 . S
C1957 N1960 1.384 . S
C1958 H1949 0.929 . S
C1958 C1950 1.378 . S
C1958 C1953 1.350 . S
C1959 H1946 0.929 . S
C1959 C1951 1.433 . S
C1959 N1961 1.384 . S
N1960 C1956 1.427 . S
N1960 C1957 1.384 . S
N1961 C1953 1.427 . S
N1961 C1959 1.384 . S
H1962 C1968 0.930 . S
H1963 C1972 0.930 . S
H1964 C1977 0.929 . S
H1965 C1975 0.929 . S
H1966 C1970 0.929 . S
H1967 C1976 0.929 . S
C1968 H1962 0.930 . S
C1968 C1969 1.367 . S
C1968 C1976 1.378 . S
C1969 C1968 1.367 . S
C1969 C1977 1.433 . S
C1970 H1966 0.929 . S
C1970 C1972 1.378 . S
C1970 C1974 1.350 . S
C1971 C1974 1.463 . S
C1971 C1976 1.350 . S
C1971 N1979 1.427 . S
C1972 H1963 0.930 . S
C1972 C1970 1.378 . S
C1972 C1973 1.367 . S
C1973 C1972 1.367 . S
C1973 C1975 1.433 . S
C1974 C1970 1.350 . S
C1974 C1971 1.463 . S
C1974 N1978 1.427 . S
C1975 H1965 0.929 . S
C1975 C1973 1.433 . S
C1975 N1978 1.384 . S
C1976 H1967 0.929 . S
C1976 C1968 1.378 . S
C1976 C1971 1.350 . S
C1977 H1964 0.929 . S
C1977 C1969 1.433 . S
C1977 N1979 1.384 . S
N1978 C1974 1.427 . S
N1978 C1975 1.384 . S
N1979 C1971 1.427 . S
N1979 C1977 1.384 . S
H1980 C1986 0.930 . S
H1981 C1990 0.930 . S
H1982 C1995 0.929 . S
H1983 C1993 0.929 . S
H1984 C1988 0.929 . S
H1985 C1994 0.929 . S
C1986 H1980 0.930 . S
C1986 C1987 1.367 . S
C1986 C1994 1.378 . S
C1987 C1986 1.367 . S
C1987 C1995 1.433 . S
C1988 H1984 0.929 . S
C1988 C1990 1.378 . S
C1988 C1992 1.350 . S
C1989 C1992 1.463 . S
C1989 C1994 1.350 . S
C1989 N1997 1.427 . S
C1990 H1981 0.930 . S
C1990 C1988 1.378 . S
C1990 C1991 1.367 . S
C1991 C1990 1.367 . S
C1991 C1993 1.433 . S
C1992 C1988 1.350 . S
C1992 C1989 1.463 . S
C1992 N1996 1.427 . S
C1993 H1983 0.929 . S
C1993 C1991 1.433 . S
C1993 N1996 1.384 . S
C1994 H1985 0.929 . S
C1994 C1986 1.378 . S
C1994 C1989 1.350 . S
C1995 H1982 0.929 . S
C1995 C1987 1.433 . S
C1995 N1997 1.384 . S
N1996 C1992 1.427 . S
N1996 C1993 1.384 . S
N1997 C1989 1.427 . S
N1997 C1995 1.384 . S
H1998 C2004 0.930 . S
H1999 C2008 0.930 . S
H2000 C2013 0.929 . S
H2001 C2011 0.929 . S
H2002 C2006 0.929 . S
H2003 C2012 0.929 . S
C2004 H1998 0.930 . S
C2004 C2005 1.367 . S
C2004 C2012 1.378 . S
C2005 C2004 1.367 . S
C2005 C2013 1.433 . S
C2006 H2002 0.929 . S
C2006 C2008 1.378 . S
C2006 C2010 1.350 . S
C2007 C2010 1.463 . S
C2007 C2012 1.350 . S
C2007 N2015 1.427 . S
C2008 H1999 0.930 . S
C2008 C2006 1.378 . S
C2008 C2009 1.367 . S
C2009 C2008 1.367 . S
C2009 C2011 1.433 . S
C2010 C2006 1.350 . S
C2010 C2007 1.463 . S
C2010 N2014 1.427 . S
C2011 H2001 0.929 . S
C2011 C2009 1.433 . S
C2011 N2014 1.384 . S
C2012 H2003 0.929 . S
C2012 C2004 1.378 . S
C2012 C2007 1.350 . S
C2013 H2000 0.929 . S
C2013 C2005 1.433 . S
C2013 N2015 1.384 . S
N2014 C2010 1.427 . S
N2014 C2011 1.384 . S
N2015 C2007 1.427 . S
N2015 C2013 1.384 . S
H2016 C2022 0.930 . S
H2017 C2026 0.930 . S
H2018 C2031 0.929 . S
H2019 C2029 0.929 . S
H2020 C2024 0.929 . S
H2021 C2030 0.929 . S
C2022 H2016 0.930 . S
C2022 C2023 1.367 . S
C2022 C2030 1.378 . S
C2023 C2022 1.367 . S
C2023 C2031 1.433 . S
C2024 H2020 0.929 . S
C2024 C2026 1.378 . S
C2024 C2028 1.350 . S
C2025 C2028 1.463 . S
C2025 C2030 1.350 . S
C2025 N2033 1.427 . S
C2026 H2017 0.930 . S
C2026 C2024 1.378 . S
C2026 C2027 1.367 . S
C2027 C2026 1.367 . S
C2027 C2029 1.433 . S
C2028 C2024 1.350 . S
C2028 C2025 1.463 . S
C2028 N2032 1.427 . S
C2029 H2019 0.929 . S
C2029 C2027 1.433 . S
C2029 N2032 1.384 . S
C2030 H2021 0.929 . S
C2030 C2022 1.378 . S
C2030 C2025 1.350 . S
C2031 H2018 0.929 . S
C2031 C2023 1.433 . S
C2031 N2033 1.384 . S
N2032 C2028 1.427 . S
N2032 C2029 1.384 . S
N2033 C2025 1.427 . S
N2033 C2031 1.384 . S
H2034 C2040 0.930 . S
H2035 C2044 0.930 . S
H2036 C2049 0.929 . S
H2037 C2047 0.929 . S
H2038 C2042 0.929 . S
H2039 C2048 0.929 . S
C2040 H2034 0.930 . S
C2040 C2041 1.367 . S
C2040 C2048 1.378 . S
C2041 C2040 1.367 . S
C2041 C2049 1.433 . S
C2042 H2038 0.929 . S
C2042 C2044 1.378 . S
C2042 C2046 1.350 . S
C2043 C2046 1.463 . S
C2043 C2048 1.350 . S
C2043 N2051 1.427 . S
C2044 H2035 0.930 . S
C2044 C2042 1.378 . S
C2044 C2045 1.367 . S
C2045 C2044 1.367 . S
C2045 C2047 1.433 . S
C2046 C2042 1.350 . S
C2046 C2043 1.463 . S
C2046 N2050 1.427 . S
C2047 H2037 0.929 . S
C2047 C2045 1.433 . S
C2047 N2050 1.384 . S
C2048 H2039 0.929 . S
C2048 C2040 1.378 . S
C2048 C2043 1.350 . S
C2049 H2036 0.929 . S
C2049 C2041 1.433 . S
C2049 N2051 1.384 . S
N2050 C2046 1.427 . S
N2050 C2047 1.384 . S
N2051 C2043 1.427 . S
N2051 C2049 1.384 . S
H2052 C2058 0.930 . S
H2053 C2062 0.930 . S
H2054 C2067 0.929 . S
H2055 C2065 0.929 . S
H2056 C2060 0.929 . S
H2057 C2066 0.929 . S
C2058 H2052 0.930 . S
C2058 C2059 1.367 . S
C2058 C2066 1.378 . S
C2059 C2058 1.367 . S
C2059 C2067 1.433 . S
C2060 H2056 0.929 . S
C2060 C2062 1.378 . S
C2060 C2064 1.350 . S
C2061 C2064 1.463 1_455 S
C2061 C2066 1.350 . S
C2061 N2069 1.427 1_455 S
C2062 H2053 0.930 . S
C2062 C2060 1.378 . S
C2062 C2063 1.367 . S
C2063 C2062 1.367 . S
C2063 C2065 1.433 . S
C2064 C2060 1.350 . S
C2064 C2061 1.463 1_655 S
C2064 N2068 1.427 1_655 S
C2065 H2055 0.929 . S
C2065 C2063 1.433 . S
C2065 N2068 1.384 1_655 S
C2066 H2057 0.929 . S
C2066 C2058 1.378 . S
C2066 C2061 1.350 . S
C2067 H2054 0.929 . S
C2067 C2059 1.433 . S
C2067 N2069 1.384 1_455 S
N2068 C2064 1.427 1_455 S
N2068 C2065 1.384 1_455 S
N2069 C2061 1.427 1_655 S
N2069 C2067 1.384 1_655 S
H2070 C2076 0.930 . S
H2071 C2080 0.930 . S
H2072 C2085 0.929 . S
H2073 C2083 0.929 . S
H2074 C2078 0.929 . S
H2075 C2084 0.929 . S
C2076 H2070 0.930 . S
C2076 C2077 1.367 . S
C2076 C2084 1.378 . S
C2077 C2076 1.367 . S
C2077 C2085 1.433 . S
C2078 H2074 0.929 . S
C2078 C2080 1.378 . S
C2078 C2082 1.350 . S
C2079 C2082 1.463 . S
C2079 C2084 1.350 . S
C2079 N2087 1.427 . S
C2080 H2071 0.930 . S
C2080 C2078 1.378 . S
C2080 C2081 1.367 . S
C2081 C2080 1.367 . S
C2081 C2083 1.433 . S
C2082 C2078 1.350 . S
C2082 C2079 1.463 . S
C2082 N2086 1.427 . S
C2083 H2073 0.929 . S
C2083 C2081 1.433 . S
C2083 N2086 1.384 . S
C2084 H2075 0.929 . S
C2084 C2076 1.378 . S
C2084 C2079 1.350 . S
C2085 H2072 0.929 . S
C2085 C2077 1.433 . S
C2085 N2087 1.384 . S
N2086 C2082 1.427 . S
N2086 C2083 1.384 . S
N2087 C2079 1.427 . S
N2087 C2085 1.384 . S
H2088 C2094 0.930 . S
H2089 C2098 0.930 . S
H2090 C2103 0.929 . S
H2091 C2101 0.929 . S
H2092 C2096 0.929 . S
H2093 C2102 0.929 . S
C2094 H2088 0.930 . S
C2094 C2095 1.367 . S
C2094 C2102 1.378 1_545 S
C2095 C2094 1.367 . S
C2095 C2103 1.433 . S
C2096 H2092 0.929 . S
C2096 C2098 1.378 1_545 S
C2096 C2100 1.350 1_545 S
C2097 C2100 1.463 1_545 S
C2097 C2102 1.350 1_545 S
C2097 N2105 1.427 . S
C2098 H2089 0.930 . S
C2098 C2096 1.378 1_565 S
C2098 C2099 1.367 . S
C2099 C2098 1.367 . S
C2099 C2101 1.433 . S
C2100 C2096 1.350 1_565 S
C2100 C2097 1.463 1_565 S
C2100 N2104 1.427 . S
C2101 H2091 0.929 . S
C2101 C2099 1.433 . S
C2101 N2104 1.384 . S
C2102 H2093 0.929 . S
C2102 C2094 1.378 1_565 S
C2102 C2097 1.350 1_565 S
C2103 H2090 0.929 . S
C2103 C2095 1.433 . S
C2103 N2105 1.384 . S
N2104 C2100 1.427 . S
N2104 C2101 1.384 . S
N2105 C2097 1.427 . S
N2105 C2103 1.384 . S
H2106 C2112 0.930 . S
H2107 C2116 0.930 . S
H2108 C2121 0.929 . S
H2109 C2119 0.929 . S
H2110 C2114 0.929 1_565 S
H2111 C2120 0.929 . S
C2112 H2106 0.930 . S
C2112 C2113 1.367 . S
C2112 C2120 1.378 1_565 S
C2113 C2112 1.367 . S
C2113 C2121 1.433 . S
C2114 H2110 0.929 1_545 S
C2114 C2116 1.378 . S
C2114 C2118 1.350 . S
C2115 C2118 1.463 1_564 S
C2115 C2120 1.350 1_565 S
C2115 N2123 1.427 . S
C2116 H2107 0.930 . S
C2116 C2114 1.378 . S
C2116 C2117 1.367 . S
C2117 C2116 1.367 . S
C2117 C2119 1.433 . S
C2118 C2114 1.350 . S
C2118 C2115 1.463 1_546 S
C2118 N2122 1.427 . S
C2119 H2109 0.929 . S
C2119 C2117 1.433 . S
C2119 N2122 1.384 . S
C2120 H2111 0.929 . S
C2120 C2112 1.378 1_545 S
C2120 C2115 1.350 1_545 S
C2121 H2108 0.929 . S
C2121 C2113 1.433 . S
C2121 N2123 1.384 . S
N2122 C2118 1.427 . S
N2122 C2119 1.384 . S
N2123 C2115 1.427 . S
N2123 C2121 1.384 . S
H2124 C2130 0.930 . S
H2125 C2134 0.930 . S
H2126 C2139 0.929 . S
H2127 C2137 0.929 . S
H2128 C2132 0.929 1_556 S
H2129 C2138 0.929 1_554 S
C2130 H2124 0.930 . S
C2130 C2131 1.367 . S
C2130 C2138 1.378 . S
C2131 C2130 1.367 . S
C2131 C2139 1.433 . S
C2132 H2128 0.929 1_554 S
C2132 C2134 1.378 . S
C2132 C2136 1.350 . S
C2133 C2136 1.463 1_656 S
C2133 C2138 1.350 . S
C2133 N2141 1.427 . S
C2134 H2125 0.930 . S
C2134 C2132 1.378 . S
C2134 C2135 1.367 . S
C2135 C2134 1.367 . S
C2135 C2137 1.433 . S
C2136 C2132 1.350 . S
C2136 C2133 1.463 1_454 S
C2136 N2140 1.427 1_455 S
C2137 H2127 0.929 . S
C2137 C2135 1.433 . S
C2137 N2140 1.384 1_455 S
C2138 H2129 0.929 1_556 S
C2138 C2130 1.378 . S
C2138 C2133 1.350 . S
C2139 H2126 0.929 . S
C2139 C2131 1.433 . S
C2139 N2141 1.384 . S
N2140 C2136 1.427 1_655 S
N2140 C2137 1.384 1_655 S
N2141 C2133 1.427 . S
N2141 C2139 1.384 . S
H2142 C2148 0.930 . S
H2143 C2152 0.930 . S
H2144 C2157 0.929 . S
H2145 C2155 0.929 . S
H2146 C2150 0.929 . S
H2147 C2156 0.929 . S
C2148 H2142 0.930 . S
C2148 C2149 1.367 . S
C2148 C2156 1.378 . S
C2149 C2148 1.367 . S
C2149 C2157 1.433 . S
C2150 H2146 0.929 . S
C2150 C2152 1.378 . S
C2150 C2154 1.350 . S
C2151 C2154 1.463 1_554 S
C2151 C2156 1.350 . S
C2151 N2159 1.427 . S
C2152 H2143 0.930 . S
C2152 C2150 1.378 . S
C2152 C2153 1.367 . S
C2153 C2152 1.367 . S
C2153 C2155 1.433 . S
C2154 C2150 1.350 . S
C2154 C2151 1.463 1_556 S
C2154 N2158 1.427 . S
C2155 H2145 0.929 . S
C2155 C2153 1.433 . S
C2155 N2158 1.384 . S
C2156 H2147 0.929 . S
C2156 C2148 1.378 . S
C2156 C2151 1.350 . S
C2157 H2144 0.929 . S
C2157 C2149 1.433 . S
C2157 N2159 1.384 . S
N2158 C2154 1.427 . S
N2158 C2155 1.384 . S
N2159 C2151 1.427 . S
N2159 C2157 1.384 . S
H2160 C2166 0.930 . S
H2161 C2170 0.909 1_565 S
H2162 C2175 0.929 . S
H2163 C2173 0.929 . S
H2164 C2168 0.929 . S
H2165 C2174 0.929 . S
C2166 H2160 0.930 . S
C2166 C2167 1.367 . S
C2166 C2174 1.378 . S
C2167 C2166 1.367 . S
C2167 C2175 1.433 1_554 S
C2168 H2164 0.929 . S
C2168 C2170 1.378 . S
C2168 C2172 1.350 . S
C2169 C2172 1.463 . S
C2169 C2174 1.350 1_556 S
C2169 N2177 1.427 . S
C2170 H2161 0.909 1_545 S
C2170 C2168 1.378 . S
C2170 C2171 1.367 1_545 S
C2171 C2170 1.367 1_565 S
C2171 C2173 1.433 . S
C2172 C2168 1.350 . S
C2172 C2169 1.463 . S
C2172 N2176 1.427 . S
C2173 H2163 0.929 . S
C2173 C2171 1.433 . S
C2173 N2176 1.384 1_565 S
C2174 H2165 0.929 . S
C2174 C2166 1.378 . S
C2174 C2169 1.350 1_554 S
C2175 H2162 0.929 . S
C2175 C2167 1.433 1_556 S
C2175 N2177 1.384 . S
N2176 C2172 1.427 . S
N2176 C2173 1.384 1_545 S
N2177 C2169 1.427 . S
N2177 C2175 1.384 . S
H2178 C2184 0.925 1_554 S
H2179 C2188 0.928 . S
H2180 C2193 0.927 1_554 S
H2181 C2191 0.929 . S
H2182 C2186 0.929 . S
H2183 C2192 0.929 . S
C2184 H2178 0.925 1_556 S
C2184 C2185 1.367 1_556 S
C2184 C2192 1.378 . S
C2185 C2184 1.367 1_554 S
C2185 C2193 1.433 1_554 S
C2186 H2182 0.929 . S
C2186 C2188 1.371 1_655 S
C2186 C2190 1.350 . S
C2187 C2190 1.463 . S
C2187 C2192 1.350 . S
C2187 N2195 1.427 . S
C2188 H2179 0.928 . S
C2188 C2186 1.371 1_455 S
C2188 C2189 1.376 . S
C2189 C2188 1.376 . S
C2189 C2191 1.433 . S
C2190 C2186 1.350 . S
C2190 C2187 1.463 . S
C2190 N2194 1.427 . S
C2191 H2181 0.929 . S
C2191 C2189 1.433 . S
C2191 N2194 1.384 1_455 S
C2192 H2183 0.929 . S
C2192 C2184 1.378 . S
C2192 C2187 1.350 . S
C2193 H2180 0.927 1_556 S
C2193 C2185 1.433 1_556 S
C2193 N2195 1.384 . S
N2194 C2190 1.427 . S
N2194 C2191 1.384 1_655 S
N2195 C2187 1.427 . S
N2195 C2193 1.384 . S
H2196 C2202 0.930 . S
H2197 C2206 0.935 . S
H2198 C2211 0.929 . S
H2199 C2209 0.929 . S
H2200 C2204 0.929 . S
H2201 C2210 0.929 . S
C2202 H2196 0.930 . S
C2202 C2203 1.367 . S
C2202 C2210 1.378 . S
C2203 C2202 1.367 . S
C2203 C2211 1.433 . S
C2204 H2200 0.929 . S
C2204 C2206 1.372 1_556 S
C2204 C2208 1.350 . S
C2205 C2208 1.463 . S
C2205 C2210 1.350 . S
C2205 N2213 1.427 . S
C2206 H2197 0.935 . S
C2206 C2204 1.372 1_554 S
C2206 C2207 1.368 . S
C2207 C2206 1.368 . S
C2207 C2209 1.433 1_554 S
C2208 C2204 1.350 . S
C2208 C2205 1.463 . S
C2208 N2212 1.427 . S
C2209 H2199 0.929 . S
C2209 C2207 1.433 1_556 S
C2209 N2212 1.384 . S
C2210 H2201 0.929 . S
C2210 C2202 1.378 . S
C2210 C2205 1.350 . S
C2211 H2198 0.929 . S
C2211 C2203 1.433 . S
C2211 N2213 1.384 . S
N2212 C2208 1.427 . S
N2212 C2209 1.384 . S
N2213 C2205 1.427 . S
N2213 C2211 1.384 . S
H2214 C2220 0.930 . S
H2215 C2224 0.930 . S
H2216 C2229 0.926 . S
H2217 C2227 0.929 . S
H2218 C2222 0.929 . S
H2219 C2228 0.929 . S
C2220 H2214 0.930 . S
C2220 C2221 1.367 . S
C2220 C2228 1.378 1_655 S
C2221 C2220 1.367 . S
C2221 C2229 1.433 1_655 S
C2222 H2218 0.929 . S
C2222 C2224 1.378 . S
C2222 C2226 1.350 . S
C2223 C2226 1.463 . S
C2223 C2228 1.350 . S
C2223 N2231 1.427 . S
C2224 H2215 0.930 . S
C2224 C2222 1.378 . S
C2224 C2225 1.367 . S
C2225 C2224 1.367 . S
C2225 C2227 1.433 . S
C2226 C2222 1.350 . S
C2226 C2223 1.463 . S
C2226 N2230 1.427 . S
C2227 H2217 0.929 . S
C2227 C2225 1.433 . S
C2227 N2230 1.384 . S
C2228 H2219 0.929 . S
C2228 C2220 1.378 1_455 S
C2228 C2223 1.350 . S
C2229 H2216 0.926 . S
C2229 C2221 1.433 1_455 S
C2229 N2231 1.384 . S
N2230 C2226 1.427 . S
N2230 C2227 1.384 . S
N2231 C2223 1.427 . S
N2231 C2229 1.384 . S
H2232 C2238 0.930 . S
H2233 C2242 0.930 . S
H2234 C2247 0.929 . S
H2235 C2245 0.929 . S
H2236 C2240 0.929 . S
H2237 C2246 0.929 . S
C2238 H2232 0.930 . S
C2238 C2239 1.367 . S
C2238 C2246 1.378 . S
C2239 C2238 1.367 . S
C2239 C2247 1.433 . S
C2240 H2236 0.929 . S
C2240 C2242 1.378 . S
C2240 C2244 1.350 . S
C2241 C2244 1.463 . S
C2241 C2246 1.350 . S
C2241 N2249 1.427 . S
C2242 H2233 0.930 . S
C2242 C2240 1.378 . S
C2242 C2243 1.367 . S
C2243 C2242 1.367 . S
C2243 C2245 1.433 . S
C2244 C2240 1.350 . S
C2244 C2241 1.463 . S
C2244 N2248 1.427 . S
C2245 H2235 0.929 . S
C2245 C2243 1.433 . S
C2245 N2248 1.384 . S
C2246 H2237 0.929 . S
C2246 C2238 1.378 . S
C2246 C2241 1.350 . S
C2247 H2234 0.929 . S
C2247 C2239 1.433 . S
C2247 N2249 1.384 . S
N2248 C2244 1.427 . S
N2248 C2245 1.384 . S
N2249 C2241 1.427 . S
N2249 C2247 1.384 . S
H2250 C2256 0.913 1_545 S
H2251 C2260 0.930 . S
H2252 C2265 0.929 . S
H2253 C2263 0.929 . S
H2254 C2258 0.929 . S
H2255 C2264 0.929 . S
C2256 H2250 0.913 1_565 S
C2256 C2257 1.358 1_565 S
C2256 C2264 1.406 . S
C2257 C2256 1.358 1_545 S
C2257 C2265 1.433 . S
C2258 H2254 0.929 . S
C2258 C2260 1.378 . S
C2258 C2262 1.350 . S
C2259 C2262 1.463 . S
C2259 C2264 1.350 . S
C2259 N2267 1.427 . S
C2260 H2251 0.930 . S
C2260 C2258 1.378 . S
C2260 C2261 1.367 . S
C2261 C2260 1.367 . S
C2261 C2263 1.433 . S
C2262 C2258 1.350 . S
C2262 C2259 1.463 . S
C2262 N2266 1.427 . S
C2263 H2253 0.929 . S
C2263 C2261 1.433 . S
C2263 N2266 1.384 . S
C2264 H2255 0.929 . S
C2264 C2256 1.406 . S
C2264 C2259 1.350 . S
C2265 H2252 0.929 . S
C2265 C2257 1.433 . S
C2265 N2267 1.384 1_545 S
N2266 C2262 1.427 . S
N2266 C2263 1.384 . S
N2267 C2259 1.427 . S
N2267 C2265 1.384 1_565 S
H2268 C2274 0.920 1_545 S
H2269 C2278 0.930 . S
H2270 C2283 0.929 . S
H2271 C2281 0.929 . S
H2272 C2276 0.929 . S
H2273 C2282 0.929 . S
C2274 H2268 0.920 1_565 S
C2274 C2275 1.367 1_565 S
C2274 C2282 1.378 . S
C2275 C2274 1.367 1_545 S
C2275 C2283 1.433 . S
C2276 H2272 0.929 . S
C2276 C2278 1.378 . S
C2276 C2280 1.350 1_556 S
C2277 C2280 1.463 . S
C2277 C2282 1.350 . S
C2277 N2285 1.427 . S
C2278 H2269 0.930 . S
C2278 C2276 1.378 . S
C2278 C2279 1.367 . S
C2279 C2278 1.367 . S
C2279 C2281 1.433 1_556 S
C2280 C2276 1.350 1_554 S
C2280 C2277 1.463 . S
C2280 N2284 1.427 . S
C2281 H2271 0.929 . S
C2281 C2279 1.433 1_554 S
C2281 N2284 1.384 . S
C2282 H2273 0.929 . S
C2282 C2274 1.378 . S
C2282 C2277 1.350 . S
C2283 H2270 0.929 . S
C2283 C2275 1.433 . S
C2283 N2285 1.384 1_545 S
N2284 C2280 1.427 . S
N2284 C2281 1.384 . S
N2285 C2277 1.427 . S
N2285 C2283 1.384 1_565 S
H2286 C2292 0.930 . S
H2287 C2296 0.930 . S
H2288 C2301 0.929 . S
H2289 C2299 0.929 . S
H2290 C2294 0.929 . S
H2291 C2300 0.929 . S
C2292 H2286 0.930 . S
C2292 C2293 1.367 . S
C2292 C2300 1.378 1_655 S
C2293 C2292 1.367 . S
C2293 C2301 1.433 . S
C2294 H2290 0.929 . S
C2294 C2296 1.378 . S
C2294 C2298 1.350 1_556 S
C2295 C2298 1.463 . S
C2295 C2300 1.350 . S
C2295 N2303 1.427 . S
C2296 H2287 0.930 . S
C2296 C2294 1.378 . S
C2296 C2297 1.367 . S
C2297 C2296 1.367 . S
C2297 C2299 1.433 1_556 S
C2298 C2294 1.350 1_554 S
C2298 C2295 1.463 . S
C2298 N2302 1.427 . S
C2299 H2289 0.929 . S
C2299 C2297 1.433 1_554 S
C2299 N2302 1.384 . S
C2300 H2291 0.929 . S
C2300 C2292 1.378 1_455 S
C2300 C2295 1.350 . S
C2301 H2288 0.929 . S
C2301 C2293 1.433 . S
C2301 N2303 1.384 1_655 S
N2302 C2298 1.427 . S
N2302 C2299 1.384 . S
N2303 C2295 1.427 . S
N2303 C2301 1.384 1_455 S
H2304 C2310 0.930 . S
H2305 C2314 0.930 . S
H2306 C2319 0.929 . S
H2307 C2317 0.929 . S
H2308 C2312 0.929 . S
H2309 C2318 0.929 . S
C2310 H2304 0.930 . S
C2310 C2311 1.367 . S
C2310 C2318 1.378 . S
C2311 C2310 1.367 . S
C2311 C2319 1.433 . S
C2312 H2308 0.929 . S
C2312 C2314 1.378 . S
C2312 C2316 1.350 1_556 S
C2313 C2316 1.463 . S
C2313 C2318 1.350 . S
C2313 N2321 1.427 . S
C2314 H2305 0.930 . S
C2314 C2312 1.378 . S
C2314 C2315 1.367 . S
C2315 C2314 1.367 . S
C2315 C2317 1.433 1_556 S
C2316 C2312 1.350 1_554 S
C2316 C2313 1.463 . S
C2316 N2320 1.427 . S
C2317 H2307 0.929 . S
C2317 C2315 1.433 1_554 S
C2317 N2320 1.384 . S
C2318 H2309 0.929 . S
C2318 C2310 1.378 . S
C2318 C2313 1.350 . S
C2319 H2306 0.929 . S
C2319 C2311 1.433 . S
C2319 N2321 1.384 . S
N2320 C2316 1.427 . S
N2320 C2317 1.384 . S
N2321 C2313 1.427 . S
N2321 C2319 1.384 . S
H2322 C2328 0.930 . S
H2323 C2332 0.956 . S
H2324 C2337 0.929 . S
H2325 C2335 0.929 . S
H2326 C2330 0.929 . S
H2327 C2336 0.929 . S
C2328 H2322 0.930 . S
C2328 C2329 1.367 . S
C2328 C2336 1.378 . S
C2329 C2328 1.367 . S
C2329 C2337 1.433 . S
C2330 H2326 0.929 . S
C2330 C2332 1.378 . S
C2330 C2334 1.350 . S
C2331 C2334 1.463 . S
C2331 C2336 1.350 . S
C2331 N2339 1.427 . S
C2332 H2323 0.956 . S
C2332 C2330 1.378 . S
C2332 C2333 1.367 1_655 S
C2333 C2332 1.367 1_455 S
C2333 C2335 1.433 . S
C2334 C2330 1.350 . S
C2334 C2331 1.463 . S
C2334 N2338 1.427 . S
C2335 H2325 0.929 . S
C2335 C2333 1.433 . S
C2335 N2338 1.384 1_455 S
C2336 H2327 0.929 . S
C2336 C2328 1.378 . S
C2336 C2331 1.350 . S
C2337 H2324 0.929 . S
C2337 C2329 1.433 . S
C2337 N2339 1.384 . S
N2338 C2334 1.427 . S
N2338 C2335 1.384 1_655 S
N2339 C2331 1.427 . S
N2339 C2337 1.384 . S
H2340 C2346 0.930 . S
H2341 C2350 0.930 . S
H2342 C2355 0.929 . S
H2343 C2353 0.929 . S
H2344 C2348 0.929 . S
H2345 C2354 0.929 . S
C2346 H2340 0.930 . S
C2346 C2347 1.367 . S
C2346 C2354 1.378 . S
C2347 C2346 1.367 . S
C2347 C2355 1.433 . S
C2348 H2344 0.929 . S
C2348 C2350 1.378 . S
C2348 C2352 1.350 . S
C2349 C2352 1.463 . S
C2349 C2354 1.350 . S
C2349 N2357 1.427 . S
C2350 H2341 0.930 . S
C2350 C2348 1.378 . S
C2350 C2351 1.367 . S
C2351 C2350 1.367 . S
C2351 C2353 1.433 . S
C2352 C2348 1.350 . S
C2352 C2349 1.463 . S
C2352 N2356 1.427 . S
C2353 H2343 0.929 . S
C2353 C2351 1.433 . S
C2353 N2356 1.384 . S
C2354 H2345 0.929 . S
C2354 C2346 1.378 . S
C2354 C2349 1.350 . S
C2355 H2342 0.929 . S
C2355 C2347 1.433 . S
C2355 N2357 1.384 . S
N2356 C2352 1.427 . S
N2356 C2353 1.384 . S
N2357 C2349 1.427 . S
N2357 C2355 1.384 . S
H2358 C2364 0.930 . S
H2359 C2368 0.930 . S
H2360 C2373 0.922 . S
H2361 C2371 0.929 . S
H2362 C2366 0.929 . S
H2363 C2372 0.929 . S
C2364 H2358 0.930 . S
C2364 C2365 1.367 . S
C2364 C2372 1.378 1_565 S
C2365 C2364 1.367 . S
C2365 C2373 1.433 1_565 S
C2366 H2362 0.929 . S
C2366 C2368 1.378 . S
C2366 C2370 1.350 . S
C2367 C2370 1.463 . S
C2367 C2372 1.350 . S
C2367 N2375 1.427 . S
C2368 H2359 0.930 . S
C2368 C2366 1.378 . S
C2368 C2369 1.367 . S
C2369 C2368 1.367 . S
C2369 C2371 1.433 . S
C2370 C2366 1.350 . S
C2370 C2367 1.463 . S
C2370 N2374 1.427 . S
C2371 H2361 0.929 . S
C2371 C2369 1.433 . S
C2371 N2374 1.384 . S
C2372 H2363 0.929 . S
C2372 C2364 1.378 1_545 S
C2372 C2367 1.350 . S
C2373 H2360 0.922 . S
C2373 C2365 1.433 1_545 S
C2373 N2375 1.384 . S
N2374 C2370 1.427 . S
N2374 C2371 1.384 . S
N2375 C2367 1.427 . S
N2375 C2373 1.384 . S
H2376 C2382 0.930 . S
H2377 C2386 0.930 . S
H2378 C2391 0.929 . S
H2379 C2389 0.929 . S
H2380 C2384 0.929 . S
H2381 C2390 0.929 . S
C2382 H2376 0.930 . S
C2382 C2383 1.367 . S
C2382 C2390 1.378 . S
C2383 C2382 1.367 . S
C2383 C2391 1.433 . S
C2384 H2380 0.929 . S
C2384 C2386 1.378 . S
C2384 C2388 1.350 . S
C2385 C2388 1.463 . S
C2385 C2390 1.350 . S
C2385 N2393 1.427 . S
C2386 H2377 0.930 . S
C2386 C2384 1.378 . S
C2386 C2387 1.367 . S
C2387 C2386 1.367 . S
C2387 C2389 1.433 . S
C2388 C2384 1.350 . S
C2388 C2385 1.463 . S
C2388 N2392 1.427 . S
C2389 H2379 0.929 . S
C2389 C2387 1.433 . S
C2389 N2392 1.384 . S
C2390 H2381 0.929 . S
C2390 C2382 1.378 . S
C2390 C2385 1.350 . S
C2391 H2378 0.929 . S
C2391 C2383 1.433 . S
C2391 N2393 1.384 . S
N2392 C2388 1.427 . S
N2392 C2389 1.384 . S
N2393 C2385 1.427 . S
N2393 C2391 1.384 . S
H2394 C2400 0.930 . S
H2395 C2404 0.930 . S
H2396 C2409 0.929 . S
H2397 C2407 0.929 . S
H2398 C2402 0.929 . S
H2399 C2408 0.929 . S
C2400 H2394 0.930 . S
C2400 C2401 1.367 . S
C2400 C2408 1.378 . S
C2401 C2400 1.367 . S
C2401 C2409 1.433 . S
C2402 H2398 0.929 . S
C2402 C2404 1.378 . S
C2402 C2406 1.350 . S
C2403 C2406 1.463 . S
C2403 C2408 1.350 . S
C2403 N2411 1.427 . S
C2404 H2395 0.930 . S
C2404 C2402 1.378 . S
C2404 C2405 1.367 . S
C2405 C2404 1.367 . S
C2405 C2407 1.433 . S
C2406 C2402 1.350 . S
C2406 C2403 1.463 . S
C2406 N2410 1.427 . S
C2407 H2397 0.929 . S
C2407 C2405 1.433 . S
C2407 N2410 1.384 . S
C2408 H2399 0.929 . S
C2408 C2400 1.378 . S
C2408 C2403 1.350 . S
C2409 H2396 0.929 . S
C2409 C2401 1.433 . S
C2409 N2411 1.384 . S
N2410 C2406 1.427 . S
N2410 C2407 1.384 . S
N2411 C2403 1.427 . S
N2411 C2409 1.384 . S
H2412 C2418 0.930 . S
H2413 C2422 0.930 . S
H2414 C2427 0.929 . S
H2415 C2425 0.929 . S
H2416 C2420 0.929 . S
H2417 C2426 0.929 . S
C2418 H2412 0.930 . S
C2418 C2419 1.367 . S
C2418 C2426 1.378 . S
C2419 C2418 1.367 . S
C2419 C2427 1.433 . S
C2420 H2416 0.929 . S
C2420 C2422 1.378 . S
C2420 C2424 1.350 . S
C2421 C2424 1.463 . S
C2421 C2426 1.350 . S
C2421 N2429 1.427 . S
C2422 H2413 0.930 . S
C2422 C2420 1.378 . S
C2422 C2423 1.367 . S
C2423 C2422 1.367 . S
C2423 C2425 1.433 . S
C2424 C2420 1.350 . S
C2424 C2421 1.463 . S
C2424 N2428 1.427 . S
C2425 H2415 0.929 . S
C2425 C2423 1.433 . S
C2425 N2428 1.384 . S
C2426 H2417 0.929 . S
C2426 C2418 1.378 . S
C2426 C2421 1.350 . S
C2427 H2414 0.929 . S
C2427 C2419 1.433 . S
C2427 N2429 1.384 . S
N2428 C2424 1.427 . S
N2428 C2425 1.384 . S
N2429 C2421 1.427 . S
N2429 C2427 1.384 . S
H2430 C2436 0.930 . S
H2431 C2440 0.930 . S
H2432 C2445 0.929 . S
H2433 C2443 0.929 . S
H2434 C2438 0.929 . S
H2435 C2444 0.929 . S
C2436 H2430 0.930 . S
C2436 C2437 1.367 . S
C2436 C2444 1.378 . S
C2437 C2436 1.367 . S
C2437 C2445 1.433 . S
C2438 H2434 0.929 . S
C2438 C2440 1.378 . S
C2438 C2442 1.350 . S
C2439 C2442 1.463 . S
C2439 C2444 1.350 . S
C2439 N2447 1.427 . S
C2440 H2431 0.930 . S
C2440 C2438 1.378 . S
C2440 C2441 1.367 . S
C2441 C2440 1.367 . S
C2441 C2443 1.433 . S
C2442 C2438 1.350 . S
C2442 C2439 1.463 . S
C2442 N2446 1.427 . S
C2443 H2433 0.929 . S
C2443 C2441 1.433 . S
C2443 N2446 1.384 . S
C2444 H2435 0.929 . S
C2444 C2436 1.378 . S
C2444 C2439 1.350 . S
C2445 H2432 0.929 . S
C2445 C2437 1.433 . S
C2445 N2447 1.384 . S
N2446 C2442 1.427 . S
N2446 C2443 1.384 . S
N2447 C2439 1.427 . S
N2447 C2445 1.384 . S
H2448 C2454 0.930 . S
H2449 C2458 0.930 . S
H2450 C2463 0.929 . S
H2451 C2461 0.929 . S
H2452 C2456 0.929 . S
H2453 C2462 0.929 . S
C2454 H2448 0.930 . S
C2454 C2455 1.367 . S
C2454 C2462 1.378 . S
C2455 C2454 1.367 . S
C2455 C2463 1.433 . S
C2456 H2452 0.929 . S
C2456 C2458 1.378 . S
C2456 C2460 1.350 . S
C2457 C2460 1.463 . S
C2457 C2462 1.350 . S
C2457 N2465 1.427 . S
C2458 H2449 0.930 . S
C2458 C2456 1.378 . S
C2458 C2459 1.367 . S
C2459 C2458 1.367 . S
C2459 C2461 1.433 . S
C2460 C2456 1.350 . S
C2460 C2457 1.463 . S
C2460 N2464 1.427 . S
C2461 H2451 0.929 . S
C2461 C2459 1.433 . S
C2461 N2464 1.384 . S
C2462 H2453 0.929 . S
C2462 C2454 1.378 . S
C2462 C2457 1.350 . S
C2463 H2450 0.929 . S
C2463 C2455 1.433 . S
C2463 N2465 1.384 . S
N2464 C2460 1.427 . S
N2464 C2461 1.384 . S
N2465 C2457 1.427 . S
N2465 C2463 1.384 . S
H2466 C2472 0.930 . S
H2467 C2476 0.930 . S
H2468 C2481 0.929 . S
H2469 C2479 0.929 . S
H2470 C2474 0.929 . S
H2471 C2480 0.929 . S
C2472 H2466 0.930 . S
C2472 C2473 1.367 . S
C2472 C2480 1.378 . S
C2473 C2472 1.367 . S
C2473 C2481 1.433 . S
C2474 H2470 0.929 . S
C2474 C2476 1.378 . S
C2474 C2478 1.350 . S
C2475 C2478 1.463 . S
C2475 C2480 1.350 . S
C2475 N2483 1.427 . S
C2476 H2467 0.930 . S
C2476 C2474 1.378 . S
C2476 C2477 1.367 . S
C2477 C2476 1.367 . S
C2477 C2479 1.433 . S
C2478 C2474 1.350 . S
C2478 C2475 1.463 . S
C2478 N2482 1.427 . S
C2479 H2469 0.929 . S
C2479 C2477 1.433 . S
C2479 N2482 1.384 . S
C2480 H2471 0.929 . S
C2480 C2472 1.378 . S
C2480 C2475 1.350 . S
C2481 H2468 0.929 . S
C2481 C2473 1.433 . S
C2481 N2483 1.384 . S
N2482 C2478 1.427 . S
N2482 C2479 1.384 . S
N2483 C2475 1.427 . S
N2483 C2481 1.384 . S
H2484 C2490 0.930 . S
H2485 C2494 0.930 . S
H2486 C2499 0.929 . S
H2487 C2497 0.929 . S
H2488 C2492 0.929 . S
H2489 C2498 0.929 . S
C2490 H2484 0.930 . S
C2490 C2491 1.367 . S
C2490 C2498 1.378 . S
C2491 C2490 1.367 . S
C2491 C2499 1.433 . S
C2492 H2488 0.929 . S
C2492 C2494 1.378 . S
C2492 C2496 1.350 . S
C2493 C2496 1.463 . S
C2493 C2498 1.350 . S
C2493 N2501 1.427 . S
C2494 H2485 0.930 . S
C2494 C2492 1.378 . S
C2494 C2495 1.367 . S
C2495 C2494 1.367 . S
C2495 C2497 1.433 . S
C2496 C2492 1.350 . S
C2496 C2493 1.463 . S
C2496 N2500 1.427 . S
C2497 H2487 0.929 . S
C2497 C2495 1.433 . S
C2497 N2500 1.384 . S
C2498 H2489 0.929 . S
C2498 C2490 1.378 . S
C2498 C2493 1.350 . S
C2499 H2486 0.929 . S
C2499 C2491 1.433 . S
C2499 N2501 1.384 . S
N2500 C2496 1.427 . S
N2500 C2497 1.384 . S
N2501 C2493 1.427 . S
N2501 C2499 1.384 . S
H2502 C2508 0.930 . S
H2503 C2512 0.930 . S
H2504 C2517 0.929 . S
H2505 C2515 0.929 . S
H2506 C2510 0.929 . S
H2507 C2516 0.929 . S
C2508 H2502 0.930 . S
C2508 C2509 1.367 . S
C2508 C2516 1.378 . S
C2509 C2508 1.367 . S
C2509 C2517 1.433 . S
C2510 H2506 0.929 . S
C2510 C2512 1.378 . S
C2510 C2514 1.350 . S
C2511 C2514 1.463 . S
C2511 C2516 1.350 . S
C2511 N2519 1.427 . S
C2512 H2503 0.930 . S
C2512 C2510 1.378 . S
C2512 C2513 1.367 . S
C2513 C2512 1.367 . S
C2513 C2515 1.433 . S
C2514 C2510 1.350 . S
C2514 C2511 1.463 . S
C2514 N2518 1.427 . S
C2515 H2505 0.929 . S
C2515 C2513 1.433 . S
C2515 N2518 1.384 . S
C2516 H2507 0.929 . S
C2516 C2508 1.378 . S
C2516 C2511 1.350 . S
C2517 H2504 0.929 . S
C2517 C2509 1.433 . S
C2517 N2519 1.384 . S
N2518 C2514 1.427 . S
N2518 C2515 1.384 . S
N2519 C2511 1.427 . S
N2519 C2517 1.384 . S
H2520 C2526 0.930 . S
H2521 C2530 0.930 . S
H2522 C2535 0.929 . S
H2523 C2533 0.929 . S
H2524 C2528 0.929 . S
H2525 C2534 0.929 . S
C2526 H2520 0.930 . S
C2526 C2527 1.367 . S
C2526 C2534 1.378 . S
C2527 C2526 1.367 . S
C2527 C2535 1.433 . S
C2528 H2524 0.929 . S
C2528 C2530 1.378 . S
C2528 C2532 1.350 . S
C2529 C2532 1.463 . S
C2529 C2534 1.350 . S
C2529 N2537 1.427 . S
C2530 H2521 0.930 . S
C2530 C2528 1.378 . S
C2530 C2531 1.367 . S
C2531 C2530 1.367 . S
C2531 C2533 1.433 . S
C2532 C2528 1.350 . S
C2532 C2529 1.463 . S
C2532 N2536 1.427 . S
C2533 H2523 0.929 . S
C2533 C2531 1.433 . S
C2533 N2536 1.384 . S
C2534 H2525 0.929 . S
C2534 C2526 1.378 . S
C2534 C2529 1.350 . S
C2535 H2522 0.929 . S
C2535 C2527 1.433 . S
C2535 N2537 1.384 . S
N2536 C2532 1.427 . S
N2536 C2533 1.384 . S
N2537 C2529 1.427 . S
N2537 C2535 1.384 . S
H2538 C2544 0.930 . S
H2539 C2548 0.930 . S
H2540 C2553 0.929 . S
H2541 C2551 0.929 . S
H2542 C2546 0.929 . S
H2543 C2552 0.929 . S
C2544 H2538 0.930 . S
C2544 C2545 1.367 . S
C2544 C2552 1.378 . S
C2545 C2544 1.367 . S
C2545 C2553 1.433 . S
C2546 H2542 0.929 . S
C2546 C2548 1.378 . S
C2546 C2550 1.350 . S
C2547 C2550 1.463 . S
C2547 C2552 1.350 . S
C2547 N2555 1.427 . S
C2548 H2539 0.930 . S
C2548 C2546 1.378 . S
C2548 C2549 1.367 . S
C2549 C2548 1.367 . S
C2549 C2551 1.433 . S
C2550 C2546 1.350 . S
C2550 C2547 1.463 . S
C2550 N2554 1.427 . S
C2551 H2541 0.929 . S
C2551 C2549 1.433 . S
C2551 N2554 1.384 . S
C2552 H2543 0.929 . S
C2552 C2544 1.378 . S
C2552 C2547 1.350 . S
C2553 H2540 0.929 . S
C2553 C2545 1.433 . S
C2553 N2555 1.384 . S
N2554 C2550 1.427 . S
N2554 C2551 1.384 . S
N2555 C2547 1.427 . S
N2555 C2553 1.384 . S
H2556 C2562 0.930 . S
H2557 C2566 0.930 . S
H2558 C2571 0.929 . S
H2559 C2569 0.929 . S
H2560 C2564 0.929 . S
H2561 C2570 0.929 . S
C2562 H2556 0.930 . S
C2562 C2563 1.367 . S
C2562 C2570 1.378 . S
C2563 C2562 1.367 . S
C2563 C2571 1.433 . S
C2564 H2560 0.929 . S
C2564 C2566 1.378 . S
C2564 C2568 1.350 . S
C2565 C2568 1.463 . S
C2565 C2570 1.350 . S
C2565 N2573 1.427 . S
C2566 H2557 0.930 . S
C2566 C2564 1.378 . S
C2566 C2567 1.367 . S
C2567 C2566 1.367 . S
C2567 C2569 1.433 . S
C2568 C2564 1.350 . S
C2568 C2565 1.463 . S
C2568 N2572 1.427 . S
C2569 H2559 0.929 . S
C2569 C2567 1.433 . S
C2569 N2572 1.384 . S
C2570 H2561 0.929 . S
C2570 C2562 1.378 . S
C2570 C2565 1.350 . S
C2571 H2558 0.929 . S
C2571 C2563 1.433 . S
C2571 N2573 1.384 . S
N2572 C2568 1.427 . S
N2572 C2569 1.384 . S
N2573 C2565 1.427 . S
N2573 C2571 1.384 . S
H2574 C2580 0.930 . S
H2575 C2584 0.930 . S
H2576 C2589 0.929 . S
H2577 C2587 0.929 . S
H2578 C2582 0.929 . S
H2579 C2588 0.929 . S
C2580 H2574 0.930 . S
C2580 C2581 1.367 . S
C2580 C2588 1.378 . S
C2581 C2580 1.367 . S
C2581 C2589 1.433 . S
C2582 H2578 0.929 . S
C2582 C2584 1.378 . S
C2582 C2586 1.350 . S
C2583 C2586 1.463 . S
C2583 C2588 1.350 . S
C2583 N2591 1.427 . S
C2584 H2575 0.930 . S
C2584 C2582 1.378 . S
C2584 C2585 1.367 . S
C2585 C2584 1.367 . S
C2585 C2587 1.433 . S
C2586 C2582 1.350 . S
C2586 C2583 1.463 . S
C2586 N2590 1.427 . S
C2587 H2577 0.929 . S
C2587 C2585 1.433 . S
C2587 N2590 1.384 . S
C2588 H2579 0.929 . S
C2588 C2580 1.378 . S
C2588 C2583 1.350 . S
C2589 H2576 0.929 . S
C2589 C2581 1.433 . S
C2589 N2591 1.384 . S
N2590 C2586 1.427 . S
N2590 C2587 1.384 . S
N2591 C2583 1.427 . S
N2591 C2589 1.384 . S
H2592 C2598 0.930 . S
H2593 C2602 0.930 . S
H2594 C2607 0.929 . S
H2595 C2605 0.929 . S
H2596 C2600 0.929 . S
H2597 C2606 0.929 . S
C2598 H2592 0.930 . S
C2598 C2599 1.367 . S
C2598 C2606 1.378 . S
C2599 C2598 1.367 . S
C2599 C2607 1.433 . S
C2600 H2596 0.929 . S
C2600 C2602 1.378 . S
C2600 C2604 1.350 . S
C2601 C2604 1.463 . S
C2601 C2606 1.350 . S
C2601 N2609 1.427 . S
C2602 H2593 0.930 . S
C2602 C2600 1.378 . S
C2602 C2603 1.367 . S
C2603 C2602 1.367 . S
C2603 C2605 1.433 . S
C2604 C2600 1.350 . S
C2604 C2601 1.463 . S
C2604 N2608 1.427 . S
C2605 H2595 0.929 . S
C2605 C2603 1.433 . S
C2605 N2608 1.384 . S
C2606 H2597 0.929 . S
C2606 C2598 1.378 . S
C2606 C2601 1.350 . S
C2607 H2594 0.929 . S
C2607 C2599 1.433 . S
C2607 N2609 1.384 . S
N2608 C2604 1.427 . S
N2608 C2605 1.384 . S
N2609 C2601 1.427 . S
N2609 C2607 1.384 . S
H2610 C2616 0.930 . S
H2611 C2620 0.930 . S
H2612 C2625 0.929 . S
H2613 C2623 0.929 . S
H2614 C2618 0.929 . S
H2615 C2624 0.929 . S
C2616 H2610 0.930 . S
C2616 C2617 1.367 . S
C2616 C2624 1.378 . S
C2617 C2616 1.367 . S
C2617 C2625 1.433 . S
C2618 H2614 0.929 . S
C2618 C2620 1.378 . S
C2618 C2622 1.350 . S
C2619 C2622 1.463 . S
C2619 C2624 1.350 . S
C2619 N2627 1.427 . S
C2620 H2611 0.930 . S
C2620 C2618 1.378 . S
C2620 C2621 1.367 . S
C2621 C2620 1.367 . S
C2621 C2623 1.433 . S
C2622 C2618 1.350 . S
C2622 C2619 1.463 . S
C2622 N2626 1.427 . S
C2623 H2613 0.929 . S
C2623 C2621 1.433 . S
C2623 N2626 1.384 . S
C2624 H2615 0.929 . S
C2624 C2616 1.378 . S
C2624 C2619 1.350 . S
C2625 H2612 0.929 . S
C2625 C2617 1.433 . S
C2625 N2627 1.384 . S
N2626 C2622 1.427 . S
N2626 C2623 1.384 . S
N2627 C2619 1.427 . S
N2627 C2625 1.384 . S
H2628 C2634 0.930 . S
H2629 C2638 0.930 . S
H2630 C2643 0.929 . S
H2631 C2641 0.929 . S
H2632 C2636 0.929 . S
H2633 C2642 0.929 . S
C2634 H2628 0.930 . S
C2634 C2635 1.367 . S
C2634 C2642 1.378 . S
C2635 C2634 1.367 . S
C2635 C2643 1.433 . S
C2636 H2632 0.929 . S
C2636 C2638 1.378 . S
C2636 C2640 1.350 . S
C2637 C2640 1.463 . S
C2637 C2642 1.350 . S
C2637 N2645 1.427 . S
C2638 H2629 0.930 . S
C2638 C2636 1.378 . S
C2638 C2639 1.367 . S
C2639 C2638 1.367 . S
C2639 C2641 1.433 . S
C2640 C2636 1.350 . S
C2640 C2637 1.463 . S
C2640 N2644 1.427 . S
C2641 H2631 0.929 . S
C2641 C2639 1.433 . S
C2641 N2644 1.384 . S
C2642 H2633 0.929 . S
C2642 C2634 1.378 . S
C2642 C2637 1.350 . S
C2643 H2630 0.929 . S
C2643 C2635 1.433 . S
C2643 N2645 1.384 . S
N2644 C2640 1.427 . S
N2644 C2641 1.384 . S
N2645 C2637 1.427 . S
N2645 C2643 1.384 . S
H2646 C2652 0.930 . S
H2647 C2656 0.930 . S
H2648 C2661 0.929 . S
H2649 C2659 0.929 . S
H2650 C2654 0.929 . S
H2651 C2660 0.929 . S
C2652 H2646 0.930 . S
C2652 C2653 1.367 . S
C2652 C2660 1.378 . S
C2653 C2652 1.367 . S
C2653 C2661 1.433 . S
C2654 H2650 0.929 . S
C2654 C2656 1.378 . S
C2654 C2658 1.350 . S
C2655 C2658 1.463 . S
C2655 C2660 1.350 . S
C2655 N2663 1.427 . S
C2656 H2647 0.930 . S
C2656 C2654 1.378 . S
C2656 C2657 1.367 . S
C2657 C2656 1.367 . S
C2657 C2659 1.433 . S
C2658 C2654 1.350 . S
C2658 C2655 1.463 . S
C2658 N2662 1.427 . S
C2659 H2649 0.929 . S
C2659 C2657 1.433 . S
C2659 N2662 1.384 . S
C2660 H2651 0.929 . S
C2660 C2652 1.378 . S
C2660 C2655 1.350 . S
C2661 H2648 0.929 . S
C2661 C2653 1.433 . S
C2661 N2663 1.384 . S
N2662 C2658 1.427 . S
N2662 C2659 1.384 . S
N2663 C2655 1.427 . S
N2663 C2661 1.384 . S
H2664 C2670 0.930 . S
H2665 C2674 0.930 . S
H2666 C2679 0.929 . S
H2667 C2677 0.929 . S
H2668 C2672 0.929 . S
H2669 C2678 0.929 . S
C2670 H2664 0.930 . S
C2670 C2671 1.367 . S
C2670 C2678 1.378 . S
C2671 C2670 1.367 . S
C2671 C2679 1.433 . S
C2672 H2668 0.929 . S
C2672 C2674 1.378 . S
C2672 C2676 1.350 . S
C2673 C2676 1.463 . S
C2673 C2678 1.350 . S
C2673 N2681 1.427 . S
C2674 H2665 0.930 . S
C2674 C2672 1.378 . S
C2674 C2675 1.367 . S
C2675 C2674 1.367 . S
C2675 C2677 1.433 . S
C2676 C2672 1.350 . S
C2676 C2673 1.463 . S
C2676 N2680 1.427 . S
C2677 H2667 0.929 . S
C2677 C2675 1.433 . S
C2677 N2680 1.384 . S
C2678 H2669 0.929 . S
C2678 C2670 1.378 . S
C2678 C2673 1.350 . S
C2679 H2666 0.929 . S
C2679 C2671 1.433 . S
C2679 N2681 1.384 . S
N2680 C2676 1.427 . S
N2680 C2677 1.384 . S
N2681 C2673 1.427 . S
N2681 C2679 1.384 . S
H2682 C2688 0.930 . S
H2683 C2692 0.930 . S
H2684 C2697 0.929 . S
H2685 C2695 0.929 . S
H2686 C2690 0.929 . S
H2687 C2696 0.929 . S
C2688 H2682 0.930 . S
C2688 C2689 1.367 . S
C2688 C2696 1.378 . S
C2689 C2688 1.367 . S
C2689 C2697 1.433 . S
C2690 H2686 0.929 . S
C2690 C2692 1.378 . S
C2690 C2694 1.350 . S
C2691 C2694 1.463 . S
C2691 C2696 1.350 . S
C2691 N2699 1.427 . S
C2692 H2683 0.930 . S
C2692 C2690 1.378 . S
C2692 C2693 1.367 . S
C2693 C2692 1.367 . S
C2693 C2695 1.433 . S
C2694 C2690 1.350 . S
C2694 C2691 1.463 . S
C2694 N2698 1.427 . S
C2695 H2685 0.929 . S
C2695 C2693 1.433 . S
C2695 N2698 1.384 . S
C2696 H2687 0.929 . S
C2696 C2688 1.378 . S
C2696 C2691 1.350 . S
C2697 H2684 0.929 . S
C2697 C2689 1.433 . S
C2697 N2699 1.384 . S
N2698 C2694 1.427 . S
N2698 C2695 1.384 . S
N2699 C2691 1.427 . S
N2699 C2697 1.384 . S
H2700 C2706 0.930 . S
H2701 C2710 0.930 . S
H2702 C2715 0.929 . S
H2703 C2713 0.929 . S
H2704 C2708 0.929 . S
H2705 C2714 0.929 . S
C2706 H2700 0.930 . S
C2706 C2707 1.367 . S
C2706 C2714 1.378 . S
C2707 C2706 1.367 . S
C2707 C2715 1.433 . S
C2708 H2704 0.929 . S
C2708 C2710 1.378 . S
C2708 C2712 1.350 . S
C2709 C2712 1.463 . S
C2709 C2714 1.350 . S
C2709 N2717 1.427 . S
C2710 H2701 0.930 . S
C2710 C2708 1.378 . S
C2710 C2711 1.367 . S
C2711 C2710 1.367 . S
C2711 C2713 1.433 . S
C2712 C2708 1.350 . S
C2712 C2709 1.463 . S
C2712 N2716 1.427 . S
C2713 H2703 0.929 . S
C2713 C2711 1.433 . S
C2713 N2716 1.384 . S
C2714 H2705 0.929 . S
C2714 C2706 1.378 . S
C2714 C2709 1.350 . S
C2715 H2702 0.929 . S
C2715 C2707 1.433 . S
C2715 N2717 1.384 . S
N2716 C2712 1.427 . S
N2716 C2713 1.384 . S
N2717 C2709 1.427 . S
N2717 C2715 1.384 . S
H2718 C2724 0.930 . S
H2719 C2728 0.930 . S
H2720 C2733 0.929 . S
H2721 C2731 0.929 . S
H2722 C2726 0.929 . S
H2723 C2732 0.929 . S
C2724 H2718 0.930 . S
C2724 C2725 1.367 . S
C2724 C2732 1.378 . S
C2725 C2724 1.367 . S
C2725 C2733 1.433 . S
C2726 H2722 0.929 . S
C2726 C2728 1.378 . S
C2726 C2730 1.350 . S
C2727 C2730 1.463 . S
C2727 C2732 1.350 . S
C2727 N2735 1.427 . S
C2728 H2719 0.930 . S
C2728 C2726 1.378 . S
C2728 C2729 1.367 . S
C2729 C2728 1.367 . S
C2729 C2731 1.433 . S
C2730 C2726 1.350 . S
C2730 C2727 1.463 . S
C2730 N2734 1.427 . S
C2731 H2721 0.929 . S
C2731 C2729 1.433 . S
C2731 N2734 1.384 . S
C2732 H2723 0.929 . S
C2732 C2724 1.378 . S
C2732 C2727 1.350 . S
C2733 H2720 0.929 . S
C2733 C2725 1.433 . S
C2733 N2735 1.384 . S
N2734 C2730 1.427 . S
N2734 C2731 1.384 . S
N2735 C2727 1.427 . S
N2735 C2733 1.384 . S
H2736 C2742 0.930 . S
H2737 C2746 0.930 . S
H2738 C2751 0.929 . S
H2739 C2749 0.929 . S
H2740 C2744 0.929 . S
H2741 C2750 0.929 . S
C2742 H2736 0.930 . S
C2742 C2743 1.367 . S
C2742 C2750 1.378 . S
C2743 C2742 1.367 . S
C2743 C2751 1.433 . S
C2744 H2740 0.929 . S
C2744 C2746 1.378 . S
C2744 C2748 1.350 . S
C2745 C2748 1.463 . S
C2745 C2750 1.350 . S
C2745 N2753 1.427 . S
C2746 H2737 0.930 . S
C2746 C2744 1.378 . S
C2746 C2747 1.367 . S
C2747 C2746 1.367 . S
C2747 C2749 1.433 . S
C2748 C2744 1.350 . S
C2748 C2745 1.463 . S
C2748 N2752 1.427 . S
C2749 H2739 0.929 . S
C2749 C2747 1.433 . S
C2749 N2752 1.384 . S
C2750 H2741 0.929 . S
C2750 C2742 1.378 . S
C2750 C2745 1.350 . S
C2751 H2738 0.929 . S
C2751 C2743 1.433 . S
C2751 N2753 1.384 . S
N2752 C2748 1.427 . S
N2752 C2749 1.384 . S
N2753 C2745 1.427 . S
N2753 C2751 1.384 . S
H2754 C2760 0.930 . S
H2755 C2764 0.930 . S
H2756 C2769 0.929 . S
H2757 C2767 0.929 . S
H2758 C2762 0.929 . S
H2759 C2768 0.929 . S
C2760 H2754 0.930 . S
C2760 C2761 1.367 . S
C2760 C2768 1.378 . S
C2761 C2760 1.367 . S
C2761 C2769 1.433 . S
C2762 H2758 0.929 . S
C2762 C2764 1.378 . S
C2762 C2766 1.350 . S
C2763 C2766 1.463 . S
C2763 C2768 1.350 . S
C2763 N2771 1.427 . S
C2764 H2755 0.930 . S
C2764 C2762 1.378 . S
C2764 C2765 1.367 . S
C2765 C2764 1.367 . S
C2765 C2767 1.433 . S
C2766 C2762 1.350 . S
C2766 C2763 1.463 . S
C2766 N2770 1.427 . S
C2767 H2757 0.929 . S
C2767 C2765 1.433 . S
C2767 N2770 1.384 . S
C2768 H2759 0.929 . S
C2768 C2760 1.378 . S
C2768 C2763 1.350 . S
C2769 H2756 0.929 . S
C2769 C2761 1.433 . S
C2769 N2771 1.384 . S
N2770 C2766 1.427 . S
N2770 C2767 1.384 . S
N2771 C2763 1.427 . S
N2771 C2769 1.384 . S
H2772 C2778 0.930 . S
H2773 C2782 0.930 . S
H2774 C2787 0.929 . S
H2775 C2785 0.929 . S
H2776 C2780 0.929 . S
H2777 C2786 0.929 . S
C2778 H2772 0.930 . S
C2778 C2779 1.367 . S
C2778 C2786 1.378 . S
C2779 C2778 1.367 . S
C2779 C2787 1.433 . S
C2780 H2776 0.929 . S
C2780 C2782 1.378 . S
C2780 C2784 1.350 . S
C2781 C2784 1.463 . S
C2781 C2786 1.350 . S
C2781 N2789 1.427 . S
C2782 H2773 0.930 . S
C2782 C2780 1.378 . S
C2782 C2783 1.367 . S
C2783 C2782 1.367 . S
C2783 C2785 1.433 . S
C2784 C2780 1.350 . S
C2784 C2781 1.463 . S
C2784 N2788 1.427 . S
C2785 H2775 0.929 . S
C2785 C2783 1.433 . S
C2785 N2788 1.384 . S
C2786 H2777 0.929 . S
C2786 C2778 1.378 . S
C2786 C2781 1.350 . S
C2787 H2774 0.929 . S
C2787 C2779 1.433 . S
C2787 N2789 1.384 . S
N2788 C2784 1.427 . S
N2788 C2785 1.384 . S
N2789 C2781 1.427 . S
N2789 C2787 1.384 . S
H2790 C2796 0.930 . S
H2791 C2800 0.930 . S
H2792 C2805 0.929 . S
H2793 C2803 0.929 . S
H2794 C2798 0.929 . S
H2795 C2804 0.929 . S
C2796 H2790 0.930 . S
C2796 C2797 1.367 . S
C2796 C2804 1.378 . S
C2797 C2796 1.367 . S
C2797 C2805 1.433 . S
C2798 H2794 0.929 . S
C2798 C2800 1.378 . S
C2798 C2802 1.350 . S
C2799 C2802 1.463 . S
C2799 C2804 1.350 . S
C2799 N2807 1.427 . S
C2800 H2791 0.930 . S
C2800 C2798 1.378 . S
C2800 C2801 1.367 . S
C2801 C2800 1.367 . S
C2801 C2803 1.433 . S
C2802 C2798 1.350 . S
C2802 C2799 1.463 . S
C2802 N2806 1.427 . S
C2803 H2793 0.929 . S
C2803 C2801 1.433 . S
C2803 N2806 1.384 . S
C2804 H2795 0.929 . S
C2804 C2796 1.378 . S
C2804 C2799 1.350 . S
C2805 H2792 0.929 . S
C2805 C2797 1.433 . S
C2805 N2807 1.384 . S
N2806 C2802 1.427 . S
N2806 C2803 1.384 . S
N2807 C2799 1.427 . S
N2807 C2805 1.384 . S
C1195 C536 1.491 . S
C1199 C28 1.477 . S
C1213 C61 1.480 . S
C1217 C569 1.488 . S
C1231 C503 1.490 . S
C1235 C94 1.481 . S
C1249 C107 1.491 . S
C1253 C886 1.479 . S
C1267 C820 1.481 . S
C1271 C140 1.488 . S
C1285 C173 1.489 . S
C1289 C853 1.478 . S
C1303 C226 1.570 . S
C1307 C1150 1.575 . S
C1321 C259 1.575 . S
C1325 C1183 1.570 . S
C1339 C292 1.574 . S
C1343 C1117 1.568 . S
C1357 C325 1.570 . S
C1361 C688 1.575 . S
C1375 C358 1.575 . S
C1379 C622 1.570 . S
C1393 C391 1.575 . S
C1397 C655 1.570 . S
C1411 C424 1.478 . S
C1415 C932 1.491 . S
C1429 C965 1.490 . S
C1433 C457 1.478 . S
C1447 C899 1.491 . S
C1451 C490 1.478 . S
C1465 C1084 1.572 . S
C1469 C721 1.569 . S
C1483 C1018 1.575 . S
C1487 C754 1.570 . S
C1501 C787 1.575 . S
C1505 C1051 1.568 . S
C1519 N962 1.499 . S
C1523 N14 1.478 . S
C1537 N47 1.465 . S
C1541 N896 1.507 . S
C1555 N80 1.472 . S
C1559 N929 1.500 . S
C1573 N104 1.498 . S
C1577 N443 1.479 . S
C1591 N137 1.504 . S
C1595 N476 1.471 . S
C1609 N410 1.466 . S
C1613 N170 1.506 . S
C1627 N773 1.517 . S
C1631 N212 1.527 . S
C1645 N245 1.520 . S
C1649 N707 1.516 . S
C1663 N278 1.518 . S
C1667 N740 1.523 . S
C1681 N1037 1.520 . S
C1685 N311 1.523 . S
C1699 N1070 1.518 . S
C1703 N344 1.521 . S
C1717 N1004 1.527 . S
C1721 N377 1.509 . S
C1735 N500 1.506 . S
C1739 N839 1.467 . S
C1753 N533 1.502 . S
C1757 N872 1.474 . S
C1771 N566 1.502 . S
C1775 N806 1.474 . S
C1789 N608 1.520 . S
C1793 N1169 1.523 . S
C1807 N1103 1.520 . S
C1811 N641 1.518 . S
C1825 N674 1.520 . S
C1829 N1136 1.523 . S
C1843 C17 1.292 . S
C1847 C611 1.291 . S
C1861 C50 1.301 . S
C1865 C644 1.301 . S
C1879 C677 1.298 . S
C1883 C83 1.298 . S
C1897 C116 1.260 . S
C1901 C1106 1.264 . S
C1915 C149 1.261 . S
C1919 C1139 1.267 . S
C1933 C182 1.248 . S
C1937 C1172 1.258 . S
C1951 C809 1.295 . S
C1955 C215 1.295 . S
C1969 C248 1.293 . S
C1973 C842 1.293 . S
C1987 C875 1.295 . S
C1991 C281 1.295 . S
C2005 C512 1.248 . S
C2009 C314 1.257 . S
C2023 C545 1.258 . S
C2027 C347 1.262 . S
C2041 C380 1.259 . S
C2045 C578 1.249 . S
C2059 C1007 1.300 . S
C2063 C413 1.300 . S
C2077 C1040 1.301 . S
C2081 C446 1.301 . S
C2095 C479 1.291 . S
C2099 C1073 1.291 . S
C2113 C908 1.249 . S
C2117 C710 1.258 . S
C2131 C743 1.267 . S
C2135 C941 1.259 . S
C2149 C974 1.260 . S
C2153 C776 1.264 . S
C2167 N5 1.392 . S
C2171 C239 1.392 . S
C2185 N38 1.391 . S
C2189 C272 1.390 . S
C2203 C206 1.396 . S
C2207 N71 1.399 . S
C2221 C371 1.420 . S
C2225 N113 1.414 . S
C2239 C305 1.414 . S
C2243 N146 1.414 . S
C2257 C338 1.422 . S
C2261 N179 1.407 . S
C2275 C41 1.455 . S
C2279 N203 1.454 . S
C2293 C74 1.458 . S
C2297 N236 1.459 . S
C2311 C8 1.454 . S
C2315 N269 1.453 . S
C2329 N302 1.387 . S
C2333 C193 1.376 . S
C2347 N335 1.387 . S
C2351 C127 1.368 . S
C2365 C160 1.370 . S
C2369 N368 1.390 . S
C2383 C635 1.395 . S
C2387 N401 1.395 . S
C2401 N434 1.391 . S
C2405 C668 1.389 . S
C2419 C602 1.389 . S
C2423 N467 1.393 . S
C2437 C767 1.422 . S
C2441 N509 1.406 . S
C2455 N542 1.416 . S
C2459 C701 1.415 . S
C2473 N575 1.411 . S
C2477 C734 1.422 . S
C2491 N599 1.460 . S
C2495 C437 1.457 . S
C2509 N632 1.458 . S
C2513 C470 1.458 . S
C2527 N665 1.455 . S
C2531 C404 1.456 . S
C2545 N698 1.389 . S
C2549 C589 1.369 . S
C2563 C523 1.374 . S
C2567 N731 1.386 . S
C2581 C556 1.370 . S
C2585 N764 1.390 . S
C2599 C1031 1.389 . S
C2603 N797 1.394 . S
C2617 C1064 1.396 . S
C2621 N830 1.399 . S
C2635 C998 1.397 . S
C2639 N863 1.398 . S
C2653 C1163 1.419 . S
C2657 N905 1.414 . S
C2671 N938 1.406 . S
C2675 C1097 1.419 . S
C2689 C1130 1.416 . S
C2693 N971 1.416 . S
C2707 C833 1.450 . S
C2711 N995 1.453 . S
C2725 C866 1.450 . S
C2729 N1028 1.455 . S
C2743 C800 1.452 . S
C2747 N1061 1.457 . S
C2761 N1094 1.392 . S
C2765 C985 1.377 . S
C2779 N1127 1.386 . S
C2783 C919 1.375 . S
C2797 C952 1.376 . S
C2801 N1160 1.386 . S
