# Generated by pormake.
# Topology mmt, (4)-cn, num edge types: 1
# Building blocks:
#     Node 0, Type 0, BuildingBlock: UXUYUI_clean_sbu_0, # of connection points: 4
#     Node 1, Type 0, BuildingBlock: UXUYUI_clean_sbu_0, # of connection points: 4
#     Node 2, Type 0, BuildingBlock: UXUYUI_clean_sbu_0, # of connection points: 4
#     Node 3, Type 0, BuildingBlock: UXUYUI_clean_sbu_0, # of connection points: 4
#     Node 4, Type 0, BuildingBlock: UXUYUI_clean_sbu_0, # of connection points: 4
#     Node 5, Type 0, BuildingBlock: UXUYUI_clean_sbu_0, # of connection points: 4
#     Node 6, Type 0, BuildingBlock: UXUYUI_clean_sbu_0, # of connection points: 4
#     Node 7, Type 0, BuildingBlock: UXUYUI_clean_sbu_0, # of connection points: 4
#     Edge 8, Type (0, 0), BuildingBlock: XIVTED_clean_linker_0, # of connection points: 2
#     Edge 9, Type (0, 0), BuildingBlock: XIVTED_clean_linker_0, # of connection points: 2
#     Edge 10, Type (0, 0), BuildingBlock: XIVTED_clean_linker_0, # of connection points: 2
#     Edge 11, Type (0, 0), BuildingBlock: XIVTED_clean_linker_0, # of connection points: 2
#     Edge 12, Type (0, 0), BuildingBlock: XIVTED_clean_linker_0, # of connection points: 2
#     Edge 13, Type (0, 0), BuildingBlock: XIVTED_clean_linker_0, # of connection points: 2
#     Edge 14, Type (0, 0), BuildingBlock: XIVTED_clean_linker_0, # of connection points: 2
#     Edge 15, Type (0, 0), BuildingBlock: XIVTED_clean_linker_0, # of connection points: 2
#     Edge 16, Type (0, 0), BuildingBlock: XIVTED_clean_linker_0, # of connection points: 2
#     Edge 17, Type (0, 0), BuildingBlock: XIVTED_clean_linker_0, # of connection points: 2
#     Edge 18, Type (0, 0), BuildingBlock: XIVTED_clean_linker_0, # of connection points: 2
#     Edge 19, Type (0, 0), BuildingBlock: XIVTED_clean_linker_0, # of connection points: 2
#     Edge 20, Type (0, 0), BuildingBlock: XIVTED_clean_linker_0, # of connection points: 2
#     Edge 21, Type (0, 0), BuildingBlock: XIVTED_clean_linker_0, # of connection points: 2
#     Edge 22, Type (0, 0), BuildingBlock: XIVTED_clean_linker_0, # of connection points: 2
#     Edge 23, Type (0, 0), BuildingBlock: XIVTED_clean_linker_0, # of connection points: 2
# Relax obj value: 0.161
# Max RMSD: 0.176
# Mean RMSD: 0.176
data_MOF--net-mmt--node1-UXUYUI_clean_sbu_0--edge1-XIVTED_clean_linker_0
_symmetry_space_group_name_H-M    P1
_symmetry_Int_Tables_number       1
_symmetry_cell_setting            triclinic
loop_
_symmetry_equiv_pos_as_xyz
'x, y, z'
_cell_length_a     31.791399
_cell_length_b     57.717372
_cell_length_c     64.00593
_cell_angle_alpha  90.055467
_cell_angle_beta   90.029394
_cell_angle_gamma 90.024505
loop_
_atom_site_label
_atom_site_type_symbol
_atom_site_fract_x
_atom_site_fract_y
_atom_site_fract_z
_atom_type_partial_charge
Li0 Li 0.09458 0.56803 0.33207 0.0
Li1 Li 0.11326 0.55827 0.36794 0.0
Li2 Li 0.14396 0.59287 0.34961 0.0
Li3 Li 0.16706 0.5538 0.3404 0.0
C4 C 0.04392 0.59381 0.35501 0.0
N5 N 0.96142 0.60714 0.34867 0.0
C6 C 0.01143 0.58293 0.36595 0.0
C7 C 0.0345 0.6117 0.34106 0.0
C8 C 0.96991 0.58987 0.36248 0.0
C9 C 0.99259 0.61811 0.33801 0.0
C10 C 0.10904 0.51423 0.34739 0.0
C11 C 0.13884 0.47863 0.36047 0.0
N12 N 0.10268 0.4673 0.35551 0.0
C13 C 0.07242 0.50213 0.34212 0.0
C14 C 0.14272 0.5023 0.35639 0.0
C15 C 0.06971 0.47846 0.34647 0.0
C16 C 0.05506 0.57333 0.29242 0.0
N17 N 0.05029 0.5656 0.31233 0.0
C18 C 0.98276 0.54994 0.30421 0.0
C19 C 0.01492 0.55432 0.31846 0.0
C20 C 0.98698 0.55724 0.28336 0.0
C21 C 0.02353 0.56939 0.2776 0.0
H22 H 0.08375 0.58201 0.28789 0.0
H23 H 0.01224 0.54812 0.33433 0.0
C24 C 0.10777 0.55541 0.41183 0.0
N25 N 0.09239 0.54664 0.39365 0.0
C26 C 0.09286 0.54726 0.43098 0.0
C27 C 0.04582 0.52164 0.4123 0.0
C28 C 0.06166 0.53027 0.39355 0.0
C29 C 0.06155 0.53007 0.43136 0.0
H30 H 0.13175 0.5687 0.41144 0.0
H31 H 0.04884 0.52422 0.37891 0.0
C32 C 0.16809 0.5959 0.30961 0.0
N33 N 0.20679 0.63051 0.28681 0.0
C34 C 0.21023 0.59368 0.30372 0.0
C35 C 0.14547 0.61557 0.30363 0.0
C36 C 0.22927 0.6114 0.29226 0.0
C37 C 0.16564 0.63292 0.2922 0.0
C38 C 0.20509 0.56298 0.38032 0.0
C39 C 0.24032 0.57725 0.38272 0.0
C40 C 0.20298 0.5421 0.39133 0.0
C41 C 0.27331 0.5701 0.39562 0.0
C42 C 0.23657 0.53557 0.4041 0.0
N43 N 0.27079 0.54956 0.40593 0.0
C44 C 0.1373 0.64064 0.35968 0.0
C45 C 0.20468 0.62828 0.34845 0.0
C46 C 0.15174 0.66338 0.36181 0.0
N47 N 0.16376 0.62371 0.35298 0.0
C48 C 0.2204 0.65074 0.35029 0.0
C49 C 0.19382 0.66869 0.35702 0.0
H50 H 0.105 0.63647 0.36339 0.0
H51 H 0.22506 0.61447 0.34321 0.0
C52 C 0.20353 0.5193 0.31565 0.0
N53 N 0.21261 0.53612 0.32983 0.0
C54 C 0.23586 0.50756 0.30539 0.0
C55 C 0.28627 0.53049 0.32474 0.0
C56 C 0.25297 0.5417 0.33468 0.0
C57 C 0.27787 0.51348 0.30958 0.0
H58 H 0.17111 0.51558 0.31177 0.0
H59 H 0.25939 0.55559 0.34551 0.0
O60 O 0.08472 0.587 0.35794 0.0
O61 O 0.11218 0.53744 0.34317 0.0
O62 O 0.14907 0.57886 0.32108 0.0
O63 O 0.17237 0.56986 0.36784 0.0
H64 H 0.01813 0.56918 0.3769 0.0
H65 H 0.05925 0.62047 0.33264 0.0
H66 H 0.94444 0.58149 0.37075 0.0
H67 H 0.98484 0.63183 0.32716 0.0
H68 H 0.16469 0.46924 0.36747 0.0
H69 H 0.04624 0.5109 0.33483 0.0
H70 H 0.17186 0.51109 0.35986 0.0
H71 H 0.04141 0.46895 0.34262 0.0
H72 H 0.95564 0.54012 0.30933 0.0
H73 H 0.02799 0.57552 0.26177 0.0
H74 H 0.10603 0.55416 0.4453 0.0
H75 H 0.02097 0.50881 0.41185 0.0
H76 H 0.22815 0.57852 0.30805 0.0
H77 H 0.11278 0.61748 0.30788 0.0
H78 H 0.26193 0.60996 0.28771 0.0
H79 H 0.14859 0.64831 0.28761 0.0
H80 H 0.24233 0.59363 0.37464 0.0
H81 H 0.17547 0.53118 0.39034 0.0
H82 H 0.30087 0.58091 0.39746 0.0
H83 H 0.23532 0.51942 0.41265 0.0
H84 H 0.13028 0.6766 0.36733 0.0
H85 H 0.25286 0.65404 0.34611 0.0
H86 H 0.228 0.49483 0.29357 0.0
H87 H 0.31824 0.53552 0.32845 0.0
Li88 Li 0.33644 0.94529 0.33957 0.0
Li89 Li 0.35644 0.90702 0.34954 0.0
Li90 Li 0.38147 0.94163 0.36959 0.0
Li91 Li 0.40704 0.93339 0.33357 0.0
C92 C 0.28337 0.93128 0.37238 0.0
N93 N 0.20036 0.93486 0.38463 0.0
C94 C 0.25206 0.91936 0.36144 0.0
C95 C 0.27257 0.94494 0.38959 0.0
C96 C 0.21024 0.92142 0.36786 0.0
C97 C 0.23038 0.94655 0.39553 0.0
C98 C 0.3666 0.90347 0.30695 0.0
C99 C 0.40928 0.87071 0.29705 0.0
N100 N 0.38907 0.86982 0.27833 0.0
C101 C 0.34633 0.90226 0.28761 0.0
C102 C 0.39841 0.8876 0.31172 0.0
C103 C 0.3581 0.88511 0.27335 0.0
C104 C 0.30193 0.96724 0.30569 0.0
N105 N 0.29333 0.96302 0.32611 0.0
C106 C 0.22825 0.98356 0.32336 0.0
C107 C 0.2577 0.97128 0.3352 0.0
C108 C 0.23606 0.98797 0.30207 0.0
C109 C 0.27406 0.97996 0.29345 0.0
H110 H 0.33086 0.96085 0.29895 0.0
H111 H 0.25189 0.96844 0.35159 0.0
C112 C 0.35157 0.86222 0.36761 0.0
N113 N 0.33733 0.87603 0.35195 0.0
C114 C 0.33613 0.83965 0.36972 0.0
C115 C 0.29208 0.84604 0.33946 0.0
C116 C 0.30827 0.86841 0.33797 0.0
C117 C 0.30573 0.83136 0.35559 0.0
H118 H 0.37453 0.86884 0.37858 0.0
H119 H 0.29738 0.8798 0.32571 0.0
C120 C 0.37393 0.985 0.34248 0.0
N121 N 0.34143 0.02856 0.33488 0.0
C122 C 0.38622 0.9973 0.32471 0.0
C123 C 0.34538 0.99492 0.35648 0.0
C124 C 0.36935 0.01929 0.32112 0.0
C125 C 0.32925 0.01695 0.35234 0.0
C126 C 0.45482 0.91475 0.36717 0.0
C127 C 0.47564 0.93599 0.36914 0.0
C128 C 0.47478 0.89442 0.37361 0.0
C129 C 0.51621 0.9365 0.3775 0.0
C130 C 0.51541 0.89565 0.38187 0.0
N131 N 0.5351 0.91649 0.38364 0.0
C132 C 0.39614 0.93813 0.41296 0.0
C133 C 0.4115 0.97485 0.39823 0.0
C134 C 0.4104 0.94556 0.43252 0.0
N135 N 0.39709 0.95278 0.39636 0.0
C136 C 0.42563 0.98306 0.41748 0.0
C137 C 0.42545 0.9683 0.43491 0.0
H138 H 0.38496 0.92057 0.4109 0.0
H139 H 0.413 0.98593 0.38466 0.0
C140 C 0.43913 0.94665 0.29571 0.0
N141 N 0.45144 0.93632 0.31375 0.0
C142 C 0.4682 0.95127 0.27999 0.0
C143 C 0.52228 0.93395 0.30141 0.0
C144 C 0.49188 0.92933 0.31663 0.0
C145 C 0.51072 0.94546 0.2829 0.0
H146 H 0.40658 0.95156 0.29365 0.0
H147 H 0.50092 0.92049 0.33076 0.0
O148 O 0.3245 0.92946 0.36647 0.0
O149 O 0.35537 0.92031 0.32095 0.0
O150 O 0.38914 0.96319 0.346 0.0
O151 O 0.4147 0.91379 0.35949 0.0
H152 H 0.25989 0.90889 0.34798 0.0
H153 H 0.29654 0.95423 0.39823 0.0
H154 H 0.18563 0.91239 0.35949 0.0
H155 H 0.22151 0.95709 0.4088 0.0
H156 H 0.4338 0.85831 0.30053 0.0
H157 H 0.32173 0.91447 0.28367 0.0
H158 H 0.4146 0.88825 0.32656 0.0
H159 H 0.34264 0.88396 0.25833 0.0
H160 H 0.19945 0.98913 0.33082 0.0
H161 H 0.28252 0.98347 0.27739 0.0
H162 H 0.34724 0.829 0.3825 0.0
H163 H 0.26927 0.84029 0.32801 0.0
H164 H 0.40837 0.98991 0.31376 0.0
H165 H 0.33527 0.98552 0.37022 0.0
H166 H 0.37841 0.02896 0.30737 0.0
H167 H 0.30687 0.02476 0.36294 0.0
H168 H 0.46083 0.9519 0.36412 0.0
H169 H 0.45898 0.87786 0.37227 0.0
H170 H 0.53271 0.95281 0.37909 0.0
H171 H 0.53127 0.88005 0.3869 0.0
H172 H 0.40962 0.93369 0.4456 0.0
H173 H 0.43772 0.00057 0.41858 0.0
H174 H 0.45741 0.95952 0.26578 0.0
H175 H 0.55462 0.92915 0.30444 0.0
Li176 Li 0.66908 0.44201 0.15478 0.0
Li177 Li 0.64046 0.40349 0.14472 0.0
Li178 Li 0.61858 0.43846 0.12643 0.0
Li179 Li 0.59743 0.4321 0.1614 0.0
C180 C 0.71599 0.41659 0.12529 0.0
N181 N 0.796 0.39868 0.12052 0.0
C182 C 0.73453 0.40386 0.14144 0.0
C183 C 0.73811 0.42015 0.10672 0.0
C184 C 0.775 0.39494 0.13871 0.0
C185 C 0.77857 0.411 0.10462 0.0
C186 C 0.63498 0.41219 0.19269 0.0
C187 C 0.58976 0.39118 0.21626 0.0
N188 N 0.60499 0.40389 0.2325 0.0
C189 C 0.6504 0.42493 0.20962 0.0
C190 C 0.6046 0.39507 0.19603 0.0
C191 C 0.63477 0.42051 0.22962 0.0
C192 C 0.69991 0.47493 0.18137 0.0
N193 N 0.71379 0.45986 0.1666 0.0
C194 C 0.78494 0.47153 0.17273 0.0
C195 C 0.75535 0.45832 0.16174 0.0
C196 C 0.77149 0.48672 0.18859 0.0
C197 C 0.72815 0.48869 0.19244 0.0
H198 H 0.66668 0.47601 0.18479 0.0
H199 H 0.76585 0.44669 0.14964 0.0
C200 C 0.65741 0.36267 0.12191 0.0
N201 N 0.65389 0.37163 0.14149 0.0
C202 C 0.66981 0.33964 0.11909 0.0
C203 C 0.67397 0.3355 0.15662 0.0
C204 C 0.66209 0.35863 0.1587 0.0
C205 C 0.67815 0.32578 0.13662 0.0
H206 H 0.65121 0.37356 0.1085 0.0
H207 H 0.66032 0.36633 0.17404 0.0
C208 C 0.6314 0.48243 0.14249 0.0
N209 N 0.65668 0.52548 0.12843 0.0
C210 C 0.61172 0.50245 0.14991 0.0
C211 C 0.66405 0.4843 0.12795 0.0
C212 C 0.62493 0.52406 0.1426 0.0
C213 C 0.67633 0.50622 0.12102 0.0
C214 C 0.54202 0.41599 0.1305 0.0
C215 C 0.52259 0.43752 0.13316 0.0
C216 C 0.51991 0.39792 0.12098 0.0
C217 C 0.48129 0.44059 0.12626 0.0
C218 C 0.47863 0.40167 0.11428 0.0
N219 N 0.46035 0.42276 0.11703 0.0
C220 C 0.6111 0.43849 0.08234 0.0
C221 C 0.57707 0.46975 0.09944 0.0
C222 C 0.59696 0.4464 0.06292 0.0
N223 N 0.60097 0.45023 0.10007 0.0
C224 C 0.5628 0.47841 0.08043 0.0
C225 C 0.57262 0.46668 0.06187 0.0
H226 H 0.62983 0.42288 0.08335 0.0
H227 H 0.56846 0.47848 0.11373 0.0
C228 C 0.56278 0.45677 0.19384 0.0
N229 N 0.55474 0.43815 0.18151 0.0
C230 C 0.53401 0.4636 0.209 0.0
C231 C 0.48894 0.43184 0.19862 0.0
C232 C 0.51897 0.42545 0.18373 0.0
C233 C 0.49611 0.45134 0.21134 0.0
H234 H 0.59174 0.46633 0.19184 0.0
H235 H 0.51357 0.41055 0.17383 0.0
O236 O 0.67598 0.42502 0.12727 0.0
O237 O 0.64916 0.41663 0.17291 0.0
O238 O 0.61873 0.46121 0.14967 0.0
O239 O 0.58257 0.41251 0.13695 0.0
H240 H 0.71809 0.40101 0.15599 0.0
H241 H 0.72407 0.42986 0.09404 0.0
H242 H 0.78973 0.38509 0.15108 0.0
H243 H 0.79606 0.41365 0.09033 0.0
H244 H 0.56597 0.37813 0.21905 0.0
H245 H 0.67413 0.43811 0.20736 0.0
H246 H 0.59202 0.38521 0.18306 0.0
H247 H 0.64629 0.43031 0.24285 0.0
H248 H 0.81799 0.46932 0.16921 0.0
H249 H 0.716 0.50058 0.20405 0.0
H250 H 0.67268 0.33273 0.10341 0.0
H251 H 0.68091 0.3255 0.17051 0.0
H252 H 0.58648 0.50128 0.16121 0.0
H253 H 0.67978 0.46906 0.12203 0.0
H254 H 0.60994 0.5397 0.1482 0.0
H255 H 0.7015 0.50793 0.10976 0.0
H256 H 0.53911 0.45172 0.14052 0.0
H257 H 0.53455 0.38116 0.11876 0.0
H258 H 0.4659 0.45716 0.12823 0.0
H259 H 0.46115 0.38783 0.10688 0.0
H260 H 0.60518 0.43691 0.0489 0.0
H261 H 0.54344 0.49385 0.08029 0.0
H262 H 0.54145 0.47837 0.21876 0.0
H263 H 0.46008 0.42196 0.19979 0.0
Li264 Li 0.83779 0.05185 0.15596 0.0
Li265 Li 0.85617 0.09171 0.1449 0.0
Li266 Li 0.88657 0.05696 0.12715 0.0
Li267 Li 0.90629 0.06692 0.16202 0.0
C268 C 0.78524 0.07336 0.12585 0.0
N269 N 0.70241 0.0868 0.12091 0.0
C270 C 0.76233 0.08164 0.14294 0.0
C271 C 0.766 0.07192 0.10626 0.0
C272 C 0.72051 0.08835 0.14012 0.0
C273 C 0.72409 0.07878 0.10408 0.0
C274 C 0.86749 0.08969 0.19107 0.0
C275 C 0.90807 0.12013 0.20727 0.0
N276 N 0.90061 0.11053 0.22631 0.0
C277 C 0.86005 0.08019 0.2108 0.0
C278 C 0.89156 0.10987 0.18928 0.0
C279 C 0.87714 0.09096 0.22843 0.0
C280 C 0.80262 0.02467 0.18719 0.0
N281 N 0.79549 0.03232 0.16745 0.0
C282 C 0.72852 0.01355 0.16673 0.0
C283 C 0.75996 0.02639 0.15686 0.0
C284 C 0.73415 0.0064 0.18752 0.0
C285 C 0.77222 0.01164 0.19761 0.0
H286 H 0.83176 0.02904 0.19496 0.0
H287 H 0.75565 0.03185 0.14088 0.0
C288 C 0.8397 0.13333 0.12271 0.0
N289 N 0.8347 0.12209 0.14119 0.0
C290 C 0.82183 0.15523 0.11976 0.0
C291 C 0.79443 0.15347 0.15495 0.0
C292 C 0.8126 0.13166 0.15717 0.0
C293 C 0.79858 0.16553 0.136 0.0
H294 H 0.85708 0.12514 0.1102 0.0
H295 H 0.80865 0.12222 0.17161 0.0
C296 C 0.8841 0.01362 0.14513 0.0
N297 N 0.86866 0.9686 0.13254 0.0
C298 C 0.90729 0.99535 0.15362 0.0
C299 C 0.853 0.00898 0.13023 0.0
C300 C 0.89903 0.97271 0.14706 0.0
C301 C 0.84569 0.98611 0.12408 0.0
C302 C 0.95421 0.09425 0.1344 0.0
C303 C 0.98791 0.07915 0.1311 0.0
C304 C 0.96146 0.11809 0.13564 0.0
C305 C 0.02849 0.08819 0.12919 0.0
C306 C 0.00251 0.12645 0.13364 0.0
N307 N 0.03489 0.11145 0.13048 0.0
C308 C 0.88717 0.05069 0.08318 0.0
C309 C 0.93951 0.03006 0.10184 0.0
C310 C 0.90172 0.0416 0.06426 0.0
N311 N 0.90621 0.04479 0.10141 0.0
C312 C 0.95531 0.02075 0.08334 0.0
C313 C 0.93637 0.02643 0.06417 0.0
H314 H 0.86064 0.0624 0.08335 0.0
H315 H 0.95391 0.02556 0.11659 0.0
C316 C 0.94672 0.04648 0.1951 0.0
N317 N 0.9506 0.06498 0.18212 0.0
C318 C 0.97721 0.04205 0.21022 0.0
C319 C 0.01524 0.07591 0.1985 0.0
C320 C 0.9834 0.08002 0.18391 0.0
C321 C 0.01233 0.05662 0.21172 0.0
H322 H 0.91998 0.03501 0.19352 0.0
H323 H 0.98518 0.09511 0.17403 0.0
O324 O 0.82643 0.06694 0.1281 0.0
O325 O 0.85214 0.07908 0.17352 0.0
O326 O 0.892 0.03584 0.15151 0.0
O327 O 0.91422 0.08585 0.13631 0.0
H328 H 0.77652 0.08277 0.15825 0.0
H329 H 0.78328 0.06555 0.09286 0.0
H330 H 0.70242 0.09478 0.15321 0.0
H331 H 0.70881 0.07776 0.089 0.0
H332 H 0.92697 0.13566 0.20609 0.0
H333 H 0.84137 0.06466 0.21252 0.0
H334 H 0.89796 0.11733 0.17411 0.0
H335 H 0.87176 0.08376 0.24379 0.0
H336 H 0.69993 0.00945 0.15829 0.0
H337 H 0.77781 0.00648 0.21363 0.0
H338 H 0.82548 0.16377 0.10481 0.0
H339 H 0.77746 0.16083 0.16803 0.0
H340 H 0.93146 -0.00134 0.16518 0.0
H341 H 0.8347 0.02283 0.12344 0.0
H342 H 0.91677 0.95841 0.1535 0.0
H343 H 0.82175 0.98228 0.11256 0.0
H344 H 0.98289 0.06066 0.1304 0.0
H345 H 0.93564 0.12999 0.13817 0.0
H346 H 0.05492 0.0767 0.12675 0.0
H347 H 0.00863 0.14486 0.1346 0.0
H348 H 0.88568 0.04622 0.04994 0.0
H349 H 0.98247 0.00947 0.0841 0.0
H350 H 0.97415 0.02694 0.22014 0.0
H351 H 0.04188 0.08758 0.19941 0.0
Li352 Li 0.83285 0.44622 0.6557 0.0
Li353 Li 0.90338 0.43044 0.66282 0.0
Li354 Li 0.88384 0.43861 0.62727 0.0
Li355 Li 0.85252 0.40636 0.64717 0.0
C356 C 0.88247 0.48332 0.64411 0.0
N357 N 0.87012 0.52838 0.63097 0.0
C358 C 0.90685 0.50124 0.65243 0.0
C359 C 0.85176 0.4883 0.62914 0.0
C360 C 0.90014 0.52392 0.64558 0.0
C361 C 0.84602 0.51119 0.62269 0.0
C362 C 0.82743 0.40486 0.6862 0.0
C363 C 0.82382 0.36769 0.70333 0.0
N364 N 0.78217 0.37114 0.70704 0.0
C365 C 0.78467 0.40811 0.69035 0.0
C366 C 0.84728 0.38457 0.69291 0.0
C367 C 0.76232 0.39084 0.70086 0.0
C368 C 0.74929 0.46183 0.65959 0.0
N369 N 0.78964 0.46574 0.66561 0.0
C370 C 0.76764 0.49492 0.68968 0.0
C371 C 0.79945 0.48213 0.68006 0.0
C372 C 0.72544 0.49056 0.68448 0.0
C373 C 0.71648 0.47414 0.66887 0.0
H374 H 0.74249 0.44841 0.64828 0.0
H375 H 0.83187 0.48461 0.68469 0.0
C376 C 0.98223 0.44628 0.67567 0.0
N377 N 0.94878 0.43335 0.68184 0.0
C378 C 0.01525 0.45063 0.68947 0.0
C379 C 0.97874 0.42824 0.71575 0.0
C380 C 0.94647 0.42423 0.70137 0.0
C381 C 0.01352 0.4418 0.70991 0.0
H382 H 0.98274 0.45364 0.66013 0.0
H383 H 0.91919 0.4143 0.70595 0.0
C384 C 0.80244 0.42383 0.61148 0.0
N385 N 0.75973 0.41183 0.57544 0.0
C386 C 0.81167 0.40304 0.60121 0.0
C387 C 0.7715 0.4385 0.6034 0.0
C388 C 0.78969 0.39728 0.58303 0.0
C389 C 0.7503 0.43215 0.58515 0.0
C390 C 0.95213 0.40363 0.64126 0.0
C391 C 0.98465 0.41347 0.62957 0.0
C392 C 0.96163 0.38742 0.65678 0.0
C393 C 0.02623 0.40722 0.63383 0.0
C394 C 0.0036 0.38164 0.66059 0.0
N395 N 0.03477 0.39159 0.64915 0.0
C396 C 0.93722 0.46571 0.60241 0.0
C397 C 0.89022 0.44273 0.58252 0.0
C398 C 0.95507 0.47473 0.58423 0.0
N399 N 0.90523 0.45009 0.60128 0.0
C400 C 0.9072 0.45123 0.56396 0.0
C401 C 0.94011 0.46744 0.56467 0.0
H402 H 0.94938 0.47092 0.61747 0.0
H403 H 0.86533 0.43015 0.5818 0.0
C404 C 0.78655 0.37402 0.64618 0.0
N405 N 0.8291 0.37607 0.64531 0.0
C406 C 0.76769 0.35223 0.64523 0.0
C407 C 0.83679 0.33508 0.64206 0.0
C408 C 0.85433 0.35723 0.64314 0.0
C409 C 0.79291 0.33237 0.64321 0.0
H410 H 0.76729 0.38939 0.64764 0.0
H411 H 0.88803 0.3594 0.64229 0.0
O412 O 0.88874 0.46106 0.65074 0.0
O413 O 0.84963 0.42135 0.6755 0.0
O414 O 0.82278 0.42962 0.6296 0.0
O415 O 0.91127 0.4099 0.6376 0.0
H416 H 0.93072 0.49764 0.66405 0.0
H417 H 0.83263 0.47467 0.62252 0.0
H418 H 0.91879 0.53797 0.65187 0.0
H419 H 0.82241 0.5153 0.61109 0.0
H420 H 0.83871 0.35182 0.70842 0.0
H421 H 0.7688 0.42371 0.6854 0.0
H422 H 0.8803 0.38173 0.68986 0.0
H423 H 0.72916 0.39309 0.70405 0.0
H424 H 0.77588 0.50718 0.70183 0.0
H425 H 0.68437 0.47036 0.66433 0.0
H426 H 0.04109 0.4615 0.68442 0.0
H427 H 0.97631 0.42101 0.73131 0.0
H428 H 0.83612 0.39169 0.60694 0.0
H429 H 0.76398 0.45467 0.61111 0.0
H430 H 0.79662 0.3813 0.57489 0.0
H431 H 0.72633 0.44336 0.57871 0.0
H432 H 0.97793 0.42586 0.61738 0.0
H433 H 0.93692 0.37961 0.66597 0.0
H434 H 0.05171 0.4148 0.62497 0.0
H435 H 0.01139 0.36927 0.67268 0.0
H436 H 0.98087 0.48691 0.5855 0.0
H437 H 0.89446 0.44528 0.5492 0.0
H438 H 0.73373 0.35097 0.64585 0.0
H439 H 0.8574 0.32023 0.64068 0.0
Li440 Li 0.58936 0.06568 0.66563 0.0
Li441 Li 0.66086 0.05472 0.65596 0.0
Li442 Li 0.6341 0.09337 0.64844 0.0
Li443 Li 0.60906 0.05956 0.62924 0.0
C444 C 0.63511 0.08105 0.69675 0.0
N445 N 0.61635 0.08386 0.73885 0.0
C446 C 0.65305 0.06541 0.71085 0.0
C447 C 0.60763 0.09812 0.70411 0.0
C448 C 0.64321 0.06713 0.73207 0.0
C449 C 0.59851 0.09924 0.72543 0.0
C450 C 0.58859 0.01869 0.64314 0.0
C451 C 0.58761 0.98649 0.61909 0.0
N452 N 0.54575 0.98371 0.62268 0.0
C453 C 0.54557 0.01549 0.64662 0.0
C454 C 0.60985 0.00404 0.62931 0.0
C455 C 0.52449 0.9977 0.63613 0.0
C456 C 0.5092 0.07151 0.68497 0.0
N457 N 0.54687 0.06043 0.68584 0.0
C458 C 0.52516 0.03891 0.71578 0.0
C459 C 0.55517 0.04425 0.70069 0.0
C460 C 0.48583 0.04987 0.71519 0.0
C461 C 0.47786 0.06636 0.69955 0.0
H462 H 0.50324 0.08399 0.67275 0.0
H463 H 0.58499 0.03525 0.7006 0.0
C464 C 0.73815 0.05101 0.67617 0.0
N465 N 0.70867 0.03839 0.66582 0.0
C466 C 0.77079 0.03992 0.6867 0.0
C467 C 0.74381 0.00311 0.6745 0.0
C468 C 0.71116 0.01492 0.66449 0.0
C469 C 0.77329 0.01567 0.68625 0.0
H470 H 0.73505 0.06965 0.67709 0.0
H471 H 0.68695 0.00531 0.65642 0.0
C472 C 0.56055 0.1056 0.63404 0.0
N473 N 0.53476 0.14815 0.61904 0.0
C474 C 0.56104 0.11004 0.61258 0.0
C475 C 0.54676 0.12275 0.64786 0.0
C476 C 0.54787 0.13167 0.6053 0.0
C477 C 0.53394 0.14417 0.63997 0.0
C478 C 0.70826 0.06957 0.62621 0.0
C479 C 0.73669 0.08701 0.63175 0.0
C480 C 0.72328 0.04859 0.61824 0.0
C481 C 0.77977 0.08314 0.62923 0.0
C482 C 0.7666 0.04538 0.61599 0.0
N483 N 0.79371 0.06258 0.62149 0.0
C484 C 0.6566 0.13755 0.66391 0.0
C485 C 0.65468 0.13468 0.62699 0.0
C486 C 0.66926 0.16064 0.66269 0.0
N487 N 0.64938 0.12515 0.64623 0.0
C488 C 0.66743 0.15773 0.62502 0.0
C489 C 0.67498 0.17101 0.64305 0.0
H490 H 0.65336 0.12942 0.67899 0.0
H491 H 0.64946 0.12426 0.61317 0.0
C492 C 0.54457 0.04828 0.60156 0.0
N493 N 0.58715 0.04863 0.60341 0.0
C494 C 0.52574 0.03967 0.58348 0.0
C495 C 0.59497 0.03188 0.5695 0.0
C496 C 0.6125 0.04084 0.58783 0.0
C497 C 0.55102 0.03123 0.56719 0.0
H498 H 0.52525 0.0545 0.61429 0.0
H499 H 0.64625 0.0414 0.5897 0.0
O500 O 0.64382 0.07944 0.67584 0.0
O501 O 0.60957 0.03641 0.65282 0.0
O502 O 0.57413 0.08471 0.64152 0.0
O503 O 0.66602 0.07282 0.62899 0.0
H504 H 0.67382 0.05184 0.70549 0.0
H505 H 0.59296 0.11016 0.69342 0.0
H506 H 0.65674 0.05509 0.74312 0.0
H507 H 0.57712 0.11227 0.73129 0.0
H508 H 0.60358 0.97517 0.6082 0.0
H509 H 0.5285 0.02676 0.65712 0.0
H510 H 0.64297 0.0065 0.62615 0.0
H511 H 0.49117 0.99509 0.63861 0.0
H512 H 0.53208 0.02577 0.72735 0.0
H513 H 0.44771 0.07502 0.69858 0.0
H514 H 0.79313 0.05011 0.6956 0.0
H515 H 0.74469 0.98436 0.67401 0.0
H516 H 0.57199 0.09706 0.60167 0.0
H517 H 0.54631 0.11963 0.66452 0.0
H518 H 0.54828 0.1354 0.58874 0.0
H519 H 0.52341 0.15765 0.6505 0.0
H520 H 0.72569 0.10327 0.63812 0.0
H521 H 0.70179 0.03476 0.61419 0.0
H522 H 0.80213 0.09645 0.63352 0.0
H523 H 0.77867 0.02918 0.60998 0.0
H524 H 0.67561 0.17007 0.67698 0.0
H525 H 0.6713 0.16507 0.60958 0.0
H526 H 0.49175 0.03924 0.58241 0.0
H527 H 0.61553 0.02576 0.55719 0.0
Li528 Li 0.3838 0.55627 0.86867 0.0
Li529 Li 0.35313 0.58802 0.85037 0.0
Li530 Li 0.33579 0.54873 0.84051 0.0
Li531 Li 0.4045 0.56403 0.83317 0.0
C532 C 0.31054 0.57437 0.88579 0.0
N533 N 0.28509 0.59461 0.92282 0.0
C534 C 0.33857 0.58801 0.8973 0.0
C535 C 0.2696 0.57101 0.89311 0.0
C536 C 0.3251 0.5981 0.91598 0.0
C537 C 0.25733 0.5814 0.91187 0.0
C538 C 0.4365 0.60304 0.85202 0.0
C539 C 0.45012 0.63441 0.82807 0.0
N540 N 0.48288 0.64136 0.84023 0.0
C541 C 0.47028 0.61051 0.86428 0.0
C542 C 0.42629 0.61509 0.83377 0.0
C543 C 0.49335 0.62991 0.85805 0.0
C544 C 0.44725 0.54828 0.8976 0.0
N545 N 0.40533 0.54535 0.89447 0.0
C546 C 0.39855 0.52537 0.92696 0.0
C547 C 0.38075 0.53432 0.90872 0.0
C548 C 0.44187 0.52807 0.93057 0.0
C549 C 0.46626 0.53985 0.91569 0.0
H550 H 0.46599 0.55692 0.88585 0.0
H551 H 0.34745 0.53225 0.90583 0.0
C552 C 0.29418 0.6228 0.84227 0.0
N553 N 0.33032 0.61833 0.85286 0.0
C554 C 0.27592 0.64478 0.8432 0.0
C555 C 0.3324 0.65708 0.86598 0.0
C556 C 0.34929 0.6348 0.86481 0.0
C557 C 0.29534 0.66229 0.85501 0.0
H558 H 0.2797 0.60928 0.83302 0.0
H559 H 0.3776 0.6307 0.87339 0.0
C560 C 0.38549 0.51172 0.85351 0.0
N561 N 0.37531 0.46755 0.86939 0.0
C562 C 0.41538 0.49458 0.84934 0.0
C563 C 0.35034 0.50636 0.86572 0.0
C564 C 0.40968 0.47237 0.85752 0.0
C565 C 0.34579 0.48395 0.87361 0.0
C566 C 0.34425 0.56867 0.80144 0.0
C567 C 0.36109 0.54791 0.79391 0.0
C568 C 0.32113 0.5829 0.78803 0.0
C569 C 0.3545 0.54172 0.77306 0.0
C570 C 0.31523 0.57611 0.76728 0.0
N571 N 0.33188 0.55583 0.76029 0.0
C572 C 0.25247 0.53741 0.82949 0.0
C573 C 0.30323 0.50966 0.81902 0.0
C574 C 0.22085 0.52528 0.81894 0.0
N575 N 0.29276 0.52958 0.8291 0.0
C576 C 0.27271 0.497 0.80833 0.0
C577 C 0.23102 0.50501 0.80783 0.0
H578 H 0.24523 0.55351 0.83737 0.0
H579 H 0.33558 0.50397 0.81862 0.0
C580 C 0.47907 0.54552 0.8191 0.0
N581 N 0.45034 0.56207 0.81431 0.0
C582 C 0.51047 0.53974 0.80487 0.0
C583 C 0.48391 0.56928 0.78155 0.0
C584 C 0.4527 0.57439 0.79623 0.0
C585 C 0.51242 0.55125 0.78559 0.0
H586 H 0.47657 0.53622 0.83369 0.0
H587 H 0.42928 0.58742 0.79278 0.0
O588 O 0.32272 0.56432 0.86739 0.0
O589 O 0.41374 0.58405 0.85805 0.0
O590 O 0.3909 0.53359 0.84567 0.0
O591 O 0.34991 0.5751 0.82183 0.0
H592 H 0.3704 0.5908 0.89195 0.0
H593 H 0.24754 0.5605 0.88436 0.0
H594 H 0.34645 0.6087 0.92504 0.0
H595 H 0.22572 0.57895 0.91772 0.0
H596 H 0.44253 0.64389 0.814 0.0
H597 H 0.47854 0.6014 0.87848 0.0
H598 H 0.40014 0.60973 0.82412 0.0
H599 H 0.51958 0.63588 0.8674 0.0
H600 H 0.37866 0.51658 0.93816 0.0
H601 H 0.49983 0.54206 0.91781 0.0
H602 H 0.24747 0.64817 0.83441 0.0
H603 H 0.34799 0.67005 0.87547 0.0
H604 H 0.44268 0.49837 0.83986 0.0
H605 H 0.32675 0.5193 0.86907 0.0
H606 H 0.43259 0.45894 0.85441 0.0
H607 H 0.31878 0.47958 0.88309 0.0
H608 H 0.37909 0.53667 0.80403 0.0
H609 H 0.30786 0.59902 0.79363 0.0
H610 H 0.36735 0.5257 0.76705 0.0
H611 H 0.29738 0.58696 0.75673 0.0
H612 H 0.18924 0.53225 0.81874 0.0
H613 H 0.28186 0.48134 0.80019 0.0
H614 H 0.53233 0.52598 0.80866 0.0
H615 H 0.48438 0.57846 0.7668 0.0
Li616 Li 0.10925 0.93488 0.86751 0.0
Li617 Li 0.13377 0.90076 0.84818 0.0
Li618 Li 0.16115 0.93948 0.84084 0.0
Li619 Li 0.08937 0.92897 0.83103 0.0
C620 C 0.20807 0.92459 0.87062 0.0
N621 N 0.29334 0.93207 0.87548 0.0
C622 C 0.23688 0.90767 0.86435 0.0
C623 C 0.22258 0.94526 0.87944 0.0
C624 C 0.27988 0.91179 0.86694 0.0
C625 C 0.26583 0.94873 0.88174 0.0
C626 C 0.05758 0.88971 0.86273 0.0
C627 C 0.02832 0.85167 0.85705 0.0
N628 N 0.02478 0.8488 0.87807 0.0
C629 C 0.05347 0.88644 0.88427 0.0
C630 C 0.04469 0.87227 0.84899 0.0
C631 C 0.03685 0.86562 0.89171 0.0
C632 C 0.04672 0.95123 0.89444 0.0
N633 N 0.08827 0.94581 0.89348 0.0
C634 C 0.09798 0.95701 0.92908 0.0
C635 C 0.11393 0.9483 0.91032 0.0
C636 C 0.05538 0.96333 0.93036 0.0
C637 C 0.02961 0.96029 0.91276 0.0
H638 H 0.02698 0.94868 0.88087 0.0
H639 H 0.14676 0.94363 0.90915 0.0
C640 C 0.16776 0.85943 0.83255 0.0
N641 N 0.1496 0.869 0.84972 0.0
C642 C 0.18284 0.83676 0.83314 0.0
C643 C 0.16002 0.83404 0.86907 0.0
C644 C 0.14587 0.85692 0.86787 0.0
C645 C 0.17918 0.82381 0.85159 0.0
H646 H 0.17152 0.86958 0.81851 0.0
H647 H 0.13278 0.86521 0.88154 0.0
C648 C 0.0909 0.97655 0.85316 0.0
N649 N 0.0513 0.01343 0.87243 0.0
C650 C 0.04921 0.98194 0.84821 0.0
C651 C 0.11254 0.99003 0.86781 0.0
C652 C 0.02974 0.00065 0.85813 0.0
C653 C 0.09192 0.00855 0.87743 0.0
C654 C 0.13497 0.91215 0.80017 0.0
C655 C 0.15087 0.92782 0.78551 0.0
C656 C 0.10991 0.89367 0.79349 0.0
C657 C 0.1412 0.92478 0.76439 0.0
C658 C 0.10091 0.89125 0.77224 0.0
N659 N 0.1166 0.90672 0.75825 0.0
C660 C 0.23688 0.94282 0.81943 0.0
C661 C 0.2132 0.97882 0.83293 0.0
C662 C 0.26915 0.9538 0.80855 0.0
N663 N 0.20914 0.95548 0.83085 0.0
C664 C 0.24555 0.99049 0.82257 0.0
C665 C 0.27311 0.97797 0.80971 0.0
H666 H 0.23259 0.92429 0.81796 0.0
H667 H 0.19036 0.98847 0.84188 0.0
C668 C 0.00913 0.9233 0.81203 0.0
N669 N 0.04699 0.93416 0.81078 0.0
C670 C 0.97743 0.92848 0.79765 0.0
C671 C 0.02479 0.95541 0.78076 0.0
C672 C 0.05521 0.95005 0.79567 0.0
C673 C 0.9852 0.94475 0.78181 0.0
H674 H 0.00328 0.91103 0.82444 0.0
H675 H 0.08518 0.9589 0.79548 0.0
O676 O 0.16592 0.92115 0.8677 0.0
O677 O 0.07398 0.90992 0.85512 0.0
O678 O 0.11028 0.95805 0.84389 0.0
O679 O 0.14349 0.91503 0.82098 0.0
H680 H 0.2262 0.89162 0.8574 0.0
H681 H 0.20072 0.9586 0.88421 0.0
H682 H 0.30255 0.8989 0.86208 0.0
H683 H 0.27753 0.9647 0.88842 0.0
H684 H 0.01842 0.83797 0.8466 0.0
H685 H 0.06335 0.89973 0.89514 0.0
H686 H 0.04747 0.87456 0.83228 0.0
H687 H 0.03366 0.8628 0.90834 0.0
H688 H 0.11884 0.95917 0.94233 0.0
H689 H 0.99648 0.96463 0.91323 0.0
H690 H 0.19741 0.82946 0.81932 0.0
H691 H 0.15728 0.82472 0.88369 0.0
H692 H 0.03189 0.97167 0.83698 0.0
H693 H 0.14465 0.98596 0.87201 0.0
H694 H 0.99743 0.00495 0.85452 0.0
H695 H 0.10816 0.01899 0.88894 0.0
H696 H 0.1699 0.94238 0.79039 0.0
H697 H 0.09736 0.88141 0.80463 0.0
H698 H 0.15308 0.93684 0.75289 0.0
H699 H 0.0814 0.87708 0.76687 0.0
H700 H 0.29003 0.94361 0.79882 0.0
H701 H 0.24759 0.00919 0.82366 0.0
H702 H 0.94712 0.92003 0.79896 0.0
H703 H 0.03159 0.96839 0.76903 0.0
H704 H 0.34452 0.53633 0.29248 0.0
H705 H 0.44394 0.42526 0.23648 0.0
H706 H 0.28927 0.46822 0.29733 0.0
H707 H 0.47476 0.49603 0.22079 0.0
H708 H 0.39172 0.43962 0.26151 0.0
H709 H 0.3986 0.5206 0.26957 0.0
C710 C 0.34411 0.51797 0.28895 0.0
C711 C 0.31239 0.50355 0.29686 0.0
C712 C 0.41005 0.45193 0.25258 0.0
C713 C 0.37391 0.48546 0.2703 0.0
C714 C 0.43969 0.44378 0.23821 0.0
C715 C 0.46404 0.45945 0.22656 0.0
C716 C 0.40496 0.4759 0.25537 0.0
C717 C 0.45747 0.48326 0.2297 0.0
C718 C 0.37477 0.50904 0.27569 0.0
C719 C 0.31299 0.47997 0.29142 0.0
N720 N 0.4287 0.49072 0.2438 0.0
N721 N 0.3433 0.47163 0.27844 0.0
H722 H 0.00866 0.05031 0.25397 0.0
H723 H 0.2204 0.98204 0.26007 0.0
H724 H 0.09395 0.04853 0.20167 0.0
H725 H 0.17893 0.02193 0.31349 0.0
H726 H 0.169 0.00211 0.2386 0.0
H727 H 0.06545 0.03596 0.27669 0.0
C728 C 0.03952 0.04713 0.2474 0.0
C729 C 0.04697 0.0506 0.22604 0.0
C730 C 0.17148 0.00653 0.25501 0.0
C731 C 0.11108 0.03377 0.25155 0.0
C732 C 0.20107 0.99518 0.26735 0.0
C733 C 0.20462 0.00029 0.28878 0.0
C734 C 0.14429 0.02268 0.26415 0.0
C735 C 0.17715 0.017 0.29721 0.0
C736 C 0.07175 0.03903 0.26029 0.0
C737 C 0.08725 0.04619 0.21812 0.0
N738 N 0.14783 0.02743 0.28491 0.0
N739 N 0.11771 0.03763 0.23083 0.0
H740 H 0.76575 0.49692 0.23034 0.0
H741 H -0.00142 0.54379 0.24253 0.0
H742 H 0.84784 0.5058 0.17714 0.0
H743 H 0.90126 0.55587 0.28832 0.0
H744 H 0.94523 0.52934 0.21829 0.0
H745 H 0.81632 0.51743 0.25194 0.0
C746 C 0.7941 0.50344 0.22305 0.0
C747 C 0.80221 0.49967 0.20174 0.0
C748 C 0.93558 0.53538 0.23357 0.0
C749 C 0.86111 0.52276 0.22677 0.0
C750 C 0.96597 0.54378 0.24741 0.0
C751 C 0.95453 0.55086 0.26764 0.0
C752 C 0.89353 0.53382 0.24008 0.0
C753 C 0.91178 0.5501 0.2731 0.0
C754 C 0.82315 0.51508 0.2355 0.0
C755 C 0.84035 0.50799 0.19351 0.0
N756 N 0.88295 0.5415 0.2595 0.0
N757 N 0.86852 0.51902 0.20608 0.0
H758 H 0.65104 0.0181 0.18774 0.0
H759 H 0.58252 0.922 0.27091 0.0
H760 H 0.73869 0.96897 0.21392 0.0
H761 H 0.5127 0.98486 0.25901 0.0
H762 H 0.63612 0.93499 0.24608 0.0
H763 H 0.59531 0.00142 0.20922 0.0
C764 C 0.65842 0.00357 0.19779 0.0
C765 C 0.69958 0.99495 0.19911 0.0
C766 C 0.60887 0.94581 0.24889 0.0
C767 C 0.63604 0.97596 0.22391 0.0
C768 C 0.57834 0.9385 0.26314 0.0
C769 C 0.54284 0.95232 0.26716 0.0
C770 C 0.6037 0.96698 0.23843 0.0
C771 C 0.53894 0.97333 0.25624 0.0
C772 C 0.62668 0.99419 0.21018 0.0
C773 C 0.70746 0.97629 0.21263 0.0
N774 N 0.56893 0.97999 0.24242 0.0
N775 N 0.67596 0.96742 0.22456 0.0
H776 H 0.52601 0.50688 0.77322 0.0
H777 H 0.718 0.53577 0.69768 0.0
H778 H 0.56525 0.57707 0.76077 0.0
H779 H 0.65515 0.46952 0.69976 0.0
H780 H 0.66404 0.55164 0.72106 0.0
H781 H 0.57529 0.49307 0.74689 0.0
C782 C 0.54524 0.51938 0.76496 0.0
C783 C 0.54195 0.54312 0.7693 0.0
C784 C 0.66188 0.53372 0.71617 0.0
C785 C 0.59833 0.52745 0.73897 0.0
C786 C 0.69269 0.52464 0.70292 0.0
C787 C 0.69105 0.50129 0.69677 0.0
C788 C 0.62962 0.51923 0.72352 0.0
C789 C 0.65743 0.48767 0.70388 0.0
C790 C 0.57313 0.51151 0.74981 0.0
C791 C 0.56695 0.55862 0.75786 0.0
N792 N 0.62831 0.49679 0.71699 0.0
N793 N 0.59445 0.55049 0.7433 0.0
H794 H 0.83089 0.98268 0.67481 0.0
H795 H 0.90563 0.95828 0.79168 0.0
H796 H 0.78471 0.02091 0.72796 0.0
H797 H 0.98859 0.948 0.73919 0.0
H798 H 0.85231 0.97389 0.76791 0.0
H799 H 0.88149 0.96288 0.69785 0.0
C800 C 0.83145 0.98682 0.69132 0.0
C801 C 0.80411 0.00353 0.69956 0.0
C802 C 0.88209 0.96804 0.7616 0.0
C803 C 0.86067 0.98083 0.72582 0.0
C804 C 0.91229 0.95899 0.7751 0.0
C805 C 0.95146 0.95194 0.76733 0.0
C806 C 0.89092 0.96974 0.74017 0.0
C807 C 0.95879 0.95344 0.74575 0.0
C808 C 0.8602 0.97561 0.70438 0.0
C809 C 0.80575 0.00832 0.72102 0.0
N810 N 0.92873 0.96218 0.73286 0.0
N811 N 0.83343 0.99693 0.73345 0.0
H812 H 0.14781 0.49658 0.8168 0.0
H813 H 0.09877 0.44338 0.70377 0.0
H814 H 0.24137 0.48663 0.76876 0.0
H815 H 0.00387 0.45424 0.75097 0.0
H816 H 0.1523 0.45662 0.72842 0.0
H817 H 0.09526 0.4788 0.79387 0.0
C818 C 0.15732 0.49063 0.80146 0.0
C819 C 0.19908 0.49312 0.79471 0.0
C820 C 0.1198 0.45598 0.73345 0.0
C821 C 0.1392 0.47266 0.76844 0.0
C822 C 0.08922 0.4485 0.71935 0.0
C823 C 0.04675 0.44784 0.72527 0.0
C824 C 0.10788 0.46299 0.75362 0.0
C825 C 0.03627 0.45429 0.74578 0.0
C826 C 0.12736 0.48037 0.78842 0.0
C827 C 0.20973 0.4848 0.77477 0.0
N828 N 0.06658 0.46176 0.75917 0.0
N829 N 0.17998 0.47506 0.76233 0.0
H830 H 0.28136 0.97356 0.76773 0.0
H831 H 0.49111 0.04626 0.75771 0.0
H832 H 0.33284 0.01005 0.82071 0.0
H833 H 0.40551 0.03688 0.7061 0.0
H834 H 0.4375 0.03056 0.78143 0.0
H835 H 0.33121 0.99362 0.74495 0.0
C836 C 0.30338 0.98576 0.77453 0.0
C837 C 0.30337 0.99011 0.79607 0.0
C838 C 0.43036 0.03222 0.76495 0.0
C839 C 0.36033 0.01304 0.7702 0.0
C840 C 0.46086 0.04108 0.75145 0.0
C841 C 0.45256 0.04282 0.72998 0.0
C842 C 0.39178 0.0246 0.75678 0.0
C843 C 0.41296 0.03596 0.72259 0.0
C844 C 0.33151 0.99732 0.76154 0.0
C845 C 0.33204 0.00628 0.80414 0.0
N846 N 0.38419 0.02686 0.73594 0.0
N847 N 0.35981 0.01703 0.7912 0.0
H848 H 0.04345 0.55444 0.46708 0.0
H849 H 0.95945 0.44329 0.52911 0.0
H850 H 0.0419 0.48523 0.44145 0.0
H851 H 0.96399 0.512 0.55569 0.0
H852 H 0.98971 0.45844 0.49686 0.0
H853 H 0.0152 0.53926 0.49982 0.0
C854 C 0.03746 0.53603 0.46838 0.0
C855 C 0.04502 0.5211 0.45147 0.0
C856 C 0.98414 0.47022 0.50974 0.0
C857 C 0.01221 0.50364 0.48883 0.0
C858 C 0.96661 0.4616 0.52812 0.0
C859 C 0.95901 0.47642 0.5451 0.0
C860 C 0.9941 0.49387 0.50826 0.0
C861 C 0.96967 0.49992 0.54306 0.0
C862 C 0.0211 0.52739 0.48704 0.0
C863 C 0.03602 0.49744 0.45396 0.0
N864 N 0.98657 0.50793 0.52496 0.0
N865 N 0.02007 0.48946 0.47227 0.0
H866 H 0.47829 0.94558 0.46179 0.0
H867 H 0.4855 0.04932 0.54482 0.0
H868 H 0.41072 0.00984 0.45418 0.0
H869 H 0.57197 0.99173 0.5458 0.0
H870 H 0.45314 0.03338 0.51329 0.0
H871 H 0.50806 0.96039 0.49448 0.0
C872 C 0.46943 0.96272 0.46711 0.0
C873 C 0.44208 0.97654 0.45525 0.0
C874 C 0.47921 0.02422 0.52038 0.0
C875 C 0.47619 0.99363 0.49249 0.0
C876 C 0.49755 0.03325 0.53843 0.0
C877 C 0.5315 0.02183 0.54792 0.0
C878 C 0.49469 0.00351 0.51181 0.0
C879 C 0.54616 0.00122 0.53884 0.0
C880 C 0.48666 0.97122 0.48567 0.0
C881 C 0.43205 -0.00128 0.46273 0.0
N882 N 0.52759 0.99267 0.52132 0.0
N883 N 0.44907 0.00657 0.48087 0.0
H884 H 0.57441 0.51114 0.04743 0.0
H885 H 0.43043 0.4852 0.94793 0.0
H886 H 0.53388 0.44228 0.03058 0.0
H887 H 0.4986 0.54917 0.95647 0.0
H888 H 0.46418 0.46969 0.97935 0.0
H889 H 0.54351 0.52594 0.01511 0.0
C890 C 0.55906 0.49914 0.03686 0.0
C891 C 0.55657 0.47548 0.04166 0.0
C892 C 0.47183 0.48709 0.97431 0.0
C893 C 0.52098 0.49226 0.00474 0.0
C894 C 0.45236 0.496 0.95649 0.0
C895 C 0.46173 0.5185 0.94964 0.0
C896 C 0.50049 0.50089 0.98547 0.0
C897 C 0.49076 0.53166 0.96114 0.0
C898 C 0.54158 0.50757 0.0184 0.0
C899 C 0.53672 0.46062 0.02736 0.0
N900 N 0.50895 0.5227 0.97855 0.0
N901 N 0.51935 0.46929 0.0096 0.0
H902 H 0.00458 0.00121 0.93486 0.0
H903 H 0.96872 0.98295 0.0571 0.0
H904 H 0.06597 0.94738 0.97026 0.0
H905 H 0.94193 0.04752 0.02571 0.0
H906 H -0.00184 0.96779 0.02467 0.0
H907 H 0.97471 0.01655 0.96731 0.0
C908 C 0.01164 0.9926 0.94947 0.0
C909 C 0.03774 0.973 0.94992 0.0
C910 C 0.98586 0.98528 0.02491 0.0
C911 C 0.00368 0.99038 0.987 0.0
C912 C 0.96919 0.99403 0.04346 0.0
C913 C 0.95297 0.01666 0.04427 0.0
C914 C 0.98597 -0.00088 0.00691 0.0
C915 C 0.95354 0.0299 0.02585 0.0
C916 C 0.99479 0.00141 0.96797 0.0
C917 C 0.04627 0.96264 0.96927 0.0
N918 N 0.96973 0.02092 0.00793 0.0
N919 N 0.02909 0.97138 0.98705 0.0
H920 H 0.27098 0.68336 0.37114 0.0
H921 H 0.22406 0.8175 0.34991 0.0
H922 H 0.15335 0.70907 0.34665 0.0
H923 H 0.34697 0.7911 0.36589 0.0
H924 H 0.19612 0.77819 0.35152 0.0
H925 H 0.29783 0.723 0.37213 0.0
C926 C 0.25079 0.69732 0.36592 0.0
C927 C 0.20987 0.69281 0.35868 0.0
C928 C 0.22919 0.78098 0.35471 0.0
C929 C 0.24032 0.73831 0.36003 0.0
C930 C 0.24525 0.80343 0.35369 0.0
C931 C 0.28807 0.80762 0.35757 0.0
C932 C 0.25605 0.7625 0.35972 0.0
C933 C 0.31373 0.78873 0.3629 0.0
C934 C 0.2661 0.71997 0.36659 0.0
C935 C 0.18491 0.71169 0.35255 0.0
N936 N 0.29736 0.76699 0.36374 0.0
N937 N 0.20058 0.73358 0.3533 0.0
H938 H 0.82966 0.20382 0.11553 0.0
H939 H 0.64964 0.28775 0.15761 0.0
H940 H 0.72178 0.18002 0.15043 0.0
H941 H 0.73883 0.30859 0.11047 0.0
H942 H 0.6766 0.24819 0.15548 0.0
H943 H 0.79765 0.24229 0.11338 0.0
C944 C 0.79909 0.20658 0.12256 0.0
C945 C 0.77865 0.18865 0.13338 0.0
C946 C 0.6901 0.26135 0.14547 0.0
C947 C 0.74217 0.23275 0.13123 0.0
C948 C 0.67484 0.28394 0.14676 0.0
C949 C 0.69218 0.30145 0.13427 0.0
C950 C 0.72336 0.25625 0.13178 0.0
C951 C 0.72446 0.29554 0.12029 0.0
C952 C 0.78092 0.22858 0.12139 0.0
C953 C 0.73924 0.19339 0.14236 0.0
N954 N 0.73933 0.27346 0.11956 0.0
N955 N 0.7225 0.21498 0.14121 0.0
H956 H 0.73377 0.18886 0.61616 0.0
H957 H 0.72753 0.31579 0.66672 0.0
H958 H 0.65089 0.20843 0.66656 0.0
H959 H 0.81416 0.29566 0.61807 0.0
H960 H 0.69651 0.27711 0.66555 0.0
H961 H 0.76077 0.22849 0.61516 0.0
C962 C 0.72093 0.20155 0.62688 0.0
C963 C 0.69011 0.19529 0.64152 0.0
C964 C 0.72225 0.28115 0.6551 0.0
C965 C 0.72127 0.24063 0.64064 0.0
C966 C 0.73984 0.30328 0.65567 0.0
C967 C 0.77354 0.30898 0.64248 0.0
C968 C 0.7384 0.26454 0.6412 0.0
C969 C 0.78859 0.29194 0.62872 0.0
C970 C 0.73658 0.22414 0.6264 0.0
C971 C 0.67508 0.2124 0.65522 0.0
N972 N 0.77093 0.27049 0.62844 0.0
N973 N 0.69086 0.23425 0.65447 0.0
H974 H 0.21316 0.67518 0.86062 0.0
H975 H 0.25624 0.80907 0.8384 0.0
H976 H 0.33718 0.70329 0.85035 0.0
H977 H 0.14209 0.7847 0.86742 0.0
H978 H 0.28461 0.76975 0.83985 0.0
H979 H 0.18455 0.71463 0.86047 0.0
C980 C 0.23431 0.68967 0.85831 0.0
C981 C 0.27758 0.68601 0.8555 0.0
C982 C 0.2534 0.773 0.84596 0.0
C983 C 0.24517 0.73104 0.85523 0.0
C984 C 0.23711 0.79539 0.84501 0.0
C985 C 0.19672 0.80008 0.85273 0.0
C986 C 0.22896 0.75508 0.85447 0.0
C987 C 0.17347 0.78179 0.8614 0.0
C988 C 0.21804 0.71215 0.85834 0.0
C989 C 0.30369 0.70538 0.85276 0.0
N990 N 0.18981 0.76003 0.86191 0.0
N991 N 0.28705 0.72704 0.85256 0.0
loop_
_geom_bond_atom_site_label_1
_geom_bond_atom_site_label_2
_geom_bond_distance
_geom_bond_site_symmetry_2
_ccdc_geom_bond_type
Li0 N17 1.990 . S
Li0 O60 1.956 . S
Li0 O61 1.970 . S
Li0 O62 1.961 . S
Li1 N25 1.990 . S
Li1 O60 1.970 . S
Li1 O61 1.956 . S
Li1 O63 1.961 . S
Li2 N47 1.990 . S
Li2 O60 1.961 . S
Li2 O62 1.956 . S
Li2 O63 1.970 . S
Li3 N53 1.990 . S
Li3 O61 1.961 . S
Li3 O62 1.970 . S
Li3 O63 1.956 . S
C4 C6 1.348 . S
C4 C7 1.356 . S
C4 O60 1.325 . S
N5 C8 1.314 . S
N5 C9 1.279 . S
C6 C4 1.348 . S
C6 C8 1.353 1_455 S
C6 H64 0.929 . S
C7 C4 1.356 . S
C7 C9 1.358 1_455 S
C7 H65 0.930 . S
C8 N5 1.314 . S
C8 C6 1.353 1_655 S
C8 H66 0.930 . S
C9 N5 1.279 . S
C9 C7 1.358 1_655 S
C9 H67 0.930 . S
C10 C13 1.348 . S
C10 C14 1.356 . S
C10 O61 1.325 . S
C11 N12 1.279 . S
C11 C14 1.358 . S
C11 H68 0.930 . S
N12 C11 1.279 . S
N12 C15 1.314 . S
C13 C10 1.348 . S
C13 C15 1.353 . S
C13 H69 0.929 . S
C14 C10 1.356 . S
C14 C11 1.358 . S
C14 H70 0.930 . S
C15 N12 1.314 . S
C15 C13 1.353 . S
C15 H71 0.930 . S
C16 N17 1.314 . S
C16 C21 1.353 . S
C16 H22 0.930 . S
N17 Li0 1.990 . S
N17 C16 1.314 . S
N17 C19 1.279 1_455 S
C18 C19 1.358 . S
C18 C20 1.356 . S
C18 H72 0.930 . S
C19 N17 1.279 1_655 S
C19 C18 1.358 . S
C19 H23 0.930 . S
C20 C18 1.356 . S
C20 C21 1.348 1_655 S
C21 C16 1.353 . S
C21 C20 1.348 1_455 S
C21 H73 0.929 . S
H22 C16 0.930 . S
H23 C19 0.930 . S
C24 N25 1.314 . S
C24 C26 1.353 . S
C24 H30 0.930 . S
N25 Li1 1.990 . S
N25 C24 1.314 . S
N25 C28 1.279 . S
C26 C24 1.353 . S
C26 C29 1.348 . S
C26 H74 0.929 . S
C27 C28 1.358 . S
C27 C29 1.356 . S
C27 H75 0.930 . S
C28 N25 1.279 . S
C28 C27 1.358 . S
C28 H31 0.930 . S
C29 C26 1.348 . S
C29 C27 1.356 . S
H30 C24 0.930 . S
H31 C28 0.930 . S
C32 C34 1.348 . S
C32 C35 1.356 . S
C32 O62 1.325 . S
N33 C36 1.314 . S
N33 C37 1.279 . S
C34 C32 1.348 . S
C34 C36 1.353 . S
C34 H76 0.929 . S
C35 C32 1.356 . S
C35 C37 1.358 . S
C35 H77 0.930 . S
C36 N33 1.314 . S
C36 C34 1.353 . S
C36 H78 0.930 . S
C37 N33 1.279 . S
C37 C35 1.358 . S
C37 H79 0.930 . S
C38 C39 1.348 . S
C38 C40 1.356 . S
C38 O63 1.325 . S
C39 C38 1.348 . S
C39 C41 1.353 . S
C39 H80 0.929 . S
C40 C38 1.356 . S
C40 C42 1.358 . S
C40 H81 0.930 . S
C41 C39 1.353 . S
C41 N43 1.314 . S
C41 H82 0.930 . S
C42 C40 1.358 . S
C42 N43 1.279 . S
C42 H83 0.930 . S
N43 C41 1.314 . S
N43 C42 1.279 . S
C44 C46 1.353 . S
C44 N47 1.314 . S
C44 H50 0.930 . S
C45 N47 1.279 . S
C45 C48 1.358 . S
C45 H51 0.930 . S
C46 C44 1.353 . S
C46 C49 1.348 . S
C46 H84 0.929 . S
N47 Li2 1.990 . S
N47 C44 1.314 . S
N47 C45 1.279 . S
C48 C45 1.358 . S
C48 C49 1.356 . S
C48 H85 0.930 . S
C49 C46 1.348 . S
C49 C48 1.356 . S
H50 C44 0.930 . S
H51 C45 0.930 . S
C52 N53 1.314 . S
C52 C54 1.353 . S
C52 H58 0.930 . S
N53 Li3 1.990 . S
N53 C52 1.314 . S
N53 C56 1.279 . S
C54 C52 1.353 . S
C54 C57 1.348 . S
C54 H86 0.929 . S
C55 C56 1.358 . S
C55 C57 1.356 . S
C55 H87 0.930 . S
C56 N53 1.279 . S
C56 C55 1.358 . S
C56 H59 0.930 . S
C57 C54 1.348 . S
C57 C55 1.356 . S
H58 C52 0.930 . S
H59 C56 0.930 . S
O60 Li0 1.956 . S
O60 Li1 1.970 . S
O60 Li2 1.961 . S
O60 C4 1.325 . S
O61 Li0 1.970 . S
O61 Li1 1.956 . S
O61 Li3 1.961 . S
O61 C10 1.325 . S
O62 Li0 1.961 . S
O62 Li2 1.956 . S
O62 Li3 1.970 . S
O62 C32 1.325 . S
O63 Li1 1.961 . S
O63 Li2 1.970 . S
O63 Li3 1.956 . S
O63 C38 1.325 . S
H64 C6 0.929 . S
H65 C7 0.930 . S
H66 C8 0.930 . S
H67 C9 0.930 . S
H68 C11 0.930 . S
H69 C13 0.929 . S
H70 C14 0.930 . S
H71 C15 0.930 . S
H72 C18 0.930 . S
H73 C21 0.929 . S
H74 C26 0.929 . S
H75 C27 0.930 . S
H76 C34 0.929 . S
H77 C35 0.930 . S
H78 C36 0.930 . S
H79 C37 0.930 . S
H80 C39 0.929 . S
H81 C40 0.930 . S
H82 C41 0.930 . S
H83 C42 0.930 . S
H84 C46 0.929 . S
H85 C48 0.930 . S
H86 C54 0.929 . S
H87 C55 0.930 . S
Li88 N105 1.990 . S
Li88 O148 1.956 . S
Li88 O149 1.970 . S
Li88 O150 1.961 . S
Li89 N113 1.990 . S
Li89 O148 1.970 . S
Li89 O149 1.956 . S
Li89 O151 1.961 . S
Li90 N135 1.990 . S
Li90 O148 1.961 . S
Li90 O150 1.956 . S
Li90 O151 1.970 . S
Li91 N141 1.990 . S
Li91 O149 1.961 . S
Li91 O150 1.970 . S
Li91 O151 1.956 . S
C92 C94 1.348 . S
C92 C95 1.356 . S
C92 O148 1.325 . S
N93 C96 1.314 . S
N93 C97 1.279 . S
C94 C92 1.348 . S
C94 C96 1.353 . S
C94 H152 0.929 . S
C95 C92 1.356 . S
C95 C97 1.358 . S
C95 H153 0.930 . S
C96 N93 1.314 . S
C96 C94 1.353 . S
C96 H154 0.930 . S
C97 N93 1.279 . S
C97 C95 1.358 . S
C97 H155 0.930 . S
C98 C101 1.348 . S
C98 C102 1.356 . S
C98 O149 1.325 . S
C99 N100 1.279 . S
C99 C102 1.358 . S
C99 H156 0.930 . S
N100 C99 1.279 . S
N100 C103 1.314 . S
C101 C98 1.348 . S
C101 C103 1.353 . S
C101 H157 0.929 . S
C102 C98 1.356 . S
C102 C99 1.358 . S
C102 H158 0.930 . S
C103 N100 1.314 . S
C103 C101 1.353 . S
C103 H159 0.930 . S
C104 N105 1.314 . S
C104 C109 1.353 . S
C104 H110 0.930 . S
N105 Li88 1.990 . S
N105 C104 1.314 . S
N105 C107 1.279 . S
C106 C107 1.358 . S
C106 C108 1.356 . S
C106 H160 0.930 . S
C107 N105 1.279 . S
C107 C106 1.358 . S
C107 H111 0.930 . S
C108 C106 1.356 . S
C108 C109 1.348 . S
C109 C104 1.353 . S
C109 C108 1.348 . S
C109 H161 0.929 1_565 S
H110 C104 0.930 . S
H111 C107 0.930 . S
C112 N113 1.314 . S
C112 C114 1.353 . S
C112 H118 0.930 . S
N113 Li89 1.990 . S
N113 C112 1.314 . S
N113 C116 1.279 . S
C114 C112 1.353 . S
C114 C117 1.348 . S
C114 H162 0.929 . S
C115 C116 1.358 . S
C115 C117 1.356 . S
C115 H163 0.930 . S
C116 N113 1.279 . S
C116 C115 1.358 . S
C116 H119 0.930 . S
C117 C114 1.348 . S
C117 C115 1.356 . S
H118 C112 0.930 . S
H119 C116 0.930 . S
C120 C122 1.348 . S
C120 C123 1.356 1_565 S
C120 O150 1.325 . S
N121 C124 1.314 . S
N121 C125 1.279 . S
C122 C120 1.348 . S
C122 C124 1.353 1_565 S
C122 H164 0.929 . S
C123 C120 1.356 1_545 S
C123 C125 1.358 . S
C123 H165 0.930 1_545 S
C124 N121 1.314 . S
C124 C122 1.353 1_545 S
C124 H166 0.930 . S
C125 N121 1.279 . S
C125 C123 1.358 . S
C125 H167 0.930 . S
C126 C127 1.348 . S
C126 C128 1.356 . S
C126 O151 1.325 . S
C127 C126 1.348 . S
C127 C129 1.353 . S
C127 H168 0.929 . S
C128 C126 1.356 . S
C128 C130 1.358 . S
C128 H169 0.930 . S
C129 C127 1.353 . S
C129 N131 1.314 . S
C129 H170 0.930 . S
C130 C128 1.358 . S
C130 N131 1.279 . S
C130 H171 0.930 . S
N131 C129 1.314 . S
N131 C130 1.279 . S
C132 C134 1.353 . S
C132 N135 1.314 . S
C132 H138 0.930 . S
C133 N135 1.279 . S
C133 C136 1.358 . S
C133 H139 0.930 . S
C134 C132 1.353 . S
C134 C137 1.348 . S
C134 H172 0.929 . S
N135 Li90 1.990 . S
N135 C132 1.314 . S
N135 C133 1.279 . S
C136 C133 1.358 . S
C136 C137 1.356 . S
C136 H173 0.904 1_565 S
C137 C134 1.348 . S
C137 C136 1.356 . S
H138 C132 0.930 . S
H139 C133 0.930 . S
C140 N141 1.314 . S
C140 C142 1.353 . S
C140 H146 0.930 . S
N141 Li91 1.990 . S
N141 C140 1.314 . S
N141 C144 1.279 . S
C142 C140 1.353 . S
C142 C145 1.348 . S
C142 H174 0.929 . S
C143 C144 1.358 . S
C143 C145 1.356 . S
C143 H175 0.930 . S
C144 N141 1.279 . S
C144 C143 1.358 . S
C144 H147 0.930 . S
C145 C142 1.348 . S
C145 C143 1.356 . S
H146 C140 0.930 . S
H147 C144 0.930 . S
O148 Li88 1.956 . S
O148 Li89 1.970 . S
O148 Li90 1.961 . S
O148 C92 1.325 . S
O149 Li88 1.970 . S
O149 Li89 1.956 . S
O149 Li91 1.961 . S
O149 C98 1.325 . S
O150 Li88 1.961 . S
O150 Li90 1.956 . S
O150 Li91 1.970 . S
O150 C120 1.325 . S
O151 Li89 1.961 . S
O151 Li90 1.970 . S
O151 Li91 1.956 . S
O151 C126 1.325 . S
H152 C94 0.929 . S
H153 C95 0.930 . S
H154 C96 0.930 . S
H155 C97 0.930 . S
H156 C99 0.930 . S
H157 C101 0.929 . S
H158 C102 0.930 . S
H159 C103 0.930 . S
H160 C106 0.930 . S
H161 C109 0.929 1_545 S
H162 C114 0.929 . S
H163 C115 0.930 . S
H164 C122 0.929 . S
H165 C123 0.930 1_565 S
H166 C124 0.930 . S
H167 C125 0.930 . S
H168 C127 0.929 . S
H169 C128 0.930 . S
H170 C129 0.930 . S
H171 C130 0.930 . S
H172 C134 0.929 . S
H173 C136 0.904 1_545 S
H174 C142 0.929 . S
H175 C143 0.930 . S
Li176 N193 1.990 . S
Li176 O236 1.956 . S
Li176 O237 1.970 . S
Li176 O238 1.961 . S
Li177 N201 1.990 . S
Li177 O236 1.970 . S
Li177 O237 1.956 . S
Li177 O239 1.961 . S
Li178 N223 1.990 . S
Li178 O236 1.961 . S
Li178 O238 1.956 . S
Li178 O239 1.970 . S
Li179 N229 1.990 . S
Li179 O237 1.961 . S
Li179 O238 1.970 . S
Li179 O239 1.956 . S
C180 C182 1.348 . S
C180 C183 1.356 . S
C180 O236 1.325 . S
N181 C184 1.314 . S
N181 C185 1.279 . S
C182 C180 1.348 . S
C182 C184 1.353 . S
C182 H240 0.929 . S
C183 C180 1.356 . S
C183 C185 1.358 . S
C183 H241 0.930 . S
C184 N181 1.314 . S
C184 C182 1.353 . S
C184 H242 0.930 . S
C185 N181 1.279 . S
C185 C183 1.358 . S
C185 H243 0.930 . S
C186 C189 1.348 . S
C186 C190 1.356 . S
C186 O237 1.325 . S
C187 N188 1.279 . S
C187 C190 1.358 . S
C187 H244 0.930 . S
N188 C187 1.279 . S
N188 C191 1.314 . S
C189 C186 1.348 . S
C189 C191 1.353 . S
C189 H245 0.929 . S
C190 C186 1.356 . S
C190 C187 1.358 . S
C190 H246 0.930 . S
C191 N188 1.314 . S
C191 C189 1.353 . S
C191 H247 0.930 . S
C192 N193 1.314 . S
C192 C197 1.353 . S
C192 H198 0.930 . S
N193 Li176 1.990 . S
N193 C192 1.314 . S
N193 C195 1.279 . S
C194 C195 1.358 . S
C194 C196 1.356 . S
C194 H248 0.930 . S
C195 N193 1.279 . S
C195 C194 1.358 . S
C195 H199 0.930 . S
C196 C194 1.356 . S
C196 C197 1.348 . S
C197 C192 1.353 . S
C197 C196 1.348 . S
C197 H249 0.929 . S
H198 C192 0.930 . S
H199 C195 0.930 . S
C200 N201 1.314 . S
C200 C202 1.353 . S
C200 H206 0.930 . S
N201 Li177 1.990 . S
N201 C200 1.314 . S
N201 C204 1.279 . S
C202 C200 1.353 . S
C202 C205 1.348 . S
C202 H250 0.929 . S
C203 C204 1.358 . S
C203 C205 1.356 . S
C203 H251 0.930 . S
C204 N201 1.279 . S
C204 C203 1.358 . S
C204 H207 0.930 . S
C205 C202 1.348 . S
C205 C203 1.356 . S
H206 C200 0.930 . S
H207 C204 0.930 . S
C208 C210 1.348 . S
C208 C211 1.356 . S
C208 O238 1.325 . S
N209 C212 1.314 . S
N209 C213 1.279 . S
C210 C208 1.348 . S
C210 C212 1.353 . S
C210 H252 0.929 . S
C211 C208 1.356 . S
C211 C213 1.358 . S
C211 H253 0.930 . S
C212 N209 1.314 . S
C212 C210 1.353 . S
C212 H254 0.930 . S
C213 N209 1.279 . S
C213 C211 1.358 . S
C213 H255 0.930 . S
C214 C215 1.348 . S
C214 C216 1.356 . S
C214 O239 1.325 . S
C215 C214 1.348 . S
C215 C217 1.353 . S
C215 H256 0.929 . S
C216 C214 1.356 . S
C216 C218 1.358 . S
C216 H257 0.930 . S
C217 C215 1.353 . S
C217 N219 1.314 . S
C217 H258 0.930 . S
C218 C216 1.358 . S
C218 N219 1.279 . S
C218 H259 0.930 . S
N219 C217 1.314 . S
N219 C218 1.279 . S
C220 C222 1.353 . S
C220 N223 1.314 . S
C220 H226 0.930 . S
C221 N223 1.279 . S
C221 C224 1.358 . S
C221 H227 0.930 . S
C222 C220 1.353 . S
C222 C225 1.348 . S
C222 H260 0.929 . S
N223 Li178 1.990 . S
N223 C220 1.314 . S
N223 C221 1.279 . S
C224 C221 1.358 . S
C224 C225 1.356 . S
C224 H261 0.930 . S
C225 C222 1.348 . S
C225 C224 1.356 . S
H226 C220 0.930 . S
H227 C221 0.930 . S
C228 N229 1.314 . S
C228 C230 1.353 . S
C228 H234 0.930 . S
N229 Li179 1.990 . S
N229 C228 1.314 . S
N229 C232 1.279 . S
C230 C228 1.353 . S
C230 C233 1.348 . S
C230 H262 0.929 . S
C231 C232 1.358 . S
C231 C233 1.356 . S
C231 H263 0.930 . S
C232 N229 1.279 . S
C232 C231 1.358 . S
C232 H235 0.930 . S
C233 C230 1.348 . S
C233 C231 1.356 . S
H234 C228 0.930 . S
H235 C232 0.930 . S
O236 Li176 1.956 . S
O236 Li177 1.970 . S
O236 Li178 1.961 . S
O236 C180 1.325 . S
O237 Li176 1.970 . S
O237 Li177 1.956 . S
O237 Li179 1.961 . S
O237 C186 1.325 . S
O238 Li176 1.961 . S
O238 Li178 1.956 . S
O238 Li179 1.970 . S
O238 C208 1.325 . S
O239 Li177 1.961 . S
O239 Li178 1.970 . S
O239 Li179 1.956 . S
O239 C214 1.325 . S
H240 C182 0.929 . S
H241 C183 0.930 . S
H242 C184 0.930 . S
H243 C185 0.930 . S
H244 C187 0.930 . S
H245 C189 0.929 . S
H246 C190 0.930 . S
H247 C191 0.930 . S
H248 C194 0.930 . S
H249 C197 0.929 . S
H250 C202 0.929 . S
H251 C203 0.930 . S
H252 C210 0.929 . S
H253 C211 0.930 . S
H254 C212 0.930 . S
H255 C213 0.930 . S
H256 C215 0.929 . S
H257 C216 0.930 . S
H258 C217 0.930 . S
H259 C218 0.930 . S
H260 C222 0.929 . S
H261 C224 0.930 . S
H262 C230 0.929 . S
H263 C231 0.930 . S
Li264 N281 1.990 . S
Li264 O324 1.956 . S
Li264 O325 1.970 . S
Li264 O326 1.961 . S
Li265 N289 1.990 . S
Li265 O324 1.970 . S
Li265 O325 1.956 . S
Li265 O327 1.961 . S
Li266 N311 1.990 . S
Li266 O324 1.961 . S
Li266 O326 1.956 . S
Li266 O327 1.970 . S
Li267 N317 1.990 . S
Li267 O325 1.961 . S
Li267 O326 1.970 . S
Li267 O327 1.956 . S
C268 C270 1.348 . S
C268 C271 1.356 . S
C268 O324 1.325 . S
N269 C272 1.314 . S
N269 C273 1.279 . S
C270 C268 1.348 . S
C270 C272 1.353 . S
C270 H328 0.929 . S
C271 C268 1.356 . S
C271 C273 1.358 . S
C271 H329 0.930 . S
C272 N269 1.314 . S
C272 C270 1.353 . S
C272 H330 0.930 . S
C273 N269 1.279 . S
C273 C271 1.358 . S
C273 H331 0.930 . S
C274 C277 1.348 . S
C274 C278 1.356 . S
C274 O325 1.325 . S
C275 N276 1.279 . S
C275 C278 1.358 . S
C275 H332 0.930 . S
N276 C275 1.279 . S
N276 C279 1.314 . S
C277 C274 1.348 . S
C277 C279 1.353 . S
C277 H333 0.929 . S
C278 C274 1.356 . S
C278 C275 1.358 . S
C278 H334 0.930 . S
C279 N276 1.314 . S
C279 C277 1.353 . S
C279 H335 0.930 . S
C280 N281 1.314 . S
C280 C285 1.353 . S
C280 H286 0.930 . S
N281 Li264 1.990 . S
N281 C280 1.314 . S
N281 C283 1.279 . S
C282 C283 1.358 . S
C282 C284 1.356 . S
C282 H336 0.930 . S
C283 N281 1.279 . S
C283 C282 1.358 . S
C283 H287 0.930 . S
C284 C282 1.356 . S
C284 C285 1.348 . S
C285 C280 1.353 . S
C285 C284 1.348 . S
C285 H337 0.929 1_545 S
H286 C280 0.930 . S
H287 C283 0.930 . S
C288 N289 1.314 . S
C288 C290 1.353 . S
C288 H294 0.930 . S
N289 Li265 1.990 . S
N289 C288 1.314 . S
N289 C292 1.279 . S
C290 C288 1.353 . S
C290 C293 1.348 . S
C290 H338 0.929 . S
C291 C292 1.358 . S
C291 C293 1.356 . S
C291 H339 0.930 . S
C292 N289 1.279 . S
C292 C291 1.358 . S
C292 H295 0.930 . S
C293 C290 1.348 . S
C293 C291 1.356 . S
H294 C288 0.930 . S
H295 C292 0.930 . S
C296 C298 1.348 . S
C296 C299 1.356 1_545 S
C296 O326 1.325 . S
N297 C300 1.314 . S
N297 C301 1.279 . S
C298 C296 1.348 . S
C298 C300 1.353 1_545 S
C298 H340 0.929 . S
C299 C296 1.356 1_565 S
C299 C301 1.358 . S
C299 H341 0.930 1_565 S
C300 N297 1.314 . S
C300 C298 1.353 1_565 S
C300 H342 0.930 . S
C301 N297 1.279 . S
C301 C299 1.358 . S
C301 H343 0.930 . S
C302 C303 1.348 . S
C302 C304 1.356 . S
C302 O327 1.325 . S
C303 C302 1.348 . S
C303 C305 1.353 1_655 S
C303 H344 0.929 . S
C304 C302 1.356 . S
C304 C306 1.358 1_655 S
C304 H345 0.930 . S
C305 C303 1.353 1_455 S
C305 N307 1.314 . S
C305 H346 0.930 . S
C306 C304 1.358 1_455 S
C306 N307 1.279 . S
C306 H347 0.930 . S
N307 C305 1.314 . S
N307 C306 1.279 . S
C308 C310 1.353 . S
C308 N311 1.314 . S
C308 H314 0.930 . S
C309 N311 1.279 . S
C309 C312 1.358 . S
C309 H315 0.930 . S
C310 C308 1.353 . S
C310 C313 1.348 . S
C310 H348 0.929 . S
N311 Li266 1.990 . S
N311 C308 1.314 . S
N311 C309 1.279 . S
C312 C309 1.358 . S
C312 C313 1.356 . S
C312 H349 0.904 1_545 S
C313 C310 1.348 . S
C313 C312 1.356 . S
H314 C308 0.930 . S
H315 C309 0.930 . S
C316 N317 1.314 . S
C316 C318 1.353 . S
C316 H322 0.930 . S
N317 Li267 1.990 . S
N317 C316 1.314 . S
N317 C320 1.279 1_655 S
C318 C316 1.353 . S
C318 C321 1.348 1_655 S
C318 H350 0.929 . S
C319 C320 1.358 . S
C319 C321 1.356 . S
C319 H351 0.930 . S
C320 N317 1.279 1_455 S
C320 C319 1.358 . S
C320 H323 0.930 . S
C321 C318 1.348 1_455 S
C321 C319 1.356 . S
H322 C316 0.930 . S
H323 C320 0.930 . S
O324 Li264 1.956 . S
O324 Li265 1.970 . S
O324 Li266 1.961 . S
O324 C268 1.325 . S
O325 Li264 1.970 . S
O325 Li265 1.956 . S
O325 Li267 1.961 . S
O325 C274 1.325 . S
O326 Li264 1.961 . S
O326 Li266 1.956 . S
O326 Li267 1.970 . S
O326 C296 1.325 . S
O327 Li265 1.961 . S
O327 Li266 1.970 . S
O327 Li267 1.956 . S
O327 C302 1.325 . S
H328 C270 0.929 . S
H329 C271 0.930 . S
H330 C272 0.930 . S
H331 C273 0.930 . S
H332 C275 0.930 . S
H333 C277 0.929 . S
H334 C278 0.930 . S
H335 C279 0.930 . S
H336 C282 0.930 . S
H337 C285 0.929 1_565 S
H338 C290 0.929 . S
H339 C291 0.930 . S
H340 C298 0.929 . S
H341 C299 0.930 1_545 S
H342 C300 0.930 . S
H343 C301 0.930 . S
H344 C303 0.929 . S
H345 C304 0.930 . S
H346 C305 0.930 . S
H347 C306 0.930 . S
H348 C310 0.929 . S
H349 C312 0.904 1_565 S
H350 C318 0.929 . S
H351 C319 0.930 . S
Li352 N369 1.990 . S
Li352 O412 1.956 . S
Li352 O413 1.970 . S
Li352 O414 1.961 . S
Li353 N377 1.990 . S
Li353 O412 1.970 . S
Li353 O413 1.956 . S
Li353 O415 1.961 . S
Li354 N399 1.990 . S
Li354 O412 1.961 . S
Li354 O414 1.956 . S
Li354 O415 1.970 . S
Li355 N405 1.990 . S
Li355 O413 1.961 . S
Li355 O414 1.970 . S
Li355 O415 1.956 . S
C356 C358 1.348 . S
C356 C359 1.356 . S
C356 O412 1.325 . S
N357 C360 1.314 . S
N357 C361 1.279 . S
C358 C356 1.348 . S
C358 C360 1.353 . S
C358 H416 0.929 . S
C359 C356 1.356 . S
C359 C361 1.358 . S
C359 H417 0.930 . S
C360 N357 1.314 . S
C360 C358 1.353 . S
C360 H418 0.930 . S
C361 N357 1.279 . S
C361 C359 1.358 . S
C361 H419 0.930 . S
C362 C365 1.348 . S
C362 C366 1.356 . S
C362 O413 1.325 . S
C363 N364 1.279 . S
C363 C366 1.358 . S
C363 H420 0.930 . S
N364 C363 1.279 . S
N364 C367 1.314 . S
C365 C362 1.348 . S
C365 C367 1.353 . S
C365 H421 0.929 . S
C366 C362 1.356 . S
C366 C363 1.358 . S
C366 H422 0.930 . S
C367 N364 1.314 . S
C367 C365 1.353 . S
C367 H423 0.930 . S
C368 N369 1.314 . S
C368 C373 1.353 . S
C368 H374 0.930 . S
N369 Li352 1.990 . S
N369 C368 1.314 . S
N369 C371 1.279 . S
C370 C371 1.358 . S
C370 C372 1.356 . S
C370 H424 0.930 . S
C371 N369 1.279 . S
C371 C370 1.358 . S
C371 H375 0.930 . S
C372 C370 1.356 . S
C372 C373 1.348 . S
C373 C368 1.353 . S
C373 C372 1.348 . S
C373 H425 0.929 . S
H374 C368 0.930 . S
H375 C371 0.930 . S
C376 N377 1.314 1_455 S
C376 C378 1.353 . S
C376 H382 0.930 . S
N377 Li353 1.990 . S
N377 C376 1.314 1_655 S
N377 C380 1.279 . S
C378 C376 1.353 . S
C378 C381 1.348 . S
C378 H426 0.929 . S
C379 C380 1.358 . S
C379 C381 1.357 1_655 S
C379 H427 0.929 . S
C380 N377 1.279 . S
C380 C379 1.358 . S
C380 H383 0.930 . S
C381 C378 1.348 . S
C381 C379 1.357 1_455 S
H382 C376 0.930 . S
H383 C380 0.930 . S
C384 C386 1.348 . S
C384 C387 1.356 . S
C384 O414 1.325 . S
N385 C388 1.314 . S
N385 C389 1.279 . S
C386 C384 1.348 . S
C386 C388 1.353 . S
C386 H428 0.929 . S
C387 C384 1.356 . S
C387 C389 1.358 . S
C387 H429 0.930 . S
C388 N385 1.314 . S
C388 C386 1.353 . S
C388 H430 0.930 . S
C389 N385 1.279 . S
C389 C387 1.358 . S
C389 H431 0.930 . S
C390 C391 1.348 . S
C390 C392 1.356 . S
C390 O415 1.325 . S
C391 C390 1.348 . S
C391 C393 1.353 . S
C391 H432 0.929 . S
C392 C390 1.356 . S
C392 C394 1.358 1_655 S
C392 H433 0.930 . S
C393 C391 1.353 . S
C393 N395 1.314 1_655 S
C393 H434 0.926 1_655 S
C394 C392 1.358 1_455 S
C394 N395 1.279 . S
C394 H435 0.930 . S
N395 C393 1.314 1_455 S
N395 C394 1.279 . S
C396 C398 1.353 . S
C396 N399 1.314 . S
C396 H402 0.930 . S
C397 N399 1.279 . S
C397 C400 1.358 . S
C397 H403 0.930 . S
C398 C396 1.353 . S
C398 C401 1.348 . S
C398 H436 0.929 . S
N399 Li354 1.990 . S
N399 C396 1.314 . S
N399 C397 1.279 . S
C400 C397 1.358 . S
C400 C401 1.356 . S
C400 H437 0.930 . S
C401 C398 1.348 . S
C401 C400 1.356 . S
H402 C396 0.930 . S
H403 C397 0.930 . S
C404 N405 1.314 . S
C404 C406 1.353 . S
C404 H410 0.930 . S
N405 Li355 1.990 . S
N405 C404 1.314 . S
N405 C408 1.279 . S
C406 C404 1.353 . S
C406 C409 1.348 . S
C406 H438 0.929 . S
C407 C408 1.358 . S
C407 C409 1.356 . S
C407 H439 0.930 . S
C408 N405 1.279 . S
C408 C407 1.358 . S
C408 H411 0.930 . S
C409 C406 1.348 . S
C409 C407 1.356 . S
H410 C404 0.930 . S
H411 C408 0.930 . S
O412 Li352 1.956 . S
O412 Li353 1.970 . S
O412 Li354 1.961 . S
O412 C356 1.325 . S
O413 Li352 1.970 . S
O413 Li353 1.956 . S
O413 Li355 1.961 . S
O413 C362 1.325 . S
O414 Li352 1.961 . S
O414 Li354 1.956 . S
O414 Li355 1.970 . S
O414 C384 1.325 . S
O415 Li353 1.961 . S
O415 Li354 1.970 . S
O415 Li355 1.956 . S
O415 C390 1.325 . S
H416 C358 0.929 . S
H417 C359 0.930 . S
H418 C360 0.930 . S
H419 C361 0.930 . S
H420 C363 0.930 . S
H421 C365 0.929 . S
H422 C366 0.930 . S
H423 C367 0.930 . S
H424 C370 0.930 . S
H425 C373 0.929 . S
H426 C378 0.929 . S
H427 C379 0.929 . S
H428 C386 0.929 . S
H429 C387 0.930 . S
H430 C388 0.930 . S
H431 C389 0.930 . S
H432 C391 0.929 . S
H433 C392 0.930 . S
H434 C393 0.926 1_455 S
H435 C394 0.930 . S
H436 C398 0.929 . S
H437 C400 0.930 . S
H438 C406 0.929 . S
H439 C407 0.930 . S
Li440 N457 1.990 . S
Li440 O500 1.956 . S
Li440 O501 1.970 . S
Li440 O502 1.961 . S
Li441 N465 1.990 . S
Li441 O500 1.970 . S
Li441 O501 1.956 . S
Li441 O503 1.961 . S
Li442 N487 1.990 . S
Li442 O500 1.961 . S
Li442 O502 1.956 . S
Li442 O503 1.970 . S
Li443 N493 1.990 . S
Li443 O501 1.961 . S
Li443 O502 1.970 . S
Li443 O503 1.956 . S
C444 C446 1.348 . S
C444 C447 1.356 . S
C444 O500 1.325 . S
N445 C448 1.314 . S
N445 C449 1.279 . S
C446 C444 1.348 . S
C446 C448 1.353 . S
C446 H504 0.929 . S
C447 C444 1.356 . S
C447 C449 1.358 . S
C447 H505 0.930 . S
C448 N445 1.314 . S
C448 C446 1.353 . S
C448 H506 0.930 . S
C449 N445 1.279 . S
C449 C447 1.358 . S
C449 H507 0.930 . S
C450 C453 1.348 . S
C450 C454 1.356 1_545 S
C450 O501 1.325 . S
C451 N452 1.279 . S
C451 C454 1.358 . S
C451 H508 0.930 . S
N452 C451 1.279 . S
N452 C455 1.314 . S
C453 C450 1.348 . S
C453 C455 1.353 1_545 S
C453 H509 0.929 . S
C454 C450 1.356 1_565 S
C454 C451 1.358 . S
C454 H510 0.930 1_565 S
C455 N452 1.314 . S
C455 C453 1.353 1_565 S
C455 H511 0.930 . S
C456 N457 1.314 . S
C456 C461 1.353 . S
C456 H462 0.930 . S
N457 Li440 1.990 . S
N457 C456 1.314 . S
N457 C459 1.279 . S
C458 C459 1.358 . S
C458 C460 1.356 . S
C458 H512 0.930 . S
C459 N457 1.279 . S
C459 C458 1.358 . S
C459 H463 0.930 . S
C460 C458 1.356 . S
C460 C461 1.348 . S
C461 C456 1.353 . S
C461 C460 1.348 . S
C461 H513 0.929 . S
H462 C456 0.930 . S
H463 C459 0.930 . S
C464 N465 1.314 . S
C464 C466 1.353 . S
C464 H470 0.930 . S
N465 Li441 1.990 . S
N465 C464 1.314 . S
N465 C468 1.279 . S
C466 C464 1.353 . S
C466 C469 1.348 . S
C466 H514 0.929 . S
C467 C468 1.358 . S
C467 C469 1.356 . S
C467 H515 0.930 1_545 S
C468 N465 1.279 . S
C468 C467 1.358 . S
C468 H471 0.930 . S
C469 C466 1.348 . S
C469 C467 1.356 . S
H470 C464 0.930 . S
H471 C468 0.930 . S
C472 C474 1.348 . S
C472 C475 1.356 . S
C472 O502 1.325 . S
N473 C476 1.314 . S
N473 C477 1.279 . S
C474 C472 1.348 . S
C474 C476 1.353 . S
C474 H516 0.929 . S
C475 C472 1.356 . S
C475 C477 1.358 . S
C475 H517 0.930 . S
C476 N473 1.314 . S
C476 C474 1.353 . S
C476 H518 0.930 . S
C477 N473 1.279 . S
C477 C475 1.358 . S
C477 H519 0.930 . S
C478 C479 1.348 . S
C478 C480 1.356 . S
C478 O503 1.325 . S
C479 C478 1.348 . S
C479 C481 1.353 . S
C479 H520 0.929 . S
C480 C478 1.356 . S
C480 C482 1.358 . S
C480 H521 0.930 . S
C481 C479 1.353 . S
C481 N483 1.314 . S
C481 H522 0.930 . S
C482 C480 1.358 . S
C482 N483 1.279 . S
C482 H523 0.930 . S
N483 C481 1.314 . S
N483 C482 1.279 . S
C484 C486 1.353 . S
C484 N487 1.314 . S
C484 H490 0.930 . S
C485 N487 1.279 . S
C485 C488 1.358 . S
C485 H491 0.930 . S
C486 C484 1.353 . S
C486 C489 1.348 . S
C486 H524 0.929 . S
N487 Li442 1.990 . S
N487 C484 1.314 . S
N487 C485 1.279 . S
C488 C485 1.358 . S
C488 C489 1.356 . S
C488 H525 0.930 . S
C489 C486 1.348 . S
C489 C488 1.356 . S
H490 C484 0.930 . S
H491 C485 0.930 . S
C492 N493 1.314 . S
C492 C494 1.353 . S
C492 H498 0.930 . S
N493 Li443 1.990 . S
N493 C492 1.314 . S
N493 C496 1.279 . S
C494 C492 1.353 . S
C494 C497 1.348 . S
C494 H526 0.929 . S
C495 C496 1.358 . S
C495 C497 1.356 . S
C495 H527 0.930 . S
C496 N493 1.279 . S
C496 C495 1.358 . S
C496 H499 0.930 . S
C497 C494 1.348 . S
C497 C495 1.356 . S
H498 C492 0.930 . S
H499 C496 0.930 . S
O500 Li440 1.956 . S
O500 Li441 1.970 . S
O500 Li442 1.961 . S
O500 C444 1.325 . S
O501 Li440 1.970 . S
O501 Li441 1.956 . S
O501 Li443 1.961 . S
O501 C450 1.325 . S
O502 Li440 1.961 . S
O502 Li442 1.956 . S
O502 Li443 1.970 . S
O502 C472 1.325 . S
O503 Li441 1.961 . S
O503 Li442 1.970 . S
O503 Li443 1.956 . S
O503 C478 1.325 . S
H504 C446 0.929 . S
H505 C447 0.930 . S
H506 C448 0.930 . S
H507 C449 0.930 . S
H508 C451 0.930 . S
H509 C453 0.929 . S
H510 C454 0.930 1_545 S
H511 C455 0.930 . S
H512 C458 0.930 . S
H513 C461 0.929 . S
H514 C466 0.929 . S
H515 C467 0.930 1_565 S
H516 C474 0.929 . S
H517 C475 0.930 . S
H518 C476 0.930 . S
H519 C477 0.930 . S
H520 C479 0.929 . S
H521 C480 0.930 . S
H522 C481 0.930 . S
H523 C482 0.930 . S
H524 C486 0.929 . S
H525 C488 0.930 . S
H526 C494 0.929 . S
H527 C495 0.930 . S
Li528 N545 1.990 . S
Li528 O588 1.956 . S
Li528 O589 1.970 . S
Li528 O590 1.961 . S
Li529 N553 1.990 . S
Li529 O588 1.970 . S
Li529 O589 1.956 . S
Li529 O591 1.961 . S
Li530 N575 1.990 . S
Li530 O588 1.961 . S
Li530 O590 1.956 . S
Li530 O591 1.970 . S
Li531 N581 1.990 . S
Li531 O589 1.961 . S
Li531 O590 1.970 . S
Li531 O591 1.956 . S
C532 C534 1.348 . S
C532 C535 1.356 . S
C532 O588 1.325 . S
N533 C536 1.314 . S
N533 C537 1.279 . S
C534 C532 1.348 . S
C534 C536 1.353 . S
C534 H592 0.929 . S
C535 C532 1.356 . S
C535 C537 1.358 . S
C535 H593 0.930 . S
C536 N533 1.314 . S
C536 C534 1.353 . S
C536 H594 0.930 . S
C537 N533 1.279 . S
C537 C535 1.358 . S
C537 H595 0.930 . S
C538 C541 1.348 . S
C538 C542 1.356 . S
C538 O589 1.325 . S
C539 N540 1.279 . S
C539 C542 1.358 . S
C539 H596 0.930 . S
N540 C539 1.279 . S
N540 C543 1.314 . S
C541 C538 1.348 . S
C541 C543 1.353 . S
C541 H597 0.929 . S
C542 C538 1.356 . S
C542 C539 1.358 . S
C542 H598 0.930 . S
C543 N540 1.314 . S
C543 C541 1.353 . S
C543 H599 0.930 . S
C544 N545 1.314 . S
C544 C549 1.353 . S
C544 H550 0.930 . S
N545 Li528 1.990 . S
N545 C544 1.314 . S
N545 C547 1.279 . S
C546 C547 1.358 . S
C546 C548 1.356 . S
C546 H600 0.930 . S
C547 N545 1.279 . S
C547 C546 1.358 . S
C547 H551 0.930 . S
C548 C546 1.356 . S
C548 C549 1.348 . S
C549 C544 1.353 . S
C549 C548 1.348 . S
C549 H601 0.929 . S
H550 C544 0.930 . S
H551 C547 0.930 . S
C552 N553 1.314 . S
C552 C554 1.353 . S
C552 H558 0.930 . S
N553 Li529 1.990 . S
N553 C552 1.314 . S
N553 C556 1.279 . S
C554 C552 1.353 . S
C554 C557 1.348 . S
C554 H602 0.929 . S
C555 C556 1.358 . S
C555 C557 1.356 . S
C555 H603 0.930 . S
C556 N553 1.279 . S
C556 C555 1.358 . S
C556 H559 0.930 . S
C557 C554 1.348 . S
C557 C555 1.356 . S
H558 C552 0.930 . S
H559 C556 0.930 . S
C560 C562 1.348 . S
C560 C563 1.356 . S
C560 O590 1.325 . S
N561 C564 1.314 . S
N561 C565 1.279 . S
C562 C560 1.348 . S
C562 C564 1.353 . S
C562 H604 0.929 . S
C563 C560 1.356 . S
C563 C565 1.358 . S
C563 H605 0.930 . S
C564 N561 1.314 . S
C564 C562 1.353 . S
C564 H606 0.930 . S
C565 N561 1.279 . S
C565 C563 1.358 . S
C565 H607 0.930 . S
C566 C567 1.348 . S
C566 C568 1.356 . S
C566 O591 1.325 . S
C567 C566 1.348 . S
C567 C569 1.353 . S
C567 H608 0.929 . S
C568 C566 1.356 . S
C568 C570 1.358 . S
C568 H609 0.930 . S
C569 C567 1.353 . S
C569 N571 1.314 . S
C569 H610 0.930 . S
C570 C568 1.358 . S
C570 N571 1.279 . S
C570 H611 0.930 . S
N571 C569 1.314 . S
N571 C570 1.279 . S
C572 C574 1.353 . S
C572 N575 1.314 . S
C572 H578 0.930 . S
C573 N575 1.279 . S
C573 C576 1.358 . S
C573 H579 0.930 . S
C574 C572 1.353 . S
C574 C577 1.348 . S
C574 H612 0.929 . S
N575 Li530 1.990 . S
N575 C572 1.314 . S
N575 C573 1.279 . S
C576 C573 1.358 . S
C576 C577 1.356 . S
C576 H613 0.930 . S
C577 C574 1.348 . S
C577 C576 1.356 . S
H578 C572 0.930 . S
H579 C573 0.930 . S
C580 N581 1.314 . S
C580 C582 1.353 . S
C580 H586 0.930 . S
N581 Li531 1.990 . S
N581 C580 1.314 . S
N581 C584 1.279 . S
C582 C580 1.353 . S
C582 C585 1.348 . S
C582 H614 0.929 . S
C583 C584 1.358 . S
C583 C585 1.356 . S
C583 H615 0.930 . S
C584 N581 1.279 . S
C584 C583 1.358 . S
C584 H587 0.930 . S
C585 C582 1.348 . S
C585 C583 1.356 . S
H586 C580 0.930 . S
H587 C584 0.930 . S
O588 Li528 1.956 . S
O588 Li529 1.970 . S
O588 Li530 1.961 . S
O588 C532 1.325 . S
O589 Li528 1.970 . S
O589 Li529 1.956 . S
O589 Li531 1.961 . S
O589 C538 1.325 . S
O590 Li528 1.961 . S
O590 Li530 1.956 . S
O590 Li531 1.970 . S
O590 C560 1.325 . S
O591 Li529 1.961 . S
O591 Li530 1.970 . S
O591 Li531 1.956 . S
O591 C566 1.325 . S
H592 C534 0.929 . S
H593 C535 0.930 . S
H594 C536 0.930 . S
H595 C537 0.930 . S
H596 C539 0.930 . S
H597 C541 0.929 . S
H598 C542 0.930 . S
H599 C543 0.930 . S
H600 C546 0.930 . S
H601 C549 0.929 . S
H602 C554 0.929 . S
H603 C555 0.930 . S
H604 C562 0.929 . S
H605 C563 0.930 . S
H606 C564 0.930 . S
H607 C565 0.930 . S
H608 C567 0.929 . S
H609 C568 0.930 . S
H610 C569 0.930 . S
H611 C570 0.930 . S
H612 C574 0.929 . S
H613 C576 0.930 . S
H614 C582 0.929 . S
H615 C583 0.930 . S
Li616 N633 1.990 . S
Li616 O676 1.956 . S
Li616 O677 1.970 . S
Li616 O678 1.961 . S
Li617 N641 1.990 . S
Li617 O676 1.970 . S
Li617 O677 1.956 . S
Li617 O679 1.961 . S
Li618 N663 1.990 . S
Li618 O676 1.961 . S
Li618 O678 1.956 . S
Li618 O679 1.970 . S
Li619 N669 1.990 . S
Li619 O677 1.961 . S
Li619 O678 1.970 . S
Li619 O679 1.956 . S
C620 C622 1.348 . S
C620 C623 1.356 . S
C620 O676 1.325 . S
N621 C624 1.314 . S
N621 C625 1.279 . S
C622 C620 1.348 . S
C622 C624 1.353 . S
C622 H680 0.929 . S
C623 C620 1.356 . S
C623 C625 1.358 . S
C623 H681 0.930 . S
C624 N621 1.314 . S
C624 C622 1.353 . S
C624 H682 0.930 . S
C625 N621 1.279 . S
C625 C623 1.358 . S
C625 H683 0.930 . S
C626 C629 1.348 . S
C626 C630 1.356 . S
C626 O677 1.325 . S
C627 N628 1.279 . S
C627 C630 1.358 1_655 S
C627 H684 0.930 . S
N628 C627 1.279 . S
N628 C631 1.314 1_655 S
C629 C626 1.348 . S
C629 C631 1.353 . S
C629 H685 0.929 . S
C630 C626 1.356 . S
C630 C627 1.358 1_455 S
C630 H686 0.930 . S
C631 N628 1.314 1_455 S
C631 C629 1.353 . S
C631 H687 0.926 1_455 S
C632 N633 1.314 . S
C632 C637 1.353 . S
C632 H638 0.930 . S
N633 Li616 1.990 . S
N633 C632 1.314 . S
N633 C635 1.279 . S
C634 C635 1.358 . S
C634 C636 1.356 . S
C634 H688 0.930 . S
C635 N633 1.279 . S
C635 C634 1.358 . S
C635 H639 0.930 . S
C636 C634 1.356 . S
C636 C637 1.348 . S
C637 C632 1.353 . S
C637 C636 1.348 . S
C637 H689 0.929 . S
H638 C632 0.930 . S
H639 C635 0.930 . S
C640 N641 1.314 . S
C640 C642 1.353 . S
C640 H646 0.930 . S
N641 Li617 1.990 . S
N641 C640 1.314 . S
N641 C644 1.279 . S
C642 C640 1.353 . S
C642 C645 1.348 . S
C642 H690 0.929 . S
C643 C644 1.358 . S
C643 C645 1.356 . S
C643 H691 0.930 . S
C644 N641 1.279 . S
C644 C643 1.358 . S
C644 H647 0.930 . S
C645 C642 1.348 . S
C645 C643 1.356 . S
H646 C640 0.930 . S
H647 C644 0.930 . S
C648 C650 1.348 . S
C648 C651 1.356 1_565 S
C648 O678 1.325 . S
N649 C652 1.314 . S
N649 C653 1.279 . S
C650 C648 1.348 . S
C650 C652 1.353 1_565 S
C650 H692 0.929 . S
C651 C648 1.356 1_545 S
C651 C653 1.358 . S
C651 H693 0.930 1_545 S
C652 N649 1.314 . S
C652 C650 1.353 1_545 S
C652 H694 0.930 . S
C653 N649 1.279 . S
C653 C651 1.358 . S
C653 H695 0.930 . S
C654 C655 1.348 . S
C654 C656 1.356 . S
C654 O679 1.325 . S
C655 C654 1.348 . S
C655 C657 1.353 . S
C655 H696 0.929 . S
C656 C654 1.356 . S
C656 C658 1.358 . S
C656 H697 0.930 . S
C657 C655 1.353 . S
C657 N659 1.314 . S
C657 H698 0.930 . S
C658 C656 1.358 . S
C658 N659 1.279 . S
C658 H699 0.930 . S
N659 C657 1.314 . S
N659 C658 1.279 . S
C660 C662 1.353 . S
C660 N663 1.314 . S
C660 H666 0.930 . S
C661 N663 1.279 . S
C661 C664 1.358 . S
C661 H667 0.930 . S
C662 C660 1.353 . S
C662 C665 1.348 . S
C662 H700 0.929 . S
N663 Li618 1.990 . S
N663 C660 1.314 . S
N663 C661 1.279 . S
C664 C661 1.358 . S
C664 C665 1.356 . S
C664 H701 0.930 1_565 S
C665 C662 1.348 . S
C665 C664 1.356 . S
H666 C660 0.930 . S
H667 C661 0.930 . S
C668 N669 1.314 1_655 S
C668 C670 1.353 . S
C668 H674 0.930 . S
N669 Li619 1.990 . S
N669 C668 1.314 1_455 S
N669 C672 1.279 . S
C670 C668 1.353 . S
C670 C673 1.348 . S
C670 H702 0.929 . S
C671 C672 1.358 . S
C671 C673 1.357 1_455 S
C671 H703 0.929 . S
C672 N669 1.279 . S
C672 C671 1.358 . S
C672 H675 0.930 . S
C673 C670 1.348 . S
C673 C671 1.357 1_655 S
H674 C668 0.930 . S
H675 C672 0.930 . S
O676 Li616 1.956 . S
O676 Li617 1.970 . S
O676 Li618 1.961 . S
O676 C620 1.325 . S
O677 Li616 1.970 . S
O677 Li617 1.956 . S
O677 Li619 1.961 . S
O677 C626 1.325 . S
O678 Li616 1.961 . S
O678 Li618 1.956 . S
O678 Li619 1.970 . S
O678 C648 1.325 . S
O679 Li617 1.961 . S
O679 Li618 1.970 . S
O679 Li619 1.956 . S
O679 C654 1.325 . S
H680 C622 0.929 . S
H681 C623 0.930 . S
H682 C624 0.930 . S
H683 C625 0.930 . S
H684 C627 0.930 . S
H685 C629 0.929 . S
H686 C630 0.930 . S
H687 C631 0.926 1_655 S
H688 C634 0.930 . S
H689 C637 0.929 . S
H690 C642 0.929 . S
H691 C643 0.930 . S
H692 C650 0.929 . S
H693 C651 0.930 1_565 S
H694 C652 0.930 . S
H695 C653 0.930 . S
H696 C655 0.929 . S
H697 C656 0.930 . S
H698 C657 0.930 . S
H699 C658 0.930 . S
H700 C662 0.929 . S
H701 C664 0.930 1_545 S
H702 C670 0.929 . S
H703 C671 0.929 . S
H704 C710 0.930 . S
H705 C714 0.930 . S
H706 C719 0.929 . S
H707 C717 0.929 . S
H708 C712 0.929 . S
H709 C718 0.929 . S
C710 H704 0.930 . S
C710 C711 1.367 . S
C710 C718 1.378 . S
C711 C710 1.367 . S
C711 C719 1.433 . S
C712 H708 0.929 . S
C712 C714 1.378 . S
C712 C716 1.350 . S
C713 C716 1.463 . S
C713 C718 1.350 . S
C713 N721 1.427 . S
C714 H705 0.930 . S
C714 C712 1.378 . S
C714 C715 1.367 . S
C715 C714 1.367 . S
C715 C717 1.433 . S
C716 C712 1.350 . S
C716 C713 1.463 . S
C716 N720 1.427 . S
C717 H707 0.929 . S
C717 C715 1.433 . S
C717 N720 1.384 . S
C718 H709 0.929 . S
C718 C710 1.378 . S
C718 C713 1.350 . S
C719 H706 0.929 . S
C719 C711 1.433 . S
C719 N721 1.384 . S
N720 C716 1.427 . S
N720 C717 1.384 . S
N721 C713 1.427 . S
N721 C719 1.384 . S
H722 C728 0.930 . S
H723 C732 0.930 . S
H724 C737 0.929 . S
H725 C735 0.929 . S
H726 C730 0.929 . S
H727 C736 0.929 . S
C728 H722 0.930 . S
C728 C729 1.367 . S
C728 C736 1.378 . S
C729 C728 1.367 . S
C729 C737 1.433 . S
C730 H726 0.929 . S
C730 C732 1.378 . S
C730 C734 1.350 1_565 S
C731 C734 1.463 . S
C731 C736 1.350 . S
C731 N739 1.427 . S
C732 H723 0.930 . S
C732 C730 1.378 . S
C732 C733 1.367 . S
C733 C732 1.367 . S
C733 C735 1.433 1_565 S
C734 C730 1.350 1_545 S
C734 C731 1.463 . S
C734 N738 1.427 . S
C735 H725 0.929 . S
C735 C733 1.433 1_545 S
C735 N738 1.384 . S
C736 H727 0.929 . S
C736 C728 1.378 . S
C736 C731 1.350 . S
C737 H724 0.929 . S
C737 C729 1.433 . S
C737 N739 1.384 . S
N738 C734 1.427 . S
N738 C735 1.384 . S
N739 C731 1.427 . S
N739 C737 1.384 . S
H740 C746 0.930 . S
H741 C750 0.930 . S
H742 C755 0.929 . S
H743 C753 0.929 . S
H744 C748 0.929 . S
H745 C754 0.929 . S
C746 H740 0.930 . S
C746 C747 1.367 . S
C746 C754 1.378 . S
C747 C746 1.367 . S
C747 C755 1.433 . S
C748 H744 0.929 . S
C748 C750 1.378 . S
C748 C752 1.350 . S
C749 C752 1.463 . S
C749 C754 1.350 . S
C749 N757 1.427 . S
C750 H741 0.930 . S
C750 C748 1.378 . S
C750 C751 1.367 . S
C751 C750 1.367 . S
C751 C753 1.433 . S
C752 C748 1.350 . S
C752 C749 1.463 . S
C752 N756 1.427 . S
C753 H743 0.929 . S
C753 C751 1.433 . S
C753 N756 1.384 . S
C754 H745 0.929 . S
C754 C746 1.378 . S
C754 C749 1.350 . S
C755 H742 0.929 . S
C755 C747 1.433 . S
C755 N757 1.384 . S
N756 C752 1.427 . S
N756 C753 1.384 . S
N757 C749 1.427 . S
N757 C755 1.384 . S
H758 C764 0.930 . S
H759 C768 0.930 . S
H760 C773 0.929 . S
H761 C771 0.929 . S
H762 C766 0.929 . S
H763 C772 0.929 . S
C764 H758 0.930 . S
C764 C765 1.367 . S
C764 C772 1.378 . S
C765 C764 1.367 . S
C765 C773 1.433 1_545 S
C766 H762 0.929 . S
C766 C768 1.378 . S
C766 C770 1.350 . S
C767 C770 1.463 . S
C767 C772 1.350 1_565 S
C767 N775 1.427 . S
C768 H759 0.930 . S
C768 C766 1.378 . S
C768 C769 1.367 . S
C769 C768 1.367 . S
C769 C771 1.433 . S
C770 C766 1.350 . S
C770 C767 1.463 . S
C770 N774 1.427 . S
C771 H761 0.929 . S
C771 C769 1.433 . S
C771 N774 1.384 . S
C772 H763 0.929 . S
C772 C764 1.378 . S
C772 C767 1.350 1_545 S
C773 H760 0.929 . S
C773 C765 1.433 1_565 S
C773 N775 1.384 . S
N774 C770 1.427 . S
N774 C771 1.384 . S
N775 C767 1.427 . S
N775 C773 1.384 . S
H776 C782 0.930 . S
H777 C786 0.930 . S
H778 C791 0.929 . S
H779 C789 0.929 . S
H780 C784 0.929 . S
H781 C790 0.929 . S
C782 H776 0.930 . S
C782 C783 1.367 . S
C782 C790 1.378 . S
C783 C782 1.367 . S
C783 C791 1.433 . S
C784 H780 0.929 . S
C784 C786 1.378 . S
C784 C788 1.350 . S
C785 C788 1.463 . S
C785 C790 1.350 . S
C785 N793 1.427 . S
C786 H777 0.930 . S
C786 C784 1.378 . S
C786 C787 1.367 . S
C787 C786 1.367 . S
C787 C789 1.433 . S
C788 C784 1.350 . S
C788 C785 1.463 . S
C788 N792 1.427 . S
C789 H779 0.929 . S
C789 C787 1.433 . S
C789 N792 1.384 . S
C790 H781 0.929 . S
C790 C782 1.378 . S
C790 C785 1.350 . S
C791 H778 0.929 . S
C791 C783 1.433 . S
C791 N793 1.384 . S
N792 C788 1.427 . S
N792 C789 1.384 . S
N793 C785 1.427 . S
N793 C791 1.384 . S
H794 C800 0.930 . S
H795 C804 0.930 . S
H796 C809 0.929 . S
H797 C807 0.929 . S
H798 C802 0.929 1_545 S
H799 C808 0.929 . S
C800 H794 0.930 . S
C800 C801 1.367 1_565 S
C800 C808 1.378 . S
C801 C800 1.367 1_545 S
C801 C809 1.433 . S
C802 H798 0.929 1_565 S
C802 C804 1.378 . S
C802 C806 1.350 . S
C803 C806 1.463 . S
C803 C808 1.350 . S
C803 N811 1.427 1_565 S
C804 H795 0.930 . S
C804 C802 1.378 . S
C804 C805 1.367 . S
C805 C804 1.367 . S
C805 C807 1.433 . S
C806 C802 1.350 . S
C806 C803 1.463 . S
C806 N810 1.427 . S
C807 H797 0.929 . S
C807 C805 1.433 . S
C807 N810 1.384 . S
C808 H799 0.929 . S
C808 C800 1.378 . S
C808 C803 1.350 . S
C809 H796 0.929 . S
C809 C801 1.433 . S
C809 N811 1.384 . S
N810 C806 1.427 . S
N810 C807 1.384 . S
N811 C803 1.427 1_545 S
N811 C809 1.384 . S
H812 C818 0.930 . S
H813 C822 0.930 . S
H814 C827 0.929 . S
H815 C825 0.929 . S
H816 C820 0.929 . S
H817 C826 0.929 . S
C818 H812 0.930 . S
C818 C819 1.367 . S
C818 C826 1.378 . S
C819 C818 1.367 . S
C819 C827 1.433 . S
C820 H816 0.929 . S
C820 C822 1.378 . S
C820 C824 1.350 . S
C821 C824 1.463 . S
C821 C826 1.350 . S
C821 N829 1.427 . S
C822 H813 0.930 . S
C822 C820 1.378 . S
C822 C823 1.367 . S
C823 C822 1.367 . S
C823 C825 1.433 . S
C824 C820 1.350 . S
C824 C821 1.463 . S
C824 N828 1.427 . S
C825 H815 0.929 . S
C825 C823 1.433 . S
C825 N828 1.384 . S
C826 H817 0.929 . S
C826 C818 1.378 . S
C826 C821 1.350 . S
C827 H814 0.929 . S
C827 C819 1.433 . S
C827 N829 1.384 . S
N828 C824 1.427 . S
N828 C825 1.384 . S
N829 C821 1.427 . S
N829 C827 1.384 . S
H830 C836 0.930 . S
H831 C840 0.930 . S
H832 C845 0.929 . S
H833 C843 0.929 . S
H834 C838 0.929 . S
H835 C844 0.929 . S
C836 H830 0.930 . S
C836 C837 1.367 . S
C836 C844 1.378 . S
C837 C836 1.367 . S
C837 C845 1.433 1_565 S
C838 H834 0.929 . S
C838 C840 1.378 . S
C838 C842 1.350 . S
C839 C842 1.463 . S
C839 C844 1.350 1_545 S
C839 N847 1.427 . S
C840 H831 0.930 . S
C840 C838 1.378 . S
C840 C841 1.367 . S
C841 C840 1.367 . S
C841 C843 1.433 . S
C842 C838 1.350 . S
C842 C839 1.463 . S
C842 N846 1.427 . S
C843 H833 0.929 . S
C843 C841 1.433 . S
C843 N846 1.384 . S
C844 H835 0.929 . S
C844 C836 1.378 . S
C844 C839 1.350 1_565 S
C845 H832 0.929 . S
C845 C837 1.433 1_545 S
C845 N847 1.384 . S
N846 C842 1.427 . S
N846 C843 1.384 . S
N847 C839 1.427 . S
N847 C845 1.384 . S
H848 C854 0.930 . S
H849 C858 0.930 . S
H850 C863 0.929 . S
H851 C861 0.929 . S
H852 C856 0.929 . S
H853 C862 0.929 . S
C854 H848 0.930 . S
C854 C855 1.367 . S
C854 C862 1.378 . S
C855 C854 1.367 . S
C855 C863 1.433 . S
C856 H852 0.929 . S
C856 C858 1.378 . S
C856 C860 1.350 . S
C857 C860 1.463 1_455 S
C857 C862 1.350 . S
C857 N865 1.427 . S
C858 H849 0.930 . S
C858 C856 1.378 . S
C858 C859 1.367 . S
C859 C858 1.367 . S
C859 C861 1.433 . S
C860 C856 1.350 . S
C860 C857 1.463 1_655 S
C860 N864 1.427 . S
C861 H851 0.929 . S
C861 C859 1.433 . S
C861 N864 1.384 . S
C862 H853 0.929 . S
C862 C854 1.378 . S
C862 C857 1.350 . S
C863 H850 0.929 . S
C863 C855 1.433 . S
C863 N865 1.384 . S
N864 C860 1.427 . S
N864 C861 1.384 . S
N865 C857 1.427 . S
N865 C863 1.384 . S
H866 C872 0.930 . S
H867 C876 0.930 . S
H868 C881 0.929 . S
H869 C879 0.929 . S
H870 C874 0.929 . S
H871 C880 0.929 . S
C872 H866 0.930 . S
C872 C873 1.367 . S
C872 C880 1.378 . S
C873 C872 1.367 . S
C873 C881 1.433 1_565 S
C874 H870 0.929 . S
C874 C876 1.378 . S
C874 C878 1.350 . S
C875 C878 1.463 1_565 S
C875 C880 1.350 . S
C875 N883 1.427 1_565 S
C876 H867 0.930 . S
C876 C874 1.378 . S
C876 C877 1.367 . S
C877 C876 1.367 . S
C877 C879 1.433 1_545 S
C878 C874 1.350 . S
C878 C875 1.463 1_545 S
C878 N882 1.427 1_545 S
C879 H869 0.929 . S
C879 C877 1.433 1_565 S
C879 N882 1.384 . S
C880 H871 0.929 . S
C880 C872 1.378 . S
C880 C875 1.350 . S
C881 H868 0.929 . S
C881 C873 1.433 1_545 S
C881 N883 1.384 . S
N882 C878 1.427 1_565 S
N882 C879 1.384 . S
N883 C875 1.427 1_545 S
N883 C881 1.384 . S
H884 C890 0.930 . S
H885 C894 0.930 . S
H886 C899 0.929 . S
H887 C897 0.929 . S
H888 C892 0.929 . S
H889 C898 0.929 . S
C890 H884 0.930 . S
C890 C891 1.367 . S
C890 C898 1.378 . S
C891 C890 1.367 . S
C891 C899 1.433 . S
C892 H888 0.929 . S
C892 C894 1.378 . S
C892 C896 1.350 . S
C893 C896 1.463 1_554 S
C893 C898 1.350 . S
C893 N901 1.427 . S
C894 H885 0.930 . S
C894 C892 1.378 . S
C894 C895 1.367 . S
C895 C894 1.367 . S
C895 C897 1.433 . S
C896 C892 1.350 . S
C896 C893 1.463 1_556 S
C896 N900 1.427 . S
C897 H887 0.929 . S
C897 C895 1.433 . S
C897 N900 1.384 . S
C898 H889 0.929 . S
C898 C890 1.378 . S
C898 C893 1.350 . S
C899 H886 0.929 . S
C899 C891 1.433 . S
C899 N901 1.384 . S
N900 C896 1.427 . S
N900 C897 1.384 . S
N901 C893 1.427 . S
N901 C899 1.384 . S
H902 C908 0.930 . S
H903 C912 0.930 . S
H904 C917 0.929 . S
H905 C915 0.929 . S
H906 C910 0.929 . S
H907 C916 0.929 . S
C908 H902 0.930 . S
C908 C909 1.367 1_545 S
C908 C916 1.378 . S
C909 C908 1.367 1_565 S
C909 C917 1.433 . S
C910 H906 0.929 . S
C910 C912 1.378 . S
C910 C914 1.350 1_565 S
C911 C914 1.463 1_466 S
C911 C916 1.350 1_565 S
C911 N919 1.427 . S
C912 H903 0.930 . S
C912 C910 1.378 . S
C912 C913 1.367 1_565 S
C913 C912 1.367 1_545 S
C913 C915 1.433 . S
C914 C910 1.350 1_545 S
C914 C911 1.463 1_644 S
C914 N918 1.427 . S
C915 H905 0.929 . S
C915 C913 1.433 . S
C915 N918 1.384 . S
C916 H907 0.929 . S
C916 C908 1.378 . S
C916 C911 1.350 1_545 S
C917 H904 0.929 . S
C917 C909 1.433 . S
C917 N919 1.384 . S
N918 C914 1.427 . S
N918 C915 1.384 . S
N919 C911 1.427 . S
N919 C917 1.384 . S
H920 C926 0.930 . S
H921 C930 0.930 . S
H922 C935 0.929 . S
H923 C933 0.929 . S
H924 C928 0.929 . S
H925 C934 0.929 . S
C926 H920 0.930 . S
C926 C927 1.367 . S
C926 C934 1.378 . S
C927 C926 1.367 . S
C927 C935 1.433 . S
C928 H924 0.929 . S
C928 C930 1.378 . S
C928 C932 1.350 . S
C929 C932 1.463 . S
C929 C934 1.350 . S
C929 N937 1.427 . S
C930 H921 0.930 . S
C930 C928 1.378 . S
C930 C931 1.367 . S
C931 C930 1.367 . S
C931 C933 1.433 . S
C932 C928 1.350 . S
C932 C929 1.463 . S
C932 N936 1.427 . S
C933 H923 0.929 . S
C933 C931 1.433 . S
C933 N936 1.384 . S
C934 H925 0.929 . S
C934 C926 1.378 . S
C934 C929 1.350 . S
C935 H922 0.929 . S
C935 C927 1.433 . S
C935 N937 1.384 . S
N936 C932 1.427 . S
N936 C933 1.384 . S
N937 C929 1.427 . S
N937 C935 1.384 . S
H938 C944 0.930 . S
H939 C948 0.930 . S
H940 C953 0.929 . S
H941 C951 0.929 . S
H942 C946 0.929 . S
H943 C952 0.929 . S
C944 H938 0.930 . S
C944 C945 1.367 . S
C944 C952 1.378 . S
C945 C944 1.367 . S
C945 C953 1.433 . S
C946 H942 0.929 . S
C946 C948 1.378 . S
C946 C950 1.350 . S
C947 C950 1.463 . S
C947 C952 1.350 . S
C947 N955 1.427 . S
C948 H939 0.930 . S
C948 C946 1.378 . S
C948 C949 1.367 . S
C949 C948 1.367 . S
C949 C951 1.433 . S
C950 C946 1.350 . S
C950 C947 1.463 . S
C950 N954 1.427 . S
C951 H941 0.929 . S
C951 C949 1.433 . S
C951 N954 1.384 . S
C952 H943 0.929 . S
C952 C944 1.378 . S
C952 C947 1.350 . S
C953 H940 0.929 . S
C953 C945 1.433 . S
C953 N955 1.384 . S
N954 C950 1.427 . S
N954 C951 1.384 . S
N955 C947 1.427 . S
N955 C953 1.384 . S
H956 C962 0.930 . S
H957 C966 0.930 . S
H958 C971 0.929 . S
H959 C969 0.929 . S
H960 C964 0.929 . S
H961 C970 0.929 . S
C962 H956 0.930 . S
C962 C963 1.367 . S
C962 C970 1.378 . S
C963 C962 1.367 . S
C963 C971 1.433 . S
C964 H960 0.929 . S
C964 C966 1.378 . S
C964 C968 1.350 . S
C965 C968 1.463 . S
C965 C970 1.350 . S
C965 N973 1.427 . S
C966 H957 0.930 . S
C966 C964 1.378 . S
C966 C967 1.367 . S
C967 C966 1.367 . S
C967 C969 1.433 . S
C968 C964 1.350 . S
C968 C965 1.463 . S
C968 N972 1.427 . S
C969 H959 0.929 . S
C969 C967 1.433 . S
C969 N972 1.384 . S
C970 H961 0.929 . S
C970 C962 1.378 . S
C970 C965 1.350 . S
C971 H958 0.929 . S
C971 C963 1.433 . S
C971 N973 1.384 . S
N972 C968 1.427 . S
N972 C969 1.384 . S
N973 C965 1.427 . S
N973 C971 1.384 . S
H974 C980 0.930 . S
H975 C984 0.930 . S
H976 C989 0.929 . S
H977 C987 0.929 . S
H978 C982 0.929 . S
H979 C988 0.929 . S
C980 H974 0.930 . S
C980 C981 1.367 . S
C980 C988 1.378 . S
C981 C980 1.367 . S
C981 C989 1.433 . S
C982 H978 0.929 . S
C982 C984 1.378 . S
C982 C986 1.350 . S
C983 C986 1.463 . S
C983 C988 1.350 . S
C983 N991 1.427 . S
C984 H975 0.930 . S
C984 C982 1.378 . S
C984 C985 1.367 . S
C985 C984 1.367 . S
C985 C987 1.433 . S
C986 C982 1.350 . S
C986 C983 1.463 . S
C986 N990 1.427 . S
C987 H977 0.929 . S
C987 C985 1.433 . S
C987 N990 1.384 . S
C988 H979 0.929 . S
C988 C980 1.378 . S
C988 C983 1.350 . S
C989 H976 0.929 . S
C989 C981 1.433 . S
C989 N991 1.384 . S
N990 C986 1.427 . S
N990 C987 1.384 . S
N991 C983 1.427 . S
N991 C989 1.384 . S
C711 C57 0.951 . S
C715 C233 0.960 . S
C729 C321 0.955 . S
C733 C108 0.947 . S
C747 C196 0.949 . S
C751 C20 0.951 . S
C765 C284 0.954 . S
C769 C145 0.962 . S
C783 C585 0.945 . S
C787 C372 0.949 . S
C801 C469 0.951 . S
C805 C673 0.948 . S
C819 C577 0.954 . S
C823 C381 0.955 . S
C837 C665 0.941 . S
C841 C460 0.949 . S
C855 C29 1.698 . S
C859 C401 1.702 . S
C873 C137 1.694 . S
C877 C497 1.698 . S
C891 C225 1.702 . S
C895 C548 1.706 . S
C909 C636 1.699 . S
C913 C313 1.695 . S
C927 C49 1.690 . S
C931 C117 1.689 . S
C945 C293 1.697 . S
C949 C205 1.696 . S
C963 C489 1.707 . S
C967 C409 1.706 . S
C981 C557 1.701 . S
C985 C645 1.700 . S
