# Generated by pormake.
# Topology rob, (6)-cn, num edge types: 1
# Building blocks:
#     Node 0, Type 0, BuildingBlock: NUHQIS_clean_sbu_0, # of connection points: 6
#     Node 1, Type 0, BuildingBlock: NUHQIS_clean_sbu_0, # of connection points: 6
#     Node 2, Type 0, BuildingBlock: NUHQIS_clean_sbu_0, # of connection points: 6
#     Node 3, Type 0, BuildingBlock: NUHQIS_clean_sbu_0, # of connection points: 6
#     Edge 4, Type (0, 0), BuildingBlock: XUDNAN_clean_linker_2, # of connection points: 2
#     Edge 5, Type (0, 0), BuildingBlock: XUDNAN_clean_linker_2, # of connection points: 2
#     Edge 6, Type (0, 0), BuildingBlock: XUDNAN_clean_linker_2, # of connection points: 2
#     Edge 7, Type (0, 0), BuildingBlock: XUDNAN_clean_linker_2, # of connection points: 2
#     Edge 8, Type (0, 0), BuildingBlock: XUDNAN_clean_linker_2, # of connection points: 2
#     Edge 9, Type (0, 0), BuildingBlock: XUDNAN_clean_linker_2, # of connection points: 2
#     Edge 10, Type (0, 0), BuildingBlock: XUDNAN_clean_linker_2, # of connection points: 2
#     Edge 11, Type (0, 0), BuildingBlock: XUDNAN_clean_linker_2, # of connection points: 2
#     Edge 12, Type (0, 0), BuildingBlock: XUDNAN_clean_linker_2, # of connection points: 2
#     Edge 13, Type (0, 0), BuildingBlock: XUDNAN_clean_linker_2, # of connection points: 2
#     Edge 14, Type (0, 0), BuildingBlock: XUDNAN_clean_linker_2, # of connection points: 2
#     Edge 15, Type (0, 0), BuildingBlock: XUDNAN_clean_linker_2, # of connection points: 2
# Relax obj value: 0.032
# Max RMSD: 0.132
# Mean RMSD: 0.132
data_MOF--net-rob--node1-NUHQIS_clean_sbu_0--edge1-XUDNAN_clean_linker_2
_symmetry_space_group_name_H-M    P1
_symmetry_Int_Tables_number       1
_symmetry_cell_setting            triclinic
loop_
_symmetry_equiv_pos_as_xyz
'x, y, z'
_cell_length_a     15.863603
_cell_length_b     25.632564
_cell_length_c     36.438872
_cell_angle_alpha  94.835048
_cell_angle_beta   90.07223
_cell_angle_gamma 89.842185
loop_
_atom_site_label
_atom_site_type_symbol
_atom_site_fract_x
_atom_site_fract_y
_atom_site_fract_z
_atom_type_partial_charge
Tb0 Tb 0.16021 0.27339 0.04959 0.0
Eu1 Eu 0.32208 0.23191 0.99897 0.0
C2 C 0.30461 0.34929 0.031 0.0
C3 C 0.1533 0.27584 0.96357 0.0
C4 C 0.03144 0.30817 0.13207 0.0
C5 C 0.05312 0.27434 0.19169 0.0
C6 C 0.06351 0.26958 0.15356 0.0
C7 C 0.99129 0.35235 0.14946 0.0
C8 C 0.98181 0.35745 0.18775 0.0
C9 C 0.01167 0.31811 0.20911 0.0
C10 C 0.03997 0.30267 0.09169 0.0
O11 O 0.12951 0.19666 1.02269 0.0
O12 O 0.26222 0.16315 1.02257 0.0
O13 O 0.37058 0.23948 0.05715 0.0
O14 O 0.24383 0.23732 0.0878 0.0
C15 C 0.18055 0.15629 1.02227 0.0
O16 O 0.37743 0.1703 0.96173 0.0
O17 O 0.44796 0.24129 0.97627 0.0
O18 O 0.31938 0.31968 1.00059 0.0
O19 O 0.25912 0.33191 0.05743 0.0
O20 O 0.13305 0.30004 0.99561 0.0
O21 O 0.21348 0.2405 0.96033 0.0
C22 C 0.32678 0.23492 0.08733 0.0
O23 O 0.0915 0.33501 0.07759 0.0
O24 O 0.04915 0.25508 0.07666 0.0
C25 C 0.46104 0.20174 0.91574 0.0
C26 C 0.48548 0.20287 0.83929 0.0
C27 C 0.53438 0.16991 0.85988 0.0
C28 C 0.52211 0.16934 0.89783 0.0
C29 C 0.41288 0.23525 0.89547 0.0
C30 C 0.42531 0.23598 0.85757 0.0
C31 C 0.44368 0.19783 0.95492 0.0
H32 H 0.07749 0.24377 0.20761 0.0
H33 H 0.09593 0.23543 0.14091 0.0
H34 H 0.96666 0.38266 0.13338 0.0
H35 H 0.9492 0.39142 0.20057 0.0
H36 H 0.58068 0.14363 0.84653 0.0
H37 H 0.55915 0.14287 0.91307 0.0
H38 H 0.365 0.26033 0.9089 0.0
H39 H 0.38798 0.26254 0.84258 0.0
Tb40 Tb 0.69401 0.78533 0.05299 0.0
Eu41 Eu 0.81546 0.70824 0.99775 0.0
C42 C 0.85971 0.82835 1.02149 0.0
C43 C 0.67465 0.78086 0.96617 0.0
C44 C 0.58565 0.82442 0.13898 0.0
C45 C 0.51107 0.84228 0.19712 0.0
C46 C 0.52925 0.85514 0.16123 0.0
C47 C 0.62432 0.78116 0.15318 0.0
C48 C 0.60644 0.76838 0.18882 0.0
C49 C 0.54898 0.79836 0.21132 0.0
C50 C 0.60417 0.83626 0.10086 0.0
O51 O 0.65939 0.7051 0.06061 0.0
O52 O 0.6907 0.66806 1.00319 0.0
O53 O 0.83975 0.68222 0.05441 0.0
O54 O 0.7986 0.75952 0.0861 0.0
C55 C 0.64834 0.66808 0.03402 0.0
O56 O 0.82569 0.64434 0.9544 0.0
O57 O 0.93759 0.68656 0.97299 0.0
O58 O 0.88866 0.78019 1.01723 0.0
O59 O 0.77931 0.83817 0.02764 0.0
O60 O 0.63527 0.78445 0.99819 0.0
O61 O 0.75306 0.76507 0.9632 0.0
C62 C 0.83645 0.71361 0.08491 0.0
O63 O 0.68266 0.84725 0.09438 0.0
O64 O 0.5738 0.80309 0.07512 0.0
C65 C 0.92457 0.66195 0.90846 0.0
C66 C 0.95353 0.67976 0.83376 0.0
C67 C 0.89834 0.64009 0.84304 0.0
C68 C 0.88436 0.63116 0.87989 0.0
C69 C 0.98063 0.70125 0.89921 0.0
C70 C 0.99504 0.70995 0.8623 0.0
C71 C 0.90437 0.65418 0.94745 0.0
H72 H 0.46573 0.86594 0.21332 0.0
H73 H 0.49858 0.88865 0.15073 0.0
H74 H 0.66813 0.7569 0.13653 0.0
H75 H 0.63801 0.73478 0.19868 0.0
H76 H 0.86628 0.61558 0.82176 0.0
H77 H 0.84115 0.60045 0.88607 0.0
H78 H 0.01258 0.72587 0.92046 0.0
H79 H 0.03744 0.74108 0.85613 0.0
Tb80 Tb 0.1818 0.71385 0.49859 0.0
Eu81 Eu 0.33203 0.77497 0.54878 0.0
C82 C 0.31973 0.64952 0.53535 0.0
C83 C 0.16397 0.73248 0.58515 0.0
C84 C 0.05752 0.67078 0.41481 0.0
C85 C 0.10449 0.65436 0.35118 0.0
C86 C 0.12093 0.65583 0.38901 0.0
C87 C 0.97794 0.68497 0.40193 0.0
C88 C 0.96175 0.68401 0.36408 0.0
C89 C 0.02467 0.66832 0.33825 0.0
C90 C 0.0731 0.67148 0.45499 0.0
O91 O 0.18464 0.79451 0.4852 0.0
O92 O 0.22641 0.83222 0.54095 0.0
O93 O 0.36576 0.78534 0.4893 0.0
O94 O 0.29568 0.71175 0.46531 0.0
C95 C 0.18471 0.83443 0.51006 0.0
O96 O 0.37098 0.84207 0.58587 0.0
O97 O 0.45848 0.77851 0.57297 0.0
O98 O 0.37034 0.69019 0.5373 0.0
O99 O 0.23847 0.65448 0.5297 0.0
O100 O 0.12519 0.73139 0.55305 0.0
O101 O 0.24596 0.7383 0.58807 0.0
C102 C 0.35108 0.74918 0.46217 0.0
O103 O 0.14118 0.64804 0.46521 0.0
O104 O 0.06113 0.71601 0.47438 0.0
C105 C 0.45891 0.81895 0.63464 0.0
C106 C 0.48392 0.81647 0.71163 0.0
C107 C 0.45271 0.86176 0.69696 0.0
C108 C 0.44076 0.86303 0.65896 0.0
C109 C 0.49077 0.7737 0.64922 0.0
C110 C 0.50334 0.77257 0.68725 0.0
C111 C 0.44191 0.82049 0.59458 0.0
H112 H 0.1546 0.64277 0.332 0.0
H113 H 0.1833 0.64516 0.39797 0.0
H114 H 0.92804 0.69662 0.42121 0.0
H115 H 0.89943 0.69461 0.355 0.0
H116 H 0.43825 0.89652 0.71485 0.0
H117 H 0.41658 0.89854 0.64858 0.0
H118 H 0.50525 0.73891 0.63137 0.0
H119 H 0.52683 0.73692 0.69763 0.0
Tb120 Tb 0.68599 0.21499 0.49757 0.0
Eu121 Eu 0.83293 0.27558 0.54997 0.0
C122 C 0.84461 0.15576 0.51999 0.0
C123 C 0.67566 0.21822 0.5845 0.0
C124 C 0.5604 0.17639 0.41373 0.0
C125 C 0.59055 0.1536 0.34883 0.0
C126 C 0.60648 0.14758 0.38594 0.0
C127 C 0.4963 0.21028 0.40343 0.0
C128 C 0.48034 0.2163 0.36621 0.0
C129 C 0.52791 0.18843 0.33847 0.0
C130 C 0.58008 0.1716 0.45315 0.0
O131 O 0.66673 0.29838 0.49636 0.0
O132 O 0.71457 0.32484 0.55407 0.0
O133 O 0.85279 0.30239 0.49363 0.0
O134 O 0.78745 0.2334 0.4606 0.0
C135 C 0.665 0.33118 0.52593 0.0
O136 O 0.88631 0.34555 0.57952 0.0
O137 O 0.95002 0.27097 0.58093 0.0
O138 O 0.8866 0.19991 0.52344 0.0
O139 O 0.76205 0.15538 0.52033 0.0
O140 O 0.63408 0.21824 0.55318 0.0
O141 O 0.7564 0.22902 0.58711 0.0
C142 C 0.8371 0.27459 0.46247 0.0
O143 O 0.65325 0.1515 0.46027 0.0
O144 O 0.56248 0.21179 0.47627 0.0
C145 C 0.95512 0.32748 0.63483 0.0
C146 C 0.97403 0.33132 0.71193 0.0
C147 C 0.89369 0.33589 0.69616 0.0
C148 C 0.88418 0.33343 0.65787 0.0
C149 C 0.03546 0.32469 0.65052 0.0
C150 C 0.04489 0.32651 0.68871 0.0
C151 C 0.94611 0.31953 0.59458 0.0
H152 H 0.62728 0.13071 0.32822 0.0
H153 H 0.65554 0.12056 0.39278 0.0
H154 H 0.45918 0.23272 0.42414 0.0
H155 H 0.43199 0.2437 0.35923 0.0
H156 H 0.83799 0.33952 0.71334 0.0
H157 H 0.82137 0.33492 0.64627 0.0
H158 H 0.09082 0.31981 0.63316 0.0
H159 H 0.10771 0.32367 0.70008 0.0
H160 H 0.61573 0.58057 0.98715 0.0
H161 H 0.54623 0.65814 0.09347 0.0
H162 H 0.4475 0.58651 0.10314 0.0
H163 H 0.40802 0.53108 0.96217 0.0
H164 H 0.44724 0.46999 0.94051 0.0
H165 H 0.51117 0.52807 0.94138 0.0
H166 H 0.63222 0.48001 0.97259 0.0
H167 H 0.56875 0.42179 0.97175 0.0
H168 H 0.61175 0.45007 1.01471 0.0
H169 H 0.35834 0.50599 0.10196 0.0
H170 H 0.28663 0.42097 0.09051 0.0
H171 H 0.41411 0.39543 0.98504 0.0
C172 C 0.57955 0.58266 1.01241 0.0
C173 C 0.58877 0.62508 0.03952 0.0
C174 C 0.54041 0.6261 0.07227 0.0
C175 C 0.48396 0.58563 0.07802 0.0
C176 C 0.4765 0.54441 0.05078 0.0
C177 C 0.52297 0.54254 1.01865 0.0
C178 C 0.50429 0.49318 0.99415 0.0
C179 C 0.46535 0.50639 0.95738 0.0
C180 C 0.584 0.45926 0.98796 0.0
C181 C 0.44052 0.46746 1.01768 0.0
C182 C 0.42515 0.49779 0.05015 0.0
C183 C 0.36965 0.48193 0.07659 0.0
C184 C 0.32922 0.43352 0.0698 0.0
C185 C 0.34461 0.40144 0.03686 0.0
C186 C 0.40063 0.41904 1.01042 0.0
H187 H 0.47729 0.62121 0.55921 0.0
H188 H 0.24293 0.55733 0.51311 0.0
H189 H 0.3047 0.46895 0.50887 0.0
H190 H 0.61528 0.54044 0.50445 0.0
H191 H 0.69094 0.53143 0.54034 0.0
H192 H 0.6273 0.58986 0.54232 0.0
H193 H 0.57358 0.57135 0.60704 0.0
H194 H 0.63758 0.51298 0.60539 0.0
H195 H 0.52583 0.50907 0.61358 0.0
H196 H 0.39479 0.38998 0.50272 0.0
H197 H 0.50517 0.32195 0.50098 0.0
H198 H 0.6797 0.43356 0.55512 0.0
C199 C 0.43867 0.5885 0.54872 0.0
C200 C 0.35523 0.59626 0.53648 0.0
C201 C 0.30675 0.55245 0.52288 0.0
C202 C 0.34132 0.50203 0.52026 0.0
C203 C 0.42402 0.49582 0.53191 0.0
C204 C 0.47183 0.53755 0.54645 0.0
C205 C 0.55972 0.51975 0.55637 0.0
C206 C 0.62727 0.54699 0.53456 0.0
C207 C 0.57505 0.52882 0.59808 0.0
C208 C 0.55432 0.4618 0.54411 0.0
C209 C 0.4754 0.44911 0.52994 0.0
C210 C 0.45633 0.39911 0.51436 0.0
C211 C 0.5195 0.36087 0.51329 0.0
C212 C 0.60033 0.3726 0.52818 0.0
C213 C 0.6178 0.42355 0.54415 0.0
H214 H 0.01504 0.12617 0.02867 0.0
H215 H 0.2689 0.06467 1.01208 0.0
H216 H 0.21341 0.97481 1.00929 0.0
H217 H 0.94482 0.02863 0.087 0.0
H218 H 0.8396 0.02509 0.06824 0.0
H219 H 0.89866 0.085 0.06824 0.0
H220 H 0.8778 0.08463 0.99768 0.0
H221 H 0.81871 0.02469 0.99745 0.0
H222 H 0.90973 0.02803 0.96819 0.0
H223 H 0.13205 0.89214 1.0083 0.0
H224 H 0.02961 0.82071 1.01043 0.0
H225 H 0.82731 0.9347 0.02846 0.0
C226 C 0.05891 0.09381 0.02432 0.0
C227 C 0.14636 0.10252 1.02052 0.0
C228 C 0.2017 0.05907 1.01511 0.0
C229 C 0.17081 0.00782 1.01342 0.0
C230 C 0.08446 0.00061 1.01729 0.0
C231 C 0.02917 0.04226 1.02272 0.0
C232 C 0.93934 0.02337 0.02664 0.0
C233 C 0.90352 0.04161 0.0648 0.0
C234 C 0.88309 0.04124 0.99563 0.0
C235 C 0.953 0.96461 1.02255 0.0
C236 C 0.03722 0.9525 1.01708 0.0
C237 C 0.06589 0.90105 1.01259 0.0
C238 C 0.00698 0.86072 1.01385 0.0
C239 C 0.92019 0.87196 1.01967 0.0
C240 C 0.89309 0.92474 0.02398 0.0
H241 H 0.99231 0.12338 0.55085 0.0
H242 H 0.79656 0.07517 0.47204 0.0
H243 H 0.86848 0.99034 0.45823 0.0
H244 H 0.16945 0.05752 0.50244 0.0
H245 H 0.21764 0.03741 0.54382 0.0
H246 H 0.15506 0.09635 0.54559 0.0
H247 H 0.06074 0.06125 0.59598 0.0
H248 H 0.12314 0.00232 0.59443 0.0
H249 H 0.0108 -0.00169 0.58731 0.0
H250 H 0.95977 0.91165 0.4527 0.0
H251 H 0.05741 0.83868 0.46033 0.0
H252 H 0.19 0.93354 0.54631 0.0
C253 C 0.96543 0.09501 0.53045 0.0
C254 C 0.88942 0.10567 0.51224 0.0
C255 C 0.85475 0.06751 0.48626 0.0
C256 C 0.89535 0.01943 0.47808 0.0
C257 C 0.96989 0.00981 0.49658 0.0
C258 C 0.0042 0.04606 0.52259 0.0
C259 C 0.08156 0.02389 0.54037 0.0
C260 C 0.16061 0.05569 0.53258 0.0
C261 C 0.06822 0.02129 0.58199 0.0
C262 C 0.08494 0.96956 0.52032 0.0
C263 C 0.02067 0.96283 0.49475 0.0
C264 C 0.01035 0.91633 0.47266 0.0
C265 C 0.06644 0.87514 0.47714 0.0
C266 C 0.13136 0.88034 0.50395 0.0
C267 C 0.14093 0.92839 0.52564 0.0
H268 H 0.3765 0.20003 0.30252 0.0
H269 H 0.64711 0.19454 0.28473 0.0
H270 H 0.62482 0.20527 0.21889 0.0
H271 H 0.31696 0.12946 0.21762 0.0
H272 H 0.22517 0.16912 0.21071 0.0
H273 H 0.26208 0.16125 0.25667 0.0
H274 H 0.27127 0.2619 0.26956 0.0
H275 H 0.23509 0.27024 0.22355 0.0
H276 H 0.33325 0.29911 0.2396 0.0
H277 H 0.57382 0.21561 0.15497 0.0
H278 H 0.4974 0.2264 0.09716 0.0
H279 H 0.25963 0.22672 0.1563 0.0
C280 C 0.43114 0.20159 0.28487 0.0
C281 C 0.51367 0.19611 0.29888 0.0
C282 C 0.5833 0.19778 0.27465 0.0
C283 C 0.57131 0.20417 0.2372 0.0
C284 C 0.48928 0.20902 0.22429 0.0
C285 C 0.42031 0.20802 0.24734 0.0
C286 C 0.33877 0.21407 0.22631 0.0
C287 C 0.28245 0.16557 0.22792 0.0
C288 C 0.29185 0.26432 0.24061 0.0
C289 C 0.37285 0.21822 0.18782 0.0
C290 C 0.4598 0.21529 0.18732 0.0
C291 C 0.5057 0.21802 0.15499 0.0
C292 C 0.4616 0.22408 0.12225 0.0
C293 C 0.37238 0.22732 0.12203 0.0
C294 C 0.32775 0.22425 0.15539 0.0
H295 H 0.51284 0.86114 0.27564 0.0
H296 H 0.53219 0.69849 0.23179 0.0
H297 H 0.49828 0.67021 0.29267 0.0
H298 H 0.59675 0.84415 0.36723 0.0
H299 H 0.52333 0.88932 0.39057 0.0
H300 H 0.55518 0.89807 0.34402 0.0
H301 H 0.39893 0.8967 0.32329 0.0
H302 H 0.36663 0.88841 0.36979 0.0
H303 H 0.33336 0.84206 0.33268 0.0
H304 H 0.45549 0.65819 0.35636 0.0
H305 H 0.39889 0.66313 0.41937 0.0
H306 H 0.40287 0.83284 0.42412 0.0
C307 C 0.50994 0.81957 0.27878 0.0
C308 C 0.52694 0.78218 0.24867 0.0
C309 C 0.52218 0.72816 0.25431 0.0
C310 C 0.50239 0.71155 0.28888 0.0
C311 C 0.48679 0.74923 0.31784 0.0
C312 C 0.48966 0.80212 0.31328 0.0
C313 C 0.46569 0.83411 0.34886 0.0
C314 C 0.53966 0.86844 0.36353 0.0
C315 C 0.38644 0.86727 0.34332 0.0
C316 C 0.44788 0.79078 0.37384 0.0
C317 C 0.46123 0.74221 0.35521 0.0
C318 C 0.44548 0.69595 0.37136 0.0
C319 C 0.41332 0.69919 0.40721 0.0
C320 C 0.39728 0.74831 0.4268 0.0
C321 C 0.41638 0.79479 0.41011 0.0
H322 H 0.72847 0.75732 0.89544 0.0
H323 H 0.52004 0.82886 0.95852 0.0
H324 H 0.44756 0.84534 0.90024 0.0
H325 H 0.7299 0.84275 0.82297 0.0
H326 H 0.75382 0.79132 0.78764 0.0
H327 H 0.78861 0.78585 0.83419 0.0
H328 H 0.71335 0.69684 0.83442 0.0
H329 H 0.67664 0.70188 0.78804 0.0
H330 H 0.60224 0.69235 0.82418 0.0
H331 H 0.39895 0.85436 0.83427 0.0
H332 H 0.37741 0.85432 0.76704 0.0
H333 H 0.61793 0.77571 0.74805 0.0
C334 C 0.66782 0.77687 0.89723 0.0
C335 C 0.63028 0.79228 0.93175 0.0
C336 C 0.55022 0.81691 0.93252 0.0
C337 C 0.50864 0.82638 0.89953 0.0
C338 C 0.54765 0.81057 0.86604 0.0
C339 C 0.6254 0.78614 0.86476 0.0
C340 C 0.65349 0.77191 0.82542 0.0
C341 C 0.73633 0.79965 0.81708 0.0
C342 C 0.6619 0.7122 0.81757 0.0
C343 C 0.57998 0.793 0.80454 0.0
C344 C 0.51943 0.81502 0.82841 0.0
C345 C 0.44609 0.8373 0.81542 0.0
C346 C 0.43463 0.83735 0.77716 0.0
C347 C 0.49606 0.81521 0.75218 0.0
C348 C 0.56937 0.79251 0.76631 0.0
H349 H 0.7436 0.20632 0.65234 0.0
H350 H 0.50443 0.21093 0.59451 0.0
H351 H 0.42912 0.20436 0.6533 0.0
H352 H 0.67784 0.11399 0.71828 0.0
H353 H 0.73937 0.14641 0.75502 0.0
H354 H 0.77356 0.14755 0.70797 0.0
H355 H 0.77834 0.24834 0.71619 0.0
H356 H 0.74244 0.24839 0.76297 0.0
H357 H 0.6851 0.28478 0.73077 0.0
H358 H 0.38036 0.20314 0.71925 0.0
H359 H 0.36207 0.20346 0.78661 0.0
H360 H 0.63368 0.20057 0.80054 0.0
C361 C 0.67536 0.20525 0.6518 0.0
C362 C 0.62991 0.20909 0.61873 0.0
C363 C 0.54065 0.20773 0.61943 0.0
C364 C 0.49732 0.20412 0.6527 0.0
C365 C 0.54424 0.20147 0.68489 0.0
C366 C 0.63132 0.20144 0.6846 0.0
C367 C 0.66715 0.19966 0.72298 0.0
C368 C 0.71743 0.14887 0.72624 0.0
C369 C 0.72137 0.24822 0.73387 0.0
C370 C 0.58659 0.20004 0.74512 0.0
C371 C 0.51633 0.20076 0.72268 0.0
C372 C 0.43493 0.20233 0.73705 0.0
C373 C 0.42518 0.20296 0.77534 0.0
C374 C 0.49642 0.20217 0.79881 0.0
C375 C 0.57801 0.20056 0.78331 0.0
H376 H 0.83535 0.76773 0.15318 0.0
H377 H 0.92512 0.62329 0.09515 0.0
H378 H 0.98568 0.59658 0.15335 0.0
H379 H 0.01538 0.78789 0.21421 0.0
H380 H 0.95206 0.814 0.25253 0.0
H381 H 0.9186 0.82212 0.2061 0.0
H382 H 0.77658 0.77954 0.21957 0.0
H383 H 0.80899 0.76934 0.26572 0.0
H384 H 0.77424 0.71458 0.23522 0.0
H385 H 0.03506 0.58543 0.21867 0.0
H386 H 0.06645 0.59001 0.28538 0.0
H387 H 0.94267 0.74141 0.30012 0.0
C388 C 0.86812 0.73054 0.15247 0.0
C389 C 0.8756 0.69767 0.11937 0.0
C390 C 0.91869 0.64926 0.12002 0.0
C391 C 0.95332 0.63375 0.15298 0.0
C392 C 0.94435 0.66707 0.18507 0.0
C393 C 0.90283 0.71449 0.18501 0.0
C394 C 0.90078 0.74296 0.2232 0.0
C395 C 0.94963 0.7948 0.22405 0.0
C396 C 0.80969 0.75207 0.23671 0.0
C397 C 0.94613 0.70369 0.245 0.0
C398 C 0.97165 0.66042 0.22249 0.0
C399 C 0.01543 0.61919 0.23647 0.0
C400 C 0.03328 0.62223 0.27438 0.0
C401 C 0.00687 0.666 0.298 0.0
C402 C 0.96284 0.70718 0.28289 0.0
H403 H 0.84439 0.21704 0.39587 0.0
H404 H 0.91585 0.36712 0.45119 0.0
H405 H 0.97253 0.39421 0.39257 0.0
H406 H 0.02684 0.20269 0.33554 0.0
H407 H 0.96669 0.17236 0.29758 0.0
H408 H 0.93484 0.16447 0.34422 0.0
H409 H 0.78647 0.20071 0.33036 0.0
H410 H 0.81785 0.20888 0.28375 0.0
H411 H 0.77702 0.26389 0.31242 0.0
H412 H 0.01305 0.4067 0.32672 0.0
H413 H 0.04125 0.40146 0.25961 0.0
H414 H 0.94646 0.24239 0.24878 0.0
C415 C 0.87243 0.25551 0.39582 0.0
C416 C 0.87557 0.29002 0.42811 0.0
C417 C 0.91306 0.33994 0.42681 0.0
C418 C 0.94526 0.35572 0.39364 0.0
C419 C 0.94021 0.32089 0.36221 0.0
C420 C 0.90546 0.27164 0.36316 0.0
C421 C 0.90667 0.24171 0.32559 0.0
C422 C 0.96208 0.1924 0.32576 0.0
C423 C 0.81668 0.22803 0.31226 0.0
C424 C 0.94638 0.28211 0.30317 0.0
C425 C 0.96522 0.32759 0.3247 0.0
C426 C 0.99935 0.37111 0.30966 0.0
C427 C 0.01477 0.36791 0.27161 0.0
C428 C 0.9966 0.32142 0.24927 0.0
C429 C 0.96226 0.27808 0.26539 0.0
H430 H 0.07259 0.26405 0.74754 0.0
H431 H 0.8979 0.39382 0.76742 0.0
H432 H 0.91866 0.3913 0.83464 0.0
H433 H 0.00998 0.19483 0.82618 0.0
H434 H 0.11585 0.17335 0.83494 0.0
H435 H 0.08381 0.18405 0.78871 0.0
H436 H 0.2078 0.24894 0.78344 0.0
H437 H 0.2399 0.23737 0.82942 0.0
H438 H 0.21944 0.30326 0.81787 0.0
H439 H 0.96527 0.37695 0.89987 0.0
H440 H 0.03226 0.35171 0.95711 0.0
H441 H 0.17591 0.23152 0.89325 0.0
C442 C 0.03888 0.2921 0.76601 0.0
C443 C 0.98411 0.3294 0.7523 0.0
C444 C 0.93987 0.36475 0.77739 0.0
C445 C 0.95143 0.36367 0.81556 0.0
C446 C 0.00676 0.32669 0.82811 0.0
C447 C 0.04934 0.29139 0.80401 0.0
C448 C 0.10607 0.25597 0.82427 0.0
C449 C 0.07716 0.19866 0.81816 0.0
C450 C 0.19879 0.26182 0.81306 0.0
C451 C 0.09092 0.27785 0.86354 0.0
C452 C 0.03285 0.31825 0.86533 0.0
C453 C 0.01042 0.34513 0.89878 0.0
C454 C 0.04885 0.33052 0.93115 0.0
C455 C 0.10936 0.2896 0.92977 0.0
C456 C 0.1298 0.26286 0.89542 0.0
H457 H 0.22478 0.73029 0.65556 0.0
H458 H 0.99252 0.71957 0.59215 0.0
H459 H 0.91277 0.70749 0.6491 0.0
H460 H 0.17399 0.63235 0.71564 0.0
H461 H 0.22373 0.666 0.75533 0.0
H462 H 0.26167 0.6755 0.70984 0.0
H463 H 0.24119 0.77559 0.72255 0.0
H464 H 0.20297 0.76653 0.76809 0.0
H465 H 0.13939 0.80111 0.73699 0.0
H466 H 0.85886 0.6947 0.7132 0.0
H467 H 0.83542 0.68154 0.77879 0.0
H468 H 0.1035 0.69979 0.79971 0.0
C469 C 0.15706 0.72563 0.6535 0.0
C470 C 0.11499 0.72593 0.61921 0.0
C471 C 0.0263 0.71952 0.61799 0.0
C472 C 0.98042 0.7127 0.65023 0.0
C473 C 0.02407 0.71245 0.68349 0.0
C474 C 0.11046 0.71877 0.6853 0.0
C475 C 0.14279 0.71593 0.72425 0.0
C476 C 0.20415 0.66968 0.72637 0.0
C477 C 0.18398 0.76789 0.73882 0.0
C478 C 0.06105 0.70675 0.74416 0.0
C479 C 0.99326 0.70497 0.7202 0.0
C480 C 0.91154 0.69599 0.73215 0.0
C481 C 0.89889 0.68826 0.76944 0.0
C482 C 0.96754 0.68947 0.79446 0.0
C483 C 0.04953 0.69923 0.78147 0.0
loop_
_geom_bond_atom_site_label_1
_geom_bond_atom_site_label_2
_geom_bond_distance
_geom_bond_site_symmetry_2
_ccdc_geom_bond_type
Tb0 C10 2.825 . S
Tb0 O11 2.347 . S
Tb0 O14 2.366 . S
Tb0 O19 2.418 . S
Tb0 O20 2.384 1_554 S
Tb0 O23 2.479 . S
Tb0 O24 2.471 . S
Eu1 O12 2.418 . S
Eu1 O13 2.384 1_556 S
Eu1 O16 2.479 . S
Eu1 O17 2.471 . S
Eu1 O18 2.347 . S
Eu1 O21 2.366 . S
Eu1 C31 2.825 . S
C2 O18 1.259 1_554 S
C2 O19 1.265 . S
C3 O20 1.255 . S
C3 O21 1.265 . S
C4 C6 1.380 . S
C4 C7 1.374 . S
C4 C10 1.507 . S
C5 C6 1.384 . S
C5 C9 1.387 . S
C5 H32 0.930 . S
C6 C4 1.380 . S
C6 C5 1.384 . S
C6 H33 0.931 . S
C7 C4 1.374 . S
C7 C8 1.390 . S
C7 H34 0.930 . S
C8 C7 1.390 . S
C8 C9 1.391 . S
C8 H35 0.930 . S
C9 C5 1.387 . S
C9 C8 1.391 . S
C10 Tb0 2.825 . S
C10 C4 1.507 . S
C10 O23 1.238 . S
C10 O24 1.247 . S
O11 Tb0 2.347 . S
O11 C15 1.259 1_554 S
O12 Eu1 2.418 . S
O12 C15 1.265 . S
O13 Eu1 2.384 1_554 S
O13 C22 1.255 . S
O14 Tb0 2.366 . S
O14 C22 1.265 . S
C15 O11 1.259 1_556 S
C15 O12 1.265 . S
O16 Eu1 2.479 . S
O16 C31 1.238 . S
O17 Eu1 2.471 . S
O17 C31 1.247 . S
O18 Eu1 2.347 . S
O18 C2 1.259 1_556 S
O19 Tb0 2.418 . S
O19 C2 1.265 . S
O20 Tb0 2.384 1_556 S
O20 C3 1.255 . S
O21 Eu1 2.366 . S
O21 C3 1.265 . S
C22 O13 1.255 . S
C22 O14 1.265 . S
O23 Tb0 2.479 . S
O23 C10 1.238 . S
O24 Tb0 2.471 . S
O24 C10 1.247 . S
C25 C28 1.380 . S
C25 C29 1.374 . S
C25 C31 1.507 . S
C26 C27 1.387 . S
C26 C30 1.391 . S
C27 C26 1.387 . S
C27 C28 1.384 . S
C27 H36 0.930 . S
C28 C25 1.380 . S
C28 C27 1.384 . S
C28 H37 0.931 . S
C29 C25 1.374 . S
C29 C30 1.390 . S
C29 H38 0.930 . S
C30 C26 1.391 . S
C30 C29 1.390 . S
C30 H39 0.930 . S
C31 Eu1 2.825 . S
C31 O16 1.238 . S
C31 O17 1.247 . S
C31 C25 1.507 . S
H32 C5 0.930 . S
H33 C6 0.931 . S
H34 C7 0.930 . S
H35 C8 0.930 . S
H36 C27 0.930 . S
H37 C28 0.931 . S
H38 C29 0.930 . S
H39 C30 0.930 . S
Tb40 C50 2.825 . S
Tb40 O51 2.347 . S
Tb40 O54 2.366 . S
Tb40 O59 2.418 . S
Tb40 O60 2.384 1_554 S
Tb40 O63 2.479 . S
Tb40 O64 2.471 . S
Eu41 O52 2.418 . S
Eu41 O53 2.384 1_556 S
Eu41 O56 2.479 . S
Eu41 O57 2.471 . S
Eu41 O58 2.347 . S
Eu41 O61 2.366 . S
Eu41 C71 2.825 . S
C42 O58 1.259 1_554 S
C42 O59 1.265 . S
C43 O60 1.255 . S
C43 O61 1.265 . S
C44 C46 1.380 . S
C44 C47 1.374 . S
C44 C50 1.507 . S
C45 C46 1.384 . S
C45 C49 1.387 . S
C45 H72 0.930 . S
C46 C44 1.380 . S
C46 C45 1.384 . S
C46 H73 0.931 . S
C47 C44 1.374 . S
C47 C48 1.390 . S
C47 H74 0.930 . S
C48 C47 1.390 . S
C48 C49 1.391 . S
C48 H75 0.930 . S
C49 C45 1.387 . S
C49 C48 1.391 . S
C50 Tb40 2.825 . S
C50 C44 1.507 . S
C50 O63 1.238 . S
C50 O64 1.247 . S
O51 Tb40 2.347 . S
O51 C55 1.259 1_554 S
O52 Eu41 2.418 . S
O52 C55 1.265 . S
O53 Eu41 2.384 1_554 S
O53 C62 1.255 . S
O54 Tb40 2.366 . S
O54 C62 1.265 . S
C55 O51 1.259 1_556 S
C55 O52 1.265 . S
O56 Eu41 2.479 . S
O56 C71 1.238 . S
O57 Eu41 2.471 . S
O57 C71 1.247 . S
O58 Eu41 2.347 . S
O58 C42 1.259 1_556 S
O59 Tb40 2.418 . S
O59 C42 1.265 . S
O60 Tb40 2.384 1_556 S
O60 C43 1.255 . S
O61 Eu41 2.366 . S
O61 C43 1.265 . S
C62 O53 1.255 . S
C62 O54 1.265 . S
O63 Tb40 2.479 . S
O63 C50 1.238 . S
O64 Tb40 2.471 . S
O64 C50 1.247 . S
C65 C68 1.380 . S
C65 C69 1.374 . S
C65 C71 1.507 . S
C66 C67 1.387 . S
C66 C70 1.391 . S
C67 C66 1.387 . S
C67 C68 1.384 . S
C67 H76 0.930 . S
C68 C65 1.380 . S
C68 C67 1.384 . S
C68 H77 0.931 . S
C69 C65 1.374 . S
C69 C70 1.390 . S
C69 H78 0.930 . S
C70 C66 1.391 . S
C70 C69 1.390 . S
C70 H79 0.930 . S
C71 Eu41 2.825 . S
C71 O56 1.238 . S
C71 O57 1.247 . S
C71 C65 1.507 . S
H72 C45 0.930 . S
H73 C46 0.931 . S
H74 C47 0.930 . S
H75 C48 0.930 . S
H76 C67 0.930 . S
H77 C68 0.931 . S
H78 C69 0.930 . S
H79 C70 0.930 . S
Tb80 C90 2.825 . S
Tb80 O91 2.347 . S
Tb80 O94 2.366 . S
Tb80 O99 2.418 . S
Tb80 O100 2.384 . S
Tb80 O103 2.479 . S
Tb80 O104 2.471 . S
Eu81 O92 2.418 . S
Eu81 O93 2.384 . S
Eu81 O96 2.479 . S
Eu81 O97 2.471 . S
Eu81 O98 2.347 . S
Eu81 O101 2.366 . S
Eu81 C111 2.825 . S
C82 O98 1.259 . S
C82 O99 1.265 . S
C83 O100 1.255 . S
C83 O101 1.265 . S
C84 C86 1.380 . S
C84 C87 1.374 . S
C84 C90 1.507 . S
C85 C86 1.384 . S
C85 C89 1.387 . S
C85 H112 0.930 . S
C86 C84 1.380 . S
C86 C85 1.384 . S
C86 H113 0.931 . S
C87 C84 1.374 . S
C87 C88 1.390 . S
C87 H114 0.930 . S
C88 C87 1.390 . S
C88 C89 1.391 . S
C88 H115 0.930 . S
C89 C85 1.387 . S
C89 C88 1.391 . S
C90 Tb80 2.825 . S
C90 C84 1.507 . S
C90 O103 1.238 . S
C90 O104 1.247 . S
O91 Tb80 2.347 . S
O91 C95 1.259 . S
O92 Eu81 2.418 . S
O92 C95 1.265 . S
O93 Eu81 2.384 . S
O93 C102 1.255 . S
O94 Tb80 2.366 . S
O94 C102 1.265 . S
C95 O91 1.259 . S
C95 O92 1.265 . S
O96 Eu81 2.479 . S
O96 C111 1.238 . S
O97 Eu81 2.471 . S
O97 C111 1.247 . S
O98 Eu81 2.347 . S
O98 C82 1.259 . S
O99 Tb80 2.418 . S
O99 C82 1.265 . S
O100 Tb80 2.384 . S
O100 C83 1.255 . S
O101 Eu81 2.366 . S
O101 C83 1.265 . S
C102 O93 1.255 . S
C102 O94 1.265 . S
O103 Tb80 2.479 . S
O103 C90 1.238 . S
O104 Tb80 2.471 . S
O104 C90 1.247 . S
C105 C108 1.380 . S
C105 C109 1.374 . S
C105 C111 1.507 . S
C106 C107 1.387 . S
C106 C110 1.391 . S
C107 C106 1.387 . S
C107 C108 1.384 . S
C107 H116 0.930 . S
C108 C105 1.380 . S
C108 C107 1.384 . S
C108 H117 0.931 . S
C109 C105 1.374 . S
C109 C110 1.390 . S
C109 H118 0.930 . S
C110 C106 1.391 . S
C110 C109 1.390 . S
C110 H119 0.930 . S
C111 Eu81 2.825 . S
C111 O96 1.238 . S
C111 O97 1.247 . S
C111 C105 1.507 . S
H112 C85 0.930 . S
H113 C86 0.931 . S
H114 C87 0.930 . S
H115 C88 0.930 . S
H116 C107 0.930 . S
H117 C108 0.931 . S
H118 C109 0.930 . S
H119 C110 0.930 . S
Tb120 C130 2.825 . S
Tb120 O131 2.347 . S
Tb120 O134 2.366 . S
Tb120 O139 2.418 . S
Tb120 O140 2.384 . S
Tb120 O143 2.479 . S
Tb120 O144 2.471 . S
Eu121 O132 2.418 . S
Eu121 O133 2.384 . S
Eu121 O136 2.479 . S
Eu121 O137 2.471 . S
Eu121 O138 2.347 . S
Eu121 O141 2.366 . S
Eu121 C151 2.825 . S
C122 O138 1.259 . S
C122 O139 1.265 . S
C123 O140 1.255 . S
C123 O141 1.265 . S
C124 C126 1.380 . S
C124 C127 1.374 . S
C124 C130 1.507 . S
C125 C126 1.384 . S
C125 C129 1.387 . S
C125 H152 0.930 . S
C126 C124 1.380 . S
C126 C125 1.384 . S
C126 H153 0.931 . S
C127 C124 1.374 . S
C127 C128 1.390 . S
C127 H154 0.930 . S
C128 C127 1.390 . S
C128 C129 1.391 . S
C128 H155 0.930 . S
C129 C125 1.387 . S
C129 C128 1.391 . S
C130 Tb120 2.825 . S
C130 C124 1.507 . S
C130 O143 1.238 . S
C130 O144 1.247 . S
O131 Tb120 2.347 . S
O131 C135 1.259 . S
O132 Eu121 2.418 . S
O132 C135 1.265 . S
O133 Eu121 2.384 . S
O133 C142 1.255 . S
O134 Tb120 2.366 . S
O134 C142 1.265 . S
C135 O131 1.259 . S
C135 O132 1.265 . S
O136 Eu121 2.479 . S
O136 C151 1.238 . S
O137 Eu121 2.471 . S
O137 C151 1.247 . S
O138 Eu121 2.347 . S
O138 C122 1.259 . S
O139 Tb120 2.418 . S
O139 C122 1.265 . S
O140 Tb120 2.384 . S
O140 C123 1.255 . S
O141 Eu121 2.366 . S
O141 C123 1.265 . S
C142 O133 1.255 . S
C142 O134 1.265 . S
O143 Tb120 2.479 . S
O143 C130 1.238 . S
O144 Tb120 2.471 . S
O144 C130 1.247 . S
C145 C148 1.380 . S
C145 C149 1.374 . S
C145 C151 1.507 . S
C146 C147 1.387 . S
C146 C150 1.391 . S
C147 C146 1.387 . S
C147 C148 1.384 . S
C147 H156 0.930 . S
C148 C145 1.380 . S
C148 C147 1.384 . S
C148 H157 0.931 . S
C149 C145 1.374 . S
C149 C150 1.390 . S
C149 H158 0.930 . S
C150 C146 1.391 . S
C150 C149 1.390 . S
C150 H159 0.930 . S
C151 Eu121 2.825 . S
C151 O136 1.238 . S
C151 O137 1.247 . S
C151 C145 1.507 . S
H152 C125 0.930 . S
H153 C126 0.931 . S
H154 C127 0.930 . S
H155 C128 0.930 . S
H156 C147 0.930 . S
H157 C148 0.931 . S
H158 C149 0.930 . S
H159 C150 0.930 . S
H160 C172 0.930 . S
H161 C174 0.930 . S
H162 C175 0.930 . S
H163 C179 0.959 . S
H164 C179 0.959 . S
H165 C179 0.961 . S
H166 C180 0.960 . S
H167 C180 0.961 . S
H168 C180 0.959 . S
H169 C183 0.929 . S
H170 C184 0.931 . S
H171 C186 0.930 . S
C172 H160 0.930 . S
C172 C173 1.399 1_556 S
C172 C177 1.399 . S
C173 C172 1.399 1_554 S
C173 C174 1.376 . S
C174 H161 0.930 . S
C174 C173 1.376 . S
C174 C175 1.388 . S
C175 H162 0.930 . S
C175 C174 1.388 . S
C175 C176 1.390 . S
C176 C175 1.390 . S
C176 C177 1.394 1_554 S
C176 C182 1.465 . S
C177 C172 1.399 . S
C177 C176 1.394 1_556 S
C177 C178 1.516 . S
C178 C177 1.516 . S
C178 C179 1.502 . S
C178 C180 1.561 . S
C178 C181 1.526 . S
C179 H163 0.959 . S
C179 H164 0.959 . S
C179 H165 0.961 . S
C179 C178 1.502 . S
C180 H166 0.960 . S
C180 H167 0.961 . S
C180 H168 0.959 . S
C180 C178 1.561 . S
C181 C178 1.526 . S
C181 C182 1.396 1_556 S
C181 C186 1.390 . S
C182 C176 1.465 . S
C182 C181 1.396 1_554 S
C182 C183 1.399 . S
C183 H169 0.929 . S
C183 C182 1.399 . S
C183 C184 1.385 . S
C184 H170 0.931 . S
C184 C183 1.385 . S
C184 C185 1.389 . S
C185 C184 1.389 . S
C185 C186 1.387 1_554 S
C186 H171 0.930 . S
C186 C181 1.390 . S
C186 C185 1.387 1_556 S
H187 C199 0.930 . S
H188 C201 0.930 . S
H189 C202 0.930 . S
H190 C206 0.959 . S
H191 C206 0.959 . S
H192 C206 0.961 . S
H193 C207 0.960 . S
H194 C207 0.961 . S
H195 C207 0.959 . S
H196 C210 0.929 . S
H197 C211 0.931 . S
H198 C213 0.930 . S
C199 H187 0.930 . S
C199 C200 1.399 . S
C199 C204 1.399 . S
C200 C199 1.399 . S
C200 C201 1.376 . S
C201 H188 0.930 . S
C201 C200 1.376 . S
C201 C202 1.388 . S
C202 H189 0.930 . S
C202 C201 1.388 . S
C202 C203 1.390 . S
C203 C202 1.390 . S
C203 C204 1.394 . S
C203 C209 1.465 . S
C204 C199 1.399 . S
C204 C203 1.394 . S
C204 C205 1.516 . S
C205 C204 1.516 . S
C205 C206 1.502 . S
C205 C207 1.561 . S
C205 C208 1.526 . S
C206 H190 0.959 . S
C206 H191 0.959 . S
C206 H192 0.961 . S
C206 C205 1.502 . S
C207 H193 0.960 . S
C207 H194 0.961 . S
C207 H195 0.959 . S
C207 C205 1.561 . S
C208 C205 1.526 . S
C208 C209 1.396 . S
C208 C213 1.390 . S
C209 C203 1.465 . S
C209 C208 1.396 . S
C209 C210 1.399 . S
C210 H196 0.929 . S
C210 C209 1.399 . S
C210 C211 1.385 . S
C211 H197 0.931 . S
C211 C210 1.385 . S
C211 C212 1.389 . S
C212 C211 1.389 . S
C212 C213 1.387 . S
C213 H198 0.930 . S
C213 C208 1.390 . S
C213 C212 1.387 . S
H214 C226 0.930 . S
H215 C228 0.930 . S
H216 C229 0.930 . S
H217 C233 0.959 . S
H218 C233 0.959 . S
H219 C233 0.961 . S
H220 C234 0.960 . S
H221 C234 0.961 . S
H222 C234 0.959 . S
H223 C237 0.929 . S
H224 C238 0.931 . S
H225 C240 0.930 . S
C226 H214 0.930 . S
C226 C227 1.399 1_554 S
C226 C231 1.399 . S
C227 C226 1.399 1_556 S
C227 C228 1.376 . S
C228 H215 0.930 . S
C228 C227 1.376 . S
C228 C229 1.388 . S
C229 H216 0.930 . S
C229 C228 1.388 . S
C229 C230 1.390 . S
C230 C229 1.390 . S
C230 C231 1.394 1_556 S
C230 C236 1.465 1_445 S
C231 C226 1.399 . S
C231 C230 1.394 1_554 S
C231 C232 1.515 1_545 S
C232 C231 1.515 1_565 S
C232 C233 1.502 . S
C232 C234 1.561 1_465 S
C232 C235 1.526 1_455 S
C233 H217 0.959 . S
C233 H218 0.959 . S
C233 H219 0.961 . S
C233 C232 1.502 . S
C234 H220 0.960 . S
C234 H221 0.961 . S
C234 H222 0.959 . S
C234 C232 1.561 1_645 S
C235 C232 1.526 1_655 S
C235 C236 1.396 1_554 S
C235 C240 1.390 . S
C236 C230 1.465 1_665 S
C236 C235 1.396 1_556 S
C236 C237 1.399 . S
C237 H223 0.929 . S
C237 C236 1.399 . S
C237 C238 1.385 . S
C238 H224 0.931 . S
C238 C237 1.385 . S
C238 C239 1.389 . S
C239 C238 1.389 . S
C239 C240 1.387 1_556 S
C240 H225 0.930 . S
C240 C235 1.390 . S
C240 C239 1.387 1_554 S
H241 C253 0.930 . S
H242 C255 0.930 . S
H243 C256 0.930 1_565 S
H244 C260 0.959 . S
H245 C260 0.959 . S
H246 C260 0.961 . S
H247 C261 0.960 1_655 S
H248 C261 0.961 . S
H249 C261 0.959 1_665 S
H250 C264 0.929 1_655 S
H251 C265 0.931 . S
H252 C267 0.930 . S
C253 H241 0.930 . S
C253 C254 1.399 . S
C253 C258 1.399 . S
C254 C253 1.399 . S
C254 C255 1.376 . S
C255 H242 0.930 . S
C255 C254 1.376 . S
C255 C256 1.388 . S
C256 H243 0.930 1_545 S
C256 C255 1.388 . S
C256 C257 1.390 . S
C257 C256 1.390 . S
C257 C258 1.394 . S
C257 C263 1.460 1_645 S
C258 C253 1.399 . S
C258 C257 1.394 . S
C258 C259 1.516 1_655 S
C259 C258 1.516 1_455 S
C259 C260 1.502 . S
C259 C261 1.561 . S
C259 C262 1.526 1_545 S
C260 H244 0.959 . S
C260 H245 0.959 . S
C260 H246 0.961 . S
C260 C259 1.502 . S
C261 H247 0.960 1_455 S
C261 H248 0.961 . S
C261 H249 0.959 1_445 S
C261 C259 1.561 . S
C262 C259 1.526 1_565 S
C262 C263 1.402 . S
C262 C267 1.390 . S
C263 C257 1.460 1_465 S
C263 C262 1.402 . S
C263 C264 1.399 . S
C264 H250 0.929 1_455 S
C264 C263 1.399 . S
C264 C265 1.385 . S
C265 H251 0.931 . S
C265 C264 1.385 . S
C265 C266 1.389 . S
C266 C265 1.389 . S
C266 C267 1.387 . S
C267 H252 0.930 . S
C267 C262 1.390 . S
C267 C266 1.387 . S
H268 C280 0.930 . S
H269 C282 0.930 . S
H270 C283 0.930 . S
H271 C287 0.959 . S
H272 C287 0.959 . S
H273 C287 0.961 . S
H274 C288 0.960 . S
H275 C288 0.961 . S
H276 C288 0.959 . S
H277 C291 0.929 . S
H278 C292 0.931 . S
H279 C294 0.930 . S
C280 H268 0.930 . S
C280 C281 1.399 . S
C280 C285 1.399 . S
C281 C280 1.399 . S
C281 C282 1.376 . S
C282 H269 0.930 . S
C282 C281 1.376 . S
C282 C283 1.388 . S
C283 H270 0.930 . S
C283 C282 1.388 . S
C283 C284 1.390 . S
C284 C283 1.390 . S
C284 C285 1.394 . S
C284 C290 1.465 . S
C285 C280 1.399 . S
C285 C284 1.394 . S
C285 C286 1.516 . S
C286 C285 1.516 . S
C286 C287 1.502 . S
C286 C288 1.561 . S
C286 C289 1.526 . S
C287 H271 0.959 . S
C287 H272 0.959 . S
C287 H273 0.961 . S
C287 C286 1.502 . S
C288 H274 0.960 . S
C288 H275 0.961 . S
C288 H276 0.959 . S
C288 C286 1.561 . S
C289 C286 1.526 . S
C289 C290 1.396 . S
C289 C294 1.390 . S
C290 C284 1.465 . S
C290 C289 1.396 . S
C290 C291 1.399 . S
C291 H277 0.929 . S
C291 C290 1.399 . S
C291 C292 1.385 . S
C292 H278 0.931 . S
C292 C291 1.385 . S
C292 C293 1.389 . S
C293 C292 1.389 . S
C293 C294 1.387 . S
C294 H279 0.930 . S
C294 C289 1.390 . S
C294 C293 1.387 . S
H295 C307 0.930 . S
H296 C309 0.930 . S
H297 C310 0.930 . S
H298 C314 0.959 . S
H299 C314 0.959 . S
H300 C314 0.961 . S
H301 C315 0.960 . S
H302 C315 0.961 . S
H303 C315 0.959 . S
H304 C318 0.929 . S
H305 C319 0.931 . S
H306 C321 0.930 . S
C307 H295 0.930 . S
C307 C308 1.399 . S
C307 C312 1.399 . S
C308 C307 1.399 . S
C308 C309 1.376 . S
C309 H296 0.930 . S
C309 C308 1.376 . S
C309 C310 1.388 . S
C310 H297 0.930 . S
C310 C309 1.388 . S
C310 C311 1.390 . S
C311 C310 1.390 . S
C311 C312 1.394 . S
C311 C317 1.465 . S
C312 C307 1.399 . S
C312 C311 1.394 . S
C312 C313 1.516 . S
C313 C312 1.516 . S
C313 C314 1.502 . S
C313 C315 1.561 . S
C313 C316 1.526 . S
C314 H298 0.959 . S
C314 H299 0.959 . S
C314 H300 0.961 . S
C314 C313 1.502 . S
C315 H301 0.960 . S
C315 H302 0.961 . S
C315 H303 0.959 . S
C315 C313 1.561 . S
C316 C313 1.526 . S
C316 C317 1.396 . S
C316 C321 1.390 . S
C317 C311 1.465 . S
C317 C316 1.396 . S
C317 C318 1.399 . S
C318 H304 0.929 . S
C318 C317 1.399 . S
C318 C319 1.385 . S
C319 H305 0.931 . S
C319 C318 1.385 . S
C319 C320 1.389 . S
C320 C319 1.389 . S
C320 C321 1.387 . S
C321 H306 0.930 . S
C321 C316 1.390 . S
C321 C320 1.387 . S
H322 C334 0.930 . S
H323 C336 0.930 . S
H324 C337 0.930 . S
H325 C341 0.959 . S
H326 C341 0.959 . S
H327 C341 0.961 . S
H328 C342 0.960 . S
H329 C342 0.961 . S
H330 C342 0.959 . S
H331 C345 0.929 . S
H332 C346 0.931 . S
H333 C348 0.930 . S
C334 H322 0.930 . S
C334 C335 1.399 . S
C334 C339 1.399 . S
C335 C334 1.399 . S
C335 C336 1.376 . S
C336 H323 0.930 . S
C336 C335 1.376 . S
C336 C337 1.388 . S
C337 H324 0.930 . S
C337 C336 1.388 . S
C337 C338 1.390 . S
C338 C337 1.390 . S
C338 C339 1.394 . S
C338 C344 1.465 . S
C339 C334 1.399 . S
C339 C338 1.394 . S
C339 C340 1.516 . S
C340 C339 1.516 . S
C340 C341 1.502 . S
C340 C342 1.561 . S
C340 C343 1.526 . S
C341 H325 0.959 . S
C341 H326 0.959 . S
C341 H327 0.961 . S
C341 C340 1.502 . S
C342 H328 0.960 . S
C342 H329 0.961 . S
C342 H330 0.959 . S
C342 C340 1.561 . S
C343 C340 1.526 . S
C343 C344 1.396 . S
C343 C348 1.390 . S
C344 C338 1.465 . S
C344 C343 1.396 . S
C344 C345 1.399 . S
C345 H331 0.929 . S
C345 C344 1.399 . S
C345 C346 1.385 . S
C346 H332 0.931 . S
C346 C345 1.385 . S
C346 C347 1.389 . S
C347 C346 1.389 . S
C347 C348 1.387 . S
C348 H333 0.930 . S
C348 C343 1.390 . S
C348 C347 1.387 . S
H349 C361 0.930 . S
H350 C363 0.930 . S
H351 C364 0.930 . S
H352 C368 0.959 . S
H353 C368 0.959 . S
H354 C368 0.961 . S
H355 C369 0.960 . S
H356 C369 0.961 . S
H357 C369 0.959 . S
H358 C372 0.929 . S
H359 C373 0.931 . S
H360 C375 0.930 . S
C361 H349 0.930 . S
C361 C362 1.399 . S
C361 C366 1.399 . S
C362 C361 1.399 . S
C362 C363 1.376 . S
C363 H350 0.930 . S
C363 C362 1.376 . S
C363 C364 1.388 . S
C364 H351 0.930 . S
C364 C363 1.388 . S
C364 C365 1.390 . S
C365 C364 1.390 . S
C365 C366 1.394 . S
C365 C371 1.465 . S
C366 C361 1.399 . S
C366 C365 1.394 . S
C366 C367 1.516 . S
C367 C366 1.516 . S
C367 C368 1.502 . S
C367 C369 1.561 . S
C367 C370 1.526 . S
C368 H352 0.959 . S
C368 H353 0.959 . S
C368 H354 0.961 . S
C368 C367 1.502 . S
C369 H355 0.960 . S
C369 H356 0.961 . S
C369 H357 0.959 . S
C369 C367 1.561 . S
C370 C367 1.526 . S
C370 C371 1.396 . S
C370 C375 1.390 . S
C371 C365 1.465 . S
C371 C370 1.396 . S
C371 C372 1.399 . S
C372 H358 0.929 . S
C372 C371 1.399 . S
C372 C373 1.385 . S
C373 H359 0.931 . S
C373 C372 1.385 . S
C373 C374 1.389 . S
C374 C373 1.389 . S
C374 C375 1.387 . S
C375 H360 0.930 . S
C375 C370 1.390 . S
C375 C374 1.387 . S
H376 C388 0.930 . S
H377 C390 0.930 . S
H378 C391 0.930 . S
H379 C395 0.959 . S
H380 C395 0.959 . S
H381 C395 0.961 1_655 S
H382 C396 0.960 . S
H383 C396 0.961 . S
H384 C396 0.959 . S
H385 C399 0.929 . S
H386 C400 0.931 . S
H387 C402 0.930 . S
C388 H376 0.930 . S
C388 C389 1.399 . S
C388 C393 1.399 . S
C389 C388 1.399 . S
C389 C390 1.376 . S
C390 H377 0.930 . S
C390 C389 1.376 . S
C390 C391 1.388 . S
C391 H378 0.930 . S
C391 C390 1.388 . S
C391 C392 1.390 . S
C392 C391 1.390 . S
C392 C393 1.394 . S
C392 C398 1.465 . S
C393 C388 1.399 . S
C393 C392 1.394 . S
C393 C394 1.516 . S
C394 C393 1.516 . S
C394 C395 1.502 1_655 S
C394 C396 1.561 . S
C394 C397 1.526 . S
C395 H379 0.959 . S
C395 H380 0.959 . S
C395 H381 0.961 1_455 S
C395 C394 1.502 1_455 S
C396 H382 0.960 . S
C396 H383 0.961 . S
C396 H384 0.959 . S
C396 C394 1.561 . S
C397 C394 1.526 . S
C397 C398 1.396 . S
C397 C402 1.390 . S
C398 C392 1.465 . S
C398 C397 1.396 . S
C398 C399 1.399 . S
C399 H385 0.929 . S
C399 C398 1.399 . S
C399 C400 1.385 . S
C400 H386 0.931 . S
C400 C399 1.385 . S
C400 C401 1.389 . S
C401 C400 1.389 . S
C401 C402 1.387 . S
C402 H387 0.930 . S
C402 C397 1.390 . S
C402 C401 1.387 . S
H403 C415 0.930 . S
H404 C417 0.930 . S
H405 C418 0.930 . S
H406 C422 0.959 1_655 S
H407 C422 0.959 . S
H408 C422 0.961 . S
H409 C423 0.960 . S
H410 C423 0.961 . S
H411 C423 0.959 . S
H412 C426 0.929 . S
H413 C427 0.931 . S
H414 C429 0.930 . S
C415 H403 0.930 . S
C415 C416 1.399 . S
C415 C420 1.399 . S
C416 C415 1.399 . S
C416 C417 1.376 . S
C417 H404 0.930 . S
C417 C416 1.376 . S
C417 C418 1.388 . S
C418 H405 0.930 . S
C418 C417 1.388 . S
C418 C419 1.390 . S
C419 C418 1.390 . S
C419 C420 1.394 . S
C419 C425 1.465 . S
C420 C415 1.399 . S
C420 C419 1.394 . S
C420 C421 1.516 1_655 S
C421 C420 1.516 1_455 S
C421 C422 1.502 . S
C421 C423 1.561 . S
C421 C424 1.526 1_455 S
C422 H406 0.959 1_455 S
C422 H407 0.959 . S
C422 H408 0.961 . S
C422 C421 1.502 . S
C423 H409 0.960 . S
C423 H410 0.961 . S
C423 H411 0.959 . S
C423 C421 1.561 . S
C424 C421 1.526 1_655 S
C424 C425 1.396 . S
C424 C429 1.390 1_655 S
C425 C419 1.465 . S
C425 C424 1.396 . S
C425 C426 1.399 . S
C426 H412 0.929 . S
C426 C425 1.399 . S
C426 C427 1.385 . S
C427 H413 0.931 . S
C427 C426 1.385 . S
C427 C428 1.389 . S
C428 C427 1.389 . S
C428 C429 1.387 1_655 S
C429 H414 0.930 . S
C429 C424 1.390 1_455 S
C429 C428 1.387 1_455 S
H430 C442 0.930 . S
H431 C444 0.930 . S
H432 C445 0.930 . S
H433 C449 0.959 1_655 S
H434 C449 0.959 . S
H435 C449 0.961 1_655 S
H436 C450 0.960 . S
H437 C450 0.961 . S
H438 C450 0.959 . S
H439 C453 0.929 . S
H440 C454 0.931 . S
H441 C456 0.930 . S
C442 H430 0.930 . S
C442 C443 1.399 . S
C442 C447 1.399 . S
C443 C442 1.399 . S
C443 C444 1.376 . S
C444 H431 0.930 . S
C444 C443 1.376 . S
C444 C445 1.388 . S
C445 H432 0.930 . S
C445 C444 1.388 . S
C445 C446 1.390 . S
C446 C445 1.390 . S
C446 C447 1.394 . S
C446 C452 1.465 . S
C447 C442 1.399 . S
C447 C446 1.394 . S
C447 C448 1.516 . S
C448 C447 1.516 . S
C448 C449 1.502 . S
C448 C450 1.561 . S
C448 C451 1.526 . S
C449 H433 0.959 1_455 S
C449 H434 0.959 . S
C449 H435 0.961 1_455 S
C449 C448 1.502 . S
C450 H436 0.960 . S
C450 H437 0.961 . S
C450 H438 0.959 . S
C450 C448 1.561 . S
C451 C448 1.526 . S
C451 C452 1.396 . S
C451 C456 1.390 . S
C452 C446 1.465 . S
C452 C451 1.396 . S
C452 C453 1.399 . S
C453 H439 0.929 . S
C453 C452 1.399 . S
C453 C454 1.385 . S
C454 H440 0.931 . S
C454 C453 1.385 . S
C454 C455 1.389 . S
C455 C454 1.389 . S
C455 C456 1.387 . S
C456 H441 0.930 . S
C456 C451 1.390 . S
C456 C455 1.387 . S
H457 C469 0.930 . S
H458 C471 0.930 . S
H459 C472 0.930 1_655 S
H460 C476 0.959 . S
H461 C476 0.959 . S
H462 C476 0.961 . S
H463 C477 0.960 . S
H464 C477 0.961 . S
H465 C477 0.959 . S
H466 C480 0.929 . S
H467 C481 0.931 . S
H468 C483 0.930 . S
C469 H457 0.930 . S
C469 C470 1.399 . S
C469 C474 1.399 . S
C470 C469 1.399 . S
C470 C471 1.376 . S
C471 H458 0.930 . S
C471 C470 1.376 . S
C471 C472 1.388 . S
C472 H459 0.930 1_455 S
C472 C471 1.388 . S
C472 C473 1.390 . S
C473 C472 1.390 . S
C473 C474 1.394 . S
C473 C479 1.465 . S
C474 C469 1.399 . S
C474 C473 1.394 . S
C474 C475 1.516 . S
C475 C474 1.516 . S
C475 C476 1.502 . S
C475 C477 1.561 . S
C475 C478 1.526 . S
C476 H460 0.959 . S
C476 H461 0.959 . S
C476 H462 0.961 . S
C476 C475 1.502 . S
C477 H463 0.960 . S
C477 H464 0.961 . S
C477 H465 0.959 . S
C477 C475 1.561 . S
C478 C475 1.526 . S
C478 C479 1.396 . S
C478 C483 1.390 . S
C479 C473 1.465 . S
C479 C478 1.396 . S
C479 C480 1.399 1_455 S
C480 H466 0.929 . S
C480 C479 1.399 1_655 S
C480 C481 1.385 . S
C481 H467 0.931 . S
C481 C480 1.385 . S
C481 C482 1.389 1_655 S
C482 C481 1.389 1_455 S
C482 C483 1.387 . S
C483 H468 0.930 . S
C483 C478 1.390 . S
C483 C482 1.387 . S
C173 C55 1.508 1_554 S
C185 C2 1.504 . S
C200 C82 1.490 . S
C212 C135 1.528 . S
C227 C15 1.504 . S
C239 C42 1.519 1_556 S
C254 C122 1.492 . S
C266 C95 1.528 . S
C281 C129 1.299 . S
C293 C22 1.307 . S
C308 C49 1.295 . S
C320 C102 1.291 . S
C335 C43 1.305 . S
C347 C106 1.307 . S
C362 C123 1.304 . S
C374 C26 1.292 . S
C389 C62 1.293 . S
C401 C89 1.308 1_655 S
C416 C142 1.291 . S
C428 C9 1.295 1_655 S
C443 C146 1.308 1_455 S
C455 C3 1.298 . S
C470 C83 1.309 . S
C482 C66 1.301 1_455 S
