# Generated by pormake.
# Topology uks, (4)-cn, num edge types: 1
# Building blocks:
#     Node 0, Type 0, BuildingBlock: NAWXER_clean_sbu_0, # of connection points: 4
#     Node 1, Type 0, BuildingBlock: NAWXER_clean_sbu_0, # of connection points: 4
#     Node 2, Type 0, BuildingBlock: NAWXER_clean_sbu_0, # of connection points: 4
#     Node 3, Type 0, BuildingBlock: NAWXER_clean_sbu_0, # of connection points: 4
#     Node 4, Type 0, BuildingBlock: NAWXER_clean_sbu_0, # of connection points: 4
#     Node 5, Type 0, BuildingBlock: NAWXER_clean_sbu_0, # of connection points: 4
#     Node 6, Type 0, BuildingBlock: NAWXER_clean_sbu_0, # of connection points: 4
#     Node 7, Type 0, BuildingBlock: NAWXER_clean_sbu_0, # of connection points: 4
#     Node 8, Type 0, BuildingBlock: NAWXER_clean_sbu_0, # of connection points: 4
#     Node 9, Type 0, BuildingBlock: NAWXER_clean_sbu_0, # of connection points: 4
#     Node 10, Type 0, BuildingBlock: NAWXER_clean_sbu_0, # of connection points: 4
#     Node 11, Type 0, BuildingBlock: NAWXER_clean_sbu_0, # of connection points: 4
#     Node 12, Type 0, BuildingBlock: NAWXER_clean_sbu_0, # of connection points: 4
#     Node 13, Type 0, BuildingBlock: NAWXER_clean_sbu_0, # of connection points: 4
#     Node 14, Type 0, BuildingBlock: NAWXER_clean_sbu_0, # of connection points: 4
#     Node 15, Type 0, BuildingBlock: NAWXER_clean_sbu_0, # of connection points: 4
#     Node 16, Type 0, BuildingBlock: NAWXER_clean_sbu_0, # of connection points: 4
#     Node 17, Type 0, BuildingBlock: NAWXER_clean_sbu_0, # of connection points: 4
#     Node 18, Type 0, BuildingBlock: NAWXER_clean_sbu_0, # of connection points: 4
#     Node 19, Type 0, BuildingBlock: NAWXER_clean_sbu_0, # of connection points: 4
#     Node 20, Type 0, BuildingBlock: NAWXER_clean_sbu_0, # of connection points: 4
#     Node 21, Type 0, BuildingBlock: NAWXER_clean_sbu_0, # of connection points: 4
#     Node 22, Type 0, BuildingBlock: NAWXER_clean_sbu_0, # of connection points: 4
#     Node 23, Type 0, BuildingBlock: NAWXER_clean_sbu_0, # of connection points: 4
#     Edge 24, Type (0, 0), None
#     Edge 25, Type (0, 0), None
#     Edge 26, Type (0, 0), None
#     Edge 27, Type (0, 0), None
#     Edge 28, Type (0, 0), None
#     Edge 29, Type (0, 0), None
#     Edge 30, Type (0, 0), None
#     Edge 31, Type (0, 0), None
#     Edge 32, Type (0, 0), None
#     Edge 33, Type (0, 0), None
#     Edge 34, Type (0, 0), None
#     Edge 35, Type (0, 0), None
#     Edge 36, Type (0, 0), None
#     Edge 37, Type (0, 0), None
#     Edge 38, Type (0, 0), None
#     Edge 39, Type (0, 0), None
#     Edge 40, Type (0, 0), None
#     Edge 41, Type (0, 0), None
#     Edge 42, Type (0, 0), None
#     Edge 43, Type (0, 0), None
#     Edge 44, Type (0, 0), None
#     Edge 45, Type (0, 0), None
#     Edge 46, Type (0, 0), None
#     Edge 47, Type (0, 0), None
#     Edge 48, Type (0, 0), None
#     Edge 49, Type (0, 0), None
#     Edge 50, Type (0, 0), None
#     Edge 51, Type (0, 0), None
#     Edge 52, Type (0, 0), None
#     Edge 53, Type (0, 0), None
#     Edge 54, Type (0, 0), None
#     Edge 55, Type (0, 0), None
#     Edge 56, Type (0, 0), None
#     Edge 57, Type (0, 0), None
#     Edge 58, Type (0, 0), None
#     Edge 59, Type (0, 0), None
#     Edge 60, Type (0, 0), None
#     Edge 61, Type (0, 0), None
#     Edge 62, Type (0, 0), None
#     Edge 63, Type (0, 0), None
#     Edge 64, Type (0, 0), None
#     Edge 65, Type (0, 0), None
#     Edge 66, Type (0, 0), None
#     Edge 67, Type (0, 0), None
#     Edge 68, Type (0, 0), None
#     Edge 69, Type (0, 0), None
#     Edge 70, Type (0, 0), None
#     Edge 71, Type (0, 0), None
# Relax obj value: 0.065
# Max RMSD: 0.064
# Mean RMSD: 0.064
data_MOF--net-uks--node1-NAWXER_clean_sbu_0--edge1-none
_symmetry_space_group_name_H-M    P1
_symmetry_Int_Tables_number       1
_symmetry_cell_setting            triclinic
loop_
_symmetry_equiv_pos_as_xyz
'x, y, z'
_cell_length_a     23.316544
_cell_length_b     23.151131
_cell_length_c     23.147155
_cell_angle_alpha  89.212674
_cell_angle_beta   90.552001
_cell_angle_gamma 88.365418
loop_
_atom_site_label
_atom_site_type_symbol
_atom_site_fract_x
_atom_site_fract_y
_atom_site_fract_z
_atom_type_partial_charge
C0 C 0.03451 0.37335 0.65057 0.0
C1 C 0.21964 0.41485 0.73726 0.0
O2 O 0.08194 0.36776 0.62422 0.0
Zn3 Zn 0.12969 0.39695 0.68733 0.0
O4 O 0.03284 0.39492 0.7013 0.0
Zn5 Zn 0.08663 0.4241 0.76844 0.0
O6 O 0.06995 0.50836 0.77694 0.0
O7 O 0.11278 0.48651 0.69512 0.0
O8 O 0.17604 0.42428 0.76886 0.0
O9 O 0.21369 0.39785 0.6854 0.0
O10 O 0.1189 0.33147 0.74991 0.0
O11 O 0.07833 0.36359 0.82976 0.0
C12 C 0.09289 0.52452 0.72988 0.0
C13 C 0.10108 0.32229 0.80111 0.0
C14 C 0.5655 0.62689 0.22051 0.0
C15 C 0.76162 0.64219 0.30076 0.0
O16 O 0.58177 0.6052 0.26905 0.0
Zn17 Zn 0.66337 0.62693 0.26394 0.0
O18 O 0.60239 0.65004 0.18736 0.0
Zn19 Zn 0.69034 0.67091 0.18284 0.0
O20 O 0.72475 0.62176 0.12156 0.0
O21 O 0.69844 0.5731 0.19925 0.0
O22 O 0.75326 0.66043 0.24885 0.0
O23 O 0.7211 0.61814 0.32786 0.0
O24 O 0.65512 0.71744 0.26119 0.0
O25 O 0.68276 0.75627 0.17855 0.0
C26 C 0.72159 0.57407 0.14925 0.0
C27 C 0.6623 0.76196 0.22915 0.0
C28 C 0.25169 0.15944 0.70458 0.0
C29 C 0.45979 0.19465 0.66154 0.0
O30 O 0.26515 0.18956 0.6601 0.0
Zn31 Zn 0.3504 0.18411 0.67588 0.0
O32 O 0.2908 0.14036 0.73911 0.0
Zn33 Zn 0.37972 0.13581 0.75472 0.0
O34 O 0.37727 0.17651 0.82982 0.0
O35 O 0.35017 0.22958 0.75351 0.0
O36 O 0.45082 0.16563 0.70777 0.0
O37 O 0.41684 0.21481 0.63228 0.0
O38 O 0.35767 0.09585 0.66444 0.0
O39 O 0.38903 0.05471 0.74639 0.0
C40 C 0.35709 0.22387 0.80819 0.0
C41 C 0.37121 0.05103 0.69433 0.0
C42 C 1.01626 0.89426 0.1814 0.0
C43 C 0.84385 0.88445 0.29286 0.0
O44 O 1.0064 0.91842 0.22937 0.0
Zn45 Zn 0.92731 0.90128 0.23483 0.0
O46 O 0.97486 0.87538 0.15097 0.0
Zn47 Zn 0.88454 0.86525 0.16058 0.0
O48 O 0.84252 0.92393 0.10818 0.0
O49 O 0.88409 0.96503 0.18196 0.0
O50 O 0.83706 0.87066 0.23971 0.0
O51 O 0.89043 0.90609 0.30994 0.0
O52 O 0.93218 0.80953 0.22839 0.0
O53 O 0.88704 0.77919 0.15068 0.0
C54 C 0.85311 0.96959 0.136 0.0
C55 C 0.91761 0.76815 0.1959 0.0
C56 C 0.15521 0.0581 0.873 0.0
C57 C 0.10409 0.26182 0.82088 0.0
O58 O 0.1311 0.06352 0.82295 0.0
Zn59 Zn 0.09818 0.13319 0.76691 0.0
O60 O 0.16345 0.10294 0.90274 0.0
Zn61 Zn 0.1305 0.16248 0.8505 0.0
O62 O 0.04227 0.14856 0.84596 0.0
O63 O 1.01506 0.12019 0.75939 0.0
O64 O 0.12627 0.24583 0.86932 0.0
O65 O 0.094 0.22427 0.78228 0.0
O66 O 0.15131 0.13536 0.6996 0.0
O67 O 0.18926 0.16362 0.78194 0.0
C68 C 1.00255 0.13518 0.81061 0.0
C69 C 0.19352 0.1553 0.72762 0.0
C70 C 0.03368 0.64714 0.35502 0.0
C71 C 0.822 0.63741 0.31903 0.0
O72 O 0.02123 0.62638 0.3055 0.0
Zn73 Zn 0.94366 0.60865 0.25809 0.0
O74 O 0.99314 0.66288 0.38839 0.0
Zn75 Zn 0.92434 0.6451 0.34373 0.0
O76 O 0.92344 0.55543 0.3414 0.0
O77 O 0.94209 0.52346 0.25392 0.0
O78 O 0.84194 0.65654 0.36656 0.0
O79 O 0.85623 0.62083 0.27957 0.0
O80 O 0.93967 0.66467 0.19101 0.0
O81 O 0.92474 0.70558 0.2754 0.0
C82 C 0.92824 0.51376 0.3063 0.0
C83 C 0.92786 0.70962 0.22046 0.0
C84 C 0.457 0.38554 0.8591 0.0
C85 C 0.27414 0.41199 0.76785 0.0
O86 O 0.41693 0.36957 0.89215 0.0
Zn87 Zn 0.32749 0.36899 0.89074 0.0
O88 O 0.44689 0.415 0.81308 0.0
Zn89 Zn 0.36687 0.41069 0.81373 0.0
O90 O 0.34306 0.46794 0.87758 0.0
O91 O 0.30266 0.4256 0.95207 0.0
O92 O 0.32023 0.43021 0.74608 0.0
O93 O 0.27321 0.39137 0.81952 0.0
O94 O 0.32471 0.28203 0.8895 0.0
O95 O 0.3625 0.32199 0.81192 0.0
C96 C 0.31997 0.47135 0.92718 0.0
C97 C 0.34915 0.27721 0.84039 0.0
C98 C 0.61059 0.82805 0.41944 0.0
C99 C 0.79333 0.88246 0.32933 0.0
O100 O 0.60772 0.86178 0.37526 0.0
Zn101 Zn 0.65846 0.90498 0.31518 0.0
O102 O 0.65936 0.81475 0.44207 0.0
Zn103 Zn 0.70722 0.8584 0.38516 0.0
O104 O 0.69741 0.94868 0.39945 0.0
O105 O 0.64451 0.98629 0.32783 0.0
O106 O 0.79173 0.85342 0.37665 0.0
O107 O 0.7472 0.90222 0.30575 0.0
O108 O 0.6403 0.86376 0.24283 0.0
O109 O 0.68667 0.81187 0.31067 0.0
C110 C 0.67378 0.99271 0.37398 0.0
C111 C 0.66364 0.81608 0.26046 0.0
C112 C 0.75397 0.1637 0.27532 0.0
C113 C 0.63624 0.21594 0.44437 0.0
O114 O 0.77276 0.14189 0.32272 0.0
Zn115 Zn 0.74827 0.13926 0.40938 0.0
O116 O 0.70378 0.18748 0.27227 0.0
Zn117 Zn 0.68125 0.18312 0.35312 0.0
O118 O 0.74828 0.23122 0.38089 0.0
O119 O 0.81442 0.18501 0.43519 0.0
O120 O 0.61869 0.22811 0.39314 0.0
O121 O 0.68065 0.18286 0.45221 0.0
O122 O 0.73499 0.05748 0.4224 0.0
O123 O 0.66783 0.09435 0.36365 0.0
C124 C 0.79546 0.23063 0.40866 0.0
C125 C 0.69088 0.05088 0.39039 0.0
C126 C 0.9063 0.20132 0.98428 0.0
C127 C 0.87051 0.31385 0.80366 0.0
O128 O 0.91838 0.25439 0.97804 0.0
Zn129 Zn 0.88935 0.2638 0.89692 0.0
O130 O 0.88048 0.17607 0.94296 0.0
Zn131 Zn 0.8498 0.18708 0.85739 0.0
O132 O 0.89906 0.13135 0.81497 0.0
O133 O 0.94434 0.20425 0.85443 0.0
O134 O 0.85548 0.2612 0.80434 0.0
O135 O 0.89484 0.33493 0.84796 0.0
O136 O 0.79856 0.26211 0.90115 0.0
O137 O 0.76552 0.18247 0.86315 0.0
C138 C 0.94538 0.15717 0.82599 0.0
C139 C 0.75621 0.2313 0.88657 0.0
C140 C 0.82655 0.42662 0.48347 0.0
C141 C 0.74102 0.39349 0.28977 0.0
O142 O 0.77813 0.44741 0.46605 0.0
Zn143 Zn 0.78401 0.41823 0.38634 0.0
O144 O 0.86005 0.40138 0.44748 0.0
Zn145 Zn 0.86174 0.37117 0.36032 0.0
O146 O 0.92364 0.41164 0.32224 0.0
O147 O 0.8497 0.46792 0.34718 0.0
O148 O 0.79326 0.37501 0.29633 0.0
O149 O 0.71754 0.42138 0.33068 0.0
O150 O 0.78972 0.32908 0.40649 0.0
O151 O 0.87168 0.28872 0.37872 0.0
C152 C 0.89938 0.46133 0.32413 0.0
C153 C 0.82397 0.28499 0.40455 0.0
C154 C 0.62526 0.35666 0.75091 0.0
C155 C 0.63597 0.40599 0.96093 0.0
O156 O 0.6098 0.32041 0.78936 0.0
Zn157 Zn 0.60193 0.30504 0.87824 0.0
O158 O 0.64942 0.40287 0.76662 0.0
Zn159 Zn 0.64304 0.38725 0.85306 0.0
O160 O 0.69931 0.31514 0.86964 0.0
O161 O 0.65258 0.23587 0.89095 0.0
O162 O 0.65784 0.43638 0.92059 0.0
O163 O 0.6172 0.35642 0.94934 0.0
O164 O 0.5205 0.30791 0.88356 0.0
O165 O 0.55518 0.39235 0.85634 0.0
C166 C 0.69969 0.26122 0.88311 0.0
C167 C 0.51326 0.36106 0.86899 0.0
C168 C 0.71596 0.39319 0.23029 0.0
C169 C 0.64835 0.4167 1.0219 0.0
O170 O 0.75137 0.40055 0.18956 0.0
Zn171 Zn 0.75765 0.4148 0.10124 0.0
O172 O 0.66248 0.38938 0.21794 0.0
Zn173 Zn 0.66651 0.39797 0.12994 0.0
O174 O 0.70574 0.31995 0.10661 0.0
O175 O 0.79314 0.33963 0.0789 0.0
O176 O 0.61328 0.40401 0.06217 0.0
O177 O 0.70104 0.42156 0.03383 0.0
O178 O 0.7796 0.49839 0.10407 0.0
O179 O 0.69109 0.48252 0.13179 0.0
C180 C 0.75335 0.30305 0.08554 0.0
C181 C 0.73116 0.51743 0.12265 0.0
C182 C 0.62172 0.33558 0.69093 0.0
C183 C 0.61196 0.24085 0.49751 0.0
O184 O 0.60793 0.36585 0.64593 0.0
Zn185 Zn 0.60522 0.29813 0.59 0.0
O186 O 0.62744 0.28099 0.68679 0.0
Zn187 Zn 0.62929 0.21181 0.63153 0.0
O188 O 0.7145 0.19276 0.63899 0.0
O189 O 0.69354 0.27745 0.59814 0.0
O190 O 0.62166 0.20988 0.54264 0.0
O191 O 0.59977 0.2947 0.50296 0.0
O192 O 0.53134 0.25328 0.61838 0.0
O193 O 0.56119 0.17114 0.65955 0.0
C194 C 0.73105 0.23985 0.6157 0.0
C195 C 0.52001 0.20602 0.64474 0.0
C196 C 0.76753 0.24058 0.08677 0.0
C197 C 0.83319 0.02913 0.11759 0.0
O198 O 0.81233 0.22682 0.1152 0.0
Zn199 Zn 0.86408 0.1604 0.14299 0.0
O200 O 0.73557 0.20065 0.06737 0.0
Zn201 Zn 0.78318 0.12929 0.09398 0.0
O202 O 0.76617 0.1422 0.17851 0.0
O203 O 0.84337 0.17078 0.22506 0.0
O204 O 0.78633 0.04093 0.09002 0.0
O205 O 0.86247 0.07065 0.13675 0.0
O206 O 0.92399 0.1885 0.08813 0.0
O207 O 0.85029 0.14974 0.04397 0.0
C208 C 0.79004 0.15881 0.22443 0.0
C209 C 0.89783 0.17495 0.04156 0.0
C210 C 0.86872 0.34185 0.74657 0.0
C211 C 0.83715 0.41079 0.54461 0.0
O212 O 0.88386 0.30888 0.70552 0.0
Zn213 Zn 0.88888 0.30128 0.61653 0.0
O214 O 0.84389 0.39075 0.73536 0.0
Zn215 Zn 0.84716 0.38419 0.64914 0.0
O216 O 0.79226 0.31499 0.63559 0.0
O217 O 0.83542 0.23488 0.60564 0.0
O218 O 0.81949 0.44026 0.58748 0.0
O219 O 0.86179 0.36139 0.55328 0.0
O220 O 0.97341 0.30308 0.6086 0.0
O221 O 0.93615 0.38501 0.64138 0.0
C222 C 0.78973 0.26201 0.62108 0.0
C223 C 0.97984 0.35433 0.62698 0.0
C224 C 0.30567 0.72038 0.17867 0.0
C225 C 0.50504 0.64337 0.20817 0.0
O226 O 0.34744 0.75037 0.16196 0.0
Zn227 Zn 0.43553 0.75322 0.15447 0.0
O228 O 0.31525 0.67105 0.20305 0.0
Zn229 Zn 0.40101 0.67183 0.19692 0.0
O230 O 0.41729 0.74036 0.25171 0.0
O231 O 0.44878 0.81927 0.20949 0.0
O232 O 0.46197 0.61517 0.22543 0.0
O233 O 0.49712 0.69205 0.18232 0.0
O234 O 0.44115 0.74862 0.06889 0.0
O235 O 0.40652 0.66916 0.10728 0.0
C236 C 0.43328 0.79245 0.25518 0.0
C237 C 0.42079 0.69834 0.06284 0.0
C238 C 0.40681 0.84361 0.52676 0.0
C239 C 0.4395 0.81335 0.31489 0.0
O240 O 0.39403 0.87966 0.48605 0.0
Zn241 Zn 0.4227 0.83848 0.4178 0.0
O242 O 0.43247 0.79574 0.51476 0.0
Zn243 Zn 0.462 0.75143 0.44003 0.0
O244 O 0.54812 0.75128 0.44929 0.0
O245 O 0.51161 0.83769 0.42752 0.0
O246 O 0.45583 0.77426 0.35143 0.0
O247 O 0.41647 0.86041 0.3331 0.0
O248 O 0.3658 0.77069 0.41755 0.0
O249 O 0.40632 0.6851 0.43546 0.0
C250 C 0.55533 0.80487 0.43849 0.0
C251 C 0.36158 0.7161 0.42252 0.0
C252 C 0.22629 0.79626 0.94613 0.0
C253 C 0.1759 1.00035 0.89434 0.0
O254 O 0.2654 0.83286 0.9553 0.0
Zn255 Zn 0.28165 0.92363 0.94985 0.0
O256 O 0.17749 0.81359 0.92617 0.0
Zn257 Zn 0.19719 0.89633 0.921 0.0
O258 O 0.26282 0.89134 0.85898 0.0
O259 O 0.34636 0.91751 0.8943 0.0
O260 O 0.14508 0.95634 0.88839 0.0
O261 O 0.22637 0.99398 0.91682 0.0
O262 O 0.29251 0.94048 0.03285 0.0
O263 O 0.2053 0.91351 1.00963 0.0
C264 C 0.31677 0.89747 0.85296 0.0
C265 C 0.24186 0.92819 0.04788 0.0
C266 C 0.30221 0.69512 0.41796 0.0
C267 C 0.09419 0.65869 0.37118 0.0
O268 O 0.26328 0.72958 0.43728 0.0
Zn269 Zn 0.17305 0.74547 0.43994 0.0
O270 O 0.28747 0.65291 0.38655 0.0
Zn271 Zn 0.20185 0.66948 0.39072 0.0
O272 O 0.19526 0.75017 0.34698 0.0
O273 O 0.16788 0.82266 0.40307 0.0
O274 O 0.13686 0.62829 0.35328 0.0
O275 O 0.1035 0.70205 0.40303 0.0
O276 O 0.15829 0.73365 0.51889 0.0
O277 O 0.1909 0.65273 0.47907 0.0
C278 C 0.18361 0.80402 0.35407 0.0
C279 C 0.17375 0.68058 0.52308 0.0
C280 C 0.39568 0.67944 1.00808 0.0
C281 C 0.30467 0.63944 0.82223 0.0
O282 O 0.4206 0.68409 0.95965 0.0
Zn283 Zn 0.356 0.6568 0.91264 0.0
O284 O 0.34499 0.65943 1.0107 0.0
Zn285 Zn 0.27649 0.63226 0.95727 0.0
O286 O 0.26711 0.54834 0.97406 0.0
O287 O 0.3475 0.56728 0.92891 0.0
O288 O 0.27366 0.63162 0.8666 0.0
O289 O 0.35643 0.65509 0.82782 0.0
O290 O 0.29525 0.72457 0.92656 0.0
O291 O 0.21682 0.69437 0.96912 0.0
C292 C 0.31299 0.53049 0.94976 0.0
C293 C 0.24527 0.73515 0.94672 0.0
C294 C 0.07426 0.87233 0.17049 0.0
C295 C 0.25089 0.75268 0.18043 0.0
O296 O 0.08132 0.82186 0.15001 0.0
Zn297 Zn 0.16091 0.80901 0.1686 0.0
O298 O 0.11651 0.89804 0.19336 0.0
Zn299 Zn 0.20569 0.88297 0.20801 0.0
O300 O 0.24408 0.93621 0.15257 0.0
O301 O 0.19865 0.86506 0.11102 0.0
O302 O 0.2542 0.80525 0.19629 0.0
O303 O 0.20419 0.73461 0.1591 0.0
O304 O 0.16199 0.81135 0.25792 0.0
O305 O 0.20938 0.88448 0.29364 0.0
C306 C 0.22824 0.91038 0.10706 0.0
C307 C 0.18088 0.8387 0.30115 0.0
C308 C 0.27456 0.6402 0.76689 0.0
C309 C 0.18293 0.65552 0.57981 0.0
O310 O 0.2233 0.66166 0.76655 0.0
Zn311 Zn 0.15345 0.68261 0.71032 0.0
O312 O 0.29637 0.61926 0.72125 0.0
Zn313 Zn 0.22978 0.63753 0.67203 0.0
O314 O 0.23243 0.72671 0.67354 0.0
O315 O 0.15563 0.76934 0.71097 0.0
O316 O 0.22945 0.6271 0.59076 0.0
O317 O 0.15182 0.6756 0.62029 0.0
O318 O 0.09172 0.62972 0.73773 0.0
O319 O 0.16551 0.58363 0.69868 0.0
C320 C 0.20455 0.77254 0.68666 0.0
C321 C 0.11616 0.58261 0.72192 0.0
C322 C 0.23755 0.82507 0.68132 0.0
C323 C 0.35096 0.99678 0.67435 0.0
O324 O 0.217 0.87321 0.66201 0.0
Zn325 Zn 0.29126 0.9129 0.66448 0.0
O326 O 0.29147 0.81849 0.69125 0.0
Zn327 Zn 0.36848 0.86357 0.69536 0.0
O328 O 0.38284 0.8593 0.78108 0.0
O329 O 0.30415 0.90861 0.75444 0.0
O330 O 0.38009 0.95157 0.68863 0.0
O331 O 0.29945 0.99389 0.65574 0.0
O332 O 0.34123 0.88333 0.59464 0.0
O333 O 0.41507 0.83282 0.63051 0.0
C334 C 0.33829 0.88987 0.79413 0.0
C335 C 0.38771 0.8541 0.58679 0.0
loop_
_geom_bond_atom_site_label_1
_geom_bond_atom_site_label_2
_geom_bond_distance
_geom_bond_site_symmetry_2
_ccdc_geom_bond_type
C0 O2 1.247 . S
C0 O4 1.258 . S
C1 O8 1.247 . S
C1 O9 1.258 . S
O2 C0 1.247 . S
O2 Zn3 2.028 . S
Zn3 O2 2.028 . S
Zn3 O7 2.035 . S
Zn3 O9 2.035 . S
Zn3 O10 2.028 . S
O4 C0 1.258 . S
O4 Zn5 2.035 . S
Zn5 O4 2.035 . S
Zn5 O6 2.028 . S
Zn5 O8 2.028 . S
Zn5 O11 2.035 . S
O6 Zn5 2.028 . S
O6 C12 1.247 . S
O7 Zn3 2.035 . S
O7 C12 1.258 . S
O8 C1 1.247 . S
O8 Zn5 2.028 . S
O9 C1 1.258 . S
O9 Zn3 2.035 . S
O10 Zn3 2.028 . S
O10 C13 1.247 . S
O11 Zn5 2.035 . S
O11 C13 1.258 . S
C12 O6 1.247 . S
C12 O7 1.258 . S
C13 O10 1.247 . S
C13 O11 1.258 . S
C14 O16 1.247 . S
C14 O18 1.258 . S
C15 O22 1.247 . S
C15 O23 1.258 . S
O16 C14 1.247 . S
O16 Zn17 2.028 . S
Zn17 O16 2.028 . S
Zn17 O21 2.035 . S
Zn17 O23 2.035 . S
Zn17 O24 2.028 . S
O18 C14 1.258 . S
O18 Zn19 2.035 . S
Zn19 O18 2.035 . S
Zn19 O20 2.028 . S
Zn19 O22 2.028 . S
Zn19 O25 2.035 . S
O20 Zn19 2.028 . S
O20 C26 1.247 . S
O21 Zn17 2.035 . S
O21 C26 1.258 . S
O22 C15 1.247 . S
O22 Zn19 2.028 . S
O23 C15 1.258 . S
O23 Zn17 2.035 . S
O24 Zn17 2.028 . S
O24 C27 1.247 . S
O25 Zn19 2.035 . S
O25 C27 1.258 . S
C26 O20 1.247 . S
C26 O21 1.258 . S
C27 O24 1.247 . S
C27 O25 1.258 . S
C28 O30 1.247 . S
C28 O32 1.258 . S
C29 O36 1.247 . S
C29 O37 1.258 . S
O30 C28 1.247 . S
O30 Zn31 2.028 . S
Zn31 O30 2.028 . S
Zn31 O35 2.035 . S
Zn31 O37 2.035 . S
Zn31 O38 2.028 . S
O32 C28 1.258 . S
O32 Zn33 2.035 . S
Zn33 O32 2.035 . S
Zn33 O34 2.028 . S
Zn33 O36 2.028 . S
Zn33 O39 2.035 . S
O34 Zn33 2.028 . S
O34 C40 1.247 . S
O35 Zn31 2.035 . S
O35 C40 1.258 . S
O36 C29 1.247 . S
O36 Zn33 2.028 . S
O37 C29 1.258 . S
O37 Zn31 2.035 . S
O38 Zn31 2.028 . S
O38 C41 1.247 . S
O39 Zn33 2.035 . S
O39 C41 1.258 . S
C40 O34 1.247 . S
C40 O35 1.258 . S
C41 O38 1.247 . S
C41 O39 1.258 . S
C42 O44 1.247 . S
C42 O46 1.258 . S
C43 O50 1.247 . S
C43 O51 1.258 . S
O44 C42 1.247 . S
O44 Zn45 2.028 . S
Zn45 O44 2.028 . S
Zn45 O49 2.035 . S
Zn45 O51 2.035 . S
Zn45 O52 2.028 . S
O46 C42 1.258 . S
O46 Zn47 2.035 . S
Zn47 O46 2.035 . S
Zn47 O48 2.028 . S
Zn47 O50 2.028 . S
Zn47 O53 2.035 . S
O48 Zn47 2.028 . S
O48 C54 1.247 . S
O49 Zn45 2.035 . S
O49 C54 1.258 . S
O50 C43 1.247 . S
O50 Zn47 2.028 . S
O51 C43 1.258 . S
O51 Zn45 2.035 . S
O52 Zn45 2.028 . S
O52 C55 1.247 . S
O53 Zn47 2.035 . S
O53 C55 1.258 . S
C54 O48 1.247 . S
C54 O49 1.258 . S
C55 O52 1.247 . S
C55 O53 1.258 . S
C56 O58 1.247 . S
C56 O60 1.258 . S
C57 O64 1.247 . S
C57 O65 1.258 . S
O58 C56 1.247 . S
O58 Zn59 2.028 . S
Zn59 O58 2.028 . S
Zn59 O63 2.035 . S
Zn59 O65 2.035 . S
Zn59 O66 2.028 . S
O60 C56 1.258 . S
O60 Zn61 2.035 . S
Zn61 O60 2.035 . S
Zn61 O62 2.028 . S
Zn61 O64 2.028 . S
Zn61 O67 2.035 . S
O62 Zn61 2.028 . S
O62 C68 1.247 . S
O63 Zn59 2.035 . S
O63 C68 1.258 . S
O64 C57 1.247 . S
O64 Zn61 2.028 . S
O65 C57 1.258 . S
O65 Zn59 2.035 . S
O66 Zn59 2.028 . S
O66 C69 1.247 . S
O67 Zn61 2.035 . S
O67 C69 1.258 . S
C68 O62 1.247 . S
C68 O63 1.258 . S
C69 O66 1.247 . S
C69 O67 1.258 . S
C70 O72 1.247 . S
C70 O74 1.258 . S
C71 O78 1.247 . S
C71 O79 1.258 . S
O72 C70 1.247 . S
O72 Zn73 2.028 . S
Zn73 O72 2.028 . S
Zn73 O77 2.035 . S
Zn73 O79 2.035 . S
Zn73 O80 2.028 . S
O74 C70 1.258 . S
O74 Zn75 2.035 . S
Zn75 O74 2.035 . S
Zn75 O76 2.028 . S
Zn75 O78 2.028 . S
Zn75 O81 2.035 . S
O76 Zn75 2.028 . S
O76 C82 1.247 . S
O77 Zn73 2.035 . S
O77 C82 1.258 . S
O78 C71 1.247 . S
O78 Zn75 2.028 . S
O79 C71 1.258 . S
O79 Zn73 2.035 . S
O80 Zn73 2.028 . S
O80 C83 1.247 . S
O81 Zn75 2.035 . S
O81 C83 1.258 . S
C82 O76 1.247 . S
C82 O77 1.258 . S
C83 O80 1.247 . S
C83 O81 1.258 . S
C84 O86 1.247 . S
C84 O88 1.258 . S
C85 O92 1.247 . S
C85 O93 1.258 . S
O86 C84 1.247 . S
O86 Zn87 2.028 . S
Zn87 O86 2.028 . S
Zn87 O91 2.035 . S
Zn87 O93 2.035 . S
Zn87 O94 2.028 . S
O88 C84 1.258 . S
O88 Zn89 2.035 . S
Zn89 O88 2.035 . S
Zn89 O90 2.028 . S
Zn89 O92 2.028 . S
Zn89 O95 2.035 . S
O90 Zn89 2.028 . S
O90 C96 1.247 . S
O91 Zn87 2.035 . S
O91 C96 1.258 . S
O92 C85 1.247 . S
O92 Zn89 2.028 . S
O93 C85 1.258 . S
O93 Zn87 2.035 . S
O94 Zn87 2.028 . S
O94 C97 1.247 . S
O95 Zn89 2.035 . S
O95 C97 1.258 . S
C96 O90 1.247 . S
C96 O91 1.258 . S
C97 O94 1.247 . S
C97 O95 1.258 . S
C98 O100 1.247 . S
C98 O102 1.258 . S
C99 O106 1.247 . S
C99 O107 1.258 . S
O100 C98 1.247 . S
O100 Zn101 2.028 . S
Zn101 O100 2.028 . S
Zn101 O105 2.035 . S
Zn101 O107 2.035 . S
Zn101 O108 2.028 . S
O102 C98 1.258 . S
O102 Zn103 2.035 . S
Zn103 O102 2.035 . S
Zn103 O104 2.028 . S
Zn103 O106 2.028 . S
Zn103 O109 2.035 . S
O104 Zn103 2.028 . S
O104 C110 1.247 . S
O105 Zn101 2.035 . S
O105 C110 1.258 . S
O106 C99 1.247 . S
O106 Zn103 2.028 . S
O107 C99 1.258 . S
O107 Zn101 2.035 . S
O108 Zn101 2.028 . S
O108 C111 1.247 . S
O109 Zn103 2.035 . S
O109 C111 1.258 . S
C110 O104 1.247 . S
C110 O105 1.258 . S
C111 O108 1.247 . S
C111 O109 1.258 . S
C112 O114 1.247 . S
C112 O116 1.258 . S
C113 O120 1.247 . S
C113 O121 1.258 . S
O114 C112 1.247 . S
O114 Zn115 2.028 . S
Zn115 O114 2.028 . S
Zn115 O119 2.035 . S
Zn115 O121 2.035 . S
Zn115 O122 2.028 . S
O116 C112 1.258 . S
O116 Zn117 2.035 . S
Zn117 O116 2.035 . S
Zn117 O118 2.028 . S
Zn117 O120 2.028 . S
Zn117 O123 2.035 . S
O118 Zn117 2.028 . S
O118 C124 1.247 . S
O119 Zn115 2.035 . S
O119 C124 1.258 . S
O120 C113 1.247 . S
O120 Zn117 2.028 . S
O121 C113 1.258 . S
O121 Zn115 2.035 . S
O122 Zn115 2.028 . S
O122 C125 1.247 . S
O123 Zn117 2.035 . S
O123 C125 1.258 . S
C124 O118 1.247 . S
C124 O119 1.258 . S
C125 O122 1.247 . S
C125 O123 1.258 . S
C126 O128 1.247 . S
C126 O130 1.258 . S
C127 O134 1.247 . S
C127 O135 1.258 . S
O128 C126 1.247 . S
O128 Zn129 2.028 . S
Zn129 O128 2.028 . S
Zn129 O133 2.035 . S
Zn129 O135 2.035 . S
Zn129 O136 2.028 . S
O130 C126 1.258 . S
O130 Zn131 2.035 . S
Zn131 O130 2.035 . S
Zn131 O132 2.028 . S
Zn131 O134 2.028 . S
Zn131 O137 2.035 . S
O132 Zn131 2.028 . S
O132 C138 1.247 . S
O133 Zn129 2.035 . S
O133 C138 1.258 . S
O134 C127 1.247 . S
O134 Zn131 2.028 . S
O135 C127 1.258 . S
O135 Zn129 2.035 . S
O136 Zn129 2.028 . S
O136 C139 1.247 . S
O137 Zn131 2.035 . S
O137 C139 1.258 . S
C138 O132 1.247 . S
C138 O133 1.258 . S
C139 O136 1.247 . S
C139 O137 1.258 . S
C140 O142 1.247 . S
C140 O144 1.258 . S
C141 O148 1.247 . S
C141 O149 1.258 . S
O142 C140 1.247 . S
O142 Zn143 2.028 . S
Zn143 O142 2.028 . S
Zn143 O147 2.035 . S
Zn143 O149 2.035 . S
Zn143 O150 2.028 . S
O144 C140 1.258 . S
O144 Zn145 2.035 . S
Zn145 O144 2.035 . S
Zn145 O146 2.028 . S
Zn145 O148 2.028 . S
Zn145 O151 2.035 . S
O146 Zn145 2.028 . S
O146 C152 1.247 . S
O147 Zn143 2.035 . S
O147 C152 1.258 . S
O148 C141 1.247 . S
O148 Zn145 2.028 . S
O149 C141 1.258 . S
O149 Zn143 2.035 . S
O150 Zn143 2.028 . S
O150 C153 1.247 . S
O151 Zn145 2.035 . S
O151 C153 1.258 . S
C152 O146 1.247 . S
C152 O147 1.258 . S
C153 O150 1.247 . S
C153 O151 1.258 . S
C154 O156 1.247 . S
C154 O158 1.258 . S
C155 O162 1.247 . S
C155 O163 1.258 . S
O156 C154 1.247 . S
O156 Zn157 2.028 . S
Zn157 O156 2.028 . S
Zn157 O161 2.035 . S
Zn157 O163 2.035 . S
Zn157 O164 2.028 . S
O158 C154 1.258 . S
O158 Zn159 2.035 . S
Zn159 O158 2.035 . S
Zn159 O160 2.028 . S
Zn159 O162 2.028 . S
Zn159 O165 2.035 . S
O160 Zn159 2.028 . S
O160 C166 1.247 . S
O161 Zn157 2.035 . S
O161 C166 1.258 . S
O162 C155 1.247 . S
O162 Zn159 2.028 . S
O163 C155 1.258 . S
O163 Zn157 2.035 . S
O164 Zn157 2.028 . S
O164 C167 1.247 . S
O165 Zn159 2.035 . S
O165 C167 1.258 . S
C166 O160 1.247 . S
C166 O161 1.258 . S
C167 O164 1.247 . S
C167 O165 1.258 . S
C168 O170 1.247 . S
C168 O172 1.258 . S
C169 O176 1.247 . S
C169 O177 1.258 . S
O170 C168 1.247 . S
O170 Zn171 2.028 . S
Zn171 O170 2.028 . S
Zn171 O175 2.035 . S
Zn171 O177 2.035 . S
Zn171 O178 2.028 . S
O172 C168 1.258 . S
O172 Zn173 2.035 . S
Zn173 O172 2.035 . S
Zn173 O174 2.028 . S
Zn173 O176 2.028 . S
Zn173 O179 2.035 . S
O174 Zn173 2.028 . S
O174 C180 1.247 . S
O175 Zn171 2.035 . S
O175 C180 1.258 . S
O176 C169 1.247 . S
O176 Zn173 2.028 . S
O177 C169 1.258 . S
O177 Zn171 2.035 . S
O178 Zn171 2.028 . S
O178 C181 1.247 . S
O179 Zn173 2.035 . S
O179 C181 1.258 . S
C180 O174 1.247 . S
C180 O175 1.258 . S
C181 O178 1.247 . S
C181 O179 1.258 . S
C182 O184 1.247 . S
C182 O186 1.258 . S
C183 O190 1.247 . S
C183 O191 1.258 . S
O184 C182 1.247 . S
O184 Zn185 2.028 . S
Zn185 O184 2.028 . S
Zn185 O189 2.035 . S
Zn185 O191 2.035 . S
Zn185 O192 2.028 . S
O186 C182 1.258 . S
O186 Zn187 2.035 . S
Zn187 O186 2.035 . S
Zn187 O188 2.028 . S
Zn187 O190 2.028 . S
Zn187 O193 2.035 . S
O188 Zn187 2.028 . S
O188 C194 1.247 . S
O189 Zn185 2.035 . S
O189 C194 1.258 . S
O190 C183 1.247 . S
O190 Zn187 2.028 . S
O191 C183 1.258 . S
O191 Zn185 2.035 . S
O192 Zn185 2.028 . S
O192 C195 1.247 . S
O193 Zn187 2.035 . S
O193 C195 1.258 . S
C194 O188 1.247 . S
C194 O189 1.258 . S
C195 O192 1.247 . S
C195 O193 1.258 . S
C196 O198 1.247 . S
C196 O200 1.258 . S
C197 O204 1.247 . S
C197 O205 1.258 . S
O198 C196 1.247 . S
O198 Zn199 2.028 . S
Zn199 O198 2.028 . S
Zn199 O203 2.035 . S
Zn199 O205 2.035 . S
Zn199 O206 2.028 . S
O200 C196 1.258 . S
O200 Zn201 2.035 . S
Zn201 O200 2.035 . S
Zn201 O202 2.028 . S
Zn201 O204 2.028 . S
Zn201 O207 2.035 . S
O202 Zn201 2.028 . S
O202 C208 1.247 . S
O203 Zn199 2.035 . S
O203 C208 1.258 . S
O204 C197 1.247 . S
O204 Zn201 2.028 . S
O205 C197 1.258 . S
O205 Zn199 2.035 . S
O206 Zn199 2.028 . S
O206 C209 1.247 . S
O207 Zn201 2.035 . S
O207 C209 1.258 . S
C208 O202 1.247 . S
C208 O203 1.258 . S
C209 O206 1.247 . S
C209 O207 1.258 . S
C210 O212 1.247 . S
C210 O214 1.258 . S
C211 O218 1.247 . S
C211 O219 1.258 . S
O212 C210 1.247 . S
O212 Zn213 2.028 . S
Zn213 O212 2.028 . S
Zn213 O217 2.035 . S
Zn213 O219 2.035 . S
Zn213 O220 2.028 . S
O214 C210 1.258 . S
O214 Zn215 2.035 . S
Zn215 O214 2.035 . S
Zn215 O216 2.028 . S
Zn215 O218 2.028 . S
Zn215 O221 2.035 . S
O216 Zn215 2.028 . S
O216 C222 1.247 . S
O217 Zn213 2.035 . S
O217 C222 1.258 . S
O218 C211 1.247 . S
O218 Zn215 2.028 . S
O219 C211 1.258 . S
O219 Zn213 2.035 . S
O220 Zn213 2.028 . S
O220 C223 1.247 . S
O221 Zn215 2.035 . S
O221 C223 1.258 . S
C222 O216 1.247 . S
C222 O217 1.258 . S
C223 O220 1.247 . S
C223 O221 1.258 . S
C224 O226 1.247 . S
C224 O228 1.258 . S
C225 O232 1.247 . S
C225 O233 1.258 . S
O226 C224 1.247 . S
O226 Zn227 2.028 . S
Zn227 O226 2.028 . S
Zn227 O231 2.035 . S
Zn227 O233 2.035 . S
Zn227 O234 2.028 . S
O228 C224 1.258 . S
O228 Zn229 2.035 . S
Zn229 O228 2.035 . S
Zn229 O230 2.028 . S
Zn229 O232 2.028 . S
Zn229 O235 2.035 . S
O230 Zn229 2.028 . S
O230 C236 1.247 . S
O231 Zn227 2.035 . S
O231 C236 1.258 . S
O232 C225 1.247 . S
O232 Zn229 2.028 . S
O233 C225 1.258 . S
O233 Zn227 2.035 . S
O234 Zn227 2.028 . S
O234 C237 1.247 . S
O235 Zn229 2.035 . S
O235 C237 1.258 . S
C236 O230 1.247 . S
C236 O231 1.258 . S
C237 O234 1.247 . S
C237 O235 1.258 . S
C238 O240 1.247 . S
C238 O242 1.258 . S
C239 O246 1.247 . S
C239 O247 1.258 . S
O240 C238 1.247 . S
O240 Zn241 2.028 . S
Zn241 O240 2.028 . S
Zn241 O245 2.035 . S
Zn241 O247 2.035 . S
Zn241 O248 2.028 . S
O242 C238 1.258 . S
O242 Zn243 2.035 . S
Zn243 O242 2.035 . S
Zn243 O244 2.028 . S
Zn243 O246 2.028 . S
Zn243 O249 2.035 . S
O244 Zn243 2.028 . S
O244 C250 1.247 . S
O245 Zn241 2.035 . S
O245 C250 1.258 . S
O246 C239 1.247 . S
O246 Zn243 2.028 . S
O247 C239 1.258 . S
O247 Zn241 2.035 . S
O248 Zn241 2.028 . S
O248 C251 1.247 . S
O249 Zn243 2.035 . S
O249 C251 1.258 . S
C250 O244 1.247 . S
C250 O245 1.258 . S
C251 O248 1.247 . S
C251 O249 1.258 . S
C252 O254 1.247 . S
C252 O256 1.258 . S
C253 O260 1.247 . S
C253 O261 1.258 . S
O254 C252 1.247 . S
O254 Zn255 2.028 . S
Zn255 O254 2.028 . S
Zn255 O259 2.035 . S
Zn255 O261 2.035 . S
Zn255 O262 2.028 . S
O256 C252 1.258 . S
O256 Zn257 2.035 . S
Zn257 O256 2.035 . S
Zn257 O258 2.028 . S
Zn257 O260 2.028 . S
Zn257 O263 2.035 . S
O258 Zn257 2.028 . S
O258 C264 1.247 . S
O259 Zn255 2.035 . S
O259 C264 1.258 . S
O260 C253 1.247 . S
O260 Zn257 2.028 . S
O261 C253 1.258 . S
O261 Zn255 2.035 . S
O262 Zn255 2.028 . S
O262 C265 1.247 . S
O263 Zn257 2.035 . S
O263 C265 1.258 . S
C264 O258 1.247 . S
C264 O259 1.258 . S
C265 O262 1.247 . S
C265 O263 1.258 . S
C266 O268 1.247 . S
C266 O270 1.258 . S
C267 O274 1.247 . S
C267 O275 1.258 . S
O268 C266 1.247 . S
O268 Zn269 2.028 . S
Zn269 O268 2.028 . S
Zn269 O273 2.035 . S
Zn269 O275 2.035 . S
Zn269 O276 2.028 . S
O270 C266 1.258 . S
O270 Zn271 2.035 . S
Zn271 O270 2.035 . S
Zn271 O272 2.028 . S
Zn271 O274 2.028 . S
Zn271 O277 2.035 . S
O272 Zn271 2.028 . S
O272 C278 1.247 . S
O273 Zn269 2.035 . S
O273 C278 1.258 . S
O274 C267 1.247 . S
O274 Zn271 2.028 . S
O275 C267 1.258 . S
O275 Zn269 2.035 . S
O276 Zn269 2.028 . S
O276 C279 1.247 . S
O277 Zn271 2.035 . S
O277 C279 1.258 . S
C278 O272 1.247 . S
C278 O273 1.258 . S
C279 O276 1.247 . S
C279 O277 1.258 . S
C280 O282 1.247 . S
C280 O284 1.258 . S
C281 O288 1.247 . S
C281 O289 1.258 . S
O282 C280 1.247 . S
O282 Zn283 2.028 . S
Zn283 O282 2.028 . S
Zn283 O287 2.035 . S
Zn283 O289 2.035 . S
Zn283 O290 2.028 . S
O284 C280 1.258 . S
O284 Zn285 2.035 . S
Zn285 O284 2.035 . S
Zn285 O286 2.028 . S
Zn285 O288 2.028 . S
Zn285 O291 2.035 . S
O286 Zn285 2.028 . S
O286 C292 1.247 . S
O287 Zn283 2.035 . S
O287 C292 1.258 . S
O288 C281 1.247 . S
O288 Zn285 2.028 . S
O289 C281 1.258 . S
O289 Zn283 2.035 . S
O290 Zn283 2.028 . S
O290 C293 1.247 . S
O291 Zn285 2.035 . S
O291 C293 1.258 . S
C292 O286 1.247 . S
C292 O287 1.258 . S
C293 O290 1.247 . S
C293 O291 1.258 . S
C294 O296 1.247 . S
C294 O298 1.258 . S
C295 O302 1.247 . S
C295 O303 1.258 . S
O296 C294 1.247 . S
O296 Zn297 2.028 . S
Zn297 O296 2.028 . S
Zn297 O301 2.035 . S
Zn297 O303 2.035 . S
Zn297 O304 2.028 . S
O298 C294 1.258 . S
O298 Zn299 2.035 . S
Zn299 O298 2.035 . S
Zn299 O300 2.028 . S
Zn299 O302 2.028 . S
Zn299 O305 2.035 . S
O300 Zn299 2.028 . S
O300 C306 1.247 . S
O301 Zn297 2.035 . S
O301 C306 1.258 . S
O302 C295 1.247 . S
O302 Zn299 2.028 . S
O303 C295 1.258 . S
O303 Zn297 2.035 . S
O304 Zn297 2.028 . S
O304 C307 1.247 . S
O305 Zn299 2.035 . S
O305 C307 1.258 . S
C306 O300 1.247 . S
C306 O301 1.258 . S
C307 O304 1.247 . S
C307 O305 1.258 . S
C308 O310 1.247 . S
C308 O312 1.258 . S
C309 O316 1.247 . S
C309 O317 1.258 . S
O310 C308 1.247 . S
O310 Zn311 2.028 . S
Zn311 O310 2.028 . S
Zn311 O315 2.035 . S
Zn311 O317 2.035 . S
Zn311 O318 2.028 . S
O312 C308 1.258 . S
O312 Zn313 2.035 . S
Zn313 O312 2.035 . S
Zn313 O314 2.028 . S
Zn313 O316 2.028 . S
Zn313 O319 2.035 . S
O314 Zn313 2.028 . S
O314 C320 1.247 . S
O315 Zn311 2.035 . S
O315 C320 1.258 . S
O316 C309 1.247 . S
O316 Zn313 2.028 . S
O317 C309 1.258 . S
O317 Zn311 2.035 . S
O318 Zn311 2.028 . S
O318 C321 1.247 . S
O319 Zn313 2.035 . S
O319 C321 1.258 . S
C320 O314 1.247 . S
C320 O315 1.258 . S
C321 O318 1.247 . S
C321 O319 1.258 . S
C322 O324 1.247 . S
C322 O326 1.258 . S
C323 O330 1.247 . S
C323 O331 1.258 . S
O324 C322 1.247 . S
O324 Zn325 2.028 . S
Zn325 O324 2.028 . S
Zn325 O329 2.035 . S
Zn325 O331 2.035 . S
Zn325 O332 2.028 . S
O326 C322 1.258 . S
O326 Zn327 2.035 . S
Zn327 O326 2.035 . S
Zn327 O328 2.028 . S
Zn327 O330 2.028 . S
Zn327 O333 2.035 . S
O328 Zn327 2.028 . S
O328 C334 1.247 . S
O329 Zn325 2.035 . S
O329 C334 1.258 . S
O330 C323 1.247 . S
O330 Zn327 2.028 . S
O331 C323 1.258 . S
O331 Zn325 2.035 . S
O332 Zn325 2.028 . S
O332 C335 1.247 . S
O333 Zn327 2.035 . S
O333 C335 1.258 . S
C334 O328 1.247 . S
C334 O329 1.258 . S
C335 O332 1.247 . S
C335 O333 1.258 . S
C57 C13 1.493 . S
C15 C71 1.493 . S
C97 C40 1.492 . S
C99 C43 1.493 . S
C208 C112 1.490 . S
C210 C127 1.492 . S
C141 C168 1.492 . S
C182 C154 1.490 . S
C224 C295 1.492 . S
C251 C266 1.492 . S
C252 C293 1.492 . S
C320 C322 1.490 . S
C55 C83 1.490 . S
C1 C85 1.491 . S
C111 C27 1.490 . S
C28 C69 1.492 . S
C334 C264 1.493 . S
C278 C307 1.492 . S
C281 C308 1.492 . S
C239 C236 1.492 . S
C166 C139 1.492 . S
C222 C194 1.493 . S
C180 C196 1.493 . S
C153 C124 1.492 . S
C321 C12 1.561 . S
C225 C14 1.561 . S
C323 C41 1.560 1_565 S
C294 C42 1.563 1_455 S
C253 C56 1.561 1_565 S
C70 C267 1.561 1_655 S
C292 C96 1.563 . S
C250 C98 1.563 . S
C183 C113 1.560 . S
C209 C126 1.561 1_554 S
C211 C140 1.561 . S
C155 C169 1.560 1_556 S
C82 C152 1.560 . S
C84 C167 1.561 . S
C125 C110 1.561 1_545 S
C68 C138 1.560 1_455 S
C197 C54 1.561 1_545 S
C0 C223 1.561 1_455 S
C181 C26 1.561 . S
C29 C195 1.563 . S
C238 C335 1.561 . S
C306 C265 1.561 1_554 S
C309 C279 1.563 . S
C237 C280 1.561 1_554 S
