# Generated by pormake.
# Topology cha, (4)-cn, num edge types: 1
# Building blocks:
#     Node 0, Type 0, BuildingBlock: QUQFOY_clean_sbu_1, # of connection points: 4
#     Node 1, Type 0, BuildingBlock: QUQFOY_clean_sbu_1, # of connection points: 4
#     Node 2, Type 0, BuildingBlock: QUQFOY_clean_sbu_1, # of connection points: 4
#     Node 3, Type 0, BuildingBlock: QUQFOY_clean_sbu_1, # of connection points: 4
#     Node 4, Type 0, BuildingBlock: QUQFOY_clean_sbu_1, # of connection points: 4
#     Node 5, Type 0, BuildingBlock: QUQFOY_clean_sbu_1, # of connection points: 4
#     Node 6, Type 0, BuildingBlock: QUQFOY_clean_sbu_1, # of connection points: 4
#     Node 7, Type 0, BuildingBlock: QUQFOY_clean_sbu_1, # of connection points: 4
#     Node 8, Type 0, BuildingBlock: QUQFOY_clean_sbu_1, # of connection points: 4
#     Node 9, Type 0, BuildingBlock: QUQFOY_clean_sbu_1, # of connection points: 4
#     Node 10, Type 0, BuildingBlock: QUQFOY_clean_sbu_1, # of connection points: 4
#     Node 11, Type 0, BuildingBlock: QUQFOY_clean_sbu_1, # of connection points: 4
#     Node 12, Type 0, BuildingBlock: QUQFOY_clean_sbu_1, # of connection points: 4
#     Node 13, Type 0, BuildingBlock: QUQFOY_clean_sbu_1, # of connection points: 4
#     Node 14, Type 0, BuildingBlock: QUQFOY_clean_sbu_1, # of connection points: 4
#     Node 15, Type 0, BuildingBlock: QUQFOY_clean_sbu_1, # of connection points: 4
#     Node 16, Type 0, BuildingBlock: QUQFOY_clean_sbu_1, # of connection points: 4
#     Node 17, Type 0, BuildingBlock: QUQFOY_clean_sbu_1, # of connection points: 4
#     Node 18, Type 0, BuildingBlock: QUQFOY_clean_sbu_1, # of connection points: 4
#     Node 19, Type 0, BuildingBlock: QUQFOY_clean_sbu_1, # of connection points: 4
#     Node 20, Type 0, BuildingBlock: QUQFOY_clean_sbu_1, # of connection points: 4
#     Node 21, Type 0, BuildingBlock: QUQFOY_clean_sbu_1, # of connection points: 4
#     Node 22, Type 0, BuildingBlock: QUQFOY_clean_sbu_1, # of connection points: 4
#     Node 23, Type 0, BuildingBlock: QUQFOY_clean_sbu_1, # of connection points: 4
#     Node 24, Type 0, BuildingBlock: QUQFOY_clean_sbu_1, # of connection points: 4
#     Node 25, Type 0, BuildingBlock: QUQFOY_clean_sbu_1, # of connection points: 4
#     Node 26, Type 0, BuildingBlock: QUQFOY_clean_sbu_1, # of connection points: 4
#     Node 27, Type 0, BuildingBlock: QUQFOY_clean_sbu_1, # of connection points: 4
#     Node 28, Type 0, BuildingBlock: QUQFOY_clean_sbu_1, # of connection points: 4
#     Node 29, Type 0, BuildingBlock: QUQFOY_clean_sbu_1, # of connection points: 4
#     Node 30, Type 0, BuildingBlock: QUQFOY_clean_sbu_1, # of connection points: 4
#     Node 31, Type 0, BuildingBlock: QUQFOY_clean_sbu_1, # of connection points: 4
#     Node 32, Type 0, BuildingBlock: QUQFOY_clean_sbu_1, # of connection points: 4
#     Node 33, Type 0, BuildingBlock: QUQFOY_clean_sbu_1, # of connection points: 4
#     Node 34, Type 0, BuildingBlock: QUQFOY_clean_sbu_1, # of connection points: 4
#     Node 35, Type 0, BuildingBlock: QUQFOY_clean_sbu_1, # of connection points: 4
#     Edge 36, Type (0, 0), BuildingBlock: AJUNOK_clean_linker_0, # of connection points: 2
#     Edge 37, Type (0, 0), BuildingBlock: AJUNOK_clean_linker_0, # of connection points: 2
#     Edge 38, Type (0, 0), BuildingBlock: AJUNOK_clean_linker_0, # of connection points: 2
#     Edge 39, Type (0, 0), BuildingBlock: AJUNOK_clean_linker_0, # of connection points: 2
#     Edge 40, Type (0, 0), BuildingBlock: AJUNOK_clean_linker_0, # of connection points: 2
#     Edge 41, Type (0, 0), BuildingBlock: AJUNOK_clean_linker_0, # of connection points: 2
#     Edge 42, Type (0, 0), BuildingBlock: AJUNOK_clean_linker_0, # of connection points: 2
#     Edge 43, Type (0, 0), BuildingBlock: AJUNOK_clean_linker_0, # of connection points: 2
#     Edge 44, Type (0, 0), BuildingBlock: AJUNOK_clean_linker_0, # of connection points: 2
#     Edge 45, Type (0, 0), BuildingBlock: AJUNOK_clean_linker_0, # of connection points: 2
#     Edge 46, Type (0, 0), BuildingBlock: AJUNOK_clean_linker_0, # of connection points: 2
#     Edge 47, Type (0, 0), BuildingBlock: AJUNOK_clean_linker_0, # of connection points: 2
#     Edge 48, Type (0, 0), BuildingBlock: AJUNOK_clean_linker_0, # of connection points: 2
#     Edge 49, Type (0, 0), BuildingBlock: AJUNOK_clean_linker_0, # of connection points: 2
#     Edge 50, Type (0, 0), BuildingBlock: AJUNOK_clean_linker_0, # of connection points: 2
#     Edge 51, Type (0, 0), BuildingBlock: AJUNOK_clean_linker_0, # of connection points: 2
#     Edge 52, Type (0, 0), BuildingBlock: AJUNOK_clean_linker_0, # of connection points: 2
#     Edge 53, Type (0, 0), BuildingBlock: AJUNOK_clean_linker_0, # of connection points: 2
#     Edge 54, Type (0, 0), BuildingBlock: AJUNOK_clean_linker_0, # of connection points: 2
#     Edge 55, Type (0, 0), BuildingBlock: AJUNOK_clean_linker_0, # of connection points: 2
#     Edge 56, Type (0, 0), BuildingBlock: AJUNOK_clean_linker_0, # of connection points: 2
#     Edge 57, Type (0, 0), BuildingBlock: AJUNOK_clean_linker_0, # of connection points: 2
#     Edge 58, Type (0, 0), BuildingBlock: AJUNOK_clean_linker_0, # of connection points: 2
#     Edge 59, Type (0, 0), BuildingBlock: AJUNOK_clean_linker_0, # of connection points: 2
#     Edge 60, Type (0, 0), BuildingBlock: AJUNOK_clean_linker_0, # of connection points: 2
#     Edge 61, Type (0, 0), BuildingBlock: AJUNOK_clean_linker_0, # of connection points: 2
#     Edge 62, Type (0, 0), BuildingBlock: AJUNOK_clean_linker_0, # of connection points: 2
#     Edge 63, Type (0, 0), BuildingBlock: AJUNOK_clean_linker_0, # of connection points: 2
#     Edge 64, Type (0, 0), BuildingBlock: AJUNOK_clean_linker_0, # of connection points: 2
#     Edge 65, Type (0, 0), BuildingBlock: AJUNOK_clean_linker_0, # of connection points: 2
#     Edge 66, Type (0, 0), BuildingBlock: AJUNOK_clean_linker_0, # of connection points: 2
#     Edge 67, Type (0, 0), BuildingBlock: AJUNOK_clean_linker_0, # of connection points: 2
#     Edge 68, Type (0, 0), BuildingBlock: AJUNOK_clean_linker_0, # of connection points: 2
#     Edge 69, Type (0, 0), BuildingBlock: AJUNOK_clean_linker_0, # of connection points: 2
#     Edge 70, Type (0, 0), BuildingBlock: AJUNOK_clean_linker_0, # of connection points: 2
#     Edge 71, Type (0, 0), BuildingBlock: AJUNOK_clean_linker_0, # of connection points: 2
#     Edge 72, Type (0, 0), BuildingBlock: AJUNOK_clean_linker_0, # of connection points: 2
#     Edge 73, Type (0, 0), BuildingBlock: AJUNOK_clean_linker_0, # of connection points: 2
#     Edge 74, Type (0, 0), BuildingBlock: AJUNOK_clean_linker_0, # of connection points: 2
#     Edge 75, Type (0, 0), BuildingBlock: AJUNOK_clean_linker_0, # of connection points: 2
#     Edge 76, Type (0, 0), BuildingBlock: AJUNOK_clean_linker_0, # of connection points: 2
#     Edge 77, Type (0, 0), BuildingBlock: AJUNOK_clean_linker_0, # of connection points: 2
#     Edge 78, Type (0, 0), BuildingBlock: AJUNOK_clean_linker_0, # of connection points: 2
#     Edge 79, Type (0, 0), BuildingBlock: AJUNOK_clean_linker_0, # of connection points: 2
#     Edge 80, Type (0, 0), BuildingBlock: AJUNOK_clean_linker_0, # of connection points: 2
#     Edge 81, Type (0, 0), BuildingBlock: AJUNOK_clean_linker_0, # of connection points: 2
#     Edge 82, Type (0, 0), BuildingBlock: AJUNOK_clean_linker_0, # of connection points: 2
#     Edge 83, Type (0, 0), BuildingBlock: AJUNOK_clean_linker_0, # of connection points: 2
#     Edge 84, Type (0, 0), BuildingBlock: AJUNOK_clean_linker_0, # of connection points: 2
#     Edge 85, Type (0, 0), BuildingBlock: AJUNOK_clean_linker_0, # of connection points: 2
#     Edge 86, Type (0, 0), BuildingBlock: AJUNOK_clean_linker_0, # of connection points: 2
#     Edge 87, Type (0, 0), BuildingBlock: AJUNOK_clean_linker_0, # of connection points: 2
#     Edge 88, Type (0, 0), BuildingBlock: AJUNOK_clean_linker_0, # of connection points: 2
#     Edge 89, Type (0, 0), BuildingBlock: AJUNOK_clean_linker_0, # of connection points: 2
#     Edge 90, Type (0, 0), BuildingBlock: AJUNOK_clean_linker_0, # of connection points: 2
#     Edge 91, Type (0, 0), BuildingBlock: AJUNOK_clean_linker_0, # of connection points: 2
#     Edge 92, Type (0, 0), BuildingBlock: AJUNOK_clean_linker_0, # of connection points: 2
#     Edge 93, Type (0, 0), BuildingBlock: AJUNOK_clean_linker_0, # of connection points: 2
#     Edge 94, Type (0, 0), BuildingBlock: AJUNOK_clean_linker_0, # of connection points: 2
#     Edge 95, Type (0, 0), BuildingBlock: AJUNOK_clean_linker_0, # of connection points: 2
#     Edge 96, Type (0, 0), BuildingBlock: AJUNOK_clean_linker_0, # of connection points: 2
#     Edge 97, Type (0, 0), BuildingBlock: AJUNOK_clean_linker_0, # of connection points: 2
#     Edge 98, Type (0, 0), BuildingBlock: AJUNOK_clean_linker_0, # of connection points: 2
#     Edge 99, Type (0, 0), BuildingBlock: AJUNOK_clean_linker_0, # of connection points: 2
#     Edge 100, Type (0, 0), BuildingBlock: AJUNOK_clean_linker_0, # of connection points: 2
#     Edge 101, Type (0, 0), BuildingBlock: AJUNOK_clean_linker_0, # of connection points: 2
#     Edge 102, Type (0, 0), BuildingBlock: AJUNOK_clean_linker_0, # of connection points: 2
#     Edge 103, Type (0, 0), BuildingBlock: AJUNOK_clean_linker_0, # of connection points: 2
#     Edge 104, Type (0, 0), BuildingBlock: AJUNOK_clean_linker_0, # of connection points: 2
#     Edge 105, Type (0, 0), BuildingBlock: AJUNOK_clean_linker_0, # of connection points: 2
#     Edge 106, Type (0, 0), BuildingBlock: AJUNOK_clean_linker_0, # of connection points: 2
#     Edge 107, Type (0, 0), BuildingBlock: AJUNOK_clean_linker_0, # of connection points: 2
# Relax obj value: 0.049
# Max RMSD: 0.075
# Mean RMSD: 0.075
data_MOF--net-cha--node1-QUQFOY_clean_sbu_1--edge1-AJUNOK_clean_linker_0
_symmetry_space_group_name_H-M    P1
_symmetry_Int_Tables_number       1
_symmetry_cell_setting            triclinic
loop_
_symmetry_equiv_pos_as_xyz
'x, y, z'
_cell_length_a     47.643557
_cell_length_b     47.644076
_cell_length_c     61.409229
_cell_angle_alpha  89.983329
_cell_angle_beta   90.004447
_cell_angle_gamma 119.98802
loop_
_atom_site_label
_atom_site_type_symbol
_atom_site_fract_x
_atom_site_fract_y
_atom_site_fract_z
_atom_type_partial_charge
O0 O 0.04336 0.27745 0.07361 0.0
Cd1 Cd 0.0387 0.25802 0.10438 0.0
Cd2 Cd 0.00774 0.29303 0.10878 0.0
O3 O 0.0246 0.31106 0.07779 0.0
O4 O 0.06346 0.23476 0.10076 0.0
O5 O 0.07886 0.27549 0.12355 0.0
C6 C 0.08432 0.25413 0.11467 0.0
C7 C 0.01805 0.32235 0.14106 0.0
C8 C 0.03756 0.29879 0.06587 0.0
C9 C 0.96697 0.22107 0.11318 0.0
O10 O 0.96728 0.24763 0.11023 0.0
O11 O 0.99335 0.22045 0.11309 0.0
O12 O 0.9983 0.32236 0.12663 0.0
O13 O 0.034 0.30779 0.13623 0.0
O14 O 0.78744 0.79358 0.07266 0.0
Cd15 Cd 0.8085 0.81184 0.10261 0.0
Cd16 Cd 0.77704 0.74556 0.10981 0.0
O17 O 0.75892 0.74085 0.07852 0.0
O18 O 0.82964 0.85924 0.09658 0.0
O19 O 0.79101 0.83532 0.12099 0.0
C20 C 0.81085 0.8614 0.11066 0.0
C21 C 0.74629 0.72519 0.14149 0.0
C22 C 0.76828 0.76503 0.06585 0.0
C23 C 0.8495 0.78139 0.11314 0.0
O24 O 0.82372 0.75397 0.11209 0.0
O25 O 0.84817 0.80729 0.11121 0.0
O26 O 0.74919 0.70633 0.1277 0.0
O27 O 0.75914 0.75552 0.13646 0.0
O28 O 0.28261 0.03102 0.07012 0.0
Cd29 Cd 0.26267 0.02943 0.10036 0.0
Cd30 Cd 0.32792 0.06069 0.11011 0.0
O31 O 0.33391 0.04889 0.07858 0.0
O32 O 0.21539 0.00361 0.09378 0.0
O33 O 0.23906 0.98679 0.11695 0.0
C34 C 0.21306 0.98149 0.1069 0.0
C35 C 0.34903 0.05077 0.14167 0.0
C36 C 0.31119 0.03836 0.0646 0.0
C37 C 0.29388 0.09909 0.11447 0.0
O38 O 0.32081 0.09978 0.11302 0.0
O39 O 0.26748 0.07256 0.11173 0.0
O40 O 0.36753 0.0723 0.12766 0.0
O41 O 0.31862 0.0331 0.13694 0.0
O42 O 0.28736 0.04333 0.96514 0.0
Cd43 Cd 0.2645 0.03907 0.93563 0.0
Cd44 Cd 0.29607 0.00457 0.92753 0.0
O45 O 0.31504 0.01836 0.95862 0.0
O46 O 0.24295 0.065 0.94149 0.0
O47 O 0.28049 0.07898 0.91632 0.0
C48 C 0.26065 0.08519 0.92668 0.0
C49 C 0.3257 0.01491 0.89528 0.0
C50 C 0.30673 0.0339 0.97144 0.0
C51 C 0.22365 0.96723 0.92565 0.0
O52 O 0.24962 0.96588 0.92587 0.0
O53 O 0.22479 0.9943 0.928 0.0
O54 O 0.32364 0.99347 0.90907 0.0
O55 O 0.31273 0.03217 0.90064 0.0
O56 O 0.03739 0.27526 0.96488 0.0
Cd57 Cd 0.0322 0.25747 0.93357 0.0
Cd58 Cd 0.06094 0.32217 0.9269 0.0
O59 O 0.04768 0.32517 0.95872 0.0
O60 O 0.00699 0.20979 0.93895 0.0
O61 O 0.98789 0.23484 0.91901 0.0
C62 C 0.98352 0.20826 0.92767 0.0
C63 C 0.05136 0.34434 0.89578 0.0
C64 C 0.04189 0.3023 0.9719 0.0
C65 C 0.10076 0.29029 0.91922 0.0
O66 O 0.10097 0.31643 0.92372 0.0
O67 O 0.07422 0.26347 0.91955 0.0
O68 O 0.07197 0.36249 0.91037 0.0
O69 O 0.03418 0.31362 0.89978 0.0
O70 O 0.79406 0.7908 0.96723 0.0
Cd71 Cd 0.81383 0.80903 0.93701 0.0
Cd72 Cd 0.74935 0.77464 0.92728 0.0
O73 O 0.74343 0.75552 0.95844 0.0
O74 O 0.86112 0.8297 0.94317 0.0
O75 O 0.83642 0.78937 0.91999 0.0
C76 C 0.86275 0.8097 0.92988 0.0
C77 C 0.7292 0.74469 0.89526 0.0
C78 C 0.76585 0.76853 0.97257 0.0
C79 C 0.78263 0.84733 0.92381 0.0
O80 O 0.7559 0.82081 0.92513 0.0
O81 O 0.80926 0.84761 0.92623 0.0
O82 O 0.7102 0.74684 0.9093 0.0
O83 O 0.75954 0.75759 0.90027 0.0
O84 O 0.02741 0.78064 0.96675 0.0
Cd85 Cd 0.03015 0.80304 0.93732 0.0
Cd86 Cd 0.06513 0.77179 0.92831 0.0
O87 O 0.05257 0.75332 0.95963 0.0
O88 O 0.00441 0.82441 0.94432 0.0
O89 O 0.98923 0.78689 0.91906 0.0
C90 C 0.98342 0.80658 0.92995 0.0
C91 C 0.05532 0.74119 0.89655 0.0
C92 C 0.0375 0.76171 0.97281 0.0
C93 C 0.10155 0.84432 0.92613 0.0
O94 O 0.10323 0.81853 0.92617 0.0
O95 O 0.07442 0.84291 0.92898 0.0
O96 O 0.07715 0.74442 0.91039 0.0
O97 O 0.03755 0.75376 0.90147 0.0
O98 O 0.26813 0.26783 0.9631 0.0
Cd99 Cd 0.25625 0.25342 0.93111 0.0
Cd100 Cd 0.29264 0.31765 0.92757 0.0
O101 O 0.30803 0.31809 0.95933 0.0
O102 O 0.23319 0.20535 0.93445 0.0
O103 O 0.27825 0.23186 0.91556 0.0
C104 C 0.25566 0.20467 0.92325 0.0
C105 C 0.32358 0.33638 0.89595 0.0
C106 C 0.29042 0.29392 0.97147 0.0
C107 C 0.22175 0.28842 0.91881 0.0
O108 O 0.24769 0.31379 0.92447 0.0
O109 O 0.22102 0.2614 0.9178 0.0
O110 O 0.32346 0.35628 0.9102 0.0
O111 O 0.30844 0.30584 0.90077 0.0
O112 O 0.79053 0.03891 0.96755 0.0
Cd113 Cd 0.81121 0.03878 0.93791 0.0
Cd114 Cd 0.74612 0.00637 0.92723 0.0
O115 O 0.73886 0.01735 0.95856 0.0
O116 O 0.85841 0.06554 0.94451 0.0
O117 O 0.83443 0.08031 0.92013 0.0
C118 C 0.8605 0.08659 0.93051 0.0
C119 C 0.72541 0.0164 0.89562 0.0
C120 C 0.76138 0.02995 0.97263 0.0
C121 C 0.78097 0.96865 0.92438 0.0
O122 O 0.75392 0.96783 0.92439 0.0
O123 O 0.80702 0.99513 0.92813 0.0
O124 O 0.7068 0.99443 0.90936 0.0
O125 O 0.75563 0.03446 0.90073 0.0
O126 O 0.7822 0.02487 0.07182 0.0
Cd127 Cd 0.80437 0.0285 0.10152 0.0
Cd128 Cd 0.77125 0.06162 0.10972 0.0
O129 O 0.75318 0.04841 0.07851 0.0
O130 O 0.82645 0.00313 0.09547 0.0
O131 O 0.78816 0.98798 0.1202 0.0
C132 C 0.80833 0.98226 0.10983 0.0
C133 C 0.74063 0.05188 0.1413 0.0
C134 C 0.76242 0.03381 0.06557 0.0
C135 C 0.84355 0.10002 0.11261 0.0
O136 O 0.81724 0.10064 0.11194 0.0
O137 O 0.84331 0.07338 0.11007 0.0
O138 O 0.74312 0.07305 0.12715 0.0
O139 O 0.75378 0.03452 0.13671 0.0
O140 O 0.04185 0.78884 0.07076 0.0
Cd141 Cd 0.04215 0.81009 0.10021 0.0
Cd142 Cd 0.00821 0.74468 0.11116 0.0
O143 O 0.02006 0.73724 0.07999 0.0
O144 O 0.06904 0.85701 0.09285 0.0
O145 O 0.084 0.83378 0.11764 0.0
C146 C 0.09029 0.85948 0.1068 0.0
C147 C 0.01632 0.72282 0.14308 0.0
C148 C 0.03287 0.75965 0.06583 0.0
C149 C 0.97186 0.78119 0.11294 0.0
O150 O 0.97028 0.75375 0.11304 0.0
O151 O 0.99887 0.80686 0.1097 0.0
O152 O 0.99465 0.70486 0.12898 0.0
O153 O 0.03494 0.75311 0.13836 0.0
O154 O 0.26735 0.26955 0.07517 0.0
Cd155 Cd 0.25421 0.25447 0.10691 0.0
Cd156 Cd 0.31966 0.29073 0.10965 0.0
O157 O 0.31901 0.30617 0.07805 0.0
O158 O 0.20605 0.23079 0.10409 0.0
O159 O 0.23219 0.27424 0.12454 0.0
C160 C 0.20507 0.25196 0.11656 0.0
C161 C 0.34065 0.3229 0.14067 0.0
C162 C 0.29364 0.29093 0.06645 0.0
C163 C 0.28992 0.21922 0.1168 0.0
O164 O 0.31557 0.24566 0.11235 0.0
O165 O 0.26275 0.2182 0.11754 0.0
O166 O 0.35946 0.32178 0.12596 0.0
O167 O 0.3098 0.30754 0.13687 0.0
O168 O 0.70776 0.61124 0.40777 0.0
Cd169 Cd 0.70403 0.59411 0.43919 0.0
Cd170 Cd 0.67161 0.62756 0.44156 0.0
O171 O 0.68874 0.6448 0.41052 0.0
O172 O 0.72855 0.5705 0.43615 0.0
O173 O 0.74493 0.61262 0.45776 0.0
C174 C 0.74997 0.59066 0.44945 0.0
C175 C 0.68238 0.65692 0.47378 0.0
C176 C 0.70173 0.63196 0.3992 0.0
C177 C 0.63213 0.55623 0.44772 0.0
O178 O 0.63151 0.58194 0.44319 0.0
O179 O 0.6591 0.55687 0.44894 0.0
O180 O 0.66258 0.65709 0.45944 0.0
O181 O 0.69817 0.64222 0.46882 0.0
O182 O 0.45964 0.13362 0.40911 0.0
Cd183 Cd 0.47623 0.14777 0.44049 0.0
Cd184 Cd 0.44313 0.08183 0.44343 0.0
O185 O 0.42599 0.08117 0.41221 0.0
O186 O 0.49951 0.19577 0.43685 0.0
O187 O 0.45733 0.17041 0.45848 0.0
C188 C 0.47935 0.19725 0.45002 0.0
C189 C 0.41281 0.06088 0.4752 0.0
C190 C 0.43922 0.10669 0.40059 0.0
C191 C 0.51504 0.11507 0.44914 0.0
O192 O 0.48929 0.08849 0.44512 0.0
O193 O 0.51417 0.14127 0.4502 0.0
O194 O 0.41416 0.04208 0.46058 0.0
O195 O 0.42671 0.09153 0.47087 0.0
O196 O 0.94718 0.3608 0.40438 0.0
Cd197 Cd 0.92751 0.36193 0.43428 0.0
Cd198 Cd 0.99386 0.39669 0.44341 0.0
O199 O 0.9996 0.38517 0.41181 0.0
O200 O 0.8803 0.33712 0.42741 0.0
O201 O 0.9024 0.32011 0.45167 0.0
C202 C 0.87685 0.31547 0.44133 0.0
C203 C 0.01478 0.38618 0.47478 0.0
C204 C 0.97625 0.37084 0.39846 0.0
C205 C 0.95786 0.43281 0.44744 0.0
O206 O 0.98542 0.43478 0.44657 0.0
O207 O 0.93221 0.40572 0.44434 0.0
O208 O 0.03334 0.40824 0.46106 0.0
O209 O 0.98444 0.36845 0.46986 0.0
O210 O 0.95418 0.37654 0.29942 0.0
Cd211 Cd 0.93183 0.37375 0.2699 0.0
Cd212 Cd 0.96211 0.33808 0.26063 0.0
O213 O 0.98035 0.35026 0.29199 0.0
O214 O 0.91122 0.40046 0.27602 0.0
O215 O 0.94869 0.414 0.25084 0.0
C216 C 0.92913 0.42057 0.26123 0.0
C217 C 0.99267 0.34647 0.22901 0.0
C218 C 0.9726 0.36573 0.30528 0.0
C219 C 0.88963 0.30242 0.25883 0.0
O220 O 0.91524 0.30043 0.25847 0.0
O221 O 0.89142 0.32965 0.26196 0.0
O222 O 0.98887 0.32479 0.24314 0.0
O223 O 0.98078 0.36496 0.23357 0.0
O224 O 0.70093 0.60532 0.29788 0.0
Cd225 Cd 0.69658 0.58827 0.26638 0.0
Cd226 Cd 0.726 0.6528 0.26035 0.0
O227 O 0.71188 0.65549 0.29193 0.0
O228 O 0.67085 0.54039 0.27088 0.0
O229 O 0.65287 0.56652 0.25101 0.0
C230 C 0.648 0.5395 0.25921 0.0
C231 C 0.71674 0.6745 0.22893 0.0
C232 C 0.70555 0.63237 0.30501 0.0
C233 C 0.76567 0.6209 0.25308 0.0
O234 O 0.76609 0.64709 0.25778 0.0
O235 O 0.73892 0.5943 0.25285 0.0
O236 O 0.73702 0.6929 0.24361 0.0
O237 O 0.69968 0.64379 0.23301 0.0
O238 O 0.46292 0.13203 0.29789 0.0
Cd239 Cd 0.47867 0.14409 0.26613 0.0
Cd240 Cd 0.41438 0.10712 0.26148 0.0
O241 O 0.41308 0.09159 0.29332 0.0
O242 O 0.52652 0.16862 0.27061 0.0
O243 O 0.50246 0.1236 0.25151 0.0
C244 C 0.52885 0.14697 0.25957 0.0
C245 C 0.39633 0.07587 0.22993 0.0
C246 C 0.43665 0.10941 0.30582 0.0
C247 C 0.44349 0.17798 0.25265 0.0
O248 O 0.41801 0.15198 0.25809 0.0
O249 O 0.47058 0.17882 0.25214 0.0
O250 O 0.37614 0.0761 0.24389 0.0
O251 O 0.42678 0.09119 0.23499 0.0
O252 O 0.69326 0.11724 0.3007 0.0
Cd253 Cd 0.69545 0.13979 0.27137 0.0
Cd254 Cd 0.72932 0.10839 0.26103 0.0
O255 O 0.71805 0.08993 0.29226 0.0
O256 O 0.66979 0.16133 0.2781 0.0
O257 O 0.65473 0.12367 0.25289 0.0
C258 C 0.64923 0.14388 0.2634 0.0
C259 C 0.71849 0.078 0.2292 0.0
C260 C 0.7035 0.09813 0.30599 0.0
C261 C 0.76651 0.18075 0.25927 0.0
O262 O 0.76777 0.15477 0.25861 0.0
O263 O 0.7397 0.17964 0.26294 0.0
O264 O 0.74062 0.08098 0.24267 0.0
O265 O 0.70083 0.09047 0.23467 0.0
O266 O 0.93711 0.60321 0.29716 0.0
Cd267 Cd 0.92546 0.58923 0.26508 0.0
Cd268 Cd 0.95926 0.65413 0.26248 0.0
O269 O 0.97447 0.65466 0.2943 0.0
O270 O 0.90255 0.54121 0.26863 0.0
O271 O 0.94741 0.56753 0.24955 0.0
C272 C 0.9249 0.54042 0.25739 0.0
C273 C 0.99045 0.67355 0.23101 0.0
C274 C 0.95802 0.62962 0.306 0.0
C275 C 0.88834 0.62205 0.25331 0.0
O276 O 0.91343 0.64808 0.25925 0.0
O277 O 0.88932 0.59594 0.25193 0.0
O278 O 0.98938 0.69313 0.24512 0.0
O279 O 0.97605 0.64304 0.23587 0.0
O280 O 0.46043 0.36501 0.2964 0.0
Cd281 Cd 0.47657 0.36869 0.26474 0.0
Cd282 Cd 0.41201 0.34025 0.25973 0.0
O283 O 0.41039 0.35486 0.29142 0.0
O284 O 0.52451 0.3937 0.26907 0.0
O285 O 0.49882 0.41263 0.24964 0.0
C286 C 0.5257 0.41701 0.25778 0.0
C287 C 0.39162 0.35072 0.22812 0.0
C288 C 0.43391 0.36103 0.3041 0.0
C289 C 0.44259 0.29949 0.25178 0.0
O290 O 0.41685 0.29966 0.25695 0.0
O291 O 0.46948 0.32596 0.2512 0.0
O292 O 0.37255 0.33056 0.24264 0.0
O293 O 0.42223 0.36718 0.23261 0.0
O294 O 0.45529 0.35991 0.40764 0.0
Cd295 Cd 0.47146 0.36259 0.43923 0.0
Cd296 Cd 0.43806 0.39526 0.44147 0.0
O297 O 0.42138 0.37847 0.41025 0.0
O298 O 0.49611 0.33918 0.43583 0.0
O299 O 0.45355 0.3211 0.45722 0.0
C300 C 0.47635 0.31728 0.44901 0.0
C301 C 0.40776 0.38512 0.47325 0.0
C302 C 0.4349 0.36626 0.39886 0.0
C303 C 0.50939 0.43433 0.44807 0.0
O304 O 0.48386 0.43519 0.44332 0.0
O305 O 0.50846 0.40726 0.44942 0.0
O306 O 0.4084 0.40499 0.45865 0.0
O307 O 0.42239 0.36906 0.4689 0.0
O308 O 0.70968 0.12407 0.40488 0.0
Cd309 Cd 0.70765 0.1437 0.43456 0.0
Cd310 Cd 0.67307 0.07779 0.4434 0.0
O311 O 0.68497 0.07161 0.41213 0.0
O312 O 0.73286 0.19088 0.42769 0.0
O313 O 0.74915 0.16856 0.45229 0.0
C314 C 0.75425 0.19414 0.44176 0.0
C315 C 0.68414 0.05874 0.47531 0.0
C316 C 0.69973 0.09505 0.39892 0.0
C317 C 0.63643 0.11322 0.4467 0.0
O318 O 0.63471 0.08577 0.44597 0.0
O319 O 0.66353 0.139 0.44392 0.0
O320 O 0.66222 0.03928 0.46182 0.0
O321 O 0.70158 0.08885 0.46973 0.0
O322 O 0.93295 0.60457 0.40982 0.0
Cd323 Cd 0.91948 0.58994 0.4416 0.0
Cd324 Cd 0.98481 0.6245 0.44422 0.0
O325 O 0.98474 0.64077 0.4128 0.0
O326 O 0.87135 0.56691 0.4386 0.0
O327 O 0.8978 0.61027 0.45906 0.0
C328 C 0.8706 0.58821 0.45105 0.0
C329 C 0.0063 0.65585 0.47554 0.0
C330 C 0.95941 0.62567 0.40113 0.0
C331 C 0.95333 0.55276 0.45085 0.0
O332 O 0.97938 0.57878 0.44626 0.0
O333 O 0.92678 0.55289 0.45223 0.0
O334 O 0.02486 0.65448 0.46074 0.0
O335 O 0.97546 0.6412 0.47171 0.0
O336 O 0.36492 0.93663 0.73997 0.0
Cd337 Cd 0.36838 0.92518 0.77192 0.0
Cd338 Cd 0.34044 0.96175 0.77564 0.0
O339 O 0.35513 0.97692 0.74379 0.0
O340 O 0.39258 0.90137 0.76805 0.0
O341 O 0.41246 0.94665 0.7868 0.0
C342 C 0.41629 0.92364 0.77897 0.0
C343 C 0.3517 0.99315 0.80698 0.0
C344 C 0.36114 0.95895 0.73162 0.0
C345 C 0.29912 0.89093 0.78465 0.0
O346 O 0.29954 0.91671 0.77876 0.0
O347 O 0.32549 0.89036 0.78578 0.0
O348 O 0.33173 0.99242 0.79245 0.0
O349 O 0.36749 0.97823 0.80269 0.0
O350 O 0.12732 0.46712 0.74203 0.0
Cd351 Cd 0.14357 0.48129 0.77347 0.0
Cd352 Cd 0.10976 0.41574 0.77671 0.0
O353 O 0.09286 0.41491 0.74539 0.0
O354 O 0.16631 0.52933 0.77003 0.0
O355 O 0.12395 0.50321 0.79141 0.0
C356 C 0.1456 0.53027 0.78297 0.0
C357 C 0.07907 0.3957 0.80841 0.0
C358 C 0.10659 0.44024 0.73362 0.0
C359 C 0.18166 0.44807 0.78259 0.0
O360 O 0.15565 0.42167 0.77868 0.0
O361 O 0.18129 0.47455 0.78342 0.0
O362 O 0.08018 0.37646 0.79404 0.0
O363 O 0.09349 0.4263 0.80386 0.0
O364 O 0.61088 0.694 0.73649 0.0
Cd365 Cd 0.59046 0.69495 0.76603 0.0
Cd366 Cd 0.65617 0.72821 0.77645 0.0
O367 O 0.66281 0.71667 0.74505 0.0
O368 O 0.54331 0.66807 0.75938 0.0
O369 O 0.56722 0.65365 0.78403 0.0
C370 C 0.54122 0.64714 0.77348 0.0
C371 C 0.67852 0.71942 0.8078 0.0
C372 C 0.64002 0.70324 0.73122 0.0
C373 C 0.62049 0.7653 0.77911 0.0
O374 O 0.64764 0.76632 0.77921 0.0
O375 O 0.59454 0.73873 0.77536 0.0
O376 O 0.69632 0.74121 0.79372 0.0
O377 O 0.64811 0.70102 0.80334 0.0
O378 O 0.61855 0.70841 0.63246 0.0
Cd379 Cd 0.596 0.70563 0.60308 0.0
Cd380 Cd 0.62658 0.67043 0.59374 0.0
O381 O 0.64521 0.68267 0.62498 0.0
O382 O 0.57561 0.73241 0.60961 0.0
O383 O 0.61288 0.74612 0.58428 0.0
C384 C 0.59363 0.75278 0.59499 0.0
C385 C 0.65701 0.67953 0.56201 0.0
C386 C 0.63728 0.69796 0.63828 0.0
C387 C 0.55403 0.63435 0.59209 0.0
O388 O 0.57977 0.63259 0.59173 0.0
O389 O 0.55561 0.66151 0.59516 0.0
O390 O 0.65347 0.6577 0.57594 0.0
O391 O 0.64485 0.6977 0.56681 0.0
O392 O 0.35932 0.93337 0.62813 0.0
Cd393 Cd 0.36139 0.91947 0.59659 0.0
Cd394 Cd 0.39352 0.98543 0.59371 0.0
O395 O 0.37689 0.98559 0.62498 0.0
O396 O 0.33694 0.87137 0.59987 0.0
O397 O 0.31972 0.89692 0.57874 0.0
C398 C 0.31516 0.86998 0.58687 0.0
C399 C 0.38512 0.00787 0.56232 0.0
C400 C 0.36539 0.96016 0.63666 0.0
C401 C 0.43281 0.9529 0.58772 0.0
O402 O 0.4333 0.97925 0.59201 0.0
O403 O 0.40591 0.92655 0.5865 0.0
O404 O 0.40482 0.02595 0.57737 0.0
O405 O 0.36828 0.97701 0.56593 0.0
O406 O 0.129 0.46351 0.63044 0.0
Cd407 Cd 0.14385 0.47475 0.59846 0.0
Cd408 Cd 0.07971 0.43936 0.59488 0.0
O409 O 0.07873 0.42366 0.6266 0.0
O410 O 0.19183 0.49801 0.60233 0.0
O411 O 0.16598 0.4528 0.58356 0.0
C412 C 0.19293 0.47557 0.5914 0.0
C413 C 0.06159 0.40871 0.56313 0.0
C414 C 0.10279 0.44136 0.63877 0.0
C415 C 0.10993 0.51016 0.58592 0.0
O416 O 0.0843 0.48467 0.5919 0.0
O417 O 0.13647 0.51001 0.5846 0.0
O418 O 0.04142 0.4089 0.57714 0.0
O419 O 0.09201 0.42368 0.56826 0.0
O420 O 0.35796 0.44735 0.63343 0.0
Cd421 Cd 0.36043 0.47006 0.60412 0.0
Cd422 Cd 0.39505 0.43952 0.59393 0.0
O423 O 0.38332 0.42056 0.62513 0.0
O424 O 0.33342 0.49027 0.61045 0.0
O425 O 0.32017 0.45309 0.5851 0.0
C426 C 0.31338 0.47238 0.59563 0.0
C427 C 0.38515 0.41004 0.56166 0.0
C428 C 0.36839 0.42842 0.6388 0.0
C429 C 0.43152 0.51199 0.59261 0.0
O430 O 0.43313 0.48619 0.59194 0.0
O431 O 0.40448 0.51049 0.59608 0.0
O432 O 0.40706 0.41283 0.57527 0.0
O433 O 0.36712 0.42205 0.56723 0.0
O434 O 0.61796 0.94318 0.63193 0.0
Cd435 Cd 0.5972 0.92508 0.60182 0.0
Cd436 Cd 0.62851 0.99145 0.59476 0.0
O437 O 0.64572 0.99602 0.6262 0.0
O438 O 0.57534 0.87768 0.60791 0.0
O439 O 0.61448 0.90109 0.58379 0.0
C440 C 0.59413 0.87513 0.59403 0.0
C441 C 0.65993 0.01192 0.56349 0.0
C442 C 0.63676 0.9718 0.63875 0.0
C443 C 0.55655 0.95583 0.59027 0.0
O444 O 0.58212 0.98332 0.5918 0.0
O445 O 0.55798 0.93002 0.59241 0.0
O446 O 0.6569 0.03076 0.57722 0.0
O447 O 0.64677 0.98149 0.56836 0.0
O448 O 0.13058 0.70321 0.62839 0.0
Cd449 Cd 0.1434 0.70269 0.59626 0.0
Cd450 Cd 0.07783 0.67143 0.59452 0.0
O451 O 0.07867 0.68751 0.62612 0.0
O452 O 0.19158 0.72616 0.59893 0.0
O453 O 0.16619 0.74526 0.57938 0.0
C454 C 0.19313 0.74882 0.58676 0.0
C455 C 0.05758 0.68222 0.56302 0.0
C456 C 0.10428 0.69765 0.63748 0.0
C457 C 0.10887 0.63171 0.58587 0.0
O458 O 0.08304 0.63116 0.59179 0.0
O459 O 0.13514 0.65863 0.58425 0.0
O460 O 0.03838 0.66233 0.57762 0.0
O461 O 0.08826 0.69821 0.56738 0.0
O462 O 0.13018 0.69966 0.74133 0.0
Cd463 Cd 0.1427 0.69884 0.77348 0.0
Cd464 Cd 0.10662 0.72725 0.77616 0.0
O465 O 0.09116 0.71141 0.74453 0.0
O466 O 0.16659 0.67453 0.77098 0.0
O467 O 0.12168 0.65606 0.79002 0.0
C468 C 0.14468 0.6518 0.78274 0.0
C469 C 0.07642 0.71522 0.8081 0.0
C470 C 0.1082 0.70372 0.73268 0.0
C471 C 0.17725 0.76901 0.78472 0.0
O472 O 0.15141 0.76848 0.77886 0.0
O473 O 0.17782 0.74267 0.78613 0.0
O474 O 0.07581 0.73479 0.79377 0.0
O475 O 0.09177 0.70007 0.80316 0.0
O476 O 0.37424 0.45353 0.73775 0.0
Cd477 Cd 0.37286 0.4736 0.76739 0.0
Cd478 Cd 0.33741 0.40711 0.77672 0.0
O479 O 0.34883 0.40107 0.74514 0.0
O480 O 0.39863 0.52068 0.76023 0.0
O481 O 0.41449 0.49824 0.785 0.0
C482 C 0.42006 0.52377 0.77422 0.0
C483 C 0.34695 0.38523 0.80803 0.0
C484 C 0.36376 0.42439 0.73184 0.0
C485 C 0.30193 0.44401 0.78014 0.0
O486 O 0.29983 0.41636 0.77971 0.0
O487 O 0.3291 0.46952 0.77691 0.0
O488 O 0.32484 0.36721 0.79419 0.0
O489 O 0.36521 0.41559 0.80332 0.0
O490 O 0.60775 0.94675 0.73693 0.0
Cd491 Cd 0.58782 0.92593 0.76669 0.0
Cd492 Cd 0.65279 0.95936 0.77717 0.0
O493 O 0.65934 0.97758 0.74584 0.0
O494 O 0.54041 0.90545 0.76091 0.0
O495 O 0.56531 0.94437 0.78507 0.0
C496 C 0.53886 0.92449 0.77509 0.0
C497 C 0.67463 0.9908 0.80841 0.0
C498 C 0.63675 0.96736 0.73181 0.0
C499 C 0.61881 0.88666 0.77971 0.0
O500 O 0.64561 0.91317 0.77988 0.0
O501 O 0.59253 0.88663 0.77602 0.0
O502 O 0.69274 0.98722 0.79437 0.0
O503 O 0.64413 0.97811 0.80398 0.0
C504 C 0.11618 0.22588 0.111 0.0
C505 C 0.11431 0.25265 0.11881 0.0
C506 C 0.14524 0.22533 0.1115 0.0
C507 C 0.17391 0.25157 0.11979 0.0
H508 H 0.09521 0.20544 0.10372 0.0
H509 H 0.14536 0.20448 0.10456 0.0
S510 S 0.18148 0.32626 0.14434 0.0
N511 N 0.14314 0.30511 0.13676 0.0
N512 N 0.198 0.30414 0.13765 0.0
C513 C 0.17207 0.27777 0.12885 0.0
C514 C 0.14224 0.27829 0.12838 0.0
C515 C 0.83493 0.94948 0.10274 0.0
C516 C 0.80999 0.95216 0.11303 0.0
C517 C 0.83556 0.92046 0.10297 0.0
C518 C 0.81127 0.89263 0.11348 0.0
H519 H 0.85386 0.96978 0.09386 0.0
H520 H 0.85494 0.91971 0.09424 0.0
S521 S 0.74185 0.8873 0.14447 0.0
N522 N 0.76134 0.92493 0.13531 0.0
N523 N 0.76252 0.87016 0.13572 0.0
C524 C 0.78694 0.89526 0.12477 0.0
C525 C 0.78631 0.92504 0.12455 0.0
C526 C 0.12477 0.91828 0.09827 0.0
C527 C 0.1212 0.89073 0.10922 0.0
C528 C 0.15421 0.94754 0.0983 0.0
C529 C 0.18162 0.95074 0.10924 0.0
H530 H 0.10479 0.91722 0.08917 0.0
H531 H 0.15553 0.96765 0.0892 0.0
S532 S 0.18481 0.88657 0.14164 0.0
N533 N 0.1473 0.86895 0.13229 0.0
N534 N 0.20285 0.92411 0.13232 0.0
C535 C 0.17821 0.92377 0.12095 0.0
C536 C 0.148 0.89377 0.12095 0.0
C537 C 0.23242 0.11686 0.9316 0.0
C538 C 0.25867 0.11495 0.92279 0.0
C539 C 0.23115 0.14553 0.93069 0.0
C540 C 0.25618 0.17382 0.92105 0.0
H541 H 0.21287 0.09619 0.9398 0.0
H542 H 0.2107 0.14566 0.9383 0.0
S543 S 0.3292 0.1811 0.89392 0.0
N544 N 0.30939 0.14329 0.90274 0.0
N545 N 0.30715 0.19747 0.90115 0.0
C546 C 0.28194 0.17194 0.91124 0.0
C547 C 0.28314 0.14248 0.91208 0.0
C548 C 0.94944 0.14947 0.93648 0.0
C549 C 0.95232 0.17709 0.92602 0.0
C550 C 0.91993 0.12032 0.9372 0.0
C551 C 0.89181 0.11723 0.92742 0.0
H552 H 0.97001 0.15043 0.9447 0.0
H553 H 0.91915 0.10015 0.94589 0.0
S554 S 0.8865 0.1815 0.89663 0.0
N555 N 0.92467 0.19901 0.90466 0.0
N556 N 0.86905 0.14397 0.90593 0.0
C557 C 0.89446 0.14422 0.91616 0.0
C558 C 0.9247 0.17417 0.91549 0.0
C559 C 0.92162 0.83357 0.93795 0.0
C560 C 0.89376 0.80962 0.92727 0.0
C561 C 0.95059 0.83284 0.93794 0.0
C562 C 0.9532 0.80815 0.92723 0.0
H563 H 0.92098 0.85283 0.94692 0.0
H564 H 0.97093 0.85156 0.9469 0.0
S565 S 0.8882 0.74081 0.89536 0.0
N566 N 0.87115 0.76134 0.90454 0.0
N567 N 0.92584 0.76 0.90452 0.0
C568 C 0.92601 0.78472 0.91565 0.0
C569 C 0.89628 0.78544 0.91568 0.0
C570 C 0.78166 0.56219 0.44611 0.0
C571 C 0.78005 0.5893 0.4535 0.0
C572 C 0.8107 0.56159 0.44652 0.0
C573 C 0.83959 0.58808 0.45432 0.0
H574 H 0.7605 0.5415 0.43924 0.0
H575 H 0.8106 0.54045 0.43994 0.0
S576 S 0.84795 0.66379 0.47762 0.0
N577 N 0.80942 0.64244 0.47051 0.0
N578 N 0.86423 0.64134 0.47125 0.0
C579 C 0.83805 0.61467 0.46296 0.0
C580 C 0.80825 0.61527 0.46256 0.0
C581 C 0.45143 0.25847 0.45935 0.0
C582 C 0.47881 0.28784 0.45306 0.0
C583 C 0.45217 0.2293 0.45964 0.0
C584 C 0.48033 0.22855 0.45364 0.0
H585 H 0.42879 0.25768 0.46298 0.0
H586 H 0.43008 0.207 0.46345 0.0
S587 S 0.5601 0.29976 0.43978 0.0
N588 N 0.536 0.31492 0.44354 0.0
N589 N 0.53739 0.26043 0.44406 0.0
C590 C 0.50846 0.25814 0.44891 0.0
C591 C 0.50771 0.28769 0.44862 0.0
C592 C 0.84246 0.25717 0.45279 0.0
C593 C 0.8448 0.2857 0.44422 0.0
C594 C 0.81274 0.22779 0.45293 0.0
C595 C 0.78436 0.22593 0.44451 0.0
H596 H 0.86394 0.25719 0.45859 0.0
H597 H 0.81234 0.20616 0.45882 0.0
S598 S 0.77654 0.2948 0.42347 0.0
N599 N 0.81533 0.3109 0.42945 0.0
N600 N 0.75987 0.25604 0.42971 0.0
C601 C 0.78607 0.25472 0.43715 0.0
C602 C 0.81618 0.2845 0.43701 0.0
C603 C 0.90117 0.45252 0.26584 0.0
C604 C 0.92749 0.4505 0.25729 0.0
C605 C 0.90006 0.48127 0.2648 0.0
C606 C 0.92533 0.50951 0.25529 0.0
H607 H 0.8814 0.43187 0.2739 0.0
H608 H 0.87952 0.48147 0.27218 0.0
S609 S 0.9987 0.51652 0.22889 0.0
N610 N 0.97859 0.47869 0.23766 0.0
N611 N 0.97666 0.53303 0.23582 0.0
C612 C 0.9512 0.50754 0.24575 0.0
C613 C 0.95223 0.47799 0.24672 0.0
C614 C 0.61458 0.4797 0.26463 0.0
C615 C 0.61701 0.50841 0.25639 0.0
C616 C 0.58527 0.45031 0.26423 0.0
C617 C 0.55687 0.4481 0.25559 0.0
H618 H 0.63538 0.47991 0.27192 0.0
H619 H 0.58485 0.42925 0.27126 0.0
S620 S 0.5504 0.51562 0.23058 0.0
N621 N 0.58868 0.53245 0.23824 0.0
N622 N 0.53341 0.47703 0.23751 0.0
C623 C 0.55909 0.47631 0.24652 0.0
C624 C 0.58915 0.50645 0.24692 0.0
C625 C 0.56203 0.12068 0.25058 0.0
C626 C 0.56051 0.14801 0.25772 0.0
C627 C 0.59117 0.11992 0.25147 0.0
C628 C 0.61977 0.14638 0.25967 0.0
H629 H 0.54032 0.09925 0.24502 0.0
H630 H 0.59093 0.09795 0.2466 0.0
S631 S 0.62997 0.22545 0.27739 0.0
N632 N 0.59125 0.20351 0.271 0.0
N633 N 0.64554 0.20189 0.27283 0.0
C634 C 0.61896 0.17445 0.26569 0.0
C635 C 0.58949 0.17532 0.26468 0.0
C636 C 0.44956 0.8977 0.77127 0.0
C637 C 0.44731 0.92336 0.78082 0.0
C638 C 0.47902 0.89797 0.77025 0.0
C639 C 0.50769 0.92383 0.77882 0.0
H640 H 0.42853 0.87745 0.7639 0.0
H641 H 0.47933 0.8779 0.7622 0.0
S642 S 0.51477 0.99592 0.80715 0.0
N643 N 0.47616 0.97464 0.80023 0.0
N644 N 0.53167 0.97503 0.79841 0.0
C645 C 0.50567 0.94903 0.78934 0.0
C646 C 0.47549 0.94883 0.7903 0.0
C647 C 0.1727 0.59026 0.77888 0.0
C648 C 0.14597 0.56135 0.78643 0.0
C649 C 0.17246 0.61948 0.77879 0.0
C650 C 0.14544 0.62126 0.78621 0.0
H651 H 0.19379 0.59024 0.7723 0.0
H652 H 0.19339 0.64067 0.77215 0.0
S653 S 0.07034 0.55326 0.80968 0.0
N654 N 0.09256 0.53679 0.80312 0.0
N655 N 0.09207 0.59191 0.80293 0.0
C656 C 0.11917 0.59296 0.79495 0.0
C657 C 0.11945 0.563 0.79507 0.0
C658 C 0.45325 0.58267 0.76563 0.0
C659 C 0.45046 0.55548 0.77665 0.0
C660 C 0.48232 0.61227 0.76546 0.0
C661 C 0.51009 0.61622 0.77629 0.0
H662 H 0.43297 0.58101 0.75656 0.0
H663 H 0.48309 0.63206 0.75626 0.0
S664 S 0.51524 0.55335 0.80896 0.0
N665 N 0.47762 0.5349 0.79978 0.0
N666 N 0.53246 0.59076 0.79945 0.0
C667 C 0.50741 0.58968 0.78817 0.0
C668 C 0.47759 0.55931 0.78835 0.0
C669 C 0.5682 0.78662 0.602 0.0
C670 C 0.59281 0.78331 0.59179 0.0
C671 C 0.56829 0.816 0.60175 0.0
C672 C 0.59304 0.84359 0.59129 0.0
H673 H 0.54894 0.76652 0.61082 0.0
H674 H 0.54911 0.81721 0.6104 0.0
S675 S 0.66193 0.84731 0.56055 0.0
N676 N 0.64168 0.80968 0.56966 0.0
N677 N 0.6419 0.86516 0.56921 0.0
C678 C 0.61708 0.84034 0.58009 0.0
C679 C 0.61695 0.81018 0.58033 0.0
C680 C 0.22616 0.80819 0.57766 0.0
C681 C 0.22476 0.77875 0.58299 0.0
C682 C 0.25583 0.83764 0.57765 0.0
C683 C 0.28505 0.83861 0.58299 0.0
H684 H 0.20408 0.80877 0.57456 0.0
H685 H 0.25559 0.8599 0.57456 0.0
S686 S 0.29517 0.7676 0.59424 0.0
N687 N 0.25578 0.75204 0.59089 0.0
N688 N 0.31115 0.80705 0.59092 0.0
C689 C 0.28417 0.80906 0.58678 0.0
C690 C 0.25413 0.77922 0.58677 0.0
C691 C 0.28074 0.49955 0.60073 0.0
C692 C 0.28327 0.47374 0.59177 0.0
C693 C 0.25187 0.5004 0.59961 0.0
C694 C 0.22398 0.47536 0.5896 0.0
H695 H 0.3011 0.51913 0.60914 0.0
H696 H 0.25128 0.52057 0.60729 0.0
S697 S 0.21833 0.4033 0.5621 0.0
N698 N 0.25592 0.42335 0.5713 0.0
N699 N 0.20134 0.42479 0.56932 0.0
C700 C 0.22645 0.44998 0.57973 0.0
C701 C 0.25613 0.44921 0.58078 0.0
C702 C 1.00241 0.35212 0.16765 0.0
C703 C 0.0187 0.33483 0.16341 0.0
C704 C 0.9964 0.35817 0.18904 0.0
C705 C 0.00607 0.34681 0.20707 0.0
H706 H 0.99273 0.35965 0.15436 0.0
H707 H 0.98217 0.36992 0.19136 0.0
S708 S 0.0541 0.305 0.20506 0.0
N709 N 0.04805 0.31016 0.17925 0.0
N710 N 0.03632 0.3211 0.21934 0.0
C711 C 0.02457 0.33176 0.20312 0.0
C712 C 0.03103 0.32592 0.18133 0.0
C713 C 0.71567 0.67916 0.16744 0.0
C714 C 0.73217 0.71278 0.16342 0.0
C715 C 0.70811 0.66678 0.18871 0.0
C716 C 0.71713 0.68753 0.20686 0.0
H717 H 0.70998 0.66222 0.15414 0.0
H718 H 0.69717 0.64084 0.19095 0.0
S719 S 0.75583 0.77717 0.20514 0.0
N720 N 0.75341 0.7664 0.17935 0.0
N721 N 0.73965 0.74314 0.21927 0.0
C722 C 0.73124 0.72103 0.203 0.0
C723 C 0.73861 0.73364 0.18131 0.0
C724 C 0.34005 0.03887 0.18157 0.0
C725 C 0.36149 0.05006 0.16376 0.0
C726 C 0.3516 0.04516 0.20308 0.0
C727 C 0.38506 0.06256 0.20766 0.0
H728 H 0.31413 0.02719 0.17896 0.0
H729 H 0.33407 0.03787 0.21616 0.0
S730 S 0.45125 0.09162 0.16678 0.0
N731 N 0.41772 0.0754 0.15213 0.0
N732 N 0.43944 0.08683 0.19245 0.0
C733 C 0.40671 0.0711 0.19001 0.0
C734 C 0.39493 0.06498 0.16809 0.0
C735 C 0.355 0.99901 0.86851 0.0
C736 C 0.33894 0.01642 0.87305 0.0
C737 C 0.36168 0.99404 0.84705 0.0
C738 C 0.35222 0.00592 0.82919 0.0
H739 H 0.36103 0.98766 0.88158 0.0
H740 H 0.37231 0.97883 0.84446 0.0
S741 S 0.31444 0.05765 0.83223 0.0
N742 N 0.31765 0.04923 0.85787 0.0
N743 N 0.3298 0.03949 0.81759 0.0
C744 C 0.33857 0.0256 0.83354 0.0
C745 C 0.33206 0.03097 0.85544 0.0
C746 C 0.04852 0.34957 0.83435 0.0
C747 C 0.0654 0.38322 0.83045 0.0
C748 C 0.04148 0.33704 0.85561 0.0
C749 C 0.05137 0.35766 0.87386 0.0
H750 H 0.04215 0.33268 0.82095 0.0
H751 H 0.03022 0.31105 0.85772 0.0
S752 S 0.09127 0.44741 0.87257 0.0
N753 N 0.08789 0.4368 0.84669 0.0
N754 N 0.07507 0.41325 0.88655 0.0
C755 C 0.06585 0.39123 0.87016 0.0
C756 C 0.07272 0.404 0.84849 0.0
C757 C 0.67095 0.70835 0.84781 0.0
C758 C 0.69173 0.71901 0.82965 0.0
C759 C 0.68332 0.71475 0.86911 0.0
C760 C 0.71695 0.73165 0.8731 0.0
H761 H 0.64497 0.69698 0.84564 0.0
H762 H 0.66635 0.70783 0.88251 0.0
S763 S 0.7815 0.75959 0.8311 0.0
N764 N 0.74743 0.74362 0.81703 0.0
N765 N 0.77069 0.75517 0.85697 0.0
C766 C 0.7379 0.73978 0.85509 0.0
C767 C 0.72528 0.73362 0.83339 0.0
C768 C 0.04223 0.73728 0.85678 0.0
C769 C 0.05397 0.72751 0.87455 0.0
C770 C 0.04742 0.731 0.83525 0.0
C771 C 0.06424 0.71436 0.8306 0.0
H772 H 0.03089 0.75184 0.8594 0.0
H773 H 0.03972 0.74086 0.82216 0.0
S774 S 0.09444 0.67826 0.87148 0.0
N775 N 0.07926 0.69656 0.88616 0.0
N776 N 0.08863 0.68435 0.84581 0.0
C777 C 0.07338 0.70182 0.84828 0.0
C778 C 0.0684 0.70854 0.87021 0.0
C779 C 0.35955 0.39351 0.84788 0.0
C780 C 0.34794 0.37237 0.82991 0.0
C781 C 0.35374 0.38158 0.8693 0.0
C782 C 0.33643 0.34804 0.87364 0.0
H783 H 0.37121 0.41947 0.84547 0.0
H784 H 0.36133 0.39888 0.88254 0.0
S785 S 0.30636 0.28257 0.83218 0.0
N786 N 0.32225 0.31636 0.8178 0.0
N787 N 0.31176 0.29393 0.85796 0.0
C788 C 0.32746 0.3267 0.85578 0.0
C789 C 0.33305 0.33886 0.83396 0.0
C790 C 0.67936 1.00024 0.86964 0.0
C791 C 0.713 0.01741 0.87359 0.0
C792 C 0.66694 0.99419 0.84837 0.0
C793 C 0.68769 0.00468 0.8302 0.0
H794 H 0.66246 0.98983 0.88306 0.0
H795 H 0.64099 0.97917 0.84622 0.0
S796 S 0.77735 0.05526 0.83156 0.0
N797 N 0.76663 0.04856 0.85744 0.0
N798 N 0.74327 0.03672 0.81751 0.0
C799 C 0.7212 0.02416 0.8339 0.0
C800 C 0.73385 0.03069 0.85558 0.0
C801 C 0.73889 0.04131 0.18128 0.0
C802 C 0.72762 0.05132 0.16338 0.0
C803 C 0.73373 0.04796 0.2027 0.0
C804 C 0.71673 0.06447 0.20709 0.0
H805 H 0.75381 0.03034 0.17877 0.0
H806 H 0.74468 0.04161 0.21585 0.0
S807 S 0.67706 0.09037 0.16601 0.0
N808 N 0.69501 0.07466 0.1515 0.0
N809 N 0.68488 0.08671 0.19172 0.0
C810 C 0.70269 0.07181 0.1894 0.0
C811 C 0.70828 0.06538 0.16756 0.0
C812 C 0.02724 0.73102 0.18313 0.0
C813 C 0.01648 0.70995 0.16512 0.0
C814 C 0.02078 0.719 0.20453 0.0
C815 C 0.0037 0.68544 0.2088 0.0
H816 H 0.03875 0.75698 0.18074 0.0
H817 H 0.02778 0.73622 0.21778 0.0
S818 S 0.97554 0.62018 0.16729 0.0
N819 N 0.99164 0.65402 0.15296 0.0
N820 N 0.97998 0.63143 0.19307 0.0
C821 C 0.99548 0.6642 0.19094 0.0
C822 C 1.00171 0.67645 0.16914 0.0
C823 C 0.33299 0.3266 0.18069 0.0
C824 C 0.35368 0.33711 0.16247 0.0
C825 C 0.34542 0.33327 0.20198 0.0
C826 C 0.37904 0.35103 0.20594 0.0
H827 H 0.30708 0.31119 0.1786 0.0
H828 H 0.32853 0.32286 0.21539 0.0
S829 S 0.44322 0.38929 0.1638 0.0
N830 N 0.4092 0.36993 0.14978 0.0
N831 N 0.43253 0.38279 0.18969 0.0
C832 C 0.3998 0.36428 0.18786 0.0
C833 C 0.38714 0.35721 0.16617 0.0
C834 C 0.66066 0.6919 0.52215 0.0
C835 C 0.67049 0.6804 0.54002 0.0
C836 C 0.66671 0.68625 0.50068 0.0
C837 C 0.68318 0.66922 0.4962 0.0
H838 H 0.64625 0.70343 0.52467 0.0
H839 H 0.65686 0.69384 0.48752 0.0
S840 S 0.7192 0.63934 0.53736 0.0
N841 N 0.7012 0.65498 0.55189 0.0
N842 N 0.71299 0.64477 0.51163 0.0
C843 C 0.69573 0.66025 0.51396 0.0
C844 C 0.68924 0.66569 0.53583 0.0
C845 C 0.38299 0.0142 0.50087 0.0
C846 C 0.39943 0.04791 0.49722 0.0
C847 C 0.37603 1.00129 0.52203 0.0
C848 C 0.38556 0.02158 0.54045 0.0
H849 H 0.37682 0.99757 0.48733 0.0
H850 H 0.36501 0.97529 0.52392 0.0
S851 S 0.42451 0.11128 0.53987 0.0
N852 N 0.42133 0.10114 0.5139 0.0
N853 N 0.40864 0.0769 0.55359 0.0
C854 C 0.39972 0.05518 0.53702 0.0
C855 C 0.40652 0.06833 0.51545 0.0
C856 C 0.00552 0.37326 0.51454 0.0
C857 C 0.02707 0.38482 0.49679 0.0
C858 C 0.01694 0.37889 0.53608 0.0
C859 C 0.05038 0.39597 0.54075 0.0
H860 H 0.97962 0.36182 0.51187 0.0
H861 H 0.99935 0.37137 0.54913 0.0
S862 S 0.11677 0.42568 0.49998 0.0
N863 N 0.08332 0.4101 0.48525 0.0
N864 N 0.10482 0.42028 0.52563 0.0
C865 C 0.07212 0.40483 0.52312 0.0
C866 C 0.06046 0.3994 0.50118 0.0
C867 C 0.40156 0.38133 0.53479 0.0
C868 C 0.38395 0.39716 0.53937 0.0
C869 C 0.40683 0.37502 0.5133 0.0
C870 C 0.39506 0.38466 0.49547 0.0
H871 H 0.4128 0.37517 0.54785 0.0
H872 H 0.4221 0.36446 0.51069 0.0
S873 S 0.34314 0.42221 0.49859 0.0
N874 N 0.35125 0.4186 0.52424 0.0
N875 N 0.36155 0.40715 0.48391 0.0
C876 C 0.37528 0.39818 0.49984 0.0
C877 C 0.36959 0.40429 0.52176 0.0
C878 C 0.66299 0.00248 0.52376 0.0
C879 C 0.67361 0.02403 0.5415 0.0
C880 C 0.6687 0.01393 0.50224 0.0
C881 C 0.68565 0.04737 0.49761 0.0
H882 H 0.64809 0.97662 0.52642 0.0
H883 H 0.65817 0.99641 0.48918 0.0
S884 S 0.72393 0.11362 0.53833 0.0
N885 N 0.7057 0.08018 0.55306 0.0
N886 N 0.71689 0.10172 0.51267 0.0
C887 C 0.69914 0.06904 0.5152 0.0
C888 C 0.69297 0.05737 0.53713 0.0
C889 C 0.99886 0.65904 0.51567 0.0
C890 C 0.0195 0.66958 0.49742 0.0
C891 C 0.01135 0.66536 0.53694 0.0
C892 C 0.045 0.68276 0.54088 0.0
H893 H 0.97291 0.64392 0.51359 0.0
H894 H 0.99447 0.65495 0.55037 0.0
S895 S 0.10914 0.72088 0.49869 0.0
N896 N 0.07504 0.702 0.4847 0.0
N897 N 0.0985 0.71419 0.52458 0.0
C898 C 0.06574 0.696 0.52278 0.0
C899 C 0.05301 0.68929 0.5011 0.0
C900 C 0.0237 0.31535 0.03019 0.0
C901 C 0.04325 0.3064 0.04223 0.0
C902 C 0.02448 0.31603 1.00721 0.0
C903 C 0.04476 0.30768 0.99569 0.0
H904 H 0.00635 0.31999 0.03847 0.0
H905 H 0.0079 0.32129 0.99846 0.0
S906 S 0.10462 0.28826 0.01936 0.0
N907 N 0.08659 0.29346 0.04066 0.0
N908 N 0.08753 0.29424 0.99782 0.0
C909 C 0.06596 0.30104 1.00754 0.0
C910 C 0.06538 0.30057 0.03072 0.0
C911 C 0.75782 0.78662 1.00847 0.0
C912 C 0.75858 0.76237 0.99596 0.0
C913 C 0.75839 0.78583 0.03124 0.0
C914 C 0.7598 0.76075 0.04239 0.0
H915 H 0.75854 0.80732 1.00056 0.0
H916 H 0.7594 0.80593 0.04018 0.0
S917 S 0.76043 0.69046 1.01689 0.0
N918 N 0.7592 0.71179 0.99605 0.0
N919 N 0.7601 0.71 0.03904 0.0
C920 C 0.75858 0.73525 0.03003 0.0
C921 C 0.75813 0.73619 1.00673 0.0
C922 C 0.31292 0.01145 1.00687 0.0
C923 C 0.31609 0.03799 0.99472 0.0
C924 C 0.31363 0.01226 0.02981 0.0
C925 C 0.31836 0.0399 0.04116 0.0
H926 H 0.30739 0.98911 0.99871 0.0
H927 H 0.30871 0.99061 0.03868 0.0
S928 S 0.33185 0.11689 1.01697 0.0
N929 N 0.32678 0.09344 0.99579 0.0
N930 N 0.32893 0.09515 0.03871 0.0
C931 C 0.32387 0.06726 0.02917 0.0
C932 C 0.3226 0.06628 1.00597 0.0
C933 C 0.00603 0.74595 1.00742 0.0
C934 C 0.03449 0.75289 0.99615 0.0
C935 C 0.00491 0.74516 0.03024 0.0
C936 C 0.03235 0.75177 0.0426 0.0
H937 H 0.98498 0.74279 0.99854 0.0
H938 H 0.9831 0.74155 0.03829 0.0
S939 S 0.11227 0.7698 0.02115 0.0
N940 N 0.09021 0.76458 0.99914 0.0
N941 N 0.08826 0.76408 0.04214 0.0
C942 C 0.06045 0.75719 0.03163 0.0
C943 C 0.06145 0.75739 1.00835 0.0
C944 C 0.2655 0.27583 0.03056 0.0
C945 C 0.29418 0.29528 0.04235 0.0
C946 C 0.26493 0.27607 1.00785 0.0
C947 C 0.29287 0.29606 0.99561 0.0
H948 H 0.24311 0.25949 0.03886 0.0
H949 H 0.24212 0.26021 0.99982 0.0
S950 S 0.37402 0.35325 1.01813 0.0
N951 N 0.35133 0.33623 0.03987 0.0
N952 N 0.34994 0.33707 0.99687 0.0
C953 C 0.32158 0.31665 1.00699 0.0
C954 C 0.32232 0.31615 0.03038 0.0
C955 C 0.76175 0.05791 1.00712 0.0
C956 C 0.75356 0.02914 0.99588 0.0
C957 C 0.76144 0.05855 0.03001 0.0
C958 C 0.75394 0.03067 0.04225 0.0
H959 H 0.76998 0.08031 0.99821 0.0
H960 H 0.76956 0.08153 0.03815 0.0
S961 S 0.72905 0.94908 0.02035 0.0
N962 N 0.73557 0.97178 0.9985 0.0
N963 N 0.73631 0.97327 0.04146 0.0
C964 C 0.74432 1.00153 0.03113 0.0
C965 C 0.74384 1.00071 1.00792 0.0
C966 C 0.68913 0.64781 0.34007 0.0
C967 C 0.70813 0.63757 0.32882 0.0
C968 C 0.68853 0.64795 0.36304 0.0
C969 C 0.70711 0.63809 0.37538 0.0
H970 H 0.67344 0.65409 0.33112 0.0
H971 H 0.67217 0.65419 0.37112 0.0
S972 S 0.76529 0.61498 0.35318 0.0
N973 N 0.74879 0.62128 0.33145 0.0
N974 N 0.74833 0.62215 0.37427 0.0
C975 C 0.72802 0.63026 0.3641 0.0
C976 C 0.72833 0.62981 0.34091 0.0
C977 C 0.45013 0.13502 0.36484 0.0
C978 C 0.43397 0.10573 0.37657 0.0
C979 C 0.45006 0.13556 0.34212 0.0
C980 C 0.43345 0.10693 0.32988 0.0
H981 H 0.46394 0.15798 0.37319 0.0
H982 H 0.46356 0.15883 0.33406 0.0
S983 S 0.38498 0.02385 0.3522 0.0
N984 N 0.39927 0.04715 0.37399 0.0
N985 N 0.39863 0.04845 0.33098 0.0
C986 C 0.41572 0.07749 0.34118 0.0
C987 C 0.41612 0.07683 0.36456 0.0
C988 C 0.99459 0.39828 0.36266 0.0
C989 C 0.98257 0.36975 0.37507 0.0
C990 C 0.99332 0.39712 0.3398 0.0
C991 C 0.98087 0.36751 0.32863 0.0
H992 H 1.00288 0.42136 0.37069 0.0
H993 H 1.00075 0.41934 0.33084 0.0
S994 S 0.94832 0.28631 0.3537 0.0
N995 N 0.95886 0.31133 0.37465 0.0
N996 N 0.95787 0.30923 0.33167 0.0
C997 C 0.97072 0.33909 0.34086 0.0
C998 C 0.97116 0.34018 0.36412 0.0
C999 C 0.67289 0.07246 0.3634 0.0
C1000 C 0.70164 0.08892 0.3756 0.0
C1001 C 0.67359 0.0736 0.34052 0.0
C1002 C 0.70313 0.09029 0.32923 0.0
H1003 H 0.64961 0.06077 0.37157 0.0
H1004 H 0.6509 0.06271 0.33166 0.0
S1005 S 0.78508 0.13503 0.35369 0.0
N1006 N 0.76032 0.12114 0.37481 0.0
N1007 N 0.76178 0.1219 0.33183 0.0
C1008 C 0.73207 0.10491 0.34125 0.0
C1009 C 0.7313 0.10458 0.36447 0.0
C1010 C 0.93363 0.60654 0.36481 0.0
C1011 C 0.96035 0.62948 0.37698 0.0
C1012 C 0.9336 0.60709 0.3421 0.0
C1013 C 0.96011 0.63083 0.33021 0.0
H1014 H 0.91246 0.58733 0.37281 0.0
H1015 H 0.91226 0.58857 0.33383 0.0
S1016 S 0.03588 0.69745 0.3539 0.0
N1017 N 0.01411 0.67728 0.37531 0.0
N1018 N 0.01371 0.67865 0.3323 0.0
C1019 C 0.98685 0.65451 0.34201 0.0
C1020 C 0.98707 0.65372 0.36541 0.0
C1021 C 0.44632 0.34873 0.36332 0.0
C1022 C 0.43004 0.36195 0.37482 0.0
C1023 C 0.44665 0.34816 0.3406 0.0
C1024 C 0.43032 0.36029 0.32813 0.0
H1025 H 0.45993 0.33951 0.37187 0.0
H1026 H 0.46022 0.33834 0.33271 0.0
S1027 S 0.38177 0.39522 0.34977 0.0
N1028 N 0.39559 0.38608 0.37175 0.0
N1029 N 0.3957 0.38419 0.32875 0.0
C1030 C 0.41249 0.37209 0.33919 0.0
C1031 C 0.41248 0.37312 0.36257 0.0
C1032 C 0.35112 0.93242 0.69547 0.0
C1033 C 0.36065 0.9609 0.70748 0.0
C1034 C 0.35142 0.93252 0.67275 0.0
C1035 C 0.3617 0.96123 0.66074 0.0
H1036 H 0.34342 0.90958 0.7037 0.0
H1037 H 0.34423 0.90975 0.66461 0.0
S1038 S 0.38751 0.04236 0.68436 0.0
N1039 N 0.37907 0.01849 0.70581 0.0
N1040 N 0.38037 0.019 0.66279 0.0
C1041 C 0.3704 0.9899 0.6725 0.0
C1042 C 0.36967 0.98966 0.69589 0.0
C1043 C 0.11895 0.46792 0.69758 0.0
C1044 C 0.10146 0.43904 0.70958 0.0
C1045 C 0.11856 0.46804 0.67486 0.0
C1046 C 0.10031 0.43939 0.66288 0.0
H1047 H 0.13399 0.49085 0.70571 0.0
H1048 H 0.13302 0.491 0.66661 0.0
S1049 S 0.04816 0.35739 0.68599 0.0
N1050 N 0.06391 0.3809 0.70756 0.0
N1051 N 0.06272 0.38143 0.66454 0.0
C1052 C 0.08142 0.41043 0.67446 0.0
C1053 C 0.08212 0.41018 0.69785 0.0
C1054 C 0.65774 0.73089 0.69555 0.0
C1055 C 0.64727 0.7026 0.70798 0.0
C1056 C 0.65671 0.72966 0.67271 0.0
C1057 C 0.64594 0.70023 0.66157 0.0
H1058 H 0.66452 0.75369 0.70353 0.0
H1059 H 0.66283 0.75156 0.66372 0.0
S1060 S 0.61798 0.61982 0.68676 0.0
N1061 N 0.62699 0.64471 0.70768 0.0
N1062 N 0.62635 0.64251 0.6647 0.0
C1063 C 0.63749 0.67218 0.67384 0.0
C1064 C 0.63775 0.67333 0.6971 0.0
C1065 C 0.33654 0.40386 0.69614 0.0
C1066 C 0.36525 0.41809 0.70848 0.0
C1067 C 0.33753 0.40527 0.67327 0.0
C1068 C 0.36724 0.42 0.66205 0.0
H1069 H 0.31327 0.39381 0.70421 0.0
H1070 H 0.31502 0.39618 0.66434 0.0
S1071 S 0.44903 0.4586 0.68689 0.0
N1072 N 0.424 0.44618 0.70791 0.0
N1073 N 0.42589 0.44738 0.66493 0.0
C1074 C 0.39599 0.43231 0.6742 0.0
C1075 C 0.39499 0.43175 0.69745 0.0
C1076 C 0.63729 0.9958 0.69746 0.0
C1077 C 0.64449 0.97437 0.70856 0.0
C1078 C 0.63786 0.99715 0.67456 0.0
C1079 C 0.64467 0.97638 0.66219 0.0
H1080 H 0.62967 0.0104 0.70647 0.0
H1081 H 0.63053 0.01271 0.66653 0.0
S1082 S 0.66706 0.91757 0.68376 0.0
N1083 N 0.66086 0.93379 0.7057 0.0
N1084 N 0.66074 0.9354 0.66276 0.0
C1085 C 0.65333 0.956 0.6732 0.0
C1086 C 0.65348 0.9552 0.6964 0.0
C1087 C 0.13213 0.70642 0.6962 0.0
C1088 C 0.10542 0.70237 0.70848 0.0
C1089 C 0.13148 0.70572 0.67348 0.0
C1090 C 0.10393 0.70052 0.66169 0.0
H1091 H 0.15412 0.71044 0.70418 0.0
H1092 H 0.15288 0.70879 0.66515 0.0
S1093 S 0.0274 0.68895 0.6859 0.0
N1094 N 0.05062 0.69364 0.70717 0.0
N1095 N 0.04908 0.69164 0.66417 0.0
C1096 C 0.07695 0.69666 0.67367 0.0
C1097 C 0.07779 0.69779 0.69707 0.0
C1098 C 0.90433 0.13131 0.11152 0.0
C1099 C 0.87488 0.13083 0.11503 0.0
C1100 C 0.93404 0.16045 0.11169 0.0
C1101 C 0.93557 0.19037 0.11531 0.0
H1102 H 0.90448 0.10911 0.10799 0.0
H1103 H 0.95586 0.15953 0.10825 0.0
S1104 S 0.86595 0.20219 0.12799 0.0
N1105 N 0.84951 0.16279 0.12417 0.0
N1106 N 0.90525 0.21741 0.12438 0.0
C1107 C 0.90648 0.19013 0.1198 0.0
C1108 C 0.87621 0.16045 0.11969 0.0
C1109 C 0.91165 0.75388 0.11766 0.0
C1110 C 0.94153 0.78275 0.11518 0.0
C1111 C 0.88228 0.75392 0.11769 0.0
C1112 C 0.88134 0.78283 0.11527 0.0
H1113 H 0.91073 0.73077 0.11907 0.0
H1114 H 0.86006 0.73085 0.11914 0.0
S1115 S 0.95287 0.86551 0.10999 0.0
N1116 N 0.96843 0.84145 0.11157 0.0
N1117 N 0.91324 0.84153 0.11163 0.0
C1118 C 0.9111 0.81211 0.11367 0.0
C1119 C 0.94112 0.81206 0.11362 0.0
C1120 C 0.26373 0.1297 0.11603 0.0
C1121 C 0.29322 0.12971 0.11779 0.0
C1122 C 0.26275 0.15861 0.1167 0.0
C1123 C 0.29123 0.18883 0.11909 0.0
H1124 H 0.24121 0.10727 0.11339 0.0
H1125 H 0.23955 0.15726 0.11448 0.0
S1126 S 0.37421 0.20207 0.12733 0.0
N1127 N 0.35132 0.16251 0.12421 0.0
N1128 N 0.34942 0.21674 0.12536 0.0
C1129 C 0.32068 0.18911 0.12202 0.0
C1130 C 0.32168 0.15964 0.12141 0.0
C1131 C 0.19111 0.90687 0.9217 0.0
C1132 C 0.19189 0.93667 0.92383 0.0
C1133 C 0.16182 0.87738 0.92179 0.0
C1134 C 0.13185 0.87626 0.92403 0.0
H1135 H 0.2134 0.9061 0.92039 0.0
H1136 H 0.16287 0.85526 0.92057 0.0
S1137 S 0.12008 0.9475 0.92851 0.0
N1138 N 0.15974 0.96328 0.92702 0.0
N1139 N 0.1047 0.90789 0.9272 0.0
C1140 C 0.13211 0.90592 0.92538 0.0
C1141 C 0.16205 0.93606 0.92528 0.0
C1142 C 0.16132 0.26073 0.91555 0.0
C1143 C 0.19146 0.28965 0.91559 0.0
C1144 C 0.13214 0.26118 0.91566 0.0
C1145 C 0.13181 0.29058 0.91579 0.0
H1146 H 0.16013 0.23744 0.91637 0.0
H1147 H 0.10971 0.23822 0.91655 0.0
S1148 S 0.20407 0.37304 0.9125 0.0
N1149 N 0.21912 0.34849 0.91328 0.0
N1150 N 0.16434 0.34937 0.91345 0.0
C1151 C 0.16175 0.31966 0.91441 0.0
C1152 C 0.19151 0.31919 0.91432 0.0
C1153 C 0.81042 0.90782 0.92694 0.0
C1154 C 0.78268 0.87838 0.92126 0.0
C1155 C 0.81002 0.93705 0.92711 0.0
C1156 C 0.78187 0.9381 0.92157 0.0
H1157 H 0.83235 0.90822 0.9321 0.0
H1158 H 0.83167 0.95879 0.93237 0.0
S1159 S 0.70415 0.8685 0.90245 0.0
N1160 N 0.72726 0.85263 0.90783 0.0
N1161 N 0.72648 0.90746 0.90807 0.0
C1162 C 0.75449 0.9091 0.91471 0.0
C1163 C 0.75489 0.87931 0.91458 0.0
C1164 C 0.54194 0.49499 0.4475 0.0
C1165 C 0.54076 0.46512 0.45045 0.0
C1166 C 0.57144 0.52428 0.44738 0.0
C1167 C 0.60116 0.52505 0.4502 0.0
H1168 H 0.51993 0.49585 0.44468 0.0
H1169 H 0.57088 0.54641 0.44449 0.0
S1170 S 0.61145 0.45383 0.46049 0.0
N1171 N 0.57198 0.43835 0.45773 0.0
N1172 N 0.62736 0.49332 0.45751 0.0
C1173 C 0.6003 0.49548 0.4541 0.0
C1174 C 0.57019 0.46559 0.45423 0.0
C1175 C 0.57603 0.08587 0.44998 0.0
C1176 C 0.6062 0.11477 0.44954 0.0
C1177 C 0.54687 0.08629 0.45062 0.0
C1178 C 0.54647 0.11563 0.45094 0.0
H1179 H 0.57474 0.06254 0.44924 0.0
H1180 H 0.52442 0.06329 0.45036 0.0
S1181 S 0.61885 0.19825 0.45192 0.0
N1182 N 0.63389 0.1737 0.45089 0.0
N1183 N 0.5791 0.17452 0.45214 0.0
C1184 C 0.57648 0.14478 0.45145 0.0
C1185 C 0.60627 0.14434 0.45073 0.0
C1186 C 0.98443 0.49324 0.45023 0.0
C1187 C 0.95591 0.46275 0.45073 0.0
C1188 C 0.98335 0.52206 0.45114 0.0
C1189 C 0.95373 0.52179 0.45268 0.0
H1190 H 0.00788 0.49501 0.44846 0.0
H1191 H 0.00603 0.54477 0.45004 0.0
S1192 S 0.87213 0.44837 0.45683 0.0
N1193 N 0.89719 0.43406 0.45454 0.0
N1194 N 0.89516 0.48819 0.4563 0.0
C1195 C 0.92506 0.49147 0.45426 0.0
C1196 C 0.92616 0.46203 0.45325 0.0
C1197 C 0.8266 0.21314 0.25399 0.0
C1198 C 0.79698 0.21248 0.25708 0.0
C1199 C 0.85614 0.24234 0.2539 0.0
C1200 C 0.85754 0.27232 0.25687 0.0
H1201 H 0.82719 0.19084 0.25214 0.0
H1202 H 0.87815 0.24119 0.25195 0.0
S1203 S 0.78679 0.28441 0.2638 0.0
N1204 N 0.77077 0.24476 0.26183 0.0
N1205 N 0.82632 0.29965 0.26164 0.0
C1206 C 0.82803 0.27221 0.2591 0.0
C1207 C 0.79782 0.24235 0.25921 0.0
C1208 C 0.85586 0.65021 0.25356 0.0
C1209 C 0.85722 0.62172 0.25004 0.0
C1210 C 0.82633 0.64994 0.2535 0.0
C1211 C 0.79676 0.62112 0.24995 0.0
H1212 H 0.87769 0.67289 0.25716 0.0
H1213 H 0.8267 0.67237 0.25707 0.0
S1214 S 0.78718 0.54057 0.23714 0.0
N1215 N 0.8265 0.56436 0.24083 0.0
N1216 N 0.77102 0.56383 0.24074 0.0
C1217 C 0.79788 0.59278 0.24515 0.0
C1218 C 0.82804 0.59306 0.24518 0.0
C1219 C 0.47117 0.26761 0.24825 0.0
C1220 C 0.44192 0.26819 0.24867 0.0
C1221 C 0.47138 0.2383 0.24846 0.0
C1222 C 0.44235 0.20828 0.24911 0.0
H1223 H 0.49425 0.28997 0.24867 0.0
H1224 H 0.49461 0.23936 0.24903 0.0
S1225 S 0.35911 0.19626 0.24697 0.0
N1226 N 0.38304 0.23597 0.24726 0.0
N1227 N 0.38345 0.18094 0.24767 0.0
C1228 C 0.41289 0.20844 0.24812 0.0
C1229 C 0.41268 0.23834 0.2479 0.0
C1230 C 0.26692 0.83067 0.78917 0.0
C1231 C 0.2677 0.86056 0.78796 0.0
C1232 C 0.23752 0.80126 0.78915 0.0
C1233 C 0.20762 0.80046 0.78791 0.0
H1234 H 0.2892 0.82979 0.78925 0.0
H1235 H 0.23842 0.77899 0.78922 0.0
S1236 S 0.19609 0.87203 0.78786 0.0
N1237 N 0.23577 0.88758 0.78797 0.0
N1238 N 0.18057 0.83235 0.78792 0.0
C1239 C 0.20796 0.8302 0.78809 0.0
C1240 C 0.23795 0.86019 0.78812 0.0
C1241 C 0.24158 0.41748 0.78356 0.0
C1242 C 0.272 0.4461 0.78308 0.0
C1243 C 0.21269 0.41845 0.78419 0.0
C1244 C 0.21282 0.44806 0.78448 0.0
H1245 H 0.23988 0.39397 0.78281 0.0
H1246 H 0.19003 0.39564 0.78393 0.0
S1247 S 0.28603 0.53009 0.7855 0.0
N1248 N 0.30049 0.50505 0.78446 0.0
N1249 N 0.24623 0.50687 0.7857 0.0
C1250 C 0.24308 0.47691 0.785 0.0
C1251 C 0.2726 0.47593 0.78428 0.0
C1252 C 0.59159 0.79698 0.77556 0.0
C1253 C 0.61938 0.79575 0.78186 0.0
C1254 C 0.59118 0.82622 0.77573 0.0
C1255 C 0.61854 0.85547 0.78219 0.0
H1256 H 0.57028 0.77541 0.76971 0.0
H1257 H 0.56957 0.826 0.76999 0.0
S1258 S 0.69588 0.86467 0.80312 0.0
N1259 N 0.67389 0.8259 0.79685 0.0
N1260 N 0.67312 0.88072 0.79715 0.0
C1261 C 0.6459 0.85429 0.78963 0.0
C1262 C 0.64632 0.82451 0.78946 0.0
C1263 C 0.52093 0.57427 0.58704 0.0
C1264 C 0.52205 0.60408 0.59023 0.0
C1265 C 0.49154 0.54492 0.58718 0.0
C1266 C 0.46181 0.54391 0.59053 0.0
H1267 H 0.54303 0.57338 0.58486 0.0
H1268 H 0.49235 0.52276 0.58511 0.0
S1269 S 0.4509 0.61528 0.59804 0.0
N1270 N 0.49044 0.63089 0.5956 0.0
N1271 N 0.43519 0.57569 0.59587 0.0
C1272 C 0.46236 0.57361 0.59293 0.0
C1273 C 0.49242 0.60363 0.59277 0.0
C1274 C 0.49346 0.98223 0.58697 0.0
C1275 C 0.46389 0.95278 0.58584 0.0
C1276 C 0.52317 0.98291 0.58764 0.0
C1277 C 0.52474 0.95418 0.58729 0.0
H1278 H 0.49376 0.00508 0.58788 0.0
H1279 H 0.54504 0.00628 0.58906 0.0
S1280 S 0.45455 0.87063 0.58243 0.0
N1281 N 0.4382 0.89406 0.5829 0.0
N1282 N 0.49404 0.89537 0.5842 0.0
C1283 C 0.49546 0.92455 0.58523 0.0
C1284 C 0.4651 0.92386 0.58448 0.0
C1285 C 0.08073 0.57111 0.58749 0.0
C1286 C 0.10887 0.60074 0.58275 0.0
C1287 C 0.08097 0.54183 0.58745 0.0
C1288 C 0.10936 0.54082 0.58268 0.0
H1289 H 0.05848 0.57052 0.59205 0.0
H1290 H 0.05889 0.51998 0.59201 0.0
S1291 S 0.18855 0.61099 0.56632 0.0
N1292 N 0.16521 0.62678 0.57103 0.0
N1293 N 0.16565 0.57179 0.57097 0.0
C1294 C 0.13721 0.57 0.57665 0.0
C1295 C 0.13697 0.59989 0.57668 0.0
loop_
_geom_bond_atom_site_label_1
_geom_bond_atom_site_label_2
_geom_bond_distance
_geom_bond_site_symmetry_2
_ccdc_geom_bond_type
O0 Cd1 2.223 . S
O0 C8 1.315 . S
Cd1 O0 2.223 . S
Cd1 O4 2.297 . S
Cd1 O5 2.439 . S
Cd1 O11 2.240 1_455 S
Cd2 O3 2.240 . S
Cd2 O10 2.223 1_455 S
Cd2 O12 2.297 1_455 S
Cd2 O13 2.439 . S
O3 Cd2 2.240 . S
O3 C8 1.279 . S
O4 Cd1 2.297 . S
O4 C6 1.247 . S
O5 Cd1 2.439 . S
O5 C6 1.208 . S
C6 O4 1.247 . S
C6 O5 1.208 . S
C7 O12 1.247 1_455 S
C7 O13 1.208 . S
C8 O0 1.315 . S
C8 O3 1.279 . S
C9 O10 1.315 . S
C9 O11 1.279 . S
O10 Cd2 2.223 1_655 S
O10 C9 1.315 . S
O11 Cd1 2.240 1_655 S
O11 C9 1.279 . S
O12 Cd2 2.297 1_655 S
O12 C7 1.247 1_655 S
O13 Cd2 2.439 . S
O13 C7 1.208 . S
O14 Cd15 2.223 . S
O14 C22 1.315 . S
Cd15 O14 2.223 . S
Cd15 O18 2.297 . S
Cd15 O19 2.439 . S
Cd15 O25 2.240 . S
Cd16 O17 2.240 . S
Cd16 O24 2.223 . S
Cd16 O26 2.297 . S
Cd16 O27 2.439 . S
O17 Cd16 2.240 . S
O17 C22 1.279 . S
O18 Cd15 2.297 . S
O18 C20 1.247 . S
O19 Cd15 2.439 . S
O19 C20 1.208 . S
C20 O18 1.247 . S
C20 O19 1.208 . S
C21 O26 1.247 . S
C21 O27 1.208 . S
C22 O14 1.315 . S
C22 O17 1.279 . S
C23 O24 1.315 . S
C23 O25 1.279 . S
O24 Cd16 2.223 . S
O24 C23 1.315 . S
O25 Cd15 2.240 . S
O25 C23 1.279 . S
O26 Cd16 2.297 . S
O26 C21 1.247 . S
O27 Cd16 2.439 . S
O27 C21 1.208 . S
O28 Cd29 2.223 . S
O28 C36 1.315 . S
Cd29 O28 2.223 . S
Cd29 O32 2.297 1_545 S
Cd29 O33 2.439 1_545 S
Cd29 O39 2.240 . S
Cd30 O31 2.240 . S
Cd30 O38 2.223 . S
Cd30 O40 2.297 . S
Cd30 O41 2.439 . S
O31 Cd30 2.240 . S
O31 C36 1.279 . S
O32 Cd29 2.297 1_565 S
O32 C34 1.247 . S
O33 Cd29 2.439 1_565 S
O33 C34 1.208 . S
C34 O32 1.247 . S
C34 O33 1.208 . S
C35 O40 1.247 . S
C35 O41 1.208 . S
C36 O28 1.315 . S
C36 O31 1.279 . S
C37 O38 1.315 . S
C37 O39 1.279 . S
O38 Cd30 2.223 . S
O38 C37 1.315 . S
O39 Cd29 2.240 . S
O39 C37 1.279 . S
O40 Cd30 2.297 . S
O40 C35 1.247 . S
O41 Cd30 2.439 . S
O41 C35 1.208 . S
O42 Cd43 2.223 . S
O42 C50 1.315 . S
Cd43 O42 2.223 . S
Cd43 O46 2.297 . S
Cd43 O47 2.439 . S
Cd43 O53 2.240 1_545 S
Cd44 O45 2.240 . S
Cd44 O52 2.223 1_545 S
Cd44 O54 2.297 1_545 S
Cd44 O55 2.439 . S
O45 Cd44 2.240 . S
O45 C50 1.279 . S
O46 Cd43 2.297 . S
O46 C48 1.247 . S
O47 Cd43 2.439 . S
O47 C48 1.208 . S
C48 O46 1.247 . S
C48 O47 1.208 . S
C49 O54 1.247 1_545 S
C49 O55 1.208 . S
C50 O42 1.315 . S
C50 O45 1.279 . S
C51 O52 1.315 . S
C51 O53 1.279 . S
O52 Cd44 2.223 1_565 S
O52 C51 1.315 . S
O53 Cd43 2.240 1_565 S
O53 C51 1.279 . S
O54 Cd44 2.297 1_565 S
O54 C49 1.247 1_565 S
O55 Cd44 2.439 . S
O55 C49 1.208 . S
O56 Cd57 2.223 . S
O56 C64 1.315 . S
Cd57 O56 2.223 . S
Cd57 O60 2.297 1_455 S
Cd57 O61 2.439 1_455 S
Cd57 O67 2.240 . S
Cd58 O59 2.240 . S
Cd58 O66 2.223 . S
Cd58 O68 2.297 . S
Cd58 O69 2.439 . S
O59 Cd58 2.240 . S
O59 C64 1.279 . S
O60 Cd57 2.297 1_655 S
O60 C62 1.247 . S
O61 Cd57 2.439 1_655 S
O61 C62 1.208 . S
C62 O60 1.247 . S
C62 O61 1.208 . S
C63 O68 1.247 . S
C63 O69 1.208 . S
C64 O56 1.315 . S
C64 O59 1.279 . S
C65 O66 1.315 . S
C65 O67 1.279 . S
O66 Cd58 2.223 . S
O66 C65 1.315 . S
O67 Cd57 2.240 . S
O67 C65 1.279 . S
O68 Cd58 2.297 . S
O68 C63 1.247 . S
O69 Cd58 2.439 . S
O69 C63 1.208 . S
O70 Cd71 2.223 . S
O70 C78 1.315 . S
Cd71 O70 2.223 . S
Cd71 O74 2.297 . S
Cd71 O75 2.439 . S
Cd71 O81 2.240 . S
Cd72 O73 2.240 . S
Cd72 O80 2.223 . S
Cd72 O82 2.297 . S
Cd72 O83 2.439 . S
O73 Cd72 2.240 . S
O73 C78 1.279 . S
O74 Cd71 2.297 . S
O74 C76 1.247 . S
O75 Cd71 2.439 . S
O75 C76 1.208 . S
C76 O74 1.247 . S
C76 O75 1.208 . S
C77 O82 1.247 . S
C77 O83 1.208 . S
C78 O70 1.315 . S
C78 O73 1.279 . S
C79 O80 1.315 . S
C79 O81 1.279 . S
O80 Cd72 2.223 . S
O80 C79 1.315 . S
O81 Cd71 2.240 . S
O81 C79 1.279 . S
O82 Cd72 2.297 . S
O82 C77 1.247 . S
O83 Cd72 2.439 . S
O83 C77 1.208 . S
O84 Cd85 2.223 . S
O84 C92 1.315 . S
Cd85 O84 2.223 . S
Cd85 O88 2.297 1_455 S
Cd85 O89 2.439 1_455 S
Cd85 O95 2.240 . S
Cd86 O87 2.240 . S
Cd86 O94 2.223 . S
Cd86 O96 2.297 . S
Cd86 O97 2.439 . S
O87 Cd86 2.240 . S
O87 C92 1.279 . S
O88 Cd85 2.297 1_655 S
O88 C90 1.247 . S
O89 Cd85 2.439 1_655 S
O89 C90 1.208 . S
C90 O88 1.247 . S
C90 O89 1.208 . S
C91 O96 1.247 . S
C91 O97 1.208 . S
C92 O84 1.315 . S
C92 O87 1.279 . S
C93 O94 1.315 . S
C93 O95 1.279 . S
O94 Cd86 2.223 . S
O94 C93 1.315 . S
O95 Cd85 2.240 . S
O95 C93 1.279 . S
O96 Cd86 2.297 . S
O96 C91 1.247 . S
O97 Cd86 2.439 . S
O97 C91 1.208 . S
O98 Cd99 2.223 . S
O98 C106 1.315 . S
Cd99 O98 2.223 . S
Cd99 O102 2.297 . S
Cd99 O103 2.439 . S
Cd99 O109 2.240 . S
Cd100 O101 2.240 . S
Cd100 O108 2.223 . S
Cd100 O110 2.297 . S
Cd100 O111 2.439 . S
O101 Cd100 2.240 . S
O101 C106 1.279 . S
O102 Cd99 2.297 . S
O102 C104 1.247 . S
O103 Cd99 2.439 . S
O103 C104 1.208 . S
C104 O102 1.247 . S
C104 O103 1.208 . S
C105 O110 1.247 . S
C105 O111 1.208 . S
C106 O98 1.315 . S
C106 O101 1.279 . S
C107 O108 1.315 . S
C107 O109 1.279 . S
O108 Cd100 2.223 . S
O108 C107 1.315 . S
O109 Cd99 2.240 . S
O109 C107 1.279 . S
O110 Cd100 2.297 . S
O110 C105 1.247 . S
O111 Cd100 2.439 . S
O111 C105 1.208 . S
O112 Cd113 2.223 . S
O112 C120 1.315 . S
Cd113 O112 2.223 . S
Cd113 O116 2.297 . S
Cd113 O117 2.439 . S
Cd113 O123 2.240 1_545 S
Cd114 O115 2.240 . S
Cd114 O122 2.223 1_545 S
Cd114 O124 2.297 1_545 S
Cd114 O125 2.439 . S
O115 Cd114 2.240 . S
O115 C120 1.279 . S
O116 Cd113 2.297 . S
O116 C118 1.247 . S
O117 Cd113 2.439 . S
O117 C118 1.208 . S
C118 O116 1.247 . S
C118 O117 1.208 . S
C119 O124 1.247 1_545 S
C119 O125 1.208 . S
C120 O112 1.315 . S
C120 O115 1.279 . S
C121 O122 1.315 . S
C121 O123 1.279 . S
O122 Cd114 2.223 1_565 S
O122 C121 1.315 . S
O123 Cd113 2.240 1_565 S
O123 C121 1.279 . S
O124 Cd114 2.297 1_565 S
O124 C119 1.247 1_565 S
O125 Cd114 2.439 . S
O125 C119 1.208 . S
O126 Cd127 2.223 . S
O126 C134 1.315 . S
Cd127 O126 2.223 . S
Cd127 O130 2.297 1_545 S
Cd127 O131 2.439 1_545 S
Cd127 O137 2.240 . S
Cd128 O129 2.240 . S
Cd128 O136 2.223 . S
Cd128 O138 2.297 . S
Cd128 O139 2.439 . S
O129 Cd128 2.240 . S
O129 C134 1.279 . S
O130 Cd127 2.297 1_565 S
O130 C132 1.247 . S
O131 Cd127 2.439 1_565 S
O131 C132 1.208 . S
C132 O130 1.247 . S
C132 O131 1.208 . S
C133 O138 1.247 . S
C133 O139 1.208 . S
C134 O126 1.315 . S
C134 O129 1.279 . S
C135 O136 1.315 . S
C135 O137 1.279 . S
O136 Cd128 2.223 . S
O136 C135 1.315 . S
O137 Cd127 2.240 . S
O137 C135 1.279 . S
O138 Cd128 2.297 . S
O138 C133 1.247 . S
O139 Cd128 2.439 . S
O139 C133 1.208 . S
O140 Cd141 2.223 . S
O140 C148 1.315 . S
Cd141 O140 2.223 . S
Cd141 O144 2.297 . S
Cd141 O145 2.439 . S
Cd141 O151 2.240 1_455 S
Cd142 O143 2.240 . S
Cd142 O150 2.223 1_455 S
Cd142 O152 2.297 1_455 S
Cd142 O153 2.439 . S
O143 Cd142 2.240 . S
O143 C148 1.279 . S
O144 Cd141 2.297 . S
O144 C146 1.247 . S
O145 Cd141 2.439 . S
O145 C146 1.208 . S
C146 O144 1.247 . S
C146 O145 1.208 . S
C147 O152 1.247 1_455 S
C147 O153 1.208 . S
C148 O140 1.315 . S
C148 O143 1.279 . S
C149 O150 1.315 . S
C149 O151 1.279 . S
O150 Cd142 2.223 1_655 S
O150 C149 1.315 . S
O151 Cd141 2.240 1_655 S
O151 C149 1.279 . S
O152 Cd142 2.297 1_655 S
O152 C147 1.247 1_655 S
O153 Cd142 2.439 . S
O153 C147 1.208 . S
O154 Cd155 2.223 . S
O154 C162 1.315 . S
Cd155 O154 2.223 . S
Cd155 O158 2.297 . S
Cd155 O159 2.439 . S
Cd155 O165 2.240 . S
Cd156 O157 2.240 . S
Cd156 O164 2.223 . S
Cd156 O166 2.297 . S
Cd156 O167 2.439 . S
O157 Cd156 2.240 . S
O157 C162 1.279 . S
O158 Cd155 2.297 . S
O158 C160 1.247 . S
O159 Cd155 2.439 . S
O159 C160 1.208 . S
C160 O158 1.247 . S
C160 O159 1.208 . S
C161 O166 1.247 . S
C161 O167 1.208 . S
C162 O154 1.315 . S
C162 O157 1.279 . S
C163 O164 1.315 . S
C163 O165 1.279 . S
O164 Cd156 2.223 . S
O164 C163 1.315 . S
O165 Cd155 2.240 . S
O165 C163 1.279 . S
O166 Cd156 2.297 . S
O166 C161 1.247 . S
O167 Cd156 2.439 . S
O167 C161 1.208 . S
O168 Cd169 2.223 . S
O168 C176 1.315 . S
Cd169 O168 2.223 . S
Cd169 O172 2.297 . S
Cd169 O173 2.439 . S
Cd169 O179 2.240 . S
Cd170 O171 2.240 . S
Cd170 O178 2.223 . S
Cd170 O180 2.297 . S
Cd170 O181 2.439 . S
O171 Cd170 2.240 . S
O171 C176 1.279 . S
O172 Cd169 2.297 . S
O172 C174 1.247 . S
O173 Cd169 2.439 . S
O173 C174 1.208 . S
C174 O172 1.247 . S
C174 O173 1.208 . S
C175 O180 1.247 . S
C175 O181 1.208 . S
C176 O168 1.315 . S
C176 O171 1.279 . S
C177 O178 1.315 . S
C177 O179 1.279 . S
O178 Cd170 2.223 . S
O178 C177 1.315 . S
O179 Cd169 2.240 . S
O179 C177 1.279 . S
O180 Cd170 2.297 . S
O180 C175 1.247 . S
O181 Cd170 2.439 . S
O181 C175 1.208 . S
O182 Cd183 2.223 . S
O182 C190 1.315 . S
Cd183 O182 2.223 . S
Cd183 O186 2.297 . S
Cd183 O187 2.439 . S
Cd183 O193 2.240 . S
Cd184 O185 2.240 . S
Cd184 O192 2.223 . S
Cd184 O194 2.297 . S
Cd184 O195 2.439 . S
O185 Cd184 2.240 . S
O185 C190 1.279 . S
O186 Cd183 2.297 . S
O186 C188 1.247 . S
O187 Cd183 2.439 . S
O187 C188 1.208 . S
C188 O186 1.247 . S
C188 O187 1.208 . S
C189 O194 1.247 . S
C189 O195 1.208 . S
C190 O182 1.315 . S
C190 O185 1.279 . S
C191 O192 1.315 . S
C191 O193 1.279 . S
O192 Cd184 2.223 . S
O192 C191 1.315 . S
O193 Cd183 2.240 . S
O193 C191 1.279 . S
O194 Cd184 2.297 . S
O194 C189 1.247 . S
O195 Cd184 2.439 . S
O195 C189 1.208 . S
O196 Cd197 2.223 . S
O196 C204 1.315 . S
Cd197 O196 2.223 . S
Cd197 O200 2.297 . S
Cd197 O201 2.439 . S
Cd197 O207 2.240 . S
Cd198 O199 2.240 1_455 S
Cd198 O206 2.223 1_455 S
Cd198 O208 2.297 . S
Cd198 O209 2.439 1_455 S
O199 Cd198 2.240 1_655 S
O199 C204 1.279 . S
O200 Cd197 2.297 . S
O200 C202 1.247 . S
O201 Cd197 2.439 . S
O201 C202 1.208 . S
C202 O200 1.247 . S
C202 O201 1.208 . S
C203 O208 1.247 . S
C203 O209 1.208 1_455 S
C204 O196 1.315 . S
C204 O199 1.279 . S
C205 O206 1.315 . S
C205 O207 1.279 . S
O206 Cd198 2.223 1_655 S
O206 C205 1.315 . S
O207 Cd197 2.240 . S
O207 C205 1.279 . S
O208 Cd198 2.297 . S
O208 C203 1.247 . S
O209 Cd198 2.439 1_655 S
O209 C203 1.208 1_655 S
O210 Cd211 2.223 . S
O210 C218 1.315 . S
Cd211 O210 2.223 . S
Cd211 O214 2.297 . S
Cd211 O215 2.439 . S
Cd211 O221 2.240 . S
Cd212 O213 2.240 . S
Cd212 O220 2.223 . S
Cd212 O222 2.297 . S
Cd212 O223 2.439 . S
O213 Cd212 2.240 . S
O213 C218 1.279 . S
O214 Cd211 2.297 . S
O214 C216 1.247 . S
O215 Cd211 2.439 . S
O215 C216 1.208 . S
C216 O214 1.247 . S
C216 O215 1.208 . S
C217 O222 1.247 . S
C217 O223 1.208 . S
C218 O210 1.315 . S
C218 O213 1.279 . S
C219 O220 1.315 . S
C219 O221 1.279 . S
O220 Cd212 2.223 . S
O220 C219 1.315 . S
O221 Cd211 2.240 . S
O221 C219 1.279 . S
O222 Cd212 2.297 . S
O222 C217 1.247 . S
O223 Cd212 2.439 . S
O223 C217 1.208 . S
O224 Cd225 2.223 . S
O224 C232 1.315 . S
Cd225 O224 2.223 . S
Cd225 O228 2.297 . S
Cd225 O229 2.439 . S
Cd225 O235 2.240 . S
Cd226 O227 2.240 . S
Cd226 O234 2.223 . S
Cd226 O236 2.297 . S
Cd226 O237 2.439 . S
O227 Cd226 2.240 . S
O227 C232 1.279 . S
O228 Cd225 2.297 . S
O228 C230 1.247 . S
O229 Cd225 2.439 . S
O229 C230 1.208 . S
C230 O228 1.247 . S
C230 O229 1.208 . S
C231 O236 1.247 . S
C231 O237 1.208 . S
C232 O224 1.315 . S
C232 O227 1.279 . S
C233 O234 1.315 . S
C233 O235 1.279 . S
O234 Cd226 2.223 . S
O234 C233 1.315 . S
O235 Cd225 2.240 . S
O235 C233 1.279 . S
O236 Cd226 2.297 . S
O236 C231 1.247 . S
O237 Cd226 2.439 . S
O237 C231 1.208 . S
O238 Cd239 2.223 . S
O238 C246 1.315 . S
Cd239 O238 2.223 . S
Cd239 O242 2.297 . S
Cd239 O243 2.439 . S
Cd239 O249 2.240 . S
Cd240 O241 2.240 . S
Cd240 O248 2.223 . S
Cd240 O250 2.297 . S
Cd240 O251 2.439 . S
O241 Cd240 2.240 . S
O241 C246 1.279 . S
O242 Cd239 2.297 . S
O242 C244 1.247 . S
O243 Cd239 2.439 . S
O243 C244 1.208 . S
C244 O242 1.247 . S
C244 O243 1.208 . S
C245 O250 1.247 . S
C245 O251 1.208 . S
C246 O238 1.315 . S
C246 O241 1.279 . S
C247 O248 1.315 . S
C247 O249 1.279 . S
O248 Cd240 2.223 . S
O248 C247 1.315 . S
O249 Cd239 2.240 . S
O249 C247 1.279 . S
O250 Cd240 2.297 . S
O250 C245 1.247 . S
O251 Cd240 2.439 . S
O251 C245 1.208 . S
O252 Cd253 2.223 . S
O252 C260 1.315 . S
Cd253 O252 2.223 . S
Cd253 O256 2.297 . S
Cd253 O257 2.439 . S
Cd253 O263 2.240 . S
Cd254 O255 2.240 . S
Cd254 O262 2.223 . S
Cd254 O264 2.297 . S
Cd254 O265 2.439 . S
O255 Cd254 2.240 . S
O255 C260 1.279 . S
O256 Cd253 2.297 . S
O256 C258 1.247 . S
O257 Cd253 2.439 . S
O257 C258 1.208 . S
C258 O256 1.247 . S
C258 O257 1.208 . S
C259 O264 1.247 . S
C259 O265 1.208 . S
C260 O252 1.315 . S
C260 O255 1.279 . S
C261 O262 1.315 . S
C261 O263 1.279 . S
O262 Cd254 2.223 . S
O262 C261 1.315 . S
O263 Cd253 2.240 . S
O263 C261 1.279 . S
O264 Cd254 2.297 . S
O264 C259 1.247 . S
O265 Cd254 2.439 . S
O265 C259 1.208 . S
O266 Cd267 2.223 . S
O266 C274 1.315 . S
Cd267 O266 2.223 . S
Cd267 O270 2.297 . S
Cd267 O271 2.439 . S
Cd267 O277 2.240 . S
Cd268 O269 2.240 . S
Cd268 O276 2.223 . S
Cd268 O278 2.297 . S
Cd268 O279 2.439 . S
O269 Cd268 2.240 . S
O269 C274 1.279 . S
O270 Cd267 2.297 . S
O270 C272 1.247 . S
O271 Cd267 2.439 . S
O271 C272 1.208 . S
C272 O270 1.247 . S
C272 O271 1.208 . S
C273 O278 1.247 . S
C273 O279 1.208 . S
C274 O266 1.315 . S
C274 O269 1.279 . S
C275 O276 1.315 . S
C275 O277 1.279 . S
O276 Cd268 2.223 . S
O276 C275 1.315 . S
O277 Cd267 2.240 . S
O277 C275 1.279 . S
O278 Cd268 2.297 . S
O278 C273 1.247 . S
O279 Cd268 2.439 . S
O279 C273 1.208 . S
O280 Cd281 2.223 . S
O280 C288 1.315 . S
Cd281 O280 2.223 . S
Cd281 O284 2.297 . S
Cd281 O285 2.439 . S
Cd281 O291 2.240 . S
Cd282 O283 2.240 . S
Cd282 O290 2.223 . S
Cd282 O292 2.297 . S
Cd282 O293 2.439 . S
O283 Cd282 2.240 . S
O283 C288 1.279 . S
O284 Cd281 2.297 . S
O284 C286 1.247 . S
O285 Cd281 2.439 . S
O285 C286 1.208 . S
C286 O284 1.247 . S
C286 O285 1.208 . S
C287 O292 1.247 . S
C287 O293 1.208 . S
C288 O280 1.315 . S
C288 O283 1.279 . S
C289 O290 1.315 . S
C289 O291 1.279 . S
O290 Cd282 2.223 . S
O290 C289 1.315 . S
O291 Cd281 2.240 . S
O291 C289 1.279 . S
O292 Cd282 2.297 . S
O292 C287 1.247 . S
O293 Cd282 2.439 . S
O293 C287 1.208 . S
O294 Cd295 2.223 . S
O294 C302 1.315 . S
Cd295 O294 2.223 . S
Cd295 O298 2.297 . S
Cd295 O299 2.439 . S
Cd295 O305 2.240 . S
Cd296 O297 2.240 . S
Cd296 O304 2.223 . S
Cd296 O306 2.297 . S
Cd296 O307 2.439 . S
O297 Cd296 2.240 . S
O297 C302 1.279 . S
O298 Cd295 2.297 . S
O298 C300 1.247 . S
O299 Cd295 2.439 . S
O299 C300 1.208 . S
C300 O298 1.247 . S
C300 O299 1.208 . S
C301 O306 1.247 . S
C301 O307 1.208 . S
C302 O294 1.315 . S
C302 O297 1.279 . S
C303 O304 1.315 . S
C303 O305 1.279 . S
O304 Cd296 2.223 . S
O304 C303 1.315 . S
O305 Cd295 2.240 . S
O305 C303 1.279 . S
O306 Cd296 2.297 . S
O306 C301 1.247 . S
O307 Cd296 2.439 . S
O307 C301 1.208 . S
O308 Cd309 2.223 . S
O308 C316 1.315 . S
Cd309 O308 2.223 . S
Cd309 O312 2.297 . S
Cd309 O313 2.439 . S
Cd309 O319 2.240 . S
Cd310 O311 2.240 . S
Cd310 O318 2.223 . S
Cd310 O320 2.297 . S
Cd310 O321 2.439 . S
O311 Cd310 2.240 . S
O311 C316 1.279 . S
O312 Cd309 2.297 . S
O312 C314 1.247 . S
O313 Cd309 2.439 . S
O313 C314 1.208 . S
C314 O312 1.247 . S
C314 O313 1.208 . S
C315 O320 1.247 . S
C315 O321 1.208 . S
C316 O308 1.315 . S
C316 O311 1.279 . S
C317 O318 1.315 . S
C317 O319 1.279 . S
O318 Cd310 2.223 . S
O318 C317 1.315 . S
O319 Cd309 2.240 . S
O319 C317 1.279 . S
O320 Cd310 2.297 . S
O320 C315 1.247 . S
O321 Cd310 2.439 . S
O321 C315 1.208 . S
O322 Cd323 2.223 . S
O322 C330 1.315 . S
Cd323 O322 2.223 . S
Cd323 O326 2.297 . S
Cd323 O327 2.439 . S
Cd323 O333 2.240 . S
Cd324 O325 2.240 1_455 S
Cd324 O332 2.223 1_455 S
Cd324 O334 2.297 . S
Cd324 O335 2.439 1_455 S
O325 Cd324 2.240 1_655 S
O325 C330 1.279 . S
O326 Cd323 2.297 . S
O326 C328 1.247 . S
O327 Cd323 2.439 . S
O327 C328 1.208 . S
C328 O326 1.247 . S
C328 O327 1.208 . S
C329 O334 1.247 . S
C329 O335 1.208 1_455 S
C330 O322 1.315 . S
C330 O325 1.279 . S
C331 O332 1.315 . S
C331 O333 1.279 . S
O332 Cd324 2.223 1_655 S
O332 C331 1.315 . S
O333 Cd323 2.240 . S
O333 C331 1.279 . S
O334 Cd324 2.297 . S
O334 C329 1.247 . S
O335 Cd324 2.439 1_655 S
O335 C329 1.208 1_655 S
O336 Cd337 2.223 . S
O336 C344 1.315 . S
Cd337 O336 2.223 . S
Cd337 O340 2.297 . S
Cd337 O341 2.439 . S
Cd337 O347 2.240 . S
Cd338 O339 2.240 . S
Cd338 O346 2.223 . S
Cd338 O348 2.297 . S
Cd338 O349 2.439 . S
O339 Cd338 2.240 . S
O339 C344 1.279 . S
O340 Cd337 2.297 . S
O340 C342 1.247 . S
O341 Cd337 2.439 . S
O341 C342 1.208 . S
C342 O340 1.247 . S
C342 O341 1.208 . S
C343 O348 1.247 . S
C343 O349 1.208 . S
C344 O336 1.315 . S
C344 O339 1.279 . S
C345 O346 1.315 . S
C345 O347 1.279 . S
O346 Cd338 2.223 . S
O346 C345 1.315 . S
O347 Cd337 2.240 . S
O347 C345 1.279 . S
O348 Cd338 2.297 . S
O348 C343 1.247 . S
O349 Cd338 2.439 . S
O349 C343 1.208 . S
O350 Cd351 2.223 . S
O350 C358 1.315 . S
Cd351 O350 2.223 . S
Cd351 O354 2.297 . S
Cd351 O355 2.439 . S
Cd351 O361 2.240 . S
Cd352 O353 2.240 . S
Cd352 O360 2.223 . S
Cd352 O362 2.297 . S
Cd352 O363 2.439 . S
O353 Cd352 2.240 . S
O353 C358 1.279 . S
O354 Cd351 2.297 . S
O354 C356 1.247 . S
O355 Cd351 2.439 . S
O355 C356 1.208 . S
C356 O354 1.247 . S
C356 O355 1.208 . S
C357 O362 1.247 . S
C357 O363 1.208 . S
C358 O350 1.315 . S
C358 O353 1.279 . S
C359 O360 1.315 . S
C359 O361 1.279 . S
O360 Cd352 2.223 . S
O360 C359 1.315 . S
O361 Cd351 2.240 . S
O361 C359 1.279 . S
O362 Cd352 2.297 . S
O362 C357 1.247 . S
O363 Cd352 2.439 . S
O363 C357 1.208 . S
O364 Cd365 2.223 . S
O364 C372 1.315 . S
Cd365 O364 2.223 . S
Cd365 O368 2.297 . S
Cd365 O369 2.439 . S
Cd365 O375 2.240 . S
Cd366 O367 2.240 . S
Cd366 O374 2.223 . S
Cd366 O376 2.297 . S
Cd366 O377 2.439 . S
O367 Cd366 2.240 . S
O367 C372 1.279 . S
O368 Cd365 2.297 . S
O368 C370 1.247 . S
O369 Cd365 2.439 . S
O369 C370 1.208 . S
C370 O368 1.247 . S
C370 O369 1.208 . S
C371 O376 1.247 . S
C371 O377 1.208 . S
C372 O364 1.315 . S
C372 O367 1.279 . S
C373 O374 1.315 . S
C373 O375 1.279 . S
O374 Cd366 2.223 . S
O374 C373 1.315 . S
O375 Cd365 2.240 . S
O375 C373 1.279 . S
O376 Cd366 2.297 . S
O376 C371 1.247 . S
O377 Cd366 2.439 . S
O377 C371 1.208 . S
O378 Cd379 2.223 . S
O378 C386 1.315 . S
Cd379 O378 2.223 . S
Cd379 O382 2.297 . S
Cd379 O383 2.439 . S
Cd379 O389 2.240 . S
Cd380 O381 2.240 . S
Cd380 O388 2.223 . S
Cd380 O390 2.297 . S
Cd380 O391 2.439 . S
O381 Cd380 2.240 . S
O381 C386 1.279 . S
O382 Cd379 2.297 . S
O382 C384 1.247 . S
O383 Cd379 2.439 . S
O383 C384 1.208 . S
C384 O382 1.247 . S
C384 O383 1.208 . S
C385 O390 1.247 . S
C385 O391 1.208 . S
C386 O378 1.315 . S
C386 O381 1.279 . S
C387 O388 1.315 . S
C387 O389 1.279 . S
O388 Cd380 2.223 . S
O388 C387 1.315 . S
O389 Cd379 2.240 . S
O389 C387 1.279 . S
O390 Cd380 2.297 . S
O390 C385 1.247 . S
O391 Cd380 2.439 . S
O391 C385 1.208 . S
O392 Cd393 2.223 . S
O392 C400 1.315 . S
Cd393 O392 2.223 . S
Cd393 O396 2.297 . S
Cd393 O397 2.439 . S
Cd393 O403 2.240 . S
Cd394 O395 2.240 1_545 S
Cd394 O402 2.223 1_545 S
Cd394 O404 2.297 . S
Cd394 O405 2.439 1_545 S
O395 Cd394 2.240 1_565 S
O395 C400 1.279 . S
O396 Cd393 2.297 . S
O396 C398 1.247 . S
O397 Cd393 2.439 . S
O397 C398 1.208 . S
C398 O396 1.247 . S
C398 O397 1.208 . S
C399 O404 1.247 . S
C399 O405 1.208 1_545 S
C400 O392 1.315 . S
C400 O395 1.279 . S
C401 O402 1.315 . S
C401 O403 1.279 . S
O402 Cd394 2.223 1_565 S
O402 C401 1.315 . S
O403 Cd393 2.240 . S
O403 C401 1.279 . S
O404 Cd394 2.297 . S
O404 C399 1.247 . S
O405 Cd394 2.439 1_565 S
O405 C399 1.208 1_565 S
O406 Cd407 2.223 . S
O406 C414 1.315 . S
Cd407 O406 2.223 . S
Cd407 O410 2.297 . S
Cd407 O411 2.439 . S
Cd407 O417 2.240 . S
Cd408 O409 2.240 . S
Cd408 O416 2.223 . S
Cd408 O418 2.297 . S
Cd408 O419 2.439 . S
O409 Cd408 2.240 . S
O409 C414 1.279 . S
O410 Cd407 2.297 . S
O410 C412 1.247 . S
O411 Cd407 2.439 . S
O411 C412 1.208 . S
C412 O410 1.247 . S
C412 O411 1.208 . S
C413 O418 1.247 . S
C413 O419 1.208 . S
C414 O406 1.315 . S
C414 O409 1.279 . S
C415 O416 1.315 . S
C415 O417 1.279 . S
O416 Cd408 2.223 . S
O416 C415 1.315 . S
O417 Cd407 2.240 . S
O417 C415 1.279 . S
O418 Cd408 2.297 . S
O418 C413 1.247 . S
O419 Cd408 2.439 . S
O419 C413 1.208 . S
O420 Cd421 2.223 . S
O420 C428 1.315 . S
Cd421 O420 2.223 . S
Cd421 O424 2.297 . S
Cd421 O425 2.439 . S
Cd421 O431 2.240 . S
Cd422 O423 2.240 . S
Cd422 O430 2.223 . S
Cd422 O432 2.297 . S
Cd422 O433 2.439 . S
O423 Cd422 2.240 . S
O423 C428 1.279 . S
O424 Cd421 2.297 . S
O424 C426 1.247 . S
O425 Cd421 2.439 . S
O425 C426 1.208 . S
C426 O424 1.247 . S
C426 O425 1.208 . S
C427 O432 1.247 . S
C427 O433 1.208 . S
C428 O420 1.315 . S
C428 O423 1.279 . S
C429 O430 1.315 . S
C429 O431 1.279 . S
O430 Cd422 2.223 . S
O430 C429 1.315 . S
O431 Cd421 2.240 . S
O431 C429 1.279 . S
O432 Cd422 2.297 . S
O432 C427 1.247 . S
O433 Cd422 2.439 . S
O433 C427 1.208 . S
O434 Cd435 2.223 . S
O434 C442 1.315 . S
Cd435 O434 2.223 . S
Cd435 O438 2.297 . S
Cd435 O439 2.439 . S
Cd435 O445 2.240 . S
Cd436 O437 2.240 1_545 S
Cd436 O444 2.223 1_545 S
Cd436 O446 2.297 . S
Cd436 O447 2.439 1_545 S
O437 Cd436 2.240 1_565 S
O437 C442 1.279 . S
O438 Cd435 2.297 . S
O438 C440 1.247 . S
O439 Cd435 2.439 . S
O439 C440 1.208 . S
C440 O438 1.247 . S
C440 O439 1.208 . S
C441 O446 1.247 . S
C441 O447 1.208 1_545 S
C442 O434 1.315 . S
C442 O437 1.279 . S
C443 O444 1.315 . S
C443 O445 1.279 . S
O444 Cd436 2.223 1_565 S
O444 C443 1.315 . S
O445 Cd435 2.240 . S
O445 C443 1.279 . S
O446 Cd436 2.297 . S
O446 C441 1.247 . S
O447 Cd436 2.439 1_565 S
O447 C441 1.208 1_565 S
O448 Cd449 2.223 . S
O448 C456 1.315 . S
Cd449 O448 2.223 . S
Cd449 O452 2.297 . S
Cd449 O453 2.439 . S
Cd449 O459 2.240 . S
Cd450 O451 2.240 . S
Cd450 O458 2.223 . S
Cd450 O460 2.297 . S
Cd450 O461 2.439 . S
O451 Cd450 2.240 . S
O451 C456 1.279 . S
O452 Cd449 2.297 . S
O452 C454 1.247 . S
O453 Cd449 2.439 . S
O453 C454 1.208 . S
C454 O452 1.247 . S
C454 O453 1.208 . S
C455 O460 1.247 . S
C455 O461 1.208 . S
C456 O448 1.315 . S
C456 O451 1.279 . S
C457 O458 1.315 . S
C457 O459 1.279 . S
O458 Cd450 2.223 . S
O458 C457 1.315 . S
O459 Cd449 2.240 . S
O459 C457 1.279 . S
O460 Cd450 2.297 . S
O460 C455 1.247 . S
O461 Cd450 2.439 . S
O461 C455 1.208 . S
O462 Cd463 2.223 . S
O462 C470 1.315 . S
Cd463 O462 2.223 . S
Cd463 O466 2.297 . S
Cd463 O467 2.439 . S
Cd463 O473 2.240 . S
Cd464 O465 2.240 . S
Cd464 O472 2.223 . S
Cd464 O474 2.297 . S
Cd464 O475 2.439 . S
O465 Cd464 2.240 . S
O465 C470 1.279 . S
O466 Cd463 2.297 . S
O466 C468 1.247 . S
O467 Cd463 2.439 . S
O467 C468 1.208 . S
C468 O466 1.247 . S
C468 O467 1.208 . S
C469 O474 1.247 . S
C469 O475 1.208 . S
C470 O462 1.315 . S
C470 O465 1.279 . S
C471 O472 1.315 . S
C471 O473 1.279 . S
O472 Cd464 2.223 . S
O472 C471 1.315 . S
O473 Cd463 2.240 . S
O473 C471 1.279 . S
O474 Cd464 2.297 . S
O474 C469 1.247 . S
O475 Cd464 2.439 . S
O475 C469 1.208 . S
O476 Cd477 2.223 . S
O476 C484 1.315 . S
Cd477 O476 2.223 . S
Cd477 O480 2.297 . S
Cd477 O481 2.439 . S
Cd477 O487 2.240 . S
Cd478 O479 2.240 . S
Cd478 O486 2.223 . S
Cd478 O488 2.297 . S
Cd478 O489 2.439 . S
O479 Cd478 2.240 . S
O479 C484 1.279 . S
O480 Cd477 2.297 . S
O480 C482 1.247 . S
O481 Cd477 2.439 . S
O481 C482 1.208 . S
C482 O480 1.247 . S
C482 O481 1.208 . S
C483 O488 1.247 . S
C483 O489 1.208 . S
C484 O476 1.315 . S
C484 O479 1.279 . S
C485 O486 1.315 . S
C485 O487 1.279 . S
O486 Cd478 2.223 . S
O486 C485 1.315 . S
O487 Cd477 2.240 . S
O487 C485 1.279 . S
O488 Cd478 2.297 . S
O488 C483 1.247 . S
O489 Cd478 2.439 . S
O489 C483 1.208 . S
O490 Cd491 2.223 . S
O490 C498 1.315 . S
Cd491 O490 2.223 . S
Cd491 O494 2.297 . S
Cd491 O495 2.439 . S
Cd491 O501 2.240 . S
Cd492 O493 2.240 . S
Cd492 O500 2.223 . S
Cd492 O502 2.297 . S
Cd492 O503 2.439 . S
O493 Cd492 2.240 . S
O493 C498 1.279 . S
O494 Cd491 2.297 . S
O494 C496 1.247 . S
O495 Cd491 2.439 . S
O495 C496 1.208 . S
C496 O494 1.247 . S
C496 O495 1.208 . S
C497 O502 1.247 . S
C497 O503 1.208 . S
C498 O490 1.315 . S
C498 O493 1.279 . S
C499 O500 1.315 . S
C499 O501 1.279 . S
O500 Cd492 2.223 . S
O500 C499 1.315 . S
O501 Cd491 2.240 . S
O501 C499 1.279 . S
O502 Cd492 2.297 . S
O502 C497 1.247 . S
O503 Cd492 2.439 . S
O503 C497 1.208 . S
C504 C505 1.369 . S
C504 C506 1.419 . S
C504 H508 0.930 . S
C505 C504 1.369 . S
C505 C514 1.429 . S
C506 C504 1.419 . S
C506 C507 1.363 . S
C506 H509 0.929 . S
C507 C506 1.363 . S
C507 C513 1.428 . S
H508 C504 0.930 . S
H509 C506 0.929 . S
S510 N511 1.613 . S
S510 N512 1.610 . S
N511 S510 1.613 . S
N511 C514 1.350 . S
N512 S510 1.610 . S
N512 C513 1.351 . S
C513 C507 1.428 . S
C513 N512 1.351 . S
C513 C514 1.434 . S
C514 C505 1.429 . S
C514 N511 1.350 . S
C514 C513 1.434 . S
C515 C516 1.369 . S
C515 C517 1.419 . S
C515 H519 0.930 . S
C516 C515 1.369 . S
C516 C525 1.429 . S
C517 C515 1.419 . S
C517 C518 1.363 . S
C517 H520 0.929 . S
C518 C517 1.363 . S
C518 C524 1.428 . S
H519 C515 0.930 . S
H520 C517 0.929 . S
S521 N522 1.613 . S
S521 N523 1.610 . S
N522 S521 1.613 . S
N522 C525 1.350 . S
N523 S521 1.610 . S
N523 C524 1.351 . S
C524 C518 1.428 . S
C524 N523 1.351 . S
C524 C525 1.434 . S
C525 C516 1.429 . S
C525 N522 1.350 . S
C525 C524 1.434 . S
C526 C527 1.369 . S
C526 C528 1.419 . S
C526 H530 0.930 . S
C527 C526 1.369 . S
C527 C536 1.429 . S
C528 C526 1.419 . S
C528 C529 1.363 . S
C528 H531 0.929 . S
C529 C528 1.363 . S
C529 C535 1.428 . S
H530 C526 0.930 . S
H531 C528 0.929 . S
S532 N533 1.613 . S
S532 N534 1.610 . S
N533 S532 1.613 . S
N533 C536 1.350 . S
N534 S532 1.610 . S
N534 C535 1.351 . S
C535 C529 1.428 . S
C535 N534 1.351 . S
C535 C536 1.434 . S
C536 C527 1.429 . S
C536 N533 1.350 . S
C536 C535 1.434 . S
C537 C538 1.369 . S
C537 C539 1.419 . S
C537 H541 0.930 . S
C538 C537 1.369 . S
C538 C547 1.429 . S
C539 C537 1.419 . S
C539 C540 1.363 . S
C539 H542 0.929 . S
C540 C539 1.363 . S
C540 C546 1.428 . S
H541 C537 0.930 . S
H542 C539 0.929 . S
S543 N544 1.613 . S
S543 N545 1.610 . S
N544 S543 1.613 . S
N544 C547 1.350 . S
N545 S543 1.610 . S
N545 C546 1.351 . S
C546 C540 1.428 . S
C546 N545 1.351 . S
C546 C547 1.434 . S
C547 C538 1.429 . S
C547 N544 1.350 . S
C547 C546 1.434 . S
C548 C549 1.369 . S
C548 C550 1.419 . S
C548 H552 0.930 . S
C549 C548 1.369 . S
C549 C558 1.429 . S
C550 C548 1.419 . S
C550 C551 1.363 . S
C550 H553 0.929 . S
C551 C550 1.363 . S
C551 C557 1.428 . S
H552 C548 0.930 . S
H553 C550 0.929 . S
S554 N555 1.613 . S
S554 N556 1.610 . S
N555 S554 1.613 . S
N555 C558 1.350 . S
N556 S554 1.610 . S
N556 C557 1.351 . S
C557 C551 1.428 . S
C557 N556 1.351 . S
C557 C558 1.434 . S
C558 C549 1.429 . S
C558 N555 1.350 . S
C558 C557 1.434 . S
C559 C560 1.369 . S
C559 C561 1.419 . S
C559 H563 0.930 . S
C560 C559 1.369 . S
C560 C569 1.429 . S
C561 C559 1.419 . S
C561 C562 1.363 . S
C561 H564 0.929 . S
C562 C561 1.363 . S
C562 C568 1.428 . S
H563 C559 0.930 . S
H564 C561 0.929 . S
S565 N566 1.613 . S
S565 N567 1.610 . S
N566 S565 1.613 . S
N566 C569 1.350 . S
N567 S565 1.610 . S
N567 C568 1.351 . S
C568 C562 1.428 . S
C568 N567 1.351 . S
C568 C569 1.434 . S
C569 C560 1.429 . S
C569 N566 1.350 . S
C569 C568 1.434 . S
C570 C571 1.369 . S
C570 C572 1.419 . S
C570 H574 0.930 . S
C571 C570 1.369 . S
C571 C580 1.429 . S
C572 C570 1.419 . S
C572 C573 1.363 . S
C572 H575 0.929 . S
C573 C572 1.363 . S
C573 C579 1.428 . S
H574 C570 0.930 . S
H575 C572 0.929 . S
S576 N577 1.613 . S
S576 N578 1.610 . S
N577 S576 1.613 . S
N577 C580 1.350 . S
N578 S576 1.610 . S
N578 C579 1.351 . S
C579 C573 1.428 . S
C579 N578 1.351 . S
C579 C580 1.434 . S
C580 C571 1.429 . S
C580 N577 1.350 . S
C580 C579 1.434 . S
C581 C582 1.369 . S
C581 C583 1.419 . S
C581 H585 0.930 . S
C582 C581 1.369 . S
C582 C591 1.429 . S
C583 C581 1.419 . S
C583 C584 1.363 . S
C583 H586 0.929 . S
C584 C583 1.363 . S
C584 C590 1.428 . S
H585 C581 0.930 . S
H586 C583 0.929 . S
S587 N588 1.613 . S
S587 N589 1.610 . S
N588 S587 1.613 . S
N588 C591 1.350 . S
N589 S587 1.610 . S
N589 C590 1.351 . S
C590 C584 1.428 . S
C590 N589 1.351 . S
C590 C591 1.434 . S
C591 C582 1.429 . S
C591 N588 1.350 . S
C591 C590 1.434 . S
C592 C593 1.369 . S
C592 C594 1.419 . S
C592 H596 0.930 . S
C593 C592 1.369 . S
C593 C602 1.429 . S
C594 C592 1.419 . S
C594 C595 1.363 . S
C594 H597 0.929 . S
C595 C594 1.363 . S
C595 C601 1.428 . S
H596 C592 0.930 . S
H597 C594 0.929 . S
S598 N599 1.613 . S
S598 N600 1.610 . S
N599 S598 1.613 . S
N599 C602 1.350 . S
N600 S598 1.610 . S
N600 C601 1.351 . S
C601 C595 1.428 . S
C601 N600 1.351 . S
C601 C602 1.434 . S
C602 C593 1.429 . S
C602 N599 1.350 . S
C602 C601 1.434 . S
C603 C604 1.369 . S
C603 C605 1.419 . S
C603 H607 0.930 . S
C604 C603 1.369 . S
C604 C613 1.429 . S
C605 C603 1.419 . S
C605 C606 1.363 . S
C605 H608 0.929 . S
C606 C605 1.363 . S
C606 C612 1.428 . S
H607 C603 0.930 . S
H608 C605 0.929 . S
S609 N610 1.613 . S
S609 N611 1.610 . S
N610 S609 1.613 . S
N610 C613 1.350 . S
N611 S609 1.610 . S
N611 C612 1.351 . S
C612 C606 1.428 . S
C612 N611 1.351 . S
C612 C613 1.434 . S
C613 C604 1.429 . S
C613 N610 1.350 . S
C613 C612 1.434 . S
C614 C615 1.369 . S
C614 C616 1.419 . S
C614 H618 0.930 . S
C615 C614 1.369 . S
C615 C624 1.429 . S
C616 C614 1.419 . S
C616 C617 1.363 . S
C616 H619 0.929 . S
C617 C616 1.363 . S
C617 C623 1.428 . S
H618 C614 0.930 . S
H619 C616 0.929 . S
S620 N621 1.613 . S
S620 N622 1.610 . S
N621 S620 1.613 . S
N621 C624 1.350 . S
N622 S620 1.610 . S
N622 C623 1.351 . S
C623 C617 1.428 . S
C623 N622 1.351 . S
C623 C624 1.434 . S
C624 C615 1.429 . S
C624 N621 1.350 . S
C624 C623 1.434 . S
C625 C626 1.369 . S
C625 C627 1.419 . S
C625 H629 0.930 . S
C626 C625 1.369 . S
C626 C635 1.429 . S
C627 C625 1.419 . S
C627 C628 1.363 . S
C627 H630 0.929 . S
C628 C627 1.363 . S
C628 C634 1.428 . S
H629 C625 0.930 . S
H630 C627 0.929 . S
S631 N632 1.613 . S
S631 N633 1.610 . S
N632 S631 1.613 . S
N632 C635 1.350 . S
N633 S631 1.610 . S
N633 C634 1.351 . S
C634 C628 1.428 . S
C634 N633 1.351 . S
C634 C635 1.434 . S
C635 C626 1.429 . S
C635 N632 1.350 . S
C635 C634 1.434 . S
C636 C637 1.369 . S
C636 C638 1.419 . S
C636 H640 0.930 . S
C637 C636 1.369 . S
C637 C646 1.429 . S
C638 C636 1.419 . S
C638 C639 1.363 . S
C638 H641 0.929 . S
C639 C638 1.363 . S
C639 C645 1.428 . S
H640 C636 0.930 . S
H641 C638 0.929 . S
S642 N643 1.613 . S
S642 N644 1.610 . S
N643 S642 1.613 . S
N643 C646 1.350 1_545 S
N644 S642 1.610 . S
N644 C645 1.351 1_545 S
C645 C639 1.428 . S
C645 N644 1.351 1_565 S
C645 C646 1.434 . S
C646 C637 1.429 . S
C646 N643 1.350 1_565 S
C646 C645 1.434 . S
C647 C648 1.369 . S
C647 C649 1.419 . S
C647 H651 0.930 . S
C648 C647 1.369 . S
C648 C657 1.429 . S
C649 C647 1.419 . S
C649 C650 1.363 . S
C649 H652 0.929 . S
C650 C649 1.363 . S
C650 C656 1.428 . S
H651 C647 0.930 . S
H652 C649 0.929 . S
S653 N654 1.613 . S
S653 N655 1.610 . S
N654 S653 1.613 . S
N654 C657 1.350 . S
N655 S653 1.610 . S
N655 C656 1.351 . S
C656 C650 1.428 . S
C656 N655 1.351 . S
C656 C657 1.434 . S
C657 C648 1.429 . S
C657 N654 1.350 . S
C657 C656 1.434 . S
C658 C659 1.369 . S
C658 C660 1.419 . S
C658 H662 0.930 . S
C659 C658 1.369 . S
C659 C668 1.429 . S
C660 C658 1.419 . S
C660 C661 1.363 . S
C660 H663 0.929 . S
C661 C660 1.363 . S
C661 C667 1.428 . S
H662 C658 0.930 . S
H663 C660 0.929 . S
S664 N665 1.613 . S
S664 N666 1.610 . S
N665 S664 1.613 . S
N665 C668 1.350 . S
N666 S664 1.610 . S
N666 C667 1.351 . S
C667 C661 1.428 . S
C667 N666 1.351 . S
C667 C668 1.434 . S
C668 C659 1.429 . S
C668 N665 1.350 . S
C668 C667 1.434 . S
C669 C670 1.369 . S
C669 C671 1.419 . S
C669 H673 0.930 . S
C670 C669 1.369 . S
C670 C679 1.429 . S
C671 C669 1.419 . S
C671 C672 1.363 . S
C671 H674 0.929 . S
C672 C671 1.363 . S
C672 C678 1.428 . S
H673 C669 0.930 . S
H674 C671 0.929 . S
S675 N676 1.613 . S
S675 N677 1.610 . S
N676 S675 1.613 . S
N676 C679 1.350 . S
N677 S675 1.610 . S
N677 C678 1.351 . S
C678 C672 1.428 . S
C678 N677 1.351 . S
C678 C679 1.434 . S
C679 C670 1.429 . S
C679 N676 1.350 . S
C679 C678 1.434 . S
C680 C681 1.369 . S
C680 C682 1.419 . S
C680 H684 0.930 . S
C681 C680 1.369 . S
C681 C690 1.429 . S
C682 C680 1.419 . S
C682 C683 1.363 . S
C682 H685 0.929 . S
C683 C682 1.363 . S
C683 C689 1.428 . S
H684 C680 0.930 . S
H685 C682 0.929 . S
S686 N687 1.613 . S
S686 N688 1.610 . S
N687 S686 1.613 . S
N687 C690 1.350 . S
N688 S686 1.610 . S
N688 C689 1.351 . S
C689 C683 1.428 . S
C689 N688 1.351 . S
C689 C690 1.434 . S
C690 C681 1.429 . S
C690 N687 1.350 . S
C690 C689 1.434 . S
C691 C692 1.369 . S
C691 C693 1.419 . S
C691 H695 0.930 . S
C692 C691 1.369 . S
C692 C701 1.429 . S
C693 C691 1.419 . S
C693 C694 1.363 . S
C693 H696 0.929 . S
C694 C693 1.363 . S
C694 C700 1.428 . S
H695 C691 0.930 . S
H696 C693 0.929 . S
S697 N698 1.613 . S
S697 N699 1.610 . S
N698 S697 1.613 . S
N698 C701 1.350 . S
N699 S697 1.610 . S
N699 C700 1.351 . S
C700 C694 1.428 . S
C700 N699 1.351 . S
C700 C701 1.434 . S
C701 C692 1.429 . S
C701 N698 1.350 . S
C701 C700 1.434 . S
C702 C703 1.410 . S
C702 C704 1.419 . S
C702 H706 0.930 . S
C703 C702 1.410 . S
C703 C712 1.401 1_655 S
C704 C702 1.419 . S
C704 C705 1.363 . S
C704 H707 0.929 . S
C705 C704 1.363 . S
C705 C711 1.428 1_655 S
H706 C702 0.930 . S
H707 C704 0.929 . S
S708 N709 1.613 . S
S708 N710 1.610 . S
N709 S708 1.613 . S
N709 C712 1.350 . S
N710 S708 1.610 . S
N710 C711 1.351 . S
C711 C705 1.428 1_455 S
C711 N710 1.351 . S
C711 C712 1.434 . S
C712 C703 1.401 1_455 S
C712 N709 1.350 . S
C712 C711 1.434 . S
C713 C714 1.369 . S
C713 C715 1.419 . S
C713 H717 0.930 . S
C714 C713 1.369 . S
C714 C723 1.429 . S
C715 C713 1.419 . S
C715 C716 1.363 . S
C715 H718 0.929 . S
C716 C715 1.363 . S
C716 C722 1.428 . S
H717 C713 0.930 . S
H718 C715 0.929 . S
S719 N720 1.613 . S
S719 N721 1.610 . S
N720 S719 1.613 . S
N720 C723 1.350 . S
N721 S719 1.610 . S
N721 C722 1.351 . S
C722 C716 1.428 . S
C722 N721 1.351 . S
C722 C723 1.434 . S
C723 C714 1.429 . S
C723 N720 1.350 . S
C723 C722 1.434 . S
C724 C725 1.369 . S
C724 C726 1.419 . S
C724 H728 0.930 . S
C725 C724 1.369 . S
C725 C734 1.429 . S
C726 C724 1.419 . S
C726 C727 1.363 . S
C726 H729 0.929 . S
C727 C726 1.363 . S
C727 C733 1.428 . S
H728 C724 0.930 . S
H729 C726 0.929 . S
S730 N731 1.613 . S
S730 N732 1.610 . S
N731 S730 1.613 . S
N731 C734 1.350 . S
N732 S730 1.610 . S
N732 C733 1.351 . S
C733 C727 1.428 . S
C733 N732 1.351 . S
C733 C734 1.434 . S
C734 C725 1.429 . S
C734 N731 1.350 . S
C734 C733 1.434 . S
C735 C736 1.406 . S
C735 C737 1.419 . S
C735 H739 0.930 . S
C736 C735 1.406 . S
C736 C745 1.404 1_565 S
C737 C735 1.419 . S
C737 C738 1.363 . S
C737 H740 0.929 . S
C738 C737 1.363 . S
C738 C744 1.428 1_565 S
H739 C735 0.930 . S
H740 C737 0.929 . S
S741 N742 1.613 . S
S741 N743 1.610 . S
N742 S741 1.613 . S
N742 C745 1.350 . S
N743 S741 1.610 . S
N743 C744 1.351 . S
C744 C738 1.428 1_545 S
C744 N743 1.351 . S
C744 C745 1.434 . S
C745 C736 1.404 1_545 S
C745 N742 1.350 . S
C745 C744 1.434 . S
C746 C747 1.369 . S
C746 C748 1.419 . S
C746 H750 0.930 . S
C747 C746 1.369 . S
C747 C756 1.429 . S
C748 C746 1.419 . S
C748 C749 1.363 . S
C748 H751 0.929 . S
C749 C748 1.363 . S
C749 C755 1.428 . S
H750 C746 0.930 . S
H751 C748 0.929 . S
S752 N753 1.613 . S
S752 N754 1.610 . S
N753 S752 1.613 . S
N753 C756 1.350 . S
N754 S752 1.610 . S
N754 C755 1.351 . S
C755 C749 1.428 . S
C755 N754 1.351 . S
C755 C756 1.434 . S
C756 C747 1.429 . S
C756 N753 1.350 . S
C756 C755 1.434 . S
C757 C758 1.369 . S
C757 C759 1.419 . S
C757 H761 0.930 . S
C758 C757 1.369 . S
C758 C767 1.429 . S
C759 C757 1.419 . S
C759 C760 1.363 . S
C759 H762 0.929 . S
C760 C759 1.363 . S
C760 C766 1.428 . S
H761 C757 0.930 . S
H762 C759 0.929 . S
S763 N764 1.613 . S
S763 N765 1.610 . S
N764 S763 1.613 . S
N764 C767 1.350 . S
N765 S763 1.610 . S
N765 C766 1.351 . S
C766 C760 1.428 . S
C766 N765 1.351 . S
C766 C767 1.434 . S
C767 C758 1.429 . S
C767 N764 1.350 . S
C767 C766 1.434 . S
C768 C769 1.369 . S
C768 C770 1.419 . S
C768 H772 0.930 . S
C769 C768 1.369 . S
C769 C778 1.429 . S
C770 C768 1.419 . S
C770 C771 1.363 . S
C770 H773 0.929 . S
C771 C770 1.363 . S
C771 C777 1.428 . S
H772 C768 0.930 . S
H773 C770 0.929 . S
S774 N775 1.613 . S
S774 N776 1.610 . S
N775 S774 1.613 . S
N775 C778 1.350 . S
N776 S774 1.610 . S
N776 C777 1.351 . S
C777 C771 1.428 . S
C777 N776 1.351 . S
C777 C778 1.434 . S
C778 C769 1.429 . S
C778 N775 1.350 . S
C778 C777 1.434 . S
C779 C780 1.369 . S
C779 C781 1.419 . S
C779 H783 0.930 . S
C780 C779 1.369 . S
C780 C789 1.429 . S
C781 C779 1.419 . S
C781 C782 1.363 . S
C781 H784 0.929 . S
C782 C781 1.363 . S
C782 C788 1.428 . S
H783 C779 0.930 . S
H784 C781 0.929 . S
S785 N786 1.613 . S
S785 N787 1.610 . S
N786 S785 1.613 . S
N786 C789 1.350 . S
N787 S785 1.610 . S
N787 C788 1.351 . S
C788 C782 1.428 . S
C788 N787 1.351 . S
C788 C789 1.434 . S
C789 C780 1.429 . S
C789 N786 1.350 . S
C789 C788 1.434 . S
C790 C791 1.369 1_545 S
C790 C792 1.419 . S
C790 H794 0.930 . S
C791 C790 1.369 1_565 S
C791 C800 1.429 . S
C792 C790 1.419 . S
C792 C793 1.363 1_545 S
C792 H795 0.929 . S
C793 C792 1.363 1_565 S
C793 C799 1.428 . S
H794 C790 0.930 . S
H795 C792 0.929 . S
S796 N797 1.613 . S
S796 N798 1.610 . S
N797 S796 1.613 . S
N797 C800 1.350 . S
N798 S796 1.610 . S
N798 C799 1.351 . S
C799 C793 1.428 . S
C799 N798 1.351 . S
C799 C800 1.434 . S
C800 C791 1.429 . S
C800 N797 1.350 . S
C800 C799 1.434 . S
C801 C802 1.369 . S
C801 C803 1.419 . S
C801 H805 0.930 . S
C802 C801 1.369 . S
C802 C811 1.429 . S
C803 C801 1.419 . S
C803 C804 1.363 . S
C803 H806 0.929 . S
C804 C803 1.363 . S
C804 C810 1.428 . S
H805 C801 0.930 . S
H806 C803 0.929 . S
S807 N808 1.613 . S
S807 N809 1.610 . S
N808 S807 1.613 . S
N808 C811 1.350 . S
N809 S807 1.610 . S
N809 C810 1.351 . S
C810 C804 1.428 . S
C810 N809 1.351 . S
C810 C811 1.434 . S
C811 C802 1.429 . S
C811 N808 1.350 . S
C811 C810 1.434 . S
C812 C813 1.369 1_455 S
C812 C814 1.419 . S
C812 H816 0.930 . S
C813 C812 1.369 1_655 S
C813 C822 1.429 . S
C814 C812 1.419 . S
C814 C815 1.363 1_455 S
C814 H817 0.929 . S
C815 C814 1.363 1_655 S
C815 C821 1.428 . S
H816 C812 0.930 . S
H817 C814 0.929 . S
S818 N819 1.613 . S
S818 N820 1.610 . S
N819 S818 1.613 . S
N819 C822 1.350 . S
N820 S818 1.610 . S
N820 C821 1.351 . S
C821 C815 1.428 . S
C821 N820 1.351 . S
C821 C822 1.434 . S
C822 C813 1.429 . S
C822 N819 1.350 . S
C822 C821 1.434 . S
C823 C824 1.369 . S
C823 C825 1.419 . S
C823 H827 0.930 . S
C824 C823 1.369 . S
C824 C833 1.429 . S
C825 C823 1.419 . S
C825 C826 1.363 . S
C825 H828 0.929 . S
C826 C825 1.363 . S
C826 C832 1.428 . S
H827 C823 0.930 . S
H828 C825 0.929 . S
S829 N830 1.613 . S
S829 N831 1.610 . S
N830 S829 1.613 . S
N830 C833 1.350 . S
N831 S829 1.610 . S
N831 C832 1.351 . S
C832 C826 1.428 . S
C832 N831 1.351 . S
C832 C833 1.434 . S
C833 C824 1.429 . S
C833 N830 1.350 . S
C833 C832 1.434 . S
C834 C835 1.369 . S
C834 C836 1.419 . S
C834 H838 0.930 . S
C835 C834 1.369 . S
C835 C844 1.429 . S
C836 C834 1.419 . S
C836 C837 1.363 . S
C836 H839 0.929 . S
C837 C836 1.363 . S
C837 C843 1.428 . S
H838 C834 0.930 . S
H839 C836 0.929 . S
S840 N841 1.613 . S
S840 N842 1.610 . S
N841 S840 1.613 . S
N841 C844 1.350 . S
N842 S840 1.610 . S
N842 C843 1.351 . S
C843 C837 1.428 . S
C843 N842 1.351 . S
C843 C844 1.434 . S
C844 C835 1.429 . S
C844 N841 1.350 . S
C844 C843 1.434 . S
C845 C846 1.369 . S
C845 C847 1.419 . S
C845 H849 0.930 . S
C846 C845 1.369 . S
C846 C855 1.429 . S
C847 C845 1.419 . S
C847 C848 1.363 . S
C847 H850 0.929 1_545 S
C848 C847 1.363 . S
C848 C854 1.428 . S
H849 C845 0.930 . S
H850 C847 0.929 1_565 S
S851 N852 1.613 . S
S851 N853 1.610 . S
N852 S851 1.613 . S
N852 C855 1.350 . S
N853 S851 1.610 . S
N853 C854 1.351 . S
C854 C848 1.428 . S
C854 N853 1.351 . S
C854 C855 1.434 . S
C855 C846 1.429 . S
C855 N852 1.350 . S
C855 C854 1.434 . S
C856 C857 1.369 . S
C856 C858 1.419 . S
C856 H860 0.930 . S
C857 C856 1.369 . S
C857 C866 1.429 . S
C858 C856 1.419 . S
C858 C859 1.363 . S
C858 H861 0.929 . S
C859 C858 1.363 . S
C859 C865 1.428 . S
H860 C856 0.930 . S
H861 C858 0.929 . S
S862 N863 1.613 . S
S862 N864 1.610 . S
N863 S862 1.613 . S
N863 C866 1.350 . S
N864 S862 1.610 . S
N864 C865 1.351 . S
C865 C859 1.428 . S
C865 N864 1.351 . S
C865 C866 1.434 . S
C866 C857 1.429 . S
C866 N863 1.350 . S
C866 C865 1.434 . S
C867 C868 1.369 . S
C867 C869 1.419 . S
C867 H871 0.930 . S
C868 C867 1.369 . S
C868 C877 1.429 . S
C869 C867 1.419 . S
C869 C870 1.363 . S
C869 H872 0.929 . S
C870 C869 1.363 . S
C870 C876 1.428 . S
H871 C867 0.930 . S
H872 C869 0.929 . S
S873 N874 1.613 . S
S873 N875 1.610 . S
N874 S873 1.613 . S
N874 C877 1.350 . S
N875 S873 1.610 . S
N875 C876 1.351 . S
C876 C870 1.428 . S
C876 N875 1.351 . S
C876 C877 1.434 . S
C877 C868 1.429 . S
C877 N874 1.350 . S
C877 C876 1.434 . S
C878 C879 1.369 . S
C878 C880 1.419 . S
C878 H882 0.930 . S
C879 C878 1.369 . S
C879 C888 1.429 . S
C880 C878 1.419 . S
C880 C881 1.363 . S
C880 H883 0.929 . S
C881 C880 1.363 . S
C881 C887 1.428 . S
H882 C878 0.930 . S
H883 C880 0.929 . S
S884 N885 1.613 . S
S884 N886 1.610 . S
N885 S884 1.613 . S
N885 C888 1.350 . S
N886 S884 1.610 . S
N886 C887 1.351 . S
C887 C881 1.428 . S
C887 N886 1.351 . S
C887 C888 1.434 . S
C888 C879 1.429 . S
C888 N885 1.350 . S
C888 C887 1.434 . S
C889 C890 1.369 . S
C889 C891 1.419 . S
C889 H893 0.930 . S
C890 C889 1.369 . S
C890 C899 1.429 . S
C891 C889 1.419 . S
C891 C892 1.363 . S
C891 H894 0.929 . S
C892 C891 1.363 . S
C892 C898 1.428 . S
H893 C889 0.930 . S
H894 C891 0.929 . S
S895 N896 1.613 . S
S895 N897 1.610 . S
N896 S895 1.613 . S
N896 C899 1.350 . S
N897 S895 1.610 . S
N897 C898 1.351 . S
C898 C892 1.428 . S
C898 N897 1.351 . S
C898 C899 1.434 . S
C899 C890 1.429 . S
C899 N896 1.350 . S
C899 C898 1.434 . S
C900 C901 1.369 . S
C900 C902 1.419 1_554 S
C900 H904 0.930 1_455 S
C901 C900 1.369 . S
C901 C910 1.429 . S
C902 C900 1.419 1_556 S
C902 C903 1.363 . S
C902 H905 0.929 1_455 S
C903 C902 1.363 . S
C903 C909 1.428 . S
H904 C900 0.930 1_655 S
H905 C902 0.929 1_655 S
S906 N907 1.613 . S
S906 N908 1.610 1_554 S
N907 S906 1.613 . S
N907 C910 1.350 . S
N908 S906 1.610 1_556 S
N908 C909 1.351 . S
C909 C903 1.428 . S
C909 N908 1.351 . S
C909 C910 1.434 1_556 S
C910 C901 1.429 . S
C910 N907 1.350 . S
C910 C909 1.434 1_554 S
C911 C912 1.369 . S
C911 C913 1.419 1_556 S
C911 H915 0.930 . S
C912 C911 1.369 . S
C912 C921 1.429 . S
C913 C911 1.419 1_554 S
C913 C914 1.363 . S
C913 H916 0.929 . S
C914 C913 1.363 . S
C914 C920 1.428 . S
H915 C911 0.930 . S
H916 C913 0.929 . S
S917 N918 1.613 . S
S917 N919 1.610 1_556 S
N918 S917 1.613 . S
N918 C921 1.350 . S
N919 S917 1.610 1_554 S
N919 C920 1.351 . S
C920 C914 1.428 . S
C920 N919 1.351 . S
C920 C921 1.434 1_554 S
C921 C912 1.429 . S
C921 N918 1.350 . S
C921 C920 1.434 1_556 S
C922 C923 1.369 . S
C922 C924 1.419 1_556 S
C922 H926 0.930 1_545 S
C923 C922 1.369 . S
C923 C932 1.429 . S
C924 C922 1.419 1_554 S
C924 C925 1.363 . S
C924 H927 0.931 1_545 S
C925 C924 1.363 . S
C925 C931 1.428 . S
H926 C922 0.930 1_565 S
H927 C924 0.931 1_565 S
S928 N929 1.613 . S
S928 N930 1.610 1_556 S
N929 S928 1.613 . S
N929 C932 1.350 . S
N930 S928 1.610 1_554 S
N930 C931 1.351 . S
C931 C925 1.428 . S
C931 N930 1.351 . S
C931 C932 1.434 1_554 S
C932 C923 1.429 . S
C932 N929 1.350 . S
C932 C931 1.434 1_556 S
C933 C934 1.369 . S
C933 C935 1.419 1_556 S
C933 H937 0.930 1_455 S
C934 C933 1.369 . S
C934 C943 1.429 . S
C935 C933 1.419 1_554 S
C935 C936 1.363 . S
C935 H938 0.929 1_455 S
C936 C935 1.363 . S
C936 C942 1.428 . S
H937 C933 0.930 1_655 S
H938 C935 0.929 1_655 S
S939 N940 1.613 1_554 S
S939 N941 1.610 . S
N940 S939 1.613 1_556 S
N940 C943 1.350 . S
N941 S939 1.610 . S
N941 C942 1.351 . S
C942 C936 1.428 . S
C942 N941 1.351 . S
C942 C943 1.434 1_554 S
C943 C934 1.429 . S
C943 N940 1.350 . S
C943 C942 1.434 1_556 S
C944 C945 1.369 . S
C944 C946 1.419 1_554 S
C944 H948 0.930 . S
C945 C944 1.369 . S
C945 C954 1.429 . S
C946 C944 1.419 1_556 S
C946 C947 1.363 . S
C946 H949 0.929 . S
C947 C946 1.363 . S
C947 C953 1.428 . S
H948 C944 0.930 . S
H949 C946 0.929 . S
S950 N951 1.613 1_556 S
S950 N952 1.610 . S
N951 S950 1.613 1_554 S
N951 C954 1.350 . S
N952 S950 1.610 . S
N952 C953 1.351 . S
C953 C947 1.428 . S
C953 N952 1.351 . S
C953 C954 1.434 1_556 S
C954 C945 1.429 . S
C954 N951 1.350 . S
C954 C953 1.434 1_554 S
C955 C956 1.369 . S
C955 C957 1.419 1_556 S
C955 H959 0.930 . S
C956 C955 1.369 . S
C956 C965 1.429 . S
C957 C955 1.419 1_554 S
C957 C958 1.363 . S
C957 H960 0.929 . S
C958 C957 1.363 . S
C958 C964 1.428 . S
H959 C955 0.930 . S
H960 C957 0.929 . S
S961 N962 1.613 1_554 S
S961 N963 1.610 . S
N962 S961 1.613 1_556 S
N962 C965 1.350 1_565 S
N963 S961 1.610 . S
N963 C964 1.351 1_565 S
C964 C958 1.428 . S
C964 N963 1.351 1_545 S
C964 C965 1.434 1_554 S
C965 C956 1.429 . S
C965 N962 1.350 1_545 S
C965 C964 1.434 1_556 S
C966 C967 1.369 . S
C966 C968 1.419 . S
C966 H970 0.930 . S
C967 C966 1.369 . S
C967 C976 1.429 . S
C968 C966 1.419 . S
C968 C969 1.363 . S
C968 H971 0.929 . S
C969 C968 1.363 . S
C969 C975 1.428 . S
H970 C966 0.930 . S
H971 C968 0.929 . S
S972 N973 1.613 . S
S972 N974 1.610 . S
N973 S972 1.613 . S
N973 C976 1.350 . S
N974 S972 1.610 . S
N974 C975 1.351 . S
C975 C969 1.428 . S
C975 N974 1.351 . S
C975 C976 1.434 . S
C976 C967 1.429 . S
C976 N973 1.350 . S
C976 C975 1.434 . S
C977 C978 1.369 . S
C977 C979 1.419 . S
C977 H981 0.930 . S
C978 C977 1.369 . S
C978 C987 1.429 . S
C979 C977 1.419 . S
C979 C980 1.363 . S
C979 H982 0.929 . S
C980 C979 1.363 . S
C980 C986 1.428 . S
H981 C977 0.930 . S
H982 C979 0.929 . S
S983 N984 1.613 . S
S983 N985 1.610 . S
N984 S983 1.613 . S
N984 C987 1.350 . S
N985 S983 1.610 . S
N985 C986 1.351 . S
C986 C980 1.428 . S
C986 N985 1.351 . S
C986 C987 1.434 . S
C987 C978 1.429 . S
C987 N984 1.350 . S
C987 C986 1.434 . S
C988 C989 1.369 . S
C988 C990 1.419 . S
C988 H992 0.930 1_655 S
C989 C988 1.369 . S
C989 C998 1.429 . S
C990 C988 1.419 . S
C990 C991 1.363 . S
C990 H993 0.929 1_655 S
C991 C990 1.363 . S
C991 C997 1.428 . S
H992 C988 0.930 1_455 S
H993 C990 0.929 1_455 S
S994 N995 1.613 . S
S994 N996 1.610 . S
N995 S994 1.613 . S
N995 C998 1.350 . S
N996 S994 1.610 . S
N996 C997 1.351 . S
C997 C991 1.428 . S
C997 N996 1.351 . S
C997 C998 1.434 . S
C998 C989 1.429 . S
C998 N995 1.350 . S
C998 C997 1.434 . S
C999 C1000 1.369 . S
C999 C1001 1.419 . S
C999 H1003 0.930 . S
C1000 C999 1.369 . S
C1000 C1009 1.429 . S
C1001 C999 1.419 . S
C1001 C1002 1.363 . S
C1001 H1004 0.929 . S
C1002 C1001 1.363 . S
C1002 C1008 1.428 . S
H1003 C999 0.930 . S
H1004 C1001 0.929 . S
S1005 N1006 1.613 . S
S1005 N1007 1.610 . S
N1006 S1005 1.613 . S
N1006 C1009 1.350 . S
N1007 S1005 1.610 . S
N1007 C1008 1.351 . S
C1008 C1002 1.428 . S
C1008 N1007 1.351 . S
C1008 C1009 1.434 . S
C1009 C1000 1.429 . S
C1009 N1006 1.350 . S
C1009 C1008 1.434 . S
C1010 C1011 1.369 . S
C1010 C1012 1.419 . S
C1010 H1014 0.930 . S
C1011 C1010 1.369 . S
C1011 C1020 1.429 . S
C1012 C1010 1.419 . S
C1012 C1013 1.363 . S
C1012 H1015 0.929 . S
C1013 C1012 1.363 . S
C1013 C1019 1.428 . S
H1014 C1010 0.930 . S
H1015 C1012 0.929 . S
S1016 N1017 1.613 . S
S1016 N1018 1.610 . S
N1017 S1016 1.613 . S
N1017 C1020 1.350 1_455 S
N1018 S1016 1.610 . S
N1018 C1019 1.351 1_455 S
C1019 C1013 1.428 . S
C1019 N1018 1.351 1_655 S
C1019 C1020 1.434 . S
C1020 C1011 1.429 . S
C1020 N1017 1.350 1_655 S
C1020 C1019 1.434 . S
C1021 C1022 1.369 . S
C1021 C1023 1.419 . S
C1021 H1025 0.930 . S
C1022 C1021 1.369 . S
C1022 C1031 1.429 . S
C1023 C1021 1.419 . S
C1023 C1024 1.363 . S
C1023 H1026 0.929 . S
C1024 C1023 1.363 . S
C1024 C1030 1.428 . S
H1025 C1021 0.930 . S
H1026 C1023 0.929 . S
S1027 N1028 1.613 . S
S1027 N1029 1.610 . S
N1028 S1027 1.613 . S
N1028 C1031 1.350 . S
N1029 S1027 1.610 . S
N1029 C1030 1.351 . S
C1030 C1024 1.428 . S
C1030 N1029 1.351 . S
C1030 C1031 1.434 . S
C1031 C1022 1.429 . S
C1031 N1028 1.350 . S
C1031 C1030 1.434 . S
C1032 C1033 1.369 . S
C1032 C1034 1.419 . S
C1032 H1036 0.930 . S
C1033 C1032 1.369 . S
C1033 C1042 1.429 . S
C1034 C1032 1.419 . S
C1034 C1035 1.363 . S
C1034 H1037 0.929 . S
C1035 C1034 1.363 . S
C1035 C1041 1.428 . S
H1036 C1032 0.930 . S
H1037 C1034 0.929 . S
S1038 N1039 1.613 . S
S1038 N1040 1.610 . S
N1039 S1038 1.613 . S
N1039 C1042 1.350 1_545 S
N1040 S1038 1.610 . S
N1040 C1041 1.351 1_545 S
C1041 C1035 1.428 . S
C1041 N1040 1.351 1_565 S
C1041 C1042 1.434 . S
C1042 C1033 1.429 . S
C1042 N1039 1.350 1_565 S
C1042 C1041 1.434 . S
C1043 C1044 1.369 . S
C1043 C1045 1.419 . S
C1043 H1047 0.930 . S
C1044 C1043 1.369 . S
C1044 C1053 1.429 . S
C1045 C1043 1.419 . S
C1045 C1046 1.363 . S
C1045 H1048 0.929 . S
C1046 C1045 1.363 . S
C1046 C1052 1.428 . S
H1047 C1043 0.930 . S
H1048 C1045 0.929 . S
S1049 N1050 1.613 . S
S1049 N1051 1.610 . S
N1050 S1049 1.613 . S
N1050 C1053 1.350 . S
N1051 S1049 1.610 . S
N1051 C1052 1.351 . S
C1052 C1046 1.428 . S
C1052 N1051 1.351 . S
C1052 C1053 1.434 . S
C1053 C1044 1.429 . S
C1053 N1050 1.350 . S
C1053 C1052 1.434 . S
C1054 C1055 1.369 . S
C1054 C1056 1.419 . S
C1054 H1058 0.930 . S
C1055 C1054 1.369 . S
C1055 C1064 1.429 . S
C1056 C1054 1.419 . S
C1056 C1057 1.363 . S
C1056 H1059 0.929 . S
C1057 C1056 1.363 . S
C1057 C1063 1.428 . S
H1058 C1054 0.930 . S
H1059 C1056 0.929 . S
S1060 N1061 1.613 . S
S1060 N1062 1.610 . S
N1061 S1060 1.613 . S
N1061 C1064 1.350 . S
N1062 S1060 1.610 . S
N1062 C1063 1.351 . S
C1063 C1057 1.428 . S
C1063 N1062 1.351 . S
C1063 C1064 1.434 . S
C1064 C1055 1.429 . S
C1064 N1061 1.350 . S
C1064 C1063 1.434 . S
C1065 C1066 1.369 . S
C1065 C1067 1.419 . S
C1065 H1069 0.930 . S
C1066 C1065 1.369 . S
C1066 C1075 1.429 . S
C1067 C1065 1.419 . S
C1067 C1068 1.363 . S
C1067 H1070 0.929 . S
C1068 C1067 1.363 . S
C1068 C1074 1.428 . S
H1069 C1065 0.930 . S
H1070 C1067 0.929 . S
S1071 N1072 1.613 . S
S1071 N1073 1.610 . S
N1072 S1071 1.613 . S
N1072 C1075 1.350 . S
N1073 S1071 1.610 . S
N1073 C1074 1.351 . S
C1074 C1068 1.428 . S
C1074 N1073 1.351 . S
C1074 C1075 1.434 . S
C1075 C1066 1.429 . S
C1075 N1072 1.350 . S
C1075 C1074 1.434 . S
C1076 C1077 1.369 . S
C1076 C1078 1.419 . S
C1076 H1080 0.937 . S
C1077 C1076 1.369 . S
C1077 C1086 1.429 . S
C1078 C1076 1.419 . S
C1078 C1079 1.363 . S
C1078 H1081 0.929 1_565 S
C1079 C1078 1.363 . S
C1079 C1085 1.428 . S
H1080 C1076 0.937 . S
H1081 C1078 0.929 1_545 S
S1082 N1083 1.613 . S
S1082 N1084 1.610 . S
N1083 S1082 1.613 . S
N1083 C1086 1.350 . S
N1084 S1082 1.610 . S
N1084 C1085 1.351 . S
C1085 C1079 1.428 . S
C1085 N1084 1.351 . S
C1085 C1086 1.434 . S
C1086 C1077 1.429 . S
C1086 N1083 1.350 . S
C1086 C1085 1.434 . S
C1087 C1088 1.369 . S
C1087 C1089 1.419 . S
C1087 H1091 0.930 . S
C1088 C1087 1.369 . S
C1088 C1097 1.429 . S
C1089 C1087 1.419 . S
C1089 C1090 1.363 . S
C1089 H1092 0.929 . S
C1090 C1089 1.363 . S
C1090 C1096 1.428 . S
H1091 C1087 0.930 . S
H1092 C1089 0.929 . S
S1093 N1094 1.613 . S
S1093 N1095 1.610 . S
N1094 S1093 1.613 . S
N1094 C1097 1.350 . S
N1095 S1093 1.610 . S
N1095 C1096 1.351 . S
C1096 C1090 1.428 . S
C1096 N1095 1.351 . S
C1096 C1097 1.434 . S
C1097 C1088 1.429 . S
C1097 N1094 1.350 . S
C1097 C1096 1.434 . S
C1098 C1099 1.369 . S
C1098 C1100 1.419 . S
C1098 H1102 0.930 . S
C1099 C1098 1.369 . S
C1099 C1108 1.429 . S
C1100 C1098 1.419 . S
C1100 C1101 1.363 . S
C1100 H1103 0.929 . S
C1101 C1100 1.363 . S
C1101 C1107 1.428 . S
H1102 C1098 0.930 . S
H1103 C1100 0.929 . S
S1104 N1105 1.613 . S
S1104 N1106 1.610 . S
N1105 S1104 1.613 . S
N1105 C1108 1.350 . S
N1106 S1104 1.610 . S
N1106 C1107 1.351 . S
C1107 C1101 1.428 . S
C1107 N1106 1.351 . S
C1107 C1108 1.434 . S
C1108 C1099 1.429 . S
C1108 N1105 1.350 . S
C1108 C1107 1.434 . S
C1109 C1110 1.369 . S
C1109 C1111 1.419 . S
C1109 H1113 0.930 . S
C1110 C1109 1.369 . S
C1110 C1119 1.429 . S
C1111 C1109 1.419 . S
C1111 C1112 1.363 . S
C1111 H1114 0.929 . S
C1112 C1111 1.363 . S
C1112 C1118 1.428 . S
H1113 C1109 0.930 . S
H1114 C1111 0.929 . S
S1115 N1116 1.613 . S
S1115 N1117 1.610 . S
N1116 S1115 1.613 . S
N1116 C1119 1.350 . S
N1117 S1115 1.610 . S
N1117 C1118 1.351 . S
C1118 C1112 1.428 . S
C1118 N1117 1.351 . S
C1118 C1119 1.434 . S
C1119 C1110 1.429 . S
C1119 N1116 1.350 . S
C1119 C1118 1.434 . S
C1120 C1121 1.369 . S
C1120 C1122 1.419 . S
C1120 H1124 0.930 . S
C1121 C1120 1.369 . S
C1121 C1130 1.429 . S
C1122 C1120 1.419 . S
C1122 C1123 1.363 . S
C1122 H1125 0.929 . S
C1123 C1122 1.363 . S
C1123 C1129 1.428 . S
H1124 C1120 0.930 . S
H1125 C1122 0.929 . S
S1126 N1127 1.613 . S
S1126 N1128 1.610 . S
N1127 S1126 1.613 . S
N1127 C1130 1.350 . S
N1128 S1126 1.610 . S
N1128 C1129 1.351 . S
C1129 C1123 1.428 . S
C1129 N1128 1.351 . S
C1129 C1130 1.434 . S
C1130 C1121 1.429 . S
C1130 N1127 1.350 . S
C1130 C1129 1.434 . S
C1131 C1132 1.369 . S
C1131 C1133 1.419 . S
C1131 H1135 0.930 . S
C1132 C1131 1.369 . S
C1132 C1141 1.429 . S
C1133 C1131 1.419 . S
C1133 C1134 1.363 . S
C1133 H1136 0.929 . S
C1134 C1133 1.363 . S
C1134 C1140 1.428 . S
H1135 C1131 0.930 . S
H1136 C1133 0.929 . S
S1137 N1138 1.613 . S
S1137 N1139 1.610 . S
N1138 S1137 1.613 . S
N1138 C1141 1.350 . S
N1139 S1137 1.610 . S
N1139 C1140 1.351 . S
C1140 C1134 1.428 . S
C1140 N1139 1.351 . S
C1140 C1141 1.434 . S
C1141 C1132 1.429 . S
C1141 N1138 1.350 . S
C1141 C1140 1.434 . S
C1142 C1143 1.369 . S
C1142 C1144 1.419 . S
C1142 H1146 0.930 . S
C1143 C1142 1.369 . S
C1143 C1152 1.429 . S
C1144 C1142 1.419 . S
C1144 C1145 1.363 . S
C1144 H1147 0.929 . S
C1145 C1144 1.363 . S
C1145 C1151 1.428 . S
H1146 C1142 0.930 . S
H1147 C1144 0.929 . S
S1148 N1149 1.613 . S
S1148 N1150 1.610 . S
N1149 S1148 1.613 . S
N1149 C1152 1.350 . S
N1150 S1148 1.610 . S
N1150 C1151 1.351 . S
C1151 C1145 1.428 . S
C1151 N1150 1.351 . S
C1151 C1152 1.434 . S
C1152 C1143 1.429 . S
C1152 N1149 1.350 . S
C1152 C1151 1.434 . S
C1153 C1154 1.369 . S
C1153 C1155 1.419 . S
C1153 H1157 0.930 . S
C1154 C1153 1.369 . S
C1154 C1163 1.429 . S
C1155 C1153 1.419 . S
C1155 C1156 1.363 . S
C1155 H1158 0.929 . S
C1156 C1155 1.363 . S
C1156 C1162 1.428 . S
H1157 C1153 0.930 . S
H1158 C1155 0.929 . S
S1159 N1160 1.613 . S
S1159 N1161 1.610 . S
N1160 S1159 1.613 . S
N1160 C1163 1.350 . S
N1161 S1159 1.610 . S
N1161 C1162 1.351 . S
C1162 C1156 1.428 . S
C1162 N1161 1.351 . S
C1162 C1163 1.434 . S
C1163 C1154 1.429 . S
C1163 N1160 1.350 . S
C1163 C1162 1.434 . S
C1164 C1165 1.369 . S
C1164 C1166 1.419 . S
C1164 H1168 0.930 . S
C1165 C1164 1.369 . S
C1165 C1174 1.429 . S
C1166 C1164 1.419 . S
C1166 C1167 1.363 . S
C1166 H1169 0.929 . S
C1167 C1166 1.363 . S
C1167 C1173 1.428 . S
H1168 C1164 0.930 . S
H1169 C1166 0.929 . S
S1170 N1171 1.613 . S
S1170 N1172 1.610 . S
N1171 S1170 1.613 . S
N1171 C1174 1.350 . S
N1172 S1170 1.610 . S
N1172 C1173 1.351 . S
C1173 C1167 1.428 . S
C1173 N1172 1.351 . S
C1173 C1174 1.434 . S
C1174 C1165 1.429 . S
C1174 N1171 1.350 . S
C1174 C1173 1.434 . S
C1175 C1176 1.369 . S
C1175 C1177 1.419 . S
C1175 H1179 0.930 . S
C1176 C1175 1.369 . S
C1176 C1185 1.429 . S
C1177 C1175 1.419 . S
C1177 C1178 1.363 . S
C1177 H1180 0.929 . S
C1178 C1177 1.363 . S
C1178 C1184 1.428 . S
H1179 C1175 0.930 . S
H1180 C1177 0.929 . S
S1181 N1182 1.613 . S
S1181 N1183 1.610 . S
N1182 S1181 1.613 . S
N1182 C1185 1.350 . S
N1183 S1181 1.610 . S
N1183 C1184 1.351 . S
C1184 C1178 1.428 . S
C1184 N1183 1.351 . S
C1184 C1185 1.434 . S
C1185 C1176 1.429 . S
C1185 N1182 1.350 . S
C1185 C1184 1.434 . S
C1186 C1187 1.369 . S
C1186 C1188 1.419 . S
C1186 H1190 0.930 . S
C1187 C1186 1.369 . S
C1187 C1196 1.429 . S
C1188 C1186 1.419 . S
C1188 C1189 1.363 . S
C1188 H1191 0.929 . S
C1189 C1188 1.363 . S
C1189 C1195 1.428 . S
H1190 C1186 0.930 . S
H1191 C1188 0.929 . S
S1192 N1193 1.613 . S
S1192 N1194 1.610 . S
N1193 S1192 1.613 . S
N1193 C1196 1.350 . S
N1194 S1192 1.610 . S
N1194 C1195 1.351 . S
C1195 C1189 1.428 . S
C1195 N1194 1.351 . S
C1195 C1196 1.434 . S
C1196 C1187 1.429 . S
C1196 N1193 1.350 . S
C1196 C1195 1.434 . S
C1197 C1198 1.369 . S
C1197 C1199 1.419 . S
C1197 H1201 0.930 . S
C1198 C1197 1.369 . S
C1198 C1207 1.429 . S
C1199 C1197 1.419 . S
C1199 C1200 1.363 . S
C1199 H1202 0.929 . S
C1200 C1199 1.363 . S
C1200 C1206 1.428 . S
H1201 C1197 0.930 . S
H1202 C1199 0.929 . S
S1203 N1204 1.613 . S
S1203 N1205 1.610 . S
N1204 S1203 1.613 . S
N1204 C1207 1.350 . S
N1205 S1203 1.610 . S
N1205 C1206 1.351 . S
C1206 C1200 1.428 . S
C1206 N1205 1.351 . S
C1206 C1207 1.434 . S
C1207 C1198 1.429 . S
C1207 N1204 1.350 . S
C1207 C1206 1.434 . S
C1208 C1209 1.369 . S
C1208 C1210 1.419 . S
C1208 H1212 0.930 . S
C1209 C1208 1.369 . S
C1209 C1218 1.429 . S
C1210 C1208 1.419 . S
C1210 C1211 1.363 . S
C1210 H1213 0.929 . S
C1211 C1210 1.363 . S
C1211 C1217 1.428 . S
H1212 C1208 0.930 . S
H1213 C1210 0.929 . S
S1214 N1215 1.613 . S
S1214 N1216 1.610 . S
N1215 S1214 1.613 . S
N1215 C1218 1.350 . S
N1216 S1214 1.610 . S
N1216 C1217 1.351 . S
C1217 C1211 1.428 . S
C1217 N1216 1.351 . S
C1217 C1218 1.434 . S
C1218 C1209 1.429 . S
C1218 N1215 1.350 . S
C1218 C1217 1.434 . S
C1219 C1220 1.369 . S
C1219 C1221 1.419 . S
C1219 H1223 0.930 . S
C1220 C1219 1.369 . S
C1220 C1229 1.429 . S
C1221 C1219 1.419 . S
C1221 C1222 1.363 . S
C1221 H1224 0.929 . S
C1222 C1221 1.363 . S
C1222 C1228 1.428 . S
H1223 C1219 0.930 . S
H1224 C1221 0.929 . S
S1225 N1226 1.613 . S
S1225 N1227 1.610 . S
N1226 S1225 1.613 . S
N1226 C1229 1.350 . S
N1227 S1225 1.610 . S
N1227 C1228 1.351 . S
C1228 C1222 1.428 . S
C1228 N1227 1.351 . S
C1228 C1229 1.434 . S
C1229 C1220 1.429 . S
C1229 N1226 1.350 . S
C1229 C1228 1.434 . S
C1230 C1231 1.369 . S
C1230 C1232 1.419 . S
C1230 H1234 0.930 . S
C1231 C1230 1.369 . S
C1231 C1240 1.429 . S
C1232 C1230 1.419 . S
C1232 C1233 1.363 . S
C1232 H1235 0.929 . S
C1233 C1232 1.363 . S
C1233 C1239 1.428 . S
H1234 C1230 0.930 . S
H1235 C1232 0.929 . S
S1236 N1237 1.613 . S
S1236 N1238 1.610 . S
N1237 S1236 1.613 . S
N1237 C1240 1.350 . S
N1238 S1236 1.610 . S
N1238 C1239 1.351 . S
C1239 C1233 1.428 . S
C1239 N1238 1.351 . S
C1239 C1240 1.434 . S
C1240 C1231 1.429 . S
C1240 N1237 1.350 . S
C1240 C1239 1.434 . S
C1241 C1242 1.369 . S
C1241 C1243 1.419 . S
C1241 H1245 0.930 . S
C1242 C1241 1.369 . S
C1242 C1251 1.429 . S
C1243 C1241 1.419 . S
C1243 C1244 1.363 . S
C1243 H1246 0.929 . S
C1244 C1243 1.363 . S
C1244 C1250 1.428 . S
H1245 C1241 0.930 . S
H1246 C1243 0.929 . S
S1247 N1248 1.613 . S
S1247 N1249 1.610 . S
N1248 S1247 1.613 . S
N1248 C1251 1.350 . S
N1249 S1247 1.610 . S
N1249 C1250 1.351 . S
C1250 C1244 1.428 . S
C1250 N1249 1.351 . S
C1250 C1251 1.434 . S
C1251 C1242 1.429 . S
C1251 N1248 1.350 . S
C1251 C1250 1.434 . S
C1252 C1253 1.369 . S
C1252 C1254 1.419 . S
C1252 H1256 0.930 . S
C1253 C1252 1.369 . S
C1253 C1262 1.429 . S
C1254 C1252 1.419 . S
C1254 C1255 1.363 . S
C1254 H1257 0.929 . S
C1255 C1254 1.363 . S
C1255 C1261 1.428 . S
H1256 C1252 0.930 . S
H1257 C1254 0.929 . S
S1258 N1259 1.613 . S
S1258 N1260 1.610 . S
N1259 S1258 1.613 . S
N1259 C1262 1.350 . S
N1260 S1258 1.610 . S
N1260 C1261 1.351 . S
C1261 C1255 1.428 . S
C1261 N1260 1.351 . S
C1261 C1262 1.434 . S
C1262 C1253 1.429 . S
C1262 N1259 1.350 . S
C1262 C1261 1.434 . S
C1263 C1264 1.369 . S
C1263 C1265 1.419 . S
C1263 H1267 0.930 . S
C1264 C1263 1.369 . S
C1264 C1273 1.429 . S
C1265 C1263 1.419 . S
C1265 C1266 1.363 . S
C1265 H1268 0.929 . S
C1266 C1265 1.363 . S
C1266 C1272 1.428 . S
H1267 C1263 0.930 . S
H1268 C1265 0.929 . S
S1269 N1270 1.613 . S
S1269 N1271 1.610 . S
N1270 S1269 1.613 . S
N1270 C1273 1.350 . S
N1271 S1269 1.610 . S
N1271 C1272 1.351 . S
C1272 C1266 1.428 . S
C1272 N1271 1.351 . S
C1272 C1273 1.434 . S
C1273 C1264 1.429 . S
C1273 N1270 1.350 . S
C1273 C1272 1.434 . S
C1274 C1275 1.369 . S
C1274 C1276 1.419 . S
C1274 H1278 0.930 1_565 S
C1275 C1274 1.369 . S
C1275 C1284 1.429 . S
C1276 C1274 1.419 . S
C1276 C1277 1.363 . S
C1276 H1279 0.929 1_565 S
C1277 C1276 1.363 . S
C1277 C1283 1.428 . S
H1278 C1274 0.930 1_545 S
H1279 C1276 0.929 1_545 S
S1280 N1281 1.613 . S
S1280 N1282 1.610 . S
N1281 S1280 1.613 . S
N1281 C1284 1.350 . S
N1282 S1280 1.610 . S
N1282 C1283 1.351 . S
C1283 C1277 1.428 . S
C1283 N1282 1.351 . S
C1283 C1284 1.434 . S
C1284 C1275 1.429 . S
C1284 N1281 1.350 . S
C1284 C1283 1.434 . S
C1285 C1286 1.369 . S
C1285 C1287 1.419 . S
C1285 H1289 0.930 . S
C1286 C1285 1.369 . S
C1286 C1295 1.429 . S
C1287 C1285 1.419 . S
C1287 C1288 1.363 . S
C1287 H1290 0.929 . S
C1288 C1287 1.363 . S
C1288 C1294 1.428 . S
H1289 C1285 0.930 . S
H1290 C1287 0.929 . S
S1291 N1292 1.613 . S
S1291 N1293 1.610 . S
N1292 S1291 1.613 . S
N1292 C1295 1.350 . S
N1293 S1291 1.610 . S
N1293 C1294 1.351 . S
C1294 C1288 1.428 . S
C1294 N1293 1.351 . S
C1294 C1295 1.434 . S
C1295 C1286 1.429 . S
C1295 N1292 1.350 . S
C1295 C1294 1.434 . S
C505 C6 1.424 . S
C507 C160 1.423 . S
C516 C132 1.424 . S
C518 C20 1.423 . S
C527 C146 1.424 . S
C529 C34 1.423 . S
C538 C48 1.422 . S
C540 C104 1.421 . S
C549 C62 1.422 . S
C551 C118 1.422 . S
C560 C76 1.424 . S
C562 C90 1.423 . S
C571 C174 1.424 . S
C573 C328 1.423 . S
C582 C300 1.417 . S
C584 C188 1.417 . S
C593 C202 1.419 . S
C595 C314 1.419 . S
C604 C216 1.421 . S
C606 C272 1.421 . S
C615 C230 1.425 . S
C617 C286 1.424 . S
C626 C244 1.415 . S
C628 C258 1.416 . S
C637 C342 1.420 . S
C639 C496 1.420 . S
C648 C356 1.421 . S
C650 C468 1.421 . S
C659 C482 1.423 . S
C661 C370 1.423 . S
C670 C384 1.423 . S
C672 C440 1.422 . S
C681 C454 1.416 . S
C683 C398 1.417 . S
C692 C426 1.417 . S
C694 C412 1.418 . S
C703 C7 1.417 1_655 S
C705 C217 1.423 . S
C714 C21 1.425 . S
C716 C231 1.423 . S
C725 C35 1.423 . S
C727 C245 1.424 . S
C736 C49 1.417 1_565 S
C738 C343 1.423 . S
C747 C357 1.424 . S
C749 C63 1.422 . S
C758 C371 1.423 . S
C760 C77 1.425 . S
C769 C91 1.422 . S
C771 C469 1.423 . S
C780 C483 1.422 . S
C782 C105 1.424 . S
C791 C119 1.422 1_565 S
C793 C497 1.422 . S
C802 C133 1.422 . S
C804 C259 1.422 . S
C813 C147 1.421 1_655 S
C815 C273 1.424 . S
C824 C161 1.422 . S
C826 C287 1.424 . S
C835 C385 1.423 . S
C837 C175 1.424 . S
C846 C189 1.424 . S
C848 C399 1.422 . S
C857 C203 1.421 . S
C859 C413 1.423 . S
C868 C427 1.424 . S
C870 C301 1.422 . S
C879 C441 1.422 . S
C881 C315 1.422 . S
C890 C329 1.423 . S
C892 C455 1.424 . S
C901 C8 1.324 . S
C903 C64 1.329 . S
C912 C78 1.324 . S
C914 C22 1.329 . S
C923 C50 1.323 . S
C925 C36 1.328 . S
C934 C92 1.332 . S
C936 C148 1.328 . S
C945 C162 1.332 . S
C947 C106 1.327 . S
C956 C120 1.329 . S
C958 C134 1.324 . S
C967 C232 1.323 . S
C969 C176 1.323 . S
C978 C190 1.330 . S
C980 C246 1.325 . S
C989 C204 1.322 . S
C991 C218 1.327 . S
C1000 C316 1.322 . S
C1002 C260 1.323 . S
C1011 C330 1.329 . S
C1013 C274 1.330 . S
C1022 C302 1.331 . S
C1024 C288 1.326 . S
C1033 C344 1.329 . S
C1035 C400 1.331 . S
C1044 C358 1.330 . S
C1046 C414 1.325 . S
C1055 C372 1.323 . S
C1057 C386 1.328 . S
C1066 C484 1.321 . S
C1068 C428 1.326 . S
C1077 C498 1.324 . S
C1079 C442 1.322 . S
C1088 C470 1.323 . S
C1090 C456 1.329 . S
C1099 C135 1.902 . S
C1101 C9 1.902 . S
C1110 C149 1.904 . S
C1112 C23 1.904 . S
C1121 C37 1.902 . S
C1123 C163 1.902 . S
C1132 C51 1.905 . S
C1134 C93 1.905 . S
C1143 C107 1.902 . S
C1145 C65 1.902 . S
C1154 C79 1.901 . S
C1156 C121 1.902 . S
C1165 C303 1.903 . S
C1167 C177 1.904 . S
C1176 C317 1.905 . S
C1178 C191 1.905 . S
C1187 C205 1.904 . S
C1189 C331 1.904 . S
C1198 C261 1.902 . S
C1200 C219 1.903 . S
C1209 C275 1.903 . S
C1211 C233 1.904 . S
C1220 C289 1.904 . S
C1222 C247 1.904 . S
C1231 C345 1.902 . S
C1233 C471 1.903 . S
C1242 C485 1.903 . S
C1244 C359 1.904 . S
C1253 C373 1.901 . S
C1255 C499 1.902 . S
C1264 C387 1.904 . S
C1266 C429 1.904 . S
C1275 C401 1.905 . S
C1277 C443 1.905 . S
C1286 C457 1.903 . S
C1288 C415 1.903 . S
