# Generated by pormake.
# Topology wiu, (6)-cn, num edge types: 1
# Building blocks:
#     Node 0, Type 0, BuildingBlock: INOVEN_clean_sbu_0, # of connection points: 6
#     Node 1, Type 0, BuildingBlock: INOVEN_clean_sbu_0, # of connection points: 6
#     Node 2, Type 0, BuildingBlock: INOVEN_clean_sbu_0, # of connection points: 6
#     Node 3, Type 0, BuildingBlock: INOVEN_clean_sbu_0, # of connection points: 6
#     Node 4, Type 0, BuildingBlock: INOVEN_clean_sbu_0, # of connection points: 6
#     Node 5, Type 0, BuildingBlock: INOVEN_clean_sbu_0, # of connection points: 6
#     Node 6, Type 0, BuildingBlock: INOVEN_clean_sbu_0, # of connection points: 6
#     Node 7, Type 0, BuildingBlock: INOVEN_clean_sbu_0, # of connection points: 6
#     Node 8, Type 0, BuildingBlock: INOVEN_clean_sbu_0, # of connection points: 6
#     Node 9, Type 0, BuildingBlock: INOVEN_clean_sbu_0, # of connection points: 6
#     Node 10, Type 0, BuildingBlock: INOVEN_clean_sbu_0, # of connection points: 6
#     Node 11, Type 0, BuildingBlock: INOVEN_clean_sbu_0, # of connection points: 6
#     Node 12, Type 0, BuildingBlock: INOVEN_clean_sbu_0, # of connection points: 6
#     Node 13, Type 0, BuildingBlock: INOVEN_clean_sbu_0, # of connection points: 6
#     Node 14, Type 0, BuildingBlock: INOVEN_clean_sbu_0, # of connection points: 6
#     Node 15, Type 0, BuildingBlock: INOVEN_clean_sbu_0, # of connection points: 6
#     Edge 16, Type (0, 0), BuildingBlock: CIFDUS_clean_linker_0, # of connection points: 2
#     Edge 17, Type (0, 0), BuildingBlock: CIFDUS_clean_linker_0, # of connection points: 2
#     Edge 18, Type (0, 0), BuildingBlock: CIFDUS_clean_linker_0, # of connection points: 2
#     Edge 19, Type (0, 0), BuildingBlock: CIFDUS_clean_linker_0, # of connection points: 2
#     Edge 20, Type (0, 0), BuildingBlock: CIFDUS_clean_linker_0, # of connection points: 2
#     Edge 21, Type (0, 0), BuildingBlock: CIFDUS_clean_linker_0, # of connection points: 2
#     Edge 22, Type (0, 0), BuildingBlock: CIFDUS_clean_linker_0, # of connection points: 2
#     Edge 23, Type (0, 0), BuildingBlock: CIFDUS_clean_linker_0, # of connection points: 2
#     Edge 24, Type (0, 0), BuildingBlock: CIFDUS_clean_linker_0, # of connection points: 2
#     Edge 25, Type (0, 0), BuildingBlock: CIFDUS_clean_linker_0, # of connection points: 2
#     Edge 26, Type (0, 0), BuildingBlock: CIFDUS_clean_linker_0, # of connection points: 2
#     Edge 27, Type (0, 0), BuildingBlock: CIFDUS_clean_linker_0, # of connection points: 2
#     Edge 28, Type (0, 0), BuildingBlock: CIFDUS_clean_linker_0, # of connection points: 2
#     Edge 29, Type (0, 0), BuildingBlock: CIFDUS_clean_linker_0, # of connection points: 2
#     Edge 30, Type (0, 0), BuildingBlock: CIFDUS_clean_linker_0, # of connection points: 2
#     Edge 31, Type (0, 0), BuildingBlock: CIFDUS_clean_linker_0, # of connection points: 2
#     Edge 32, Type (0, 0), BuildingBlock: CIFDUS_clean_linker_0, # of connection points: 2
#     Edge 33, Type (0, 0), BuildingBlock: CIFDUS_clean_linker_0, # of connection points: 2
#     Edge 34, Type (0, 0), BuildingBlock: CIFDUS_clean_linker_0, # of connection points: 2
#     Edge 35, Type (0, 0), BuildingBlock: CIFDUS_clean_linker_0, # of connection points: 2
#     Edge 36, Type (0, 0), BuildingBlock: CIFDUS_clean_linker_0, # of connection points: 2
#     Edge 37, Type (0, 0), BuildingBlock: CIFDUS_clean_linker_0, # of connection points: 2
#     Edge 38, Type (0, 0), BuildingBlock: CIFDUS_clean_linker_0, # of connection points: 2
#     Edge 39, Type (0, 0), BuildingBlock: CIFDUS_clean_linker_0, # of connection points: 2
#     Edge 40, Type (0, 0), BuildingBlock: CIFDUS_clean_linker_0, # of connection points: 2
#     Edge 41, Type (0, 0), BuildingBlock: CIFDUS_clean_linker_0, # of connection points: 2
#     Edge 42, Type (0, 0), BuildingBlock: CIFDUS_clean_linker_0, # of connection points: 2
#     Edge 43, Type (0, 0), BuildingBlock: CIFDUS_clean_linker_0, # of connection points: 2
#     Edge 44, Type (0, 0), BuildingBlock: CIFDUS_clean_linker_0, # of connection points: 2
#     Edge 45, Type (0, 0), BuildingBlock: CIFDUS_clean_linker_0, # of connection points: 2
#     Edge 46, Type (0, 0), BuildingBlock: CIFDUS_clean_linker_0, # of connection points: 2
#     Edge 47, Type (0, 0), BuildingBlock: CIFDUS_clean_linker_0, # of connection points: 2
#     Edge 48, Type (0, 0), BuildingBlock: CIFDUS_clean_linker_0, # of connection points: 2
#     Edge 49, Type (0, 0), BuildingBlock: CIFDUS_clean_linker_0, # of connection points: 2
#     Edge 50, Type (0, 0), BuildingBlock: CIFDUS_clean_linker_0, # of connection points: 2
#     Edge 51, Type (0, 0), BuildingBlock: CIFDUS_clean_linker_0, # of connection points: 2
#     Edge 52, Type (0, 0), BuildingBlock: CIFDUS_clean_linker_0, # of connection points: 2
#     Edge 53, Type (0, 0), BuildingBlock: CIFDUS_clean_linker_0, # of connection points: 2
#     Edge 54, Type (0, 0), BuildingBlock: CIFDUS_clean_linker_0, # of connection points: 2
#     Edge 55, Type (0, 0), BuildingBlock: CIFDUS_clean_linker_0, # of connection points: 2
#     Edge 56, Type (0, 0), BuildingBlock: CIFDUS_clean_linker_0, # of connection points: 2
#     Edge 57, Type (0, 0), BuildingBlock: CIFDUS_clean_linker_0, # of connection points: 2
#     Edge 58, Type (0, 0), BuildingBlock: CIFDUS_clean_linker_0, # of connection points: 2
#     Edge 59, Type (0, 0), BuildingBlock: CIFDUS_clean_linker_0, # of connection points: 2
#     Edge 60, Type (0, 0), BuildingBlock: CIFDUS_clean_linker_0, # of connection points: 2
#     Edge 61, Type (0, 0), BuildingBlock: CIFDUS_clean_linker_0, # of connection points: 2
#     Edge 62, Type (0, 0), BuildingBlock: CIFDUS_clean_linker_0, # of connection points: 2
#     Edge 63, Type (0, 0), BuildingBlock: CIFDUS_clean_linker_0, # of connection points: 2
# Relax obj value: 0.588
# Max RMSD: 0.327
# Mean RMSD: 0.327
data_MOF--net-wiu--node1-INOVEN_clean_sbu_0--edge1-CIFDUS_clean_linker_0
_symmetry_space_group_name_H-M    P1
_symmetry_Int_Tables_number       1
_symmetry_cell_setting            triclinic
loop_
_symmetry_equiv_pos_as_xyz
'x, y, z'
_cell_length_a     33.384102
_cell_length_b     33.312274
_cell_length_c     46.832995
_cell_angle_alpha  90.261877
_cell_angle_beta   89.816633
_cell_angle_gamma 90.030825
loop_
_atom_site_label
_atom_site_type_symbol
_atom_site_fract_x
_atom_site_fract_y
_atom_site_fract_z
_atom_type_partial_charge
Gd0 Gd 0.35518 0.18717 0.3489 0.0
Gd1 Gd 0.40646 0.12396 0.3269 0.0
C2 C 0.39392 0.12117 0.39338 0.0
C3 C 0.3073 0.23907 0.37219 0.0
C4 C 0.2932 0.27958 0.36377 0.0
C5 C 0.31935 0.31272 0.3626 0.0
C6 C 0.25309 0.28495 0.35576 0.0
C7 C 0.26544 0.3556 0.34523 0.0
C8 C 0.23945 0.32233 0.34646 0.0
C9 C 0.3056 0.35029 0.35349 0.0
C10 C 0.42907 0.2156 0.33269 0.0
C11 C 0.34441 0.16797 0.28136 0.0
C12 C 0.46321 0.08477 0.3016 0.0
C13 C 0.50493 0.07207 0.30564 0.0
C14 C 0.5182 1.03801 0.29095 0.0
C15 C 0.53258 0.09538 0.32105 0.0
C16 C 0.58737 0.05565 0.30154 0.0
C17 C 0.57371 0.08761 0.31866 0.0
C18 C 0.55896 1.02963 0.28909 0.0
C19 C 0.33158 0.09668 0.33943 0.0
O20 O 0.36277 0.14469 0.38748 0.0
O21 O 0.42145 0.1151 0.37353 0.0
O22 O 0.29492 0.20926 0.35632 0.0
O23 O 0.34487 0.23531 0.3795 0.0
O24 O 0.39524 0.23273 0.32717 0.0
O25 O 0.42239 0.18317 0.34621 0.0
O26 O 0.37682 0.14512 0.28474 0.0
O27 O 0.32851 0.18625 0.30391 0.0
O28 O 0.45689 0.12319 0.29791 0.0
O29 O 0.43609 0.06747 0.31746 0.0
O30 O 0.36375 0.07521 0.34207 0.0
O31 O 0.34097 0.12978 0.3286 0.0
H32 H 0.35051 0.30968 0.36858 0.0
H33 H 0.23228 0.25999 0.35633 0.0
H34 H 0.20851 0.32493 0.33985 0.0
H35 H 0.32638 0.37526 0.35323 0.0
H36 H 0.49725 1.01937 0.27923 0.0
H37 H 0.52263 0.1207 0.33363 0.0
H38 H 0.59481 0.108 0.32861 0.0
H39 H 0.56817 1.00497 0.27543 0.0
Gd40 Gd 0.62426 0.60097 0.60231 0.0
Gd41 Gd 0.68266 0.65393 0.579 0.0
C42 C 0.69507 0.63626 0.64528 0.0
C43 C 0.57183 0.55401 0.62553 0.0
C44 C 0.52901 0.54793 0.61893 0.0
C45 C 0.50462 0.58054 0.61132 0.0
C46 C 0.51317 0.50897 0.6175 0.0
C47 C 0.44975 0.53516 0.5997 0.0
C48 C 0.47391 0.50262 0.60803 0.0
C49 C 0.46546 0.57424 0.60184 0.0
C50 C 0.59065 0.67213 0.58411 0.0
C51 C 0.64029 0.59095 0.53465 0.0
C52 C 0.71256 0.71694 0.5553 0.0
C53 C 0.69395 0.74951 0.53938 0.0
C54 C 0.71672 0.78292 0.53174 0.0
C55 C 0.65306 0.74799 0.53257 0.0
C56 C 0.65883 0.81159 0.50774 0.0
C57 C 0.63554 0.77891 0.5169 0.0
C58 C 0.69938 0.8137 0.51601 0.0
C59 C 0.7158 0.58081 0.59007 0.0
O60 O 0.6659 0.60946 0.64144 0.0
O61 O 0.70549 0.66003 0.62411 0.0
O62 O 0.59678 0.54206 0.60576 0.0
O63 O 0.58178 0.58883 0.63637 0.0
O64 O 0.57746 0.63657 0.57852 0.0
O65 O 0.62293 0.66843 0.59815 0.0
O66 O 0.65577 0.62763 0.53739 0.0
O67 O 0.62911 0.57168 0.55806 0.0
O68 O 0.71256 0.68165 0.54294 0.0
O69 O 0.70203 0.71555 0.5821 0.0
O70 O 0.73588 0.61427 0.59045 0.0
O71 O 0.68114 0.58804 0.5813 0.0
H72 H 0.5161 0.61093 0.612 0.0
H73 H 0.53149 0.48337 0.6231 0.0
H74 H 0.46256 0.47219 0.60707 0.0
H75 H 0.44794 0.59996 0.59533 0.0
H76 H 0.74819 0.78467 0.53724 0.0
H77 H 0.63498 0.72247 0.53881 0.0
H78 H 0.6043 0.77645 0.51096 0.0
H79 H 0.71857 0.83788 0.50884 0.0
Gd80 Gd 0.21054 0.87471 0.84801 0.0
Gd81 Gd 0.16233 0.93942 0.82578 0.0
C82 C 0.17443 0.94376 0.89234 0.0
C83 C 0.25697 0.82183 0.871 0.0
C84 C 0.27254 0.78248 0.86087 0.0
C85 C 0.24981 0.74713 0.86383 0.0
C86 C 0.31001 0.7802 0.84718 0.0
C87 C 0.30125 0.70843 0.8389 0.0
C88 C 0.32407 0.74374 0.83622 0.0
C89 C 0.26398 0.71056 0.85293 0.0
C90 C 0.13525 0.84938 0.83293 0.0
C91 C 0.22391 0.89315 0.78042 0.0
C92 C 0.1047 0.97532 0.7999 0.0
C93 C 0.06158 0.98252 0.80414 0.0
C94 C 0.04639 1.02102 0.79942 0.0
C95 C 1.0349 0.95097 0.81005 0.0
C96 C 0.97832 0.99458 0.79998 0.0
C97 C 0.99355 0.95707 0.80835 0.0
C98 C 1.00517 1.02709 0.79743 0.0
C99 C 0.23766 0.96429 0.83819 0.0
O100 O 0.20367 0.91754 0.88686 0.0
O101 O 0.14821 0.95197 0.87218 0.0
O102 O 0.2703 0.85352 0.85764 0.0
O103 O 0.21864 0.82417 0.87656 0.0
O104 O 0.16825 0.83122 0.82625 0.0
O105 O 0.14376 0.88172 0.84624 0.0
O106 O 0.19542 0.92068 0.78418 0.0
O107 O 0.23561 0.87113 0.80242 0.0
O108 O 0.11557 0.93833 0.79415 0.0
O109 O 0.12911 0.99399 0.81725 0.0
O110 O 0.2066 0.98779 0.83888 0.0
O111 O 0.22737 0.93103 0.82791 0.0
H112 H 0.22093 0.74769 0.87442 0.0
H113 H 0.32838 0.80676 0.84459 0.0
H114 H 0.35271 0.74338 0.8253 0.0
H115 H 0.24594 0.68385 0.85584 0.0
H116 H 0.06646 0.04586 0.79512 0.0
H117 H 0.04591 0.92103 0.81399 0.0
H118 H 0.97378 0.93155 0.81095 0.0
H119 H 0.99494 0.05645 0.79085 0.0
Gd120 Gd 0.94069 0.46073 1.10056 0.0
Gd121 Gd 0.87775 0.41241 1.0766 0.0
C122 C 0.87002 0.42319 1.1431 0.0
C123 C 0.99383 0.50532 1.12563 0.0
C124 C 1.03434 0.5175 1.11651 0.0
C125 C 0.04823 0.50766 1.08902 0.0
C126 C 0.0591 0.53952 1.13489 0.0
C127 C 0.11086 0.54308 1.09796 0.0
C128 C 0.09703 0.55221 1.12572 0.0
C129 C 0.08611 0.52026 1.07984 0.0
C130 C 0.9671 0.38592 1.08389 0.0
C131 C 0.92597 0.47466 1.03325 0.0
C132 C 0.84416 0.36283 1.04224 0.0
C133 C 0.84405 0.36596 1.01084 0.0
C134 C 0.80767 0.36841 0.99615 0.0
C135 C 0.8801 0.37223 0.99581 0.0
C136 C 0.84331 0.38428 0.95206 0.0
C137 C 0.87969 0.38149 0.96682 0.0
C138 C 0.80728 0.3773 0.96702 0.0
C139 C 0.85136 0.48704 1.09007 0.0
O140 O 0.89645 0.4526 1.13844 0.0
O141 O 0.8618 0.39744 1.12234 0.0
O142 O 0.96449 0.51974 1.11047 0.0
O143 O 0.98912 0.46725 1.13115 0.0
O144 O 0.98505 0.41938 1.07819 0.0
O145 O 0.93473 0.39377 1.09715 0.0
O146 O 0.9037 0.44186 1.03583 0.0
O147 O 0.94241 0.49035 1.05646 0.0
O148 O 0.82395 0.39075 1.05567 0.0
O149 O 0.87894 0.35561 1.05398 0.0
O150 O 0.82953 0.45487 1.09249 0.0
O151 O 0.88489 0.47782 1.07952 0.0
H152 H 1.02948 0.49073 1.07447 0.0
H153 H 0.04899 0.54722 1.15623 0.0
H154 H 0.11552 0.56924 1.14038 0.0
H155 H 0.09553 0.51309 1.05826 0.0
H156 H 0.77952 0.36409 1.0073 0.0
H157 H 0.90876 0.37106 1.00655 0.0
H158 H 0.90793 0.38659 0.956 0.0
H159 H 0.77871 0.37797 0.95616 0.0
Gd160 Gd 0.66935 0.93983 1.04723 0.0
Gd161 Gd 0.71014 0.87227 1.02398 0.0
C162 C 0.7302 0.89019 1.09047 0.0
C163 C 0.62706 0.98006 1.08288 0.0
C164 C 0.63862 0.99102 1.11227 0.0
C165 C 0.67611 1.00882 1.11806 0.0
C166 C 0.61495 0.97763 1.13505 0.0
C167 C 0.66647 0.9979 1.16878 0.0
C168 C 0.62881 0.98087 1.163 0.0
C169 C 0.68971 1.01268 1.14619 0.0
C170 C 0.74502 0.95976 1.03177 0.0
C171 C 0.67358 0.94231 0.98066 0.0
C172 C 0.75114 0.81609 0.99904 0.0
C173 C 0.76402 0.77649 1.00946 0.0
C174 C 0.74878 0.76148 1.03529 0.0
C175 C 0.79317 0.75447 0.9946 0.0
C176 C 0.79263 0.70332 1.0318 0.0
C177 C 0.80738 0.71819 1.00566 0.0
C178 C 0.76278 0.72515 1.04628 0.0
C179 C 0.63524 0.85139 1.04297 0.0
O180 O 0.70461 0.92019 1.08711 0.0
O181 O 0.73778 0.86607 1.06853 0.0
O182 O 0.647 0.99733 1.06216 0.0
O183 O 0.62184 0.94149 1.07873 0.0
O184 O 0.71437 0.98342 1.02885 0.0
O185 O 0.73376 0.92741 1.04306 0.0
O186 O 0.70153 0.91433 0.98502 0.0
O187 O 0.65041 0.95353 1.00215 0.0
O188 O 0.76755 0.84679 1.01187 0.0
O189 O 0.71265 0.82076 0.99546 0.0
O190 O 0.66778 0.83164 1.04782 0.0
O191 O 0.64399 0.88297 1.02897 0.0
H192 H 0.69548 1.01869 1.10087 0.0
H193 H 0.58629 0.96336 1.13113 0.0
H194 H 0.60995 0.97014 1.18024 0.0
H195 H 0.7186 1.02634 1.15026 0.0
H196 H 0.7266 0.77825 1.04728 0.0
H197 H 0.80538 0.76562 0.97469 0.0
H198 H 0.83007 0.70183 0.99382 0.0
H199 H 0.75114 0.7148 1.06657 0.0
Gd200 Gd 0.37203 0.41049 0.79802 0.0
Gd201 Gd 0.43954 0.45386 0.77741 0.0
C202 C 0.41887 0.46915 0.84417 0.0
C203 C 0.32692 0.36636 0.82919 0.0
C204 C 0.31126 0.37626 0.85794 0.0
C205 C 0.28119 0.40553 0.86181 0.0
C206 C 0.33003 0.36009 0.88202 0.0
C207 C 0.29054 0.4034 0.91318 0.0
C208 C 0.31995 0.37363 0.90928 0.0
C209 C 0.27075 0.41878 0.88923 0.0
C210 C 0.35158 0.48698 0.78422 0.0
C211 C 0.37196 0.41942 0.73188 0.0
C212 C 0.49824 0.49385 0.75472 0.0
C213 C 0.54042 0.49951 0.76352 0.0
C214 C 0.56058 0.46974 0.77905 0.0
C215 C 0.55995 0.53597 0.75813 0.0
C216 C 0.61877 0.5134 0.78455 0.0
C217 C 0.59874 0.54284 0.76845 0.0
C218 C 0.59927 0.47659 0.78944 0.0
C219 C 0.46024 0.37779 0.79457 0.0
O220 O 0.39464 0.43801 0.84037 0.0
O221 O 0.43865 0.48345 0.82183 0.0
O222 O 0.31292 0.38761 0.80804 0.0
O223 O 0.36576 0.36109 0.82758 0.0
O224 O 0.3282 0.45629 0.78076 0.0
O225 O 0.38341 0.47563 0.79593 0.0
O226 O 0.39763 0.44898 0.73801 0.0
O227 O 0.36294 0.3932 0.75192 0.0
O228 O 0.47152 0.51009 0.77153 0.0
O229 O 0.48792 0.45784 0.7464 0.0
O230 O 0.47883 0.41038 0.80158 0.0
O231 O 0.42953 0.38709 0.78001 0.0
H232 H 0.26622 0.41883 0.84369 0.0
H233 H 0.35323 0.33756 0.87976 0.0
H234 H 0.33476 0.36017 0.92742 0.0
H235 H 0.24752 0.44122 0.89172 0.0
H236 H 0.5462 0.44138 0.78362 0.0
H237 H 0.54497 0.5594 0.74626 0.0
H238 H 0.61303 0.57128 0.76381 0.0
H239 H 0.61347 0.45336 0.80194 0.0
Gd240 Gd 0.90133 0.12279 0.54646 0.0
Gd241 Gd 0.85695 0.18949 0.52564 0.0
C242 C 0.84174 0.1694 0.59247 0.0
C243 C 0.94554 0.07788 0.57749 0.0
C244 C 0.93456 0.05865 0.60482 0.0
C245 C 0.9083 1.02552 0.60553 0.0
C246 C 0.94695 0.07599 0.63067 0.0
C247 C 0.90678 1.02797 0.65736 0.0
C248 C 0.93312 0.06094 0.65662 0.0
C249 C 0.89467 1.01027 0.63156 0.0
C250 C 0.82514 0.10131 0.53279 0.0
C251 C 0.89332 0.12215 0.48007 0.0
C252 C 0.81456 0.24646 0.50338 0.0
C253 C 0.7992 0.28517 0.5149 0.0
C254 C 0.81487 0.32176 0.50497 0.0
C255 C 0.7697 0.28607 0.53641 0.0
C256 C 0.77182 0.35923 0.53775 0.0
C257 C 0.75617 0.32261 0.54764 0.0
C258 C 0.80148 0.35839 0.51636 0.0
C259 C 0.9324 0.21166 0.54298 0.0
O260 O 0.87287 0.14513 0.58872 0.0
O261 O 0.82757 0.18913 0.57013 0.0
O262 O 0.92714 0.06447 0.55476 0.0
O263 O 0.94823 0.11714 0.57807 0.0
O264 O 0.85594 0.07813 0.5294 0.0
O265 O 0.83628 0.13338 0.54448 0.0
O266 O 0.86409 0.14832 0.48582 0.0
O267 O 0.91893 0.113 0.50041 0.0
O268 O 0.79904 0.21363 0.51379 0.0
O269 O 0.85327 0.24369 0.50001 0.0
O270 O 0.89954 0.22992 0.54991 0.0
O271 O 0.92375 0.18049 0.52837 0.0
H272 H 0.89784 1.01156 0.586 0.0
H273 H 0.96706 0.10154 0.63085 0.0
H274 H 0.94401 0.07449 0.67618 0.0
H275 H 0.87475 0.98458 0.63152 0.0
H276 H 0.8376 0.32203 0.4884 0.0
H277 H 0.75708 0.25855 0.54478 0.0
H278 H 0.73358 0.32217 0.56429 0.0
H279 H 0.8138 0.38608 0.50805 0.0
Gd280 Gd 0.19029 0.65203 0.29935 0.0
Gd281 Gd 0.12499 0.60582 0.27739 0.0
C282 C 0.14301 0.59229 0.34495 0.0
C283 C 0.22569 0.70976 0.3258 0.0
C284 C 0.23199 0.75327 0.32205 0.0
C285 C 0.25954 0.76859 0.30209 0.0
C286 C 0.21234 0.77988 0.34057 0.0
C287 C 0.25351 0.83521 0.32343 0.0
C288 C 0.22275 0.8203 0.34119 0.0
C289 C 0.26998 0.80931 0.30264 0.0
C290 C 0.2139 0.57565 0.28777 0.0
C291 C 0.19503 0.63903 0.23314 0.0
C292 C 0.0701 0.56229 0.25363 0.0
C293 C 1.02776 0.55592 0.2616 0.0
C294 C 1.00539 0.58706 0.27418 0.0
C295 C 1.01053 0.51769 0.25908 0.0
C296 C 0.94959 0.54147 0.28262 0.0
C297 C 0.97176 0.51052 0.26942 0.0
C298 C 0.96679 0.57993 0.28458 0.0
C299 C 0.10137 0.68187 0.29282 0.0
O300 O 0.172 0.61912 0.34088 0.0
O301 O 0.11994 0.58177 0.32313 0.0
O302 O 0.18894 0.69849 0.33154 0.0
O303 O 0.24457 0.68524 0.30845 0.0
O304 O 0.23735 0.60669 0.28547 0.0
O305 O 0.18066 0.58684 0.29765 0.0
O306 O 0.16891 0.60982 0.23893 0.0
O307 O 0.20309 0.6658 0.25312 0.0
O308 O 0.09623 0.54789 0.27155 0.0
O309 O 0.07968 0.59817 0.2447 0.0
O310 O 0.08232 0.64927 0.29892 0.0
O311 O 0.13328 0.67262 0.27938 0.0
H312 H 0.27464 0.74886 0.2871 0.0
H313 H 0.19069 0.76899 0.356 0.0
H314 H 0.20926 0.83863 0.35775 0.0
H315 H 0.29311 0.81979 0.28822 0.0
H316 H 1.01799 0.61681 0.27657 0.0
H317 H 1.02733 0.49319 0.24959 0.0
H318 H 0.95921 0.4807 0.26714 0.0
H319 H 0.95089 0.60437 0.29489 0.0
Gd320 Gd 0.86321 0.6845 0.84795 0.0
Gd321 Gd 0.90573 0.61528 0.82582 0.0
C322 C 0.89895 0.61728 0.89306 0.0
C323 C 0.82345 0.74421 0.86947 0.0
C324 C 0.81382 0.78449 0.85792 0.0
C325 C 0.8253 0.81917 0.87298 0.0
C326 C 0.7952 0.78885 0.83119 0.0
C327 C 0.79983 0.86178 0.83484 0.0
C328 C 0.78812 0.82702 0.81987 0.0
C329 C 0.81852 0.85738 0.86154 0.0
C330 C 0.93838 0.70433 0.82871 0.0
C331 C 0.84652 0.66225 0.78089 0.0
C332 C 0.95827 0.5702 0.80107 0.0
C333 C 0.99987 0.55817 0.80628 0.0
C334 C 1.01383 0.52232 0.7943 0.0
C335 C 1.02674 0.58363 0.82065 0.0
C336 C 0.0824 0.54185 0.80511 0.0
C337 C 0.06791 0.57583 0.81973 0.0
C338 C 0.05472 0.51399 0.79395 0.0
C339 C 0.82875 0.59678 0.84054 0.0
O340 O 0.8713 0.64545 0.8885 0.0
O341 O 0.92201 0.60533 0.87179 0.0
O342 O 0.80633 0.71334 0.85726 0.0
O343 O 0.86113 0.73762 0.87512 0.0
O344 O 0.90584 0.72375 0.82316 0.0
O345 O 0.92943 0.67335 0.84331 0.0
O346 O 0.87672 0.63664 0.78387 0.0
O347 O 0.83374 0.68294 0.8035 0.0
O348 O 0.95262 0.60793 0.79442 0.0
O349 O 0.9314 0.55626 0.81874 0.0
O350 O 0.85826 0.57153 0.84164 0.0
O351 O 0.8414 0.62856 0.82949 0.0
H352 H 0.83986 0.81668 0.89354 0.0
H353 H 0.78644 0.76277 0.81879 0.0
H354 H 0.77403 0.8293 0.79914 0.0
H355 H 0.82748 0.88353 0.87378 0.0
H356 H 0.99342 0.50205 0.78351 0.0
H357 H 1.01612 0.6107 0.83102 0.0
H358 H 0.08852 0.59774 0.82851 0.0
H359 H 0.06479 0.48775 0.78222 0.0
Gd360 Gd 0.12804 0.11041 1.09852 0.0
Gd361 Gd 0.1973 0.15009 1.07558 0.0
C362 C 0.19797 0.14543 1.14262 0.0
C363 C 0.0716 0.06937 1.12306 0.0
C364 C 1.03265 0.05424 1.11305 0.0
C365 C 1.02032 0.06097 1.08485 0.0
C366 C 1.00788 1.03228 1.13144 0.0
C367 C 0.95907 1.02291 1.09327 0.0
C368 C 0.9714 1.01677 1.12167 0.0
C369 C 0.98387 0.04549 1.07504 0.0
C370 C 0.10887 0.18602 1.08039 0.0
C371 C 0.14731 0.09118 1.03127 0.0
C372 C 0.24285 0.20004 1.04887 0.0
C373 C 0.25824 0.24082 1.05334 0.0
C374 C 0.29337 0.25231 1.03932 0.0
C375 C 0.23671 0.26931 1.06936 0.0
C376 C 0.28036 0.32209 1.05175 0.0
C377 C 0.24733 0.30992 1.06823 0.0
C378 C 0.30461 0.29257 1.03875 0.0
C379 C 0.21398 0.07325 1.09084 0.0
O380 O 0.16805 0.11946 1.13862 0.0
O381 O 0.21098 0.16691 1.12098 0.0
O382 O 0.103 0.05306 1.1111 0.0
O383 O 0.07485 0.10829 1.12529 0.0
O384 O 0.0885 0.15381 1.07511 0.0
O385 O 0.1406 0.17647 1.09402 0.0
O386 O 0.17743 0.11686 1.03467 0.0
O387 O 0.12327 0.08341 1.05327 0.0
O388 O 0.2043 0.19679 1.04413 0.0
O389 O 0.25672 0.17248 1.0659 0.0
O390 O 0.23952 0.10254 1.09254 0.0
O391 O 0.18248 0.08606 1.07952 0.0
H392 H 0.03914 0.07783 1.07031 0.0
H393 H 1.01686 1.02692 1.15331 0.0
H394 H 0.95279 1.00004 1.1364 0.0
H395 H 0.97557 0.05042 1.053 0.0
H396 H 0.31071 0.23056 1.02724 0.0
H397 H 0.21047 0.26046 1.08131 0.0
H398 H 0.22815 0.332 1.07841 0.0
H399 H 0.32998 0.30091 1.02556 0.0
Gd400 Gd 0.70075 0.37685 0.34903 0.0
Gd401 Gd 0.66609 0.44715 0.32661 0.0
C402 C 0.66582 0.44734 0.39346 0.0
C403 C 0.73604 0.31606 0.37213 0.0
C404 C 0.74776 0.27677 0.35974 0.0
C405 C 0.73451 0.24106 0.37249 0.0
C406 C 0.76957 0.27451 0.33402 0.0
C407 C 0.76445 0.20156 0.33398 0.0
C408 C 0.77799 0.23733 0.32139 0.0
C409 C 0.74265 0.20383 0.3597 0.0
C410 C 0.62572 0.3609 0.32865 0.0
C411 C 0.72486 0.39597 0.2829 0.0
C412 C 0.62824 0.49357 0.29264 0.0
C413 C 0.64213 0.50985 0.26501 0.0
C414 C 0.67193 0.53982 0.26367 0.0
C415 C 0.62815 0.49269 0.23955 0.0
C416 C 0.67311 0.53504 0.21191 0.0
C417 C 0.64358 0.50496 0.21335 0.0
C418 C 0.68707 0.55249 0.23731 0.0
C419 C 0.74207 0.46144 0.3442 0.0
O420 O 0.6907 0.41631 0.38969 0.0
O421 O 0.64656 0.46195 0.37131 0.0
O422 O 0.75533 0.34762 0.36294 0.0
O423 O 0.69759 0.32237 0.37434 0.0
O424 O 0.65767 0.34061 0.32262 0.0
O425 O 0.63559 0.39169 0.34337 0.0
O426 O 0.70064 0.42707 0.28644 0.0
O427 O 0.7303 0.37106 0.30461 0.0
O428 O 0.64644 0.50695 0.31548 0.0
O429 O 0.62219 0.45467 0.29317 0.0
O430 O 0.71314 0.48732 0.34616 0.0
O431 O 0.72947 0.43031 0.3319 0.0
H432 H 0.71738 0.24201 0.39217 0.0
H433 H 0.77968 0.30148 0.32336 0.0
H434 H 0.79451 0.23662 0.30145 0.0
H435 H 0.7322 0.17677 0.37009 0.0
H436 H 0.68371 0.55345 0.28293 0.0
H437 H 0.60535 0.46953 0.23988 0.0
H438 H 0.63124 0.49182 0.19408 0.0
H439 H 0.70933 0.57614 0.23674 0.0
Gd440 Gd 0.44189 0.95887 0.5992 0.0
Gd441 Gd 0.37814 0.91544 0.57616 0.0
C442 C 0.37218 0.92122 0.64252 0.0
C443 C 0.49582 1.00243 0.62405 0.0
C444 C 0.53404 1.0198 0.61348 0.0
C445 C 0.57057 0.9999 0.61812 0.0
C446 C 0.53422 0.05545 0.59748 0.0
C447 C 0.60628 0.05001 0.59006 0.0
C448 C 0.56986 0.0703 0.58588 0.0
C449 C 0.60626 1.01476 0.60647 0.0
C450 C 0.46757 0.88467 0.58113 0.0
C451 C 0.42645 0.97726 0.53239 0.0
C452 C 0.33943 0.87162 0.5408 0.0
C453 C 0.32584 0.88453 0.51246 0.0
C454 C 0.3318 0.85941 0.48885 0.0
C455 C 0.31245 0.92419 0.5082 0.0
C456 C 0.31174 0.91337 0.45698 0.0
C457 C 0.3051 0.93838 0.48067 0.0
C458 C 0.32479 0.87366 0.46136 0.0
C459 C 0.35472 0.99116 0.58979 0.0
O460 O 0.39982 0.9495 0.6382 0.0
O461 O 0.36236 0.89737 0.62112 0.0
O462 O 0.46288 1.01718 0.6134 0.0
O463 O 0.49438 0.9634 0.62636 0.0
O464 O 0.48362 0.91877 0.57458 0.0
O465 O 0.43538 0.89161 0.59518 0.0
O466 O 0.39762 0.95026 0.53575 0.0
O467 O 0.44896 0.98662 0.5547 0.0
O468 O 0.32201 0.88897 0.56267 0.0
O469 O 0.3784 0.8693 0.54342 0.0
O470 O 0.33215 0.95977 0.59311 0.0
O471 O 0.38753 0.98052 0.57899 0.0
H472 H 0.57154 0.97254 0.63051 0.0
H473 H 0.50672 0.07168 0.59347 0.0
H474 H 0.56874 0.09737 0.57319 0.0
H475 H 0.6339 0.9988 0.61053 0.0
H476 H 0.34274 0.82906 0.49163 0.0
H477 H 0.30864 0.94459 0.52608 0.0
H478 H 0.29486 0.96895 0.47784 0.0
H479 H 0.3292 0.8534 0.44347 0.0
Gd480 Gd 0.16642 0.44274 0.55006 0.0
Gd481 Gd 0.20655 0.37492 0.52587 0.0
C482 C 0.22714 0.39203 0.59268 0.0
C483 C 0.12444 0.48487 0.58486 0.0
C484 C 0.13649 0.50129 0.61293 0.0
C485 C 0.16577 0.53167 0.61524 0.0
C486 C 0.12152 0.48363 0.63788 0.0
C487 C 0.16496 0.52583 0.66691 0.0
C488 C 0.13571 0.4956 0.66452 0.0
C489 C 0.17962 0.54406 0.64204 0.0
C490 C 0.24231 0.4617 0.53437 0.0
C491 C 0.17082 0.4463 0.48339 0.0
C492 C 0.24748 0.31982 0.49974 0.0
C493 C 0.26314 0.28003 0.50836 0.0
C494 C 0.23777 0.24651 0.51126 0.0
C495 C 0.30397 0.27572 0.51472 0.0
C496 C 0.29376 0.20555 0.52741 0.0
C497 C 0.31903 0.23909 0.5243 0.0
C498 C 0.25293 0.20969 0.52067 0.0
C499 C 0.13146 0.35432 0.54447 0.0
O500 O 0.2016 0.42222 0.58974 0.0
O501 O 0.23438 0.36818 0.57046 0.0
O502 O 0.14189 0.5004 0.56241 0.0
O503 O 0.12158 0.44563 0.58348 0.0
O504 O 0.21251 0.48669 0.53346 0.0
O505 O 0.23053 0.42934 0.5452 0.0
O506 O 0.19815 0.41766 0.48735 0.0
O507 O 0.14788 0.45735 0.50502 0.0
O508 O 0.2638 0.3509 0.51219 0.0
O509 O 0.2087 0.32357 0.49716 0.0
O510 O 0.16386 0.33416 0.5492 0.0
O511 O 0.14052 0.3864 0.53104 0.0
H512 H 0.17829 0.54568 0.59639 0.0
H513 H 0.0991 0.46015 0.63677 0.0
H514 H 0.12291 0.48186 0.68339 0.0
H515 H 0.20171 0.56783 0.64336 0.0
H516 H 0.20614 0.2487 0.50644 0.0
H517 H 0.32429 0.30093 0.51269 0.0
H518 H 0.3505 0.23731 0.52967 0.0
H519 H 0.23272 0.18438 0.52238 0.0
Gd520 Gd 0.87284 0.91911 0.29383 0.0
Gd521 Gd 0.94294 0.9578 0.27358 0.0
C522 C 0.92083 0.97724 0.33982 0.0
C523 C 0.81981 0.87805 0.32077 0.0
C524 C 0.78935 0.89021 0.34199 0.0
C525 C 0.74879 0.89164 0.33408 0.0
C526 C 0.80032 0.90249 0.36957 0.0
C527 C 0.73028 0.91407 0.38178 0.0
C528 C 0.77112 0.91417 0.38925 0.0
C529 C 0.71958 0.90374 0.3537 0.0
C530 C 0.85661 0.99581 0.27769 0.0
C531 C 0.87694 0.92258 0.22762 0.0
C532 C 1.00149 0.99708 0.2502 0.0
C533 C 0.04137 1.00905 0.26054 0.0
C534 C 0.0562 0.994 0.2864 0.0
C535 C 0.06376 1.03757 0.2455 0.0
C536 C 0.11481 1.03724 0.28268 0.0
C537 C 0.10017 0.05156 0.25645 0.0
C538 C 0.09271 1.00782 0.29732 0.0
C539 C 0.96065 0.88212 0.29277 0.0
O540 O 0.89094 0.95158 0.33553 0.0
O541 O 0.94601 0.98503 0.31857 0.0
O542 O 0.81412 0.89228 0.29519 0.0
O543 O 0.85753 0.87903 0.3286 0.0
O544 O 0.83196 0.96612 0.27475 0.0
O545 O 0.8874 0.98355 0.29026 0.0
O546 O 0.90315 0.95166 0.23325 0.0
O547 O 0.86666 0.8982 0.24835 0.0
O548 O 0.97141 1.01437 0.26312 0.0
O549 O 0.99567 0.95869 0.24629 0.0
O550 O 0.9805 0.91439 0.29873 0.0
O551 O 0.93015 0.89158 0.27789 0.0
H552 H 0.73959 0.88296 0.31276 0.0
H553 H 0.83136 0.90235 0.37623 0.0
H554 H 0.78054 0.9211 0.41082 0.0
H555 H 0.68848 0.90358 0.34719 0.0
H556 H 0.03911 0.97223 0.29848 0.0
H557 H 0.05275 0.04958 0.22554 0.0
H558 H 0.11676 0.07384 0.24447 0.0
H559 H 0.10296 0.99647 0.31766 0.0
Gd560 Gd 0.40453 0.61809 1.05046 0.0
Gd561 Gd 0.36201 0.68526 1.02846 0.0
C562 C 0.34412 0.66548 1.09551 0.0
C563 C 0.459 0.57864 1.07729 0.0
C564 C 0.50208 0.57086 1.07346 0.0
C565 C 0.51738 0.53294 1.07991 0.0
C566 C 0.52852 0.6016 1.06541 0.0
C567 C 0.58554 0.55867 1.07552 0.0
C568 C 0.56989 0.59548 1.06611 0.0
C569 C 0.55871 0.52682 1.08093 0.0
C570 C 0.32838 0.5967 1.03681 0.0
C571 C 0.39621 0.61559 0.98369 0.0
C572 C 0.32091 0.74243 1.00529 0.0
C573 C 0.31376 0.78435 1.0144 0.0
C574 C 0.34283 0.8054 1.03012 0.0
C575 C 0.27688 0.80285 1.00893 0.0
C576 C 0.29799 0.86267 1.03527 0.0
C577 C 0.26906 0.84166 1.01921 0.0
C578 C 0.33506 0.84407 1.04042 0.0
C579 C 0.43789 0.7068 1.04475 0.0
O580 O 0.36979 0.63547 1.0915 0.0
O581 O 0.33626 0.68999 1.07396 0.0
O582 O 0.44896 0.61563 1.08372 0.0
O583 O 0.43496 0.56179 1.0588 0.0
O584 O 0.35899 0.57278 1.03462 0.0
O585 O 0.3398 0.62955 1.04736 0.0
O586 O 0.36909 0.64433 0.98836 0.0
O587 O 0.41934 0.60385 1.00477 0.0
O588 O 0.30489 0.71492 1.02147 0.0
O589 O 0.35751 0.73349 0.99767 0.0
O590 O 0.40551 0.72573 1.05165 0.0
O591 O 0.42827 0.67503 1.03111 0.0
H592 H 0.49745 0.50871 1.08594 0.0
H593 H 0.51727 0.63106 1.06031 0.0
H594 H 0.58957 0.62051 1.0615 0.0
H595 H 0.56933 0.49812 1.08857 0.0
H596 H 0.37147 0.79181 1.03481 0.0
H597 H 0.25397 0.78712 0.99695 0.0
H598 H 0.2404 0.85526 1.01447 0.0
H599 H 0.35785 0.85903 1.05297 0.0
Gd600 Gd 0.69001 0.14695 0.79744 0.0
Gd601 Gd 0.62375 0.1029 0.77327 0.0
C602 C 0.64288 0.08484 0.8407 0.0
C603 C 0.7242 0.20418 0.82496 0.0
C604 C 0.73027 0.24752 0.82011 0.0
C605 C 0.75928 0.26175 0.8008 0.0
C606 C 0.70843 0.27523 0.8365 0.0
C607 C 0.75097 0.32949 0.81956 0.0
C608 C 0.71838 0.31581 0.83606 0.0
C609 C 0.76929 0.30252 0.80035 0.0
C610 C 0.71287 0.07167 0.78248 0.0
C611 C 0.69407 0.14024 0.73033 0.0
C612 C 0.5685 0.06072 0.74858 0.0
C613 C 0.52757 0.05026 0.75792 0.0
C614 C 0.49718 0.04407 0.73777 0.0
C615 C 0.51805 0.04877 0.78714 0.0
C616 C 0.44813 1.03522 0.776 0.0
C617 C 0.47881 0.04112 0.79608 0.0
C618 C 0.45777 1.03666 0.74672 0.0
C619 C 0.60121 0.17781 0.79147 0.0
O620 O 0.6721 0.11156 0.83763 0.0
O621 O 0.61939 0.07622 0.81859 0.0
O622 O 0.68726 0.19286 0.83003 0.0
O623 O 0.74406 0.17914 0.80856 0.0
O624 O 0.73711 0.10229 0.78292 0.0
O625 O 0.67942 0.08216 0.79251 0.0
O626 O 0.66512 0.11298 0.73385 0.0
O627 O 0.70555 0.16247 0.75215 0.0
O628 O 0.59772 0.0449 0.76321 0.0
O629 O 0.57452 0.09864 0.74317 0.0
O630 O 0.58159 0.14506 0.79634 0.0
O631 O 0.6332 0.16911 0.77787 0.0
H632 H 0.77598 0.24121 0.7873 0.0
H633 H 0.6854 0.26522 0.85119 0.0
H634 H 0.7034 0.33537 0.85121 0.0
H635 H 0.79402 0.3122 0.78702 0.0
H636 H 0.50385 0.0454 0.71514 0.0
H637 H 0.54088 0.05408 0.8031 0.0
H638 H 0.47232 0.04075 0.81875 0.0
H639 H 0.43486 1.03188 0.73073 0.0
H640 H 0.44396 0.29752 0.33512 0.0
H641 H 0.50388 0.18383 0.3272 0.0
H642 H 0.56882 0.21795 0.3244 0.0
H643 H 0.60909 0.28037 0.3242 0.0
H644 H 0.55045 0.3946 0.33545 0.0
H645 H 0.48505 0.36053 0.33688 0.0
C646 C 0.47125 0.28017 0.33279 0.0
C647 C 0.46877 0.23757 0.33145 0.0
C648 C 0.50891 0.30042 0.33173 0.0
C649 C 0.50472 0.21609 0.32865 0.0
C650 C 0.54193 0.23585 0.32689 0.0
C651 C 0.58207 0.29805 0.32688 0.0
C652 C 0.58515 0.34045 0.32945 0.0
C653 C 0.54451 0.27802 0.32841 0.0
C654 C 0.54941 0.36223 0.33331 0.0
C655 C 0.51187 0.3426 0.33413 0.0
H656 H 0.6081 0.75385 0.59149 0.0
H657 H 0.50999 0.67281 0.57532 0.0
H658 H 0.4632 0.72893 0.57457 0.0
H659 H 0.44885 0.80252 0.57772 0.0
H660 H 0.54788 0.88368 0.59039 0.0
H661 H 0.59416 0.82734 0.59312 0.0
C662 C 0.57651 0.74841 0.58784 0.0
C663 C 0.56312 0.70848 0.58364 0.0
C664 C 0.54923 0.78144 0.58676 0.0
C665 C 0.52177 0.70275 0.57868 0.0
C666 C 0.49464 0.7351 0.57826 0.0
C667 C 0.48046 0.80788 0.58134 0.0
C668 C 0.49425 0.84794 0.58405 0.0
C669 C 0.50779 0.7748 0.58224 0.0
C670 C 0.5358 0.85364 0.58821 0.0
C671 C 0.56263 0.82118 0.58981 0.0
H672 H 0.11772 0.77134 0.81707 0.0
H673 H 0.06229 0.87768 0.85188 0.0
H674 H 0.99733 0.84326 0.85285 0.0
H675 H 0.95558 0.78231 0.8441 0.0
H676 H 1.01187 0.67466 0.81255 0.0
H677 H 0.07666 0.70944 0.81059 0.0
C678 C 0.09145 0.78715 0.82483 0.0
C679 C 0.09519 0.82785 0.8337 0.0
C680 C 0.05413 0.76645 0.8263 0.0
C681 C 0.06056 0.84706 0.84416 0.0
C682 C 1.02329 0.8271 0.84496 0.0
C683 C 0.98208 0.76633 0.83693 0.0
C684 C 0.97861 0.72532 0.82886 0.0
C685 C 1.01957 0.78676 0.83608 0.0
C686 C 1.01351 0.70553 0.81963 0.0
C687 C 0.05062 0.72575 0.8182 0.0
H688 H 1.02814 0.20336 1.08265 0.0
H689 H 0.1432 0.26141 1.07953 0.0
H690 H 0.11039 0.32733 1.07927 0.0
H691 H 0.04823 0.36921 1.07987 0.0
H692 H 0.93346 0.31075 1.08703 0.0
H693 H 0.96646 0.24502 1.08571 0.0
C694 C 0.04622 0.23038 1.08191 0.0
C695 C 0.08866 0.2269 1.08097 0.0
C696 C 1.02683 0.26849 1.08244 0.0
C697 C 0.11095 0.2627 1.08036 0.0
C698 C 0.09195 0.30058 1.08013 0.0
C699 C 1.03032 0.34212 1.08108 0.0
C700 C 0.98795 0.34544 1.08323 0.0
C701 C 0.04983 0.304 1.08114 0.0
C702 C 0.96578 0.30961 1.08519 0.0
C703 C 0.9848 0.27181 1.08446 0.0
H704 H 0.61769 0.77244 1.03091 0.0
H705 H 0.56127 0.88345 1.05597 0.0
H706 H 0.49652 0.84868 1.06004 0.0
H707 H 0.45563 0.78604 1.05727 0.0
H708 H 0.51042 0.67759 1.02546 0.0
H709 H 0.57558 0.71145 1.02365 0.0
C710 C 0.5912 0.78916 1.03717 0.0
C711 C 0.59479 0.8308 1.04335 0.0
C712 C 0.55361 0.76903 1.03862 0.0
C713 C 0.55976 0.85169 1.05103 0.0
C714 C 0.52262 0.83163 1.05347 0.0
C715 C 0.48181 0.76961 1.05003 0.0
C716 C 0.47795 0.72827 1.04275 0.0
C717 C 0.51911 0.79019 1.0475 0.0
C718 C 0.51237 0.70846 1.03255 0.0
C719 C 0.54972 0.72817 1.03111 0.0
H720 H 0.5206 0.19518 0.79129 0.0
H721 H 0.63612 0.2529 0.79316 0.0
H722 H 0.60329 0.31887 0.79543 0.0
H723 H 0.54126 0.36079 0.79676 0.0
H724 H 0.42607 0.30292 0.7907 0.0
H725 H 0.45894 0.23701 0.79015 0.0
C726 C 0.53873 0.22215 0.79221 0.0
C727 C 0.58115 0.21861 0.79225 0.0
C728 C 0.51946 0.26028 0.79274 0.0
C729 C 0.6037 0.25429 0.79309 0.0
C730 C 0.58478 0.29218 0.79443 0.0
C731 C 0.52323 0.33378 0.79539 0.0
C732 C 0.48081 0.33724 0.79404 0.0
C733 C 0.54262 0.29567 0.79428 0.0
C734 C 0.45845 0.30158 0.79183 0.0
C735 C 0.47738 0.26373 0.79153 0.0
H736 H 0.11442 0.27338 0.54321 0.0
H737 H 0.0562 0.38879 0.54499 0.0
H738 H 0.99048 0.35543 0.54572 0.0
H739 H 0.94893 0.29298 0.54592 0.0
H740 H 1.00747 0.17796 0.53999 0.0
H741 H 0.07305 0.21133 0.5408 0.0
C742 C 0.08741 0.2914 0.54379 0.0
C743 C 0.09076 0.33397 0.54429 0.0
C744 C 0.04945 0.27182 0.54346 0.0
C745 C 0.055 0.3563 0.54463 0.0
C746 C 1.01725 0.33706 0.54509 0.0
C747 C 0.97601 0.2751 0.54486 0.0
C748 C 0.9728 0.23256 0.54316 0.0
C749 C 1.01397 0.29479 0.54455 0.0
C750 C 1.00858 0.21041 0.54137 0.0
C751 C 0.04626 0.22963 0.54186 0.0
H752 H 1.02054 0.69904 0.29238 0.0
H753 H 0.13605 0.75691 0.29278 0.0
H754 H 0.10321 0.82287 0.29381 0.0
H755 H 0.04138 0.86472 0.29465 0.0
H756 H 0.92597 0.80704 0.29015 0.0
H757 H 0.95875 0.741 0.29061 0.0
C758 C 0.03865 0.72606 0.29268 0.0
C759 C 0.0811 0.72257 0.29268 0.0
C760 C 1.01935 0.76421 0.29252 0.0
C761 C 0.10362 0.75827 0.29274 0.0
C762 C 0.0847 0.79615 0.29338 0.0
C763 C 1.02324 0.83775 0.29382 0.0
C764 C 0.98082 0.84132 0.29264 0.0
C765 C 0.04256 0.79962 0.29331 0.0
C766 C 0.95835 0.80564 0.29114 0.0
C767 C 0.97724 0.76772 0.29142 0.0
H768 H 0.63652 0.99092 0.29516 0.0
H769 H 0.63145 0.1185 0.28136 0.0
H770 H 0.67194 0.11142 0.23843 0.0
H771 H 0.68218 0.06703 0.19683 0.0
H772 H 0.6772 0.93888 0.20785 0.0
H773 H 0.66788 0.94755 0.25924 0.0
C774 C 0.64613 1.01731 0.28348 0.0
C775 C 0.62895 0.05469 0.29024 0.0
C776 C 0.66623 1.01249 0.25736 0.0
C777 C 0.64302 0.08904 0.276 0.0
C778 C 0.66561 0.08492 0.25101 0.0
C779 C 0.68112 0.04112 0.21077 0.0
C780 C 0.67902 1.00249 0.19879 0.0
C781 C 0.67332 0.04647 0.24001 0.0
C782 C 0.67797 0.96892 0.21681 0.0
C783 C 0.67241 0.97391 0.24613 0.0
H784 H 0.67127 0.89226 0.50283 0.0
H785 H 0.61434 0.79178 0.46098 0.0
H786 H 0.62025 0.82515 0.41527 0.0
H787 H 0.66349 0.86858 0.38724 0.0
H788 H 0.72803 0.96508 0.4282 0.0
H789 H 0.69728 0.94793 0.47391 0.0
C790 C 0.65886 0.87843 0.48379 0.0
C791 C 0.64437 0.83881 0.48504 0.0
C792 C 0.66511 0.89648 0.45719 0.0
C793 C 0.62658 0.82188 0.46061 0.0
C794 C 0.63049 0.84075 0.43426 0.0
C795 C 0.66942 0.88726 0.40578 0.0
C796 C 0.69953 0.91675 0.40467 0.0
C797 C 0.65316 0.87601 0.43212 0.0
C798 C 0.70615 0.94107 0.42884 0.0
C799 C 0.68866 0.9312 0.455 0.0
H800 H 0.94314 0.93868 0.76602 0.0
H801 H 0.92385 0.05716 0.80095 0.0
H802 H 0.88633 0.07582 0.75838 0.0
H803 H 0.88244 0.06542 0.70623 0.0
H804 H 0.90927 0.94865 0.6709 0.0
H805 H 0.91912 0.92204 0.71864 0.0
C806 C 0.9291 0.96798 0.76518 0.0
C807 C 0.93864 0.99743 0.78573 0.0
C808 C 0.90991 0.97919 0.73992 0.0
C809 C 0.91862 1.03457 0.78467 0.0
C810 C 0.89753 0.0454 0.76016 0.0
C811 C 0.88909 1.03383 0.70915 0.0
C812 C 0.89682 1.00942 0.68516 0.0
C813 C 0.89676 1.01922 0.73663 0.0
C814 C 0.90391 0.96824 0.68903 0.0
C815 C 0.9099 0.95306 0.71638 0.0
H816 H 0.79056 0.42811 0.92033 0.0
H817 H 0.89545 0.35287 0.91283 0.0
H818 H 0.88288 0.34358 0.86233 0.0
H819 H 0.83087 0.33727 0.82685 0.0
H820 H 0.72073 0.40362 0.83597 0.0
H821 H 0.74732 0.43757 0.87818 0.0
C822 C 0.81112 0.41042 0.90745 0.0
C823 C 0.84283 0.38979 0.92063 0.0
C824 C 0.80246 0.40324 0.87859 0.0
C825 C 0.87036 0.36858 0.90349 0.0
C826 C 0.86305 0.36298 0.87449 0.0
C827 C 0.81323 0.3606 0.83709 0.0
C828 C 0.77279 0.36578 0.82962 0.0
C829 C 0.82742 0.37727 0.86257 0.0
C830 C 0.75134 0.39762 0.84228 0.0
C831 C 0.7663 0.41655 0.86672 0.0
H832 H 0.3383 0.42343 0.95777 0.0
H833 H 0.21457 0.40684 0.93449 0.0
H834 H 0.19689 0.39527 0.98429 0.0
H835 H 0.22114 0.36524 1.02835 0.0
H836 H 0.34658 0.37099 1.04911 0.0
H837 H 0.35895 0.41311 1.00749 0.0
C838 C 0.30725 0.41881 0.96388 0.0
C839 C 0.27804 0.41418 0.94256 0.0
C840 C 0.29783 0.40954 0.99227 0.0
C841 C 0.23771 0.40968 0.95053 0.0
C842 C 0.22766 0.40266 0.97902 0.0
C843 C 0.25077 0.37766 1.02471 0.0
C844 C 0.28329 0.3636 1.04082 0.0
C845 C 0.25807 0.39877 0.99942 0.0
C846 C 0.32132 0.38063 1.03641 0.0
C847 C 0.32847 0.40412 1.0123 0.0
H848 H 0.35843 0.90696 0.40995 0.0
H849 H 0.24302 0.94908 0.43847 0.0
H850 H 0.21729 0.94423 0.38982 0.0
H851 H 0.22164 0.90501 0.34546 0.0
H852 H 0.33441 0.851 0.32164 0.0
H853 H 0.36758 0.88616 0.36013 0.0
C854 C 0.3281 0.91648 0.4052 0.0
C855 C 0.30207 0.92659 0.42771 0.0
C856 C 0.31285 0.91102 0.37766 0.0
C857 C 0.26331 0.9403 0.42147 0.0
C858 C 0.2485 0.93719 0.39366 0.0
C859 C 0.25375 0.90197 0.34818 0.0
C860 C 0.27468 0.87273 0.33222 0.0
C861 C 0.27195 0.91892 0.37235 0.0
C862 C 0.31676 0.87169 0.33434 0.0
C863 C 0.33588 0.89135 0.35685 0.0
H864 H 0.18755 0.48262 0.71311 0.0
H865 H 0.16486 0.60352 0.68514 0.0
H866 H 0.15161 0.62437 0.7342 0.0
H867 H 0.1221 0.60176 0.77906 0.0
H868 H 0.13525 0.47856 0.80489 0.0
H869 H 0.17836 0.46542 0.76371 0.0
C870 C 0.18136 0.51387 0.71805 0.0
C871 C 0.17544 0.54115 0.69563 0.0
C872 C 0.17133 0.525 0.74606 0.0
C873 C 0.16876 0.58181 0.70206 0.0
C874 C 0.16075 0.59365 0.73013 0.0
C875 C 0.13627 0.57263 0.7766 0.0
C876 C 0.12399 0.54059 0.79402 0.0
C877 C 0.1582 0.56463 0.75167 0.0
C878 C 0.14338 0.50334 0.79113 0.0
C879 C 0.1675 0.49569 0.7673 0.0
H880 H 0.69501 0.49428 1.1639 0.0
H881 H 0.67392 0.61364 0.19649 0.0
H882 H 0.65814 0.63698 1.14869 0.0
H883 H 0.62576 0.6166 1.10456 0.0
H884 H 0.6388 0.49527 1.07333 0.0
H885 H 0.68353 0.47993 1.11292 0.0
C886 C 0.68867 0.52577 1.1602 0.0
C887 C 0.6837 0.55181 1.18367 0.0
C888 C 0.67706 0.53834 1.13294 0.0
C889 C 0.67701 0.59281 1.17879 0.0
C890 C 0.66747 0.60608 1.15144 0.0
C891 C 0.63992 0.58734 1.10539 0.0
C892 C 0.62692 0.55631 1.08712 0.0
C893 C 0.66351 0.57814 1.12913 0.0
C894 C 0.64684 0.51913 1.08804 0.0
C895 C 0.67218 0.51025 1.11083 0.0
H896 H 0.30409 0.41234 0.31262 0.0
H897 H 0.19268 0.38956 0.35692 0.0
H898 H 0.16625 0.45339 0.34054 0.0
H899 H 0.17449 0.5158 0.31442 0.0
H900 H 0.28739 0.54343 0.27406 0.0
H901 H 0.31331 0.47723 0.28773 0.0
C902 C 0.27415 0.42143 0.3189 0.0
C903 C 0.25031 0.39559 0.33573 0.0
C904 C 0.25923 0.45886 0.30986 0.0
C905 C 0.21145 0.40805 0.34343 0.0
C906 C 0.1963 0.44476 0.33419 0.0
C907 C 0.20477 0.50742 0.30846 0.0
C908 C 0.22901 0.53455 0.29323 0.0
C909 C 0.21983 0.47026 0.31735 0.0
C910 C 0.26813 0.52306 0.28573 0.0
C911 C 0.28298 0.48533 0.29369 0.0
H912 H 0.42524 0.47649 0.5629 0.0
H913 H 0.38187 0.57898 0.61046 0.0
H914 H 0.31473 0.56847 0.59129 0.0
H915 H 0.26734 0.52788 0.56309 0.0
H916 H 0.30969 0.42272 0.51847 0.0
H917 H 0.37823 0.43663 0.53416 0.0
C918 C 0.40106 0.49638 0.56925 0.0
C919 C 0.40871 0.52843 0.58817 0.0
C920 C 0.36238 0.4899 0.55839 0.0
C921 C 0.37705 0.5543 0.59573 0.0
C922 C 0.33856 0.54826 0.58483 0.0
C923 C 0.29183 0.50874 0.55618 0.0
C924 C 0.28387 0.47486 0.53912 0.0
C925 C 0.33083 0.51608 0.56623 0.0
C926 C 0.31545 0.44937 0.53116 0.0
C927 C 0.35449 0.45711 0.54035 0.0
H928 H 0.2599 0.64841 0.8115 0.0
H929 H 0.37802 0.68058 0.84131 0.0
H930 H 0.40441 0.6171 0.82362 0.0
H931 H 0.39372 0.55107 0.80229 0.0
H932 H 0.27544 0.51564 0.7753 0.0
H933 H 0.24942 0.58189 0.78889 0.0
C934 C 0.29136 0.64144 0.81428 0.0
C935 C 0.31689 0.66948 0.8277 0.0
C936 C 0.30635 0.60433 0.80447 0.0
C937 C 0.35773 0.66004 0.83069 0.0
C938 C 0.37287 0.62357 0.82072 0.0
C939 C 0.36227 0.55789 0.79921 0.0
C940 C 0.33648 0.5284 0.7881 0.0
C941 C 0.34744 0.59539 0.80786 0.0
C942 C 0.29591 0.53784 0.78389 0.0
C943 C 0.28099 0.57561 0.79185 0.0
H944 H 0.16761 0.50429 1.06545 0.0
H945 H 0.14234 0.61762 1.10687 0.0
H946 H 0.20583 0.64455 1.08978 0.0
H947 H 0.26834 0.6363 1.06349 0.0
H948 H 0.29666 0.52267 1.02377 0.0
H949 H 0.23136 0.49598 1.03875 0.0
C950 C 0.17585 0.53499 1.07052 0.0
C951 C 0.15011 0.55881 1.08754 0.0
C952 C 0.21261 0.55044 1.06054 0.0
C953 C 0.16165 0.59836 1.09422 0.0
C954 C 0.19783 0.61397 1.08421 0.0
C955 C 0.26022 0.60576 1.05785 0.0
C956 C 0.28736 0.58152 1.04248 0.0
C957 C 0.22347 0.59033 1.06738 0.0
C958 C 0.27626 0.54199 1.03549 0.0
C959 C 0.23904 0.52668 1.04422 0.0
H960 H 0.89115 0.55407 1.07507 0.0
H961 H 0.77276 0.51072 1.09538 0.0
H962 H 0.74396 0.57496 1.0804 0.0
H963 H 0.75234 0.64122 1.0572 0.0
H964 H 0.87117 0.68208 1.03516 0.0
H965 H 0.8998 0.6207 1.0545 0.0
C966 C 0.85904 0.55874 1.0764 0.0
C967 C 0.83409 0.52751 1.08592 0.0
C968 C 0.84274 0.59506 1.06688 0.0
C969 C 0.79262 0.53424 1.08798 0.0
C970 C 0.77614 0.57086 1.07921 0.0
C971 C 0.78451 0.63679 1.05688 0.0
C972 C 0.80953 0.66606 1.04441 0.0
C973 C 0.80086 0.60111 1.0679 0.0
C974 C 0.85116 0.65978 1.04408 0.0
C975 C 0.86761 0.6248 1.05535 0.0
H976 H 0.64676 0.58289 0.80824 0.0
H977 H 0.68252 0.46146 0.78828 0.0
H978 H 0.74933 0.47482 0.80722 0.0
H979 H 0.79924 0.52247 0.82666 0.0
H980 H 0.76383 0.64464 0.84398 0.0
H981 H 0.69545 0.62948 0.82908 0.0
C982 C 0.66918 0.55936 0.80782 0.0
C983 C 0.65946 0.52131 0.79658 0.0
C984 C 0.70771 0.56733 0.8185 0.0
C985 C 0.68885 0.49098 0.79693 0.0
C986 C 0.72721 0.49861 0.80771 0.0
C987 C 0.7763 0.54547 0.82777 0.0
C988 C 0.78648 0.5846 0.83661 0.0
C989 C 0.73714 0.5368 0.81833 0.0
C990 C 0.75661 0.61426 0.83745 0.0
C991 C 0.71757 0.60568 0.82873 0.0
H992 H 0.81405 0.4263 0.55382 0.0
H993 H 0.69389 0.37938 0.54697 0.0
H994 H 0.6668 0.44242 0.56518 0.0
H995 H 0.67664 0.51132 0.5814 0.0
H996 H 0.79577 0.56071 0.58687 0.0
H997 H 0.82399 0.49601 0.57151 0.0
C998 C 0.78196 0.42998 0.55628 0.0
C999 C 0.75606 0.39801 0.54911 0.0
C1000 C 0.76644 0.46657 0.56677 0.0
C1001 C 0.71455 0.40317 0.55267 0.0
C1002 C 0.69899 0.43928 0.56301 0.0
C1003 C 0.70885 0.50792 0.57947 0.0
C1004 C 0.73407 0.54084 0.58513 0.0
C1005 C 0.7246 0.47116 0.57002 0.0
C1006 C 0.77572 0.5358 0.58272 0.0
C1007 C 0.79179 0.49891 0.57372 0.0
H1008 H 0.76924 0.5329 0.32438 0.0
H1009 H 0.80822 0.41626 0.35236 0.0
H1010 H 0.87662 0.43112 0.33661 0.0
H1011 H 0.92416 0.47559 0.31205 0.0
H1012 H 0.88354 0.59013 0.28059 0.0
H1013 H 0.81713 0.5779 0.30061 0.0
C1014 C 0.79298 0.51122 0.32771 0.0
C1015 C 0.78404 0.47383 0.33999 0.0
C1016 C 0.8318 0.51936 0.31754 0.0
C1017 C 0.81472 0.44547 0.34337 0.0
C1018 C 0.85367 0.45382 0.33411 0.0
C1019 C 0.90073 0.49778 0.30937 0.0
C1020 C 0.90898 0.53371 0.29474 0.0
C1021 C 0.86234 0.49031 0.32057 0.0
C1022 C 0.87831 0.5624 0.29199 0.0
C1023 C 0.84021 0.55538 0.30336 0.0
H1024 H 0.73153 0.88822 0.80965 0.0
H1025 H 0.85028 0.9268 0.83319 0.0
H1026 H 0.83585 0.99443 0.81573 0.0
H1027 H 0.78737 0.044 0.79703 0.0
H1028 H 0.66797 1.00507 0.77557 0.0
H1029 H 0.68495 0.93621 0.78831 0.0
C1030 C 0.75446 0.91126 0.81062 0.0
C1031 C 0.79183 0.90244 0.8229 0.0
C1032 C 0.74579 0.95014 0.80084 0.0
C1033 C 0.82103 0.93289 0.82426 0.0
C1034 C 0.81285 0.97155 0.81415 0.0
C1035 C 0.76542 1.02024 0.79456 0.0
C1036 C 0.72645 1.02957 0.78524 0.0
C1037 C 0.77507 0.98074 0.80281 0.0
C1038 C 0.69815 0.99859 0.78258 0.0
C1039 C 0.70777 0.95924 0.79004 0.0
H1040 H 0.80508 0.92304 1.06011 0.0
H1041 H 0.77611 1.03255 1.01596 0.0
H1042 H 0.84052 0.06157 1.03045 0.0
H1043 H 0.90314 0.05704 1.05827 0.0
H1044 H 0.92945 0.94807 1.10412 0.0
H1045 H 0.8672 0.91817 1.08718 0.0
C1046 C 0.81292 0.95315 1.05338 0.0
C1047 C 0.78582 0.97564 1.03696 0.0
C1048 C 0.84917 0.97001 1.06262 0.0
C1049 C 0.79651 1.01461 1.02853 0.0
C1050 C 0.8332 1.03126 1.03697 0.0
C1051 C 0.89548 1.02658 1.06428 0.0
C1052 C 0.92104 1.00493 1.08254 0.0
C1053 C 0.85949 1.00946 1.05443 0.0
C1054 C 0.91022 0.9657 1.09046 0.0
C1055 C 0.87476 0.9484 1.08057 0.0
H1056 H 0.78079 1.02328 0.28789 0.0
H1057 H 0.90318 0.06198 0.27714 0.0
H1058 H 0.8849 0.12998 0.29192 0.0
H1059 H 0.83574 0.17664 0.31229 0.0
H1060 H 0.71394 0.13767 0.32565 0.0
H1061 H 0.73031 0.07157 0.30574 0.0
C1062 C 0.8032 0.04687 0.28816 0.0
C1063 C 0.84327 1.03779 0.28127 0.0
C1064 C 0.79271 0.08563 0.2977 0.0
C1065 C 0.87214 0.06841 0.28219 0.0
C1066 C 0.86176 0.10719 0.29084 0.0
C1067 C 0.81264 0.15387 0.31048 0.0
C1068 C 0.77376 0.16201 0.3206 0.0
C1069 C 0.82239 0.11588 0.29935 0.0
C1070 C 0.74427 0.13198 0.31841 0.0
C1071 C 0.75356 0.09425 0.30689 0.0
H1072 H 0.7601 0.14382 0.54874 0.0
H1073 H 0.79814 1.02399 0.52651 0.0
H1074 H 0.73278 0.99754 0.54124 0.0
H1075 H 0.66673 1.00813 0.56399 0.0
H1076 H 0.63101 0.12807 0.58834 0.0
H1077 H 0.69355 0.15478 0.56929 0.0
C1078 C 0.75397 0.11193 0.54689 0.0
C1079 C 0.78402 0.08583 0.53688 0.0
C1080 C 0.71688 0.09693 0.5561 0.0
C1081 C 0.77551 0.04468 0.53423 0.0
C1082 C 0.73826 1.02954 0.54285 0.0
C1083 C 0.67272 0.04009 0.56523 0.0
C1084 C 0.64418 0.06601 0.5777 0.0
C1085 C 0.70909 0.05528 0.55451 0.0
C1086 C 0.65215 0.10745 0.57862 0.0
C1087 C 0.68802 0.12276 0.56783 0.0
H1088 H 0.25912 0.15071 0.56356 0.0
H1089 H 0.36567 0.1719 0.51317 0.0
H1090 H 0.39473 0.10969 0.5304 0.0
H1091 H 0.39017 0.04948 0.55914 0.0
H1092 H 0.28193 1.02289 0.60588 0.0
H1093 H 0.25341 0.08754 0.59109 0.0
C1094 C 0.28855 0.14158 0.55615 0.0
C1095 C 0.31033 0.16648 0.53735 0.0
C1096 C 0.30495 0.10511 0.56575 0.0
C1097 C 0.34855 0.15408 0.52816 0.0
C1098 C 0.36518 0.11833 0.53789 0.0
C1099 C 0.36035 0.0577 0.56625 0.0
C1100 C 0.33819 1.03142 0.58366 0.0
C1101 C 0.34376 0.0938 0.55676 0.0
C1102 C 0.29961 0.0427 0.59258 0.0
C1103 C 0.28328 0.07951 0.58397 0.0
H1104 H 0.17678 0.99717 0.30815 0.0
H1105 H 0.13628 0.11591 0.28565 0.0
H1106 H 0.19799 0.1448 0.30432 0.0
H1107 H 0.26477 0.13633 0.3244 0.0
H1108 H 0.30778 1.01802 0.3452 0.0
H1109 H 0.24328 0.9891 0.33081 0.0
C1110 C 0.18135 1.02939 0.30761 0.0
C1111 C 0.1521 0.05428 0.29518 0.0
C1112 C 0.21724 0.04589 0.31823 0.0
C1113 C 0.15857 0.09597 0.29456 0.0
C1114 C 0.19374 0.11258 0.30543 0.0
C1115 C 0.25997 0.10422 0.326 0.0
C1116 C 0.29115 0.07932 0.33546 0.0
C1117 C 0.22348 0.0878 0.31688 0.0
C1118 C 0.28429 1.03783 0.33783 0.0
C1119 C 0.24752 1.02127 0.32943 0.0
H1120 H 0.28767 0.04405 1.0763 0.0
H1121 H 0.16629 1.00797 1.09451 0.0
H1122 H 0.18166 0.93924 1.07977 0.0
H1123 H 0.22842 0.89034 1.05895 0.0
H1124 H 0.34878 0.92729 1.03775 0.0
H1125 H 0.33513 0.99441 1.0565 0.0
C1126 C 0.2649 1.0209 1.07764 0.0
C1127 C 0.22598 1.03091 1.0868 0.0
C1128 C 0.27363 0.98166 1.06819 0.0
C1129 C 0.19653 1.00084 1.08781 0.0
C1130 C 0.20523 0.96162 1.07916 0.0
C1131 C 0.25162 0.91312 1.05822 0.0
C1132 C 0.28954 0.90363 1.04683 0.0
C1133 C 0.24343 0.95187 1.06873 0.0
C1134 C 0.31942 0.93348 1.04663 0.0
C1135 C 0.31161 0.972 1.05727 0.0
H1136 H 0.42245 0.98579 0.81845 0.0
H1137 H 0.37955 0.06892 0.75518 0.0
H1138 H 0.31063 0.05769 0.77106 0.0
H1139 H 0.26217 1.02225 0.80186 0.0
H1140 H 0.3048 0.93598 0.86281 0.0
H1141 H 0.37425 0.95115 0.84959 0.0
C1142 C 0.39805 1.00177 0.80835 0.0
C1143 C 0.40619 1.02819 0.78567 0.0
C1144 C 0.35847 0.99496 0.81747 0.0
C1145 C 0.37412 0.04811 0.77247 0.0
C1146 C 0.33471 0.04194 0.78169 0.0
C1147 C 0.28682 1.0077 0.81273 0.0
C1148 C 0.27876 0.97892 0.83381 0.0
C1149 C 0.3265 1.01535 0.80411 0.0
C1150 C 0.31062 0.95889 0.84698 0.0
C1151 C 0.3502 0.96728 0.83922 0.0
H1152 H 0.26491 0.14978 0.2713 0.0
H1153 H 0.37337 0.18341 0.22755 0.0
H1154 H 0.33781 0.18157 1.18173 0.0
H1155 H 0.27583 0.16928 1.15348 0.0
H1156 H 0.16932 0.12814 0.19663 0.0
H1157 H 0.20381 0.13355 0.24266 0.0
C1158 C 0.28076 0.15691 0.25177 0.0
C1159 C 0.32199 0.1674 0.25323 0.0
C1160 C 0.26027 0.15416 0.22512 0.0
C1161 C 0.34187 0.17558 0.22738 0.0
C1162 C 0.3214 0.17445 0.20105 0.0
C1163 C 0.25994 0.16168 1.17294 0.0
C1164 C 0.21938 0.14881 1.17118 0.0
C1165 C 0.28058 0.16368 0.19954 0.0
C1166 C 0.20012 0.13836 0.19692 0.0
C1167 C 0.21999 0.1415 0.22342 0.0
H1168 H 0.64502 0.5261 0.40529 0.0
H1169 H 0.67756 0.41615 0.44742 0.0
H1170 H 0.67048 0.44948 0.49403 0.0
H1171 H 0.65547 0.51056 0.52346 0.0
H1172 H 0.62967 0.62195 0.48089 0.0
H1173 H 0.6334 0.58771 0.43447 0.0
C1174 C 0.65036 0.50919 0.42463 0.0
C1175 C 0.66139 0.46805 0.42238 0.0
C1176 C 0.6473 0.52908 0.45161 0.0
C1177 C 0.6689 0.44747 0.44804 0.0
C1178 C 0.66478 0.46667 0.47488 0.0
C1179 C 0.6503 0.52737 0.50405 0.0
C1180 C 0.64152 0.56909 0.50608 0.0
C1181 C 0.65396 0.50753 0.47705 0.0
C1182 C 0.63606 0.59008 0.48036 0.0
C1183 C 0.63828 0.57036 0.45366 0.0
H1184 H 0.2805 0.94748 0.76219 0.0
H1185 H 0.22371 0.83673 0.7374 0.0
H1186 H 0.26404 0.83491 0.69339 0.0
H1187 H 0.31557 0.86526 0.66115 0.0
H1188 H 0.37472 0.97435 0.68763 0.0
H1189 H 0.33424 0.97603 0.73118 0.0
C1190 C 0.27679 0.92302 0.74707 0.0
C1191 C 0.24833 0.89254 0.75311 0.0
C1192 C 0.30098 0.92174 0.7219 0.0
C1193 C 0.2448 0.86078 0.73337 0.0
C1194 C 0.26808 0.85973 0.70813 0.0
C1195 C 0.31992 0.88934 0.67647 0.0
C1196 C 0.34875 0.91969 0.67054 0.0
C1197 C 0.29635 0.89005 0.70201 0.0
C1198 C 0.35333 0.95041 0.69113 0.0
C1199 C 0.32986 0.95153 0.71622 0.0
H1200 H 0.92458 0.54024 0.90469 0.0
H1201 H 0.88186 0.64724 0.94692 0.0
H1202 H 0.8893 0.61436 0.99339 0.0
H1203 H 0.90729 0.55428 1.02268 0.0
H1204 H 0.94303 0.4454 0.97989 0.0
H1205 H 0.93913 0.47943 0.93362 0.0
C1206 C 0.91703 0.55658 0.92404 0.0
C1207 C 0.90307 0.59678 0.92189 0.0
C1208 C 0.92026 0.53685 0.95091 0.0
C1209 C 0.89278 0.61664 0.9475 0.0
C1210 C 0.89712 0.5977 0.97426 0.0
C1211 C 0.91467 0.5381 1.00328 0.0
C1212 C 0.92619 0.49712 1.00513 0.0
C1213 C 0.91088 0.55776 0.97636 0.0
C1214 C 0.93445 0.47673 0.97941 0.0
C1215 C 0.93215 0.49633 0.95282 0.0
H1216 H 0.83459 0.85938 0.20309 0.0
H1217 H 0.86586 0.98334 0.18899 0.0
H1218 H 0.82258 0.98484 1.14693 0.0
H1219 H 0.77342 0.95182 1.1145 0.0
H1220 H 0.74768 0.8261 1.12515 0.0
H1221 H 0.79033 0.82454 1.16783 0.0
C1222 C 0.83232 0.88668 0.1907 0.0
C1223 C 0.85389 0.9213 0.19968 0.0
C1224 C 0.80763 0.88717 1.16588 0.0
C1225 C 0.85025 0.95613 1.1829 0.0
C1226 C 0.82508 0.95711 1.15879 0.0
C1227 C 0.77703 0.92406 1.12622 0.0
C1228 C 0.75644 0.88921 1.11673 0.0
C1229 C 0.80316 0.92301 1.1502 0.0
C1230 C 0.76255 0.85342 1.13193 0.0
C1231 C 0.78713 0.85256 1.1564 0.0
H1232 H 0.40918 0.53523 0.9729 0.0
H1233 H 0.39047 0.64735 0.9295 0.0
H1234 H 0.39899 0.61331 0.88323 0.0
H1235 H 0.41176 0.55094 0.85448 0.0
H1236 H 0.42136 0.43781 0.89806 0.0
H1237 H 0.41662 0.47246 0.94425 0.0
C1238 C 0.40699 0.55233 0.95333 0.0
C1239 C 0.39962 0.59427 0.95504 0.0
C1240 C 0.41058 0.5321 0.92654 0.0
C1241 C 0.39615 0.61534 0.92917 0.0
C1242 C 0.40117 0.59574 0.90256 0.0
C1243 C 0.41327 0.53388 0.87407 0.0
C1244 C 0.4181 0.49153 0.87246 0.0
C1245 C 0.40857 0.55408 0.90086 0.0
C1246 C 0.41852 0.4702 0.89834 0.0
C1247 C 0.41561 0.49013 0.9249 0.0
H1248 H 0.77382 0.15714 0.72045 0.0
H1249 H 0.66363 0.13381 0.67572 0.0
H1250 H 0.69803 0.1441 0.62991 0.0
H1251 H 0.76027 0.15934 0.60189 0.0
H1252 H 0.8718 0.17376 0.64671 0.0
H1253 H 0.83654 0.16766 0.69251 0.0
C1254 C 0.7572 0.15434 0.70069 0.0
C1255 C 0.71567 0.14508 0.70192 0.0
C1256 C 0.7777 0.15897 0.67413 0.0
C1257 C 0.69529 0.14091 0.67579 0.0
C1258 C 0.7151 0.14693 0.64943 0.0
C1259 C 0.77683 0.16161 0.62166 0.0
C1260 C 0.81889 0.16815 0.62053 0.0
C1261 C 0.75636 0.15608 0.64821 0.0
C1262 C 0.83962 0.16957 0.64664 0.0
C1263 C 0.81934 0.16586 0.67297 0.0
H1264 H 0.11187 0.49778 0.46233 0.0
H1265 H 0.22767 0.44854 0.44097 0.0
H1266 H 0.23011 0.48968 0.39794 0.0
H1267 H 0.20065 0.5418 0.36638 0.0
H1268 H 0.08223 0.58627 0.38454 0.0
H1269 H 0.07984 0.54595 0.42838 0.0
C1270 C 0.1376 0.49578 0.44823 0.0
C1271 C 0.16967 0.46965 0.45548 0.0
C1272 C 0.13861 0.51942 0.42282 0.0
C1273 C 0.20241 0.46783 0.4364 0.0
C1274 C 0.20398 0.49173 0.41166 0.0
C1275 C 0.17429 0.54273 0.37994 0.0
C1276 C 0.14186 0.56788 0.37217 0.0
C1277 C 0.17251 0.51802 0.4047 0.0
C1278 C 0.10779 0.56781 0.38993 0.0
C1279 C 0.10641 0.54453 0.41507 0.0
H1280 H 0.77177 0.66464 0.65496 0.0
H1281 H 0.67074 0.61347 0.69931 0.0
H1282 H 0.70696 0.61901 0.74468 0.0
H1283 H 0.76818 0.63826 0.77241 0.0
H1284 H 0.87118 0.68326 0.72716 0.0
H1285 H 0.83379 0.68055 0.68213 0.0
C1286 C 0.75747 0.65477 0.67452 0.0
C1287 C 0.71795 0.63893 0.67331 0.0
C1288 C 0.77909 0.65717 0.70071 0.0
C1289 C 0.70076 0.6258 0.69917 0.0
C1290 C 0.72159 0.62909 0.7253 0.0
C1291 C 0.78231 0.64786 0.75271 0.0
C1292 C 0.82251 0.66186 0.7535 0.0
C1293 C 0.76082 0.64481 0.72646 0.0
C1294 C 0.8404 0.67295 0.72748 0.0
C1295 C 0.81892 0.67126 0.70161 0.0
H1296 H 0.1122 0.98705 0.91805 0.0
H1297 H 0.23663 0.95651 0.9294 0.0
H1298 H 0.23976 0.99984 0.97159 0.0
H1299 H 0.20792 0.04818 1.00545 0.0
H1300 H 0.08212 0.07391 0.99741 0.0
H1301 H 0.07889 1.03153 0.95435 0.0
C1302 C 0.13999 0.98957 0.92982 0.0
C1303 C 0.17421 0.96802 0.92001 0.0
C1304 C 0.14147 1.01436 0.95482 0.0
C1305 C 0.20967 0.97205 0.93607 0.0
C1306 C 0.21158 0.99723 0.96031 0.0
C1307 C 0.1798 0.04478 0.99416 0.0
C1308 C 0.14544 0.06531 1.00456 0.0
C1309 C 0.17784 1.0189 0.96984 0.0
C1310 C 0.10915 0.0592 0.98994 0.0
C1311 C 0.10731 1.03475 0.96522 0.0
H1312 H 0.8342 0.35915 1.17222 0.0
H1313 H 0.84771 0.4878 1.1755 0.0
H1314 H 0.80325 0.49103 0.217 0.0
H1315 H 0.75942 0.45788 0.25279 0.0
H1316 H 0.7513 0.32886 0.25352 0.0
H1317 H 0.79406 0.32528 0.21074 0.0
C1318 C 0.82769 0.38789 1.18211 0.0
C1319 C 0.84482 0.42326 1.17028 0.0
C1320 C 0.80254 0.38953 0.20691 0.0
C1321 C 0.83572 0.46001 1.18387 0.0
C1322 C 0.8099 0.46193 0.2077 0.0
C1323 C 0.76676 0.42889 0.24354 0.0
C1324 C 0.75114 0.39364 0.25639 0.0
C1325 C 0.7929 0.42699 0.21942 0.0
C1326 C 0.76224 0.35651 0.24423 0.0
C1327 C 0.78689 0.35449 0.21964 0.0
H1328 H 0.36335 1.01187 0.5039 0.0
H1329 H 0.49194 1.00263 0.50139 0.0
H1330 H 0.49382 0.04531 0.45873 0.0
H1331 H 0.45863 0.08558 0.4213 0.0
H1332 H 0.33056 0.10021 0.4275 0.0
H1333 H 0.32893 0.05613 0.46907 0.0
C1334 C 0.39183 1.0189 0.4939 0.0
C1335 C 0.42749 1.00296 0.50575 0.0
C1336 C 0.39279 0.04507 0.46989 0.0
C1337 C 0.46402 1.01375 0.49278 0.0
C1338 C 0.46506 1.03839 0.4683 0.0
C1339 C 0.43035 0.07943 0.43183 0.0
C1340 C 0.39469 0.09671 0.42077 0.0
C1341 C 0.42964 0.05436 0.45654 0.0
C1342 C 0.35858 0.08806 0.43521 0.0
C1343 C 0.35756 0.06243 0.45907 0.0
H1344 H 0.33258 0.35635 0.70438 0.0
H1345 H 0.3564 0.48306 0.69667 0.0
H1346 H 0.31311 0.48623 0.65469 0.0
H1347 H 0.26664 0.45361 0.62012 0.0
H1348 H 0.24807 0.32585 0.62441 0.0
H1349 H 0.29036 0.32258 0.66721 0.0
C1350 C 0.32864 0.38465 0.69342 0.0
C1351 C 0.34824 0.41948 0.70416 0.0
C1352 C 0.30399 0.38616 0.66854 0.0
C1353 C 0.34242 0.45564 0.68919 0.0
C1354 C 0.31724 0.45755 0.66511 0.0
C1355 C 0.27164 0.42502 0.6305 0.0
C1356 C 0.25318 0.39005 0.61911 0.0
C1357 C 0.2975 0.42314 0.65465 0.0
C1358 C 0.26124 0.35328 0.63262 0.0
C1359 C 0.28562 0.35144 0.65719 0.0
H1360 H 0.95576 0.08019 0.45358 0.0
H1361 H 0.83066 0.10877 0.44353 0.0
H1362 H 0.82738 0.06557 0.40126 0.0
H1363 H 0.85944 1.01812 0.36678 0.0
H1364 H 0.98589 0.99484 0.3735 0.0
H1365 H 0.9891 1.03663 0.4168 0.0
C1366 C 0.9278 0.07731 0.44205 0.0
C1367 C 0.89346 0.09828 0.45223 0.0
C1368 C 0.92622 0.05266 0.41699 0.0
C1369 C 0.85774 0.09374 0.43652 0.0
C1370 C 0.85574 0.06861 0.41225 0.0
C1371 C 0.88769 1.02189 0.37785 0.0
C1372 C 0.92228 1.00225 0.36696 0.0
C1373 C 0.88964 0.04758 0.4023 0.0
C1374 C 0.9587 1.00885 0.38134 0.0
C1375 C 0.96053 1.03299 0.40618 0.0
H1376 H 0.2417 0.6998 0.20941 0.0
H1377 H 0.20394 0.57784 0.19392 0.0
H1378 H 0.247 0.57462 1.15159 0.0
H1379 H 0.2976 0.60554 1.11903 0.0
H1380 H 0.33059 0.72929 1.13166 0.0
H1381 H 0.28817 0.73247 1.17459 0.0
C1382 C 0.24261 0.6725 0.19675 0.0
C1383 C 0.21918 0.63899 0.20545 0.0
C1384 C 0.26736 0.67097 1.17181 0.0
C1385 C 0.2211 0.60422 1.1882 0.0
C1386 C 0.24611 0.60225 1.16387 0.0
C1387 C 0.29575 0.63317 1.13128 0.0
C1388 C 0.31835 0.66695 1.12223 0.0
C1389 C 0.26982 0.63522 1.15556 0.0
C1390 C 0.31428 0.70269 1.1381 0.0
C1391 C 0.28979 0.70451 1.16273 0.0
H1392 H 0.61109 0.98635 0.95643 0.0
H1393 H 0.73368 0.95127 0.94126 0.0
H1394 H 0.73554 0.99241 0.89821 0.0
H1395 H 0.70324 0.0403 0.86472 0.0
H1396 H 0.57892 0.07041 0.87659 0.0
H1397 H 0.57689 1.02998 0.92039 0.0
C1398 C 0.63818 0.98741 0.94363 0.0
C1399 C 0.67231 0.96529 0.95262 0.0
C1400 C 0.63885 1.01084 0.9181 0.0
C1401 C 0.70682 0.96734 0.93525 0.0
C1402 C 0.70801 0.99125 0.9105 0.0
C1403 C 0.67569 1.03816 0.87695 0.0
C1404 C 0.6414 0.05932 0.86741 0.0
C1405 C 0.67439 1.01348 0.90175 0.0
C1406 C 0.60583 0.05504 0.88333 0.0
C1407 C 0.60471 1.03176 0.90849 0.0
loop_
_geom_bond_atom_site_label_1
_geom_bond_atom_site_label_2
_geom_bond_distance
_geom_bond_site_symmetry_2
_ccdc_geom_bond_type
Gd0 C3 2.818 . S
Gd0 O20 2.377 . S
Gd0 O22 2.448 . S
Gd0 O23 2.506 . S
Gd0 O24 2.435 . S
Gd0 O25 2.717 . S
Gd0 O27 2.395 . S
Gd0 O31 2.327 . S
Gd1 C12 2.818 . S
Gd1 O21 2.395 . S
Gd1 O25 2.327 . S
Gd1 O26 2.377 . S
Gd1 O28 2.448 . S
Gd1 O29 2.506 . S
Gd1 O30 2.435 . S
Gd1 O31 2.717 . S
C2 O20 1.240 . S
C2 O21 1.240 . S
C3 Gd0 2.818 . S
C3 C4 1.510 . S
C3 O22 1.249 . S
C3 O23 1.252 . S
C4 C3 1.510 . S
C4 C5 1.404 . S
C4 C6 1.352 . S
C5 C4 1.404 . S
C5 C9 1.389 . S
C5 H32 0.930 . S
C6 C4 1.352 . S
C6 C8 1.374 . S
C6 H33 0.931 . S
C7 C8 1.359 . S
C7 C9 1.364 . S
C8 C6 1.374 . S
C8 C7 1.359 . S
C8 H34 0.931 . S
C9 C5 1.389 . S
C9 C7 1.364 . S
C9 H35 0.931 . S
C10 O24 1.256 . S
C10 O25 1.257 . S
C11 O26 1.240 . S
C11 O27 1.240 . S
C12 Gd1 2.818 . S
C12 C13 1.510 . S
C12 O28 1.249 . S
C12 O29 1.252 . S
C13 C12 1.510 . S
C13 C14 1.404 1_545 S
C13 C15 1.352 . S
C14 C13 1.404 1_565 S
C14 C18 1.389 . S
C14 H36 0.930 . S
C15 C13 1.352 . S
C15 C17 1.374 . S
C15 H37 0.931 . S
C16 C17 1.359 1_565 S
C16 C18 1.364 . S
C17 C15 1.374 . S
C17 C16 1.359 1_545 S
C17 H38 0.931 . S
C18 C14 1.389 . S
C18 C16 1.364 . S
C18 H39 0.931 . S
C19 O30 1.256 . S
C19 O31 1.257 . S
O20 Gd0 2.377 . S
O20 C2 1.240 . S
O21 Gd1 2.395 . S
O21 C2 1.240 . S
O22 Gd0 2.448 . S
O22 C3 1.249 . S
O23 Gd0 2.506 . S
O23 C3 1.252 . S
O24 Gd0 2.435 . S
O24 C10 1.256 . S
O25 Gd0 2.717 . S
O25 Gd1 2.327 . S
O25 C10 1.257 . S
O26 Gd1 2.377 . S
O26 C11 1.240 . S
O27 Gd0 2.395 . S
O27 C11 1.240 . S
O28 Gd1 2.448 . S
O28 C12 1.249 . S
O29 Gd1 2.506 . S
O29 C12 1.252 . S
O30 Gd1 2.435 . S
O30 C19 1.256 . S
O31 Gd0 2.327 . S
O31 Gd1 2.717 . S
O31 C19 1.257 . S
H32 C5 0.930 . S
H33 C6 0.931 . S
H34 C8 0.931 . S
H35 C9 0.931 . S
H36 C14 0.930 . S
H37 C15 0.931 . S
H38 C17 0.931 . S
H39 C18 0.931 . S
Gd40 C43 2.818 . S
Gd40 O60 2.377 . S
Gd40 O62 2.448 . S
Gd40 O63 2.506 . S
Gd40 O64 2.435 . S
Gd40 O65 2.717 . S
Gd40 O67 2.395 . S
Gd40 O71 2.327 . S
Gd41 C52 2.818 . S
Gd41 O61 2.395 . S
Gd41 O65 2.327 . S
Gd41 O66 2.377 . S
Gd41 O68 2.448 . S
Gd41 O69 2.506 . S
Gd41 O70 2.435 . S
Gd41 O71 2.717 . S
C42 O60 1.240 . S
C42 O61 1.240 . S
C43 Gd40 2.818 . S
C43 C44 1.510 . S
C43 O62 1.249 . S
C43 O63 1.252 . S
C44 C43 1.510 . S
C44 C45 1.404 . S
C44 C46 1.352 . S
C45 C44 1.404 . S
C45 C49 1.389 . S
C45 H72 0.930 . S
C46 C44 1.352 . S
C46 C48 1.374 . S
C46 H73 0.931 . S
C47 C48 1.359 . S
C47 C49 1.364 . S
C48 C46 1.374 . S
C48 C47 1.359 . S
C48 H74 0.931 . S
C49 C45 1.389 . S
C49 C47 1.364 . S
C49 H75 0.931 . S
C50 O64 1.256 . S
C50 O65 1.257 . S
C51 O66 1.240 . S
C51 O67 1.240 . S
C52 Gd41 2.818 . S
C52 C53 1.510 . S
C52 O68 1.249 . S
C52 O69 1.252 . S
C53 C52 1.510 . S
C53 C54 1.404 . S
C53 C55 1.352 . S
C54 C53 1.404 . S
C54 C58 1.389 . S
C54 H76 0.930 . S
C55 C53 1.352 . S
C55 C57 1.374 . S
C55 H77 0.931 . S
C56 C57 1.359 . S
C56 C58 1.364 . S
C57 C55 1.374 . S
C57 C56 1.359 . S
C57 H78 0.931 . S
C58 C54 1.389 . S
C58 C56 1.364 . S
C58 H79 0.931 . S
C59 O70 1.256 . S
C59 O71 1.257 . S
O60 Gd40 2.377 . S
O60 C42 1.240 . S
O61 Gd41 2.395 . S
O61 C42 1.240 . S
O62 Gd40 2.448 . S
O62 C43 1.249 . S
O63 Gd40 2.506 . S
O63 C43 1.252 . S
O64 Gd40 2.435 . S
O64 C50 1.256 . S
O65 Gd40 2.717 . S
O65 Gd41 2.327 . S
O65 C50 1.257 . S
O66 Gd41 2.377 . S
O66 C51 1.240 . S
O67 Gd40 2.395 . S
O67 C51 1.240 . S
O68 Gd41 2.448 . S
O68 C52 1.249 . S
O69 Gd41 2.506 . S
O69 C52 1.252 . S
O70 Gd41 2.435 . S
O70 C59 1.256 . S
O71 Gd40 2.327 . S
O71 Gd41 2.717 . S
O71 C59 1.257 . S
H72 C45 0.930 . S
H73 C46 0.931 . S
H74 C48 0.931 . S
H75 C49 0.931 . S
H76 C54 0.930 . S
H77 C55 0.931 . S
H78 C57 0.931 . S
H79 C58 0.931 . S
Gd80 C83 2.818 . S
Gd80 O100 2.377 . S
Gd80 O102 2.448 . S
Gd80 O103 2.506 . S
Gd80 O104 2.435 . S
Gd80 O105 2.717 . S
Gd80 O107 2.395 . S
Gd80 O111 2.327 . S
Gd81 C92 2.818 . S
Gd81 O101 2.395 . S
Gd81 O105 2.327 . S
Gd81 O106 2.377 . S
Gd81 O108 2.448 . S
Gd81 O109 2.506 . S
Gd81 O110 2.435 . S
Gd81 O111 2.717 . S
C82 O100 1.240 . S
C82 O101 1.240 . S
C83 Gd80 2.818 . S
C83 C84 1.510 . S
C83 O102 1.249 . S
C83 O103 1.252 . S
C84 C83 1.510 . S
C84 C85 1.404 . S
C84 C86 1.352 . S
C85 C84 1.404 . S
C85 C89 1.389 . S
C85 H112 0.930 . S
C86 C84 1.352 . S
C86 C88 1.374 . S
C86 H113 0.931 . S
C87 C88 1.359 . S
C87 C89 1.364 . S
C88 C86 1.374 . S
C88 C87 1.359 . S
C88 H114 0.931 . S
C89 C85 1.389 . S
C89 C87 1.364 . S
C89 H115 0.931 . S
C90 O104 1.256 . S
C90 O105 1.257 . S
C91 O106 1.240 . S
C91 O107 1.240 . S
C92 Gd81 2.818 . S
C92 C93 1.510 . S
C92 O108 1.249 . S
C92 O109 1.252 . S
C93 C92 1.510 . S
C93 C94 1.404 1_565 S
C93 C95 1.352 . S
C94 C93 1.404 1_545 S
C94 C98 1.389 . S
C94 H116 0.930 . S
C95 C93 1.352 . S
C95 C97 1.374 . S
C95 H117 0.931 . S
C96 C97 1.359 1_545 S
C96 C98 1.364 . S
C97 C95 1.374 . S
C97 C96 1.359 1_565 S
C97 H118 0.931 . S
C98 C94 1.389 . S
C98 C96 1.364 . S
C98 H119 0.931 . S
C99 O110 1.256 . S
C99 O111 1.257 . S
O100 Gd80 2.377 . S
O100 C82 1.240 . S
O101 Gd81 2.395 . S
O101 C82 1.240 . S
O102 Gd80 2.448 . S
O102 C83 1.249 . S
O103 Gd80 2.506 . S
O103 C83 1.252 . S
O104 Gd80 2.435 . S
O104 C90 1.256 . S
O105 Gd80 2.717 . S
O105 Gd81 2.327 . S
O105 C90 1.257 . S
O106 Gd81 2.377 . S
O106 C91 1.240 . S
O107 Gd80 2.395 . S
O107 C91 1.240 . S
O108 Gd81 2.448 . S
O108 C92 1.249 . S
O109 Gd81 2.506 . S
O109 C92 1.252 . S
O110 Gd81 2.435 . S
O110 C99 1.256 . S
O111 Gd80 2.327 . S
O111 Gd81 2.717 . S
O111 C99 1.257 . S
H112 C85 0.930 . S
H113 C86 0.931 . S
H114 C88 0.931 . S
H115 C89 0.931 . S
H116 C94 0.930 . S
H117 C95 0.931 . S
H118 C97 0.931 . S
H119 C98 0.931 . S
Gd120 C123 2.818 . S
Gd120 O140 2.377 . S
Gd120 O142 2.448 1_655 S
Gd120 O143 2.506 . S
Gd120 O144 2.435 . S
Gd120 O145 2.717 . S
Gd120 O147 2.395 . S
Gd120 O151 2.327 . S
Gd121 C132 2.818 . S
Gd121 O141 2.395 . S
Gd121 O145 2.327 . S
Gd121 O146 2.377 . S
Gd121 O148 2.448 . S
Gd121 O149 2.506 . S
Gd121 O150 2.435 . S
Gd121 O151 2.717 . S
C122 O140 1.240 . S
C122 O141 1.240 . S
C123 Gd120 2.818 . S
C123 C124 1.510 1_655 S
C123 O142 1.249 1_655 S
C123 O143 1.252 . S
C124 C123 1.510 1_455 S
C124 C125 1.404 . S
C124 C126 1.353 . S
C125 C124 1.404 . S
C125 C129 1.389 . S
C125 H152 0.930 . S
C126 C124 1.353 . S
C126 C128 1.376 . S
C126 H153 0.927 1_455 S
C127 C128 1.359 . S
C127 C129 1.364 . S
C128 C126 1.376 . S
C128 C127 1.359 . S
C128 H154 0.931 . S
C129 C125 1.389 . S
C129 C127 1.364 . S
C129 H155 0.931 . S
C130 O144 1.256 . S
C130 O145 1.257 . S
C131 O146 1.240 . S
C131 O147 1.240 . S
C132 Gd121 2.818 . S
C132 C133 1.510 . S
C132 O148 1.249 . S
C132 O149 1.252 . S
C133 C132 1.510 . S
C133 C134 1.404 . S
C133 C135 1.352 . S
C134 C133 1.404 . S
C134 C138 1.389 . S
C134 H156 0.930 . S
C135 C133 1.352 . S
C135 C137 1.374 . S
C135 H157 0.931 . S
C136 C137 1.359 . S
C136 C138 1.364 . S
C137 C135 1.374 . S
C137 C136 1.359 . S
C137 H158 0.931 . S
C138 C134 1.389 . S
C138 C136 1.364 . S
C138 H159 0.931 . S
C139 O150 1.256 . S
C139 O151 1.257 . S
O140 Gd120 2.377 . S
O140 C122 1.240 . S
O141 Gd121 2.395 . S
O141 C122 1.240 . S
O142 Gd120 2.448 1_455 S
O142 C123 1.249 1_455 S
O143 Gd120 2.506 . S
O143 C123 1.252 . S
O144 Gd120 2.435 . S
O144 C130 1.256 . S
O145 Gd120 2.717 . S
O145 Gd121 2.327 . S
O145 C130 1.257 . S
O146 Gd121 2.377 . S
O146 C131 1.240 . S
O147 Gd120 2.395 . S
O147 C131 1.240 . S
O148 Gd121 2.448 . S
O148 C132 1.249 . S
O149 Gd121 2.506 . S
O149 C132 1.252 . S
O150 Gd121 2.435 . S
O150 C139 1.256 . S
O151 Gd120 2.327 . S
O151 Gd121 2.717 . S
O151 C139 1.257 . S
H152 C125 0.930 . S
H153 C126 0.927 1_655 S
H154 C128 0.931 . S
H155 C129 0.931 . S
H156 C134 0.930 . S
H157 C135 0.931 . S
H158 C137 0.931 . S
H159 C138 0.931 . S
Gd160 C163 2.818 . S
Gd160 O180 2.377 . S
Gd160 O182 2.448 . S
Gd160 O183 2.506 . S
Gd160 O184 2.435 . S
Gd160 O185 2.717 . S
Gd160 O187 2.395 . S
Gd160 O191 2.327 . S
Gd161 C172 2.818 . S
Gd161 O181 2.395 . S
Gd161 O185 2.327 . S
Gd161 O186 2.377 . S
Gd161 O188 2.448 . S
Gd161 O189 2.506 . S
Gd161 O190 2.435 . S
Gd161 O191 2.717 . S
C162 O180 1.240 . S
C162 O181 1.240 . S
C163 Gd160 2.818 . S
C163 C164 1.510 . S
C163 O182 1.249 . S
C163 O183 1.252 . S
C164 C163 1.510 . S
C164 C165 1.404 1_565 S
C164 C166 1.352 . S
C165 C164 1.404 1_545 S
C165 C169 1.389 . S
C165 H192 0.930 . S
C166 C164 1.352 . S
C166 C168 1.374 . S
C166 H193 0.931 . S
C167 C168 1.359 1_545 S
C167 C169 1.364 . S
C168 C166 1.374 . S
C168 C167 1.359 1_565 S
C168 H194 0.931 . S
C169 C165 1.389 . S
C169 C167 1.364 . S
C169 H195 0.931 . S
C170 O184 1.256 . S
C170 O185 1.257 . S
C171 O186 1.240 . S
C171 O187 1.240 . S
C172 Gd161 2.818 . S
C172 C173 1.510 . S
C172 O188 1.249 . S
C172 O189 1.252 . S
C173 C172 1.510 . S
C173 C174 1.404 . S
C173 C175 1.352 . S
C174 C173 1.404 . S
C174 C178 1.389 . S
C174 H196 0.930 . S
C175 C173 1.352 . S
C175 C177 1.374 . S
C175 H197 0.931 . S
C176 C177 1.359 . S
C176 C178 1.364 . S
C177 C175 1.374 . S
C177 C176 1.359 . S
C177 H198 0.931 . S
C178 C174 1.389 . S
C178 C176 1.364 . S
C178 H199 0.931 . S
C179 O190 1.256 . S
C179 O191 1.257 . S
O180 Gd160 2.377 . S
O180 C162 1.240 . S
O181 Gd161 2.395 . S
O181 C162 1.240 . S
O182 Gd160 2.448 . S
O182 C163 1.249 . S
O183 Gd160 2.506 . S
O183 C163 1.252 . S
O184 Gd160 2.435 . S
O184 C170 1.256 . S
O185 Gd160 2.717 . S
O185 Gd161 2.327 . S
O185 C170 1.257 . S
O186 Gd161 2.377 . S
O186 C171 1.240 . S
O187 Gd160 2.395 . S
O187 C171 1.240 . S
O188 Gd161 2.448 . S
O188 C172 1.249 . S
O189 Gd161 2.506 . S
O189 C172 1.252 . S
O190 Gd161 2.435 . S
O190 C179 1.256 . S
O191 Gd160 2.327 . S
O191 Gd161 2.717 . S
O191 C179 1.257 . S
H192 C165 0.930 . S
H193 C166 0.931 . S
H194 C168 0.931 . S
H195 C169 0.931 . S
H196 C174 0.930 . S
H197 C175 0.931 . S
H198 C177 0.931 . S
H199 C178 0.931 . S
Gd200 C203 2.818 . S
Gd200 O220 2.377 . S
Gd200 O222 2.448 . S
Gd200 O223 2.506 . S
Gd200 O224 2.435 . S
Gd200 O225 2.717 . S
Gd200 O227 2.395 . S
Gd200 O231 2.327 . S
Gd201 C212 2.818 . S
Gd201 O221 2.395 . S
Gd201 O225 2.327 . S
Gd201 O226 2.377 . S
Gd201 O228 2.448 . S
Gd201 O229 2.506 . S
Gd201 O230 2.435 . S
Gd201 O231 2.717 . S
C202 O220 1.240 . S
C202 O221 1.240 . S
C203 Gd200 2.818 . S
C203 C204 1.510 . S
C203 O222 1.249 . S
C203 O223 1.252 . S
C204 C203 1.510 . S
C204 C205 1.404 . S
C204 C206 1.352 . S
C205 C204 1.404 . S
C205 C209 1.389 . S
C205 H232 0.930 . S
C206 C204 1.352 . S
C206 C208 1.374 . S
C206 H233 0.931 . S
C207 C208 1.359 . S
C207 C209 1.364 . S
C208 C206 1.374 . S
C208 C207 1.359 . S
C208 H234 0.931 . S
C209 C205 1.389 . S
C209 C207 1.364 . S
C209 H235 0.931 . S
C210 O224 1.256 . S
C210 O225 1.257 . S
C211 O226 1.240 . S
C211 O227 1.240 . S
C212 Gd201 2.818 . S
C212 C213 1.510 . S
C212 O228 1.249 . S
C212 O229 1.252 . S
C213 C212 1.510 . S
C213 C214 1.404 . S
C213 C215 1.352 . S
C214 C213 1.404 . S
C214 C218 1.389 . S
C214 H236 0.930 . S
C215 C213 1.352 . S
C215 C217 1.374 . S
C215 H237 0.931 . S
C216 C217 1.359 . S
C216 C218 1.364 . S
C217 C215 1.374 . S
C217 C216 1.359 . S
C217 H238 0.931 . S
C218 C214 1.389 . S
C218 C216 1.364 . S
C218 H239 0.931 . S
C219 O230 1.256 . S
C219 O231 1.257 . S
O220 Gd200 2.377 . S
O220 C202 1.240 . S
O221 Gd201 2.395 . S
O221 C202 1.240 . S
O222 Gd200 2.448 . S
O222 C203 1.249 . S
O223 Gd200 2.506 . S
O223 C203 1.252 . S
O224 Gd200 2.435 . S
O224 C210 1.256 . S
O225 Gd200 2.717 . S
O225 Gd201 2.327 . S
O225 C210 1.257 . S
O226 Gd201 2.377 . S
O226 C211 1.240 . S
O227 Gd200 2.395 . S
O227 C211 1.240 . S
O228 Gd201 2.448 . S
O228 C212 1.249 . S
O229 Gd201 2.506 . S
O229 C212 1.252 . S
O230 Gd201 2.435 . S
O230 C219 1.256 . S
O231 Gd200 2.327 . S
O231 Gd201 2.717 . S
O231 C219 1.257 . S
H232 C205 0.930 . S
H233 C206 0.931 . S
H234 C208 0.931 . S
H235 C209 0.931 . S
H236 C214 0.930 . S
H237 C215 0.931 . S
H238 C217 0.931 . S
H239 C218 0.931 . S
Gd240 C243 2.818 . S
Gd240 O260 2.377 . S
Gd240 O262 2.448 . S
Gd240 O263 2.506 . S
Gd240 O264 2.435 . S
Gd240 O265 2.717 . S
Gd240 O267 2.395 . S
Gd240 O271 2.327 . S
Gd241 C252 2.818 . S
Gd241 O261 2.395 . S
Gd241 O265 2.327 . S
Gd241 O266 2.377 . S
Gd241 O268 2.448 . S
Gd241 O269 2.506 . S
Gd241 O270 2.435 . S
Gd241 O271 2.717 . S
C242 O260 1.240 . S
C242 O261 1.240 . S
C243 Gd240 2.818 . S
C243 C244 1.510 . S
C243 O262 1.249 . S
C243 O263 1.252 . S
C244 C243 1.510 . S
C244 C245 1.404 1_545 S
C244 C246 1.352 . S
C245 C244 1.404 1_565 S
C245 C249 1.389 . S
C245 H272 0.930 . S
C246 C244 1.352 . S
C246 C248 1.374 . S
C246 H273 0.931 . S
C247 C248 1.359 1_565 S
C247 C249 1.364 . S
C248 C246 1.374 . S
C248 C247 1.359 1_545 S
C248 H274 0.931 . S
C249 C245 1.389 . S
C249 C247 1.364 . S
C249 H275 0.931 . S
C250 O264 1.256 . S
C250 O265 1.257 . S
C251 O266 1.240 . S
C251 O267 1.240 . S
C252 Gd241 2.818 . S
C252 C253 1.510 . S
C252 O268 1.249 . S
C252 O269 1.252 . S
C253 C252 1.510 . S
C253 C254 1.404 . S
C253 C255 1.352 . S
C254 C253 1.404 . S
C254 C258 1.389 . S
C254 H276 0.930 . S
C255 C253 1.352 . S
C255 C257 1.374 . S
C255 H277 0.931 . S
C256 C257 1.359 . S
C256 C258 1.364 . S
C257 C255 1.374 . S
C257 C256 1.359 . S
C257 H278 0.931 . S
C258 C254 1.389 . S
C258 C256 1.364 . S
C258 H279 0.931 . S
C259 O270 1.256 . S
C259 O271 1.257 . S
O260 Gd240 2.377 . S
O260 C242 1.240 . S
O261 Gd241 2.395 . S
O261 C242 1.240 . S
O262 Gd240 2.448 . S
O262 C243 1.249 . S
O263 Gd240 2.506 . S
O263 C243 1.252 . S
O264 Gd240 2.435 . S
O264 C250 1.256 . S
O265 Gd240 2.717 . S
O265 Gd241 2.327 . S
O265 C250 1.257 . S
O266 Gd241 2.377 . S
O266 C251 1.240 . S
O267 Gd240 2.395 . S
O267 C251 1.240 . S
O268 Gd241 2.448 . S
O268 C252 1.249 . S
O269 Gd241 2.506 . S
O269 C252 1.252 . S
O270 Gd241 2.435 . S
O270 C259 1.256 . S
O271 Gd240 2.327 . S
O271 Gd241 2.717 . S
O271 C259 1.257 . S
H272 C245 0.930 . S
H273 C246 0.931 . S
H274 C248 0.931 . S
H275 C249 0.931 . S
H276 C254 0.930 . S
H277 C255 0.931 . S
H278 C257 0.931 . S
H279 C258 0.931 . S
Gd280 C283 2.818 . S
Gd280 O300 2.377 . S
Gd280 O302 2.448 . S
Gd280 O303 2.506 . S
Gd280 O304 2.435 . S
Gd280 O305 2.717 . S
Gd280 O307 2.395 . S
Gd280 O311 2.327 . S
Gd281 C292 2.818 . S
Gd281 O301 2.395 . S
Gd281 O305 2.327 . S
Gd281 O306 2.377 . S
Gd281 O308 2.448 1_455 S
Gd281 O309 2.506 . S
Gd281 O310 2.435 . S
Gd281 O311 2.717 . S
C282 O300 1.240 . S
C282 O301 1.240 . S
C283 Gd280 2.818 . S
C283 C284 1.510 . S
C283 O302 1.249 . S
C283 O303 1.252 . S
C284 C283 1.510 . S
C284 C285 1.404 . S
C284 C286 1.352 . S
C285 C284 1.404 . S
C285 C289 1.389 . S
C285 H312 0.930 . S
C286 C284 1.352 . S
C286 C288 1.374 . S
C286 H313 0.931 . S
C287 C288 1.359 . S
C287 C289 1.364 . S
C288 C286 1.374 . S
C288 C287 1.359 . S
C288 H314 0.931 . S
C289 C285 1.389 . S
C289 C287 1.364 . S
C289 H315 0.931 . S
C290 O304 1.256 . S
C290 O305 1.257 . S
C291 O306 1.240 . S
C291 O307 1.240 . S
C292 Gd281 2.818 . S
C292 C293 1.510 1_455 S
C292 O308 1.249 1_455 S
C292 O309 1.252 . S
C293 C292 1.510 1_655 S
C293 C294 1.404 . S
C293 C295 1.353 . S
C294 C293 1.404 . S
C294 C298 1.389 . S
C294 H316 0.930 . S
C295 C293 1.353 . S
C295 C297 1.376 . S
C295 H317 0.927 1_655 S
C296 C297 1.359 . S
C296 C298 1.364 . S
C297 C295 1.376 . S
C297 C296 1.359 . S
C297 H318 0.931 . S
C298 C294 1.389 . S
C298 C296 1.364 . S
C298 H319 0.931 . S
C299 O310 1.256 . S
C299 O311 1.257 . S
O300 Gd280 2.377 . S
O300 C282 1.240 . S
O301 Gd281 2.395 . S
O301 C282 1.240 . S
O302 Gd280 2.448 . S
O302 C283 1.249 . S
O303 Gd280 2.506 . S
O303 C283 1.252 . S
O304 Gd280 2.435 . S
O304 C290 1.256 . S
O305 Gd280 2.717 . S
O305 Gd281 2.327 . S
O305 C290 1.257 . S
O306 Gd281 2.377 . S
O306 C291 1.240 . S
O307 Gd280 2.395 . S
O307 C291 1.240 . S
O308 Gd281 2.448 1_655 S
O308 C292 1.249 1_655 S
O309 Gd281 2.506 . S
O309 C292 1.252 . S
O310 Gd281 2.435 . S
O310 C299 1.256 . S
O311 Gd280 2.327 . S
O311 Gd281 2.717 . S
O311 C299 1.257 . S
H312 C285 0.930 . S
H313 C286 0.931 . S
H314 C288 0.931 . S
H315 C289 0.931 . S
H316 C294 0.930 . S
H317 C295 0.927 1_455 S
H318 C297 0.931 . S
H319 C298 0.931 . S
Gd320 C323 2.818 . S
Gd320 O340 2.377 . S
Gd320 O342 2.448 . S
Gd320 O343 2.506 . S
Gd320 O344 2.435 . S
Gd320 O345 2.717 . S
Gd320 O347 2.395 . S
Gd320 O351 2.327 . S
Gd321 C332 2.818 . S
Gd321 O341 2.395 . S
Gd321 O345 2.327 . S
Gd321 O346 2.377 . S
Gd321 O348 2.448 . S
Gd321 O349 2.506 . S
Gd321 O350 2.435 . S
Gd321 O351 2.717 . S
C322 O340 1.240 . S
C322 O341 1.240 . S
C323 Gd320 2.818 . S
C323 C324 1.510 . S
C323 O342 1.249 . S
C323 O343 1.252 . S
C324 C323 1.510 . S
C324 C325 1.404 . S
C324 C326 1.352 . S
C325 C324 1.404 . S
C325 C329 1.389 . S
C325 H352 0.930 . S
C326 C324 1.352 . S
C326 C328 1.374 . S
C326 H353 0.931 . S
C327 C328 1.359 . S
C327 C329 1.364 . S
C328 C326 1.374 . S
C328 C327 1.359 . S
C328 H354 0.931 . S
C329 C325 1.389 . S
C329 C327 1.364 . S
C329 H355 0.931 . S
C330 O344 1.256 . S
C330 O345 1.257 . S
C331 O346 1.240 . S
C331 O347 1.240 . S
C332 Gd321 2.818 . S
C332 C333 1.510 . S
C332 O348 1.249 . S
C332 O349 1.252 . S
C333 C332 1.510 . S
C333 C334 1.404 . S
C333 C335 1.352 . S
C334 C333 1.404 . S
C334 C338 1.389 . S
C334 H356 0.930 . S
C335 C333 1.352 . S
C335 C337 1.374 . S
C335 H357 0.931 . S
C336 C337 1.359 . S
C336 C338 1.364 . S
C337 C335 1.374 . S
C337 C336 1.359 . S
C337 H358 0.931 . S
C338 C334 1.389 . S
C338 C336 1.364 . S
C338 H359 0.931 . S
C339 O350 1.256 . S
C339 O351 1.257 . S
O340 Gd320 2.377 . S
O340 C322 1.240 . S
O341 Gd321 2.395 . S
O341 C322 1.240 . S
O342 Gd320 2.448 . S
O342 C323 1.249 . S
O343 Gd320 2.506 . S
O343 C323 1.252 . S
O344 Gd320 2.435 . S
O344 C330 1.256 . S
O345 Gd320 2.717 . S
O345 Gd321 2.327 . S
O345 C330 1.257 . S
O346 Gd321 2.377 . S
O346 C331 1.240 . S
O347 Gd320 2.395 . S
O347 C331 1.240 . S
O348 Gd321 2.448 . S
O348 C332 1.249 . S
O349 Gd321 2.506 . S
O349 C332 1.252 . S
O350 Gd321 2.435 . S
O350 C339 1.256 . S
O351 Gd320 2.327 . S
O351 Gd321 2.717 . S
O351 C339 1.257 . S
H352 C325 0.930 . S
H353 C326 0.931 . S
H354 C328 0.931 . S
H355 C329 0.931 . S
H356 C334 0.930 . S
H357 C335 0.931 . S
H358 C337 0.931 . S
H359 C338 0.931 . S
Gd360 C363 2.810 1_545 S
Gd360 O380 2.377 . S
Gd360 O382 2.448 1_455 S
Gd360 O383 2.506 1_545 S
Gd360 O384 2.435 . S
Gd360 O385 2.717 . S
Gd360 O387 2.395 . S
Gd360 O391 2.327 . S
Gd361 C372 2.818 . S
Gd361 O381 2.395 . S
Gd361 O385 2.327 . S
Gd361 O386 2.377 . S
Gd361 O388 2.448 . S
Gd361 O389 2.506 . S
Gd361 O390 2.435 . S
Gd361 O391 2.717 . S
C362 O380 1.240 . S
C362 O381 1.240 . S
C363 Gd360 2.810 1_565 S
C363 C364 1.518 1_455 S
C363 O382 1.233 1_465 S
C363 O383 1.260 . S
C364 C363 1.518 1_655 S
C364 C365 1.404 . S
C364 C366 1.353 . S
C365 C364 1.404 . S
C365 C369 1.389 . S
C365 H392 0.930 1_565 S
C366 C364 1.353 . S
C366 C368 1.376 . S
C366 H393 0.927 1_655 S
C367 C368 1.359 . S
C367 C369 1.364 . S
C368 C366 1.376 . S
C368 C367 1.359 . S
C368 H394 0.931 . S
C369 C365 1.389 . S
C369 C367 1.364 . S
C369 H395 0.931 . S
C370 O384 1.256 . S
C370 O385 1.257 . S
C371 O386 1.240 . S
C371 O387 1.240 . S
C372 Gd361 2.818 . S
C372 C373 1.510 . S
C372 O388 1.249 . S
C372 O389 1.252 . S
C373 C372 1.510 . S
C373 C374 1.404 . S
C373 C375 1.352 . S
C374 C373 1.404 . S
C374 C378 1.389 . S
C374 H396 0.930 . S
C375 C373 1.352 . S
C375 C377 1.374 . S
C375 H397 0.931 . S
C376 C377 1.359 . S
C376 C378 1.364 . S
C377 C375 1.374 . S
C377 C376 1.359 . S
C377 H398 0.931 . S
C378 C374 1.389 . S
C378 C376 1.364 . S
C378 H399 0.931 . S
C379 O390 1.256 . S
C379 O391 1.257 . S
O380 Gd360 2.377 . S
O380 C362 1.240 . S
O381 Gd361 2.395 . S
O381 C362 1.240 . S
O382 Gd360 2.448 1_655 S
O382 C363 1.233 1_645 S
O383 Gd360 2.506 1_565 S
O383 C363 1.260 . S
O384 Gd360 2.435 . S
O384 C370 1.256 . S
O385 Gd360 2.717 . S
O385 Gd361 2.327 . S
O385 C370 1.257 . S
O386 Gd361 2.377 . S
O386 C371 1.240 . S
O387 Gd360 2.395 . S
O387 C371 1.240 . S
O388 Gd361 2.448 . S
O388 C372 1.249 . S
O389 Gd361 2.506 . S
O389 C372 1.252 . S
O390 Gd361 2.435 . S
O390 C379 1.256 . S
O391 Gd360 2.327 . S
O391 Gd361 2.717 . S
O391 C379 1.257 . S
H392 C365 0.930 1_545 S
H393 C366 0.927 1_455 S
H394 C368 0.931 . S
H395 C369 0.931 . S
H396 C374 0.930 . S
H397 C375 0.931 . S
H398 C377 0.931 . S
H399 C378 0.931 . S
Gd400 C403 2.818 . S
Gd400 O420 2.377 . S
Gd400 O422 2.448 . S
Gd400 O423 2.506 . S
Gd400 O424 2.435 . S
Gd400 O425 2.717 . S
Gd400 O427 2.395 . S
Gd400 O431 2.327 . S
Gd401 C412 2.818 . S
Gd401 O421 2.395 . S
Gd401 O425 2.327 . S
Gd401 O426 2.377 . S
Gd401 O428 2.448 . S
Gd401 O429 2.506 . S
Gd401 O430 2.435 . S
Gd401 O431 2.717 . S
C402 O420 1.240 . S
C402 O421 1.240 . S
C403 Gd400 2.818 . S
C403 C404 1.510 . S
C403 O422 1.249 . S
C403 O423 1.252 . S
C404 C403 1.510 . S
C404 C405 1.404 . S
C404 C406 1.352 . S
C405 C404 1.404 . S
C405 C409 1.389 . S
C405 H432 0.930 . S
C406 C404 1.352 . S
C406 C408 1.374 . S
C406 H433 0.931 . S
C407 C408 1.359 . S
C407 C409 1.364 . S
C408 C406 1.374 . S
C408 C407 1.359 . S
C408 H434 0.931 . S
C409 C405 1.389 . S
C409 C407 1.364 . S
C409 H435 0.931 . S
C410 O424 1.256 . S
C410 O425 1.257 . S
C411 O426 1.240 . S
C411 O427 1.240 . S
C412 Gd401 2.818 . S
C412 C413 1.510 . S
C412 O428 1.249 . S
C412 O429 1.252 . S
C413 C412 1.510 . S
C413 C414 1.404 . S
C413 C415 1.352 . S
C414 C413 1.404 . S
C414 C418 1.389 . S
C414 H436 0.930 . S
C415 C413 1.352 . S
C415 C417 1.374 . S
C415 H437 0.931 . S
C416 C417 1.359 . S
C416 C418 1.364 . S
C417 C415 1.374 . S
C417 C416 1.359 . S
C417 H438 0.931 . S
C418 C414 1.389 . S
C418 C416 1.364 . S
C418 H439 0.931 . S
C419 O430 1.256 . S
C419 O431 1.257 . S
O420 Gd400 2.377 . S
O420 C402 1.240 . S
O421 Gd401 2.395 . S
O421 C402 1.240 . S
O422 Gd400 2.448 . S
O422 C403 1.249 . S
O423 Gd400 2.506 . S
O423 C403 1.252 . S
O424 Gd400 2.435 . S
O424 C410 1.256 . S
O425 Gd400 2.717 . S
O425 Gd401 2.327 . S
O425 C410 1.257 . S
O426 Gd401 2.377 . S
O426 C411 1.240 . S
O427 Gd400 2.395 . S
O427 C411 1.240 . S
O428 Gd401 2.448 . S
O428 C412 1.249 . S
O429 Gd401 2.506 . S
O429 C412 1.252 . S
O430 Gd401 2.435 . S
O430 C419 1.256 . S
O431 Gd400 2.327 . S
O431 Gd401 2.717 . S
O431 C419 1.257 . S
H432 C405 0.930 . S
H433 C406 0.931 . S
H434 C408 0.931 . S
H435 C409 0.931 . S
H436 C414 0.930 . S
H437 C415 0.931 . S
H438 C417 0.931 . S
H439 C418 0.931 . S
Gd440 C443 2.810 1_565 S
Gd440 O460 2.377 . S
Gd440 O462 2.448 . S
Gd440 O463 2.506 1_565 S
Gd440 O464 2.435 . S
Gd440 O465 2.717 . S
Gd440 O467 2.395 . S
Gd440 O471 2.327 . S
Gd441 C452 2.818 . S
Gd441 O461 2.395 . S
Gd441 O465 2.327 . S
Gd441 O466 2.377 . S
Gd441 O468 2.448 . S
Gd441 O469 2.506 . S
Gd441 O470 2.435 . S
Gd441 O471 2.717 . S
C442 O460 1.240 . S
C442 O461 1.240 . S
C443 Gd440 2.810 1_545 S
C443 C444 1.518 . S
C443 O462 1.233 1_545 S
C443 O463 1.260 . S
C444 C443 1.518 . S
C444 C445 1.404 . S
C444 C446 1.352 . S
C445 C444 1.404 . S
C445 C449 1.389 . S
C445 H472 0.930 1_545 S
C446 C444 1.352 . S
C446 C448 1.374 . S
C446 H473 0.931 . S
C447 C448 1.359 . S
C447 C449 1.364 . S
C448 C446 1.374 . S
C448 C447 1.359 . S
C448 H474 0.931 . S
C449 C445 1.389 . S
C449 C447 1.364 . S
C449 H475 0.931 . S
C450 O464 1.256 . S
C450 O465 1.257 . S
C451 O466 1.240 . S
C451 O467 1.240 . S
C452 Gd441 2.818 . S
C452 C453 1.510 . S
C452 O468 1.249 . S
C452 O469 1.252 . S
C453 C452 1.510 . S
C453 C454 1.404 . S
C453 C455 1.352 . S
C454 C453 1.404 . S
C454 C458 1.389 . S
C454 H476 0.930 . S
C455 C453 1.352 . S
C455 C457 1.374 . S
C455 H477 0.931 . S
C456 C457 1.359 . S
C456 C458 1.364 . S
C457 C455 1.374 . S
C457 C456 1.359 . S
C457 H478 0.931 . S
C458 C454 1.389 . S
C458 C456 1.364 . S
C458 H479 0.931 . S
C459 O470 1.256 . S
C459 O471 1.257 . S
O460 Gd440 2.377 . S
O460 C442 1.240 . S
O461 Gd441 2.395 . S
O461 C442 1.240 . S
O462 Gd440 2.448 . S
O462 C443 1.233 1_565 S
O463 Gd440 2.506 1_545 S
O463 C443 1.260 . S
O464 Gd440 2.435 . S
O464 C450 1.256 . S
O465 Gd440 2.717 . S
O465 Gd441 2.327 . S
O465 C450 1.257 . S
O466 Gd441 2.377 . S
O466 C451 1.240 . S
O467 Gd440 2.395 . S
O467 C451 1.240 . S
O468 Gd441 2.448 . S
O468 C452 1.249 . S
O469 Gd441 2.506 . S
O469 C452 1.252 . S
O470 Gd441 2.435 . S
O470 C459 1.256 . S
O471 Gd440 2.327 . S
O471 Gd441 2.717 . S
O471 C459 1.257 . S
H472 C445 0.930 1_565 S
H473 C446 0.931 . S
H474 C448 0.931 . S
H475 C449 0.931 . S
H476 C454 0.930 . S
H477 C455 0.931 . S
H478 C457 0.931 . S
H479 C458 0.931 . S
Gd480 C483 2.818 . S
Gd480 O500 2.377 . S
Gd480 O502 2.448 . S
Gd480 O503 2.506 . S
Gd480 O504 2.435 . S
Gd480 O505 2.717 . S
Gd480 O507 2.395 . S
Gd480 O511 2.327 . S
Gd481 C492 2.818 . S
Gd481 O501 2.395 . S
Gd481 O505 2.327 . S
Gd481 O506 2.377 . S
Gd481 O508 2.448 . S
Gd481 O509 2.506 . S
Gd481 O510 2.435 . S
Gd481 O511 2.717 . S
C482 O500 1.240 . S
C482 O501 1.240 . S
C483 Gd480 2.818 . S
C483 C484 1.510 . S
C483 O502 1.249 . S
C483 O503 1.252 . S
C484 C483 1.510 . S
C484 C485 1.404 . S
C484 C486 1.352 . S
C485 C484 1.404 . S
C485 C489 1.389 . S
C485 H512 0.930 . S
C486 C484 1.352 . S
C486 C488 1.374 . S
C486 H513 0.931 . S
C487 C488 1.359 . S
C487 C489 1.364 . S
C488 C486 1.374 . S
C488 C487 1.359 . S
C488 H514 0.931 . S
C489 C485 1.389 . S
C489 C487 1.364 . S
C489 H515 0.931 . S
C490 O504 1.256 . S
C490 O505 1.257 . S
C491 O506 1.240 . S
C491 O507 1.240 . S
C492 Gd481 2.818 . S
C492 C493 1.510 . S
C492 O508 1.249 . S
C492 O509 1.252 . S
C493 C492 1.510 . S
C493 C494 1.404 . S
C493 C495 1.352 . S
C494 C493 1.404 . S
C494 C498 1.389 . S
C494 H516 0.930 . S
C495 C493 1.352 . S
C495 C497 1.374 . S
C495 H517 0.931 . S
C496 C497 1.359 . S
C496 C498 1.364 . S
C497 C495 1.374 . S
C497 C496 1.359 . S
C497 H518 0.931 . S
C498 C494 1.389 . S
C498 C496 1.364 . S
C498 H519 0.931 . S
C499 O510 1.256 . S
C499 O511 1.257 . S
O500 Gd480 2.377 . S
O500 C482 1.240 . S
O501 Gd481 2.395 . S
O501 C482 1.240 . S
O502 Gd480 2.448 . S
O502 C483 1.249 . S
O503 Gd480 2.506 . S
O503 C483 1.252 . S
O504 Gd480 2.435 . S
O504 C490 1.256 . S
O505 Gd480 2.717 . S
O505 Gd481 2.327 . S
O505 C490 1.257 . S
O506 Gd481 2.377 . S
O506 C491 1.240 . S
O507 Gd480 2.395 . S
O507 C491 1.240 . S
O508 Gd481 2.448 . S
O508 C492 1.249 . S
O509 Gd481 2.506 . S
O509 C492 1.252 . S
O510 Gd481 2.435 . S
O510 C499 1.256 . S
O511 Gd480 2.327 . S
O511 Gd481 2.717 . S
O511 C499 1.257 . S
H512 C485 0.930 . S
H513 C486 0.931 . S
H514 C488 0.931 . S
H515 C489 0.931 . S
H516 C494 0.930 . S
H517 C495 0.931 . S
H518 C497 0.931 . S
H519 C498 0.931 . S
Gd520 C523 2.818 . S
Gd520 O540 2.377 . S
Gd520 O542 2.448 . S
Gd520 O543 2.506 . S
Gd520 O544 2.435 . S
Gd520 O545 2.717 . S
Gd520 O547 2.395 . S
Gd520 O551 2.327 . S
Gd521 C532 2.810 1_565 S
Gd521 O541 2.395 . S
Gd521 O545 2.327 . S
Gd521 O546 2.377 . S
Gd521 O548 2.448 1_655 S
Gd521 O549 2.506 1_565 S
Gd521 O550 2.435 . S
Gd521 O551 2.717 . S
C522 O540 1.240 . S
C522 O541 1.240 . S
C523 Gd520 2.818 . S
C523 C524 1.510 . S
C523 O542 1.249 . S
C523 O543 1.252 . S
C524 C523 1.510 . S
C524 C525 1.404 . S
C524 C526 1.352 . S
C525 C524 1.404 . S
C525 C529 1.389 . S
C525 H552 0.930 . S
C526 C524 1.352 . S
C526 C528 1.374 . S
C526 H553 0.931 . S
C527 C528 1.359 . S
C527 C529 1.364 . S
C528 C526 1.374 . S
C528 C527 1.359 . S
C528 H554 0.931 . S
C529 C525 1.389 . S
C529 C527 1.364 . S
C529 H555 0.931 . S
C530 O544 1.256 . S
C530 O545 1.257 . S
C531 O546 1.240 . S
C531 O547 1.240 . S
C532 Gd521 2.810 1_545 S
C532 C533 1.518 1_655 S
C532 O548 1.233 1_645 S
C532 O549 1.260 . S
C533 C532 1.518 1_455 S
C533 C534 1.404 . S
C533 C535 1.353 . S
C534 C533 1.404 . S
C534 C538 1.389 . S
C534 H556 0.930 1_545 S
C535 C533 1.353 . S
C535 C537 1.376 . S
C535 H557 0.927 1_455 S
C536 C537 1.359 . S
C536 C538 1.364 . S
C537 C535 1.376 . S
C537 C536 1.359 . S
C537 H558 0.931 . S
C538 C534 1.389 . S
C538 C536 1.364 . S
C538 H559 0.931 . S
C539 O550 1.256 . S
C539 O551 1.257 . S
O540 Gd520 2.377 . S
O540 C522 1.240 . S
O541 Gd521 2.395 . S
O541 C522 1.240 . S
O542 Gd520 2.448 . S
O542 C523 1.249 . S
O543 Gd520 2.506 . S
O543 C523 1.252 . S
O544 Gd520 2.435 . S
O544 C530 1.256 . S
O545 Gd520 2.717 . S
O545 Gd521 2.327 . S
O545 C530 1.257 . S
O546 Gd521 2.377 . S
O546 C531 1.240 . S
O547 Gd520 2.395 . S
O547 C531 1.240 . S
O548 Gd521 2.448 1_455 S
O548 C532 1.233 1_465 S
O549 Gd521 2.506 1_545 S
O549 C532 1.260 . S
O550 Gd521 2.435 . S
O550 C539 1.256 . S
O551 Gd520 2.327 . S
O551 Gd521 2.717 . S
O551 C539 1.257 . S
H552 C525 0.930 . S
H553 C526 0.931 . S
H554 C528 0.931 . S
H555 C529 0.931 . S
H556 C534 0.930 1_565 S
H557 C535 0.927 1_655 S
H558 C537 0.931 . S
H559 C538 0.931 . S
Gd560 C563 2.818 . S
Gd560 O580 2.377 . S
Gd560 O582 2.448 . S
Gd560 O583 2.506 . S
Gd560 O584 2.435 . S
Gd560 O585 2.717 . S
Gd560 O587 2.395 . S
Gd560 O591 2.327 . S
Gd561 C572 2.818 . S
Gd561 O581 2.395 . S
Gd561 O585 2.327 . S
Gd561 O586 2.377 . S
Gd561 O588 2.448 . S
Gd561 O589 2.506 . S
Gd561 O590 2.435 . S
Gd561 O591 2.717 . S
C562 O580 1.240 . S
C562 O581 1.240 . S
C563 Gd560 2.818 . S
C563 C564 1.510 . S
C563 O582 1.249 . S
C563 O583 1.252 . S
C564 C563 1.510 . S
C564 C565 1.404 . S
C564 C566 1.352 . S
C565 C564 1.404 . S
C565 C569 1.389 . S
C565 H592 0.930 . S
C566 C564 1.352 . S
C566 C568 1.374 . S
C566 H593 0.931 . S
C567 C568 1.359 . S
C567 C569 1.364 . S
C568 C566 1.374 . S
C568 C567 1.359 . S
C568 H594 0.931 . S
C569 C565 1.389 . S
C569 C567 1.364 . S
C569 H595 0.931 . S
C570 O584 1.256 . S
C570 O585 1.257 . S
C571 O586 1.240 . S
C571 O587 1.240 . S
C572 Gd561 2.818 . S
C572 C573 1.510 . S
C572 O588 1.249 . S
C572 O589 1.252 . S
C573 C572 1.510 . S
C573 C574 1.404 . S
C573 C575 1.352 . S
C574 C573 1.404 . S
C574 C578 1.389 . S
C574 H596 0.930 . S
C575 C573 1.352 . S
C575 C577 1.374 . S
C575 H597 0.931 . S
C576 C577 1.359 . S
C576 C578 1.364 . S
C577 C575 1.374 . S
C577 C576 1.359 . S
C577 H598 0.931 . S
C578 C574 1.389 . S
C578 C576 1.364 . S
C578 H599 0.931 . S
C579 O590 1.256 . S
C579 O591 1.257 . S
O580 Gd560 2.377 . S
O580 C562 1.240 . S
O581 Gd561 2.395 . S
O581 C562 1.240 . S
O582 Gd560 2.448 . S
O582 C563 1.249 . S
O583 Gd560 2.506 . S
O583 C563 1.252 . S
O584 Gd560 2.435 . S
O584 C570 1.256 . S
O585 Gd560 2.717 . S
O585 Gd561 2.327 . S
O585 C570 1.257 . S
O586 Gd561 2.377 . S
O586 C571 1.240 . S
O587 Gd560 2.395 . S
O587 C571 1.240 . S
O588 Gd561 2.448 . S
O588 C572 1.249 . S
O589 Gd561 2.506 . S
O589 C572 1.252 . S
O590 Gd561 2.435 . S
O590 C579 1.256 . S
O591 Gd560 2.327 . S
O591 Gd561 2.717 . S
O591 C579 1.257 . S
H592 C565 0.930 . S
H593 C566 0.931 . S
H594 C568 0.931 . S
H595 C569 0.931 . S
H596 C574 0.930 . S
H597 C575 0.931 . S
H598 C577 0.931 . S
H599 C578 0.931 . S
Gd600 C603 2.818 . S
Gd600 O620 2.377 . S
Gd600 O622 2.448 . S
Gd600 O623 2.506 . S
Gd600 O624 2.435 . S
Gd600 O625 2.717 . S
Gd600 O627 2.395 . S
Gd600 O631 2.327 . S
Gd601 C612 2.810 1_545 S
Gd601 O621 2.395 . S
Gd601 O625 2.327 . S
Gd601 O626 2.377 . S
Gd601 O628 2.448 . S
Gd601 O629 2.506 1_545 S
Gd601 O630 2.435 . S
Gd601 O631 2.717 . S
C602 O620 1.240 . S
C602 O621 1.240 . S
C603 Gd600 2.818 . S
C603 C604 1.510 . S
C603 O622 1.249 . S
C603 O623 1.252 . S
C604 C603 1.510 . S
C604 C605 1.404 . S
C604 C606 1.352 . S
C605 C604 1.404 . S
C605 C609 1.389 . S
C605 H632 0.930 . S
C606 C604 1.352 . S
C606 C608 1.374 . S
C606 H633 0.931 . S
C607 C608 1.359 . S
C607 C609 1.364 . S
C608 C606 1.374 . S
C608 C607 1.359 . S
C608 H634 0.931 . S
C609 C605 1.389 . S
C609 C607 1.364 . S
C609 H635 0.931 . S
C610 O624 1.256 . S
C610 O625 1.257 . S
C611 O626 1.240 . S
C611 O627 1.240 . S
C612 Gd601 2.810 1_565 S
C612 C613 1.518 . S
C612 O628 1.233 1_565 S
C612 O629 1.260 . S
C613 C612 1.518 . S
C613 C614 1.404 . S
C613 C615 1.352 . S
C614 C613 1.404 . S
C614 C618 1.389 . S
C614 H636 0.930 1_565 S
C615 C613 1.352 . S
C615 C617 1.374 . S
C615 H637 0.931 . S
C616 C617 1.359 . S
C616 C618 1.364 . S
C617 C615 1.374 . S
C617 C616 1.359 . S
C617 H638 0.931 . S
C618 C614 1.389 . S
C618 C616 1.364 . S
C618 H639 0.931 . S
C619 O630 1.256 . S
C619 O631 1.257 . S
O620 Gd600 2.377 . S
O620 C602 1.240 . S
O621 Gd601 2.395 . S
O621 C602 1.240 . S
O622 Gd600 2.448 . S
O622 C603 1.249 . S
O623 Gd600 2.506 . S
O623 C603 1.252 . S
O624 Gd600 2.435 . S
O624 C610 1.256 . S
O625 Gd600 2.717 . S
O625 Gd601 2.327 . S
O625 C610 1.257 . S
O626 Gd601 2.377 . S
O626 C611 1.240 . S
O627 Gd600 2.395 . S
O627 C611 1.240 . S
O628 Gd601 2.448 . S
O628 C612 1.233 1_545 S
O629 Gd601 2.506 1_565 S
O629 C612 1.260 . S
O630 Gd601 2.435 . S
O630 C619 1.256 . S
O631 Gd600 2.327 . S
O631 Gd601 2.717 . S
O631 C619 1.257 . S
H632 C605 0.930 . S
H633 C606 0.931 . S
H634 C608 0.931 . S
H635 C609 0.931 . S
H636 C614 0.930 1_545 S
H637 C615 0.931 . S
H638 C617 0.931 . S
H639 C618 0.931 . S
H640 C646 0.930 . S
H641 C649 0.930 . S
H642 C650 0.930 . S
H643 C651 0.930 . S
H644 C654 0.930 . S
H645 C655 0.930 . S
C646 H640 0.930 . S
C646 C647 1.355 . S
C646 C648 1.415 . S
C647 C646 1.355 . S
C647 C649 1.419 . S
C648 C646 1.415 . S
C648 C653 1.425 . S
C648 C655 1.409 . S
C649 H641 0.930 . S
C649 C647 1.419 . S
C649 C650 1.362 . S
C650 H642 0.930 . S
C650 C649 1.362 . S
C650 C653 1.409 . S
C651 H643 0.930 . S
C651 C652 1.355 . S
C651 C653 1.415 . S
C652 C651 1.355 . S
C652 C654 1.419 . S
C653 C648 1.425 . S
C653 C650 1.409 . S
C653 C651 1.415 . S
C654 H644 0.930 . S
C654 C652 1.419 . S
C654 C655 1.362 . S
C655 H645 0.930 . S
C655 C648 1.409 . S
C655 C654 1.362 . S
H656 C662 0.930 . S
H657 C665 0.930 . S
H658 C666 0.930 . S
H659 C667 0.930 . S
H660 C670 0.930 . S
H661 C671 0.930 . S
C662 H656 0.930 . S
C662 C663 1.355 . S
C662 C664 1.415 . S
C663 C662 1.355 . S
C663 C665 1.419 . S
C664 C662 1.415 . S
C664 C669 1.425 . S
C664 C671 1.409 . S
C665 H657 0.930 . S
C665 C663 1.419 . S
C665 C666 1.362 . S
C666 H658 0.930 . S
C666 C665 1.362 . S
C666 C669 1.409 . S
C667 H659 0.930 . S
C667 C668 1.355 . S
C667 C669 1.415 . S
C668 C667 1.355 . S
C668 C670 1.419 . S
C669 C664 1.425 . S
C669 C666 1.409 . S
C669 C667 1.415 . S
C670 H660 0.930 . S
C670 C668 1.419 . S
C670 C671 1.362 . S
C671 H661 0.930 . S
C671 C664 1.409 . S
C671 C670 1.362 . S
H672 C678 0.930 . S
H673 C681 0.930 . S
H674 C682 0.930 1_655 S
H675 C683 0.930 . S
H676 C686 0.930 . S
H677 C687 0.930 1_455 S
C678 H672 0.930 . S
C678 C679 1.355 . S
C678 C680 1.415 . S
C679 C678 1.355 . S
C679 C681 1.419 . S
C680 C678 1.415 . S
C680 C685 1.425 1_455 S
C680 C687 1.409 1_455 S
C681 H673 0.930 . S
C681 C679 1.419 . S
C681 C682 1.362 . S
C682 H674 0.930 1_455 S
C682 C681 1.362 . S
C682 C685 1.409 1_455 S
C683 H675 0.930 . S
C683 C684 1.355 . S
C683 C685 1.415 . S
C684 C683 1.355 . S
C684 C686 1.419 . S
C685 C680 1.425 1_655 S
C685 C682 1.409 1_655 S
C685 C683 1.415 . S
C686 H676 0.930 . S
C686 C684 1.419 . S
C686 C687 1.362 . S
C687 H677 0.930 1_655 S
C687 C680 1.409 1_655 S
C687 C686 1.362 . S
H688 C694 0.930 1_655 S
H689 C697 0.930 . S
H690 C698 0.930 . S
H691 C699 0.930 1_455 S
H692 C702 0.930 . S
H693 C703 0.930 . S
C694 H688 0.930 1_455 S
C694 C695 1.355 . S
C694 C696 1.415 1_455 S
C695 C694 1.355 . S
C695 C697 1.419 . S
C696 C694 1.415 1_655 S
C696 C701 1.425 1_655 S
C696 C703 1.409 . S
C697 H689 0.930 . S
C697 C695 1.419 . S
C697 C698 1.362 . S
C698 H690 0.930 . S
C698 C697 1.362 . S
C698 C701 1.409 . S
C699 H691 0.930 1_655 S
C699 C700 1.355 . S
C699 C701 1.415 1_655 S
C700 C699 1.355 . S
C700 C702 1.419 . S
C701 C696 1.425 1_455 S
C701 C698 1.409 . S
C701 C699 1.415 1_455 S
C702 H692 0.930 . S
C702 C700 1.419 . S
C702 C703 1.362 . S
C703 H693 0.930 . S
C703 C696 1.409 . S
C703 C702 1.362 . S
H704 C710 0.930 . S
H705 C713 0.930 . S
H706 C714 0.930 . S
H707 C715 0.930 . S
H708 C718 0.930 . S
H709 C719 0.930 . S
C710 H704 0.930 . S
C710 C711 1.355 . S
C710 C712 1.415 . S
C711 C710 1.355 . S
C711 C713 1.419 . S
C712 C710 1.415 . S
C712 C717 1.425 . S
C712 C719 1.409 . S
C713 H705 0.930 . S
C713 C711 1.419 . S
C713 C714 1.362 . S
C714 H706 0.930 . S
C714 C713 1.362 . S
C714 C717 1.409 . S
C715 H707 0.930 . S
C715 C716 1.355 . S
C715 C717 1.415 . S
C716 C715 1.355 . S
C716 C718 1.419 . S
C717 C712 1.425 . S
C717 C714 1.409 . S
C717 C715 1.415 . S
C718 H708 0.930 . S
C718 C716 1.419 . S
C718 C719 1.362 . S
C719 H709 0.930 . S
C719 C712 1.409 . S
C719 C718 1.362 . S
H720 C726 0.930 . S
H721 C729 0.930 . S
H722 C730 0.930 . S
H723 C731 0.930 . S
H724 C734 0.930 . S
H725 C735 0.930 . S
C726 H720 0.930 . S
C726 C727 1.355 . S
C726 C728 1.415 . S
C727 C726 1.355 . S
C727 C729 1.419 . S
C728 C726 1.415 . S
C728 C733 1.425 . S
C728 C735 1.409 . S
C729 H721 0.930 . S
C729 C727 1.419 . S
C729 C730 1.362 . S
C730 H722 0.930 . S
C730 C729 1.362 . S
C730 C733 1.409 . S
C731 H723 0.930 . S
C731 C732 1.355 . S
C731 C733 1.415 . S
C732 C731 1.355 . S
C732 C734 1.419 . S
C733 C728 1.425 . S
C733 C730 1.409 . S
C733 C731 1.415 . S
C734 H724 0.930 . S
C734 C732 1.419 . S
C734 C735 1.362 . S
C735 H725 0.930 . S
C735 C728 1.409 . S
C735 C734 1.362 . S
H736 C742 0.930 . S
H737 C745 0.930 . S
H738 C746 0.930 . S
H739 C747 0.930 . S
H740 C750 0.930 . S
H741 C751 0.930 . S
C742 H736 0.930 . S
C742 C743 1.355 . S
C742 C744 1.404 1_455 S
C743 C742 1.355 . S
C743 C745 1.419 . S
C744 C742 1.404 1_655 S
C744 C749 1.425 1_655 S
C744 C751 1.420 . S
C745 H737 0.930 . S
C745 C743 1.419 . S
C745 C746 1.362 . S
C746 H738 0.930 . S
C746 C745 1.362 . S
C746 C749 1.420 . S
C747 H739 0.930 . S
C747 C748 1.355 . S
C747 C749 1.404 1_655 S
C748 C747 1.355 . S
C748 C750 1.419 . S
C749 C744 1.425 1_455 S
C749 C746 1.420 . S
C749 C747 1.404 1_455 S
C750 H740 0.930 . S
C750 C748 1.419 . S
C750 C751 1.362 . S
C751 H741 0.930 . S
C751 C744 1.420 . S
C751 C750 1.362 . S
H752 C758 0.930 . S
H753 C761 0.930 . S
H754 C762 0.930 . S
H755 C763 0.930 . S
H756 C766 0.930 . S
H757 C767 0.930 . S
C758 H752 0.930 . S
C758 C759 1.355 . S
C758 C760 1.415 . S
C759 C758 1.355 . S
C759 C761 1.419 . S
C760 C758 1.415 . S
C760 C765 1.425 1_455 S
C760 C767 1.409 1_455 S
C761 H753 0.930 . S
C761 C759 1.419 . S
C761 C762 1.362 . S
C762 H754 0.930 . S
C762 C761 1.362 . S
C762 C765 1.409 1_455 S
C763 H755 0.930 . S
C763 C764 1.355 . S
C763 C765 1.415 . S
C764 C763 1.355 . S
C764 C766 1.419 . S
C765 C760 1.425 1_655 S
C765 C762 1.409 1_655 S
C765 C763 1.415 . S
C766 H756 0.930 . S
C766 C764 1.419 . S
C766 C767 1.362 . S
C767 H757 0.930 . S
C767 C760 1.409 1_655 S
C767 C766 1.362 . S
H768 C774 0.930 . S
H769 C777 0.930 . S
H770 C778 0.930 . S
H771 C779 0.930 . S
H772 C782 0.930 . S
H773 C783 0.930 . S
C774 H768 0.930 . S
C774 C775 1.382 1_545 S
C774 C776 1.415 . S
C775 C774 1.382 1_565 S
C775 C777 1.383 1_554 S
C776 C774 1.415 . S
C776 C781 1.425 1_544 S
C776 C783 1.409 . S
C777 H769 0.930 . S
C777 C775 1.383 1_556 S
C777 C778 1.362 . S
C778 H770 0.930 . S
C778 C777 1.362 . S
C778 C781 1.409 . S
C779 H771 0.930 . S
C779 C780 1.382 1_565 S
C779 C781 1.415 . S
C780 C779 1.382 1_545 S
C780 C782 1.383 1_556 S
C781 C776 1.425 1_566 S
C781 C778 1.409 . S
C781 C779 1.415 . S
C782 H772 0.930 . S
C782 C780 1.383 1_554 S
C782 C783 1.362 . S
C783 H773 0.930 . S
C783 C776 1.409 . S
C783 C782 1.362 . S
H784 C790 0.930 . S
H785 C793 0.930 . S
H786 C794 0.930 . S
H787 C795 0.930 . S
H788 C798 0.930 . S
H789 C799 0.930 . S
C790 H784 0.930 . S
C790 C791 1.355 . S
C790 C792 1.415 . S
C791 C790 1.355 . S
C791 C793 1.419 . S
C792 C790 1.415 . S
C792 C797 1.425 . S
C792 C799 1.409 . S
C793 H785 0.930 . S
C793 C791 1.419 . S
C793 C794 1.362 . S
C794 H786 0.930 . S
C794 C793 1.362 . S
C794 C797 1.409 . S
C795 H787 0.930 . S
C795 C796 1.355 . S
C795 C797 1.415 . S
C796 C795 1.355 . S
C796 C798 1.419 . S
C797 C792 1.425 . S
C797 C794 1.409 . S
C797 C795 1.415 . S
C798 H788 0.930 . S
C798 C796 1.419 . S
C798 C799 1.362 . S
C799 H789 0.930 . S
C799 C792 1.409 . S
C799 C798 1.362 . S
H800 C806 0.930 . S
H801 C809 0.930 . S
H802 C810 0.930 1_655 S
H803 C811 0.930 . S
H804 C814 0.930 . S
H805 C815 0.930 1_455 S
C806 H800 0.930 . S
C806 C807 1.355 1_565 S
C806 C808 1.415 . S
C807 C806 1.355 1_545 S
C807 C809 1.419 . S
C808 C806 1.415 . S
C808 C813 1.425 1_465 S
C808 C815 1.409 1_455 S
C809 H801 0.930 . S
C809 C807 1.419 . S
C809 C810 1.362 . S
C810 H802 0.930 1_455 S
C810 C809 1.362 . S
C810 C813 1.409 1_455 S
C811 H803 0.930 . S
C811 C812 1.355 1_545 S
C811 C813 1.415 . S
C812 C811 1.355 1_565 S
C812 C814 1.419 . S
C813 C808 1.425 1_645 S
C813 C810 1.409 1_655 S
C813 C811 1.415 . S
C814 H804 0.930 . S
C814 C812 1.419 . S
C814 C815 1.362 . S
C815 H805 0.930 1_655 S
C815 C808 1.409 1_655 S
C815 C814 1.362 . S
H816 C822 0.930 . S
H817 C825 0.930 . S
H818 C826 0.930 . S
H819 C827 0.930 . S
H820 C830 0.930 . S
H821 C831 0.930 . S
C822 H816 0.930 . S
C822 C823 1.355 . S
C822 C824 1.415 . S
C823 C822 1.355 . S
C823 C825 1.419 . S
C824 C822 1.415 . S
C824 C829 1.425 . S
C824 C831 1.409 . S
C825 H817 0.930 . S
C825 C823 1.419 . S
C825 C826 1.362 . S
C826 H818 0.930 . S
C826 C825 1.362 . S
C826 C829 1.409 . S
C827 H819 0.930 . S
C827 C828 1.355 . S
C827 C829 1.415 . S
C828 C827 1.355 . S
C828 C830 1.419 . S
C829 C824 1.425 . S
C829 C826 1.409 . S
C829 C827 1.415 . S
C830 H820 0.930 . S
C830 C828 1.419 . S
C830 C831 1.362 . S
C831 H821 0.930 . S
C831 C824 1.409 . S
C831 C830 1.362 . S
H832 C838 0.930 . S
H833 C841 0.930 . S
H834 C842 0.930 . S
H835 C843 0.930 . S
H836 C846 0.930 . S
H837 C847 0.930 . S
C838 H832 0.930 . S
C838 C839 1.355 . S
C838 C840 1.415 . S
C839 C838 1.355 . S
C839 C841 1.419 . S
C840 C838 1.415 . S
C840 C845 1.425 . S
C840 C847 1.409 . S
C841 H833 0.930 . S
C841 C839 1.419 . S
C841 C842 1.362 . S
C842 H834 0.930 . S
C842 C841 1.362 . S
C842 C845 1.409 . S
C843 H835 0.930 . S
C843 C844 1.355 . S
C843 C845 1.415 . S
C844 C843 1.355 . S
C844 C846 1.419 . S
C845 C840 1.425 . S
C845 C842 1.409 . S
C845 C843 1.415 . S
C846 H836 0.930 . S
C846 C844 1.419 . S
C846 C847 1.362 . S
C847 H837 0.930 . S
C847 C840 1.409 . S
C847 C846 1.362 . S
H848 C854 0.930 . S
H849 C857 0.930 . S
H850 C858 0.930 . S
H851 C859 0.930 . S
H852 C862 0.930 . S
H853 C863 0.930 . S
C854 H848 0.930 . S
C854 C855 1.355 . S
C854 C856 1.415 . S
C855 C854 1.355 . S
C855 C857 1.419 . S
C856 C854 1.415 . S
C856 C861 1.425 . S
C856 C863 1.409 . S
C857 H849 0.930 . S
C857 C855 1.419 . S
C857 C858 1.362 . S
C858 H850 0.930 . S
C858 C857 1.362 . S
C858 C861 1.409 . S
C859 H851 0.930 . S
C859 C860 1.355 . S
C859 C861 1.415 . S
C860 C859 1.355 . S
C860 C862 1.419 . S
C861 C856 1.425 . S
C861 C858 1.409 . S
C861 C859 1.415 . S
C862 H852 0.930 . S
C862 C860 1.419 . S
C862 C863 1.362 . S
C863 H853 0.930 . S
C863 C856 1.409 . S
C863 C862 1.362 . S
H864 C870 0.930 . S
H865 C873 0.930 . S
H866 C874 0.930 . S
H867 C875 0.930 . S
H868 C878 0.930 . S
H869 C879 0.930 . S
C870 H864 0.930 . S
C870 C871 1.355 . S
C870 C872 1.415 . S
C871 C870 1.355 . S
C871 C873 1.419 . S
C872 C870 1.415 . S
C872 C877 1.425 1_455 S
C872 C879 1.409 1_455 S
C873 H865 0.930 . S
C873 C871 1.419 . S
C873 C874 1.362 . S
C874 H866 0.930 . S
C874 C873 1.362 . S
C874 C877 1.409 1_455 S
C875 H867 0.930 . S
C875 C876 1.355 . S
C875 C877 1.415 . S
C876 C875 1.355 . S
C876 C878 1.419 . S
C877 C872 1.425 1_655 S
C877 C874 1.409 1_655 S
C877 C875 1.415 . S
C878 H868 0.930 . S
C878 C876 1.419 . S
C878 C879 1.362 . S
C879 H869 0.930 . S
C879 C872 1.409 1_655 S
C879 C878 1.362 . S
H880 C886 0.930 . S
H881 C889 0.930 . S
H882 C890 0.930 . S
H883 C891 0.930 . S
H884 C894 0.930 . S
H885 C895 0.930 . S
C886 H880 0.930 . S
C886 C887 1.355 1_556 S
C886 C888 1.415 . S
C887 C886 1.355 1_554 S
C887 C889 1.419 . S
C888 C886 1.415 . S
C888 C893 1.425 1_556 S
C888 C895 1.409 . S
C889 H881 0.930 . S
C889 C887 1.419 . S
C889 C890 1.362 . S
C890 H882 0.930 . S
C890 C889 1.362 . S
C890 C893 1.409 . S
C891 H883 0.930 . S
C891 C892 1.355 1_554 S
C891 C893 1.415 . S
C892 C891 1.355 1_556 S
C892 C894 1.419 . S
C893 C888 1.425 1_554 S
C893 C890 1.409 . S
C893 C891 1.415 . S
C894 H884 0.930 . S
C894 C892 1.419 . S
C894 C895 1.362 . S
C895 H885 0.930 . S
C895 C888 1.409 . S
C895 C894 1.362 . S
H896 C902 0.930 . S
H897 C905 0.930 . S
H898 C906 0.930 . S
H899 C907 0.930 . S
H900 C910 0.930 . S
H901 C911 0.930 . S
C902 H896 0.930 . S
C902 C903 1.355 . S
C902 C904 1.415 . S
C903 C902 1.355 . S
C903 C905 1.419 . S
C904 C902 1.415 . S
C904 C909 1.425 . S
C904 C911 1.409 . S
C905 H897 0.930 . S
C905 C903 1.419 . S
C905 C906 1.362 . S
C906 H898 0.930 . S
C906 C905 1.362 . S
C906 C909 1.409 . S
C907 H899 0.930 . S
C907 C908 1.355 . S
C907 C909 1.415 . S
C908 C907 1.355 . S
C908 C910 1.419 . S
C909 C904 1.425 . S
C909 C906 1.409 . S
C909 C907 1.415 . S
C910 H900 0.930 . S
C910 C908 1.419 . S
C910 C911 1.362 . S
C911 H901 0.930 . S
C911 C904 1.409 . S
C911 C910 1.362 . S
H912 C918 0.930 . S
H913 C921 0.930 . S
H914 C922 0.930 . S
H915 C923 0.930 . S
H916 C926 0.930 . S
H917 C927 0.930 . S
C918 H912 0.930 . S
C918 C919 1.355 . S
C918 C920 1.415 . S
C919 C918 1.355 . S
C919 C921 1.419 . S
C920 C918 1.415 . S
C920 C925 1.425 . S
C920 C927 1.409 . S
C921 H913 0.930 . S
C921 C919 1.419 . S
C921 C922 1.362 . S
C922 H914 0.930 . S
C922 C921 1.362 . S
C922 C925 1.409 . S
C923 H915 0.930 . S
C923 C924 1.355 . S
C923 C925 1.415 . S
C924 C923 1.355 . S
C924 C926 1.419 . S
C925 C920 1.425 . S
C925 C922 1.409 . S
C925 C923 1.415 . S
C926 H916 0.930 . S
C926 C924 1.419 . S
C926 C927 1.362 . S
C927 H917 0.930 . S
C927 C920 1.409 . S
C927 C926 1.362 . S
H928 C934 0.930 . S
H929 C937 0.930 . S
H930 C938 0.930 . S
H931 C939 0.930 . S
H932 C942 0.930 . S
H933 C943 0.930 . S
C934 H928 0.930 . S
C934 C935 1.355 . S
C934 C936 1.415 . S
C935 C934 1.355 . S
C935 C937 1.419 . S
C936 C934 1.415 . S
C936 C941 1.425 . S
C936 C943 1.409 . S
C937 H929 0.930 . S
C937 C935 1.419 . S
C937 C938 1.362 . S
C938 H930 0.930 . S
C938 C937 1.362 . S
C938 C941 1.409 . S
C939 H931 0.930 . S
C939 C940 1.355 . S
C939 C941 1.415 . S
C940 C939 1.355 . S
C940 C942 1.419 . S
C941 C936 1.425 . S
C941 C938 1.409 . S
C941 C939 1.415 . S
C942 H932 0.930 . S
C942 C940 1.419 . S
C942 C943 1.362 . S
C943 H933 0.930 . S
C943 C936 1.409 . S
C943 C942 1.362 . S
H944 C950 0.930 . S
H945 C953 0.930 . S
H946 C954 0.930 . S
H947 C955 0.930 . S
H948 C958 0.930 . S
H949 C959 0.930 . S
C950 H944 0.930 . S
C950 C951 1.355 . S
C950 C952 1.415 . S
C951 C950 1.355 . S
C951 C953 1.419 . S
C952 C950 1.415 . S
C952 C957 1.425 . S
C952 C959 1.409 . S
C953 H945 0.930 . S
C953 C951 1.419 . S
C953 C954 1.362 . S
C954 H946 0.930 . S
C954 C953 1.362 . S
C954 C957 1.409 . S
C955 H947 0.930 . S
C955 C956 1.355 . S
C955 C957 1.415 . S
C956 C955 1.355 . S
C956 C958 1.419 . S
C957 C952 1.425 . S
C957 C954 1.409 . S
C957 C955 1.415 . S
C958 H948 0.930 . S
C958 C956 1.419 . S
C958 C959 1.362 . S
C959 H949 0.930 . S
C959 C952 1.409 . S
C959 C958 1.362 . S
H960 C966 0.930 . S
H961 C969 0.930 . S
H962 C970 0.930 . S
H963 C971 0.930 . S
H964 C974 0.930 . S
H965 C975 0.930 . S
C966 H960 0.930 . S
C966 C967 1.355 . S
C966 C968 1.415 . S
C967 C966 1.355 . S
C967 C969 1.419 . S
C968 C966 1.415 . S
C968 C973 1.425 . S
C968 C975 1.409 . S
C969 H961 0.930 . S
C969 C967 1.419 . S
C969 C970 1.362 . S
C970 H962 0.930 . S
C970 C969 1.362 . S
C970 C973 1.409 . S
C971 H963 0.930 . S
C971 C972 1.355 . S
C971 C973 1.415 . S
C972 C971 1.355 . S
C972 C974 1.419 . S
C973 C968 1.425 . S
C973 C970 1.409 . S
C973 C971 1.415 . S
C974 H964 0.930 . S
C974 C972 1.419 . S
C974 C975 1.362 . S
C975 H965 0.930 . S
C975 C968 1.409 . S
C975 C974 1.362 . S
H976 C982 0.930 . S
H977 C985 0.930 . S
H978 C986 0.930 . S
H979 C987 0.930 . S
H980 C990 0.930 . S
H981 C991 0.930 . S
C982 H976 0.930 . S
C982 C983 1.355 . S
C982 C984 1.415 . S
C983 C982 1.355 . S
C983 C985 1.419 . S
C984 C982 1.415 . S
C984 C989 1.425 . S
C984 C991 1.409 . S
C985 H977 0.930 . S
C985 C983 1.419 . S
C985 C986 1.362 . S
C986 H978 0.930 . S
C986 C985 1.362 . S
C986 C989 1.409 . S
C987 H979 0.930 . S
C987 C988 1.355 . S
C987 C989 1.415 . S
C988 C987 1.355 . S
C988 C990 1.419 . S
C989 C984 1.425 . S
C989 C986 1.409 . S
C989 C987 1.415 . S
C990 H980 0.930 . S
C990 C988 1.419 . S
C990 C991 1.362 . S
C991 H981 0.930 . S
C991 C984 1.409 . S
C991 C990 1.362 . S
H992 C998 0.930 . S
H993 C1001 0.930 . S
H994 C1002 0.930 . S
H995 C1003 0.930 . S
H996 C1006 0.930 . S
H997 C1007 0.930 . S
C998 H992 0.930 . S
C998 C999 1.355 . S
C998 C1000 1.415 . S
C999 C998 1.355 . S
C999 C1001 1.419 . S
C1000 C998 1.415 . S
C1000 C1005 1.425 . S
C1000 C1007 1.409 . S
C1001 H993 0.930 . S
C1001 C999 1.419 . S
C1001 C1002 1.362 . S
C1002 H994 0.930 . S
C1002 C1001 1.362 . S
C1002 C1005 1.409 . S
C1003 H995 0.930 . S
C1003 C1004 1.355 . S
C1003 C1005 1.415 . S
C1004 C1003 1.355 . S
C1004 C1006 1.419 . S
C1005 C1000 1.425 . S
C1005 C1002 1.409 . S
C1005 C1003 1.415 . S
C1006 H996 0.930 . S
C1006 C1004 1.419 . S
C1006 C1007 1.362 . S
C1007 H997 0.930 . S
C1007 C1000 1.409 . S
C1007 C1006 1.362 . S
H1008 C1014 0.930 . S
H1009 C1017 0.930 . S
H1010 C1018 0.930 . S
H1011 C1019 0.930 . S
H1012 C1022 0.930 . S
H1013 C1023 0.930 . S
C1014 H1008 0.930 . S
C1014 C1015 1.355 . S
C1014 C1016 1.415 . S
C1015 C1014 1.355 . S
C1015 C1017 1.419 . S
C1016 C1014 1.415 . S
C1016 C1021 1.425 . S
C1016 C1023 1.409 . S
C1017 H1009 0.930 . S
C1017 C1015 1.419 . S
C1017 C1018 1.362 . S
C1018 H1010 0.930 . S
C1018 C1017 1.362 . S
C1018 C1021 1.409 . S
C1019 H1011 0.930 . S
C1019 C1020 1.355 . S
C1019 C1021 1.415 . S
C1020 C1019 1.355 . S
C1020 C1022 1.419 . S
C1021 C1016 1.425 . S
C1021 C1018 1.409 . S
C1021 C1019 1.415 . S
C1022 H1012 0.930 . S
C1022 C1020 1.419 . S
C1022 C1023 1.362 . S
C1023 H1013 0.930 . S
C1023 C1016 1.409 . S
C1023 C1022 1.362 . S
H1024 C1030 0.930 . S
H1025 C1033 0.930 . S
H1026 C1034 0.930 . S
H1027 C1035 0.930 . S
H1028 C1038 0.930 . S
H1029 C1039 0.930 . S
C1030 H1024 0.930 . S
C1030 C1031 1.355 . S
C1030 C1032 1.415 . S
C1031 C1030 1.355 . S
C1031 C1033 1.419 . S
C1032 C1030 1.415 . S
C1032 C1037 1.425 . S
C1032 C1039 1.409 . S
C1033 H1025 0.930 . S
C1033 C1031 1.419 . S
C1033 C1034 1.362 . S
C1034 H1026 0.930 . S
C1034 C1033 1.362 . S
C1034 C1037 1.409 . S
C1035 H1027 0.930 . S
C1035 C1036 1.355 . S
C1035 C1037 1.415 . S
C1036 C1035 1.355 . S
C1036 C1038 1.419 . S
C1037 C1032 1.425 . S
C1037 C1034 1.409 . S
C1037 C1035 1.415 . S
C1038 H1028 0.930 . S
C1038 C1036 1.419 . S
C1038 C1039 1.362 . S
C1039 H1029 0.930 . S
C1039 C1032 1.409 . S
C1039 C1038 1.362 . S
H1040 C1046 0.930 . S
H1041 C1049 0.930 . S
H1042 C1050 0.930 . S
H1043 C1051 0.930 . S
H1044 C1054 0.930 . S
H1045 C1055 0.930 . S
C1046 H1040 0.930 . S
C1046 C1047 1.355 . S
C1046 C1048 1.415 . S
C1047 C1046 1.355 . S
C1047 C1049 1.419 . S
C1048 C1046 1.415 . S
C1048 C1053 1.425 . S
C1048 C1055 1.409 . S
C1049 H1041 0.930 . S
C1049 C1047 1.419 . S
C1049 C1050 1.362 . S
C1050 H1042 0.930 . S
C1050 C1049 1.362 . S
C1050 C1053 1.409 . S
C1051 H1043 0.930 . S
C1051 C1052 1.355 . S
C1051 C1053 1.415 . S
C1052 C1051 1.355 . S
C1052 C1054 1.419 . S
C1053 C1048 1.425 . S
C1053 C1050 1.409 . S
C1053 C1051 1.415 . S
C1054 H1044 0.930 . S
C1054 C1052 1.419 . S
C1054 C1055 1.362 . S
C1055 H1045 0.930 . S
C1055 C1048 1.409 . S
C1055 C1054 1.362 . S
H1056 C1062 0.930 . S
H1057 C1065 0.930 . S
H1058 C1066 0.930 . S
H1059 C1067 0.930 . S
H1060 C1070 0.930 . S
H1061 C1071 0.930 . S
C1062 H1056 0.930 . S
C1062 C1063 1.355 . S
C1062 C1064 1.415 . S
C1063 C1062 1.355 . S
C1063 C1065 1.419 . S
C1064 C1062 1.415 . S
C1064 C1069 1.425 . S
C1064 C1071 1.409 . S
C1065 H1057 0.930 . S
C1065 C1063 1.419 . S
C1065 C1066 1.362 . S
C1066 H1058 0.930 . S
C1066 C1065 1.362 . S
C1066 C1069 1.409 . S
C1067 H1059 0.930 . S
C1067 C1068 1.355 . S
C1067 C1069 1.415 . S
C1068 C1067 1.355 . S
C1068 C1070 1.419 . S
C1069 C1064 1.425 . S
C1069 C1066 1.409 . S
C1069 C1067 1.415 . S
C1070 H1060 0.930 . S
C1070 C1068 1.419 . S
C1070 C1071 1.362 . S
C1071 H1061 0.930 . S
C1071 C1064 1.409 . S
C1071 C1070 1.362 . S
H1072 C1078 0.930 . S
H1073 C1081 0.930 . S
H1074 C1082 0.930 . S
H1075 C1083 0.930 . S
H1076 C1086 0.930 . S
H1077 C1087 0.930 . S
C1078 H1072 0.930 . S
C1078 C1079 1.355 . S
C1078 C1080 1.415 . S
C1079 C1078 1.355 . S
C1079 C1081 1.419 . S
C1080 C1078 1.415 . S
C1080 C1085 1.425 . S
C1080 C1087 1.409 . S
C1081 H1073 0.930 . S
C1081 C1079 1.419 . S
C1081 C1082 1.362 . S
C1082 H1074 0.930 . S
C1082 C1081 1.362 . S
C1082 C1085 1.409 . S
C1083 H1075 0.930 . S
C1083 C1084 1.355 . S
C1083 C1085 1.415 . S
C1084 C1083 1.355 . S
C1084 C1086 1.419 . S
C1085 C1080 1.425 . S
C1085 C1082 1.409 . S
C1085 C1083 1.415 . S
C1086 H1076 0.930 . S
C1086 C1084 1.419 . S
C1086 C1087 1.362 . S
C1087 H1077 0.930 . S
C1087 C1080 1.409 . S
C1087 C1086 1.362 . S
H1088 C1094 0.930 . S
H1089 C1097 0.930 . S
H1090 C1098 0.930 . S
H1091 C1099 0.930 . S
H1092 C1102 0.930 . S
H1093 C1103 0.930 . S
C1094 H1088 0.930 . S
C1094 C1095 1.355 . S
C1094 C1096 1.415 . S
C1095 C1094 1.355 . S
C1095 C1097 1.419 . S
C1096 C1094 1.415 . S
C1096 C1101 1.425 . S
C1096 C1103 1.409 . S
C1097 H1089 0.930 . S
C1097 C1095 1.419 . S
C1097 C1098 1.362 . S
C1098 H1090 0.930 . S
C1098 C1097 1.362 . S
C1098 C1101 1.409 . S
C1099 H1091 0.930 . S
C1099 C1100 1.355 . S
C1099 C1101 1.415 . S
C1100 C1099 1.355 . S
C1100 C1102 1.419 . S
C1101 C1096 1.425 . S
C1101 C1098 1.409 . S
C1101 C1099 1.415 . S
C1102 H1092 0.930 . S
C1102 C1100 1.419 . S
C1102 C1103 1.362 . S
C1103 H1093 0.930 . S
C1103 C1096 1.409 . S
C1103 C1102 1.362 . S
H1104 C1110 0.930 . S
H1105 C1113 0.930 . S
H1106 C1114 0.930 . S
H1107 C1115 0.930 . S
H1108 C1118 0.930 . S
H1109 C1119 0.930 . S
C1110 H1104 0.930 . S
C1110 C1111 1.355 . S
C1110 C1112 1.415 . S
C1111 C1110 1.355 . S
C1111 C1113 1.419 . S
C1112 C1110 1.415 . S
C1112 C1117 1.425 . S
C1112 C1119 1.409 . S
C1113 H1105 0.930 . S
C1113 C1111 1.419 . S
C1113 C1114 1.362 . S
C1114 H1106 0.930 . S
C1114 C1113 1.362 . S
C1114 C1117 1.409 . S
C1115 H1107 0.930 . S
C1115 C1116 1.355 . S
C1115 C1117 1.415 . S
C1116 C1115 1.355 . S
C1116 C1118 1.419 . S
C1117 C1112 1.425 . S
C1117 C1114 1.409 . S
C1117 C1115 1.415 . S
C1118 H1108 0.930 . S
C1118 C1116 1.419 . S
C1118 C1119 1.362 . S
C1119 H1109 0.930 . S
C1119 C1112 1.409 . S
C1119 C1118 1.362 . S
H1120 C1126 0.930 . S
H1121 C1129 0.930 . S
H1122 C1130 0.930 . S
H1123 C1131 0.930 . S
H1124 C1134 0.930 . S
H1125 C1135 0.930 . S
C1126 H1120 0.930 . S
C1126 C1127 1.355 . S
C1126 C1128 1.415 . S
C1127 C1126 1.355 . S
C1127 C1129 1.419 . S
C1128 C1126 1.415 . S
C1128 C1133 1.425 . S
C1128 C1135 1.409 . S
C1129 H1121 0.930 . S
C1129 C1127 1.419 . S
C1129 C1130 1.362 . S
C1130 H1122 0.930 . S
C1130 C1129 1.362 . S
C1130 C1133 1.409 . S
C1131 H1123 0.930 . S
C1131 C1132 1.355 . S
C1131 C1133 1.415 . S
C1132 C1131 1.355 . S
C1132 C1134 1.419 . S
C1133 C1128 1.425 . S
C1133 C1130 1.409 . S
C1133 C1131 1.415 . S
C1134 H1124 0.930 . S
C1134 C1132 1.419 . S
C1134 C1135 1.362 . S
C1135 H1125 0.930 . S
C1135 C1128 1.409 . S
C1135 C1134 1.362 . S
H1136 C1142 0.930 . S
H1137 C1145 0.930 . S
H1138 C1146 0.930 . S
H1139 C1147 0.930 . S
H1140 C1150 0.930 . S
H1141 C1151 0.930 . S
C1142 H1136 0.930 . S
C1142 C1143 1.355 . S
C1142 C1144 1.415 . S
C1143 C1142 1.355 . S
C1143 C1145 1.419 . S
C1144 C1142 1.415 . S
C1144 C1149 1.425 . S
C1144 C1151 1.409 . S
C1145 H1137 0.930 . S
C1145 C1143 1.419 . S
C1145 C1146 1.362 . S
C1146 H1138 0.930 . S
C1146 C1145 1.362 . S
C1146 C1149 1.409 . S
C1147 H1139 0.930 . S
C1147 C1148 1.355 . S
C1147 C1149 1.415 . S
C1148 C1147 1.355 . S
C1148 C1150 1.419 . S
C1149 C1144 1.425 . S
C1149 C1146 1.409 . S
C1149 C1147 1.415 . S
C1150 H1140 0.930 . S
C1150 C1148 1.419 . S
C1150 C1151 1.362 . S
C1151 H1141 0.930 . S
C1151 C1144 1.409 . S
C1151 C1150 1.362 . S
H1152 C1158 0.930 . S
H1153 C1161 0.930 . S
H1154 C1162 0.945 . S
H1155 C1163 0.930 . S
H1156 C1166 0.930 . S
H1157 C1167 0.930 . S
C1158 H1152 0.930 . S
C1158 C1159 1.361 . S
C1158 C1160 1.415 . S
C1159 C1158 1.361 . S
C1159 C1161 1.417 1_556 S
C1160 C1158 1.415 . S
C1160 C1165 1.425 . S
C1160 C1167 1.409 . S
C1161 H1153 0.930 . S
C1161 C1159 1.417 1_554 S
C1161 C1162 1.362 1_554 S
C1162 H1154 0.945 . S
C1162 C1161 1.362 1_556 S
C1162 C1165 1.409 . S
C1163 H1155 0.930 . S
C1163 C1164 1.355 . S
C1163 C1165 1.415 . S
C1164 C1163 1.355 . S
C1164 C1166 1.419 . S
C1165 C1160 1.425 . S
C1165 C1162 1.409 . S
C1165 C1163 1.415 . S
C1166 H1156 0.930 . S
C1166 C1164 1.419 . S
C1166 C1167 1.362 . S
C1167 H1157 0.930 . S
C1167 C1160 1.409 . S
C1167 C1166 1.362 . S
H1168 C1174 0.930 . S
H1169 C1177 0.930 . S
H1170 C1178 0.930 . S
H1171 C1179 0.930 . S
H1172 C1182 0.930 . S
H1173 C1183 0.930 . S
C1174 H1168 0.930 . S
C1174 C1175 1.355 . S
C1174 C1176 1.415 . S
C1175 C1174 1.355 . S
C1175 C1177 1.419 . S
C1176 C1174 1.415 . S
C1176 C1181 1.425 . S
C1176 C1183 1.409 . S
C1177 H1169 0.930 . S
C1177 C1175 1.419 . S
C1177 C1178 1.362 . S
C1178 H1170 0.930 . S
C1178 C1177 1.362 . S
C1178 C1181 1.409 . S
C1179 H1171 0.930 . S
C1179 C1180 1.355 . S
C1179 C1181 1.415 . S
C1180 C1179 1.355 . S
C1180 C1182 1.419 . S
C1181 C1176 1.425 . S
C1181 C1178 1.409 . S
C1181 C1179 1.415 . S
C1182 H1172 0.930 . S
C1182 C1180 1.419 . S
C1182 C1183 1.362 . S
C1183 H1173 0.930 . S
C1183 C1176 1.409 . S
C1183 C1182 1.362 . S
H1184 C1190 0.930 . S
H1185 C1193 0.930 . S
H1186 C1194 0.930 . S
H1187 C1195 0.930 . S
H1188 C1198 0.930 . S
H1189 C1199 0.930 . S
C1190 H1184 0.930 . S
C1190 C1191 1.355 . S
C1190 C1192 1.415 . S
C1191 C1190 1.355 . S
C1191 C1193 1.419 . S
C1192 C1190 1.415 . S
C1192 C1197 1.425 . S
C1192 C1199 1.409 . S
C1193 H1185 0.930 . S
C1193 C1191 1.419 . S
C1193 C1194 1.362 . S
C1194 H1186 0.930 . S
C1194 C1193 1.362 . S
C1194 C1197 1.409 . S
C1195 H1187 0.930 . S
C1195 C1196 1.355 . S
C1195 C1197 1.415 . S
C1196 C1195 1.355 . S
C1196 C1198 1.419 . S
C1197 C1192 1.425 . S
C1197 C1194 1.409 . S
C1197 C1195 1.415 . S
C1198 H1188 0.930 . S
C1198 C1196 1.419 . S
C1198 C1199 1.362 . S
C1199 H1189 0.930 . S
C1199 C1192 1.409 . S
C1199 C1198 1.362 . S
H1200 C1206 0.930 . S
H1201 C1209 0.930 . S
H1202 C1210 0.930 . S
H1203 C1211 0.930 . S
H1204 C1214 0.930 . S
H1205 C1215 0.930 . S
C1206 H1200 0.930 . S
C1206 C1207 1.355 . S
C1206 C1208 1.415 . S
C1207 C1206 1.355 . S
C1207 C1209 1.419 . S
C1208 C1206 1.415 . S
C1208 C1213 1.425 . S
C1208 C1215 1.409 . S
C1209 H1201 0.930 . S
C1209 C1207 1.419 . S
C1209 C1210 1.362 . S
C1210 H1202 0.930 . S
C1210 C1209 1.362 . S
C1210 C1213 1.409 . S
C1211 H1203 0.930 . S
C1211 C1212 1.355 . S
C1211 C1213 1.415 . S
C1212 C1211 1.355 . S
C1212 C1214 1.419 . S
C1213 C1208 1.425 . S
C1213 C1210 1.409 . S
C1213 C1211 1.415 . S
C1214 H1204 0.930 . S
C1214 C1212 1.419 . S
C1214 C1215 1.362 . S
C1215 H1205 0.930 . S
C1215 C1208 1.409 . S
C1215 C1214 1.362 . S
H1216 C1222 0.930 . S
H1217 C1225 0.930 . S
H1218 C1226 0.930 . S
H1219 C1227 0.930 . S
H1220 C1230 0.930 . S
H1221 C1231 0.930 . S
C1222 H1216 0.930 . S
C1222 C1223 1.355 . S
C1222 C1224 1.415 . S
C1223 C1222 1.355 . S
C1223 C1225 1.419 . S
C1224 C1222 1.415 . S
C1224 C1229 1.425 . S
C1224 C1231 1.409 . S
C1225 H1217 0.930 . S
C1225 C1223 1.419 . S
C1225 C1226 1.362 . S
C1226 H1218 0.930 . S
C1226 C1225 1.362 . S
C1226 C1229 1.409 . S
C1227 H1219 0.930 . S
C1227 C1228 1.385 . S
C1227 C1229 1.415 . S
C1228 C1227 1.385 . S
C1228 C1230 1.411 1_554 S
C1229 C1224 1.425 . S
C1229 C1226 1.409 . S
C1229 C1227 1.415 . S
C1230 H1220 0.930 . S
C1230 C1228 1.411 1_556 S
C1230 C1231 1.362 1_556 S
C1231 H1221 0.930 . S
C1231 C1224 1.409 . S
C1231 C1230 1.362 1_554 S
H1232 C1238 0.930 . S
H1233 C1241 0.930 . S
H1234 C1242 0.930 . S
H1235 C1243 0.930 . S
H1236 C1246 0.930 . S
H1237 C1247 0.930 . S
C1238 H1232 0.930 . S
C1238 C1239 1.355 . S
C1238 C1240 1.415 . S
C1239 C1238 1.355 . S
C1239 C1241 1.419 . S
C1240 C1238 1.415 . S
C1240 C1245 1.425 . S
C1240 C1247 1.409 . S
C1241 H1233 0.930 . S
C1241 C1239 1.419 . S
C1241 C1242 1.362 . S
C1242 H1234 0.930 . S
C1242 C1241 1.362 . S
C1242 C1245 1.409 . S
C1243 H1235 0.930 . S
C1243 C1244 1.355 . S
C1243 C1245 1.415 . S
C1244 C1243 1.355 . S
C1244 C1246 1.419 . S
C1245 C1240 1.425 . S
C1245 C1242 1.409 . S
C1245 C1243 1.415 . S
C1246 H1236 0.930 . S
C1246 C1244 1.419 . S
C1246 C1247 1.362 . S
C1247 H1237 0.930 . S
C1247 C1240 1.409 . S
C1247 C1246 1.362 . S
H1248 C1254 0.930 . S
H1249 C1257 0.930 . S
H1250 C1258 0.930 . S
H1251 C1259 0.930 . S
H1252 C1262 0.930 . S
H1253 C1263 0.930 . S
C1254 H1248 0.930 . S
C1254 C1255 1.355 . S
C1254 C1256 1.415 . S
C1255 C1254 1.355 . S
C1255 C1257 1.419 . S
C1256 C1254 1.415 . S
C1256 C1261 1.425 . S
C1256 C1263 1.409 . S
C1257 H1249 0.930 . S
C1257 C1255 1.419 . S
C1257 C1258 1.362 . S
C1258 H1250 0.930 . S
C1258 C1257 1.362 . S
C1258 C1261 1.409 . S
C1259 H1251 0.930 . S
C1259 C1260 1.355 . S
C1259 C1261 1.415 . S
C1260 C1259 1.355 . S
C1260 C1262 1.419 . S
C1261 C1256 1.425 . S
C1261 C1258 1.409 . S
C1261 C1259 1.415 . S
C1262 H1252 0.930 . S
C1262 C1260 1.419 . S
C1262 C1263 1.362 . S
C1263 H1253 0.930 . S
C1263 C1256 1.409 . S
C1263 C1262 1.362 . S
H1264 C1270 0.930 . S
H1265 C1273 0.930 . S
H1266 C1274 0.930 . S
H1267 C1275 0.930 . S
H1268 C1278 0.930 . S
H1269 C1279 0.930 . S
C1270 H1264 0.930 . S
C1270 C1271 1.355 . S
C1270 C1272 1.415 . S
C1271 C1270 1.355 . S
C1271 C1273 1.419 . S
C1272 C1270 1.415 . S
C1272 C1277 1.425 . S
C1272 C1279 1.409 . S
C1273 H1265 0.930 . S
C1273 C1271 1.419 . S
C1273 C1274 1.362 . S
C1274 H1266 0.930 . S
C1274 C1273 1.362 . S
C1274 C1277 1.409 . S
C1275 H1267 0.930 . S
C1275 C1276 1.355 . S
C1275 C1277 1.415 . S
C1276 C1275 1.355 . S
C1276 C1278 1.419 . S
C1277 C1272 1.425 . S
C1277 C1274 1.409 . S
C1277 C1275 1.415 . S
C1278 H1268 0.930 . S
C1278 C1276 1.419 . S
C1278 C1279 1.362 . S
C1279 H1269 0.930 . S
C1279 C1272 1.409 . S
C1279 C1278 1.362 . S
H1280 C1286 0.930 . S
H1281 C1289 0.930 . S
H1282 C1290 0.930 . S
H1283 C1291 0.930 . S
H1284 C1294 0.930 . S
H1285 C1295 0.930 . S
C1286 H1280 0.930 . S
C1286 C1287 1.355 . S
C1286 C1288 1.415 . S
C1287 C1286 1.355 . S
C1287 C1289 1.419 . S
C1288 C1286 1.415 . S
C1288 C1293 1.425 . S
C1288 C1295 1.409 . S
C1289 H1281 0.930 . S
C1289 C1287 1.419 . S
C1289 C1290 1.362 . S
C1290 H1282 0.930 . S
C1290 C1289 1.362 . S
C1290 C1293 1.409 . S
C1291 H1283 0.930 . S
C1291 C1292 1.355 . S
C1291 C1293 1.415 . S
C1292 C1291 1.355 . S
C1292 C1294 1.419 . S
C1293 C1288 1.425 . S
C1293 C1290 1.409 . S
C1293 C1291 1.415 . S
C1294 H1284 0.930 . S
C1294 C1292 1.419 . S
C1294 C1295 1.362 . S
C1295 H1285 0.930 . S
C1295 C1288 1.409 . S
C1295 C1294 1.362 . S
H1296 C1302 0.930 . S
H1297 C1305 0.930 . S
H1298 C1306 0.930 . S
H1299 C1307 0.930 1_545 S
H1300 C1310 0.930 . S
H1301 C1311 0.930 . S
C1302 H1296 0.930 . S
C1302 C1303 1.355 . S
C1302 C1304 1.415 . S
C1303 C1302 1.355 . S
C1303 C1305 1.419 . S
C1304 C1302 1.415 . S
C1304 C1309 1.425 . S
C1304 C1311 1.409 . S
C1305 H1297 0.930 . S
C1305 C1303 1.419 . S
C1305 C1306 1.362 . S
C1306 H1298 0.930 . S
C1306 C1305 1.362 . S
C1306 C1309 1.409 . S
C1307 H1299 0.930 1_565 S
C1307 C1308 1.355 . S
C1307 C1309 1.415 . S
C1308 C1307 1.355 . S
C1308 C1310 1.419 . S
C1309 C1304 1.425 . S
C1309 C1306 1.409 . S
C1309 C1307 1.415 . S
C1310 H1300 0.930 . S
C1310 C1308 1.419 . S
C1310 C1311 1.362 . S
C1311 H1301 0.930 . S
C1311 C1304 1.409 . S
C1311 C1310 1.362 . S
H1312 C1318 0.930 . S
H1313 C1321 0.930 . S
H1314 C1322 0.930 . S
H1315 C1323 0.930 . S
H1316 C1326 0.930 . S
H1317 C1327 0.930 . S
C1318 H1312 0.930 . S
C1318 C1319 1.355 . S
C1318 C1320 1.415 . S
C1319 C1318 1.355 . S
C1319 C1321 1.419 . S
C1320 C1318 1.415 . S
C1320 C1325 1.425 . S
C1320 C1327 1.409 . S
C1321 H1313 0.930 . S
C1321 C1319 1.419 . S
C1321 C1322 1.362 . S
C1322 H1314 0.930 . S
C1322 C1321 1.362 . S
C1322 C1325 1.409 . S
C1323 H1315 0.930 . S
C1323 C1324 1.358 . S
C1323 C1325 1.415 . S
C1324 C1323 1.358 . S
C1324 C1326 1.418 1_556 S
C1325 C1320 1.425 . S
C1325 C1322 1.409 . S
C1325 C1323 1.415 . S
C1326 H1316 0.930 . S
C1326 C1324 1.418 1_554 S
C1326 C1327 1.362 1_554 S
C1327 H1317 0.930 . S
C1327 C1320 1.409 . S
C1327 C1326 1.362 1_556 S
H1328 C1334 0.930 1_565 S
H1329 C1337 0.930 . S
H1330 C1338 0.930 . S
H1331 C1339 0.930 . S
H1332 C1342 0.930 . S
H1333 C1343 0.930 . S
C1334 H1328 0.930 1_545 S
C1334 C1335 1.355 . S
C1334 C1336 1.415 . S
C1335 C1334 1.355 . S
C1335 C1337 1.419 . S
C1336 C1334 1.415 . S
C1336 C1341 1.425 . S
C1336 C1343 1.409 . S
C1337 H1329 0.930 . S
C1337 C1335 1.419 . S
C1337 C1338 1.362 . S
C1338 H1330 0.930 . S
C1338 C1337 1.362 . S
C1338 C1341 1.409 . S
C1339 H1331 0.930 . S
C1339 C1340 1.355 . S
C1339 C1341 1.415 . S
C1340 C1339 1.355 . S
C1340 C1342 1.419 . S
C1341 C1336 1.425 . S
C1341 C1338 1.409 . S
C1341 C1339 1.415 . S
C1342 H1332 0.930 . S
C1342 C1340 1.419 . S
C1342 C1343 1.362 . S
C1343 H1333 0.930 . S
C1343 C1336 1.409 . S
C1343 C1342 1.362 . S
H1344 C1350 0.930 . S
H1345 C1353 0.930 . S
H1346 C1354 0.930 . S
H1347 C1355 0.930 . S
H1348 C1358 0.930 . S
H1349 C1359 0.930 . S
C1350 H1344 0.930 . S
C1350 C1351 1.355 . S
C1350 C1352 1.415 . S
C1351 C1350 1.355 . S
C1351 C1353 1.419 . S
C1352 C1350 1.415 . S
C1352 C1357 1.425 . S
C1352 C1359 1.409 . S
C1353 H1345 0.930 . S
C1353 C1351 1.419 . S
C1353 C1354 1.362 . S
C1354 H1346 0.930 . S
C1354 C1353 1.362 . S
C1354 C1357 1.409 . S
C1355 H1347 0.930 . S
C1355 C1356 1.355 . S
C1355 C1357 1.415 . S
C1356 C1355 1.355 . S
C1356 C1358 1.419 . S
C1357 C1352 1.425 . S
C1357 C1354 1.409 . S
C1357 C1355 1.415 . S
C1358 H1348 0.930 . S
C1358 C1356 1.419 . S
C1358 C1359 1.362 . S
C1359 H1349 0.930 . S
C1359 C1352 1.409 . S
C1359 C1358 1.362 . S
H1360 C1366 0.930 . S
H1361 C1369 0.930 . S
H1362 C1370 0.930 . S
H1363 C1371 0.930 . S
H1364 C1374 0.930 1_565 S
H1365 C1375 0.930 . S
C1366 H1360 0.930 . S
C1366 C1367 1.355 . S
C1366 C1368 1.415 . S
C1367 C1366 1.355 . S
C1367 C1369 1.419 . S
C1368 C1366 1.415 . S
C1368 C1373 1.425 . S
C1368 C1375 1.409 . S
C1369 H1361 0.930 . S
C1369 C1367 1.419 . S
C1369 C1370 1.362 . S
C1370 H1362 0.930 . S
C1370 C1369 1.362 . S
C1370 C1373 1.409 . S
C1371 H1363 0.930 . S
C1371 C1372 1.355 . S
C1371 C1373 1.415 . S
C1372 C1371 1.355 . S
C1372 C1374 1.419 . S
C1373 C1368 1.425 . S
C1373 C1370 1.409 . S
C1373 C1371 1.415 . S
C1374 H1364 0.930 1_545 S
C1374 C1372 1.419 . S
C1374 C1375 1.362 . S
C1375 H1365 0.930 . S
C1375 C1368 1.409 . S
C1375 C1374 1.362 . S
H1376 C1382 0.930 . S
H1377 C1385 0.930 . S
H1378 C1386 0.930 . S
H1379 C1387 0.930 . S
H1380 C1390 0.930 . S
H1381 C1391 0.945 . S
C1382 H1376 0.930 . S
C1382 C1383 1.355 . S
C1382 C1384 1.415 . S
C1383 C1382 1.355 . S
C1383 C1385 1.419 . S
C1384 C1382 1.415 . S
C1384 C1389 1.425 . S
C1384 C1391 1.409 . S
C1385 H1377 0.930 . S
C1385 C1383 1.419 . S
C1385 C1386 1.362 . S
C1386 H1378 0.930 . S
C1386 C1385 1.362 . S
C1386 C1389 1.409 . S
C1387 H1379 0.930 . S
C1387 C1388 1.361 . S
C1387 C1389 1.415 . S
C1388 C1387 1.361 . S
C1388 C1390 1.417 1_554 S
C1389 C1384 1.425 . S
C1389 C1386 1.409 . S
C1389 C1387 1.415 . S
C1390 H1380 0.930 . S
C1390 C1388 1.417 1_556 S
C1390 C1391 1.362 1_556 S
C1391 H1381 0.945 . S
C1391 C1384 1.409 . S
C1391 C1390 1.362 1_554 S
H1392 C1398 0.930 . S
H1393 C1401 0.930 . S
H1394 C1402 0.953 . S
H1395 C1403 0.930 1_545 S
H1396 C1406 0.930 . S
H1397 C1407 0.930 . S
C1398 H1392 0.930 . S
C1398 C1399 1.355 . S
C1398 C1400 1.415 . S
C1399 C1398 1.355 . S
C1399 C1401 1.419 . S
C1400 C1398 1.415 . S
C1400 C1405 1.425 . S
C1400 C1407 1.409 . S
C1401 H1393 0.930 . S
C1401 C1399 1.419 . S
C1401 C1402 1.362 . S
C1402 H1394 0.953 . S
C1402 C1401 1.362 . S
C1402 C1405 1.409 . S
C1403 H1395 0.930 1_565 S
C1403 C1404 1.355 . S
C1403 C1405 1.415 . S
C1404 C1403 1.355 . S
C1404 C1406 1.419 . S
C1405 C1400 1.425 . S
C1405 C1402 1.409 . S
C1405 C1403 1.415 . S
C1406 H1396 0.930 . S
C1406 C1404 1.419 . S
C1406 C1407 1.362 . S
C1407 H1397 0.930 . S
C1407 C1400 1.409 . S
C1407 C1406 1.362 . S
C647 C10 2.849 . S
C652 C410 2.862 . S
C663 C50 2.851 . S
C668 C450 2.850 . S
C679 C90 2.872 . S
C684 C330 2.878 . S
C695 C370 2.871 . S
C700 C130 2.878 . S
C711 C179 2.858 . S
C716 C579 2.849 . S
C727 C619 2.877 . S
C732 C219 2.876 . S
C743 C499 2.863 . S
C748 C259 2.850 . S
C759 C299 2.875 . S
C764 C539 2.861 . S
C775 C16 1.186 . S
C780 C167 1.186 . S
C791 C56 1.013 . S
C796 C527 1.013 . S
C807 C96 1.160 . S
C812 C247 1.160 . S
C823 C136 0.978 . S
C828 C607 0.978 . S
C839 C207 1.031 . S
C844 C376 1.031 . S
C855 C456 1.163 . S
C860 C287 1.163 . S
C871 C487 0.997 . S
C876 C336 0.997 . S
C887 C416 1.146 . S
C892 C567 1.146 . S
C903 C7 1.312 . S
C908 C290 1.428 . S
C919 C47 1.257 . S
C924 C490 1.418 . S
C935 C87 1.287 . S
C940 C210 1.429 . S
C951 C127 1.216 . S
C956 C570 1.352 . S
C967 C139 1.354 . S
C972 C176 1.221 . S
C983 C216 1.293 . S
C988 C339 1.430 . S
C999 C256 1.309 . S
C1004 C59 1.430 . S
C1015 C419 1.394 . S
C1020 C296 1.212 . S
C1031 C327 1.167 . S
C1036 C610 1.353 1_565 S
C1047 C170 1.363 . S
C1052 C367 1.241 . S
C1063 C530 1.353 1_545 S
C1068 C407 1.167 . S
C1079 C250 1.427 . S
C1084 C447 1.313 . S
C1095 C496 1.267 . S
C1100 C459 1.378 1_545 S
C1111 C536 1.167 . S
C1116 C19 1.347 . S
C1127 C379 1.384 1_565 S
C1132 C576 1.196 . S
C1143 C616 1.170 . S
C1148 C99 1.359 . S
C1159 C11 4.044 1_556 S
C1164 C362 4.061 . S
C1175 C402 4.072 . S
C1180 C51 4.059 . S
C1191 C91 4.081 . S
C1196 C442 4.090 . S
C1207 C322 4.064 . S
C1212 C131 4.054 . S
C1223 C531 4.067 . S
C1228 C162 4.027 1_554 S
C1239 C571 4.087 . S
C1244 C202 4.079 . S
C1255 C611 4.081 . S
C1260 C242 4.073 . S
C1271 C491 4.086 . S
C1276 C282 4.073 . S
C1287 C42 4.061 . S
C1292 C331 4.051 . S
C1303 C82 4.060 . S
C1308 C371 4.049 1_565 S
C1319 C122 4.060 . S
C1324 C411 4.046 1_556 S
C1335 C451 4.049 1_545 S
C1340 C2 4.061 . S
C1351 C211 4.093 . S
C1356 C482 4.083 . S
C1367 C251 4.068 . S
C1372 C522 4.059 1_545 S
C1383 C291 4.061 . S
C1388 C562 4.044 1_554 S
C1399 C171 4.068 . S
C1404 C602 4.056 1_565 S
