# Generated by pormake.
# Topology hjm, (4)-cn, num edge types: 1
# Building blocks:
#     Node 0, Type 0, BuildingBlock: QUQFOY_clean_sbu_3, # of connection points: 4
#     Node 1, Type 0, BuildingBlock: QUQFOY_clean_sbu_3, # of connection points: 4
#     Node 2, Type 0, BuildingBlock: QUQFOY_clean_sbu_3, # of connection points: 4
#     Node 3, Type 0, BuildingBlock: QUQFOY_clean_sbu_3, # of connection points: 4
#     Node 4, Type 0, BuildingBlock: QUQFOY_clean_sbu_3, # of connection points: 4
#     Node 5, Type 0, BuildingBlock: QUQFOY_clean_sbu_3, # of connection points: 4
#     Node 6, Type 0, BuildingBlock: QUQFOY_clean_sbu_3, # of connection points: 4
#     Node 7, Type 0, BuildingBlock: QUQFOY_clean_sbu_3, # of connection points: 4
#     Edge 8, Type (0, 0), BuildingBlock: UVAHIK_clean_linker_0, # of connection points: 2
#     Edge 9, Type (0, 0), BuildingBlock: UVAHIK_clean_linker_0, # of connection points: 2
#     Edge 10, Type (0, 0), BuildingBlock: UVAHIK_clean_linker_0, # of connection points: 2
#     Edge 11, Type (0, 0), BuildingBlock: UVAHIK_clean_linker_0, # of connection points: 2
#     Edge 12, Type (0, 0), BuildingBlock: UVAHIK_clean_linker_0, # of connection points: 2
#     Edge 13, Type (0, 0), BuildingBlock: UVAHIK_clean_linker_0, # of connection points: 2
#     Edge 14, Type (0, 0), BuildingBlock: UVAHIK_clean_linker_0, # of connection points: 2
#     Edge 15, Type (0, 0), BuildingBlock: UVAHIK_clean_linker_0, # of connection points: 2
#     Edge 16, Type (0, 0), BuildingBlock: UVAHIK_clean_linker_0, # of connection points: 2
#     Edge 17, Type (0, 0), BuildingBlock: UVAHIK_clean_linker_0, # of connection points: 2
#     Edge 18, Type (0, 0), BuildingBlock: UVAHIK_clean_linker_0, # of connection points: 2
#     Edge 19, Type (0, 0), BuildingBlock: UVAHIK_clean_linker_0, # of connection points: 2
#     Edge 20, Type (0, 0), BuildingBlock: UVAHIK_clean_linker_0, # of connection points: 2
#     Edge 21, Type (0, 0), BuildingBlock: UVAHIK_clean_linker_0, # of connection points: 2
#     Edge 22, Type (0, 0), BuildingBlock: UVAHIK_clean_linker_0, # of connection points: 2
#     Edge 23, Type (0, 0), BuildingBlock: UVAHIK_clean_linker_0, # of connection points: 2
# Relax obj value: 0.093
# Max RMSD: 0.137
# Mean RMSD: 0.137
data_MOF--net-hjm--node1-QUQFOY_clean_sbu_3--edge1-UVAHIK_clean_linker_0
_symmetry_space_group_name_H-M    P1
_symmetry_Int_Tables_number       1
_symmetry_cell_setting            triclinic
loop_
_symmetry_equiv_pos_as_xyz
'x, y, z'
_cell_length_a     35.46203
_cell_length_b     30.338323
_cell_length_c     34.682892
_cell_angle_alpha  89.875357
_cell_angle_beta   59.493881
_cell_angle_gamma 89.781576
loop_
_atom_site_label
_atom_site_type_symbol
_atom_site_fract_x
_atom_site_fract_y
_atom_site_fract_z
_atom_type_partial_charge
C0 C 0.19584 0.30313 0.22583 0.0
O1 O 0.19213 0.34008 0.24457 0.0
Cd2 Cd 0.17869 0.34794 0.31838 0.0
O3 O 0.19217 0.26711 0.24661 0.0
Cd4 Cd 0.1767 0.24457 0.32265 0.0
C5 C 0.26941 0.29422 0.3057 0.0
O6 O 0.11906 0.29773 0.35847 0.0
O7 O 0.13814 0.26835 0.40252 0.0
O8 O 0.13565 0.18135 0.31939 0.0
C9 C 0.11078 0.29144 0.39797 0.0
O10 O 0.24919 0.3307 0.31216 0.0
C11 C 0.15094 0.15407 0.33582 0.0
O12 O 0.25111 0.25817 0.30595 0.0
O13 O 0.17979 0.16847 0.3439 0.0
C14 C 0.80011 0.29402 0.2532 0.0
O15 O 0.80262 0.33179 0.23623 0.0
Cd16 Cd 0.81552 0.34451 0.16315 0.0
O17 O 0.80455 0.25897 0.23089 0.0
Cd18 Cd 0.81939 0.24092 0.15413 0.0
C19 C 0.72587 0.29208 0.17326 0.0
O20 O 0.87562 0.29571 0.11991 0.0
O21 O 0.85747 0.26716 0.07507 0.0
O22 O 0.86263 0.17654 0.15161 0.0
C23 C 0.88367 0.29124 0.0803 0.0
O24 O 0.7456 0.32844 0.16833 0.0
C25 C 0.84597 0.15063 0.13562 0.0
O26 O 0.74461 0.25569 0.17158 0.0
O27 O 0.81537 0.16616 0.13073 0.0
C28 C 0.87766 0.65529 0.65899 0.0
O29 O 0.89765 0.67261 0.67684 0.0
Cd30 Cd 0.88077 0.74265 0.71157 0.0
O31 O 0.84638 0.67568 0.65839 0.0
Cd32 Cd 0.80647 0.74722 0.68698 0.0
C33 C 0.89784 0.80734 0.62283 0.0
O34 O 0.80306 0.73686 0.75734 0.0
O35 O 0.78016 0.80036 0.75009 0.0
O36 O 0.74273 0.70596 0.69764 0.0
C37 C 0.78366 0.77247 0.77534 0.0
O38 O 0.90993 0.7959 0.65025 0.0
C39 C 0.72581 0.73788 0.68793 0.0
O40 O 0.86223 0.7929 0.62719 0.0
O41 O 0.74755 0.77344 0.67554 0.0
C42 C 0.12963 0.65097 0.81414 0.0
O43 O 0.11434 0.66804 0.79145 0.0
Cd44 Cd 0.13534 0.73657 0.75516 0.0
O45 O 0.15855 0.671 0.81912 0.0
Cd46 Cd 0.20102 0.74165 0.79038 0.0
C47 C 0.1095 0.80402 0.84482 0.0
O48 O 0.2128 0.72732 0.71755 0.0
O49 O 0.23068 0.79302 0.72424 0.0
O50 O 0.26199 0.70112 0.78803 0.0
C51 C 0.23146 0.76275 0.69873 0.0
O52 O 0.1014 0.79154 0.81476 0.0
C53 C 0.27736 0.73398 0.79805 0.0
O54 O 0.14303 0.78956 0.8452 0.0
O55 O 0.25589 0.76976 0.80686 0.0
C56 C 0.68761 0.80513 0.22609 0.0
O57 O 0.68618 0.84193 0.24415 0.0
Cd58 Cd 0.67705 0.84984 0.31631 0.0
O59 O 0.68424 0.76896 0.24653 0.0
Cd60 Cd 0.6732 0.74592 0.32083 0.0
C61 C 0.76839 0.79407 0.29922 0.0
O62 O 0.6174 0.80067 0.35899 0.0
O63 O 0.63755 0.76844 0.40086 0.0
O64 O 0.62997 0.68363 0.31983 0.0
C65 C 0.61062 0.79375 0.39788 0.0
O66 O 0.74854 0.83086 0.30654 0.0
C67 C 0.64617 0.65583 0.33487 0.0
O68 O 0.74912 0.75836 0.30042 0.0
O69 O 0.67647 0.6695 0.34107 0.0
C70 C 0.29078 0.79522 0.25953 0.0
O71 O 0.29237 0.83293 0.24283 0.0
Cd72 Cd 0.30972 0.84567 0.16826 0.0
O73 O 0.29767 0.76021 0.2364 0.0
Cd74 Cd 0.31556 0.74254 0.15848 0.0
C75 C 0.2233 0.79258 0.17233 0.0
O76 O 0.37156 0.79757 0.12862 0.0
O77 O 0.35822 0.7698 0.07979 0.0
O78 O 0.35784 0.67788 0.1576 0.0
C79 C 0.38304 0.79292 0.08799 0.0
O80 O 0.24219 0.82925 0.16849 0.0
C81 C 0.34238 0.65228 0.14014 0.0
O82 O 0.24202 0.75657 0.17183 0.0
O83 O 0.31289 0.6681 0.13364 0.0
C84 C 0.37634 0.15719 0.6616 0.0
O85 O 0.39502 0.17611 0.68004 0.0
Cd86 Cd 0.37668 0.24601 0.714 0.0
O87 O 0.34514 0.17605 0.65944 0.0
Cd88 Cd 0.30348 0.24743 0.68746 0.0
C89 C 0.39392 0.30954 0.62457 0.0
O90 O 0.29943 0.23623 0.75743 0.0
O91 O 0.27551 0.29978 0.75273 0.0
O92 O 0.24015 0.20637 0.69622 0.0
C93 C 0.2797 0.2711 0.7769 0.0
O94 O 0.40573 0.29894 0.6524 0.0
C95 C 0.22376 0.23864 0.68632 0.0
O96 O 0.35886 0.29406 0.62845 0.0
O97 O 0.2456 0.27415 0.67478 0.0
C98 C 0.62628 0.14944 0.82421 0.0
O99 O 0.60706 0.16406 0.80431 0.0
Cd100 Cd 0.62286 0.2316 0.76555 0.0
O101 O 0.65652 0.17161 0.82486 0.0
Cd102 Cd 0.69566 0.24291 0.79242 0.0
C103 C 0.60264 0.30302 0.85093 0.0
O104 O 0.70056 0.22612 0.7227 0.0
O105 O 0.72179 0.29162 0.72515 0.0
O106 O 0.75908 0.20413 0.78624 0.0
C107 C 0.71855 0.26114 0.70208 0.0
O108 O 0.5918 0.28803 0.82368 0.0
C109 C 0.77539 0.23768 0.79409 0.0
O110 O 0.63819 0.29079 0.84845 0.0
O111 O 0.75356 0.27327 0.80322 0.0
C112 C 0.14659 0.08181 0.37262 0.0
C113 C 0.13243 0.10935 0.3498 0.0
C114 C 0.12425 0.04289 0.39268 0.0
C115 C 0.01379 -0.0028 0.44162 0.0
H116 H 0.06837 0.89296 0.45706 0.0
C117 C 0.91229 0.85273 0.556 0.0
C118 C 0.92592 0.83723 0.58525 0.0
C119 C 0.93882 0.88131 0.5209 0.0
C120 C 0.05267 0.92191 0.4531 0.0
H121 H 0.08568 0.11609 0.32734 0.0
H122 H 0.04705 0.04772 0.36184 0.0
H123 H 0.11391 0.95004 0.40431 0.0
H124 H 0.97852 0.83915 0.60001 0.0
H125 H 0.0244 0.88912 0.53921 0.0
H126 H 0.95267 0.96962 0.49116 0.0
C127 C 0.07489 0.05671 0.365 0.0
C128 C 0.07874 0.95457 0.42288 0.0
C129 C 0.09721 0.09572 0.34498 0.0
C130 C 0.96691 0.85048 0.57821 0.0
C131 C 0.99345 0.87884 0.54307 0.0
C132 C 0.98774 0.9645 0.47172 0.0
C133 C 0.08731 0.03056 0.39027 0.0
C134 C 0.05966 0.99308 0.41754 0.0
C135 C 0.97963 0.89478 0.51416 0.0
C136 C 0.00696 0.92697 0.47855 0.0
H137 H 0.17364 0.09135 0.37691 0.0
H138 H 0.13453 0.02378 0.41217 0.0
H139 H 0.998 0.0267 0.43889 0.0
H140 H 0.881 0.84305 0.56034 0.0
H141 H 0.92742 0.89281 0.49898 0.0
C142 C 0.09004 0.85448 0.90975 0.0
C143 C 0.07918 0.83518 0.87984 0.0
C144 C 0.06149 0.88444 0.94221 0.0
C145 C 0.96965 0.95959 0.96658 0.0
H146 H 0.95467 0.96427 0.08532 0.0
C147 C 0.84784 0.08025 0.09735 0.0
C148 C 0.86481 0.1065 0.1183 0.0
C149 C 0.87006 0.0424 0.07382 0.0
C150 C 0.95864 0.96337 0.05224 0.0
H151 H 0.02913 0.83126 0.86155 0.0
H152 H 0.97921 0.88262 0.91846 0.0
H153 H 0.00185 0.90766 0.03249 0.0
H154 H 0.91678 0.11195 0.13365 0.0
H155 H 0.95566 0.04584 0.09242 0.0
H156 H 0.92684 0.0153 0.98601 0.0
C157 C 0.0102 0.87551 0.91626 0.0
C158 C 0.98577 0.93109 0.02192 0.0
C159 C 0.03881 0.84588 0.88368 0.0
C160 C 0.9029 0.09246 0.11778 0.0
C161 C 0.92512 0.0545 0.09426 0.0
C162 C 0.94245 0.99158 -0.00312 0.0
C163 C 0.02134 0.89555 0.94564 0.0
C164 C 0.99174 0.92896 0.97862 0.0
C165 C 0.90971 0.02993 0.07077 0.0
C166 C 0.93673 0.99399 0.03998 0.0
H167 H 0.1209 0.84697 0.90769 0.0
H168 H 0.07136 0.89963 0.96393 0.0
H169 H 0.97416 0.95961 0.93327 0.0
H170 H 0.81839 0.08996 0.0974 0.0
H171 H 0.85693 0.02363 0.05678 0.0
C172 C 0.46265 0.35316 0.57984 0.0
C173 C 0.42167 0.33964 0.58706 0.0
C174 C 0.4889 0.38165 0.54469 0.0
C175 C 0.48245 0.46731 0.47389 0.0
H176 H 0.60851 0.45239 0.40475 0.0
C177 C 0.59113 0.5982 0.34597 0.0
C178 C 0.62722 0.61135 0.34948 0.0
C179 C 0.56865 0.5594 0.36653 0.0
C180 C 0.57337 0.45708 0.42382 0.0
H181 H 0.37642 0.34518 0.56253 0.0
H182 H 0.4223 0.39524 0.50122 0.0
H183 H 0.5633 0.3955 0.45799 0.0
H184 H 0.66969 0.59277 0.37492 0.0
H185 H 0.63029 0.52566 0.41119 0.0
H186 H 0.49242 0.52952 0.44115 0.0
C187 C 0.43394 0.3838 0.52297 0.0
C188 C 0.54749 0.42451 0.4543 0.0
C189 C 0.40773 0.35505 0.55803 0.0
C190 C 0.64198 0.58359 0.37161 0.0
C191 C 0.61945 0.54491 0.39226 0.0
C192 C 0.50831 0.49997 0.44357 0.0
C193 C 0.47476 0.39748 0.51601 0.0
C194 C 0.50183 0.4297 0.48032 0.0
C195 C 0.58174 0.53302 0.3911 0.0
C196 C 0.55417 0.49568 0.41883 0.0
H197 H 0.4745 0.3419 0.60146 0.0
H198 H 0.5199 0.39209 0.54062 0.0
H199 H 0.44741 0.47251 0.49377 0.0
H200 H 0.57912 0.61874 0.32889 0.0
H201 H 0.54022 0.55076 0.36428 0.0
C202 C 0.39982 0.59466 0.12216 0.0
C203 C 0.36139 0.60815 0.12309 0.0
C204 C 0.42214 0.55666 0.09879 0.0
C205 C 0.43775 0.49175 0.00287 0.0
H206 H 0.50032 0.41045 0.03708 0.0
C207 C 0.53162 0.34405 0.89201 0.0
C208 C 0.5731 0.33458 0.88601 0.0
C209 C 0.50374 0.37415 0.92447 0.0
C210 C 0.48331 0.43314 0.02693 0.0
H211 H 0.31441 0.59057 0.10326 0.0
H212 H 0.35294 0.52407 0.06315 0.0
H213 H 0.45355 0.46745 0.08968 0.0
H214 H 0.6175 0.34896 0.91008 0.0
H215 H 0.56904 0.40233 0.96629 0.0
H216 H 0.46793 0.45844 0.93997 0.0
C217 C 0.36639 0.54336 0.07957 0.0
C218 C 0.45645 0.46567 0.0571 0.0
C219 C 0.34416 0.58131 0.10281 0.0
C220 C 0.58579 0.35553 0.91378 0.0
C221 C 0.55788 0.38589 0.94622 0.0
C222 C 0.46459 0.45945 0.97278 0.0
C223 C 0.40641 0.53144 0.07597 0.0
C224 C 0.43338 0.49534 0.04534 0.0
C225 C 0.51667 0.39583 0.95165 0.0
C226 C 0.48774 0.42973 0.98436 0.0
H227 H 0.41391 0.61463 0.13749 0.0
H228 H 0.45295 0.54847 0.09655 0.0
H229 H 0.4213 0.51473 -0.0077 0.0
H230 H 0.52052 0.3282 0.87159 0.0
H231 H 0.47192 0.38038 0.9283 0.0
C232 C 0.92114 0.32107 0.00205 0.0
C233 C 0.9183 0.31752 0.04381 0.0
C234 C 0.9515 0.34969 0.96951 0.0
C235 C 0.04978 0.41767 0.93874 0.0
H236 H 0.9974 0.49789 0.89193 0.0
C237 C 0.11843 0.59117 0.86922 0.0
C238 C 0.11391 0.60688 0.83366 0.0
C239 C 0.10051 0.55046 0.88901 0.0
C240 C 0.01295 0.47535 0.90392 0.0
H241 H 0.94662 0.33884 0.08334 0.0
H242 H -0.001 0.38881 0.02698 0.0
H243 H 0.95645 0.43416 0.93501 0.0
H244 H 0.08981 0.59105 0.78895 0.0
H245 H 0.05962 0.52017 0.82266 0.0
H246 H 0.10596 0.45977 0.90844 0.0
C247 C 0.97814 0.36952 0.0191 0.0
C248 C 0.98944 0.43872 0.92856 0.0
C249 C 0.94778 0.34119 0.05158 0.0
C250 C 0.09306 0.58031 0.81693 0.0
C251 C 0.07567 0.53965 0.83629 0.0
C252 C 0.07343 0.45436 0.91391 0.0
C253 C 0.97963 0.37489 0.97816 0.0
C254 C 0.00726 0.40994 0.94691 0.0
C255 C 0.07819 0.52471 0.87322 0.0
C256 C 0.05495 0.48395 0.89683 0.0
H257 H 0.89902 0.30294 -0.00492 0.0
H258 H 0.95228 0.3529 0.938 0.0
H259 H 0.06445 0.39575 0.9522 0.0
H260 H 0.13448 0.61092 0.88266 0.0
H261 H 0.10271 0.53996 0.91767 0.0
C262 C 0.03873 0.32876 0.43116 0.0
C263 C 0.0745 0.31541 0.43519 0.0
C264 C 0.00704 0.35694 0.46265 0.0
C265 C 0.96791 0.41199 0.57241 0.0
H266 H 0.94322 0.5081 0.51442 0.0
C267 C 0.9215 0.58646 0.64512 0.0
C268 C 0.89071 0.61067 0.63954 0.0
C269 C 0.93501 0.54483 0.62605 0.0
C270 C 0.94894 0.48114 0.53137 0.0
H271 H 0.10402 0.31853 0.47654 0.0
H272 H 0.04934 0.36934 0.53107 0.0
H273 H 0.98285 0.44386 0.47114 0.0
H274 H 0.84895 0.60953 0.61062 0.0
H275 H 0.87303 0.5366 0.57679 0.0
H276 H 0.93554 0.45073 0.63228 0.0
C277 C 0.04525 0.35737 0.50403 0.0
C278 C 0.97166 0.44418 0.50657 0.0
C279 C 0.07671 0.32848 0.47275 0.0
C280 C 0.87293 0.59184 0.61528 0.0
C281 C 0.88669 0.55015 0.59593 0.0
C282 C 0.94529 0.44917 0.59722 0.0
C283 C 0.01089 0.37305 0.49842 0.0
C284 C 0.98218 0.40954 0.52655 0.0
C285 C 0.9182 0.52647 0.60079 0.0
C286 C 0.93644 0.48449 0.57664 0.0
H287 H 0.03592 0.31845 0.40282 0.0
H288 H 0.98036 0.36742 0.45802 0.0
H289 H 0.97494 0.38559 0.58891 0.0
H290 H 0.93569 0.59984 0.66384 0.0
H291 H 0.95982 0.52769 0.6298 0.0
C292 C 0.62791 0.09062 0.87452 0.0
C293 C 0.61372 0.10561 0.8456 0.0
C294 C 0.61417 0.04964 0.89567 0.0
C295 C 0.56317 0.94416 0.89258 0.0
H296 H 0.50949 0.948 0.02159 0.0
C297 C 0.42436 0.8281 0.01222 0.0
C298 C 0.42082 0.81751 0.05331 0.0
C299 C 0.45755 0.85628 0.9823 0.0
C300 C 0.52516 0.94582 0.98551 0.0
H301 H 0.57551 0.08861 0.81477 0.0
H302 H 0.55153 0.01785 0.85172 0.0
H303 H 0.55188 0.01051 0.97714 0.0
H304 H 0.45105 0.82465 0.09384 0.0
H305 H 0.50943 0.87265 0.04131 0.0
H306 H 0.53514 0.87991 0.9012 0.0
C307 C 0.57344 0.03739 0.85789 0.0
C308 C 0.5495 0.98174 0.96005 0.0
C309 C 0.5868 0.07828 0.83714 0.0
C310 C 0.45257 0.83302 0.06269 0.0
C311 C 0.48594 0.8606 0.03267 0.0
C312 C 0.53892 0.90808 0.91807 0.0
C313 C 0.58646 0.02287 0.88781 0.0
C314 C 0.56765 0.98181 0.91349 0.0
C315 C 0.48795 0.87381 -0.00714 0.0
C316 C 0.51866 0.90903 0.96494 0.0
H317 H 0.64885 0.11084 0.88149 0.0
H318 H 0.62477 0.0391 0.91854 0.0
H319 H 0.57734 0.94318 0.85661 0.0
H320 H 0.40031 0.81644 0.0042 0.0
H321 H 0.45798 0.86608 0.95204 0.0
C322 C 0.54472 0.84189 0.43138 0.0
C323 C 0.57655 0.81885 0.43616 0.0
C324 C 0.51513 0.86977 0.46514 0.0
C325 C 0.51065 0.94026 0.5512 0.0
H326 H 0.39108 0.96107 0.57998 0.0
C327 C 0.41376 0.08698 0.65938 0.0
C328 C 0.39066 0.11219 0.64405 0.0
C329 C 0.42971 0.04535 0.64176 0.0
C330 C 0.42446 0.95572 0.57212 0.0
H331 H 0.60078 0.80474 0.48104 0.0
H332 H 0.54896 0.85411 0.54034 0.0
H333 H 0.43046 0.89581 0.53679 0.0
H334 H 0.3646 0.11289 0.59948 0.0
H335 H 0.39391 0.0403 0.5673 0.0
H336 H 0.50571 0.00081 0.58453 0.0
C337 C 0.54722 0.85063 0.5102 0.0
C338 C 0.44689 0.9183 0.54765 0.0
C339 C 0.57676 0.82237 0.4764 0.0
C340 C 0.38245 0.09422 0.61176 0.0
C341 C 0.39896 0.05255 0.59363 0.0
C342 C 0.48837 0.97764 0.57544 0.0
C343 C 0.51684 0.87539 0.50436 0.0
C344 C 0.49051 0.91071 0.5362 0.0
C345 C 0.42349 0.02808 0.6079 0.0
C346 C 0.44531 0.98624 0.5855 0.0
H347 H 0.54351 0.83948 0.40087 0.0
H348 H 0.49247 0.88871 0.45941 0.0
H349 H 0.54448 0.93579 0.54218 0.0
H350 H 0.41986 0.09952 0.68494 0.0
H351 H 0.44753 0.02695 0.65426 0.0
C352 C 0.27673 0.83142 0.33028 0.0
C353 C 0.28314 0.79261 0.30551 0.0
C354 C 0.27225 0.82968 0.37258 0.0
C355 C 0.24385 0.75526 0.46681 0.0
H356 H 0.30782 0.83866 0.49675 0.0
C357 C 0.25416 0.73252 0.62387 0.0
C358 C 0.24588 0.76958 0.65122 0.0
C359 C 0.26181 0.7372 0.58061 0.0
C360 C 0.28946 0.81549 0.48898 0.0
H361 H 0.28912 0.72145 0.30613 0.0
H362 H 0.28127 0.71845 0.38018 0.0
H363 H 0.31337 0.84266 0.4236 0.0
H364 H 0.24153 0.84087 0.65414 0.0
H365 H 0.25445 0.8492 0.57796 0.0
H366 H 0.21976 0.72814 0.53199 0.0
C367 C 0.27951 0.75019 0.3668 0.0
C368 C 0.2926 0.81775 0.44719 0.0
C369 C 0.28411 0.75191 0.32437 0.0
C370 C 0.24782 0.81179 0.63365 0.0
C371 C 0.25522 0.8165 0.59015 0.0
C372 C 0.24065 0.75306 0.50848 0.0
C373 C 0.27393 0.78911 0.39112 0.0
C374 C 0.27005 0.78742 0.43563 0.0
C375 C 0.26098 0.77906 0.56378 0.0
C376 C 0.26376 0.78282 0.51985 0.0
H377 H 0.27565 0.86337 0.31686 0.0
H378 H 0.2673 0.86012 0.39085 0.0
H379 H 0.22545 0.73202 0.45915 0.0
H380 H 0.25355 0.6996 0.63637 0.0
H381 H 0.26738 0.70785 0.56065 0.0
C382 C 0.75306 0.82253 0.84222 0.0
C383 C 0.76701 0.78049 0.8232 0.0
C384 C 0.73822 0.8292 0.88766 0.0
C385 C 0.69443 0.77001 -0.00538 0.0
H386 H 0.74954 0.8614 0.02683 0.0
C387 C 0.69696 0.76489 0.15872 0.0
C388 C 0.69228 0.80475 0.18126 0.0
C389 C 0.70118 0.76492 0.11645 0.0
C390 C 0.73324 0.83621 0.01858 0.0
H391 H 0.77552 0.7124 0.83679 0.0
H392 H 0.7496 0.72403 0.91555 0.0
H393 H 0.76377 0.85741 0.9503 0.0
H394 H 0.68779 0.87591 0.17729 0.0
H395 H 0.69461 0.87577 0.10393 0.0
H396 H 0.66441 0.74828 0.06254 0.0
C397 C 0.74992 0.75176 0.89565 0.0
C398 C 0.74136 0.83401 0.9748 0.0
C399 C 0.76514 0.74524 0.85042 0.0
C400 C 0.69164 0.84458 0.16074 0.0
C401 C 0.69569 0.84458 0.1186 0.0
C402 C 0.68612 0.77232 0.03839 0.0
C403 C 0.73652 0.79376 0.91469 0.0
C404 C 0.72287 0.80022 0.96222 0.0
C405 C 0.70062 0.80477 0.09594 0.0
C406 C 0.70627 0.80479 0.05058 0.0
H407 H 0.75412 0.85024 0.82194 0.0
H408 H 0.72799 0.8619 0.90171 0.0
H409 H 0.67932 0.74398 0.98581 0.0
H410 H 0.69768 0.73367 0.17355 0.0
H411 H 0.70566 0.73372 0.0995 0.0
C412 C 0.78566 0.25041 0.32086 0.0
C413 C 0.79257 0.29123 0.29912 0.0
C414 C 0.77852 0.24831 0.36431 0.0
C415 C 0.79627 0.30928 0.44515 0.0
H416 H 0.70202 0.2363 0.53278 0.0
C417 C 0.74114 0.30817 0.63409 0.0
C418 C 0.73046 0.26673 0.65502 0.0
C419 C 0.74979 0.31271 0.59014 0.0
C420 C 0.72878 0.25647 0.50858 0.0
H421 H 0.7977 0.36184 0.30587 0.0
H422 H 0.78521 0.35798 0.38152 0.0
H423 H 0.71545 0.24021 0.4567 0.0
H424 H 0.72226 0.19734 0.64598 0.0
H425 H 0.73808 0.20511 0.56964 0.0
H426 H 0.80985 0.32519 0.49703 0.0
C427 C 0.78559 0.32766 0.36487 0.0
C428 C 0.73643 0.25867 0.46505 0.0
C429 C 0.79245 0.32982 0.32163 0.0
C430 C 0.72984 0.22985 0.63095 0.0
C431 C 0.73865 0.23432 0.58725 0.0
C432 C 0.78875 0.30691 0.48874 0.0
C433 C 0.77845 0.28694 0.38667 0.0
C434 C 0.77038 0.28488 0.43286 0.0
C435 C 0.74801 0.27583 0.56656 0.0
C436 C 0.75513 0.28018 0.52079 0.0
H437 H 0.78564 0.22011 0.30442 0.0
H438 H 0.77348 0.21641 0.38027 0.0
H439 H 0.82289 0.32952 0.42083 0.0
H440 H 0.74187 0.33712 0.65192 0.0
H441 H 0.75678 0.34517 0.57507 0.0
C442 C 0.21236 0.26243 0.15617 0.0
C443 C 0.20391 0.30232 0.17965 0.0
C444 C 0.2201 0.26204 0.11249 0.0
C445 C 0.20163 0.32496 0.03305 0.0
H446 H 0.29804 0.2543 0.94452 0.0
C447 C 0.25612 0.32056 0.84354 0.0
C448 C 0.267 0.27851 0.82394 0.0
C449 C 0.24752 0.32667 0.88733 0.0
C450 C 0.27077 0.27393 0.96895 0.0
H451 H 0.19648 0.37308 0.17585 0.0
H452 H 0.21 0.37218 0.09963 0.0
H453 H 0.28469 0.25804 0.02052 0.0
H454 H 0.27505 0.2096 0.83535 0.0
H455 H 0.25945 0.22008 0.91123 0.0
H456 H 0.18739 0.34026 0.98135 0.0
C457 C 0.21045 0.34129 0.11512 0.0
C458 C 0.26315 0.27601 0.01242 0.0
C459 C 0.20299 0.34174 0.15867 0.0
C460 C 0.26747 0.24257 0.84927 0.0
C461 C 0.25877 0.24859 0.89271 0.0
C462 C 0.20915 0.32271 -0.01057 0.0
C463 C 0.21928 0.30148 0.09157 0.0
C464 C 0.22817 0.30101 0.04506 0.0
C465 C 0.24965 0.29075 0.91193 0.0
C466 C 0.24337 0.29654 0.95719 0.0
H467 H 0.21317 0.23151 0.17141 0.0
H468 H 0.22636 0.2308 0.09518 0.0
H469 H 0.17431 0.34438 0.0577 0.0
H470 H 0.25543 0.34878 0.82471 0.0
H471 H 0.2405 0.35955 0.90143 0.0
C472 C 0.33774 0.33366 0.29038 0.0
C473 C 0.31545 0.29392 0.29527 0.0
C474 C 0.38201 0.33341 0.27758 0.0
C475 C 0.48112 0.26366 0.2207 0.0
H476 H 0.5265 0.3454 0.27295 0.0
C477 C 0.65724 0.25252 0.1897 0.0
C478 C 0.67986 0.2923 0.18357 0.0
C479 C 0.61303 0.2528 0.20226 0.0
C480 C 0.51441 0.32271 0.25766 0.0
H481 H 0.32207 0.22266 0.29165 0.0
H482 H 0.39902 0.22226 0.27002 0.0
H483 H 0.44848 0.34544 0.29865 0.0
H484 H 0.67385 0.3636 0.18488 0.0
H485 H 0.59689 0.36398 0.20644 0.0
H486 H 0.54707 0.24083 0.17985 0.0
C487 C 0.38247 0.25366 0.27528 0.0
C488 C 0.46969 0.32271 0.27241 0.0
C489 C 0.33824 0.2539 0.28801 0.0
C490 C 0.65745 0.33234 0.18942 0.0
C491 C 0.61323 0.33259 0.2021 0.0
C492 C 0.52582 0.2636 0.20601 0.0
C493 C 0.40501 0.29341 0.26944 0.0
C494 C 0.45251 0.29318 0.25411 0.0
C495 C 0.59041 0.29284 0.20908 0.0
C496 C 0.54298 0.29314 0.22431 0.0
H497 H 0.32127 0.3651 0.29554 0.0
H498 H 0.39848 0.36464 0.27294 0.0
H499 H 0.4691 0.24101 0.20533 0.0
H500 H 0.67344 0.22108 0.18554 0.0
H501 H 0.59629 0.22161 0.20775 0.0
C502 C 0.65925 0.69443 0.7047 0.0
C503 C 0.68117 0.73506 0.6949 0.0
C504 C 0.61533 0.69256 0.71628 0.0
C505 C 0.51599 0.75939 0.7675 0.0
H506 H 0.47258 0.67552 0.71517 0.0
C507 C 0.34186 0.77083 0.7947 0.0
C508 C 0.32045 0.73187 0.79502 0.0
C509 C 0.38501 0.76956 0.78558 0.0
C510 C 0.48393 0.69862 0.7308 0.0
H511 H 0.67464 0.80541 0.68838 0.0
H512 H 0.59784 0.80209 0.70901 0.0
H513 H 0.5503 0.67632 0.69086 0.0
H514 H 0.32657 0.66077 0.78846 0.0
H515 H 0.40134 0.65833 0.77418 0.0
H516 H 0.44982 0.78129 0.80804 0.0
C517 C 0.61466 0.77178 0.70781 0.0
C518 C 0.52853 0.69921 0.7166 0.0
C519 C 0.65869 0.77359 0.69566 0.0
C520 C 0.34233 0.69139 0.78818 0.0
C521 C 0.38535 0.69007 0.77955 0.0
C522 C 0.47133 0.75846 0.78212 0.0
C523 C 0.5924 0.73135 0.71886 0.0
C524 C 0.54503 0.72993 0.73445 0.0
C525 C 0.40761 0.72923 0.77709 0.0
C526 C 0.45474 0.72838 0.76363 0.0
H527 H 0.67572 0.66419 0.70442 0.0
H528 H 0.59888 0.66099 0.72475 0.0
H529 H 0.52779 0.78293 0.78237 0.0
H530 H 0.32598 0.80258 0.79957 0.0
H531 H 0.40113 0.80047 0.78343 0.0
C532 C 0.15529 0.83156 0.18537 0.0
C533 C 0.17811 0.79196 0.18021 0.0
C534 C 0.11158 0.83099 0.19619 0.0
C535 C 0.01388 0.75979 0.24795 0.0
H536 H 0.96898 0.84482 0.19747 0.0
C537 C 0.83749 0.7528 0.27915 0.0
C538 C 0.81493 0.79307 0.28718 0.0
C539 C 0.88192 0.75205 0.26569 0.0
C540 C 0.98095 0.82114 0.21219 0.0
H541 H 0.17316 0.72063 0.18101 0.0
H542 H 0.09716 0.7197 0.19921 0.0
H543 H 0.04678 0.84431 0.17282 0.0
H544 H 0.82141 0.86415 0.28796 0.0
H545 H 0.89877 0.86273 0.26481 0.0
H546 H 0.94801 0.73665 0.28734 0.0
C547 C 0.11284 0.75121 0.1957 0.0
C548 C 0.02554 0.82082 0.19805 0.0
C549 C 0.15653 0.75177 0.18495 0.0
C550 C 0.83773 0.83253 0.282 0.0
C551 C 0.88218 0.83176 0.26839 0.0
C552 C 0.96931 0.76004 0.26202 0.0
C553 C 0.08967 0.79081 0.20201 0.0
C554 C 0.04251 0.79027 0.2159 0.0
C555 C 0.90485 0.79154 0.25981 0.0
C556 C 0.95231 0.79086 0.24446 0.0
H557 H 0.17082 0.86312 0.18208 0.0
H558 H 0.0946 0.8621 0.20127 0.0
H559 H 0.02571 0.73629 0.26296 0.0
H560 H 0.82098 0.72178 0.28273 0.0
H561 H 0.89855 0.72054 0.25897 0.0
C562 C 0.15817 0.27509 0.69115 0.0
C563 C 0.17955 0.23633 0.69207 0.0
C564 C 0.11447 0.27396 0.70209 0.0
C565 C 0.02756 0.20223 0.71095 0.0
H566 H 0.9496 0.28747 0.79884 0.0
C567 C 0.84111 0.19574 0.78302 0.0
C568 C 0.81935 0.23617 0.78904 0.0
C569 C 0.8844 0.19463 0.77356 0.0
C570 C 0.97092 0.26378 0.77386 0.0
H571 H 0.17247 0.16573 0.70328 0.0
H572 H 0.09617 0.16371 0.72161 0.0
H573 H 0.0273 0.28807 0.77433 0.0
H574 H 0.82557 0.3071 0.7908 0.0
H575 H 0.90124 0.30532 0.77324 0.0
H576 H 0.97163 0.17855 0.70945 0.0
C577 C 0.11326 0.19494 0.7127 0.0
C578 C 0.01544 0.26411 0.7599 0.0
C579 C 0.15687 0.19613 0.70228 0.0
C580 C 0.84135 0.27539 0.78664 0.0
C581 C 0.88477 0.27432 0.77672 0.0
C582 C 0.9831 0.2022 0.72451 0.0
C583 C 0.09139 0.234 0.71364 0.0
C584 C 0.04421 0.23344 0.72823 0.0
C585 C 0.90709 0.23395 0.76944 0.0
C586 C 0.95418 0.23304 0.7561 0.0
H587 H 0.17471 0.30659 0.68346 0.0
H588 H 0.09853 0.30446 0.70199 0.0
H589 H 0.04911 0.17842 0.68624 0.0
H590 H 0.82492 0.16493 0.78488 0.0
H591 H 0.90017 0.1629 0.76913 0.0
loop_
_geom_bond_atom_site_label_1
_geom_bond_atom_site_label_2
_geom_bond_distance
_geom_bond_site_symmetry_2
_ccdc_geom_bond_type
C0 O1 1.306 . S
C0 O3 1.160 . S
O1 C0 1.306 . S
O1 Cd2 2.228 . S
Cd2 O1 2.228 . S
Cd2 O6 2.273 . S
Cd2 O10 2.277 . S
O3 C0 1.160 . S
O3 Cd4 2.203 . S
Cd4 O3 2.203 . S
Cd4 O6 2.411 . S
Cd4 O7 2.333 . S
Cd4 O8 2.352 . S
Cd4 O12 2.277 . S
Cd4 O13 2.356 . S
C5 O10 1.209 . S
C5 O12 1.226 . S
O6 Cd2 2.273 . S
O6 Cd4 2.411 . S
O6 C9 1.320 . S
O7 Cd4 2.333 . S
O7 C9 1.214 . S
O8 Cd4 2.352 . S
O8 C11 1.258 . S
C9 O6 1.320 . S
C9 O7 1.214 . S
O10 Cd2 2.277 . S
O10 C5 1.209 . S
C11 O8 1.258 . S
C11 O13 1.282 . S
O12 Cd4 2.277 . S
O12 C5 1.226 . S
O13 Cd4 2.356 . S
O13 C11 1.282 . S
C14 O15 1.306 . S
C14 O17 1.160 . S
O15 C14 1.306 . S
O15 Cd16 2.228 . S
Cd16 O15 2.228 . S
Cd16 O20 2.273 . S
Cd16 O24 2.277 . S
O17 C14 1.160 . S
O17 Cd18 2.203 . S
Cd18 O17 2.203 . S
Cd18 O20 2.411 . S
Cd18 O21 2.333 . S
Cd18 O22 2.352 . S
Cd18 O26 2.277 . S
Cd18 O27 2.356 . S
C19 O24 1.209 . S
C19 O26 1.226 . S
O20 Cd16 2.273 . S
O20 Cd18 2.411 . S
O20 C23 1.320 . S
O21 Cd18 2.333 . S
O21 C23 1.214 . S
O22 Cd18 2.352 . S
O22 C25 1.258 . S
C23 O20 1.320 . S
C23 O21 1.214 . S
O24 Cd16 2.277 . S
O24 C19 1.209 . S
C25 O22 1.258 . S
C25 O27 1.282 . S
O26 Cd18 2.277 . S
O26 C19 1.226 . S
O27 Cd18 2.356 . S
O27 C25 1.282 . S
C28 O29 1.306 . S
C28 O31 1.160 . S
O29 C28 1.306 . S
O29 Cd30 2.228 . S
Cd30 O29 2.228 . S
Cd30 O34 2.273 . S
Cd30 O38 2.277 . S
O31 C28 1.160 . S
O31 Cd32 2.203 . S
Cd32 O31 2.203 . S
Cd32 O34 2.411 . S
Cd32 O35 2.333 . S
Cd32 O36 2.352 . S
Cd32 O40 2.277 . S
Cd32 O41 2.356 . S
C33 O38 1.209 . S
C33 O40 1.226 . S
O34 Cd30 2.273 . S
O34 Cd32 2.411 . S
O34 C37 1.320 . S
O35 Cd32 2.333 . S
O35 C37 1.214 . S
O36 Cd32 2.352 . S
O36 C39 1.258 . S
C37 O34 1.320 . S
C37 O35 1.214 . S
O38 Cd30 2.277 . S
O38 C33 1.209 . S
C39 O36 1.258 . S
C39 O41 1.282 . S
O40 Cd32 2.277 . S
O40 C33 1.226 . S
O41 Cd32 2.356 . S
O41 C39 1.282 . S
C42 O43 1.306 . S
C42 O45 1.160 . S
O43 C42 1.306 . S
O43 Cd44 2.228 . S
Cd44 O43 2.228 . S
Cd44 O48 2.273 . S
Cd44 O52 2.277 . S
O45 C42 1.160 . S
O45 Cd46 2.203 . S
Cd46 O45 2.203 . S
Cd46 O48 2.411 . S
Cd46 O49 2.333 . S
Cd46 O50 2.352 . S
Cd46 O54 2.277 . S
Cd46 O55 2.356 . S
C47 O52 1.209 . S
C47 O54 1.226 . S
O48 Cd44 2.273 . S
O48 Cd46 2.411 . S
O48 C51 1.320 . S
O49 Cd46 2.333 . S
O49 C51 1.214 . S
O50 Cd46 2.352 . S
O50 C53 1.258 . S
C51 O48 1.320 . S
C51 O49 1.214 . S
O52 Cd44 2.277 . S
O52 C47 1.209 . S
C53 O50 1.258 . S
C53 O55 1.282 . S
O54 Cd46 2.277 . S
O54 C47 1.226 . S
O55 Cd46 2.356 . S
O55 C53 1.282 . S
C56 O57 1.306 . S
C56 O59 1.160 . S
O57 C56 1.306 . S
O57 Cd58 2.228 . S
Cd58 O57 2.228 . S
Cd58 O62 2.273 . S
Cd58 O66 2.277 . S
O59 C56 1.160 . S
O59 Cd60 2.203 . S
Cd60 O59 2.203 . S
Cd60 O62 2.411 . S
Cd60 O63 2.333 . S
Cd60 O64 2.352 . S
Cd60 O68 2.277 . S
Cd60 O69 2.356 . S
C61 O66 1.209 . S
C61 O68 1.226 . S
O62 Cd58 2.273 . S
O62 Cd60 2.411 . S
O62 C65 1.320 . S
O63 Cd60 2.333 . S
O63 C65 1.214 . S
O64 Cd60 2.352 . S
O64 C67 1.258 . S
C65 O62 1.320 . S
C65 O63 1.214 . S
O66 Cd58 2.277 . S
O66 C61 1.209 . S
C67 O64 1.258 . S
C67 O69 1.282 . S
O68 Cd60 2.277 . S
O68 C61 1.226 . S
O69 Cd60 2.356 . S
O69 C67 1.282 . S
C70 O71 1.306 . S
C70 O73 1.160 . S
O71 C70 1.306 . S
O71 Cd72 2.228 . S
Cd72 O71 2.228 . S
Cd72 O76 2.273 . S
Cd72 O80 2.277 . S
O73 C70 1.160 . S
O73 Cd74 2.203 . S
Cd74 O73 2.203 . S
Cd74 O76 2.411 . S
Cd74 O77 2.333 . S
Cd74 O78 2.352 . S
Cd74 O82 2.277 . S
Cd74 O83 2.356 . S
C75 O80 1.209 . S
C75 O82 1.226 . S
O76 Cd72 2.273 . S
O76 Cd74 2.411 . S
O76 C79 1.320 . S
O77 Cd74 2.333 . S
O77 C79 1.214 . S
O78 Cd74 2.352 . S
O78 C81 1.258 . S
C79 O76 1.320 . S
C79 O77 1.214 . S
O80 Cd72 2.277 . S
O80 C75 1.209 . S
C81 O78 1.258 . S
C81 O83 1.282 . S
O82 Cd74 2.277 . S
O82 C75 1.226 . S
O83 Cd74 2.356 . S
O83 C81 1.282 . S
C84 O85 1.306 . S
C84 O87 1.160 . S
O85 C84 1.306 . S
O85 Cd86 2.228 . S
Cd86 O85 2.228 . S
Cd86 O90 2.273 . S
Cd86 O94 2.277 . S
O87 C84 1.160 . S
O87 Cd88 2.203 . S
Cd88 O87 2.203 . S
Cd88 O90 2.411 . S
Cd88 O91 2.333 . S
Cd88 O92 2.352 . S
Cd88 O96 2.277 . S
Cd88 O97 2.356 . S
C89 O94 1.209 . S
C89 O96 1.226 . S
O90 Cd86 2.273 . S
O90 Cd88 2.411 . S
O90 C93 1.320 . S
O91 Cd88 2.333 . S
O91 C93 1.214 . S
O92 Cd88 2.352 . S
O92 C95 1.258 . S
C93 O90 1.320 . S
C93 O91 1.214 . S
O94 Cd86 2.277 . S
O94 C89 1.209 . S
C95 O92 1.258 . S
C95 O97 1.282 . S
O96 Cd88 2.277 . S
O96 C89 1.226 . S
O97 Cd88 2.356 . S
O97 C95 1.282 . S
C98 O99 1.306 . S
C98 O101 1.160 . S
O99 C98 1.306 . S
O99 Cd100 2.228 . S
Cd100 O99 2.228 . S
Cd100 O104 2.273 . S
Cd100 O108 2.277 . S
O101 C98 1.160 . S
O101 Cd102 2.203 . S
Cd102 O101 2.203 . S
Cd102 O104 2.411 . S
Cd102 O105 2.333 . S
Cd102 O106 2.352 . S
Cd102 O110 2.277 . S
Cd102 O111 2.356 . S
C103 O108 1.209 . S
C103 O110 1.226 . S
O104 Cd100 2.273 . S
O104 Cd102 2.411 . S
O104 C107 1.320 . S
O105 Cd102 2.333 . S
O105 C107 1.214 . S
O106 Cd102 2.352 . S
O106 C109 1.258 . S
C107 O104 1.320 . S
C107 O105 1.214 . S
O108 Cd100 2.277 . S
O108 C103 1.209 . S
C109 O106 1.258 . S
C109 O111 1.282 . S
O110 Cd102 2.277 . S
O110 C103 1.226 . S
O111 Cd102 2.356 . S
O111 C109 1.282 . S
C112 C113 1.349 . S
C112 C114 1.327 . S
C112 H137 0.950 . S
C113 C112 1.349 . S
C113 C129 1.349 . S
C114 C112 1.327 . S
C114 C133 1.429 . S
C114 H138 0.950 . S
C115 C132 1.572 1_545 S
C115 C134 1.368 1_655 S
C115 H139 0.949 . S
H116 C120 0.949 . S
C117 C118 1.349 . S
C117 C119 1.327 . S
C117 H140 0.950 . S
C118 C117 1.349 . S
C118 C130 1.349 . S
C119 C117 1.327 . S
C119 C135 1.429 . S
C119 H141 0.950 . S
C120 H116 0.949 . S
C120 C128 1.574 . S
C120 C136 1.368 1_455 S
H121 C129 0.950 . S
H122 C127 0.950 . S
H123 C128 0.949 . S
H124 C130 0.950 . S
H125 C131 0.950 1_455 S
H126 C132 0.949 1_545 S
C127 H122 0.950 . S
C127 C129 1.327 . S
C127 C133 1.429 . S
C128 C120 1.574 . S
C128 H123 0.949 . S
C128 C134 1.368 1_565 S
C129 C113 1.349 . S
C129 H121 0.950 . S
C129 C127 1.327 . S
C130 C118 1.349 . S
C130 H124 0.950 . S
C130 C131 1.327 . S
C131 H125 0.950 1_655 S
C131 C130 1.327 . S
C131 C135 1.429 . S
C132 C115 1.572 1_565 S
C132 H126 0.949 1_565 S
C132 C136 1.370 . S
C133 C114 1.429 . S
C133 C127 1.429 . S
C133 C134 1.523 . S
C134 C115 1.368 1_455 S
C134 C128 1.368 1_545 S
C134 C133 1.523 . S
C135 C119 1.429 . S
C135 C131 1.429 . S
C135 C136 1.523 . S
C136 C120 1.368 1_655 S
C136 C132 1.370 . S
C136 C135 1.523 . S
H137 C112 0.950 . S
H138 C114 0.950 . S
H139 C115 0.949 . S
H140 C117 0.950 . S
H141 C119 0.950 . S
C142 C143 1.349 . S
C142 C144 1.327 . S
C142 H167 0.950 . S
C143 C142 1.349 . S
C143 C159 1.349 . S
C144 C142 1.327 . S
C144 C163 1.429 . S
C144 H168 0.950 . S
C145 C162 1.574 1_465 S
C145 C164 1.368 . S
C145 H169 0.949 . S
H146 C150 0.949 . S
C147 C148 1.349 . S
C147 C149 1.327 . S
C147 H170 0.950 . S
C148 C147 1.349 . S
C148 C160 1.349 . S
C149 C147 1.327 . S
C149 C165 1.429 . S
C149 H171 0.950 1_554 S
C150 H146 0.949 . S
C150 C158 1.572 1_655 S
C150 C166 1.368 1_565 S
H151 C159 0.950 . S
H152 C157 0.950 . S
H153 C158 0.952 . S
H154 C160 0.950 . S
H155 C161 0.950 . S
H156 C162 0.949 . S
C157 H152 0.950 . S
C157 C159 1.327 . S
C157 C163 1.429 . S
C158 C150 1.572 1_455 S
C158 H153 0.952 . S
C158 C164 1.367 1_554 S
C159 C143 1.349 . S
C159 H151 0.950 . S
C159 C157 1.327 . S
C160 C148 1.349 . S
C160 H154 0.950 . S
C160 C161 1.327 . S
C161 H155 0.950 . S
C161 C160 1.327 . S
C161 C165 1.429 . S
C162 C145 1.574 1_645 S
C162 H156 0.949 . S
C162 C166 1.368 1_556 S
C163 C144 1.429 . S
C163 C157 1.429 . S
C163 C164 1.523 . S
C164 C145 1.368 . S
C164 C158 1.367 1_556 S
C164 C163 1.523 . S
C165 C149 1.429 . S
C165 C161 1.429 . S
C165 C166 1.523 . S
C166 C150 1.368 1_545 S
C166 C162 1.368 1_554 S
C166 C165 1.523 . S
H167 C142 0.950 . S
H168 C144 0.950 . S
H169 C145 0.949 . S
H170 C147 0.950 . S
H171 C149 0.950 1_556 S
C172 C173 1.349 . S
C172 C174 1.327 . S
C172 H197 0.950 . S
C173 C172 1.349 . S
C173 C189 1.349 . S
C174 C172 1.327 . S
C174 C193 1.429 . S
C174 H198 0.950 . S
C175 C192 1.574 . S
C175 C194 1.368 . S
C175 H199 0.949 . S
H176 C180 0.949 . S
C177 C178 1.349 . S
C177 C179 1.327 . S
C177 H200 0.950 . S
C178 C177 1.349 . S
C178 C190 1.349 . S
C179 C177 1.327 . S
C179 C195 1.429 . S
C179 H201 0.950 . S
C180 H176 0.949 . S
C180 C188 1.574 . S
C180 C196 1.368 . S
H181 C189 0.950 . S
H182 C187 0.950 . S
H183 C188 0.949 . S
H184 C190 0.950 . S
H185 C191 0.950 . S
H186 C192 0.949 . S
C187 H182 0.950 . S
C187 C189 1.327 . S
C187 C193 1.429 . S
C188 C180 1.574 . S
C188 H183 0.949 . S
C188 C194 1.368 . S
C189 C173 1.349 . S
C189 H181 0.950 . S
C189 C187 1.327 . S
C190 C178 1.349 . S
C190 H184 0.950 . S
C190 C191 1.327 . S
C191 H185 0.950 . S
C191 C190 1.327 . S
C191 C195 1.429 . S
C192 C175 1.574 . S
C192 H186 0.949 . S
C192 C196 1.368 . S
C193 C174 1.429 . S
C193 C187 1.429 . S
C193 C194 1.523 . S
C194 C175 1.368 . S
C194 C188 1.368 . S
C194 C193 1.523 . S
C195 C179 1.429 . S
C195 C191 1.429 . S
C195 C196 1.523 . S
C196 C180 1.368 . S
C196 C192 1.368 . S
C196 C195 1.523 . S
H197 C172 0.950 . S
H198 C174 0.950 . S
H199 C175 0.949 . S
H200 C177 0.950 . S
H201 C179 0.950 . S
C202 C203 1.349 . S
C202 C204 1.327 . S
C202 H227 0.950 . S
C203 C202 1.349 . S
C203 C219 1.349 . S
C204 C202 1.327 . S
C204 C223 1.429 . S
C204 H228 0.950 . S
C205 C222 1.574 . S
C205 C224 1.368 1_556 S
C205 H229 0.949 . S
H206 C210 0.949 . S
C207 C208 1.349 . S
C207 C209 1.327 . S
C207 H230 0.950 . S
C208 C207 1.349 . S
C208 C220 1.349 . S
C209 C207 1.327 . S
C209 C225 1.429 . S
C209 H231 0.950 . S
C210 H206 0.949 . S
C210 C218 1.574 . S
C210 C226 1.368 1_554 S
H211 C219 0.950 . S
H212 C217 0.950 1_556 S
H213 C218 0.949 . S
H214 C220 0.950 . S
H215 C221 0.950 . S
H216 C222 0.949 . S
C217 H212 0.950 1_554 S
C217 C219 1.327 . S
C217 C223 1.429 . S
C218 C210 1.574 . S
C218 H213 0.949 . S
C218 C224 1.368 . S
C219 C203 1.349 . S
C219 H211 0.950 . S
C219 C217 1.327 . S
C220 C208 1.349 . S
C220 H214 0.950 . S
C220 C221 1.327 . S
C221 H215 0.950 . S
C221 C220 1.327 . S
C221 C225 1.429 . S
C222 C205 1.574 . S
C222 H216 0.949 . S
C222 C226 1.368 . S
C223 C204 1.429 . S
C223 C217 1.429 . S
C223 C224 1.523 . S
C224 C205 1.368 1_554 S
C224 C218 1.368 . S
C224 C223 1.523 . S
C225 C209 1.429 . S
C225 C221 1.429 . S
C225 C226 1.523 . S
C226 C210 1.368 1_556 S
C226 C222 1.368 . S
C226 C225 1.523 . S
H227 C202 0.950 . S
H228 C204 0.950 . S
H229 C205 0.949 . S
H230 C207 0.950 . S
H231 C209 0.950 . S
C232 C233 1.349 . S
C232 C234 1.327 . S
C232 H257 0.950 . S
C233 C232 1.349 . S
C233 C249 1.349 . S
C234 C232 1.327 . S
C234 C253 1.429 . S
C234 H258 0.950 . S
C235 C252 1.574 1_655 S
C235 C254 1.368 . S
C235 H259 0.949 . S
H236 C240 0.949 . S
C237 C238 1.349 . S
C237 C239 1.327 . S
C237 H260 0.950 . S
C238 C237 1.349 . S
C238 C250 1.349 . S
C239 C237 1.327 . S
C239 C255 1.429 . S
C239 H261 0.950 . S
C240 H236 0.949 . S
C240 C248 1.574 1_455 S
C240 C256 1.368 . S
H241 C249 0.950 . S
H242 C247 0.950 . S
H243 C248 0.949 . S
H244 C250 0.950 . S
H245 C251 0.950 . S
H246 C252 0.949 . S
C247 H242 0.950 . S
C247 C249 1.327 . S
C247 C253 1.429 . S
C248 C240 1.574 1_655 S
C248 H243 0.949 . S
C248 C254 1.368 1_556 S
C249 C233 1.349 . S
C249 H241 0.950 . S
C249 C247 1.327 . S
C250 C238 1.349 . S
C250 H244 0.950 . S
C250 C251 1.327 . S
C251 H245 0.950 . S
C251 C250 1.327 . S
C251 C255 1.429 . S
C252 C235 1.574 1_455 S
C252 H246 0.949 . S
C252 C256 1.368 1_554 S
C253 C234 1.429 . S
C253 C247 1.429 . S
C253 C254 1.523 . S
C254 C235 1.368 . S
C254 C248 1.368 1_554 S
C254 C253 1.523 . S
C255 C239 1.429 . S
C255 C251 1.429 . S
C255 C256 1.523 . S
C256 C240 1.368 . S
C256 C252 1.368 1_556 S
C256 C255 1.523 . S
H257 C232 0.950 . S
H258 C234 0.950 . S
H259 C235 0.949 . S
H260 C237 0.950 . S
H261 C239 0.950 . S
C262 C263 1.349 . S
C262 C264 1.327 . S
C262 H287 0.950 . S
C263 C262 1.349 . S
C263 C279 1.349 . S
C264 C262 1.327 . S
C264 C283 1.429 . S
C264 H288 0.950 . S
C265 C282 1.574 . S
C265 C284 1.368 . S
C265 H289 0.949 . S
H266 C270 0.949 . S
C267 C268 1.349 . S
C267 C269 1.327 . S
C267 H290 0.950 . S
C268 C267 1.349 . S
C268 C280 1.349 . S
C269 C267 1.327 . S
C269 C285 1.429 . S
C269 H291 0.950 . S
C270 H266 0.949 . S
C270 C278 1.574 . S
C270 C286 1.368 . S
H271 C279 0.950 . S
H272 C277 0.950 . S
H273 C278 0.949 . S
H274 C280 0.950 . S
H275 C281 0.950 . S
H276 C282 0.949 . S
C277 H272 0.950 . S
C277 C279 1.327 . S
C277 C283 1.429 . S
C278 C270 1.574 . S
C278 H273 0.949 . S
C278 C284 1.368 1_655 S
C279 C263 1.349 . S
C279 H271 0.950 . S
C279 C277 1.327 . S
C280 C268 1.349 . S
C280 H274 0.950 . S
C280 C281 1.327 . S
C281 H275 0.950 . S
C281 C280 1.327 . S
C281 C285 1.429 . S
C282 C265 1.574 . S
C282 H276 0.949 . S
C282 C286 1.368 1_455 S
C283 C264 1.429 . S
C283 C277 1.429 . S
C283 C284 1.523 . S
C284 C265 1.368 . S
C284 C278 1.368 1_455 S
C284 C283 1.523 . S
C285 C269 1.429 . S
C285 C281 1.429 . S
C285 C286 1.523 . S
C286 C270 1.368 . S
C286 C282 1.368 1_655 S
C286 C285 1.523 . S
H287 C262 0.950 . S
H288 C264 0.950 . S
H289 C265 0.949 . S
H290 C267 0.950 . S
H291 C269 0.950 . S
C292 C293 1.349 . S
C292 C294 1.327 . S
C292 H317 0.950 . S
C293 C292 1.349 . S
C293 C309 1.349 . S
C294 C292 1.327 . S
C294 C313 1.429 . S
C294 H318 0.950 . S
C295 C312 1.574 . S
C295 C314 1.368 1_565 S
C295 H319 0.949 . S
H296 C300 0.949 . S
C297 C298 1.349 . S
C297 C299 1.327 . S
C297 H320 0.950 . S
C298 C297 1.349 . S
C298 C310 1.349 . S
C299 C297 1.327 . S
C299 C315 1.429 . S
C299 H321 0.950 . S
C300 H296 0.949 . S
C300 C308 1.574 . S
C300 C316 1.368 1_545 S
H301 C309 0.950 . S
H302 C307 0.950 . S
H303 C308 0.949 . S
H304 C310 0.950 . S
H305 C311 0.950 . S
H306 C312 0.949 . S
C307 H302 0.950 . S
C307 C309 1.327 . S
C307 C313 1.429 . S
C308 C300 1.574 . S
C308 H303 0.949 . S
C308 C314 1.368 1_554 S
C309 C293 1.349 . S
C309 H301 0.950 . S
C309 C307 1.327 . S
C310 C298 1.349 . S
C310 H304 0.950 . S
C310 C311 1.327 . S
C311 H305 0.950 . S
C311 C310 1.327 . S
C311 C315 1.429 . S
C312 C295 1.574 . S
C312 H306 0.949 . S
C312 C316 1.368 1_556 S
C313 C294 1.429 . S
C313 C307 1.429 . S
C313 C314 1.523 . S
C314 C295 1.368 1_545 S
C314 C308 1.368 1_556 S
C314 C313 1.523 . S
C315 C299 1.429 . S
C315 C311 1.429 . S
C315 C316 1.523 . S
C316 C300 1.368 1_565 S
C316 C312 1.368 1_554 S
C316 C315 1.523 . S
H317 C292 0.950 . S
H318 C294 0.950 . S
H319 C295 0.949 . S
H320 C297 0.950 . S
H321 C299 0.950 . S
C322 C323 1.349 . S
C322 C324 1.327 . S
C322 H347 0.950 . S
C323 C322 1.349 . S
C323 C339 1.349 . S
C324 C322 1.327 . S
C324 C343 1.429 . S
C324 H348 0.950 . S
C325 C342 1.574 1_565 S
C325 C344 1.368 . S
C325 H349 0.949 . S
H326 C330 0.949 . S
C327 C328 1.349 . S
C327 C329 1.327 . S
C327 H350 0.950 . S
C328 C327 1.349 . S
C328 C340 1.349 . S
C329 C327 1.327 . S
C329 C345 1.429 . S
C329 H351 0.950 . S
C330 H326 0.949 . S
C330 C338 1.574 1_545 S
C330 C346 1.368 . S
H331 C339 0.950 . S
H332 C337 0.950 . S
H333 C338 0.949 . S
H334 C340 0.950 . S
H335 C341 0.950 . S
H336 C342 0.949 . S
C337 H332 0.950 . S
C337 C339 1.327 . S
C337 C343 1.429 . S
C338 C330 1.574 1_565 S
C338 H333 0.949 . S
C338 C344 1.368 . S
C339 C323 1.349 . S
C339 H331 0.950 . S
C339 C337 1.327 . S
C340 C328 1.349 . S
C340 H334 0.950 . S
C340 C341 1.327 . S
C341 H335 0.950 . S
C341 C340 1.327 . S
C341 C345 1.429 . S
C342 C325 1.574 1_545 S
C342 H336 0.949 . S
C342 C346 1.368 . S
C343 C324 1.429 . S
C343 C337 1.429 . S
C343 C344 1.523 . S
C344 C325 1.368 . S
C344 C338 1.368 . S
C344 C343 1.523 . S
C345 C329 1.429 . S
C345 C341 1.429 . S
C345 C346 1.523 . S
C346 C330 1.368 . S
C346 C342 1.368 . S
C346 C345 1.523 . S
H347 C322 0.950 . S
H348 C324 0.950 . S
H349 C325 0.949 . S
H350 C327 0.950 . S
H351 C329 0.950 . S
C352 C353 1.349 . S
C352 C354 1.327 . S
C352 H377 0.950 . S
C353 C352 1.349 . S
C353 C369 1.349 . S
C354 C352 1.327 . S
C354 C373 1.429 . S
C354 H378 0.950 . S
C355 C372 1.574 . S
C355 C374 1.368 . S
C355 H379 0.949 . S
H356 C360 0.949 . S
C357 C358 1.349 . S
C357 C359 1.327 . S
C357 H380 0.950 . S
C358 C357 1.349 . S
C358 C370 1.349 . S
C359 C357 1.327 . S
C359 C375 1.429 . S
C359 H381 0.950 . S
C360 H356 0.949 . S
C360 C368 1.574 . S
C360 C376 1.368 . S
H361 C369 0.950 . S
H362 C367 0.950 . S
H363 C368 0.949 . S
H364 C370 0.950 . S
H365 C371 0.950 . S
H366 C372 0.949 . S
C367 H362 0.950 . S
C367 C369 1.327 . S
C367 C373 1.429 . S
C368 C360 1.574 . S
C368 H363 0.949 . S
C368 C374 1.368 . S
C369 C353 1.349 . S
C369 H361 0.950 . S
C369 C367 1.327 . S
C370 C358 1.349 . S
C370 H364 0.950 . S
C370 C371 1.327 . S
C371 H365 0.950 . S
C371 C370 1.327 . S
C371 C375 1.429 . S
C372 C355 1.574 . S
C372 H366 0.949 . S
C372 C376 1.368 . S
C373 C354 1.429 . S
C373 C367 1.429 . S
C373 C374 1.523 . S
C374 C355 1.368 . S
C374 C368 1.368 . S
C374 C373 1.523 . S
C375 C359 1.429 . S
C375 C371 1.429 . S
C375 C376 1.523 . S
C376 C360 1.368 . S
C376 C372 1.368 . S
C376 C375 1.523 . S
H377 C352 0.950 . S
H378 C354 0.950 . S
H379 C355 0.949 . S
H380 C357 0.950 . S
H381 C359 0.950 . S
C382 C383 1.349 . S
C382 C384 1.327 . S
C382 H407 0.950 . S
C383 C382 1.349 . S
C383 C399 1.349 . S
C384 C382 1.327 . S
C384 C403 1.429 . S
C384 H408 0.950 . S
C385 C402 1.574 1_556 S
C385 C404 1.368 . S
C385 H409 0.949 . S
H386 C390 0.949 . S
C387 C388 1.349 . S
C387 C389 1.327 . S
C387 H410 0.950 . S
C388 C387 1.349 . S
C388 C400 1.349 . S
C389 C387 1.327 . S
C389 C405 1.429 . S
C389 H411 0.950 . S
C390 H386 0.949 . S
C390 C398 1.574 1_554 S
C390 C406 1.368 . S
H391 C399 0.950 . S
H392 C397 0.950 . S
H393 C398 0.949 . S
H394 C400 0.950 . S
H395 C401 0.950 . S
H396 C402 0.949 . S
C397 H392 0.950 . S
C397 C399 1.327 . S
C397 C403 1.429 . S
C398 C390 1.574 1_556 S
C398 H393 0.949 . S
C398 C404 1.368 . S
C399 C383 1.349 . S
C399 H391 0.950 . S
C399 C397 1.327 . S
C400 C388 1.349 . S
C400 H394 0.950 . S
C400 C401 1.327 . S
C401 H395 0.950 . S
C401 C400 1.327 . S
C401 C405 1.429 . S
C402 C385 1.574 1_554 S
C402 H396 0.949 . S
C402 C406 1.368 . S
C403 C384 1.429 . S
C403 C397 1.429 . S
C403 C404 1.523 . S
C404 C385 1.368 . S
C404 C398 1.368 . S
C404 C403 1.523 . S
C405 C389 1.429 . S
C405 C401 1.429 . S
C405 C406 1.523 . S
C406 C390 1.368 . S
C406 C402 1.368 . S
C406 C405 1.523 . S
H407 C382 0.950 . S
H408 C384 0.950 . S
H409 C385 0.949 . S
H410 C387 0.950 . S
H411 C389 0.950 . S
C412 C413 1.349 . S
C412 C414 1.327 . S
C412 H437 0.950 . S
C413 C412 1.349 . S
C413 C429 1.349 . S
C414 C412 1.327 . S
C414 C433 1.429 . S
C414 H438 0.950 . S
C415 C432 1.574 . S
C415 C434 1.368 . S
C415 H439 0.949 . S
H416 C420 0.949 . S
C417 C418 1.349 . S
C417 C419 1.327 . S
C417 H440 0.950 . S
C418 C417 1.349 . S
C418 C430 1.349 . S
C419 C417 1.327 . S
C419 C435 1.429 . S
C419 H441 0.950 . S
C420 H416 0.949 . S
C420 C428 1.574 . S
C420 C436 1.368 . S
H421 C429 0.950 . S
H422 C427 0.950 . S
H423 C428 0.949 . S
H424 C430 0.950 . S
H425 C431 0.950 . S
H426 C432 0.949 . S
C427 H422 0.950 . S
C427 C429 1.327 . S
C427 C433 1.429 . S
C428 C420 1.574 . S
C428 H423 0.949 . S
C428 C434 1.368 . S
C429 C413 1.349 . S
C429 H421 0.950 . S
C429 C427 1.327 . S
C430 C418 1.349 . S
C430 H424 0.950 . S
C430 C431 1.327 . S
C431 H425 0.950 . S
C431 C430 1.327 . S
C431 C435 1.429 . S
C432 C415 1.574 . S
C432 H426 0.949 . S
C432 C436 1.368 . S
C433 C414 1.429 . S
C433 C427 1.429 . S
C433 C434 1.523 . S
C434 C415 1.368 . S
C434 C428 1.368 . S
C434 C433 1.523 . S
C435 C419 1.429 . S
C435 C431 1.429 . S
C435 C436 1.523 . S
C436 C420 1.368 . S
C436 C432 1.368 . S
C436 C435 1.523 . S
H437 C412 0.950 . S
H438 C414 0.950 . S
H439 C415 0.949 . S
H440 C417 0.950 . S
H441 C419 0.950 . S
C442 C443 1.349 . S
C442 C444 1.327 . S
C442 H467 0.950 . S
C443 C442 1.349 . S
C443 C459 1.349 . S
C444 C442 1.327 . S
C444 C463 1.429 . S
C444 H468 0.950 . S
C445 C462 1.574 1_554 S
C445 C464 1.368 . S
C445 H469 0.949 . S
H446 C450 0.949 . S
C447 C448 1.349 . S
C447 C449 1.327 . S
C447 H470 0.950 . S
C448 C447 1.349 . S
C448 C460 1.349 . S
C449 C447 1.327 . S
C449 C465 1.429 . S
C449 H471 0.950 . S
C450 H446 0.949 . S
C450 C458 1.574 1_556 S
C450 C466 1.368 . S
H451 C459 0.950 . S
H452 C457 0.950 . S
H453 C458 0.949 . S
H454 C460 0.950 . S
H455 C461 0.950 . S
H456 C462 0.949 . S
C457 H452 0.950 . S
C457 C459 1.327 . S
C457 C463 1.429 . S
C458 C450 1.574 1_554 S
C458 H453 0.949 . S
C458 C464 1.368 . S
C459 C443 1.349 . S
C459 H451 0.950 . S
C459 C457 1.327 . S
C460 C448 1.349 . S
C460 H454 0.950 . S
C460 C461 1.327 . S
C461 H455 0.950 . S
C461 C460 1.327 . S
C461 C465 1.429 . S
C462 C445 1.574 1_556 S
C462 H456 0.949 . S
C462 C466 1.368 . S
C463 C444 1.429 . S
C463 C457 1.429 . S
C463 C464 1.523 . S
C464 C445 1.368 . S
C464 C458 1.368 . S
C464 C463 1.523 . S
C465 C449 1.429 . S
C465 C461 1.429 . S
C465 C466 1.523 . S
C466 C450 1.368 . S
C466 C462 1.368 . S
C466 C465 1.523 . S
H467 C442 0.950 . S
H468 C444 0.950 . S
H469 C445 0.949 . S
H470 C447 0.950 . S
H471 C449 0.950 . S
C472 C473 1.349 . S
C472 C474 1.327 . S
C472 H497 0.950 . S
C473 C472 1.349 . S
C473 C489 1.349 . S
C474 C472 1.327 . S
C474 C493 1.429 . S
C474 H498 0.950 . S
C475 C492 1.574 . S
C475 C494 1.368 . S
C475 H499 0.949 . S
H476 C480 0.949 . S
C477 C478 1.349 . S
C477 C479 1.327 . S
C477 H500 0.950 . S
C478 C477 1.349 . S
C478 C490 1.349 . S
C479 C477 1.327 . S
C479 C495 1.429 . S
C479 H501 0.950 . S
C480 H476 0.949 . S
C480 C488 1.574 . S
C480 C496 1.368 . S
H481 C489 0.950 . S
H482 C487 0.950 . S
H483 C488 0.949 . S
H484 C490 0.950 . S
H485 C491 0.950 . S
H486 C492 0.949 . S
C487 H482 0.950 . S
C487 C489 1.327 . S
C487 C493 1.429 . S
C488 C480 1.574 . S
C488 H483 0.949 . S
C488 C494 1.368 . S
C489 C473 1.349 . S
C489 H481 0.950 . S
C489 C487 1.327 . S
C490 C478 1.349 . S
C490 H484 0.950 . S
C490 C491 1.327 . S
C491 H485 0.950 . S
C491 C490 1.327 . S
C491 C495 1.429 . S
C492 C475 1.574 . S
C492 H486 0.949 . S
C492 C496 1.368 . S
C493 C474 1.429 . S
C493 C487 1.429 . S
C493 C494 1.523 . S
C494 C475 1.368 . S
C494 C488 1.368 . S
C494 C493 1.523 . S
C495 C479 1.429 . S
C495 C491 1.429 . S
C495 C496 1.523 . S
C496 C480 1.368 . S
C496 C492 1.368 . S
C496 C495 1.523 . S
H497 C472 0.950 . S
H498 C474 0.950 . S
H499 C475 0.949 . S
H500 C477 0.950 . S
H501 C479 0.950 . S
C502 C503 1.349 . S
C502 C504 1.327 . S
C502 H527 0.950 . S
C503 C502 1.349 . S
C503 C519 1.349 . S
C504 C502 1.327 . S
C504 C523 1.429 . S
C504 H528 0.950 . S
C505 C522 1.574 . S
C505 C524 1.368 . S
C505 H529 0.949 . S
H506 C510 0.949 . S
C507 C508 1.349 . S
C507 C509 1.327 . S
C507 H530 0.950 . S
C508 C507 1.349 . S
C508 C520 1.349 . S
C509 C507 1.327 . S
C509 C525 1.429 . S
C509 H531 0.950 . S
C510 H506 0.949 . S
C510 C518 1.574 . S
C510 C526 1.368 . S
H511 C519 0.950 . S
H512 C517 0.950 . S
H513 C518 0.949 . S
H514 C520 0.950 . S
H515 C521 0.950 . S
H516 C522 0.949 . S
C517 H512 0.950 . S
C517 C519 1.327 . S
C517 C523 1.429 . S
C518 C510 1.574 . S
C518 H513 0.949 . S
C518 C524 1.368 . S
C519 C503 1.349 . S
C519 H511 0.950 . S
C519 C517 1.327 . S
C520 C508 1.349 . S
C520 H514 0.950 . S
C520 C521 1.327 . S
C521 H515 0.950 . S
C521 C520 1.327 . S
C521 C525 1.429 . S
C522 C505 1.574 . S
C522 H516 0.949 . S
C522 C526 1.368 . S
C523 C504 1.429 . S
C523 C517 1.429 . S
C523 C524 1.523 . S
C524 C505 1.368 . S
C524 C518 1.368 . S
C524 C523 1.523 . S
C525 C509 1.429 . S
C525 C521 1.429 . S
C525 C526 1.523 . S
C526 C510 1.368 . S
C526 C522 1.368 . S
C526 C525 1.523 . S
H527 C502 0.950 . S
H528 C504 0.950 . S
H529 C505 0.949 . S
H530 C507 0.950 . S
H531 C509 0.950 . S
C532 C533 1.349 . S
C532 C534 1.327 . S
C532 H557 0.950 . S
C533 C532 1.349 . S
C533 C549 1.349 . S
C534 C532 1.327 . S
C534 C553 1.429 . S
C534 H558 0.950 . S
C535 C552 1.574 1_455 S
C535 C554 1.368 . S
C535 H559 0.949 . S
H536 C540 0.949 . S
C537 C538 1.349 . S
C537 C539 1.327 . S
C537 H560 0.950 . S
C538 C537 1.349 . S
C538 C550 1.349 . S
C539 C537 1.327 . S
C539 C555 1.429 . S
C539 H561 0.950 . S
C540 H536 0.949 . S
C540 C548 1.574 1_655 S
C540 C556 1.368 . S
H541 C549 0.950 . S
H542 C547 0.950 . S
H543 C548 0.949 . S
H544 C550 0.950 . S
H545 C551 0.950 . S
H546 C552 0.949 . S
C547 H542 0.950 . S
C547 C549 1.327 . S
C547 C553 1.429 . S
C548 C540 1.574 1_455 S
C548 H543 0.949 . S
C548 C554 1.368 . S
C549 C533 1.349 . S
C549 H541 0.950 . S
C549 C547 1.327 . S
C550 C538 1.349 . S
C550 H544 0.950 . S
C550 C551 1.327 . S
C551 H545 0.950 . S
C551 C550 1.327 . S
C551 C555 1.429 . S
C552 C535 1.574 1_655 S
C552 H546 0.949 . S
C552 C556 1.368 . S
C553 C534 1.429 . S
C553 C547 1.429 . S
C553 C554 1.523 . S
C554 C535 1.368 . S
C554 C548 1.368 . S
C554 C553 1.523 . S
C555 C539 1.429 . S
C555 C551 1.429 . S
C555 C556 1.523 . S
C556 C540 1.368 . S
C556 C552 1.368 . S
C556 C555 1.523 . S
H557 C532 0.950 . S
H558 C534 0.950 . S
H559 C535 0.949 . S
H560 C537 0.950 . S
H561 C539 0.950 . S
C562 C563 1.349 . S
C562 C564 1.327 . S
C562 H587 0.950 . S
C563 C562 1.349 . S
C563 C579 1.349 . S
C564 C562 1.327 . S
C564 C583 1.429 . S
C564 H588 0.950 . S
C565 C582 1.574 1_455 S
C565 C584 1.368 . S
C565 H589 0.949 . S
H566 C570 0.949 . S
C567 C568 1.349 . S
C567 C569 1.327 . S
C567 H590 0.950 . S
C568 C567 1.349 . S
C568 C580 1.349 . S
C569 C567 1.327 . S
C569 C585 1.429 . S
C569 H591 0.950 . S
C570 H566 0.949 . S
C570 C578 1.574 1_655 S
C570 C586 1.368 . S
H571 C579 0.950 . S
H572 C577 0.950 . S
H573 C578 0.949 . S
H574 C580 0.950 . S
H575 C581 0.950 . S
H576 C582 0.949 . S
C577 H572 0.950 . S
C577 C579 1.327 . S
C577 C583 1.429 . S
C578 C570 1.574 1_455 S
C578 H573 0.949 . S
C578 C584 1.368 . S
C579 C563 1.349 . S
C579 H571 0.950 . S
C579 C577 1.327 . S
C580 C568 1.349 . S
C580 H574 0.950 . S
C580 C581 1.327 . S
C581 H575 0.950 . S
C581 C580 1.327 . S
C581 C585 1.429 . S
C582 C565 1.574 1_655 S
C582 H576 0.949 . S
C582 C586 1.368 . S
C583 C564 1.429 . S
C583 C577 1.429 . S
C583 C584 1.523 . S
C584 C565 1.368 . S
C584 C578 1.368 . S
C584 C583 1.523 . S
C585 C569 1.429 . S
C585 C581 1.429 . S
C585 C586 1.523 . S
C586 C570 1.368 . S
C586 C582 1.368 . S
C586 C585 1.523 . S
H587 C562 0.950 . S
H588 C564 0.950 . S
H589 C565 0.949 . S
H590 C567 0.950 . S
H591 C569 0.950 . S
C113 C11 1.911 . S
C118 C33 1.925 . S
C143 C47 1.925 . S
C148 C25 1.911 . S
C173 C89 1.925 . S
C178 C67 1.911 . S
C203 C81 1.911 . S
C208 C103 1.925 . S
C233 C23 1.156 . S
C238 C42 1.147 . S
C263 C9 1.156 . S
C268 C28 1.147 . S
C293 C98 1.147 . S
C298 C79 1.156 . S
C323 C65 1.156 . S
C328 C84 1.147 . S
C353 C70 1.510 . S
C358 C51 1.519 . S
C383 C37 1.519 . S
C388 C56 1.510 . S
C413 C14 1.510 . S
C418 C107 1.519 . S
C443 C0 1.510 . S
C448 C93 1.519 . S
C473 C5 1.528 . S
C478 C19 1.528 . S
C503 C39 1.592 . S
C508 C53 1.592 . S
C533 C75 1.528 . S
C538 C61 1.528 . S
C563 C95 1.592 . S
C568 C109 1.592 . S
