# Generated by pormake.
# Topology wld, (5)-cn, num edge types: 1
# Building blocks:
#     Node 0, Type 0, BuildingBlock: XOMCOT_clean_sbu_0, # of connection points: 5
#     Node 1, Type 0, BuildingBlock: XOMCOT_clean_sbu_0, # of connection points: 5
#     Node 2, Type 0, BuildingBlock: XOMCOT_clean_sbu_0, # of connection points: 5
#     Node 3, Type 0, BuildingBlock: XOMCOT_clean_sbu_0, # of connection points: 5
#     Node 4, Type 0, BuildingBlock: XOMCOT_clean_sbu_0, # of connection points: 5
#     Node 5, Type 0, BuildingBlock: XOMCOT_clean_sbu_0, # of connection points: 5
#     Node 6, Type 0, BuildingBlock: XOMCOT_clean_sbu_0, # of connection points: 5
#     Node 7, Type 0, BuildingBlock: XOMCOT_clean_sbu_0, # of connection points: 5
#     Node 8, Type 0, BuildingBlock: XOMCOT_clean_sbu_0, # of connection points: 5
#     Node 9, Type 0, BuildingBlock: XOMCOT_clean_sbu_0, # of connection points: 5
#     Node 10, Type 0, BuildingBlock: XOMCOT_clean_sbu_0, # of connection points: 5
#     Node 11, Type 0, BuildingBlock: XOMCOT_clean_sbu_0, # of connection points: 5
#     Edge 12, Type (0, 0), BuildingBlock: XIVTED_clean_linker_0, # of connection points: 2
#     Edge 13, Type (0, 0), BuildingBlock: XIVTED_clean_linker_0, # of connection points: 2
#     Edge 14, Type (0, 0), BuildingBlock: XIVTED_clean_linker_0, # of connection points: 2
#     Edge 15, Type (0, 0), BuildingBlock: XIVTED_clean_linker_0, # of connection points: 2
#     Edge 16, Type (0, 0), BuildingBlock: XIVTED_clean_linker_0, # of connection points: 2
#     Edge 17, Type (0, 0), BuildingBlock: XIVTED_clean_linker_0, # of connection points: 2
#     Edge 18, Type (0, 0), BuildingBlock: XIVTED_clean_linker_0, # of connection points: 2
#     Edge 19, Type (0, 0), BuildingBlock: XIVTED_clean_linker_0, # of connection points: 2
#     Edge 20, Type (0, 0), BuildingBlock: XIVTED_clean_linker_0, # of connection points: 2
#     Edge 21, Type (0, 0), BuildingBlock: XIVTED_clean_linker_0, # of connection points: 2
#     Edge 22, Type (0, 0), BuildingBlock: XIVTED_clean_linker_0, # of connection points: 2
#     Edge 23, Type (0, 0), BuildingBlock: XIVTED_clean_linker_0, # of connection points: 2
#     Edge 24, Type (0, 0), BuildingBlock: XIVTED_clean_linker_0, # of connection points: 2
#     Edge 25, Type (0, 0), BuildingBlock: XIVTED_clean_linker_0, # of connection points: 2
#     Edge 26, Type (0, 0), BuildingBlock: XIVTED_clean_linker_0, # of connection points: 2
#     Edge 27, Type (0, 0), BuildingBlock: XIVTED_clean_linker_0, # of connection points: 2
#     Edge 28, Type (0, 0), BuildingBlock: XIVTED_clean_linker_0, # of connection points: 2
#     Edge 29, Type (0, 0), BuildingBlock: XIVTED_clean_linker_0, # of connection points: 2
#     Edge 30, Type (0, 0), BuildingBlock: XIVTED_clean_linker_0, # of connection points: 2
#     Edge 31, Type (0, 0), BuildingBlock: XIVTED_clean_linker_0, # of connection points: 2
#     Edge 32, Type (0, 0), BuildingBlock: XIVTED_clean_linker_0, # of connection points: 2
#     Edge 33, Type (0, 0), BuildingBlock: XIVTED_clean_linker_0, # of connection points: 2
#     Edge 34, Type (0, 0), BuildingBlock: XIVTED_clean_linker_0, # of connection points: 2
#     Edge 35, Type (0, 0), BuildingBlock: XIVTED_clean_linker_0, # of connection points: 2
#     Edge 36, Type (0, 0), BuildingBlock: XIVTED_clean_linker_0, # of connection points: 2
#     Edge 37, Type (0, 0), BuildingBlock: XIVTED_clean_linker_0, # of connection points: 2
#     Edge 38, Type (0, 0), BuildingBlock: XIVTED_clean_linker_0, # of connection points: 2
#     Edge 39, Type (0, 0), BuildingBlock: XIVTED_clean_linker_0, # of connection points: 2
#     Edge 40, Type (0, 0), BuildingBlock: XIVTED_clean_linker_0, # of connection points: 2
#     Edge 41, Type (0, 0), BuildingBlock: XIVTED_clean_linker_0, # of connection points: 2
# Relax obj value: 0.214
# Max RMSD: 0.221
# Mean RMSD: 0.221
data_MOF--net-wld--node1-XOMCOT_clean_sbu_0--edge1-XIVTED_clean_linker_0
_symmetry_space_group_name_H-M    P1
_symmetry_Int_Tables_number       1
_symmetry_cell_setting            triclinic
loop_
_symmetry_equiv_pos_as_xyz
'x, y, z'
_cell_length_a     38.038605
_cell_length_b     38.036959
_cell_length_c     51.650263
_cell_angle_alpha  89.989767
_cell_angle_beta   90.022238
_cell_angle_gamma 119.99575
loop_
_atom_site_label
_atom_site_type_symbol
_atom_site_fract_x
_atom_site_fract_y
_atom_site_fract_z
_atom_type_partial_charge
Co0 Co 0.39261 0.25132 0.0855 0.0
C1 C 0.34092 0.28307 0.06213 0.0
C2 C 0.40174 0.31145 0.04743 0.0
C3 C 0.38187 0.32871 0.03545 0.0
N4 N 0.37661 0.28362 0.06473 0.0
N5 N 0.34374 0.31083 0.04471 0.0
H6 H 0.31333 0.26299 0.07227 0.0
H7 H 0.43265 0.31872 0.04378 0.0
C8 C 0.45196 0.33724 0.09885 0.0
O9 O 0.42147 0.34421 0.10009 0.0
N10 N 0.41032 0.21979 0.10495 0.0
C11 C 0.38979 0.19001 0.12234 0.0
C12 C 0.41446 0.17493 0.13018 0.0
C13 C 0.4466 0.22221 0.1022 0.0
N14 N 0.44999 0.19514 0.11729 0.0
C15 C 0.32597 0.23807 0.11835 0.0
C16 C 0.3724 0.27589 0.16158 0.0
C17 C 0.33025 0.2589 0.163 0.0
C18 C 0.30685 0.23958 0.14108 0.0
C19 C 0.39022 0.27409 0.13844 0.0
N20 N 0.36729 0.25704 0.11676 0.0
H21 H 0.30735 0.22034 0.10235 0.0
H22 H 0.42245 0.28521 0.13838 0.0
H23 H 0.35895 0.17954 0.12853 0.0
H24 H 0.46992 0.24322 0.08914 0.0
O25 O 0.34766 0.202 0.07191 0.0
O26 O 0.40881 0.23598 0.05408 0.0
O27 O 0.44579 0.30172 0.09374 0.0
C28 C 0.37224 0.20478 0.05347 0.0
H29 H 0.39412 0.35186 0.02058 0.0
H30 H 0.40641 0.15017 0.14357 0.0
H31 H 0.39154 0.29037 0.17825 0.0
H32 H 0.27403 0.22465 0.14174 0.0
Co33 Co 0.74989 0.14233 0.08822 0.0
C34 C 0.71953 0.06191 0.0639 0.0
C35 C 0.67952 0.08569 0.05741 0.0
C36 C 0.66298 0.04815 0.04593 0.0
N37 N 0.71469 0.09404 0.06884 0.0
N38 N 0.68816 0.03334 0.05 0.0
H39 H 0.74517 0.05935 0.07051 0.0
H40 H 0.66686 0.10557 0.05723 0.0
C41 C 0.68963 0.15393 0.11951 0.0
O42 O 0.71069 0.15825 0.14064 0.0
N43 N 0.78545 0.19223 0.10689 0.0
C44 C 0.82492 0.2073 0.11326 0.0
C45 C 0.84146 0.24738 0.12034 0.0
C46 C 0.7793 0.22412 0.10932 0.0
N47 N 0.81259 0.25772 0.1179 0.0
C48 C 0.77599 0.11078 0.13011 0.0
C49 C 0.69918 0.05696 0.14833 0.0
C50 C 0.73303 0.06118 0.16184 0.0
C51 C 0.77181 0.08796 0.15223 0.0
C52 C 0.7048 0.08072 0.12646 0.0
N53 N 0.7429 0.10876 0.11836 0.0
H54 H 0.80582 0.12939 0.12223 0.0
H55 H 0.67836 0.0768 0.11614 0.0
H56 H 0.84211 0.19205 0.11058 0.0
H57 H 0.75233 0.22405 0.10264 0.0
O58 O 0.7967 0.14338 0.07281 0.0
O59 O 0.76421 0.17342 0.05675 0.0
O60 O 0.70129 0.1475 0.09772 0.0
C61 C 0.7939 0.16584 0.0548 0.0
H62 H 0.63508 0.0333 0.03487 0.0
H63 H 0.87284 0.2679 0.12543 0.0
H64 H 0.66863 0.0361 0.15489 0.0
H65 H 0.79866 0.09082 0.16152 0.0
Co66 Co 0.85319 0.60458 0.08702 0.0
C67 C 0.93379 0.65232 0.06263 0.0
C68 C 0.90742 0.58837 0.05548 0.0
C69 C 0.94487 0.60829 0.04382 0.0
N70 N 0.90073 0.61595 0.06741 0.0
N71 N 0.96133 0.64841 0.0483 0.0
H72 H 0.93767 0.6809 0.06958 0.0
H73 H 0.88636 0.55606 0.05499 0.0
C74 C 0.83116 0.52832 0.11667 0.0
O75 O 0.81982 0.54205 0.13638 0.0
N76 N 0.80414 0.59202 0.10627 0.0
C77 C 0.79906 0.60455 0.12982 0.0
C78 C 0.75841 0.58369 0.13614 0.0
C79 C 0.7663 0.56419 0.09865 0.0
N80 N 0.73815 0.55874 0.11638 0.0
C81 C 0.8939 0.66709 0.12519 0.0
C82 C 0.93427 0.63241 0.14898 0.0
C83 C 0.93778 0.66802 0.15947 0.0
C84 C 0.91798 0.68595 0.14691 0.0
C85 C 0.90995 0.61465 0.12733 0.0
N86 N 0.88801 0.63052 0.11674 0.0
H87 H 0.87846 0.68097 0.11583 0.0
H88 H 0.90911 0.5882 0.1191 0.0
H89 H 0.82268 0.62536 0.14257 0.0
H90 H 0.75949 0.54657 0.08103 0.0
O91 O 0.85328 0.65115 0.07175 0.0
O92 O 0.82213 0.58887 0.05549 0.0
O93 O 0.84566 0.5497 0.09623 0.0
C94 C 0.83051 0.62635 0.05366 0.0
H95 H 0.9585 0.59447 0.0323 0.0
H96 H 0.74487 0.58594 0.15404 0.0
H97 H 0.94946 0.6177 0.1577 0.0
H98 H 0.92085 0.71414 0.15385 0.0
Co99 Co 0.24734 0.38884 0.40948 0.0
C100 C 0.27889 0.33755 0.43309 0.0
C101 C 0.31546 0.40093 0.44163 0.0
C102 C 0.33238 0.38082 0.45368 0.0
N103 N 0.28276 0.37419 0.42787 0.0
N104 N 0.30938 0.34104 0.44828 0.0
H105 H 0.25396 0.30881 0.42693 0.0
H106 H 0.32581 0.43297 0.44342 0.0
C107 C 0.33027 0.44991 0.39089 0.0
O108 O 0.33741 0.41997 0.38661 0.0
N109 N 0.21288 0.40519 0.39238 0.0
C110 C 0.18143 0.38412 0.37614 0.0
C111 C 0.16563 0.40858 0.36928 0.0
C112 C 0.21551 0.44148 0.39547 0.0
N113 N 0.18707 0.44442 0.38166 0.0
C114 C 0.23465 0.32258 0.37621 0.0
C115 C 0.26423 0.36859 0.33174 0.0
C116 C 0.25141 0.32713 0.33071 0.0
C117 C 0.23591 0.30386 0.35323 0.0
C118 C 0.26281 0.38605 0.35513 0.0
N119 N 0.25027 0.36358 0.37737 0.0
H120 H 0.21979 0.30381 0.39275 0.0
H121 H 0.27125 0.41769 0.35519 0.0
H122 H 0.17065 0.35324 0.36991 0.0
H123 H 0.23792 0.46529 0.40768 0.0
O124 O 0.20004 0.34353 0.42483 0.0
O125 O 0.23526 0.4051 0.442 0.0
O126 O 0.29583 0.44259 0.39964 0.0
C127 C 0.20435 0.36844 0.44348 0.0
H128 H 0.35856 0.39413 0.46635 0.0
H129 H 0.13984 0.40036 0.35675 0.0
H130 H 0.27569 0.38758 0.31468 0.0
H131 H 0.22404 0.27137 0.35294 0.0
Co132 Co 0.605 0.85253 0.41102 0.0
C133 C 0.65393 0.93528 0.435 0.0
C134 C 0.59028 0.90703 0.44304 0.0
C135 C 0.60948 0.94377 0.45547 0.0
N136 N 0.61778 0.90217 0.42933 0.0
N137 N 0.64944 0.96145 0.45041 0.0
H138 H 0.68304 0.93977 0.42908 0.0
H139 H 0.5584 0.8847 0.4446 0.0
C140 C 0.54346 0.87278 0.39188 0.0
O141 O 0.57366 0.90974 0.38767 0.0
N142 N 0.59112 0.80226 0.39396 0.0
C143 C 0.61575 0.7933 0.38029 0.0
C144 C 0.59393 0.75314 0.37291 0.0
C145 C 0.555 0.7678 0.39491 0.0
N146 N 0.55573 0.73718 0.38215 0.0
C147 C 0.67023 0.90777 0.37734 0.0
C148 C 0.62338 0.88738 0.33301 0.0
C149 C 0.66444 0.91718 0.33146 0.0
C150 C 0.68815 0.92699 0.35397 0.0
C151 C 0.60688 0.86902 0.35663 0.0
N152 N 0.62958 0.88083 0.37879 0.0
H153 H 0.68944 0.91341 0.39393 0.0
H154 H 0.57568 0.84475 0.35696 0.0
H155 H 0.64741 0.81433 0.37629 0.0
H156 H 0.52921 0.76498 0.40554 0.0
O157 O 0.65134 0.8528 0.42655 0.0
O158 O 0.58955 0.8243 0.4436 0.0
O159 O 0.5505 0.84555 0.4009 0.0
C160 C 0.62684 0.83186 0.44528 0.0
H161 H 0.59544 0.95576 0.46825 0.0
H162 H 0.60541 0.73699 0.36173 0.0
H163 H 0.60387 0.87834 0.31614 0.0
H164 H 0.72041 0.94853 0.35342 0.0
Co165 Co 0.14275 0.7493 0.41055 0.0
C166 C 0.06232 0.71688 0.43548 0.0
C167 C 0.08916 0.67967 0.44256 0.0
C168 C 0.05182 0.66192 0.45431 0.0
N169 N 0.09551 0.71382 0.4306 0.0
N170 N 0.03506 0.68531 0.44986 0.0
H171 H 0.0581 0.74136 0.42851 0.0
H172 H 0.11031 0.66853 0.44293 0.0
C173 C 0.15959 0.6918 0.38039 0.0
O174 O 0.1659 0.71386 0.35947 0.0
N175 N 0.19162 0.78454 0.39111 0.0
C176 C 0.20206 0.8184 0.37717 0.0
C177 C 0.24219 0.83546 0.36991 0.0
C178 C 0.2259 0.78243 0.39274 0.0
N179 N 0.25702 0.81264 0.37969 0.0
C180 C 0.10445 0.77127 0.37052 0.0
C181 C 0.06401 0.69558 0.34762 0.0
C182 C 0.06502 0.72858 0.3349 0.0
C183 C 0.08377 0.76644 0.34723 0.0
C184 C 0.0847 0.70179 0.37095 0.0
N185 N 0.10786 0.74002 0.38073 0.0
H186 H 0.11814 0.80029 0.38013 0.0
H187 H 0.08286 0.67585 0.38074 0.0
H188 H 0.1832 0.83149 0.37344 0.0
H189 H 0.22836 0.76006 0.40434 0.0
O190 O 0.14329 0.79634 0.42531 0.0
O191 O 0.17479 0.7655 0.44162 0.0
O192 O 0.14967 0.70156 0.40169 0.0
C193 C 0.16665 0.79482 0.4432 0.0
H194 H 0.0384 0.63445 0.46581 0.0
H195 H 0.25925 0.86304 0.35879 0.0
H196 H 0.04792 0.66535 0.33938 0.0
H197 H 0.08379 0.79236 0.33854 0.0
Co198 Co 0.60756 0.75375 0.90949 0.0
C199 C 0.65795 0.72108 0.93257 0.0
C200 C 0.59422 0.68288 0.93931 0.0
C201 C 0.61421 0.66578 0.95128 0.0
N202 N 0.62133 0.71676 0.92665 0.0
N203 N 0.65421 0.68982 0.94704 0.0
H204 H 0.68678 0.74704 0.92759 0.0
H205 H 0.56204 0.67202 0.94067 0.0
C206 C 0.54558 0.67249 0.88919 0.0
O207 O 0.57539 0.66577 0.88348 0.0
N208 N 0.59269 0.79014 0.89351 0.0
C209 C 0.61672 0.82453 0.88037 0.0
C210 C 0.59385 0.84187 0.87324 0.0
C211 C 0.55591 0.787 0.89439 0.0
N212 N 0.55562 0.81815 0.88208 0.0
C213 C 0.67269 0.76566 0.8752 0.0
C214 C 0.62578 0.74083 0.83085 0.0
C215 C 0.66694 0.75249 0.82905 0.0
C216 C 0.69066 0.76562 0.85159 0.0
C217 C 0.60923 0.74153 0.85472 0.0
N218 N 0.63201 0.75163 0.87683 0.0
H219 H 0.69187 0.77844 0.89188 0.0
H220 H 0.57793 0.73424 0.85532 0.0
H221 H 0.64859 0.83624 0.87643 0.0
H222 H 0.53029 0.76298 0.90457 0.0
O223 O 0.65369 0.79971 0.92532 0.0
O224 O 0.59215 0.76494 0.94259 0.0
O225 O 0.5532 0.70628 0.89931 0.0
C226 C 0.62921 0.79509 0.94432 0.0
H227 H 0.6006 0.63884 0.96329 0.0
H228 H 0.60459 0.86974 0.8624 0.0
H229 H 0.60621 0.73085 0.81401 0.0
H230 H 0.72297 0.77663 0.85092 0.0
Co231 Co 0.2451 0.85296 0.91021 0.0
C232 C 0.27933 0.93543 0.93509 0.0
C233 C 0.31299 0.90547 0.94359 0.0
C234 C 0.33116 0.94212 0.95614 0.0
N235 N 0.28129 0.90167 0.92959 0.0
N236 N 0.30998 0.96087 0.95077 0.0
H237 H 0.25576 0.94119 0.92864 0.0
H238 H 0.3219 0.88262 0.945 0.0
C239 C 0.32759 0.87569 0.89107 0.0
O240 O 0.33413 0.9128 0.88794 0.0
N241 N 0.20973 0.80346 0.89207 0.0
C242 C 0.17608 0.79414 0.87836 0.0
C243 C 0.15897 0.75438 0.8702 0.0
C244 C 0.21265 0.76968 0.89226 0.0
N245 N 0.18209 0.73911 0.87899 0.0
C246 C 0.23322 0.9089 0.87865 0.0
C247 C 0.26197 0.89384 0.83333 0.0
C248 C 0.2498 0.92301 0.83322 0.0
C249 C 0.2347 0.93009 0.85617 0.0
C250 C 0.26029 0.87373 0.85622 0.0
N251 N 0.24833 0.88305 0.87892 0.0
H252 H 0.21855 0.91225 0.89551 0.0
H253 H 0.26819 0.85015 0.85553 0.0
H254 H 0.16455 0.81457 0.87488 0.0
H255 H 0.23593 0.76722 0.90279 0.0
O256 O 0.19847 0.85125 0.92633 0.0
O257 O 0.2326 0.82273 0.94204 0.0
O258 O 0.29323 0.84767 0.89936 0.0
C259 C 0.20238 0.82944 0.94431 0.0
H260 H 0.35703 0.95349 0.96903 0.0
H261 H 0.13154 0.738 0.85884 0.0
H262 H 0.27308 0.88678 0.81592 0.0
H263 H 0.22323 0.95104 0.85659 0.0
Co264 Co 0.14113 0.39187 0.90917 0.0
C265 C 0.05817 0.34187 0.93261 0.0
C266 C 0.08303 0.40582 0.93785 0.0
C267 C 0.04592 0.38614 0.9498 0.0
N268 N 0.0902 0.37833 0.92607 0.0
N269 N 0.03036 0.346 0.94648 0.0
H270 H 0.05571 0.31294 0.92855 0.0
H271 H 0.10407 0.43812 0.93863 0.0
C272 C 0.12105 0.45231 0.88715 0.0
O273 O 0.08457 0.42194 0.88195 0.0
N274 N 0.19268 0.40688 0.89358 0.0
C275 C 0.20467 0.38281 0.88223 0.0
C276 C 0.24533 0.40612 0.8762 0.0
C277 C 0.2257 0.44408 0.89442 0.0
N278 N 0.25858 0.44473 0.88397 0.0
C279 C 0.08745 0.32542 0.87595 0.0
C280 C 0.1093 0.36995 0.83061 0.0
C281 C 0.07868 0.32913 0.82982 0.0
C282 C 0.06832 0.30655 0.8528 0.0
C283 C 0.12736 0.38758 0.85416 0.0
N284 N 0.11471 0.36603 0.87674 0.0
H285 H 0.08115 0.30703 0.89299 0.0
H286 H 0.15167 0.41879 0.8542 0.0
H287 H 0.18554 0.35049 0.87923 0.0
H288 H 0.22547 0.46983 0.90306 0.0
O289 O 0.14118 0.34645 0.92579 0.0
O290 O 0.16774 0.40846 0.94231 0.0
O291 O 0.14749 0.44559 0.8978 0.0
C292 C 0.16105 0.3715 0.94453 0.0
H293 H 0.0323 0.40013 0.96117 0.0
H294 H 0.2638 0.39498 0.86759 0.0
H295 H 0.11877 0.38842 0.81326 0.0
H296 H 0.0461 0.27445 0.85282 0.0
Co297 Co 0.75147 0.60768 0.58961 0.0
C298 C 0.72255 0.65814 0.56376 0.0
C299 C 0.68445 0.59447 0.55582 0.0
C300 C 0.668 0.61517 0.54388 0.0
N301 N 0.71831 0.62133 0.56846 0.0
N302 N 0.69191 0.65507 0.5489 0.0
H303 H 0.74692 0.68631 0.57144 0.0
H304 H 0.67247 0.56203 0.55532 0.0
C305 C 0.68842 0.53622 0.62009 0.0
O306 O 0.70713 0.55291 0.64185 0.0
N307 N 0.78439 0.59206 0.61059 0.0
C308 C 0.79283 0.59687 0.63627 0.0
C309 C 0.81105 0.5748 0.64326 0.0
C310 C 0.79808 0.5672 0.60254 0.0
N311 N 0.81442 0.55647 0.62195 0.0
C312 C 0.77766 0.66944 0.62827 0.0
C313 C 0.70136 0.64767 0.64699 0.0
C314 C 0.73561 0.67906 0.65921 0.0
C315 C 0.77411 0.69055 0.64924 0.0
C316 C 0.70634 0.62707 0.62626 0.0
N317 N 0.74424 0.63649 0.61821 0.0
H318 H 0.80751 0.67826 0.62086 0.0
H319 H 0.6797 0.60329 0.61681 0.0
H320 H 0.78372 0.61235 0.64983 0.0
H321 H 0.79381 0.55471 0.58324 0.0
O322 O 0.79996 0.65225 0.57484 0.0
O323 O 0.76658 0.58982 0.55882 0.0
O324 O 0.70174 0.5546 0.59855 0.0
C325 C 0.79709 0.62668 0.55708 0.0
H326 H 0.64084 0.602 0.53207 0.0
H327 H 0.81957 0.5711 0.66263 0.0
H328 H 0.67102 0.63832 0.65384 0.0
H329 H 0.80123 0.71537 0.65772 0.0
Co330 Co 0.39184 0.14294 0.58919 0.0
C331 C 0.34243 0.06043 0.56497 0.0
C332 C 0.40635 0.08702 0.55851 0.0
C333 C 0.38698 0.05027 0.54609 0.0
N334 N 0.37873 0.0929 0.57127 0.0
N335 N 0.34686 0.03364 0.55017 0.0
H336 H 0.31332 0.05683 0.56998 0.0
H337 H 0.43847 0.10869 0.55748 0.0
C338 C 0.4538 0.12339 0.60944 0.0
O339 O 0.4243 0.08617 0.6139 0.0
N340 N 0.40658 0.19373 0.60582 0.0
C341 C 0.38437 0.20355 0.62139 0.0
C342 C 0.40771 0.24405 0.62803 0.0
C343 C 0.44245 0.22795 0.60287 0.0
N344 N 0.44403 0.25917 0.61615 0.0
C345 C 0.32524 0.08845 0.62179 0.0
C346 C 0.36969 0.10603 0.66703 0.0
C347 C 0.32844 0.07649 0.66751 0.0
C348 C 0.30597 0.06827 0.64458 0.0
C349 C 0.38771 0.12528 0.64382 0.0
N350 N 0.36608 0.11477 0.62122 0.0
H351 H 0.30696 0.08383 0.60487 0.0
H352 H 0.41912 0.14908 0.64414 0.0
H353 H 0.35345 0.18291 0.62731 0.0
H354 H 0.46694 0.22987 0.59115 0.0
O355 O 0.34621 0.14335 0.57309 0.0
O356 O 0.40822 0.17081 0.55649 0.0
O357 O 0.44593 0.14974 0.59994 0.0
C358 C 0.37117 0.16386 0.55446 0.0
H359 H 0.40109 0.03758 0.53398 0.0
H360 H 0.3984 0.26125 0.64006 0.0
H361 H 0.38812 0.11393 0.68437 0.0
H362 H 0.27361 0.04704 0.64436 0.0
Co363 Co 0.85449 0.24998 0.58705 0.0
C364 C 0.93589 0.28127 0.56148 0.0
C365 C 0.90495 0.3128 0.54988 0.0
C366 C 0.9411 0.32918 0.53676 0.0
N367 N 0.90211 0.28361 0.56606 0.0
N368 N 0.96041 0.30928 0.54406 0.0
H369 H 0.94243 0.25932 0.56995 0.0
H370 H 0.88189 0.32124 0.54753 0.0
C371 C 0.87927 0.33495 0.60188 0.0
O372 O 0.91689 0.34238 0.60309 0.0
N373 N 0.80612 0.21671 0.60681 0.0
C374 C 0.79807 0.18483 0.62204 0.0
C375 C 0.75851 0.16763 0.63052 0.0
C376 C 0.77172 0.21851 0.60607 0.0
N377 N 0.74199 0.18885 0.6204 0.0
C378 C 0.91023 0.23841 0.61893 0.0
C379 C 0.89964 0.27327 0.66298 0.0
C380 C 0.92623 0.25791 0.66384 0.0
C381 C 0.93135 0.24011 0.6415 0.0
C382 C 0.87959 0.27136 0.64002 0.0
N383 N 0.88641 0.25586 0.61793 0.0
H384 H 0.91166 0.22141 0.6027 0.0
H385 H 0.85741 0.28112 0.6404 0.0
H386 H 0.81915 0.1743 0.62618 0.0
H387 H 0.76811 0.24002 0.59429 0.0
O388 O 0.85121 0.20161 0.57252 0.0
O389 O 0.82233 0.23485 0.55595 0.0
O390 O 0.85034 0.2994 0.59627 0.0
C391 C 0.82862 0.20427 0.55455 0.0
H392 H 0.95178 0.35293 0.52229 0.0
H393 H 0.74303 0.14124 0.64288 0.0
H394 H 0.89414 0.28652 0.67998 0.0
H395 H 0.95034 0.22635 0.64174 0.0
H396 H 0.64911 0.15916 0.1622 0.0
H397 H 0.49945 0.20291 0.07752 0.0
H398 H 0.64704 0.15895 0.0786 0.0
H399 H 0.47715 0.1705 0.15827 0.0
H400 H 0.55733 0.19205 0.07869 0.0
H401 H 0.58934 0.16788 0.16233 0.0
C402 C 0.63612 0.16089 0.14391 0.0
C403 C 0.65316 0.15836 0.12036 0.0
C404 C 0.53981 0.1872 0.09619 0.0
C405 C 0.58518 0.16853 0.1204 0.0
C406 C 0.50692 0.1937 0.09556 0.0
C407 C 0.48364 0.18783 0.11788 0.0
C408 C 0.54989 0.17504 0.11937 0.0
C409 C 0.49425 0.17513 0.14063 0.0
C410 C 0.60198 0.16574 0.14401 0.0
C411 C 0.635 0.16067 0.09724 0.0
N412 N 0.52683 0.16938 0.14086 0.0
N413 N 0.60221 0.16582 0.09787 0.0
H414 H 0.87897 0.32928 0.10528 0.0
H415 H 0.78249 0.46438 0.14809 0.0
H416 H 0.75707 0.27678 0.13496 0.0
H417 H 0.87569 0.50237 0.08974 0.0
H418 H 0.77912 0.39833 0.15026 0.0
H419 H 0.88489 0.39644 0.10654 0.0
C420 C 0.85367 0.33203 0.11237 0.0
C421 C 0.81745 0.29759 0.12001 0.0
C422 C 0.80029 0.42122 0.13702 0.0
C423 C 0.82396 0.37399 0.12148 0.0
C424 C 0.80235 0.45887 0.13584 0.0
C425 C 0.82923 0.48872 0.1186 0.0
C426 C 0.82586 0.41376 0.1212 0.0
C427 C 0.85423 0.48003 0.1031 0.0
C428 C 0.85693 0.37022 0.11288 0.0
C429 C 0.78534 0.30266 0.12872 0.0
N430 N 0.85207 0.44338 0.10485 0.0
N431 N 0.78936 0.34022 0.1293 0.0
H432 H 0.68651 0.54872 0.07781 0.0
H433 H 0.51507 0.33305 0.12068 0.0
H434 H 0.69449 0.50143 0.15194 0.0
H435 H 0.48325 0.41707 0.08675 0.0
H436 H 0.58485 0.38929 0.12681 0.0
H437 H 0.61465 0.49532 0.07487 0.0
C438 C 0.67284 0.5271 0.09346 0.0
C439 C 0.69581 0.52926 0.1152 0.0
C440 C 0.56241 0.39527 0.11816 0.0
C441 C 0.61497 0.4681 0.11174 0.0
C442 C 0.52285 0.36334 0.11454 0.0
C443 C 0.4936 0.37066 0.10325 0.0
C444 C 0.57286 0.43434 0.10969 0.0
C445 C 0.505 0.41037 0.09568 0.0
C446 C 0.63213 0.49692 0.09185 0.0
C447 C 0.67729 0.50071 0.13505 0.0
N448 N 0.544 0.44074 0.0987 0.0
N449 N 0.63792 0.47078 0.13271 0.0
H450 H 0.19673 0.49388 0.42168 0.0
H451 H 0.16422 0.6512 0.33762 0.0
H452 H 0.1628 0.47264 0.34114 0.0
H453 H 0.16188 0.6477 0.42119 0.0
H454 H 0.16886 0.58908 0.33735 0.0
H455 H 0.18927 0.55386 0.42081 0.0
C456 C 0.18776 0.50199 0.40378 0.0
C457 C 0.18058 0.47852 0.38141 0.0
C458 C 0.16718 0.60195 0.35569 0.0
C459 C 0.17191 0.54716 0.38021 0.0
C460 C 0.16474 0.63744 0.35587 0.0
C461 C 0.16269 0.65464 0.37947 0.0
C462 C 0.16807 0.584 0.37926 0.0
C463 C 0.16328 0.63548 0.40254 0.0
C464 C 0.18327 0.53608 0.40331 0.0
C465 C 0.16838 0.48994 0.3588 0.0
N466 N 0.1661 0.60136 0.40184 0.0
N467 N 0.16472 0.52376 0.35869 0.0
H468 H 0.56202 0.66975 0.37446 0.0
H469 H 0.32434 0.51852 0.39429 0.0
H470 H 0.47478 0.70945 0.38561 0.0
H471 H 0.4098 0.47814 0.3778 0.0
H472 H 0.37883 0.58868 0.38954 0.0
H473 H 0.50653 0.59953 0.3737 0.0
C474 C 0.53123 0.66382 0.3765 0.0
C475 C 0.52318 0.69569 0.3803 0.0
C476 C 0.38567 0.5645 0.38683 0.0
C477 C 0.45943 0.61516 0.37978 0.0
C478 C 0.35455 0.52438 0.38957 0.0
C479 C 0.36257 0.49238 0.3866 0.0
C480 C 0.42521 0.57278 0.3812 0.0
C481 C 0.40225 0.50185 0.38033 0.0
C482 C 0.49952 0.62363 0.3762 0.0
C483 C 0.48257 0.68594 0.38313 0.0
N484 N 0.43216 0.54121 0.378 0.0
N485 N 0.45228 0.64658 0.38292 0.0
H486 H 0.51749 0.92461 0.37606 0.0
H487 H 0.28184 0.75727 0.3841 0.0
H488 H 0.47333 0.79943 0.39685 0.0
H489 H 0.32619 0.88499 0.37217 0.0
H490 H 0.3517 0.77098 0.38484 0.0
H491 H 0.44757 0.90934 0.3704 0.0
C492 C 0.49311 0.89384 0.37932 0.0
C493 C 0.5013 0.8633 0.38711 0.0
C494 C 0.34615 0.796 0.38198 0.0
C495 C 0.42109 0.84565 0.38068 0.0
C496 C 0.30624 0.78823 0.38169 0.0
C497 C 0.29805 0.8201 0.37838 0.0
C498 C 0.37825 0.83594 0.37889 0.0
C499 C 0.33095 0.85945 0.37467 0.0
C500 C 0.45316 0.88517 0.37611 0.0
C501 C 0.46844 0.82398 0.39098 0.0
N502 N 0.3696 0.86628 0.37517 0.0
N503 N 0.42977 0.81632 0.3878 0.0
H504 H 0.40616 0.929 0.87734 0.0
H505 H 0.47529 0.76215 0.88405 0.0
H506 H 0.32446 0.80226 0.89392 0.0
H507 H 0.55873 0.89061 0.87554 0.0
H508 H 0.41885 0.77541 0.88357 0.0
H509 H 0.46145 0.91449 0.87222 0.0
C510 C 0.39976 0.89806 0.87975 0.0
C511 C 0.36067 0.86685 0.88626 0.0
C512 C 0.44951 0.80069 0.88171 0.0
C513 C 0.4239 0.85007 0.88047 0.0
C514 C 0.48181 0.79317 0.88213 0.0
C515 C 0.52195 0.82536 0.88012 0.0
C516 C 0.45729 0.84071 0.87926 0.0
C517 C 0.52838 0.86482 0.87702 0.0
C518 C 0.43139 0.88983 0.87686 0.0
C519 C 0.35418 0.82733 0.88907 0.0
N520 N 0.49641 0.8714 0.87684 0.0
N521 N 0.38552 0.82011 0.88627 0.0
H522 H 0.06979 0.47861 0.87038 0.0
H523 H 0.23735 0.71387 0.88185 0.0
H524 H 0.19418 0.52221 0.89295 0.0
H525 H 0.10969 0.67042 0.87037 0.0
H526 H 0.2234 0.64397 0.88106 0.0
H527 H 0.08535 0.5488 0.86522 0.0
C528 C 0.10045 0.50291 0.87409 0.0
C529 C 0.13066 0.4945 0.8823 0.0
C530 C 0.19845 0.64973 0.87861 0.0
C531 C 0.14862 0.57492 0.87645 0.0
C532 C 0.20636 0.68969 0.87919 0.0
C533 C 0.17458 0.69815 0.8765 0.0
C534 C 0.15845 0.61785 0.87528 0.0
C535 C 0.13517 0.66548 0.87243 0.0
C536 C 0.10927 0.54299 0.87119 0.0
C537 C 0.16985 0.52725 0.88677 0.0
N538 N 0.1282 0.62677 0.8721 0.0
N539 N 0.17765 0.566 0.88388 0.0
H540 H 0.51753 0.59835 0.86601 0.0
H541 H 0.28903 0.51707 0.9096 0.0
H542 H 0.47662 0.67251 0.90413 0.0
H543 H 0.32291 0.45145 0.85624 0.0
H544 H 0.35792 0.57336 0.90838 0.0
H545 H 0.44698 0.54346 0.86278 0.0
C546 C 0.49373 0.60319 0.87358 0.0
C547 C 0.50303 0.64001 0.88552 0.0
C548 C 0.35024 0.54671 0.89683 0.0
C549 C 0.42236 0.57727 0.88201 0.0
C550 C 0.31057 0.5143 0.8974 0.0
C551 C 0.29952 0.47889 0.88298 0.0
C552 C 0.37955 0.5439 0.88195 0.0
C553 C 0.32973 0.47763 0.86797 0.0
C554 C 0.45348 0.57185 0.87169 0.0
C555 C 0.47093 0.64462 0.89487 0.0
N556 N 0.36837 0.50955 0.86795 0.0
N557 N 0.4321 0.61351 0.89309 0.0
H558 H 0.8632 0.55171 0.58606 0.0
H559 H 0.80976 0.32919 0.62126 0.0
H560 H 0.79306 0.49311 0.65424 0.0
H561 H 0.92886 0.41569 0.59276 0.0
H562 H 0.79571 0.38498 0.62791 0.0
H563 H 0.88106 0.49801 0.58239 0.0
C564 C 0.85184 0.52757 0.60028 0.0
C565 C 0.82699 0.5267 0.62056 0.0
C566 C 0.82495 0.39161 0.62033 0.0
C567 C 0.84617 0.46516 0.61618 0.0
C568 C 0.83289 0.35992 0.61642 0.0
C569 C 0.87054 0.36803 0.60652 0.0
C570 C 0.85444 0.43134 0.61358 0.0
C571 C 0.89956 0.4083 0.60061 0.0
C572 C 0.86203 0.49716 0.59825 0.0
C573 C 0.81272 0.49488 0.63854 0.0
N574 N 0.89073 0.43849 0.60392 0.0
N575 N 0.82207 0.46495 0.63575 0.0
H576 H 0.6434 0.49222 0.66202 0.0
H577 H 0.49537 0.29921 0.57688 0.0
H578 H 0.64793 0.48887 0.57856 0.0
H579 H 0.46871 0.31255 0.65619 0.0
H580 H 0.55403 0.36755 0.57812 0.0
H581 H 0.58179 0.42524 0.66136 0.0
C582 C 0.63146 0.47747 0.64358 0.0
C583 C 0.65091 0.49616 0.62031 0.0
C584 C 0.53533 0.35571 0.59527 0.0
C585 C 0.58073 0.4197 0.61947 0.0
C586 C 0.502 0.3166 0.5946 0.0
C587 C 0.47739 0.3002 0.61652 0.0
C588 C 0.54451 0.37858 0.61813 0.0
C589 C 0.48689 0.32427 0.63886 0.0
C590 C 0.59625 0.43935 0.64323 0.0
C591 C 0.634 0.47571 0.59698 0.0
N592 N 0.51999 0.36224 0.63919 0.0
N593 N 0.60007 0.43855 0.59718 0.0
H594 H 0.67518 0.11582 0.63085 0.0
H595 H 0.52185 0.19821 0.6048 0.0
H596 H 0.7136 0.24121 0.61442 0.0
H597 H 0.483 0.07387 0.62494 0.0
H598 H 0.59229 0.21513 0.61037 0.0
H599 H 0.60479 0.10056 0.63124 0.0
C600 C 0.66894 0.14027 0.62761 0.0
C601 C 0.70049 0.17984 0.62238 0.0
C602 C 0.56838 0.18417 0.6137 0.0
C603 C 0.61973 0.16241 0.62247 0.0
C604 C 0.5281 0.17447 0.6105 0.0
C605 C 0.49644 0.13447 0.61423 0.0
C606 C 0.57717 0.15366 0.62059 0.0
C607 C 0.50641 0.10506 0.62176 0.0
C608 C 0.62865 0.13147 0.62768 0.0
C609 C 0.69032 0.21013 0.61803 0.0
N610 N 0.54592 0.1152 0.62454 0.0
N611 N 0.65086 0.20075 0.61804 0.0
H612 H 0.29694 0.13878 0.04513 0.0
H613 H 0.38324 0.02696 0.95853 0.0
H614 H 0.42067 0.19676 0.01785 0.0
H615 H 0.25495 0.98191 0.96662 0.0
H616 H 0.39716 0.08995 0.97985 0.0
H617 H 0.27998 0.08161 0.01604 0.0
C618 C 0.32041 0.13968 0.03281 0.0
C619 C 0.36034 0.17237 0.03403 0.0
C620 C 0.36592 0.06654 0.97675 0.0
C621 C 0.34129 0.10707 0.001 0.0
C622 C 0.35803 0.03057 0.96472 0.0
C623 C 0.31796 0.99926 0.96105 0.0
C624 C 0.33347 0.07101 0.98559 0.0
C625 C 0.28626 0.00549 0.96906 0.0
C626 C 0.3107 0.1071 0.0162 0.0
C627 C 0.38954 0.17209 0.0176 0.0
N628 N 0.29469 0.04052 0.98131 0.0
N629 N 0.37953 0.13972 0.00199 0.0
H630 H 0.8609 0.15808 0.04651 0.0
H631 H 0.96044 0.34701 0.95097 0.0
H632 H 0.79802 0.2178 0.01702 0.0
H633 H 0.01543 0.27404 0.96698 0.0
H634 H 0.89918 0.29738 0.97351 0.0
H635 H 0.91623 0.19705 0.01594 0.0
C636 C 0.8585 0.17899 0.03338 0.0
C637 C 0.82503 0.18503 0.03446 0.0
C638 C 0.92439 0.29185 0.97191 0.0
C639 C 0.8882 0.22985 -0.0003 0.0
C640 C 0.95938 0.32028 0.95915 0.0
C641 C 0.99299 0.31468 0.95737 0.0
C642 C 0.92318 0.25778 0.98337 0.0
C643 C 0.99002 0.27931 0.96792 0.0
C644 C 0.89006 0.2012 0.01595 0.0
C645 C 0.82339 0.21239 0.01699 0.0
N646 N 0.95585 0.25238 0.98083 0.0
N647 N 0.85473 0.23408 0.00054 0.0
H648 H 0.78032 0.57966 0.01495 0.0
H649 H 0.72719 0.74735 0.96602 0.0
H650 H 0.83782 0.70122 0.04607 0.0
H651 H 0.6528 0.61882 0.95244 0.0
H652 H 0.77701 0.7348 0.98837 0.0
H653 H 0.74285 0.59775 0.98465 0.0
C654 C 0.78543 0.61035 0.01522 0.0
C655 C 0.81187 0.63886 0.03326 0.0
C656 C 0.74995 0.70946 0.98024 0.0
C657 C 0.76879 0.6597 0.99868 0.0
C658 C 0.72175 0.71663 0.9674 0.0
C659 C 0.6858 0.68396 0.95766 0.0
C660 C 0.74218 0.66943 0.98299 0.0
C661 C 0.6799 0.64468 0.96005 0.0
C662 C 0.76392 0.62062 0.99794 0.0
C663 C 0.81746 0.67824 0.03259 0.0
N664 N 0.70769 0.63849 0.97254 0.0
N665 N 0.79578 0.68745 0.01571 0.0
H666 H 0.9811 0.25238 0.53259 0.0
H667 H 0.19962 0.41818 0.47955 0.0
H668 H 0.02626 0.38127 0.53289 0.0
H669 H 0.13766 0.29389 0.45307 0.0
H670 H 0.14279 0.40222 0.50842 0.0
H671 H 0.04472 0.26477 0.51213 0.0
C672 C 0.00468 0.28326 0.52867 0.0
C673 C 0.99852 0.3159 0.53416 0.0
C674 C 0.14184 0.37833 0.4965 0.0
C675 C 0.07092 0.33025 0.51112 0.0
C676 C 0.17435 0.38734 0.48011 0.0
C677 C 0.17313 0.35739 0.46369 0.0
C678 C 0.10797 0.33904 0.49662 0.0
C679 C 0.13962 0.31794 0.46527 0.0
C680 C 0.04075 0.29029 0.51692 0.0
C681 C 0.02976 0.35534 0.52859 0.0
N682 N 0.10814 0.30992 0.48134 0.0
N683 N 0.0646 0.36143 0.51736 0.0
H684 H 0.58023 0.78202 0.48428 0.0
H685 H 0.749 0.7298 0.53236 0.0
H686 H 0.70196 0.84036 0.45343 0.0
H687 H 0.62035 0.65288 0.54413 0.0
H688 H 0.73599 0.78036 0.51148 0.0
H689 H 0.59865 0.74474 0.51464 0.0
C690 C 0.61102 0.78742 0.48412 0.0
C691 C 0.63947 0.81391 0.46607 0.0
C692 C 0.71071 0.75259 0.51893 0.0
C693 C 0.66066 0.77115 0.50069 0.0
C694 C 0.71814 0.72397 0.53092 0.0
C695 C 0.6856 0.68708 0.53961 0.0
C696 C 0.67053 0.7443 0.516 0.0
C697 C 0.64614 0.68071 0.53724 0.0
C698 C 0.62147 0.76603 0.50142 0.0
C699 C 0.67899 0.8199 0.46688 0.0
N700 N 0.63968 0.70892 0.52557 0.0
N701 N 0.68836 0.79835 0.48375 0.0
H702 H 0.34949 0.96475 0.54465 0.0
H703 H 0.15892 0.86216 0.45059 0.0
H704 H 0.27393 0.01746 0.53068 0.0
H705 H 0.21905 0.80021 0.48098 0.0
H706 H 0.19819 0.91836 0.48065 0.0
H707 H 0.30009 0.90324 0.52221 0.0
C708 C 0.32223 0.96311 0.53693 0.0
C709 C 0.31579 0.99613 0.53929 0.0
C710 C 0.20233 0.89219 0.48094 0.0
C711 C 0.25916 0.92605 0.51338 0.0
C712 C 0.17997 0.86015 0.4638 0.0
C713 C 0.18604 0.82667 0.46313 0.0
C714 C 0.23114 0.89076 0.49728 0.0
C715 C 0.2136 0.82555 0.48068 0.0
C716 C 0.29394 0.92799 0.52423 0.0
C717 C 0.27981 0.99248 0.52929 0.0
N718 N 0.2354 0.8573 0.49681 0.0
N719 N 0.253 0.95819 0.5164 0.0
H720 H 0.74654 0.01849 0.03216 0.0
H721 H 0.58242 0.7958 0.98406 0.0
H722 H 0.61775 0.96257 0.04536 0.0
H723 H 0.70338 0.86307 0.95236 0.0
H724 H 0.59951 0.85075 0.01478 0.0
H725 H 0.73532 0.95597 0.01078 0.0
C726 C 0.71603 0.99278 0.03092 0.0
C727 C 0.68292 0.99566 0.04021 0.0
C728 C 0.62247 0.85331 0.0013 0.0
C729 C 0.66989 0.92448 0.01598 0.0
C730 C 0.61279 0.82188 0.9838 0.0
C731 C 0.64137 0.82513 0.9654 0.0
C732 C 0.66102 0.88826 0.00042 0.0
C733 C 0.68033 0.85953 0.96608 0.0
C734 C 0.70962 0.9573 0.01864 0.0
C735 C 0.64395 0.96169 0.03804 0.0
N736 N 0.68893 0.89002 0.98315 0.0
N737 N 0.63848 0.92758 0.02606 0.0
H738 H 0.97935 0.72365 0.03256 0.0
H739 H 0.19861 0.77598 0.98095 0.0
H740 H 0.02993 0.64511 0.04134 0.0
H741 H 0.13603 0.83759 0.95424 0.0
H742 H 0.14292 0.73665 0.01094 0.0
H743 H 0.0424 0.77417 0.01142 0.0
C744 C 0.00399 0.71737 0.03039 0.0
C745 C -0.00059 0.68007 0.03841 0.0
C746 C 0.14156 0.75907 -0.0013 0.0
C747 C 0.07124 0.73736 0.01436 0.0
C748 C 0.17341 0.78165 0.98164 0.0
C749 C 0.1717 0.80976 0.96488 0.0
C750 C 0.10778 0.76469 -0.00094 0.0
C751 C 0.13837 0.81594 0.96669 0.0
C752 C 0.03978 0.74602 0.01822 0.0
C753 C 0.03207 0.67323 0.03502 0.0
N754 N 0.1075 0.79331 0.98334 0.0
N755 N 0.06653 0.70151 0.02316 0.0
H756 H 0.14834 0.29581 0.95628 0.0
H757 H 0.35233 0.38425 0.03526 0.0
H758 H 0.21689 0.42119 0.98012 0.0
H759 H 0.26469 0.25642 0.03506 0.0
H760 H 0.30166 0.3981 0.01621 0.0
H761 H 0.1881 0.27964 0.98629 0.0
C762 C 0.17129 0.3198 0.96815 0.0
C763 C 0.17965 0.35998 0.96552 0.0
C764 C 0.29319 0.36702 0.02064 0.0
C765 C 0.22553 0.34183 -0.00047 0.0
C766 C 0.32216 0.35917 0.03138 0.0
C767 C 0.3126 0.31919 0.03647 0.0
C768 C 0.25459 0.33454 0.01443 0.0
C769 C 0.27305 0.28766 0.03141 0.0
C770 C 0.19392 0.31054 0.98528 0.0
C771 C 0.20957 0.38984 0.98142 0.0
N772 N 0.24558 0.29593 0.02022 0.0
N773 N 0.23188 0.38028 0.99744 0.0
H774 H 0.96658 0.6131 0.45513 0.0
H775 H 0.86252 0.70179 0.54728 0.0
H776 H 0.01692 0.7414 0.46771 0.0
H777 H 0.80318 0.57732 0.52128 0.0
H778 H 0.91766 0.71816 0.5166 0.0
H779 H 0.90468 0.60024 0.47738 0.0
C780 C 0.96432 0.63857 0.46244 0.0
C781 C 0.99688 0.67828 0.45988 0.0
C782 C 0.89232 0.68739 0.5174 0.0
C783 C 0.92639 0.66396 0.48558 0.0
C784 C 0.8609 0.67801 0.53493 0.0
C785 C 0.82845 0.63806 0.53697 0.0
C786 C 0.89139 0.65648 0.50202 0.0
C787 C 0.82774 0.60848 0.52045 0.0
C788 C 0.92899 0.6313 0.47506 0.0
C789 C 0.99236 0.71036 0.46931 0.0
N790 N 0.85896 0.6182 0.50387 0.0
N791 N 0.95793 0.70248 0.48213 0.0
H792 H 0.41926 0.21435 0.51616 0.0
H793 H 0.25188 0.26631 0.46474 0.0
H794 H 0.29639 0.15545 0.54512 0.0
H795 H 0.38089 0.34381 0.45488 0.0
H796 H 0.2644 0.21596 0.48635 0.0
H797 H 0.40194 0.25206 0.48543 0.0
C798 C 0.38845 0.20891 0.51581 0.0
C799 C 0.35934 0.18211 0.53343 0.0
C800 C 0.28989 0.24382 0.47918 0.0
C801 C 0.3394 0.22537 0.4984 0.0
C802 C 0.28274 0.27234 0.46676 0.0
C803 C 0.31549 0.30929 0.45834 0.0
C804 C 0.33 0.25229 0.4828 0.0
C805 C 0.35493 0.31591 0.46151 0.0
C806 C 0.37864 0.23056 0.49832 0.0
C807 C 0.31985 0.17612 0.53201 0.0
N808 N 0.36111 0.28778 0.47357 0.0
N809 N 0.31109 0.1979 0.51494 0.0
H810 H 0.7743 0.19869 0.51804 0.0
H811 H 0.72459 0.97992 0.46685 0.0
H812 H 0.83629 0.13724 0.54611 0.0
H813 H 0.64464 0.02887 0.45825 0.0
H814 H 0.77408 0.04284 0.48876 0.0
H815 H 0.73509 0.14215 0.48862 0.0
C816 C 0.78 0.17349 0.51781 0.0
C817 C 0.80829 0.17244 0.53473 0.0
C818 C 0.74583 0.03987 0.48185 0.0
C819 C 0.76338 0.10755 0.50115 0.0
C820 C 0.7178 0.00418 0.46924 0.0
C821 C 0.68047 0.99926 0.461 0.0
C822 C 0.73651 0.07085 0.48584 0.0
C823 C 0.67287 0.03136 0.4647 0.0
C824 C 0.75751 0.14117 0.50106 0.0
C825 C 0.81452 0.13908 0.53351 0.0
N826 N 0.70057 0.06574 0.4769 0.0
N827 N 0.79201 0.10775 0.51711 0.0
H828 H 0.27999 0.27458 0.32417 0.0
H829 H 0.27152 0.27961 0.16942 0.0
H830 H 0.23089 0.33803 0.28174 0.0
H831 H 0.34545 0.24299 0.21207 0.0
H832 H 0.24491 0.289 0.21044 0.0
H833 H 0.29244 0.25045 0.28316 0.0
C834 C 0.27128 0.28291 0.30623 0.0
C835 C 0.25483 0.3087 0.30629 0.0
C836 C 0.26673 0.27861 0.21079 0.0
C837 C 0.26922 0.28152 0.2594 0.0
C838 C 0.28172 0.27306 0.18742 0.0
C839 C 0.31106 0.26101 0.18743 0.0
C840 C 0.28097 0.27173 0.23427 0.0
C841 C 0.32341 0.25305 0.21126 0.0
C842 C 0.27862 0.26937 0.28285 0.0
C843 C 0.24431 0.31878 0.28249 0.0
N844 N 0.30844 0.25874 0.23374 0.0
N845 N 0.2519 0.30535 0.25998 0.0
H846 H 0.68052 0.98064 0.17096 0.0
H847 H 0.71934 0.99765 0.32288 0.0
H848 H 0.77359 0.08954 0.2076 0.0
H849 H 0.64921 0.88352 0.28291 0.0
H850 H 0.74137 0.0319 0.28103 0.0
H851 H 0.66918 0.94441 0.21195 0.0
C852 C 0.69864 0.99684 0.18765 0.0
C853 C 0.72784 0.03815 0.18599 0.0
C854 C 0.72146 0.9993 0.28145 0.0
C855 C 0.71505 0.99704 0.23294 0.0
C856 C 0.70904 0.9797 0.30534 0.0
C857 C 0.68187 0.93772 0.30643 0.0
C858 C 0.70637 0.9768 0.25852 0.0
C859 C 0.6693 0.91608 0.28303 0.0
C860 C 0.69235 0.97614 0.211 0.0
C861 C 0.75089 0.05762 0.20808 0.0
N862 N 0.68129 0.93591 0.26006 0.0
N863 N 0.74371 0.037 0.23075 0.0
H864 H 0.91815 0.70119 0.20032 0.0
H865 H 0.0782 0.69148 0.29427 0.0
H866 H 0.00948 0.6734 0.17446 0.0
H867 H 0.01502 0.75505 0.31523 0.0
H868 H 0.05093 0.68259 0.25053 0.0
H869 H 0.95193 0.72103 0.24247 0.0
C870 C 0.94565 0.69988 0.20332 0.0
C871 C 0.96068 0.68506 0.18389 0.0
C872 C 0.04311 0.69867 0.26461 0.0
C873 C 0.99885 0.70688 0.23221 0.0
C874 C 0.05837 0.7034 0.28963 0.0
C875 C 0.04847 0.72365 0.3084 0.0
C876 C 0.01731 0.71385 0.2583 0.0
C877 C 0.02331 0.73922 0.30126 0.0
C878 C 0.96475 0.71098 0.22745 0.0
C879 C 0.99619 0.68364 0.18903 0.0
N880 N 0.00821 0.73365 0.27678 0.0
N881 N 0.01377 0.69395 0.21276 0.0
H882 H 0.68231 0.70624 0.66828 0.0
H883 H 0.72323 0.72899 0.8197 0.0
H884 H 0.77846 0.69474 0.70423 0.0
H885 H 0.65059 0.77103 0.78075 0.0
H886 H 0.7458 0.71851 0.77762 0.0
H887 H 0.67116 0.73145 0.70925 0.0
C888 C 0.70123 0.70932 0.68478 0.0
C889 C 0.73117 0.69822 0.68296 0.0
C890 C 0.72523 0.73042 0.77831 0.0
C891 C 0.71853 0.72675 0.72986 0.0
C892 C 0.71248 0.7366 0.80235 0.0
C893 C 0.68446 0.75034 0.80381 0.0
C894 C 0.7096 0.73767 0.75556 0.0
C895 C 0.67133 0.75933 0.78059 0.0
C896 C 0.69503 0.72387 0.70811 0.0
C897 C 0.75519 0.70319 0.7048 0.0
N898 N 0.68363 0.75239 0.75745 0.0
N899 N 0.74803 0.71664 0.72746 0.0
H900 H 0.27851 0.0045 0.82799 0.0
H901 H 0.27467 0.99538 0.67319 0.0
H902 H 0.22911 0.89349 0.78387 0.0
H903 H 0.33872 0.10658 0.71695 0.0
H904 H 0.24814 0.95798 0.71361 0.0
H905 H 0.29106 0.04257 0.78756 0.0
C906 C 0.26977 0.9881 0.80981 0.0
C907 C 0.25323 0.94586 0.80923 0.0
C908 C 0.26777 0.9906 0.71436 0.0
C909 C 0.26779 0.98913 0.76298 0.0
C910 C 0.28272 0.01201 0.69128 0.0
C911 C 0.30929 0.05411 0.69172 0.0
C912 C 0.27941 0.01144 0.73807 0.0
C913 C 0.31896 0.07403 0.71576 0.0
C914 C 0.27716 0.00984 0.78675 0.0
C915 C 0.24266 0.92614 0.78515 0.0
N916 N 0.30422 0.05248 0.73799 0.0
N917 N 0.25036 0.94796 0.76298 0.0
H918 H 0.1108 0.33762 0.78112 0.0
H919 H 0.89451 0.23837 0.71259 0.0
H920 H 0.99719 0.27927 0.82266 0.0
H921 H 0.00661 0.28219 0.67042 0.0
H922 H 0.93151 0.24877 0.75311 0.0
H923 H 0.07345 0.31345 0.74041 0.0
C924 C 0.078 0.3195 0.78167 0.0
C925 C 0.05702 0.3108 0.80528 0.0
C926 C 0.94804 0.25578 0.73502 0.0
C927 C 0.01411 0.28306 0.75881 0.0
C928 C 0.92695 0.25002 0.71191 0.0
C929 C 0.94768 0.25996 0.6882 0.0
C930 C 0.99029 0.27202 0.73447 0.0
C931 C 0.98955 0.2742 0.68833 0.0
C932 C 0.05671 0.30554 0.75844 0.0
C933 C 0.01458 0.28659 0.80491 0.0
N934 N 0.00961 0.28031 0.71116 0.0
N935 N 0.9945 0.27396 0.78203 0.0
loop_
_geom_bond_atom_site_label_1
_geom_bond_atom_site_label_2
_geom_bond_distance
_geom_bond_site_symmetry_2
_ccdc_geom_bond_type
Co0 N4 2.148 . S
Co0 N10 2.128 . S
Co0 N20 2.194 . S
Co0 O25 2.351 . S
Co0 O26 2.155 . S
Co0 O27 2.096 . S
C1 N4 1.301 . S
C1 N5 1.328 . S
C1 H6 0.930 . S
C2 C3 1.333 . S
C2 N4 1.317 . S
C2 H7 0.930 . S
C3 C2 1.333 . S
C3 N5 1.350 . S
C3 H29 0.931 . S
N4 Co0 2.148 . S
N4 C1 1.301 . S
N4 C2 1.317 . S
N5 C1 1.328 . S
N5 C3 1.350 . S
H6 C1 0.930 . S
H7 C2 0.930 . S
C8 O9 1.224 . S
C8 O27 1.247 . S
O9 C8 1.224 . S
N10 Co0 2.128 . S
N10 C11 1.355 . S
N10 C13 1.311 . S
C11 N10 1.355 . S
C11 C12 1.363 . S
C11 H23 0.929 . S
C12 C11 1.363 . S
C12 N14 1.375 . S
C12 H30 0.931 . S
C13 N10 1.311 . S
C13 N14 1.347 . S
C13 H24 0.929 . S
N14 C12 1.375 . S
N14 C13 1.347 . S
C15 C18 1.365 . S
C15 N20 1.328 . S
C15 H21 0.929 . S
C16 C17 1.362 . S
C16 C19 1.378 . S
C16 H31 0.929 . S
C17 C16 1.362 . S
C17 C18 1.366 . S
C18 C15 1.365 . S
C18 C17 1.366 . S
C18 H32 0.930 . S
C19 C16 1.378 . S
C19 N20 1.315 . S
C19 H22 0.930 . S
N20 Co0 2.194 . S
N20 C15 1.328 . S
N20 C19 1.315 . S
H21 C15 0.929 . S
H22 C19 0.930 . S
H23 C11 0.929 . S
H24 C13 0.929 . S
O25 Co0 2.351 . S
O25 C28 1.244 . S
O26 Co0 2.155 . S
O26 C28 1.240 . S
O27 Co0 2.096 . S
O27 C8 1.247 . S
C28 O25 1.244 . S
C28 O26 1.240 . S
H29 C3 0.931 . S
H30 C12 0.931 . S
H31 C16 0.929 . S
H32 C18 0.930 . S
Co33 N37 2.148 . S
Co33 N43 2.128 . S
Co33 N53 2.194 . S
Co33 O58 2.351 . S
Co33 O59 2.155 . S
Co33 O60 2.096 . S
C34 N37 1.301 . S
C34 N38 1.328 . S
C34 H39 0.930 . S
C35 C36 1.333 . S
C35 N37 1.317 . S
C35 H40 0.930 . S
C36 C35 1.333 . S
C36 N38 1.350 . S
C36 H62 0.931 . S
N37 Co33 2.148 . S
N37 C34 1.301 . S
N37 C35 1.317 . S
N38 C34 1.328 . S
N38 C36 1.350 . S
H39 C34 0.930 . S
H40 C35 0.930 . S
C41 O42 1.224 . S
C41 O60 1.247 . S
O42 C41 1.224 . S
N43 Co33 2.128 . S
N43 C44 1.355 . S
N43 C46 1.311 . S
C44 N43 1.355 . S
C44 C45 1.363 . S
C44 H56 0.929 . S
C45 C44 1.363 . S
C45 N47 1.375 . S
C45 H63 0.931 . S
C46 N43 1.311 . S
C46 N47 1.347 . S
C46 H57 0.929 . S
N47 C45 1.375 . S
N47 C46 1.347 . S
C48 C51 1.365 . S
C48 N53 1.328 . S
C48 H54 0.929 . S
C49 C50 1.362 . S
C49 C52 1.378 . S
C49 H64 0.929 . S
C50 C49 1.362 . S
C50 C51 1.366 . S
C51 C48 1.365 . S
C51 C50 1.366 . S
C51 H65 0.930 . S
C52 C49 1.378 . S
C52 N53 1.315 . S
C52 H55 0.930 . S
N53 Co33 2.194 . S
N53 C48 1.328 . S
N53 C52 1.315 . S
H54 C48 0.929 . S
H55 C52 0.930 . S
H56 C44 0.929 . S
H57 C46 0.929 . S
O58 Co33 2.351 . S
O58 C61 1.244 . S
O59 Co33 2.155 . S
O59 C61 1.240 . S
O60 Co33 2.096 . S
O60 C41 1.247 . S
C61 O58 1.244 . S
C61 O59 1.240 . S
H62 C36 0.931 . S
H63 C45 0.931 . S
H64 C49 0.929 . S
H65 C51 0.930 . S
Co66 N70 2.148 . S
Co66 N76 2.128 . S
Co66 N86 2.194 . S
Co66 O91 2.351 . S
Co66 O92 2.155 . S
Co66 O93 2.096 . S
C67 N70 1.301 . S
C67 N71 1.328 . S
C67 H72 0.930 . S
C68 C69 1.333 . S
C68 N70 1.317 . S
C68 H73 0.930 . S
C69 C68 1.333 . S
C69 N71 1.350 . S
C69 H95 0.931 . S
N70 Co66 2.148 . S
N70 C67 1.301 . S
N70 C68 1.317 . S
N71 C67 1.328 . S
N71 C69 1.350 . S
H72 C67 0.930 . S
H73 C68 0.930 . S
C74 O75 1.224 . S
C74 O93 1.247 . S
O75 C74 1.224 . S
N76 Co66 2.128 . S
N76 C77 1.355 . S
N76 C79 1.311 . S
C77 N76 1.355 . S
C77 C78 1.363 . S
C77 H89 0.929 . S
C78 C77 1.363 . S
C78 N80 1.375 . S
C78 H96 0.931 . S
C79 N76 1.311 . S
C79 N80 1.347 . S
C79 H90 0.929 . S
N80 C78 1.375 . S
N80 C79 1.347 . S
C81 C84 1.365 . S
C81 N86 1.328 . S
C81 H87 0.929 . S
C82 C83 1.362 . S
C82 C85 1.378 . S
C82 H97 0.929 . S
C83 C82 1.362 . S
C83 C84 1.366 . S
C84 C81 1.365 . S
C84 C83 1.366 . S
C84 H98 0.930 . S
C85 C82 1.378 . S
C85 N86 1.315 . S
C85 H88 0.930 . S
N86 Co66 2.194 . S
N86 C81 1.328 . S
N86 C85 1.315 . S
H87 C81 0.929 . S
H88 C85 0.930 . S
H89 C77 0.929 . S
H90 C79 0.929 . S
O91 Co66 2.351 . S
O91 C94 1.244 . S
O92 Co66 2.155 . S
O92 C94 1.240 . S
O93 Co66 2.096 . S
O93 C74 1.247 . S
C94 O91 1.244 . S
C94 O92 1.240 . S
H95 C69 0.931 . S
H96 C78 0.931 . S
H97 C82 0.929 . S
H98 C84 0.930 . S
Co99 N103 2.148 . S
Co99 N109 2.128 . S
Co99 N119 2.194 . S
Co99 O124 2.351 . S
Co99 O125 2.155 . S
Co99 O126 2.096 . S
C100 N103 1.301 . S
C100 N104 1.328 . S
C100 H105 0.930 . S
C101 C102 1.333 . S
C101 N103 1.317 . S
C101 H106 0.930 . S
C102 C101 1.333 . S
C102 N104 1.350 . S
C102 H128 0.931 . S
N103 Co99 2.148 . S
N103 C100 1.301 . S
N103 C101 1.317 . S
N104 C100 1.328 . S
N104 C102 1.350 . S
H105 C100 0.930 . S
H106 C101 0.930 . S
C107 O108 1.224 . S
C107 O126 1.247 . S
O108 C107 1.224 . S
N109 Co99 2.128 . S
N109 C110 1.355 . S
N109 C112 1.311 . S
C110 N109 1.355 . S
C110 C111 1.363 . S
C110 H122 0.929 . S
C111 C110 1.363 . S
C111 N113 1.375 . S
C111 H129 0.931 . S
C112 N109 1.311 . S
C112 N113 1.347 . S
C112 H123 0.929 . S
N113 C111 1.375 . S
N113 C112 1.347 . S
C114 C117 1.365 . S
C114 N119 1.328 . S
C114 H120 0.929 . S
C115 C116 1.362 . S
C115 C118 1.378 . S
C115 H130 0.929 . S
C116 C115 1.362 . S
C116 C117 1.366 . S
C117 C114 1.365 . S
C117 C116 1.366 . S
C117 H131 0.930 . S
C118 C115 1.378 . S
C118 N119 1.315 . S
C118 H121 0.930 . S
N119 Co99 2.194 . S
N119 C114 1.328 . S
N119 C118 1.315 . S
H120 C114 0.929 . S
H121 C118 0.930 . S
H122 C110 0.929 . S
H123 C112 0.929 . S
O124 Co99 2.351 . S
O124 C127 1.244 . S
O125 Co99 2.155 . S
O125 C127 1.240 . S
O126 Co99 2.096 . S
O126 C107 1.247 . S
C127 O124 1.244 . S
C127 O125 1.240 . S
H128 C102 0.931 . S
H129 C111 0.931 . S
H130 C115 0.929 . S
H131 C117 0.930 . S
Co132 N136 2.148 . S
Co132 N142 2.128 . S
Co132 N152 2.194 . S
Co132 O157 2.351 . S
Co132 O158 2.155 . S
Co132 O159 2.096 . S
C133 N136 1.301 . S
C133 N137 1.328 . S
C133 H138 0.930 . S
C134 C135 1.333 . S
C134 N136 1.317 . S
C134 H139 0.930 . S
C135 C134 1.333 . S
C135 N137 1.350 . S
C135 H161 0.931 . S
N136 Co132 2.148 . S
N136 C133 1.301 . S
N136 C134 1.317 . S
N137 C133 1.328 . S
N137 C135 1.350 . S
H138 C133 0.930 . S
H139 C134 0.930 . S
C140 O141 1.224 . S
C140 O159 1.247 . S
O141 C140 1.224 . S
N142 Co132 2.128 . S
N142 C143 1.355 . S
N142 C145 1.311 . S
C143 N142 1.355 . S
C143 C144 1.363 . S
C143 H155 0.929 . S
C144 C143 1.363 . S
C144 N146 1.375 . S
C144 H162 0.931 . S
C145 N142 1.311 . S
C145 N146 1.347 . S
C145 H156 0.929 . S
N146 C144 1.375 . S
N146 C145 1.347 . S
C147 C150 1.365 . S
C147 N152 1.328 . S
C147 H153 0.929 . S
C148 C149 1.362 . S
C148 C151 1.378 . S
C148 H163 0.929 . S
C149 C148 1.362 . S
C149 C150 1.366 . S
C150 C147 1.365 . S
C150 C149 1.366 . S
C150 H164 0.930 . S
C151 C148 1.378 . S
C151 N152 1.315 . S
C151 H154 0.930 . S
N152 Co132 2.194 . S
N152 C147 1.328 . S
N152 C151 1.315 . S
H153 C147 0.929 . S
H154 C151 0.930 . S
H155 C143 0.929 . S
H156 C145 0.929 . S
O157 Co132 2.351 . S
O157 C160 1.244 . S
O158 Co132 2.155 . S
O158 C160 1.240 . S
O159 Co132 2.096 . S
O159 C140 1.247 . S
C160 O157 1.244 . S
C160 O158 1.240 . S
H161 C135 0.931 . S
H162 C144 0.931 . S
H163 C148 0.929 . S
H164 C150 0.930 . S
Co165 N169 2.148 . S
Co165 N175 2.128 . S
Co165 N185 2.194 . S
Co165 O190 2.351 . S
Co165 O191 2.155 . S
Co165 O192 2.096 . S
C166 N169 1.301 . S
C166 N170 1.328 . S
C166 H171 0.930 . S
C167 C168 1.333 . S
C167 N169 1.317 . S
C167 H172 0.930 . S
C168 C167 1.333 . S
C168 N170 1.350 . S
C168 H194 0.931 . S
N169 Co165 2.148 . S
N169 C166 1.301 . S
N169 C167 1.317 . S
N170 C166 1.328 . S
N170 C168 1.350 . S
H171 C166 0.930 . S
H172 C167 0.930 . S
C173 O174 1.224 . S
C173 O192 1.247 . S
O174 C173 1.224 . S
N175 Co165 2.128 . S
N175 C176 1.355 . S
N175 C178 1.311 . S
C176 N175 1.355 . S
C176 C177 1.363 . S
C176 H188 0.929 . S
C177 C176 1.363 . S
C177 N179 1.375 . S
C177 H195 0.931 . S
C178 N175 1.311 . S
C178 N179 1.347 . S
C178 H189 0.929 . S
N179 C177 1.375 . S
N179 C178 1.347 . S
C180 C183 1.365 . S
C180 N185 1.328 . S
C180 H186 0.929 . S
C181 C182 1.362 . S
C181 C184 1.378 . S
C181 H196 0.929 . S
C182 C181 1.362 . S
C182 C183 1.366 . S
C183 C180 1.365 . S
C183 C182 1.366 . S
C183 H197 0.930 . S
C184 C181 1.378 . S
C184 N185 1.315 . S
C184 H187 0.930 . S
N185 Co165 2.194 . S
N185 C180 1.328 . S
N185 C184 1.315 . S
H186 C180 0.929 . S
H187 C184 0.930 . S
H188 C176 0.929 . S
H189 C178 0.929 . S
O190 Co165 2.351 . S
O190 C193 1.244 . S
O191 Co165 2.155 . S
O191 C193 1.240 . S
O192 Co165 2.096 . S
O192 C173 1.247 . S
C193 O190 1.244 . S
C193 O191 1.240 . S
H194 C168 0.931 . S
H195 C177 0.931 . S
H196 C181 0.929 . S
H197 C183 0.930 . S
Co198 N202 2.148 . S
Co198 N208 2.128 . S
Co198 N218 2.194 . S
Co198 O223 2.351 . S
Co198 O224 2.155 . S
Co198 O225 2.096 . S
C199 N202 1.301 . S
C199 N203 1.328 . S
C199 H204 0.930 . S
C200 C201 1.333 . S
C200 N202 1.317 . S
C200 H205 0.930 . S
C201 C200 1.333 . S
C201 N203 1.350 . S
C201 H227 0.931 . S
N202 Co198 2.148 . S
N202 C199 1.301 . S
N202 C200 1.317 . S
N203 C199 1.328 . S
N203 C201 1.350 . S
H204 C199 0.930 . S
H205 C200 0.930 . S
C206 O207 1.224 . S
C206 O225 1.247 . S
O207 C206 1.224 . S
N208 Co198 2.128 . S
N208 C209 1.355 . S
N208 C211 1.311 . S
C209 N208 1.355 . S
C209 C210 1.363 . S
C209 H221 0.929 . S
C210 C209 1.363 . S
C210 N212 1.375 . S
C210 H228 0.931 . S
C211 N208 1.311 . S
C211 N212 1.347 . S
C211 H222 0.929 . S
N212 C210 1.375 . S
N212 C211 1.347 . S
C213 C216 1.365 . S
C213 N218 1.328 . S
C213 H219 0.929 . S
C214 C215 1.362 . S
C214 C217 1.378 . S
C214 H229 0.929 . S
C215 C214 1.362 . S
C215 C216 1.366 . S
C216 C213 1.365 . S
C216 C215 1.366 . S
C216 H230 0.930 . S
C217 C214 1.378 . S
C217 N218 1.315 . S
C217 H220 0.930 . S
N218 Co198 2.194 . S
N218 C213 1.328 . S
N218 C217 1.315 . S
H219 C213 0.929 . S
H220 C217 0.930 . S
H221 C209 0.929 . S
H222 C211 0.929 . S
O223 Co198 2.351 . S
O223 C226 1.244 . S
O224 Co198 2.155 . S
O224 C226 1.240 . S
O225 Co198 2.096 . S
O225 C206 1.247 . S
C226 O223 1.244 . S
C226 O224 1.240 . S
H227 C201 0.931 . S
H228 C210 0.931 . S
H229 C214 0.929 . S
H230 C216 0.930 . S
Co231 N235 2.148 . S
Co231 N241 2.128 . S
Co231 N251 2.194 . S
Co231 O256 2.351 . S
Co231 O257 2.155 . S
Co231 O258 2.096 . S
C232 N235 1.301 . S
C232 N236 1.328 . S
C232 H237 0.930 . S
C233 C234 1.333 . S
C233 N235 1.317 . S
C233 H238 0.930 . S
C234 C233 1.333 . S
C234 N236 1.350 . S
C234 H260 0.931 . S
N235 Co231 2.148 . S
N235 C232 1.301 . S
N235 C233 1.317 . S
N236 C232 1.328 . S
N236 C234 1.350 . S
H237 C232 0.930 . S
H238 C233 0.930 . S
C239 O240 1.224 . S
C239 O258 1.247 . S
O240 C239 1.224 . S
N241 Co231 2.128 . S
N241 C242 1.355 . S
N241 C244 1.311 . S
C242 N241 1.355 . S
C242 C243 1.363 . S
C242 H254 0.929 . S
C243 C242 1.363 . S
C243 N245 1.375 . S
C243 H261 0.931 . S
C244 N241 1.311 . S
C244 N245 1.347 . S
C244 H255 0.929 . S
N245 C243 1.375 . S
N245 C244 1.347 . S
C246 C249 1.365 . S
C246 N251 1.328 . S
C246 H252 0.929 . S
C247 C248 1.362 . S
C247 C250 1.378 . S
C247 H262 0.929 . S
C248 C247 1.362 . S
C248 C249 1.366 . S
C249 C246 1.365 . S
C249 C248 1.366 . S
C249 H263 0.930 . S
C250 C247 1.378 . S
C250 N251 1.315 . S
C250 H253 0.930 . S
N251 Co231 2.194 . S
N251 C246 1.328 . S
N251 C250 1.315 . S
H252 C246 0.929 . S
H253 C250 0.930 . S
H254 C242 0.929 . S
H255 C244 0.929 . S
O256 Co231 2.351 . S
O256 C259 1.244 . S
O257 Co231 2.155 . S
O257 C259 1.240 . S
O258 Co231 2.096 . S
O258 C239 1.247 . S
C259 O256 1.244 . S
C259 O257 1.240 . S
H260 C234 0.931 . S
H261 C243 0.931 . S
H262 C247 0.929 . S
H263 C249 0.930 . S
Co264 N268 2.148 . S
Co264 N274 2.128 . S
Co264 N284 2.194 . S
Co264 O289 2.351 . S
Co264 O290 2.155 . S
Co264 O291 2.096 . S
C265 N268 1.301 . S
C265 N269 1.328 . S
C265 H270 0.930 . S
C266 C267 1.333 . S
C266 N268 1.317 . S
C266 H271 0.930 . S
C267 C266 1.333 . S
C267 N269 1.350 . S
C267 H293 0.931 . S
N268 Co264 2.148 . S
N268 C265 1.301 . S
N268 C266 1.317 . S
N269 C265 1.328 . S
N269 C267 1.350 . S
H270 C265 0.930 . S
H271 C266 0.930 . S
C272 O273 1.224 . S
C272 O291 1.247 . S
O273 C272 1.224 . S
N274 Co264 2.128 . S
N274 C275 1.355 . S
N274 C277 1.311 . S
C275 N274 1.355 . S
C275 C276 1.363 . S
C275 H287 0.929 . S
C276 C275 1.363 . S
C276 N278 1.375 . S
C276 H294 0.931 . S
C277 N274 1.311 . S
C277 N278 1.347 . S
C277 H288 0.929 . S
N278 C276 1.375 . S
N278 C277 1.347 . S
C279 C282 1.365 . S
C279 N284 1.328 . S
C279 H285 0.929 . S
C280 C281 1.362 . S
C280 C283 1.378 . S
C280 H295 0.929 . S
C281 C280 1.362 . S
C281 C282 1.366 . S
C282 C279 1.365 . S
C282 C281 1.366 . S
C282 H296 0.930 . S
C283 C280 1.378 . S
C283 N284 1.315 . S
C283 H286 0.930 . S
N284 Co264 2.194 . S
N284 C279 1.328 . S
N284 C283 1.315 . S
H285 C279 0.929 . S
H286 C283 0.930 . S
H287 C275 0.929 . S
H288 C277 0.929 . S
O289 Co264 2.351 . S
O289 C292 1.244 . S
O290 Co264 2.155 . S
O290 C292 1.240 . S
O291 Co264 2.096 . S
O291 C272 1.247 . S
C292 O289 1.244 . S
C292 O290 1.240 . S
H293 C267 0.931 . S
H294 C276 0.931 . S
H295 C280 0.929 . S
H296 C282 0.930 . S
Co297 N301 2.148 . S
Co297 N307 2.128 . S
Co297 N317 2.194 . S
Co297 O322 2.351 . S
Co297 O323 2.155 . S
Co297 O324 2.096 . S
C298 N301 1.301 . S
C298 N302 1.328 . S
C298 H303 0.930 . S
C299 C300 1.333 . S
C299 N301 1.317 . S
C299 H304 0.930 . S
C300 C299 1.333 . S
C300 N302 1.350 . S
C300 H326 0.931 . S
N301 Co297 2.148 . S
N301 C298 1.301 . S
N301 C299 1.317 . S
N302 C298 1.328 . S
N302 C300 1.350 . S
H303 C298 0.930 . S
H304 C299 0.930 . S
C305 O306 1.224 . S
C305 O324 1.247 . S
O306 C305 1.224 . S
N307 Co297 2.128 . S
N307 C308 1.355 . S
N307 C310 1.311 . S
C308 N307 1.355 . S
C308 C309 1.363 . S
C308 H320 0.929 . S
C309 C308 1.363 . S
C309 N311 1.375 . S
C309 H327 0.931 . S
C310 N307 1.311 . S
C310 N311 1.347 . S
C310 H321 0.929 . S
N311 C309 1.375 . S
N311 C310 1.347 . S
C312 C315 1.365 . S
C312 N317 1.328 . S
C312 H318 0.929 . S
C313 C314 1.362 . S
C313 C316 1.378 . S
C313 H328 0.929 . S
C314 C313 1.362 . S
C314 C315 1.366 . S
C315 C312 1.365 . S
C315 C314 1.366 . S
C315 H329 0.930 . S
C316 C313 1.378 . S
C316 N317 1.315 . S
C316 H319 0.930 . S
N317 Co297 2.194 . S
N317 C312 1.328 . S
N317 C316 1.315 . S
H318 C312 0.929 . S
H319 C316 0.930 . S
H320 C308 0.929 . S
H321 C310 0.929 . S
O322 Co297 2.351 . S
O322 C325 1.244 . S
O323 Co297 2.155 . S
O323 C325 1.240 . S
O324 Co297 2.096 . S
O324 C305 1.247 . S
C325 O322 1.244 . S
C325 O323 1.240 . S
H326 C300 0.931 . S
H327 C309 0.931 . S
H328 C313 0.929 . S
H329 C315 0.930 . S
Co330 N334 2.148 . S
Co330 N340 2.128 . S
Co330 N350 2.194 . S
Co330 O355 2.351 . S
Co330 O356 2.155 . S
Co330 O357 2.096 . S
C331 N334 1.301 . S
C331 N335 1.328 . S
C331 H336 0.930 . S
C332 C333 1.333 . S
C332 N334 1.317 . S
C332 H337 0.930 . S
C333 C332 1.333 . S
C333 N335 1.350 . S
C333 H359 0.931 . S
N334 Co330 2.148 . S
N334 C331 1.301 . S
N334 C332 1.317 . S
N335 C331 1.328 . S
N335 C333 1.350 . S
H336 C331 0.930 . S
H337 C332 0.930 . S
C338 O339 1.224 . S
C338 O357 1.247 . S
O339 C338 1.224 . S
N340 Co330 2.128 . S
N340 C341 1.355 . S
N340 C343 1.311 . S
C341 N340 1.355 . S
C341 C342 1.363 . S
C341 H353 0.929 . S
C342 C341 1.363 . S
C342 N344 1.375 . S
C342 H360 0.931 . S
C343 N340 1.311 . S
C343 N344 1.347 . S
C343 H354 0.929 . S
N344 C342 1.375 . S
N344 C343 1.347 . S
C345 C348 1.365 . S
C345 N350 1.328 . S
C345 H351 0.929 . S
C346 C347 1.362 . S
C346 C349 1.378 . S
C346 H361 0.929 . S
C347 C346 1.362 . S
C347 C348 1.366 . S
C348 C345 1.365 . S
C348 C347 1.366 . S
C348 H362 0.930 . S
C349 C346 1.378 . S
C349 N350 1.315 . S
C349 H352 0.930 . S
N350 Co330 2.194 . S
N350 C345 1.328 . S
N350 C349 1.315 . S
H351 C345 0.929 . S
H352 C349 0.930 . S
H353 C341 0.929 . S
H354 C343 0.929 . S
O355 Co330 2.351 . S
O355 C358 1.244 . S
O356 Co330 2.155 . S
O356 C358 1.240 . S
O357 Co330 2.096 . S
O357 C338 1.247 . S
C358 O355 1.244 . S
C358 O356 1.240 . S
H359 C333 0.931 . S
H360 C342 0.931 . S
H361 C346 0.929 . S
H362 C348 0.930 . S
Co363 N367 2.148 . S
Co363 N373 2.128 . S
Co363 N383 2.194 . S
Co363 O388 2.351 . S
Co363 O389 2.155 . S
Co363 O390 2.096 . S
C364 N367 1.301 . S
C364 N368 1.328 . S
C364 H369 0.930 . S
C365 C366 1.333 . S
C365 N367 1.317 . S
C365 H370 0.930 . S
C366 C365 1.333 . S
C366 N368 1.350 . S
C366 H392 0.931 . S
N367 Co363 2.148 . S
N367 C364 1.301 . S
N367 C365 1.317 . S
N368 C364 1.328 . S
N368 C366 1.350 . S
H369 C364 0.930 . S
H370 C365 0.930 . S
C371 O372 1.224 . S
C371 O390 1.247 . S
O372 C371 1.224 . S
N373 Co363 2.128 . S
N373 C374 1.355 . S
N373 C376 1.311 . S
C374 N373 1.355 . S
C374 C375 1.363 . S
C374 H386 0.929 . S
C375 C374 1.363 . S
C375 N377 1.375 . S
C375 H393 0.931 . S
C376 N373 1.311 . S
C376 N377 1.347 . S
C376 H387 0.929 . S
N377 C375 1.375 . S
N377 C376 1.347 . S
C378 C381 1.365 . S
C378 N383 1.328 . S
C378 H384 0.929 . S
C379 C380 1.362 . S
C379 C382 1.378 . S
C379 H394 0.929 . S
C380 C379 1.362 . S
C380 C381 1.366 . S
C381 C378 1.365 . S
C381 C380 1.366 . S
C381 H395 0.930 . S
C382 C379 1.378 . S
C382 N383 1.315 . S
C382 H385 0.930 . S
N383 Co363 2.194 . S
N383 C378 1.328 . S
N383 C382 1.315 . S
H384 C378 0.929 . S
H385 C382 0.930 . S
H386 C374 0.929 . S
H387 C376 0.929 . S
O388 Co363 2.351 . S
O388 C391 1.244 . S
O389 Co363 2.155 . S
O389 C391 1.240 . S
O390 Co363 2.096 . S
O390 C371 1.247 . S
C391 O388 1.244 . S
C391 O389 1.240 . S
H392 C366 0.931 . S
H393 C375 0.931 . S
H394 C379 0.929 . S
H395 C381 0.930 . S
H396 C402 0.930 . S
H397 C406 0.930 . S
H398 C411 0.929 . S
H399 C409 0.929 . S
H400 C404 0.929 . S
H401 C410 0.929 . S
C402 H396 0.930 . S
C402 C403 1.367 . S
C402 C410 1.378 . S
C403 C402 1.367 . S
C403 C411 1.433 . S
C404 H400 0.929 . S
C404 C406 1.378 . S
C404 C408 1.350 . S
C405 C408 1.463 . S
C405 C410 1.350 . S
C405 N413 1.427 . S
C406 H397 0.930 . S
C406 C404 1.378 . S
C406 C407 1.367 . S
C407 C406 1.367 . S
C407 C409 1.433 . S
C408 C404 1.350 . S
C408 C405 1.463 . S
C408 N412 1.427 . S
C409 H399 0.929 . S
C409 C407 1.433 . S
C409 N412 1.384 . S
C410 H401 0.929 . S
C410 C402 1.378 . S
C410 C405 1.350 . S
C411 H398 0.929 . S
C411 C403 1.433 . S
C411 N413 1.384 . S
N412 C408 1.427 . S
N412 C409 1.384 . S
N413 C405 1.427 . S
N413 C411 1.384 . S
H414 C420 0.930 . S
H415 C424 0.930 . S
H416 C429 0.929 . S
H417 C427 0.929 . S
H418 C422 0.929 . S
H419 C428 0.929 . S
C420 H414 0.930 . S
C420 C421 1.367 . S
C420 C428 1.378 . S
C421 C420 1.367 . S
C421 C429 1.433 . S
C422 H418 0.929 . S
C422 C424 1.378 . S
C422 C426 1.350 . S
C423 C426 1.463 . S
C423 C428 1.350 . S
C423 N431 1.427 . S
C424 H415 0.930 . S
C424 C422 1.378 . S
C424 C425 1.367 . S
C425 C424 1.367 . S
C425 C427 1.433 . S
C426 C422 1.350 . S
C426 C423 1.463 . S
C426 N430 1.427 . S
C427 H417 0.929 . S
C427 C425 1.433 . S
C427 N430 1.384 . S
C428 H419 0.929 . S
C428 C420 1.378 . S
C428 C423 1.350 . S
C429 H416 0.929 . S
C429 C421 1.433 . S
C429 N431 1.384 . S
N430 C426 1.427 . S
N430 C427 1.384 . S
N431 C423 1.427 . S
N431 C429 1.384 . S
H432 C438 0.930 . S
H433 C442 0.930 . S
H434 C447 0.929 . S
H435 C445 0.929 . S
H436 C440 0.929 . S
H437 C446 0.929 . S
C438 H432 0.930 . S
C438 C439 1.367 . S
C438 C446 1.378 . S
C439 C438 1.367 . S
C439 C447 1.433 . S
C440 H436 0.929 . S
C440 C442 1.378 . S
C440 C444 1.350 . S
C441 C444 1.463 . S
C441 C446 1.350 . S
C441 N449 1.427 . S
C442 H433 0.930 . S
C442 C440 1.378 . S
C442 C443 1.367 . S
C443 C442 1.367 . S
C443 C445 1.433 . S
C444 C440 1.350 . S
C444 C441 1.463 . S
C444 N448 1.427 . S
C445 H435 0.929 . S
C445 C443 1.433 . S
C445 N448 1.384 . S
C446 H437 0.929 . S
C446 C438 1.378 . S
C446 C441 1.350 . S
C447 H434 0.929 . S
C447 C439 1.433 . S
C447 N449 1.384 . S
N448 C444 1.427 . S
N448 C445 1.384 . S
N449 C441 1.427 . S
N449 C447 1.384 . S
H450 C456 0.930 . S
H451 C460 0.930 . S
H452 C465 0.929 . S
H453 C463 0.929 . S
H454 C458 0.929 . S
H455 C464 0.929 . S
C456 H450 0.930 . S
C456 C457 1.367 . S
C456 C464 1.378 . S
C457 C456 1.367 . S
C457 C465 1.433 . S
C458 H454 0.929 . S
C458 C460 1.378 . S
C458 C462 1.350 . S
C459 C462 1.463 . S
C459 C464 1.350 . S
C459 N467 1.427 . S
C460 H451 0.930 . S
C460 C458 1.378 . S
C460 C461 1.367 . S
C461 C460 1.367 . S
C461 C463 1.433 . S
C462 C458 1.350 . S
C462 C459 1.463 . S
C462 N466 1.427 . S
C463 H453 0.929 . S
C463 C461 1.433 . S
C463 N466 1.384 . S
C464 H455 0.929 . S
C464 C456 1.378 . S
C464 C459 1.350 . S
C465 H452 0.929 . S
C465 C457 1.433 . S
C465 N467 1.384 . S
N466 C462 1.427 . S
N466 C463 1.384 . S
N467 C459 1.427 . S
N467 C465 1.384 . S
H468 C474 0.930 . S
H469 C478 0.930 . S
H470 C483 0.929 . S
H471 C481 0.929 . S
H472 C476 0.929 . S
H473 C482 0.929 . S
C474 H468 0.930 . S
C474 C475 1.367 . S
C474 C482 1.378 . S
C475 C474 1.367 . S
C475 C483 1.433 . S
C476 H472 0.929 . S
C476 C478 1.378 . S
C476 C480 1.350 . S
C477 C480 1.463 . S
C477 C482 1.350 . S
C477 N485 1.427 . S
C478 H469 0.930 . S
C478 C476 1.378 . S
C478 C479 1.367 . S
C479 C478 1.367 . S
C479 C481 1.433 . S
C480 C476 1.350 . S
C480 C477 1.463 . S
C480 N484 1.427 . S
C481 H471 0.929 . S
C481 C479 1.433 . S
C481 N484 1.384 . S
C482 H473 0.929 . S
C482 C474 1.378 . S
C482 C477 1.350 . S
C483 H470 0.929 . S
C483 C475 1.433 . S
C483 N485 1.384 . S
N484 C480 1.427 . S
N484 C481 1.384 . S
N485 C477 1.427 . S
N485 C483 1.384 . S
H486 C492 0.930 . S
H487 C496 0.930 . S
H488 C501 0.929 . S
H489 C499 0.929 . S
H490 C494 0.929 . S
H491 C500 0.929 . S
C492 H486 0.930 . S
C492 C493 1.367 . S
C492 C500 1.378 . S
C493 C492 1.367 . S
C493 C501 1.433 . S
C494 H490 0.929 . S
C494 C496 1.378 . S
C494 C498 1.350 . S
C495 C498 1.463 . S
C495 C500 1.350 . S
C495 N503 1.427 . S
C496 H487 0.930 . S
C496 C494 1.378 . S
C496 C497 1.367 . S
C497 C496 1.367 . S
C497 C499 1.433 . S
C498 C494 1.350 . S
C498 C495 1.463 . S
C498 N502 1.427 . S
C499 H489 0.929 . S
C499 C497 1.433 . S
C499 N502 1.384 . S
C500 H491 0.929 . S
C500 C492 1.378 . S
C500 C495 1.350 . S
C501 H488 0.929 . S
C501 C493 1.433 . S
C501 N503 1.384 . S
N502 C498 1.427 . S
N502 C499 1.384 . S
N503 C495 1.427 . S
N503 C501 1.384 . S
H504 C510 0.930 . S
H505 C514 0.930 . S
H506 C519 0.929 . S
H507 C517 0.929 . S
H508 C512 0.929 . S
H509 C518 0.929 . S
C510 H504 0.930 . S
C510 C511 1.367 . S
C510 C518 1.378 . S
C511 C510 1.367 . S
C511 C519 1.433 . S
C512 H508 0.929 . S
C512 C514 1.378 . S
C512 C516 1.350 . S
C513 C516 1.463 . S
C513 C518 1.350 . S
C513 N521 1.427 . S
C514 H505 0.930 . S
C514 C512 1.378 . S
C514 C515 1.367 . S
C515 C514 1.367 . S
C515 C517 1.433 . S
C516 C512 1.350 . S
C516 C513 1.463 . S
C516 N520 1.427 . S
C517 H507 0.929 . S
C517 C515 1.433 . S
C517 N520 1.384 . S
C518 H509 0.929 . S
C518 C510 1.378 . S
C518 C513 1.350 . S
C519 H506 0.929 . S
C519 C511 1.433 . S
C519 N521 1.384 . S
N520 C516 1.427 . S
N520 C517 1.384 . S
N521 C513 1.427 . S
N521 C519 1.384 . S
H522 C528 0.930 . S
H523 C532 0.930 . S
H524 C537 0.929 . S
H525 C535 0.929 . S
H526 C530 0.929 . S
H527 C536 0.929 . S
C528 H522 0.930 . S
C528 C529 1.367 . S
C528 C536 1.378 . S
C529 C528 1.367 . S
C529 C537 1.433 . S
C530 H526 0.929 . S
C530 C532 1.378 . S
C530 C534 1.350 . S
C531 C534 1.463 . S
C531 C536 1.350 . S
C531 N539 1.427 . S
C532 H523 0.930 . S
C532 C530 1.378 . S
C532 C533 1.367 . S
C533 C532 1.367 . S
C533 C535 1.433 . S
C534 C530 1.350 . S
C534 C531 1.463 . S
C534 N538 1.427 . S
C535 H525 0.929 . S
C535 C533 1.433 . S
C535 N538 1.384 . S
C536 H527 0.929 . S
C536 C528 1.378 . S
C536 C531 1.350 . S
C537 H524 0.929 . S
C537 C529 1.433 . S
C537 N539 1.384 . S
N538 C534 1.427 . S
N538 C535 1.384 . S
N539 C531 1.427 . S
N539 C537 1.384 . S
H540 C546 0.930 . S
H541 C550 0.930 . S
H542 C555 0.929 . S
H543 C553 0.929 . S
H544 C548 0.929 . S
H545 C554 0.929 . S
C546 H540 0.930 . S
C546 C547 1.367 . S
C546 C554 1.378 . S
C547 C546 1.367 . S
C547 C555 1.433 . S
C548 H544 0.929 . S
C548 C550 1.378 . S
C548 C552 1.350 . S
C549 C552 1.463 . S
C549 C554 1.350 . S
C549 N557 1.427 . S
C550 H541 0.930 . S
C550 C548 1.378 . S
C550 C551 1.367 . S
C551 C550 1.367 . S
C551 C553 1.433 . S
C552 C548 1.350 . S
C552 C549 1.463 . S
C552 N556 1.427 . S
C553 H543 0.929 . S
C553 C551 1.433 . S
C553 N556 1.384 . S
C554 H545 0.929 . S
C554 C546 1.378 . S
C554 C549 1.350 . S
C555 H542 0.929 . S
C555 C547 1.433 . S
C555 N557 1.384 . S
N556 C552 1.427 . S
N556 C553 1.384 . S
N557 C549 1.427 . S
N557 C555 1.384 . S
H558 C564 0.930 . S
H559 C568 0.930 . S
H560 C573 0.929 . S
H561 C571 0.929 . S
H562 C566 0.929 . S
H563 C572 0.929 . S
C564 H558 0.930 . S
C564 C565 1.367 . S
C564 C572 1.378 . S
C565 C564 1.367 . S
C565 C573 1.433 . S
C566 H562 0.929 . S
C566 C568 1.378 . S
C566 C570 1.350 . S
C567 C570 1.463 . S
C567 C572 1.350 . S
C567 N575 1.427 . S
C568 H559 0.930 . S
C568 C566 1.378 . S
C568 C569 1.367 . S
C569 C568 1.367 . S
C569 C571 1.433 . S
C570 C566 1.350 . S
C570 C567 1.463 . S
C570 N574 1.427 . S
C571 H561 0.929 . S
C571 C569 1.433 . S
C571 N574 1.384 . S
C572 H563 0.929 . S
C572 C564 1.378 . S
C572 C567 1.350 . S
C573 H560 0.929 . S
C573 C565 1.433 . S
C573 N575 1.384 . S
N574 C570 1.427 . S
N574 C571 1.384 . S
N575 C567 1.427 . S
N575 C573 1.384 . S
H576 C582 0.930 . S
H577 C586 0.930 . S
H578 C591 0.929 . S
H579 C589 0.929 . S
H580 C584 0.929 . S
H581 C590 0.929 . S
C582 H576 0.930 . S
C582 C583 1.367 . S
C582 C590 1.378 . S
C583 C582 1.367 . S
C583 C591 1.433 . S
C584 H580 0.929 . S
C584 C586 1.378 . S
C584 C588 1.350 . S
C585 C588 1.463 . S
C585 C590 1.350 . S
C585 N593 1.427 . S
C586 H577 0.930 . S
C586 C584 1.378 . S
C586 C587 1.367 . S
C587 C586 1.367 . S
C587 C589 1.433 . S
C588 C584 1.350 . S
C588 C585 1.463 . S
C588 N592 1.427 . S
C589 H579 0.929 . S
C589 C587 1.433 . S
C589 N592 1.384 . S
C590 H581 0.929 . S
C590 C582 1.378 . S
C590 C585 1.350 . S
C591 H578 0.929 . S
C591 C583 1.433 . S
C591 N593 1.384 . S
N592 C588 1.427 . S
N592 C589 1.384 . S
N593 C585 1.427 . S
N593 C591 1.384 . S
H594 C600 0.930 . S
H595 C604 0.930 . S
H596 C609 0.929 . S
H597 C607 0.929 . S
H598 C602 0.929 . S
H599 C608 0.929 . S
C600 H594 0.930 . S
C600 C601 1.367 . S
C600 C608 1.378 . S
C601 C600 1.367 . S
C601 C609 1.433 . S
C602 H598 0.929 . S
C602 C604 1.378 . S
C602 C606 1.350 . S
C603 C606 1.463 . S
C603 C608 1.350 . S
C603 N611 1.427 . S
C604 H595 0.930 . S
C604 C602 1.378 . S
C604 C605 1.367 . S
C605 C604 1.367 . S
C605 C607 1.433 . S
C606 C602 1.350 . S
C606 C603 1.463 . S
C606 N610 1.427 . S
C607 H597 0.929 . S
C607 C605 1.433 . S
C607 N610 1.384 . S
C608 H599 0.929 . S
C608 C600 1.378 . S
C608 C603 1.350 . S
C609 H596 0.929 . S
C609 C601 1.433 . S
C609 N611 1.384 . S
N610 C606 1.427 . S
N610 C607 1.384 . S
N611 C603 1.427 . S
N611 C609 1.384 . S
H612 C618 0.930 . S
H613 C622 0.930 . S
H614 C627 0.929 . S
H615 C625 0.929 . S
H616 C620 0.929 . S
H617 C626 0.929 . S
C618 H612 0.930 . S
C618 C619 1.367 . S
C618 C626 1.378 . S
C619 C618 1.367 . S
C619 C627 1.433 . S
C620 H616 0.929 . S
C620 C622 1.378 . S
C620 C624 1.350 . S
C621 C624 1.463 1_554 S
C621 C626 1.350 . S
C621 N629 1.427 . S
C622 H613 0.930 . S
C622 C620 1.378 . S
C622 C623 1.367 1_545 S
C623 C622 1.367 1_565 S
C623 C625 1.433 . S
C624 C620 1.350 . S
C624 C621 1.463 1_556 S
C624 N628 1.427 . S
C625 H615 0.929 . S
C625 C623 1.433 . S
C625 N628 1.384 1_565 S
C626 H617 0.929 . S
C626 C618 1.378 . S
C626 C621 1.350 . S
C627 H614 0.929 . S
C627 C619 1.433 . S
C627 N629 1.384 . S
N628 C624 1.427 . S
N628 C625 1.384 1_545 S
N629 C621 1.427 . S
N629 C627 1.384 . S
H630 C636 0.930 . S
H631 C640 0.930 . S
H632 C645 0.929 . S
H633 C643 0.929 . S
H634 C638 0.929 . S
H635 C644 0.929 . S
C636 H630 0.930 . S
C636 C637 1.367 . S
C636 C644 1.378 . S
C637 C636 1.367 . S
C637 C645 1.433 . S
C638 H634 0.929 . S
C638 C640 1.378 . S
C638 C642 1.350 . S
C639 C642 1.463 1_554 S
C639 C644 1.350 . S
C639 N647 1.427 . S
C640 H631 0.930 . S
C640 C638 1.378 . S
C640 C641 1.367 1_655 S
C641 C640 1.367 1_455 S
C641 C643 1.433 . S
C642 C638 1.350 . S
C642 C639 1.463 1_556 S
C642 N646 1.427 . S
C643 H633 0.929 . S
C643 C641 1.433 . S
C643 N646 1.384 1_455 S
C644 H635 0.929 . S
C644 C636 1.378 . S
C644 C639 1.350 . S
C645 H632 0.929 . S
C645 C637 1.433 . S
C645 N647 1.384 . S
N646 C642 1.427 . S
N646 C643 1.384 1_655 S
N647 C639 1.427 . S
N647 C645 1.384 . S
H648 C654 0.930 . S
H649 C658 0.930 . S
H650 C663 0.929 . S
H651 C661 0.929 . S
H652 C656 0.929 . S
H653 C662 0.929 . S
C654 H648 0.930 . S
C654 C655 1.367 . S
C654 C662 1.378 . S
C655 C654 1.367 . S
C655 C663 1.433 . S
C656 H652 0.929 . S
C656 C658 1.378 . S
C656 C660 1.350 . S
C657 C660 1.463 1_554 S
C657 C662 1.350 . S
C657 N665 1.427 . S
C658 H649 0.930 . S
C658 C656 1.378 . S
C658 C659 1.367 . S
C659 C658 1.367 . S
C659 C661 1.433 . S
C660 C656 1.350 . S
C660 C657 1.463 1_556 S
C660 N664 1.427 . S
C661 H651 0.929 . S
C661 C659 1.433 . S
C661 N664 1.384 . S
C662 H653 0.929 . S
C662 C654 1.378 . S
C662 C657 1.350 . S
C663 H650 0.929 . S
C663 C655 1.433 . S
C663 N665 1.384 . S
N664 C660 1.427 . S
N664 C661 1.384 . S
N665 C657 1.427 . S
N665 C663 1.384 . S
H666 C672 0.930 . S
H667 C676 0.930 . S
H668 C681 0.929 . S
H669 C679 0.929 . S
H670 C674 0.929 . S
H671 C680 0.929 . S
C672 H666 0.930 . S
C672 C673 1.367 . S
C672 C680 1.378 1_655 S
C673 C672 1.367 . S
C673 C681 1.433 1_655 S
C674 H670 0.929 . S
C674 C676 1.378 . S
C674 C678 1.350 . S
C675 C678 1.463 . S
C675 C680 1.350 . S
C675 N683 1.427 . S
C676 H667 0.930 . S
C676 C674 1.378 . S
C676 C677 1.367 . S
C677 C676 1.367 . S
C677 C679 1.433 . S
C678 C674 1.350 . S
C678 C675 1.463 . S
C678 N682 1.427 . S
C679 H669 0.929 . S
C679 C677 1.433 . S
C679 N682 1.384 . S
C680 H671 0.929 . S
C680 C672 1.378 1_455 S
C680 C675 1.350 . S
C681 H668 0.929 . S
C681 C673 1.433 1_455 S
C681 N683 1.384 . S
N682 C678 1.427 . S
N682 C679 1.384 . S
N683 C675 1.427 . S
N683 C681 1.384 . S
H684 C690 0.930 . S
H685 C694 0.930 . S
H686 C699 0.929 . S
H687 C697 0.929 . S
H688 C692 0.929 . S
H689 C698 0.929 . S
C690 H684 0.930 . S
C690 C691 1.367 . S
C690 C698 1.378 . S
C691 C690 1.367 . S
C691 C699 1.433 . S
C692 H688 0.929 . S
C692 C694 1.378 . S
C692 C696 1.350 . S
C693 C696 1.463 . S
C693 C698 1.350 . S
C693 N701 1.427 . S
C694 H685 0.930 . S
C694 C692 1.378 . S
C694 C695 1.367 . S
C695 C694 1.367 . S
C695 C697 1.433 . S
C696 C692 1.350 . S
C696 C693 1.463 . S
C696 N700 1.427 . S
C697 H687 0.929 . S
C697 C695 1.433 . S
C697 N700 1.384 . S
C698 H689 0.929 . S
C698 C690 1.378 . S
C698 C693 1.350 . S
C699 H686 0.929 . S
C699 C691 1.433 . S
C699 N701 1.384 . S
N700 C696 1.427 . S
N700 C697 1.384 . S
N701 C693 1.427 . S
N701 C699 1.384 . S
H702 C708 0.930 . S
H703 C712 0.930 . S
H704 C717 0.929 . S
H705 C715 0.929 . S
H706 C710 0.929 . S
H707 C716 0.929 . S
C708 H702 0.930 . S
C708 C709 1.367 1_565 S
C708 C716 1.378 . S
C709 C708 1.367 1_545 S
C709 C717 1.433 . S
C710 H706 0.929 . S
C710 C712 1.378 . S
C710 C714 1.350 . S
C711 C714 1.463 . S
C711 C716 1.350 . S
C711 N719 1.427 . S
C712 H703 0.930 . S
C712 C710 1.378 . S
C712 C713 1.367 . S
C713 C712 1.367 . S
C713 C715 1.433 . S
C714 C710 1.350 . S
C714 C711 1.463 . S
C714 N718 1.427 . S
C715 H705 0.929 . S
C715 C713 1.433 . S
C715 N718 1.384 . S
C716 H707 0.929 . S
C716 C708 1.378 . S
C716 C711 1.350 . S
C717 H704 0.929 . S
C717 C709 1.433 . S
C717 N719 1.384 1_545 S
N718 C714 1.427 . S
N718 C715 1.384 . S
N719 C711 1.427 . S
N719 C717 1.384 1_565 S
H720 C726 0.930 . S
H721 C730 0.930 . S
H722 C735 0.929 . S
H723 C733 0.929 . S
H724 C728 0.929 1_554 S
H725 C734 0.926 . S
C726 H720 0.930 . S
C726 C727 1.367 . S
C726 C734 1.380 1_544 S
C727 C726 1.367 . S
C727 C735 1.433 1_545 S
C728 H724 0.929 1_556 S
C728 C730 1.378 . S
C728 C732 1.350 . S
C729 C732 1.463 1_554 S
C729 C734 1.351 1_554 S
C729 N737 1.427 . S
C730 H721 0.930 . S
C730 C728 1.378 . S
C730 C731 1.367 . S
C731 C730 1.367 . S
C731 C733 1.433 . S
C732 C728 1.350 . S
C732 C729 1.463 1_556 S
C732 N736 1.427 . S
C733 H723 0.929 . S
C733 C731 1.433 . S
C733 N736 1.384 . S
C734 H725 0.926 . S
C734 C726 1.380 1_566 S
C734 C729 1.351 1_556 S
C735 H722 0.929 . S
C735 C727 1.433 1_565 S
C735 N737 1.384 . S
N736 C732 1.427 . S
N736 C733 1.384 . S
N737 C729 1.427 . S
N737 C735 1.384 . S
H738 C744 0.930 . S
H739 C748 0.930 . S
H740 C753 0.929 . S
H741 C751 0.929 . S
H742 C746 0.929 1_554 S
H743 C752 0.943 . S
C744 H738 0.930 . S
C744 C745 1.367 . S
C744 C752 1.367 1_654 S
C745 C744 1.367 . S
C745 C753 1.433 1_655 S
C746 H742 0.929 1_556 S
C746 C748 1.378 . S
C746 C750 1.350 . S
C747 C750 1.463 1_554 S
C747 C752 1.346 1_554 S
C747 N755 1.427 . S
C748 H739 0.930 . S
C748 C746 1.378 . S
C748 C749 1.367 . S
C749 C748 1.367 . S
C749 C751 1.433 . S
C750 C746 1.350 . S
C750 C747 1.463 1_556 S
C750 N754 1.427 . S
C751 H741 0.929 . S
C751 C749 1.433 . S
C751 N754 1.384 . S
C752 H743 0.943 . S
C752 C744 1.367 1_456 S
C752 C747 1.346 1_556 S
C753 H740 0.929 . S
C753 C745 1.433 1_455 S
C753 N755 1.384 . S
N754 C750 1.427 . S
N754 C751 1.384 . S
N755 C747 1.427 . S
N755 C753 1.384 . S
H756 C762 0.930 . S
H757 C766 0.930 . S
H758 C771 0.929 . S
H759 C769 0.929 . S
H760 C764 0.941 . S
H761 C770 0.929 . S
C762 H756 0.930 . S
C762 C763 1.367 . S
C762 C770 1.378 . S
C763 C762 1.367 . S
C763 C771 1.433 . S
C764 H760 0.941 . S
C764 C766 1.378 . S
C764 C768 1.350 . S
C765 C768 1.463 1_556 S
C765 C770 1.350 . S
C765 N773 1.427 . S
C766 H757 0.930 . S
C766 C764 1.378 . S
C766 C767 1.367 . S
C767 C766 1.367 . S
C767 C769 1.433 . S
C768 C764 1.350 . S
C768 C765 1.463 1_554 S
C768 N772 1.427 . S
C769 H759 0.929 . S
C769 C767 1.433 . S
C769 N772 1.384 . S
C770 H761 0.929 . S
C770 C762 1.378 . S
C770 C765 1.350 . S
C771 H758 0.929 . S
C771 C763 1.433 . S
C771 N773 1.384 . S
N772 C768 1.427 . S
N772 C769 1.384 . S
N773 C765 1.427 . S
N773 C771 1.384 . S
H774 C780 0.930 . S
H775 C784 0.930 . S
H776 C789 0.929 . S
H777 C787 0.929 . S
H778 C782 0.929 . S
H779 C788 0.929 . S
C780 H774 0.930 . S
C780 C781 1.367 1_655 S
C780 C788 1.378 . S
C781 C780 1.367 1_455 S
C781 C789 1.433 . S
C782 H778 0.929 . S
C782 C784 1.378 . S
C782 C786 1.350 . S
C783 C786 1.463 . S
C783 C788 1.350 . S
C783 N791 1.427 . S
C784 H775 0.930 . S
C784 C782 1.378 . S
C784 C785 1.367 . S
C785 C784 1.367 . S
C785 C787 1.433 . S
C786 C782 1.350 . S
C786 C783 1.463 . S
C786 N790 1.427 . S
C787 H777 0.929 . S
C787 C785 1.433 . S
C787 N790 1.384 . S
C788 H779 0.929 . S
C788 C780 1.378 . S
C788 C783 1.350 . S
C789 H776 0.929 . S
C789 C781 1.433 . S
C789 N791 1.384 1_455 S
N790 C786 1.427 . S
N790 C787 1.384 . S
N791 C783 1.427 . S
N791 C789 1.384 1_655 S
H792 C798 0.930 . S
H793 C802 0.930 . S
H794 C807 0.929 . S
H795 C805 0.929 . S
H796 C800 0.929 . S
H797 C806 0.929 . S
C798 H792 0.930 . S
C798 C799 1.367 . S
C798 C806 1.378 . S
C799 C798 1.367 . S
C799 C807 1.433 . S
C800 H796 0.929 . S
C800 C802 1.378 . S
C800 C804 1.350 . S
C801 C804 1.463 . S
C801 C806 1.350 . S
C801 N809 1.427 . S
C802 H793 0.930 . S
C802 C800 1.378 . S
C802 C803 1.367 . S
C803 C802 1.367 . S
C803 C805 1.433 . S
C804 C800 1.350 . S
C804 C801 1.463 . S
C804 N808 1.427 . S
C805 H795 0.929 . S
C805 C803 1.433 . S
C805 N808 1.384 . S
C806 H797 0.929 . S
C806 C798 1.378 . S
C806 C801 1.350 . S
C807 H794 0.929 . S
C807 C799 1.433 . S
C807 N809 1.384 . S
N808 C804 1.427 . S
N808 C805 1.384 . S
N809 C801 1.427 . S
N809 C807 1.384 . S
H810 C816 0.930 . S
H811 C820 0.930 . S
H812 C825 0.929 . S
H813 C823 0.929 . S
H814 C818 0.929 . S
H815 C824 0.929 . S
C816 H810 0.930 . S
C816 C817 1.367 . S
C816 C824 1.378 . S
C817 C816 1.367 . S
C817 C825 1.433 . S
C818 H814 0.929 . S
C818 C820 1.378 1_545 S
C818 C822 1.350 . S
C819 C822 1.463 . S
C819 C824 1.350 . S
C819 N827 1.427 . S
C820 H811 0.930 . S
C820 C818 1.378 1_565 S
C820 C821 1.367 . S
C821 C820 1.367 . S
C821 C823 1.433 1_565 S
C822 C818 1.350 . S
C822 C819 1.463 . S
C822 N826 1.427 . S
C823 H813 0.929 . S
C823 C821 1.433 1_545 S
C823 N826 1.384 . S
C824 H815 0.929 . S
C824 C816 1.378 . S
C824 C819 1.350 . S
C825 H812 0.929 . S
C825 C817 1.433 . S
C825 N827 1.384 . S
N826 C822 1.427 . S
N826 C823 1.384 . S
N827 C819 1.427 . S
N827 C825 1.384 . S
H828 C834 0.930 . S
H829 C838 0.930 . S
H830 C843 0.929 . S
H831 C841 0.929 . S
H832 C836 0.929 . S
H833 C842 0.929 . S
C834 H828 0.930 . S
C834 C835 1.367 . S
C834 C842 1.378 . S
C835 C834 1.367 . S
C835 C843 1.433 . S
C836 H832 0.929 . S
C836 C838 1.378 . S
C836 C840 1.350 . S
C837 C840 1.463 . S
C837 C842 1.350 . S
C837 N845 1.427 . S
C838 H829 0.930 . S
C838 C836 1.378 . S
C838 C839 1.367 . S
C839 C838 1.367 . S
C839 C841 1.433 . S
C840 C836 1.350 . S
C840 C837 1.463 . S
C840 N844 1.427 . S
C841 H831 0.929 . S
C841 C839 1.433 . S
C841 N844 1.384 . S
C842 H833 0.929 . S
C842 C834 1.378 . S
C842 C837 1.350 . S
C843 H830 0.929 . S
C843 C835 1.433 . S
C843 N845 1.384 . S
N844 C840 1.427 . S
N844 C841 1.384 . S
N845 C837 1.427 . S
N845 C843 1.384 . S
H846 C852 0.930 . S
H847 C856 0.930 . S
H848 C861 0.929 . S
H849 C859 0.929 . S
H850 C854 0.929 1_545 S
H851 C860 0.929 1_565 S
C852 H846 0.930 . S
C852 C853 1.367 . S
C852 C860 1.378 . S
C853 C852 1.367 . S
C853 C861 1.433 . S
C854 H850 0.929 1_565 S
C854 C856 1.378 . S
C854 C858 1.350 . S
C855 C858 1.463 1_545 S
C855 C860 1.350 . S
C855 N863 1.427 . S
C856 H847 0.930 . S
C856 C854 1.378 . S
C856 C857 1.367 . S
C857 C856 1.367 . S
C857 C859 1.433 . S
C858 C854 1.350 . S
C858 C855 1.463 1_565 S
C858 N862 1.427 . S
C859 H849 0.929 . S
C859 C857 1.433 . S
C859 N862 1.384 . S
C860 H851 0.929 1_545 S
C860 C852 1.378 . S
C860 C855 1.350 . S
C861 H848 0.929 . S
C861 C853 1.433 . S
C861 N863 1.384 . S
N862 C858 1.427 . S
N862 C859 1.384 . S
N863 C855 1.427 . S
N863 C861 1.384 . S
H864 C870 0.930 . S
H865 C874 0.930 . S
H866 C879 0.929 . S
H867 C877 0.929 . S
H868 C872 0.929 . S
H869 C878 0.929 . S
C870 H864 0.930 . S
C870 C871 1.367 . S
C870 C878 1.378 . S
C871 C870 1.367 . S
C871 C879 1.433 . S
C872 H868 0.929 . S
C872 C874 1.378 . S
C872 C876 1.350 . S
C873 C876 1.463 1_655 S
C873 C878 1.350 . S
C873 N881 1.427 . S
C874 H865 0.930 . S
C874 C872 1.378 . S
C874 C875 1.367 . S
C875 C874 1.367 . S
C875 C877 1.433 . S
C876 C872 1.350 . S
C876 C873 1.463 1_455 S
C876 N880 1.427 . S
C877 H867 0.929 . S
C877 C875 1.433 . S
C877 N880 1.384 . S
C878 H869 0.929 . S
C878 C870 1.378 . S
C878 C873 1.350 . S
C879 H866 0.929 . S
C879 C871 1.433 . S
C879 N881 1.384 . S
N880 C876 1.427 . S
N880 C877 1.384 . S
N881 C873 1.427 . S
N881 C879 1.384 . S
H882 C888 0.930 . S
H883 C892 0.930 . S
H884 C897 0.929 . S
H885 C895 0.929 . S
H886 C890 0.929 . S
H887 C896 0.929 . S
C888 H882 0.930 . S
C888 C889 1.367 . S
C888 C896 1.378 . S
C889 C888 1.367 . S
C889 C897 1.433 . S
C890 H886 0.929 . S
C890 C892 1.378 . S
C890 C894 1.350 . S
C891 C894 1.463 . S
C891 C896 1.350 . S
C891 N899 1.427 . S
C892 H883 0.930 . S
C892 C890 1.378 . S
C892 C893 1.367 . S
C893 C892 1.367 . S
C893 C895 1.433 . S
C894 C890 1.350 . S
C894 C891 1.463 . S
C894 N898 1.427 . S
C895 H885 0.929 . S
C895 C893 1.433 . S
C895 N898 1.384 . S
C896 H887 0.929 . S
C896 C888 1.378 . S
C896 C891 1.350 . S
C897 H884 0.929 . S
C897 C889 1.433 . S
C897 N899 1.384 . S
N898 C894 1.427 . S
N898 C895 1.384 . S
N899 C891 1.427 . S
N899 C897 1.384 . S
H900 C906 0.930 . S
H901 C910 0.930 . S
H902 C915 0.929 . S
H903 C913 0.929 . S
H904 C908 0.929 1_565 S
H905 C914 0.929 1_545 S
C906 H900 0.930 . S
C906 C907 1.367 . S
C906 C914 1.378 . S
C907 C906 1.367 . S
C907 C915 1.433 . S
C908 H904 0.929 1_545 S
C908 C910 1.378 . S
C908 C912 1.350 . S
C909 C912 1.463 1_565 S
C909 C914 1.350 . S
C909 N917 1.427 . S
C910 H901 0.930 . S
C910 C908 1.378 . S
C910 C911 1.367 . S
C911 C910 1.367 . S
C911 C913 1.433 . S
C912 C908 1.350 . S
C912 C909 1.463 1_545 S
C912 N916 1.427 . S
C913 H903 0.929 . S
C913 C911 1.433 . S
C913 N916 1.384 . S
C914 H905 0.929 1_565 S
C914 C906 1.378 . S
C914 C909 1.350 . S
C915 H902 0.929 . S
C915 C907 1.433 . S
C915 N917 1.384 . S
N916 C912 1.427 . S
N916 C913 1.384 . S
N917 C909 1.427 . S
N917 C915 1.384 . S
H918 C924 0.930 . S
H919 C928 0.930 . S
H920 C933 0.929 . S
H921 C931 0.929 . S
H922 C926 0.929 . S
H923 C932 0.929 . S
C924 H918 0.930 . S
C924 C925 1.367 . S
C924 C932 1.378 . S
C925 C924 1.367 . S
C925 C933 1.433 . S
C926 H922 0.929 . S
C926 C928 1.378 . S
C926 C930 1.350 . S
C927 C930 1.463 1_455 S
C927 C932 1.350 . S
C927 N935 1.434 . S
C928 H919 0.930 . S
C928 C926 1.378 . S
C928 C929 1.367 . S
C929 C928 1.367 . S
C929 C931 1.433 . S
C930 C926 1.350 . S
C930 C927 1.463 1_655 S
C930 N934 1.434 . S
C931 H921 0.929 . S
C931 C929 1.433 . S
C931 N934 1.394 . S
C932 H923 0.929 . S
C932 C924 1.378 . S
C932 C927 1.350 . S
C933 H920 0.929 . S
C933 C925 1.433 . S
C933 N935 1.394 . S
N934 C930 1.434 . S
N934 C931 1.394 . S
N935 C927 1.434 . S
N935 C933 1.394 . S
C403 C41 1.606 . S
C407 N14 1.590 . S
C421 N47 1.590 . S
C425 C74 1.611 . S
C439 N80 1.584 . S
C443 C8 1.604 . S
C457 N113 1.589 . S
C461 C173 1.605 . S
C475 N146 1.599 . S
C479 C107 1.617 . S
C493 C140 1.612 . S
C497 N179 1.597 . S
C511 C239 1.616 . S
C515 N212 1.599 . S
C529 C272 1.603 . S
C533 N245 1.585 . S
C547 C206 1.603 . S
C551 N278 1.585 . S
C565 N311 1.584 . S
C569 C371 1.604 . S
C583 C305 1.604 . S
C587 N344 1.587 . S
C601 N377 1.587 . S
C605 C338 1.608 . S
C619 C28 1.336 . S
C623 N236 1.290 . S
C637 C61 1.330 . S
C641 N269 1.302 . S
C655 C94 1.328 . S
C659 N203 1.302 . S
C673 N368 1.297 . S
C677 C127 1.327 . S
C691 C160 1.333 . S
C695 N302 1.286 . S
C709 N335 1.302 . S
C713 C193 1.330 . S
C727 N38 1.286 . S
C731 C226 1.332 . S
C745 N71 1.287 . S
C749 C259 1.331 . S
C763 C292 1.336 . S
C767 N5 1.285 . S
C781 N170 1.296 . S
C785 C325 1.335 . S
C799 C358 1.328 . S
C803 N104 1.302 . S
C817 C391 1.333 . S
C821 N137 1.285 . S
C835 C116 1.306 . S
C839 C17 1.302 . S
C853 C50 1.306 . S
C857 C149 1.302 . S
C871 C83 1.313 . S
C875 C182 1.306 . S
C889 C314 1.303 . S
C893 C215 1.303 . S
C907 C248 1.302 . S
C911 C347 1.307 . S
C925 C281 1.315 . S
C929 C380 1.314 . S
