# Generated by pormake.
# Topology vci, (7)-cn, num edge types: 1
# Building blocks:
#     Node 0, Type 0, BuildingBlock: NUHQUE_clean_sbu_2, # of connection points: 7
#     Node 1, Type 0, BuildingBlock: NUHQUE_clean_sbu_2, # of connection points: 7
#     Node 2, Type 0, BuildingBlock: NUHQUE_clean_sbu_2, # of connection points: 7
#     Node 3, Type 0, BuildingBlock: NUHQUE_clean_sbu_2, # of connection points: 7
#     Node 4, Type 0, BuildingBlock: NUHQUE_clean_sbu_2, # of connection points: 7
#     Node 5, Type 0, BuildingBlock: NUHQUE_clean_sbu_2, # of connection points: 7
#     Node 6, Type 0, BuildingBlock: NUHQUE_clean_sbu_2, # of connection points: 7
#     Node 7, Type 0, BuildingBlock: NUHQUE_clean_sbu_2, # of connection points: 7
#     Node 8, Type 0, BuildingBlock: NUHQUE_clean_sbu_2, # of connection points: 7
#     Node 9, Type 0, BuildingBlock: NUHQUE_clean_sbu_2, # of connection points: 7
#     Node 10, Type 0, BuildingBlock: NUHQUE_clean_sbu_2, # of connection points: 7
#     Node 11, Type 0, BuildingBlock: NUHQUE_clean_sbu_2, # of connection points: 7
#     Node 12, Type 0, BuildingBlock: NUHQUE_clean_sbu_2, # of connection points: 7
#     Node 13, Type 0, BuildingBlock: NUHQUE_clean_sbu_2, # of connection points: 7
#     Node 14, Type 0, BuildingBlock: NUHQUE_clean_sbu_2, # of connection points: 7
#     Node 15, Type 0, BuildingBlock: NUHQUE_clean_sbu_2, # of connection points: 7
#     Edge 16, Type (0, 0), BuildingBlock: OJICUG_clean_linker_0, # of connection points: 2
#     Edge 17, Type (0, 0), BuildingBlock: OJICUG_clean_linker_0, # of connection points: 2
#     Edge 18, Type (0, 0), BuildingBlock: OJICUG_clean_linker_0, # of connection points: 2
#     Edge 19, Type (0, 0), BuildingBlock: OJICUG_clean_linker_0, # of connection points: 2
#     Edge 20, Type (0, 0), BuildingBlock: OJICUG_clean_linker_0, # of connection points: 2
#     Edge 21, Type (0, 0), BuildingBlock: OJICUG_clean_linker_0, # of connection points: 2
#     Edge 22, Type (0, 0), BuildingBlock: OJICUG_clean_linker_0, # of connection points: 2
#     Edge 23, Type (0, 0), BuildingBlock: OJICUG_clean_linker_0, # of connection points: 2
#     Edge 24, Type (0, 0), BuildingBlock: OJICUG_clean_linker_0, # of connection points: 2
#     Edge 25, Type (0, 0), BuildingBlock: OJICUG_clean_linker_0, # of connection points: 2
#     Edge 26, Type (0, 0), BuildingBlock: OJICUG_clean_linker_0, # of connection points: 2
#     Edge 27, Type (0, 0), BuildingBlock: OJICUG_clean_linker_0, # of connection points: 2
#     Edge 28, Type (0, 0), BuildingBlock: OJICUG_clean_linker_0, # of connection points: 2
#     Edge 29, Type (0, 0), BuildingBlock: OJICUG_clean_linker_0, # of connection points: 2
#     Edge 30, Type (0, 0), BuildingBlock: OJICUG_clean_linker_0, # of connection points: 2
#     Edge 31, Type (0, 0), BuildingBlock: OJICUG_clean_linker_0, # of connection points: 2
#     Edge 32, Type (0, 0), BuildingBlock: OJICUG_clean_linker_0, # of connection points: 2
#     Edge 33, Type (0, 0), BuildingBlock: OJICUG_clean_linker_0, # of connection points: 2
#     Edge 34, Type (0, 0), BuildingBlock: OJICUG_clean_linker_0, # of connection points: 2
#     Edge 35, Type (0, 0), BuildingBlock: OJICUG_clean_linker_0, # of connection points: 2
#     Edge 36, Type (0, 0), BuildingBlock: OJICUG_clean_linker_0, # of connection points: 2
#     Edge 37, Type (0, 0), BuildingBlock: OJICUG_clean_linker_0, # of connection points: 2
#     Edge 38, Type (0, 0), BuildingBlock: OJICUG_clean_linker_0, # of connection points: 2
#     Edge 39, Type (0, 0), BuildingBlock: OJICUG_clean_linker_0, # of connection points: 2
#     Edge 40, Type (0, 0), BuildingBlock: OJICUG_clean_linker_0, # of connection points: 2
#     Edge 41, Type (0, 0), BuildingBlock: OJICUG_clean_linker_0, # of connection points: 2
#     Edge 42, Type (0, 0), BuildingBlock: OJICUG_clean_linker_0, # of connection points: 2
#     Edge 43, Type (0, 0), BuildingBlock: OJICUG_clean_linker_0, # of connection points: 2
#     Edge 44, Type (0, 0), BuildingBlock: OJICUG_clean_linker_0, # of connection points: 2
#     Edge 45, Type (0, 0), BuildingBlock: OJICUG_clean_linker_0, # of connection points: 2
#     Edge 46, Type (0, 0), BuildingBlock: OJICUG_clean_linker_0, # of connection points: 2
#     Edge 47, Type (0, 0), BuildingBlock: OJICUG_clean_linker_0, # of connection points: 2
#     Edge 48, Type (0, 0), BuildingBlock: OJICUG_clean_linker_0, # of connection points: 2
#     Edge 49, Type (0, 0), BuildingBlock: OJICUG_clean_linker_0, # of connection points: 2
#     Edge 50, Type (0, 0), BuildingBlock: OJICUG_clean_linker_0, # of connection points: 2
#     Edge 51, Type (0, 0), BuildingBlock: OJICUG_clean_linker_0, # of connection points: 2
#     Edge 52, Type (0, 0), BuildingBlock: OJICUG_clean_linker_0, # of connection points: 2
#     Edge 53, Type (0, 0), BuildingBlock: OJICUG_clean_linker_0, # of connection points: 2
#     Edge 54, Type (0, 0), BuildingBlock: OJICUG_clean_linker_0, # of connection points: 2
#     Edge 55, Type (0, 0), BuildingBlock: OJICUG_clean_linker_0, # of connection points: 2
#     Edge 56, Type (0, 0), BuildingBlock: OJICUG_clean_linker_0, # of connection points: 2
#     Edge 57, Type (0, 0), BuildingBlock: OJICUG_clean_linker_0, # of connection points: 2
#     Edge 58, Type (0, 0), BuildingBlock: OJICUG_clean_linker_0, # of connection points: 2
#     Edge 59, Type (0, 0), BuildingBlock: OJICUG_clean_linker_0, # of connection points: 2
#     Edge 60, Type (0, 0), BuildingBlock: OJICUG_clean_linker_0, # of connection points: 2
#     Edge 61, Type (0, 0), BuildingBlock: OJICUG_clean_linker_0, # of connection points: 2
#     Edge 62, Type (0, 0), BuildingBlock: OJICUG_clean_linker_0, # of connection points: 2
#     Edge 63, Type (0, 0), BuildingBlock: OJICUG_clean_linker_0, # of connection points: 2
#     Edge 64, Type (0, 0), BuildingBlock: OJICUG_clean_linker_0, # of connection points: 2
#     Edge 65, Type (0, 0), BuildingBlock: OJICUG_clean_linker_0, # of connection points: 2
#     Edge 66, Type (0, 0), BuildingBlock: OJICUG_clean_linker_0, # of connection points: 2
#     Edge 67, Type (0, 0), BuildingBlock: OJICUG_clean_linker_0, # of connection points: 2
#     Edge 68, Type (0, 0), BuildingBlock: OJICUG_clean_linker_0, # of connection points: 2
#     Edge 69, Type (0, 0), BuildingBlock: OJICUG_clean_linker_0, # of connection points: 2
#     Edge 70, Type (0, 0), BuildingBlock: OJICUG_clean_linker_0, # of connection points: 2
#     Edge 71, Type (0, 0), BuildingBlock: OJICUG_clean_linker_0, # of connection points: 2
# Relax obj value: 0.132
# Max RMSD: 0.209
# Mean RMSD: 0.209
data_MOF--net-vci--node1-NUHQUE_clean_sbu_2--edge1-OJICUG_clean_linker_0
_symmetry_space_group_name_H-M    P1
_symmetry_Int_Tables_number       1
_symmetry_cell_setting            triclinic
loop_
_symmetry_equiv_pos_as_xyz
'x, y, z'
_cell_length_a     37.687376
_cell_length_b     53.406729
_cell_length_c     17.23058
_cell_angle_alpha  89.977539
_cell_angle_beta   89.980856
_cell_angle_gamma 89.955575
loop_
_atom_site_label
_atom_site_type_symbol
_atom_site_fract_x
_atom_site_fract_y
_atom_site_fract_z
_atom_type_partial_charge
O0 O 0.14919 0.19268 0.21265 0.0
Tb1 Tb 0.1368 0.15297 0.22166 0.0
Eu2 Eu 0.14445 0.10859 0.00835 0.0
C3 C 0.16285 0.20528 0.27134 0.0
O4 O 0.17383 0.1932 0.33319 0.0
C5 C 0.18854 0.11245 0.14529 0.0
O6 O 0.13411 0.06796 0.98208 0.0
C7 C 0.16288 0.1344 0.88721 0.0
C8 C 0.11239 0.05475 0.0256 0.0
O9 O 0.09469 0.066 0.08128 0.0
C10 C 0.07322 0.13705 0.10206 0.0
C11 C 0.14883 0.15002 0.82301 0.0
C12 C 0.15141 0.1764 0.82563 0.0
C13 C 0.14105 0.19101 0.76137 0.0
C14 C 0.12793 0.17904 0.69511 0.0
C15 C 0.12667 0.15295 0.69044 0.0
C16 C 0.13696 0.13849 0.75426 0.0
O17 O 0.15928 0.12558 0.14682 0.0
O18 O 0.19196 0.09999 0.08164 0.0
O19 O 0.15789 0.14314 0.335 0.0
O20 O 0.10191 0.14362 0.31877 0.0
C21 C 0.12735 0.13942 0.36809 0.0
O22 O 0.09005 0.12105 0.05493 0.0
O23 O 0.08732 0.1516 0.1568 0.0
O24 O 0.15545 0.11034 0.88531 0.0
O25 O 0.16278 0.14381 0.95788 0.0
H26 H 0.1623 0.1855 0.87651 0.0
H27 H 0.12175 0.19002 0.64385 0.0
H28 H 0.13712 0.11827 0.7487 0.0
O29 O 0.35755 0.81176 0.70372 0.0
Tb30 Tb 0.37859 0.84885 0.72978 0.0
Eu31 Eu 0.3723 0.88724 0.52653 0.0
C32 C 0.33445 0.80003 0.74824 0.0
O33 O 0.31931 0.81207 0.80584 0.0
C34 C 0.31994 0.88077 0.66096 0.0
O35 O 0.3669 0.92916 0.51066 0.0
C36 C 0.37145 0.86133 0.39913 0.0
C37 C 0.3942 0.94278 0.48855 0.0
O38 O 0.42424 0.93147 0.47193 0.0
C39 C 0.44166 0.86536 0.61949 0.0
C40 C 0.39078 0.84619 0.34046 0.0
C41 C 0.39499 0.82015 0.35084 0.0
C42 C 0.40596 0.80471 0.28897 0.0
C43 C 0.4147 0.81587 0.21783 0.0
C44 C 0.4102 0.8416 0.20595 0.0
C45 C 0.39837 0.85671 0.26741 0.0
O46 O 0.35076 0.88229 0.69535 0.0
O47 O 0.31962 0.88318 0.58573 0.0
O48 O 0.36231 0.85113 0.85079 0.0
O49 O 0.4173 0.85248 0.82449 0.0
C50 C 0.39385 0.85335 0.87991 0.0
O51 O 0.42524 0.88498 0.58922 0.0
O52 O 0.42517 0.84679 0.65509 0.0
O53 O 0.37611 0.88577 0.40028 0.0
O54 O 0.36609 0.85152 0.46828 0.0
H55 H 0.38754 0.81163 0.40553 0.0
H56 H 0.42107 0.80415 0.16837 0.0
H57 H 0.39291 0.87634 0.25667 0.0
O58 O 0.15731 0.81146 0.77461 0.0
Tb59 Tb 0.13468 0.84833 0.7539 0.0
Eu60 Eu 0.1369 0.8926 0.9635 0.0
C61 C 0.17313 0.79837 0.71979 0.0
O62 O 0.18028 0.80901 0.65288 0.0
C63 C 0.18951 0.88231 0.83718 0.0
O64 O 0.13731 0.93452 0.97791 0.0
C65 C 0.13448 0.86714 0.09165 0.0
C66 C 0.10926 0.94664 0.00346 0.0
O67 O 0.08096 0.93393 0.02413 0.0
C68 C 0.07559 0.86351 0.87396 0.0
C69 C 0.11487 0.85104 0.14701 0.0
C70 C 0.10977 0.82525 0.13306 0.0
C71 C 0.0979 0.80926 0.19292 0.0
C72 C 0.09025 0.81957 0.26593 0.0
C73 C 0.09594 0.845 0.28111 0.0
C74 C 0.10763 0.86069 0.22116 0.0
O75 O 0.15774 0.8812 0.80635 0.0
O76 O 0.19072 0.88987 0.90908 0.0
O77 O 0.14907 0.85669 0.63421 0.0
O78 O 0.09483 0.85033 0.66171 0.0
C79 C 0.11706 0.85574 0.60647 0.0
O80 O 0.09201 0.88519 0.87931 0.0
O81 O 0.08809 0.84561 0.82853 0.0
O82 O 0.12607 0.89102 0.08753 0.0
O83 O 0.14509 0.85756 0.02523 0.0
H84 H 0.11681 0.81739 0.07718 0.0
H85 H 0.0836 0.80729 0.31388 0.0
H86 H 0.11354 0.88012 0.23398 0.0
O87 O 0.36323 0.1939 0.30771 0.0
Tb88 Tb 0.35789 0.15333 0.30295 0.0
Eu89 Eu 0.35557 0.10576 0.49497 0.0
C90 C 0.33729 0.20868 0.28442 0.0
O91 O 0.30609 0.19893 0.26894 0.0
C92 C 0.30258 0.11673 0.36533 0.0
O93 O 0.36243 0.06409 0.51416 0.0
C94 C 0.33214 0.12902 0.61755 0.0
C95 C 0.38577 0.05133 0.47321 0.0
O96 O 0.40624 0.06343 0.42419 0.0
C97 C 0.42642 0.13237 0.40395 0.0
C98 C 0.34009 0.14597 0.68392 0.0
C99 C 0.34059 0.17233 0.67466 0.0
C100 C 0.34401 0.1882 0.7397 0.0
C101 C 0.34635 0.17746 0.81362 0.0
C102 C 0.34537 0.15156 0.82413 0.0
C103 C 0.34259 0.13579 0.75943 0.0
O104 O 0.31696 0.13869 0.37798 0.0
O105 O 0.31206 0.09822 0.40981 0.0
O106 O 0.33156 0.1585 0.19153 0.0
O107 O 0.37422 0.13267 0.19797 0.0
C108 C 0.35127 0.14325 0.15184 0.0
O109 O 0.41055 0.11853 0.45794 0.0
O110 O 0.41086 0.14522 0.34729 0.0
O111 O 0.34535 0.1062 0.61932 0.0
O112 O 0.33045 0.13852 0.54706 0.0
H113 H 0.33784 0.18049 0.61742 0.0
H114 H 0.34748 0.18941 0.86449 0.0
H115 H 0.34069 0.11574 0.7683 0.0
O116 O 0.84737 0.8013 0.83079 0.0
Tb117 Tb 0.86416 0.84005 0.83573 0.0
Eu118 Eu 0.85874 0.89362 0.03318 0.0
C119 C 0.83515 0.79103 0.76673 0.0
O120 O 0.82942 0.80501 0.70525 0.0
C121 C 0.81049 0.87747 0.90939 0.0
O122 O 0.85955 0.93563 0.03388 0.0
C123 C 0.84785 0.87463 0.17008 0.0
C124 C 0.88924 0.94817 0.04273 0.0
O125 O 0.91891 0.93594 0.05583 0.0
C126 C 0.92518 0.8622 0.93998 0.0
C127 C 0.86184 0.85753 0.23086 0.0
C128 C 0.86258 0.83146 0.21866 0.0
C129 C 0.87158 0.81502 0.27918 0.0
C130 C 0.88121 0.82483 0.35151 0.0
C131 C 0.87992 0.85066 0.36576 0.0
C132 C 0.87003 0.86697 0.30528 0.0
O133 O 0.83716 0.86231 0.9193 0.0
O134 O 0.80929 0.89537 0.96009 0.0
O135 O 0.84822 0.86075 0.73183 0.0
O136 O 0.90074 0.84631 0.73904 0.0
C137 C 0.87827 0.85838 0.69513 0.0
O138 O 0.91117 0.88216 0.9751 0.0
O139 O 0.9073 0.8419 0.91976 0.0
O140 O 0.86419 0.89614 0.1592 0.0
O141 O 0.83587 0.86455 0.10536 0.0
H142 H 0.85475 0.82376 0.16305 0.0
H143 H 0.88674 0.81213 0.39916 0.0
H144 H 0.8677 0.88686 0.3168 0.0
O145 O 0.6529 0.1947 0.31717 0.0
Tb146 Tb 0.64704 0.15484 0.29508 0.0
Eu147 Eu 0.65127 0.1044 0.49327 0.0
C148 C 0.67819 0.20786 0.28371 0.0
O149 O 0.70343 0.1962 0.24549 0.0
C150 C 0.69805 0.11274 0.36375 0.0
O151 O 0.64391 0.06319 0.51372 0.0
C152 C 0.66897 0.1283 0.61809 0.0
C153 C 0.62371 0.0497 0.46775 0.0
O154 O 0.60595 0.06084 0.41195 0.0
C155 C 0.58056 0.13359 0.39766 0.0
C156 C 0.65603 0.14593 0.67779 0.0
C157 C 0.65063 0.17154 0.66136 0.0
C158 C 0.64162 0.18834 0.72116 0.0
C159 C 0.6376 0.1792 0.79692 0.0
C160 C 0.64348 0.15399 0.81392 0.0
C161 C 0.65273 0.13739 0.75464 0.0
O162 O 0.67084 0.12779 0.36906 0.0
O163 O 0.69952 0.09701 0.42047 0.0
O164 O 0.67408 0.15431 0.18325 0.0
O165 O 0.61989 0.14322 0.18893 0.0
C166 C 0.64696 0.14658 0.14323 0.0
O167 O 0.59756 0.11779 0.44516 0.0
O168 O 0.59484 0.14916 0.34583 0.0
O169 O 0.65547 0.10559 0.61886 0.0
O170 O 0.67494 0.13703 0.54775 0.0
H171 H 0.65426 0.17854 0.60288 0.0
H172 H 0.63227 0.19203 0.84433 0.0
H173 H 0.65856 0.11803 0.7689 0.0
O174 O 0.84285 0.19898 0.17765 0.0
Tb175 Tb 0.85255 0.15915 0.19446 0.0
Eu176 Eu 0.85092 0.10859 0.99455 0.0
C177 C 0.8227 0.21194 0.22568 0.0
O178 O 0.80405 0.20011 0.27857 0.0
C179 C 0.80315 0.11636 0.12305 0.0
O180 O 0.86005 0.06721 0.98194 0.0
C181 C 0.83485 0.13098 0.86608 0.0
C182 C 0.88608 0.05605 0.0192 0.0
O183 O 0.90848 0.06958 0.05974 0.0
C184 C 0.91948 0.13976 0.09026 0.0
C185 C 0.84913 0.1483 0.80692 0.0
C186 C 0.85323 0.17411 0.82186 0.0
C187 C 0.86376 0.19053 0.76224 0.0
C188 C 0.87099 0.18082 0.68839 0.0
C189 C 0.86592 0.15543 0.67237 0.0
C190 C 0.85499 0.13923 0.73147 0.0
O191 O 0.83012 0.13171 0.11953 0.0
O192 O 0.80219 0.10107 0.06518 0.0
O193 O 0.82854 0.15353 0.30827 0.0
O194 O 0.88439 0.14911 0.29563 0.0
C195 C 0.85799 0.14831 0.34416 0.0
O196 O 0.90346 0.123 0.04468 0.0
O197 O 0.90425 0.15585 0.13911 0.0
O198 O 0.8488 0.10838 0.86865 0.0
O199 O 0.82706 0.14021 0.93495 0.0
H200 H 0.84716 0.1816 0.87878 0.0
H201 H 0.87739 0.19341 0.64099 0.0
H202 H 0.84979 0.11975 0.71786 0.0
O203 O 0.65527 0.80291 0.70745 0.0
Tb204 Tb 0.66434 0.84299 0.70941 0.0
Eu205 Eu 0.66628 0.88957 0.5196 0.0
C206 C 0.68098 0.7871 0.72395 0.0
O207 O 0.71316 0.79565 0.73616 0.0
C208 C 0.72074 0.87442 0.63908 0.0
O209 O 0.65875 0.93128 0.51509 0.0
C210 C 0.68917 0.87127 0.38908 0.0
C211 C 0.63133 0.94167 0.48069 0.0
O212 O 0.6077 0.92741 0.44631 0.0
C213 C 0.59548 0.86379 0.61346 0.0
C214 C 0.68116 0.85491 0.32191 0.0
C215 C 0.6739 0.82917 0.3318 0.0
C216 C 0.67024 0.81336 0.26696 0.0
C217 C 0.6743 0.82352 0.19249 0.0
C218 C 0.68138 0.84896 0.18152 0.0
C219 C 0.68445 0.86473 0.24622 0.0
O220 O 0.70201 0.8545 0.62389 0.0
O221 O 0.71104 0.89478 0.6035 0.0
O222 O 0.6937 0.83792 0.8173 0.0
O223 O 0.6575 0.86818 0.80948 0.0
C224 C 0.6802 0.85681 0.85431 0.0
O225 O 0.61177 0.87496 0.55428 0.0
O226 O 0.61074 0.85329 0.67488 0.0
O227 O 0.67248 0.89286 0.39395 0.0
O228 O 0.6946 0.86052 0.45687 0.0
H229 H 0.6714 0.82138 0.38962 0.0
H230 H 0.67268 0.81141 0.14207 0.0
H231 H 0.69076 0.88435 0.23776 0.0
O232 O 0.64146 0.69467 0.20977 0.0
Tb233 Tb 0.63237 0.6546 0.20675 0.0
Eu234 Eu 0.64547 0.6055 0.00343 0.0
C235 C 0.65569 0.70559 0.27071 0.0
O236 O 0.66679 0.69183 0.32907 0.0
C237 C 0.68973 0.62104 0.13373 0.0
O238 O 0.64081 0.56365 0.00307 0.0
C239 C 0.66744 0.62376 0.87256 0.0
C240 C 0.61485 0.55198 0.96745 0.0
O241 O 0.59091 0.56502 0.92945 0.0
C242 C 0.57113 0.63359 0.08672 0.0
C243 C 0.65696 0.6399 0.80665 0.0
C244 C 0.66034 0.66616 0.81147 0.0
C245 C 0.65228 0.68132 0.74733 0.0
C246 C 0.64066 0.67018 0.67851 0.0
C247 C 0.63845 0.64414 0.67187 0.0
C248 C 0.64677 0.62898 0.73567 0.0
O249 O 0.6636 0.63653 0.1207 0.0
O250 O 0.69129 0.60264 0.08521 0.0
O251 O 0.6559 0.63548 0.30653 0.0
O252 O 0.60159 0.64574 0.31054 0.0
C253 C 0.62732 0.63521 0.3487 0.0
O254 O 0.59002 0.61957 0.03747 0.0
O255 O 0.58296 0.6471 0.14615 0.0
O256 O 0.65195 0.60175 0.87852 0.0
O257 O 0.67292 0.63472 0.93999 0.0
H258 H 0.66971 0.67485 0.86445 0.0
H259 H 0.63552 0.68177 0.62797 0.0
H260 H 0.64593 0.60879 0.72942 0.0
O261 O 0.86739 0.3113 0.70973 0.0
Tb262 Tb 0.85944 0.35141 0.69708 0.0
Eu263 Eu 0.85399 0.3961 0.49823 0.0
C264 C 0.84468 0.29731 0.74834 0.0
O265 O 0.81546 0.30744 0.77552 0.0
C266 C 0.80141 0.38023 0.61939 0.0
O267 O 0.86134 0.43776 0.4869 0.0
C268 C 0.82953 0.37613 0.37145 0.0
C269 C 0.8817 0.45009 0.53565 0.0
O270 O 0.89889 0.43763 0.58962 0.0
C271 C 0.92622 0.37185 0.59063 0.0
C272 C 0.83502 0.36084 0.30051 0.0
C273 C 0.8333 0.33441 0.30328 0.0
C274 C 0.83392 0.32018 0.23445 0.0
C275 C 0.83568 0.33265 0.16307 0.0
C276 C 0.83709 0.35877 0.15922 0.0
C277 C 0.83709 0.37286 0.22773 0.0
O278 O 0.82258 0.36125 0.60753 0.0
O279 O 0.80908 0.40066 0.58199 0.0
O280 O 0.8252 0.35649 0.7979 0.0
O281 O 0.87453 0.37513 0.79617 0.0
C282 C 0.84592 0.37122 0.83661 0.0
O283 O 0.90938 0.38251 0.53122 0.0
O284 O 0.91159 0.36185 0.65357 0.0
O285 O 0.84349 0.39869 0.37419 0.0
O286 O 0.82864 0.36481 0.43931 0.0
H287 H 0.8311 0.3249 0.35863 0.0
H288 H 0.83506 0.32199 0.10949 0.0
H289 H 0.8372 0.39313 0.22406 0.0
O290 O 0.63474 0.30783 0.77663 0.0
Tb291 Tb 0.63913 0.34809 0.79007 0.0
Eu292 Eu 0.64824 0.39081 0.99474 0.0
C293 C 0.65151 0.2957 0.72114 0.0
O294 O 0.67318 0.30786 0.67491 0.0
C295 C 0.69776 0.37774 0.8656 0.0
O296 O 0.6379 0.43179 0.01161 0.0
C297 C 0.67369 0.3696 0.11854 0.0
C298 C 0.61684 0.44393 0.96387 0.0
O299 O 0.60053 0.43153 0.90855 0.0
C300 C 0.57466 0.36712 0.9068 0.0
C301 C 0.66578 0.35537 0.19043 0.0
C302 C 0.668 0.32897 0.19132 0.0
C303 C 0.66379 0.31558 0.26112 0.0
C304 C 0.65764 0.32881 0.32992 0.0
C305 C 0.65616 0.35495 0.33025 0.0
C306 C 0.66016 0.36824 0.26083 0.0
O307 O 0.67691 0.35855 0.87706 0.0
O308 O 0.6919 0.39707 0.90929 0.0
O309 O 0.67117 0.35875 0.68986 0.0
O310 O 0.61695 0.36852 0.69067 0.0
C311 C 0.64613 0.36952 0.65066 0.0
O312 O 0.59229 0.37784 0.96486 0.0
O313 O 0.58822 0.35736 0.84239 0.0
O314 O 0.66377 0.39321 0.11571 0.0
O315 O 0.67097 0.35799 0.05135 0.0
H316 H 0.67337 0.31884 0.13812 0.0
H317 H 0.65542 0.31877 0.38448 0.0
H318 H 0.65995 0.38853 0.26233 0.0
O319 O 0.86247 0.69235 0.30559 0.0
Tb320 Tb 0.84562 0.6535 0.31007 0.0
Eu321 Eu 0.84379 0.61141 0.50783 0.0
C322 C 0.83878 0.70965 0.28897 0.0
O323 O 0.8055 0.70298 0.27982 0.0
C324 C 0.78756 0.62661 0.3898 0.0
O325 O 0.85428 0.57 0.49918 0.0
C326 C 0.81609 0.6245 0.63959 0.0
C327 C 0.87889 0.55843 0.53967 0.0
O328 O 0.89927 0.57139 0.58665 0.0
C329 C 0.91078 0.63419 0.41023 0.0
C330 C 0.81779 0.64142 0.70716 0.0
C331 C 0.82113 0.66761 0.69827 0.0
C332 C 0.8196 0.68338 0.76355 0.0
C333 C 0.81354 0.6728 0.83672 0.0
C334 C 0.81072 0.6469 0.84659 0.0
C335 C 0.81325 0.63118 0.78179 0.0
O336 O 0.80679 0.64671 0.39854 0.0
O337 O 0.79923 0.60638 0.42347 0.0
O338 O 0.81079 0.65742 0.20958 0.0
O339 O 0.84874 0.62827 0.20944 0.0
C340 C 0.82326 0.63871 0.17024 0.0
O341 O 0.89373 0.6335 0.47751 0.0
O342 O 0.89456 0.63442 0.34223 0.0
O343 O 0.8401 0.60668 0.63363 0.0
O344 O 0.80681 0.63435 0.57261 0.0
H345 H 0.82528 0.67563 0.64121 0.0
H346 H 0.81178 0.68486 0.88723 0.0
H347 H 0.81083 0.61109 0.78924 0.0
O348 O 0.34767 0.30926 0.80001 0.0
Tb349 Tb 0.35609 0.34956 0.79086 0.0
Eu350 Eu 0.34998 0.39703 0.99822 0.0
C351 C 0.3315 0.2964 0.74497 0.0
O352 O 0.31539 0.30836 0.68851 0.0
C353 C 0.30341 0.39018 0.8661 0.0
O354 O 0.35757 0.43859 0.01507 0.0
C355 C 0.33422 0.37241 0.12342 0.0
C356 C 0.37739 0.45127 0.96594 0.0
O357 O 0.39452 0.43904 0.91141 0.0
C358 C 0.42073 0.36816 0.90444 0.0
C359 C 0.34926 0.35616 0.18511 0.0
C360 C 0.34956 0.32978 0.17788 0.0
C361 C 0.36097 0.31462 0.24009 0.0
C362 C 0.37229 0.32602 0.30887 0.0
C363 C 0.37038 0.35197 0.31821 0.0
C364 C 0.35908 0.36697 0.2564 0.0
O365 O 0.33147 0.37573 0.86729 0.0
O366 O 0.30119 0.40413 0.927 0.0
O367 O 0.33417 0.35697 0.67623 0.0
O368 O 0.3898 0.36091 0.69376 0.0
C369 C 0.3642 0.36261 0.64342 0.0
O370 O 0.40416 0.38479 0.94984 0.0
O371 O 0.40615 0.35249 0.85333 0.0
O372 O 0.34398 0.39609 0.12327 0.0
O373 O 0.33047 0.36295 0.05327 0.0
H374 H 0.33998 0.32102 0.1252 0.0
H375 H 0.3792 0.31448 0.35848 0.0
H376 H 0.35638 0.38698 0.2654 0.0
O377 O 0.10105 0.68885 0.2636 0.0
Tb378 Tb 0.11587 0.64969 0.27435 0.0
Eu379 Eu 0.13918 0.61646 0.48014 0.0
C380 C 0.11888 0.7024 0.21297 0.0
O381 O 0.145 0.69176 0.17465 0.0
C382 C 0.18641 0.63643 0.3439 0.0
O383 O 0.13652 0.57427 0.47613 0.0
C384 C 0.17079 0.63341 0.60337 0.0
C385 C 0.11228 0.5615 0.51413 0.0
O386 O 0.08867 0.57361 0.55584 0.0
C387 C 0.06481 0.63103 0.40206 0.0
C388 C 0.16801 0.64916 0.6741 0.0
C389 C 0.17319 0.67535 0.67065 0.0
C390 C 0.17391 0.6899 0.73897 0.0
C391 C 0.17044 0.6777 0.8108 0.0
C392 C 0.16432 0.65191 0.81495 0.0
C393 C 0.16309 0.63768 0.74684 0.0
O394 O 0.1635 0.65488 0.34285 0.0
O395 O 0.17864 0.61604 0.38258 0.0
O396 O 0.15133 0.6334 0.18724 0.0
O397 O 0.099 0.64318 0.15459 0.0
C398 C 0.12899 0.63416 0.12993 0.0
O399 O 0.08357 0.63201 0.46659 0.0
O400 O 0.07982 0.62481 0.33585 0.0
O401 O 0.15344 0.61201 0.60188 0.0
O402 O 0.17193 0.64473 0.53553 0.0
H403 H 0.17618 0.68442 0.61482 0.0
H404 H 0.17161 0.68835 0.86431 0.0
H405 H 0.15881 0.61765 0.75084 0.0
O406 O 0.38995 0.68572 0.20308 0.0
Tb407 Tb 0.37086 0.64759 0.19144 0.0
Eu408 Eu 0.34524 0.6143 0.98088 0.0
C409 C 0.37444 0.69951 0.25663 0.0
O410 O 0.34809 0.6897 0.29624 0.0
C411 C 0.30025 0.63518 0.12034 0.0
O412 O 0.34695 0.57206 0.98079 0.0
C413 C 0.31525 0.63443 0.86035 0.0
C414 C 0.37484 0.55975 0.95524 0.0
O415 O 0.40167 0.57234 0.92613 0.0
C416 C 0.41836 0.62729 0.06209 0.0
C417 C 0.32133 0.65034 0.79098 0.0
C418 C 0.32036 0.67678 0.79572 0.0
C419 C 0.32384 0.69165 0.72843 0.0
C420 C 0.32733 0.67967 0.65631 0.0
C421 C 0.32855 0.65356 0.65106 0.0
C422 C 0.32559 0.63895 0.71802 0.0
O423 O 0.32395 0.65314 0.12078 0.0
O424 O 0.30628 0.61487 0.0796 0.0
O425 O 0.33366 0.63537 0.28098 0.0
O426 O 0.38844 0.63685 0.30773 0.0
C427 C 0.35706 0.63202 0.3353 0.0
O428 O 0.40191 0.62728 0.99478 0.0
O429 O 0.40126 0.62058 0.12513 0.0
O430 O 0.32871 0.61165 0.8602 0.0
O431 O 0.31635 0.64528 0.92888 0.0
H432 H 0.31737 0.68578 0.85166 0.0
H433 H 0.32941 0.69067 0.60358 0.0
H434 H 0.32616 0.61872 0.71289 0.0
O435 O 0.14608 0.31069 0.68199 0.0
Tb436 Tb 0.14803 0.35111 0.69637 0.0
Eu437 Eu 0.15098 0.39966 0.49485 0.0
C438 C 0.17069 0.29605 0.71195 0.0
O439 O 0.20024 0.30599 0.73805 0.0
C440 C 0.19853 0.39223 0.62461 0.0
O441 O 0.1401 0.44057 0.47208 0.0
C442 C 0.17309 0.3745 0.3755 0.0
C443 C 0.11924 0.45307 0.5196 0.0
O444 O 0.10362 0.44093 0.57646 0.0
C445 C 0.08049 0.37234 0.59514 0.0
C446 C 0.16511 0.35655 0.31238 0.0
C447 C 0.16325 0.33038 0.32544 0.0
C448 C 0.16005 0.31368 0.26232 0.0
C449 C 0.15969 0.32343 0.18686 0.0
C450 C 0.16157 0.34913 0.17349 0.0
C451 C 0.16388 0.36568 0.23587 0.0
O452 O 0.17495 0.37448 0.61539 0.0
O453 O 0.19764 0.40882 0.5702 0.0
O454 O 0.1796 0.3495 0.80183 0.0
O455 O 0.12817 0.36607 0.80631 0.0
C456 C 0.15602 0.35984 0.84667 0.0
O457 O 0.09728 0.38571 0.54074 0.0
O458 O 0.095 0.35957 0.65362 0.0
O459 O 0.1595 0.39717 0.37046 0.0
O460 O 0.17553 0.36609 0.44713 0.0
H461 H 0.16461 0.32305 0.38399 0.0
H462 H 0.1588 0.3109 0.13735 0.0
H463 H 0.16637 0.38558 0.22443 0.0
C464 C 0.97792 0.15785 0.13175 0.0
C465 C 0.95891 0.1402 0.08775 0.0
H466 H 0.02833 0.17088 0.17031 0.0
C467 C 0.97806 0.12231 0.04469 0.0
H468 H 0.96432 0.17205 0.16533 0.0
C469 C 0.01516 0.1216 0.04764 0.0
C470 C 0.03404 0.13877 0.09375 0.0
H471 H 0.96446 0.10841 0.00997 0.0
H472 H 0.02891 0.10719 0.01518 0.0
C473 C 0.01489 0.15714 0.13471 0.0
C474 C 0.49988 0.88083 0.56685 0.0
C475 C 0.48097 0.86448 0.61567 0.0
H476 H 0.55072 0.89333 0.52717 0.0
C477 C 0.50003 0.84741 0.66176 0.0
H478 H 0.48605 0.89413 0.53025 0.0
C479 C 0.53709 0.84702 0.66027 0.0
C480 C 0.55608 0.86353 0.6121 0.0
H481 H 0.4864 0.83454 0.70012 0.0
H482 H 0.55082 0.83376 0.69719 0.0
C483 C 0.53701 0.88027 0.56476 0.0
C484 C 0.98521 0.8823 0.95082 0.0
C485 C 0.96423 0.86168 0.92929 0.0
H486 H 0.03677 0.89894 0.95113 0.0
C487 C 0.9808 0.84091 0.89447 0.0
H488 H 0.97349 0.89859 0.97813 0.0
C489 C 0.01718 0.84111 0.87911 0.0
C490 C 0.03787 0.86214 0.8978 0.0
H491 H 0.96561 0.82461 0.87737 0.0
H492 H 0.02884 0.825 0.85067 0.0
C493 C 0.02161 0.8825 0.93536 0.0
C494 C 0.52274 0.11757 0.45258 0.0
C495 C 0.54111 0.13384 0.40234 0.0
H496 H 0.47239 0.1043 0.49283 0.0
C497 C 0.52129 0.1501 0.35487 0.0
H498 H 0.53697 0.10477 0.49011 0.0
C499 C 0.48428 0.14982 0.35645 0.0
C500 C 0.46586 0.1333 0.40561 0.0
H501 H 0.53424 0.16301 0.31554 0.0
H502 H 0.47019 0.16256 0.31842 0.0
C503 C 0.48558 0.11733 0.45426 0.0
C504 C 0.51016 0.63864 0.1418 0.0
C505 C 0.53198 0.63327 0.07758 0.0
H506 H 0.4574 0.64085 0.18698 0.0
C507 C 0.5159 0.62687 0.00664 0.0
H508 H 0.5215 0.64346 0.19758 0.0
C509 C 0.47883 0.62569 0.00048 0.0
C510 C 0.45729 0.63037 0.06555 0.0
H511 H 0.53191 0.6227 0.95604 0.0
H512 H 0.46713 0.62041 0.94546 0.0
C513 C 0.47334 0.63703 0.13597 0.0
C514 C 0.0216 0.35714 0.64417 0.0
C515 C 0.04101 0.37173 0.59108 0.0
H516 H 0.97092 0.34552 0.68522 0.0
C517 C 0.02218 0.38581 0.53546 0.0
H518 H 0.03487 0.34586 0.68763 0.0
C519 C 0.98496 0.38558 0.53402 0.0
C520 C 0.9657 0.37132 0.58827 0.0
H521 H 0.0361 0.39727 0.49349 0.0
H522 H 0.97136 0.39694 0.49126 0.0
C523 C 0.98462 0.35695 0.6428 0.0
C524 C 0.47925 0.34987 0.86435 0.0
C525 C 0.46012 0.36696 0.91036 0.0
H526 H 0.52978 0.33633 0.82796 0.0
C527 C 0.4792 0.38321 0.95944 0.0
H528 H 0.46581 0.33686 0.82621 0.0
C529 C 0.51643 0.38283 0.96052 0.0
C530 C 0.53535 0.36629 0.91226 0.0
H531 H 0.4655 0.39659 0.99595 0.0
H532 H 0.53033 0.396 0.99736 0.0
C533 C 0.51621 0.34958 0.86522 0.0
C534 C 0.00729 0.63329 0.47703 0.0
C535 C 0.0255 0.63269 0.4057 0.0
H536 H 0.95683 0.63411 0.53484 0.0
C537 C 0.00569 0.63319 0.33669 0.0
H538 H 0.02173 0.63294 0.53135 0.0
C539 C 0.96869 0.63393 0.33864 0.0
C540 C 0.95028 0.63411 0.40973 0.0
H541 H 0.01876 0.63295 0.28068 0.0
H542 H 0.95458 0.63416 0.28391 0.0
C543 C 0.97005 0.63392 0.47903 0.0
C544 C 0.12175 0.23427 0.72448 0.0
C545 C 0.14745 0.21842 0.75751 0.0
H546 H 0.10907 0.27092 0.6829 0.0
C547 C 0.18083 0.22839 0.77648 0.0
H548 H 0.09577 0.22711 0.70931 0.0
C549 C 0.1886 0.25353 0.76079 0.0
C550 C 0.16313 0.2692 0.72586 0.0
H551 H 0.20138 0.21653 0.80064 0.0
H552 H 0.21469 0.2606 0.77538 0.0
C553 C 0.1295 0.25932 0.7087 0.0
C554 C 0.42458 0.76106 0.24993 0.0
C555 C 0.40175 0.77695 0.29219 0.0
H556 H 0.43366 0.72421 0.20435 0.0
C557 C 0.37163 0.76646 0.32769 0.0
H558 H 0.4483 0.7684 0.22274 0.0
C559 C 0.36356 0.74117 0.31786 0.0
C560 C 0.38512 0.72573 0.27153 0.0
H561 H 0.35303 0.77803 0.35948 0.0
H562 H 0.33951 0.73399 0.34413 0.0
C563 C 0.41618 0.73576 0.23917 0.0
C564 C 0.08058 0.7404 0.23256 0.0
C565 C 0.11093 0.72926 0.20029 0.0
H566 H 0.05162 0.77433 0.25213 0.0
C567 C 0.13436 0.7442 0.15675 0.0
H568 H 0.06171 0.72933 0.26526 0.0
C569 C 0.12881 0.76998 0.14977 0.0
C570 C 0.09949 0.78144 0.1856 0.0
H571 H 0.1579 0.73618 0.13057 0.0
H572 H 0.14869 0.78107 0.12014 0.0
C573 C 0.07479 0.76618 0.22477 0.0
C574 C 0.31344 0.25438 0.69175 0.0
C575 C 0.33482 0.26875 0.74184 0.0
H576 H 0.29954 0.21761 0.65143 0.0
C577 C 0.36089 0.25656 0.78607 0.0
H578 H 0.29327 0.26326 0.6564 0.0
C579 C 0.36508 0.23063 0.78159 0.0
C580 C 0.3429 0.21605 0.73384 0.0
H581 H 0.37832 0.26707 0.82395 0.0
H582 H 0.38542 0.22189 0.81682 0.0
C583 C 0.31734 0.22827 0.68802 0.0
C584 C 0.82471 0.7534 0.24819 0.0
C585 C 0.84892 0.73624 0.28022 0.0
H586 H 0.81323 0.79168 0.22167 0.0
C587 C 0.88223 0.74489 0.30511 0.0
H588 H 0.79893 0.74731 0.22787 0.0
C589 C 0.89043 0.77042 0.3014 0.0
C590 C 0.86568 0.78767 0.27176 0.0
H591 H 0.90149 0.73209 0.32967 0.0
H592 H 0.91578 0.7768 0.32348 0.0
C593 C 0.83305 0.77881 0.24369 0.0
C594 C 0.61824 0.25643 0.75009 0.0
C595 C 0.64652 0.26843 0.71235 0.0
H596 H 0.59357 0.22166 0.77934 0.0
C597 C 0.67043 0.25402 0.66841 0.0
H598 H 0.59895 0.26706 0.78308 0.0
C599 C 0.6675 0.22791 0.66675 0.0
C600 C 0.64042 0.21581 0.70848 0.0
H601 H 0.69236 0.26279 0.63821 0.0
H602 H 0.68762 0.21717 0.63659 0.0
C603 C 0.61508 0.23043 0.7477 0.0
C604 C 0.82656 0.25515 0.79824 0.0
C605 C 0.85159 0.27031 0.76009 0.0
H606 H 0.81104 0.21796 0.8297 0.0
C607 C 0.88289 0.25929 0.73183 0.0
H608 H 0.8023 0.26309 0.82134 0.0
C609 C 0.8881 0.23346 0.73768 0.0
C610 C 0.8621 0.21811 0.77176 0.0
H611 H 0.90295 0.27049 0.70316 0.0
H612 H 0.91186 0.22534 0.71278 0.0
C613 C 0.83176 0.22931 0.80402 0.0
C614 C 0.63815 0.74781 0.22206 0.0
C615 C 0.65801 0.73323 0.27407 0.0
H616 H 0.62524 0.78448 0.18153 0.0
C617 C 0.67981 0.74532 0.32869 0.0
H618 H 0.62059 0.73912 0.18023 0.0
C619 C 0.6828 0.77148 0.3289 0.0
C620 C 0.66382 0.78599 0.27487 0.0
H621 H 0.69531 0.73455 0.3698 0.0
H622 H 0.70098 0.78025 0.36925 0.0
C623 C 0.64079 0.77384 0.22288 0.0
C624 C 0.63973 0.75064 0.71322 0.0
C625 C 0.67334 0.76012 0.7326 0.0
H626 H 0.60663 0.71819 0.70382 0.0
C627 C 0.69932 0.74364 0.76151 0.0
H628 H 0.6191 0.76284 0.69115 0.0
C629 C 0.69195 0.71813 0.76975 0.0
C630 C 0.65861 0.70863 0.74853 0.0
H631 H 0.72544 0.75039 0.77728 0.0
H632 H 0.7127 0.7057 0.79011 0.0
C633 C 0.63251 0.72513 0.72074 0.0
C634 C 0.80661 0.27987 0.28158 0.0
C635 C 0.83156 0.29237 0.23497 0.0
H636 H 0.78369 0.24467 0.31415 0.0
C637 C 0.85297 0.2782 0.18446 0.0
H638 H 0.78932 0.29028 0.32007 0.0
C639 C 0.84942 0.25223 0.18011 0.0
C640 C 0.82452 0.23967 0.22657 0.0
H641 H 0.87266 0.28724 0.14822 0.0
H642 H 0.8666 0.24198 0.14097 0.0
C643 C 0.80313 0.25377 0.27743 0.0
C644 C 0.6428 0.27376 0.30794 0.0
C645 C 0.66718 0.2879 0.26445 0.0
H646 H 0.62737 0.23759 0.34899 0.0
C647 C 0.69587 0.2756 0.22894 0.0
H648 H 0.62038 0.28272 0.33584 0.0
C649 C 0.70005 0.24967 0.23689 0.0
C650 C 0.67551 0.23552 0.28018 0.0
H651 H 0.71543 0.28609 0.19629 0.0
H652 H 0.72238 0.24072 0.20859 0.0
C653 C 0.6469 0.24789 0.31571 0.0
C654 C 0.81097 0.75184 0.70464 0.0
C655 C 0.83141 0.76352 0.76262 0.0
H656 H 0.79091 0.71706 0.65942 0.0
C657 C 0.84947 0.74859 0.81671 0.0
H658 H 0.79689 0.76293 0.66194 0.0
C659 C 0.84673 0.72264 0.81412 0.0
C660 C 0.82529 0.71084 0.75835 0.0
H661 H 0.86602 0.75693 0.8611 0.0
H662 H 0.86116 0.71175 0.85679 0.0
C663 C 0.8078 0.72565 0.70272 0.0
C664 C 0.38363 0.27154 0.26984 0.0
C665 C 0.35664 0.28697 0.2399 0.0
H666 H 0.39867 0.23491 0.30813 0.0
C667 C 0.32364 0.27625 0.22191 0.0
H668 H 0.4093 0.27935 0.28448 0.0
C669 C 0.31735 0.25084 0.23645 0.0
C670 C 0.34399 0.23559 0.26893 0.0
H671 H 0.30214 0.28775 0.20014 0.0
H672 H 0.29138 0.24326 0.22331 0.0
C673 C 0.37741 0.24615 0.28405 0.0
C674 C 0.19688 0.75658 0.67603 0.0
C675 C 0.17685 0.77088 0.72882 0.0
H676 H 0.21256 0.71987 0.63875 0.0
C677 C 0.15741 0.75843 0.78659 0.0
H678 H 0.21224 0.76565 0.63094 0.0
C679 C 0.15677 0.73235 0.78973 0.0
C680 C 0.17619 0.71784 0.73626 0.0
H681 H 0.14134 0.7688 0.82766 0.0
H682 H 0.13995 0.72361 0.83287 0.0
C683 C 0.19675 0.73033 0.68002 0.0
C684 C 0.30291 0.73319 0.78264 0.0
C685 C 0.32519 0.71957 0.73246 0.0
H686 H 0.28788 0.76931 0.82628 0.0
C687 C 0.34914 0.73287 0.68521 0.0
H688 H 0.28378 0.72361 0.81894 0.0
C689 C 0.35107 0.75896 0.68842 0.0
C690 C 0.3294 0.77257 0.73962 0.0
H691 H 0.36713 0.72308 0.6467 0.0
H692 H 0.37036 0.76837 0.65208 0.0
C693 C 0.30503 0.75941 0.78625 0.0
C694 C 0.13636 0.27174 0.22323 0.0
C695 C 0.15859 0.28596 0.27189 0.0
H696 H 0.12103 0.23544 0.18343 0.0
C697 C 0.18161 0.2733 0.32274 0.0
H698 H 0.11775 0.28083 0.18447 0.0
C699 C 0.18311 0.24703 0.32284 0.0
C700 C 0.16195 0.233 0.27143 0.0
H701 H 0.1993 0.28365 0.36041 0.0
H702 H 0.20135 0.23773 0.36196 0.0
C703 C 0.13833 0.24567 0.22232 0.0
C704 C 0.13609 0.98817 0.97 0.0
C705 C 0.10943 0.97435 0.00764 0.0
H706 H 0.15757 0.02437 0.945 0.0
C707 C 0.08295 0.98726 0.04892 0.0
H708 H 0.15673 0.9788 0.93725 0.0
C709 C 0.08359 0.01341 0.05389 0.0
C710 C 0.11043 0.02721 0.01672 0.0
H711 H 0.06199 0.97715 0.07842 0.0
H712 H 0.06314 0.0228 0.08716 0.0
C713 C 0.13644 0.01432 0.97403 0.0
C714 C 0.41869 0.98455 0.44876 0.0
C715 C 0.3917 0.97054 0.48467 0.0
H716 H 0.43795 0.02083 0.41689 0.0
C717 C 0.36288 0.98339 0.51804 0.0
H718 H 0.4413 0.9753 0.42253 0.0
C719 C 0.36119 0.00964 0.51572 0.0
C720 C 0.38805 0.02359 0.47905 0.0
H721 H 0.34173 0.9732 0.54655 0.0
H722 H 0.33861 0.01896 0.54178 0.0
C723 C 0.41678 0.0107 0.44556 0.0
C724 C 0.85944 0.98801 0.00379 0.0
C725 C 0.88913 0.97574 0.03526 0.0
H726 H 0.83546 0.02289 0.97285 0.0
C727 C 0.9185 0.99004 0.05878 0.0
H728 H 0.83649 0.97751 0.98452 0.0
C729 C 0.9178 0.01616 0.05255 0.0
C730 C 0.88793 0.02841 0.02168 0.0
H731 H 0.9418 0.9811 0.08305 0.0
H732 H 0.94058 0.02675 0.0723 0.0
C733 C 0.85894 0.01403 0.99661 0.0
C734 C 0.65011 0.98402 0.52645 0.0
C735 C 0.62778 0.96927 0.4799 0.0
H736 H 0.666 0.02086 0.5599 0.0
C737 C 0.60276 0.98118 0.43193 0.0
H738 H 0.6695 0.97545 0.5645 0.0
C739 C 0.60087 0.00735 0.42896 0.0
C740 C 0.62373 0.02207 0.47448 0.0
H741 H 0.58512 0.97032 0.39551 0.0
H742 H 0.58181 0.01601 0.39031 0.0
C743 C 0.64799 0.0101 0.52405 0.0
C744 C 0.59095 0.4848 0.91945 0.0
C745 C 0.61422 0.47151 0.96819 0.0
H746 H 0.57268 0.52078 0.8812 0.0
C747 C 0.6364 0.48489 0.0188 0.0
H748 H 0.57346 0.475 0.87994 0.0
C749 C 0.63614 0.511 0.01905 0.0
C750 C 0.6135 0.52434 0.96916 0.0
H751 H 0.65461 0.47524 0.05717 0.0
H752 H 0.65401 0.5207 0.05798 0.0
C753 C 0.59048 0.511 0.92017 0.0
C754 C 0.86175 0.49117 0.48076 0.0
C755 C 0.88313 0.47782 0.53322 0.0
H756 H 0.84374 0.52696 0.44155 0.0
C757 C 0.90463 0.49125 0.58531 0.0
H758 H 0.84494 0.48145 0.4397 0.0
C759 C 0.90403 0.51747 0.58624 0.0
C760 C 0.88179 0.53078 0.53534 0.0
H761 H 0.92151 0.48153 0.62632 0.0
H762 H 0.9204 0.52726 0.62801 0.0
C763 C 0.86104 0.51732 0.48192 0.0
C764 C 0.40232 0.51848 0.91977 0.0
C765 C 0.37612 0.53201 0.95997 0.0
H766 H 0.42324 0.48243 0.89011 0.0
C767 C 0.35121 0.51878 0.00484 0.0
H768 H 0.42196 0.52808 0.88483 0.0
C769 C 0.35226 0.49259 0.00878 0.0
C770 C 0.37794 0.47904 0.96707 0.0
H771 H 0.33083 0.52864 0.03697 0.0
H772 H 0.33243 0.48296 0.04311 0.0
C773 C 0.40306 0.49229 0.92286 0.0
C774 C 0.0916 0.49362 0.56162 0.0
C775 C 0.11573 0.48069 0.51385 0.0
H776 H 0.07141 0.52913 0.5989 0.0
C777 C 0.13765 0.49456 0.46377 0.0
H778 H 0.07424 0.48353 0.60075 0.0
C779 C 0.13619 0.52076 0.46313 0.0
C780 C 0.1126 0.5337 0.51213 0.0
H781 H 0.15656 0.48521 0.42629 0.0
H782 H 0.15389 0.53087 0.42477 0.0
C783 C 0.08997 0.5198 0.56057 0.0
C784 C 0.21051 0.10895 0.28223 0.0
C785 C 0.21714 0.11289 0.20314 0.0
H786 H 0.2327 0.10832 0.39739 0.0
C787 C 0.25238 0.11424 0.17738 0.0
H788 H 0.18415 0.10416 0.30188 0.0
C789 C 0.28016 0.114 0.23064 0.0
C790 C 0.27327 0.11378 0.31013 0.0
H791 H 0.25845 0.11519 0.11597 0.0
H792 H 0.30702 0.11329 0.21007 0.0
C793 C 0.23834 0.11024 0.33603 0.0
C794 C 0.2535 0.8797 0.66766 0.0
C795 C 0.28646 0.87904 0.70577 0.0
H796 H 0.19725 0.88264 0.67959 0.0
C797 C 0.28699 0.87812 0.78721 0.0
H798 H 0.25207 0.8809 0.60498 0.0
C799 C 0.25538 0.87779 0.82963 0.0
C800 C 0.22246 0.879 0.7916 0.0
H801 H 0.31176 0.87852 0.81852 0.0
H802 H 0.2568 0.87748 0.89242 0.0
C803 C 0.2219 0.88008 0.71025 0.0
C804 C 0.74951 0.89814 0.74751 0.0
C805 C 0.74343 0.87544 0.70864 0.0
H806 H 0.7754 0.91648 0.84251 0.0
C807 C 0.75927 0.85343 0.73674 0.0
H808 H 0.73759 0.91539 0.72714 0.0
C809 C 0.78038 0.854 0.80326 0.0
C810 C 0.78692 0.87672 0.84136 0.0
H811 H 0.75528 0.83575 0.70731 0.0
H812 H 0.79193 0.83674 0.8244 0.0
C813 C 0.77092 0.89873 0.81371 0.0
C814 C 0.71474 0.11192 0.2239 0.0
C815 C 0.72476 0.11284 0.30184 0.0
H816 H 0.73215 0.11345 0.10543 0.0
C817 C 0.76091 0.11168 0.32096 0.0
H818 H 0.68717 0.10948 0.20839 0.0
C819 C 0.78664 0.1123 0.26255 0.0
C820 C 0.77652 0.11515 0.18501 0.0
H821 H 0.76917 0.11014 0.38094 0.0
H822 H 0.81431 0.11002 0.27759 0.0
C823 C 0.74042 0.1136 0.1656 0.0
C824 C 0.75289 0.60181 0.29288 0.0
C825 C 0.76155 0.62502 0.32607 0.0
H826 H 0.72329 0.58245 0.20552 0.0
C827 C 0.74545 0.64687 0.29722 0.0
H828 H 0.76483 0.58466 0.31396 0.0
C829 C 0.72195 0.64561 0.23465 0.0
C830 C 0.71343 0.62241 0.2014 0.0
H831 H 0.75147 0.66498 0.32223 0.0
H832 H 0.7105 0.66275 0.21213 0.0
C833 C 0.72923 0.60055 0.23069 0.0
C834 C 0.7613 0.3569 0.70875 0.0
C835 C 0.77469 0.37986 0.68192 0.0
H836 H 0.72733 0.33825 0.78989 0.0
C837 C 0.76194 0.40222 0.71454 0.0
H838 H 0.77032 0.33941 0.68379 0.0
C839 C 0.73679 0.40157 0.77418 0.0
C840 C 0.72375 0.37857 0.80163 0.0
H841 H 0.77164 0.42019 0.69457 0.0
H842 H 0.72748 0.41907 0.7986 0.0
C843 C 0.73664 0.35624 0.76918 0.0
C844 C 0.21487 0.3949 0.76486 0.0
C845 C 0.22494 0.39348 0.68709 0.0
H846 H 0.23213 0.39338 0.88351 0.0
C847 C 0.26106 0.39503 0.66814 0.0
H848 H 0.18729 0.39743 0.77987 0.0
C849 C 0.28675 0.39485 0.72667 0.0
C850 C 0.27669 0.39173 0.80412 0.0
H851 H 0.26926 0.39653 0.60816 0.0
H852 H 0.31429 0.3978 0.71187 0.0
C853 C 0.24051 0.39329 0.82338 0.0
C854 C 0.25775 0.6584 0.20529 0.0
C855 C 0.27104 0.63555 0.17726 0.0
H856 H 0.22003 0.67656 0.27957 0.0
C857 C 0.25659 0.61304 0.20499 0.0
H858 H 0.26845 0.67602 0.18475 0.0
C859 C 0.22961 0.61334 0.26043 0.0
C860 C 0.21593 0.63618 0.28768 0.0
H861 H 0.26649 0.59515 0.18474 0.0
H862 H 0.21904 0.59567 0.28086 0.0
C863 C 0.23011 0.65871 0.25941 0.0
C864 C 0.09153 0.14764 0.56923 0.0
C865 C 0.12168 0.14165 0.61335 0.0
H866 H 0.06943 0.15094 0.45514 0.0
C867 C 0.15093 0.13035 0.57716 0.0
H868 H 0.06887 0.1566 0.59623 0.0
C869 C 0.15163 0.12772 0.49669 0.0
C870 C 0.12283 0.13593 0.45187 0.0
H871 H 0.17462 0.1259 0.61006 0.0
H872 H 0.17562 0.1209 0.46921 0.0
C873 C 0.09195 0.14451 0.48877 0.0
C874 C 0.37813 0.86024 0.09424 0.0
C875 C 0.40991 0.85082 0.12503 0.0
H876 H 0.34816 0.8681 0.99167 0.0
C877 C 0.43823 0.84534 0.07458 0.0
H878 H 0.35573 0.86421 0.13172 0.0
C879 C 0.43397 0.84775 0.99421 0.0
C880 C 0.40111 0.85512 0.96355 0.0
H881 H 0.46286 0.83782 0.09715 0.0
H882 H 0.45551 0.84228 0.95615 0.0
C883 C 0.37367 0.86217 0.01413 0.0
C884 C 0.07579 0.84887 0.49527 0.0
C885 C 0.1084 0.85765 0.52358 0.0
H886 H 0.04593 0.83824 0.39454 0.0
C887 C 0.13426 0.86606 0.47123 0.0
H888 H 0.0554 0.84238 0.53474 0.0
C889 C 0.12868 0.86406 0.39151 0.0
C890 C 0.09728 0.85335 0.3629 0.0
H891 H 0.15954 0.87306 0.49185 0.0
H892 H 0.15008 0.86912 0.35256 0.0
C893 C 0.07035 0.84657 0.41532 0.0
C894 C 0.31444 0.1487 0.95022 0.0
C895 C 0.34385 0.14215 0.90464 0.0
H896 H 0.29399 0.15416 0.06458 0.0
C897 C 0.3742 0.13224 0.94071 0.0
H898 H 0.29093 0.15662 0.92354 0.0
C899 C 0.37595 0.1307 0.022 0.0
C900 C 0.34757 0.13943 0.06751 0.0
H901 H 0.39737 0.12749 0.90654 0.0
H902 H 0.40032 0.12445 0.04913 0.0
C903 C 0.31634 0.14747 0.03085 0.0
C904 C 0.85543 0.87097 0.48522 0.0
C905 C 0.88399 0.85931 0.44719 0.0
H906 H 0.83126 0.8799 0.59455 0.0
C907 C 0.91326 0.85132 0.49133 0.0
H908 H 0.83235 0.877 0.45271 0.0
C909 C 0.91274 0.85305 0.57236 0.0
C910 C 0.88275 0.86255 0.61077 0.0
H911 H 0.93555 0.84219 0.46338 0.0
H912 H 0.93472 0.84529 0.60497 0.0
C913 C 0.85475 0.87249 0.56643 0.0
C914 C 0.61347 0.14239 0.93744 0.0
C915 C 0.64488 0.14648 0.89576 0.0
H916 H 0.58963 0.1387 0.0499 0.0
C917 C 0.67727 0.14816 0.93529 0.0
H918 H 0.5882 0.14154 0.90762 0.0
C919 C 0.67806 0.14714 0.01611 0.0
C920 C 0.6465 0.14413 0.05833 0.0
H921 H 0.70164 0.15182 0.90385 0.0
H922 H 0.70314 0.14986 0.04554 0.0
C923 C 0.61432 0.14095 0.01845 0.0
C924 C 0.89652 0.14943 0.54559 0.0
C925 C 0.86568 0.14748 0.59076 0.0
H926 H 0.91829 0.15052 0.43073 0.0
C927 C 0.833 0.14284 0.55469 0.0
H928 H 0.92185 0.15341 0.57262 0.0
C929 C 0.83076 0.14197 0.47399 0.0
C930 C 0.86128 0.14517 0.42848 0.0
H931 H 0.80884 0.14179 0.58867 0.0
H932 H 0.80493 0.14007 0.44727 0.0
C933 C 0.8944 0.14791 0.46478 0.0
C934 C 0.65986 0.87384 0.98254 0.0
C935 C 0.68541 0.86108 0.93812 0.0
H936 H 0.63881 0.88021 0.09696 0.0
C937 C 0.71347 0.84888 0.97603 0.0
H938 H 0.63793 0.88335 0.95454 0.0
C939 C 0.71414 0.84732 0.05681 0.0
C940 C 0.68671 0.8579 0.10114 0.0
H941 H 0.73365 0.83905 0.94316 0.0
H942 H 0.73457 0.83616 0.08444 0.0
C943 C 0.66043 0.87216 0.06385 0.0
C944 C 0.66009 0.62391 0.55142 0.0
C945 C 0.63162 0.6336 0.59448 0.0
H946 H 0.68094 0.6167 0.43787 0.0
C947 C 0.59951 0.63908 0.55703 0.0
H948 H 0.68525 0.61995 0.57931 0.0
C949 C 0.59694 0.63712 0.47649 0.0
C950 C 0.62667 0.63008 0.43251 0.0
H951 H 0.57743 0.64684 0.58938 0.0
H952 H 0.57271 0.6432 0.44838 0.0
C953 C 0.65768 0.62223 0.47065 0.0
C954 C 0.87094 0.38149 0.96713 0.0
C955 C 0.84143 0.3762 0.92009 0.0
H956 H 0.89244 0.38031 0.08262 0.0
C957 C 0.80871 0.37076 0.95517 0.0
H958 H 0.89648 0.38564 0.94133 0.0
C959 C 0.80642 0.36788 0.03546 0.0
C960 C 0.83678 0.3705 0.0818 0.0
H961 H 0.78554 0.3667 0.92016 0.0
H962 H 0.78168 0.36148 0.06066 0.0
C963 C 0.86865 0.37853 0.0478 0.0
C964 C 0.61762 0.37414 0.52102 0.0
C965 C 0.64846 0.37435 0.56678 0.0
H966 H 0.59608 0.36788 0.40733 0.0
C967 C 0.68181 0.37394 0.53043 0.0
H968 H 0.59162 0.37431 0.54782 0.0
C969 C 0.68428 0.37059 0.45029 0.0
C970 C 0.65345 0.36762 0.40574 0.0
H971 H 0.70596 0.37409 0.56457 0.0
H972 H 0.7102 0.36801 0.42422 0.0
C973 C 0.62012 0.37055 0.4408 0.0
C974 C 0.78473 0.64565 0.05569 0.0
C975 C 0.81451 0.63393 0.08837 0.0
H976 H 0.75947 0.6581 0.95138 0.0
C977 C 0.83849 0.62127 0.0398 0.0
H978 H 0.76567 0.65532 0.09199 0.0
C979 C 0.83498 0.62295 0.95901 0.0
C980 C 0.80736 0.63716 0.92651 0.0
H981 H 0.8616 0.61203 0.06384 0.0
H982 H 0.85565 0.61523 0.92241 0.0
C983 C 0.78109 0.64715 0.97533 0.0
C984 C 0.34119 0.37031 0.43309 0.0
C985 C 0.37253 0.36201 0.39756 0.0
H986 H 0.31397 0.3765 0.54005 0.0
C987 C 0.40288 0.35784 0.44299 0.0
H988 H 0.31731 0.37318 0.39918 0.0
C989 C 0.40112 0.36025 0.5237 0.0
C990 C 0.36873 0.36614 0.55954 0.0
H991 H 0.42715 0.35107 0.41652 0.0
H992 H 0.42422 0.35552 0.55813 0.0
C993 C 0.3392 0.37205 0.51363 0.0
C994 C 0.1123 0.63236 0.99023 0.0
C995 C 0.13881 0.63223 0.04745 0.0
H996 H 0.10015 0.63808 0.86988 0.0
C997 C 0.17455 0.63442 0.02515 0.0
H998 H 0.08458 0.63079 0.00613 0.0
C999 C 0.18333 0.63898 0.94756 0.0
C1000 C 0.15655 0.64075 0.89126 0.0
H1001 H 0.19546 0.63456 0.06831 0.0
H1002 H 0.21074 0.64259 0.93224 0.0
C1003 C 0.12116 0.63643 0.91248 0.0
C1004 C 0.36881 0.6357 0.55147 0.0
C1005 C 0.33429 0.64198 0.57473 0.0
H1006 H 0.40314 0.62716 0.45592 0.0
C1007 C 0.30647 0.64098 0.52088 0.0
H1008 H 0.39059 0.63662 0.5924 0.0
C1009 C 0.31348 0.6353 0.44325 0.0
C1010 C 0.34851 0.63105 0.41853 0.0
H1011 H 0.27971 0.64598 0.53802 0.0
H1012 H 0.29189 0.63608 0.40178 0.0
C1013 C 0.37592 0.63031 0.47367 0.0
C1014 C 0.19243 0.35131 0.04731 0.0
C1015 C 0.16307 0.35789 0.09286 0.0
H1016 H 0.21317 0.34707 0.93273 0.0
C1017 C 0.13294 0.36834 0.05779 0.0
H1018 H 0.21578 0.34305 0.07369 0.0
C1019 C 0.13127 0.37049 0.97698 0.0
C1020 C 0.15972 0.36215 0.93109 0.0
H1021 H 0.10992 0.3732 0.09234 0.0
H1022 H 0.10707 0.37729 0.95039 0.0
C1023 C 0.19081 0.35348 0.96692 0.0
loop_
_geom_bond_atom_site_label_1
_geom_bond_atom_site_label_2
_geom_bond_distance
_geom_bond_site_symmetry_2
_ccdc_geom_bond_type
O0 Tb1 2.292 . S
O0 C3 1.255 . S
Tb1 O0 2.292 . S
Tb1 O17 2.326 . S
Tb1 O19 2.500 . S
Tb1 O20 2.473 . S
Tb1 O23 2.324 . S
Eu2 O6 2.292 1_554 S
Eu2 C7 2.852 1_554 S
Eu2 O18 2.324 . S
Eu2 O22 2.326 . S
Eu2 O24 2.500 1_554 S
Eu2 O25 2.473 1_554 S
C3 O0 1.255 . S
C3 O4 1.247 . S
O4 C3 1.247 . S
C5 O17 1.242 . S
C5 O18 1.258 . S
O6 Eu2 2.292 1_556 S
O6 C8 1.255 1_556 S
C7 Eu2 2.852 1_556 S
C7 C11 1.503 . S
C7 O24 1.273 . S
C7 O25 1.257 . S
C8 O6 1.255 1_554 S
C8 O9 1.247 . S
O9 C8 1.247 . S
C10 O22 1.242 . S
C10 O23 1.258 . S
C11 C7 1.503 . S
C11 C12 1.379 . S
C11 C16 1.392 . S
C12 C11 1.379 . S
C12 C13 1.404 . S
C12 H26 0.929 . S
C13 C12 1.404 . S
C13 C14 1.389 . S
C14 C13 1.389 . S
C14 C15 1.399 . S
C14 H27 0.931 . S
C15 C14 1.399 . S
C15 C16 1.390 . S
C16 C11 1.392 . S
C16 C15 1.390 . S
C16 H28 0.929 . S
O17 Tb1 2.326 . S
O17 C5 1.242 . S
O18 Eu2 2.324 . S
O18 C5 1.258 . S
O19 Tb1 2.500 . S
O19 C21 1.273 . S
O20 Tb1 2.473 . S
O20 C21 1.257 . S
C21 O19 1.273 . S
C21 O20 1.257 . S
O22 Eu2 2.326 . S
O22 C10 1.242 . S
O23 Tb1 2.324 . S
O23 C10 1.258 . S
O24 Eu2 2.500 1_556 S
O24 C7 1.273 . S
O25 Eu2 2.473 1_556 S
O25 C7 1.257 . S
H26 C12 0.929 . S
H27 C14 0.931 . S
H28 C16 0.929 . S
O29 Tb30 2.292 . S
O29 C32 1.255 . S
Tb30 O29 2.292 . S
Tb30 O46 2.326 . S
Tb30 O48 2.500 . S
Tb30 O49 2.473 . S
Tb30 O52 2.324 . S
Eu31 O35 2.292 . S
Eu31 C36 2.852 . S
Eu31 O47 2.324 . S
Eu31 O51 2.326 . S
Eu31 O53 2.500 . S
Eu31 O54 2.473 . S
C32 O29 1.255 . S
C32 O33 1.247 . S
O33 C32 1.247 . S
C34 O46 1.242 . S
C34 O47 1.258 . S
O35 Eu31 2.292 . S
O35 C37 1.255 . S
C36 Eu31 2.852 . S
C36 C40 1.503 . S
C36 O53 1.273 . S
C36 O54 1.257 . S
C37 O35 1.255 . S
C37 O38 1.247 . S
O38 C37 1.247 . S
C39 O51 1.242 . S
C39 O52 1.258 . S
C40 C36 1.503 . S
C40 C41 1.379 . S
C40 C45 1.392 . S
C41 C40 1.379 . S
C41 C42 1.404 . S
C41 H55 0.929 . S
C42 C41 1.404 . S
C42 C43 1.389 . S
C43 C42 1.389 . S
C43 C44 1.399 . S
C43 H56 0.931 . S
C44 C43 1.399 . S
C44 C45 1.390 . S
C45 C40 1.392 . S
C45 C44 1.390 . S
C45 H57 0.929 . S
O46 Tb30 2.326 . S
O46 C34 1.242 . S
O47 Eu31 2.324 . S
O47 C34 1.258 . S
O48 Tb30 2.500 . S
O48 C50 1.273 . S
O49 Tb30 2.473 . S
O49 C50 1.257 . S
C50 O48 1.273 . S
C50 O49 1.257 . S
O51 Eu31 2.326 . S
O51 C39 1.242 . S
O52 Tb30 2.324 . S
O52 C39 1.258 . S
O53 Eu31 2.500 . S
O53 C36 1.273 . S
O54 Eu31 2.473 . S
O54 C36 1.257 . S
H55 C41 0.929 . S
H56 C43 0.931 . S
H57 C45 0.929 . S
O58 Tb59 2.292 . S
O58 C61 1.255 . S
Tb59 O58 2.292 . S
Tb59 O75 2.326 . S
Tb59 O77 2.500 . S
Tb59 O78 2.473 . S
Tb59 O81 2.324 . S
Eu60 O64 2.292 1_556 S
Eu60 C65 2.852 1_556 S
Eu60 O76 2.324 . S
Eu60 O80 2.326 . S
Eu60 O82 2.500 1_556 S
Eu60 O83 2.473 1_556 S
C61 O58 1.255 . S
C61 O62 1.247 . S
O62 C61 1.247 . S
C63 O75 1.242 . S
C63 O76 1.258 . S
O64 Eu60 2.292 1_554 S
O64 C66 1.255 1_554 S
C65 Eu60 2.852 1_554 S
C65 C69 1.503 . S
C65 O82 1.273 . S
C65 O83 1.257 . S
C66 O64 1.255 1_556 S
C66 O67 1.247 . S
O67 C66 1.247 . S
C68 O80 1.242 . S
C68 O81 1.258 . S
C69 C65 1.503 . S
C69 C70 1.379 . S
C69 C74 1.392 . S
C70 C69 1.379 . S
C70 C71 1.404 . S
C70 H84 0.929 . S
C71 C70 1.404 . S
C71 C72 1.389 . S
C72 C71 1.389 . S
C72 C73 1.399 . S
C72 H85 0.931 . S
C73 C72 1.399 . S
C73 C74 1.390 . S
C74 C69 1.392 . S
C74 C73 1.390 . S
C74 H86 0.929 . S
O75 Tb59 2.326 . S
O75 C63 1.242 . S
O76 Eu60 2.324 . S
O76 C63 1.258 . S
O77 Tb59 2.500 . S
O77 C79 1.273 . S
O78 Tb59 2.473 . S
O78 C79 1.257 . S
C79 O77 1.273 . S
C79 O78 1.257 . S
O80 Eu60 2.326 . S
O80 C68 1.242 . S
O81 Tb59 2.324 . S
O81 C68 1.258 . S
O82 Eu60 2.500 1_554 S
O82 C65 1.273 . S
O83 Eu60 2.473 1_554 S
O83 C65 1.257 . S
H84 C70 0.929 . S
H85 C72 0.931 . S
H86 C74 0.929 . S
O87 Tb88 2.292 . S
O87 C90 1.255 . S
Tb88 O87 2.292 . S
Tb88 O104 2.326 . S
Tb88 O106 2.500 . S
Tb88 O107 2.473 . S
Tb88 O110 2.324 . S
Eu89 O93 2.292 . S
Eu89 C94 2.852 . S
Eu89 O105 2.324 . S
Eu89 O109 2.326 . S
Eu89 O111 2.500 . S
Eu89 O112 2.473 . S
C90 O87 1.255 . S
C90 O91 1.247 . S
O91 C90 1.247 . S
C92 O104 1.242 . S
C92 O105 1.258 . S
O93 Eu89 2.292 . S
O93 C95 1.255 . S
C94 Eu89 2.852 . S
C94 C98 1.503 . S
C94 O111 1.273 . S
C94 O112 1.257 . S
C95 O93 1.255 . S
C95 O96 1.247 . S
O96 C95 1.247 . S
C97 O109 1.242 . S
C97 O110 1.258 . S
C98 C94 1.503 . S
C98 C99 1.379 . S
C98 C103 1.392 . S
C99 C98 1.379 . S
C99 C100 1.404 . S
C99 H113 0.929 . S
C100 C99 1.404 . S
C100 C101 1.389 . S
C101 C100 1.389 . S
C101 C102 1.399 . S
C101 H114 0.931 . S
C102 C101 1.399 . S
C102 C103 1.390 . S
C103 C98 1.392 . S
C103 C102 1.390 . S
C103 H115 0.929 . S
O104 Tb88 2.326 . S
O104 C92 1.242 . S
O105 Eu89 2.324 . S
O105 C92 1.258 . S
O106 Tb88 2.500 . S
O106 C108 1.273 . S
O107 Tb88 2.473 . S
O107 C108 1.257 . S
C108 O106 1.273 . S
C108 O107 1.257 . S
O109 Eu89 2.326 . S
O109 C97 1.242 . S
O110 Tb88 2.324 . S
O110 C97 1.258 . S
O111 Eu89 2.500 . S
O111 C94 1.273 . S
O112 Eu89 2.473 . S
O112 C94 1.257 . S
H113 C99 0.929 . S
H114 C101 0.931 . S
H115 C103 0.929 . S
O116 Tb117 2.292 . S
O116 C119 1.255 . S
Tb117 O116 2.292 . S
Tb117 O133 2.326 . S
Tb117 O135 2.500 . S
Tb117 O136 2.473 . S
Tb117 O139 2.324 . S
Eu118 O122 2.292 1_556 S
Eu118 C123 2.852 1_556 S
Eu118 O134 2.324 . S
Eu118 O138 2.326 . S
Eu118 O140 2.500 1_556 S
Eu118 O141 2.473 1_556 S
C119 O116 1.255 . S
C119 O120 1.247 . S
O120 C119 1.247 . S
C121 O133 1.242 . S
C121 O134 1.258 . S
O122 Eu118 2.292 1_554 S
O122 C124 1.255 1_554 S
C123 Eu118 2.852 1_554 S
C123 C127 1.503 . S
C123 O140 1.273 . S
C123 O141 1.257 . S
C124 O122 1.255 1_556 S
C124 O125 1.247 . S
O125 C124 1.247 . S
C126 O138 1.242 . S
C126 O139 1.258 . S
C127 C123 1.503 . S
C127 C128 1.379 . S
C127 C132 1.392 . S
C128 C127 1.379 . S
C128 C129 1.404 . S
C128 H142 0.929 . S
C129 C128 1.404 . S
C129 C130 1.389 . S
C130 C129 1.389 . S
C130 C131 1.399 . S
C130 H143 0.931 . S
C131 C130 1.399 . S
C131 C132 1.390 . S
C132 C127 1.392 . S
C132 C131 1.390 . S
C132 H144 0.929 . S
O133 Tb117 2.326 . S
O133 C121 1.242 . S
O134 Eu118 2.324 . S
O134 C121 1.258 . S
O135 Tb117 2.500 . S
O135 C137 1.273 . S
O136 Tb117 2.473 . S
O136 C137 1.257 . S
C137 O135 1.273 . S
C137 O136 1.257 . S
O138 Eu118 2.326 . S
O138 C126 1.242 . S
O139 Tb117 2.324 . S
O139 C126 1.258 . S
O140 Eu118 2.500 1_554 S
O140 C123 1.273 . S
O141 Eu118 2.473 1_554 S
O141 C123 1.257 . S
H142 C128 0.929 . S
H143 C130 0.931 . S
H144 C132 0.929 . S
O145 Tb146 2.292 . S
O145 C148 1.255 . S
Tb146 O145 2.292 . S
Tb146 O162 2.326 . S
Tb146 O164 2.500 . S
Tb146 O165 2.473 . S
Tb146 O168 2.324 . S
Eu147 O151 2.292 . S
Eu147 C152 2.852 . S
Eu147 O163 2.324 . S
Eu147 O167 2.326 . S
Eu147 O169 2.500 . S
Eu147 O170 2.473 . S
C148 O145 1.255 . S
C148 O149 1.247 . S
O149 C148 1.247 . S
C150 O162 1.242 . S
C150 O163 1.258 . S
O151 Eu147 2.292 . S
O151 C153 1.255 . S
C152 Eu147 2.852 . S
C152 C156 1.503 . S
C152 O169 1.273 . S
C152 O170 1.257 . S
C153 O151 1.255 . S
C153 O154 1.247 . S
O154 C153 1.247 . S
C155 O167 1.242 . S
C155 O168 1.258 . S
C156 C152 1.503 . S
C156 C157 1.379 . S
C156 C161 1.392 . S
C157 C156 1.379 . S
C157 C158 1.404 . S
C157 H171 0.929 . S
C158 C157 1.404 . S
C158 C159 1.389 . S
C159 C158 1.389 . S
C159 C160 1.399 . S
C159 H172 0.931 . S
C160 C159 1.399 . S
C160 C161 1.390 . S
C161 C156 1.392 . S
C161 C160 1.390 . S
C161 H173 0.929 . S
O162 Tb146 2.326 . S
O162 C150 1.242 . S
O163 Eu147 2.324 . S
O163 C150 1.258 . S
O164 Tb146 2.500 . S
O164 C166 1.273 . S
O165 Tb146 2.473 . S
O165 C166 1.257 . S
C166 O164 1.273 . S
C166 O165 1.257 . S
O167 Eu147 2.326 . S
O167 C155 1.242 . S
O168 Tb146 2.324 . S
O168 C155 1.258 . S
O169 Eu147 2.500 . S
O169 C152 1.273 . S
O170 Eu147 2.473 . S
O170 C152 1.257 . S
H171 C157 0.929 . S
H172 C159 0.931 . S
H173 C161 0.929 . S
O174 Tb175 2.292 . S
O174 C177 1.255 . S
Tb175 O174 2.292 . S
Tb175 O191 2.326 . S
Tb175 O193 2.500 . S
Tb175 O194 2.473 . S
Tb175 O197 2.324 . S
Eu176 O180 2.292 1_554 S
Eu176 C181 2.852 1_554 S
Eu176 O192 2.324 . S
Eu176 O196 2.326 . S
Eu176 O198 2.500 1_554 S
Eu176 O199 2.473 1_554 S
C177 O174 1.255 . S
C177 O178 1.247 . S
O178 C177 1.247 . S
C179 O191 1.242 . S
C179 O192 1.258 . S
O180 Eu176 2.292 1_556 S
O180 C182 1.255 1_556 S
C181 Eu176 2.852 1_556 S
C181 C185 1.503 . S
C181 O198 1.273 . S
C181 O199 1.257 . S
C182 O180 1.255 1_554 S
C182 O183 1.247 . S
O183 C182 1.247 . S
C184 O196 1.242 . S
C184 O197 1.258 . S
C185 C181 1.503 . S
C185 C186 1.379 . S
C185 C190 1.392 . S
C186 C185 1.379 . S
C186 C187 1.404 . S
C186 H200 0.929 . S
C187 C186 1.404 . S
C187 C188 1.389 . S
C188 C187 1.389 . S
C188 C189 1.399 . S
C188 H201 0.931 . S
C189 C188 1.399 . S
C189 C190 1.390 . S
C190 C185 1.392 . S
C190 C189 1.390 . S
C190 H202 0.929 . S
O191 Tb175 2.326 . S
O191 C179 1.242 . S
O192 Eu176 2.324 . S
O192 C179 1.258 . S
O193 Tb175 2.500 . S
O193 C195 1.273 . S
O194 Tb175 2.473 . S
O194 C195 1.257 . S
C195 O193 1.273 . S
C195 O194 1.257 . S
O196 Eu176 2.326 . S
O196 C184 1.242 . S
O197 Tb175 2.324 . S
O197 C184 1.258 . S
O198 Eu176 2.500 1_556 S
O198 C181 1.273 . S
O199 Eu176 2.473 1_556 S
O199 C181 1.257 . S
H200 C186 0.929 . S
H201 C188 0.931 . S
H202 C190 0.929 . S
O203 Tb204 2.292 . S
O203 C206 1.255 . S
Tb204 O203 2.292 . S
Tb204 O220 2.326 . S
Tb204 O222 2.500 . S
Tb204 O223 2.473 . S
Tb204 O226 2.324 . S
Eu205 O209 2.292 . S
Eu205 C210 2.852 . S
Eu205 O221 2.324 . S
Eu205 O225 2.326 . S
Eu205 O227 2.500 . S
Eu205 O228 2.473 . S
C206 O203 1.255 . S
C206 O207 1.247 . S
O207 C206 1.247 . S
C208 O220 1.242 . S
C208 O221 1.258 . S
O209 Eu205 2.292 . S
O209 C211 1.255 . S
C210 Eu205 2.852 . S
C210 C214 1.503 . S
C210 O227 1.273 . S
C210 O228 1.257 . S
C211 O209 1.255 . S
C211 O212 1.247 . S
O212 C211 1.247 . S
C213 O225 1.242 . S
C213 O226 1.258 . S
C214 C210 1.503 . S
C214 C215 1.379 . S
C214 C219 1.392 . S
C215 C214 1.379 . S
C215 C216 1.404 . S
C215 H229 0.929 . S
C216 C215 1.404 . S
C216 C217 1.389 . S
C217 C216 1.389 . S
C217 C218 1.399 . S
C217 H230 0.931 . S
C218 C217 1.399 . S
C218 C219 1.390 . S
C219 C214 1.392 . S
C219 C218 1.390 . S
C219 H231 0.929 . S
O220 Tb204 2.326 . S
O220 C208 1.242 . S
O221 Eu205 2.324 . S
O221 C208 1.258 . S
O222 Tb204 2.500 . S
O222 C224 1.273 . S
O223 Tb204 2.473 . S
O223 C224 1.257 . S
C224 O222 1.273 . S
C224 O223 1.257 . S
O225 Eu205 2.326 . S
O225 C213 1.242 . S
O226 Tb204 2.324 . S
O226 C213 1.258 . S
O227 Eu205 2.500 . S
O227 C210 1.273 . S
O228 Eu205 2.473 . S
O228 C210 1.257 . S
H229 C215 0.929 . S
H230 C217 0.931 . S
H231 C219 0.929 . S
O232 Tb233 2.292 . S
O232 C235 1.255 . S
Tb233 O232 2.292 . S
Tb233 O249 2.326 . S
Tb233 O251 2.500 . S
Tb233 O252 2.473 . S
Tb233 O255 2.324 . S
Eu234 O238 2.292 1_554 S
Eu234 C239 2.852 1_554 S
Eu234 O250 2.324 . S
Eu234 O254 2.326 . S
Eu234 O256 2.500 1_554 S
Eu234 O257 2.473 1_554 S
C235 O232 1.255 . S
C235 O236 1.247 . S
O236 C235 1.247 . S
C237 O249 1.242 . S
C237 O250 1.258 . S
O238 Eu234 2.292 1_556 S
O238 C240 1.255 1_556 S
C239 Eu234 2.852 1_556 S
C239 C243 1.503 . S
C239 O256 1.273 . S
C239 O257 1.257 . S
C240 O238 1.255 1_554 S
C240 O241 1.247 . S
O241 C240 1.247 . S
C242 O254 1.242 . S
C242 O255 1.258 . S
C243 C239 1.503 . S
C243 C244 1.379 . S
C243 C248 1.392 . S
C244 C243 1.379 . S
C244 C245 1.404 . S
C244 H258 0.929 . S
C245 C244 1.404 . S
C245 C246 1.389 . S
C246 C245 1.389 . S
C246 C247 1.399 . S
C246 H259 0.931 . S
C247 C246 1.399 . S
C247 C248 1.390 . S
C248 C243 1.392 . S
C248 C247 1.390 . S
C248 H260 0.929 . S
O249 Tb233 2.326 . S
O249 C237 1.242 . S
O250 Eu234 2.324 . S
O250 C237 1.258 . S
O251 Tb233 2.500 . S
O251 C253 1.273 . S
O252 Tb233 2.473 . S
O252 C253 1.257 . S
C253 O251 1.273 . S
C253 O252 1.257 . S
O254 Eu234 2.326 . S
O254 C242 1.242 . S
O255 Tb233 2.324 . S
O255 C242 1.258 . S
O256 Eu234 2.500 1_556 S
O256 C239 1.273 . S
O257 Eu234 2.473 1_556 S
O257 C239 1.257 . S
H258 C244 0.929 . S
H259 C246 0.931 . S
H260 C248 0.929 . S
O261 Tb262 2.292 . S
O261 C264 1.255 . S
Tb262 O261 2.292 . S
Tb262 O278 2.326 . S
Tb262 O280 2.500 . S
Tb262 O281 2.473 . S
Tb262 O284 2.324 . S
Eu263 O267 2.292 . S
Eu263 C268 2.852 . S
Eu263 O279 2.324 . S
Eu263 O283 2.326 . S
Eu263 O285 2.500 . S
Eu263 O286 2.473 . S
C264 O261 1.255 . S
C264 O265 1.247 . S
O265 C264 1.247 . S
C266 O278 1.242 . S
C266 O279 1.258 . S
O267 Eu263 2.292 . S
O267 C269 1.255 . S
C268 Eu263 2.852 . S
C268 C272 1.503 . S
C268 O285 1.273 . S
C268 O286 1.257 . S
C269 O267 1.255 . S
C269 O270 1.247 . S
O270 C269 1.247 . S
C271 O283 1.242 . S
C271 O284 1.258 . S
C272 C268 1.503 . S
C272 C273 1.379 . S
C272 C277 1.392 . S
C273 C272 1.379 . S
C273 C274 1.404 . S
C273 H287 0.929 . S
C274 C273 1.404 . S
C274 C275 1.389 . S
C275 C274 1.389 . S
C275 C276 1.399 . S
C275 H288 0.931 . S
C276 C275 1.399 . S
C276 C277 1.390 . S
C277 C272 1.392 . S
C277 C276 1.390 . S
C277 H289 0.929 . S
O278 Tb262 2.326 . S
O278 C266 1.242 . S
O279 Eu263 2.324 . S
O279 C266 1.258 . S
O280 Tb262 2.500 . S
O280 C282 1.273 . S
O281 Tb262 2.473 . S
O281 C282 1.257 . S
C282 O280 1.273 . S
C282 O281 1.257 . S
O283 Eu263 2.326 . S
O283 C271 1.242 . S
O284 Tb262 2.324 . S
O284 C271 1.258 . S
O285 Eu263 2.500 . S
O285 C268 1.273 . S
O286 Eu263 2.473 . S
O286 C268 1.257 . S
H287 C273 0.929 . S
H288 C275 0.931 . S
H289 C277 0.929 . S
O290 Tb291 2.292 . S
O290 C293 1.255 . S
Tb291 O290 2.292 . S
Tb291 O307 2.326 . S
Tb291 O309 2.500 . S
Tb291 O310 2.473 . S
Tb291 O313 2.324 . S
Eu292 O296 2.292 1_556 S
Eu292 C297 2.852 1_556 S
Eu292 O308 2.324 . S
Eu292 O312 2.326 . S
Eu292 O314 2.500 1_556 S
Eu292 O315 2.473 1_556 S
C293 O290 1.255 . S
C293 O294 1.247 . S
O294 C293 1.247 . S
C295 O307 1.242 . S
C295 O308 1.258 . S
O296 Eu292 2.292 1_554 S
O296 C298 1.255 1_554 S
C297 Eu292 2.852 1_554 S
C297 C301 1.503 . S
C297 O314 1.273 . S
C297 O315 1.257 . S
C298 O296 1.255 1_556 S
C298 O299 1.247 . S
O299 C298 1.247 . S
C300 O312 1.242 . S
C300 O313 1.258 . S
C301 C297 1.503 . S
C301 C302 1.379 . S
C301 C306 1.392 . S
C302 C301 1.379 . S
C302 C303 1.404 . S
C302 H316 0.929 . S
C303 C302 1.404 . S
C303 C304 1.389 . S
C304 C303 1.389 . S
C304 C305 1.399 . S
C304 H317 0.931 . S
C305 C304 1.399 . S
C305 C306 1.390 . S
C306 C301 1.392 . S
C306 C305 1.390 . S
C306 H318 0.929 . S
O307 Tb291 2.326 . S
O307 C295 1.242 . S
O308 Eu292 2.324 . S
O308 C295 1.258 . S
O309 Tb291 2.500 . S
O309 C311 1.273 . S
O310 Tb291 2.473 . S
O310 C311 1.257 . S
C311 O309 1.273 . S
C311 O310 1.257 . S
O312 Eu292 2.326 . S
O312 C300 1.242 . S
O313 Tb291 2.324 . S
O313 C300 1.258 . S
O314 Eu292 2.500 1_554 S
O314 C297 1.273 . S
O315 Eu292 2.473 1_554 S
O315 C297 1.257 . S
H316 C302 0.929 . S
H317 C304 0.931 . S
H318 C306 0.929 . S
O319 Tb320 2.292 . S
O319 C322 1.255 . S
Tb320 O319 2.292 . S
Tb320 O336 2.326 . S
Tb320 O338 2.500 . S
Tb320 O339 2.473 . S
Tb320 O342 2.324 . S
Eu321 O325 2.292 . S
Eu321 C326 2.852 . S
Eu321 O337 2.324 . S
Eu321 O341 2.326 . S
Eu321 O343 2.500 . S
Eu321 O344 2.473 . S
C322 O319 1.255 . S
C322 O323 1.247 . S
O323 C322 1.247 . S
C324 O336 1.242 . S
C324 O337 1.258 . S
O325 Eu321 2.292 . S
O325 C327 1.255 . S
C326 Eu321 2.852 . S
C326 C330 1.503 . S
C326 O343 1.273 . S
C326 O344 1.257 . S
C327 O325 1.255 . S
C327 O328 1.247 . S
O328 C327 1.247 . S
C329 O341 1.242 . S
C329 O342 1.258 . S
C330 C326 1.503 . S
C330 C331 1.379 . S
C330 C335 1.392 . S
C331 C330 1.379 . S
C331 C332 1.404 . S
C331 H345 0.929 . S
C332 C331 1.404 . S
C332 C333 1.389 . S
C333 C332 1.389 . S
C333 C334 1.399 . S
C333 H346 0.931 . S
C334 C333 1.399 . S
C334 C335 1.390 . S
C335 C330 1.392 . S
C335 C334 1.390 . S
C335 H347 0.929 . S
O336 Tb320 2.326 . S
O336 C324 1.242 . S
O337 Eu321 2.324 . S
O337 C324 1.258 . S
O338 Tb320 2.500 . S
O338 C340 1.273 . S
O339 Tb320 2.473 . S
O339 C340 1.257 . S
C340 O338 1.273 . S
C340 O339 1.257 . S
O341 Eu321 2.326 . S
O341 C329 1.242 . S
O342 Tb320 2.324 . S
O342 C329 1.258 . S
O343 Eu321 2.500 . S
O343 C326 1.273 . S
O344 Eu321 2.473 . S
O344 C326 1.257 . S
H345 C331 0.929 . S
H346 C333 0.931 . S
H347 C335 0.929 . S
O348 Tb349 2.292 . S
O348 C351 1.255 . S
Tb349 O348 2.292 . S
Tb349 O365 2.326 . S
Tb349 O367 2.500 . S
Tb349 O368 2.473 . S
Tb349 O371 2.324 . S
Eu350 O354 2.292 1_556 S
Eu350 C355 2.852 1_556 S
Eu350 O366 2.324 . S
Eu350 O370 2.326 . S
Eu350 O372 2.500 1_556 S
Eu350 O373 2.473 1_556 S
C351 O348 1.255 . S
C351 O352 1.247 . S
O352 C351 1.247 . S
C353 O365 1.242 . S
C353 O366 1.258 . S
O354 Eu350 2.292 1_554 S
O354 C356 1.255 1_554 S
C355 Eu350 2.852 1_554 S
C355 C359 1.503 . S
C355 O372 1.273 . S
C355 O373 1.257 . S
C356 O354 1.255 1_556 S
C356 O357 1.247 . S
O357 C356 1.247 . S
C358 O370 1.242 . S
C358 O371 1.258 . S
C359 C355 1.503 . S
C359 C360 1.379 . S
C359 C364 1.392 . S
C360 C359 1.379 . S
C360 C361 1.404 . S
C360 H374 0.929 . S
C361 C360 1.404 . S
C361 C362 1.389 . S
C362 C361 1.389 . S
C362 C363 1.399 . S
C362 H375 0.931 . S
C363 C362 1.399 . S
C363 C364 1.390 . S
C364 C359 1.392 . S
C364 C363 1.390 . S
C364 H376 0.929 . S
O365 Tb349 2.326 . S
O365 C353 1.242 . S
O366 Eu350 2.324 . S
O366 C353 1.258 . S
O367 Tb349 2.500 . S
O367 C369 1.273 . S
O368 Tb349 2.473 . S
O368 C369 1.257 . S
C369 O367 1.273 . S
C369 O368 1.257 . S
O370 Eu350 2.326 . S
O370 C358 1.242 . S
O371 Tb349 2.324 . S
O371 C358 1.258 . S
O372 Eu350 2.500 1_554 S
O372 C355 1.273 . S
O373 Eu350 2.473 1_554 S
O373 C355 1.257 . S
H374 C360 0.929 . S
H375 C362 0.931 . S
H376 C364 0.929 . S
O377 Tb378 2.292 . S
O377 C380 1.255 . S
Tb378 O377 2.292 . S
Tb378 O394 2.326 . S
Tb378 O396 2.500 . S
Tb378 O397 2.473 . S
Tb378 O400 2.324 . S
Eu379 O383 2.292 . S
Eu379 C384 2.852 . S
Eu379 O395 2.324 . S
Eu379 O399 2.326 . S
Eu379 O401 2.500 . S
Eu379 O402 2.473 . S
C380 O377 1.255 . S
C380 O381 1.247 . S
O381 C380 1.247 . S
C382 O394 1.242 . S
C382 O395 1.258 . S
O383 Eu379 2.292 . S
O383 C385 1.255 . S
C384 Eu379 2.852 . S
C384 C388 1.503 . S
C384 O401 1.273 . S
C384 O402 1.257 . S
C385 O383 1.255 . S
C385 O386 1.247 . S
O386 C385 1.247 . S
C387 O399 1.242 . S
C387 O400 1.258 . S
C388 C384 1.503 . S
C388 C389 1.379 . S
C388 C393 1.392 . S
C389 C388 1.379 . S
C389 C390 1.404 . S
C389 H403 0.929 . S
C390 C389 1.404 . S
C390 C391 1.389 . S
C391 C390 1.389 . S
C391 C392 1.399 . S
C391 H404 0.931 . S
C392 C391 1.399 . S
C392 C393 1.390 . S
C393 C388 1.392 . S
C393 C392 1.390 . S
C393 H405 0.929 . S
O394 Tb378 2.326 . S
O394 C382 1.242 . S
O395 Eu379 2.324 . S
O395 C382 1.258 . S
O396 Tb378 2.500 . S
O396 C398 1.273 . S
O397 Tb378 2.473 . S
O397 C398 1.257 . S
C398 O396 1.273 . S
C398 O397 1.257 . S
O399 Eu379 2.326 . S
O399 C387 1.242 . S
O400 Tb378 2.324 . S
O400 C387 1.258 . S
O401 Eu379 2.500 . S
O401 C384 1.273 . S
O402 Eu379 2.473 . S
O402 C384 1.257 . S
H403 C389 0.929 . S
H404 C391 0.931 . S
H405 C393 0.929 . S
O406 Tb407 2.292 . S
O406 C409 1.255 . S
Tb407 O406 2.292 . S
Tb407 O423 2.326 . S
Tb407 O425 2.500 . S
Tb407 O426 2.473 . S
Tb407 O429 2.324 . S
Eu408 O412 2.292 1_554 S
Eu408 C413 2.852 1_554 S
Eu408 O424 2.324 . S
Eu408 O428 2.326 . S
Eu408 O430 2.500 1_554 S
Eu408 O431 2.473 1_554 S
C409 O406 1.255 . S
C409 O410 1.247 . S
O410 C409 1.247 . S
C411 O423 1.242 . S
C411 O424 1.258 . S
O412 Eu408 2.292 1_556 S
O412 C414 1.255 1_556 S
C413 Eu408 2.852 1_556 S
C413 C417 1.503 . S
C413 O430 1.273 . S
C413 O431 1.257 . S
C414 O412 1.255 1_554 S
C414 O415 1.247 . S
O415 C414 1.247 . S
C416 O428 1.242 . S
C416 O429 1.258 . S
C417 C413 1.503 . S
C417 C418 1.379 . S
C417 C422 1.392 . S
C418 C417 1.379 . S
C418 C419 1.404 . S
C418 H432 0.929 . S
C419 C418 1.404 . S
C419 C420 1.389 . S
C420 C419 1.389 . S
C420 C421 1.399 . S
C420 H433 0.931 . S
C421 C420 1.399 . S
C421 C422 1.390 . S
C422 C417 1.392 . S
C422 C421 1.390 . S
C422 H434 0.929 . S
O423 Tb407 2.326 . S
O423 C411 1.242 . S
O424 Eu408 2.324 . S
O424 C411 1.258 . S
O425 Tb407 2.500 . S
O425 C427 1.273 . S
O426 Tb407 2.473 . S
O426 C427 1.257 . S
C427 O425 1.273 . S
C427 O426 1.257 . S
O428 Eu408 2.326 . S
O428 C416 1.242 . S
O429 Tb407 2.324 . S
O429 C416 1.258 . S
O430 Eu408 2.500 1_556 S
O430 C413 1.273 . S
O431 Eu408 2.473 1_556 S
O431 C413 1.257 . S
H432 C418 0.929 . S
H433 C420 0.931 . S
H434 C422 0.929 . S
O435 Tb436 2.292 . S
O435 C438 1.255 . S
Tb436 O435 2.292 . S
Tb436 O452 2.326 . S
Tb436 O454 2.500 . S
Tb436 O455 2.473 . S
Tb436 O458 2.324 . S
Eu437 O441 2.292 . S
Eu437 C442 2.852 . S
Eu437 O453 2.324 . S
Eu437 O457 2.326 . S
Eu437 O459 2.500 . S
Eu437 O460 2.473 . S
C438 O435 1.255 . S
C438 O439 1.247 . S
O439 C438 1.247 . S
C440 O452 1.242 . S
C440 O453 1.258 . S
O441 Eu437 2.292 . S
O441 C443 1.255 . S
C442 Eu437 2.852 . S
C442 C446 1.503 . S
C442 O459 1.273 . S
C442 O460 1.257 . S
C443 O441 1.255 . S
C443 O444 1.247 . S
O444 C443 1.247 . S
C445 O457 1.242 . S
C445 O458 1.258 . S
C446 C442 1.503 . S
C446 C447 1.379 . S
C446 C451 1.392 . S
C447 C446 1.379 . S
C447 C448 1.404 . S
C447 H461 0.929 . S
C448 C447 1.404 . S
C448 C449 1.389 . S
C449 C448 1.389 . S
C449 C450 1.399 . S
C449 H462 0.931 . S
C450 C449 1.399 . S
C450 C451 1.390 . S
C451 C446 1.392 . S
C451 C450 1.390 . S
C451 H463 0.929 . S
O452 Tb436 2.326 . S
O452 C440 1.242 . S
O453 Eu437 2.324 . S
O453 C440 1.258 . S
O454 Tb436 2.500 . S
O454 C456 1.273 . S
O455 Tb436 2.473 . S
O455 C456 1.257 . S
C456 O454 1.273 . S
C456 O455 1.257 . S
O457 Eu437 2.326 . S
O457 C445 1.242 . S
O458 Tb436 2.324 . S
O458 C445 1.258 . S
O459 Eu437 2.500 . S
O459 C442 1.273 . S
O460 Eu437 2.473 . S
O460 C442 1.257 . S
H461 C447 0.929 . S
H462 C449 0.931 . S
H463 C451 0.929 . S
C464 C465 1.387 . S
C464 H468 0.950 . S
C464 C473 1.390 1_655 S
C465 C464 1.387 . S
C465 C467 1.387 1_554 S
H466 C473 0.950 . S
C467 C465 1.387 1_556 S
C467 C469 1.390 1_655 S
C467 H471 0.950 . S
H468 C464 0.950 . S
C469 C467 1.390 1_455 S
C469 C470 1.387 1_556 S
C469 H472 0.950 . S
C470 C469 1.387 1_554 S
C470 C473 1.387 . S
H471 C467 0.950 . S
H472 C469 0.950 . S
C473 C464 1.390 1_455 S
C473 H466 0.950 . S
C473 C470 1.387 . S
C474 C475 1.387 . S
C474 H478 0.950 . S
C474 C483 1.390 . S
C475 C474 1.387 . S
C475 C477 1.387 . S
H476 C483 0.950 . S
C477 C475 1.387 . S
C477 C479 1.390 . S
C477 H481 0.950 . S
H478 C474 0.950 . S
C479 C477 1.390 . S
C479 C480 1.387 . S
C479 H482 0.950 . S
C480 C479 1.387 . S
C480 C483 1.387 . S
H481 C477 0.950 . S
H482 C479 0.950 . S
C483 C474 1.390 . S
C483 H476 0.950 . S
C483 C480 1.387 . S
C484 C485 1.387 1_554 S
C484 H488 0.950 . S
C484 C493 1.390 1_655 S
C485 C484 1.387 1_556 S
C485 C487 1.387 . S
H486 C493 0.950 . S
C487 C485 1.387 . S
C487 C489 1.390 1_655 S
C487 H491 0.950 . S
H488 C484 0.950 . S
C489 C487 1.390 1_455 S
C489 C490 1.387 . S
C489 H492 0.950 . S
C490 C489 1.387 . S
C490 C493 1.387 1_556 S
H491 C487 0.950 . S
H492 C489 0.950 . S
C493 C484 1.390 1_455 S
C493 H486 0.950 . S
C493 C490 1.387 1_554 S
C494 C495 1.387 . S
C494 H498 0.950 . S
C494 C503 1.390 . S
C495 C494 1.387 . S
C495 C497 1.387 . S
H496 C503 0.950 . S
C497 C495 1.387 . S
C497 C499 1.390 . S
C497 H501 0.950 . S
H498 C494 0.950 . S
C499 C497 1.390 . S
C499 C500 1.387 . S
C499 H502 0.950 . S
C500 C499 1.387 . S
C500 C503 1.387 . S
H501 C497 0.950 . S
H502 C499 0.950 . S
C503 C494 1.390 . S
C503 H496 0.950 . S
C503 C500 1.387 . S
C504 C505 1.387 . S
C504 H508 0.950 . S
C504 C513 1.390 . S
C505 C504 1.387 . S
C505 C507 1.387 1_554 S
H506 C513 0.950 . S
C507 C505 1.387 1_556 S
C507 C509 1.390 . S
C507 H511 0.950 . S
H508 C504 0.950 . S
C509 C507 1.390 . S
C509 C510 1.387 1_556 S
C509 H512 0.950 . S
C510 C509 1.387 1_554 S
C510 C513 1.387 . S
H511 C507 0.950 . S
H512 C509 0.950 . S
C513 C504 1.390 . S
C513 H506 0.950 . S
C513 C510 1.387 . S
C514 C515 1.387 . S
C514 H518 0.950 . S
C514 C523 1.390 1_455 S
C515 C514 1.387 . S
C515 C517 1.387 . S
H516 C523 0.950 . S
C517 C515 1.387 . S
C517 C519 1.390 1_455 S
C517 H521 0.950 . S
H518 C514 0.950 . S
C519 C517 1.390 1_655 S
C519 C520 1.387 . S
C519 H522 0.950 . S
C520 C519 1.387 . S
C520 C523 1.387 . S
H521 C517 0.950 . S
H522 C519 0.950 . S
C523 C514 1.390 1_655 S
C523 H516 0.950 . S
C523 C520 1.387 . S
C524 C525 1.387 . S
C524 H528 0.950 . S
C524 C533 1.390 . S
C525 C524 1.387 . S
C525 C527 1.387 . S
H526 C533 0.950 . S
C527 C525 1.387 . S
C527 C529 1.390 . S
C527 H531 0.950 . S
H528 C524 0.950 . S
C529 C527 1.390 . S
C529 C530 1.387 . S
C529 H532 0.950 . S
C530 C529 1.387 . S
C530 C533 1.387 . S
H531 C527 0.950 . S
H532 C529 0.950 . S
C533 C524 1.390 . S
C533 H526 0.950 . S
C533 C530 1.387 . S
C534 C535 1.387 . S
C534 H538 0.950 . S
C534 C543 1.390 1_455 S
C535 C534 1.387 . S
C535 C537 1.387 . S
H536 C543 0.950 . S
C537 C535 1.387 . S
C537 C539 1.390 1_455 S
C537 H541 0.950 . S
H538 C534 0.950 . S
C539 C537 1.390 1_655 S
C539 C540 1.387 . S
C539 H542 0.950 . S
C540 C539 1.387 . S
C540 C543 1.387 . S
H541 C537 0.950 . S
H542 C539 0.950 . S
C543 C534 1.390 1_655 S
C543 H536 0.950 . S
C543 C540 1.387 . S
C544 C545 1.387 . S
C544 H548 0.950 . S
C544 C553 1.390 . S
C545 C544 1.387 . S
C545 C547 1.387 . S
H546 C553 0.950 . S
C547 C545 1.387 . S
C547 C549 1.390 . S
C547 H551 0.950 . S
H548 C544 0.950 . S
C549 C547 1.390 . S
C549 C550 1.387 . S
C549 H552 0.950 . S
C550 C549 1.387 . S
C550 C553 1.387 . S
H551 C547 0.950 . S
H552 C549 0.950 . S
C553 C544 1.390 . S
C553 H546 0.950 . S
C553 C550 1.387 . S
C554 C555 1.387 . S
C554 H558 0.950 . S
C554 C563 1.390 . S
C555 C554 1.387 . S
C555 C557 1.387 . S
H556 C563 0.950 . S
C557 C555 1.387 . S
C557 C559 1.390 . S
C557 H561 0.950 . S
H558 C554 0.950 . S
C559 C557 1.390 . S
C559 C560 1.387 . S
C559 H562 0.950 . S
C560 C559 1.387 . S
C560 C563 1.387 . S
H561 C557 0.950 . S
H562 C559 0.950 . S
C563 C554 1.390 . S
C563 H556 0.950 . S
C563 C560 1.387 . S
C564 C565 1.387 . S
C564 H568 0.950 . S
C564 C573 1.390 . S
C565 C564 1.387 . S
C565 C567 1.387 . S
H566 C573 0.950 . S
C567 C565 1.387 . S
C567 C569 1.390 . S
C567 H571 0.950 . S
H568 C564 0.950 . S
C569 C567 1.390 . S
C569 C570 1.387 . S
C569 H572 0.950 . S
C570 C569 1.387 . S
C570 C573 1.387 . S
H571 C567 0.950 . S
H572 C569 0.950 . S
C573 C564 1.390 . S
C573 H566 0.950 . S
C573 C570 1.387 . S
C574 C575 1.387 . S
C574 H578 0.950 . S
C574 C583 1.390 . S
C575 C574 1.387 . S
C575 C577 1.387 . S
H576 C583 0.950 . S
C577 C575 1.387 . S
C577 C579 1.390 . S
C577 H581 0.950 . S
H578 C574 0.950 . S
C579 C577 1.390 . S
C579 C580 1.387 . S
C579 H582 0.950 . S
C580 C579 1.387 . S
C580 C583 1.387 . S
H581 C577 0.950 . S
H582 C579 0.950 . S
C583 C574 1.390 . S
C583 H576 0.950 . S
C583 C580 1.387 . S
C584 C585 1.387 . S
C584 H588 0.950 . S
C584 C593 1.390 . S
C585 C584 1.387 . S
C585 C587 1.387 . S
H586 C593 0.950 . S
C587 C585 1.387 . S
C587 C589 1.390 . S
C587 H591 0.950 . S
H588 C584 0.950 . S
C589 C587 1.390 . S
C589 C590 1.387 . S
C589 H592 0.950 . S
C590 C589 1.387 . S
C590 C593 1.387 . S
H591 C587 0.950 . S
H592 C589 0.950 . S
C593 C584 1.390 . S
C593 H586 0.950 . S
C593 C590 1.387 . S
C594 C595 1.387 . S
C594 H598 0.950 . S
C594 C603 1.390 . S
C595 C594 1.387 . S
C595 C597 1.387 . S
H596 C603 0.950 . S
C597 C595 1.387 . S
C597 C599 1.390 . S
C597 H601 0.950 . S
H598 C594 0.950 . S
C599 C597 1.390 . S
C599 C600 1.387 . S
C599 H602 0.950 . S
C600 C599 1.387 . S
C600 C603 1.387 . S
H601 C597 0.950 . S
H602 C599 0.950 . S
C603 C594 1.390 . S
C603 H596 0.950 . S
C603 C600 1.387 . S
C604 C605 1.387 . S
C604 H608 0.950 . S
C604 C613 1.390 . S
C605 C604 1.387 . S
C605 C607 1.387 . S
H606 C613 0.950 . S
C607 C605 1.387 . S
C607 C609 1.390 . S
C607 H611 0.950 . S
H608 C604 0.950 . S
C609 C607 1.390 . S
C609 C610 1.387 . S
C609 H612 0.950 . S
C610 C609 1.387 . S
C610 C613 1.387 . S
H611 C607 0.950 . S
H612 C609 0.950 . S
C613 C604 1.390 . S
C613 H606 0.950 . S
C613 C610 1.387 . S
C614 C615 1.387 . S
C614 H618 0.950 . S
C614 C623 1.390 . S
C615 C614 1.387 . S
C615 C617 1.387 . S
H616 C623 0.950 . S
C617 C615 1.387 . S
C617 C619 1.390 . S
C617 H621 0.950 . S
H618 C614 0.950 . S
C619 C617 1.390 . S
C619 C620 1.387 . S
C619 H622 0.950 . S
C620 C619 1.387 . S
C620 C623 1.387 . S
H621 C617 0.950 . S
H622 C619 0.950 . S
C623 C614 1.390 . S
C623 H616 0.950 . S
C623 C620 1.387 . S
C624 C625 1.387 . S
C624 H628 0.950 . S
C624 C633 1.390 . S
C625 C624 1.387 . S
C625 C627 1.387 . S
H626 C633 0.950 . S
C627 C625 1.387 . S
C627 C629 1.390 . S
C627 H631 0.950 . S
H628 C624 0.950 . S
C629 C627 1.390 . S
C629 C630 1.387 . S
C629 H632 0.950 . S
C630 C629 1.387 . S
C630 C633 1.387 . S
H631 C627 0.950 . S
H632 C629 0.950 . S
C633 C624 1.390 . S
C633 H626 0.950 . S
C633 C630 1.387 . S
C634 C635 1.387 . S
C634 H638 0.950 . S
C634 C643 1.390 . S
C635 C634 1.387 . S
C635 C637 1.387 . S
H636 C643 0.950 . S
C637 C635 1.387 . S
C637 C639 1.390 . S
C637 H641 0.950 . S
H638 C634 0.950 . S
C639 C637 1.390 . S
C639 C640 1.387 . S
C639 H642 0.950 . S
C640 C639 1.387 . S
C640 C643 1.387 . S
H641 C637 0.950 . S
H642 C639 0.950 . S
C643 C634 1.390 . S
C643 H636 0.950 . S
C643 C640 1.387 . S
C644 C645 1.387 . S
C644 H648 0.950 . S
C644 C653 1.390 . S
C645 C644 1.387 . S
C645 C647 1.387 . S
H646 C653 0.950 . S
C647 C645 1.387 . S
C647 C649 1.390 . S
C647 H651 0.950 . S
H648 C644 0.950 . S
C649 C647 1.390 . S
C649 C650 1.387 . S
C649 H652 0.950 . S
C650 C649 1.387 . S
C650 C653 1.387 . S
H651 C647 0.950 . S
H652 C649 0.950 . S
C653 C644 1.390 . S
C653 H646 0.950 . S
C653 C650 1.387 . S
C654 C655 1.387 . S
C654 H658 0.950 . S
C654 C663 1.390 . S
C655 C654 1.387 . S
C655 C657 1.387 . S
H656 C663 0.950 . S
C657 C655 1.387 . S
C657 C659 1.390 . S
C657 H661 0.950 . S
H658 C654 0.950 . S
C659 C657 1.390 . S
C659 C660 1.387 . S
C659 H662 0.950 . S
C660 C659 1.387 . S
C660 C663 1.387 . S
H661 C657 0.950 . S
H662 C659 0.950 . S
C663 C654 1.390 . S
C663 H656 0.950 . S
C663 C660 1.387 . S
C664 C665 1.387 . S
C664 H668 0.950 . S
C664 C673 1.390 . S
C665 C664 1.387 . S
C665 C667 1.387 . S
H666 C673 0.950 . S
C667 C665 1.387 . S
C667 C669 1.390 . S
C667 H671 0.950 . S
H668 C664 0.950 . S
C669 C667 1.390 . S
C669 C670 1.387 . S
C669 H672 0.950 . S
C670 C669 1.387 . S
C670 C673 1.387 . S
H671 C667 0.950 . S
H672 C669 0.950 . S
C673 C664 1.390 . S
C673 H666 0.950 . S
C673 C670 1.387 . S
C674 C675 1.387 . S
C674 H678 0.950 . S
C674 C683 1.390 . S
C675 C674 1.387 . S
C675 C677 1.387 . S
H676 C683 0.950 . S
C677 C675 1.387 . S
C677 C679 1.390 . S
C677 H681 0.950 . S
H678 C674 0.950 . S
C679 C677 1.390 . S
C679 C680 1.387 . S
C679 H682 0.950 . S
C680 C679 1.387 . S
C680 C683 1.387 . S
H681 C677 0.950 . S
H682 C679 0.950 . S
C683 C674 1.390 . S
C683 H676 0.950 . S
C683 C680 1.387 . S
C684 C685 1.387 . S
C684 H688 0.950 . S
C684 C693 1.390 . S
C685 C684 1.387 . S
C685 C687 1.387 . S
H686 C693 0.950 . S
C687 C685 1.387 . S
C687 C689 1.390 . S
C687 H691 0.950 . S
H688 C684 0.950 . S
C689 C687 1.390 . S
C689 C690 1.387 . S
C689 H692 0.950 . S
C690 C689 1.387 . S
C690 C693 1.387 . S
H691 C687 0.950 . S
H692 C689 0.950 . S
C693 C684 1.390 . S
C693 H686 0.950 . S
C693 C690 1.387 . S
C694 C695 1.387 . S
C694 H698 0.950 . S
C694 C703 1.390 . S
C695 C694 1.387 . S
C695 C697 1.387 . S
H696 C703 0.950 . S
C697 C695 1.387 . S
C697 C699 1.390 . S
C697 H701 0.950 . S
H698 C694 0.950 . S
C699 C697 1.390 . S
C699 C700 1.387 . S
C699 H702 0.950 . S
C700 C699 1.387 . S
C700 C703 1.387 . S
H701 C697 0.950 . S
H702 C699 0.950 . S
C703 C694 1.390 . S
C703 H696 0.950 . S
C703 C700 1.387 . S
C704 C705 1.387 . S
C704 H708 0.950 . S
C704 C713 1.390 1_564 S
C705 C704 1.387 . S
C705 C707 1.387 . S
H706 C713 0.950 . S
C707 C705 1.387 . S
C707 C709 1.390 1_564 S
C707 H711 0.950 . S
H708 C704 0.950 . S
C709 C707 1.390 1_546 S
C709 C710 1.387 . S
C709 H712 0.950 . S
C710 C709 1.387 . S
C710 C713 1.387 . S
H711 C707 0.950 . S
H712 C709 0.950 . S
C713 C704 1.390 1_546 S
C713 H706 0.950 . S
C713 C710 1.387 . S
C714 C715 1.387 . S
C714 H718 0.950 . S
C714 C723 1.390 1_565 S
C715 C714 1.387 . S
C715 C717 1.387 . S
H716 C723 0.950 . S
C717 C715 1.387 . S
C717 C719 1.390 1_565 S
C717 H721 0.950 . S
H718 C714 0.950 . S
C719 C717 1.390 1_545 S
C719 C720 1.387 . S
C719 H722 0.950 . S
C720 C719 1.387 . S
C720 C723 1.387 . S
H721 C717 0.950 . S
H722 C719 0.950 . S
C723 C714 1.390 1_545 S
C723 H716 0.950 . S
C723 C720 1.387 . S
C724 C725 1.387 . S
C724 H728 0.950 . S
C724 C733 1.390 1_564 S
C725 C724 1.387 . S
C725 C727 1.387 . S
H726 C733 0.950 . S
C727 C725 1.387 . S
C727 C729 1.390 1_564 S
C727 H731 0.950 . S
H728 C724 0.950 . S
C729 C727 1.390 1_546 S
C729 C730 1.387 . S
C729 H732 0.950 . S
C730 C729 1.387 . S
C730 C733 1.387 . S
H731 C727 0.950 . S
H732 C729 0.950 . S
C733 C724 1.390 1_546 S
C733 H726 0.950 . S
C733 C730 1.387 . S
C734 C735 1.387 . S
C734 H738 0.950 . S
C734 C743 1.390 1_565 S
C735 C734 1.387 . S
C735 C737 1.387 . S
H736 C743 0.950 . S
C737 C735 1.387 . S
C737 C739 1.390 1_565 S
C737 H741 0.950 . S
H738 C734 0.950 . S
C739 C737 1.390 1_545 S
C739 C740 1.387 . S
C739 H742 0.950 . S
C740 C739 1.387 . S
C740 C743 1.387 . S
H741 C737 0.950 . S
H742 C739 0.950 . S
C743 C734 1.390 1_545 S
C743 H736 0.950 . S
C743 C740 1.387 . S
C744 C745 1.387 . S
C744 H748 0.950 . S
C744 C753 1.390 1_554 S
C745 C744 1.387 . S
C745 C747 1.387 . S
H746 C753 0.950 . S
C747 C745 1.387 . S
C747 C749 1.390 1_554 S
C747 H751 0.950 . S
H748 C744 0.950 . S
C749 C747 1.390 1_556 S
C749 C750 1.387 . S
C749 H752 0.950 . S
C750 C749 1.387 . S
C750 C753 1.387 . S
H751 C747 0.950 . S
H752 C749 0.950 . S
C753 C744 1.390 1_556 S
C753 H746 0.950 . S
C753 C750 1.387 . S
C754 C755 1.387 . S
C754 H758 0.950 . S
C754 C763 1.390 . S
C755 C754 1.387 . S
C755 C757 1.387 . S
H756 C763 0.950 . S
C757 C755 1.387 . S
C757 C759 1.390 . S
C757 H761 0.950 . S
H758 C754 0.950 . S
C759 C757 1.390 . S
C759 C760 1.387 . S
C759 H762 0.950 . S
C760 C759 1.387 . S
C760 C763 1.387 . S
H761 C757 0.950 . S
H762 C759 0.950 . S
C763 C754 1.390 . S
C763 H756 0.950 . S
C763 C760 1.387 . S
C764 C765 1.387 . S
C764 H768 0.950 . S
C764 C773 1.390 1_556 S
C765 C764 1.387 . S
C765 C767 1.387 . S
H766 C773 0.950 . S
C767 C765 1.387 . S
C767 C769 1.390 1_556 S
C767 H771 0.950 . S
H768 C764 0.950 . S
C769 C767 1.390 1_554 S
C769 C770 1.387 . S
C769 H772 0.950 . S
C770 C769 1.387 . S
C770 C773 1.387 . S
H771 C767 0.950 . S
H772 C769 0.950 . S
C773 C764 1.390 1_554 S
C773 H766 0.950 . S
C773 C770 1.387 . S
C774 C775 1.387 . S
C774 H778 0.950 . S
C774 C783 1.390 . S
C775 C774 1.387 . S
C775 C777 1.387 . S
H776 C783 0.950 . S
C777 C775 1.387 . S
C777 C779 1.390 . S
C777 H781 0.950 . S
H778 C774 0.950 . S
C779 C777 1.390 . S
C779 C780 1.387 . S
C779 H782 0.950 . S
C780 C779 1.387 . S
C780 C783 1.387 . S
H781 C777 0.950 . S
H782 C779 0.950 . S
C783 C774 1.390 . S
C783 H776 0.950 . S
C783 C780 1.387 . S
C784 C785 1.387 . S
C784 H788 0.950 . S
C784 C793 1.390 . S
C785 C784 1.387 . S
C785 C787 1.387 . S
H786 C793 0.950 . S
C787 C785 1.387 . S
C787 C789 1.390 . S
C787 H791 0.950 . S
H788 C784 0.950 . S
C789 C787 1.390 . S
C789 C790 1.387 . S
C789 H792 0.950 . S
C790 C789 1.387 . S
C790 C793 1.387 . S
H791 C787 0.950 . S
H792 C789 0.950 . S
C793 C784 1.390 . S
C793 H786 0.950 . S
C793 C790 1.387 . S
C794 C795 1.387 . S
C794 H798 0.950 . S
C794 C803 1.390 . S
C795 C794 1.387 . S
C795 C797 1.387 . S
H796 C803 0.950 . S
C797 C795 1.387 . S
C797 C799 1.390 . S
C797 H801 0.950 . S
H798 C794 0.950 . S
C799 C797 1.390 . S
C799 C800 1.387 . S
C799 H802 0.950 . S
C800 C799 1.387 . S
C800 C803 1.387 . S
H801 C797 0.950 . S
H802 C799 0.950 . S
C803 C794 1.390 . S
C803 H796 0.950 . S
C803 C800 1.387 . S
C804 C805 1.387 . S
C804 H808 0.950 . S
C804 C813 1.390 . S
C805 C804 1.387 . S
C805 C807 1.387 . S
H806 C813 0.950 . S
C807 C805 1.387 . S
C807 C809 1.390 . S
C807 H811 0.950 . S
H808 C804 0.950 . S
C809 C807 1.390 . S
C809 C810 1.387 . S
C809 H812 0.950 . S
C810 C809 1.387 . S
C810 C813 1.387 . S
H811 C807 0.950 . S
H812 C809 0.950 . S
C813 C804 1.390 . S
C813 H806 0.950 . S
C813 C810 1.387 . S
C814 C815 1.387 . S
C814 H818 0.950 . S
C814 C823 1.390 . S
C815 C814 1.387 . S
C815 C817 1.387 . S
H816 C823 0.950 . S
C817 C815 1.387 . S
C817 C819 1.390 . S
C817 H821 0.950 . S
H818 C814 0.950 . S
C819 C817 1.390 . S
C819 C820 1.387 . S
C819 H822 0.950 . S
C820 C819 1.387 . S
C820 C823 1.387 . S
H821 C817 0.950 . S
H822 C819 0.950 . S
C823 C814 1.390 . S
C823 H816 0.950 . S
C823 C820 1.387 . S
C824 C825 1.387 . S
C824 H828 0.950 . S
C824 C833 1.390 . S
C825 C824 1.387 . S
C825 C827 1.387 . S
H826 C833 0.950 . S
C827 C825 1.387 . S
C827 C829 1.390 . S
C827 H831 0.950 . S
H828 C824 0.950 . S
C829 C827 1.390 . S
C829 C830 1.387 . S
C829 H832 0.950 . S
C830 C829 1.387 . S
C830 C833 1.387 . S
H831 C827 0.950 . S
H832 C829 0.950 . S
C833 C824 1.390 . S
C833 H826 0.950 . S
C833 C830 1.387 . S
C834 C835 1.387 . S
C834 H838 0.950 . S
C834 C843 1.390 . S
C835 C834 1.387 . S
C835 C837 1.387 . S
H836 C843 0.950 . S
C837 C835 1.387 . S
C837 C839 1.390 . S
C837 H841 0.950 . S
H838 C834 0.950 . S
C839 C837 1.390 . S
C839 C840 1.387 . S
C839 H842 0.950 . S
C840 C839 1.387 . S
C840 C843 1.387 . S
H841 C837 0.950 . S
H842 C839 0.950 . S
C843 C834 1.390 . S
C843 H836 0.950 . S
C843 C840 1.387 . S
C844 C845 1.387 . S
C844 H848 0.950 . S
C844 C853 1.390 . S
C845 C844 1.387 . S
C845 C847 1.387 . S
H846 C853 0.950 . S
C847 C845 1.387 . S
C847 C849 1.390 . S
C847 H851 0.950 . S
H848 C844 0.950 . S
C849 C847 1.390 . S
C849 C850 1.387 . S
C849 H852 0.950 . S
C850 C849 1.387 . S
C850 C853 1.387 . S
H851 C847 0.950 . S
H852 C849 0.950 . S
C853 C844 1.390 . S
C853 H846 0.950 . S
C853 C850 1.387 . S
C854 C855 1.387 . S
C854 H858 0.950 . S
C854 C863 1.390 . S
C855 C854 1.387 . S
C855 C857 1.387 . S
H856 C863 0.950 . S
C857 C855 1.387 . S
C857 C859 1.390 . S
C857 H861 0.950 . S
H858 C854 0.950 . S
C859 C857 1.390 . S
C859 C860 1.387 . S
C859 H862 0.950 . S
C860 C859 1.387 . S
C860 C863 1.387 . S
H861 C857 0.950 . S
H862 C859 0.950 . S
C863 C854 1.390 . S
C863 H856 0.950 . S
C863 C860 1.387 . S
C864 C865 1.387 . S
C864 H868 0.950 . S
C864 C873 1.390 . S
C865 C864 1.387 . S
C865 C867 1.387 . S
H866 C873 0.950 . S
C867 C865 1.387 . S
C867 C869 1.390 . S
C867 H871 0.950 . S
H868 C864 0.950 . S
C869 C867 1.390 . S
C869 C870 1.387 . S
C869 H872 0.950 . S
C870 C869 1.387 . S
C870 C873 1.387 . S
H871 C867 0.950 . S
H872 C869 0.950 . S
C873 C864 1.390 . S
C873 H866 0.950 . S
C873 C870 1.387 . S
C874 C875 1.387 . S
C874 H878 0.950 . S
C874 C883 1.390 1_554 S
C875 C874 1.387 . S
C875 C877 1.387 . S
H876 C883 0.950 . S
C877 C875 1.387 . S
C877 C879 1.390 1_554 S
C877 H881 0.950 . S
H878 C874 0.950 . S
C879 C877 1.390 1_556 S
C879 C880 1.387 . S
C879 H882 0.950 . S
C880 C879 1.387 . S
C880 C883 1.387 . S
H881 C877 0.950 . S
H882 C879 0.950 . S
C883 C874 1.390 1_556 S
C883 H876 0.950 . S
C883 C880 1.387 . S
C884 C885 1.387 . S
C884 H888 0.950 . S
C884 C893 1.390 . S
C885 C884 1.387 . S
C885 C887 1.387 . S
H886 C893 0.950 . S
C887 C885 1.387 . S
C887 C889 1.390 . S
C887 H891 0.950 . S
H888 C884 0.950 . S
C889 C887 1.390 . S
C889 C890 1.387 . S
C889 H892 0.950 . S
C890 C889 1.387 . S
C890 C893 1.387 . S
H891 C887 0.950 . S
H892 C889 0.950 . S
C893 C884 1.390 . S
C893 H886 0.950 . S
C893 C890 1.387 . S
C894 C895 1.387 . S
C894 H898 0.950 . S
C894 C903 1.390 1_556 S
C895 C894 1.387 . S
C895 C897 1.387 . S
H896 C903 0.950 . S
C897 C895 1.387 . S
C897 C899 1.390 1_556 S
C897 H901 0.950 . S
H898 C894 0.950 . S
C899 C897 1.390 1_554 S
C899 C900 1.387 . S
C899 H902 0.950 . S
C900 C899 1.387 . S
C900 C903 1.387 . S
H901 C897 0.950 . S
H902 C899 0.950 . S
C903 C894 1.390 1_554 S
C903 H896 0.950 . S
C903 C900 1.387 . S
C904 C905 1.387 . S
C904 H908 0.950 . S
C904 C913 1.390 . S
C905 C904 1.387 . S
C905 C907 1.387 . S
H906 C913 0.950 . S
C907 C905 1.387 . S
C907 C909 1.390 . S
C907 H911 0.950 . S
H908 C904 0.950 . S
C909 C907 1.390 . S
C909 C910 1.387 . S
C909 H912 0.950 . S
C910 C909 1.387 . S
C910 C913 1.387 . S
H911 C907 0.950 . S
H912 C909 0.950 . S
C913 C904 1.390 . S
C913 H906 0.950 . S
C913 C910 1.387 . S
C914 C915 1.387 . S
C914 H918 0.950 . S
C914 C923 1.390 1_556 S
C915 C914 1.387 . S
C915 C917 1.387 . S
H916 C923 0.950 . S
C917 C915 1.387 . S
C917 C919 1.390 1_556 S
C917 H921 0.950 . S
H918 C914 0.950 . S
C919 C917 1.390 1_554 S
C919 C920 1.387 . S
C919 H922 0.950 . S
C920 C919 1.387 . S
C920 C923 1.387 . S
H921 C917 0.950 . S
H922 C919 0.950 . S
C923 C914 1.390 1_554 S
C923 H916 0.950 . S
C923 C920 1.387 . S
C924 C925 1.387 . S
C924 H928 0.950 . S
C924 C933 1.390 . S
C925 C924 1.387 . S
C925 C927 1.387 . S
H926 C933 0.950 . S
C927 C925 1.387 . S
C927 C929 1.390 . S
C927 H931 0.950 . S
H928 C924 0.950 . S
C929 C927 1.390 . S
C929 C930 1.387 . S
C929 H932 0.950 . S
C930 C929 1.387 . S
C930 C933 1.387 . S
H931 C927 0.950 . S
H932 C929 0.950 . S
C933 C924 1.390 . S
C933 H926 0.950 . S
C933 C930 1.387 . S
C934 C935 1.387 . S
C934 H938 0.950 . S
C934 C943 1.390 1_556 S
C935 C934 1.387 . S
C935 C937 1.387 . S
H936 C943 0.950 . S
C937 C935 1.387 . S
C937 C939 1.390 1_556 S
C937 H941 0.950 . S
H938 C934 0.950 . S
C939 C937 1.390 1_554 S
C939 C940 1.387 . S
C939 H942 0.950 . S
C940 C939 1.387 . S
C940 C943 1.387 . S
H941 C937 0.950 . S
H942 C939 0.950 . S
C943 C934 1.390 1_554 S
C943 H936 0.950 . S
C943 C940 1.387 . S
C944 C945 1.387 . S
C944 H948 0.950 . S
C944 C953 1.390 . S
C945 C944 1.387 . S
C945 C947 1.387 . S
H946 C953 0.950 . S
C947 C945 1.387 . S
C947 C949 1.390 . S
C947 H951 0.950 . S
H948 C944 0.950 . S
C949 C947 1.390 . S
C949 C950 1.387 . S
C949 H952 0.950 . S
C950 C949 1.387 . S
C950 C953 1.387 . S
H951 C947 0.950 . S
H952 C949 0.950 . S
C953 C944 1.390 . S
C953 H946 0.950 . S
C953 C950 1.387 . S
C954 C955 1.387 . S
C954 H958 0.950 . S
C954 C963 1.390 1_556 S
C955 C954 1.387 . S
C955 C957 1.387 . S
H956 C963 0.950 . S
C957 C955 1.387 . S
C957 C959 1.390 1_556 S
C957 H961 0.950 . S
H958 C954 0.950 . S
C959 C957 1.390 1_554 S
C959 C960 1.387 . S
C959 H962 0.950 . S
C960 C959 1.387 . S
C960 C963 1.387 . S
H961 C957 0.950 . S
H962 C959 0.950 . S
C963 C954 1.390 1_554 S
C963 H956 0.950 . S
C963 C960 1.387 . S
C964 C965 1.387 . S
C964 H968 0.950 . S
C964 C973 1.390 . S
C965 C964 1.387 . S
C965 C967 1.387 . S
H966 C973 0.950 . S
C967 C965 1.387 . S
C967 C969 1.390 . S
C967 H971 0.950 . S
H968 C964 0.950 . S
C969 C967 1.390 . S
C969 C970 1.387 . S
C969 H972 0.950 . S
C970 C969 1.387 . S
C970 C973 1.387 . S
H971 C967 0.950 . S
H972 C969 0.950 . S
C973 C964 1.390 . S
C973 H966 0.950 . S
C973 C970 1.387 . S
C974 C975 1.387 . S
C974 H978 0.950 . S
C974 C983 1.390 1_554 S
C975 C974 1.387 . S
C975 C977 1.387 . S
H976 C983 0.950 . S
C977 C975 1.387 . S
C977 C979 1.390 1_554 S
C977 H981 0.950 . S
H978 C974 0.950 . S
C979 C977 1.390 1_556 S
C979 C980 1.387 . S
C979 H982 0.950 . S
C980 C979 1.387 . S
C980 C983 1.387 . S
H981 C977 0.950 . S
H982 C979 0.950 . S
C983 C974 1.390 1_556 S
C983 H976 0.950 . S
C983 C980 1.387 . S
C984 C985 1.387 . S
C984 H988 0.950 . S
C984 C993 1.390 . S
C985 C984 1.387 . S
C985 C987 1.387 . S
H986 C993 0.950 . S
C987 C985 1.387 . S
C987 C989 1.390 . S
C987 H991 0.950 . S
H988 C984 0.950 . S
C989 C987 1.390 . S
C989 C990 1.387 . S
C989 H992 0.950 . S
C990 C989 1.387 . S
C990 C993 1.387 . S
H991 C987 0.950 . S
H992 C989 0.950 . S
C993 C984 1.390 . S
C993 H986 0.950 . S
C993 C990 1.387 . S
C994 C995 1.387 . S
C994 H998 0.950 . S
C994 C1003 1.390 1_554 S
C995 C994 1.387 . S
C995 C997 1.387 . S
H996 C1003 0.950 . S
C997 C995 1.387 . S
C997 C999 1.390 1_554 S
C997 H1001 0.950 . S
H998 C994 0.950 . S
C999 C997 1.390 1_556 S
C999 C1000 1.387 . S
C999 H1002 0.950 . S
C1000 C999 1.387 . S
C1000 C1003 1.387 . S
H1001 C997 0.950 . S
H1002 C999 0.950 . S
C1003 C994 1.390 1_556 S
C1003 H996 0.950 . S
C1003 C1000 1.387 . S
C1004 C1005 1.387 . S
C1004 H1008 0.950 . S
C1004 C1013 1.390 . S
C1005 C1004 1.387 . S
C1005 C1007 1.387 . S
H1006 C1013 0.950 . S
C1007 C1005 1.387 . S
C1007 C1009 1.390 . S
C1007 H1011 0.950 . S
H1008 C1004 0.950 . S
C1009 C1007 1.390 . S
C1009 C1010 1.387 . S
C1009 H1012 0.950 . S
C1010 C1009 1.387 . S
C1010 C1013 1.387 . S
H1011 C1007 0.950 . S
H1012 C1009 0.950 . S
C1013 C1004 1.390 . S
C1013 H1006 0.950 . S
C1013 C1010 1.387 . S
C1014 C1015 1.387 . S
C1014 H1018 0.950 . S
C1014 C1023 1.390 1_554 S
C1015 C1014 1.387 . S
C1015 C1017 1.387 . S
H1016 C1023 0.950 . S
C1017 C1015 1.387 . S
C1017 C1019 1.390 1_554 S
C1017 H1021 0.950 . S
H1018 C1014 0.950 . S
C1019 C1017 1.390 1_556 S
C1019 C1020 1.387 . S
C1019 H1022 0.950 . S
C1020 C1019 1.387 . S
C1020 C1023 1.387 . S
H1021 C1017 0.950 . S
H1022 C1019 0.950 . S
C1023 C1014 1.390 1_556 S
C1023 H1016 0.950 . S
C1023 C1020 1.387 . S
C465 C184 1.603 . S
C470 C10 1.606 . S
C475 C39 1.603 . S
C480 C213 1.606 . S
C485 C126 1.606 . S
C490 C68 1.603 . S
C495 C155 1.606 . S
C500 C97 1.603 . S
C505 C242 1.606 . S
C510 C416 1.603 . S
C515 C445 1.603 . S
C520 C271 1.606 . S
C525 C358 1.606 . S
C530 C300 1.603 . S
C535 C387 1.606 . S
C540 C329 1.603 . S
C545 C13 1.282 . S
C550 C438 1.233 . S
C555 C42 1.282 . S
C560 C409 1.233 . S
C565 C380 1.233 . S
C570 C71 1.282 . S
C575 C351 1.230 . S
C580 C100 1.281 . S
C585 C322 1.233 . S
C590 C129 1.282 . S
C595 C293 1.231 . S
C600 C158 1.283 . S
C605 C264 1.231 . S
C610 C187 1.280 . S
C615 C235 1.230 . S
C620 C216 1.283 . S
C625 C206 1.233 . S
C630 C245 1.282 . S
C635 C274 1.283 . S
C640 C177 1.232 . S
C645 C303 1.280 . S
C650 C148 1.233 . S
C655 C119 1.229 . S
C660 C332 1.282 . S
C665 C361 1.281 . S
C670 C90 1.230 . S
C675 C61 1.233 . S
C680 C390 1.280 . S
C685 C419 1.280 . S
C690 C32 1.233 . S
C695 C448 1.283 . S
C700 C3 1.231 . S
C705 C66 1.369 1_554 S
C710 C8 1.369 1_556 S
C715 C37 1.365 . S
C720 C95 1.365 . S
C725 C124 1.364 1_554 S
C730 C182 1.364 1_556 S
C735 C211 1.365 . S
C740 C153 1.365 . S
C745 C298 1.364 1_554 S
C750 C240 1.364 1_556 S
C755 C269 1.369 . S
C760 C327 1.369 . S
C765 C414 1.369 1_556 S
C770 C356 1.369 1_554 S
C775 C443 1.369 . S
C780 C385 1.369 . S
C785 C5 1.390 . S
C790 C92 1.387 . S
C795 C34 1.387 . S
C800 C63 1.390 . S
C805 C208 1.388 . S
C810 C121 1.388 . S
C815 C150 1.387 . S
C820 C179 1.390 . S
C825 C324 1.388 . S
C830 C237 1.388 . S
C835 C266 1.388 . S
C840 C295 1.388 . S
C845 C440 1.387 . S
C850 C353 1.390 . S
C855 C411 1.388 . S
C860 C382 1.388 . S
C865 C15 2.035 . S
C870 C21 1.854 . S
C875 C44 2.034 . S
C880 C50 1.855 . S
C885 C79 1.854 . S
C890 C73 2.035 . S
C895 C102 2.034 . S
C900 C108 1.857 . S
C905 C131 2.035 . S
C910 C137 1.853 . S
C915 C160 2.034 . S
C920 C166 1.855 . S
C925 C189 2.034 . S
C930 C195 1.857 . S
C935 C224 1.855 . S
C940 C218 2.034 . S
C945 C247 2.034 . S
C950 C253 1.857 . S
C955 C282 1.853 . S
C960 C276 2.035 . S
C965 C311 1.853 . S
C970 C305 2.035 . S
C975 C340 1.857 . S
C980 C334 2.034 . S
C985 C363 2.035 . S
C990 C369 1.853 . S
C995 C398 1.857 . S
C1000 C392 2.034 . S
C1005 C421 2.034 . S
C1010 C427 1.855 . S
C1015 C450 2.035 . S
C1020 C456 1.854 . S
