# Generated by pormake.
# Topology utp, (3)-cn, num edge types: 1
# Building blocks:
#     Node 0, Type 0, BuildingBlock: WUSLED_clean_sbu_0, # of connection points: 3
#     Node 1, Type 0, BuildingBlock: WUSLED_clean_sbu_0, # of connection points: 3
#     Node 2, Type 0, BuildingBlock: WUSLED_clean_sbu_0, # of connection points: 3
#     Node 3, Type 0, BuildingBlock: WUSLED_clean_sbu_0, # of connection points: 3
#     Node 4, Type 0, BuildingBlock: WUSLED_clean_sbu_0, # of connection points: 3
#     Node 5, Type 0, BuildingBlock: WUSLED_clean_sbu_0, # of connection points: 3
#     Node 6, Type 0, BuildingBlock: WUSLED_clean_sbu_0, # of connection points: 3
#     Node 7, Type 0, BuildingBlock: WUSLED_clean_sbu_0, # of connection points: 3
#     Edge 8, Type (0, 0), BuildingBlock: XIVTED_clean_linker_0, # of connection points: 2
#     Edge 9, Type (0, 0), BuildingBlock: XIVTED_clean_linker_0, # of connection points: 2
#     Edge 10, Type (0, 0), BuildingBlock: XIVTED_clean_linker_0, # of connection points: 2
#     Edge 11, Type (0, 0), BuildingBlock: XIVTED_clean_linker_0, # of connection points: 2
#     Edge 12, Type (0, 0), BuildingBlock: XIVTED_clean_linker_0, # of connection points: 2
#     Edge 13, Type (0, 0), BuildingBlock: XIVTED_clean_linker_0, # of connection points: 2
#     Edge 14, Type (0, 0), BuildingBlock: XIVTED_clean_linker_0, # of connection points: 2
#     Edge 15, Type (0, 0), BuildingBlock: XIVTED_clean_linker_0, # of connection points: 2
#     Edge 16, Type (0, 0), BuildingBlock: XIVTED_clean_linker_0, # of connection points: 2
#     Edge 17, Type (0, 0), BuildingBlock: XIVTED_clean_linker_0, # of connection points: 2
#     Edge 18, Type (0, 0), BuildingBlock: XIVTED_clean_linker_0, # of connection points: 2
#     Edge 19, Type (0, 0), BuildingBlock: XIVTED_clean_linker_0, # of connection points: 2
# Relax obj value: 0.000
# Max RMSD: 0.003
# Mean RMSD: 0.003
data_MOF--net-utp--node1-WUSLED_clean_sbu_0--edge1-XIVTED_clean_linker_0
_symmetry_space_group_name_H-M    P1
_symmetry_Int_Tables_number       1
_symmetry_cell_setting            triclinic
loop_
_symmetry_equiv_pos_as_xyz
'x, y, z'
_cell_length_a     78.242421
_cell_length_b     68.805181
_cell_length_c     19.09745
_cell_angle_alpha  89.991952
_cell_angle_beta   90.055235
_cell_angle_gamma 90.031879
loop_
_atom_site_label
_atom_site_type_symbol
_atom_site_fract_x
_atom_site_fract_y
_atom_site_fract_z
_atom_type_partial_charge
C0 C 0.09349 0.09216 0.08375 0.0
C1 C 0.09647 0.07204 0.08349 0.0
C2 C 0.06679 0.066 0.04956 0.0
C3 C 0.08323 0.05908 0.0667 0.0
C4 C 0.06399 0.08622 0.04949 0.0
C5 C 0.0772 0.09912 0.06643 0.0
U6 U 0.14048 0.10587 0.1183 0.0
O7 O 0.15454 0.13232 0.08897 0.0
O8 O 0.15135 0.12492 0.19998 0.0
C9 C 0.1567 0.13786 0.15431 0.0
C10 C 0.10706 0.10613 0.1026 0.0
C11 C 0.15292 0.15846 0.17062 0.0
C12 C 0.13882 0.18925 0.14517 0.0
C13 C 0.14116 0.1694 0.1313 0.0
C14 C 0.15957 0.18738 0.23897 0.0
C15 C 0.1481 0.19854 0.19887 0.0
C16 C 0.16196 0.1676 0.22487 0.0
C17 C 0.17524 0.06613 0.09852 0.0
C18 C 0.2048 0.06778 0.13826 0.0
C19 C 0.19574 0.04156 0.06225 0.0
C20 C 0.17918 0.0492 0.06113 0.0
C21 C 0.20879 0.0507 0.10089 0.0
C22 C 0.18818 0.07545 0.13695 0.0
C23 C 0.1575 0.07341 0.09722 0.0
O24 O 0.11468 0.10317 0.16304 0.0
O25 O 0.11776 0.11075 0.05227 0.0
O26 O 0.15375 0.08573 0.04694 0.0
O27 O 0.15078 0.0782 0.15789 0.0
H28 H 0.10899 0.06637 0.09643 0.0
H29 H 0.08593 0.04365 0.06647 0.0
H30 H 0.05149 0.0921 0.03757 0.0
H31 H 0.07464 0.1146 0.06649 0.0
H32 H 0.12973 0.19733 0.11382 0.0
H33 H 0.13395 0.1627 0.08932 0.0
H34 H 0.1671 0.19404 0.28009 0.0
H35 H 0.17116 0.15949 0.25566 0.0
H36 H 0.21455 0.07533 0.16795 0.0
H37 H 0.19821 0.02825 0.03374 0.0
H38 H 0.16937 0.04174 0.03137 0.0
H39 H 0.18541 0.0886 0.16602 0.0
C40 C 0.44149 0.94776 0.08769 0.0
C41 C 0.43834 0.96783 0.08525 0.0
C42 C 0.46811 0.97397 0.05327 0.0
C43 C 0.45153 0.98082 0.06831 0.0
C44 C 0.47109 0.9538 0.05554 0.0
C45 C 0.45792 0.94087 0.07257 0.0
U46 U 0.39463 0.93396 0.1251 0.0
O47 O 0.38049 0.9075 0.0959 0.0
O48 O 0.38418 0.91468 0.20686 0.0
C49 C 0.37854 0.90189 0.16126 0.0
C50 C 0.42796 0.93376 0.10656 0.0
C51 C 0.38214 0.88125 0.17722 0.0
C52 C 0.3968 0.85062 0.15479 0.0
C53 C 0.39444 0.87045 0.14037 0.0
C54 C 0.37485 0.85224 0.24379 0.0
C55 C 0.38697 0.84122 0.20658 0.0
C56 C 0.37247 0.87197 0.2292 0.0
C57 C 0.35946 0.9735 0.11367 0.0
C58 C 0.32929 0.9717 0.08231 0.0
C59 C 0.33968 0.99877 0.15115 0.0
C60 C 0.35618 0.99095 0.14925 0.0
C61 C 0.32603 0.98937 0.11709 0.0
C62 C 0.34581 0.96382 0.08074 0.0
C63 C 0.3773 0.96641 0.10882 0.0
O64 O 0.42068 0.93641 0.16782 0.0
O65 O 0.41697 0.92947 0.05679 0.0
O66 O 0.38089 0.95449 0.05704 0.0
O67 O 0.38466 0.96147 0.1681 0.0
H68 H 0.4257 0.97343 0.09654 0.0
H69 H 0.4487 0.99621 0.06629 0.0
H70 H 0.4837 0.94798 0.04536 0.0
H71 H 0.46062 0.92543 0.0744 0.0
H72 H 0.40638 0.84267 0.12563 0.0
H73 H 0.40212 0.87729 0.10012 0.0
H74 H 0.36685 0.84551 0.28321 0.0
H75 H 0.36284 0.87997 0.25802 0.0
H76 H 0.31905 0.96393 0.05631 0.0
H77 H 0.33772 1.0125 0.17772 0.0
H78 H 0.3665 0.99875 0.17468 0.0
H79 H 0.34792 0.95029 0.0531 0.0
C80 C 0.0932 0.44925 0.40465 0.0
C81 C 0.09698 0.4677 0.43195 0.0
C82 C 0.06651 0.4753 0.43937 0.0
C83 C 0.08375 0.4806 0.44928 0.0
C84 C 0.06288 0.45678 0.41171 0.0
C85 C 0.07609 0.44392 0.3946 0.0
U86 U 0.14026 0.43558 0.37206 0.0
O87 O 0.15427 0.40913 0.40195 0.0
O88 O 0.15122 0.41649 0.29081 0.0
C89 C 0.15652 0.40358 0.33671 0.0
C90 C 0.10682 0.4353 0.38657 0.0
C91 C 0.15279 0.38297 0.32037 0.0
C92 C 0.13858 0.35218 0.34515 0.0
C93 C 0.14089 0.37204 0.35902 0.0
C94 C 0.15965 0.35401 0.2527 0.0
C95 C 0.14804 0.34287 0.29212 0.0
C96 C 0.16201 0.3738 0.26681 0.0
C97 C 0.17511 0.47523 0.3912 0.0
C98 C 0.20423 0.47439 0.34628 0.0
C99 C 0.19598 0.49922 0.42945 0.0
C100 C 0.17946 0.49147 0.43177 0.0
C101 C 0.20859 0.49092 0.38622 0.0
C102 C 0.18765 0.46662 0.34877 0.0
C103 C 0.15733 0.46804 0.39285 0.0
O104 O 0.1145 0.43823 0.32633 0.0
O105 O 0.11747 0.43076 0.43728 0.0
O106 O 0.15356 0.45579 0.44334 0.0
O107 O 0.15053 0.46322 0.3323 0.0
H108 H 0.11014 0.47212 0.43983 0.0
H109 H 0.08705 0.4948 0.46966 0.0
H110 H 0.0498 0.45206 0.40427 0.0
H111 H 0.07291 0.42973 0.37374 0.0
H112 H 0.12937 0.34413 0.37596 0.0
H113 H 0.13354 0.37878 0.40047 0.0
H114 H 0.16732 0.34733 0.21213 0.0
H115 H 0.17132 0.38189 0.23655 0.0
H116 H 0.21352 0.46769 0.31195 0.0
H117 H 0.19889 0.51167 0.462 0.0
H118 H 0.16999 0.49829 0.46509 0.0
H119 H 0.18458 0.45405 0.31701 0.0
C120 C 0.44278 0.59009 0.40526 0.0
C121 C 0.43916 0.57149 0.43161 0.0
C122 C 0.46968 0.56404 0.43742 0.0
C123 C 0.45249 0.55859 0.44767 0.0
C124 C 0.47315 0.58268 0.41053 0.0
C125 C 0.45984 0.59554 0.3947 0.0
U126 U 0.39561 0.6038 0.37524 0.0
O127 O 0.38148 0.62967 0.41117 0.0
O128 O 0.38436 0.62403 0.29869 0.0
C129 C 0.37913 0.63621 0.34721 0.0
C130 C 0.42907 0.60415 0.38945 0.0
C131 C 0.38265 0.65716 0.33585 0.0
C132 C 0.39724 0.68367 0.2756 0.0
C133 C 0.39506 0.66371 0.28807 0.0
C134 C 0.37493 0.69082 0.35933 0.0
C135 C 0.38714 0.69749 0.31088 0.0
C136 C 0.3727 0.67093 0.37147 0.0
C137 C 0.36109 0.56361 0.38871 0.0
C138 C 0.3313 0.56619 0.3528 0.0
C139 C 0.34086 0.538 0.41779 0.0
C140 C 0.3574 0.54569 0.42016 0.0
C141 C 0.32758 0.54806 0.38367 0.0
C142 C 0.34791 0.5739 0.3553 0.0
C143 C 0.37882 0.57093 0.3907 0.0
O144 O 0.42135 0.60196 0.32881 0.0
O145 O 0.41844 0.60793 0.44093 0.0
O146 O 0.38267 0.58249 0.44317 0.0
O147 O 0.38532 0.57671 0.33075 0.0
H148 H 0.42605 0.56698 0.43991 0.0
H149 H 0.44931 0.54429 0.46746 0.0
H150 H 0.48619 0.58751 0.40286 0.0
H151 H 0.4629 0.60986 0.37463 0.0
H152 H 0.40689 0.68827 0.23852 0.0
H153 H 0.40296 0.65344 0.25985 0.0
H154 H 0.36674 0.70097 0.38672 0.0
H155 H 0.36296 0.66626 0.40812 0.0
H156 H 0.32146 0.57429 0.32558 0.0
H157 H 0.33847 0.52422 0.44333 0.0
H158 H 0.36738 0.53757 0.44649 0.0
H159 H 0.35049 0.58778 0.33071 0.0
C160 C 0.94213 0.94914 0.90387 0.0
C161 C 0.93914 0.96925 0.90283 0.0
C162 C 0.96884 0.97548 0.93608 0.0
C163 C 0.95238 0.9823 0.91865 0.0
C164 C 0.97167 0.95527 0.93704 0.0
C165 C 0.95846 0.94228 0.92111 0.0
U166 U 0.89518 0.93521 0.86838 0.0
O167 O 0.88459 0.91452 0.79196 0.0
O168 O 0.88082 0.90948 0.90438 0.0
C169 C 0.87894 0.90261 0.84061 0.0
C170 C 0.92851 0.93503 0.88729 0.0
C171 C 0.88253 0.88163 0.83103 0.0
C172 C 0.8982 0.85492 0.77702 0.0
C173 C 0.89595 0.8749 0.78851 0.0
C174 C 0.87392 0.84808 0.85147 0.0
C175 C 0.88714 0.84124 0.80806 0.0
C176 C 0.87164 0.86801 0.86265 0.0
C177 C 0.86034 0.97502 0.87351 0.0
C178 C 0.82962 0.96977 0.88136 0.0
C179 C 0.84063 1.00205 0.85866 0.0
C180 C 0.85732 0.99479 0.86076 0.0
C181 C 0.82653 0.98969 0.86942 0.0
C182 C 0.84637 0.9625 0.88325 0.0
C183 C 0.87814 0.96806 0.87855 0.0
O184 O 0.91749 0.93158 0.93766 0.0
O185 O 0.92126 0.93685 0.82551 0.0
O186 O 0.88516 0.962 0.81999 0.0
O187 O 0.88173 0.95689 0.93246 0.0
H188 H 0.92658 0.97483 0.88991 0.0
H189 H 0.94967 0.99773 0.91813 0.0
H190 H 0.98419 0.94945 0.94912 0.0
H191 H 0.96103 0.9268 0.92204 0.0
H192 H 0.90863 0.85018 0.74395 0.0
H193 H 0.90459 0.88507 0.76356 0.0
H194 H 0.865 0.83805 0.87547 0.0
H195 H 0.86113 0.87282 0.89522 0.0
H196 H 0.81909 0.95977 0.88898 0.0
H197 H 0.8388 1.01748 0.85028 0.0
H198 H 0.86793 1.0047 0.85335 0.0
H199 H 0.84841 0.94716 0.89287 0.0
C200 C 0.59305 0.09014 0.90514 0.0
C201 C 0.59609 0.07005 0.90788 0.0
C202 C 0.56623 0.06414 0.93895 0.0
C203 C 0.5828 0.05716 0.9245 0.0
C204 C 0.56336 0.08433 0.93643 0.0
C205 C 0.57663 0.09716 0.91969 0.0
U206 U 0.64007 0.10324 0.8693 0.0
O207 O 0.65099 0.12224 0.78774 0.0
O208 O 0.65453 0.12944 0.89877 0.0
C209 C 0.65668 0.13498 0.83345 0.0
C210 C 0.60671 0.10401 0.88655 0.0
C211 C 0.65328 0.15566 0.81738 0.0
C212 C 0.63843 0.18625 0.83828 0.0
C213 C 0.64067 0.1664 0.85266 0.0
C214 C 0.66113 0.18475 0.75242 0.0
C215 C 0.64869 0.19571 0.78809 0.0
C216 C 0.66338 0.16499 0.76698 0.0
C217 C 0.67437 0.06297 0.88385 0.0
C218 C 0.70489 0.06766 0.86581 0.0
C219 C 0.69394 0.03568 0.8939 0.0
C220 C 0.67735 0.0432 0.8964 0.0
C221 C 0.70797 0.04779 0.87882 0.0
C222 C 0.68823 0.07519 0.86837 0.0
C223 C 0.6567 0.07037 0.88746 0.0
O224 O 0.61764 0.10822 0.93664 0.0
O225 O 0.6141 0.10121 0.8256 0.0
O226 O 0.64974 0.0755 0.8276 0.0
O227 O 0.65342 0.08261 0.93851 0.0
H228 H 0.60872 0.06435 0.89704 0.0
H229 H 0.58555 0.04176 0.92675 0.0
H230 H 0.55076 0.09024 0.94619 0.0
H231 H 0.57402 0.11262 0.91765 0.0
H232 H 0.62861 0.19417 0.86621 0.0
H233 H 0.63265 0.15951 0.89164 0.0
H234 H 0.66944 0.19154 0.71425 0.0
H235 H 0.67324 0.15702 0.73939 0.0
H236 H 0.71537 0.07746 0.8547 0.0
H237 H 0.69572 0.02027 0.90298 0.0
H238 H 0.6668 0.03352 0.90812 0.0
H239 H 0.68617 0.09052 0.85859 0.0
C240 C 0.94215 0.59092 0.59891 0.0
C241 C 0.93838 0.57248 0.5715 0.0
C242 C 0.96885 0.56484 0.56451 0.0
C243 C 0.9516 0.55957 0.55434 0.0
C244 C 0.97247 0.58335 0.59231 0.0
C245 C 0.95926 0.59622 0.60926 0.0
U246 U 0.89502 0.60466 0.62881 0.0
O247 O 0.88368 0.62347 0.70997 0.0
O248 O 0.88124 0.63128 0.59898 0.0
C249 C 0.87858 0.63653 0.66428 0.0
C250 C 0.92852 0.60489 0.61669 0.0
C251 C 0.88211 0.65707 0.6821 0.0
C252 C 0.89741 0.68757 0.66484 0.0
C253 C 0.89512 0.6678 0.64924 0.0
C254 C 0.87396 0.68602 0.74719 0.0
C255 C 0.88679 0.69698 0.71386 0.0
C256 C 0.87165 0.66634 0.73142 0.0
C257 C 0.86013 0.56523 0.60578 0.0
C258 C 0.83112 0.56517 0.65209 0.0
C259 C 0.83903 0.54236 0.56123 0.0
C260 C 0.8556 0.55 0.56068 0.0
C261 C 0.82657 0.54976 0.60717 0.0
C262 C 0.84773 0.57288 0.65126 0.0
C263 C 0.87796 0.57233 0.60559 0.0
O264 O 0.9181 0.60964 0.56545 0.0
O265 O 0.92058 0.6018 0.67626 0.0
O266 O 0.88457 0.57691 0.66673 0.0
O267 O 0.88198 0.5847 0.55581 0.0
H268 H 0.92522 0.56809 0.56339 0.0
H269 H 0.94831 0.54538 0.53386 0.0
H270 H 0.98555 0.58805 0.59994 0.0
H271 H 0.96243 0.61041 0.6302 0.0
H272 H 0.90754 0.69547 0.63873 0.0
H273 H 0.90341 0.66095 0.61111 0.0
H274 H 0.86536 0.69277 0.78437 0.0
H275 H 0.86147 0.65839 0.75713 0.0
H276 H 0.82181 0.57137 0.68754 0.0
H277 H 0.83609 0.53035 0.52661 0.0
H278 H 0.86498 0.54383 0.5254 0.0
H279 H 0.85091 0.58471 0.68639 0.0
C280 C 0.59346 0.44761 0.59771 0.0
C281 C 0.59711 0.4662 0.57127 0.0
C282 C 0.56662 0.47383 0.56653 0.0
C283 C 0.58381 0.47918 0.55571 0.0
C284 C 0.56312 0.45522 0.59362 0.0
C285 C 0.5764 0.44228 0.60897 0.0
U286 U 0.64066 0.43341 0.62386 0.0
O287 O 0.65213 0.41296 0.69909 0.0
O288 O 0.65438 0.40745 0.58627 0.0
C289 C 0.65705 0.40081 0.64989 0.0
C290 C 0.60714 0.43344 0.61259 0.0
C291 C 0.65351 0.37988 0.66115 0.0
C292 C 0.63869 0.35336 0.72037 0.0
C293 C 0.64093 0.37332 0.70817 0.0
C294 C 0.6613 0.34623 0.63792 0.0
C295 C 0.64891 0.33954 0.68557 0.0
C296 C 0.66358 0.36613 0.62604 0.0
C297 C 0.67562 0.47309 0.60627 0.0
C298 C 0.70453 0.47402 0.65385 0.0
C299 C 0.69681 0.49519 0.55763 0.0
C300 C 0.68025 0.48753 0.55805 0.0
C301 C 0.70917 0.48862 0.6057 0.0
C302 C 0.68792 0.46628 0.654 0.0
C303 C 0.65776 0.466 0.60669 0.0
O304 O 0.61746 0.42949 0.56025 0.0
O305 O 0.61519 0.4356 0.67252 0.0
O306 O 0.65151 0.46036 0.66729 0.0
O307 O 0.65333 0.45461 0.55452 0.0
H308 H 0.61023 0.47062 0.56242 0.0
H309 H 0.58701 0.49345 0.53576 0.0
H310 H 0.55007 0.45046 0.60172 0.0
H311 H 0.57332 0.42797 0.6291 0.0
H312 H 0.62891 0.34874 0.75683 0.0
H313 H 0.63294 0.38359 0.73595 0.0
H314 H 0.66958 0.3361 0.61094 0.0
H315 H 0.67344 0.37081 0.58997 0.0
H316 H 0.71376 0.46847 0.69106 0.0
H317 H 0.69982 0.50657 0.52046 0.0
H318 H 0.67095 0.49307 0.52101 0.0
H319 H 0.6847 0.45508 0.69161 0.0
H320 H 0.14523 0.22802 0.10224 0.0
H321 H 0.14478 0.31341 0.38863 0.0
H322 H 0.14703 0.21785 0.32509 0.0
H323 H 0.14736 0.32355 0.16591 0.0
H324 H 0.14333 0.27844 0.36631 0.0
H325 H 0.14374 0.26298 0.12452 0.0
C326 C 0.14513 0.23309 0.15591 0.0
C327 C 0.14631 0.21987 0.21182 0.0
C328 C 0.14416 0.28831 0.32228 0.0
C329 C 0.14479 0.26007 0.23777 0.0
C330 C 0.14487 0.30833 0.33497 0.0
C331 C 0.14625 0.32154 0.27912 0.0
C332 C 0.14477 0.28134 0.25314 0.0
C333 C 0.14655 0.31396 0.21073 0.0
C334 C 0.1444 0.2531 0.16859 0.0
C335 C 0.14638 0.22744 0.28024 0.0
N336 N 0.14584 0.29443 0.19973 0.0
N337 N 0.14566 0.24698 0.29122 0.0
H338 H 0.39202 0.81134 0.11269 0.0
H339 H 0.38627 0.72775 0.40475 0.0
H340 H 0.38643 0.82252 0.33383 0.0
H341 H 0.39215 0.71586 0.18424 0.0
H342 H 0.38755 0.76251 0.3797 0.0
H343 H 0.39364 0.77649 0.13778 0.0
C344 C 0.39131 0.80653 0.16659 0.0
C345 C 0.38898 0.81999 0.22114 0.0
C346 C 0.38863 0.75233 0.33672 0.0
C347 C 0.39063 0.77995 0.2502 0.0
C348 C 0.38781 0.73242 0.35097 0.0
C349 C 0.38898 0.71875 0.29653 0.0
C350 C 0.39058 0.75878 0.26736 0.0
C351 C 0.39131 0.72579 0.22803 0.0
C352 C 0.39213 0.78658 0.18084 0.0
C353 C 0.38792 0.81275 0.28987 0.0
N354 N 0.39194 0.74527 0.21539 0.0
N355 N 0.3887 0.79329 0.30231 0.0
H356 H 0.8949 0.82294 0.68378 0.0
H357 H 0.88424 0.71546 0.84105 0.0
H358 H 0.88356 0.81086 0.90055 0.0
H359 H 0.89371 0.72697 0.62236 0.0
H360 H 0.88558 0.7503 0.86451 0.0
H361 H 0.8964 0.78795 0.66132 0.0
C362 C 0.8929 0.81297 0.72687 0.0
C363 C 0.88902 0.81996 0.79418 0.0
C364 C 0.88743 0.74523 0.81138 0.0
C365 C 0.89054 0.77974 0.76853 0.0
C366 C 0.88658 0.72529 0.79783 0.0
C367 C 0.88873 0.71816 0.72943 0.0
C368 C 0.89043 0.75831 0.75622 0.0
C369 C 0.8921 0.7317 0.67598 0.0
C370 C 0.89365 0.79296 0.71386 0.0
C371 C 0.88632 0.80623 0.8476 0.0
N372 N 0.89275 0.75108 0.69043 0.0
N373 N 0.88709 0.78686 0.8336 0.0
H374 H 0.65015 0.30938 0.59138 0.0
H375 H 0.64291 0.22547 0.88174 0.0
H376 H 0.64337 0.32105 0.81161 0.0
H377 H 0.65019 0.21456 0.66126 0.0
H378 H 0.64139 0.26035 0.85696 0.0
H379 H 0.64881 0.27459 0.61589 0.0
C380 C 0.6484 0.30465 0.64499 0.0
C381 C 0.647 0.31827 0.69952 0.0
C382 C 0.64325 0.25032 0.81397 0.0
C383 C 0.64532 0.27821 0.72806 0.0
C384 C 0.64402 0.23035 0.82803 0.0
C385 C 0.64678 0.21696 0.77361 0.0
C386 C 0.64523 0.25703 0.74492 0.0
C387 C 0.64834 0.22428 0.70515 0.0
C388 C 0.64755 0.28473 0.65893 0.0
C389 C 0.64439 0.31116 0.76775 0.0
N390 N 0.64759 0.24374 0.69289 0.0
N391 N 0.64373 0.29166 0.78009 0.0
H392 H 0.30913 1.00786 0.22452 0.0
H393 H 0.22672 0.03402 0.99271 0.0
H394 H 0.30317 0.99135 0.00789 0.0
H395 H 0.23112 0.048 0.2123 0.0
H396 H 0.25494 1.01898 0.99704 0.0
H397 H 0.28095 0.02324 0.22077 0.0
C398 C 0.30193 1.0075 0.17606 0.0
C399 C 0.30861 0.99825 0.11641 0.0
C400 C 0.24976 0.02534 0.04434 0.0
C401 C 0.27619 1.01584 0.11186 0.0
C402 C 0.23357 0.03388 0.04201 0.0
C403 C 0.22639 0.04225 0.10235 0.0
C404 C 0.25899 0.0251 0.10748 0.0
C405 C 0.23613 0.04193 0.16426 0.0
C406 C 0.28579 1.01623 0.17407 0.0
C407 C 0.29852 0.99805 0.05545 0.0
N408 N 0.25187 0.03347 0.16526 0.0
N409 N 0.28289 1.00674 0.05473 0.0
H410 H 0.3184 0.5098 0.36486 0.0
H411 H 0.21758 0.52959 0.3875 0.0
H412 H 0.29653 0.56677 0.39484 0.0
H413 H 0.23967 0.47219 0.37663 0.0
H414 H 0.24627 0.54353 0.38511 0.0
H415 H 0.28967 0.49595 0.36379 0.0
C416 C 0.30758 0.51943 0.37157 0.0
C417 C 0.31 0.53954 0.38044 0.0
C418 C 0.24486 0.52788 0.3832 0.0
C419 C 0.27687 0.52367 0.37828 0.0
C420 C 0.22844 0.51987 0.38499 0.0
C421 C 0.22609 0.49961 0.38273 0.0
C422 C 0.25916 0.51562 0.37894 0.0
C423 C 0.24075 0.48786 0.37783 0.0
C424 C 0.29114 0.51148 0.37055 0.0
C425 C 0.29537 0.55124 0.38722 0.0
N426 N 0.25661 0.49603 0.37628 0.0
N427 N 0.27948 0.54315 0.38619 0.0
H428 H 0.73418 0.05656 0.78768 0.0
H429 H 0.79986 0.98014 0.95665 0.0
H430 H 0.72225 0.02027 0.96544 0.0
H431 H 0.81264 1.01765 0.78327 0.0
H432 H 0.77116 0.99413 0.95854 0.0
H433 H 0.76286 0.04243 0.78455 0.0
C434 C 0.73759 0.04573 0.82637 0.0
C435 C 0.72567 0.03961 0.87682 0.0
C436 C 0.78023 0.9993 0.92 0.0
C437 C 0.75855 0.02315 0.87296 0.0
C438 C 0.79662 0.99119 0.91854 0.0
C439 C 0.80878 0.99769 0.86973 0.0
C440 C 0.77585 1.01402 0.87222 0.0
C441 C 0.80382 1.01233 0.82247 0.0
C442 C 0.75397 0.03756 0.82425 0.0
C443 C 0.73084 0.02527 0.92487 0.0
N444 N 0.78778 0.01998 0.8249 0.0
N445 N 0.74684 1.01756 0.92172 0.0
H446 H 0.72913 0.49823 0.49262 0.0
H447 H 0.80621 0.5419 0.72132 0.0
H448 H 0.72929 0.49863 0.71856 0.0
H449 H 0.80684 0.53798 0.49583 0.0
H450 H 0.77779 0.52698 0.7218 0.0
H451 H 0.75736 0.51338 0.49325 0.0
C452 C 0.73507 0.50155 0.54245 0.0
C453 C 0.72672 0.49717 0.60565 0.0
C454 C 0.78414 0.52939 0.67222 0.0
C455 C 0.75926 0.51451 0.60675 0.0
C456 C 0.80034 0.53804 0.67185 0.0
C457 C 0.80902 0.5412 0.60843 0.0
C458 C 0.77645 0.52389 0.60868 0.0
C459 C 0.8008 0.53562 0.54608 0.0
C460 C 0.75125 0.51014 0.54276 0.0
C461 C 0.73526 0.50155 0.66855 0.0
N462 N 0.78503 0.52728 0.54781 0.0
N463 N 0.751 0.51003 0.66749 0.0
H464 H 0.97646 1.0105 0.87346 0.0
H465 H 0.05918 0.03093 0.11153 0.0
H466 H 0.99374 0.97195 0.03715 0.0
H467 H 0.04178 0.06975 0.9489 0.0
H468 H 0.03548 1.00902 0.08418 0.0
H469 H 1.00014 0.03247 0.90073 0.0
C470 C 0.98514 1.00669 0.91546 0.0
C471 C 0.98304 0.98926 0.95291 0.0
C472 C 0.03684 0.02233 0.05442 0.0
C473 C 1.01041 1.01435 0.98398 0.0
C474 C 0.05047 0.03481 0.06971 0.0
C475 C 0.05255 0.05228 0.03256 0.0
C476 C 0.02515 0.02726 0.0014 0.0
C477 C 0.04062 0.05661 0.97967 0.0
C478 C 0.99875 1.0192 0.93072 0.0
C479 C 0.99493 0.98504 0.00609 0.0
N480 N 0.02748 0.04421 0.96572 0.0
N481 N 1.00805 0.99746 0.01996 0.0
H482 H 0.47511 1.00971 0.11168 0.0
H483 H 0.55917 0.02844 0.88044 0.0
H484 H 0.49364 0.96963 0.9554 0.0
H485 H 0.54055 0.06865 0.03611 0.0
H486 H 0.53541 1.00663 0.90782 0.0
H487 H 0.4988 0.03159 0.08402 0.0
C488 C 0.48406 1.00554 0.07118 0.0
C489 C 0.48231 0.98771 0.03596 0.0
C490 C 0.53652 0.02023 0.93603 0.0
C491 C 0.5097 1.01272 0.0045 0.0
C492 C 0.55018 0.03266 0.92074 0.0
C493 C 0.55194 0.05049 0.95592 0.0
C494 C 0.52447 0.02557 0.98706 0.0
C495 C 0.53965 0.05522 0.00685 0.0
C496 C 0.49768 1.01802 0.05572 0.0
C497 C 0.49455 0.98305 0.98473 0.0
N498 N 0.52649 0.04287 0.02084 0.0
N499 N 0.50767 0.99544 0.97062 0.0
H500 H 0.97128 0.54048 0.45056 0.0
H501 H 0.06411 0.4997 0.55326 0.0
H502 H 0.9989 0.55815 0.63565 0.0
H503 H 0.03643 0.48194 0.3684 0.0
H504 H 0.0405 0.52138 0.58372 0.0
H505 H 0.99488 0.51879 0.42016 0.0
C506 C 0.98223 0.53972 0.48515 0.0
C507 C 0.98303 0.55124 0.54584 0.0
C508 C 0.03959 0.51275 0.53646 0.0
C509 C 1.01031 0.5265 0.51072 0.0
C510 C 0.05314 0.50043 0.51873 0.0
C511 C 0.05233 0.48889 0.4581 0.0
C512 C 0.02505 0.51363 0.49327 0.0
C513 C 0.03759 0.49031 0.41615 0.0
C514 C 0.99578 0.5274 0.46746 0.0
C515 C 0.99775 0.5498 0.58786 0.0
N516 N 0.02458 0.50241 0.43448 0.0
N517 N 1.01076 0.5377 0.56956 0.0
H518 H 0.4996 0.55783 0.36519 0.0
H519 H 0.53678 0.48019 0.63926 0.0
H520 H 0.4725 0.5393 0.55028 0.0
H521 H 0.56376 0.49854 0.45361 0.0
H522 H 0.51318 0.50172 0.60763 0.0
H523 H 0.52321 0.53634 0.39696 0.0
C524 C 0.49861 0.54931 0.41271 0.0
C525 C 0.48398 0.55049 0.45516 0.0
C526 C 0.52426 0.50106 0.57379 0.0
C527 C 0.51106 0.5256 0.49167 0.0
C528 C 0.53775 0.48868 0.59166 0.0
C529 C 0.55234 0.48744 0.549 0.0
C530 C 0.52527 0.51237 0.51266 0.0
C531 C 0.5529 0.49912 0.48862 0.0
C532 C 0.5121 0.53695 0.43065 0.0
C533 C 0.48339 0.53877 0.51544 0.0
N534 N 0.53958 0.51102 0.47224 0.0
N535 N 0.49672 0.52689 0.53191 0.0
loop_
_geom_bond_atom_site_label_1
_geom_bond_atom_site_label_2
_geom_bond_distance
_geom_bond_site_symmetry_2
_ccdc_geom_bond_type
C0 C1 1.264 . S
C0 C5 1.479 . S
C0 C10 1.465 . S
C1 C0 1.264 . S
C1 C3 1.339 . S
C1 H28 0.931 . S
C2 C3 1.395 . S
C2 C4 1.320 . S
C3 C1 1.339 . S
C3 C2 1.395 . S
C3 H29 0.929 . S
C4 C2 1.320 . S
C4 C5 1.405 . S
C4 H30 0.930 . S
C5 C0 1.479 . S
C5 C4 1.405 . S
C5 H31 0.931 . S
U6 O7 2.454 . S
U6 O8 2.458 . S
U6 C9 2.984 . S
U6 C10 2.847 . S
U6 C23 2.882 . S
U6 O24 2.441 . S
U6 O25 2.420 . S
U6 O26 2.455 . S
U6 O27 2.449 . S
O7 U6 2.454 . S
O7 C9 1.353 . S
O8 U6 2.458 . S
O8 C9 1.286 . S
C9 U6 2.984 . S
C9 O7 1.353 . S
C9 O8 1.286 . S
C9 C11 1.363 . S
C10 C0 1.465 . S
C10 U6 2.847 . S
C10 O24 1.249 . S
C10 O25 1.202 . S
C11 C9 1.363 . S
C11 C13 1.408 . S
C11 C16 1.342 . S
C12 C13 1.310 . S
C12 C15 1.461 . S
C12 H32 0.932 . S
C13 C11 1.408 . S
C13 C12 1.310 . S
C13 H33 0.930 . S
C14 C15 1.474 . S
C14 C16 1.285 . S
C14 H34 0.929 . S
C15 C12 1.461 . S
C15 C14 1.474 . S
C16 C11 1.342 . S
C16 C14 1.285 . S
C16 H35 0.930 . S
C17 C20 1.424 . S
C17 C22 1.245 . S
C17 C23 1.428 . S
C18 C21 1.260 . S
C18 C22 1.477 . S
C18 H36 0.932 . S
C19 C20 1.384 . S
C19 C21 1.479 . S
C19 H37 0.929 . S
C20 C17 1.424 . S
C20 C19 1.384 . S
C20 H38 0.928 . S
C21 C18 1.260 . S
C21 C19 1.479 . S
C22 C17 1.245 . S
C22 C18 1.477 . S
C22 H39 0.932 . S
C23 U6 2.882 . S
C23 C17 1.428 . S
C23 O26 1.301 . S
C23 O27 1.282 . S
O24 U6 2.441 . S
O24 C10 1.249 . S
O25 U6 2.420 . S
O25 C10 1.202 . S
O26 U6 2.455 . S
O26 C23 1.301 . S
O27 U6 2.449 . S
O27 C23 1.282 . S
H28 C1 0.931 . S
H29 C3 0.929 . S
H30 C4 0.930 . S
H31 C5 0.931 . S
H32 C12 0.932 . S
H33 C13 0.930 . S
H34 C14 0.929 . S
H35 C16 0.930 . S
H36 C18 0.932 . S
H37 C19 0.929 . S
H38 C20 0.928 . S
H39 C22 0.932 . S
C40 C41 1.264 . S
C40 C45 1.479 . S
C40 C50 1.465 . S
C41 C40 1.264 . S
C41 C43 1.339 . S
C41 H68 0.931 . S
C42 C43 1.395 . S
C42 C44 1.320 . S
C43 C41 1.339 . S
C43 C42 1.395 . S
C43 H69 0.929 . S
C44 C42 1.320 . S
C44 C45 1.405 . S
C44 H70 0.930 . S
C45 C40 1.479 . S
C45 C44 1.405 . S
C45 H71 0.931 . S
U46 O47 2.454 . S
U46 O48 2.458 . S
U46 C49 2.984 . S
U46 C50 2.847 . S
U46 C63 2.882 . S
U46 O64 2.441 . S
U46 O65 2.420 . S
U46 O66 2.455 . S
U46 O67 2.449 . S
O47 U46 2.454 . S
O47 C49 1.353 . S
O48 U46 2.458 . S
O48 C49 1.286 . S
C49 U46 2.984 . S
C49 O47 1.353 . S
C49 O48 1.286 . S
C49 C51 1.363 . S
C50 C40 1.465 . S
C50 U46 2.847 . S
C50 O64 1.249 . S
C50 O65 1.202 . S
C51 C49 1.363 . S
C51 C53 1.408 . S
C51 C56 1.342 . S
C52 C53 1.310 . S
C52 C55 1.461 . S
C52 H72 0.932 . S
C53 C51 1.408 . S
C53 C52 1.310 . S
C53 H73 0.930 . S
C54 C55 1.474 . S
C54 C56 1.285 . S
C54 H74 0.929 . S
C55 C52 1.461 . S
C55 C54 1.474 . S
C56 C51 1.342 . S
C56 C54 1.285 . S
C56 H75 0.930 . S
C57 C60 1.424 . S
C57 C62 1.245 . S
C57 C63 1.428 . S
C58 C61 1.260 . S
C58 C62 1.477 . S
C58 H76 0.932 . S
C59 C60 1.384 . S
C59 C61 1.479 . S
C59 H77 0.929 . S
C60 C57 1.424 . S
C60 C59 1.384 . S
C60 H78 0.928 . S
C61 C58 1.260 . S
C61 C59 1.479 . S
C62 C57 1.245 . S
C62 C58 1.477 . S
C62 H79 0.932 . S
C63 U46 2.882 . S
C63 C57 1.428 . S
C63 O66 1.301 . S
C63 O67 1.282 . S
O64 U46 2.441 . S
O64 C50 1.249 . S
O65 U46 2.420 . S
O65 C50 1.202 . S
O66 U46 2.455 . S
O66 C63 1.301 . S
O67 U46 2.449 . S
O67 C63 1.282 . S
H68 C41 0.931 . S
H69 C43 0.929 . S
H70 C44 0.930 . S
H71 C45 0.931 . S
H72 C52 0.932 . S
H73 C53 0.930 . S
H74 C54 0.929 . S
H75 C56 0.930 . S
H76 C58 0.932 . S
H77 C59 0.929 . S
H78 C60 0.928 . S
H79 C62 0.932 . S
C80 C81 1.264 . S
C80 C85 1.479 . S
C80 C90 1.465 . S
C81 C80 1.264 . S
C81 C83 1.339 . S
C81 H108 0.931 . S
C82 C83 1.395 . S
C82 C84 1.320 . S
C83 C81 1.339 . S
C83 C82 1.395 . S
C83 H109 0.929 . S
C84 C82 1.320 . S
C84 C85 1.405 . S
C84 H110 0.930 . S
C85 C80 1.479 . S
C85 C84 1.405 . S
C85 H111 0.931 . S
U86 O87 2.454 . S
U86 O88 2.458 . S
U86 C89 2.984 . S
U86 C90 2.847 . S
U86 C103 2.882 . S
U86 O104 2.441 . S
U86 O105 2.420 . S
U86 O106 2.455 . S
U86 O107 2.449 . S
O87 U86 2.454 . S
O87 C89 1.353 . S
O88 U86 2.458 . S
O88 C89 1.286 . S
C89 U86 2.984 . S
C89 O87 1.353 . S
C89 O88 1.286 . S
C89 C91 1.363 . S
C90 C80 1.465 . S
C90 U86 2.847 . S
C90 O104 1.249 . S
C90 O105 1.202 . S
C91 C89 1.363 . S
C91 C93 1.408 . S
C91 C96 1.342 . S
C92 C93 1.310 . S
C92 C95 1.461 . S
C92 H112 0.932 . S
C93 C91 1.408 . S
C93 C92 1.310 . S
C93 H113 0.930 . S
C94 C95 1.474 . S
C94 C96 1.285 . S
C94 H114 0.929 . S
C95 C92 1.461 . S
C95 C94 1.474 . S
C96 C91 1.342 . S
C96 C94 1.285 . S
C96 H115 0.930 . S
C97 C100 1.424 . S
C97 C102 1.245 . S
C97 C103 1.428 . S
C98 C101 1.260 . S
C98 C102 1.477 . S
C98 H116 0.932 . S
C99 C100 1.384 . S
C99 C101 1.479 . S
C99 H117 0.929 . S
C100 C97 1.424 . S
C100 C99 1.384 . S
C100 H118 0.928 . S
C101 C98 1.260 . S
C101 C99 1.479 . S
C102 C97 1.245 . S
C102 C98 1.477 . S
C102 H119 0.932 . S
C103 U86 2.882 . S
C103 C97 1.428 . S
C103 O106 1.301 . S
C103 O107 1.282 . S
O104 U86 2.441 . S
O104 C90 1.249 . S
O105 U86 2.420 . S
O105 C90 1.202 . S
O106 U86 2.455 . S
O106 C103 1.301 . S
O107 U86 2.449 . S
O107 C103 1.282 . S
H108 C81 0.931 . S
H109 C83 0.929 . S
H110 C84 0.930 . S
H111 C85 0.931 . S
H112 C92 0.932 . S
H113 C93 0.930 . S
H114 C94 0.929 . S
H115 C96 0.930 . S
H116 C98 0.932 . S
H117 C99 0.929 . S
H118 C100 0.928 . S
H119 C102 0.932 . S
C120 C121 1.264 . S
C120 C125 1.479 . S
C120 C130 1.465 . S
C121 C120 1.264 . S
C121 C123 1.339 . S
C121 H148 0.931 . S
C122 C123 1.395 . S
C122 C124 1.320 . S
C123 C121 1.339 . S
C123 C122 1.395 . S
C123 H149 0.929 . S
C124 C122 1.320 . S
C124 C125 1.405 . S
C124 H150 0.930 . S
C125 C120 1.479 . S
C125 C124 1.405 . S
C125 H151 0.931 . S
U126 O127 2.454 . S
U126 O128 2.458 . S
U126 C129 2.984 . S
U126 C130 2.847 . S
U126 C143 2.882 . S
U126 O144 2.441 . S
U126 O145 2.420 . S
U126 O146 2.455 . S
U126 O147 2.449 . S
O127 U126 2.454 . S
O127 C129 1.353 . S
O128 U126 2.458 . S
O128 C129 1.286 . S
C129 U126 2.984 . S
C129 O127 1.353 . S
C129 O128 1.286 . S
C129 C131 1.363 . S
C130 C120 1.465 . S
C130 U126 2.847 . S
C130 O144 1.249 . S
C130 O145 1.202 . S
C131 C129 1.363 . S
C131 C133 1.408 . S
C131 C136 1.342 . S
C132 C133 1.310 . S
C132 C135 1.461 . S
C132 H152 0.932 . S
C133 C131 1.408 . S
C133 C132 1.310 . S
C133 H153 0.930 . S
C134 C135 1.474 . S
C134 C136 1.285 . S
C134 H154 0.929 . S
C135 C132 1.461 . S
C135 C134 1.474 . S
C136 C131 1.342 . S
C136 C134 1.285 . S
C136 H155 0.930 . S
C137 C140 1.424 . S
C137 C142 1.245 . S
C137 C143 1.428 . S
C138 C141 1.260 . S
C138 C142 1.477 . S
C138 H156 0.932 . S
C139 C140 1.384 . S
C139 C141 1.479 . S
C139 H157 0.929 . S
C140 C137 1.424 . S
C140 C139 1.384 . S
C140 H158 0.928 . S
C141 C138 1.260 . S
C141 C139 1.479 . S
C142 C137 1.245 . S
C142 C138 1.477 . S
C142 H159 0.932 . S
C143 U126 2.882 . S
C143 C137 1.428 . S
C143 O146 1.301 . S
C143 O147 1.282 . S
O144 U126 2.441 . S
O144 C130 1.249 . S
O145 U126 2.420 . S
O145 C130 1.202 . S
O146 U126 2.455 . S
O146 C143 1.301 . S
O147 U126 2.449 . S
O147 C143 1.282 . S
H148 C121 0.931 . S
H149 C123 0.929 . S
H150 C124 0.930 . S
H151 C125 0.931 . S
H152 C132 0.932 . S
H153 C133 0.930 . S
H154 C134 0.929 . S
H155 C136 0.930 . S
H156 C138 0.932 . S
H157 C139 0.929 . S
H158 C140 0.928 . S
H159 C142 0.932 . S
C160 C161 1.264 . S
C160 C165 1.479 . S
C160 C170 1.465 . S
C161 C160 1.264 . S
C161 C163 1.339 . S
C161 H188 0.931 . S
C162 C163 1.395 . S
C162 C164 1.320 . S
C163 C161 1.339 . S
C163 C162 1.395 . S
C163 H189 0.929 . S
C164 C162 1.320 . S
C164 C165 1.405 . S
C164 H190 0.930 . S
C165 C160 1.479 . S
C165 C164 1.405 . S
C165 H191 0.931 . S
U166 O167 2.454 . S
U166 O168 2.458 . S
U166 C169 2.984 . S
U166 C170 2.847 . S
U166 C183 2.882 . S
U166 O184 2.441 . S
U166 O185 2.420 . S
U166 O186 2.455 . S
U166 O187 2.449 . S
O167 U166 2.454 . S
O167 C169 1.353 . S
O168 U166 2.458 . S
O168 C169 1.286 . S
C169 U166 2.984 . S
C169 O167 1.353 . S
C169 O168 1.286 . S
C169 C171 1.363 . S
C170 C160 1.465 . S
C170 U166 2.847 . S
C170 O184 1.249 . S
C170 O185 1.202 . S
C171 C169 1.363 . S
C171 C173 1.408 . S
C171 C176 1.342 . S
C172 C173 1.310 . S
C172 C175 1.461 . S
C172 H192 0.932 . S
C173 C171 1.408 . S
C173 C172 1.310 . S
C173 H193 0.930 . S
C174 C175 1.474 . S
C174 C176 1.285 . S
C174 H194 0.929 . S
C175 C172 1.461 . S
C175 C174 1.474 . S
C176 C171 1.342 . S
C176 C174 1.285 . S
C176 H195 0.930 . S
C177 C180 1.424 . S
C177 C182 1.245 . S
C177 C183 1.428 . S
C178 C181 1.260 . S
C178 C182 1.477 . S
C178 H196 0.932 . S
C179 C180 1.384 . S
C179 C181 1.479 . S
C179 H197 0.929 . S
C180 C177 1.424 . S
C180 C179 1.384 . S
C180 H198 0.928 . S
C181 C178 1.260 . S
C181 C179 1.479 . S
C182 C177 1.245 . S
C182 C178 1.477 . S
C182 H199 0.932 . S
C183 U166 2.882 . S
C183 C177 1.428 . S
C183 O186 1.301 . S
C183 O187 1.282 . S
O184 U166 2.441 . S
O184 C170 1.249 . S
O185 U166 2.420 . S
O185 C170 1.202 . S
O186 U166 2.455 . S
O186 C183 1.301 . S
O187 U166 2.449 . S
O187 C183 1.282 . S
H188 C161 0.931 . S
H189 C163 0.929 . S
H190 C164 0.930 . S
H191 C165 0.931 . S
H192 C172 0.932 . S
H193 C173 0.930 . S
H194 C174 0.929 . S
H195 C176 0.930 . S
H196 C178 0.932 . S
H197 C179 0.929 . S
H198 C180 0.928 . S
H199 C182 0.932 . S
C200 C201 1.264 . S
C200 C205 1.479 . S
C200 C210 1.465 . S
C201 C200 1.264 . S
C201 C203 1.339 . S
C201 H228 0.931 . S
C202 C203 1.395 . S
C202 C204 1.320 . S
C203 C201 1.339 . S
C203 C202 1.395 . S
C203 H229 0.929 . S
C204 C202 1.320 . S
C204 C205 1.405 . S
C204 H230 0.930 . S
C205 C200 1.479 . S
C205 C204 1.405 . S
C205 H231 0.931 . S
U206 O207 2.454 . S
U206 O208 2.458 . S
U206 C209 2.984 . S
U206 C210 2.847 . S
U206 C223 2.882 . S
U206 O224 2.441 . S
U206 O225 2.420 . S
U206 O226 2.455 . S
U206 O227 2.449 . S
O207 U206 2.454 . S
O207 C209 1.353 . S
O208 U206 2.458 . S
O208 C209 1.286 . S
C209 U206 2.984 . S
C209 O207 1.353 . S
C209 O208 1.286 . S
C209 C211 1.363 . S
C210 C200 1.465 . S
C210 U206 2.847 . S
C210 O224 1.249 . S
C210 O225 1.202 . S
C211 C209 1.363 . S
C211 C213 1.408 . S
C211 C216 1.342 . S
C212 C213 1.310 . S
C212 C215 1.461 . S
C212 H232 0.932 . S
C213 C211 1.408 . S
C213 C212 1.310 . S
C213 H233 0.930 . S
C214 C215 1.474 . S
C214 C216 1.285 . S
C214 H234 0.929 . S
C215 C212 1.461 . S
C215 C214 1.474 . S
C216 C211 1.342 . S
C216 C214 1.285 . S
C216 H235 0.930 . S
C217 C220 1.424 . S
C217 C222 1.245 . S
C217 C223 1.428 . S
C218 C221 1.260 . S
C218 C222 1.477 . S
C218 H236 0.932 . S
C219 C220 1.384 . S
C219 C221 1.479 . S
C219 H237 0.929 . S
C220 C217 1.424 . S
C220 C219 1.384 . S
C220 H238 0.928 . S
C221 C218 1.260 . S
C221 C219 1.479 . S
C222 C217 1.245 . S
C222 C218 1.477 . S
C222 H239 0.932 . S
C223 U206 2.882 . S
C223 C217 1.428 . S
C223 O226 1.301 . S
C223 O227 1.282 . S
O224 U206 2.441 . S
O224 C210 1.249 . S
O225 U206 2.420 . S
O225 C210 1.202 . S
O226 U206 2.455 . S
O226 C223 1.301 . S
O227 U206 2.449 . S
O227 C223 1.282 . S
H228 C201 0.931 . S
H229 C203 0.929 . S
H230 C204 0.930 . S
H231 C205 0.931 . S
H232 C212 0.932 . S
H233 C213 0.930 . S
H234 C214 0.929 . S
H235 C216 0.930 . S
H236 C218 0.932 . S
H237 C219 0.929 . S
H238 C220 0.928 . S
H239 C222 0.932 . S
C240 C241 1.264 . S
C240 C245 1.479 . S
C240 C250 1.465 . S
C241 C240 1.264 . S
C241 C243 1.339 . S
C241 H268 0.931 . S
C242 C243 1.395 . S
C242 C244 1.320 . S
C243 C241 1.339 . S
C243 C242 1.395 . S
C243 H269 0.929 . S
C244 C242 1.320 . S
C244 C245 1.405 . S
C244 H270 0.930 . S
C245 C240 1.479 . S
C245 C244 1.405 . S
C245 H271 0.931 . S
U246 O247 2.454 . S
U246 O248 2.458 . S
U246 C249 2.984 . S
U246 C250 2.847 . S
U246 C263 2.882 . S
U246 O264 2.441 . S
U246 O265 2.420 . S
U246 O266 2.455 . S
U246 O267 2.449 . S
O247 U246 2.454 . S
O247 C249 1.353 . S
O248 U246 2.458 . S
O248 C249 1.286 . S
C249 U246 2.984 . S
C249 O247 1.353 . S
C249 O248 1.286 . S
C249 C251 1.363 . S
C250 C240 1.465 . S
C250 U246 2.847 . S
C250 O264 1.249 . S
C250 O265 1.202 . S
C251 C249 1.363 . S
C251 C253 1.408 . S
C251 C256 1.342 . S
C252 C253 1.310 . S
C252 C255 1.461 . S
C252 H272 0.932 . S
C253 C251 1.408 . S
C253 C252 1.310 . S
C253 H273 0.930 . S
C254 C255 1.474 . S
C254 C256 1.285 . S
C254 H274 0.929 . S
C255 C252 1.461 . S
C255 C254 1.474 . S
C256 C251 1.342 . S
C256 C254 1.285 . S
C256 H275 0.930 . S
C257 C260 1.424 . S
C257 C262 1.245 . S
C257 C263 1.428 . S
C258 C261 1.260 . S
C258 C262 1.477 . S
C258 H276 0.932 . S
C259 C260 1.384 . S
C259 C261 1.479 . S
C259 H277 0.929 . S
C260 C257 1.424 . S
C260 C259 1.384 . S
C260 H278 0.928 . S
C261 C258 1.260 . S
C261 C259 1.479 . S
C262 C257 1.245 . S
C262 C258 1.477 . S
C262 H279 0.932 . S
C263 U246 2.882 . S
C263 C257 1.428 . S
C263 O266 1.301 . S
C263 O267 1.282 . S
O264 U246 2.441 . S
O264 C250 1.249 . S
O265 U246 2.420 . S
O265 C250 1.202 . S
O266 U246 2.455 . S
O266 C263 1.301 . S
O267 U246 2.449 . S
O267 C263 1.282 . S
H268 C241 0.931 . S
H269 C243 0.929 . S
H270 C244 0.930 . S
H271 C245 0.931 . S
H272 C252 0.932 . S
H273 C253 0.930 . S
H274 C254 0.929 . S
H275 C256 0.930 . S
H276 C258 0.932 . S
H277 C259 0.929 . S
H278 C260 0.928 . S
H279 C262 0.932 . S
C280 C281 1.264 . S
C280 C285 1.479 . S
C280 C290 1.465 . S
C281 C280 1.264 . S
C281 C283 1.339 . S
C281 H308 0.931 . S
C282 C283 1.395 . S
C282 C284 1.320 . S
C283 C281 1.339 . S
C283 C282 1.395 . S
C283 H309 0.929 . S
C284 C282 1.320 . S
C284 C285 1.405 . S
C284 H310 0.930 . S
C285 C280 1.479 . S
C285 C284 1.405 . S
C285 H311 0.931 . S
U286 O287 2.454 . S
U286 O288 2.458 . S
U286 C289 2.984 . S
U286 C290 2.847 . S
U286 C303 2.882 . S
U286 O304 2.441 . S
U286 O305 2.420 . S
U286 O306 2.455 . S
U286 O307 2.449 . S
O287 U286 2.454 . S
O287 C289 1.353 . S
O288 U286 2.458 . S
O288 C289 1.286 . S
C289 U286 2.984 . S
C289 O287 1.353 . S
C289 O288 1.286 . S
C289 C291 1.363 . S
C290 C280 1.465 . S
C290 U286 2.847 . S
C290 O304 1.249 . S
C290 O305 1.202 . S
C291 C289 1.363 . S
C291 C293 1.408 . S
C291 C296 1.342 . S
C292 C293 1.310 . S
C292 C295 1.461 . S
C292 H312 0.932 . S
C293 C291 1.408 . S
C293 C292 1.310 . S
C293 H313 0.930 . S
C294 C295 1.474 . S
C294 C296 1.285 . S
C294 H314 0.929 . S
C295 C292 1.461 . S
C295 C294 1.474 . S
C296 C291 1.342 . S
C296 C294 1.285 . S
C296 H315 0.930 . S
C297 C300 1.424 . S
C297 C302 1.245 . S
C297 C303 1.428 . S
C298 C301 1.260 . S
C298 C302 1.477 . S
C298 H316 0.932 . S
C299 C300 1.384 . S
C299 C301 1.479 . S
C299 H317 0.929 . S
C300 C297 1.424 . S
C300 C299 1.384 . S
C300 H318 0.928 . S
C301 C298 1.260 . S
C301 C299 1.479 . S
C302 C297 1.245 . S
C302 C298 1.477 . S
C302 H319 0.932 . S
C303 U286 2.882 . S
C303 C297 1.428 . S
C303 O306 1.301 . S
C303 O307 1.282 . S
O304 U286 2.441 . S
O304 C290 1.249 . S
O305 U286 2.420 . S
O305 C290 1.202 . S
O306 U286 2.455 . S
O306 C303 1.301 . S
O307 U286 2.449 . S
O307 C303 1.282 . S
H308 C281 0.931 . S
H309 C283 0.929 . S
H310 C284 0.930 . S
H311 C285 0.931 . S
H312 C292 0.932 . S
H313 C293 0.930 . S
H314 C294 0.929 . S
H315 C296 0.930 . S
H316 C298 0.932 . S
H317 C299 0.929 . S
H318 C300 0.928 . S
H319 C302 0.932 . S
H320 C326 0.930 . S
H321 C330 0.930 . S
H322 C335 0.929 . S
H323 C333 0.929 . S
H324 C328 0.929 . S
H325 C334 0.929 . S
C326 H320 0.930 . S
C326 C327 1.367 . S
C326 C334 1.378 . S
C327 C326 1.367 . S
C327 C335 1.433 . S
C328 H324 0.929 . S
C328 C330 1.378 . S
C328 C332 1.350 . S
C329 C332 1.463 . S
C329 C334 1.350 . S
C329 N337 1.427 . S
C330 H321 0.930 . S
C330 C328 1.378 . S
C330 C331 1.367 . S
C331 C330 1.367 . S
C331 C333 1.433 . S
C332 C328 1.350 . S
C332 C329 1.463 . S
C332 N336 1.427 . S
C333 H323 0.929 . S
C333 C331 1.433 . S
C333 N336 1.384 . S
C334 H325 0.929 . S
C334 C326 1.378 . S
C334 C329 1.350 . S
C335 H322 0.929 . S
C335 C327 1.433 . S
C335 N337 1.384 . S
N336 C332 1.427 . S
N336 C333 1.384 . S
N337 C329 1.427 . S
N337 C335 1.384 . S
H338 C344 0.930 . S
H339 C348 0.930 . S
H340 C353 0.929 . S
H341 C351 0.929 . S
H342 C346 0.929 . S
H343 C352 0.929 . S
C344 H338 0.930 . S
C344 C345 1.367 . S
C344 C352 1.378 . S
C345 C344 1.367 . S
C345 C353 1.433 . S
C346 H342 0.929 . S
C346 C348 1.378 . S
C346 C350 1.350 . S
C347 C350 1.463 . S
C347 C352 1.350 . S
C347 N355 1.427 . S
C348 H339 0.930 . S
C348 C346 1.378 . S
C348 C349 1.367 . S
C349 C348 1.367 . S
C349 C351 1.433 . S
C350 C346 1.350 . S
C350 C347 1.463 . S
C350 N354 1.427 . S
C351 H341 0.929 . S
C351 C349 1.433 . S
C351 N354 1.384 . S
C352 H343 0.929 . S
C352 C344 1.378 . S
C352 C347 1.350 . S
C353 H340 0.929 . S
C353 C345 1.433 . S
C353 N355 1.384 . S
N354 C350 1.427 . S
N354 C351 1.384 . S
N355 C347 1.427 . S
N355 C353 1.384 . S
H356 C362 0.930 . S
H357 C366 0.930 . S
H358 C371 0.929 . S
H359 C369 0.929 . S
H360 C364 0.929 . S
H361 C370 0.929 . S
C362 H356 0.930 . S
C362 C363 1.367 . S
C362 C370 1.378 . S
C363 C362 1.367 . S
C363 C371 1.433 . S
C364 H360 0.929 . S
C364 C366 1.378 . S
C364 C368 1.350 . S
C365 C368 1.463 . S
C365 C370 1.350 . S
C365 N373 1.427 . S
C366 H357 0.930 . S
C366 C364 1.378 . S
C366 C367 1.367 . S
C367 C366 1.367 . S
C367 C369 1.433 . S
C368 C364 1.350 . S
C368 C365 1.463 . S
C368 N372 1.427 . S
C369 H359 0.929 . S
C369 C367 1.433 . S
C369 N372 1.384 . S
C370 H361 0.929 . S
C370 C362 1.378 . S
C370 C365 1.350 . S
C371 H358 0.929 . S
C371 C363 1.433 . S
C371 N373 1.384 . S
N372 C368 1.427 . S
N372 C369 1.384 . S
N373 C365 1.427 . S
N373 C371 1.384 . S
H374 C380 0.930 . S
H375 C384 0.930 . S
H376 C389 0.929 . S
H377 C387 0.929 . S
H378 C382 0.929 . S
H379 C388 0.929 . S
C380 H374 0.930 . S
C380 C381 1.367 . S
C380 C388 1.378 . S
C381 C380 1.367 . S
C381 C389 1.433 . S
C382 H378 0.929 . S
C382 C384 1.378 . S
C382 C386 1.350 . S
C383 C386 1.463 . S
C383 C388 1.350 . S
C383 N391 1.427 . S
C384 H375 0.930 . S
C384 C382 1.378 . S
C384 C385 1.367 . S
C385 C384 1.367 . S
C385 C387 1.433 . S
C386 C382 1.350 . S
C386 C383 1.463 . S
C386 N390 1.427 . S
C387 H377 0.929 . S
C387 C385 1.433 . S
C387 N390 1.384 . S
C388 H379 0.929 . S
C388 C380 1.378 . S
C388 C383 1.350 . S
C389 H376 0.929 . S
C389 C381 1.433 . S
C389 N391 1.384 . S
N390 C386 1.427 . S
N390 C387 1.384 . S
N391 C383 1.427 . S
N391 C389 1.384 . S
H392 C398 0.930 . S
H393 C402 0.930 . S
H394 C407 0.929 . S
H395 C405 0.929 . S
H396 C400 0.929 . S
H397 C406 0.929 . S
C398 H392 0.930 . S
C398 C399 1.367 . S
C398 C406 1.378 . S
C399 C398 1.367 . S
C399 C407 1.433 . S
C400 H396 0.929 . S
C400 C402 1.378 . S
C400 C404 1.350 . S
C401 C404 1.463 1_565 S
C401 C406 1.350 . S
C401 N409 1.427 . S
C402 H393 0.930 . S
C402 C400 1.378 . S
C402 C403 1.367 . S
C403 C402 1.367 . S
C403 C405 1.433 . S
C404 C400 1.350 . S
C404 C401 1.463 1_545 S
C404 N408 1.427 . S
C405 H395 0.929 . S
C405 C403 1.433 . S
C405 N408 1.384 . S
C406 H397 0.929 . S
C406 C398 1.378 . S
C406 C401 1.350 . S
C407 H394 0.929 . S
C407 C399 1.433 . S
C407 N409 1.384 . S
N408 C404 1.427 . S
N408 C405 1.384 . S
N409 C401 1.427 . S
N409 C407 1.384 . S
H410 C416 0.930 . S
H411 C420 0.930 . S
H412 C425 0.929 . S
H413 C423 0.929 . S
H414 C418 0.929 . S
H415 C424 0.929 . S
C416 H410 0.930 . S
C416 C417 1.367 . S
C416 C424 1.378 . S
C417 C416 1.367 . S
C417 C425 1.433 . S
C418 H414 0.929 . S
C418 C420 1.378 . S
C418 C422 1.350 . S
C419 C422 1.463 . S
C419 C424 1.350 . S
C419 N427 1.427 . S
C420 H411 0.930 . S
C420 C418 1.378 . S
C420 C421 1.367 . S
C421 C420 1.367 . S
C421 C423 1.433 . S
C422 C418 1.350 . S
C422 C419 1.463 . S
C422 N426 1.427 . S
C423 H413 0.929 . S
C423 C421 1.433 . S
C423 N426 1.384 . S
C424 H415 0.929 . S
C424 C416 1.378 . S
C424 C419 1.350 . S
C425 H412 0.929 . S
C425 C417 1.433 . S
C425 N427 1.384 . S
N426 C422 1.427 . S
N426 C423 1.384 . S
N427 C419 1.427 . S
N427 C425 1.384 . S
H428 C434 0.930 . S
H429 C438 0.930 . S
H430 C443 0.929 . S
H431 C441 0.929 . S
H432 C436 0.929 . S
H433 C442 0.929 . S
C434 H428 0.930 . S
C434 C435 1.367 . S
C434 C442 1.378 . S
C435 C434 1.367 . S
C435 C443 1.433 . S
C436 H432 0.929 . S
C436 C438 1.378 . S
C436 C440 1.350 . S
C437 C440 1.463 1_545 S
C437 C442 1.350 . S
C437 N445 1.427 1_545 S
C438 H429 0.930 . S
C438 C436 1.378 . S
C438 C439 1.367 . S
C439 C438 1.367 . S
C439 C441 1.433 . S
C440 C436 1.350 . S
C440 C437 1.463 1_565 S
C440 N444 1.427 1_565 S
C441 H431 0.929 . S
C441 C439 1.433 . S
C441 N444 1.384 1_565 S
C442 H433 0.929 . S
C442 C434 1.378 . S
C442 C437 1.350 . S
C443 H430 0.929 . S
C443 C435 1.433 . S
C443 N445 1.384 1_545 S
N444 C440 1.427 1_545 S
N444 C441 1.384 1_545 S
N445 C437 1.427 1_565 S
N445 C443 1.384 1_565 S
H446 C452 0.930 . S
H447 C456 0.930 . S
H448 C461 0.929 . S
H449 C459 0.929 . S
H450 C454 0.929 . S
H451 C460 0.929 . S
C452 H446 0.930 . S
C452 C453 1.367 . S
C452 C460 1.378 . S
C453 C452 1.367 . S
C453 C461 1.433 . S
C454 H450 0.929 . S
C454 C456 1.378 . S
C454 C458 1.350 . S
C455 C458 1.463 . S
C455 C460 1.350 . S
C455 N463 1.427 . S
C456 H447 0.930 . S
C456 C454 1.378 . S
C456 C457 1.367 . S
C457 C456 1.367 . S
C457 C459 1.433 . S
C458 C454 1.350 . S
C458 C455 1.463 . S
C458 N462 1.427 . S
C459 H449 0.929 . S
C459 C457 1.433 . S
C459 N462 1.384 . S
C460 H451 0.929 . S
C460 C452 1.378 . S
C460 C455 1.350 . S
C461 H448 0.929 . S
C461 C453 1.433 . S
C461 N463 1.384 . S
N462 C458 1.427 . S
N462 C459 1.384 . S
N463 C455 1.427 . S
N463 C461 1.384 . S
H464 C470 0.930 . S
H465 C474 0.930 . S
H466 C479 0.929 . S
H467 C477 0.929 . S
H468 C472 0.929 1_565 S
H469 C478 0.929 1_545 S
C470 H464 0.930 . S
C470 C471 1.367 . S
C470 C478 1.378 . S
C471 C470 1.367 . S
C471 C479 1.433 1_556 S
C472 H468 0.929 1_545 S
C472 C474 1.378 . S
C472 C476 1.350 . S
C473 C476 1.463 1_666 S
C473 C478 1.350 . S
C473 N481 1.427 1_556 S
C474 H465 0.930 . S
C474 C472 1.378 . S
C474 C475 1.367 . S
C475 C474 1.367 . S
C475 C477 1.433 1_554 S
C476 C472 1.350 . S
C476 C473 1.463 1_444 S
C476 N480 1.427 1_554 S
C477 H467 0.929 . S
C477 C475 1.433 1_556 S
C477 N480 1.384 . S
C478 H469 0.929 1_565 S
C478 C470 1.378 . S
C478 C473 1.350 . S
C479 H466 0.929 . S
C479 C471 1.433 1_554 S
C479 N481 1.384 . S
N480 C476 1.427 1_556 S
N480 C477 1.384 . S
N481 C473 1.427 1_554 S
N481 C479 1.384 . S
H482 C488 0.930 . S
H483 C492 0.930 . S
H484 C497 0.929 . S
H485 C495 0.929 . S
H486 C490 0.929 . S
H487 C496 0.929 . S
C488 H482 0.930 . S
C488 C489 1.367 . S
C488 C496 1.378 1_565 S
C489 C488 1.367 . S
C489 C497 1.433 1_554 S
C490 H486 0.929 . S
C490 C492 1.378 1_565 S
C490 C494 1.350 1_565 S
C491 C494 1.463 1_564 S
C491 C496 1.350 1_565 S
C491 N499 1.427 1_554 S
C492 H483 0.930 . S
C492 C490 1.378 1_545 S
C492 C493 1.367 . S
C493 C492 1.367 . S
C493 C495 1.433 1_556 S
C494 C490 1.350 1_545 S
C494 C491 1.463 1_546 S
C494 N498 1.427 1_556 S
C495 H485 0.929 . S
C495 C493 1.433 1_554 S
C495 N498 1.384 . S
C496 H487 0.929 . S
C496 C488 1.378 1_545 S
C496 C491 1.350 1_545 S
C497 H484 0.929 . S
C497 C489 1.433 1_556 S
C497 N499 1.384 . S
N498 C494 1.427 1_554 S
N498 C495 1.384 . S
N499 C491 1.427 1_556 S
N499 C497 1.384 . S
H500 C506 0.930 . S
H501 C510 0.930 . S
H502 C515 0.929 . S
H503 C513 0.929 . S
H504 C508 0.929 . S
H505 C514 0.929 . S
C506 H500 0.930 . S
C506 C507 1.367 . S
C506 C514 1.378 . S
C507 C506 1.367 . S
C507 C515 1.433 . S
C508 H504 0.929 . S
C508 C510 1.378 . S
C508 C512 1.350 . S
C509 C512 1.463 1_655 S
C509 C514 1.350 . S
C509 N517 1.427 . S
C510 H501 0.930 . S
C510 C508 1.378 . S
C510 C511 1.367 . S
C511 C510 1.367 . S
C511 C513 1.433 . S
C512 C508 1.350 . S
C512 C509 1.463 1_455 S
C512 N516 1.427 . S
C513 H503 0.929 . S
C513 C511 1.433 . S
C513 N516 1.384 . S
C514 H505 0.929 . S
C514 C506 1.378 . S
C514 C509 1.350 . S
C515 H502 0.929 . S
C515 C507 1.433 . S
C515 N517 1.384 . S
N516 C512 1.427 . S
N516 C513 1.384 . S
N517 C509 1.427 . S
N517 C515 1.384 . S
H518 C524 0.930 . S
H519 C528 0.930 . S
H520 C533 0.929 . S
H521 C531 0.929 . S
H522 C526 0.929 . S
H523 C532 0.929 . S
C524 H518 0.930 . S
C524 C525 1.367 . S
C524 C532 1.378 . S
C525 C524 1.367 . S
C525 C533 1.433 . S
C526 H522 0.929 . S
C526 C528 1.378 . S
C526 C530 1.350 . S
C527 C530 1.463 . S
C527 C532 1.350 . S
C527 N535 1.427 . S
C528 H519 0.930 . S
C528 C526 1.378 . S
C528 C529 1.367 . S
C529 C528 1.367 . S
C529 C531 1.433 . S
C530 C526 1.350 . S
C530 C527 1.463 . S
C530 N534 1.427 . S
C531 H521 0.929 . S
C531 C529 1.433 . S
C531 N534 1.384 . S
C532 H523 0.929 . S
C532 C524 1.378 . S
C532 C527 1.350 . S
C533 H520 0.929 . S
C533 C525 1.433 . S
C533 N535 1.384 . S
N534 C530 1.427 . S
N534 C531 1.384 . S
N535 C527 1.427 . S
N535 C533 1.384 . S
C327 C15 1.499 . S
C331 C95 1.499 . S
C345 C55 1.499 . S
C349 C135 1.499 . S
C363 C175 1.500 . S
C367 C255 1.500 . S
C381 C295 1.500 . S
C385 C215 1.500 . S
C399 C61 1.492 . S
C403 C21 1.485 . S
C417 C141 1.489 . S
C421 C101 1.488 . S
C435 C221 1.488 . S
C439 C181 1.492 . S
C453 C301 1.492 . S
C457 C261 1.485 . S
C471 C162 1.486 . S
C475 C2 1.490 . S
C489 C42 1.490 . S
C493 C202 1.487 . S
C507 C242 1.491 . S
C511 C82 1.483 . S
C525 C122 1.487 . S
C529 C282 1.484 . S
