# Generated by pormake.
# Topology sth, (5)-cn, num edge types: 1
# Building blocks:
#     Node 0, Type 0, BuildingBlock: BEQFEK_clean_sbu_0, # of connection points: 5
#     Node 1, Type 0, BuildingBlock: BEQFEK_clean_sbu_0, # of connection points: 5
#     Node 2, Type 0, BuildingBlock: BEQFEK_clean_sbu_0, # of connection points: 5
#     Node 3, Type 0, BuildingBlock: BEQFEK_clean_sbu_0, # of connection points: 5
#     Node 4, Type 0, BuildingBlock: BEQFEK_clean_sbu_0, # of connection points: 5
#     Node 5, Type 0, BuildingBlock: BEQFEK_clean_sbu_0, # of connection points: 5
#     Node 6, Type 0, BuildingBlock: BEQFEK_clean_sbu_0, # of connection points: 5
#     Node 7, Type 0, BuildingBlock: BEQFEK_clean_sbu_0, # of connection points: 5
#     Node 8, Type 0, BuildingBlock: BEQFEK_clean_sbu_0, # of connection points: 5
#     Node 9, Type 0, BuildingBlock: BEQFEK_clean_sbu_0, # of connection points: 5
#     Node 10, Type 0, BuildingBlock: BEQFEK_clean_sbu_0, # of connection points: 5
#     Node 11, Type 0, BuildingBlock: BEQFEK_clean_sbu_0, # of connection points: 5
#     Node 12, Type 0, BuildingBlock: BEQFEK_clean_sbu_0, # of connection points: 5
#     Node 13, Type 0, BuildingBlock: BEQFEK_clean_sbu_0, # of connection points: 5
#     Node 14, Type 0, BuildingBlock: BEQFEK_clean_sbu_0, # of connection points: 5
#     Node 15, Type 0, BuildingBlock: BEQFEK_clean_sbu_0, # of connection points: 5
#     Node 16, Type 0, BuildingBlock: BEQFEK_clean_sbu_0, # of connection points: 5
#     Node 17, Type 0, BuildingBlock: BEQFEK_clean_sbu_0, # of connection points: 5
#     Edge 18, Type (0, 0), BuildingBlock: XUDNAN_clean_linker_2, # of connection points: 2
#     Edge 19, Type (0, 0), BuildingBlock: XUDNAN_clean_linker_2, # of connection points: 2
#     Edge 20, Type (0, 0), BuildingBlock: XUDNAN_clean_linker_2, # of connection points: 2
#     Edge 21, Type (0, 0), BuildingBlock: XUDNAN_clean_linker_2, # of connection points: 2
#     Edge 22, Type (0, 0), BuildingBlock: XUDNAN_clean_linker_2, # of connection points: 2
#     Edge 23, Type (0, 0), BuildingBlock: XUDNAN_clean_linker_2, # of connection points: 2
#     Edge 24, Type (0, 0), BuildingBlock: XUDNAN_clean_linker_2, # of connection points: 2
#     Edge 25, Type (0, 0), BuildingBlock: XUDNAN_clean_linker_2, # of connection points: 2
#     Edge 26, Type (0, 0), BuildingBlock: XUDNAN_clean_linker_2, # of connection points: 2
#     Edge 27, Type (0, 0), BuildingBlock: XUDNAN_clean_linker_2, # of connection points: 2
#     Edge 28, Type (0, 0), BuildingBlock: XUDNAN_clean_linker_2, # of connection points: 2
#     Edge 29, Type (0, 0), BuildingBlock: XUDNAN_clean_linker_2, # of connection points: 2
#     Edge 30, Type (0, 0), BuildingBlock: XUDNAN_clean_linker_2, # of connection points: 2
#     Edge 31, Type (0, 0), BuildingBlock: XUDNAN_clean_linker_2, # of connection points: 2
#     Edge 32, Type (0, 0), BuildingBlock: XUDNAN_clean_linker_2, # of connection points: 2
#     Edge 33, Type (0, 0), BuildingBlock: XUDNAN_clean_linker_2, # of connection points: 2
#     Edge 34, Type (0, 0), BuildingBlock: XUDNAN_clean_linker_2, # of connection points: 2
#     Edge 35, Type (0, 0), BuildingBlock: XUDNAN_clean_linker_2, # of connection points: 2
#     Edge 36, Type (0, 0), BuildingBlock: XUDNAN_clean_linker_2, # of connection points: 2
#     Edge 37, Type (0, 0), BuildingBlock: XUDNAN_clean_linker_2, # of connection points: 2
#     Edge 38, Type (0, 0), BuildingBlock: XUDNAN_clean_linker_2, # of connection points: 2
#     Edge 39, Type (0, 0), BuildingBlock: XUDNAN_clean_linker_2, # of connection points: 2
#     Edge 40, Type (0, 0), BuildingBlock: XUDNAN_clean_linker_2, # of connection points: 2
#     Edge 41, Type (0, 0), BuildingBlock: XUDNAN_clean_linker_2, # of connection points: 2
#     Edge 42, Type (0, 0), BuildingBlock: XUDNAN_clean_linker_2, # of connection points: 2
#     Edge 43, Type (0, 0), BuildingBlock: XUDNAN_clean_linker_2, # of connection points: 2
#     Edge 44, Type (0, 0), BuildingBlock: XUDNAN_clean_linker_2, # of connection points: 2
#     Edge 45, Type (0, 0), BuildingBlock: XUDNAN_clean_linker_2, # of connection points: 2
#     Edge 46, Type (0, 0), BuildingBlock: XUDNAN_clean_linker_2, # of connection points: 2
#     Edge 47, Type (0, 0), BuildingBlock: XUDNAN_clean_linker_2, # of connection points: 2
#     Edge 48, Type (0, 0), BuildingBlock: XUDNAN_clean_linker_2, # of connection points: 2
#     Edge 49, Type (0, 0), BuildingBlock: XUDNAN_clean_linker_2, # of connection points: 2
#     Edge 50, Type (0, 0), BuildingBlock: XUDNAN_clean_linker_2, # of connection points: 2
#     Edge 51, Type (0, 0), BuildingBlock: XUDNAN_clean_linker_2, # of connection points: 2
#     Edge 52, Type (0, 0), BuildingBlock: XUDNAN_clean_linker_2, # of connection points: 2
#     Edge 53, Type (0, 0), BuildingBlock: XUDNAN_clean_linker_2, # of connection points: 2
#     Edge 54, Type (0, 0), BuildingBlock: XUDNAN_clean_linker_2, # of connection points: 2
#     Edge 55, Type (0, 0), BuildingBlock: XUDNAN_clean_linker_2, # of connection points: 2
#     Edge 56, Type (0, 0), BuildingBlock: XUDNAN_clean_linker_2, # of connection points: 2
#     Edge 57, Type (0, 0), BuildingBlock: XUDNAN_clean_linker_2, # of connection points: 2
#     Edge 58, Type (0, 0), BuildingBlock: XUDNAN_clean_linker_2, # of connection points: 2
#     Edge 59, Type (0, 0), BuildingBlock: XUDNAN_clean_linker_2, # of connection points: 2
#     Edge 60, Type (0, 0), BuildingBlock: XUDNAN_clean_linker_2, # of connection points: 2
#     Edge 61, Type (0, 0), BuildingBlock: XUDNAN_clean_linker_2, # of connection points: 2
#     Edge 62, Type (0, 0), BuildingBlock: XUDNAN_clean_linker_2, # of connection points: 2
# Relax obj value: 0.262
# Max RMSD: 0.160
# Mean RMSD: 0.160
data_MOF--net-sth--node1-BEQFEK_clean_sbu_0--edge1-XUDNAN_clean_linker_2
_symmetry_space_group_name_H-M    P1
_symmetry_Int_Tables_number       1
_symmetry_cell_setting            triclinic
loop_
_symmetry_equiv_pos_as_xyz
'x, y, z'
_cell_length_a     43.98748
_cell_length_b     43.994926
_cell_length_c     66.408518
_cell_angle_alpha  90.005609
_cell_angle_beta   89.953185
_cell_angle_gamma 119.88091
loop_
_atom_site_label
_atom_site_type_symbol
_atom_site_fract_x
_atom_site_fract_y
_atom_site_fract_z
_atom_type_partial_charge
Co0 Co 0.07511 0.24326 0.24447 0.0
Co1 Co 0.14883 0.30903 0.23384 0.0
C2 C 0.08289 0.29926 0.215 0.0
O3 O 0.06586 0.27113 0.22501 0.0
O4 O 0.11615 0.31747 0.21638 0.0
C5 C 1.0166 0.18512 0.22867 0.0
O6 O 0.03188 0.20373 0.2125 0.0
C7 C 0.21044 0.34996 0.20832 0.0
C8 C 0.25287 0.37691 0.23059 0.0
C9 C 0.24665 0.37097 0.21011 0.0
N10 N 0.19625 0.34285 0.22687 0.0
N11 N 0.22169 0.35965 0.2401 0.0
C12 C 0.18931 0.33661 0.1894 0.0
H13 H 0.16427 0.3366 0.19097 0.0
H14 H 0.18298 0.30919 0.18669 0.0
H15 H 0.20376 0.35305 0.17625 0.0
C16 C 0.11403 0.20628 0.23601 0.0
N17 N 0.11189 0.2358 0.2359 0.0
N18 N 0.1428 0.26277 0.2315 0.0
C19 C 0.16576 0.25102 0.22904 0.0
C20 C 0.14815 0.21486 0.23157 0.0
C21 C 0.08517 0.17129 0.24292 0.0
H22 H 0.07261 0.17454 0.2566 0.0
H23 H 0.06505 0.15968 0.23091 0.0
H24 H 0.09492 0.15292 0.24625 0.0
O25 O 0.08769 0.27017 0.27022 0.0
O26 O 0.13995 0.31617 0.26247 0.0
H27 H 0.2151 0.29421 0.23818 0.0
H28 H 0.21836 0.25883 0.22651 0.0
C29 C 0.20445 0.27404 0.22618 0.0
H30 H 0.20951 0.28734 0.21141 0.0
H31 H 0.21796 0.35804 0.25567 0.0
O32 O 0.03065 0.19687 0.24578 0.0
C33 C 0.11485 0.29922 0.27488 0.0
Co34 Co 0.79078 0.83424 0.23691 0.0
Co35 Co 0.73012 0.85283 0.23444 0.0
C36 C 0.72796 0.7942 0.21 0.0
O37 O 0.75738 0.79981 0.21688 0.0
O38 O 0.715 0.81324 0.21528 0.0
C39 C 0.84593 0.82538 0.2203 0.0
O40 O 0.82577 0.81663 0.20429 0.0
C41 C 0.68728 0.88115 0.21712 0.0
C42 C 0.66769 0.89348 0.2448 0.0
C43 C 0.66804 0.89633 0.22401 0.0
N44 N 0.69812 0.87036 0.23316 0.0
N45 N 0.68569 0.87719 0.24961 0.0
C46 C 0.69823 0.88001 0.19593 0.0
H47 H 0.72088 0.87543 0.19571 0.0
H48 H 0.70508 0.90479 0.18797 0.0
H49 H 0.67603 0.85817 0.18784 0.0
C50 C 0.83337 0.91116 0.2291 0.0
N51 N 0.80214 0.8814 0.23111 0.0
N52 N 0.77691 0.88921 0.23002 0.0
C53 C 0.79132 0.92415 0.22747 0.0
C54 C 0.82749 0.93915 0.22666 0.0
C55 C 0.8681 0.91261 0.22926 0.0
H56 H 0.87095 0.901 0.24347 0.0
H57 H 0.86918 0.89692 0.21652 0.0
H58 H 0.89028 0.93978 0.22776 0.0
O59 O 0.76818 0.81953 0.2641 0.0
O60 O 0.72678 0.83447 0.26187 0.0
H61 H 0.75159 0.93305 0.24014 0.0
H62 H 0.7889 0.97196 0.23047 0.0
C63 C 0.77134 0.94348 0.22793 0.0
H64 H 0.75774 0.93989 0.21335 0.0
H65 H 0.69078 0.87212 0.2642 0.0
O66 O 0.83548 0.83267 0.23651 0.0
C67 C 0.74271 0.82178 0.27171 0.0
Co68 Co 0.20045 0.96006 0.24142 0.0
Co69 Co 0.18255 0.88238 0.23234 0.0
C70 C 0.24017 0.94395 0.21038 0.0
O71 O 0.23501 0.96641 0.2196 0.0
O72 O 0.22121 0.91138 0.21397 0.0
C73 C 0.20205 0.02359 0.2306 0.0
O74 O 0.19822 1.01012 0.21249 0.0
C75 C 0.15768 0.81896 0.20747 0.0
C76 C 0.14233 0.77757 0.23049 0.0
C77 C 0.14238 0.78286 0.20991 0.0
N78 N 0.1653 0.83407 0.22578 0.0
N79 N 0.15652 0.80921 0.23944 0.0
C80 C 0.16597 0.83902 0.18809 0.0
H81 H 0.19038 0.8645 0.18949 0.0
H82 H 0.14448 0.84432 0.18434 0.0
H83 H 0.16919 0.82415 0.17557 0.0
C84 C 0.12278 0.92679 0.23337 0.0
N85 N 0.15292 0.92562 0.23466 0.0
N86 N 0.14581 0.89326 0.23109 0.0
C87 C 0.11119 0.87305 0.22741 0.0
C88 C 0.09549 0.89358 0.2285 0.0
C89 C 0.12019 0.95916 0.23628 0.0
H90 H 0.13615 0.97412 0.24943 0.0
H91 H 0.13035 0.9758 0.22266 0.0
H92 H 0.09275 0.95296 0.23858 0.0
O93 O 0.21509 0.9457 0.2668 0.0
O94 O 0.2033 0.89142 0.25941 0.0
H95 H 0.06393 0.82222 0.22621 0.0
H96 H 0.09818 0.82829 0.20904 0.0
C97 C 0.09272 0.83416 0.2244 0.0
H98 H 0.10224 0.82208 0.23551 0.0
H99 H 0.15938 0.81375 0.25493 0.0
O100 O 0.20403 1.00673 0.24564 0.0
C101 C 0.21518 0.91752 0.27133 0.0
Co102 Co 0.2483 0.06972 0.77227 0.0
Co103 Co 0.31565 0.14246 0.78121 0.0
C104 C 0.30512 0.07731 0.80117 0.0
O105 O 0.27655 0.06045 0.79153 0.0
O106 O 0.32415 0.11043 0.79923 0.0
C107 C 0.19009 0.01308 0.7894 0.0
O108 O 0.2094 0.02866 0.80528 0.0
C109 C 0.36398 0.20492 0.8042 0.0
C110 C 0.38715 0.24549 0.78053 0.0
C111 C 0.38691 0.24047 0.80115 0.0
N112 N 0.35128 0.18979 0.78625 0.0
N113 N 0.36556 0.21409 0.77213 0.0
C114 C 0.35114 0.18613 0.82386 0.0
H115 H 0.32483 0.16263 0.822 0.0
H116 H 0.34992 0.20371 0.83543 0.0
H117 H 0.36951 0.17742 0.82913 0.0
C118 C 0.21368 0.11077 0.78152 0.0
N119 N 0.24261 0.10764 0.78072 0.0
N120 N 0.27038 0.13811 0.78483 0.0
C121 C 0.25979 0.16172 0.78824 0.0
C122 C 0.22351 0.14508 0.78641 0.0
C123 C 0.17793 0.08262 0.77517 0.0
H124 H 0.18003 0.06873 0.76177 0.0
H125 H 0.16589 0.06339 0.78759 0.0
H126 H 0.16052 0.0934 0.77157 0.0
O127 O 0.27277 0.07995 0.74584 0.0
O128 O 0.32012 0.13164 0.75252 0.0
H129 H 0.30172 0.21163 0.7789 0.0
H130 H 0.26936 0.21411 0.79457 0.0
C131 C 0.28397 0.19993 0.792 0.0
H132 H 0.30012 0.20317 0.80547 0.0
H133 H 0.3597 0.20945 0.75683 0.0
O134 O 0.20144 0.02622 0.77206 0.0
C135 C 0.30181 0.1064 0.74049 0.0
Co136 Co 0.96767 0.19436 0.77333 0.0
Co137 Co 0.88957 0.17864 0.77546 0.0
C138 C 0.94622 0.23642 0.79977 0.0
O139 O 0.96948 0.22985 0.79297 0.0
O140 O 0.91419 0.21799 0.79457 0.0
C141 C 0.03028 0.19562 0.78852 0.0
O142 O 1.01519 0.19079 0.80622 0.0
C143 C 0.81809 0.15286 0.79185 0.0
C144 C 0.78759 0.14078 0.76366 0.0
C145 C 0.78412 0.13855 0.78442 0.0
N146 N 0.84035 0.16254 0.77613 0.0
N147 N 0.82195 0.15587 0.75936 0.0
C148 C 0.82906 0.15427 0.8133 0.0
H149 H 0.85587 0.15787 0.81411 0.0
H150 H 0.81024 0.12998 0.82137 0.0
H151 H 0.82915 0.1768 0.82087 0.0
C152 C 0.93139 0.11704 0.78203 0.0
N153 N 0.93131 0.14752 0.7795 0.0
N154 N 0.89868 0.14111 0.78035 0.0
C155 C 0.87715 0.10648 0.78343 0.0
C156 C 0.89708 0.09013 0.7848 0.0
C157 C 0.9637 0.11382 0.78194 0.0
H158 H 0.98103 0.12925 0.76931 0.0
H159 H 0.97799 0.12436 0.79628 0.0
H160 H 0.95751 0.08623 0.78064 0.0
O161 O 0.9598 0.2074 0.74579 0.0
O162 O 0.90515 0.19717 0.74808 0.0
H163 H 0.82915 0.09894 0.77062 0.0
H164 H 0.826 0.05981 0.78111 0.0
C165 C 0.83793 0.08855 0.78313 0.0
H166 H 0.82849 0.09347 0.79756 0.0
H167 H 0.83272 0.16028 0.74493 0.0
O168 O 1.01468 0.19779 0.77293 0.0
C169 C 0.93329 0.20747 0.73809 0.0
Co170 Co 0.84111 0.78677 0.7762 0.0
Co171 Co 0.86077 0.72686 0.77995 0.0
C172 C 0.79766 0.72307 0.80096 0.0
O173 O 0.80431 0.75325 0.79495 0.0
O174 O 0.81727 0.71061 0.79604 0.0
C175 C 0.82757 0.84018 0.79048 0.0
O176 O 0.81548 0.81897 0.80603 0.0
C177 C 0.88729 0.68929 0.80385 0.0
C178 C 0.90367 0.66418 0.78079 0.0
C179 C 0.90386 0.66961 0.80138 0.0
N180 N 0.87876 0.696 0.7856 0.0
N181 N 0.88812 0.68045 0.77188 0.0
C182 C 0.87904 0.70125 0.82318 0.0
H183 H 0.8545 0.70225 0.82171 0.0
H184 H 0.90038 0.7281 0.82678 0.0
H185 H 0.87626 0.68345 0.83577 0.0
C186 C 0.91616 0.82988 0.78774 0.0
N187 N 0.88713 0.79852 0.78457 0.0
N188 N 0.8955 0.77371 0.78579 0.0
C189 C 0.9302 0.78859 0.78942 0.0
C190 C 0.94428 0.82453 0.791 0.0
C191 C 0.91697 0.86429 0.78738 0.0
H192 H 0.89833 0.8639 0.79876 0.0
H193 H 0.94345 0.88653 0.79078 0.0
H194 H 0.90854 0.86829 0.77235 0.0
O195 O 0.83087 0.76399 0.74897 0.0
O196 O 0.84777 0.72391 0.75131 0.0
H197 H 0.97878 0.788 0.78548 0.0
H198 H 0.94851 0.75671 0.80319 0.0
C199 C 0.9506 0.76968 0.78855 0.0
H200 H 0.9401 0.74959 0.77653 0.0
H201 H 0.88496 0.68191 0.7564 0.0
O202 O 0.83881 0.83108 0.77528 0.0
C203 C 0.83528 0.73985 0.74123 0.0
Co204 Co 0.73932 0.58117 0.5744 0.0
Co205 Co 0.8176 0.64018 0.56808 0.0
C206 C 0.75631 0.6394 0.54628 0.0
O207 O 0.73325 0.60989 0.55334 0.0
O208 O 0.7884 0.65291 0.55126 0.0
C209 C 0.67316 0.52016 0.56475 0.0
O210 O 0.68099 0.53219 0.54625 0.0
C211 C 0.87928 0.67617 0.54229 0.0
C212 C 0.92221 0.7045 0.56412 0.0
C213 C 0.91548 0.69716 0.54377 0.0
N214 N 0.86551 0.67063 0.5609 0.0
N215 N 0.89123 0.68799 0.57387 0.0
C216 C 0.85778 0.66173 0.52357 0.0
H217 H 0.83139 0.6585 0.5256 0.0
H218 H 0.85439 0.63549 0.52033 0.0
H219 H 0.8707 0.67922 0.51051 0.0
C220 C 0.77187 0.53667 0.56667 0.0
N221 N 0.77335 0.56809 0.56711 0.0
N222 N 0.80618 0.59295 0.56474 0.0
C223 C 0.82659 0.57819 0.56307 0.0
C224 C 0.8055 0.54209 0.56399 0.0
C225 C 0.73977 0.50241 0.57132 0.0
H226 H 0.72787 0.5046 0.58558 0.0
H227 H 0.72043 0.49588 0.55904 0.0
H228 H 0.7458 0.48082 0.57271 0.0
O229 O 0.75336 0.60891 0.60009 0.0
O230 O 0.81019 0.64783 0.5964 0.0
H231 H 0.87566 0.61802 0.57501 0.0
H232 H 0.87715 0.58079 0.56461 0.0
C233 C 0.86585 0.59822 0.56279 0.0
H234 H 0.87499 0.61199 0.54819 0.0
H235 H 0.88774 0.68786 0.58943 0.0
O236 O 0.6938 0.53771 0.579 0.0
C237 C 0.78223 0.63381 0.60691 0.0
Co238 Co 0.45575 0.16593 0.57138 0.0
Co239 Co 0.3966 0.18646 0.56732 0.0
C240 C 0.39302 0.12488 0.54499 0.0
O241 O 0.42251 0.13053 0.5517 0.0
O242 O 0.38067 0.14457 0.54994 0.0
C243 C 0.51057 0.15647 0.55543 0.0
O244 O 0.49087 0.14898 0.53928 0.0
C245 C 0.35227 0.20665 0.545 0.0
C246 C 0.33307 0.22841 0.56854 0.0
C247 C 0.33131 0.22163 0.54805 0.0
N248 N 0.36556 0.20451 0.56281 0.0
N249 N 0.35386 0.21741 0.57686 0.0
C250 C 0.36207 0.19707 0.52539 0.0
H251 H 0.38836 0.1995 0.52653 0.0
H252 H 0.36204 0.21406 0.51304 0.0
H253 H 0.34275 0.1694 0.52178 0.0
C254 C 0.49969 0.24239 0.56423 0.0
N255 N 0.46816 0.2128 0.56437 0.0
N256 N 0.44355 0.22122 0.56207 0.0
C257 C 0.4587 0.25634 0.56019 0.0
C258 C 0.49477 0.27092 0.56149 0.0
C259 C 0.53362 0.24372 0.56895 0.0
H260 H 0.53967 0.23024 0.55682 0.0
H261 H 0.55567 0.27107 0.57008 0.0
H262 H 0.5311 0.22977 0.58331 0.0
O263 O 0.43233 0.15385 0.59843 0.0
O264 O 0.39277 0.17138 0.59578 0.0
H265 H 0.42385 0.27016 0.57464 0.0
H266 H 0.45685 0.30466 0.5592 0.0
C267 C 0.439 0.27594 0.56043 0.0
H268 H 0.42028 0.26709 0.54767 0.0
H269 H 0.36036 0.21903 0.59209 0.0
O270 O 0.50002 0.16335 0.57175 0.0
C271 C 0.408 0.15821 0.60594 0.0
Co272 Co 0.86495 0.29151 0.5707 0.0
Co273 Co 0.84899 0.21415 0.56464 0.0
C274 C 0.90419 0.27281 0.54016 0.0
O275 O 0.89896 0.29555 0.54906 0.0
O276 O 0.88563 0.24029 0.54429 0.0
C277 C 0.86521 0.35491 0.55893 0.0
O278 O 0.86254 0.34277 0.54055 0.0
C279 C 0.82162 0.14447 0.54582 0.0
C280 C 0.80972 0.11117 0.57287 0.0
C281 C 0.80662 0.10985 0.5521 0.0
N282 N 0.83259 0.16518 0.56221 0.0
N283 N 0.82614 0.14512 0.57827 0.0
C284 C 0.82208 0.15746 0.52494 0.0
H285 H 0.82652 0.1846 0.52532 0.0
H286 H 0.79709 0.13986 0.51709 0.0
H287 H 0.84369 0.15741 0.51633 0.0
C288 C 0.78697 0.25607 0.56407 0.0
N289 N 0.8175 0.25569 0.56528 0.0
N290 N 0.8109 0.22322 0.56296 0.0
C291 C 0.77608 0.20207 0.56023 0.0
C292 C 0.75979 0.22213 0.56065 0.0
C293 C 0.78398 0.28843 0.56557 0.0
H294 H 0.79925 0.30431 0.57867 0.0
H295 H 0.79487 0.30422 0.55171 0.0
H296 H 0.7564 0.28225 0.56709 0.0
O297 O 0.881 0.28169 0.59683 0.0
O298 O 0.8718 0.22791 0.59118 0.0
H299 H 0.76877 0.15245 0.57005 0.0
H300 H 0.72939 0.15081 0.56116 0.0
C301 C 0.75806 0.16296 0.55867 0.0
H302 H 0.76248 0.15558 0.54346 0.0
H303 H 0.83128 0.15451 0.59302 0.0
O304 O 0.86717 0.33753 0.57367 0.0
C305 C 0.88275 0.25485 0.60231 0.0
Co306 Co 0.91339 0.3974 0.10829 0.0
Co307 Co 0.98145 0.47083 0.11361 0.0
C308 C 0.97247 0.40919 0.13674 0.0
O309 O 0.94328 0.39109 0.12783 0.0
O310 O 0.99138 0.44198 0.13339 0.0
C311 C 0.85566 0.34093 0.12699 0.0
O312 O 0.87567 0.35581 0.14274 0.0
C313 C 0.02977 0.54081 0.13045 0.0
C314 C 0.05145 0.57112 0.10242 0.0
C315 C 0.05088 0.5746 0.12313 0.0
N316 N 0.01787 0.51867 0.11469 0.0
N317 N 0.03175 0.53687 0.09806 0.0
C318 C 0.01779 0.53017 0.15168 0.0
H319 H 0.99425 0.5036 0.15211 0.0
H320 H 1.01199 0.54942 0.15897 0.0
H321 H 0.03913 0.5297 0.16033 0.0
C322 C 0.87955 0.43979 0.11553 0.0
N323 N 0.90844 0.43656 0.11494 0.0
N324 N 0.93653 0.46764 0.11717 0.0
C325 C 0.92613 0.49178 0.11879 0.0
C326 C 0.88972 0.47482 0.11809 0.0
C327 C 0.84327 0.41052 0.11112 0.0
H328 H 0.84383 0.39545 0.09787 0.0
H329 H 0.83352 0.39255 0.12424 0.0
H330 H 0.82484 0.42031 0.10813 0.0
O331 O 0.9349 0.40324 0.0812 0.0
O332 O 0.98303 0.45502 0.08584 0.0
H333 H 0.96965 0.53856 0.10694 0.0
H334 H 0.93607 0.54531 0.1182 0.0
C335 C 0.95039 0.53059 0.11939 0.0
H336 H 0.96466 0.53769 0.13388 0.0
H337 H 0.02605 0.52621 0.08359 0.0
O338 O 0.86656 0.35425 0.10965 0.0
C339 C 0.96372 0.42867 0.0748 0.0
Co340 Co 0.63737 0.53038 0.10776 0.0
Co341 Co 0.5587 0.51282 0.11053 0.0
C342 C 0.61602 0.57156 0.13457 0.0
O343 O 0.63949 0.56517 0.12794 0.0
O344 O 0.58408 0.55304 0.12917 0.0
C345 C 0.70104 0.53226 0.12154 0.0
O346 O 0.68752 0.52886 0.13961 0.0
C347 C 0.48794 0.48627 0.12822 0.0
C348 C 0.45589 0.47304 0.10059 0.0
C349 C 0.45355 0.47113 0.1214 0.0
N350 N 0.5094 0.4961 0.11212 0.0
N351 N 0.49006 0.48878 0.09569 0.0
C352 C 0.50006 0.48822 0.14946 0.0
H353 H 0.52723 0.4927 0.14979 0.0
H354 H 0.48214 0.46378 0.15771 0.0
H355 H 0.49969 0.51039 0.15719 0.0
C356 C 0.60226 0.45292 0.11646 0.0
N357 N 0.60155 0.48311 0.11399 0.0
N358 N 0.56878 0.47612 0.1153 0.0
C359 C 0.54779 0.44147 0.11855 0.0
C360 C 0.56824 0.42569 0.11962 0.0
C361 C 0.63485 0.45023 0.11599 0.0
H362 H 0.64985 0.46161 0.13003 0.0
H363 H 0.62893 0.42268 0.11501 0.0
H364 H 0.65138 0.46518 0.10299 0.0
O365 O 0.62866 0.54467 0.08071 0.0
O366 O 0.57247 0.52976 0.0828 0.0
H367 H 0.49699 0.39426 0.11657 0.0
H368 H 0.49929 0.42768 0.13314 0.0
C369 C 0.50854 0.42295 0.11859 0.0
H370 H 0.49914 0.43301 0.10622 0.0
H371 H 0.50008 0.49307 0.08107 0.0
O372 O 0.68427 0.53371 0.10632 0.0
C373 C 0.60099 0.54216 0.07296 0.0
Co374 Co 0.50653 0.12058 0.1094 0.0
Co375 Co 0.52447 0.05946 0.1129 0.0
C376 C 0.46132 0.0568 0.13345 0.0
O377 O 0.46891 0.08744 0.12784 0.0
O378 O 0.48035 0.04374 0.12839 0.0
C379 C 0.49474 0.17476 0.12397 0.0
O380 O 0.48253 0.15339 0.13946 0.0
C381 C 0.54858 0.02029 0.13729 0.0
C382 C 0.56626 0.99578 0.11459 0.0
C383 C 0.56517 1.00055 0.13517 0.0
N384 N 0.5413 0.02769 0.11888 0.0
N385 N 0.55139 0.01245 0.10537 0.0
C386 C 0.53929 0.03181 0.15644 0.0
H387 H 0.51465 0.0325 0.15456 0.0
H388 H 0.56026 0.05873 0.16027 0.0
H389 H 0.53611 0.01391 0.16905 0.0
C390 C 0.58113 0.16204 0.12207 0.0
N391 N 0.55193 0.13113 0.11827 0.0
N392 N 0.55958 0.10581 0.11946 0.0
C393 C 0.59399 0.11992 0.12375 0.0
C394 C 0.60858 0.15585 0.12577 0.0
C395 C 0.58278 0.19685 0.12191 0.0
H396 H 0.5747 0.20139 0.1069 0.0
H397 H 0.56428 0.1967 0.1333 0.0
H398 H 0.60942 0.21866 0.12545 0.0
O399 O 0.49659 0.09822 0.08203 0.0
O400 O 0.513 0.05769 0.08399 0.0
H401 H 0.60376 0.08082 0.1109 0.0
H402 H 0.64224 0.1184 0.12077 0.0
C403 C 0.6138 0.10039 0.1232 0.0
H404 H 0.61048 0.08673 0.13774 0.0
H405 H 0.54933 0.01452 0.08983 0.0
O406 O 0.50539 0.16547 0.10859 0.0
C407 C 0.50108 0.07429 0.07404 0.0
Co408 Co 0.4076 0.91172 0.90998 0.0
Co409 Co 0.48023 0.97736 0.89818 0.0
C410 C 0.412 0.96401 0.87953 0.0
O411 O 0.39501 0.93551 0.88933 0.0
O412 O 0.44515 0.98316 0.88146 0.0
C413 C 0.34359 0.84713 0.90244 0.0
O414 O 0.34819 0.85946 0.884 0.0
C415 C 0.53991 0.01863 0.87114 0.0
C416 C 0.58351 0.0461 0.89267 0.0
C417 C 0.5762 0.04005 0.87228 0.0
N418 N 0.52682 0.01143 0.88995 0.0
N419 N 0.55295 0.02856 0.90273 0.0
C420 C 0.5177 1.00506 0.85263 0.0
H421 H 0.49225 1.00391 0.85502 0.0
H422 H 0.51225 0.97805 0.84944 0.0
H423 H 0.53093 0.02206 0.83943 0.0
C424 C 0.44678 0.87491 0.90076 0.0
N425 N 0.4443 0.90425 0.90109 0.0
N426 N 0.47485 0.93138 0.89626 0.0
C427 C 0.49789 0.91998 0.89302 0.0
C428 C 0.48075 0.88385 0.89557 0.0
C429 C 0.41835 0.83967 0.90763 0.0
H430 H 0.40776 0.84227 0.92228 0.0
H431 H 0.39679 0.82918 0.89644 0.0
H432 H 0.4279 0.82075 0.90932 0.0
O433 O 0.42181 0.94132 0.93464 0.0
O434 O 0.47417 0.98662 0.92682 0.0
H435 H 0.54791 0.96373 0.90059 0.0
H436 H 0.55035 0.92844 0.88817 0.0
C437 C 0.53612 0.9433 0.88877 0.0
H438 H 0.53931 0.9563 0.87404 0.0
H439 H 0.55013 0.02699 0.91836 0.0
O440 O 0.36538 0.8656 0.91604 0.0
C441 C 0.44908 0.97018 0.93926 0.0
Co442 Co 0.11831 0.49169 0.90692 0.0
Co443 Co 0.06165 0.51508 0.90238 0.0
C444 C 0.05945 0.45657 0.87737 0.0
O445 O 0.08771 0.46037 0.88505 0.0
O446 O 0.04707 0.47617 0.88263 0.0
C447 C 0.17921 0.48624 0.89538 0.0
O448 O 0.169 0.48646 0.87681 0.0
C449 C 0.02338 0.54748 0.8837 0.0
C450 C 1.00301 0.56045 0.91083 0.0
C451 C 1.00499 0.56387 0.89007 0.0
N452 N 0.03213 0.53536 0.90002 0.0
N453 N 0.01928 0.54266 0.91613 0.0
C454 C 0.03555 0.54643 0.86281 0.0
H455 H 0.05733 0.54056 0.86317 0.0
H456 H 0.0441 0.57177 0.85503 0.0
H457 H 1.01343 0.52552 0.85417 0.0
C458 C 0.16528 0.56899 0.90345 0.0
N459 N 0.13324 0.54011 0.90225 0.0
N460 N 0.10964 0.54993 0.89991 0.0
C461 C 0.12601 0.58532 0.89948 0.0
C462 C 0.16177 0.59851 0.90164 0.0
C463 C 0.1985 0.56852 0.90754 0.0
H464 H 0.19507 0.5521 0.92095 0.0
H465 H 0.20462 0.55699 0.89439 0.0
H466 H 0.22105 0.59522 0.90998 0.0
O467 O 0.09163 0.47572 0.93271 0.0
O468 O 0.05374 0.49504 0.92978 0.0
H469 H 0.08811 0.59663 0.91234 0.0
H470 H 0.12609 0.63453 0.90212 0.0
C471 C 0.10756 0.60615 0.89994 0.0
H472 H 0.09351 0.60255 0.88553 0.0
H473 H 0.02284 0.53674 0.93085 0.0
O474 O 0.16067 0.48681 0.90992 0.0
C475 C 0.06688 0.47969 0.93976 0.0
Co476 Co 0.53582 0.63073 0.90453 0.0
Co477 Co 0.51689 0.55174 0.90022 0.0
C478 C 0.57502 0.6092 0.87617 0.0
O479 O 0.56913 0.63261 0.88344 0.0
O480 O 0.55664 0.57719 0.8814 0.0
C481 C 0.53262 0.69142 0.89106 0.0
O482 O 0.52244 0.674 0.87402 0.0
C483 C 0.49383 0.48135 0.88236 0.0
C484 C 0.48076 0.44926 0.90999 0.0
C485 C 0.48182 0.44729 0.8892 0.0
N486 N 0.49929 0.5022 0.89842 0.0
N487 N 0.49137 0.48274 0.91484 0.0
C488 C 0.50147 0.49426 0.86109 0.0
H489 H 0.51985 0.52287 0.86061 0.0
H490 H 0.47673 0.48906 0.8537 0.0
H491 H 0.51258 0.48036 0.85254 0.0
C492 C 0.45775 0.59594 0.90012 0.0
N493 N 0.48815 0.59535 0.89928 0.0
N494 N 0.48082 0.56278 0.89625 0.0
C495 C 0.44579 0.54198 0.89455 0.0
C496 C 0.43007 0.56231 0.89681 0.0
C497 C 0.45477 0.62706 0.90635 0.0
H498 H 0.47502 0.64269 0.91773 0.0
H499 H 0.45873 0.64372 0.89297 0.0
H500 H 0.42844 0.61904 0.91261 0.0
O501 O 0.55146 0.62159 0.93088 0.0
O502 O 0.53514 0.56511 0.92794 0.0
H503 H 0.43312 0.49248 0.90737 0.0
H504 H 0.3986 0.49129 0.89207 0.0
C505 C 0.4274 0.50282 0.89353 0.0
H506 H 0.43729 0.49475 0.88042 0.0
H507 H 0.49344 0.4924 0.92943 0.0
O508 O 0.5399 0.67793 0.90592 0.0
C509 C 0.54864 0.59342 0.93806 0.0
Co510 Co 0.58324 0.72441 0.43932 0.0
Co511 Co 0.64291 0.80378 0.44268 0.0
C512 C 0.64581 0.74565 0.46538 0.0
O513 O 0.61616 0.72197 0.45892 0.0
O514 O 0.65843 0.77749 0.46008 0.0
C515 C 0.5307 0.65794 0.45443 0.0
O516 O 0.55318 0.66694 0.46933 0.0
C517 C 0.67888 0.86839 0.46582 0.0
C518 C 0.70672 0.90891 0.44261 0.0
C519 C 0.6994 0.90439 0.46306 0.0
N520 N 0.67352 0.85258 0.44783 0.0
N521 N 0.69062 0.87688 0.43402 0.0
C522 C 0.66489 0.84891 0.48523 0.0
H523 H 0.66255 0.82272 0.48441 0.0
H524 H 0.6383 0.84495 0.48804 0.0
H525 H 0.68218 0.86369 0.49803 0.0
C526 C 0.53971 0.75704 0.4489 0.0
N527 N 0.57118 0.75908 0.44661 0.0
N528 N 0.59593 0.79221 0.44747 0.0
C529 C 0.58095 0.81232 0.44979 0.0
C530 C 0.54491 0.7907 0.45103 0.0
C531 C 0.50533 0.72352 0.4487 0.0
H532 H 0.50123 0.71105 0.43367 0.0
H533 H 0.50588 0.70536 0.46006 0.0
H534 H 0.48309 0.72778 0.45221 0.0
O535 O 0.60694 0.73564 0.41214 0.0
O536 O 0.64706 0.79248 0.41457 0.0
H537 H 0.62091 0.85977 0.43611 0.0
H538 H 0.58197 0.86097 0.44296 0.0
C539 C 0.59998 0.85142 0.44759 0.0
H540 H 0.61191 0.86373 0.46219 0.0
H541 H 0.69048 0.8717 0.41867 0.0
O542 O 0.53876 0.67796 0.43914 0.0
C543 C 0.63161 0.76401 0.40455 0.0
Co544 Co 0.29979 0.85942 0.44362 0.0
Co545 Co 0.2228 0.84557 0.44386 0.0
C546 C 0.27876 0.90346 0.46838 0.0
O547 O 0.3019 0.8964 0.46204 0.0
O548 O 0.24684 0.88512 0.46298 0.0
C549 C 0.35729 0.84785 0.43347 0.0
O550 O 0.33926 0.83324 0.41704 0.0
C551 C 0.15198 0.82002 0.45977 0.0
C552 C 0.12127 0.80918 0.43172 0.0
C553 C 0.11804 0.80599 0.45248 0.0
N554 N 0.17408 0.83053 0.444 0.0
N555 N 0.15564 0.82471 0.42731 0.0
C556 C 0.16307 0.81987 0.48105 0.0
H557 H 0.18995 0.82359 0.4815 0.0
H558 H 0.14441 0.79496 0.48864 0.0
H559 H 0.16304 0.84172 0.48937 0.0
C560 C 0.26232 0.7833 0.45508 0.0
N561 N 0.26278 0.81357 0.45078 0.0
N562 N 0.23027 0.80732 0.44978 0.0
C563 C 0.20819 0.7727 0.4527 0.0
C564 C 0.22773 0.75638 0.45633 0.0
C565 C 0.29425 0.78017 0.45858 0.0
H566 H 0.3047 0.77756 0.44387 0.0
H567 H 0.31463 0.80381 0.46641 0.0
H568 H 0.28791 0.75669 0.46779 0.0
O569 O 0.29372 0.87093 0.41515 0.0
O570 O 0.23988 0.8633 0.41667 0.0
H571 H 0.15838 0.72656 0.44611 0.0
H572 H 0.1567 0.75667 0.46374 0.0
C573 C 0.1693 0.75472 0.44972 0.0
H574 H 0.16285 0.76722 0.43725 0.0
H575 H 0.16636 0.82973 0.41285 0.0
O576 O 0.34546 0.86099 0.44618 0.0
C577 C 0.268 0.87201 0.40699 0.0
Co578 Co 0.17672 0.45377 0.44439 0.0
Co579 Co 0.19163 0.39045 0.4457 0.0
C580 C 0.13004 0.38821 0.46755 0.0
O581 O 0.13829 0.41928 0.46234 0.0
O582 O 0.14861 0.37477 0.46216 0.0
C583 C 0.16331 0.50741 0.4596 0.0
O584 O 0.14662 0.48402 0.47373 0.0
C585 C 0.21271 0.34267 0.46448 0.0
C586 C 0.22226 0.31902 0.4376 0.0
C587 C 0.22322 0.31897 0.45846 0.0
N588 N 0.20632 0.35624 0.4479 0.0
N589 N 0.212 0.34187 0.43192 0.0
C590 C 0.20702 0.35107 0.4855 0.0
H591 H 0.18923 0.36212 0.48556 0.0
H592 H 0.23245 0.37091 0.49204 0.0
H593 H 0.19602 0.32723 0.49508 0.0
C594 C 0.25232 0.49201 0.45605 0.0
N595 N 0.22204 0.46196 0.45244 0.0
N596 N 0.22824 0.43561 0.45279 0.0
C597 C 0.26266 0.44809 0.45623 0.0
C598 C 0.27904 0.48418 0.45861 0.0
C599 C 0.25553 0.5275 0.45675 0.0
H600 H 0.24982 0.53413 0.44162 0.0
H601 H 0.23591 0.527 0.46743 0.0
H602 H 0.28204 0.54802 0.46158 0.0
O603 O 0.16564 0.43414 0.41622 0.0
O604 O 0.17914 0.39157 0.41742 0.0
H605 H 0.26938 0.40845 0.44146 0.0
H606 H 0.30908 0.44343 0.45201 0.0
C607 C 0.28043 0.4267 0.45436 0.0
H608 H 0.27601 0.41121 0.4683 0.0
H609 H 0.20895 0.34775 0.41709 0.0
O610 O 0.17739 0.49974 0.44519 0.0
C611 C 0.16861 0.40961 0.40779 0.0
H612 H 0.43393 0.48842 0.1573 0.0
H613 H 0.3983 0.4086 0.11084 0.0
H614 H 0.34206 0.3743 0.12866 0.0
H615 H 0.3924 0.4294 0.19966 0.0
H616 H 0.38049 0.45829 0.21224 0.0
H617 H 0.4187 0.47617 0.19628 0.0
H618 H 0.39408 0.50881 0.17539 0.0
H619 H 0.35573 0.4909 0.19122 0.0
H620 H 0.35105 0.48431 0.16436 0.0
H621 H 0.29075 0.34784 0.15161 0.0
H622 H 0.24542 0.33202 0.17748 0.0
H623 H 0.31141 0.43039 0.20832 0.0
C624 C 0.41442 0.46351 0.15108 0.0
C625 C 0.42052 0.45094 0.1328 0.0
C626 C 0.39409 0.41867 0.12482 0.0
C627 C 0.36213 0.39894 0.13486 0.0
C628 C 0.3568 0.41202 0.15278 0.0
C629 C 0.38202 0.4436 0.16081 0.0
C630 C 0.36881 0.45202 0.17996 0.0
C631 C 0.39145 0.45408 0.19811 0.0
C632 C 0.36733 0.48603 0.17758 0.0
C633 C 0.3323 0.42025 0.18135 0.0
C634 C 0.32616 0.39745 0.16557 0.0
C635 C 0.29489 0.36582 0.1638 0.0
C636 C 0.26897 0.35733 0.17844 0.0
C637 C 0.27403 0.38072 0.19442 0.0
C638 C 0.30644 0.41236 0.19601 0.0
H639 H 0.63356 0.88113 0.18734 0.0
H640 H 0.67351 0.95783 0.23557 0.0
H641 H 0.65232 0.99294 0.21786 0.0
H642 H 0.65367 0.94286 0.14613 0.0
H643 H 0.61406 0.91465 0.13245 0.0
H644 H 0.63344 0.89592 0.14853 0.0
H645 H 0.57479 0.8616 0.16794 0.0
H646 H 0.55528 0.88033 0.15198 0.0
H647 H 0.55503 0.8851 0.17893 0.0
H648 H 0.62854 0.02052 0.1949 0.0
H649 H 0.60033 0.03757 0.16885 0.0
H650 H 0.57192 0.94174 0.13602 0.0
C651 C 0.63825 0.90556 0.19399 0.0
C652 C 0.65553 0.917 0.21273 0.0
C653 C 0.66033 0.94861 0.22124 0.0
C654 C 0.64852 0.9688 0.21127 0.0
C655 C 0.63157 0.95686 0.19286 0.0
C656 C 0.62619 0.92593 0.18431 0.0
C657 C 0.60607 0.91867 0.16468 0.0
C658 C 0.62813 0.918 0.1469 0.0
C659 C 0.57069 0.88439 0.16597 0.0
C660 C 0.60104 0.95036 0.16361 0.0
C661 C 0.61622 0.9721 0.17998 0.0
C662 C 0.61589 1.00338 0.18222 0.0
C663 C 0.59923 0.01257 0.16745 0.0
C664 C 0.5824 0.99025 0.15083 0.0
C665 C 0.58391 0.959 0.14877 0.0
H666 H 0.08482 0.5962 0.15973 0.0
H667 H 0.04337 0.6287 0.11012 0.0
H668 H 0.06146 0.68491 0.12718 0.0
H669 H 0.06058 0.63615 0.19965 0.0
H670 H 0.10014 0.64981 0.21392 0.0
H671 H 0.08323 0.61154 0.19809 0.0
H672 H 0.14281 0.63826 0.17941 0.0
H673 H 0.15988 0.67661 0.19517 0.0
H674 H 0.16086 0.68111 0.16816 0.0
H675 H 0.08132 0.73605 0.14991 0.0
H676 H 0.10643 0.78182 0.17588 0.0
H677 H 0.13948 0.71915 0.20997 0.0
C678 C 0.0794 0.61512 0.15259 0.0
C679 C 0.06254 0.60814 0.13369 0.0
C680 C 0.05641 0.63368 0.12457 0.0
C681 C 0.06641 0.66558 0.13418 0.0
C682 C 0.08289 0.67172 0.1528 0.0
C683 C 0.0897 0.64746 0.16188 0.0
C684 C 0.10885 0.66137 0.18168 0.0
C685 C 0.08688 0.63835 0.19938 0.0
C686 C 0.14526 0.66453 0.18106 0.0
C687 C 0.11164 0.69714 0.18224 0.0
C688 C 0.09616 0.70232 0.16551 0.0
C689 C 0.0943 0.73272 0.16287 0.0
C690 C 0.10917 0.75887 0.17758 0.0
C691 C 0.1265 0.7549 0.19449 0.0
C692 C 0.1271 0.72327 0.19698 0.0
H693 H 0.44994 0.4268 0.85183 0.0
H694 H 0.49079 0.39328 0.90128 0.0
H695 H 0.47261 0.33735 0.88376 0.0
H696 H 0.37532 0.34471 0.84228 0.0
H697 H 0.37701 0.34967 0.81529 0.0
H698 H 0.39466 0.38781 0.83122 0.0
H699 H 0.45465 0.41343 0.8131 0.0
H700 H 0.4371 0.37546 0.79699 0.0
H701 H 0.47612 0.38769 0.81153 0.0
H702 H 0.44819 0.28424 0.86149 0.0
H703 H 0.41956 0.23787 0.83577 0.0
H704 H 0.3956 0.30637 0.8006 0.0
C705 C 0.45609 0.40828 0.85874 0.0
C706 C 0.47253 0.41484 0.87777 0.0
C707 C 0.47843 0.38894 0.88665 0.0
C708 C 0.46829 0.35712 0.8768 0.0
C709 C 0.45221 0.3515 0.85806 0.0
C710 C 0.44623 0.37638 0.84907 0.0
C711 C 0.42743 0.3633 0.82913 0.0
C712 C 0.39148 0.36125 0.82952 0.0
C713 C 0.45019 0.38634 0.81165 0.0
C714 C 0.42355 0.32711 0.82841 0.0
C715 C 0.43801 0.32082 0.84525 0.0
C716 C 0.43679 0.28886 0.84823 0.0
C717 C 0.4202 0.26257 0.83364 0.0
C718 C 0.405 0.2684 0.81636 0.0
C719 C 0.40714 0.30126 0.81365 0.0
H720 H 0.7643 0.15568 0.82032 0.0
H721 H 0.72742 0.07793 0.77265 0.0
H722 H 0.67027 0.04479 0.78972 0.0
H723 H 0.72032 0.09548 0.8615 0.0
H724 H 0.70957 0.12477 0.87461 0.0
H725 H 0.74799 0.14224 0.85885 0.0
H726 H 0.72552 0.17747 0.83863 0.0
H727 H 0.68693 0.15995 0.85425 0.0
H728 H 0.6826 0.15476 0.8273 0.0
H729 H 0.61841 0.01871 0.81237 0.0
H730 H 0.57341 1.00255 0.83845 0.0
H731 H 0.64129 0.09884 0.87068 0.0
C732 C 0.74431 0.13148 0.81365 0.0
C733 C 0.75036 0.11914 0.79527 0.0
C734 C 0.72328 0.08783 0.78671 0.0
C735 C 0.69078 0.06877 0.79631 0.0
C736 C 0.68558 0.08156 0.81437 0.0
C737 C 0.71141 0.11226 0.82294 0.0
C738 C 0.69846 0.12041 0.84227 0.0
C739 C 0.72039 0.12073 0.86038 0.0
C740 C 0.69837 0.15521 0.8405 0.0
C741 C 0.66142 0.08942 0.8432 0.0
C742 C 0.65471 0.06731 0.82699 0.0
C743 C 0.62297 0.03625 0.82488 0.0
C744 C 0.59722 0.02758 0.83966 0.0
C745 C 0.60295 0.05024 0.85616 0.0
C746 C 0.63575 0.08139 0.85799 0.0
H747 H 0.97089 0.54904 0.85338 0.0
H748 H 1.01369 0.62697 0.90087 0.0
H749 H 0.99398 0.66306 0.88283 0.0
H750 H 0.99142 0.61008 0.81136 0.0
H751 H 0.95107 0.58208 0.79825 0.0
H752 H 0.97037 0.56316 0.81425 0.0
H753 H 0.91235 0.53052 0.83441 0.0
H754 H 0.89295 0.54947 0.81855 0.0
H755 H 0.89389 0.55517 0.84547 0.0
H756 H 0.97027 0.69082 0.85996 0.0
H757 H 0.94113 0.70756 0.8343 0.0
H758 H 0.90983 0.6104 0.80224 0.0
C759 C 0.97661 0.57399 0.85975 0.0
C760 C 0.99417 0.5855 0.87839 0.0
C761 C 1.00031 0.61777 0.88658 0.0
C762 C 0.98934 0.6385 0.87643 0.0
C763 C 0.9719 0.62641 0.85817 0.0
C764 C 0.96536 0.59488 0.8499 0.0
C765 C 0.94455 0.5874 0.83051 0.0
C766 C 0.96562 0.58558 0.81253 0.0
C767 C 0.90881 0.55364 0.83236 0.0
C768 C 0.94035 0.61957 0.8293 0.0
C769 C 0.95663 0.64179 0.84535 0.0
C770 C 0.95688 0.67338 0.8475 0.0
C771 C 0.93971 0.6824 0.83297 0.0
C772 C 0.92182 0.65961 0.8167 0.0
C773 C 0.92274 0.62805 0.81471 0.0
H774 H 0.75235 0.74191 0.81835 0.0
H775 H 0.76893 0.65336 0.80953 0.0
H776 H 0.71275 0.61469 0.82637 0.0
H777 H 0.71347 0.71574 0.86801 0.0
H778 H 0.68272 0.73095 0.86404 0.0
H779 H 0.72425 0.7518 0.85111 0.0
H780 H 0.69188 0.73998 0.81696 0.0
H781 H 0.65022 0.71874 0.82977 0.0
H782 H 0.65935 0.69577 0.81035 0.0
H783 H 0.65413 0.58503 0.84295 0.0
H784 H 0.59946 0.56718 0.86165 0.0
H785 H 0.62114 0.67497 0.86107 0.0
C786 C 0.74425 0.71443 0.82004 0.0
C787 C 0.7651 0.70072 0.81252 0.0
C788 C 0.75356 0.66459 0.81516 0.0
C789 C 0.72155 0.64231 0.82462 0.0
C790 C 0.70142 0.65651 0.83155 0.0
C791 C 0.71245 0.69178 0.82966 0.0
C792 C 0.68611 0.70037 0.83899 0.0
C793 C 0.70263 0.72624 0.85658 0.0
C794 C 0.671 0.71455 0.82306 0.0
C795 C 0.65856 0.66437 0.84635 0.0
C796 C 0.66782 0.63945 0.84169 0.0
C797 C 0.64664 0.60431 0.84679 0.0
C798 C 0.61552 0.59443 0.85736 0.0
C799 C 0.6059 0.61963 0.86293 0.0
C800 C 0.62763 0.65502 0.85706 0.0
H801 H 0.4343 0.02912 0.86187 0.0
H802 H 0.34363 0.92488 0.86845 0.0
H803 H 0.30755 0.94378 0.85012 0.0
H804 H 0.38818 0.07651 0.8685 0.0
H805 H 0.4128 0.10951 0.84983 0.0
H806 H 0.43284 0.08818 0.86299 0.0
H807 H 0.44729 0.06927 0.82904 0.0
H808 H 0.42766 0.0909 0.81577 0.0
H809 H 0.41262 0.04519 0.81117 0.0
H810 H 0.28036 0.97303 0.83258 0.0
H811 H 0.26362 1.01045 0.81397 0.0
H812 H 0.3708 0.09708 0.81759 0.0
C813 C 0.40697 1.01021 0.85923 0.0
C814 C 0.39188 0.97546 0.86671 0.0
C815 C 0.35591 0.95162 0.86302 0.0
C816 C 0.33507 0.96211 0.85262 0.0
C817 C 0.35044 0.99656 0.84589 0.0
C818 C 0.38555 0.02028 0.8488 0.0
C819 C 0.395 0.0558 0.83986 0.0
C820 C 0.40797 0.08417 0.85628 0.0
C821 C 0.42226 0.06587 0.82295 0.0
C822 C 0.35963 0.04813 0.83158 0.0
C823 C 0.33446 0.01374 0.83539 0.0
C824 C 0.29982 0.99996 0.82939 0.0
C825 C 0.29061 0.02159 0.8188 0.0
C826 C 0.31587 0.0568 0.81417 0.0
C827 C 0.35084 0.07039 0.82095 0.0
H828 H 0.07772 0.41008 0.86102 0.0
H829 H 0.99298 0.4338 0.8635 0.0
H830 H 0.95499 0.37965 0.84471 0.0
H831 H 0.05824 0.37309 0.81008 0.0
H832 H 0.06976 0.34009 0.81594 0.0
H833 H 0.09078 0.38142 0.82905 0.0
H834 H 0.07151 0.34843 0.8631 0.0
H835 H 0.05 0.30702 0.85009 0.0
H836 H 0.02569 0.3181 0.86759 0.0
H837 H 0.92471 0.32114 0.82792 0.0
H838 H 0.90607 0.26538 0.8103 0.0
H839 H 1.01075 0.27998 0.81723 0.0
C840 C 0.05133 0.40416 0.85739 0.0
C841 C 0.03841 0.42632 0.86383 0.0
C842 C 1.00364 0.41745 0.85874 0.0
C843 C 0.98173 0.3866 0.84814 0.0
C844 C 0.99497 0.36495 0.84251 0.0
C845 C 0.02912 0.37356 0.84661 0.0
C846 C 0.03677 0.34569 0.83866 0.0
C847 C 0.06559 0.36099 0.82247 0.0
C848 C 0.04657 0.32882 0.85589 0.0
C849 C 1.00146 0.31994 0.82965 0.0
C850 C 0.9777 0.33149 0.83222 0.0
C851 C 0.94316 0.31196 0.82564 0.0
C852 C 0.93278 0.28015 0.81573 0.0
C853 C 0.95691 0.26819 0.81227 0.0
C854 C 0.99165 0.28834 0.81956 0.0
H855 H 0.74706 0.74831 0.19361 0.0
H856 H 0.66001 0.76834 0.19798 0.0
H857 H 0.62209 0.71301 0.1802 0.0
H858 H 0.72527 0.70961 0.1433 0.0
H859 H 0.73862 0.67784 0.1488 0.0
H860 H 0.75927 0.7195 0.16156 0.0
H861 H 0.74304 0.68735 0.19592 0.0
H862 H 0.72193 0.64559 0.18326 0.0
H863 H 0.69785 0.65598 0.20133 0.0
H864 H 0.59248 0.65415 0.16385 0.0
H865 H 0.57462 0.59856 0.14623 0.0
H866 H 0.68098 0.61686 0.15105 0.0
C867 C 0.72013 0.74127 0.19065 0.0
C868 C 0.70659 0.7628 0.19729 0.0
C869 C 0.67115 0.7525 0.19305 0.0
C870 C 0.64927 0.72096 0.18304 0.0
C871 C 0.6632 0.70003 0.17713 0.0
C872 C 0.69792 0.70994 0.18046 0.0
C873 C 0.70625 0.68269 0.17226 0.0
C874 C 0.73399 0.69835 0.15548 0.0
C875 C 0.71795 0.66698 0.18921 0.0
C876 C 0.67071 0.65585 0.16395 0.0
C877 C 0.64624 0.66631 0.16712 0.0
C878 C 0.61147 0.64579 0.16113 0.0
C879 C 0.60155 0.61409 0.15121 0.0
C880 C 0.62635 0.6032 0.14714 0.0
C881 C 0.66134 0.62434 0.15387 0.0
H882 H 0.28899 0.01136 0.19798 0.0
H883 H 0.26094 0.90203 0.19189 0.0
H884 H 0.31421 0.91956 0.17212 0.0
H885 H 0.32579 0.03723 0.14698 0.0
H886 H 0.36037 0.07969 0.1549 0.0
H887 H 0.31923 0.05878 0.16826 0.0
H888 H 0.35228 0.06454 0.20156 0.0
H889 H 0.39348 0.0851 0.18827 0.0
H890 H 0.38102 0.0464 0.20317 0.0
H891 H 0.37195 0.94802 0.15534 0.0
H892 H 0.42847 0.98603 0.13873 0.0
H893 H 0.4194 0.0774 0.15358 0.0
C894 C 0.29385 0.99111 0.19227 0.0
C895 C 0.27063 0.95527 0.19663 0.0
C896 C 0.2781 0.92964 0.18885 0.0
C897 C 0.30845 0.9393 0.17761 0.0
C898 C 0.3311 0.97471 0.17399 0.0
C899 C 0.32404 1.00028 0.18074 0.0
C900 C 0.35301 0.03647 0.17446 0.0
C901 C 0.33874 0.05407 0.16031 0.0
C902 C 0.37101 0.05948 0.19297 0.0
C903 C 0.37747 0.02707 0.16341 0.0
C904 C 0.36431 0.99128 0.16352 0.0
C905 C 0.38242 0.97609 0.15493 0.0
C906 C 0.41465 0.99798 0.14562 0.0
C907 C 0.42839 0.03472 0.14474 0.0
C908 C 0.40952 0.0494 0.15388 0.0
H909 H 0.1054 0.36338 0.19554 0.0
H910 H 1.01344 0.26146 0.20656 0.0
H911 H 0.9767 0.28041 0.18927 0.0
H912 H 0.06273 0.41446 0.2023 0.0
H913 H 0.08559 0.44484 0.18213 0.0
H914 H 0.10617 0.42394 0.19521 0.0
H915 H 0.11528 0.40015 0.16144 0.0
H916 H 0.09512 0.42132 0.14824 0.0
H917 H 0.07817 0.3749 0.14525 0.0
H918 H 0.9489 0.30917 0.1725 0.0
H919 H 0.9313 0.34518 0.15322 0.0
H920 H 0.03971 0.42963 0.1511 0.0
C921 C 0.07761 0.34501 0.19411 0.0
C922 C 0.06244 0.31093 0.20262 0.0
C923 C 0.02588 0.28775 0.2004 0.0
C924 C 1.00461 0.29825 0.19061 0.0
C925 C 0.02007 0.33204 0.18289 0.0
C926 C 0.05568 0.35507 0.18418 0.0
C927 C 0.065 0.38976 0.17409 0.0
C928 C 0.08081 0.42004 0.18935 0.0
C929 C 0.08987 0.39695 0.15619 0.0
C930 C 0.02898 0.38235 0.16706 0.0
C931 C 1.00365 0.34888 0.17254 0.0
C932 C 0.96845 0.33537 0.16798 0.0
C933 C 0.95874 0.35619 0.15699 0.0
C934 C 0.98406 0.39029 0.15049 0.0
C935 C 0.0197 0.4038 0.15593 0.0
H936 H 0.09815 0.82149 0.48864 0.0
H937 H 0.06294 0.74392 0.44093 0.0
H938 H 1.00759 0.70744 0.45927 0.0
H939 H 0.06113 0.76102 0.5301 0.0
H940 H 0.0483 0.788 0.54402 0.0
H941 H 0.08545 0.80801 0.52728 0.0
H942 H 0.05724 0.83923 0.50829 0.0
H943 H 0.02002 0.81932 0.52498 0.0
H944 H 1.01365 0.81358 0.49814 0.0
H945 H 0.95804 0.678 0.48339 0.0
H946 H 0.91432 0.65942 0.51045 0.0
H947 H 0.97891 0.75776 0.54166 0.0
C948 C 0.07884 0.79671 0.48217 0.0
C949 C 0.08481 0.78525 0.4635 0.0
C950 C 0.05872 0.75311 0.45522 0.0
C951 C 0.02733 0.73217 0.46556 0.0
C952 C 0.02229 0.744 0.48401 0.0
C953 C 0.04707 0.77565 0.49218 0.0
C954 C 0.03451 0.78252 0.51203 0.0
C955 C 0.05879 0.78502 0.52938 0.0
C956 C 0.03115 0.81563 0.51078 0.0
C957 C 0.9989 0.7497 0.51373 0.0
C958 C 0.99261 0.72776 0.49747 0.0
C959 C 0.9622 0.69533 0.49595 0.0
C960 C 0.93719 0.68523 0.51129 0.0
C961 C 0.94228 0.70785 0.52771 0.0
C962 C 0.97392 0.74024 0.52906 0.0
H963 H 0.26021 0.33645 0.49434 0.0
H964 H 0.21198 0.25389 0.44966 0.0
H965 H 0.23279 0.21916 0.46823 0.0
H966 H 0.33614 0.33025 0.50177 0.0
H967 H 0.33893 0.33833 0.5285 0.0
H968 H 0.31856 0.35598 0.51242 0.0
H969 H 0.26187 0.32532 0.53387 0.0
H970 H 0.28218 0.3078 0.55015 0.0
H971 H 0.24096 0.27872 0.53816 0.0
H972 H 0.26064 0.19437 0.49082 0.0
H973 H 0.29327 0.18095 0.51617 0.0
H974 H 0.32309 0.27928 0.54641 0.0
C975 C 0.25301 0.31065 0.48877 0.0
C976 C 0.23374 0.29758 0.47074 0.0
C977 C 0.22648 0.26432 0.46351 0.0
C978 C 0.23812 0.24436 0.47397 0.0
C979 C 0.25711 0.25803 0.49165 0.0
C980 C 0.26443 0.29033 0.49906 0.0
C981 C 0.2865 0.29951 0.51801 0.0
C982 C 0.32214 0.33299 0.51498 0.0
C983 C 0.26668 0.30303 0.53612 0.0
C984 C 0.29067 0.26744 0.51997 0.0
C985 C 0.27349 0.24385 0.5046 0.0
C986 C 0.27424 0.21266 0.50291 0.0
C987 C 0.29316 0.20543 0.51725 0.0
C988 C 0.31123 0.22936 0.53302 0.0
C989 C 0.30952 0.26053 0.53449 0.0
H990 H 0.75996 0.96814 0.46456 0.0
H991 H 0.65973 0.90604 0.49448 0.0
H992 H 0.67664 0.95193 0.52011 0.0
H993 H 0.81248 1.0045 0.50847 0.0
H994 H 0.83962 0.04745 0.49781 0.0
H995 H 0.81994 1.00954 0.48167 0.0
H996 H 0.79102 0.03781 0.46055 0.0
H997 H 0.81063 0.07584 0.47664 0.0
H998 H 0.76382 0.05214 0.4729 0.0
H999 H 0.7051 1.00242 0.54347 0.0
H1000 H 0.7421 0.05729 0.56206 0.0
H1001 H 0.8225 0.08977 0.51609 0.0
C1002 C 0.74163 0.96428 0.47652 0.0
C1003 C 0.70915 0.93274 0.47802 0.0
C1004 C 0.68552 0.92897 0.49361 0.0
C1005 C 0.69466 0.9552 0.5081 0.0
C1006 C 0.72721 0.98548 0.50653 0.0
C1007 C 0.75019 0.99049 0.49102 0.0
C1008 C 0.78336 0.02588 0.4928 0.0
C1009 C 0.81576 0.02157 0.49534 0.0
C1010 C 0.78743 0.0493 0.47464 0.0
C1011 C 0.77555 0.03963 0.51191 0.0
C1012 C 0.74302 0.01574 0.51956 0.0
C1013 C 0.73045 0.02154 0.53754 0.0
C1014 C 0.75168 0.05264 0.54802 0.0
C1015 C 0.78489 0.07771 0.54038 0.0
C1016 C 0.79692 0.07123 0.52204 0.0
H1017 H 0.41088 0.0778 0.52898 0.0
H1018 H 0.32526 0.10005 0.53295 0.0
H1019 H 0.2869 0.04538 0.51474 0.0
H1020 H 0.38992 0.04068 0.47848 0.0
H1021 H 0.40208 1.00796 0.48379 0.0
H1022 H 0.42312 0.04916 0.49704 0.0
H1023 H 0.40513 0.01589 0.53103 0.0
H1024 H 0.38372 0.9746 0.51789 0.0
H1025 H 0.35957 0.98505 0.53586 0.0
H1026 H 0.25678 0.98722 0.49758 0.0
H1027 H 0.23833 0.9319 0.47947 0.0
H1028 H 0.34357 0.94754 0.48531 0.0
C1029 C 0.38415 0.07132 0.5259 0.0
C1030 C 0.37116 0.09333 0.53251 0.0
C1031 C 0.33597 0.0838 0.52808 0.0
C1032 C 0.31385 0.05266 0.51779 0.0
C1033 C 0.32726 0.03133 0.51183 0.0
C1034 C 0.36168 0.04039 0.51545 0.0
C1035 C 0.3695 0.01289 0.50708 0.0
C1036 C 0.39783 0.02861 0.49062 0.0
C1037 C 0.3801 0.99612 0.52398 0.0
C1038 C 0.33402 0.98692 0.49832 0.0
C1039 C 0.31001 0.998 0.5014 0.0
C1040 C 0.27539 0.97835 0.49496 0.0
C1041 C 0.26513 0.94682 0.48474 0.0
C1042 C 0.28945 0.93525 0.48087 0.0
C1043 C 0.32431 0.95558 0.48797 0.0
H1044 H 0.08677 0.40806 0.48699 0.0
H1045 H 0.09694 0.31726 0.47233 0.0
H1046 H 0.03926 0.27864 0.48751 0.0
H1047 H 0.04485 0.37503 0.53555 0.0
H1048 H 1.01644 0.39345 0.53332 0.0
H1049 H 0.0585 0.41431 0.52096 0.0
H1050 H 0.02808 0.4104 0.48693 0.0
H1051 H 0.98587 0.38913 0.49914 0.0
H1052 H 0.99403 0.36837 0.47806 0.0
H1053 H 0.97998 0.24934 0.50284 0.0
H1054 H 0.9254 0.23117 0.52155 0.0
H1055 H 0.95334 0.34034 0.5283 0.0
C1056 C 0.07692 0.38007 0.48707 0.0
C1057 C 0.09651 0.36579 0.47835 0.0
C1058 C 0.08267 0.32899 0.4789 0.0
C1059 C 0.04974 0.30671 0.4874 0.0
C1060 C 0.03093 0.32151 0.49553 0.0
C1061 C 0.04413 0.35732 0.49579 0.0
C1062 C 0.01879 0.36622 0.50625 0.0
C1063 C 0.03565 0.38857 0.52515 0.0
C1064 C 1.00594 0.38462 0.49172 0.0
C1065 C 0.98936 0.32978 0.51175 0.0
C1066 C 0.99686 0.30447 0.50514 0.0
C1067 C 0.97387 0.26891 0.50821 0.0
C1068 C 0.94277 0.25886 0.51883 0.0
C1069 C 0.93489 0.28424 0.52654 0.0
C1070 C 0.95841 0.32022 0.52261 0.0
H1071 H 0.6911 0.6191 0.52985 0.0
H1072 H 0.79779 0.7066 0.53323 0.0
H1073 H 0.78045 0.74295 0.51371 0.0
H1074 H 0.67493 0.63658 0.4785 0.0
H1075 H 0.62979 0.62384 0.48331 0.0
H1076 H 0.65047 0.60424 0.49752 0.0
H1077 H 0.63399 0.62353 0.5307 0.0
H1078 H 0.61354 0.64346 0.51658 0.0
H1079 H 0.64758 0.66914 0.53449 0.0
H1080 H 0.75173 0.77095 0.49536 0.0
H1081 H 0.71427 0.78748 0.47626 0.0
H1082 H 0.62626 0.68176 0.48326 0.0
C1083 C 0.71086 0.64582 0.52637 0.0
C1084 C 0.74581 0.65994 0.53319 0.0
C1085 C 0.77086 0.69506 0.52823 0.0
C1086 C 0.76127 0.71605 0.51718 0.0
C1087 C 0.72659 0.70156 0.511 0.0
C1088 C 0.70181 0.66717 0.51514 0.0
C1089 C 0.66644 0.65814 0.50635 0.0
C1090 C 0.65473 0.62897 0.49048 0.0
C1091 C 0.63876 0.64797 0.52303 0.0
C1092 C 0.6753 0.69291 0.49677 0.0
C1093 C 0.71009 0.7176 0.49981 0.0
C1094 C 0.72447 0.75181 0.49274 0.0
C1095 C 0.70288 0.76096 0.48196 0.0
C1096 C 0.66729 0.73593 0.47815 0.0
C1097 C 0.65335 0.7015 0.48583 0.0
H1098 H 0.17018 0.32834 0.30093 0.0
H1099 H 0.0632 0.30607 0.29317 0.0
H1100 H 0.06727 0.33709 0.32509 0.0
H1101 H 0.1622 0.31229 0.35446 0.0
H1102 H 0.20673 0.34568 0.35968 0.0
H1103 H 0.19581 0.32382 0.33567 0.0
H1104 H 0.22207 0.38403 0.31773 0.0
H1105 H 0.2326 0.40604 0.34173 0.0
H1106 H 0.20593 0.41334 0.32396 0.0
H1107 H 0.08429 0.37293 0.35725 0.0
H1108 H 0.10861 0.40068 0.39029 0.0
H1109 H 0.20191 0.39376 0.37858 0.0
C1110 C 0.14767 0.33004 0.30602 0.0
C1111 C 0.11645 0.31513 0.29466 0.0
C1112 C 0.08728 0.3173 0.3018 0.0
C1113 C 0.08948 0.33511 0.31977 0.0
C1114 C 0.12081 0.34993 0.33057 0.0
C1115 C 0.14907 0.34678 0.32421 0.0
C1116 C 0.17868 0.36251 0.33937 0.0
C1117 C 0.18629 0.3344 0.3478 0.0
C1118 C 0.21177 0.39331 0.33014 0.0
C1119 C 0.16272 0.37508 0.35523 0.0
C1120 C 0.12967 0.36837 0.34967 0.0
C1121 C 0.11006 0.37814 0.36182 0.0
C1122 C 0.12415 0.39413 0.38044 0.0
C1123 C 0.15707 0.39936 0.38684 0.0
C1124 C 0.17671 0.39012 0.37394 0.0
H1125 H 0.72021 0.85071 0.29992 0.0
H1126 H 0.73504 0.76182 0.28901 0.0
H1127 H 0.70548 0.73543 0.32143 0.0
H1128 H 0.73727 0.85555 0.35389 0.0
H1129 H 0.70567 0.86906 0.35955 0.0
H1130 H 0.72807 0.88028 0.33567 0.0
H1131 H 0.66809 0.85072 0.31733 0.0
H1132 H 0.6455 0.83886 0.34115 0.0
H1133 H 0.63666 0.80551 0.32263 0.0
H1134 H 0.66956 0.71693 0.35395 0.0
H1135 H 0.63992 0.71265 0.3865 0.0
H1136 H 0.65348 0.81612 0.37677 0.0
C1137 C 0.71757 0.82587 0.3045 0.0
C1138 C 0.72973 0.80815 0.29207 0.0
C1139 C 0.72608 0.77584 0.29849 0.0
C1140 C 0.70909 0.76057 0.31675 0.0
C1141 C 0.69661 0.77839 0.32847 0.0
C1142 C 0.7015 0.81077 0.3228 0.0
C1143 C 0.6869 0.82525 0.33831 0.0
C1144 C 0.71623 0.85956 0.34739 0.0
C1145 C 0.65754 0.83037 0.32931 0.0
C1146 C 0.67257 0.7958 0.35354 0.0
C1147 C 0.67783 0.76869 0.34749 0.0
C1148 C 0.66566 0.73817 0.35892 0.0
C1149 C 0.64861 0.73581 0.37725 0.0
C1150 C 0.64457 0.76408 0.38406 0.0
C1151 C 0.6564 0.7942 0.37192 0.0
H1152 H 0.20017 0.92736 0.31008 0.0
H1153 H 0.26646 0.90108 0.27452 0.0
H1154 H 0.29204 0.89241 0.30565 0.0
H1155 H 0.26131 0.97057 0.35252 0.0
H1156 H 0.22684 0.95148 0.37106 0.0
H1157 H 0.21748 0.96058 0.34608 0.0
H1158 H 0.16852 0.89573 0.34235 0.0
H1159 H 0.17778 0.88644 0.36726 0.0
H1160 H 0.17898 0.86138 0.34611 0.0
H1161 H 0.30815 0.88354 0.34063 0.0
H1162 H 0.30978 0.87025 0.37674 0.0
H1163 H 0.2299 0.89816 0.38927 0.0
C1164 C 0.22069 0.92066 0.30896 0.0
C1165 C 0.23193 0.91545 0.29005 0.0
C1166 C 0.2579 0.90548 0.28898 0.0
C1167 C 0.27262 0.90063 0.30654 0.0
C1168 C 0.26068 0.90538 0.32505 0.0
C1169 C 0.23508 0.91488 0.3264 0.0
C1170 C 0.22422 0.9146 0.34807 0.0
C1171 C 0.233 0.95151 0.35483 0.0
C1172 C 0.18506 0.88794 0.35111 0.0
C1173 C 0.24727 0.90298 0.3586 0.0
C1174 C 0.26862 0.89847 0.34513 0.0
C1175 C 0.29166 0.88714 0.35135 0.0
C1176 C 0.29248 0.87972 0.37186 0.0
C1177 C 0.26991 0.88303 0.38576 0.0
C1178 C 0.24741 0.89524 0.37898 0.0
H1179 H 0.39088 0.1911 0.63498 0.0
H1180 H 0.3956 0.0967 0.62291 0.0
H1181 H 0.36761 0.07239 0.65589 0.0
H1182 H 0.41214 0.19482 0.68863 0.0
H1183 H 0.38403 0.21199 0.6957 0.0
H1184 H 0.40432 0.22159 0.67119 0.0
H1185 H 0.34318 0.19655 0.65458 0.0
H1186 H 0.32267 0.18648 0.67902 0.0
H1187 H 0.30939 0.15241 0.66038 0.0
H1188 H 0.33371 0.05633 0.68867 0.0
H1189 H 0.30586 0.05365 0.72159 0.0
H1190 H 0.32946 0.16107 0.71392 0.0
C1191 C 0.38632 0.16547 0.63943 0.0
C1192 C 0.3952 0.14561 0.62649 0.0
C1193 C 0.38913 0.11231 0.63275 0.0
C1194 C 0.37305 0.09825 0.65135 0.0
C1195 C 0.36403 0.11824 0.66366 0.0
C1196 C 0.37129 0.15151 0.65819 0.0
C1197 C 0.36019 0.16811 0.67448 0.0
C1198 C 0.39207 0.20107 0.68301 0.0
C1199 C 0.3322 0.17636 0.66664 0.0
C1200 C 0.34496 0.13873 0.68982 0.0
C1201 C 0.34685 0.10995 0.68314 0.0
C1202 C 0.33261 0.0789 0.6942 0.0
C1203 C 0.31665 0.0775 0.71277 0.0
C1204 C 0.31582 0.1072 0.72021 0.0
C1205 C 0.33013 0.13814 0.70858 0.0
H1206 H 0.88681 0.22253 0.71947 0.0
H1207 H 0.98253 0.21907 0.70908 0.0
H1208 H 0.98255 0.23591 0.67356 0.0
H1209 H 0.84624 0.1858 0.6734 0.0
H1210 H 0.82676 0.21314 0.67035 0.0
H1211 H 0.83575 0.20328 0.69519 0.0
H1212 H 0.87281 0.26968 0.70297 0.0
H1213 H 0.864 0.27978 0.6781 0.0
H1214 H 0.90862 0.29761 0.68654 0.0
H1215 H 0.96874 0.24706 0.63857 0.0
H1216 H 0.9433 0.25407 0.60685 0.0
H1217 H 0.85852 0.25346 0.64037 0.0
C1218 C 0.90802 0.22563 0.70981 0.0
C1219 C 0.93467 0.2194 0.71707 0.0
C1220 C 0.96191 0.22379 0.7039 0.0
C1221 C 0.96215 0.23337 0.6837 0.0
C1222 C 0.93526 0.23894 0.67702 0.0
C1223 C 0.90887 0.23553 0.68973 0.0
C1224 C 0.88236 0.24179 0.67868 0.0
C1225 C 0.84562 0.20905 0.67945 0.0
C1226 C 0.88194 0.27415 0.68707 0.0
C1227 C 0.89746 0.24844 0.6576 0.0
C1228 C 0.92803 0.24672 0.65699 0.0
C1229 C 0.94529 0.24922 0.63893 0.0
C1230 C 0.93074 0.2532 0.62105 0.0
C1231 C 0.8996 0.2551 0.62141 0.0
C1232 C 0.88298 0.25314 0.63989 0.0
H1233 H 0.86542 0.71743 0.71337 0.0
H1234 H 0.77757 0.73466 0.72269 0.0
H1235 H 0.75344 0.70799 0.68947 0.0
H1236 H 0.87498 0.73856 0.65962 0.0
H1237 H 0.88751 0.70634 0.65361 0.0
H1238 H 0.8976 0.72695 0.67801 0.0
H1239 H 0.86512 0.66576 0.69494 0.0
H1240 H 0.85453 0.64498 0.6706 0.0
H1241 H 0.82007 0.63581 0.68842 0.0
H1242 H 0.73632 0.67427 0.65668 0.0
H1243 H 0.73242 0.64511 0.62409 0.0
H1244 H 0.83429 0.65531 0.63488 0.0
C1245 C 0.8413 0.7159 0.70828 0.0
C1246 C 0.82322 0.72793 0.72051 0.0
C1247 C 0.79187 0.72577 0.71341 0.0
C1248 C 0.77788 0.71045 0.69466 0.0
C1249 C 0.796 0.69818 0.68311 0.0
C1250 C 0.82748 0.70155 0.68942 0.0
C1251 C 0.84235 0.68732 0.67388 0.0
C1252 C 0.8777 0.71654 0.6658 0.0
C1253 C 0.8457 0.65665 0.68248 0.0
C1254 C 0.81406 0.6749 0.65796 0.0
C1255 C 0.78725 0.68085 0.6637 0.0
C1256 C 0.75739 0.66995 0.65189 0.0
C1257 C 0.75526 0.65321 0.63352 0.0
C1258 C 0.78314 0.64826 0.62704 0.0
C1259 C 0.81279 0.65914 0.63946 0.0
H1260 H 0.99059 0.4824 0.04803 0.0
H1261 H 0.96387 0.37399 0.05531 0.0
H1262 H 0.98915 0.37544 0.02164 0.0
H1263 H 0.96799 0.4746 0.99486 0.0
H1264 H 1.00257 0.51836 0.98908 0.0
H1265 H 0.98294 0.50847 0.01375 0.0
H1266 H 0.04433 0.53172 0.02976 0.0
H1267 H 0.06411 0.54137 1.00513 0.0
H1268 H 0.07112 0.51339 0.02203 0.0
H1269 H 0.02205 0.39103 0.98824 0.0
H1270 H 0.05095 0.41606 0.95549 0.0
H1271 H 0.04997 0.51195 0.96901 0.0
C1272 C 0.98991 0.45893 0.04243 0.0
C1273 C 0.97559 0.42813 0.05415 0.0
C1274 C 0.97469 0.39775 0.0464 0.0
C1275 C 0.98915 0.39845 0.02741 0.0
C1276 C 1.00359 0.42949 0.0163 0.0
C1277 C 1.00326 0.45889 0.02335 0.0
C1278 C 0.01892 0.48847 0.00818 0.0
C1279 C 0.99146 0.49802 1.00105 0.0
C1280 C 0.05156 0.52063 0.0168 0.0
C1281 C 0.02861 0.47136 0.99156 0.0
C1282 C 0.02017 0.43755 0.99663 0.0
C1283 C 0.02831 0.41726 0.984 0.0
C1284 C 0.04487 0.43171 0.96554 0.0
C1285 C 0.05231 0.4657 0.9598 0.0
C1286 C 0.04416 0.48571 0.97302 0.0
H1287 H 0.54983 0.51173 0.04473 0.0
H1288 H 0.65317 0.60115 0.05497 0.0
H1289 H 0.65069 0.62535 0.02164 0.0
H1290 H 0.56331 0.50315 0.99128 0.0
H1291 H 0.51847 0.48943 0.98492 0.0
H1292 H 0.52892 0.47971 0.00944 0.0
H1293 H 0.4982 0.51064 0.02602 0.0
H1294 H 0.48804 0.52085 1.00156 0.0
H1295 H 0.51206 0.55546 0.01948 0.0
H1296 H 0.63392 0.64187 0.98834 0.0
H1297 H 0.60877 0.64476 0.95544 0.0
H1298 H 0.51915 0.5417 0.96614 0.0
C1299 C 0.57206 0.53625 0.03984 0.0
C1300 C 0.60164 0.55476 0.05232 0.0
C1301 C 0.63039 0.58658 0.04547 0.0
C1302 C 0.62908 0.60058 0.02668 0.0
C1303 C 0.59915 0.58196 0.01485 0.0
C1304 C 0.57155 0.55005 0.02098 0.0
C1305 C 0.5429 0.53457 1.00527 0.0
C1306 C 0.53814 0.49965 0.99725 0.0
C1307 C 0.50826 0.53013 0.01359 0.0
C1308 C 0.55838 0.56297 0.98941 0.0
C1309 C 0.59057 0.59039 0.99531 0.0
C1310 C 0.60899 0.62033 0.98345 0.0
C1311 C 0.59444 0.62188 0.96491 0.0
C1312 C 0.56223 0.59337 0.95832 0.0
C1313 C 0.54401 0.5637 0.97079 0.0
H1314 H 0.53653 0.06401 0.04336 0.0
H1315 H 0.43771 0.05772 0.05853 0.0
H1316 H 0.41364 0.03085 0.02534 0.0
H1317 H 0.53473 0.087 0.98975 0.0
H1318 H 0.55551 0.06284 0.98129 0.0
H1319 H 0.56506 0.08245 1.00597 0.0
H1320 H 0.54705 0.02194 0.02178 0.0
H1321 H 0.53706 1.00208 0.9972 0.0
H1322 H 0.50411 0.98525 0.01667 0.0
H1323 H 0.3984 0.99824 0.99249 0.0
H1324 H 0.39566 0.97075 0.95954 0.0
H1325 H 0.50632 1.00426 0.9639 0.0
C1326 C 0.51004 0.05745 0.03947 0.0
C1327 C 0.48884 0.06282 0.05334 0.0
C1328 C 0.45433 0.05405 0.04792 0.0
C1329 C 0.44044 0.03862 0.0292 0.0
C1330 C 0.46178 0.03309 0.01594 0.0
C1331 C 0.49615 0.04311 0.02058 0.0
C1332 C 0.51369 0.03494 1.00342 0.0
C1333 C 0.54404 0.06882 0.99458 0.0
C1334 C 0.5262 1.00954 0.01018 0.0
C1335 C 0.48345 0.01762 0.98871 0.0
C1336 C 0.45365 0.01651 0.99633 0.0
C1337 C 0.42173 0.99961 0.98616 0.0
C1338 C 0.42036 0.98389 0.96756 0.0
C1339 C 0.45084 0.98577 0.95918 0.0
C1340 C 0.48278 1.00297 0.96987 0.0
H1341 H 0.16893 0.04874 0.20673 0.0
H1342 H 0.22999 0.07082 0.26151 0.0
H1343 H 0.22563 0.12427 0.26675 0.0
H1344 H 0.20242 0.13827 0.19007 0.0
H1345 H 0.16036 0.13044 0.18129 0.0
H1346 H 0.17031 0.09536 0.18119 0.0
H1347 H 0.11491 0.05714 0.20271 0.0
H1348 H 0.10476 0.09205 0.20283 0.0
H1349 H 0.10914 0.07399 0.22628 0.0
H1350 H 0.2143 0.17532 0.26594 0.0
H1351 H 0.19281 0.21723 0.26065 0.0
H1352 H 0.13621 0.15963 0.20762 0.0
C1353 C 0.18179 0.0651 0.21968 0.0
C1354 C 0.20024 0.05598 0.23358 0.0
C1355 C 0.21591 0.07749 0.25063 0.0
C1356 C 0.21365 0.10792 0.25368 0.0
C1357 C 0.19519 0.11613 0.2397 0.0
C1358 C 0.17919 0.09511 0.22315 0.0
C1359 C 0.15902 0.10846 0.21107 0.0
C1360 C 0.17393 0.11875 0.18964 0.0
C1361 C 0.11963 0.08129 0.21071 0.0
C1362 C 0.16624 0.14039 0.22334 0.0
C1363 C 0.1875 0.14461 0.23967 0.0
C1364 C 0.19771 0.17228 0.2532 0.0
C1365 C 0.18556 0.19598 0.25006 0.0
C1366 C 0.16327 0.19163 0.23366 0.0
C1367 C 0.15354 0.16355 0.22015 0.0
H1368 H 0.88262 0.98204 0.25128 0.0
H1369 H 0.82997 0.98061 0.19585 0.0
H1370 H 0.87151 0.0439 0.19112 0.0
H1371 H 0.90049 0.06741 0.26805 0.0
H1372 H 0.94297 0.07964 0.27834 0.0
H1373 H 0.90937 0.03415 0.27741 0.0
H1374 H 0.95093 0.01939 0.25738 0.0
H1375 H 0.98476 0.06478 0.25838 0.0
H1376 H 0.97078 0.04286 0.23443 0.0
H1377 H 0.9189 0.10622 0.19194 0.0
H1378 H 0.96985 0.16473 0.19806 0.0
H1379 H 0.99184 0.12722 0.25356 0.0
C1380 C 0.88018 0.99515 0.23809 0.0
C1381 C 0.85342 0.97667 0.22379 0.0
C1382 C 0.85045 0.99451 0.20688 0.0
C1383 C 0.87384 0.03035 0.20411 0.0
C1384 C 0.89991 0.04794 0.21848 0.0
C1385 C 0.9033 0.03105 0.23514 0.0
C1386 C 0.93372 0.05631 0.24827 0.0
C1387 C 0.92085 0.05956 0.26926 0.0
C1388 C 0.9617 0.04517 0.24969 0.0
C1389 C 0.94696 0.08997 0.23632 0.0
C1390 C 0.92702 0.08439 0.21918 0.0
C1391 C 0.9346 0.11099 0.20535 0.0
C1392 C 0.96361 0.14412 0.20896 0.0
C1393 C 0.98461 0.15055 0.22634 0.0
C1394 C 0.97589 0.12318 0.24032 0.0
H1395 H 0.89971 0.8556 0.24802 0.0
H1396 H 0.87406 0.8085 0.18851 0.0
H1397 H 0.93505 0.82153 0.18422 0.0
H1398 H 0.98508 0.92583 0.23554 0.0
H1399 H 1.00478 0.9249 0.25916 0.0
H1400 H 0.95871 0.91088 0.25806 0.0
H1401 H 0.94361 0.85087 0.27349 0.0
H1402 H 0.98964 0.86483 0.27483 0.0
H1403 H 0.96009 0.82503 0.2617 0.0
H1404 H 0.99886 0.84085 0.18582 0.0
H1405 H 0.06136 0.86337 0.19388 0.0
H1406 H 0.04625 0.89755 0.25239 0.0
C1407 C 0.90681 0.84764 0.23419 0.0
C1408 C 0.88197 0.8309 0.21861 0.0
C1409 C 0.89251 0.8213 0.20066 0.0
C1410 C 0.92714 0.82864 0.19806 0.0
C1411 C 0.95105 0.84563 0.21354 0.0
C1412 C 0.94138 0.85485 0.23131 0.0
C1413 C 0.97246 0.87325 0.24545 0.0
C1414 C 0.98074 0.91095 0.2498 0.0
C1415 C 0.96606 0.85223 0.26502 0.0
C1416 C 1.00105 0.8729 0.23283 0.0
C1417 C 0.98807 0.8569 0.21445 0.0
C1418 C 1.00932 0.85338 0.20017 0.0
C1419 C 0.04471 0.86624 0.20485 0.0
C1420 C 0.05853 0.88241 0.22363 0.0
C1421 C 0.03641 0.88584 0.23778 0.0
H1422 H 0.05368 0.15958 0.81133 0.0
H1423 H 0.08152 0.23044 0.7605 0.0
H1424 H 0.13653 0.22875 0.75609 0.0
H1425 H 0.14173 0.19117 0.83115 0.0
H1426 H 0.13359 0.14784 0.8373 0.0
H1427 H 0.09805 0.15712 0.83762 0.0
H1428 H 0.06323 0.10617 0.81257 0.0
H1429 H 0.0986 0.0967 0.81222 0.0
H1430 H 0.08317 0.10539 0.78899 0.0
H1431 H 0.1879 0.21834 0.75681 0.0
H1432 H 0.22923 0.19587 0.76071 0.0
H1433 H 0.16619 0.12901 0.80964 0.0
C1434 C 0.07169 0.17521 0.7995 0.0
C1435 C 0.06372 0.1956 0.78643 0.0
C1436 C 0.08733 0.21485 0.77074 0.0
C1437 C 0.11865 0.21414 0.76818 0.0
C1438 C 0.1257 0.19362 0.78126 0.0
C1439 C 0.1027 0.17417 0.79647 0.0
C1440 C 0.11509 0.15208 0.80741 0.0
C1441 C 0.12256 0.1627 0.82969 0.0
C1442 C 0.08844 0.11276 0.80516 0.0
C1443 C 0.14862 0.16211 0.79599 0.0
C1444 C 0.15452 0.18649 0.78114 0.0
C1445 C 0.18362 0.19939 0.76844 0.0
C1446 C 0.20701 0.18667 0.77081 0.0
C1447 C 0.20093 0.16113 0.7856 0.0
C1448 C 0.17149 0.14886 0.79838 0.0
H1449 H 0.90656 0.04299 0.76215 0.0
H1450 H 0.85719 0.05252 0.81645 0.0
H1451 H 0.8323 0.98918 0.82311 0.0
H1452 H 0.83734 0.95812 0.74724 0.0
H1453 H 0.86617 0.94293 0.73832 0.0
H1454 H 0.88025 0.98902 0.73774 0.0
H1455 H 0.93521 1.00259 0.75874 0.0
H1456 H 0.92147 0.95657 0.75923 0.0
H1457 H 0.92989 0.98059 0.78248 0.0
H1458 H 0.8129 0.9253 0.82389 0.0
H1459 H 0.80176 0.86496 0.81959 0.0
H1460 H 0.86427 0.89637 0.76489 0.0
C1461 C 0.89094 0.03174 0.77558 0.0
C1462 C 0.88399 0.05253 0.78895 0.0
C1463 C 0.8628 0.03689 0.80611 0.0
C1464 C 0.84857 1.00102 0.80998 0.0
C1465 C 0.85581 0.98115 0.79652 0.0
C1466 C 0.87664 0.9959 0.77972 0.0
C1467 C 0.88049 0.96859 0.76779 0.0
C1468 C 0.86514 0.96443 0.74651 0.0
C1469 C 0.91905 0.97763 0.76702 0.0
C1470 C 0.85855 0.93622 0.7805 0.0
C1471 C 0.84452 0.94411 0.79697 0.0
C1472 C 0.82372 0.91877 0.81106 0.0
C1473 C 0.81751 0.88453 0.80846 0.0
C1474 C 0.83201 0.87582 0.79188 0.0
C1475 C 0.85252 0.90206 0.77762 0.0
H1476 H 0.13233 0.9885 0.76466 0.0
H1477 H 0.16908 0.9676 0.82078 0.0
H1478 H 0.11025 0.91711 0.8271 0.0
H1479 H 0.04805 0.96865 0.78334 0.0
H1480 H 0.02495 0.9486 0.76036 0.0
H1481 H 0.07048 0.98212 0.75948 0.0
H1482 H 0.08547 0.94003 0.74021 0.0
H1483 H 0.03995 0.90648 0.74089 0.0
H1484 H 0.0729 0.89762 0.75078 0.0
H1485 H 0.04791 0.86933 0.82761 0.0
H1486 H 0.98484 0.8273 0.82236 0.0
H1487 H 0.98729 0.87992 0.76671 0.0
C1488 C 0.12803 0.97294 0.77811 0.0
C1489 C 0.15525 0.98174 0.79218 0.0
C1490 C 0.14855 0.96127 0.80982 0.0
C1491 C 0.11526 0.93253 0.81354 0.0
C1492 C 0.08883 0.9248 0.79956 0.0
C1493 C 0.0947 0.94437 0.78222 0.0
C1494 C 0.06127 0.93103 0.77007 0.0
C1495 C 0.05056 0.95929 0.76821 0.0
C1496 C 0.06514 0.91801 0.74925 0.0
C1497 C 0.03583 0.90091 0.78328 0.0
C1498 C 0.05238 0.89773 0.80017 0.0
C1499 C 0.03459 0.8716 0.8145 0.0
C1500 C 0.9989 0.84795 0.81143 0.0
C1501 C 0.98144 0.85084 0.79432 0.0
C1502 C 1.00009 0.87766 0.78009 0.0
H1503 H 0.7989 0.49142 0.53765 0.0
H1504 H 0.83832 0.5351 0.59668 0.0
H1505 H 0.8592 0.49267 0.60162 0.0
H1506 H 0.76924 0.40112 0.55043 0.0
H1507 H 0.78227 0.3912 0.52671 0.0
H1508 H 0.77021 0.42473 0.52803 0.0
H1509 H 0.83007 0.46945 0.51239 0.0
H1510 H 0.8424 0.43611 0.51113 0.0
H1511 H 0.87001 0.47662 0.52419 0.0
H1512 H 0.87453 0.44492 0.60033 0.0
H1513 H 0.88409 0.39531 0.59287 0.0
H1514 H 0.83676 0.38396 0.53401 0.0
C1515 C 0.8119 0.49183 0.55158 0.0
C1516 C 0.81721 0.51627 0.56683 0.0
C1517 C 0.83424 0.51642 0.58489 0.0
C1518 C 0.84614 0.49252 0.58779 0.0
C1519 C 0.84085 0.46883 0.5724 0.0
C1520 C 0.8242 0.46831 0.55463 0.0
C1521 C 0.82207 0.44028 0.54048 0.0
C1522 C 0.78366 0.4127 0.53617 0.0
C1523 C 0.84235 0.4566 0.52089 0.0
C1524 C 0.84004 0.42511 0.55307 0.0
C1525 C 0.85052 0.44186 0.57146 0.0
C1526 C 0.86666 0.43175 0.58593 0.0
C1527 C 0.87197 0.40355 0.58156 0.0
C1528 C 0.86149 0.38601 0.5628 0.0
C1529 C 0.84559 0.39722 0.54835 0.0
H1530 H 0.62765 0.47243 0.53725 0.0
H1531 H 0.65317 0.4861 0.60098 0.0
H1532 H 0.60874 0.42434 0.60708 0.0
H1533 H 0.533 0.4121 0.5434 0.0
H1534 H 0.53062 0.38632 0.52173 0.0
H1535 H 0.56268 0.43235 0.52256 0.0
H1536 H 0.61209 0.41766 0.51621 0.0
H1537 H 0.58026 0.37161 0.51554 0.0
H1538 H 0.6165 0.38776 0.5329 0.0
H1539 H 0.56503 0.36025 0.60602 0.0
H1540 H 0.52235 0.29836 0.59791 0.0
H1541 H 0.52418 0.32605 0.53515 0.0
C1542 C 0.6235 0.46263 0.55255 0.0
C1543 C 0.64388 0.48422 0.56864 0.0
C1544 C 0.63783 0.4702 0.5884 0.0
C1545 C 0.61266 0.4351 0.59203 0.0
C1546 C 0.59358 0.41437 0.57578 0.0
C1547 C 0.5984 0.42764 0.55646 0.0
C1548 C 0.57522 0.39939 0.54157 0.0
C1549 C 0.54881 0.40806 0.53174 0.0
C1550 C 0.59735 0.39379 0.52562 0.0
C1551 C 0.55704 0.36808 0.55551 0.0
C1552 C 0.56803 0.37735 0.57519 0.0
C1553 C 0.55598 0.35275 0.59071 0.0
C1554 C 0.53195 0.31777 0.58599 0.0
C1555 C 0.5203 0.30785 0.56598 0.0
C1556 C 0.53279 0.33327 0.55057 0.0
H1557 H 0.71228 0.22897 0.58464 0.0
H1558 H 0.72275 0.18682 0.52772 0.0
H1559 H 0.65975 0.16363 0.52087 0.0
H1560 H 0.62631 0.15815 0.59722 0.0
H1561 H 0.6113 0.18597 0.60799 0.0
H1562 H 0.65725 0.19939 0.60855 0.0
H1563 H 0.67218 0.25739 0.59047 0.0
H1564 H 0.6263 0.24428 0.59 0.0
H1565 H 0.65113 0.25581 0.5669 0.0
H1566 H 0.59623 0.14552 0.51999 0.0
H1567 H 0.53605 0.13471 0.5246 0.0
H1568 H 0.56584 0.18854 0.58218 0.0
C1569 C 0.70127 0.21521 0.57066 0.0
C1570 C 0.72227 0.20982 0.55659 0.0
C1571 C 0.70698 0.19115 0.53863 0.0
C1572 C 0.67128 0.17791 0.53464 0.0
C1573 C 0.65119 0.18352 0.54879 0.0
C1574 C 0.66556 0.20182 0.56641 0.0
C1575 C 0.63802 0.20428 0.57898 0.0
C1576 C 0.63293 0.18584 0.59939 0.0
C1577 C 0.64748 0.24272 0.58175 0.0
C1578 C 0.60599 0.18455 0.56566 0.0
C1579 C 0.61427 0.1728 0.54834 0.0
C1580 C 0.58939 0.15452 0.53351 0.0
C1581 C 0.55523 0.14849 0.53629 0.0
C1582 C 0.54609 0.1606 0.55378 0.0
C1583 C 0.57185 0.17856 0.56875 0.0
H1584 H 0.8369 0.46568 0.1434 0.0
H1585 H 0.89057 0.51797 0.08845 0.0
H1586 H 0.84961 0.54079 0.08404 0.0
H1587 H 0.75072 0.43921 0.12672 0.0
H1588 H 0.73569 0.44646 0.15054 0.0
H1589 H 0.77026 0.43583 0.14985 0.0
H1590 H 0.81063 0.49217 0.17006 0.0
H1591 H 0.77613 0.50295 0.17087 0.0
H1592 H 0.81852 0.53402 0.16082 0.0
H1593 H 0.79998 0.55384 0.08432 0.0
H1594 H 0.74725 0.55907 0.0902 0.0
H1595 H 0.72742 0.50061 0.14589 0.0
C1596 C 0.8402 0.48239 0.13064 0.0
C1597 C 0.86699 0.49059 0.11638 0.0
C1598 C 0.87045 0.512 0.09966 0.0
C1599 C 0.84727 0.5249 0.09702 0.0
C1600 C 0.82096 0.51627 0.11132 0.0
C1601 C 0.81749 0.49577 0.1279 0.0
C1602 C 0.78655 0.48976 0.14081 0.0
C1603 C 0.75919 0.45049 0.14204 0.0
C1604 C 0.79869 0.50568 0.16189 0.0
C1605 C 0.77289 0.50973 0.12879 0.0
C1606 C 0.793 0.52467 0.11178 0.0
C1607 C 0.78435 0.54269 0.09775 0.0
C1608 C 0.75433 0.54547 0.10118 0.0
C1609 C 0.73357 0.53068 0.11862 0.0
C1610 C 0.74323 0.51283 0.13264 0.0
H1611 H 0.5318 0.23101 0.09847 0.0
H1612 H 0.47096 0.20026 0.15379 0.0
H1613 H 0.48403 0.2611 0.1587 0.0
H1614 H 0.59948 0.31412 0.11594 0.0
H1615 H 0.60461 0.33653 0.09238 0.0
H1616 H 0.58955 0.29021 0.09257 0.0
H1617 H 0.53407 0.27814 0.07257 0.0
H1618 H 0.54915 0.32445 0.07213 0.0
H1619 H 0.50639 0.29429 0.08212 0.0
H1620 H 0.50487 0.32518 0.15839 0.0
H1621 H 0.53015 0.38859 0.15184 0.0
H1622 H 0.57705 0.37844 0.09666 0.0
C1623 C 0.52084 0.23698 0.11147 0.0
C1624 C 0.50025 0.21076 0.12572 0.0
C1625 C 0.48677 0.2198 0.14265 0.0
C1626 C 0.49409 0.25433 0.14561 0.0
C1627 C 0.51495 0.27962 0.13152 0.0
C1628 C 0.52797 0.27143 0.1147 0.0
C1629 C 0.55005 0.30381 0.102 0.0
C1630 C 0.58818 0.31162 0.10065 0.0
C1631 C 0.53394 0.29993 0.08096 0.0
C1632 C 0.5474 0.33142 0.11434 0.0
C1633 C 0.52709 0.31683 0.13134 0.0
C1634 C 0.52077 0.33691 0.14512 0.0
C1635 C 0.53523 0.37282 0.14132 0.0
C1636 C 0.55574 0.38827 0.12391 0.0
C1637 C 0.56198 0.36731 0.11028 0.0
H1638 H 0.65341 0.21085 0.10196 0.0
H1639 H 0.64717 0.15754 0.15797 0.0
H1640 H 0.71013 0.19892 0.16426 0.0
H1641 H 0.73894 0.22699 0.08775 0.0
H1642 H 0.75255 0.26945 0.07693 0.0
H1643 H 0.70682 0.23643 0.07715 0.0
H1644 H 0.69178 0.27903 0.09579 0.0
H1645 H 0.73743 0.31227 0.09552 0.0
H1646 H 0.71387 0.29898 0.11904 0.0
H1647 H 0.77297 0.24634 0.16465 0.0
H1648 H 0.83257 0.29603 0.15884 0.0
H1649 H 0.79882 0.31737 0.10178 0.0
C1650 C 0.66536 0.2083 0.11563 0.0
C1651 C 0.6457 0.18153 0.12968 0.0
C1652 C 0.66204 0.1782 0.14719 0.0
C1653 C 0.69764 0.2015 0.15085 0.0
C1654 C 0.71645 0.22766 0.1367 0.0
C1655 C 0.70097 0.23115 0.1194 0.0
C1656 C 0.72733 0.26108 0.10644 0.0
C1657 C 0.73166 0.24767 0.08585 0.0
C1658 C 0.71698 0.28952 0.10406 0.0
C1659 C 0.76002 0.27392 0.11918 0.0
C1660 C 0.75307 0.25436 0.13661 0.0
C1661 C 0.7788 0.26174 0.15102 0.0
C1662 C 0.81254 0.29002 0.14759 0.0
C1663 C 0.82032 0.31034 0.12981 0.0
C1664 C 0.79372 0.30197 0.11537 0.0
H1665 H 0.46414 0.82656 0.87225 0.0
H1666 H 0.53105 0.88868 0.92133 0.0
H1667 H 0.55384 0.84751 0.92466 0.0
H1668 H 0.44098 0.74333 0.8924 0.0
H1669 H 0.44149 0.72388 0.86861 0.0
H1670 H 0.432 0.75922 0.86942 0.0
H1671 H 0.48263 0.79484 0.8443 0.0
H1672 H 0.49223 0.75954 0.84335 0.0
H1673 H 0.52616 0.80311 0.85004 0.0
H1674 H 0.56563 0.79702 0.92428 0.0
H1675 H 0.56819 0.74268 0.91906 0.0
H1676 H 0.49541 0.71469 0.86918 0.0
C1677 C 0.48397 0.83162 0.88347 0.0
C1678 C 0.49625 0.8608 0.89642 0.0
C1679 C 0.52182 0.86662 0.91113 0.0
C1680 C 0.53475 0.84335 0.91315 0.0
C1681 C 0.52197 0.81459 0.90023 0.0
C1682 C 0.49739 0.80883 0.88554 0.0
C1683 C 0.48746 0.77557 0.87386 0.0
C1684 C 0.44815 0.74893 0.87622 0.0
C1685 C 0.49774 0.78377 0.85157 0.0
C1686 C 0.50987 0.76324 0.88446 0.0
C1687 C 0.5295 0.78605 0.89967 0.0
C1688 C 0.55076 0.77922 0.91224 0.0
C1689 C 0.55198 0.74827 0.9092 0.0
C1690 C 0.53233 0.7247 0.89358 0.0
C1691 C 0.51124 0.73253 0.881 0.0
H1692 H 0.29308 0.80018 0.8767 0.0
H1693 H 0.33142 0.81137 0.93803 0.0
H1694 H 0.28773 0.7495 0.94472 0.0
H1695 H 0.2005 0.74134 0.88837 0.0
H1696 H 0.19281 0.71597 0.86571 0.0
H1697 H 0.22589 0.76169 0.86604 0.0
H1698 H 0.27229 0.74567 0.85416 0.0
H1699 H 0.23942 0.69993 0.85389 0.0
H1700 H 0.27883 0.71458 0.86848 0.0
H1701 H 0.24222 0.68565 0.94426 0.0
H1702 H 0.19655 0.62447 0.93683 0.0
H1703 H 0.18714 0.65468 0.87608 0.0
C1704 C 0.29205 0.78977 0.89161 0.0
C1705 C 0.31567 0.81073 0.90686 0.0
C1706 C 0.31354 0.79595 0.92613 0.0
C1707 C 0.28882 0.76079 0.93008 0.0
C1708 C 0.26627 0.74076 0.91464 0.0
C1709 C 0.26746 0.75474 0.89583 0.0
C1710 C 0.24081 0.72729 0.88174 0.0
C1711 C 0.21338 0.73717 0.87508 0.0
C1712 C 0.25893 0.72154 0.86349 0.0
C1713 C 0.22478 0.69558 0.89548 0.0
C1714 C 0.23983 0.70396 0.91441 0.0
C1715 C 0.23011 0.67884 0.92954 0.0
C1716 C 0.20433 0.64424 0.92519 0.0
C1717 C 0.1887 0.63518 0.90592 0.0
C1718 C 0.19881 0.66118 0.89094 0.0
H1719 H 0.37843 0.54483 0.86886 0.0
H1720 H 0.39782 0.55053 0.93304 0.0
H1721 H 0.33462 0.52771 0.9397 0.0
H1722 H 0.31492 0.57316 0.87076 0.0
H1723 H 0.28805 0.54442 0.8509 0.0
H1724 H 0.33438 0.55968 0.85134 0.0
H1725 H 0.32139 0.49539 0.85056 0.0
H1726 H 0.27497 0.47992 0.85026 0.0
H1727 H 0.29334 0.46503 0.86953 0.0
H1728 H 0.27001 0.50574 0.93927 0.0
H1729 H 0.20865 0.48901 0.9321 0.0
H1730 H 0.23096 0.49795 0.86797 0.0
C1731 C 0.36913 0.54114 0.88427 0.0
C1732 C 0.39254 0.54937 0.90052 0.0
C1733 C 0.37994 0.54438 0.92051 0.0
C1734 C 0.34422 0.53134 0.92438 0.0
C1735 C 0.3216 0.52342 0.90804 0.0
C1736 C 0.33352 0.52827 0.88838 0.0
C1737 C 0.30388 0.5189 0.87362 0.0
C1738 C 0.31072 0.55095 0.86091 0.0
C1739 C 0.29806 0.48797 0.8602 0.0
C1740 C 0.27351 0.5084 0.88804 0.0
C1741 C 0.28428 0.51091 0.90781 0.0
C1742 C 0.26122 0.50352 0.92385 0.0
C1743 C 0.22636 0.49395 0.9196 0.0
C1744 C 0.21485 0.49201 0.89946 0.0
C1745 C 0.23876 0.49883 0.88351 0.0
H1746 H 0.48948 0.77306 0.42564 0.0
H1747 H 0.5417 0.83463 0.47857 0.0
H1748 H 0.49996 0.85693 0.47951 0.0
H1749 H 0.47222 0.83592 0.40229 0.0
H1750 H 0.42979 0.80403 0.39271 0.0
H1751 H 0.46305 0.7921 0.39651 0.0
H1752 H 0.42088 0.74056 0.4195 0.0
H1753 H 0.38736 0.75208 0.41559 0.0
H1754 H 0.40077 0.74906 0.4408 0.0
H1755 H 0.4531 0.87275 0.47448 0.0
H1756 H 0.40329 0.88026 0.46438 0.0
H1757 H 0.38161 0.80859 0.41443 0.0
C1758 C 0.49166 0.79078 0.43759 0.0
C1759 C 0.51841 0.80195 0.45219 0.0
C1760 C 0.52116 0.82577 0.46734 0.0
C1761 C 0.49766 0.83854 0.46797 0.0
C1762 C 0.47167 0.82724 0.45327 0.0
C1763 C 0.46843 0.8038 0.43841 0.0
C1764 C 0.43839 0.79617 0.4243 0.0
C1765 C 0.45167 0.80776 0.40267 0.0
C1766 C 0.41018 0.75715 0.4251 0.0
C1767 C 0.42531 0.81904 0.43352 0.0
C1768 C 0.44487 0.8367 0.45023 0.0
C1769 C 0.43759 0.85908 0.46142 0.0
C1770 C 0.40927 0.86321 0.45553 0.0
C1771 C 0.38861 0.84515 0.43856 0.0
C1772 C 0.39705 0.82302 0.42736 0.0
H1773 H 0.20833 0.56728 0.43848 0.0
H1774 H 0.12813 0.52806 0.48493 0.0
H1775 H 0.13631 0.58735 0.48921 0.0
H1776 H 0.26529 0.64988 0.46226 0.0
H1777 H 0.27841 0.67442 0.43907 0.0
H1778 H 0.26576 0.62866 0.43913 0.0
H1779 H 0.21884 0.61623 0.41189 0.0
H1780 H 0.2315 0.66198 0.41166 0.0
H1781 H 0.18648 0.62924 0.41632 0.0
H1782 H 0.15315 0.65075 0.4887 0.0
H1783 H 0.17764 0.71436 0.48324 0.0
H1784 H 0.24734 0.71312 0.43747 0.0
C1785 C 0.19227 0.57111 0.44942 0.0
C1786 C 0.16744 0.54291 0.46131 0.0
C1787 C 0.14729 0.54917 0.47564 0.0
C1788 C 0.15174 0.58279 0.47819 0.0
C1789 C 0.1766 0.61003 0.46639 0.0
C1790 C 0.19656 0.60464 0.45228 0.0
C1791 C 0.22184 0.63867 0.44177 0.0
C1792 C 0.26009 0.64848 0.44581 0.0
C1793 C 0.21419 0.63638 0.41906 0.0
C1794 C 0.21286 0.66393 0.45214 0.0
C1795 C 0.18666 0.64681 0.46628 0.0
C1796 C 0.17366 0.66444 0.47767 0.0
C1797 C 0.18763 0.70049 0.47445 0.0
C1798 C 0.21433 0.71853 0.45999 0.0
C1799 C 0.2272 0.69999 0.44879 0.0
H1800 H 0.47138 0.64132 0.43222 0.0
H1801 H 0.50882 0.60642 0.48275 0.0
H1802 H 0.44849 0.55908 0.48948 0.0
H1803 H 0.39203 0.62651 0.45551 0.0
H1804 H 0.36601 0.61144 0.43291 0.0
H1805 H 0.41242 0.6418 0.43124 0.0
H1806 H 0.41996 0.59918 0.40757 0.0
H1807 H 0.37352 0.56888 0.40898 0.0
H1808 H 0.40419 0.55459 0.41551 0.0
H1809 H 0.38431 0.5167 0.49153 0.0
H1810 H 0.32004 0.47998 0.48767 0.0
H1811 H 0.32349 0.54197 0.43607 0.0
C1812 C 0.46696 0.6234 0.44451 0.0
C1813 C 0.49491 0.62755 0.45693 0.0
C1814 C 0.4879 0.6038 0.47302 0.0
C1815 C 0.45369 0.57683 0.477 0.0
C1816 C 0.42666 0.57395 0.46479 0.0
C1817 C 0.43284 0.59639 0.44879 0.0
C1818 C 0.39887 0.58779 0.43826 0.0
C1819 C 0.39193 0.61873 0.43956 0.0
C1820 C 0.39916 0.57696 0.41628 0.0
C1821 C 0.37272 0.557 0.45084 0.0
C1822 C 0.38939 0.54956 0.46609 0.0
C1823 C 0.37095 0.52223 0.47964 0.0
C1824 C 0.33455 0.50159 0.47737 0.0
C1825 C 0.31699 0.50837 0.4617 0.0
C1826 C 0.3363 0.53661 0.44837 0.0
loop_
_geom_bond_atom_site_label_1
_geom_bond_atom_site_label_2
_geom_bond_distance
_geom_bond_site_symmetry_2
_ccdc_geom_bond_type
Co0 O3 1.970 . S
Co0 N17 1.989 . S
Co0 O25 1.967 . S
Co0 O32 1.920 . S
Co1 O4 1.966 . S
Co1 N10 2.022 . S
Co1 N18 1.993 . S
Co1 O26 1.941 . S
C2 O3 1.258 . S
C2 O4 1.263 . S
O3 Co0 1.970 . S
O3 C2 1.258 . S
O4 Co1 1.966 . S
O4 C2 1.263 . S
C5 O6 1.235 . S
C5 O32 1.289 1_655 S
O6 C5 1.235 . S
C7 C9 1.400 . S
C7 N10 1.351 . S
C7 C12 1.501 . S
C8 C9 1.387 . S
C8 N11 1.341 . S
C9 C7 1.400 . S
C9 C8 1.387 . S
N10 Co1 2.022 . S
N10 C7 1.351 . S
N10 N11 1.365 . S
N11 C8 1.341 . S
N11 N10 1.365 . S
N11 H31 0.862 . S
C12 C7 1.501 . S
C12 H13 0.961 . S
C12 H14 0.961 . S
C12 H15 0.960 . S
H13 C12 0.961 . S
H14 C12 0.961 . S
H15 C12 0.960 . S
C16 N17 1.342 . S
C16 C20 1.401 . S
C16 C21 1.499 . S
N17 Co0 1.989 . S
N17 C16 1.342 . S
N17 N18 1.388 . S
N18 Co1 1.993 . S
N18 N17 1.388 . S
N18 C19 1.346 . S
C19 N18 1.346 . S
C19 C20 1.396 . S
C19 C29 1.510 . S
C20 C16 1.401 . S
C20 C19 1.396 . S
C21 C16 1.499 . S
C21 H22 0.959 . S
C21 H23 0.960 . S
C21 H24 0.961 . S
H22 C21 0.959 . S
H23 C21 0.960 . S
H24 C21 0.961 . S
O25 Co0 1.967 . S
O25 C33 1.258 . S
O26 Co1 1.941 . S
O26 C33 1.266 . S
H27 C29 0.959 . S
H28 C29 0.961 . S
C29 C19 1.510 . S
C29 H27 0.959 . S
C29 H28 0.961 . S
C29 H30 0.960 . S
H30 C29 0.960 . S
H31 N11 0.862 . S
O32 Co0 1.920 . S
O32 C5 1.289 1_455 S
C33 O25 1.258 . S
C33 O26 1.266 . S
Co34 O37 1.970 . S
Co34 N51 1.989 . S
Co34 O59 1.967 . S
Co34 O66 1.920 . S
Co35 O38 1.966 . S
Co35 N44 2.022 . S
Co35 N52 1.993 . S
Co35 O60 1.941 . S
C36 O37 1.258 . S
C36 O38 1.263 . S
O37 Co34 1.970 . S
O37 C36 1.258 . S
O38 Co35 1.966 . S
O38 C36 1.263 . S
C39 O40 1.235 . S
C39 O66 1.289 . S
O40 C39 1.235 . S
C41 C43 1.400 . S
C41 N44 1.351 . S
C41 C46 1.501 . S
C42 C43 1.387 . S
C42 N45 1.341 . S
C43 C41 1.400 . S
C43 C42 1.387 . S
N44 Co35 2.022 . S
N44 C41 1.351 . S
N44 N45 1.365 . S
N45 C42 1.341 . S
N45 N44 1.365 . S
N45 H65 0.862 . S
C46 C41 1.501 . S
C46 H47 0.961 . S
C46 H48 0.961 . S
C46 H49 0.960 . S
H47 C46 0.961 . S
H48 C46 0.961 . S
H49 C46 0.960 . S
C50 N51 1.342 . S
C50 C54 1.401 . S
C50 C55 1.499 . S
N51 Co34 1.989 . S
N51 C50 1.342 . S
N51 N52 1.388 . S
N52 Co35 1.993 . S
N52 N51 1.388 . S
N52 C53 1.346 . S
C53 N52 1.346 . S
C53 C54 1.396 . S
C53 C63 1.510 . S
C54 C50 1.401 . S
C54 C53 1.396 . S
C55 C50 1.499 . S
C55 H56 0.959 . S
C55 H57 0.960 . S
C55 H58 0.961 . S
H56 C55 0.959 . S
H57 C55 0.960 . S
H58 C55 0.961 . S
O59 Co34 1.967 . S
O59 C67 1.258 . S
O60 Co35 1.941 . S
O60 C67 1.266 . S
H61 C63 0.959 . S
H62 C63 0.961 . S
C63 C53 1.510 . S
C63 H61 0.959 . S
C63 H62 0.961 . S
C63 H64 0.960 . S
H64 C63 0.960 . S
H65 N45 0.862 . S
O66 Co34 1.920 . S
O66 C39 1.289 . S
C67 O59 1.258 . S
C67 O60 1.266 . S
Co68 O71 1.970 . S
Co68 N85 1.989 . S
Co68 O93 1.967 . S
Co68 O100 1.920 . S
Co69 O72 1.966 . S
Co69 N78 2.022 . S
Co69 N86 1.993 . S
Co69 O94 1.941 . S
C70 O71 1.258 . S
C70 O72 1.263 . S
O71 Co68 1.970 . S
O71 C70 1.258 . S
O72 Co69 1.966 . S
O72 C70 1.263 . S
C73 O74 1.235 . S
C73 O100 1.289 1_545 S
O74 C73 1.235 . S
C75 C77 1.400 . S
C75 N78 1.351 . S
C75 C80 1.501 . S
C76 C77 1.387 . S
C76 N79 1.341 . S
C77 C75 1.400 . S
C77 C76 1.387 . S
N78 Co69 2.022 . S
N78 C75 1.351 . S
N78 N79 1.365 . S
N79 C76 1.341 . S
N79 N78 1.365 . S
N79 H99 0.862 . S
C80 C75 1.501 . S
C80 H81 0.961 . S
C80 H82 0.961 . S
C80 H83 0.960 . S
H81 C80 0.961 . S
H82 C80 0.961 . S
H83 C80 0.960 . S
C84 N85 1.342 . S
C84 C88 1.401 . S
C84 C89 1.499 . S
N85 Co68 1.989 . S
N85 C84 1.342 . S
N85 N86 1.388 . S
N86 Co69 1.993 . S
N86 N85 1.388 . S
N86 C87 1.346 . S
C87 N86 1.346 . S
C87 C88 1.396 . S
C87 C97 1.510 . S
C88 C84 1.401 . S
C88 C87 1.396 . S
C89 C84 1.499 . S
C89 H90 0.959 . S
C89 H91 0.960 . S
C89 H92 0.961 . S
H90 C89 0.959 . S
H91 C89 0.960 . S
H92 C89 0.961 . S
O93 Co68 1.967 . S
O93 C101 1.258 . S
O94 Co69 1.941 . S
O94 C101 1.266 . S
H95 C97 0.959 . S
H96 C97 0.961 . S
C97 C87 1.510 . S
C97 H95 0.959 . S
C97 H96 0.961 . S
C97 H98 0.960 . S
H98 C97 0.960 . S
H99 N79 0.862 . S
O100 Co68 1.920 . S
O100 C73 1.289 1_565 S
C101 O93 1.258 . S
C101 O94 1.266 . S
Co102 O105 1.970 . S
Co102 N119 1.989 . S
Co102 O127 1.967 . S
Co102 O134 1.920 . S
Co103 O106 1.966 . S
Co103 N112 2.022 . S
Co103 N120 1.993 . S
Co103 O128 1.941 . S
C104 O105 1.258 . S
C104 O106 1.263 . S
O105 Co102 1.970 . S
O105 C104 1.258 . S
O106 Co103 1.966 . S
O106 C104 1.263 . S
C107 O108 1.235 . S
C107 O134 1.289 1_565 S
O108 C107 1.235 . S
C109 C111 1.400 . S
C109 N112 1.351 . S
C109 C114 1.501 . S
C110 C111 1.387 . S
C110 N113 1.341 . S
C111 C109 1.400 . S
C111 C110 1.387 . S
N112 Co103 2.022 . S
N112 C109 1.351 . S
N112 N113 1.365 . S
N113 C110 1.341 . S
N113 N112 1.365 . S
N113 H133 0.862 . S
C114 C109 1.501 . S
C114 H115 0.961 . S
C114 H116 0.961 . S
C114 H117 0.960 . S
H115 C114 0.961 . S
H116 C114 0.961 . S
H117 C114 0.960 . S
C118 N119 1.342 . S
C118 C122 1.401 . S
C118 C123 1.499 . S
N119 Co102 1.989 . S
N119 C118 1.342 . S
N119 N120 1.388 . S
N120 Co103 1.993 . S
N120 N119 1.388 . S
N120 C121 1.346 . S
C121 N120 1.346 . S
C121 C122 1.396 . S
C121 C131 1.510 . S
C122 C118 1.401 . S
C122 C121 1.396 . S
C123 C118 1.499 . S
C123 H124 0.959 . S
C123 H125 0.960 . S
C123 H126 0.961 . S
H124 C123 0.959 . S
H125 C123 0.960 . S
H126 C123 0.961 . S
O127 Co102 1.967 . S
O127 C135 1.258 . S
O128 Co103 1.941 . S
O128 C135 1.266 . S
H129 C131 0.959 . S
H130 C131 0.961 . S
C131 C121 1.510 . S
C131 H129 0.959 . S
C131 H130 0.961 . S
C131 H132 0.960 . S
H132 C131 0.960 . S
H133 N113 0.862 . S
O134 Co102 1.920 . S
O134 C107 1.289 1_545 S
C135 O127 1.258 . S
C135 O128 1.266 . S
Co136 O139 1.970 . S
Co136 N153 1.989 . S
Co136 O161 1.967 . S
Co136 O168 1.920 . S
Co137 O140 1.966 . S
Co137 N146 2.022 . S
Co137 N154 1.993 . S
Co137 O162 1.941 . S
C138 O139 1.258 . S
C138 O140 1.263 . S
O139 Co136 1.970 . S
O139 C138 1.258 . S
O140 Co137 1.966 . S
O140 C138 1.263 . S
C141 O142 1.235 . S
C141 O168 1.289 1_455 S
O142 C141 1.235 . S
C143 C145 1.400 . S
C143 N146 1.351 . S
C143 C148 1.501 . S
C144 C145 1.387 . S
C144 N147 1.341 . S
C145 C143 1.400 . S
C145 C144 1.387 . S
N146 Co137 2.022 . S
N146 C143 1.351 . S
N146 N147 1.365 . S
N147 C144 1.341 . S
N147 N146 1.365 . S
N147 H167 0.862 . S
C148 C143 1.501 . S
C148 H149 0.961 . S
C148 H150 0.961 . S
C148 H151 0.960 . S
H149 C148 0.961 . S
H150 C148 0.961 . S
H151 C148 0.960 . S
C152 N153 1.342 . S
C152 C156 1.401 . S
C152 C157 1.499 . S
N153 Co136 1.989 . S
N153 C152 1.342 . S
N153 N154 1.388 . S
N154 Co137 1.993 . S
N154 N153 1.388 . S
N154 C155 1.346 . S
C155 N154 1.346 . S
C155 C156 1.396 . S
C155 C165 1.510 . S
C156 C152 1.401 . S
C156 C155 1.396 . S
C157 C152 1.499 . S
C157 H158 0.959 . S
C157 H159 0.960 . S
C157 H160 0.961 . S
H158 C157 0.959 . S
H159 C157 0.960 . S
H160 C157 0.961 . S
O161 Co136 1.967 . S
O161 C169 1.258 . S
O162 Co137 1.941 . S
O162 C169 1.266 . S
H163 C165 0.959 . S
H164 C165 0.961 . S
C165 C155 1.510 . S
C165 H163 0.959 . S
C165 H164 0.961 . S
C165 H166 0.960 . S
H166 C165 0.960 . S
H167 N147 0.862 . S
O168 Co136 1.920 . S
O168 C141 1.289 1_655 S
C169 O161 1.258 . S
C169 O162 1.266 . S
Co170 O173 1.970 . S
Co170 N187 1.989 . S
Co170 O195 1.967 . S
Co170 O202 1.920 . S
Co171 O174 1.966 . S
Co171 N180 2.022 . S
Co171 N188 1.993 . S
Co171 O196 1.941 . S
C172 O173 1.258 . S
C172 O174 1.263 . S
O173 Co170 1.970 . S
O173 C172 1.258 . S
O174 Co171 1.966 . S
O174 C172 1.263 . S
C175 O176 1.235 . S
C175 O202 1.289 . S
O176 C175 1.235 . S
C177 C179 1.400 . S
C177 N180 1.351 . S
C177 C182 1.501 . S
C178 C179 1.387 . S
C178 N181 1.341 . S
C179 C177 1.400 . S
C179 C178 1.387 . S
N180 Co171 2.022 . S
N180 C177 1.351 . S
N180 N181 1.365 . S
N181 C178 1.341 . S
N181 N180 1.365 . S
N181 H201 0.862 . S
C182 C177 1.501 . S
C182 H183 0.961 . S
C182 H184 0.961 . S
C182 H185 0.960 . S
H183 C182 0.961 . S
H184 C182 0.961 . S
H185 C182 0.960 . S
C186 N187 1.342 . S
C186 C190 1.401 . S
C186 C191 1.499 . S
N187 Co170 1.989 . S
N187 C186 1.342 . S
N187 N188 1.388 . S
N188 Co171 1.993 . S
N188 N187 1.388 . S
N188 C189 1.346 . S
C189 N188 1.346 . S
C189 C190 1.396 . S
C189 C199 1.510 . S
C190 C186 1.401 . S
C190 C189 1.396 . S
C191 C186 1.499 . S
C191 H192 0.959 . S
C191 H193 0.960 . S
C191 H194 0.961 . S
H192 C191 0.959 . S
H193 C191 0.960 . S
H194 C191 0.961 . S
O195 Co170 1.967 . S
O195 C203 1.258 . S
O196 Co171 1.941 . S
O196 C203 1.266 . S
H197 C199 0.959 . S
H198 C199 0.961 . S
C199 C189 1.510 . S
C199 H197 0.959 . S
C199 H198 0.961 . S
C199 H200 0.960 . S
H200 C199 0.960 . S
H201 N181 0.862 . S
O202 Co170 1.920 . S
O202 C175 1.289 . S
C203 O195 1.258 . S
C203 O196 1.266 . S
Co204 O207 1.970 . S
Co204 N221 1.989 . S
Co204 O229 1.967 . S
Co204 O236 1.920 . S
Co205 O208 1.966 . S
Co205 N214 2.022 . S
Co205 N222 1.993 . S
Co205 O230 1.941 . S
C206 O207 1.258 . S
C206 O208 1.263 . S
O207 Co204 1.970 . S
O207 C206 1.258 . S
O208 Co205 1.966 . S
O208 C206 1.263 . S
C209 O210 1.235 . S
C209 O236 1.289 . S
O210 C209 1.235 . S
C211 C213 1.400 . S
C211 N214 1.351 . S
C211 C216 1.501 . S
C212 C213 1.387 . S
C212 N215 1.341 . S
C213 C211 1.400 . S
C213 C212 1.387 . S
N214 Co205 2.022 . S
N214 C211 1.351 . S
N214 N215 1.365 . S
N215 C212 1.341 . S
N215 N214 1.365 . S
N215 H235 0.862 . S
C216 C211 1.501 . S
C216 H217 0.961 . S
C216 H218 0.961 . S
C216 H219 0.960 . S
H217 C216 0.961 . S
H218 C216 0.961 . S
H219 C216 0.960 . S
C220 N221 1.342 . S
C220 C224 1.401 . S
C220 C225 1.499 . S
N221 Co204 1.989 . S
N221 C220 1.342 . S
N221 N222 1.388 . S
N222 Co205 1.993 . S
N222 N221 1.388 . S
N222 C223 1.346 . S
C223 N222 1.346 . S
C223 C224 1.396 . S
C223 C233 1.510 . S
C224 C220 1.401 . S
C224 C223 1.396 . S
C225 C220 1.499 . S
C225 H226 0.959 . S
C225 H227 0.960 . S
C225 H228 0.961 . S
H226 C225 0.959 . S
H227 C225 0.960 . S
H228 C225 0.961 . S
O229 Co204 1.967 . S
O229 C237 1.258 . S
O230 Co205 1.941 . S
O230 C237 1.266 . S
H231 C233 0.959 . S
H232 C233 0.961 . S
C233 C223 1.510 . S
C233 H231 0.959 . S
C233 H232 0.961 . S
C233 H234 0.960 . S
H234 C233 0.960 . S
H235 N215 0.862 . S
O236 Co204 1.920 . S
O236 C209 1.289 . S
C237 O229 1.258 . S
C237 O230 1.266 . S
Co238 O241 1.970 . S
Co238 N255 1.989 . S
Co238 O263 1.967 . S
Co238 O270 1.920 . S
Co239 O242 1.966 . S
Co239 N248 2.022 . S
Co239 N256 1.993 . S
Co239 O264 1.941 . S
C240 O241 1.258 . S
C240 O242 1.263 . S
O241 Co238 1.970 . S
O241 C240 1.258 . S
O242 Co239 1.966 . S
O242 C240 1.263 . S
C243 O244 1.235 . S
C243 O270 1.289 . S
O244 C243 1.235 . S
C245 C247 1.400 . S
C245 N248 1.351 . S
C245 C250 1.501 . S
C246 C247 1.387 . S
C246 N249 1.341 . S
C247 C245 1.400 . S
C247 C246 1.387 . S
N248 Co239 2.022 . S
N248 C245 1.351 . S
N248 N249 1.365 . S
N249 C246 1.341 . S
N249 N248 1.365 . S
N249 H269 0.862 . S
C250 C245 1.501 . S
C250 H251 0.961 . S
C250 H252 0.961 . S
C250 H253 0.960 . S
H251 C250 0.961 . S
H252 C250 0.961 . S
H253 C250 0.960 . S
C254 N255 1.342 . S
C254 C258 1.401 . S
C254 C259 1.499 . S
N255 Co238 1.989 . S
N255 C254 1.342 . S
N255 N256 1.388 . S
N256 Co239 1.993 . S
N256 N255 1.388 . S
N256 C257 1.346 . S
C257 N256 1.346 . S
C257 C258 1.396 . S
C257 C267 1.510 . S
C258 C254 1.401 . S
C258 C257 1.396 . S
C259 C254 1.499 . S
C259 H260 0.959 . S
C259 H261 0.960 . S
C259 H262 0.961 . S
H260 C259 0.959 . S
H261 C259 0.960 . S
H262 C259 0.961 . S
O263 Co238 1.967 . S
O263 C271 1.258 . S
O264 Co239 1.941 . S
O264 C271 1.266 . S
H265 C267 0.959 . S
H266 C267 0.961 . S
C267 C257 1.510 . S
C267 H265 0.959 . S
C267 H266 0.961 . S
C267 H268 0.960 . S
H268 C267 0.960 . S
H269 N249 0.862 . S
O270 Co238 1.920 . S
O270 C243 1.289 . S
C271 O263 1.258 . S
C271 O264 1.266 . S
Co272 O275 1.970 . S
Co272 N289 1.989 . S
Co272 O297 1.967 . S
Co272 O304 1.920 . S
Co273 O276 1.966 . S
Co273 N282 2.022 . S
Co273 N290 1.993 . S
Co273 O298 1.941 . S
C274 O275 1.258 . S
C274 O276 1.263 . S
O275 Co272 1.970 . S
O275 C274 1.258 . S
O276 Co273 1.966 . S
O276 C274 1.263 . S
C277 O278 1.235 . S
C277 O304 1.289 . S
O278 C277 1.235 . S
C279 C281 1.400 . S
C279 N282 1.351 . S
C279 C284 1.501 . S
C280 C281 1.387 . S
C280 N283 1.341 . S
C281 C279 1.400 . S
C281 C280 1.387 . S
N282 Co273 2.022 . S
N282 C279 1.351 . S
N282 N283 1.365 . S
N283 C280 1.341 . S
N283 N282 1.365 . S
N283 H303 0.862 . S
C284 C279 1.501 . S
C284 H285 0.961 . S
C284 H286 0.961 . S
C284 H287 0.960 . S
H285 C284 0.961 . S
H286 C284 0.961 . S
H287 C284 0.960 . S
C288 N289 1.342 . S
C288 C292 1.401 . S
C288 C293 1.499 . S
N289 Co272 1.989 . S
N289 C288 1.342 . S
N289 N290 1.388 . S
N290 Co273 1.993 . S
N290 N289 1.388 . S
N290 C291 1.346 . S
C291 N290 1.346 . S
C291 C292 1.396 . S
C291 C301 1.510 . S
C292 C288 1.401 . S
C292 C291 1.396 . S
C293 C288 1.499 . S
C293 H294 0.959 . S
C293 H295 0.960 . S
C293 H296 0.961 . S
H294 C293 0.959 . S
H295 C293 0.960 . S
H296 C293 0.961 . S
O297 Co272 1.967 . S
O297 C305 1.258 . S
O298 Co273 1.941 . S
O298 C305 1.266 . S
H299 C301 0.959 . S
H300 C301 0.961 . S
C301 C291 1.510 . S
C301 H299 0.959 . S
C301 H300 0.961 . S
C301 H302 0.960 . S
H302 C301 0.960 . S
H303 N283 0.862 . S
O304 Co272 1.920 . S
O304 C277 1.289 . S
C305 O297 1.258 . S
C305 O298 1.266 . S
Co306 O309 1.970 . S
Co306 N323 1.989 . S
Co306 O331 1.967 . S
Co306 O338 1.920 . S
Co307 O310 1.966 . S
Co307 N316 2.022 . S
Co307 N324 1.993 . S
Co307 O332 1.941 . S
C308 O309 1.258 . S
C308 O310 1.263 . S
O309 Co306 1.970 . S
O309 C308 1.258 . S
O310 Co307 1.966 . S
O310 C308 1.263 . S
C311 O312 1.235 . S
C311 O338 1.289 . S
O312 C311 1.235 . S
C313 C315 1.400 . S
C313 N316 1.351 1_455 S
C313 C318 1.501 . S
C314 C315 1.387 . S
C314 N317 1.341 1_455 S
C315 C313 1.400 . S
C315 C314 1.387 . S
N316 Co307 2.022 . S
N316 C313 1.351 1_655 S
N316 N317 1.365 . S
N317 C314 1.341 1_655 S
N317 N316 1.365 . S
N317 H337 0.862 . S
C318 C313 1.501 . S
C318 H319 0.961 1_455 S
C318 H320 0.961 1_455 S
C318 H321 0.960 . S
H319 C318 0.961 1_655 S
H320 C318 0.961 1_655 S
H321 C318 0.960 . S
C322 N323 1.342 . S
C322 C326 1.401 . S
C322 C327 1.499 . S
N323 Co306 1.989 . S
N323 C322 1.342 . S
N323 N324 1.388 . S
N324 Co307 1.993 . S
N324 N323 1.388 . S
N324 C325 1.346 . S
C325 N324 1.346 . S
C325 C326 1.396 . S
C325 C335 1.510 . S
C326 C322 1.401 . S
C326 C325 1.396 . S
C327 C322 1.499 . S
C327 H328 0.959 . S
C327 H329 0.960 . S
C327 H330 0.961 . S
H328 C327 0.959 . S
H329 C327 0.960 . S
H330 C327 0.961 . S
O331 Co306 1.967 . S
O331 C339 1.258 . S
O332 Co307 1.941 . S
O332 C339 1.266 . S
H333 C335 0.959 . S
H334 C335 0.961 . S
C335 C325 1.510 . S
C335 H333 0.959 . S
C335 H334 0.961 . S
C335 H336 0.960 . S
H336 C335 0.960 . S
H337 N317 0.862 . S
O338 Co306 1.920 . S
O338 C311 1.289 . S
C339 O331 1.258 . S
C339 O332 1.266 . S
Co340 O343 1.970 . S
Co340 N357 1.989 . S
Co340 O365 1.967 . S
Co340 O372 1.920 . S
Co341 O344 1.966 . S
Co341 N350 2.022 . S
Co341 N358 1.993 . S
Co341 O366 1.941 . S
C342 O343 1.258 . S
C342 O344 1.263 . S
O343 Co340 1.970 . S
O343 C342 1.258 . S
O344 Co341 1.966 . S
O344 C342 1.263 . S
C345 O346 1.235 . S
C345 O372 1.289 . S
O346 C345 1.235 . S
C347 C349 1.400 . S
C347 N350 1.351 . S
C347 C352 1.501 . S
C348 C349 1.387 . S
C348 N351 1.341 . S
C349 C347 1.400 . S
C349 C348 1.387 . S
N350 Co341 2.022 . S
N350 C347 1.351 . S
N350 N351 1.365 . S
N351 C348 1.341 . S
N351 N350 1.365 . S
N351 H371 0.862 . S
C352 C347 1.501 . S
C352 H353 0.961 . S
C352 H354 0.961 . S
C352 H355 0.960 . S
H353 C352 0.961 . S
H354 C352 0.961 . S
H355 C352 0.960 . S
C356 N357 1.342 . S
C356 C360 1.401 . S
C356 C361 1.499 . S
N357 Co340 1.989 . S
N357 C356 1.342 . S
N357 N358 1.388 . S
N358 Co341 1.993 . S
N358 N357 1.388 . S
N358 C359 1.346 . S
C359 N358 1.346 . S
C359 C360 1.396 . S
C359 C369 1.510 . S
C360 C356 1.401 . S
C360 C359 1.396 . S
C361 C356 1.499 . S
C361 H362 0.959 . S
C361 H363 0.960 . S
C361 H364 0.961 . S
H362 C361 0.959 . S
H363 C361 0.960 . S
H364 C361 0.961 . S
O365 Co340 1.967 . S
O365 C373 1.258 . S
O366 Co341 1.941 . S
O366 C373 1.266 . S
H367 C369 0.959 . S
H368 C369 0.961 . S
C369 C359 1.510 . S
C369 H367 0.959 . S
C369 H368 0.961 . S
C369 H370 0.960 . S
H370 C369 0.960 . S
H371 N351 0.862 . S
O372 Co340 1.920 . S
O372 C345 1.289 . S
C373 O365 1.258 . S
C373 O366 1.266 . S
Co374 O377 1.970 . S
Co374 N391 1.989 . S
Co374 O399 1.967 . S
Co374 O406 1.920 . S
Co375 O378 1.966 . S
Co375 N384 2.022 . S
Co375 N392 1.993 . S
Co375 O400 1.941 . S
C376 O377 1.258 . S
C376 O378 1.263 . S
O377 Co374 1.970 . S
O377 C376 1.258 . S
O378 Co375 1.966 . S
O378 C376 1.263 . S
C379 O380 1.235 . S
C379 O406 1.289 . S
O380 C379 1.235 . S
C381 C383 1.383 1_545 S
C381 N384 1.361 . S
C381 C386 1.508 1_545 S
C382 C383 1.387 . S
C382 N385 1.341 1_565 S
C383 C381 1.383 1_565 S
C383 C382 1.387 . S
N384 Co375 2.022 . S
N384 C381 1.361 . S
N384 N385 1.365 . S
N385 C382 1.341 1_545 S
N385 N384 1.365 . S
N385 H405 0.862 . S
C386 C381 1.508 1_565 S
C386 H387 0.961 1_565 S
C386 H388 0.961 1_565 S
C386 H389 0.960 . S
H387 C386 0.961 1_545 S
H388 C386 0.961 1_545 S
H389 C386 0.960 . S
C390 N391 1.342 . S
C390 C394 1.401 . S
C390 C395 1.499 . S
N391 Co374 1.989 . S
N391 C390 1.342 . S
N391 N392 1.388 . S
N392 Co375 1.993 . S
N392 N391 1.388 . S
N392 C393 1.346 . S
C393 N392 1.346 . S
C393 C394 1.396 . S
C393 C403 1.510 . S
C394 C390 1.401 . S
C394 C393 1.396 . S
C395 C390 1.499 . S
C395 H396 0.959 . S
C395 H397 0.960 . S
C395 H398 0.961 . S
H396 C395 0.959 . S
H397 C395 0.960 . S
H398 C395 0.961 . S
O399 Co374 1.967 . S
O399 C407 1.258 . S
O400 Co375 1.941 . S
O400 C407 1.266 . S
H401 C403 0.959 . S
H402 C403 0.961 . S
C403 C393 1.510 . S
C403 H401 0.959 . S
C403 H402 0.961 . S
C403 H404 0.960 . S
H404 C403 0.960 . S
H405 N385 0.862 . S
O406 Co374 1.920 . S
O406 C379 1.289 . S
C407 O399 1.258 . S
C407 O400 1.266 . S
Co408 O411 1.970 . S
Co408 N425 1.989 . S
Co408 O433 1.967 . S
Co408 O440 1.920 . S
Co409 O412 1.966 . S
Co409 N418 2.022 . S
Co409 N426 1.993 . S
Co409 O434 1.941 . S
C410 O411 1.258 . S
C410 O412 1.263 . S
O411 Co408 1.970 . S
O411 C410 1.258 . S
O412 Co409 1.966 . S
O412 C410 1.263 . S
C413 O414 1.235 . S
C413 O440 1.289 . S
O414 C413 1.235 . S
C415 C417 1.400 . S
C415 N418 1.351 1_545 S
C415 C420 1.501 . S
C416 C417 1.387 . S
C416 N419 1.341 1_545 S
C417 C415 1.400 . S
C417 C416 1.387 . S
N418 Co409 2.022 . S
N418 C415 1.351 1_565 S
N418 N419 1.365 . S
N419 C416 1.341 1_565 S
N419 N418 1.365 . S
N419 H439 0.862 . S
C420 C415 1.501 . S
C420 H421 0.961 1_545 S
C420 H422 0.961 1_545 S
C420 H423 0.960 . S
H421 C420 0.961 1_565 S
H422 C420 0.961 1_565 S
H423 C420 0.960 . S
C424 N425 1.342 . S
C424 C428 1.401 . S
C424 C429 1.499 . S
N425 Co408 1.989 . S
N425 C424 1.342 . S
N425 N426 1.388 . S
N426 Co409 1.993 . S
N426 N425 1.388 . S
N426 C427 1.346 . S
C427 N426 1.346 . S
C427 C428 1.396 . S
C427 C437 1.510 . S
C428 C424 1.401 . S
C428 C427 1.396 . S
C429 C424 1.499 . S
C429 H430 0.959 . S
C429 H431 0.960 . S
C429 H432 0.961 . S
H430 C429 0.959 . S
H431 C429 0.960 . S
H432 C429 0.961 . S
O433 Co408 1.967 . S
O433 C441 1.258 . S
O434 Co409 1.941 . S
O434 C441 1.266 . S
H435 C437 0.959 . S
H436 C437 0.961 . S
C437 C427 1.510 . S
C437 H435 0.959 . S
C437 H436 0.961 . S
C437 H438 0.960 . S
H438 C437 0.960 . S
H439 N419 0.862 . S
O440 Co408 1.920 . S
O440 C413 1.289 . S
C441 O433 1.258 . S
C441 O434 1.266 . S
Co442 O445 1.970 . S
Co442 N459 1.989 . S
Co442 O467 1.967 . S
Co442 O474 1.920 . S
Co443 O446 1.966 . S
Co443 N452 2.022 . S
Co443 N460 1.993 . S
Co443 O468 1.941 . S
C444 O445 1.258 . S
C444 O446 1.263 . S
O445 Co442 1.970 . S
O445 C444 1.258 . S
O446 Co443 1.966 . S
O446 C444 1.263 . S
C447 O448 1.235 . S
C447 O474 1.289 . S
O448 C447 1.235 . S
C449 C451 1.383 1_455 S
C449 N452 1.361 . S
C449 C454 1.508 1_455 S
C450 C451 1.387 . S
C450 N453 1.341 1_655 S
C451 C449 1.383 1_655 S
C451 C450 1.387 . S
N452 Co443 2.022 . S
N452 C449 1.361 . S
N452 N453 1.365 . S
N453 C450 1.341 1_455 S
N453 N452 1.365 . S
N453 H473 0.862 . S
C454 C449 1.508 1_655 S
C454 H455 0.961 1_655 S
C454 H456 0.961 1_655 S
C454 H457 0.960 . S
H455 C454 0.961 1_455 S
H456 C454 0.961 1_455 S
H457 C454 0.960 . S
C458 N459 1.342 . S
C458 C462 1.401 . S
C458 C463 1.499 . S
N459 Co442 1.989 . S
N459 C458 1.342 . S
N459 N460 1.388 . S
N460 Co443 1.993 . S
N460 N459 1.388 . S
N460 C461 1.346 . S
C461 N460 1.346 . S
C461 C462 1.396 . S
C461 C471 1.510 . S
C462 C458 1.401 . S
C462 C461 1.396 . S
C463 C458 1.499 . S
C463 H464 0.959 . S
C463 H465 0.960 . S
C463 H466 0.961 . S
H464 C463 0.959 . S
H465 C463 0.960 . S
H466 C463 0.961 . S
O467 Co442 1.967 . S
O467 C475 1.258 . S
O468 Co443 1.941 . S
O468 C475 1.266 . S
H469 C471 0.959 . S
H470 C471 0.961 . S
C471 C461 1.510 . S
C471 H469 0.959 . S
C471 H470 0.961 . S
C471 H472 0.960 . S
H472 C471 0.960 . S
H473 N453 0.862 . S
O474 Co442 1.920 . S
O474 C447 1.289 . S
C475 O467 1.258 . S
C475 O468 1.266 . S
Co476 O479 1.970 . S
Co476 N493 1.989 . S
Co476 O501 1.967 . S
Co476 O508 1.920 . S
Co477 O480 1.966 . S
Co477 N486 2.022 . S
Co477 N494 1.993 . S
Co477 O502 1.941 . S
C478 O479 1.258 . S
C478 O480 1.263 . S
O479 Co476 1.970 . S
O479 C478 1.258 . S
O480 Co477 1.966 . S
O480 C478 1.263 . S
C481 O482 1.235 . S
C481 O508 1.289 . S
O482 C481 1.235 . S
C483 C485 1.400 . S
C483 N486 1.351 . S
C483 C488 1.501 . S
C484 C485 1.387 . S
C484 N487 1.341 . S
C485 C483 1.400 . S
C485 C484 1.387 . S
N486 Co477 2.022 . S
N486 C483 1.351 . S
N486 N487 1.365 . S
N487 C484 1.341 . S
N487 N486 1.365 . S
N487 H507 0.862 . S
C488 C483 1.501 . S
C488 H489 0.961 . S
C488 H490 0.961 . S
C488 H491 0.960 . S
H489 C488 0.961 . S
H490 C488 0.961 . S
H491 C488 0.960 . S
C492 N493 1.342 . S
C492 C496 1.401 . S
C492 C497 1.499 . S
N493 Co476 1.989 . S
N493 C492 1.342 . S
N493 N494 1.388 . S
N494 Co477 1.993 . S
N494 N493 1.388 . S
N494 C495 1.346 . S
C495 N494 1.346 . S
C495 C496 1.396 . S
C495 C505 1.510 . S
C496 C492 1.401 . S
C496 C495 1.396 . S
C497 C492 1.499 . S
C497 H498 0.959 . S
C497 H499 0.960 . S
C497 H500 0.961 . S
H498 C497 0.959 . S
H499 C497 0.960 . S
H500 C497 0.961 . S
O501 Co476 1.967 . S
O501 C509 1.258 . S
O502 Co477 1.941 . S
O502 C509 1.266 . S
H503 C505 0.959 . S
H504 C505 0.961 . S
C505 C495 1.510 . S
C505 H503 0.959 . S
C505 H504 0.961 . S
C505 H506 0.960 . S
H506 C505 0.960 . S
H507 N487 0.862 . S
O508 Co476 1.920 . S
O508 C481 1.289 . S
C509 O501 1.258 . S
C509 O502 1.266 . S
Co510 O513 1.970 . S
Co510 N527 1.989 . S
Co510 O535 1.967 . S
Co510 O542 1.920 . S
Co511 O514 1.966 . S
Co511 N520 2.022 . S
Co511 N528 1.993 . S
Co511 O536 1.941 . S
C512 O513 1.258 . S
C512 O514 1.263 . S
O513 Co510 1.970 . S
O513 C512 1.258 . S
O514 Co511 1.966 . S
O514 C512 1.263 . S
C515 O516 1.235 . S
C515 O542 1.289 . S
O516 C515 1.235 . S
C517 C519 1.400 . S
C517 N520 1.351 . S
C517 C522 1.501 . S
C518 C519 1.387 . S
C518 N521 1.341 . S
C519 C517 1.400 . S
C519 C518 1.387 . S
N520 Co511 2.022 . S
N520 C517 1.351 . S
N520 N521 1.365 . S
N521 C518 1.341 . S
N521 N520 1.365 . S
N521 H541 0.862 . S
C522 C517 1.501 . S
C522 H523 0.961 . S
C522 H524 0.961 . S
C522 H525 0.960 . S
H523 C522 0.961 . S
H524 C522 0.961 . S
H525 C522 0.960 . S
C526 N527 1.342 . S
C526 C530 1.401 . S
C526 C531 1.499 . S
N527 Co510 1.989 . S
N527 C526 1.342 . S
N527 N528 1.388 . S
N528 Co511 1.993 . S
N528 N527 1.388 . S
N528 C529 1.346 . S
C529 N528 1.346 . S
C529 C530 1.396 . S
C529 C539 1.510 . S
C530 C526 1.401 . S
C530 C529 1.396 . S
C531 C526 1.499 . S
C531 H532 0.959 . S
C531 H533 0.960 . S
C531 H534 0.961 . S
H532 C531 0.959 . S
H533 C531 0.960 . S
H534 C531 0.961 . S
O535 Co510 1.967 . S
O535 C543 1.258 . S
O536 Co511 1.941 . S
O536 C543 1.266 . S
H537 C539 0.959 . S
H538 C539 0.961 . S
C539 C529 1.510 . S
C539 H537 0.959 . S
C539 H538 0.961 . S
C539 H540 0.960 . S
H540 C539 0.960 . S
H541 N521 0.862 . S
O542 Co510 1.920 . S
O542 C515 1.289 . S
C543 O535 1.258 . S
C543 O536 1.266 . S
Co544 O547 1.970 . S
Co544 N561 1.989 . S
Co544 O569 1.967 . S
Co544 O576 1.920 . S
Co545 O548 1.966 . S
Co545 N554 2.022 . S
Co545 N562 1.993 . S
Co545 O570 1.941 . S
C546 O547 1.258 . S
C546 O548 1.263 . S
O547 Co544 1.970 . S
O547 C546 1.258 . S
O548 Co545 1.966 . S
O548 C546 1.263 . S
C549 O550 1.235 . S
C549 O576 1.289 . S
O550 C549 1.235 . S
C551 C553 1.400 . S
C551 N554 1.351 . S
C551 C556 1.501 . S
C552 C553 1.387 . S
C552 N555 1.341 . S
C553 C551 1.400 . S
C553 C552 1.387 . S
N554 Co545 2.022 . S
N554 C551 1.351 . S
N554 N555 1.365 . S
N555 C552 1.341 . S
N555 N554 1.365 . S
N555 H575 0.862 . S
C556 C551 1.501 . S
C556 H557 0.961 . S
C556 H558 0.961 . S
C556 H559 0.960 . S
H557 C556 0.961 . S
H558 C556 0.961 . S
H559 C556 0.960 . S
C560 N561 1.342 . S
C560 C564 1.401 . S
C560 C565 1.499 . S
N561 Co544 1.989 . S
N561 C560 1.342 . S
N561 N562 1.388 . S
N562 Co545 1.993 . S
N562 N561 1.388 . S
N562 C563 1.346 . S
C563 N562 1.346 . S
C563 C564 1.396 . S
C563 C573 1.510 . S
C564 C560 1.401 . S
C564 C563 1.396 . S
C565 C560 1.499 . S
C565 H566 0.959 . S
C565 H567 0.960 . S
C565 H568 0.961 . S
H566 C565 0.959 . S
H567 C565 0.960 . S
H568 C565 0.961 . S
O569 Co544 1.967 . S
O569 C577 1.258 . S
O570 Co545 1.941 . S
O570 C577 1.266 . S
H571 C573 0.959 . S
H572 C573 0.961 . S
C573 C563 1.510 . S
C573 H571 0.959 . S
C573 H572 0.961 . S
C573 H574 0.960 . S
H574 C573 0.960 . S
H575 N555 0.862 . S
O576 Co544 1.920 . S
O576 C549 1.289 . S
C577 O569 1.258 . S
C577 O570 1.266 . S
Co578 O581 1.970 . S
Co578 N595 1.989 . S
Co578 O603 1.967 . S
Co578 O610 1.920 . S
Co579 O582 1.966 . S
Co579 N588 2.022 . S
Co579 N596 1.993 . S
Co579 O604 1.941 . S
C580 O581 1.258 . S
C580 O582 1.263 . S
O581 Co578 1.970 . S
O581 C580 1.258 . S
O582 Co579 1.966 . S
O582 C580 1.263 . S
C583 O584 1.235 . S
C583 O610 1.289 . S
O584 C583 1.235 . S
C585 C587 1.400 . S
C585 N588 1.351 . S
C585 C590 1.501 . S
C586 C587 1.387 . S
C586 N589 1.341 . S
C587 C585 1.400 . S
C587 C586 1.387 . S
N588 Co579 2.022 . S
N588 C585 1.351 . S
N588 N589 1.365 . S
N589 C586 1.341 . S
N589 N588 1.365 . S
N589 H609 0.862 . S
C590 C585 1.501 . S
C590 H591 0.961 . S
C590 H592 0.961 . S
C590 H593 0.960 . S
H591 C590 0.961 . S
H592 C590 0.961 . S
H593 C590 0.960 . S
C594 N595 1.342 . S
C594 C598 1.401 . S
C594 C599 1.499 . S
N595 Co578 1.989 . S
N595 C594 1.342 . S
N595 N596 1.388 . S
N596 Co579 1.993 . S
N596 N595 1.388 . S
N596 C597 1.346 . S
C597 N596 1.346 . S
C597 C598 1.396 . S
C597 C607 1.510 . S
C598 C594 1.401 . S
C598 C597 1.396 . S
C599 C594 1.499 . S
C599 H600 0.959 . S
C599 H601 0.960 . S
C599 H602 0.961 . S
H600 C599 0.959 . S
H601 C599 0.960 . S
H602 C599 0.961 . S
O603 Co578 1.967 . S
O603 C611 1.258 . S
O604 Co579 1.941 . S
O604 C611 1.266 . S
H605 C607 0.959 . S
H606 C607 0.961 . S
C607 C597 1.510 . S
C607 H605 0.959 . S
C607 H606 0.961 . S
C607 H608 0.960 . S
H608 C607 0.960 . S
H609 N589 0.862 . S
O610 Co578 1.920 . S
O610 C583 1.289 . S
C611 O603 1.258 . S
C611 O604 1.266 . S
H612 C624 0.930 . S
H613 C626 0.930 . S
H614 C627 0.930 . S
H615 C631 0.959 . S
H616 C631 0.959 . S
H617 C631 0.961 . S
H618 C632 0.960 . S
H619 C632 0.961 . S
H620 C632 0.959 . S
H621 C635 0.929 . S
H622 C636 0.931 . S
H623 C638 0.930 . S
C624 H612 0.930 . S
C624 C625 1.399 . S
C624 C629 1.399 . S
C625 C624 1.399 . S
C625 C626 1.376 . S
C626 H613 0.930 . S
C626 C625 1.376 . S
C626 C627 1.388 . S
C627 H614 0.930 . S
C627 C626 1.388 . S
C627 C628 1.390 . S
C628 C627 1.390 . S
C628 C629 1.394 . S
C628 C634 1.465 . S
C629 C624 1.399 . S
C629 C628 1.394 . S
C629 C630 1.516 . S
C630 C629 1.516 . S
C630 C631 1.502 . S
C630 C632 1.561 . S
C630 C633 1.526 . S
C631 H615 0.959 . S
C631 H616 0.959 . S
C631 H617 0.961 . S
C631 C630 1.502 . S
C632 H618 0.960 . S
C632 H619 0.961 . S
C632 H620 0.959 . S
C632 C630 1.561 . S
C633 C630 1.526 . S
C633 C634 1.396 . S
C633 C638 1.390 . S
C634 C628 1.465 . S
C634 C633 1.396 . S
C634 C635 1.399 . S
C635 H621 0.929 . S
C635 C634 1.399 . S
C635 C636 1.385 . S
C636 H622 0.931 . S
C636 C635 1.385 . S
C636 C637 1.389 . S
C637 C636 1.389 . S
C637 C638 1.387 . S
C638 H623 0.930 . S
C638 C633 1.390 . S
C638 C637 1.387 . S
H639 C651 0.930 . S
H640 C653 0.930 . S
H641 C654 0.930 . S
H642 C658 0.959 . S
H643 C658 0.959 . S
H644 C658 0.961 . S
H645 C659 0.960 . S
H646 C659 0.961 . S
H647 C659 0.959 . S
H648 C662 0.929 . S
H649 C663 0.931 1_545 S
H650 C665 0.930 . S
C651 H639 0.930 . S
C651 C652 1.399 . S
C651 C656 1.399 . S
C652 C651 1.399 . S
C652 C653 1.376 . S
C653 H640 0.930 . S
C653 C652 1.376 . S
C653 C654 1.388 . S
C654 H641 0.930 . S
C654 C653 1.388 . S
C654 C655 1.390 . S
C655 C654 1.390 . S
C655 C656 1.394 . S
C655 C661 1.465 . S
C656 C651 1.399 . S
C656 C655 1.394 . S
C656 C657 1.516 . S
C657 C656 1.516 . S
C657 C658 1.502 . S
C657 C659 1.561 . S
C657 C660 1.526 . S
C658 H642 0.959 . S
C658 H643 0.959 . S
C658 H644 0.961 . S
C658 C657 1.502 . S
C659 H645 0.960 . S
C659 H646 0.961 . S
C659 H647 0.959 . S
C659 C657 1.561 . S
C660 C657 1.526 . S
C660 C661 1.396 . S
C660 C665 1.390 . S
C661 C655 1.465 . S
C661 C660 1.396 . S
C661 C662 1.399 . S
C662 H648 0.929 . S
C662 C661 1.399 . S
C662 C663 1.385 . S
C663 H649 0.931 1_565 S
C663 C662 1.385 . S
C663 C664 1.389 . S
C664 C663 1.389 . S
C664 C665 1.387 . S
C665 H650 0.930 . S
C665 C660 1.390 . S
C665 C664 1.387 . S
H666 C678 0.930 . S
H667 C680 0.930 1_655 S
H668 C681 0.930 . S
H669 C685 0.959 . S
H670 C685 0.959 . S
H671 C685 0.961 . S
H672 C686 0.960 . S
H673 C686 0.961 . S
H674 C686 0.959 . S
H675 C689 0.929 . S
H676 C690 0.931 . S
H677 C692 0.930 . S
C678 H666 0.930 . S
C678 C679 1.399 . S
C678 C683 1.399 . S
C679 C678 1.399 . S
C679 C680 1.376 . S
C680 H667 0.930 1_455 S
C680 C679 1.376 . S
C680 C681 1.388 . S
C681 H668 0.930 . S
C681 C680 1.388 . S
C681 C682 1.390 . S
C682 C681 1.390 . S
C682 C683 1.394 . S
C682 C688 1.465 . S
C683 C678 1.399 . S
C683 C682 1.394 . S
C683 C684 1.516 . S
C684 C683 1.516 . S
C684 C685 1.502 . S
C684 C686 1.561 . S
C684 C687 1.526 . S
C685 H669 0.959 . S
C685 H670 0.959 . S
C685 H671 0.961 . S
C685 C684 1.502 . S
C686 H672 0.960 . S
C686 H673 0.961 . S
C686 H674 0.959 . S
C686 C684 1.561 . S
C687 C684 1.526 . S
C687 C688 1.396 . S
C687 C692 1.390 . S
C688 C682 1.465 . S
C688 C687 1.396 . S
C688 C689 1.399 . S
C689 H675 0.929 . S
C689 C688 1.399 . S
C689 C690 1.385 . S
C690 H676 0.931 . S
C690 C689 1.385 . S
C690 C691 1.389 . S
C691 C690 1.389 . S
C691 C692 1.387 . S
C692 H677 0.930 . S
C692 C687 1.390 . S
C692 C691 1.387 . S
H693 C705 0.930 . S
H694 C707 0.930 . S
H695 C708 0.930 . S
H696 C712 0.959 . S
H697 C712 0.959 . S
H698 C712 0.961 . S
H699 C713 0.960 . S
H700 C713 0.961 . S
H701 C713 0.959 . S
H702 C716 0.929 . S
H703 C717 0.931 . S
H704 C719 0.930 . S
C705 H693 0.930 . S
C705 C706 1.399 . S
C705 C710 1.399 . S
C706 C705 1.399 . S
C706 C707 1.376 . S
C707 H694 0.930 . S
C707 C706 1.376 . S
C707 C708 1.388 . S
C708 H695 0.930 . S
C708 C707 1.388 . S
C708 C709 1.390 . S
C709 C708 1.390 . S
C709 C710 1.394 . S
C709 C715 1.465 . S
C710 C705 1.399 . S
C710 C709 1.394 . S
C710 C711 1.516 . S
C711 C710 1.516 . S
C711 C712 1.502 . S
C711 C713 1.561 . S
C711 C714 1.526 . S
C712 H696 0.959 . S
C712 H697 0.959 . S
C712 H698 0.961 . S
C712 C711 1.502 . S
C713 H699 0.960 . S
C713 H700 0.961 . S
C713 H701 0.959 . S
C713 C711 1.561 . S
C714 C711 1.526 . S
C714 C715 1.396 . S
C714 C719 1.390 . S
C715 C709 1.465 . S
C715 C714 1.396 . S
C715 C716 1.399 . S
C716 H702 0.929 . S
C716 C715 1.399 . S
C716 C717 1.385 . S
C717 H703 0.931 . S
C717 C716 1.385 . S
C717 C718 1.389 . S
C718 C717 1.389 . S
C718 C719 1.387 . S
C719 H704 0.930 . S
C719 C714 1.390 . S
C719 C718 1.387 . S
H720 C732 0.930 . S
H721 C734 0.930 . S
H722 C735 0.930 . S
H723 C739 0.959 . S
H724 C739 0.959 . S
H725 C739 0.961 . S
H726 C740 0.960 . S
H727 C740 0.961 . S
H728 C740 0.959 . S
H729 C743 0.929 . S
H730 C744 0.931 . S
H731 C746 0.930 . S
C732 H720 0.930 . S
C732 C733 1.399 . S
C732 C737 1.399 . S
C733 C732 1.399 . S
C733 C734 1.376 . S
C734 H721 0.930 . S
C734 C733 1.376 . S
C734 C735 1.388 . S
C735 H722 0.930 . S
C735 C734 1.388 . S
C735 C736 1.390 . S
C736 C735 1.390 . S
C736 C737 1.394 . S
C736 C742 1.465 . S
C737 C732 1.399 . S
C737 C736 1.394 . S
C737 C738 1.516 . S
C738 C737 1.516 . S
C738 C739 1.502 . S
C738 C740 1.561 . S
C738 C741 1.526 . S
C739 H723 0.959 . S
C739 H724 0.959 . S
C739 H725 0.961 . S
C739 C738 1.502 . S
C740 H726 0.960 . S
C740 H727 0.961 . S
C740 H728 0.959 . S
C740 C738 1.561 . S
C741 C738 1.526 . S
C741 C742 1.396 . S
C741 C746 1.390 . S
C742 C736 1.465 . S
C742 C741 1.396 . S
C742 C743 1.399 . S
C743 H729 0.929 . S
C743 C742 1.399 . S
C743 C744 1.385 . S
C744 H730 0.931 . S
C744 C743 1.385 . S
C744 C745 1.389 . S
C745 C744 1.389 . S
C745 C746 1.387 . S
C746 H731 0.930 . S
C746 C741 1.390 . S
C746 C745 1.387 . S
H747 C759 0.930 . S
H748 C761 0.930 . S
H749 C762 0.930 . S
H750 C766 0.959 . S
H751 C766 0.959 . S
H752 C766 0.961 . S
H753 C767 0.960 . S
H754 C767 0.961 . S
H755 C767 0.959 . S
H756 C770 0.929 . S
H757 C771 0.931 . S
H758 C773 0.930 . S
C759 H747 0.930 . S
C759 C760 1.399 . S
C759 C764 1.399 . S
C760 C759 1.399 . S
C760 C761 1.376 . S
C761 H748 0.930 . S
C761 C760 1.376 . S
C761 C762 1.388 . S
C762 H749 0.930 . S
C762 C761 1.388 . S
C762 C763 1.390 . S
C763 C762 1.390 . S
C763 C764 1.394 . S
C763 C769 1.465 . S
C764 C759 1.399 . S
C764 C763 1.394 . S
C764 C765 1.516 . S
C765 C764 1.516 . S
C765 C766 1.502 . S
C765 C767 1.561 . S
C765 C768 1.526 . S
C766 H750 0.959 . S
C766 H751 0.959 . S
C766 H752 0.961 . S
C766 C765 1.502 . S
C767 H753 0.960 . S
C767 H754 0.961 . S
C767 H755 0.959 . S
C767 C765 1.561 . S
C768 C765 1.526 . S
C768 C769 1.396 . S
C768 C773 1.390 . S
C769 C763 1.465 . S
C769 C768 1.396 . S
C769 C770 1.399 . S
C770 H756 0.929 . S
C770 C769 1.399 . S
C770 C771 1.385 . S
C771 H757 0.931 . S
C771 C770 1.385 . S
C771 C772 1.389 . S
C772 C771 1.389 . S
C772 C773 1.387 . S
C773 H758 0.930 . S
C773 C768 1.390 . S
C773 C772 1.387 . S
H774 C786 0.930 . S
H775 C788 0.930 . S
H776 C789 0.930 . S
H777 C793 0.959 . S
H778 C793 0.959 . S
H779 C793 0.961 . S
H780 C794 0.960 . S
H781 C794 0.961 . S
H782 C794 0.959 . S
H783 C797 0.929 . S
H784 C798 0.931 . S
H785 C800 0.930 . S
C786 H774 0.930 . S
C786 C787 1.399 . S
C786 C791 1.399 . S
C787 C786 1.399 . S
C787 C788 1.376 . S
C788 H775 0.930 . S
C788 C787 1.376 . S
C788 C789 1.388 . S
C789 H776 0.930 . S
C789 C788 1.388 . S
C789 C790 1.390 . S
C790 C789 1.390 . S
C790 C791 1.394 . S
C790 C796 1.465 . S
C791 C786 1.399 . S
C791 C790 1.394 . S
C791 C792 1.516 . S
C792 C791 1.516 . S
C792 C793 1.502 . S
C792 C794 1.561 . S
C792 C795 1.526 . S
C793 H777 0.959 . S
C793 H778 0.959 . S
C793 H779 0.961 . S
C793 C792 1.502 . S
C794 H780 0.960 . S
C794 H781 0.961 . S
C794 H782 0.959 . S
C794 C792 1.561 . S
C795 C792 1.526 . S
C795 C796 1.396 . S
C795 C800 1.390 . S
C796 C790 1.465 . S
C796 C795 1.396 . S
C796 C797 1.399 . S
C797 H783 0.929 . S
C797 C796 1.399 . S
C797 C798 1.385 . S
C798 H784 0.931 . S
C798 C797 1.385 . S
C798 C799 1.389 . S
C799 C798 1.389 . S
C799 C800 1.387 . S
C800 H785 0.930 . S
C800 C795 1.390 . S
C800 C799 1.387 . S
H801 C813 0.930 . S
H802 C815 0.930 . S
H803 C816 0.930 . S
H804 C820 0.959 . S
H805 C820 0.959 . S
H806 C820 0.961 . S
H807 C821 0.960 . S
H808 C821 0.961 . S
H809 C821 0.959 . S
H810 C824 0.929 . S
H811 C825 0.931 . S
H812 C827 0.930 . S
C813 H801 0.930 . S
C813 C814 1.399 1_545 S
C813 C818 1.399 . S
C814 C813 1.399 1_565 S
C814 C815 1.376 . S
C815 H802 0.930 . S
C815 C814 1.376 . S
C815 C816 1.388 . S
C816 H803 0.930 . S
C816 C815 1.388 . S
C816 C817 1.390 1_565 S
C817 C816 1.390 1_545 S
C817 C818 1.394 . S
C817 C823 1.465 . S
C818 C813 1.399 . S
C818 C817 1.394 . S
C818 C819 1.516 . S
C819 C818 1.516 . S
C819 C820 1.502 . S
C819 C821 1.561 . S
C819 C822 1.526 . S
C820 H804 0.959 . S
C820 H805 0.959 . S
C820 H806 0.961 . S
C820 C819 1.502 . S
C821 H807 0.960 . S
C821 H808 0.961 . S
C821 H809 0.959 . S
C821 C819 1.561 . S
C822 C819 1.526 . S
C822 C823 1.396 . S
C822 C827 1.390 . S
C823 C817 1.465 . S
C823 C822 1.396 . S
C823 C824 1.399 . S
C824 H810 0.929 . S
C824 C823 1.399 . S
C824 C825 1.385 . S
C825 H811 0.931 . S
C825 C824 1.385 . S
C825 C826 1.389 . S
C826 C825 1.389 . S
C826 C827 1.387 . S
C827 H812 0.930 . S
C827 C822 1.390 . S
C827 C826 1.387 . S
H828 C840 0.930 . S
H829 C842 0.930 . S
H830 C843 0.930 . S
H831 C847 0.959 . S
H832 C847 0.959 . S
H833 C847 0.961 . S
H834 C848 0.960 . S
H835 C848 0.961 . S
H836 C848 0.959 . S
H837 C851 0.929 . S
H838 C852 0.931 . S
H839 C854 0.930 . S
C840 H828 0.930 . S
C840 C841 1.399 . S
C840 C845 1.399 1_455 S
C841 C840 1.399 . S
C841 C842 1.376 . S
C842 H829 0.930 . S
C842 C841 1.376 . S
C842 C843 1.388 1_455 S
C843 H830 0.930 . S
C843 C842 1.388 1_655 S
C843 C844 1.390 . S
C844 C843 1.390 . S
C844 C845 1.394 . S
C844 C850 1.465 . S
C845 C840 1.399 1_655 S
C845 C844 1.394 . S
C845 C846 1.516 . S
C846 C845 1.516 . S
C846 C847 1.502 1_655 S
C846 C848 1.561 . S
C846 C849 1.526 . S
C847 H831 0.959 . S
C847 H832 0.959 . S
C847 H833 0.961 . S
C847 C846 1.502 1_455 S
C848 H834 0.960 . S
C848 H835 0.961 . S
C848 H836 0.959 . S
C848 C846 1.561 . S
C849 C846 1.526 . S
C849 C850 1.396 . S
C849 C854 1.390 . S
C850 C844 1.465 . S
C850 C849 1.396 . S
C850 C851 1.399 . S
C851 H837 0.929 . S
C851 C850 1.399 . S
C851 C852 1.385 . S
C852 H838 0.931 . S
C852 C851 1.385 . S
C852 C853 1.389 . S
C853 C852 1.389 . S
C853 C854 1.387 . S
C854 H839 0.930 . S
C854 C849 1.390 . S
C854 C853 1.387 . S
H855 C867 0.930 . S
H856 C869 0.930 . S
H857 C870 0.930 . S
H858 C874 0.959 . S
H859 C874 0.959 . S
H860 C874 0.961 . S
H861 C875 0.960 . S
H862 C875 0.961 . S
H863 C875 0.959 . S
H864 C878 0.929 . S
H865 C879 0.931 . S
H866 C881 0.930 . S
C867 H855 0.930 . S
C867 C868 1.399 . S
C867 C872 1.399 . S
C868 C867 1.399 . S
C868 C869 1.376 . S
C869 H856 0.930 . S
C869 C868 1.376 . S
C869 C870 1.388 . S
C870 H857 0.930 . S
C870 C869 1.388 . S
C870 C871 1.390 . S
C871 C870 1.390 . S
C871 C872 1.394 . S
C871 C877 1.465 . S
C872 C867 1.399 . S
C872 C871 1.394 . S
C872 C873 1.516 . S
C873 C872 1.516 . S
C873 C874 1.502 . S
C873 C875 1.561 . S
C873 C876 1.526 . S
C874 H858 0.959 . S
C874 H859 0.959 . S
C874 H860 0.961 . S
C874 C873 1.502 . S
C875 H861 0.960 . S
C875 H862 0.961 . S
C875 H863 0.959 . S
C875 C873 1.561 . S
C876 C873 1.526 . S
C876 C877 1.396 . S
C876 C881 1.390 . S
C877 C871 1.465 . S
C877 C876 1.396 . S
C877 C878 1.399 . S
C878 H864 0.929 . S
C878 C877 1.399 . S
C878 C879 1.385 . S
C879 H865 0.931 . S
C879 C878 1.385 . S
C879 C880 1.389 . S
C880 C879 1.389 . S
C880 C881 1.387 . S
C881 H866 0.930 . S
C881 C876 1.390 . S
C881 C880 1.387 . S
H882 C894 0.930 . S
H883 C896 0.930 . S
H884 C897 0.930 . S
H885 C901 0.959 . S
H886 C901 0.959 . S
H887 C901 0.961 . S
H888 C902 0.960 . S
H889 C902 0.961 . S
H890 C902 0.959 . S
H891 C905 0.929 . S
H892 C906 0.931 . S
H893 C908 0.930 . S
C894 H882 0.930 . S
C894 C895 1.399 . S
C894 C899 1.399 . S
C895 C894 1.399 . S
C895 C896 1.376 . S
C896 H883 0.930 . S
C896 C895 1.376 . S
C896 C897 1.388 . S
C897 H884 0.930 . S
C897 C896 1.388 . S
C897 C898 1.390 . S
C898 C897 1.390 . S
C898 C899 1.394 . S
C898 C904 1.465 . S
C899 C894 1.399 . S
C899 C898 1.394 . S
C899 C900 1.516 1_565 S
C900 C899 1.516 1_545 S
C900 C901 1.502 . S
C900 C902 1.561 . S
C900 C903 1.526 . S
C901 H885 0.959 . S
C901 H886 0.959 . S
C901 H887 0.961 . S
C901 C900 1.502 . S
C902 H888 0.960 . S
C902 H889 0.961 . S
C902 H890 0.959 . S
C902 C900 1.561 . S
C903 C900 1.526 . S
C903 C904 1.396 1_545 S
C903 C908 1.390 . S
C904 C898 1.465 . S
C904 C903 1.396 1_565 S
C904 C905 1.399 . S
C905 H891 0.929 . S
C905 C904 1.399 . S
C905 C906 1.385 . S
C906 H892 0.931 . S
C906 C905 1.385 . S
C906 C907 1.389 1_565 S
C907 C906 1.389 1_545 S
C907 C908 1.387 . S
C908 H893 0.930 . S
C908 C903 1.390 . S
C908 C907 1.387 . S
H909 C921 0.930 . S
H910 C923 0.930 . S
H911 C924 0.930 . S
H912 C928 0.959 . S
H913 C928 0.959 . S
H914 C928 0.961 . S
H915 C929 0.960 . S
H916 C929 0.961 . S
H917 C929 0.959 . S
H918 C932 0.929 . S
H919 C933 0.931 . S
H920 C935 0.930 . S
C921 H909 0.930 . S
C921 C922 1.399 . S
C921 C926 1.399 . S
C922 C921 1.399 . S
C922 C923 1.376 . S
C923 H910 0.930 . S
C923 C922 1.376 . S
C923 C924 1.388 . S
C924 H911 0.930 . S
C924 C923 1.388 . S
C924 C925 1.390 . S
C925 C924 1.390 . S
C925 C926 1.394 . S
C925 C931 1.465 . S
C926 C921 1.399 . S
C926 C925 1.394 . S
C926 C927 1.516 . S
C927 C926 1.516 . S
C927 C928 1.502 . S
C927 C929 1.561 . S
C927 C930 1.526 . S
C928 H912 0.959 . S
C928 H913 0.959 . S
C928 H914 0.961 . S
C928 C927 1.502 . S
C929 H915 0.960 . S
C929 H916 0.961 . S
C929 H917 0.959 . S
C929 C927 1.561 . S
C930 C927 1.526 . S
C930 C931 1.396 . S
C930 C935 1.390 . S
C931 C925 1.465 . S
C931 C930 1.396 . S
C931 C932 1.399 1_455 S
C932 H918 0.929 . S
C932 C931 1.399 1_655 S
C932 C933 1.385 . S
C933 H919 0.931 . S
C933 C932 1.385 . S
C933 C934 1.389 . S
C934 C933 1.389 . S
C934 C935 1.387 1_655 S
C935 H920 0.930 . S
C935 C930 1.390 . S
C935 C934 1.387 1_455 S
H936 C948 0.930 . S
H937 C950 0.930 . S
H938 C951 0.930 . S
H939 C955 0.959 . S
H940 C955 0.959 . S
H941 C955 0.961 . S
H942 C956 0.960 . S
H943 C956 0.961 . S
H944 C956 0.959 . S
H945 C959 0.929 . S
H946 C960 0.931 . S
H947 C962 0.930 . S
C948 H936 0.930 . S
C948 C949 1.399 . S
C948 C953 1.399 . S
C949 C948 1.399 . S
C949 C950 1.376 . S
C950 H937 0.930 . S
C950 C949 1.376 . S
C950 C951 1.388 . S
C951 H938 0.930 . S
C951 C950 1.388 . S
C951 C952 1.390 . S
C952 C951 1.390 . S
C952 C953 1.394 . S
C952 C958 1.465 1_455 S
C953 C948 1.399 . S
C953 C952 1.394 . S
C953 C954 1.516 . S
C954 C953 1.516 . S
C954 C955 1.502 . S
C954 C956 1.561 . S
C954 C957 1.526 1_455 S
C955 H939 0.959 . S
C955 H940 0.959 . S
C955 H941 0.961 . S
C955 C954 1.502 . S
C956 H942 0.960 . S
C956 H943 0.961 . S
C956 H944 0.959 . S
C956 C954 1.561 . S
C957 C954 1.526 1_655 S
C957 C958 1.396 . S
C957 C962 1.390 . S
C958 C952 1.465 1_655 S
C958 C957 1.396 . S
C958 C959 1.399 . S
C959 H945 0.929 . S
C959 C958 1.399 . S
C959 C960 1.385 . S
C960 H946 0.931 . S
C960 C959 1.385 . S
C960 C961 1.389 . S
C961 C960 1.389 . S
C961 C962 1.387 . S
C962 H947 0.930 . S
C962 C957 1.390 . S
C962 C961 1.387 . S
H963 C975 0.930 . S
H964 C977 0.930 . S
H965 C978 0.930 . S
H966 C982 0.959 . S
H967 C982 0.959 . S
H968 C982 0.961 . S
H969 C983 0.960 . S
H970 C983 0.961 . S
H971 C983 0.959 . S
H972 C986 0.929 . S
H973 C987 0.931 . S
H974 C989 0.930 . S
C975 H963 0.930 . S
C975 C976 1.399 . S
C975 C980 1.399 . S
C976 C975 1.399 . S
C976 C977 1.376 . S
C977 H964 0.930 . S
C977 C976 1.376 . S
C977 C978 1.388 . S
C978 H965 0.930 . S
C978 C977 1.388 . S
C978 C979 1.390 . S
C979 C978 1.390 . S
C979 C980 1.394 . S
C979 C985 1.465 . S
C980 C975 1.399 . S
C980 C979 1.394 . S
C980 C981 1.516 . S
C981 C980 1.516 . S
C981 C982 1.502 . S
C981 C983 1.561 . S
C981 C984 1.526 . S
C982 H966 0.959 . S
C982 H967 0.959 . S
C982 H968 0.961 . S
C982 C981 1.502 . S
C983 H969 0.960 . S
C983 H970 0.961 . S
C983 H971 0.959 . S
C983 C981 1.561 . S
C984 C981 1.526 . S
C984 C985 1.396 . S
C984 C989 1.390 . S
C985 C979 1.465 . S
C985 C984 1.396 . S
C985 C986 1.399 . S
C986 H972 0.929 . S
C986 C985 1.399 . S
C986 C987 1.385 . S
C987 H973 0.931 . S
C987 C986 1.385 . S
C987 C988 1.389 . S
C988 C987 1.389 . S
C988 C989 1.387 . S
C989 H974 0.930 . S
C989 C984 1.390 . S
C989 C988 1.387 . S
H990 C1002 0.930 . S
H991 C1004 0.930 . S
H992 C1005 0.930 . S
H993 C1009 0.959 . S
H994 C1009 0.959 . S
H995 C1009 0.961 . S
H996 C1010 0.960 . S
H997 C1010 0.961 . S
H998 C1010 0.959 . S
H999 C1013 0.929 . S
H1000 C1014 0.931 . S
H1001 C1016 0.930 . S
C1002 H990 0.930 . S
C1002 C1003 1.399 . S
C1002 C1007 1.399 . S
C1003 C1002 1.399 . S
C1003 C1004 1.376 . S
C1004 H991 0.930 . S
C1004 C1003 1.376 . S
C1004 C1005 1.388 . S
C1005 H992 0.930 . S
C1005 C1004 1.388 . S
C1005 C1006 1.390 . S
C1006 C1005 1.390 . S
C1006 C1007 1.394 . S
C1006 C1012 1.465 1_565 S
C1007 C1002 1.399 . S
C1007 C1006 1.394 . S
C1007 C1008 1.516 1_565 S
C1008 C1007 1.516 1_545 S
C1008 C1009 1.502 . S
C1008 C1010 1.561 . S
C1008 C1011 1.526 . S
C1009 H993 0.959 . S
C1009 H994 0.959 . S
C1009 H995 0.961 . S
C1009 C1008 1.502 . S
C1010 H996 0.960 . S
C1010 H997 0.961 . S
C1010 H998 0.959 . S
C1010 C1008 1.561 . S
C1011 C1008 1.526 . S
C1011 C1012 1.396 . S
C1011 C1016 1.390 . S
C1012 C1006 1.465 1_545 S
C1012 C1011 1.396 . S
C1012 C1013 1.399 . S
C1013 H999 0.929 . S
C1013 C1012 1.399 . S
C1013 C1014 1.385 . S
C1014 H1000 0.931 . S
C1014 C1013 1.385 . S
C1014 C1015 1.389 . S
C1015 C1014 1.389 . S
C1015 C1016 1.387 . S
C1016 H1001 0.930 . S
C1016 C1011 1.390 . S
C1016 C1015 1.387 . S
H1017 C1029 0.930 . S
H1018 C1031 0.930 . S
H1019 C1032 0.930 . S
H1020 C1036 0.959 . S
H1021 C1036 0.959 . S
H1022 C1036 0.961 . S
H1023 C1037 0.960 . S
H1024 C1037 0.961 . S
H1025 C1037 0.959 1_565 S
H1026 C1040 0.929 . S
H1027 C1041 0.931 . S
H1028 C1043 0.930 . S
C1029 H1017 0.930 . S
C1029 C1030 1.399 . S
C1029 C1034 1.399 . S
C1030 C1029 1.399 . S
C1030 C1031 1.376 . S
C1031 H1018 0.930 . S
C1031 C1030 1.376 . S
C1031 C1032 1.388 . S
C1032 H1019 0.930 . S
C1032 C1031 1.388 . S
C1032 C1033 1.390 . S
C1033 C1032 1.390 . S
C1033 C1034 1.394 . S
C1033 C1039 1.465 1_545 S
C1034 C1029 1.399 . S
C1034 C1033 1.394 . S
C1034 C1035 1.516 . S
C1035 C1034 1.516 . S
C1035 C1036 1.502 . S
C1035 C1037 1.561 . S
C1035 C1038 1.526 1_545 S
C1036 H1020 0.959 . S
C1036 H1021 0.959 . S
C1036 H1022 0.961 . S
C1036 C1035 1.502 . S
C1037 H1023 0.960 . S
C1037 H1024 0.961 . S
C1037 H1025 0.959 1_545 S
C1037 C1035 1.561 . S
C1038 C1035 1.526 1_565 S
C1038 C1039 1.396 . S
C1038 C1043 1.390 . S
C1039 C1033 1.465 1_565 S
C1039 C1038 1.396 . S
C1039 C1040 1.399 . S
C1040 H1026 0.929 . S
C1040 C1039 1.399 . S
C1040 C1041 1.385 . S
C1041 H1027 0.931 . S
C1041 C1040 1.385 . S
C1041 C1042 1.389 . S
C1042 C1041 1.389 . S
C1042 C1043 1.387 . S
C1043 H1028 0.930 . S
C1043 C1038 1.390 . S
C1043 C1042 1.387 . S
H1044 C1056 0.930 . S
H1045 C1058 0.930 . S
H1046 C1059 0.930 1_655 S
H1047 C1063 0.959 . S
H1048 C1063 0.959 . S
H1049 C1063 0.961 . S
H1050 C1064 0.960 . S
H1051 C1064 0.961 . S
H1052 C1064 0.959 . S
H1053 C1067 0.929 . S
H1054 C1068 0.931 . S
H1055 C1070 0.930 . S
C1056 H1044 0.930 . S
C1056 C1057 1.399 . S
C1056 C1061 1.399 . S
C1057 C1056 1.399 . S
C1057 C1058 1.376 . S
C1058 H1045 0.930 . S
C1058 C1057 1.376 . S
C1058 C1059 1.388 . S
C1059 H1046 0.930 1_455 S
C1059 C1058 1.388 . S
C1059 C1060 1.390 . S
C1060 C1059 1.390 . S
C1060 C1061 1.394 . S
C1060 C1066 1.465 1_455 S
C1061 C1056 1.399 . S
C1061 C1060 1.394 . S
C1061 C1062 1.516 . S
C1062 C1061 1.516 . S
C1062 C1063 1.502 . S
C1062 C1064 1.561 . S
C1062 C1065 1.526 1_455 S
C1063 H1047 0.959 . S
C1063 H1048 0.959 . S
C1063 H1049 0.961 . S
C1063 C1062 1.502 . S
C1064 H1050 0.960 . S
C1064 H1051 0.961 . S
C1064 H1052 0.959 . S
C1064 C1062 1.561 . S
C1065 C1062 1.526 1_655 S
C1065 C1066 1.396 . S
C1065 C1070 1.390 . S
C1066 C1060 1.465 1_655 S
C1066 C1065 1.396 . S
C1066 C1067 1.399 . S
C1067 H1053 0.929 . S
C1067 C1066 1.399 . S
C1067 C1068 1.385 . S
C1068 H1054 0.931 . S
C1068 C1067 1.385 . S
C1068 C1069 1.389 . S
C1069 C1068 1.389 . S
C1069 C1070 1.387 . S
C1070 H1055 0.930 . S
C1070 C1065 1.390 . S
C1070 C1069 1.387 . S
H1071 C1083 0.930 . S
H1072 C1085 0.930 . S
H1073 C1086 0.930 . S
H1074 C1090 0.959 . S
H1075 C1090 0.959 . S
H1076 C1090 0.961 . S
H1077 C1091 0.960 . S
H1078 C1091 0.961 . S
H1079 C1091 0.959 . S
H1080 C1094 0.929 . S
H1081 C1095 0.931 . S
H1082 C1097 0.930 . S
C1083 H1071 0.930 . S
C1083 C1084 1.399 . S
C1083 C1088 1.399 . S
C1084 C1083 1.399 . S
C1084 C1085 1.376 . S
C1085 H1072 0.930 . S
C1085 C1084 1.376 . S
C1085 C1086 1.388 . S
C1086 H1073 0.930 . S
C1086 C1085 1.388 . S
C1086 C1087 1.390 . S
C1087 C1086 1.390 . S
C1087 C1088 1.394 . S
C1087 C1093 1.465 . S
C1088 C1083 1.399 . S
C1088 C1087 1.394 . S
C1088 C1089 1.516 . S
C1089 C1088 1.516 . S
C1089 C1090 1.502 . S
C1089 C1091 1.561 . S
C1089 C1092 1.526 . S
C1090 H1074 0.959 . S
C1090 H1075 0.959 . S
C1090 H1076 0.961 . S
C1090 C1089 1.502 . S
C1091 H1077 0.960 . S
C1091 H1078 0.961 . S
C1091 H1079 0.959 . S
C1091 C1089 1.561 . S
C1092 C1089 1.526 . S
C1092 C1093 1.396 . S
C1092 C1097 1.390 . S
C1093 C1087 1.465 . S
C1093 C1092 1.396 . S
C1093 C1094 1.399 . S
C1094 H1080 0.929 . S
C1094 C1093 1.399 . S
C1094 C1095 1.385 . S
C1095 H1081 0.931 . S
C1095 C1094 1.385 . S
C1095 C1096 1.389 . S
C1096 C1095 1.389 . S
C1096 C1097 1.387 . S
C1097 H1082 0.930 . S
C1097 C1092 1.390 . S
C1097 C1096 1.387 . S
H1098 C1110 0.930 . S
H1099 C1112 0.930 . S
H1100 C1113 0.930 . S
H1101 C1117 0.959 . S
H1102 C1117 0.959 . S
H1103 C1117 0.961 . S
H1104 C1118 0.960 . S
H1105 C1118 0.961 . S
H1106 C1118 0.959 . S
H1107 C1121 0.929 . S
H1108 C1122 0.931 . S
H1109 C1124 0.930 . S
C1110 H1098 0.930 . S
C1110 C1111 1.399 . S
C1110 C1115 1.399 . S
C1111 C1110 1.399 . S
C1111 C1112 1.376 . S
C1112 H1099 0.930 . S
C1112 C1111 1.376 . S
C1112 C1113 1.388 . S
C1113 H1100 0.930 . S
C1113 C1112 1.388 . S
C1113 C1114 1.390 . S
C1114 C1113 1.390 . S
C1114 C1115 1.394 . S
C1114 C1120 1.465 . S
C1115 C1110 1.399 . S
C1115 C1114 1.394 . S
C1115 C1116 1.516 . S
C1116 C1115 1.516 . S
C1116 C1117 1.502 . S
C1116 C1118 1.561 . S
C1116 C1119 1.526 . S
C1117 H1101 0.959 . S
C1117 H1102 0.959 . S
C1117 H1103 0.961 . S
C1117 C1116 1.502 . S
C1118 H1104 0.960 . S
C1118 H1105 0.961 . S
C1118 H1106 0.959 . S
C1118 C1116 1.561 . S
C1119 C1116 1.526 . S
C1119 C1120 1.396 . S
C1119 C1124 1.390 . S
C1120 C1114 1.465 . S
C1120 C1119 1.396 . S
C1120 C1121 1.399 . S
C1121 H1107 0.929 . S
C1121 C1120 1.399 . S
C1121 C1122 1.385 . S
C1122 H1108 0.931 . S
C1122 C1121 1.385 . S
C1122 C1123 1.389 . S
C1123 C1122 1.389 . S
C1123 C1124 1.387 . S
C1124 H1109 0.930 . S
C1124 C1119 1.390 . S
C1124 C1123 1.387 . S
H1125 C1137 0.930 . S
H1126 C1139 0.930 . S
H1127 C1140 0.930 . S
H1128 C1144 0.959 . S
H1129 C1144 0.959 . S
H1130 C1144 0.961 . S
H1131 C1145 0.960 . S
H1132 C1145 0.961 . S
H1133 C1145 0.959 . S
H1134 C1148 0.929 . S
H1135 C1149 0.931 . S
H1136 C1151 0.930 . S
C1137 H1125 0.930 . S
C1137 C1138 1.399 . S
C1137 C1142 1.399 . S
C1138 C1137 1.399 . S
C1138 C1139 1.376 . S
C1139 H1126 0.930 . S
C1139 C1138 1.376 . S
C1139 C1140 1.388 . S
C1140 H1127 0.930 . S
C1140 C1139 1.388 . S
C1140 C1141 1.390 . S
C1141 C1140 1.390 . S
C1141 C1142 1.394 . S
C1141 C1147 1.465 . S
C1142 C1137 1.399 . S
C1142 C1141 1.394 . S
C1142 C1143 1.516 . S
C1143 C1142 1.516 . S
C1143 C1144 1.502 . S
C1143 C1145 1.561 . S
C1143 C1146 1.526 . S
C1144 H1128 0.959 . S
C1144 H1129 0.959 . S
C1144 H1130 0.961 . S
C1144 C1143 1.502 . S
C1145 H1131 0.960 . S
C1145 H1132 0.961 . S
C1145 H1133 0.959 . S
C1145 C1143 1.561 . S
C1146 C1143 1.526 . S
C1146 C1147 1.396 . S
C1146 C1151 1.390 . S
C1147 C1141 1.465 . S
C1147 C1146 1.396 . S
C1147 C1148 1.399 . S
C1148 H1134 0.929 . S
C1148 C1147 1.399 . S
C1148 C1149 1.385 . S
C1149 H1135 0.931 . S
C1149 C1148 1.385 . S
C1149 C1150 1.389 . S
C1150 C1149 1.389 . S
C1150 C1151 1.387 . S
C1151 H1136 0.930 . S
C1151 C1146 1.390 . S
C1151 C1150 1.387 . S
H1152 C1164 0.930 . S
H1153 C1166 0.930 . S
H1154 C1167 0.930 . S
H1155 C1171 0.959 . S
H1156 C1171 0.959 . S
H1157 C1171 0.961 . S
H1158 C1172 0.960 . S
H1159 C1172 0.961 . S
H1160 C1172 0.959 . S
H1161 C1175 0.929 . S
H1162 C1176 0.931 . S
H1163 C1178 0.930 . S
C1164 H1152 0.930 . S
C1164 C1165 1.399 . S
C1164 C1169 1.399 . S
C1165 C1164 1.399 . S
C1165 C1166 1.376 . S
C1166 H1153 0.930 . S
C1166 C1165 1.376 . S
C1166 C1167 1.388 . S
C1167 H1154 0.930 . S
C1167 C1166 1.388 . S
C1167 C1168 1.390 . S
C1168 C1167 1.390 . S
C1168 C1169 1.394 . S
C1168 C1174 1.465 . S
C1169 C1164 1.399 . S
C1169 C1168 1.394 . S
C1169 C1170 1.516 . S
C1170 C1169 1.516 . S
C1170 C1171 1.502 . S
C1170 C1172 1.561 . S
C1170 C1173 1.526 . S
C1171 H1155 0.959 . S
C1171 H1156 0.959 . S
C1171 H1157 0.961 . S
C1171 C1170 1.502 . S
C1172 H1158 0.960 . S
C1172 H1159 0.961 . S
C1172 H1160 0.959 . S
C1172 C1170 1.561 . S
C1173 C1170 1.526 . S
C1173 C1174 1.396 . S
C1173 C1178 1.390 . S
C1174 C1168 1.465 . S
C1174 C1173 1.396 . S
C1174 C1175 1.399 . S
C1175 H1161 0.929 . S
C1175 C1174 1.399 . S
C1175 C1176 1.385 . S
C1176 H1162 0.931 . S
C1176 C1175 1.385 . S
C1176 C1177 1.389 . S
C1177 C1176 1.389 . S
C1177 C1178 1.387 . S
C1178 H1163 0.930 . S
C1178 C1173 1.390 . S
C1178 C1177 1.387 . S
H1179 C1191 0.930 . S
H1180 C1193 0.930 . S
H1181 C1194 0.930 . S
H1182 C1198 0.959 . S
H1183 C1198 0.959 . S
H1184 C1198 0.961 . S
H1185 C1199 0.960 . S
H1186 C1199 0.961 . S
H1187 C1199 0.959 . S
H1188 C1202 0.929 . S
H1189 C1203 0.931 . S
H1190 C1205 0.930 . S
C1191 H1179 0.930 . S
C1191 C1192 1.399 . S
C1191 C1196 1.399 . S
C1192 C1191 1.399 . S
C1192 C1193 1.376 . S
C1193 H1180 0.930 . S
C1193 C1192 1.376 . S
C1193 C1194 1.388 . S
C1194 H1181 0.930 . S
C1194 C1193 1.388 . S
C1194 C1195 1.390 . S
C1195 C1194 1.390 . S
C1195 C1196 1.394 . S
C1195 C1201 1.465 . S
C1196 C1191 1.399 . S
C1196 C1195 1.394 . S
C1196 C1197 1.516 . S
C1197 C1196 1.516 . S
C1197 C1198 1.502 . S
C1197 C1199 1.561 . S
C1197 C1200 1.526 . S
C1198 H1182 0.959 . S
C1198 H1183 0.959 . S
C1198 H1184 0.961 . S
C1198 C1197 1.502 . S
C1199 H1185 0.960 . S
C1199 H1186 0.961 . S
C1199 H1187 0.959 . S
C1199 C1197 1.561 . S
C1200 C1197 1.526 . S
C1200 C1201 1.396 . S
C1200 C1205 1.390 . S
C1201 C1195 1.465 . S
C1201 C1200 1.396 . S
C1201 C1202 1.399 . S
C1202 H1188 0.929 . S
C1202 C1201 1.399 . S
C1202 C1203 1.385 . S
C1203 H1189 0.931 . S
C1203 C1202 1.385 . S
C1203 C1204 1.389 . S
C1204 C1203 1.389 . S
C1204 C1205 1.387 . S
C1205 H1190 0.930 . S
C1205 C1200 1.390 . S
C1205 C1204 1.387 . S
H1206 C1218 0.930 . S
H1207 C1220 0.930 . S
H1208 C1221 0.930 . S
H1209 C1225 0.959 . S
H1210 C1225 0.959 . S
H1211 C1225 0.961 . S
H1212 C1226 0.960 . S
H1213 C1226 0.961 . S
H1214 C1226 0.959 . S
H1215 C1229 0.929 . S
H1216 C1230 0.931 . S
H1217 C1232 0.930 . S
C1218 H1206 0.930 . S
C1218 C1219 1.399 . S
C1218 C1223 1.399 . S
C1219 C1218 1.399 . S
C1219 C1220 1.376 . S
C1220 H1207 0.930 . S
C1220 C1219 1.376 . S
C1220 C1221 1.388 . S
C1221 H1208 0.930 . S
C1221 C1220 1.388 . S
C1221 C1222 1.390 . S
C1222 C1221 1.390 . S
C1222 C1223 1.394 . S
C1222 C1228 1.465 . S
C1223 C1218 1.399 . S
C1223 C1222 1.394 . S
C1223 C1224 1.516 . S
C1224 C1223 1.516 . S
C1224 C1225 1.502 . S
C1224 C1226 1.561 . S
C1224 C1227 1.526 . S
C1225 H1209 0.959 . S
C1225 H1210 0.959 . S
C1225 H1211 0.961 . S
C1225 C1224 1.502 . S
C1226 H1212 0.960 . S
C1226 H1213 0.961 . S
C1226 H1214 0.959 . S
C1226 C1224 1.561 . S
C1227 C1224 1.526 . S
C1227 C1228 1.396 . S
C1227 C1232 1.390 . S
C1228 C1222 1.465 . S
C1228 C1227 1.396 . S
C1228 C1229 1.399 . S
C1229 H1215 0.929 . S
C1229 C1228 1.399 . S
C1229 C1230 1.385 . S
C1230 H1216 0.931 . S
C1230 C1229 1.385 . S
C1230 C1231 1.389 . S
C1231 C1230 1.389 . S
C1231 C1232 1.387 . S
C1232 H1217 0.930 . S
C1232 C1227 1.390 . S
C1232 C1231 1.387 . S
H1233 C1245 0.930 . S
H1234 C1247 0.930 . S
H1235 C1248 0.930 . S
H1236 C1252 0.959 . S
H1237 C1252 0.959 . S
H1238 C1252 0.961 . S
H1239 C1253 0.960 . S
H1240 C1253 0.961 . S
H1241 C1253 0.959 . S
H1242 C1256 0.929 . S
H1243 C1257 0.931 . S
H1244 C1259 0.930 . S
C1245 H1233 0.930 . S
C1245 C1246 1.399 . S
C1245 C1250 1.399 . S
C1246 C1245 1.399 . S
C1246 C1247 1.376 . S
C1247 H1234 0.930 . S
C1247 C1246 1.376 . S
C1247 C1248 1.388 . S
C1248 H1235 0.930 . S
C1248 C1247 1.388 . S
C1248 C1249 1.390 . S
C1249 C1248 1.390 . S
C1249 C1250 1.394 . S
C1249 C1255 1.465 . S
C1250 C1245 1.399 . S
C1250 C1249 1.394 . S
C1250 C1251 1.516 . S
C1251 C1250 1.516 . S
C1251 C1252 1.502 . S
C1251 C1253 1.561 . S
C1251 C1254 1.526 . S
C1252 H1236 0.959 . S
C1252 H1237 0.959 . S
C1252 H1238 0.961 . S
C1252 C1251 1.502 . S
C1253 H1239 0.960 . S
C1253 H1240 0.961 . S
C1253 H1241 0.959 . S
C1253 C1251 1.561 . S
C1254 C1251 1.526 . S
C1254 C1255 1.396 . S
C1254 C1259 1.390 . S
C1255 C1249 1.465 . S
C1255 C1254 1.396 . S
C1255 C1256 1.399 . S
C1256 H1242 0.929 . S
C1256 C1255 1.399 . S
C1256 C1257 1.385 . S
C1257 H1243 0.931 . S
C1257 C1256 1.385 . S
C1257 C1258 1.389 . S
C1258 C1257 1.389 . S
C1258 C1259 1.387 . S
C1259 H1244 0.930 . S
C1259 C1254 1.390 . S
C1259 C1258 1.387 . S
H1260 C1272 0.930 . S
H1261 C1274 0.930 . S
H1262 C1275 0.930 . S
H1263 C1279 0.943 1_656 S
H1264 C1279 0.936 1_556 S
H1265 C1279 0.994 . S
H1266 C1280 0.960 . S
H1267 C1280 0.961 . S
H1268 C1280 0.959 . S
H1269 C1283 0.929 1_655 S
H1270 C1284 0.931 . S
H1271 C1286 0.930 . S
C1272 H1260 0.930 . S
C1272 C1273 1.399 . S
C1272 C1277 1.396 1_655 S
C1273 C1272 1.399 . S
C1273 C1274 1.376 . S
C1274 H1261 0.930 . S
C1274 C1273 1.376 . S
C1274 C1275 1.388 . S
C1275 H1262 0.930 . S
C1275 C1274 1.388 . S
C1275 C1276 1.390 . S
C1276 C1275 1.390 . S
C1276 C1277 1.395 1_655 S
C1276 C1282 1.465 1_654 S
C1277 C1272 1.396 1_455 S
C1277 C1276 1.395 1_455 S
C1277 C1278 1.517 . S
C1278 C1277 1.517 . S
C1278 C1279 1.508 . S
C1278 C1280 1.561 . S
C1278 C1281 1.526 1_554 S
C1279 H1263 0.943 1_454 S
C1279 H1264 0.936 1_554 S
C1279 H1265 0.994 . S
C1279 C1278 1.508 . S
C1280 H1266 0.960 . S
C1280 H1267 0.961 . S
C1280 H1268 0.959 . S
C1280 C1278 1.561 . S
C1281 C1278 1.526 1_556 S
C1281 C1282 1.396 . S
C1281 C1286 1.390 . S
C1282 C1276 1.465 1_456 S
C1282 C1281 1.396 . S
C1282 C1283 1.399 . S
C1283 H1269 0.929 1_455 S
C1283 C1282 1.399 . S
C1283 C1284 1.385 . S
C1284 H1270 0.931 . S
C1284 C1283 1.385 . S
C1284 C1285 1.389 . S
C1285 C1284 1.389 . S
C1285 C1286 1.387 . S
C1286 H1271 0.930 . S
C1286 C1281 1.390 . S
C1286 C1285 1.387 . S
H1287 C1299 0.930 . S
H1288 C1301 0.930 . S
H1289 C1302 0.930 . S
H1290 C1306 0.959 1_556 S
H1291 C1306 0.959 1_556 S
H1292 C1306 0.961 . S
H1293 C1307 0.960 . S
H1294 C1307 0.961 . S
H1295 C1307 0.959 . S
H1296 C1310 0.929 . S
H1297 C1311 0.931 . S
H1298 C1313 0.930 . S
C1299 H1287 0.930 . S
C1299 C1300 1.399 . S
C1299 C1304 1.399 . S
C1300 C1299 1.399 . S
C1300 C1301 1.376 . S
C1301 H1288 0.930 . S
C1301 C1300 1.376 . S
C1301 C1302 1.388 . S
C1302 H1289 0.930 . S
C1302 C1301 1.388 . S
C1302 C1303 1.390 . S
C1303 C1302 1.390 . S
C1303 C1304 1.394 . S
C1303 C1309 1.465 1_554 S
C1304 C1299 1.399 . S
C1304 C1303 1.394 . S
C1304 C1305 1.516 . S
C1305 C1304 1.516 . S
C1305 C1306 1.502 . S
C1305 C1307 1.561 . S
C1305 C1308 1.526 1_554 S
C1306 H1290 0.959 1_554 S
C1306 H1291 0.959 1_554 S
C1306 H1292 0.961 . S
C1306 C1305 1.502 . S
C1307 H1293 0.960 . S
C1307 H1294 0.961 . S
C1307 H1295 0.959 . S
C1307 C1305 1.561 . S
C1308 C1305 1.526 1_556 S
C1308 C1309 1.396 . S
C1308 C1313 1.390 . S
C1309 C1303 1.465 1_556 S
C1309 C1308 1.396 . S
C1309 C1310 1.399 . S
C1310 H1296 0.929 . S
C1310 C1309 1.399 . S
C1310 C1311 1.385 . S
C1311 H1297 0.931 . S
C1311 C1310 1.385 . S
C1311 C1312 1.389 . S
C1312 C1311 1.389 . S
C1312 C1313 1.387 . S
C1313 H1298 0.930 . S
C1313 C1308 1.390 . S
C1313 C1312 1.387 . S
H1314 C1326 0.930 . S
H1315 C1328 0.930 . S
H1316 C1329 0.930 . S
H1317 C1333 0.959 . S
H1318 C1333 0.959 . S
H1319 C1333 0.961 . S
H1320 C1334 0.960 . S
H1321 C1334 0.961 . S
H1322 C1334 0.959 . S
H1323 C1337 0.929 . S
H1324 C1338 0.931 . S
H1325 C1340 0.949 . S
C1326 H1314 0.930 . S
C1326 C1327 1.399 . S
C1326 C1331 1.399 . S
C1327 C1326 1.399 . S
C1327 C1328 1.376 1_545 S
C1328 H1315 0.930 . S
C1328 C1327 1.376 1_565 S
C1328 C1329 1.388 . S
C1329 H1316 0.930 . S
C1329 C1328 1.388 . S
C1329 C1330 1.390 . S
C1330 C1329 1.390 . S
C1330 C1331 1.394 1_565 S
C1330 C1336 1.465 1_554 S
C1331 C1326 1.399 . S
C1331 C1330 1.394 1_545 S
C1331 C1332 1.516 1_554 S
C1332 C1331 1.516 1_556 S
C1332 C1333 1.502 . S
C1332 C1334 1.561 . S
C1332 C1335 1.526 . S
C1333 H1317 0.959 . S
C1333 H1318 0.959 . S
C1333 H1319 0.961 . S
C1333 C1332 1.502 . S
C1334 H1320 0.960 . S
C1334 H1321 0.961 . S
C1334 H1322 0.959 . S
C1334 C1332 1.561 . S
C1335 C1332 1.526 . S
C1335 C1336 1.396 1_545 S
C1335 C1340 1.393 . S
C1336 C1330 1.465 1_556 S
C1336 C1335 1.396 1_565 S
C1336 C1337 1.399 . S
C1337 H1323 0.929 . S
C1337 C1336 1.399 . S
C1337 C1338 1.385 . S
C1338 H1324 0.931 . S
C1338 C1337 1.385 . S
C1338 C1339 1.389 . S
C1339 C1338 1.389 . S
C1339 C1340 1.364 1_565 S
C1340 H1325 0.949 . S
C1340 C1335 1.393 . S
C1340 C1339 1.364 1_545 S
H1341 C1353 0.930 . S
H1342 C1355 0.930 . S
H1343 C1356 0.930 . S
H1344 C1360 0.959 . S
H1345 C1360 0.959 . S
H1346 C1360 0.961 . S
H1347 C1361 0.960 . S
H1348 C1361 0.961 . S
H1349 C1361 0.959 . S
H1350 C1364 0.929 . S
H1351 C1365 0.931 . S
H1352 C1367 0.930 . S
C1353 H1341 0.930 . S
C1353 C1354 1.399 . S
C1353 C1358 1.399 . S
C1354 C1353 1.399 . S
C1354 C1355 1.376 . S
C1355 H1342 0.930 . S
C1355 C1354 1.376 . S
C1355 C1356 1.388 . S
C1356 H1343 0.930 . S
C1356 C1355 1.388 . S
C1356 C1357 1.390 . S
C1357 C1356 1.390 . S
C1357 C1358 1.394 . S
C1357 C1363 1.465 . S
C1358 C1353 1.399 . S
C1358 C1357 1.394 . S
C1358 C1359 1.516 . S
C1359 C1358 1.516 . S
C1359 C1360 1.502 . S
C1359 C1361 1.561 . S
C1359 C1362 1.526 . S
C1360 H1344 0.959 . S
C1360 H1345 0.959 . S
C1360 H1346 0.961 . S
C1360 C1359 1.502 . S
C1361 H1347 0.960 . S
C1361 H1348 0.961 . S
C1361 H1349 0.959 . S
C1361 C1359 1.561 . S
C1362 C1359 1.526 . S
C1362 C1363 1.396 . S
C1362 C1367 1.390 . S
C1363 C1357 1.465 . S
C1363 C1362 1.396 . S
C1363 C1364 1.399 . S
C1364 H1350 0.929 . S
C1364 C1363 1.399 . S
C1364 C1365 1.385 . S
C1365 H1351 0.931 . S
C1365 C1364 1.385 . S
C1365 C1366 1.389 . S
C1366 C1365 1.389 . S
C1366 C1367 1.387 . S
C1367 H1352 0.930 . S
C1367 C1362 1.390 . S
C1367 C1366 1.387 . S
H1368 C1380 0.930 . S
H1369 C1382 0.930 . S
H1370 C1383 0.930 . S
H1371 C1387 0.959 . S
H1372 C1387 0.959 . S
H1373 C1387 0.961 . S
H1374 C1388 0.960 . S
H1375 C1388 0.961 . S
H1376 C1388 0.959 . S
H1377 C1391 0.929 . S
H1378 C1392 0.931 . S
H1379 C1394 0.930 . S
C1380 H1368 0.930 . S
C1380 C1381 1.399 . S
C1380 C1385 1.399 1_565 S
C1381 C1380 1.399 . S
C1381 C1382 1.376 . S
C1382 H1369 0.930 . S
C1382 C1381 1.376 . S
C1382 C1383 1.388 1_565 S
C1383 H1370 0.930 . S
C1383 C1382 1.388 1_545 S
C1383 C1384 1.390 . S
C1384 C1383 1.390 . S
C1384 C1385 1.394 . S
C1384 C1390 1.465 . S
C1385 C1380 1.399 1_545 S
C1385 C1384 1.394 . S
C1385 C1386 1.516 . S
C1386 C1385 1.516 . S
C1386 C1387 1.502 . S
C1386 C1388 1.561 . S
C1386 C1389 1.526 . S
C1387 H1371 0.959 . S
C1387 H1372 0.959 . S
C1387 H1373 0.961 . S
C1387 C1386 1.502 . S
C1388 H1374 0.960 . S
C1388 H1375 0.961 . S
C1388 H1376 0.959 . S
C1388 C1386 1.561 . S
C1389 C1386 1.526 . S
C1389 C1390 1.396 . S
C1389 C1394 1.390 . S
C1390 C1384 1.465 . S
C1390 C1389 1.396 . S
C1390 C1391 1.399 . S
C1391 H1377 0.929 . S
C1391 C1390 1.399 . S
C1391 C1392 1.385 . S
C1392 H1378 0.931 . S
C1392 C1391 1.385 . S
C1392 C1393 1.389 . S
C1393 C1392 1.389 . S
C1393 C1394 1.387 . S
C1394 H1379 0.930 . S
C1394 C1389 1.390 . S
C1394 C1393 1.387 . S
H1395 C1407 0.930 . S
H1396 C1409 0.930 . S
H1397 C1410 0.930 . S
H1398 C1414 0.959 . S
H1399 C1414 0.959 . S
H1400 C1414 0.961 . S
H1401 C1415 0.960 . S
H1402 C1415 0.961 . S
H1403 C1415 0.959 . S
H1404 C1418 0.929 . S
H1405 C1419 0.931 . S
H1406 C1421 0.930 . S
C1407 H1395 0.930 . S
C1407 C1408 1.399 . S
C1407 C1412 1.399 . S
C1408 C1407 1.399 . S
C1408 C1409 1.376 . S
C1409 H1396 0.930 . S
C1409 C1408 1.376 . S
C1409 C1410 1.388 . S
C1410 H1397 0.930 . S
C1410 C1409 1.388 . S
C1410 C1411 1.390 . S
C1411 C1410 1.390 . S
C1411 C1412 1.394 . S
C1411 C1417 1.465 . S
C1412 C1407 1.399 . S
C1412 C1411 1.394 . S
C1412 C1413 1.516 . S
C1413 C1412 1.516 . S
C1413 C1414 1.502 . S
C1413 C1415 1.561 . S
C1413 C1416 1.526 . S
C1414 H1398 0.959 . S
C1414 H1399 0.959 . S
C1414 H1400 0.961 . S
C1414 C1413 1.502 . S
C1415 H1401 0.960 . S
C1415 H1402 0.961 . S
C1415 H1403 0.959 . S
C1415 C1413 1.561 . S
C1416 C1413 1.526 . S
C1416 C1417 1.396 . S
C1416 C1421 1.390 1_655 S
C1417 C1411 1.465 . S
C1417 C1416 1.396 . S
C1417 C1418 1.399 . S
C1418 H1404 0.929 . S
C1418 C1417 1.399 . S
C1418 C1419 1.385 1_655 S
C1419 H1405 0.931 . S
C1419 C1418 1.385 1_455 S
C1419 C1420 1.389 . S
C1420 C1419 1.389 . S
C1420 C1421 1.387 . S
C1421 H1406 0.930 . S
C1421 C1416 1.390 1_455 S
C1421 C1420 1.387 . S
H1422 C1434 0.930 . S
H1423 C1436 0.930 . S
H1424 C1437 0.930 . S
H1425 C1441 0.959 . S
H1426 C1441 0.959 . S
H1427 C1441 0.961 . S
H1428 C1442 0.960 . S
H1429 C1442 0.961 . S
H1430 C1442 0.959 . S
H1431 C1445 0.929 . S
H1432 C1446 0.931 . S
H1433 C1448 0.930 . S
C1434 H1422 0.930 . S
C1434 C1435 1.399 . S
C1434 C1439 1.399 . S
C1435 C1434 1.399 . S
C1435 C1436 1.376 . S
C1436 H1423 0.930 . S
C1436 C1435 1.376 . S
C1436 C1437 1.388 . S
C1437 H1424 0.930 . S
C1437 C1436 1.388 . S
C1437 C1438 1.390 . S
C1438 C1437 1.390 . S
C1438 C1439 1.394 . S
C1438 C1444 1.465 . S
C1439 C1434 1.399 . S
C1439 C1438 1.394 . S
C1439 C1440 1.516 . S
C1440 C1439 1.516 . S
C1440 C1441 1.502 . S
C1440 C1442 1.561 . S
C1440 C1443 1.526 . S
C1441 H1425 0.959 . S
C1441 H1426 0.959 . S
C1441 H1427 0.961 . S
C1441 C1440 1.502 . S
C1442 H1428 0.960 . S
C1442 H1429 0.961 . S
C1442 H1430 0.959 . S
C1442 C1440 1.561 . S
C1443 C1440 1.526 . S
C1443 C1444 1.396 . S
C1443 C1448 1.390 . S
C1444 C1438 1.465 . S
C1444 C1443 1.396 . S
C1444 C1445 1.399 . S
C1445 H1431 0.929 . S
C1445 C1444 1.399 . S
C1445 C1446 1.385 . S
C1446 H1432 0.931 . S
C1446 C1445 1.385 . S
C1446 C1447 1.389 . S
C1447 C1446 1.389 . S
C1447 C1448 1.387 . S
C1448 H1433 0.930 . S
C1448 C1443 1.390 . S
C1448 C1447 1.387 . S
H1449 C1461 0.930 . S
H1450 C1463 0.930 . S
H1451 C1464 0.930 . S
H1452 C1468 0.959 . S
H1453 C1468 0.959 . S
H1454 C1468 0.961 . S
H1455 C1469 0.960 . S
H1456 C1469 0.961 . S
H1457 C1469 0.959 . S
H1458 C1472 0.929 . S
H1459 C1473 0.931 . S
H1460 C1475 0.930 . S
C1461 H1449 0.930 . S
C1461 C1462 1.399 . S
C1461 C1466 1.399 1_545 S
C1462 C1461 1.399 . S
C1462 C1463 1.376 . S
C1463 H1450 0.930 . S
C1463 C1462 1.376 . S
C1463 C1464 1.388 1_545 S
C1464 H1451 0.930 . S
C1464 C1463 1.388 1_565 S
C1464 C1465 1.390 . S
C1465 C1464 1.390 . S
C1465 C1466 1.394 . S
C1465 C1471 1.465 . S
C1466 C1461 1.399 1_565 S
C1466 C1465 1.394 . S
C1466 C1467 1.516 . S
C1467 C1466 1.516 . S
C1467 C1468 1.502 . S
C1467 C1469 1.561 . S
C1467 C1470 1.526 . S
C1468 H1452 0.959 . S
C1468 H1453 0.959 . S
C1468 H1454 0.961 . S
C1468 C1467 1.502 . S
C1469 H1455 0.960 . S
C1469 H1456 0.961 . S
C1469 H1457 0.959 . S
C1469 C1467 1.561 . S
C1470 C1467 1.526 . S
C1470 C1471 1.396 . S
C1470 C1475 1.390 . S
C1471 C1465 1.465 . S
C1471 C1470 1.396 . S
C1471 C1472 1.399 . S
C1472 H1458 0.929 . S
C1472 C1471 1.399 . S
C1472 C1473 1.385 . S
C1473 H1459 0.931 . S
C1473 C1472 1.385 . S
C1473 C1474 1.389 . S
C1474 C1473 1.389 . S
C1474 C1475 1.387 . S
C1475 H1460 0.930 . S
C1475 C1470 1.390 . S
C1475 C1474 1.387 . S
H1476 C1488 0.930 . S
H1477 C1490 0.930 . S
H1478 C1491 0.930 . S
H1479 C1495 0.959 . S
H1480 C1495 0.959 . S
H1481 C1495 0.961 . S
H1482 C1496 0.960 . S
H1483 C1496 0.961 . S
H1484 C1496 0.959 . S
H1485 C1499 0.929 . S
H1486 C1500 0.931 . S
H1487 C1502 0.930 . S
C1488 H1476 0.930 . S
C1488 C1489 1.399 . S
C1488 C1493 1.399 . S
C1489 C1488 1.399 . S
C1489 C1490 1.376 . S
C1490 H1477 0.930 . S
C1490 C1489 1.376 . S
C1490 C1491 1.388 . S
C1491 H1478 0.930 . S
C1491 C1490 1.388 . S
C1491 C1492 1.390 . S
C1492 C1491 1.390 . S
C1492 C1493 1.394 . S
C1492 C1498 1.465 . S
C1493 C1488 1.399 . S
C1493 C1492 1.394 . S
C1493 C1494 1.516 . S
C1494 C1493 1.516 . S
C1494 C1495 1.502 . S
C1494 C1496 1.561 . S
C1494 C1497 1.526 . S
C1495 H1479 0.959 . S
C1495 H1480 0.959 . S
C1495 H1481 0.961 . S
C1495 C1494 1.502 . S
C1496 H1482 0.960 . S
C1496 H1483 0.961 . S
C1496 H1484 0.959 . S
C1496 C1494 1.561 . S
C1497 C1494 1.526 . S
C1497 C1498 1.396 . S
C1497 C1502 1.390 1_455 S
C1498 C1492 1.465 . S
C1498 C1497 1.396 . S
C1498 C1499 1.399 . S
C1499 H1485 0.929 . S
C1499 C1498 1.399 . S
C1499 C1500 1.385 1_455 S
C1500 H1486 0.931 . S
C1500 C1499 1.385 1_655 S
C1500 C1501 1.389 . S
C1501 C1500 1.389 . S
C1501 C1502 1.387 . S
C1502 H1487 0.930 . S
C1502 C1497 1.390 1_655 S
C1502 C1501 1.387 . S
H1503 C1515 0.930 . S
H1504 C1517 0.930 . S
H1505 C1518 0.930 . S
H1506 C1522 0.959 . S
H1507 C1522 0.959 . S
H1508 C1522 0.961 . S
H1509 C1523 0.960 . S
H1510 C1523 0.961 . S
H1511 C1523 0.959 . S
H1512 C1526 0.929 . S
H1513 C1527 0.931 . S
H1514 C1529 0.930 . S
C1515 H1503 0.930 . S
C1515 C1516 1.399 . S
C1515 C1520 1.399 . S
C1516 C1515 1.399 . S
C1516 C1517 1.376 . S
C1517 H1504 0.930 . S
C1517 C1516 1.376 . S
C1517 C1518 1.388 . S
C1518 H1505 0.930 . S
C1518 C1517 1.388 . S
C1518 C1519 1.390 . S
C1519 C1518 1.390 . S
C1519 C1520 1.394 . S
C1519 C1525 1.465 . S
C1520 C1515 1.399 . S
C1520 C1519 1.394 . S
C1520 C1521 1.516 . S
C1521 C1520 1.516 . S
C1521 C1522 1.502 . S
C1521 C1523 1.561 . S
C1521 C1524 1.526 . S
C1522 H1506 0.959 . S
C1522 H1507 0.959 . S
C1522 H1508 0.961 . S
C1522 C1521 1.502 . S
C1523 H1509 0.960 . S
C1523 H1510 0.961 . S
C1523 H1511 0.959 . S
C1523 C1521 1.561 . S
C1524 C1521 1.526 . S
C1524 C1525 1.396 . S
C1524 C1529 1.390 . S
C1525 C1519 1.465 . S
C1525 C1524 1.396 . S
C1525 C1526 1.399 . S
C1526 H1512 0.929 . S
C1526 C1525 1.399 . S
C1526 C1527 1.385 . S
C1527 H1513 0.931 . S
C1527 C1526 1.385 . S
C1527 C1528 1.389 . S
C1528 C1527 1.389 . S
C1528 C1529 1.387 . S
C1529 H1514 0.930 . S
C1529 C1524 1.390 . S
C1529 C1528 1.387 . S
H1530 C1542 0.930 . S
H1531 C1544 0.930 . S
H1532 C1545 0.930 . S
H1533 C1549 0.959 . S
H1534 C1549 0.959 . S
H1535 C1549 0.961 . S
H1536 C1550 0.960 . S
H1537 C1550 0.961 . S
H1538 C1550 0.959 . S
H1539 C1553 0.929 . S
H1540 C1554 0.931 . S
H1541 C1556 0.930 . S
C1542 H1530 0.930 . S
C1542 C1543 1.399 . S
C1542 C1547 1.399 . S
C1543 C1542 1.399 . S
C1543 C1544 1.376 . S
C1544 H1531 0.930 . S
C1544 C1543 1.376 . S
C1544 C1545 1.388 . S
C1545 H1532 0.930 . S
C1545 C1544 1.388 . S
C1545 C1546 1.390 . S
C1546 C1545 1.390 . S
C1546 C1547 1.394 . S
C1546 C1552 1.465 . S
C1547 C1542 1.399 . S
C1547 C1546 1.394 . S
C1547 C1548 1.516 . S
C1548 C1547 1.516 . S
C1548 C1549 1.502 . S
C1548 C1550 1.561 . S
C1548 C1551 1.526 . S
C1549 H1533 0.959 . S
C1549 H1534 0.959 . S
C1549 H1535 0.961 . S
C1549 C1548 1.502 . S
C1550 H1536 0.960 . S
C1550 H1537 0.961 . S
C1550 H1538 0.959 . S
C1550 C1548 1.561 . S
C1551 C1548 1.526 . S
C1551 C1552 1.396 . S
C1551 C1556 1.390 . S
C1552 C1546 1.465 . S
C1552 C1551 1.396 . S
C1552 C1553 1.399 . S
C1553 H1539 0.929 . S
C1553 C1552 1.399 . S
C1553 C1554 1.385 . S
C1554 H1540 0.931 . S
C1554 C1553 1.385 . S
C1554 C1555 1.389 . S
C1555 C1554 1.389 . S
C1555 C1556 1.387 . S
C1556 H1541 0.930 . S
C1556 C1551 1.390 . S
C1556 C1555 1.387 . S
H1557 C1569 0.930 . S
H1558 C1571 0.930 . S
H1559 C1572 0.930 . S
H1560 C1576 0.959 . S
H1561 C1576 0.959 . S
H1562 C1576 0.961 . S
H1563 C1577 0.960 . S
H1564 C1577 0.961 . S
H1565 C1577 0.959 . S
H1566 C1580 0.929 . S
H1567 C1581 0.931 . S
H1568 C1583 0.930 . S
C1569 H1557 0.930 . S
C1569 C1570 1.399 . S
C1569 C1574 1.399 . S
C1570 C1569 1.399 . S
C1570 C1571 1.376 . S
C1571 H1558 0.930 . S
C1571 C1570 1.376 . S
C1571 C1572 1.388 . S
C1572 H1559 0.930 . S
C1572 C1571 1.388 . S
C1572 C1573 1.390 . S
C1573 C1572 1.390 . S
C1573 C1574 1.394 . S
C1573 C1579 1.465 . S
C1574 C1569 1.399 . S
C1574 C1573 1.394 . S
C1574 C1575 1.516 . S
C1575 C1574 1.516 . S
C1575 C1576 1.502 . S
C1575 C1577 1.561 . S
C1575 C1578 1.526 . S
C1576 H1560 0.959 . S
C1576 H1561 0.959 . S
C1576 H1562 0.961 . S
C1576 C1575 1.502 . S
C1577 H1563 0.960 . S
C1577 H1564 0.961 . S
C1577 H1565 0.959 . S
C1577 C1575 1.561 . S
C1578 C1575 1.526 . S
C1578 C1579 1.396 . S
C1578 C1583 1.390 . S
C1579 C1573 1.465 . S
C1579 C1578 1.396 . S
C1579 C1580 1.399 . S
C1580 H1566 0.929 . S
C1580 C1579 1.399 . S
C1580 C1581 1.385 . S
C1581 H1567 0.931 . S
C1581 C1580 1.385 . S
C1581 C1582 1.389 . S
C1582 C1581 1.389 . S
C1582 C1583 1.387 . S
C1583 H1568 0.930 . S
C1583 C1578 1.390 . S
C1583 C1582 1.387 . S
H1584 C1596 0.930 . S
H1585 C1598 0.930 . S
H1586 C1599 0.930 . S
H1587 C1603 0.959 . S
H1588 C1603 0.959 . S
H1589 C1603 0.961 . S
H1590 C1604 0.960 . S
H1591 C1604 0.961 . S
H1592 C1604 0.959 . S
H1593 C1607 0.929 . S
H1594 C1608 0.931 . S
H1595 C1610 0.930 . S
C1596 H1584 0.930 . S
C1596 C1597 1.399 . S
C1596 C1601 1.399 . S
C1597 C1596 1.399 . S
C1597 C1598 1.376 . S
C1598 H1585 0.930 . S
C1598 C1597 1.376 . S
C1598 C1599 1.388 . S
C1599 H1586 0.930 . S
C1599 C1598 1.388 . S
C1599 C1600 1.390 . S
C1600 C1599 1.390 . S
C1600 C1601 1.394 . S
C1600 C1606 1.465 . S
C1601 C1596 1.399 . S
C1601 C1600 1.394 . S
C1601 C1602 1.516 . S
C1602 C1601 1.516 . S
C1602 C1603 1.502 . S
C1602 C1604 1.561 . S
C1602 C1605 1.526 . S
C1603 H1587 0.959 . S
C1603 H1588 0.959 . S
C1603 H1589 0.961 . S
C1603 C1602 1.502 . S
C1604 H1590 0.960 . S
C1604 H1591 0.961 . S
C1604 H1592 0.959 . S
C1604 C1602 1.561 . S
C1605 C1602 1.526 . S
C1605 C1606 1.396 . S
C1605 C1610 1.390 . S
C1606 C1600 1.465 . S
C1606 C1605 1.396 . S
C1606 C1607 1.399 . S
C1607 H1593 0.929 . S
C1607 C1606 1.399 . S
C1607 C1608 1.385 . S
C1608 H1594 0.931 . S
C1608 C1607 1.385 . S
C1608 C1609 1.389 . S
C1609 C1608 1.389 . S
C1609 C1610 1.387 . S
C1610 H1595 0.930 . S
C1610 C1605 1.390 . S
C1610 C1609 1.387 . S
H1611 C1623 0.930 . S
H1612 C1625 0.930 . S
H1613 C1626 0.930 . S
H1614 C1630 0.959 . S
H1615 C1630 0.959 . S
H1616 C1630 0.961 . S
H1617 C1631 0.960 . S
H1618 C1631 0.961 . S
H1619 C1631 0.959 . S
H1620 C1634 0.929 . S
H1621 C1635 0.931 . S
H1622 C1637 0.930 . S
C1623 H1611 0.930 . S
C1623 C1624 1.399 . S
C1623 C1628 1.399 . S
C1624 C1623 1.399 . S
C1624 C1625 1.376 . S
C1625 H1612 0.930 . S
C1625 C1624 1.376 . S
C1625 C1626 1.388 . S
C1626 H1613 0.930 . S
C1626 C1625 1.388 . S
C1626 C1627 1.390 . S
C1627 C1626 1.390 . S
C1627 C1628 1.394 . S
C1627 C1633 1.465 . S
C1628 C1623 1.399 . S
C1628 C1627 1.394 . S
C1628 C1629 1.516 . S
C1629 C1628 1.516 . S
C1629 C1630 1.502 . S
C1629 C1631 1.561 . S
C1629 C1632 1.526 . S
C1630 H1614 0.959 . S
C1630 H1615 0.959 . S
C1630 H1616 0.961 . S
C1630 C1629 1.502 . S
C1631 H1617 0.960 . S
C1631 H1618 0.961 . S
C1631 H1619 0.959 . S
C1631 C1629 1.561 . S
C1632 C1629 1.526 . S
C1632 C1633 1.396 . S
C1632 C1637 1.390 . S
C1633 C1627 1.465 . S
C1633 C1632 1.396 . S
C1633 C1634 1.399 . S
C1634 H1620 0.929 . S
C1634 C1633 1.399 . S
C1634 C1635 1.385 . S
C1635 H1621 0.931 . S
C1635 C1634 1.385 . S
C1635 C1636 1.389 . S
C1636 C1635 1.389 . S
C1636 C1637 1.387 . S
C1637 H1622 0.930 . S
C1637 C1632 1.390 . S
C1637 C1636 1.387 . S
H1638 C1650 0.930 . S
H1639 C1652 0.930 . S
H1640 C1653 0.930 . S
H1641 C1657 0.959 . S
H1642 C1657 0.959 . S
H1643 C1657 0.961 . S
H1644 C1658 0.960 . S
H1645 C1658 0.961 . S
H1646 C1658 0.959 . S
H1647 C1661 0.929 . S
H1648 C1662 0.931 . S
H1649 C1664 0.930 . S
C1650 H1638 0.930 . S
C1650 C1651 1.399 . S
C1650 C1655 1.399 . S
C1651 C1650 1.399 . S
C1651 C1652 1.376 . S
C1652 H1639 0.930 . S
C1652 C1651 1.376 . S
C1652 C1653 1.388 . S
C1653 H1640 0.930 . S
C1653 C1652 1.388 . S
C1653 C1654 1.390 . S
C1654 C1653 1.390 . S
C1654 C1655 1.394 . S
C1654 C1660 1.465 . S
C1655 C1650 1.399 . S
C1655 C1654 1.394 . S
C1655 C1656 1.516 . S
C1656 C1655 1.516 . S
C1656 C1657 1.502 . S
C1656 C1658 1.561 . S
C1656 C1659 1.526 . S
C1657 H1641 0.959 . S
C1657 H1642 0.959 . S
C1657 H1643 0.961 . S
C1657 C1656 1.502 . S
C1658 H1644 0.960 . S
C1658 H1645 0.961 . S
C1658 H1646 0.959 . S
C1658 C1656 1.561 . S
C1659 C1656 1.526 . S
C1659 C1660 1.396 . S
C1659 C1664 1.390 . S
C1660 C1654 1.465 . S
C1660 C1659 1.396 . S
C1660 C1661 1.399 . S
C1661 H1647 0.929 . S
C1661 C1660 1.399 . S
C1661 C1662 1.385 . S
C1662 H1648 0.931 . S
C1662 C1661 1.385 . S
C1662 C1663 1.389 . S
C1663 C1662 1.389 . S
C1663 C1664 1.387 . S
C1664 H1649 0.930 . S
C1664 C1659 1.390 . S
C1664 C1663 1.387 . S
H1665 C1677 0.930 . S
H1666 C1679 0.930 . S
H1667 C1680 0.930 . S
H1668 C1684 0.959 . S
H1669 C1684 0.959 . S
H1670 C1684 0.961 . S
H1671 C1685 0.960 . S
H1672 C1685 0.961 . S
H1673 C1685 0.959 . S
H1674 C1688 0.929 . S
H1675 C1689 0.931 . S
H1676 C1691 0.930 . S
C1677 H1665 0.930 . S
C1677 C1678 1.399 . S
C1677 C1682 1.399 . S
C1678 C1677 1.399 . S
C1678 C1679 1.376 . S
C1679 H1666 0.930 . S
C1679 C1678 1.376 . S
C1679 C1680 1.388 . S
C1680 H1667 0.930 . S
C1680 C1679 1.388 . S
C1680 C1681 1.390 . S
C1681 C1680 1.390 . S
C1681 C1682 1.394 . S
C1681 C1687 1.465 . S
C1682 C1677 1.399 . S
C1682 C1681 1.394 . S
C1682 C1683 1.516 . S
C1683 C1682 1.516 . S
C1683 C1684 1.502 . S
C1683 C1685 1.561 . S
C1683 C1686 1.526 . S
C1684 H1668 0.959 . S
C1684 H1669 0.959 . S
C1684 H1670 0.961 . S
C1684 C1683 1.502 . S
C1685 H1671 0.960 . S
C1685 H1672 0.961 . S
C1685 H1673 0.959 . S
C1685 C1683 1.561 . S
C1686 C1683 1.526 . S
C1686 C1687 1.396 . S
C1686 C1691 1.390 . S
C1687 C1681 1.465 . S
C1687 C1686 1.396 . S
C1687 C1688 1.399 . S
C1688 H1674 0.929 . S
C1688 C1687 1.399 . S
C1688 C1689 1.385 . S
C1689 H1675 0.931 . S
C1689 C1688 1.385 . S
C1689 C1690 1.389 . S
C1690 C1689 1.389 . S
C1690 C1691 1.387 . S
C1691 H1676 0.930 . S
C1691 C1686 1.390 . S
C1691 C1690 1.387 . S
H1692 C1704 0.930 . S
H1693 C1706 0.930 . S
H1694 C1707 0.930 . S
H1695 C1711 0.959 . S
H1696 C1711 0.959 . S
H1697 C1711 0.961 . S
H1698 C1712 0.960 . S
H1699 C1712 0.961 . S
H1700 C1712 0.959 . S
H1701 C1715 0.929 . S
H1702 C1716 0.931 . S
H1703 C1718 0.930 . S
C1704 H1692 0.930 . S
C1704 C1705 1.399 . S
C1704 C1709 1.399 . S
C1705 C1704 1.399 . S
C1705 C1706 1.376 . S
C1706 H1693 0.930 . S
C1706 C1705 1.376 . S
C1706 C1707 1.388 . S
C1707 H1694 0.930 . S
C1707 C1706 1.388 . S
C1707 C1708 1.390 . S
C1708 C1707 1.390 . S
C1708 C1709 1.394 . S
C1708 C1714 1.465 . S
C1709 C1704 1.399 . S
C1709 C1708 1.394 . S
C1709 C1710 1.516 . S
C1710 C1709 1.516 . S
C1710 C1711 1.502 . S
C1710 C1712 1.561 . S
C1710 C1713 1.526 . S
C1711 H1695 0.959 . S
C1711 H1696 0.959 . S
C1711 H1697 0.961 . S
C1711 C1710 1.502 . S
C1712 H1698 0.960 . S
C1712 H1699 0.961 . S
C1712 H1700 0.959 . S
C1712 C1710 1.561 . S
C1713 C1710 1.526 . S
C1713 C1714 1.396 . S
C1713 C1718 1.390 . S
C1714 C1708 1.465 . S
C1714 C1713 1.396 . S
C1714 C1715 1.399 . S
C1715 H1701 0.929 . S
C1715 C1714 1.399 . S
C1715 C1716 1.385 . S
C1716 H1702 0.931 . S
C1716 C1715 1.385 . S
C1716 C1717 1.389 . S
C1717 C1716 1.389 . S
C1717 C1718 1.387 . S
C1718 H1703 0.930 . S
C1718 C1713 1.390 . S
C1718 C1717 1.387 . S
H1719 C1731 0.930 . S
H1720 C1733 0.930 . S
H1721 C1734 0.930 . S
H1722 C1738 0.959 . S
H1723 C1738 0.959 . S
H1724 C1738 0.961 . S
H1725 C1739 0.960 . S
H1726 C1739 0.961 . S
H1727 C1739 0.959 . S
H1728 C1742 0.929 . S
H1729 C1743 0.931 . S
H1730 C1745 0.930 . S
C1731 H1719 0.930 . S
C1731 C1732 1.399 . S
C1731 C1736 1.399 . S
C1732 C1731 1.399 . S
C1732 C1733 1.376 . S
C1733 H1720 0.930 . S
C1733 C1732 1.376 . S
C1733 C1734 1.388 . S
C1734 H1721 0.930 . S
C1734 C1733 1.388 . S
C1734 C1735 1.390 . S
C1735 C1734 1.390 . S
C1735 C1736 1.394 . S
C1735 C1741 1.465 . S
C1736 C1731 1.399 . S
C1736 C1735 1.394 . S
C1736 C1737 1.516 . S
C1737 C1736 1.516 . S
C1737 C1738 1.502 . S
C1737 C1739 1.561 . S
C1737 C1740 1.526 . S
C1738 H1722 0.959 . S
C1738 H1723 0.959 . S
C1738 H1724 0.961 . S
C1738 C1737 1.502 . S
C1739 H1725 0.960 . S
C1739 H1726 0.961 . S
C1739 H1727 0.959 . S
C1739 C1737 1.561 . S
C1740 C1737 1.526 . S
C1740 C1741 1.396 . S
C1740 C1745 1.390 . S
C1741 C1735 1.465 . S
C1741 C1740 1.396 . S
C1741 C1742 1.399 . S
C1742 H1728 0.929 . S
C1742 C1741 1.399 . S
C1742 C1743 1.385 . S
C1743 H1729 0.931 . S
C1743 C1742 1.385 . S
C1743 C1744 1.389 . S
C1744 C1743 1.389 . S
C1744 C1745 1.387 . S
C1745 H1730 0.930 . S
C1745 C1740 1.390 . S
C1745 C1744 1.387 . S
H1746 C1758 0.930 . S
H1747 C1760 0.930 . S
H1748 C1761 0.930 . S
H1749 C1765 0.959 . S
H1750 C1765 0.959 . S
H1751 C1765 0.961 . S
H1752 C1766 0.960 . S
H1753 C1766 0.961 . S
H1754 C1766 0.959 . S
H1755 C1769 0.929 . S
H1756 C1770 0.931 . S
H1757 C1772 0.930 . S
C1758 H1746 0.930 . S
C1758 C1759 1.399 . S
C1758 C1763 1.399 . S
C1759 C1758 1.399 . S
C1759 C1760 1.376 . S
C1760 H1747 0.930 . S
C1760 C1759 1.376 . S
C1760 C1761 1.388 . S
C1761 H1748 0.930 . S
C1761 C1760 1.388 . S
C1761 C1762 1.390 . S
C1762 C1761 1.390 . S
C1762 C1763 1.394 . S
C1762 C1768 1.465 . S
C1763 C1758 1.399 . S
C1763 C1762 1.394 . S
C1763 C1764 1.516 . S
C1764 C1763 1.516 . S
C1764 C1765 1.502 . S
C1764 C1766 1.561 . S
C1764 C1767 1.526 . S
C1765 H1749 0.959 . S
C1765 H1750 0.959 . S
C1765 H1751 0.961 . S
C1765 C1764 1.502 . S
C1766 H1752 0.960 . S
C1766 H1753 0.961 . S
C1766 H1754 0.959 . S
C1766 C1764 1.561 . S
C1767 C1764 1.526 . S
C1767 C1768 1.396 . S
C1767 C1772 1.390 . S
C1768 C1762 1.465 . S
C1768 C1767 1.396 . S
C1768 C1769 1.399 . S
C1769 H1755 0.929 . S
C1769 C1768 1.399 . S
C1769 C1770 1.385 . S
C1770 H1756 0.931 . S
C1770 C1769 1.385 . S
C1770 C1771 1.389 . S
C1771 C1770 1.389 . S
C1771 C1772 1.387 . S
C1772 H1757 0.930 . S
C1772 C1767 1.390 . S
C1772 C1771 1.387 . S
H1773 C1785 0.930 . S
H1774 C1787 0.930 . S
H1775 C1788 0.930 . S
H1776 C1792 0.959 . S
H1777 C1792 0.959 . S
H1778 C1792 0.961 . S
H1779 C1793 0.960 . S
H1780 C1793 0.961 . S
H1781 C1793 0.959 . S
H1782 C1796 0.929 . S
H1783 C1797 0.931 . S
H1784 C1799 0.930 . S
C1785 H1773 0.930 . S
C1785 C1786 1.399 . S
C1785 C1790 1.399 . S
C1786 C1785 1.399 . S
C1786 C1787 1.376 . S
C1787 H1774 0.930 . S
C1787 C1786 1.376 . S
C1787 C1788 1.388 . S
C1788 H1775 0.930 . S
C1788 C1787 1.388 . S
C1788 C1789 1.390 . S
C1789 C1788 1.390 . S
C1789 C1790 1.394 . S
C1789 C1795 1.465 . S
C1790 C1785 1.399 . S
C1790 C1789 1.394 . S
C1790 C1791 1.516 . S
C1791 C1790 1.516 . S
C1791 C1792 1.502 . S
C1791 C1793 1.561 . S
C1791 C1794 1.526 . S
C1792 H1776 0.959 . S
C1792 H1777 0.959 . S
C1792 H1778 0.961 . S
C1792 C1791 1.502 . S
C1793 H1779 0.960 . S
C1793 H1780 0.961 . S
C1793 H1781 0.959 . S
C1793 C1791 1.561 . S
C1794 C1791 1.526 . S
C1794 C1795 1.396 . S
C1794 C1799 1.390 . S
C1795 C1789 1.465 . S
C1795 C1794 1.396 . S
C1795 C1796 1.399 . S
C1796 H1782 0.929 . S
C1796 C1795 1.399 . S
C1796 C1797 1.385 . S
C1797 H1783 0.931 . S
C1797 C1796 1.385 . S
C1797 C1798 1.389 . S
C1798 C1797 1.389 . S
C1798 C1799 1.387 . S
C1799 H1784 0.930 . S
C1799 C1794 1.390 . S
C1799 C1798 1.387 . S
H1800 C1812 0.930 . S
H1801 C1814 0.930 . S
H1802 C1815 0.930 . S
H1803 C1819 0.959 . S
H1804 C1819 0.959 . S
H1805 C1819 0.961 . S
H1806 C1820 0.960 . S
H1807 C1820 0.961 . S
H1808 C1820 0.959 . S
H1809 C1823 0.929 . S
H1810 C1824 0.931 . S
H1811 C1826 0.930 . S
C1812 H1800 0.930 . S
C1812 C1813 1.399 . S
C1812 C1817 1.399 . S
C1813 C1812 1.399 . S
C1813 C1814 1.376 . S
C1814 H1801 0.930 . S
C1814 C1813 1.376 . S
C1814 C1815 1.388 . S
C1815 H1802 0.930 . S
C1815 C1814 1.388 . S
C1815 C1816 1.390 . S
C1816 C1815 1.390 . S
C1816 C1817 1.394 . S
C1816 C1822 1.465 . S
C1817 C1812 1.399 . S
C1817 C1816 1.394 . S
C1817 C1818 1.516 . S
C1818 C1817 1.516 . S
C1818 C1819 1.502 . S
C1818 C1820 1.561 . S
C1818 C1821 1.526 . S
C1819 H1803 0.959 . S
C1819 H1804 0.959 . S
C1819 H1805 0.961 . S
C1819 C1818 1.502 . S
C1820 H1806 0.960 . S
C1820 H1807 0.961 . S
C1820 H1808 0.959 . S
C1820 C1818 1.561 . S
C1821 C1818 1.526 . S
C1821 C1822 1.396 . S
C1821 C1826 1.390 . S
C1822 C1816 1.465 . S
C1822 C1821 1.396 . S
C1822 C1823 1.399 . S
C1823 H1809 0.929 . S
C1823 C1822 1.399 . S
C1823 C1824 1.385 . S
C1824 H1810 0.931 . S
C1824 C1823 1.385 . S
C1824 C1825 1.389 . S
C1825 C1824 1.389 . S
C1825 C1826 1.387 . S
C1826 H1811 0.930 . S
C1826 C1821 1.390 . S
C1826 C1825 1.387 . S
C625 C349 1.259 . S
C637 C9 1.341 . S
C652 C43 1.258 . S
C664 C383 1.340 . S
C679 C315 1.261 . S
C691 C77 1.313 . S
C706 C485 1.278 . S
C718 C111 1.346 . S
C733 C145 1.267 . S
C745 C417 1.346 . S
C760 C451 1.257 . S
C772 C179 1.338 . S
C787 C172 2.022 . S
C799 C478 2.022 . S
C814 C410 2.022 . S
C826 C104 2.022 . S
C841 C444 2.026 . S
C853 C138 2.027 . S
C868 C36 2.027 . S
C880 C342 2.027 . S
C895 C70 2.029 . S
C907 C376 2.029 . S
C922 C2 2.018 . S
C934 C308 2.018 . S
C949 C553 1.256 . S
C961 C213 1.336 . S
C976 C587 1.270 . S
C988 C247 1.346 . S
C1003 C519 1.322 . S
C1015 C281 1.259 . S
C1030 C240 2.025 . S
C1042 C546 2.025 . S
C1057 C580 2.023 . S
C1069 C274 2.023 . S
C1084 C206 2.023 . S
C1096 C512 2.023 . S
C1111 C33 1.386 . S
C1123 C611 1.382 . S
C1138 C67 1.373 . S
C1150 C543 1.380 . S
C1165 C101 1.359 . S
C1177 C577 1.358 . S
C1192 C271 1.375 . S
C1204 C135 1.381 . S
C1219 C169 1.377 . S
C1231 C305 1.371 . S
C1246 C203 1.387 . S
C1258 C237 1.383 . S
C1273 C339 1.388 . S
C1285 C475 1.387 . S
C1300 C373 1.388 . S
C1312 C509 1.387 . S
C1327 C407 1.364 . S
C1339 C441 1.370 . S
C1354 C73 1.578 . S
C1366 C20 1.643 . S
C1381 C54 1.654 . S
C1393 C5 1.483 . S
C1408 C39 1.564 . S
C1420 C88 1.653 . S
C1435 C141 1.553 . S
C1447 C122 1.641 . S
C1462 C156 1.655 . S
C1474 C175 1.484 . S
C1489 C107 1.537 . S
C1501 C190 1.657 . S
C1516 C224 1.644 . S
C1528 C277 1.579 . S
C1543 C209 1.531 . S
C1555 C258 1.642 . S
C1570 C292 1.650 . S
C1582 C243 1.484 . S
C1597 C326 1.643 . S
C1609 C345 1.578 . S
C1624 C379 1.555 . S
C1636 C360 1.655 . S
C1651 C394 1.657 . S
C1663 C311 1.492 . S
C1678 C428 1.642 . S
C1690 C481 1.573 . S
C1705 C413 1.535 . S
C1717 C462 1.641 . S
C1732 C496 1.642 . S
C1744 C447 1.575 . S
C1759 C530 1.646 . S
C1771 C549 1.494 . S
C1786 C583 1.538 . S
C1798 C564 1.657 . S
C1813 C515 1.503 . S
C1825 C598 1.658 . S
