# Generated by pormake.
# Topology unw, (4)-cn, num edge types: 1
# Building blocks:
#     Node 0, Type 0, BuildingBlock: QUQFOY_clean_sbu_1, # of connection points: 4
#     Node 1, Type 0, BuildingBlock: QUQFOY_clean_sbu_1, # of connection points: 4
#     Node 2, Type 0, BuildingBlock: QUQFOY_clean_sbu_1, # of connection points: 4
#     Node 3, Type 0, BuildingBlock: QUQFOY_clean_sbu_1, # of connection points: 4
#     Node 4, Type 0, BuildingBlock: QUQFOY_clean_sbu_1, # of connection points: 4
#     Node 5, Type 0, BuildingBlock: QUQFOY_clean_sbu_1, # of connection points: 4
#     Node 6, Type 0, BuildingBlock: QUQFOY_clean_sbu_1, # of connection points: 4
#     Node 7, Type 0, BuildingBlock: QUQFOY_clean_sbu_1, # of connection points: 4
#     Node 8, Type 0, BuildingBlock: QUQFOY_clean_sbu_1, # of connection points: 4
#     Node 9, Type 0, BuildingBlock: QUQFOY_clean_sbu_1, # of connection points: 4
#     Node 10, Type 0, BuildingBlock: QUQFOY_clean_sbu_1, # of connection points: 4
#     Node 11, Type 0, BuildingBlock: QUQFOY_clean_sbu_1, # of connection points: 4
#     Node 12, Type 0, BuildingBlock: QUQFOY_clean_sbu_1, # of connection points: 4
#     Node 13, Type 0, BuildingBlock: QUQFOY_clean_sbu_1, # of connection points: 4
#     Node 14, Type 0, BuildingBlock: QUQFOY_clean_sbu_1, # of connection points: 4
#     Node 15, Type 0, BuildingBlock: QUQFOY_clean_sbu_1, # of connection points: 4
#     Node 16, Type 0, BuildingBlock: QUQFOY_clean_sbu_1, # of connection points: 4
#     Node 17, Type 0, BuildingBlock: QUQFOY_clean_sbu_1, # of connection points: 4
#     Node 18, Type 0, BuildingBlock: QUQFOY_clean_sbu_1, # of connection points: 4
#     Node 19, Type 0, BuildingBlock: QUQFOY_clean_sbu_1, # of connection points: 4
#     Node 20, Type 0, BuildingBlock: QUQFOY_clean_sbu_1, # of connection points: 4
#     Node 21, Type 0, BuildingBlock: QUQFOY_clean_sbu_1, # of connection points: 4
#     Node 22, Type 0, BuildingBlock: QUQFOY_clean_sbu_1, # of connection points: 4
#     Node 23, Type 0, BuildingBlock: QUQFOY_clean_sbu_1, # of connection points: 4
#     Edge 24, Type (0, 0), BuildingBlock: XUDNAN_clean_linker_2, # of connection points: 2
#     Edge 25, Type (0, 0), BuildingBlock: XUDNAN_clean_linker_2, # of connection points: 2
#     Edge 26, Type (0, 0), BuildingBlock: XUDNAN_clean_linker_2, # of connection points: 2
#     Edge 27, Type (0, 0), BuildingBlock: XUDNAN_clean_linker_2, # of connection points: 2
#     Edge 28, Type (0, 0), BuildingBlock: XUDNAN_clean_linker_2, # of connection points: 2
#     Edge 29, Type (0, 0), BuildingBlock: XUDNAN_clean_linker_2, # of connection points: 2
#     Edge 30, Type (0, 0), BuildingBlock: XUDNAN_clean_linker_2, # of connection points: 2
#     Edge 31, Type (0, 0), BuildingBlock: XUDNAN_clean_linker_2, # of connection points: 2
#     Edge 32, Type (0, 0), BuildingBlock: XUDNAN_clean_linker_2, # of connection points: 2
#     Edge 33, Type (0, 0), BuildingBlock: XUDNAN_clean_linker_2, # of connection points: 2
#     Edge 34, Type (0, 0), BuildingBlock: XUDNAN_clean_linker_2, # of connection points: 2
#     Edge 35, Type (0, 0), BuildingBlock: XUDNAN_clean_linker_2, # of connection points: 2
#     Edge 36, Type (0, 0), BuildingBlock: XUDNAN_clean_linker_2, # of connection points: 2
#     Edge 37, Type (0, 0), BuildingBlock: XUDNAN_clean_linker_2, # of connection points: 2
#     Edge 38, Type (0, 0), BuildingBlock: XUDNAN_clean_linker_2, # of connection points: 2
#     Edge 39, Type (0, 0), BuildingBlock: XUDNAN_clean_linker_2, # of connection points: 2
#     Edge 40, Type (0, 0), BuildingBlock: XUDNAN_clean_linker_2, # of connection points: 2
#     Edge 41, Type (0, 0), BuildingBlock: XUDNAN_clean_linker_2, # of connection points: 2
#     Edge 42, Type (0, 0), BuildingBlock: XUDNAN_clean_linker_2, # of connection points: 2
#     Edge 43, Type (0, 0), BuildingBlock: XUDNAN_clean_linker_2, # of connection points: 2
#     Edge 44, Type (0, 0), BuildingBlock: XUDNAN_clean_linker_2, # of connection points: 2
#     Edge 45, Type (0, 0), BuildingBlock: XUDNAN_clean_linker_2, # of connection points: 2
#     Edge 46, Type (0, 0), BuildingBlock: XUDNAN_clean_linker_2, # of connection points: 2
#     Edge 47, Type (0, 0), BuildingBlock: XUDNAN_clean_linker_2, # of connection points: 2
#     Edge 48, Type (0, 0), BuildingBlock: XUDNAN_clean_linker_2, # of connection points: 2
#     Edge 49, Type (0, 0), BuildingBlock: XUDNAN_clean_linker_2, # of connection points: 2
#     Edge 50, Type (0, 0), BuildingBlock: XUDNAN_clean_linker_2, # of connection points: 2
#     Edge 51, Type (0, 0), BuildingBlock: XUDNAN_clean_linker_2, # of connection points: 2
#     Edge 52, Type (0, 0), BuildingBlock: XUDNAN_clean_linker_2, # of connection points: 2
#     Edge 53, Type (0, 0), BuildingBlock: XUDNAN_clean_linker_2, # of connection points: 2
#     Edge 54, Type (0, 0), BuildingBlock: XUDNAN_clean_linker_2, # of connection points: 2
#     Edge 55, Type (0, 0), BuildingBlock: XUDNAN_clean_linker_2, # of connection points: 2
#     Edge 56, Type (0, 0), BuildingBlock: XUDNAN_clean_linker_2, # of connection points: 2
#     Edge 57, Type (0, 0), BuildingBlock: XUDNAN_clean_linker_2, # of connection points: 2
#     Edge 58, Type (0, 0), BuildingBlock: XUDNAN_clean_linker_2, # of connection points: 2
#     Edge 59, Type (0, 0), BuildingBlock: XUDNAN_clean_linker_2, # of connection points: 2
#     Edge 60, Type (0, 0), BuildingBlock: XUDNAN_clean_linker_2, # of connection points: 2
#     Edge 61, Type (0, 0), BuildingBlock: XUDNAN_clean_linker_2, # of connection points: 2
#     Edge 62, Type (0, 0), BuildingBlock: XUDNAN_clean_linker_2, # of connection points: 2
#     Edge 63, Type (0, 0), BuildingBlock: XUDNAN_clean_linker_2, # of connection points: 2
#     Edge 64, Type (0, 0), BuildingBlock: XUDNAN_clean_linker_2, # of connection points: 2
#     Edge 65, Type (0, 0), BuildingBlock: XUDNAN_clean_linker_2, # of connection points: 2
#     Edge 66, Type (0, 0), BuildingBlock: XUDNAN_clean_linker_2, # of connection points: 2
#     Edge 67, Type (0, 0), BuildingBlock: XUDNAN_clean_linker_2, # of connection points: 2
#     Edge 68, Type (0, 0), BuildingBlock: XUDNAN_clean_linker_2, # of connection points: 2
#     Edge 69, Type (0, 0), BuildingBlock: XUDNAN_clean_linker_2, # of connection points: 2
#     Edge 70, Type (0, 0), BuildingBlock: XUDNAN_clean_linker_2, # of connection points: 2
#     Edge 71, Type (0, 0), BuildingBlock: XUDNAN_clean_linker_2, # of connection points: 2
# Relax obj value: 0.141
# Max RMSD: 0.163
# Mean RMSD: 0.163
data_MOF--net-unw--node1-QUQFOY_clean_sbu_1--edge1-XUDNAN_clean_linker_2
_symmetry_space_group_name_H-M    P1
_symmetry_Int_Tables_number       1
_symmetry_cell_setting            triclinic
loop_
_symmetry_equiv_pos_as_xyz
'x, y, z'
_cell_length_a     50.750001
_cell_length_b     51.130139
_cell_length_c     51.012447
_cell_angle_alpha  89.840339
_cell_angle_beta   89.721052
_cell_angle_gamma 89.802836
loop_
_atom_site_label
_atom_site_type_symbol
_atom_site_fract_x
_atom_site_fract_y
_atom_site_fract_z
_atom_type_partial_charge
O0 O 0.14706 0.31951 0.26442 0.0
Cd1 Cd 0.1277 0.33912 0.23625 0.0
Cd2 Cd 0.16881 0.37283 0.25345 0.0
O3 O 0.1674 0.3499 0.28734 0.0
O4 O 0.09508 0.31722 0.23447 0.0
O5 O 0.09545 0.35762 0.24979 0.0
C6 C 0.08313 0.33573 0.24688 0.0
C7 C 0.18728 0.41503 0.25151 0.0
C8 C 0.16003 0.32632 0.28436 0.0
C9 C 0.17298 0.3394 0.20282 0.0
O10 O 0.18255 0.35198 0.22194 0.0
O11 O 0.14835 0.33486 0.20164 0.0
O12 O 0.20058 0.39506 0.25932 0.0
O13 O 0.16252 0.41167 0.24703 0.0
O14 O 0.6508 0.18242 0.23945 0.0
Cd15 Cd 0.63635 0.15781 0.2674 0.0
Cd16 Cd 0.66392 0.12993 0.2378 0.0
O17 O 0.65168 0.1538 0.20728 0.0
O18 O 0.60701 0.17835 0.28342 0.0
O19 O 0.60084 0.14419 0.25737 0.0
C20 C 0.59123 0.16406 0.26985 0.0
C21 C 0.6649 0.08638 0.24854 0.0
C22 C 0.6521 0.17741 0.21512 0.0
C23 C 0.68749 0.14894 0.28574 0.0
O24 O 0.69083 0.14778 0.2611 0.0
O25 O 0.66431 0.14728 0.29527 0.0
O26 O 0.68008 0.09526 0.2301 0.0
O27 O 0.64613 0.10135 0.25724 0.0
O28 O 0.86738 0.67103 0.29207 0.0
Cd29 Cd 0.88444 0.67427 0.25563 0.0
Cd30 Cd 0.84508 0.62521 0.25478 0.0
O31 O 0.82996 0.65391 0.27917 0.0
O32 O 0.90457 0.70775 0.25712 0.0
O33 O 0.92395 0.66904 0.25415 0.0
C34 C 0.92592 0.69407 0.25674 0.0
C35 C 0.82723 0.58328 0.25456 0.0
C36 C 0.84245 0.66988 0.29359 0.0
C37 C 0.84792 0.66041 0.21236 0.0
O38 O 0.85571 0.63751 0.21797 0.0
O39 O 0.85728 0.67932 0.22546 0.0
O40 O 0.81442 0.60317 0.24575 0.0
O41 O 0.84992 0.58727 0.26515 0.0
O42 O 0.33215 0.86413 0.28687 0.0
Cd43 Cd 0.34601 0.87196 0.25036 0.0
Cd44 Cd 0.38586 0.84791 0.27639 0.0
O45 O 0.36809 0.86071 0.31085 0.0
O46 O 0.31684 0.89617 0.2401 0.0
O47 O 0.35805 0.90917 0.24555 0.0
C48 C 0.33342 0.91505 0.24264 0.0
C49 C 0.42918 0.8448 0.26143 0.0
C50 C 0.34322 0.86352 0.30905 0.0
C51 C 0.35512 0.81793 0.23704 0.0
O52 O 0.36575 0.81829 0.25947 0.0
O53 O 0.34853 0.83933 0.22587 0.0
O54 O 0.42135 0.83134 0.28146 0.0
O55 O 0.41353 0.86278 0.25254 0.0
O56 O 0.15233 0.67938 0.74369 0.0
Cd57 Cd 0.13298 0.65175 0.76489 0.0
Cd58 Cd 0.17076 0.62729 0.73564 0.0
O59 O 0.16949 0.65885 0.70971 0.0
O60 O 0.10424 0.67413 0.77979 0.0
O61 O 0.09694 0.64356 0.75026 0.0
C62 C 0.08831 0.66327 0.76359 0.0
C63 C 0.18221 0.58337 0.73079 0.0
C64 C 0.1639 0.68005 0.7216 0.0
C65 C 0.17988 0.6384 0.79269 0.0
O66 O 0.1886 0.6379 0.76936 0.0
O67 O 0.15513 0.63943 0.79696 0.0
O68 O 0.1975 0.60164 0.72233 0.0
O69 O 0.15874 0.58982 0.73837 0.0
O70 O 0.34462 0.14793 0.74073 0.0
Cd71 Cd 0.35355 0.12825 0.77402 0.0
Cd72 Cd 0.39717 0.17207 0.75251 0.0
O73 O 0.37216 0.1743 0.72016 0.0
O74 O 0.31946 0.10899 0.77548 0.0
O75 O 0.35757 0.08891 0.76987 0.0
C76 C 0.33216 0.08796 0.76974 0.0
C77 C 0.44086 0.18669 0.75403 0.0
C78 C 0.34984 0.16307 0.72178 0.0
C79 C 0.3656 0.17332 0.80694 0.0
O80 O 0.37994 0.1803 0.78777 0.0
O81 O 0.3535 0.15154 0.807 0.0
O82 O 0.42153 0.20288 0.75173 0.0
O83 O 0.43573 0.162 0.75277 0.0
O84 O 0.85081 0.3644 0.77639 0.0
Cd85 Cd 0.84084 0.38222 0.74246 0.0
Cd86 Cd 0.89364 0.33701 0.75986 0.0
O87 O 0.87897 0.34112 0.79794 0.0
O88 O 0.80524 0.39612 0.75117 0.0
O89 O 0.83889 0.42194 0.74241 0.0
C90 C 0.81479 0.4194 0.75023 0.0
C91 C 0.93421 0.31639 0.75111 0.0
C92 C 0.85712 0.35324 0.79756 0.0
C93 C 0.84601 0.33174 0.71666 0.0
O94 O 0.86468 0.32796 0.73286 0.0
O95 O 0.835 0.35409 0.7141 0.0
O96 O 0.91477 0.30402 0.76159 0.0
O97 O 0.93119 0.34105 0.74647 0.0
O98 O 0.63545 0.82156 0.78094 0.0
Cd99 Cd 0.62151 0.83265 0.74568 0.0
Cd100 Cd 0.66205 0.87235 0.7646 0.0
O101 O 0.65987 0.85169 0.79982 0.0
O102 O 0.59649 0.80265 0.74366 0.0
O103 O 0.58322 0.84378 0.74329 0.0
C104 C 0.5775 0.81926 0.74456 0.0
C105 C 0.67708 0.91574 0.76085 0.0
C106 C 0.64879 0.82941 0.8002 0.0
C107 C 0.67227 0.83396 0.7182 0.0
O108 O 0.67876 0.85031 0.73566 0.0
O109 O 0.64885 0.82531 0.7165 0.0
O110 O 0.6913 0.89776 0.77139 0.0
O111 O 0.65338 0.90977 0.75414 0.0
O112 O 0.23271 0.16711 0.36646 0.0
Cd113 Cd 0.26631 0.15762 0.3856 0.0
Cd114 Cd 0.25354 0.11795 0.33675 0.0
O115 O 0.21881 0.13957 0.33604 0.0
O116 O 0.2655 0.18705 0.41163 0.0
O117 O 0.25865 0.14593 0.42272 0.0
C118 C 0.25807 0.17035 0.42902 0.0
C119 C 0.25969 0.07832 0.31381 0.0
C120 C 0.21575 0.16013 0.34979 0.0
C121 C 0.30295 0.15562 0.34046 0.0
O122 O 0.28645 0.14008 0.33041 0.0
O123 O 0.30029 0.16413 0.36377 0.0
O124 O 0.25475 0.09998 0.30195 0.0
O125 O 0.2585 0.07828 0.33908 0.0
O126 O 0.86735 0.2599 0.31964 0.0
Cd127 Cd 0.89019 0.24074 0.34573 0.0
Cd128 Cd 0.84405 0.2597 0.37351 0.0
O129 O 0.83956 0.28505 0.34163 0.0
O130 O 0.92261 0.23735 0.32338 0.0
O131 O 0.92133 0.26069 0.35967 0.0
C132 C 0.9338 0.25399 0.33858 0.0
C133 C 0.82663 0.26405 0.41589 0.0
C134 C 0.84968 0.27741 0.32004 0.0
C135 C 0.85089 0.20196 0.35684 0.0
O136 O 0.83746 0.22201 0.36292 0.0
O137 O 0.87548 0.20359 0.35205 0.0
O138 O 0.8118 0.26572 0.39559 0.0
O139 O 0.85179 0.26293 0.41224 0.0
O140 O 0.77373 0.83698 0.35812 0.0
Cd141 Cd 0.74665 0.85379 0.38215 0.0
Cd142 Cd 0.75916 0.89332 0.3415 0.0
O143 O 0.78978 0.86808 0.33228 0.0
O144 O 0.74664 0.82863 0.41243 0.0
O145 O 0.76175 0.86904 0.41508 0.0
C146 C 0.75911 0.84613 0.42556 0.0
C147 C 0.75532 0.93778 0.33117 0.0
C148 C 0.78982 0.84458 0.34063 0.0
C149 C 0.70601 0.86399 0.34299 0.0
O150 O 0.7238 0.87779 0.33246 0.0
O151 O 0.70936 0.85346 0.36541 0.0
O152 O 0.75976 0.92066 0.31325 0.0
O153 O 0.75677 0.93015 0.35529 0.0
O154 O 0.15271 0.74063 0.31528 0.0
Cd155 Cd 0.13408 0.76652 0.33965 0.0
Cd156 Cd 0.16561 0.7371 0.36835 0.0
O157 O 0.15638 0.70739 0.34258 0.0
O158 O 0.10651 0.78079 0.31575 0.0
O159 O 0.09736 0.75461 0.34915 0.0
C160 C 0.08965 0.76639 0.32805 0.0
C161 C 0.18119 0.73617 0.41104 0.0
C162 C 0.1562 0.71635 0.31928 0.0
C163 C 0.18215 0.78987 0.3524 0.0
O164 O 0.18765 0.76573 0.35132 0.0
O165 O 0.15807 0.79692 0.35278 0.0
O166 O 0.19383 0.72476 0.3923 0.0
O167 O 0.15745 0.74416 0.40648 0.0
O168 O 0.28534 0.86072 0.64447 0.0
Cd169 Cd 0.26326 0.88665 0.66682 0.0
Cd170 Cd 0.25405 0.82515 0.61772 0.0
O171 O 0.28841 0.81872 0.63827 0.0
O172 O 0.28055 0.90627 0.69561 0.0
O173 O 0.26412 0.9246 0.65946 0.0
C174 C 0.27522 0.92713 0.68213 0.0
C175 C 0.24611 0.81133 0.57546 0.0
C176 C 0.29288 0.8384 0.65284 0.0
C177 C 0.22083 0.85323 0.65887 0.0
O178 O 0.2321 0.85356 0.63647 0.0
O179 O 0.22615 0.87208 0.67414 0.0
O180 O 0.23675 0.79858 0.59538 0.0
O181 O 0.26024 0.8319 0.5797 0.0
O182 O 0.18928 0.23469 0.63645 0.0
Cd183 Cd 0.16482 0.26246 0.62158 0.0
Cd184 Cd 0.13634 0.23572 0.6581 0.0
O185 O 0.16185 0.2046 0.65115 0.0
O186 O 0.18706 0.27139 0.59049 0.0
O187 O 0.1484 0.25173 0.58751 0.0
C188 C 0.17041 0.25852 0.57657 0.0
C189 C 0.0925 0.23617 0.67282 0.0
C190 C 0.18497 0.21157 0.6443 0.0
C191 C 0.15995 0.28828 0.67019 0.0
O192 O 0.15488 0.26501 0.67711 0.0
O193 O 0.15993 0.29469 0.64604 0.0
O194 O 0.11082 0.22468 0.68599 0.0
O195 O 0.09837 0.24463 0.64963 0.0
O196 O 0.71778 0.13004 0.66192 0.0
Cd197 Cd 0.75411 0.11381 0.65772 0.0
Cd198 Cd 0.74394 0.16002 0.61263 0.0
O199 O 0.70745 0.15883 0.631 0.0
O200 O 0.75451 0.09529 0.69252 0.0
O201 O 0.75392 0.07383 0.65533 0.0
C202 C 0.75285 0.07335 0.68057 0.0
C203 C 0.74898 0.18228 0.57217 0.0
C204 C 0.70164 0.1459 0.65159 0.0
C205 C 0.78777 0.16265 0.65536 0.0
O206 O 0.77363 0.17125 0.6368 0.0
O207 O 0.7845 0.13985 0.66501 0.0
O208 O 0.7402 0.19379 0.59277 0.0
O209 O 0.75334 0.15746 0.57378 0.0
O210 O 0.83933 0.78086 0.64465 0.0
Cd211 Cd 0.85283 0.75168 0.6212 0.0
Cd212 Cd 0.89315 0.75734 0.66635 0.0
O213 O 0.87026 0.79009 0.6737 0.0
O214 O 0.82562 0.75369 0.59268 0.0
O215 O 0.86756 0.76254 0.58594 0.0
C216 C 0.84372 0.76229 0.57722 0.0
C217 C 0.93387 0.75136 0.68817 0.0
C218 C 0.84764 0.79423 0.66377 0.0
C219 C 0.85496 0.71008 0.66148 0.0
O220 O 0.87178 0.72451 0.67257 0.0
O221 O 0.84628 0.71562 0.63871 0.0
O222 O 0.91243 0.75632 0.70059 0.0
O223 O 0.93296 0.75171 0.66294 0.0
O224 O 0.35676 0.27837 0.14762 0.0
Cd225 Cd 0.32857 0.25436 0.13144 0.0
Cd226 Cd 0.38764 0.25127 0.18304 0.0
O227 O 0.36834 0.28696 0.18754 0.0
O228 O 0.29996 0.27087 0.11029 0.0
O229 O 0.33298 0.24743 0.09344 0.0
C230 C 0.31194 0.26138 0.08992 0.0
C231 C 0.42426 0.23706 0.20583 0.0
C232 C 0.35188 0.29015 0.16901 0.0
C233 C 0.34483 0.21611 0.16696 0.0
O234 O 0.36562 0.22746 0.15892 0.0
O235 O 0.32339 0.2215 0.15514 0.0
O236 O 0.40091 0.23539 0.21603 0.0
O237 O 0.42675 0.24729 0.18269 0.0
O238 O 0.3494 0.77625 0.82275 0.0
Cd239 Cd 0.37224 0.74827 0.8406 0.0
Cd240 Cd 0.34079 0.77082 0.87893 0.0
O241 O 0.33679 0.8028 0.85445 0.0
O242 O 0.39434 0.73935 0.80951 0.0
O243 O 0.41086 0.75742 0.84509 0.0
C244 C 0.4139 0.75039 0.82096 0.0
C245 C 0.34105 0.76466 0.92373 0.0
C246 C 0.33896 0.79758 0.83016 0.0
C247 C 0.32842 0.71735 0.86018 0.0
O248 O 0.31977 0.73976 0.86643 0.0
O249 O 0.35196 0.71453 0.85177 0.0
O250 O 0.32196 0.77722 0.91276 0.0
O251 O 0.36214 0.76032 0.91001 0.0
O252 O 0.26883 0.33369 0.86156 0.0
Cd253 Cd 0.23741 0.3475 0.88187 0.0
Cd254 Cd 0.25924 0.38821 0.83674 0.0
O255 O 0.291 0.36221 0.83734 0.0
O256 O 0.23313 0.31474 0.90284 0.0
O257 O 0.24311 0.35235 0.92111 0.0
C258 C 0.24056 0.32734 0.92324 0.0
C259 C 0.26011 0.42838 0.81401 0.0
C260 C 0.28813 0.33935 0.84686 0.0
C261 C 0.20373 0.35953 0.83706 0.0
O262 O 0.22347 0.37206 0.8284 0.0
O263 O 0.20358 0.34923 0.85979 0.0
O264 O 0.2647 0.40658 0.80236 0.0
O265 O 0.25772 0.42786 0.83921 0.0
O266 O 0.66482 0.24304 0.81504 0.0
Cd267 Cd 0.64558 0.26874 0.8385 0.0
Cd268 Cd 0.66635 0.23658 0.86976 0.0
O269 O 0.65542 0.20995 0.84068 0.0
O270 O 0.61648 0.28037 0.81506 0.0
O271 O 0.61037 0.2547 0.84971 0.0
C272 C 0.60137 0.26467 0.82815 0.0
C273 C 0.66783 0.23434 0.91498 0.0
C274 C 0.66126 0.21871 0.818 0.0
C275 C 0.69388 0.28638 0.858 0.0
O276 O 0.69612 0.26169 0.85988 0.0
O277 O 0.67141 0.29653 0.85316 0.0
O278 O 0.68179 0.21864 0.90073 0.0
O279 O 0.64986 0.24826 0.90356 0.0
O280 O 0.72013 0.67319 0.87196 0.0
Cd281 Cd 0.75851 0.66887 0.882 0.0
Cd282 Cd 0.73962 0.62222 0.84662 0.0
O283 O 0.703 0.63981 0.85054 0.0
O284 O 0.75911 0.70081 0.90478 0.0
O285 O 0.76636 0.66115 0.92026 0.0
C286 C 0.76223 0.68567 0.92469 0.0
C287 C 0.74542 0.57838 0.83398 0.0
C288 C 0.70071 0.66218 0.8612 0.0
C289 C 0.78069 0.66444 0.82866 0.0
O290 O 0.76487 0.64547 0.82645 0.0
O291 O 0.78379 0.67624 0.85043 0.0
O292 O 0.73426 0.59509 0.81879 0.0
O293 O 0.75185 0.58582 0.8572 0.0
O294 O 0.67819 0.72927 0.15 0.0
Cd295 Cd 0.66968 0.76279 0.13 0.0
Cd296 Cd 0.62521 0.74539 0.1706 0.0
O297 O 0.64638 0.71053 0.17311 0.0
O298 O 0.70449 0.76361 0.1113 0.0
O299 O 0.66722 0.75905 0.09007 0.0
C300 C 0.69263 0.75854 0.08973 0.0
C301 C 0.58061 0.75475 0.17933 0.0
C302 C 0.66986 0.7106 0.16411 0.0
C303 C 0.66118 0.79436 0.17731 0.0
O304 O 0.64628 0.77585 0.18457 0.0
O305 O 0.67042 0.79577 0.15404 0.0
O306 O 0.59572 0.74531 0.19728 0.0
O307 O 0.58988 0.7556 0.15568 0.0
O308 O 0.2241 0.63196 0.16121 0.0
Cd309 Cd 0.25918 0.61529 0.15095 0.0
Cd310 Cd 0.24567 0.65977 0.11195 0.0
O311 O 0.20981 0.65983 0.13106 0.0
O312 O 0.26342 0.59259 0.18274 0.0
O313 O 0.25656 0.57634 0.14341 0.0
C314 C 0.259 0.57262 0.16829 0.0
C315 C 0.25426 0.67237 0.06876 0.0
C316 C 0.20659 0.64735 0.15244 0.0
C317 C 0.29306 0.66292 0.14884 0.0
O318 O 0.27566 0.67299 0.13422 0.0
O319 O 0.2921 0.63888 0.15539 0.0
O320 O 0.24502 0.68879 0.08558 0.0
O321 O 0.25561 0.64805 0.07564 0.0
O322 O 0.77339 0.36193 0.16355 0.0
Cd323 Cd 0.74142 0.38536 0.15955 0.0
Cd324 Cd 0.74976 0.34024 0.10996 0.0
O325 O 0.78413 0.33505 0.13125 0.0
O326 O 0.74449 0.40046 0.1956 0.0
O327 O 0.74774 0.42456 0.15995 0.0
C328 C 0.74969 0.42268 0.18509 0.0
C329 C 0.74399 0.31591 0.07092 0.0
C330 C 0.78857 0.34487 0.15371 0.0
C331 C 0.7005 0.34544 0.14877 0.0
O332 O 0.71599 0.33643 0.13142 0.0
O333 O 0.70598 0.36586 0.16183 0.0
O334 O 0.7485 0.30487 0.09305 0.0
O335 O 0.7445 0.34111 0.07022 0.0
H336 H 0.21296 0.5456 0.16861 0.0
H337 H 0.29296 0.54396 0.19777 0.0
H338 H 0.2826 0.50433 0.22393 0.0
H339 H 0.18363 0.5275 0.23049 0.0
H340 H 0.15752 0.50858 0.21616 0.0
H341 H 0.17152 0.5357 0.19833 0.0
H342 H 0.18246 0.50532 0.15917 0.0
H343 H 0.16805 0.47825 0.17666 0.0
H344 H 0.20146 0.47596 0.16469 0.0
H345 H 0.26346 0.4654 0.24696 0.0
H346 H 0.23753 0.42848 0.26426 0.0
H347 H 0.16884 0.45664 0.22222 0.0
C348 C 0.22841 0.53638 0.17999 0.0
C349 C 0.254 0.54711 0.18066 0.0
C350 C 0.27346 0.53548 0.19664 0.0
C351 C 0.26768 0.51317 0.21166 0.0
C352 C 0.24212 0.50325 0.21097 0.0
C353 C 0.22275 0.51447 0.19561 0.0
C354 C 0.19656 0.5007 0.19944 0.0
C355 C 0.1761 0.51923 0.21184 0.0
C356 C 0.18656 0.48937 0.17344 0.0
C357 C 0.20447 0.47929 0.21852 0.0
C358 C 0.23077 0.48137 0.22513 0.0
C359 C 0.24284 0.46363 0.24202 0.0
C360 C 0.22788 0.44276 0.25183 0.0
C361 C 0.20108 0.4397 0.24476 0.0
C362 C 0.18914 0.45861 0.22831 0.0
H363 H 0.56647 0.17116 0.22316 0.0
H364 H 0.55553 0.17889 0.30706 0.0
H365 H 0.51125 0.19811 0.29973 0.0
H366 H 0.53689 0.23339 0.208 0.0
H367 H 0.5224 0.22265 0.17771 0.0
H368 H 0.5522 0.20747 0.18943 0.0
H369 H 0.52985 0.16203 0.18766 0.0
H370 H 0.50006 0.17709 0.17578 0.0
H371 H 0.49914 0.15694 0.20482 0.0
H372 H 0.46794 0.21541 0.28324 0.0
H373 H 0.42978 0.2329 0.25879 0.0
H374 H 0.47078 0.21835 0.18542 0.0
C375 C 0.55437 0.17628 0.23995 0.0
C376 C 0.56382 0.17272 0.26576 0.0
C377 C 0.5482 0.18086 0.28725 0.0
C378 C 0.52316 0.19188 0.28323 0.0
C379 C 0.51442 0.19529 0.25755 0.0
C380 C 0.52968 0.18808 0.23624 0.0
C381 C 0.51647 0.1957 0.21067 0.0
C382 C 0.53298 0.216 0.19557 0.0
C383 C 0.51106 0.17149 0.19374 0.0
C384 C 0.49111 0.20769 0.22096 0.0
C385 C 0.49027 0.2071 0.24804 0.0
C386 C 0.46846 0.21619 0.26204 0.0
C387 C 0.44688 0.22604 0.248 0.0
C388 C 0.44744 0.22717 0.22028 0.0
C389 C 0.46997 0.21805 0.20664 0.0
H390 H 0.75225 0.47491 0.17276 0.0
H391 H 0.77232 0.41869 0.23337 0.0
H392 H 0.79459 0.45343 0.25842 0.0
H393 H 0.81159 0.51151 0.17504 0.0
H394 H 0.79573 0.5427 0.17002 0.0
H395 H 0.78114 0.51343 0.15706 0.0
H396 H 0.73761 0.5236 0.18201 0.0
H397 H 0.75204 0.55301 0.19485 0.0
H398 H 0.73846 0.52894 0.21693 0.0
H399 H 0.81794 0.49434 0.27513 0.0
H400 H 0.83551 0.53875 0.28409 0.0
H401 H 0.79679 0.56791 0.21426 0.0
C402 C 0.76104 0.46999 0.19145 0.0
C403 C 0.76044 0.44417 0.20115 0.0
C404 C 0.77228 0.43845 0.22567 0.0
C405 C 0.78514 0.45801 0.23998 0.0
C406 C 0.78564 0.48326 0.22971 0.0
C407 C 0.77352 0.48934 0.2062 0.0
C408 C 0.77653 0.51799 0.19957 0.0
C409 C 0.79218 0.52161 0.1739 0.0
C410 C 0.74955 0.53169 0.19827 0.0
C411 C 0.79219 0.52709 0.22293 0.0
C412 C 0.79771 0.50679 0.23996 0.0
C413 C 0.81332 0.51047 0.26214 0.0
C414 C 0.82324 0.53565 0.26708 0.0
C415 C 0.81698 0.55673 0.25016 0.0
C416 C 0.8013 0.55226 0.22789 0.0
H417 H 0.55433 0.75451 0.22698 0.0
H418 H 0.55038 0.78619 0.14805 0.0
H419 H 0.5129 0.81409 0.16128 0.0
H420 H 0.48278 0.75329 0.23792 0.0
H421 H 0.48548 0.76188 0.27205 0.0
H422 H 0.51165 0.74394 0.2562 0.0
H423 H 0.54488 0.77952 0.27031 0.0
H424 H 0.51873 0.79776 0.28585 0.0
H425 H 0.53902 0.81312 0.26118 0.0
H426 H 0.47801 0.84108 0.18378 0.0
H427 H 0.44347 0.86022 0.21204 0.0
H428 H 0.46808 0.80973 0.27601 0.0
C429 C 0.54528 0.76696 0.21234 0.0
C430 C 0.55535 0.768 0.18636 0.0
C431 C 0.54298 0.78476 0.16794 0.0
C432 C 0.52178 0.80091 0.17535 0.0
C433 C 0.51286 0.79995 0.20122 0.0
C434 C 0.52382 0.78301 0.21932 0.0
C435 C 0.51005 0.78549 0.24574 0.0
C436 C 0.49669 0.75961 0.25342 0.0
C437 C 0.52933 0.79451 0.26702 0.0
C438 C 0.48986 0.80664 0.2397 0.0
C439 C 0.49208 0.81492 0.21398 0.0
C440 C 0.47597 0.83462 0.2039 0.0
C441 C 0.45653 0.84558 0.22024 0.0
C442 C 0.45305 0.83668 0.24637 0.0
C443 C 0.47029 0.81716 0.25623 0.0
H444 H 0.22785 0.46937 0.82751 0.0
H445 H 0.27707 0.43979 0.76444 0.0
H446 H 0.26143 0.47546 0.73557 0.0
H447 H 0.17312 0.48489 0.78791 0.0
H448 H 0.164 0.51409 0.80554 0.0
H449 H 0.18097 0.48795 0.8222 0.0
H450 H 0.21774 0.51986 0.83642 0.0
H451 H 0.20063 0.54625 0.82027 0.0
H452 H 0.23447 0.53924 0.81195 0.0
H453 H 0.24031 0.51457 0.71351 0.0
H454 H 0.21527 0.55409 0.70013 0.0
H455 H 0.17668 0.55557 0.77606 0.0
C456 C 0.23588 0.47085 0.80786 0.0
C457 C 0.2541 0.45211 0.79837 0.0
C458 C 0.26342 0.45417 0.77223 0.0
C459 C 0.25454 0.47428 0.75564 0.0
C460 C 0.23603 0.49202 0.76535 0.0
C461 C 0.22683 0.49054 0.79087 0.0
C462 C 0.20603 0.51128 0.79606 0.0
C463 C 0.17946 0.4988 0.80335 0.0
C464 C 0.21527 0.53029 0.81744 0.0
C465 C 0.20485 0.52457 0.76945 0.0
C466 C 0.22254 0.51336 0.75209 0.0
C467 C 0.22612 0.52327 0.72681 0.0
C468 C 0.2117 0.54556 0.71928 0.0
C469 C 0.19342 0.55727 0.73669 0.0
C470 C 0.18973 0.54635 0.76196 0.0
H471 H 0.54695 0.27057 0.83407 0.0
H472 H 0.60737 0.22858 0.79087 0.0
H473 H 0.57321 0.20409 0.76707 0.0
H474 H 0.50093 0.21654 0.83973 0.0
H475 H 0.47205 0.23661 0.83511 0.0
H476 H 0.50124 0.25042 0.84941 0.0
H477 H 0.5017 0.28653 0.81367 0.0
H478 H 0.47252 0.27278 0.7993 0.0
H479 H 0.50173 0.27733 0.77957 0.0
H480 H 0.53276 0.18246 0.74945 0.0
H481 H 0.48818 0.16774 0.73655 0.0
H482 H 0.45343 0.22605 0.78778 0.0
C483 C 0.55282 0.25625 0.81955 0.0
C484 C 0.57974 0.25136 0.81424 0.0
C485 C 0.58681 0.23255 0.79513 0.0
C486 C 0.56756 0.21852 0.78155 0.0
C487 C 0.54118 0.22371 0.78705 0.0
C488 C 0.5337 0.24227 0.80538 0.0
C489 C 0.50386 0.24429 0.80697 0.0
C490 C 0.49394 0.2365 0.83444 0.0
C491 C 0.4944 0.27187 0.79942 0.0
C492 C 0.4959 0.2242 0.78657 0.0
C493 C 0.51776 0.21223 0.77567 0.0
C494 C 0.51547 0.19196 0.75753 0.0
C495 C 0.49014 0.18372 0.7503 0.0
C496 C 0.46751 0.19615 0.76067 0.0
C497 C 0.47048 0.21671 0.77897 0.0
H498 H 0.78945 0.56381 0.80694 0.0
H499 H 0.71559 0.53452 0.83795 0.0
H500 H 0.72474 0.49127 0.8179 0.0
H501 H 0.78757 0.52964 0.74541 0.0
H502 H 0.82243 0.52284 0.7444 0.0
H503 H 0.81033 0.55138 0.7613 0.0
H504 H 0.83371 0.53635 0.80378 0.0
H505 H 0.84614 0.50795 0.78689 0.0
H506 H 0.82732 0.50412 0.81671 0.0
H507 H 0.74106 0.45214 0.79377 0.0
H508 H 0.76513 0.41758 0.77029 0.0
H509 H 0.82963 0.47135 0.75534 0.0
C510 C 0.77544 0.54809 0.80969 0.0
C511 C 0.75194 0.55212 0.82415 0.0
C512 C 0.73378 0.5315 0.82716 0.0
C513 C 0.73877 0.50703 0.81573 0.0
C514 C 0.76199 0.50365 0.80135 0.0
C515 C 0.7802 0.52349 0.79848 0.0
C516 C 0.80373 0.5145 0.78227 0.0
C517 C 0.80614 0.53055 0.75684 0.0
C518 C 0.82923 0.51579 0.79838 0.0
C519 C 0.79594 0.48642 0.77661 0.0
C520 C 0.77164 0.48079 0.78759 0.0
C521 C 0.76011 0.45629 0.78512 0.0
C522 C 0.77395 0.43679 0.7716 0.0
C523 C 0.79928 0.44167 0.76085 0.0
C524 C 0.81023 0.46701 0.76313 0.0
H525 H 0.5629 0.79048 0.78674 0.0
H526 H 0.53208 0.82885 0.71747 0.0
H527 H 0.48717 0.81323 0.72891 0.0
H528 H 0.52033 0.73416 0.78781 0.0
H529 H 0.51618 0.73415 0.82292 0.0
H530 H 0.546 0.74681 0.80847 0.0
H531 H 0.53881 0.79079 0.83253 0.0
H532 H 0.50903 0.77826 0.84714 0.0
H533 H 0.50815 0.80822 0.82844 0.0
H534 H 0.44668 0.7915 0.74659 0.0
H535 H 0.41117 0.77119 0.77262 0.0
H536 H 0.46703 0.75156 0.83376 0.0
C537 C 0.54663 0.79535 0.77391 0.0
C538 C 0.55072 0.81036 0.75095 0.0
C539 C 0.52915 0.81711 0.73494 0.0
C540 C 0.50372 0.80828 0.74128 0.0
C541 C 0.50031 0.79335 0.76402 0.0
C542 C 0.52106 0.78741 0.78042 0.0
C543 C 0.51173 0.7727 0.80464 0.0
C544 C 0.52431 0.74533 0.80603 0.0
C545 C 0.51725 0.78844 0.82966 0.0
C546 C 0.48243 0.77105 0.7992 0.0
C547 C 0.47647 0.78262 0.77537 0.0
C548 C 0.45105 0.7826 0.76536 0.0
C549 C 0.43108 0.77082 0.7802 0.0
C550 C 0.43642 0.75974 0.8051 0.0
C551 C 0.46245 0.75991 0.81478 0.0
H552 H 0.22067 0.25142 0.55809 0.0
H553 H 0.13872 0.23862 0.53811 0.0
H554 H 0.1528 0.21346 0.49908 0.0
H555 H 0.24725 0.25798 0.49251 0.0
H556 H 0.2769 0.23994 0.49989 0.0
H557 H 0.26024 0.25797 0.52535 0.0
H558 H 0.25746 0.21576 0.55345 0.0
H559 H 0.2738 0.19752 0.52789 0.0
H560 H 0.24212 0.18708 0.54001 0.0
H561 H 0.17563 0.18741 0.46405 0.0
H562 H 0.20568 0.16619 0.43227 0.0
H563 H 0.27306 0.19664 0.47399 0.0
C564 C 0.20565 0.24399 0.54511 0.0
C565 C 0.1785 0.24745 0.55088 0.0
C566 C 0.15955 0.23654 0.53389 0.0
C567 C 0.16739 0.22206 0.5118 0.0
C568 C 0.19427 0.2184 0.50713 0.0
C569 C 0.21313 0.22921 0.52317 0.0
C570 C 0.24072 0.22154 0.51428 0.0
C571 C 0.25724 0.24581 0.50759 0.0
C572 C 0.25432 0.20448 0.53515 0.0
C573 C 0.23447 0.20562 0.49005 0.0
C574 C 0.2075 0.2035 0.48676 0.0
C575 C 0.19674 0.18899 0.46642 0.0
C576 C 0.21394 0.1768 0.44864 0.0
C577 C 0.24156 0.17948 0.45103 0.0
C578 C 0.252 0.19406 0.47201 0.0
H579 H 0.78532 0.1703 0.5339 0.0
H580 H 0.72941 0.22999 0.55805 0.0
H581 H 0.74422 0.25833 0.52158 0.0
H582 H 0.83728 0.21423 0.51777 0.0
H583 H 0.84893 0.19573 0.48997 0.0
H584 H 0.83269 0.1793 0.51679 0.0
H585 H 0.79859 0.1597 0.48478 0.0
H586 H 0.81493 0.17576 0.4578 0.0
H587 H 0.78026 0.18118 0.46348 0.0
H588 H 0.76438 0.27973 0.48158 0.0
H589 H 0.78937 0.29288 0.44176 0.0
H590 H 0.83503 0.22132 0.44635 0.0
C591 C 0.77586 0.18912 0.53118 0.0
C592 C 0.75591 0.19778 0.54856 0.0
C593 C 0.74452 0.22285 0.5448 0.0
C594 C 0.75287 0.23912 0.52419 0.0
C595 C 0.77291 0.23023 0.50769 0.0
C596 C 0.78431 0.20584 0.51098 0.0
C597 C 0.80616 0.20138 0.49111 0.0
C598 C 0.83284 0.19743 0.50473 0.0
C599 C 0.79959 0.17813 0.47323 0.0
C600 C 0.8053 0.22707 0.47618 0.0
C601 C 0.78576 0.24333 0.48585 0.0
C602 C 0.78005 0.26738 0.47413 0.0
C603 C 0.79439 0.27479 0.45168 0.0
C604 C 0.81467 0.25857 0.44172 0.0
C605 C 0.82034 0.23456 0.45431 0.0
H606 H 0.74735 0.80724 0.46129 0.0
H607 H 0.80478 0.86732 0.443 0.0
H608 H 0.83374 0.85039 0.47792 0.0
H609 H 0.75723 0.81047 0.53265 0.0
H610 H 0.75216 0.77587 0.53717 0.0
H611 H 0.73601 0.79283 0.51071 0.0
H612 H 0.75646 0.76 0.47774 0.0
H613 H 0.77308 0.74326 0.50404 0.0
H614 H 0.79173 0.75575 0.4766 0.0
H615 H 0.85812 0.82477 0.51214 0.0
H616 H 0.87274 0.79774 0.54953 0.0
H617 H 0.79815 0.75648 0.54866 0.0
C618 C 0.76582 0.81709 0.46499 0.0
C619 C 0.77377 0.8387 0.4495 0.0
C620 C 0.79811 0.851 0.45484 0.0
C621 C 0.81484 0.84133 0.47444 0.0
C622 C 0.80675 0.81963 0.48892 0.0
C623 C 0.78251 0.8081 0.485 0.0
C624 C 0.77813 0.78577 0.50421 0.0
C625 C 0.75448 0.79159 0.52226 0.0
C626 C 0.77465 0.75965 0.48977 0.0
C627 C 0.80389 0.78633 0.51922 0.0
C628 C 0.82027 0.80573 0.50973 0.0
C629 C 0.84536 0.80969 0.51994 0.0
C630 C 0.8536 0.79406 0.54103 0.0
C631 C 0.83664 0.77498 0.55203 0.0
C632 C 0.81159 0.77087 0.54065 0.0
H633 H 0.16422 0.74082 0.46249 0.0
H634 H 0.23087 0.75476 0.41082 0.0
H635 H 0.25424 0.7771 0.44656 0.0
H636 H 0.16706 0.80029 0.49841 0.0
H637 H 0.15948 0.78582 0.5298 0.0
H638 H 0.14751 0.77096 0.5002 0.0
H639 H 0.16992 0.72703 0.51283 0.0
H640 H 0.18157 0.74164 0.54269 0.0
H641 H 0.20461 0.72658 0.52031 0.0
H642 H 0.26891 0.80118 0.48717 0.0
H643 H 0.2769 0.81836 0.5318 0.0
H644 H 0.20304 0.78478 0.55827 0.0
C645 C 0.18389 0.7482 0.45893 0.0
C646 C 0.19586 0.74581 0.43402 0.0
C647 C 0.22156 0.7559 0.42994 0.0
C648 C 0.23489 0.7689 0.45004 0.0
C649 C 0.22252 0.77118 0.47433 0.0
C650 C 0.1979 0.76054 0.47908 0.0
C651 C 0.1896 0.76472 0.50733 0.0
C652 C 0.16442 0.78144 0.50902 0.0
C653 C 0.18623 0.73842 0.52163 0.0
C654 C 0.2132 0.77948 0.51758 0.0
C655 C 0.23177 0.78351 0.49812 0.0
C656 C 0.25471 0.79773 0.50269 0.0
C657 C 0.25905 0.80748 0.52802 0.0
C658 C 0.2408 0.80245 0.54849 0.0
C659 C 0.21754 0.78847 0.54307 0.0
H660 H 0.67357 0.94261 0.71461 0.0
H661 H 0.70885 0.94521 0.79173 0.0
H662 H 0.73313 0.9853 0.77915 0.0
H663 H 0.73242 0.96124 0.68038 0.0
H664 H 0.71564 0.98005 0.65558 0.0
H665 H 0.69925 0.95291 0.67118 0.0
H666 H 0.66064 0.98319 0.68507 0.0
H667 H 0.67669 0.01032 0.66914 0.0
H668 H 0.66748 0.01258 0.70324 0.0
H669 H 0.75298 0.02534 0.75832 0.0
H670 H 0.76784 0.06213 0.73049 0.0
H671 H 0.72313 0.03127 0.66536 0.0
C672 C 0.68592 0.95206 0.72899 0.0
C673 C 0.68887 0.94134 0.75438 0.0
C674 C 0.70602 0.95348 0.77237 0.0
C675 C 0.71995 0.97614 0.76534 0.0
C676 C 0.71702 0.98599 0.74 0.0
C677 C 0.70057 0.97428 0.72203 0.0
C678 C 0.70214 0.98796 0.69562 0.0
C679 C 0.71301 0.96943 0.67444 0.0
C680 C 0.67513 0.99919 0.68782 0.0
C681 C 0.72164 0.00951 0.70169 0.0
C682 C 0.72989 0.00804 0.72744 0.0
C683 C 0.74691 0.02649 0.73804 0.0
C684 C 0.75533 0.04725 0.72207 0.0
C685 C 0.74709 0.04923 0.69565 0.0
C686 C 0.73035 0.02983 0.68526 0.0
H687 H 0.97409 0.71922 0.67131 0.0
H688 H 0.94608 0.76308 0.73864 0.0
H689 H 0.98177 0.74425 0.76551 0.0
H690 H 0.9897 0.66108 0.70626 0.0
H691 H 0.01884 0.65345 0.68739 0.0
H692 H 0.9924 0.67183 0.67267 0.0
H693 H 0.02472 0.70915 0.66075 0.0
H694 H 0.05136 0.69074 0.67509 0.0
H695 H 0.04456 0.72356 0.68609 0.0
H696 H 0.01984 0.72025 0.78533 0.0
H697 H 0.05882 0.69348 0.79654 0.0
H698 H 0.06095 0.66301 0.71727 0.0
C699 C 0.97589 0.72531 0.69153 0.0
C700 C 0.95755 0.74292 0.70281 0.0
C701 C 0.96008 0.74983 0.72955 0.0
C702 C 0.98021 0.73915 0.745 0.0
C703 C 0.99754 0.72133 0.73352 0.0
C704 C 0.9957 0.71449 0.7074 0.0
C705 C 0.0164 0.69422 0.70022 0.0
C706 C 1.00355 0.66863 0.6911 0.0
C707 C 0.03539 0.70507 0.6793 0.0
C708 C 0.03003 0.69064 0.72642 0.0
C709 C 0.0189 0.70661 0.74529 0.0
C710 C 0.0286 0.70751 0.77078 0.0
C711 C 0.05064 0.69212 0.77702 0.0
C712 C 0.06255 0.67574 0.75799 0.0
C713 C 0.0518 0.67475 0.73246 0.0
H714 H 0.34402 0.03506 0.77242 0.0
H715 H 0.28904 0.09108 0.73918 0.0
H716 H 0.2685 0.05605 0.71342 0.0
H717 H 0.35392 0.99579 0.71707 0.0
H718 H 0.35362 0.96484 0.73409 0.0
H719 H 0.3636 0.99401 0.751 0.0
H720 H 0.32803 0.98578 0.78672 0.0
H721 H 0.31814 0.95643 0.76998 0.0
H722 H 0.29417 0.98154 0.77714 0.0
H723 H 0.25726 0.01638 0.68758 0.0
H724 H 0.25122 0.9727 0.66814 0.0
H725 H 0.3102 0.94084 0.72078 0.0
C726 C 0.32734 0.03974 0.76011 0.0
C727 C 0.31802 0.06572 0.75791 0.0
C728 C 0.29622 0.07123 0.74149 0.0
C729 C 0.28454 0.0515 0.7266 0.0
C730 C 0.29439 0.02618 0.72884 0.0
C731 C 0.31478 0.02003 0.74568 0.0
C732 C 0.32105 0.99099 0.74469 0.0
C733 C 0.34975 0.98614 0.7362 0.0
C734 C 0.31498 0.97791 0.77121 0.0
C735 C 0.30186 0.98214 0.72383 0.0
C736 C 0.28677 0.00283 0.7149 0.0
C737 C 0.26863 0.99991 0.69472 0.0
C738 C 0.26549 0.97508 0.68366 0.0
C739 C 0.28015 0.9534 0.69302 0.0
C740 C 0.29857 0.95703 0.71339 0.0
H741 H 0.05805 0.27636 0.6612 0.0
H742 H 0.07028 0.21139 0.71474 0.0
H743 H 0.03158 0.22544 0.74063 0.0
H744 H 0.04006 0.32283 0.70998 0.0
H745 H 0.01541 0.33914 0.69051 0.0
H746 H 0.04286 0.32312 0.67473 0.0
H747 H 0.0107 0.29525 0.64719 0.0
H748 H 0.98319 0.31145 0.66271 0.0
H749 H 0.98566 0.27628 0.6636 0.0
H750 H 0.99237 0.24653 0.76121 0.0
H751 H 0.95428 0.27335 0.77507 0.0
H752 H 0.96828 0.32644 0.71003 0.0
C753 C 0.05215 0.26471 0.67797 0.0
C754 C 0.06693 0.24242 0.68566 0.0
C755 C 0.05907 0.22825 0.70826 0.0
C756 C 0.03719 0.23616 0.72317 0.0
C757 C 0.02343 0.25847 0.71543 0.0
C758 C 0.03048 0.27257 0.69335 0.0
C759 C 0.01278 0.29641 0.69005 0.0
C760 C 0.02874 0.32188 0.6914 0.0
C761 C 0.99715 0.29474 0.66436 0.0
C762 C 0.99482 0.29349 0.71377 0.0
C763 C 1.00127 0.27135 0.728 0.0
C764 C 0.98717 0.26396 0.75029 0.0
C765 C 0.96561 0.27934 0.75804 0.0
C766 C 0.95854 0.30208 0.74382 0.0
C767 C 0.97357 0.30941 0.72156 0.0
H768 H 0.75466 0.96183 0.28276 0.0
H769 H 0.72805 0.97091 0.36324 0.0
H770 H 0.70005 0.00808 0.34987 0.0
H771 H 0.75656 0.03262 0.2679 0.0
H772 H 0.74585 0.02795 0.2346 0.0
H773 H 0.76463 0.00279 0.25085 0.0
H774 H 0.72768 0.96952 0.24076 0.0
H775 H 0.70847 0.99473 0.22507 0.0
H776 H 0.69452 0.97614 0.25178 0.0
H777 H 0.67134 0.04086 0.32717 0.0
H778 H 0.65085 0.07391 0.29855 0.0
H779 H 0.69811 0.04623 0.23302 0.0
C780 C 0.74345 0.97206 0.29769 0.0
C781 C 0.74364 0.96346 0.32412 0.0
C782 C 0.7285 0.97726 0.34298 0.0
C783 C 0.71227 0.99823 0.3355 0.0
C784 C 0.7117 0.00548 0.30916 0.0
C785 C 0.72745 0.99337 0.29064 0.0
C786 C 0.72347 0.00549 0.26372 0.0
C787 C 0.74915 0.01796 0.25368 0.0
C788 C 0.71291 0.98525 0.24419 0.0
C789 C 0.70278 0.02608 0.26998 0.0
C790 C 0.69596 0.02534 0.29623 0.0
C791 C 0.67673 0.04183 0.30664 0.0
C792 C 0.66493 0.06035 0.29008 0.0
C793 C 0.6727 0.06263 0.26344 0.0
C794 C 0.69158 0.04487 0.25322 0.0
H795 H 0.96428 0.67906 0.29115 0.0
H796 H 0.94396 0.73885 0.23431 0.0
H797 H 0.98379 0.76381 0.2464 0.0
H798 H 0.98489 0.72352 0.34011 0.0
H799 H 0.01122 0.70325 0.35242 0.0
H800 H 0.98295 0.68843 0.33737 0.0
H801 H 0.01316 0.66434 0.30423 0.0
H802 H 0.0416 0.67871 0.31943 0.0
H803 H 0.03629 0.68284 0.28475 0.0
H804 H 0.02473 0.78294 0.26567 0.0
H805 H 0.06456 0.79497 0.29038 0.0
H806 H 0.0569 0.72439 0.33724 0.0
C807 C 0.96871 0.69706 0.2808 0.0
C808 C 0.95148 0.70687 0.2614 0.0
C809 C 0.9572 0.73094 0.24895 0.0
C810 C 0.97969 0.74524 0.25576 0.0
C811 C 0.99594 0.73545 0.27548 0.0
C812 C 0.99076 0.71193 0.28787 0.0
C813 C 0.01043 0.70675 0.30963 0.0
C814 C 0.99653 0.70541 0.33647 0.0
C815 C 0.02632 0.68168 0.30417 0.0
C816 C 0.02755 0.73097 0.30744 0.0
C817 C 0.01887 0.74717 0.28752 0.0
C818 C 0.03165 0.77048 0.2814 0.0
C819 C 0.05417 0.77723 0.29567 0.0
C820 C 0.06364 0.76091 0.31607 0.0
C821 C 0.04986 0.73761 0.32217 0.0
H822 H 0.29091 0.92994 0.27178 0.0
H823 H 0.35573 0.96086 0.2257 0.0
H824 H 0.3419 0.00594 0.23734 0.0
H825 H 0.2428 0.98217 0.25979 0.0
H826 H 0.23057 0.98186 0.29302 0.0
H827 H 0.24365 0.95234 0.2787 0.0
H828 H 0.27656 0.94788 0.31708 0.0
H829 H 0.26365 0.97741 0.33147 0.0
H830 H 0.29837 0.97463 0.32436 0.0
H831 H 0.32083 0.04727 0.25349 0.0
H832 H 0.29747 0.08246 0.27707 0.0
H833 H 0.24942 0.02494 0.31747 0.0
C834 C 0.30172 0.94628 0.26356 0.0
C835 C 0.32388 0.94207 0.24707 0.0
C836 C 0.33836 0.96377 0.23778 0.0
C837 C 0.33065 0.98937 0.24436 0.0
C838 C 0.30883 0.99285 0.26078 0.0
C839 C 0.29478 0.97191 0.2706 0.0
C840 C 0.2736 0.98095 0.28978 0.0
C841 C 0.24602 0.97391 0.27971 0.0
C842 C 0.27834 0.96954 0.3173 0.0
C843 C 0.27794 0.01032 0.28923 0.0
C844 C 0.29801 0.01669 0.2719 0.0
C845 C 0.3052 0.04251 0.26717 0.0
C846 C 0.29171 0.06236 0.28057 0.0
C847 C 0.27166 0.0564 0.29902 0.0
C848 C 0.26474 0.02999 0.30352 0.0
H849 H 0.04518 0.29884 0.23636 0.0
H850 H 0.06725 0.35836 0.2925 0.0
H851 H 0.03251 0.3429 0.32273 0.0
H852 H 0.97324 0.3043 0.25047 0.0
H853 H 0.96795 0.26987 0.24531 0.0
H854 H 0.99373 0.28657 0.22763 0.0
H855 H 0.02763 0.25289 0.24514 0.0
H856 H 1.00206 0.23639 0.26324 0.0
H857 H 0.03086 0.24812 0.28002 0.0
H858 H 0.99798 0.3185 0.34853 0.0
H859 H 0.96153 0.2912 0.36538 0.0
H860 H 0.96046 0.24869 0.29183 0.0
C861 C 0.04223 0.30902 0.25473 0.0
C862 C 0.05878 0.32999 0.26195 0.0
C863 C 0.0545 0.34262 0.2863 0.0
C864 C 0.035 0.33378 0.30376 0.0
C865 C 0.01953 0.3126 0.29639 0.0
C866 C 0.02241 0.30082 0.27218 0.0
C867 C 1.00273 0.27881 0.26889 0.0
C868 C 0.98325 0.28527 0.24677 0.0
C869 C 0.01667 0.2525 0.26405 0.0
C870 C 0.98919 0.27932 0.29547 0.0
C871 C 0.99915 0.29897 0.31102 0.0
C872 C 0.98986 0.30318 0.33644 0.0
C873 C 0.96928 0.28742 0.34593 0.0
C874 C 0.95818 0.26765 0.33007 0.0
C875 C 0.96865 0.26341 0.30463 0.0
H876 H 0.72515 0.72119 0.94002 0.0
H877 H 0.78739 0.6713 0.96997 0.0
H878 H 0.77743 0.68652 0.0151 0.0
H879 H 0.73139 0.7752 0.98553 0.0
H880 H 0.69632 0.78002 0.98883 0.0
H881 H 0.70982 0.76701 0.95882 0.0
H882 H 0.67934 0.72669 0.96295 0.0
H883 H 0.66576 0.73953 0.99298 0.0
H884 H 0.6801 0.70723 0.99247 0.0
H885 H 0.76154 0.70821 0.05646 0.0
H886 H 0.73747 0.73006 0.09231 0.0
H887 H 0.68175 0.76206 0.0364 0.0
C888 C 0.73702 0.71389 0.95607 0.0
C889 C 0.75758 0.69563 0.95155 0.0
C890 C 0.77193 0.68564 0.97305 0.0
C891 C 0.76638 0.69419 0.99867 0.0
C892 C 0.74597 0.71221 1.00247 0.0
C893 C 0.73118 0.72159 0.98182 0.0
C894 C 0.70891 0.7391 0.99148 0.0
C895 C 0.7118 0.76699 0.98051 0.0
C896 C 0.68194 0.72743 0.98456 0.0
C897 C 0.71367 0.73842 0.02082 0.0
C898 C 0.73545 0.72312 0.0266 0.0
C899 C 0.74441 0.72011 0.05216 0.0
C900 C 0.73068 0.73279 0.07238 0.0
C901 C 0.70781 0.74792 0.06717 0.0
C902 C 0.69917 0.75067 0.04098 0.0
H903 H 0.26169 0.72328 0.05283 0.0
H904 H 0.27593 0.64282 0.0295 0.0
H905 H 0.30273 0.65837 0.99211 0.0
H906 H 0.25604 0.75085 0.9879 0.0
H907 H 0.27295 0.78062 0.99626 0.0
H908 H 0.25481 0.76305 0.02103 0.0
H909 H 0.29676 0.76106 0.04967 0.0
H910 H 0.31522 0.77813 0.02472 0.0
H911 H 0.32648 0.74678 0.03645 0.0
H912 H 0.33028 0.68226 0.95922 0.0
H913 H 0.35016 0.71302 0.92764 0.0
H914 H 0.31591 0.77831 0.97003 0.0
C915 C 0.27002 0.70891 0.03959 0.0
C916 C 0.26659 0.68175 0.04407 0.0
C917 C 0.27816 0.66366 0.02645 0.0
C918 C 0.29362 0.67232 0.00528 0.0
C919 C 0.29733 0.69913 1.00198 0.0
C920 C 0.28549 0.71721 0.01832 0.0
C921 C 0.29245 0.74494 0.01014 0.0
C922 C 0.26758 0.76079 0.00342 0.0
C923 C 0.30868 0.75853 0.03152 0.0
C924 C 0.30925 0.73962 0.98603 0.0
C925 C 0.31251 0.71303 0.98231 0.0
C926 C 0.32784 0.70312 0.96192 0.0
C927 C 0.33938 0.72079 0.94429 0.0
C928 C 0.33501 0.74806 0.9467 0.0
C929 C 0.31994 0.7576 0.96803 0.0
H930 H 0.24053 0.34241 0.97542 0.0
H931 H 0.26375 0.27972 0.9229 0.0
H932 H 0.2846 0.2563 0.95963 0.0
H933 H 0.29731 0.34164 0.01641 0.0
H934 H 0.27944 0.34677 0.0466 0.0
H935 H 0.26632 0.35899 0.01618 0.0
H936 H 0.223 0.33346 0.02444 0.0
H937 H 0.23602 0.32127 0.05495 0.0
H938 H 0.22445 0.29873 0.03049 0.0
H939 H 0.30567 0.24108 1.00107 0.0
H940 H 0.32123 0.2324 0.04606 0.0
H941 H 0.28122 0.30251 0.07317 0.0
C942 C 0.24975 0.32363 0.97182 0.0
C943 C 0.25035 0.3128 0.94636 0.0
C944 C 0.26267 0.2882 0.94232 0.0
C945 C 0.27477 0.27481 0.96302 0.0
C946 C 0.27394 0.28598 0.98784 0.0
C947 C 0.26134 0.30955 0.99251 0.0
C948 C 0.26263 0.31661 0.02136 0.0
C949 C 0.27731 0.34254 0.02536 0.0
C950 C 0.23487 0.31757 0.03353 0.0
C951 C 0.27833 0.29361 0.03196 0.0
C952 C 0.28488 0.27634 0.01219 0.0
C953 C 0.30032 0.25423 0.01682 0.0
C954 C 0.30911 0.2495 0.04241 0.0
C955 C 0.30213 0.26657 0.06313 0.0
C956 C 0.28647 0.28887 0.05778 0.0
H957 H 0.71325 0.33042 0.02892 0.0
H958 H 0.75592 0.26473 0.06225 0.0
H959 H 0.73862 0.23598 0.0276 0.0
H960 H 0.65535 0.29423 0.01249 0.0
H961 H 0.6492 0.31169 0.98237 0.0
H962 H 0.66593 0.32768 0.00893 0.0
H963 H 0.70538 0.33842 0.97836 0.0
H964 H 0.68853 0.32297 0.95159 0.0
H965 H 0.72124 0.31239 0.96038 0.0
H966 H 0.71692 0.21432 0.98928 0.0
H967 H 0.694 0.20182 0.94858 0.0
H968 H 0.66319 0.28072 0.94136 0.0
C969 C 0.71933 0.3101 0.02859 0.0
C970 C 0.73619 0.29986 0.04811 0.0
C971 C 0.74317 0.27302 0.0474 0.0
C972 C 0.73334 0.2565 0.02786 0.0
C973 C 0.71624 0.26701 0.00931 0.0
C974 C 0.70935 0.29319 0.0094 0.0
C975 C 0.69021 0.29934 0.98745 0.0
C976 C 0.66359 0.3088 0.99848 0.0
C977 C 0.70205 0.31946 0.96831 0.0
C978 C 0.68768 0.2726 0.97483 0.0
C979 C 0.70284 0.25423 0.98781 0.0
C980 C 0.70475 0.22846 0.97912 0.0
C981 C 0.69151 0.22147 0.95609 0.0
C982 C 0.6763 0.24007 0.94212 0.0
C983 C 0.67393 0.26582 0.95205 0.0
H984 H 0.18264 0.28277 0.26706 0.0
H985 H 0.15605 0.32076 0.33829 0.0
H986 H 0.16151 0.27864 0.36247 0.0
H987 H 0.14802 0.22366 0.2775 0.0
H988 H 0.17328 0.20341 0.263 0.0
H989 H 0.16914 0.23673 0.25217 0.0
H990 H 0.21798 0.24744 0.26297 0.0
H991 H 0.22199 0.21365 0.27185 0.0
H992 H 0.23068 0.23894 0.29486 0.0
H993 H 0.16927 0.23168 0.37769 0.0
H994 H 0.18589 0.1868 0.38477 0.0
H995 H 0.20402 0.18005 0.30204 0.0
C996 C 0.1785 0.28238 0.28793 0.0
C997 C 0.16921 0.30484 0.30104 0.0
C998 C 0.1637 0.30374 0.32817 0.0
C999 C 0.16629 0.27986 0.34181 0.0
C1000 C 0.17404 0.25761 0.32775 0.0
C1001 C 0.18044 0.25891 0.30148 0.0
C1002 C 0.18815 0.23261 0.29047 0.0
C1003 C 0.16846 0.22359 0.26955 0.0
C1004 C 0.21641 0.23323 0.27944 0.0
C1005 C 0.18608 0.21605 0.3149 0.0
C1006 C 0.17742 0.2307 0.33612 0.0
C1007 C 0.17572 0.22002 0.36118 0.0
C1008 C 0.18481 0.19438 0.36494 0.0
C1009 C 0.1956 0.17985 0.34379 0.0
C1010 C 0.19488 0.19032 0.31828 0.0
H1011 H 0.83229 0.19779 0.30894 0.0
H1012 H 0.8304 0.1616 0.38556 0.0
H1013 H 0.78752 0.14115 0.375 0.0
H1014 H 0.76894 0.21841 0.31489 0.0
H1015 H 0.7608 0.21673 0.2806 0.0
H1016 H 0.79433 0.22199 0.29037 0.0
H1017 H 0.81002 0.18135 0.26428 0.0
H1018 H 0.77669 0.17665 0.25338 0.0
H1019 H 0.79396 0.15033 0.26954 0.0
H1020 H 0.74094 0.13114 0.35826 0.0
H1021 H 0.6979 0.12908 0.3351 0.0
H1022 H 0.73012 0.17693 0.27253 0.0
C1023 C 0.82381 0.18389 0.32265 0.0
C1024 C 0.83518 0.18005 0.34749 0.0
C1025 C 0.82254 0.1636 0.36594 0.0
C1026 C 0.79794 0.15239 0.36026 0.0
C1027 C 0.78615 0.15848 0.33633 0.0
C1028 C 0.79886 0.17378 0.31776 0.0
C1029 C 0.7806 0.18162 0.2958 0.0
C1030 C 0.77591 0.21144 0.29541 0.0
C1031 C 0.79093 0.17187 0.26918 0.0
C1032 C 0.756 0.16744 0.3042 0.0
C1033 C 0.75922 0.15441 0.32772 0.0
C1034 C 0.73836 0.14103 0.33966 0.0
C1035 C 0.71395 0.1402 0.32662 0.0
C1036 C 0.71094 0.15268 0.30205 0.0
C1037 C 0.73207 0.16687 0.29116 0.0
H1038 H 0.85997 0.70676 0.32881 0.0
H1039 H 0.79327 0.68647 0.27982 0.0
H1040 H 0.77594 0.73131 0.28467 0.0
H1041 H 0.81836 0.75115 0.37215 0.0
H1042 H 0.84567 0.77288 0.37761 0.0
H1043 H 0.85155 0.73848 0.3726 0.0
H1044 H 0.88355 0.75014 0.33463 0.0
H1045 H 0.87683 0.78451 0.33868 0.0
H1046 H 0.87169 0.76924 0.30732 0.0
H1047 H 0.77293 0.77954 0.28335 0.0
H1048 H 0.76928 0.8257 0.29685 0.0
H1049 H 0.83305 0.81433 0.35197 0.0
C1050 C 0.84142 0.71157 0.31953 0.0
C1051 C 0.82838 0.69327 0.30336 0.0
C1052 C 0.80389 0.70015 0.29197 0.0
C1053 C 0.79416 0.72567 0.29402 0.0
C1054 C 0.80891 0.74385 0.30769 0.0
C1055 C 0.83097 0.73687 0.32178 0.0
C1056 C 0.84156 0.7601 0.33687 0.0
C1057 C 0.83913 0.75538 0.36657 0.0
C1058 C 0.87011 0.76635 0.32888 0.0
C1059 C 0.8228 0.78137 0.32773 0.0
C1060 C 0.80469 0.77155 0.31025 0.0
C1061 C 0.78641 0.78744 0.29763 0.0
C1062 C 0.785 0.81374 0.30486 0.0
C1063 C 0.80122 0.82353 0.32502 0.0
C1064 C 0.82095 0.80742 0.336 0.0
H1065 H 0.33231 0.82104 0.33803 0.0
H1066 H 0.31095 0.90198 0.3258 0.0
H1067 H 0.26636 0.89332 0.343 0.0
H1068 H 0.27951 0.79703 0.31231 0.0
H1069 H 0.27465 0.76917 0.33347 0.0
H1070 H 0.30698 0.78267 0.32951 0.0
H1071 H 0.31101 0.78957 0.37965 0.0
H1072 H 0.27887 0.7752 0.38399 0.0
H1073 H 0.28556 0.8072 0.39704 0.0
H1074 H 0.22124 0.87319 0.34916 0.0
H1075 H 0.1819 0.8443 0.3496 0.0
H1076 H 0.23351 0.77689 0.35747 0.0
C1077 C 0.31894 0.8373 0.3412 0.0
C1078 C 0.32527 0.86232 0.33157 0.0
C1079 C 0.30672 0.88291 0.33413 0.0
C1080 C 0.28116 0.87804 0.34349 0.0
C1081 C 0.27463 0.85251 0.35052 0.0
C1082 C 0.29327 0.83259 0.35022 0.0
C1083 C 0.28051 0.80621 0.35437 0.0
C1084 C 0.28573 0.78773 0.33103 0.0
C1085 C 0.28952 0.79382 0.38031 0.0
C1086 C 0.25188 0.81426 0.35574 0.0
C1087 C 0.24865 0.84097 0.35376 0.0
C1088 C 0.22357 0.85228 0.35158 0.0
C1089 C 0.20134 0.83579 0.35167 0.0
C1090 C 0.20452 0.80836 0.3536 0.0
C1091 C 0.23018 0.79778 0.35608 0.0
H1092 H 0.1685 0.70389 0.6718 0.0
H1093 H 0.18433 0.71422 0.75485 0.0
H1094 H 0.19675 0.75953 0.74704 0.0
H1095 H 0.2237 0.74382 0.64863 0.0
H1096 H 0.20573 0.75821 0.62177 0.0
H1097 H 0.19712 0.72611 0.63356 0.0
H1098 H 0.1491 0.74201 0.64042 0.0
H1099 H 0.15786 0.77438 0.62936 0.0
H1100 H 0.14272 0.76987 0.66108 0.0
H1101 H 0.20398 0.80323 0.73285 0.0
H1102 H 0.21644 0.8436 0.71087 0.0
H1103 H 0.20151 0.8078 0.63507 0.0
C1104 C 0.17499 0.7157 0.68811 0.0
C1105 C 0.17499 0.70563 0.71402 0.0
C1106 C 0.18361 0.72162 0.73492 0.0
C1107 C 0.19065 0.74748 0.73077 0.0
C1108 C 0.18945 0.75724 0.70546 0.0
C1109 C 0.18257 0.742 0.68425 0.0
C1110 C 0.1843 0.7581 0.65908 0.0
C1111 C 0.2039 0.74582 0.63961 0.0
C1112 C 0.15687 0.76128 0.64676 0.0
C1113 C 0.19431 0.78413 0.66969 0.0
C1114 C 0.19595 0.78306 0.69666 0.0
C1115 C 0.20328 0.80435 0.71168 0.0
C1116 C 0.21028 0.82731 0.69885 0.0
C1117 C 0.21066 0.82884 0.67108 0.0
C1118 C 0.20205 0.80702 0.65625 0.0
H1119 H 0.29795 0.15707 0.73196 0.0
H1120 H 0.35203 0.181 0.67029 0.0
H1121 H 0.31387 0.18782 0.64058 0.0
H1122 H 0.24912 0.12423 0.69088 0.0
H1123 H 0.22199 0.1361 0.71048 0.0
H1124 H 0.25355 0.13 0.72541 0.0
H1125 H 0.2547 0.17759 0.74278 0.0
H1126 H 0.22306 0.18368 0.72832 0.0
H1127 H 0.25059 0.20439 0.7201 0.0
H1128 H 0.26987 0.19376 0.61885 0.0
H1129 H 0.22424 0.20693 0.60912 0.0
H1130 H 0.19927 0.181 0.68624 0.0
C1131 C 0.302 0.1633 0.71204 0.0
C1132 C 0.32807 0.16809 0.70323 0.0
C1133 C 0.33228 0.17704 0.67733 0.0
C1134 C 0.31076 0.18066 0.66033 0.0
C1135 C 0.28535 0.17532 0.66969 0.0
C1136 C 0.28095 0.16723 0.69512 0.0
C1137 C 0.25182 0.16567 0.70158 0.0
C1138 C 0.24365 0.13731 0.70743 0.0
C1139 C 0.24464 0.18393 0.72453 0.0
C1140 C 0.24025 0.17512 0.67599 0.0
C1141 C 0.25994 0.17973 0.65759 0.0
C1142 C 0.25436 0.19 0.63299 0.0
C1143 C 0.22834 0.19722 0.62759 0.0
C1144 C 0.20829 0.19463 0.64686 0.0
C1145 C 0.21406 0.18237 0.67092 0.0
H1146 H 0.81792 0.20198 0.63491 0.0
H1147 H 0.78828 0.1695 0.70789 0.0
H1148 H 0.79788 0.21106 0.73026 0.0
H1149 H 0.87202 0.24158 0.66619 0.0
H1150 H 0.86809 0.26757 0.64257 0.0
H1151 H 0.86152 0.23425 0.63332 0.0
H1152 H 0.81495 0.24847 0.61826 0.0
H1153 H 0.82093 0.2816 0.62848 0.0
H1154 H 0.79296 0.26402 0.64135 0.0
H1155 H 0.80281 0.25754 0.74245 0.0
H1156 H 0.81588 0.30349 0.74835 0.0
H1157 H 0.84665 0.30575 0.66893 0.0
C1158 C 0.8147 0.20326 0.65588 0.0
C1159 C 0.8027 0.18247 0.66982 0.0
C1160 C 0.79807 0.18494 0.69705 0.0
C1161 C 0.80301 0.20864 0.70979 0.0
C1162 C 0.81323 0.22931 0.6951 0.0
C1163 C 0.82015 0.22659 0.66906 0.0
C1164 C 0.83093 0.25202 0.65795 0.0
C1165 C 0.85987 0.24865 0.64952 0.0
C1166 C 0.81392 0.26211 0.63516 0.0
C1167 C 0.82838 0.26961 0.68172 0.0
C1168 C 0.8175 0.25611 0.70267 0.0
C1169 C 0.81183 0.26818 0.7264 0.0
C1170 C 0.81895 0.29433 0.72942 0.0
C1171 C 0.83196 0.30802 0.70901 0.0
C1172 C 0.8363 0.29576 0.68462 0.0
H1173 H 0.8114 0.83085 0.64842 0.0
H1174 H 0.83512 0.78105 0.71309 0.0
H1175 H 0.78974 0.78187 0.73038 0.0
H1176 H 0.76348 0.87118 0.68939 0.0
H1177 H 0.74156 0.87498 0.66193 0.0
H1178 H 0.77656 0.87232 0.65648 0.0
H1179 H 0.76789 0.8336 0.62497 0.0
H1180 H 0.73301 0.83526 0.63143 0.0
H1181 H 0.75071 0.80515 0.63701 0.0
H1182 H 0.74089 0.77989 0.73459 0.0
H1183 H 0.69368 0.79081 0.73806 0.0
H1184 H 0.70208 0.84744 0.67526 0.0
C1185 C 0.80734 0.82155 0.6671 0.0
C1186 C 0.82676 0.80618 0.67965 0.0
C1187 C 0.82068 0.79349 0.7036 0.0
C1188 C 0.79481 0.7933 0.7132 0.0
C1189 C 0.77563 0.80677 0.69912 0.0
C1190 C 0.78179 0.82199 0.67754 0.0
C1191 C 0.75741 0.83534 0.6667 0.0
C1192 C 0.75989 0.86523 0.66877 0.0
C1193 C 0.75196 0.82682 0.63835 0.0
C1194 C 0.7366 0.82475 0.68525 0.0
C1195 C 0.7475 0.80748 0.70309 0.0
C1196 C 0.73219 0.79384 0.72116 0.0
C1197 C 0.7053 0.79972 0.72257 0.0
C1198 C 0.69436 0.81966 0.70669 0.0
C1199 C 0.70992 0.83168 0.68714 0.0
H1200 H 0.29207 0.19829 0.3126 0.0
H1201 H 0.35063 0.13768 0.32309 0.0
H1202 H 0.37054 0.14911 0.28008 0.0
H1203 H 0.27818 0.18289 0.25 0.0
H1204 H 0.27203 0.2159 0.23894 0.0
H1205 H 0.26795 0.20762 0.27299 0.0
H1206 H 0.30056 0.24468 0.28549 0.0
H1207 H 0.30449 0.25257 0.25129 0.0
H1208 H 0.33297 0.24498 0.27085 0.0
H1209 H 0.38132 0.16516 0.23373 0.0
H1210 H 0.38035 0.18219 0.18812 0.0
H1211 H 0.30811 0.22402 0.20563 0.0
C1212 C 0.31014 0.18866 0.30652 0.0
C1213 C 0.32085 0.16817 0.32167 0.0
C1214 C 0.34318 0.15442 0.31234 0.0
C1215 C 0.35434 0.16059 0.2878 0.0
C1216 C 0.34247 0.18014 0.2727 0.0
C1217 C 0.3208 0.19394 0.28177 0.0
C1218 C 0.30901 0.21092 0.26046 0.0
C1219 C 0.28008 0.20388 0.25525 0.0
C1220 C 0.31194 0.24 0.26743 0.0
C1221 C 0.32653 0.20359 0.2376 0.0
C1222 C 0.34645 0.18675 0.24524 0.0
C1223 C 0.36575 0.1783 0.2276 0.0
C1224 C 0.36493 0.18785 0.20174 0.0
C1225 C 0.3443 0.20461 0.19353 0.0
C1226 C 0.32443 0.21177 0.21153 0.0
H1227 H 0.83795 0.32668 0.29938 0.0
H1228 H 0.8379 0.24354 0.28238 0.0
H1229 H 0.82863 0.25269 0.23613 0.0
H1230 H 0.78402 0.34284 0.25439 0.0
H1231 H 0.79825 0.37371 0.24482 0.0
H1232 H 0.80467 0.36046 0.27689 0.0
H1233 H 0.85477 0.36385 0.2675 0.0
H1234 H 0.84839 0.37628 0.23504 0.0
H1235 H 0.86857 0.34751 0.2393 0.0
H1236 H 0.82146 0.26986 0.19179 0.0
H1237 H 0.80598 0.2943 0.15307 0.0
H1238 H 0.81015 0.36653 0.19742 0.0
C1239 C 0.8354 0.31054 0.28595 0.0
C1240 C 0.83872 0.28443 0.29433 0.0
C1241 C 0.8355 0.26371 0.27622 0.0
C1242 C 0.83052 0.26867 0.24986 0.0
C1243 C 0.82872 0.29451 0.24178 0.0
C1244 C 0.8303 0.31515 0.25924 0.0
C1245 C 0.82626 0.34097 0.24513 0.0
C1246 C 0.80184 0.35533 0.25594 0.0
C1247 C 0.85098 0.35816 0.24685 0.0
C1248 C 0.82196 0.33138 0.2173 0.0
C1249 C 0.82406 0.30454 0.2158 0.0
C1250 C 0.81981 0.29095 0.19254 0.0
C1251 C 0.81142 0.30503 0.1705 0.0
C1252 C 0.807 0.33228 0.17215 0.0
C1253 C 0.8137 0.34571 0.19547 0.0
H1254 H 0.68659 0.77961 0.22036 0.0
H1255 H 0.65122 0.84706 0.18279 0.0
H1256 H 0.65231 0.87094 0.22524 0.0
H1257 H 0.64965 0.78364 0.27863 0.0
H1258 H 0.676 0.77274 0.29961 0.0
H1259 H 0.67492 0.76219 0.26597 0.0
H1260 H 0.7218 0.78031 0.25735 0.0
H1261 H 0.72348 0.78976 0.29122 0.0
H1262 H 0.72907 0.81371 0.2658 0.0
H1263 H 0.65643 0.88628 0.27257 0.0
H1264 H 0.67077 0.89487 0.31793 0.0
H1265 H 0.69945 0.81539 0.32449 0.0
C1266 C 0.67998 0.7998 0.22089 0.0
C1267 C 0.66949 0.81189 0.19835 0.0
C1268 C 0.66014 0.8379 0.19976 0.0
C1269 C 0.66018 0.8513 0.22387 0.0
C1270 C 0.66923 0.83809 0.24616 0.0
C1271 C 0.6794 0.81306 0.24467 0.0
C1272 C 0.6876 0.80279 0.27122 0.0
C1273 C 0.67104 0.77893 0.27932 0.0
C1274 C 0.71724 0.79629 0.2714 0.0
C1275 C 0.68112 0.82622 0.28809 0.0
C1276 C 0.67017 0.84627 0.27337 0.0
C1277 C 0.66458 0.8706 0.28432 0.0
C1278 C 0.67224 0.87515 0.3103 0.0
C1279 C 0.68539 0.85551 0.32494 0.0
C1280 C 0.6883 0.8303 0.31421 0.0
H1281 H 0.20122 0.69509 0.17289 0.0
H1282 H 0.17136 0.61609 0.17753 0.0
H1283 H 0.15321 0.62514 0.22173 0.0
H1284 H 0.22565 0.69407 0.23479 0.0
H1285 H 0.21966 0.72801 0.24223 0.0
H1286 H 0.22455 0.718 0.20879 0.0
H1287 H 0.17959 0.73814 0.1954 0.0
H1288 H 0.17506 0.74921 0.22861 0.0
H1289 H 0.15024 0.7293 0.21337 0.0
H1290 H 0.1447 0.64114 0.26844 0.0
H1291 H 0.14184 0.66483 0.31097 0.0
H1292 H 0.18087 0.73137 0.27524 0.0
C1293 C 0.18924 0.68036 0.18248 0.0
C1294 C 0.18656 0.65532 0.17151 0.0
C1295 C 0.17253 0.63574 0.18534 0.0
C1296 C 0.16258 0.64059 0.21059 0.0
C1297 C 0.16724 0.66499 0.22171 0.0
C1298 C 0.17997 0.68466 0.2079 0.0
C1299 C 0.18577 0.70783 0.22515 0.0
C1300 C 0.21567 0.71221 0.22788 0.0
C1301 C 0.17181 0.73258 0.21504 0.0
C1302 C 0.17397 0.69837 0.25062 0.0
C1303 C 0.16352 0.67359 0.24854 0.0
C1304 C 0.15251 0.66072 0.27019 0.0
C1305 C 0.15125 0.67409 0.29428 0.0
C1306 C 0.16094 0.6999 0.29617 0.0
C1307 C 0.17295 0.71174 0.27421 0.0
H1308 H 0.35325 0.83743 0.79671 0.0
H1309 H 0.2902 0.78428 0.81737 0.0
H1310 H 0.26932 0.7922 0.77465 0.0
H1311 H 0.30774 0.88403 0.7561 0.0
H1312 H 0.33412 0.89055 0.73326 0.0
H1313 H 0.34133 0.88474 0.76739 0.0
H1314 H 0.37351 0.84772 0.75379 0.0
H1315 H 0.36585 0.85282 0.71979 0.0
H1316 H 0.36157 0.82092 0.73431 0.0
H1317 H 0.26195 0.7965 0.72757 0.0
H1318 H 0.26211 0.80496 0.68007 0.0
H1319 H 0.32602 0.86018 0.68938 0.0
C1320 C 0.33415 0.82894 0.79279 0.0
C1321 C 0.32275 0.81095 0.81056 0.0
C1322 C 0.29856 0.79889 0.80437 0.0
C1323 C 0.28675 0.80305 0.78003 0.0
C1324 C 0.29897 0.81996 0.76241 0.0
C1325 C 0.32153 0.83363 0.76874 0.0
C1326 C 0.33119 0.84952 0.74536 0.0
C1327 C 0.32843 0.87896 0.75085 0.0
C1328 C 0.35972 0.84229 0.73788 0.0
C1329 C 0.3118 0.84089 0.72452 0.0
C1330 C 0.29342 0.82385 0.73496 0.0
C1331 C 0.27546 0.81066 0.71932 0.0
C1332 C 0.27582 0.81545 0.69236 0.0
C1333 C 0.29362 0.83365 0.6813 0.0
C1334 C 0.31178 0.84667 0.69757 0.0
H1335 H 0.20068 0.31214 0.81608 0.0
H1336 H 0.16922 0.39062 0.81063 0.0
H1337 H 0.15396 0.38167 0.76545 0.0
H1338 H 0.22932 0.31435 0.75599 0.0
H1339 H 0.22473 0.28044 0.74772 0.0
H1340 H 0.22698 0.29001 0.78153 0.0
H1341 H 0.18165 0.2691 0.79206 0.0
H1342 H 0.17991 0.25819 0.7586 0.0
H1343 H 0.15348 0.2775 0.7723 0.0
H1344 H 0.14677 0.36486 0.7184 0.0
H1345 H 0.14495 0.34018 0.67637 0.0
H1346 H 0.18759 0.27626 0.71285 0.0
C1347 C 0.18895 0.32676 0.806 0.0
C1348 C 0.18487 0.35158 0.8171 0.0
C1349 C 0.17132 0.37108 0.80271 0.0
C1350 C 0.16305 0.36629 0.77692 0.0
C1351 C 0.16911 0.34212 0.76578 0.0
C1352 C 0.18157 0.32261 0.78006 0.0
C1353 C 0.18922 0.29978 0.76296 0.0
C1354 C 0.21934 0.29595 0.76201 0.0
C1355 C 0.17521 0.27467 0.77201 0.0
C1356 C 0.17892 0.3093 0.73695 0.0
C1357 C 0.16725 0.33364 0.73871 0.0
C1358 C 0.15587 0.34575 0.71684 0.0
C1359 C 0.15527 0.33188 0.69298 0.0
C1360 C 0.16622 0.30647 0.69149 0.0
C1361 C 0.17908 0.29573 0.71347 0.0
H1362 H 0.69758 0.19435 0.66992 0.0
H1363 H 0.66389 0.11706 0.67649 0.0
H1364 H 0.64621 0.12809 0.72042 0.0
H1365 H 0.72328 0.19197 0.73027 0.0
H1366 H 0.72005 0.22623 0.73782 0.0
H1367 H 0.72296 0.21594 0.70429 0.0
H1368 H 0.67903 0.23915 0.69248 0.0
H1369 H 0.67651 0.25052 0.72578 0.0
H1370 H 0.64978 0.23241 0.71151 0.0
H1371 H 0.63928 0.14549 0.76718 0.0
H1372 H 0.6407 0.16906 0.80982 0.0
H1373 H 0.68413 0.23185 0.77219 0.0
C1374 C 0.68475 0.1805 0.67976 0.0
C1375 C 0.68103 0.1553 0.66944 0.0
C1376 C 0.6659 0.13685 0.68371 0.0
C1377 C 0.65621 0.14283 0.70885 0.0
C1378 C 0.66223 0.16718 0.71946 0.0
C1379 C 0.67599 0.1858 0.70515 0.0
C1380 C 0.68412 0.20851 0.72208 0.0
C1381 C 0.71437 0.21077 0.72369 0.0
C1382 C 0.67159 0.23416 0.71239 0.0
C1383 C 0.67261 0.19999 0.74799 0.0
C1384 C 0.65998 0.17621 0.74637 0.0
C1385 C 0.64886 0.16431 0.76854 0.0
C1386 C 0.65002 0.1776 0.7927 0.0
C1387 C 0.66243 0.20229 0.79428 0.0
C1388 C 0.6742 0.21314 0.77165 0.0
H1389 H 0.87383 0.68473 0.70447 0.0
H1390 H 0.80234 0.69967 0.66054 0.0
H1391 H 0.77595 0.69058 0.70017 0.0
H1392 H 0.84572 0.63305 0.75002 0.0
H1393 H 0.86495 0.6452 0.77697 0.0
H1394 H 0.87754 0.6475 0.74396 0.0
H1395 H 0.8837 0.69734 0.75054 0.0
H1396 H 0.86997 0.69546 0.78309 0.0
H1397 H 0.85562 0.71726 0.75924 0.0
H1398 H 0.75838 0.68966 0.74553 0.0
H1399 H 0.74863 0.68353 0.79243 0.0
H1400 H 0.83118 0.66824 0.80782 0.0
C1401 C 0.85256 0.68457 0.70281 0.0
C1402 C 0.84012 0.69278 0.67935 0.0
C1403 C 0.81228 0.69297 0.67807 0.0
C1404 C 0.79715 0.68834 0.70067 0.0
C1405 C 0.81022 0.68303 0.72409 0.0
C1406 C 0.83721 0.68006 0.72518 0.0
C1407 C 0.84644 0.6758 0.75318 0.0
C1408 C 0.85942 0.64877 0.75621 0.0
C1409 C 0.86504 0.69777 0.762 0.0
C1410 C 0.82041 0.67727 0.76773 0.0
C1411 C 0.79991 0.68194 0.75049 0.0
C1412 C 0.77417 0.6855 0.75911 0.0
C1413 C 0.76893 0.68251 0.78582 0.0
C1414 C 0.78922 0.67585 0.80364 0.0
C1415 C 0.81545 0.67383 0.79465 0.0
H1416 H 0.20805 0.35319 0.16419 0.0
H1417 H 0.18304 0.28965 0.21466 0.0
H1418 H 0.22704 0.26951 0.21095 0.0
H1419 H 0.25266 0.30885 0.12073 0.0
H1420 H 0.27579 0.33516 0.11617 0.0
H1421 H 0.2411 0.3422 0.11945 0.0
H1422 H 0.25156 0.3736 0.15776 0.0
H1423 H 0.28611 0.36599 0.15539 0.0
H1424 H 0.26889 0.36126 0.18601 0.0
H1425 H 0.276 0.26517 0.21329 0.0
H1426 H 0.32454 0.26566 0.20719 0.0
H1427 H 0.31677 0.32488 0.14709 0.0
C1428 C 0.21131 0.33406 0.17278 0.0
C1429 C 0.19203 0.32261 0.18919 0.0
C1430 C 0.19729 0.29822 0.2013 0.0
C1431 C 0.22239 0.28689 0.1997 0.0
C1432 C 0.24158 0.2996 0.18486 0.0
C1433 C 0.23597 0.32176 0.17027 0.0
C1434 C 0.26049 0.33159 0.15623 0.0
C1435 C 0.25732 0.32931 0.12637 0.0
C1436 C 0.26713 0.35978 0.16434 0.0
C1437 C 0.2809 0.31242 0.16641 0.0
C1438 C 0.26962 0.29463 0.18351 0.0
C1439 C 0.28492 0.2779 0.1988 0.0
C1440 C 0.31233 0.27831 0.19534 0.0
C1441 C 0.32398 0.29432 0.17596 0.0
C1442 C 0.30813 0.31189 0.16154 0.0
H1443 H 0.32211 0.67649 0.82612 0.0
H1444 H 0.29119 0.7109 0.89741 0.0
H1445 H 0.25071 0.68501 0.89327 0.0
H1446 H 0.26895 0.68099 0.79154 0.0
H1447 H 0.27063 0.65046 0.77402 0.0
H1448 H 0.30017 0.66476 0.78649 0.0
H1449 H 0.31055 0.62241 0.81256 0.0
H1450 H 0.28101 0.60769 0.79983 0.0
H1451 H 0.28621 0.60914 0.83472 0.0
H1452 H 0.20947 0.66747 0.87415 0.0
H1453 H 0.17342 0.65497 0.84408 0.0
H1454 H 0.23168 0.62775 0.78786 0.0
C1455 C 0.30748 0.67724 0.84162 0.0
C1456 C 0.30962 0.69558 0.86199 0.0
C1457 C 0.28977 0.69689 0.88158 0.0
C1458 C 0.26672 0.6822 0.87946 0.0
C1459 C 0.26408 0.66575 0.85799 0.0
C1460 C 0.28431 0.66245 0.83984 0.0
C1461 C 0.27512 0.64656 0.8167 0.0
C1462 C 0.27893 0.66161 0.79069 0.0
C1463 C 0.28906 0.61986 0.81592 0.0
C1464 C 0.24626 0.6435 0.82361 0.0
C1465 C 0.24019 0.65431 0.84764 0.0
C1466 C 0.21404 0.65786 0.8558 0.0
C1467 C 0.19364 0.65073 0.83865 0.0
C1468 C 0.19971 0.64028 0.81372 0.0
C1469 C 0.22633 0.63548 0.80691 0.0
H1470 H 0.27299 0.29148 0.83231 0.0
H1471 H 0.34249 0.33755 0.8486 0.0
H1472 H 0.36981 0.29703 0.84711 0.0
H1473 H 0.28941 0.23614 0.87108 0.0
H1474 H 0.27626 0.21268 0.84835 0.0
H1475 H 0.26248 0.24516 0.84994 0.0
H1476 H 0.27118 0.25222 0.80025 0.0
H1477 H 0.28386 0.21939 0.79836 0.0
H1478 H 0.30376 0.2464 0.78723 0.0
H1479 H 0.38879 0.25116 0.84413 0.0
H1480 H 0.39942 0.20568 0.8317 0.0
H1481 H 0.31663 0.19007 0.81939 0.0
C1482 C 0.29407 0.29309 0.83516 0.0
C1483 C 0.30583 0.31749 0.84044 0.0
C1484 C 0.33334 0.31901 0.84412 0.0
C1485 C 0.3488 0.29608 0.84374 0.0
C1486 C 0.33627 0.2721 0.83969 0.0
C1487 C 0.30959 0.27061 0.8349 0.0
C1488 C 0.3008 0.24282 0.83006 0.0
C1489 C 0.28107 0.23368 0.85112 0.0
C1490 C 0.28924 0.24005 0.80234 0.0
C1491 C 0.32682 0.22864 0.83266 0.0
C1492 C 0.347 0.24581 0.83856 0.0
C1493 C 0.37312 0.23754 0.83988 0.0
C1494 C 0.37894 0.21157 0.83323 0.0
C1495 C 0.35873 0.19427 0.82535 0.0
C1496 C 0.33226 0.20255 0.82646 0.0
H1497 H 0.70835 0.33105 0.83113 0.0
H1498 H 0.73492 0.2752 0.88943 0.0
H1499 H 0.77982 0.29285 0.88643 0.0
H1500 H 0.75976 0.32559 0.79046 0.0
H1501 H 0.76278 0.35947 0.78107 0.0
H1502 H 0.73161 0.34715 0.79223 0.0
H1503 H 0.72983 0.38277 0.82819 0.0
H1504 H 0.76119 0.39525 0.81716 0.0
H1505 H 0.75673 0.38575 0.85093 0.0
H1506 H 0.82284 0.30861 0.86988 0.0
H1507 H 0.86028 0.32362 0.84266 0.0
H1508 H 0.80658 0.37145 0.79698 0.0
C1509 C 0.72338 0.32353 0.84415 0.0
C1510 C 0.7182 0.30191 0.86059 0.0
C1511 C 0.73852 0.29185 0.87673 0.0
C1512 C 0.7641 0.3018 0.87525 0.0
C1513 C 0.76907 0.32218 0.85784 0.0
C1514 C 0.74921 0.33338 0.84294 0.0
C1515 C 0.76052 0.35292 0.82357 0.0
C1516 C 0.75324 0.34583 0.79517 0.0
C1517 C 0.75153 0.38083 0.83037 0.0
C1518 C 0.78977 0.3494 0.82859 0.0
C1519 C 0.7943 0.33197 0.84878 0.0
C1520 C 0.81965 0.32302 0.85465 0.0
C1521 C 0.84085 0.33167 0.8391 0.0
C1522 C 0.83653 0.349 0.81787 0.0
C1523 C 0.81073 0.35863 0.81335 0.0
H1524 H 0.69462 0.6843 0.81453 0.0
H1525 H 0.66408 0.68383 0.89376 0.0
H1526 H 0.64707 0.72886 0.88763 0.0
H1527 H 0.72185 0.74335 0.81958 0.0
H1528 H 0.71625 0.75476 0.78658 0.0
H1529 H 0.71887 0.72033 0.79305 0.0
H1530 H 0.67327 0.71123 0.77304 0.0
H1531 H 0.67102 0.74538 0.76457 0.0
H1532 H 0.64517 0.73022 0.78356 0.0
H1533 H 0.63789 0.77649 0.87373 0.0
H1534 H 0.63465 0.82003 0.85185 0.0
H1535 H 0.67913 0.78986 0.78591 0.0
C1536 C 0.68256 0.69296 0.82983 0.0
C1537 C 0.67945 0.68021 0.85416 0.0
C1538 C 0.66543 0.69287 0.87457 0.0
C1539 C 0.65623 0.71865 0.8714 0.0
C1540 C 0.66171 0.73155 0.84788 0.0
C1541 C 0.67434 0.71894 0.82733 0.0
C1542 C 0.68139 0.73782 0.80558 0.0
C1543 C 0.71137 0.73913 0.80098 0.0
C1544 C 0.66683 0.73076 0.78019 0.0
C1545 C 0.67113 0.76301 0.8172 0.0
C1546 C 0.6594 0.75916 0.84136 0.0
C1547 C 0.64728 0.77976 0.85492 0.0
C1548 C 0.64598 0.80453 0.84272 0.0
C1549 C 0.6575 0.80838 0.81775 0.0
C1550 C 0.67102 0.78758 0.80548 0.0
H1551 H 0.70615 0.72504 0.1983 0.0
H1552 H 0.68259 0.66022 0.14957 0.0
H1553 H 0.7267 0.63971 0.15578 0.0
H1554 H 0.76796 0.7308 0.16982 0.0
H1555 H 0.78454 0.74089 0.19926 0.0
H1556 H 0.75001 0.74783 0.19519 0.0
H1557 H 0.73892 0.72388 0.23854 0.0
H1558 H 0.77359 0.71771 0.24269 0.0
H1559 H 0.75067 0.69086 0.24359 0.0
H1560 H 0.7754 0.62819 0.16603 0.0
H1561 H 0.82197 0.62587 0.1803 0.0
H1562 H 0.81344 0.70153 0.21775 0.0
C1563 C 0.70984 0.70582 0.19009 0.0
C1564 C 0.69065 0.69349 0.17455 0.0
C1565 C 0.69664 0.66925 0.16262 0.0
C1566 C 0.72179 0.65778 0.16568 0.0
C1567 C 0.74074 0.67121 0.1802 0.0
C1568 C 0.73486 0.69471 0.19224 0.0
C1569 C 0.75895 0.70681 0.20446 0.0
C1570 C 0.76575 0.73313 0.19138 0.0
C1571 C 0.75521 0.70995 0.23414 0.0
C1572 C 0.77944 0.68623 0.19817 0.0
C1573 C 0.7687 0.66579 0.18416 0.0
C1574 C 0.78392 0.64418 0.17693 0.0
C1575 C 0.81042 0.6431 0.185 0.0
C1576 C 0.82159 0.66363 0.19992 0.0
C1577 C 0.80584 0.68568 0.20597 0.0
H1578 H 0.33476 0.80587 0.18799 0.0
H1579 H 0.36682 0.77089 0.25886 0.0
H1580 H 0.36092 0.7273 0.24047 0.0
H1581 H 0.28498 0.75987 0.17877 0.0
H1582 H 0.28756 0.75886 0.14353 0.0
H1583 H 0.29719 0.78782 0.16086 0.0
H1584 H 0.34332 0.78536 0.13889 0.0
H1585 H 0.33383 0.75609 0.12177 0.0
H1586 H 0.36277 0.75597 0.14211 0.0
H1587 H 0.34779 0.68737 0.21731 0.0
H1588 H 0.32492 0.65379 0.19131 0.0
H1589 H 0.30264 0.71342 0.1347 0.0
C1590 C 0.34083 0.78904 0.19943 0.0
C1591 C 0.35135 0.792 0.22482 0.0
C1592 C 0.3588 0.76938 0.23929 0.0
C1593 C 0.35573 0.74437 0.22898 0.0
C1594 C 0.34537 0.74206 0.20402 0.0
C1595 C 0.33798 0.76368 0.18935 0.0
C1596 C 0.32539 0.75535 0.16388 0.0
C1597 C 0.29711 0.7661 0.16165 0.0
C1598 C 0.34234 0.76369 0.14026 0.0
C1599 C 0.32574 0.72587 0.16734 0.0
C1600 C 0.33789 0.7186 0.19036 0.0
C1601 C 0.33864 0.69266 0.19892 0.0
C1602 C 0.32571 0.67368 0.18399 0.0
C1603 C 0.31208 0.68092 0.16098 0.0
C1604 C 0.31308 0.70719 0.15211 0.0
H1605 H 0.70703 0.31852 0.1926 0.0
H1606 H 0.65616 0.32664 0.12531 0.0
H1607 H 0.63775 0.28252 0.13398 0.0
H1608 H 0.72512 0.2556 0.17622 0.0
H1609 H 0.72899 0.24406 0.20939 0.0
H1610 H 0.73375 0.27813 0.20188 0.0
H1611 H 0.69841 0.29159 0.23623 0.0
H1612 H 0.69451 0.25765 0.24474 0.0
H1613 H 0.66622 0.2768 0.2352 0.0
H1614 H 0.62819 0.23516 0.14846 0.0
H1615 H 0.62601 0.1913 0.16977 0.0
H1616 H 0.6882 0.21415 0.22275 0.0
C1617 C 0.69075 0.31168 0.18078 0.0
C1618 C 0.68187 0.32635 0.15919 0.0
C1619 C 0.66213 0.31605 0.14272 0.0
C1620 C 0.65201 0.29086 0.14723 0.0
C1621 C 0.66254 0.27614 0.16774 0.0
C1622 C 0.68145 0.28632 0.18428 0.0
C1623 C 0.69233 0.2658 0.2026 0.0
C1624 C 0.72178 0.26061 0.19718 0.0
C1625 C 0.68755 0.27341 0.23139 0.0
C1626 C 0.67586 0.24273 0.19459 0.0
C1627 C 0.65889 0.24876 0.17435 0.0
C1628 C 0.64147 0.23022 0.16426 0.0
C1629 C 0.64058 0.20531 0.17613 0.0
C1630 C 0.65712 0.19955 0.19759 0.0
C1631 C 0.6755 0.21816 0.20617 0.0
loop_
_geom_bond_atom_site_label_1
_geom_bond_atom_site_label_2
_geom_bond_distance
_geom_bond_site_symmetry_2
_ccdc_geom_bond_type
O0 Cd1 2.223 . S
O0 C8 1.315 . S
Cd1 O0 2.223 . S
Cd1 O4 2.297 . S
Cd1 O5 2.439 . S
Cd1 O11 2.240 . S
Cd2 O3 2.240 . S
Cd2 O10 2.223 . S
Cd2 O12 2.297 . S
Cd2 O13 2.439 . S
O3 Cd2 2.240 . S
O3 C8 1.279 . S
O4 Cd1 2.297 . S
O4 C6 1.247 . S
O5 Cd1 2.439 . S
O5 C6 1.208 . S
C6 O4 1.247 . S
C6 O5 1.208 . S
C7 O12 1.247 . S
C7 O13 1.208 . S
C8 O0 1.315 . S
C8 O3 1.279 . S
C9 O10 1.315 . S
C9 O11 1.279 . S
O10 Cd2 2.223 . S
O10 C9 1.315 . S
O11 Cd1 2.240 . S
O11 C9 1.279 . S
O12 Cd2 2.297 . S
O12 C7 1.247 . S
O13 Cd2 2.439 . S
O13 C7 1.208 . S
O14 Cd15 2.223 . S
O14 C22 1.315 . S
Cd15 O14 2.223 . S
Cd15 O18 2.297 . S
Cd15 O19 2.439 . S
Cd15 O25 2.240 . S
Cd16 O17 2.240 . S
Cd16 O24 2.223 . S
Cd16 O26 2.297 . S
Cd16 O27 2.439 . S
O17 Cd16 2.240 . S
O17 C22 1.279 . S
O18 Cd15 2.297 . S
O18 C20 1.247 . S
O19 Cd15 2.439 . S
O19 C20 1.208 . S
C20 O18 1.247 . S
C20 O19 1.208 . S
C21 O26 1.247 . S
C21 O27 1.208 . S
C22 O14 1.315 . S
C22 O17 1.279 . S
C23 O24 1.315 . S
C23 O25 1.279 . S
O24 Cd16 2.223 . S
O24 C23 1.315 . S
O25 Cd15 2.240 . S
O25 C23 1.279 . S
O26 Cd16 2.297 . S
O26 C21 1.247 . S
O27 Cd16 2.439 . S
O27 C21 1.208 . S
O28 Cd29 2.223 . S
O28 C36 1.315 . S
Cd29 O28 2.223 . S
Cd29 O32 2.297 . S
Cd29 O33 2.439 . S
Cd29 O39 2.240 . S
Cd30 O31 2.240 . S
Cd30 O38 2.223 . S
Cd30 O40 2.297 . S
Cd30 O41 2.439 . S
O31 Cd30 2.240 . S
O31 C36 1.279 . S
O32 Cd29 2.297 . S
O32 C34 1.247 . S
O33 Cd29 2.439 . S
O33 C34 1.208 . S
C34 O32 1.247 . S
C34 O33 1.208 . S
C35 O40 1.247 . S
C35 O41 1.208 . S
C36 O28 1.315 . S
C36 O31 1.279 . S
C37 O38 1.315 . S
C37 O39 1.279 . S
O38 Cd30 2.223 . S
O38 C37 1.315 . S
O39 Cd29 2.240 . S
O39 C37 1.279 . S
O40 Cd30 2.297 . S
O40 C35 1.247 . S
O41 Cd30 2.439 . S
O41 C35 1.208 . S
O42 Cd43 2.223 . S
O42 C50 1.315 . S
Cd43 O42 2.223 . S
Cd43 O46 2.297 . S
Cd43 O47 2.439 . S
Cd43 O53 2.240 . S
Cd44 O45 2.240 . S
Cd44 O52 2.223 . S
Cd44 O54 2.297 . S
Cd44 O55 2.439 . S
O45 Cd44 2.240 . S
O45 C50 1.279 . S
O46 Cd43 2.297 . S
O46 C48 1.247 . S
O47 Cd43 2.439 . S
O47 C48 1.208 . S
C48 O46 1.247 . S
C48 O47 1.208 . S
C49 O54 1.247 . S
C49 O55 1.208 . S
C50 O42 1.315 . S
C50 O45 1.279 . S
C51 O52 1.315 . S
C51 O53 1.279 . S
O52 Cd44 2.223 . S
O52 C51 1.315 . S
O53 Cd43 2.240 . S
O53 C51 1.279 . S
O54 Cd44 2.297 . S
O54 C49 1.247 . S
O55 Cd44 2.439 . S
O55 C49 1.208 . S
O56 Cd57 2.223 . S
O56 C64 1.315 . S
Cd57 O56 2.223 . S
Cd57 O60 2.297 . S
Cd57 O61 2.439 . S
Cd57 O67 2.240 . S
Cd58 O59 2.240 . S
Cd58 O66 2.223 . S
Cd58 O68 2.297 . S
Cd58 O69 2.439 . S
O59 Cd58 2.240 . S
O59 C64 1.279 . S
O60 Cd57 2.297 . S
O60 C62 1.247 . S
O61 Cd57 2.439 . S
O61 C62 1.208 . S
C62 O60 1.247 . S
C62 O61 1.208 . S
C63 O68 1.247 . S
C63 O69 1.208 . S
C64 O56 1.315 . S
C64 O59 1.279 . S
C65 O66 1.315 . S
C65 O67 1.279 . S
O66 Cd58 2.223 . S
O66 C65 1.315 . S
O67 Cd57 2.240 . S
O67 C65 1.279 . S
O68 Cd58 2.297 . S
O68 C63 1.247 . S
O69 Cd58 2.439 . S
O69 C63 1.208 . S
O70 Cd71 2.223 . S
O70 C78 1.315 . S
Cd71 O70 2.223 . S
Cd71 O74 2.297 . S
Cd71 O75 2.439 . S
Cd71 O81 2.240 . S
Cd72 O73 2.240 . S
Cd72 O80 2.223 . S
Cd72 O82 2.297 . S
Cd72 O83 2.439 . S
O73 Cd72 2.240 . S
O73 C78 1.279 . S
O74 Cd71 2.297 . S
O74 C76 1.247 . S
O75 Cd71 2.439 . S
O75 C76 1.208 . S
C76 O74 1.247 . S
C76 O75 1.208 . S
C77 O82 1.247 . S
C77 O83 1.208 . S
C78 O70 1.315 . S
C78 O73 1.279 . S
C79 O80 1.315 . S
C79 O81 1.279 . S
O80 Cd72 2.223 . S
O80 C79 1.315 . S
O81 Cd71 2.240 . S
O81 C79 1.279 . S
O82 Cd72 2.297 . S
O82 C77 1.247 . S
O83 Cd72 2.439 . S
O83 C77 1.208 . S
O84 Cd85 2.223 . S
O84 C92 1.315 . S
Cd85 O84 2.223 . S
Cd85 O88 2.297 . S
Cd85 O89 2.439 . S
Cd85 O95 2.240 . S
Cd86 O87 2.240 . S
Cd86 O94 2.223 . S
Cd86 O96 2.297 . S
Cd86 O97 2.439 . S
O87 Cd86 2.240 . S
O87 C92 1.279 . S
O88 Cd85 2.297 . S
O88 C90 1.247 . S
O89 Cd85 2.439 . S
O89 C90 1.208 . S
C90 O88 1.247 . S
C90 O89 1.208 . S
C91 O96 1.247 . S
C91 O97 1.208 . S
C92 O84 1.315 . S
C92 O87 1.279 . S
C93 O94 1.315 . S
C93 O95 1.279 . S
O94 Cd86 2.223 . S
O94 C93 1.315 . S
O95 Cd85 2.240 . S
O95 C93 1.279 . S
O96 Cd86 2.297 . S
O96 C91 1.247 . S
O97 Cd86 2.439 . S
O97 C91 1.208 . S
O98 Cd99 2.223 . S
O98 C106 1.315 . S
Cd99 O98 2.223 . S
Cd99 O102 2.297 . S
Cd99 O103 2.439 . S
Cd99 O109 2.240 . S
Cd100 O101 2.240 . S
Cd100 O108 2.223 . S
Cd100 O110 2.297 . S
Cd100 O111 2.439 . S
O101 Cd100 2.240 . S
O101 C106 1.279 . S
O102 Cd99 2.297 . S
O102 C104 1.247 . S
O103 Cd99 2.439 . S
O103 C104 1.208 . S
C104 O102 1.247 . S
C104 O103 1.208 . S
C105 O110 1.247 . S
C105 O111 1.208 . S
C106 O98 1.315 . S
C106 O101 1.279 . S
C107 O108 1.315 . S
C107 O109 1.279 . S
O108 Cd100 2.223 . S
O108 C107 1.315 . S
O109 Cd99 2.240 . S
O109 C107 1.279 . S
O110 Cd100 2.297 . S
O110 C105 1.247 . S
O111 Cd100 2.439 . S
O111 C105 1.208 . S
O112 Cd113 2.223 . S
O112 C120 1.315 . S
Cd113 O112 2.223 . S
Cd113 O116 2.297 . S
Cd113 O117 2.439 . S
Cd113 O123 2.240 . S
Cd114 O115 2.240 . S
Cd114 O122 2.223 . S
Cd114 O124 2.297 . S
Cd114 O125 2.439 . S
O115 Cd114 2.240 . S
O115 C120 1.279 . S
O116 Cd113 2.297 . S
O116 C118 1.247 . S
O117 Cd113 2.439 . S
O117 C118 1.208 . S
C118 O116 1.247 . S
C118 O117 1.208 . S
C119 O124 1.247 . S
C119 O125 1.208 . S
C120 O112 1.315 . S
C120 O115 1.279 . S
C121 O122 1.315 . S
C121 O123 1.279 . S
O122 Cd114 2.223 . S
O122 C121 1.315 . S
O123 Cd113 2.240 . S
O123 C121 1.279 . S
O124 Cd114 2.297 . S
O124 C119 1.247 . S
O125 Cd114 2.439 . S
O125 C119 1.208 . S
O126 Cd127 2.223 . S
O126 C134 1.315 . S
Cd127 O126 2.223 . S
Cd127 O130 2.297 . S
Cd127 O131 2.439 . S
Cd127 O137 2.240 . S
Cd128 O129 2.240 . S
Cd128 O136 2.223 . S
Cd128 O138 2.297 . S
Cd128 O139 2.439 . S
O129 Cd128 2.240 . S
O129 C134 1.279 . S
O130 Cd127 2.297 . S
O130 C132 1.247 . S
O131 Cd127 2.439 . S
O131 C132 1.208 . S
C132 O130 1.247 . S
C132 O131 1.208 . S
C133 O138 1.247 . S
C133 O139 1.208 . S
C134 O126 1.315 . S
C134 O129 1.279 . S
C135 O136 1.315 . S
C135 O137 1.279 . S
O136 Cd128 2.223 . S
O136 C135 1.315 . S
O137 Cd127 2.240 . S
O137 C135 1.279 . S
O138 Cd128 2.297 . S
O138 C133 1.247 . S
O139 Cd128 2.439 . S
O139 C133 1.208 . S
O140 Cd141 2.223 . S
O140 C148 1.315 . S
Cd141 O140 2.223 . S
Cd141 O144 2.297 . S
Cd141 O145 2.439 . S
Cd141 O151 2.240 . S
Cd142 O143 2.240 . S
Cd142 O150 2.223 . S
Cd142 O152 2.297 . S
Cd142 O153 2.439 . S
O143 Cd142 2.240 . S
O143 C148 1.279 . S
O144 Cd141 2.297 . S
O144 C146 1.247 . S
O145 Cd141 2.439 . S
O145 C146 1.208 . S
C146 O144 1.247 . S
C146 O145 1.208 . S
C147 O152 1.247 . S
C147 O153 1.208 . S
C148 O140 1.315 . S
C148 O143 1.279 . S
C149 O150 1.315 . S
C149 O151 1.279 . S
O150 Cd142 2.223 . S
O150 C149 1.315 . S
O151 Cd141 2.240 . S
O151 C149 1.279 . S
O152 Cd142 2.297 . S
O152 C147 1.247 . S
O153 Cd142 2.439 . S
O153 C147 1.208 . S
O154 Cd155 2.223 . S
O154 C162 1.315 . S
Cd155 O154 2.223 . S
Cd155 O158 2.297 . S
Cd155 O159 2.439 . S
Cd155 O165 2.240 . S
Cd156 O157 2.240 . S
Cd156 O164 2.223 . S
Cd156 O166 2.297 . S
Cd156 O167 2.439 . S
O157 Cd156 2.240 . S
O157 C162 1.279 . S
O158 Cd155 2.297 . S
O158 C160 1.247 . S
O159 Cd155 2.439 . S
O159 C160 1.208 . S
C160 O158 1.247 . S
C160 O159 1.208 . S
C161 O166 1.247 . S
C161 O167 1.208 . S
C162 O154 1.315 . S
C162 O157 1.279 . S
C163 O164 1.315 . S
C163 O165 1.279 . S
O164 Cd156 2.223 . S
O164 C163 1.315 . S
O165 Cd155 2.240 . S
O165 C163 1.279 . S
O166 Cd156 2.297 . S
O166 C161 1.247 . S
O167 Cd156 2.439 . S
O167 C161 1.208 . S
O168 Cd169 2.223 . S
O168 C176 1.315 . S
Cd169 O168 2.223 . S
Cd169 O172 2.297 . S
Cd169 O173 2.439 . S
Cd169 O179 2.240 . S
Cd170 O171 2.240 . S
Cd170 O178 2.223 . S
Cd170 O180 2.297 . S
Cd170 O181 2.439 . S
O171 Cd170 2.240 . S
O171 C176 1.279 . S
O172 Cd169 2.297 . S
O172 C174 1.247 . S
O173 Cd169 2.439 . S
O173 C174 1.208 . S
C174 O172 1.247 . S
C174 O173 1.208 . S
C175 O180 1.247 . S
C175 O181 1.208 . S
C176 O168 1.315 . S
C176 O171 1.279 . S
C177 O178 1.315 . S
C177 O179 1.279 . S
O178 Cd170 2.223 . S
O178 C177 1.315 . S
O179 Cd169 2.240 . S
O179 C177 1.279 . S
O180 Cd170 2.297 . S
O180 C175 1.247 . S
O181 Cd170 2.439 . S
O181 C175 1.208 . S
O182 Cd183 2.223 . S
O182 C190 1.315 . S
Cd183 O182 2.223 . S
Cd183 O186 2.297 . S
Cd183 O187 2.439 . S
Cd183 O193 2.240 . S
Cd184 O185 2.240 . S
Cd184 O192 2.223 . S
Cd184 O194 2.297 . S
Cd184 O195 2.439 . S
O185 Cd184 2.240 . S
O185 C190 1.279 . S
O186 Cd183 2.297 . S
O186 C188 1.247 . S
O187 Cd183 2.439 . S
O187 C188 1.208 . S
C188 O186 1.247 . S
C188 O187 1.208 . S
C189 O194 1.247 . S
C189 O195 1.208 . S
C190 O182 1.315 . S
C190 O185 1.279 . S
C191 O192 1.315 . S
C191 O193 1.279 . S
O192 Cd184 2.223 . S
O192 C191 1.315 . S
O193 Cd183 2.240 . S
O193 C191 1.279 . S
O194 Cd184 2.297 . S
O194 C189 1.247 . S
O195 Cd184 2.439 . S
O195 C189 1.208 . S
O196 Cd197 2.223 . S
O196 C204 1.315 . S
Cd197 O196 2.223 . S
Cd197 O200 2.297 . S
Cd197 O201 2.439 . S
Cd197 O207 2.240 . S
Cd198 O199 2.240 . S
Cd198 O206 2.223 . S
Cd198 O208 2.297 . S
Cd198 O209 2.439 . S
O199 Cd198 2.240 . S
O199 C204 1.279 . S
O200 Cd197 2.297 . S
O200 C202 1.247 . S
O201 Cd197 2.439 . S
O201 C202 1.208 . S
C202 O200 1.247 . S
C202 O201 1.208 . S
C203 O208 1.247 . S
C203 O209 1.208 . S
C204 O196 1.315 . S
C204 O199 1.279 . S
C205 O206 1.315 . S
C205 O207 1.279 . S
O206 Cd198 2.223 . S
O206 C205 1.315 . S
O207 Cd197 2.240 . S
O207 C205 1.279 . S
O208 Cd198 2.297 . S
O208 C203 1.247 . S
O209 Cd198 2.439 . S
O209 C203 1.208 . S
O210 Cd211 2.223 . S
O210 C218 1.315 . S
Cd211 O210 2.223 . S
Cd211 O214 2.297 . S
Cd211 O215 2.439 . S
Cd211 O221 2.240 . S
Cd212 O213 2.240 . S
Cd212 O220 2.223 . S
Cd212 O222 2.297 . S
Cd212 O223 2.439 . S
O213 Cd212 2.240 . S
O213 C218 1.279 . S
O214 Cd211 2.297 . S
O214 C216 1.247 . S
O215 Cd211 2.439 . S
O215 C216 1.208 . S
C216 O214 1.247 . S
C216 O215 1.208 . S
C217 O222 1.247 . S
C217 O223 1.208 . S
C218 O210 1.315 . S
C218 O213 1.279 . S
C219 O220 1.315 . S
C219 O221 1.279 . S
O220 Cd212 2.223 . S
O220 C219 1.315 . S
O221 Cd211 2.240 . S
O221 C219 1.279 . S
O222 Cd212 2.297 . S
O222 C217 1.247 . S
O223 Cd212 2.439 . S
O223 C217 1.208 . S
O224 Cd225 2.223 . S
O224 C232 1.315 . S
Cd225 O224 2.223 . S
Cd225 O228 2.297 . S
Cd225 O229 2.439 . S
Cd225 O235 2.240 . S
Cd226 O227 2.240 . S
Cd226 O234 2.223 . S
Cd226 O236 2.297 . S
Cd226 O237 2.439 . S
O227 Cd226 2.240 . S
O227 C232 1.279 . S
O228 Cd225 2.297 . S
O228 C230 1.247 . S
O229 Cd225 2.439 . S
O229 C230 1.208 . S
C230 O228 1.247 . S
C230 O229 1.208 . S
C231 O236 1.247 . S
C231 O237 1.208 . S
C232 O224 1.315 . S
C232 O227 1.279 . S
C233 O234 1.315 . S
C233 O235 1.279 . S
O234 Cd226 2.223 . S
O234 C233 1.315 . S
O235 Cd225 2.240 . S
O235 C233 1.279 . S
O236 Cd226 2.297 . S
O236 C231 1.247 . S
O237 Cd226 2.439 . S
O237 C231 1.208 . S
O238 Cd239 2.223 . S
O238 C246 1.315 . S
Cd239 O238 2.223 . S
Cd239 O242 2.297 . S
Cd239 O243 2.439 . S
Cd239 O249 2.240 . S
Cd240 O241 2.240 . S
Cd240 O248 2.223 . S
Cd240 O250 2.297 . S
Cd240 O251 2.439 . S
O241 Cd240 2.240 . S
O241 C246 1.279 . S
O242 Cd239 2.297 . S
O242 C244 1.247 . S
O243 Cd239 2.439 . S
O243 C244 1.208 . S
C244 O242 1.247 . S
C244 O243 1.208 . S
C245 O250 1.247 . S
C245 O251 1.208 . S
C246 O238 1.315 . S
C246 O241 1.279 . S
C247 O248 1.315 . S
C247 O249 1.279 . S
O248 Cd240 2.223 . S
O248 C247 1.315 . S
O249 Cd239 2.240 . S
O249 C247 1.279 . S
O250 Cd240 2.297 . S
O250 C245 1.247 . S
O251 Cd240 2.439 . S
O251 C245 1.208 . S
O252 Cd253 2.223 . S
O252 C260 1.315 . S
Cd253 O252 2.223 . S
Cd253 O256 2.297 . S
Cd253 O257 2.439 . S
Cd253 O263 2.240 . S
Cd254 O255 2.240 . S
Cd254 O262 2.223 . S
Cd254 O264 2.297 . S
Cd254 O265 2.439 . S
O255 Cd254 2.240 . S
O255 C260 1.279 . S
O256 Cd253 2.297 . S
O256 C258 1.247 . S
O257 Cd253 2.439 . S
O257 C258 1.208 . S
C258 O256 1.247 . S
C258 O257 1.208 . S
C259 O264 1.247 . S
C259 O265 1.208 . S
C260 O252 1.315 . S
C260 O255 1.279 . S
C261 O262 1.315 . S
C261 O263 1.279 . S
O262 Cd254 2.223 . S
O262 C261 1.315 . S
O263 Cd253 2.240 . S
O263 C261 1.279 . S
O264 Cd254 2.297 . S
O264 C259 1.247 . S
O265 Cd254 2.439 . S
O265 C259 1.208 . S
O266 Cd267 2.223 . S
O266 C274 1.315 . S
Cd267 O266 2.223 . S
Cd267 O270 2.297 . S
Cd267 O271 2.439 . S
Cd267 O277 2.240 . S
Cd268 O269 2.240 . S
Cd268 O276 2.223 . S
Cd268 O278 2.297 . S
Cd268 O279 2.439 . S
O269 Cd268 2.240 . S
O269 C274 1.279 . S
O270 Cd267 2.297 . S
O270 C272 1.247 . S
O271 Cd267 2.439 . S
O271 C272 1.208 . S
C272 O270 1.247 . S
C272 O271 1.208 . S
C273 O278 1.247 . S
C273 O279 1.208 . S
C274 O266 1.315 . S
C274 O269 1.279 . S
C275 O276 1.315 . S
C275 O277 1.279 . S
O276 Cd268 2.223 . S
O276 C275 1.315 . S
O277 Cd267 2.240 . S
O277 C275 1.279 . S
O278 Cd268 2.297 . S
O278 C273 1.247 . S
O279 Cd268 2.439 . S
O279 C273 1.208 . S
O280 Cd281 2.223 . S
O280 C288 1.315 . S
Cd281 O280 2.223 . S
Cd281 O284 2.297 . S
Cd281 O285 2.439 . S
Cd281 O291 2.240 . S
Cd282 O283 2.240 . S
Cd282 O290 2.223 . S
Cd282 O292 2.297 . S
Cd282 O293 2.439 . S
O283 Cd282 2.240 . S
O283 C288 1.279 . S
O284 Cd281 2.297 . S
O284 C286 1.247 . S
O285 Cd281 2.439 . S
O285 C286 1.208 . S
C286 O284 1.247 . S
C286 O285 1.208 . S
C287 O292 1.247 . S
C287 O293 1.208 . S
C288 O280 1.315 . S
C288 O283 1.279 . S
C289 O290 1.315 . S
C289 O291 1.279 . S
O290 Cd282 2.223 . S
O290 C289 1.315 . S
O291 Cd281 2.240 . S
O291 C289 1.279 . S
O292 Cd282 2.297 . S
O292 C287 1.247 . S
O293 Cd282 2.439 . S
O293 C287 1.208 . S
O294 Cd295 2.223 . S
O294 C302 1.315 . S
Cd295 O294 2.223 . S
Cd295 O298 2.297 . S
Cd295 O299 2.439 . S
Cd295 O305 2.240 . S
Cd296 O297 2.240 . S
Cd296 O304 2.223 . S
Cd296 O306 2.297 . S
Cd296 O307 2.439 . S
O297 Cd296 2.240 . S
O297 C302 1.279 . S
O298 Cd295 2.297 . S
O298 C300 1.247 . S
O299 Cd295 2.439 . S
O299 C300 1.208 . S
C300 O298 1.247 . S
C300 O299 1.208 . S
C301 O306 1.247 . S
C301 O307 1.208 . S
C302 O294 1.315 . S
C302 O297 1.279 . S
C303 O304 1.315 . S
C303 O305 1.279 . S
O304 Cd296 2.223 . S
O304 C303 1.315 . S
O305 Cd295 2.240 . S
O305 C303 1.279 . S
O306 Cd296 2.297 . S
O306 C301 1.247 . S
O307 Cd296 2.439 . S
O307 C301 1.208 . S
O308 Cd309 2.223 . S
O308 C316 1.315 . S
Cd309 O308 2.223 . S
Cd309 O312 2.297 . S
Cd309 O313 2.439 . S
Cd309 O319 2.240 . S
Cd310 O311 2.240 . S
Cd310 O318 2.223 . S
Cd310 O320 2.297 . S
Cd310 O321 2.439 . S
O311 Cd310 2.240 . S
O311 C316 1.279 . S
O312 Cd309 2.297 . S
O312 C314 1.247 . S
O313 Cd309 2.439 . S
O313 C314 1.208 . S
C314 O312 1.247 . S
C314 O313 1.208 . S
C315 O320 1.247 . S
C315 O321 1.208 . S
C316 O308 1.315 . S
C316 O311 1.279 . S
C317 O318 1.315 . S
C317 O319 1.279 . S
O318 Cd310 2.223 . S
O318 C317 1.315 . S
O319 Cd309 2.240 . S
O319 C317 1.279 . S
O320 Cd310 2.297 . S
O320 C315 1.247 . S
O321 Cd310 2.439 . S
O321 C315 1.208 . S
O322 Cd323 2.223 . S
O322 C330 1.315 . S
Cd323 O322 2.223 . S
Cd323 O326 2.297 . S
Cd323 O327 2.439 . S
Cd323 O333 2.240 . S
Cd324 O325 2.240 . S
Cd324 O332 2.223 . S
Cd324 O334 2.297 . S
Cd324 O335 2.439 . S
O325 Cd324 2.240 . S
O325 C330 1.279 . S
O326 Cd323 2.297 . S
O326 C328 1.247 . S
O327 Cd323 2.439 . S
O327 C328 1.208 . S
C328 O326 1.247 . S
C328 O327 1.208 . S
C329 O334 1.247 . S
C329 O335 1.208 . S
C330 O322 1.315 . S
C330 O325 1.279 . S
C331 O332 1.315 . S
C331 O333 1.279 . S
O332 Cd324 2.223 . S
O332 C331 1.315 . S
O333 Cd323 2.240 . S
O333 C331 1.279 . S
O334 Cd324 2.297 . S
O334 C329 1.247 . S
O335 Cd324 2.439 . S
O335 C329 1.208 . S
H336 C348 0.930 . S
H337 C350 0.930 . S
H338 C351 0.930 . S
H339 C355 0.959 . S
H340 C355 0.959 . S
H341 C355 0.961 . S
H342 C356 0.960 . S
H343 C356 0.961 . S
H344 C356 0.959 . S
H345 C359 0.929 . S
H346 C360 0.931 . S
H347 C362 0.930 . S
C348 H336 0.930 . S
C348 C349 1.399 . S
C348 C353 1.399 . S
C349 C348 1.399 . S
C349 C350 1.376 . S
C350 H337 0.930 . S
C350 C349 1.376 . S
C350 C351 1.388 . S
C351 H338 0.930 . S
C351 C350 1.388 . S
C351 C352 1.390 . S
C352 C351 1.390 . S
C352 C353 1.394 . S
C352 C358 1.465 . S
C353 C348 1.399 . S
C353 C352 1.394 . S
C353 C354 1.516 . S
C354 C353 1.516 . S
C354 C355 1.502 . S
C354 C356 1.561 . S
C354 C357 1.526 . S
C355 H339 0.959 . S
C355 H340 0.959 . S
C355 H341 0.961 . S
C355 C354 1.502 . S
C356 H342 0.960 . S
C356 H343 0.961 . S
C356 H344 0.959 . S
C356 C354 1.561 . S
C357 C354 1.526 . S
C357 C358 1.396 . S
C357 C362 1.390 . S
C358 C352 1.465 . S
C358 C357 1.396 . S
C358 C359 1.399 . S
C359 H345 0.929 . S
C359 C358 1.399 . S
C359 C360 1.385 . S
C360 H346 0.931 . S
C360 C359 1.385 . S
C360 C361 1.389 . S
C361 C360 1.389 . S
C361 C362 1.387 . S
C362 H347 0.930 . S
C362 C357 1.390 . S
C362 C361 1.387 . S
H363 C375 0.930 . S
H364 C377 0.930 . S
H365 C378 0.930 . S
H366 C382 0.959 . S
H367 C382 0.959 . S
H368 C382 0.961 . S
H369 C383 0.960 . S
H370 C383 0.961 . S
H371 C383 0.959 . S
H372 C386 0.929 . S
H373 C387 0.931 . S
H374 C389 0.930 . S
C375 H363 0.930 . S
C375 C376 1.399 . S
C375 C380 1.399 . S
C376 C375 1.399 . S
C376 C377 1.376 . S
C377 H364 0.930 . S
C377 C376 1.376 . S
C377 C378 1.388 . S
C378 H365 0.930 . S
C378 C377 1.388 . S
C378 C379 1.390 . S
C379 C378 1.390 . S
C379 C380 1.394 . S
C379 C385 1.465 . S
C380 C375 1.399 . S
C380 C379 1.394 . S
C380 C381 1.516 . S
C381 C380 1.516 . S
C381 C382 1.502 . S
C381 C383 1.561 . S
C381 C384 1.526 . S
C382 H366 0.959 . S
C382 H367 0.959 . S
C382 H368 0.961 . S
C382 C381 1.502 . S
C383 H369 0.960 . S
C383 H370 0.961 . S
C383 H371 0.959 . S
C383 C381 1.561 . S
C384 C381 1.526 . S
C384 C385 1.396 . S
C384 C389 1.390 . S
C385 C379 1.465 . S
C385 C384 1.396 . S
C385 C386 1.399 . S
C386 H372 0.929 . S
C386 C385 1.399 . S
C386 C387 1.385 . S
C387 H373 0.931 . S
C387 C386 1.385 . S
C387 C388 1.389 . S
C388 C387 1.389 . S
C388 C389 1.387 . S
C389 H374 0.930 . S
C389 C384 1.390 . S
C389 C388 1.387 . S
H390 C402 0.930 . S
H391 C404 0.930 . S
H392 C405 0.930 . S
H393 C409 0.959 . S
H394 C409 0.959 . S
H395 C409 0.961 . S
H396 C410 0.960 . S
H397 C410 0.961 . S
H398 C410 0.959 . S
H399 C413 0.929 . S
H400 C414 0.931 . S
H401 C416 0.930 . S
C402 H390 0.930 . S
C402 C403 1.399 . S
C402 C407 1.399 . S
C403 C402 1.399 . S
C403 C404 1.376 . S
C404 H391 0.930 . S
C404 C403 1.376 . S
C404 C405 1.388 . S
C405 H392 0.930 . S
C405 C404 1.388 . S
C405 C406 1.390 . S
C406 C405 1.390 . S
C406 C407 1.394 . S
C406 C412 1.465 . S
C407 C402 1.399 . S
C407 C406 1.394 . S
C407 C408 1.516 . S
C408 C407 1.516 . S
C408 C409 1.502 . S
C408 C410 1.561 . S
C408 C411 1.526 . S
C409 H393 0.959 . S
C409 H394 0.959 . S
C409 H395 0.961 . S
C409 C408 1.502 . S
C410 H396 0.960 . S
C410 H397 0.961 . S
C410 H398 0.959 . S
C410 C408 1.561 . S
C411 C408 1.526 . S
C411 C412 1.396 . S
C411 C416 1.390 . S
C412 C406 1.465 . S
C412 C411 1.396 . S
C412 C413 1.399 . S
C413 H399 0.929 . S
C413 C412 1.399 . S
C413 C414 1.385 . S
C414 H400 0.931 . S
C414 C413 1.385 . S
C414 C415 1.389 . S
C415 C414 1.389 . S
C415 C416 1.387 . S
C416 H401 0.930 . S
C416 C411 1.390 . S
C416 C415 1.387 . S
H417 C429 0.930 . S
H418 C431 0.930 . S
H419 C432 0.930 . S
H420 C436 0.959 . S
H421 C436 0.959 . S
H422 C436 0.961 . S
H423 C437 0.960 . S
H424 C437 0.961 . S
H425 C437 0.959 . S
H426 C440 0.929 . S
H427 C441 0.931 . S
H428 C443 0.930 . S
C429 H417 0.930 . S
C429 C430 1.399 . S
C429 C434 1.399 . S
C430 C429 1.399 . S
C430 C431 1.376 . S
C431 H418 0.930 . S
C431 C430 1.376 . S
C431 C432 1.388 . S
C432 H419 0.930 . S
C432 C431 1.388 . S
C432 C433 1.390 . S
C433 C432 1.390 . S
C433 C434 1.394 . S
C433 C439 1.465 . S
C434 C429 1.399 . S
C434 C433 1.394 . S
C434 C435 1.516 . S
C435 C434 1.516 . S
C435 C436 1.502 . S
C435 C437 1.561 . S
C435 C438 1.526 . S
C436 H420 0.959 . S
C436 H421 0.959 . S
C436 H422 0.961 . S
C436 C435 1.502 . S
C437 H423 0.960 . S
C437 H424 0.961 . S
C437 H425 0.959 . S
C437 C435 1.561 . S
C438 C435 1.526 . S
C438 C439 1.396 . S
C438 C443 1.390 . S
C439 C433 1.465 . S
C439 C438 1.396 . S
C439 C440 1.399 . S
C440 H426 0.929 . S
C440 C439 1.399 . S
C440 C441 1.385 . S
C441 H427 0.931 . S
C441 C440 1.385 . S
C441 C442 1.389 . S
C442 C441 1.389 . S
C442 C443 1.387 . S
C443 H428 0.930 . S
C443 C438 1.390 . S
C443 C442 1.387 . S
H444 C456 0.930 . S
H445 C458 0.930 . S
H446 C459 0.930 . S
H447 C463 0.959 . S
H448 C463 0.959 . S
H449 C463 0.961 . S
H450 C464 0.960 . S
H451 C464 0.961 . S
H452 C464 0.959 . S
H453 C467 0.929 . S
H454 C468 0.931 . S
H455 C470 0.930 . S
C456 H444 0.930 . S
C456 C457 1.399 . S
C456 C461 1.399 . S
C457 C456 1.399 . S
C457 C458 1.376 . S
C458 H445 0.930 . S
C458 C457 1.376 . S
C458 C459 1.388 . S
C459 H446 0.930 . S
C459 C458 1.388 . S
C459 C460 1.390 . S
C460 C459 1.390 . S
C460 C461 1.394 . S
C460 C466 1.465 . S
C461 C456 1.399 . S
C461 C460 1.394 . S
C461 C462 1.516 . S
C462 C461 1.516 . S
C462 C463 1.502 . S
C462 C464 1.561 . S
C462 C465 1.526 . S
C463 H447 0.959 . S
C463 H448 0.959 . S
C463 H449 0.961 . S
C463 C462 1.502 . S
C464 H450 0.960 . S
C464 H451 0.961 . S
C464 H452 0.959 . S
C464 C462 1.561 . S
C465 C462 1.526 . S
C465 C466 1.396 . S
C465 C470 1.390 . S
C466 C460 1.465 . S
C466 C465 1.396 . S
C466 C467 1.399 . S
C467 H453 0.929 . S
C467 C466 1.399 . S
C467 C468 1.385 . S
C468 H454 0.931 . S
C468 C467 1.385 . S
C468 C469 1.389 . S
C469 C468 1.389 . S
C469 C470 1.387 . S
C470 H455 0.930 . S
C470 C465 1.390 . S
C470 C469 1.387 . S
H471 C483 0.930 . S
H472 C485 0.930 . S
H473 C486 0.930 . S
H474 C490 0.959 . S
H475 C490 0.959 . S
H476 C490 0.961 . S
H477 C491 0.960 . S
H478 C491 0.961 . S
H479 C491 0.959 . S
H480 C494 0.929 . S
H481 C495 0.931 . S
H482 C497 0.930 . S
C483 H471 0.930 . S
C483 C484 1.399 . S
C483 C488 1.399 . S
C484 C483 1.399 . S
C484 C485 1.376 . S
C485 H472 0.930 . S
C485 C484 1.376 . S
C485 C486 1.388 . S
C486 H473 0.930 . S
C486 C485 1.388 . S
C486 C487 1.390 . S
C487 C486 1.390 . S
C487 C488 1.394 . S
C487 C493 1.465 . S
C488 C483 1.399 . S
C488 C487 1.394 . S
C488 C489 1.516 . S
C489 C488 1.516 . S
C489 C490 1.502 . S
C489 C491 1.561 . S
C489 C492 1.526 . S
C490 H474 0.959 . S
C490 H475 0.959 . S
C490 H476 0.961 . S
C490 C489 1.502 . S
C491 H477 0.960 . S
C491 H478 0.961 . S
C491 H479 0.959 . S
C491 C489 1.561 . S
C492 C489 1.526 . S
C492 C493 1.396 . S
C492 C497 1.390 . S
C493 C487 1.465 . S
C493 C492 1.396 . S
C493 C494 1.399 . S
C494 H480 0.929 . S
C494 C493 1.399 . S
C494 C495 1.385 . S
C495 H481 0.931 . S
C495 C494 1.385 . S
C495 C496 1.389 . S
C496 C495 1.389 . S
C496 C497 1.387 . S
C497 H482 0.930 . S
C497 C492 1.390 . S
C497 C496 1.387 . S
H498 C510 0.930 . S
H499 C512 0.930 . S
H500 C513 0.930 . S
H501 C517 0.959 . S
H502 C517 0.959 . S
H503 C517 0.961 . S
H504 C518 0.960 . S
H505 C518 0.961 . S
H506 C518 0.959 . S
H507 C521 0.929 . S
H508 C522 0.931 . S
H509 C524 0.930 . S
C510 H498 0.930 . S
C510 C511 1.399 . S
C510 C515 1.399 . S
C511 C510 1.399 . S
C511 C512 1.376 . S
C512 H499 0.930 . S
C512 C511 1.376 . S
C512 C513 1.388 . S
C513 H500 0.930 . S
C513 C512 1.388 . S
C513 C514 1.390 . S
C514 C513 1.390 . S
C514 C515 1.394 . S
C514 C520 1.465 . S
C515 C510 1.399 . S
C515 C514 1.394 . S
C515 C516 1.516 . S
C516 C515 1.516 . S
C516 C517 1.502 . S
C516 C518 1.561 . S
C516 C519 1.526 . S
C517 H501 0.959 . S
C517 H502 0.959 . S
C517 H503 0.961 . S
C517 C516 1.502 . S
C518 H504 0.960 . S
C518 H505 0.961 . S
C518 H506 0.959 . S
C518 C516 1.561 . S
C519 C516 1.526 . S
C519 C520 1.396 . S
C519 C524 1.390 . S
C520 C514 1.465 . S
C520 C519 1.396 . S
C520 C521 1.399 . S
C521 H507 0.929 . S
C521 C520 1.399 . S
C521 C522 1.385 . S
C522 H508 0.931 . S
C522 C521 1.385 . S
C522 C523 1.389 . S
C523 C522 1.389 . S
C523 C524 1.387 . S
C524 H509 0.930 . S
C524 C519 1.390 . S
C524 C523 1.387 . S
H525 C537 0.930 . S
H526 C539 0.930 . S
H527 C540 0.930 . S
H528 C544 0.959 . S
H529 C544 0.959 . S
H530 C544 0.961 . S
H531 C545 0.960 . S
H532 C545 0.961 . S
H533 C545 0.959 . S
H534 C548 0.929 . S
H535 C549 0.931 . S
H536 C551 0.930 . S
C537 H525 0.930 . S
C537 C538 1.399 . S
C537 C542 1.399 . S
C538 C537 1.399 . S
C538 C539 1.376 . S
C539 H526 0.930 . S
C539 C538 1.376 . S
C539 C540 1.388 . S
C540 H527 0.930 . S
C540 C539 1.388 . S
C540 C541 1.390 . S
C541 C540 1.390 . S
C541 C542 1.394 . S
C541 C547 1.465 . S
C542 C537 1.399 . S
C542 C541 1.394 . S
C542 C543 1.516 . S
C543 C542 1.516 . S
C543 C544 1.502 . S
C543 C545 1.561 . S
C543 C546 1.526 . S
C544 H528 0.959 . S
C544 H529 0.959 . S
C544 H530 0.961 . S
C544 C543 1.502 . S
C545 H531 0.960 . S
C545 H532 0.961 . S
C545 H533 0.959 . S
C545 C543 1.561 . S
C546 C543 1.526 . S
C546 C547 1.396 . S
C546 C551 1.390 . S
C547 C541 1.465 . S
C547 C546 1.396 . S
C547 C548 1.399 . S
C548 H534 0.929 . S
C548 C547 1.399 . S
C548 C549 1.385 . S
C549 H535 0.931 . S
C549 C548 1.385 . S
C549 C550 1.389 . S
C550 C549 1.389 . S
C550 C551 1.387 . S
C551 H536 0.930 . S
C551 C546 1.390 . S
C551 C550 1.387 . S
H552 C564 0.930 . S
H553 C566 0.930 . S
H554 C567 0.930 . S
H555 C571 0.959 . S
H556 C571 0.959 . S
H557 C571 0.961 . S
H558 C572 0.960 . S
H559 C572 0.961 . S
H560 C572 0.959 . S
H561 C575 0.929 . S
H562 C576 0.931 . S
H563 C578 0.930 . S
C564 H552 0.930 . S
C564 C565 1.399 . S
C564 C569 1.399 . S
C565 C564 1.399 . S
C565 C566 1.376 . S
C566 H553 0.930 . S
C566 C565 1.376 . S
C566 C567 1.388 . S
C567 H554 0.930 . S
C567 C566 1.388 . S
C567 C568 1.390 . S
C568 C567 1.390 . S
C568 C569 1.394 . S
C568 C574 1.465 . S
C569 C564 1.399 . S
C569 C568 1.394 . S
C569 C570 1.516 . S
C570 C569 1.516 . S
C570 C571 1.502 . S
C570 C572 1.561 . S
C570 C573 1.526 . S
C571 H555 0.959 . S
C571 H556 0.959 . S
C571 H557 0.961 . S
C571 C570 1.502 . S
C572 H558 0.960 . S
C572 H559 0.961 . S
C572 H560 0.959 . S
C572 C570 1.561 . S
C573 C570 1.526 . S
C573 C574 1.396 . S
C573 C578 1.390 . S
C574 C568 1.465 . S
C574 C573 1.396 . S
C574 C575 1.399 . S
C575 H561 0.929 . S
C575 C574 1.399 . S
C575 C576 1.385 . S
C576 H562 0.931 . S
C576 C575 1.385 . S
C576 C577 1.389 . S
C577 C576 1.389 . S
C577 C578 1.387 . S
C578 H563 0.930 . S
C578 C573 1.390 . S
C578 C577 1.387 . S
H579 C591 0.930 . S
H580 C593 0.930 . S
H581 C594 0.930 . S
H582 C598 0.959 . S
H583 C598 0.959 . S
H584 C598 0.961 . S
H585 C599 0.960 . S
H586 C599 0.961 . S
H587 C599 0.959 . S
H588 C602 0.929 . S
H589 C603 0.931 . S
H590 C605 0.930 . S
C591 H579 0.930 . S
C591 C592 1.399 . S
C591 C596 1.399 . S
C592 C591 1.399 . S
C592 C593 1.376 . S
C593 H580 0.930 . S
C593 C592 1.376 . S
C593 C594 1.388 . S
C594 H581 0.930 . S
C594 C593 1.388 . S
C594 C595 1.390 . S
C595 C594 1.390 . S
C595 C596 1.394 . S
C595 C601 1.465 . S
C596 C591 1.399 . S
C596 C595 1.394 . S
C596 C597 1.516 . S
C597 C596 1.516 . S
C597 C598 1.502 . S
C597 C599 1.561 . S
C597 C600 1.526 . S
C598 H582 0.959 . S
C598 H583 0.959 . S
C598 H584 0.961 . S
C598 C597 1.502 . S
C599 H585 0.960 . S
C599 H586 0.961 . S
C599 H587 0.959 . S
C599 C597 1.561 . S
C600 C597 1.526 . S
C600 C601 1.396 . S
C600 C605 1.390 . S
C601 C595 1.465 . S
C601 C600 1.396 . S
C601 C602 1.399 . S
C602 H588 0.929 . S
C602 C601 1.399 . S
C602 C603 1.385 . S
C603 H589 0.931 . S
C603 C602 1.385 . S
C603 C604 1.389 . S
C604 C603 1.389 . S
C604 C605 1.387 . S
C605 H590 0.930 . S
C605 C600 1.390 . S
C605 C604 1.387 . S
H606 C618 0.930 . S
H607 C620 0.930 . S
H608 C621 0.930 . S
H609 C625 0.959 . S
H610 C625 0.959 . S
H611 C625 0.961 . S
H612 C626 0.960 . S
H613 C626 0.961 . S
H614 C626 0.959 . S
H615 C629 0.929 . S
H616 C630 0.931 . S
H617 C632 0.930 . S
C618 H606 0.930 . S
C618 C619 1.399 . S
C618 C623 1.399 . S
C619 C618 1.399 . S
C619 C620 1.376 . S
C620 H607 0.930 . S
C620 C619 1.376 . S
C620 C621 1.388 . S
C621 H608 0.930 . S
C621 C620 1.388 . S
C621 C622 1.390 . S
C622 C621 1.390 . S
C622 C623 1.394 . S
C622 C628 1.465 . S
C623 C618 1.399 . S
C623 C622 1.394 . S
C623 C624 1.516 . S
C624 C623 1.516 . S
C624 C625 1.502 . S
C624 C626 1.561 . S
C624 C627 1.526 . S
C625 H609 0.959 . S
C625 H610 0.959 . S
C625 H611 0.961 . S
C625 C624 1.502 . S
C626 H612 0.960 . S
C626 H613 0.961 . S
C626 H614 0.959 . S
C626 C624 1.561 . S
C627 C624 1.526 . S
C627 C628 1.396 . S
C627 C632 1.390 . S
C628 C622 1.465 . S
C628 C627 1.396 . S
C628 C629 1.399 . S
C629 H615 0.929 . S
C629 C628 1.399 . S
C629 C630 1.385 . S
C630 H616 0.931 . S
C630 C629 1.385 . S
C630 C631 1.389 . S
C631 C630 1.389 . S
C631 C632 1.387 . S
C632 H617 0.930 . S
C632 C627 1.390 . S
C632 C631 1.387 . S
H633 C645 0.930 . S
H634 C647 0.930 . S
H635 C648 0.930 . S
H636 C652 0.959 . S
H637 C652 0.959 . S
H638 C652 0.961 . S
H639 C653 0.960 . S
H640 C653 0.961 . S
H641 C653 0.959 . S
H642 C656 0.929 . S
H643 C657 0.931 . S
H644 C659 0.930 . S
C645 H633 0.930 . S
C645 C646 1.399 . S
C645 C650 1.399 . S
C646 C645 1.399 . S
C646 C647 1.376 . S
C647 H634 0.930 . S
C647 C646 1.376 . S
C647 C648 1.388 . S
C648 H635 0.930 . S
C648 C647 1.388 . S
C648 C649 1.390 . S
C649 C648 1.390 . S
C649 C650 1.394 . S
C649 C655 1.465 . S
C650 C645 1.399 . S
C650 C649 1.394 . S
C650 C651 1.516 . S
C651 C650 1.516 . S
C651 C652 1.502 . S
C651 C653 1.561 . S
C651 C654 1.526 . S
C652 H636 0.959 . S
C652 H637 0.959 . S
C652 H638 0.961 . S
C652 C651 1.502 . S
C653 H639 0.960 . S
C653 H640 0.961 . S
C653 H641 0.959 . S
C653 C651 1.561 . S
C654 C651 1.526 . S
C654 C655 1.396 . S
C654 C659 1.390 . S
C655 C649 1.465 . S
C655 C654 1.396 . S
C655 C656 1.399 . S
C656 H642 0.929 . S
C656 C655 1.399 . S
C656 C657 1.385 . S
C657 H643 0.931 . S
C657 C656 1.385 . S
C657 C658 1.389 . S
C658 C657 1.389 . S
C658 C659 1.387 . S
C659 H644 0.930 . S
C659 C654 1.390 . S
C659 C658 1.387 . S
H660 C672 0.930 . S
H661 C674 0.930 . S
H662 C675 0.930 1_545 S
H663 C679 0.959 . S
H664 C679 0.959 . S
H665 C679 0.961 . S
H666 C680 0.960 . S
H667 C680 0.961 1_545 S
H668 C680 0.959 1_545 S
H669 C683 0.929 . S
H670 C684 0.931 . S
H671 C686 0.930 . S
C672 H660 0.930 . S
C672 C673 1.399 . S
C672 C677 1.399 . S
C673 C672 1.399 . S
C673 C674 1.376 . S
C674 H661 0.930 . S
C674 C673 1.376 . S
C674 C675 1.388 . S
C675 H662 0.930 1_565 S
C675 C674 1.388 . S
C675 C676 1.390 . S
C676 C675 1.390 . S
C676 C677 1.394 . S
C676 C682 1.465 1_565 S
C677 C672 1.399 . S
C677 C676 1.394 . S
C677 C678 1.516 . S
C678 C677 1.516 . S
C678 C679 1.502 . S
C678 C680 1.561 . S
C678 C681 1.526 1_565 S
C679 H663 0.959 . S
C679 H664 0.959 . S
C679 H665 0.961 . S
C679 C678 1.502 . S
C680 H666 0.960 . S
C680 H667 0.961 1_565 S
C680 H668 0.959 1_565 S
C680 C678 1.561 . S
C681 C678 1.526 1_545 S
C681 C682 1.396 . S
C681 C686 1.390 . S
C682 C676 1.465 1_545 S
C682 C681 1.396 . S
C682 C683 1.399 . S
C683 H669 0.929 . S
C683 C682 1.399 . S
C683 C684 1.385 . S
C684 H670 0.931 . S
C684 C683 1.385 . S
C684 C685 1.389 . S
C685 C684 1.389 . S
C685 C686 1.387 . S
C686 H671 0.930 . S
C686 C681 1.390 . S
C686 C685 1.387 . S
H687 C699 0.930 . S
H688 C701 0.930 . S
H689 C702 0.930 . S
H690 C706 0.959 1_655 S
H691 C706 0.959 . S
H692 C706 0.961 1_655 S
H693 C707 0.960 . S
H694 C707 0.961 . S
H695 C707 0.959 . S
H696 C710 0.929 . S
H697 C711 0.931 . S
H698 C713 0.930 . S
C699 H687 0.930 . S
C699 C700 1.399 . S
C699 C704 1.399 . S
C700 C699 1.399 . S
C700 C701 1.376 . S
C701 H688 0.930 . S
C701 C700 1.376 . S
C701 C702 1.388 . S
C702 H689 0.930 . S
C702 C701 1.388 . S
C702 C703 1.390 . S
C703 C702 1.390 . S
C703 C704 1.394 . S
C703 C709 1.465 1_655 S
C704 C699 1.399 . S
C704 C703 1.394 . S
C704 C705 1.516 1_655 S
C705 C704 1.516 1_455 S
C705 C706 1.502 . S
C705 C707 1.561 . S
C705 C708 1.526 . S
C706 H690 0.959 1_455 S
C706 H691 0.959 . S
C706 H692 0.961 1_455 S
C706 C705 1.502 . S
C707 H693 0.960 . S
C707 H694 0.961 . S
C707 H695 0.959 . S
C707 C705 1.561 . S
C708 C705 1.526 . S
C708 C709 1.396 . S
C708 C713 1.390 . S
C709 C703 1.465 1_455 S
C709 C708 1.396 . S
C709 C710 1.399 . S
C710 H696 0.929 . S
C710 C709 1.399 . S
C710 C711 1.385 . S
C711 H697 0.931 . S
C711 C710 1.385 . S
C711 C712 1.389 . S
C712 C711 1.389 . S
C712 C713 1.387 . S
C713 H698 0.930 . S
C713 C708 1.390 . S
C713 C712 1.387 . S
H714 C726 0.930 . S
H715 C728 0.930 . S
H716 C729 0.930 . S
H717 C733 0.959 . S
H718 C733 0.959 . S
H719 C733 0.961 . S
H720 C734 0.960 . S
H721 C734 0.961 . S
H722 C734 0.959 . S
H723 C737 0.929 1_545 S
H724 C738 0.931 . S
H725 C740 0.930 . S
C726 H714 0.930 . S
C726 C727 1.399 . S
C726 C731 1.399 . S
C727 C726 1.399 . S
C727 C728 1.376 . S
C728 H715 0.930 . S
C728 C727 1.376 . S
C728 C729 1.388 . S
C729 H716 0.930 . S
C729 C728 1.388 . S
C729 C730 1.390 . S
C730 C729 1.390 . S
C730 C731 1.394 . S
C730 C736 1.465 1_545 S
C731 C726 1.399 . S
C731 C730 1.394 . S
C731 C732 1.516 1_545 S
C732 C731 1.516 1_565 S
C732 C733 1.502 . S
C732 C734 1.561 . S
C732 C735 1.526 . S
C733 H717 0.959 . S
C733 H718 0.959 . S
C733 H719 0.961 . S
C733 C732 1.502 . S
C734 H720 0.960 . S
C734 H721 0.961 . S
C734 H722 0.959 . S
C734 C732 1.561 . S
C735 C732 1.526 . S
C735 C736 1.396 . S
C735 C740 1.390 . S
C736 C730 1.465 1_565 S
C736 C735 1.396 . S
C736 C737 1.399 . S
C737 H723 0.929 1_565 S
C737 C736 1.399 . S
C737 C738 1.385 . S
C738 H724 0.931 . S
C738 C737 1.385 . S
C738 C739 1.389 . S
C739 C738 1.389 . S
C739 C740 1.387 . S
C740 H725 0.930 . S
C740 C735 1.390 . S
C740 C739 1.387 . S
H741 C753 0.930 . S
H742 C755 0.930 . S
H743 C756 0.930 . S
H744 C760 0.959 . S
H745 C760 0.959 1_655 S
H746 C760 0.961 . S
H747 C761 0.960 . S
H748 C761 0.961 . S
H749 C761 0.959 . S
H750 C764 0.929 . S
H751 C765 0.931 . S
H752 C767 0.930 . S
C753 H741 0.930 . S
C753 C754 1.399 . S
C753 C758 1.399 . S
C754 C753 1.399 . S
C754 C755 1.376 . S
C755 H742 0.930 . S
C755 C754 1.376 . S
C755 C756 1.388 . S
C756 H743 0.930 . S
C756 C755 1.388 . S
C756 C757 1.390 . S
C757 C756 1.390 . S
C757 C758 1.394 . S
C757 C763 1.465 1_455 S
C758 C753 1.399 . S
C758 C757 1.394 . S
C758 C759 1.516 1_455 S
C759 C758 1.516 1_655 S
C759 C760 1.502 1_655 S
C759 C761 1.561 . S
C759 C762 1.526 . S
C760 H744 0.959 . S
C760 H745 0.959 1_455 S
C760 H746 0.961 . S
C760 C759 1.502 1_455 S
C761 H747 0.960 . S
C761 H748 0.961 . S
C761 H749 0.959 . S
C761 C759 1.561 . S
C762 C759 1.526 . S
C762 C763 1.396 . S
C762 C767 1.390 . S
C763 C757 1.465 1_655 S
C763 C762 1.396 . S
C763 C764 1.399 . S
C764 H750 0.929 . S
C764 C763 1.399 . S
C764 C765 1.385 . S
C765 H751 0.931 . S
C765 C764 1.385 . S
C765 C766 1.389 . S
C766 C765 1.389 . S
C766 C767 1.387 . S
C767 H752 0.930 . S
C767 C762 1.390 . S
C767 C766 1.387 . S
H768 C780 0.930 . S
H769 C782 0.930 . S
H770 C783 0.930 . S
H771 C787 0.959 1_545 S
H772 C787 0.962 . S
H773 C787 0.961 . S
H774 C788 0.960 . S
H775 C788 0.961 . S
H776 C788 0.959 . S
H777 C791 0.929 . S
H778 C792 0.931 . S
H779 C794 0.930 . S
C780 H768 0.930 . S
C780 C781 1.399 . S
C780 C785 1.399 . S
C781 C780 1.399 . S
C781 C782 1.376 . S
C782 H769 0.930 . S
C782 C781 1.376 . S
C782 C783 1.388 . S
C783 H770 0.930 . S
C783 C782 1.388 . S
C783 C784 1.390 . S
C784 C783 1.390 . S
C784 C785 1.394 . S
C784 C790 1.465 1_565 S
C785 C780 1.399 . S
C785 C784 1.394 . S
C785 C786 1.516 . S
C786 C785 1.516 . S
C786 C787 1.502 . S
C786 C788 1.561 . S
C786 C789 1.526 1_565 S
C787 H771 0.959 1_565 S
C787 H772 0.962 . S
C787 H773 0.961 . S
C787 C786 1.502 . S
C788 H774 0.960 . S
C788 H775 0.961 . S
C788 H776 0.959 . S
C788 C786 1.561 . S
C789 C786 1.526 1_545 S
C789 C790 1.396 . S
C789 C794 1.390 . S
C790 C784 1.465 1_545 S
C790 C789 1.396 . S
C790 C791 1.399 . S
C791 H777 0.929 . S
C791 C790 1.399 . S
C791 C792 1.385 . S
C792 H778 0.931 . S
C792 C791 1.385 . S
C792 C793 1.389 . S
C793 C792 1.389 . S
C793 C794 1.387 . S
C794 H779 0.930 . S
C794 C789 1.390 . S
C794 C793 1.387 . S
H795 C807 0.930 . S
H796 C809 0.930 . S
H797 C810 0.930 . S
H798 C814 0.959 . S
H799 C814 0.959 . S
H800 C814 0.961 . S
H801 C815 0.960 . S
H802 C815 0.961 . S
H803 C815 0.959 . S
H804 C818 0.929 . S
H805 C819 0.931 . S
H806 C821 0.930 . S
C807 H795 0.930 . S
C807 C808 1.399 . S
C807 C812 1.399 . S
C808 C807 1.399 . S
C808 C809 1.376 . S
C809 H796 0.930 . S
C809 C808 1.376 . S
C809 C810 1.388 . S
C810 H797 0.930 . S
C810 C809 1.388 . S
C810 C811 1.390 . S
C811 C810 1.390 . S
C811 C812 1.394 . S
C811 C817 1.465 1_655 S
C812 C807 1.399 . S
C812 C811 1.394 . S
C812 C813 1.498 1_655 S
C813 C812 1.498 1_455 S
C813 C814 1.487 1_455 S
C813 C815 1.578 . S
C813 C816 1.545 . S
C814 H798 0.959 . S
C814 H799 0.959 . S
C814 H800 0.961 . S
C814 C813 1.487 1_655 S
C815 H801 0.960 . S
C815 H802 0.961 . S
C815 H803 0.959 . S
C815 C813 1.578 . S
C816 C813 1.545 . S
C816 C817 1.396 . S
C816 C821 1.390 . S
C817 C811 1.465 1_455 S
C817 C816 1.396 . S
C817 C818 1.399 . S
C818 H804 0.929 . S
C818 C817 1.399 . S
C818 C819 1.385 . S
C819 H805 0.931 . S
C819 C818 1.385 . S
C819 C820 1.389 . S
C820 C819 1.389 . S
C820 C821 1.387 . S
C821 H806 0.930 . S
C821 C816 1.390 . S
C821 C820 1.387 . S
H822 C834 0.930 . S
H823 C836 0.930 . S
H824 C837 0.930 1_545 S
H825 C841 0.959 . S
H826 C841 0.959 . S
H827 C841 0.961 . S
H828 C842 0.960 . S
H829 C842 0.961 . S
H830 C842 0.959 . S
H831 C845 0.929 . S
H832 C846 0.931 . S
H833 C848 0.930 . S
C834 H822 0.930 . S
C834 C835 1.399 . S
C834 C839 1.399 . S
C835 C834 1.399 . S
C835 C836 1.376 . S
C836 H823 0.930 . S
C836 C835 1.376 . S
C836 C837 1.388 . S
C837 H824 0.930 1_565 S
C837 C836 1.388 . S
C837 C838 1.390 . S
C838 C837 1.390 . S
C838 C839 1.394 . S
C838 C844 1.465 1_565 S
C839 C834 1.399 . S
C839 C838 1.394 . S
C839 C840 1.516 . S
C840 C839 1.516 . S
C840 C841 1.502 . S
C840 C842 1.561 . S
C840 C843 1.526 1_565 S
C841 H825 0.959 . S
C841 H826 0.959 . S
C841 H827 0.961 . S
C841 C840 1.502 . S
C842 H828 0.960 . S
C842 H829 0.961 . S
C842 H830 0.959 . S
C842 C840 1.561 . S
C843 C840 1.526 1_545 S
C843 C844 1.396 . S
C843 C848 1.390 . S
C844 C838 1.465 1_545 S
C844 C843 1.396 . S
C844 C845 1.399 . S
C845 H831 0.929 . S
C845 C844 1.399 . S
C845 C846 1.385 . S
C846 H832 0.931 . S
C846 C845 1.385 . S
C846 C847 1.389 . S
C847 C846 1.389 . S
C847 C848 1.387 . S
C848 H833 0.930 . S
C848 C843 1.390 . S
C848 C847 1.387 . S
H849 C861 0.930 . S
H850 C863 0.930 . S
H851 C864 0.930 . S
H852 C868 0.959 . S
H853 C868 0.959 . S
H854 C868 0.961 . S
H855 C869 0.949 1_455 S
H856 C869 0.961 . S
H857 C869 0.959 1_455 S
H858 C872 0.929 1_455 S
H859 C873 0.931 . S
H860 C875 0.930 . S
C861 H849 0.930 . S
C861 C862 1.399 . S
C861 C866 1.399 . S
C862 C861 1.399 . S
C862 C863 1.376 . S
C863 H850 0.930 . S
C863 C862 1.376 . S
C863 C864 1.388 . S
C864 H851 0.930 . S
C864 C863 1.388 . S
C864 C865 1.390 . S
C865 C864 1.390 . S
C865 C866 1.394 . S
C865 C871 1.465 1_455 S
C866 C861 1.399 . S
C866 C865 1.394 . S
C866 C867 1.516 1_455 S
C867 C866 1.516 1_655 S
C867 C868 1.502 . S
C867 C869 1.561 . S
C867 C870 1.526 . S
C868 H852 0.959 . S
C868 H853 0.959 . S
C868 H854 0.961 . S
C868 C867 1.502 . S
C869 H855 0.949 1_655 S
C869 H856 0.961 . S
C869 H857 0.959 1_655 S
C869 C867 1.561 . S
C870 C867 1.526 . S
C870 C871 1.396 . S
C870 C875 1.390 . S
C871 C865 1.465 1_655 S
C871 C870 1.396 . S
C871 C872 1.399 . S
C872 H858 0.929 1_655 S
C872 C871 1.399 . S
C872 C873 1.385 . S
C873 H859 0.931 . S
C873 C872 1.385 . S
C873 C874 1.389 . S
C874 C873 1.389 . S
C874 C875 1.387 . S
C875 H860 0.930 . S
C875 C870 1.390 . S
C875 C874 1.387 . S
H876 C888 0.930 . S
H877 C890 0.930 . S
H878 C891 0.930 1_554 S
H879 C895 0.959 . S
H880 C895 0.959 . S
H881 C895 0.961 . S
H882 C896 0.960 . S
H883 C896 0.961 . S
H884 C896 0.959 . S
H885 C899 0.929 . S
H886 C900 0.931 . S
H887 C902 0.930 . S
C888 H876 0.930 . S
C888 C889 1.399 . S
C888 C893 1.399 . S
C889 C888 1.399 . S
C889 C890 1.376 . S
C890 H877 0.930 . S
C890 C889 1.376 . S
C890 C891 1.388 . S
C891 H878 0.930 1_556 S
C891 C890 1.388 . S
C891 C892 1.390 . S
C892 C891 1.390 . S
C892 C893 1.394 . S
C892 C898 1.465 1_556 S
C893 C888 1.399 . S
C893 C892 1.394 . S
C893 C894 1.516 . S
C894 C893 1.516 . S
C894 C895 1.502 . S
C894 C896 1.561 . S
C894 C897 1.526 1_556 S
C895 H879 0.959 . S
C895 H880 0.959 . S
C895 H881 0.961 . S
C895 C894 1.502 . S
C896 H882 0.960 . S
C896 H883 0.961 . S
C896 H884 0.959 . S
C896 C894 1.561 . S
C897 C894 1.526 1_554 S
C897 C898 1.396 . S
C897 C902 1.390 . S
C898 C892 1.465 1_554 S
C898 C897 1.396 . S
C898 C899 1.399 . S
C899 H885 0.929 . S
C899 C898 1.399 . S
C899 C900 1.385 . S
C900 H886 0.931 . S
C900 C899 1.385 . S
C900 C901 1.389 . S
C901 C900 1.389 . S
C901 C902 1.387 . S
C902 H887 0.930 . S
C902 C897 1.390 . S
C902 C901 1.387 . S
H903 C915 0.930 . S
H904 C917 0.930 . S
H905 C918 0.930 1_556 S
H906 C922 0.959 . S
H907 C922 0.959 . S
H908 C922 0.961 . S
H909 C923 0.960 . S
H910 C923 0.961 . S
H911 C923 0.959 . S
H912 C926 0.929 . S
H913 C927 0.931 . S
H914 C929 0.930 . S
C915 H903 0.930 . S
C915 C916 1.399 . S
C915 C920 1.399 . S
C916 C915 1.399 . S
C916 C917 1.376 . S
C917 H904 0.930 . S
C917 C916 1.376 . S
C917 C918 1.388 . S
C918 H905 0.930 1_554 S
C918 C917 1.388 . S
C918 C919 1.390 . S
C919 C918 1.390 . S
C919 C920 1.394 . S
C919 C925 1.465 1_554 S
C920 C915 1.399 . S
C920 C919 1.394 . S
C920 C921 1.516 . S
C921 C920 1.516 . S
C921 C922 1.502 . S
C921 C923 1.561 . S
C921 C924 1.526 1_554 S
C922 H906 0.959 . S
C922 H907 0.959 . S
C922 H908 0.961 . S
C922 C921 1.502 . S
C923 H909 0.960 . S
C923 H910 0.961 . S
C923 H911 0.959 . S
C923 C921 1.561 . S
C924 C921 1.526 1_556 S
C924 C925 1.396 . S
C924 C929 1.390 . S
C925 C919 1.465 1_556 S
C925 C924 1.396 . S
C925 C926 1.399 . S
C926 H912 0.929 . S
C926 C925 1.399 . S
C926 C927 1.385 . S
C927 H913 0.931 . S
C927 C926 1.385 . S
C927 C928 1.389 . S
C928 C927 1.389 . S
C928 C929 1.387 . S
C929 H914 0.930 . S
C929 C924 1.390 . S
C929 C928 1.387 . S
H930 C942 0.930 . S
H931 C944 0.930 . S
H932 C945 0.930 . S
H933 C949 0.959 . S
H934 C949 0.959 . S
H935 C949 0.961 . S
H936 C950 0.960 . S
H937 C950 0.961 . S
H938 C950 0.959 . S
H939 C953 0.929 1_556 S
H940 C954 0.931 . S
H941 C956 0.930 . S
C942 H930 0.930 . S
C942 C943 1.399 . S
C942 C947 1.399 . S
C943 C942 1.399 . S
C943 C944 1.376 . S
C944 H931 0.930 . S
C944 C943 1.376 . S
C944 C945 1.388 . S
C945 H932 0.930 . S
C945 C944 1.388 . S
C945 C946 1.390 . S
C946 C945 1.390 . S
C946 C947 1.394 . S
C946 C952 1.465 1_556 S
C947 C942 1.399 . S
C947 C946 1.394 . S
C947 C948 1.516 1_556 S
C948 C947 1.516 1_554 S
C948 C949 1.502 . S
C948 C950 1.561 . S
C948 C951 1.526 . S
C949 H933 0.959 . S
C949 H934 0.959 . S
C949 H935 0.961 . S
C949 C948 1.502 . S
C950 H936 0.960 . S
C950 H937 0.961 . S
C950 H938 0.959 . S
C950 C948 1.561 . S
C951 C948 1.526 . S
C951 C952 1.396 . S
C951 C956 1.390 . S
C952 C946 1.465 1_554 S
C952 C951 1.396 . S
C952 C953 1.399 . S
C953 H939 0.929 1_554 S
C953 C952 1.399 . S
C953 C954 1.385 . S
C954 H940 0.931 . S
C954 C953 1.385 . S
C954 C955 1.389 . S
C955 C954 1.389 . S
C955 C956 1.387 . S
C956 H941 0.930 . S
C956 C951 1.390 . S
C956 C955 1.387 . S
H957 C969 0.930 . S
H958 C971 0.930 . S
H959 C972 0.930 . S
H960 C976 0.959 1_554 S
H961 C976 0.959 . S
H962 C976 0.961 1_554 S
H963 C977 0.960 . S
H964 C977 0.961 . S
H965 C977 0.959 . S
H966 C980 0.929 . S
H967 C981 0.931 . S
H968 C983 0.930 . S
C969 H957 0.930 . S
C969 C970 1.399 . S
C969 C974 1.399 . S
C970 C969 1.399 . S
C970 C971 1.376 . S
C971 H958 0.930 . S
C971 C970 1.376 . S
C971 C972 1.388 . S
C972 H959 0.930 . S
C972 C971 1.388 . S
C972 C973 1.390 . S
C973 C972 1.390 . S
C973 C974 1.394 . S
C973 C979 1.465 1_554 S
C974 C969 1.399 . S
C974 C973 1.394 . S
C974 C975 1.516 1_554 S
C975 C974 1.516 1_556 S
C975 C976 1.502 . S
C975 C977 1.561 . S
C975 C978 1.526 . S
C976 H960 0.959 1_556 S
C976 H961 0.959 . S
C976 H962 0.961 1_556 S
C976 C975 1.502 . S
C977 H963 0.960 . S
C977 H964 0.961 . S
C977 H965 0.959 . S
C977 C975 1.561 . S
C978 C975 1.526 . S
C978 C979 1.396 . S
C978 C983 1.390 . S
C979 C973 1.465 1_556 S
C979 C978 1.396 . S
C979 C980 1.399 . S
C980 H966 0.929 . S
C980 C979 1.399 . S
C980 C981 1.385 . S
C981 H967 0.931 . S
C981 C980 1.385 . S
C981 C982 1.389 . S
C982 C981 1.389 . S
C982 C983 1.387 . S
C983 H968 0.930 . S
C983 C978 1.390 . S
C983 C982 1.387 . S
H984 C996 0.930 . S
H985 C998 0.930 . S
H986 C999 0.930 . S
H987 C1003 0.959 . S
H988 C1003 0.959 . S
H989 C1003 0.961 . S
H990 C1004 0.960 . S
H991 C1004 0.961 . S
H992 C1004 0.959 . S
H993 C1007 0.929 . S
H994 C1008 0.931 . S
H995 C1010 0.930 . S
C996 H984 0.930 . S
C996 C997 1.399 . S
C996 C1001 1.399 . S
C997 C996 1.399 . S
C997 C998 1.376 . S
C998 H985 0.930 . S
C998 C997 1.376 . S
C998 C999 1.388 . S
C999 H986 0.930 . S
C999 C998 1.388 . S
C999 C1000 1.390 . S
C1000 C999 1.390 . S
C1000 C1001 1.394 . S
C1000 C1006 1.465 . S
C1001 C996 1.399 . S
C1001 C1000 1.394 . S
C1001 C1002 1.516 . S
C1002 C1001 1.516 . S
C1002 C1003 1.502 . S
C1002 C1004 1.561 . S
C1002 C1005 1.526 . S
C1003 H987 0.959 . S
C1003 H988 0.959 . S
C1003 H989 0.961 . S
C1003 C1002 1.502 . S
C1004 H990 0.960 . S
C1004 H991 0.961 . S
C1004 H992 0.959 . S
C1004 C1002 1.561 . S
C1005 C1002 1.526 . S
C1005 C1006 1.396 . S
C1005 C1010 1.390 . S
C1006 C1000 1.465 . S
C1006 C1005 1.396 . S
C1006 C1007 1.399 . S
C1007 H993 0.929 . S
C1007 C1006 1.399 . S
C1007 C1008 1.385 . S
C1008 H994 0.931 . S
C1008 C1007 1.385 . S
C1008 C1009 1.389 . S
C1009 C1008 1.389 . S
C1009 C1010 1.387 . S
C1010 H995 0.930 . S
C1010 C1005 1.390 . S
C1010 C1009 1.387 . S
H1011 C1023 0.930 . S
H1012 C1025 0.930 . S
H1013 C1026 0.930 . S
H1014 C1030 0.959 . S
H1015 C1030 0.959 . S
H1016 C1030 0.961 . S
H1017 C1031 0.960 . S
H1018 C1031 0.961 . S
H1019 C1031 0.959 . S
H1020 C1034 0.929 . S
H1021 C1035 0.931 . S
H1022 C1037 0.930 . S
C1023 H1011 0.930 . S
C1023 C1024 1.399 . S
C1023 C1028 1.399 . S
C1024 C1023 1.399 . S
C1024 C1025 1.376 . S
C1025 H1012 0.930 . S
C1025 C1024 1.376 . S
C1025 C1026 1.388 . S
C1026 H1013 0.930 . S
C1026 C1025 1.388 . S
C1026 C1027 1.390 . S
C1027 C1026 1.390 . S
C1027 C1028 1.394 . S
C1027 C1033 1.465 . S
C1028 C1023 1.399 . S
C1028 C1027 1.394 . S
C1028 C1029 1.516 . S
C1029 C1028 1.516 . S
C1029 C1030 1.502 . S
C1029 C1031 1.561 . S
C1029 C1032 1.526 . S
C1030 H1014 0.959 . S
C1030 H1015 0.959 . S
C1030 H1016 0.961 . S
C1030 C1029 1.502 . S
C1031 H1017 0.960 . S
C1031 H1018 0.961 . S
C1031 H1019 0.959 . S
C1031 C1029 1.561 . S
C1032 C1029 1.526 . S
C1032 C1033 1.396 . S
C1032 C1037 1.390 . S
C1033 C1027 1.465 . S
C1033 C1032 1.396 . S
C1033 C1034 1.399 . S
C1034 H1020 0.929 . S
C1034 C1033 1.399 . S
C1034 C1035 1.385 . S
C1035 H1021 0.931 . S
C1035 C1034 1.385 . S
C1035 C1036 1.389 . S
C1036 C1035 1.389 . S
C1036 C1037 1.387 . S
C1037 H1022 0.930 . S
C1037 C1032 1.390 . S
C1037 C1036 1.387 . S
H1038 C1050 0.930 . S
H1039 C1052 0.930 . S
H1040 C1053 0.930 . S
H1041 C1057 0.959 . S
H1042 C1057 0.959 . S
H1043 C1057 0.961 . S
H1044 C1058 0.960 . S
H1045 C1058 0.961 . S
H1046 C1058 0.959 . S
H1047 C1061 0.929 . S
H1048 C1062 0.931 . S
H1049 C1064 0.930 . S
C1050 H1038 0.930 . S
C1050 C1051 1.399 . S
C1050 C1055 1.399 . S
C1051 C1050 1.399 . S
C1051 C1052 1.376 . S
C1052 H1039 0.930 . S
C1052 C1051 1.376 . S
C1052 C1053 1.388 . S
C1053 H1040 0.930 . S
C1053 C1052 1.388 . S
C1053 C1054 1.390 . S
C1054 C1053 1.390 . S
C1054 C1055 1.394 . S
C1054 C1060 1.465 . S
C1055 C1050 1.399 . S
C1055 C1054 1.394 . S
C1055 C1056 1.516 . S
C1056 C1055 1.516 . S
C1056 C1057 1.502 . S
C1056 C1058 1.561 . S
C1056 C1059 1.526 . S
C1057 H1041 0.959 . S
C1057 H1042 0.959 . S
C1057 H1043 0.961 . S
C1057 C1056 1.502 . S
C1058 H1044 0.960 . S
C1058 H1045 0.961 . S
C1058 H1046 0.959 . S
C1058 C1056 1.561 . S
C1059 C1056 1.526 . S
C1059 C1060 1.396 . S
C1059 C1064 1.390 . S
C1060 C1054 1.465 . S
C1060 C1059 1.396 . S
C1060 C1061 1.399 . S
C1061 H1047 0.929 . S
C1061 C1060 1.399 . S
C1061 C1062 1.385 . S
C1062 H1048 0.931 . S
C1062 C1061 1.385 . S
C1062 C1063 1.389 . S
C1063 C1062 1.389 . S
C1063 C1064 1.387 . S
C1064 H1049 0.930 . S
C1064 C1059 1.390 . S
C1064 C1063 1.387 . S
H1065 C1077 0.930 . S
H1066 C1079 0.930 . S
H1067 C1080 0.930 . S
H1068 C1084 0.959 . S
H1069 C1084 0.959 . S
H1070 C1084 0.961 . S
H1071 C1085 0.960 . S
H1072 C1085 0.961 . S
H1073 C1085 0.959 . S
H1074 C1088 0.929 . S
H1075 C1089 0.931 . S
H1076 C1091 0.930 . S
C1077 H1065 0.930 . S
C1077 C1078 1.399 . S
C1077 C1082 1.399 . S
C1078 C1077 1.399 . S
C1078 C1079 1.376 . S
C1079 H1066 0.930 . S
C1079 C1078 1.376 . S
C1079 C1080 1.388 . S
C1080 H1067 0.930 . S
C1080 C1079 1.388 . S
C1080 C1081 1.390 . S
C1081 C1080 1.390 . S
C1081 C1082 1.394 . S
C1081 C1087 1.465 . S
C1082 C1077 1.399 . S
C1082 C1081 1.394 . S
C1082 C1083 1.516 . S
C1083 C1082 1.516 . S
C1083 C1084 1.502 . S
C1083 C1085 1.561 . S
C1083 C1086 1.526 . S
C1084 H1068 0.959 . S
C1084 H1069 0.959 . S
C1084 H1070 0.961 . S
C1084 C1083 1.502 . S
C1085 H1071 0.960 . S
C1085 H1072 0.961 . S
C1085 H1073 0.959 . S
C1085 C1083 1.561 . S
C1086 C1083 1.526 . S
C1086 C1087 1.396 . S
C1086 C1091 1.390 . S
C1087 C1081 1.465 . S
C1087 C1086 1.396 . S
C1087 C1088 1.399 . S
C1088 H1074 0.929 . S
C1088 C1087 1.399 . S
C1088 C1089 1.385 . S
C1089 H1075 0.931 . S
C1089 C1088 1.385 . S
C1089 C1090 1.389 . S
C1090 C1089 1.389 . S
C1090 C1091 1.387 . S
C1091 H1076 0.930 . S
C1091 C1086 1.390 . S
C1091 C1090 1.387 . S
H1092 C1104 0.930 . S
H1093 C1106 0.930 . S
H1094 C1107 0.930 . S
H1095 C1111 0.959 . S
H1096 C1111 0.959 . S
H1097 C1111 0.961 . S
H1098 C1112 0.960 . S
H1099 C1112 0.961 . S
H1100 C1112 0.959 . S
H1101 C1115 0.929 . S
H1102 C1116 0.931 . S
H1103 C1118 0.930 . S
C1104 H1092 0.930 . S
C1104 C1105 1.399 . S
C1104 C1109 1.399 . S
C1105 C1104 1.399 . S
C1105 C1106 1.376 . S
C1106 H1093 0.930 . S
C1106 C1105 1.376 . S
C1106 C1107 1.388 . S
C1107 H1094 0.930 . S
C1107 C1106 1.388 . S
C1107 C1108 1.390 . S
C1108 C1107 1.390 . S
C1108 C1109 1.394 . S
C1108 C1114 1.465 . S
C1109 C1104 1.399 . S
C1109 C1108 1.394 . S
C1109 C1110 1.516 . S
C1110 C1109 1.516 . S
C1110 C1111 1.502 . S
C1110 C1112 1.561 . S
C1110 C1113 1.526 . S
C1111 H1095 0.959 . S
C1111 H1096 0.959 . S
C1111 H1097 0.961 . S
C1111 C1110 1.502 . S
C1112 H1098 0.960 . S
C1112 H1099 0.961 . S
C1112 H1100 0.959 . S
C1112 C1110 1.561 . S
C1113 C1110 1.526 . S
C1113 C1114 1.396 . S
C1113 C1118 1.390 . S
C1114 C1108 1.465 . S
C1114 C1113 1.396 . S
C1114 C1115 1.399 . S
C1115 H1101 0.929 . S
C1115 C1114 1.399 . S
C1115 C1116 1.385 . S
C1116 H1102 0.931 . S
C1116 C1115 1.385 . S
C1116 C1117 1.389 . S
C1117 C1116 1.389 . S
C1117 C1118 1.387 . S
C1118 H1103 0.930 . S
C1118 C1113 1.390 . S
C1118 C1117 1.387 . S
H1119 C1131 0.930 . S
H1120 C1133 0.930 . S
H1121 C1134 0.930 . S
H1122 C1138 0.959 . S
H1123 C1138 0.959 . S
H1124 C1138 0.961 . S
H1125 C1139 0.960 . S
H1126 C1139 0.961 . S
H1127 C1139 0.959 . S
H1128 C1142 0.929 . S
H1129 C1143 0.931 . S
H1130 C1145 0.930 . S
C1131 H1119 0.930 . S
C1131 C1132 1.399 . S
C1131 C1136 1.399 . S
C1132 C1131 1.399 . S
C1132 C1133 1.376 . S
C1133 H1120 0.930 . S
C1133 C1132 1.376 . S
C1133 C1134 1.388 . S
C1134 H1121 0.930 . S
C1134 C1133 1.388 . S
C1134 C1135 1.390 . S
C1135 C1134 1.390 . S
C1135 C1136 1.394 . S
C1135 C1141 1.465 . S
C1136 C1131 1.399 . S
C1136 C1135 1.394 . S
C1136 C1137 1.516 . S
C1137 C1136 1.516 . S
C1137 C1138 1.502 . S
C1137 C1139 1.561 . S
C1137 C1140 1.526 . S
C1138 H1122 0.959 . S
C1138 H1123 0.959 . S
C1138 H1124 0.961 . S
C1138 C1137 1.502 . S
C1139 H1125 0.960 . S
C1139 H1126 0.961 . S
C1139 H1127 0.959 . S
C1139 C1137 1.561 . S
C1140 C1137 1.526 . S
C1140 C1141 1.396 . S
C1140 C1145 1.390 . S
C1141 C1135 1.465 . S
C1141 C1140 1.396 . S
C1141 C1142 1.399 . S
C1142 H1128 0.929 . S
C1142 C1141 1.399 . S
C1142 C1143 1.385 . S
C1143 H1129 0.931 . S
C1143 C1142 1.385 . S
C1143 C1144 1.389 . S
C1144 C1143 1.389 . S
C1144 C1145 1.387 . S
C1145 H1130 0.930 . S
C1145 C1140 1.390 . S
C1145 C1144 1.387 . S
H1146 C1158 0.930 . S
H1147 C1160 0.930 . S
H1148 C1161 0.930 . S
H1149 C1165 0.959 . S
H1150 C1165 0.959 . S
H1151 C1165 0.961 . S
H1152 C1166 0.960 . S
H1153 C1166 0.961 . S
H1154 C1166 0.959 . S
H1155 C1169 0.929 . S
H1156 C1170 0.931 . S
H1157 C1172 0.930 . S
C1158 H1146 0.930 . S
C1158 C1159 1.399 . S
C1158 C1163 1.399 . S
C1159 C1158 1.399 . S
C1159 C1160 1.376 . S
C1160 H1147 0.930 . S
C1160 C1159 1.376 . S
C1160 C1161 1.388 . S
C1161 H1148 0.930 . S
C1161 C1160 1.388 . S
C1161 C1162 1.390 . S
C1162 C1161 1.390 . S
C1162 C1163 1.394 . S
C1162 C1168 1.465 . S
C1163 C1158 1.399 . S
C1163 C1162 1.394 . S
C1163 C1164 1.516 . S
C1164 C1163 1.516 . S
C1164 C1165 1.502 . S
C1164 C1166 1.561 . S
C1164 C1167 1.526 . S
C1165 H1149 0.959 . S
C1165 H1150 0.959 . S
C1165 H1151 0.961 . S
C1165 C1164 1.502 . S
C1166 H1152 0.960 . S
C1166 H1153 0.961 . S
C1166 H1154 0.959 . S
C1166 C1164 1.561 . S
C1167 C1164 1.526 . S
C1167 C1168 1.396 . S
C1167 C1172 1.390 . S
C1168 C1162 1.465 . S
C1168 C1167 1.396 . S
C1168 C1169 1.399 . S
C1169 H1155 0.929 . S
C1169 C1168 1.399 . S
C1169 C1170 1.385 . S
C1170 H1156 0.931 . S
C1170 C1169 1.385 . S
C1170 C1171 1.389 . S
C1171 C1170 1.389 . S
C1171 C1172 1.387 . S
C1172 H1157 0.930 . S
C1172 C1167 1.390 . S
C1172 C1171 1.387 . S
H1173 C1185 0.930 . S
H1174 C1187 0.930 . S
H1175 C1188 0.930 . S
H1176 C1192 0.959 . S
H1177 C1192 0.959 . S
H1178 C1192 0.961 . S
H1179 C1193 0.960 . S
H1180 C1193 0.961 . S
H1181 C1193 0.959 . S
H1182 C1196 0.929 . S
H1183 C1197 0.931 . S
H1184 C1199 0.930 . S
C1185 H1173 0.930 . S
C1185 C1186 1.399 . S
C1185 C1190 1.399 . S
C1186 C1185 1.399 . S
C1186 C1187 1.376 . S
C1187 H1174 0.930 . S
C1187 C1186 1.376 . S
C1187 C1188 1.388 . S
C1188 H1175 0.930 . S
C1188 C1187 1.388 . S
C1188 C1189 1.390 . S
C1189 C1188 1.390 . S
C1189 C1190 1.394 . S
C1189 C1195 1.465 . S
C1190 C1185 1.399 . S
C1190 C1189 1.394 . S
C1190 C1191 1.516 . S
C1191 C1190 1.516 . S
C1191 C1192 1.502 . S
C1191 C1193 1.561 . S
C1191 C1194 1.526 . S
C1192 H1176 0.959 . S
C1192 H1177 0.959 . S
C1192 H1178 0.961 . S
C1192 C1191 1.502 . S
C1193 H1179 0.960 . S
C1193 H1180 0.961 . S
C1193 H1181 0.959 . S
C1193 C1191 1.561 . S
C1194 C1191 1.526 . S
C1194 C1195 1.396 . S
C1194 C1199 1.390 . S
C1195 C1189 1.465 . S
C1195 C1194 1.396 . S
C1195 C1196 1.399 . S
C1196 H1182 0.929 . S
C1196 C1195 1.399 . S
C1196 C1197 1.385 . S
C1197 H1183 0.931 . S
C1197 C1196 1.385 . S
C1197 C1198 1.389 . S
C1198 C1197 1.389 . S
C1198 C1199 1.387 . S
C1199 H1184 0.930 . S
C1199 C1194 1.390 . S
C1199 C1198 1.387 . S
H1200 C1212 0.930 . S
H1201 C1214 0.930 . S
H1202 C1215 0.930 . S
H1203 C1219 0.959 . S
H1204 C1219 0.959 . S
H1205 C1219 0.961 . S
H1206 C1220 0.960 . S
H1207 C1220 0.961 . S
H1208 C1220 0.959 . S
H1209 C1223 0.929 . S
H1210 C1224 0.931 . S
H1211 C1226 0.930 . S
C1212 H1200 0.930 . S
C1212 C1213 1.399 . S
C1212 C1217 1.399 . S
C1213 C1212 1.399 . S
C1213 C1214 1.376 . S
C1214 H1201 0.930 . S
C1214 C1213 1.376 . S
C1214 C1215 1.388 . S
C1215 H1202 0.930 . S
C1215 C1214 1.388 . S
C1215 C1216 1.390 . S
C1216 C1215 1.390 . S
C1216 C1217 1.394 . S
C1216 C1222 1.465 . S
C1217 C1212 1.399 . S
C1217 C1216 1.394 . S
C1217 C1218 1.516 . S
C1218 C1217 1.516 . S
C1218 C1219 1.502 . S
C1218 C1220 1.561 . S
C1218 C1221 1.526 . S
C1219 H1203 0.959 . S
C1219 H1204 0.959 . S
C1219 H1205 0.961 . S
C1219 C1218 1.502 . S
C1220 H1206 0.960 . S
C1220 H1207 0.961 . S
C1220 H1208 0.959 . S
C1220 C1218 1.561 . S
C1221 C1218 1.526 . S
C1221 C1222 1.396 . S
C1221 C1226 1.390 . S
C1222 C1216 1.465 . S
C1222 C1221 1.396 . S
C1222 C1223 1.399 . S
C1223 H1209 0.929 . S
C1223 C1222 1.399 . S
C1223 C1224 1.385 . S
C1224 H1210 0.931 . S
C1224 C1223 1.385 . S
C1224 C1225 1.389 . S
C1225 C1224 1.389 . S
C1225 C1226 1.387 . S
C1226 H1211 0.930 . S
C1226 C1221 1.390 . S
C1226 C1225 1.387 . S
H1227 C1239 0.930 . S
H1228 C1241 0.930 . S
H1229 C1242 0.930 . S
H1230 C1246 0.959 . S
H1231 C1246 0.959 . S
H1232 C1246 0.961 . S
H1233 C1247 0.960 . S
H1234 C1247 0.961 . S
H1235 C1247 0.959 . S
H1236 C1250 0.929 . S
H1237 C1251 0.931 . S
H1238 C1253 0.930 . S
C1239 H1227 0.930 . S
C1239 C1240 1.399 . S
C1239 C1244 1.399 . S
C1240 C1239 1.399 . S
C1240 C1241 1.376 . S
C1241 H1228 0.930 . S
C1241 C1240 1.376 . S
C1241 C1242 1.388 . S
C1242 H1229 0.930 . S
C1242 C1241 1.388 . S
C1242 C1243 1.390 . S
C1243 C1242 1.390 . S
C1243 C1244 1.394 . S
C1243 C1249 1.465 . S
C1244 C1239 1.399 . S
C1244 C1243 1.394 . S
C1244 C1245 1.516 . S
C1245 C1244 1.516 . S
C1245 C1246 1.502 . S
C1245 C1247 1.561 . S
C1245 C1248 1.526 . S
C1246 H1230 0.959 . S
C1246 H1231 0.959 . S
C1246 H1232 0.961 . S
C1246 C1245 1.502 . S
C1247 H1233 0.960 . S
C1247 H1234 0.961 . S
C1247 H1235 0.959 . S
C1247 C1245 1.561 . S
C1248 C1245 1.526 . S
C1248 C1249 1.396 . S
C1248 C1253 1.390 . S
C1249 C1243 1.465 . S
C1249 C1248 1.396 . S
C1249 C1250 1.399 . S
C1250 H1236 0.929 . S
C1250 C1249 1.399 . S
C1250 C1251 1.385 . S
C1251 H1237 0.931 . S
C1251 C1250 1.385 . S
C1251 C1252 1.389 . S
C1252 C1251 1.389 . S
C1252 C1253 1.387 . S
C1253 H1238 0.930 . S
C1253 C1248 1.390 . S
C1253 C1252 1.387 . S
H1254 C1266 0.930 . S
H1255 C1268 0.930 . S
H1256 C1269 0.930 . S
H1257 C1273 0.959 . S
H1258 C1273 0.959 . S
H1259 C1273 0.961 . S
H1260 C1274 0.960 . S
H1261 C1274 0.961 . S
H1262 C1274 0.959 . S
H1263 C1277 0.929 . S
H1264 C1278 0.931 . S
H1265 C1280 0.930 . S
C1266 H1254 0.930 . S
C1266 C1267 1.399 . S
C1266 C1271 1.399 . S
C1267 C1266 1.399 . S
C1267 C1268 1.376 . S
C1268 H1255 0.930 . S
C1268 C1267 1.376 . S
C1268 C1269 1.388 . S
C1269 H1256 0.930 . S
C1269 C1268 1.388 . S
C1269 C1270 1.390 . S
C1270 C1269 1.390 . S
C1270 C1271 1.394 . S
C1270 C1276 1.465 . S
C1271 C1266 1.399 . S
C1271 C1270 1.394 . S
C1271 C1272 1.516 . S
C1272 C1271 1.516 . S
C1272 C1273 1.502 . S
C1272 C1274 1.561 . S
C1272 C1275 1.526 . S
C1273 H1257 0.959 . S
C1273 H1258 0.959 . S
C1273 H1259 0.961 . S
C1273 C1272 1.502 . S
C1274 H1260 0.960 . S
C1274 H1261 0.961 . S
C1274 H1262 0.959 . S
C1274 C1272 1.561 . S
C1275 C1272 1.526 . S
C1275 C1276 1.396 . S
C1275 C1280 1.390 . S
C1276 C1270 1.465 . S
C1276 C1275 1.396 . S
C1276 C1277 1.399 . S
C1277 H1263 0.929 . S
C1277 C1276 1.399 . S
C1277 C1278 1.385 . S
C1278 H1264 0.931 . S
C1278 C1277 1.385 . S
C1278 C1279 1.389 . S
C1279 C1278 1.389 . S
C1279 C1280 1.387 . S
C1280 H1265 0.930 . S
C1280 C1275 1.390 . S
C1280 C1279 1.387 . S
H1281 C1293 0.930 . S
H1282 C1295 0.930 . S
H1283 C1296 0.930 . S
H1284 C1300 0.959 . S
H1285 C1300 0.959 . S
H1286 C1300 0.961 . S
H1287 C1301 0.960 . S
H1288 C1301 0.961 . S
H1289 C1301 0.959 . S
H1290 C1304 0.929 . S
H1291 C1305 0.931 . S
H1292 C1307 0.930 . S
C1293 H1281 0.930 . S
C1293 C1294 1.399 . S
C1293 C1298 1.399 . S
C1294 C1293 1.399 . S
C1294 C1295 1.376 . S
C1295 H1282 0.930 . S
C1295 C1294 1.376 . S
C1295 C1296 1.388 . S
C1296 H1283 0.930 . S
C1296 C1295 1.388 . S
C1296 C1297 1.390 . S
C1297 C1296 1.390 . S
C1297 C1298 1.394 . S
C1297 C1303 1.465 . S
C1298 C1293 1.399 . S
C1298 C1297 1.394 . S
C1298 C1299 1.516 . S
C1299 C1298 1.516 . S
C1299 C1300 1.502 . S
C1299 C1301 1.561 . S
C1299 C1302 1.526 . S
C1300 H1284 0.959 . S
C1300 H1285 0.959 . S
C1300 H1286 0.961 . S
C1300 C1299 1.502 . S
C1301 H1287 0.960 . S
C1301 H1288 0.961 . S
C1301 H1289 0.959 . S
C1301 C1299 1.561 . S
C1302 C1299 1.526 . S
C1302 C1303 1.396 . S
C1302 C1307 1.390 . S
C1303 C1297 1.465 . S
C1303 C1302 1.396 . S
C1303 C1304 1.399 . S
C1304 H1290 0.929 . S
C1304 C1303 1.399 . S
C1304 C1305 1.385 . S
C1305 H1291 0.931 . S
C1305 C1304 1.385 . S
C1305 C1306 1.389 . S
C1306 C1305 1.389 . S
C1306 C1307 1.387 . S
C1307 H1292 0.930 . S
C1307 C1302 1.390 . S
C1307 C1306 1.387 . S
H1308 C1320 0.930 . S
H1309 C1322 0.930 . S
H1310 C1323 0.930 . S
H1311 C1327 0.959 . S
H1312 C1327 0.959 . S
H1313 C1327 0.961 . S
H1314 C1328 0.960 . S
H1315 C1328 0.961 . S
H1316 C1328 0.959 . S
H1317 C1331 0.929 . S
H1318 C1332 0.931 . S
H1319 C1334 0.930 . S
C1320 H1308 0.930 . S
C1320 C1321 1.399 . S
C1320 C1325 1.399 . S
C1321 C1320 1.399 . S
C1321 C1322 1.376 . S
C1322 H1309 0.930 . S
C1322 C1321 1.376 . S
C1322 C1323 1.388 . S
C1323 H1310 0.930 . S
C1323 C1322 1.388 . S
C1323 C1324 1.390 . S
C1324 C1323 1.390 . S
C1324 C1325 1.394 . S
C1324 C1330 1.465 . S
C1325 C1320 1.399 . S
C1325 C1324 1.394 . S
C1325 C1326 1.516 . S
C1326 C1325 1.516 . S
C1326 C1327 1.502 . S
C1326 C1328 1.561 . S
C1326 C1329 1.526 . S
C1327 H1311 0.959 . S
C1327 H1312 0.959 . S
C1327 H1313 0.961 . S
C1327 C1326 1.502 . S
C1328 H1314 0.960 . S
C1328 H1315 0.961 . S
C1328 H1316 0.959 . S
C1328 C1326 1.561 . S
C1329 C1326 1.526 . S
C1329 C1330 1.396 . S
C1329 C1334 1.390 . S
C1330 C1324 1.465 . S
C1330 C1329 1.396 . S
C1330 C1331 1.399 . S
C1331 H1317 0.929 . S
C1331 C1330 1.399 . S
C1331 C1332 1.385 . S
C1332 H1318 0.931 . S
C1332 C1331 1.385 . S
C1332 C1333 1.389 . S
C1333 C1332 1.389 . S
C1333 C1334 1.387 . S
C1334 H1319 0.930 . S
C1334 C1329 1.390 . S
C1334 C1333 1.387 . S
H1335 C1347 0.930 . S
H1336 C1349 0.930 . S
H1337 C1350 0.930 . S
H1338 C1354 0.959 . S
H1339 C1354 0.959 . S
H1340 C1354 0.961 . S
H1341 C1355 0.960 . S
H1342 C1355 0.961 . S
H1343 C1355 0.959 . S
H1344 C1358 0.929 . S
H1345 C1359 0.931 . S
H1346 C1361 0.930 . S
C1347 H1335 0.930 . S
C1347 C1348 1.399 . S
C1347 C1352 1.399 . S
C1348 C1347 1.399 . S
C1348 C1349 1.376 . S
C1349 H1336 0.930 . S
C1349 C1348 1.376 . S
C1349 C1350 1.388 . S
C1350 H1337 0.930 . S
C1350 C1349 1.388 . S
C1350 C1351 1.390 . S
C1351 C1350 1.390 . S
C1351 C1352 1.394 . S
C1351 C1357 1.465 . S
C1352 C1347 1.399 . S
C1352 C1351 1.394 . S
C1352 C1353 1.516 . S
C1353 C1352 1.516 . S
C1353 C1354 1.502 . S
C1353 C1355 1.561 . S
C1353 C1356 1.526 . S
C1354 H1338 0.959 . S
C1354 H1339 0.959 . S
C1354 H1340 0.961 . S
C1354 C1353 1.502 . S
C1355 H1341 0.960 . S
C1355 H1342 0.961 . S
C1355 H1343 0.959 . S
C1355 C1353 1.561 . S
C1356 C1353 1.526 . S
C1356 C1357 1.396 . S
C1356 C1361 1.390 . S
C1357 C1351 1.465 . S
C1357 C1356 1.396 . S
C1357 C1358 1.399 . S
C1358 H1344 0.929 . S
C1358 C1357 1.399 . S
C1358 C1359 1.385 . S
C1359 H1345 0.931 . S
C1359 C1358 1.385 . S
C1359 C1360 1.389 . S
C1360 C1359 1.389 . S
C1360 C1361 1.387 . S
C1361 H1346 0.930 . S
C1361 C1356 1.390 . S
C1361 C1360 1.387 . S
H1362 C1374 0.930 . S
H1363 C1376 0.930 . S
H1364 C1377 0.930 . S
H1365 C1381 0.959 . S
H1366 C1381 0.959 . S
H1367 C1381 0.961 . S
H1368 C1382 0.960 . S
H1369 C1382 0.961 . S
H1370 C1382 0.959 . S
H1371 C1385 0.929 . S
H1372 C1386 0.931 . S
H1373 C1388 0.930 . S
C1374 H1362 0.930 . S
C1374 C1375 1.399 . S
C1374 C1379 1.399 . S
C1375 C1374 1.399 . S
C1375 C1376 1.376 . S
C1376 H1363 0.930 . S
C1376 C1375 1.376 . S
C1376 C1377 1.388 . S
C1377 H1364 0.930 . S
C1377 C1376 1.388 . S
C1377 C1378 1.390 . S
C1378 C1377 1.390 . S
C1378 C1379 1.394 . S
C1378 C1384 1.465 . S
C1379 C1374 1.399 . S
C1379 C1378 1.394 . S
C1379 C1380 1.516 . S
C1380 C1379 1.516 . S
C1380 C1381 1.502 . S
C1380 C1382 1.561 . S
C1380 C1383 1.526 . S
C1381 H1365 0.959 . S
C1381 H1366 0.959 . S
C1381 H1367 0.961 . S
C1381 C1380 1.502 . S
C1382 H1368 0.960 . S
C1382 H1369 0.961 . S
C1382 H1370 0.959 . S
C1382 C1380 1.561 . S
C1383 C1380 1.526 . S
C1383 C1384 1.396 . S
C1383 C1388 1.390 . S
C1384 C1378 1.465 . S
C1384 C1383 1.396 . S
C1384 C1385 1.399 . S
C1385 H1371 0.929 . S
C1385 C1384 1.399 . S
C1385 C1386 1.385 . S
C1386 H1372 0.931 . S
C1386 C1385 1.385 . S
C1386 C1387 1.389 . S
C1387 C1386 1.389 . S
C1387 C1388 1.387 . S
C1388 H1373 0.930 . S
C1388 C1383 1.390 . S
C1388 C1387 1.387 . S
H1389 C1401 0.930 . S
H1390 C1403 0.930 . S
H1391 C1404 0.930 . S
H1392 C1408 0.959 . S
H1393 C1408 0.959 . S
H1394 C1408 0.961 . S
H1395 C1409 0.960 . S
H1396 C1409 0.961 . S
H1397 C1409 0.959 . S
H1398 C1412 0.929 . S
H1399 C1413 0.931 . S
H1400 C1415 0.930 . S
C1401 H1389 0.930 . S
C1401 C1402 1.399 . S
C1401 C1406 1.399 . S
C1402 C1401 1.399 . S
C1402 C1403 1.376 . S
C1403 H1390 0.930 . S
C1403 C1402 1.376 . S
C1403 C1404 1.388 . S
C1404 H1391 0.930 . S
C1404 C1403 1.388 . S
C1404 C1405 1.390 . S
C1405 C1404 1.390 . S
C1405 C1406 1.394 . S
C1405 C1411 1.465 . S
C1406 C1401 1.399 . S
C1406 C1405 1.394 . S
C1406 C1407 1.516 . S
C1407 C1406 1.516 . S
C1407 C1408 1.502 . S
C1407 C1409 1.561 . S
C1407 C1410 1.526 . S
C1408 H1392 0.959 . S
C1408 H1393 0.959 . S
C1408 H1394 0.961 . S
C1408 C1407 1.502 . S
C1409 H1395 0.960 . S
C1409 H1396 0.961 . S
C1409 H1397 0.959 . S
C1409 C1407 1.561 . S
C1410 C1407 1.526 . S
C1410 C1411 1.396 . S
C1410 C1415 1.390 . S
C1411 C1405 1.465 . S
C1411 C1410 1.396 . S
C1411 C1412 1.399 . S
C1412 H1398 0.929 . S
C1412 C1411 1.399 . S
C1412 C1413 1.385 . S
C1413 H1399 0.931 . S
C1413 C1412 1.385 . S
C1413 C1414 1.389 . S
C1414 C1413 1.389 . S
C1414 C1415 1.387 . S
C1415 H1400 0.930 . S
C1415 C1410 1.390 . S
C1415 C1414 1.387 . S
H1416 C1428 0.930 . S
H1417 C1430 0.930 . S
H1418 C1431 0.930 . S
H1419 C1435 0.959 . S
H1420 C1435 0.959 . S
H1421 C1435 0.961 . S
H1422 C1436 0.960 . S
H1423 C1436 0.961 . S
H1424 C1436 0.959 . S
H1425 C1439 0.929 . S
H1426 C1440 0.931 . S
H1427 C1442 0.930 . S
C1428 H1416 0.930 . S
C1428 C1429 1.399 . S
C1428 C1433 1.399 . S
C1429 C1428 1.399 . S
C1429 C1430 1.376 . S
C1430 H1417 0.930 . S
C1430 C1429 1.376 . S
C1430 C1431 1.388 . S
C1431 H1418 0.930 . S
C1431 C1430 1.388 . S
C1431 C1432 1.390 . S
C1432 C1431 1.390 . S
C1432 C1433 1.394 . S
C1432 C1438 1.465 . S
C1433 C1428 1.399 . S
C1433 C1432 1.394 . S
C1433 C1434 1.516 . S
C1434 C1433 1.516 . S
C1434 C1435 1.502 . S
C1434 C1436 1.561 . S
C1434 C1437 1.526 . S
C1435 H1419 0.959 . S
C1435 H1420 0.959 . S
C1435 H1421 0.961 . S
C1435 C1434 1.502 . S
C1436 H1422 0.960 . S
C1436 H1423 0.961 . S
C1436 H1424 0.959 . S
C1436 C1434 1.561 . S
C1437 C1434 1.526 . S
C1437 C1438 1.396 . S
C1437 C1442 1.390 . S
C1438 C1432 1.465 . S
C1438 C1437 1.396 . S
C1438 C1439 1.399 . S
C1439 H1425 0.929 . S
C1439 C1438 1.399 . S
C1439 C1440 1.385 . S
C1440 H1426 0.931 . S
C1440 C1439 1.385 . S
C1440 C1441 1.389 . S
C1441 C1440 1.389 . S
C1441 C1442 1.387 . S
C1442 H1427 0.930 . S
C1442 C1437 1.390 . S
C1442 C1441 1.387 . S
H1443 C1455 0.930 . S
H1444 C1457 0.930 . S
H1445 C1458 0.930 . S
H1446 C1462 0.959 . S
H1447 C1462 0.959 . S
H1448 C1462 0.961 . S
H1449 C1463 0.960 . S
H1450 C1463 0.961 . S
H1451 C1463 0.959 . S
H1452 C1466 0.929 . S
H1453 C1467 0.931 . S
H1454 C1469 0.930 . S
C1455 H1443 0.930 . S
C1455 C1456 1.399 . S
C1455 C1460 1.399 . S
C1456 C1455 1.399 . S
C1456 C1457 1.376 . S
C1457 H1444 0.930 . S
C1457 C1456 1.376 . S
C1457 C1458 1.388 . S
C1458 H1445 0.930 . S
C1458 C1457 1.388 . S
C1458 C1459 1.390 . S
C1459 C1458 1.390 . S
C1459 C1460 1.394 . S
C1459 C1465 1.465 . S
C1460 C1455 1.399 . S
C1460 C1459 1.394 . S
C1460 C1461 1.516 . S
C1461 C1460 1.516 . S
C1461 C1462 1.502 . S
C1461 C1463 1.561 . S
C1461 C1464 1.526 . S
C1462 H1446 0.959 . S
C1462 H1447 0.959 . S
C1462 H1448 0.961 . S
C1462 C1461 1.502 . S
C1463 H1449 0.960 . S
C1463 H1450 0.961 . S
C1463 H1451 0.959 . S
C1463 C1461 1.561 . S
C1464 C1461 1.526 . S
C1464 C1465 1.396 . S
C1464 C1469 1.390 . S
C1465 C1459 1.465 . S
C1465 C1464 1.396 . S
C1465 C1466 1.399 . S
C1466 H1452 0.929 . S
C1466 C1465 1.399 . S
C1466 C1467 1.385 . S
C1467 H1453 0.931 . S
C1467 C1466 1.385 . S
C1467 C1468 1.389 . S
C1468 C1467 1.389 . S
C1468 C1469 1.387 . S
C1469 H1454 0.930 . S
C1469 C1464 1.390 . S
C1469 C1468 1.387 . S
H1470 C1482 0.930 . S
H1471 C1484 0.930 . S
H1472 C1485 0.930 . S
H1473 C1489 0.959 . S
H1474 C1489 0.959 . S
H1475 C1489 0.961 . S
H1476 C1490 0.960 . S
H1477 C1490 0.961 . S
H1478 C1490 0.959 . S
H1479 C1493 0.929 . S
H1480 C1494 0.931 . S
H1481 C1496 0.930 . S
C1482 H1470 0.930 . S
C1482 C1483 1.399 . S
C1482 C1487 1.399 . S
C1483 C1482 1.399 . S
C1483 C1484 1.376 . S
C1484 H1471 0.930 . S
C1484 C1483 1.376 . S
C1484 C1485 1.388 . S
C1485 H1472 0.930 . S
C1485 C1484 1.388 . S
C1485 C1486 1.390 . S
C1486 C1485 1.390 . S
C1486 C1487 1.394 . S
C1486 C1492 1.465 . S
C1487 C1482 1.399 . S
C1487 C1486 1.394 . S
C1487 C1488 1.516 . S
C1488 C1487 1.516 . S
C1488 C1489 1.502 . S
C1488 C1490 1.561 . S
C1488 C1491 1.526 . S
C1489 H1473 0.959 . S
C1489 H1474 0.959 . S
C1489 H1475 0.961 . S
C1489 C1488 1.502 . S
C1490 H1476 0.960 . S
C1490 H1477 0.961 . S
C1490 H1478 0.959 . S
C1490 C1488 1.561 . S
C1491 C1488 1.526 . S
C1491 C1492 1.396 . S
C1491 C1496 1.390 . S
C1492 C1486 1.465 . S
C1492 C1491 1.396 . S
C1492 C1493 1.399 . S
C1493 H1479 0.929 . S
C1493 C1492 1.399 . S
C1493 C1494 1.385 . S
C1494 H1480 0.931 . S
C1494 C1493 1.385 . S
C1494 C1495 1.389 . S
C1495 C1494 1.389 . S
C1495 C1496 1.387 . S
C1496 H1481 0.930 . S
C1496 C1491 1.390 . S
C1496 C1495 1.387 . S
H1497 C1509 0.930 . S
H1498 C1511 0.930 . S
H1499 C1512 0.930 . S
H1500 C1516 0.959 . S
H1501 C1516 0.959 . S
H1502 C1516 0.961 . S
H1503 C1517 0.960 . S
H1504 C1517 0.961 . S
H1505 C1517 0.959 . S
H1506 C1520 0.929 . S
H1507 C1521 0.931 . S
H1508 C1523 0.930 . S
C1509 H1497 0.930 . S
C1509 C1510 1.399 . S
C1509 C1514 1.399 . S
C1510 C1509 1.399 . S
C1510 C1511 1.376 . S
C1511 H1498 0.930 . S
C1511 C1510 1.376 . S
C1511 C1512 1.388 . S
C1512 H1499 0.930 . S
C1512 C1511 1.388 . S
C1512 C1513 1.390 . S
C1513 C1512 1.390 . S
C1513 C1514 1.394 . S
C1513 C1519 1.465 . S
C1514 C1509 1.399 . S
C1514 C1513 1.394 . S
C1514 C1515 1.516 . S
C1515 C1514 1.516 . S
C1515 C1516 1.502 . S
C1515 C1517 1.561 . S
C1515 C1518 1.526 . S
C1516 H1500 0.959 . S
C1516 H1501 0.959 . S
C1516 H1502 0.961 . S
C1516 C1515 1.502 . S
C1517 H1503 0.960 . S
C1517 H1504 0.961 . S
C1517 H1505 0.959 . S
C1517 C1515 1.561 . S
C1518 C1515 1.526 . S
C1518 C1519 1.396 . S
C1518 C1523 1.390 . S
C1519 C1513 1.465 . S
C1519 C1518 1.396 . S
C1519 C1520 1.399 . S
C1520 H1506 0.929 . S
C1520 C1519 1.399 . S
C1520 C1521 1.385 . S
C1521 H1507 0.931 . S
C1521 C1520 1.385 . S
C1521 C1522 1.389 . S
C1522 C1521 1.389 . S
C1522 C1523 1.387 . S
C1523 H1508 0.930 . S
C1523 C1518 1.390 . S
C1523 C1522 1.387 . S
H1524 C1536 0.930 . S
H1525 C1538 0.930 . S
H1526 C1539 0.930 . S
H1527 C1543 0.959 . S
H1528 C1543 0.959 . S
H1529 C1543 0.961 . S
H1530 C1544 0.960 . S
H1531 C1544 0.961 . S
H1532 C1544 0.959 . S
H1533 C1547 0.929 . S
H1534 C1548 0.931 . S
H1535 C1550 0.930 . S
C1536 H1524 0.930 . S
C1536 C1537 1.399 . S
C1536 C1541 1.399 . S
C1537 C1536 1.399 . S
C1537 C1538 1.376 . S
C1538 H1525 0.930 . S
C1538 C1537 1.376 . S
C1538 C1539 1.388 . S
C1539 H1526 0.930 . S
C1539 C1538 1.388 . S
C1539 C1540 1.390 . S
C1540 C1539 1.390 . S
C1540 C1541 1.394 . S
C1540 C1546 1.465 . S
C1541 C1536 1.399 . S
C1541 C1540 1.394 . S
C1541 C1542 1.516 . S
C1542 C1541 1.516 . S
C1542 C1543 1.502 . S
C1542 C1544 1.561 . S
C1542 C1545 1.526 . S
C1543 H1527 0.959 . S
C1543 H1528 0.959 . S
C1543 H1529 0.961 . S
C1543 C1542 1.502 . S
C1544 H1530 0.960 . S
C1544 H1531 0.961 . S
C1544 H1532 0.959 . S
C1544 C1542 1.561 . S
C1545 C1542 1.526 . S
C1545 C1546 1.396 . S
C1545 C1550 1.390 . S
C1546 C1540 1.465 . S
C1546 C1545 1.396 . S
C1546 C1547 1.399 . S
C1547 H1533 0.929 . S
C1547 C1546 1.399 . S
C1547 C1548 1.385 . S
C1548 H1534 0.931 . S
C1548 C1547 1.385 . S
C1548 C1549 1.389 . S
C1549 C1548 1.389 . S
C1549 C1550 1.387 . S
C1550 H1535 0.930 . S
C1550 C1545 1.390 . S
C1550 C1549 1.387 . S
H1551 C1563 0.930 . S
H1552 C1565 0.930 . S
H1553 C1566 0.930 . S
H1554 C1570 0.959 . S
H1555 C1570 0.959 . S
H1556 C1570 0.961 . S
H1557 C1571 0.960 . S
H1558 C1571 0.961 . S
H1559 C1571 0.959 . S
H1560 C1574 0.929 . S
H1561 C1575 0.931 . S
H1562 C1577 0.930 . S
C1563 H1551 0.930 . S
C1563 C1564 1.399 . S
C1563 C1568 1.399 . S
C1564 C1563 1.399 . S
C1564 C1565 1.376 . S
C1565 H1552 0.930 . S
C1565 C1564 1.376 . S
C1565 C1566 1.388 . S
C1566 H1553 0.930 . S
C1566 C1565 1.388 . S
C1566 C1567 1.390 . S
C1567 C1566 1.390 . S
C1567 C1568 1.394 . S
C1567 C1573 1.465 . S
C1568 C1563 1.399 . S
C1568 C1567 1.394 . S
C1568 C1569 1.516 . S
C1569 C1568 1.516 . S
C1569 C1570 1.502 . S
C1569 C1571 1.561 . S
C1569 C1572 1.526 . S
C1570 H1554 0.959 . S
C1570 H1555 0.959 . S
C1570 H1556 0.961 . S
C1570 C1569 1.502 . S
C1571 H1557 0.960 . S
C1571 H1558 0.961 . S
C1571 H1559 0.959 . S
C1571 C1569 1.561 . S
C1572 C1569 1.526 . S
C1572 C1573 1.396 . S
C1572 C1577 1.390 . S
C1573 C1567 1.465 . S
C1573 C1572 1.396 . S
C1573 C1574 1.399 . S
C1574 H1560 0.929 . S
C1574 C1573 1.399 . S
C1574 C1575 1.385 . S
C1575 H1561 0.931 . S
C1575 C1574 1.385 . S
C1575 C1576 1.389 . S
C1576 C1575 1.389 . S
C1576 C1577 1.387 . S
C1577 H1562 0.930 . S
C1577 C1572 1.390 . S
C1577 C1576 1.387 . S
H1578 C1590 0.930 . S
H1579 C1592 0.930 . S
H1580 C1593 0.930 . S
H1581 C1597 0.959 . S
H1582 C1597 0.959 . S
H1583 C1597 0.961 . S
H1584 C1598 0.960 . S
H1585 C1598 0.961 . S
H1586 C1598 0.959 . S
H1587 C1601 0.929 . S
H1588 C1602 0.931 . S
H1589 C1604 0.930 . S
C1590 H1578 0.930 . S
C1590 C1591 1.399 . S
C1590 C1595 1.399 . S
C1591 C1590 1.399 . S
C1591 C1592 1.376 . S
C1592 H1579 0.930 . S
C1592 C1591 1.376 . S
C1592 C1593 1.388 . S
C1593 H1580 0.930 . S
C1593 C1592 1.388 . S
C1593 C1594 1.390 . S
C1594 C1593 1.390 . S
C1594 C1595 1.394 . S
C1594 C1600 1.465 . S
C1595 C1590 1.399 . S
C1595 C1594 1.394 . S
C1595 C1596 1.516 . S
C1596 C1595 1.516 . S
C1596 C1597 1.502 . S
C1596 C1598 1.561 . S
C1596 C1599 1.526 . S
C1597 H1581 0.959 . S
C1597 H1582 0.959 . S
C1597 H1583 0.961 . S
C1597 C1596 1.502 . S
C1598 H1584 0.960 . S
C1598 H1585 0.961 . S
C1598 H1586 0.959 . S
C1598 C1596 1.561 . S
C1599 C1596 1.526 . S
C1599 C1600 1.396 . S
C1599 C1604 1.390 . S
C1600 C1594 1.465 . S
C1600 C1599 1.396 . S
C1600 C1601 1.399 . S
C1601 H1587 0.929 . S
C1601 C1600 1.399 . S
C1601 C1602 1.385 . S
C1602 H1588 0.931 . S
C1602 C1601 1.385 . S
C1602 C1603 1.389 . S
C1603 C1602 1.389 . S
C1603 C1604 1.387 . S
C1604 H1589 0.930 . S
C1604 C1599 1.390 . S
C1604 C1603 1.387 . S
H1605 C1617 0.930 . S
H1606 C1619 0.930 . S
H1607 C1620 0.930 . S
H1608 C1624 0.959 . S
H1609 C1624 0.959 . S
H1610 C1624 0.961 . S
H1611 C1625 0.960 . S
H1612 C1625 0.961 . S
H1613 C1625 0.959 . S
H1614 C1628 0.929 . S
H1615 C1629 0.931 . S
H1616 C1631 0.930 . S
C1617 H1605 0.930 . S
C1617 C1618 1.399 . S
C1617 C1622 1.399 . S
C1618 C1617 1.399 . S
C1618 C1619 1.376 . S
C1619 H1606 0.930 . S
C1619 C1618 1.376 . S
C1619 C1620 1.388 . S
C1620 H1607 0.930 . S
C1620 C1619 1.388 . S
C1620 C1621 1.390 . S
C1621 C1620 1.390 . S
C1621 C1622 1.394 . S
C1621 C1627 1.465 . S
C1622 C1617 1.399 . S
C1622 C1621 1.394 . S
C1622 C1623 1.516 . S
C1623 C1622 1.516 . S
C1623 C1624 1.502 . S
C1623 C1625 1.561 . S
C1623 C1626 1.526 . S
C1624 H1608 0.959 . S
C1624 H1609 0.959 . S
C1624 H1610 0.961 . S
C1624 C1623 1.502 . S
C1625 H1611 0.960 . S
C1625 H1612 0.961 . S
C1625 H1613 0.959 . S
C1625 C1623 1.561 . S
C1626 C1623 1.526 . S
C1626 C1627 1.396 . S
C1626 C1631 1.390 . S
C1627 C1621 1.465 . S
C1627 C1626 1.396 . S
C1627 C1628 1.399 . S
C1628 H1614 0.929 . S
C1628 C1627 1.399 . S
C1628 C1629 1.385 . S
C1629 H1615 0.931 . S
C1629 C1628 1.385 . S
C1629 C1630 1.389 . S
C1630 C1629 1.389 . S
C1630 C1631 1.387 . S
C1631 H1616 0.930 . S
C1631 C1626 1.390 . S
C1631 C1630 1.387 . S
C349 C314 1.583 . S
C361 C7 1.517 . S
C376 C20 1.588 . S
C388 C231 1.518 . S
C403 C328 1.516 . S
C415 C35 1.577 . S
C430 C301 1.585 . S
C442 C49 1.572 . S
C457 C259 1.527 . S
C469 C63 1.552 . S
C484 C272 1.516 . S
C496 C77 1.585 . S
C511 C287 1.597 . S
C523 C90 1.524 . S
C538 C104 1.598 . S
C550 C244 1.526 . S
C565 C188 1.600 . S
C577 C118 1.533 . S
C592 C203 1.533 . S
C604 C133 1.544 . S
C619 C146 1.549 . S
C631 C216 1.597 . S
C646 C161 1.516 . S
C658 C175 1.576 . S
C673 C105 1.576 . S
C685 C202 1.517 . S
C700 C217 1.530 . S
C712 C62 1.548 . S
C727 C76 1.517 . S
C739 C174 1.587 . S
C754 C189 1.544 . S
C766 C91 1.533 . S
C781 C147 1.587 . S
C793 C21 1.569 . S
C808 C34 1.552 . S
C820 C160 1.527 . S
C835 C48 1.600 . S
C847 C119 1.536 . S
C862 C6 1.534 . S
C874 C132 1.599 . S
C889 C286 1.599 . S
C901 C300 1.530 . S
C916 C315 1.599 . S
C928 C245 1.544 . S
C943 C258 1.516 . S
C955 C230 1.581 . S
C970 C329 1.533 . S
C982 C273 1.544 . S
C997 C8 0.953 . S
C1009 C120 0.818 . S
C1024 C135 0.931 . S
C1036 C23 0.871 . S
C1051 C36 0.832 . S
C1063 C148 0.874 . S
C1078 C50 0.817 . S
C1090 C163 0.952 . S
C1105 C64 0.796 . S
C1117 C177 0.935 . S
C1132 C78 0.930 . S
C1144 C190 0.799 . S
C1159 C205 0.883 . S
C1171 C93 0.826 . S
C1186 C218 0.844 . S
C1198 C107 0.861 . S
C1213 C121 0.896 . S
C1225 C233 0.911 . S
C1240 C134 0.796 . S
C1252 C330 0.935 . S
C1267 C303 0.953 . S
C1279 C149 0.811 . S
C1294 C316 0.893 . S
C1306 C162 0.914 . S
C1321 C246 0.798 . S
C1333 C176 0.926 . S
C1348 C261 0.890 . S
C1360 C191 0.916 . S
C1375 C204 0.890 . S
C1387 C274 0.916 . S
C1402 C219 0.910 . S
C1414 C289 0.807 . S
C1429 C9 0.824 . S
C1441 C232 0.883 . S
C1456 C247 0.804 . S
C1468 C65 0.949 . S
C1483 C260 0.953 . S
C1495 C79 0.815 . S
C1510 C275 0.801 . S
C1522 C92 0.947 . S
C1537 C288 0.884 . S
C1549 C106 0.921 . S
C1564 C302 0.943 . S
C1576 C37 0.852 . S
C1591 C51 0.798 . S
C1603 C317 0.944 . S
C1618 C331 0.931 . S
C1630 C22 0.872 . S
