# Generated by pormake.
# Topology uoi, (4)-cn, num edge types: 1
# Building blocks:
#     Node 0, Type 0, BuildingBlock: QUQFOY_clean_sbu_1, # of connection points: 4
#     Node 1, Type 0, BuildingBlock: QUQFOY_clean_sbu_1, # of connection points: 4
#     Node 2, Type 0, BuildingBlock: QUQFOY_clean_sbu_1, # of connection points: 4
#     Node 3, Type 0, BuildingBlock: QUQFOY_clean_sbu_1, # of connection points: 4
#     Node 4, Type 0, BuildingBlock: QUQFOY_clean_sbu_1, # of connection points: 4
#     Node 5, Type 0, BuildingBlock: QUQFOY_clean_sbu_1, # of connection points: 4
#     Node 6, Type 0, BuildingBlock: QUQFOY_clean_sbu_1, # of connection points: 4
#     Node 7, Type 0, BuildingBlock: QUQFOY_clean_sbu_1, # of connection points: 4
#     Node 8, Type 0, BuildingBlock: QUQFOY_clean_sbu_1, # of connection points: 4
#     Node 9, Type 0, BuildingBlock: QUQFOY_clean_sbu_1, # of connection points: 4
#     Node 10, Type 0, BuildingBlock: QUQFOY_clean_sbu_1, # of connection points: 4
#     Node 11, Type 0, BuildingBlock: QUQFOY_clean_sbu_1, # of connection points: 4
#     Node 12, Type 0, BuildingBlock: QUQFOY_clean_sbu_1, # of connection points: 4
#     Node 13, Type 0, BuildingBlock: QUQFOY_clean_sbu_1, # of connection points: 4
#     Node 14, Type 0, BuildingBlock: QUQFOY_clean_sbu_1, # of connection points: 4
#     Node 15, Type 0, BuildingBlock: QUQFOY_clean_sbu_1, # of connection points: 4
#     Node 16, Type 0, BuildingBlock: QUQFOY_clean_sbu_1, # of connection points: 4
#     Node 17, Type 0, BuildingBlock: QUQFOY_clean_sbu_1, # of connection points: 4
#     Node 18, Type 0, BuildingBlock: QUQFOY_clean_sbu_1, # of connection points: 4
#     Node 19, Type 0, BuildingBlock: QUQFOY_clean_sbu_1, # of connection points: 4
#     Node 20, Type 0, BuildingBlock: QUQFOY_clean_sbu_1, # of connection points: 4
#     Node 21, Type 0, BuildingBlock: QUQFOY_clean_sbu_1, # of connection points: 4
#     Node 22, Type 0, BuildingBlock: QUQFOY_clean_sbu_1, # of connection points: 4
#     Node 23, Type 0, BuildingBlock: QUQFOY_clean_sbu_1, # of connection points: 4
#     Node 24, Type 0, BuildingBlock: QUQFOY_clean_sbu_1, # of connection points: 4
#     Node 25, Type 0, BuildingBlock: QUQFOY_clean_sbu_1, # of connection points: 4
#     Node 26, Type 0, BuildingBlock: QUQFOY_clean_sbu_1, # of connection points: 4
#     Node 27, Type 0, BuildingBlock: QUQFOY_clean_sbu_1, # of connection points: 4
#     Node 28, Type 0, BuildingBlock: QUQFOY_clean_sbu_1, # of connection points: 4
#     Node 29, Type 0, BuildingBlock: QUQFOY_clean_sbu_1, # of connection points: 4
#     Node 30, Type 0, BuildingBlock: QUQFOY_clean_sbu_1, # of connection points: 4
#     Node 31, Type 0, BuildingBlock: QUQFOY_clean_sbu_1, # of connection points: 4
#     Edge 32, Type (0, 0), BuildingBlock: UVAHIK_clean_linker_0, # of connection points: 2
#     Edge 33, Type (0, 0), BuildingBlock: UVAHIK_clean_linker_0, # of connection points: 2
#     Edge 34, Type (0, 0), BuildingBlock: UVAHIK_clean_linker_0, # of connection points: 2
#     Edge 35, Type (0, 0), BuildingBlock: UVAHIK_clean_linker_0, # of connection points: 2
#     Edge 36, Type (0, 0), BuildingBlock: UVAHIK_clean_linker_0, # of connection points: 2
#     Edge 37, Type (0, 0), BuildingBlock: UVAHIK_clean_linker_0, # of connection points: 2
#     Edge 38, Type (0, 0), BuildingBlock: UVAHIK_clean_linker_0, # of connection points: 2
#     Edge 39, Type (0, 0), BuildingBlock: UVAHIK_clean_linker_0, # of connection points: 2
#     Edge 40, Type (0, 0), BuildingBlock: UVAHIK_clean_linker_0, # of connection points: 2
#     Edge 41, Type (0, 0), BuildingBlock: UVAHIK_clean_linker_0, # of connection points: 2
#     Edge 42, Type (0, 0), BuildingBlock: UVAHIK_clean_linker_0, # of connection points: 2
#     Edge 43, Type (0, 0), BuildingBlock: UVAHIK_clean_linker_0, # of connection points: 2
#     Edge 44, Type (0, 0), BuildingBlock: UVAHIK_clean_linker_0, # of connection points: 2
#     Edge 45, Type (0, 0), BuildingBlock: UVAHIK_clean_linker_0, # of connection points: 2
#     Edge 46, Type (0, 0), BuildingBlock: UVAHIK_clean_linker_0, # of connection points: 2
#     Edge 47, Type (0, 0), BuildingBlock: UVAHIK_clean_linker_0, # of connection points: 2
#     Edge 48, Type (0, 0), BuildingBlock: UVAHIK_clean_linker_0, # of connection points: 2
#     Edge 49, Type (0, 0), BuildingBlock: UVAHIK_clean_linker_0, # of connection points: 2
#     Edge 50, Type (0, 0), BuildingBlock: UVAHIK_clean_linker_0, # of connection points: 2
#     Edge 51, Type (0, 0), BuildingBlock: UVAHIK_clean_linker_0, # of connection points: 2
#     Edge 52, Type (0, 0), BuildingBlock: UVAHIK_clean_linker_0, # of connection points: 2
#     Edge 53, Type (0, 0), BuildingBlock: UVAHIK_clean_linker_0, # of connection points: 2
#     Edge 54, Type (0, 0), BuildingBlock: UVAHIK_clean_linker_0, # of connection points: 2
#     Edge 55, Type (0, 0), BuildingBlock: UVAHIK_clean_linker_0, # of connection points: 2
#     Edge 56, Type (0, 0), BuildingBlock: UVAHIK_clean_linker_0, # of connection points: 2
#     Edge 57, Type (0, 0), BuildingBlock: UVAHIK_clean_linker_0, # of connection points: 2
#     Edge 58, Type (0, 0), BuildingBlock: UVAHIK_clean_linker_0, # of connection points: 2
#     Edge 59, Type (0, 0), BuildingBlock: UVAHIK_clean_linker_0, # of connection points: 2
#     Edge 60, Type (0, 0), BuildingBlock: UVAHIK_clean_linker_0, # of connection points: 2
#     Edge 61, Type (0, 0), BuildingBlock: UVAHIK_clean_linker_0, # of connection points: 2
#     Edge 62, Type (0, 0), BuildingBlock: UVAHIK_clean_linker_0, # of connection points: 2
#     Edge 63, Type (0, 0), BuildingBlock: UVAHIK_clean_linker_0, # of connection points: 2
#     Edge 64, Type (0, 0), BuildingBlock: UVAHIK_clean_linker_0, # of connection points: 2
#     Edge 65, Type (0, 0), BuildingBlock: UVAHIK_clean_linker_0, # of connection points: 2
#     Edge 66, Type (0, 0), BuildingBlock: UVAHIK_clean_linker_0, # of connection points: 2
#     Edge 67, Type (0, 0), BuildingBlock: UVAHIK_clean_linker_0, # of connection points: 2
#     Edge 68, Type (0, 0), BuildingBlock: UVAHIK_clean_linker_0, # of connection points: 2
#     Edge 69, Type (0, 0), BuildingBlock: UVAHIK_clean_linker_0, # of connection points: 2
#     Edge 70, Type (0, 0), BuildingBlock: UVAHIK_clean_linker_0, # of connection points: 2
#     Edge 71, Type (0, 0), BuildingBlock: UVAHIK_clean_linker_0, # of connection points: 2
#     Edge 72, Type (0, 0), BuildingBlock: UVAHIK_clean_linker_0, # of connection points: 2
#     Edge 73, Type (0, 0), BuildingBlock: UVAHIK_clean_linker_0, # of connection points: 2
#     Edge 74, Type (0, 0), BuildingBlock: UVAHIK_clean_linker_0, # of connection points: 2
#     Edge 75, Type (0, 0), BuildingBlock: UVAHIK_clean_linker_0, # of connection points: 2
#     Edge 76, Type (0, 0), BuildingBlock: UVAHIK_clean_linker_0, # of connection points: 2
#     Edge 77, Type (0, 0), BuildingBlock: UVAHIK_clean_linker_0, # of connection points: 2
#     Edge 78, Type (0, 0), BuildingBlock: UVAHIK_clean_linker_0, # of connection points: 2
#     Edge 79, Type (0, 0), BuildingBlock: UVAHIK_clean_linker_0, # of connection points: 2
#     Edge 80, Type (0, 0), BuildingBlock: UVAHIK_clean_linker_0, # of connection points: 2
#     Edge 81, Type (0, 0), BuildingBlock: UVAHIK_clean_linker_0, # of connection points: 2
#     Edge 82, Type (0, 0), BuildingBlock: UVAHIK_clean_linker_0, # of connection points: 2
#     Edge 83, Type (0, 0), BuildingBlock: UVAHIK_clean_linker_0, # of connection points: 2
#     Edge 84, Type (0, 0), BuildingBlock: UVAHIK_clean_linker_0, # of connection points: 2
#     Edge 85, Type (0, 0), BuildingBlock: UVAHIK_clean_linker_0, # of connection points: 2
#     Edge 86, Type (0, 0), BuildingBlock: UVAHIK_clean_linker_0, # of connection points: 2
#     Edge 87, Type (0, 0), BuildingBlock: UVAHIK_clean_linker_0, # of connection points: 2
#     Edge 88, Type (0, 0), BuildingBlock: UVAHIK_clean_linker_0, # of connection points: 2
#     Edge 89, Type (0, 0), BuildingBlock: UVAHIK_clean_linker_0, # of connection points: 2
#     Edge 90, Type (0, 0), BuildingBlock: UVAHIK_clean_linker_0, # of connection points: 2
#     Edge 91, Type (0, 0), BuildingBlock: UVAHIK_clean_linker_0, # of connection points: 2
#     Edge 92, Type (0, 0), BuildingBlock: UVAHIK_clean_linker_0, # of connection points: 2
#     Edge 93, Type (0, 0), BuildingBlock: UVAHIK_clean_linker_0, # of connection points: 2
#     Edge 94, Type (0, 0), BuildingBlock: UVAHIK_clean_linker_0, # of connection points: 2
#     Edge 95, Type (0, 0), BuildingBlock: UVAHIK_clean_linker_0, # of connection points: 2
# Relax obj value: 0.226
# Max RMSD: 0.150
# Mean RMSD: 0.150
data_MOF--net-uoi--node1-QUQFOY_clean_sbu_1--edge1-UVAHIK_clean_linker_0
_symmetry_space_group_name_H-M    P1
_symmetry_Int_Tables_number       1
_symmetry_cell_setting            triclinic
loop_
_symmetry_equiv_pos_as_xyz
'x, y, z'
_cell_length_a     111.08362
_cell_length_b     111.09338
_cell_length_c     26.10424
_cell_angle_alpha  90.001468
_cell_angle_beta   89.993508
_cell_angle_gamma 90.006397
loop_
_atom_site_label
_atom_site_type_symbol
_atom_site_fract_x
_atom_site_fract_y
_atom_site_fract_z
_atom_type_partial_charge
O0 O 0.16654 0.19839 0.24212 0.0
Cd1 Cd 0.16435 0.1854 0.29711 0.0
Cd2 Cd 0.18829 0.188 0.30262 0.0
O3 O 0.18619 0.19681 0.23341 0.0
O4 O 0.1487 0.17789 0.2793 0.0
O5 O 0.16605 0.1681 0.27557 0.0
C6 C 0.15459 0.16831 0.26695 0.0
C7 C 0.20594 0.17739 0.32213 0.0
C8 C 0.17619 0.20127 0.21915 0.0
C9 C 0.17258 0.19753 0.38933 0.0
O10 O 0.18259 0.19747 0.36581 0.0
O11 O 0.1636 0.19189 0.37105 0.0
O12 O 0.20601 0.18875 0.31266 0.0
O13 O 0.19587 0.17171 0.31689 0.0
O14 O 0.05355 0.92148 0.48851 0.0
Cd15 Cd 0.06482 0.91963 0.55039 0.0
Cd16 Cd 0.06291 0.94291 0.55014 0.0
O17 O 0.05618 0.94091 0.47683 0.0
O18 O 0.07193 0.90335 0.54201 0.0
O19 O 0.08267 0.9201 0.53756 0.0
C20 C 0.08212 0.90852 0.53325 0.0
C21 C 0.07743 0.95676 0.57537 0.0
C22 C 0.05169 0.93094 0.46239 0.0
C23 C 0.04996 0.92943 0.63297 0.0
O24 O 0.05075 0.9391 0.6072 0.0
O25 O 0.05625 0.92032 0.62052 0.0
O26 O 0.06702 0.96021 0.55926 0.0
O27 O 0.07996 0.94541 0.57371 0.0
O28 O 0.33832 0.80551 0.73936 0.0
Cd29 Cd 0.33754 0.81654 0.80263 0.0
Cd30 Cd 0.31496 0.81394 0.78734 0.0
O31 O 0.31986 0.80942 0.71364 0.0
O32 O 0.35186 0.82731 0.80124 0.0
O33 O 0.33317 0.83357 0.78724 0.0
C34 C 0.34459 0.83583 0.78776 0.0
C35 C 0.29838 0.82561 0.811 0.0
C36 C 0.3301 0.80461 0.70573 0.0
C37 C 0.32638 0.80009 0.87309 0.0
O38 O 0.31813 0.80052 0.8395 0.0
O39 O 0.335 0.80762 0.87154 0.0
O40 O 0.29709 0.81538 0.78832 0.0
O41 O 0.30916 0.82975 0.81628 0.0
O42 O 0.44861 0.08687 0.00432 0.0
Cd43 Cd 0.43551 0.08742 0.05976 0.0
Cd44 Cd 0.43861 0.06411 0.05883 0.0
O45 O 0.44714 0.0674 0.98982 0.0
O46 O 0.42614 0.10234 0.04765 0.0
O47 O 0.41864 0.08402 0.03651 0.0
C48 C 0.41737 0.09557 0.03269 0.0
C49 C 0.42721 0.04681 0.07458 0.0
C50 C 0.45153 0.07763 0.97845 0.0
C51 C 0.4481 0.07822 0.14916 0.0
O52 O 0.44847 0.06866 0.12257 0.0
O53 O 0.44193 0.08717 0.13392 0.0
O54 O 0.4385 0.04626 0.06369 0.0
O55 O 0.42205 0.05721 0.07263 0.0
O56 O 0.16732 0.80227 0.25105 0.0
Cd57 Cd 0.16528 0.81543 0.19658 0.0
Cd58 Cd 0.18923 0.81239 0.19082 0.0
O59 O 0.18702 0.8033 0.25934 0.0
O60 O 0.14954 0.82279 0.21405 0.0
O61 O 0.16678 0.83272 0.21882 0.0
C62 C 0.15529 0.83241 0.2268 0.0
C63 C 0.20693 0.82292 0.17139 0.0
C64 C 0.17692 0.79906 0.27355 0.0
C65 C 0.17339 0.80347 0.10354 0.0
O66 O 0.1834 0.80326 0.12702 0.0
O67 O 0.1645 0.80917 0.12228 0.0
O68 O 0.20694 0.81153 0.18033 0.0
O69 O 0.19692 0.82866 0.1774 0.0
O70 O 0.44766 0.91289 0.49229 0.0
Cd71 Cd 0.43465 0.91211 0.43659 0.0
Cd72 Cd 0.43739 0.93548 0.43607 0.0
O73 O 0.44582 0.93239 0.50547 0.0
O74 O 0.42418 0.89801 0.45068 0.0
O75 O 0.4181 0.91697 0.45859 0.0
C76 C 0.41595 0.90559 0.46419 0.0
C77 C 0.42633 0.95297 0.41925 0.0
C78 C 0.45037 0.92227 0.51764 0.0
C79 C 0.44716 0.92109 0.34678 0.0
O80 O 0.44729 0.93076 0.37269 0.0
O81 O 0.44118 0.91207 0.36255 0.0
O82 O 0.4376 0.95333 0.43042 0.0
O83 O 0.42097 0.94268 0.4215 0.0
O84 O 0.33763 0.19627 0.75029 0.0
Cd85 Cd 0.33699 0.18504 0.68755 0.0
Cd86 Cd 0.31448 0.18792 0.70114 0.0
O87 O 0.31905 0.19261 0.77497 0.0
O88 O 0.35198 0.17532 0.68861 0.0
O89 O 0.33383 0.1677 0.7034 0.0
C90 C 0.34539 0.16629 0.70229 0.0
C91 C 0.29813 0.17598 0.67749 0.0
C92 C 0.32929 0.19735 0.78334 0.0
C93 C 0.32622 0.2014 0.61542 0.0
O94 O 0.31784 0.20123 0.64847 0.0
O95 O 0.33471 0.19375 0.61812 0.0
O96 O 0.29666 0.1863 0.69922 0.0
O97 O 0.30898 0.17194 0.67292 0.0
O98 O 0.05597 0.07814 0.01961 0.0
Cd99 Cd 0.06623 0.07842 0.95396 0.0
Cd100 Cd 0.06473 0.0556 0.96831 0.0
O101 O 0.06013 0.05956 0.04294 0.0
O102 O 0.07327 0.09488 0.95263 0.0
O103 O 0.08415 0.07839 0.9636 0.0
C104 C 0.08355 0.09001 0.9627 0.0
C105 C 0.0795 0.04258 0.93842 0.0
C106 C 0.05533 0.06972 0.05241 0.0
C107 C 0.04986 0.0661 0.88459 0.0
O108 O 0.05085 0.05771 0.91736 0.0
O109 O 0.05682 0.07519 0.88676 0.0
O110 O 0.07002 0.03854 0.96139 0.0
O111 O 0.08109 0.05411 0.93673 0.0
O112 O 0.83668 0.80238 0.74559 0.0
Cd113 Cd 0.83726 0.81463 0.68677 0.0
Cd114 Cd 0.814 0.81216 0.69053 0.0
O115 O 0.81738 0.80478 0.76182 0.0
O116 O 0.85229 0.82405 0.69556 0.0
O117 O 0.83404 0.83179 0.70606 0.0
C118 C 0.8456 0.83302 0.70894 0.0
C119 C 0.79707 0.82388 0.67219 0.0
C120 C 0.82753 0.80022 0.77331 0.0
C121 C 0.82744 0.80083 0.60223 0.0
O122 O 0.81803 0.80107 0.62986 0.0
O123 O 0.83654 0.80714 0.61453 0.0
O124 O 0.79615 0.81283 0.68651 0.0
O125 O 0.80765 0.82868 0.67213 0.0
O126 O 0.94766 0.07806 0.52089 0.0
Cd127 Cd 0.93731 0.08275 0.45887 0.0
Cd128 Cd 0.93737 0.05888 0.44565 0.0
O129 O 0.94453 0.05848 0.5185 0.0
O130 O 0.93149 0.09909 0.47672 0.0
O131 O 0.91936 0.08338 0.469 0.0
C132 C 0.92085 0.09456 0.48128 0.0
C133 C 0.92462 0.04358 0.41624 0.0
C134 C 0.94908 0.06767 0.54012 0.0
C135 C 0.95158 0.07446 0.37148 0.0
O136 O 0.94933 0.06413 0.38997 0.0
O137 O 0.94661 0.08376 0.39037 0.0
O138 O 0.93557 0.0415 0.42946 0.0
O139 O 0.92052 0.05435 0.42268 0.0
O140 O 0.66197 0.19701 0.24623 0.0
Cd141 Cd 0.6617 0.18492 0.18676 0.0
Cd142 Cd 0.685 0.18777 0.19031 0.0
O143 O 0.68137 0.19507 0.26157 0.0
O144 O 0.64758 0.17417 0.19608 0.0
O145 O 0.66653 0.16809 0.20446 0.0
C146 C 0.65514 0.16579 0.20817 0.0
C147 C 0.70245 0.17672 0.17261 0.0
C148 C 0.67113 0.19936 0.2736 0.0
C149 C 0.67123 0.19895 0.10225 0.0
O150 O 0.6807 0.1987 0.12945 0.0
O151 O 0.66216 0.19264 0.11488 0.0
O152 O 0.70289 0.18781 0.18672 0.0
O153 O 0.69206 0.1715 0.1723 0.0
O154 O 0.55264 0.91441 0.99261 0.0
Cd155 Cd 0.56556 0.91397 0.93629 0.0
Cd156 Cd 0.56243 0.93725 0.93824 0.0
O157 O 0.55407 0.93386 0.00752 0.0
O158 O 0.57484 0.89892 0.94665 0.0
O159 O 0.58256 0.91713 0.95843 0.0
C160 C 0.58375 0.90557 0.96119 0.0
C161 C 0.57396 0.95445 0.92232 0.0
C162 C 0.54975 0.9236 0.01883 0.0
C163 C 0.55268 0.92338 0.84792 0.0
O164 O 0.55236 0.93289 0.87488 0.0
O165 O 0.5589 0.91442 0.86254 0.0
O166 O 0.56272 0.95511 0.93389 0.0
O167 O 0.57902 0.94399 0.92376 0.0
O168 O 0.83523 0.19926 0.7462 0.0
Cd169 Cd 0.8366 0.1876 0.80691 0.0
Cd170 Cd 0.81304 0.1898 0.80533 0.0
O171 O 0.81579 0.19692 0.73313 0.0
O172 O 0.85245 0.1797 0.79793 0.0
O173 O 0.83513 0.16991 0.79193 0.0
C174 C 0.84673 0.16987 0.78775 0.0
C175 C 0.79623 0.17808 0.82608 0.0
C176 C 0.82587 0.20133 0.71967 0.0
C177 C 0.82694 0.20188 0.89078 0.0
O178 O 0.81732 0.20121 0.86462 0.0
O179 O 0.83612 0.19576 0.87786 0.0
O180 O 0.79522 0.18909 0.81131 0.0
O181 O 0.80683 0.17331 0.82549 0.0
O182 O 0.55341 0.08812 0.5035 0.0
Cd183 Cd 0.5664 0.08877 0.5594 0.0
Cd184 Cd 0.5635 0.06541 0.55961 0.0
O185 O 0.55498 0.06859 0.49047 0.0
O186 O 0.57689 0.10289 0.54598 0.0
O187 O 0.58299 0.08395 0.53785 0.0
C188 C 0.58517 0.09533 0.53272 0.0
C189 C 0.57457 0.04791 0.57606 0.0
C190 C 0.55055 0.07876 0.47829 0.0
C191 C 0.55387 0.07977 0.64922 0.0
O192 O 0.55369 0.07011 0.62326 0.0
O193 O 0.55984 0.08879 0.63338 0.0
O194 O 0.56328 0.04756 0.56509 0.0
O195 O 0.57993 0.0582 0.57373 0.0
O196 O 0.66399 0.80268 0.25341 0.0
Cd197 Cd 0.66354 0.81509 0.31171 0.0
Cd198 Cd 0.68681 0.81236 0.30805 0.0
O199 O 0.68337 0.80458 0.23761 0.0
O200 O 0.64849 0.82448 0.30315 0.0
O201 O 0.6667 0.83226 0.29211 0.0
C202 C 0.65514 0.83348 0.28972 0.0
C203 C 0.7039 0.82398 0.32505 0.0
C204 C 0.67314 0.80017 0.22624 0.0
C205 C 0.6733 0.8015 0.39719 0.0
O206 O 0.68274 0.80162 0.36976 0.0
O207 O 0.66422 0.80775 0.38424 0.0
O208 O 0.70468 0.81285 0.31175 0.0
O209 O 0.69337 0.82891 0.32481 0.0
O210 O 0.94641 0.9161 0.9953 0.0
Cd211 Cd 0.93454 0.9154 0.05547 0.0
Cd212 Cd 0.93549 0.93862 0.04789 0.0
O213 O 0.94257 0.93502 0.97631 0.0
O214 O 0.92558 0.9 0.04979 0.0
O215 O 0.91722 0.9179 0.03729 0.0
C216 C 0.91635 0.9063 0.03611 0.0
C217 C 0.92215 0.95441 0.06388 0.0
C218 C 0.94774 0.9251 0.96582 0.0
C219 C 0.94814 0.92693 0.13703 0.0
O220 O 0.94719 0.93606 0.10802 0.0
O221 O 0.94234 0.91736 0.12672 0.0
O222 O 0.93298 0.95634 0.0483 0.0
O223 O 0.91852 0.94339 0.06703 0.0
O224 O 0.66246 0.6965 0.75414 0.0
Cd225 Cd 0.66169 0.68399 0.81193 0.0
Cd226 Cd 0.68509 0.68655 0.81123 0.0
O227 O 0.68191 0.69435 0.74058 0.0
O228 O 0.64747 0.67353 0.79984 0.0
O229 O 0.66636 0.66722 0.79244 0.0
C230 C 0.65496 0.66513 0.7874 0.0
C231 C 0.70253 0.67546 0.8288 0.0
C232 C 0.67181 0.69887 0.72799 0.0
C233 C 0.67093 0.69719 0.89945 0.0
O234 O 0.68055 0.69703 0.87321 0.0
O235 O 0.66184 0.69114 0.8849 0.0
O236 O 0.70296 0.68665 0.81622 0.0
O237 O 0.69218 0.67019 0.82773 0.0
O238 O 0.5534 0.41196 0.01388 0.0
Cd239 Cd 0.56662 0.41144 0.06882 0.0
Cd240 Cd 0.56399 0.43483 0.06779 0.0
O241 O 0.55513 0.43143 -0.00036 0.0
O242 O 0.57716 0.39736 0.05516 0.0
O243 O 0.58306 0.41634 0.04572 0.0
C244 C 0.5853 0.40496 0.04083 0.0
C245 C 0.5752 0.45237 0.08142 0.0
C246 C 0.55055 0.42127 0.98836 0.0
C247 C 0.55459 0.4209 0.15912 0.0
O248 O 0.55445 0.43049 0.13267 0.0
O249 O 0.56036 0.41174 0.14328 0.0
O250 O 0.56386 0.4527 0.0716 0.0
O251 O 0.58052 0.44204 0.07972 0.0
O252 O 0.83617 0.30661 0.24927 0.0
Cd253 Cd 0.83661 0.31862 0.30895 0.0
Cd254 Cd 0.81328 0.31608 0.30514 0.0
O255 O 0.81684 0.30898 0.23347 0.0
O256 O 0.85087 0.32918 0.29967 0.0
O257 O 0.832 0.3355 0.29129 0.0
C258 C 0.84341 0.33765 0.28746 0.0
C259 C 0.79591 0.32716 0.32375 0.0
C260 C 0.82702 0.30452 0.22151 0.0
C261 C 0.82688 0.30457 0.39283 0.0
O262 O 0.81745 0.30494 0.3654 0.0
O263 O 0.83603 0.31083 0.38066 0.0
O264 O 0.7954 0.31614 0.30874 0.0
O265 O 0.80632 0.33232 0.32434 0.0
O266 O 0.94514 0.58466 0.49197 0.0
Cd267 Cd 0.93351 0.58576 0.55284 0.0
Cd268 Cd 0.93485 0.56242 0.54922 0.0
O269 O 0.94168 0.56547 0.47669 0.0
O270 O 0.9234 0.60037 0.54404 0.0
O271 O 0.9164 0.58171 0.53696 0.0
C272 C 0.91463 0.59318 0.53285 0.0
C273 C 0.92258 0.54601 0.56978 0.0
C274 C 0.9466 0.57539 0.46413 0.0
C275 C 0.94761 0.57542 0.63532 0.0
O276 O 0.94662 0.566 0.60806 0.0
O277 O 0.94169 0.58483 0.62377 0.0
O278 O 0.93345 0.54461 0.55372 0.0
O279 O 0.91824 0.55679 0.57032 0.0
O280 O 0.66181 0.30412 0.74624 0.0
Cd281 Cd 0.6612 0.31626 0.68699 0.0
Cd282 Cd 0.68453 0.3136 0.68904 0.0
O283 O 0.68124 0.30622 0.76044 0.0
O284 O 0.647 0.32683 0.6975 0.0
O285 O 0.6659 0.33312 0.70471 0.0
C286 C 0.6545 0.33528 0.70929 0.0
C287 C 0.70178 0.32485 0.67018 0.0
C288 C 0.67108 0.30184 0.77303 0.0
C289 C 0.67053 0.30235 0.60178 0.0
O290 O 0.68009 0.30267 0.6284 0.0
O291 O 0.66145 0.30858 0.61499 0.0
O292 O 0.7024 0.31376 0.68406 0.0
O293 O 0.69135 0.32996 0.67076 0.0
O294 O 0.94518 0.41553 0.99398 0.0
Cd295 Cd 0.93251 0.41487 0.93681 0.0
Cd296 Cd 0.93447 0.43824 0.94028 0.0
O297 O 0.94267 0.43484 0.00988 0.0
O298 O 0.92209 0.40057 0.94804 0.0
O299 O 0.91582 0.41942 0.95764 0.0
C300 C 0.91373 0.40801 0.96169 0.0
C301 C 0.92257 0.45523 0.92496 0.0
C302 C 0.94747 0.42477 0.02096 0.0
C303 C 0.9452 0.42507 0.84973 0.0
O304 O 0.94486 0.43451 0.87715 0.0
O305 O 0.93945 0.41572 0.86351 0.0
O306 O 0.93375 0.45611 0.93724 0.0
O307 O 0.91776 0.44466 0.9254 0.0
O308 O 0.83738 0.69579 0.24574 0.0
Cd309 Cd 0.83797 0.68352 0.187 0.0
Cd310 Cd 0.81464 0.68602 0.18956 0.0
O311 O 0.81802 0.69341 0.26084 0.0
O312 O 0.85214 0.67293 0.19767 0.0
O313 O 0.83322 0.66675 0.20571 0.0
C314 C 0.84461 0.66455 0.21014 0.0
C315 C 0.79729 0.67486 0.17133 0.0
C316 C 0.82815 0.69796 0.2729 0.0
C317 C 0.82846 0.69723 0.10169 0.0
O318 O 0.81895 0.69693 0.1287 0.0
O319 O 0.83757 0.69103 0.11469 0.0
O320 O 0.79677 0.68595 0.18536 0.0
O321 O 0.8077 0.6697 0.17139 0.0
O322 O 0.55383 0.58816 0.48529 0.0
Cd323 Cd 0.56677 0.58884 0.42919 0.0
Cd324 Cd 0.5644 0.56544 0.43064 0.0
O325 O 0.55593 0.56874 0.49975 0.0
O326 O 0.57723 0.60302 0.442 0.0
O327 O 0.58336 0.58411 0.45089 0.0
C328 C 0.5855 0.5955 0.45568 0.0
C329 C 0.57573 0.54803 0.41572 0.0
C330 C 0.55125 0.57884 0.51128 0.0
C331 C 0.55434 0.57923 0.34025 0.0
O332 O 0.55442 0.56966 0.36686 0.0
O333 O 0.56014 0.58843 0.35532 0.0
O334 O 0.56446 0.54756 0.42685 0.0
O335 O 0.58093 0.55841 0.41682 0.0
O336 O 0.33555 0.3043 0.2507 0.0
Cd337 Cd 0.33772 0.31562 0.18913 0.0
Cd338 Cd 0.31411 0.3134 0.18378 0.0
O339 O 0.31583 0.30612 0.25614 0.0
O340 O 0.35317 0.32416 0.2005 0.0
O341 O 0.33541 0.33325 0.20281 0.0
C342 C 0.34695 0.33376 0.20904 0.0
C343 C 0.29734 0.32485 0.15964 0.0
C344 C 0.32571 0.30204 0.27354 0.0
C345 C 0.32932 0.30102 0.1033 0.0
O346 O 0.31925 0.30199 0.12596 0.0
O347 O 0.33834 0.30702 0.11896 0.0
O348 O 0.29638 0.3138 0.17371 0.0
O349 O 0.30783 0.32981 0.16257 0.0
O350 O 0.44894 0.58468 0.98521 0.0
Cd351 Cd 0.43598 0.58551 0.92922 0.0
Cd352 Cd 0.43901 0.56224 0.92904 0.0
O353 O 0.44765 0.56513 -0.00189 0.0
O354 O 0.42709 0.60078 0.9406 0.0
O355 O 0.41893 0.58276 0.95187 0.0
C356 C 0.41804 0.59434 0.95517 0.0
C357 C 0.42611 0.54611 0.91251 0.0
C358 C 0.45194 0.57536 0.01034 0.0
C359 C 0.44868 0.57634 0.83952 0.0
O360 O 0.44896 0.56668 0.86551 0.0
O361 O 0.44256 0.58527 0.85525 0.0
O362 O 0.43735 0.54448 0.92246 0.0
O363 O 0.42191 0.55693 0.91589 0.0
O364 O 0.16491 0.69841 0.75001 0.0
Cd365 Cd 0.16376 0.68521 0.69528 0.0
Cd366 Cd 0.18742 0.68753 0.69663 0.0
O367 O 0.18436 0.69668 0.76438 0.0
O368 O 0.14812 0.67725 0.70907 0.0
O369 O 0.16569 0.66806 0.71835 0.0
C370 C 0.15412 0.66792 0.72374 0.0
C371 C 0.20473 0.67594 0.68346 0.0
C372 C 0.1742 0.70128 0.77548 0.0
C373 C 0.17356 0.69698 0.60491 0.0
O374 O 0.18316 0.69697 0.63133 0.0
O375 O 0.16428 0.69143 0.62086 0.0
O376 O 0.20528 0.6873 0.69258 0.0
O377 O 0.1943 0.67083 0.68544 0.0
O378 O 0.05066 0.42002 0.49732 0.0
Cd379 Cd 0.06308 0.41804 0.43966 0.0
Cd380 Cd 0.06081 0.44137 0.43741 0.0
O381 O 0.05257 0.43957 0.50803 0.0
O382 O 0.07034 0.40205 0.45345 0.0
O383 O 0.08061 0.41909 0.45838 0.0
C384 C 0.08019 0.40757 0.46504 0.0
C385 C 0.07524 0.45571 0.41611 0.0
C386 C 0.0481 0.42954 0.52186 0.0
C387 C 0.0499 0.42713 0.35102 0.0
O388 O 0.05011 0.43695 0.37602 0.0
O389 O 0.05588 0.4181 0.36676 0.0
O390 O 0.06438 0.45877 0.42754 0.0
O391 O 0.07821 0.44451 0.42079 0.0
O392 O 0.33529 0.69723 0.24124 0.0
Cd393 Cd 0.33801 0.68599 0.30268 0.0
Cd394 Cd 0.31437 0.68784 0.31107 0.0
O395 O 0.31557 0.69512 0.23854 0.0
O396 O 0.35347 0.67759 0.28969 0.0
O397 O 0.33579 0.66832 0.28973 0.0
C398 C 0.34729 0.66791 0.28223 0.0
C399 C 0.29767 0.67643 0.33661 0.0
C400 C 0.32526 0.69935 0.21977 0.0
C401 C 0.32999 0.70049 0.38946 0.0
O402 O 0.31977 0.69931 0.36826 0.0
O403 O 0.339 0.69466 0.37258 0.0
O404 O 0.29669 0.6875 0.32276 0.0
O405 O 0.30812 0.67144 0.3329 0.0
O406 O 0.05291 0.58045 0.98799 0.0
Cd407 Cd 0.06403 0.58174 0.05056 0.0
Cd408 Cd 0.06198 0.55851 0.0473 0.0
O409 O 0.05548 0.56109 0.97392 0.0
O410 O 0.07142 0.59795 0.04426 0.0
O411 O 0.08188 0.58105 0.03804 0.0
C412 C 0.08152 0.59265 0.03489 0.0
C413 C 0.07652 0.54458 0.07152 0.0
C414 C 0.05111 0.5712 0.96052 0.0
C415 C 0.04894 0.57144 0.1313 0.0
O416 O 0.04971 0.56195 0.10434 0.0
O417 O 0.0553 0.5806 0.12024 0.0
O418 O 0.06617 0.54117 0.05444 0.0
O419 O 0.07898 0.55595 0.07139 0.0
O420 O 0.16529 0.30325 0.73995 0.0
Cd421 Cd 0.16443 0.31584 0.79744 0.0
Cd422 Cd 0.18804 0.31336 0.79448 0.0
O423 O 0.18477 0.30479 0.72559 0.0
O424 O 0.14864 0.32386 0.78808 0.0
O425 O 0.16606 0.33328 0.7781 0.0
C426 C 0.15444 0.33346 0.77524 0.0
C427 C 0.20512 0.32518 0.80903 0.0
C428 C 0.17453 0.30044 0.71395 0.0
C429 C 0.17455 0.30312 0.88522 0.0
O430 O 0.18408 0.30331 0.85837 0.0
O431 O 0.16527 0.30885 0.87056 0.0
O432 O 0.20589 0.31392 0.79785 0.0
O433 O 0.19458 0.33008 0.8081 0.0
O434 O 0.44922 0.4151 0.51412 0.0
Cd435 Cd 0.43596 0.41426 0.56887 0.0
Cd436 Cd 0.43913 0.43755 0.57009 0.0
O437 O 0.44819 0.43469 0.50193 0.0
O438 O 0.42697 0.39912 0.556 0.0
O439 O 0.41905 0.41726 0.54488 0.0
C440 C 0.41806 0.40569 0.54095 0.0
C441 C 0.4264 0.45387 0.58548 0.0
C442 C 0.45244 0.42445 0.4897 0.0
C443 C 0.44818 0.4232 0.66018 0.0
O444 O 0.44863 0.43292 0.63464 0.0
O445 O 0.44216 0.4143 0.64342 0.0
O446 O 0.43773 0.45533 0.5769 0.0
O447 O 0.42204 0.44314 0.58141 0.0
C448 C 0.27611 0.17429 0.66073 0.0
C449 C 0.28785 0.17012 0.65144 0.0
C450 C 0.26678 0.17146 0.62706 0.0
C451 C 0.25492 0.17519 0.52495 0.0
H452 H 0.24664 0.14566 0.45381 0.0
C453 C 0.22776 0.17777 0.3431 0.0
C454 C 0.21664 0.17178 0.34584 0.0
C455 C 0.23706 0.17478 0.37659 0.0
C456 C 0.2489 0.15394 0.47348 0.0
H457 H 0.29874 0.15867 0.60265 0.0
H458 H 0.28237 0.15378 0.54346 0.0
H459 H 0.26088 0.14509 0.5263 0.0
H460 H 0.20698 0.15713 0.38214 0.0
H461 H 0.22336 0.15189 0.44109 0.0
H462 H 0.24324 0.18412 0.4724 0.0
C463 C 0.28041 0.15922 0.57687 0.0
C464 C 0.25702 0.15362 0.51476 0.0
C465 C 0.28979 0.16203 0.61079 0.0
C466 C 0.21546 0.16189 0.37912 0.0
C467 C 0.22482 0.1589 0.4129 0.0
C468 C 0.24703 0.17553 0.4836 0.0
C469 C 0.26898 0.16444 0.58327 0.0
C470 C 0.26005 0.16427 0.541 0.0
C471 C 0.23545 0.16576 0.41363 0.0
C472 C 0.24398 0.16496 0.45719 0.0
H473 H 0.27429 0.18041 0.69208 0.0
H474 H 0.25799 0.17541 0.63347 0.0
H475 H 0.25722 0.18357 0.54376 0.0
H476 H 0.229 0.18534 0.31746 0.0
H477 H 0.24526 0.18007 0.37577 0.0
C478 C 0.08603 0.97733 0.58601 0.0
C479 C 0.08522 0.96537 0.60264 0.0
C480 C 0.09081 0.98619 0.61817 0.0
C481 C 0.10367 0.99115 0.75123 0.0
H482 H 0.08553 0.02082 0.73908 0.0
C483 C 0.0863 0.02185 0.91476 0.0
C484 C 0.08702 0.03436 0.90738 0.0
C485 C 0.09075 0.01393 0.87762 0.0
C486 C 0.09085 0.01268 0.74256 0.0
H487 H 0.08931 0.95309 0.66451 0.0
H488 H 0.09685 0.96849 0.72194 0.0
H489 H 0.0845 0.0061 0.67117 0.0
H490 H 0.09383 0.04839 0.85733 0.0
H491 H 0.10127 0.03453 0.79184 0.0
H492 H 0.10897 0.99755 0.82566 0.0
C493 C 0.09434 0.97117 0.68356 0.0
C494 C 0.09035 0.00419 0.70326 0.0
C495 C 0.08997 0.96225 0.65059 0.0
C496 C 0.09317 0.03879 0.86423 0.0
C497 C 0.09739 0.03088 0.82662 0.0
C498 C 0.10389 0.99956 0.79128 0.0
C499 C 0.09437 0.98338 0.66867 0.0
C500 C 0.09653 0.99314 0.70729 0.0
C501 C 0.09579 0.01841 0.83212 0.0
C502 C 0.09731 0.0103 0.78755 0.0
H503 H 0.08248 0.97993 0.54896 0.0
H504 H 0.09114 0.99534 0.60409 0.0
H505 H 0.10883 0.98296 0.75559 0.0
H506 H 0.08163 0.01818 0.94766 0.0
H507 H 0.08934 0.00435 0.88259 0.0
C508 C 0.21635 0.8385 0.11451 0.0
C509 C 0.21759 0.8285 0.14716 0.0
C510 C 0.22558 0.84151 0.08011 0.0
C511 C 0.24931 0.84656 0.01776 0.0
H512 H 0.25766 0.81711 0.94622 0.0
C513 C 0.28985 0.83932 0.87814 0.0
C514 C 0.28801 0.83119 0.83755 0.0
C515 C 0.2805 0.84191 0.91251 0.0
C516 C 0.25535 0.82545 0.96535 0.0
H517 H 0.22993 0.81474 0.17373 0.0
H518 H 0.24599 0.82005 0.11442 0.0
H519 H 0.24389 0.81633 0.01828 0.0
H520 H 0.2746 0.82057 0.79757 0.0
H521 H 0.25833 0.82518 0.85695 0.0
H522 H 0.26104 0.8556 0.96451 0.0
C523 C 0.23783 0.8254 0.11451 0.0
C524 C 0.24758 0.82498 0.00713 0.0
C525 C 0.22865 0.8224 0.14862 0.0
C526 C 0.27635 0.82674 0.82884 0.0
C527 C 0.26704 0.82934 0.86298 0.0
C528 C 0.25729 0.84701 0.97601 0.0
C529 C 0.23614 0.83456 0.07811 0.0
C530 C 0.24453 0.83548 0.03405 0.0
C531 C 0.26919 0.83642 0.90666 0.0
C532 C 0.26033 0.83643 0.94931 0.0
H533 H 0.20791 0.84335 0.11246 0.0
H534 H 0.22407 0.84862 0.05247 0.0
H535 H 0.24705 0.85479 0.03779 0.0
H536 H 0.29873 0.84292 0.88584 0.0
H537 H 0.28242 0.8474 0.9458 0.0
C538 C 0.41196 0.03751 0.13316 0.0
C539 C 0.42119 0.03615 0.09675 0.0
C540 C 0.40892 0.02794 0.16575 0.0
C541 C 0.42535 0.00369 0.22523 0.0
H542 H 0.39497 0.99293 0.28246 0.0
C543 C 0.41126 0.96244 0.36022 0.0
C544 C 0.42055 0.9637 0.39648 0.0
C545 C 0.40842 0.97198 0.3272 0.0
C546 C 0.40349 0.9959 0.26676 0.0
H547 H 0.43338 0.02337 0.06147 0.0
H548 H 0.42795 0.0067 0.11743 0.0
H549 H 0.39508 0.00733 0.21051 0.0
H550 H 0.43303 0.9763 0.431 0.0
H551 H 0.42794 0.99293 0.37424 0.0
H552 H 0.43384 0.9925 0.28088 0.0
C553 C 0.42326 0.0152 0.12179 0.0
C554 C 0.40356 0.00411 0.22577 0.0
C555 C 0.42634 0.02473 0.08959 0.0
C556 C 0.42595 0.97502 0.40301 0.0
C557 C 0.42307 0.98453 0.37036 0.0
C558 C 0.42529 0.9957 0.26625 0.0
C559 C 0.41505 0.0169 0.16209 0.0
C560 C 0.41452 0.00799 0.2044 0.0
C561 C 0.41479 0.98289 0.33027 0.0
C562 C 0.4144 0.99173 0.28765 0.0
H563 H 0.40786 0.04622 0.13961 0.0
H564 H 0.40254 0.02949 0.19644 0.0
H565 H 0.43395 0.00666 0.21027 0.0
H566 H 0.40697 0.9538 0.35426 0.0
H567 H 0.40198 0.97049 0.29667 0.0
C568 C 0.72597 0.82499 0.34057 0.0
C569 C 0.7145 0.83001 0.34787 0.0
C570 C 0.73545 0.82804 0.37311 0.0
C571 C 0.74657 0.84751 0.47726 0.0
H572 H 0.75761 0.81713 0.53345 0.0
C573 C 0.77503 0.82502 0.65586 0.0
C574 C 0.78656 0.82992 0.64869 0.0
C575 C 0.76563 0.82808 0.62297 0.0
C576 C 0.75457 0.8257 0.51848 0.0
H577 H 0.70428 0.84313 0.39133 0.0
H578 H 0.72093 0.84842 0.44862 0.0
H579 H 0.74349 0.81715 0.4626 0.0
H580 H 0.79696 0.84286 0.60499 0.0
H581 H 0.78043 0.84819 0.5471 0.0
H582 H 0.75791 0.85599 0.53368 0.0
C583 C 0.72256 0.84215 0.41762 0.0
C584 C 0.7466 0.82571 0.4774 0.0
C585 C 0.71303 0.83912 0.38478 0.0
C586 C 0.78817 0.83894 0.61146 0.0
C587 C 0.77871 0.84199 0.57828 0.0
C588 C 0.75477 0.8475 0.51825 0.0
C589 C 0.73364 0.83612 0.41375 0.0
C590 C 0.74251 0.83658 0.45622 0.0
C591 C 0.76756 0.83608 0.5821 0.0
C592 C 0.75874 0.83656 0.53949 0.0
H593 H 0.72742 0.81805 0.31207 0.0
H594 H 0.74398 0.82342 0.36871 0.0
H595 H 0.74349 0.85601 0.4617 0.0
H596 H 0.77348 0.81816 0.68459 0.0
H597 H 0.75705 0.82356 0.62732 0.0
C598 C 0.92204 0.02233 0.38833 0.0
C599 C 0.9178 0.03425 0.38807 0.0
C600 C 0.91798 0.0141 0.35197 0.0
C601 C 0.89764 0.0033 0.25972 0.0
H602 H 0.92547 0.9999 0.1711 0.0
C603 C 0.91775 0.97631 0.07045 0.0
C604 C 0.91508 0.96447 0.08534 0.0
C605 C 0.91403 0.98601 0.10049 0.0
C606 C 0.91748 0.0009 0.19452 0.0
H607 H 0.90513 0.04656 0.35271 0.0
H608 H 0.89802 0.032 0.2886 0.0
H609 H 0.92609 0.01401 0.24201 0.0
H610 H 0.90538 0.95353 0.14023 0.0
H611 H 0.89917 0.97045 0.19367 0.0
H612 H 0.88919 0.98976 0.21305 0.0
C613 C 0.90446 0.02912 0.3173 0.0
C614 C 0.91791 0.00891 0.23544 0.0
C615 C 0.90853 0.03742 0.35392 0.0
C616 C 0.90755 0.96258 0.12781 0.0
C617 C 0.90398 0.9723 0.15844 0.0
C618 C 0.89722 0.99514 0.21864 0.0
C619 C 0.90956 0.01758 0.31485 0.0
C620 C 0.90811 0.01002 0.26884 0.0
C621 C 0.90779 0.98405 0.14664 0.0
C622 C 0.90723 0.99374 0.18599 0.0
H623 H 0.92912 0.01959 0.41438 0.0
H624 H 0.92204 0.00523 0.35057 0.0
H625 H 0.89 0.00404 0.28531 0.0
H626 H 0.92343 0.97804 0.0375 0.0
H627 H 0.91682 0.995 0.08953 0.0
C628 C 0.78754 0.16312 0.88789 0.0
C629 C 0.78582 0.17205 0.85036 0.0
C630 C 0.77815 0.16004 0.92132 0.0
C631 C 0.75376 0.17606 0.98083 0.0
H632 H 0.74293 0.14563 0.03733 0.0
C633 C 0.71209 0.16187 0.11297 0.0
C634 C 0.71324 0.17105 0.14978 0.0
C635 C 0.72176 0.15907 0.08051 0.0
C636 C 0.74593 0.15417 0.02186 0.0
H637 H 0.7726 0.18364 0.81436 0.0
H638 H 0.75627 0.17818 0.87208 0.0
H639 H 0.75749 0.14582 0.9659 0.0
H640 H 0.72576 0.18341 0.18572 0.0
H641 H 0.74257 0.17843 0.12975 0.0
H642 H 0.74243 0.1845 0.03617 0.0
C643 C 0.7649 0.17375 0.87645 0.0
C644 C 0.75423 0.15427 0.98119 0.0
C645 C 0.77424 0.17684 0.84331 0.0
C646 C 0.72455 0.17641 0.15728 0.0
C647 C 0.73417 0.17359 0.12512 0.0
C648 C 0.74569 0.17597 0.02159 0.0
C649 C 0.76693 0.16583 0.91747 0.0
C650 C 0.7581 0.16525 0.96002 0.0
C651 C 0.73267 0.1654 0.08463 0.0
C652 C 0.74168 0.16505 0.04264 0.0
H653 H 0.79638 0.15928 0.89427 0.0
H654 H 0.77994 0.15389 0.95262 0.0
H655 H 0.75671 0.18467 0.96588 0.0
H656 H 0.70347 0.1576 0.10628 0.0
H657 H 0.72036 0.15271 0.04963 0.0
C658 C 0.57499 0.97652 0.90715 0.0
C659 C 0.58002 0.96506 0.89984 0.0
C660 C 0.57805 0.98601 0.87471 0.0
C661 C 0.59755 0.99689 0.76964 0.0
H662 H 0.5672 0.00863 0.7157 0.0
C663 C 0.57491 0.02588 0.59273 0.0
C664 C 0.58036 0.03719 0.59881 0.0
C665 C 0.57782 0.0164 0.62548 0.0
C666 C 0.57577 0.00539 0.73 0.0
H667 H 0.59317 0.95486 0.85646 0.0
H668 H 0.59846 0.97152 0.79924 0.0
H669 H 0.56718 0.99455 0.78661 0.0
H670 H 0.59407 0.04709 0.64031 0.0
H671 H 0.59911 0.03044 0.69805 0.0
H672 H 0.60606 0.00795 0.71232 0.0
C673 C 0.59218 0.97314 0.83021 0.0
C674 C 0.57576 0.99745 0.77118 0.0
C675 C 0.58915 0.96361 0.86303 0.0
C676 C 0.58973 0.03846 0.63469 0.0
C677 C 0.59261 0.02894 0.6678 0.0
C678 C 0.59756 0.00505 0.72848 0.0
C679 C 0.58614 0.98422 0.83404 0.0
C680 C 0.58662 0.9931 0.79159 0.0
C681 C 0.58619 0.01805 0.66521 0.0
C682 C 0.58663 0.00927 0.70801 0.0
H683 H 0.56802 0.97794 0.93558 0.0
H684 H 0.57344 0.99454 0.87919 0.0
H685 H 0.60604 0.99363 0.78455 0.0
H686 H 0.56776 0.02459 0.56504 0.0
H687 H 0.5729 0.00802 0.62199 0.0
C688 C 0.71208 0.66041 0.88775 0.0
C689 C 0.71328 0.6697 0.85148 0.0
C690 C 0.72171 0.65749 0.92022 0.0
C691 C 0.74581 0.65229 0.97877 0.0
H692 H 0.75702 0.68254 0.03565 0.0
C693 C 0.78784 0.66008 0.11087 0.0
C694 C 0.78658 0.66913 0.14818 0.0
C695 C 0.77822 0.65727 0.0782 0.0
C696 C 0.75393 0.674 0.02053 0.0
H697 H 0.72586 0.68215 0.81646 0.0
H698 H 0.74261 0.67694 0.87233 0.0
H699 H 0.74261 0.68268 0.96593 0.0
H700 H 0.77391 0.68124 0.18471 0.0
H701 H 0.75716 0.67622 0.12847 0.0
H702 H 0.75736 0.64367 0.03396 0.0
C703 C 0.73419 0.67212 0.87661 0.0
C704 C 0.74579 0.67408 0.98004 0.0
C705 C 0.72461 0.67506 0.84448 0.0
C706 C 0.7752 0.67434 0.1559 0.0
C707 C 0.76562 0.6715 0.12356 0.0
C708 C 0.75416 0.6522 0.0192 0.0
C709 C 0.73264 0.6638 0.91661 0.0
C710 C 0.74164 0.66326 0.95856 0.0
C711 C 0.76722 0.66345 0.08262 0.0
C712 C 0.75821 0.66309 0.0407 0.0
H713 H 0.70344 0.65614 0.89407 0.0
H714 H 0.72027 0.65103 0.9507 0.0
H715 H 0.7427 0.64382 0.96298 0.0
H716 H 0.79651 0.65593 0.10399 0.0
H717 H 0.77969 0.65102 0.047 0.0
C718 C 0.57655 0.52588 0.40261 0.0
C719 C 0.58169 0.53726 0.39425 0.0
C720 C 0.57952 0.5162 0.37109 0.0
C721 C 0.57711 0.50431 0.26859 0.0
H722 H 0.60729 0.49301 0.21135 0.0
C723 C 0.57584 0.47452 0.09444 0.0
C724 C 0.58117 0.46321 0.10218 0.0
C725 C 0.57891 0.48424 0.12559 0.0
C726 C 0.59883 0.49614 0.22705 0.0
H727 H 0.59494 0.54711 0.34999 0.0
H728 H 0.60008 0.53011 0.29432 0.0
H729 H 0.60744 0.50778 0.28194 0.0
H730 H 0.59482 0.45352 0.14484 0.0
H731 H 0.60012 0.47059 0.19987 0.0
H732 H 0.56842 0.4929 0.21435 0.0
C733 C 0.59378 0.52871 0.32543 0.0
C734 C 0.59891 0.50455 0.26727 0.0
C735 C 0.59085 0.53843 0.35735 0.0
C736 C 0.59058 0.46215 0.13797 0.0
C737 C 0.59361 0.47191 0.16953 0.0
C738 C 0.57703 0.49611 0.22833 0.0
C739 C 0.58764 0.51771 0.33028 0.0
C740 C 0.58802 0.50861 0.28867 0.0
C741 C 0.5873 0.48284 0.16541 0.0
C742 C 0.58785 0.49194 0.20695 0.0
H743 H 0.56957 0.52467 0.43115 0.0
H744 H 0.57483 0.50774 0.37634 0.0
H745 H 0.56857 0.50742 0.2836 0.0
H746 H 0.56866 0.47564 0.06675 0.0
H747 H 0.57408 0.49265 0.1209 0.0
C748 C 0.78643 0.34166 0.38535 0.0
C749 C 0.78518 0.33275 0.34739 0.0
C750 C 0.77682 0.34428 0.41838 0.0
C751 C 0.7528 0.34897 0.47821 0.0
H752 H 0.74151 0.31821 0.52964 0.0
C753 C 0.71104 0.34002 0.61082 0.0
C754 C 0.71242 0.33067 0.64672 0.0
C755 C 0.72055 0.34307 0.57794 0.0
C756 C 0.74462 0.32689 0.51602 0.0
H757 H 0.77254 0.32073 0.31016 0.0
H758 H 0.75582 0.32542 0.36707 0.0
H759 H 0.75581 0.31872 0.45947 0.0
H760 H 0.72519 0.31823 0.6805 0.0
H761 H 0.74173 0.32365 0.62379 0.0
H762 H 0.74139 0.35706 0.53537 0.0
C763 C 0.76426 0.33017 0.37218 0.0
C764 C 0.75269 0.32718 0.47529 0.0
C765 C 0.77382 0.32752 0.33946 0.0
C766 C 0.72381 0.32536 0.65279 0.0
C767 C 0.73327 0.32843 0.6202 0.0
C768 C 0.74451 0.34867 0.51886 0.0
C769 C 0.76585 0.33806 0.41369 0.0
C770 C 0.75688 0.3382 0.45581 0.0
C771 C 0.73154 0.33684 0.58068 0.0
C772 C 0.74044 0.33759 0.5384 0.0
H773 H 0.79508 0.34582 0.39242 0.0
H774 H 0.77829 0.35041 0.45003 0.0
H775 H 0.75593 0.35758 0.46399 0.0
H776 H 0.70236 0.34426 0.60522 0.0
H777 H 0.71899 0.3496 0.54784 0.0
C778 C 0.90711 0.46415 0.8663 0.0
C779 C 0.91634 0.46575 0.90254 0.0
C780 C 0.90394 0.47356 0.83315 0.0
C781 C 0.92032 0.49716 0.77071 0.0
H782 H 0.89001 0.50837 0.7144 0.0
C783 C 0.90752 0.53793 0.63251 0.0
C784 C 0.91631 0.53584 0.59476 0.0
C785 C 0.90434 0.52878 0.66695 0.0
C786 C 0.8985 0.50526 0.72984 0.0
H787 H 0.92835 0.47882 0.93708 0.0
H788 H 0.92274 0.4952 0.87986 0.0
H789 H 0.89003 0.49443 0.7881 0.0
H790 H 0.9275 0.52219 0.55929 0.0
H791 H 0.92189 0.50629 0.61888 0.0
H792 H 0.92886 0.50769 0.71286 0.0
C793 C 0.91813 0.48664 0.87625 0.0
C794 C 0.89852 0.49733 0.77182 0.0
C795 C 0.92131 0.47727 0.90909 0.0
C796 C 0.92082 0.52412 0.58838 0.0
C797 C 0.91763 0.51502 0.62257 0.0
C798 C 0.9203 0.50484 0.72865 0.0
C799 C 0.90995 0.48467 0.83607 0.0
C800 C 0.90947 0.49331 0.79283 0.0
C801 C 0.9099 0.51745 0.66386 0.0
C802 C 0.90943 0.50896 0.70762 0.0
H803 H 0.90312 0.45536 0.86034 0.0
H804 H 0.8976 0.47182 0.80252 0.0
H805 H 0.92889 0.49406 0.78549 0.0
H806 H 0.90389 0.54688 0.63836 0.0
H807 H 0.89835 0.53087 0.69846 0.0
C808 C 0.22724 0.32662 0.82188 0.0
C809 C 0.21572 0.33141 0.83057 0.0
C810 C 0.23683 0.32973 0.85369 0.0
C811 C 0.24781 0.34882 0.96002 0.0
H812 H 0.25963 0.31828 0.01172 0.0
C813 C 0.27553 0.32576 0.13879 0.0
C814 C 0.28707 0.33079 0.13397 0.0
C815 C 0.26642 0.32885 0.10453 0.0
C816 C 0.25639 0.32689 0.99787 0.0
H817 H 0.20551 0.34423 0.87565 0.0
H818 H 0.22234 0.34959 0.9318 0.0
H819 H 0.24564 0.31852 0.94041 0.0
H820 H 0.29777 0.34395 0.09287 0.0
H821 H 0.28173 0.34936 0.03251 0.0
H822 H 0.25876 0.3571 0.01836 0.0
C823 C 0.22393 0.34347 0.90022 0.0
C824 C 0.2485 0.32704 0.95654 0.0
C825 C 0.2143 0.3404 0.86802 0.0
C826 C 0.28896 0.33992 0.09751 0.0
C827 C 0.27979 0.34302 0.06296 0.0
C828 C 0.25594 0.34867 0.00128 0.0
C829 C 0.23509 0.33762 0.89509 0.0
C830 C 0.24408 0.33797 0.93714 0.0
C831 C 0.26865 0.33703 0.06463 0.0
C832 C 0.26016 0.33766 0.02093 0.0
H833 H 0.22864 0.31977 0.79293 0.0
H834 H 0.24541 0.32527 0.84824 0.0
H835 H 0.24448 0.35736 0.94588 0.0
H836 H 0.27375 0.3188 0.16688 0.0
H837 H 0.25784 0.32425 0.10713 0.0
C838 C 0.40918 0.46167 0.63792 0.0
C839 C 0.41925 0.46394 0.60677 0.0
C840 C 0.40437 0.47082 0.66871 0.0
C841 C 0.40596 0.50377 0.69669 0.0
H842 H 0.40572 0.49349 0.83863 0.0
C843 C 0.4091 0.53857 0.85826 0.0
C844 C 0.41894 0.53615 0.8905 0.0
C845 C 0.40434 0.52948 0.82697 0.0
C846 C 0.4056 0.49651 0.79917 0.0
H847 H 0.43143 0.47778 0.57963 0.0
H848 H 0.42305 0.49367 0.63261 0.0
H849 H 0.406 0.47847 0.7706 0.0
H850 H 0.43074 0.52213 0.91898 0.0
H851 H 0.42244 0.50636 0.86513 0.0
H852 H 0.40646 0.5218 0.7253 0.0
C853 C 0.41883 0.48489 0.63367 0.0
C854 C 0.40564 0.48789 0.7601 0.0
C855 C 0.4237 0.47574 0.6034 0.0
C856 C 0.42318 0.52428 0.89438 0.0
C857 C 0.41836 0.5152 0.8636 0.0
C858 C 0.4059 0.51239 0.73576 0.0
C859 C 0.40946 0.48242 0.66834 0.0
C860 C 0.40637 0.49143 0.70844 0.0
C861 C 0.40925 0.51781 0.82791 0.0
C862 C 0.40626 0.50884 0.78748 0.0
H863 H 0.40557 0.45265 0.64139 0.0
H864 H 0.39707 0.46867 0.69461 0.0
H865 H 0.40637 0.50679 0.65726 0.0
H866 H 0.40565 0.54764 0.85437 0.0
H867 H 0.39722 0.53173 0.80028 0.0
C868 C 0.27588 0.6755 0.35791 0.0
C869 C 0.28743 0.6705 0.36261 0.0
C870 C 0.2668 0.67238 0.39225 0.0
C871 C 0.2563 0.65252 0.49514 0.0
H872 H 0.24593 0.68264 0.55605 0.0
C873 C 0.22691 0.67462 0.67256 0.0
C874 C 0.21547 0.66972 0.66315 0.0
C875 C 0.23667 0.6715 0.64169 0.0
C876 C 0.24882 0.67413 0.53997 0.0
H877 H 0.2982 0.65738 0.40364 0.0
H878 H 0.2822 0.65193 0.46418 0.0
H879 H 0.26007 0.68291 0.48533 0.0
H880 H 0.20555 0.65673 0.61783 0.0
H881 H 0.22265 0.65138 0.56318 0.0
H882 H 0.24471 0.64381 0.54993 0.0
C883 C 0.28023 0.65826 0.43375 0.0
C884 C 0.2568 0.6743 0.49896 0.0
C885 C 0.28937 0.66138 0.39909 0.0
C886 C 0.21428 0.66063 0.62599 0.0
C887 C 0.22407 0.65757 0.59466 0.0
C888 C 0.24809 0.65235 0.53611 0.0
C889 C 0.26907 0.66421 0.43213 0.0
C890 C 0.26057 0.66354 0.47581 0.0
C891 C 0.23516 0.66352 0.60042 0.0
C892 C 0.24431 0.66319 0.55899 0.0
H893 H 0.27407 0.68245 0.3298 0.0
H894 H 0.2582 0.67695 0.38971 0.0
H895 H 0.25913 0.64411 0.47798 0.0
H896 H 0.22812 0.68155 0.70132 0.0
H897 H 0.24519 0.67604 0.64767 0.0
C898 C 0.08145 0.47685 0.39753 0.0
C899 C 0.0832 0.46445 0.39018 0.0
C900 C 0.08648 0.48517 0.36351 0.0
C901 C 0.08956 0.48737 0.23093 0.0
H902 H 0.10658 0.51736 0.25282 0.0
C903 C 0.08544 0.52408 0.07985 0.0
C904 C 0.08425 0.53586 0.09838 0.0
C905 C 0.09015 0.51502 0.11119 0.0
C906 C 0.10169 0.5091 0.24594 0.0
H907 H 0.09228 0.45105 0.3438 0.0
H908 H 0.10069 0.46561 0.28315 0.0
H909 H 0.10603 0.50225 0.32078 0.0
H910 H 0.08756 0.54762 0.16286 0.0
H911 H 0.0949 0.53184 0.21878 0.0
H912 H 0.08403 0.49437 0.15908 0.0
C913 C 0.09564 0.46887 0.31584 0.0
C914 C 0.10154 0.50039 0.28479 0.0
C915 C 0.09086 0.46056 0.35064 0.0
C916 C 0.08853 0.5386 0.14751 0.0
C917 C 0.09279 0.52947 0.17962 0.0
C918 C 0.08939 0.49616 0.19281 0.0
C919 C 0.09312 0.48119 0.32099 0.0
C920 C 0.09528 0.48955 0.27785 0.0
C921 C 0.0932 0.51741 0.1627 0.0
C922 C 0.09519 0.50733 0.20004 0.0
H923 H 0.07556 0.48008 0.42764 0.0
H924 H 0.08432 0.49462 0.36797 0.0
H925 H 0.0845 0.47914 0.22501 0.0
H926 H 0.08226 0.52178 0.04186 0.0
H927 H 0.0908 0.50603 0.09557 0.0
C928 C 0.09238 0.11005 0.98402 0.0
C929 C 0.09381 0.09753 0.97954 0.0
C930 C 0.10102 0.11701 0.00907 0.0
C931 C 0.12462 0.11403 0.10789 0.0
H932 H 0.12928 0.14785 0.077 0.0
C933 C 0.15469 0.14795 0.22448 0.0
C934 C 0.14853 0.15853 0.23826 0.0
C935 C 0.14935 0.13957 0.19129 0.0
C936 C 0.12808 0.1384 0.08595 0.0
H937 H 0.10589 0.08262 0.99475 0.0
H938 H 0.12118 0.09484 0.03735 0.0
H939 H 0.11847 0.13511 0.01648 0.0
H940 H 0.13176 0.16837 0.22945 0.0
H941 H 0.12263 0.15391 0.1713 0.0
H942 H 0.13434 0.11747 0.17755 0.0
C943 C 0.1132 0.09923 0.02263 0.0
C944 C 0.12185 0.1311 0.05144 0.0
C945 C 0.10449 0.09224 0.99772 0.0
C946 C 0.13679 0.16034 0.21968 0.0
C947 C 0.13157 0.15211 0.18605 0.0
C948 C 0.13103 0.12132 0.14212 0.0
C949 C 0.1114 0.11166 0.02998 0.0
C950 C 0.11969 0.11891 0.06266 0.0
C951 C 0.13788 0.14178 0.17074 0.0
C952 C 0.13249 0.13364 0.1321 0.0
H953 H 0.08426 0.11443 0.97056 0.0
H954 H 0.0992 0.1265 0.0144 0.0
H955 H 0.12305 0.10472 0.11818 0.0
H956 H 0.16375 0.14631 0.23811 0.0
H957 H 0.15437 0.13163 0.18011 0.0
C958 C 0.15506 0.85275 0.26956 0.0
C959 C 0.14903 0.84214 0.25505 0.0
C960 C 0.1495 0.86107 0.30233 0.0
C961 C 0.12792 0.86187 0.40611 0.0
H962 H 0.12205 0.89543 0.3741 0.0
C963 C 0.09122 0.88893 0.50719 0.0
C964 C 0.09242 0.90142 0.51357 0.0
C965 C 0.10002 0.88234 0.48139 0.0
C966 C 0.12385 0.88615 0.38428 0.0
H967 H 0.13227 0.8322 0.262 0.0
H968 H 0.12275 0.84657 0.31945 0.0
H969 H 0.13384 0.88302 0.31501 0.0
H970 H 0.10414 0.91672 0.50019 0.0
H971 H 0.1197 0.90512 0.45592 0.0
H972 H 0.11803 0.86483 0.47512 0.0
C973 C 0.13175 0.84843 0.30557 0.0
C974 C 0.13055 0.87906 0.35025 0.0
C975 C 0.1372 0.84026 0.27237 0.0
C976 C 0.10294 0.90709 0.49584 0.0
C977 C 0.11181 0.90047 0.47005 0.0
C978 C 0.1214 0.86896 0.44038 0.0
C979 C 0.13792 0.85878 0.32167 0.0
C980 C 0.1323 0.86677 0.36021 0.0
C981 C 0.11032 0.88804 0.46151 0.0
C982 C 0.11892 0.8811 0.42915 0.0
H983 H 0.16419 0.85445 0.25687 0.0
H984 H 0.1544 0.86902 0.31417 0.0
H985 H 0.12934 0.85245 0.41498 0.0
H986 H 0.08322 0.88427 0.52025 0.0
H987 H 0.09842 0.87285 0.475 0.0
C988 C 0.39889 0.90891 0.52524 0.0
C989 C 0.40501 0.90133 0.49085 0.0
C990 C 0.39001 0.90426 0.55772 0.0
C991 C 0.3808 0.88851 0.64673 0.0
H992 H 0.35621 0.86596 0.60304 0.0
C993 C 0.36164 0.84999 0.77059 0.0
C994 C 0.34935 0.84718 0.76612 0.0
C995 C 0.3667 0.85922 0.7412 0.0
C996 C 0.3629 0.87238 0.61585 0.0
H997 H 0.40609 0.88314 0.46111 0.0
H998 H 0.39036 0.87511 0.51676 0.0
H999 H 0.36779 0.87707 0.53891 0.0
H1000 H 0.33257 0.85238 0.72981 0.0
H1001 H 0.34147 0.86839 0.67797 0.0
H1002 H 0.37633 0.88335 0.72364 0.0
C1003 C 0.39251 0.88461 0.51898 0.0
C1004 C 0.36957 0.87867 0.57915 0.0
C1005 C 0.40153 0.8892 0.48722 0.0
C1006 C 0.34207 0.85433 0.73421 0.0
C1007 C 0.34716 0.86344 0.70425 0.0
C1008 C 0.37426 0.88208 0.68345 0.0
C1009 C 0.38692 0.89201 0.5556 0.0
C1010 C 0.37873 0.88662 0.59421 0.0
C1011 C 0.35959 0.86572 0.70629 0.0
C1012 C 0.36539 0.87379 0.66832 0.0
H1013 H 0.40143 0.91828 0.52911 0.0
H1014 H 0.38579 0.91016 0.58547 0.0
H1015 H 0.38789 0.89452 0.65938 0.0
H1016 H 0.36749 0.84466 0.79486 0.0
H1017 H 0.37632 0.86074 0.74339 0.0
C1018 C 0.34483 0.14805 0.75848 0.0
C1019 C 0.35111 0.15535 0.72351 0.0
C1020 C 0.351 0.1396 0.78839 0.0
C1021 C 0.38151 0.13564 0.84031 0.0
H1022 H 0.36881 0.10585 0.89573 0.0
C1023 C 0.40005 0.09413 0.97142 0.0
C1024 C 0.40693 0.10095 0.00612 0.0
C1025 C 0.39193 0.09981 0.93822 0.0
C1026 C 0.3725 0.11412 0.88039 0.0
H1027 H 0.36848 0.15866 0.68852 0.0
H1028 H 0.37915 0.14364 0.73907 0.0
H1029 H 0.35767 0.11651 0.82867 0.0
H1030 H 0.40988 0.11886 0.03656 0.0
H1031 H 0.39548 0.12867 0.98013 0.0
H1032 H 0.3964 0.13324 0.8908 0.0
C1033 C 0.36956 0.14473 0.74497 0.0
C1034 C 0.36609 0.12026 0.8422 0.0
C1035 C 0.36343 0.15327 0.71562 0.0
C1036 C 0.40483 0.11338 0.0098 0.0
C1037 C 0.39664 0.11902 0.9771 0.0
C1038 C 0.38789 0.12952 0.87817 0.0
C1039 C 0.36354 0.13822 0.78349 0.0
C1040 C 0.37052 0.13112 0.82178 0.0
C1041 C 0.39048 0.11239 0.93943 0.0
C1042 C 0.38344 0.11875 0.89912 0.0
H1043 H 0.33533 0.14947 0.76553 0.0
H1044 H 0.34607 0.13476 0.81766 0.0
H1045 H 0.38512 0.14408 0.82636 0.0
H1046 H 0.40151 0.08454 0.9676 0.0
H1047 H 0.38734 0.09443 0.90968 0.0
C1048 C 0.89831 0.90655 0.97865 0.0
C1049 C 0.90577 0.9003 0.01305 0.0
C1050 C 0.8901 0.9003 0.94784 0.0
C1051 C 0.87103 0.88504 0.89339 0.0
H1052 H 0.88428 0.85505 0.84261 0.0
C1053 C 0.84449 0.85075 0.76801 0.0
C1054 C 0.85111 0.8437 0.73327 0.0
C1055 C 0.85035 0.85906 0.79976 0.0
C1056 C 0.88048 0.86348 0.85574 0.0
H1057 H 0.90967 0.88281 0.0458 0.0
H1058 H 0.89505 0.87199 0.99375 0.0
H1059 H 0.89527 0.86644 0.90621 0.0
H1060 H 0.86882 0.84062 0.70101 0.0
H1061 H 0.87894 0.8554 0.75469 0.0
H1062 H 0.85637 0.88215 0.84125 0.0
C1063 C 0.89584 0.88164 0.98896 0.0
C1064 C 0.88669 0.86992 0.89317 0.0
C1065 C 0.90414 0.88785 0.01919 0.0
C1066 C 0.8635 0.84582 0.72786 0.0
C1067 C 0.86931 0.85422 0.75902 0.0
C1068 C 0.8648 0.87859 0.85557 0.0
C1069 C 0.88911 0.8877 0.95125 0.0
C1070 C 0.88206 0.88076 0.91269 0.0
C1071 C 0.86291 0.86055 0.79696 0.0
C1072 C 0.86949 0.86774 0.83613 0.0
H1073 H 0.89939 0.91615 0.97294 0.0
H1074 H 0.88509 0.90527 0.91921 0.0
H1075 H 0.86717 0.89334 0.90767 0.0
H1076 H 0.83493 0.84927 0.77318 0.0
H1077 H 0.84512 0.86375 0.82853 0.0
C1078 C 0.84708 0.14955 0.74529 0.0
C1079 C 0.85329 0.15939 0.76655 0.0
C1080 C 0.85331 0.14065 0.71798 0.0
C1081 C 0.8843 0.12929 0.69055 0.0
H1082 H 0.87071 0.11976 0.55975 0.0
C1083 C 0.91379 0.11307 0.52617 0.0
C1084 C 0.91116 0.10162 0.50616 0.0
C1085 C 0.90559 0.11896 0.55784 0.0
C1086 C 0.87453 0.12225 0.59643 0.0
H1087 H 0.87095 0.16728 0.77796 0.0
H1088 H 0.88171 0.152 0.73026 0.0
H1089 H 0.85858 0.13159 0.61982 0.0
H1090 H 0.89747 0.08774 0.50101 0.0
H1091 H 0.88291 0.0983 0.55573 0.0
H1092 H 0.90044 0.12048 0.66598 0.0
C1093 C 0.87208 0.15098 0.73493 0.0
C1094 C 0.86759 0.12896 0.63101 0.0
C1095 C 0.86588 0.15982 0.76215 0.0
C1096 C 0.89977 0.09655 0.51585 0.0
C1097 C 0.89145 0.10256 0.54718 0.0
C1098 C 0.89126 0.12276 0.65582 0.0
C1099 C 0.86587 0.14141 0.71154 0.0
C1100 C 0.87251 0.13283 0.67798 0.0
C1101 C 0.89449 0.11363 0.56975 0.0
C1102 C 0.88654 0.11942 0.608 0.0
H1103 H 0.83737 0.14897 0.74799 0.0
H1104 H 0.84827 0.13332 0.70108 0.0
H1105 H 0.88829 0.13183 0.72682 0.0
H1106 H 0.92244 0.11728 0.51939 0.0
H1107 H 0.90805 0.12758 0.57418 0.0
C1108 C 0.60256 0.09206 0.47333 0.0
C1109 C 0.59621 0.09964 0.50698 0.0
C1110 C 0.61157 0.09675 0.44155 0.0
C1111 C 0.63164 0.12273 0.42031 0.0
H1112 H 0.62535 0.11751 0.2758 0.0
C1113 C 0.63861 0.15125 0.22789 0.0
C1114 C 0.6508 0.15449 0.23177 0.0
C1115 C 0.63393 0.14195 0.25794 0.0
C1116 C 0.6273 0.11893 0.316 0.0
H1117 H 0.59486 0.11784 0.53631 0.0
H1118 H 0.61077 0.12594 0.48181 0.0
H1119 H 0.61401 0.10615 0.34 0.0
H1120 H 0.6678 0.15011 0.26812 0.0
H1121 H 0.65954 0.13397 0.32137 0.0
H1122 H 0.64463 0.13582 0.39639 0.0
C1123 C 0.60873 0.11642 0.47965 0.0
C1124 C 0.62088 0.11238 0.35271 0.0
C1125 C 0.59959 0.11179 0.51072 0.0
C1126 C 0.65837 0.14779 0.26415 0.0
C1127 C 0.65364 0.13861 0.29487 0.0
C1128 C 0.63819 0.12915 0.38361 0.0
C1129 C 0.61454 0.10904 0.44362 0.0
C1130 C 0.62275 0.11447 0.40523 0.0
C1131 C 0.64131 0.13582 0.29303 0.0
C1132 C 0.63584 0.12756 0.33112 0.0
H1133 H 0.60011 0.08267 0.46942 0.0
H1134 H 0.61596 0.09086 0.41428 0.0
H1135 H 0.63327 0.12449 0.46054 0.0
H1136 H 0.63255 0.15624 0.20325 0.0
H1137 H 0.62438 0.14005 0.25595 0.0
C1138 C 0.6013 0.90649 0.02136 0.0
C1139 C 0.59431 0.89997 0.98605 0.0
C1140 C 0.60955 0.90054 0.05311 0.0
C1141 C 0.62899 0.88575 0.10848 0.0
H1142 H 0.61624 0.85548 0.15864 0.0
C1143 C 0.65606 0.85138 0.2315 0.0
C1144 C 0.64955 0.84421 0.26617 0.0
C1145 C 0.6501 0.85978 0.20054 0.0
C1146 C 0.61989 0.86399 0.14569 0.0
H1147 H 0.59128 0.88236 0.95281 0.0
H1148 H 0.60591 0.87207 0.00664 0.0
H1149 H 0.60511 0.86671 0.09498 0.0
H1150 H 0.63194 0.84102 0.29926 0.0
H1151 H 0.62164 0.85592 0.24685 0.0
H1152 H 0.64369 0.88304 0.16062 0.0
C1153 C 0.60474 0.88169 0.01132 0.0
C1154 C 0.6136 0.87034 0.10828 0.0
C1155 C 0.59643 0.8876 0.98013 0.0
C1156 C 0.63717 0.84631 0.27241 0.0
C1157 C 0.63126 0.85478 0.24202 0.0
C1158 C 0.63532 0.87936 0.14622 0.0
C1159 C 0.61101 0.88798 0.04975 0.0
C1160 C 0.61807 0.88126 0.08891 0.0
C1161 C 0.63754 0.86122 0.20407 0.0
C1162 C 0.63081 0.86841 0.16535 0.0
H1163 H 0.59984 0.91604 0.02687 0.0
H1164 H 0.61421 0.90566 0.08229 0.0
H1165 H 0.6327 0.89413 0.09432 0.0
H1166 H 0.66561 0.84994 0.22576 0.0
H1167 H 0.65522 0.86457 0.17172 0.0
C1168 C 0.59976 0.61207 0.47848 0.0
C1169 C 0.59649 0.59987 0.4817 0.0
C1170 C 0.6088 0.61673 0.50997 0.0
C1171 C 0.63156 0.62313 0.57037 0.0
H1172 H 0.62515 0.61738 0.71444 0.0
C1173 C 0.65816 0.64749 0.7293 0.0
C1174 C 0.65057 0.65404 0.76218 0.0
C1175 C 0.65343 0.63852 0.69748 0.0
C1176 C 0.62714 0.61895 0.67437 0.0
H1177 H 0.60052 0.58287 0.51874 0.0
H1178 H 0.6162 0.5911 0.57455 0.0
H1179 H 0.61395 0.60616 0.64934 0.0
H1180 H 0.63229 0.65576 0.79024 0.0
H1181 H 0.62411 0.63992 0.73566 0.0
H1182 H 0.64446 0.63622 0.59538 0.0
C1183 C 0.61179 0.59701 0.5474 0.0
C1184 C 0.6208 0.61249 0.63714 0.0
C1185 C 0.60287 0.5923 0.51522 0.0
C1186 C 0.63835 0.65087 0.76526 0.0
C1187 C 0.63367 0.64177 0.73413 0.0
C1188 C 0.63803 0.62947 0.6076 0.0
C1189 C 0.61463 0.60933 0.5459 0.0
C1190 C 0.62271 0.61476 0.58478 0.0
C1191 C 0.64108 0.63578 0.69872 0.0
C1192 C 0.63564 0.62768 0.65995 0.0
H1193 H 0.59501 0.61812 0.45301 0.0
H1194 H 0.61075 0.62627 0.50823 0.0
H1195 H 0.63323 0.62503 0.53029 0.0
H1196 H 0.66761 0.64976 0.72591 0.0
H1197 H 0.65935 0.63398 0.67073 0.0
C1198 C 0.6024 0.40831 0.97996 0.0
C1199 C 0.59624 0.4007 0.01412 0.0
C1200 C 0.61127 0.40367 0.94738 0.0
C1201 C 0.62027 0.38813 0.85769 0.0
H1202 H 0.64436 0.36483 0.8992 0.0
C1203 C 0.63788 0.3496 0.73063 0.0
C1204 C 0.65012 0.34649 0.73355 0.0
C1205 C 0.63322 0.35879 0.7613 0.0
C1206 C 0.63781 0.37147 0.88702 0.0
H1207 H 0.59511 0.38248 0.04347 0.0
H1208 H 0.61078 0.37446 0.98756 0.0
H1209 H 0.63318 0.37602 0.96439 0.0
H1210 H 0.66721 0.351 0.76888 0.0
H1211 H 0.65898 0.36696 0.82321 0.0
H1212 H 0.62446 0.38312 0.78037 0.0
C1213 C 0.60869 0.38398 0.98562 0.0
C1214 C 0.63137 0.3778 0.92432 0.0
C1215 C 0.59969 0.38856 0.01751 0.0
C1216 C 0.65774 0.35322 0.76563 0.0
C1217 C 0.65303 0.36229 0.79698 0.0
C1218 C 0.62659 0.38167 0.8204 0.0
C1219 C 0.6143 0.39139 0.94913 0.0
C1220 C 0.62236 0.38601 0.91003 0.0
C1221 C 0.64067 0.36494 0.79607 0.0
C1222 C 0.63525 0.3731 0.83473 0.0
H1223 H 0.5999 0.41769 0.9763 0.0
H1224 H 0.61551 0.40959 0.91978 0.0
H1225 H 0.6133 0.39434 0.84559 0.0
H1226 H 0.63179 0.34458 0.70625 0.0
H1227 H 0.62364 0.36058 0.76002 0.0
C1228 C 0.84042 0.35551 0.23049 0.0
C1229 C 0.84789 0.34884 0.26342 0.0
C1230 C 0.84527 0.36454 0.19931 0.0
C1231 C 0.87168 0.38403 0.17794 0.0
H1232 H 0.86597 0.37813 0.03344 0.0
C1233 C 0.89618 0.41101 0.02042 0.0
C1234 C 0.90271 0.40351 0.98706 0.0
C1235 C 0.88723 0.40619 0.05211 0.0
C1236 C 0.86753 0.37997 0.07365 0.0
H1237 H 0.86609 0.34699 0.29235 0.0
H1238 H 0.87448 0.36295 0.2389 0.0
H1239 H 0.85457 0.36687 0.09776 0.0
H1240 H 0.90441 0.3853 0.95813 0.0
H1241 H 0.88859 0.37698 0.01249 0.0
H1242 H 0.88492 0.39686 0.15382 0.0
C1243 C 0.86491 0.36113 0.23682 0.0
C1244 C 0.86096 0.3736 0.11043 0.0
C1245 C 0.86011 0.35197 0.26732 0.0
C1246 C 0.89954 0.3913 0.98347 0.0
C1247 C 0.89046 0.38654 0.01448 0.0
C1248 C 0.87811 0.39054 0.14116 0.0
C1249 C 0.85762 0.36721 0.20125 0.0
C1250 C 0.8632 0.37534 0.16292 0.0
C1251 C 0.88448 0.39386 0.05027 0.0
C1252 C 0.87633 0.38834 0.08866 0.0
H1253 H 0.83098 0.35327 0.22646 0.0
H1254 H 0.83945 0.36915 0.17243 0.0
H1255 H 0.87355 0.38556 0.21815 0.0
H1256 H 0.89844 0.42045 0.02422 0.0
H1257 H 0.8827 0.41204 0.07917 0.0
C1258 C 0.84144 0.64701 0.26867 0.0
C1259 C 0.84896 0.65342 0.23499 0.0
C1260 C 0.8462 0.63801 0.30027 0.0
C1261 C 0.8721 0.61792 0.32112 0.0
H1262 H 0.86728 0.62448 0.46571 0.0
C1263 C 0.90079 0.61029 0.51273 0.0
C1264 C 0.90349 0.59796 0.50946 0.0
C1265 C 0.89164 0.61527 0.48271 0.0
C1266 C 0.86858 0.62245 0.4255 0.0
H1267 H 0.86713 0.65485 0.2053 0.0
H1268 H 0.87534 0.63892 0.25941 0.0
H1269 H 0.85594 0.6359 0.40164 0.0
H1270 H 0.8983 0.58106 0.47414 0.0
H1271 H 0.88245 0.58985 0.4209 0.0
H1272 H 0.885 0.60472 0.34491 0.0
C1273 C 0.86581 0.64093 0.26177 0.0
C1274 C 0.86205 0.62892 0.38888 0.0
C1275 C 0.86112 0.65007 0.23089 0.0
C1276 C 0.8964 0.59059 0.47768 0.0
C1277 C 0.88739 0.59561 0.44694 0.0
C1278 C 0.87847 0.61131 0.35775 0.0
C1279 C 0.85849 0.6351 0.29795 0.0
C1280 C 0.86399 0.62694 0.33633 0.0
C1281 C 0.88514 0.60805 0.44823 0.0
C1282 C 0.87701 0.61374 0.41025 0.0
H1283 H 0.83205 0.64943 0.27288 0.0
H1284 H 0.84035 0.63359 0.32767 0.0
H1285 H 0.87374 0.61621 0.28086 0.0
H1286 H 0.90609 0.61619 0.53687 0.0
H1287 H 0.89015 0.6249 0.48424 0.0
C1288 C 0.40561 0.38768 0.51994 0.0
C1289 C 0.40774 0.40007 0.51446 0.0
C1290 C 0.39749 0.38178 0.4878 0.0
C1291 C 0.38879 0.3703 0.39088 0.0
H1292 H 0.35935 0.38354 0.33451 0.0
C1293 C 0.36533 0.3459 0.22721 0.0
C1294 C 0.35283 0.34443 0.23173 0.0
C1295 C 0.37138 0.35434 0.25731 0.0
C1296 C 0.36753 0.3797 0.35005 0.0
H1297 H 0.40248 0.41615 0.47311 0.0
H1298 H 0.38849 0.40579 0.41594 0.0
H1299 H 0.37018 0.39457 0.40127 0.0
H1300 H 0.33673 0.35119 0.26878 0.0
H1301 H 0.34734 0.36572 0.32253 0.0
H1302 H 0.38605 0.35528 0.34148 0.0
C1303 C 0.39296 0.40065 0.44557 0.0
C1304 C 0.37379 0.38606 0.38805 0.0
C1305 C 0.40099 0.40659 0.47834 0.0
C1306 C 0.34638 0.35216 0.26434 0.0
C1307 C 0.35247 0.3605 0.29515 0.0
C1308 C 0.38254 0.36394 0.35332 0.0
C1309 C 0.39144 0.38809 0.44873 0.0
C1310 C 0.38448 0.3814 0.4091 0.0
C1311 C 0.36511 0.36135 0.29343 0.0
C1312 C 0.37185 0.36854 0.3322 0.0
H1313 H 0.41058 0.38244 0.54784 0.0
H1314 H 0.39627 0.37217 0.49244 0.0
H1315 H 0.39711 0.36651 0.40525 0.0
H1316 H 0.37052 0.34015 0.20195 0.0
H1317 H 0.38107 0.35501 0.25371 0.0
C1318 C 0.40086 0.59385 0.01724 0.0
C1319 C 0.40767 0.60014 0.9806 0.0
C1320 C 0.39281 0.60001 0.0492 0.0
C1321 C 0.38872 0.63071 0.10048 0.0
H1322 H 0.35941 0.61776 0.15927 0.0
C1323 C 0.34661 0.64935 0.22791 0.0
C1324 C 0.35315 0.65723 0.25956 0.0
C1325 C 0.35263 0.64093 0.19722 0.0
C1326 C 0.36755 0.62153 0.14302 0.0
H1327 H 0.41061 0.61755 0.94537 0.0
H1328 H 0.39625 0.62818 -0.00072 0.0
H1329 H 0.37012 0.60637 0.09324 0.0
H1330 H 0.37093 0.66171 0.28775 0.0
H1331 H 0.38136 0.64671 0.23629 0.0
H1332 H 0.38606 0.646 0.14842 0.0
C1333 C 0.39744 0.6186 0.00501 0.0
C1334 C 0.37374 0.61496 0.10544 0.0
C1335 C 0.40559 0.61249 0.97371 0.0
C1336 C 0.36567 0.65585 0.26323 0.0
C1337 C 0.37165 0.64733 0.2333 0.0
C1338 C 0.38254 0.63727 0.13757 0.0
C1339 C 0.39134 0.61255 0.04467 0.0
C1340 C 0.3844 0.6195 0.08359 0.0
C1341 C 0.36528 0.64014 0.19814 0.0
C1342 C 0.3719 0.63277 0.15961 0.0
H1343 H 0.40232 0.58433 0.02355 0.0
H1344 H 0.38831 0.59506 0.07933 0.0
H1345 H 0.39702 0.63442 0.08548 0.0
H1346 H 0.33695 0.65025 0.22413 0.0
H1347 H 0.34741 0.63558 0.1706 0.0
C1348 C 0.15428 0.64779 0.76817 0.0
C1349 C 0.14797 0.65808 0.75173 0.0
C1350 C 0.1488 0.63949 0.80131 0.0
C1351 C 0.12728 0.63877 0.90415 0.0
H1352 H 0.12131 0.60509 0.8749 0.0
C1353 C 0.09081 0.61216 0.00887 0.0
C1354 C 0.09189 0.59966 0.01533 0.0
C1355 C 0.0996 0.61865 0.98257 0.0
C1356 C 0.12315 0.6144 0.88435 0.0
H1357 H 0.13082 0.66743 0.75549 0.0
H1358 H 0.12146 0.65312 0.81376 0.0
H1359 H 0.13297 0.61725 0.8144 0.0
H1360 H 0.10345 0.58426 0.00182 0.0
H1361 H 0.11904 0.59567 0.95685 0.0
H1362 H 0.1176 0.63609 0.97388 0.0
C1363 C 0.1306 0.65148 0.80097 0.0
C1364 C 0.12977 0.62135 0.84949 0.0
C1365 C 0.13596 0.65962 0.76735 0.0
C1366 C 0.10234 0.59389 0.99739 0.0
C1367 C 0.11121 0.60041 0.97117 0.0
C1368 C 0.12086 0.63182 0.9393 0.0
C1369 C 0.13704 0.6415 0.8191 0.0
C1370 C 0.13154 0.63367 0.85846 0.0
C1371 C 0.1098 0.61283 0.96232 0.0
C1372 C 0.11834 0.61964 0.92909 0.0
H1373 H 0.16355 0.64636 0.75683 0.0
H1374 H 0.15391 0.63182 0.81478 0.0
H1375 H 0.12872 0.64823 0.91217 0.0
H1376 H 0.08287 0.61691 0.02208 0.0
H1377 H 0.09806 0.62814 0.976 0.0
C1378 C 0.13532 0.34337 0.74822 0.0
C1379 C 0.1479 0.34385 0.7531 0.0
C1380 C 0.12914 0.35219 0.72083 0.0
C1381 C 0.13375 0.37452 0.61795 0.0
H1382 H 0.10066 0.38243 0.65123 0.0
C1383 C 0.10083 0.40686 0.50485 0.0
C1384 C 0.09005 0.40102 0.49117 0.0
C1385 C 0.10923 0.40111 0.53666 0.0
C1386 C 0.10992 0.38034 0.64167 0.0
H1387 H 0.16382 0.35434 0.7351 0.0
H1388 H 0.15294 0.36998 0.68805 0.0
H1389 H 0.11276 0.37111 0.71236 0.0
H1390 H 0.07993 0.38438 0.4982 0.0
H1391 H 0.09443 0.37455 0.55418 0.0
H1392 H 0.13073 0.38391 0.54704 0.0
C1393 C 0.14789 0.3626 0.70462 0.0
C1394 C 0.11684 0.3738 0.67648 0.0
C1395 C 0.15411 0.3537 0.73198 0.0
C1396 C 0.08811 0.38916 0.50797 0.0
C1397 C 0.09637 0.38353 0.54026 0.0
C1398 C 0.12684 0.38126 0.58337 0.0
C1399 C 0.13534 0.36182 0.69784 0.0
C1400 C 0.12872 0.37044 0.6644 0.0
C1401 C 0.10685 0.38955 0.55581 0.0
C1402 C 0.11476 0.38388 0.5944 0.0
H1403 H 0.13024 0.3359 0.76384 0.0
H1404 H 0.11952 0.35112 0.71584 0.0
H1405 H 0.14282 0.37203 0.60711 0.0
H1406 H 0.10258 0.41601 0.49252 0.0
H1407 H 0.11729 0.40589 0.54817 0.0
C1408 C 0.18647 0.2163 0.16232 0.0
C1409 C 0.17582 0.2109 0.18003 0.0
C1410 C 0.18599 0.2266 0.13159 0.0
C1411 C 0.16581 0.24478 0.04953 0.0
H1412 H 0.18773 0.27069 0.08449 0.0
C1413 C 0.16301 0.29083 0.94918 0.0
C1414 C 0.17407 0.29501 0.93006 0.0
C1415 C 0.1627 0.28142 0.98479 0.0
C1416 C 0.18157 0.26352 0.07418 0.0
H1417 H 0.15629 0.21171 0.1771 0.0
H1418 H 0.15548 0.22962 0.12375 0.0
H1419 H 0.18854 0.25182 0.13209 0.0
H1420 H 0.19347 0.29324 0.93608 0.0
H1421 H 0.19293 0.27692 0.99788 0.0
H1422 H 0.15892 0.25644 0.99127 0.0
C1423 C 0.1642 0.22592 0.13348 0.0
C1424 C 0.18209 0.25269 0.10122 0.0
C1425 C 0.16468 0.21566 0.16423 0.0
C1426 C 0.1848 0.29018 0.94984 0.0
C1427 C 0.18449 0.28085 0.98552 0.0
C1428 C 0.16529 0.25562 0.02248 0.0
C1429 C 0.17484 0.23167 0.1178 0.0
C1430 C 0.17429 0.24316 0.08889 0.0
C1431 C 0.17345 0.27611 0.00219 0.0
C1432 C 0.17324 0.26507 0.0342 0.0
H1433 H 0.19519 0.21286 0.17373 0.0
H1434 H 0.19434 0.23071 0.11928 0.0
H1435 H 0.15974 0.23758 0.03884 0.0
H1436 H 0.15459 0.29438 0.93466 0.0
H1437 H 0.15405 0.27807 0.99759 0.0
C1438 C 0.96241 0.93816 0.19328 0.0
C1439 C 0.95716 0.92716 0.17871 0.0
C1440 C 0.97235 0.93839 0.22588 0.0
C1441 C 0.99797 0.91961 0.26317 0.0
H1442 H 0.00292 0.94421 0.3664 0.0
C1443 C 0.03792 0.91941 0.40479 0.0
C1444 C 0.04282 0.93052 0.42013 0.0
C1445 C 0.02791 0.91898 0.37256 0.0
C1446 C 0.00176 0.9374 0.33715 0.0
H1447 H 0.95782 0.90781 0.18926 0.0
H1448 H 0.9752 0.90822 0.24675 0.0
H1449 H 0.98376 0.94317 0.32114 0.0
H1450 H 0.04151 0.94987 0.41072 0.0
H1451 H 0.02413 0.9491 0.35359 0.0
H1452 H 0.01599 0.91388 0.27899 0.0
C1453 C 0.97168 0.91665 0.23225 0.0
C1454 C 0.99074 0.93676 0.31147 0.0
C1455 C 0.96166 0.91643 0.19977 0.0
C1456 C 0.03795 0.94117 0.39978 0.0
C1457 C 0.02791 0.94073 0.36751 0.0
C1458 C 0.009 0.92027 0.2888 0.0
C1459 C 0.97731 0.92762 0.24459 0.0
C1460 C 0.98873 0.92787 0.27411 0.0
C1461 C 0.02256 0.92965 0.35482 0.0
C1462 C 0.01103 0.92919 0.326 0.0
H1463 H 0.95913 0.9466 0.17789 0.0
H1464 H 0.9765 0.94698 0.2344 0.0
H1465 H 0.99679 0.91281 0.23389 0.0
H1466 H 0.04146 0.91102 0.41962 0.0
H1467 H 0.024 0.91029 0.36374 0.0
C1468 C 0.32125 0.71609 0.44702 0.0
C1469 C 0.33147 0.70999 0.42871 0.0
C1470 C 0.32244 0.72661 0.47555 0.0
C1471 C 0.34233 0.74486 0.55464 0.0
H1472 H 0.32287 0.77126 0.50342 0.0
C1473 C 0.34322 0.7912 0.65272 0.0
C1474 C 0.33185 0.79634 0.66197 0.0
C1475 C 0.34447 0.78159 0.61859 0.0
C1476 C 0.3283 0.76398 0.51845 0.0
H1477 H 0.351 0.7097 0.42942 0.0
H1478 H 0.35306 0.72811 0.48052 0.0
H1479 H 0.32247 0.7519 0.45968 0.0
H1480 H 0.31302 0.79592 0.6401 0.0
H1481 H 0.31514 0.7791 0.58135 0.0
H1482 H 0.34782 0.75677 0.6146 0.0
C1483 C 0.34414 0.72473 0.47198 0.0
C1484 C 0.32809 0.7529 0.49335 0.0
C1485 C 0.34295 0.71418 0.44293 0.0
C1486 C 0.32191 0.79219 0.63379 0.0
C1487 C 0.32314 0.78254 0.59993 0.0
C1488 C 0.34246 0.75593 0.58014 0.0
C1489 C 0.33387 0.73125 0.48687 0.0
C1490 C 0.33491 0.74317 0.51175 0.0
C1491 C 0.33437 0.77688 0.59313 0.0
C1492 C 0.33527 0.76557 0.56284 0.0
H1493 H 0.31226 0.71305 0.43735 0.0
H1494 H 0.31438 0.73132 0.48762 0.0
H1495 H 0.34765 0.73749 0.56959 0.0
H1496 H 0.35109 0.79426 0.6735 0.0
H1497 H 0.35329 0.77763 0.61335 0.0
C1498 C 0.54178 0.09192 0.71198 0.0
C1499 C 0.54588 0.08069 0.69435 0.0
C1500 C 0.53241 0.09255 0.74778 0.0
C1501 C 0.51441 0.07415 0.8392 0.0
H1502 H 0.48852 0.09592 0.80252 0.0
C1503 C 0.46676 0.06823 0.92012 0.0
C1504 C 0.46123 0.07862 0.93981 0.0
C1505 C 0.4772 0.06913 0.89053 0.0
C1506 C 0.49571 0.08988 0.81352 0.0
H1507 H 0.54403 0.06136 0.70318 0.0
H1508 H 0.52779 0.06245 0.76502 0.0
H1509 H 0.50753 0.09675 0.75573 0.0
H1510 H 0.46193 0.09815 0.94127 0.0
H1511 H 0.48009 0.09969 0.88931 0.0
H1512 H 0.5025 0.0671 0.89618 0.0
C1513 C 0.53174 0.07078 0.75154 0.0
C1514 C 0.50664 0.0904 0.78698 0.0
C1515 C 0.54103 0.07015 0.71578 0.0
C1516 C 0.46598 0.08996 0.92682 0.0
C1517 C 0.47638 0.09086 0.89698 0.0
C1518 C 0.50349 0.07359 0.86551 0.0
C1519 C 0.52706 0.08197 0.76682 0.0
C1520 C 0.51605 0.08241 0.79902 0.0
C1521 C 0.48228 0.08044 0.87973 0.0
C1522 C 0.49396 0.08132 0.85245 0.0
H1523 H 0.54535 0.10019 0.69612 0.0
H1524 H 0.52911 0.1013 0.75942 0.0
H1525 H 0.52154 0.068 0.84997 0.0
H1526 H 0.46333 0.05935 0.92931 0.0
H1527 H 0.48144 0.06095 0.87689 0.0
C1528 C 0.16196 0.70929 0.54126 0.0
C1529 C 0.17301 0.70481 0.5592 0.0
C1530 C 0.1617 0.71864 0.50533 0.0
C1531 C 0.18061 0.73605 0.41394 0.0
H1532 H 0.15987 0.76263 0.45242 0.0
C1533 C 0.18685 0.78341 0.32849 0.0
C1534 C 0.17634 0.78927 0.31197 0.0
C1535 C 0.18611 0.77299 0.35843 0.0
C1536 C 0.16562 0.75525 0.44084 0.0
H1537 H 0.1924 0.70593 0.55058 0.0
H1538 H 0.19196 0.72213 0.48828 0.0
H1539 H 0.15864 0.74369 0.49923 0.0
H1540 H 0.15682 0.78914 0.31619 0.0
H1541 H 0.15555 0.77104 0.36824 0.0
H1542 H 0.18771 0.74767 0.35598 0.0
C1543 C 0.18349 0.7185 0.50177 0.0
C1544 C 0.16487 0.74436 0.46746 0.0
C1545 C 0.18374 0.70923 0.53774 0.0
C1546 C 0.1651 0.78484 0.32816 0.0
C1547 C 0.16436 0.77447 0.35815 0.0
C1548 C 0.18137 0.74693 0.38736 0.0
C1549 C 0.17249 0.7236 0.48646 0.0
C1550 C 0.17244 0.73468 0.45465 0.0
C1551 C 0.17484 0.76827 0.37264 0.0
C1552 C 0.17397 0.7567 0.40085 0.0
H1553 H 0.15354 0.70607 0.55709 0.0
H1554 H 0.15308 0.72227 0.4936 0.0
H1555 H 0.18647 0.72871 0.40277 0.0
H1556 H 0.19565 0.78658 0.31673 0.0
H1557 H 0.19435 0.76854 0.36983 0.0
C1558 C 0.46495 0.93222 0.57729 0.0
C1559 C 0.46003 0.92164 0.5566 0.0
C1560 C 0.47536 0.93176 0.60726 0.0
C1561 C 0.49487 0.91162 0.68293 0.0
H1562 H 0.51945 0.93519 0.65001 0.0
C1563 C 0.54106 0.91123 0.78367 0.0
C1564 C 0.54459 0.92248 0.80314 0.0
C1565 C 0.53167 0.91043 0.74805 0.0
C1566 C 0.51267 0.92858 0.65979 0.0
H1567 H 0.46177 0.90218 0.55373 0.0
H1568 H 0.47989 0.90139 0.60621 0.0
H1569 H 0.50045 0.93533 0.6034 0.0
H1570 H 0.54166 0.94175 0.79781 0.0
H1571 H 0.52538 0.94037 0.73619 0.0
H1572 H 0.50702 0.905 0.74001 0.0
C1573 C 0.47572 0.91005 0.59911 0.0
C1574 C 0.50176 0.92869 0.63326 0.0
C1575 C 0.46535 0.91051 0.56896 0.0
C1576 C 0.53911 0.93294 0.78377 0.0
C1577 C 0.52981 0.93214 0.74816 0.0
C1578 C 0.50578 0.91153 0.70962 0.0
C1579 C 0.48102 0.92069 0.61739 0.0
C1580 C 0.49268 0.92033 0.64502 0.0
C1581 C 0.52573 0.92087 0.73101 0.0
C1582 C 0.51474 0.92011 0.69882 0.0
H1583 H 0.46107 0.94094 0.56866 0.0
H1584 H 0.47911 0.94009 0.62172 0.0
H1585 H 0.48802 0.90509 0.69297 0.0
H1586 H 0.54511 0.90301 0.79788 0.0
H1587 H 0.52884 0.90162 0.73492 0.0
C1588 C 0.321 0.2098 0.85496 0.0
C1589 C 0.33097 0.20569 0.82692 0.0
C1590 C 0.32217 0.21945 0.88888 0.0
C1591 C 0.34136 0.2461 0.90942 0.0
H1592 H 0.32153 0.24977 0.03058 0.0
C1593 C 0.34208 0.28753 0.04811 0.0
C1594 C 0.33066 0.29161 0.06358 0.0
C1595 C 0.34319 0.27707 0.01849 0.0
C1596 C 0.32709 0.24888 0.99669 0.0
H1597 H 0.35021 0.20785 0.8156 0.0
H1598 H 0.35231 0.22448 0.87581 0.0
H1599 H 0.32191 0.23053 0.98589 0.0
H1600 H 0.31143 0.28845 0.05661 0.0
H1601 H 0.31339 0.27034 0.00524 0.0
H1602 H 0.34652 0.26454 0.92066 0.0
C1603 C 0.3435 0.22049 0.87044 0.0
C1604 C 0.3273 0.23786 0.97107 0.0
C1605 C 0.34231 0.21088 0.83627 0.0
C1606 C 0.32038 0.28549 0.04598 0.0
C1607 C 0.32149 0.27506 0.01681 0.0
C1608 C 0.34123 0.25711 0.93542 0.0
C1609 C 0.33337 0.22515 0.89587 0.0
C1610 C 0.33423 0.2364 0.92649 0.0
C1611 C 0.33289 0.27052 0.00421 0.0
C1612 C 0.33388 0.25867 0.9786 0.0
H1613 H 0.31212 0.20604 0.84857 0.0
H1614 H 0.31415 0.22285 0.90746 0.0
H1615 H 0.34669 0.24536 0.87483 0.0
H1616 H 0.35018 0.29204 0.06108 0.0
H1617 H 0.35209 0.27377 0.00898 0.0
C1618 C 0.0423 0.06125 0.12182 0.0
C1619 C 0.04733 0.0713 0.09719 0.0
C1620 C 0.03275 0.06269 0.15617 0.0
C1621 C 0.00806 0.08404 0.18321 0.0
H1622 H 0.00195 0.06236 0.29653 0.0
C1623 C 0.96666 0.08665 0.32153 0.0
C1624 C 0.96126 0.0755 0.33271 0.0
C1625 C 0.97727 0.08714 0.29254 0.0
C1626 C 0.00353 0.06845 0.26483 0.0
H1627 H 0.04703 0.0908 0.09262 0.0
H1628 H 0.03066 0.09332 0.15375 0.0
H1629 H 0.02124 0.06152 0.25221 0.0
H1630 H 0.96225 0.05624 0.31883 0.0
H1631 H 0.98063 0.05715 0.26863 0.0
H1632 H 0.99029 0.09096 0.1963 0.0
C1633 C 0.03379 0.0843 0.14527 0.0
C1634 C 0.01457 0.06797 0.2394 0.0
C1635 C 0.04325 0.08286 0.1106 0.0
C1636 C 0.96624 0.06498 0.31155 0.0
C1637 C 0.97682 0.06546 0.28305 0.0
C1638 C 0.99705 0.0846 0.20905 0.0
C1639 C 0.02812 0.07422 0.16703 0.0
C1640 C 0.0169 0.07559 0.19762 0.0
C1641 C 0.98265 0.07648 0.27464 0.0
C1642 C 0.99459 0.07663 0.24938 0.0
H1643 H 0.04519 0.05222 0.1121 0.0
H1644 H 0.02857 0.0547 0.17187 0.0
H1645 H 0.00946 0.08994 0.15072 0.0
H1646 H 0.96305 0.09492 0.33729 0.0
H1647 H 0.98158 0.09576 0.28631 0.0
C1648 C 0.81804 0.78652 0.83796 0.0
C1649 C 0.82846 0.79115 0.81467 0.0
C1650 C 0.81876 0.7766 0.8707 0.0
C1651 C 0.83815 0.75037 0.89695 0.0
H1652 H 0.81727 0.74663 0.01481 0.0
C1653 C 0.84027 0.71031 0.04131 0.0
C1654 C 0.82913 0.70605 0.05936 0.0
C1655 C 0.84076 0.72038 0.00907 0.0
C1656 C 0.82308 0.7475 0.98169 0.0
H1657 H 0.8479 0.78946 0.81006 0.0
H1658 H 0.84916 0.77232 0.86797 0.0
H1659 H 0.81727 0.76555 0.96779 0.0
H1660 H 0.80976 0.70835 0.05429 0.0
H1661 H 0.81063 0.72572 0.99784 0.0
H1662 H 0.84396 0.73226 0.91123 0.0
C1663 C 0.8404 0.77616 0.85991 0.0
C1664 C 0.82309 0.75835 0.9548 0.0
C1665 C 0.83968 0.78606 0.82706 0.0
C1666 C 0.8185 0.7115 0.04164 0.0
C1667 C 0.81899 0.72151 0.00959 0.0
C1668 C 0.83818 0.73951 0.92408 0.0
C1669 C 0.82992 0.77113 0.88107 0.0
C1670 C 0.83052 0.75987 0.91175 0.0
C1671 C 0.83012 0.72632 0.99446 0.0
C1672 C 0.83051 0.73791 0.96628 0.0
H1673 H 0.80925 0.7902 0.82912 0.0
H1674 H 0.81049 0.77289 0.88603 0.0
H1675 H 0.84387 0.75118 0.86353 0.0
H1676 H 0.84862 0.70631 0.05439 0.0
H1677 H 0.84947 0.72389 0.99785 0.0
C1678 C 0.03965 0.07305 0.8038 0.0
C1679 C 0.03989 0.06559 0.84718 0.0
C1680 C 0.0298 0.07275 0.7703 0.0
C1681 C 0.00253 0.05443 0.73806 0.0
H1682 H 0.992 0.08415 0.67479 0.0
C1683 C 0.96444 0.05571 0.5877 0.0
C1684 C 0.95751 0.06622 0.58329 0.0
C1685 C 0.97412 0.05525 0.62177 0.0
C1686 C 0.99467 0.07579 0.69281 0.0
H1687 H 0.02995 0.05205 0.88976 0.0
H1688 H 0.01273 0.0519 0.83325 0.0
H1689 H 0.00976 0.08419 0.7288 0.0
H1690 H 0.95468 0.08416 0.61352 0.0
H1691 H 0.97109 0.08313 0.67516 0.0
H1692 H 0.98708 0.04616 0.7045 0.0
C1693 C 0.02025 0.05767 0.82355 0.0
C1694 C 0.00505 0.07577 0.72303 0.0
C1695 C 0.03013 0.05782 0.85631 0.0
C1696 C 0.95993 0.07597 0.61594 0.0
C1697 C 0.96946 0.07542 0.65076 0.0
C1698 C 0.99203 0.0545 0.70867 0.0
C1699 C 0.01991 0.06513 0.78007 0.0
C1700 C 0.00912 0.06509 0.74616 0.0
C1701 C 0.97695 0.06521 0.65291 0.0
C1702 C 0.98795 0.06518 0.68558 0.0
H1703 H 0.04706 0.0791 0.79572 0.0
H1704 H 0.02996 0.07848 0.73678 0.0
H1705 H 0.00547 0.04597 0.75438 0.0
H1706 H 0.96286 0.04811 0.56256 0.0
H1707 H 0.97972 0.04727 0.62175 0.0
C1708 C 0.65855 0.28928 0.54194 0.0
C1709 C 0.66974 0.29346 0.55972 0.0
C1710 C 0.65795 0.27917 0.50993 0.0
C1711 C 0.67537 0.25187 0.48295 0.0
H1712 H 0.65466 0.2483 0.36448 0.0
C1713 C 0.68049 0.21296 0.33893 0.0
C1714 C 0.67011 0.20836 0.3152 0.0
C1715 C 0.67972 0.22284 0.37187 0.0
C1716 C 0.66035 0.24908 0.39801 0.0
H1717 H 0.68909 0.29099 0.5544 0.0
H1718 H 0.68802 0.27355 0.49842 0.0
H1719 H 0.65465 0.26723 0.41214 0.0
H1720 H 0.65068 0.21007 0.31003 0.0
H1721 H 0.64933 0.22714 0.36831 0.0
H1722 H 0.68107 0.23377 0.46918 0.0
C1723 C 0.67971 0.27785 0.51018 0.0
C1724 C 0.66037 0.25994 0.4251 0.0
C1725 C 0.68031 0.2879 0.54197 0.0
C1726 C 0.65887 0.21344 0.32739 0.0
C1727 C 0.6581 0.2233 0.36044 0.0
C1728 C 0.6753 0.24101 0.4561 0.0
C1729 C 0.66853 0.27311 0.49532 0.0
C1730 C 0.66803 0.2615 0.46736 0.0
C1731 C 0.66854 0.2283 0.38205 0.0
C1732 C 0.66792 0.23953 0.4129 0.0
H1733 H 0.65025 0.29336 0.55504 0.0
H1734 H 0.64921 0.27572 0.4989 0.0
H1735 H 0.68116 0.25271 0.51612 0.0
H1736 H 0.6893 0.2093 0.33028 0.0
H1737 H 0.68796 0.22652 0.38752 0.0
C1738 C 0.46006 0.93072 0.28045 0.0
C1739 C 0.45521 0.92017 0.30184 0.0
C1740 C 0.4694 0.93011 0.24495 0.0
C1741 C 0.49462 0.91055 0.21006 0.0
H1742 H 0.49881 0.9339 0.10105 0.0
C1743 C 0.53537 0.91118 0.07051 0.0
C1744 C 0.54009 0.92254 0.05769 0.0
C1745 C 0.52498 0.91022 0.10037 0.0
C1746 C 0.49781 0.92739 0.13167 0.0
H1747 H 0.45583 0.90067 0.30028 0.0
H1748 H 0.47216 0.89959 0.23742 0.0
H1749 H 0.47972 0.93292 0.14687 0.0
H1750 H 0.53795 0.94179 0.06858 0.0
H1751 H 0.51985 0.94009 0.12098 0.0
H1752 H 0.51278 0.90508 0.19478 0.0
C1753 C 0.46881 0.90834 0.24889 0.0
C1754 C 0.48686 0.9268 0.15776 0.0
C1755 C 0.45938 0.90895 0.28444 0.0
C1756 C 0.53455 0.9329 0.07763 0.0
C1757 C 0.52411 0.93194 0.10721 0.0
C1758 C 0.50557 0.91111 0.18371 0.0
C1759 C 0.47415 0.91894 0.22989 0.0
C1760 C 0.4852 0.91852 0.19789 0.0
C1761 C 0.51905 0.92061 0.11778 0.0
C1762 C 0.50734 0.91968 0.14486 0.0
H1763 H 0.457 0.93951 0.29288 0.0
H1764 H 0.47334 0.93845 0.23151 0.0
H1765 H 0.49372 0.90419 0.24126 0.0
H1766 H 0.53944 0.90301 0.05587 0.0
H1767 H 0.52128 0.90137 0.10787 0.0
C1768 C 0.83852 0.29116 0.45241 0.0
C1769 C 0.82744 0.29563 0.43473 0.0
C1770 C 0.83887 0.28102 0.48425 0.0
C1771 C 0.82064 0.25421 0.51224 0.0
H1772 H 0.84214 0.24987 0.62762 0.0
C1773 C 0.81599 0.21507 0.6562 0.0
C1774 C 0.82654 0.21023 0.67758 0.0
C1775 C 0.81659 0.22498 0.62333 0.0
C1776 C 0.83621 0.25087 0.59497 0.0
H1777 H 0.80804 0.29364 0.44 0.0
H1778 H 0.80867 0.27618 0.49597 0.0
H1779 H 0.84229 0.26888 0.58063 0.0
H1780 H 0.84605 0.21148 0.67838 0.0
H1781 H 0.84707 0.22861 0.62036 0.0
H1782 H 0.81453 0.23625 0.52641 0.0
C1783 C 0.81708 0.28025 0.48415 0.0
C1784 C 0.83628 0.26178 0.56823 0.0
C1785 C 0.81673 0.29032 0.4524 0.0
C1786 C 0.83773 0.21505 0.66293 0.0
C1787 C 0.83833 0.22494 0.63002 0.0
C1788 C 0.82059 0.24331 0.53884 0.0
C1789 C 0.82814 0.27522 0.49893 0.0
C1790 C 0.82839 0.26361 0.52696 0.0
C1791 C 0.82775 0.23023 0.61101 0.0
C1792 C 0.82829 0.24155 0.58079 0.0
H1793 H 0.84692 0.29505 0.43931 0.0
H1794 H 0.84753 0.27735 0.49513 0.0
H1795 H 0.81464 0.25524 0.47983 0.0
H1796 H 0.80723 0.2116 0.66681 0.0
H1797 H 0.80826 0.22888 0.60957 0.0
C1798 C 0.45977 0.09048 0.21291 0.0
C1799 C 0.45611 0.0792 0.19419 0.0
C1800 C 0.46915 0.09129 0.24861 0.0
C1801 C 0.48793 0.0732 0.33811 0.0
H1802 H 0.51288 0.09622 0.30335 0.0
C1803 C 0.53571 0.06896 0.41931 0.0
C1804 C 0.54085 0.0795 0.43955 0.0
C1805 C 0.52526 0.06955 0.38968 0.0
C1806 C 0.50595 0.08982 0.31383 0.0
H1807 H 0.45877 0.05991 0.20099 0.0
H1808 H 0.47501 0.06132 0.26271 0.0
H1809 H 0.49386 0.09645 0.25657 0.0
H1810 H 0.53941 0.09898 0.44194 0.0
H1811 H 0.52121 0.09998 0.38997 0.0
H1812 H 0.50011 0.06641 0.39462 0.0
C1813 C 0.47071 0.06956 0.25013 0.0
C1814 C 0.49502 0.09 0.28729 0.0
C1815 C 0.46142 0.06875 0.21444 0.0
C1816 C 0.53568 0.09069 0.42705 0.0
C1817 C 0.52525 0.09127 0.3972 0.0
C1818 C 0.49886 0.07299 0.36446 0.0
C1819 C 0.47494 0.08084 0.26648 0.0
C1820 C 0.48595 0.08157 0.29863 0.0
C1821 C 0.51975 0.08068 0.37941 0.0
C1822 C 0.50805 0.08118 0.3521 0.0
H1823 H 0.45586 0.09869 0.198 0.0
H1824 H 0.47209 0.10011 0.26111 0.0
H1825 H 0.48106 0.06671 0.34833 0.0
H1826 H 0.53947 0.0602 0.42806 0.0
H1827 H 0.52135 0.06125 0.37559 0.0
C1828 C 0.66083 0.78586 0.1738 0.0
C1829 C 0.67214 0.79076 0.1863 0.0
C1830 C 0.65999 0.77556 0.14328 0.0
C1831 C 0.67763 0.74885 0.11018 0.0
H1832 H 0.65397 0.74423 0.00278 0.0
C1833 C 0.68074 0.7107 0.96303 0.0
C1834 C 0.67015 0.70558 0.94327 0.0
C1835 C 0.6802 0.72023 0.99766 0.0
C1836 C 0.66047 0.74529 0.03335 0.0
H1837 H 0.69139 0.78909 0.17393 0.0
H1838 H 0.68988 0.77117 0.12036 0.0
H1839 H 0.65472 0.76335 0.04892 0.0
H1840 H 0.65065 0.70597 0.94673 0.0
H1841 H 0.6497 0.72262 0.00809 0.0
H1842 H 0.68341 0.73086 0.09479 0.0
C1843 C 0.68169 0.7752 0.13492 0.0
C1844 C 0.66095 0.75627 0.0595 0.0
C1845 C 0.68254 0.78554 0.16518 0.0
C1846 C 0.65897 0.70973 0.96131 0.0
C1847 C 0.65843 0.71934 0.99599 0.0
C1848 C 0.67711 0.73787 0.08429 0.0
C1849 C 0.67044 0.76992 0.12486 0.0
C1850 C 0.66967 0.75822 0.09761 0.0
C1851 C 0.66905 0.72489 0.01348 0.0
C1852 C 0.66866 0.73602 0.04499 0.0
H1853 H 0.65264 0.78968 0.18932 0.0
H1854 H 0.65119 0.7717 0.13619 0.0
H1855 H 0.68425 0.74999 0.14026 0.0
H1856 H 0.6895 0.70769 0.95007 0.0
H1857 H 0.68856 0.72434 0.00992 0.0
C1858 C 0.0374 0.91728 0.69408 0.0
C1859 C 0.04065 0.9285 0.6733 0.0
C1860 C 0.02729 0.91627 0.72581 0.0
C1861 C 0.99852 0.93152 0.74984 0.0
H1862 H 0.99738 0.91226 0.8735 0.0
C1863 C 0.96 0.93488 0.89692 0.0
C1864 C 0.95653 0.92442 0.92334 0.0
C1865 C 0.9697 0.93462 0.86291 0.0
C1866 C 0.99749 0.91751 0.83857 0.0
H1867 H 0.03632 0.94756 0.67238 0.0
H1868 H 0.01885 0.94579 0.72792 0.0
H1869 H 0.01603 0.91337 0.82428 0.0
H1870 H 0.96003 0.90531 0.93218 0.0
H1871 H 0.97681 0.90483 0.87213 0.0
H1872 H 0.98002 0.9357 0.76397 0.0
C1873 C 0.02393 0.93774 0.71877 0.0
C1874 C 0.00819 0.91818 0.81055 0.0
C1875 C 0.034 0.93876 0.68724 0.0
C1876 C 0.96253 0.91355 0.91276 0.0
C1877 C 0.97221 0.91329 0.87867 0.0
C1878 C 0.98782 0.93082 0.7777 0.0
C1879 C 0.02026 0.92645 0.73721 0.0
C1880 C 0.00885 0.92532 0.76628 0.0
C1881 C 0.97611 0.92388 0.8544 0.0
C1882 C 0.98721 0.92392 0.82271 0.0
H1883 H 0.04233 0.90921 0.68404 0.0
H1884 H 0.02468 0.90745 0.73953 0.0
H1885 H 0.99868 0.93689 0.71522 0.0
H1886 H 0.95559 0.94341 0.90424 0.0
H1887 H 0.97252 0.94296 0.84513 0.0
C1888 C 0.68315 0.78711 0.45713 0.0
C1889 C 0.6726 0.7928 0.43997 0.0
C1890 C 0.68252 0.77721 0.48983 0.0
C1891 C 0.66306 0.75999 0.57742 0.0
H1892 H 0.68311 0.73326 0.53405 0.0
C1893 C 0.66011 0.7135 0.67465 0.0
C1894 C 0.67117 0.70807 0.68708 0.0
C1895 C 0.65971 0.72345 0.64196 0.0
C1896 C 0.67753 0.74066 0.54694 0.0
H1897 H 0.65314 0.79311 0.44655 0.0
H1898 H 0.65204 0.77575 0.50406 0.0
H1899 H 0.68362 0.75209 0.48641 0.0
H1900 H 0.69042 0.7085 0.67293 0.0
H1901 H 0.68972 0.72587 0.61626 0.0
H1902 H 0.65708 0.74858 0.63838 0.0
C1903 C 0.6608 0.77897 0.49199 0.0
C1904 C 0.67784 0.75146 0.51972 0.0
C1905 C 0.66143 0.78892 0.45916 0.0
C1906 C 0.68174 0.71244 0.66408 0.0
C1907 C 0.68134 0.7224 0.63147 0.0
C1908 C 0.66279 0.74918 0.60485 0.0
C1909 C 0.67133 0.77277 0.50612 0.0
C1910 C 0.67071 0.76128 0.53496 0.0
C1911 C 0.67035 0.72818 0.62096 0.0
C1912 C 0.6701 0.73942 0.59014 0.0
H1913 H 0.69191 0.78997 0.44359 0.0
H1914 H 0.6908 0.77281 0.50115 0.0
H1915 H 0.65751 0.76743 0.59017 0.0
H1916 H 0.65179 0.71032 0.69146 0.0
H1917 H 0.65108 0.72755 0.63382 0.0
C1918 C 0.45949 0.41059 0.72383 0.0
C1919 C 0.45599 0.42198 0.70573 0.0
C1920 C 0.46874 0.40954 0.75997 0.0
C1921 C 0.48758 0.42713 0.85118 0.0
H1922 H 0.51236 0.40403 0.8152 0.0
C1923 C 0.53557 0.43108 0.93014 0.0
C1924 C 0.54069 0.42053 0.95032 0.0
C1925 C 0.52502 0.43053 0.90114 0.0
C1926 C 0.50547 0.41044 0.82603 0.0
H1927 H 0.45879 0.44121 0.71418 0.0
H1928 H 0.47484 0.43939 0.7766 0.0
H1929 H 0.49333 0.40406 0.76847 0.0
H1930 H 0.53913 0.40106 0.95331 0.0
H1931 H 0.52076 0.40013 0.90227 0.0
H1932 H 0.49984 0.4337 0.90784 0.0
C1933 C 0.4705 0.43125 0.76321 0.0
C1934 C 0.49453 0.41041 0.79952 0.0
C1935 C 0.46132 0.43229 0.72711 0.0
C1936 C 0.5354 0.40937 0.93843 0.0
C1937 C 0.52488 0.40882 0.90915 0.0
C1938 C 0.49852 0.42719 0.87745 0.0
C1939 C 0.47458 0.41986 0.77888 0.0
C1940 C 0.48554 0.41889 0.81124 0.0
C1941 C 0.51941 0.41942 0.89142 0.0
C1942 C 0.50765 0.41898 0.86459 0.0
H1943 H 0.45555 0.40247 0.70808 0.0
H1944 H 0.47157 0.40064 0.77193 0.0
H1945 H 0.48077 0.43365 0.86173 0.0
H1946 H 0.53941 0.43983 0.93843 0.0
H1947 H 0.52112 0.43883 0.88707 0.0
C1948 C 0.81751 0.29126 0.15527 0.0
C1949 C 0.82793 0.29562 0.17948 0.0
C1950 C 0.81817 0.28147 0.12183 0.0
C1951 C 0.83711 0.25498 0.09533 0.0
H1952 H 0.8166 0.25198 0.97593 0.0
C1953 C 0.83881 0.21498 0.95084 0.0
C1954 C 0.82765 0.21096 0.93212 0.0
C1955 C 0.83942 0.2251 0.98279 0.0
C1956 C 0.8223 0.25265 0.00946 0.0
H1957 H 0.84733 0.29359 0.185 0.0
H1958 H 0.84847 0.27665 0.12593 0.0
H1959 H 0.81685 0.2708 0.02379 0.0
H1960 H 0.80832 0.21379 0.93549 0.0
H1961 H 0.8094 0.23124 0.9914 0.0
H1962 H 0.84254 0.23677 0.08074 0.0
C1963 C 0.83976 0.28062 0.13377 0.0
C1964 C 0.82246 0.26343 0.03682 0.0
C1965 C 0.83911 0.2904 0.16729 0.0
C1966 C 0.81709 0.21675 0.94866 0.0
C1967 C 0.8177 0.2268 0.98041 0.0
C1968 C 0.83699 0.24418 0.06777 0.0
C1969 C 0.82926 0.27585 0.11169 0.0
C1970 C 0.82975 0.26468 0.08044 0.0
C1971 C 0.82888 0.23133 0.99645 0.0
C1972 C 0.82945 0.24286 0.02499 0.0
H1973 H 0.80875 0.29505 0.1639 0.0
H1974 H 0.80989 0.27797 0.10578 0.0
H1975 H 0.84271 0.25558 0.12919 0.0
H1976 H 0.84711 0.21073 0.93872 0.0
H1977 H 0.84816 0.22838 0.99469 0.0
C1978 C 0.95897 0.56518 0.39667 0.0
C1979 C 0.95532 0.57582 0.42132 0.0
C1980 C 0.96869 0.5653 0.36267 0.0
C1981 C 0.99624 0.58257 0.33653 0.0
H1982 H 0.9978 0.56263 0.21488 0.0
C1983 C 0.03617 0.58325 0.19273 0.0
C1984 C 0.03959 0.57213 0.17155 0.0
C1985 C 0.02604 0.58404 0.22446 0.0
C1986 C 0.99755 0.56815 0.24908 0.0
H1987 H 0.95849 0.59506 0.4269 0.0
H1988 H 0.9753 0.59526 0.36701 0.0
H1989 H 0.97912 0.56369 0.26363 0.0
H1990 H 0.03554 0.55301 0.16984 0.0
H1991 H 0.01807 0.55439 0.2256 0.0
H1992 H 0.01471 0.58698 0.32202 0.0
C1993 C 0.97083 0.58679 0.3749 0.0
C1994 C 0.98683 0.56878 0.27689 0.0
C1995 C 0.96113 0.58668 0.4089 0.0
C1996 C 0.03309 0.56174 0.18504 0.0
C1997 C 0.02301 0.56254 0.21669 0.0
C1998 C 0.00696 0.58195 0.30865 0.0
C1999 C 0.97493 0.57605 0.35252 0.0
C2000 C 0.98608 0.57592 0.32115 0.0
C2001 C 0.01917 0.57373 0.23558 0.0
C2002 C 0.00776 0.57464 0.2649 0.0
H2003 H 0.95471 0.55666 0.40543 0.0
H2004 H 0.97166 0.55685 0.34627 0.0
H2005 H 0.99602 0.58801 0.37095 0.0
H2006 H 0.04097 0.59142 0.183 0.0
H2007 H 0.02329 0.5928 0.23841 0.0
C2008 C 0.68075 0.28826 0.83765 0.0
C2009 C 0.67027 0.2928 0.81456 0.0
C2010 C 0.68015 0.27836 0.87055 0.0
C2011 C 0.66107 0.25196 0.89739 0.0
H2012 H 0.682 0.24854 0.01523 0.0
C2013 C 0.65936 0.21191 0.04168 0.0
C2014 C 0.67052 0.20781 0.06009 0.0
C2015 C 0.65879 0.22198 0.00946 0.0
C2016 C 0.67618 0.24932 0.9821 0.0
H2017 H 0.65084 0.29094 0.81046 0.0
H2018 H 0.64979 0.27382 0.86859 0.0
H2019 H 0.68178 0.26743 0.96795 0.0
H2020 H 0.68986 0.21039 0.05571 0.0
H2021 H 0.68885 0.22775 -0.00077 0.0
H2022 H 0.65548 0.2338 0.91184 0.0
C2023 C 0.65851 0.27774 0.86028 0.0
C2024 C 0.67605 0.26015 0.95508 0.0
C2025 C 0.6591 0.28763 0.82731 0.0
C2026 C 0.68111 0.21342 0.04278 0.0
C2027 C 0.68053 0.22343 0.01071 0.0
C2028 C 0.66117 0.24112 0.92461 0.0
C2029 C 0.66905 0.2728 0.88126 0.0
C2030 C 0.66859 0.26157 0.91206 0.0
C2031 C 0.66937 0.22808 0.99518 0.0
C2032 C 0.66886 0.23964 0.96683 0.0
H2033 H 0.68951 0.292 0.82857 0.0
H2034 H 0.68847 0.27474 0.88575 0.0
H2035 H 0.65533 0.2527 0.86398 0.0
H2036 H 0.65104 0.20779 0.05444 0.0
H2037 H 0.65005 0.22535 0.99796 0.0
C2038 C 0.96247 0.41304 0.07232 0.0
C2039 C 0.95698 0.42412 0.06054 0.0
C2040 C 0.97278 0.41264 0.1029 0.0
C2041 C 0.99847 0.43153 0.13802 0.0
H2042 H 0.00398 0.40796 0.24498 0.0
C2043 C 0.03593 0.43639 0.28757 0.0
C2044 C 0.04154 0.42603 0.30718 0.0
C2045 C 0.02653 0.43543 0.25246 0.0
C2046 C 0.00268 0.41445 0.21454 0.0
H2047 H 0.95764 0.44338 0.07415 0.0
H2048 H 0.97559 0.44264 0.12779 0.0
H2049 H 0.98501 0.40777 0.19765 0.0
H2050 H 0.04216 0.40655 0.30295 0.0
H2051 H 0.02577 0.40486 0.2408 0.0
H2052 H 0.01608 0.43825 0.15476 0.0
C2053 C 0.972 0.4343 0.11262 0.0
C2054 C 0.99178 0.41439 0.1877 0.0
C2055 C 0.96165 0.4347 0.08231 0.0
C2056 C 0.03801 0.4147 0.28859 0.0
C2057 C 0.02855 0.41373 0.2534 0.0
C2058 C 0.00937 0.43156 0.1646 0.0
C2059 C 0.97785 0.4233 0.1221 0.0
C2060 C 0.9895 0.42306 0.14978 0.0
C2061 C 0.02251 0.42408 0.23598 0.0
C2062 C 0.01152 0.42316 0.20377 0.0
H2063 H 0.95909 0.40471 0.05627 0.0
H2064 H 0.9771 0.40403 0.10955 0.0
H2065 H 0.99708 0.43815 0.10811 0.0
H2066 H 0.03845 0.44527 0.30091 0.0
H2067 H 0.02203 0.44358 0.24025 0.0
C2068 C 0.81842 0.71137 0.33799 0.0
C2069 C 0.82892 0.70703 0.31429 0.0
C2070 C 0.81894 0.7213 0.37079 0.0
C2071 C 0.83758 0.74807 0.39628 0.0
H2072 H 0.81706 0.75108 0.51565 0.0
C2073 C 0.83922 0.78807 0.5406 0.0
C2074 C 0.82808 0.79198 0.56002 0.0
C2075 C 0.8398 0.77803 0.50824 0.0
C2076 C 0.82275 0.75042 0.48209 0.0
H2077 H 0.8483 0.70927 0.30899 0.0
H2078 H 0.8492 0.72642 0.36696 0.0
H2079 H 0.81745 0.7322 0.46832 0.0
H2080 H 0.80876 0.78908 0.55734 0.0
H2081 H 0.80979 0.77176 0.50061 0.0
H2082 H 0.84288 0.76634 0.41034 0.0
C2083 C 0.84054 0.72233 0.35921 0.0
C2084 C 0.82299 0.73959 0.45504 0.0
C2085 C 0.84002 0.71243 0.32633 0.0
C2086 C 0.8175 0.7862 0.54361 0.0
C2087 C 0.81809 0.77622 0.51139 0.0
C2088 C 0.83737 0.75891 0.42351 0.0
C2089 C 0.82996 0.72707 0.38079 0.0
C2090 C 0.83031 0.73832 0.4115 0.0
C2091 C 0.82926 0.77177 0.49482 0.0
C2092 C 0.82983 0.76024 0.46631 0.0
H2093 H 0.80972 0.70746 0.32946 0.0
H2094 H 0.81061 0.72476 0.38649 0.0
H2095 H 0.84319 0.74744 0.36246 0.0
H2096 H 0.84752 0.79233 0.55263 0.0
H2097 H 0.84854 0.77481 0.49594 0.0
C2098 C 0.5361 0.59055 0.56198 0.0
C2099 C 0.54157 0.57946 0.55014 0.0
C2100 C 0.52568 0.59095 0.59188 0.0
C2101 C 0.49977 0.5721 0.62522 0.0
H2102 H 0.49413 0.59557 0.73251 0.0
C2103 C 0.4623 0.56712 0.77467 0.0
C2104 C 0.45674 0.57746 0.79471 0.0
C2105 C 0.47161 0.56811 0.73916 0.0
C2106 C 0.49547 0.58911 0.70195 0.0
H2107 H 0.54073 0.56017 0.56291 0.0
H2108 H 0.5226 0.56091 0.61539 0.0
H2109 H 0.51318 0.59575 0.68585 0.0
H2110 H 0.45607 0.59694 0.79069 0.0
H2111 H 0.47233 0.59868 0.72787 0.0
H2112 H 0.48212 0.5654 0.6413 0.0
C2113 C 0.52628 0.56926 0.60077 0.0
C2114 C 0.50641 0.58917 0.6755 0.0
C2115 C 0.53674 0.56886 0.57113 0.0
C2116 C 0.46018 0.58881 0.77597 0.0
C2117 C 0.46957 0.58981 0.74042 0.0
C2118 C 0.48882 0.57207 0.65145 0.0
C2119 C 0.52047 0.58027 0.61033 0.0
C2120 C 0.50875 0.58053 0.63748 0.0
C2121 C 0.47561 0.57947 0.72276 0.0
C2122 C 0.48662 0.58044 0.69073 0.0
H2123 H 0.5396 0.59889 0.54651 0.0
H2124 H 0.5214 0.59956 0.5986 0.0
H2125 H 0.50121 0.56551 0.59524 0.0
H2126 H 0.45983 0.55823 0.78813 0.0
H2127 H 0.47611 0.55997 0.72674 0.0
C2128 C 0.33381 0.21083 0.53376 0.0
C2129 C 0.32656 0.21135 0.57785 0.0
C2130 C 0.33432 0.22067 0.5002 0.0
C2131 C 0.33186 0.25307 0.49723 0.0
H2132 H 0.32133 0.25051 0.356 0.0
C2133 C 0.33632 0.29065 0.34275 0.0
C2134 C 0.32567 0.2932 0.31579 0.0
C2135 C 0.33681 0.28095 0.37675 0.0
C2136 C 0.32431 0.25131 0.39536 0.0
H2137 H 0.31425 0.22259 0.62144 0.0
H2138 H 0.31543 0.23972 0.56373 0.0
H2139 H 0.32215 0.23241 0.40984 0.0
H2140 H 0.30708 0.28782 0.30441 0.0
H2141 H 0.30804 0.27072 0.36324 0.0
H2142 H 0.33409 0.27195 0.48277 0.0
C2143 C 0.32058 0.2317 0.55491 0.0
C2144 C 0.32488 0.24098 0.42584 0.0
C2145 C 0.31986 0.22184 0.58767 0.0
C2146 C 0.31539 0.28614 0.32491 0.0
C2147 C 0.31596 0.27629 0.35809 0.0
C2148 C 0.33154 0.26335 0.46647 0.0
C2149 C 0.32783 0.23123 0.51108 0.0
C2150 C 0.32847 0.24183 0.4772 0.0
C2151 C 0.32674 0.2735 0.38352 0.0
C2152 C 0.32756 0.26258 0.41558 0.0
H2153 H 0.33906 0.20286 0.52529 0.0
H2154 H 0.33995 0.22015 0.46639 0.0
H2155 H 0.33465 0.25389 0.53684 0.0
H2156 H 0.34438 0.29594 0.33641 0.0
H2157 H 0.34521 0.27895 0.39609 0.0
C2158 C 0.5419 0.59089 0.27712 0.0
C2159 C 0.54625 0.57981 0.29536 0.0
C2160 C 0.53244 0.5912 0.24165 0.0
C2161 C 0.51467 0.5722 0.15179 0.0
H2162 H 0.48848 0.59371 0.18757 0.0
C2163 C 0.46722 0.5659 0.06844 0.0
C2164 C 0.4616 0.57629 0.04924 0.0
C2165 C 0.4776 0.56683 0.09846 0.0
C2166 C 0.49575 0.58773 0.1768 0.0
H2167 H 0.54474 0.56042 0.28794 0.0
H2168 H 0.52836 0.56096 0.2266 0.0
H2169 H 0.50745 0.59487 0.2344 0.0
H2170 H 0.46208 0.59583 0.04902 0.0
H2171 H 0.48012 0.59741 0.10153 0.0
H2172 H 0.50289 0.56492 0.09482 0.0
C2173 C 0.53217 0.56942 0.23939 0.0
C2174 C 0.50665 0.58844 0.20339 0.0
C2175 C 0.54154 0.5691 0.27485 0.0
C2176 C 0.4662 0.58764 0.06307 0.0
C2177 C 0.47653 0.58856 0.09327 0.0
C2178 C 0.50376 0.57146 0.12536 0.0
C2179 C 0.52726 0.58045 0.22354 0.0
C2180 C 0.51619 0.58058 0.19161 0.0
C2181 C 0.48252 0.57816 0.11016 0.0
C2182 C 0.49414 0.57911 0.13799 0.0
H2183 H 0.54533 0.59929 0.29225 0.0
H2184 H 0.52896 0.59985 0.22953 0.0
H2185 H 0.52189 0.56614 0.14126 0.0
H2186 H 0.46391 0.55702 0.05859 0.0
H2187 H 0.48189 0.55865 0.11178 0.0
C2188 C 0.18231 0.79134 0.03301 0.0
C2189 C 0.17199 0.79578 0.05774 0.0
C2190 C 0.18141 0.78218 0.9968 0.0
C2191 C 0.16199 0.75658 0.96626 0.0
H2192 H 0.18402 0.75295 0.85203 0.0
C2193 C 0.16203 0.71566 0.82797 0.0
C2194 C 0.17336 0.71113 0.81344 0.0
C2195 C 0.16114 0.72614 0.85724 0.0
C2196 C 0.17788 0.75381 0.88407 0.0
H2197 H 0.15253 0.79471 0.06121 0.0
H2198 H 0.15091 0.7787 0.99708 0.0
H2199 H 0.1831 0.77205 0.89784 0.0
H2200 H 0.19264 0.71376 0.82037 0.0
H2201 H 0.19107 0.73204 0.87175 0.0
H2202 H 0.15683 0.73828 0.95245 0.0
C2203 C 0.15973 0.78221 0.00651 0.0
C2204 C 0.17732 0.76476 0.91016 0.0
C2205 C 0.16064 0.79146 0.0428 0.0
C2206 C 0.18378 0.717 0.83088 0.0
C2207 C 0.18289 0.72754 0.85983 0.0
C2208 C 0.16251 0.74564 0.9399 0.0
C2209 C 0.17015 0.77722 0.98436 0.0
C2210 C 0.16954 0.7662 0.95221 0.0
C2211 C 0.17156 0.73236 0.87229 0.0
C2212 C 0.17063 0.74408 0.89918 0.0
H2213 H 0.1912 0.79454 0.04346 0.0
H2214 H 0.18963 0.77851 0.98089 0.0
H2215 H 0.15604 0.75732 -0.00105 0.0
H2216 H 0.15382 0.71134 0.81525 0.0
H2217 H 0.15229 0.72965 0.86624 0.0
C2218 C 0.03303 0.43954 0.57945 0.0
C2219 C 0.03868 0.42901 0.56189 0.0
C2220 C 0.02274 0.43883 0.61023 0.0
C2221 C 0.0048 0.41825 0.69181 0.0
H2222 H 0.97838 0.43926 0.65397 0.0
C2223 C 0.95823 0.41389 0.78726 0.0
C2224 C 0.95352 0.42481 0.80556 0.0
C2225 C 0.9679 0.41389 0.75279 0.0
C2226 C 0.98569 0.43336 0.66512 0.0
H2227 H 0.03839 0.40948 0.5655 0.0
H2228 H 0.02052 0.40828 0.61897 0.0
H2229 H 0.99748 0.44069 0.60828 0.0
H2230 H 0.95461 0.44425 0.7992 0.0
H2231 H 0.97134 0.44425 0.73939 0.0
H2232 H 0.99304 0.41099 0.74895 0.0
C2233 C 0.024 0.41708 0.60904 0.0
C2234 C 0.99665 0.43423 0.63918 0.0
C2235 C 0.03424 0.41778 0.57821 0.0
C2236 C 0.95809 0.43568 0.78603 0.0
C2237 C 0.96766 0.43568 0.75149 0.0
C2238 C 0.99383 0.41738 0.71778 0.0
C2239 C 0.01794 0.42758 0.62426 0.0
C2240 C 0.00636 0.42675 0.65248 0.0
C2241 C 0.97293 0.42481 0.73573 0.0
C2242 C 0.98418 0.42499 0.70499 0.0
H2243 H 0.03621 0.44833 0.5676 0.0
H2244 H 0.01839 0.4471 0.62218 0.0
H2245 H 0.01213 0.41241 0.70323 0.0
H2246 H 0.95492 0.40537 0.80167 0.0
H2247 H 0.97166 0.40536 0.74067 0.0
C2248 C 0.31427 0.71497 0.16956 0.0
C2249 C 0.32474 0.70817 0.17751 0.0
C2250 C 0.31435 0.72477 0.13607 0.0
C2251 C 0.33567 0.74582 0.07166 0.0
H2252 H 0.3068 0.75538 -0.00084 0.0
C2253 C 0.33306 0.79036 0.95565 0.0
C2254 C 0.32624 0.79008 0.91039 0.0
C2255 C 0.33281 0.78057 0.98959 0.0
C2256 C 0.31502 0.75279 0.01855 0.0
H2257 H 0.34333 0.70581 0.15442 0.0
H2258 H 0.34332 0.72247 0.0937 0.0
H2259 H 0.30662 0.73723 0.05025 0.0
H2260 H 0.31411 0.77918 0.86446 0.0
H2261 H 0.31409 0.76215 0.92169 0.0
H2262 H 0.34425 0.76106 0.03738 0.0
C2263 C 0.33516 0.7206 0.11491 0.0
C2264 C 0.31485 0.74243 0.0487 0.0
C2265 C 0.33513 0.71094 0.14921 0.0
C2266 C 0.31932 0.77981 0.89945 0.0
C2267 C 0.31924 0.77001 0.93262 0.0
C2268 C 0.3359 0.75608 0.04064 0.0
C2269 C 0.32486 0.72786 0.1089 0.0
C2270 C 0.32516 0.73878 0.07574 0.0
C2271 C 0.32589 0.77026 0.9784 0.0
C2272 C 0.32559 0.75968 0.01346 0.0
H2273 H 0.30616 0.71316 0.19133 0.0
H2274 H 0.30629 0.7302 0.13323 0.0
H2275 H 0.34373 0.74347 0.09269 0.0
H2276 H 0.33848 0.79817 0.96502 0.0
H2277 H 0.33795 0.78115 0.02473 0.0
C2278 C 0.96186 0.56467 0.69307 0.0
C2279 C 0.9568 0.57558 0.67626 0.0
C2280 C 0.97204 0.56463 0.72421 0.0
C2281 C 0.99126 0.58315 0.80825 0.0
H2282 H 0.01597 0.56048 0.76647 0.0
C2283 C 0.03801 0.5833 0.90218 0.0
C2284 C 0.04244 0.572 0.91758 0.0
C2285 C 0.02819 0.58411 0.86903 0.0
C2286 C 0.00914 0.5668 0.77886 0.0
H2287 H 0.95805 0.59502 0.68156 0.0
H2288 H 0.97595 0.59494 0.73621 0.0
H2289 H 0.99694 0.56121 0.72014 0.0
H2290 H 0.04049 0.55272 0.90768 0.0
H2291 H 0.02331 0.55414 0.8499 0.0
H2292 H 0.00342 0.58867 0.86727 0.0
C2293 C 0.97198 0.58642 0.72521 0.0
C2294 C 0.99822 0.5672 0.75242 0.0
C2295 C 0.96172 0.58647 0.69401 0.0
C2296 C 0.03732 0.56155 0.89647 0.0
C2297 C 0.02746 0.56238 0.86333 0.0
C2298 C 0.00218 0.58274 0.83477 0.0
C2299 C 0.97746 0.57549 0.73922 0.0
C2300 C 0.98911 0.5753 0.7671 0.0
C2301 C 0.02256 0.57366 0.85051 0.0
C2302 C 0.01122 0.5745 0.82056 0.0
H2303 H 0.9582 0.55612 0.68059 0.0
H2304 H 0.97586 0.55606 0.7355 0.0
H2305 H 0.98439 0.58942 0.8207 0.0
H2306 H 0.04182 0.59153 0.91736 0.0
H2307 H 0.02481 0.59295 0.85892 0.0
C2308 C 0.16218 0.28635 0.66069 0.0
C2309 C 0.17356 0.29079 0.67509 0.0
C2310 C 0.16119 0.2759 0.6312 0.0
C2311 C 0.17774 0.24813 0.6048 0.0
H2312 H 0.15573 0.24442 0.49065 0.0
C2313 C 0.16001 0.21001 0.44906 0.0
C2314 C 0.1713 0.20548 0.4344 0.0
C2315 C 0.15922 0.21945 0.4845 0.0
C2316 C 0.16174 0.24522 0.52314 0.0
H2317 H 0.19282 0.28808 0.66741 0.0
H2318 H 0.19107 0.26987 0.61571 0.0
H2319 H 0.1567 0.26359 0.53618 0.0
H2320 H 0.19053 0.2066 0.44831 0.0
H2321 H 0.18918 0.22296 0.50938 0.0
H2322 H 0.18283 0.22982 0.59192 0.0
C2323 C 0.18293 0.27441 0.6279 0.0
C2324 C 0.16235 0.25624 0.54893 0.0
C2325 C 0.18392 0.28491 0.65704 0.0
C2326 C 0.18169 0.20994 0.45856 0.0
C2327 C 0.1809 0.2193 0.49391 0.0
C2328 C 0.17708 0.23711 0.5793 0.0
C2329 C 0.17155 0.26963 0.61582 0.0
C2330 C 0.17053 0.25786 0.58938 0.0
C2331 C 0.16971 0.22444 0.50608 0.0
C2332 C 0.16924 0.23559 0.53751 0.0
H2333 H 0.15401 0.29068 0.67385 0.0
H2334 H 0.15231 0.27243 0.62247 0.0
H2335 H 0.18392 0.24904 0.63667 0.0
H2336 H 0.15184 0.20676 0.43107 0.0
H2337 H 0.15044 0.2231 0.49374 0.0
C2338 C 0.46803 0.4339 0.43303 0.0
C2339 C 0.46227 0.42351 0.45157 0.0
C2340 C 0.47849 0.43295 0.40351 0.0
C2341 C 0.49656 0.41206 0.32485 0.0
H2342 H 0.52279 0.4335 0.36091 0.0
C2343 C 0.54247 0.40908 0.22286 0.0
C2344 C 0.54674 0.4202 0.20476 0.0
C2345 C 0.53315 0.40868 0.25895 0.0
C2346 C 0.51554 0.42747 0.35027 0.0
H2347 H 0.46262 0.40397 0.45128 0.0
H2348 H 0.4808 0.40235 0.39964 0.0
H2349 H 0.50381 0.43469 0.4076 0.0
H2350 H 0.54527 0.43958 0.21313 0.0
H2351 H 0.52912 0.43888 0.27556 0.0
H2352 H 0.5082 0.40501 0.26685 0.0
C2353 C 0.47726 0.41121 0.40801 0.0
C2354 C 0.50465 0.42819 0.37684 0.0
C2355 C 0.46684 0.41216 0.43771 0.0
C2356 C 0.54213 0.43086 0.22609 0.0
C2357 C 0.53289 0.43046 0.26218 0.0
C2358 C 0.50744 0.41137 0.29814 0.0
C2359 C 0.48336 0.4216 0.39166 0.0
C2360 C 0.49499 0.42061 0.36397 0.0
C2361 C 0.52802 0.41939 0.27781 0.0
C2362 C 0.517 0.41918 0.31009 0.0
H2363 H 0.46475 0.44278 0.44293 0.0
H2364 H 0.48287 0.44111 0.39061 0.0
H2365 H 0.48925 0.40614 0.31389 0.0
H2366 H 0.54584 0.40072 0.2071 0.0
H2367 H 0.5297 0.4 0.27089 0.0
loop_
_geom_bond_atom_site_label_1
_geom_bond_atom_site_label_2
_geom_bond_distance
_geom_bond_site_symmetry_2
_ccdc_geom_bond_type
O0 Cd1 2.223 . S
O0 C8 1.315 . S
Cd1 O0 2.223 . S
Cd1 O4 2.297 . S
Cd1 O5 2.439 . S
Cd1 O11 2.240 . S
Cd2 O3 2.240 . S
Cd2 O10 2.223 . S
Cd2 O12 2.297 . S
Cd2 O13 2.439 . S
O3 Cd2 2.240 . S
O3 C8 1.279 . S
O4 Cd1 2.297 . S
O4 C6 1.247 . S
O5 Cd1 2.439 . S
O5 C6 1.208 . S
C6 O4 1.247 . S
C6 O5 1.208 . S
C7 O12 1.247 . S
C7 O13 1.208 . S
C8 O0 1.315 . S
C8 O3 1.279 . S
C9 O10 1.315 . S
C9 O11 1.279 . S
O10 Cd2 2.223 . S
O10 C9 1.315 . S
O11 Cd1 2.240 . S
O11 C9 1.279 . S
O12 Cd2 2.297 . S
O12 C7 1.247 . S
O13 Cd2 2.439 . S
O13 C7 1.208 . S
O14 Cd15 2.223 . S
O14 C22 1.315 . S
Cd15 O14 2.223 . S
Cd15 O18 2.297 . S
Cd15 O19 2.439 . S
Cd15 O25 2.240 . S
Cd16 O17 2.240 . S
Cd16 O24 2.223 . S
Cd16 O26 2.297 . S
Cd16 O27 2.439 . S
O17 Cd16 2.240 . S
O17 C22 1.279 . S
O18 Cd15 2.297 . S
O18 C20 1.247 . S
O19 Cd15 2.439 . S
O19 C20 1.208 . S
C20 O18 1.247 . S
C20 O19 1.208 . S
C21 O26 1.247 . S
C21 O27 1.208 . S
C22 O14 1.315 . S
C22 O17 1.279 . S
C23 O24 1.315 . S
C23 O25 1.279 . S
O24 Cd16 2.223 . S
O24 C23 1.315 . S
O25 Cd15 2.240 . S
O25 C23 1.279 . S
O26 Cd16 2.297 . S
O26 C21 1.247 . S
O27 Cd16 2.439 . S
O27 C21 1.208 . S
O28 Cd29 2.223 . S
O28 C36 1.315 . S
Cd29 O28 2.223 . S
Cd29 O32 2.297 . S
Cd29 O33 2.439 . S
Cd29 O39 2.240 . S
Cd30 O31 2.240 . S
Cd30 O38 2.223 . S
Cd30 O40 2.297 . S
Cd30 O41 2.439 . S
O31 Cd30 2.240 . S
O31 C36 1.279 . S
O32 Cd29 2.297 . S
O32 C34 1.247 . S
O33 Cd29 2.439 . S
O33 C34 1.208 . S
C34 O32 1.247 . S
C34 O33 1.208 . S
C35 O40 1.247 . S
C35 O41 1.208 . S
C36 O28 1.315 . S
C36 O31 1.279 . S
C37 O38 1.315 . S
C37 O39 1.279 . S
O38 Cd30 2.223 . S
O38 C37 1.315 . S
O39 Cd29 2.240 . S
O39 C37 1.279 . S
O40 Cd30 2.297 . S
O40 C35 1.247 . S
O41 Cd30 2.439 . S
O41 C35 1.208 . S
O42 Cd43 2.223 . S
O42 C50 1.315 . S
Cd43 O42 2.223 . S
Cd43 O46 2.297 . S
Cd43 O47 2.439 . S
Cd43 O53 2.240 . S
Cd44 O45 2.240 . S
Cd44 O52 2.223 . S
Cd44 O54 2.297 . S
Cd44 O55 2.439 . S
O45 Cd44 2.240 . S
O45 C50 1.279 . S
O46 Cd43 2.297 . S
O46 C48 1.247 . S
O47 Cd43 2.439 . S
O47 C48 1.208 . S
C48 O46 1.247 . S
C48 O47 1.208 . S
C49 O54 1.247 . S
C49 O55 1.208 . S
C50 O42 1.315 . S
C50 O45 1.279 . S
C51 O52 1.315 . S
C51 O53 1.279 . S
O52 Cd44 2.223 . S
O52 C51 1.315 . S
O53 Cd43 2.240 . S
O53 C51 1.279 . S
O54 Cd44 2.297 . S
O54 C49 1.247 . S
O55 Cd44 2.439 . S
O55 C49 1.208 . S
O56 Cd57 2.223 . S
O56 C64 1.315 . S
Cd57 O56 2.223 . S
Cd57 O60 2.297 . S
Cd57 O61 2.439 . S
Cd57 O67 2.240 . S
Cd58 O59 2.240 . S
Cd58 O66 2.223 . S
Cd58 O68 2.297 . S
Cd58 O69 2.439 . S
O59 Cd58 2.240 . S
O59 C64 1.279 . S
O60 Cd57 2.297 . S
O60 C62 1.247 . S
O61 Cd57 2.439 . S
O61 C62 1.208 . S
C62 O60 1.247 . S
C62 O61 1.208 . S
C63 O68 1.247 . S
C63 O69 1.208 . S
C64 O56 1.315 . S
C64 O59 1.279 . S
C65 O66 1.315 . S
C65 O67 1.279 . S
O66 Cd58 2.223 . S
O66 C65 1.315 . S
O67 Cd57 2.240 . S
O67 C65 1.279 . S
O68 Cd58 2.297 . S
O68 C63 1.247 . S
O69 Cd58 2.439 . S
O69 C63 1.208 . S
O70 Cd71 2.223 . S
O70 C78 1.315 . S
Cd71 O70 2.223 . S
Cd71 O74 2.297 . S
Cd71 O75 2.439 . S
Cd71 O81 2.240 . S
Cd72 O73 2.240 . S
Cd72 O80 2.223 . S
Cd72 O82 2.297 . S
Cd72 O83 2.439 . S
O73 Cd72 2.240 . S
O73 C78 1.279 . S
O74 Cd71 2.297 . S
O74 C76 1.247 . S
O75 Cd71 2.439 . S
O75 C76 1.208 . S
C76 O74 1.247 . S
C76 O75 1.208 . S
C77 O82 1.247 . S
C77 O83 1.208 . S
C78 O70 1.315 . S
C78 O73 1.279 . S
C79 O80 1.315 . S
C79 O81 1.279 . S
O80 Cd72 2.223 . S
O80 C79 1.315 . S
O81 Cd71 2.240 . S
O81 C79 1.279 . S
O82 Cd72 2.297 . S
O82 C77 1.247 . S
O83 Cd72 2.439 . S
O83 C77 1.208 . S
O84 Cd85 2.223 . S
O84 C92 1.315 . S
Cd85 O84 2.223 . S
Cd85 O88 2.297 . S
Cd85 O89 2.439 . S
Cd85 O95 2.240 . S
Cd86 O87 2.240 . S
Cd86 O94 2.223 . S
Cd86 O96 2.297 . S
Cd86 O97 2.439 . S
O87 Cd86 2.240 . S
O87 C92 1.279 . S
O88 Cd85 2.297 . S
O88 C90 1.247 . S
O89 Cd85 2.439 . S
O89 C90 1.208 . S
C90 O88 1.247 . S
C90 O89 1.208 . S
C91 O96 1.247 . S
C91 O97 1.208 . S
C92 O84 1.315 . S
C92 O87 1.279 . S
C93 O94 1.315 . S
C93 O95 1.279 . S
O94 Cd86 2.223 . S
O94 C93 1.315 . S
O95 Cd85 2.240 . S
O95 C93 1.279 . S
O96 Cd86 2.297 . S
O96 C91 1.247 . S
O97 Cd86 2.439 . S
O97 C91 1.208 . S
O98 Cd99 2.223 . S
O98 C106 1.315 . S
Cd99 O98 2.223 . S
Cd99 O102 2.297 . S
Cd99 O103 2.439 . S
Cd99 O109 2.240 . S
Cd100 O101 2.240 . S
Cd100 O108 2.223 . S
Cd100 O110 2.297 . S
Cd100 O111 2.439 . S
O101 Cd100 2.240 . S
O101 C106 1.279 . S
O102 Cd99 2.297 . S
O102 C104 1.247 . S
O103 Cd99 2.439 . S
O103 C104 1.208 . S
C104 O102 1.247 . S
C104 O103 1.208 . S
C105 O110 1.247 . S
C105 O111 1.208 . S
C106 O98 1.315 . S
C106 O101 1.279 . S
C107 O108 1.315 . S
C107 O109 1.279 . S
O108 Cd100 2.223 . S
O108 C107 1.315 . S
O109 Cd99 2.240 . S
O109 C107 1.279 . S
O110 Cd100 2.297 . S
O110 C105 1.247 . S
O111 Cd100 2.439 . S
O111 C105 1.208 . S
O112 Cd113 2.223 . S
O112 C120 1.315 . S
Cd113 O112 2.223 . S
Cd113 O116 2.297 . S
Cd113 O117 2.439 . S
Cd113 O123 2.240 . S
Cd114 O115 2.240 . S
Cd114 O122 2.223 . S
Cd114 O124 2.297 . S
Cd114 O125 2.439 . S
O115 Cd114 2.240 . S
O115 C120 1.279 . S
O116 Cd113 2.297 . S
O116 C118 1.247 . S
O117 Cd113 2.439 . S
O117 C118 1.208 . S
C118 O116 1.247 . S
C118 O117 1.208 . S
C119 O124 1.247 . S
C119 O125 1.208 . S
C120 O112 1.315 . S
C120 O115 1.279 . S
C121 O122 1.315 . S
C121 O123 1.279 . S
O122 Cd114 2.223 . S
O122 C121 1.315 . S
O123 Cd113 2.240 . S
O123 C121 1.279 . S
O124 Cd114 2.297 . S
O124 C119 1.247 . S
O125 Cd114 2.439 . S
O125 C119 1.208 . S
O126 Cd127 2.223 . S
O126 C134 1.315 . S
Cd127 O126 2.223 . S
Cd127 O130 2.297 . S
Cd127 O131 2.439 . S
Cd127 O137 2.240 . S
Cd128 O129 2.240 . S
Cd128 O136 2.223 . S
Cd128 O138 2.297 . S
Cd128 O139 2.439 . S
O129 Cd128 2.240 . S
O129 C134 1.279 . S
O130 Cd127 2.297 . S
O130 C132 1.247 . S
O131 Cd127 2.439 . S
O131 C132 1.208 . S
C132 O130 1.247 . S
C132 O131 1.208 . S
C133 O138 1.247 . S
C133 O139 1.208 . S
C134 O126 1.315 . S
C134 O129 1.279 . S
C135 O136 1.315 . S
C135 O137 1.279 . S
O136 Cd128 2.223 . S
O136 C135 1.315 . S
O137 Cd127 2.240 . S
O137 C135 1.279 . S
O138 Cd128 2.297 . S
O138 C133 1.247 . S
O139 Cd128 2.439 . S
O139 C133 1.208 . S
O140 Cd141 2.223 . S
O140 C148 1.315 . S
Cd141 O140 2.223 . S
Cd141 O144 2.297 . S
Cd141 O145 2.439 . S
Cd141 O151 2.240 . S
Cd142 O143 2.240 . S
Cd142 O150 2.223 . S
Cd142 O152 2.297 . S
Cd142 O153 2.439 . S
O143 Cd142 2.240 . S
O143 C148 1.279 . S
O144 Cd141 2.297 . S
O144 C146 1.247 . S
O145 Cd141 2.439 . S
O145 C146 1.208 . S
C146 O144 1.247 . S
C146 O145 1.208 . S
C147 O152 1.247 . S
C147 O153 1.208 . S
C148 O140 1.315 . S
C148 O143 1.279 . S
C149 O150 1.315 . S
C149 O151 1.279 . S
O150 Cd142 2.223 . S
O150 C149 1.315 . S
O151 Cd141 2.240 . S
O151 C149 1.279 . S
O152 Cd142 2.297 . S
O152 C147 1.247 . S
O153 Cd142 2.439 . S
O153 C147 1.208 . S
O154 Cd155 2.223 . S
O154 C162 1.315 . S
Cd155 O154 2.223 . S
Cd155 O158 2.297 . S
Cd155 O159 2.439 . S
Cd155 O165 2.240 . S
Cd156 O157 2.240 . S
Cd156 O164 2.223 . S
Cd156 O166 2.297 . S
Cd156 O167 2.439 . S
O157 Cd156 2.240 . S
O157 C162 1.279 . S
O158 Cd155 2.297 . S
O158 C160 1.247 . S
O159 Cd155 2.439 . S
O159 C160 1.208 . S
C160 O158 1.247 . S
C160 O159 1.208 . S
C161 O166 1.247 . S
C161 O167 1.208 . S
C162 O154 1.315 . S
C162 O157 1.279 . S
C163 O164 1.315 . S
C163 O165 1.279 . S
O164 Cd156 2.223 . S
O164 C163 1.315 . S
O165 Cd155 2.240 . S
O165 C163 1.279 . S
O166 Cd156 2.297 . S
O166 C161 1.247 . S
O167 Cd156 2.439 . S
O167 C161 1.208 . S
O168 Cd169 2.223 . S
O168 C176 1.315 . S
Cd169 O168 2.223 . S
Cd169 O172 2.297 . S
Cd169 O173 2.439 . S
Cd169 O179 2.240 . S
Cd170 O171 2.240 . S
Cd170 O178 2.223 . S
Cd170 O180 2.297 . S
Cd170 O181 2.439 . S
O171 Cd170 2.240 . S
O171 C176 1.279 . S
O172 Cd169 2.297 . S
O172 C174 1.247 . S
O173 Cd169 2.439 . S
O173 C174 1.208 . S
C174 O172 1.247 . S
C174 O173 1.208 . S
C175 O180 1.247 . S
C175 O181 1.208 . S
C176 O168 1.315 . S
C176 O171 1.279 . S
C177 O178 1.315 . S
C177 O179 1.279 . S
O178 Cd170 2.223 . S
O178 C177 1.315 . S
O179 Cd169 2.240 . S
O179 C177 1.279 . S
O180 Cd170 2.297 . S
O180 C175 1.247 . S
O181 Cd170 2.439 . S
O181 C175 1.208 . S
O182 Cd183 2.223 . S
O182 C190 1.315 . S
Cd183 O182 2.223 . S
Cd183 O186 2.297 . S
Cd183 O187 2.439 . S
Cd183 O193 2.240 . S
Cd184 O185 2.240 . S
Cd184 O192 2.223 . S
Cd184 O194 2.297 . S
Cd184 O195 2.439 . S
O185 Cd184 2.240 . S
O185 C190 1.279 . S
O186 Cd183 2.297 . S
O186 C188 1.247 . S
O187 Cd183 2.439 . S
O187 C188 1.208 . S
C188 O186 1.247 . S
C188 O187 1.208 . S
C189 O194 1.247 . S
C189 O195 1.208 . S
C190 O182 1.315 . S
C190 O185 1.279 . S
C191 O192 1.315 . S
C191 O193 1.279 . S
O192 Cd184 2.223 . S
O192 C191 1.315 . S
O193 Cd183 2.240 . S
O193 C191 1.279 . S
O194 Cd184 2.297 . S
O194 C189 1.247 . S
O195 Cd184 2.439 . S
O195 C189 1.208 . S
O196 Cd197 2.223 . S
O196 C204 1.315 . S
Cd197 O196 2.223 . S
Cd197 O200 2.297 . S
Cd197 O201 2.439 . S
Cd197 O207 2.240 . S
Cd198 O199 2.240 . S
Cd198 O206 2.223 . S
Cd198 O208 2.297 . S
Cd198 O209 2.439 . S
O199 Cd198 2.240 . S
O199 C204 1.279 . S
O200 Cd197 2.297 . S
O200 C202 1.247 . S
O201 Cd197 2.439 . S
O201 C202 1.208 . S
C202 O200 1.247 . S
C202 O201 1.208 . S
C203 O208 1.247 . S
C203 O209 1.208 . S
C204 O196 1.315 . S
C204 O199 1.279 . S
C205 O206 1.315 . S
C205 O207 1.279 . S
O206 Cd198 2.223 . S
O206 C205 1.315 . S
O207 Cd197 2.240 . S
O207 C205 1.279 . S
O208 Cd198 2.297 . S
O208 C203 1.247 . S
O209 Cd198 2.439 . S
O209 C203 1.208 . S
O210 Cd211 2.223 . S
O210 C218 1.315 . S
Cd211 O210 2.223 . S
Cd211 O214 2.297 . S
Cd211 O215 2.439 . S
Cd211 O221 2.240 . S
Cd212 O213 2.240 . S
Cd212 O220 2.223 . S
Cd212 O222 2.297 . S
Cd212 O223 2.439 . S
O213 Cd212 2.240 . S
O213 C218 1.279 . S
O214 Cd211 2.297 . S
O214 C216 1.247 . S
O215 Cd211 2.439 . S
O215 C216 1.208 . S
C216 O214 1.247 . S
C216 O215 1.208 . S
C217 O222 1.247 . S
C217 O223 1.208 . S
C218 O210 1.315 . S
C218 O213 1.279 . S
C219 O220 1.315 . S
C219 O221 1.279 . S
O220 Cd212 2.223 . S
O220 C219 1.315 . S
O221 Cd211 2.240 . S
O221 C219 1.279 . S
O222 Cd212 2.297 . S
O222 C217 1.247 . S
O223 Cd212 2.439 . S
O223 C217 1.208 . S
O224 Cd225 2.223 . S
O224 C232 1.315 . S
Cd225 O224 2.223 . S
Cd225 O228 2.297 . S
Cd225 O229 2.439 . S
Cd225 O235 2.240 . S
Cd226 O227 2.240 . S
Cd226 O234 2.223 . S
Cd226 O236 2.297 . S
Cd226 O237 2.439 . S
O227 Cd226 2.240 . S
O227 C232 1.279 . S
O228 Cd225 2.297 . S
O228 C230 1.247 . S
O229 Cd225 2.439 . S
O229 C230 1.208 . S
C230 O228 1.247 . S
C230 O229 1.208 . S
C231 O236 1.247 . S
C231 O237 1.208 . S
C232 O224 1.315 . S
C232 O227 1.279 . S
C233 O234 1.315 . S
C233 O235 1.279 . S
O234 Cd226 2.223 . S
O234 C233 1.315 . S
O235 Cd225 2.240 . S
O235 C233 1.279 . S
O236 Cd226 2.297 . S
O236 C231 1.247 . S
O237 Cd226 2.439 . S
O237 C231 1.208 . S
O238 Cd239 2.223 . S
O238 C246 1.315 . S
Cd239 O238 2.223 . S
Cd239 O242 2.297 . S
Cd239 O243 2.439 . S
Cd239 O249 2.240 . S
Cd240 O241 2.240 . S
Cd240 O248 2.223 . S
Cd240 O250 2.297 . S
Cd240 O251 2.439 . S
O241 Cd240 2.240 . S
O241 C246 1.279 . S
O242 Cd239 2.297 . S
O242 C244 1.247 . S
O243 Cd239 2.439 . S
O243 C244 1.208 . S
C244 O242 1.247 . S
C244 O243 1.208 . S
C245 O250 1.247 . S
C245 O251 1.208 . S
C246 O238 1.315 . S
C246 O241 1.279 . S
C247 O248 1.315 . S
C247 O249 1.279 . S
O248 Cd240 2.223 . S
O248 C247 1.315 . S
O249 Cd239 2.240 . S
O249 C247 1.279 . S
O250 Cd240 2.297 . S
O250 C245 1.247 . S
O251 Cd240 2.439 . S
O251 C245 1.208 . S
O252 Cd253 2.223 . S
O252 C260 1.315 . S
Cd253 O252 2.223 . S
Cd253 O256 2.297 . S
Cd253 O257 2.439 . S
Cd253 O263 2.240 . S
Cd254 O255 2.240 . S
Cd254 O262 2.223 . S
Cd254 O264 2.297 . S
Cd254 O265 2.439 . S
O255 Cd254 2.240 . S
O255 C260 1.279 . S
O256 Cd253 2.297 . S
O256 C258 1.247 . S
O257 Cd253 2.439 . S
O257 C258 1.208 . S
C258 O256 1.247 . S
C258 O257 1.208 . S
C259 O264 1.247 . S
C259 O265 1.208 . S
C260 O252 1.315 . S
C260 O255 1.279 . S
C261 O262 1.315 . S
C261 O263 1.279 . S
O262 Cd254 2.223 . S
O262 C261 1.315 . S
O263 Cd253 2.240 . S
O263 C261 1.279 . S
O264 Cd254 2.297 . S
O264 C259 1.247 . S
O265 Cd254 2.439 . S
O265 C259 1.208 . S
O266 Cd267 2.223 . S
O266 C274 1.315 . S
Cd267 O266 2.223 . S
Cd267 O270 2.297 . S
Cd267 O271 2.439 . S
Cd267 O277 2.240 . S
Cd268 O269 2.240 . S
Cd268 O276 2.223 . S
Cd268 O278 2.297 . S
Cd268 O279 2.439 . S
O269 Cd268 2.240 . S
O269 C274 1.279 . S
O270 Cd267 2.297 . S
O270 C272 1.247 . S
O271 Cd267 2.439 . S
O271 C272 1.208 . S
C272 O270 1.247 . S
C272 O271 1.208 . S
C273 O278 1.247 . S
C273 O279 1.208 . S
C274 O266 1.315 . S
C274 O269 1.279 . S
C275 O276 1.315 . S
C275 O277 1.279 . S
O276 Cd268 2.223 . S
O276 C275 1.315 . S
O277 Cd267 2.240 . S
O277 C275 1.279 . S
O278 Cd268 2.297 . S
O278 C273 1.247 . S
O279 Cd268 2.439 . S
O279 C273 1.208 . S
O280 Cd281 2.223 . S
O280 C288 1.315 . S
Cd281 O280 2.223 . S
Cd281 O284 2.297 . S
Cd281 O285 2.439 . S
Cd281 O291 2.240 . S
Cd282 O283 2.240 . S
Cd282 O290 2.223 . S
Cd282 O292 2.297 . S
Cd282 O293 2.439 . S
O283 Cd282 2.240 . S
O283 C288 1.279 . S
O284 Cd281 2.297 . S
O284 C286 1.247 . S
O285 Cd281 2.439 . S
O285 C286 1.208 . S
C286 O284 1.247 . S
C286 O285 1.208 . S
C287 O292 1.247 . S
C287 O293 1.208 . S
C288 O280 1.315 . S
C288 O283 1.279 . S
C289 O290 1.315 . S
C289 O291 1.279 . S
O290 Cd282 2.223 . S
O290 C289 1.315 . S
O291 Cd281 2.240 . S
O291 C289 1.279 . S
O292 Cd282 2.297 . S
O292 C287 1.247 . S
O293 Cd282 2.439 . S
O293 C287 1.208 . S
O294 Cd295 2.223 . S
O294 C302 1.315 . S
Cd295 O294 2.223 . S
Cd295 O298 2.297 . S
Cd295 O299 2.439 . S
Cd295 O305 2.240 . S
Cd296 O297 2.240 . S
Cd296 O304 2.223 . S
Cd296 O306 2.297 . S
Cd296 O307 2.439 . S
O297 Cd296 2.240 . S
O297 C302 1.279 . S
O298 Cd295 2.297 . S
O298 C300 1.247 . S
O299 Cd295 2.439 . S
O299 C300 1.208 . S
C300 O298 1.247 . S
C300 O299 1.208 . S
C301 O306 1.247 . S
C301 O307 1.208 . S
C302 O294 1.315 . S
C302 O297 1.279 . S
C303 O304 1.315 . S
C303 O305 1.279 . S
O304 Cd296 2.223 . S
O304 C303 1.315 . S
O305 Cd295 2.240 . S
O305 C303 1.279 . S
O306 Cd296 2.297 . S
O306 C301 1.247 . S
O307 Cd296 2.439 . S
O307 C301 1.208 . S
O308 Cd309 2.223 . S
O308 C316 1.315 . S
Cd309 O308 2.223 . S
Cd309 O312 2.297 . S
Cd309 O313 2.439 . S
Cd309 O319 2.240 . S
Cd310 O311 2.240 . S
Cd310 O318 2.223 . S
Cd310 O320 2.297 . S
Cd310 O321 2.439 . S
O311 Cd310 2.240 . S
O311 C316 1.279 . S
O312 Cd309 2.297 . S
O312 C314 1.247 . S
O313 Cd309 2.439 . S
O313 C314 1.208 . S
C314 O312 1.247 . S
C314 O313 1.208 . S
C315 O320 1.247 . S
C315 O321 1.208 . S
C316 O308 1.315 . S
C316 O311 1.279 . S
C317 O318 1.315 . S
C317 O319 1.279 . S
O318 Cd310 2.223 . S
O318 C317 1.315 . S
O319 Cd309 2.240 . S
O319 C317 1.279 . S
O320 Cd310 2.297 . S
O320 C315 1.247 . S
O321 Cd310 2.439 . S
O321 C315 1.208 . S
O322 Cd323 2.223 . S
O322 C330 1.315 . S
Cd323 O322 2.223 . S
Cd323 O326 2.297 . S
Cd323 O327 2.439 . S
Cd323 O333 2.240 . S
Cd324 O325 2.240 . S
Cd324 O332 2.223 . S
Cd324 O334 2.297 . S
Cd324 O335 2.439 . S
O325 Cd324 2.240 . S
O325 C330 1.279 . S
O326 Cd323 2.297 . S
O326 C328 1.247 . S
O327 Cd323 2.439 . S
O327 C328 1.208 . S
C328 O326 1.247 . S
C328 O327 1.208 . S
C329 O334 1.247 . S
C329 O335 1.208 . S
C330 O322 1.315 . S
C330 O325 1.279 . S
C331 O332 1.315 . S
C331 O333 1.279 . S
O332 Cd324 2.223 . S
O332 C331 1.315 . S
O333 Cd323 2.240 . S
O333 C331 1.279 . S
O334 Cd324 2.297 . S
O334 C329 1.247 . S
O335 Cd324 2.439 . S
O335 C329 1.208 . S
O336 Cd337 2.223 . S
O336 C344 1.315 . S
Cd337 O336 2.223 . S
Cd337 O340 2.297 . S
Cd337 O341 2.439 . S
Cd337 O347 2.240 . S
Cd338 O339 2.240 . S
Cd338 O346 2.223 . S
Cd338 O348 2.297 . S
Cd338 O349 2.439 . S
O339 Cd338 2.240 . S
O339 C344 1.279 . S
O340 Cd337 2.297 . S
O340 C342 1.247 . S
O341 Cd337 2.439 . S
O341 C342 1.208 . S
C342 O340 1.247 . S
C342 O341 1.208 . S
C343 O348 1.247 . S
C343 O349 1.208 . S
C344 O336 1.315 . S
C344 O339 1.279 . S
C345 O346 1.315 . S
C345 O347 1.279 . S
O346 Cd338 2.223 . S
O346 C345 1.315 . S
O347 Cd337 2.240 . S
O347 C345 1.279 . S
O348 Cd338 2.297 . S
O348 C343 1.247 . S
O349 Cd338 2.439 . S
O349 C343 1.208 . S
O350 Cd351 2.223 . S
O350 C358 1.315 . S
Cd351 O350 2.223 . S
Cd351 O354 2.297 . S
Cd351 O355 2.439 . S
Cd351 O361 2.240 . S
Cd352 O353 2.240 . S
Cd352 O360 2.223 . S
Cd352 O362 2.297 . S
Cd352 O363 2.439 . S
O353 Cd352 2.240 . S
O353 C358 1.279 . S
O354 Cd351 2.297 . S
O354 C356 1.247 . S
O355 Cd351 2.439 . S
O355 C356 1.208 . S
C356 O354 1.247 . S
C356 O355 1.208 . S
C357 O362 1.247 . S
C357 O363 1.208 . S
C358 O350 1.315 . S
C358 O353 1.279 . S
C359 O360 1.315 . S
C359 O361 1.279 . S
O360 Cd352 2.223 . S
O360 C359 1.315 . S
O361 Cd351 2.240 . S
O361 C359 1.279 . S
O362 Cd352 2.297 . S
O362 C357 1.247 . S
O363 Cd352 2.439 . S
O363 C357 1.208 . S
O364 Cd365 2.223 . S
O364 C372 1.315 . S
Cd365 O364 2.223 . S
Cd365 O368 2.297 . S
Cd365 O369 2.439 . S
Cd365 O375 2.240 . S
Cd366 O367 2.240 . S
Cd366 O374 2.223 . S
Cd366 O376 2.297 . S
Cd366 O377 2.439 . S
O367 Cd366 2.240 . S
O367 C372 1.279 . S
O368 Cd365 2.297 . S
O368 C370 1.247 . S
O369 Cd365 2.439 . S
O369 C370 1.208 . S
C370 O368 1.247 . S
C370 O369 1.208 . S
C371 O376 1.247 . S
C371 O377 1.208 . S
C372 O364 1.315 . S
C372 O367 1.279 . S
C373 O374 1.315 . S
C373 O375 1.279 . S
O374 Cd366 2.223 . S
O374 C373 1.315 . S
O375 Cd365 2.240 . S
O375 C373 1.279 . S
O376 Cd366 2.297 . S
O376 C371 1.247 . S
O377 Cd366 2.439 . S
O377 C371 1.208 . S
O378 Cd379 2.223 . S
O378 C386 1.315 . S
Cd379 O378 2.223 . S
Cd379 O382 2.297 . S
Cd379 O383 2.439 . S
Cd379 O389 2.240 . S
Cd380 O381 2.240 . S
Cd380 O388 2.223 . S
Cd380 O390 2.297 . S
Cd380 O391 2.439 . S
O381 Cd380 2.240 . S
O381 C386 1.279 . S
O382 Cd379 2.297 . S
O382 C384 1.247 . S
O383 Cd379 2.439 . S
O383 C384 1.208 . S
C384 O382 1.247 . S
C384 O383 1.208 . S
C385 O390 1.247 . S
C385 O391 1.208 . S
C386 O378 1.315 . S
C386 O381 1.279 . S
C387 O388 1.315 . S
C387 O389 1.279 . S
O388 Cd380 2.223 . S
O388 C387 1.315 . S
O389 Cd379 2.240 . S
O389 C387 1.279 . S
O390 Cd380 2.297 . S
O390 C385 1.247 . S
O391 Cd380 2.439 . S
O391 C385 1.208 . S
O392 Cd393 2.223 . S
O392 C400 1.315 . S
Cd393 O392 2.223 . S
Cd393 O396 2.297 . S
Cd393 O397 2.439 . S
Cd393 O403 2.240 . S
Cd394 O395 2.240 . S
Cd394 O402 2.223 . S
Cd394 O404 2.297 . S
Cd394 O405 2.439 . S
O395 Cd394 2.240 . S
O395 C400 1.279 . S
O396 Cd393 2.297 . S
O396 C398 1.247 . S
O397 Cd393 2.439 . S
O397 C398 1.208 . S
C398 O396 1.247 . S
C398 O397 1.208 . S
C399 O404 1.247 . S
C399 O405 1.208 . S
C400 O392 1.315 . S
C400 O395 1.279 . S
C401 O402 1.315 . S
C401 O403 1.279 . S
O402 Cd394 2.223 . S
O402 C401 1.315 . S
O403 Cd393 2.240 . S
O403 C401 1.279 . S
O404 Cd394 2.297 . S
O404 C399 1.247 . S
O405 Cd394 2.439 . S
O405 C399 1.208 . S
O406 Cd407 2.223 . S
O406 C414 1.315 . S
Cd407 O406 2.223 . S
Cd407 O410 2.297 . S
Cd407 O411 2.439 . S
Cd407 O417 2.240 . S
Cd408 O409 2.240 . S
Cd408 O416 2.223 . S
Cd408 O418 2.297 . S
Cd408 O419 2.439 . S
O409 Cd408 2.240 . S
O409 C414 1.279 . S
O410 Cd407 2.297 . S
O410 C412 1.247 . S
O411 Cd407 2.439 . S
O411 C412 1.208 . S
C412 O410 1.247 . S
C412 O411 1.208 . S
C413 O418 1.247 . S
C413 O419 1.208 . S
C414 O406 1.315 . S
C414 O409 1.279 . S
C415 O416 1.315 . S
C415 O417 1.279 . S
O416 Cd408 2.223 . S
O416 C415 1.315 . S
O417 Cd407 2.240 . S
O417 C415 1.279 . S
O418 Cd408 2.297 . S
O418 C413 1.247 . S
O419 Cd408 2.439 . S
O419 C413 1.208 . S
O420 Cd421 2.223 . S
O420 C428 1.315 . S
Cd421 O420 2.223 . S
Cd421 O424 2.297 . S
Cd421 O425 2.439 . S
Cd421 O431 2.240 . S
Cd422 O423 2.240 . S
Cd422 O430 2.223 . S
Cd422 O432 2.297 . S
Cd422 O433 2.439 . S
O423 Cd422 2.240 . S
O423 C428 1.279 . S
O424 Cd421 2.297 . S
O424 C426 1.247 . S
O425 Cd421 2.439 . S
O425 C426 1.208 . S
C426 O424 1.247 . S
C426 O425 1.208 . S
C427 O432 1.247 . S
C427 O433 1.208 . S
C428 O420 1.315 . S
C428 O423 1.279 . S
C429 O430 1.315 . S
C429 O431 1.279 . S
O430 Cd422 2.223 . S
O430 C429 1.315 . S
O431 Cd421 2.240 . S
O431 C429 1.279 . S
O432 Cd422 2.297 . S
O432 C427 1.247 . S
O433 Cd422 2.439 . S
O433 C427 1.208 . S
O434 Cd435 2.223 . S
O434 C442 1.315 . S
Cd435 O434 2.223 . S
Cd435 O438 2.297 . S
Cd435 O439 2.439 . S
Cd435 O445 2.240 . S
Cd436 O437 2.240 . S
Cd436 O444 2.223 . S
Cd436 O446 2.297 . S
Cd436 O447 2.439 . S
O437 Cd436 2.240 . S
O437 C442 1.279 . S
O438 Cd435 2.297 . S
O438 C440 1.247 . S
O439 Cd435 2.439 . S
O439 C440 1.208 . S
C440 O438 1.247 . S
C440 O439 1.208 . S
C441 O446 1.247 . S
C441 O447 1.208 . S
C442 O434 1.315 . S
C442 O437 1.279 . S
C443 O444 1.315 . S
C443 O445 1.279 . S
O444 Cd436 2.223 . S
O444 C443 1.315 . S
O445 Cd435 2.240 . S
O445 C443 1.279 . S
O446 Cd436 2.297 . S
O446 C441 1.247 . S
O447 Cd436 2.439 . S
O447 C441 1.208 . S
C448 C449 1.349 . S
C448 C450 1.327 . S
C448 H473 0.950 . S
C449 C448 1.349 . S
C449 C465 1.349 . S
C450 C448 1.327 . S
C450 C469 1.429 . S
C450 H474 0.950 . S
C451 C468 1.574 . S
C451 C470 1.368 . S
C451 H475 0.949 . S
H452 C456 0.949 . S
C453 C454 1.349 . S
C453 C455 1.327 . S
C453 H476 0.950 . S
C454 C453 1.349 . S
C454 C466 1.349 . S
C455 C453 1.327 . S
C455 C471 1.429 . S
C455 H477 0.950 . S
C456 H452 0.949 . S
C456 C464 1.574 . S
C456 C472 1.368 . S
H457 C465 0.950 . S
H458 C463 0.950 . S
H459 C464 0.949 . S
H460 C466 0.950 . S
H461 C467 0.950 . S
H462 C468 0.949 . S
C463 H458 0.950 . S
C463 C465 1.327 . S
C463 C469 1.429 . S
C464 C456 1.574 . S
C464 H459 0.949 . S
C464 C470 1.368 . S
C465 C449 1.349 . S
C465 H457 0.950 . S
C465 C463 1.327 . S
C466 C454 1.349 . S
C466 H460 0.950 . S
C466 C467 1.327 . S
C467 H461 0.950 . S
C467 C466 1.327 . S
C467 C471 1.429 . S
C468 C451 1.574 . S
C468 H462 0.949 . S
C468 C472 1.368 . S
C469 C450 1.429 . S
C469 C463 1.429 . S
C469 C470 1.523 . S
C470 C451 1.368 . S
C470 C464 1.368 . S
C470 C469 1.523 . S
C471 C455 1.429 . S
C471 C467 1.429 . S
C471 C472 1.523 . S
C472 C456 1.368 . S
C472 C468 1.368 . S
C472 C471 1.523 . S
H473 C448 0.950 . S
H474 C450 0.950 . S
H475 C451 0.949 . S
H476 C453 0.950 . S
H477 C455 0.950 . S
C478 C479 1.349 . S
C478 C480 1.327 . S
C478 H503 0.950 . S
C479 C478 1.349 . S
C479 C495 1.349 . S
C480 C478 1.327 . S
C480 C499 1.429 . S
C480 H504 0.950 . S
C481 C498 1.574 1_565 S
C481 C500 1.368 . S
C481 H505 0.949 . S
H482 C486 0.949 . S
C483 C484 1.349 . S
C483 C485 1.327 . S
C483 H506 0.950 . S
C484 C483 1.349 . S
C484 C496 1.349 . S
C485 C483 1.327 . S
C485 C501 1.429 . S
C485 H507 0.950 . S
C486 H482 0.949 . S
C486 C494 1.574 1_545 S
C486 C502 1.368 . S
H487 C495 0.950 . S
H488 C493 0.950 . S
H489 C494 0.949 . S
H490 C496 0.950 . S
H491 C497 0.950 . S
H492 C498 0.949 . S
C493 H488 0.950 . S
C493 C495 1.327 . S
C493 C499 1.429 . S
C494 C486 1.574 1_565 S
C494 H489 0.949 . S
C494 C500 1.368 . S
C495 C479 1.349 . S
C495 H487 0.950 . S
C495 C493 1.327 . S
C496 C484 1.349 . S
C496 H490 0.950 . S
C496 C497 1.327 . S
C497 H491 0.950 . S
C497 C496 1.327 . S
C497 C501 1.429 . S
C498 C481 1.574 1_545 S
C498 H492 0.949 . S
C498 C502 1.368 . S
C499 C480 1.429 . S
C499 C493 1.429 . S
C499 C500 1.523 . S
C500 C481 1.368 . S
C500 C494 1.368 . S
C500 C499 1.523 . S
C501 C485 1.429 . S
C501 C497 1.429 . S
C501 C502 1.523 . S
C502 C486 1.368 . S
C502 C498 1.368 . S
C502 C501 1.523 . S
H503 C478 0.950 . S
H504 C480 0.950 . S
H505 C481 0.949 . S
H506 C483 0.950 . S
H507 C485 0.950 . S
C508 C509 1.349 . S
C508 C510 1.327 . S
C508 H533 0.950 . S
C509 C508 1.349 . S
C509 C525 1.349 . S
C510 C508 1.327 . S
C510 C529 1.429 . S
C510 H534 0.950 . S
C511 C528 1.574 . S
C511 C530 1.368 . S
C511 H535 0.949 . S
H512 C516 0.949 . S
C513 C514 1.349 . S
C513 C515 1.327 . S
C513 H536 0.950 . S
C514 C513 1.349 . S
C514 C526 1.349 . S
C515 C513 1.327 . S
C515 C531 1.429 . S
C515 H537 0.950 . S
C516 H512 0.949 . S
C516 C524 1.574 . S
C516 C532 1.368 . S
H517 C525 0.950 . S
H518 C523 0.950 . S
H519 C524 0.949 . S
H520 C526 0.950 . S
H521 C527 0.950 . S
H522 C528 0.949 . S
C523 H518 0.950 . S
C523 C525 1.327 . S
C523 C529 1.429 . S
C524 C516 1.574 . S
C524 H519 0.949 . S
C524 C530 1.368 1_556 S
C525 C509 1.349 . S
C525 H517 0.950 . S
C525 C523 1.327 . S
C526 C514 1.349 . S
C526 H520 0.950 . S
C526 C527 1.327 . S
C527 H521 0.950 . S
C527 C526 1.327 . S
C527 C531 1.429 . S
C528 C511 1.574 . S
C528 H522 0.949 . S
C528 C532 1.368 1_554 S
C529 C510 1.429 . S
C529 C523 1.429 . S
C529 C530 1.523 . S
C530 C511 1.368 . S
C530 C524 1.368 1_554 S
C530 C529 1.523 . S
C531 C515 1.429 . S
C531 C527 1.429 . S
C531 C532 1.523 . S
C532 C516 1.368 . S
C532 C528 1.368 1_556 S
C532 C531 1.523 . S
H533 C508 0.950 . S
H534 C510 0.950 . S
H535 C511 0.949 . S
H536 C513 0.950 . S
H537 C515 0.950 . S
C538 C539 1.349 . S
C538 C540 1.327 . S
C538 H563 0.950 . S
C539 C538 1.349 . S
C539 C555 1.349 . S
C540 C538 1.327 . S
C540 C559 1.429 . S
C540 H564 0.950 . S
C541 C558 1.574 1_545 S
C541 C560 1.368 . S
C541 H565 0.949 . S
H542 C546 0.949 . S
C543 C544 1.349 . S
C543 C545 1.327 . S
C543 H566 0.950 . S
C544 C543 1.349 . S
C544 C556 1.349 . S
C545 C543 1.327 . S
C545 C561 1.429 . S
C545 H567 0.950 . S
C546 H542 0.949 . S
C546 C554 1.574 1_565 S
C546 C562 1.368 . S
H547 C555 0.950 . S
H548 C553 0.950 . S
H549 C554 0.949 . S
H550 C556 0.950 . S
H551 C557 0.950 . S
H552 C558 0.949 . S
C553 H548 0.950 . S
C553 C555 1.327 . S
C553 C559 1.429 . S
C554 C546 1.574 1_545 S
C554 H549 0.949 . S
C554 C560 1.368 . S
C555 C539 1.349 . S
C555 H547 0.950 . S
C555 C553 1.327 . S
C556 C544 1.349 . S
C556 H550 0.950 . S
C556 C557 1.327 . S
C557 H551 0.950 . S
C557 C556 1.327 . S
C557 C561 1.429 . S
C558 C541 1.574 1_565 S
C558 H552 0.949 . S
C558 C562 1.368 . S
C559 C540 1.429 . S
C559 C553 1.429 . S
C559 C560 1.523 . S
C560 C541 1.368 . S
C560 C554 1.368 . S
C560 C559 1.523 . S
C561 C545 1.429 . S
C561 C557 1.429 . S
C561 C562 1.523 . S
C562 C546 1.368 . S
C562 C558 1.368 . S
C562 C561 1.523 . S
H563 C538 0.950 . S
H564 C540 0.950 . S
H565 C541 0.949 . S
H566 C543 0.950 . S
H567 C545 0.950 . S
C568 C569 1.349 . S
C568 C570 1.327 . S
C568 H593 0.950 . S
C569 C568 1.349 . S
C569 C585 1.349 . S
C570 C568 1.327 . S
C570 C589 1.429 . S
C570 H594 0.950 . S
C571 C588 1.574 . S
C571 C590 1.368 . S
C571 H595 0.949 . S
H572 C576 0.949 . S
C573 C574 1.349 . S
C573 C575 1.327 . S
C573 H596 0.950 . S
C574 C573 1.349 . S
C574 C586 1.349 . S
C575 C573 1.327 . S
C575 C591 1.429 . S
C575 H597 0.950 . S
C576 H572 0.949 . S
C576 C584 1.574 . S
C576 C592 1.368 . S
H577 C585 0.950 . S
H578 C583 0.950 . S
H579 C584 0.949 . S
H580 C586 0.950 . S
H581 C587 0.950 . S
H582 C588 0.949 . S
C583 H578 0.950 . S
C583 C585 1.327 . S
C583 C589 1.429 . S
C584 C576 1.574 . S
C584 H579 0.949 . S
C584 C590 1.368 . S
C585 C569 1.349 . S
C585 H577 0.950 . S
C585 C583 1.327 . S
C586 C574 1.349 . S
C586 H580 0.950 . S
C586 C587 1.327 . S
C587 H581 0.950 . S
C587 C586 1.327 . S
C587 C591 1.429 . S
C588 C571 1.574 . S
C588 H582 0.949 . S
C588 C592 1.368 . S
C589 C570 1.429 . S
C589 C583 1.429 . S
C589 C590 1.523 . S
C590 C571 1.368 . S
C590 C584 1.368 . S
C590 C589 1.523 . S
C591 C575 1.429 . S
C591 C587 1.429 . S
C591 C592 1.523 . S
C592 C576 1.368 . S
C592 C588 1.368 . S
C592 C591 1.523 . S
H593 C568 0.950 . S
H594 C570 0.950 . S
H595 C571 0.949 . S
H596 C573 0.950 . S
H597 C575 0.950 . S
C598 C599 1.349 . S
C598 C600 1.327 . S
C598 H623 0.950 . S
C599 C598 1.349 . S
C599 C615 1.349 . S
C600 C598 1.327 . S
C600 C619 1.429 . S
C600 H624 0.950 . S
C601 C618 1.574 1_545 S
C601 C620 1.368 . S
C601 H625 0.949 . S
H602 C606 0.949 . S
C603 C604 1.349 . S
C603 C605 1.327 . S
C603 H626 0.950 . S
C604 C603 1.349 . S
C604 C616 1.349 . S
C605 C603 1.327 . S
C605 C621 1.429 . S
C605 H627 0.950 . S
C606 H602 0.949 . S
C606 C614 1.574 1_565 S
C606 C622 1.368 . S
H607 C615 0.950 . S
H608 C613 0.950 . S
H609 C614 0.949 . S
H610 C616 0.950 . S
H611 C617 0.950 . S
H612 C618 0.949 . S
C613 H608 0.950 . S
C613 C615 1.327 . S
C613 C619 1.429 . S
C614 C606 1.574 1_545 S
C614 H609 0.949 . S
C614 C620 1.368 . S
C615 C599 1.349 . S
C615 H607 0.950 . S
C615 C613 1.327 . S
C616 C604 1.349 . S
C616 H610 0.950 . S
C616 C617 1.327 . S
C617 H611 0.950 . S
C617 C616 1.327 . S
C617 C621 1.429 . S
C618 C601 1.574 1_565 S
C618 H612 0.949 . S
C618 C622 1.368 . S
C619 C600 1.429 . S
C619 C613 1.429 . S
C619 C620 1.523 . S
C620 C601 1.368 . S
C620 C614 1.368 . S
C620 C619 1.523 . S
C621 C605 1.429 . S
C621 C617 1.429 . S
C621 C622 1.523 . S
C622 C606 1.368 . S
C622 C618 1.368 . S
C622 C621 1.523 . S
H623 C598 0.950 . S
H624 C600 0.950 . S
H625 C601 0.949 . S
H626 C603 0.950 . S
H627 C605 0.950 . S
C628 C629 1.349 . S
C628 C630 1.327 . S
C628 H653 0.950 . S
C629 C628 1.349 . S
C629 C645 1.349 . S
C630 C628 1.327 . S
C630 C649 1.429 . S
C630 H654 0.950 . S
C631 C648 1.574 . S
C631 C650 1.368 . S
C631 H655 0.949 . S
H632 C636 0.949 . S
C633 C634 1.349 . S
C633 C635 1.327 . S
C633 H656 0.950 . S
C634 C633 1.349 . S
C634 C646 1.349 . S
C635 C633 1.327 . S
C635 C651 1.429 . S
C635 H657 0.950 . S
C636 H632 0.949 . S
C636 C644 1.574 . S
C636 C652 1.368 . S
H637 C645 0.950 . S
H638 C643 0.950 . S
H639 C644 0.949 . S
H640 C646 0.950 . S
H641 C647 0.950 . S
H642 C648 0.949 . S
C643 H638 0.950 . S
C643 C645 1.327 . S
C643 C649 1.429 . S
C644 C636 1.574 . S
C644 H639 0.949 . S
C644 C650 1.368 1_554 S
C645 C629 1.349 . S
C645 H637 0.950 . S
C645 C643 1.327 . S
C646 C634 1.349 . S
C646 H640 0.950 . S
C646 C647 1.327 . S
C647 H641 0.950 . S
C647 C646 1.327 . S
C647 C651 1.429 . S
C648 C631 1.574 . S
C648 H642 0.949 . S
C648 C652 1.368 1_556 S
C649 C630 1.429 . S
C649 C643 1.429 . S
C649 C650 1.523 . S
C650 C631 1.368 . S
C650 C644 1.368 1_556 S
C650 C649 1.523 . S
C651 C635 1.429 . S
C651 C647 1.429 . S
C651 C652 1.523 . S
C652 C636 1.368 . S
C652 C648 1.368 1_554 S
C652 C651 1.523 . S
H653 C628 0.950 . S
H654 C630 0.950 . S
H655 C631 0.949 . S
H656 C633 0.950 . S
H657 C635 0.950 . S
C658 C659 1.349 . S
C658 C660 1.327 . S
C658 H683 0.950 . S
C659 C658 1.349 . S
C659 C675 1.349 . S
C660 C658 1.327 . S
C660 C679 1.429 . S
C660 H684 0.950 . S
C661 C678 1.574 1_565 S
C661 C680 1.368 . S
C661 H685 0.949 . S
H662 C666 0.949 . S
C663 C664 1.349 . S
C663 C665 1.327 . S
C663 H686 0.950 . S
C664 C663 1.349 . S
C664 C676 1.349 . S
C665 C663 1.327 . S
C665 C681 1.429 . S
C665 H687 0.950 . S
C666 H662 0.949 . S
C666 C674 1.574 1_545 S
C666 C682 1.368 . S
H667 C675 0.950 . S
H668 C673 0.950 . S
H669 C674 0.949 . S
H670 C676 0.950 . S
H671 C677 0.950 . S
H672 C678 0.949 . S
C673 H668 0.950 . S
C673 C675 1.327 . S
C673 C679 1.429 . S
C674 C666 1.574 1_565 S
C674 H669 0.949 . S
C674 C680 1.368 . S
C675 C659 1.349 . S
C675 H667 0.950 . S
C675 C673 1.327 . S
C676 C664 1.349 . S
C676 H670 0.950 . S
C676 C677 1.327 . S
C677 H671 0.950 . S
C677 C676 1.327 . S
C677 C681 1.429 . S
C678 C661 1.574 1_545 S
C678 H672 0.949 . S
C678 C682 1.368 . S
C679 C660 1.429 . S
C679 C673 1.429 . S
C679 C680 1.523 . S
C680 C661 1.368 . S
C680 C674 1.368 . S
C680 C679 1.523 . S
C681 C665 1.429 . S
C681 C677 1.429 . S
C681 C682 1.523 . S
C682 C666 1.368 . S
C682 C678 1.368 . S
C682 C681 1.523 . S
H683 C658 0.950 . S
H684 C660 0.950 . S
H685 C661 0.949 . S
H686 C663 0.950 . S
H687 C665 0.950 . S
C688 C689 1.349 . S
C688 C690 1.327 . S
C688 H713 0.950 . S
C689 C688 1.349 . S
C689 C705 1.349 . S
C690 C688 1.327 . S
C690 C709 1.429 . S
C690 H714 0.950 . S
C691 C708 1.574 . S
C691 C710 1.368 . S
C691 H715 0.949 . S
H692 C696 0.949 . S
C693 C694 1.349 . S
C693 C695 1.327 . S
C693 H716 0.950 . S
C694 C693 1.349 . S
C694 C706 1.349 . S
C695 C693 1.327 . S
C695 C711 1.429 . S
C695 H717 0.950 . S
C696 H692 0.949 . S
C696 C704 1.574 . S
C696 C712 1.368 . S
H697 C705 0.950 . S
H698 C703 0.950 . S
H699 C704 0.949 . S
H700 C706 0.950 . S
H701 C707 0.950 . S
H702 C708 0.949 . S
C703 H698 0.950 . S
C703 C705 1.327 . S
C703 C709 1.429 . S
C704 C696 1.574 . S
C704 H699 0.949 . S
C704 C710 1.368 1_554 S
C705 C689 1.349 . S
C705 H697 0.950 . S
C705 C703 1.327 . S
C706 C694 1.349 . S
C706 H700 0.950 . S
C706 C707 1.327 . S
C707 H701 0.950 . S
C707 C706 1.327 . S
C707 C711 1.429 . S
C708 C691 1.574 . S
C708 H702 0.949 . S
C708 C712 1.368 1_556 S
C709 C690 1.429 . S
C709 C703 1.429 . S
C709 C710 1.523 . S
C710 C691 1.368 . S
C710 C704 1.368 1_556 S
C710 C709 1.523 . S
C711 C695 1.429 . S
C711 C707 1.429 . S
C711 C712 1.523 . S
C712 C696 1.368 . S
C712 C708 1.368 1_554 S
C712 C711 1.523 . S
H713 C688 0.950 . S
H714 C690 0.950 . S
H715 C691 0.949 . S
H716 C693 0.950 . S
H717 C695 0.950 . S
C718 C719 1.349 . S
C718 C720 1.327 . S
C718 H743 0.950 . S
C719 C718 1.349 . S
C719 C735 1.349 . S
C720 C718 1.327 . S
C720 C739 1.429 . S
C720 H744 0.950 . S
C721 C738 1.574 . S
C721 C740 1.368 . S
C721 H745 0.949 . S
H722 C726 0.949 . S
C723 C724 1.349 . S
C723 C725 1.327 . S
C723 H746 0.950 . S
C724 C723 1.349 . S
C724 C736 1.349 . S
C725 C723 1.327 . S
C725 C741 1.429 . S
C725 H747 0.950 . S
C726 H722 0.949 . S
C726 C734 1.574 . S
C726 C742 1.368 . S
H727 C735 0.950 . S
H728 C733 0.950 . S
H729 C734 0.949 . S
H730 C736 0.950 . S
H731 C737 0.950 . S
H732 C738 0.949 . S
C733 H728 0.950 . S
C733 C735 1.327 . S
C733 C739 1.429 . S
C734 C726 1.574 . S
C734 H729 0.949 . S
C734 C740 1.368 . S
C735 C719 1.349 . S
C735 H727 0.950 . S
C735 C733 1.327 . S
C736 C724 1.349 . S
C736 H730 0.950 . S
C736 C737 1.327 . S
C737 H731 0.950 . S
C737 C736 1.327 . S
C737 C741 1.429 . S
C738 C721 1.574 . S
C738 H732 0.949 . S
C738 C742 1.368 . S
C739 C720 1.429 . S
C739 C733 1.429 . S
C739 C740 1.523 . S
C740 C721 1.368 . S
C740 C734 1.368 . S
C740 C739 1.523 . S
C741 C725 1.429 . S
C741 C737 1.429 . S
C741 C742 1.523 . S
C742 C726 1.368 . S
C742 C738 1.368 . S
C742 C741 1.523 . S
H743 C718 0.950 . S
H744 C720 0.950 . S
H745 C721 0.949 . S
H746 C723 0.950 . S
H747 C725 0.950 . S
C748 C749 1.349 . S
C748 C750 1.327 . S
C748 H773 0.950 . S
C749 C748 1.349 . S
C749 C765 1.349 . S
C750 C748 1.327 . S
C750 C769 1.429 . S
C750 H774 0.950 . S
C751 C768 1.574 . S
C751 C770 1.368 . S
C751 H775 0.949 . S
H752 C756 0.949 . S
C753 C754 1.349 . S
C753 C755 1.327 . S
C753 H776 0.950 . S
C754 C753 1.349 . S
C754 C766 1.349 . S
C755 C753 1.327 . S
C755 C771 1.429 . S
C755 H777 0.950 . S
C756 H752 0.949 . S
C756 C764 1.574 . S
C756 C772 1.368 . S
H757 C765 0.950 . S
H758 C763 0.950 . S
H759 C764 0.949 . S
H760 C766 0.950 . S
H761 C767 0.950 . S
H762 C768 0.949 . S
C763 H758 0.950 . S
C763 C765 1.327 . S
C763 C769 1.429 . S
C764 C756 1.574 . S
C764 H759 0.949 . S
C764 C770 1.368 . S
C765 C749 1.349 . S
C765 H757 0.950 . S
C765 C763 1.327 . S
C766 C754 1.349 . S
C766 H760 0.950 . S
C766 C767 1.327 . S
C767 H761 0.950 . S
C767 C766 1.327 . S
C767 C771 1.429 . S
C768 C751 1.574 . S
C768 H762 0.949 . S
C768 C772 1.368 . S
C769 C750 1.429 . S
C769 C763 1.429 . S
C769 C770 1.523 . S
C770 C751 1.368 . S
C770 C764 1.368 . S
C770 C769 1.523 . S
C771 C755 1.429 . S
C771 C767 1.429 . S
C771 C772 1.523 . S
C772 C756 1.368 . S
C772 C768 1.368 . S
C772 C771 1.523 . S
H773 C748 0.950 . S
H774 C750 0.950 . S
H775 C751 0.949 . S
H776 C753 0.950 . S
H777 C755 0.950 . S
C778 C779 1.349 . S
C778 C780 1.327 . S
C778 H803 0.950 . S
C779 C778 1.349 . S
C779 C795 1.349 . S
C780 C778 1.327 . S
C780 C799 1.429 . S
C780 H804 0.950 . S
C781 C798 1.574 . S
C781 C800 1.368 . S
C781 H805 0.949 . S
H782 C786 0.949 . S
C783 C784 1.349 . S
C783 C785 1.327 . S
C783 H806 0.950 . S
C784 C783 1.349 . S
C784 C796 1.349 . S
C785 C783 1.327 . S
C785 C801 1.429 . S
C785 H807 0.950 . S
C786 H782 0.949 . S
C786 C794 1.574 . S
C786 C802 1.368 . S
H787 C795 0.950 . S
H788 C793 0.950 . S
H789 C794 0.949 . S
H790 C796 0.950 . S
H791 C797 0.950 . S
H792 C798 0.949 . S
C793 H788 0.950 . S
C793 C795 1.327 . S
C793 C799 1.429 . S
C794 C786 1.574 . S
C794 H789 0.949 . S
C794 C800 1.368 . S
C795 C779 1.349 . S
C795 H787 0.950 . S
C795 C793 1.327 . S
C796 C784 1.349 . S
C796 H790 0.950 . S
C796 C797 1.327 . S
C797 H791 0.950 . S
C797 C796 1.327 . S
C797 C801 1.429 . S
C798 C781 1.574 . S
C798 H792 0.949 . S
C798 C802 1.368 . S
C799 C780 1.429 . S
C799 C793 1.429 . S
C799 C800 1.523 . S
C800 C781 1.368 . S
C800 C794 1.368 . S
C800 C799 1.523 . S
C801 C785 1.429 . S
C801 C797 1.429 . S
C801 C802 1.523 . S
C802 C786 1.368 . S
C802 C798 1.368 . S
C802 C801 1.523 . S
H803 C778 0.950 . S
H804 C780 0.950 . S
H805 C781 0.949 . S
H806 C783 0.950 . S
H807 C785 0.950 . S
C808 C809 1.349 . S
C808 C810 1.327 . S
C808 H833 0.950 . S
C809 C808 1.349 . S
C809 C825 1.349 . S
C810 C808 1.327 . S
C810 C829 1.429 . S
C810 H834 0.950 . S
C811 C828 1.574 . S
C811 C830 1.368 1_554 S
C811 H835 0.949 . S
H812 C816 0.949 . S
C813 C814 1.349 . S
C813 C815 1.327 . S
C813 H836 0.950 . S
C814 C813 1.349 . S
C814 C826 1.349 . S
C815 C813 1.327 . S
C815 C831 1.429 . S
C815 H837 0.950 . S
C816 H812 0.949 . S
C816 C824 1.574 . S
C816 C832 1.368 1_556 S
H817 C825 0.950 . S
H818 C823 0.950 . S
H819 C824 0.949 . S
H820 C826 0.950 . S
H821 C827 0.950 . S
H822 C828 0.949 . S
C823 H818 0.950 . S
C823 C825 1.327 . S
C823 C829 1.429 . S
C824 C816 1.574 . S
C824 H819 0.949 . S
C824 C830 1.368 . S
C825 C809 1.349 . S
C825 H817 0.950 . S
C825 C823 1.327 . S
C826 C814 1.349 . S
C826 H820 0.950 . S
C826 C827 1.327 . S
C827 H821 0.950 . S
C827 C826 1.327 . S
C827 C831 1.429 . S
C828 C811 1.574 . S
C828 H822 0.949 . S
C828 C832 1.368 . S
C829 C810 1.429 . S
C829 C823 1.429 . S
C829 C830 1.523 . S
C830 C811 1.368 1_556 S
C830 C824 1.368 . S
C830 C829 1.523 . S
C831 C815 1.429 . S
C831 C827 1.429 . S
C831 C832 1.523 . S
C832 C816 1.368 1_554 S
C832 C828 1.368 . S
C832 C831 1.523 . S
H833 C808 0.950 . S
H834 C810 0.950 . S
H835 C811 0.949 . S
H836 C813 0.950 . S
H837 C815 0.950 . S
C838 C839 1.349 . S
C838 C840 1.327 . S
C838 H863 0.950 . S
C839 C838 1.349 . S
C839 C855 1.349 . S
C840 C838 1.327 . S
C840 C859 1.429 . S
C840 H864 0.950 . S
C841 C858 1.574 . S
C841 C860 1.368 . S
C841 H865 0.949 . S
H842 C846 0.949 . S
C843 C844 1.349 . S
C843 C845 1.327 . S
C843 H866 0.950 . S
C844 C843 1.349 . S
C844 C856 1.349 . S
C845 C843 1.327 . S
C845 C861 1.429 . S
C845 H867 0.950 . S
C846 H842 0.949 . S
C846 C854 1.574 . S
C846 C862 1.368 . S
H847 C855 0.950 . S
H848 C853 0.950 . S
H849 C854 0.949 . S
H850 C856 0.950 . S
H851 C857 0.950 . S
H852 C858 0.949 . S
C853 H848 0.950 . S
C853 C855 1.327 . S
C853 C859 1.429 . S
C854 C846 1.574 . S
C854 H849 0.949 . S
C854 C860 1.368 . S
C855 C839 1.349 . S
C855 H847 0.950 . S
C855 C853 1.327 . S
C856 C844 1.349 . S
C856 H850 0.950 . S
C856 C857 1.327 . S
C857 H851 0.950 . S
C857 C856 1.327 . S
C857 C861 1.429 . S
C858 C841 1.574 . S
C858 H852 0.949 . S
C858 C862 1.368 . S
C859 C840 1.429 . S
C859 C853 1.429 . S
C859 C860 1.523 . S
C860 C841 1.368 . S
C860 C854 1.368 . S
C860 C859 1.523 . S
C861 C845 1.429 . S
C861 C857 1.429 . S
C861 C862 1.523 . S
C862 C846 1.368 . S
C862 C858 1.368 . S
C862 C861 1.523 . S
H863 C838 0.950 . S
H864 C840 0.950 . S
H865 C841 0.949 . S
H866 C843 0.950 . S
H867 C845 0.950 . S
C868 C869 1.349 . S
C868 C870 1.327 . S
C868 H893 0.950 . S
C869 C868 1.349 . S
C869 C885 1.349 . S
C870 C868 1.327 . S
C870 C889 1.429 . S
C870 H894 0.950 . S
C871 C888 1.574 . S
C871 C890 1.368 . S
C871 H895 0.949 . S
H872 C876 0.949 . S
C873 C874 1.349 . S
C873 C875 1.327 . S
C873 H896 0.950 . S
C874 C873 1.349 . S
C874 C886 1.349 . S
C875 C873 1.327 . S
C875 C891 1.429 . S
C875 H897 0.950 . S
C876 H872 0.949 . S
C876 C884 1.574 . S
C876 C892 1.368 . S
H877 C885 0.950 . S
H878 C883 0.950 . S
H879 C884 0.949 . S
H880 C886 0.950 . S
H881 C887 0.950 . S
H882 C888 0.949 . S
C883 H878 0.950 . S
C883 C885 1.327 . S
C883 C889 1.429 . S
C884 C876 1.574 . S
C884 H879 0.949 . S
C884 C890 1.368 . S
C885 C869 1.349 . S
C885 H877 0.950 . S
C885 C883 1.327 . S
C886 C874 1.349 . S
C886 H880 0.950 . S
C886 C887 1.327 . S
C887 H881 0.950 . S
C887 C886 1.327 . S
C887 C891 1.429 . S
C888 C871 1.574 . S
C888 H882 0.949 . S
C888 C892 1.368 . S
C889 C870 1.429 . S
C889 C883 1.429 . S
C889 C890 1.523 . S
C890 C871 1.368 . S
C890 C884 1.368 . S
C890 C889 1.523 . S
C891 C875 1.429 . S
C891 C887 1.429 . S
C891 C892 1.523 . S
C892 C876 1.368 . S
C892 C888 1.368 . S
C892 C891 1.523 . S
H893 C868 0.950 . S
H894 C870 0.950 . S
H895 C871 0.949 . S
H896 C873 0.950 . S
H897 C875 0.950 . S
C898 C899 1.349 . S
C898 C900 1.327 . S
C898 H923 0.950 . S
C899 C898 1.349 . S
C899 C915 1.349 . S
C900 C898 1.327 . S
C900 C919 1.429 . S
C900 H924 0.950 . S
C901 C918 1.574 . S
C901 C920 1.368 . S
C901 H925 0.949 . S
H902 C906 0.949 . S
C903 C904 1.349 . S
C903 C905 1.327 . S
C903 H926 0.950 . S
C904 C903 1.349 . S
C904 C916 1.349 . S
C905 C903 1.327 . S
C905 C921 1.429 . S
C905 H927 0.950 . S
C906 H902 0.949 . S
C906 C914 1.574 . S
C906 C922 1.368 . S
H907 C915 0.950 . S
H908 C913 0.950 . S
H909 C914 0.949 . S
H910 C916 0.950 . S
H911 C917 0.950 . S
H912 C918 0.949 . S
C913 H908 0.950 . S
C913 C915 1.327 . S
C913 C919 1.429 . S
C914 C906 1.574 . S
C914 H909 0.949 . S
C914 C920 1.368 . S
C915 C899 1.349 . S
C915 H907 0.950 . S
C915 C913 1.327 . S
C916 C904 1.349 . S
C916 H910 0.950 . S
C916 C917 1.327 . S
C917 H911 0.950 . S
C917 C916 1.327 . S
C917 C921 1.429 . S
C918 C901 1.574 . S
C918 H912 0.949 . S
C918 C922 1.368 . S
C919 C900 1.429 . S
C919 C913 1.429 . S
C919 C920 1.523 . S
C920 C901 1.368 . S
C920 C914 1.368 . S
C920 C919 1.523 . S
C921 C905 1.429 . S
C921 C917 1.429 . S
C921 C922 1.523 . S
C922 C906 1.368 . S
C922 C918 1.368 . S
C922 C921 1.523 . S
H923 C898 0.950 . S
H924 C900 0.950 . S
H925 C901 0.949 . S
H926 C903 0.950 . S
H927 C905 0.950 . S
C928 C929 1.351 . S
C928 C930 1.327 . S
C928 H953 0.950 . S
C929 C928 1.351 . S
C929 C945 1.349 . S
C930 C928 1.327 . S
C930 C949 1.429 . S
C930 H954 0.950 . S
C931 C948 1.574 . S
C931 C950 1.368 . S
C931 H955 0.949 . S
H932 C936 0.949 . S
C933 C934 1.349 . S
C933 C935 1.327 . S
C933 H956 0.950 . S
C934 C933 1.349 . S
C934 C946 1.349 . S
C935 C933 1.327 . S
C935 C951 1.429 . S
C935 H957 0.950 . S
C936 H932 0.949 . S
C936 C944 1.574 . S
C936 C952 1.368 . S
H937 C945 0.950 1_556 S
H938 C943 0.950 . S
H939 C944 0.949 . S
H940 C946 0.950 . S
H941 C947 0.950 . S
H942 C948 0.949 . S
C943 H938 0.950 . S
C943 C945 1.327 . S
C943 C949 1.429 . S
C944 C936 1.574 . S
C944 H939 0.949 . S
C944 C950 1.368 . S
C945 C929 1.349 . S
C945 H937 0.950 1_554 S
C945 C943 1.327 . S
C946 C934 1.349 . S
C946 H940 0.950 . S
C946 C947 1.327 . S
C947 H941 0.950 . S
C947 C946 1.327 . S
C947 C951 1.429 . S
C948 C931 1.574 . S
C948 H942 0.949 . S
C948 C952 1.368 . S
C949 C930 1.429 . S
C949 C943 1.429 . S
C949 C950 1.523 . S
C950 C931 1.368 . S
C950 C944 1.368 . S
C950 C949 1.523 . S
C951 C935 1.429 . S
C951 C947 1.429 . S
C951 C952 1.523 . S
C952 C936 1.368 . S
C952 C948 1.368 . S
C952 C951 1.523 . S
H953 C928 0.950 . S
H954 C930 0.950 . S
H955 C931 0.949 . S
H956 C933 0.950 . S
H957 C935 0.950 . S
C958 C959 1.349 . S
C958 C960 1.327 . S
C958 H983 0.950 . S
C959 C958 1.349 . S
C959 C975 1.349 . S
C960 C958 1.327 . S
C960 C979 1.429 . S
C960 H984 0.950 . S
C961 C978 1.574 . S
C961 C980 1.368 . S
C961 H985 0.949 . S
H962 C966 0.949 . S
C963 C964 1.349 . S
C963 C965 1.327 . S
C963 H986 0.950 . S
C964 C963 1.349 . S
C964 C976 1.349 . S
C965 C963 1.327 . S
C965 C981 1.429 . S
C965 H987 0.950 . S
C966 H962 0.949 . S
C966 C974 1.574 . S
C966 C982 1.368 . S
H967 C975 0.950 . S
H968 C973 0.950 . S
H969 C974 0.949 . S
H970 C976 0.950 . S
H971 C977 0.950 . S
H972 C978 0.949 . S
C973 H968 0.950 . S
C973 C975 1.327 . S
C973 C979 1.429 . S
C974 C966 1.574 . S
C974 H969 0.949 . S
C974 C980 1.368 . S
C975 C959 1.349 . S
C975 H967 0.950 . S
C975 C973 1.327 . S
C976 C964 1.349 . S
C976 H970 0.950 . S
C976 C977 1.327 . S
C977 H971 0.950 . S
C977 C976 1.327 . S
C977 C981 1.429 . S
C978 C961 1.574 . S
C978 H972 0.949 . S
C978 C982 1.368 . S
C979 C960 1.429 . S
C979 C973 1.429 . S
C979 C980 1.523 . S
C980 C961 1.368 . S
C980 C974 1.368 . S
C980 C979 1.523 . S
C981 C965 1.429 . S
C981 C977 1.429 . S
C981 C982 1.523 . S
C982 C966 1.368 . S
C982 C978 1.368 . S
C982 C981 1.523 . S
H983 C958 0.950 . S
H984 C960 0.950 . S
H985 C961 0.949 . S
H986 C963 0.950 . S
H987 C965 0.950 . S
C988 C989 1.349 . S
C988 C990 1.327 . S
C988 H1013 0.950 . S
C989 C988 1.349 . S
C989 C1005 1.349 . S
C990 C988 1.327 . S
C990 C1009 1.429 . S
C990 H1014 0.950 . S
C991 C1008 1.574 . S
C991 C1010 1.368 . S
C991 H1015 0.949 . S
H992 C996 0.949 . S
C993 C994 1.349 . S
C993 C995 1.327 . S
C993 H1016 0.950 . S
C994 C993 1.349 . S
C994 C1006 1.349 . S
C995 C993 1.327 . S
C995 C1011 1.429 . S
C995 H1017 0.950 . S
C996 H992 0.949 . S
C996 C1004 1.574 . S
C996 C1012 1.368 . S
H997 C1005 0.950 . S
H998 C1003 0.950 . S
H999 C1004 0.949 . S
H1000 C1006 0.950 . S
H1001 C1007 0.950 . S
H1002 C1008 0.949 . S
C1003 H998 0.950 . S
C1003 C1005 1.327 . S
C1003 C1009 1.429 . S
C1004 C996 1.574 . S
C1004 H999 0.949 . S
C1004 C1010 1.368 . S
C1005 C989 1.349 . S
C1005 H997 0.950 . S
C1005 C1003 1.327 . S
C1006 C994 1.349 . S
C1006 H1000 0.950 . S
C1006 C1007 1.327 . S
C1007 H1001 0.950 . S
C1007 C1006 1.327 . S
C1007 C1011 1.429 . S
C1008 C991 1.574 . S
C1008 H1002 0.949 . S
C1008 C1012 1.368 . S
C1009 C990 1.429 . S
C1009 C1003 1.429 . S
C1009 C1010 1.523 . S
C1010 C991 1.368 . S
C1010 C1004 1.368 . S
C1010 C1009 1.523 . S
C1011 C995 1.429 . S
C1011 C1007 1.429 . S
C1011 C1012 1.523 . S
C1012 C996 1.368 . S
C1012 C1008 1.368 . S
C1012 C1011 1.523 . S
H1013 C988 0.950 . S
H1014 C990 0.950 . S
H1015 C991 0.949 . S
H1016 C993 0.950 . S
H1017 C995 0.950 . S
C1018 C1019 1.349 . S
C1018 C1020 1.327 . S
C1018 H1043 0.950 . S
C1019 C1018 1.349 . S
C1019 C1035 1.349 . S
C1020 C1018 1.327 . S
C1020 C1039 1.429 . S
C1020 H1044 0.950 . S
C1021 C1038 1.574 . S
C1021 C1040 1.368 . S
C1021 H1045 0.949 . S
H1022 C1026 0.949 . S
C1023 C1024 1.352 . S
C1023 C1025 1.327 . S
C1023 H1046 0.950 . S
C1024 C1023 1.352 . S
C1024 C1036 1.348 1_556 S
C1025 C1023 1.327 . S
C1025 C1041 1.429 . S
C1025 H1047 0.950 . S
C1026 H1022 0.949 . S
C1026 C1034 1.574 . S
C1026 C1042 1.368 . S
H1027 C1035 0.950 . S
H1028 C1033 0.950 . S
H1029 C1034 0.949 . S
H1030 C1036 0.950 . S
H1031 C1037 0.950 . S
H1032 C1038 0.949 . S
C1033 H1028 0.950 . S
C1033 C1035 1.327 . S
C1033 C1039 1.429 . S
C1034 C1026 1.574 . S
C1034 H1029 0.949 . S
C1034 C1040 1.368 . S
C1035 C1019 1.349 . S
C1035 H1027 0.950 . S
C1035 C1033 1.327 . S
C1036 C1024 1.348 1_554 S
C1036 H1030 0.950 . S
C1036 C1037 1.327 1_554 S
C1037 H1031 0.950 . S
C1037 C1036 1.327 1_556 S
C1037 C1041 1.429 . S
C1038 C1021 1.574 . S
C1038 H1032 0.949 . S
C1038 C1042 1.368 . S
C1039 C1020 1.429 . S
C1039 C1033 1.429 . S
C1039 C1040 1.523 . S
C1040 C1021 1.368 . S
C1040 C1034 1.368 . S
C1040 C1039 1.523 . S
C1041 C1025 1.429 . S
C1041 C1037 1.429 . S
C1041 C1042 1.523 . S
C1042 C1026 1.368 . S
C1042 C1038 1.368 . S
C1042 C1041 1.523 . S
H1043 C1018 0.950 . S
H1044 C1020 0.950 . S
H1045 C1021 0.949 . S
H1046 C1023 0.950 . S
H1047 C1025 0.950 . S
C1048 C1049 1.352 . S
C1048 C1050 1.327 . S
C1048 H1073 0.950 . S
C1049 C1048 1.352 . S
C1049 C1065 1.347 1_556 S
C1050 C1048 1.327 . S
C1050 C1069 1.429 . S
C1050 H1074 0.950 . S
C1051 C1068 1.574 . S
C1051 C1070 1.368 . S
C1051 H1075 0.949 . S
H1052 C1056 0.949 . S
C1053 C1054 1.349 . S
C1053 C1055 1.327 . S
C1053 H1076 0.950 . S
C1054 C1053 1.349 . S
C1054 C1066 1.349 . S
C1055 C1053 1.327 . S
C1055 C1071 1.429 . S
C1055 H1077 0.950 . S
C1056 H1052 0.949 . S
C1056 C1064 1.574 . S
C1056 C1072 1.368 . S
H1057 C1065 0.950 . S
H1058 C1063 0.950 1_554 S
H1059 C1064 0.949 . S
H1060 C1066 0.950 . S
H1061 C1067 0.950 . S
H1062 C1068 0.949 . S
C1063 H1058 0.950 1_556 S
C1063 C1065 1.327 1_556 S
C1063 C1069 1.429 . S
C1064 C1056 1.574 . S
C1064 H1059 0.949 . S
C1064 C1070 1.368 . S
C1065 C1049 1.347 1_554 S
C1065 H1057 0.950 . S
C1065 C1063 1.327 1_554 S
C1066 C1054 1.349 . S
C1066 H1060 0.950 . S
C1066 C1067 1.327 . S
C1067 H1061 0.950 . S
C1067 C1066 1.327 . S
C1067 C1071 1.429 . S
C1068 C1051 1.574 . S
C1068 H1062 0.949 . S
C1068 C1072 1.368 . S
C1069 C1050 1.429 . S
C1069 C1063 1.429 . S
C1069 C1070 1.523 . S
C1070 C1051 1.368 . S
C1070 C1064 1.368 . S
C1070 C1069 1.523 . S
C1071 C1055 1.429 . S
C1071 C1067 1.429 . S
C1071 C1072 1.523 . S
C1072 C1056 1.368 . S
C1072 C1068 1.368 . S
C1072 C1071 1.523 . S
H1073 C1048 0.950 . S
H1074 C1050 0.950 . S
H1075 C1051 0.949 . S
H1076 C1053 0.950 . S
H1077 C1055 0.950 . S
C1078 C1079 1.349 . S
C1078 C1080 1.327 . S
C1078 H1103 0.950 . S
C1079 C1078 1.349 . S
C1079 C1095 1.349 . S
C1080 C1078 1.327 . S
C1080 C1099 1.429 . S
C1080 H1104 0.950 . S
C1081 C1098 1.574 . S
C1081 C1100 1.368 . S
C1081 H1105 0.949 . S
H1082 C1086 0.949 . S
C1083 C1084 1.349 . S
C1083 C1085 1.327 . S
C1083 H1106 0.950 . S
C1084 C1083 1.349 . S
C1084 C1096 1.349 . S
C1085 C1083 1.327 . S
C1085 C1101 1.429 . S
C1085 H1107 0.950 . S
C1086 H1082 0.949 . S
C1086 C1094 1.574 . S
C1086 C1102 1.368 . S
H1087 C1095 0.950 . S
H1088 C1093 0.950 . S
H1089 C1094 0.949 . S
H1090 C1096 0.950 . S
H1091 C1097 0.950 . S
H1092 C1098 0.949 . S
C1093 H1088 0.950 . S
C1093 C1095 1.327 . S
C1093 C1099 1.429 . S
C1094 C1086 1.574 . S
C1094 H1089 0.949 . S
C1094 C1100 1.368 . S
C1095 C1079 1.349 . S
C1095 H1087 0.950 . S
C1095 C1093 1.327 . S
C1096 C1084 1.349 . S
C1096 H1090 0.950 . S
C1096 C1097 1.327 . S
C1097 H1091 0.950 . S
C1097 C1096 1.327 . S
C1097 C1101 1.429 . S
C1098 C1081 1.574 . S
C1098 H1092 0.949 . S
C1098 C1102 1.368 . S
C1099 C1080 1.429 . S
C1099 C1093 1.429 . S
C1099 C1100 1.523 . S
C1100 C1081 1.368 . S
C1100 C1094 1.368 . S
C1100 C1099 1.523 . S
C1101 C1085 1.429 . S
C1101 C1097 1.429 . S
C1101 C1102 1.523 . S
C1102 C1086 1.368 . S
C1102 C1098 1.368 . S
C1102 C1101 1.523 . S
H1103 C1078 0.950 . S
H1104 C1080 0.950 . S
H1105 C1081 0.949 . S
H1106 C1083 0.950 . S
H1107 C1085 0.950 . S
C1108 C1109 1.349 . S
C1108 C1110 1.327 . S
C1108 H1133 0.950 . S
C1109 C1108 1.349 . S
C1109 C1125 1.349 . S
C1110 C1108 1.327 . S
C1110 C1129 1.429 . S
C1110 H1134 0.950 . S
C1111 C1128 1.574 . S
C1111 C1130 1.368 . S
C1111 H1135 0.949 . S
H1112 C1116 0.949 . S
C1113 C1114 1.349 . S
C1113 C1115 1.327 . S
C1113 H1136 0.950 . S
C1114 C1113 1.349 . S
C1114 C1126 1.349 . S
C1115 C1113 1.327 . S
C1115 C1131 1.429 . S
C1115 H1137 0.950 . S
C1116 H1112 0.949 . S
C1116 C1124 1.574 . S
C1116 C1132 1.368 . S
H1117 C1125 0.950 . S
H1118 C1123 0.950 . S
H1119 C1124 0.949 . S
H1120 C1126 0.950 . S
H1121 C1127 0.950 . S
H1122 C1128 0.949 . S
C1123 H1118 0.950 . S
C1123 C1125 1.327 . S
C1123 C1129 1.429 . S
C1124 C1116 1.574 . S
C1124 H1119 0.949 . S
C1124 C1130 1.368 . S
C1125 C1109 1.349 . S
C1125 H1117 0.950 . S
C1125 C1123 1.327 . S
C1126 C1114 1.349 . S
C1126 H1120 0.950 . S
C1126 C1127 1.327 . S
C1127 H1121 0.950 . S
C1127 C1126 1.327 . S
C1127 C1131 1.429 . S
C1128 C1111 1.574 . S
C1128 H1122 0.949 . S
C1128 C1132 1.368 . S
C1129 C1110 1.429 . S
C1129 C1123 1.429 . S
C1129 C1130 1.523 . S
C1130 C1111 1.368 . S
C1130 C1124 1.368 . S
C1130 C1129 1.523 . S
C1131 C1115 1.429 . S
C1131 C1127 1.429 . S
C1131 C1132 1.523 . S
C1132 C1116 1.368 . S
C1132 C1128 1.368 . S
C1132 C1131 1.523 . S
H1133 C1108 0.950 . S
H1134 C1110 0.950 . S
H1135 C1111 0.949 . S
H1136 C1113 0.950 . S
H1137 C1115 0.950 . S
C1138 C1139 1.352 . S
C1138 C1140 1.327 . S
C1138 H1163 0.950 . S
C1139 C1138 1.352 . S
C1139 C1155 1.348 1_554 S
C1140 C1138 1.327 . S
C1140 C1159 1.429 . S
C1140 H1164 0.950 . S
C1141 C1158 1.574 . S
C1141 C1160 1.368 . S
C1141 H1165 0.949 . S
H1142 C1146 0.949 . S
C1143 C1144 1.349 . S
C1143 C1145 1.327 . S
C1143 H1166 0.950 . S
C1144 C1143 1.349 . S
C1144 C1156 1.349 . S
C1145 C1143 1.327 . S
C1145 C1161 1.429 . S
C1145 H1167 0.950 . S
C1146 H1142 0.949 . S
C1146 C1154 1.574 . S
C1146 C1162 1.368 . S
H1147 C1155 0.950 . S
H1148 C1153 0.950 1_556 S
H1149 C1154 0.949 . S
H1150 C1156 0.950 . S
H1151 C1157 0.950 . S
H1152 C1158 0.949 . S
C1153 H1148 0.950 1_554 S
C1153 C1155 1.327 1_554 S
C1153 C1159 1.429 . S
C1154 C1146 1.574 . S
C1154 H1149 0.949 . S
C1154 C1160 1.368 . S
C1155 C1139 1.348 1_556 S
C1155 H1147 0.950 . S
C1155 C1153 1.327 1_556 S
C1156 C1144 1.349 . S
C1156 H1150 0.950 . S
C1156 C1157 1.327 . S
C1157 H1151 0.950 . S
C1157 C1156 1.327 . S
C1157 C1161 1.429 . S
C1158 C1141 1.574 . S
C1158 H1152 0.949 . S
C1158 C1162 1.368 . S
C1159 C1140 1.429 . S
C1159 C1153 1.429 . S
C1159 C1160 1.523 . S
C1160 C1141 1.368 . S
C1160 C1154 1.368 . S
C1160 C1159 1.523 . S
C1161 C1145 1.429 . S
C1161 C1157 1.429 . S
C1161 C1162 1.523 . S
C1162 C1146 1.368 . S
C1162 C1158 1.368 . S
C1162 C1161 1.523 . S
H1163 C1138 0.950 . S
H1164 C1140 0.950 . S
H1165 C1141 0.949 . S
H1166 C1143 0.950 . S
H1167 C1145 0.950 . S
C1168 C1169 1.349 . S
C1168 C1170 1.327 . S
C1168 H1193 0.950 . S
C1169 C1168 1.349 . S
C1169 C1185 1.349 . S
C1170 C1168 1.327 . S
C1170 C1189 1.429 . S
C1170 H1194 0.950 . S
C1171 C1188 1.574 . S
C1171 C1190 1.368 . S
C1171 H1195 0.949 . S
H1172 C1176 0.949 . S
C1173 C1174 1.349 . S
C1173 C1175 1.327 . S
C1173 H1196 0.950 . S
C1174 C1173 1.349 . S
C1174 C1186 1.349 . S
C1175 C1173 1.327 . S
C1175 C1191 1.429 . S
C1175 H1197 0.950 . S
C1176 H1172 0.949 . S
C1176 C1184 1.574 . S
C1176 C1192 1.368 . S
H1177 C1185 0.950 . S
H1178 C1183 0.950 . S
H1179 C1184 0.949 . S
H1180 C1186 0.950 . S
H1181 C1187 0.950 . S
H1182 C1188 0.949 . S
C1183 H1178 0.950 . S
C1183 C1185 1.327 . S
C1183 C1189 1.429 . S
C1184 C1176 1.574 . S
C1184 H1179 0.949 . S
C1184 C1190 1.368 . S
C1185 C1169 1.349 . S
C1185 H1177 0.950 . S
C1185 C1183 1.327 . S
C1186 C1174 1.349 . S
C1186 H1180 0.950 . S
C1186 C1187 1.327 . S
C1187 H1181 0.950 . S
C1187 C1186 1.327 . S
C1187 C1191 1.429 . S
C1188 C1171 1.574 . S
C1188 H1182 0.949 . S
C1188 C1192 1.368 . S
C1189 C1170 1.429 . S
C1189 C1183 1.429 . S
C1189 C1190 1.523 . S
C1190 C1171 1.368 . S
C1190 C1184 1.368 . S
C1190 C1189 1.523 . S
C1191 C1175 1.429 . S
C1191 C1187 1.429 . S
C1191 C1192 1.523 . S
C1192 C1176 1.368 . S
C1192 C1188 1.368 . S
C1192 C1191 1.523 . S
H1193 C1168 0.950 . S
H1194 C1170 0.950 . S
H1195 C1171 0.949 . S
H1196 C1173 0.950 . S
H1197 C1175 0.950 . S
C1198 C1199 1.351 . S
C1198 C1200 1.327 . S
C1198 H1223 0.950 . S
C1199 C1198 1.351 . S
C1199 C1215 1.349 1_556 S
C1200 C1198 1.327 . S
C1200 C1219 1.429 . S
C1200 H1224 0.950 . S
C1201 C1218 1.574 . S
C1201 C1220 1.368 . S
C1201 H1225 0.949 . S
H1202 C1206 0.949 . S
C1203 C1204 1.349 . S
C1203 C1205 1.327 . S
C1203 H1226 0.950 . S
C1204 C1203 1.349 . S
C1204 C1216 1.349 . S
C1205 C1203 1.327 . S
C1205 C1221 1.429 . S
C1205 H1227 0.950 . S
C1206 H1202 0.949 . S
C1206 C1214 1.574 . S
C1206 C1222 1.368 . S
H1207 C1215 0.951 . S
H1208 C1213 0.950 . S
H1209 C1214 0.949 . S
H1210 C1216 0.950 . S
H1211 C1217 0.950 . S
H1212 C1218 0.949 . S
C1213 H1208 0.950 . S
C1213 C1215 1.326 1_556 S
C1213 C1219 1.429 . S
C1214 C1206 1.574 . S
C1214 H1209 0.949 . S
C1214 C1220 1.368 . S
C1215 C1199 1.349 1_554 S
C1215 H1207 0.951 . S
C1215 C1213 1.326 1_554 S
C1216 C1204 1.349 . S
C1216 H1210 0.950 . S
C1216 C1217 1.327 . S
C1217 H1211 0.950 . S
C1217 C1216 1.327 . S
C1217 C1221 1.429 . S
C1218 C1201 1.574 . S
C1218 H1212 0.949 . S
C1218 C1222 1.368 . S
C1219 C1200 1.429 . S
C1219 C1213 1.429 . S
C1219 C1220 1.523 . S
C1220 C1201 1.368 . S
C1220 C1214 1.368 . S
C1220 C1219 1.523 . S
C1221 C1205 1.429 . S
C1221 C1217 1.429 . S
C1221 C1222 1.523 . S
C1222 C1206 1.368 . S
C1222 C1218 1.368 . S
C1222 C1221 1.523 . S
H1223 C1198 0.950 . S
H1224 C1200 0.950 . S
H1225 C1201 0.949 . S
H1226 C1203 0.950 . S
H1227 C1205 0.950 . S
C1228 C1229 1.349 . S
C1228 C1230 1.327 . S
C1228 H1253 0.950 . S
C1229 C1228 1.349 . S
C1229 C1245 1.349 . S
C1230 C1228 1.327 . S
C1230 C1249 1.429 . S
C1230 H1254 0.950 . S
C1231 C1248 1.574 . S
C1231 C1250 1.368 . S
C1231 H1255 0.949 . S
H1232 C1236 0.949 . S
C1233 C1234 1.353 . S
C1233 C1235 1.327 . S
C1233 H1256 0.950 . S
C1234 C1233 1.353 . S
C1234 C1246 1.347 1_554 S
C1235 C1233 1.327 . S
C1235 C1251 1.429 . S
C1235 H1257 0.950 . S
C1236 H1232 0.949 . S
C1236 C1244 1.574 . S
C1236 C1252 1.368 . S
H1237 C1245 0.950 . S
H1238 C1243 0.950 . S
H1239 C1244 0.949 . S
H1240 C1246 0.950 . S
H1241 C1247 0.950 1_556 S
H1242 C1248 0.949 . S
C1243 H1238 0.950 . S
C1243 C1245 1.327 . S
C1243 C1249 1.429 . S
C1244 C1236 1.574 . S
C1244 H1239 0.949 . S
C1244 C1250 1.368 . S
C1245 C1229 1.349 . S
C1245 H1237 0.950 . S
C1245 C1243 1.327 . S
C1246 C1234 1.347 1_556 S
C1246 H1240 0.950 . S
C1246 C1247 1.327 1_556 S
C1247 H1241 0.950 1_554 S
C1247 C1246 1.327 1_554 S
C1247 C1251 1.429 . S
C1248 C1231 1.574 . S
C1248 H1242 0.949 . S
C1248 C1252 1.368 . S
C1249 C1230 1.429 . S
C1249 C1243 1.429 . S
C1249 C1250 1.523 . S
C1250 C1231 1.368 . S
C1250 C1244 1.368 . S
C1250 C1249 1.523 . S
C1251 C1235 1.429 . S
C1251 C1247 1.429 . S
C1251 C1252 1.523 . S
C1252 C1236 1.368 . S
C1252 C1248 1.368 . S
C1252 C1251 1.523 . S
H1253 C1228 0.950 . S
H1254 C1230 0.950 . S
H1255 C1231 0.949 . S
H1256 C1233 0.950 . S
H1257 C1235 0.950 . S
C1258 C1259 1.349 . S
C1258 C1260 1.327 . S
C1258 H1283 0.950 . S
C1259 C1258 1.349 . S
C1259 C1275 1.349 . S
C1260 C1258 1.327 . S
C1260 C1279 1.429 . S
C1260 H1284 0.950 . S
C1261 C1278 1.574 . S
C1261 C1280 1.368 . S
C1261 H1285 0.949 . S
H1262 C1266 0.949 . S
C1263 C1264 1.349 . S
C1263 C1265 1.327 . S
C1263 H1286 0.950 . S
C1264 C1263 1.349 . S
C1264 C1276 1.349 . S
C1265 C1263 1.327 . S
C1265 C1281 1.429 . S
C1265 H1287 0.950 . S
C1266 H1262 0.949 . S
C1266 C1274 1.574 . S
C1266 C1282 1.368 . S
H1267 C1275 0.950 . S
H1268 C1273 0.950 . S
H1269 C1274 0.949 . S
H1270 C1276 0.950 . S
H1271 C1277 0.950 . S
H1272 C1278 0.949 . S
C1273 H1268 0.950 . S
C1273 C1275 1.327 . S
C1273 C1279 1.429 . S
C1274 C1266 1.574 . S
C1274 H1269 0.949 . S
C1274 C1280 1.368 . S
C1275 C1259 1.349 . S
C1275 H1267 0.950 . S
C1275 C1273 1.327 . S
C1276 C1264 1.349 . S
C1276 H1270 0.950 . S
C1276 C1277 1.327 . S
C1277 H1271 0.950 . S
C1277 C1276 1.327 . S
C1277 C1281 1.429 . S
C1278 C1261 1.574 . S
C1278 H1272 0.949 . S
C1278 C1282 1.368 . S
C1279 C1260 1.429 . S
C1279 C1273 1.429 . S
C1279 C1280 1.523 . S
C1280 C1261 1.368 . S
C1280 C1274 1.368 . S
C1280 C1279 1.523 . S
C1281 C1265 1.429 . S
C1281 C1277 1.429 . S
C1281 C1282 1.523 . S
C1282 C1266 1.368 . S
C1282 C1278 1.368 . S
C1282 C1281 1.523 . S
H1283 C1258 0.950 . S
H1284 C1260 0.950 . S
H1285 C1261 0.949 . S
H1286 C1263 0.950 . S
H1287 C1265 0.950 . S
C1288 C1289 1.349 . S
C1288 C1290 1.327 . S
C1288 H1313 0.950 . S
C1289 C1288 1.349 . S
C1289 C1305 1.349 . S
C1290 C1288 1.327 . S
C1290 C1309 1.429 . S
C1290 H1314 0.950 . S
C1291 C1308 1.574 . S
C1291 C1310 1.368 . S
C1291 H1315 0.949 . S
H1292 C1296 0.949 . S
C1293 C1294 1.349 . S
C1293 C1295 1.327 . S
C1293 H1316 0.950 . S
C1294 C1293 1.349 . S
C1294 C1306 1.349 . S
C1295 C1293 1.327 . S
C1295 C1311 1.429 . S
C1295 H1317 0.950 . S
C1296 H1292 0.949 . S
C1296 C1304 1.574 . S
C1296 C1312 1.368 . S
H1297 C1305 0.950 . S
H1298 C1303 0.950 . S
H1299 C1304 0.949 . S
H1300 C1306 0.950 . S
H1301 C1307 0.950 . S
H1302 C1308 0.949 . S
C1303 H1298 0.950 . S
C1303 C1305 1.327 . S
C1303 C1309 1.429 . S
C1304 C1296 1.574 . S
C1304 H1299 0.949 . S
C1304 C1310 1.368 . S
C1305 C1289 1.349 . S
C1305 H1297 0.950 . S
C1305 C1303 1.327 . S
C1306 C1294 1.349 . S
C1306 H1300 0.950 . S
C1306 C1307 1.327 . S
C1307 H1301 0.950 . S
C1307 C1306 1.327 . S
C1307 C1311 1.429 . S
C1308 C1291 1.574 . S
C1308 H1302 0.949 . S
C1308 C1312 1.368 . S
C1309 C1290 1.429 . S
C1309 C1303 1.429 . S
C1309 C1310 1.523 . S
C1310 C1291 1.368 . S
C1310 C1304 1.368 . S
C1310 C1309 1.523 . S
C1311 C1295 1.429 . S
C1311 C1307 1.429 . S
C1311 C1312 1.523 . S
C1312 C1296 1.368 . S
C1312 C1308 1.368 . S
C1312 C1311 1.523 . S
H1313 C1288 0.950 . S
H1314 C1290 0.950 . S
H1315 C1291 0.949 . S
H1316 C1293 0.950 . S
H1317 C1295 0.950 . S
C1318 C1319 1.353 . S
C1318 C1320 1.327 . S
C1318 H1343 0.950 . S
C1319 C1318 1.353 . S
C1319 C1335 1.347 1_554 S
C1320 C1318 1.327 . S
C1320 C1339 1.429 . S
C1320 H1344 0.950 . S
C1321 C1338 1.574 . S
C1321 C1340 1.368 . S
C1321 H1345 0.949 . S
H1322 C1326 0.949 . S
C1323 C1324 1.349 . S
C1323 C1325 1.327 . S
C1323 H1346 0.950 . S
C1324 C1323 1.349 . S
C1324 C1336 1.349 . S
C1325 C1323 1.327 . S
C1325 C1341 1.429 . S
C1325 H1347 0.950 . S
C1326 H1322 0.949 . S
C1326 C1334 1.574 . S
C1326 C1342 1.368 . S
H1327 C1335 0.950 . S
H1328 C1333 0.950 1_556 S
H1329 C1334 0.949 . S
H1330 C1336 0.950 . S
H1331 C1337 0.950 . S
H1332 C1338 0.949 . S
C1333 H1328 0.950 1_554 S
C1333 C1335 1.327 1_554 S
C1333 C1339 1.429 . S
C1334 C1326 1.574 . S
C1334 H1329 0.949 . S
C1334 C1340 1.368 . S
C1335 C1319 1.347 1_556 S
C1335 H1327 0.950 . S
C1335 C1333 1.327 1_556 S
C1336 C1324 1.349 . S
C1336 H1330 0.950 . S
C1336 C1337 1.327 . S
C1337 H1331 0.950 . S
C1337 C1336 1.327 . S
C1337 C1341 1.429 . S
C1338 C1321 1.574 . S
C1338 H1332 0.949 . S
C1338 C1342 1.368 . S
C1339 C1320 1.429 . S
C1339 C1333 1.429 . S
C1339 C1340 1.523 . S
C1340 C1321 1.368 . S
C1340 C1334 1.368 . S
C1340 C1339 1.523 . S
C1341 C1325 1.429 . S
C1341 C1337 1.429 . S
C1341 C1342 1.523 . S
C1342 C1326 1.368 . S
C1342 C1338 1.368 . S
C1342 C1341 1.523 . S
H1343 C1318 0.950 . S
H1344 C1320 0.950 . S
H1345 C1321 0.949 . S
H1346 C1323 0.950 . S
H1347 C1325 0.950 . S
C1348 C1349 1.349 . S
C1348 C1350 1.327 . S
C1348 H1373 0.950 . S
C1349 C1348 1.349 . S
C1349 C1365 1.349 . S
C1350 C1348 1.327 . S
C1350 C1369 1.429 . S
C1350 H1374 0.950 . S
C1351 C1368 1.574 . S
C1351 C1370 1.368 . S
C1351 H1375 0.949 . S
H1352 C1356 0.949 . S
C1353 C1354 1.351 . S
C1353 C1355 1.327 . S
C1353 H1376 0.950 . S
C1354 C1353 1.351 . S
C1354 C1366 1.349 . S
C1355 C1353 1.327 . S
C1355 C1371 1.429 . S
C1355 H1377 0.950 . S
C1356 H1352 0.949 . S
C1356 C1364 1.574 . S
C1356 C1372 1.368 . S
H1357 C1365 0.950 . S
H1358 C1363 0.950 . S
H1359 C1364 0.949 . S
H1360 C1366 0.950 1_554 S
H1361 C1367 0.950 . S
H1362 C1368 0.949 . S
C1363 H1358 0.950 . S
C1363 C1365 1.327 . S
C1363 C1369 1.429 . S
C1364 C1356 1.574 . S
C1364 H1359 0.949 . S
C1364 C1370 1.368 . S
C1365 C1349 1.349 . S
C1365 H1357 0.950 . S
C1365 C1363 1.327 . S
C1366 C1354 1.349 . S
C1366 H1360 0.950 1_556 S
C1366 C1367 1.327 . S
C1367 H1361 0.950 . S
C1367 C1366 1.327 . S
C1367 C1371 1.429 . S
C1368 C1351 1.574 . S
C1368 H1362 0.949 . S
C1368 C1372 1.368 . S
C1369 C1350 1.429 . S
C1369 C1363 1.429 . S
C1369 C1370 1.523 . S
C1370 C1351 1.368 . S
C1370 C1364 1.368 . S
C1370 C1369 1.523 . S
C1371 C1355 1.429 . S
C1371 C1367 1.429 . S
C1371 C1372 1.523 . S
C1372 C1356 1.368 . S
C1372 C1368 1.368 . S
C1372 C1371 1.523 . S
H1373 C1348 0.950 . S
H1374 C1350 0.950 . S
H1375 C1351 0.949 . S
H1376 C1353 0.950 . S
H1377 C1355 0.950 . S
C1378 C1379 1.349 . S
C1378 C1380 1.327 . S
C1378 H1403 0.950 . S
C1379 C1378 1.349 . S
C1379 C1395 1.349 . S
C1380 C1378 1.327 . S
C1380 C1399 1.429 . S
C1380 H1404 0.950 . S
C1381 C1398 1.574 . S
C1381 C1400 1.368 . S
C1381 H1405 0.949 . S
H1382 C1386 0.949 . S
C1383 C1384 1.349 . S
C1383 C1385 1.327 . S
C1383 H1406 0.950 . S
C1384 C1383 1.349 . S
C1384 C1396 1.349 . S
C1385 C1383 1.327 . S
C1385 C1401 1.429 . S
C1385 H1407 0.950 . S
C1386 H1382 0.949 . S
C1386 C1394 1.574 . S
C1386 C1402 1.368 . S
H1387 C1395 0.950 . S
H1388 C1393 0.950 . S
H1389 C1394 0.949 . S
H1390 C1396 0.950 . S
H1391 C1397 0.950 . S
H1392 C1398 0.949 . S
C1393 H1388 0.950 . S
C1393 C1395 1.327 . S
C1393 C1399 1.429 . S
C1394 C1386 1.574 . S
C1394 H1389 0.949 . S
C1394 C1400 1.368 . S
C1395 C1379 1.349 . S
C1395 H1387 0.950 . S
C1395 C1393 1.327 . S
C1396 C1384 1.349 . S
C1396 H1390 0.950 . S
C1396 C1397 1.327 . S
C1397 H1391 0.950 . S
C1397 C1396 1.327 . S
C1397 C1401 1.429 . S
C1398 C1381 1.574 . S
C1398 H1392 0.949 . S
C1398 C1402 1.368 . S
C1399 C1380 1.429 . S
C1399 C1393 1.429 . S
C1399 C1400 1.523 . S
C1400 C1381 1.368 . S
C1400 C1394 1.368 . S
C1400 C1399 1.523 . S
C1401 C1385 1.429 . S
C1401 C1397 1.429 . S
C1401 C1402 1.523 . S
C1402 C1386 1.368 . S
C1402 C1398 1.368 . S
C1402 C1401 1.523 . S
H1403 C1378 0.950 . S
H1404 C1380 0.950 . S
H1405 C1381 0.949 . S
H1406 C1383 0.950 . S
H1407 C1385 0.950 . S
C1408 C1409 1.349 . S
C1408 C1410 1.327 . S
C1408 H1433 0.950 . S
C1409 C1408 1.349 . S
C1409 C1425 1.349 . S
C1410 C1408 1.327 . S
C1410 C1429 1.429 . S
C1410 H1434 0.950 . S
C1411 C1428 1.574 . S
C1411 C1430 1.368 . S
C1411 H1435 0.949 . S
H1412 C1416 0.949 . S
C1413 C1414 1.349 . S
C1413 C1415 1.327 . S
C1413 H1436 0.950 . S
C1414 C1413 1.349 . S
C1414 C1426 1.349 . S
C1415 C1413 1.327 . S
C1415 C1431 1.436 . S
C1415 H1437 0.950 . S
C1416 H1412 0.949 . S
C1416 C1424 1.574 . S
C1416 C1432 1.368 . S
H1417 C1425 0.950 . S
H1418 C1423 0.950 . S
H1419 C1424 0.949 . S
H1420 C1426 0.950 . S
H1421 C1427 0.949 . S
H1422 C1428 0.949 . S
C1423 H1418 0.950 . S
C1423 C1425 1.327 . S
C1423 C1429 1.429 . S
C1424 C1416 1.574 . S
C1424 H1419 0.949 . S
C1424 C1430 1.368 . S
C1425 C1409 1.349 . S
C1425 H1417 0.950 . S
C1425 C1423 1.327 . S
C1426 C1414 1.349 . S
C1426 H1420 0.950 . S
C1426 C1427 1.327 . S
C1427 H1421 0.949 . S
C1427 C1426 1.327 . S
C1427 C1431 1.433 . S
C1428 C1411 1.574 . S
C1428 H1422 0.949 . S
C1428 C1432 1.368 . S
C1429 C1410 1.429 . S
C1429 C1423 1.429 . S
C1429 C1430 1.523 . S
C1430 C1411 1.368 . S
C1430 C1424 1.368 . S
C1430 C1429 1.523 . S
C1431 C1415 1.436 . S
C1431 C1427 1.433 . S
C1431 C1432 1.512 1_556 S
C1432 C1416 1.368 . S
C1432 C1428 1.368 . S
C1432 C1431 1.512 1_554 S
H1433 C1408 0.950 . S
H1434 C1410 0.950 . S
H1435 C1411 0.949 . S
H1436 C1413 0.950 . S
H1437 C1415 0.950 . S
C1438 C1439 1.349 . S
C1438 C1440 1.327 . S
C1438 H1463 0.950 . S
C1439 C1438 1.349 . S
C1439 C1455 1.349 . S
C1440 C1438 1.327 . S
C1440 C1459 1.429 . S
C1440 H1464 0.950 . S
C1441 C1458 1.567 1_655 S
C1441 C1460 1.374 . S
C1441 H1465 0.946 . S
H1442 C1446 0.949 . S
C1443 C1444 1.349 . S
C1443 C1445 1.327 . S
C1443 H1466 0.950 . S
C1444 C1443 1.349 . S
C1444 C1456 1.349 . S
C1445 C1443 1.327 . S
C1445 C1461 1.429 . S
C1445 H1467 0.950 . S
C1446 H1442 0.949 . S
C1446 C1454 1.574 1_455 S
C1446 C1462 1.368 . S
H1447 C1455 0.950 . S
H1448 C1453 0.950 . S
H1449 C1454 0.949 . S
H1450 C1456 0.950 . S
H1451 C1457 0.950 . S
H1452 C1458 0.949 . S
C1453 H1448 0.950 . S
C1453 C1455 1.327 . S
C1453 C1459 1.429 . S
C1454 C1446 1.574 1_655 S
C1454 H1449 0.949 . S
C1454 C1460 1.368 . S
C1455 C1439 1.349 . S
C1455 H1447 0.950 . S
C1455 C1453 1.327 . S
C1456 C1444 1.349 . S
C1456 H1450 0.950 . S
C1456 C1457 1.327 . S
C1457 H1451 0.950 . S
C1457 C1456 1.327 . S
C1457 C1461 1.429 . S
C1458 C1441 1.567 1_455 S
C1458 H1452 0.949 . S
C1458 C1462 1.368 . S
C1459 C1440 1.429 . S
C1459 C1453 1.429 . S
C1459 C1460 1.523 . S
C1460 C1441 1.374 . S
C1460 C1454 1.368 . S
C1460 C1459 1.523 . S
C1461 C1445 1.429 . S
C1461 C1457 1.429 . S
C1461 C1462 1.523 . S
C1462 C1446 1.368 . S
C1462 C1458 1.368 . S
C1462 C1461 1.523 . S
H1463 C1438 0.950 . S
H1464 C1440 0.950 . S
H1465 C1441 0.946 . S
H1466 C1443 0.950 . S
H1467 C1445 0.950 . S
C1468 C1469 1.349 . S
C1468 C1470 1.327 . S
C1468 H1493 0.950 . S
C1469 C1468 1.349 . S
C1469 C1485 1.349 . S
C1470 C1468 1.327 . S
C1470 C1489 1.429 . S
C1470 H1494 0.950 . S
C1471 C1488 1.574 . S
C1471 C1490 1.368 . S
C1471 H1495 0.949 . S
H1472 C1476 0.949 . S
C1473 C1474 1.349 . S
C1473 C1475 1.327 . S
C1473 H1496 0.950 . S
C1474 C1473 1.349 . S
C1474 C1486 1.349 . S
C1475 C1473 1.327 . S
C1475 C1491 1.429 . S
C1475 H1497 0.950 . S
C1476 H1472 0.949 . S
C1476 C1484 1.574 . S
C1476 C1492 1.368 . S
H1477 C1485 0.950 . S
H1478 C1483 0.950 . S
H1479 C1484 0.949 . S
H1480 C1486 0.950 . S
H1481 C1487 0.950 . S
H1482 C1488 0.949 . S
C1483 H1478 0.950 . S
C1483 C1485 1.327 . S
C1483 C1489 1.429 . S
C1484 C1476 1.574 . S
C1484 H1479 0.949 . S
C1484 C1490 1.368 . S
C1485 C1469 1.349 . S
C1485 H1477 0.950 . S
C1485 C1483 1.327 . S
C1486 C1474 1.349 . S
C1486 H1480 0.950 . S
C1486 C1487 1.327 . S
C1487 H1481 0.950 . S
C1487 C1486 1.327 . S
C1487 C1491 1.429 . S
C1488 C1471 1.574 . S
C1488 H1482 0.949 . S
C1488 C1492 1.368 . S
C1489 C1470 1.429 . S
C1489 C1483 1.429 . S
C1489 C1490 1.523 . S
C1490 C1471 1.368 . S
C1490 C1484 1.368 . S
C1490 C1489 1.523 . S
C1491 C1475 1.429 . S
C1491 C1487 1.429 . S
C1491 C1492 1.523 . S
C1492 C1476 1.368 . S
C1492 C1488 1.368 . S
C1492 C1491 1.523 . S
H1493 C1468 0.950 . S
H1494 C1470 0.950 . S
H1495 C1471 0.949 . S
H1496 C1473 0.950 . S
H1497 C1475 0.950 . S
C1498 C1499 1.349 . S
C1498 C1500 1.327 . S
C1498 H1523 0.950 . S
C1499 C1498 1.349 . S
C1499 C1515 1.349 . S
C1500 C1498 1.327 . S
C1500 C1519 1.429 . S
C1500 H1524 0.950 . S
C1501 C1518 1.574 . S
C1501 C1520 1.368 . S
C1501 H1525 0.949 . S
H1502 C1506 0.949 . S
C1503 C1504 1.349 . S
C1503 C1505 1.327 . S
C1503 H1526 0.950 . S
C1504 C1503 1.349 . S
C1504 C1516 1.349 . S
C1505 C1503 1.327 . S
C1505 C1521 1.429 . S
C1505 H1527 0.950 . S
C1506 H1502 0.949 . S
C1506 C1514 1.574 . S
C1506 C1522 1.368 . S
H1507 C1515 0.950 . S
H1508 C1513 0.950 . S
H1509 C1514 0.949 . S
H1510 C1516 0.950 . S
H1511 C1517 0.950 . S
H1512 C1518 0.949 . S
C1513 H1508 0.950 . S
C1513 C1515 1.327 . S
C1513 C1519 1.429 . S
C1514 C1506 1.574 . S
C1514 H1509 0.949 . S
C1514 C1520 1.368 . S
C1515 C1499 1.349 . S
C1515 H1507 0.950 . S
C1515 C1513 1.327 . S
C1516 C1504 1.349 . S
C1516 H1510 0.950 . S
C1516 C1517 1.327 . S
C1517 H1511 0.950 . S
C1517 C1516 1.327 . S
C1517 C1521 1.429 . S
C1518 C1501 1.574 . S
C1518 H1512 0.949 . S
C1518 C1522 1.368 . S
C1519 C1500 1.429 . S
C1519 C1513 1.429 . S
C1519 C1520 1.523 . S
C1520 C1501 1.368 . S
C1520 C1514 1.368 . S
C1520 C1519 1.523 . S
C1521 C1505 1.429 . S
C1521 C1517 1.429 . S
C1521 C1522 1.523 . S
C1522 C1506 1.368 . S
C1522 C1518 1.368 . S
C1522 C1521 1.523 . S
H1523 C1498 0.950 . S
H1524 C1500 0.950 . S
H1525 C1501 0.949 . S
H1526 C1503 0.950 . S
H1527 C1505 0.950 . S
C1528 C1529 1.349 . S
C1528 C1530 1.327 . S
C1528 H1553 0.950 . S
C1529 C1528 1.349 . S
C1529 C1545 1.349 . S
C1530 C1528 1.327 . S
C1530 C1549 1.429 . S
C1530 H1554 0.950 . S
C1531 C1548 1.574 . S
C1531 C1550 1.368 . S
C1531 H1555 0.949 . S
H1532 C1536 0.949 . S
C1533 C1534 1.349 . S
C1533 C1535 1.327 . S
C1533 H1556 0.950 . S
C1534 C1533 1.349 . S
C1534 C1546 1.349 . S
C1535 C1533 1.327 . S
C1535 C1551 1.429 . S
C1535 H1557 0.950 . S
C1536 H1532 0.949 . S
C1536 C1544 1.574 . S
C1536 C1552 1.368 . S
H1537 C1545 0.950 . S
H1538 C1543 0.950 . S
H1539 C1544 0.949 . S
H1540 C1546 0.950 . S
H1541 C1547 0.950 . S
H1542 C1548 0.949 . S
C1543 H1538 0.950 . S
C1543 C1545 1.327 . S
C1543 C1549 1.429 . S
C1544 C1536 1.574 . S
C1544 H1539 0.949 . S
C1544 C1550 1.368 . S
C1545 C1529 1.349 . S
C1545 H1537 0.950 . S
C1545 C1543 1.327 . S
C1546 C1534 1.349 . S
C1546 H1540 0.950 . S
C1546 C1547 1.327 . S
C1547 H1541 0.950 . S
C1547 C1546 1.327 . S
C1547 C1551 1.429 . S
C1548 C1531 1.574 . S
C1548 H1542 0.949 . S
C1548 C1552 1.368 . S
C1549 C1530 1.429 . S
C1549 C1543 1.429 . S
C1549 C1550 1.523 . S
C1550 C1531 1.368 . S
C1550 C1544 1.368 . S
C1550 C1549 1.523 . S
C1551 C1535 1.429 . S
C1551 C1547 1.429 . S
C1551 C1552 1.523 . S
C1552 C1536 1.368 . S
C1552 C1548 1.368 . S
C1552 C1551 1.523 . S
H1553 C1528 0.950 . S
H1554 C1530 0.950 . S
H1555 C1531 0.949 . S
H1556 C1533 0.950 . S
H1557 C1535 0.950 . S
C1558 C1559 1.349 . S
C1558 C1560 1.327 . S
C1558 H1583 0.950 . S
C1559 C1558 1.349 . S
C1559 C1575 1.349 . S
C1560 C1558 1.327 . S
C1560 C1579 1.429 . S
C1560 H1584 0.950 . S
C1561 C1578 1.574 . S
C1561 C1580 1.368 . S
C1561 H1585 0.949 . S
H1562 C1566 0.949 . S
C1563 C1564 1.349 . S
C1563 C1565 1.327 . S
C1563 H1586 0.950 . S
C1564 C1563 1.349 . S
C1564 C1576 1.349 . S
C1565 C1563 1.327 . S
C1565 C1581 1.429 . S
C1565 H1587 0.950 . S
C1566 H1562 0.949 . S
C1566 C1574 1.574 . S
C1566 C1582 1.368 . S
H1567 C1575 0.950 . S
H1568 C1573 0.950 . S
H1569 C1574 0.949 . S
H1570 C1576 0.950 . S
H1571 C1577 0.950 . S
H1572 C1578 0.949 . S
C1573 H1568 0.950 . S
C1573 C1575 1.327 . S
C1573 C1579 1.429 . S
C1574 C1566 1.574 . S
C1574 H1569 0.949 . S
C1574 C1580 1.368 . S
C1575 C1559 1.349 . S
C1575 H1567 0.950 . S
C1575 C1573 1.327 . S
C1576 C1564 1.349 . S
C1576 H1570 0.950 . S
C1576 C1577 1.327 . S
C1577 H1571 0.950 . S
C1577 C1576 1.327 . S
C1577 C1581 1.429 . S
C1578 C1561 1.574 . S
C1578 H1572 0.949 . S
C1578 C1582 1.368 . S
C1579 C1560 1.429 . S
C1579 C1573 1.429 . S
C1579 C1580 1.523 . S
C1580 C1561 1.368 . S
C1580 C1574 1.368 . S
C1580 C1579 1.523 . S
C1581 C1565 1.429 . S
C1581 C1577 1.429 . S
C1581 C1582 1.523 . S
C1582 C1566 1.368 . S
C1582 C1578 1.368 . S
C1582 C1581 1.523 . S
H1583 C1558 0.950 . S
H1584 C1560 0.950 . S
H1585 C1561 0.949 . S
H1586 C1563 0.950 . S
H1587 C1565 0.950 . S
C1588 C1589 1.349 . S
C1588 C1590 1.327 . S
C1588 H1613 0.950 . S
C1589 C1588 1.349 . S
C1589 C1605 1.349 . S
C1590 C1588 1.327 . S
C1590 C1609 1.429 . S
C1590 H1614 0.950 . S
C1591 C1608 1.574 . S
C1591 C1610 1.368 . S
C1591 H1615 0.949 . S
H1592 C1596 0.949 1_554 S
C1593 C1594 1.349 . S
C1593 C1595 1.327 1_554 S
C1593 H1616 0.950 . S
C1594 C1593 1.349 . S
C1594 C1606 1.349 . S
C1595 C1593 1.327 1_556 S
C1595 C1611 1.425 1_556 S
C1595 H1617 0.950 . S
C1596 H1592 0.949 1_556 S
C1596 C1604 1.574 . S
C1596 C1612 1.368 . S
H1597 C1605 0.950 . S
H1598 C1603 0.950 . S
H1599 C1604 0.949 . S
H1600 C1606 0.950 . S
H1601 C1607 0.950 . S
H1602 C1608 0.949 . S
C1603 H1598 0.950 . S
C1603 C1605 1.327 . S
C1603 C1609 1.429 . S
C1604 C1596 1.574 . S
C1604 H1599 0.949 . S
C1604 C1610 1.368 . S
C1605 C1589 1.349 . S
C1605 H1597 0.950 . S
C1605 C1603 1.327 . S
C1606 C1594 1.349 . S
C1606 H1600 0.950 . S
C1606 C1607 1.327 . S
C1607 H1601 0.950 . S
C1607 C1606 1.327 . S
C1607 C1611 1.445 . S
C1608 C1591 1.574 . S
C1608 H1602 0.949 . S
C1608 C1612 1.368 . S
C1609 C1590 1.429 . S
C1609 C1603 1.429 . S
C1609 C1610 1.523 . S
C1610 C1591 1.368 . S
C1610 C1604 1.368 . S
C1610 C1609 1.523 . S
C1611 C1595 1.425 1_554 S
C1611 C1607 1.445 . S
C1611 C1612 1.512 1_554 S
C1612 C1596 1.368 . S
C1612 C1608 1.368 . S
C1612 C1611 1.512 1_556 S
H1613 C1588 0.950 . S
H1614 C1590 0.950 . S
H1615 C1591 0.949 . S
H1616 C1593 0.950 . S
H1617 C1595 0.950 . S
C1618 C1619 1.349 . S
C1618 C1620 1.327 . S
C1618 H1643 0.950 . S
C1619 C1618 1.349 . S
C1619 C1635 1.349 . S
C1620 C1618 1.327 . S
C1620 C1639 1.429 . S
C1620 H1644 0.950 . S
C1621 C1638 1.574 1_455 S
C1621 C1640 1.368 . S
C1621 H1645 0.949 . S
H1622 C1626 0.946 . S
C1623 C1624 1.349 . S
C1623 C1625 1.327 . S
C1623 H1646 0.950 . S
C1624 C1623 1.349 . S
C1624 C1636 1.349 . S
C1625 C1623 1.327 . S
C1625 C1641 1.429 . S
C1625 H1647 0.950 . S
C1626 H1622 0.946 . S
C1626 C1634 1.566 1_655 S
C1626 C1642 1.375 . S
H1627 C1635 0.950 . S
H1628 C1633 0.950 . S
H1629 C1634 0.949 . S
H1630 C1636 0.950 . S
H1631 C1637 0.950 . S
H1632 C1638 0.949 . S
C1633 H1628 0.950 . S
C1633 C1635 1.327 . S
C1633 C1639 1.429 . S
C1634 C1626 1.566 1_455 S
C1634 H1629 0.949 . S
C1634 C1640 1.368 . S
C1635 C1619 1.349 . S
C1635 H1627 0.950 . S
C1635 C1633 1.327 . S
C1636 C1624 1.349 . S
C1636 H1630 0.950 . S
C1636 C1637 1.327 . S
C1637 H1631 0.950 . S
C1637 C1636 1.327 . S
C1637 C1641 1.429 . S
C1638 C1621 1.574 1_655 S
C1638 H1632 0.949 . S
C1638 C1642 1.368 . S
C1639 C1620 1.429 . S
C1639 C1633 1.429 . S
C1639 C1640 1.523 . S
C1640 C1621 1.368 . S
C1640 C1634 1.368 . S
C1640 C1639 1.523 . S
C1641 C1625 1.429 . S
C1641 C1637 1.429 . S
C1641 C1642 1.523 . S
C1642 C1626 1.375 . S
C1642 C1638 1.368 . S
C1642 C1641 1.523 . S
H1643 C1618 0.950 . S
H1644 C1620 0.950 . S
H1645 C1621 0.949 . S
H1646 C1623 0.950 . S
H1647 C1625 0.950 . S
C1648 C1649 1.349 . S
C1648 C1650 1.327 . S
C1648 H1673 0.950 . S
C1649 C1648 1.349 . S
C1649 C1665 1.349 . S
C1650 C1648 1.327 . S
C1650 C1669 1.429 . S
C1650 H1674 0.950 . S
C1651 C1668 1.574 . S
C1651 C1670 1.368 . S
C1651 H1675 0.949 . S
H1652 C1656 0.949 1_554 S
C1653 C1654 1.349 . S
C1653 C1655 1.327 1_554 S
C1653 H1676 0.950 . S
C1654 C1653 1.349 . S
C1654 C1666 1.349 . S
C1655 C1653 1.327 1_556 S
C1655 C1671 1.425 1_556 S
C1655 H1677 0.950 . S
C1656 H1652 0.949 1_556 S
C1656 C1664 1.574 . S
C1656 C1672 1.368 . S
H1657 C1665 0.950 . S
H1658 C1663 0.950 . S
H1659 C1664 0.949 . S
H1660 C1666 0.950 . S
H1661 C1667 0.950 . S
H1662 C1668 0.949 . S
C1663 H1658 0.950 . S
C1663 C1665 1.327 . S
C1663 C1669 1.429 . S
C1664 C1656 1.574 . S
C1664 H1659 0.949 . S
C1664 C1670 1.368 . S
C1665 C1649 1.349 . S
C1665 H1657 0.950 . S
C1665 C1663 1.327 . S
C1666 C1654 1.349 . S
C1666 H1660 0.950 . S
C1666 C1667 1.327 . S
C1667 H1661 0.950 . S
C1667 C1666 1.327 . S
C1667 C1671 1.445 . S
C1668 C1651 1.574 . S
C1668 H1662 0.949 . S
C1668 C1672 1.368 . S
C1669 C1650 1.429 . S
C1669 C1663 1.429 . S
C1669 C1670 1.523 . S
C1670 C1651 1.368 . S
C1670 C1664 1.368 . S
C1670 C1669 1.523 . S
C1671 C1655 1.425 1_554 S
C1671 C1667 1.445 . S
C1671 C1672 1.512 1_554 S
C1672 C1656 1.368 . S
C1672 C1668 1.368 . S
C1672 C1671 1.512 1_556 S
H1673 C1648 0.950 . S
H1674 C1650 0.950 . S
H1675 C1651 0.949 . S
H1676 C1653 0.950 . S
H1677 C1655 0.950 . S
C1678 C1679 1.349 . S
C1678 C1680 1.327 . S
C1678 H1703 0.950 . S
C1679 C1678 1.349 . S
C1679 C1695 1.349 . S
C1680 C1678 1.327 . S
C1680 C1699 1.429 . S
C1680 H1704 0.950 . S
C1681 C1698 1.571 1_455 S
C1681 C1700 1.371 . S
C1681 H1705 0.947 . S
H1682 C1686 0.949 . S
C1683 C1684 1.349 . S
C1683 C1685 1.327 . S
C1683 H1706 0.950 . S
C1684 C1683 1.349 . S
C1684 C1696 1.349 . S
C1685 C1683 1.327 . S
C1685 C1701 1.429 . S
C1685 H1707 0.950 . S
C1686 H1682 0.949 . S
C1686 C1694 1.574 1_655 S
C1686 C1702 1.368 . S
H1687 C1695 0.950 . S
H1688 C1693 0.950 . S
H1689 C1694 0.949 . S
H1690 C1696 0.950 . S
H1691 C1697 0.950 . S
H1692 C1698 0.949 . S
C1693 H1688 0.950 . S
C1693 C1695 1.327 . S
C1693 C1699 1.429 . S
C1694 C1686 1.574 1_455 S
C1694 H1689 0.949 . S
C1694 C1700 1.368 . S
C1695 C1679 1.349 . S
C1695 H1687 0.950 . S
C1695 C1693 1.327 . S
C1696 C1684 1.349 . S
C1696 H1690 0.950 . S
C1696 C1697 1.327 . S
C1697 H1691 0.950 . S
C1697 C1696 1.327 . S
C1697 C1701 1.429 . S
C1698 C1681 1.571 1_655 S
C1698 H1692 0.949 . S
C1698 C1702 1.368 . S
C1699 C1680 1.429 . S
C1699 C1693 1.429 . S
C1699 C1700 1.523 . S
C1700 C1681 1.371 . S
C1700 C1694 1.368 . S
C1700 C1699 1.523 . S
C1701 C1685 1.429 . S
C1701 C1697 1.429 . S
C1701 C1702 1.523 . S
C1702 C1686 1.368 . S
C1702 C1698 1.368 . S
C1702 C1701 1.523 . S
H1703 C1678 0.950 . S
H1704 C1680 0.950 . S
H1705 C1681 0.947 . S
H1706 C1683 0.950 . S
H1707 C1685 0.950 . S
C1708 C1709 1.349 . S
C1708 C1710 1.327 . S
C1708 H1733 0.950 . S
C1709 C1708 1.349 . S
C1709 C1725 1.349 . S
C1710 C1708 1.327 . S
C1710 C1729 1.429 . S
C1710 H1734 0.950 . S
C1711 C1728 1.574 . S
C1711 C1730 1.368 . S
C1711 H1735 0.949 . S
H1712 C1716 0.949 . S
C1713 C1714 1.349 . S
C1713 C1715 1.327 . S
C1713 H1736 0.950 . S
C1714 C1713 1.349 . S
C1714 C1726 1.349 . S
C1715 C1713 1.327 . S
C1715 C1731 1.429 . S
C1715 H1737 0.950 . S
C1716 H1712 0.949 . S
C1716 C1724 1.574 . S
C1716 C1732 1.368 . S
H1717 C1725 0.950 . S
H1718 C1723 0.950 . S
H1719 C1724 0.949 . S
H1720 C1726 0.950 . S
H1721 C1727 0.950 . S
H1722 C1728 0.949 . S
C1723 H1718 0.950 . S
C1723 C1725 1.327 . S
C1723 C1729 1.429 . S
C1724 C1716 1.574 . S
C1724 H1719 0.949 . S
C1724 C1730 1.368 . S
C1725 C1709 1.349 . S
C1725 H1717 0.950 . S
C1725 C1723 1.327 . S
C1726 C1714 1.349 . S
C1726 H1720 0.950 . S
C1726 C1727 1.327 . S
C1727 H1721 0.950 . S
C1727 C1726 1.327 . S
C1727 C1731 1.429 . S
C1728 C1711 1.574 . S
C1728 H1722 0.949 . S
C1728 C1732 1.368 . S
C1729 C1710 1.429 . S
C1729 C1723 1.429 . S
C1729 C1730 1.523 . S
C1730 C1711 1.368 . S
C1730 C1724 1.368 . S
C1730 C1729 1.523 . S
C1731 C1715 1.429 . S
C1731 C1727 1.429 . S
C1731 C1732 1.523 . S
C1732 C1716 1.368 . S
C1732 C1728 1.368 . S
C1732 C1731 1.523 . S
H1733 C1708 0.950 . S
H1734 C1710 0.950 . S
H1735 C1711 0.949 . S
H1736 C1713 0.950 . S
H1737 C1715 0.950 . S
C1738 C1739 1.349 . S
C1738 C1740 1.327 . S
C1738 H1763 0.950 . S
C1739 C1738 1.349 . S
C1739 C1755 1.349 . S
C1740 C1738 1.327 . S
C1740 C1759 1.429 . S
C1740 H1764 0.950 . S
C1741 C1758 1.574 . S
C1741 C1760 1.368 . S
C1741 H1765 0.949 . S
H1742 C1746 0.949 . S
C1743 C1744 1.349 . S
C1743 C1745 1.327 . S
C1743 H1766 0.950 . S
C1744 C1743 1.349 . S
C1744 C1756 1.349 . S
C1745 C1743 1.327 . S
C1745 C1761 1.429 . S
C1745 H1767 0.950 . S
C1746 H1742 0.949 . S
C1746 C1754 1.574 . S
C1746 C1762 1.368 . S
H1747 C1755 0.950 . S
H1748 C1753 0.950 . S
H1749 C1754 0.949 . S
H1750 C1756 0.950 . S
H1751 C1757 0.950 . S
H1752 C1758 0.949 . S
C1753 H1748 0.950 . S
C1753 C1755 1.327 . S
C1753 C1759 1.429 . S
C1754 C1746 1.574 . S
C1754 H1749 0.949 . S
C1754 C1760 1.368 . S
C1755 C1739 1.349 . S
C1755 H1747 0.950 . S
C1755 C1753 1.327 . S
C1756 C1744 1.349 . S
C1756 H1750 0.950 . S
C1756 C1757 1.327 . S
C1757 H1751 0.950 . S
C1757 C1756 1.327 . S
C1757 C1761 1.429 . S
C1758 C1741 1.574 . S
C1758 H1752 0.949 . S
C1758 C1762 1.368 . S
C1759 C1740 1.429 . S
C1759 C1753 1.429 . S
C1759 C1760 1.523 . S
C1760 C1741 1.368 . S
C1760 C1754 1.368 . S
C1760 C1759 1.523 . S
C1761 C1745 1.429 . S
C1761 C1757 1.429 . S
C1761 C1762 1.523 . S
C1762 C1746 1.368 . S
C1762 C1758 1.368 . S
C1762 C1761 1.523 . S
H1763 C1738 0.950 . S
H1764 C1740 0.950 . S
H1765 C1741 0.949 . S
H1766 C1743 0.950 . S
H1767 C1745 0.950 . S
C1768 C1769 1.349 . S
C1768 C1770 1.327 . S
C1768 H1793 0.950 . S
C1769 C1768 1.349 . S
C1769 C1785 1.349 . S
C1770 C1768 1.327 . S
C1770 C1789 1.429 . S
C1770 H1794 0.950 . S
C1771 C1788 1.574 . S
C1771 C1790 1.368 . S
C1771 H1795 0.949 . S
H1772 C1776 0.949 . S
C1773 C1774 1.349 . S
C1773 C1775 1.327 . S
C1773 H1796 0.950 . S
C1774 C1773 1.349 . S
C1774 C1786 1.349 . S
C1775 C1773 1.327 . S
C1775 C1791 1.429 . S
C1775 H1797 0.950 . S
C1776 H1772 0.949 . S
C1776 C1784 1.574 . S
C1776 C1792 1.368 . S
H1777 C1785 0.950 . S
H1778 C1783 0.950 . S
H1779 C1784 0.949 . S
H1780 C1786 0.950 . S
H1781 C1787 0.950 . S
H1782 C1788 0.949 . S
C1783 H1778 0.950 . S
C1783 C1785 1.327 . S
C1783 C1789 1.429 . S
C1784 C1776 1.574 . S
C1784 H1779 0.949 . S
C1784 C1790 1.368 . S
C1785 C1769 1.349 . S
C1785 H1777 0.950 . S
C1785 C1783 1.327 . S
C1786 C1774 1.349 . S
C1786 H1780 0.950 . S
C1786 C1787 1.327 . S
C1787 H1781 0.950 . S
C1787 C1786 1.327 . S
C1787 C1791 1.429 . S
C1788 C1771 1.574 . S
C1788 H1782 0.949 . S
C1788 C1792 1.368 . S
C1789 C1770 1.429 . S
C1789 C1783 1.429 . S
C1789 C1790 1.523 . S
C1790 C1771 1.368 . S
C1790 C1784 1.368 . S
C1790 C1789 1.523 . S
C1791 C1775 1.429 . S
C1791 C1787 1.429 . S
C1791 C1792 1.523 . S
C1792 C1776 1.368 . S
C1792 C1788 1.368 . S
C1792 C1791 1.523 . S
H1793 C1768 0.950 . S
H1794 C1770 0.950 . S
H1795 C1771 0.949 . S
H1796 C1773 0.950 . S
H1797 C1775 0.950 . S
C1798 C1799 1.349 . S
C1798 C1800 1.327 . S
C1798 H1823 0.950 . S
C1799 C1798 1.349 . S
C1799 C1815 1.349 . S
C1800 C1798 1.327 . S
C1800 C1819 1.429 . S
C1800 H1824 0.950 . S
C1801 C1818 1.574 . S
C1801 C1820 1.368 . S
C1801 H1825 0.949 . S
H1802 C1806 0.949 . S
C1803 C1804 1.349 . S
C1803 C1805 1.327 . S
C1803 H1826 0.950 . S
C1804 C1803 1.349 . S
C1804 C1816 1.349 . S
C1805 C1803 1.327 . S
C1805 C1821 1.429 . S
C1805 H1827 0.950 . S
C1806 H1802 0.949 . S
C1806 C1814 1.574 . S
C1806 C1822 1.368 . S
H1807 C1815 0.950 . S
H1808 C1813 0.950 . S
H1809 C1814 0.949 . S
H1810 C1816 0.950 . S
H1811 C1817 0.950 . S
H1812 C1818 0.949 . S
C1813 H1808 0.950 . S
C1813 C1815 1.327 . S
C1813 C1819 1.429 . S
C1814 C1806 1.574 . S
C1814 H1809 0.949 . S
C1814 C1820 1.368 . S
C1815 C1799 1.349 . S
C1815 H1807 0.950 . S
C1815 C1813 1.327 . S
C1816 C1804 1.349 . S
C1816 H1810 0.950 . S
C1816 C1817 1.327 . S
C1817 H1811 0.950 . S
C1817 C1816 1.327 . S
C1817 C1821 1.429 . S
C1818 C1801 1.574 . S
C1818 H1812 0.949 . S
C1818 C1822 1.368 . S
C1819 C1800 1.429 . S
C1819 C1813 1.429 . S
C1819 C1820 1.523 . S
C1820 C1801 1.368 . S
C1820 C1814 1.368 . S
C1820 C1819 1.523 . S
C1821 C1805 1.429 . S
C1821 C1817 1.429 . S
C1821 C1822 1.523 . S
C1822 C1806 1.368 . S
C1822 C1818 1.368 . S
C1822 C1821 1.523 . S
H1823 C1798 0.950 . S
H1824 C1800 0.950 . S
H1825 C1801 0.949 . S
H1826 C1803 0.950 . S
H1827 C1805 0.950 . S
C1828 C1829 1.349 . S
C1828 C1830 1.327 . S
C1828 H1853 0.950 . S
C1829 C1828 1.349 . S
C1829 C1845 1.349 . S
C1830 C1828 1.327 . S
C1830 C1849 1.429 . S
C1830 H1854 0.950 . S
C1831 C1848 1.574 . S
C1831 C1850 1.368 . S
C1831 H1855 0.949 . S
H1832 C1836 0.949 . S
C1833 C1834 1.349 . S
C1833 C1835 1.327 . S
C1833 H1856 0.950 . S
C1834 C1833 1.349 . S
C1834 C1846 1.349 . S
C1835 C1833 1.327 . S
C1835 C1851 1.439 . S
C1835 H1857 0.950 . S
C1836 H1832 0.949 . S
C1836 C1844 1.574 . S
C1836 C1852 1.368 . S
H1837 C1845 0.950 . S
H1838 C1843 0.950 . S
H1839 C1844 0.949 . S
H1840 C1846 0.950 . S
H1841 C1847 0.950 1_554 S
H1842 C1848 0.949 . S
C1843 H1838 0.950 . S
C1843 C1845 1.327 . S
C1843 C1849 1.429 . S
C1844 C1836 1.574 . S
C1844 H1839 0.949 . S
C1844 C1850 1.368 . S
C1845 C1829 1.349 . S
C1845 H1837 0.950 . S
C1845 C1843 1.327 . S
C1846 C1834 1.349 . S
C1846 H1840 0.950 . S
C1846 C1847 1.327 . S
C1847 H1841 0.950 1_556 S
C1847 C1846 1.327 . S
C1847 C1851 1.431 . S
C1848 C1831 1.574 . S
C1848 H1842 0.949 . S
C1848 C1852 1.368 . S
C1849 C1830 1.429 . S
C1849 C1843 1.429 . S
C1849 C1850 1.523 . S
C1850 C1831 1.368 . S
C1850 C1844 1.368 . S
C1850 C1849 1.523 . S
C1851 C1835 1.439 . S
C1851 C1847 1.431 . S
C1851 C1852 1.512 1_556 S
C1852 C1836 1.368 . S
C1852 C1848 1.368 . S
C1852 C1851 1.512 1_554 S
H1853 C1828 0.950 . S
H1854 C1830 0.950 . S
H1855 C1831 0.949 . S
H1856 C1833 0.950 . S
H1857 C1835 0.950 . S
C1858 C1859 1.349 . S
C1858 C1860 1.327 . S
C1858 H1883 0.950 . S
C1859 C1858 1.349 . S
C1859 C1875 1.349 . S
C1860 C1858 1.327 . S
C1860 C1879 1.429 . S
C1860 H1884 0.950 . S
C1861 C1878 1.563 1_455 S
C1861 C1880 1.378 . S
C1861 H1885 0.946 . S
H1862 C1866 0.949 . S
C1863 C1864 1.349 . S
C1863 C1865 1.327 . S
C1863 H1886 0.950 . S
C1864 C1863 1.349 . S
C1864 C1876 1.349 . S
C1865 C1863 1.327 . S
C1865 C1881 1.429 . S
C1865 H1887 0.950 . S
C1866 H1862 0.949 . S
C1866 C1874 1.574 1_655 S
C1866 C1882 1.368 . S
H1867 C1875 0.950 . S
H1868 C1873 0.950 . S
H1869 C1874 0.949 . S
H1870 C1876 0.950 . S
H1871 C1877 0.950 . S
H1872 C1878 0.949 . S
C1873 H1868 0.950 . S
C1873 C1875 1.327 . S
C1873 C1879 1.429 . S
C1874 C1866 1.574 1_455 S
C1874 H1869 0.949 . S
C1874 C1880 1.368 . S
C1875 C1859 1.349 . S
C1875 H1867 0.950 . S
C1875 C1873 1.327 . S
C1876 C1864 1.349 . S
C1876 H1870 0.950 . S
C1876 C1877 1.327 . S
C1877 H1871 0.950 . S
C1877 C1876 1.327 . S
C1877 C1881 1.429 . S
C1878 C1861 1.563 1_655 S
C1878 H1872 0.949 . S
C1878 C1882 1.368 . S
C1879 C1860 1.429 . S
C1879 C1873 1.429 . S
C1879 C1880 1.523 . S
C1880 C1861 1.378 . S
C1880 C1874 1.368 . S
C1880 C1879 1.523 . S
C1881 C1865 1.429 . S
C1881 C1877 1.429 . S
C1881 C1882 1.523 . S
C1882 C1866 1.368 . S
C1882 C1878 1.368 . S
C1882 C1881 1.523 . S
H1883 C1858 0.950 . S
H1884 C1860 0.950 . S
H1885 C1861 0.946 . S
H1886 C1863 0.950 . S
H1887 C1865 0.950 . S
C1888 C1889 1.349 . S
C1888 C1890 1.327 . S
C1888 H1913 0.950 . S
C1889 C1888 1.349 . S
C1889 C1905 1.349 . S
C1890 C1888 1.327 . S
C1890 C1909 1.429 . S
C1890 H1914 0.950 . S
C1891 C1908 1.574 . S
C1891 C1910 1.368 . S
C1891 H1915 0.949 . S
H1892 C1896 0.949 . S
C1893 C1894 1.349 . S
C1893 C1895 1.327 . S
C1893 H1916 0.950 . S
C1894 C1893 1.349 . S
C1894 C1906 1.349 . S
C1895 C1893 1.327 . S
C1895 C1911 1.429 . S
C1895 H1917 0.950 . S
C1896 H1892 0.949 . S
C1896 C1904 1.574 . S
C1896 C1912 1.368 . S
H1897 C1905 0.950 . S
H1898 C1903 0.950 . S
H1899 C1904 0.949 . S
H1900 C1906 0.950 . S
H1901 C1907 0.950 . S
H1902 C1908 0.949 . S
C1903 H1898 0.950 . S
C1903 C1905 1.327 . S
C1903 C1909 1.429 . S
C1904 C1896 1.574 . S
C1904 H1899 0.949 . S
C1904 C1910 1.368 . S
C1905 C1889 1.349 . S
C1905 H1897 0.950 . S
C1905 C1903 1.327 . S
C1906 C1894 1.349 . S
C1906 H1900 0.950 . S
C1906 C1907 1.327 . S
C1907 H1901 0.950 . S
C1907 C1906 1.327 . S
C1907 C1911 1.429 . S
C1908 C1891 1.574 . S
C1908 H1902 0.949 . S
C1908 C1912 1.368 . S
C1909 C1890 1.429 . S
C1909 C1903 1.429 . S
C1909 C1910 1.523 . S
C1910 C1891 1.368 . S
C1910 C1904 1.368 . S
C1910 C1909 1.523 . S
C1911 C1895 1.429 . S
C1911 C1907 1.429 . S
C1911 C1912 1.523 . S
C1912 C1896 1.368 . S
C1912 C1908 1.368 . S
C1912 C1911 1.523 . S
H1913 C1888 0.950 . S
H1914 C1890 0.950 . S
H1915 C1891 0.949 . S
H1916 C1893 0.950 . S
H1917 C1895 0.950 . S
C1918 C1919 1.349 . S
C1918 C1920 1.327 . S
C1918 H1943 0.950 . S
C1919 C1918 1.349 . S
C1919 C1935 1.349 . S
C1920 C1918 1.327 . S
C1920 C1939 1.429 . S
C1920 H1944 0.950 . S
C1921 C1938 1.574 . S
C1921 C1940 1.368 . S
C1921 H1945 0.949 . S
H1922 C1926 0.949 . S
C1923 C1924 1.349 . S
C1923 C1925 1.327 . S
C1923 H1946 0.950 . S
C1924 C1923 1.349 . S
C1924 C1936 1.349 . S
C1925 C1923 1.327 . S
C1925 C1941 1.429 . S
C1925 H1947 0.950 . S
C1926 H1922 0.949 . S
C1926 C1934 1.574 . S
C1926 C1942 1.368 . S
H1927 C1935 0.950 . S
H1928 C1933 0.950 . S
H1929 C1934 0.949 . S
H1930 C1936 0.950 . S
H1931 C1937 0.950 . S
H1932 C1938 0.949 . S
C1933 H1928 0.950 . S
C1933 C1935 1.327 . S
C1933 C1939 1.429 . S
C1934 C1926 1.574 . S
C1934 H1929 0.949 . S
C1934 C1940 1.368 . S
C1935 C1919 1.349 . S
C1935 H1927 0.950 . S
C1935 C1933 1.327 . S
C1936 C1924 1.349 . S
C1936 H1930 0.950 . S
C1936 C1937 1.327 . S
C1937 H1931 0.950 . S
C1937 C1936 1.327 . S
C1937 C1941 1.429 . S
C1938 C1921 1.574 . S
C1938 H1932 0.949 . S
C1938 C1942 1.368 . S
C1939 C1920 1.429 . S
C1939 C1933 1.429 . S
C1939 C1940 1.523 . S
C1940 C1921 1.368 . S
C1940 C1934 1.368 . S
C1940 C1939 1.523 . S
C1941 C1925 1.429 . S
C1941 C1937 1.429 . S
C1941 C1942 1.523 . S
C1942 C1926 1.368 . S
C1942 C1938 1.368 . S
C1942 C1941 1.523 . S
H1943 C1918 0.950 . S
H1944 C1920 0.950 . S
H1945 C1921 0.949 . S
H1946 C1923 0.950 . S
H1947 C1925 0.950 . S
C1948 C1949 1.349 . S
C1948 C1950 1.327 . S
C1948 H1973 0.950 . S
C1949 C1948 1.349 . S
C1949 C1965 1.349 . S
C1950 C1948 1.327 . S
C1950 C1969 1.429 . S
C1950 H1974 0.950 . S
C1951 C1968 1.574 . S
C1951 C1970 1.368 . S
C1951 H1975 0.949 . S
H1952 C1956 0.949 1_556 S
C1953 C1954 1.349 . S
C1953 C1955 1.327 1_556 S
C1953 H1976 0.950 . S
C1954 C1953 1.349 . S
C1954 C1966 1.349 . S
C1955 C1953 1.327 1_554 S
C1955 C1971 1.425 1_554 S
C1955 H1977 0.950 . S
C1956 H1952 0.949 1_554 S
C1956 C1964 1.574 . S
C1956 C1972 1.368 . S
H1957 C1965 0.950 . S
H1958 C1963 0.950 . S
H1959 C1964 0.949 . S
H1960 C1966 0.950 . S
H1961 C1967 0.950 . S
H1962 C1968 0.949 . S
C1963 H1958 0.950 . S
C1963 C1965 1.327 . S
C1963 C1969 1.429 . S
C1964 C1956 1.574 . S
C1964 H1959 0.949 . S
C1964 C1970 1.368 . S
C1965 C1949 1.349 . S
C1965 H1957 0.950 . S
C1965 C1963 1.327 . S
C1966 C1954 1.349 . S
C1966 H1960 0.950 . S
C1966 C1967 1.327 . S
C1967 H1961 0.950 . S
C1967 C1966 1.327 . S
C1967 C1971 1.444 . S
C1968 C1951 1.574 . S
C1968 H1962 0.949 . S
C1968 C1972 1.368 . S
C1969 C1950 1.429 . S
C1969 C1963 1.429 . S
C1969 C1970 1.523 . S
C1970 C1951 1.368 . S
C1970 C1964 1.368 . S
C1970 C1969 1.523 . S
C1971 C1955 1.425 1_556 S
C1971 C1967 1.444 . S
C1971 C1972 1.512 1_556 S
C1972 C1956 1.368 . S
C1972 C1968 1.368 . S
C1972 C1971 1.512 1_554 S
H1973 C1948 0.950 . S
H1974 C1950 0.950 . S
H1975 C1951 0.949 . S
H1976 C1953 0.950 . S
H1977 C1955 0.950 . S
C1978 C1979 1.349 . S
C1978 C1980 1.327 . S
C1978 H2003 0.950 . S
C1979 C1978 1.349 . S
C1979 C1995 1.349 . S
C1980 C1978 1.327 . S
C1980 C1999 1.429 . S
C1980 H2004 0.950 . S
C1981 C1998 1.574 1_655 S
C1981 C2000 1.368 . S
C1981 H2005 0.949 . S
H1982 C1986 0.946 . S
C1983 C1984 1.349 . S
C1983 C1985 1.327 . S
C1983 H2006 0.950 . S
C1984 C1983 1.349 . S
C1984 C1996 1.349 . S
C1985 C1983 1.327 . S
C1985 C2001 1.429 . S
C1985 H2007 0.950 . S
C1986 H1982 0.946 . S
C1986 C1994 1.567 1_455 S
C1986 C2002 1.374 . S
H1987 C1995 0.950 . S
H1988 C1993 0.950 . S
H1989 C1994 0.949 . S
H1990 C1996 0.950 . S
H1991 C1997 0.950 . S
H1992 C1998 0.949 . S
C1993 H1988 0.950 . S
C1993 C1995 1.327 . S
C1993 C1999 1.429 . S
C1994 C1986 1.567 1_655 S
C1994 H1989 0.949 . S
C1994 C2000 1.368 . S
C1995 C1979 1.349 . S
C1995 H1987 0.950 . S
C1995 C1993 1.327 . S
C1996 C1984 1.349 . S
C1996 H1990 0.950 . S
C1996 C1997 1.327 . S
C1997 H1991 0.950 . S
C1997 C1996 1.327 . S
C1997 C2001 1.429 . S
C1998 C1981 1.574 1_455 S
C1998 H1992 0.949 . S
C1998 C2002 1.368 . S
C1999 C1980 1.429 . S
C1999 C1993 1.429 . S
C1999 C2000 1.523 . S
C2000 C1981 1.368 . S
C2000 C1994 1.368 . S
C2000 C1999 1.523 . S
C2001 C1985 1.429 . S
C2001 C1997 1.429 . S
C2001 C2002 1.523 . S
C2002 C1986 1.374 . S
C2002 C1998 1.368 . S
C2002 C2001 1.523 . S
H2003 C1978 0.950 . S
H2004 C1980 0.950 . S
H2005 C1981 0.949 . S
H2006 C1983 0.950 . S
H2007 C1985 0.950 . S
C2008 C2009 1.349 . S
C2008 C2010 1.327 . S
C2008 H2033 0.950 . S
C2009 C2008 1.349 . S
C2009 C2025 1.349 . S
C2010 C2008 1.327 . S
C2010 C2029 1.429 . S
C2010 H2034 0.950 . S
C2011 C2028 1.574 . S
C2011 C2030 1.368 . S
C2011 H2035 0.949 . S
H2012 C2016 0.949 1_554 S
C2013 C2014 1.349 . S
C2013 C2015 1.327 1_554 S
C2013 H2036 0.950 . S
C2014 C2013 1.349 . S
C2014 C2026 1.349 . S
C2015 C2013 1.327 1_556 S
C2015 C2031 1.426 1_556 S
C2015 H2037 0.950 . S
C2016 H2012 0.949 1_556 S
C2016 C2024 1.574 . S
C2016 C2032 1.368 . S
H2017 C2025 0.950 . S
H2018 C2023 0.950 . S
H2019 C2024 0.949 . S
H2020 C2026 0.950 . S
H2021 C2027 0.950 . S
H2022 C2028 0.949 . S
C2023 H2018 0.950 . S
C2023 C2025 1.327 . S
C2023 C2029 1.429 . S
C2024 C2016 1.574 . S
C2024 H2019 0.949 . S
C2024 C2030 1.368 . S
C2025 C2009 1.349 . S
C2025 H2017 0.950 . S
C2025 C2023 1.327 . S
C2026 C2014 1.349 . S
C2026 H2020 0.950 . S
C2026 C2027 1.327 . S
C2027 H2021 0.950 . S
C2027 C2026 1.327 . S
C2027 C2031 1.444 . S
C2028 C2011 1.574 . S
C2028 H2022 0.949 . S
C2028 C2032 1.368 . S
C2029 C2010 1.429 . S
C2029 C2023 1.429 . S
C2029 C2030 1.523 . S
C2030 C2011 1.368 . S
C2030 C2024 1.368 . S
C2030 C2029 1.523 . S
C2031 C2015 1.426 1_554 S
C2031 C2027 1.444 . S
C2031 C2032 1.512 1_554 S
C2032 C2016 1.368 . S
C2032 C2028 1.368 . S
C2032 C2031 1.512 1_556 S
H2033 C2008 0.950 . S
H2034 C2010 0.950 . S
H2035 C2011 0.949 . S
H2036 C2013 0.950 . S
H2037 C2015 0.950 . S
C2038 C2039 1.349 . S
C2038 C2040 1.327 . S
C2038 H2063 0.946 1_554 S
C2039 C2038 1.349 . S
C2039 C2055 1.349 . S
C2040 C2038 1.327 . S
C2040 C2059 1.429 . S
C2040 H2064 0.950 . S
C2041 C2058 1.597 . S
C2041 C2060 1.368 . S
C2041 H2065 0.949 . S
H2042 C2046 0.949 . S
C2043 C2044 1.349 . S
C2043 C2045 1.327 . S
C2043 H2066 0.950 . S
C2044 C2043 1.349 . S
C2044 C2056 1.349 . S
C2045 C2043 1.327 . S
C2045 C2061 1.429 . S
C2045 H2067 0.950 . S
C2046 H2042 0.949 . S
C2046 C2054 1.525 1_455 S
C2046 C2062 1.368 . S
H2047 C2055 0.950 . S
H2048 C2053 0.950 . S
H2049 C2054 0.954 . S
H2050 C2056 0.950 . S
H2051 C2057 0.950 . S
H2052 C2058 0.948 . S
C2053 H2048 0.950 . S
C2053 C2055 1.327 . S
C2053 C2059 1.429 . S
C2054 C2046 1.525 1_655 S
C2054 H2049 0.954 . S
C2054 C2060 1.416 . S
C2055 C2039 1.349 . S
C2055 H2047 0.950 . S
C2055 C2053 1.327 . S
C2056 C2044 1.349 . S
C2056 H2050 0.950 . S
C2056 C2057 1.327 . S
C2057 H2051 0.950 . S
C2057 C2056 1.327 . S
C2057 C2061 1.429 . S
C2058 C2041 1.597 . S
C2058 H2052 0.948 . S
C2058 C2062 1.346 1_655 S
C2059 C2040 1.429 . S
C2059 C2053 1.429 . S
C2059 C2060 1.523 . S
C2060 C2041 1.368 . S
C2060 C2054 1.416 . S
C2060 C2059 1.523 . S
C2061 C2045 1.429 . S
C2061 C2057 1.429 . S
C2061 C2062 1.523 . S
C2062 C2046 1.368 . S
C2062 C2058 1.346 1_455 S
C2062 C2061 1.523 . S
H2063 C2038 0.946 1_556 S
H2064 C2040 0.950 . S
H2065 C2041 0.949 . S
H2066 C2043 0.950 . S
H2067 C2045 0.950 . S
C2068 C2069 1.349 . S
C2068 C2070 1.327 . S
C2068 H2093 0.950 . S
C2069 C2068 1.349 . S
C2069 C2085 1.349 . S
C2070 C2068 1.327 . S
C2070 C2089 1.429 . S
C2070 H2094 0.950 . S
C2071 C2088 1.574 . S
C2071 C2090 1.368 . S
C2071 H2095 0.949 . S
H2072 C2076 0.949 . S
C2073 C2074 1.349 . S
C2073 C2075 1.327 . S
C2073 H2096 0.950 . S
C2074 C2073 1.349 . S
C2074 C2086 1.349 . S
C2075 C2073 1.327 . S
C2075 C2091 1.429 . S
C2075 H2097 0.950 . S
C2076 H2072 0.949 . S
C2076 C2084 1.574 . S
C2076 C2092 1.368 . S
H2077 C2085 0.950 . S
H2078 C2083 0.950 . S
H2079 C2084 0.949 . S
H2080 C2086 0.950 . S
H2081 C2087 0.950 . S
H2082 C2088 0.949 . S
C2083 H2078 0.950 . S
C2083 C2085 1.327 . S
C2083 C2089 1.429 . S
C2084 C2076 1.574 . S
C2084 H2079 0.949 . S
C2084 C2090 1.368 . S
C2085 C2069 1.349 . S
C2085 H2077 0.950 . S
C2085 C2083 1.327 . S
C2086 C2074 1.349 . S
C2086 H2080 0.950 . S
C2086 C2087 1.327 . S
C2087 H2081 0.950 . S
C2087 C2086 1.327 . S
C2087 C2091 1.429 . S
C2088 C2071 1.574 . S
C2088 H2082 0.949 . S
C2088 C2092 1.368 . S
C2089 C2070 1.429 . S
C2089 C2083 1.429 . S
C2089 C2090 1.523 . S
C2090 C2071 1.368 . S
C2090 C2084 1.368 . S
C2090 C2089 1.523 . S
C2091 C2075 1.429 . S
C2091 C2087 1.429 . S
C2091 C2092 1.523 . S
C2092 C2076 1.368 . S
C2092 C2088 1.368 . S
C2092 C2091 1.523 . S
H2093 C2068 0.950 . S
H2094 C2070 0.950 . S
H2095 C2071 0.949 . S
H2096 C2073 0.950 . S
H2097 C2075 0.950 . S
C2098 C2099 1.349 . S
C2098 C2100 1.327 . S
C2098 H2123 0.950 . S
C2099 C2098 1.349 . S
C2099 C2115 1.349 . S
C2100 C2098 1.327 . S
C2100 C2119 1.429 . S
C2100 H2124 0.950 . S
C2101 C2118 1.574 . S
C2101 C2120 1.368 . S
C2101 H2125 0.949 . S
H2102 C2106 0.949 . S
C2103 C2104 1.349 . S
C2103 C2105 1.327 . S
C2103 H2126 0.950 . S
C2104 C2103 1.349 . S
C2104 C2116 1.349 . S
C2105 C2103 1.327 . S
C2105 C2121 1.429 . S
C2105 H2127 0.950 . S
C2106 H2102 0.949 . S
C2106 C2114 1.574 . S
C2106 C2122 1.368 . S
H2107 C2115 0.950 . S
H2108 C2113 0.950 . S
H2109 C2114 0.949 . S
H2110 C2116 0.950 . S
H2111 C2117 0.950 . S
H2112 C2118 0.949 . S
C2113 H2108 0.950 . S
C2113 C2115 1.327 . S
C2113 C2119 1.429 . S
C2114 C2106 1.574 . S
C2114 H2109 0.949 . S
C2114 C2120 1.368 . S
C2115 C2099 1.349 . S
C2115 H2107 0.950 . S
C2115 C2113 1.327 . S
C2116 C2104 1.349 . S
C2116 H2110 0.950 . S
C2116 C2117 1.327 . S
C2117 H2111 0.950 . S
C2117 C2116 1.327 . S
C2117 C2121 1.429 . S
C2118 C2101 1.574 . S
C2118 H2112 0.949 . S
C2118 C2122 1.368 . S
C2119 C2100 1.429 . S
C2119 C2113 1.429 . S
C2119 C2120 1.523 . S
C2120 C2101 1.368 . S
C2120 C2114 1.368 . S
C2120 C2119 1.523 . S
C2121 C2105 1.429 . S
C2121 C2117 1.429 . S
C2121 C2122 1.523 . S
C2122 C2106 1.368 . S
C2122 C2118 1.368 . S
C2122 C2121 1.523 . S
H2123 C2098 0.950 . S
H2124 C2100 0.950 . S
H2125 C2101 0.949 . S
H2126 C2103 0.950 . S
H2127 C2105 0.950 . S
C2128 C2129 1.349 . S
C2128 C2130 1.327 . S
C2128 H2153 0.950 . S
C2129 C2128 1.349 . S
C2129 C2145 1.349 . S
C2130 C2128 1.327 . S
C2130 C2149 1.429 . S
C2130 H2154 0.950 . S
C2131 C2148 1.574 . S
C2131 C2150 1.368 . S
C2131 H2155 0.949 . S
H2132 C2136 0.949 . S
C2133 C2134 1.349 . S
C2133 C2135 1.327 . S
C2133 H2156 0.950 . S
C2134 C2133 1.349 . S
C2134 C2146 1.349 . S
C2135 C2133 1.327 . S
C2135 C2151 1.429 . S
C2135 H2157 0.950 . S
C2136 H2132 0.949 . S
C2136 C2144 1.574 . S
C2136 C2152 1.368 . S
H2137 C2145 0.950 . S
H2138 C2143 0.950 . S
H2139 C2144 0.949 . S
H2140 C2146 0.950 . S
H2141 C2147 0.950 . S
H2142 C2148 0.949 . S
C2143 H2138 0.950 . S
C2143 C2145 1.327 . S
C2143 C2149 1.429 . S
C2144 C2136 1.574 . S
C2144 H2139 0.949 . S
C2144 C2150 1.368 . S
C2145 C2129 1.349 . S
C2145 H2137 0.950 . S
C2145 C2143 1.327 . S
C2146 C2134 1.349 . S
C2146 H2140 0.950 . S
C2146 C2147 1.327 . S
C2147 H2141 0.950 . S
C2147 C2146 1.327 . S
C2147 C2151 1.429 . S
C2148 C2131 1.574 . S
C2148 H2142 0.949 . S
C2148 C2152 1.368 . S
C2149 C2130 1.429 . S
C2149 C2143 1.429 . S
C2149 C2150 1.523 . S
C2150 C2131 1.368 . S
C2150 C2144 1.368 . S
C2150 C2149 1.523 . S
C2151 C2135 1.429 . S
C2151 C2147 1.429 . S
C2151 C2152 1.523 . S
C2152 C2136 1.368 . S
C2152 C2148 1.368 . S
C2152 C2151 1.523 . S
H2153 C2128 0.950 . S
H2154 C2130 0.950 . S
H2155 C2131 0.949 . S
H2156 C2133 0.950 . S
H2157 C2135 0.950 . S
C2158 C2159 1.349 . S
C2158 C2160 1.327 . S
C2158 H2183 0.950 . S
C2159 C2158 1.349 . S
C2159 C2175 1.349 . S
C2160 C2158 1.327 . S
C2160 C2179 1.429 . S
C2160 H2184 0.950 . S
C2161 C2178 1.574 . S
C2161 C2180 1.368 . S
C2161 H2185 0.949 . S
H2162 C2166 0.949 . S
C2163 C2164 1.349 . S
C2163 C2165 1.327 . S
C2163 H2186 0.950 . S
C2164 C2163 1.349 . S
C2164 C2176 1.349 . S
C2165 C2163 1.327 . S
C2165 C2181 1.429 . S
C2165 H2187 0.950 . S
C2166 H2162 0.949 . S
C2166 C2174 1.574 . S
C2166 C2182 1.368 . S
H2167 C2175 0.950 . S
H2168 C2173 0.950 . S
H2169 C2174 0.949 . S
H2170 C2176 0.950 . S
H2171 C2177 0.950 . S
H2172 C2178 0.949 . S
C2173 H2168 0.950 . S
C2173 C2175 1.327 . S
C2173 C2179 1.429 . S
C2174 C2166 1.574 . S
C2174 H2169 0.949 . S
C2174 C2180 1.368 . S
C2175 C2159 1.349 . S
C2175 H2167 0.950 . S
C2175 C2173 1.327 . S
C2176 C2164 1.349 . S
C2176 H2170 0.950 . S
C2176 C2177 1.327 . S
C2177 H2171 0.950 . S
C2177 C2176 1.327 . S
C2177 C2181 1.429 . S
C2178 C2161 1.574 . S
C2178 H2172 0.949 . S
C2178 C2182 1.368 . S
C2179 C2160 1.429 . S
C2179 C2173 1.429 . S
C2179 C2180 1.523 . S
C2180 C2161 1.368 . S
C2180 C2174 1.368 . S
C2180 C2179 1.523 . S
C2181 C2165 1.429 . S
C2181 C2177 1.429 . S
C2181 C2182 1.523 . S
C2182 C2166 1.368 . S
C2182 C2178 1.368 . S
C2182 C2181 1.523 . S
H2183 C2158 0.950 . S
H2184 C2160 0.950 . S
H2185 C2161 0.949 . S
H2186 C2163 0.950 . S
H2187 C2165 0.950 . S
C2188 C2189 1.349 . S
C2188 C2190 1.333 . S
C2188 H2213 0.950 . S
C2189 C2188 1.349 . S
C2189 C2205 1.349 . S
C2190 C2188 1.333 . S
C2190 C2209 1.429 . S
C2190 H2214 0.944 1_554 S
C2191 C2208 1.574 . S
C2191 C2210 1.368 . S
C2191 H2215 0.949 . S
H2192 C2196 0.949 . S
C2193 C2194 1.349 . S
C2193 C2195 1.327 . S
C2193 H2216 0.950 . S
C2194 C2193 1.349 . S
C2194 C2206 1.349 . S
C2195 C2193 1.327 . S
C2195 C2211 1.429 . S
C2195 H2217 0.950 . S
C2196 H2192 0.949 . S
C2196 C2204 1.574 . S
C2196 C2212 1.368 . S
H2197 C2205 0.950 . S
H2198 C2203 0.950 . S
H2199 C2204 0.949 . S
H2200 C2206 0.950 . S
H2201 C2207 0.950 . S
H2202 C2208 0.949 . S
C2203 H2198 0.950 . S
C2203 C2205 1.327 . S
C2203 C2209 1.441 . S
C2204 C2196 1.574 . S
C2204 H2199 0.949 . S
C2204 C2210 1.368 . S
C2205 C2189 1.349 . S
C2205 H2197 0.950 . S
C2205 C2203 1.327 . S
C2206 C2194 1.349 . S
C2206 H2200 0.950 . S
C2206 C2207 1.327 . S
C2207 H2201 0.950 . S
C2207 C2206 1.327 . S
C2207 C2211 1.429 . S
C2208 C2191 1.574 . S
C2208 H2202 0.949 . S
C2208 C2212 1.368 . S
C2209 C2190 1.429 . S
C2209 C2203 1.441 . S
C2209 C2210 1.512 1_554 S
C2210 C2191 1.368 . S
C2210 C2204 1.368 . S
C2210 C2209 1.512 1_556 S
C2211 C2195 1.429 . S
C2211 C2207 1.429 . S
C2211 C2212 1.523 . S
C2212 C2196 1.368 . S
C2212 C2208 1.368 . S
C2212 C2211 1.523 . S
H2213 C2188 0.950 . S
H2214 C2190 0.944 1_556 S
H2215 C2191 0.949 . S
H2216 C2193 0.950 . S
H2217 C2195 0.950 . S
C2218 C2219 1.349 . S
C2218 C2220 1.327 . S
C2218 H2243 0.950 . S
C2219 C2218 1.349 . S
C2219 C2235 1.349 . S
C2220 C2218 1.327 . S
C2220 C2239 1.429 . S
C2220 H2244 0.950 . S
C2221 C2238 1.557 1_455 S
C2221 C2240 1.368 . S
C2221 H2245 0.949 . S
H2222 C2226 0.949 . S
C2223 C2224 1.349 . S
C2223 C2225 1.327 . S
C2223 H2246 0.950 . S
C2224 C2223 1.349 . S
C2224 C2236 1.349 . S
C2225 C2223 1.327 . S
C2225 C2241 1.429 . S
C2225 H2247 0.950 . S
C2226 H2222 0.949 . S
C2226 C2234 1.574 1_655 S
C2226 C2242 1.368 . S
H2227 C2235 0.950 . S
H2228 C2233 0.950 . S
H2229 C2234 0.949 . S
H2230 C2236 0.950 . S
H2231 C2237 0.950 . S
H2232 C2238 0.951 . S
C2233 H2228 0.950 . S
C2233 C2235 1.327 . S
C2233 C2239 1.429 . S
C2234 C2226 1.574 1_455 S
C2234 H2229 0.949 . S
C2234 C2240 1.368 . S
C2235 C2219 1.349 . S
C2235 H2227 0.950 . S
C2235 C2233 1.327 . S
C2236 C2224 1.349 . S
C2236 H2230 0.950 . S
C2236 C2237 1.327 . S
C2237 H2231 0.950 . S
C2237 C2236 1.327 . S
C2237 C2241 1.429 . S
C2238 C2221 1.557 1_655 S
C2238 H2232 0.951 . S
C2238 C2242 1.383 . S
C2239 C2220 1.429 . S
C2239 C2233 1.429 . S
C2239 C2240 1.523 . S
C2240 C2221 1.368 . S
C2240 C2234 1.368 . S
C2240 C2239 1.523 . S
C2241 C2225 1.429 . S
C2241 C2237 1.429 . S
C2241 C2242 1.523 . S
C2242 C2226 1.368 . S
C2242 C2238 1.383 . S
C2242 C2241 1.523 . S
H2243 C2218 0.950 . S
H2244 C2220 0.950 . S
H2245 C2221 0.949 . S
H2246 C2223 0.950 . S
H2247 C2225 0.950 . S
C2248 C2249 1.349 . S
C2248 C2250 1.327 . S
C2248 H2273 0.950 . S
C2249 C2248 1.349 . S
C2249 C2265 1.349 . S
C2250 C2248 1.327 . S
C2250 C2269 1.429 . S
C2250 H2274 0.950 . S
C2251 C2268 1.574 . S
C2251 C2270 1.368 . S
C2251 H2275 0.949 . S
H2252 C2256 0.949 1_556 S
C2253 C2254 1.349 . S
C2253 C2255 1.327 1_556 S
C2253 H2276 0.950 . S
C2254 C2253 1.349 . S
C2254 C2266 1.349 . S
C2255 C2253 1.327 1_554 S
C2255 C2271 1.428 1_554 S
C2255 H2277 0.950 . S
C2256 H2252 0.949 1_554 S
C2256 C2264 1.574 . S
C2256 C2272 1.368 . S
H2257 C2265 0.950 . S
H2258 C2263 0.950 . S
H2259 C2264 0.949 . S
H2260 C2266 0.950 . S
H2261 C2267 0.950 . S
H2262 C2268 0.949 . S
C2263 H2258 0.950 . S
C2263 C2265 1.327 . S
C2263 C2269 1.429 . S
C2264 C2256 1.574 . S
C2264 H2259 0.949 . S
C2264 C2270 1.368 . S
C2265 C2249 1.349 . S
C2265 H2257 0.950 . S
C2265 C2263 1.327 . S
C2266 C2254 1.349 . S
C2266 H2260 0.950 . S
C2266 C2267 1.327 . S
C2267 H2261 0.950 . S
C2267 C2266 1.327 . S
C2267 C2271 1.442 . S
C2268 C2251 1.574 . S
C2268 H2262 0.949 . S
C2268 C2272 1.368 . S
C2269 C2250 1.429 . S
C2269 C2263 1.429 . S
C2269 C2270 1.523 . S
C2270 C2251 1.368 . S
C2270 C2264 1.368 . S
C2270 C2269 1.523 . S
C2271 C2255 1.428 1_556 S
C2271 C2267 1.442 . S
C2271 C2272 1.512 1_556 S
C2272 C2256 1.368 . S
C2272 C2268 1.368 . S
C2272 C2271 1.512 1_554 S
H2273 C2248 0.950 . S
H2274 C2250 0.950 . S
H2275 C2251 0.949 . S
H2276 C2253 0.950 . S
H2277 C2255 0.950 . S
C2278 C2279 1.349 . S
C2278 C2280 1.327 . S
C2278 H2303 0.950 . S
C2279 C2278 1.349 . S
C2279 C2295 1.349 . S
C2280 C2278 1.327 . S
C2280 C2299 1.429 . S
C2280 H2304 0.950 . S
C2281 C2298 1.574 1_655 S
C2281 C2300 1.368 . S
C2281 H2305 0.949 . S
H2282 C2286 0.949 . S
C2283 C2284 1.349 . S
C2283 C2285 1.327 . S
C2283 H2306 0.950 . S
C2284 C2283 1.349 . S
C2284 C2296 1.349 . S
C2285 C2283 1.327 . S
C2285 C2301 1.429 . S
C2285 H2307 0.950 . S
C2286 H2282 0.949 . S
C2286 C2294 1.566 1_455 S
C2286 C2302 1.368 . S
H2287 C2295 0.950 . S
H2288 C2293 0.950 . S
H2289 C2294 0.946 . S
H2290 C2296 0.950 . S
H2291 C2297 0.950 . S
H2292 C2298 0.949 . S
C2293 H2288 0.950 . S
C2293 C2295 1.327 . S
C2293 C2299 1.429 . S
C2294 C2286 1.566 1_655 S
C2294 H2289 0.946 . S
C2294 C2300 1.375 . S
C2295 C2279 1.349 . S
C2295 H2287 0.950 . S
C2295 C2293 1.327 . S
C2296 C2284 1.349 . S
C2296 H2290 0.950 . S
C2296 C2297 1.327 . S
C2297 H2291 0.950 . S
C2297 C2296 1.327 . S
C2297 C2301 1.429 . S
C2298 C2281 1.574 1_455 S
C2298 H2292 0.949 . S
C2298 C2302 1.368 . S
C2299 C2280 1.429 . S
C2299 C2293 1.429 . S
C2299 C2300 1.523 . S
C2300 C2281 1.368 . S
C2300 C2294 1.375 . S
C2300 C2299 1.523 . S
C2301 C2285 1.429 . S
C2301 C2297 1.429 . S
C2301 C2302 1.523 . S
C2302 C2286 1.368 . S
C2302 C2298 1.368 . S
C2302 C2301 1.523 . S
H2303 C2278 0.950 . S
H2304 C2280 0.950 . S
H2305 C2281 0.949 . S
H2306 C2283 0.950 . S
H2307 C2285 0.950 . S
C2308 C2309 1.349 . S
C2308 C2310 1.327 . S
C2308 H2333 0.950 . S
C2309 C2308 1.349 . S
C2309 C2325 1.349 . S
C2310 C2308 1.327 . S
C2310 C2329 1.429 . S
C2310 H2334 0.950 . S
C2311 C2328 1.574 . S
C2311 C2330 1.368 . S
C2311 H2335 0.949 . S
H2312 C2316 0.949 . S
C2313 C2314 1.349 . S
C2313 C2315 1.327 . S
C2313 H2336 0.950 . S
C2314 C2313 1.349 . S
C2314 C2326 1.349 . S
C2315 C2313 1.327 . S
C2315 C2331 1.429 . S
C2315 H2337 0.950 . S
C2316 H2312 0.949 . S
C2316 C2324 1.574 . S
C2316 C2332 1.368 . S
H2317 C2325 0.950 . S
H2318 C2323 0.950 . S
H2319 C2324 0.949 . S
H2320 C2326 0.950 . S
H2321 C2327 0.950 . S
H2322 C2328 0.949 . S
C2323 H2318 0.950 . S
C2323 C2325 1.327 . S
C2323 C2329 1.429 . S
C2324 C2316 1.574 . S
C2324 H2319 0.949 . S
C2324 C2330 1.368 . S
C2325 C2309 1.349 . S
C2325 H2317 0.950 . S
C2325 C2323 1.327 . S
C2326 C2314 1.349 . S
C2326 H2320 0.950 . S
C2326 C2327 1.327 . S
C2327 H2321 0.950 . S
C2327 C2326 1.327 . S
C2327 C2331 1.429 . S
C2328 C2311 1.574 . S
C2328 H2322 0.949 . S
C2328 C2332 1.368 . S
C2329 C2310 1.429 . S
C2329 C2323 1.429 . S
C2329 C2330 1.523 . S
C2330 C2311 1.368 . S
C2330 C2324 1.368 . S
C2330 C2329 1.523 . S
C2331 C2315 1.429 . S
C2331 C2327 1.429 . S
C2331 C2332 1.523 . S
C2332 C2316 1.368 . S
C2332 C2328 1.368 . S
C2332 C2331 1.523 . S
H2333 C2308 0.950 . S
H2334 C2310 0.950 . S
H2335 C2311 0.949 . S
H2336 C2313 0.950 . S
H2337 C2315 0.950 . S
C2338 C2339 1.349 . S
C2338 C2340 1.327 . S
C2338 H2363 0.950 . S
C2339 C2338 1.349 . S
C2339 C2355 1.349 . S
C2340 C2338 1.327 . S
C2340 C2359 1.429 . S
C2340 H2364 0.950 . S
C2341 C2358 1.574 . S
C2341 C2360 1.368 . S
C2341 H2365 0.949 . S
H2342 C2346 0.949 . S
C2343 C2344 1.349 . S
C2343 C2345 1.327 . S
C2343 H2366 0.950 . S
C2344 C2343 1.349 . S
C2344 C2356 1.349 . S
C2345 C2343 1.327 . S
C2345 C2361 1.429 . S
C2345 H2367 0.950 . S
C2346 H2342 0.949 . S
C2346 C2354 1.574 . S
C2346 C2362 1.368 . S
H2347 C2355 0.950 . S
H2348 C2353 0.950 . S
H2349 C2354 0.949 . S
H2350 C2356 0.950 . S
H2351 C2357 0.950 . S
H2352 C2358 0.949 . S
C2353 H2348 0.950 . S
C2353 C2355 1.327 . S
C2353 C2359 1.429 . S
C2354 C2346 1.574 . S
C2354 H2349 0.949 . S
C2354 C2360 1.368 . S
C2355 C2339 1.349 . S
C2355 H2347 0.950 . S
C2355 C2353 1.327 . S
C2356 C2344 1.349 . S
C2356 H2350 0.950 . S
C2356 C2357 1.327 . S
C2357 H2351 0.950 . S
C2357 C2356 1.327 . S
C2357 C2361 1.429 . S
C2358 C2341 1.574 . S
C2358 H2352 0.949 . S
C2358 C2362 1.368 . S
C2359 C2340 1.429 . S
C2359 C2353 1.429 . S
C2359 C2360 1.523 . S
C2360 C2341 1.368 . S
C2360 C2354 1.368 . S
C2360 C2359 1.523 . S
C2361 C2345 1.429 . S
C2361 C2357 1.429 . S
C2361 C2362 1.523 . S
C2362 C2346 1.368 . S
C2362 C2358 1.368 . S
C2362 C2361 1.523 . S
H2363 C2338 0.950 . S
H2364 C2340 0.950 . S
H2365 C2341 0.949 . S
H2366 C2343 0.950 . S
H2367 C2345 0.950 . S
C449 C91 1.148 . S
C454 C7 1.148 . S
C479 C21 1.148 . S
C484 C105 1.148 . S
C509 C63 1.148 . S
C514 C35 1.148 . S
C539 C49 1.148 . S
C544 C77 1.148 . S
C569 C203 1.148 . S
C574 C119 1.148 . S
C599 C133 1.148 . S
C604 C217 1.148 . S
C629 C175 1.148 . S
C634 C147 1.148 . S
C659 C161 1.148 . S
C664 C189 1.148 . S
C689 C231 1.148 . S
C694 C315 1.148 . S
C719 C329 1.148 . S
C724 C245 1.148 . S
C749 C259 1.148 . S
C754 C287 1.148 . S
C779 C301 1.148 . S
C784 C273 1.148 . S
C809 C427 1.148 . S
C814 C343 1.148 . S
C839 C441 1.148 . S
C844 C357 1.148 . S
C869 C399 1.148 . S
C874 C371 1.148 . S
C899 C385 1.148 . S
C904 C413 1.148 . S
C929 C104 0.902 1_554 S
C934 C6 0.904 . S
C959 C62 0.904 . S
C964 C20 0.904 . S
C989 C76 0.904 . S
C994 C34 0.904 . S
C1019 C90 0.904 . S
C1024 C48 0.902 1_556 S
C1049 C216 0.902 1_556 S
C1054 C118 0.904 . S
C1079 C174 0.904 . S
C1084 C132 0.904 . S
C1109 C188 0.904 . S
C1114 C146 0.904 . S
C1139 C160 0.902 1_554 S
C1144 C202 0.904 . S
C1169 C328 0.904 . S
C1174 C230 0.904 . S
C1199 C244 0.902 1_556 S
C1204 C286 0.904 . S
C1229 C258 0.904 . S
C1234 C300 0.902 1_554 S
C1259 C314 0.904 . S
C1264 C272 0.904 . S
C1289 C440 0.904 . S
C1294 C342 0.904 . S
C1319 C356 0.902 1_554 S
C1324 C398 0.904 . S
C1349 C370 0.904 . S
C1354 C412 0.902 1_556 S
C1379 C426 0.904 . S
C1384 C384 0.904 . S
C1409 C8 1.516 . S
C1414 C429 1.470 . S
C1439 C219 1.470 . S
C1444 C22 1.516 . S
C1469 C401 1.470 . S
C1474 C36 1.516 . S
C1499 C191 1.470 . S
C1504 C50 1.516 1_556 S
C1529 C373 1.470 . S
C1534 C64 1.516 . S
C1559 C78 1.516 . S
C1564 C163 1.470 . S
C1589 C92 1.516 . S
C1594 C345 1.470 . S
C1619 C106 1.516 1_554 S
C1624 C135 1.470 . S
C1649 C120 1.516 . S
C1654 C317 1.470 . S
C1679 C107 1.470 . S
C1684 C134 1.516 . S
C1709 C289 1.470 . S
C1714 C148 1.516 . S
C1739 C79 1.470 . S
C1744 C162 1.516 1_554 S
C1769 C261 1.470 . S
C1774 C176 1.516 . S
C1799 C51 1.470 . S
C1804 C190 1.516 . S
C1829 C204 1.516 . S
C1834 C233 1.470 . S
C1859 C23 1.470 . S
C1864 C218 1.516 1_556 S
C1889 C205 1.470 . S
C1894 C232 1.516 . S
C1919 C443 1.470 . S
C1924 C246 1.516 1_556 S
C1949 C260 1.516 . S
C1954 C177 1.470 . S
C1979 C274 1.516 . S
C1984 C415 1.470 . S
C2009 C288 1.516 . S
C2014 C149 1.470 . S
C2039 C302 1.516 1_554 S
C2044 C387 1.470 . S
C2069 C316 1.516 . S
C2074 C121 1.470 . S
C2099 C330 1.516 . S
C2104 C359 1.470 . S
C2129 C93 1.470 . S
C2134 C344 1.516 . S
C2159 C331 1.470 . S
C2164 C358 1.516 1_554 S
C2189 C65 1.470 . S
C2194 C372 1.516 . S
C2219 C386 1.516 . S
C2224 C303 1.470 . S
C2249 C400 1.516 . S
C2254 C37 1.470 . S
C2279 C275 1.470 . S
C2284 C414 1.516 1_556 S
C2309 C428 1.516 . S
C2314 C9 1.470 . S
C2339 C442 1.516 . S
C2344 C247 1.470 . S
