# Generated by pormake.
# Topology vcc, (6)-cn, num edge types: 1
# Building blocks:
#     Node 0, Type 0, BuildingBlock: BETDEL_clean_sbu_0, # of connection points: 6
#     Node 1, Type 0, BuildingBlock: BETDEL_clean_sbu_0, # of connection points: 6
#     Node 2, Type 0, BuildingBlock: BETDEL_clean_sbu_0, # of connection points: 6
#     Node 3, Type 0, BuildingBlock: BETDEL_clean_sbu_0, # of connection points: 6
#     Node 4, Type 0, BuildingBlock: BETDEL_clean_sbu_0, # of connection points: 6
#     Node 5, Type 0, BuildingBlock: BETDEL_clean_sbu_0, # of connection points: 6
#     Node 6, Type 0, BuildingBlock: BETDEL_clean_sbu_0, # of connection points: 6
#     Node 7, Type 0, BuildingBlock: BETDEL_clean_sbu_0, # of connection points: 6
#     Node 8, Type 0, BuildingBlock: BETDEL_clean_sbu_0, # of connection points: 6
#     Node 9, Type 0, BuildingBlock: BETDEL_clean_sbu_0, # of connection points: 6
#     Node 10, Type 0, BuildingBlock: BETDEL_clean_sbu_0, # of connection points: 6
#     Node 11, Type 0, BuildingBlock: BETDEL_clean_sbu_0, # of connection points: 6
#     Node 12, Type 0, BuildingBlock: BETDEL_clean_sbu_0, # of connection points: 6
#     Node 13, Type 0, BuildingBlock: BETDEL_clean_sbu_0, # of connection points: 6
#     Node 14, Type 0, BuildingBlock: BETDEL_clean_sbu_0, # of connection points: 6
#     Node 15, Type 0, BuildingBlock: BETDEL_clean_sbu_0, # of connection points: 6
#     Node 16, Type 0, BuildingBlock: BETDEL_clean_sbu_0, # of connection points: 6
#     Node 17, Type 0, BuildingBlock: BETDEL_clean_sbu_0, # of connection points: 6
#     Node 18, Type 0, BuildingBlock: BETDEL_clean_sbu_0, # of connection points: 6
#     Node 19, Type 0, BuildingBlock: BETDEL_clean_sbu_0, # of connection points: 6
#     Node 20, Type 0, BuildingBlock: BETDEL_clean_sbu_0, # of connection points: 6
#     Node 21, Type 0, BuildingBlock: BETDEL_clean_sbu_0, # of connection points: 6
#     Node 22, Type 0, BuildingBlock: BETDEL_clean_sbu_0, # of connection points: 6
#     Node 23, Type 0, BuildingBlock: BETDEL_clean_sbu_0, # of connection points: 6
#     Node 24, Type 0, BuildingBlock: BETDEL_clean_sbu_0, # of connection points: 6
#     Node 25, Type 0, BuildingBlock: BETDEL_clean_sbu_0, # of connection points: 6
#     Node 26, Type 0, BuildingBlock: BETDEL_clean_sbu_0, # of connection points: 6
#     Node 27, Type 0, BuildingBlock: BETDEL_clean_sbu_0, # of connection points: 6
#     Node 28, Type 0, BuildingBlock: BETDEL_clean_sbu_0, # of connection points: 6
#     Node 29, Type 0, BuildingBlock: BETDEL_clean_sbu_0, # of connection points: 6
#     Node 30, Type 0, BuildingBlock: BETDEL_clean_sbu_0, # of connection points: 6
#     Node 31, Type 0, BuildingBlock: BETDEL_clean_sbu_0, # of connection points: 6
#     Edge 32, Type (0, 0), BuildingBlock: KIFKEQ_clean_linker_1, # of connection points: 2
#     Edge 33, Type (0, 0), BuildingBlock: KIFKEQ_clean_linker_1, # of connection points: 2
#     Edge 34, Type (0, 0), BuildingBlock: KIFKEQ_clean_linker_1, # of connection points: 2
#     Edge 35, Type (0, 0), BuildingBlock: KIFKEQ_clean_linker_1, # of connection points: 2
#     Edge 36, Type (0, 0), BuildingBlock: KIFKEQ_clean_linker_1, # of connection points: 2
#     Edge 37, Type (0, 0), BuildingBlock: KIFKEQ_clean_linker_1, # of connection points: 2
#     Edge 38, Type (0, 0), BuildingBlock: KIFKEQ_clean_linker_1, # of connection points: 2
#     Edge 39, Type (0, 0), BuildingBlock: KIFKEQ_clean_linker_1, # of connection points: 2
#     Edge 40, Type (0, 0), BuildingBlock: KIFKEQ_clean_linker_1, # of connection points: 2
#     Edge 41, Type (0, 0), BuildingBlock: KIFKEQ_clean_linker_1, # of connection points: 2
#     Edge 42, Type (0, 0), BuildingBlock: KIFKEQ_clean_linker_1, # of connection points: 2
#     Edge 43, Type (0, 0), BuildingBlock: KIFKEQ_clean_linker_1, # of connection points: 2
#     Edge 44, Type (0, 0), BuildingBlock: KIFKEQ_clean_linker_1, # of connection points: 2
#     Edge 45, Type (0, 0), BuildingBlock: KIFKEQ_clean_linker_1, # of connection points: 2
#     Edge 46, Type (0, 0), BuildingBlock: KIFKEQ_clean_linker_1, # of connection points: 2
#     Edge 47, Type (0, 0), BuildingBlock: KIFKEQ_clean_linker_1, # of connection points: 2
#     Edge 48, Type (0, 0), BuildingBlock: KIFKEQ_clean_linker_1, # of connection points: 2
#     Edge 49, Type (0, 0), BuildingBlock: KIFKEQ_clean_linker_1, # of connection points: 2
#     Edge 50, Type (0, 0), BuildingBlock: KIFKEQ_clean_linker_1, # of connection points: 2
#     Edge 51, Type (0, 0), BuildingBlock: KIFKEQ_clean_linker_1, # of connection points: 2
#     Edge 52, Type (0, 0), BuildingBlock: KIFKEQ_clean_linker_1, # of connection points: 2
#     Edge 53, Type (0, 0), BuildingBlock: KIFKEQ_clean_linker_1, # of connection points: 2
#     Edge 54, Type (0, 0), BuildingBlock: KIFKEQ_clean_linker_1, # of connection points: 2
#     Edge 55, Type (0, 0), BuildingBlock: KIFKEQ_clean_linker_1, # of connection points: 2
#     Edge 56, Type (0, 0), BuildingBlock: KIFKEQ_clean_linker_1, # of connection points: 2
#     Edge 57, Type (0, 0), BuildingBlock: KIFKEQ_clean_linker_1, # of connection points: 2
#     Edge 58, Type (0, 0), BuildingBlock: KIFKEQ_clean_linker_1, # of connection points: 2
#     Edge 59, Type (0, 0), BuildingBlock: KIFKEQ_clean_linker_1, # of connection points: 2
#     Edge 60, Type (0, 0), BuildingBlock: KIFKEQ_clean_linker_1, # of connection points: 2
#     Edge 61, Type (0, 0), BuildingBlock: KIFKEQ_clean_linker_1, # of connection points: 2
#     Edge 62, Type (0, 0), BuildingBlock: KIFKEQ_clean_linker_1, # of connection points: 2
#     Edge 63, Type (0, 0), BuildingBlock: KIFKEQ_clean_linker_1, # of connection points: 2
#     Edge 64, Type (0, 0), BuildingBlock: KIFKEQ_clean_linker_1, # of connection points: 2
#     Edge 65, Type (0, 0), BuildingBlock: KIFKEQ_clean_linker_1, # of connection points: 2
#     Edge 66, Type (0, 0), BuildingBlock: KIFKEQ_clean_linker_1, # of connection points: 2
#     Edge 67, Type (0, 0), BuildingBlock: KIFKEQ_clean_linker_1, # of connection points: 2
#     Edge 68, Type (0, 0), BuildingBlock: KIFKEQ_clean_linker_1, # of connection points: 2
#     Edge 69, Type (0, 0), BuildingBlock: KIFKEQ_clean_linker_1, # of connection points: 2
#     Edge 70, Type (0, 0), BuildingBlock: KIFKEQ_clean_linker_1, # of connection points: 2
#     Edge 71, Type (0, 0), BuildingBlock: KIFKEQ_clean_linker_1, # of connection points: 2
#     Edge 72, Type (0, 0), BuildingBlock: KIFKEQ_clean_linker_1, # of connection points: 2
#     Edge 73, Type (0, 0), BuildingBlock: KIFKEQ_clean_linker_1, # of connection points: 2
#     Edge 74, Type (0, 0), BuildingBlock: KIFKEQ_clean_linker_1, # of connection points: 2
#     Edge 75, Type (0, 0), BuildingBlock: KIFKEQ_clean_linker_1, # of connection points: 2
#     Edge 76, Type (0, 0), BuildingBlock: KIFKEQ_clean_linker_1, # of connection points: 2
#     Edge 77, Type (0, 0), BuildingBlock: KIFKEQ_clean_linker_1, # of connection points: 2
#     Edge 78, Type (0, 0), BuildingBlock: KIFKEQ_clean_linker_1, # of connection points: 2
#     Edge 79, Type (0, 0), BuildingBlock: KIFKEQ_clean_linker_1, # of connection points: 2
#     Edge 80, Type (0, 0), BuildingBlock: KIFKEQ_clean_linker_1, # of connection points: 2
#     Edge 81, Type (0, 0), BuildingBlock: KIFKEQ_clean_linker_1, # of connection points: 2
#     Edge 82, Type (0, 0), BuildingBlock: KIFKEQ_clean_linker_1, # of connection points: 2
#     Edge 83, Type (0, 0), BuildingBlock: KIFKEQ_clean_linker_1, # of connection points: 2
#     Edge 84, Type (0, 0), BuildingBlock: KIFKEQ_clean_linker_1, # of connection points: 2
#     Edge 85, Type (0, 0), BuildingBlock: KIFKEQ_clean_linker_1, # of connection points: 2
#     Edge 86, Type (0, 0), BuildingBlock: KIFKEQ_clean_linker_1, # of connection points: 2
#     Edge 87, Type (0, 0), BuildingBlock: KIFKEQ_clean_linker_1, # of connection points: 2
#     Edge 88, Type (0, 0), BuildingBlock: KIFKEQ_clean_linker_1, # of connection points: 2
#     Edge 89, Type (0, 0), BuildingBlock: KIFKEQ_clean_linker_1, # of connection points: 2
#     Edge 90, Type (0, 0), BuildingBlock: KIFKEQ_clean_linker_1, # of connection points: 2
#     Edge 91, Type (0, 0), BuildingBlock: KIFKEQ_clean_linker_1, # of connection points: 2
#     Edge 92, Type (0, 0), BuildingBlock: KIFKEQ_clean_linker_1, # of connection points: 2
#     Edge 93, Type (0, 0), BuildingBlock: KIFKEQ_clean_linker_1, # of connection points: 2
#     Edge 94, Type (0, 0), BuildingBlock: KIFKEQ_clean_linker_1, # of connection points: 2
#     Edge 95, Type (0, 0), BuildingBlock: KIFKEQ_clean_linker_1, # of connection points: 2
#     Edge 96, Type (0, 0), BuildingBlock: KIFKEQ_clean_linker_1, # of connection points: 2
#     Edge 97, Type (0, 0), BuildingBlock: KIFKEQ_clean_linker_1, # of connection points: 2
#     Edge 98, Type (0, 0), BuildingBlock: KIFKEQ_clean_linker_1, # of connection points: 2
#     Edge 99, Type (0, 0), BuildingBlock: KIFKEQ_clean_linker_1, # of connection points: 2
#     Edge 100, Type (0, 0), BuildingBlock: KIFKEQ_clean_linker_1, # of connection points: 2
#     Edge 101, Type (0, 0), BuildingBlock: KIFKEQ_clean_linker_1, # of connection points: 2
#     Edge 102, Type (0, 0), BuildingBlock: KIFKEQ_clean_linker_1, # of connection points: 2
#     Edge 103, Type (0, 0), BuildingBlock: KIFKEQ_clean_linker_1, # of connection points: 2
#     Edge 104, Type (0, 0), BuildingBlock: KIFKEQ_clean_linker_1, # of connection points: 2
#     Edge 105, Type (0, 0), BuildingBlock: KIFKEQ_clean_linker_1, # of connection points: 2
#     Edge 106, Type (0, 0), BuildingBlock: KIFKEQ_clean_linker_1, # of connection points: 2
#     Edge 107, Type (0, 0), BuildingBlock: KIFKEQ_clean_linker_1, # of connection points: 2
#     Edge 108, Type (0, 0), BuildingBlock: KIFKEQ_clean_linker_1, # of connection points: 2
#     Edge 109, Type (0, 0), BuildingBlock: KIFKEQ_clean_linker_1, # of connection points: 2
#     Edge 110, Type (0, 0), BuildingBlock: KIFKEQ_clean_linker_1, # of connection points: 2
#     Edge 111, Type (0, 0), BuildingBlock: KIFKEQ_clean_linker_1, # of connection points: 2
#     Edge 112, Type (0, 0), BuildingBlock: KIFKEQ_clean_linker_1, # of connection points: 2
#     Edge 113, Type (0, 0), BuildingBlock: KIFKEQ_clean_linker_1, # of connection points: 2
#     Edge 114, Type (0, 0), BuildingBlock: KIFKEQ_clean_linker_1, # of connection points: 2
#     Edge 115, Type (0, 0), BuildingBlock: KIFKEQ_clean_linker_1, # of connection points: 2
#     Edge 116, Type (0, 0), BuildingBlock: KIFKEQ_clean_linker_1, # of connection points: 2
#     Edge 117, Type (0, 0), BuildingBlock: KIFKEQ_clean_linker_1, # of connection points: 2
#     Edge 118, Type (0, 0), BuildingBlock: KIFKEQ_clean_linker_1, # of connection points: 2
#     Edge 119, Type (0, 0), BuildingBlock: KIFKEQ_clean_linker_1, # of connection points: 2
#     Edge 120, Type (0, 0), BuildingBlock: KIFKEQ_clean_linker_1, # of connection points: 2
#     Edge 121, Type (0, 0), BuildingBlock: KIFKEQ_clean_linker_1, # of connection points: 2
#     Edge 122, Type (0, 0), BuildingBlock: KIFKEQ_clean_linker_1, # of connection points: 2
#     Edge 123, Type (0, 0), BuildingBlock: KIFKEQ_clean_linker_1, # of connection points: 2
#     Edge 124, Type (0, 0), BuildingBlock: KIFKEQ_clean_linker_1, # of connection points: 2
#     Edge 125, Type (0, 0), BuildingBlock: KIFKEQ_clean_linker_1, # of connection points: 2
#     Edge 126, Type (0, 0), BuildingBlock: KIFKEQ_clean_linker_1, # of connection points: 2
#     Edge 127, Type (0, 0), BuildingBlock: KIFKEQ_clean_linker_1, # of connection points: 2
# Relax obj value: 0.072
# Max RMSD: 0.129
# Mean RMSD: 0.129
data_MOF--net-vcc--node1-BETDEL_clean_sbu_0--edge1-KIFKEQ_clean_linker_1
_symmetry_space_group_name_H-M    P1
_symmetry_Int_Tables_number       1
_symmetry_cell_setting            triclinic
loop_
_symmetry_equiv_pos_as_xyz
'x, y, z'
_cell_length_a     42.177888
_cell_length_b     54.898286
_cell_length_c     45.245684
_cell_angle_alpha  89.995413
_cell_angle_beta   90.100914
_cell_angle_gamma 89.95198
loop_
_atom_site_label
_atom_site_type_symbol
_atom_site_fract_x
_atom_site_fract_y
_atom_site_fract_z
_atom_type_partial_charge
Dy0 Dy 0.33176 0.0394 0.05922 0.0
C1 C 0.2463 0.0462 0.16166 0.0
C2 C 0.3556 1.03023 1.00408 0.0
Dy3 Dy 0.27876 0.0383 0.11049 0.0
O4 O 0.35778 0.05089 0.01804 0.0
O5 O 0.34243 1.0142 0.02125 0.0
O6 O 0.35189 0.07355 0.07744 0.0
O7 O 0.30298 0.0662 0.08366 0.0
C8 C 0.32572 0.0804 0.0904 0.0
C9 C 0.29485 0.99316 0.09083 0.0
O10 O 0.24749 0.04944 0.07279 0.0
O11 O 0.28579 0.04603 0.03557 0.0
O12 O 0.23646 1.03275 0.1398 0.0
O13 O 0.273 0.05655 0.15467 0.0
O14 O 0.27369 0.99674 0.11114 0.0
O15 O 0.30389 1.01375 0.08272 0.0
O16 O 0.36108 1.025 0.09688 0.0
O17 O 0.32549 0.03711 0.13376 0.0
C18 C 0.2563 0.04998 0.04459 0.0
C19 C 0.35354 1.0287 0.12516 0.0
Dy20 Dy 0.86076 0.28224 0.05842 0.0
C21 C 0.94426 0.26935 0.16023 0.0
C22 C 0.83619 0.29052 1.00339 0.0
Dy23 Dy 0.91528 0.28206 0.1087 0.0
O24 O 0.83608 0.26964 1.01701 0.0
O25 O 0.84758 0.30714 0.02089 0.0
O26 O 0.83931 0.24929 0.07929 0.0
O27 O 0.88881 0.25516 0.08266 0.0
C28 C 0.86593 0.24192 0.09106 0.0
C29 C 0.90193 0.32746 0.08855 0.0
O30 O 0.94494 0.26978 0.07059 0.0
O31 O 0.90615 0.27557 0.03419 0.0
O32 O 0.95692 0.28311 0.13992 0.0
O33 O 0.91665 0.26165 0.1515 0.0
O34 O 0.9235 0.32325 0.10852 0.0
O35 O 0.89134 0.30716 0.08068 0.0
O36 O 0.83299 0.29861 0.09529 0.0
O37 O 0.86932 0.28793 0.1325 0.0
C38 C 0.93552 0.27022 0.04252 0.0
C39 C 0.84147 0.29657 0.12352 0.0
Dy40 Dy 0.33783 0.28407 0.22692 0.0
C41 C 0.2551 0.27331 0.12389 0.0
C42 C 0.36235 0.29073 0.28238 0.0
Dy43 Dy 0.28363 0.28436 0.17628 0.0
O44 O 0.35947 0.26989 0.26901 0.0
O45 O 0.35408 0.30812 0.26442 0.0
O46 O 0.35706 0.24947 0.20853 0.0
O47 O 0.30819 0.25715 0.20366 0.0
C48 C 0.33033 0.24262 0.19659 0.0
C49 C 0.29897 0.32971 0.19537 0.0
O50 O 0.25345 0.27335 0.21463 0.0
O51 O 0.29153 0.28223 0.25066 0.0
O52 O 0.24197 0.28599 0.14496 0.0
O53 O 0.28276 0.26554 0.13242 0.0
O54 O 0.27714 0.3258 0.17561 0.0
O55 O 0.30891 0.30929 0.20336 0.0
O56 O 0.36661 0.29877 0.18955 0.0
O57 O 0.33034 0.28676 0.15311 0.0
C58 C 0.2623 0.27631 0.24263 0.0
C59 C 0.35836 0.29542 0.16142 0.0
Dy60 Dy 0.85814 0.0382 0.22664 0.0
C61 C 0.9427 0.05017 0.12585 0.0
C62 C 0.83239 1.03073 0.28132 0.0
Dy63 Dy 0.91373 0.03853 0.17769 0.0
O64 O 0.83419 0.05165 0.26793 0.0
O65 O 0.84237 1.01368 0.26368 0.0
O66 O 0.83792 0.07179 0.20621 0.0
O67 O 0.88742 0.06543 0.20393 0.0
C68 C 0.86495 0.07911 0.1954 0.0
C69 C 0.89915 0.99301 0.19674 0.0
O70 O 0.94269 0.05036 0.21657 0.0
O71 O 0.90363 0.04221 0.25184 0.0
O72 O 0.95554 0.03702 0.14672 0.0
O73 O 0.91516 0.0581 0.13439 0.0
O74 O 0.92135 0.99717 0.17749 0.0
O75 O 0.88845 1.01331 0.20428 0.0
O76 O 0.83091 1.02275 0.18856 0.0
O77 O 0.86774 0.03541 0.15309 0.0
C78 C 0.93305 0.04815 0.24442 0.0
C79 C 0.83957 1.02659 0.16065 0.0
Dy80 Dy 0.66615 1.03114 0.92491 0.0
C81 C 0.58641 1.03053 0.03014 0.0
C82 C 0.69454 1.02088 0.87235 0.0
Dy83 Dy 0.6114 1.02946 0.97449 0.0
O84 O 0.70776 1.03319 0.89374 0.0
O85 O 0.66687 1.01306 0.88064 0.0
O86 O 0.67327 0.07238 0.92628 0.0
O87 O 0.64179 0.05531 0.95378 0.0
C88 C 0.65173 0.07588 0.94639 0.0
C89 C 0.61767 0.99016 0.94012 0.0
O90 O 0.58356 0.047 0.93823 0.0
O91 O 0.61981 0.03615 0.90134 0.0
O92 O 0.59264 1.01106 1.01492 0.0
O93 O 0.59139 0.04971 1.01383 0.0
O94 O 0.59073 0.99729 0.95126 0.0
O95 O 0.64023 1.0032 0.94967 0.0
O96 O 0.69574 1.01825 0.96285 0.0
O97 O 0.65757 1.02669 0.99879 0.0
C98 C 0.59191 0.04486 0.90997 0.0
C99 C 0.68667 1.02027 0.99087 0.0
Dy100 Dy 0.03202 0.78523 0.92601 0.0
C101 C 0.11271 0.77963 0.03063 0.0
C102 C 0.00377 0.79703 0.87382 0.0
Dy103 Dy 0.08667 0.78621 0.97593 0.0
O104 O -0.00928 0.78372 0.89437 0.0
O105 O 0.0312 0.80492 0.88278 0.0
O106 O 0.02453 0.74394 0.92679 0.0
O107 O 0.0569 0.76065 0.9539 0.0
C108 C 0.04644 0.7402 0.94656 0.0
C109 C 0.07974 0.82642 0.94333 0.0
O110 O 0.11516 0.77057 0.93896 0.0
O111 O 0.07816 0.78017 0.90197 0.0
O112 O 0.11005 0.80045 1.01712 0.0
O113 O 0.10323 0.76226 1.0132 0.0
O114 O 0.10672 0.81953 0.95475 0.0
O115 O 0.05744 0.81274 0.95201 0.0
O116 O 0.00213 0.79702 0.96432 0.0
O117 O 0.04087 0.79044 1.00055 0.0
C118 C 0.10654 0.7724 0.91074 0.0
C119 C 0.01137 0.79569 0.99243 0.0
Dy120 Dy 0.66391 0.78646 0.85691 0.0
C121 C 0.58333 0.77779 0.75246 0.0
C122 C 0.69237 0.79905 0.90872 0.0
Dy123 Dy 0.6089 0.78569 0.80717 0.0
O124 O 0.66487 0.80677 0.89971 0.0
O125 O 0.70541 0.78553 0.88837 0.0
O126 O 0.6716 0.74514 0.85779 0.0
O127 O 0.639 0.76102 0.83026 0.0
C128 C 0.64963 0.74081 0.83828 0.0
C129 C 0.61562 0.82684 0.83798 0.0
O130 O 0.58111 0.77072 0.8452 0.0
O131 O 0.6177 0.78325 0.88109 0.0
O132 O 0.58398 0.79864 0.76608 0.0
O133 O 0.59449 0.76096 0.76984 0.0
O134 O 0.58865 0.81956 0.82693 0.0
O135 O 0.63799 0.81298 0.82984 0.0
O136 O 0.69333 0.79796 0.81823 0.0
O137 O 0.6546 0.79019 0.78235 0.0
C138 C 0.58952 0.77452 0.87324 0.0
C139 C 0.68401 0.79597 0.79022 0.0
Dy140 Dy 0.02916 1.03246 0.86012 0.0
C141 C 0.10848 0.03741 0.75499 0.0
C142 C -0.00302 1.02419 0.91126 0.0
Dy143 Dy 0.08349 1.03037 0.81003 0.0
O144 O -0.01294 0.03791 0.88966 0.0
O145 O 0.0236 1.01379 0.90401 0.0
O146 O 0.02222 0.07371 0.8584 0.0
O147 O 0.05383 0.05641 0.83127 0.0
C148 C 0.04372 0.07704 0.8383 0.0
C149 C 0.07733 0.99094 0.84399 0.0
O150 O 0.11191 0.04654 0.84687 0.0
O151 O 0.07528 0.03723 0.88422 0.0
O152 O 0.10774 1.01669 0.76895 0.0
O153 O 0.09773 0.05451 0.77215 0.0
O154 O 0.10409 0.99762 0.832 0.0
O155 O 0.05471 1.00432 0.83509 0.0
O156 O -0.00111 1.02026 0.82225 0.0
O157 O 0.03798 1.02352 0.78574 0.0
C158 C 0.10352 0.04499 0.87517 0.0
C159 C 0.00836 1.01943 0.79425 0.0
Dy160 Dy 0.34127 0.53867 0.5572 0.0
C161 C 0.25991 0.54976 0.6606 0.0
C162 C 0.36553 0.53103 0.50201 0.0
Dy163 Dy 0.28805 0.53829 0.60831 0.0
O164 O 0.36495 0.55186 0.51566 0.0
O165 O 0.3549 0.51413 0.51949 0.0
O166 O 0.36146 0.57277 0.57614 0.0
O167 O 0.31252 0.56558 0.58124 0.0
C168 C 0.33499 0.57975 0.58842 0.0
C169 C 0.30243 0.49294 0.58895 0.0
O170 O 0.25696 0.54905 0.57033 0.0
O171 O 0.29505 0.54272 0.53358 0.0
O172 O 0.28767 0.55723 0.65209 0.0
O173 O 0.24656 0.5371 0.6396 0.0
O174 O 0.28101 0.49706 0.60898 0.0
O175 O 0.31243 0.51326 0.5806 0.0
O176 O 0.37035 0.52285 0.59359 0.0
O177 O 0.33484 0.53377 0.63121 0.0
C178 C 0.2657 0.5477 0.54214 0.0
C179 C 0.36249 0.52506 0.62191 0.0
Dy180 Dy 0.86154 0.78085 0.5582 0.0
C181 C 0.94888 0.77573 0.65855 0.0
C182 C 0.83583 0.78262 0.50273 0.0
Dy183 Dy 0.91625 0.78393 0.60751 0.0
O184 O 0.84142 0.76298 0.51789 0.0
O185 O 0.84178 0.80163 0.51907 0.0
O186 O 0.8421 0.74819 0.58098 0.0
O187 O 0.89152 0.75511 0.58291 0.0
C188 C 0.86927 0.74159 0.59222 0.0
C189 C 0.90019 0.8284 0.58607 0.0
O190 O 0.94645 0.77217 0.56956 0.0
O191 O 0.90735 0.77741 0.53342 0.0
O192 O 0.95823 0.78993 0.63724 0.0
O193 O 0.92259 0.76496 0.65112 0.0
O194 O 0.92202 0.82524 0.60599 0.0
O195 O 0.89031 0.8077 0.57907 0.0
O196 O 0.83297 0.79675 0.59518 0.0
O197 O 0.8701 0.78678 0.63181 0.0
C198 C 0.93694 0.77266 0.54156 0.0
C199 C 0.84146 0.79425 0.62342 0.0
Dy200 Dy 0.33425 0.7824 0.7273 0.0
C201 C 0.24918 0.77423 0.62476 0.0
C202 C 0.35783 0.79161 0.78248 0.0
Dy203 Dy 0.28146 0.78321 0.67574 0.0
O204 O 0.35971 0.77083 0.76877 0.0
O205 O 0.34507 0.8077 0.76506 0.0
O206 O 0.35561 0.74889 0.70843 0.0
O207 O 0.3065 0.75547 0.70216 0.0
C208 C 0.32967 0.74179 0.69521 0.0
C209 C 0.29558 0.82836 0.69634 0.0
O210 O 0.25039 0.77143 0.7132 0.0
O211 O 0.28849 0.77484 0.7507 0.0
O212 O 0.23897 0.78778 0.64635 0.0
O213 O 0.27629 0.76449 0.63183 0.0
O214 O 0.27464 0.82457 0.67579 0.0
O215 O 0.30541 0.80788 0.70425 0.0
O216 O 0.3636 0.79751 0.69036 0.0
O217 O 0.32802 0.78699 0.65248 0.0
C218 C 0.25912 0.77065 0.74144 0.0
C219 C 0.35595 0.79511 0.66191 0.0
Dy220 Dy 0.86088 0.5381 0.72767 0.0
C221 C 0.94315 0.55058 0.62538 0.0
C222 C 0.83624 0.53047 0.78276 0.0
Dy223 Dy 0.91512 0.53802 0.67736 0.0
O224 O 0.83768 0.55143 0.7694 0.0
O225 O 0.84606 0.51348 0.76496 0.0
O226 O 0.84028 0.57167 0.70736 0.0
O227 O 0.88957 0.56504 0.70392 0.0
C228 C 0.86704 0.57877 0.69576 0.0
C229 C 0.90141 0.49268 0.69719 0.0
O230 O 0.94507 0.54983 0.71572 0.0
O231 O 0.90675 0.54279 0.75204 0.0
O232 O 0.91496 0.5572 0.63372 0.0
O233 O 0.95692 0.53807 0.64632 0.0
O234 O 0.92313 0.49681 0.67742 0.0
O235 O 0.8908 0.51298 0.70499 0.0
O236 O 0.83232 0.52259 0.69059 0.0
O237 O 0.8688 0.53302 0.65359 0.0
C238 C 0.93606 0.54836 0.74385 0.0
C239 C 0.84071 0.52477 0.66237 0.0
Dy240 Dy 0.66814 0.5341 0.42585 0.0
C241 C 0.58964 0.53695 0.53173 0.0
C242 C 0.7002 0.52626 0.37458 0.0
Dy243 Dy 0.61432 0.5306 0.4764 0.0
O244 O 0.70968 0.54042 0.39592 0.0
O245 O 0.67409 0.51529 0.38211 0.0
O246 O 0.67351 0.57544 0.42775 0.0
O247 O 0.64268 0.55738 0.45497 0.0
C248 C 0.65201 0.57824 0.44799 0.0
C249 C 0.62215 0.4914 0.4423 0.0
O250 O 0.58487 0.54612 0.43975 0.0
O251 O 0.62162 0.53789 0.40209 0.0
O252 O 0.59093 0.51631 0.51763 0.0
O253 O 0.59968 0.5543 0.51459 0.0
O254 O 0.59517 0.49727 0.45453 0.0
O255 O 0.64409 0.50542 0.45107 0.0
O256 O 0.69919 0.52241 0.46341 0.0
O257 O 0.66033 0.52463 0.50027 0.0
C258 C 0.59311 0.54489 0.41136 0.0
C259 C 0.69001 0.52121 0.49148 0.0
Dy260 Dy 0.03264 0.2821 0.42856 0.0
C261 C 0.10926 0.27641 0.53099 0.0
C262 C 0.00088 0.28414 0.37585 0.0
Dy263 Dy 0.08451 0.28617 0.47631 0.0
O264 O -0.00148 0.26677 0.39516 0.0
O265 O 0.01952 0.30102 0.38598 0.0
O266 O 0.02023 0.24473 0.44632 0.0
O267 O 0.06652 0.25736 0.44872 0.0
C268 C 0.04861 0.24022 0.45609 0.0
C269 C 0.07479 0.32697 0.44628 0.0
O270 O 0.11604 0.27453 0.43903 0.0
O271 O 0.07803 0.28277 0.40296 0.0
O272 O 0.11385 0.29649 0.51622 0.0
O273 O 0.09324 0.26126 0.51479 0.0
O274 O 0.10205 0.32113 0.458 0.0
O275 O 0.05321 0.31218 0.45402 0.0
O276 O 0.0009 0.2957 0.46422 0.0
O277 O 0.03876 0.29024 0.50099 0.0
C278 C 0.10754 0.27748 0.4109 0.0
C279 C 0.0095 0.29534 0.49237 0.0
Dy280 Dy 0.66743 0.28373 0.35641 0.0
C281 C 0.59232 0.27959 0.25295 0.0
C282 C 0.69859 0.28503 0.40957 0.0
Dy283 Dy 0.61655 0.28855 0.30806 0.0
O284 O 0.70074 0.26772 0.39016 0.0
O285 O 0.68046 0.30222 0.39934 0.0
O286 O 0.67953 0.24628 0.33853 0.0
O287 O 0.63347 0.25932 0.33569 0.0
C288 C 0.65123 0.242 0.32847 0.0
C289 C 0.62595 0.3291 0.33864 0.0
O290 O 0.58426 0.27703 0.34483 0.0
O291 O 0.62172 0.28512 0.38143 0.0
O292 O 0.58819 0.29967 0.26782 0.0
O293 O 0.60755 0.26401 0.26925 0.0
O294 O 0.59885 0.32338 0.32656 0.0
O295 O 0.64767 0.31431 0.33104 0.0
O296 O 0.70004 0.29719 0.32136 0.0
O297 O 0.66274 0.29227 0.28402 0.0
C298 C 0.59228 0.28011 0.37306 0.0
C299 C 0.69191 0.29707 0.29309 0.0
Dy300 Dy 0.03755 0.53597 0.35765 0.0
C301 C 0.11297 0.52899 0.25413 0.0
C302 C 0.01006 0.54086 0.4121 0.0
Dy303 Dy 0.08667 0.52766 0.30941 0.0
O304 O 0.03089 0.55531 0.40067 0.0
O305 O 0.00318 0.52364 0.39331 0.0
O306 O 0.02509 0.57207 0.33691 0.0
O307 O 0.07142 0.55902 0.33456 0.0
C308 C 0.05329 0.57591 0.32636 0.0
C309 C 0.07519 0.48832 0.342 0.0
O310 O 0.11964 0.53942 0.3453 0.0
O311 O 0.0833 0.52837 0.38132 0.0
O312 O 0.1077 0.50947 0.26956 0.0
O313 O 0.10618 0.548 0.27002 0.0
O314 O 0.10264 0.49311 0.33025 0.0
O315 O 0.05438 0.50363 0.33385 0.0
O316 O 0.00292 0.52532 0.32254 0.0
O317 O 0.04041 0.52949 0.28554 0.0
C318 C 0.11229 0.53486 0.37328 0.0
C319 C 0.01092 0.52584 0.29423 0.0
Dy320 Dy 0.83908 0.03867 0.55689 0.0
C321 C 0.75288 0.04639 0.65846 0.0
C322 C 0.86319 1.03074 0.50165 0.0
Dy323 Dy 0.7851 0.03772 0.6074 0.0
O324 O 0.86272 0.05164 0.51519 0.0
O325 O 0.85271 1.01393 0.51935 0.0
O326 O 0.85976 0.07219 0.57652 0.0
O327 O 0.81062 0.06545 0.58157 0.0
C328 C 0.83347 0.07919 0.58915 0.0
C329 C 0.79914 0.99273 0.58622 0.0
O330 O 0.75499 0.05016 0.56941 0.0
O331 O 0.79333 0.04437 0.53278 0.0
O332 O 0.74255 1.03311 0.63663 0.0
O333 O 0.78001 0.0561 0.65155 0.0
O334 O 0.77766 0.99642 0.60625 0.0
O335 O 0.80952 1.01322 0.57909 0.0
O336 O 0.86766 1.02297 0.59401 0.0
O337 O 0.83134 1.03325 0.63129 0.0
C338 C 0.76401 0.04957 0.54124 0.0
C339 C 0.85938 1.02501 0.6223 0.0
Dy340 Dy 0.36282 0.28126 0.55769 0.0
C341 C 0.44392 0.27442 0.6593 0.0
C342 C 0.33782 0.29258 0.50348 0.0
Dy343 Dy 0.41407 0.28175 0.60619 0.0
O344 O 0.33352 0.2721 0.5174 0.0
O345 O 0.35367 0.30735 0.52033 0.0
O346 O 0.34568 0.24472 0.57096 0.0
O347 O 0.39412 0.25351 0.57744 0.0
C348 C 0.37252 0.23796 0.58265 0.0
C349 C 0.39857 0.32569 0.58323 0.0
O350 O 0.4452 0.26979 0.5689 0.0
O351 O 0.40882 0.28184 0.53343 0.0
O352 O 0.45252 0.29026 0.63953 0.0
O353 O 0.42008 0.26196 0.64936 0.0
O354 O 0.42655 0.32066 0.59361 0.0
O355 O 0.38065 0.30802 0.58835 0.0
O356 O 0.33096 0.29112 0.59541 0.0
O357 O 0.36819 0.28008 0.63103 0.0
C358 C 0.4375 0.27447 0.54104 0.0
C359 C 0.33895 0.28634 0.62329 0.0
Dy360 Dy 0.84059 0.28224 0.72761 0.0
C361 C 0.75764 0.26992 0.62488 0.0
C362 C 0.86493 0.28948 0.78296 0.0
Dy363 Dy 0.78681 0.28213 0.67658 0.0
O364 O 0.86274 0.26855 0.76969 0.0
O365 O 0.85597 0.30665 0.76498 0.0
O366 O 0.86093 0.24815 0.70893 0.0
O367 O 0.8119 0.25509 0.70377 0.0
C368 C 0.83451 0.241 0.69666 0.0
C369 C 0.80087 0.32756 0.69607 0.0
O370 O 0.75635 0.27135 0.7149 0.0
O371 O 0.79442 0.27937 0.75124 0.0
O372 O 0.74501 0.28339 0.64549 0.0
O373 O 0.78535 0.26222 0.63337 0.0
O374 O 0.77939 0.32344 0.67601 0.0
O375 O 0.81113 0.30724 0.70418 0.0
O376 O 0.86935 0.29763 0.69087 0.0
O377 O 0.83334 0.28685 0.65343 0.0
C378 C 0.76516 0.27379 0.74299 0.0
C379 C 0.86118 0.29534 0.6626 0.0
Dy380 Dy 0.36036 0.0388 0.72731 0.0
C381 C 0.4469 0.04625 0.62563 0.0
C382 C 0.33516 1.03176 0.78236 0.0
Dy383 Dy 0.41414 0.03764 0.67642 0.0
O384 O 0.33759 0.05264 0.76899 0.0
O385 O 0.34436 1.01451 0.7646 0.0
O386 O 0.34206 0.07383 0.70911 0.0
O387 O 0.3906 0.06515 0.70394 0.0
C388 C 0.36888 0.08008 0.69696 0.0
C389 C 0.39743 0.99251 0.69546 0.0
O390 O 0.44461 0.0485 0.71482 0.0
O391 O 0.40672 0.0405 0.75124 0.0
O392 O 0.45655 1.03234 0.64716 0.0
O393 O 0.42021 0.05659 0.63274 0.0
O394 O 0.41909 0.99611 0.6756 0.0
O395 O 0.38811 1.01307 0.70349 0.0
O396 O 0.33134 1.02488 0.68947 0.0
O397 O 0.36729 0.03735 0.653 0.0
C398 C 0.43601 0.04592 0.74292 0.0
C399 C 0.33905 1.02912 0.66138 0.0
Dy400 Dy 0.16192 1.02919 0.42798 0.0
C401 C 0.08323 0.03666 0.53381 0.0
C402 C 0.19045 1.01822 0.37568 0.0
Dy403 Dy 0.10761 1.02924 0.47855 0.0
O404 O 0.20347 1.03099 0.39677 0.0
O405 O 0.16293 1.01024 0.38421 0.0
O406 O 0.16861 0.07056 0.4274 0.0
O407 O 0.13752 0.0541 0.45571 0.0
C408 C 0.14718 0.07449 0.44747 0.0
C409 C 0.11373 0.98871 0.44658 0.0
O410 O 0.07956 0.04514 0.44116 0.0
O411 O 0.11526 1.03251 0.40462 0.0
O412 O 0.08393 1.01585 0.52006 0.0
O413 O 0.09368 0.05364 0.51634 0.0
O414 O 0.08694 0.99579 0.45817 0.0
O415 O 0.13627 1.00237 0.45477 0.0
O416 O 0.19209 1.01743 0.4661 0.0
O417 O 0.15372 1.02419 0.50254 0.0
C418 C 0.0875 0.04166 0.41297 0.0
C419 C 0.18306 1.01875 0.49422 0.0
Dy420 Dy 0.52958 0.78478 0.4262 0.0
C421 C 0.60887 0.78009 0.53168 0.0
C422 C 0.4971 0.79322 0.37516 0.0
Dy423 Dy 0.58369 0.78742 0.47671 0.0
O424 O 0.4877 0.77892 0.39637 0.0
O425 O 0.52337 0.80399 0.38271 0.0
O426 O 0.52408 0.74336 0.42742 0.0
O427 O 0.55501 0.76109 0.45488 0.0
C428 C 0.54562 0.74033 0.44764 0.0
C429 C 0.57643 0.82698 0.4432 0.0
O430 O 0.6129 0.77251 0.43964 0.0
O431 O 0.57592 0.78124 0.40222 0.0
O432 O 0.60739 0.80099 0.51817 0.0
O433 O 0.59871 0.76304 0.51413 0.0
O434 O 0.60331 0.82075 0.45544 0.0
O435 O 0.55418 0.81313 0.45173 0.0
O436 O 0.49889 0.79623 0.46409 0.0
O437 O 0.53794 0.79342 0.50083 0.0
C438 C 0.60452 0.77422 0.41131 0.0
C439 C 0.50823 0.79708 0.49217 0.0
Dy440 Dy 0.163 0.78647 0.35799 0.0
C441 C 0.08608 0.78005 0.25103 0.0
C442 C 0.19082 0.79743 0.4106 0.0
Dy443 Dy 0.10994 0.7878 0.30637 0.0
O444 O 0.20419 0.78472 0.38969 0.0
O445 O 0.16322 0.8052 0.40187 0.0
O446 O 0.17037 0.74523 0.35711 0.0
O447 O 0.13923 0.7622 0.32896 0.0
C448 C 0.14927 0.74169 0.33656 0.0
C449 C 0.11512 0.82748 0.33991 0.0
O450 O 0.08045 0.77193 0.3426 0.0
O451 O 0.11625 0.78133 0.38073 0.0
O452 O 0.08597 0.80087 0.26478 0.0
O453 O 0.09723 0.76327 0.26844 0.0
O454 O 0.08865 0.82076 0.32732 0.0
O455 O 0.13792 0.81404 0.33175 0.0
O456 O 0.19416 0.79853 0.32079 0.0
O457 O 0.15608 0.79486 0.28322 0.0
C458 C 0.08822 0.7736 0.37107 0.0
C459 C 0.18544 0.79914 0.29252 0.0
Dy460 Dy 0.53324 1.0326 0.35878 0.0
C461 C 0.61092 1.02979 0.25243 0.0
C462 C 0.50435 1.02248 0.41118 0.0
Dy463 Dy 0.58689 1.03004 0.30844 0.0
O464 O 0.49179 0.03552 0.39008 0.0
O465 O 0.53158 1.01391 0.40268 0.0
O466 O 0.52867 0.07407 0.35912 0.0
O467 O 0.55922 0.05667 0.33098 0.0
C468 C 0.55029 0.07734 0.33906 0.0
C469 C 0.57812 0.98999 0.34105 0.0
O470 O 0.61658 0.04518 0.34507 0.0
O471 O 0.58034 1.03396 0.38182 0.0
O472 O 0.60226 1.01079 0.26744 0.0
O473 O 0.60893 0.04911 0.26912 0.0
O474 O 0.6054 0.99638 0.33007 0.0
O475 O 0.5564 1.00425 0.33236 0.0
O476 O 0.50252 1.02204 0.32051 0.0
O477 O 0.54023 1.03202 0.28482 0.0
C478 C 0.60873 0.04173 0.37328 0.0
C479 C 0.51101 1.02589 0.29261 0.0
Dy480 Dy 0.83743 0.53778 0.05821 0.0
C481 C 0.75329 0.54974 0.15945 0.0
C482 C 0.86282 0.52897 1.00366 0.0
Dy483 Dy 0.78251 0.53785 0.10784 0.0
O484 O 0.86301 0.5499 1.01715 0.0
O485 O 0.85097 0.51252 0.02111 0.0
O486 O 0.85629 0.57247 0.07688 0.0
O487 O 0.80723 0.56473 0.08033 0.0
C488 C 0.82912 0.57926 0.08795 0.0
C489 C 0.79913 0.49226 0.09034 0.0
O490 O 0.7527 0.54872 0.06917 0.0
O491 O 0.79168 0.54192 0.03334 0.0
O492 O 0.74086 0.53603 0.13894 0.0
O493 O 0.78056 0.55801 0.15071 0.0
O494 O 0.77689 0.49634 0.10957 0.0
O495 O 0.80882 0.51262 0.08197 0.0
O496 O 0.86564 0.52415 0.09679 0.0
O497 O 0.82881 0.53743 0.13196 0.0
C498 C 0.76212 0.54714 0.0412 0.0
C499 C 0.85723 0.52907 0.12452 0.0
Dy500 Dy 0.3582 0.78328 0.05799 0.0
C501 C 0.44125 0.77214 0.15999 0.0
C502 C 0.33234 0.79 1.00318 0.0
Dy503 Dy 0.41276 0.784 0.10792 0.0
O504 O 0.33549 0.76911 1.01643 0.0
O505 O 0.34119 0.80736 0.02093 0.0
O506 O 0.33829 0.7497 0.07868 0.0
O507 O 0.38756 0.75658 0.08162 0.0
C508 C 0.36528 0.74276 0.09003 0.0
C509 C 0.39821 0.8292 0.08805 0.0
O510 O 0.44269 0.77249 0.06949 0.0
O511 O 0.4041 0.77986 0.03339 0.0
O512 O 0.45422 0.78544 0.1394 0.0
O513 O 0.41378 0.76427 0.15114 0.0
O514 O 0.42021 0.82525 0.10766 0.0
O515 O 0.38771 0.80882 0.08042 0.0
O516 O 0.32959 0.79858 0.09506 0.0
O517 O 0.36655 0.78869 0.13197 0.0
C518 C 0.43354 0.77439 0.04141 0.0
C519 C 0.33818 0.79652 0.12327 0.0
Dy520 Dy 0.83289 0.78132 0.22465 0.0
C521 C 0.74576 0.77697 0.1241 0.0
C522 C 0.85862 0.78292 0.28012 0.0
Dy523 Dy 0.77852 0.78487 0.17513 0.0
O524 O 0.85293 0.76333 0.26493 0.0
O525 O 0.85274 0.80199 0.26381 0.0
O526 O 0.85178 0.74831 0.20224 0.0
O527 O 0.80249 0.75582 0.20005 0.0
C528 C 0.82455 0.74199 0.19095 0.0
C529 C 0.79568 0.82928 0.19598 0.0
O530 O 0.74786 0.77383 0.21306 0.0
O531 O 0.78691 0.77853 0.24933 0.0
O532 O 0.77185 0.76591 0.13157 0.0
O533 O 0.73665 0.79131 0.14538 0.0
O534 O 0.77386 0.82628 0.17604 0.0
O535 O 0.80496 0.80849 0.20336 0.0
O536 O 0.86197 0.7965 0.18753 0.0
O537 O 0.8248 0.78663 0.15091 0.0
C538 C 0.75723 0.77426 0.2411 0.0
C539 C 0.85357 0.79376 0.1593 0.0
Dy540 Dy 0.36382 0.5398 0.22665 0.0
C541 C 0.44535 0.54954 0.12372 0.0
C542 C 0.33884 0.53206 0.28149 0.0
Dy543 Dy 0.4174 0.5384 0.17614 0.0
O544 O 0.33981 0.55299 0.26803 0.0
O545 O 0.34949 0.51517 0.26398 0.0
O546 O 0.34289 0.57281 0.2056 0.0
O547 O 0.39231 0.56629 0.20192 0.0
C548 C 0.36951 0.57973 0.19356 0.0
C549 C 0.40292 0.49343 0.19669 0.0
O550 O 0.44836 0.54976 0.21389 0.0
O551 O 0.40972 0.54594 0.25074 0.0
O552 O 0.45844 0.53637 0.14441 0.0
O553 O 0.41806 0.55769 0.13264 0.0
O554 O 0.42443 0.4971 0.17662 0.0
O555 O 0.39289 0.51393 0.20438 0.0
O556 O 0.33462 0.52423 0.18999 0.0
O557 O 0.37102 0.53352 0.15253 0.0
C558 C 0.43929 0.55005 0.24203 0.0
C559 C 0.3428 0.52589 0.16167 0.0
Dy560 Dy 0.1687 0.53278 0.92539 0.0
C561 C 0.09046 0.53119 0.03164 0.0
C562 C 0.20156 0.52523 0.87442 0.0
Dy563 Dy 0.11529 0.52994 0.97591 0.0
O564 O 0.17499 0.51464 0.88126 0.0
O565 O 0.21103 0.53886 0.89626 0.0
O566 O 0.17314 0.57427 0.92573 0.0
O567 O 0.14337 0.5566 0.95412 0.0
C568 C 0.15207 0.57737 0.94627 0.0
C569 C 0.12244 0.49005 0.94279 0.0
O570 O 0.08584 0.54519 0.93894 0.0
O571 O 0.12198 0.5343 0.90193 0.0
O572 O 0.09597 0.51173 1.01619 0.0
O573 O 0.0961 0.55039 1.01552 0.0
O574 O 0.09577 0.4967 0.95488 0.0
O575 O 0.14484 0.50401 0.95092 0.0
O576 O 0.19979 0.52146 0.96306 0.0
O577 O 0.16166 0.52718 0.99988 0.0
C578 C 0.0936 0.542 0.91063 0.0
C579 C 0.191 0.5223 0.99123 0.0
Dy580 Dy 0.53477 0.28346 0.92812 0.0
C581 C 0.61246 0.28055 0.03094 0.0
C582 C 0.50262 0.28629 0.87551 0.0
Dy583 Dy 0.58624 0.28732 0.97609 0.0
O584 O 0.5012 0.26829 0.89405 0.0
O585 O 0.52055 0.30333 0.88637 0.0
O586 O 0.52309 0.24557 0.94475 0.0
O587 O 0.56918 0.25866 0.94764 0.0
C588 C 0.55153 0.24118 0.95444 0.0
C589 C 0.57528 0.32854 0.94705 0.0
O590 O 0.61823 0.27651 0.93887 0.0
O591 O 0.58041 0.28531 0.9028 0.0
O592 O 0.61165 0.30112 1.01668 0.0
O593 O 0.60128 0.26344 1.01407 0.0
O594 O 0.60281 0.32264 0.958 0.0
O595 O 0.55408 0.31337 0.95465 0.0
O596 O 0.50321 0.29584 0.96469 0.0
O597 O 0.54018 0.28542 1.00039 0.0
C598 C 0.60992 0.28003 0.91079 0.0
C599 C 0.51118 0.2919 0.9926 0.0
Dy600 Dy 0.1629 0.28618 0.85858 0.0
C601 C 0.08445 0.27975 0.75214 0.0
C602 C 0.19592 0.29524 0.90927 0.0
Dy603 Dy 0.10904 0.28662 0.80752 0.0
O604 O 0.20544 0.28113 0.88792 0.0
O605 O 0.16923 0.30555 0.902 0.0
O606 O 0.16739 0.24462 0.86057 0.0
O607 O 0.13655 0.26131 0.83224 0.0
C608 C 0.14572 0.24084 0.8407 0.0
C609 C 0.11834 0.32859 0.83625 0.0
O610 O 0.07994 0.27348 0.84556 0.0
O611 O 0.11597 0.28682 0.88165 0.0
O612 O 0.0875 0.30064 0.76534 0.0
O613 O 0.09253 0.26242 0.77027 0.0
O614 O 0.09139 0.32216 0.82442 0.0
O615 O 0.13984 0.31329 0.82991 0.0
O616 O 0.19355 0.29556 0.81987 0.0
O617 O 0.15542 0.28651 0.78399 0.0
C618 C 0.08772 0.27841 0.87348 0.0
C619 C 0.18479 0.29198 0.79196 0.0
Dy620 Dy 0.53107 0.53175 0.85854 0.0
C621 C 0.61056 0.53781 0.75359 0.0
C622 C 0.49806 0.52339 0.90915 0.0
Dy623 Dy 0.58565 0.5298 0.80851 0.0
O624 O 0.48868 0.53743 0.88763 0.0
O625 O 0.52461 0.51281 0.90211 0.0
O626 O 0.52579 0.57319 0.85826 0.0
O627 O 0.5568 0.55588 0.83064 0.0
C628 C 0.54747 0.57654 0.83834 0.0
C629 C 0.57788 0.48973 0.84108 0.0
O630 O 0.61385 0.54494 0.8462 0.0
O631 O 0.57737 0.53339 0.88262 0.0
O632 O 0.61147 0.51716 0.76773 0.0
O633 O 0.5982 0.5544 0.77054 0.0
O634 O 0.60493 0.496 0.8293 0.0
O635 O 0.5559 0.50387 0.83263 0.0
O636 O 0.50094 0.5199 0.82059 0.0
O637 O 0.54018 0.52304 0.78416 0.0
C638 C 0.60569 0.54146 0.87432 0.0
C639 C 0.51054 0.51901 0.79265 0.0
H640 H 0.34058 0.83932 0.06297 0.0
H641 H 0.42441 0.87352 0.09846 0.0
H642 H 0.31539 0.8792 0.05773 0.0
H643 H 0.39924 0.91341 0.09352 0.0
H644 H 0.35233 0.98395 0.06487 0.0
H645 H 0.37786 0.94428 0.05824 0.0
H646 H 0.29522 0.90895 0.09462 0.0
H647 H 0.26978 0.94855 0.10099 0.0
C648 C 0.3539 0.85538 0.06897 0.0
C649 C 0.38451 0.85332 0.08095 0.0
C650 C 0.33936 0.87823 0.06626 0.0
C651 C 0.35526 0.8995 0.0753 0.0
C652 C 0.38645 0.89745 0.08605 0.0
C653 C 0.40083 0.87459 0.08901 0.0
C654 C 0.33937 0.96768 0.07075 0.0
C655 C 0.30899 0.96931 0.08325 0.0
C656 C 0.3541 0.94497 0.06724 0.0
C657 C 0.33859 0.92344 0.07592 0.0
C658 C 0.30769 0.92511 0.08736 0.0
C659 C 0.29316 0.9478 0.09114 0.0
H660 H 0.77368 0.44777 0.10123 0.0
H661 H 0.85702 0.48246 0.06569 0.0
H662 H 0.79897 0.40797 0.09571 0.0
H663 H 0.88238 0.44265 0.05997 0.0
H664 H 0.92807 0.37164 0.1 0.0
H665 H 0.90308 0.41165 0.09556 0.0
H666 H 0.81932 0.37804 0.0588 0.0
H667 H 0.84435 0.33807 0.06344 0.0
C668 C 0.79722 0.44683 0.09175 0.0
C669 C 0.81329 0.4682 0.0837 0.0
C670 C 0.81167 0.42403 0.08845 0.0
C671 C 0.84272 0.42211 0.07739 0.0
C672 C 0.85851 0.44351 0.06869 0.0
C673 C 0.84387 0.46631 0.07169 0.0
C674 C 0.90454 0.37287 0.09046 0.0
C675 C 0.88824 0.35171 0.08191 0.0
C676 C 0.89026 0.3958 0.08782 0.0
C677 C 0.85915 0.39806 0.0769 0.0
C678 C 0.84322 0.37691 0.06749 0.0
C679 C 0.85768 0.35401 0.06985 0.0
H680 H 0.42861 0.4489 0.18671 0.0
H681 H 0.34502 0.48386 0.22149 0.0
H682 H 0.40304 0.40922 0.1918 0.0
H683 H 0.31939 0.44418 0.2268 0.0
H684 H 0.27369 0.37427 0.18421 0.0
H685 H 0.29909 0.41397 0.1901 0.0
H686 H 0.38156 0.379 0.22772 0.0
H687 H 0.35613 0.33932 0.22157 0.0
C688 C 0.40499 0.44804 0.19603 0.0
C689 C 0.38888 0.46947 0.20387 0.0
C690 C 0.39037 0.42531 0.19905 0.0
C691 C 0.35914 0.42353 0.20965 0.0
C692 C 0.3434 0.44495 0.2184 0.0
C693 C 0.3582 0.46768 0.21566 0.0
C694 C 0.29702 0.37513 0.19422 0.0
C695 C 0.31287 0.35371 0.20259 0.0
C696 C 0.31152 0.39787 0.19772 0.0
C697 C 0.34239 0.39965 0.20935 0.0
C698 C 0.35785 0.37823 0.21854 0.0
C699 C 0.34317 0.35551 0.2153 0.0
H700 H 0.77094 0.87392 0.18603 0.0
H701 H 0.85346 0.83807 0.22201 0.0
H702 H 0.79679 0.91329 0.19175 0.0
H703 H 0.87961 0.8777 0.22786 0.0
H704 H 0.92568 0.94862 0.1866 0.0
H705 H 0.90088 0.90863 0.19233 0.0
H706 H 0.81709 0.94297 0.22795 0.0
H707 H 0.84174 0.98282 0.22168 0.0
C708 C 0.79444 0.87453 0.1957 0.0
C709 C 0.81018 0.85296 0.20362 0.0
C710 C 0.80923 0.89712 0.19911 0.0
C711 C 0.8403 0.89867 0.21025 0.0
C712 C 0.85573 0.87709 0.21904 0.0
C713 C 0.84071 0.85443 0.21593 0.0
C714 C 0.90218 0.94754 0.19614 0.0
C715 C 0.88571 0.96884 0.20389 0.0
C716 C 0.88804 0.92463 0.19958 0.0
C717 C 0.85697 0.92259 0.21055 0.0
C718 C 0.84098 0.94391 0.21927 0.0
C719 C 0.85522 0.96677 0.216 0.0
H720 H 0.59664 0.08538 0.97656 0.0
H721 H 0.67452 0.12029 0.93184 0.0
H722 H 0.57145 0.1251 0.98422 0.0
H723 H 0.64934 0.15973 0.93873 0.0
H724 H 0.6115 0.22984 0.97109 0.0
H725 H 0.63546 0.18969 0.97492 0.0
H726 H 0.5451 0.15661 0.9546 0.0
H727 H 0.5208 0.1971 0.9518 0.0
C728 C 0.60859 0.10156 0.96882 0.0
C729 C 0.63765 0.09977 0.95385 0.0
C730 C 0.59402 0.1243 0.97289 0.0
C731 C 0.60836 0.14569 0.96218 0.0
C732 C 0.63781 0.14378 0.94778 0.0
C733 C 0.65223 0.12112 0.94367 0.0
C734 C 0.59655 0.21401 0.9681 0.0
C735 C 0.56429 0.21663 0.961 0.0
C736 C 0.61037 0.19095 0.97 0.0
C737 C 0.59239 0.16987 0.96456 0.0
C738 C 0.55965 0.17243 0.95906 0.0
C739 C 0.54572 0.19562 0.95735 0.0
H740 H 0.02037 0.69558 0.93717 0.0
H741 H 0.10401 0.73062 0.97181 0.0
H742 H 0.0458 0.65581 0.94318 0.0
H743 H 0.12935 0.69098 0.97819 0.0
H744 H 0.17572 0.62214 0.93515 0.0
H745 H 0.1494 0.66136 0.94112 0.0
H746 H 0.06826 0.62532 0.97937 0.0
H747 H 0.09491 0.58589 0.97342 0.0
C748 C 0.04394 0.69473 0.94669 0.0
C749 C 0.06016 0.7162 0.95419 0.0
C750 C 0.05844 0.67196 0.95027 0.0
C751 C 0.08964 0.67023 0.96109 0.0
C752 C 0.10536 0.6917 0.96964 0.0
C753 C 0.09073 0.71443 0.96628 0.0
C754 C 0.1525 0.62263 0.94534 0.0
C755 C 0.13736 0.60099 0.95385 0.0
C756 C 0.13746 0.64512 0.94888 0.0
C757 C 0.10671 0.64648 0.96071 0.0
C758 C 0.09189 0.62484 0.97005 0.0
C759 C 0.1072 0.6023 0.96685 0.0
H760 H 0.59263 0.73035 0.8125 0.0
H761 H 0.67609 0.6966 0.84949 0.0
H762 H 0.5682 0.69037 0.80634 0.0
H763 H 0.65154 0.65653 0.84383 0.0
H764 H 0.60574 0.58578 0.81381 0.0
H765 H 0.63136 0.62552 0.80814 0.0
H766 H 0.54737 0.66062 0.84228 0.0
H767 H 0.52191 0.62103 0.84769 0.0
C768 C 0.60604 0.71436 0.81865 0.0
C769 C 0.63633 0.71658 0.83125 0.0
C770 C 0.59193 0.69145 0.81544 0.0
C771 C 0.60787 0.67025 0.82467 0.0
C772 C 0.63875 0.67244 0.83617 0.0
C773 C 0.65275 0.69539 0.83957 0.0
C774 C 0.59255 0.60202 0.8194 0.0
C775 C 0.56178 0.60034 0.83102 0.0
C776 C 0.60731 0.62477 0.81644 0.0
C777 C 0.59142 0.64625 0.82478 0.0
C778 C 0.56016 0.64451 0.83529 0.0
C779 C 0.5456 0.62181 0.83852 0.0
H780 H 0.17106 0.19639 0.85169 0.0
H781 H 0.08898 0.23135 0.81365 0.0
H782 H 0.14619 0.15666 0.84482 0.0
H783 H 0.06409 0.19157 0.80634 0.0
H784 H 0.01709 0.12137 0.84652 0.0
H785 H 0.04217 0.16115 0.84118 0.0
H786 H 0.12697 0.12647 0.80816 0.0
H787 H 0.10184 0.08663 0.8139 0.0
C788 C 0.14792 0.19551 0.84131 0.0
C789 C 0.132 0.21692 0.83304 0.0
C790 C 0.13374 0.17275 0.83719 0.0
C791 C 0.10314 0.17093 0.825 0.0
C792 C 0.08762 0.19237 0.81591 0.0
C793 C 0.10197 0.21514 0.81981 0.0
C794 C 0.04086 0.1223 0.83755 0.0
C795 C 0.05747 0.10092 0.83049 0.0
C796 C 0.05519 0.1451 0.83435 0.0
C797 C 0.08662 0.14699 0.82431 0.0
C798 C 0.1028 0.1256 0.81614 0.0
C799 C 0.08831 0.10278 0.8191 0.0
H800 H 0.33908 0.33806 0.56607 0.0
H801 H 0.43005 0.36935 0.58766 0.0
H802 H 0.3162 0.37859 0.56213 0.0
H803 H 0.40684 0.41021 0.5847 0.0
H804 H 0.35843 0.48218 0.56084 0.0
H805 H 0.38255 0.44198 0.55429 0.0
H806 H 0.30191 0.40909 0.59746 0.0
H807 H 0.27771 0.44905 0.60311 0.0
C808 C 0.35431 0.35365 0.56964 0.0
C809 C 0.38634 0.35051 0.57731 0.0
C810 C 0.3411 0.37693 0.56765 0.0
C811 C 0.35949 0.39772 0.57355 0.0
C812 C 0.39199 0.39463 0.57984 0.0
C813 C 0.4053 0.37123 0.58166 0.0
C814 C 0.34558 0.46629 0.5682 0.0
C815 C 0.316 0.46873 0.5821 0.0
C816 C 0.35958 0.44327 0.56483 0.0
C817 C 0.34419 0.42221 0.57526 0.0
C818 C 0.31426 0.42477 0.58864 0.0
C819 C 0.3004 0.44772 0.59204 0.0
H820 H 0.77208 0.94847 0.59469 0.0
H821 H 0.85664 0.98267 0.56106 0.0
H822 H 0.7965 0.90846 0.5883 0.0
H823 H 0.88095 0.94271 0.55405 0.0
H824 H 0.92587 0.87279 0.59565 0.0
H825 H 0.90082 0.91245 0.58951 0.0
H826 H 0.81757 0.87771 0.55318 0.0
H827 H 0.84284 0.83781 0.55959 0.0
C828 C 0.79563 0.94738 0.58526 0.0
C829 C 0.81238 0.96869 0.57816 0.0
C830 C 0.80957 0.92445 0.58144 0.0
C831 C 0.84073 0.92235 0.57071 0.0
C832 C 0.85699 0.94369 0.56253 0.0
C833 C 0.84294 0.96661 0.5662 0.0
C834 C 0.90245 0.87365 0.58583 0.0
C835 C 0.88631 0.85224 0.57807 0.0
C836 C 0.88813 0.89641 0.58216 0.0
C837 C 0.85714 0.8983 0.57088 0.0
C838 C 0.84138 0.87686 0.56211 0.0
C839 C 0.85591 0.85404 0.56554 0.0
H840 H 0.33994 0.98304 0.72116 0.0
H841 H 0.42314 0.94805 0.68563 0.0
H842 H 0.31478 0.94324 0.72764 0.0
H843 H 0.39809 0.90833 0.69183 0.0
H844 H 0.35296 0.83834 0.72212 0.0
H845 H 0.37778 0.87827 0.72817 0.0
H846 H 0.29405 0.91254 0.69204 0.0
H847 H 0.26925 0.87264 0.68635 0.0
C848 C 0.35311 0.96683 0.71539 0.0
C849 C 0.38354 0.96861 0.70306 0.0
C850 C 0.33862 0.94404 0.71883 0.0
C851 C 0.35442 0.92259 0.71023 0.0
C852 C 0.3854 0.92442 0.69903 0.0
C853 C 0.3997 0.94718 0.69533 0.0
C854 C 0.33957 0.85443 0.71626 0.0
C855 C 0.30911 0.85239 0.70396 0.0
C856 C 0.3539 0.8773 0.71942 0.0
C857 C 0.33793 0.8986 0.71051 0.0
C858 C 0.30688 0.89656 0.69944 0.0
C859 C 0.29272 0.87369 0.69604 0.0
H860 H 0.77476 0.37179 0.68476 0.0
H861 H 0.85789 0.33792 0.72223 0.0
H862 H 0.79939 0.41179 0.6904 0.0
H863 H 0.8826 0.37791 0.72804 0.0
H864 H 0.92802 0.44848 0.68674 0.0
H865 H 0.90334 0.40844 0.69179 0.0
H866 H 0.81913 0.44222 0.72729 0.0
H867 H 0.84387 0.48224 0.72207 0.0
C868 C 0.79808 0.37295 0.69473 0.0
C869 C 0.81434 0.35174 0.70321 0.0
C870 C 0.81215 0.39587 0.69808 0.0
C871 C 0.843 0.39804 0.70964 0.0
C872 C 0.85889 0.37683 0.71892 0.0
C873 C 0.84462 0.35393 0.71586 0.0
C874 C 0.90446 0.44729 0.69614 0.0
C875 C 0.88793 0.46848 0.70417 0.0
C876 C 0.89036 0.42435 0.69914 0.0
C877 C 0.85923 0.42214 0.70989 0.0
C878 C 0.84307 0.44333 0.71878 0.0
C879 C 0.85735 0.46625 0.71608 0.0
H880 H 0.59411 0.58667 0.47351 0.0
H881 H 0.67699 0.62304 0.43954 0.0
H882 H 0.56799 0.62605 0.48034 0.0
H883 H 0.65086 0.66231 0.44569 0.0
H884 H 0.60365 0.73175 0.47279 0.0
H885 H 0.62951 0.69238 0.48009 0.0
H886 H 0.54637 0.65615 0.4457 0.0
H887 H 0.52039 0.69551 0.43923 0.0
C888 C 0.60703 0.60309 0.46823 0.0
C889 C 0.63764 0.60181 0.45622 0.0
C890 C 0.59196 0.62565 0.47179 0.0
C891 C 0.60728 0.64737 0.46348 0.0
C892 C 0.63849 0.64603 0.4527 0.0
C893 C 0.65342 0.62351 0.44901 0.0
C894 C 0.59057 0.71536 0.46773 0.0
C895 C 0.55991 0.71668 0.45575 0.0
C896 C 0.60552 0.69279 0.47153 0.0
C897 C 0.59007 0.67107 0.46341 0.0
C898 C 0.55884 0.67243 0.45257 0.0
C899 C 0.544 0.695 0.44868 0.0
H900 H 0.1712 0.11882 0.43402 0.0
H901 H 0.09099 0.08426 0.47539 0.0
H902 H 0.14643 0.15846 0.44092 0.0
H903 H 0.06655 0.12401 0.48358 0.0
H904 H 0.01749 0.1964 0.45282 0.0
H905 H 0.04146 0.15584 0.45502 0.0
H906 H 0.13192 0.18827 0.47661 0.0
H907 H 0.10832 0.22854 0.47313 0.0
C908 C 0.14853 0.11976 0.4452 0.0
C909 C 0.13326 0.09847 0.45461 0.0
C910 C 0.13437 0.14251 0.44935 0.0
C911 C 0.10451 0.14453 0.46304 0.0
C912 C 0.08946 0.12316 0.47287 0.0
C913 C 0.10369 0.10037 0.46862 0.0
C914 C 0.04235 0.19476 0.45855 0.0
C915 C 0.06106 0.21563 0.46265 0.0
C916 C 0.05611 0.17152 0.4599 0.0
C917 C 0.08879 0.16877 0.46557 0.0
C918 C 0.10689 0.18969 0.47151 0.0
C919 C 0.09325 0.21281 0.46987 0.0
H920 H 0.59132 0.23067 0.31168 0.0
H921 H 0.68204 0.19789 0.33115 0.0
H922 H 0.56728 0.19052 0.30854 0.0
H923 H 0.65768 0.15741 0.32885 0.0
H924 H 0.60484 0.08613 0.30772 0.0
H925 H 0.63044 0.12565 0.29935 0.0
H926 H 0.55417 0.16118 0.34627 0.0
H927 H 0.52871 0.12199 0.35409 0.0
C928 C 0.60627 0.21483 0.31482 0.0
C929 C 0.63854 0.21745 0.32185 0.0
C930 C 0.59241 0.19178 0.31328 0.0
C931 C 0.61038 0.17072 0.31897 0.0
C932 C 0.64315 0.17324 0.32425 0.0
C933 C 0.65712 0.19642 0.32564 0.0
C934 C 0.59339 0.10247 0.31572 0.0
C935 C 0.5647 0.10104 0.33137 0.0
C936 C 0.60815 0.12507 0.31118 0.0
C937 C 0.59433 0.14665 0.32201 0.0
C938 C 0.56527 0.14506 0.33712 0.0
C939 C 0.5507 0.12256 0.34177 0.0
H940 H 0.0931 0.73199 0.30852 0.0
H941 H 0.17493 0.69736 0.34732 0.0
H942 H 0.06965 0.69218 0.29866 0.0
H943 H 0.15108 0.6576 0.33896 0.0
H944 H 0.1125 0.58743 0.30757 0.0
H945 H 0.13588 0.62783 0.30359 0.0
H946 H 0.04568 0.66009 0.32651 0.0
H947 H 0.02206 0.61959 0.32923 0.0
C948 C 0.1064 0.71586 0.31427 0.0
C949 C 0.1361 0.71776 0.32812 0.0
C950 C 0.09274 0.69301 0.30911 0.0
C951 C 0.10843 0.67157 0.31793 0.0
C952 C 0.13851 0.6736 0.33128 0.0
C953 C 0.15213 0.69642 0.3363 0.0
C954 C 0.09749 0.60319 0.31101 0.0
C955 C 0.06551 0.60036 0.31889 0.0
C956 C 0.11097 0.62637 0.30906 0.0
C957 C 0.09287 0.64728 0.31527 0.0
C958 C 0.06034 0.64446 0.32139 0.0
C959 C 0.04677 0.62122 0.32305 0.0
H960 H 0.26229 0.07398 0.20948 0.0
H961 H 0.20506 1.01263 0.18305 0.0
H962 H 0.24901 0.0663 0.26113 0.0
H963 H 0.19334 1.00385 0.23445 0.0
H964 H 0.15508 1.00599 0.32791 0.0
H965 H 0.1664 1.01429 0.2764 0.0
H966 H 0.25958 0.04055 0.30072 0.0
H967 H 0.24708 1.0336 0.35276 0.0
C968 C 0.24661 0.05899 0.21476 0.0
C969 C 0.23448 0.04405 0.19226 0.0
C970 C 0.23939 0.05427 0.24442 0.0
C971 C 0.22037 1.0342 0.25232 0.0
C972 C 0.20765 1.01968 0.22951 0.0
C973 C 0.21437 1.0247 0.19989 0.0
C974 C 0.17819 1.01318 0.32222 0.0
C975 C 0.20026 1.01906 0.34436 0.0
C976 C 0.18477 1.01796 0.29253 0.0
C977 C 0.2139 1.02831 0.28406 0.0
C978 C 0.23656 1.03316 0.30627 0.0
C979 C 0.22968 1.02881 0.33611 0.0
H980 H 0.00675 0.31795 0.33196 0.0
H981 H 0.97171 0.2456 0.34976 0.0
H982 H -0.00578 0.31279 0.2796 0.0
H983 H 0.96031 0.23995 0.29744 0.0
H984 H 0.91399 0.248 0.20632 0.0
H985 H 0.92647 0.25184 0.25859 0.0
H986 H 0.01175 0.29153 0.23664 0.0
H987 H -0.00161 0.28843 0.18418 0.0
C988 C -0.00386 0.30102 0.32466 0.0
C989 C -0.01 0.28225 0.3449 0.0
C990 C -0.01064 0.29789 0.2946 0.0
C991 C -0.02346 0.27583 0.28411 0.0
C992 C 0.96983 0.25728 0.30464 0.0
C993 C -0.02363 0.2605 0.33468 0.0
C994 C 0.93568 0.2572 0.21264 0.0
C995 C 0.95523 0.26793 0.19119 0.0
C996 C 0.94288 0.25941 0.24267 0.0
C997 C 0.96998 0.27224 0.25199 0.0
C998 C -0.00969 0.282 0.23035 0.0
C999 C -0.01706 0.27994 0.20026 0.0
H1000 H 0.1805 0.32445 0.95597 0.0
H1001 H 0.23759 0.26236 0.93179 0.0
H1002 H 0.19465 0.31841 1.0078 0.0
H1003 H 0.25022 0.25525 0.98344 0.0
H1004 H 0.28998 0.26027 0.07624 0.0
H1005 H 0.27786 0.26718 0.02454 0.0
H1006 H 0.18486 0.29384 0.04871 0.0
H1007 H 0.19815 0.28826 0.10088 0.0
C1008 C 0.19634 0.30964 0.96177 0.0
C1009 C 0.20817 0.29402 0.93985 0.0
C1010 C 0.20406 0.30588 0.99156 0.0
C1011 C 0.22333 0.28611 1.00017 0.0
C1012 C 0.23574 0.27089 0.97792 0.0
C1013 C 0.2285 0.27495 0.94816 0.0
C1014 C 0.26676 0.26728 0.07049 0.0
C1015 C 0.24494 0.27363 0.0926 0.0
C1016 C 0.25971 0.27125 0.0407 0.0
C1017 C 0.23036 0.28125 0.03209 0.0
C1018 C 0.20801 0.28667 0.05433 0.0
C1019 C 0.21536 0.28312 0.08426 0.0
H1020 H 0.90762 0.06368 0.07846 0.0
H1021 H -0.00095 1.0344 0.10256 0.0
H1022 H 0.91861 0.0559 0.02681 0.0
H1023 H 0.01128 1.02801 0.05035 0.0
H1024 H 0.01269 0.99561 0.95848 0.0
H1025 H -5e-05 1.00291 1.01034 0.0
H1026 H 0.94557 0.06648 0.98502 0.0
H1027 H 0.95667 0.05809 0.93342 0.0
C1028 C 0.93056 0.05624 0.07258 0.0
C1029 C 0.95254 0.04972 0.09454 0.0
C1030 C 0.93695 0.05177 0.0428 0.0
C1031 C 0.96582 0.04111 0.03407 0.0
C1032 C -0.01155 0.03565 0.05611 0.0
C1033 C -0.01827 0.03968 0.08605 0.0
C1034 C -0.00261 1.01077 0.96411 0.0
C1035 C -0.01458 1.02614 0.94195 0.0
C1036 C -0.0095 1.01526 0.99389 0.0
C1037 C 0.972 0.03553 1.00222 0.0
C1038 C 0.95946 0.05048 0.97974 0.0
C1039 C 0.96582 0.04569 0.95001 0.0
H1040 H 0.75163 0.03568 0.84977 0.0
H1041 H 0.65924 1.00916 0.82442 0.0
H1042 H 0.76476 0.04213 0.79775 0.0
H1043 H 0.67119 1.017 0.77295 0.0
H1044 H 0.71068 1.01365 0.68006 0.0
H1045 H 0.6983 1.00563 0.7315 0.0
H1046 H 0.75526 0.06756 0.75761 0.0
H1047 H 0.7692 0.07445 0.70593 0.0
C1048 C 0.73427 1.03105 0.83302 0.0
C1049 C 0.70457 1.02172 0.8411 0.0
C1050 C 0.74152 0.03511 0.80319 0.0
C1051 C 0.71896 1.03038 0.78085 0.0
C1052 C 0.68949 1.02053 0.78919 0.0
C1053 C 0.68255 1.01604 0.81885 0.0
C1054 C 0.72013 1.02578 0.69678 0.0
C1055 C 0.74079 0.04473 0.68901 0.0
C1056 C 0.71303 1.0212 0.72642 0.0
C1057 C 0.72589 0.03579 0.74908 0.0
C1058 C 0.7455 0.05548 0.74102 0.0
C1059 C 0.7531 0.05974 0.71134 0.0
H1060 H 0.94766 0.78141 0.84989 0.0
H1061 H 0.03863 0.81189 0.82699 0.0
H1062 H 0.93538 0.77624 0.79747 0.0
H1063 H 0.02754 0.8054 0.77502 0.0
H1064 H -0.01153 0.80973 0.68174 0.0
H1065 H -0.00012 0.81696 0.73363 0.0
H1066 H 0.94742 0.75199 0.75675 0.0
H1067 H 0.93445 0.74581 0.70472 0.0
C1068 C 0.96487 0.78721 0.8336 0.0
C1069 C -0.00604 0.79719 0.84248 0.0
C1070 C 0.95812 0.78389 0.80353 0.0
C1071 C -0.0194 0.79007 0.78173 0.0
C1072 C 0.00935 0.8007 0.79086 0.0
C1073 C 0.01579 0.80442 0.8208 0.0
C1074 C -0.02017 0.79679 0.6979 0.0
C1075 C 0.96069 0.77716 0.68922 0.0
C1076 C -0.01365 0.80091 0.72778 0.0
C1077 C -0.02561 0.78521 0.74972 0.0
C1078 C 0.95639 0.76489 0.74073 0.0
C1079 C 0.94937 0.76106 0.71084 0.0
H1080 H 0.65734 0.81416 0.95535 0.0
H1081 H 0.74835 0.78339 0.93291 0.0
H1082 H 0.66805 0.80753 1.00737 0.0
H1083 H 0.76023 0.77806 0.98539 0.0
H1084 H 0.76009 0.74709 0.07788 0.0
H1085 H 0.74753 0.75359 0.0258 0.0
H1086 H 0.69556 0.81882 0.04902 0.0
H1087 H 0.70657 0.81131 0.10093 0.0
C1088 C 0.68012 0.80662 0.96165 0.0
C1089 C 0.70206 0.79933 0.94008 0.0
C1090 C 0.68633 0.80281 0.99161 0.0
C1091 C 0.71495 0.79202 1.00088 0.0
C1092 C 0.73757 0.78583 0.97921 0.0
C1093 C 0.73106 0.78924 0.94911 0.0
C1094 C 0.74536 0.76247 0.07176 0.0
C1095 C 0.73408 0.77857 0.09341 0.0
C1096 C 0.73859 0.76648 0.04186 0.0
C1097 C 0.72086 0.78698 0.03289 0.0
C1098 C 0.70889 0.80266 0.05485 0.0
C1099 C 0.71518 0.79837 0.08474 0.0
H1100 H 0.18669 0.49662 0.82711 0.0
H1101 H 0.24255 0.55892 0.85284 0.0
H1102 H 0.20058 0.50363 0.77547 0.0
H1103 H 0.25494 0.56698 0.80136 0.0
H1104 H 0.29478 0.56294 0.70833 0.0
H1105 H 0.28279 0.55567 0.75997 0.0
H1106 H 0.18987 0.52904 0.73541 0.0
H1107 H 0.20298 0.535 0.68334 0.0
C1108 C 0.2022 0.51169 0.82168 0.0
C1109 C 0.21376 0.5271 0.84395 0.0
C1110 C 0.20976 0.516 0.79202 0.0
C1111 C 0.22859 0.53612 0.78392 0.0
C1112 C 0.24077 0.55111 0.80651 0.0
C1113 C 0.23368 0.54651 0.83616 0.0
C1114 C 0.27159 0.55587 0.714 0.0
C1115 C 0.24977 0.54957 0.69182 0.0
C1116 C 0.26464 0.5517 0.74374 0.0
C1117 C 0.23539 0.54152 0.75216 0.0
C1118 C 0.21297 0.5363 0.72988 0.0
C1119 C 0.22021 0.54008 0.70002 0.0
H1120 H 0.15532 0.80978 0.45809 0.0
H1121 H 0.24793 0.78319 0.43367 0.0
H1122 H 0.16722 0.80251 0.50977 0.0
H1123 H 0.26098 0.77732 0.48582 0.0
H1124 H 0.26523 0.74559 0.5778 0.0
H1125 H 0.25116 0.75201 0.52603 0.0
H1126 H 0.19442 0.81435 0.55117 0.0
H1127 H 0.20693 0.80681 0.60273 0.0
C1128 C 0.17865 0.80302 0.46391 0.0
C1129 C 0.20076 0.79711 0.44188 0.0
C1130 C 0.18556 0.79885 0.49367 0.0
C1131 C 0.21505 0.78912 0.50227 0.0
C1132 C 0.23771 0.78423 0.48015 0.0
C1133 C 0.2305 0.78796 0.45025 0.0
C1134 C 0.24916 0.76028 0.57216 0.0
C1135 C 0.23696 0.77557 0.59424 0.0
C1136 C 0.24148 0.76427 0.54244 0.0
C1137 C 0.22193 0.78395 0.53409 0.0
C1138 C 0.20913 0.7988 0.5565 0.0
C1139 C 0.21631 0.7945 0.58619 0.0
H1140 H 0.03723 0.5675 0.45543 0.0
H1141 H 0.95929 0.5184 0.43876 0.0
H1142 H 0.0217 0.57051 0.50721 0.0
H1143 H 0.94318 0.52199 0.49087 0.0
H1144 H 0.90808 0.56214 0.57704 0.0
H1145 H 0.92371 0.55927 0.52514 0.0
H1146 H 0.01834 0.53874 0.55169 0.0
H1147 H 0.00247 0.54096 0.60382 0.0
C1148 C 0.0166 0.55747 0.46282 0.0
C1149 C -0.00064 0.54275 0.44308 0.0
C1150 C 0.00788 0.55911 0.49249 0.0
C1151 C -0.01867 0.54648 0.50298 0.0
C1152 C 0.96372 0.53198 0.48322 0.0
C1153 C 0.97291 0.52989 0.45352 0.0
C1154 C 0.93233 0.55728 0.57183 0.0
C1155 C 0.95416 0.5519 0.59445 0.0
C1156 C 0.94112 0.55539 0.54214 0.0
C1157 C 0.9721 0.54859 0.53448 0.0
C1158 C -0.00573 0.54401 0.55708 0.0
C1159 C -0.01473 0.54538 0.58683 0.0
H1160 H 0.69755 0.53328 0.18315 0.0
H1161 H 0.7878 0.56495 0.20642 0.0
H1162 H 0.68555 0.5276 0.23552 0.0
H1163 H 0.77709 0.55791 0.25828 0.0
H1164 H 0.73887 0.56085 0.35158 0.0
H1165 H 0.74958 0.56867 0.29977 0.0
H1166 H 0.69811 0.50334 0.27606 0.0
H1167 H 0.68572 0.49658 0.3281 0.0
C1168 C 0.71464 0.53924 0.19951 0.0
C1169 C 0.74345 0.54971 0.19075 0.0
C1170 C 0.70808 0.53562 0.22955 0.0
C1171 C 0.73048 0.54197 0.25141 0.0
C1172 C 0.75893 0.55309 0.2424 0.0
C1173 C 0.76516 0.55712 0.21251 0.0
C1174 C 0.73028 0.54796 0.33531 0.0
C1175 C 0.71159 0.52805 0.34384 0.0
C1176 C 0.73642 0.55242 0.30546 0.0
C1177 C 0.72455 0.53678 0.28338 0.0
C1178 C 0.70698 0.5162 0.2922 0.0
C1179 C 0.70031 0.51203 0.32208 0.0
H1180 H 0.72759 0.24628 0.43555 0.0
H1181 H 0.69305 0.31877 0.45362 0.0
H1182 H 0.73962 0.24064 0.48777 0.0
H1183 H 0.70616 0.31358 0.50587 0.0
H1184 H 0.70333 0.28926 0.60147 0.0
H1185 H 0.68927 0.29242 0.54917 0.0
H1186 H 0.77415 0.25254 0.5262 0.0
H1187 H 0.78736 0.24867 0.57834 0.0
C1188 C 0.72313 0.2612 0.45066 0.0
C1189 C 0.7095 0.283 0.44053 0.0
C1190 C 0.73005 0.25798 0.48065 0.0
C1191 C 0.7237 0.27658 0.50123 0.0
C1192 C 0.71078 0.29866 0.49084 0.0
C1193 C 0.70365 0.30179 0.46083 0.0
C1194 C 0.71856 0.28076 0.58521 0.0
C1195 C 0.74637 0.26867 0.59397 0.0
C1196 C 0.71078 0.28285 0.5552 0.0
C1197 C 0.73076 0.27302 0.5333 0.0
C1198 C 0.75799 0.26015 0.54231 0.0
C1199 C 0.76562 0.25794 0.57227 0.0
H1200 H 0.4771 0.24731 0.8472 0.0
H1201 H 0.50377 0.32235 0.83382 0.0
H1202 H 0.46482 0.24337 0.7949 0.0
H1203 H 0.48999 0.31892 0.78151 0.0
H1204 H 0.49361 0.29919 0.68404 0.0
H1205 H 0.50721 0.30201 0.73647 0.0
H1206 H 0.42959 0.25356 0.75734 0.0
H1207 H 0.41726 0.24992 0.70504 0.0
C1208 C 0.47968 0.26315 0.83312 0.0
C1209 C 0.49128 0.28516 0.84459 0.0
C1210 C 0.47256 0.26093 0.80304 0.0
C1211 C 0.47647 0.28078 0.78368 0.0
C1212 C 0.48727 0.30306 0.79548 0.0
C1213 C 0.49478 0.30517 0.82556 0.0
C1214 C 0.47989 0.28885 0.69989 0.0
C1215 C 0.45455 0.27421 0.69046 0.0
C1216 C 0.48736 0.2907 0.73001 0.0
C1217 C 0.46938 0.27818 0.75141 0.0
C1218 C 0.44436 0.2632 0.74169 0.0
C1219 C 0.4372 0.26113 0.71162 0.0
H1220 H 0.43198 0.07552 0.57882 0.0
H1221 H 0.4876 1.01269 0.60329 0.0
H1222 H 0.44569 0.06908 0.52701 0.0
H1223 H 0.49969 1.00514 0.55168 0.0
H1224 H 0.53896 1.00892 0.45887 0.0
H1225 H 0.52733 1.01629 0.5105 0.0
H1226 H 0.43513 0.04468 0.48622 0.0
H1227 H 0.44802 0.03868 0.43408 0.0
C1228 C 0.4474 0.06046 0.57308 0.0
C1229 C 0.45897 0.04475 0.59506 0.0
C1230 C 0.45486 0.05647 0.54331 0.0
C1231 C 0.47355 0.03636 0.53479 0.0
C1232 C 0.48569 1.02105 0.55711 0.0
C1233 C 0.47875 1.02534 0.58685 0.0
C1234 C 0.51601 1.01642 0.46458 0.0
C1235 C 0.49433 1.02314 0.44245 0.0
C1236 C 0.50924 1.02065 0.49434 0.0
C1237 C 0.48027 1.03126 0.5029 0.0
C1238 C 0.45802 0.03705 0.48064 0.0
C1239 C 0.46511 1.03325 0.45073 0.0
H1240 H 0.40655 0.75745 0.207 0.0
H1241 H 0.49754 0.78765 0.18368 0.0
H1242 H 0.41792 0.76394 0.25891 0.0
H1243 H 0.51012 0.79281 0.23605 0.0
H1244 H 0.51174 0.82309 0.32896 0.0
H1245 H 0.49855 0.81701 0.27693 0.0
H1246 H 0.44568 0.75226 0.30013 0.0
H1247 H 0.45728 0.7594 0.35198 0.0
C1248 C 0.42946 0.76485 0.21308 0.0
C1249 C 0.45121 0.772 0.1913 0.0
C1250 C 0.43606 0.76857 0.24299 0.0
C1251 C 0.46491 0.77912 0.25199 0.0
C1252 C 0.4873 0.78523 0.23009 0.0
C1253 C 0.48039 0.78192 0.20005 0.0
C1254 C 0.49669 0.80792 0.32285 0.0
C1255 C 0.48529 0.79185 0.34448 0.0
C1256 C 0.48954 0.80414 0.29296 0.0
C1257 C 0.47133 0.78391 0.28399 0.0
C1258 C 0.45934 0.76824 0.30595 0.0
C1259 C 0.46599 0.77231 0.33581 0.0
H1260 H 0.40975 0.56321 0.07672 0.0
H1261 H 0.50123 0.53353 0.09992 0.0
H1262 H 0.42007 0.55531 0.02494 0.0
H1263 H 0.51277 0.52699 0.04761 0.0
H1264 H 0.51293 0.49437 0.95611 0.0
H1265 H 0.50033 0.50166 1.00798 0.0
H1266 H 0.447 0.56583 0.98292 0.0
H1267 H 0.45799 0.55747 0.93128 0.0
C1268 C 0.43255 0.55564 0.0706 0.0
C1269 C 0.45474 0.54903 0.09233 0.0
C1270 C 0.43854 0.5511 0.04078 0.0
C1271 C 0.46721 0.54027 0.0318 0.0
C1272 C 0.49007 0.53474 0.0536 0.0
C1273 C 0.48376 0.53886 0.08357 0.0
C1274 C 0.49786 0.50965 0.96179 0.0
C1275 C 0.48622 0.52523 0.93971 0.0
C1276 C 0.49107 0.51413 0.99157 0.0
C1277 C 0.47299 0.53459 0.99995 0.0
C1278 C 0.46061 0.54971 0.97756 0.0
C1279 C 0.46689 0.54493 0.94782 0.0
H1280 H 0.33778 0.99135 0.9704 0.0
H1281 H 0.37622 0.06399 0.96427 0.0
H1282 H 0.33038 0.99048 0.9169 0.0
H1283 H 0.36976 0.06294 0.91068 0.0
H1284 H 0.32024 0.06687 0.82251 0.0
H1285 H 0.3269 0.065 0.87602 0.0
H1286 H 0.3548 0.98945 0.86911 0.0
H1287 H 0.34719 0.99125 0.81563 0.0
C1288 C 0.34544 1.00689 0.95751 0.0
C1289 C 0.35756 1.02775 0.97154 0.0
C1290 C 0.34111 1.00643 0.9268 0.0
C1291 C 0.3489 1.02681 0.90939 0.0
C1292 C 0.36267 0.04715 0.92339 0.0
C1293 C 0.36686 0.04764 0.95409 0.0
C1294 C 0.32711 0.04972 0.83252 0.0
C1295 C 0.33309 1.0292 0.81488 0.0
C1296 C 0.33143 0.04873 0.86317 0.0
C1297 C 0.34206 1.0272 0.87695 0.0
C1298 C 0.34653 1.00632 0.85937 0.0
C1299 C 0.34205 1.00731 0.82868 0.0
H1300 H 0.85299 0.32998 0.97039 0.0
H1301 H 0.81827 0.2563 0.96302 0.0
H1302 H 0.86258 0.331 0.91728 0.0
H1303 H 0.82675 0.25752 0.90971 0.0
H1304 H 0.8797 0.25469 0.82362 0.0
H1305 H 0.87085 0.25644 0.87682 0.0
H1306 H 0.84071 0.33142 0.86868 0.0
H1307 H 0.85066 0.32979 0.81561 0.0
C1308 C 0.84654 0.31424 0.95726 0.0
C1309 C 0.83491 0.29304 0.97086 0.0
C1310 C 0.85213 0.31479 0.92677 0.0
C1311 C 0.84605 0.29418 0.90916 0.0
C1312 C 0.83259 0.2735 0.92264 0.0
C1313 C 0.82722 0.27291 0.95315 0.0
C1314 C 0.87191 0.2717 0.83334 0.0
C1315 C 0.86597 0.29211 0.81548 0.0
C1316 C 0.86631 0.27262 0.86378 0.0
C1317 C 0.85436 0.29392 0.87708 0.0
C1318 C 0.84997 0.31472 0.85933 0.0
C1319 C 0.8558 0.31384 0.82887 0.0
H1320 H 0.35164 0.33161 0.31534 0.0
H1321 H 0.37407 0.25516 0.3229 0.0
H1322 H 0.34259 0.33364 0.36861 0.0
H1323 H 0.36585 0.25722 0.37617 0.0
H1324 H 0.35827 0.33085 0.47028 0.0
H1325 H 0.36635 0.33159 0.41692 0.0
H1326 H 0.3219 0.26095 0.40973 0.0
H1327 H 0.31467 0.25999 0.46325 0.0
C1328 C 0.35546 0.31539 0.32851 0.0
C1329 C 0.36362 0.29323 0.31495 0.0
C1330 C 0.35013 0.31651 0.35906 0.0
C1331 C 0.35289 0.29549 0.37672 0.0
C1332 C 0.36266 0.27363 0.36322 0.0
C1333 C 0.36788 0.27251 0.33272 0.0
C1334 C 0.3496 0.31572 0.45721 0.0
C1335 C 0.33586 0.29534 0.47097 0.0
C1336 C 0.35432 0.31611 0.42657 0.0
C1337 C 0.34534 0.29614 0.40897 0.0
C1338 C 0.32988 0.27638 0.42264 0.0
C1339 C 0.32526 0.27597 0.45329 0.0
H1340 H 0.81672 0.06547 0.32177 0.0
H1341 H 0.84735 0.99072 0.31424 0.0
H1342 H 0.82582 0.06404 0.375 0.0
H1343 H 0.85758 0.98943 0.36728 0.0
H1344 H 0.87939 0.06519 0.46099 0.0
H1345 H 0.87009 0.06374 0.40778 0.0
H1346 H 0.8364 0.98971 0.41593 0.0
H1347 H 0.84685 0.99098 0.46893 0.0
C1348 C 0.82488 0.04859 0.3316 0.0
C1349 C 0.83123 1.0282 0.31385 0.0
C1350 C 0.83063 0.04786 0.36206 0.0
C1351 C 0.84315 1.02678 0.37547 0.0
C1352 C 0.84788 1.00597 0.35784 0.0
C1353 C 0.84189 1.00666 0.3274 0.0
C1354 C 0.87074 0.04843 0.45126 0.0
C1355 C 0.86394 1.02819 0.46911 0.0
C1356 C 0.86487 0.0477 0.42081 0.0
C1357 C 0.85179 1.02678 0.40752 0.0
C1358 C 0.84655 1.00611 0.42526 0.0
C1359 C 0.85264 1.0068 0.45569 0.0
H1360 H 0.59795 0.99232 0.06611 0.0
H1361 H 0.57567 0.06901 0.06788 0.0
H1362 H 0.60735 0.99274 0.11866 0.0
H1363 H 0.58261 0.06924 0.12166 0.0
H1364 H 0.62558 0.06754 0.21461 0.0
H1365 H 0.61864 0.06813 0.16081 0.0
H1366 H 0.58572 0.99352 0.16399 0.0
H1367 H 0.5951 0.99255 0.21649 0.0
C1368 C 0.594 1.00919 0.07798 0.0
C1369 C 0.58573 1.03058 0.06284 0.0
C1370 C 0.59935 1.00946 0.10839 0.0
C1371 C 0.59566 1.03101 0.12492 0.0
C1372 C 0.58629 0.05235 0.10982 0.0
C1373 C 0.58171 0.05218 0.07904 0.0
C1374 C 0.61772 0.05115 0.20348 0.0
C1375 C 0.6114 1.02991 0.21972 0.0
C1376 C 0.61316 0.05155 0.17269 0.0
C1377 C 0.60152 1.03087 0.15763 0.0
C1378 C 0.5955 1.00967 0.17422 0.0
C1379 C 0.60082 1.00911 0.20461 0.0
H1380 H 0.09891 0.73969 0.06388 0.0
H1381 H 0.12866 0.81469 0.07056 0.0
H1382 H 0.08954 0.73859 0.11699 0.0
H1383 H 0.12056 0.81342 0.1239 0.0
H1384 H 0.06883 0.8145 0.21064 0.0
H1385 H 0.07706 0.81302 0.1573 0.0
H1386 H 0.11152 0.7391 0.16514 0.0
H1387 H 0.10204 0.74038 0.2182 0.0
C1388 C 0.10438 0.75573 0.07687 0.0
C1389 C 0.1145 0.77729 0.0631 0.0
C1390 C 0.09889 0.75514 0.10736 0.0
C1391 C 0.10368 0.77607 0.12478 0.0
C1392 C 0.1157 0.79717 0.11112 0.0
C1393 C 0.12089 0.79781 0.08061 0.0
C1394 C 0.07741 0.79776 0.2008 0.0
C1395 C 0.08473 0.77756 0.21855 0.0
C1396 C 0.08266 0.79701 0.17029 0.0
C1397 C 0.09565 0.77611 0.15689 0.0
C1398 C 0.10141 0.75548 0.17456 0.0
C1399 C 0.0959 0.75618 0.20503 0.0
H1400 H 0.60032 0.73864 0.71896 0.0
H1401 H 0.56461 0.81214 0.7126 0.0
H1402 H 0.60945 0.73805 0.66577 0.0
H1403 H 0.57259 0.81136 0.65922 0.0
H1404 H 0.6238 0.81498 0.57227 0.0
H1405 H 0.61599 0.81295 0.62563 0.0
H1406 H 0.58704 0.73772 0.61756 0.0
H1407 H 0.596 0.73963 0.5644 0.0
C1408 C 0.59354 0.75442 0.70604 0.0
C1409 C 0.58174 0.77544 0.71993 0.0
C1410 C 0.59888 0.75414 0.6755 0.0
C1411 C 0.59236 0.77483 0.65814 0.0
C1412 C 0.57878 0.79533 0.67194 0.0
C1413 C 0.57368 0.79566 0.70249 0.0
C1414 C 0.61651 0.79787 0.58204 0.0
C1415 C 0.61058 0.77747 0.56418 0.0
C1416 C 0.61151 0.79678 0.61258 0.0
C1417 C 0.60018 0.77531 0.62596 0.0
C1418 C 0.59584 0.75454 0.60817 0.0
C1419 C 0.60107 0.7556 0.57765 0.0
H1420 H 0.09385 0.077 0.7213 0.0
H1421 H 0.12505 1.0023 0.71521 0.0
H1422 H 0.08507 0.07793 0.66806 0.0
H1423 H 0.11746 1.00339 0.66175 0.0
H1424 H 0.06681 1.00191 0.57405 0.0
H1425 H 0.07468 1.00335 0.62746 0.0
H1426 H 0.10756 0.07767 0.62017 0.0
H1427 H 0.09849 0.07639 0.56698 0.0
C1428 C 0.0997 0.06098 0.70843 0.0
C1429 C 0.11014 0.03957 0.72243 0.0
C1430 C 0.09458 0.06148 0.67785 0.0
C1431 C 0.09998 0.0406 0.66051 0.0
C1432 C 0.11217 1.01961 0.67443 0.0
C1433 C 0.11705 1.01908 0.70504 0.0
C1434 C 0.075 1.01871 0.584 0.0
C1435 C 0.08191 0.03905 0.56635 0.0
C1436 C 0.08004 1.01945 0.61458 0.0
C1437 C 0.09241 0.04048 0.62821 0.0
C1438 C 0.0979 0.06119 0.6106 0.0
C1439 C 0.09261 0.0605 0.58005 0.0
H1440 H 0.3826 0.56561 0.46191 0.0
H1441 H 0.34958 0.49145 0.46886 0.0
H1442 H 0.37422 0.56444 0.40857 0.0
H1443 H 0.34006 0.49045 0.41571 0.0
H1444 H 0.3223 0.56663 0.32186 0.0
H1445 H 0.33031 0.56492 0.37523 0.0
H1446 H 0.36245 0.4904 0.36749 0.0
H1447 H 0.3533 0.49195 0.31431 0.0
C1448 C 0.37403 0.54892 0.45193 0.0
C1449 C 0.36682 0.52862 0.46951 0.0
C1450 C 0.36871 0.54835 0.42142 0.0
C1451 C 0.35577 0.52752 0.40782 0.0
C1452 C 0.35011 0.50678 0.42531 0.0
C1453 C 0.35567 0.50731 0.45581 0.0
C1454 C 0.33032 0.54972 0.3317 0.0
C1455 C 0.33713 0.52943 0.31394 0.0
C1456 C 0.33543 0.54883 0.36224 0.0
C1457 C 0.34774 0.52769 0.37568 0.0
C1458 C 0.3529 0.50697 0.35801 0.0
C1459 C 0.34755 0.50782 0.32749 0.0
H1460 H 0.82336 0.82091 0.46507 0.0
H1461 H 0.84908 0.74487 0.46662 0.0
H1462 H 0.82977 0.82138 0.41127 0.0
H1463 H 0.85812 0.7456 0.41407 0.0
H1464 H 0.84594 0.74501 0.31615 0.0
H1465 H 0.83701 0.74558 0.36871 0.0
H1466 H 0.86449 0.82151 0.37169 0.0
H1467 H 0.87079 0.8212 0.31787 0.0
C1468 C 0.83008 0.80427 0.45385 0.0
C1469 C 0.83512 0.78276 0.47 0.0
C1470 C 0.83436 0.80458 0.42304 0.0
C1471 C 0.84456 0.78352 0.40783 0.0
C1472 C 0.84939 0.76208 0.42435 0.0
C1473 C 0.84427 0.76163 0.45479 0.0
C1474 C 0.85059 0.76178 0.32802 0.0
C1475 C 0.85944 0.783 0.31285 0.0
C1476 C 0.84553 0.76213 0.35847 0.0
C1477 C 0.85013 0.78357 0.37504 0.0
C1478 C 0.86008 0.80471 0.35988 0.0
C1479 C 0.86429 0.80449 0.32906 0.0
H1480 H 0.33911 0.83053 0.81553 0.0
H1481 H 0.37799 0.75803 0.82276 0.0
H1482 H 0.33011 0.83137 0.86875 0.0
H1483 H 0.37004 0.75908 0.87615 0.0
H1484 H 0.31834 0.75484 0.96279 0.0
H1485 H 0.32619 0.75679 0.90945 0.0
H1486 H 0.35292 0.83252 0.91708 0.0
H1487 H 0.344 0.83067 0.97031 0.0
C1488 C 0.34656 0.81503 0.82864 0.0
C1489 C 0.35921 0.79419 0.81499 0.0
C1490 C 0.34131 0.81547 0.85918 0.0
C1491 C 0.34875 0.79511 0.87678 0.0
C1492 C 0.36317 0.77484 0.86322 0.0
C1493 C 0.36822 0.77435 0.83267 0.0
C1494 C 0.32514 0.77204 0.95294 0.0
C1495 C 0.33048 0.7926 0.97069 0.0
C1496 C 0.33017 0.77309 0.92242 0.0
C1497 C 0.34091 0.79468 0.90894 0.0
C1498 C 0.34461 0.8156 0.9266 0.0
C1499 C 0.33937 0.81458 0.95713 0.0
H1500 H 0.84999 0.49007 0.81551 0.0
H1501 H 0.8213 0.56525 0.8234 0.0
H1502 H 0.85928 0.48825 0.86872 0.0
H1503 H 0.82958 0.56332 0.87672 0.0
H1504 H 0.88163 0.56299 0.96347 0.0
H1505 H 0.87357 0.5619 0.91008 0.0
H1506 H 0.83665 0.48872 0.91715 0.0
H1507 H 0.84571 0.48964 0.97042 0.0
C1508 C 0.84482 0.50601 0.82876 0.0
C1509 C 0.83491 0.52781 0.81529 0.0
C1510 C 0.85026 0.50501 0.8593 0.0
C1511 C 0.84579 0.52578 0.87707 0.0
C1512 C 0.83414 0.54716 0.86368 0.0
C1513 C 0.82888 0.54818 0.83316 0.0
C1514 C 0.87252 0.54647 0.95349 0.0
C1515 C 0.86437 0.5264 0.97112 0.0
C1516 C 0.86739 0.54596 0.92293 0.0
C1517 C 0.85377 0.52541 0.90927 0.0
C1518 C 0.84722 0.50484 0.92679 0.0
C1519 C 0.85253 0.50532 0.95737 0.0
H1520 H 0.59399 0.57679 0.71963 0.0
H1521 H 0.62978 0.50329 0.71402 0.0
H1522 H 0.58627 0.5775 0.66625 0.0
H1523 H 0.62322 0.50419 0.66042 0.0
H1524 H 0.60207 0.57692 0.56553 0.0
H1525 H 0.60993 0.57822 0.61888 0.0
H1526 H 0.58147 0.50277 0.62505 0.0
H1527 H 0.57478 0.50135 0.57149 0.0
C1528 C 0.60105 0.56101 0.70686 0.0
C1529 C 0.61252 0.53998 0.72102 0.0
C1530 C 0.59655 0.56138 0.67618 0.0
C1531 C 0.6036 0.54076 0.65889 0.0
C1532 C 0.61669 0.52019 0.67302 0.0
C1533 C 0.62097 0.51978 0.70372 0.0
C1534 C 0.59691 0.56075 0.57837 0.0
C1535 C 0.58777 0.53903 0.56432 0.0
C1536 C 0.60149 0.56146 0.60903 0.0
C1537 C 0.59686 0.54049 0.62641 0.0
C1538 C 0.58611 0.51911 0.61238 0.0
C1539 C 0.58176 0.51837 0.5817 0.0
H1540 H 0.07211 0.31499 0.71134 0.0
H1541 H 0.09647 0.23893 0.71951 0.0
H1542 H 0.08063 0.3128 0.6581 0.0
H1543 H 0.10597 0.23681 0.66636 0.0
H1544 H 0.09068 0.23816 0.565 0.0
H1545 H 0.08269 0.2379 0.6183 0.0
H1546 H 0.12397 0.30977 0.62412 0.0
H1547 H 0.13098 0.31025 0.57053 0.0
C1548 C 0.07881 0.29769 0.70166 0.0
C1549 C 0.08344 0.27711 0.71958 0.0
C1550 C 0.08423 0.29651 0.67118 0.0
C1551 C 0.09463 0.27475 0.65787 0.0
C1552 C 0.09788 0.25386 0.67572 0.0
C1553 C 0.0923 0.25503 0.70621 0.0
C1554 C 0.09866 0.25371 0.57775 0.0
C1555 C 0.11143 0.27425 0.56356 0.0
C1556 C 0.09402 0.25358 0.60837 0.0
C1557 C 0.10214 0.27398 0.6256 0.0
C1558 C 0.11665 0.29397 0.61151 0.0
C1559 C 0.12117 0.29413 0.58083 0.0
H1560 H 0.62707 0.31637 0.0706 0.0
H1561 H 0.60037 0.24066 0.06492 0.0
H1562 H 0.62029 0.31509 0.12418 0.0
H1563 H 0.5926 0.23947 0.11827 0.0
H1564 H 0.60988 0.24111 0.21882 0.0
H1565 H 0.61724 0.24056 0.16546 0.0
H1566 H 0.5783 0.31325 0.15975 0.0
H1567 H 0.57191 0.31399 0.21343 0.0
C1568 C 0.62025 0.29934 0.08088 0.0
C1569 C 0.61443 0.27859 0.06356 0.0
C1570 C 0.61584 0.29869 0.11156 0.0
C1571 C 0.60533 0.27729 0.12566 0.0
C1572 C 0.60086 0.25625 0.10835 0.0
C1573 C 0.60541 0.25689 0.0777 0.0
C1574 C 0.60231 0.2568 0.2061 0.0
C1575 C 0.59027 0.27759 0.22034 0.0
C1576 C 0.6066 0.25651 0.17543 0.0
C1577 C 0.59883 0.277 0.15816 0.0
C1578 C 0.58529 0.29736 0.17234 0.0
C1579 C 0.58112 0.29766 0.20308 0.0
H1580 H 0.10358 0.4929 0.06695 0.0
H1581 H 0.07821 0.56899 0.07005 0.0
H1582 H 0.1126 0.49281 0.11954 0.0
H1583 H 0.08459 0.56862 0.12387 0.0
H1584 H 0.1258 0.56726 0.21697 0.0
H1585 H 0.11961 0.56809 0.1632 0.0
H1586 H 0.09169 0.49223 0.16499 0.0
H1587 H 0.10048 0.49117 0.2177 0.0
C1588 C 0.09887 0.5095 0.07913 0.0
C1589 C 0.08985 0.53091 0.06435 0.0
C1590 C 0.10397 0.50947 0.10958 0.0
C1591 C 0.09926 0.53067 0.12652 0.0
C1592 C 0.08913 0.55199 0.11175 0.0
C1593 C 0.08487 0.55217 0.08093 0.0
C1594 C 0.11924 0.55067 0.20554 0.0
C1595 C 0.11417 0.52906 0.22146 0.0
C1596 C 0.11507 0.5512 0.17475 0.0
C1597 C 0.10495 0.53026 0.15928 0.0
C1598 C 0.10027 0.50865 0.17553 0.0
C1599 C 0.10528 0.50799 0.20601 0.0
H1600 H 0.37452 0.20738 0.19151 0.0
H1601 H 0.27746 0.22366 0.16841 0.0
H1602 H 0.37038 0.16822 0.16738 0.0
H1603 H 0.27361 0.18429 0.14257 0.0
H1604 H 0.27465 0.09998 0.12093 0.0
H1605 H 0.27314 0.13929 0.14723 0.0
H1606 H 0.36893 0.15393 0.11858 0.0
H1607 H 0.37082 0.11493 0.094 0.0
C1608 C 0.35227 0.20266 0.18097 0.0
C1609 C 0.32646 0.21879 0.18156 0.0
C1610 C 0.34993 0.18015 0.16691 0.0
C1611 C 0.32185 0.17313 0.15242 0.0
C1612 C 0.2956 0.18904 0.15351 0.0
C1613 C 0.29786 0.21166 0.16807 0.0
C1614 C 0.29533 0.11166 0.12052 0.0
C1615 C 0.323 0.10418 0.10577 0.0
C1616 C 0.29441 0.13423 0.13536 0.0
C1617 C 0.32112 0.14971 0.1355 0.0
C1618 C 0.34822 0.14233 0.11982 0.0
C1619 C 0.34923 0.1199 0.10547 0.0
H1620 H 0.82003 0.10082 0.1621 0.0
H1621 H 0.91731 0.10865 0.18986 0.0
H1622 H 0.82255 0.13974 0.13684 0.0
H1623 H 0.91958 0.14873 0.166 0.0
H1624 H 0.91846 0.2129 0.09899 0.0
H1625 H 0.92039 0.17285 0.1229 0.0
H1626 H 0.82178 0.18064 0.14735 0.0
H1627 H 0.81969 0.21957 0.12202 0.0
C1628 C 0.84199 0.11103 0.16288 0.0
C1629 C 0.86836 0.10185 0.17814 0.0
C1630 C 0.8434 0.13357 0.14866 0.0
C1631 C 0.87101 0.14797 0.14991 0.0
C1632 C 0.89788 0.1383 0.1644 0.0
C1633 C 0.89663 0.11535 0.17818 0.0
C1634 C 0.89733 0.20594 0.10963 0.0
C1635 C 0.8688 0.21913 0.10833 0.0
C1636 C 0.8984 0.18301 0.12345 0.0
C1637 C 0.87105 0.17302 0.13665 0.0
C1638 C 0.84307 0.18708 0.13655 0.0
C1639 C 0.84188 0.20962 0.12229 0.0
H1640 H 0.66888 0.85519 0.84495 0.0
H1641 H 0.57018 0.85013 0.86885 0.0
H1642 H 0.67179 0.89555 0.86807 0.0
H1643 H 0.57324 0.88939 0.89326 0.0
H1644 H 0.57293 0.96927 0.90596 0.0
H1645 H 0.57497 0.93019 0.88098 0.0
H1646 H 0.67136 0.91995 0.91138 0.0
H1647 H 0.66962 0.96014 0.93503 0.0
C1648 C 0.64799 0.86257 0.8556 0.0
C1649 C 0.61918 0.84976 0.85478 0.0
C1650 C 0.64962 0.88567 0.86893 0.0
C1651 C 0.62255 0.89618 0.88205 0.0
C1652 C 0.59431 0.88251 0.88248 0.0
C1653 C 0.59257 0.8598 0.86874 0.0
C1654 C 0.59468 0.95877 0.90701 0.0
C1655 C 0.621 0.96759 0.92261 0.0
C1656 C 0.59579 0.93616 0.89297 0.0
C1657 C 0.62304 0.92138 0.89475 0.0
C1658 C 0.64995 0.93072 0.90944 0.0
C1659 C 0.649 0.95372 0.92306 0.0
H1660 H 0.02655 0.8551 0.93751 0.0
H1661 H 0.12463 0.84953 0.91164 0.0
H1662 H 0.02356 0.8957 0.91501 0.0
H1663 H 0.12145 0.88905 0.88781 0.0
H1664 H 0.12252 0.96911 0.87676 0.0
H1665 H 0.12054 0.92966 0.90087 0.0
H1666 H 0.02332 0.92078 0.87228 0.0
H1667 H 0.02505 0.96133 0.84951 0.0
C1668 C 0.04726 0.86241 0.92652 0.0
C1669 C 0.07595 0.84939 0.92663 0.0
C1670 C 0.04559 0.88565 0.91355 0.0
C1671 C 0.07248 0.89611 0.90009 0.0
C1672 C 0.10054 0.88221 0.89888 0.0
C1673 C 0.10234 0.85935 0.91227 0.0
C1674 C 0.10061 0.95883 0.87593 0.0
C1675 C 0.07405 0.96815 0.8611 0.0
C1676 C 0.09952 0.93601 0.88946 0.0
C1677 C 0.07204 0.9215 0.88791 0.0
C1678 C 0.04492 0.93132 0.87401 0.0
C1679 C 0.04586 0.95453 0.86091 0.0
H1680 H 0.37586 0.70808 0.69065 0.0
H1681 H 0.27881 0.72162 0.66503 0.0
H1682 H 0.37457 0.66908 0.66602 0.0
H1683 H 0.27789 0.68246 0.63855 0.0
H1684 H 0.28248 0.59885 0.61669 0.0
H1685 H 0.27888 0.6381 0.64267 0.0
H1686 H 0.37571 0.65384 0.61806 0.0
H1687 H 0.37962 0.61466 0.59391 0.0
C1688 C 0.35423 0.70282 0.67941 0.0
C1689 C 0.32755 0.71811 0.67954 0.0
C1690 C 0.35355 0.6804 0.66501 0.0
C1691 C 0.32634 0.67264 0.64968 0.0
C1692 C 0.29927 0.68777 0.65016 0.0
C1693 C 0.29984 0.71029 0.66507 0.0
C1694 C 0.30297 0.61072 0.61716 0.0
C1695 C 0.33149 0.60349 0.6037 0.0
C1696 C 0.30085 0.6333 0.63178 0.0
C1697 C 0.32715 0.64912 0.63293 0.0
C1698 C 0.35521 0.64198 0.61853 0.0
C1699 C 0.35743 0.61947 0.60443 0.0
H1700 H 0.8257 0.72186 0.62835 0.0
H1701 H 0.92085 0.71096 0.5963 0.0
H1702 H 0.8277 0.68298 0.65378 0.0
H1703 H 0.92248 0.67092 0.62043 0.0
H1704 H 0.92072 0.60629 0.68707 0.0
H1705 H 0.9239 0.64656 0.66378 0.0
H1706 H 0.82417 0.6422 0.64197 0.0
H1707 H 0.82094 0.60301 0.66655 0.0
C1708 C 0.84711 0.71101 0.62677 0.0
C1709 C 0.87299 0.71928 0.61018 0.0
C1710 C 0.84818 0.68851 0.64107 0.0
C1711 C 0.8749 0.67324 0.63856 0.0
C1712 C 0.90147 0.68206 0.62294 0.0
C1713 C 0.90059 0.70498 0.60906 0.0
C1714 C 0.89961 0.61404 0.67715 0.0
C1715 C 0.87048 0.60173 0.67895 0.0
C1716 C 0.9014 0.63709 0.66371 0.0
C1717 C 0.87414 0.64809 0.65146 0.0
C1718 C 0.84547 0.63494 0.65206 0.0
C1719 C 0.84361 0.61226 0.66589 0.0
H1720 H 0.58263 0.34931 0.37429 0.0
H1721 H 0.67803 0.35941 0.34253 0.0
H1722 H 0.58469 0.38838 0.39916 0.0
H1723 H 0.67977 0.39971 0.36629 0.0
H1724 H 0.67644 0.4643 0.43426 0.0
H1725 H 0.68045 0.42425 0.41035 0.0
H1726 H 0.58157 0.42906 0.38555 0.0
H1727 H 0.57746 0.46799 0.41064 0.0
C1728 C 0.60412 0.36003 0.37265 0.0
C1729 C 0.63002 0.35151 0.35629 0.0
C1730 C 0.60523 0.38263 0.38664 0.0
C1731 C 0.63203 0.39774 0.38405 0.0
C1732 C 0.65869 0.38867 0.36874 0.0
C1733 C 0.65775 0.36562 0.35513 0.0
C1734 C 0.65574 0.45672 0.42346 0.0
C1735 C 0.6265 0.469 0.42465 0.0
C1736 C 0.658 0.43381 0.40971 0.0
C1737 C 0.63114 0.42297 0.39659 0.0
C1738 C 0.60251 0.43622 0.39635 0.0
C1739 C 0.60016 0.45873 0.41047 0.0
H1740 H 0.1191 0.35007 0.41447 0.0
H1741 H 0.02058 0.35468 0.43927 0.0
H1742 H 0.11542 0.38921 0.38998 0.0
H1743 H 0.01701 0.39501 0.41563 0.0
H1744 H 0.02213 0.4591 0.34533 0.0
H1745 H 0.01866 0.41924 0.37007 0.0
H1746 H 0.1128 0.42992 0.40574 0.0
H1747 H 0.1166 0.46858 0.38002 0.0
C1748 C 0.09658 0.3596 0.41471 0.0
C1749 C 0.07027 0.34956 0.42909 0.0
C1750 C 0.0945 0.38219 0.40088 0.0
C1751 C 0.06617 0.39574 0.40157 0.0
C1752 C 0.03924 0.38516 0.41479 0.0
C1753 C 0.04124 0.36213 0.42834 0.0
C1754 C 0.04178 0.45288 0.35881 0.0
C1755 C 0.06984 0.46658 0.36046 0.0
C1756 C 0.03984 0.43011 0.37297 0.0
C1757 C 0.06581 0.42098 0.38924 0.0
C1758 C 0.09279 0.43581 0.3925 0.0
C1759 C 0.09491 0.45812 0.378 0.0
H1760 H 0.87888 0.11345 0.59435 0.0
H1761 H 0.78184 0.09878 0.61859 0.0
H1762 H 0.87643 0.1524 0.61903 0.0
H1763 H 0.77976 0.13783 0.64522 0.0
H1764 H 0.78231 0.22128 0.66819 0.0
H1765 H 0.77974 0.18214 0.64182 0.0
H1766 H 0.87684 0.1675 0.66692 0.0
H1767 H 0.87977 0.20659 0.69131 0.0
C1768 C 0.85701 0.11845 0.60532 0.0
C1769 C 0.83068 0.10284 0.6048 0.0
C1770 C 0.85565 0.14084 0.61976 0.0
C1771 C 0.82811 0.14824 0.63478 0.0
C1772 C 0.80138 0.13281 0.63387 0.0
C1773 C 0.80262 0.11034 0.61888 0.0
C1774 C 0.80309 0.20969 0.6677 0.0
C1775 C 0.83142 0.21723 0.68134 0.0
C1776 C 0.80156 0.18716 0.65287 0.0
C1777 C 0.82825 0.17169 0.65172 0.0
C1778 C 0.85607 0.1791 0.66639 0.0
C1779 C 0.85771 0.20156 0.68065 0.0
H1780 H 0.33093 0.20081 0.5817 0.0
H1781 H 0.42314 0.22042 0.61564 0.0
H1782 H 0.33346 0.16235 0.60764 0.0
H1783 H 0.4252 0.18169 0.64313 0.0
H1784 H 0.42273 0.09812 0.66973 0.0
H1785 H 0.42706 0.13589 0.64059 0.0
H1786 H 0.32849 0.15145 0.65835 0.0
H1787 H 0.32404 0.11393 0.68608 0.0
C1788 C 0.35184 0.1969 0.59482 0.0
C1789 C 0.37662 0.21387 0.59699 0.0
C1790 C 0.3532 0.17482 0.60991 0.0
C1791 C 0.37918 0.16907 0.62812 0.0
C1792 C 0.40479 0.18555 0.62936 0.0
C1793 C 0.40356 0.20778 0.6138 0.0
C1794 C 0.40206 0.10965 0.66715 0.0
C1795 C 0.37293 0.1029 0.67984 0.0
C1796 C 0.40458 0.13134 0.65069 0.0
C1797 C 0.378 0.14658 0.64671 0.0
C1798 C 0.34927 0.13993 0.66021 0.0
C1799 C 0.34674 0.1184 0.67633 0.0
H1800 H 0.16737 0.8566 0.34761 0.0
H1801 H 0.0692 0.84875 0.37223 0.0
H1802 H 0.1691 0.89637 0.37213 0.0
H1803 H 0.07116 0.88737 0.39826 0.0
H1804 H 0.06835 0.96703 0.41387 0.0
H1805 H 0.071 0.92834 0.38807 0.0
H1806 H 0.16871 0.91988 0.41555 0.0
H1807 H 0.1663 0.95973 0.43986 0.0
C1808 C 0.14637 0.86322 0.35879 0.0
C1809 C 0.11803 0.84986 0.35776 0.0
C1810 C 0.14732 0.88598 0.37294 0.0
C1811 C 0.12005 0.89554 0.38675 0.0
C1812 C 0.09232 0.88125 0.38698 0.0
C1813 C 0.09123 0.85891 0.37234 0.0
C1814 C 0.09047 0.95697 0.41414 0.0
C1815 C 0.11701 0.9662 0.42903 0.0
C1816 C 0.09196 0.93459 0.39962 0.0
C1817 C 0.11984 0.92043 0.40028 0.0
C1818 C 0.14683 0.93016 0.41443 0.0
C1819 C 0.1455 0.95295 0.42845 0.0
H1820 H 0.52335 0.85573 0.43633 0.0
H1821 H 0.62141 0.84904 0.41075 0.0
H1822 H 0.52096 0.89607 0.4129 0.0
H1823 H 0.61883 0.88825 0.38616 0.0
H1824 H 0.62174 0.96813 0.37544 0.0
H1825 H 0.61836 0.92895 0.39999 0.0
H1826 H 0.52182 0.9208 0.36918 0.0
H1827 H 0.52496 0.96113 0.34581 0.0
C1828 C 0.54415 0.86271 0.42517 0.0
C1829 C 0.5727 0.84951 0.42567 0.0
C1830 C 0.54283 0.88579 0.41172 0.0
C1831 C 0.56995 0.89586 0.39822 0.0
C1832 C 0.59779 0.8817 0.39727 0.0
C1833 C 0.59923 0.85903 0.4111 0.0
C1834 C 0.59967 0.95808 0.37419 0.0
C1835 C 0.57375 0.96749 0.35849 0.0
C1836 C 0.59778 0.93542 0.38799 0.0
C1837 C 0.57012 0.92118 0.3859 0.0
C1838 C 0.54354 0.93115 0.37126 0.0
C1839 C 0.5453 0.95422 0.35784 0.0
H1840 H 0.7747 0.60627 0.09594 0.0
H1841 H 0.87423 0.60386 0.11775 0.0
H1842 H 0.77059 0.64664 0.11908 0.0
H1843 H 0.87007 0.6431 0.14201 0.0
H1844 H 0.86772 0.72269 0.15414 0.0
H1845 H 0.86592 0.68379 0.12878 0.0
H1846 H 0.77163 0.67119 0.16292 0.0
H1847 H 0.77306 0.71126 0.18711 0.0
C1848 C 0.79554 0.61424 0.1061 0.0
C1849 C 0.8249 0.60217 0.10468 0.0
C1850 C 0.79322 0.63732 0.11942 0.0
C1851 C 0.82017 0.64857 0.13187 0.0
C1852 C 0.84902 0.63563 0.13173 0.0
C1853 C 0.8514 0.61293 0.11806 0.0
C1854 C 0.84644 0.71174 0.1559 0.0
C1855 C 0.82068 0.71983 0.17278 0.0
C1856 C 0.84548 0.68924 0.14163 0.0
C1857 C 0.81901 0.6738 0.14445 0.0
C1858 C 0.79246 0.68247 0.16023 0.0
C1859 C 0.79322 0.7054 0.17412 0.0
H1860 H 0.42135 0.6097 0.18706 0.0
H1861 H 0.32378 0.60081 0.16068 0.0
H1862 H 0.42247 0.64983 0.16322 0.0
H1863 H 0.32516 0.63978 0.13544 0.0
H1864 H 0.32026 0.71964 0.12163 0.0
H1865 H 0.32373 0.68059 0.14651 0.0
H1866 H 0.42196 0.67423 0.12025 0.0
H1867 H 0.41866 0.71442 0.09676 0.0
C1868 C 0.40037 0.61616 0.17565 0.0
C1869 C 0.37234 0.60236 0.17602 0.0
C1870 C 0.40097 0.63914 0.1619 0.0
C1871 C 0.37366 0.64853 0.14786 0.0
C1872 C 0.34632 0.63382 0.14692 0.0
C1873 C 0.34557 0.61125 0.16112 0.0
C1874 C 0.34267 0.70997 0.1214 0.0
C1875 C 0.36908 0.71993 0.10706 0.0
C1876 C 0.34464 0.68736 0.1354 0.0
C1877 C 0.37292 0.67367 0.13484 0.0
C1878 C 0.39977 0.68411 0.12127 0.0
C1879 C 0.39792 0.70712 0.10771 0.0
H1880 H 0.17497 0.47044 0.91443 0.0
H1881 H 0.07706 0.45617 0.93607 0.0
H1882 H 0.17733 0.43141 0.88747 0.0
H1883 H 0.07971 0.41755 0.91084 0.0
H1884 H 0.07662 0.36567 0.83708 0.0
H1885 H 0.08133 0.40488 0.86091 0.0
H1886 H 0.17492 0.38573 0.89224 0.0
H1887 H 0.17068 0.34624 0.8666 0.0
C1888 C 0.1541 0.45899 0.91351 0.0
C1889 C 0.1257 0.46655 0.92697 0.0
C1890 C 0.15549 0.4366 0.89832 0.0
C1891 C 0.12853 0.42148 0.89651 0.0
C1892 C 0.10068 0.42893 0.91092 0.0
C1893 C 0.09921 0.45114 0.92562 0.0
C1894 C 0.09833 0.36972 0.84893 0.0
C1895 C 0.12305 0.35265 0.85042 0.0
C1896 C 0.10099 0.39226 0.86277 0.0
C1897 C 0.1282 0.39834 0.87916 0.0
C1898 C 0.1536 0.38162 0.87986 0.0
C1899 C 0.15108 0.35895 0.86545 0.0
H1900 H 0.61736 0.34771 0.9094 0.0
H1901 H 0.52331 0.35911 0.94396 0.0
H1902 H 0.61484 0.38642 0.88375 0.0
H1903 H 0.52117 0.39908 0.91933 0.0
H1904 H 0.5235 0.46301 0.85015 0.0
H1905 H 0.51953 0.42312 0.87452 0.0
H1906 H 0.619 0.42721 0.8973 0.0
H1907 H 0.62302 0.46597 0.87187 0.0
C1908 C 0.59606 0.35864 0.91147 0.0
C1909 C 0.5707 0.35061 0.92889 0.0
C1910 C 0.5947 0.38101 0.89701 0.0
C1911 C 0.56822 0.39641 0.90017 0.0
C1912 C 0.54201 0.3878 0.91646 0.0
C1913 C 0.54317 0.36495 0.93057 0.0
C1914 C 0.54435 0.45529 0.86057 0.0
C1915 C 0.5737 0.46732 0.85875 0.0
C1916 C 0.54211 0.43249 0.87459 0.0
C1917 C 0.56912 0.42151 0.88729 0.0
C1918 C 0.59791 0.4345 0.88684 0.0
C1919 C 0.60022 0.4569 0.8725 0.0
H1920 H 0.26706 0.06919 0.99022 0.0
H1921 H 0.1924 0.04099 0.0457 0.0
H1922 H 0.23029 0.07222 0.949 0.0
H1923 H 0.15566 0.04309 1.00404 0.0
H1924 H 0.09026 0.0623 0.92984 0.0
H1925 H 0.12651 0.0678 0.9711 0.0
H1926 H 0.20471 0.0458 0.91541 0.0
H1927 H 0.16831 0.04127 0.87373 0.0
C1928 C 0.24266 0.06373 0.99364 0.0
C1929 C 0.23262 0.0547 0.02117 0.0
C1930 C 0.22163 0.0653 0.96989 0.0
C1931 C 0.19007 0.0576 0.97295 0.0
C1932 C 0.1797 0.04946 1.00089 0.0
C1933 C 0.20073 0.04819 0.02482 0.0
C1934 C 0.11529 0.05893 0.92633 0.0
C1935 C 0.12649 0.05118 0.89863 0.0
C1936 C 0.13605 0.06192 0.95007 0.0
C1937 C 0.16851 0.05691 0.94684 0.0
C1938 C 0.17991 0.05009 0.91872 0.0
C1939 C 0.1591 0.04742 0.89478 0.0
H1940 H 0.03497 0.24893 0.87401 0.0
H1941 H 0.08855 0.29958 0.92749 0.0
H1942 H -0.00067 0.24165 0.91585 0.0
H1943 H 0.05305 0.29281 0.96851 0.0
H1944 H 0.00038 0.26555 0.04618 0.0
H1945 H 0.03764 0.26338 1.00496 0.0
H1946 H 0.95926 0.26302 0.94329 0.0
H1947 H 0.92232 0.26425 0.98403 0.0
C1948 C 0.03895 0.25863 0.89453 0.0
C1949 C 0.06454 0.27477 0.89746 0.0
C1950 C 0.01869 0.25441 0.91851 0.0
C1951 C 0.02365 0.26639 0.94569 0.0
C1952 C 0.04906 0.28272 0.94828 0.0
C1953 C 0.06925 0.2868 0.92455 0.0
C1954 C -0.00884 0.26453 0.02386 0.0
C1955 C 0.95842 0.26552 0.01846 0.0
C1956 C 0.01246 0.26345 1.00022 0.0
C1957 C 0.00139 0.26342 0.9708 0.0
C1958 C 0.96864 0.26288 0.96559 0.0
C1959 C 0.94743 0.26385 0.9891 0.0
H1960 H 0.20124 0.25843 0.24036 0.0
H1961 H 0.27166 0.28734 0.30053 0.0
H1962 H 0.16416 0.2545 0.28169 0.0
H1963 H 0.23482 0.28407 0.34094 0.0
H1964 H 0.16943 0.26157 0.41413 0.0
H1965 H 0.20665 0.25698 0.37305 0.0
H1966 H 0.13459 0.28211 0.3122 0.0
H1967 H 0.09761 0.28606 0.3525 0.0
C1968 C 0.20879 0.26393 0.26225 0.0
C1969 C 0.23933 0.27328 0.267 0.0
C1970 C 0.18763 0.2617 0.28592 0.0
C1971 C 0.19661 0.26893 0.31464 0.0
C1972 C 0.2273 0.27786 0.31931 0.0
C1973 C 0.24837 0.27996 0.29588 0.0
C1974 C 0.1616 0.26597 0.39195 0.0
C1975 C 0.13065 0.2743 0.3867 0.0
C1976 C 0.18285 0.26336 0.36842 0.0
C1977 C 0.17352 0.26913 0.33931 0.0
C1978 C 0.14241 0.27704 0.33417 0.0
C1979 C 0.12127 0.27956 0.3575 0.0
H1980 H -0.00576 0.06573 0.24267 0.0
H1981 H 0.9226 0.03889 0.3027 0.0
H1982 H 0.03117 0.06956 0.28414 0.0
H1983 H 0.95943 0.04184 0.34338 0.0
H1984 H 0.0266 0.05993 0.41694 0.0
H1985 H -0.01066 0.06674 0.3762 0.0
H1986 H 0.06016 0.04205 0.31406 0.0
H1987 H 0.09719 0.03614 0.35393 0.0
C1988 C -0.01365 0.06069 0.2646 0.0
C1989 C 0.95556 0.05181 0.2692 0.0
C1990 C 0.00748 0.06283 0.28838 0.0
C1991 C -0.00167 0.0559 0.31716 0.0
C1992 C 0.96723 0.04775 0.32174 0.0
C1993 C 0.94613 0.04581 0.29816 0.0
C1994 C 0.03421 0.05622 0.39454 0.0
C1995 C 0.06477 0.04723 0.38888 0.0
C1996 C 0.01288 0.06005 0.37118 0.0
C1997 C 0.02172 0.05489 0.34177 0.0
C1998 C 0.0526 0.04664 0.33623 0.0
C1999 C 0.07381 0.04295 0.35937 0.0
H2000 H 0.84579 0.04134 0.10368 0.0
H2001 H 0.78298 1.00139 0.16151 0.0
H2002 H 0.80988 0.0352 0.06289 0.0
H2003 H 0.74693 0.99456 0.1198 0.0
H2004 H 0.67414 1.02041 0.04991 0.0
H2005 H 0.71122 1.01803 0.09047 0.0
H2006 H 0.78799 1.00691 0.02874 0.0
H2007 H 0.75066 1.01028 0.98753 0.0
C2008 C 0.82444 1.03091 0.10769 0.0
C2009 C 0.81721 1.02195 0.13605 0.0
C2010 C 0.80392 1.02718 0.08403 0.0
C2011 C 0.77559 1.01422 0.08788 0.0
C2012 C 0.76848 1.00483 0.11613 0.0
C2013 C 0.78907 1.00872 0.14003 0.0
C2014 C 0.6989 1.01734 0.04476 0.0
C2015 C 0.7095 1.01602 1.01527 0.0
C2016 C 0.72017 1.01566 0.06824 0.0
C2017 C 0.75265 1.01245 0.06297 0.0
C2018 C 0.76313 1.00984 0.03355 0.0
C2019 C 0.74177 1.01166 1.00991 0.0
H2020 H 0.94822 0.80842 0.98855 0.0
H2021 H 0.02224 0.7918 0.05171 0.0
H2022 H 0.91038 0.8122 0.02914 0.0
H2023 H -0.01546 0.79469 0.09168 0.0
H2024 H 0.91317 0.81455 0.16215 0.0
H2025 H 0.95098 0.8194 0.12151 0.0
H2026 H 0.88444 0.78514 0.06185 0.0
H2027 H 0.84687 0.78102 0.10158 0.0
C2028 C 0.95646 0.80563 1.01098 0.0
C2029 C -0.01177 0.79957 1.01669 0.0
C2030 C 0.93477 0.8077 0.03429 0.0
C2031 C 0.94432 0.80358 0.06377 0.0
C2032 C -0.02368 0.79832 0.06943 0.0
C2033 C -0.00205 0.79642 0.04627 0.0
C2034 C 0.90666 0.80822 0.1403 0.0
C2035 C 0.87698 0.79741 0.13526 0.0
C2036 C 0.9283 0.81094 0.11699 0.0
C2037 C 0.92074 0.80276 0.08826 0.0
C2038 C 0.89092 0.79219 0.08338 0.0
C2039 C 0.86938 0.78963 0.10644 0.0
H2040 H 0.84956 0.78482 0.68196 0.0
H2041 H 0.7808 0.81312 0.61976 0.0
H2042 H 0.81185 0.78897 0.72154 0.0
H2043 H 0.74284 0.81809 0.66023 0.0
H2044 H 0.67372 0.78944 0.73121 0.0
H2045 H 0.71126 0.79281 0.69115 0.0
H2046 H 0.78365 0.81572 0.75289 0.0
H2047 H 0.74605 0.81147 0.79357 0.0
C2048 C 0.82647 0.79231 0.67668 0.0
C2049 C 0.81821 0.7985 0.64745 0.0
C2050 C 0.80483 0.79491 0.69966 0.0
C2051 C 0.77426 0.80396 0.69426 0.0
C2052 C 0.76611 0.81078 0.66515 0.0
C2053 C 0.78785 0.80801 0.64194 0.0
C2054 C 0.69758 0.79535 0.73643 0.0
C2055 C 0.70693 0.79991 0.76583 0.0
C2056 C 0.7191 0.79753 0.71322 0.0
C2057 C 0.75058 0.80446 0.71866 0.0
C2058 C 0.7597 0.80992 0.74793 0.0
C2059 C 0.73814 0.80757 0.77129 0.0
H2060 H 0.92423 1.02882 0.62187 0.0
H2061 H 0.84526 1.00685 0.67623 0.0
H2062 H 0.95984 1.02391 0.66415 0.0
H2063 H 0.88068 1.00099 0.71803 0.0
H2064 H 0.94434 1.02799 0.79411 0.0
H2065 H 0.90867 1.02585 0.75168 0.0
H2066 H -0.0151 0.99724 0.6981 0.0
H2067 H 0.02061 1.00023 0.74013 0.0
C2068 C 0.91467 1.02237 0.64265 0.0
C2069 C 0.88202 1.0185 0.64589 0.0
C2070 C 0.93501 1.01949 0.66692 0.0
C2071 C 0.92307 1.01234 0.69472 0.0
C2072 C 0.89061 1.00714 0.69727 0.0
C2073 C 0.87033 1.01033 0.67323 0.0
C2074 C 0.95325 1.02086 0.7734 0.0
C2075 C -0.01473 1.01449 0.7704 0.0
C2076 C 0.93283 1.01958 0.74902 0.0
C2077 C 0.94397 1.0116 0.72127 0.0
C2078 C -0.02434 1.00402 0.71885 0.0
C2079 C -0.00393 1.00556 0.74306 0.0
H2080 H 0.20048 0.54932 0.54594 0.0
H2081 H 0.27795 0.55286 0.48354 0.0
H2082 H 0.16288 0.54896 0.50468 0.0
H2083 H 0.24094 0.55141 0.44295 0.0
H2084 H 0.16534 0.56355 0.37356 0.0
H2085 H 0.20078 0.57112 0.41538 0.0
H2086 H 0.1476 0.51975 0.46812 0.0
H2087 H 0.11189 0.5129 0.42686 0.0
C2088 C 0.20947 0.55027 0.52356 0.0
C2089 C 0.2422 0.55077 0.51813 0.0
C2090 C 0.188 0.54984 0.49991 0.0
C2091 C 0.19894 0.54983 0.47046 0.0
C2092 C 0.23159 0.5516 0.46523 0.0
C2093 C 0.25289 0.55218 0.4887 0.0
C2094 C 0.16153 0.55376 0.39403 0.0
C2095 C 0.13598 0.53763 0.39697 0.0
C2096 C 0.18168 0.55814 0.41804 0.0
C2097 C 0.17682 0.54624 0.44527 0.0
C2098 C 0.15156 0.52974 0.44782 0.0
C2099 C 0.13132 0.52557 0.42401 0.0
H2100 H 0.10007 0.75437 0.425 0.0
H2101 H 0.02384 0.78027 0.36952 0.0
H2102 H 0.06365 0.75028 0.46627 0.0
H2103 H -0.01266 0.77721 0.41124 0.0
H2104 H 0.92366 0.75622 0.48631 0.0
H2105 H 0.95944 0.75227 0.44463 0.0
H2106 H 0.03733 0.77605 0.4998 0.0
H2107 H 0.00148 0.77904 0.54194 0.0
C2108 C 0.07536 0.75904 0.42162 0.0
C2109 C 0.06474 0.76775 0.39412 0.0
C2110 C 0.05453 0.75691 0.44538 0.0
C2111 C 0.02261 0.7638 0.44237 0.0
C2112 C 0.01168 0.77151 0.41438 0.0
C2113 C 0.03254 0.77329 0.39041 0.0
C2114 C 0.94852 0.76038 0.48964 0.0
C2115 C 0.95976 0.76809 0.51741 0.0
C2116 C 0.96901 0.75827 0.46562 0.0
C2117 C 0.00127 0.76408 0.46861 0.0
C2118 C 0.01271 0.77109 0.49668 0.0
C2119 C -0.00781 0.77291 0.52089 0.0
H2120 H 0.19517 0.7795 0.74035 0.0
H2121 H 0.26998 0.75046 0.79531 0.0
H2122 H 0.15844 0.77662 0.78182 0.0
H2123 H 0.23323 0.74661 0.83631 0.0
H2124 H 0.17135 0.77589 0.91233 0.0
H2125 H 0.20763 0.77216 0.87059 0.0
H2126 H 0.12926 0.75164 0.81409 0.0
H2127 H 0.0931 0.75639 0.85544 0.0
C2128 C 0.20353 0.77194 0.76106 0.0
C2129 C 0.23546 0.76543 0.76464 0.0
C2130 C 0.18251 0.77022 0.78489 0.0
C2131 C 0.19291 0.76161 0.81266 0.0
C2132 C 0.22452 0.75389 0.81559 0.0
C2133 C 0.24555 0.75593 0.79196 0.0
C2134 C 0.16206 0.77023 0.89108 0.0
C2135 C 0.12943 0.76666 0.88708 0.0
C2136 C 0.18281 0.76802 0.8671 0.0
C2137 C 0.17137 0.76184 0.83875 0.0
C2138 C 0.13887 0.75703 0.83531 0.0
C2139 C 0.11815 0.75958 0.85911 0.0
H2140 H 0.0979 0.52696 0.85366 0.0
H2141 H 0.03612 0.56613 0.91326 0.0
H2142 H 0.06062 0.53273 0.81388 0.0
H2143 H -0.00144 0.57253 0.87253 0.0
H2144 H 0.92455 0.54734 0.80314 0.0
H2145 H 0.96233 0.54929 0.84323 0.0
H2146 H 0.03794 0.56135 0.78057 0.0
H2147 H -6e-05 0.55848 0.73988 0.0
C2148 C 0.07645 0.53712 0.85828 0.0
C2149 C 0.07002 0.54607 0.88682 0.0
C2150 C 0.05512 0.54064 0.83519 0.0
C2151 C 0.02669 0.55334 0.83977 0.0
C2152 C 0.0202 0.56251 0.86827 0.0
C2153 C 0.04164 0.55885 0.89162 0.0
C2154 C 0.94919 0.55057 0.79769 0.0
C2155 C 0.95925 0.55235 0.76807 0.0
C2156 C 0.97087 0.55195 0.82091 0.0
C2157 C 0.00325 0.55528 0.81524 0.0
C2158 C 0.01319 0.5583 0.78571 0.0
C2159 C -0.00857 0.55678 0.76235 0.0
H2160 H 0.67885 0.50095 0.5452 0.0
H2161 H 0.75376 0.53085 0.49132 0.0
H2162 H 0.71513 0.49755 0.58675 0.0
H2163 H 0.79 0.52833 0.53333 0.0
H2164 H 0.85471 0.50823 0.60758 0.0
H2165 H 0.81899 0.50308 0.56588 0.0
H2166 H 0.73993 0.52373 0.62127 0.0
H2167 H 0.77584 0.52794 0.6634 0.0
C2168 C 0.7032 0.5067 0.5422 0.0
C2169 C 0.71346 0.51633 0.51503 0.0
C2170 C 0.72394 0.50491 0.56614 0.0
C2171 C 0.75541 0.51295 0.56363 0.0
C2172 C 0.76602 0.52169 0.53604 0.0
C2173 C 0.74528 0.5232 0.51191 0.0
C2174 C 0.82961 0.51137 0.61093 0.0
C2175 C 0.81802 0.51867 0.63867 0.0
C2176 C 0.80916 0.50858 0.58694 0.0
C2177 C 0.77662 0.51335 0.58997 0.0
C2178 C 0.76482 0.51967 0.61812 0.0
C2179 C 0.78533 0.52214 0.64231 0.0
H2180 H 0.9453 0.28826 0.49222 0.0
H2181 H 0.02257 0.31553 0.5455 0.0
H2182 H 0.90959 0.2926 0.53434 0.0
H2183 H -0.01309 0.32082 0.58709 0.0
H2184 H 0.92569 0.29063 0.66349 0.0
H2185 H 0.96132 0.29474 0.6213 0.0
H2186 H 0.88286 0.31928 0.56722 0.0
H2187 H 0.84731 0.31418 0.609 0.0
C2188 C 0.9544 0.29572 0.51271 0.0
C2189 C -0.01336 0.30124 0.51578 0.0
C2190 C 0.93401 0.29831 0.53684 0.0
C2191 C 0.94552 0.30682 0.56425 0.0
C2192 C -0.02255 0.31366 0.56659 0.0
C2193 C -0.00218 0.31076 0.54269 0.0
C2194 C 0.91633 0.29732 0.6427 0.0
C2195 C 0.88384 0.30179 0.63929 0.0
C2196 C 0.93665 0.29974 0.61851 0.0
C2197 C 0.92481 0.30704 0.59071 0.0
C2198 C 0.89259 0.31302 0.58804 0.0
C2199 C 0.87229 0.31026 0.61202 0.0
H2200 H 0.68003 0.31822 0.24027 0.0
H2201 H 0.75595 0.28884 0.29364 0.0
H2202 H 0.7162 0.32335 0.19906 0.0
H2203 H 0.79218 0.29301 0.25186 0.0
H2204 H 0.8557 0.31425 0.17771 0.0
H2205 H 0.82013 0.31935 0.2195 0.0
H2206 H 0.74118 0.29729 0.16455 0.0
H2207 H 0.77684 0.29315 0.12242 0.0
C2208 C 0.7046 0.31295 0.24319 0.0
C2209 C 0.71522 0.3029 0.27001 0.0
C2210 C 0.72527 0.31576 0.21949 0.0
C2211 C 0.75697 0.30826 0.22193 0.0
C2212 C 0.76796 0.29922 0.24928 0.0
C2213 C 0.74727 0.29673 0.27322 0.0
C2214 C 0.83062 0.31088 0.1745 0.0
C2215 C 0.81895 0.30311 0.14697 0.0
C2216 C 0.81029 0.31363 0.19849 0.0
C2217 C 0.77789 0.30837 0.19557 0.0
C2218 C 0.76598 0.30175 0.16755 0.0
C2219 C 0.78634 0.29932 0.14338 0.0
H2220 H 0.91099 0.50058 0.127 0.0
H2221 H 0.85453 0.55111 0.17796 0.0
H2222 H 0.94654 0.49542 0.16948 0.0
H2223 H 0.88998 0.5465 0.21954 0.0
H2224 H 0.94574 0.52265 0.29865 0.0
H2225 H 0.90777 0.51957 0.25777 0.0
H2226 H -0.01474 0.5188 0.19537 0.0
H2227 H 0.02267 0.52097 0.23555 0.0
C2228 C 0.90632 0.51066 0.14711 0.0
C2229 C 0.88001 0.5262 0.14909 0.0
C2230 C 0.92655 0.50769 0.17146 0.0
C2231 C 0.92092 0.5204 0.19806 0.0
C2232 C 0.89461 0.53594 0.19979 0.0
C2233 C 0.87443 0.53875 0.17571 0.0
C2234 C 0.95454 0.52154 0.27622 0.0
C2235 C -0.01282 0.52244 0.27047 0.0
C2236 C 0.93287 0.51987 0.25278 0.0
C2237 C 0.9435 0.51908 0.22324 0.0
C2238 C -0.02383 0.51905 0.21774 0.0
C2239 C -0.00233 0.52064 0.24098 0.0
H2240 H 0.77626 0.05342 0.4823 0.0
H2241 H 0.69927 0.05566 0.54529 0.0
H2242 H 0.73876 0.05476 0.44195 0.0
H2243 H 0.66144 0.05799 0.50439 0.0
H2244 H 0.6068 1.02275 0.42846 0.0
H2245 H 0.64313 1.02917 0.46895 0.0
H2246 H 0.69984 0.07643 0.41389 0.0
H2247 H 0.66332 0.06941 0.3725 0.0
C2248 C 0.75128 0.0546 0.48765 0.0
C2249 C 0.74076 0.05396 0.5172 0.0
C2250 C 0.72974 0.05564 0.46431 0.0
C2251 C 0.69705 0.05622 0.46981 0.0
C2252 C 0.68651 0.05706 0.49938 0.0
C2253 C 0.70815 0.05588 0.52285 0.0
C2254 C 0.6269 0.03465 0.42484 0.0
C2255 C 0.63216 0.04561 0.39717 0.0
C2256 C 0.64763 0.03853 0.44831 0.0
C2257 C 0.6742 0.0536 0.44493 0.0
C2258 C 0.67963 0.06461 0.41721 0.0
C2259 C 0.65882 0.06057 0.39348 0.0
H2260 H 0.50102 0.26269 0.54427 0.0
H2261 H 0.42574 0.27919 0.4823 0.0
H2262 H 0.53847 0.26038 0.50302 0.0
H2263 H 0.46283 0.27761 0.44191 0.0
H2264 H 0.53355 0.25832 0.37075 0.0
H2265 H 0.49672 0.25252 0.41198 0.0
H2266 H 0.56175 0.29004 0.4702 0.0
H2267 H 0.59835 0.29535 0.4297 0.0
C2268 C 0.49245 0.2657 0.52199 0.0
C2269 C 0.46052 0.27141 0.51673 0.0
C2270 C 0.51383 0.26446 0.49838 0.0
C2271 C 0.5036 0.26892 0.46918 0.0
C2272 C 0.47147 0.27375 0.46398 0.0
C2273 C 0.45023 0.27494 0.48738 0.0
C2274 C 0.53982 0.26532 0.39236 0.0
C2275 C 0.5688 0.27726 0.39693 0.0
C2276 C 0.51886 0.26196 0.41598 0.0
C2277 C 0.52651 0.27061 0.44446 0.0
C2278 C 0.55546 0.28259 0.44881 0.0
C2279 C 0.57632 0.28585 0.42539 0.0
H2280 H 0.77611 0.28028 0.80169 0.0
H2281 H 0.70193 0.26099 0.73973 0.0
H2282 H 0.73878 0.27896 0.84177 0.0
H2283 H 0.66424 0.25888 0.78079 0.0
H2284 H 0.60248 0.29333 0.85342 0.0
H2285 H 0.63914 0.28802 0.81292 0.0
H2286 H 0.70622 0.2538 0.87219 0.0
H2287 H 0.66946 0.25968 0.91334 0.0
C2288 C 0.75185 0.27537 0.79654 0.0
C2289 C 0.74197 0.27095 0.76725 0.0
C2290 C 0.73044 0.27439 0.8198 0.0
C2291 C 0.69854 0.26879 0.81457 0.0
C2292 C 0.68868 0.26356 0.78546 0.0
C2293 C 0.71022 0.26468 0.76195 0.0
C2294 C 0.62501 0.28459 0.85796 0.0
C2295 C 0.63315 0.27702 0.88671 0.0
C2296 C 0.64591 0.28131 0.83455 0.0
C2297 C 0.67549 0.27032 0.83921 0.0
C2298 C 0.68364 0.26253 0.86793 0.0
C2299 C 0.66268 0.26593 0.89151 0.0
H2300 H 0.49443 0.06832 0.74102 0.0
H2301 H 0.42995 1.03098 0.79977 0.0
H2302 H 0.53148 0.07389 0.7822 0.0
H2303 H 0.46689 0.03577 0.8401 0.0
H2304 H 0.52894 0.05791 0.91456 0.0
H2305 H 0.49116 0.06307 0.87396 0.0
H2306 H 0.56607 0.04949 0.81096 0.0
H2307 H 0.6036 0.04543 0.85088 0.0
C2308 C 0.48825 0.06122 0.76259 0.0
C2309 C 0.45932 0.04918 0.76704 0.0
C2310 C 0.50939 0.06442 0.7862 0.0
C2311 C 0.50208 0.05541 0.81458 0.0
C2312 C 0.47304 0.04351 0.81886 0.0
C2313 C 0.45194 0.04052 0.79549 0.0
C2314 C 0.53734 0.05646 0.89203 0.0
C2315 C 0.56916 0.05083 0.88609 0.0
C2316 C 0.51571 0.05926 0.86874 0.0
C2317 C 0.5255 0.05638 0.83914 0.0
C2318 C 0.55765 0.05207 0.83334 0.0
C2319 C 0.57918 0.04944 0.85645 0.0
H2320 H 0.17112 1.01657 0.55334 0.0
H2321 H 0.24768 1.01231 0.49004 0.0
H2322 H 0.20889 1.01597 0.59352 0.0
H2323 H 0.28576 1.01079 0.53079 0.0
H2324 H 0.34113 0.04727 0.60567 0.0
H2325 H 0.30455 0.04038 0.5654 0.0
H2326 H 0.24777 0.99417 0.62169 0.0
H2327 H 0.28447 1.00163 0.66275 0.0
C2328 C 0.19605 1.01511 0.5479 0.0
C2329 C 0.20639 1.01493 0.5183 0.0
C2330 C 0.21774 1.0145 0.57114 0.0
C2331 C 0.25039 1.01357 0.56546 0.0
C2332 C 0.26073 1.01199 0.5359 0.0
C2333 C 0.23894 1.01271 0.51253 0.0
C2334 C 0.32095 0.03552 0.60959 0.0
C2335 C 0.31568 1.02501 0.63751 0.0
C2336 C 0.30009 1.03138 0.58628 0.0
C2337 C 0.27341 1.01648 0.59011 0.0
C2338 C 0.26805 1.00587 0.61805 0.0
C2339 C 0.28897 1.01017 0.64159 0.0
H2340 H 0.34347 0.8127 0.6073 0.0
H2341 H 0.42068 0.79016 0.66378 0.0
H2342 H 0.37985 0.81716 0.56609 0.0
H2343 H 0.45724 0.79366 0.62211 0.0
H2344 H 0.52008 0.81565 0.54676 0.0
H2345 H 0.48381 0.81921 0.58816 0.0
H2346 H 0.40781 0.79155 0.5334 0.0
H2347 H 0.44408 0.78886 0.49156 0.0
C2348 C 0.36837 0.8088 0.6109 0.0
C2349 C 0.37927 0.80091 0.63868 0.0
C2350 C 0.3892 0.81117 0.58718 0.0
C2351 C 0.42144 0.80538 0.5905 0.0
C2352 C 0.43261 0.79849 0.61873 0.0
C2353 C 0.41172 0.79644 0.64266 0.0
C2354 C 0.49551 0.81059 0.54344 0.0
C2355 C 0.48494 0.80184 0.51589 0.0
C2356 C 0.47475 0.81247 0.5673 0.0
C2357 C 0.44291 0.80541 0.56437 0.0
C2358 C 0.43208 0.79745 0.53647 0.0
C2359 C 0.45284 0.79584 0.51242 0.0
H2360 H 0.27335 0.79319 0.12166 0.0
H2361 H 0.35169 0.8123 0.17864 0.0
H2362 H 0.23705 0.79707 0.16338 0.0
H2363 H 0.31553 0.81722 0.21995 0.0
H2364 H 0.24931 0.79002 0.29372 0.0
H2365 H 0.28609 0.79256 0.25227 0.0
H2366 H 0.2116 0.82273 0.19755 0.0
H2367 H 0.17477 0.81919 0.23855 0.0
C2368 C 0.28266 0.79878 0.14293 0.0
C2369 C 0.31531 0.80221 0.14697 0.0
C2370 C 0.2619 0.80108 0.1669 0.0
C2371 C 0.27336 0.80722 0.19526 0.0
C2372 C 0.3059 0.81186 0.19873 0.0
C2373 C 0.32662 0.80921 0.17495 0.0
C2374 C 0.24103 0.79755 0.27296 0.0
C2375 C 0.20916 0.8042 0.26932 0.0
C2376 C 0.26208 0.79907 0.24914 0.0
C2377 C 0.25178 0.80762 0.22132 0.0
C2378 C 0.22023 0.81548 0.21832 0.0
C2379 C 0.19916 0.81364 0.24194 0.0
H2380 H 0.45108 1.00591 0.29408 0.0
H2381 H 0.51843 0.04037 0.23553 0.0
H2382 H 0.41383 1.00203 0.25284 0.0
H2383 H 0.48124 0.03723 0.19507 0.0
H2384 H 0.41664 1.01553 0.12055 0.0
H2385 H 0.4548 1.01095 0.16105 0.0
H2386 H 0.3811 1.0279 0.22406 0.0
H2387 H 0.34328 1.03155 0.18438 0.0
C2388 C 0.45787 1.01276 0.27255 0.0
C2389 C 0.48765 1.02356 0.26826 0.0
C2390 C 0.43658 1.01054 0.24888 0.0
C2391 C 0.44454 1.01928 0.22052 0.0
C2392 C 0.47447 1.02984 0.21632 0.0
C2393 C 0.49572 1.03187 0.23979 0.0
C2394 C 0.40861 1.01798 0.14308 0.0
C2395 C 0.37697 1.0242 0.14904 0.0
C2396 C 0.43046 1.01548 0.16631 0.0
C2397 C 0.42107 1.01917 0.1959 0.0
C2398 C 0.3892 1.02457 0.20173 0.0
C2399 C 0.3675 1.02696 0.17871 0.0
H2400 H 0.6633 0.56511 0.87171 0.0
H2401 H 0.60034 0.52738 0.93159 0.0
H2402 H 0.70074 0.57141 0.91248 0.0
H2403 H 0.63754 0.53309 0.97146 0.0
H2404 H 0.6988 0.55884 0.04491 0.0
H2405 H 0.661 0.56214 1.00414 0.0
H2406 H 0.736 0.54685 0.94184 0.0
H2407 H 0.77367 0.54437 0.98202 0.0
C2408 C 0.65747 0.55816 0.89343 0.0
C2409 C 0.62888 0.54574 0.89831 0.0
C2410 C 0.67884 0.56177 0.91678 0.0
C2411 C 0.672 0.5529 0.94531 0.0
C2412 C 0.64328 0.5407 0.95004 0.0
C2413 C 0.62201 0.53722 0.92693 0.0
C2414 C 0.70723 0.55647 0.02249 0.0
C2415 C 0.73917 0.55103 1.01687 0.0
C2416 C 0.6856 0.55829 0.99912 0.0
C2417 C 0.69545 0.55455 0.96972 0.0
C2418 C 0.72762 0.55012 0.96411 0.0
C2419 C 0.7492 0.54844 0.98735 0.0
H2420 H 0.52793 0.75756 0.87015 0.0
H2421 H 0.59962 0.78158 0.93209 0.0
H2422 H 0.49049 0.75312 0.91107 0.0
H2423 H 0.56238 0.77802 0.97217 0.0
H2424 H 0.49497 0.75715 0.04437 0.0
H2425 H 0.53231 0.75242 1.00345 0.0
H2426 H 0.46133 0.77938 0.94265 0.0
H2427 H 0.42411 0.78327 0.98282 0.0
C2428 C 0.53575 0.76181 0.89237 0.0
C2429 C 0.56672 0.77014 0.89763 0.0
C2430 C 0.51429 0.75938 0.91584 0.0
C2431 C 0.52333 0.76532 0.94501 0.0
C2432 C 0.55459 0.7729 0.95022 0.0
C2433 C 0.57595 0.77519 0.92695 0.0
C2434 C 0.48736 0.76189 0.02223 0.0
C2435 C 0.45659 0.7707 1.01705 0.0
C2436 C 0.50874 0.75924 0.99875 0.0
C2437 C 0.49988 0.76554 0.96964 0.0
C2438 C 0.46891 0.77388 0.96454 0.0
C2439 C 0.44758 0.77635 0.98783 0.0
H2440 H 0.66886 0.78107 0.41299 0.0
H2441 H 0.59275 0.75674 0.35638 0.0
H2442 H 0.70555 0.77874 0.37137 0.0
H2443 H 0.62937 0.75334 0.31518 0.0
H2444 H 0.69282 0.78152 0.24032 0.0
H2445 H 0.65652 0.77885 0.28216 0.0
H2446 H 0.73351 0.75414 0.33789 0.0
H2447 H 0.76975 0.75782 0.29654 0.0
C2448 C 0.66019 0.77465 0.39183 0.0
C2449 C 0.62798 0.76928 0.38786 0.0
C2450 C 0.68117 0.77326 0.36791 0.0
C2451 C 0.6704 0.76611 0.33966 0.0
C2452 C 0.63842 0.75955 0.33629 0.0
C2453 C 0.61745 0.76128 0.36001 0.0
C2454 C 0.70182 0.77528 0.26145 0.0
C2455 C 0.73414 0.77009 0.26515 0.0
C2456 C 0.68103 0.77365 0.28548 0.0
C2457 C 0.69206 0.76643 0.31363 0.0
C2458 C 0.72423 0.76031 0.31686 0.0
C2459 C 0.745 0.76226 0.29301 0.0
H2460 H 0.50345 0.54195 0.24072 0.0
H2461 H 0.42803 0.56746 0.29728 0.0
H2462 H 0.54018 0.54362 0.28239 0.0
H2463 H 0.46478 0.57007 0.33855 0.0
H2464 H 0.52844 0.53967 0.41297 0.0
H2465 H 0.49163 0.54389 0.37151 0.0
H2466 H 0.56867 0.56809 0.31583 0.0
H2467 H 0.60533 0.56288 0.35681 0.0
C2468 C 0.49491 0.54846 0.26186 0.0
C2469 C 0.46284 0.55438 0.26573 0.0
C2470 C 0.51595 0.54948 0.28582 0.0
C2471 C 0.50543 0.55678 0.31406 0.0
C2472 C 0.47361 0.56381 0.31742 0.0
C2473 C 0.45258 0.56249 0.29363 0.0
C2474 C 0.5373 0.54621 0.39196 0.0
C2475 C 0.56974 0.5507 0.38804 0.0
C2476 C 0.51625 0.5487 0.36814 0.0
C2477 C 0.5272 0.55607 0.34007 0.0
C2478 C 0.55946 0.56175 0.33678 0.0
C2479 C 0.58046 0.55895 0.36039 0.0
H2480 H 0.27819 0.53106 0.16287 0.0
H2481 H 0.35565 0.50791 0.1073 0.0
H2482 H 0.24188 0.52731 0.121 0.0
H2483 H 0.31946 0.50316 0.06586 0.0
H2484 H 0.25519 0.53041 0.99045 0.0
H2485 H 0.29153 0.5282 0.03246 0.0
H2486 H 0.21542 0.50145 0.08755 0.0
H2487 H 0.17913 0.50465 0.04604 0.0
C2488 C 0.28725 0.52458 0.14191 0.0
C2489 C 0.31969 0.51999 0.13825 0.0
C2490 C 0.2665 0.52238 0.11785 0.0
C2491 C 0.27779 0.51519 0.08982 0.0
C2492 C 0.31003 0.50935 0.0868 0.0
C2493 C 0.33074 0.51188 0.11065 0.0
C2494 C 0.24645 0.52377 1.01146 0.0
C2495 C 0.21434 0.51794 1.01502 0.0
C2496 C 0.26723 0.52241 0.03558 0.0
C2497 C 0.25637 0.51485 0.06361 0.0
C2498 C 0.2245 0.50792 0.06661 0.0
C2499 C 0.20374 0.50959 0.04269 0.0
H2500 H 0.42232 0.30536 0.16531 0.0
H2501 H 0.34553 0.29696 0.10262 0.0
H2502 H 0.45963 0.30896 0.12416 0.0
H2503 H 0.38248 0.29956 0.06218 0.0
H2504 H 0.45445 0.31672 0.99182 0.0
H2505 H 0.41851 0.32313 0.03358 0.0
H2506 H 0.48046 0.28031 0.0894 0.0
H2507 H 0.51633 0.27456 0.04844 0.0
C2508 C 0.41337 0.30448 0.14288 0.0
C2509 C 0.38108 0.3004 0.13734 0.0
C2510 C 0.4347 0.30641 0.11931 0.0
C2511 C 0.42405 0.30425 0.08985 0.0
C2512 C 0.39153 0.30152 0.08446 0.0
C2513 C 0.37034 0.29971 0.10785 0.0
C2514 C 0.46022 0.30869 1.01303 0.0
C2515 C 0.48811 0.2951 1.01677 0.0
C2516 C 0.43977 0.31241 0.03697 0.0
C2517 C 0.44678 0.30241 0.06494 0.0
C2518 C 0.47469 0.28882 0.06847 0.0
C2519 C 0.49509 0.28527 0.04476 0.0
H2520 H 0.34829 0.27575 0.68131 0.0
H2521 H 0.2779 0.30396 0.62056 0.0
H2522 H 0.31172 0.28051 0.72188 0.0
H2523 H 0.24113 0.30918 0.66186 0.0
H2524 H 0.17485 0.28047 0.7343 0.0
H2525 H 0.21177 0.28217 0.69384 0.0
H2526 H 0.28412 0.30992 0.75259 0.0
H2527 H 0.24688 0.30772 0.79402 0.0
C2528 C 0.32502 0.28315 0.67655 0.0
C2529 C 0.31591 0.28933 0.64754 0.0
C2530 C 0.30417 0.28613 0.70002 0.0
C2531 C 0.27364 0.29536 0.69516 0.0
C2532 C 0.26451 0.30184 0.66623 0.0
C2533 C 0.28549 0.29883 0.64258 0.0
C2534 C 0.19853 0.28713 0.73886 0.0
C2535 C 0.20796 0.29387 0.76761 0.0
C2536 C 0.21964 0.28831 0.71539 0.0
C2537 C 0.25077 0.29631 0.71992 0.0
C2538 C 0.26025 0.30347 0.74852 0.0
C2539 C 0.239 0.30223 0.77222 0.0
H2540 H 0.44665 0.52739 0.79243 0.0
H2541 H 0.52309 0.4989 0.73917 0.0
H2542 H 0.41104 0.5245 0.75007 0.0
H2543 H 0.4874 0.49517 0.69719 0.0
H2544 H 0.42722 0.52847 0.62128 0.0
H2545 H 0.46277 0.52261 0.66341 0.0
H2546 H 0.38347 0.49884 0.71659 0.0
H2547 H 0.34809 0.50564 0.67496 0.0
C2548 C 0.45558 0.51994 0.7719 0.0
C2549 C 0.48762 0.51365 0.76897 0.0
C2550 C 0.43523 0.5182 0.7476 0.0
C2551 C 0.4465 0.50983 0.72009 0.0
C2552 C 0.47815 0.50222 0.71781 0.0
C2553 C 0.49852 0.50422 0.74194 0.0
C2554 C 0.41765 0.52161 0.64186 0.0
C2555 C 0.385 0.51786 0.6451 0.0
C2556 C 0.43793 0.51817 0.66599 0.0
C2557 C 0.42584 0.51057 0.69354 0.0
C2558 C 0.39341 0.50531 0.69598 0.0
C2559 C 0.3732 0.50908 0.67208 0.0
loop_
_geom_bond_atom_site_label_1
_geom_bond_atom_site_label_2
_geom_bond_distance
_geom_bond_site_symmetry_2
_ccdc_geom_bond_type
Dy0 O4 2.387 1_554 S
Dy0 O5 2.488 1_544 S
Dy0 O6 2.403 . S
Dy0 O7 2.664 . S
Dy0 O11 2.326 . S
Dy0 O15 2.310 1_545 S
Dy0 O16 2.351 . S
C1 O12 1.185 . S
C1 O13 1.355 1_565 S
C2 O4 1.192 . S
C2 O5 1.358 1_545 S
Dy3 O7 2.310 1_565 S
Dy3 O10 2.354 . S
Dy3 O12 2.398 . S
Dy3 O13 2.491 1_565 S
Dy3 O14 2.403 . S
Dy3 O15 2.664 . S
Dy3 O17 2.326 . S
O4 Dy0 2.387 1_556 S
O4 C2 1.192 . S
O5 Dy0 2.488 1_566 S
O5 C2 1.358 1_565 S
O6 Dy0 2.403 . S
O6 C8 1.254 . S
O7 Dy0 2.664 . S
O7 Dy3 2.310 1_545 S
O7 C8 1.268 . S
C8 O6 1.254 . S
C8 O7 1.268 . S
C9 O14 1.254 . S
C9 O15 1.268 . S
O10 Dy3 2.354 . S
O10 C18 1.240 1_565 S
O11 Dy0 2.326 . S
O11 C18 1.267 . S
O12 C1 1.185 . S
O12 Dy3 2.398 . S
O13 C1 1.355 1_545 S
O13 Dy3 2.491 1_545 S
O14 Dy3 2.403 . S
O14 C9 1.254 . S
O15 Dy0 2.310 1_565 S
O15 Dy3 2.664 . S
O15 C9 1.268 . S
O16 Dy0 2.351 . S
O16 C19 1.249 . S
O17 Dy3 2.326 . S
O17 C19 1.267 1_565 S
C18 O10 1.240 1_545 S
C18 O11 1.267 . S
C19 O16 1.249 . S
C19 O17 1.267 1_545 S
Dy20 O24 2.387 1_554 S
Dy20 O25 2.488 1_554 S
Dy20 O26 2.403 . S
Dy20 O27 2.664 . S
Dy20 O31 2.326 . S
Dy20 O35 2.310 . S
Dy20 O36 2.351 . S
C21 O32 1.185 . S
C21 O33 1.355 . S
C22 O24 1.192 . S
C22 O25 1.358 . S
Dy23 O27 2.310 . S
Dy23 O30 2.351 . S
Dy23 O32 2.398 . S
Dy23 O33 2.491 . S
Dy23 O34 2.403 . S
Dy23 O35 2.664 . S
Dy23 O37 2.326 . S
O24 Dy20 2.387 1_556 S
O24 C22 1.192 . S
O25 Dy20 2.488 1_556 S
O25 C22 1.358 . S
O26 Dy20 2.403 . S
O26 C28 1.254 . S
O27 Dy20 2.664 . S
O27 Dy23 2.310 . S
O27 C28 1.268 . S
C28 O26 1.254 . S
C28 O27 1.268 . S
C29 O34 1.254 . S
C29 O35 1.268 . S
O30 Dy23 2.351 . S
O30 C38 1.249 . S
O31 Dy20 2.326 . S
O31 C38 1.267 . S
O32 C21 1.185 . S
O32 Dy23 2.398 . S
O33 C21 1.355 . S
O33 Dy23 2.491 . S
O34 Dy23 2.403 . S
O34 C29 1.254 . S
O35 Dy20 2.310 . S
O35 Dy23 2.664 . S
O35 C29 1.268 . S
O36 Dy20 2.351 . S
O36 C39 1.249 . S
O37 Dy23 2.326 . S
O37 C39 1.267 . S
C38 O30 1.249 . S
C38 O31 1.267 . S
C39 O36 1.249 . S
C39 O37 1.267 . S
Dy40 O44 2.398 . S
Dy40 O45 2.491 . S
Dy40 O46 2.403 . S
Dy40 O47 2.664 . S
Dy40 O51 2.326 . S
Dy40 O55 2.310 . S
Dy40 O56 2.351 . S
C41 O52 1.185 . S
C41 O53 1.355 . S
C42 O44 1.185 . S
C42 O45 1.355 . S
Dy43 O47 2.310 . S
Dy43 O50 2.351 . S
Dy43 O52 2.398 . S
Dy43 O53 2.491 . S
Dy43 O54 2.403 . S
Dy43 O55 2.664 . S
Dy43 O57 2.326 . S
O44 Dy40 2.398 . S
O44 C42 1.185 . S
O45 Dy40 2.491 . S
O45 C42 1.355 . S
O46 Dy40 2.403 . S
O46 C48 1.254 . S
O47 Dy40 2.664 . S
O47 Dy43 2.310 . S
O47 C48 1.268 . S
C48 O46 1.254 . S
C48 O47 1.268 . S
C49 O54 1.254 . S
C49 O55 1.268 . S
O50 Dy43 2.351 . S
O50 C58 1.249 . S
O51 Dy40 2.326 . S
O51 C58 1.267 . S
O52 C41 1.185 . S
O52 Dy43 2.398 . S
O53 C41 1.355 . S
O53 Dy43 2.491 . S
O54 Dy43 2.403 . S
O54 C49 1.254 . S
O55 Dy40 2.310 . S
O55 Dy43 2.664 . S
O55 C49 1.268 . S
O56 Dy40 2.351 . S
O56 C59 1.249 . S
O57 Dy43 2.326 . S
O57 C59 1.267 . S
C58 O50 1.249 . S
C58 O51 1.267 . S
C59 O56 1.249 . S
C59 O57 1.267 . S
Dy60 O64 2.398 . S
Dy60 O65 2.491 1_545 S
Dy60 O66 2.403 . S
Dy60 O67 2.664 . S
Dy60 O71 2.326 . S
Dy60 O75 2.310 1_545 S
Dy60 O76 2.351 . S
C61 O72 1.185 . S
C61 O73 1.355 1_565 S
C62 O64 1.185 . S
C62 O65 1.355 1_545 S
Dy63 O67 2.310 1_565 S
Dy63 O70 2.354 . S
Dy63 O72 2.398 . S
Dy63 O73 2.491 1_565 S
Dy63 O74 2.403 . S
Dy63 O75 2.664 . S
Dy63 O77 2.326 . S
O64 Dy60 2.398 . S
O64 C62 1.185 . S
O65 Dy60 2.491 1_565 S
O65 C62 1.355 1_565 S
O66 Dy60 2.403 . S
O66 C68 1.254 . S
O67 Dy60 2.664 . S
O67 Dy63 2.310 1_545 S
O67 C68 1.268 . S
C68 O66 1.254 . S
C68 O67 1.268 . S
C69 O74 1.254 . S
C69 O75 1.268 . S
O70 Dy63 2.354 . S
O70 C78 1.240 1_565 S
O71 Dy60 2.326 . S
O71 C78 1.267 . S
O72 C61 1.185 . S
O72 Dy63 2.398 . S
O73 C61 1.355 1_545 S
O73 Dy63 2.491 1_545 S
O74 Dy63 2.403 . S
O74 C69 1.254 . S
O75 Dy60 2.310 1_565 S
O75 Dy63 2.664 . S
O75 C69 1.268 . S
O76 Dy60 2.351 . S
O76 C79 1.249 . S
O77 Dy63 2.326 . S
O77 C79 1.267 1_565 S
C78 O70 1.240 1_545 S
C78 O71 1.267 . S
C79 O76 1.249 . S
C79 O77 1.267 1_545 S
Dy80 O84 2.398 . S
Dy80 O85 2.491 1_545 S
Dy80 O86 2.403 . S
Dy80 O87 2.664 . S
Dy80 O91 2.326 . S
Dy80 O95 2.310 1_545 S
Dy80 O96 2.354 . S
C81 O92 1.192 . S
C81 O93 1.358 1_565 S
C82 O84 1.185 . S
C82 O85 1.355 1_545 S
Dy83 O87 2.310 1_565 S
Dy83 O90 2.351 . S
Dy83 O92 2.387 1_556 S
Dy83 O93 2.488 1_566 S
Dy83 O94 2.403 . S
Dy83 O95 2.664 . S
Dy83 O97 2.326 . S
O84 Dy80 2.398 . S
O84 C82 1.185 . S
O85 Dy80 2.491 1_565 S
O85 C82 1.355 1_565 S
O86 Dy80 2.403 . S
O86 C88 1.254 . S
O87 Dy80 2.664 . S
O87 Dy83 2.310 1_545 S
O87 C88 1.268 . S
C88 O86 1.254 . S
C88 O87 1.268 . S
C89 O94 1.254 . S
C89 O95 1.268 . S
O90 Dy83 2.351 . S
O90 C98 1.249 . S
O91 Dy80 2.326 . S
O91 C98 1.267 1_545 S
O92 C81 1.192 . S
O92 Dy83 2.387 1_554 S
O93 C81 1.358 1_545 S
O93 Dy83 2.488 1_544 S
O94 Dy83 2.403 . S
O94 C89 1.254 . S
O95 Dy80 2.310 1_565 S
O95 Dy83 2.664 . S
O95 C89 1.268 . S
O96 Dy80 2.354 . S
O96 C99 1.240 1_545 S
O97 Dy83 2.326 . S
O97 C99 1.267 . S
C98 O90 1.249 . S
C98 O91 1.267 1_565 S
C99 O96 1.240 1_565 S
C99 O97 1.267 . S
Dy100 O104 2.398 . S
Dy100 O105 2.491 . S
Dy100 O106 2.403 . S
Dy100 O107 2.664 . S
Dy100 O111 2.326 . S
Dy100 O115 2.310 . S
Dy100 O116 2.351 . S
C101 O112 1.192 . S
C101 O113 1.358 . S
C102 O104 1.185 . S
C102 O105 1.355 . S
Dy103 O107 2.310 . S
Dy103 O110 2.351 . S
Dy103 O112 2.387 1_556 S
Dy103 O113 2.488 1_556 S
Dy103 O114 2.403 . S
Dy103 O115 2.664 . S
Dy103 O117 2.326 . S
O104 Dy100 2.398 . S
O104 C102 1.185 . S
O105 Dy100 2.491 . S
O105 C102 1.355 . S
O106 Dy100 2.403 . S
O106 C108 1.254 . S
O107 Dy100 2.664 . S
O107 Dy103 2.310 . S
O107 C108 1.268 . S
C108 O106 1.254 . S
C108 O107 1.268 . S
C109 O114 1.254 . S
C109 O115 1.268 . S
O110 Dy103 2.351 . S
O110 C118 1.249 . S
O111 Dy100 2.326 . S
O111 C118 1.267 . S
O112 C101 1.192 . S
O112 Dy103 2.387 1_554 S
O113 C101 1.358 . S
O113 Dy103 2.488 1_554 S
O114 Dy103 2.403 . S
O114 C109 1.254 . S
O115 Dy100 2.310 . S
O115 Dy103 2.664 . S
O115 C109 1.268 . S
O116 Dy100 2.351 . S
O116 C119 1.249 . S
O117 Dy103 2.326 . S
O117 C119 1.267 . S
C118 O110 1.249 . S
C118 O111 1.267 . S
C119 O116 1.249 . S
C119 O117 1.267 . S
Dy120 O124 2.398 . S
Dy120 O125 2.491 . S
Dy120 O126 2.403 . S
Dy120 O127 2.664 . S
Dy120 O131 2.326 . S
Dy120 O135 2.310 . S
Dy120 O136 2.351 . S
C121 O132 1.185 . S
C121 O133 1.355 . S
C122 O124 1.185 . S
C122 O125 1.355 . S
Dy123 O127 2.310 . S
Dy123 O130 2.351 . S
Dy123 O132 2.398 . S
Dy123 O133 2.491 . S
Dy123 O134 2.403 . S
Dy123 O135 2.664 . S
Dy123 O137 2.326 . S
O124 Dy120 2.398 . S
O124 C122 1.185 . S
O125 Dy120 2.491 . S
O125 C122 1.355 . S
O126 Dy120 2.403 . S
O126 C128 1.254 . S
O127 Dy120 2.664 . S
O127 Dy123 2.310 . S
O127 C128 1.268 . S
C128 O126 1.254 . S
C128 O127 1.268 . S
C129 O134 1.254 . S
C129 O135 1.268 . S
O130 Dy123 2.351 . S
O130 C138 1.249 . S
O131 Dy120 2.326 . S
O131 C138 1.267 . S
O132 C121 1.185 . S
O132 Dy123 2.398 . S
O133 C121 1.355 . S
O133 Dy123 2.491 . S
O134 Dy123 2.403 . S
O134 C129 1.254 . S
O135 Dy120 2.310 . S
O135 Dy123 2.664 . S
O135 C129 1.268 . S
O136 Dy120 2.351 . S
O136 C139 1.249 . S
O137 Dy123 2.326 . S
O137 C139 1.267 . S
C138 O130 1.249 . S
C138 O131 1.267 . S
C139 O136 1.249 . S
C139 O137 1.267 . S
Dy140 O144 2.398 . S
Dy140 O145 2.491 1_545 S
Dy140 O146 2.403 . S
Dy140 O147 2.664 . S
Dy140 O151 2.326 . S
Dy140 O155 2.310 1_545 S
Dy140 O156 2.354 . S
C141 O152 1.185 . S
C141 O153 1.355 1_565 S
C142 O144 1.185 . S
C142 O145 1.355 1_545 S
Dy143 O147 2.310 1_565 S
Dy143 O150 2.351 . S
Dy143 O152 2.398 . S
Dy143 O153 2.491 1_565 S
Dy143 O154 2.403 . S
Dy143 O155 2.664 . S
Dy143 O157 2.326 . S
O144 Dy140 2.398 . S
O144 C142 1.185 . S
O145 Dy140 2.491 1_565 S
O145 C142 1.355 1_565 S
O146 Dy140 2.403 . S
O146 C148 1.254 . S
O147 Dy140 2.664 . S
O147 Dy143 2.310 1_545 S
O147 C148 1.268 . S
C148 O146 1.254 . S
C148 O147 1.268 . S
C149 O154 1.254 . S
C149 O155 1.268 . S
O150 Dy143 2.351 . S
O150 C158 1.249 . S
O151 Dy140 2.326 . S
O151 C158 1.267 1_545 S
O152 C141 1.185 . S
O152 Dy143 2.398 . S
O153 C141 1.355 1_545 S
O153 Dy143 2.491 1_545 S
O154 Dy143 2.403 . S
O154 C149 1.254 . S
O155 Dy140 2.310 1_565 S
O155 Dy143 2.664 . S
O155 C149 1.268 . S
O156 Dy140 2.354 . S
O156 C159 1.240 1_545 S
O157 Dy143 2.326 . S
O157 C159 1.267 . S
C158 O150 1.249 . S
C158 O151 1.267 1_565 S
C159 O156 1.240 1_565 S
C159 O157 1.267 . S
Dy160 O164 2.398 . S
Dy160 O165 2.491 . S
Dy160 O166 2.403 . S
Dy160 O167 2.664 . S
Dy160 O171 2.326 . S
Dy160 O175 2.310 . S
Dy160 O176 2.351 . S
C161 O172 1.185 . S
C161 O173 1.355 . S
C162 O164 1.185 . S
C162 O165 1.355 . S
Dy163 O167 2.310 . S
Dy163 O170 2.351 . S
Dy163 O172 2.398 . S
Dy163 O173 2.491 . S
Dy163 O174 2.403 . S
Dy163 O175 2.664 . S
Dy163 O177 2.326 . S
O164 Dy160 2.398 . S
O164 C162 1.185 . S
O165 Dy160 2.491 . S
O165 C162 1.355 . S
O166 Dy160 2.403 . S
O166 C168 1.254 . S
O167 Dy160 2.664 . S
O167 Dy163 2.310 . S
O167 C168 1.268 . S
C168 O166 1.254 . S
C168 O167 1.268 . S
C169 O174 1.254 . S
C169 O175 1.268 . S
O170 Dy163 2.351 . S
O170 C178 1.249 . S
O171 Dy160 2.326 . S
O171 C178 1.267 . S
O172 C161 1.185 . S
O172 Dy163 2.398 . S
O173 C161 1.355 . S
O173 Dy163 2.491 . S
O174 Dy163 2.403 . S
O174 C169 1.254 . S
O175 Dy160 2.310 . S
O175 Dy163 2.664 . S
O175 C169 1.268 . S
O176 Dy160 2.351 . S
O176 C179 1.249 . S
O177 Dy163 2.326 . S
O177 C179 1.267 . S
C178 O170 1.249 . S
C178 O171 1.267 . S
C179 O176 1.249 . S
C179 O177 1.267 . S
Dy180 O184 2.398 . S
Dy180 O185 2.491 . S
Dy180 O186 2.403 . S
Dy180 O187 2.664 . S
Dy180 O191 2.326 . S
Dy180 O195 2.310 . S
Dy180 O196 2.351 . S
C181 O192 1.185 . S
C181 O193 1.355 . S
C182 O184 1.185 . S
C182 O185 1.355 . S
Dy183 O187 2.310 . S
Dy183 O190 2.351 . S
Dy183 O192 2.398 . S
Dy183 O193 2.491 . S
Dy183 O194 2.403 . S
Dy183 O195 2.664 . S
Dy183 O197 2.326 . S
O184 Dy180 2.398 . S
O184 C182 1.185 . S
O185 Dy180 2.491 . S
O185 C182 1.355 . S
O186 Dy180 2.403 . S
O186 C188 1.254 . S
O187 Dy180 2.664 . S
O187 Dy183 2.310 . S
O187 C188 1.268 . S
C188 O186 1.254 . S
C188 O187 1.268 . S
C189 O194 1.254 . S
C189 O195 1.268 . S
O190 Dy183 2.351 . S
O190 C198 1.249 . S
O191 Dy180 2.326 . S
O191 C198 1.267 . S
O192 C181 1.185 . S
O192 Dy183 2.398 . S
O193 C181 1.355 . S
O193 Dy183 2.491 . S
O194 Dy183 2.403 . S
O194 C189 1.254 . S
O195 Dy180 2.310 . S
O195 Dy183 2.664 . S
O195 C189 1.268 . S
O196 Dy180 2.351 . S
O196 C199 1.249 . S
O197 Dy183 2.326 . S
O197 C199 1.267 . S
C198 O190 1.249 . S
C198 O191 1.267 . S
C199 O196 1.249 . S
C199 O197 1.267 . S
Dy200 O204 2.398 . S
Dy200 O205 2.491 . S
Dy200 O206 2.403 . S
Dy200 O207 2.664 . S
Dy200 O211 2.326 . S
Dy200 O215 2.310 . S
Dy200 O216 2.351 . S
C201 O212 1.185 . S
C201 O213 1.355 . S
C202 O204 1.185 . S
C202 O205 1.355 . S
Dy203 O207 2.310 . S
Dy203 O210 2.351 . S
Dy203 O212 2.398 . S
Dy203 O213 2.491 . S
Dy203 O214 2.403 . S
Dy203 O215 2.664 . S
Dy203 O217 2.326 . S
O204 Dy200 2.398 . S
O204 C202 1.185 . S
O205 Dy200 2.491 . S
O205 C202 1.355 . S
O206 Dy200 2.403 . S
O206 C208 1.254 . S
O207 Dy200 2.664 . S
O207 Dy203 2.310 . S
O207 C208 1.268 . S
C208 O206 1.254 . S
C208 O207 1.268 . S
C209 O214 1.254 . S
C209 O215 1.268 . S
O210 Dy203 2.351 . S
O210 C218 1.249 . S
O211 Dy200 2.326 . S
O211 C218 1.267 . S
O212 C201 1.185 . S
O212 Dy203 2.398 . S
O213 C201 1.355 . S
O213 Dy203 2.491 . S
O214 Dy203 2.403 . S
O214 C209 1.254 . S
O215 Dy200 2.310 . S
O215 Dy203 2.664 . S
O215 C209 1.268 . S
O216 Dy200 2.351 . S
O216 C219 1.249 . S
O217 Dy203 2.326 . S
O217 C219 1.267 . S
C218 O210 1.249 . S
C218 O211 1.267 . S
C219 O216 1.249 . S
C219 O217 1.267 . S
Dy220 O224 2.398 . S
Dy220 O225 2.491 . S
Dy220 O226 2.403 . S
Dy220 O227 2.664 . S
Dy220 O231 2.326 . S
Dy220 O235 2.310 . S
Dy220 O236 2.351 . S
C221 O232 1.185 . S
C221 O233 1.355 . S
C222 O224 1.185 . S
C222 O225 1.355 . S
Dy223 O227 2.310 . S
Dy223 O230 2.351 . S
Dy223 O232 2.398 . S
Dy223 O233 2.491 . S
Dy223 O234 2.403 . S
Dy223 O235 2.664 . S
Dy223 O237 2.326 . S
O224 Dy220 2.398 . S
O224 C222 1.185 . S
O225 Dy220 2.491 . S
O225 C222 1.355 . S
O226 Dy220 2.403 . S
O226 C228 1.254 . S
O227 Dy220 2.664 . S
O227 Dy223 2.310 . S
O227 C228 1.268 . S
C228 O226 1.254 . S
C228 O227 1.268 . S
C229 O234 1.254 . S
C229 O235 1.268 . S
O230 Dy223 2.351 . S
O230 C238 1.249 . S
O231 Dy220 2.326 . S
O231 C238 1.267 . S
O232 C221 1.185 . S
O232 Dy223 2.398 . S
O233 C221 1.355 . S
O233 Dy223 2.491 . S
O234 Dy223 2.403 . S
O234 C229 1.254 . S
O235 Dy220 2.310 . S
O235 Dy223 2.664 . S
O235 C229 1.268 . S
O236 Dy220 2.351 . S
O236 C239 1.249 . S
O237 Dy223 2.326 . S
O237 C239 1.267 . S
C238 O230 1.249 . S
C238 O231 1.267 . S
C239 O236 1.249 . S
C239 O237 1.267 . S
Dy240 O244 2.398 . S
Dy240 O245 2.491 . S
Dy240 O246 2.403 . S
Dy240 O247 2.664 . S
Dy240 O251 2.326 . S
Dy240 O255 2.310 . S
Dy240 O256 2.351 . S
C241 O252 1.185 . S
C241 O253 1.355 . S
C242 O244 1.185 . S
C242 O245 1.355 . S
Dy243 O247 2.310 . S
Dy243 O250 2.351 . S
Dy243 O252 2.398 . S
Dy243 O253 2.491 . S
Dy243 O254 2.403 . S
Dy243 O255 2.664 . S
Dy243 O257 2.326 . S
O244 Dy240 2.398 . S
O244 C242 1.185 . S
O245 Dy240 2.491 . S
O245 C242 1.355 . S
O246 Dy240 2.403 . S
O246 C248 1.254 . S
O247 Dy240 2.664 . S
O247 Dy243 2.310 . S
O247 C248 1.268 . S
C248 O246 1.254 . S
C248 O247 1.268 . S
C249 O254 1.254 . S
C249 O255 1.268 . S
O250 Dy243 2.351 . S
O250 C258 1.249 . S
O251 Dy240 2.326 . S
O251 C258 1.267 . S
O252 C241 1.185 . S
O252 Dy243 2.398 . S
O253 C241 1.355 . S
O253 Dy243 2.491 . S
O254 Dy243 2.403 . S
O254 C249 1.254 . S
O255 Dy240 2.310 . S
O255 Dy243 2.664 . S
O255 C249 1.268 . S
O256 Dy240 2.351 . S
O256 C259 1.249 . S
O257 Dy243 2.326 . S
O257 C259 1.267 . S
C258 O250 1.249 . S
C258 O251 1.267 . S
C259 O256 1.249 . S
C259 O257 1.267 . S
Dy260 O264 2.398 . S
Dy260 O265 2.491 . S
Dy260 O266 2.403 . S
Dy260 O267 2.664 . S
Dy260 O271 2.326 . S
Dy260 O275 2.310 . S
Dy260 O276 2.351 . S
C261 O272 1.185 . S
C261 O273 1.355 . S
C262 O264 1.185 . S
C262 O265 1.355 . S
Dy263 O267 2.310 . S
Dy263 O270 2.351 . S
Dy263 O272 2.398 . S
Dy263 O273 2.491 . S
Dy263 O274 2.403 . S
Dy263 O275 2.664 . S
Dy263 O277 2.326 . S
O264 Dy260 2.398 . S
O264 C262 1.185 . S
O265 Dy260 2.491 . S
O265 C262 1.355 . S
O266 Dy260 2.403 . S
O266 C268 1.254 . S
O267 Dy260 2.664 . S
O267 Dy263 2.310 . S
O267 C268 1.268 . S
C268 O266 1.254 . S
C268 O267 1.268 . S
C269 O274 1.254 . S
C269 O275 1.268 . S
O270 Dy263 2.351 . S
O270 C278 1.249 . S
O271 Dy260 2.326 . S
O271 C278 1.267 . S
O272 C261 1.185 . S
O272 Dy263 2.398 . S
O273 C261 1.355 . S
O273 Dy263 2.491 . S
O274 Dy263 2.403 . S
O274 C269 1.254 . S
O275 Dy260 2.310 . S
O275 Dy263 2.664 . S
O275 C269 1.268 . S
O276 Dy260 2.351 . S
O276 C279 1.249 . S
O277 Dy263 2.326 . S
O277 C279 1.267 . S
C278 O270 1.249 . S
C278 O271 1.267 . S
C279 O276 1.249 . S
C279 O277 1.267 . S
Dy280 O284 2.398 . S
Dy280 O285 2.491 . S
Dy280 O286 2.403 . S
Dy280 O287 2.664 . S
Dy280 O291 2.326 . S
Dy280 O295 2.310 . S
Dy280 O296 2.351 . S
C281 O292 1.185 . S
C281 O293 1.355 . S
C282 O284 1.185 . S
C282 O285 1.355 . S
Dy283 O287 2.310 . S
Dy283 O290 2.351 . S
Dy283 O292 2.398 . S
Dy283 O293 2.491 . S
Dy283 O294 2.403 . S
Dy283 O295 2.664 . S
Dy283 O297 2.326 . S
O284 Dy280 2.398 . S
O284 C282 1.185 . S
O285 Dy280 2.491 . S
O285 C282 1.355 . S
O286 Dy280 2.403 . S
O286 C288 1.254 . S
O287 Dy280 2.664 . S
O287 Dy283 2.310 . S
O287 C288 1.268 . S
C288 O286 1.254 . S
C288 O287 1.268 . S
C289 O294 1.254 . S
C289 O295 1.268 . S
O290 Dy283 2.351 . S
O290 C298 1.249 . S
O291 Dy280 2.326 . S
O291 C298 1.267 . S
O292 C281 1.185 . S
O292 Dy283 2.398 . S
O293 C281 1.355 . S
O293 Dy283 2.491 . S
O294 Dy283 2.403 . S
O294 C289 1.254 . S
O295 Dy280 2.310 . S
O295 Dy283 2.664 . S
O295 C289 1.268 . S
O296 Dy280 2.351 . S
O296 C299 1.249 . S
O297 Dy283 2.326 . S
O297 C299 1.267 . S
C298 O290 1.249 . S
C298 O291 1.267 . S
C299 O296 1.249 . S
C299 O297 1.267 . S
Dy300 O304 2.398 . S
Dy300 O305 2.491 . S
Dy300 O306 2.403 . S
Dy300 O307 2.664 . S
Dy300 O311 2.326 . S
Dy300 O315 2.310 . S
Dy300 O316 2.351 . S
C301 O312 1.185 . S
C301 O313 1.355 . S
C302 O304 1.185 . S
C302 O305 1.355 . S
Dy303 O307 2.310 . S
Dy303 O310 2.351 . S
Dy303 O312 2.398 . S
Dy303 O313 2.491 . S
Dy303 O314 2.403 . S
Dy303 O315 2.664 . S
Dy303 O317 2.326 . S
O304 Dy300 2.398 . S
O304 C302 1.185 . S
O305 Dy300 2.491 . S
O305 C302 1.355 . S
O306 Dy300 2.403 . S
O306 C308 1.254 . S
O307 Dy300 2.664 . S
O307 Dy303 2.310 . S
O307 C308 1.268 . S
C308 O306 1.254 . S
C308 O307 1.268 . S
C309 O314 1.254 . S
C309 O315 1.268 . S
O310 Dy303 2.351 . S
O310 C318 1.249 . S
O311 Dy300 2.326 . S
O311 C318 1.267 . S
O312 C301 1.185 . S
O312 Dy303 2.398 . S
O313 C301 1.355 . S
O313 Dy303 2.491 . S
O314 Dy303 2.403 . S
O314 C309 1.254 . S
O315 Dy300 2.310 . S
O315 Dy303 2.664 . S
O315 C309 1.268 . S
O316 Dy300 2.351 . S
O316 C319 1.249 . S
O317 Dy303 2.326 . S
O317 C319 1.267 . S
C318 O310 1.249 . S
C318 O311 1.267 . S
C319 O316 1.249 . S
C319 O317 1.267 . S
Dy320 O324 2.398 . S
Dy320 O325 2.491 1_545 S
Dy320 O326 2.403 . S
Dy320 O327 2.664 . S
Dy320 O331 2.326 . S
Dy320 O335 2.310 1_545 S
Dy320 O336 2.351 . S
C321 O332 1.185 . S
C321 O333 1.355 1_565 S
C322 O324 1.185 . S
C322 O325 1.355 1_545 S
Dy323 O327 2.310 1_565 S
Dy323 O330 2.354 . S
Dy323 O332 2.398 . S
Dy323 O333 2.491 1_565 S
Dy323 O334 2.403 . S
Dy323 O335 2.664 . S
Dy323 O337 2.326 . S
O324 Dy320 2.398 . S
O324 C322 1.185 . S
O325 Dy320 2.491 1_565 S
O325 C322 1.355 1_565 S
O326 Dy320 2.403 . S
O326 C328 1.254 . S
O327 Dy320 2.664 . S
O327 Dy323 2.310 1_545 S
O327 C328 1.268 . S
C328 O326 1.254 . S
C328 O327 1.268 . S
C329 O334 1.254 . S
C329 O335 1.268 . S
O330 Dy323 2.354 . S
O330 C338 1.240 1_565 S
O331 Dy320 2.326 . S
O331 C338 1.267 . S
O332 C321 1.185 . S
O332 Dy323 2.398 . S
O333 C321 1.355 1_545 S
O333 Dy323 2.491 1_545 S
O334 Dy323 2.403 . S
O334 C329 1.254 . S
O335 Dy320 2.310 1_565 S
O335 Dy323 2.664 . S
O335 C329 1.268 . S
O336 Dy320 2.351 . S
O336 C339 1.249 . S
O337 Dy323 2.326 . S
O337 C339 1.267 1_565 S
C338 O330 1.240 1_545 S
C338 O331 1.267 . S
C339 O336 1.249 . S
C339 O337 1.267 1_545 S
Dy340 O344 2.398 . S
Dy340 O345 2.491 . S
Dy340 O346 2.403 . S
Dy340 O347 2.664 . S
Dy340 O351 2.326 . S
Dy340 O355 2.310 . S
Dy340 O356 2.351 . S
C341 O352 1.185 . S
C341 O353 1.355 . S
C342 O344 1.185 . S
C342 O345 1.355 . S
Dy343 O347 2.310 . S
Dy343 O350 2.351 . S
Dy343 O352 2.398 . S
Dy343 O353 2.491 . S
Dy343 O354 2.403 . S
Dy343 O355 2.664 . S
Dy343 O357 2.326 . S
O344 Dy340 2.398 . S
O344 C342 1.185 . S
O345 Dy340 2.491 . S
O345 C342 1.355 . S
O346 Dy340 2.403 . S
O346 C348 1.254 . S
O347 Dy340 2.664 . S
O347 Dy343 2.310 . S
O347 C348 1.268 . S
C348 O346 1.254 . S
C348 O347 1.268 . S
C349 O354 1.254 . S
C349 O355 1.268 . S
O350 Dy343 2.351 . S
O350 C358 1.249 . S
O351 Dy340 2.326 . S
O351 C358 1.267 . S
O352 C341 1.185 . S
O352 Dy343 2.398 . S
O353 C341 1.355 . S
O353 Dy343 2.491 . S
O354 Dy343 2.403 . S
O354 C349 1.254 . S
O355 Dy340 2.310 . S
O355 Dy343 2.664 . S
O355 C349 1.268 . S
O356 Dy340 2.351 . S
O356 C359 1.249 . S
O357 Dy343 2.326 . S
O357 C359 1.267 . S
C358 O350 1.249 . S
C358 O351 1.267 . S
C359 O356 1.249 . S
C359 O357 1.267 . S
Dy360 O364 2.398 . S
Dy360 O365 2.491 . S
Dy360 O366 2.403 . S
Dy360 O367 2.664 . S
Dy360 O371 2.326 . S
Dy360 O375 2.310 . S
Dy360 O376 2.351 . S
C361 O372 1.185 . S
C361 O373 1.355 . S
C362 O364 1.185 . S
C362 O365 1.355 . S
Dy363 O367 2.310 . S
Dy363 O370 2.351 . S
Dy363 O372 2.398 . S
Dy363 O373 2.491 . S
Dy363 O374 2.403 . S
Dy363 O375 2.664 . S
Dy363 O377 2.326 . S
O364 Dy360 2.398 . S
O364 C362 1.185 . S
O365 Dy360 2.491 . S
O365 C362 1.355 . S
O366 Dy360 2.403 . S
O366 C368 1.254 . S
O367 Dy360 2.664 . S
O367 Dy363 2.310 . S
O367 C368 1.268 . S
C368 O366 1.254 . S
C368 O367 1.268 . S
C369 O374 1.254 . S
C369 O375 1.268 . S
O370 Dy363 2.351 . S
O370 C378 1.249 . S
O371 Dy360 2.326 . S
O371 C378 1.267 . S
O372 C361 1.185 . S
O372 Dy363 2.398 . S
O373 C361 1.355 . S
O373 Dy363 2.491 . S
O374 Dy363 2.403 . S
O374 C369 1.254 . S
O375 Dy360 2.310 . S
O375 Dy363 2.664 . S
O375 C369 1.268 . S
O376 Dy360 2.351 . S
O376 C379 1.249 . S
O377 Dy363 2.326 . S
O377 C379 1.267 . S
C378 O370 1.249 . S
C378 O371 1.267 . S
C379 O376 1.249 . S
C379 O377 1.267 . S
Dy380 O384 2.398 . S
Dy380 O385 2.491 1_545 S
Dy380 O386 2.403 . S
Dy380 O387 2.664 . S
Dy380 O391 2.326 . S
Dy380 O395 2.310 1_545 S
Dy380 O396 2.351 . S
C381 O392 1.185 . S
C381 O393 1.355 1_565 S
C382 O384 1.185 . S
C382 O385 1.355 1_545 S
Dy383 O387 2.310 1_565 S
Dy383 O390 2.354 . S
Dy383 O392 2.398 . S
Dy383 O393 2.491 1_565 S
Dy383 O394 2.403 . S
Dy383 O395 2.664 . S
Dy383 O397 2.326 . S
O384 Dy380 2.398 . S
O384 C382 1.185 . S
O385 Dy380 2.491 1_565 S
O385 C382 1.355 1_565 S
O386 Dy380 2.403 . S
O386 C388 1.254 . S
O387 Dy380 2.664 . S
O387 Dy383 2.310 1_545 S
O387 C388 1.268 . S
C388 O386 1.254 . S
C388 O387 1.268 . S
C389 O394 1.254 . S
C389 O395 1.268 . S
O390 Dy383 2.354 . S
O390 C398 1.240 1_565 S
O391 Dy380 2.326 . S
O391 C398 1.267 . S
O392 C381 1.185 . S
O392 Dy383 2.398 . S
O393 C381 1.355 1_545 S
O393 Dy383 2.491 1_545 S
O394 Dy383 2.403 . S
O394 C389 1.254 . S
O395 Dy380 2.310 1_565 S
O395 Dy383 2.664 . S
O395 C389 1.268 . S
O396 Dy380 2.351 . S
O396 C399 1.249 . S
O397 Dy383 2.326 . S
O397 C399 1.267 1_565 S
C398 O390 1.240 1_545 S
C398 O391 1.267 . S
C399 O396 1.249 . S
C399 O397 1.267 1_545 S
Dy400 O404 2.398 . S
Dy400 O405 2.491 1_545 S
Dy400 O406 2.403 . S
Dy400 O407 2.664 . S
Dy400 O411 2.326 . S
Dy400 O415 2.310 1_545 S
Dy400 O416 2.354 . S
C401 O412 1.185 . S
C401 O413 1.355 1_565 S
C402 O404 1.185 . S
C402 O405 1.355 1_545 S
Dy403 O407 2.310 1_565 S
Dy403 O410 2.351 . S
Dy403 O412 2.398 . S
Dy403 O413 2.491 1_565 S
Dy403 O414 2.403 . S
Dy403 O415 2.664 . S
Dy403 O417 2.326 . S
O404 Dy400 2.398 . S
O404 C402 1.185 . S
O405 Dy400 2.491 1_565 S
O405 C402 1.355 1_565 S
O406 Dy400 2.403 . S
O406 C408 1.254 . S
O407 Dy400 2.664 . S
O407 Dy403 2.310 1_545 S
O407 C408 1.268 . S
C408 O406 1.254 . S
C408 O407 1.268 . S
C409 O414 1.254 . S
C409 O415 1.268 . S
O410 Dy403 2.351 . S
O410 C418 1.249 . S
O411 Dy400 2.326 . S
O411 C418 1.267 1_545 S
O412 C401 1.185 . S
O412 Dy403 2.398 . S
O413 C401 1.355 1_545 S
O413 Dy403 2.491 1_545 S
O414 Dy403 2.403 . S
O414 C409 1.254 . S
O415 Dy400 2.310 1_565 S
O415 Dy403 2.664 . S
O415 C409 1.268 . S
O416 Dy400 2.354 . S
O416 C419 1.240 1_545 S
O417 Dy403 2.326 . S
O417 C419 1.267 . S
C418 O410 1.249 . S
C418 O411 1.267 1_565 S
C419 O416 1.240 1_565 S
C419 O417 1.267 . S
Dy420 O424 2.398 . S
Dy420 O425 2.491 . S
Dy420 O426 2.403 . S
Dy420 O427 2.664 . S
Dy420 O431 2.326 . S
Dy420 O435 2.310 . S
Dy420 O436 2.351 . S
C421 O432 1.185 . S
C421 O433 1.355 . S
C422 O424 1.185 . S
C422 O425 1.355 . S
Dy423 O427 2.310 . S
Dy423 O430 2.351 . S
Dy423 O432 2.398 . S
Dy423 O433 2.491 . S
Dy423 O434 2.403 . S
Dy423 O435 2.664 . S
Dy423 O437 2.326 . S
O424 Dy420 2.398 . S
O424 C422 1.185 . S
O425 Dy420 2.491 . S
O425 C422 1.355 . S
O426 Dy420 2.403 . S
O426 C428 1.254 . S
O427 Dy420 2.664 . S
O427 Dy423 2.310 . S
O427 C428 1.268 . S
C428 O426 1.254 . S
C428 O427 1.268 . S
C429 O434 1.254 . S
C429 O435 1.268 . S
O430 Dy423 2.351 . S
O430 C438 1.249 . S
O431 Dy420 2.326 . S
O431 C438 1.267 . S
O432 C421 1.185 . S
O432 Dy423 2.398 . S
O433 C421 1.355 . S
O433 Dy423 2.491 . S
O434 Dy423 2.403 . S
O434 C429 1.254 . S
O435 Dy420 2.310 . S
O435 Dy423 2.664 . S
O435 C429 1.268 . S
O436 Dy420 2.351 . S
O436 C439 1.249 . S
O437 Dy423 2.326 . S
O437 C439 1.267 . S
C438 O430 1.249 . S
C438 O431 1.267 . S
C439 O436 1.249 . S
C439 O437 1.267 . S
Dy440 O444 2.398 . S
Dy440 O445 2.491 . S
Dy440 O446 2.403 . S
Dy440 O447 2.664 . S
Dy440 O451 2.326 . S
Dy440 O455 2.310 . S
Dy440 O456 2.351 . S
C441 O452 1.185 . S
C441 O453 1.355 . S
C442 O444 1.185 . S
C442 O445 1.355 . S
Dy443 O447 2.310 . S
Dy443 O450 2.351 . S
Dy443 O452 2.398 . S
Dy443 O453 2.491 . S
Dy443 O454 2.403 . S
Dy443 O455 2.664 . S
Dy443 O457 2.326 . S
O444 Dy440 2.398 . S
O444 C442 1.185 . S
O445 Dy440 2.491 . S
O445 C442 1.355 . S
O446 Dy440 2.403 . S
O446 C448 1.254 . S
O447 Dy440 2.664 . S
O447 Dy443 2.310 . S
O447 C448 1.268 . S
C448 O446 1.254 . S
C448 O447 1.268 . S
C449 O454 1.254 . S
C449 O455 1.268 . S
O450 Dy443 2.351 . S
O450 C458 1.249 . S
O451 Dy440 2.326 . S
O451 C458 1.267 . S
O452 C441 1.185 . S
O452 Dy443 2.398 . S
O453 C441 1.355 . S
O453 Dy443 2.491 . S
O454 Dy443 2.403 . S
O454 C449 1.254 . S
O455 Dy440 2.310 . S
O455 Dy443 2.664 . S
O455 C449 1.268 . S
O456 Dy440 2.351 . S
O456 C459 1.249 . S
O457 Dy443 2.326 . S
O457 C459 1.267 . S
C458 O450 1.249 . S
C458 O451 1.267 . S
C459 O456 1.249 . S
C459 O457 1.267 . S
Dy460 O464 2.398 . S
Dy460 O465 2.491 1_545 S
Dy460 O466 2.403 . S
Dy460 O467 2.664 . S
Dy460 O471 2.326 . S
Dy460 O475 2.310 1_545 S
Dy460 O476 2.354 . S
C461 O472 1.185 . S
C461 O473 1.355 1_565 S
C462 O464 1.185 . S
C462 O465 1.355 1_545 S
Dy463 O467 2.310 1_565 S
Dy463 O470 2.351 . S
Dy463 O472 2.398 . S
Dy463 O473 2.491 1_565 S
Dy463 O474 2.403 . S
Dy463 O475 2.664 . S
Dy463 O477 2.326 . S
O464 Dy460 2.398 . S
O464 C462 1.185 . S
O465 Dy460 2.491 1_565 S
O465 C462 1.355 1_565 S
O466 Dy460 2.403 . S
O466 C468 1.254 . S
O467 Dy460 2.664 . S
O467 Dy463 2.310 1_545 S
O467 C468 1.268 . S
C468 O466 1.254 . S
C468 O467 1.268 . S
C469 O474 1.254 . S
C469 O475 1.268 . S
O470 Dy463 2.351 . S
O470 C478 1.249 . S
O471 Dy460 2.326 . S
O471 C478 1.267 1_545 S
O472 C461 1.185 . S
O472 Dy463 2.398 . S
O473 C461 1.355 1_545 S
O473 Dy463 2.491 1_545 S
O474 Dy463 2.403 . S
O474 C469 1.254 . S
O475 Dy460 2.310 1_565 S
O475 Dy463 2.664 . S
O475 C469 1.268 . S
O476 Dy460 2.354 . S
O476 C479 1.240 1_545 S
O477 Dy463 2.326 . S
O477 C479 1.267 . S
C478 O470 1.249 . S
C478 O471 1.267 1_565 S
C479 O476 1.240 1_565 S
C479 O477 1.267 . S
Dy480 O484 2.387 1_554 S
Dy480 O485 2.488 1_554 S
Dy480 O486 2.403 . S
Dy480 O487 2.664 . S
Dy480 O491 2.326 . S
Dy480 O495 2.310 . S
Dy480 O496 2.351 . S
C481 O492 1.185 . S
C481 O493 1.355 . S
C482 O484 1.192 . S
C482 O485 1.358 . S
Dy483 O487 2.310 . S
Dy483 O490 2.351 . S
Dy483 O492 2.398 . S
Dy483 O493 2.491 . S
Dy483 O494 2.403 . S
Dy483 O495 2.664 . S
Dy483 O497 2.326 . S
O484 Dy480 2.387 1_556 S
O484 C482 1.192 . S
O485 Dy480 2.488 1_556 S
O485 C482 1.358 . S
O486 Dy480 2.403 . S
O486 C488 1.254 . S
O487 Dy480 2.664 . S
O487 Dy483 2.310 . S
O487 C488 1.268 . S
C488 O486 1.254 . S
C488 O487 1.268 . S
C489 O494 1.254 . S
C489 O495 1.268 . S
O490 Dy483 2.351 . S
O490 C498 1.249 . S
O491 Dy480 2.326 . S
O491 C498 1.267 . S
O492 C481 1.185 . S
O492 Dy483 2.398 . S
O493 C481 1.355 . S
O493 Dy483 2.491 . S
O494 Dy483 2.403 . S
O494 C489 1.254 . S
O495 Dy480 2.310 . S
O495 Dy483 2.664 . S
O495 C489 1.268 . S
O496 Dy480 2.351 . S
O496 C499 1.249 . S
O497 Dy483 2.326 . S
O497 C499 1.267 . S
C498 O490 1.249 . S
C498 O491 1.267 . S
C499 O496 1.249 . S
C499 O497 1.267 . S
Dy500 O504 2.387 1_554 S
Dy500 O505 2.488 1_554 S
Dy500 O506 2.403 . S
Dy500 O507 2.664 . S
Dy500 O511 2.326 . S
Dy500 O515 2.310 . S
Dy500 O516 2.351 . S
C501 O512 1.185 . S
C501 O513 1.355 . S
C502 O504 1.192 . S
C502 O505 1.358 . S
Dy503 O507 2.310 . S
Dy503 O510 2.351 . S
Dy503 O512 2.398 . S
Dy503 O513 2.491 . S
Dy503 O514 2.403 . S
Dy503 O515 2.664 . S
Dy503 O517 2.326 . S
O504 Dy500 2.387 1_556 S
O504 C502 1.192 . S
O505 Dy500 2.488 1_556 S
O505 C502 1.358 . S
O506 Dy500 2.403 . S
O506 C508 1.254 . S
O507 Dy500 2.664 . S
O507 Dy503 2.310 . S
O507 C508 1.268 . S
C508 O506 1.254 . S
C508 O507 1.268 . S
C509 O514 1.254 . S
C509 O515 1.268 . S
O510 Dy503 2.351 . S
O510 C518 1.249 . S
O511 Dy500 2.326 . S
O511 C518 1.267 . S
O512 C501 1.185 . S
O512 Dy503 2.398 . S
O513 C501 1.355 . S
O513 Dy503 2.491 . S
O514 Dy503 2.403 . S
O514 C509 1.254 . S
O515 Dy500 2.310 . S
O515 Dy503 2.664 . S
O515 C509 1.268 . S
O516 Dy500 2.351 . S
O516 C519 1.249 . S
O517 Dy503 2.326 . S
O517 C519 1.267 . S
C518 O510 1.249 . S
C518 O511 1.267 . S
C519 O516 1.249 . S
C519 O517 1.267 . S
Dy520 O524 2.398 . S
Dy520 O525 2.491 . S
Dy520 O526 2.403 . S
Dy520 O527 2.664 . S
Dy520 O531 2.326 . S
Dy520 O535 2.310 . S
Dy520 O536 2.351 . S
C521 O532 1.185 . S
C521 O533 1.355 . S
C522 O524 1.185 . S
C522 O525 1.355 . S
Dy523 O527 2.310 . S
Dy523 O530 2.351 . S
Dy523 O532 2.398 . S
Dy523 O533 2.491 . S
Dy523 O534 2.403 . S
Dy523 O535 2.664 . S
Dy523 O537 2.326 . S
O524 Dy520 2.398 . S
O524 C522 1.185 . S
O525 Dy520 2.491 . S
O525 C522 1.355 . S
O526 Dy520 2.403 . S
O526 C528 1.254 . S
O527 Dy520 2.664 . S
O527 Dy523 2.310 . S
O527 C528 1.268 . S
C528 O526 1.254 . S
C528 O527 1.268 . S
C529 O534 1.254 . S
C529 O535 1.268 . S
O530 Dy523 2.351 . S
O530 C538 1.249 . S
O531 Dy520 2.326 . S
O531 C538 1.267 . S
O532 C521 1.185 . S
O532 Dy523 2.398 . S
O533 C521 1.355 . S
O533 Dy523 2.491 . S
O534 Dy523 2.403 . S
O534 C529 1.254 . S
O535 Dy520 2.310 . S
O535 Dy523 2.664 . S
O535 C529 1.268 . S
O536 Dy520 2.351 . S
O536 C539 1.249 . S
O537 Dy523 2.326 . S
O537 C539 1.267 . S
C538 O530 1.249 . S
C538 O531 1.267 . S
C539 O536 1.249 . S
C539 O537 1.267 . S
Dy540 O544 2.398 . S
Dy540 O545 2.491 . S
Dy540 O546 2.403 . S
Dy540 O547 2.664 . S
Dy540 O551 2.326 . S
Dy540 O555 2.310 . S
Dy540 O556 2.351 . S
C541 O552 1.185 . S
C541 O553 1.355 . S
C542 O544 1.185 . S
C542 O545 1.355 . S
Dy543 O547 2.310 . S
Dy543 O550 2.351 . S
Dy543 O552 2.398 . S
Dy543 O553 2.491 . S
Dy543 O554 2.403 . S
Dy543 O555 2.664 . S
Dy543 O557 2.326 . S
O544 Dy540 2.398 . S
O544 C542 1.185 . S
O545 Dy540 2.491 . S
O545 C542 1.355 . S
O546 Dy540 2.403 . S
O546 C548 1.254 . S
O547 Dy540 2.664 . S
O547 Dy543 2.310 . S
O547 C548 1.268 . S
C548 O546 1.254 . S
C548 O547 1.268 . S
C549 O554 1.254 . S
C549 O555 1.268 . S
O550 Dy543 2.351 . S
O550 C558 1.249 . S
O551 Dy540 2.326 . S
O551 C558 1.267 . S
O552 C541 1.185 . S
O552 Dy543 2.398 . S
O553 C541 1.355 . S
O553 Dy543 2.491 . S
O554 Dy543 2.403 . S
O554 C549 1.254 . S
O555 Dy540 2.310 . S
O555 Dy543 2.664 . S
O555 C549 1.268 . S
O556 Dy540 2.351 . S
O556 C559 1.249 . S
O557 Dy543 2.326 . S
O557 C559 1.267 . S
C558 O550 1.249 . S
C558 O551 1.267 . S
C559 O556 1.249 . S
C559 O557 1.267 . S
Dy560 O564 2.398 . S
Dy560 O565 2.491 . S
Dy560 O566 2.403 . S
Dy560 O567 2.664 . S
Dy560 O571 2.326 . S
Dy560 O575 2.310 . S
Dy560 O576 2.351 . S
C561 O572 1.192 . S
C561 O573 1.358 . S
C562 O564 1.185 . S
C562 O565 1.355 . S
Dy563 O567 2.310 . S
Dy563 O570 2.351 . S
Dy563 O572 2.387 1_556 S
Dy563 O573 2.488 1_556 S
Dy563 O574 2.403 . S
Dy563 O575 2.664 . S
Dy563 O577 2.326 . S
O564 Dy560 2.398 . S
O564 C562 1.185 . S
O565 Dy560 2.491 . S
O565 C562 1.355 . S
O566 Dy560 2.403 . S
O566 C568 1.254 . S
O567 Dy560 2.664 . S
O567 Dy563 2.310 . S
O567 C568 1.268 . S
C568 O566 1.254 . S
C568 O567 1.268 . S
C569 O574 1.254 . S
C569 O575 1.268 . S
O570 Dy563 2.351 . S
O570 C578 1.249 . S
O571 Dy560 2.326 . S
O571 C578 1.267 . S
O572 C561 1.192 . S
O572 Dy563 2.387 1_554 S
O573 C561 1.358 . S
O573 Dy563 2.488 1_554 S
O574 Dy563 2.403 . S
O574 C569 1.254 . S
O575 Dy560 2.310 . S
O575 Dy563 2.664 . S
O575 C569 1.268 . S
O576 Dy560 2.351 . S
O576 C579 1.249 . S
O577 Dy563 2.326 . S
O577 C579 1.267 . S
C578 O570 1.249 . S
C578 O571 1.267 . S
C579 O576 1.249 . S
C579 O577 1.267 . S
Dy580 O584 2.398 . S
Dy580 O585 2.491 . S
Dy580 O586 2.403 . S
Dy580 O587 2.664 . S
Dy580 O591 2.326 . S
Dy580 O595 2.310 . S
Dy580 O596 2.351 . S
C581 O592 1.192 . S
C581 O593 1.358 . S
C582 O584 1.185 . S
C582 O585 1.355 . S
Dy583 O587 2.310 . S
Dy583 O590 2.351 . S
Dy583 O592 2.387 1_556 S
Dy583 O593 2.488 1_556 S
Dy583 O594 2.403 . S
Dy583 O595 2.664 . S
Dy583 O597 2.326 . S
O584 Dy580 2.398 . S
O584 C582 1.185 . S
O585 Dy580 2.491 . S
O585 C582 1.355 . S
O586 Dy580 2.403 . S
O586 C588 1.254 . S
O587 Dy580 2.664 . S
O587 Dy583 2.310 . S
O587 C588 1.268 . S
C588 O586 1.254 . S
C588 O587 1.268 . S
C589 O594 1.254 . S
C589 O595 1.268 . S
O590 Dy583 2.351 . S
O590 C598 1.249 . S
O591 Dy580 2.326 . S
O591 C598 1.267 . S
O592 C581 1.192 . S
O592 Dy583 2.387 1_554 S
O593 C581 1.358 . S
O593 Dy583 2.488 1_554 S
O594 Dy583 2.403 . S
O594 C589 1.254 . S
O595 Dy580 2.310 . S
O595 Dy583 2.664 . S
O595 C589 1.268 . S
O596 Dy580 2.351 . S
O596 C599 1.249 . S
O597 Dy583 2.326 . S
O597 C599 1.267 . S
C598 O590 1.249 . S
C598 O591 1.267 . S
C599 O596 1.249 . S
C599 O597 1.267 . S
Dy600 O604 2.398 . S
Dy600 O605 2.491 . S
Dy600 O606 2.403 . S
Dy600 O607 2.664 . S
Dy600 O611 2.326 . S
Dy600 O615 2.310 . S
Dy600 O616 2.351 . S
C601 O612 1.185 . S
C601 O613 1.355 . S
C602 O604 1.185 . S
C602 O605 1.355 . S
Dy603 O607 2.310 . S
Dy603 O610 2.351 . S
Dy603 O612 2.398 . S
Dy603 O613 2.491 . S
Dy603 O614 2.403 . S
Dy603 O615 2.664 . S
Dy603 O617 2.326 . S
O604 Dy600 2.398 . S
O604 C602 1.185 . S
O605 Dy600 2.491 . S
O605 C602 1.355 . S
O606 Dy600 2.403 . S
O606 C608 1.254 . S
O607 Dy600 2.664 . S
O607 Dy603 2.310 . S
O607 C608 1.268 . S
C608 O606 1.254 . S
C608 O607 1.268 . S
C609 O614 1.254 . S
C609 O615 1.268 . S
O610 Dy603 2.351 . S
O610 C618 1.249 . S
O611 Dy600 2.326 . S
O611 C618 1.267 . S
O612 C601 1.185 . S
O612 Dy603 2.398 . S
O613 C601 1.355 . S
O613 Dy603 2.491 . S
O614 Dy603 2.403 . S
O614 C609 1.254 . S
O615 Dy600 2.310 . S
O615 Dy603 2.664 . S
O615 C609 1.268 . S
O616 Dy600 2.351 . S
O616 C619 1.249 . S
O617 Dy603 2.326 . S
O617 C619 1.267 . S
C618 O610 1.249 . S
C618 O611 1.267 . S
C619 O616 1.249 . S
C619 O617 1.267 . S
Dy620 O624 2.398 . S
Dy620 O625 2.491 . S
Dy620 O626 2.403 . S
Dy620 O627 2.664 . S
Dy620 O631 2.326 . S
Dy620 O635 2.310 . S
Dy620 O636 2.351 . S
C621 O632 1.185 . S
C621 O633 1.355 . S
C622 O624 1.185 . S
C622 O625 1.355 . S
Dy623 O627 2.310 . S
Dy623 O630 2.351 . S
Dy623 O632 2.398 . S
Dy623 O633 2.491 . S
Dy623 O634 2.403 . S
Dy623 O635 2.664 . S
Dy623 O637 2.326 . S
O624 Dy620 2.398 . S
O624 C622 1.185 . S
O625 Dy620 2.491 . S
O625 C622 1.355 . S
O626 Dy620 2.403 . S
O626 C628 1.254 . S
O627 Dy620 2.664 . S
O627 Dy623 2.310 . S
O627 C628 1.268 . S
C628 O626 1.254 . S
C628 O627 1.268 . S
C629 O634 1.254 . S
C629 O635 1.268 . S
O630 Dy623 2.351 . S
O630 C638 1.249 . S
O631 Dy620 2.326 . S
O631 C638 1.267 . S
O632 C621 1.185 . S
O632 Dy623 2.398 . S
O633 C621 1.355 . S
O633 Dy623 2.491 . S
O634 Dy623 2.403 . S
O634 C629 1.254 . S
O635 Dy620 2.310 . S
O635 Dy623 2.664 . S
O635 C629 1.268 . S
O636 Dy620 2.351 . S
O636 C639 1.249 . S
O637 Dy623 2.326 . S
O637 C639 1.267 . S
C638 O630 1.249 . S
C638 O631 1.267 . S
C639 O636 1.249 . S
C639 O637 1.267 . S
H640 C648 0.950 . S
H641 C653 0.950 . S
H642 C650 0.950 . S
H643 C652 0.950 . S
H644 C654 0.950 . S
H645 C656 0.950 . S
H646 C658 0.950 . S
H647 C659 0.950 . S
C648 H640 0.950 . S
C648 C649 1.386 . S
C648 C650 1.391 . S
C649 C648 1.386 . S
C649 C653 1.393 . S
C650 H642 0.950 . S
C650 C648 1.391 . S
C650 C651 1.400 . S
C651 C650 1.400 . S
C651 C652 1.398 . S
C651 C657 1.491 . S
C652 H643 0.950 . S
C652 C651 1.398 . S
C652 C653 1.391 . S
C653 H641 0.950 . S
C653 C649 1.393 . S
C653 C652 1.391 . S
C654 H644 0.950 . S
C654 C655 1.386 . S
C654 C656 1.391 . S
C655 C654 1.386 . S
C655 C659 1.393 . S
C656 H645 0.950 . S
C656 C654 1.391 . S
C656 C657 1.400 . S
C657 C651 1.491 . S
C657 C656 1.400 . S
C657 C658 1.398 . S
C658 H646 0.950 . S
C658 C657 1.398 . S
C658 C659 1.391 . S
C659 H647 0.950 . S
C659 C655 1.393 . S
C659 C658 1.391 . S
H660 C668 0.950 . S
H661 C673 0.950 . S
H662 C670 0.950 . S
H663 C672 0.950 . S
H664 C674 0.950 . S
H665 C676 0.950 . S
H666 C678 0.950 . S
H667 C679 0.950 . S
C668 H660 0.950 . S
C668 C669 1.386 . S
C668 C670 1.391 . S
C669 C668 1.386 . S
C669 C673 1.393 . S
C670 H662 0.950 . S
C670 C668 1.391 . S
C670 C671 1.400 . S
C671 C670 1.400 . S
C671 C672 1.398 . S
C671 C677 1.491 . S
C672 H663 0.950 . S
C672 C671 1.398 . S
C672 C673 1.391 . S
C673 H661 0.950 . S
C673 C669 1.393 . S
C673 C672 1.391 . S
C674 H664 0.950 . S
C674 C675 1.386 . S
C674 C676 1.391 . S
C675 C674 1.386 . S
C675 C679 1.393 . S
C676 H665 0.950 . S
C676 C674 1.391 . S
C676 C677 1.400 . S
C677 C671 1.491 . S
C677 C676 1.400 . S
C677 C678 1.398 . S
C678 H666 0.950 . S
C678 C677 1.398 . S
C678 C679 1.391 . S
C679 H667 0.950 . S
C679 C675 1.393 . S
C679 C678 1.391 . S
H680 C688 0.950 . S
H681 C693 0.950 . S
H682 C690 0.950 . S
H683 C692 0.950 . S
H684 C694 0.950 . S
H685 C696 0.950 . S
H686 C698 0.950 . S
H687 C699 0.950 . S
C688 H680 0.950 . S
C688 C689 1.386 . S
C688 C690 1.391 . S
C689 C688 1.386 . S
C689 C693 1.393 . S
C690 H682 0.950 . S
C690 C688 1.391 . S
C690 C691 1.400 . S
C691 C690 1.400 . S
C691 C692 1.398 . S
C691 C697 1.491 . S
C692 H683 0.950 . S
C692 C691 1.398 . S
C692 C693 1.391 . S
C693 H681 0.950 . S
C693 C689 1.393 . S
C693 C692 1.391 . S
C694 H684 0.950 . S
C694 C695 1.386 . S
C694 C696 1.391 . S
C695 C694 1.386 . S
C695 C699 1.393 . S
C696 H685 0.950 . S
C696 C694 1.391 . S
C696 C697 1.400 . S
C697 C691 1.491 . S
C697 C696 1.400 . S
C697 C698 1.398 . S
C698 H686 0.950 . S
C698 C697 1.398 . S
C698 C699 1.391 . S
C699 H687 0.950 . S
C699 C695 1.393 . S
C699 C698 1.391 . S
H700 C708 0.950 . S
H701 C713 0.950 . S
H702 C710 0.950 . S
H703 C712 0.950 . S
H704 C714 0.950 . S
H705 C716 0.950 . S
H706 C718 0.950 . S
H707 C719 0.950 . S
C708 H700 0.950 . S
C708 C709 1.386 . S
C708 C710 1.391 . S
C709 C708 1.386 . S
C709 C713 1.393 . S
C710 H702 0.950 . S
C710 C708 1.391 . S
C710 C711 1.400 . S
C711 C710 1.400 . S
C711 C712 1.398 . S
C711 C717 1.491 . S
C712 H703 0.950 . S
C712 C711 1.398 . S
C712 C713 1.391 . S
C713 H701 0.950 . S
C713 C709 1.393 . S
C713 C712 1.391 . S
C714 H704 0.950 . S
C714 C715 1.386 . S
C714 C716 1.391 . S
C715 C714 1.386 . S
C715 C719 1.393 . S
C716 H705 0.950 . S
C716 C714 1.391 . S
C716 C717 1.400 . S
C717 C711 1.491 . S
C717 C716 1.400 . S
C717 C718 1.398 . S
C718 H706 0.950 . S
C718 C717 1.398 . S
C718 C719 1.391 . S
C719 H707 0.950 . S
C719 C715 1.393 . S
C719 C718 1.391 . S
H720 C728 0.950 . S
H721 C733 0.950 . S
H722 C730 0.950 . S
H723 C732 0.950 . S
H724 C734 0.950 . S
H725 C736 0.950 . S
H726 C738 0.950 . S
H727 C739 0.950 . S
C728 H720 0.950 . S
C728 C729 1.386 . S
C728 C730 1.391 . S
C729 C728 1.386 . S
C729 C733 1.393 . S
C730 H722 0.950 . S
C730 C728 1.391 . S
C730 C731 1.400 . S
C731 C730 1.400 . S
C731 C732 1.398 . S
C731 C737 1.491 . S
C732 H723 0.950 . S
C732 C731 1.398 . S
C732 C733 1.391 . S
C733 H721 0.950 . S
C733 C729 1.393 . S
C733 C732 1.391 . S
C734 H724 0.950 . S
C734 C735 1.386 . S
C734 C736 1.391 . S
C735 C734 1.386 . S
C735 C739 1.393 . S
C736 H725 0.950 . S
C736 C734 1.391 . S
C736 C737 1.400 . S
C737 C731 1.491 . S
C737 C736 1.400 . S
C737 C738 1.398 . S
C738 H726 0.950 . S
C738 C737 1.398 . S
C738 C739 1.391 . S
C739 H727 0.950 . S
C739 C735 1.393 . S
C739 C738 1.391 . S
H740 C748 0.950 . S
H741 C753 0.950 . S
H742 C750 0.950 . S
H743 C752 0.950 . S
H744 C754 0.950 . S
H745 C756 0.950 . S
H746 C758 0.950 . S
H747 C759 0.950 . S
C748 H740 0.950 . S
C748 C749 1.386 . S
C748 C750 1.391 . S
C749 C748 1.386 . S
C749 C753 1.393 . S
C750 H742 0.950 . S
C750 C748 1.391 . S
C750 C751 1.400 . S
C751 C750 1.400 . S
C751 C752 1.398 . S
C751 C757 1.491 . S
C752 H743 0.950 . S
C752 C751 1.398 . S
C752 C753 1.391 . S
C753 H741 0.950 . S
C753 C749 1.393 . S
C753 C752 1.391 . S
C754 H744 0.950 . S
C754 C755 1.386 . S
C754 C756 1.391 . S
C755 C754 1.386 . S
C755 C759 1.393 . S
C756 H745 0.950 . S
C756 C754 1.391 . S
C756 C757 1.400 . S
C757 C751 1.491 . S
C757 C756 1.400 . S
C757 C758 1.398 . S
C758 H746 0.950 . S
C758 C757 1.398 . S
C758 C759 1.391 . S
C759 H747 0.950 . S
C759 C755 1.393 . S
C759 C758 1.391 . S
H760 C768 0.950 . S
H761 C773 0.950 . S
H762 C770 0.950 . S
H763 C772 0.950 . S
H764 C774 0.950 . S
H765 C776 0.950 . S
H766 C778 0.950 . S
H767 C779 0.950 . S
C768 H760 0.950 . S
C768 C769 1.386 . S
C768 C770 1.391 . S
C769 C768 1.386 . S
C769 C773 1.393 . S
C770 H762 0.950 . S
C770 C768 1.391 . S
C770 C771 1.400 . S
C771 C770 1.400 . S
C771 C772 1.398 . S
C771 C777 1.491 . S
C772 H763 0.950 . S
C772 C771 1.398 . S
C772 C773 1.391 . S
C773 H761 0.950 . S
C773 C769 1.393 . S
C773 C772 1.391 . S
C774 H764 0.950 . S
C774 C775 1.386 . S
C774 C776 1.391 . S
C775 C774 1.386 . S
C775 C779 1.393 . S
C776 H765 0.950 . S
C776 C774 1.391 . S
C776 C777 1.400 . S
C777 C771 1.491 . S
C777 C776 1.400 . S
C777 C778 1.398 . S
C778 H766 0.950 . S
C778 C777 1.398 . S
C778 C779 1.391 . S
C779 H767 0.950 . S
C779 C775 1.393 . S
C779 C778 1.391 . S
H780 C788 0.950 . S
H781 C793 0.950 . S
H782 C790 0.950 . S
H783 C792 0.950 . S
H784 C794 0.950 . S
H785 C796 0.950 . S
H786 C798 0.950 . S
H787 C799 0.950 . S
C788 H780 0.950 . S
C788 C789 1.386 . S
C788 C790 1.391 . S
C789 C788 1.386 . S
C789 C793 1.393 . S
C790 H782 0.950 . S
C790 C788 1.391 . S
C790 C791 1.400 . S
C791 C790 1.400 . S
C791 C792 1.398 . S
C791 C797 1.491 . S
C792 H783 0.950 . S
C792 C791 1.398 . S
C792 C793 1.391 . S
C793 H781 0.950 . S
C793 C789 1.393 . S
C793 C792 1.391 . S
C794 H784 0.950 . S
C794 C795 1.386 . S
C794 C796 1.391 . S
C795 C794 1.386 . S
C795 C799 1.393 . S
C796 H785 0.950 . S
C796 C794 1.391 . S
C796 C797 1.400 . S
C797 C791 1.491 . S
C797 C796 1.400 . S
C797 C798 1.398 . S
C798 H786 0.950 . S
C798 C797 1.398 . S
C798 C799 1.391 . S
C799 H787 0.950 . S
C799 C795 1.393 . S
C799 C798 1.391 . S
H800 C808 0.950 . S
H801 C813 0.950 . S
H802 C810 0.950 . S
H803 C812 0.950 . S
H804 C814 0.950 . S
H805 C816 0.950 . S
H806 C818 0.950 . S
H807 C819 0.950 . S
C808 H800 0.950 . S
C808 C809 1.386 . S
C808 C810 1.391 . S
C809 C808 1.386 . S
C809 C813 1.393 . S
C810 H802 0.950 . S
C810 C808 1.391 . S
C810 C811 1.400 . S
C811 C810 1.400 . S
C811 C812 1.398 . S
C811 C817 1.491 . S
C812 H803 0.950 . S
C812 C811 1.398 . S
C812 C813 1.391 . S
C813 H801 0.950 . S
C813 C809 1.393 . S
C813 C812 1.391 . S
C814 H804 0.950 . S
C814 C815 1.386 . S
C814 C816 1.391 . S
C815 C814 1.386 . S
C815 C819 1.393 . S
C816 H805 0.950 . S
C816 C814 1.391 . S
C816 C817 1.400 . S
C817 C811 1.491 . S
C817 C816 1.400 . S
C817 C818 1.398 . S
C818 H806 0.950 . S
C818 C817 1.398 . S
C818 C819 1.391 . S
C819 H807 0.950 . S
C819 C815 1.393 . S
C819 C818 1.391 . S
H820 C828 0.950 . S
H821 C833 0.950 . S
H822 C830 0.950 . S
H823 C832 0.950 . S
H824 C834 0.950 . S
H825 C836 0.950 . S
H826 C838 0.950 . S
H827 C839 0.950 . S
C828 H820 0.950 . S
C828 C829 1.386 . S
C828 C830 1.391 . S
C829 C828 1.386 . S
C829 C833 1.393 . S
C830 H822 0.950 . S
C830 C828 1.391 . S
C830 C831 1.400 . S
C831 C830 1.400 . S
C831 C832 1.398 . S
C831 C837 1.491 . S
C832 H823 0.950 . S
C832 C831 1.398 . S
C832 C833 1.391 . S
C833 H821 0.950 . S
C833 C829 1.393 . S
C833 C832 1.391 . S
C834 H824 0.950 . S
C834 C835 1.386 . S
C834 C836 1.391 . S
C835 C834 1.386 . S
C835 C839 1.393 . S
C836 H825 0.950 . S
C836 C834 1.391 . S
C836 C837 1.400 . S
C837 C831 1.491 . S
C837 C836 1.400 . S
C837 C838 1.398 . S
C838 H826 0.950 . S
C838 C837 1.398 . S
C838 C839 1.391 . S
C839 H827 0.950 . S
C839 C835 1.393 . S
C839 C838 1.391 . S
H840 C848 0.950 . S
H841 C853 0.950 . S
H842 C850 0.950 . S
H843 C852 0.950 . S
H844 C854 0.950 . S
H845 C856 0.950 . S
H846 C858 0.950 . S
H847 C859 0.950 . S
C848 H840 0.950 . S
C848 C849 1.386 . S
C848 C850 1.391 . S
C849 C848 1.386 . S
C849 C853 1.393 . S
C850 H842 0.950 . S
C850 C848 1.391 . S
C850 C851 1.400 . S
C851 C850 1.400 . S
C851 C852 1.398 . S
C851 C857 1.491 . S
C852 H843 0.950 . S
C852 C851 1.398 . S
C852 C853 1.391 . S
C853 H841 0.950 . S
C853 C849 1.393 . S
C853 C852 1.391 . S
C854 H844 0.950 . S
C854 C855 1.386 . S
C854 C856 1.391 . S
C855 C854 1.386 . S
C855 C859 1.393 . S
C856 H845 0.950 . S
C856 C854 1.391 . S
C856 C857 1.400 . S
C857 C851 1.491 . S
C857 C856 1.400 . S
C857 C858 1.398 . S
C858 H846 0.950 . S
C858 C857 1.398 . S
C858 C859 1.391 . S
C859 H847 0.950 . S
C859 C855 1.393 . S
C859 C858 1.391 . S
H860 C868 0.950 . S
H861 C873 0.950 . S
H862 C870 0.950 . S
H863 C872 0.950 . S
H864 C874 0.950 . S
H865 C876 0.950 . S
H866 C878 0.950 . S
H867 C879 0.950 . S
C868 H860 0.950 . S
C868 C869 1.386 . S
C868 C870 1.391 . S
C869 C868 1.386 . S
C869 C873 1.393 . S
C870 H862 0.950 . S
C870 C868 1.391 . S
C870 C871 1.400 . S
C871 C870 1.400 . S
C871 C872 1.398 . S
C871 C877 1.491 . S
C872 H863 0.950 . S
C872 C871 1.398 . S
C872 C873 1.391 . S
C873 H861 0.950 . S
C873 C869 1.393 . S
C873 C872 1.391 . S
C874 H864 0.950 . S
C874 C875 1.386 . S
C874 C876 1.391 . S
C875 C874 1.386 . S
C875 C879 1.393 . S
C876 H865 0.950 . S
C876 C874 1.391 . S
C876 C877 1.400 . S
C877 C871 1.491 . S
C877 C876 1.400 . S
C877 C878 1.398 . S
C878 H866 0.950 . S
C878 C877 1.398 . S
C878 C879 1.391 . S
C879 H867 0.950 . S
C879 C875 1.393 . S
C879 C878 1.391 . S
H880 C888 0.950 . S
H881 C893 0.950 . S
H882 C890 0.950 . S
H883 C892 0.950 . S
H884 C894 0.950 . S
H885 C896 0.950 . S
H886 C898 0.950 . S
H887 C899 0.950 . S
C888 H880 0.950 . S
C888 C889 1.386 . S
C888 C890 1.391 . S
C889 C888 1.386 . S
C889 C893 1.393 . S
C890 H882 0.950 . S
C890 C888 1.391 . S
C890 C891 1.400 . S
C891 C890 1.400 . S
C891 C892 1.398 . S
C891 C897 1.491 . S
C892 H883 0.950 . S
C892 C891 1.398 . S
C892 C893 1.391 . S
C893 H881 0.950 . S
C893 C889 1.393 . S
C893 C892 1.391 . S
C894 H884 0.950 . S
C894 C895 1.386 . S
C894 C896 1.391 . S
C895 C894 1.386 . S
C895 C899 1.393 . S
C896 H885 0.950 . S
C896 C894 1.391 . S
C896 C897 1.400 . S
C897 C891 1.491 . S
C897 C896 1.400 . S
C897 C898 1.398 . S
C898 H886 0.950 . S
C898 C897 1.398 . S
C898 C899 1.391 . S
C899 H887 0.950 . S
C899 C895 1.393 . S
C899 C898 1.391 . S
H900 C908 0.950 . S
H901 C913 0.950 . S
H902 C910 0.950 . S
H903 C912 0.950 . S
H904 C914 0.950 . S
H905 C916 0.950 . S
H906 C918 0.950 . S
H907 C919 0.950 . S
C908 H900 0.950 . S
C908 C909 1.386 . S
C908 C910 1.391 . S
C909 C908 1.386 . S
C909 C913 1.393 . S
C910 H902 0.950 . S
C910 C908 1.391 . S
C910 C911 1.400 . S
C911 C910 1.400 . S
C911 C912 1.398 . S
C911 C917 1.491 . S
C912 H903 0.950 . S
C912 C911 1.398 . S
C912 C913 1.391 . S
C913 H901 0.950 . S
C913 C909 1.393 . S
C913 C912 1.391 . S
C914 H904 0.950 . S
C914 C915 1.386 . S
C914 C916 1.391 . S
C915 C914 1.386 . S
C915 C919 1.393 . S
C916 H905 0.950 . S
C916 C914 1.391 . S
C916 C917 1.400 . S
C917 C911 1.491 . S
C917 C916 1.400 . S
C917 C918 1.398 . S
C918 H906 0.950 . S
C918 C917 1.398 . S
C918 C919 1.391 . S
C919 H907 0.950 . S
C919 C915 1.393 . S
C919 C918 1.391 . S
H920 C928 0.950 . S
H921 C933 0.950 . S
H922 C930 0.950 . S
H923 C932 0.950 . S
H924 C934 0.950 . S
H925 C936 0.950 . S
H926 C938 0.950 . S
H927 C939 0.950 . S
C928 H920 0.950 . S
C928 C929 1.386 . S
C928 C930 1.391 . S
C929 C928 1.386 . S
C929 C933 1.393 . S
C930 H922 0.950 . S
C930 C928 1.391 . S
C930 C931 1.400 . S
C931 C930 1.400 . S
C931 C932 1.398 . S
C931 C937 1.491 . S
C932 H923 0.950 . S
C932 C931 1.398 . S
C932 C933 1.391 . S
C933 H921 0.950 . S
C933 C929 1.393 . S
C933 C932 1.391 . S
C934 H924 0.950 . S
C934 C935 1.386 . S
C934 C936 1.391 . S
C935 C934 1.386 . S
C935 C939 1.393 . S
C936 H925 0.950 . S
C936 C934 1.391 . S
C936 C937 1.400 . S
C937 C931 1.491 . S
C937 C936 1.400 . S
C937 C938 1.398 . S
C938 H926 0.950 . S
C938 C937 1.398 . S
C938 C939 1.391 . S
C939 H927 0.950 . S
C939 C935 1.393 . S
C939 C938 1.391 . S
H940 C948 0.950 . S
H941 C953 0.950 . S
H942 C950 0.950 . S
H943 C952 0.950 . S
H944 C954 0.950 . S
H945 C956 0.950 . S
H946 C958 0.950 . S
H947 C959 0.950 . S
C948 H940 0.950 . S
C948 C949 1.386 . S
C948 C950 1.391 . S
C949 C948 1.386 . S
C949 C953 1.393 . S
C950 H942 0.950 . S
C950 C948 1.391 . S
C950 C951 1.400 . S
C951 C950 1.400 . S
C951 C952 1.398 . S
C951 C957 1.491 . S
C952 H943 0.950 . S
C952 C951 1.398 . S
C952 C953 1.391 . S
C953 H941 0.950 . S
C953 C949 1.393 . S
C953 C952 1.391 . S
C954 H944 0.950 . S
C954 C955 1.386 . S
C954 C956 1.391 . S
C955 C954 1.386 . S
C955 C959 1.393 . S
C956 H945 0.950 . S
C956 C954 1.391 . S
C956 C957 1.400 . S
C957 C951 1.491 . S
C957 C956 1.400 . S
C957 C958 1.398 . S
C958 H946 0.950 . S
C958 C957 1.398 . S
C958 C959 1.391 . S
C959 H947 0.950 . S
C959 C955 1.393 . S
C959 C958 1.391 . S
H960 C968 0.950 . S
H961 C973 0.950 . S
H962 C970 0.950 . S
H963 C972 0.950 . S
H964 C974 0.950 . S
H965 C976 0.950 . S
H966 C978 0.950 . S
H967 C979 0.950 . S
C968 H960 0.950 . S
C968 C969 1.386 1_545 S
C968 C970 1.391 . S
C969 C968 1.386 1_565 S
C969 C973 1.393 . S
C970 H962 0.950 . S
C970 C968 1.391 . S
C970 C971 1.400 1_545 S
C971 C970 1.400 1_565 S
C971 C972 1.398 . S
C971 C977 1.491 1_565 S
C972 H963 0.950 . S
C972 C971 1.398 . S
C972 C973 1.391 . S
C973 H961 0.950 . S
C973 C969 1.393 . S
C973 C972 1.391 . S
C974 H964 0.950 . S
C974 C975 1.386 1_565 S
C974 C976 1.391 . S
C975 C974 1.386 1_545 S
C975 C979 1.393 . S
C976 H965 0.950 . S
C976 C974 1.391 . S
C976 C977 1.400 1_565 S
C977 C971 1.491 1_545 S
C977 C976 1.400 1_545 S
C977 C978 1.398 . S
C978 H966 0.950 . S
C978 C977 1.398 . S
C978 C979 1.391 . S
C979 H967 0.950 . S
C979 C975 1.393 . S
C979 C978 1.391 . S
H980 C988 0.950 . S
H981 C993 0.950 . S
H982 C990 0.950 . S
H983 C992 0.950 . S
H984 C994 0.950 . S
H985 C996 0.950 . S
H986 C998 0.950 . S
H987 C999 0.950 . S
C988 H980 0.950 . S
C988 C989 1.386 . S
C988 C990 1.391 . S
C989 C988 1.386 . S
C989 C993 1.393 . S
C990 H982 0.950 . S
C990 C988 1.391 . S
C990 C991 1.400 . S
C991 C990 1.400 . S
C991 C992 1.398 . S
C991 C997 1.491 1_455 S
C992 H983 0.950 . S
C992 C991 1.398 . S
C992 C993 1.391 . S
C993 H981 0.950 . S
C993 C989 1.393 . S
C993 C992 1.391 . S
C994 H984 0.950 . S
C994 C995 1.386 . S
C994 C996 1.391 . S
C995 C994 1.386 . S
C995 C999 1.393 . S
C996 H985 0.950 . S
C996 C994 1.391 . S
C996 C997 1.400 . S
C997 C991 1.491 1_655 S
C997 C996 1.400 . S
C997 C998 1.398 . S
C998 H986 0.950 . S
C998 C997 1.398 . S
C998 C999 1.391 . S
C999 H987 0.950 . S
C999 C995 1.393 . S
C999 C998 1.391 . S
H1000 C1008 0.950 . S
H1001 C1013 0.950 . S
H1002 C1010 0.950 1_554 S
H1003 C1012 0.950 . S
H1004 C1014 0.950 . S
H1005 C1016 0.950 1_556 S
H1006 C1018 0.950 . S
H1007 C1019 0.950 . S
C1008 H1000 0.950 . S
C1008 C1009 1.386 . S
C1008 C1010 1.391 . S
C1009 C1008 1.386 . S
C1009 C1013 1.393 . S
C1010 H1002 0.950 1_556 S
C1010 C1008 1.391 . S
C1010 C1011 1.400 . S
C1011 C1010 1.400 . S
C1011 C1012 1.398 . S
C1011 C1017 1.491 1_556 S
C1012 H1003 0.950 . S
C1012 C1011 1.398 . S
C1012 C1013 1.391 . S
C1013 H1001 0.950 . S
C1013 C1009 1.393 . S
C1013 C1012 1.391 . S
C1014 H1004 0.950 . S
C1014 C1015 1.386 . S
C1014 C1016 1.391 . S
C1015 C1014 1.386 . S
C1015 C1019 1.393 . S
C1016 H1005 0.950 1_554 S
C1016 C1014 1.391 . S
C1016 C1017 1.400 . S
C1017 C1011 1.491 1_554 S
C1017 C1016 1.400 . S
C1017 C1018 1.398 . S
C1018 H1006 0.950 . S
C1018 C1017 1.398 . S
C1018 C1019 1.391 . S
C1019 H1007 0.950 . S
C1019 C1015 1.393 . S
C1019 C1018 1.391 . S
H1020 C1028 0.950 . S
H1021 C1033 0.950 . S
H1022 C1030 0.950 . S
H1023 C1032 0.950 . S
H1024 C1034 0.950 . S
H1025 C1036 0.950 . S
H1026 C1038 0.950 . S
H1027 C1039 0.950 . S
C1028 H1020 0.950 . S
C1028 C1029 1.386 1_545 S
C1028 C1030 1.391 . S
C1029 C1028 1.386 1_565 S
C1029 C1033 1.393 . S
C1030 H1022 0.950 . S
C1030 C1028 1.391 . S
C1030 C1031 1.398 1_545 S
C1031 C1030 1.398 1_565 S
C1031 C1032 1.401 1_655 S
C1031 C1037 1.491 1_664 S
C1032 H1023 0.950 . S
C1032 C1031 1.401 1_455 S
C1032 C1033 1.391 1_455 S
C1033 H1021 0.950 . S
C1033 C1029 1.393 . S
C1033 C1032 1.391 1_655 S
C1034 H1024 0.950 . S
C1034 C1035 1.386 1_565 S
C1034 C1036 1.391 . S
C1035 C1034 1.386 1_545 S
C1035 C1039 1.393 . S
C1036 H1025 0.950 . S
C1036 C1034 1.391 . S
C1036 C1037 1.398 1_565 S
C1037 C1031 1.491 1_446 S
C1037 C1036 1.398 1_545 S
C1037 C1038 1.401 1_455 S
C1038 H1026 0.950 . S
C1038 C1037 1.401 1_655 S
C1038 C1039 1.391 1_655 S
C1039 H1027 0.950 . S
C1039 C1035 1.393 . S
C1039 C1038 1.391 1_455 S
H1040 C1048 0.950 . S
H1041 C1053 0.950 . S
H1042 C1050 0.950 . S
H1043 C1052 0.950 . S
H1044 C1054 0.950 . S
H1045 C1056 0.950 . S
H1046 C1058 0.950 . S
H1047 C1059 0.950 . S
C1048 H1040 0.950 . S
C1048 C1049 1.386 . S
C1048 C1050 1.391 . S
C1049 C1048 1.386 . S
C1049 C1053 1.393 1_545 S
C1050 H1042 0.950 . S
C1050 C1048 1.391 . S
C1050 C1051 1.399 . S
C1051 C1050 1.399 . S
C1051 C1052 1.400 1_545 S
C1051 C1057 1.491 1_545 S
C1052 H1043 0.950 . S
C1052 C1051 1.400 1_565 S
C1052 C1053 1.391 . S
C1053 H1041 0.950 . S
C1053 C1049 1.393 1_565 S
C1053 C1052 1.391 . S
C1054 H1044 0.950 . S
C1054 C1055 1.386 . S
C1054 C1056 1.391 . S
C1055 C1054 1.386 . S
C1055 C1059 1.393 1_565 S
C1056 H1045 0.950 . S
C1056 C1054 1.391 . S
C1056 C1057 1.399 . S
C1057 C1051 1.491 1_565 S
C1057 C1056 1.399 . S
C1057 C1058 1.400 1_565 S
C1058 H1046 0.950 . S
C1058 C1057 1.400 1_545 S
C1058 C1059 1.391 . S
C1059 H1047 0.950 . S
C1059 C1055 1.393 1_545 S
C1059 C1058 1.391 . S
H1060 C1068 0.950 . S
H1061 C1073 0.950 . S
H1062 C1070 0.950 1_655 S
H1063 C1072 0.950 . S
H1064 C1074 0.950 . S
H1065 C1076 0.950 1_455 S
H1066 C1078 0.950 . S
H1067 C1079 0.950 . S
C1068 H1060 0.950 . S
C1068 C1069 1.386 . S
C1068 C1070 1.391 . S
C1069 C1068 1.386 . S
C1069 C1073 1.393 . S
C1070 H1062 0.950 1_455 S
C1070 C1068 1.391 . S
C1070 C1071 1.400 . S
C1071 C1070 1.400 . S
C1071 C1072 1.398 . S
C1071 C1077 1.491 1_455 S
C1072 H1063 0.950 . S
C1072 C1071 1.398 . S
C1072 C1073 1.391 . S
C1073 H1061 0.950 . S
C1073 C1069 1.393 . S
C1073 C1072 1.391 . S
C1074 H1064 0.950 . S
C1074 C1075 1.386 . S
C1074 C1076 1.391 . S
C1075 C1074 1.386 . S
C1075 C1079 1.393 . S
C1076 H1065 0.950 1_655 S
C1076 C1074 1.391 . S
C1076 C1077 1.400 . S
C1077 C1071 1.491 1_655 S
C1077 C1076 1.400 . S
C1077 C1078 1.398 . S
C1078 H1066 0.950 . S
C1078 C1077 1.398 . S
C1078 C1079 1.391 . S
C1079 H1067 0.950 . S
C1079 C1075 1.393 . S
C1079 C1078 1.391 . S
H1080 C1088 0.950 . S
H1081 C1093 0.950 . S
H1082 C1090 0.950 . S
H1083 C1092 0.950 . S
H1084 C1094 0.950 . S
H1085 C1096 0.950 . S
H1086 C1098 0.950 . S
H1087 C1099 0.950 . S
C1088 H1080 0.950 . S
C1088 C1089 1.386 . S
C1088 C1090 1.391 . S
C1089 C1088 1.386 . S
C1089 C1093 1.393 . S
C1090 H1082 0.950 . S
C1090 C1088 1.391 . S
C1090 C1091 1.400 . S
C1091 C1090 1.400 . S
C1091 C1092 1.398 . S
C1091 C1097 1.491 1_556 S
C1092 H1083 0.950 . S
C1092 C1091 1.398 . S
C1092 C1093 1.391 . S
C1093 H1081 0.950 . S
C1093 C1089 1.393 . S
C1093 C1092 1.391 . S
C1094 H1084 0.950 . S
C1094 C1095 1.386 . S
C1094 C1096 1.391 . S
C1095 C1094 1.386 . S
C1095 C1099 1.393 . S
C1096 H1085 0.950 . S
C1096 C1094 1.391 . S
C1096 C1097 1.400 . S
C1097 C1091 1.491 1_554 S
C1097 C1096 1.400 . S
C1097 C1098 1.398 . S
C1098 H1086 0.950 . S
C1098 C1097 1.398 . S
C1098 C1099 1.391 . S
C1099 H1087 0.950 . S
C1099 C1095 1.393 . S
C1099 C1098 1.391 . S
H1100 C1108 0.950 . S
H1101 C1113 0.950 . S
H1102 C1110 0.950 . S
H1103 C1112 0.950 . S
H1104 C1114 0.950 . S
H1105 C1116 0.950 . S
H1106 C1118 0.950 . S
H1107 C1119 0.950 . S
C1108 H1100 0.950 . S
C1108 C1109 1.386 . S
C1108 C1110 1.391 . S
C1109 C1108 1.386 . S
C1109 C1113 1.393 . S
C1110 H1102 0.950 . S
C1110 C1108 1.391 . S
C1110 C1111 1.400 . S
C1111 C1110 1.400 . S
C1111 C1112 1.398 . S
C1111 C1117 1.491 . S
C1112 H1103 0.950 . S
C1112 C1111 1.398 . S
C1112 C1113 1.391 . S
C1113 H1101 0.950 . S
C1113 C1109 1.393 . S
C1113 C1112 1.391 . S
C1114 H1104 0.950 . S
C1114 C1115 1.386 . S
C1114 C1116 1.391 . S
C1115 C1114 1.386 . S
C1115 C1119 1.393 . S
C1116 H1105 0.950 . S
C1116 C1114 1.391 . S
C1116 C1117 1.400 . S
C1117 C1111 1.491 . S
C1117 C1116 1.400 . S
C1117 C1118 1.398 . S
C1118 H1106 0.950 . S
C1118 C1117 1.398 . S
C1118 C1119 1.391 . S
C1119 H1107 0.950 . S
C1119 C1115 1.393 . S
C1119 C1118 1.391 . S
H1120 C1128 0.950 . S
H1121 C1133 0.950 . S
H1122 C1130 0.950 . S
H1123 C1132 0.950 . S
H1124 C1134 0.950 . S
H1125 C1136 0.950 . S
H1126 C1138 0.950 . S
H1127 C1139 0.950 . S
C1128 H1120 0.950 . S
C1128 C1129 1.386 . S
C1128 C1130 1.391 . S
C1129 C1128 1.386 . S
C1129 C1133 1.393 . S
C1130 H1122 0.950 . S
C1130 C1128 1.391 . S
C1130 C1131 1.400 . S
C1131 C1130 1.400 . S
C1131 C1132 1.398 . S
C1131 C1137 1.491 . S
C1132 H1123 0.950 . S
C1132 C1131 1.398 . S
C1132 C1133 1.391 . S
C1133 H1121 0.950 . S
C1133 C1129 1.393 . S
C1133 C1132 1.391 . S
C1134 H1124 0.950 . S
C1134 C1135 1.386 . S
C1134 C1136 1.391 . S
C1135 C1134 1.386 . S
C1135 C1139 1.393 . S
C1136 H1125 0.950 . S
C1136 C1134 1.391 . S
C1136 C1137 1.400 . S
C1137 C1131 1.491 . S
C1137 C1136 1.400 . S
C1137 C1138 1.398 . S
C1138 H1126 0.950 . S
C1138 C1137 1.398 . S
C1138 C1139 1.391 . S
C1139 H1127 0.950 . S
C1139 C1135 1.393 . S
C1139 C1138 1.391 . S
H1140 C1148 0.950 . S
H1141 C1153 0.950 . S
H1142 C1150 0.950 . S
H1143 C1152 0.950 . S
H1144 C1154 0.950 . S
H1145 C1156 0.950 . S
H1146 C1158 0.950 . S
H1147 C1159 0.950 . S
C1148 H1140 0.950 . S
C1148 C1149 1.386 . S
C1148 C1150 1.391 . S
C1149 C1148 1.386 . S
C1149 C1153 1.393 . S
C1150 H1142 0.950 . S
C1150 C1148 1.391 . S
C1150 C1151 1.400 . S
C1151 C1150 1.400 . S
C1151 C1152 1.398 1_455 S
C1151 C1157 1.491 1_455 S
C1152 H1143 0.950 . S
C1152 C1151 1.398 1_655 S
C1152 C1153 1.391 1_655 S
C1153 H1141 0.950 . S
C1153 C1149 1.393 . S
C1153 C1152 1.391 1_455 S
C1154 H1144 0.950 . S
C1154 C1155 1.386 . S
C1154 C1156 1.391 . S
C1155 C1154 1.386 . S
C1155 C1159 1.393 . S
C1156 H1145 0.950 . S
C1156 C1154 1.391 . S
C1156 C1157 1.400 . S
C1157 C1151 1.491 1_655 S
C1157 C1156 1.400 . S
C1157 C1158 1.398 1_655 S
C1158 H1146 0.950 . S
C1158 C1157 1.398 1_455 S
C1158 C1159 1.391 1_455 S
C1159 H1147 0.950 . S
C1159 C1155 1.393 . S
C1159 C1158 1.391 1_655 S
H1160 C1168 0.950 . S
H1161 C1173 0.950 . S
H1162 C1170 0.950 . S
H1163 C1172 0.950 . S
H1164 C1174 0.950 . S
H1165 C1176 0.950 . S
H1166 C1178 0.950 . S
H1167 C1179 0.950 . S
C1168 H1160 0.950 . S
C1168 C1169 1.386 . S
C1168 C1170 1.391 . S
C1169 C1168 1.386 . S
C1169 C1173 1.393 . S
C1170 H1162 0.950 . S
C1170 C1168 1.391 . S
C1170 C1171 1.400 . S
C1171 C1170 1.400 . S
C1171 C1172 1.398 . S
C1171 C1177 1.491 . S
C1172 H1163 0.950 . S
C1172 C1171 1.398 . S
C1172 C1173 1.391 . S
C1173 H1161 0.950 . S
C1173 C1169 1.393 . S
C1173 C1172 1.391 . S
C1174 H1164 0.950 . S
C1174 C1175 1.386 . S
C1174 C1176 1.391 . S
C1175 C1174 1.386 . S
C1175 C1179 1.393 . S
C1176 H1165 0.950 . S
C1176 C1174 1.391 . S
C1176 C1177 1.400 . S
C1177 C1171 1.491 . S
C1177 C1176 1.400 . S
C1177 C1178 1.398 . S
C1178 H1166 0.950 . S
C1178 C1177 1.398 . S
C1178 C1179 1.391 . S
C1179 H1167 0.950 . S
C1179 C1175 1.393 . S
C1179 C1178 1.391 . S
H1180 C1188 0.950 . S
H1181 C1193 0.950 . S
H1182 C1190 0.950 . S
H1183 C1192 0.950 . S
H1184 C1194 0.950 . S
H1185 C1196 0.950 . S
H1186 C1198 0.950 . S
H1187 C1199 0.950 . S
C1188 H1180 0.950 . S
C1188 C1189 1.386 . S
C1188 C1190 1.391 . S
C1189 C1188 1.386 . S
C1189 C1193 1.393 . S
C1190 H1182 0.950 . S
C1190 C1188 1.391 . S
C1190 C1191 1.400 . S
C1191 C1190 1.400 . S
C1191 C1192 1.398 . S
C1191 C1197 1.491 . S
C1192 H1183 0.950 . S
C1192 C1191 1.398 . S
C1192 C1193 1.391 . S
C1193 H1181 0.950 . S
C1193 C1189 1.393 . S
C1193 C1192 1.391 . S
C1194 H1184 0.950 . S
C1194 C1195 1.386 . S
C1194 C1196 1.391 . S
C1195 C1194 1.386 . S
C1195 C1199 1.393 . S
C1196 H1185 0.950 . S
C1196 C1194 1.391 . S
C1196 C1197 1.400 . S
C1197 C1191 1.491 . S
C1197 C1196 1.400 . S
C1197 C1198 1.398 . S
C1198 H1186 0.950 . S
C1198 C1197 1.398 . S
C1198 C1199 1.391 . S
C1199 H1187 0.950 . S
C1199 C1195 1.393 . S
C1199 C1198 1.391 . S
H1200 C1208 0.950 . S
H1201 C1213 0.950 . S
H1202 C1210 0.950 . S
H1203 C1212 0.950 . S
H1204 C1214 0.950 . S
H1205 C1216 0.950 . S
H1206 C1218 0.950 . S
H1207 C1219 0.950 . S
C1208 H1200 0.950 . S
C1208 C1209 1.386 . S
C1208 C1210 1.391 . S
C1209 C1208 1.386 . S
C1209 C1213 1.393 . S
C1210 H1202 0.950 . S
C1210 C1208 1.391 . S
C1210 C1211 1.400 . S
C1211 C1210 1.400 . S
C1211 C1212 1.398 . S
C1211 C1217 1.491 . S
C1212 H1203 0.950 . S
C1212 C1211 1.398 . S
C1212 C1213 1.391 . S
C1213 H1201 0.950 . S
C1213 C1209 1.393 . S
C1213 C1212 1.391 . S
C1214 H1204 0.950 . S
C1214 C1215 1.386 . S
C1214 C1216 1.391 . S
C1215 C1214 1.386 . S
C1215 C1219 1.393 . S
C1216 H1205 0.950 . S
C1216 C1214 1.391 . S
C1216 C1217 1.400 . S
C1217 C1211 1.491 . S
C1217 C1216 1.400 . S
C1217 C1218 1.398 . S
C1218 H1206 0.950 . S
C1218 C1217 1.398 . S
C1218 C1219 1.391 . S
C1219 H1207 0.950 . S
C1219 C1215 1.393 . S
C1219 C1218 1.391 . S
H1220 C1228 0.950 . S
H1221 C1233 0.950 . S
H1222 C1230 0.950 . S
H1223 C1232 0.950 . S
H1224 C1234 0.950 . S
H1225 C1236 0.950 . S
H1226 C1238 0.950 . S
H1227 C1239 0.950 . S
C1228 H1220 0.950 . S
C1228 C1229 1.386 1_545 S
C1228 C1230 1.391 . S
C1229 C1228 1.386 1_565 S
C1229 C1233 1.393 . S
C1230 H1222 0.950 . S
C1230 C1228 1.391 . S
C1230 C1231 1.378 1_545 S
C1231 C1230 1.378 1_565 S
C1231 C1232 1.422 . S
C1231 C1237 1.489 1_565 S
C1232 H1223 0.950 . S
C1232 C1231 1.422 . S
C1232 C1233 1.391 . S
C1233 H1221 0.950 . S
C1233 C1229 1.393 . S
C1233 C1232 1.391 . S
C1234 H1224 0.950 . S
C1234 C1235 1.386 1_565 S
C1234 C1236 1.391 . S
C1235 C1234 1.386 1_545 S
C1235 C1239 1.393 . S
C1236 H1225 0.950 . S
C1236 C1234 1.391 . S
C1236 C1237 1.378 1_565 S
C1237 C1231 1.489 1_545 S
C1237 C1236 1.378 1_545 S
C1237 C1238 1.422 . S
C1238 H1226 0.950 . S
C1238 C1237 1.422 . S
C1238 C1239 1.391 . S
C1239 H1227 0.950 . S
C1239 C1235 1.393 . S
C1239 C1238 1.391 . S
H1240 C1248 0.950 . S
H1241 C1253 0.950 . S
H1242 C1250 0.950 . S
H1243 C1252 0.950 . S
H1244 C1254 0.950 . S
H1245 C1256 0.950 . S
H1246 C1258 0.950 . S
H1247 C1259 0.950 . S
C1248 H1240 0.950 . S
C1248 C1249 1.386 . S
C1248 C1250 1.391 . S
C1249 C1248 1.386 . S
C1249 C1253 1.393 . S
C1250 H1242 0.950 . S
C1250 C1248 1.391 . S
C1250 C1251 1.400 . S
C1251 C1250 1.400 . S
C1251 C1252 1.398 . S
C1251 C1257 1.491 . S
C1252 H1243 0.950 . S
C1252 C1251 1.398 . S
C1252 C1253 1.391 . S
C1253 H1241 0.950 . S
C1253 C1249 1.393 . S
C1253 C1252 1.391 . S
C1254 H1244 0.950 . S
C1254 C1255 1.386 . S
C1254 C1256 1.391 . S
C1255 C1254 1.386 . S
C1255 C1259 1.393 . S
C1256 H1245 0.950 . S
C1256 C1254 1.391 . S
C1256 C1257 1.400 . S
C1257 C1251 1.491 . S
C1257 C1256 1.400 . S
C1257 C1258 1.398 . S
C1258 H1246 0.950 . S
C1258 C1257 1.398 . S
C1258 C1259 1.391 . S
C1259 H1247 0.950 . S
C1259 C1255 1.393 . S
C1259 C1258 1.391 . S
H1260 C1268 0.950 . S
H1261 C1273 0.950 . S
H1262 C1270 0.935 1_556 S
H1263 C1272 0.950 . S
H1264 C1274 0.950 . S
H1265 C1276 0.935 1_554 S
H1266 C1278 0.950 . S
H1267 C1279 0.950 . S
C1268 H1260 0.950 . S
C1268 C1269 1.386 . S
C1268 C1270 1.391 . S
C1269 C1268 1.386 . S
C1269 C1273 1.393 . S
C1270 H1262 0.935 1_554 S
C1270 C1268 1.391 . S
C1270 C1271 1.400 . S
C1271 C1270 1.400 . S
C1271 C1272 1.398 . S
C1271 C1277 1.491 1_554 S
C1272 H1263 0.950 . S
C1272 C1271 1.398 . S
C1272 C1273 1.391 . S
C1273 H1261 0.950 . S
C1273 C1269 1.393 . S
C1273 C1272 1.391 . S
C1274 H1264 0.950 . S
C1274 C1275 1.386 . S
C1274 C1276 1.391 . S
C1275 C1274 1.386 . S
C1275 C1279 1.393 . S
C1276 H1265 0.935 1_556 S
C1276 C1274 1.391 . S
C1276 C1277 1.400 . S
C1277 C1271 1.491 1_556 S
C1277 C1276 1.400 . S
C1277 C1278 1.398 . S
C1278 H1266 0.950 . S
C1278 C1277 1.398 . S
C1278 C1279 1.391 . S
C1279 H1267 0.950 . S
C1279 C1275 1.393 . S
C1279 C1278 1.391 . S
H1280 C1288 0.950 . S
H1281 C1293 0.950 . S
H1282 C1290 0.950 . S
H1283 C1292 0.950 . S
H1284 C1294 0.950 . S
H1285 C1296 0.950 . S
H1286 C1298 0.950 . S
H1287 C1299 0.950 . S
C1288 H1280 0.950 . S
C1288 C1289 1.386 1_565 S
C1288 C1290 1.391 . S
C1289 C1288 1.386 1_545 S
C1289 C1293 1.393 . S
C1290 H1282 0.950 . S
C1290 C1288 1.391 . S
C1290 C1291 1.400 1_565 S
C1291 C1290 1.400 1_545 S
C1291 C1292 1.398 . S
C1291 C1297 1.491 . S
C1292 H1283 0.950 . S
C1292 C1291 1.398 . S
C1292 C1293 1.391 . S
C1293 H1281 0.950 . S
C1293 C1289 1.393 . S
C1293 C1292 1.391 . S
C1294 H1284 0.950 . S
C1294 C1295 1.386 . S
C1294 C1296 1.391 . S
C1295 C1294 1.386 . S
C1295 C1299 1.393 1_545 S
C1296 H1285 0.950 . S
C1296 C1294 1.391 . S
C1296 C1297 1.400 . S
C1297 C1291 1.491 . S
C1297 C1296 1.400 . S
C1297 C1298 1.398 1_545 S
C1298 H1286 0.950 . S
C1298 C1297 1.398 1_565 S
C1298 C1299 1.391 . S
C1299 H1287 0.950 . S
C1299 C1295 1.393 1_565 S
C1299 C1298 1.391 . S
H1300 C1308 0.950 . S
H1301 C1313 0.950 . S
H1302 C1310 0.950 . S
H1303 C1312 0.950 . S
H1304 C1314 0.950 . S
H1305 C1316 0.950 . S
H1306 C1318 0.950 . S
H1307 C1319 0.950 . S
C1308 H1300 0.950 . S
C1308 C1309 1.386 . S
C1308 C1310 1.391 . S
C1309 C1308 1.386 . S
C1309 C1313 1.393 . S
C1310 H1302 0.950 . S
C1310 C1308 1.391 . S
C1310 C1311 1.400 . S
C1311 C1310 1.400 . S
C1311 C1312 1.398 . S
C1311 C1317 1.491 . S
C1312 H1303 0.950 . S
C1312 C1311 1.398 . S
C1312 C1313 1.391 . S
C1313 H1301 0.950 . S
C1313 C1309 1.393 . S
C1313 C1312 1.391 . S
C1314 H1304 0.950 . S
C1314 C1315 1.386 . S
C1314 C1316 1.391 . S
C1315 C1314 1.386 . S
C1315 C1319 1.393 . S
C1316 H1305 0.950 . S
C1316 C1314 1.391 . S
C1316 C1317 1.400 . S
C1317 C1311 1.491 . S
C1317 C1316 1.400 . S
C1317 C1318 1.398 . S
C1318 H1306 0.950 . S
C1318 C1317 1.398 . S
C1318 C1319 1.391 . S
C1319 H1307 0.950 . S
C1319 C1315 1.393 . S
C1319 C1318 1.391 . S
H1320 C1328 0.950 . S
H1321 C1333 0.950 . S
H1322 C1330 0.950 . S
H1323 C1332 0.950 . S
H1324 C1334 0.950 . S
H1325 C1336 0.950 . S
H1326 C1338 0.950 . S
H1327 C1339 0.950 . S
C1328 H1320 0.950 . S
C1328 C1329 1.386 . S
C1328 C1330 1.391 . S
C1329 C1328 1.386 . S
C1329 C1333 1.393 . S
C1330 H1322 0.950 . S
C1330 C1328 1.391 . S
C1330 C1331 1.400 . S
C1331 C1330 1.400 . S
C1331 C1332 1.398 . S
C1331 C1337 1.491 . S
C1332 H1323 0.950 . S
C1332 C1331 1.398 . S
C1332 C1333 1.391 . S
C1333 H1321 0.950 . S
C1333 C1329 1.393 . S
C1333 C1332 1.391 . S
C1334 H1324 0.950 . S
C1334 C1335 1.386 . S
C1334 C1336 1.391 . S
C1335 C1334 1.386 . S
C1335 C1339 1.393 . S
C1336 H1325 0.950 . S
C1336 C1334 1.391 . S
C1336 C1337 1.400 . S
C1337 C1331 1.491 . S
C1337 C1336 1.400 . S
C1337 C1338 1.398 . S
C1338 H1326 0.950 . S
C1338 C1337 1.398 . S
C1338 C1339 1.391 . S
C1339 H1327 0.950 . S
C1339 C1335 1.393 . S
C1339 C1338 1.391 . S
H1340 C1348 0.950 . S
H1341 C1353 0.950 . S
H1342 C1350 0.950 . S
H1343 C1352 0.950 . S
H1344 C1354 0.950 . S
H1345 C1356 0.950 . S
H1346 C1358 0.950 . S
H1347 C1359 0.950 . S
C1348 H1340 0.950 . S
C1348 C1349 1.386 . S
C1348 C1350 1.391 . S
C1349 C1348 1.386 . S
C1349 C1353 1.393 . S
C1350 H1342 0.950 . S
C1350 C1348 1.391 . S
C1350 C1351 1.400 . S
C1351 C1350 1.400 . S
C1351 C1352 1.398 . S
C1351 C1357 1.491 . S
C1352 H1343 0.950 . S
C1352 C1351 1.398 . S
C1352 C1353 1.391 . S
C1353 H1341 0.950 . S
C1353 C1349 1.393 . S
C1353 C1352 1.391 . S
C1354 H1344 0.950 . S
C1354 C1355 1.386 . S
C1354 C1356 1.391 . S
C1355 C1354 1.386 . S
C1355 C1359 1.393 . S
C1356 H1345 0.950 . S
C1356 C1354 1.391 . S
C1356 C1357 1.400 . S
C1357 C1351 1.491 . S
C1357 C1356 1.400 . S
C1357 C1358 1.398 . S
C1358 H1346 0.950 . S
C1358 C1357 1.398 . S
C1358 C1359 1.391 . S
C1359 H1347 0.950 . S
C1359 C1355 1.393 . S
C1359 C1358 1.391 . S
H1360 C1368 0.950 . S
H1361 C1373 0.950 . S
H1362 C1370 0.950 . S
H1363 C1372 0.950 . S
H1364 C1374 0.948 1_545 S
H1365 C1376 0.950 . S
H1366 C1378 0.950 . S
H1367 C1379 0.950 . S
C1368 H1360 0.950 . S
C1368 C1369 1.386 . S
C1368 C1370 1.391 . S
C1369 C1368 1.386 . S
C1369 C1373 1.393 1_565 S
C1370 H1362 0.950 . S
C1370 C1368 1.391 . S
C1370 C1371 1.400 . S
C1371 C1370 1.400 . S
C1371 C1372 1.398 1_565 S
C1371 C1377 1.491 . S
C1372 H1363 0.950 . S
C1372 C1371 1.398 1_545 S
C1372 C1373 1.391 . S
C1373 H1361 0.950 . S
C1373 C1369 1.393 1_545 S
C1373 C1372 1.391 . S
C1374 H1364 0.948 1_565 S
C1374 C1375 1.388 . S
C1374 C1376 1.391 1_565 S
C1375 C1374 1.388 . S
C1375 C1379 1.393 . S
C1376 H1365 0.950 . S
C1376 C1374 1.391 1_545 S
C1376 C1377 1.400 1_545 S
C1377 C1371 1.491 . S
C1377 C1376 1.400 1_565 S
C1377 C1378 1.398 . S
C1378 H1366 0.950 . S
C1378 C1377 1.398 . S
C1378 C1379 1.391 . S
C1379 H1367 0.950 . S
C1379 C1375 1.393 . S
C1379 C1378 1.391 . S
H1380 C1388 0.950 . S
H1381 C1393 0.950 . S
H1382 C1390 0.950 . S
H1383 C1392 0.950 . S
H1384 C1394 0.950 . S
H1385 C1396 0.950 . S
H1386 C1398 0.950 . S
H1387 C1399 0.950 . S
C1388 H1380 0.950 . S
C1388 C1389 1.386 . S
C1388 C1390 1.391 . S
C1389 C1388 1.386 . S
C1389 C1393 1.393 . S
C1390 H1382 0.950 . S
C1390 C1388 1.391 . S
C1390 C1391 1.400 . S
C1391 C1390 1.400 . S
C1391 C1392 1.398 . S
C1391 C1397 1.491 . S
C1392 H1383 0.950 . S
C1392 C1391 1.398 . S
C1392 C1393 1.391 . S
C1393 H1381 0.950 . S
C1393 C1389 1.393 . S
C1393 C1392 1.391 . S
C1394 H1384 0.950 . S
C1394 C1395 1.386 . S
C1394 C1396 1.391 . S
C1395 C1394 1.386 . S
C1395 C1399 1.393 . S
C1396 H1385 0.950 . S
C1396 C1394 1.391 . S
C1396 C1397 1.400 . S
C1397 C1391 1.491 . S
C1397 C1396 1.400 . S
C1397 C1398 1.398 . S
C1398 H1386 0.950 . S
C1398 C1397 1.398 . S
C1398 C1399 1.391 . S
C1399 H1387 0.950 . S
C1399 C1395 1.393 . S
C1399 C1398 1.391 . S
H1400 C1408 0.950 . S
H1401 C1413 0.950 . S
H1402 C1410 0.950 . S
H1403 C1412 0.950 . S
H1404 C1414 0.950 . S
H1405 C1416 0.950 . S
H1406 C1418 0.950 . S
H1407 C1419 0.950 . S
C1408 H1400 0.950 . S
C1408 C1409 1.386 . S
C1408 C1410 1.391 . S
C1409 C1408 1.386 . S
C1409 C1413 1.393 . S
C1410 H1402 0.950 . S
C1410 C1408 1.391 . S
C1410 C1411 1.400 . S
C1411 C1410 1.400 . S
C1411 C1412 1.398 . S
C1411 C1417 1.491 . S
C1412 H1403 0.950 . S
C1412 C1411 1.398 . S
C1412 C1413 1.391 . S
C1413 H1401 0.950 . S
C1413 C1409 1.393 . S
C1413 C1412 1.391 . S
C1414 H1404 0.950 . S
C1414 C1415 1.386 . S
C1414 C1416 1.391 . S
C1415 C1414 1.386 . S
C1415 C1419 1.393 . S
C1416 H1405 0.950 . S
C1416 C1414 1.391 . S
C1416 C1417 1.400 . S
C1417 C1411 1.491 . S
C1417 C1416 1.400 . S
C1417 C1418 1.398 . S
C1418 H1406 0.950 . S
C1418 C1417 1.398 . S
C1418 C1419 1.391 . S
C1419 H1407 0.950 . S
C1419 C1415 1.393 . S
C1419 C1418 1.391 . S
H1420 C1428 0.950 . S
H1421 C1433 0.950 . S
H1422 C1430 0.950 . S
H1423 C1432 0.950 . S
H1424 C1434 0.950 . S
H1425 C1436 0.950 . S
H1426 C1438 0.950 . S
H1427 C1439 0.950 . S
C1428 H1420 0.950 . S
C1428 C1429 1.386 1_545 S
C1428 C1430 1.391 . S
C1429 C1428 1.386 1_565 S
C1429 C1433 1.393 . S
C1430 H1422 0.950 . S
C1430 C1428 1.391 . S
C1430 C1431 1.400 1_545 S
C1431 C1430 1.400 1_565 S
C1431 C1432 1.398 . S
C1431 C1437 1.491 . S
C1432 H1423 0.950 . S
C1432 C1431 1.398 . S
C1432 C1433 1.391 . S
C1433 H1421 0.950 . S
C1433 C1429 1.393 . S
C1433 C1432 1.391 . S
C1434 H1424 0.950 . S
C1434 C1435 1.386 . S
C1434 C1436 1.391 . S
C1435 C1434 1.386 . S
C1435 C1439 1.393 1_565 S
C1436 H1425 0.950 . S
C1436 C1434 1.391 . S
C1436 C1437 1.400 . S
C1437 C1431 1.491 . S
C1437 C1436 1.400 . S
C1437 C1438 1.398 1_565 S
C1438 H1426 0.950 . S
C1438 C1437 1.398 1_545 S
C1438 C1439 1.391 . S
C1439 H1427 0.950 . S
C1439 C1435 1.393 1_545 S
C1439 C1438 1.391 . S
H1440 C1448 0.950 . S
H1441 C1453 0.950 . S
H1442 C1450 0.950 . S
H1443 C1452 0.950 . S
H1444 C1454 0.950 . S
H1445 C1456 0.950 . S
H1446 C1458 0.950 . S
H1447 C1459 0.950 . S
C1448 H1440 0.950 . S
C1448 C1449 1.386 . S
C1448 C1450 1.391 . S
C1449 C1448 1.386 . S
C1449 C1453 1.393 . S
C1450 H1442 0.950 . S
C1450 C1448 1.391 . S
C1450 C1451 1.400 . S
C1451 C1450 1.400 . S
C1451 C1452 1.398 . S
C1451 C1457 1.491 . S
C1452 H1443 0.950 . S
C1452 C1451 1.398 . S
C1452 C1453 1.391 . S
C1453 H1441 0.950 . S
C1453 C1449 1.393 . S
C1453 C1452 1.391 . S
C1454 H1444 0.950 . S
C1454 C1455 1.386 . S
C1454 C1456 1.391 . S
C1455 C1454 1.386 . S
C1455 C1459 1.393 . S
C1456 H1445 0.950 . S
C1456 C1454 1.391 . S
C1456 C1457 1.400 . S
C1457 C1451 1.491 . S
C1457 C1456 1.400 . S
C1457 C1458 1.398 . S
C1458 H1446 0.950 . S
C1458 C1457 1.398 . S
C1458 C1459 1.391 . S
C1459 H1447 0.950 . S
C1459 C1455 1.393 . S
C1459 C1458 1.391 . S
H1460 C1468 0.950 . S
H1461 C1473 0.950 . S
H1462 C1470 0.950 . S
H1463 C1472 0.950 . S
H1464 C1474 0.950 . S
H1465 C1476 0.950 . S
H1466 C1478 0.950 . S
H1467 C1479 0.950 . S
C1468 H1460 0.950 . S
C1468 C1469 1.386 . S
C1468 C1470 1.391 . S
C1469 C1468 1.386 . S
C1469 C1473 1.393 . S
C1470 H1462 0.950 . S
C1470 C1468 1.391 . S
C1470 C1471 1.400 . S
C1471 C1470 1.400 . S
C1471 C1472 1.398 . S
C1471 C1477 1.491 . S
C1472 H1463 0.950 . S
C1472 C1471 1.398 . S
C1472 C1473 1.391 . S
C1473 H1461 0.950 . S
C1473 C1469 1.393 . S
C1473 C1472 1.391 . S
C1474 H1464 0.950 . S
C1474 C1475 1.386 . S
C1474 C1476 1.391 . S
C1475 C1474 1.386 . S
C1475 C1479 1.393 . S
C1476 H1465 0.950 . S
C1476 C1474 1.391 . S
C1476 C1477 1.400 . S
C1477 C1471 1.491 . S
C1477 C1476 1.400 . S
C1477 C1478 1.398 . S
C1478 H1466 0.950 . S
C1478 C1477 1.398 . S
C1478 C1479 1.391 . S
C1479 H1467 0.950 . S
C1479 C1475 1.393 . S
C1479 C1478 1.391 . S
H1480 C1488 0.950 . S
H1481 C1493 0.950 . S
H1482 C1490 0.950 . S
H1483 C1492 0.950 . S
H1484 C1494 0.950 . S
H1485 C1496 0.950 . S
H1486 C1498 0.950 . S
H1487 C1499 0.950 . S
C1488 H1480 0.950 . S
C1488 C1489 1.386 . S
C1488 C1490 1.391 . S
C1489 C1488 1.386 . S
C1489 C1493 1.393 . S
C1490 H1482 0.950 . S
C1490 C1488 1.391 . S
C1490 C1491 1.400 . S
C1491 C1490 1.400 . S
C1491 C1492 1.398 . S
C1491 C1497 1.491 . S
C1492 H1483 0.950 . S
C1492 C1491 1.398 . S
C1492 C1493 1.391 . S
C1493 H1481 0.950 . S
C1493 C1489 1.393 . S
C1493 C1492 1.391 . S
C1494 H1484 0.950 . S
C1494 C1495 1.386 . S
C1494 C1496 1.391 . S
C1495 C1494 1.386 . S
C1495 C1499 1.393 . S
C1496 H1485 0.950 . S
C1496 C1494 1.391 . S
C1496 C1497 1.400 . S
C1497 C1491 1.491 . S
C1497 C1496 1.400 . S
C1497 C1498 1.398 . S
C1498 H1486 0.950 . S
C1498 C1497 1.398 . S
C1498 C1499 1.391 . S
C1499 H1487 0.950 . S
C1499 C1495 1.393 . S
C1499 C1498 1.391 . S
H1500 C1508 0.950 . S
H1501 C1513 0.950 . S
H1502 C1510 0.950 . S
H1503 C1512 0.950 . S
H1504 C1514 0.950 . S
H1505 C1516 0.950 . S
H1506 C1518 0.950 . S
H1507 C1519 0.950 . S
C1508 H1500 0.950 . S
C1508 C1509 1.386 . S
C1508 C1510 1.391 . S
C1509 C1508 1.386 . S
C1509 C1513 1.393 . S
C1510 H1502 0.950 . S
C1510 C1508 1.391 . S
C1510 C1511 1.400 . S
C1511 C1510 1.400 . S
C1511 C1512 1.398 . S
C1511 C1517 1.491 . S
C1512 H1503 0.950 . S
C1512 C1511 1.398 . S
C1512 C1513 1.391 . S
C1513 H1501 0.950 . S
C1513 C1509 1.393 . S
C1513 C1512 1.391 . S
C1514 H1504 0.950 . S
C1514 C1515 1.386 . S
C1514 C1516 1.391 . S
C1515 C1514 1.386 . S
C1515 C1519 1.393 . S
C1516 H1505 0.950 . S
C1516 C1514 1.391 . S
C1516 C1517 1.400 . S
C1517 C1511 1.491 . S
C1517 C1516 1.400 . S
C1517 C1518 1.398 . S
C1518 H1506 0.950 . S
C1518 C1517 1.398 . S
C1518 C1519 1.391 . S
C1519 H1507 0.950 . S
C1519 C1515 1.393 . S
C1519 C1518 1.391 . S
H1520 C1528 0.950 . S
H1521 C1533 0.950 . S
H1522 C1530 0.950 . S
H1523 C1532 0.950 . S
H1524 C1534 0.950 . S
H1525 C1536 0.950 . S
H1526 C1538 0.950 . S
H1527 C1539 0.950 . S
C1528 H1520 0.950 . S
C1528 C1529 1.386 . S
C1528 C1530 1.391 . S
C1529 C1528 1.386 . S
C1529 C1533 1.393 . S
C1530 H1522 0.950 . S
C1530 C1528 1.391 . S
C1530 C1531 1.400 . S
C1531 C1530 1.400 . S
C1531 C1532 1.398 . S
C1531 C1537 1.491 . S
C1532 H1523 0.950 . S
C1532 C1531 1.398 . S
C1532 C1533 1.391 . S
C1533 H1521 0.950 . S
C1533 C1529 1.393 . S
C1533 C1532 1.391 . S
C1534 H1524 0.950 . S
C1534 C1535 1.386 . S
C1534 C1536 1.391 . S
C1535 C1534 1.386 . S
C1535 C1539 1.393 . S
C1536 H1525 0.950 . S
C1536 C1534 1.391 . S
C1536 C1537 1.400 . S
C1537 C1531 1.491 . S
C1537 C1536 1.400 . S
C1537 C1538 1.398 . S
C1538 H1526 0.950 . S
C1538 C1537 1.398 . S
C1538 C1539 1.391 . S
C1539 H1527 0.950 . S
C1539 C1535 1.393 . S
C1539 C1538 1.391 . S
H1540 C1548 0.950 . S
H1541 C1553 0.950 . S
H1542 C1550 0.950 . S
H1543 C1552 0.950 . S
H1544 C1554 0.950 . S
H1545 C1556 0.950 . S
H1546 C1558 0.950 . S
H1547 C1559 0.950 . S
C1548 H1540 0.950 . S
C1548 C1549 1.386 . S
C1548 C1550 1.391 . S
C1549 C1548 1.386 . S
C1549 C1553 1.393 . S
C1550 H1542 0.950 . S
C1550 C1548 1.391 . S
C1550 C1551 1.400 . S
C1551 C1550 1.400 . S
C1551 C1552 1.398 . S
C1551 C1557 1.491 . S
C1552 H1543 0.950 . S
C1552 C1551 1.398 . S
C1552 C1553 1.391 . S
C1553 H1541 0.950 . S
C1553 C1549 1.393 . S
C1553 C1552 1.391 . S
C1554 H1544 0.950 . S
C1554 C1555 1.386 . S
C1554 C1556 1.391 . S
C1555 C1554 1.386 . S
C1555 C1559 1.393 . S
C1556 H1545 0.950 . S
C1556 C1554 1.391 . S
C1556 C1557 1.400 . S
C1557 C1551 1.491 . S
C1557 C1556 1.400 . S
C1557 C1558 1.398 . S
C1558 H1546 0.950 . S
C1558 C1557 1.398 . S
C1558 C1559 1.391 . S
C1559 H1547 0.950 . S
C1559 C1555 1.393 . S
C1559 C1558 1.391 . S
H1560 C1568 0.950 . S
H1561 C1573 0.950 . S
H1562 C1570 0.950 . S
H1563 C1572 0.950 . S
H1564 C1574 0.950 . S
H1565 C1576 0.950 . S
H1566 C1578 0.950 . S
H1567 C1579 0.950 . S
C1568 H1560 0.950 . S
C1568 C1569 1.386 . S
C1568 C1570 1.391 . S
C1569 C1568 1.386 . S
C1569 C1573 1.393 . S
C1570 H1562 0.950 . S
C1570 C1568 1.391 . S
C1570 C1571 1.400 . S
C1571 C1570 1.400 . S
C1571 C1572 1.398 . S
C1571 C1577 1.491 . S
C1572 H1563 0.950 . S
C1572 C1571 1.398 . S
C1572 C1573 1.391 . S
C1573 H1561 0.950 . S
C1573 C1569 1.393 . S
C1573 C1572 1.391 . S
C1574 H1564 0.950 . S
C1574 C1575 1.386 . S
C1574 C1576 1.391 . S
C1575 C1574 1.386 . S
C1575 C1579 1.393 . S
C1576 H1565 0.950 . S
C1576 C1574 1.391 . S
C1576 C1577 1.400 . S
C1577 C1571 1.491 . S
C1577 C1576 1.400 . S
C1577 C1578 1.398 . S
C1578 H1566 0.950 . S
C1578 C1577 1.398 . S
C1578 C1579 1.391 . S
C1579 H1567 0.950 . S
C1579 C1575 1.393 . S
C1579 C1578 1.391 . S
H1580 C1588 0.950 . S
H1581 C1593 0.950 . S
H1582 C1590 0.950 . S
H1583 C1592 0.950 . S
H1584 C1594 0.950 . S
H1585 C1596 0.950 . S
H1586 C1598 0.950 . S
H1587 C1599 0.950 . S
C1588 H1580 0.950 . S
C1588 C1589 1.386 . S
C1588 C1590 1.391 . S
C1589 C1588 1.386 . S
C1589 C1593 1.393 . S
C1590 H1582 0.950 . S
C1590 C1588 1.391 . S
C1590 C1591 1.400 . S
C1591 C1590 1.400 . S
C1591 C1592 1.398 . S
C1591 C1597 1.491 . S
C1592 H1583 0.950 . S
C1592 C1591 1.398 . S
C1592 C1593 1.391 . S
C1593 H1581 0.950 . S
C1593 C1589 1.393 . S
C1593 C1592 1.391 . S
C1594 H1584 0.950 . S
C1594 C1595 1.386 . S
C1594 C1596 1.391 . S
C1595 C1594 1.386 . S
C1595 C1599 1.393 . S
C1596 H1585 0.950 . S
C1596 C1594 1.391 . S
C1596 C1597 1.400 . S
C1597 C1591 1.491 . S
C1597 C1596 1.400 . S
C1597 C1598 1.398 . S
C1598 H1586 0.950 . S
C1598 C1597 1.398 . S
C1598 C1599 1.391 . S
C1599 H1587 0.950 . S
C1599 C1595 1.393 . S
C1599 C1598 1.391 . S
H1600 C1608 0.950 . S
H1601 C1613 0.950 . S
H1602 C1610 0.950 . S
H1603 C1612 0.950 . S
H1604 C1614 0.950 . S
H1605 C1616 0.950 . S
H1606 C1618 0.950 . S
H1607 C1619 0.950 . S
C1608 H1600 0.950 . S
C1608 C1609 1.386 . S
C1608 C1610 1.391 . S
C1609 C1608 1.386 . S
C1609 C1613 1.393 . S
C1610 H1602 0.950 . S
C1610 C1608 1.391 . S
C1610 C1611 1.400 . S
C1611 C1610 1.400 . S
C1611 C1612 1.398 . S
C1611 C1617 1.491 . S
C1612 H1603 0.950 . S
C1612 C1611 1.398 . S
C1612 C1613 1.391 . S
C1613 H1601 0.950 . S
C1613 C1609 1.393 . S
C1613 C1612 1.391 . S
C1614 H1604 0.950 . S
C1614 C1615 1.386 . S
C1614 C1616 1.391 . S
C1615 C1614 1.386 . S
C1615 C1619 1.393 . S
C1616 H1605 0.950 . S
C1616 C1614 1.391 . S
C1616 C1617 1.400 . S
C1617 C1611 1.491 . S
C1617 C1616 1.400 . S
C1617 C1618 1.398 . S
C1618 H1606 0.950 . S
C1618 C1617 1.398 . S
C1618 C1619 1.391 . S
C1619 H1607 0.950 . S
C1619 C1615 1.393 . S
C1619 C1618 1.391 . S
H1620 C1628 0.950 . S
H1621 C1633 0.950 . S
H1622 C1630 0.950 . S
H1623 C1632 0.950 . S
H1624 C1634 0.950 . S
H1625 C1636 0.950 . S
H1626 C1638 0.950 . S
H1627 C1639 0.950 . S
C1628 H1620 0.950 . S
C1628 C1629 1.386 . S
C1628 C1630 1.391 . S
C1629 C1628 1.386 . S
C1629 C1633 1.393 . S
C1630 H1622 0.950 . S
C1630 C1628 1.391 . S
C1630 C1631 1.400 . S
C1631 C1630 1.400 . S
C1631 C1632 1.398 . S
C1631 C1637 1.491 . S
C1632 H1623 0.950 . S
C1632 C1631 1.398 . S
C1632 C1633 1.391 . S
C1633 H1621 0.950 . S
C1633 C1629 1.393 . S
C1633 C1632 1.391 . S
C1634 H1624 0.950 . S
C1634 C1635 1.386 . S
C1634 C1636 1.391 . S
C1635 C1634 1.386 . S
C1635 C1639 1.393 . S
C1636 H1625 0.950 . S
C1636 C1634 1.391 . S
C1636 C1637 1.400 . S
C1637 C1631 1.491 . S
C1637 C1636 1.400 . S
C1637 C1638 1.398 . S
C1638 H1626 0.950 . S
C1638 C1637 1.398 . S
C1638 C1639 1.391 . S
C1639 H1627 0.950 . S
C1639 C1635 1.393 . S
C1639 C1638 1.391 . S
H1640 C1648 0.950 . S
H1641 C1653 0.950 . S
H1642 C1650 0.950 . S
H1643 C1652 0.950 . S
H1644 C1654 0.950 . S
H1645 C1656 0.950 . S
H1646 C1658 0.950 . S
H1647 C1659 0.950 . S
C1648 H1640 0.950 . S
C1648 C1649 1.386 . S
C1648 C1650 1.391 . S
C1649 C1648 1.386 . S
C1649 C1653 1.393 . S
C1650 H1642 0.950 . S
C1650 C1648 1.391 . S
C1650 C1651 1.400 . S
C1651 C1650 1.400 . S
C1651 C1652 1.398 . S
C1651 C1657 1.491 . S
C1652 H1643 0.950 . S
C1652 C1651 1.398 . S
C1652 C1653 1.391 . S
C1653 H1641 0.950 . S
C1653 C1649 1.393 . S
C1653 C1652 1.391 . S
C1654 H1644 0.950 . S
C1654 C1655 1.386 . S
C1654 C1656 1.391 . S
C1655 C1654 1.386 . S
C1655 C1659 1.393 . S
C1656 H1645 0.950 . S
C1656 C1654 1.391 . S
C1656 C1657 1.400 . S
C1657 C1651 1.491 . S
C1657 C1656 1.400 . S
C1657 C1658 1.398 . S
C1658 H1646 0.950 . S
C1658 C1657 1.398 . S
C1658 C1659 1.391 . S
C1659 H1647 0.950 . S
C1659 C1655 1.393 . S
C1659 C1658 1.391 . S
H1660 C1668 0.950 . S
H1661 C1673 0.950 . S
H1662 C1670 0.950 . S
H1663 C1672 0.950 . S
H1664 C1674 0.950 . S
H1665 C1676 0.950 . S
H1666 C1678 0.950 . S
H1667 C1679 0.950 . S
C1668 H1660 0.950 . S
C1668 C1669 1.386 . S
C1668 C1670 1.391 . S
C1669 C1668 1.386 . S
C1669 C1673 1.393 . S
C1670 H1662 0.950 . S
C1670 C1668 1.391 . S
C1670 C1671 1.400 . S
C1671 C1670 1.400 . S
C1671 C1672 1.398 . S
C1671 C1677 1.491 . S
C1672 H1663 0.950 . S
C1672 C1671 1.398 . S
C1672 C1673 1.391 . S
C1673 H1661 0.950 . S
C1673 C1669 1.393 . S
C1673 C1672 1.391 . S
C1674 H1664 0.950 . S
C1674 C1675 1.386 . S
C1674 C1676 1.391 . S
C1675 C1674 1.386 . S
C1675 C1679 1.393 . S
C1676 H1665 0.950 . S
C1676 C1674 1.391 . S
C1676 C1677 1.400 . S
C1677 C1671 1.491 . S
C1677 C1676 1.400 . S
C1677 C1678 1.398 . S
C1678 H1666 0.950 . S
C1678 C1677 1.398 . S
C1678 C1679 1.391 . S
C1679 H1667 0.950 . S
C1679 C1675 1.393 . S
C1679 C1678 1.391 . S
H1680 C1688 0.950 . S
H1681 C1693 0.950 . S
H1682 C1690 0.950 . S
H1683 C1692 0.950 . S
H1684 C1694 0.950 . S
H1685 C1696 0.950 . S
H1686 C1698 0.950 . S
H1687 C1699 0.950 . S
C1688 H1680 0.950 . S
C1688 C1689 1.386 . S
C1688 C1690 1.391 . S
C1689 C1688 1.386 . S
C1689 C1693 1.393 . S
C1690 H1682 0.950 . S
C1690 C1688 1.391 . S
C1690 C1691 1.400 . S
C1691 C1690 1.400 . S
C1691 C1692 1.398 . S
C1691 C1697 1.491 . S
C1692 H1683 0.950 . S
C1692 C1691 1.398 . S
C1692 C1693 1.391 . S
C1693 H1681 0.950 . S
C1693 C1689 1.393 . S
C1693 C1692 1.391 . S
C1694 H1684 0.950 . S
C1694 C1695 1.386 . S
C1694 C1696 1.391 . S
C1695 C1694 1.386 . S
C1695 C1699 1.393 . S
C1696 H1685 0.950 . S
C1696 C1694 1.391 . S
C1696 C1697 1.400 . S
C1697 C1691 1.491 . S
C1697 C1696 1.400 . S
C1697 C1698 1.398 . S
C1698 H1686 0.950 . S
C1698 C1697 1.398 . S
C1698 C1699 1.391 . S
C1699 H1687 0.950 . S
C1699 C1695 1.393 . S
C1699 C1698 1.391 . S
H1700 C1708 0.950 . S
H1701 C1713 0.950 . S
H1702 C1710 0.950 . S
H1703 C1712 0.950 . S
H1704 C1714 0.950 . S
H1705 C1716 0.950 . S
H1706 C1718 0.950 . S
H1707 C1719 0.950 . S
C1708 H1700 0.950 . S
C1708 C1709 1.386 . S
C1708 C1710 1.391 . S
C1709 C1708 1.386 . S
C1709 C1713 1.393 . S
C1710 H1702 0.950 . S
C1710 C1708 1.391 . S
C1710 C1711 1.400 . S
C1711 C1710 1.400 . S
C1711 C1712 1.398 . S
C1711 C1717 1.491 . S
C1712 H1703 0.950 . S
C1712 C1711 1.398 . S
C1712 C1713 1.391 . S
C1713 H1701 0.950 . S
C1713 C1709 1.393 . S
C1713 C1712 1.391 . S
C1714 H1704 0.950 . S
C1714 C1715 1.386 . S
C1714 C1716 1.391 . S
C1715 C1714 1.386 . S
C1715 C1719 1.393 . S
C1716 H1705 0.950 . S
C1716 C1714 1.391 . S
C1716 C1717 1.400 . S
C1717 C1711 1.491 . S
C1717 C1716 1.400 . S
C1717 C1718 1.398 . S
C1718 H1706 0.950 . S
C1718 C1717 1.398 . S
C1718 C1719 1.391 . S
C1719 H1707 0.950 . S
C1719 C1715 1.393 . S
C1719 C1718 1.391 . S
H1720 C1728 0.950 . S
H1721 C1733 0.950 . S
H1722 C1730 0.950 . S
H1723 C1732 0.950 . S
H1724 C1734 0.950 . S
H1725 C1736 0.950 . S
H1726 C1738 0.950 . S
H1727 C1739 0.950 . S
C1728 H1720 0.950 . S
C1728 C1729 1.386 . S
C1728 C1730 1.391 . S
C1729 C1728 1.386 . S
C1729 C1733 1.393 . S
C1730 H1722 0.950 . S
C1730 C1728 1.391 . S
C1730 C1731 1.400 . S
C1731 C1730 1.400 . S
C1731 C1732 1.398 . S
C1731 C1737 1.491 . S
C1732 H1723 0.950 . S
C1732 C1731 1.398 . S
C1732 C1733 1.391 . S
C1733 H1721 0.950 . S
C1733 C1729 1.393 . S
C1733 C1732 1.391 . S
C1734 H1724 0.950 . S
C1734 C1735 1.386 . S
C1734 C1736 1.391 . S
C1735 C1734 1.386 . S
C1735 C1739 1.393 . S
C1736 H1725 0.950 . S
C1736 C1734 1.391 . S
C1736 C1737 1.400 . S
C1737 C1731 1.491 . S
C1737 C1736 1.400 . S
C1737 C1738 1.398 . S
C1738 H1726 0.950 . S
C1738 C1737 1.398 . S
C1738 C1739 1.391 . S
C1739 H1727 0.950 . S
C1739 C1735 1.393 . S
C1739 C1738 1.391 . S
H1740 C1748 0.950 . S
H1741 C1753 0.950 . S
H1742 C1750 0.950 . S
H1743 C1752 0.950 . S
H1744 C1754 0.950 . S
H1745 C1756 0.950 . S
H1746 C1758 0.950 . S
H1747 C1759 0.950 . S
C1748 H1740 0.950 . S
C1748 C1749 1.386 . S
C1748 C1750 1.391 . S
C1749 C1748 1.386 . S
C1749 C1753 1.393 . S
C1750 H1742 0.950 . S
C1750 C1748 1.391 . S
C1750 C1751 1.400 . S
C1751 C1750 1.400 . S
C1751 C1752 1.398 . S
C1751 C1757 1.491 . S
C1752 H1743 0.950 . S
C1752 C1751 1.398 . S
C1752 C1753 1.391 . S
C1753 H1741 0.950 . S
C1753 C1749 1.393 . S
C1753 C1752 1.391 . S
C1754 H1744 0.950 . S
C1754 C1755 1.386 . S
C1754 C1756 1.391 . S
C1755 C1754 1.386 . S
C1755 C1759 1.393 . S
C1756 H1745 0.950 . S
C1756 C1754 1.391 . S
C1756 C1757 1.400 . S
C1757 C1751 1.491 . S
C1757 C1756 1.400 . S
C1757 C1758 1.398 . S
C1758 H1746 0.950 . S
C1758 C1757 1.398 . S
C1758 C1759 1.391 . S
C1759 H1747 0.950 . S
C1759 C1755 1.393 . S
C1759 C1758 1.391 . S
H1760 C1768 0.950 . S
H1761 C1773 0.950 . S
H1762 C1770 0.950 . S
H1763 C1772 0.950 . S
H1764 C1774 0.950 . S
H1765 C1776 0.950 . S
H1766 C1778 0.950 . S
H1767 C1779 0.950 . S
C1768 H1760 0.950 . S
C1768 C1769 1.386 . S
C1768 C1770 1.391 . S
C1769 C1768 1.386 . S
C1769 C1773 1.393 . S
C1770 H1762 0.950 . S
C1770 C1768 1.391 . S
C1770 C1771 1.400 . S
C1771 C1770 1.400 . S
C1771 C1772 1.398 . S
C1771 C1777 1.491 . S
C1772 H1763 0.950 . S
C1772 C1771 1.398 . S
C1772 C1773 1.391 . S
C1773 H1761 0.950 . S
C1773 C1769 1.393 . S
C1773 C1772 1.391 . S
C1774 H1764 0.950 . S
C1774 C1775 1.386 . S
C1774 C1776 1.391 . S
C1775 C1774 1.386 . S
C1775 C1779 1.393 . S
C1776 H1765 0.950 . S
C1776 C1774 1.391 . S
C1776 C1777 1.400 . S
C1777 C1771 1.491 . S
C1777 C1776 1.400 . S
C1777 C1778 1.398 . S
C1778 H1766 0.950 . S
C1778 C1777 1.398 . S
C1778 C1779 1.391 . S
C1779 H1767 0.950 . S
C1779 C1775 1.393 . S
C1779 C1778 1.391 . S
H1780 C1788 0.950 . S
H1781 C1793 0.950 . S
H1782 C1790 0.950 . S
H1783 C1792 0.950 . S
H1784 C1794 0.950 . S
H1785 C1796 0.950 . S
H1786 C1798 0.950 . S
H1787 C1799 0.950 . S
C1788 H1780 0.950 . S
C1788 C1789 1.386 . S
C1788 C1790 1.391 . S
C1789 C1788 1.386 . S
C1789 C1793 1.393 . S
C1790 H1782 0.950 . S
C1790 C1788 1.391 . S
C1790 C1791 1.400 . S
C1791 C1790 1.400 . S
C1791 C1792 1.398 . S
C1791 C1797 1.491 . S
C1792 H1783 0.950 . S
C1792 C1791 1.398 . S
C1792 C1793 1.391 . S
C1793 H1781 0.950 . S
C1793 C1789 1.393 . S
C1793 C1792 1.391 . S
C1794 H1784 0.950 . S
C1794 C1795 1.386 . S
C1794 C1796 1.391 . S
C1795 C1794 1.386 . S
C1795 C1799 1.393 . S
C1796 H1785 0.950 . S
C1796 C1794 1.391 . S
C1796 C1797 1.400 . S
C1797 C1791 1.491 . S
C1797 C1796 1.400 . S
C1797 C1798 1.398 . S
C1798 H1786 0.950 . S
C1798 C1797 1.398 . S
C1798 C1799 1.391 . S
C1799 H1787 0.950 . S
C1799 C1795 1.393 . S
C1799 C1798 1.391 . S
H1800 C1808 0.950 . S
H1801 C1813 0.950 . S
H1802 C1810 0.950 . S
H1803 C1812 0.950 . S
H1804 C1814 0.950 . S
H1805 C1816 0.950 . S
H1806 C1818 0.950 . S
H1807 C1819 0.950 . S
C1808 H1800 0.950 . S
C1808 C1809 1.386 . S
C1808 C1810 1.391 . S
C1809 C1808 1.386 . S
C1809 C1813 1.393 . S
C1810 H1802 0.950 . S
C1810 C1808 1.391 . S
C1810 C1811 1.400 . S
C1811 C1810 1.400 . S
C1811 C1812 1.398 . S
C1811 C1817 1.491 . S
C1812 H1803 0.950 . S
C1812 C1811 1.398 . S
C1812 C1813 1.391 . S
C1813 H1801 0.950 . S
C1813 C1809 1.393 . S
C1813 C1812 1.391 . S
C1814 H1804 0.950 . S
C1814 C1815 1.386 . S
C1814 C1816 1.391 . S
C1815 C1814 1.386 . S
C1815 C1819 1.393 . S
C1816 H1805 0.950 . S
C1816 C1814 1.391 . S
C1816 C1817 1.400 . S
C1817 C1811 1.491 . S
C1817 C1816 1.400 . S
C1817 C1818 1.398 . S
C1818 H1806 0.950 . S
C1818 C1817 1.398 . S
C1818 C1819 1.391 . S
C1819 H1807 0.950 . S
C1819 C1815 1.393 . S
C1819 C1818 1.391 . S
H1820 C1828 0.950 . S
H1821 C1833 0.950 . S
H1822 C1830 0.950 . S
H1823 C1832 0.950 . S
H1824 C1834 0.950 . S
H1825 C1836 0.950 . S
H1826 C1838 0.950 . S
H1827 C1839 0.950 . S
C1828 H1820 0.950 . S
C1828 C1829 1.386 . S
C1828 C1830 1.391 . S
C1829 C1828 1.386 . S
C1829 C1833 1.393 . S
C1830 H1822 0.950 . S
C1830 C1828 1.391 . S
C1830 C1831 1.400 . S
C1831 C1830 1.400 . S
C1831 C1832 1.398 . S
C1831 C1837 1.491 . S
C1832 H1823 0.950 . S
C1832 C1831 1.398 . S
C1832 C1833 1.391 . S
C1833 H1821 0.950 . S
C1833 C1829 1.393 . S
C1833 C1832 1.391 . S
C1834 H1824 0.950 . S
C1834 C1835 1.386 . S
C1834 C1836 1.391 . S
C1835 C1834 1.386 . S
C1835 C1839 1.393 . S
C1836 H1825 0.950 . S
C1836 C1834 1.391 . S
C1836 C1837 1.400 . S
C1837 C1831 1.491 . S
C1837 C1836 1.400 . S
C1837 C1838 1.398 . S
C1838 H1826 0.950 . S
C1838 C1837 1.398 . S
C1838 C1839 1.391 . S
C1839 H1827 0.950 . S
C1839 C1835 1.393 . S
C1839 C1838 1.391 . S
H1840 C1848 0.950 . S
H1841 C1853 0.950 . S
H1842 C1850 0.950 . S
H1843 C1852 0.950 . S
H1844 C1854 0.950 . S
H1845 C1856 0.950 . S
H1846 C1858 0.950 . S
H1847 C1859 0.950 . S
C1848 H1840 0.950 . S
C1848 C1849 1.386 . S
C1848 C1850 1.391 . S
C1849 C1848 1.386 . S
C1849 C1853 1.393 . S
C1850 H1842 0.950 . S
C1850 C1848 1.391 . S
C1850 C1851 1.400 . S
C1851 C1850 1.400 . S
C1851 C1852 1.398 . S
C1851 C1857 1.491 . S
C1852 H1843 0.950 . S
C1852 C1851 1.398 . S
C1852 C1853 1.391 . S
C1853 H1841 0.950 . S
C1853 C1849 1.393 . S
C1853 C1852 1.391 . S
C1854 H1844 0.950 . S
C1854 C1855 1.386 . S
C1854 C1856 1.391 . S
C1855 C1854 1.386 . S
C1855 C1859 1.393 . S
C1856 H1845 0.950 . S
C1856 C1854 1.391 . S
C1856 C1857 1.400 . S
C1857 C1851 1.491 . S
C1857 C1856 1.400 . S
C1857 C1858 1.398 . S
C1858 H1846 0.950 . S
C1858 C1857 1.398 . S
C1858 C1859 1.391 . S
C1859 H1847 0.950 . S
C1859 C1855 1.393 . S
C1859 C1858 1.391 . S
H1860 C1868 0.950 . S
H1861 C1873 0.950 . S
H1862 C1870 0.950 . S
H1863 C1872 0.950 . S
H1864 C1874 0.950 . S
H1865 C1876 0.950 . S
H1866 C1878 0.950 . S
H1867 C1879 0.950 . S
C1868 H1860 0.950 . S
C1868 C1869 1.386 . S
C1868 C1870 1.391 . S
C1869 C1868 1.386 . S
C1869 C1873 1.393 . S
C1870 H1862 0.950 . S
C1870 C1868 1.391 . S
C1870 C1871 1.400 . S
C1871 C1870 1.400 . S
C1871 C1872 1.398 . S
C1871 C1877 1.491 . S
C1872 H1863 0.950 . S
C1872 C1871 1.398 . S
C1872 C1873 1.391 . S
C1873 H1861 0.950 . S
C1873 C1869 1.393 . S
C1873 C1872 1.391 . S
C1874 H1864 0.950 . S
C1874 C1875 1.386 . S
C1874 C1876 1.391 . S
C1875 C1874 1.386 . S
C1875 C1879 1.393 . S
C1876 H1865 0.950 . S
C1876 C1874 1.391 . S
C1876 C1877 1.400 . S
C1877 C1871 1.491 . S
C1877 C1876 1.400 . S
C1877 C1878 1.398 . S
C1878 H1866 0.950 . S
C1878 C1877 1.398 . S
C1878 C1879 1.391 . S
C1879 H1867 0.950 . S
C1879 C1875 1.393 . S
C1879 C1878 1.391 . S
H1880 C1888 0.950 . S
H1881 C1893 0.950 . S
H1882 C1890 0.950 . S
H1883 C1892 0.950 . S
H1884 C1894 0.950 . S
H1885 C1896 0.950 . S
H1886 C1898 0.950 . S
H1887 C1899 0.950 . S
C1888 H1880 0.950 . S
C1888 C1889 1.386 . S
C1888 C1890 1.391 . S
C1889 C1888 1.386 . S
C1889 C1893 1.393 . S
C1890 H1882 0.950 . S
C1890 C1888 1.391 . S
C1890 C1891 1.400 . S
C1891 C1890 1.400 . S
C1891 C1892 1.398 . S
C1891 C1897 1.491 . S
C1892 H1883 0.950 . S
C1892 C1891 1.398 . S
C1892 C1893 1.391 . S
C1893 H1881 0.950 . S
C1893 C1889 1.393 . S
C1893 C1892 1.391 . S
C1894 H1884 0.950 . S
C1894 C1895 1.386 . S
C1894 C1896 1.391 . S
C1895 C1894 1.386 . S
C1895 C1899 1.393 . S
C1896 H1885 0.950 . S
C1896 C1894 1.391 . S
C1896 C1897 1.400 . S
C1897 C1891 1.491 . S
C1897 C1896 1.400 . S
C1897 C1898 1.398 . S
C1898 H1886 0.950 . S
C1898 C1897 1.398 . S
C1898 C1899 1.391 . S
C1899 H1887 0.950 . S
C1899 C1895 1.393 . S
C1899 C1898 1.391 . S
H1900 C1908 0.950 . S
H1901 C1913 0.950 . S
H1902 C1910 0.950 . S
H1903 C1912 0.950 . S
H1904 C1914 0.950 . S
H1905 C1916 0.950 . S
H1906 C1918 0.950 . S
H1907 C1919 0.950 . S
C1908 H1900 0.950 . S
C1908 C1909 1.386 . S
C1908 C1910 1.391 . S
C1909 C1908 1.386 . S
C1909 C1913 1.393 . S
C1910 H1902 0.950 . S
C1910 C1908 1.391 . S
C1910 C1911 1.400 . S
C1911 C1910 1.400 . S
C1911 C1912 1.398 . S
C1911 C1917 1.491 . S
C1912 H1903 0.950 . S
C1912 C1911 1.398 . S
C1912 C1913 1.391 . S
C1913 H1901 0.950 . S
C1913 C1909 1.393 . S
C1913 C1912 1.391 . S
C1914 H1904 0.950 . S
C1914 C1915 1.386 . S
C1914 C1916 1.391 . S
C1915 C1914 1.386 . S
C1915 C1919 1.393 . S
C1916 H1905 0.950 . S
C1916 C1914 1.391 . S
C1916 C1917 1.400 . S
C1917 C1911 1.491 . S
C1917 C1916 1.400 . S
C1917 C1918 1.398 . S
C1918 H1906 0.950 . S
C1918 C1917 1.398 . S
C1918 C1919 1.391 . S
C1919 H1907 0.950 . S
C1919 C1915 1.393 . S
C1919 C1918 1.391 . S
H1920 C1928 0.950 . S
H1921 C1933 0.950 . S
H1922 C1930 0.950 . S
H1923 C1932 0.950 . S
H1924 C1934 0.950 . S
H1925 C1936 0.950 . S
H1926 C1938 0.950 . S
H1927 C1939 0.950 . S
C1928 H1920 0.950 . S
C1928 C1929 1.386 1_566 S
C1928 C1930 1.391 . S
C1929 C1928 1.386 1_544 S
C1929 C1933 1.393 . S
C1930 H1922 0.950 . S
C1930 C1928 1.391 . S
C1930 C1931 1.421 . S
C1931 C1930 1.421 . S
C1931 C1932 1.378 1_565 S
C1931 C1937 1.492 . S
C1932 H1923 0.950 . S
C1932 C1931 1.378 1_545 S
C1932 C1933 1.391 1_556 S
C1933 H1921 0.950 . S
C1933 C1929 1.393 . S
C1933 C1932 1.391 1_554 S
C1934 H1924 0.950 . S
C1934 C1935 1.386 1_545 S
C1934 C1936 1.391 . S
C1935 C1934 1.386 1_565 S
C1935 C1939 1.393 . S
C1936 H1925 0.950 . S
C1936 C1934 1.391 . S
C1936 C1937 1.400 1_545 S
C1937 C1931 1.492 . S
C1937 C1936 1.400 1_565 S
C1937 C1938 1.398 . S
C1938 H1926 0.950 . S
C1938 C1937 1.398 . S
C1938 C1939 1.391 . S
C1939 H1927 0.950 . S
C1939 C1935 1.393 . S
C1939 C1938 1.391 . S
H1940 C1948 0.950 . S
H1941 C1953 0.950 . S
H1942 C1950 0.950 . S
H1943 C1952 0.950 . S
H1944 C1954 0.950 . S
H1945 C1956 0.950 . S
H1946 C1958 0.950 . S
H1947 C1959 0.960 1_655 S
C1948 H1940 0.950 . S
C1948 C1949 1.386 . S
C1948 C1950 1.391 . S
C1949 C1948 1.386 . S
C1949 C1953 1.393 . S
C1950 H1942 0.950 . S
C1950 C1948 1.391 . S
C1950 C1951 1.400 . S
C1951 C1950 1.400 . S
C1951 C1952 1.398 . S
C1951 C1957 1.491 . S
C1952 H1943 0.950 . S
C1952 C1951 1.398 . S
C1952 C1953 1.391 . S
C1953 H1941 0.950 . S
C1953 C1949 1.393 . S
C1953 C1952 1.391 . S
C1954 H1944 0.950 . S
C1954 C1955 1.386 1_556 S
C1954 C1956 1.391 1_655 S
C1955 C1954 1.386 1_554 S
C1955 C1959 1.392 1_655 S
C1956 H1945 0.950 . S
C1956 C1954 1.391 1_455 S
C1956 C1957 1.400 . S
C1957 C1951 1.491 . S
C1957 C1956 1.400 . S
C1957 C1958 1.398 . S
C1958 H1946 0.950 . S
C1958 C1957 1.398 . S
C1958 C1959 1.381 1_556 S
C1959 H1947 0.960 1_455 S
C1959 C1955 1.392 1_455 S
C1959 C1958 1.381 1_554 S
H1960 C1968 0.950 . S
H1961 C1973 0.950 . S
H1962 C1970 0.950 . S
H1963 C1972 0.950 . S
H1964 C1974 0.950 . S
H1965 C1976 0.950 . S
H1966 C1978 0.950 . S
H1967 C1979 0.950 . S
C1968 H1960 0.950 . S
C1968 C1969 1.386 . S
C1968 C1970 1.391 . S
C1969 C1968 1.386 . S
C1969 C1973 1.393 . S
C1970 H1962 0.950 . S
C1970 C1968 1.391 . S
C1970 C1971 1.400 . S
C1971 C1970 1.400 . S
C1971 C1972 1.398 . S
C1971 C1977 1.491 . S
C1972 H1963 0.950 . S
C1972 C1971 1.398 . S
C1972 C1973 1.391 . S
C1973 H1961 0.950 . S
C1973 C1969 1.393 . S
C1973 C1972 1.391 . S
C1974 H1964 0.950 . S
C1974 C1975 1.386 . S
C1974 C1976 1.391 . S
C1975 C1974 1.386 . S
C1975 C1979 1.393 . S
C1976 H1965 0.950 . S
C1976 C1974 1.391 . S
C1976 C1977 1.400 . S
C1977 C1971 1.491 . S
C1977 C1976 1.400 . S
C1977 C1978 1.398 . S
C1978 H1966 0.950 . S
C1978 C1977 1.398 . S
C1978 C1979 1.391 . S
C1979 H1967 0.950 . S
C1979 C1975 1.393 . S
C1979 C1978 1.391 . S
H1980 C1988 0.952 . S
H1981 C1993 0.950 . S
H1982 C1990 0.950 . S
H1983 C1992 0.950 . S
H1984 C1994 0.950 . S
H1985 C1996 0.950 . S
H1986 C1998 0.950 . S
H1987 C1999 0.950 . S
C1988 H1980 0.952 . S
C1988 C1989 1.397 . S
C1988 C1990 1.377 1_655 S
C1989 C1988 1.397 . S
C1989 C1993 1.393 1_545 S
C1990 H1982 0.950 . S
C1990 C1988 1.377 1_455 S
C1990 C1991 1.389 1_545 S
C1991 C1990 1.389 1_565 S
C1991 C1992 1.409 . S
C1991 C1997 1.491 . S
C1992 H1983 0.950 . S
C1992 C1991 1.409 . S
C1992 C1993 1.391 1_455 S
C1993 H1981 0.950 . S
C1993 C1989 1.393 1_565 S
C1993 C1992 1.391 1_655 S
C1994 H1984 0.950 . S
C1994 C1995 1.386 . S
C1994 C1996 1.391 . S
C1995 C1994 1.386 . S
C1995 C1999 1.393 1_565 S
C1996 H1985 0.950 . S
C1996 C1994 1.391 . S
C1996 C1997 1.400 . S
C1997 C1991 1.491 . S
C1997 C1996 1.400 . S
C1997 C1998 1.398 1_565 S
C1998 H1986 0.950 . S
C1998 C1997 1.398 1_545 S
C1998 C1999 1.391 . S
C1999 H1987 0.950 . S
C1999 C1995 1.393 1_545 S
C1999 C1998 1.391 . S
H2000 C2008 0.950 . S
H2001 C2013 0.950 . S
H2002 C2010 0.950 . S
H2003 C2012 0.947 1_565 S
H2004 C2014 0.949 . S
H2005 C2016 0.950 . S
H2006 C2018 0.950 . S
H2007 C2019 0.950 . S
C2008 H2000 0.950 . S
C2008 C2009 1.386 . S
C2008 C2010 1.391 . S
C2009 C2008 1.386 . S
C2009 C2013 1.393 . S
C2010 H2002 0.950 . S
C2010 C2008 1.391 . S
C2010 C2011 1.400 . S
C2011 C2010 1.400 . S
C2011 C2012 1.399 . S
C2011 C2017 1.492 . S
C2012 H2003 0.947 1_545 S
C2012 C2011 1.399 . S
C2012 C2013 1.392 . S
C2013 H2001 0.950 . S
C2013 C2009 1.393 . S
C2013 C2012 1.392 . S
C2014 H2004 0.949 . S
C2014 C2015 1.386 1_554 S
C2014 C2016 1.391 1_565 S
C2015 C2014 1.386 1_556 S
C2015 C2019 1.391 1_565 S
C2016 H2005 0.950 . S
C2016 C2014 1.391 1_545 S
C2016 C2017 1.400 . S
C2017 C2011 1.492 . S
C2017 C2016 1.400 . S
C2017 C2018 1.400 . S
C2018 H2006 0.950 . S
C2018 C2017 1.400 . S
C2018 C2019 1.391 1_554 S
C2019 H2007 0.950 . S
C2019 C2015 1.391 1_545 S
C2019 C2018 1.391 1_556 S
H2020 C2028 0.950 . S
H2021 C2033 0.950 . S
H2022 C2030 0.950 . S
H2023 C2032 0.950 . S
H2024 C2034 0.950 . S
H2025 C2036 0.950 . S
H2026 C2038 0.950 . S
H2027 C2039 0.950 . S
C2028 H2020 0.950 . S
C2028 C2029 1.386 1_655 S
C2028 C2030 1.391 1_556 S
C2029 C2028 1.386 1_455 S
C2029 C2033 1.393 1_556 S
C2030 H2022 0.950 . S
C2030 C2028 1.391 1_554 S
C2030 C2031 1.400 . S
C2031 C2030 1.400 . S
C2031 C2032 1.398 1_655 S
C2031 C2037 1.491 . S
C2032 H2023 0.950 . S
C2032 C2031 1.398 1_455 S
C2032 C2033 1.391 . S
C2033 H2021 0.950 . S
C2033 C2029 1.393 1_554 S
C2033 C2032 1.391 . S
C2034 H2024 0.950 . S
C2034 C2035 1.386 . S
C2034 C2036 1.391 . S
C2035 C2034 1.386 . S
C2035 C2039 1.393 . S
C2036 H2025 0.950 . S
C2036 C2034 1.391 . S
C2036 C2037 1.400 . S
C2037 C2031 1.491 . S
C2037 C2036 1.400 . S
C2037 C2038 1.398 . S
C2038 H2026 0.950 . S
C2038 C2037 1.398 . S
C2038 C2039 1.391 . S
C2039 H2027 0.950 . S
C2039 C2035 1.393 . S
C2039 C2038 1.391 . S
H2040 C2048 0.950 . S
H2041 C2053 0.950 . S
H2042 C2050 0.950 . S
H2043 C2052 0.950 . S
H2044 C2054 0.950 . S
H2045 C2056 0.950 . S
H2046 C2058 0.950 . S
H2047 C2059 0.950 . S
C2048 H2040 0.950 . S
C2048 C2049 1.386 . S
C2048 C2050 1.391 . S
C2049 C2048 1.386 . S
C2049 C2053 1.393 . S
C2050 H2042 0.950 . S
C2050 C2048 1.391 . S
C2050 C2051 1.400 . S
C2051 C2050 1.400 . S
C2051 C2052 1.398 . S
C2051 C2057 1.491 . S
C2052 H2043 0.950 . S
C2052 C2051 1.398 . S
C2052 C2053 1.391 . S
C2053 H2041 0.950 . S
C2053 C2049 1.393 . S
C2053 C2052 1.391 . S
C2054 H2044 0.950 . S
C2054 C2055 1.386 . S
C2054 C2056 1.391 . S
C2055 C2054 1.386 . S
C2055 C2059 1.393 . S
C2056 H2045 0.950 . S
C2056 C2054 1.391 . S
C2056 C2057 1.400 . S
C2057 C2051 1.491 . S
C2057 C2056 1.400 . S
C2057 C2058 1.398 . S
C2058 H2046 0.950 . S
C2058 C2057 1.398 . S
C2058 C2059 1.391 . S
C2059 H2047 0.950 . S
C2059 C2055 1.393 . S
C2059 C2058 1.391 . S
H2060 C2068 0.948 1_565 S
H2061 C2073 0.950 . S
H2062 C2070 0.952 . S
H2063 C2072 0.950 . S
H2064 C2074 0.955 . S
H2065 C2076 0.950 . S
H2066 C2078 0.950 . S
H2067 C2079 0.950 . S
C2068 H2060 0.948 1_545 S
C2068 C2069 1.386 . S
C2068 C2070 1.391 1_545 S
C2069 C2068 1.386 . S
C2069 C2073 1.393 . S
C2070 H2062 0.952 . S
C2070 C2068 1.391 1_565 S
C2070 C2071 1.399 1_565 S
C2071 C2070 1.399 1_545 S
C2071 C2072 1.398 . S
C2071 C2077 1.491 1_545 S
C2072 H2063 0.950 . S
C2072 C2071 1.398 . S
C2072 C2073 1.391 . S
C2073 H2061 0.950 . S
C2073 C2069 1.393 . S
C2073 C2072 1.391 . S
C2074 H2064 0.955 . S
C2074 C2075 1.379 1_645 S
C2074 C2076 1.395 . S
C2075 C2074 1.379 1_465 S
C2075 C2079 1.393 . S
C2076 H2065 0.950 . S
C2076 C2074 1.395 . S
C2076 C2077 1.401 1_545 S
C2077 C2071 1.491 1_565 S
C2077 C2076 1.401 1_565 S
C2077 C2078 1.397 1_655 S
C2078 H2066 0.950 . S
C2078 C2077 1.397 1_455 S
C2078 C2079 1.391 . S
C2079 H2067 0.950 . S
C2079 C2075 1.393 . S
C2079 C2078 1.391 . S
H2080 C2088 0.950 . S
H2081 C2093 0.950 . S
H2082 C2090 0.950 . S
H2083 C2092 0.950 . S
H2084 C2094 0.950 . S
H2085 C2096 0.950 . S
H2086 C2098 0.950 . S
H2087 C2099 0.950 . S
C2088 H2080 0.950 . S
C2088 C2089 1.386 . S
C2088 C2090 1.391 . S
C2089 C2088 1.386 . S
C2089 C2093 1.393 . S
C2090 H2082 0.950 . S
C2090 C2088 1.391 . S
C2090 C2091 1.400 . S
C2091 C2090 1.400 . S
C2091 C2092 1.398 . S
C2091 C2097 1.491 . S
C2092 H2083 0.950 . S
C2092 C2091 1.398 . S
C2092 C2093 1.391 . S
C2093 H2081 0.950 . S
C2093 C2089 1.393 . S
C2093 C2092 1.391 . S
C2094 H2084 0.950 . S
C2094 C2095 1.386 . S
C2094 C2096 1.391 . S
C2095 C2094 1.386 . S
C2095 C2099 1.393 . S
C2096 H2085 0.950 . S
C2096 C2094 1.391 . S
C2096 C2097 1.400 . S
C2097 C2091 1.491 . S
C2097 C2096 1.400 . S
C2097 C2098 1.398 . S
C2098 H2086 0.950 . S
C2098 C2097 1.398 . S
C2098 C2099 1.391 . S
C2099 H2087 0.950 . S
C2099 C2095 1.393 . S
C2099 C2098 1.391 . S
H2100 C2108 0.950 . S
H2101 C2113 0.950 . S
H2102 C2110 0.950 . S
H2103 C2112 0.950 . S
H2104 C2114 0.950 . S
H2105 C2116 0.950 . S
H2106 C2118 0.950 . S
H2107 C2119 0.950 . S
C2108 H2100 0.950 . S
C2108 C2109 1.386 . S
C2108 C2110 1.391 . S
C2109 C2108 1.386 . S
C2109 C2113 1.393 . S
C2110 H2102 0.950 . S
C2110 C2108 1.391 . S
C2110 C2111 1.400 . S
C2111 C2110 1.400 . S
C2111 C2112 1.398 . S
C2111 C2117 1.491 . S
C2112 H2103 0.950 . S
C2112 C2111 1.398 . S
C2112 C2113 1.391 . S
C2113 H2101 0.950 . S
C2113 C2109 1.393 . S
C2113 C2112 1.391 . S
C2114 H2104 0.950 . S
C2114 C2115 1.386 . S
C2114 C2116 1.391 . S
C2115 C2114 1.386 . S
C2115 C2119 1.393 1_655 S
C2116 H2105 0.950 . S
C2116 C2114 1.391 . S
C2116 C2117 1.400 1_655 S
C2117 C2111 1.491 . S
C2117 C2116 1.400 1_455 S
C2117 C2118 1.398 . S
C2118 H2106 0.950 . S
C2118 C2117 1.398 . S
C2118 C2119 1.391 . S
C2119 H2107 0.950 . S
C2119 C2115 1.393 1_455 S
C2119 C2118 1.391 . S
H2120 C2128 0.950 . S
H2121 C2133 0.950 . S
H2122 C2130 0.950 . S
H2123 C2132 0.950 . S
H2124 C2134 0.950 . S
H2125 C2136 0.950 . S
H2126 C2138 0.950 . S
H2127 C2139 0.950 . S
C2128 H2120 0.950 . S
C2128 C2129 1.386 . S
C2128 C2130 1.391 . S
C2129 C2128 1.386 . S
C2129 C2133 1.393 . S
C2130 H2122 0.950 . S
C2130 C2128 1.391 . S
C2130 C2131 1.400 . S
C2131 C2130 1.400 . S
C2131 C2132 1.398 . S
C2131 C2137 1.491 . S
C2132 H2123 0.950 . S
C2132 C2131 1.398 . S
C2132 C2133 1.391 . S
C2133 H2121 0.950 . S
C2133 C2129 1.393 . S
C2133 C2132 1.391 . S
C2134 H2124 0.950 . S
C2134 C2135 1.386 . S
C2134 C2136 1.391 . S
C2135 C2134 1.386 . S
C2135 C2139 1.393 . S
C2136 H2125 0.950 . S
C2136 C2134 1.391 . S
C2136 C2137 1.400 . S
C2137 C2131 1.491 . S
C2137 C2136 1.400 . S
C2137 C2138 1.398 . S
C2138 H2126 0.950 . S
C2138 C2137 1.398 . S
C2138 C2139 1.391 . S
C2139 H2127 0.950 . S
C2139 C2135 1.393 . S
C2139 C2138 1.391 . S
H2140 C2148 0.950 . S
H2141 C2153 0.950 . S
H2142 C2150 0.950 . S
H2143 C2152 0.950 . S
H2144 C2154 0.950 . S
H2145 C2156 0.950 . S
H2146 C2158 0.950 . S
H2147 C2159 0.950 . S
C2148 H2140 0.950 . S
C2148 C2149 1.386 . S
C2148 C2150 1.391 . S
C2149 C2148 1.386 . S
C2149 C2153 1.393 . S
C2150 H2142 0.950 . S
C2150 C2148 1.391 . S
C2150 C2151 1.400 . S
C2151 C2150 1.400 . S
C2151 C2152 1.398 . S
C2151 C2157 1.491 . S
C2152 H2143 0.950 . S
C2152 C2151 1.398 . S
C2152 C2153 1.391 . S
C2153 H2141 0.950 . S
C2153 C2149 1.393 . S
C2153 C2152 1.391 . S
C2154 H2144 0.950 . S
C2154 C2155 1.386 . S
C2154 C2156 1.391 1_655 S
C2155 C2154 1.386 . S
C2155 C2159 1.393 1_655 S
C2156 H2145 0.950 . S
C2156 C2154 1.391 1_455 S
C2156 C2157 1.400 . S
C2157 C2151 1.491 . S
C2157 C2156 1.400 . S
C2157 C2158 1.398 . S
C2158 H2146 0.950 . S
C2158 C2157 1.398 . S
C2158 C2159 1.391 . S
C2159 H2147 0.950 . S
C2159 C2155 1.393 1_455 S
C2159 C2158 1.391 . S
H2160 C2168 0.950 . S
H2161 C2173 0.950 . S
H2162 C2170 0.950 . S
H2163 C2172 0.950 . S
H2164 C2174 0.950 . S
H2165 C2176 0.950 . S
H2166 C2178 0.950 . S
H2167 C2179 0.950 . S
C2168 H2160 0.950 . S
C2168 C2169 1.386 . S
C2168 C2170 1.391 . S
C2169 C2168 1.386 . S
C2169 C2173 1.393 . S
C2170 H2162 0.950 . S
C2170 C2168 1.391 . S
C2170 C2171 1.400 . S
C2171 C2170 1.400 . S
C2171 C2172 1.398 . S
C2171 C2177 1.491 . S
C2172 H2163 0.950 . S
C2172 C2171 1.398 . S
C2172 C2173 1.391 . S
C2173 H2161 0.950 . S
C2173 C2169 1.393 . S
C2173 C2172 1.391 . S
C2174 H2164 0.950 . S
C2174 C2175 1.386 . S
C2174 C2176 1.391 . S
C2175 C2174 1.386 . S
C2175 C2179 1.393 . S
C2176 H2165 0.950 . S
C2176 C2174 1.391 . S
C2176 C2177 1.400 . S
C2177 C2171 1.491 . S
C2177 C2176 1.400 . S
C2177 C2178 1.398 . S
C2178 H2166 0.950 . S
C2178 C2177 1.398 . S
C2178 C2179 1.391 . S
C2179 H2167 0.950 . S
C2179 C2175 1.393 . S
C2179 C2178 1.391 . S
H2180 C2188 0.950 . S
H2181 C2193 0.950 . S
H2182 C2190 0.950 . S
H2183 C2192 0.950 . S
H2184 C2194 0.950 . S
H2185 C2196 0.950 . S
H2186 C2198 0.950 . S
H2187 C2199 0.950 . S
C2188 H2180 0.950 . S
C2188 C2189 1.386 1_655 S
C2188 C2190 1.391 . S
C2189 C2188 1.386 1_455 S
C2189 C2193 1.393 . S
C2190 H2182 0.950 . S
C2190 C2188 1.391 . S
C2190 C2191 1.400 . S
C2191 C2190 1.400 . S
C2191 C2192 1.398 . S
C2191 C2197 1.491 . S
C2192 H2183 0.950 . S
C2192 C2191 1.398 . S
C2192 C2193 1.391 1_655 S
C2193 H2181 0.950 . S
C2193 C2189 1.393 . S
C2193 C2192 1.391 1_455 S
C2194 H2184 0.950 . S
C2194 C2195 1.386 . S
C2194 C2196 1.391 . S
C2195 C2194 1.386 . S
C2195 C2199 1.393 . S
C2196 H2185 0.950 . S
C2196 C2194 1.391 . S
C2196 C2197 1.400 . S
C2197 C2191 1.491 . S
C2197 C2196 1.400 . S
C2197 C2198 1.398 . S
C2198 H2186 0.950 . S
C2198 C2197 1.398 . S
C2198 C2199 1.391 . S
C2199 H2187 0.950 . S
C2199 C2195 1.393 . S
C2199 C2198 1.391 . S
H2200 C2208 0.950 . S
H2201 C2213 0.950 . S
H2202 C2210 0.950 . S
H2203 C2212 0.950 . S
H2204 C2214 0.950 . S
H2205 C2216 0.950 . S
H2206 C2218 0.950 . S
H2207 C2219 0.950 . S
C2208 H2200 0.950 . S
C2208 C2209 1.386 . S
C2208 C2210 1.391 . S
C2209 C2208 1.386 . S
C2209 C2213 1.393 . S
C2210 H2202 0.950 . S
C2210 C2208 1.391 . S
C2210 C2211 1.400 . S
C2211 C2210 1.400 . S
C2211 C2212 1.398 . S
C2211 C2217 1.491 . S
C2212 H2203 0.950 . S
C2212 C2211 1.398 . S
C2212 C2213 1.391 . S
C2213 H2201 0.950 . S
C2213 C2209 1.393 . S
C2213 C2212 1.391 . S
C2214 H2204 0.950 . S
C2214 C2215 1.386 . S
C2214 C2216 1.391 . S
C2215 C2214 1.386 . S
C2215 C2219 1.393 . S
C2216 H2205 0.950 . S
C2216 C2214 1.391 . S
C2216 C2217 1.400 . S
C2217 C2211 1.491 . S
C2217 C2216 1.400 . S
C2217 C2218 1.398 . S
C2218 H2206 0.950 . S
C2218 C2217 1.398 . S
C2218 C2219 1.391 . S
C2219 H2207 0.950 . S
C2219 C2215 1.393 . S
C2219 C2218 1.391 . S
H2220 C2228 0.950 . S
H2221 C2233 0.950 . S
H2222 C2230 0.950 . S
H2223 C2232 0.950 . S
H2224 C2234 0.954 . S
H2225 C2236 0.950 . S
H2226 C2238 0.950 . S
H2227 C2239 0.950 . S
C2228 H2220 0.950 . S
C2228 C2229 1.386 . S
C2228 C2230 1.391 . S
C2229 C2228 1.386 . S
C2229 C2233 1.393 . S
C2230 H2222 0.950 . S
C2230 C2228 1.391 . S
C2230 C2231 1.400 . S
C2231 C2230 1.400 . S
C2231 C2232 1.398 . S
C2231 C2237 1.491 . S
C2232 H2223 0.950 . S
C2232 C2231 1.398 . S
C2232 C2233 1.391 . S
C2233 H2221 0.950 . S
C2233 C2229 1.393 . S
C2233 C2232 1.391 . S
C2234 H2224 0.954 . S
C2234 C2235 1.399 . S
C2234 C2236 1.374 1_455 S
C2235 C2234 1.399 . S
C2235 C2239 1.393 . S
C2236 H2225 0.950 . S
C2236 C2234 1.374 1_655 S
C2236 C2237 1.400 . S
C2237 C2231 1.491 . S
C2237 C2236 1.400 . S
C2237 C2238 1.398 . S
C2238 H2226 0.950 . S
C2238 C2237 1.398 . S
C2238 C2239 1.391 1_655 S
C2239 H2227 0.950 . S
C2239 C2235 1.393 . S
C2239 C2238 1.391 1_455 S
H2240 C2248 0.950 . S
H2241 C2253 0.950 . S
H2242 C2250 0.950 . S
H2243 C2252 0.950 . S
H2244 C2254 0.950 . S
H2245 C2256 0.950 . S
H2246 C2258 0.950 . S
H2247 C2259 0.950 . S
C2248 H2240 0.950 . S
C2248 C2249 1.386 . S
C2248 C2250 1.391 . S
C2249 C2248 1.386 . S
C2249 C2253 1.393 1_545 S
C2250 H2242 0.950 . S
C2250 C2248 1.391 . S
C2250 C2251 1.376 1_545 S
C2251 C2250 1.376 1_565 S
C2251 C2252 1.423 . S
C2251 C2257 1.492 . S
C2252 H2243 0.950 . S
C2252 C2251 1.423 . S
C2252 C2253 1.391 . S
C2253 H2241 0.950 . S
C2253 C2249 1.393 1_565 S
C2253 C2252 1.391 . S
C2254 H2244 0.950 . S
C2254 C2255 1.386 . S
C2254 C2256 1.391 . S
C2255 C2254 1.386 . S
C2255 C2259 1.393 1_565 S
C2256 H2245 0.950 . S
C2256 C2254 1.391 . S
C2256 C2257 1.400 . S
C2257 C2251 1.492 . S
C2257 C2256 1.400 . S
C2257 C2258 1.398 1_565 S
C2258 H2246 0.950 . S
C2258 C2257 1.398 1_545 S
C2258 C2259 1.391 . S
C2259 H2247 0.950 . S
C2259 C2255 1.393 1_545 S
C2259 C2258 1.391 . S
H2260 C2268 0.950 . S
H2261 C2273 0.950 . S
H2262 C2270 0.950 . S
H2263 C2272 0.950 . S
H2264 C2274 0.950 . S
H2265 C2276 0.950 . S
H2266 C2278 0.950 . S
H2267 C2279 0.950 . S
C2268 H2260 0.950 . S
C2268 C2269 1.386 . S
C2268 C2270 1.391 . S
C2269 C2268 1.386 . S
C2269 C2273 1.393 . S
C2270 H2262 0.950 . S
C2270 C2268 1.391 . S
C2270 C2271 1.400 . S
C2271 C2270 1.400 . S
C2271 C2272 1.398 . S
C2271 C2277 1.491 . S
C2272 H2263 0.950 . S
C2272 C2271 1.398 . S
C2272 C2273 1.391 . S
C2273 H2261 0.950 . S
C2273 C2269 1.393 . S
C2273 C2272 1.391 . S
C2274 H2264 0.950 . S
C2274 C2275 1.386 . S
C2274 C2276 1.391 . S
C2275 C2274 1.386 . S
C2275 C2279 1.393 . S
C2276 H2265 0.950 . S
C2276 C2274 1.391 . S
C2276 C2277 1.400 . S
C2277 C2271 1.491 . S
C2277 C2276 1.400 . S
C2277 C2278 1.398 . S
C2278 H2266 0.950 . S
C2278 C2277 1.398 . S
C2278 C2279 1.391 . S
C2279 H2267 0.950 . S
C2279 C2275 1.393 . S
C2279 C2278 1.391 . S
H2280 C2288 0.950 . S
H2281 C2293 0.950 . S
H2282 C2290 0.950 . S
H2283 C2292 0.950 . S
H2284 C2294 0.950 . S
H2285 C2296 0.950 . S
H2286 C2298 0.950 . S
H2287 C2299 0.950 . S
C2288 H2280 0.950 . S
C2288 C2289 1.386 . S
C2288 C2290 1.391 . S
C2289 C2288 1.386 . S
C2289 C2293 1.393 . S
C2290 H2282 0.950 . S
C2290 C2288 1.391 . S
C2290 C2291 1.400 . S
C2291 C2290 1.400 . S
C2291 C2292 1.398 . S
C2291 C2297 1.491 . S
C2292 H2283 0.950 . S
C2292 C2291 1.398 . S
C2292 C2293 1.391 . S
C2293 H2281 0.950 . S
C2293 C2289 1.393 . S
C2293 C2292 1.391 . S
C2294 H2284 0.950 . S
C2294 C2295 1.386 . S
C2294 C2296 1.391 . S
C2295 C2294 1.386 . S
C2295 C2299 1.393 . S
C2296 H2285 0.950 . S
C2296 C2294 1.391 . S
C2296 C2297 1.400 . S
C2297 C2291 1.491 . S
C2297 C2296 1.400 . S
C2297 C2298 1.398 . S
C2298 H2286 0.950 . S
C2298 C2297 1.398 . S
C2298 C2299 1.391 . S
C2299 H2287 0.950 . S
C2299 C2295 1.393 . S
C2299 C2298 1.391 . S
H2300 C2308 0.950 . S
H2301 C2313 0.950 . S
H2302 C2310 0.950 . S
H2303 C2312 0.950 . S
H2304 C2314 0.950 . S
H2305 C2316 0.950 . S
H2306 C2318 0.950 . S
H2307 C2319 0.950 . S
C2308 H2300 0.950 . S
C2308 C2309 1.386 . S
C2308 C2310 1.391 . S
C2309 C2308 1.386 . S
C2309 C2313 1.393 1_545 S
C2310 H2302 0.950 . S
C2310 C2308 1.391 . S
C2310 C2311 1.399 1_545 S
C2311 C2310 1.399 1_565 S
C2311 C2312 1.399 . S
C2311 C2317 1.491 . S
C2312 H2303 0.950 . S
C2312 C2311 1.399 . S
C2312 C2313 1.391 . S
C2313 H2301 0.950 . S
C2313 C2309 1.393 1_565 S
C2313 C2312 1.391 . S
C2314 H2304 0.950 . S
C2314 C2315 1.386 . S
C2314 C2316 1.391 . S
C2315 C2314 1.386 . S
C2315 C2319 1.393 1_565 S
C2316 H2305 0.950 . S
C2316 C2314 1.391 . S
C2316 C2317 1.400 . S
C2317 C2311 1.491 . S
C2317 C2316 1.400 . S
C2317 C2318 1.398 1_565 S
C2318 H2306 0.950 . S
C2318 C2317 1.398 1_545 S
C2318 C2319 1.391 . S
C2319 H2307 0.950 . S
C2319 C2315 1.393 1_545 S
C2319 C2318 1.391 . S
H2320 C2328 0.950 . S
H2321 C2333 0.950 . S
H2322 C2330 0.950 . S
H2323 C2332 0.950 . S
H2324 C2334 0.950 . S
H2325 C2336 0.950 . S
H2326 C2338 0.950 . S
H2327 C2339 0.950 . S
C2328 H2320 0.950 . S
C2328 C2329 1.386 . S
C2328 C2330 1.391 . S
C2329 C2328 1.386 . S
C2329 C2333 1.393 1_565 S
C2330 H2322 0.950 . S
C2330 C2328 1.391 . S
C2330 C2331 1.385 1_565 S
C2331 C2330 1.385 1_545 S
C2331 C2332 1.412 . S
C2331 C2337 1.491 . S
C2332 H2323 0.950 . S
C2332 C2331 1.412 . S
C2332 C2333 1.391 . S
C2333 H2321 0.950 . S
C2333 C2329 1.393 1_545 S
C2333 C2332 1.391 . S
C2334 H2324 0.950 . S
C2334 C2335 1.386 . S
C2334 C2336 1.391 . S
C2335 C2334 1.386 . S
C2335 C2339 1.393 1_545 S
C2336 H2325 0.950 . S
C2336 C2334 1.391 . S
C2336 C2337 1.400 . S
C2337 C2331 1.491 . S
C2337 C2336 1.400 . S
C2337 C2338 1.398 1_545 S
C2338 H2326 0.950 . S
C2338 C2337 1.398 1_565 S
C2338 C2339 1.391 . S
C2339 H2327 0.950 . S
C2339 C2335 1.393 1_565 S
C2339 C2338 1.391 . S
H2340 C2348 0.950 . S
H2341 C2353 0.950 . S
H2342 C2350 0.950 . S
H2343 C2352 0.950 . S
H2344 C2354 0.950 . S
H2345 C2356 0.950 . S
H2346 C2358 0.950 . S
H2347 C2359 0.950 . S
C2348 H2340 0.950 . S
C2348 C2349 1.386 . S
C2348 C2350 1.391 . S
C2349 C2348 1.386 . S
C2349 C2353 1.393 . S
C2350 H2342 0.950 . S
C2350 C2348 1.391 . S
C2350 C2351 1.400 . S
C2351 C2350 1.400 . S
C2351 C2352 1.398 . S
C2351 C2357 1.491 . S
C2352 H2343 0.950 . S
C2352 C2351 1.398 . S
C2352 C2353 1.391 . S
C2353 H2341 0.950 . S
C2353 C2349 1.393 . S
C2353 C2352 1.391 . S
C2354 H2344 0.950 . S
C2354 C2355 1.386 . S
C2354 C2356 1.391 . S
C2355 C2354 1.386 . S
C2355 C2359 1.393 . S
C2356 H2345 0.950 . S
C2356 C2354 1.391 . S
C2356 C2357 1.400 . S
C2357 C2351 1.491 . S
C2357 C2356 1.400 . S
C2357 C2358 1.398 . S
C2358 H2346 0.950 . S
C2358 C2357 1.398 . S
C2358 C2359 1.391 . S
C2359 H2347 0.950 . S
C2359 C2355 1.393 . S
C2359 C2358 1.391 . S
H2360 C2368 0.950 . S
H2361 C2373 0.950 . S
H2362 C2370 0.950 . S
H2363 C2372 0.950 . S
H2364 C2374 0.950 . S
H2365 C2376 0.950 . S
H2366 C2378 0.950 . S
H2367 C2379 0.950 . S
C2368 H2360 0.950 . S
C2368 C2369 1.386 . S
C2368 C2370 1.391 . S
C2369 C2368 1.386 . S
C2369 C2373 1.393 . S
C2370 H2362 0.950 . S
C2370 C2368 1.391 . S
C2370 C2371 1.400 . S
C2371 C2370 1.400 . S
C2371 C2372 1.398 . S
C2371 C2377 1.491 . S
C2372 H2363 0.950 . S
C2372 C2371 1.398 . S
C2372 C2373 1.391 . S
C2373 H2361 0.950 . S
C2373 C2369 1.393 . S
C2373 C2372 1.391 . S
C2374 H2364 0.950 . S
C2374 C2375 1.386 . S
C2374 C2376 1.391 . S
C2375 C2374 1.386 . S
C2375 C2379 1.393 . S
C2376 H2365 0.950 . S
C2376 C2374 1.391 . S
C2376 C2377 1.400 . S
C2377 C2371 1.491 . S
C2377 C2376 1.400 . S
C2377 C2378 1.398 . S
C2378 H2366 0.950 . S
C2378 C2377 1.398 . S
C2378 C2379 1.391 . S
C2379 H2367 0.950 . S
C2379 C2375 1.393 . S
C2379 C2378 1.391 . S
H2380 C2388 0.950 . S
H2381 C2393 0.950 . S
H2382 C2390 0.950 . S
H2383 C2392 0.950 . S
H2384 C2394 0.950 . S
H2385 C2396 0.950 . S
H2386 C2398 0.950 . S
H2387 C2399 0.950 . S
C2388 H2380 0.950 . S
C2388 C2389 1.390 . S
C2388 C2390 1.391 . S
C2389 C2388 1.390 . S
C2389 C2393 1.388 1_565 S
C2390 H2382 0.950 . S
C2390 C2388 1.391 . S
C2390 C2391 1.396 1_565 S
C2391 C2390 1.396 1_545 S
C2391 C2392 1.403 . S
C2391 C2397 1.492 . S
C2392 H2383 0.950 . S
C2392 C2391 1.403 . S
C2392 C2393 1.391 . S
C2393 H2381 0.950 . S
C2393 C2389 1.388 1_545 S
C2393 C2392 1.391 . S
C2394 H2384 0.950 . S
C2394 C2395 1.386 . S
C2394 C2396 1.391 . S
C2395 C2394 1.386 . S
C2395 C2399 1.393 1_545 S
C2396 H2385 0.950 . S
C2396 C2394 1.391 . S
C2396 C2397 1.400 . S
C2397 C2391 1.492 . S
C2397 C2396 1.400 . S
C2397 C2398 1.398 1_545 S
C2398 H2386 0.950 . S
C2398 C2397 1.398 1_565 S
C2398 C2399 1.391 . S
C2399 H2387 0.950 . S
C2399 C2395 1.393 1_565 S
C2399 C2398 1.391 . S
H2400 C2408 0.950 . S
H2401 C2413 0.950 . S
H2402 C2410 0.950 . S
H2403 C2412 0.950 . S
H2404 C2414 0.950 . S
H2405 C2416 0.950 . S
H2406 C2418 0.950 . S
H2407 C2419 0.950 . S
C2408 H2400 0.950 . S
C2408 C2409 1.386 . S
C2408 C2410 1.391 . S
C2409 C2408 1.386 . S
C2409 C2413 1.393 . S
C2410 H2402 0.950 . S
C2410 C2408 1.391 . S
C2410 C2411 1.400 . S
C2411 C2410 1.400 . S
C2411 C2412 1.398 . S
C2411 C2417 1.491 . S
C2412 H2403 0.950 . S
C2412 C2411 1.398 . S
C2412 C2413 1.391 . S
C2413 H2401 0.950 . S
C2413 C2409 1.393 . S
C2413 C2412 1.391 . S
C2414 H2404 0.950 . S
C2414 C2415 1.386 . S
C2414 C2416 1.391 1_554 S
C2415 C2414 1.386 . S
C2415 C2419 1.393 1_554 S
C2416 H2405 0.950 . S
C2416 C2414 1.391 1_556 S
C2416 C2417 1.400 . S
C2417 C2411 1.491 . S
C2417 C2416 1.400 . S
C2417 C2418 1.398 . S
C2418 H2406 0.950 . S
C2418 C2417 1.398 . S
C2418 C2419 1.391 . S
C2419 H2407 0.950 . S
C2419 C2415 1.393 1_556 S
C2419 C2418 1.391 . S
H2420 C2428 0.950 . S
H2421 C2433 0.950 . S
H2422 C2430 0.950 . S
H2423 C2432 0.950 . S
H2424 C2434 0.950 . S
H2425 C2436 0.950 . S
H2426 C2438 0.950 . S
H2427 C2439 0.950 . S
C2428 H2420 0.950 . S
C2428 C2429 1.386 . S
C2428 C2430 1.391 . S
C2429 C2428 1.386 . S
C2429 C2433 1.393 . S
C2430 H2422 0.950 . S
C2430 C2428 1.391 . S
C2430 C2431 1.400 . S
C2431 C2430 1.400 . S
C2431 C2432 1.398 . S
C2431 C2437 1.491 . S
C2432 H2423 0.950 . S
C2432 C2431 1.398 . S
C2432 C2433 1.391 . S
C2433 H2421 0.950 . S
C2433 C2429 1.393 . S
C2433 C2432 1.391 . S
C2434 H2424 0.950 . S
C2434 C2435 1.386 . S
C2434 C2436 1.391 1_554 S
C2435 C2434 1.386 . S
C2435 C2439 1.393 1_554 S
C2436 H2425 0.950 . S
C2436 C2434 1.391 1_556 S
C2436 C2437 1.400 . S
C2437 C2431 1.491 . S
C2437 C2436 1.400 . S
C2437 C2438 1.398 . S
C2438 H2426 0.950 . S
C2438 C2437 1.398 . S
C2438 C2439 1.391 . S
C2439 H2427 0.950 . S
C2439 C2435 1.393 1_556 S
C2439 C2438 1.391 . S
H2440 C2448 0.950 . S
H2441 C2453 0.950 . S
H2442 C2450 0.950 . S
H2443 C2452 0.950 . S
H2444 C2454 0.950 . S
H2445 C2456 0.950 . S
H2446 C2458 0.950 . S
H2447 C2459 0.950 . S
C2448 H2440 0.950 . S
C2448 C2449 1.386 . S
C2448 C2450 1.391 . S
C2449 C2448 1.386 . S
C2449 C2453 1.393 . S
C2450 H2442 0.950 . S
C2450 C2448 1.391 . S
C2450 C2451 1.400 . S
C2451 C2450 1.400 . S
C2451 C2452 1.398 . S
C2451 C2457 1.491 . S
C2452 H2443 0.950 . S
C2452 C2451 1.398 . S
C2452 C2453 1.391 . S
C2453 H2441 0.950 . S
C2453 C2449 1.393 . S
C2453 C2452 1.391 . S
C2454 H2444 0.950 . S
C2454 C2455 1.386 . S
C2454 C2456 1.391 . S
C2455 C2454 1.386 . S
C2455 C2459 1.393 . S
C2456 H2445 0.950 . S
C2456 C2454 1.391 . S
C2456 C2457 1.400 . S
C2457 C2451 1.491 . S
C2457 C2456 1.400 . S
C2457 C2458 1.398 . S
C2458 H2446 0.950 . S
C2458 C2457 1.398 . S
C2458 C2459 1.391 . S
C2459 H2447 0.950 . S
C2459 C2455 1.393 . S
C2459 C2458 1.391 . S
H2460 C2468 0.950 . S
H2461 C2473 0.950 . S
H2462 C2470 0.950 . S
H2463 C2472 0.950 . S
H2464 C2474 0.950 . S
H2465 C2476 0.950 . S
H2466 C2478 0.950 . S
H2467 C2479 0.950 . S
C2468 H2460 0.950 . S
C2468 C2469 1.386 . S
C2468 C2470 1.391 . S
C2469 C2468 1.386 . S
C2469 C2473 1.393 . S
C2470 H2462 0.950 . S
C2470 C2468 1.391 . S
C2470 C2471 1.400 . S
C2471 C2470 1.400 . S
C2471 C2472 1.398 . S
C2471 C2477 1.491 . S
C2472 H2463 0.950 . S
C2472 C2471 1.398 . S
C2472 C2473 1.391 . S
C2473 H2461 0.950 . S
C2473 C2469 1.393 . S
C2473 C2472 1.391 . S
C2474 H2464 0.950 . S
C2474 C2475 1.386 . S
C2474 C2476 1.391 . S
C2475 C2474 1.386 . S
C2475 C2479 1.393 . S
C2476 H2465 0.950 . S
C2476 C2474 1.391 . S
C2476 C2477 1.400 . S
C2477 C2471 1.491 . S
C2477 C2476 1.400 . S
C2477 C2478 1.398 . S
C2478 H2466 0.950 . S
C2478 C2477 1.398 . S
C2478 C2479 1.391 . S
C2479 H2467 0.950 . S
C2479 C2475 1.393 . S
C2479 C2478 1.391 . S
H2480 C2488 0.950 . S
H2481 C2493 0.950 . S
H2482 C2490 0.950 . S
H2483 C2492 0.950 . S
H2484 C2494 0.950 . S
H2485 C2496 0.950 . S
H2486 C2498 0.950 . S
H2487 C2499 0.950 . S
C2488 H2480 0.950 . S
C2488 C2489 1.386 . S
C2488 C2490 1.391 . S
C2489 C2488 1.386 . S
C2489 C2493 1.393 . S
C2490 H2482 0.950 . S
C2490 C2488 1.391 . S
C2490 C2491 1.400 . S
C2491 C2490 1.400 . S
C2491 C2492 1.398 . S
C2491 C2497 1.491 . S
C2492 H2483 0.950 . S
C2492 C2491 1.398 . S
C2492 C2493 1.391 . S
C2493 H2481 0.950 . S
C2493 C2489 1.393 . S
C2493 C2492 1.391 . S
C2494 H2484 0.950 . S
C2494 C2495 1.386 . S
C2494 C2496 1.391 1_556 S
C2495 C2494 1.386 . S
C2495 C2499 1.393 1_556 S
C2496 H2485 0.950 . S
C2496 C2494 1.391 1_554 S
C2496 C2497 1.400 . S
C2497 C2491 1.491 . S
C2497 C2496 1.400 . S
C2497 C2498 1.398 . S
C2498 H2486 0.950 . S
C2498 C2497 1.398 . S
C2498 C2499 1.391 . S
C2499 H2487 0.950 . S
C2499 C2495 1.393 1_554 S
C2499 C2498 1.391 . S
H2500 C2508 0.950 . S
H2501 C2513 0.950 . S
H2502 C2510 0.950 . S
H2503 C2512 0.950 . S
H2504 C2514 0.950 1_556 S
H2505 C2516 0.950 . S
H2506 C2518 0.950 . S
H2507 C2519 0.950 . S
C2508 H2500 0.950 . S
C2508 C2509 1.386 . S
C2508 C2510 1.391 . S
C2509 C2508 1.386 . S
C2509 C2513 1.393 . S
C2510 H2502 0.950 . S
C2510 C2508 1.391 . S
C2510 C2511 1.400 . S
C2511 C2510 1.400 . S
C2511 C2512 1.398 . S
C2511 C2517 1.491 . S
C2512 H2503 0.950 . S
C2512 C2511 1.398 . S
C2512 C2513 1.391 . S
C2513 H2501 0.950 . S
C2513 C2509 1.393 . S
C2513 C2512 1.391 . S
C2514 H2504 0.950 1_554 S
C2514 C2515 1.386 1_554 S
C2514 C2516 1.391 . S
C2515 C2514 1.386 1_556 S
C2515 C2519 1.393 1_556 S
C2516 H2505 0.950 . S
C2516 C2514 1.391 . S
C2516 C2517 1.400 . S
C2517 C2511 1.491 . S
C2517 C2516 1.400 . S
C2517 C2518 1.398 . S
C2518 H2506 0.950 . S
C2518 C2517 1.398 . S
C2518 C2519 1.391 . S
C2519 H2507 0.950 . S
C2519 C2515 1.393 1_554 S
C2519 C2518 1.391 . S
H2520 C2528 0.950 . S
H2521 C2533 0.950 . S
H2522 C2530 0.950 . S
H2523 C2532 0.950 . S
H2524 C2534 0.950 . S
H2525 C2536 0.950 . S
H2526 C2538 0.950 . S
H2527 C2539 0.950 . S
C2528 H2520 0.950 . S
C2528 C2529 1.386 . S
C2528 C2530 1.391 . S
C2529 C2528 1.386 . S
C2529 C2533 1.393 . S
C2530 H2522 0.950 . S
C2530 C2528 1.391 . S
C2530 C2531 1.400 . S
C2531 C2530 1.400 . S
C2531 C2532 1.398 . S
C2531 C2537 1.491 . S
C2532 H2523 0.950 . S
C2532 C2531 1.398 . S
C2532 C2533 1.391 . S
C2533 H2521 0.950 . S
C2533 C2529 1.393 . S
C2533 C2532 1.391 . S
C2534 H2524 0.950 . S
C2534 C2535 1.386 . S
C2534 C2536 1.391 . S
C2535 C2534 1.386 . S
C2535 C2539 1.393 . S
C2536 H2525 0.950 . S
C2536 C2534 1.391 . S
C2536 C2537 1.400 . S
C2537 C2531 1.491 . S
C2537 C2536 1.400 . S
C2537 C2538 1.398 . S
C2538 H2526 0.950 . S
C2538 C2537 1.398 . S
C2538 C2539 1.391 . S
C2539 H2527 0.950 . S
C2539 C2535 1.393 . S
C2539 C2538 1.391 . S
H2540 C2548 0.950 . S
H2541 C2553 0.950 . S
H2542 C2550 0.950 . S
H2543 C2552 0.950 . S
H2544 C2554 0.950 . S
H2545 C2556 0.950 . S
H2546 C2558 0.950 . S
H2547 C2559 0.950 . S
C2548 H2540 0.950 . S
C2548 C2549 1.386 . S
C2548 C2550 1.391 . S
C2549 C2548 1.386 . S
C2549 C2553 1.393 . S
C2550 H2542 0.950 . S
C2550 C2548 1.391 . S
C2550 C2551 1.400 . S
C2551 C2550 1.400 . S
C2551 C2552 1.398 . S
C2551 C2557 1.491 . S
C2552 H2543 0.950 . S
C2552 C2551 1.398 . S
C2552 C2553 1.391 . S
C2553 H2541 0.950 . S
C2553 C2549 1.393 . S
C2553 C2552 1.391 . S
C2554 H2544 0.950 . S
C2554 C2555 1.386 . S
C2554 C2556 1.391 . S
C2555 C2554 1.386 . S
C2555 C2559 1.393 . S
C2556 H2545 0.950 . S
C2556 C2554 1.391 . S
C2556 C2557 1.400 . S
C2557 C2551 1.491 . S
C2557 C2556 1.400 . S
C2557 C2558 1.398 . S
C2558 H2546 0.950 . S
C2558 C2557 1.398 . S
C2558 C2559 1.391 . S
C2559 H2547 0.950 . S
C2559 C2555 1.393 . S
C2559 C2558 1.391 . S
C649 C509 1.683 . S
C655 C9 1.694 . S
C669 C489 1.701 . S
C675 C29 1.685 . S
C689 C549 1.700 . S
C695 C49 1.683 . S
C709 C529 1.698 . S
C715 C69 1.682 . S
C729 C88 1.697 . S
C735 C588 1.682 . S
C749 C108 1.697 . S
C755 C568 1.694 . S
C769 C128 1.692 . S
C775 C628 1.685 . S
C789 C608 1.689 . S
C795 C148 1.700 . S
C809 C349 1.683 . S
C815 C169 1.698 . S
C829 C329 1.700 . S
C835 C189 1.683 . S
C849 C389 1.683 . S
C855 C209 1.695 . S
C869 C369 1.696 . S
C875 C229 1.696 . S
C889 C248 1.696 . S
C895 C428 1.683 . S
C909 C408 1.687 . S
C915 C268 1.701 . S
C929 C288 1.701 . S
C935 C468 1.686 . S
C949 C448 1.695 . S
C955 C308 1.683 . S
C969 C1 0.924 . S
C975 C402 0.924 . S
C989 C262 0.953 . S
C995 C21 0.953 . S
C1009 C602 0.926 . S
C1015 C41 0.926 . S
C1029 C61 0.920 . S
C1035 C142 0.920 . S
C1049 C82 0.930 . S
C1055 C321 0.930 . S
C1069 C102 0.920 . S
C1075 C181 0.920 . S
C1089 C122 0.919 . S
C1095 C521 0.919 . S
C1109 C562 0.919 . S
C1115 C161 0.919 . S
C1129 C442 0.953 . S
C1135 C201 0.953 . S
C1149 C302 0.920 . S
C1155 C221 0.920 . S
C1169 C481 0.939 . S
C1175 C242 0.939 . S
C1189 C282 0.917 . S
C1195 C361 0.917 . S
C1209 C582 0.920 . S
C1215 C341 0.920 . S
C1229 C381 0.916 . S
C1235 C462 0.916 . S
C1249 C501 0.939 . S
C1255 C422 0.939 . S
C1269 C541 0.926 . S
C1275 C622 0.926 . S
C1289 C2 1.607 . S
C1295 C382 1.607 . S
C1309 C22 1.606 . S
C1315 C362 1.608 . S
C1329 C42 1.607 . S
C1335 C342 1.608 . S
C1349 C62 1.608 . S
C1355 C322 1.607 . S
C1369 C81 1.608 . S
C1375 C461 1.606 . S
C1389 C101 1.607 . S
C1395 C441 1.608 . S
C1409 C121 1.608 . S
C1415 C421 1.608 . S
C1429 C141 1.608 . S
C1435 C401 1.607 . S
C1449 C162 1.608 . S
C1455 C542 1.606 . S
C1469 C182 1.608 . S
C1475 C522 1.606 . S
C1489 C202 1.606 . S
C1495 C502 1.607 . S
C1509 C222 1.606 . S
C1515 C482 1.608 . S
C1529 C621 1.608 . S
C1535 C241 1.607 . S
C1549 C601 1.607 . S
C1555 C261 1.606 . S
C1569 C581 1.606 . S
C1575 C281 1.607 . S
C1589 C561 1.608 . S
C1595 C301 1.606 . S
C1609 C48 1.590 . S
C1615 C8 1.576 . S
C1629 C68 1.584 . S
C1635 C28 1.583 . S
C1649 C129 1.582 . S
C1655 C89 1.585 . S
C1669 C109 1.590 . S
C1675 C149 1.576 . S
C1689 C208 1.591 . S
C1695 C168 1.575 . S
C1709 C188 1.574 . S
C1715 C228 1.592 . S
C1729 C289 1.574 . S
C1735 C249 1.592 . S
C1749 C269 1.588 . S
C1755 C309 1.577 . S
C1769 C328 1.591 . S
C1775 C368 1.575 . S
C1789 C348 1.592 . S
C1795 C388 1.574 . S
C1809 C449 1.579 . S
C1815 C409 1.587 . S
C1829 C429 1.581 . S
C1835 C469 1.585 . S
C1849 C488 1.583 . S
C1855 C528 1.582 . S
C1869 C548 1.586 . S
C1875 C508 1.580 . S
C1889 C569 1.590 . S
C1895 C609 1.576 . S
C1909 C589 1.575 . S
C1915 C629 1.590 . S
C1929 C18 1.478 . S
C1935 C158 1.465 . S
C1949 C618 1.474 . S
C1955 C38 1.476 . S
C1969 C58 1.475 . S
C1975 C278 1.475 . S
C1989 C78 1.477 . S
C1995 C418 1.472 . S
C2009 C79 1.463 . S
C2015 C99 1.489 . S
C2029 C119 1.481 . S
C2035 C539 1.465 . S
C2049 C199 1.464 . S
C2055 C139 1.481 . S
C2069 C339 1.476 . S
C2075 C159 1.473 . S
C2089 C178 1.475 . S
C2095 C318 1.476 . S
C2109 C458 1.473 . S
C2115 C198 1.473 . S
C2129 C218 1.474 . S
C2135 C118 1.476 . S
C2149 C578 1.471 . S
C2155 C238 1.474 . S
C2169 C259 1.473 . S
C2175 C239 1.475 . S
C2189 C279 1.478 . S
C2195 C379 1.465 . S
C2209 C299 1.475 . S
C2215 C39 1.475 . S
C2229 C499 1.471 . S
C2235 C319 1.474 . S
C2249 C338 1.481 . S
C2255 C478 1.466 . S
C2269 C358 1.475 . S
C2275 C298 1.475 . S
C2289 C378 1.479 . S
C2295 C598 1.464 . S
C2309 C398 1.475 . S
C2315 C98 1.475 . S
C2329 C419 1.475 . S
C2335 C399 1.469 . S
C2349 C219 1.463 . S
C2355 C439 1.480 . S
C2369 C519 1.476 . S
C2375 C459 1.473 . S
C2389 C479 1.489 . S
C2395 C19 1.463 . S
C2409 C638 1.464 . S
C2415 C498 1.481 . S
C2429 C138 1.463 . S
C2435 C518 1.481 . S
C2449 C438 1.464 . S
C2455 C538 1.481 . S
C2469 C558 1.475 . S
C2475 C258 1.475 . S
C2489 C559 1.475 . S
C2495 C579 1.472 . S
C2509 C59 1.472 . S
C2515 C599 1.477 . S
C2529 C359 1.465 . S
C2535 C619 1.478 . S
C2549 C639 1.480 . S
C2555 C179 1.466 . S
