# Generated by pormake.
# Topology uol, (4)-cn, num edge types: 1
# Building blocks:
#     Node 0, Type 0, BuildingBlock: CEKHIL_clean_sbu_0, # of connection points: 4
#     Node 1, Type 0, BuildingBlock: CEKHIL_clean_sbu_0, # of connection points: 4
#     Node 2, Type 0, BuildingBlock: CEKHIL_clean_sbu_0, # of connection points: 4
#     Node 3, Type 0, BuildingBlock: CEKHIL_clean_sbu_0, # of connection points: 4
#     Node 4, Type 0, BuildingBlock: CEKHIL_clean_sbu_0, # of connection points: 4
#     Node 5, Type 0, BuildingBlock: CEKHIL_clean_sbu_0, # of connection points: 4
#     Node 6, Type 0, BuildingBlock: CEKHIL_clean_sbu_0, # of connection points: 4
#     Node 7, Type 0, BuildingBlock: CEKHIL_clean_sbu_0, # of connection points: 4
#     Node 8, Type 0, BuildingBlock: CEKHIL_clean_sbu_0, # of connection points: 4
#     Node 9, Type 0, BuildingBlock: CEKHIL_clean_sbu_0, # of connection points: 4
#     Node 10, Type 0, BuildingBlock: CEKHIL_clean_sbu_0, # of connection points: 4
#     Node 11, Type 0, BuildingBlock: CEKHIL_clean_sbu_0, # of connection points: 4
#     Edge 12, Type (0, 0), BuildingBlock: KIFKEQ_clean_linker_1, # of connection points: 2
#     Edge 13, Type (0, 0), BuildingBlock: KIFKEQ_clean_linker_1, # of connection points: 2
#     Edge 14, Type (0, 0), BuildingBlock: KIFKEQ_clean_linker_1, # of connection points: 2
#     Edge 15, Type (0, 0), BuildingBlock: KIFKEQ_clean_linker_1, # of connection points: 2
#     Edge 16, Type (0, 0), BuildingBlock: KIFKEQ_clean_linker_1, # of connection points: 2
#     Edge 17, Type (0, 0), BuildingBlock: KIFKEQ_clean_linker_1, # of connection points: 2
#     Edge 18, Type (0, 0), BuildingBlock: KIFKEQ_clean_linker_1, # of connection points: 2
#     Edge 19, Type (0, 0), BuildingBlock: KIFKEQ_clean_linker_1, # of connection points: 2
#     Edge 20, Type (0, 0), BuildingBlock: KIFKEQ_clean_linker_1, # of connection points: 2
#     Edge 21, Type (0, 0), BuildingBlock: KIFKEQ_clean_linker_1, # of connection points: 2
#     Edge 22, Type (0, 0), BuildingBlock: KIFKEQ_clean_linker_1, # of connection points: 2
#     Edge 23, Type (0, 0), BuildingBlock: KIFKEQ_clean_linker_1, # of connection points: 2
#     Edge 24, Type (0, 0), BuildingBlock: KIFKEQ_clean_linker_1, # of connection points: 2
#     Edge 25, Type (0, 0), BuildingBlock: KIFKEQ_clean_linker_1, # of connection points: 2
#     Edge 26, Type (0, 0), BuildingBlock: KIFKEQ_clean_linker_1, # of connection points: 2
#     Edge 27, Type (0, 0), BuildingBlock: KIFKEQ_clean_linker_1, # of connection points: 2
#     Edge 28, Type (0, 0), BuildingBlock: KIFKEQ_clean_linker_1, # of connection points: 2
#     Edge 29, Type (0, 0), BuildingBlock: KIFKEQ_clean_linker_1, # of connection points: 2
#     Edge 30, Type (0, 0), BuildingBlock: KIFKEQ_clean_linker_1, # of connection points: 2
#     Edge 31, Type (0, 0), BuildingBlock: KIFKEQ_clean_linker_1, # of connection points: 2
#     Edge 32, Type (0, 0), BuildingBlock: KIFKEQ_clean_linker_1, # of connection points: 2
#     Edge 33, Type (0, 0), BuildingBlock: KIFKEQ_clean_linker_1, # of connection points: 2
#     Edge 34, Type (0, 0), BuildingBlock: KIFKEQ_clean_linker_1, # of connection points: 2
#     Edge 35, Type (0, 0), BuildingBlock: KIFKEQ_clean_linker_1, # of connection points: 2
# Relax obj value: 0.131
# Max RMSD: 0.171
# Mean RMSD: 0.171
data_MOF--net-uol--node1-CEKHIL_clean_sbu_0--edge1-KIFKEQ_clean_linker_1
_symmetry_space_group_name_H-M    P1
_symmetry_Int_Tables_number       1
_symmetry_cell_setting            triclinic
loop_
_symmetry_equiv_pos_as_xyz
'x, y, z'
_cell_length_a     33.172162
_cell_length_b     33.170216
_cell_length_c     65.854172
_cell_angle_alpha  90.03156
_cell_angle_beta   90.006058
_cell_angle_gamma 119.99503
loop_
_atom_site_label
_atom_site_type_symbol
_atom_site_fract_x
_atom_site_fract_y
_atom_site_fract_z
_atom_type_partial_charge
Co0 Co 0.14455 0.35458 0.09195 0.0
O1 O 0.11545 0.38525 0.07873 0.0
O2 O 0.16211 0.4127 0.10548 0.0
C3 C 0.16953 0.33684 0.06324 0.0
O4 O 0.18153 0.3339 0.10947 0.0
Co5 Co 0.11148 0.25024 0.08466 0.0
O6 O 0.17068 0.26507 0.09838 0.0
C7 C 0.05795 0.27699 0.11218 0.0
C8 C 0.13674 0.41831 0.09197 0.0
C9 C 0.1914 0.30101 0.10963 0.0
O10 O 0.08905 0.32022 0.11034 0.0
O11 O 0.05904 0.2444 0.10215 0.0
O12 O 0.19336 0.37793 0.07132 0.0
O13 O 0.13008 0.30934 0.07179 0.0
Co14 Co 0.7901 0.14231 0.25817 0.0
O15 O 0.73132 0.1137 0.24412 0.0
O16 O 0.74768 0.15745 0.27169 0.0
C17 C 0.83441 0.16978 0.23001 0.0
O18 O 0.84642 0.1788 0.2765 0.0
Co19 Co 0.86344 0.11183 0.25112 0.0
O20 O 0.90613 0.17085 0.26542 0.0
C21 C 0.78231 0.05555 0.2778 0.0
C22 C 0.71793 0.1332 0.25756 0.0
C23 C 0.88954 0.18998 0.27685 0.0
O24 O 0.76887 0.08566 0.27584 0.0
O25 O 0.81716 0.05823 0.26817 0.0
O26 O 0.81618 0.19263 0.23819 0.0
O27 O 0.82268 0.13001 0.23815 0.0
Co28 Co 0.64721 0.79139 0.42496 0.0
O29 O 0.61573 0.7308 0.41252 0.0
O30 O 0.58897 0.75234 0.43875 0.0
C31 C 0.66501 0.83229 0.39575 0.0
O32 O 0.66904 0.8507 0.44154 0.0
Co33 Co 0.75201 0.85954 0.41701 0.0
O34 O 0.73989 0.90552 0.43091 0.0
C35 C 0.72391 0.78119 0.44562 0.0
C36 C 0.58283 0.72032 0.42568 0.0
C37 C 0.7037 0.89266 0.44179 0.0
O38 O 0.68106 0.77063 0.44392 0.0
O39 O 0.75677 0.81317 0.43506 0.0
O40 O 0.6241 0.81595 0.40386 0.0
O41 O 0.69214 0.82009 0.4045 0.0
Co42 Co 0.8547 0.645 0.5922 0.0
O43 O 0.88227 0.61434 0.57773 0.0
O44 O 0.83882 0.58686 0.60535 0.0
C45 C 0.82739 0.66306 0.56429 0.0
O46 O 0.81917 0.66529 0.61089 0.0
Co47 Co 0.88666 0.74931 0.58567 0.0
O48 O 0.82804 0.73357 0.60016 0.0
C49 C 0.94233 0.72271 0.61191 0.0
C50 C 0.86247 0.58116 0.591 0.0
C51 C 0.80862 0.69768 0.61147 0.0
O52 O 0.91175 0.67933 0.60982 0.0
O53 O 0.94008 0.75534 0.60249 0.0
O54 O 0.80412 0.62189 0.57234 0.0
O55 O 0.86741 0.69046 0.57241 0.0
Co56 Co 0.20883 0.85574 0.75852 0.0
O57 O 0.26849 0.88503 0.74518 0.0
O58 O 0.24985 0.83884 0.77204 0.0
C59 C 0.16585 0.82999 0.72987 0.0
O60 O 0.15155 0.81864 0.7762 0.0
Co61 Co 0.1366 0.88751 0.75132 0.0
O62 O 0.09285 0.82845 0.76529 0.0
C63 C 0.21682 0.942 0.77877 0.0
C64 C 0.28059 0.86406 0.75843 0.0
C65 C 0.10867 0.8083 0.77652 0.0
O66 O 0.22968 0.91144 0.7768 0.0
O67 O 0.1827 0.94025 0.76887 0.0
O68 O 0.18352 0.8066 0.73801 0.0
O69 O 0.17748 0.86948 0.73834 0.0
Co70 Co 0.35286 0.20959 0.92518 0.0
O71 O 0.38336 0.26924 0.91183 0.0
O72 O 0.41099 0.25042 0.93861 0.0
C73 C 0.33504 0.16649 0.89655 0.0
O74 O 0.33262 0.1523 0.94287 0.0
Co75 Co 0.24864 0.13763 0.91814 0.0
O76 O 0.26381 0.09377 0.93211 0.0
C77 C 0.27508 0.21818 0.9455 0.0
C78 C 0.41651 0.28122 0.92503 0.0
C79 C 0.29992 0.1095 0.94327 0.0
O80 O 0.31841 0.23073 0.94354 0.0
O81 O 0.24255 0.18416 0.9356 0.0
O82 O 0.3762 0.18399 0.90457 0.0
O83 O 0.30748 0.17836 0.90511 0.0
Co84 Co 0.6454 0.85543 0.74388 0.0
O85 O 0.61498 0.88503 0.75693 0.0
O86 O 0.58735 0.83796 0.73031 0.0
C87 C 0.66292 0.83068 0.7727 0.0
O88 O 0.66575 0.81792 0.72653 0.0
Co89 Co 0.74961 0.88798 0.75122 0.0
O90 O 0.7344 0.82846 0.73768 0.0
C91 C 0.72335 0.94126 0.72332 0.0
C92 C 0.58188 0.86362 0.74373 0.0
C93 C 0.69845 0.80778 0.72645 0.0
O94 O 0.68002 0.91055 0.72532 0.0
O95 O 0.75585 0.94008 0.73337 0.0
O96 O 0.6218 0.80695 0.76465 0.0
O97 O 0.69059 0.86996 0.76406 0.0
Co98 Co 0.78991 0.64611 0.91018 0.0
O99 O 0.73031 0.61569 0.92357 0.0
O100 O 0.74895 0.58805 0.89672 0.0
C101 C 0.83306 0.66377 0.93878 0.0
O102 O 0.84713 0.6663 0.89244 0.0
Co103 Co 0.8621 0.75028 0.91728 0.0
O104 O 0.90581 0.73498 0.90324 0.0
C105 C 0.78145 0.7241 0.89003 0.0
C106 C 0.71822 0.58256 0.91034 0.0
C107 C 0.88997 0.69891 0.89205 0.0
O108 O 0.76884 0.68074 0.89191 0.0
O109 O 0.81552 0.75653 0.89994 0.0
O110 O 0.81549 0.62262 0.93073 0.0
O111 O 0.82125 0.69141 0.93026 0.0
Co112 Co 0.14356 0.7908 0.07692 0.0
O113 O 0.11441 0.73119 0.09028 0.0
O114 O 0.16084 0.74995 0.06349 0.0
C115 C 0.16887 0.83379 0.10557 0.0
O116 O 0.18059 0.84808 0.05922 0.0
Co117 Co 0.1114 0.86279 0.08395 0.0
O118 O 0.17041 0.90666 0.06999 0.0
C119 C 0.05725 0.78231 0.05656 0.0
C120 C 0.13561 0.71921 0.07709 0.0
C121 C 0.19074 0.8909 0.05882 0.0
O122 O 0.08796 0.76968 0.05856 0.0
O123 O 0.05879 0.81637 0.06644 0.0
O124 O 0.19251 0.81633 0.0975 0.0
O125 O 0.12944 0.82203 0.09702 0.0
Co126 Co 0.35266 0.14328 0.24377 0.0
O127 O 0.38289 0.11506 0.25806 0.0
O128 O 0.41047 0.15856 0.23046 0.0
C129 C 0.33523 0.1709 0.27177 0.0
O130 O 0.33274 0.17932 0.22523 0.0
Co131 Co 0.2486 0.11208 0.25046 0.0
O132 O 0.26466 0.17084 0.23603 0.0
C133 C 0.27436 0.05613 0.22399 0.0
C134 C 0.4159 0.13448 0.24469 0.0
C135 C 0.30053 0.19013 0.2247 0.0
O136 O 0.3178 0.08643 0.22611 0.0
O137 O 0.24189 0.05859 0.23346 0.0
O138 O 0.37639 0.1938 0.26368 0.0
O139 O 0.30747 0.13096 0.26366 0.0
Co140 Co 0.20927 0.35556 0.41008 0.0
O141 O 0.26872 0.38599 0.42358 0.0
O142 O 0.25013 0.41397 0.39685 0.0
C143 C 0.16605 0.33743 0.43866 0.0
O144 O 0.15198 0.3352 0.39233 0.0
Co145 Co 0.13776 0.25118 0.41695 0.0
O146 O 0.0937 0.26637 0.40319 0.0
C147 C 0.21835 0.27818 0.38958 0.0
C148 C 0.28075 0.41937 0.41051 0.0
C149 C 0.10919 0.30242 0.39202 0.0
O150 O 0.23074 0.32146 0.39165 0.0
O151 O 0.1844 0.24549 0.39942 0.0
O152 O 0.18341 0.3786 0.43068 0.0
O153 O 0.1781 0.31002 0.43008 0.0
Co154 Co 0.85488 0.2069 0.57642 0.0
O155 O 0.88265 0.26586 0.59023 0.0
O156 O 0.83796 0.24812 0.56292 0.0
C157 C 0.82883 0.163 0.60476 0.0
O158 O 0.81886 0.14952 0.55852 0.0
Co159 Co 0.89006 0.13731 0.58383 0.0
O160 O 0.8326 0.09305 0.56904 0.0
C161 C 0.94319 0.21808 0.55674 0.0
C162 C 0.86217 0.27835 0.57692 0.0
C163 C 0.81079 0.1073 0.55792 0.0
O164 O 0.91133 0.22924 0.55844 0.0
O165 O 0.94269 0.18473 0.56676 0.0
O166 O 0.80508 0.18025 0.5966 0.0
O167 O 0.86883 0.17584 0.59657 0.0
H168 H 0.19804 0.69598 0.06234 0.0
H169 H 0.068 0.63998 0.09494 0.0
H170 H 0.197 0.62212 0.0668 0.0
H171 H 0.06645 0.56571 0.09883 0.0
H172 H 0.06838 0.42944 0.07462 0.0
H173 H 0.06626 0.5019 0.07096 0.0
H174 H 0.19756 0.57668 0.10242 0.0
H175 H 0.19919 0.50409 0.10666 0.0
C176 C 0.16899 0.66771 0.07021 0.0
C177 C 0.13311 0.67362 0.07832 0.0
C178 C 0.16858 0.62571 0.07286 0.0
C179 C 0.13176 0.58861 0.08322 0.0
C180 C 0.09517 0.59395 0.09079 0.0
C181 C 0.09612 0.63633 0.08857 0.0
C182 C 0.09655 0.46129 0.08092 0.0
C183 C 0.13394 0.46126 0.09094 0.0
C184 C 0.09525 0.50256 0.07884 0.0
C185 C 0.13189 0.5446 0.08631 0.0
C186 C 0.16909 0.54458 0.09646 0.0
C187 C 0.16985 0.50312 0.09897 0.0
H188 H 0.65647 0.09887 0.22607 0.0
H189 H 0.67539 0.15999 0.28575 0.0
H190 H 0.58215 0.09682 0.22281 0.0
H191 H 0.60081 0.15769 0.28248 0.0
H192 H 0.44286 0.1005 0.27635 0.0
H193 H 0.51474 0.09773 0.27967 0.0
H194 H 0.55705 0.15752 0.21986 0.0
H195 H 0.48516 0.16055 0.21653 0.0
C196 C 0.64461 0.11157 0.23855 0.0
C197 C 0.6718 0.12967 0.25617 0.0
C198 C 0.6022 0.11063 0.23662 0.0
C199 C 0.58582 0.12723 0.25236 0.0
C200 C 0.61248 0.14438 0.27016 0.0
C201 C 0.65521 0.14586 0.272 0.0
C202 C 0.46737 0.11284 0.26386 0.0
C203 C 0.45842 0.13082 0.24618 0.0
C204 C 0.50861 0.11148 0.26582 0.0
C205 C 0.54149 0.12752 0.25005 0.0
C206 C 0.53213 0.14462 0.2322 0.0
C207 C 0.49111 0.14653 0.23033 0.0
H208 H 0.57093 0.63954 0.40956 0.0
H209 H 0.49702 0.6989 0.43972 0.0
H210 H 0.498 0.56549 0.40597 0.0
H211 H 0.42388 0.62508 0.43558 0.0
H212 H 0.30429 0.50536 0.39602 0.0
H213 H 0.37816 0.57805 0.4008 0.0
H214 H 0.43378 0.50321 0.43288 0.0
H215 H 0.35957 0.43068 0.42863 0.0
C216 C 0.53913 0.63665 0.41549 0.0
C217 C 0.53952 0.67485 0.42493 0.0
C218 C 0.49756 0.59437 0.41345 0.0
C219 C 0.45555 0.58995 0.42039 0.0
C220 C 0.45593 0.62792 0.43001 0.0
C221 C 0.4977 0.66991 0.43249 0.0
C222 C 0.33239 0.50442 0.40397 0.0
C223 C 0.3263 0.46248 0.41196 0.0
C224 C 0.3744 0.54595 0.40682 0.0
C225 C 0.4113 0.546 0.41729 0.0
C226 C 0.40571 0.50391 0.42477 0.0
C227 C 0.36335 0.46256 0.42234 0.0
H228 H 0.83596 0.51145 0.61894 0.0
H229 H 0.89433 0.55335 0.55883 0.0
H230 H 0.83749 0.43885 0.61518 0.0
H231 H 0.89556 0.48072 0.55508 0.0
H232 H 0.83323 0.31988 0.54906 0.0
H233 H 0.83505 0.39429 0.5525 0.0
H234 H 0.89826 0.41395 0.61168 0.0
H235 H 0.89674 0.34 0.60826 0.0
C236 C 0.84926 0.50524 0.60498 0.0
C237 C 0.86506 0.53809 0.5892 0.0
C238 C 0.85027 0.46379 0.60286 0.0
C239 C 0.86653 0.45415 0.58481 0.0
C240 C 0.88246 0.48708 0.56907 0.0
C241 C 0.88202 0.52876 0.57129 0.0
C242 C 0.84772 0.34023 0.56274 0.0
C243 C 0.86481 0.32409 0.57838 0.0
C244 C 0.84891 0.38284 0.56468 0.0
C245 C 0.86663 0.40974 0.5824 0.0
C246 C 0.88398 0.3937 0.59795 0.0
C247 C 0.88334 0.35149 0.59591 0.0
H248 H 0.49611 0.80111 0.72908 0.0
H249 H 0.57074 0.93212 0.76098 0.0
H250 H 0.42351 0.80269 0.73331 0.0
H251 H 0.49825 0.93419 0.76464 0.0
H252 H 0.35972 0.93177 0.74054 0.0
H253 H 0.43417 0.93363 0.73673 0.0
H254 H 0.37821 0.80341 0.76898 0.0
H255 H 0.30419 0.80208 0.77337 0.0
C256 C 0.49708 0.83049 0.73673 0.0
C257 C 0.53895 0.86646 0.74473 0.0
C258 C 0.4556 0.83122 0.73925 0.0
C259 C 0.45556 0.86846 0.74936 0.0
C260 C 0.4976 0.90517 0.75679 0.0
C261 C 0.5389 0.90391 0.75471 0.0
C262 C 0.36351 0.9038 0.74698 0.0
C263 C 0.3263 0.8668 0.75727 0.0
C264 C 0.40599 0.90493 0.74481 0.0
C265 C 0.4115 0.86851 0.75246 0.0
C266 C 0.3745 0.8317 0.76287 0.0
C267 C 0.33239 0.83113 0.76547 0.0
H268 H 0.50216 0.30456 0.93982 0.0
H269 H 0.42795 0.36057 0.90735 0.0
H270 H 0.57485 0.37861 0.93555 0.0
H271 H 0.50056 0.43505 0.90365 0.0
H272 H 0.63903 0.57126 0.92814 0.0
H273 H 0.56447 0.49875 0.93184 0.0
H274 H 0.62047 0.42431 0.89972 0.0
H275 H 0.6946 0.4969 0.89543 0.0
C276 C 0.50131 0.33287 0.93202 0.0
C277 C 0.45952 0.3269 0.92389 0.0
C278 C 0.54283 0.37499 0.92949 0.0
C279 C 0.54303 0.41215 0.91922 0.0
C280 C 0.50109 0.40676 0.91163 0.0
C281 C 0.45973 0.36426 0.91373 0.0
C282 C 0.63523 0.53947 0.92171 0.0
C283 C 0.67249 0.53961 0.91148 0.0
C284 C 0.59268 0.49817 0.92381 0.0
C285 C 0.58714 0.45621 0.91616 0.0
C286 C 0.6242 0.45634 0.90582 0.0
C287 C 0.66637 0.49781 0.90329 0.0
H288 H 0.28945 0.26612 0.22714 0.0
H289 H 0.3097 0.17883 0.18479 0.0
H290 H 0.27766 0.30689 0.19904 0.0
H291 H 0.29309 0.21529 0.15673 0.0
H292 H 0.26236 0.28215 0.10636 0.0
H293 H 0.30324 0.26915 0.13406 0.0
H294 H 0.22307 0.29913 0.17727 0.0
H295 H 0.18669 0.31669 0.14951 0.0
C296 C 0.29161 0.25599 0.21171 0.0
C297 C 0.30054 0.2196 0.20802 0.0
C298 C 0.28413 0.27878 0.19552 0.0
C299 C 0.28314 0.2641 0.17529 0.0
C300 C 0.29417 0.22872 0.1718 0.0
C301 C 0.30346 0.20732 0.18795 0.0
C302 C 0.25482 0.28721 0.12186 0.0
C303 C 0.22159 0.30044 0.12588 0.0
C304 C 0.27766 0.27906 0.13785 0.0
C305 C 0.26607 0.28177 0.15825 0.0
C306 C 0.23408 0.29719 0.16203 0.0
C307 C 0.21273 0.30709 0.14604 0.0
H308 H 0.86902 0.1805 0.31677 0.0
H309 H 0.97712 0.2651 0.27417 0.0
H310 H 0.92217 0.21758 0.34476 0.0
H311 H 0.02983 0.30652 0.30216 0.0
H312 H 0.12984 0.31668 0.35216 0.0
H313 H 0.07615 0.29889 0.32426 0.0
H314 H 0.96632 0.27204 0.36715 0.0
H315 H 0.01988 0.28519 0.39501 0.0
C316 C 0.90392 0.20855 0.31352 0.0
C317 C 0.91922 0.21985 0.29341 0.0
C318 C 0.93466 0.23031 0.32963 0.0
C319 C 0.98125 0.26511 0.32606 0.0
C320 C 0.99509 0.27886 0.30577 0.0
C321 C 0.96474 0.25569 0.28962 0.0
C322 C 0.09433 0.30773 0.35551 0.0
C323 C 0.07879 0.30199 0.37564 0.0
C324 C 0.06323 0.2977 0.33945 0.0
C325 C 0.01595 0.28305 0.34311 0.0
C326 C 0.00169 0.28131 0.36346 0.0
C327 C 0.03249 0.28957 0.37954 0.0
H328 H 0.78224 0.1296 0.52274 0.0
H329 H 0.76921 0.01255 0.55696 0.0
H330 H 0.7436 0.07825 0.49384 0.0
H331 H 0.73092 0.96157 0.52816 0.0
H332 H 0.65013 0.8734 0.47602 0.0
H333 H 0.66328 0.92582 0.50449 0.0
H334 H 0.77365 0.03916 0.47103 0.0
H335 H 0.76049 0.98712 0.4426 0.0
C336 C 0.77011 0.09278 0.5243 0.0
C337 C 0.77935 0.07527 0.54206 0.0
C338 C 0.74821 0.06344 0.5077 0.0
C339 C 0.73456 0.01595 0.50866 0.0
C340 C 0.74066 0.99789 0.52697 0.0
C341 C 0.76295 0.02723 0.54344 0.0
C342 C 0.67636 0.90977 0.47451 0.0
C343 C 0.70472 0.92591 0.45713 0.0
C344 C 0.68404 0.93971 0.49088 0.0
C345 C 0.71981 0.98649 0.4901 0.0
C346 C 0.74562 0.00341 0.47209 0.0
C347 C 0.73828 0.97344 0.45582 0.0
H348 H 0.7325 0.70852 0.60908 0.0
H349 H 0.82031 0.68901 0.65138 0.0
H350 H 0.69184 0.72045 0.6372 0.0
H351 H 0.78396 0.70577 0.67946 0.0
H352 H 0.71738 0.73688 0.72983 0.0
H353 H 0.7302 0.69571 0.70219 0.0
H354 H 0.69969 0.77526 0.65887 0.0
H355 H 0.68232 0.81192 0.68659 0.0
C356 C 0.74278 0.70656 0.6245 0.0
C357 C 0.77927 0.69779 0.62818 0.0
C358 C 0.72005 0.71412 0.64071 0.0
C359 C 0.7349 0.71536 0.66092 0.0
C360 C 0.7704 0.7045 0.6644 0.0
C361 C 0.79174 0.69512 0.64824 0.0
C362 C 0.71216 0.7442 0.71432 0.0
C363 C 0.69884 0.77736 0.71026 0.0
C364 C 0.7202 0.72121 0.69837 0.0
C365 C 0.71731 0.73255 0.67795 0.0
C366 C 0.70178 0.76444 0.67413 0.0
C367 C 0.69199 0.78594 0.69009 0.0
H368 H 0.86901 0.68636 0.8522 0.0
H369 H 0.97854 0.71381 0.89471 0.0
H370 H 0.92209 0.70321 0.82416 0.0
H371 H 0.03134 0.72589 0.86667 0.0
H372 H 0.12963 0.81602 0.81637 0.0
H373 H 0.07648 0.77974 0.84437 0.0
H374 H 0.96694 0.69432 0.80174 0.0
H375 H 0.01986 0.73511 0.77376 0.0
C376 C 0.90426 0.69424 0.85543 0.0
C377 C 0.91991 0.69911 0.87552 0.0
C378 C 0.93499 0.70369 0.83928 0.0
C379 C 0.98196 0.71684 0.8428 0.0
C380 C 0.99625 0.71778 0.86309 0.0
C381 C 0.96587 0.71014 0.87927 0.0
C382 C 0.0943 0.78889 0.8131 0.0
C383 C 0.07862 0.77847 0.793 0.0
C384 C 0.06352 0.76758 0.82923 0.0
C385 C 0.01646 0.73408 0.82567 0.0
C386 C 0.00211 0.72106 0.80535 0.0
C387 C 0.03256 0.74384 0.78921 0.0
H388 H 0.26421 0.97958 0.06151 0.0
H389 H 0.18251 0.86989 0.01899 0.0
H390 H 0.3049 0.03238 0.03348 0.0
H391 H 0.21868 0.92296 0.99095 0.0
H392 H 0.28443 0.02072 0.94054 0.0
H393 H 0.27236 0.96787 0.96855 0.0
H394 H 0.29618 0.07742 0.01113 0.0
H395 H 0.31303 0.13051 0.9831 0.0
C396 C 0.25529 0.96688 0.04607 0.0
C397 C 0.22048 0.92087 0.04231 0.0
C398 C 0.27801 0.99726 0.0299 0.0
C399 C 0.26474 0.98292 0.00959 0.0
C400 C 0.23103 0.9359 0.00607 0.0
C401 C 0.20979 0.90518 0.02222 0.0
C402 C 0.28835 0.03344 0.95599 0.0
C403 C 0.2997 0.07948 0.95976 0.0
C404 C 0.28071 0.00303 0.97215 0.0
C405 C 0.28197 0.0174 0.99246 0.0
C406 C 0.29544 0.06445 0.996 0.0
C407 C 0.30489 0.09519 0.97985 0.0
H408 H 0.2497 0.38836 0.04156 0.0
H409 H 0.12755 0.25169 0.0451 0.0
H410 H 0.27626 0.36379 0.01186 0.0
H411 H 0.15443 0.22688 0.01584 0.0
H412 H 0.18891 0.20779 0.95201 0.0
H413 H 0.16477 0.2395 0.97968 0.0
H414 H 0.30586 0.31239 0.00236 0.0
H415 H 0.33042 0.2815 0.97438 0.0
C416 C 0.22866 0.35303 0.03605 0.0
C417 C 0.1865 0.32198 0.04562 0.0
C418 C 0.24394 0.33892 0.01909 0.0
C419 C 0.21732 0.29347 0.01138 0.0
C420 C 0.17535 0.26241 0.02112 0.0
C421 C 0.1601 0.27652 0.03801 0.0
C422 C 0.21498 0.23095 0.96275 0.0
C423 C 0.26158 0.24172 0.96102 0.0
C424 C 0.20103 0.2489 0.97872 0.0
C425 C 0.23322 0.27794 0.99342 0.0
C426 C 0.2802 0.29031 0.99124 0.0
C427 C 0.29424 0.27246 0.9752 0.0
H428 H 0.86274 0.2506 0.20876 0.0
H429 H 0.87858 0.12915 0.21173 0.0
H430 H 0.91381 0.27797 0.17902 0.0
H431 H 0.93002 0.15675 0.18246 0.0
H432 H 0.98176 0.19108 0.11856 0.0
H433 H 0.92616 0.167 0.1463 0.0
H434 H 0.99519 0.30789 0.16924 0.0
H435 H 0.05047 0.33241 0.14119 0.0
C436 C 0.87732 0.22992 0.20313 0.0
C437 C 0.86655 0.18767 0.21252 0.0
C438 C 0.90664 0.24564 0.18615 0.0
C439 C 0.92564 0.21933 0.17824 0.0
C440 C 0.91522 0.17739 0.18787 0.0
C441 C 0.886 0.16174 0.20477 0.0
C442 C 0.98492 0.21713 0.12937 0.0
C443 C 0.02097 0.26364 0.1277 0.0
C444 C 0.95315 0.20322 0.14537 0.0
C445 C 0.95667 0.23537 0.16018 0.0
C446 C 0.99139 0.28229 0.15805 0.0
C447 C 0.02318 0.2963 0.14197 0.0
H448 H 0.7946 0.98087 0.28435 0.0
H449 H 0.71768 0.04566 0.30629 0.0
H450 H 0.76341 0.92476 0.31194 0.0
H451 H 0.68742 0.99014 0.33419 0.0
H452 H 0.61315 0.85937 0.37349 0.0
H453 H 0.63739 0.90962 0.3436 0.0
H454 H 0.77487 0.92618 0.3481 0.0
H455 H 0.75026 0.8751 0.37759 0.0
C456 C 0.77082 0.98304 0.29497 0.0
C457 C 0.75897 0.0181 0.29314 0.0
C458 C 0.7532 0.95102 0.3109 0.0
C459 C 0.72342 0.95332 0.32546 0.0
C460 C 0.71003 0.98715 0.32318 0.0
C461 C 0.72752 0.01911 0.30718 0.0
C462 C 0.64853 0.87374 0.36805 0.0
C463 C 0.67981 0.86329 0.37786 0.0
C464 C 0.66247 0.90267 0.35098 0.0
C465 C 0.70802 0.92181 0.34338 0.0
C466 C 0.73927 0.91136 0.35329 0.0
C467 C 0.7253 0.88237 0.37031 0.0
H468 H 0.74609 0.6119 0.54314 0.0
H469 H 0.86919 0.74799 0.54612 0.0
H470 H 0.71943 0.63642 0.51342 0.0
H471 H 0.84233 0.77265 0.51685 0.0
H472 H 0.80908 0.78949 0.45252 0.0
H473 H 0.83204 0.75795 0.48065 0.0
H474 H 0.6911 0.68928 0.50342 0.0
H475 H 0.66767 0.72011 0.47499 0.0
C476 C 0.76727 0.64708 0.53753 0.0
C477 C 0.8098 0.67796 0.5469 0.0
C478 C 0.75196 0.66117 0.52056 0.0
C479 C 0.77897 0.70635 0.51264 0.0
C480 C 0.82113 0.73731 0.52228 0.0
C481 C 0.83637 0.72327 0.53918 0.0
C482 C 0.78276 0.76732 0.46338 0.0
C483 C 0.73656 0.75776 0.46154 0.0
C484 C 0.79605 0.74947 0.47961 0.0
C485 C 0.76357 0.72168 0.49446 0.0
C486 C 0.71694 0.71043 0.4922 0.0
C487 C 0.70357 0.72826 0.47591 0.0
H488 H 0.13801 0.7497 0.70834 0.0
H489 H 0.12234 0.87123 0.7114 0.0
H490 H 0.0874 0.7226 0.67848 0.0
H491 H 0.07119 0.84383 0.68196 0.0
H492 H 0.951 0.66747 0.64061 0.0
H493 H 0.00645 0.69238 0.66862 0.0
H494 H 0.07423 0.83332 0.64584 0.0
H495 H 0.0184 0.80882 0.61816 0.0
C496 C 0.12358 0.77049 0.70269 0.0
C497 C 0.13423 0.81264 0.71218 0.0
C498 C 0.09448 0.7549 0.68564 0.0
C499 C 0.0755 0.7812 0.67772 0.0
C500 C 0.08593 0.82316 0.68739 0.0
C501 C 0.11498 0.83871 0.70438 0.0
C502 C 0.9781 0.70367 0.6414 0.0
C503 C 0.97984 0.7362 0.62721 0.0
C504 C 0.00998 0.71792 0.65746 0.0
C505 C 0.04437 0.76498 0.65965 0.0
C506 C 0.04749 0.79701 0.64489 0.0
C507 C 0.01561 0.78284 0.6289 0.0
H508 H 0.38682 0.13841 0.87466 0.0
H509 H 0.24965 0.12254 0.87865 0.0
H510 H 0.36227 0.08723 0.84497 0.0
H511 H 0.22485 0.07077 0.84941 0.0
H512 H 0.20528 0.01704 0.78556 0.0
H513 H 0.2368 0.07292 0.81324 0.0
H514 H 0.31152 0.00623 0.83545 0.0
H515 H 0.28083 0.95079 0.80745 0.0
C516 C 0.35139 0.12381 0.86926 0.0
C517 C 0.32019 0.13457 0.87894 0.0
C518 C 0.33727 0.09437 0.8523 0.0
C519 C 0.29168 0.07513 0.84471 0.0
C520 C 0.26048 0.08569 0.85458 0.0
C521 C 0.27459 0.1151 0.87146 0.0
C522 C 0.2288 0.01447 0.79619 0.0
C523 C 0.24016 0.97907 0.79431 0.0
C524 C 0.24663 0.04638 0.81217 0.0
C525 C 0.27616 0.04367 0.82675 0.0
C526 C 0.28907 0.00949 0.82443 0.0
C527 C 0.27133 0.97759 0.80838 0.0
H528 H 0.61119 0.75063 0.79441 0.0
H529 H 0.74808 0.87244 0.79081 0.0
H530 H 0.6357 0.72385 0.82404 0.0
H531 H 0.77282 0.84535 0.82001 0.0
H532 H 0.79204 0.81041 0.88371 0.0
H533 H 0.76031 0.83487 0.85618 0.0
H534 H 0.68697 0.69392 0.83333 0.0
H535 H 0.71789 0.66904 0.86117 0.0
C536 C 0.64654 0.77155 0.7999 0.0
C537 C 0.67769 0.81367 0.79032 0.0
C538 C 0.66063 0.75615 0.81681 0.0
C539 C 0.70613 0.7826 0.82449 0.0
C540 C 0.73726 0.82456 0.81476 0.0
C541 C 0.72319 0.83993 0.79791 0.0
C542 C 0.76877 0.78443 0.87297 0.0
C543 C 0.75789 0.73778 0.87461 0.0
C544 C 0.75082 0.79857 0.85708 0.0
C545 C 0.72164 0.7665 0.84237 0.0
C546 C 0.70915 0.71948 0.84446 0.0
C547 C 0.72702 0.70525 0.86042 0.0
H548 H 0.86131 0.61199 0.96056 0.0
H549 H 0.87688 0.74907 0.95674 0.0
H550 H 0.91247 0.63652 0.99026 0.0
H551 H 0.92857 0.77382 0.98599 0.0
H552 H 0.98179 0.79315 0.04985 0.0
H553 H 0.926 0.76143 0.02217 0.0
H554 H 0.99356 0.68762 0.99984 0.0
H555 H 0.04895 0.71853 0.02785 0.0
C556 C 0.87584 0.64739 0.966 0.0
C557 C 0.865 0.67857 0.95636 0.0
C558 C 0.90525 0.66149 0.98296 0.0
C559 C 0.92435 0.70703 0.99061 0.0
C560 C 0.91374 0.73822 0.98078 0.0
C561 C 0.88438 0.72414 0.96389 0.0
C562 C 0.98458 0.76979 0.03919 0.0
C563 C 0.02022 0.75877 0.04103 0.0
C564 C 0.95271 0.75183 0.02321 0.0
C565 C 0.95571 0.72253 0.0086 0.0
C566 C 0.9901 0.70991 0.01088 0.0
C567 C 0.02197 0.72777 0.02694 0.0
H568 H 0.12754 0.87763 0.12369 0.0
H569 H 0.24827 0.86079 0.12763 0.0
H570 H 0.15424 0.92845 0.15325 0.0
H571 H 0.27461 0.91097 0.15763 0.0
H572 H 0.32983 0.0468 0.19566 0.0
H573 H 0.3052 0.99165 0.16757 0.0
H574 H 0.16353 0.92543 0.18941 0.0
H575 H 0.18779 0.98108 0.21718 0.0
C576 C 0.15973 0.88466 0.13093 0.0
C577 C 0.1858 0.86522 0.12334 0.0
C578 C 0.17487 0.9135 0.148 0.0
C579 C 0.21639 0.92349 0.15795 0.0
C580 C 0.24266 0.90426 0.15025 0.0
C581 C 0.22751 0.87541 0.13311 0.0
C582 C 0.29351 0.02012 0.19464 0.0
C583 C 0.26075 0.01877 0.20861 0.0
C584 C 0.27941 0.98839 0.17854 0.0
C585 C 0.23227 0.9545 0.17606 0.0
C586 C 0.19994 0.95177 0.19059 0.0
C587 C 0.21396 0.98353 0.20663 0.0
H588 H 0.25017 0.13037 0.28982 0.0
H589 H 0.38736 0.25187 0.29302 0.0
H590 H 0.22601 0.15805 0.31899 0.0
H591 H 0.36337 0.27931 0.32265 0.0
H592 H 0.28137 0.33373 0.36065 0.0
H593 H 0.31202 0.30927 0.33249 0.0
H594 H 0.23979 0.16821 0.35515 0.0
H595 H 0.2084 0.19223 0.38297 0.0
C596 C 0.27524 0.16299 0.2968 0.0
C597 C 0.3207 0.18889 0.28915 0.0
C598 C 0.2615 0.1787 0.31365 0.0
C599 C 0.2929 0.22066 0.32332 0.0
C600 C 0.33827 0.24696 0.31549 0.0
C601 C 0.35205 0.2312 0.29857 0.0
C602 C 0.27245 0.29759 0.35977 0.0
C603 C 0.24195 0.26488 0.37399 0.0
C604 C 0.29015 0.28361 0.34364 0.0
C605 C 0.27781 0.23665 0.3414 0.0
C606 C 0.24911 0.20445 0.35615 0.0
C607 C 0.23134 0.21834 0.37221 0.0
H608 H 0.13681 0.38866 0.46023 0.0
H609 H 0.12364 0.25251 0.45696 0.0
H610 H 0.08604 0.36416 0.49003 0.0
H611 H 0.07238 0.2278 0.48635 0.0
H612 H 0.02012 0.20957 0.55035 0.0
H613 H 0.07556 0.2415 0.52256 0.0
H614 H 0.00506 0.31194 0.49972 0.0
H615 H 0.94994 0.28076 0.5278 0.0
C616 C 0.12289 0.35346 0.46582 0.0
C617 C 0.13429 0.32254 0.4563 0.0
C618 C 0.09371 0.33939 0.48283 0.0
C619 C 0.07542 0.29414 0.49068 0.0
C620 C 0.08658 0.26319 0.48097 0.0
C621 C 0.11569 0.27724 0.46401 0.0
C622 C 0.01662 0.23227 0.53956 0.0
C623 C 0.9802 0.24219 0.54126 0.0
C624 C 0.04829 0.25033 0.52353 0.0
C625 C 0.04433 0.27869 0.50873 0.0
C626 C 0.00922 0.29036 0.5109 0.0
C627 C 0.97753 0.27236 0.527 0.0
H628 H 0.80961 0.01662 0.71644 0.0
H629 H 0.66792 0.94851 0.6943 0.0
H630 H 0.83365 0.0716 0.68845 0.0
H631 H 0.69236 0.00304 0.666 0.0
H632 H 0.74847 0.13433 0.62628 0.0
H633 H 0.72194 0.08368 0.65609 0.0
H634 H 0.84371 0.06843 0.65233 0.0
H635 H 0.87059 0.1197 0.62295 0.0
C636 C 0.78348 0.01345 0.70568 0.0
C637 C 0.73685 0.9778 0.70758 0.0
C638 C 0.79738 0.04484 0.68953 0.0
C639 C 0.76508 0.04132 0.6748 0.0
C640 C 0.7181 0.0069 0.67713 0.0
C641 C 0.70412 0.97553 0.69335 0.0
C642 C 0.76948 0.12007 0.63184 0.0
C643 C 0.81166 0.13107 0.62232 0.0
C644 C 0.75422 0.09095 0.64887 0.0
C645 C 0.78086 0.07227 0.6567 0.0
C646 C 0.82279 0.08296 0.64697 0.0
C647 C 0.83803 0.11207 0.63001 0.0
loop_
_geom_bond_atom_site_label_1
_geom_bond_atom_site_label_2
_geom_bond_distance
_geom_bond_site_symmetry_2
_ccdc_geom_bond_type
Co0 O1 2.216 . S
Co0 O2 2.091 . S
Co0 O4 2.004 . S
Co0 O10 2.021 . S
Co0 O12 2.137 . S
Co0 O13 2.244 . S
O1 Co0 2.216 . S
O1 C8 1.247 . S
O2 Co0 2.091 . S
O2 C8 1.261 . S
C3 O12 1.247 . S
C3 O13 1.272 . S
O4 Co0 2.004 . S
O4 C9 1.259 . S
Co5 O6 2.061 . S
Co5 O11 2.052 . S
Co5 O13 2.135 . S
O6 Co5 2.061 . S
O6 C9 1.235 . S
C7 O10 1.238 . S
C7 O11 1.241 . S
C8 O1 1.247 . S
C8 O2 1.261 . S
C9 O4 1.259 . S
C9 O6 1.235 . S
O10 Co0 2.021 . S
O10 C7 1.238 . S
O11 Co5 2.052 . S
O11 C7 1.241 . S
O12 Co0 2.137 . S
O12 C3 1.247 . S
O13 Co0 2.244 . S
O13 C3 1.272 . S
O13 Co5 2.135 . S
Co14 O15 2.216 . S
Co14 O16 2.091 . S
Co14 O18 2.004 . S
Co14 O24 2.021 . S
Co14 O26 2.137 . S
Co14 O27 2.244 . S
O15 Co14 2.216 . S
O15 C22 1.247 . S
O16 Co14 2.091 . S
O16 C22 1.261 . S
C17 O26 1.247 . S
C17 O27 1.272 . S
O18 Co14 2.004 . S
O18 C23 1.259 . S
Co19 O20 2.061 . S
Co19 O25 2.052 . S
Co19 O27 2.135 . S
O20 Co19 2.061 . S
O20 C23 1.235 . S
C21 O24 1.238 . S
C21 O25 1.241 . S
C22 O15 1.247 . S
C22 O16 1.261 . S
C23 O18 1.259 . S
C23 O20 1.235 . S
O24 Co14 2.021 . S
O24 C21 1.238 . S
O25 Co19 2.052 . S
O25 C21 1.241 . S
O26 Co14 2.137 . S
O26 C17 1.247 . S
O27 Co14 2.244 . S
O27 C17 1.272 . S
O27 Co19 2.135 . S
Co28 O29 2.216 . S
Co28 O30 2.091 . S
Co28 O32 2.004 . S
Co28 O38 2.021 . S
Co28 O40 2.137 . S
Co28 O41 2.244 . S
O29 Co28 2.216 . S
O29 C36 1.247 . S
O30 Co28 2.091 . S
O30 C36 1.261 . S
C31 O40 1.247 . S
C31 O41 1.272 . S
O32 Co28 2.004 . S
O32 C37 1.259 . S
Co33 O34 2.061 . S
Co33 O39 2.052 . S
Co33 O41 2.135 . S
O34 Co33 2.061 . S
O34 C37 1.235 . S
C35 O38 1.238 . S
C35 O39 1.241 . S
C36 O29 1.247 . S
C36 O30 1.261 . S
C37 O32 1.259 . S
C37 O34 1.235 . S
O38 Co28 2.021 . S
O38 C35 1.238 . S
O39 Co33 2.052 . S
O39 C35 1.241 . S
O40 Co28 2.137 . S
O40 C31 1.247 . S
O41 Co28 2.244 . S
O41 C31 1.272 . S
O41 Co33 2.135 . S
Co42 O43 2.216 . S
Co42 O44 2.091 . S
Co42 O46 2.004 . S
Co42 O52 2.021 . S
Co42 O54 2.137 . S
Co42 O55 2.244 . S
O43 Co42 2.216 . S
O43 C50 1.247 . S
O44 Co42 2.091 . S
O44 C50 1.261 . S
C45 O54 1.247 . S
C45 O55 1.272 . S
O46 Co42 2.004 . S
O46 C51 1.259 . S
Co47 O48 2.061 . S
Co47 O53 2.052 . S
Co47 O55 2.135 . S
O48 Co47 2.061 . S
O48 C51 1.235 . S
C49 O52 1.238 . S
C49 O53 1.241 . S
C50 O43 1.247 . S
C50 O44 1.261 . S
C51 O46 1.259 . S
C51 O48 1.235 . S
O52 Co42 2.021 . S
O52 C49 1.238 . S
O53 Co47 2.052 . S
O53 C49 1.241 . S
O54 Co42 2.137 . S
O54 C45 1.247 . S
O55 Co42 2.244 . S
O55 C45 1.272 . S
O55 Co47 2.135 . S
Co56 O57 2.216 . S
Co56 O58 2.091 . S
Co56 O60 2.004 . S
Co56 O66 2.021 . S
Co56 O68 2.137 . S
Co56 O69 2.244 . S
O57 Co56 2.216 . S
O57 C64 1.247 . S
O58 Co56 2.091 . S
O58 C64 1.261 . S
C59 O68 1.247 . S
C59 O69 1.272 . S
O60 Co56 2.004 . S
O60 C65 1.259 . S
Co61 O62 2.061 . S
Co61 O67 2.052 . S
Co61 O69 2.135 . S
O62 Co61 2.061 . S
O62 C65 1.235 . S
C63 O66 1.238 . S
C63 O67 1.241 . S
C64 O57 1.247 . S
C64 O58 1.261 . S
C65 O60 1.259 . S
C65 O62 1.235 . S
O66 Co56 2.021 . S
O66 C63 1.238 . S
O67 Co61 2.052 . S
O67 C63 1.241 . S
O68 Co56 2.137 . S
O68 C59 1.247 . S
O69 Co56 2.244 . S
O69 C59 1.272 . S
O69 Co61 2.135 . S
Co70 O71 2.216 . S
Co70 O72 2.091 . S
Co70 O74 2.004 . S
Co70 O80 2.021 . S
Co70 O82 2.137 . S
Co70 O83 2.244 . S
O71 Co70 2.216 . S
O71 C78 1.247 . S
O72 Co70 2.091 . S
O72 C78 1.261 . S
C73 O82 1.247 . S
C73 O83 1.272 . S
O74 Co70 2.004 . S
O74 C79 1.259 . S
Co75 O76 2.061 . S
Co75 O81 2.052 . S
Co75 O83 2.135 . S
O76 Co75 2.061 . S
O76 C79 1.235 . S
C77 O80 1.238 . S
C77 O81 1.241 . S
C78 O71 1.247 . S
C78 O72 1.261 . S
C79 O74 1.259 . S
C79 O76 1.235 . S
O80 Co70 2.021 . S
O80 C77 1.238 . S
O81 Co75 2.052 . S
O81 C77 1.241 . S
O82 Co70 2.137 . S
O82 C73 1.247 . S
O83 Co70 2.244 . S
O83 C73 1.272 . S
O83 Co75 2.135 . S
Co84 O85 2.216 . S
Co84 O86 2.091 . S
Co84 O88 2.004 . S
Co84 O94 2.021 . S
Co84 O96 2.137 . S
Co84 O97 2.244 . S
O85 Co84 2.216 . S
O85 C92 1.247 . S
O86 Co84 2.091 . S
O86 C92 1.261 . S
C87 O96 1.247 . S
C87 O97 1.272 . S
O88 Co84 2.004 . S
O88 C93 1.259 . S
Co89 O90 2.061 . S
Co89 O95 2.052 . S
Co89 O97 2.135 . S
O90 Co89 2.061 . S
O90 C93 1.235 . S
C91 O94 1.238 . S
C91 O95 1.241 . S
C92 O85 1.247 . S
C92 O86 1.261 . S
C93 O88 1.259 . S
C93 O90 1.235 . S
O94 Co84 2.021 . S
O94 C91 1.238 . S
O95 Co89 2.052 . S
O95 C91 1.241 . S
O96 Co84 2.137 . S
O96 C87 1.247 . S
O97 Co84 2.244 . S
O97 C87 1.272 . S
O97 Co89 2.135 . S
Co98 O99 2.216 . S
Co98 O100 2.091 . S
Co98 O102 2.004 . S
Co98 O108 2.021 . S
Co98 O110 2.137 . S
Co98 O111 2.244 . S
O99 Co98 2.216 . S
O99 C106 1.247 . S
O100 Co98 2.091 . S
O100 C106 1.261 . S
C101 O110 1.247 . S
C101 O111 1.272 . S
O102 Co98 2.004 . S
O102 C107 1.259 . S
Co103 O104 2.061 . S
Co103 O109 2.052 . S
Co103 O111 2.135 . S
O104 Co103 2.061 . S
O104 C107 1.235 . S
C105 O108 1.238 . S
C105 O109 1.241 . S
C106 O99 1.247 . S
C106 O100 1.261 . S
C107 O102 1.259 . S
C107 O104 1.235 . S
O108 Co98 2.021 . S
O108 C105 1.238 . S
O109 Co103 2.052 . S
O109 C105 1.241 . S
O110 Co98 2.137 . S
O110 C101 1.247 . S
O111 Co98 2.244 . S
O111 C101 1.272 . S
O111 Co103 2.135 . S
Co112 O113 2.216 . S
Co112 O114 2.091 . S
Co112 O116 2.004 . S
Co112 O122 2.021 . S
Co112 O124 2.137 . S
Co112 O125 2.244 . S
O113 Co112 2.216 . S
O113 C120 1.247 . S
O114 Co112 2.091 . S
O114 C120 1.261 . S
C115 O124 1.247 . S
C115 O125 1.272 . S
O116 Co112 2.004 . S
O116 C121 1.259 . S
Co117 O118 2.061 . S
Co117 O123 2.052 . S
Co117 O125 2.135 . S
O118 Co117 2.061 . S
O118 C121 1.235 . S
C119 O122 1.238 . S
C119 O123 1.241 . S
C120 O113 1.247 . S
C120 O114 1.261 . S
C121 O116 1.259 . S
C121 O118 1.235 . S
O122 Co112 2.021 . S
O122 C119 1.238 . S
O123 Co117 2.052 . S
O123 C119 1.241 . S
O124 Co112 2.137 . S
O124 C115 1.247 . S
O125 Co112 2.244 . S
O125 C115 1.272 . S
O125 Co117 2.135 . S
Co126 O127 2.216 . S
Co126 O128 2.091 . S
Co126 O130 2.004 . S
Co126 O136 2.021 . S
Co126 O138 2.137 . S
Co126 O139 2.244 . S
O127 Co126 2.216 . S
O127 C134 1.247 . S
O128 Co126 2.091 . S
O128 C134 1.261 . S
C129 O138 1.247 . S
C129 O139 1.272 . S
O130 Co126 2.004 . S
O130 C135 1.259 . S
Co131 O132 2.061 . S
Co131 O137 2.052 . S
Co131 O139 2.135 . S
O132 Co131 2.061 . S
O132 C135 1.235 . S
C133 O136 1.238 . S
C133 O137 1.241 . S
C134 O127 1.247 . S
C134 O128 1.261 . S
C135 O130 1.259 . S
C135 O132 1.235 . S
O136 Co126 2.021 . S
O136 C133 1.238 . S
O137 Co131 2.052 . S
O137 C133 1.241 . S
O138 Co126 2.137 . S
O138 C129 1.247 . S
O139 Co126 2.244 . S
O139 C129 1.272 . S
O139 Co131 2.135 . S
Co140 O141 2.216 . S
Co140 O142 2.091 . S
Co140 O144 2.004 . S
Co140 O150 2.021 . S
Co140 O152 2.137 . S
Co140 O153 2.244 . S
O141 Co140 2.216 . S
O141 C148 1.247 . S
O142 Co140 2.091 . S
O142 C148 1.261 . S
C143 O152 1.247 . S
C143 O153 1.272 . S
O144 Co140 2.004 . S
O144 C149 1.259 . S
Co145 O146 2.061 . S
Co145 O151 2.052 . S
Co145 O153 2.135 . S
O146 Co145 2.061 . S
O146 C149 1.235 . S
C147 O150 1.238 . S
C147 O151 1.241 . S
C148 O141 1.247 . S
C148 O142 1.261 . S
C149 O144 1.259 . S
C149 O146 1.235 . S
O150 Co140 2.021 . S
O150 C147 1.238 . S
O151 Co145 2.052 . S
O151 C147 1.241 . S
O152 Co140 2.137 . S
O152 C143 1.247 . S
O153 Co140 2.244 . S
O153 C143 1.272 . S
O153 Co145 2.135 . S
Co154 O155 2.216 . S
Co154 O156 2.091 . S
Co154 O158 2.004 . S
Co154 O164 2.021 . S
Co154 O166 2.137 . S
Co154 O167 2.244 . S
O155 Co154 2.216 . S
O155 C162 1.247 . S
O156 Co154 2.091 . S
O156 C162 1.261 . S
C157 O166 1.247 . S
C157 O167 1.272 . S
O158 Co154 2.004 . S
O158 C163 1.259 . S
Co159 O160 2.061 . S
Co159 O165 2.052 . S
Co159 O167 2.135 . S
O160 Co159 2.061 . S
O160 C163 1.235 . S
C161 O164 1.238 . S
C161 O165 1.241 . S
C162 O155 1.247 . S
C162 O156 1.261 . S
C163 O158 1.259 . S
C163 O160 1.235 . S
O164 Co154 2.021 . S
O164 C161 1.238 . S
O165 Co159 2.052 . S
O165 C161 1.241 . S
O166 Co154 2.137 . S
O166 C157 1.247 . S
O167 Co154 2.244 . S
O167 C157 1.272 . S
O167 Co159 2.135 . S
H168 C176 0.950 . S
H169 C181 0.950 . S
H170 C178 0.950 . S
H171 C180 0.950 . S
H172 C182 0.950 . S
H173 C184 0.950 . S
H174 C186 0.950 . S
H175 C187 0.950 . S
C176 H168 0.950 . S
C176 C177 1.386 . S
C176 C178 1.391 . S
C177 C176 1.386 . S
C177 C181 1.393 . S
C178 H170 0.950 . S
C178 C176 1.391 . S
C178 C179 1.400 . S
C179 C178 1.400 . S
C179 C180 1.398 . S
C179 C185 1.491 . S
C180 H171 0.950 . S
C180 C179 1.398 . S
C180 C181 1.391 . S
C181 H169 0.950 . S
C181 C177 1.393 . S
C181 C180 1.391 . S
C182 H172 0.950 . S
C182 C183 1.386 . S
C182 C184 1.391 . S
C183 C182 1.386 . S
C183 C187 1.393 . S
C184 H173 0.950 . S
C184 C182 1.391 . S
C184 C185 1.400 . S
C185 C179 1.491 . S
C185 C184 1.400 . S
C185 C186 1.398 . S
C186 H174 0.950 . S
C186 C185 1.398 . S
C186 C187 1.391 . S
C187 H175 0.950 . S
C187 C183 1.393 . S
C187 C186 1.391 . S
H188 C196 0.950 . S
H189 C201 0.950 . S
H190 C198 0.950 . S
H191 C200 0.950 . S
H192 C202 0.950 . S
H193 C204 0.950 . S
H194 C206 0.950 . S
H195 C207 0.950 . S
C196 H188 0.950 . S
C196 C197 1.386 . S
C196 C198 1.391 . S
C197 C196 1.386 . S
C197 C201 1.393 . S
C198 H190 0.950 . S
C198 C196 1.391 . S
C198 C199 1.400 . S
C199 C198 1.400 . S
C199 C200 1.398 . S
C199 C205 1.491 . S
C200 H191 0.950 . S
C200 C199 1.398 . S
C200 C201 1.391 . S
C201 H189 0.950 . S
C201 C197 1.393 . S
C201 C200 1.391 . S
C202 H192 0.950 . S
C202 C203 1.386 . S
C202 C204 1.391 . S
C203 C202 1.386 . S
C203 C207 1.393 . S
C204 H193 0.950 . S
C204 C202 1.391 . S
C204 C205 1.400 . S
C205 C199 1.491 . S
C205 C204 1.400 . S
C205 C206 1.398 . S
C206 H194 0.950 . S
C206 C205 1.398 . S
C206 C207 1.391 . S
C207 H195 0.950 . S
C207 C203 1.393 . S
C207 C206 1.391 . S
H208 C216 0.950 . S
H209 C221 0.950 . S
H210 C218 0.950 . S
H211 C220 0.950 . S
H212 C222 0.950 . S
H213 C224 0.950 . S
H214 C226 0.950 . S
H215 C227 0.950 . S
C216 H208 0.950 . S
C216 C217 1.386 . S
C216 C218 1.391 . S
C217 C216 1.386 . S
C217 C221 1.393 . S
C218 H210 0.950 . S
C218 C216 1.391 . S
C218 C219 1.400 . S
C219 C218 1.400 . S
C219 C220 1.398 . S
C219 C225 1.491 . S
C220 H211 0.950 . S
C220 C219 1.398 . S
C220 C221 1.391 . S
C221 H209 0.950 . S
C221 C217 1.393 . S
C221 C220 1.391 . S
C222 H212 0.950 . S
C222 C223 1.386 . S
C222 C224 1.391 . S
C223 C222 1.386 . S
C223 C227 1.393 . S
C224 H213 0.950 . S
C224 C222 1.391 . S
C224 C225 1.400 . S
C225 C219 1.491 . S
C225 C224 1.400 . S
C225 C226 1.398 . S
C226 H214 0.950 . S
C226 C225 1.398 . S
C226 C227 1.391 . S
C227 H215 0.950 . S
C227 C223 1.393 . S
C227 C226 1.391 . S
H228 C236 0.950 . S
H229 C241 0.950 . S
H230 C238 0.950 . S
H231 C240 0.950 . S
H232 C242 0.950 . S
H233 C244 0.950 . S
H234 C246 0.950 . S
H235 C247 0.950 . S
C236 H228 0.950 . S
C236 C237 1.386 . S
C236 C238 1.391 . S
C237 C236 1.386 . S
C237 C241 1.393 . S
C238 H230 0.950 . S
C238 C236 1.391 . S
C238 C239 1.400 . S
C239 C238 1.400 . S
C239 C240 1.398 . S
C239 C245 1.491 . S
C240 H231 0.950 . S
C240 C239 1.398 . S
C240 C241 1.391 . S
C241 H229 0.950 . S
C241 C237 1.393 . S
C241 C240 1.391 . S
C242 H232 0.950 . S
C242 C243 1.386 . S
C242 C244 1.391 . S
C243 C242 1.386 . S
C243 C247 1.393 . S
C244 H233 0.950 . S
C244 C242 1.391 . S
C244 C245 1.400 . S
C245 C239 1.491 . S
C245 C244 1.400 . S
C245 C246 1.398 . S
C246 H234 0.950 . S
C246 C245 1.398 . S
C246 C247 1.391 . S
C247 H235 0.950 . S
C247 C243 1.393 . S
C247 C246 1.391 . S
H248 C256 0.950 . S
H249 C261 0.950 . S
H250 C258 0.950 . S
H251 C260 0.950 . S
H252 C262 0.950 . S
H253 C264 0.950 . S
H254 C266 0.950 . S
H255 C267 0.950 . S
C256 H248 0.950 . S
C256 C257 1.386 . S
C256 C258 1.391 . S
C257 C256 1.386 . S
C257 C261 1.393 . S
C258 H250 0.950 . S
C258 C256 1.391 . S
C258 C259 1.400 . S
C259 C258 1.400 . S
C259 C260 1.398 . S
C259 C265 1.491 . S
C260 H251 0.950 . S
C260 C259 1.398 . S
C260 C261 1.391 . S
C261 H249 0.950 . S
C261 C257 1.393 . S
C261 C260 1.391 . S
C262 H252 0.950 . S
C262 C263 1.386 . S
C262 C264 1.391 . S
C263 C262 1.386 . S
C263 C267 1.393 . S
C264 H253 0.950 . S
C264 C262 1.391 . S
C264 C265 1.400 . S
C265 C259 1.491 . S
C265 C264 1.400 . S
C265 C266 1.398 . S
C266 H254 0.950 . S
C266 C265 1.398 . S
C266 C267 1.391 . S
C267 H255 0.950 . S
C267 C263 1.393 . S
C267 C266 1.391 . S
H268 C276 0.950 . S
H269 C281 0.950 . S
H270 C278 0.950 . S
H271 C280 0.950 . S
H272 C282 0.950 . S
H273 C284 0.950 . S
H274 C286 0.950 . S
H275 C287 0.950 . S
C276 H268 0.950 . S
C276 C277 1.386 . S
C276 C278 1.391 . S
C277 C276 1.386 . S
C277 C281 1.393 . S
C278 H270 0.950 . S
C278 C276 1.391 . S
C278 C279 1.400 . S
C279 C278 1.400 . S
C279 C280 1.398 . S
C279 C285 1.491 . S
C280 H271 0.950 . S
C280 C279 1.398 . S
C280 C281 1.391 . S
C281 H269 0.950 . S
C281 C277 1.393 . S
C281 C280 1.391 . S
C282 H272 0.950 . S
C282 C283 1.386 . S
C282 C284 1.391 . S
C283 C282 1.386 . S
C283 C287 1.393 . S
C284 H273 0.950 . S
C284 C282 1.391 . S
C284 C285 1.400 . S
C285 C279 1.491 . S
C285 C284 1.400 . S
C285 C286 1.398 . S
C286 H274 0.950 . S
C286 C285 1.398 . S
C286 C287 1.391 . S
C287 H275 0.950 . S
C287 C283 1.393 . S
C287 C286 1.391 . S
H288 C296 0.950 . S
H289 C301 0.950 . S
H290 C298 0.950 . S
H291 C300 0.950 . S
H292 C302 0.950 . S
H293 C304 0.950 . S
H294 C306 0.950 . S
H295 C307 0.950 . S
C296 H288 0.950 . S
C296 C297 1.386 . S
C296 C298 1.391 . S
C297 C296 1.386 . S
C297 C301 1.393 . S
C298 H290 0.950 . S
C298 C296 1.391 . S
C298 C299 1.400 . S
C299 C298 1.400 . S
C299 C300 1.398 . S
C299 C305 1.491 . S
C300 H291 0.950 . S
C300 C299 1.398 . S
C300 C301 1.391 . S
C301 H289 0.950 . S
C301 C297 1.393 . S
C301 C300 1.391 . S
C302 H292 0.950 . S
C302 C303 1.386 . S
C302 C304 1.391 . S
C303 C302 1.386 . S
C303 C307 1.393 . S
C304 H293 0.950 . S
C304 C302 1.391 . S
C304 C305 1.400 . S
C305 C299 1.491 . S
C305 C304 1.400 . S
C305 C306 1.398 . S
C306 H294 0.950 . S
C306 C305 1.398 . S
C306 C307 1.391 . S
C307 H295 0.950 . S
C307 C303 1.393 . S
C307 C306 1.391 . S
H308 C316 0.950 . S
H309 C321 0.950 . S
H310 C318 0.950 . S
H311 C320 0.950 1_455 S
H312 C322 0.950 . S
H313 C324 0.950 . S
H314 C326 0.950 1_655 S
H315 C327 0.950 . S
C316 H308 0.950 . S
C316 C317 1.386 . S
C316 C318 1.391 . S
C317 C316 1.386 . S
C317 C321 1.393 . S
C318 H310 0.950 . S
C318 C316 1.391 . S
C318 C319 1.400 . S
C319 C318 1.400 . S
C319 C320 1.398 . S
C319 C325 1.491 1_655 S
C320 H311 0.950 1_655 S
C320 C319 1.398 . S
C320 C321 1.391 . S
C321 H309 0.950 . S
C321 C317 1.393 . S
C321 C320 1.391 . S
C322 H312 0.950 . S
C322 C323 1.386 . S
C322 C324 1.391 . S
C323 C322 1.386 . S
C323 C327 1.393 . S
C324 H313 0.950 . S
C324 C322 1.391 . S
C324 C325 1.400 . S
C325 C319 1.491 1_455 S
C325 C324 1.400 . S
C325 C326 1.398 . S
C326 H314 0.950 1_455 S
C326 C325 1.398 . S
C326 C327 1.391 . S
C327 H315 0.950 . S
C327 C323 1.393 . S
C327 C326 1.391 . S
H328 C336 0.950 . S
H329 C341 0.950 . S
H330 C338 0.950 . S
H331 C340 0.950 . S
H332 C342 0.950 . S
H333 C344 0.950 . S
H334 C346 0.950 . S
H335 C347 0.950 . S
C336 H328 0.950 . S
C336 C337 1.386 . S
C336 C338 1.391 . S
C337 C336 1.386 . S
C337 C341 1.393 . S
C338 H330 0.950 . S
C338 C336 1.391 . S
C338 C339 1.400 . S
C339 C338 1.400 . S
C339 C340 1.398 . S
C339 C345 1.491 1_545 S
C340 H331 0.950 . S
C340 C339 1.398 . S
C340 C341 1.391 . S
C341 H329 0.950 . S
C341 C337 1.393 . S
C341 C340 1.391 . S
C342 H332 0.950 . S
C342 C343 1.386 . S
C342 C344 1.391 . S
C343 C342 1.386 . S
C343 C347 1.393 . S
C344 H333 0.950 . S
C344 C342 1.391 . S
C344 C345 1.400 . S
C345 C339 1.491 1_565 S
C345 C344 1.400 . S
C345 C346 1.398 . S
C346 H334 0.950 . S
C346 C345 1.398 . S
C346 C347 1.391 . S
C347 H335 0.950 . S
C347 C343 1.393 . S
C347 C346 1.391 . S
H348 C356 0.950 . S
H349 C361 0.950 . S
H350 C358 0.950 . S
H351 C360 0.950 . S
H352 C362 0.950 . S
H353 C364 0.950 . S
H354 C366 0.950 . S
H355 C367 0.950 . S
C356 H348 0.950 . S
C356 C357 1.386 . S
C356 C358 1.391 . S
C357 C356 1.386 . S
C357 C361 1.393 . S
C358 H350 0.950 . S
C358 C356 1.391 . S
C358 C359 1.400 . S
C359 C358 1.400 . S
C359 C360 1.398 . S
C359 C365 1.491 . S
C360 H351 0.950 . S
C360 C359 1.398 . S
C360 C361 1.391 . S
C361 H349 0.950 . S
C361 C357 1.393 . S
C361 C360 1.391 . S
C362 H352 0.950 . S
C362 C363 1.386 . S
C362 C364 1.391 . S
C363 C362 1.386 . S
C363 C367 1.393 . S
C364 H353 0.950 . S
C364 C362 1.391 . S
C364 C365 1.400 . S
C365 C359 1.491 . S
C365 C364 1.400 . S
C365 C366 1.398 . S
C366 H354 0.950 . S
C366 C365 1.398 . S
C366 C367 1.391 . S
C367 H355 0.950 . S
C367 C363 1.393 . S
C367 C366 1.391 . S
H368 C376 0.950 . S
H369 C381 0.950 . S
H370 C378 0.950 . S
H371 C380 0.950 1_455 S
H372 C382 0.950 . S
H373 C384 0.950 . S
H374 C386 0.950 1_655 S
H375 C387 0.950 . S
C376 H368 0.950 . S
C376 C377 1.386 . S
C376 C378 1.391 . S
C377 C376 1.386 . S
C377 C381 1.393 . S
C378 H370 0.950 . S
C378 C376 1.391 . S
C378 C379 1.400 . S
C379 C378 1.400 . S
C379 C380 1.398 . S
C379 C385 1.491 1_655 S
C380 H371 0.950 1_655 S
C380 C379 1.398 . S
C380 C381 1.391 . S
C381 H369 0.950 . S
C381 C377 1.393 . S
C381 C380 1.391 . S
C382 H372 0.950 . S
C382 C383 1.386 . S
C382 C384 1.391 . S
C383 C382 1.386 . S
C383 C387 1.393 . S
C384 H373 0.950 . S
C384 C382 1.391 . S
C384 C385 1.400 . S
C385 C379 1.491 1_455 S
C385 C384 1.400 . S
C385 C386 1.398 . S
C386 H374 0.950 1_455 S
C386 C385 1.398 . S
C386 C387 1.391 . S
C387 H375 0.950 . S
C387 C383 1.393 . S
C387 C386 1.391 . S
H388 C396 0.950 . S
H389 C401 0.950 . S
H390 C398 0.950 1_545 S
H391 C400 0.950 . S
H392 C402 0.950 . S
H393 C404 0.950 1_565 S
H394 C406 0.950 . S
H395 C407 0.950 . S
C396 H388 0.950 . S
C396 C397 1.386 . S
C396 C398 1.391 . S
C397 C396 1.386 . S
C397 C401 1.393 . S
C398 H390 0.950 1_565 S
C398 C396 1.391 . S
C398 C399 1.400 . S
C399 C398 1.400 . S
C399 C400 1.398 1_554 S
C399 C405 1.491 1_564 S
C400 H391 0.950 . S
C400 C399 1.398 1_556 S
C400 C401 1.391 1_556 S
C401 H389 0.950 . S
C401 C397 1.393 . S
C401 C400 1.391 1_554 S
C402 H392 0.950 . S
C402 C403 1.386 . S
C402 C404 1.391 . S
C403 C402 1.386 . S
C403 C407 1.393 . S
C404 H393 0.950 1_545 S
C404 C402 1.391 . S
C404 C405 1.400 . S
C405 C399 1.491 1_546 S
C405 C404 1.400 . S
C405 C406 1.398 1_556 S
C406 H394 0.950 . S
C406 C405 1.398 1_554 S
C406 C407 1.391 1_554 S
C407 H395 0.950 . S
C407 C403 1.393 . S
C407 C406 1.391 1_556 S
H408 C416 0.950 . S
H409 C421 0.950 . S
H410 C418 0.950 . S
H411 C420 0.950 . S
H412 C422 0.950 . S
H413 C424 0.950 . S
H414 C426 0.950 . S
H415 C427 0.950 . S
C416 H408 0.950 . S
C416 C417 1.386 . S
C416 C418 1.391 . S
C417 C416 1.386 . S
C417 C421 1.393 . S
C418 H410 0.950 . S
C418 C416 1.391 . S
C418 C419 1.400 . S
C419 C418 1.400 . S
C419 C420 1.398 . S
C419 C425 1.491 . S
C420 H411 0.950 . S
C420 C419 1.398 . S
C420 C421 1.391 . S
C421 H409 0.950 . S
C421 C417 1.393 . S
C421 C420 1.391 . S
C422 H412 0.950 . S
C422 C423 1.386 . S
C422 C424 1.391 . S
C423 C422 1.386 . S
C423 C427 1.393 . S
C424 H413 0.950 . S
C424 C422 1.391 . S
C424 C425 1.400 1_556 S
C425 C419 1.491 . S
C425 C424 1.400 1_554 S
C425 C426 1.398 . S
C426 H414 0.950 . S
C426 C425 1.398 . S
C426 C427 1.391 1_554 S
C427 H415 0.950 . S
C427 C423 1.393 . S
C427 C426 1.391 1_556 S
H428 C436 0.950 . S
H429 C441 0.950 . S
H430 C438 0.950 . S
H431 C440 0.950 . S
H432 C442 0.950 . S
H433 C444 0.950 . S
H434 C446 0.950 1_455 S
H435 C447 0.950 . S
C436 H428 0.950 . S
C436 C437 1.386 . S
C436 C438 1.391 . S
C437 C436 1.386 . S
C437 C441 1.393 . S
C438 H430 0.950 . S
C438 C436 1.391 . S
C438 C439 1.400 . S
C439 C438 1.400 . S
C439 C440 1.398 . S
C439 C445 1.491 . S
C440 H431 0.950 . S
C440 C439 1.398 . S
C440 C441 1.391 . S
C441 H429 0.950 . S
C441 C437 1.393 . S
C441 C440 1.391 . S
C442 H432 0.950 . S
C442 C443 1.386 1_655 S
C442 C444 1.391 . S
C443 C442 1.386 1_455 S
C443 C447 1.393 . S
C444 H433 0.950 . S
C444 C442 1.391 . S
C444 C445 1.400 . S
C445 C439 1.491 . S
C445 C444 1.400 . S
C445 C446 1.398 . S
C446 H434 0.950 1_655 S
C446 C445 1.398 . S
C446 C447 1.391 1_655 S
C447 H435 0.950 . S
C447 C443 1.393 . S
C447 C446 1.391 1_455 S
H448 C456 0.947 . S
H449 C461 0.950 . S
H450 C458 0.950 . S
H451 C460 0.950 . S
H452 C462 0.950 . S
H453 C464 0.950 . S
H454 C466 0.950 . S
H455 C467 0.950 . S
C456 H448 0.947 . S
C456 C457 1.397 . S
C456 C458 1.382 1_545 S
C457 C456 1.397 . S
C457 C461 1.393 . S
C458 H450 0.950 . S
C458 C456 1.382 1_565 S
C458 C459 1.400 . S
C459 C458 1.400 . S
C459 C460 1.398 . S
C459 C465 1.491 . S
C460 H451 0.950 . S
C460 C459 1.398 . S
C460 C461 1.391 1_565 S
C461 H449 0.950 . S
C461 C457 1.393 . S
C461 C460 1.391 1_545 S
C462 H452 0.950 . S
C462 C463 1.386 . S
C462 C464 1.391 . S
C463 C462 1.386 . S
C463 C467 1.393 . S
C464 H453 0.950 . S
C464 C462 1.391 . S
C464 C465 1.400 . S
C465 C459 1.491 . S
C465 C464 1.400 . S
C465 C466 1.398 . S
C466 H454 0.950 . S
C466 C465 1.398 . S
C466 C467 1.391 . S
C467 H455 0.950 . S
C467 C463 1.393 . S
C467 C466 1.391 . S
H468 C476 0.950 . S
H469 C481 0.950 . S
H470 C478 0.950 . S
H471 C480 0.950 . S
H472 C482 0.950 . S
H473 C484 0.950 . S
H474 C486 0.950 . S
H475 C487 0.950 . S
C476 H468 0.950 . S
C476 C477 1.386 . S
C476 C478 1.391 . S
C477 C476 1.386 . S
C477 C481 1.393 . S
C478 H470 0.950 . S
C478 C476 1.391 . S
C478 C479 1.400 . S
C479 C478 1.400 . S
C479 C480 1.398 . S
C479 C485 1.491 . S
C480 H471 0.950 . S
C480 C479 1.398 . S
C480 C481 1.391 . S
C481 H469 0.950 . S
C481 C477 1.393 . S
C481 C480 1.391 . S
C482 H472 0.950 . S
C482 C483 1.386 . S
C482 C484 1.391 . S
C483 C482 1.386 . S
C483 C487 1.393 . S
C484 H473 0.950 . S
C484 C482 1.391 . S
C484 C485 1.400 . S
C485 C479 1.491 . S
C485 C484 1.400 . S
C485 C486 1.398 . S
C486 H474 0.950 . S
C486 C485 1.398 . S
C486 C487 1.391 . S
C487 H475 0.950 . S
C487 C483 1.393 . S
C487 C486 1.391 . S
H488 C496 0.950 . S
H489 C501 0.950 . S
H490 C498 0.950 . S
H491 C500 0.950 . S
H492 C502 0.950 . S
H493 C504 0.950 . S
H494 C506 0.950 . S
H495 C507 0.950 . S
C496 H488 0.950 . S
C496 C497 1.386 . S
C496 C498 1.391 . S
C497 C496 1.386 . S
C497 C501 1.393 . S
C498 H490 0.950 . S
C498 C496 1.391 . S
C498 C499 1.400 . S
C499 C498 1.400 . S
C499 C500 1.398 . S
C499 C505 1.491 . S
C500 H491 0.950 . S
C500 C499 1.398 . S
C500 C501 1.391 . S
C501 H489 0.950 . S
C501 C497 1.393 . S
C501 C500 1.391 . S
C502 H492 0.950 . S
C502 C503 1.386 . S
C502 C504 1.391 . S
C503 C502 1.386 . S
C503 C507 1.393 1_655 S
C504 H493 0.950 . S
C504 C502 1.391 . S
C504 C505 1.400 1_655 S
C505 C499 1.491 . S
C505 C504 1.400 1_455 S
C505 C506 1.398 . S
C506 H494 0.950 . S
C506 C505 1.398 . S
C506 C507 1.391 . S
C507 H495 0.950 . S
C507 C503 1.393 1_455 S
C507 C506 1.391 . S
H508 C516 0.950 . S
H509 C521 0.950 . S
H510 C518 0.950 . S
H511 C520 0.950 . S
H512 C522 0.950 . S
H513 C524 0.950 . S
H514 C526 0.950 . S
H515 C527 0.950 . S
C516 H508 0.950 . S
C516 C517 1.386 . S
C516 C518 1.391 . S
C517 C516 1.386 . S
C517 C521 1.393 . S
C518 H510 0.950 . S
C518 C516 1.391 . S
C518 C519 1.400 . S
C519 C518 1.400 . S
C519 C520 1.398 . S
C519 C525 1.491 . S
C520 H511 0.950 . S
C520 C519 1.398 . S
C520 C521 1.391 . S
C521 H509 0.950 . S
C521 C517 1.393 . S
C521 C520 1.391 . S
C522 H512 0.950 . S
C522 C523 1.386 . S
C522 C524 1.391 1_565 S
C523 C522 1.386 . S
C523 C527 1.393 1_565 S
C524 H513 0.950 . S
C524 C522 1.391 1_545 S
C524 C525 1.400 . S
C525 C519 1.491 . S
C525 C524 1.400 . S
C525 C526 1.398 . S
C526 H514 0.950 . S
C526 C525 1.398 . S
C526 C527 1.391 . S
C527 H515 0.950 . S
C527 C523 1.393 1_545 S
C527 C526 1.391 . S
H528 C536 0.950 . S
H529 C541 0.950 . S
H530 C538 0.950 . S
H531 C540 0.950 . S
H532 C542 0.950 . S
H533 C544 0.950 . S
H534 C546 0.950 . S
H535 C547 0.950 . S
C536 H528 0.950 . S
C536 C537 1.386 . S
C536 C538 1.391 . S
C537 C536 1.386 . S
C537 C541 1.393 . S
C538 H530 0.950 . S
C538 C536 1.391 . S
C538 C539 1.400 . S
C539 C538 1.400 . S
C539 C540 1.398 . S
C539 C545 1.491 . S
C540 H531 0.950 . S
C540 C539 1.398 . S
C540 C541 1.391 . S
C541 H529 0.950 . S
C541 C537 1.393 . S
C541 C540 1.391 . S
C542 H532 0.950 . S
C542 C543 1.386 . S
C542 C544 1.391 . S
C543 C542 1.386 . S
C543 C547 1.393 . S
C544 H533 0.950 . S
C544 C542 1.391 . S
C544 C545 1.400 . S
C545 C539 1.491 . S
C545 C544 1.400 . S
C545 C546 1.398 . S
C546 H534 0.950 . S
C546 C545 1.398 . S
C546 C547 1.391 . S
C547 H535 0.950 . S
C547 C543 1.393 . S
C547 C546 1.391 . S
H548 C556 0.950 . S
H549 C561 0.950 . S
H550 C558 0.950 . S
H551 C560 0.950 . S
H552 C562 0.950 . S
H553 C564 0.950 1_556 S
H554 C566 0.950 . S
H555 C567 0.950 . S
C556 H548 0.950 . S
C556 C557 1.386 . S
C556 C558 1.391 . S
C557 C556 1.386 . S
C557 C561 1.393 . S
C558 H550 0.950 . S
C558 C556 1.391 . S
C558 C559 1.400 . S
C559 C558 1.400 . S
C559 C560 1.398 . S
C559 C565 1.491 . S
C560 H551 0.950 . S
C560 C559 1.398 . S
C560 C561 1.391 . S
C561 H549 0.950 . S
C561 C557 1.393 . S
C561 C560 1.391 . S
C562 H552 0.950 . S
C562 C563 1.386 . S
C562 C564 1.391 1_455 S
C563 C562 1.386 . S
C563 C567 1.393 1_455 S
C564 H553 0.950 1_554 S
C564 C562 1.391 1_655 S
C564 C565 1.400 1_554 S
C565 C559 1.491 . S
C565 C564 1.400 1_556 S
C565 C566 1.398 1_556 S
C566 H554 0.950 . S
C566 C565 1.398 1_554 S
C566 C567 1.391 . S
C567 H555 0.950 . S
C567 C563 1.393 1_655 S
C567 C566 1.391 . S
H568 C576 0.950 . S
H569 C581 0.950 . S
H570 C578 0.950 . S
H571 C580 0.950 . S
H572 C582 0.950 . S
H573 C584 0.950 . S
H574 C586 0.950 . S
H575 C587 0.950 . S
C576 H568 0.950 . S
C576 C577 1.386 . S
C576 C578 1.391 . S
C577 C576 1.386 . S
C577 C581 1.393 . S
C578 H570 0.950 . S
C578 C576 1.391 . S
C578 C579 1.400 . S
C579 C578 1.400 . S
C579 C580 1.398 . S
C579 C585 1.491 . S
C580 H571 0.950 . S
C580 C579 1.398 . S
C580 C581 1.391 . S
C581 H569 0.950 . S
C581 C577 1.393 . S
C581 C580 1.391 . S
C582 H572 0.950 . S
C582 C583 1.386 . S
C582 C584 1.391 1_545 S
C583 C582 1.386 . S
C583 C587 1.393 . S
C584 H573 0.950 . S
C584 C582 1.391 1_565 S
C584 C585 1.400 . S
C585 C579 1.491 . S
C585 C584 1.400 . S
C585 C586 1.398 . S
C586 H574 0.950 . S
C586 C585 1.398 . S
C586 C587 1.391 1_565 S
C587 H575 0.950 . S
C587 C583 1.393 . S
C587 C586 1.391 1_545 S
H588 C596 0.950 . S
H589 C601 0.950 . S
H590 C598 0.950 . S
H591 C600 0.950 . S
H592 C602 0.950 . S
H593 C604 0.950 . S
H594 C606 0.950 . S
H595 C607 0.950 . S
C596 H588 0.950 . S
C596 C597 1.386 . S
C596 C598 1.391 . S
C597 C596 1.386 . S
C597 C601 1.393 . S
C598 H590 0.950 . S
C598 C596 1.391 . S
C598 C599 1.400 . S
C599 C598 1.400 . S
C599 C600 1.398 . S
C599 C605 1.491 . S
C600 H591 0.950 . S
C600 C599 1.398 . S
C600 C601 1.391 . S
C601 H589 0.950 . S
C601 C597 1.393 . S
C601 C600 1.391 . S
C602 H592 0.950 . S
C602 C603 1.386 . S
C602 C604 1.391 . S
C603 C602 1.386 . S
C603 C607 1.393 . S
C604 H593 0.950 . S
C604 C602 1.391 . S
C604 C605 1.400 . S
C605 C599 1.491 . S
C605 C604 1.400 . S
C605 C606 1.398 . S
C606 H594 0.950 . S
C606 C605 1.398 . S
C606 C607 1.391 . S
C607 H595 0.950 . S
C607 C603 1.393 . S
C607 C606 1.391 . S
H608 C616 0.950 . S
H609 C621 0.950 . S
H610 C618 0.950 . S
H611 C620 0.950 . S
H612 C622 0.950 . S
H613 C624 0.950 . S
H614 C626 0.950 . S
H615 C627 0.950 1_655 S
C616 H608 0.950 . S
C616 C617 1.386 . S
C616 C618 1.391 . S
C617 C616 1.386 . S
C617 C621 1.393 . S
C618 H610 0.950 . S
C618 C616 1.391 . S
C618 C619 1.400 . S
C619 C618 1.400 . S
C619 C620 1.398 . S
C619 C625 1.491 . S
C620 H611 0.950 . S
C620 C619 1.398 . S
C620 C621 1.391 . S
C621 H609 0.950 . S
C621 C617 1.393 . S
C621 C620 1.391 . S
C622 H612 0.950 . S
C622 C623 1.386 . S
C622 C624 1.391 1_655 S
C623 C622 1.386 . S
C623 C627 1.393 1_655 S
C624 H613 0.950 . S
C624 C622 1.391 1_455 S
C624 C625 1.400 . S
C625 C619 1.491 . S
C625 C624 1.400 . S
C625 C626 1.398 . S
C626 H614 0.950 . S
C626 C625 1.398 . S
C626 C627 1.391 . S
C627 H615 0.950 1_455 S
C627 C623 1.393 1_455 S
C627 C626 1.391 . S
H628 C636 0.950 . S
H629 C641 0.946 . S
H630 C638 0.950 . S
H631 C640 0.950 . S
H632 C642 0.950 . S
H633 C644 0.950 . S
H634 C646 0.950 . S
H635 C647 0.950 . S
C636 H628 0.950 . S
C636 C637 1.386 . S
C636 C638 1.391 1_565 S
C637 C636 1.386 . S
C637 C641 1.404 . S
C638 H630 0.950 . S
C638 C636 1.391 1_545 S
C638 C639 1.400 . S
C639 C638 1.400 . S
C639 C640 1.398 . S
C639 C645 1.491 . S
C640 H631 0.950 . S
C640 C639 1.398 . S
C640 C641 1.384 1_545 S
C641 H629 0.946 . S
C641 C637 1.404 . S
C641 C640 1.384 1_565 S
C642 H632 0.950 . S
C642 C643 1.386 . S
C642 C644 1.391 . S
C643 C642 1.386 . S
C643 C647 1.393 . S
C644 H633 0.950 . S
C644 C642 1.391 . S
C644 C645 1.400 . S
C645 C639 1.491 . S
C645 C644 1.400 . S
C645 C646 1.398 . S
C646 H634 0.950 . S
C646 C645 1.398 . S
C646 C647 1.391 . S
C647 H635 0.950 . S
C647 C643 1.393 . S
C647 C646 1.391 . S
C177 C120 1.294 . S
C183 C8 1.295 . S
C197 C22 1.295 . S
C203 C134 1.293 . S
C217 C36 1.293 . S
C223 C148 1.293 . S
C237 C50 1.293 . S
C243 C162 1.294 . S
C257 C92 1.295 . S
C263 C64 1.295 . S
C277 C78 1.295 . S
C283 C106 1.294 . S
C297 C135 0.970 . S
C303 C9 0.941 . S
C317 C23 0.936 . S
C323 C149 0.968 . S
C337 C163 0.943 . S
C343 C37 0.948 . S
C357 C51 0.970 . S
C363 C93 0.941 . S
C377 C107 0.935 . S
C383 C65 0.966 . S
C397 C121 0.968 . S
C403 C79 0.937 . S
C417 C3 1.441 . S
C423 C77 1.409 . S
C437 C17 1.439 . S
C443 C7 1.410 . S
C457 C21 1.387 . S
C463 C31 1.437 . S
C477 C45 1.425 . S
C483 C35 1.397 . S
C497 C59 1.423 . S
C503 C49 1.389 . S
C517 C73 1.427 . S
C523 C63 1.400 . S
C537 C87 1.433 . S
C543 C105 1.408 . S
C557 C101 1.426 . S
C563 C119 1.398 . S
C577 C115 1.436 . S
C583 C133 1.386 . S
C597 C129 1.441 . S
C603 C147 1.394 . S
C617 C143 1.428 . S
C623 C161 1.403 . S
C637 C91 1.391 . S
C643 C157 1.440 . S
