# Generated by pormake.
# Topology crb, (4)-cn, num edge types: 1
# Building blocks:
#     Node 0, Type 0, BuildingBlock: NAHDIM_clean_sbu_0, # of connection points: 4
#     Node 1, Type 0, BuildingBlock: NAHDIM_clean_sbu_0, # of connection points: 4
#     Node 2, Type 0, BuildingBlock: NAHDIM_clean_sbu_0, # of connection points: 4
#     Node 3, Type 0, BuildingBlock: NAHDIM_clean_sbu_0, # of connection points: 4
#     Node 4, Type 0, BuildingBlock: NAHDIM_clean_sbu_0, # of connection points: 4
#     Node 5, Type 0, BuildingBlock: NAHDIM_clean_sbu_0, # of connection points: 4
#     Node 6, Type 0, BuildingBlock: NAHDIM_clean_sbu_0, # of connection points: 4
#     Node 7, Type 0, BuildingBlock: NAHDIM_clean_sbu_0, # of connection points: 4
#     Edge 8, Type (0, 0), BuildingBlock: XUDNAN_clean_linker_2, # of connection points: 2
#     Edge 9, Type (0, 0), BuildingBlock: XUDNAN_clean_linker_2, # of connection points: 2
#     Edge 10, Type (0, 0), BuildingBlock: XUDNAN_clean_linker_2, # of connection points: 2
#     Edge 11, Type (0, 0), BuildingBlock: XUDNAN_clean_linker_2, # of connection points: 2
#     Edge 12, Type (0, 0), BuildingBlock: XUDNAN_clean_linker_2, # of connection points: 2
#     Edge 13, Type (0, 0), BuildingBlock: XUDNAN_clean_linker_2, # of connection points: 2
#     Edge 14, Type (0, 0), BuildingBlock: XUDNAN_clean_linker_2, # of connection points: 2
#     Edge 15, Type (0, 0), BuildingBlock: XUDNAN_clean_linker_2, # of connection points: 2
#     Edge 16, Type (0, 0), BuildingBlock: XUDNAN_clean_linker_2, # of connection points: 2
#     Edge 17, Type (0, 0), BuildingBlock: XUDNAN_clean_linker_2, # of connection points: 2
#     Edge 18, Type (0, 0), BuildingBlock: XUDNAN_clean_linker_2, # of connection points: 2
#     Edge 19, Type (0, 0), BuildingBlock: XUDNAN_clean_linker_2, # of connection points: 2
#     Edge 20, Type (0, 0), BuildingBlock: XUDNAN_clean_linker_2, # of connection points: 2
#     Edge 21, Type (0, 0), BuildingBlock: XUDNAN_clean_linker_2, # of connection points: 2
#     Edge 22, Type (0, 0), BuildingBlock: XUDNAN_clean_linker_2, # of connection points: 2
#     Edge 23, Type (0, 0), BuildingBlock: XUDNAN_clean_linker_2, # of connection points: 2
# Relax obj value: 0.033
# Max RMSD: 0.066
# Mean RMSD: 0.066
data_MOF--net-crb--node1-NAHDIM_clean_sbu_0--edge1-XUDNAN_clean_linker_2
_symmetry_space_group_name_H-M    P1
_symmetry_Int_Tables_number       1
_symmetry_cell_setting            triclinic
loop_
_symmetry_equiv_pos_as_xyz
'x, y, z'
_cell_length_a     41.889066
_cell_length_b     43.834287
_cell_length_c     24.546701
_cell_angle_alpha  89.965275
_cell_angle_beta   90.018274
_cell_angle_gamma 90.023114
loop_
_atom_site_label
_atom_site_type_symbol
_atom_site_fract_x
_atom_site_fract_y
_atom_site_fract_z
_atom_type_partial_charge
C0 C 0.30665 0.26157 0.14456 0.0
O1 O 0.32729 0.25107 0.10888 0.0
O2 O 0.36896 0.3105 0.10015 0.0
Zn3 Zn 0.3218 0.31422 0.08498 0.0
O4 O 0.31131 0.29727 0.01077 0.0
C5 C 0.31653 0.37525 0.04676 0.0
O6 O 0.3298 0.36239 0.00409 0.0
O7 O 0.29903 0.28962 0.14261 0.0
C8 C 0.28263 0.29052 0.99899 0.0
O9 O 0.26029 0.29448 0.03587 0.0
C10 C 0.39068 0.31306 0.06431 0.0
O11 O 0.38266 0.31823 0.0134 0.0
O12 O 0.30981 0.3588 0.08789 0.0
C13 C 0.6874 0.28722 0.97518 0.0
O14 O 0.66772 0.27552 0.01127 0.0
O15 O 0.63664 0.328 0.06095 0.0
Zn16 Zn 0.68407 0.33496 0.05227 0.0
O17 O 0.70786 0.31794 0.11741 0.0
C18 C 0.68619 0.39538 0.0922 0.0
O19 O 0.67753 0.3803 0.13606 0.0
O20 O 0.69877 0.3137 0.98361 0.0
C21 C 0.73497 0.32885 0.1301 0.0
O22 O 0.74754 0.35018 0.09917 0.0
C23 C 0.624 0.3195 0.10552 0.0
O24 O 0.64229 0.31476 0.14817 0.0
O25 O 0.69104 0.38063 0.04838 0.0
C26 C 0.68867 0.73639 0.11775 0.0
O27 O 0.66963 0.74635 0.07908 0.0
O28 O 0.63754 0.69178 0.04163 0.0
Zn29 Zn 0.68456 0.68319 0.05176 0.0
O30 O 0.70926 0.69573 0.98449 0.0
C31 C 0.69452 0.61736 0.03649 0.0
O32 O 0.69471 0.62385 0.98423 0.0
O33 O 0.69924 0.70924 0.11492 0.0
C34 C 0.69555 0.70167 0.93945 0.0
O35 O 0.6645 0.69817 0.93545 0.0
C36 C 0.61624 0.67218 0.02998 0.0
O37 O 0.62447 0.64356 0.02271 0.0
O38 O 0.69109 0.6388 0.0709 0.0
C39 C 0.31119 0.69543 0.90769 0.0
O40 O 0.33774 0.70948 0.92112 0.0
O41 O 0.36989 0.66759 0.00473 0.0
Zn42 Zn 0.322 0.66269 0.0091 0.0
O43 O 0.30515 0.69008 0.0683 0.0
C44 C 0.32026 0.59736 0.99642 0.0
O45 O 0.33547 0.60385 0.95106 0.0
O46 O 0.30054 0.67438 0.93838 0.0
C47 C 0.30179 0.68092 0.11708 0.0
O48 O 0.30911 0.65262 0.12945 0.0
C49 C 0.38289 0.69268 0.01833 0.0
O50 O 0.36472 0.7155 0.03381 0.0
O51 O 0.31172 0.619 0.02758 0.0
C52 C 0.77483 0.80699 0.61274 0.0
O53 O 0.75152 0.811 0.57764 0.0
O54 O 0.86126 0.83545 0.52296 0.0
Zn55 Zn 0.81398 0.84098 0.53402 0.0
O56 O 0.78977 0.82486 0.46865 0.0
C57 C 0.81983 0.90529 0.51378 0.0
O58 O 0.83953 0.89527 0.47618 0.0
O59 O 0.80229 0.81785 0.60227 0.0
C60 C 0.76634 0.8394 0.44839 0.0
O61 O 0.75712 0.86496 0.47141 0.0
C62 C 0.8735 0.81983 0.48469 0.0
O63 O 0.85472 0.8063 0.44929 0.0
O64 O 0.80558 0.88608 0.54412 0.0
C65 C 0.20739 0.78376 0.43331 0.0
O66 O 0.19776 0.76303 0.46834 0.0
O67 O 0.12895 0.81497 0.49092 0.0
Zn68 Zn 0.17506 0.82326 0.50795 0.0
O69 O 0.18845 0.79762 0.57222 0.0
C70 C 0.18397 0.87958 0.56996 0.0
O71 O 0.18507 0.86132 0.61235 0.0
O72 O 0.20086 0.81162 0.44217 0.0
C73 C 0.21698 0.79771 0.58983 0.0
O74 O 0.23819 0.81545 0.56629 0.0
C75 C 0.10693 0.82516 0.52146 0.0
O76 O 0.11468 0.84085 0.56511 0.0
O77 O 0.18027 0.86832 0.52265 0.0
C78 C 0.18955 0.19814 0.67065 0.0
O79 O 0.16062 0.18832 0.68161 0.0
O80 O 0.13098 0.1766 0.56993 0.0
Zn81 Zn 0.17823 0.16838 0.56704 0.0
O82 O 0.19594 0.17944 0.49291 0.0
C83 C 0.1751 0.10327 0.55016 0.0
O84 O 0.16104 0.11153 0.50462 0.0
O85 O 0.20157 0.19267 0.62415 0.0
C86 C 0.21933 0.16466 0.47313 0.0
O87 O 0.23165 0.14203 0.50123 0.0
C88 C 0.11872 0.20198 0.55634 0.0
O89 O 0.13745 0.22418 0.53983 0.0
O90 O 0.18476 0.12371 0.58295 0.0
C91 C 0.81091 0.24176 0.47644 0.0
O92 O 0.83043 0.25362 0.5126 0.0
O93 O 0.8637 0.20283 0.55698 0.0
Zn94 Zn 0.81645 0.19391 0.55246 0.0
O95 O 0.79412 0.21054 0.61928 0.0
C96 C 0.82296 0.1297 0.51811 0.0
O97 O 0.84422 0.14001 0.48333 0.0
O98 O 0.79994 0.21509 0.48473 0.0
C99 C 0.76803 0.19813 0.6338 0.0
O100 O 0.75633 0.17585 0.60411 0.0
C101 C 0.88503 0.18541 0.57666 0.0
O102 O 0.8767 0.15903 0.59773 0.0
O103 O 0.80874 0.14836 0.54942 0.0
H104 H 0.33342 0.41674 0.9686 0.0
H105 H 0.28832 0.4094 0.12731 0.0
H106 H 0.28216 0.46548 0.13006 0.0
H107 H 0.37823 0.48316 0.99687 0.0
H108 H 0.37364 0.49926 0.92974 0.0
H109 H 0.3726 0.45853 0.93885 0.0
H110 H 0.31723 0.4563 0.89185 0.0
H111 H 0.31812 0.49705 0.88245 0.0
H112 H 0.28506 0.47951 0.91752 0.0
H113 H 0.28306 0.52265 0.11688 0.0
H114 H 0.29115 0.57628 0.08919 0.0
H115 H 0.33607 0.54573 0.93944 0.0
C116 C 0.32192 0.42682 0.00375 0.0
C117 C 0.31126 0.40864 0.0477 0.0
C118 C 0.29661 0.42285 0.0931 0.0
C119 C 0.29298 0.45468 0.09501 0.0
C120 C 0.30409 0.47193 0.05118 0.0
C121 C 0.3182 0.45847 0.00638 0.0
C122 C 0.32918 0.48212 0.96549 0.0
C123 C 0.36557 0.48067 0.95729 0.0
C124 C 0.31132 0.47853 0.91111 0.0
C125 C 0.31939 0.51106 0.99455 0.0
C126 C 0.30478 0.50472 0.04376 0.0
C127 C 0.29431 0.52786 0.07829 0.0
C128 C 0.29904 0.55826 0.0622 0.0
C129 C 0.31422 0.56525 0.0121 0.0
C130 C 0.3243 0.54121 0.97788 0.0
H131 H 0.44349 0.32419 0.00096 0.0
H132 H 0.41481 0.29719 0.16402 0.0
H133 H 0.47139 0.29468 0.1916 0.0
H134 H 0.51415 0.27675 0.99297 0.0
H135 H 0.53705 0.30494 0.95645 0.0
H136 H 0.49429 0.30369 0.94899 0.0
H137 H 0.49065 0.36043 0.97792 0.0
H138 H 0.53338 0.36185 0.98551 0.0
H139 H 0.50797 0.37227 0.04175 0.0
H140 H 0.53099 0.29613 0.2021 0.0
H141 H 0.58947 0.30183 0.19488 0.0
H142 H 0.57924 0.32822 0.02519 0.0
C143 C 0.44908 0.31754 0.04237 0.0
C144 C 0.42468 0.31084 0.08029 0.0
C145 C 0.43306 0.30246 0.13422 0.0
C146 C 0.46514 0.30092 0.15029 0.0
C147 C 0.48858 0.30785 0.112 0.0
C148 C 0.48098 0.316 0.05917 0.0
C149 C 0.51071 0.32304 0.02637 0.0
C150 C 0.51425 0.30077 0.97836 0.0
C151 C 0.51066 0.35638 0.00675 0.0
C152 C 0.53619 0.31769 0.06909 0.0
C153 C 0.52293 0.30885 0.11815 0.0
C154 C 0.54167 0.30296 0.16385 0.0
C155 C 0.57487 0.30628 0.15934 0.0
C156 C 0.58898 0.31547 0.1095 0.0
C157 C 0.56925 0.32111 0.06385 0.0
H158 H 0.69352 0.43553 0.00654 0.0
H159 H 0.68665 0.43125 0.18291 0.0
H160 H 0.6907 0.48726 0.18766 0.0
H161 H 0.74971 0.49922 1.00002 0.0
H162 H 0.73096 0.51599 0.94108 0.0
H163 H 0.72934 0.47532 0.9514 0.0
H164 H 0.6676 0.47697 0.9456 0.0
H165 H 0.66902 0.51762 0.93531 0.0
H166 H 0.64574 0.50197 0.9904 0.0
H167 H 0.69353 0.54353 0.1737 0.0
H168 H 0.69385 0.59682 0.14171 0.0
H169 H 0.69824 0.56521 0.97417 0.0
C170 C 0.69321 0.44636 0.04617 0.0
C171 C 0.68985 0.42896 0.09438 0.0
C172 C 0.68918 0.44405 0.1454 0.0
C173 C 0.69155 0.47588 0.14858 0.0
C174 C 0.69456 0.49236 0.10037 0.0
C175 C 0.69537 0.47821 0.0501 0.0
C176 C 0.69747 0.50147 0.00447 0.0
C177 C 0.72873 0.49778 0.97236 0.0
C178 C 0.66821 0.49938 0.96673 0.0
C179 C 0.69734 0.53087 0.03699 0.0
C180 C 0.69589 0.52503 0.09224 0.0
C181 C 0.69482 0.54842 0.13054 0.0
C182 C 0.69501 0.57864 0.11191 0.0
C183 C 0.69611 0.58528 0.05541 0.0
C184 C 0.69753 0.56095 0.01761 0.0
H185 H 0.42795 0.64811 0.00143 0.0
H186 H 0.41731 0.74482 0.03517 0.0
H187 H 0.47588 0.75036 0.03804 0.0
H188 H 0.49357 0.63572 0.09031 0.0
H189 H 0.51338 0.60884 0.04624 0.0
H190 H 0.47062 0.61271 0.04369 0.0
H191 H 0.47364 0.62389 0.94014 0.0
H192 H 0.51644 0.62001 0.94235 0.0
H193 H 0.49874 0.65445 0.91593 0.0
H194 H 0.53533 0.7452 0.04044 0.0
H195 H 0.59184 0.72958 0.04324 0.0
H196 H 0.56398 0.63608 0.00881 0.0
C197 C 0.43793 0.67052 0.00889 0.0
C198 C 0.41803 0.69606 0.01793 0.0
C199 C 0.43205 0.72492 0.0281 0.0
C200 C 0.4653 0.72832 0.02971 0.0
C201 C 0.48421 0.70266 0.0211 0.0
C202 C 0.47109 0.67431 0.01087 0.0
C203 C 0.49678 0.65022 0.00491 0.0
C204 C 0.49338 0.62542 0.04892 0.0
C205 C 0.49637 0.63633 0.9474 0.0
C206 C 0.52638 0.66942 0.01396 0.0
C207 C 0.51858 0.69963 0.0229 0.0
C208 C 0.54177 0.72163 0.03326 0.0
C209 C 0.57381 0.71251 0.03481 0.0
C210 C 0.58239 0.6816 0.02623 0.0
C211 C 0.55825 0.65989 0.01536 0.0
H212 H 0.85022 0.95217 0.46082 0.0
H213 H 0.77783 0.93356 0.58299 0.0
H214 H 0.76977 0.98894 0.59553 0.0
H215 H 0.88477 0.01663 0.52763 0.0
H216 H 0.89229 0.03731 0.46545 0.0
H217 H 0.89165 0.99624 0.46495 0.0
H218 H 0.84835 0.99702 0.38953 0.0
H219 H 0.84884 0.03812 0.38982 0.0
H220 H 0.81188 0.01793 0.40063 0.0
H221 H 0.77028 0.04633 0.5959 0.0
H222 H 0.77972 0.10155 0.58503 0.0
H223 H 0.85199 0.0827 0.46277 0.0
C224 C 0.83255 0.95969 0.49005 0.0
C225 C 0.81461 0.93848 0.52088 0.0
C226 C 0.79186 0.94934 0.5589 0.0
C227 C 0.78707 0.98076 0.56626 0.0
C228 C 0.80523 0.00102 0.53532 0.0
C229 C 0.82753 0.99094 0.49801 0.0
C230 C 0.84439 0.01745 0.4707 0.0
C231 C 0.88041 0.01686 0.48294 0.0
C232 C 0.83797 0.01763 0.40901 0.0
C233 C 0.82817 0.04405 0.49864 0.0
C234 C 0.8056 0.03408 0.53565 0.0
C235 C 0.78784 0.05441 0.56693 0.0
C236 C 0.79339 0.08576 0.56044 0.0
C237 C 0.81657 0.09654 0.52298 0.0
C238 C 0.83402 0.07527 0.49157 0.0
H239 H 0.05411 0.84589 0.57595 0.0
H240 H 0.08302 0.79321 0.43455 0.0
H241 H 0.0264 0.78576 0.40986 0.0
H242 H 0.98472 0.80095 0.60955 0.0
H243 H 0.9614 0.8335 0.63015 0.0
H244 H 0.0042 0.83425 0.63699 0.0
H245 H 0.0065 0.8838 0.57941 0.0
H246 H 0.96372 0.88317 0.5723 0.0
H247 H 0.98869 0.88432 0.51254 0.0
H248 H 0.96647 0.78453 0.40014 0.0
H249 H 0.90782 0.78955 0.4064 0.0
H250 H 0.9186 0.84326 0.55389 0.0
C251 C 0.04859 0.83269 0.53988 0.0
C252 C 0.07302 0.82011 0.50722 0.0
C253 C 0.06472 0.80305 0.46026 0.0
C254 C 0.03263 0.79869 0.44587 0.0
C255 C 0.00915 0.81152 0.47886 0.0
C256 C 0.01674 0.82814 0.52491 0.0
C257 C 0.98705 0.83976 0.5532 0.0
C258 C 0.98418 0.8263 0.61088 0.0
C259 C 0.98647 0.87484 0.5544 0.0
C260 C 0.96156 0.82718 0.51575 0.0
C261 C 0.97475 0.81091 0.47316 0.0
C262 C 0.95586 0.7972 0.43335 0.0
C263 C 0.92258 0.80018 0.43725 0.0
C264 C 0.90859 0.81679 0.4806 0.0
C265 C 0.92849 0.83043 0.52021 0.0
H266 H 0.16475 0.05408 0.48343 0.0
H267 H 0.1955 0.07857 0.6466 0.0
H268 H 0.20196 0.02401 0.66908 0.0
H269 H 0.11992 0.98791 0.52031 0.0
H270 H 0.13163 0.9663 0.46116 0.0
H271 H 0.12983 0.00729 0.45774 0.0
H272 H 0.18877 0.009 0.42573 0.0
H273 H 0.19075 0.96799 0.42904 0.0
H274 H 0.21913 0.99077 0.46637 0.0
H275 H 0.20331 0.96667 0.67472 0.0
H276 H 0.20109 0.91079 0.66208 0.0
H277 H 0.17089 0.92401 0.4945 0.0
C278 C 0.17288 0.048 0.52388 0.0
C279 C 0.17955 0.0706 0.5633 0.0
C280 C 0.19028 0.06167 0.61569 0.0
C281 C 0.194 0.03073 0.62889 0.0
C282 C 0.18712 0.00904 0.58913 0.0
C283 C 0.17696 0.01727 0.53761 0.0
C284 C 0.1712 0.9895 0.50229 0.0
C285 C 0.13606 0.98765 0.48434 0.0
C286 C 0.19382 0.98931 0.45295 0.0
C287 C 0.17944 0.96435 0.54215 0.0
C288 C 0.1885 0.97607 0.59205 0.0
C289 C 0.19644 0.95722 0.63572 0.0
C290 C 0.19505 0.92552 0.62818 0.0
C291 C 0.18596 0.91303 0.57727 0.0
C292 C 0.17821 0.93283 0.53377 0.0
H293 H 0.93773 0.15107 0.60304 0.0
H294 H 0.90937 0.24003 0.54198 0.0
H295 H 0.96601 0.25453 0.5328 0.0
H296 H 0.0069 0.17681 0.67997 0.0
H297 H 0.03037 0.1437 0.66298 0.0
H298 H 0.98754 0.14079 0.66704 0.0
H299 H 0.98582 0.11953 0.56858 0.0
H300 H 0.02861 0.12244 0.56417 0.0
H301 H 0.00388 0.14111 0.51414 0.0
H302 H 0.02579 0.25888 0.52763 0.0
H303 H 0.08438 0.25256 0.5265 0.0
H304 H 0.07363 0.16065 0.59013 0.0
C305 C 0.94339 0.1737 0.58823 0.0
C306 C 0.91906 0.19443 0.5734 0.0
C307 C 0.92756 0.22374 0.55369 0.0
C308 C 0.95968 0.23223 0.54836 0.0
C309 C 0.98306 0.21117 0.56289 0.0
C310 C 0.97535 0.18252 0.58247 0.0
C311 C 0.00506 0.16387 0.5937 0.0
C312 C 0.00761 0.15583 0.65454 0.0
C313 C 0.00588 0.13504 0.55801 0.0
C314 C 0.03065 0.18641 0.57694 0.0
C315 C 0.01749 0.2136 0.55954 0.0
C316 C 0.03639 0.23772 0.54137 0.0
C317 C 0.06965 0.23391 0.54085 0.0
C318 C 0.08365 0.20614 0.55822 0.0
C319 C 0.06374 0.18219 0.57665 0.0
H320 H 0.21152 0.21829 0.41642 0.0
H321 H 0.25871 0.13021 0.40961 0.0
H322 H 0.28354 0.14455 0.32215 0.0
H323 H 0.19686 0.22644 0.2702 0.0
H324 H 0.20517 0.26679 0.27013 0.0
H325 H 0.18916 0.24887 0.33031 0.0
H326 H 0.2367 0.26952 0.38693 0.0
H327 H 0.25285 0.28747 0.32698 0.0
H328 H 0.27693 0.26111 0.36559 0.0
H329 H 0.30463 0.16875 0.23753 0.0
H330 H 0.3225 0.20204 0.16265 0.0
H331 H 0.26302 0.27525 0.22505 0.0
C332 C 0.22675 0.20189 0.39615 0.0
C333 C 0.23307 0.17306 0.41968 0.0
C334 C 0.25354 0.15241 0.39236 0.0
C335 C 0.26766 0.1603 0.34256 0.0
C336 C 0.2612 0.18897 0.32073 0.0
C337 C 0.24134 0.20952 0.34663 0.0
C338 C 0.2398 0.23947 0.31577 0.0
C339 C 0.20572 0.24575 0.29539 0.0
C340 C 0.25232 0.26595 0.35092 0.0
C341 C 0.26219 0.23263 0.26884 0.0
C342 C 0.27398 0.20325 0.27227 0.0
C343 C 0.29549 0.19176 0.23427 0.0
C344 C 0.3055 0.21089 0.19185 0.0
C345 C 0.29421 0.24129 0.18792 0.0
C346 C 0.27204 0.25213 0.22682 0.0
H347 H 0.72038 0.28022 0.19688 0.0
H348 H 0.78614 0.35618 0.17858 0.0
H349 H 0.81215 0.34209 0.26506 0.0
H350 H 0.71098 0.28531 0.34166 0.0
H351 H 0.71006 0.24463 0.3524 0.0
H352 H 0.69649 0.2604 0.2887 0.0
H353 H 0.73646 0.22613 0.23642 0.0
H354 H 0.75007 0.21017 0.29996 0.0
H355 H 0.77825 0.22746 0.25384 0.0
H356 H 0.82982 0.32129 0.35447 0.0
H357 H 0.84048 0.29303 0.43922 0.0
H358 H 0.76478 0.22911 0.39917 0.0
C359 C 0.74032 0.29382 0.211 0.0
C360 C 0.7512 0.31935 0.18094 0.0
C361 C 0.77743 0.33648 0.20072 0.0
C362 C 0.79232 0.32873 0.24992 0.0
C363 C 0.78091 0.3036 0.27868 0.0
C364 C 0.75572 0.2862 0.25985 0.0
C365 C 0.74849 0.2601 0.29858 0.0
C366 C 0.71449 0.26279 0.3217 0.0
C367 C 0.75363 0.22913 0.27051 0.0
C368 C 0.77342 0.26573 0.34226 0.0
C369 C 0.7917 0.29106 0.32998 0.0
C370 C 0.81581 0.3013 0.36442 0.0
C371 C 0.8216 0.28511 0.4126 0.0
C372 C 0.80354 0.25879 0.42584 0.0
C373 C 0.7791 0.24903 0.39006 0.0
H374 H 0.77668 0.78549 0.39364 0.0
H375 H 0.71992 0.86837 0.38966 0.0
H376 H 0.6942 0.85097 0.30482 0.0
H377 H 0.78979 0.77982 0.24974 0.0
H378 H 0.78649 0.73883 0.24798 0.0
H379 H 0.80035 0.75756 0.30884 0.0
H380 H 0.75578 0.73111 0.36478 0.0
H381 H 0.74183 0.71222 0.30412 0.0
H382 H 0.71475 0.73516 0.34379 0.0
H383 H 0.67557 0.82542 0.21953 0.0
H384 H 0.66358 0.79238 0.14094 0.0
H385 H 0.73155 0.72544 0.20071 0.0
C386 C 0.75878 0.79996 0.37502 0.0
C387 C 0.75035 0.82834 0.39833 0.0
C388 C 0.72677 0.84653 0.37269 0.0
C389 C 0.71204 0.83688 0.3244 0.0
C390 C 0.72102 0.80891 0.30236 0.0
C391 C 0.74369 0.7906 0.32691 0.0
C392 C 0.74884 0.76146 0.29481 0.0
C393 C 0.78342 0.75931 0.27412 0.0
C394 C 0.73975 0.73333 0.32891 0.0
C395 C 0.72561 0.76635 0.24827 0.0
C396 C 0.70991 0.79392 0.25339 0.0
C397 C 0.68761 0.80373 0.21515 0.0
C398 C 0.68103 0.78479 0.17056 0.0
C399 C 0.69657 0.75627 0.16462 0.0
C400 C 0.71919 0.74704 0.20413 0.0
H401 H 0.22766 0.72651 0.4048 0.0
H402 H 0.22451 0.82019 0.34735 0.0
H403 H 0.24975 0.8043 0.26103 0.0
H404 H 0.30437 0.70733 0.34409 0.0
H405 H 0.29229 0.66898 0.32745 0.0
H406 H 0.27512 0.68801 0.3855 0.0
H407 H 0.21844 0.67841 0.34675 0.0
H408 H 0.23541 0.65947 0.28852 0.0
H409 H 0.20887 0.69138 0.27897 0.0
H410 H 0.27263 0.77774 0.17914 0.0
H411 H 0.29344 0.74271 0.10887 0.0
H412 H 0.28254 0.66664 0.22074 0.0
C413 C 0.23248 0.74376 0.37428 0.0
C414 C 0.22407 0.7746 0.38282 0.0
C415 C 0.23079 0.79643 0.34178 0.0
C416 C 0.24509 0.78763 0.2926 0.0
C417 C 0.25273 0.75698 0.28527 0.0
C418 C 0.24687 0.73541 0.32512 0.0
C419 C 0.25692 0.70388 0.30675 0.0
C420 C 0.28378 0.69132 0.34311 0.0
C421 C 0.22819 0.68201 0.30515 0.0
C422 C 0.26893 0.71101 0.25003 0.0
C423 C 0.26633 0.74176 0.23841 0.0
C424 C 0.27502 0.75365 0.18791 0.0
C425 C 0.28671 0.73355 0.14822 0.0
C426 C 0.2897 0.70196 0.15937 0.0
C427 C 0.28078 0.69069 0.21109 0.0
H428 H 0.27265 0.79925 0.64869 0.0
H429 H 0.18179 0.75203 0.63655 0.0
H430 H 0.19683 0.71943 0.71448 0.0
H431 H 0.32045 0.73386 0.68603 0.0
H432 H 0.34498 0.75501 0.7331 0.0
H433 H 0.32751 0.77399 0.67522 0.0
H434 H 0.30098 0.81346 0.73942 0.0
H435 H 0.31842 0.79465 0.79746 0.0
H436 H 0.27584 0.8003 0.79422 0.0
H437 H 0.22154 0.69229 0.79431 0.0
H438 H 0.25326 0.67393 0.87251 0.0
H439 H 0.32754 0.73953 0.83337 0.0
C440 C 0.25598 0.78194 0.66219 0.0
C441 C 0.22609 0.77812 0.6364 0.0
C442 C 0.20482 0.7554 0.65569 0.0
C443 C 0.21318 0.7367 0.69983 0.0
C444 C 0.24281 0.7411 0.72437 0.0
C445 C 0.26383 0.76324 0.70641 0.0
C446 C 0.29376 0.76393 0.74101 0.0
C447 C 0.32343 0.75623 0.70679 0.0
C448 C 0.29745 0.79492 0.76973 0.0
C449 C 0.28626 0.73875 0.78128 0.0
C450 C 0.25685 0.72576 0.7708 0.0
C451 C 0.24463 0.70226 0.80288 0.0
C452 C 0.26286 0.69197 0.84719 0.0
C453 C 0.2929 0.70527 0.85914 0.0
C454 C 0.30472 0.72883 0.82534 0.0
H455 H 0.22474 0.26868 0.96428 0.0
H456 H 0.32202 0.28487 0.91043 0.0
H457 H 0.30833 0.26448 0.81959 0.0
H458 H 0.21397 0.19803 0.89442 0.0
H459 H 0.17275 0.20517 0.87765 0.0
H460 H 0.18996 0.222 0.93776 0.0
H461 H 0.17328 0.2757 0.90391 0.0
H462 H 0.15605 0.25904 0.84362 0.0
H463 H 0.18592 0.28845 0.83748 0.0
H464 H 0.28415 0.24183 0.73494 0.0
H465 H 0.25175 0.21712 0.66349 0.0
H466 H 0.17047 0.21514 0.77325 0.0
C467 C 0.24316 0.26808 0.93336 0.0
C468 C 0.27445 0.27843 0.94445 0.0
C469 C 0.29789 0.27705 0.90291 0.0
C470 C 0.29033 0.26558 0.85114 0.0
C471 C 0.25926 0.25553 0.84162 0.0
C472 C 0.23607 0.25659 0.8816 0.0
C473 C 0.20471 0.24368 0.8613 0.0
C474 C 0.19478 0.21555 0.89477 0.0
C475 C 0.17845 0.26818 0.86159 0.0
C476 C 0.21393 0.23498 0.80375 0.0
C477 C 0.24544 0.24218 0.79309 0.0
C478 C 0.25944 0.23611 0.7428 0.0
C479 C 0.24081 0.22209 0.70246 0.0
C480 C 0.20856 0.21414 0.71273 0.0
C481 C 0.19503 0.2209 0.76406 0.0
H482 H 0.73344 0.30021 0.89814 0.0
H483 H 0.65923 0.2349 0.9392 0.0
H484 H 0.67148 0.20576 0.85606 0.0
H485 H 0.72094 0.29958 0.75269 0.0
H486 H 0.76281 0.30208 0.73633 0.0
H487 H 0.74808 0.31828 0.79889 0.0
H488 H 0.78863 0.28591 0.85381 0.0
H489 H 0.80351 0.26965 0.79143 0.0
H490 H 0.78925 0.24508 0.84508 0.0
H491 H 0.69088 0.18401 0.76848 0.0
H492 H 0.71794 0.1696 0.68323 0.0
H493 H 0.78086 0.24788 0.69912 0.0
C494 C 0.71974 0.27982 0.88955 0.0
C495 C 0.6953 0.2699 0.92519 0.0
C496 C 0.67807 0.24297 0.91265 0.0
C497 C 0.6848 0.22626 0.86542 0.0
C498 C 0.70896 0.23664 0.83119 0.0
C499 C 0.72632 0.26266 0.84267 0.0
C500 C 0.75145 0.2684 0.79935 0.0
C501 C 0.74545 0.29889 0.77009 0.0
C502 C 0.78521 0.26718 0.8239 0.0
C503 C 0.74541 0.24154 0.76179 0.0
C504 C 0.72065 0.22366 0.78087 0.0
C505 C 0.71036 0.19778 0.75313 0.0
C506 C 0.72586 0.18982 0.70464 0.0
C507 C 0.75156 0.20756 0.68445 0.0
C508 C 0.76137 0.2338 0.71355 0.0
H509 H 0.6727 0.72047 0.84014 0.0
H510 H 0.75996 0.71262 0.93469 0.0
H511 H 0.78998 0.73723 0.86007 0.0
H512 H 0.7087 0.70639 0.70707 0.0
H513 H 0.68336 0.73359 0.67297 0.0
H514 H 0.66912 0.71385 0.7326 0.0
H515 H 0.65703 0.76568 0.77889 0.0
H516 H 0.67137 0.78559 0.71958 0.0
H517 H 0.68844 0.79357 0.78546 0.0
H518 H 0.80999 0.76494 0.77721 0.0
H519 H 0.81887 0.79283 0.69125 0.0
H520 H 0.71851 0.7826 0.65064 0.0
C521 C 0.69819 0.72359 0.845 0.0
C522 C 0.71397 0.71455 0.89332 0.0
C523 C 0.74733 0.71928 0.89806 0.0
C524 C 0.7646 0.73324 0.85589 0.0
C525 C 0.7482 0.74226 0.80918 0.0
C526 C 0.71578 0.73749 0.80335 0.0
C527 C 0.70371 0.7501 0.74967 0.0
C528 C 0.69045 0.72445 0.71343 0.0
C529 C 0.67866 0.77523 0.75898 0.0
C530 C 0.73434 0.7631 0.72651 0.0
C531 C 0.75974 0.75822 0.76139 0.0
C532 C 0.79032 0.76873 0.74942 0.0
C533 C 0.79509 0.78462 0.70049 0.0
C534 C 0.7694 0.78992 0.66406 0.0
C535 C 0.73867 0.77886 0.67743 0.0
loop_
_geom_bond_atom_site_label_1
_geom_bond_atom_site_label_2
_geom_bond_distance
_geom_bond_site_symmetry_2
_ccdc_geom_bond_type
C0 O1 1.160 . S
C0 O7 1.185 . S
O1 C0 1.160 . S
O2 Zn3 1.899 . S
O2 C10 1.284 . S
Zn3 O2 1.899 . S
Zn3 O4 2.032 . S
Zn3 O7 2.086 . S
Zn3 O12 1.977 . S
O4 Zn3 2.032 . S
O4 C8 1.278 1_554 S
C5 O6 1.203 . S
C5 O12 1.267 . S
O6 C5 1.203 . S
O7 C0 1.185 . S
O7 Zn3 2.086 . S
C8 O4 1.278 1_556 S
C8 O9 1.211 . S
O9 C8 1.211 . S
C10 O2 1.284 . S
C10 O11 1.265 1_554 S
O11 C10 1.265 1_556 S
O12 Zn3 1.977 . S
O12 C5 1.267 . S
C13 O14 1.160 . S
C13 O20 1.185 . S
O14 C13 1.160 . S
O15 Zn16 1.899 1_556 S
O15 C23 1.284 1_556 S
Zn16 O15 1.899 1_554 S
Zn16 O17 2.032 . S
Zn16 O20 2.086 1_554 S
Zn16 O25 1.977 . S
O17 Zn16 2.032 . S
O17 C21 1.278 . S
C18 O19 1.203 . S
C18 O25 1.267 . S
O19 C18 1.203 . S
O20 C13 1.185 . S
O20 Zn16 2.086 1_556 S
C21 O17 1.278 . S
C21 O22 1.211 . S
O22 C21 1.211 . S
C23 O15 1.284 1_554 S
C23 O24 1.273 . S
O24 C23 1.273 . S
O25 Zn16 1.977 . S
O25 C18 1.267 . S
C26 O27 1.160 . S
C26 O33 1.185 . S
O27 C26 1.160 . S
O28 Zn29 1.899 . S
O28 C36 1.284 . S
Zn29 O28 1.899 . S
Zn29 O30 2.032 . S
Zn29 O33 2.086 . S
Zn29 O38 1.977 . S
O30 Zn29 2.032 . S
O30 C34 1.278 1_554 S
C31 O32 1.203 . S
C31 O38 1.267 . S
O32 C31 1.203 . S
O33 C26 1.185 . S
O33 Zn29 2.086 . S
C34 O30 1.278 1_556 S
C34 O35 1.211 . S
O35 C34 1.211 . S
C36 O28 1.284 . S
C36 O37 1.265 1_554 S
O37 C36 1.265 1_556 S
O38 Zn29 1.977 . S
O38 C31 1.267 . S
C39 O40 1.160 . S
C39 O46 1.185 . S
O40 C39 1.160 . S
O41 Zn42 1.899 1_556 S
O41 C49 1.284 1_556 S
Zn42 O41 1.899 1_554 S
Zn42 O43 2.032 . S
Zn42 O46 2.086 1_554 S
Zn42 O51 1.977 . S
O43 Zn42 2.032 . S
O43 C47 1.278 . S
C44 O45 1.203 . S
C44 O51 1.267 . S
O45 C44 1.203 . S
O46 C39 1.185 . S
O46 Zn42 2.086 1_556 S
C47 O43 1.278 . S
C47 O48 1.211 . S
O48 C47 1.211 . S
C49 O41 1.284 1_554 S
C49 O50 1.273 . S
O50 C49 1.273 . S
O51 Zn42 1.977 . S
O51 C44 1.267 . S
C52 O53 1.160 . S
C52 O59 1.185 . S
O53 C52 1.160 . S
O54 Zn55 1.899 . S
O54 C62 1.284 . S
Zn55 O54 1.899 . S
Zn55 O56 2.032 . S
Zn55 O59 2.086 . S
Zn55 O64 1.977 . S
O56 Zn55 2.032 . S
O56 C60 1.278 . S
C57 O58 1.203 . S
C57 O64 1.267 . S
O58 C57 1.203 . S
O59 C52 1.185 . S
O59 Zn55 2.086 . S
C60 O56 1.278 . S
C60 O61 1.211 . S
O61 C60 1.211 . S
C62 O54 1.284 . S
C62 O63 1.273 . S
O63 C62 1.273 . S
O64 Zn55 1.977 . S
O64 C57 1.267 . S
C65 O66 1.160 . S
C65 O72 1.185 . S
O66 C65 1.160 . S
O67 Zn68 1.899 . S
O67 C75 1.284 . S
Zn68 O67 1.899 . S
Zn68 O69 2.032 . S
Zn68 O72 2.086 . S
Zn68 O77 1.977 . S
O69 Zn68 2.032 . S
O69 C73 1.278 . S
C70 O71 1.203 . S
C70 O77 1.267 . S
O71 C70 1.203 . S
O72 C65 1.185 . S
O72 Zn68 2.086 . S
C73 O69 1.278 . S
C73 O74 1.211 . S
O74 C73 1.211 . S
C75 O67 1.284 . S
C75 O76 1.273 . S
O76 C75 1.273 . S
O77 Zn68 1.977 . S
O77 C70 1.267 . S
C78 O79 1.160 . S
C78 O85 1.185 . S
O79 C78 1.160 . S
O80 Zn81 1.899 . S
O80 C88 1.284 . S
Zn81 O80 1.899 . S
Zn81 O82 2.032 . S
Zn81 O85 2.086 . S
Zn81 O90 1.977 . S
O82 Zn81 2.032 . S
O82 C86 1.278 . S
C83 O84 1.203 . S
C83 O90 1.267 . S
O84 C83 1.203 . S
O85 C78 1.185 . S
O85 Zn81 2.086 . S
C86 O82 1.278 . S
C86 O87 1.211 . S
O87 C86 1.211 . S
C88 O80 1.284 . S
C88 O89 1.273 . S
O89 C88 1.273 . S
O90 Zn81 1.977 . S
O90 C83 1.267 . S
C91 O92 1.160 . S
C91 O98 1.185 . S
O92 C91 1.160 . S
O93 Zn94 1.899 . S
O93 C101 1.284 . S
Zn94 O93 1.899 . S
Zn94 O95 2.032 . S
Zn94 O98 2.086 . S
Zn94 O103 1.977 . S
O95 Zn94 2.032 . S
O95 C99 1.278 . S
C96 O97 1.203 . S
C96 O103 1.267 . S
O97 C96 1.203 . S
O98 C91 1.185 . S
O98 Zn94 2.086 . S
C99 O95 1.278 . S
C99 O100 1.211 . S
O100 C99 1.211 . S
C101 O93 1.284 . S
C101 O102 1.273 . S
O102 C101 1.273 . S
O103 Zn94 1.977 . S
O103 C96 1.267 . S
H104 C116 0.930 1_556 S
H105 C118 0.930 . S
H106 C119 0.930 . S
H107 C123 0.959 1_554 S
H108 C123 0.959 . S
H109 C123 0.961 . S
H110 C124 0.960 . S
H111 C124 0.961 . S
H112 C124 0.959 . S
H113 C127 0.929 . S
H114 C128 0.931 . S
H115 C130 0.930 1_556 S
C116 H104 0.930 1_554 S
C116 C117 1.399 . S
C116 C121 1.399 . S
C117 C116 1.399 . S
C117 C118 1.376 . S
C118 H105 0.930 . S
C118 C117 1.376 . S
C118 C119 1.388 . S
C119 H106 0.930 . S
C119 C118 1.388 . S
C119 C120 1.390 . S
C120 C119 1.390 . S
C120 C121 1.394 . S
C120 C126 1.465 . S
C121 C116 1.399 . S
C121 C120 1.394 . S
C121 C122 1.516 1_554 S
C122 C121 1.516 1_556 S
C122 C123 1.502 . S
C122 C124 1.561 . S
C122 C125 1.526 1_556 S
C123 H107 0.959 1_556 S
C123 H108 0.959 . S
C123 H109 0.961 . S
C123 C122 1.502 . S
C124 H110 0.960 . S
C124 H111 0.961 . S
C124 H112 0.959 . S
C124 C122 1.561 . S
C125 C122 1.526 1_554 S
C125 C126 1.396 . S
C125 C130 1.390 . S
C126 C120 1.465 . S
C126 C125 1.396 . S
C126 C127 1.399 . S
C127 H113 0.929 . S
C127 C126 1.399 . S
C127 C128 1.385 . S
C128 H114 0.931 . S
C128 C127 1.385 . S
C128 C129 1.389 . S
C129 C128 1.389 . S
C129 C130 1.387 . S
C130 H115 0.930 1_554 S
C130 C125 1.390 . S
C130 C129 1.387 . S
H131 C143 0.930 . S
H132 C145 0.930 . S
H133 C146 0.930 . S
H134 C150 0.959 . S
H135 C150 0.959 . S
H136 C150 0.961 . S
H137 C151 0.960 . S
H138 C151 0.961 . S
H139 C151 0.959 . S
H140 C154 0.929 . S
H141 C155 0.931 . S
H142 C157 0.930 . S
C143 H131 0.930 . S
C143 C144 1.399 . S
C143 C148 1.399 . S
C144 C143 1.399 . S
C144 C145 1.376 . S
C145 H132 0.930 . S
C145 C144 1.376 . S
C145 C146 1.388 . S
C146 H133 0.930 . S
C146 C145 1.388 . S
C146 C147 1.390 . S
C147 C146 1.390 . S
C147 C148 1.394 . S
C147 C153 1.465 . S
C148 C143 1.399 . S
C148 C147 1.394 . S
C148 C149 1.516 . S
C149 C148 1.516 . S
C149 C150 1.502 1_554 S
C149 C151 1.561 . S
C149 C152 1.526 . S
C150 H134 0.959 . S
C150 H135 0.959 . S
C150 H136 0.961 . S
C150 C149 1.502 1_556 S
C151 H137 0.960 . S
C151 H138 0.961 . S
C151 H139 0.959 . S
C151 C149 1.561 . S
C152 C149 1.526 . S
C152 C153 1.396 . S
C152 C157 1.390 . S
C153 C147 1.465 . S
C153 C152 1.396 . S
C153 C154 1.399 . S
C154 H140 0.929 . S
C154 C153 1.399 . S
C154 C155 1.385 . S
C155 H141 0.931 . S
C155 C154 1.385 . S
C155 C156 1.389 . S
C156 C155 1.389 . S
C156 C157 1.387 . S
C157 H142 0.930 . S
C157 C152 1.390 . S
C157 C156 1.387 . S
H158 C170 0.930 1_556 S
H159 C172 0.930 . S
H160 C173 0.930 . S
H161 C177 0.959 . S
H162 C177 0.959 . S
H163 C177 0.961 . S
H164 C178 0.960 . S
H165 C178 0.961 . S
H166 C178 0.959 . S
H167 C181 0.929 . S
H168 C182 0.931 . S
H169 C184 0.930 1_556 S
C170 H158 0.930 1_554 S
C170 C171 1.399 . S
C170 C175 1.399 . S
C171 C170 1.399 . S
C171 C172 1.376 . S
C172 H159 0.930 . S
C172 C171 1.376 . S
C172 C173 1.388 . S
C173 H160 0.930 . S
C173 C172 1.388 . S
C173 C174 1.390 . S
C174 C173 1.390 . S
C174 C175 1.394 . S
C174 C180 1.465 . S
C175 C170 1.399 . S
C175 C174 1.394 . S
C175 C176 1.516 1_554 S
C176 C175 1.516 1_556 S
C176 C177 1.502 . S
C176 C178 1.561 . S
C176 C179 1.526 1_556 S
C177 H161 0.959 . S
C177 H162 0.959 . S
C177 H163 0.961 . S
C177 C176 1.502 . S
C178 H164 0.960 . S
C178 H165 0.961 . S
C178 H166 0.959 . S
C178 C176 1.561 . S
C179 C176 1.526 1_554 S
C179 C180 1.396 . S
C179 C184 1.390 . S
C180 C174 1.465 . S
C180 C179 1.396 . S
C180 C181 1.399 . S
C181 H167 0.929 . S
C181 C180 1.399 . S
C181 C182 1.385 . S
C182 H168 0.931 . S
C182 C181 1.385 . S
C182 C183 1.389 . S
C183 C182 1.389 . S
C183 C184 1.387 . S
C184 H169 0.930 1_554 S
C184 C179 1.390 . S
C184 C183 1.387 . S
H185 C197 0.930 . S
H186 C199 0.930 . S
H187 C200 0.930 . S
H188 C204 0.959 . S
H189 C204 0.959 . S
H190 C204 0.961 . S
H191 C205 0.960 . S
H192 C205 0.961 . S
H193 C205 0.959 . S
H194 C208 0.929 . S
H195 C209 0.931 . S
H196 C211 0.930 . S
C197 H185 0.930 . S
C197 C198 1.399 . S
C197 C202 1.399 . S
C198 C197 1.399 . S
C198 C199 1.376 . S
C199 H186 0.930 . S
C199 C198 1.376 . S
C199 C200 1.388 . S
C200 H187 0.930 . S
C200 C199 1.388 . S
C200 C201 1.390 . S
C201 C200 1.390 . S
C201 C202 1.394 . S
C201 C207 1.465 . S
C202 C197 1.399 . S
C202 C201 1.394 . S
C202 C203 1.516 . S
C203 C202 1.516 . S
C203 C204 1.502 . S
C203 C205 1.561 1_554 S
C203 C206 1.526 . S
C204 H188 0.959 . S
C204 H189 0.959 . S
C204 H190 0.961 . S
C204 C203 1.502 . S
C205 H191 0.960 . S
C205 H192 0.961 . S
C205 H193 0.959 . S
C205 C203 1.561 1_556 S
C206 C203 1.526 . S
C206 C207 1.396 . S
C206 C211 1.390 . S
C207 C201 1.465 . S
C207 C206 1.396 . S
C207 C208 1.399 . S
C208 H194 0.929 . S
C208 C207 1.399 . S
C208 C209 1.385 . S
C209 H195 0.931 . S
C209 C208 1.385 . S
C209 C210 1.389 . S
C210 C209 1.389 . S
C210 C211 1.387 . S
C211 H196 0.930 . S
C211 C206 1.390 . S
C211 C210 1.387 . S
H212 C224 0.930 . S
H213 C226 0.930 . S
H214 C227 0.930 . S
H215 C231 0.959 1_545 S
H216 C231 0.957 1_545 S
H217 C231 0.963 . S
H218 C232 0.960 . S
H219 C232 0.961 1_545 S
H220 C232 0.956 1_545 S
H221 C235 0.929 . S
H222 C236 0.931 . S
H223 C238 0.930 . S
C224 H212 0.930 . S
C224 C225 1.399 . S
C224 C229 1.399 . S
C225 C224 1.399 . S
C225 C226 1.376 . S
C226 H213 0.930 . S
C226 C225 1.376 . S
C226 C227 1.388 . S
C227 H214 0.930 . S
C227 C226 1.388 . S
C227 C228 1.390 . S
C228 C227 1.390 . S
C228 C229 1.394 . S
C228 C234 1.465 1_565 S
C229 C224 1.399 . S
C229 C228 1.394 . S
C229 C230 1.532 . S
C230 C229 1.532 . S
C230 C231 1.502 . S
C230 C232 1.562 . S
C230 C233 1.510 1_565 S
C231 H215 0.959 1_565 S
C231 H216 0.957 1_565 S
C231 H217 0.963 . S
C231 C230 1.502 . S
C232 H218 0.960 . S
C232 H219 0.961 1_565 S
C232 H220 0.956 1_565 S
C232 C230 1.562 . S
C233 C230 1.510 1_545 S
C233 C234 1.396 . S
C233 C238 1.390 . S
C234 C228 1.465 1_545 S
C234 C233 1.396 . S
C234 C235 1.399 . S
C235 H221 0.929 . S
C235 C234 1.399 . S
C235 C236 1.385 . S
C236 H222 0.931 . S
C236 C235 1.385 . S
C236 C237 1.389 . S
C237 C236 1.389 . S
C237 C238 1.387 . S
C238 H223 0.930 . S
C238 C233 1.390 . S
C238 C237 1.387 . S
H239 C251 0.930 . S
H240 C253 0.930 . S
H241 C254 0.930 . S
H242 C258 0.959 . S
H243 C258 0.959 1_655 S
H244 C258 0.961 . S
H245 C259 0.951 1_455 S
H246 C259 0.969 . S
H247 C259 0.961 . S
H248 C262 0.929 . S
H249 C263 0.931 . S
H250 C265 0.930 . S
C251 H239 0.930 . S
C251 C252 1.399 . S
C251 C256 1.399 . S
C252 C251 1.399 . S
C252 C253 1.376 . S
C253 H240 0.930 . S
C253 C252 1.376 . S
C253 C254 1.388 . S
C254 H241 0.930 . S
C254 C253 1.388 . S
C254 C255 1.390 . S
C255 C254 1.390 . S
C255 C256 1.394 . S
C255 C261 1.465 1_455 S
C256 C251 1.399 . S
C256 C255 1.394 . S
C256 C257 1.516 . S
C257 C256 1.516 . S
C257 C258 1.502 . S
C257 C259 1.561 1_455 S
C257 C260 1.526 1_455 S
C258 H242 0.959 . S
C258 H243 0.959 1_455 S
C258 H244 0.961 . S
C258 C257 1.502 . S
C259 H245 0.951 1_655 S
C259 H246 0.969 . S
C259 H247 0.961 . S
C259 C257 1.561 1_655 S
C260 C257 1.526 1_655 S
C260 C261 1.396 . S
C260 C265 1.390 . S
C261 C255 1.465 1_655 S
C261 C260 1.396 . S
C261 C262 1.399 . S
C262 H248 0.929 . S
C262 C261 1.399 . S
C262 C263 1.385 . S
C263 H249 0.931 . S
C263 C262 1.385 . S
C263 C264 1.389 . S
C264 C263 1.389 . S
C264 C265 1.387 . S
C265 H250 0.930 . S
C265 C260 1.390 . S
C265 C264 1.387 . S
H266 C278 0.930 . S
H267 C280 0.930 . S
H268 C281 0.930 . S
H269 C285 0.958 1_565 S
H270 C285 0.948 1_565 S
H271 C285 0.974 . S
H272 C286 0.990 . S
H273 C286 0.935 1_565 S
H274 C286 0.956 1_565 S
H275 C289 0.929 . S
H276 C290 0.931 . S
H277 C292 0.930 . S
C278 H266 0.930 . S
C278 C279 1.399 . S
C278 C283 1.399 . S
C279 C278 1.399 . S
C279 C280 1.376 . S
C280 H267 0.930 . S
C280 C279 1.376 . S
C280 C281 1.388 . S
C281 H268 0.930 . S
C281 C280 1.388 . S
C281 C282 1.390 . S
C282 C281 1.390 . S
C282 C283 1.394 . S
C282 C288 1.465 1_545 S
C283 C278 1.399 . S
C283 C282 1.394 . S
C283 C284 1.533 . S
C284 C283 1.533 . S
C284 C285 1.502 . S
C284 C286 1.561 . S
C284 C287 1.508 1_545 S
C285 H269 0.958 1_545 S
C285 H270 0.948 1_545 S
C285 H271 0.974 . S
C285 C284 1.502 . S
C286 H272 0.990 . S
C286 H273 0.935 1_545 S
C286 H274 0.956 1_545 S
C286 C284 1.561 . S
C287 C284 1.508 1_565 S
C287 C288 1.396 . S
C287 C292 1.390 . S
C288 C282 1.465 1_565 S
C288 C287 1.396 . S
C288 C289 1.399 . S
C289 H275 0.929 . S
C289 C288 1.399 . S
C289 C290 1.385 . S
C290 H276 0.931 . S
C290 C289 1.385 . S
C290 C291 1.389 . S
C291 C290 1.389 . S
C291 C292 1.387 . S
C292 H277 0.930 . S
C292 C287 1.390 . S
C292 C291 1.387 . S
H293 C305 0.930 . S
H294 C307 0.930 . S
H295 C308 0.930 . S
H296 C312 0.961 . S
H297 C312 0.959 1_455 S
H298 C312 0.961 . S
H299 C313 0.960 1_655 S
H300 C313 0.961 . S
H301 C313 0.959 . S
H302 C316 0.929 . S
H303 C317 0.931 . S
H304 C319 0.930 . S
C305 H293 0.930 . S
C305 C306 1.399 . S
C305 C310 1.399 . S
C306 C305 1.399 . S
C306 C307 1.376 . S
C307 H294 0.930 . S
C307 C306 1.376 . S
C307 C308 1.388 . S
C308 H295 0.930 . S
C308 C307 1.388 . S
C308 C309 1.390 . S
C309 C308 1.390 . S
C309 C310 1.394 . S
C309 C315 1.465 1_655 S
C310 C305 1.399 . S
C310 C309 1.394 . S
C310 C311 1.518 . S
C311 C310 1.518 . S
C311 C312 1.502 . S
C311 C313 1.561 1_655 S
C311 C314 1.524 1_655 S
C312 H296 0.961 . S
C312 H297 0.959 1_655 S
C312 H298 0.961 . S
C312 C311 1.502 . S
C313 H299 0.960 1_455 S
C313 H300 0.961 . S
C313 H301 0.959 . S
C313 C311 1.561 1_455 S
C314 C311 1.524 1_455 S
C314 C315 1.396 . S
C314 C319 1.390 . S
C315 C309 1.465 1_455 S
C315 C314 1.396 . S
C315 C316 1.399 . S
C316 H302 0.929 . S
C316 C315 1.399 . S
C316 C317 1.385 . S
C317 H303 0.931 . S
C317 C316 1.385 . S
C317 C318 1.389 . S
C318 C317 1.389 . S
C318 C319 1.387 . S
C319 H304 0.930 . S
C319 C314 1.390 . S
C319 C318 1.387 . S
H320 C332 0.930 . S
H321 C334 0.930 . S
H322 C335 0.930 . S
H323 C339 0.959 . S
H324 C339 0.959 . S
H325 C339 0.961 . S
H326 C340 0.960 . S
H327 C340 0.961 . S
H328 C340 0.959 . S
H329 C343 0.929 . S
H330 C344 0.931 . S
H331 C346 0.930 . S
C332 H320 0.930 . S
C332 C333 1.399 . S
C332 C337 1.399 . S
C333 C332 1.399 . S
C333 C334 1.376 . S
C334 H321 0.930 . S
C334 C333 1.376 . S
C334 C335 1.388 . S
C335 H322 0.930 . S
C335 C334 1.388 . S
C335 C336 1.390 . S
C336 C335 1.390 . S
C336 C337 1.394 . S
C336 C342 1.465 . S
C337 C332 1.399 . S
C337 C336 1.394 . S
C337 C338 1.516 . S
C338 C337 1.516 . S
C338 C339 1.502 . S
C338 C340 1.561 . S
C338 C341 1.526 . S
C339 H323 0.959 . S
C339 H324 0.959 . S
C339 H325 0.961 . S
C339 C338 1.502 . S
C340 H326 0.960 . S
C340 H327 0.961 . S
C340 H328 0.959 . S
C340 C338 1.561 . S
C341 C338 1.526 . S
C341 C342 1.396 . S
C341 C346 1.390 . S
C342 C336 1.465 . S
C342 C341 1.396 . S
C342 C343 1.399 . S
C343 H329 0.929 . S
C343 C342 1.399 . S
C343 C344 1.385 . S
C344 H330 0.931 . S
C344 C343 1.385 . S
C344 C345 1.389 . S
C345 C344 1.389 . S
C345 C346 1.387 . S
C346 H331 0.930 . S
C346 C341 1.390 . S
C346 C345 1.387 . S
H347 C359 0.930 . S
H348 C361 0.930 . S
H349 C362 0.930 . S
H350 C366 0.959 . S
H351 C366 0.959 . S
H352 C366 0.961 . S
H353 C367 0.960 . S
H354 C367 0.961 . S
H355 C367 0.959 . S
H356 C370 0.929 . S
H357 C371 0.931 . S
H358 C373 0.930 . S
C359 H347 0.930 . S
C359 C360 1.399 . S
C359 C364 1.399 . S
C360 C359 1.399 . S
C360 C361 1.376 . S
C361 H348 0.930 . S
C361 C360 1.376 . S
C361 C362 1.388 . S
C362 H349 0.930 . S
C362 C361 1.388 . S
C362 C363 1.390 . S
C363 C362 1.390 . S
C363 C364 1.394 . S
C363 C369 1.465 . S
C364 C359 1.399 . S
C364 C363 1.394 . S
C364 C365 1.516 . S
C365 C364 1.516 . S
C365 C366 1.502 . S
C365 C367 1.561 . S
C365 C368 1.526 . S
C366 H350 0.959 . S
C366 H351 0.959 . S
C366 H352 0.961 . S
C366 C365 1.502 . S
C367 H353 0.960 . S
C367 H354 0.961 . S
C367 H355 0.959 . S
C367 C365 1.561 . S
C368 C365 1.526 . S
C368 C369 1.396 . S
C368 C373 1.390 . S
C369 C363 1.465 . S
C369 C368 1.396 . S
C369 C370 1.399 . S
C370 H356 0.929 . S
C370 C369 1.399 . S
C370 C371 1.385 . S
C371 H357 0.931 . S
C371 C370 1.385 . S
C371 C372 1.389 . S
C372 C371 1.389 . S
C372 C373 1.387 . S
C373 H358 0.930 . S
C373 C368 1.390 . S
C373 C372 1.387 . S
H374 C386 0.930 . S
H375 C388 0.930 . S
H376 C389 0.930 . S
H377 C393 0.959 . S
H378 C393 0.959 . S
H379 C393 0.961 . S
H380 C394 0.960 . S
H381 C394 0.961 . S
H382 C394 0.959 . S
H383 C397 0.929 . S
H384 C398 0.931 . S
H385 C400 0.930 . S
C386 H374 0.930 . S
C386 C387 1.399 . S
C386 C391 1.399 . S
C387 C386 1.399 . S
C387 C388 1.376 . S
C388 H375 0.930 . S
C388 C387 1.376 . S
C388 C389 1.388 . S
C389 H376 0.930 . S
C389 C388 1.388 . S
C389 C390 1.390 . S
C390 C389 1.390 . S
C390 C391 1.394 . S
C390 C396 1.465 . S
C391 C386 1.399 . S
C391 C390 1.394 . S
C391 C392 1.516 . S
C392 C391 1.516 . S
C392 C393 1.502 . S
C392 C394 1.561 . S
C392 C395 1.526 . S
C393 H377 0.959 . S
C393 H378 0.959 . S
C393 H379 0.961 . S
C393 C392 1.502 . S
C394 H380 0.960 . S
C394 H381 0.961 . S
C394 H382 0.959 . S
C394 C392 1.561 . S
C395 C392 1.526 . S
C395 C396 1.396 . S
C395 C400 1.390 . S
C396 C390 1.465 . S
C396 C395 1.396 . S
C396 C397 1.399 . S
C397 H383 0.929 . S
C397 C396 1.399 . S
C397 C398 1.385 . S
C398 H384 0.931 . S
C398 C397 1.385 . S
C398 C399 1.389 . S
C399 C398 1.389 . S
C399 C400 1.387 . S
C400 H385 0.930 . S
C400 C395 1.390 . S
C400 C399 1.387 . S
H401 C413 0.930 . S
H402 C415 0.930 . S
H403 C416 0.930 . S
H404 C420 0.959 . S
H405 C420 0.959 . S
H406 C420 0.961 . S
H407 C421 0.960 . S
H408 C421 0.961 . S
H409 C421 0.959 . S
H410 C424 0.929 . S
H411 C425 0.931 . S
H412 C427 0.930 . S
C413 H401 0.930 . S
C413 C414 1.399 . S
C413 C418 1.399 . S
C414 C413 1.399 . S
C414 C415 1.376 . S
C415 H402 0.930 . S
C415 C414 1.376 . S
C415 C416 1.388 . S
C416 H403 0.930 . S
C416 C415 1.388 . S
C416 C417 1.390 . S
C417 C416 1.390 . S
C417 C418 1.394 . S
C417 C423 1.465 . S
C418 C413 1.399 . S
C418 C417 1.394 . S
C418 C419 1.516 . S
C419 C418 1.516 . S
C419 C420 1.502 . S
C419 C421 1.561 . S
C419 C422 1.526 . S
C420 H404 0.959 . S
C420 H405 0.959 . S
C420 H406 0.961 . S
C420 C419 1.502 . S
C421 H407 0.960 . S
C421 H408 0.961 . S
C421 H409 0.959 . S
C421 C419 1.561 . S
C422 C419 1.526 . S
C422 C423 1.396 . S
C422 C427 1.390 . S
C423 C417 1.465 . S
C423 C422 1.396 . S
C423 C424 1.399 . S
C424 H410 0.929 . S
C424 C423 1.399 . S
C424 C425 1.385 . S
C425 H411 0.931 . S
C425 C424 1.385 . S
C425 C426 1.389 . S
C426 C425 1.389 . S
C426 C427 1.387 . S
C427 H412 0.930 . S
C427 C422 1.390 . S
C427 C426 1.387 . S
H428 C440 0.930 . S
H429 C442 0.930 . S
H430 C443 0.930 . S
H431 C447 0.959 . S
H432 C447 0.959 . S
H433 C447 0.961 . S
H434 C448 0.960 . S
H435 C448 0.961 . S
H436 C448 0.959 . S
H437 C451 0.929 . S
H438 C452 0.931 . S
H439 C454 0.930 . S
C440 H428 0.930 . S
C440 C441 1.399 . S
C440 C445 1.399 . S
C441 C440 1.399 . S
C441 C442 1.376 . S
C442 H429 0.930 . S
C442 C441 1.376 . S
C442 C443 1.388 . S
C443 H430 0.930 . S
C443 C442 1.388 . S
C443 C444 1.390 . S
C444 C443 1.390 . S
C444 C445 1.394 . S
C444 C450 1.465 . S
C445 C440 1.399 . S
C445 C444 1.394 . S
C445 C446 1.516 . S
C446 C445 1.516 . S
C446 C447 1.502 . S
C446 C448 1.561 . S
C446 C449 1.526 . S
C447 H431 0.959 . S
C447 H432 0.959 . S
C447 H433 0.961 . S
C447 C446 1.502 . S
C448 H434 0.960 . S
C448 H435 0.961 . S
C448 H436 0.959 . S
C448 C446 1.561 . S
C449 C446 1.526 . S
C449 C450 1.396 . S
C449 C454 1.390 . S
C450 C444 1.465 . S
C450 C449 1.396 . S
C450 C451 1.399 . S
C451 H437 0.929 . S
C451 C450 1.399 . S
C451 C452 1.385 . S
C452 H438 0.931 . S
C452 C451 1.385 . S
C452 C453 1.389 . S
C453 C452 1.389 . S
C453 C454 1.387 . S
C454 H439 0.930 . S
C454 C449 1.390 . S
C454 C453 1.387 . S
H455 C467 0.930 . S
H456 C469 0.930 . S
H457 C470 0.930 . S
H458 C474 0.959 . S
H459 C474 0.959 . S
H460 C474 0.961 . S
H461 C475 0.960 . S
H462 C475 0.961 . S
H463 C475 0.959 . S
H464 C478 0.929 . S
H465 C479 0.931 . S
H466 C481 0.930 . S
C467 H455 0.930 . S
C467 C468 1.399 . S
C467 C472 1.399 . S
C468 C467 1.399 . S
C468 C469 1.376 . S
C469 H456 0.930 . S
C469 C468 1.376 . S
C469 C470 1.388 . S
C470 H457 0.930 . S
C470 C469 1.388 . S
C470 C471 1.390 . S
C471 C470 1.390 . S
C471 C472 1.394 . S
C471 C477 1.465 . S
C472 C467 1.399 . S
C472 C471 1.394 . S
C472 C473 1.516 . S
C473 C472 1.516 . S
C473 C474 1.502 . S
C473 C475 1.561 . S
C473 C476 1.526 . S
C474 H458 0.959 . S
C474 H459 0.959 . S
C474 H460 0.961 . S
C474 C473 1.502 . S
C475 H461 0.960 . S
C475 H462 0.961 . S
C475 H463 0.959 . S
C475 C473 1.561 . S
C476 C473 1.526 . S
C476 C477 1.396 . S
C476 C481 1.390 . S
C477 C471 1.465 . S
C477 C476 1.396 . S
C477 C478 1.399 . S
C478 H464 0.929 . S
C478 C477 1.399 . S
C478 C479 1.385 . S
C479 H465 0.931 . S
C479 C478 1.385 . S
C479 C480 1.389 . S
C480 C479 1.389 . S
C480 C481 1.387 . S
C481 H466 0.930 . S
C481 C476 1.390 . S
C481 C480 1.387 . S
H482 C494 0.930 . S
H483 C496 0.930 . S
H484 C497 0.930 . S
H485 C501 0.959 . S
H486 C501 0.959 . S
H487 C501 0.961 . S
H488 C502 0.960 . S
H489 C502 0.961 . S
H490 C502 0.959 . S
H491 C505 0.929 . S
H492 C506 0.931 . S
H493 C508 0.930 . S
C494 H482 0.930 . S
C494 C495 1.399 . S
C494 C499 1.399 . S
C495 C494 1.399 . S
C495 C496 1.376 . S
C496 H483 0.930 . S
C496 C495 1.376 . S
C496 C497 1.388 . S
C497 H484 0.930 . S
C497 C496 1.388 . S
C497 C498 1.390 . S
C498 C497 1.390 . S
C498 C499 1.394 . S
C498 C504 1.465 . S
C499 C494 1.399 . S
C499 C498 1.394 . S
C499 C500 1.516 . S
C500 C499 1.516 . S
C500 C501 1.502 . S
C500 C502 1.561 . S
C500 C503 1.526 . S
C501 H485 0.959 . S
C501 H486 0.959 . S
C501 H487 0.961 . S
C501 C500 1.502 . S
C502 H488 0.960 . S
C502 H489 0.961 . S
C502 H490 0.959 . S
C502 C500 1.561 . S
C503 C500 1.526 . S
C503 C504 1.396 . S
C503 C508 1.390 . S
C504 C498 1.465 . S
C504 C503 1.396 . S
C504 C505 1.399 . S
C505 H491 0.929 . S
C505 C504 1.399 . S
C505 C506 1.385 . S
C506 H492 0.931 . S
C506 C505 1.385 . S
C506 C507 1.389 . S
C507 C506 1.389 . S
C507 C508 1.387 . S
C508 H493 0.930 . S
C508 C503 1.390 . S
C508 C507 1.387 . S
H509 C521 0.930 . S
H510 C523 0.930 . S
H511 C524 0.930 . S
H512 C528 0.959 . S
H513 C528 0.959 . S
H514 C528 0.961 . S
H515 C529 0.960 . S
H516 C529 0.961 . S
H517 C529 0.959 . S
H518 C532 0.929 . S
H519 C533 0.931 . S
H520 C535 0.930 . S
C521 H509 0.930 . S
C521 C522 1.399 . S
C521 C526 1.399 . S
C522 C521 1.399 . S
C522 C523 1.376 . S
C523 H510 0.930 . S
C523 C522 1.376 . S
C523 C524 1.388 . S
C524 H511 0.930 . S
C524 C523 1.388 . S
C524 C525 1.390 . S
C525 C524 1.390 . S
C525 C526 1.394 . S
C525 C531 1.465 . S
C526 C521 1.399 . S
C526 C525 1.394 . S
C526 C527 1.516 . S
C527 C526 1.516 . S
C527 C528 1.502 . S
C527 C529 1.561 . S
C527 C530 1.526 . S
C528 H512 0.959 . S
C528 H513 0.959 . S
C528 H514 0.961 . S
C528 C527 1.502 . S
C529 H515 0.960 . S
C529 H516 0.961 . S
C529 H517 0.959 . S
C529 C527 1.561 . S
C530 C527 1.526 . S
C530 C531 1.396 . S
C530 C535 1.390 . S
C531 C525 1.465 . S
C531 C530 1.396 . S
C531 C532 1.399 . S
C532 H518 0.929 . S
C532 C531 1.399 . S
C532 C533 1.385 . S
C533 H519 0.931 . S
C533 C532 1.385 . S
C533 C534 1.389 . S
C534 C533 1.389 . S
C534 C535 1.387 . S
C535 H520 0.930 . S
C535 C530 1.390 . S
C535 C534 1.387 . S
C117 C5 1.462 . S
C129 C44 1.448 . S
C144 C10 1.464 . S
C156 C23 1.444 . S
C171 C18 1.401 . S
C183 C31 1.428 . S
C198 C49 1.451 . S
C210 C36 1.458 . S
C225 C57 1.460 . S
C237 C96 1.438 . S
C252 C75 1.469 . S
C264 C62 1.439 . S
C279 C83 1.453 . S
C291 C70 1.425 . S
C306 C101 1.464 . S
C318 C88 1.445 . S
C333 C86 1.378 . S
C345 C0 1.378 . S
C360 C21 1.368 . S
C372 C91 1.393 . S
C387 C60 1.381 . S
C399 C26 1.376 . S
C414 C65 1.380 . S
C426 C47 1.424 . S
C441 C73 1.426 . S
C453 C39 1.387 . S
C468 C8 1.399 . S
C480 C78 1.423 . S
C495 C13 1.382 . S
C507 C99 1.374 . S
C522 C34 1.421 . S
C534 C52 1.373 . S
