# Generated by pormake.
# Topology vbm, (6)-cn, num edge types: 1
# Building blocks:
#     Node 0, Type 0, BuildingBlock: INOVEN_clean_sbu_0, # of connection points: 6
#     Node 1, Type 0, BuildingBlock: INOVEN_clean_sbu_0, # of connection points: 6
#     Node 2, Type 0, BuildingBlock: INOVEN_clean_sbu_0, # of connection points: 6
#     Node 3, Type 0, BuildingBlock: INOVEN_clean_sbu_0, # of connection points: 6
#     Node 4, Type 0, BuildingBlock: INOVEN_clean_sbu_0, # of connection points: 6
#     Node 5, Type 0, BuildingBlock: INOVEN_clean_sbu_0, # of connection points: 6
#     Node 6, Type 0, BuildingBlock: INOVEN_clean_sbu_0, # of connection points: 6
#     Node 7, Type 0, BuildingBlock: INOVEN_clean_sbu_0, # of connection points: 6
#     Node 8, Type 0, BuildingBlock: INOVEN_clean_sbu_0, # of connection points: 6
#     Node 9, Type 0, BuildingBlock: INOVEN_clean_sbu_0, # of connection points: 6
#     Node 10, Type 0, BuildingBlock: INOVEN_clean_sbu_0, # of connection points: 6
#     Node 11, Type 0, BuildingBlock: INOVEN_clean_sbu_0, # of connection points: 6
#     Node 12, Type 0, BuildingBlock: INOVEN_clean_sbu_0, # of connection points: 6
#     Node 13, Type 0, BuildingBlock: INOVEN_clean_sbu_0, # of connection points: 6
#     Node 14, Type 0, BuildingBlock: INOVEN_clean_sbu_0, # of connection points: 6
#     Node 15, Type 0, BuildingBlock: INOVEN_clean_sbu_0, # of connection points: 6
#     Edge 16, Type (0, 0), BuildingBlock: EZIPEK_clean_linker_0, # of connection points: 2
#     Edge 17, Type (0, 0), BuildingBlock: EZIPEK_clean_linker_0, # of connection points: 2
#     Edge 18, Type (0, 0), BuildingBlock: EZIPEK_clean_linker_0, # of connection points: 2
#     Edge 19, Type (0, 0), BuildingBlock: EZIPEK_clean_linker_0, # of connection points: 2
#     Edge 20, Type (0, 0), BuildingBlock: EZIPEK_clean_linker_0, # of connection points: 2
#     Edge 21, Type (0, 0), BuildingBlock: EZIPEK_clean_linker_0, # of connection points: 2
#     Edge 22, Type (0, 0), BuildingBlock: EZIPEK_clean_linker_0, # of connection points: 2
#     Edge 23, Type (0, 0), BuildingBlock: EZIPEK_clean_linker_0, # of connection points: 2
#     Edge 24, Type (0, 0), BuildingBlock: EZIPEK_clean_linker_0, # of connection points: 2
#     Edge 25, Type (0, 0), BuildingBlock: EZIPEK_clean_linker_0, # of connection points: 2
#     Edge 26, Type (0, 0), BuildingBlock: EZIPEK_clean_linker_0, # of connection points: 2
#     Edge 27, Type (0, 0), BuildingBlock: EZIPEK_clean_linker_0, # of connection points: 2
#     Edge 28, Type (0, 0), BuildingBlock: EZIPEK_clean_linker_0, # of connection points: 2
#     Edge 29, Type (0, 0), BuildingBlock: EZIPEK_clean_linker_0, # of connection points: 2
#     Edge 30, Type (0, 0), BuildingBlock: EZIPEK_clean_linker_0, # of connection points: 2
#     Edge 31, Type (0, 0), BuildingBlock: EZIPEK_clean_linker_0, # of connection points: 2
#     Edge 32, Type (0, 0), BuildingBlock: EZIPEK_clean_linker_0, # of connection points: 2
#     Edge 33, Type (0, 0), BuildingBlock: EZIPEK_clean_linker_0, # of connection points: 2
#     Edge 34, Type (0, 0), BuildingBlock: EZIPEK_clean_linker_0, # of connection points: 2
#     Edge 35, Type (0, 0), BuildingBlock: EZIPEK_clean_linker_0, # of connection points: 2
#     Edge 36, Type (0, 0), BuildingBlock: EZIPEK_clean_linker_0, # of connection points: 2
#     Edge 37, Type (0, 0), BuildingBlock: EZIPEK_clean_linker_0, # of connection points: 2
#     Edge 38, Type (0, 0), BuildingBlock: EZIPEK_clean_linker_0, # of connection points: 2
#     Edge 39, Type (0, 0), BuildingBlock: EZIPEK_clean_linker_0, # of connection points: 2
#     Edge 40, Type (0, 0), BuildingBlock: EZIPEK_clean_linker_0, # of connection points: 2
#     Edge 41, Type (0, 0), BuildingBlock: EZIPEK_clean_linker_0, # of connection points: 2
#     Edge 42, Type (0, 0), BuildingBlock: EZIPEK_clean_linker_0, # of connection points: 2
#     Edge 43, Type (0, 0), BuildingBlock: EZIPEK_clean_linker_0, # of connection points: 2
#     Edge 44, Type (0, 0), BuildingBlock: EZIPEK_clean_linker_0, # of connection points: 2
#     Edge 45, Type (0, 0), BuildingBlock: EZIPEK_clean_linker_0, # of connection points: 2
#     Edge 46, Type (0, 0), BuildingBlock: EZIPEK_clean_linker_0, # of connection points: 2
#     Edge 47, Type (0, 0), BuildingBlock: EZIPEK_clean_linker_0, # of connection points: 2
#     Edge 48, Type (0, 0), BuildingBlock: EZIPEK_clean_linker_0, # of connection points: 2
#     Edge 49, Type (0, 0), BuildingBlock: EZIPEK_clean_linker_0, # of connection points: 2
#     Edge 50, Type (0, 0), BuildingBlock: EZIPEK_clean_linker_0, # of connection points: 2
#     Edge 51, Type (0, 0), BuildingBlock: EZIPEK_clean_linker_0, # of connection points: 2
#     Edge 52, Type (0, 0), BuildingBlock: EZIPEK_clean_linker_0, # of connection points: 2
#     Edge 53, Type (0, 0), BuildingBlock: EZIPEK_clean_linker_0, # of connection points: 2
#     Edge 54, Type (0, 0), BuildingBlock: EZIPEK_clean_linker_0, # of connection points: 2
#     Edge 55, Type (0, 0), BuildingBlock: EZIPEK_clean_linker_0, # of connection points: 2
#     Edge 56, Type (0, 0), BuildingBlock: EZIPEK_clean_linker_0, # of connection points: 2
#     Edge 57, Type (0, 0), BuildingBlock: EZIPEK_clean_linker_0, # of connection points: 2
#     Edge 58, Type (0, 0), BuildingBlock: EZIPEK_clean_linker_0, # of connection points: 2
#     Edge 59, Type (0, 0), BuildingBlock: EZIPEK_clean_linker_0, # of connection points: 2
#     Edge 60, Type (0, 0), BuildingBlock: EZIPEK_clean_linker_0, # of connection points: 2
#     Edge 61, Type (0, 0), BuildingBlock: EZIPEK_clean_linker_0, # of connection points: 2
#     Edge 62, Type (0, 0), BuildingBlock: EZIPEK_clean_linker_0, # of connection points: 2
#     Edge 63, Type (0, 0), BuildingBlock: EZIPEK_clean_linker_0, # of connection points: 2
# Relax obj value: 0.060
# Max RMSD: 0.147
# Mean RMSD: 0.147
data_MOF--net-vbm--node1-INOVEN_clean_sbu_0--edge1-EZIPEK_clean_linker_0
_symmetry_space_group_name_H-M    P1
_symmetry_Int_Tables_number       1
_symmetry_cell_setting            triclinic
loop_
_symmetry_equiv_pos_as_xyz
'x, y, z'
_cell_length_a     39.490946
_cell_length_b     21.416923
_cell_length_c     40.36675
_cell_angle_alpha  89.579534
_cell_angle_beta   90.115181
_cell_angle_gamma 89.877876
loop_
_atom_site_label
_atom_site_type_symbol
_atom_site_fract_x
_atom_site_fract_y
_atom_site_fract_z
_atom_type_partial_charge
Gd0 Gd 0.13596 0.07748 0.14565 0.0
Gd1 Gd 0.09892 0.19777 0.15265 0.0
C2 C 0.05373 0.0791 0.14797 0.0
C3 C 0.16029 0.96495 0.15058 0.0
C4 C 0.15013 0.89869 0.14853 0.0
C5 C 0.16992 0.85748 0.12978 0.0
C6 C 0.12225 0.87512 0.16627 0.0
C7 C 0.13484 0.77009 0.14712 0.0
C8 C 0.11473 0.81125 0.16561 0.0
C9 C 0.1623 0.79376 0.12898 0.0
C10 C 0.1254 0.13898 0.08687 0.0
C11 C 0.18009 0.19912 0.15279 0.0
C12 C 0.07576 0.31101 0.14791 0.0
C13 C 0.08784 0.37664 0.14805 0.0
C14 C 0.08372 0.41324 0.17658 0.0
C15 C 0.10132 0.40475 0.11932 0.0
C16 C 0.1056 0.50437 0.14756 0.0
C17 C 0.11016 0.46805 0.11912 0.0
C18 C 0.09263 0.47644 0.17637 0.0
C19 C 0.10868 0.13499 0.21133 0.0
O20 O 0.08165 0.04612 0.15277 0.0
O21 O 0.05408 0.13956 0.14251 0.0
O22 O 0.16043 0.99729 0.12303 0.0
O23 O 0.14914 0.99697 0.17574 0.0
O24 O 0.15297 0.10965 0.09503 0.0
O25 O 0.10421 0.13326 0.11021 0.0
O26 O 0.15222 0.2301 0.14578 0.0
O27 O 0.18018 0.13839 0.15829 0.0
O28 O 0.07754 0.27989 0.17584 0.0
O29 O 0.08329 0.27666 0.12225 0.0
O30 O 0.08139 0.16487 0.20283 0.0
O31 O 0.12996 0.14067 0.18806 0.0
H32 H 0.19163 0.87452 0.11608 0.0
H33 H 0.10655 0.9058 0.18097 0.0
H34 H 0.09341 0.79377 0.17972 0.0
H35 H 0.17806 0.76271 0.11456 0.0
H36 H 0.07302 0.39328 0.19896 0.0
H37 H 0.10453 0.37821 0.09681 0.0
H38 H 0.12008 0.48898 0.09665 0.0
H39 H 0.08886 0.50388 0.1985 0.0
Gd40 Gd 0.83541 0.99247 0.15156 0.0
Gd41 Gd 0.87226 0.87367 0.15885 0.0
C42 C 0.91827 0.98851 0.14835 0.0
C43 C 0.81243 0.10558 0.15858 0.0
C44 C 0.82177 0.17209 0.15362 0.0
C45 C 0.80171 0.21029 0.13295 0.0
C46 C 0.84868 0.19937 0.17125 0.0
C47 C 0.83446 0.30173 0.14846 0.0
C48 C 0.85493 0.26357 0.16868 0.0
C49 C 0.80808 0.27447 0.13026 0.0
C50 C 0.84364 0.93434 0.09232 0.0
C51 C 0.79242 0.86944 0.1545 0.0
C52 C 0.89432 0.75928 0.16008 0.0
C53 C 0.88204 0.69422 0.15659 0.0
C54 C 0.88675 0.65206 0.18305 0.0
C55 C 0.8671 0.67257 0.12712 0.0
C56 C 0.86279 0.56776 0.15061 0.0
C57 C 0.8576 0.60974 0.12416 0.0
C58 C 0.87713 0.58953 0.18014 0.0
C59 C 0.86463 0.93932 0.21671 0.0
O60 O 0.89071 1.02256 0.15334 0.0
O61 O 0.91727 0.92775 0.1451 0.0
O62 O 0.80676 0.07198 0.13228 0.0
O63 O 0.82834 0.0744 0.18179 0.0
O64 O 0.81713 0.96587 0.10103 0.0
O65 O 0.86571 0.93721 0.11519 0.0
O66 O 0.82056 0.84211 0.14566 0.0
O67 O 0.79178 0.9285 0.16362 0.0
O68 O 0.88454 0.78927 0.18644 0.0
O69 O 0.89512 0.79492 0.13362 0.0
O70 O 0.89242 0.91323 0.20676 0.0
O71 O 0.84218 0.93065 0.19477 0.0
H72 H 0.78063 0.19068 0.11934 0.0
H73 H 0.86454 0.17144 0.18754 0.0
H74 H 0.87544 0.28374 0.18286 0.0
H75 H 0.79204 0.30311 0.1145 0.0
H76 H 0.89834 0.66738 0.20594 0.0
H77 H 0.86312 0.70385 0.10626 0.0
H78 H 0.84654 0.59369 0.10119 0.0
H79 H 0.88134 0.55781 0.20078 0.0
Gd80 Gd 0.13703 1.00067 0.38885 0.0
Gd81 Gd 0.10509 0.87614 0.37594 0.0
C82 C 0.05621 0.98511 0.39361 0.0
C83 C 0.16555 0.10924 0.38352 0.0
C84 C 0.15796 0.17604 0.3893 0.0
C85 C 0.18317 0.21502 0.40235 0.0
C86 C 0.1268 0.20252 0.37961 0.0
C87 C 0.14703 0.30616 0.3941 0.0
C88 C 0.12145 0.26701 0.38191 0.0
C89 C 0.17771 0.27952 0.40489 0.0
C90 C 0.11734 0.94298 0.44597 0.0
C91 C 0.18557 0.87944 0.38186 0.0
C92 C 0.08544 0.76121 0.37028 0.0
C93 C 0.09704 0.69656 0.37649 0.0
C94 C 0.08519 0.64906 0.35574 0.0
C95 C 0.1196 0.68127 0.40233 0.0
C96 C 0.11764 0.57159 0.38667 0.0
C97 C 0.12977 0.61903 0.40745 0.0
C98 C 0.09542 0.58718 0.36074 0.0
C99 C 0.10671 0.95789 0.32303 0.0
O100 O 0.08085 1.02304 0.38379 0.0
O101 O 0.06174 0.92537 0.39864 0.0
O102 O 0.16958 0.07288 0.40947 0.0
O103 O 0.14874 0.08239 0.35954 0.0
O104 O 0.11553 1.00241 0.43993 0.0
O105 O 0.13049 0.91582 0.42109 0.0
O106 O 0.15827 0.84501 0.37987 0.0
O107 O 0.1845 0.94105 0.38462 0.0
O108 O 0.10105 0.79192 0.34675 0.0
O109 O 0.07847 0.79586 0.39602 0.0
O110 O 0.08159 0.92133 0.32971 0.0
O111 O 0.12979 0.94722 0.34381 0.0
H112 H 0.20742 0.19576 0.40986 0.0
H113 H 0.10685 0.17363 0.36951 0.0
H114 H 0.09757 0.28661 0.37357 0.0
H115 H 0.19771 0.30889 0.41447 0.0
H116 H 0.06791 0.65989 0.33561 0.0
H117 H 0.12928 0.71729 0.41849 0.0
H118 H 0.14706 0.60785 0.4275 0.0
H119 H 0.0859 0.55127 0.34443 0.0
Gd120 Gd 0.83717 0.07534 0.39455 0.0
Gd121 Gd 0.87679 0.1924 0.38147 0.0
C122 C 0.92019 0.07595 0.40231 0.0
C123 C 0.81409 0.96194 0.39086 0.0
C124 C 0.82586 0.89581 0.39022 0.0
C125 C 0.82664 0.8596 0.41947 0.0
C126 C 0.83366 0.86664 0.35998 0.0
C127 C 0.84204 0.76686 0.38823 0.0
C128 C 0.84167 0.80289 0.35903 0.0
C129 C 0.8348 0.7959 0.4185 0.0
C130 C 0.8437 0.14583 0.44983 0.0
C131 C 0.79581 0.20002 0.3834 0.0
C132 C 0.89979 0.30571 0.37692 0.0
C133 C 0.88812 0.37151 0.38014 0.0
C134 C 0.86467 0.39816 0.35777 0.0
C135 C 0.90238 0.40967 0.40468 0.0
C136 C 0.87101 0.49986 0.38379 0.0
C137 C 0.89382 0.47309 0.40658 0.0
C138 C 0.85627 0.46172 0.35956 0.0
C139 C 0.87079 0.11299 0.32884 0.0
O140 O 0.89211 0.04366 0.39715 0.0
O141 O 0.92042 0.1372 0.39957 0.0
O142 O 0.81682 0.99246 0.41869 0.0
O143 O 0.82075 0.99688 0.36499 0.0
O144 O 0.81688 0.11417 0.44197 0.0
O145 O 0.86647 0.13801 0.42796 0.0
O146 O 0.82447 0.22844 0.38979 0.0
O147 O 0.79416 0.13887 0.37957 0.0
O148 O 0.88862 0.2739 0.35163 0.0
O149 O 0.90181 0.27201 0.40404 0.0
O150 O 0.89781 0.14495 0.33547 0.0
O151 O 0.84799 0.12767 0.34928 0.0
H152 H 0.82034 0.88021 0.4431 0.0
H153 H 0.83295 0.89275 0.3369 0.0
H154 H 0.84715 0.78141 0.33542 0.0
H155 H 0.83494 0.76894 0.44131 0.0
H156 H 0.85324 0.37031 0.33848 0.0
H157 H 0.92069 0.39066 0.42207 0.0
H158 H 0.90548 0.50163 0.42547 0.0
H159 H 0.83861 0.4814 0.34175 0.0
Gd160 Gd 0.87147 0.86966 0.88457 0.0
Gd161 Gd 0.8335 0.98801 0.88991 0.0
C162 C 0.79114 0.86357 0.8863 0.0
C163 C 0.89429 0.75585 0.88727 0.0
C164 C 0.88143 0.69071 0.88906 0.0
C165 C 0.8649 0.66297 0.86194 0.0
C166 C 0.88776 0.65416 0.9175 0.0
C167 C 0.86268 0.56325 0.89123 0.0
C168 C 0.87836 0.59113 0.91863 0.0
C169 C 0.85566 0.59985 0.86304 0.0
C170 C 0.86269 0.93253 0.82556 0.0
C171 C 0.91651 0.98652 0.89184 0.0
C172 C 0.80995 0.10082 0.88191 0.0
C173 C 0.81969 0.16758 0.88506 0.0
C174 C 0.81434 0.20018 0.91478 0.0
C175 C 0.83199 0.20076 0.85735 0.0
C176 C 0.83351 0.29698 0.88899 0.0
C177 C 0.83893 0.26469 0.85935 0.0
C178 C 0.82131 0.26422 0.91674 0.0
C179 C 0.84283 0.9307 0.94974 0.0
O180 O 0.81939 0.83594 0.89498 0.0
O181 O 0.79012 0.92337 0.87811 0.0
O182 O 0.88953 0.78684 0.85964 0.0
O183 O 0.89033 0.7907 0.91346 0.0
O184 O 0.89062 0.90641 0.8355 0.0
O185 O 0.84063 0.92482 0.84794 0.0
O186 O 0.88855 1.01932 0.88623 0.0
O187 O 0.91594 0.92612 0.89722 0.0
O188 O 0.8057 0.06791 0.90897 0.0
O189 O 0.82458 0.06882 0.85853 0.0
O190 O 0.81556 0.95982 0.94053 0.0
O191 O 0.86472 0.93499 0.92687 0.0
H192 H 0.85968 0.68957 0.83958 0.0
H193 H 0.90063 0.67404 0.93866 0.0
H194 H 0.88402 0.56366 0.9406 0.0
H195 H 0.84361 0.57918 0.84164 0.0
H196 H 0.80437 0.17642 0.93643 0.0
H197 H 0.83584 0.1775 0.83391 0.0
H198 H 0.84828 0.28917 0.83765 0.0
H199 H 0.81694 0.28839 0.93983 0.0
Gd200 Gd 0.09689 0.19803 0.8782 0.0
Gd201 Gd 0.13441 0.07922 0.88686 0.0
C202 C 0.17791 0.20261 0.88225 0.0
C203 C 0.07358 0.31153 0.88017 0.0
C204 C 0.08588 0.37715 0.88119 0.0
C205 C 0.08965 0.41196 0.85169 0.0
C206 C 0.09153 0.40717 0.91163 0.0
C207 C 0.10373 0.50501 0.88302 0.0
C208 C 0.10045 0.47044 0.91252 0.0
C209 C 0.09858 0.47517 0.85261 0.0
C210 C 0.10688 0.13432 0.82021 0.0
C211 C 0.05185 0.07925 0.88438 0.0
C212 C 0.15886 0.9665 0.88354 0.0
C213 C 0.14842 0.90004 0.88445 0.0
C214 C 0.16327 0.85958 0.90791 0.0
C215 C 0.12548 0.87541 0.86124 0.0
C216 C 0.13307 0.77115 0.88471 0.0
C217 C 0.11792 0.81147 0.86138 0.0
C218 C 0.15559 0.7958 0.90813 0.0
C219 C 0.12372 0.14011 0.94514 0.0
O220 O 0.14931 0.23195 0.8877 0.0
O221 O 0.17898 0.142 0.87651 0.0
O222 O 0.07826 0.28073 0.85272 0.0
O223 O 0.0781 0.27662 0.90656 0.0
O224 O 0.07947 0.16351 0.82856 0.0
O225 O 0.12835 0.14091 0.84337 0.0
O226 O 0.08002 0.04692 0.87984 0.0
O227 O 0.05199 0.13988 0.88893 0.0
O228 O 0.15663 0.99775 0.91109 0.0
O229 O 0.15025 0.99989 0.85765 0.0
O230 O 0.15147 0.11172 0.93708 0.0
O231 O 0.10237 0.13451 0.9218 0.0
H232 H 0.08508 0.3907 0.82784 0.0
H233 H 0.08846 0.38212 0.93483 0.0
H234 H 0.10425 0.49275 0.93623 0.0
H235 H 0.10089 0.50116 0.82961 0.0
H236 H 0.18122 0.87724 0.92587 0.0
H237 H 0.1137 0.90526 0.84274 0.0
H238 H 0.10045 0.79329 0.84313 0.0
H239 H 0.16753 0.76547 0.92632 0.0
Gd240 Gd 0.874 0.19596 0.66338 0.0
Gd241 Gd 0.84016 0.07875 0.6455 0.0
C242 C 0.79421 0.19841 0.65472 0.0
C243 C 0.8947 0.30906 0.67391 0.0
C244 C 0.88404 0.37492 0.66895 0.0
C245 C 0.85793 0.40155 0.68795 0.0
C246 C 0.90191 0.41317 0.64661 0.0
C247 C 0.8686 0.50336 0.66304 0.0
C248 C 0.89416 0.47673 0.64356 0.0
C249 C 0.85033 0.46523 0.68503 0.0
C250 C 0.86837 0.11057 0.71428 0.0
C251 C 0.9227 0.08879 0.64522 0.0
C252 C 0.81819 0.96476 0.64198 0.0
C253 C 0.82919 0.89891 0.64626 0.0
C254 C 0.83512 0.86189 0.61821 0.0
C255 C 0.831 0.87083 0.67788 0.0
C256 C 0.84357 0.77021 0.65311 0.0
C257 C 0.83812 0.80701 0.68125 0.0
C258 C 0.8424 0.79823 0.62162 0.0
C259 C 0.84647 0.15629 0.59195 0.0
O260 O 0.82234 0.22961 0.65028 0.0
O261 O 0.7943 0.13703 0.6583 0.0
O262 O 0.87811 0.27574 0.69571 0.0
O263 O 0.90281 0.27721 0.64756 0.0
O264 O 0.89451 0.14557 0.70919 0.0
O265 O 0.84597 0.12457 0.69316 0.0
O266 O 0.89618 0.0519 0.6503 0.0
O267 O 0.91937 0.1496 0.64404 0.0
O268 O 0.83024 0.9957 0.61662 0.0
O269 O 0.81558 0.99913 0.6685 0.0
O270 O 0.82013 0.12262 0.59881 0.0
O271 O 0.86864 0.1475 0.6144 0.0
H272 H 0.84379 0.37361 0.70557 0.0
H273 H 0.92237 0.39415 0.63193 0.0
H274 H 0.90855 0.50548 0.6265 0.0
H275 H 0.83053 0.48502 0.70028 0.0
H276 H 0.83346 0.88188 0.59353 0.0
H277 H 0.82625 0.89775 0.70001 0.0
H278 H 0.83891 0.7861 0.70576 0.0
H279 H 0.8465 0.7705 0.59964 0.0
Gd280 Gd 0.10207 0.87778 0.65588 0.0
Gd281 Gd 0.13934 0.99924 0.64443 0.0
C282 C 0.18344 0.87337 0.65147 0.0
C283 C 0.08163 0.76273 0.66041 0.0
C284 C 0.09422 0.69786 0.65495 0.0
C285 C 0.12032 0.67187 0.67458 0.0
C286 C 0.07817 0.65948 0.63156 0.0
C287 C 0.11279 0.57026 0.64863 0.0
C288 C 0.08744 0.59649 0.62832 0.0
C289 C 0.12943 0.60879 0.67148 0.0
C290 C 0.10419 0.95757 0.70889 0.0
C291 C 0.05853 0.99503 0.63569 0.0
C292 C 0.16858 0.10659 0.65257 0.0
C293 C 0.16039 0.17444 0.64979 0.0
C294 C 0.15395 0.20402 0.61912 0.0
C295 C 0.1594 0.2107 0.67872 0.0
C296 C 0.14535 0.30402 0.64665 0.0
C297 C 0.15188 0.27462 0.67719 0.0
C298 C 0.1465 0.26823 0.6176 0.0
C299 C 0.11843 0.94542 0.58682 0.0
O300 O 0.15489 0.84252 0.65389 0.0
O301 O 0.18481 0.9349 0.64819 0.0
O302 O 0.09481 0.79376 0.68506 0.0
O303 O 0.07592 0.79807 0.63433 0.0
O304 O 0.0782 0.9238 0.70111 0.0
O305 O 0.12781 0.94522 0.68899 0.0
O306 O 0.08442 1.02689 0.64762 0.0
O307 O 0.0605 0.93385 0.63287 0.0
O308 O 0.17159 0.07376 0.62541 0.0
O309 O 0.15309 0.07601 0.67626 0.0
O310 O 0.11857 1.00497 0.59276 0.0
O311 O 0.13025 0.91654 0.612 0.0
H312 H 0.13327 0.6998 0.6929 0.0
H313 H 0.05785 0.67787 0.61626 0.0
H314 H 0.07426 0.56772 0.61052 0.0
H315 H 0.14905 0.58967 0.68739 0.0
H316 H 0.15457 0.17766 0.59634 0.0
H317 H 0.16442 0.18947 0.70269 0.0
H318 H 0.15109 0.30123 0.6999 0.0
H319 H 0.14147 0.28998 0.59378 0.0
Gd320 Gd 0.63536 0.57441 0.14655 0.0
Gd321 Gd 0.60246 0.69945 0.15267 0.0
C322 C 0.55432 0.58697 0.14479 0.0
C323 C 0.66467 0.467 0.15533 0.0
C324 C 0.65893 0.39965 0.14949 0.0
C325 C 0.64981 0.37621 0.11824 0.0
C326 C 0.66209 0.35792 0.17635 0.0
C327 C 0.64632 0.27088 0.1413 0.0
C328 C 0.65574 0.29423 0.17233 0.0
C329 C 0.64365 0.31216 0.11418 0.0
C330 C 0.61435 0.62135 0.08681 0.0
C331 C 0.68273 0.69707 0.15177 0.0
C332 C 0.58265 0.81506 0.15171 0.0
C333 C 0.59615 0.87897 0.14596 0.0
C334 C 0.61992 0.90563 0.16773 0.0
C335 C 0.58296 0.91599 0.12005 0.0
C336 C 0.61525 1.00571 0.13907 0.0
C337 C 0.59255 0.97867 0.11652 0.0
C338 C 0.62929 0.96839 0.16434 0.0
C339 C 0.60683 0.63037 0.21068 0.0
O340 O 0.57993 0.55262 0.15592 0.0
O341 O 0.55874 0.64465 0.13469 0.0
O342 O 0.67084 0.50348 0.12984 0.0
O343 O 0.6447 0.49286 0.17711 0.0
O344 O 0.61282 0.56332 0.09591 0.0
O345 O 0.62796 0.65252 0.10996 0.0
O346 O 0.65535 0.7314 0.15028 0.0
O347 O 0.68211 0.63523 0.15181 0.0
O348 O 0.59284 0.78566 0.17843 0.0
O349 O 0.57973 0.77812 0.12613 0.0
O350 O 0.58043 0.66112 0.20078 0.0
O351 O 0.62908 0.63676 0.18865 0.0
H352 H 0.64707 0.40731 0.09713 0.0
H353 H 0.66911 0.37483 0.20065 0.0
H354 H 0.65784 0.26314 0.19353 0.0
H355 H 0.63627 0.29492 0.09007 0.0
H356 H 0.63063 0.87862 0.18799 0.0
H357 H 0.56448 0.89691 0.10305 0.0
H358 H 0.58145 1.00669 0.09685 0.0
H359 H 0.64685 0.98833 0.18197 0.0
Gd360 Gd 0.33809 0.48459 0.15306 0.0
Gd361 Gd 0.37489 0.36643 0.16533 0.0
C362 C 0.42085 0.48116 0.15166 0.0
C363 C 0.31484 0.59834 0.1547 0.0
C364 C 0.32558 0.66454 0.15267 0.0
C365 C 0.3087 0.70522 0.13069 0.0
C366 C 0.35053 0.68891 0.17389 0.0
C367 C 0.34044 0.79361 0.15194 0.0
C368 C 0.35785 0.75294 0.17352 0.0
C369 C 0.31612 0.76913 0.13023 0.0
C370 C 0.34704 0.41722 0.09673 0.0
C371 C 0.29428 0.36305 0.1587 0.0
C372 C 0.39708 0.25244 0.17002 0.0
C373 C 0.38567 0.18697 0.16587 0.0
C374 C 0.38749 0.14576 0.19308 0.0
C375 C 0.3746 0.16394 0.1351 0.0
C376 C 0.36831 0.05974 0.1589 0.0
C377 C 0.36602 0.10076 0.13167 0.0
C378 C 0.3788 0.08283 0.18967 0.0
C379 C 0.36751 0.43965 0.22029 0.0
O380 O 0.39303 0.51521 0.15485 0.0
O381 O 0.42023 0.41992 0.15123 0.0
O382 O 0.31621 0.56537 0.12766 0.0
O383 O 0.32387 0.5664 0.18093 0.0
O384 O 0.32002 0.44864 0.10413 0.0
O385 O 0.36877 0.42404 0.1196 0.0
O386 O 0.32284 0.33373 0.15296 0.0
O387 O 0.29338 0.42356 0.16452 0.0
O388 O 0.3843 0.28315 0.19492 0.0
O389 O 0.4006 0.28717 0.14344 0.0
O390 O 0.3951 0.41128 0.2117 0.0
O391 O 0.34503 0.42879 0.19865 0.0
H392 H 0.28922 0.68771 0.11428 0.0
H393 H 0.36393 0.65881 0.19119 0.0
H394 H 0.37674 0.77096 0.19041 0.0
H395 H 0.30246 0.79973 0.11339 0.0
H396 H 0.39612 0.16212 0.21699 0.0
H397 H 0.37296 0.19438 0.11363 0.0
H398 H 0.35793 0.08371 0.10774 0.0
H399 H 0.38073 0.05187 0.21093 0.0
Gd400 Gd 0.6363 0.49336 0.38485 0.0
Gd401 Gd 0.60215 0.36895 0.37452 0.0
C402 C 0.55537 0.48177 0.39144 0.0
C403 C 0.66551 0.60059 0.37646 0.0
C404 C 0.6584 0.66804 0.38089 0.0
C405 C 0.65016 0.69349 0.41192 0.0
C406 C 0.65987 0.70792 0.35312 0.0
C407 C 0.64454 0.79697 0.38696 0.0
C408 C 0.6529 0.77167 0.35609 0.0
C409 C 0.64334 0.75756 0.41491 0.0
C410 C 0.61691 0.43928 0.44297 0.0
C411 C 0.68308 0.36965 0.37881 0.0
C412 C 0.58221 0.25382 0.37197 0.0
C413 C 0.59499 0.18947 0.37833 0.0
C414 C 0.61966 0.16219 0.35779 0.0
C415 C 0.58041 0.15279 0.40356 0.0
C416 C 0.61336 0.06241 0.38637 0.0
C417 C 0.58962 0.08995 0.40766 0.0
C418 C 0.62868 0.0993 0.36176 0.0
C419 C 0.60315 0.44848 0.32076 0.0
O420 O 0.58037 0.51791 0.3807 0.0
O421 O 0.55998 0.4219 0.39712 0.0
O422 O 0.67005 0.56564 0.40291 0.0
O423 O 0.64788 0.57272 0.35342 0.0
O424 O 0.6163 0.49866 0.43647 0.0
O425 O 0.62908 0.41044 0.41818 0.0
O426 O 0.65531 0.33641 0.37693 0.0
O427 O 0.68288 0.43135 0.38122 0.0
O428 O 0.59504 0.28419 0.34671 0.0
O429 O 0.57675 0.28969 0.3976 0.0
O430 O 0.57792 0.41267 0.32827 0.0
O431 O 0.6267 0.43768 0.34106 0.0
H432 H 0.64877 0.66399 0.43378 0.0
H433 H 0.66623 0.68958 0.32896 0.0
H434 H 0.65386 0.80132 0.33425 0.0
H435 H 0.63679 0.77632 0.43891 0.0
H436 H 0.63142 0.18887 0.33805 0.0
H437 H 0.56119 0.17229 0.4196 0.0
H438 H 0.57751 0.06226 0.4268 0.0
H439 H 0.64705 0.07894 0.3451 0.0
Gd440 Gd 0.33894 0.58498 0.39086 0.0
Gd441 Gd 0.37979 0.70287 0.37946 0.0
C442 C 0.42179 0.58394 0.40008 0.0
C443 C 0.31581 0.47193 0.38558 0.0
C444 C 0.32763 0.40581 0.38532 0.0
C445 C 0.32795 0.36986 0.41467 0.0
C446 C 0.33606 0.37642 0.35531 0.0
C447 C 0.3441 0.27693 0.38397 0.0
C448 C 0.34422 0.3127 0.35466 0.0
C449 C 0.33625 0.30621 0.41401 0.0
C450 C 0.34556 0.65391 0.44654 0.0
C451 C 0.29844 0.71079 0.38067 0.0
C452 C 0.40332 0.81597 0.37667 0.0
C453 C 0.39146 0.88177 0.37909 0.0
C454 C 0.3684 0.90762 0.35607 0.0
C455 C 0.40508 0.92068 0.40364 0.0
C456 C 0.3739 1.01006 0.38149 0.0
C457 C 0.3963 0.98407 0.40492 0.0
C458 C 0.35979 0.97115 0.35724 0.0
C459 C 0.37375 0.62505 0.32639 0.0
O460 O 0.39364 0.5526 0.39383 0.0
O461 O 0.42257 0.64534 0.39791 0.0
O462 O 0.31712 0.50211 0.41362 0.0
O463 O 0.32377 0.50717 0.36016 0.0
O464 O 0.31879 0.62212 0.43867 0.0
O465 O 0.36836 0.64626 0.42475 0.0
O466 O 0.32726 0.73882 0.38701 0.0
O467 O 0.29647 0.6498 0.37624 0.0
O468 O 0.39402 0.78428 0.35062 0.0
O469 O 0.40327 0.7822 0.40384 0.0
O470 O 0.40081 0.65687 0.3331 0.0
O471 O 0.35095 0.63959 0.3468 0.0
H472 H 0.3212 0.39062 0.43814 0.0
H473 H 0.33574 0.40234 0.33216 0.0
H474 H 0.3502 0.29105 0.33122 0.0
H475 H 0.33601 0.27947 0.43689 0.0
H476 H 0.35745 0.87913 0.33679 0.0
H477 H 0.42305 0.90225 0.42154 0.0
H478 H 0.40747 1.01319 0.42383 0.0
H479 H 0.34245 0.9902 0.33894 0.0
Gd480 Gd 0.36748 0.37484 0.88246 0.0
Gd481 Gd 0.33568 0.4921 0.90181 0.0
C482 C 0.28856 0.374 0.89328 0.0
C483 C 0.38753 0.26162 0.86978 0.0
C484 C 0.3784 0.19547 0.87511 0.0
C485 C 0.4027 0.14926 0.86867 0.0
C486 C 0.3457 0.17742 0.88496 0.0
C487 C 0.36181 0.06769 0.88117 0.0
C488 C 0.33747 0.11387 0.88799 0.0
C489 C 0.3945 0.08594 0.87166 0.0
C490 C 0.36136 0.46101 0.83167 0.0
C491 C 0.41778 0.47914 0.89676 0.0
C492 C 0.31489 0.60662 0.90949 0.0
C493 C 0.32285 0.67226 0.90071 0.0
C494 C 0.29632 0.713 0.89196 0.0
C495 C 0.35588 0.69623 0.90352 0.0
C496 C 0.33517 0.80102 0.89093 0.0
C497 C 0.36195 0.76014 0.8987 0.0
C498 C 0.30241 0.77682 0.88707 0.0
C499 C 0.3442 0.41446 0.95523 0.0
O500 O 0.31658 0.34238 0.89775 0.0
O501 O 0.2889 0.43544 0.89011 0.0
O502 O 0.3677 0.29425 0.85036 0.0
O503 O 0.39781 0.29318 0.89546 0.0
O504 O 0.38683 0.42404 0.83616 0.0
O505 O 0.33913 0.44842 0.8531 0.0
O506 O 0.39129 0.51576 0.89097 0.0
O507 O 0.41353 0.41939 0.90204 0.0
O508 O 0.33553 0.57788 0.9298 0.0
O509 O 0.3037 0.5703 0.88605 0.0
O510 O 0.31764 0.44817 0.94915 0.0
O511 O 0.36508 0.42234 0.93171 0.0
H512 H 0.428 0.16219 0.86091 0.0
H513 H 0.32651 0.21231 0.88995 0.0
H514 H 0.31211 0.10068 0.8954 0.0
H515 H 0.41362 0.05108 0.86635 0.0
H516 H 0.27065 0.69569 0.88978 0.0
H517 H 0.37684 0.66593 0.91016 0.0
H518 H 0.38741 0.77797 0.90171 0.0
H519 H 0.28144 0.80761 0.8811 0.0
Gd520 Gd 0.60131 0.69032 0.87665 0.0
Gd521 Gd 0.63616 0.56514 0.88683 0.0
C522 C 0.68228 0.68885 0.87988 0.0
C523 C 0.58177 0.80608 0.87685 0.0
C524 C 0.59544 0.86979 0.88255 0.0
C525 C 0.6207 0.89539 0.86195 0.0
C526 C 0.58102 0.90771 0.9071 0.0
C527 C 0.6151 0.99627 0.88891 0.0
C528 C 0.59087 0.97024 0.91036 0.0
C529 C 0.63034 0.95802 0.86506 0.0
C530 C 0.60112 0.61477 0.82201 0.0
C531 C 0.55507 0.57218 0.88974 0.0
C532 C 0.66687 0.45909 0.87903 0.0
C533 C 0.66015 0.39118 0.88283 0.0
C534 C 0.65342 0.36343 0.91386 0.0
C535 C 0.66067 0.35314 0.85458 0.0
C536 C 0.64704 0.26163 0.88797 0.0
C537 C 0.65405 0.28911 0.8571 0.0
C538 C 0.64695 0.29913 0.91638 0.0
C539 C 0.61425 0.61689 0.94448 0.0
O540 O 0.65464 0.72163 0.87513 0.0
O541 O 0.6822 0.62786 0.88534 0.0
O542 O 0.5922 0.77693 0.85039 0.0
O543 O 0.5784 0.76882 0.90253 0.0
O544 O 0.57754 0.65431 0.82948 0.0
O545 O 0.62495 0.6216 0.84272 0.0
O546 O 0.58169 0.53691 0.8832 0.0
O547 O 0.55751 0.63314 0.89374 0.0
O548 O 0.66992 0.49288 0.90582 0.0
O549 O 0.65006 0.48779 0.85541 0.0
O550 O 0.61312 0.55784 0.9374 0.0
O551 O 0.62763 0.64627 0.92029 0.0
H552 H 0.63241 0.86764 0.84278 0.0
H553 H 0.56142 0.88943 0.92318 0.0
H554 H 0.57881 0.99894 0.92893 0.0
H555 H 0.64909 0.97713 0.84829 0.0
H556 H 0.65293 0.39131 0.93613 0.0
H557 H 0.66597 0.37312 0.8304 0.0
H558 H 0.65418 0.26098 0.8349 0.0
H559 H 0.64149 0.27872 0.94041 0.0
Gd560 Gd 0.37233 0.69447 0.65993 0.0
Gd561 Gd 0.33853 0.57849 0.63863 0.0
C562 C 0.29298 0.69816 0.64934 0.0
C563 C 0.39152 0.80756 0.67342 0.0
C564 C 0.38101 0.87355 0.66864 0.0
C565 C 0.38244 0.91429 0.69573 0.0
C566 C 0.37084 0.89729 0.63756 0.0
C567 C 0.3651 1.00171 0.66069 0.0
C568 C 0.36302 0.96091 0.63363 0.0
C569 C 0.37452 0.97768 0.69183 0.0
C570 C 0.36554 0.60511 0.70871 0.0
C571 C 0.42139 0.58823 0.64107 0.0
C572 C 0.31682 0.46456 0.63162 0.0
C573 C 0.32674 0.39822 0.63753 0.0
C574 C 0.34472 0.36466 0.61334 0.0
C575 C 0.31573 0.36616 0.66612 0.0
C576 C 0.34 0.26891 0.64596 0.0
C577 C 0.32246 0.30227 0.67037 0.0
C578 C 0.3513 0.30075 0.61756 0.0
C579 C 0.34604 0.66086 0.58743 0.0
O580 O 0.3213 0.72899 0.64568 0.0
O581 O 0.2926 0.63657 0.65165 0.0
O582 O 0.37301 0.77358 0.69334 0.0
O583 O 0.4019 0.77666 0.64749 0.0
O584 O 0.3914 0.64152 0.70531 0.0
O585 O 0.34348 0.62055 0.68756 0.0
O586 O 0.39452 0.55157 0.64407 0.0
O587 O 0.41854 0.64919 0.64161 0.0
O588 O 0.33281 0.49565 0.60851 0.0
O589 O 0.31001 0.49898 0.65739 0.0
O590 O 0.3196 0.62639 0.59263 0.0
O591 O 0.36767 0.64978 0.61005 0.0
H592 H 0.39019 0.89716 0.71991 0.0
H593 H 0.36934 0.86695 0.61626 0.0
H594 H 0.35575 0.97852 0.60941 0.0
H595 H 0.37625 1.00828 0.71302 0.0
H596 H 0.3532 0.38745 0.59081 0.0
H597 H 0.30145 0.39022 0.68504 0.0
H598 H 0.31354 0.27861 0.69249 0.0
H599 H 0.36487 0.27588 0.59843 0.0
Gd600 Gd 0.59947 0.37106 0.65135 0.0
Gd601 Gd 0.63718 0.4929 0.64242 0.0
C602 C 0.68117 0.36736 0.65105 0.0
C603 C 0.57897 0.25581 0.65368 0.0
C604 C 0.59209 0.19106 0.64893 0.0
C605 C 0.61454 0.16327 0.67193 0.0
C606 C 0.57997 0.1545 0.62263 0.0
C607 C 0.61112 0.0636 0.64327 0.0
C608 C 0.5895 0.09157 0.61973 0.0
C609 C 0.62389 0.1003 0.66912 0.0
C610 C 0.59966 0.44807 0.70534 0.0
C611 C 0.55662 0.49044 0.63216 0.0
C612 C 0.66624 0.60002 0.65166 0.0
C613 C 0.6582 0.66785 0.64816 0.0
C614 C 0.6562 0.69787 0.61703 0.0
C615 C 0.65306 0.70378 0.6768 0.0
C616 C 0.64359 0.79746 0.64346 0.0
C617 C 0.64572 0.76769 0.67447 0.0
C618 C 0.64893 0.76206 0.61473 0.0
C619 C 0.6176 0.44109 0.58383 0.0
O620 O 0.65256 0.33627 0.65224 0.0
O621 O 0.6825 0.42885 0.64774 0.0
O622 O 0.59005 0.28647 0.67941 0.0
O623 O 0.57531 0.2916 0.62745 0.0
O624 O 0.57403 0.4145 0.69624 0.0
O625 O 0.62405 0.43714 0.68606 0.0
O626 O 0.58245 0.52124 0.64487 0.0
O627 O 0.55836 0.42931 0.62851 0.0
O628 O 0.6706 0.56683 0.62481 0.0
O629 O 0.64959 0.56972 0.67471 0.0
O630 O 0.61775 0.50042 0.59026 0.0
O631 O 0.62895 0.41143 0.60893 0.0
H632 H 0.62434 0.18967 0.6926 0.0
H633 H 0.56246 0.17422 0.60468 0.0
H634 H 0.57933 0.06419 0.59959 0.0
H635 H 0.64059 0.07978 0.68756 0.0
H636 H 0.66019 0.67187 0.59446 0.0
H637 H 0.65471 0.68234 0.70115 0.0
H638 H 0.64169 0.79403 0.69694 0.0
H639 H 0.64736 0.78413 0.59054 0.0
C640 C 0.23395 0.2393 0.12979 0.0
C641 C 0.21114 0.23585 0.15657 0.0
C642 C 0.24278 0.31696 0.18581 0.0
C643 C 0.26309 0.32541 0.1572 0.0
N644 N 0.27271 0.30469 0.0993 0.0
N645 N 0.19107 0.27455 0.20902 0.0
C646 C 0.25721 0.28928 0.12842 0.0
C647 C 0.21466 0.27581 0.18428 0.0
N648 N 0.23353 0.19471 0.10576 0.0
N649 N 0.25128 0.34551 0.21482 0.0
H650 H 0.17144 0.24205 0.20988 0.0
H651 H 0.18995 0.30774 0.22772 0.0
H652 H 0.27183 0.37559 0.217 0.0
H653 H 0.2396 0.3356 0.23736 0.0
H654 H 0.25179 0.19183 0.08723 0.0
H655 H 0.21686 0.15704 0.10624 0.0
H656 H 0.26708 0.28355 0.0768 0.0
H657 H 0.28829 0.34357 0.09698 0.0
C658 C 0.75102 0.80515 0.12388 0.0
C659 C 0.762 0.83 0.15453 0.0
C660 C 0.72359 0.76002 0.18431 0.0
C661 C 0.71456 0.73216 0.15375 0.0
N662 N 0.72316 0.72043 0.09521 0.0
N663 N 0.7633 0.8248 0.21425 0.0
C664 C 0.72957 0.75219 0.12376 0.0
C665 C 0.74951 0.80583 0.18491 0.0
N666 N 0.76033 0.83368 0.09491 0.0
N667 N 0.70661 0.74401 0.21259 0.0
H668 H 0.7817 0.85952 0.21574 0.0
H669 H 0.75813 0.80337 0.23691 0.0
H670 H 0.68855 0.70859 0.21332 0.0
H671 H 0.70902 0.76805 0.2348 0.0
H672 H 0.75088 0.82145 0.07176 0.0
H673 H 0.77514 0.87386 0.09435 0.0
H674 H 0.73562 0.72892 0.07294 0.0
H675 H 0.70746 0.68142 0.09466 0.0
C676 C 0.2667 0.79992 0.35486 0.0
C677 C 0.26811 0.75127 0.37907 0.0
C678 C 0.22134 0.79949 0.40917 0.0
C679 C 0.21771 0.8444 0.38342 0.0
N680 N 0.23422 0.88462 0.33 0.0
N681 N 0.24336 0.69888 0.42628 0.0
C682 C 0.23986 0.84435 0.35588 0.0
C683 C 0.24436 0.74922 0.40531 0.0
N684 N 0.29104 0.8035 0.33087 0.0
N685 N 0.20307 0.80589 0.4377 0.0
H686 H 0.25963 0.66088 0.42422 0.0
H687 H 0.22433 0.69184 0.44372 0.0
H688 H 0.18622 0.84272 0.44139 0.0
H689 H 0.207 0.77865 0.45884 0.0
H690 H 0.29405 0.84195 0.31523 0.0
H691 H 0.30932 0.7689 0.32747 0.0
H692 H 0.24677 0.88193 0.3074 0.0
H693 H 0.2155 0.91902 0.33046 0.0
C694 C 0.74131 0.24041 0.40622 0.0
C695 C 0.76549 0.24028 0.38037 0.0
C696 C 0.73735 0.33074 0.35424 0.0
C697 C 0.71476 0.33325 0.38137 0.0
N698 N 0.69911 0.29938 0.43628 0.0
N699 N 0.78915 0.2883 0.33129 0.0
C700 C 0.71796 0.29063 0.40829 0.0
C701 C 0.76434 0.28656 0.35487 0.0
N702 N 0.74035 0.19225 0.4286 0.0
N703 N 0.73207 0.36852 0.32726 0.0
H704 H 0.80776 0.25391 0.32925 0.0
H705 H 0.79227 0.32523 0.31467 0.0
H706 H 0.7132 0.40266 0.32647 0.0
H707 H 0.74502 0.36386 0.30498 0.0
H708 H 0.72109 0.18644 0.44591 0.0
H709 H 0.75708 0.15469 0.42798 0.0
H710 H 0.70268 0.27409 0.45814 0.0
H711 H 0.68206 0.33627 0.43875 0.0
C712 C 0.7306 0.74317 0.85324 0.0
C713 C 0.71359 0.72549 0.88263 0.0
C714 C 0.74621 0.8017 0.91439 0.0
C715 C 0.76108 0.82323 0.88446 0.0
N716 N 0.7665 0.81847 0.82507 0.0
N717 N 0.70258 0.73954 0.94081 0.0
C718 C 0.75291 0.79518 0.85372 0.0
C719 C 0.72084 0.75495 0.91318 0.0
N720 N 0.7258 0.70907 0.82514 0.0
N721 N 0.75696 0.82509 0.94404 0.0
H722 H 0.68529 0.70284 0.94132 0.0
H723 H 0.70335 0.76465 0.96278 0.0
H724 H 0.77386 0.86223 0.94579 0.0
H725 H 0.75052 0.80587 0.96693 0.0
H726 H 0.7393 0.71569 0.8033 0.0
H727 H 0.71012 0.66996 0.82465 0.0
H728 H 0.75929 0.80431 0.8015 0.0
H729 H 0.7836 0.85546 0.82469 0.0
C730 C 0.25032 0.29408 0.91723 0.0
C731 C 0.25714 0.33683 0.89112 0.0
C732 C 0.213 0.28775 0.85746 0.0
C733 C 0.20877 0.24138 0.88247 0.0
N734 N 0.2283 0.19283 0.93301 0.0
N735 N 0.24878 0.36866 0.83416 0.0
C736 C 0.22907 0.24207 0.91135 0.0
C737 C 0.23937 0.33251 0.86062 0.0
N738 N 0.26338 0.30459 0.94805 0.0
N739 N 0.19165 0.28913 0.83076 0.0
H740 H 0.2676 0.40258 0.8355 0.0
H741 H 0.23951 0.36221 0.81026 0.0
H742 H 0.17376 0.25436 0.82632 0.0
H743 H 0.19059 0.3262 0.81394 0.0
H744 H 0.25693 0.27828 0.9689 0.0
H745 H 0.27775 0.34407 0.95338 0.0
H746 H 0.24486 0.18824 0.95301 0.0
H747 H 0.21332 0.15358 0.92912 0.0
C748 C 0.73325 0.32681 0.67966 0.0
C749 C 0.71225 0.32891 0.65119 0.0
C750 C 0.73982 0.23505 0.62937 0.0
C751 C 0.76277 0.23589 0.65636 0.0
N752 N 0.78306 0.28346 0.70663 0.0
N753 N 0.69924 0.29324 0.59617 0.0
C754 C 0.75994 0.28214 0.68136 0.0
C755 C 0.71659 0.28522 0.62527 0.0
N756 N 0.72682 0.36588 0.70555 0.0
N757 N 0.73999 0.18614 0.60783 0.0
H758 H 0.68268 0.33055 0.59205 0.0
H759 H 0.7037 0.26691 0.57503 0.0
H760 H 0.75657 0.14851 0.61014 0.0
H761 H 0.7217 0.17979 0.58956 0.0
H762 H 0.73836 0.36181 0.72867 0.0
H763 H 0.70849 0.40092 0.70447 0.0
H764 H 0.7853 0.32026 0.72319 0.0
H765 H 0.80108 0.24838 0.71037 0.0
C766 C 0.21799 0.79432 0.62238 0.0
C767 C 0.21416 0.83434 0.65 0.0
C768 C 0.25974 0.779 0.67913 0.0
C769 C 0.26207 0.73659 0.65224 0.0
N770 N 0.23977 0.69654 0.60112 0.0
N771 N 0.22812 0.86165 0.7061 0.0
C772 C 0.23997 0.7419 0.62475 0.0
C773 C 0.23428 0.82607 0.67876 0.0
N774 N 0.20115 0.80775 0.59354 0.0
N775 N 0.28223 0.77446 0.70486 0.0
H776 H 0.21069 0.89833 0.70608 0.0
H777 H 0.23895 0.85314 0.72923 0.0
H778 H 0.29922 0.73733 0.70743 0.0
H779 H 0.285 0.80841 0.72298 0.0
H780 H 0.20521 0.78423 0.57142 0.0
H781 H 0.18537 0.8466 0.5909 0.0
H782 H 0.22211 0.6946 0.58199 0.0
H783 H 0.25543 0.65739 0.60236 0.0
C784 C 0.13704 1.00761 0.27381 0.0
C785 C 0.10833 1.00538 0.29519 0.0
C786 C 0.08613 0.10001 0.26739 0.0
C787 C 0.11234 0.09748 0.24335 0.0
N788 N 0.17063 0.06836 0.23501 0.0
N789 N 0.0527 0.04604 0.30842 0.0
C790 C 0.14014 0.05669 0.24963 0.0
C791 C 0.08207 0.05043 0.29078 0.0
N792 N 0.16041 0.96046 0.27502 0.0
N793 N 0.06724 0.15323 0.27037 0.0
H794 H 0.04849 1.01272 0.32669 0.0
H795 H 0.03119 0.07242 0.30285 0.0
H796 H 0.07297 0.19425 0.25754 0.0
H797 H 0.04976 0.16027 0.28928 0.0
H798 H 0.17959 0.95523 0.25758 0.0
H799 H 0.15868 0.92268 0.29135 0.0
H800 H 0.19269 0.04371 0.2406 0.0
H801 H 0.17518 0.10861 0.22118 0.0
C802 C 0.83893 0.06633 0.27971 0.0
C803 C 0.8674 0.06516 0.30153 0.0
C804 C 0.88772 0.97023 0.2731 0.0
C805 C 0.86164 0.97591 0.2489 0.0
N806 N 0.80402 1.01031 0.24044 0.0
N807 N 0.92107 1.01753 0.31636 0.0
C808 C 0.83472 1.01848 0.25534 0.0
C809 C 0.89237 1.01761 0.29742 0.0
N810 N 0.81695 0.11568 0.28054 0.0
N811 N 0.90579 0.91581 0.27529 0.0
H812 H 0.92503 0.04751 0.33605 0.0
H813 H 0.94221 0.99022 0.31102 0.0
H814 H 0.89984 0.87659 0.26131 0.0
H815 H 0.92289 0.90582 0.29429 0.0
H816 H 0.79834 0.1234 0.26264 0.0
H817 H 0.81941 0.15265 0.29699 0.0
H818 H 0.78253 0.03607 0.24646 0.0
H819 H 0.79856 0.97219 0.22562 0.0
C820 C 0.83628 0.06099 0.76263 0.0
C821 C 0.86511 0.06173 0.7414 0.0
C822 C 0.88586 0.9662 0.76965 0.0
C823 C 0.85951 0.97008 0.79346 0.0
N824 N 0.80154 1.00242 0.80129 0.0
N825 N 0.91989 1.01745 0.72811 0.0
C826 C 0.83229 1.01211 0.78681 0.0
C827 C 0.89058 1.01509 0.74593 0.0
N828 N 0.81376 0.10951 0.76146 0.0
N829 N 0.90433 0.91234 0.76732 0.0
H830 H 0.92428 0.04953 0.70929 0.0
H831 H 0.94109 0.99036 0.73382 0.0
H832 H 0.89841 0.87218 0.78085 0.0
H833 H 0.92174 0.90392 0.74851 0.0
H834 H 0.7948 0.11594 0.77902 0.0
H835 H 0.81604 0.14709 0.74508 0.0
H836 H 0.77985 1.02766 0.79508 0.0
H837 H 0.79641 0.96371 0.81606 0.0
C838 C 0.08393 0.09907 0.76439 0.0
C839 C 0.11027 0.09634 0.78848 0.0
C840 C 0.13463 1.00648 0.75833 0.0
C841 C 0.10598 1.00484 0.73668 0.0
N842 N 0.05035 0.04611 0.72336 0.0
N843 N 0.16846 0.06616 0.7971 0.0
C844 C 0.07978 0.04992 0.74103 0.0
C845 C 0.13791 0.05527 0.78237 0.0
N846 N 0.06507 0.15239 0.7611 0.0
N847 N 0.15768 0.95881 0.75767 0.0
H848 H 0.17311 0.10542 0.81141 0.0
H849 H 0.19045 0.04165 0.79138 0.0
H850 H 0.15567 0.92092 0.74174 0.0
H851 H 0.17673 0.95315 0.77532 0.0
H852 H 0.04759 0.15965 0.74209 0.0
H853 H 0.07083 0.1933 0.77372 0.0
H854 H 0.02877 0.07159 0.72946 0.0
H855 H 0.04617 1.0144 0.70449 0.0
C856 C 0.57769 0.54038 0.28819 0.0
C857 C 0.60436 0.49617 0.29295 0.0
C858 C 0.63682 0.54969 0.24868 0.0
C859 C 0.60886 0.59011 0.24193 0.0
N860 N 0.56155 0.64235 0.26738 0.0
N861 N 0.6566 0.45211 0.27274 0.0
C862 C 0.58159 0.59045 0.26493 0.0
C863 C 0.63331 0.49946 0.27202 0.0
N864 N 0.54816 0.53486 0.30549 0.0
N865 N 0.66781 0.5622 0.23524 0.0
H866 H 0.6545 0.41318 0.28824 0.0
H867 H 0.67594 0.44778 0.25539 0.0
H868 H 0.67284 0.60211 0.22136 0.0
H869 H 0.68978 0.53807 0.24176 0.0
H870 H 0.5263 0.55984 0.2995 0.0
H871 H 0.54429 0.50209 0.32409 0.0
H872 H 0.54319 0.64807 0.28559 0.0
H873 H 0.56689 0.68402 0.25502 0.0
C874 C 0.34197 0.57314 0.27906 0.0
C875 C 0.37077 0.57486 0.30042 0.0
C876 C 0.39075 0.47658 0.27538 0.0
C877 C 0.36454 0.47948 0.25124 0.0
N878 N 0.30667 0.51182 0.2425 0.0
N879 N 0.42497 0.52956 0.3159 0.0
C880 C 0.33758 0.52241 0.2565 0.0
C881 C 0.39582 0.52707 0.29769 0.0
N882 N 0.31979 0.62225 0.27856 0.0
N883 N 0.40847 0.42218 0.27965 0.0
H884 H 0.42967 0.56256 0.33398 0.0
H885 H 0.44587 0.50119 0.31126 0.0
H886 H 0.4021 0.38119 0.26736 0.0
H887 H 0.42558 0.41456 0.29895 0.0
H888 H 0.30084 0.62746 0.26076 0.0
H889 H 0.3224 0.66125 0.29363 0.0
H890 H 0.28513 0.53784 0.24804 0.0
H891 H 0.3013 0.47201 0.22893 0.0
C892 C 0.35516 0.56467 0.80059 0.0
C893 C 0.35596 0.49818 0.80028 0.0
C894 C 0.35979 0.5013 0.73935 0.0
C895 C 0.35878 0.56773 0.73967 0.0
N896 N 0.34711 0.66172 0.76992 0.0
N897 N 0.34996 0.40377 0.76891 0.0
C898 C 0.35382 0.59905 0.77013 0.0
C899 C 0.35549 0.46675 0.76946 0.0
N900 N 0.35731 0.59536 0.82996 0.0
N901 N 0.36631 0.47093 0.71049 0.0
H902 H 0.34606 0.3774 0.7904 0.0
H903 H 0.34582 0.3788 0.74724 0.0
H904 H 0.36803 0.49414 0.68792 0.0
H905 H 0.37201 0.42351 0.70922 0.0
H906 H 0.36152 0.64317 0.8319 0.0
H907 H 0.35681 0.57209 0.85254 0.0
H908 H 0.33969 0.68636 0.79084 0.0
H909 H 0.34584 0.68818 0.74815 0.0
C910 C 0.56998 0.55861 0.77461 0.0
C911 C 0.60094 0.57297 0.79155 0.0
C912 C 0.62996 0.4986 0.75446 0.0
C913 C 0.60025 0.49135 0.73489 0.0
N914 N 0.54387 0.52964 0.7228 0.0
N915 N 0.66231 0.56981 0.78787 0.0
C916 C 0.57089 0.5259 0.74388 0.0
C917 C 0.63151 0.5468 0.77872 0.0
N918 N 0.5392 0.57327 0.78797 0.0
N919 N 0.65645 0.45807 0.75119 0.0
H920 H 0.66516 0.60958 0.80217 0.0
H921 H 0.6849 0.55494 0.77714 0.0
H922 H 0.65564 0.41936 0.73575 0.0
H923 H 0.67735 0.45844 0.76702 0.0
H924 H 0.5164 0.55765 0.778 0.0
H925 H 0.53574 0.59261 0.8112 0.0
H926 H 0.52353 0.55976 0.7266 0.0
H927 H 0.54322 0.50837 0.69979 0.0
C928 C 0.14309 0.1908 0.99773 0.0
C929 C 0.11705 0.15852 0.98066 0.0
C930 C 0.08827 0.14202 0.03443 0.0
C931 C 0.11844 0.15907 0.05143 0.0
N932 N 0.17191 0.21241 0.04962 0.0
N933 N 0.06213 0.10901 0.98311 0.0
C934 C 0.14493 0.18776 0.03306 0.0
C935 C 0.08855 0.13669 0.99903 0.0
N936 N 0.16539 0.22626 0.9799 0.0
N937 N 0.05895 0.13345 0.0517 0.0
H938 H 0.05884 0.11112 0.95763 0.0
H939 H 0.04366 0.08289 0.99526 0.0
H940 H 0.05691 0.14252 0.07685 0.0
H941 H 0.03555 0.12578 0.04054 0.0
H942 H 0.18369 0.25488 0.9904 0.0
H943 H 0.1632 0.23191 0.9543 0.0
H944 H 0.19436 0.22614 0.03826 0.0
H945 H 0.17174 0.2185 0.07524 0.0
C946 C 0.86046 0.98286 1.00282 0.0
C947 C 0.85151 0.9273 0.98582 0.0
C948 C 0.84482 0.87226 0.03931 0.0
C949 C 0.85192 0.92867 0.05627 0.0
N950 N 0.87258 1.03438 0.05504 0.0
N951 N 0.84109 0.81689 0.98679 0.0
C952 C 0.8619 0.98281 0.0382 0.0
C953 C 0.84575 0.87113 1.00383 0.0
N954 N 0.86595 0.03654 0.98503 0.0
N955 N 0.83606 0.82043 0.05727 0.0
H956 H 0.84144 0.81525 0.96097 0.0
H957 H 0.83904 0.77303 0.9978 0.0
H958 H 0.83715 0.81913 0.08308 0.0
H959 H 0.82694 0.77933 0.04704 0.0
H960 H 0.86833 0.08056 0.99547 0.0
H961 H 0.86687 0.03775 0.95923 0.0
H962 H 0.88354 0.07328 0.04388 0.0
H963 H 0.87284 0.03679 0.08082 0.0
C964 C 0.15208 0.94166 0.4983 0.0
C965 C 0.12233 0.92255 0.48128 0.0
C966 C 0.09649 0.89383 0.53484 0.0
C967 C 0.12319 0.92433 0.55171 0.0
N968 N 0.1787 0.97031 0.55048 0.0
N969 N 0.06715 0.87571 0.48267 0.0
C970 C 0.15198 0.9451 0.53367 0.0
C971 C 0.09505 0.89611 0.49939 0.0
N972 N 0.18027 0.95706 0.48043 0.0
N973 N 0.07273 0.86244 0.55286 0.0
H974 H 0.06646 0.87335 0.45689 0.0
H975 H 0.04458 0.8629 0.49407 0.0
H976 H 0.07393 0.85983 0.57863 0.0
H977 H 0.0538 0.83503 0.54251 0.0
H978 H 0.20379 0.96646 0.49086 0.0
H979 H 0.18087 0.95576 0.45463 0.0
H980 H 0.19876 0.9936 0.53926 0.0
H981 H 0.18043 0.96911 0.57627 0.0
C982 C 0.87996 0.14281 0.53865 0.0
C983 C 0.85328 0.17248 0.55611 0.0
C984 C 0.82794 0.20246 0.5022 0.0
C985 C 0.85031 0.16106 0.48561 0.0
N986 N 0.89421 0.08224 0.49047 0.0
N987 N 0.80257 0.23482 0.55422 0.0
C988 C 0.87577 0.12928 0.50434 0.0
C989 C 0.82768 0.20418 0.53766 0.0
N990 N 0.90941 0.12762 0.55449 0.0
N991 N 0.80703 0.24037 0.48397 0.0
H992 H 0.80329 0.24134 0.57981 0.0
H993 H 0.78066 0.25181 0.54291 0.0
H994 H 0.80686 0.24044 0.45812 0.0
H995 H 0.79211 0.2754 0.49418 0.0
H996 H 0.93045 0.10972 0.54218 0.0
H997 H 0.91462 0.14147 0.57857 0.0
H998 H 0.91046 0.05355 0.50415 0.0
H999 H 0.89064 0.06694 0.46634 0.0
C1000 C 0.64728 0.61409 0.03353 0.0
C1001 C 0.61829 0.63647 0.05064 0.0
C1002 C 0.59231 0.66627 0.9971 0.0
C1003 C 0.61872 0.63501 0.98011 0.0
N1004 N 0.67318 0.58435 0.98128 0.0
N1005 N 0.56389 0.6869 0.04941 0.0
C1006 C 0.64704 0.61143 0.99814 0.0
C1007 C 0.59125 0.66448 0.03258 0.0
N1008 N 0.67503 0.59517 0.05131 0.0
N1009 N 0.56836 0.69776 0.97915 0.0
H1010 H 0.56335 0.68929 0.07518 0.0
H1011 H 0.54142 0.70123 0.03818 0.0
H1012 H 0.56872 0.69904 0.95334 0.0
H1013 H 0.54975 0.72601 0.98945 0.0
H1014 H 0.69829 0.58384 0.0409 0.0
H1015 H 0.67563 0.59475 0.07712 0.0
H1016 H 0.69265 0.55893 0.99237 0.0
H1017 H 0.67507 0.58607 0.95552 0.0
C1018 C 0.36783 0.46129 1.00746 0.0
C1019 C 0.35497 0.40808 0.99073 0.0
C1020 C 0.34956 0.35356 0.04446 0.0
C1021 C 0.35625 0.4104 0.06105 0.0
N1022 N 0.37297 0.51852 0.05889 0.0
N1023 N 0.33601 0.30164 0.99256 0.0
C1024 C 0.36641 0.46395 0.0427 0.0
C1025 C 0.34698 0.35326 1.00906 0.0
N1026 N 0.38136 0.50952 0.98961 0.0
N1027 N 0.34597 0.30004 0.0627 0.0
H1028 H 0.33611 0.29915 0.96674 0.0
H1029 H 0.32595 0.26233 1.00417 0.0
H1030 H 0.34838 0.29956 0.08846 0.0
H1031 H 0.34334 0.25586 0.05248 0.0
H1032 H 0.3945 0.54654 1.0001 0.0
H1033 H 0.38217 0.50987 0.9639 0.0
H1034 H 0.37573 0.56151 0.04704 0.0
H1035 H 0.37409 0.52168 0.08462 0.0
C1036 C 0.6514 0.43751 0.49541 0.0
C1037 C 0.6216 0.41902 0.47831 0.0
C1038 C 0.59536 0.39072 0.53168 0.0
C1039 C 0.62224 0.4205 0.54867 0.0
N1040 N 0.67811 0.4649 0.54775 0.0
N1041 N 0.56632 0.3726 0.47939 0.0
C1042 C 0.65124 0.44068 0.53078 0.0
C1043 C 0.59414 0.39287 0.49626 0.0
N1044 N 0.67972 0.45235 0.47762 0.0
N1045 N 0.5712 0.36017 0.54958 0.0
H1046 H 0.56589 0.3697 0.45364 0.0
H1047 H 0.54359 0.36016 0.49061 0.0
H1048 H 0.57204 0.35806 0.57534 0.0
H1049 H 0.55213 0.33312 0.53919 0.0
H1050 H 0.70325 0.46155 0.48809 0.0
H1051 H 0.6804 0.45078 0.45181 0.0
H1052 H 0.69845 0.4876 0.53667 0.0
H1053 H 0.67974 0.46336 0.57355 0.0
C1054 C 0.38121 0.65182 0.53531 0.0
C1055 C 0.35392 0.68009 0.5524 0.0
C1056 C 0.32938 0.71089 0.49844 0.0
C1057 C 0.35204 0.66968 0.48213 0.0
N1058 N 0.39659 0.59203 0.48727 0.0
N1059 N 0.30331 0.7425 0.55026 0.0
C1060 C 0.3776 0.63846 0.50098 0.0
C1061 C 0.32861 0.71217 0.53384 0.0
N1062 N 0.41057 0.63767 0.55156 0.0
N1063 N 0.30866 0.74881 0.48003 0.0
H1064 H 0.30379 0.74844 0.5759 0.0
H1065 H 0.2816 0.75995 0.53878 0.0
H1066 H 0.309 0.74927 0.45419 0.0
H1067 H 0.2934 0.78346 0.49012 0.0
H1068 H 0.43197 0.62052 0.53955 0.0
H1069 H 0.41521 0.65187 0.57571 0.0
H1070 H 0.41302 0.56392 0.50109 0.0
H1071 H 0.39331 0.57652 0.46315 0.0
C1072 C 0.96662 0.03629 0.17814 0.0
C1073 C 0.95184 1.01738 0.14778 0.0
C1074 C 0.00634 1.02632 0.11943 0.0
C1075 C 0.0206 0.04861 0.14919 0.0
N1076 N 0.01691 0.07068 0.20736 0.0
N1077 N 0.95548 0.99928 0.08903 0.0
C1078 C 0.00143 0.05232 0.17875 0.0
C1079 C 0.97116 1.01361 0.11825 0.0
N1080 N 0.94765 0.03628 0.20651 0.0
N1081 N 0.02682 1.01573 0.09275 0.0
H1082 H 0.9297 0.98933 0.08749 0.0
H1083 H 0.96716 1.0014 0.06598 0.0
H1084 H 0.05289 1.0235 0.09339 0.0
H1085 H 0.01883 0.99473 0.07095 0.0
H1086 H 0.9573 0.04329 0.23016 0.0
H1087 H 0.9217 1.0279 0.20672 0.0
H1088 H 0.00437 0.08223 0.2291 0.0
H1089 H 0.04313 0.07352 0.20936 0.0
C1090 C 0.96032 0.98611 0.39377 0.0
C1091 C 0.95314 0.04387 0.40891 0.0
C1092 C 0.01393 0.05758 0.42033 0.0
C1093 C 0.02103 1.00791 0.39817 0.0
N1094 N -0.00019 0.92975 0.36016 0.0
N1095 N 0.972 0.12665 0.44452 0.0
C1096 C -0.0061 0.97342 0.38397 0.0
C1097 C 0.97974 0.07719 0.42469 0.0
N1098 N 0.93581 0.94169 0.3903 0.0
N1099 N 0.03951 0.08401 0.43824 0.0
H1100 H 0.94739 0.13516 0.45273 0.0
H1101 H -0.0104 0.15905 0.45287 0.0
H1102 H 0.06479 0.07157 0.43563 0.0
H1103 H 0.0358 0.11574 0.45727 0.0
H1104 H 0.94074 0.89726 0.38107 0.0
H1105 H 0.91232 0.94467 0.40181 0.0
H1106 H 0.98042 0.90883 0.34665 0.0
H1107 H 0.02379 0.91907 0.35136 0.0
C1108 C -0.00323 0.05671 0.85683 0.0
C1109 C 0.01874 0.04783 0.88429 0.0
C1110 C 0.97193 1.00911 0.91791 0.0
C1111 C 0.95004 1.01599 0.89024 0.0
N1112 N 0.94183 0.03847 0.83199 0.0
N1113 N 0.02979 1.00099 0.93755 0.0
C1114 C 0.96239 0.03823 0.85933 0.0
C1115 C 0.00709 1.01953 0.91385 0.0
N1116 N 0.0091 0.08203 0.82818 0.0
N1117 N 0.95879 0.99446 0.94831 0.0
H1118 H 0.05586 1.00649 0.9347 0.0
H1119 H 0.02317 0.97487 0.9584 0.0
H1120 H 0.93291 0.98799 0.95222 0.0
H1121 H 0.97295 0.99465 0.9701 0.0
H1122 H -0.00598 0.09879 0.80888 0.0
H1123 H 0.03495 0.08623 0.82388 0.0
H1124 H 0.95031 0.04646 0.80795 0.0
H1125 H 0.91618 1.0276 0.83287 0.0
C1126 C 0.98461 0.09453 0.65708 0.0
C1127 C 0.95737 0.06348 0.64107 0.0
C1128 C -0.00162 0.99595 0.61296 0.0
C1129 C 0.02509 1.02665 0.63007 0.0
N1130 N 0.04226 0.12781 0.65033 0.0
N1131 N 0.93913 0.99643 0.59657 0.0
C1132 C 0.01799 0.08308 0.64656 0.0
C1133 C 0.96435 1.01708 0.617 0.0
N1134 N 0.97898 0.1342 0.68283 0.0
N1135 N 0.0058 0.94898 0.59151 0.0
H1136 H 0.91426 1.01251 0.59774 0.0
H1137 H 0.94316 0.96716 0.5765 0.0
H1138 H 0.03022 0.94236 0.58245 0.0
H1139 H 0.98792 0.91798 0.58225 0.0
H1140 H -0.0014 0.15395 0.69652 0.0
H1141 H 0.95515 0.142 0.69287 0.0
H1142 H 0.03723 0.17119 0.66084 0.0
H1143 H 0.06531 0.12624 0.63785 0.0
C1144 C 0.46434 0.55564 0.17248 0.0
C1145 C 0.45386 0.51194 0.14846 0.0
C1146 C 0.51008 0.51406 0.12328 0.0
C1147 C 0.51954 0.56208 0.14542 0.0
N1148 N 0.50162 0.64105 0.1846 0.0
N1149 N 0.46362 0.46181 0.09595 0.0
C1150 C 0.49544 0.58698 0.16794 0.0
C1151 C 0.47583 0.49455 0.12235 0.0
N1152 N 0.44563 0.5651 0.20049 0.0
N1153 N 0.53358 0.48718 0.10308 0.0
H1154 H 0.43822 0.44924 0.09365 0.0
H1155 H 0.47777 0.45309 0.07472 0.0
H1156 H 0.55866 0.50178 0.10202 0.0
H1157 H 0.52871 0.44736 0.08919 0.0
H1158 H 0.45431 0.59146 0.22038 0.0
H1159 H 0.42313 0.5416 0.20556 0.0
H1160 H 0.48335 0.66343 0.19887 0.0
H1161 H 0.52323 0.66772 0.18114 0.0
C1162 C 0.48179 0.58242 0.42173 0.0
C1163 C 0.45417 0.55012 0.40712 0.0
C1164 C 0.49257 0.47351 0.38382 0.0
C1165 C 0.52079 0.50714 0.39648 0.0
N1166 N 0.54187 0.5851 0.4343 0.0
N1167 N 0.43407 0.4472 0.39275 0.0
C1168 C 0.51536 0.55943 0.41739 0.0
C1169 C 0.4596 0.49009 0.39387 0.0
N1170 N 0.4756 0.63381 0.44067 0.0
N1171 N 0.49679 0.42692 0.36125 0.0
H1172 H 0.41118 0.45339 0.40506 0.0
H1173 H 0.43771 0.40142 0.38488 0.0
H1174 H 0.52023 0.41324 0.35221 0.0
H1175 H 0.47652 0.40631 0.34888 0.0
H1176 H 0.49406 0.6655 0.44793 0.0
H1177 H 0.45145 0.64434 0.44949 0.0
H1178 H 0.53935 0.61922 0.45233 0.0
H1179 H 0.5667 0.56968 0.43202 0.0
C1180 C 0.46388 0.55163 0.91559 0.0
C1181 C 0.45291 0.50303 0.89444 0.0
C1182 C 0.50975 0.4979 0.86984 0.0
C1183 C 0.52115 0.54311 0.89287 0.0
N1184 N 0.51167 0.5944 0.94501 0.0
N1185 N 0.46817 0.42072 0.85585 0.0
C1186 C 0.49894 0.56479 0.91785 0.0
C1187 C 0.47669 0.47306 0.87316 0.0
N1188 N 0.44125 0.585 0.93393 0.0
N1189 N 0.52941 0.48044 0.8436 0.0
H1190 H 0.44386 0.403 0.85405 0.0
H1191 H 0.48608 0.39187 0.84474 0.0
H1192 H 0.55385 0.49615 0.83931 0.0
H1193 H 0.52022 0.45459 0.82376 0.0
H1194 H 0.44798 0.62496 0.94695 0.0
H1195 H 0.41535 0.57661 0.93389 0.0
H1196 H 0.49698 0.60648 0.96541 0.0
H1197 H 0.53761 0.59896 0.94907 0.0
C1198 C 0.48298 0.59021 0.65445 0.0
C1199 C 0.45588 0.562 0.63697 0.0
C1200 C 0.49681 0.49488 0.60841 0.0
C1201 C 0.52347 0.52332 0.62668 0.0
N1202 N 0.54094 0.62248 0.64955 0.0
N1203 N 0.43817 0.49999 0.59021 0.0
C1204 C 0.51646 0.57871 0.64428 0.0
C1205 C 0.46297 0.51743 0.61195 0.0
N1206 N 0.47707 0.62702 0.68131 0.0
N1207 N 0.50413 0.44883 0.58639 0.0
H1208 H 0.41357 0.5175 0.59091 0.0
H1209 H 0.44252 0.47234 0.56956 0.0
H1210 H 0.52868 0.44138 0.57788 0.0
H1211 H 0.48601 0.41936 0.57619 0.0
H1212 H 0.49653 0.64534 0.69576 0.0
H1213 H 0.45308 0.63311 0.6914 0.0
H1214 H 0.53595 0.66499 0.66102 0.0
H1215 H 0.56418 0.62156 0.63738 0.0
C1216 C 0.14915 0.65985 0.16438 0.0
C1217 C 0.12744 0.70188 0.14706 0.0
C1218 C 0.09023 0.61484 0.13202 0.0
C1219 C 0.11341 0.57235 0.14696 0.0
N1220 N 0.16751 0.55267 0.17277 0.0
N1221 N 0.08052 0.71881 0.10971 0.0
C1222 C 0.14365 0.59439 0.16183 0.0
C1223 C 0.09883 0.6792 0.12957 0.0
N1224 N 0.1743 0.68262 0.18422 0.0
N1225 N 0.05952 0.59394 0.12105 0.0
H1226 H 0.08605 0.76622 0.10724 0.0
H1227 H 0.0617 0.70386 0.09352 0.0
H1228 H 0.05242 0.54708 0.12208 0.0
H1229 H 0.04001 0.62353 0.11341 0.0
H1230 H 0.18863 0.6548 0.20022 0.0
H1231 H 0.17903 0.73022 0.18686 0.0
H1232 H 0.19166 0.5656 0.18046 0.0
H1233 H 0.16419 0.50441 0.17158 0.0
C1234 C 0.8693 0.39411 0.13014 0.0
C1235 C 0.84041 0.37053 0.14692 0.0
C1236 C 0.82328 0.47764 0.16083 0.0
C1237 C 0.85411 0.50033 0.14742 0.0
N1238 N 0.90836 0.48026 0.12231 0.0
N1239 N 0.79182 0.38859 0.18176 0.0
C1240 C 0.87761 0.45859 0.13277 0.0
C1241 C 0.81776 0.41201 0.16306 0.0
N1242 N 0.88828 0.35509 0.11094 0.0
N1243 N 0.79907 0.51898 0.17098 0.0
H1244 H 0.78695 0.34093 0.18412 0.0
H1245 H 0.77672 0.41588 0.19706 0.0
H1246 H 0.80248 0.56727 0.17006 0.0
H1247 H 0.77462 0.50587 0.17764 0.0
H1248 H 0.90751 0.3705 0.09531 0.0
H1249 H 0.88289 0.3077 0.10838 0.0
H1250 H 0.92815 0.45122 0.1151 0.0
H1251 H 0.91506 0.52732 0.12303 0.0
C1252 C 0.15926 0.41394 0.37135 0.0
C1253 C 0.14187 0.37531 0.39448 0.0
C1254 C 0.10951 0.46623 0.41377 0.0
C1255 C 0.12793 0.50512 0.39163 0.0
N1256 N 0.1749 0.51898 0.35437 0.0
N1257 N 0.10558 0.36618 0.44218 0.0
C1258 C 0.15432 0.47982 0.37205 0.0
C1259 C 0.11851 0.40199 0.41706 0.0
N1260 N 0.1792 0.38746 0.34758 0.0
N1261 N 0.08268 0.49028 0.43085 0.0
H1262 H 0.11177 0.31914 0.44541 0.0
H1263 H 0.09114 0.38414 0.46145 0.0
H1264 H 0.076 0.53741 0.42987 0.0
H1265 H 0.06568 0.46298 0.44426 0.0
H1266 H 0.18948 0.4124 0.3278 0.0
H1267 H 0.1833 0.33948 0.34595 0.0
H1268 H 0.19683 0.50423 0.34245 0.0
H1269 H 0.17171 0.56736 0.35405 0.0
C1270 C 0.8888 0.61215 0.37569 0.0
C1271 C 0.8634 0.56832 0.38472 0.0
C1272 C 0.82304 0.65451 0.39273 0.0
C1273 C 0.84941 0.69837 0.38703 0.0
N1274 N 0.90876 0.71902 0.37849 0.0
N1275 N 0.80786 0.54797 0.40703 0.0
C1276 C 0.8827 0.67718 0.38001 0.0
C1277 C 0.8309 0.58958 0.39467 0.0
N1278 N 0.91836 0.59177 0.36184 0.0
N1279 N 0.79028 0.67472 0.39515 0.0
H1280 H 0.8127 0.50019 0.40898 0.0
H1281 H 0.78516 0.56134 0.418 0.0
H1282 H 0.78347 0.72174 0.39366 0.0
H1283 H 0.76958 0.64469 0.39568 0.0
H1284 H 0.93627 0.62167 0.35148 0.0
H1285 H 0.92366 0.54468 0.35791 0.0
H1286 H 0.93411 0.70582 0.37707 0.0
H1287 H 0.90537 0.76693 0.38162 0.0
C1288 C 0.87484 0.38608 0.89194 0.0
C1289 C 0.84077 0.36526 0.89079 0.0
C1290 C 0.82097 0.47406 0.8936 0.0
C1291 C 0.85502 0.49496 0.89146 0.0
N1292 N 0.91414 0.47131 0.883 0.0
N1293 N 0.78124 0.38904 0.8858 0.0
C1294 C 0.88193 0.45105 0.88916 0.0
C1295 C 0.81374 0.40918 0.89038 0.0
N1296 N 0.90044 0.34379 0.89657 0.0
N1297 N 0.79565 0.51606 0.89966 0.0
H1298 H 0.77493 0.34199 0.88358 0.0
H1299 H 0.76086 0.41901 0.8816 0.0
H1300 H 0.8 0.56383 0.90212 0.0
H1301 H 0.77083 0.50318 0.90497 0.0
H1302 H 0.92542 0.35651 0.90128 0.0
H1303 H 0.89626 0.29584 0.89865 0.0
H1304 H 0.93413 0.44143 0.8774 0.0
H1305 H 0.92041 0.51839 0.88058 0.0
C1306 C 0.14441 0.59462 0.87581 0.0
C1307 C 0.11146 0.57315 0.88394 0.0
C1308 C 0.09368 0.68083 0.89555 0.0
C1309 C 0.12563 0.70283 0.88447 0.0
N1310 N 0.17979 0.68191 0.85929 0.0
N1311 N 0.05308 0.59602 0.89658 0.0
C1312 C 0.15061 0.66001 0.87332 0.0
C1313 C 0.08562 0.61635 0.89246 0.0
N1314 N 0.17002 0.55246 0.87135 0.0
N1315 N 0.07144 0.72125 0.91005 0.0
H1316 H 0.04618 0.54919 0.89475 0.0
H1317 H 0.03246 0.62598 0.89911 0.0
H1318 H 0.07642 0.76875 0.91278 0.0
H1319 H 0.04936 0.70696 0.92193 0.0
H1320 H 0.19536 0.56506 0.86899 0.0
H1321 H 0.16637 0.50428 0.87275 0.0
H1322 H 0.19737 0.65344 0.84749 0.0
H1323 H 0.18522 0.72938 0.85693 0.0
C1324 C 0.88114 0.67955 0.66886 0.0
C1325 C 0.84967 0.7018 0.65648 0.0
C1326 C 0.83144 0.59408 0.64627 0.0
C1327 C 0.86177 0.57174 0.66114 0.0
N1328 N 0.91258 0.5926 0.69244 0.0
N1329 N 0.79232 0.6806 0.63924 0.0
C1330 C 0.88582 0.61435 0.67412 0.0
C1331 C 0.82405 0.65912 0.64685 0.0
N1332 N 0.90698 0.72051 0.67454 0.0
N1333 N 0.81023 0.55342 0.63058 0.0
H1334 H 0.78587 0.72785 0.63957 0.0
H1335 H 0.77163 0.65138 0.63551 0.0
H1336 H 0.81481 0.50549 0.62954 0.0
H1337 H 0.78967 0.5677 0.6162 0.0
H1338 H 0.93164 0.70647 0.68004 0.0
H1339 H 0.90456 0.76861 0.67101 0.0
H1340 H 0.92889 0.62161 0.70551 0.0
H1341 H 0.91674 0.54524 0.69711 0.0
C1342 C 0.16148 0.41686 0.63611 0.0
C1343 C 0.13667 0.37216 0.64549 0.0
C1344 C 0.09712 0.45724 0.65888 0.0
C1345 C 0.12091 0.50184 0.64703 0.0
N1346 N 0.17363 0.52363 0.61929 0.0
N1347 N 0.07892 0.34906 0.66024 0.0
C1348 C 0.15254 0.48146 0.6342 0.0
C1349 C 0.10389 0.39222 0.65521 0.0
N1350 N 0.19393 0.39778 0.63007 0.0
N1351 N 0.06867 0.47693 0.67502 0.0
H1352 H 0.08295 0.30111 0.65799 0.0
H1353 H 0.0536 0.36085 0.66377 0.0
H1354 H 0.06292 0.52393 0.67863 0.0
H1355 H 0.05228 0.44683 0.68745 0.0
H1356 H 0.2141 0.42847 0.62688 0.0
H1357 H 0.2013 0.35098 0.63077 0.0
H1358 H 0.19538 0.51101 0.60642 0.0
H1359 H 0.16791 0.5711 0.61734 0.0
C1360 C 0.65548 0.09491 0.12779 0.0
C1361 C 0.62283 0.07401 0.13755 0.0
C1362 C 0.60442 0.18292 0.14431 0.0
C1363 C 0.63795 0.20335 0.13791 0.0
N1364 N 0.69647 0.17935 0.12686 0.0
N1365 N 0.56767 0.09726 0.16004 0.0
C1366 C 0.6638 0.15946 0.13049 0.0
C1367 C 0.5976 0.11783 0.14695 0.0
N1368 N 0.67817 0.05322 0.11506 0.0
N1369 N 0.57899 0.22586 0.14758 0.0
H1370 H 0.56173 0.0501 0.16281 0.0
H1371 H 0.54986 0.12665 0.17082 0.0
H1372 H 0.58313 0.27393 0.14667 0.0
H1373 H 0.55345 0.21404 0.14848 0.0
H1374 H 0.70111 0.06618 0.1044 0.0
H1375 H 0.67288 1.00576 0.11265 0.0
H1376 H 0.71712 0.14921 0.12539 0.0
H1377 H 0.70328 0.22637 0.12749 0.0
C1378 C 0.32298 0.90318 0.16696 0.0
C1379 C 0.34712 0.8622 0.1526 0.0
C1380 C 0.3855 0.95064 0.14292 0.0
C1381 C 0.36047 0.99203 0.15531 0.0
N1382 N 0.30333 1.00982 0.1738 0.0
N1383 N 0.39864 0.84768 0.12166 0.0
C1384 C 0.32855 0.96886 0.16572 0.0
C1385 C 0.37764 0.88619 0.13907 0.0
N1386 N 0.29537 0.87916 0.18295 0.0
N1387 N 0.41716 0.97264 0.13578 0.0
H1388 H 0.39374 0.80028 0.11837 0.0
H1389 H 0.41938 0.86352 0.10814 0.0
H1390 H 0.42367 1.01967 0.13759 0.0
H1391 H 0.43766 0.94385 0.13039 0.0
H1392 H 0.27882 0.90597 0.19701 0.0
H1393 H 0.29042 0.83142 0.18449 0.0
H1394 H 0.27838 0.99639 0.17807 0.0
H1395 H 0.30666 0.05814 0.17352 0.0
C1396 C 0.59618 0.9503 0.37792 0.0
C1397 C 0.62086 0.99408 0.38853 0.0
C1398 C 0.66143 0.90848 0.39811 0.0
C1399 C 0.63603 0.86466 0.38945 0.0
N1400 N 0.57762 0.8424 0.37698 0.0
N1401 N 0.67489 1.01478 0.41401 0.0
C1402 C 0.60287 0.88521 0.38121 0.0
C1403 C 0.65293 0.9731 0.40018 0.0
N1404 N 0.56695 0.97088 0.36318 0.0
N1405 N 0.6939 0.88848 0.40343 0.0
H1406 H 0.66946 0.06231 0.41598 0.0
H1407 H 0.69721 1.00177 0.42599 0.0
H1408 H 0.70083 0.84145 0.40302 0.0
H1409 H 0.71441 0.91854 0.406 0.0
H1410 H 0.54975 0.94143 0.35157 0.0
H1411 H 0.56113 1.01805 0.35995 0.0
H1412 H 0.55216 0.85443 0.37462 0.0
H1413 H 0.58168 0.79433 0.37867 0.0
C1414 C 0.33327 0.09964 0.39094 0.0
C1415 C 0.36605 0.07848 0.38181 0.0
C1416 C 0.38515 0.18745 0.37689 0.0
C1417 C 0.35166 0.20847 0.38313 0.0
N1418 N 0.29243 0.18445 0.39018 0.0
N1419 N 0.42144 0.10201 0.35996 0.0
C1420 C 0.32529 0.16448 0.3885 0.0
C1421 C 0.39152 0.12238 0.37307 0.0
N1422 N 0.31008 0.05805 0.40302 0.0
N1423 N 0.41113 0.2295 0.37568 0.0
H1424 H 0.42695 0.05489 0.3564 0.0
H1425 H 0.4395 0.13187 0.34981 0.0
H1426 H 0.40754 0.27745 0.37846 0.0
H1427 H 0.43654 0.21651 0.37486 0.0
H1428 H 0.28709 0.07141 0.41343 0.0
H1429 H 0.31499 1.01034 0.40532 0.0
H1430 H 0.2718 0.15426 0.39045 0.0
H1431 H 0.28553 0.23139 0.38834 0.0
C1432 C 0.34414 0.89869 0.85675 0.0
C1433 C 0.34114 0.8697 0.88834 0.0
C1434 C 0.35244 0.97016 0.91531 0.0
C1435 C 0.35333 0.9999 0.88377 0.0
N1436 N 0.34471 0.99516 0.82473 0.0
N1437 N 0.3367 0.87881 0.94767 0.0
C1438 C 0.34764 0.96486 0.85453 0.0
C1439 C 0.34363 0.90578 0.91764 0.0
N1440 N 0.34464 0.8627 0.82891 0.0
N1441 N 0.36117 1.00296 0.94297 0.0
H1442 H 0.3306 0.8317 0.95044 0.0
H1443 H 0.3343 0.90395 0.96952 0.0
H1444 H 0.36728 0.05031 0.94236 0.0
H1445 H 0.36488 0.9824 0.96615 0.0
H1446 H 0.35049 0.87992 0.80543 0.0
H1447 H 0.34166 0.81431 0.82958 0.0
H1448 H 0.33706 0.97344 0.80298 0.0
H1449 H 0.34725 0.04344 0.82218 0.0
C1450 C 0.60542 0.17373 0.88194 0.0
C1451 C 0.63861 0.19379 0.89008 0.0
C1452 C 0.6553 0.08493 0.90133 0.0
C1453 C 0.6231 0.06448 0.89003 0.0
N1454 N 0.56941 0.08875 0.86423 0.0
N1455 N 0.69657 0.16881 0.90359 0.0
C1456 C 0.5986 0.10875 0.87899 0.0
C1457 C 0.66397 0.14944 0.89875 0.0
N1458 N 0.58019 0.21688 0.8776 0.0
N1459 N 0.67721 0.04291 0.91541 0.0
H1460 H 0.70366 0.21569 0.90261 0.0
H1461 H 0.717 0.13834 0.90618 0.0
H1462 H 0.67167 0.99549 0.91779 0.0
H1463 H 0.69962 0.0556 0.92718 0.0
H1464 H 0.55473 0.20512 0.87533 0.0
H1465 H 0.58429 0.26489 0.87911 0.0
H1466 H 0.55235 0.1186 0.85237 0.0
H1467 H 0.56355 0.04169 0.86115 0.0
C1468 C 0.38601 0.11276 0.65714 0.0
C1469 C 0.35851 0.07011 0.65639 0.0
C1470 C 0.31916 0.15735 0.64609 0.0
C1471 C 0.34626 0.20033 0.64989 0.0
N1472 N 0.40448 0.21974 0.66455 0.0
N1473 N 0.29829 0.05207 0.65525 0.0
C1474 C 0.37944 0.17821 0.65694 0.0
C1475 C 0.32487 0.0925 0.65225 0.0
N1476 N 0.41853 0.0907 0.65696 0.0
N1477 N 0.2882 0.17826 0.63553 0.0
H1478 H 0.30147 1.00434 0.65957 0.0
H1479 H 0.27309 0.06641 0.65615 0.0
H1480 H 0.28302 0.22526 0.63078 0.0
H1481 H 0.26848 0.14871 0.62884 0.0
H1482 H 0.43962 0.11923 0.65384 0.0
H1483 H 0.42441 0.0432 0.65697 0.0
H1484 H 0.42819 0.20636 0.67346 0.0
H1485 H 0.40065 0.26794 0.66474 0.0
C1486 C 0.60119 0.88549 0.64633 0.0
C1487 C 0.63511 0.8656 0.64138 0.0
C1488 C 0.65248 0.9751 0.63346 0.0
C1489 C 0.61926 0.99522 0.64178 0.0
N1490 N 0.56323 0.96976 0.66135 0.0
N1491 N 0.69406 0.89131 0.63438 0.0
C1492 C 0.59389 0.95041 0.64951 0.0
C1493 C 0.66106 0.91041 0.63599 0.0
N1494 N 0.57577 0.84226 0.64731 0.0
N1495 N 0.67559 1.0177 0.62223 0.0
H1496 H 0.70125 0.84445 0.63562 0.0
H1497 H 0.71451 0.92193 0.63433 0.0
H1498 H 0.6702 0.06525 0.61998 0.0
H1499 H 0.69907 1.00546 0.61252 0.0
H1500 H 0.55017 0.85401 0.64718 0.0
H1501 H 0.58014 0.79437 0.64531 0.0
H1502 H 0.5451 0.9394 0.67092 0.0
H1503 H 0.55691 1.01668 0.66436 0.0
loop_
_geom_bond_atom_site_label_1
_geom_bond_atom_site_label_2
_geom_bond_distance
_geom_bond_site_symmetry_2
_ccdc_geom_bond_type
Gd0 C3 2.818 1_545 S
Gd0 O20 2.377 . S
Gd0 O22 2.448 1_545 S
Gd0 O23 2.506 1_545 S
Gd0 O24 2.435 . S
Gd0 O25 2.717 . S
Gd0 O27 2.395 . S
Gd0 O31 2.327 . S
Gd1 C12 2.818 . S
Gd1 O21 2.395 . S
Gd1 O25 2.327 . S
Gd1 O26 2.377 . S
Gd1 O28 2.448 . S
Gd1 O29 2.506 . S
Gd1 O30 2.435 . S
Gd1 O31 2.717 . S
C2 O20 1.240 . S
C2 O21 1.240 . S
C3 Gd0 2.818 1_565 S
C3 C4 1.510 . S
C3 O22 1.249 . S
C3 O23 1.252 . S
C4 C3 1.510 . S
C4 C5 1.404 . S
C4 C6 1.352 . S
C5 C4 1.404 . S
C5 C9 1.389 . S
C5 H32 0.930 . S
C6 C4 1.352 . S
C6 C8 1.374 . S
C6 H33 0.931 . S
C7 C8 1.359 . S
C7 C9 1.364 . S
C8 C6 1.374 . S
C8 C7 1.359 . S
C8 H34 0.931 . S
C9 C5 1.389 . S
C9 C7 1.364 . S
C9 H35 0.931 . S
C10 O24 1.256 . S
C10 O25 1.257 . S
C11 O26 1.240 . S
C11 O27 1.240 . S
C12 Gd1 2.818 . S
C12 C13 1.510 . S
C12 O28 1.249 . S
C12 O29 1.252 . S
C13 C12 1.510 . S
C13 C14 1.404 . S
C13 C15 1.352 . S
C14 C13 1.404 . S
C14 C18 1.389 . S
C14 H36 0.930 . S
C15 C13 1.352 . S
C15 C17 1.374 . S
C15 H37 0.931 . S
C16 C17 1.359 . S
C16 C18 1.364 . S
C17 C15 1.374 . S
C17 C16 1.359 . S
C17 H38 0.931 . S
C18 C14 1.389 . S
C18 C16 1.364 . S
C18 H39 0.931 . S
C19 O30 1.256 . S
C19 O31 1.257 . S
O20 Gd0 2.377 . S
O20 C2 1.240 . S
O21 Gd1 2.395 . S
O21 C2 1.240 . S
O22 Gd0 2.448 1_565 S
O22 C3 1.249 . S
O23 Gd0 2.506 1_565 S
O23 C3 1.252 . S
O24 Gd0 2.435 . S
O24 C10 1.256 . S
O25 Gd0 2.717 . S
O25 Gd1 2.327 . S
O25 C10 1.257 . S
O26 Gd1 2.377 . S
O26 C11 1.240 . S
O27 Gd0 2.395 . S
O27 C11 1.240 . S
O28 Gd1 2.448 . S
O28 C12 1.249 . S
O29 Gd1 2.506 . S
O29 C12 1.252 . S
O30 Gd1 2.435 . S
O30 C19 1.256 . S
O31 Gd0 2.327 . S
O31 Gd1 2.717 . S
O31 C19 1.257 . S
H32 C5 0.930 . S
H33 C6 0.931 . S
H34 C8 0.931 . S
H35 C9 0.931 . S
H36 C14 0.930 . S
H37 C15 0.931 . S
H38 C17 0.931 . S
H39 C18 0.931 . S
Gd40 C43 2.818 1_565 S
Gd40 O60 2.377 . S
Gd40 O62 2.448 1_565 S
Gd40 O63 2.506 1_565 S
Gd40 O64 2.435 . S
Gd40 O65 2.717 . S
Gd40 O67 2.395 . S
Gd40 O71 2.327 . S
Gd41 C52 2.818 . S
Gd41 O61 2.395 . S
Gd41 O65 2.327 . S
Gd41 O66 2.377 . S
Gd41 O68 2.448 . S
Gd41 O69 2.506 . S
Gd41 O70 2.435 . S
Gd41 O71 2.717 . S
C42 O60 1.240 . S
C42 O61 1.240 . S
C43 Gd40 2.818 1_545 S
C43 C44 1.510 . S
C43 O62 1.249 . S
C43 O63 1.252 . S
C44 C43 1.510 . S
C44 C45 1.404 . S
C44 C46 1.352 . S
C45 C44 1.404 . S
C45 C49 1.389 . S
C45 H72 0.930 . S
C46 C44 1.352 . S
C46 C48 1.374 . S
C46 H73 0.931 . S
C47 C48 1.359 . S
C47 C49 1.364 . S
C48 C46 1.374 . S
C48 C47 1.359 . S
C48 H74 0.931 . S
C49 C45 1.389 . S
C49 C47 1.364 . S
C49 H75 0.931 . S
C50 O64 1.256 . S
C50 O65 1.257 . S
C51 O66 1.240 . S
C51 O67 1.240 . S
C52 Gd41 2.818 . S
C52 C53 1.510 . S
C52 O68 1.249 . S
C52 O69 1.252 . S
C53 C52 1.510 . S
C53 C54 1.404 . S
C53 C55 1.352 . S
C54 C53 1.404 . S
C54 C58 1.389 . S
C54 H76 0.930 . S
C55 C53 1.352 . S
C55 C57 1.374 . S
C55 H77 0.931 . S
C56 C57 1.359 . S
C56 C58 1.364 . S
C57 C55 1.374 . S
C57 C56 1.359 . S
C57 H78 0.931 . S
C58 C54 1.389 . S
C58 C56 1.364 . S
C58 H79 0.931 . S
C59 O70 1.256 . S
C59 O71 1.257 . S
O60 Gd40 2.377 . S
O60 C42 1.240 . S
O61 Gd41 2.395 . S
O61 C42 1.240 . S
O62 Gd40 2.448 1_545 S
O62 C43 1.249 . S
O63 Gd40 2.506 1_545 S
O63 C43 1.252 . S
O64 Gd40 2.435 . S
O64 C50 1.256 . S
O65 Gd40 2.717 . S
O65 Gd41 2.327 . S
O65 C50 1.257 . S
O66 Gd41 2.377 . S
O66 C51 1.240 . S
O67 Gd40 2.395 . S
O67 C51 1.240 . S
O68 Gd41 2.448 . S
O68 C52 1.249 . S
O69 Gd41 2.506 . S
O69 C52 1.252 . S
O70 Gd41 2.435 . S
O70 C59 1.256 . S
O71 Gd40 2.327 . S
O71 Gd41 2.717 . S
O71 C59 1.257 . S
H72 C45 0.930 . S
H73 C46 0.931 . S
H74 C48 0.931 . S
H75 C49 0.931 . S
H76 C54 0.930 . S
H77 C55 0.931 . S
H78 C57 0.931 . S
H79 C58 0.931 . S
Gd80 C83 2.818 1_565 S
Gd80 O100 2.377 . S
Gd80 O102 2.448 1_565 S
Gd80 O103 2.506 1_565 S
Gd80 O104 2.435 . S
Gd80 O105 2.717 . S
Gd80 O107 2.395 . S
Gd80 O111 2.327 . S
Gd81 C92 2.818 . S
Gd81 O101 2.395 . S
Gd81 O105 2.327 . S
Gd81 O106 2.377 . S
Gd81 O108 2.448 . S
Gd81 O109 2.506 . S
Gd81 O110 2.435 . S
Gd81 O111 2.717 . S
C82 O100 1.240 . S
C82 O101 1.240 . S
C83 Gd80 2.818 1_545 S
C83 C84 1.510 . S
C83 O102 1.249 . S
C83 O103 1.252 . S
C84 C83 1.510 . S
C84 C85 1.404 . S
C84 C86 1.352 . S
C85 C84 1.404 . S
C85 C89 1.389 . S
C85 H112 0.930 . S
C86 C84 1.352 . S
C86 C88 1.374 . S
C86 H113 0.931 . S
C87 C88 1.359 . S
C87 C89 1.364 . S
C88 C86 1.374 . S
C88 C87 1.359 . S
C88 H114 0.931 . S
C89 C85 1.389 . S
C89 C87 1.364 . S
C89 H115 0.931 . S
C90 O104 1.256 . S
C90 O105 1.257 . S
C91 O106 1.240 . S
C91 O107 1.240 . S
C92 Gd81 2.818 . S
C92 C93 1.510 . S
C92 O108 1.249 . S
C92 O109 1.252 . S
C93 C92 1.510 . S
C93 C94 1.404 . S
C93 C95 1.352 . S
C94 C93 1.404 . S
C94 C98 1.389 . S
C94 H116 0.930 . S
C95 C93 1.352 . S
C95 C97 1.374 . S
C95 H117 0.931 . S
C96 C97 1.359 . S
C96 C98 1.364 . S
C97 C95 1.374 . S
C97 C96 1.359 . S
C97 H118 0.931 . S
C98 C94 1.389 . S
C98 C96 1.364 . S
C98 H119 0.931 . S
C99 O110 1.256 . S
C99 O111 1.257 . S
O100 Gd80 2.377 . S
O100 C82 1.240 . S
O101 Gd81 2.395 . S
O101 C82 1.240 . S
O102 Gd80 2.448 1_545 S
O102 C83 1.249 . S
O103 Gd80 2.506 1_545 S
O103 C83 1.252 . S
O104 Gd80 2.435 . S
O104 C90 1.256 . S
O105 Gd80 2.717 . S
O105 Gd81 2.327 . S
O105 C90 1.257 . S
O106 Gd81 2.377 . S
O106 C91 1.240 . S
O107 Gd80 2.395 . S
O107 C91 1.240 . S
O108 Gd81 2.448 . S
O108 C92 1.249 . S
O109 Gd81 2.506 . S
O109 C92 1.252 . S
O110 Gd81 2.435 . S
O110 C99 1.256 . S
O111 Gd80 2.327 . S
O111 Gd81 2.717 . S
O111 C99 1.257 . S
H112 C85 0.930 . S
H113 C86 0.931 . S
H114 C88 0.931 . S
H115 C89 0.931 . S
H116 C94 0.930 . S
H117 C95 0.931 . S
H118 C97 0.931 . S
H119 C98 0.931 . S
Gd120 C123 2.818 1_545 S
Gd120 O140 2.377 . S
Gd120 O142 2.448 1_545 S
Gd120 O143 2.506 1_545 S
Gd120 O144 2.435 . S
Gd120 O145 2.717 . S
Gd120 O147 2.395 . S
Gd120 O151 2.327 . S
Gd121 C132 2.818 . S
Gd121 O141 2.395 . S
Gd121 O145 2.327 . S
Gd121 O146 2.377 . S
Gd121 O148 2.448 . S
Gd121 O149 2.506 . S
Gd121 O150 2.435 . S
Gd121 O151 2.717 . S
C122 O140 1.240 . S
C122 O141 1.240 . S
C123 Gd120 2.818 1_565 S
C123 C124 1.510 . S
C123 O142 1.249 . S
C123 O143 1.252 . S
C124 C123 1.510 . S
C124 C125 1.404 . S
C124 C126 1.352 . S
C125 C124 1.404 . S
C125 C129 1.389 . S
C125 H152 0.930 . S
C126 C124 1.352 . S
C126 C128 1.374 . S
C126 H153 0.931 . S
C127 C128 1.359 . S
C127 C129 1.364 . S
C128 C126 1.374 . S
C128 C127 1.359 . S
C128 H154 0.931 . S
C129 C125 1.389 . S
C129 C127 1.364 . S
C129 H155 0.931 . S
C130 O144 1.256 . S
C130 O145 1.257 . S
C131 O146 1.240 . S
C131 O147 1.240 . S
C132 Gd121 2.818 . S
C132 C133 1.510 . S
C132 O148 1.249 . S
C132 O149 1.252 . S
C133 C132 1.510 . S
C133 C134 1.404 . S
C133 C135 1.352 . S
C134 C133 1.404 . S
C134 C138 1.389 . S
C134 H156 0.930 . S
C135 C133 1.352 . S
C135 C137 1.374 . S
C135 H157 0.931 . S
C136 C137 1.359 . S
C136 C138 1.364 . S
C137 C135 1.374 . S
C137 C136 1.359 . S
C137 H158 0.931 . S
C138 C134 1.389 . S
C138 C136 1.364 . S
C138 H159 0.931 . S
C139 O150 1.256 . S
C139 O151 1.257 . S
O140 Gd120 2.377 . S
O140 C122 1.240 . S
O141 Gd121 2.395 . S
O141 C122 1.240 . S
O142 Gd120 2.448 1_565 S
O142 C123 1.249 . S
O143 Gd120 2.506 1_565 S
O143 C123 1.252 . S
O144 Gd120 2.435 . S
O144 C130 1.256 . S
O145 Gd120 2.717 . S
O145 Gd121 2.327 . S
O145 C130 1.257 . S
O146 Gd121 2.377 . S
O146 C131 1.240 . S
O147 Gd120 2.395 . S
O147 C131 1.240 . S
O148 Gd121 2.448 . S
O148 C132 1.249 . S
O149 Gd121 2.506 . S
O149 C132 1.252 . S
O150 Gd121 2.435 . S
O150 C139 1.256 . S
O151 Gd120 2.327 . S
O151 Gd121 2.717 . S
O151 C139 1.257 . S
H152 C125 0.930 . S
H153 C126 0.931 . S
H154 C128 0.931 . S
H155 C129 0.931 . S
H156 C134 0.930 . S
H157 C135 0.931 . S
H158 C137 0.931 . S
H159 C138 0.931 . S
Gd160 C163 2.818 . S
Gd160 O180 2.377 . S
Gd160 O182 2.448 . S
Gd160 O183 2.506 . S
Gd160 O184 2.435 . S
Gd160 O185 2.717 . S
Gd160 O187 2.395 . S
Gd160 O191 2.327 . S
Gd161 C172 2.818 1_565 S
Gd161 O181 2.395 . S
Gd161 O185 2.327 . S
Gd161 O186 2.377 . S
Gd161 O188 2.448 1_565 S
Gd161 O189 2.506 1_565 S
Gd161 O190 2.435 . S
Gd161 O191 2.717 . S
C162 O180 1.240 . S
C162 O181 1.240 . S
C163 Gd160 2.818 . S
C163 C164 1.510 . S
C163 O182 1.249 . S
C163 O183 1.252 . S
C164 C163 1.510 . S
C164 C165 1.404 . S
C164 C166 1.352 . S
C165 C164 1.404 . S
C165 C169 1.389 . S
C165 H192 0.930 . S
C166 C164 1.352 . S
C166 C168 1.374 . S
C166 H193 0.931 . S
C167 C168 1.359 . S
C167 C169 1.364 . S
C168 C166 1.374 . S
C168 C167 1.359 . S
C168 H194 0.931 . S
C169 C165 1.389 . S
C169 C167 1.364 . S
C169 H195 0.931 . S
C170 O184 1.256 . S
C170 O185 1.257 . S
C171 O186 1.240 . S
C171 O187 1.240 . S
C172 Gd161 2.818 1_545 S
C172 C173 1.510 . S
C172 O188 1.249 . S
C172 O189 1.252 . S
C173 C172 1.510 . S
C173 C174 1.404 . S
C173 C175 1.352 . S
C174 C173 1.404 . S
C174 C178 1.389 . S
C174 H196 0.930 . S
C175 C173 1.352 . S
C175 C177 1.374 . S
C175 H197 0.931 . S
C176 C177 1.359 . S
C176 C178 1.364 . S
C177 C175 1.374 . S
C177 C176 1.359 . S
C177 H198 0.931 . S
C178 C174 1.389 . S
C178 C176 1.364 . S
C178 H199 0.931 . S
C179 O190 1.256 . S
C179 O191 1.257 . S
O180 Gd160 2.377 . S
O180 C162 1.240 . S
O181 Gd161 2.395 . S
O181 C162 1.240 . S
O182 Gd160 2.448 . S
O182 C163 1.249 . S
O183 Gd160 2.506 . S
O183 C163 1.252 . S
O184 Gd160 2.435 . S
O184 C170 1.256 . S
O185 Gd160 2.717 . S
O185 Gd161 2.327 . S
O185 C170 1.257 . S
O186 Gd161 2.377 . S
O186 C171 1.240 . S
O187 Gd160 2.395 . S
O187 C171 1.240 . S
O188 Gd161 2.448 1_545 S
O188 C172 1.249 . S
O189 Gd161 2.506 1_545 S
O189 C172 1.252 . S
O190 Gd161 2.435 . S
O190 C179 1.256 . S
O191 Gd160 2.327 . S
O191 Gd161 2.717 . S
O191 C179 1.257 . S
H192 C165 0.930 . S
H193 C166 0.931 . S
H194 C168 0.931 . S
H195 C169 0.931 . S
H196 C174 0.930 . S
H197 C175 0.931 . S
H198 C177 0.931 . S
H199 C178 0.931 . S
Gd200 C203 2.818 . S
Gd200 O220 2.377 . S
Gd200 O222 2.448 . S
Gd200 O223 2.506 . S
Gd200 O224 2.435 . S
Gd200 O225 2.717 . S
Gd200 O227 2.395 . S
Gd200 O231 2.327 . S
Gd201 C212 2.818 1_545 S
Gd201 O221 2.395 . S
Gd201 O225 2.327 . S
Gd201 O226 2.377 . S
Gd201 O228 2.448 1_545 S
Gd201 O229 2.506 1_545 S
Gd201 O230 2.435 . S
Gd201 O231 2.717 . S
C202 O220 1.240 . S
C202 O221 1.240 . S
C203 Gd200 2.818 . S
C203 C204 1.510 . S
C203 O222 1.249 . S
C203 O223 1.252 . S
C204 C203 1.510 . S
C204 C205 1.404 . S
C204 C206 1.352 . S
C205 C204 1.404 . S
C205 C209 1.389 . S
C205 H232 0.930 . S
C206 C204 1.352 . S
C206 C208 1.374 . S
C206 H233 0.931 . S
C207 C208 1.359 . S
C207 C209 1.364 . S
C208 C206 1.374 . S
C208 C207 1.359 . S
C208 H234 0.931 . S
C209 C205 1.389 . S
C209 C207 1.364 . S
C209 H235 0.931 . S
C210 O224 1.256 . S
C210 O225 1.257 . S
C211 O226 1.240 . S
C211 O227 1.240 . S
C212 Gd201 2.818 1_565 S
C212 C213 1.510 . S
C212 O228 1.249 . S
C212 O229 1.252 . S
C213 C212 1.510 . S
C213 C214 1.404 . S
C213 C215 1.352 . S
C214 C213 1.404 . S
C214 C218 1.389 . S
C214 H236 0.930 . S
C215 C213 1.352 . S
C215 C217 1.374 . S
C215 H237 0.931 . S
C216 C217 1.359 . S
C216 C218 1.364 . S
C217 C215 1.374 . S
C217 C216 1.359 . S
C217 H238 0.931 . S
C218 C214 1.389 . S
C218 C216 1.364 . S
C218 H239 0.931 . S
C219 O230 1.256 . S
C219 O231 1.257 . S
O220 Gd200 2.377 . S
O220 C202 1.240 . S
O221 Gd201 2.395 . S
O221 C202 1.240 . S
O222 Gd200 2.448 . S
O222 C203 1.249 . S
O223 Gd200 2.506 . S
O223 C203 1.252 . S
O224 Gd200 2.435 . S
O224 C210 1.256 . S
O225 Gd200 2.717 . S
O225 Gd201 2.327 . S
O225 C210 1.257 . S
O226 Gd201 2.377 . S
O226 C211 1.240 . S
O227 Gd200 2.395 . S
O227 C211 1.240 . S
O228 Gd201 2.448 1_565 S
O228 C212 1.249 . S
O229 Gd201 2.506 1_565 S
O229 C212 1.252 . S
O230 Gd201 2.435 . S
O230 C219 1.256 . S
O231 Gd200 2.327 . S
O231 Gd201 2.717 . S
O231 C219 1.257 . S
H232 C205 0.930 . S
H233 C206 0.931 . S
H234 C208 0.931 . S
H235 C209 0.931 . S
H236 C214 0.930 . S
H237 C215 0.931 . S
H238 C217 0.931 . S
H239 C218 0.931 . S
Gd240 C243 2.818 . S
Gd240 O260 2.377 . S
Gd240 O262 2.448 . S
Gd240 O263 2.506 . S
Gd240 O264 2.435 . S
Gd240 O265 2.717 . S
Gd240 O267 2.395 . S
Gd240 O271 2.327 . S
Gd241 C252 2.818 1_545 S
Gd241 O261 2.395 . S
Gd241 O265 2.327 . S
Gd241 O266 2.377 . S
Gd241 O268 2.448 1_545 S
Gd241 O269 2.506 1_545 S
Gd241 O270 2.435 . S
Gd241 O271 2.717 . S
C242 O260 1.240 . S
C242 O261 1.240 . S
C243 Gd240 2.818 . S
C243 C244 1.510 . S
C243 O262 1.249 . S
C243 O263 1.252 . S
C244 C243 1.510 . S
C244 C245 1.404 . S
C244 C246 1.352 . S
C245 C244 1.404 . S
C245 C249 1.389 . S
C245 H272 0.930 . S
C246 C244 1.352 . S
C246 C248 1.374 . S
C246 H273 0.931 . S
C247 C248 1.359 . S
C247 C249 1.364 . S
C248 C246 1.374 . S
C248 C247 1.359 . S
C248 H274 0.931 . S
C249 C245 1.389 . S
C249 C247 1.364 . S
C249 H275 0.931 . S
C250 O264 1.256 . S
C250 O265 1.257 . S
C251 O266 1.240 . S
C251 O267 1.240 . S
C252 Gd241 2.818 1_565 S
C252 C253 1.510 . S
C252 O268 1.249 . S
C252 O269 1.252 . S
C253 C252 1.510 . S
C253 C254 1.404 . S
C253 C255 1.352 . S
C254 C253 1.404 . S
C254 C258 1.389 . S
C254 H276 0.930 . S
C255 C253 1.352 . S
C255 C257 1.374 . S
C255 H277 0.931 . S
C256 C257 1.359 . S
C256 C258 1.364 . S
C257 C255 1.374 . S
C257 C256 1.359 . S
C257 H278 0.931 . S
C258 C254 1.389 . S
C258 C256 1.364 . S
C258 H279 0.931 . S
C259 O270 1.256 . S
C259 O271 1.257 . S
O260 Gd240 2.377 . S
O260 C242 1.240 . S
O261 Gd241 2.395 . S
O261 C242 1.240 . S
O262 Gd240 2.448 . S
O262 C243 1.249 . S
O263 Gd240 2.506 . S
O263 C243 1.252 . S
O264 Gd240 2.435 . S
O264 C250 1.256 . S
O265 Gd240 2.717 . S
O265 Gd241 2.327 . S
O265 C250 1.257 . S
O266 Gd241 2.377 . S
O266 C251 1.240 . S
O267 Gd240 2.395 . S
O267 C251 1.240 . S
O268 Gd241 2.448 1_565 S
O268 C252 1.249 . S
O269 Gd241 2.506 1_565 S
O269 C252 1.252 . S
O270 Gd241 2.435 . S
O270 C259 1.256 . S
O271 Gd240 2.327 . S
O271 Gd241 2.717 . S
O271 C259 1.257 . S
H272 C245 0.930 . S
H273 C246 0.931 . S
H274 C248 0.931 . S
H275 C249 0.931 . S
H276 C254 0.930 . S
H277 C255 0.931 . S
H278 C257 0.931 . S
H279 C258 0.931 . S
Gd280 C283 2.818 . S
Gd280 O300 2.377 . S
Gd280 O302 2.448 . S
Gd280 O303 2.506 . S
Gd280 O304 2.435 . S
Gd280 O305 2.717 . S
Gd280 O307 2.395 . S
Gd280 O311 2.327 . S
Gd281 C292 2.818 1_565 S
Gd281 O301 2.395 . S
Gd281 O305 2.327 . S
Gd281 O306 2.377 . S
Gd281 O308 2.448 1_565 S
Gd281 O309 2.506 1_565 S
Gd281 O310 2.435 . S
Gd281 O311 2.717 . S
C282 O300 1.240 . S
C282 O301 1.240 . S
C283 Gd280 2.818 . S
C283 C284 1.510 . S
C283 O302 1.249 . S
C283 O303 1.252 . S
C284 C283 1.510 . S
C284 C285 1.404 . S
C284 C286 1.352 . S
C285 C284 1.404 . S
C285 C289 1.389 . S
C285 H312 0.930 . S
C286 C284 1.352 . S
C286 C288 1.374 . S
C286 H313 0.931 . S
C287 C288 1.359 . S
C287 C289 1.364 . S
C288 C286 1.374 . S
C288 C287 1.359 . S
C288 H314 0.931 . S
C289 C285 1.389 . S
C289 C287 1.364 . S
C289 H315 0.931 . S
C290 O304 1.256 . S
C290 O305 1.257 . S
C291 O306 1.240 . S
C291 O307 1.240 . S
C292 Gd281 2.818 1_545 S
C292 C293 1.510 . S
C292 O308 1.249 . S
C292 O309 1.252 . S
C293 C292 1.510 . S
C293 C294 1.404 . S
C293 C295 1.352 . S
C294 C293 1.404 . S
C294 C298 1.389 . S
C294 H316 0.930 . S
C295 C293 1.352 . S
C295 C297 1.374 . S
C295 H317 0.931 . S
C296 C297 1.359 . S
C296 C298 1.364 . S
C297 C295 1.374 . S
C297 C296 1.359 . S
C297 H318 0.931 . S
C298 C294 1.389 . S
C298 C296 1.364 . S
C298 H319 0.931 . S
C299 O310 1.256 . S
C299 O311 1.257 . S
O300 Gd280 2.377 . S
O300 C282 1.240 . S
O301 Gd281 2.395 . S
O301 C282 1.240 . S
O302 Gd280 2.448 . S
O302 C283 1.249 . S
O303 Gd280 2.506 . S
O303 C283 1.252 . S
O304 Gd280 2.435 . S
O304 C290 1.256 . S
O305 Gd280 2.717 . S
O305 Gd281 2.327 . S
O305 C290 1.257 . S
O306 Gd281 2.377 . S
O306 C291 1.240 . S
O307 Gd280 2.395 . S
O307 C291 1.240 . S
O308 Gd281 2.448 1_545 S
O308 C292 1.249 . S
O309 Gd281 2.506 1_545 S
O309 C292 1.252 . S
O310 Gd281 2.435 . S
O310 C299 1.256 . S
O311 Gd280 2.327 . S
O311 Gd281 2.717 . S
O311 C299 1.257 . S
H312 C285 0.930 . S
H313 C286 0.931 . S
H314 C288 0.931 . S
H315 C289 0.931 . S
H316 C294 0.930 . S
H317 C295 0.931 . S
H318 C297 0.931 . S
H319 C298 0.931 . S
Gd320 C323 2.818 . S
Gd320 O340 2.377 . S
Gd320 O342 2.448 . S
Gd320 O343 2.506 . S
Gd320 O344 2.435 . S
Gd320 O345 2.717 . S
Gd320 O347 2.395 . S
Gd320 O351 2.327 . S
Gd321 C332 2.818 . S
Gd321 O341 2.395 . S
Gd321 O345 2.327 . S
Gd321 O346 2.377 . S
Gd321 O348 2.448 . S
Gd321 O349 2.506 . S
Gd321 O350 2.435 . S
Gd321 O351 2.717 . S
C322 O340 1.240 . S
C322 O341 1.240 . S
C323 Gd320 2.818 . S
C323 C324 1.510 . S
C323 O342 1.249 . S
C323 O343 1.252 . S
C324 C323 1.510 . S
C324 C325 1.404 . S
C324 C326 1.352 . S
C325 C324 1.404 . S
C325 C329 1.389 . S
C325 H352 0.930 . S
C326 C324 1.352 . S
C326 C328 1.374 . S
C326 H353 0.931 . S
C327 C328 1.359 . S
C327 C329 1.364 . S
C328 C326 1.374 . S
C328 C327 1.359 . S
C328 H354 0.931 . S
C329 C325 1.389 . S
C329 C327 1.364 . S
C329 H355 0.931 . S
C330 O344 1.256 . S
C330 O345 1.257 . S
C331 O346 1.240 . S
C331 O347 1.240 . S
C332 Gd321 2.818 . S
C332 C333 1.510 . S
C332 O348 1.249 . S
C332 O349 1.252 . S
C333 C332 1.510 . S
C333 C334 1.404 . S
C333 C335 1.352 . S
C334 C333 1.404 . S
C334 C338 1.389 . S
C334 H356 0.930 . S
C335 C333 1.352 . S
C335 C337 1.374 . S
C335 H357 0.931 . S
C336 C337 1.359 . S
C336 C338 1.364 . S
C337 C335 1.374 . S
C337 C336 1.359 . S
C337 H358 0.931 . S
C338 C334 1.389 . S
C338 C336 1.364 . S
C338 H359 0.931 . S
C339 O350 1.256 . S
C339 O351 1.257 . S
O340 Gd320 2.377 . S
O340 C322 1.240 . S
O341 Gd321 2.395 . S
O341 C322 1.240 . S
O342 Gd320 2.448 . S
O342 C323 1.249 . S
O343 Gd320 2.506 . S
O343 C323 1.252 . S
O344 Gd320 2.435 . S
O344 C330 1.256 . S
O345 Gd320 2.717 . S
O345 Gd321 2.327 . S
O345 C330 1.257 . S
O346 Gd321 2.377 . S
O346 C331 1.240 . S
O347 Gd320 2.395 . S
O347 C331 1.240 . S
O348 Gd321 2.448 . S
O348 C332 1.249 . S
O349 Gd321 2.506 . S
O349 C332 1.252 . S
O350 Gd321 2.435 . S
O350 C339 1.256 . S
O351 Gd320 2.327 . S
O351 Gd321 2.717 . S
O351 C339 1.257 . S
H352 C325 0.930 . S
H353 C326 0.931 . S
H354 C328 0.931 . S
H355 C329 0.931 . S
H356 C334 0.930 . S
H357 C335 0.931 . S
H358 C337 0.931 . S
H359 C338 0.931 . S
Gd360 C363 2.818 . S
Gd360 O380 2.377 . S
Gd360 O382 2.448 . S
Gd360 O383 2.506 . S
Gd360 O384 2.435 . S
Gd360 O385 2.717 . S
Gd360 O387 2.395 . S
Gd360 O391 2.327 . S
Gd361 C372 2.818 . S
Gd361 O381 2.395 . S
Gd361 O385 2.327 . S
Gd361 O386 2.377 . S
Gd361 O388 2.448 . S
Gd361 O389 2.506 . S
Gd361 O390 2.435 . S
Gd361 O391 2.717 . S
C362 O380 1.240 . S
C362 O381 1.240 . S
C363 Gd360 2.818 . S
C363 C364 1.510 . S
C363 O382 1.249 . S
C363 O383 1.252 . S
C364 C363 1.510 . S
C364 C365 1.404 . S
C364 C366 1.352 . S
C365 C364 1.404 . S
C365 C369 1.389 . S
C365 H392 0.930 . S
C366 C364 1.352 . S
C366 C368 1.374 . S
C366 H393 0.931 . S
C367 C368 1.359 . S
C367 C369 1.364 . S
C368 C366 1.374 . S
C368 C367 1.359 . S
C368 H394 0.931 . S
C369 C365 1.389 . S
C369 C367 1.364 . S
C369 H395 0.931 . S
C370 O384 1.256 . S
C370 O385 1.257 . S
C371 O386 1.240 . S
C371 O387 1.240 . S
C372 Gd361 2.818 . S
C372 C373 1.510 . S
C372 O388 1.249 . S
C372 O389 1.252 . S
C373 C372 1.510 . S
C373 C374 1.404 . S
C373 C375 1.352 . S
C374 C373 1.404 . S
C374 C378 1.389 . S
C374 H396 0.930 . S
C375 C373 1.352 . S
C375 C377 1.374 . S
C375 H397 0.931 . S
C376 C377 1.359 . S
C376 C378 1.364 . S
C377 C375 1.374 . S
C377 C376 1.359 . S
C377 H398 0.931 . S
C378 C374 1.389 . S
C378 C376 1.364 . S
C378 H399 0.931 . S
C379 O390 1.256 . S
C379 O391 1.257 . S
O380 Gd360 2.377 . S
O380 C362 1.240 . S
O381 Gd361 2.395 . S
O381 C362 1.240 . S
O382 Gd360 2.448 . S
O382 C363 1.249 . S
O383 Gd360 2.506 . S
O383 C363 1.252 . S
O384 Gd360 2.435 . S
O384 C370 1.256 . S
O385 Gd360 2.717 . S
O385 Gd361 2.327 . S
O385 C370 1.257 . S
O386 Gd361 2.377 . S
O386 C371 1.240 . S
O387 Gd360 2.395 . S
O387 C371 1.240 . S
O388 Gd361 2.448 . S
O388 C372 1.249 . S
O389 Gd361 2.506 . S
O389 C372 1.252 . S
O390 Gd361 2.435 . S
O390 C379 1.256 . S
O391 Gd360 2.327 . S
O391 Gd361 2.717 . S
O391 C379 1.257 . S
H392 C365 0.930 . S
H393 C366 0.931 . S
H394 C368 0.931 . S
H395 C369 0.931 . S
H396 C374 0.930 . S
H397 C375 0.931 . S
H398 C377 0.931 . S
H399 C378 0.931 . S
Gd400 C403 2.818 . S
Gd400 O420 2.377 . S
Gd400 O422 2.448 . S
Gd400 O423 2.506 . S
Gd400 O424 2.435 . S
Gd400 O425 2.717 . S
Gd400 O427 2.395 . S
Gd400 O431 2.327 . S
Gd401 C412 2.818 . S
Gd401 O421 2.395 . S
Gd401 O425 2.327 . S
Gd401 O426 2.377 . S
Gd401 O428 2.448 . S
Gd401 O429 2.506 . S
Gd401 O430 2.435 . S
Gd401 O431 2.717 . S
C402 O420 1.240 . S
C402 O421 1.240 . S
C403 Gd400 2.818 . S
C403 C404 1.510 . S
C403 O422 1.249 . S
C403 O423 1.252 . S
C404 C403 1.510 . S
C404 C405 1.404 . S
C404 C406 1.352 . S
C405 C404 1.404 . S
C405 C409 1.389 . S
C405 H432 0.930 . S
C406 C404 1.352 . S
C406 C408 1.374 . S
C406 H433 0.931 . S
C407 C408 1.359 . S
C407 C409 1.364 . S
C408 C406 1.374 . S
C408 C407 1.359 . S
C408 H434 0.931 . S
C409 C405 1.389 . S
C409 C407 1.364 . S
C409 H435 0.931 . S
C410 O424 1.256 . S
C410 O425 1.257 . S
C411 O426 1.240 . S
C411 O427 1.240 . S
C412 Gd401 2.818 . S
C412 C413 1.510 . S
C412 O428 1.249 . S
C412 O429 1.252 . S
C413 C412 1.510 . S
C413 C414 1.404 . S
C413 C415 1.352 . S
C414 C413 1.404 . S
C414 C418 1.389 . S
C414 H436 0.930 . S
C415 C413 1.352 . S
C415 C417 1.374 . S
C415 H437 0.931 . S
C416 C417 1.359 . S
C416 C418 1.364 . S
C417 C415 1.374 . S
C417 C416 1.359 . S
C417 H438 0.931 . S
C418 C414 1.389 . S
C418 C416 1.364 . S
C418 H439 0.931 . S
C419 O430 1.256 . S
C419 O431 1.257 . S
O420 Gd400 2.377 . S
O420 C402 1.240 . S
O421 Gd401 2.395 . S
O421 C402 1.240 . S
O422 Gd400 2.448 . S
O422 C403 1.249 . S
O423 Gd400 2.506 . S
O423 C403 1.252 . S
O424 Gd400 2.435 . S
O424 C410 1.256 . S
O425 Gd400 2.717 . S
O425 Gd401 2.327 . S
O425 C410 1.257 . S
O426 Gd401 2.377 . S
O426 C411 1.240 . S
O427 Gd400 2.395 . S
O427 C411 1.240 . S
O428 Gd401 2.448 . S
O428 C412 1.249 . S
O429 Gd401 2.506 . S
O429 C412 1.252 . S
O430 Gd401 2.435 . S
O430 C419 1.256 . S
O431 Gd400 2.327 . S
O431 Gd401 2.717 . S
O431 C419 1.257 . S
H432 C405 0.930 . S
H433 C406 0.931 . S
H434 C408 0.931 . S
H435 C409 0.931 . S
H436 C414 0.930 . S
H437 C415 0.931 . S
H438 C417 0.931 . S
H439 C418 0.931 . S
Gd440 C443 2.818 . S
Gd440 O460 2.377 . S
Gd440 O462 2.448 . S
Gd440 O463 2.506 . S
Gd440 O464 2.435 . S
Gd440 O465 2.717 . S
Gd440 O467 2.395 . S
Gd440 O471 2.327 . S
Gd441 C452 2.818 . S
Gd441 O461 2.395 . S
Gd441 O465 2.327 . S
Gd441 O466 2.377 . S
Gd441 O468 2.448 . S
Gd441 O469 2.506 . S
Gd441 O470 2.435 . S
Gd441 O471 2.717 . S
C442 O460 1.240 . S
C442 O461 1.240 . S
C443 Gd440 2.818 . S
C443 C444 1.510 . S
C443 O462 1.249 . S
C443 O463 1.252 . S
C444 C443 1.510 . S
C444 C445 1.404 . S
C444 C446 1.352 . S
C445 C444 1.404 . S
C445 C449 1.389 . S
C445 H472 0.930 . S
C446 C444 1.352 . S
C446 C448 1.374 . S
C446 H473 0.931 . S
C447 C448 1.359 . S
C447 C449 1.364 . S
C448 C446 1.374 . S
C448 C447 1.359 . S
C448 H474 0.931 . S
C449 C445 1.389 . S
C449 C447 1.364 . S
C449 H475 0.931 . S
C450 O464 1.256 . S
C450 O465 1.257 . S
C451 O466 1.240 . S
C451 O467 1.240 . S
C452 Gd441 2.818 . S
C452 C453 1.510 . S
C452 O468 1.249 . S
C452 O469 1.252 . S
C453 C452 1.510 . S
C453 C454 1.404 . S
C453 C455 1.352 . S
C454 C453 1.404 . S
C454 C458 1.389 . S
C454 H476 0.930 . S
C455 C453 1.352 . S
C455 C457 1.374 . S
C455 H477 0.931 . S
C456 C457 1.359 . S
C456 C458 1.364 . S
C457 C455 1.374 . S
C457 C456 1.359 . S
C457 H478 0.931 . S
C458 C454 1.389 . S
C458 C456 1.364 . S
C458 H479 0.931 . S
C459 O470 1.256 . S
C459 O471 1.257 . S
O460 Gd440 2.377 . S
O460 C442 1.240 . S
O461 Gd441 2.395 . S
O461 C442 1.240 . S
O462 Gd440 2.448 . S
O462 C443 1.249 . S
O463 Gd440 2.506 . S
O463 C443 1.252 . S
O464 Gd440 2.435 . S
O464 C450 1.256 . S
O465 Gd440 2.717 . S
O465 Gd441 2.327 . S
O465 C450 1.257 . S
O466 Gd441 2.377 . S
O466 C451 1.240 . S
O467 Gd440 2.395 . S
O467 C451 1.240 . S
O468 Gd441 2.448 . S
O468 C452 1.249 . S
O469 Gd441 2.506 . S
O469 C452 1.252 . S
O470 Gd441 2.435 . S
O470 C459 1.256 . S
O471 Gd440 2.327 . S
O471 Gd441 2.717 . S
O471 C459 1.257 . S
H472 C445 0.930 . S
H473 C446 0.931 . S
H474 C448 0.931 . S
H475 C449 0.931 . S
H476 C454 0.930 . S
H477 C455 0.931 . S
H478 C457 0.931 . S
H479 C458 0.931 . S
Gd480 C483 2.818 . S
Gd480 O500 2.377 . S
Gd480 O502 2.448 . S
Gd480 O503 2.506 . S
Gd480 O504 2.435 . S
Gd480 O505 2.717 . S
Gd480 O507 2.395 . S
Gd480 O511 2.327 . S
Gd481 C492 2.818 . S
Gd481 O501 2.395 . S
Gd481 O505 2.327 . S
Gd481 O506 2.377 . S
Gd481 O508 2.448 . S
Gd481 O509 2.506 . S
Gd481 O510 2.435 . S
Gd481 O511 2.717 . S
C482 O500 1.240 . S
C482 O501 1.240 . S
C483 Gd480 2.818 . S
C483 C484 1.510 . S
C483 O502 1.249 . S
C483 O503 1.252 . S
C484 C483 1.510 . S
C484 C485 1.404 . S
C484 C486 1.352 . S
C485 C484 1.404 . S
C485 C489 1.389 . S
C485 H512 0.930 . S
C486 C484 1.352 . S
C486 C488 1.374 . S
C486 H513 0.931 . S
C487 C488 1.359 . S
C487 C489 1.364 . S
C488 C486 1.374 . S
C488 C487 1.359 . S
C488 H514 0.931 . S
C489 C485 1.389 . S
C489 C487 1.364 . S
C489 H515 0.931 . S
C490 O504 1.256 . S
C490 O505 1.257 . S
C491 O506 1.240 . S
C491 O507 1.240 . S
C492 Gd481 2.818 . S
C492 C493 1.510 . S
C492 O508 1.249 . S
C492 O509 1.252 . S
C493 C492 1.510 . S
C493 C494 1.404 . S
C493 C495 1.352 . S
C494 C493 1.404 . S
C494 C498 1.389 . S
C494 H516 0.930 . S
C495 C493 1.352 . S
C495 C497 1.374 . S
C495 H517 0.931 . S
C496 C497 1.359 . S
C496 C498 1.364 . S
C497 C495 1.374 . S
C497 C496 1.359 . S
C497 H518 0.931 . S
C498 C494 1.389 . S
C498 C496 1.364 . S
C498 H519 0.931 . S
C499 O510 1.256 . S
C499 O511 1.257 . S
O500 Gd480 2.377 . S
O500 C482 1.240 . S
O501 Gd481 2.395 . S
O501 C482 1.240 . S
O502 Gd480 2.448 . S
O502 C483 1.249 . S
O503 Gd480 2.506 . S
O503 C483 1.252 . S
O504 Gd480 2.435 . S
O504 C490 1.256 . S
O505 Gd480 2.717 . S
O505 Gd481 2.327 . S
O505 C490 1.257 . S
O506 Gd481 2.377 . S
O506 C491 1.240 . S
O507 Gd480 2.395 . S
O507 C491 1.240 . S
O508 Gd481 2.448 . S
O508 C492 1.249 . S
O509 Gd481 2.506 . S
O509 C492 1.252 . S
O510 Gd481 2.435 . S
O510 C499 1.256 . S
O511 Gd480 2.327 . S
O511 Gd481 2.717 . S
O511 C499 1.257 . S
H512 C485 0.930 . S
H513 C486 0.931 . S
H514 C488 0.931 . S
H515 C489 0.931 . S
H516 C494 0.930 . S
H517 C495 0.931 . S
H518 C497 0.931 . S
H519 C498 0.931 . S
Gd520 C523 2.818 . S
Gd520 O540 2.377 . S
Gd520 O542 2.448 . S
Gd520 O543 2.506 . S
Gd520 O544 2.435 . S
Gd520 O545 2.717 . S
Gd520 O547 2.395 . S
Gd520 O551 2.327 . S
Gd521 C532 2.818 . S
Gd521 O541 2.395 . S
Gd521 O545 2.327 . S
Gd521 O546 2.377 . S
Gd521 O548 2.448 . S
Gd521 O549 2.506 . S
Gd521 O550 2.435 . S
Gd521 O551 2.717 . S
C522 O540 1.240 . S
C522 O541 1.240 . S
C523 Gd520 2.818 . S
C523 C524 1.510 . S
C523 O542 1.249 . S
C523 O543 1.252 . S
C524 C523 1.510 . S
C524 C525 1.404 . S
C524 C526 1.352 . S
C525 C524 1.404 . S
C525 C529 1.389 . S
C525 H552 0.930 . S
C526 C524 1.352 . S
C526 C528 1.374 . S
C526 H553 0.931 . S
C527 C528 1.359 . S
C527 C529 1.364 . S
C528 C526 1.374 . S
C528 C527 1.359 . S
C528 H554 0.931 . S
C529 C525 1.389 . S
C529 C527 1.364 . S
C529 H555 0.931 . S
C530 O544 1.256 . S
C530 O545 1.257 . S
C531 O546 1.240 . S
C531 O547 1.240 . S
C532 Gd521 2.818 . S
C532 C533 1.510 . S
C532 O548 1.249 . S
C532 O549 1.252 . S
C533 C532 1.510 . S
C533 C534 1.404 . S
C533 C535 1.352 . S
C534 C533 1.404 . S
C534 C538 1.389 . S
C534 H556 0.930 . S
C535 C533 1.352 . S
C535 C537 1.374 . S
C535 H557 0.931 . S
C536 C537 1.359 . S
C536 C538 1.364 . S
C537 C535 1.374 . S
C537 C536 1.359 . S
C537 H558 0.931 . S
C538 C534 1.389 . S
C538 C536 1.364 . S
C538 H559 0.931 . S
C539 O550 1.256 . S
C539 O551 1.257 . S
O540 Gd520 2.377 . S
O540 C522 1.240 . S
O541 Gd521 2.395 . S
O541 C522 1.240 . S
O542 Gd520 2.448 . S
O542 C523 1.249 . S
O543 Gd520 2.506 . S
O543 C523 1.252 . S
O544 Gd520 2.435 . S
O544 C530 1.256 . S
O545 Gd520 2.717 . S
O545 Gd521 2.327 . S
O545 C530 1.257 . S
O546 Gd521 2.377 . S
O546 C531 1.240 . S
O547 Gd520 2.395 . S
O547 C531 1.240 . S
O548 Gd521 2.448 . S
O548 C532 1.249 . S
O549 Gd521 2.506 . S
O549 C532 1.252 . S
O550 Gd521 2.435 . S
O550 C539 1.256 . S
O551 Gd520 2.327 . S
O551 Gd521 2.717 . S
O551 C539 1.257 . S
H552 C525 0.930 . S
H553 C526 0.931 . S
H554 C528 0.931 . S
H555 C529 0.931 . S
H556 C534 0.930 . S
H557 C535 0.931 . S
H558 C537 0.931 . S
H559 C538 0.931 . S
Gd560 C563 2.818 . S
Gd560 O580 2.377 . S
Gd560 O582 2.448 . S
Gd560 O583 2.506 . S
Gd560 O584 2.435 . S
Gd560 O585 2.717 . S
Gd560 O587 2.395 . S
Gd560 O591 2.327 . S
Gd561 C572 2.818 . S
Gd561 O581 2.395 . S
Gd561 O585 2.327 . S
Gd561 O586 2.377 . S
Gd561 O588 2.448 . S
Gd561 O589 2.506 . S
Gd561 O590 2.435 . S
Gd561 O591 2.717 . S
C562 O580 1.240 . S
C562 O581 1.240 . S
C563 Gd560 2.818 . S
C563 C564 1.510 . S
C563 O582 1.249 . S
C563 O583 1.252 . S
C564 C563 1.510 . S
C564 C565 1.404 . S
C564 C566 1.352 . S
C565 C564 1.404 . S
C565 C569 1.389 . S
C565 H592 0.930 . S
C566 C564 1.352 . S
C566 C568 1.374 . S
C566 H593 0.931 . S
C567 C568 1.359 . S
C567 C569 1.364 . S
C568 C566 1.374 . S
C568 C567 1.359 . S
C568 H594 0.931 . S
C569 C565 1.389 . S
C569 C567 1.364 . S
C569 H595 0.931 . S
C570 O584 1.256 . S
C570 O585 1.257 . S
C571 O586 1.240 . S
C571 O587 1.240 . S
C572 Gd561 2.818 . S
C572 C573 1.510 . S
C572 O588 1.249 . S
C572 O589 1.252 . S
C573 C572 1.510 . S
C573 C574 1.404 . S
C573 C575 1.352 . S
C574 C573 1.404 . S
C574 C578 1.389 . S
C574 H596 0.930 . S
C575 C573 1.352 . S
C575 C577 1.374 . S
C575 H597 0.931 . S
C576 C577 1.359 . S
C576 C578 1.364 . S
C577 C575 1.374 . S
C577 C576 1.359 . S
C577 H598 0.931 . S
C578 C574 1.389 . S
C578 C576 1.364 . S
C578 H599 0.931 . S
C579 O590 1.256 . S
C579 O591 1.257 . S
O580 Gd560 2.377 . S
O580 C562 1.240 . S
O581 Gd561 2.395 . S
O581 C562 1.240 . S
O582 Gd560 2.448 . S
O582 C563 1.249 . S
O583 Gd560 2.506 . S
O583 C563 1.252 . S
O584 Gd560 2.435 . S
O584 C570 1.256 . S
O585 Gd560 2.717 . S
O585 Gd561 2.327 . S
O585 C570 1.257 . S
O586 Gd561 2.377 . S
O586 C571 1.240 . S
O587 Gd560 2.395 . S
O587 C571 1.240 . S
O588 Gd561 2.448 . S
O588 C572 1.249 . S
O589 Gd561 2.506 . S
O589 C572 1.252 . S
O590 Gd561 2.435 . S
O590 C579 1.256 . S
O591 Gd560 2.327 . S
O591 Gd561 2.717 . S
O591 C579 1.257 . S
H592 C565 0.930 . S
H593 C566 0.931 . S
H594 C568 0.931 . S
H595 C569 0.931 . S
H596 C574 0.930 . S
H597 C575 0.931 . S
H598 C577 0.931 . S
H599 C578 0.931 . S
Gd600 C603 2.818 . S
Gd600 O620 2.377 . S
Gd600 O622 2.448 . S
Gd600 O623 2.506 . S
Gd600 O624 2.435 . S
Gd600 O625 2.717 . S
Gd600 O627 2.395 . S
Gd600 O631 2.327 . S
Gd601 C612 2.818 . S
Gd601 O621 2.395 . S
Gd601 O625 2.327 . S
Gd601 O626 2.377 . S
Gd601 O628 2.448 . S
Gd601 O629 2.506 . S
Gd601 O630 2.435 . S
Gd601 O631 2.717 . S
C602 O620 1.240 . S
C602 O621 1.240 . S
C603 Gd600 2.818 . S
C603 C604 1.510 . S
C603 O622 1.249 . S
C603 O623 1.252 . S
C604 C603 1.510 . S
C604 C605 1.404 . S
C604 C606 1.352 . S
C605 C604 1.404 . S
C605 C609 1.389 . S
C605 H632 0.930 . S
C606 C604 1.352 . S
C606 C608 1.374 . S
C606 H633 0.931 . S
C607 C608 1.359 . S
C607 C609 1.364 . S
C608 C606 1.374 . S
C608 C607 1.359 . S
C608 H634 0.931 . S
C609 C605 1.389 . S
C609 C607 1.364 . S
C609 H635 0.931 . S
C610 O624 1.256 . S
C610 O625 1.257 . S
C611 O626 1.240 . S
C611 O627 1.240 . S
C612 Gd601 2.818 . S
C612 C613 1.510 . S
C612 O628 1.249 . S
C612 O629 1.252 . S
C613 C612 1.510 . S
C613 C614 1.404 . S
C613 C615 1.352 . S
C614 C613 1.404 . S
C614 C618 1.389 . S
C614 H636 0.930 . S
C615 C613 1.352 . S
C615 C617 1.374 . S
C615 H637 0.931 . S
C616 C617 1.359 . S
C616 C618 1.364 . S
C617 C615 1.374 . S
C617 C616 1.359 . S
C617 H638 0.931 . S
C618 C614 1.389 . S
C618 C616 1.364 . S
C618 H639 0.931 . S
C619 O630 1.256 . S
C619 O631 1.257 . S
O620 Gd600 2.377 . S
O620 C602 1.240 . S
O621 Gd601 2.395 . S
O621 C602 1.240 . S
O622 Gd600 2.448 . S
O622 C603 1.249 . S
O623 Gd600 2.506 . S
O623 C603 1.252 . S
O624 Gd600 2.435 . S
O624 C610 1.256 . S
O625 Gd600 2.717 . S
O625 Gd601 2.327 . S
O625 C610 1.257 . S
O626 Gd601 2.377 . S
O626 C611 1.240 . S
O627 Gd600 2.395 . S
O627 C611 1.240 . S
O628 Gd601 2.448 . S
O628 C612 1.249 . S
O629 Gd601 2.506 . S
O629 C612 1.252 . S
O630 Gd601 2.435 . S
O630 C619 1.256 . S
O631 Gd600 2.327 . S
O631 Gd601 2.717 . S
O631 C619 1.257 . S
H632 C605 0.930 . S
H633 C606 0.931 . S
H634 C608 0.931 . S
H635 C609 0.931 . S
H636 C614 0.930 . S
H637 C615 0.931 . S
H638 C617 0.931 . S
H639 C618 0.931 . S
C640 C641 1.363 . S
C640 C646 1.379 . S
C640 N648 1.356 . S
C641 C640 1.363 . S
C641 C647 1.363 . S
C642 C643 1.363 . S
C642 C647 1.379 . S
C642 N649 1.356 . S
C643 C642 1.363 . S
C643 C646 1.363 . S
N644 C646 1.356 . S
N644 H656 0.984 . S
N644 H657 0.985 . S
N645 C647 1.356 . S
N645 H650 0.984 . S
N645 H651 0.985 . S
C646 C640 1.379 . S
C646 C643 1.363 . S
C646 N644 1.356 . S
C647 C641 1.363 . S
C647 C642 1.379 . S
C647 N645 1.356 . S
N648 C640 1.356 . S
N648 H654 0.984 . S
N648 H655 0.984 . S
N649 C642 1.356 . S
N649 H652 0.984 . S
N649 H653 0.985 . S
H650 N645 0.984 . S
H651 N645 0.985 . S
H652 N649 0.984 . S
H653 N649 0.985 . S
H654 N648 0.984 . S
H655 N648 0.984 . S
H656 N644 0.984 . S
H657 N644 0.985 . S
C658 C659 1.363 . S
C658 C664 1.379 . S
C658 N666 1.356 . S
C659 C658 1.363 . S
C659 C665 1.363 . S
C660 C661 1.363 . S
C660 C665 1.379 . S
C660 N667 1.356 . S
C661 C660 1.363 . S
C661 C664 1.363 . S
N662 C664 1.356 . S
N662 H674 0.984 . S
N662 H675 0.985 . S
N663 C665 1.356 . S
N663 H668 0.984 . S
N663 H669 0.985 . S
C664 C658 1.379 . S
C664 C661 1.363 . S
C664 N662 1.356 . S
C665 C659 1.363 . S
C665 C660 1.379 . S
C665 N663 1.356 . S
N666 C658 1.356 . S
N666 H672 0.984 . S
N666 H673 0.984 . S
N667 C660 1.356 . S
N667 H670 0.984 . S
N667 H671 0.985 . S
H668 N663 0.984 . S
H669 N663 0.985 . S
H670 N667 0.984 . S
H671 N667 0.985 . S
H672 N666 0.984 . S
H673 N666 0.984 . S
H674 N662 0.984 . S
H675 N662 0.985 . S
C676 C677 1.363 . S
C676 C682 1.379 . S
C676 N684 1.356 . S
C677 C676 1.363 . S
C677 C683 1.363 . S
C678 C679 1.363 . S
C678 C683 1.379 . S
C678 N685 1.356 . S
C679 C678 1.363 . S
C679 C682 1.363 . S
N680 C682 1.356 . S
N680 H692 0.984 . S
N680 H693 0.985 . S
N681 C683 1.356 . S
N681 H686 0.984 . S
N681 H687 0.985 . S
C682 C676 1.379 . S
C682 C679 1.363 . S
C682 N680 1.356 . S
C683 C677 1.363 . S
C683 C678 1.379 . S
C683 N681 1.356 . S
N684 C676 1.356 . S
N684 H690 0.984 . S
N684 H691 0.984 . S
N685 C678 1.356 . S
N685 H688 0.984 . S
N685 H689 0.985 . S
H686 N681 0.984 . S
H687 N681 0.985 . S
H688 N685 0.984 . S
H689 N685 0.985 . S
H690 N684 0.984 . S
H691 N684 0.984 . S
H692 N680 0.984 . S
H693 N680 0.985 . S
C694 C695 1.363 . S
C694 C700 1.379 . S
C694 N702 1.356 . S
C695 C694 1.363 . S
C695 C701 1.363 . S
C696 C697 1.363 . S
C696 C701 1.379 . S
C696 N703 1.356 . S
C697 C696 1.363 . S
C697 C700 1.363 . S
N698 C700 1.356 . S
N698 H710 0.984 . S
N698 H711 0.985 . S
N699 C701 1.356 . S
N699 H704 0.984 . S
N699 H705 0.985 . S
C700 C694 1.379 . S
C700 C697 1.363 . S
C700 N698 1.356 . S
C701 C695 1.363 . S
C701 C696 1.379 . S
C701 N699 1.356 . S
N702 C694 1.356 . S
N702 H708 0.984 . S
N702 H709 0.984 . S
N703 C696 1.356 . S
N703 H706 0.984 . S
N703 H707 0.985 . S
H704 N699 0.984 . S
H705 N699 0.985 . S
H706 N703 0.984 . S
H707 N703 0.985 . S
H708 N702 0.984 . S
H709 N702 0.984 . S
H710 N698 0.984 . S
H711 N698 0.985 . S
C712 C713 1.363 . S
C712 C718 1.379 . S
C712 N720 1.356 . S
C713 C712 1.363 . S
C713 C719 1.363 . S
C714 C715 1.363 . S
C714 C719 1.379 . S
C714 N721 1.356 . S
C715 C714 1.363 . S
C715 C718 1.363 . S
N716 C718 1.356 . S
N716 H728 0.984 . S
N716 H729 0.985 . S
N717 C719 1.356 . S
N717 H722 0.984 . S
N717 H723 0.985 . S
C718 C712 1.379 . S
C718 C715 1.363 . S
C718 N716 1.356 . S
C719 C713 1.363 . S
C719 C714 1.379 . S
C719 N717 1.356 . S
N720 C712 1.356 . S
N720 H726 0.984 . S
N720 H727 0.984 . S
N721 C714 1.356 . S
N721 H724 0.984 . S
N721 H725 0.985 . S
H722 N717 0.984 . S
H723 N717 0.985 . S
H724 N721 0.984 . S
H725 N721 0.985 . S
H726 N720 0.984 . S
H727 N720 0.984 . S
H728 N716 0.984 . S
H729 N716 0.985 . S
C730 C731 1.363 . S
C730 C736 1.379 . S
C730 N738 1.356 . S
C731 C730 1.363 . S
C731 C737 1.363 . S
C732 C733 1.363 . S
C732 C737 1.379 . S
C732 N739 1.356 . S
C733 C732 1.363 . S
C733 C736 1.363 . S
N734 C736 1.356 . S
N734 H746 0.984 . S
N734 H747 0.985 . S
N735 C737 1.356 . S
N735 H740 0.984 . S
N735 H741 0.985 . S
C736 C730 1.379 . S
C736 C733 1.363 . S
C736 N734 1.356 . S
C737 C731 1.363 . S
C737 C732 1.379 . S
C737 N735 1.356 . S
N738 C730 1.356 . S
N738 H744 0.984 . S
N738 H745 0.984 . S
N739 C732 1.356 . S
N739 H742 0.984 . S
N739 H743 0.985 . S
H740 N735 0.984 . S
H741 N735 0.985 . S
H742 N739 0.984 . S
H743 N739 0.985 . S
H744 N738 0.984 . S
H745 N738 0.984 . S
H746 N734 0.984 . S
H747 N734 0.985 . S
C748 C749 1.363 . S
C748 C754 1.379 . S
C748 N756 1.356 . S
C749 C748 1.363 . S
C749 C755 1.363 . S
C750 C751 1.363 . S
C750 C755 1.379 . S
C750 N757 1.356 . S
C751 C750 1.363 . S
C751 C754 1.363 . S
N752 C754 1.356 . S
N752 H764 0.984 . S
N752 H765 0.985 . S
N753 C755 1.356 . S
N753 H758 0.984 . S
N753 H759 0.985 . S
C754 C748 1.379 . S
C754 C751 1.363 . S
C754 N752 1.356 . S
C755 C749 1.363 . S
C755 C750 1.379 . S
C755 N753 1.356 . S
N756 C748 1.356 . S
N756 H762 0.984 . S
N756 H763 0.984 . S
N757 C750 1.356 . S
N757 H760 0.984 . S
N757 H761 0.985 . S
H758 N753 0.984 . S
H759 N753 0.985 . S
H760 N757 0.984 . S
H761 N757 0.985 . S
H762 N756 0.984 . S
H763 N756 0.984 . S
H764 N752 0.984 . S
H765 N752 0.985 . S
C766 C767 1.363 . S
C766 C772 1.379 . S
C766 N774 1.356 . S
C767 C766 1.363 . S
C767 C773 1.363 . S
C768 C769 1.363 . S
C768 C773 1.379 . S
C768 N775 1.356 . S
C769 C768 1.363 . S
C769 C772 1.363 . S
N770 C772 1.356 . S
N770 H782 0.984 . S
N770 H783 0.985 . S
N771 C773 1.356 . S
N771 H776 0.984 . S
N771 H777 0.985 . S
C772 C766 1.379 . S
C772 C769 1.363 . S
C772 N770 1.356 . S
C773 C767 1.363 . S
C773 C768 1.379 . S
C773 N771 1.356 . S
N774 C766 1.356 . S
N774 H780 0.984 . S
N774 H781 0.984 . S
N775 C768 1.356 . S
N775 H778 0.984 . S
N775 H779 0.985 . S
H776 N771 0.984 . S
H777 N771 0.985 . S
H778 N775 0.984 . S
H779 N775 0.985 . S
H780 N774 0.984 . S
H781 N774 0.984 . S
H782 N770 0.984 . S
H783 N770 0.985 . S
C784 C785 1.363 . S
C784 C790 1.379 . S
C784 N792 1.356 . S
C785 C784 1.363 . S
C785 C791 1.363 1_565 S
C786 C787 1.363 . S
C786 C791 1.379 . S
C786 N793 1.356 . S
C787 C786 1.363 . S
C787 C790 1.363 1_545 S
N788 C790 1.356 1_545 S
N788 H800 0.984 1_545 S
N788 H801 0.985 . S
N789 C791 1.356 1_565 S
N789 H794 0.984 . S
N789 H795 0.985 1_565 S
C790 C784 1.379 . S
C790 C787 1.363 1_565 S
C790 N788 1.356 1_565 S
C791 C785 1.363 1_545 S
C791 C786 1.379 . S
C791 N789 1.356 1_545 S
N792 C784 1.356 . S
N792 H798 0.984 . S
N792 H799 0.984 . S
N793 C786 1.356 . S
N793 H796 0.984 . S
N793 H797 0.985 . S
H794 N789 0.984 . S
H795 N789 0.985 1_545 S
H796 N793 0.984 . S
H797 N793 0.985 . S
H798 N792 0.984 . S
H799 N792 0.984 . S
H800 N788 0.984 1_565 S
H801 N788 0.985 . S
C802 C803 1.363 . S
C802 C808 1.379 . S
C802 N810 1.356 . S
C803 C802 1.363 . S
C803 C809 1.363 1_545 S
C804 C805 1.363 . S
C804 C809 1.379 . S
C804 N811 1.356 . S
C805 C804 1.363 . S
C805 C808 1.363 1_565 S
N806 C808 1.356 . S
N806 H818 0.984 . S
N806 H819 0.985 1_545 S
N807 C809 1.356 . S
N807 H812 0.984 1_565 S
N807 H813 0.985 . S
C808 C802 1.379 . S
C808 C805 1.363 1_545 S
C808 N806 1.356 . S
C809 C803 1.363 1_565 S
C809 C804 1.379 . S
C809 N807 1.356 . S
N810 C802 1.356 . S
N810 H816 0.984 . S
N810 H817 0.984 . S
N811 C804 1.356 . S
N811 H814 0.984 . S
N811 H815 0.985 . S
H812 N807 0.984 1_545 S
H813 N807 0.985 . S
H814 N811 0.984 . S
H815 N811 0.985 . S
H816 N810 0.984 . S
H817 N810 0.984 . S
H818 N806 0.984 . S
H819 N806 0.985 1_565 S
C820 C821 1.363 . S
C820 C826 1.379 . S
C820 N828 1.356 . S
C821 C820 1.363 . S
C821 C827 1.363 1_545 S
C822 C823 1.363 . S
C822 C827 1.379 . S
C822 N829 1.356 . S
C823 C822 1.363 . S
C823 C826 1.363 1_565 S
N824 C826 1.356 . S
N824 H836 0.984 . S
N824 H837 0.985 1_545 S
N825 C827 1.356 . S
N825 H830 0.984 1_565 S
N825 H831 0.985 . S
C826 C820 1.379 . S
C826 C823 1.363 1_545 S
C826 N824 1.356 . S
C827 C821 1.363 1_565 S
C827 C822 1.379 . S
C827 N825 1.356 . S
N828 C820 1.356 . S
N828 H834 0.984 . S
N828 H835 0.984 . S
N829 C822 1.356 . S
N829 H832 0.984 . S
N829 H833 0.985 . S
H830 N825 0.984 1_545 S
H831 N825 0.985 . S
H832 N829 0.984 . S
H833 N829 0.985 . S
H834 N828 0.984 . S
H835 N828 0.984 . S
H836 N824 0.984 . S
H837 N824 0.985 1_565 S
C838 C839 1.363 . S
C838 C844 1.379 . S
C838 N846 1.356 . S
C839 C838 1.363 . S
C839 C845 1.363 1_545 S
C840 C841 1.363 . S
C840 C845 1.379 . S
C840 N847 1.356 . S
C841 C840 1.363 . S
C841 C844 1.363 1_565 S
N842 C844 1.356 . S
N842 H854 0.984 . S
N842 H855 0.985 1_545 S
N843 C845 1.356 . S
N843 H848 0.984 1_565 S
N843 H849 0.985 . S
C844 C838 1.379 . S
C844 C841 1.363 1_545 S
C844 N842 1.356 . S
C845 C839 1.363 1_565 S
C845 C840 1.379 . S
C845 N843 1.356 . S
N846 C838 1.356 . S
N846 H852 0.984 . S
N846 H853 0.984 . S
N847 C840 1.356 . S
N847 H850 0.984 . S
N847 H851 0.985 . S
H848 N843 0.984 1_545 S
H849 N843 0.985 . S
H850 N847 0.984 . S
H851 N847 0.985 . S
H852 N846 0.984 . S
H853 N846 0.984 . S
H854 N842 0.984 . S
H855 N842 0.985 1_565 S
C856 C857 1.363 . S
C856 C862 1.379 . S
C856 N864 1.356 . S
C857 C856 1.363 . S
C857 C863 1.363 . S
C858 C859 1.363 . S
C858 C863 1.379 . S
C858 N865 1.356 . S
C859 C858 1.363 . S
C859 C862 1.363 . S
N860 C862 1.356 . S
N860 H872 0.984 . S
N860 H873 0.985 . S
N861 C863 1.356 . S
N861 H866 0.984 . S
N861 H867 0.985 . S
C862 C856 1.379 . S
C862 C859 1.363 . S
C862 N860 1.356 . S
C863 C857 1.363 . S
C863 C858 1.379 . S
C863 N861 1.356 . S
N864 C856 1.356 . S
N864 H870 0.984 . S
N864 H871 0.984 . S
N865 C858 1.356 . S
N865 H868 0.984 . S
N865 H869 0.985 . S
H866 N861 0.984 . S
H867 N861 0.985 . S
H868 N865 0.984 . S
H869 N865 0.985 . S
H870 N864 0.984 . S
H871 N864 0.984 . S
H872 N860 0.984 . S
H873 N860 0.985 . S
C874 C875 1.363 . S
C874 C880 1.379 . S
C874 N882 1.356 . S
C875 C874 1.363 . S
C875 C881 1.363 . S
C876 C877 1.363 . S
C876 C881 1.379 . S
C876 N883 1.356 . S
C877 C876 1.363 . S
C877 C880 1.363 . S
N878 C880 1.356 . S
N878 H890 0.984 . S
N878 H891 0.985 . S
N879 C881 1.356 . S
N879 H884 0.984 . S
N879 H885 0.985 . S
C880 C874 1.379 . S
C880 C877 1.363 . S
C880 N878 1.356 . S
C881 C875 1.363 . S
C881 C876 1.379 . S
C881 N879 1.356 . S
N882 C874 1.356 . S
N882 H888 0.984 . S
N882 H889 0.984 . S
N883 C876 1.356 . S
N883 H886 0.984 . S
N883 H887 0.985 . S
H884 N879 0.984 . S
H885 N879 0.985 . S
H886 N883 0.984 . S
H887 N883 0.985 . S
H888 N882 0.984 . S
H889 N882 0.984 . S
H890 N878 0.984 . S
H891 N878 0.985 . S
C892 C893 1.363 . S
C892 C898 1.379 . S
C892 N900 1.356 . S
C893 C892 1.363 . S
C893 C899 1.363 . S
C894 C895 1.363 . S
C894 C899 1.379 . S
C894 N901 1.356 . S
C895 C894 1.363 . S
C895 C898 1.363 . S
N896 C898 1.356 . S
N896 H908 0.984 . S
N896 H909 0.985 . S
N897 C899 1.356 . S
N897 H902 0.984 . S
N897 H903 0.985 . S
C898 C892 1.379 . S
C898 C895 1.363 . S
C898 N896 1.356 . S
C899 C893 1.363 . S
C899 C894 1.379 . S
C899 N897 1.356 . S
N900 C892 1.356 . S
N900 H906 0.984 . S
N900 H907 0.984 . S
N901 C894 1.356 . S
N901 H904 0.984 . S
N901 H905 0.985 . S
H902 N897 0.984 . S
H903 N897 0.985 . S
H904 N901 0.984 . S
H905 N901 0.985 . S
H906 N900 0.984 . S
H907 N900 0.984 . S
H908 N896 0.984 . S
H909 N896 0.985 . S
C910 C911 1.363 . S
C910 C916 1.379 . S
C910 N918 1.356 . S
C911 C910 1.363 . S
C911 C917 1.363 . S
C912 C913 1.363 . S
C912 C917 1.379 . S
C912 N919 1.356 . S
C913 C912 1.363 . S
C913 C916 1.363 . S
N914 C916 1.356 . S
N914 H926 0.984 . S
N914 H927 0.985 . S
N915 C917 1.356 . S
N915 H920 0.984 . S
N915 H921 0.985 . S
C916 C910 1.379 . S
C916 C913 1.363 . S
C916 N914 1.356 . S
C917 C911 1.363 . S
C917 C912 1.379 . S
C917 N915 1.356 . S
N918 C910 1.356 . S
N918 H924 0.984 . S
N918 H925 0.984 . S
N919 C912 1.356 . S
N919 H922 0.984 . S
N919 H923 0.985 . S
H920 N915 0.984 . S
H921 N915 0.985 . S
H922 N919 0.984 . S
H923 N919 0.985 . S
H924 N918 0.984 . S
H925 N918 0.984 . S
H926 N914 0.984 . S
H927 N914 0.985 . S
C928 C929 1.363 . S
C928 C934 1.379 1_556 S
C928 N936 1.356 . S
C929 C928 1.363 . S
C929 C935 1.363 . S
C930 C931 1.363 . S
C930 C935 1.379 1_554 S
C930 N937 1.356 . S
C931 C930 1.363 . S
C931 C934 1.363 . S
N932 C934 1.356 . S
N932 H944 0.984 . S
N932 H945 0.985 . S
N933 C935 1.356 . S
N933 H938 0.984 . S
N933 H939 0.985 . S
C934 C928 1.379 1_554 S
C934 C931 1.363 . S
C934 N932 1.356 . S
C935 C929 1.363 . S
C935 C930 1.379 1_556 S
C935 N933 1.356 . S
N936 C928 1.356 . S
N936 H942 0.984 . S
N936 H943 0.984 . S
N937 C930 1.356 . S
N937 H940 0.984 . S
N937 H941 0.985 . S
H938 N933 0.984 . S
H939 N933 0.985 . S
H940 N937 0.984 . S
H941 N937 0.985 . S
H942 N936 0.984 . S
H943 N936 0.984 . S
H944 N932 0.984 . S
H945 N932 0.985 . S
C946 C947 1.363 . S
C946 C952 1.379 1_556 S
C946 N954 1.356 . S
C947 C946 1.363 . S
C947 C953 1.363 . S
C948 C949 1.363 . S
C948 C953 1.379 1_554 S
C948 N955 1.356 . S
C949 C948 1.363 . S
C949 C952 1.363 . S
N950 C952 1.356 . S
N950 H962 0.984 . S
N950 H963 0.985 . S
N951 C953 1.356 . S
N951 H956 0.984 . S
N951 H957 0.985 . S
C952 C946 1.379 1_554 S
C952 C949 1.363 . S
C952 N950 1.356 . S
C953 C947 1.363 . S
C953 C948 1.379 1_556 S
C953 N951 1.356 . S
N954 C946 1.356 . S
N954 H960 0.984 . S
N954 H961 0.984 . S
N955 C948 1.356 . S
N955 H958 0.984 . S
N955 H959 0.985 . S
H956 N951 0.984 . S
H957 N951 0.985 . S
H958 N955 0.984 . S
H959 N955 0.985 . S
H960 N954 0.984 . S
H961 N954 0.984 . S
H962 N950 0.984 . S
H963 N950 0.985 . S
C964 C965 1.363 . S
C964 C970 1.379 . S
C964 N972 1.356 . S
C965 C964 1.363 . S
C965 C971 1.363 . S
C966 C967 1.363 . S
C966 C971 1.379 . S
C966 N973 1.356 . S
C967 C966 1.363 . S
C967 C970 1.363 . S
N968 C970 1.356 . S
N968 H980 0.984 . S
N968 H981 0.985 . S
N969 C971 1.356 . S
N969 H974 0.984 . S
N969 H975 0.985 . S
C970 C964 1.379 . S
C970 C967 1.363 . S
C970 N968 1.356 . S
C971 C965 1.363 . S
C971 C966 1.379 . S
C971 N969 1.356 . S
N972 C964 1.356 . S
N972 H978 0.984 . S
N972 H979 0.984 . S
N973 C966 1.356 . S
N973 H976 0.984 . S
N973 H977 0.985 . S
H974 N969 0.984 . S
H975 N969 0.985 . S
H976 N973 0.984 . S
H977 N973 0.985 . S
H978 N972 0.984 . S
H979 N972 0.984 . S
H980 N968 0.984 . S
H981 N968 0.985 . S
C982 C983 1.363 . S
C982 C988 1.379 . S
C982 N990 1.356 . S
C983 C982 1.363 . S
C983 C989 1.363 . S
C984 C985 1.363 . S
C984 C989 1.379 . S
C984 N991 1.356 . S
C985 C984 1.363 . S
C985 C988 1.363 . S
N986 C988 1.356 . S
N986 H998 0.984 . S
N986 H999 0.985 . S
N987 C989 1.356 . S
N987 H992 0.984 . S
N987 H993 0.985 . S
C988 C982 1.379 . S
C988 C985 1.363 . S
C988 N986 1.356 . S
C989 C983 1.363 . S
C989 C984 1.379 . S
C989 N987 1.356 . S
N990 C982 1.356 . S
N990 H996 0.984 . S
N990 H997 0.984 . S
N991 C984 1.356 . S
N991 H994 0.984 . S
N991 H995 0.985 . S
H992 N987 0.984 . S
H993 N987 0.985 . S
H994 N991 0.984 . S
H995 N991 0.985 . S
H996 N990 0.984 . S
H997 N990 0.984 . S
H998 N986 0.984 . S
H999 N986 0.985 . S
C1000 C1001 1.363 . S
C1000 C1006 1.379 1_554 S
C1000 N1008 1.356 . S
C1001 C1000 1.363 . S
C1001 C1007 1.363 . S
C1002 C1003 1.363 . S
C1002 C1007 1.379 1_556 S
C1002 N1009 1.356 . S
C1003 C1002 1.363 . S
C1003 C1006 1.363 . S
N1004 C1006 1.356 . S
N1004 H1016 0.984 . S
N1004 H1017 0.985 . S
N1005 C1007 1.356 . S
N1005 H1010 0.984 . S
N1005 H1011 0.985 . S
C1006 C1000 1.379 1_556 S
C1006 C1003 1.363 . S
C1006 N1004 1.356 . S
C1007 C1001 1.363 . S
C1007 C1002 1.379 1_554 S
C1007 N1005 1.356 . S
N1008 C1000 1.356 . S
N1008 H1014 0.984 . S
N1008 H1015 0.984 . S
N1009 C1002 1.356 . S
N1009 H1012 0.984 . S
N1009 H1013 0.985 . S
H1010 N1005 0.984 . S
H1011 N1005 0.985 . S
H1012 N1009 0.984 . S
H1013 N1009 0.985 . S
H1014 N1008 0.984 . S
H1015 N1008 0.984 . S
H1016 N1004 0.984 . S
H1017 N1004 0.985 . S
C1018 C1019 1.363 . S
C1018 C1024 1.379 1_556 S
C1018 N1026 1.356 . S
C1019 C1018 1.363 . S
C1019 C1025 1.363 . S
C1020 C1021 1.363 . S
C1020 C1025 1.379 1_554 S
C1020 N1027 1.356 . S
C1021 C1020 1.363 . S
C1021 C1024 1.363 . S
N1022 C1024 1.356 . S
N1022 H1034 0.984 . S
N1022 H1035 0.985 . S
N1023 C1025 1.356 . S
N1023 H1028 0.984 . S
N1023 H1029 0.985 . S
C1024 C1018 1.379 1_554 S
C1024 C1021 1.363 . S
C1024 N1022 1.356 . S
C1025 C1019 1.363 . S
C1025 C1020 1.379 1_556 S
C1025 N1023 1.356 . S
N1026 C1018 1.356 . S
N1026 H1032 0.984 . S
N1026 H1033 0.984 . S
N1027 C1020 1.356 . S
N1027 H1030 0.984 . S
N1027 H1031 0.985 . S
H1028 N1023 0.984 . S
H1029 N1023 0.985 . S
H1030 N1027 0.984 . S
H1031 N1027 0.985 . S
H1032 N1026 0.984 . S
H1033 N1026 0.984 . S
H1034 N1022 0.984 . S
H1035 N1022 0.985 . S
C1036 C1037 1.363 . S
C1036 C1042 1.379 . S
C1036 N1044 1.356 . S
C1037 C1036 1.363 . S
C1037 C1043 1.363 . S
C1038 C1039 1.363 . S
C1038 C1043 1.379 . S
C1038 N1045 1.356 . S
C1039 C1038 1.363 . S
C1039 C1042 1.363 . S
N1040 C1042 1.356 . S
N1040 H1052 0.984 . S
N1040 H1053 0.985 . S
N1041 C1043 1.356 . S
N1041 H1046 0.984 . S
N1041 H1047 0.985 . S
C1042 C1036 1.379 . S
C1042 C1039 1.363 . S
C1042 N1040 1.356 . S
C1043 C1037 1.363 . S
C1043 C1038 1.379 . S
C1043 N1041 1.356 . S
N1044 C1036 1.356 . S
N1044 H1050 0.984 . S
N1044 H1051 0.984 . S
N1045 C1038 1.356 . S
N1045 H1048 0.984 . S
N1045 H1049 0.985 . S
H1046 N1041 0.984 . S
H1047 N1041 0.985 . S
H1048 N1045 0.984 . S
H1049 N1045 0.985 . S
H1050 N1044 0.984 . S
H1051 N1044 0.984 . S
H1052 N1040 0.984 . S
H1053 N1040 0.985 . S
C1054 C1055 1.363 . S
C1054 C1060 1.379 . S
C1054 N1062 1.356 . S
C1055 C1054 1.363 . S
C1055 C1061 1.363 . S
C1056 C1057 1.363 . S
C1056 C1061 1.379 . S
C1056 N1063 1.356 . S
C1057 C1056 1.363 . S
C1057 C1060 1.363 . S
N1058 C1060 1.356 . S
N1058 H1070 0.984 . S
N1058 H1071 0.985 . S
N1059 C1061 1.356 . S
N1059 H1064 0.984 . S
N1059 H1065 0.985 . S
C1060 C1054 1.379 . S
C1060 C1057 1.363 . S
C1060 N1058 1.356 . S
C1061 C1055 1.363 . S
C1061 C1056 1.379 . S
C1061 N1059 1.356 . S
N1062 C1054 1.356 . S
N1062 H1068 0.984 . S
N1062 H1069 0.984 . S
N1063 C1056 1.356 . S
N1063 H1066 0.984 . S
N1063 H1067 0.985 . S
H1064 N1059 0.984 . S
H1065 N1059 0.985 . S
H1066 N1063 0.984 . S
H1067 N1063 0.985 . S
H1068 N1062 0.984 . S
H1069 N1062 0.984 . S
H1070 N1058 0.984 . S
H1071 N1058 0.985 . S
C1072 C1073 1.363 1_545 S
C1072 C1078 1.379 1_655 S
C1072 N1080 1.356 . S
C1073 C1072 1.363 1_565 S
C1073 C1079 1.363 . S
C1074 C1075 1.363 1_565 S
C1074 C1079 1.379 1_455 S
C1074 N1081 1.356 . S
C1075 C1074 1.363 1_545 S
C1075 C1078 1.363 . S
N1076 C1078 1.356 . S
N1076 H1088 0.984 . S
N1076 H1089 0.985 . S
N1077 C1079 1.356 . S
N1077 H1082 0.984 . S
N1077 H1083 0.985 . S
C1078 C1072 1.379 1_455 S
C1078 C1075 1.363 . S
C1078 N1076 1.356 . S
C1079 C1073 1.363 . S
C1079 C1074 1.379 1_655 S
C1079 N1077 1.356 . S
N1080 C1072 1.356 . S
N1080 H1086 0.984 . S
N1080 H1087 0.984 . S
N1081 C1074 1.356 . S
N1081 H1084 0.984 . S
N1081 H1085 0.985 . S
H1082 N1077 0.984 . S
H1083 N1077 0.985 . S
H1084 N1081 0.984 . S
H1085 N1081 0.985 . S
H1086 N1080 0.984 . S
H1087 N1080 0.984 . S
H1088 N1076 0.984 . S
H1089 N1076 0.985 . S
C1090 C1091 1.363 1_565 S
C1090 C1096 1.379 1_655 S
C1090 N1098 1.356 . S
C1091 C1090 1.363 1_545 S
C1091 C1097 1.363 . S
C1092 C1093 1.363 1_545 S
C1092 C1097 1.379 1_455 S
C1092 N1099 1.356 . S
C1093 C1092 1.363 1_565 S
C1093 C1096 1.363 . S
N1094 C1096 1.356 . S
N1094 H1106 0.984 . S
N1094 H1107 0.985 . S
N1095 C1097 1.356 . S
N1095 H1100 0.984 . S
N1095 H1101 0.985 . S
C1096 C1090 1.379 1_455 S
C1096 C1093 1.363 . S
C1096 N1094 1.356 . S
C1097 C1091 1.363 . S
C1097 C1092 1.379 1_655 S
C1097 N1095 1.356 . S
N1098 C1090 1.356 . S
N1098 H1104 0.984 . S
N1098 H1105 0.984 . S
N1099 C1092 1.356 . S
N1099 H1102 0.984 . S
N1099 H1103 0.985 . S
H1100 N1095 0.984 . S
H1101 N1095 0.985 . S
H1102 N1099 0.984 . S
H1103 N1099 0.985 . S
H1104 N1098 0.984 . S
H1105 N1098 0.984 . S
H1106 N1094 0.984 . S
H1107 N1094 0.985 . S
C1108 C1109 1.363 . S
C1108 C1114 1.379 1_455 S
C1108 N1116 1.356 . S
C1109 C1108 1.363 . S
C1109 C1115 1.363 1_545 S
C1110 C1111 1.363 . S
C1110 C1115 1.379 1_655 S
C1110 N1117 1.356 . S
C1111 C1110 1.363 . S
C1111 C1114 1.363 1_565 S
N1112 C1114 1.356 . S
N1112 H1124 0.984 . S
N1112 H1125 0.985 . S
N1113 C1115 1.356 . S
N1113 H1118 0.984 . S
N1113 H1119 0.985 . S
C1114 C1108 1.379 1_655 S
C1114 C1111 1.363 1_545 S
C1114 N1112 1.356 . S
C1115 C1109 1.363 1_565 S
C1115 C1110 1.379 1_455 S
C1115 N1113 1.356 . S
N1116 C1108 1.356 . S
N1116 H1122 0.984 . S
N1116 H1123 0.984 . S
N1117 C1110 1.356 . S
N1117 H1120 0.984 . S
N1117 H1121 0.985 . S
H1118 N1113 0.984 . S
H1119 N1113 0.985 . S
H1120 N1117 0.984 . S
H1121 N1117 0.985 . S
H1122 N1116 0.984 . S
H1123 N1116 0.984 . S
H1124 N1112 0.984 . S
H1125 N1112 0.985 . S
C1126 C1127 1.363 . S
C1126 C1132 1.379 1_655 S
C1126 N1134 1.356 . S
C1127 C1126 1.363 . S
C1127 C1133 1.363 1_545 S
C1128 C1129 1.363 . S
C1128 C1133 1.379 1_455 S
C1128 N1135 1.356 . S
C1129 C1128 1.363 . S
C1129 C1132 1.363 1_565 S
N1130 C1132 1.356 . S
N1130 H1142 0.984 . S
N1130 H1143 0.985 . S
N1131 C1133 1.356 . S
N1131 H1136 0.984 . S
N1131 H1137 0.985 . S
C1132 C1126 1.379 1_455 S
C1132 C1129 1.363 1_545 S
C1132 N1130 1.356 . S
C1133 C1127 1.363 1_565 S
C1133 C1128 1.379 1_655 S
C1133 N1131 1.356 . S
N1134 C1126 1.356 . S
N1134 H1140 0.984 . S
N1134 H1141 0.984 . S
N1135 C1128 1.356 . S
N1135 H1138 0.984 . S
N1135 H1139 0.985 . S
H1136 N1131 0.984 . S
H1137 N1131 0.985 . S
H1138 N1135 0.984 . S
H1139 N1135 0.985 . S
H1140 N1134 0.984 . S
H1141 N1134 0.984 . S
H1142 N1130 0.984 . S
H1143 N1130 0.985 . S
C1144 C1145 1.363 . S
C1144 C1150 1.379 . S
C1144 N1152 1.356 . S
C1145 C1144 1.363 . S
C1145 C1151 1.363 . S
C1146 C1147 1.363 . S
C1146 C1151 1.379 . S
C1146 N1153 1.356 . S
C1147 C1146 1.363 . S
C1147 C1150 1.363 . S
N1148 C1150 1.356 . S
N1148 H1160 0.984 . S
N1148 H1161 0.985 . S
N1149 C1151 1.356 . S
N1149 H1154 0.984 . S
N1149 H1155 0.985 . S
C1150 C1144 1.379 . S
C1150 C1147 1.363 . S
C1150 N1148 1.356 . S
C1151 C1145 1.363 . S
C1151 C1146 1.379 . S
C1151 N1149 1.356 . S
N1152 C1144 1.356 . S
N1152 H1158 0.984 . S
N1152 H1159 0.984 . S
N1153 C1146 1.356 . S
N1153 H1156 0.984 . S
N1153 H1157 0.985 . S
H1154 N1149 0.984 . S
H1155 N1149 0.985 . S
H1156 N1153 0.984 . S
H1157 N1153 0.985 . S
H1158 N1152 0.984 . S
H1159 N1152 0.984 . S
H1160 N1148 0.984 . S
H1161 N1148 0.985 . S
C1162 C1163 1.363 . S
C1162 C1168 1.379 . S
C1162 N1170 1.356 . S
C1163 C1162 1.363 . S
C1163 C1169 1.363 . S
C1164 C1165 1.363 . S
C1164 C1169 1.379 . S
C1164 N1171 1.356 . S
C1165 C1164 1.363 . S
C1165 C1168 1.363 . S
N1166 C1168 1.356 . S
N1166 H1178 0.984 . S
N1166 H1179 0.985 . S
N1167 C1169 1.356 . S
N1167 H1172 0.984 . S
N1167 H1173 0.985 . S
C1168 C1162 1.379 . S
C1168 C1165 1.363 . S
C1168 N1166 1.356 . S
C1169 C1163 1.363 . S
C1169 C1164 1.379 . S
C1169 N1167 1.356 . S
N1170 C1162 1.356 . S
N1170 H1176 0.984 . S
N1170 H1177 0.984 . S
N1171 C1164 1.356 . S
N1171 H1174 0.984 . S
N1171 H1175 0.985 . S
H1172 N1167 0.984 . S
H1173 N1167 0.985 . S
H1174 N1171 0.984 . S
H1175 N1171 0.985 . S
H1176 N1170 0.984 . S
H1177 N1170 0.984 . S
H1178 N1166 0.984 . S
H1179 N1166 0.985 . S
C1180 C1181 1.363 . S
C1180 C1186 1.379 . S
C1180 N1188 1.356 . S
C1181 C1180 1.363 . S
C1181 C1187 1.363 . S
C1182 C1183 1.363 . S
C1182 C1187 1.379 . S
C1182 N1189 1.356 . S
C1183 C1182 1.363 . S
C1183 C1186 1.363 . S
N1184 C1186 1.356 . S
N1184 H1196 0.984 . S
N1184 H1197 0.985 . S
N1185 C1187 1.356 . S
N1185 H1190 0.984 . S
N1185 H1191 0.985 . S
C1186 C1180 1.379 . S
C1186 C1183 1.363 . S
C1186 N1184 1.356 . S
C1187 C1181 1.363 . S
C1187 C1182 1.379 . S
C1187 N1185 1.356 . S
N1188 C1180 1.356 . S
N1188 H1194 0.984 . S
N1188 H1195 0.984 . S
N1189 C1182 1.356 . S
N1189 H1192 0.984 . S
N1189 H1193 0.985 . S
H1190 N1185 0.984 . S
H1191 N1185 0.985 . S
H1192 N1189 0.984 . S
H1193 N1189 0.985 . S
H1194 N1188 0.984 . S
H1195 N1188 0.984 . S
H1196 N1184 0.984 . S
H1197 N1184 0.985 . S
C1198 C1199 1.363 . S
C1198 C1204 1.379 . S
C1198 N1206 1.356 . S
C1199 C1198 1.363 . S
C1199 C1205 1.363 . S
C1200 C1201 1.363 . S
C1200 C1205 1.379 . S
C1200 N1207 1.356 . S
C1201 C1200 1.363 . S
C1201 C1204 1.363 . S
N1202 C1204 1.356 . S
N1202 H1214 0.984 . S
N1202 H1215 0.985 . S
N1203 C1205 1.356 . S
N1203 H1208 0.984 . S
N1203 H1209 0.985 . S
C1204 C1198 1.379 . S
C1204 C1201 1.363 . S
C1204 N1202 1.356 . S
C1205 C1199 1.363 . S
C1205 C1200 1.379 . S
C1205 N1203 1.356 . S
N1206 C1198 1.356 . S
N1206 H1212 0.984 . S
N1206 H1213 0.984 . S
N1207 C1200 1.356 . S
N1207 H1210 0.984 . S
N1207 H1211 0.985 . S
H1208 N1203 0.984 . S
H1209 N1203 0.985 . S
H1210 N1207 0.984 . S
H1211 N1207 0.985 . S
H1212 N1206 0.984 . S
H1213 N1206 0.984 . S
H1214 N1202 0.984 . S
H1215 N1202 0.985 . S
C1216 C1217 1.363 . S
C1216 C1222 1.379 . S
C1216 N1224 1.356 . S
C1217 C1216 1.363 . S
C1217 C1223 1.363 . S
C1218 C1219 1.363 . S
C1218 C1223 1.379 . S
C1218 N1225 1.356 . S
C1219 C1218 1.363 . S
C1219 C1222 1.363 . S
N1220 C1222 1.356 . S
N1220 H1232 0.984 . S
N1220 H1233 0.985 . S
N1221 C1223 1.356 . S
N1221 H1226 0.984 . S
N1221 H1227 0.985 . S
C1222 C1216 1.379 . S
C1222 C1219 1.363 . S
C1222 N1220 1.356 . S
C1223 C1217 1.363 . S
C1223 C1218 1.379 . S
C1223 N1221 1.356 . S
N1224 C1216 1.356 . S
N1224 H1230 0.984 . S
N1224 H1231 0.984 . S
N1225 C1218 1.356 . S
N1225 H1228 0.984 . S
N1225 H1229 0.985 . S
H1226 N1221 0.984 . S
H1227 N1221 0.985 . S
H1228 N1225 0.984 . S
H1229 N1225 0.985 . S
H1230 N1224 0.984 . S
H1231 N1224 0.984 . S
H1232 N1220 0.984 . S
H1233 N1220 0.985 . S
C1234 C1235 1.363 . S
C1234 C1240 1.379 . S
C1234 N1242 1.356 . S
C1235 C1234 1.363 . S
C1235 C1241 1.363 . S
C1236 C1237 1.363 . S
C1236 C1241 1.379 . S
C1236 N1243 1.356 . S
C1237 C1236 1.363 . S
C1237 C1240 1.363 . S
N1238 C1240 1.356 . S
N1238 H1250 0.984 . S
N1238 H1251 0.985 . S
N1239 C1241 1.356 . S
N1239 H1244 0.984 . S
N1239 H1245 0.985 . S
C1240 C1234 1.379 . S
C1240 C1237 1.363 . S
C1240 N1238 1.356 . S
C1241 C1235 1.363 . S
C1241 C1236 1.379 . S
C1241 N1239 1.356 . S
N1242 C1234 1.356 . S
N1242 H1248 0.984 . S
N1242 H1249 0.984 . S
N1243 C1236 1.356 . S
N1243 H1246 0.984 . S
N1243 H1247 0.985 . S
H1244 N1239 0.984 . S
H1245 N1239 0.985 . S
H1246 N1243 0.984 . S
H1247 N1243 0.985 . S
H1248 N1242 0.984 . S
H1249 N1242 0.984 . S
H1250 N1238 0.984 . S
H1251 N1238 0.985 . S
C1252 C1253 1.363 . S
C1252 C1258 1.379 . S
C1252 N1260 1.356 . S
C1253 C1252 1.363 . S
C1253 C1259 1.363 . S
C1254 C1255 1.363 . S
C1254 C1259 1.379 . S
C1254 N1261 1.356 . S
C1255 C1254 1.363 . S
C1255 C1258 1.363 . S
N1256 C1258 1.356 . S
N1256 H1268 0.984 . S
N1256 H1269 0.985 . S
N1257 C1259 1.356 . S
N1257 H1262 0.984 . S
N1257 H1263 0.985 . S
C1258 C1252 1.379 . S
C1258 C1255 1.363 . S
C1258 N1256 1.356 . S
C1259 C1253 1.363 . S
C1259 C1254 1.379 . S
C1259 N1257 1.356 . S
N1260 C1252 1.356 . S
N1260 H1266 0.984 . S
N1260 H1267 0.984 . S
N1261 C1254 1.356 . S
N1261 H1264 0.984 . S
N1261 H1265 0.985 . S
H1262 N1257 0.984 . S
H1263 N1257 0.985 . S
H1264 N1261 0.984 . S
H1265 N1261 0.985 . S
H1266 N1260 0.984 . S
H1267 N1260 0.984 . S
H1268 N1256 0.984 . S
H1269 N1256 0.985 . S
C1270 C1271 1.363 . S
C1270 C1276 1.379 . S
C1270 N1278 1.356 . S
C1271 C1270 1.363 . S
C1271 C1277 1.363 . S
C1272 C1273 1.363 . S
C1272 C1277 1.379 . S
C1272 N1279 1.356 . S
C1273 C1272 1.363 . S
C1273 C1276 1.363 . S
N1274 C1276 1.356 . S
N1274 H1286 0.984 . S
N1274 H1287 0.985 . S
N1275 C1277 1.356 . S
N1275 H1280 0.984 . S
N1275 H1281 0.985 . S
C1276 C1270 1.379 . S
C1276 C1273 1.363 . S
C1276 N1274 1.356 . S
C1277 C1271 1.363 . S
C1277 C1272 1.379 . S
C1277 N1275 1.356 . S
N1278 C1270 1.356 . S
N1278 H1284 0.984 . S
N1278 H1285 0.984 . S
N1279 C1272 1.356 . S
N1279 H1282 0.984 . S
N1279 H1283 0.985 . S
H1280 N1275 0.984 . S
H1281 N1275 0.985 . S
H1282 N1279 0.984 . S
H1283 N1279 0.985 . S
H1284 N1278 0.984 . S
H1285 N1278 0.984 . S
H1286 N1274 0.984 . S
H1287 N1274 0.985 . S
C1288 C1289 1.363 . S
C1288 C1294 1.379 . S
C1288 N1296 1.356 . S
C1289 C1288 1.363 . S
C1289 C1295 1.363 . S
C1290 C1291 1.363 . S
C1290 C1295 1.379 . S
C1290 N1297 1.356 . S
C1291 C1290 1.363 . S
C1291 C1294 1.363 . S
N1292 C1294 1.356 . S
N1292 H1304 0.984 . S
N1292 H1305 0.985 . S
N1293 C1295 1.356 . S
N1293 H1298 0.984 . S
N1293 H1299 0.985 . S
C1294 C1288 1.379 . S
C1294 C1291 1.363 . S
C1294 N1292 1.356 . S
C1295 C1289 1.363 . S
C1295 C1290 1.379 . S
C1295 N1293 1.356 . S
N1296 C1288 1.356 . S
N1296 H1302 0.984 . S
N1296 H1303 0.984 . S
N1297 C1290 1.356 . S
N1297 H1300 0.984 . S
N1297 H1301 0.985 . S
H1298 N1293 0.984 . S
H1299 N1293 0.985 . S
H1300 N1297 0.984 . S
H1301 N1297 0.985 . S
H1302 N1296 0.984 . S
H1303 N1296 0.984 . S
H1304 N1292 0.984 . S
H1305 N1292 0.985 . S
C1306 C1307 1.363 . S
C1306 C1312 1.379 . S
C1306 N1314 1.356 . S
C1307 C1306 1.363 . S
C1307 C1313 1.363 . S
C1308 C1309 1.363 . S
C1308 C1313 1.379 . S
C1308 N1315 1.356 . S
C1309 C1308 1.363 . S
C1309 C1312 1.363 . S
N1310 C1312 1.356 . S
N1310 H1322 0.984 . S
N1310 H1323 0.985 . S
N1311 C1313 1.356 . S
N1311 H1316 0.984 . S
N1311 H1317 0.985 . S
C1312 C1306 1.379 . S
C1312 C1309 1.363 . S
C1312 N1310 1.356 . S
C1313 C1307 1.363 . S
C1313 C1308 1.379 . S
C1313 N1311 1.356 . S
N1314 C1306 1.356 . S
N1314 H1320 0.984 . S
N1314 H1321 0.984 . S
N1315 C1308 1.356 . S
N1315 H1318 0.984 . S
N1315 H1319 0.985 . S
H1316 N1311 0.984 . S
H1317 N1311 0.985 . S
H1318 N1315 0.984 . S
H1319 N1315 0.985 . S
H1320 N1314 0.984 . S
H1321 N1314 0.984 . S
H1322 N1310 0.984 . S
H1323 N1310 0.985 . S
C1324 C1325 1.363 . S
C1324 C1330 1.379 . S
C1324 N1332 1.356 . S
C1325 C1324 1.363 . S
C1325 C1331 1.363 . S
C1326 C1327 1.363 . S
C1326 C1331 1.379 . S
C1326 N1333 1.356 . S
C1327 C1326 1.363 . S
C1327 C1330 1.363 . S
N1328 C1330 1.356 . S
N1328 H1340 0.984 . S
N1328 H1341 0.985 . S
N1329 C1331 1.356 . S
N1329 H1334 0.984 . S
N1329 H1335 0.985 . S
C1330 C1324 1.379 . S
C1330 C1327 1.363 . S
C1330 N1328 1.356 . S
C1331 C1325 1.363 . S
C1331 C1326 1.379 . S
C1331 N1329 1.356 . S
N1332 C1324 1.356 . S
N1332 H1338 0.984 . S
N1332 H1339 0.984 . S
N1333 C1326 1.356 . S
N1333 H1336 0.984 . S
N1333 H1337 0.985 . S
H1334 N1329 0.984 . S
H1335 N1329 0.985 . S
H1336 N1333 0.984 . S
H1337 N1333 0.985 . S
H1338 N1332 0.984 . S
H1339 N1332 0.984 . S
H1340 N1328 0.984 . S
H1341 N1328 0.985 . S
C1342 C1343 1.363 . S
C1342 C1348 1.379 . S
C1342 N1350 1.356 . S
C1343 C1342 1.363 . S
C1343 C1349 1.363 . S
C1344 C1345 1.363 . S
C1344 C1349 1.379 . S
C1344 N1351 1.356 . S
C1345 C1344 1.363 . S
C1345 C1348 1.363 . S
N1346 C1348 1.356 . S
N1346 H1358 0.984 . S
N1346 H1359 0.985 . S
N1347 C1349 1.356 . S
N1347 H1352 0.984 . S
N1347 H1353 0.985 . S
C1348 C1342 1.379 . S
C1348 C1345 1.363 . S
C1348 N1346 1.356 . S
C1349 C1343 1.363 . S
C1349 C1344 1.379 . S
C1349 N1347 1.356 . S
N1350 C1342 1.356 . S
N1350 H1356 0.984 . S
N1350 H1357 0.984 . S
N1351 C1344 1.356 . S
N1351 H1354 0.984 . S
N1351 H1355 0.985 . S
H1352 N1347 0.984 . S
H1353 N1347 0.985 . S
H1354 N1351 0.984 . S
H1355 N1351 0.985 . S
H1356 N1350 0.984 . S
H1357 N1350 0.984 . S
H1358 N1346 0.984 . S
H1359 N1346 0.985 . S
C1360 C1361 1.363 . S
C1360 C1366 1.379 . S
C1360 N1368 1.356 . S
C1361 C1360 1.363 . S
C1361 C1367 1.363 . S
C1362 C1363 1.363 . S
C1362 C1367 1.379 . S
C1362 N1369 1.356 . S
C1363 C1362 1.363 . S
C1363 C1366 1.363 . S
N1364 C1366 1.356 . S
N1364 H1376 0.984 . S
N1364 H1377 0.985 . S
N1365 C1367 1.356 . S
N1365 H1370 0.984 1_545 S
N1365 H1371 0.985 . S
C1366 C1360 1.379 . S
C1366 C1363 1.363 . S
C1366 N1364 1.356 . S
C1367 C1361 1.363 . S
C1367 C1362 1.379 . S
C1367 N1365 1.356 . S
N1368 C1360 1.356 . S
N1368 H1374 0.984 . S
N1368 H1375 0.984 1_545 S
N1369 C1362 1.356 . S
N1369 H1372 0.984 . S
N1369 H1373 0.985 . S
H1370 N1365 0.984 1_565 S
H1371 N1365 0.985 . S
H1372 N1369 0.984 . S
H1373 N1369 0.985 . S
H1374 N1368 0.984 . S
H1375 N1368 0.984 1_565 S
H1376 N1364 0.984 . S
H1377 N1364 0.985 . S
C1378 C1379 1.363 . S
C1378 C1384 1.379 . S
C1378 N1386 1.356 . S
C1379 C1378 1.363 . S
C1379 C1385 1.363 . S
C1380 C1381 1.363 . S
C1380 C1385 1.379 . S
C1380 N1387 1.356 1_565 S
C1381 C1380 1.363 . S
C1381 C1384 1.363 . S
N1382 C1384 1.356 . S
N1382 H1394 0.984 . S
N1382 H1395 0.985 . S
N1383 C1385 1.356 . S
N1383 H1388 0.984 . S
N1383 H1389 0.985 . S
C1384 C1378 1.379 . S
C1384 C1381 1.363 . S
C1384 N1382 1.356 . S
C1385 C1379 1.363 . S
C1385 C1380 1.379 . S
C1385 N1383 1.356 . S
N1386 C1378 1.356 . S
N1386 H1392 0.984 . S
N1386 H1393 0.984 . S
N1387 C1380 1.356 1_545 S
N1387 H1390 0.984 . S
N1387 H1391 0.985 . S
H1388 N1383 0.984 . S
H1389 N1383 0.985 . S
H1390 N1387 0.984 . S
H1391 N1387 0.985 . S
H1392 N1386 0.984 . S
H1393 N1386 0.984 . S
H1394 N1382 0.984 . S
H1395 N1382 0.985 . S
C1396 C1397 1.363 . S
C1396 C1402 1.379 . S
C1396 N1404 1.356 . S
C1397 C1396 1.363 . S
C1397 C1403 1.363 . S
C1398 C1399 1.363 . S
C1398 C1403 1.379 . S
C1398 N1405 1.356 . S
C1399 C1398 1.363 . S
C1399 C1402 1.363 . S
N1400 C1402 1.356 . S
N1400 H1412 0.984 . S
N1400 H1413 0.985 . S
N1401 C1403 1.356 . S
N1401 H1406 0.984 1_565 S
N1401 H1407 0.985 . S
C1402 C1396 1.379 . S
C1402 C1399 1.363 . S
C1402 N1400 1.356 . S
C1403 C1397 1.363 . S
C1403 C1398 1.379 . S
C1403 N1401 1.356 . S
N1404 C1396 1.356 . S
N1404 H1410 0.984 . S
N1404 H1411 0.984 1_565 S
N1405 C1398 1.356 . S
N1405 H1408 0.984 . S
N1405 H1409 0.985 . S
H1406 N1401 0.984 1_545 S
H1407 N1401 0.985 . S
H1408 N1405 0.984 . S
H1409 N1405 0.985 . S
H1410 N1404 0.984 . S
H1411 N1404 0.984 1_545 S
H1412 N1400 0.984 . S
H1413 N1400 0.985 . S
C1414 C1415 1.363 . S
C1414 C1420 1.379 . S
C1414 N1422 1.356 . S
C1415 C1414 1.363 . S
C1415 C1421 1.363 . S
C1416 C1417 1.363 . S
C1416 C1421 1.379 . S
C1416 N1423 1.356 . S
C1417 C1416 1.363 . S
C1417 C1420 1.363 . S
N1418 C1420 1.356 . S
N1418 H1430 0.984 . S
N1418 H1431 0.985 . S
N1419 C1421 1.356 . S
N1419 H1424 0.984 1_545 S
N1419 H1425 0.985 . S
C1420 C1414 1.379 . S
C1420 C1417 1.363 . S
C1420 N1418 1.356 . S
C1421 C1415 1.363 . S
C1421 C1416 1.379 . S
C1421 N1419 1.356 . S
N1422 C1414 1.356 . S
N1422 H1428 0.984 . S
N1422 H1429 0.984 1_545 S
N1423 C1416 1.356 . S
N1423 H1426 0.984 . S
N1423 H1427 0.985 . S
H1424 N1419 0.984 1_565 S
H1425 N1419 0.985 . S
H1426 N1423 0.984 . S
H1427 N1423 0.985 . S
H1428 N1422 0.984 . S
H1429 N1422 0.984 1_565 S
H1430 N1418 0.984 . S
H1431 N1418 0.985 . S
C1432 C1433 1.363 . S
C1432 C1438 1.379 . S
C1432 N1440 1.356 . S
C1433 C1432 1.363 . S
C1433 C1439 1.363 . S
C1434 C1435 1.363 . S
C1434 C1439 1.379 . S
C1434 N1441 1.356 . S
C1435 C1434 1.363 . S
C1435 C1438 1.363 . S
N1436 C1438 1.356 . S
N1436 H1448 0.984 . S
N1436 H1449 0.985 1_565 S
N1437 C1439 1.356 . S
N1437 H1442 0.984 . S
N1437 H1443 0.985 . S
C1438 C1432 1.379 . S
C1438 C1435 1.363 . S
C1438 N1436 1.356 . S
C1439 C1433 1.363 . S
C1439 C1434 1.379 . S
C1439 N1437 1.356 . S
N1440 C1432 1.356 . S
N1440 H1446 0.984 . S
N1440 H1447 0.984 . S
N1441 C1434 1.356 . S
N1441 H1444 0.984 1_565 S
N1441 H1445 0.985 . S
H1442 N1437 0.984 . S
H1443 N1437 0.985 . S
H1444 N1441 0.984 1_545 S
H1445 N1441 0.985 . S
H1446 N1440 0.984 . S
H1447 N1440 0.984 . S
H1448 N1436 0.984 . S
H1449 N1436 0.985 1_545 S
C1450 C1451 1.363 . S
C1450 C1456 1.379 . S
C1450 N1458 1.356 . S
C1451 C1450 1.363 . S
C1451 C1457 1.363 . S
C1452 C1453 1.363 . S
C1452 C1457 1.379 . S
C1452 N1459 1.356 . S
C1453 C1452 1.363 . S
C1453 C1456 1.363 . S
N1454 C1456 1.356 . S
N1454 H1466 0.984 . S
N1454 H1467 0.985 1_545 S
N1455 C1457 1.356 . S
N1455 H1460 0.984 . S
N1455 H1461 0.985 . S
C1456 C1450 1.379 . S
C1456 C1453 1.363 . S
C1456 N1454 1.356 . S
C1457 C1451 1.363 . S
C1457 C1452 1.379 . S
C1457 N1455 1.356 . S
N1458 C1450 1.356 . S
N1458 H1464 0.984 . S
N1458 H1465 0.984 . S
N1459 C1452 1.356 . S
N1459 H1462 0.984 1_545 S
N1459 H1463 0.985 . S
H1460 N1455 0.984 . S
H1461 N1455 0.985 . S
H1462 N1459 0.984 1_565 S
H1463 N1459 0.985 . S
H1464 N1458 0.984 . S
H1465 N1458 0.984 . S
H1466 N1454 0.984 . S
H1467 N1454 0.985 1_565 S
C1468 C1469 1.363 . S
C1468 C1474 1.379 . S
C1468 N1476 1.356 1_545 S
C1469 C1468 1.363 . S
C1469 C1475 1.363 . S
C1470 C1471 1.363 . S
C1470 C1475 1.379 . S
C1470 N1477 1.356 . S
C1471 C1470 1.363 . S
C1471 C1474 1.363 . S
N1472 C1474 1.356 . S
N1472 H1484 0.984 . S
N1472 H1485 0.985 . S
N1473 C1475 1.356 . S
N1473 H1478 0.984 . S
N1473 H1479 0.985 . S
C1474 C1468 1.379 . S
C1474 C1471 1.363 . S
C1474 N1472 1.356 . S
C1475 C1469 1.363 . S
C1475 C1470 1.379 . S
C1475 N1473 1.356 . S
N1476 C1468 1.356 1_565 S
N1476 H1482 0.984 . S
N1476 H1483 0.984 . S
N1477 C1470 1.356 . S
N1477 H1480 0.984 . S
N1477 H1481 0.985 . S
H1478 N1473 0.984 . S
H1479 N1473 0.985 . S
H1480 N1477 0.984 . S
H1481 N1477 0.985 . S
H1482 N1476 0.984 . S
H1483 N1476 0.984 . S
H1484 N1472 0.984 . S
H1485 N1472 0.985 . S
C1486 C1487 1.363 . S
C1486 C1492 1.379 . S
C1486 N1494 1.356 . S
C1487 C1486 1.363 . S
C1487 C1493 1.363 . S
C1488 C1489 1.363 . S
C1488 C1493 1.379 . S
C1488 N1495 1.356 . S
C1489 C1488 1.363 . S
C1489 C1492 1.363 . S
N1490 C1492 1.356 . S
N1490 H1502 0.984 . S
N1490 H1503 0.985 1_565 S
N1491 C1493 1.356 . S
N1491 H1496 0.984 . S
N1491 H1497 0.985 . S
C1492 C1486 1.379 . S
C1492 C1489 1.363 . S
C1492 N1490 1.356 . S
C1493 C1487 1.363 . S
C1493 C1488 1.379 . S
C1493 N1491 1.356 . S
N1494 C1486 1.356 . S
N1494 H1500 0.984 . S
N1494 H1501 0.984 . S
N1495 C1488 1.356 . S
N1495 H1498 0.984 1_565 S
N1495 H1499 0.985 . S
H1496 N1491 0.984 . S
H1497 N1491 0.985 . S
H1498 N1495 0.984 1_545 S
H1499 N1495 0.985 . S
H1500 N1494 0.984 . S
H1501 N1494 0.984 . S
H1502 N1490 0.984 . S
H1503 N1490 0.985 1_545 S
C641 C11 1.591 . S
C643 C371 1.591 . S
C659 C51 1.591 . S
C661 C331 1.591 . S
C677 C451 1.591 . S
C679 C91 1.591 . S
C695 C131 1.591 . S
C697 C411 1.591 . S
C713 C522 1.591 . S
C715 C162 1.591 . S
C731 C482 1.591 . S
C733 C202 1.591 . S
C749 C602 1.591 . S
C751 C242 1.591 . S
C767 C282 1.591 . S
C769 C562 1.591 . S
C785 C99 1.775 . S
C787 C19 1.775 . S
C803 C139 1.775 . S
C805 C59 1.775 . S
C821 C250 1.775 . S
C823 C170 1.775 . S
C839 C210 1.775 . S
C841 C290 1.775 . S
C857 C419 1.775 . S
C859 C339 1.775 . S
C875 C459 1.775 . S
C877 C379 1.775 . S
C893 C490 1.775 . S
C895 C570 1.775 . S
C911 C530 1.775 . S
C913 C610 1.775 . S
C929 C219 1.533 . S
C931 C10 1.533 . S
C947 C179 1.533 . S
C949 C50 1.533 . S
C965 C90 1.533 . S
C967 C299 1.533 . S
C983 C259 1.533 . S
C985 C130 1.533 . S
C1001 C330 1.533 . S
C1003 C539 1.533 . S
C1019 C499 1.533 . S
C1021 C370 1.533 . S
C1037 C410 1.533 . S
C1039 C619 1.533 . S
C1055 C579 1.533 . S
C1057 C450 1.533 . S
C1073 C42 1.632 . S
C1075 C2 1.632 . S
C1091 C122 1.632 . S
C1093 C82 1.632 . S
C1109 C211 1.632 . S
C1111 C171 1.632 . S
C1127 C251 1.632 . S
C1129 C291 1.632 . S
C1145 C362 1.632 . S
C1147 C322 1.632 . S
C1163 C442 1.632 . S
C1165 C402 1.632 . S
C1181 C491 1.632 . S
C1183 C531 1.632 . S
C1199 C571 1.632 . S
C1201 C611 1.632 . S
C1217 C7 1.516 . S
C1219 C16 1.516 . S
C1235 C47 1.516 . S
C1237 C56 1.516 . S
C1253 C87 1.516 . S
C1255 C96 1.516 . S
C1271 C136 1.516 . S
C1273 C127 1.516 . S
C1289 C176 1.516 . S
C1291 C167 1.516 . S
C1307 C207 1.516 . S
C1309 C216 1.516 . S
C1325 C256 1.516 . S
C1327 C247 1.516 . S
C1343 C296 1.516 . S
C1345 C287 1.516 . S
C1361 C336 1.516 1_545 S
C1363 C327 1.516 . S
C1379 C367 1.516 . S
C1381 C376 1.516 1_565 S
C1397 C416 1.516 1_565 S
C1399 C407 1.516 . S
C1415 C456 1.516 1_545 S
C1417 C447 1.516 . S
C1433 C496 1.516 . S
C1435 C487 1.516 1_565 S
C1451 C536 1.516 . S
C1453 C527 1.516 1_545 S
C1469 C567 1.516 1_545 S
C1471 C576 1.516 . S
C1487 C616 1.516 . S
C1489 C607 1.516 1_565 S
