# Generated by pormake.
# Topology fny, (5)-cn, num edge types: 1
# Building blocks:
#     Node 0, Type 0, BuildingBlock: BEQFEK_clean_sbu_0, # of connection points: 5
#     Node 1, Type 0, BuildingBlock: BEQFEK_clean_sbu_0, # of connection points: 5
#     Node 2, Type 0, BuildingBlock: BEQFEK_clean_sbu_0, # of connection points: 5
#     Node 3, Type 0, BuildingBlock: BEQFEK_clean_sbu_0, # of connection points: 5
#     Node 4, Type 0, BuildingBlock: BEQFEK_clean_sbu_0, # of connection points: 5
#     Node 5, Type 0, BuildingBlock: BEQFEK_clean_sbu_0, # of connection points: 5
#     Node 6, Type 0, BuildingBlock: BEQFEK_clean_sbu_0, # of connection points: 5
#     Node 7, Type 0, BuildingBlock: BEQFEK_clean_sbu_0, # of connection points: 5
#     Node 8, Type 0, BuildingBlock: BEQFEK_clean_sbu_0, # of connection points: 5
#     Node 9, Type 0, BuildingBlock: BEQFEK_clean_sbu_0, # of connection points: 5
#     Node 10, Type 0, BuildingBlock: BEQFEK_clean_sbu_0, # of connection points: 5
#     Node 11, Type 0, BuildingBlock: BEQFEK_clean_sbu_0, # of connection points: 5
#     Edge 12, Type (0, 0), BuildingBlock: ZUJKAS_clean_linker_0, # of connection points: 2
#     Edge 13, Type (0, 0), BuildingBlock: ZUJKAS_clean_linker_0, # of connection points: 2
#     Edge 14, Type (0, 0), BuildingBlock: ZUJKAS_clean_linker_0, # of connection points: 2
#     Edge 15, Type (0, 0), BuildingBlock: ZUJKAS_clean_linker_0, # of connection points: 2
#     Edge 16, Type (0, 0), BuildingBlock: ZUJKAS_clean_linker_0, # of connection points: 2
#     Edge 17, Type (0, 0), BuildingBlock: ZUJKAS_clean_linker_0, # of connection points: 2
#     Edge 18, Type (0, 0), BuildingBlock: ZUJKAS_clean_linker_0, # of connection points: 2
#     Edge 19, Type (0, 0), BuildingBlock: ZUJKAS_clean_linker_0, # of connection points: 2
#     Edge 20, Type (0, 0), BuildingBlock: ZUJKAS_clean_linker_0, # of connection points: 2
#     Edge 21, Type (0, 0), BuildingBlock: ZUJKAS_clean_linker_0, # of connection points: 2
#     Edge 22, Type (0, 0), BuildingBlock: ZUJKAS_clean_linker_0, # of connection points: 2
#     Edge 23, Type (0, 0), BuildingBlock: ZUJKAS_clean_linker_0, # of connection points: 2
#     Edge 24, Type (0, 0), BuildingBlock: ZUJKAS_clean_linker_0, # of connection points: 2
#     Edge 25, Type (0, 0), BuildingBlock: ZUJKAS_clean_linker_0, # of connection points: 2
#     Edge 26, Type (0, 0), BuildingBlock: ZUJKAS_clean_linker_0, # of connection points: 2
#     Edge 27, Type (0, 0), BuildingBlock: ZUJKAS_clean_linker_0, # of connection points: 2
#     Edge 28, Type (0, 0), BuildingBlock: ZUJKAS_clean_linker_0, # of connection points: 2
#     Edge 29, Type (0, 0), BuildingBlock: ZUJKAS_clean_linker_0, # of connection points: 2
#     Edge 30, Type (0, 0), BuildingBlock: ZUJKAS_clean_linker_0, # of connection points: 2
#     Edge 31, Type (0, 0), BuildingBlock: ZUJKAS_clean_linker_0, # of connection points: 2
#     Edge 32, Type (0, 0), BuildingBlock: ZUJKAS_clean_linker_0, # of connection points: 2
#     Edge 33, Type (0, 0), BuildingBlock: ZUJKAS_clean_linker_0, # of connection points: 2
#     Edge 34, Type (0, 0), BuildingBlock: ZUJKAS_clean_linker_0, # of connection points: 2
#     Edge 35, Type (0, 0), BuildingBlock: ZUJKAS_clean_linker_0, # of connection points: 2
#     Edge 36, Type (0, 0), BuildingBlock: ZUJKAS_clean_linker_0, # of connection points: 2
#     Edge 37, Type (0, 0), BuildingBlock: ZUJKAS_clean_linker_0, # of connection points: 2
#     Edge 38, Type (0, 0), BuildingBlock: ZUJKAS_clean_linker_0, # of connection points: 2
#     Edge 39, Type (0, 0), BuildingBlock: ZUJKAS_clean_linker_0, # of connection points: 2
#     Edge 40, Type (0, 0), BuildingBlock: ZUJKAS_clean_linker_0, # of connection points: 2
#     Edge 41, Type (0, 0), BuildingBlock: ZUJKAS_clean_linker_0, # of connection points: 2
# Relax obj value: 0.213
# Max RMSD: 0.110
# Mean RMSD: 0.110
data_MOF--net-fny--node1-BEQFEK_clean_sbu_0--edge1-ZUJKAS_clean_linker_0
_symmetry_space_group_name_H-M    P1
_symmetry_Int_Tables_number       1
_symmetry_cell_setting            triclinic
loop_
_symmetry_equiv_pos_as_xyz
'x, y, z'
_cell_length_a     79.723734
_cell_length_b     79.676832
_cell_length_c     29.843388
_cell_angle_alpha  89.98146
_cell_angle_beta   90.100066
_cell_angle_gamma 120.00561
loop_
_atom_site_label
_atom_site_type_symbol
_atom_site_fract_x
_atom_site_fract_y
_atom_site_fract_z
_atom_type_partial_charge
Co0 Co 0.38848 0.52089 0.29269 0.0
Co1 Co 0.35451 0.49147 0.23583 0.0
C2 C 0.38548 0.52908 0.1954 0.0
O3 O 0.39375 0.53402 0.23353 0.0
O4 O 0.36981 0.51286 0.19044 0.0
C5 C 0.42533 0.5404 0.32173 0.0
O6 O 0.42725 0.53536 0.28097 0.0
C7 C 0.32072 0.47268 0.1767 0.0
C8 C 0.30717 0.44231 0.20014 0.0
C9 C 0.30528 0.45414 0.16902 0.0
N10 N 0.33129 0.47171 0.21048 0.0
N11 N 0.32317 0.45356 0.22434 0.0
C12 C 0.32473 0.49131 0.15522 0.0
H13 H 0.33265 0.50355 0.17887 0.0
H14 H 0.31106 0.49066 0.14467 0.0
H15 H 0.33398 0.49399 0.1253 0.0
C16 C 0.35627 0.51773 0.35148 0.0
N17 N 0.36316 0.51327 0.3147 0.0
N18 N 0.34853 0.5008 0.29005 0.0
C19 C 0.3318 0.49705 0.31027 0.0
C20 C 0.33603 0.5076 0.35022 0.0
C21 C 0.36892 0.53075 0.38809 0.0
H22 H 0.38158 0.52872 0.39308 0.0
H23 H 0.37438 0.54605 0.37818 0.0
H24 H 0.36084 0.52787 0.42004 0.0
O25 O 0.39314 0.49867 0.28919 0.0
O26 O 0.36894 0.47744 0.24789 0.0
H27 H 0.30839 0.46898 0.29336 0.0
H28 H 0.3009 0.48635 0.30728 0.0
C29 C 0.31216 0.48436 0.29041 0.0
H30 H 0.31236 0.48777 0.25436 0.0
H31 H 0.32856 0.44887 0.25039 0.0
O32 O 0.40891 0.53779 0.33387 0.0
C33 C 0.38437 0.48233 0.26981 0.0
Co34 Co 0.88223 0.3775 0.78925 0.0
Co35 Co 0.87744 0.34399 0.73009 0.0
C36 C 0.87043 0.37527 0.69268 0.0
O37 O 0.87417 0.38338 0.73103 0.0
O38 O 0.87085 0.35958 0.68668 0.0
C39 C 0.89966 0.41405 0.82128 0.0
O40 O 0.90709 0.4166 0.7809 0.0
C41 C 0.85979 0.30966 0.67256 0.0
C42 C 0.87834 0.29694 0.68702 0.0
C43 C 0.8626 0.29429 0.66184 0.0
N44 N 0.87335 0.3209 0.70247 0.0
N45 N 0.88442 0.31328 0.71091 0.0
C46 C 0.84385 0.31309 0.65742 0.0
H47 H 0.84091 0.32126 0.68339 0.0
H48 H 0.83045 0.29916 0.65031 0.0
H49 H 0.84843 0.32192 0.62636 0.0
C50 C 0.85359 0.34507 0.84728 0.0
N51 N 0.86467 0.35208 0.81021 0.0
N52 N 0.86254 0.33756 0.78521 0.0
C53 C 0.84994 0.32074 0.80579 0.0
C54 C 0.84376 0.32485 0.84608 0.0
C55 C 0.85216 0.35762 0.88256 0.0
H56 H 0.85265 0.37048 0.86687 0.0
H57 H 0.83861 0.34955 0.90224 0.0
H58 H 0.86475 0.3628 0.90554 0.0
O59 O 0.90895 0.38195 0.78495 0.0
O60 O 0.90609 0.35857 0.74068 0.0
H61 H 0.85831 0.30092 0.78038 0.0
H62 H 0.83648 0.28955 0.81324 0.0
C63 C 0.84486 0.30113 0.78849 0.0
H64 H 0.83628 0.29814 0.75722 0.0
H65 H 0.89606 0.31918 0.73327 0.0
O66 O 0.88589 0.39739 0.83218 0.0
C67 C 0.91655 0.37362 0.76395 0.0
Co68 Co 0.51192 0.87228 0.28626 0.0
Co69 Co 0.54165 0.86816 0.23001 0.0
C70 C 0.50334 0.86054 0.19017 0.0
O71 O 0.4982 0.86364 0.2282 0.0
O72 O 0.51983 0.86169 0.18531 0.0
C73 C 0.49233 0.8896 0.31466 0.0
O74 O 0.49682 0.89597 0.27333 0.0
C75 C 0.5575 0.84861 0.17774 0.0
C76 C 0.58902 0.8676 0.18839 0.0
C77 C 0.5754 0.85064 0.16772 0.0
N78 N 0.56044 0.8637 0.20311 0.0
N79 N 0.57928 0.8751 0.2091 0.0
C80 C 0.53784 0.83188 0.16726 0.0
H81 H 0.52714 0.83096 0.19232 0.0
H82 H 0.5381 0.81808 0.16674 0.0
H83 H 0.53322 0.83414 0.13377 0.0
C84 C 0.51519 0.84349 0.34549 0.0
N85 N 0.5199 0.85497 0.30888 0.0
N86 N 0.53279 0.85319 0.28513 0.0
C87 C 0.53678 0.84051 0.30627 0.0
C88 C 0.52571 0.83378 0.34535 0.0
C89 C 0.50032 0.84137 0.37899 0.0
H90 H 0.48859 0.84262 0.36211 0.0
H91 H 0.49409 0.82725 0.39667 0.0
H92 H 0.50725 0.85322 0.40401 0.0
O93 O 0.53386 0.89923 0.28018 0.0
O94 O 0.55576 0.89677 0.24047 0.0
H95 H 0.56491 0.84912 0.27975 0.0
H96 H 0.5559 0.82895 0.3179 0.0
C97 C 0.55178 0.83575 0.29085 0.0
H98 H 0.54599 0.82561 0.26207 0.0
H99 H 0.58546 0.88776 0.22824 0.0
O100 O 0.49552 0.87627 0.3279 0.0
C101 C 0.55026 0.90712 0.26111 0.0
Co102 Co 0.65018 0.50399 0.79329 0.0
Co103 Co 0.6838 0.53282 0.73446 0.0
C104 C 0.65197 0.49455 0.69684 0.0
O105 O 0.64402 0.49001 0.73531 0.0
O106 O 0.66762 0.51071 0.69088 0.0
C107 C 0.6141 0.48614 0.82811 0.0
O108 O 0.61102 0.49087 0.788 0.0
C109 C 0.71958 0.55092 0.68022 0.0
C110 C 0.72992 0.5819 0.69373 0.0
C111 C 0.73446 0.56959 0.67096 0.0
N112 N 0.70698 0.55223 0.70772 0.0
N113 N 0.71326 0.57077 0.71563 0.0
C114 C 0.71678 0.53221 0.66176 0.0
H115 H 0.70135 0.52077 0.66331 0.0
H116 H 0.72523 0.52737 0.68212 0.0
H117 H 0.72193 0.53412 0.6266 0.0
C118 C 0.6826 0.50702 0.85049 0.0
N119 N 0.67564 0.51158 0.81397 0.0
N120 N 0.69019 0.52406 0.78924 0.0
C121 C 0.70697 0.52794 0.80963 0.0
C122 C 0.70281 0.51722 0.84928 0.0
C123 C 0.67 0.49262 0.88502 0.0
H124 H 0.66494 0.49981 0.9089 0.0
H125 H 0.65708 0.48052 0.86876 0.0
H126 H 0.67798 0.48677 0.90381 0.0
O127 O 0.64571 0.52633 0.78852 0.0
O128 O 0.66959 0.54712 0.74603 0.0
H129 H 0.72667 0.556 0.78308 0.0
H130 H 0.73795 0.54629 0.81888 0.0
C131 C 0.72664 0.54259 0.79299 0.0
H132 H 0.73019 0.53673 0.76308 0.0
H133 H 0.70618 0.57586 0.73617 0.0
O134 O 0.6306 0.48816 0.83709 0.0
C135 C 0.65435 0.54247 0.76835 0.0
Co136 Co 0.15689 0.64304 0.29825 0.0
Co137 Co 0.16097 0.67617 0.23896 0.0
C138 C 0.16756 0.6444 0.20161 0.0
O139 O 0.16442 0.63658 0.24019 0.0
O140 O 0.16687 0.65995 0.19565 0.0
C141 C 0.13923 0.60679 0.33109 0.0
O142 O 0.13199 0.60417 0.29042 0.0
C143 C 0.1799 0.7117 0.18555 0.0
C144 C 0.15806 0.7211 0.1883 0.0
C145 C 0.17608 0.72603 0.17134 0.0
N146 N 0.16488 0.69898 0.21031 0.0
N147 N 0.15191 0.7047 0.212 0.0
C148 C 0.19685 0.70935 0.17358 0.0
H149 H 0.19379 0.69446 0.1809 0.0
H150 H 0.20963 0.71956 0.19367 0.0
H151 H 0.20051 0.71274 0.13761 0.0
C152 C 0.18672 0.67589 0.35415 0.0
N153 N 0.17488 0.66864 0.31819 0.0
N154 N 0.17629 0.68301 0.29371 0.0
C155 C 0.18888 0.69995 0.31402 0.0
C156 C 0.19617 0.69613 0.35304 0.0
C157 C 0.18938 0.66355 0.38796 0.0
H158 H 0.1875 0.65017 0.37186 0.0
H159 H 0.20392 0.67153 0.40376 0.0
H160 H 0.17821 0.65928 0.41442 0.0
O161 O 0.13 0.63858 0.29452 0.0
O162 O 0.13259 0.66193 0.25061 0.0
H163 H 0.19811 0.73011 0.32624 0.0
H164 H 0.2037 0.72468 0.27153 0.0
C165 C 0.19269 0.71941 0.29848 0.0
H166 H 0.17922 0.71831 0.28502 0.0
H167 H 0.13878 0.69734 0.22908 0.0
O168 O 0.15323 0.62336 0.34181 0.0
C169 C 0.12226 0.64692 0.27393 0.0
Co170 Co 0.5291 0.15683 0.78629 0.0
Co171 Co 0.49753 0.15658 0.72681 0.0
C172 C 0.53415 0.16381 0.68511 0.0
O173 O 0.53916 0.16129 0.72384 0.0
O174 O 0.51804 0.16328 0.6796 0.0
C175 C 0.56587 0.1822 0.81212 0.0
O176 O 0.56243 0.1921 0.78187 0.0
C177 C 0.47549 0.16643 0.66519 0.0
C178 C 0.44542 0.1478 0.68881 0.0
C179 C 0.45643 0.1614 0.6566 0.0
N180 N 0.47569 0.1561 0.7004 0.0
N181 N 0.4577 0.14494 0.71436 0.0
C182 C 0.49346 0.18202 0.64334 0.0
H183 H 0.50577 0.18792 0.66729 0.0
H184 H 0.49128 0.19397 0.63124 0.0
H185 H 0.49717 0.17577 0.61436 0.0
C186 C 0.522 0.18447 0.84004 0.0
N187 N 0.51883 0.17302 0.80388 0.0
N188 N 0.50616 0.17397 0.77746 0.0
C189 C 0.50118 0.18649 0.79557 0.0
C190 C 0.51113 0.19372 0.83611 0.0
C191 C 0.53379 0.18508 0.87979 0.0
H192 H 0.5339 0.17127 0.88286 0.0
H193 H 0.54889 0.19711 0.8756 0.0
H194 H 0.5279 0.18765 0.91108 0.0
O195 O 0.50957 0.12877 0.79285 0.0
O196 O 0.48811 0.12918 0.74608 0.0
H197 H 0.47242 0.17992 0.77955 0.0
H198 H 0.48929 0.20549 0.7874 0.0
C199 C 0.48751 0.19174 0.77381 0.0
H200 H 0.49009 0.19331 0.73721 0.0
H201 H 0.45384 0.13547 0.74151 0.0
O202 O 0.55271 0.16496 0.8212 0.0
C203 C 0.49355 0.11993 0.77156 0.0
Co204 Co 0.5118 0.64295 0.72505 0.0
Co205 Co 0.54014 0.67662 0.78447 0.0
C206 C 0.50221 0.6446 0.82175 0.0
O207 O 0.49772 0.63665 0.78321 0.0
O208 O 0.51825 0.66035 0.82777 0.0
C209 C 0.49391 0.60661 0.69151 0.0
O210 O 0.49868 0.60387 0.7319 0.0
C211 C 0.55962 0.70689 0.85248 0.0
C212 C 0.5879 0.72565 0.81984 0.0
C213 C 0.57761 0.72321 0.85888 0.0
N214 N 0.55937 0.69977 0.81164 0.0
N215 N 0.57631 0.71099 0.79235 0.0
C216 C 0.54262 0.69865 0.88352 0.0
H217 H 0.52908 0.69364 0.86405 0.0
H218 H 0.54391 0.70951 0.90861 0.0
H219 H 0.54174 0.68599 0.90125 0.0
C220 C 0.51526 0.67555 0.66709 0.0
N221 N 0.51938 0.66847 0.70411 0.0
N222 N 0.53106 0.68295 0.73017 0.0
C223 C 0.53437 0.69975 0.71096 0.0
C224 C 0.52461 0.69577 0.66987 0.0
C225 C 0.50345 0.66315 0.62875 0.0
H226 H 0.50593 0.65073 0.62447 0.0
H227 H 0.48787 0.65733 0.63613 0.0
H228 H 0.50712 0.67154 0.59708 0.0
O229 O 0.53418 0.6387 0.73012 0.0
O230 O 0.55482 0.66275 0.77267 0.0
H231 H 0.56123 0.72531 0.7256 0.0
H232 H 0.54097 0.72933 0.72034 0.0
C233 C 0.5456 0.71917 0.73295 0.0
H234 H 0.54353 0.71771 0.76976 0.0
H235 H 0.58001 0.70851 0.76051 0.0
O236 O 0.4959 0.62305 0.68175 0.0
C237 C 0.5503 0.64748 0.75039 0.0
Co238 Co 0.87973 0.50338 0.22838 0.0
Co239 Co 0.8736 0.53083 0.28919 0.0
C240 C 0.8681 0.49308 0.32525 0.0
O241 O 0.87225 0.48926 0.28673 0.0
O242 O 0.86764 0.50871 0.33181 0.0
C243 C 0.89846 0.48599 0.19384 0.0
O244 O 0.90642 0.49115 0.23375 0.0
C245 C 0.85815 0.54924 0.34952 0.0
C246 C 0.87327 0.57913 0.32253 0.0
C247 C 0.86012 0.56746 0.35465 0.0
N248 N 0.86944 0.55008 0.31529 0.0
N249 N 0.8785 0.56798 0.29952 0.0
C250 C 0.84658 0.53156 0.37765 0.0
H251 H 0.85533 0.52465 0.38533 0.0
H252 H 0.8336 0.52099 0.35855 0.0
H253 H 0.842 0.53511 0.40965 0.0
C254 C 0.85052 0.50668 0.17063 0.0
N255 N 0.86157 0.51061 0.20787 0.0
N256 N 0.85861 0.52209 0.2342 0.0
C257 C 0.84521 0.5255 0.21487 0.0
C258 C 0.8396 0.51595 0.17352 0.0
C259 C 0.85134 0.49516 0.13198 0.0
H260 H 0.86637 0.49807 0.12737 0.0
H261 H 0.84196 0.47949 0.13927 0.0
H262 H 0.84634 0.49869 0.10052 0.0
O263 O 0.90612 0.52615 0.2327 0.0
O264 O 0.90229 0.54546 0.27894 0.0
H265 H 0.84755 0.55242 0.234 0.0
H266 H 0.82309 0.53355 0.22149 0.0
C267 C 0.83702 0.53669 0.23695 0.0
H268 H 0.83457 0.53293 0.27299 0.0
H269 H 0.88819 0.57256 0.27274 0.0
O270 O 0.88376 0.48764 0.18481 0.0
C271 C 0.91319 0.54175 0.25502 0.0
Co272 Co 0.39008 0.876 0.72123 0.0
Co273 Co 0.35742 0.87142 0.7824 0.0
C274 C 0.38903 0.86406 0.81676 0.0
O275 O 0.39687 0.86776 0.77813 0.0
O276 O 0.37349 0.86465 0.82356 0.0
C277 C 0.42564 0.89451 0.68349 0.0
O278 O 0.42932 0.90233 0.72365 0.0
C279 C 0.32423 0.85319 0.84175 0.0
C280 C 0.31151 0.87215 0.83354 0.0
C281 C 0.30924 0.85595 0.856 0.0
N282 N 0.33495 0.86725 0.81254 0.0
N283 N 0.32736 0.87857 0.80775 0.0
C284 C 0.32775 0.83689 0.85289 0.0
H285 H 0.33541 0.83442 0.82487 0.0
H286 H 0.31391 0.82338 0.8598 0.0
H287 H 0.33709 0.84079 0.88312 0.0
C288 C 0.35679 0.84647 0.66574 0.0
N289 N 0.36431 0.85829 0.70167 0.0
N290 N 0.35014 0.85654 0.72728 0.0
C291 C 0.33305 0.84362 0.70811 0.0
C292 C 0.33657 0.83663 0.66826 0.0
C293 C 0.36887 0.84402 0.63093 0.0
H294 H 0.38229 0.84568 0.64631 0.0
H295 H 0.36077 0.82962 0.61452 0.0
H296 H 0.37307 0.85545 0.60511 0.0
O297 O 0.39483 0.90293 0.72776 0.0
O298 O 0.3718 0.9 0.77303 0.0
H299 H 0.30207 0.83169 0.70107 0.0
H300 H 0.31029 0.82906 0.75576 0.0
C301 C 0.3137 0.83882 0.7265 0.0
H302 H 0.31412 0.85225 0.73793 0.0
H303 H 0.33295 0.89063 0.78669 0.0
O304 O 0.40905 0.87994 0.67557 0.0
C305 C 0.3868 0.91055 0.74994 0.0
Co306 Co 0.52502 0.37935 0.23073 0.0
Co307 Co 0.4956 0.34538 0.28807 0.0
C308 C 0.53399 0.37647 0.32697 0.0
O309 O 0.53878 0.3847 0.28883 0.0
O310 O 0.51767 0.36094 0.33225 0.0
C311 C 0.54454 0.41612 0.20027 0.0
O312 O 0.53985 0.41848 0.24103 0.0
C313 C 0.47757 0.30896 0.34003 0.0
C314 C 0.4466 0.30018 0.33311 0.0
C315 C 0.459 0.29471 0.35197 0.0
N316 N 0.47614 0.32217 0.31489 0.0
N317 N 0.4576 0.31679 0.3108 0.0
C318 C 0.49638 0.31069 0.35429 0.0
H319 H 0.49559 0.30621 0.38981 0.0
H320 H 0.50848 0.32572 0.34983 0.0
H321 H 0.49938 0.30099 0.33339 0.0
C322 C 0.521 0.34725 0.17103 0.0
N323 N 0.51689 0.35398 0.20856 0.0
N324 N 0.50415 0.33927 0.23257 0.0
C325 C 0.49967 0.32263 0.21063 0.0
C326 C 0.51024 0.32705 0.17076 0.0
C327 C 0.53536 0.36006 0.13667 0.0
H328 H 0.52829 0.36569 0.11391 0.0
H329 H 0.54773 0.37261 0.15326 0.0
H330 H 0.54076 0.35202 0.11658 0.0
O331 O 0.50308 0.38429 0.23602 0.0
O332 O 0.48176 0.36016 0.27726 0.0
H333 H 0.47165 0.30341 0.23819 0.0
H334 H 0.47991 0.29213 0.19832 0.0
C335 C 0.48448 0.30291 0.22583 0.0
H336 H 0.49035 0.29818 0.25373 0.0
H337 H 0.45242 0.32451 0.29288 0.0
O338 O 0.54144 0.39947 0.18851 0.0
C339 C 0.48684 0.37572 0.25573 0.0
Co340 Co 0.15978 0.5204 0.73123 0.0
Co341 Co 0.16478 0.49163 0.79003 0.0
C342 C 0.17059 0.52925 0.82874 0.0
O343 O 0.16703 0.53376 0.79035 0.0
O344 O 0.17057 0.51331 0.83434 0.0
C345 C 0.14184 0.5389 0.69977 0.0
O346 O 0.13458 0.53385 0.74027 0.0
C347 C 0.18138 0.47267 0.84553 0.0
C348 C 0.16139 0.44196 0.82784 0.0
C349 C 0.17744 0.4539 0.85349 0.0
N350 N 0.16831 0.47188 0.81588 0.0
N351 N 0.15645 0.45349 0.80548 0.0
C352 C 0.19672 0.4909 0.86712 0.0
H353 H 0.19304 0.50255 0.86489 0.0
H354 H 0.21069 0.49589 0.84964 0.0
H355 H 0.19864 0.48821 0.90275 0.0
C356 C 0.18914 0.51743 0.67371 0.0
N357 N 0.17784 0.51309 0.7105 0.0
N358 N 0.17999 0.50068 0.7354 0.0
C359 C 0.19284 0.49675 0.71509 0.0
C360 C 0.19917 0.50724 0.67507 0.0
C361 C 0.18942 0.5303 0.63684 0.0
H362 H 0.17449 0.52733 0.63013 0.0
H363 H 0.19822 0.54563 0.64765 0.0
H364 H 0.19563 0.52815 0.60559 0.0
O365 O 0.13314 0.49777 0.7336 0.0
O366 O 0.13626 0.47752 0.77821 0.0
H367 H 0.18719 0.46873 0.73593 0.0
H368 H 0.21156 0.48421 0.71533 0.0
C369 C 0.19953 0.48382 0.73472 0.0
H370 H 0.20458 0.4885 0.76944 0.0
H371 H 0.1449 0.44879 0.78306 0.0
O372 O 0.15614 0.53685 0.68892 0.0
C373 C 0.1257 0.4818 0.75448 0.0
Co374 Co 0.65209 0.15297 0.22101 0.0
Co375 Co 0.68299 0.15362 0.2839 0.0
C376 C 0.65271 0.16086 0.32131 0.0
O377 O 0.64559 0.15811 0.28206 0.0
O378 O 0.66818 0.16029 0.32846 0.0
C379 C 0.64076 0.17757 0.18855 0.0
O380 O 0.65216 0.18745 0.22204 0.0
C381 C 0.71521 0.16569 0.34614 0.0
C382 C 0.72774 0.1477 0.32467 0.0
C383 C 0.73022 0.16208 0.35443 0.0
N384 N 0.7045 0.15419 0.31244 0.0
N385 N 0.71191 0.14333 0.29995 0.0
C386 C 0.71038 0.17911 0.37077 0.0
H387 H 0.69608 0.17043 0.38715 0.0
H388 H 0.70911 0.18902 0.34664 0.0
H389 H 0.72117 0.18758 0.39703 0.0
C390 C 0.68742 0.18051 0.16864 0.0
N391 N 0.67875 0.16924 0.20482 0.0
N392 N 0.69212 0.17071 0.23289 0.0
C393 C 0.70978 0.18347 0.21596 0.0
C394 C 0.70745 0.19026 0.17445 0.0
C395 C 0.67689 0.18046 0.12699 0.0
H396 H 0.66312 0.16654 0.12353 0.0
H397 H 0.67371 0.19249 0.12867 0.0
H398 H 0.68594 0.18273 0.0969 0.0
O399 O 0.64399 0.12493 0.2171 0.0
O400 O 0.66595 0.12599 0.26461 0.0
H401 H 0.73175 0.17747 0.23792 0.0
H402 H 0.74061 0.20272 0.22498 0.0
C403 C 0.72846 0.18943 0.23976 0.0
H404 H 0.72706 0.19221 0.27552 0.0
H405 H 0.70637 0.1332 0.27408 0.0
O406 O 0.63724 0.16035 0.18157 0.0
C407 C 0.6514 0.11643 0.23886 0.0
H408 H 0.4176 0.56529 0.19612 0.0
H409 H 0.43558 0.5855 0.13261 0.0
H410 H 0.39447 0.54256 0.04162 0.0
H411 H 0.37608 0.52224 0.10539 0.0
H412 H 0.45369 0.57721 0.06699 0.0
H413 H 0.39878 0.5917 0.99031 0.0
H414 H 0.39607 0.58175 0.04592 0.0
H415 H 0.39073 0.56642 0.99757 0.0
C416 C 0.41214 0.56016 0.16269 0.0
C417 C 0.39526 0.54204 0.15615 0.0
C418 C 0.42254 0.57179 0.12624 0.0
C419 C 0.41639 0.56576 0.08207 0.0
C420 C 0.39937 0.54782 0.07527 0.0
H421 H 0.46694 0.6111 0.82011 0.0
H422 H 0.4465 0.59287 0.88325 0.0
C423 C 0.38888 0.53613 0.11187 0.0
C424 C 0.42846 0.57786 0.04357 0.0
H425 H 0.42764 0.60166 0.94872 0.0
C426 C 0.44799 0.58264 0.0413 0.0
C427 C 0.42112 0.58496 0.00978 0.0
C428 C 0.40059 0.58112 0.01107 0.0
C429 C 0.46019 0.59395 1.00612 0.0
C430 C 0.45287 0.6011 0.97238 0.0
C431 C 0.43334 0.5963 0.97454 0.0
C432 C 0.46509 0.61303 0.93391 0.0
C433 C 0.48069 0.59767 1.00478 0.0
C434 C 0.48225 0.63081 0.94088 0.0
C435 C 0.49409 0.64137 0.90461 0.0
C436 C 0.489 0.63445 0.86039 0.0
C437 C 0.47146 0.61695 0.85353 0.0
C438 C 0.45967 0.60645 0.88973 0.0
H439 H 0.48253 0.58724 0.02603 0.0
H440 H 0.48505 0.59671 0.96998 0.0
H441 H 0.49066 0.61248 0.01758 0.0
H442 H 0.4866 0.63648 0.97448 0.0
H443 H 0.50738 0.65478 0.91134 0.0
H444 H 0.86612 0.40725 0.6957 0.0
H445 H 0.8631 0.42539 0.63346 0.0
H446 H 0.86447 0.38488 0.53992 0.0
H447 H 0.86715 0.36632 0.60239 0.0
H448 H 0.88866 0.44404 0.5672 0.0
H449 H 0.81908 0.38881 0.49194 0.0
H450 H 0.82688 0.38589 0.54676 0.0
H451 H 0.83656 0.38101 0.49725 0.0
C452 C 0.86552 0.40196 0.66197 0.0
C453 C 0.86684 0.3852 0.65432 0.0
C454 C 0.86384 0.41245 0.62626 0.0
C455 C 0.86336 0.40651 0.58175 0.0
C456 C 0.86438 0.38962 0.57387 0.0
H457 H 0.86701 0.45814 0.32213 0.0
H458 H 0.86521 0.43746 0.38448 0.0
C459 C 0.86601 0.37902 0.60972 0.0
C460 C 0.86286 0.41867 0.54396 0.0
H461 H 0.83752 0.41785 0.45034 0.0
C462 C 0.87738 0.4383 0.54185 0.0
C463 C 0.84821 0.4113 0.51061 0.0
C464 C 0.83169 0.39065 0.51183 0.0
C465 C 0.87788 0.45057 0.50721 0.0
C466 C 0.86325 0.4432 0.47386 0.0
C467 C 0.84872 0.42357 0.47588 0.0
C468 C 0.86318 0.45547 0.43588 0.0
C469 C 0.89443 0.47121 0.50598 0.0
C470 C 0.86214 0.47237 0.44357 0.0
C471 C 0.86316 0.48432 0.40777 0.0
C472 C 0.86517 0.47963 0.36333 0.0
C473 C 0.86553 0.46235 0.35575 0.0
C474 C 0.86449 0.45043 0.39148 0.0
H475 H 0.90682 0.47322 0.52698 0.0
H476 H 0.89962 0.47573 0.47116 0.0
H477 H 0.88939 0.48096 0.51911 0.0
H478 H 0.86072 0.47642 0.47738 0.0
H479 H 0.86276 0.49743 0.41505 0.0
H480 H 0.51081 0.85937 0.10005 0.0
H481 H 0.49056 0.85781 0.03618 0.0
H482 H 0.44634 0.85269 0.12723 0.0
H483 H 0.4664 0.85446 0.1908 0.0
H484 H 0.45265 0.83035 1.00821 0.0
H485 H 0.45677 0.89985 0.05283 0.0
H486 H 0.47247 0.89215 0.07768 0.0
H487 H 0.44804 0.88244 0.09747 0.0
C488 C 0.4967 0.85773 0.10648 0.0
C489 C 0.4904 0.85724 0.15079 0.0
C490 C 0.48513 0.85688 0.06988 0.0
C491 C 0.46706 0.8556 0.07678 0.0
C492 C 0.4604 0.85419 0.12089 0.0
H493 H 0.37905 0.85858 0.90628 0.0
H494 H 0.3972 0.85517 0.96866 0.0
C495 C 0.4719 0.85508 0.15733 0.0
C496 C 0.45527 0.8561 0.03825 0.0
H497 H 0.43447 0.88131 0.99558 0.0
C498 C 0.44877 0.84155 1.00533 0.0
C499 C 0.4501 0.87068 0.03434 0.0
C500 C 0.45734 0.88728 0.06719 0.0
C501 C 0.43696 0.84096 0.96936 0.0
C502 C 0.43174 0.85551 0.9656 0.0
C503 C 0.4383 0.87007 0.99847 0.0
C504 C 0.42 0.85629 0.92725 0.0
C505 C 0.42982 0.82447 0.93628 0.0
C506 C 0.42667 0.85807 0.88301 0.0
C507 C 0.41631 0.86 0.84727 0.0
C508 C 0.39902 0.86033 0.85474 0.0
C509 C 0.39222 0.8583 0.89907 0.0
C510 C 0.40264 0.85639 0.93487 0.0
H511 H 0.43021 0.81181 0.95068 0.0
H512 H 0.41479 0.81974 0.92528 0.0
H513 H 0.43932 0.82935 0.90633 0.0
H514 H 0.4402 0.85848 0.87612 0.0
H515 H 0.42215 0.86165 0.81378 0.0
H516 H 0.52813 0.36658 0.41682 0.0
H517 H 0.54896 0.38484 0.48026 0.0
H518 H 0.59035 0.42713 0.38895 0.0
H519 H 0.56995 0.40896 0.32571 0.0
H520 H 0.60836 0.41846 0.45575 0.0
H521 H 0.55423 0.43489 0.52895 0.0
H522 H 0.54572 0.4095 0.52203 0.0
H523 H 0.55159 0.42482 0.47353 0.0
C524 C 0.54174 0.37967 0.41019 0.0
C525 C 0.5472 0.38627 0.36592 0.0
C526 C 0.55359 0.39022 0.44659 0.0
C527 C 0.57112 0.40766 0.43964 0.0
C528 C 0.5769 0.41384 0.39543 0.0
H529 H 0.66089 0.50011 0.60649 0.0
H530 H 0.64214 0.47892 0.54401 0.0
C531 C 0.56512 0.40336 0.35916 0.0
C532 C 0.58336 0.41974 0.47802 0.0
H533 H 0.58306 0.44513 0.57024 0.0
C534 C 0.60281 0.42429 0.48077 0.0
C535 C 0.57626 0.42752 0.5107 0.0
C536 C 0.55587 0.42412 0.50861 0.0
C537 C 0.61516 0.43602 0.51547 0.0
C538 C 0.60804 0.44379 0.54812 0.0
C539 C 0.58859 0.43921 0.54538 0.0
C540 C 0.6203 0.45642 0.58586 0.0
C541 C 0.63562 0.43964 0.51738 0.0
C542 C 0.61432 0.45106 0.63036 0.0
C543 C 0.62494 0.46317 0.66604 0.0
C544 C 0.64187 0.48112 0.65841 0.0
C545 C 0.64806 0.48637 0.61381 0.0
C546 C 0.63735 0.47419 0.57797 0.0
H547 H 0.63724 0.4287 0.49772 0.0
H548 H 0.64558 0.45413 0.503 0.0
H549 H 0.64014 0.43943 0.55249 0.0
H550 H 0.60126 0.43749 0.63755 0.0
H551 H 0.61962 0.45853 0.69975 0.0
H552 H 0.17031 0.65318 0.11123 0.0
H553 H 0.17266 0.6345 0.04849 0.0
H554 H 0.17462 0.59422 0.14176 0.0
H555 H 0.17199 0.61247 0.20423 0.0
H556 H 0.20007 0.62404 0.02483 0.0
H557 H 0.12985 0.55817 0.06144 0.0
H558 H 0.13699 0.58128 0.08715 0.0
H559 H 0.14625 0.56632 0.10816 0.0
C560 C 0.17134 0.6404 0.11843 0.0
C561 C 0.17077 0.63432 0.16302 0.0
C562 C 0.17267 0.6297 0.08245 0.0
C563 C 0.17337 0.61263 0.09016 0.0
C564 C 0.17357 0.60699 0.13466 0.0
H565 H 0.17432 0.52343 0.91873 0.0
H566 H 0.17636 0.54408 0.98203 0.0
C567 C 0.1722 0.6176 0.17051 0.0
C568 C 0.17377 0.6006 0.05199 0.0
H569 H 0.14966 0.55495 1.00683 0.0
C570 C 0.18899 0.60896 0.02082 0.0
C571 C 0.15937 0.58085 0.04655 0.0
C572 C 0.14209 0.57114 0.07732 0.0
C573 C 0.19038 0.59811 0.98511 0.0
C574 C 0.17599 0.57836 0.97974 0.0
C575 C 0.16079 0.57001 0.01094 0.0
C576 C 0.17595 0.5663 0.94112 0.0
C577 C 0.20752 0.60783 0.95397 0.0
C578 C 0.17501 0.57179 0.89687 0.0
C579 C 0.17386 0.56004 0.86069 0.0
C580 C 0.1735 0.54235 0.86759 0.0
C581 C 0.17468 0.53696 0.91195 0.0
C582 C 0.17578 0.54875 0.94825 0.0
H583 H 0.21987 0.62068 0.96988 0.0
H584 H 0.21245 0.59764 0.94338 0.0
H585 H 0.20327 0.61284 0.92357 0.0
H586 H 0.17466 0.58498 0.89026 0.0
H587 H 0.17285 0.56471 0.8272 0.0
H588 H 0.6603 0.16351 0.41237 0.0
H589 H 0.64074 0.16573 0.4732 0.0
H590 H 0.60133 0.167 0.37609 0.0
H591 H 0.62051 0.16465 0.31552 0.0
H592 H 0.6295 0.19366 0.49226 0.0
H593 H 0.56514 0.1219 0.45702 0.0
H594 H 0.58869 0.12921 0.43375 0.0
H595 H 0.57371 0.13779 0.40945 0.0
C596 C 0.64753 0.16436 0.40394 0.0
C597 C 0.64197 0.16372 0.35886 0.0
C598 C 0.63633 0.1656 0.4388 0.0
C599 C 0.61928 0.16612 0.42937 0.0
C600 C 0.61411 0.16614 0.38441 0.0
H601 H 0.52755 0.16535 0.59448 0.0
H602 H 0.54846 0.16731 0.53185 0.0
C603 C 0.62523 0.16491 0.34969 0.0
C604 C 0.60681 0.16656 0.46623 0.0
H605 H 0.56102 0.14173 0.50987 0.0
C606 C 0.61455 0.18226 0.49621 0.0
C607 C 0.58722 0.15177 0.47136 0.0
C608 C 0.5782 0.13412 0.44148 0.0
C609 C 0.60324 0.18371 0.53062 0.0
C610 C 0.58368 0.16885 0.53594 0.0
C611 C 0.57592 0.1532 0.50579 0.0
C612 C 0.57133 0.16874 0.57381 0.0
C613 C 0.61227 0.20138 0.56041 0.0
C614 C 0.57708 0.16883 0.61832 0.0
C615 C 0.56522 0.16776 0.65403 0.0
C616 C 0.54712 0.1664 0.64638 0.0
C617 C 0.5414 0.16648 0.60175 0.0
C618 C 0.55333 0.16754 0.56587 0.0
H619 H 0.62474 0.21384 0.54379 0.0
H620 H 0.60155 0.20576 0.57001 0.0
H621 H 0.61772 0.19804 0.59143 0.0
H622 H 0.59061 0.16927 0.62556 0.0
H623 H 0.57017 0.16765 0.68779 0.0
H624 H 0.54536 0.45071 0.2103 0.0
H625 H 0.54764 0.47287 0.15034 0.0
H626 H 0.55462 0.43669 0.05336 0.0
H627 H 0.5524 0.41467 0.11235 0.0
H628 H 0.57835 0.49301 0.08884 0.0
H629 H 0.51165 0.44449 0.99738 0.0
H630 H 0.51453 0.44178 0.05671 0.0
H631 H 0.52268 0.43081 0.01566 0.0
C632 C 0.54752 0.44759 0.17617 0.0
C633 C 0.5486 0.4309 0.16589 0.0
C634 C 0.54857 0.46012 0.14207 0.0
C635 C 0.55048 0.45592 0.09747 0.0
C636 C 0.55235 0.43972 0.08752 0.0
H637 H 0.61653 0.47685 0.91446 0.0
H638 H 0.59779 0.47754 0.97777 0.0
C639 C 0.5514 0.42731 0.12134 0.0
C640 C 0.55256 0.46907 0.06062 0.0
H641 H 0.54168 0.46213 0.94975 0.0
C642 C 0.56985 0.48688 0.05865 0.0
C643 C 0.54105 0.46163 0.0217 0.0
C644 C 0.5213 0.44372 0.02319 0.0
C645 C 0.57786 0.49507 0.01711 0.0
C646 C 0.56842 0.48483 0.97772 0.0
C647 C 0.54926 0.46955 0.98012 0.0
C648 C 0.57986 0.48542 0.9385 0.0
C649 C 0.59755 0.51307 0.01568 0.0
C650 C 0.57514 0.48842 0.89514 0.0
C651 C 0.5857 0.48771 0.85856 0.0
C652 C 0.60093 0.48381 0.86506 0.0
C653 C 0.60499 0.48001 0.90839 0.0
C654 C 0.59451 0.48075 0.94468 0.0
H655 H 0.59896 0.52322 0.04287 0.0
H656 H 0.60887 0.50905 0.02122 0.0
H657 H 0.6002 0.52058 0.98289 0.0
H658 H 0.56351 0.4915 0.88974 0.0
H659 H 0.58229 0.49076 0.82547 0.0
H660 H 0.10452 0.573 0.32314 0.0
H661 H 0.08448 0.55199 0.38435 0.0
H662 H 0.12896 0.58798 0.47923 0.0
H663 H 0.1489 0.60889 0.419 0.0
H664 H 0.09392 0.53139 0.44535 0.0
H665 H 0.07999 0.58247 0.5381 0.0
H666 H 0.08496 0.58482 0.47852 0.0
H667 H 0.10453 0.59528 0.5187 0.0
C668 C 0.11004 0.57634 0.3571 0.0
C669 C 0.12826 0.59264 0.3664 0.0
C670 C 0.09846 0.56448 0.39191 0.0
C671 C 0.10492 0.56896 0.43627 0.0
C672 C 0.12338 0.58478 0.44528 0.0
H673 H 0.15165 0.54751 0.61224 0.0
H674 H 0.13104 0.54705 0.55168 0.0
C675 C 0.13492 0.59653 0.41075 0.0
C676 C 0.09388 0.55625 0.47377 0.0
H677 H 0.09245 0.56441 0.58491 0.0
C678 C 0.09247 0.53803 0.47573 0.0
C679 C 0.09094 0.56434 0.51304 0.0
C680 C 0.08994 0.58272 0.51175 0.0
C681 C 0.0927 0.52999 0.51723 0.0
C682 C 0.0948 0.54078 0.55649 0.0
C683 C 0.09165 0.55656 0.55454 0.0
C684 C 0.10639 0.54017 0.59419 0.0
C685 C 0.09355 0.51153 0.51848 0.0
C686 C 0.09977 0.53768 0.63843 0.0
C687 C 0.11172 0.53824 0.67343 0.0
C688 C 0.13046 0.5415 0.66444 0.0
C689 C 0.13727 0.54486 0.62024 0.0
C690 C 0.12537 0.54425 0.58552 0.0
H691 H 0.08403 0.50133 0.49218 0.0
H692 H 0.10858 0.51487 0.51144 0.0
H693 H 0.08912 0.50436 0.55173 0.0
H694 H 0.08535 0.53508 0.64574 0.0
H695 H 0.10606 0.53558 0.70725 0.0
H696 H 0.65661 0.21665 0.17798 0.0
H697 H 0.6539 0.23333 0.11166 0.0
H698 H 0.61241 0.17828 0.05428 0.0
H699 H 0.61519 0.16145 0.11978 0.0
H700 H 0.65567 0.21164 1.00874 0.0
H701 H 0.59878 0.22984 0.05142 0.0
H702 H 0.61615 0.23081 0.09198 0.0
H703 H 0.59611 0.20785 0.07533 0.0
C704 C 0.64655 0.20813 0.1517 0.0
C705 C 0.63618 0.18773 0.15375 0.0
C706 C 0.64513 0.2177 0.11393 0.0
C707 C 0.63308 0.20693 0.07845 0.0
C708 C 0.62181 0.18671 0.08166 0.0
H709 H 0.58233 0.16549 0.86094 0.0
H710 H 0.60747 0.18113 0.91778 0.0
C711 C 0.62337 0.17715 0.11901 0.0
C712 C 0.63314 0.21606 0.0358 0.0
H713 H 0.60154 0.22335 0.97411 0.0
C714 C 0.64443 0.21509 1.00105 0.0
C715 C 0.61874 0.22086 0.02637 0.0
C716 C 0.60678 0.22257 0.06322 0.0
C717 C 0.63972 0.21602 0.9563 0.0
C718 C 0.62335 0.2178 0.94681 0.0
C719 C 0.61402 0.2218 0.9816 0.0
C720 C 0.61238 0.21002 0.90499 0.0
C721 C 0.65094 0.21299 0.91969 0.0
C722 C 0.60711 0.22118 0.87859 0.0
C723 C 0.59279 0.21224 0.84585 0.0
C724 C 0.58329 0.19201 0.84016 0.0
C725 C 0.58938 0.18108 0.86491 0.0
C726 C 0.6039 0.19005 0.89695 0.0
H727 H 0.66632 0.21895 0.92962 0.0
H728 H 0.64463 0.19721 0.91371 0.0
H729 H 0.6503 0.2199 0.8879 0.0
H730 H 0.6133 0.23654 0.88495 0.0
H731 H 0.58827 0.22098 0.82722 0.0
H732 H 0.49765 0.57428 0.69642 0.0
H733 H 0.49836 0.55488 0.63335 0.0
H734 H 0.48613 0.58948 0.54227 0.0
H735 H 0.48541 0.60879 0.60435 0.0
H736 H 0.46882 0.53334 0.57141 0.0
H737 H 0.53206 0.58904 0.48132 0.0
H738 H 0.5291 0.59017 0.54122 0.0
H739 H 0.5187 0.5999 0.50256 0.0
C740 C 0.49497 0.57763 0.66291 0.0
C741 C 0.49155 0.59312 0.6552 0.0
C742 C 0.49566 0.56671 0.62703 0.0
C743 C 0.49315 0.57133 0.58319 0.0
C744 C 0.48895 0.58624 0.57579 0.0
H745 H 0.42473 0.54877 0.40971 0.0
H746 H 0.44609 0.5493 0.46853 0.0
C747 C 0.4882 0.59706 0.61137 0.0
C748 C 0.49258 0.5596 0.54456 0.0
H749 H 0.5019 0.5698 0.43392 0.0
C750 C 0.47668 0.54079 0.5414 0.0
C751 C 0.50338 0.56882 0.50569 0.0
C752 C 0.52193 0.58803 0.50809 0.0
C753 C 0.4688 0.53302 0.49943 0.0
C754 C 0.47693 0.54463 0.46097 0.0
C755 C 0.49525 0.56126 0.46376 0.0
C756 C 0.46422 0.54369 0.42412 0.0
C757 C 0.45023 0.51383 0.49704 0.0
C758 C 0.46812 0.54156 0.37944 0.0
C759 C 0.45599 0.54149 0.34545 0.0
C760 C 0.44 0.54377 0.35592 0.0
C761 C 0.43682 0.54686 0.40056 0.0
C762 C 0.44883 0.54685 0.43427 0.0
H763 H 0.45019 0.50369 0.52264 0.0
H764 H 0.43782 0.51606 0.5043 0.0
H765 H 0.44811 0.50716 0.46332 0.0
H766 H 0.48028 0.53966 0.37103 0.0
H767 H 0.4588 0.53907 0.31125 0.0
H768 H 0.93476 0.49032 0.19679 0.0
H769 H 0.95409 0.49037 0.13283 0.0
H770 H 0.90589 0.47634 0.04459 0.0
H771 H 0.88666 0.47635 0.10759 0.0
H772 H 0.94621 0.46053 0.07435 0.0
H773 H 0.95055 0.52113 0.97812 0.0
H774 H 0.94653 0.51892 0.03806 0.0
H775 H 0.92642 0.5072 0.99955 0.0
C776 C 0.92828 0.48713 0.16372 0.0
C777 C 0.90921 0.48339 0.15707 0.0
C778 C 0.93943 0.48743 0.1273 0.0
C779 C 0.93167 0.48419 0.08395 0.0
C780 C 0.91242 0.47972 0.07764 0.0
H781 H 0.8896 0.4121 0.90881 0.0
H782 H 0.90863 0.43409 0.96865 0.0
C783 C 0.90131 0.47938 0.11378 0.0
C784 C 0.94239 0.48313 0.04499 0.0
H785 H 0.94114 0.4907 0.93337 0.0
C786 C 0.94617 0.46776 0.04358 0.0
C787 C 0.94332 0.49312 1.00511 0.0
C788 C 0.94172 0.51119 1.0055 0.0
C789 C 0.94663 0.45961 1.00245 0.0
C790 C 0.94282 0.46688 0.96291 0.0
C791 C 0.94331 0.48469 0.96401 0.0
C792 C 0.93229 0.45367 0.92567 0.0
C793 C 0.94852 0.44171 1.00202 0.0
C794 C 0.9388 0.45804 0.88138 0.0
C795 C 0.92775 0.44553 0.84678 0.0
C796 C 0.91 0.42868 0.85622 0.0
C797 C 0.90324 0.42487 0.90046 0.0
C798 C 0.91426 0.43727 0.93478 0.0
H799 H 0.95882 0.44265 0.02836 0.0
H800 H 0.93423 0.42883 0.00948 0.0
H801 H 0.95354 0.4396 0.9689 0.0
H802 H 0.95244 0.47094 0.87373 0.0
H803 H 0.93333 0.44883 0.81291 0.0
H804 H 0.4916 0.92324 0.30096 0.0
H805 H 0.48982 0.94425 0.35863 0.0
H806 H 0.48319 0.90278 0.46007 0.0
H807 H 0.48493 0.88186 0.40334 0.0
H808 H 0.45959 0.93507 0.42051 0.0
H809 H 0.52664 0.9544 0.51155 0.0
H810 H 0.52342 0.94782 0.45277 0.0
H811 H 0.51545 0.9294 0.49557 0.0
C812 C 0.48962 0.91857 0.33558 0.0
C813 C 0.48851 0.90094 0.34776 0.0
C814 C 0.48886 0.9307 0.36836 0.0
C815 C 0.4872 0.9254 0.41354 0.0
C816 C 0.48527 0.90747 0.42542 0.0
H817 H 0.42207 0.88262 0.59705 0.0
H818 H 0.44022 0.90178 0.53286 0.0
C819 C 0.48595 0.89537 0.39291 0.0
C820 C 0.48543 0.93718 0.44911 0.0
H821 H 0.49681 0.94269 0.55974 0.0
C822 C 0.46822 0.93784 0.45065 0.0
C823 C 0.49713 0.94182 0.48786 0.0
C824 C 0.51683 0.94356 0.4866 0.0
C825 C 0.46041 0.93865 0.49199 0.0
C826 C 0.46996 0.93829 0.53161 0.0
C827 C 0.48911 0.94214 0.52927 0.0
C828 C 0.45863 0.92774 0.57126 0.0
C829 C 0.4408 0.93711 0.49315 0.0
C830 C 0.46376 0.93561 0.61441 0.0
C831 C 0.45356 0.92448 0.6515 0.0
C832 C 0.43826 0.90532 0.64573 0.0
C833 C 0.43369 0.89734 0.60256 0.0
C834 C 0.44382 0.90842 0.56577 0.0
H835 H 0.43948 0.94576 0.46559 0.0
H836 H 0.42939 0.92178 0.48793 0.0
H837 H 0.4382 0.94218 0.52569 0.0
H838 H 0.47552 0.95031 0.61931 0.0
H839 H 0.45736 0.93103 0.68446 0.0
H840 H 0.21636 0.46904 0.86097 0.0
H841 H 0.23343 0.45933 0.91368 0.0
H842 H 0.17878 0.41393 0.9644 0.0
H843 H 0.16156 0.42376 0.91172 0.0
H844 H 0.2057 0.44099 0.02945 0.0
H845 H 0.23965 0.41043 0.91932 0.0
H846 H 0.24231 0.4329 0.89927 0.0
H847 H 0.21855 0.41187 0.90292 0.0
C848 C 0.20801 0.45705 0.88345 0.0
C849 C 0.18772 0.4474 0.88324 0.0
C850 C 0.21774 0.4513 0.91291 0.0
C851 C 0.20729 0.43579 0.94236 0.0
C852 C 0.18701 0.4258 0.94148 0.0
H853 H 0.2678 0.42569 0.17871 0.0
H854 H 0.24134 0.41582 0.1246 0.0
C855 C 0.17725 0.43144 0.91163 0.0
C856 C 0.21778 0.43168 0.97722 0.0
H857 H 0.25498 0.42271 0.99097 0.0
C858 C 0.21614 0.43648 0.02151 0.0
C859 C 0.23129 0.42581 0.96631 0.0
C860 C 0.23297 0.41978 0.91941 0.0
C861 C 0.22891 0.43721 0.05472 0.0
C862 C 0.24328 0.43252 0.04318 0.0
C863 C 0.24396 0.42634 0.99954 0.0
C864 C 0.25927 0.43651 0.07408 0.0
C865 C 0.22786 0.44443 0.10085 0.0
C866 C 0.27816 0.45076 0.06261 0.0
C867 C 0.29325 0.45624 0.09309 0.0
C868 C 0.28962 0.44772 0.13571 0.0
C869 C 0.27088 0.43274 0.1463 0.0
C870 C 0.25578 0.42714 0.11561 0.0
H871 H 0.21802 0.45052 0.10186 0.0
H872 H 0.22238 0.43223 0.12499 0.0
H873 H 0.24246 0.45577 0.11221 0.0
H874 H 0.28114 0.45799 0.03042 0.0
H875 H 0.3077 0.46715 0.08317 0.0
H876 H 0.85302 0.25667 0.67208 0.0
H877 H 0.83466 0.22978 0.6198 0.0
H878 H 0.82955 0.26901 0.5286 0.0
H879 H 0.84818 0.29589 0.57997 0.0
H880 H 0.79652 0.21744 0.58953 0.0
H881 H 0.84821 0.23955 0.44838 0.0
H882 H 0.85548 0.24908 0.50442 0.0
H883 H 0.84455 0.25882 0.46763 0.0
C884 C 0.84805 0.25952 0.64069 0.0
C885 C 0.85162 0.27823 0.63036 0.0
C886 C 0.83763 0.2442 0.61099 0.0
C887 C 0.83102 0.24753 0.57026 0.0
C888 C 0.83482 0.26626 0.55964 0.0
H889 H 0.75323 0.20095 0.36148 0.0
H890 H 0.77947 0.21872 0.41513 0.0
C891 C 0.84513 0.28152 0.58936 0.0
C892 C 0.8189 0.23132 0.53994 0.0
H893 H 0.81456 0.21774 0.43037 0.0
C894 C 0.80057 0.21713 0.55499 0.0
C895 C 0.8244 0.23102 0.49512 0.0
C896 C 0.84432 0.24533 0.47802 0.0
C897 C 0.78692 0.20354 0.52525 0.0
C898 C 0.79198 0.2041 0.47968 0.0
C899 C 0.81077 0.21744 0.46538 0.0
C900 C 0.77721 0.19298 0.44543 0.0
C901 C 0.76678 0.18964 0.54202 0.0
C902 C 0.7676 0.17266 0.44425 0.0
C903 C 0.75245 0.16249 0.41388 0.0
C904 C 0.74673 0.17259 0.38488 0.0
C905 C 0.757 0.1929 0.38469 0.0
C906 C 0.77209 0.20303 0.41486 0.0
H907 H 0.76459 0.19274 0.57715 0.0
H908 H 0.75577 0.19032 0.52043 0.0
H909 H 0.76422 0.17463 0.54052 0.0
H910 H 0.77161 0.16472 0.46722 0.0
H911 H 0.74488 0.14679 0.41386 0.0
H912 H 0.55827 0.83144 0.09065 0.0
H913 H 0.56424 0.80822 0.05073 0.0
H914 H 0.60844 0.81711 0.14685 0.0
H915 H 0.60245 0.84046 0.18723 0.0
H916 H 0.61915 0.81685 0.05732 0.0
H917 H 0.54759 0.7533 0.09467 0.0
H918 H 0.54534 0.77289 0.07172 0.0
H919 H 0.55713 0.77586 0.12505 0.0
C920 C 0.56901 0.82821 0.1037 0.0
C921 C 0.57952 0.83725 0.14263 0.0
C922 C 0.57246 0.81502 0.08084 0.0
C923 C 0.5864 0.81063 0.09667 0.0
C924 C 0.59745 0.82018 0.13459 0.0
H925 H 0.57572 0.71251 0.94604 0.0
H926 H 0.58322 0.73338 0.01201 0.0
C927 C 0.59405 0.83348 0.15745 0.0
C928 C 0.58939 0.7962 0.07269 0.0
H929 H 0.56396 0.75077 0.02922 0.0
C930 C 0.60726 0.80223 0.05185 0.0
C931 C 0.57404 0.77702 0.06679 0.0
C932 C 0.55502 0.76932 0.09118 0.0
C933 C 0.60962 0.79 0.02197 0.0
C934 C 0.59355 0.77156 0.01226 0.0
C935 C 0.57624 0.765 0.03619 0.0
C936 C 0.59329 0.7598 0.97374 0.0
C937 C 0.6291 0.79717 1.00024 0.0
C938 C 0.59696 0.76782 0.93049 0.0
C939 C 0.59283 0.75596 0.89299 0.0
C940 C 0.58449 0.73589 0.89828 0.0
C941 C 0.5818 0.72796 0.94141 0.0
C942 C 0.58621 0.73986 0.97895 0.0
H943 H 0.64098 0.80698 0.02316 0.0
H944 H 0.63136 0.785 0.99045 0.0
H945 H 0.63006 0.80561 0.9698 0.0
H946 H 0.60189 0.78305 0.92554 0.0
H947 H 0.59501 0.7623 0.85989 0.0
H948 H 0.75673 0.55258 0.66059 0.0
H949 H 0.78326 0.56186 0.60804 0.0
H950 H 0.77842 0.61113 0.5662 0.0
H951 H 0.75111 0.60131 0.61739 0.0
H952 H 0.77828 0.59013 0.49627 0.0
H953 H 0.83924 0.60401 0.60725 0.0
H954 H 0.81858 0.58095 0.62009 0.0
H955 H 0.81736 0.60275 0.62805 0.0
C956 C 0.76113 0.56523 0.63986 0.0
C957 C 0.75147 0.57586 0.64192 0.0
C958 C 0.77663 0.57082 0.61064 0.0
C959 C 0.78297 0.58735 0.58374 0.0
C960 C 0.77381 0.59841 0.58695 0.0
H961 H 0.87537 0.60133 0.40073 0.0
H962 H 0.8585 0.6115 0.45341 0.0
C963 C 0.75823 0.59277 0.61608 0.0
C964 C 0.79759 0.59156 0.54878 0.0
H965 H 0.84043 0.59284 0.5315 0.0
C966 C 0.79212 0.59126 0.50395 0.0
C967 C 0.8158 0.59348 0.55881 0.0
C968 C 0.82316 0.59554 0.60624 0.0
C969 C 0.80359 0.59097 0.46891 0.0
C970 C 0.82069 0.59058 0.47924 0.0
C971 C 0.82709 0.59276 0.52378 0.0
C972 C 0.83071 0.58541 0.44527 0.0
C973 C 0.79689 0.59026 0.42128 0.0
C974 C 0.82062 0.56738 0.42368 0.0
C975 C 0.83015 0.56159 0.39388 0.0
C976 C 0.85001 0.57359 0.38588 0.0
C977 C 0.86006 0.59179 0.40683 0.0
C978 C 0.85049 0.5976 0.43673 0.0
H979 H 0.78815 0.59754 0.41822 0.0
H980 H 0.80933 0.59724 0.39782 0.0
H981 H 0.78756 0.57491 0.41107 0.0
H982 H 0.80541 0.55763 0.43048 0.0
H983 H 0.82197 0.54777 0.37703 0.0
H984 H 0.21513 0.75042 0.17369 0.0
H985 H 0.23474 0.7749 0.11794 0.0
H986 H 0.18294 0.76376 0.04726 0.0
H987 H 0.16316 0.73884 0.10258 0.0
H988 H 0.22788 0.76143 0.01799 0.0
H989 H 0.22164 0.8263 0.06035 0.0
H990 H 0.21983 0.80939 0.1031 0.0
H991 H 0.20063 0.80234 0.06328 0.0
C992 C 0.20794 0.75311 0.14618 0.0
C993 C 0.18775 0.74238 0.14139 0.0
C994 C 0.2191 0.76725 0.11485 0.0
C995 C 0.21017 0.77097 0.0788 0.0
C996 C 0.18996 0.76107 0.07523 0.0
H997 H 0.2714 0.84614 0.85108 0.0
H998 H 0.24538 0.82549 0.90332 0.0
C999 C 0.17875 0.74688 0.10663 0.0
C1000 C 0.22222 0.78354 0.04242 0.0
H1001 H 0.24273 0.8295 1.00129 0.0
C1002 C 0.23101 0.77626 0.01394 0.0
C1003 C 0.22594 0.80269 0.03734 0.0
C1004 C 0.21659 0.81081 0.06754 0.0
C1005 C 0.24409 0.78796 0.98108 0.0
C1006 C 0.24864 0.80746 0.97744 0.0
C1007 C 0.23919 0.81452 1.00461 0.0
C1008 C 0.26421 0.82094 0.94772 0.0
C1009 C 0.2532 0.77949 0.95106 0.0
C1010 C 0.2833 0.82549 0.95647 0.0
C1011 C 0.29804 0.83714 0.92691 0.0
C1012 C 0.29385 0.84434 0.88819 0.0
C1013 C 0.27487 0.84051 0.88054 0.0
C1014 C 0.26007 0.8288 0.91019 0.0
H1015 H 0.24452 0.76341 0.95005 0.0
H1016 H 0.25485 0.78515 0.91637 0.0
H1017 H 0.26782 0.78363 0.96409 0.0
H1018 H 0.28673 0.81984 0.98596 0.0
H1019 H 0.31269 0.84055 0.93451 0.0
H1020 H 0.46832 0.17031 0.56992 0.0
H1021 H 0.45988 0.18836 0.5173 0.0
H1022 H 0.41855 0.18747 0.61186 0.0
H1023 H 0.42765 0.17009 0.66569 0.0
H1024 H 0.42581 0.18261 0.47702 0.0
H1025 H 0.45672 0.24531 0.59504 0.0
H1026 H 0.46003 0.22471 0.60299 0.0
H1027 H 0.43719 0.22289 0.616 0.0
C1028 C 0.45755 0.17409 0.57963 0.0
C1029 C 0.44921 0.16958 0.62245 0.0
C1030 C 0.45252 0.18413 0.54932 0.0
C1031 C 0.43894 0.18961 0.56121 0.0
C1032 C 0.42939 0.18371 0.60256 0.0
H1033 H 0.43073 0.28061 0.41484 0.0
H1034 H 0.42125 0.25272 0.46431 0.0
C1035 C 0.43452 0.17373 0.63308 0.0
C1036 C 0.43634 0.203 0.53172 0.0
H1037 H 0.44781 0.25026 0.52379 0.0
C1038 C 0.4303 0.19732 0.48737 0.0
C1039 C 0.44226 0.22217 0.54548 0.0
C1040 C 0.44955 0.22927 0.59233 0.0
C1041 C 0.43078 0.21058 0.45581 0.0
C1042 C 0.43763 0.22995 0.46909 0.0
C1043 C 0.44258 0.23534 0.51396 0.0
C1044 C 0.44176 0.24537 0.43634 0.0
C1045 C 0.42451 0.20395 0.4083 0.0
C1046 C 0.45644 0.25037 0.4045 0.0
C1047 C 0.46197 0.26633 0.37659 0.0
C1048 C 0.45299 0.27756 0.38043 0.0
C1049 C 0.43793 0.2722 0.41148 0.0
C1050 C 0.43248 0.25631 0.43959 0.0
H1051 H 0.41456 0.18803 0.40653 0.0
H1052 H 0.41718 0.21137 0.39339 0.0
H1053 H 0.43746 0.20752 0.38774 0.0
H1054 H 0.46394 0.24222 0.40201 0.0
H1055 H 0.47318 0.26977 0.352 0.0
H1056 H 0.73409 0.51245 0.8334 0.0
H1057 H 0.75679 0.51167 0.88789 0.0
H1058 H 0.72597 0.52067 0.99518 0.0
H1059 H 0.70314 0.52114 0.94076 0.0
H1060 H 0.78194 0.53762 0.94464 0.0
H1061 H 0.72849 0.47536 0.04473 0.0
H1062 H 0.72239 0.48182 0.99172 0.0
H1063 H 0.7229 0.49451 0.04208 0.0
C1064 C 0.73217 0.51426 0.86863 0.0
C1065 C 0.71672 0.51678 0.88265 0.0
C1066 C 0.74516 0.51378 0.89989 0.0
C1067 C 0.74306 0.51575 0.94614 0.0
C1068 C 0.72774 0.51853 0.96007 0.0
H1069 H 0.83617 0.54681 0.14402 0.0
H1070 H 0.81297 0.54678 0.09009 0.0
C1071 C 0.71468 0.51889 0.92882 0.0
C1072 C 0.75712 0.51535 0.9794 0.0
H1073 H 0.76016 0.49362 0.07591 0.0
C1074 C 0.77712 0.52792 0.97324 0.0
C1075 C 0.75109 0.50253 0.01659 0.0
C1076 C 0.73007 0.48765 0.024 0.0
C1077 C 0.79104 0.52828 1.00319 0.0
C1078 C 0.78496 0.51604 0.04143 0.0
C1079 C 0.76499 0.50322 0.04716 0.0
C1080 C 0.79901 0.51608 0.0754 0.0
C1081 C 0.8122 0.54148 0.99273 0.0
C1082 C 0.79868 0.49877 0.08695 0.0
C1083 C 0.81175 0.49872 0.11866 0.0
C1084 C 0.82552 0.51596 0.1399 0.0
C1085 C 0.82572 0.53323 0.12867 0.0
C1086 C 0.81258 0.53327 0.09719 0.0
H1087 H 0.81452 0.5451 0.95648 0.0
H1088 H 0.81759 0.55524 0.01154 0.0
H1089 H 0.82098 0.53478 1.00254 0.0
H1090 H 0.78836 0.48524 0.07116 0.0
H1091 H 0.81094 0.4851 0.12686 0.0
H1092 H 0.19513 0.69512 0.44541 0.0
H1093 H 0.21884 0.7186 0.49838 0.0
H1094 H 0.25385 0.75311 0.38793 0.0
H1095 H 0.23034 0.72955 0.33496 0.0
H1096 H 0.25812 0.73141 0.51113 0.0
H1097 H 0.2487 0.79328 0.4619 0.0
H1098 H 0.23189 0.76867 0.44521 0.0
H1099 H 0.25449 0.78248 0.41608 0.0
C1100 C 0.20794 0.70763 0.43235 0.0
C1101 C 0.21069 0.71042 0.38573 0.0
C1102 C 0.22149 0.72114 0.46276 0.0
C1103 C 0.2381 0.73794 0.44748 0.0
C1104 C 0.241 0.74061 0.40091 0.0
H1105 H 0.3361 0.83829 0.57621 0.0
H1106 H 0.31276 0.81417 0.52378 0.0
C1107 C 0.2275 0.72707 0.37052 0.0
C1108 C 0.25248 0.75246 0.4801 0.0
H1109 H 0.27467 0.80025 0.51146 0.0
C1110 C 0.26165 0.74644 0.5113 0.0
C1111 C 0.25727 0.77218 0.48055 0.0
C1112 C 0.24747 0.77956 0.44946 0.0
C1113 C 0.27563 0.75951 0.54195 0.0
C1114 C 0.28039 0.77924 0.54253 0.0
C1115 C 0.27118 0.78523 0.51133 0.0
C1116 C 0.29485 0.79386 0.57496 0.0
C1117 C 0.28559 0.7521 0.57251 0.0
C1118 C 0.29271 0.79083 0.62161 0.0
C1119 C 0.30621 0.80458 0.65168 0.0
C1120 C 0.32215 0.82191 0.6361 0.0
C1121 C 0.32418 0.82504 0.58949 0.0
C1122 C 0.31071 0.81126 0.5594 0.0
H1123 H 0.28484 0.73875 0.55896 0.0
H1124 H 0.30104 0.76319 0.57765 0.0
H1125 H 0.27827 0.74846 0.60557 0.0
H1126 H 0.28047 0.77786 0.63495 0.0
H1127 H 0.30423 0.80156 0.68725 0.0
H1128 H 0.514 0.2949 0.1823 0.0
H1129 H 0.51401 0.27285 0.12491 0.0
H1130 H 0.50508 0.30582 0.02255 0.0
H1131 H 0.50559 0.32812 0.07983 0.0
H1132 H 0.48829 0.24877 0.06787 0.0
H1133 H 0.54938 0.30377 0.9677 0.0
H1134 H 0.54329 0.3092 0.02185 0.0
H1135 H 0.53019 0.3092 0.97257 0.0
C1136 C 0.51207 0.29745 0.14752 0.0
C1137 C 0.50994 0.31339 0.13569 0.0
C1138 C 0.51209 0.28482 0.11459 0.0
C1139 C 0.50995 0.28772 0.06882 0.0
C1140 C 0.5074 0.30345 0.05717 0.0
H1141 H 0.47929 0.19545 0.86659 0.0
H1142 H 0.47852 0.21815 0.92084 0.0
C1143 C 0.50758 0.31619 0.09006 0.0
C1144 C 0.51005 0.27414 0.03371 0.0
H1145 H 0.53095 0.27256 0.93462 0.0
C1146 C 0.49769 0.25403 0.03883 0.0
C1147 C 0.52248 0.28074 0.99584 0.0
C1148 C 0.53722 0.30188 0.98933 0.0
C1149 C 0.49726 0.24053 1.00745 0.0
C1150 C 0.50912 0.24718 0.96865 0.0
C1151 C 0.52162 0.26728 0.96377 0.0
C1152 C 0.50941 0.23362 0.93373 0.0
C1153 C 0.4845 0.21921 0.01719 0.0
C1154 C 0.52706 0.23507 0.92069 0.0
C1155 C 0.52756 0.22242 0.88862 0.0
C1156 C 0.51043 0.20781 0.86858 0.0
C1157 C 0.4928 0.20656 0.88093 0.0
C1158 C 0.49232 0.21939 0.91272 0.0
H1159 H 0.48118 0.21652 0.0535 0.0
H1160 H 0.47056 0.21372 0.99907 0.0
H1161 H 0.4914 0.21078 1.00612 0.0
H1162 H 0.54053 0.24592 0.93574 0.0
H1163 H 0.54145 0.22412 0.87946 0.0
H1164 H 0.30399 0.47663 0.38737 0.0
H1165 H 0.28098 0.47698 0.44138 0.0
H1166 H 0.31401 0.53939 0.4449 0.0
H1167 H 0.33672 0.53907 0.38996 0.0
H1168 H 0.28616 0.49086 0.52762 0.0
H1169 H 0.25993 0.53031 0.42211 0.0
H1170 H 0.27399 0.52023 0.39963 0.0
H1171 H 0.28574 0.5429 0.42941 0.0
C1172 C 0.30622 0.49044 0.39925 0.0
C1173 C 0.32214 0.50783 0.38389 0.0
C1174 C 0.29309 0.49063 0.43042 0.0
C1175 C 0.29541 0.50822 0.44695 0.0
C1176 C 0.31151 0.5256 0.43215 0.0
H1177 H 0.23068 0.53859 0.6374 0.0
H1178 H 0.25388 0.53874 0.58307 0.0
C1179 C 0.32466 0.52541 0.40101 0.0
C1180 C 0.28125 0.5083 0.48019 0.0
H1181 H 0.24974 0.52513 0.49798 0.0
C1182 C 0.27815 0.49829 0.52096 0.0
C1183 C 0.27072 0.51802 0.47196 0.0
C1184 C 0.27258 0.52833 0.42827 0.0
C1185 C 0.26524 0.49803 0.55372 0.0
C1186 C 0.25463 0.50768 0.54543 0.0
C1187 C 0.25777 0.51772 0.50469 0.0
C1188 C 0.24026 0.50752 0.57844 0.0
C1189 C 0.26351 0.48783 0.59751 0.0
C1190 C 0.22451 0.48998 0.59372 0.0
C1191 C 0.21123 0.4899 0.62483 0.0
C1192 C 0.21321 0.50735 0.64137 0.0
C1193 C 0.2287 0.52489 0.62538 0.0
C1194 C 0.24201 0.52498 0.5943 0.0
H1195 H 0.27642 0.48629 0.60397 0.0
H1196 H 0.26172 0.49572 0.62606 0.0
H1197 H 0.25065 0.47306 0.59617 0.0
H1198 H 0.22235 0.47628 0.58127 0.0
H1199 H 0.19925 0.47613 0.63567 0.0
H1200 H 0.7415 0.19251 0.1462 0.0
H1201 H 0.76549 0.2157 0.09336 0.0
H1202 H 0.7307 0.24276 0.07594 0.0
H1203 H 0.70735 0.22036 0.13033 0.0
H1204 H 0.76341 0.22232 1.00693 0.0
H1205 H 0.78204 0.28992 0.09762 0.0
H1206 H 0.76797 0.26636 0.123 0.0
H1207 H 0.75656 0.27575 0.08655 0.0
C1208 C 0.73918 0.20367 0.13184 0.0
C1209 C 0.72252 0.20461 0.14299 0.0
C1210 C 0.75285 0.21685 0.10119 0.0
C1211 C 0.75026 0.23137 0.08087 0.0
C1212 C 0.73348 0.23215 0.09171 0.0
H1213 H 0.80736 0.2936 0.83323 0.0
H1214 H 0.7851 0.27102 0.88947 0.0
C1215 C 0.71992 0.21908 0.1225 0.0
C1216 C 0.7647 0.24528 0.04749 0.0
H1217 H 0.79239 0.2935 0.02143 0.0
C1218 C 0.7698 0.23789 0.01035 0.0
C1219 C 0.77344 0.2657 0.05181 0.0
C1220 C 0.76989 0.27492 0.09213 0.0
C1221 C 0.78289 0.25015 0.97734 0.0
C1222 C 0.79091 0.27054 0.98057 0.0
C1223 C 0.78615 0.27794 0.01822 0.0
C1224 C 0.80445 0.28442 0.94581 0.0
C1225 C 0.78829 0.24107 0.93983 0.0
C1226 C 0.82263 0.30006 0.9583 0.0
C1227 C 0.83531 0.31313 0.92608 0.0
C1228 C 0.83018 0.31095 0.88043 0.0
C1229 C 0.81192 0.29549 0.86796 0.0
C1230 C 0.79919 0.28249 0.90021 0.0
H1231 H 0.78594 0.22658 0.94943 0.0
H1232 H 0.77904 0.23911 0.91024 0.0
H1233 H 0.80368 0.25037 0.92996 0.0
H1234 H 0.82715 0.30208 0.99307 0.0
H1235 H 0.84927 0.32483 0.93686 0.0
H1236 H 0.52189 0.79808 0.32963 0.0
H1237 H 0.52104 0.77465 0.38426 0.0
H1238 H 0.52788 0.81374 0.49174 0.0
H1239 H 0.52837 0.83699 0.43713 0.0
H1240 H 0.54638 0.77556 0.44208 0.0
H1241 H 0.48309 0.76541 0.53969 0.0
H1242 H 0.48979 0.77824 0.48708 0.0
H1243 H 0.50196 0.7903 0.53808 0.0
C1244 C 0.5232 0.80167 0.36493 0.0
C1245 C 0.52512 0.81942 0.37891 0.0
C1246 C 0.52267 0.78821 0.39629 0.0
C1247 C 0.52403 0.79207 0.44263 0.0
C1248 C 0.5262 0.80996 0.45654 0.0
H1249 H 0.55527 0.73038 0.6412 0.0
H1250 H 0.55513 0.75353 0.58753 0.0
C1251 C 0.52658 0.82336 0.42518 0.0
C1252 C 0.52367 0.77764 0.47598 0.0
H1253 H 0.5016 0.75245 0.57174 0.0
C1254 C 0.53651 0.7705 0.47031 0.0
C1255 C 0.51063 0.77058 0.51271 0.0
C1256 C 0.49545 0.77636 0.51957 0.0
C1257 C 0.5369 0.75695 0.50027 0.0
C1258 C 0.52445 0.75054 0.53809 0.0
C1259 C 0.51137 0.75742 0.54333 0.0
C1260 C 0.52453 0.73655 0.57209 0.0
C1261 C 0.55037 0.74927 0.4902 0.0
C1262 C 0.5073 0.71943 0.58326 0.0
C1263 C 0.5073 0.70631 0.61488 0.0
C1264 C 0.52452 0.70989 0.63641 0.0
C1265 C 0.5417 0.72712 0.62565 0.0
C1266 C 0.54168 0.7403 0.59427 0.0
H1267 H 0.55416 0.75067 0.45405 0.0
H1268 H 0.56402 0.75777 0.50936 0.0
H1269 H 0.54383 0.73379 0.49985 0.0
H1270 H 0.49378 0.71611 0.56721 0.0
H1271 H 0.49372 0.6934 0.62276 0.0
H1272 H 0.41862 0.48958 0.30812 0.0
H1273 H 0.43379 0.4695 0.30537 0.0
H1274 H 0.38483 0.42572 0.23174 0.0
H1275 H 0.36963 0.44589 0.23358 0.0
H1276 H 0.42239 0.43306 0.33641 0.0
H1277 H 0.42982 0.4352 0.15132 0.0
H1278 H 0.42348 0.45088 0.18138 0.0
H1279 H 0.40545 0.42608 0.17054 0.0
C1280 C 0.41099 0.47565 0.29143 0.0
C1281 C 0.39291 0.46944 0.27078 0.0
C1282 C 0.41971 0.46417 0.28991 0.0
C1283 C 0.41064 0.44623 0.26766 0.0
C1284 C 0.39234 0.4397 0.24821 0.0
H1285 H 0.45079 0.36185 0.29343 0.0
H1286 H 0.43127 0.37775 0.29589 0.0
C1287 C 0.3836 0.45121 0.24957 0.0
C1288 C 0.4205 0.43454 0.26471 0.0
H1289 H 0.43881 0.4151 0.19058 0.0
C1290 C 0.42592 0.42907 0.30452 0.0
C1291 C 0.42537 0.42956 0.22309 0.0
C1292 C 0.42091 0.43586 0.17912 0.0
C1293 C 0.43605 0.41881 0.3039 0.0
C1294 C 0.44059 0.4135 0.26228 0.0
C1295 C 0.43516 0.41896 0.22248 0.0
C1296 C 0.45188 0.40323 0.25925 0.0
C1297 C 0.44235 0.41432 0.34784 0.0
C1298 C 0.46965 0.41188 0.23646 0.0
C1299 C 0.48074 0.40275 0.23459 0.0
C1300 C 0.47432 0.38468 0.25542 0.0
C1301 C 0.45626 0.37579 0.27727 0.0
C1302 C 0.44513 0.38494 0.27899 0.0
H1303 H 0.44205 0.42346 0.37556 0.0
H1304 H 0.43236 0.39893 0.35668 0.0
H1305 H 0.45722 0.41653 0.34534 0.0
H1306 H 0.47514 0.42593 0.22078 0.0
H1307 H 0.49454 0.41007 0.21741 0.0
H1308 H 0.10314 0.45125 0.81002 0.0
H1309 H 0.06781 0.43138 0.81066 0.0
H1310 H 0.06457 0.46227 0.69527 0.0
H1311 H 0.09979 0.48271 0.69566 0.0
H1312 H 0.0394 0.45931 0.75382 0.0
H1313 H 0.03125 0.38652 0.73603 0.0
H1314 H 0.0457 0.39916 0.78385 0.0
H1315 H 0.05419 0.40843 0.72838 0.0
C1316 C 0.09492 0.45366 0.78445 0.0
C1317 C 0.10435 0.46856 0.75272 0.0
C1318 C 0.07467 0.44217 0.78464 0.0
C1319 C 0.0634 0.445 0.75251 0.0
C1320 C 0.07285 0.45969 0.72038 0.0
H1321 H 0.93947 0.36682 0.70668 0.0
H1322 H 0.97494 0.38391 0.70386 0.0
C1323 C 0.09305 0.47137 0.72058 0.0
C1324 C 0.04176 0.43353 0.75381 0.0
H1325 H 1.0029 0.38747 0.75795 0.0
C1326 C 0.03146 0.44359 0.75442 0.0
C1327 C 0.03124 0.41298 0.75394 0.0
C1328 C 0.04116 0.40114 0.75003 0.0
C1329 C 1.01111 0.4338 0.75572 0.0
C1330 C 1.00062 0.41328 0.75815 0.0
C1331 C 1.01087 0.40318 0.75679 0.0
C1332 C 0.97903 0.4021 0.76146 0.0
C1333 C 1.00111 0.44563 0.75331 0.0
C1334 C 0.96942 0.40614 0.79553 0.0
C1335 C 0.94917 0.3966 0.79682 0.0
C1336 C 0.93799 0.38241 0.76468 0.0
C1337 C 0.94761 0.37765 0.73194 0.0
C1338 C 0.96791 0.38744 0.73027 0.0
H1339 H 1.0105 0.45995 0.73738 0.0
H1340 H 0.98736 0.43797 0.73409 0.0
H1341 H 0.99778 0.44832 0.78776 0.0
H1342 H 0.97758 0.41688 0.82093 0.0
H1343 H 0.94227 0.40048 0.82285 0.0
H1344 H 0.61727 0.08993 0.19807 0.0
H1345 H 0.60137 0.05449 0.20109 0.0
H1346 H 0.64928 0.05873 0.27746 0.0
H1347 H 0.6651 0.09403 0.27531 0.0
H1348 H 0.61219 0.02822 0.17291 0.0
H1349 H 0.60347 0.02481 0.35757 0.0
H1350 H 0.61039 0.04663 0.326 0.0
H1351 H 0.62808 0.03969 0.33957 0.0
C1352 C 0.62449 0.08335 0.2153 0.0
C1353 C 0.64241 0.09492 0.23681 0.0
C1354 C 0.61536 0.06305 0.21702 0.0
C1355 C 0.62391 0.05389 0.24034 0.0
C1356 C 0.64214 0.06541 0.26025 0.0
H1357 H 0.58624 0.92983 0.22336 0.0
H1358 H 0.60474 0.96527 0.21845 0.0
C1359 C 0.65123 0.08565 0.25872 0.0
C1360 C 0.61367 0.03234 0.24437 0.0
H1361 H 0.59557 0.99539 0.32074 0.0
C1362 C 0.60855 0.02104 0.20522 0.0
C1363 C 0.60867 0.02291 0.28653 0.0
C1364 C 0.61275 0.0341 0.32982 0.0
C1365 C 0.59876 1.00065 0.20708 0.0
C1366 C 0.59424 0.99124 0.24929 0.0
C1367 C 0.59922 1.00255 0.28839 0.0
C1368 C 0.58354 0.96969 0.25368 0.0
C1369 C 0.59289 0.98936 0.16375 0.0
C1370 C 0.56581 0.96032 0.27663 0.0
C1371 C 0.55532 0.94009 0.27996 0.0
C1372 C 0.56231 0.92867 0.26047 0.0
C1373 C 0.58035 0.93811 0.23855 0.0
C1374 C 0.59088 0.9584 0.23537 0.0
H1375 H 0.59291 0.99836 0.13527 0.0
H1376 H 0.60333 0.98443 0.15592 0.0
H1377 H 0.57823 0.97638 0.16649 0.0
H1378 H 0.55987 0.96867 0.29129 0.0
H1379 H 0.54151 0.93341 0.29713 0.0
H1380 H 0.5436 0.61363 0.71107 0.0
H1381 H 0.56346 0.5983 0.71508 0.0
H1382 H 0.60631 0.6465 0.79235 0.0
H1383 H 0.58627 0.66184 0.78934 0.0
H1384 H 0.59982 0.60944 0.68661 0.0
H1385 H 0.59601 0.60097 0.87153 0.0
H1386 H 0.58083 0.60779 0.84081 0.0
H1387 H 0.60562 0.62551 0.85284 0.0
C1388 C 0.55727 0.62108 0.72885 0.0
C1389 C 0.56323 0.63897 0.75015 0.0
C1390 C 0.56864 0.61225 0.73108 0.0
C1391 C 0.58625 0.62103 0.7547 0.0
C1392 C 0.59257 0.63919 0.77483 0.0
H1393 H 0.66902 0.57877 0.73132 0.0
H1394 H 0.65382 0.59893 0.72882 0.0
C1395 C 0.58115 0.64802 0.77277 0.0
C1396 C 0.59778 0.611 0.75823 0.0
H1397 H 0.61603 0.5917 0.83314 0.0
C1398 C 0.60343 0.60564 0.71866 0.0
C1399 C 0.60227 0.60576 0.80004 0.0
C1400 C 0.59574 0.61012 0.84375 0.0
C1401 C 0.61334 0.59516 0.7197 0.0
C1402 C 0.61815 0.59023 0.76152 0.0
C1403 C 0.61255 0.59564 0.80109 0.0
C1404 C 0.62806 0.57858 0.76493 0.0
C1405 C 0.61795 0.58889 0.67591 0.0
C1406 C 0.61904 0.56074 0.78756 0.0
C1407 C 0.62779 0.54927 0.78951 0.0
C1408 C 0.64581 0.55538 0.76888 0.0
C1409 C 0.65508 0.57352 0.74729 0.0
C1410 C 0.64634 0.58503 0.74555 0.0
H1411 H 0.60904 0.58943 0.6479 0.0
H1412 H 0.63341 0.59878 0.66755 0.0
H1413 H 0.61552 0.57393 0.67831 0.0
H1414 H 0.60499 0.55546 0.80299 0.0
H1415 H 0.62019 0.53543 0.8065 0.0
H1416 H 0.09634 0.61906 0.33089 0.0
H1417 H 0.06102 0.60317 0.32906 0.0
H1418 H 0.06416 0.63846 0.21619 0.0
H1419 H 0.09956 0.65499 0.21901 0.0
H1420 H 0.03657 0.63457 0.27132 0.0
H1421 H 0.02743 0.56186 0.2422 0.0
H1422 H 0.04016 0.57251 0.29332 0.0
H1423 H 0.0508 0.58361 0.24042 0.0
C1424 C 0.08954 0.62355 0.30584 0.0
C1425 C 0.10084 0.63823 0.27488 0.0
C1426 C 0.06929 0.61431 0.30457 0.0
C1427 C 0.05981 0.61919 0.27168 0.0
C1428 C 0.07107 0.63429 0.24169 0.0
H1429 H 0.93964 0.54227 0.19603 0.0
H1430 H 0.97487 0.56226 0.19884 0.0
C1431 C 0.09135 0.64375 0.24335 0.0
C1432 C 0.03821 0.60843 0.26814 0.0
H1433 H 0.99885 0.56296 0.25848 0.0
C1434 C 0.02833 0.61891 0.26833 0.0
C1435 C 0.02738 0.588 0.26336 0.0
C1436 C 0.03699 0.57586 0.25932 0.0
C1437 C 1.00801 0.60957 0.26447 0.0
C1438 C 0.99713 0.58907 0.26168 0.0
C1439 C 1.00706 0.57864 0.26104 0.0
C1440 C 0.97552 0.57805 0.25848 0.0
C1441 C 0.99852 0.62186 0.2622 0.0
C1442 C 0.96394 0.58027 0.29079 0.0
C1443 C 0.94368 0.56904 0.28878 0.0
C1444 C 0.93454 0.55503 0.25497 0.0
C1445 C 0.94615 0.55292 0.22253 0.0
C1446 C 0.96636 0.56433 0.22418 0.0
H1447 H 1.00882 0.63678 0.25046 0.0
H1448 H 0.98579 0.61539 0.23942 0.0
H1449 H 0.99357 0.62302 0.29619 0.0
H1450 H 0.97056 0.59031 0.31835 0.0
H1451 H 0.9352 0.57088 0.31462 0.0
H1452 H 0.41484 0.93723 0.69452 0.0
H1453 H 0.43179 0.97253 0.70083 0.0
H1454 H 0.39751 0.96796 0.81673 0.0
H1455 H 0.3799 0.93264 0.80944 0.0
H1456 H 0.40174 0.99674 0.76705 0.0
H1457 H 0.4741 1.00419 0.78697 0.0
H1458 H 0.46297 0.99253 0.73519 0.0
H1459 H 0.45217 0.98094 0.78761 0.0
C1460 C 0.4108 0.94373 0.72119 0.0
C1461 C 0.39604 0.93205 0.75161 0.0
C1462 C 0.42068 0.96396 0.72508 0.0
C1463 C 0.4164 0.97302 0.7601 0.0
C1464 C 0.40125 0.9614 0.78964 0.0
H1465 H 0.49638 0.09479 0.83049 0.0
H1466 H 0.4769 0.05929 0.83135 0.0
C1467 C 0.39115 0.94116 0.78538 0.0
C1468 C 0.42758 0.99455 0.76576 0.0
H1469 H 0.47352 0.03341 0.77292 0.0
C1470 C 0.41743 1.00472 0.76865 0.0
C1471 C 0.44808 1.00507 0.76895 0.0
C1472 C 0.45995 0.9951 0.77003 0.0
C1473 C 0.42715 0.02502 0.77336 0.0
C1474 C 0.44769 0.03563 0.77372 0.0
C1475 C 0.45781 0.02541 0.77209 0.0
C1476 C 0.45896 0.0573 0.77471 0.0
C1477 C 0.41519 0.03476 0.77874 0.0
C1478 C 0.45555 0.06813 0.74256 0.0
C1479 C 0.46644 0.08838 0.74246 0.0
C1480 C 0.48139 0.09841 0.77391 0.0
C1481 C 0.48496 0.08758 0.80589 0.0
C1482 C 0.47384 0.06726 0.80633 0.0
H1483 H 0.40079 0.02471 0.79347 0.0
H1484 H 0.4226 0.0478 0.80042 0.0
H1485 H 0.41269 0.03922 0.74532 0.0
H1486 H 0.44467 0.06091 0.71682 0.0
H1487 H 0.46341 0.09615 0.71689 0.0
loop_
_geom_bond_atom_site_label_1
_geom_bond_atom_site_label_2
_geom_bond_distance
_geom_bond_site_symmetry_2
_ccdc_geom_bond_type
Co0 O3 1.970 . S
Co0 N17 1.989 . S
Co0 O25 1.967 . S
Co0 O32 1.920 . S
Co1 O4 1.966 . S
Co1 N10 2.022 . S
Co1 N18 1.993 . S
Co1 O26 1.941 . S
C2 O3 1.258 . S
C2 O4 1.263 . S
O3 Co0 1.970 . S
O3 C2 1.258 . S
O4 Co1 1.966 . S
O4 C2 1.263 . S
C5 O6 1.235 . S
C5 O32 1.289 . S
O6 C5 1.235 . S
C7 C9 1.400 . S
C7 N10 1.351 . S
C7 C12 1.501 . S
C8 C9 1.387 . S
C8 N11 1.341 . S
C9 C7 1.400 . S
C9 C8 1.387 . S
N10 Co1 2.022 . S
N10 C7 1.351 . S
N10 N11 1.365 . S
N11 C8 1.341 . S
N11 N10 1.365 . S
N11 H31 0.862 . S
C12 C7 1.501 . S
C12 H13 0.961 . S
C12 H14 0.961 . S
C12 H15 0.960 . S
H13 C12 0.961 . S
H14 C12 0.961 . S
H15 C12 0.960 . S
C16 N17 1.342 . S
C16 C20 1.401 . S
C16 C21 1.499 . S
N17 Co0 1.989 . S
N17 C16 1.342 . S
N17 N18 1.388 . S
N18 Co1 1.993 . S
N18 N17 1.388 . S
N18 C19 1.346 . S
C19 N18 1.346 . S
C19 C20 1.396 . S
C19 C29 1.510 . S
C20 C16 1.401 . S
C20 C19 1.396 . S
C21 C16 1.499 . S
C21 H22 0.959 . S
C21 H23 0.960 . S
C21 H24 0.961 . S
H22 C21 0.959 . S
H23 C21 0.960 . S
H24 C21 0.961 . S
O25 Co0 1.967 . S
O25 C33 1.258 . S
O26 Co1 1.941 . S
O26 C33 1.266 . S
H27 C29 0.959 . S
H28 C29 0.961 . S
C29 C19 1.510 . S
C29 H27 0.959 . S
C29 H28 0.961 . S
C29 H30 0.960 . S
H30 C29 0.960 . S
H31 N11 0.862 . S
O32 Co0 1.920 . S
O32 C5 1.289 . S
C33 O25 1.258 . S
C33 O26 1.266 . S
Co34 O37 1.970 . S
Co34 N51 1.989 . S
Co34 O59 1.967 . S
Co34 O66 1.920 . S
Co35 O38 1.966 . S
Co35 N44 2.022 . S
Co35 N52 1.993 . S
Co35 O60 1.941 . S
C36 O37 1.258 . S
C36 O38 1.263 . S
O37 Co34 1.970 . S
O37 C36 1.258 . S
O38 Co35 1.966 . S
O38 C36 1.263 . S
C39 O40 1.235 . S
C39 O66 1.289 . S
O40 C39 1.235 . S
C41 C43 1.400 . S
C41 N44 1.351 . S
C41 C46 1.501 . S
C42 C43 1.387 . S
C42 N45 1.341 . S
C43 C41 1.400 . S
C43 C42 1.387 . S
N44 Co35 2.022 . S
N44 C41 1.351 . S
N44 N45 1.365 . S
N45 C42 1.341 . S
N45 N44 1.365 . S
N45 H65 0.862 . S
C46 C41 1.501 . S
C46 H47 0.961 . S
C46 H48 0.961 . S
C46 H49 0.960 . S
H47 C46 0.961 . S
H48 C46 0.961 . S
H49 C46 0.960 . S
C50 N51 1.342 . S
C50 C54 1.401 . S
C50 C55 1.499 . S
N51 Co34 1.989 . S
N51 C50 1.342 . S
N51 N52 1.388 . S
N52 Co35 1.993 . S
N52 N51 1.388 . S
N52 C53 1.346 . S
C53 N52 1.346 . S
C53 C54 1.396 . S
C53 C63 1.510 . S
C54 C50 1.401 . S
C54 C53 1.396 . S
C55 C50 1.499 . S
C55 H56 0.959 . S
C55 H57 0.960 . S
C55 H58 0.961 . S
H56 C55 0.959 . S
H57 C55 0.960 . S
H58 C55 0.961 . S
O59 Co34 1.967 . S
O59 C67 1.258 . S
O60 Co35 1.941 . S
O60 C67 1.266 . S
H61 C63 0.959 . S
H62 C63 0.961 . S
C63 C53 1.510 . S
C63 H61 0.959 . S
C63 H62 0.961 . S
C63 H64 0.960 . S
H64 C63 0.960 . S
H65 N45 0.862 . S
O66 Co34 1.920 . S
O66 C39 1.289 . S
C67 O59 1.258 . S
C67 O60 1.266 . S
Co68 O71 1.970 . S
Co68 N85 1.989 . S
Co68 O93 1.967 . S
Co68 O100 1.920 . S
Co69 O72 1.966 . S
Co69 N78 2.022 . S
Co69 N86 1.993 . S
Co69 O94 1.941 . S
C70 O71 1.258 . S
C70 O72 1.263 . S
O71 Co68 1.970 . S
O71 C70 1.258 . S
O72 Co69 1.966 . S
O72 C70 1.263 . S
C73 O74 1.235 . S
C73 O100 1.289 . S
O74 C73 1.235 . S
C75 C77 1.400 . S
C75 N78 1.351 . S
C75 C80 1.501 . S
C76 C77 1.387 . S
C76 N79 1.341 . S
C77 C75 1.400 . S
C77 C76 1.387 . S
N78 Co69 2.022 . S
N78 C75 1.351 . S
N78 N79 1.365 . S
N79 C76 1.341 . S
N79 N78 1.365 . S
N79 H99 0.862 . S
C80 C75 1.501 . S
C80 H81 0.961 . S
C80 H82 0.961 . S
C80 H83 0.960 . S
H81 C80 0.961 . S
H82 C80 0.961 . S
H83 C80 0.960 . S
C84 N85 1.342 . S
C84 C88 1.401 . S
C84 C89 1.499 . S
N85 Co68 1.989 . S
N85 C84 1.342 . S
N85 N86 1.388 . S
N86 Co69 1.993 . S
N86 N85 1.388 . S
N86 C87 1.346 . S
C87 N86 1.346 . S
C87 C88 1.396 . S
C87 C97 1.510 . S
C88 C84 1.401 . S
C88 C87 1.396 . S
C89 C84 1.499 . S
C89 H90 0.959 . S
C89 H91 0.960 . S
C89 H92 0.961 . S
H90 C89 0.959 . S
H91 C89 0.960 . S
H92 C89 0.961 . S
O93 Co68 1.967 . S
O93 C101 1.258 . S
O94 Co69 1.941 . S
O94 C101 1.266 . S
H95 C97 0.959 . S
H96 C97 0.961 . S
C97 C87 1.510 . S
C97 H95 0.959 . S
C97 H96 0.961 . S
C97 H98 0.960 . S
H98 C97 0.960 . S
H99 N79 0.862 . S
O100 Co68 1.920 . S
O100 C73 1.289 . S
C101 O93 1.258 . S
C101 O94 1.266 . S
Co102 O105 1.970 . S
Co102 N119 1.989 . S
Co102 O127 1.967 . S
Co102 O134 1.920 . S
Co103 O106 1.966 . S
Co103 N112 2.022 . S
Co103 N120 1.993 . S
Co103 O128 1.941 . S
C104 O105 1.258 . S
C104 O106 1.263 . S
O105 Co102 1.970 . S
O105 C104 1.258 . S
O106 Co103 1.966 . S
O106 C104 1.263 . S
C107 O108 1.235 . S
C107 O134 1.289 . S
O108 C107 1.235 . S
C109 C111 1.400 . S
C109 N112 1.351 . S
C109 C114 1.501 . S
C110 C111 1.387 . S
C110 N113 1.341 . S
C111 C109 1.400 . S
C111 C110 1.387 . S
N112 Co103 2.022 . S
N112 C109 1.351 . S
N112 N113 1.365 . S
N113 C110 1.341 . S
N113 N112 1.365 . S
N113 H133 0.862 . S
C114 C109 1.501 . S
C114 H115 0.961 . S
C114 H116 0.961 . S
C114 H117 0.960 . S
H115 C114 0.961 . S
H116 C114 0.961 . S
H117 C114 0.960 . S
C118 N119 1.342 . S
C118 C122 1.401 . S
C118 C123 1.499 . S
N119 Co102 1.989 . S
N119 C118 1.342 . S
N119 N120 1.388 . S
N120 Co103 1.993 . S
N120 N119 1.388 . S
N120 C121 1.346 . S
C121 N120 1.346 . S
C121 C122 1.396 . S
C121 C131 1.510 . S
C122 C118 1.401 . S
C122 C121 1.396 . S
C123 C118 1.499 . S
C123 H124 0.959 . S
C123 H125 0.960 . S
C123 H126 0.961 . S
H124 C123 0.959 . S
H125 C123 0.960 . S
H126 C123 0.961 . S
O127 Co102 1.967 . S
O127 C135 1.258 . S
O128 Co103 1.941 . S
O128 C135 1.266 . S
H129 C131 0.959 . S
H130 C131 0.961 . S
C131 C121 1.510 . S
C131 H129 0.959 . S
C131 H130 0.961 . S
C131 H132 0.960 . S
H132 C131 0.960 . S
H133 N113 0.862 . S
O134 Co102 1.920 . S
O134 C107 1.289 . S
C135 O127 1.258 . S
C135 O128 1.266 . S
Co136 O139 1.970 . S
Co136 N153 1.989 . S
Co136 O161 1.967 . S
Co136 O168 1.920 . S
Co137 O140 1.966 . S
Co137 N146 2.022 . S
Co137 N154 1.993 . S
Co137 O162 1.941 . S
C138 O139 1.258 . S
C138 O140 1.263 . S
O139 Co136 1.970 . S
O139 C138 1.258 . S
O140 Co137 1.966 . S
O140 C138 1.263 . S
C141 O142 1.235 . S
C141 O168 1.289 . S
O142 C141 1.235 . S
C143 C145 1.400 . S
C143 N146 1.351 . S
C143 C148 1.501 . S
C144 C145 1.387 . S
C144 N147 1.341 . S
C145 C143 1.400 . S
C145 C144 1.387 . S
N146 Co137 2.022 . S
N146 C143 1.351 . S
N146 N147 1.365 . S
N147 C144 1.341 . S
N147 N146 1.365 . S
N147 H167 0.862 . S
C148 C143 1.501 . S
C148 H149 0.961 . S
C148 H150 0.961 . S
C148 H151 0.960 . S
H149 C148 0.961 . S
H150 C148 0.961 . S
H151 C148 0.960 . S
C152 N153 1.342 . S
C152 C156 1.401 . S
C152 C157 1.499 . S
N153 Co136 1.989 . S
N153 C152 1.342 . S
N153 N154 1.388 . S
N154 Co137 1.993 . S
N154 N153 1.388 . S
N154 C155 1.346 . S
C155 N154 1.346 . S
C155 C156 1.396 . S
C155 C165 1.510 . S
C156 C152 1.401 . S
C156 C155 1.396 . S
C157 C152 1.499 . S
C157 H158 0.959 . S
C157 H159 0.960 . S
C157 H160 0.961 . S
H158 C157 0.959 . S
H159 C157 0.960 . S
H160 C157 0.961 . S
O161 Co136 1.967 . S
O161 C169 1.258 . S
O162 Co137 1.941 . S
O162 C169 1.266 . S
H163 C165 0.959 . S
H164 C165 0.961 . S
C165 C155 1.510 . S
C165 H163 0.959 . S
C165 H164 0.961 . S
C165 H166 0.960 . S
H166 C165 0.960 . S
H167 N147 0.862 . S
O168 Co136 1.920 . S
O168 C141 1.289 . S
C169 O161 1.258 . S
C169 O162 1.266 . S
Co170 O173 1.970 . S
Co170 N187 1.989 . S
Co170 O195 1.967 . S
Co170 O202 1.920 . S
Co171 O174 1.966 . S
Co171 N180 2.022 . S
Co171 N188 1.993 . S
Co171 O196 1.941 . S
C172 O173 1.258 . S
C172 O174 1.263 . S
O173 Co170 1.970 . S
O173 C172 1.258 . S
O174 Co171 1.966 . S
O174 C172 1.263 . S
C175 O176 1.235 . S
C175 O202 1.289 . S
O176 C175 1.235 . S
C177 C179 1.400 . S
C177 N180 1.351 . S
C177 C182 1.501 . S
C178 C179 1.387 . S
C178 N181 1.341 . S
C179 C177 1.400 . S
C179 C178 1.387 . S
N180 Co171 2.022 . S
N180 C177 1.351 . S
N180 N181 1.365 . S
N181 C178 1.341 . S
N181 N180 1.365 . S
N181 H201 0.862 . S
C182 C177 1.501 . S
C182 H183 0.961 . S
C182 H184 0.961 . S
C182 H185 0.960 . S
H183 C182 0.961 . S
H184 C182 0.961 . S
H185 C182 0.960 . S
C186 N187 1.342 . S
C186 C190 1.401 . S
C186 C191 1.499 . S
N187 Co170 1.989 . S
N187 C186 1.342 . S
N187 N188 1.388 . S
N188 Co171 1.993 . S
N188 N187 1.388 . S
N188 C189 1.346 . S
C189 N188 1.346 . S
C189 C190 1.396 . S
C189 C199 1.510 . S
C190 C186 1.401 . S
C190 C189 1.396 . S
C191 C186 1.499 . S
C191 H192 0.959 . S
C191 H193 0.960 . S
C191 H194 0.961 . S
H192 C191 0.959 . S
H193 C191 0.960 . S
H194 C191 0.961 . S
O195 Co170 1.967 . S
O195 C203 1.258 . S
O196 Co171 1.941 . S
O196 C203 1.266 . S
H197 C199 0.959 . S
H198 C199 0.961 . S
C199 C189 1.510 . S
C199 H197 0.959 . S
C199 H198 0.961 . S
C199 H200 0.960 . S
H200 C199 0.960 . S
H201 N181 0.862 . S
O202 Co170 1.920 . S
O202 C175 1.289 . S
C203 O195 1.258 . S
C203 O196 1.266 . S
Co204 O207 1.970 . S
Co204 N221 1.989 . S
Co204 O229 1.967 . S
Co204 O236 1.920 . S
Co205 O208 1.966 . S
Co205 N214 2.022 . S
Co205 N222 1.993 . S
Co205 O230 1.941 . S
C206 O207 1.258 . S
C206 O208 1.263 . S
O207 Co204 1.970 . S
O207 C206 1.258 . S
O208 Co205 1.966 . S
O208 C206 1.263 . S
C209 O210 1.235 . S
C209 O236 1.289 . S
O210 C209 1.235 . S
C211 C213 1.400 . S
C211 N214 1.351 . S
C211 C216 1.501 . S
C212 C213 1.387 . S
C212 N215 1.341 . S
C213 C211 1.400 . S
C213 C212 1.387 . S
N214 Co205 2.022 . S
N214 C211 1.351 . S
N214 N215 1.365 . S
N215 C212 1.341 . S
N215 N214 1.365 . S
N215 H235 0.862 . S
C216 C211 1.501 . S
C216 H217 0.961 . S
C216 H218 0.961 . S
C216 H219 0.960 . S
H217 C216 0.961 . S
H218 C216 0.961 . S
H219 C216 0.960 . S
C220 N221 1.342 . S
C220 C224 1.401 . S
C220 C225 1.499 . S
N221 Co204 1.989 . S
N221 C220 1.342 . S
N221 N222 1.388 . S
N222 Co205 1.993 . S
N222 N221 1.388 . S
N222 C223 1.346 . S
C223 N222 1.346 . S
C223 C224 1.396 . S
C223 C233 1.510 . S
C224 C220 1.401 . S
C224 C223 1.396 . S
C225 C220 1.499 . S
C225 H226 0.959 . S
C225 H227 0.960 . S
C225 H228 0.961 . S
H226 C225 0.959 . S
H227 C225 0.960 . S
H228 C225 0.961 . S
O229 Co204 1.967 . S
O229 C237 1.258 . S
O230 Co205 1.941 . S
O230 C237 1.266 . S
H231 C233 0.959 . S
H232 C233 0.961 . S
C233 C223 1.510 . S
C233 H231 0.959 . S
C233 H232 0.961 . S
C233 H234 0.960 . S
H234 C233 0.960 . S
H235 N215 0.862 . S
O236 Co204 1.920 . S
O236 C209 1.289 . S
C237 O229 1.258 . S
C237 O230 1.266 . S
Co238 O241 1.970 . S
Co238 N255 1.989 . S
Co238 O263 1.967 . S
Co238 O270 1.920 . S
Co239 O242 1.966 . S
Co239 N248 2.022 . S
Co239 N256 1.993 . S
Co239 O264 1.941 . S
C240 O241 1.258 . S
C240 O242 1.263 . S
O241 Co238 1.970 . S
O241 C240 1.258 . S
O242 Co239 1.966 . S
O242 C240 1.263 . S
C243 O244 1.235 . S
C243 O270 1.289 . S
O244 C243 1.235 . S
C245 C247 1.400 . S
C245 N248 1.351 . S
C245 C250 1.501 . S
C246 C247 1.387 . S
C246 N249 1.341 . S
C247 C245 1.400 . S
C247 C246 1.387 . S
N248 Co239 2.022 . S
N248 C245 1.351 . S
N248 N249 1.365 . S
N249 C246 1.341 . S
N249 N248 1.365 . S
N249 H269 0.862 . S
C250 C245 1.501 . S
C250 H251 0.961 . S
C250 H252 0.961 . S
C250 H253 0.960 . S
H251 C250 0.961 . S
H252 C250 0.961 . S
H253 C250 0.960 . S
C254 N255 1.342 . S
C254 C258 1.401 . S
C254 C259 1.499 . S
N255 Co238 1.989 . S
N255 C254 1.342 . S
N255 N256 1.388 . S
N256 Co239 1.993 . S
N256 N255 1.388 . S
N256 C257 1.346 . S
C257 N256 1.346 . S
C257 C258 1.396 . S
C257 C267 1.510 . S
C258 C254 1.401 . S
C258 C257 1.396 . S
C259 C254 1.499 . S
C259 H260 0.959 . S
C259 H261 0.960 . S
C259 H262 0.961 . S
H260 C259 0.959 . S
H261 C259 0.960 . S
H262 C259 0.961 . S
O263 Co238 1.967 . S
O263 C271 1.258 . S
O264 Co239 1.941 . S
O264 C271 1.266 . S
H265 C267 0.959 . S
H266 C267 0.961 . S
C267 C257 1.510 . S
C267 H265 0.959 . S
C267 H266 0.961 . S
C267 H268 0.960 . S
H268 C267 0.960 . S
H269 N249 0.862 . S
O270 Co238 1.920 . S
O270 C243 1.289 . S
C271 O263 1.258 . S
C271 O264 1.266 . S
Co272 O275 1.970 . S
Co272 N289 1.989 . S
Co272 O297 1.967 . S
Co272 O304 1.920 . S
Co273 O276 1.966 . S
Co273 N282 2.022 . S
Co273 N290 1.993 . S
Co273 O298 1.941 . S
C274 O275 1.258 . S
C274 O276 1.263 . S
O275 Co272 1.970 . S
O275 C274 1.258 . S
O276 Co273 1.966 . S
O276 C274 1.263 . S
C277 O278 1.235 . S
C277 O304 1.289 . S
O278 C277 1.235 . S
C279 C281 1.400 . S
C279 N282 1.351 . S
C279 C284 1.501 . S
C280 C281 1.387 . S
C280 N283 1.341 . S
C281 C279 1.400 . S
C281 C280 1.387 . S
N282 Co273 2.022 . S
N282 C279 1.351 . S
N282 N283 1.365 . S
N283 C280 1.341 . S
N283 N282 1.365 . S
N283 H303 0.862 . S
C284 C279 1.501 . S
C284 H285 0.961 . S
C284 H286 0.961 . S
C284 H287 0.960 . S
H285 C284 0.961 . S
H286 C284 0.961 . S
H287 C284 0.960 . S
C288 N289 1.342 . S
C288 C292 1.401 . S
C288 C293 1.499 . S
N289 Co272 1.989 . S
N289 C288 1.342 . S
N289 N290 1.388 . S
N290 Co273 1.993 . S
N290 N289 1.388 . S
N290 C291 1.346 . S
C291 N290 1.346 . S
C291 C292 1.396 . S
C291 C301 1.510 . S
C292 C288 1.401 . S
C292 C291 1.396 . S
C293 C288 1.499 . S
C293 H294 0.959 . S
C293 H295 0.960 . S
C293 H296 0.961 . S
H294 C293 0.959 . S
H295 C293 0.960 . S
H296 C293 0.961 . S
O297 Co272 1.967 . S
O297 C305 1.258 . S
O298 Co273 1.941 . S
O298 C305 1.266 . S
H299 C301 0.959 . S
H300 C301 0.961 . S
C301 C291 1.510 . S
C301 H299 0.959 . S
C301 H300 0.961 . S
C301 H302 0.960 . S
H302 C301 0.960 . S
H303 N283 0.862 . S
O304 Co272 1.920 . S
O304 C277 1.289 . S
C305 O297 1.258 . S
C305 O298 1.266 . S
Co306 O309 1.970 . S
Co306 N323 1.989 . S
Co306 O331 1.967 . S
Co306 O338 1.920 . S
Co307 O310 1.966 . S
Co307 N316 2.022 . S
Co307 N324 1.993 . S
Co307 O332 1.941 . S
C308 O309 1.258 . S
C308 O310 1.263 . S
O309 Co306 1.970 . S
O309 C308 1.258 . S
O310 Co307 1.966 . S
O310 C308 1.263 . S
C311 O312 1.235 . S
C311 O338 1.289 . S
O312 C311 1.235 . S
C313 C315 1.400 . S
C313 N316 1.351 . S
C313 C318 1.501 . S
C314 C315 1.387 . S
C314 N317 1.341 . S
C315 C313 1.400 . S
C315 C314 1.387 . S
N316 Co307 2.022 . S
N316 C313 1.351 . S
N316 N317 1.365 . S
N317 C314 1.341 . S
N317 N316 1.365 . S
N317 H337 0.862 . S
C318 C313 1.501 . S
C318 H319 0.961 . S
C318 H320 0.961 . S
C318 H321 0.960 . S
H319 C318 0.961 . S
H320 C318 0.961 . S
H321 C318 0.960 . S
C322 N323 1.342 . S
C322 C326 1.401 . S
C322 C327 1.499 . S
N323 Co306 1.989 . S
N323 C322 1.342 . S
N323 N324 1.388 . S
N324 Co307 1.993 . S
N324 N323 1.388 . S
N324 C325 1.346 . S
C325 N324 1.346 . S
C325 C326 1.396 . S
C325 C335 1.510 . S
C326 C322 1.401 . S
C326 C325 1.396 . S
C327 C322 1.499 . S
C327 H328 0.959 . S
C327 H329 0.960 . S
C327 H330 0.961 . S
H328 C327 0.959 . S
H329 C327 0.960 . S
H330 C327 0.961 . S
O331 Co306 1.967 . S
O331 C339 1.258 . S
O332 Co307 1.941 . S
O332 C339 1.266 . S
H333 C335 0.959 . S
H334 C335 0.961 . S
C335 C325 1.510 . S
C335 H333 0.959 . S
C335 H334 0.961 . S
C335 H336 0.960 . S
H336 C335 0.960 . S
H337 N317 0.862 . S
O338 Co306 1.920 . S
O338 C311 1.289 . S
C339 O331 1.258 . S
C339 O332 1.266 . S
Co340 O343 1.970 . S
Co340 N357 1.989 . S
Co340 O365 1.967 . S
Co340 O372 1.920 . S
Co341 O344 1.966 . S
Co341 N350 2.022 . S
Co341 N358 1.993 . S
Co341 O366 1.941 . S
C342 O343 1.258 . S
C342 O344 1.263 . S
O343 Co340 1.970 . S
O343 C342 1.258 . S
O344 Co341 1.966 . S
O344 C342 1.263 . S
C345 O346 1.235 . S
C345 O372 1.289 . S
O346 C345 1.235 . S
C347 C349 1.400 . S
C347 N350 1.351 . S
C347 C352 1.501 . S
C348 C349 1.387 . S
C348 N351 1.341 . S
C349 C347 1.400 . S
C349 C348 1.387 . S
N350 Co341 2.022 . S
N350 C347 1.351 . S
N350 N351 1.365 . S
N351 C348 1.341 . S
N351 N350 1.365 . S
N351 H371 0.862 . S
C352 C347 1.501 . S
C352 H353 0.961 . S
C352 H354 0.961 . S
C352 H355 0.960 . S
H353 C352 0.961 . S
H354 C352 0.961 . S
H355 C352 0.960 . S
C356 N357 1.342 . S
C356 C360 1.401 . S
C356 C361 1.499 . S
N357 Co340 1.989 . S
N357 C356 1.342 . S
N357 N358 1.388 . S
N358 Co341 1.993 . S
N358 N357 1.388 . S
N358 C359 1.346 . S
C359 N358 1.346 . S
C359 C360 1.396 . S
C359 C369 1.510 . S
C360 C356 1.401 . S
C360 C359 1.396 . S
C361 C356 1.499 . S
C361 H362 0.959 . S
C361 H363 0.960 . S
C361 H364 0.961 . S
H362 C361 0.959 . S
H363 C361 0.960 . S
H364 C361 0.961 . S
O365 Co340 1.967 . S
O365 C373 1.258 . S
O366 Co341 1.941 . S
O366 C373 1.266 . S
H367 C369 0.959 . S
H368 C369 0.961 . S
C369 C359 1.510 . S
C369 H367 0.959 . S
C369 H368 0.961 . S
C369 H370 0.960 . S
H370 C369 0.960 . S
H371 N351 0.862 . S
O372 Co340 1.920 . S
O372 C345 1.289 . S
C373 O365 1.258 . S
C373 O366 1.266 . S
Co374 O377 1.970 . S
Co374 N391 1.989 . S
Co374 O399 1.967 . S
Co374 O406 1.920 . S
Co375 O378 1.966 . S
Co375 N384 2.022 . S
Co375 N392 1.993 . S
Co375 O400 1.941 . S
C376 O377 1.258 . S
C376 O378 1.263 . S
O377 Co374 1.970 . S
O377 C376 1.258 . S
O378 Co375 1.966 . S
O378 C376 1.263 . S
C379 O380 1.235 . S
C379 O406 1.289 . S
O380 C379 1.235 . S
C381 C383 1.400 . S
C381 N384 1.351 . S
C381 C386 1.501 . S
C382 C383 1.387 . S
C382 N385 1.341 . S
C383 C381 1.400 . S
C383 C382 1.387 . S
N384 Co375 2.022 . S
N384 C381 1.351 . S
N384 N385 1.365 . S
N385 C382 1.341 . S
N385 N384 1.365 . S
N385 H405 0.862 . S
C386 C381 1.501 . S
C386 H387 0.961 . S
C386 H388 0.961 . S
C386 H389 0.960 . S
H387 C386 0.961 . S
H388 C386 0.961 . S
H389 C386 0.960 . S
C390 N391 1.342 . S
C390 C394 1.401 . S
C390 C395 1.499 . S
N391 Co374 1.989 . S
N391 C390 1.342 . S
N391 N392 1.388 . S
N392 Co375 1.993 . S
N392 N391 1.388 . S
N392 C393 1.346 . S
C393 N392 1.346 . S
C393 C394 1.396 . S
C393 C403 1.510 . S
C394 C390 1.401 . S
C394 C393 1.396 . S
C395 C390 1.499 . S
C395 H396 0.959 . S
C395 H397 0.960 . S
C395 H398 0.961 . S
H396 C395 0.959 . S
H397 C395 0.960 . S
H398 C395 0.961 . S
O399 Co374 1.967 . S
O399 C407 1.258 . S
O400 Co375 1.941 . S
O400 C407 1.266 . S
H401 C403 0.959 . S
H402 C403 0.961 . S
C403 C393 1.510 . S
C403 H401 0.959 . S
C403 H402 0.961 . S
C403 H404 0.960 . S
H404 C403 0.960 . S
H405 N385 0.862 . S
O406 Co374 1.920 . S
O406 C379 1.289 . S
C407 O399 1.258 . S
C407 O400 1.266 . S
H408 C416 0.929 . S
H409 C418 0.930 . S
H410 C420 0.930 . S
H411 C423 0.929 . S
H412 C426 0.930 . S
H413 C428 0.960 . S
H414 C428 0.960 . S
H415 C428 0.960 . S
C416 H408 0.929 . S
C416 C417 1.377 . S
C416 C418 1.384 . S
C417 C416 1.377 . S
C417 C423 1.390 . S
C418 H409 0.930 . S
C418 C416 1.384 . S
C418 C419 1.372 . S
C419 C418 1.372 . S
C419 C420 1.400 . S
C419 C424 1.490 . S
C420 H410 0.930 . S
C420 C419 1.400 . S
C420 C423 1.386 . S
H421 C437 0.930 . S
H422 C438 0.931 . S
C423 H411 0.929 . S
C423 C417 1.390 . S
C423 C420 1.386 . S
C424 C419 1.490 . S
C424 C426 1.395 . S
C424 C427 1.403 1_554 S
H425 C431 0.930 . S
C426 H412 0.930 . S
C426 C424 1.395 . S
C426 C429 1.403 . S
C427 C424 1.403 1_556 S
C427 C428 1.524 . S
C427 C431 1.400 . S
C428 H413 0.960 . S
C428 H414 0.960 . S
C428 H415 0.960 . S
C428 C427 1.524 . S
C429 C426 1.403 . S
C429 C430 1.392 1_554 S
C429 C433 1.495 . S
C430 C429 1.392 1_556 S
C430 C431 1.385 . S
C430 C432 1.478 . S
C431 H425 0.930 . S
C431 C427 1.400 . S
C431 C430 1.385 . S
C432 C430 1.478 . S
C432 C434 1.381 . S
C432 C438 1.383 . S
C433 C429 1.495 . S
C433 H439 0.959 . S
C433 H440 0.961 . S
C433 H441 0.960 . S
C434 C432 1.381 . S
C434 C435 1.394 . S
C434 H442 0.930 . S
C435 C434 1.394 . S
C435 C436 1.383 . S
C435 H443 0.929 . S
C436 C435 1.383 . S
C436 C437 1.377 . S
C437 H421 0.930 . S
C437 C436 1.377 . S
C437 C438 1.379 . S
C438 H422 0.931 . S
C438 C432 1.383 . S
C438 C437 1.379 . S
H439 C433 0.959 . S
H440 C433 0.961 . S
H441 C433 0.960 . S
H442 C434 0.930 . S
H443 C435 0.929 . S
H444 C452 0.929 . S
H445 C454 0.930 . S
H446 C456 0.930 . S
H447 C459 0.929 . S
H448 C462 0.930 . S
H449 C464 0.960 . S
H450 C464 0.960 . S
H451 C464 0.960 . S
C452 H444 0.929 . S
C452 C453 1.377 . S
C452 C454 1.384 . S
C453 C452 1.377 . S
C453 C459 1.390 . S
C454 H445 0.930 . S
C454 C452 1.384 . S
C454 C455 1.372 . S
C455 C454 1.372 . S
C455 C456 1.400 . S
C455 C460 1.490 . S
C456 H446 0.930 . S
C456 C455 1.400 . S
C456 C459 1.386 . S
H457 C473 0.930 . S
H458 C474 0.931 . S
C459 H447 0.929 . S
C459 C453 1.390 . S
C459 C456 1.386 . S
C460 C455 1.490 . S
C460 C462 1.395 . S
C460 C463 1.403 . S
H461 C467 0.930 . S
C462 H448 0.930 . S
C462 C460 1.395 . S
C462 C465 1.403 . S
C463 C460 1.403 . S
C463 C464 1.524 . S
C463 C467 1.400 . S
C464 H449 0.960 . S
C464 H450 0.960 . S
C464 H451 0.960 . S
C464 C463 1.524 . S
C465 C462 1.403 . S
C465 C466 1.392 . S
C465 C469 1.495 . S
C466 C465 1.392 . S
C466 C467 1.385 . S
C466 C468 1.478 . S
C467 H461 0.930 . S
C467 C463 1.400 . S
C467 C466 1.385 . S
C468 C466 1.478 . S
C468 C470 1.381 . S
C468 C474 1.383 . S
C469 C465 1.495 . S
C469 H475 0.959 . S
C469 H476 0.961 . S
C469 H477 0.960 . S
C470 C468 1.381 . S
C470 C471 1.394 . S
C470 H478 0.930 . S
C471 C470 1.394 . S
C471 C472 1.383 . S
C471 H479 0.929 . S
C472 C471 1.383 . S
C472 C473 1.377 . S
C473 H457 0.930 . S
C473 C472 1.377 . S
C473 C474 1.379 . S
C474 H458 0.931 . S
C474 C468 1.383 . S
C474 C473 1.379 . S
H475 C469 0.959 . S
H476 C469 0.961 . S
H477 C469 0.960 . S
H478 C470 0.930 . S
H479 C471 0.929 . S
H480 C488 0.929 . S
H481 C490 0.930 . S
H482 C492 0.930 . S
H483 C495 0.929 . S
H484 C498 0.930 . S
H485 C500 0.960 . S
H486 C500 0.960 . S
H487 C500 0.960 . S
C488 H480 0.929 . S
C488 C489 1.377 . S
C488 C490 1.384 . S
C489 C488 1.377 . S
C489 C495 1.390 . S
C490 H481 0.930 . S
C490 C488 1.384 . S
C490 C491 1.372 . S
C491 C490 1.372 . S
C491 C492 1.400 . S
C491 C496 1.490 . S
C492 H482 0.930 . S
C492 C491 1.400 . S
C492 C495 1.386 . S
H493 C509 0.930 . S
H494 C510 0.931 . S
C495 H483 0.929 . S
C495 C489 1.390 . S
C495 C492 1.386 . S
C496 C491 1.490 . S
C496 C498 1.395 1_554 S
C496 C499 1.403 . S
H497 C503 0.930 . S
C498 H484 0.930 . S
C498 C496 1.395 1_556 S
C498 C501 1.403 . S
C499 C496 1.403 . S
C499 C500 1.524 . S
C499 C503 1.400 . S
C500 H485 0.960 . S
C500 H486 0.960 . S
C500 H487 0.960 . S
C500 C499 1.524 . S
C501 C498 1.403 . S
C501 C502 1.392 . S
C501 C505 1.495 . S
C502 C501 1.392 . S
C502 C503 1.385 1_556 S
C502 C504 1.478 . S
C503 H497 0.930 . S
C503 C499 1.400 . S
C503 C502 1.385 1_554 S
C504 C502 1.478 . S
C504 C506 1.381 . S
C504 C510 1.383 . S
C505 C501 1.495 . S
C505 H511 0.959 . S
C505 H512 0.961 . S
C505 H513 0.960 . S
C506 C504 1.381 . S
C506 C507 1.394 . S
C506 H514 0.930 . S
C507 C506 1.394 . S
C507 C508 1.383 . S
C507 H515 0.929 . S
C508 C507 1.383 . S
C508 C509 1.377 . S
C509 H493 0.930 . S
C509 C508 1.377 . S
C509 C510 1.379 . S
C510 H494 0.931 . S
C510 C504 1.383 . S
C510 C509 1.379 . S
H511 C505 0.959 . S
H512 C505 0.961 . S
H513 C505 0.960 . S
H514 C506 0.930 . S
H515 C507 0.929 . S
H516 C524 0.929 . S
H517 C526 0.930 . S
H518 C528 0.930 . S
H519 C531 0.929 . S
H520 C534 0.930 . S
H521 C536 0.960 . S
H522 C536 0.960 . S
H523 C536 0.960 . S
C524 H516 0.929 . S
C524 C525 1.377 . S
C524 C526 1.384 . S
C525 C524 1.377 . S
C525 C531 1.390 . S
C526 H517 0.930 . S
C526 C524 1.384 . S
C526 C527 1.372 . S
C527 C526 1.372 . S
C527 C528 1.400 . S
C527 C532 1.490 . S
C528 H518 0.930 . S
C528 C527 1.400 . S
C528 C531 1.386 . S
H529 C545 0.930 . S
H530 C546 0.931 . S
C531 H519 0.929 . S
C531 C525 1.390 . S
C531 C528 1.386 . S
C532 C527 1.490 . S
C532 C534 1.395 . S
C532 C535 1.403 . S
H533 C539 0.930 . S
C534 H520 0.930 . S
C534 C532 1.395 . S
C534 C537 1.403 . S
C535 C532 1.403 . S
C535 C536 1.524 . S
C535 C539 1.400 . S
C536 H521 0.960 . S
C536 H522 0.960 . S
C536 H523 0.960 . S
C536 C535 1.524 . S
C537 C534 1.403 . S
C537 C538 1.392 . S
C537 C541 1.495 . S
C538 C537 1.392 . S
C538 C539 1.385 . S
C538 C540 1.478 . S
C539 H533 0.930 . S
C539 C535 1.400 . S
C539 C538 1.385 . S
C540 C538 1.478 . S
C540 C542 1.381 . S
C540 C546 1.383 . S
C541 C537 1.495 . S
C541 H547 0.959 . S
C541 H548 0.961 . S
C541 H549 0.960 . S
C542 C540 1.381 . S
C542 C543 1.394 . S
C542 H550 0.930 . S
C543 C542 1.394 . S
C543 C544 1.383 . S
C543 H551 0.929 . S
C544 C543 1.383 . S
C544 C545 1.377 . S
C545 H529 0.930 . S
C545 C544 1.377 . S
C545 C546 1.379 . S
C546 H530 0.931 . S
C546 C540 1.383 . S
C546 C545 1.379 . S
H547 C541 0.959 . S
H548 C541 0.961 . S
H549 C541 0.960 . S
H550 C542 0.930 . S
H551 C543 0.929 . S
H552 C560 0.929 . S
H553 C562 0.930 . S
H554 C564 0.930 . S
H555 C567 0.929 . S
H556 C570 0.930 . S
H557 C572 0.960 . S
H558 C572 0.960 . S
H559 C572 0.960 . S
C560 H552 0.929 . S
C560 C561 1.377 . S
C560 C562 1.384 . S
C561 C560 1.377 . S
C561 C567 1.390 . S
C562 H553 0.930 . S
C562 C560 1.384 . S
C562 C563 1.372 . S
C563 C562 1.372 . S
C563 C564 1.400 . S
C563 C568 1.490 . S
C564 H554 0.930 . S
C564 C563 1.400 . S
C564 C567 1.386 . S
H565 C581 0.930 . S
H566 C582 0.931 . S
C567 H555 0.929 . S
C567 C561 1.390 . S
C567 C564 1.386 . S
C568 C563 1.490 . S
C568 C570 1.395 1_554 S
C568 C571 1.403 . S
H569 C575 0.929 1_554 S
C570 H556 0.930 . S
C570 C568 1.395 1_556 S
C570 C573 1.403 . S
C571 C568 1.403 . S
C571 C572 1.524 . S
C571 C575 1.400 1_554 S
C572 H557 0.960 . S
C572 H558 0.960 . S
C572 H559 0.960 . S
C572 C571 1.524 . S
C573 C570 1.403 . S
C573 C574 1.392 . S
C573 C577 1.495 . S
C574 C573 1.392 . S
C574 C575 1.385 . S
C574 C576 1.478 . S
C575 H569 0.929 1_556 S
C575 C571 1.400 1_556 S
C575 C574 1.385 . S
C576 C574 1.478 . S
C576 C578 1.381 . S
C576 C582 1.383 . S
C577 C573 1.495 . S
C577 H583 0.959 . S
C577 H584 0.961 . S
C577 H585 0.960 . S
C578 C576 1.381 . S
C578 C579 1.394 . S
C578 H586 0.930 . S
C579 C578 1.394 . S
C579 C580 1.383 . S
C579 H587 0.929 . S
C580 C579 1.383 . S
C580 C581 1.377 . S
C581 H565 0.930 . S
C581 C580 1.377 . S
C581 C582 1.379 . S
C582 H566 0.931 . S
C582 C576 1.383 . S
C582 C581 1.379 . S
H583 C577 0.959 . S
H584 C577 0.961 . S
H585 C577 0.960 . S
H586 C578 0.930 . S
H587 C579 0.929 . S
H588 C596 0.929 . S
H589 C598 0.930 . S
H590 C600 0.930 . S
H591 C603 0.929 . S
H592 C606 0.930 . S
H593 C608 0.960 . S
H594 C608 0.960 . S
H595 C608 0.960 . S
C596 H588 0.929 . S
C596 C597 1.377 . S
C596 C598 1.384 . S
C597 C596 1.377 . S
C597 C603 1.390 . S
C598 H589 0.930 . S
C598 C596 1.384 . S
C598 C599 1.372 . S
C599 C598 1.372 . S
C599 C600 1.400 . S
C599 C604 1.490 . S
C600 H590 0.930 . S
C600 C599 1.400 . S
C600 C603 1.386 . S
H601 C617 0.930 . S
H602 C618 0.931 . S
C603 H591 0.929 . S
C603 C597 1.390 . S
C603 C600 1.386 . S
C604 C599 1.490 . S
C604 C606 1.395 . S
C604 C607 1.403 . S
H605 C611 0.930 . S
C606 H592 0.930 . S
C606 C604 1.395 . S
C606 C609 1.403 . S
C607 C604 1.403 . S
C607 C608 1.524 . S
C607 C611 1.400 . S
C608 H593 0.960 . S
C608 H594 0.960 . S
C608 H595 0.960 . S
C608 C607 1.524 . S
C609 C606 1.403 . S
C609 C610 1.392 . S
C609 C613 1.495 . S
C610 C609 1.392 . S
C610 C611 1.385 . S
C610 C612 1.478 . S
C611 H605 0.930 . S
C611 C607 1.400 . S
C611 C610 1.385 . S
C612 C610 1.478 . S
C612 C614 1.381 . S
C612 C618 1.383 . S
C613 C609 1.495 . S
C613 H619 0.959 . S
C613 H620 0.961 . S
C613 H621 0.960 . S
C614 C612 1.381 . S
C614 C615 1.394 . S
C614 H622 0.930 . S
C615 C614 1.394 . S
C615 C616 1.383 . S
C615 H623 0.929 . S
C616 C615 1.383 . S
C616 C617 1.377 . S
C617 H601 0.930 . S
C617 C616 1.377 . S
C617 C618 1.379 . S
C618 H602 0.931 . S
C618 C612 1.383 . S
C618 C617 1.379 . S
H619 C613 0.959 . S
H620 C613 0.961 . S
H621 C613 0.960 . S
H622 C614 0.930 . S
H623 C615 0.929 . S
H624 C632 0.929 . S
H625 C634 0.930 . S
H626 C636 0.930 . S
H627 C639 0.929 . S
H628 C642 0.930 . S
H629 C644 0.960 . S
H630 C644 0.950 1_554 S
H631 C644 0.960 . S
C632 H624 0.929 . S
C632 C633 1.377 . S
C632 C634 1.384 . S
C633 C632 1.377 . S
C633 C639 1.390 . S
C634 H625 0.930 . S
C634 C632 1.384 . S
C634 C635 1.372 . S
C635 C634 1.372 . S
C635 C636 1.400 . S
C635 C640 1.490 . S
C636 H626 0.930 . S
C636 C635 1.400 . S
C636 C639 1.386 . S
H637 C653 0.930 . S
H638 C654 0.931 . S
C639 H627 0.929 . S
C639 C633 1.390 . S
C639 C636 1.386 . S
C640 C635 1.490 . S
C640 C642 1.395 . S
C640 C643 1.403 1_554 S
H641 C647 0.930 . S
C642 H628 0.930 . S
C642 C640 1.395 . S
C642 C645 1.403 . S
C643 C640 1.403 1_556 S
C643 C644 1.524 . S
C643 C647 1.400 . S
C644 H629 0.960 . S
C644 H630 0.950 1_556 S
C644 H631 0.960 . S
C644 C643 1.524 . S
C645 C642 1.403 . S
C645 C646 1.392 1_554 S
C645 C649 1.495 . S
C646 C645 1.392 1_556 S
C646 C647 1.385 . S
C646 C648 1.478 . S
C647 H641 0.930 . S
C647 C643 1.400 . S
C647 C646 1.385 . S
C648 C646 1.478 . S
C648 C650 1.381 . S
C648 C654 1.383 . S
C649 C645 1.495 . S
C649 H655 0.959 . S
C649 H656 0.961 . S
C649 H657 0.960 . S
C650 C648 1.381 . S
C650 C651 1.394 . S
C650 H658 0.930 . S
C651 C650 1.394 . S
C651 C652 1.383 . S
C651 H659 0.929 . S
C652 C651 1.383 . S
C652 C653 1.377 . S
C653 H637 0.930 . S
C653 C652 1.377 . S
C653 C654 1.379 . S
C654 H638 0.931 . S
C654 C648 1.383 . S
C654 C653 1.379 . S
H655 C649 0.959 . S
H656 C649 0.961 . S
H657 C649 0.960 . S
H658 C650 0.930 . S
H659 C651 0.929 . S
H660 C668 0.929 . S
H661 C670 0.930 . S
H662 C672 0.930 . S
H663 C675 0.929 . S
H664 C678 0.930 . S
H665 C680 0.960 . S
H666 C680 0.960 . S
H667 C680 0.960 . S
C668 H660 0.929 . S
C668 C669 1.377 . S
C668 C670 1.384 . S
C669 C668 1.377 . S
C669 C675 1.390 . S
C670 H661 0.930 . S
C670 C668 1.384 . S
C670 C671 1.372 . S
C671 C670 1.372 . S
C671 C672 1.400 . S
C671 C676 1.490 . S
C672 H662 0.930 . S
C672 C671 1.400 . S
C672 C675 1.386 . S
H673 C689 0.930 . S
H674 C690 0.931 . S
C675 H663 0.929 . S
C675 C669 1.390 . S
C675 C672 1.386 . S
C676 C671 1.490 . S
C676 C678 1.395 . S
C676 C679 1.403 . S
H677 C683 0.930 . S
C678 H664 0.930 . S
C678 C676 1.395 . S
C678 C681 1.403 . S
C679 C676 1.403 . S
C679 C680 1.524 . S
C679 C683 1.400 . S
C680 H665 0.960 . S
C680 H666 0.960 . S
C680 H667 0.960 . S
C680 C679 1.524 . S
C681 C678 1.403 . S
C681 C682 1.392 . S
C681 C685 1.495 . S
C682 C681 1.392 . S
C682 C683 1.385 . S
C682 C684 1.478 . S
C683 H677 0.930 . S
C683 C679 1.400 . S
C683 C682 1.385 . S
C684 C682 1.478 . S
C684 C686 1.381 . S
C684 C690 1.383 . S
C685 C681 1.495 . S
C685 H691 0.959 . S
C685 H692 0.961 . S
C685 H693 0.960 . S
C686 C684 1.381 . S
C686 C687 1.394 . S
C686 H694 0.930 . S
C687 C686 1.394 . S
C687 C688 1.383 . S
C687 H695 0.929 . S
C688 C687 1.383 . S
C688 C689 1.377 . S
C689 H673 0.930 . S
C689 C688 1.377 . S
C689 C690 1.379 . S
C690 H674 0.931 . S
C690 C684 1.383 . S
C690 C689 1.379 . S
H691 C685 0.959 . S
H692 C685 0.961 . S
H693 C685 0.960 . S
H694 C686 0.930 . S
H695 C687 0.929 . S
H696 C704 0.929 . S
H697 C706 0.930 . S
H698 C708 0.930 . S
H699 C711 0.929 . S
H700 C714 0.930 . S
H701 C716 0.960 . S
H702 C716 0.960 . S
H703 C716 0.960 . S
C704 H696 0.929 . S
C704 C705 1.377 . S
C704 C706 1.384 . S
C705 C704 1.377 . S
C705 C711 1.390 . S
C706 H697 0.930 . S
C706 C704 1.384 . S
C706 C707 1.372 . S
C707 C706 1.372 . S
C707 C708 1.400 . S
C707 C712 1.490 . S
C708 H698 0.930 . S
C708 C707 1.400 . S
C708 C711 1.386 . S
H709 C725 0.930 . S
H710 C726 0.931 . S
C711 H699 0.929 . S
C711 C705 1.390 . S
C711 C708 1.386 . S
C712 C707 1.490 . S
C712 C714 1.395 1_554 S
C712 C715 1.403 . S
H713 C719 0.930 . S
C714 H700 0.930 . S
C714 C712 1.395 1_556 S
C714 C717 1.403 . S
C715 C712 1.403 . S
C715 C716 1.524 . S
C715 C719 1.400 . S
C716 H701 0.960 . S
C716 H702 0.960 . S
C716 H703 0.960 . S
C716 C715 1.524 . S
C717 C714 1.403 . S
C717 C718 1.392 . S
C717 C721 1.495 . S
C718 C717 1.392 . S
C718 C719 1.385 1_556 S
C718 C720 1.478 . S
C719 H713 0.930 . S
C719 C715 1.400 . S
C719 C718 1.385 1_554 S
C720 C718 1.478 . S
C720 C722 1.381 . S
C720 C726 1.383 . S
C721 C717 1.495 . S
C721 H727 0.959 . S
C721 H728 0.961 . S
C721 H729 0.960 . S
C722 C720 1.381 . S
C722 C723 1.394 . S
C722 H730 0.930 . S
C723 C722 1.394 . S
C723 C724 1.383 . S
C723 H731 0.929 . S
C724 C723 1.383 . S
C724 C725 1.377 . S
C725 H709 0.930 . S
C725 C724 1.377 . S
C725 C726 1.379 . S
C726 H710 0.931 . S
C726 C720 1.383 . S
C726 C725 1.379 . S
H727 C721 0.959 . S
H728 C721 0.961 . S
H729 C721 0.960 . S
H730 C722 0.930 . S
H731 C723 0.929 . S
H732 C740 0.929 . S
H733 C742 0.930 . S
H734 C744 0.930 . S
H735 C747 0.929 . S
H736 C750 0.930 . S
H737 C752 0.960 . S
H738 C752 0.960 . S
H739 C752 0.960 . S
C740 H732 0.929 . S
C740 C741 1.377 . S
C740 C742 1.384 . S
C741 C740 1.377 . S
C741 C747 1.390 . S
C742 H733 0.930 . S
C742 C740 1.384 . S
C742 C743 1.372 . S
C743 C742 1.372 . S
C743 C744 1.400 . S
C743 C748 1.490 . S
C744 H734 0.930 . S
C744 C743 1.400 . S
C744 C747 1.386 . S
H745 C761 0.930 . S
H746 C762 0.931 . S
C747 H735 0.929 . S
C747 C741 1.390 . S
C747 C744 1.386 . S
C748 C743 1.490 . S
C748 C750 1.395 . S
C748 C751 1.403 . S
H749 C755 0.930 . S
C750 H736 0.930 . S
C750 C748 1.395 . S
C750 C753 1.403 . S
C751 C748 1.403 . S
C751 C752 1.524 . S
C751 C755 1.400 . S
C752 H737 0.960 . S
C752 H738 0.960 . S
C752 H739 0.960 . S
C752 C751 1.524 . S
C753 C750 1.403 . S
C753 C754 1.392 . S
C753 C757 1.495 . S
C754 C753 1.392 . S
C754 C755 1.385 . S
C754 C756 1.478 . S
C755 H749 0.930 . S
C755 C751 1.400 . S
C755 C754 1.385 . S
C756 C754 1.478 . S
C756 C758 1.381 . S
C756 C762 1.383 . S
C757 C753 1.495 . S
C757 H763 0.959 . S
C757 H764 0.961 . S
C757 H765 0.960 . S
C758 C756 1.381 . S
C758 C759 1.394 . S
C758 H766 0.930 . S
C759 C758 1.394 . S
C759 C760 1.383 . S
C759 H767 0.929 . S
C760 C759 1.383 . S
C760 C761 1.377 . S
C761 H745 0.930 . S
C761 C760 1.377 . S
C761 C762 1.379 . S
C762 H746 0.931 . S
C762 C756 1.383 . S
C762 C761 1.379 . S
H763 C757 0.959 . S
H764 C757 0.961 . S
H765 C757 0.960 . S
H766 C758 0.930 . S
H767 C759 0.929 . S
H768 C776 0.929 . S
H769 C778 0.930 . S
H770 C780 0.930 . S
H771 C783 0.929 . S
H772 C786 0.930 . S
H773 C788 0.960 . S
H774 C788 0.960 . S
H775 C788 0.960 . S
C776 H768 0.929 . S
C776 C777 1.377 . S
C776 C778 1.384 . S
C777 C776 1.377 . S
C777 C783 1.390 . S
C778 H769 0.930 . S
C778 C776 1.384 . S
C778 C779 1.372 . S
C779 C778 1.372 . S
C779 C780 1.400 . S
C779 C784 1.490 . S
C780 H770 0.930 . S
C780 C779 1.400 . S
C780 C783 1.386 . S
H781 C797 0.930 . S
H782 C798 0.931 . S
C783 H771 0.929 . S
C783 C777 1.390 . S
C783 C780 1.386 . S
C784 C779 1.490 . S
C784 C786 1.395 . S
C784 C787 1.403 1_554 S
H785 C791 0.930 . S
C786 H772 0.930 . S
C786 C784 1.395 . S
C786 C789 1.403 . S
C787 C784 1.403 1_556 S
C787 C788 1.524 . S
C787 C791 1.400 . S
C788 H773 0.960 . S
C788 H774 0.960 . S
C788 H775 0.960 . S
C788 C787 1.524 . S
C789 C786 1.403 . S
C789 C790 1.392 1_554 S
C789 C793 1.495 . S
C790 C789 1.392 1_556 S
C790 C791 1.385 . S
C790 C792 1.478 . S
C791 H785 0.930 . S
C791 C787 1.400 . S
C791 C790 1.385 . S
C792 C790 1.478 . S
C792 C794 1.381 . S
C792 C798 1.383 . S
C793 C789 1.495 . S
C793 H799 0.959 . S
C793 H800 0.961 . S
C793 H801 0.960 . S
C794 C792 1.381 . S
C794 C795 1.394 . S
C794 H802 0.930 . S
C795 C794 1.394 . S
C795 C796 1.383 . S
C795 H803 0.929 . S
C796 C795 1.383 . S
C796 C797 1.377 . S
C797 H781 0.930 . S
C797 C796 1.377 . S
C797 C798 1.379 . S
C798 H782 0.931 . S
C798 C792 1.383 . S
C798 C797 1.379 . S
H799 C793 0.959 . S
H800 C793 0.961 . S
H801 C793 0.960 . S
H802 C794 0.930 . S
H803 C795 0.929 . S
H804 C812 0.929 . S
H805 C814 0.930 . S
H806 C816 0.930 . S
H807 C819 0.929 . S
H808 C822 0.930 . S
H809 C824 0.960 . S
H810 C824 0.960 . S
H811 C824 0.960 . S
C812 H804 0.929 . S
C812 C813 1.377 . S
C812 C814 1.384 . S
C813 C812 1.377 . S
C813 C819 1.390 . S
C814 H805 0.930 . S
C814 C812 1.384 . S
C814 C815 1.372 . S
C815 C814 1.372 . S
C815 C816 1.400 . S
C815 C820 1.490 . S
C816 H806 0.930 . S
C816 C815 1.400 . S
C816 C819 1.386 . S
H817 C833 0.930 . S
H818 C834 0.931 . S
C819 H807 0.929 . S
C819 C813 1.390 . S
C819 C816 1.386 . S
C820 C815 1.490 . S
C820 C822 1.395 . S
C820 C823 1.403 . S
H821 C827 0.930 . S
C822 H808 0.930 . S
C822 C820 1.395 . S
C822 C825 1.403 . S
C823 C820 1.403 . S
C823 C824 1.524 . S
C823 C827 1.400 . S
C824 H809 0.960 . S
C824 H810 0.960 . S
C824 H811 0.960 . S
C824 C823 1.524 . S
C825 C822 1.403 . S
C825 C826 1.392 . S
C825 C829 1.495 . S
C826 C825 1.392 . S
C826 C827 1.385 . S
C826 C828 1.478 . S
C827 H821 0.930 . S
C827 C823 1.400 . S
C827 C826 1.385 . S
C828 C826 1.478 . S
C828 C830 1.381 . S
C828 C834 1.383 . S
C829 C825 1.495 . S
C829 H835 0.959 . S
C829 H836 0.961 . S
C829 H837 0.960 . S
C830 C828 1.381 . S
C830 C831 1.394 . S
C830 H838 0.930 . S
C831 C830 1.394 . S
C831 C832 1.383 . S
C831 H839 0.929 . S
C832 C831 1.383 . S
C832 C833 1.377 . S
C833 H817 0.930 . S
C833 C832 1.377 . S
C833 C834 1.379 . S
C834 H818 0.931 . S
C834 C828 1.383 . S
C834 C833 1.379 . S
H835 C829 0.959 . S
H836 C829 0.961 . S
H837 C829 0.960 . S
H838 C830 0.930 . S
H839 C831 0.929 . S
H840 C848 0.929 . S
H841 C850 0.930 . S
H842 C852 0.930 . S
H843 C855 0.929 . S
H844 C858 0.930 . S
H845 C860 0.960 . S
H846 C860 0.960 . S
H847 C860 0.960 . S
C848 H840 0.929 . S
C848 C849 1.377 . S
C848 C850 1.384 . S
C849 C848 1.377 . S
C849 C855 1.390 . S
C850 H841 0.930 . S
C850 C848 1.384 . S
C850 C851 1.372 . S
C851 C850 1.372 . S
C851 C852 1.400 . S
C851 C856 1.490 . S
C852 H842 0.930 . S
C852 C851 1.400 . S
C852 C855 1.386 . S
H853 C869 0.930 . S
H854 C870 0.931 . S
C855 H843 0.929 . S
C855 C849 1.390 . S
C855 C852 1.386 . S
C856 C851 1.490 . S
C856 C858 1.395 1_556 S
C856 C859 1.403 . S
H857 C863 0.930 . S
C858 H844 0.930 . S
C858 C856 1.395 1_554 S
C858 C861 1.403 . S
C859 C856 1.403 . S
C859 C860 1.524 . S
C859 C863 1.400 . S
C860 H845 0.960 . S
C860 H846 0.960 . S
C860 H847 0.960 . S
C860 C859 1.524 . S
C861 C858 1.403 . S
C861 C862 1.392 . S
C861 C865 1.495 . S
C862 C861 1.392 . S
C862 C863 1.385 1_554 S
C862 C864 1.478 . S
C863 H857 0.930 . S
C863 C859 1.400 . S
C863 C862 1.385 1_556 S
C864 C862 1.478 . S
C864 C866 1.381 . S
C864 C870 1.383 . S
C865 C861 1.495 . S
C865 H871 0.959 . S
C865 H872 0.961 . S
C865 H873 0.960 . S
C866 C864 1.381 . S
C866 C867 1.394 . S
C866 H874 0.930 . S
C867 C866 1.394 . S
C867 C868 1.383 . S
C867 H875 0.929 . S
C868 C867 1.383 . S
C868 C869 1.377 . S
C869 H853 0.930 . S
C869 C868 1.377 . S
C869 C870 1.379 . S
C870 H854 0.931 . S
C870 C864 1.383 . S
C870 C869 1.379 . S
H871 C865 0.959 . S
H872 C865 0.961 . S
H873 C865 0.960 . S
H874 C866 0.930 . S
H875 C867 0.929 . S
H876 C884 0.929 . S
H877 C886 0.930 . S
H878 C888 0.930 . S
H879 C891 0.929 . S
H880 C894 0.930 . S
H881 C896 0.960 . S
H882 C896 0.960 . S
H883 C896 0.960 . S
C884 H876 0.929 . S
C884 C885 1.377 . S
C884 C886 1.384 . S
C885 C884 1.377 . S
C885 C891 1.390 . S
C886 H877 0.930 . S
C886 C884 1.384 . S
C886 C887 1.372 . S
C887 C886 1.372 . S
C887 C888 1.400 . S
C887 C892 1.490 . S
C888 H878 0.930 . S
C888 C887 1.400 . S
C888 C891 1.386 . S
H889 C905 0.930 . S
H890 C906 0.931 . S
C891 H879 0.929 . S
C891 C885 1.390 . S
C891 C888 1.386 . S
C892 C887 1.490 . S
C892 C894 1.395 . S
C892 C895 1.403 . S
H893 C899 0.930 . S
C894 H880 0.930 . S
C894 C892 1.395 . S
C894 C897 1.403 . S
C895 C892 1.403 . S
C895 C896 1.524 . S
C895 C899 1.400 . S
C896 H881 0.960 . S
C896 H882 0.960 . S
C896 H883 0.960 . S
C896 C895 1.524 . S
C897 C894 1.403 . S
C897 C898 1.392 . S
C897 C901 1.495 . S
C898 C897 1.392 . S
C898 C899 1.385 . S
C898 C900 1.478 . S
C899 H893 0.930 . S
C899 C895 1.400 . S
C899 C898 1.385 . S
C900 C898 1.478 . S
C900 C902 1.381 . S
C900 C906 1.383 . S
C901 C897 1.495 . S
C901 H907 0.959 . S
C901 H908 0.961 . S
C901 H909 0.960 . S
C902 C900 1.381 . S
C902 C903 1.394 . S
C902 H910 0.930 . S
C903 C902 1.394 . S
C903 C904 1.383 . S
C903 H911 0.929 . S
C904 C903 1.383 . S
C904 C905 1.377 . S
C905 H889 0.930 . S
C905 C904 1.377 . S
C905 C906 1.379 . S
C906 H890 0.931 . S
C906 C900 1.383 . S
C906 C905 1.379 . S
H907 C901 0.959 . S
H908 C901 0.961 . S
H909 C901 0.960 . S
H910 C902 0.930 . S
H911 C903 0.929 . S
H912 C920 0.929 . S
H913 C922 0.930 . S
H914 C924 0.930 . S
H915 C927 0.929 . S
H916 C930 0.930 . S
H917 C932 0.960 . S
H918 C932 0.960 . S
H919 C932 0.960 . S
C920 H912 0.929 . S
C920 C921 1.377 . S
C920 C922 1.384 . S
C921 C920 1.377 . S
C921 C927 1.390 . S
C922 H913 0.930 . S
C922 C920 1.384 . S
C922 C923 1.372 . S
C923 C922 1.372 . S
C923 C924 1.400 . S
C923 C928 1.490 . S
C924 H914 0.930 . S
C924 C923 1.400 . S
C924 C927 1.386 . S
H925 C941 0.930 . S
H926 C942 0.931 . S
C927 H915 0.929 . S
C927 C921 1.390 . S
C927 C924 1.386 . S
C928 C923 1.490 . S
C928 C930 1.395 . S
C928 C931 1.403 . S
H929 C935 0.930 . S
C930 H916 0.930 . S
C930 C928 1.395 . S
C930 C933 1.403 1_554 S
C931 C928 1.403 . S
C931 C932 1.524 . S
C931 C935 1.400 1_554 S
C932 H917 0.960 . S
C932 H918 0.960 . S
C932 H919 0.960 . S
C932 C931 1.524 . S
C933 C930 1.403 1_556 S
C933 C934 1.392 . S
C933 C937 1.495 . S
C934 C933 1.392 . S
C934 C935 1.385 . S
C934 C936 1.478 . S
C935 H929 0.930 . S
C935 C931 1.400 1_556 S
C935 C934 1.385 . S
C936 C934 1.478 . S
C936 C938 1.381 . S
C936 C942 1.383 . S
C937 C933 1.495 . S
C937 H943 0.959 . S
C937 H944 0.961 . S
C937 H945 0.960 . S
C938 C936 1.381 . S
C938 C939 1.394 . S
C938 H946 0.930 . S
C939 C938 1.394 . S
C939 C940 1.383 . S
C939 H947 0.929 . S
C940 C939 1.383 . S
C940 C941 1.377 . S
C941 H925 0.930 . S
C941 C940 1.377 . S
C941 C942 1.379 . S
C942 H926 0.931 . S
C942 C936 1.383 . S
C942 C941 1.379 . S
H943 C937 0.959 . S
H944 C937 0.961 . S
H945 C937 0.960 . S
H946 C938 0.930 . S
H947 C939 0.929 . S
H948 C956 0.929 . S
H949 C958 0.930 . S
H950 C960 0.930 . S
H951 C963 0.929 . S
H952 C966 0.930 . S
H953 C968 0.960 . S
H954 C968 0.960 . S
H955 C968 0.960 . S
C956 H948 0.929 . S
C956 C957 1.377 . S
C956 C958 1.384 . S
C957 C956 1.377 . S
C957 C963 1.390 . S
C958 H949 0.930 . S
C958 C956 1.384 . S
C958 C959 1.372 . S
C959 C958 1.372 . S
C959 C960 1.400 . S
C959 C964 1.490 . S
C960 H950 0.930 . S
C960 C959 1.400 . S
C960 C963 1.386 . S
H961 C977 0.930 . S
H962 C978 0.931 . S
C963 H951 0.929 . S
C963 C957 1.390 . S
C963 C960 1.386 . S
C964 C959 1.490 . S
C964 C966 1.395 . S
C964 C967 1.403 . S
H965 C971 0.930 . S
C966 H952 0.930 . S
C966 C964 1.395 . S
C966 C969 1.403 . S
C967 C964 1.403 . S
C967 C968 1.524 . S
C967 C971 1.400 . S
C968 H953 0.960 . S
C968 H954 0.960 . S
C968 H955 0.960 . S
C968 C967 1.524 . S
C969 C966 1.403 . S
C969 C970 1.392 . S
C969 C973 1.495 . S
C970 C969 1.392 . S
C970 C971 1.385 . S
C970 C972 1.478 . S
C971 H965 0.930 . S
C971 C967 1.400 . S
C971 C970 1.385 . S
C972 C970 1.478 . S
C972 C974 1.381 . S
C972 C978 1.383 . S
C973 C969 1.495 . S
C973 H979 0.959 . S
C973 H980 0.961 . S
C973 H981 0.960 . S
C974 C972 1.381 . S
C974 C975 1.394 . S
C974 H982 0.930 . S
C975 C974 1.394 . S
C975 C976 1.383 . S
C975 H983 0.929 . S
C976 C975 1.383 . S
C976 C977 1.377 . S
C977 H961 0.930 . S
C977 C976 1.377 . S
C977 C978 1.379 . S
C978 H962 0.931 . S
C978 C972 1.383 . S
C978 C977 1.379 . S
H979 C973 0.959 . S
H980 C973 0.961 . S
H981 C973 0.960 . S
H982 C974 0.930 . S
H983 C975 0.929 . S
H984 C992 0.929 . S
H985 C994 0.930 . S
H986 C996 0.930 . S
H987 C999 0.929 . S
H988 C1002 0.930 . S
H989 C1004 0.960 . S
H990 C1004 0.960 . S
H991 C1004 0.960 . S
C992 H984 0.929 . S
C992 C993 1.377 . S
C992 C994 1.384 . S
C993 C992 1.377 . S
C993 C999 1.390 . S
C994 H985 0.930 . S
C994 C992 1.384 . S
C994 C995 1.372 . S
C995 C994 1.372 . S
C995 C996 1.400 . S
C995 C1000 1.490 . S
C996 H986 0.930 . S
C996 C995 1.400 . S
C996 C999 1.386 . S
H997 C1013 0.930 . S
H998 C1014 0.931 . S
C999 H987 0.929 . S
C999 C993 1.390 . S
C999 C996 1.386 . S
C1000 C995 1.490 . S
C1000 C1002 1.395 . S
C1000 C1003 1.403 . S
H1001 C1007 0.930 . S
C1002 H988 0.930 . S
C1002 C1000 1.395 . S
C1002 C1005 1.403 1_554 S
C1003 C1000 1.403 . S
C1003 C1004 1.524 . S
C1003 C1007 1.400 1_554 S
C1004 H989 0.960 . S
C1004 H990 0.960 . S
C1004 H991 0.960 . S
C1004 C1003 1.524 . S
C1005 C1002 1.403 1_556 S
C1005 C1006 1.392 . S
C1005 C1009 1.495 . S
C1006 C1005 1.392 . S
C1006 C1007 1.385 . S
C1006 C1008 1.478 . S
C1007 H1001 0.930 . S
C1007 C1003 1.400 1_556 S
C1007 C1006 1.385 . S
C1008 C1006 1.478 . S
C1008 C1010 1.381 . S
C1008 C1014 1.383 . S
C1009 C1005 1.495 . S
C1009 H1015 0.959 . S
C1009 H1016 0.961 . S
C1009 H1017 0.960 . S
C1010 C1008 1.381 . S
C1010 C1011 1.394 . S
C1010 H1018 0.930 . S
C1011 C1010 1.394 . S
C1011 C1012 1.383 . S
C1011 H1019 0.929 . S
C1012 C1011 1.383 . S
C1012 C1013 1.377 . S
C1013 H997 0.930 . S
C1013 C1012 1.377 . S
C1013 C1014 1.379 . S
C1014 H998 0.931 . S
C1014 C1008 1.383 . S
C1014 C1013 1.379 . S
H1015 C1009 0.959 . S
H1016 C1009 0.961 . S
H1017 C1009 0.960 . S
H1018 C1010 0.930 . S
H1019 C1011 0.929 . S
H1020 C1028 0.929 . S
H1021 C1030 0.930 . S
H1022 C1032 0.930 . S
H1023 C1035 0.929 . S
H1024 C1038 0.930 . S
H1025 C1040 0.960 . S
H1026 C1040 0.960 . S
H1027 C1040 0.960 . S
C1028 H1020 0.929 . S
C1028 C1029 1.377 . S
C1028 C1030 1.384 . S
C1029 C1028 1.377 . S
C1029 C1035 1.390 . S
C1030 H1021 0.930 . S
C1030 C1028 1.384 . S
C1030 C1031 1.372 . S
C1031 C1030 1.372 . S
C1031 C1032 1.400 . S
C1031 C1036 1.490 . S
C1032 H1022 0.930 . S
C1032 C1031 1.400 . S
C1032 C1035 1.386 . S
H1033 C1049 0.930 . S
H1034 C1050 0.931 . S
C1035 H1023 0.929 . S
C1035 C1029 1.390 . S
C1035 C1032 1.386 . S
C1036 C1031 1.490 . S
C1036 C1038 1.395 . S
C1036 C1039 1.403 . S
H1037 C1043 0.930 . S
C1038 H1024 0.930 . S
C1038 C1036 1.395 . S
C1038 C1041 1.403 . S
C1039 C1036 1.403 . S
C1039 C1040 1.524 . S
C1039 C1043 1.400 . S
C1040 H1025 0.960 . S
C1040 H1026 0.960 . S
C1040 H1027 0.960 . S
C1040 C1039 1.524 . S
C1041 C1038 1.403 . S
C1041 C1042 1.392 . S
C1041 C1045 1.495 . S
C1042 C1041 1.392 . S
C1042 C1043 1.385 . S
C1042 C1044 1.478 . S
C1043 H1037 0.930 . S
C1043 C1039 1.400 . S
C1043 C1042 1.385 . S
C1044 C1042 1.478 . S
C1044 C1046 1.381 . S
C1044 C1050 1.383 . S
C1045 C1041 1.495 . S
C1045 H1051 0.959 . S
C1045 H1052 0.961 . S
C1045 H1053 0.960 . S
C1046 C1044 1.381 . S
C1046 C1047 1.394 . S
C1046 H1054 0.930 . S
C1047 C1046 1.394 . S
C1047 C1048 1.383 . S
C1047 H1055 0.929 . S
C1048 C1047 1.383 . S
C1048 C1049 1.377 . S
C1049 H1033 0.930 . S
C1049 C1048 1.377 . S
C1049 C1050 1.379 . S
C1050 H1034 0.931 . S
C1050 C1044 1.383 . S
C1050 C1049 1.379 . S
H1051 C1045 0.959 . S
H1052 C1045 0.961 . S
H1053 C1045 0.960 . S
H1054 C1046 0.930 . S
H1055 C1047 0.929 . S
H1056 C1064 0.929 . S
H1057 C1066 0.930 . S
H1058 C1068 0.930 . S
H1059 C1071 0.929 . S
H1060 C1074 0.930 . S
H1061 C1076 0.960 . S
H1062 C1076 0.960 . S
H1063 C1076 0.960 . S
C1064 H1056 0.929 . S
C1064 C1065 1.377 . S
C1064 C1066 1.384 . S
C1065 C1064 1.377 . S
C1065 C1071 1.390 . S
C1066 H1057 0.930 . S
C1066 C1064 1.384 . S
C1066 C1067 1.372 . S
C1067 C1066 1.372 . S
C1067 C1068 1.400 . S
C1067 C1072 1.490 . S
C1068 H1058 0.930 . S
C1068 C1067 1.400 . S
C1068 C1071 1.386 . S
H1069 C1085 0.930 . S
H1070 C1086 0.931 . S
C1071 H1059 0.929 . S
C1071 C1065 1.390 . S
C1071 C1068 1.386 . S
C1072 C1067 1.490 . S
C1072 C1074 1.395 . S
C1072 C1075 1.403 1_556 S
H1073 C1079 0.930 . S
C1074 H1060 0.930 . S
C1074 C1072 1.395 . S
C1074 C1077 1.403 . S
C1075 C1072 1.403 1_554 S
C1075 C1076 1.524 . S
C1075 C1079 1.400 . S
C1076 H1061 0.960 . S
C1076 H1062 0.960 . S
C1076 H1063 0.960 . S
C1076 C1075 1.524 . S
C1077 C1074 1.403 . S
C1077 C1078 1.392 1_556 S
C1077 C1081 1.495 . S
C1078 C1077 1.392 1_554 S
C1078 C1079 1.385 . S
C1078 C1080 1.478 . S
C1079 H1073 0.930 . S
C1079 C1075 1.400 . S
C1079 C1078 1.385 . S
C1080 C1078 1.478 . S
C1080 C1082 1.381 . S
C1080 C1086 1.383 . S
C1081 C1077 1.495 . S
C1081 H1087 0.959 . S
C1081 H1088 0.961 . S
C1081 H1089 0.960 . S
C1082 C1080 1.381 . S
C1082 C1083 1.394 . S
C1082 H1090 0.930 . S
C1083 C1082 1.394 . S
C1083 C1084 1.383 . S
C1083 H1091 0.929 . S
C1084 C1083 1.383 . S
C1084 C1085 1.377 . S
C1085 H1069 0.930 . S
C1085 C1084 1.377 . S
C1085 C1086 1.379 . S
C1086 H1070 0.931 . S
C1086 C1080 1.383 . S
C1086 C1085 1.379 . S
H1087 C1081 0.959 . S
H1088 C1081 0.961 . S
H1089 C1081 0.960 . S
H1090 C1082 0.930 . S
H1091 C1083 0.929 . S
H1092 C1100 0.929 . S
H1093 C1102 0.930 . S
H1094 C1104 0.930 . S
H1095 C1107 0.929 . S
H1096 C1110 0.930 . S
H1097 C1112 0.960 . S
H1098 C1112 0.960 . S
H1099 C1112 0.960 . S
C1100 H1092 0.929 . S
C1100 C1101 1.377 . S
C1100 C1102 1.384 . S
C1101 C1100 1.377 . S
C1101 C1107 1.390 . S
C1102 H1093 0.930 . S
C1102 C1100 1.384 . S
C1102 C1103 1.372 . S
C1103 C1102 1.372 . S
C1103 C1104 1.400 . S
C1103 C1108 1.490 . S
C1104 H1094 0.930 . S
C1104 C1103 1.400 . S
C1104 C1107 1.386 . S
H1105 C1121 0.930 . S
H1106 C1122 0.931 . S
C1107 H1095 0.929 . S
C1107 C1101 1.390 . S
C1107 C1104 1.386 . S
C1108 C1103 1.490 . S
C1108 C1110 1.395 . S
C1108 C1111 1.403 . S
H1109 C1115 0.930 . S
C1110 H1096 0.930 . S
C1110 C1108 1.395 . S
C1110 C1113 1.403 . S
C1111 C1108 1.403 . S
C1111 C1112 1.524 . S
C1111 C1115 1.400 . S
C1112 H1097 0.960 . S
C1112 H1098 0.960 . S
C1112 H1099 0.960 . S
C1112 C1111 1.524 . S
C1113 C1110 1.403 . S
C1113 C1114 1.392 . S
C1113 C1117 1.495 . S
C1114 C1113 1.392 . S
C1114 C1115 1.385 . S
C1114 C1116 1.478 . S
C1115 H1109 0.930 . S
C1115 C1111 1.400 . S
C1115 C1114 1.385 . S
C1116 C1114 1.478 . S
C1116 C1118 1.381 . S
C1116 C1122 1.383 . S
C1117 C1113 1.495 . S
C1117 H1123 0.959 . S
C1117 H1124 0.961 . S
C1117 H1125 0.960 . S
C1118 C1116 1.381 . S
C1118 C1119 1.394 . S
C1118 H1126 0.930 . S
C1119 C1118 1.394 . S
C1119 C1120 1.383 . S
C1119 H1127 0.929 . S
C1120 C1119 1.383 . S
C1120 C1121 1.377 . S
C1121 H1105 0.930 . S
C1121 C1120 1.377 . S
C1121 C1122 1.379 . S
C1122 H1106 0.931 . S
C1122 C1116 1.383 . S
C1122 C1121 1.379 . S
H1123 C1117 0.959 . S
H1124 C1117 0.961 . S
H1125 C1117 0.960 . S
H1126 C1118 0.930 . S
H1127 C1119 0.929 . S
H1128 C1136 0.929 . S
H1129 C1138 0.930 . S
H1130 C1140 0.930 . S
H1131 C1143 0.929 . S
H1132 C1146 0.930 . S
H1133 C1148 0.960 . S
H1134 C1148 0.960 . S
H1135 C1148 0.960 . S
C1136 H1128 0.929 . S
C1136 C1137 1.377 . S
C1136 C1138 1.384 . S
C1137 C1136 1.377 . S
C1137 C1143 1.390 . S
C1138 H1129 0.930 . S
C1138 C1136 1.384 . S
C1138 C1139 1.372 . S
C1139 C1138 1.372 . S
C1139 C1140 1.400 . S
C1139 C1144 1.490 . S
C1140 H1130 0.930 . S
C1140 C1139 1.400 . S
C1140 C1143 1.386 . S
H1141 C1157 0.930 . S
H1142 C1158 0.931 . S
C1143 H1131 0.929 . S
C1143 C1137 1.390 . S
C1143 C1140 1.386 . S
C1144 C1139 1.490 . S
C1144 C1146 1.395 . S
C1144 C1147 1.403 1_554 S
H1145 C1151 0.930 . S
C1146 H1132 0.930 . S
C1146 C1144 1.395 . S
C1146 C1149 1.403 . S
C1147 C1144 1.403 1_556 S
C1147 C1148 1.524 . S
C1147 C1151 1.400 . S
C1148 H1133 0.960 . S
C1148 H1134 0.960 . S
C1148 H1135 0.960 . S
C1148 C1147 1.524 . S
C1149 C1146 1.403 . S
C1149 C1150 1.392 1_554 S
C1149 C1153 1.495 . S
C1150 C1149 1.392 1_556 S
C1150 C1151 1.385 . S
C1150 C1152 1.478 . S
C1151 H1145 0.930 . S
C1151 C1147 1.400 . S
C1151 C1150 1.385 . S
C1152 C1150 1.478 . S
C1152 C1154 1.381 . S
C1152 C1158 1.383 . S
C1153 C1149 1.495 . S
C1153 H1159 0.959 . S
C1153 H1160 0.961 . S
C1153 H1161 0.960 . S
C1154 C1152 1.381 . S
C1154 C1155 1.394 . S
C1154 H1162 0.930 . S
C1155 C1154 1.394 . S
C1155 C1156 1.383 . S
C1155 H1163 0.929 . S
C1156 C1155 1.383 . S
C1156 C1157 1.377 . S
C1157 H1141 0.930 . S
C1157 C1156 1.377 . S
C1157 C1158 1.379 . S
C1158 H1142 0.931 . S
C1158 C1152 1.383 . S
C1158 C1157 1.379 . S
H1159 C1153 0.959 . S
H1160 C1153 0.961 . S
H1161 C1153 0.960 . S
H1162 C1154 0.930 . S
H1163 C1155 0.929 . S
H1164 C1172 0.929 . S
H1165 C1174 0.930 . S
H1166 C1176 0.930 . S
H1167 C1179 0.929 . S
H1168 C1182 0.930 . S
H1169 C1184 0.960 . S
H1170 C1184 0.960 . S
H1171 C1184 0.960 . S
C1172 H1164 0.929 . S
C1172 C1173 1.377 . S
C1172 C1174 1.384 . S
C1173 C1172 1.377 . S
C1173 C1179 1.390 . S
C1174 H1165 0.930 . S
C1174 C1172 1.384 . S
C1174 C1175 1.372 . S
C1175 C1174 1.372 . S
C1175 C1176 1.400 . S
C1175 C1180 1.490 . S
C1176 H1166 0.930 . S
C1176 C1175 1.400 . S
C1176 C1179 1.386 . S
H1177 C1193 0.930 . S
H1178 C1194 0.931 . S
C1179 H1167 0.929 . S
C1179 C1173 1.390 . S
C1179 C1176 1.386 . S
C1180 C1175 1.490 . S
C1180 C1182 1.395 . S
C1180 C1183 1.403 . S
H1181 C1187 0.930 . S
C1182 H1168 0.930 . S
C1182 C1180 1.395 . S
C1182 C1185 1.403 . S
C1183 C1180 1.403 . S
C1183 C1184 1.524 . S
C1183 C1187 1.400 . S
C1184 H1169 0.960 . S
C1184 H1170 0.960 . S
C1184 H1171 0.960 . S
C1184 C1183 1.524 . S
C1185 C1182 1.403 . S
C1185 C1186 1.392 . S
C1185 C1189 1.495 . S
C1186 C1185 1.392 . S
C1186 C1187 1.385 . S
C1186 C1188 1.478 . S
C1187 H1181 0.930 . S
C1187 C1183 1.400 . S
C1187 C1186 1.385 . S
C1188 C1186 1.478 . S
C1188 C1190 1.381 . S
C1188 C1194 1.383 . S
C1189 C1185 1.495 . S
C1189 H1195 0.959 . S
C1189 H1196 0.961 . S
C1189 H1197 0.960 . S
C1190 C1188 1.381 . S
C1190 C1191 1.394 . S
C1190 H1198 0.930 . S
C1191 C1190 1.394 . S
C1191 C1192 1.383 . S
C1191 H1199 0.929 . S
C1192 C1191 1.383 . S
C1192 C1193 1.377 . S
C1193 H1177 0.930 . S
C1193 C1192 1.377 . S
C1193 C1194 1.379 . S
C1194 H1178 0.931 . S
C1194 C1188 1.383 . S
C1194 C1193 1.379 . S
H1195 C1189 0.959 . S
H1196 C1189 0.961 . S
H1197 C1189 0.960 . S
H1198 C1190 0.930 . S
H1199 C1191 0.929 . S
H1200 C1208 0.929 . S
H1201 C1210 0.930 . S
H1202 C1212 0.930 . S
H1203 C1215 0.929 . S
H1204 C1218 0.930 . S
H1205 C1220 0.958 1_556 S
H1206 C1220 0.960 . S
H1207 C1220 0.960 . S
C1208 H1200 0.929 . S
C1208 C1209 1.377 . S
C1208 C1210 1.384 . S
C1209 C1208 1.377 . S
C1209 C1215 1.390 . S
C1210 H1201 0.930 . S
C1210 C1208 1.384 . S
C1210 C1211 1.372 . S
C1211 C1210 1.372 . S
C1211 C1212 1.400 . S
C1211 C1216 1.490 . S
C1212 H1202 0.930 . S
C1212 C1211 1.400 . S
C1212 C1215 1.386 . S
H1213 C1229 0.930 . S
H1214 C1230 0.931 . S
C1215 H1203 0.929 . S
C1215 C1209 1.390 . S
C1215 C1212 1.386 . S
C1216 C1211 1.490 . S
C1216 C1218 1.395 . S
C1216 C1219 1.403 . S
H1217 C1223 0.930 . S
C1218 H1204 0.930 . S
C1218 C1216 1.395 . S
C1218 C1221 1.403 1_554 S
C1219 C1216 1.403 . S
C1219 C1220 1.524 . S
C1219 C1223 1.400 1_554 S
C1220 H1205 0.958 1_554 S
C1220 H1206 0.960 . S
C1220 H1207 0.960 . S
C1220 C1219 1.524 . S
C1221 C1218 1.403 1_556 S
C1221 C1222 1.392 . S
C1221 C1225 1.495 . S
C1222 C1221 1.392 . S
C1222 C1223 1.385 . S
C1222 C1224 1.478 . S
C1223 H1217 0.930 . S
C1223 C1219 1.400 1_556 S
C1223 C1222 1.385 . S
C1224 C1222 1.478 . S
C1224 C1226 1.381 . S
C1224 C1230 1.383 . S
C1225 C1221 1.495 . S
C1225 H1231 0.959 1_556 S
C1225 H1232 0.961 . S
C1225 H1233 0.960 . S
C1226 C1224 1.381 . S
C1226 C1227 1.394 . S
C1226 H1234 0.930 . S
C1227 C1226 1.394 . S
C1227 C1228 1.383 . S
C1227 H1235 0.929 . S
C1228 C1227 1.383 . S
C1228 C1229 1.377 . S
C1229 H1213 0.930 . S
C1229 C1228 1.377 . S
C1229 C1230 1.379 . S
C1230 H1214 0.931 . S
C1230 C1224 1.383 . S
C1230 C1229 1.379 . S
H1231 C1225 0.959 1_554 S
H1232 C1225 0.961 . S
H1233 C1225 0.960 . S
H1234 C1226 0.930 . S
H1235 C1227 0.929 . S
H1236 C1244 0.929 . S
H1237 C1246 0.930 . S
H1238 C1248 0.930 . S
H1239 C1251 0.929 . S
H1240 C1254 0.930 . S
H1241 C1256 0.960 . S
H1242 C1256 0.960 . S
H1243 C1256 0.960 . S
C1244 H1236 0.929 . S
C1244 C1245 1.377 . S
C1244 C1246 1.384 . S
C1245 C1244 1.377 . S
C1245 C1251 1.390 . S
C1246 H1237 0.930 . S
C1246 C1244 1.384 . S
C1246 C1247 1.372 . S
C1247 C1246 1.372 . S
C1247 C1248 1.400 . S
C1247 C1252 1.490 . S
C1248 H1238 0.930 . S
C1248 C1247 1.400 . S
C1248 C1251 1.386 . S
H1249 C1265 0.930 . S
H1250 C1266 0.931 . S
C1251 H1239 0.929 . S
C1251 C1245 1.390 . S
C1251 C1248 1.386 . S
C1252 C1247 1.490 . S
C1252 C1254 1.395 . S
C1252 C1255 1.403 . S
H1253 C1259 0.930 . S
C1254 H1240 0.930 . S
C1254 C1252 1.395 . S
C1254 C1257 1.403 . S
C1255 C1252 1.403 . S
C1255 C1256 1.524 . S
C1255 C1259 1.400 . S
C1256 H1241 0.960 . S
C1256 H1242 0.960 . S
C1256 H1243 0.960 . S
C1256 C1255 1.524 . S
C1257 C1254 1.403 . S
C1257 C1258 1.392 . S
C1257 C1261 1.495 . S
C1258 C1257 1.392 . S
C1258 C1259 1.385 . S
C1258 C1260 1.478 . S
C1259 H1253 0.930 . S
C1259 C1255 1.400 . S
C1259 C1258 1.385 . S
C1260 C1258 1.478 . S
C1260 C1262 1.381 . S
C1260 C1266 1.383 . S
C1261 C1257 1.495 . S
C1261 H1267 0.959 . S
C1261 H1268 0.961 . S
C1261 H1269 0.960 . S
C1262 C1260 1.381 . S
C1262 C1263 1.394 . S
C1262 H1270 0.930 . S
C1263 C1262 1.394 . S
C1263 C1264 1.383 . S
C1263 H1271 0.929 . S
C1264 C1263 1.383 . S
C1264 C1265 1.377 . S
C1265 H1249 0.930 . S
C1265 C1264 1.377 . S
C1265 C1266 1.379 . S
C1266 H1250 0.931 . S
C1266 C1260 1.383 . S
C1266 C1265 1.379 . S
H1267 C1261 0.959 . S
H1268 C1261 0.961 . S
H1269 C1261 0.960 . S
H1270 C1262 0.930 . S
H1271 C1263 0.929 . S
H1272 C1280 0.929 . S
H1273 C1282 0.930 . S
H1274 C1284 0.930 . S
H1275 C1287 0.929 . S
H1276 C1290 0.930 . S
H1277 C1292 0.960 . S
H1278 C1292 0.960 . S
H1279 C1292 0.960 . S
C1280 H1272 0.929 . S
C1280 C1281 1.377 . S
C1280 C1282 1.384 . S
C1281 C1280 1.377 . S
C1281 C1287 1.390 . S
C1282 H1273 0.930 . S
C1282 C1280 1.384 . S
C1282 C1283 1.372 . S
C1283 C1282 1.372 . S
C1283 C1284 1.400 . S
C1283 C1288 1.490 . S
C1284 H1274 0.930 . S
C1284 C1283 1.400 . S
C1284 C1287 1.386 . S
H1285 C1301 0.930 . S
H1286 C1302 0.931 . S
C1287 H1275 0.929 . S
C1287 C1281 1.390 . S
C1287 C1284 1.386 . S
C1288 C1283 1.490 . S
C1288 C1290 1.395 . S
C1288 C1291 1.403 . S
H1289 C1295 0.930 . S
C1290 H1276 0.930 . S
C1290 C1288 1.395 . S
C1290 C1293 1.403 . S
C1291 C1288 1.403 . S
C1291 C1292 1.524 . S
C1291 C1295 1.400 . S
C1292 H1277 0.960 . S
C1292 H1278 0.960 . S
C1292 H1279 0.960 . S
C1292 C1291 1.524 . S
C1293 C1290 1.403 . S
C1293 C1294 1.392 . S
C1293 C1297 1.495 . S
C1294 C1293 1.392 . S
C1294 C1295 1.385 . S
C1294 C1296 1.478 . S
C1295 H1289 0.930 . S
C1295 C1291 1.400 . S
C1295 C1294 1.385 . S
C1296 C1294 1.478 . S
C1296 C1298 1.381 . S
C1296 C1302 1.383 . S
C1297 C1293 1.495 . S
C1297 H1303 0.959 . S
C1297 H1304 0.961 . S
C1297 H1305 0.960 . S
C1298 C1296 1.381 . S
C1298 C1299 1.394 . S
C1298 H1306 0.930 . S
C1299 C1298 1.394 . S
C1299 C1300 1.383 . S
C1299 H1307 0.929 . S
C1300 C1299 1.383 . S
C1300 C1301 1.377 . S
C1301 H1285 0.930 . S
C1301 C1300 1.377 . S
C1301 C1302 1.379 . S
C1302 H1286 0.931 . S
C1302 C1296 1.383 . S
C1302 C1301 1.379 . S
H1303 C1297 0.959 . S
H1304 C1297 0.961 . S
H1305 C1297 0.960 . S
H1306 C1298 0.930 . S
H1307 C1299 0.929 . S
H1308 C1316 0.929 . S
H1309 C1318 0.930 . S
H1310 C1320 0.930 . S
H1311 C1323 0.929 . S
H1312 C1326 0.930 . S
H1313 C1328 0.960 . S
H1314 C1328 0.960 . S
H1315 C1328 0.960 . S
C1316 H1308 0.929 . S
C1316 C1317 1.377 . S
C1316 C1318 1.384 . S
C1317 C1316 1.377 . S
C1317 C1323 1.390 . S
C1318 H1309 0.930 . S
C1318 C1316 1.384 . S
C1318 C1319 1.372 . S
C1319 C1318 1.372 . S
C1319 C1320 1.400 . S
C1319 C1324 1.490 . S
C1320 H1310 0.930 . S
C1320 C1319 1.400 . S
C1320 C1323 1.386 . S
H1321 C1337 0.930 . S
H1322 C1338 0.931 . S
C1323 H1311 0.929 . S
C1323 C1317 1.390 . S
C1323 C1320 1.386 . S
C1324 C1319 1.490 . S
C1324 C1326 1.395 . S
C1324 C1327 1.403 . S
H1325 C1331 0.930 . S
C1326 H1312 0.930 . S
C1326 C1324 1.395 . S
C1326 C1329 1.403 1_455 S
C1327 C1324 1.403 . S
C1327 C1328 1.524 . S
C1327 C1331 1.400 1_455 S
C1328 H1313 0.960 . S
C1328 H1314 0.960 . S
C1328 H1315 0.960 . S
C1328 C1327 1.524 . S
C1329 C1326 1.403 1_655 S
C1329 C1330 1.392 . S
C1329 C1333 1.495 . S
C1330 C1329 1.392 . S
C1330 C1331 1.385 . S
C1330 C1332 1.478 . S
C1331 H1325 0.930 . S
C1331 C1327 1.400 1_655 S
C1331 C1330 1.385 . S
C1332 C1330 1.478 . S
C1332 C1334 1.381 . S
C1332 C1338 1.383 . S
C1333 C1329 1.495 . S
C1333 H1339 0.959 . S
C1333 H1340 0.961 . S
C1333 H1341 0.960 . S
C1334 C1332 1.381 . S
C1334 C1335 1.394 . S
C1334 H1342 0.930 . S
C1335 C1334 1.394 . S
C1335 C1336 1.383 . S
C1335 H1343 0.929 . S
C1336 C1335 1.383 . S
C1336 C1337 1.377 . S
C1337 H1321 0.930 . S
C1337 C1336 1.377 . S
C1337 C1338 1.379 . S
C1338 H1322 0.931 . S
C1338 C1332 1.383 . S
C1338 C1337 1.379 . S
H1339 C1333 0.959 . S
H1340 C1333 0.961 . S
H1341 C1333 0.960 . S
H1342 C1334 0.930 . S
H1343 C1335 0.929 . S
H1344 C1352 0.929 . S
H1345 C1354 0.930 . S
H1346 C1356 0.930 . S
H1347 C1359 0.929 . S
H1348 C1362 0.930 . S
H1349 C1364 0.960 . S
H1350 C1364 0.960 . S
H1351 C1364 0.960 . S
C1352 H1344 0.929 . S
C1352 C1353 1.377 . S
C1352 C1354 1.384 . S
C1353 C1352 1.377 . S
C1353 C1359 1.390 . S
C1354 H1345 0.930 . S
C1354 C1352 1.384 . S
C1354 C1355 1.372 . S
C1355 C1354 1.372 . S
C1355 C1356 1.400 . S
C1355 C1360 1.490 . S
C1356 H1346 0.930 . S
C1356 C1355 1.400 . S
C1356 C1359 1.386 . S
H1357 C1373 0.930 . S
H1358 C1374 0.931 . S
C1359 H1347 0.929 . S
C1359 C1353 1.390 . S
C1359 C1356 1.386 . S
C1360 C1355 1.490 . S
C1360 C1362 1.395 . S
C1360 C1363 1.403 . S
H1361 C1367 0.930 . S
C1362 H1348 0.930 . S
C1362 C1360 1.395 . S
C1362 C1365 1.403 1_545 S
C1363 C1360 1.403 . S
C1363 C1364 1.524 . S
C1363 C1367 1.400 1_545 S
C1364 H1349 0.960 . S
C1364 H1350 0.960 . S
C1364 H1351 0.960 . S
C1364 C1363 1.524 . S
C1365 C1362 1.403 1_565 S
C1365 C1366 1.392 . S
C1365 C1369 1.495 . S
C1366 C1365 1.392 . S
C1366 C1367 1.385 . S
C1366 C1368 1.478 . S
C1367 H1361 0.930 . S
C1367 C1363 1.400 1_565 S
C1367 C1366 1.385 . S
C1368 C1366 1.478 . S
C1368 C1370 1.381 . S
C1368 C1374 1.383 . S
C1369 C1365 1.495 . S
C1369 H1375 0.959 . S
C1369 H1376 0.961 . S
C1369 H1377 0.960 . S
C1370 C1368 1.381 . S
C1370 C1371 1.394 . S
C1370 H1378 0.930 . S
C1371 C1370 1.394 . S
C1371 C1372 1.383 . S
C1371 H1379 0.929 . S
C1372 C1371 1.383 . S
C1372 C1373 1.377 . S
C1373 H1357 0.930 . S
C1373 C1372 1.377 . S
C1373 C1374 1.379 . S
C1374 H1358 0.931 . S
C1374 C1368 1.383 . S
C1374 C1373 1.379 . S
H1375 C1369 0.959 . S
H1376 C1369 0.961 . S
H1377 C1369 0.960 . S
H1378 C1370 0.930 . S
H1379 C1371 0.929 . S
H1380 C1388 0.929 . S
H1381 C1390 0.930 . S
H1382 C1392 0.930 . S
H1383 C1395 0.929 . S
H1384 C1398 0.930 . S
H1385 C1400 0.960 . S
H1386 C1400 0.960 . S
H1387 C1400 0.960 . S
C1388 H1380 0.929 . S
C1388 C1389 1.377 . S
C1388 C1390 1.384 . S
C1389 C1388 1.377 . S
C1389 C1395 1.390 . S
C1390 H1381 0.930 . S
C1390 C1388 1.384 . S
C1390 C1391 1.372 . S
C1391 C1390 1.372 . S
C1391 C1392 1.400 . S
C1391 C1396 1.490 . S
C1392 H1382 0.930 . S
C1392 C1391 1.400 . S
C1392 C1395 1.386 . S
H1393 C1409 0.930 . S
H1394 C1410 0.931 . S
C1395 H1383 0.929 . S
C1395 C1389 1.390 . S
C1395 C1392 1.386 . S
C1396 C1391 1.490 . S
C1396 C1398 1.395 . S
C1396 C1399 1.403 . S
H1397 C1403 0.930 . S
C1398 H1384 0.930 . S
C1398 C1396 1.395 . S
C1398 C1401 1.403 . S
C1399 C1396 1.403 . S
C1399 C1400 1.524 . S
C1399 C1403 1.400 . S
C1400 H1385 0.960 . S
C1400 H1386 0.960 . S
C1400 H1387 0.960 . S
C1400 C1399 1.524 . S
C1401 C1398 1.403 . S
C1401 C1402 1.392 . S
C1401 C1405 1.495 . S
C1402 C1401 1.392 . S
C1402 C1403 1.385 . S
C1402 C1404 1.478 . S
C1403 H1397 0.930 . S
C1403 C1399 1.400 . S
C1403 C1402 1.385 . S
C1404 C1402 1.478 . S
C1404 C1406 1.381 . S
C1404 C1410 1.383 . S
C1405 C1401 1.495 . S
C1405 H1411 0.959 . S
C1405 H1412 0.961 . S
C1405 H1413 0.960 . S
C1406 C1404 1.381 . S
C1406 C1407 1.394 . S
C1406 H1414 0.930 . S
C1407 C1406 1.394 . S
C1407 C1408 1.383 . S
C1407 H1415 0.929 . S
C1408 C1407 1.383 . S
C1408 C1409 1.377 . S
C1409 H1393 0.930 . S
C1409 C1408 1.377 . S
C1409 C1410 1.379 . S
C1410 H1394 0.931 . S
C1410 C1404 1.383 . S
C1410 C1409 1.379 . S
H1411 C1405 0.959 . S
H1412 C1405 0.961 . S
H1413 C1405 0.960 . S
H1414 C1406 0.930 . S
H1415 C1407 0.929 . S
H1416 C1424 0.929 . S
H1417 C1426 0.930 . S
H1418 C1428 0.930 . S
H1419 C1431 0.929 . S
H1420 C1434 0.930 . S
H1421 C1436 0.960 . S
H1422 C1436 0.960 . S
H1423 C1436 0.960 . S
C1424 H1416 0.929 . S
C1424 C1425 1.377 . S
C1424 C1426 1.384 . S
C1425 C1424 1.377 . S
C1425 C1431 1.390 . S
C1426 H1417 0.930 . S
C1426 C1424 1.384 . S
C1426 C1427 1.372 . S
C1427 C1426 1.372 . S
C1427 C1428 1.400 . S
C1427 C1432 1.490 . S
C1428 H1418 0.930 . S
C1428 C1427 1.400 . S
C1428 C1431 1.386 . S
H1429 C1445 0.930 . S
H1430 C1446 0.931 . S
C1431 H1419 0.929 . S
C1431 C1425 1.390 . S
C1431 C1428 1.386 . S
C1432 C1427 1.490 . S
C1432 C1434 1.395 . S
C1432 C1435 1.403 . S
H1433 C1439 0.930 . S
C1434 H1420 0.930 . S
C1434 C1432 1.395 . S
C1434 C1437 1.403 1_455 S
C1435 C1432 1.403 . S
C1435 C1436 1.524 . S
C1435 C1439 1.400 1_455 S
C1436 H1421 0.960 . S
C1436 H1422 0.960 . S
C1436 H1423 0.960 . S
C1436 C1435 1.524 . S
C1437 C1434 1.403 1_655 S
C1437 C1438 1.392 . S
C1437 C1441 1.495 . S
C1438 C1437 1.392 . S
C1438 C1439 1.385 . S
C1438 C1440 1.478 . S
C1439 H1433 0.930 . S
C1439 C1435 1.400 1_655 S
C1439 C1438 1.385 . S
C1440 C1438 1.478 . S
C1440 C1442 1.381 . S
C1440 C1446 1.383 . S
C1441 C1437 1.495 . S
C1441 H1447 0.959 . S
C1441 H1448 0.961 . S
C1441 H1449 0.960 . S
C1442 C1440 1.381 . S
C1442 C1443 1.394 . S
C1442 H1450 0.930 . S
C1443 C1442 1.394 . S
C1443 C1444 1.383 . S
C1443 H1451 0.929 . S
C1444 C1443 1.383 . S
C1444 C1445 1.377 . S
C1445 H1429 0.930 . S
C1445 C1444 1.377 . S
C1445 C1446 1.379 . S
C1446 H1430 0.931 . S
C1446 C1440 1.383 . S
C1446 C1445 1.379 . S
H1447 C1441 0.959 . S
H1448 C1441 0.961 . S
H1449 C1441 0.960 . S
H1450 C1442 0.930 . S
H1451 C1443 0.929 . S
H1452 C1460 0.929 . S
H1453 C1462 0.930 . S
H1454 C1464 0.930 . S
H1455 C1467 0.929 . S
H1456 C1470 0.930 . S
H1457 C1472 0.960 . S
H1458 C1472 0.960 . S
H1459 C1472 0.960 . S
C1460 H1452 0.929 . S
C1460 C1461 1.377 . S
C1460 C1462 1.384 . S
C1461 C1460 1.377 . S
C1461 C1467 1.390 . S
C1462 H1453 0.930 . S
C1462 C1460 1.384 . S
C1462 C1463 1.372 . S
C1463 C1462 1.372 . S
C1463 C1464 1.400 . S
C1463 C1468 1.490 . S
C1464 H1454 0.930 . S
C1464 C1463 1.400 . S
C1464 C1467 1.386 . S
H1465 C1481 0.930 . S
H1466 C1482 0.931 . S
C1467 H1455 0.929 . S
C1467 C1461 1.390 . S
C1467 C1464 1.386 . S
C1468 C1463 1.490 . S
C1468 C1470 1.395 . S
C1468 C1471 1.403 . S
H1469 C1475 0.930 . S
C1470 H1456 0.930 . S
C1470 C1468 1.395 . S
C1470 C1473 1.403 1_565 S
C1471 C1468 1.403 . S
C1471 C1472 1.524 . S
C1471 C1475 1.400 1_565 S
C1472 H1457 0.960 . S
C1472 H1458 0.960 . S
C1472 H1459 0.960 . S
C1472 C1471 1.524 . S
C1473 C1470 1.403 1_545 S
C1473 C1474 1.392 . S
C1473 C1477 1.495 . S
C1474 C1473 1.392 . S
C1474 C1475 1.385 . S
C1474 C1476 1.478 . S
C1475 H1469 0.930 . S
C1475 C1471 1.400 1_545 S
C1475 C1474 1.385 . S
C1476 C1474 1.478 . S
C1476 C1478 1.381 . S
C1476 C1482 1.383 . S
C1477 C1473 1.495 . S
C1477 H1483 0.959 . S
C1477 H1484 0.961 . S
C1477 H1485 0.960 . S
C1478 C1476 1.381 . S
C1478 C1479 1.394 . S
C1478 H1486 0.930 . S
C1479 C1478 1.394 . S
C1479 C1480 1.383 . S
C1479 H1487 0.929 . S
C1480 C1479 1.383 . S
C1480 C1481 1.377 . S
C1481 H1465 0.930 . S
C1481 C1480 1.377 . S
C1481 C1482 1.379 . S
C1482 H1466 0.931 . S
C1482 C1476 1.383 . S
C1482 C1481 1.379 . S
H1483 C1477 0.959 . S
H1484 C1477 0.961 . S
H1485 C1477 0.960 . S
H1486 C1478 0.930 . S
H1487 C1479 0.929 . S
C417 C2 3.003 . S
C436 C206 2.999 . S
C453 C36 3.003 . S
C472 C240 2.999 . S
C489 C70 3.002 . S
C508 C274 2.996 . S
C525 C308 3.003 . S
C544 C104 2.999 . S
C561 C138 3.002 . S
C580 C342 2.996 . S
C597 C376 3.002 . S
C616 C172 2.996 . S
C633 C311 1.156 . S
C652 C107 1.141 . S
C669 C141 1.155 . S
C688 C345 1.138 . S
C705 C379 1.145 . S
C724 C175 1.133 . S
C741 C209 1.153 . S
C760 C5 1.178 . S
C777 C243 1.157 . S
C796 C39 1.165 . S
C813 C73 1.152 . S
C832 C277 1.125 . S
C849 C349 0.702 . S
C868 C9 0.710 . S
C885 C43 0.698 . S
C904 C383 0.718 . S
C921 C77 0.708 . S
C940 C213 0.674 . S
C957 C111 0.705 . S
C976 C247 0.691 . S
C993 C145 0.699 . S
C1012 C281 0.723 . S
C1029 C179 0.708 . S
C1048 C315 0.676 . S
C1065 C122 2.213 . S
C1084 C258 2.213 . S
C1101 C156 2.216 . S
C1120 C292 2.204 . S
C1137 C326 2.214 . S
C1156 C190 2.213 . S
C1173 C20 2.216 . S
C1192 C360 2.213 . S
C1209 C394 2.214 . S
C1228 C54 2.217 . S
C1245 C88 2.214 . S
C1264 C224 2.215 . S
C1281 C33 0.590 . S
C1300 C339 0.603 . S
C1317 C373 0.600 . S
C1336 C67 0.571 . S
C1353 C407 0.591 . S
C1372 C101 0.596 . S
C1389 C237 0.592 . S
C1408 C135 0.586 . S
C1425 C169 0.592 . S
C1444 C271 0.625 . S
C1461 C305 0.592 . S
C1480 C203 0.625 . S
