# Generated by pormake.
# Topology ukh, (4)-cn, num edge types: 1
# Building blocks:
#     Node 0, Type 0, BuildingBlock: AZAVOO_clean_sbu_0, # of connection points: 4
#     Node 1, Type 0, BuildingBlock: AZAVOO_clean_sbu_0, # of connection points: 4
#     Node 2, Type 0, BuildingBlock: AZAVOO_clean_sbu_0, # of connection points: 4
#     Node 3, Type 0, BuildingBlock: AZAVOO_clean_sbu_0, # of connection points: 4
#     Node 4, Type 0, BuildingBlock: AZAVOO_clean_sbu_0, # of connection points: 4
#     Node 5, Type 0, BuildingBlock: AZAVOO_clean_sbu_0, # of connection points: 4
#     Node 6, Type 0, BuildingBlock: AZAVOO_clean_sbu_0, # of connection points: 4
#     Node 7, Type 0, BuildingBlock: AZAVOO_clean_sbu_0, # of connection points: 4
#     Node 8, Type 0, BuildingBlock: AZAVOO_clean_sbu_0, # of connection points: 4
#     Node 9, Type 0, BuildingBlock: AZAVOO_clean_sbu_0, # of connection points: 4
#     Node 10, Type 0, BuildingBlock: AZAVOO_clean_sbu_0, # of connection points: 4
#     Node 11, Type 0, BuildingBlock: AZAVOO_clean_sbu_0, # of connection points: 4
#     Edge 12, Type (0, 0), BuildingBlock: MIFKUJ_clean_linker_0, # of connection points: 2
#     Edge 13, Type (0, 0), BuildingBlock: MIFKUJ_clean_linker_0, # of connection points: 2
#     Edge 14, Type (0, 0), BuildingBlock: MIFKUJ_clean_linker_0, # of connection points: 2
#     Edge 15, Type (0, 0), BuildingBlock: MIFKUJ_clean_linker_0, # of connection points: 2
#     Edge 16, Type (0, 0), BuildingBlock: MIFKUJ_clean_linker_0, # of connection points: 2
#     Edge 17, Type (0, 0), BuildingBlock: MIFKUJ_clean_linker_0, # of connection points: 2
#     Edge 18, Type (0, 0), BuildingBlock: MIFKUJ_clean_linker_0, # of connection points: 2
#     Edge 19, Type (0, 0), BuildingBlock: MIFKUJ_clean_linker_0, # of connection points: 2
#     Edge 20, Type (0, 0), BuildingBlock: MIFKUJ_clean_linker_0, # of connection points: 2
#     Edge 21, Type (0, 0), BuildingBlock: MIFKUJ_clean_linker_0, # of connection points: 2
#     Edge 22, Type (0, 0), BuildingBlock: MIFKUJ_clean_linker_0, # of connection points: 2
#     Edge 23, Type (0, 0), BuildingBlock: MIFKUJ_clean_linker_0, # of connection points: 2
#     Edge 24, Type (0, 0), BuildingBlock: MIFKUJ_clean_linker_0, # of connection points: 2
#     Edge 25, Type (0, 0), BuildingBlock: MIFKUJ_clean_linker_0, # of connection points: 2
#     Edge 26, Type (0, 0), BuildingBlock: MIFKUJ_clean_linker_0, # of connection points: 2
#     Edge 27, Type (0, 0), BuildingBlock: MIFKUJ_clean_linker_0, # of connection points: 2
#     Edge 28, Type (0, 0), BuildingBlock: MIFKUJ_clean_linker_0, # of connection points: 2
#     Edge 29, Type (0, 0), BuildingBlock: MIFKUJ_clean_linker_0, # of connection points: 2
#     Edge 30, Type (0, 0), BuildingBlock: MIFKUJ_clean_linker_0, # of connection points: 2
#     Edge 31, Type (0, 0), BuildingBlock: MIFKUJ_clean_linker_0, # of connection points: 2
#     Edge 32, Type (0, 0), BuildingBlock: MIFKUJ_clean_linker_0, # of connection points: 2
#     Edge 33, Type (0, 0), BuildingBlock: MIFKUJ_clean_linker_0, # of connection points: 2
#     Edge 34, Type (0, 0), BuildingBlock: MIFKUJ_clean_linker_0, # of connection points: 2
#     Edge 35, Type (0, 0), BuildingBlock: MIFKUJ_clean_linker_0, # of connection points: 2
# Relax obj value: 0.220
# Max RMSD: 0.236
# Mean RMSD: 0.236
data_MOF--net-ukh--node1-AZAVOO_clean_sbu_0--edge1-MIFKUJ_clean_linker_0
_symmetry_space_group_name_H-M    P1
_symmetry_Int_Tables_number       1
_symmetry_cell_setting            triclinic
loop_
_symmetry_equiv_pos_as_xyz
'x, y, z'
_cell_length_a     40.868379
_cell_length_b     40.90331
_cell_length_c     78.00296
_cell_angle_alpha  89.974786
_cell_angle_beta   90.024424
_cell_angle_gamma 120.00557
loop_
_atom_site_label
_atom_site_type_symbol
_atom_site_fract_x
_atom_site_fract_y
_atom_site_fract_z
_atom_type_partial_charge
Mg0 Mg 0.28985 0.21874 0.0572 0.0
O1 O 0.23873 0.22258 0.04692 0.0
O2 O 0.18736 0.17229 0.05765 0.0
Mg3 Mg 0.20379 0.1341 0.07192 0.0
C4 C 0.20292 0.20279 0.04894 0.0
C5 C 0.34193 0.29631 0.0372 0.0
O6 O 0.32736 0.2756 0.0234 0.0
O7 O 0.28129 0.2325 0.08462 0.0
O8 O 0.23163 0.178 0.09309 0.0
O9 O 0.28959 0.18609 0.03399 0.0
O10 O 0.25725 0.16025 0.05758 0.0
C11 C 0.25804 0.21163 0.09616 0.0
C12 C 0.26621 0.15592 0.04232 0.0
O13 O 0.3311 0.28123 0.05189 0.0
Mg14 Mg 0.10828 0.31542 0.36921 0.0
O15 O 0.06099 0.25594 0.36094 0.0
O16 O 0.0836 0.21728 0.36661 0.0
Mg17 Mg 0.14428 0.25032 0.37654 0.0
C18 C 0.05732 0.22296 0.36121 0.0
C19 C 0.08848 0.37623 0.3683 0.0
O20 O 0.12556 0.39287 0.36841 0.0
O21 O 0.09649 0.29989 0.3976 0.0
O22 O 0.12555 0.2663 0.40122 0.0
O23 O 0.13673 0.32825 0.34318 0.0
O24 O 0.14795 0.30006 0.36464 0.0
C25 C 0.10859 0.28289 0.40724 0.0
C26 C 0.15465 0.31212 0.34918 0.0
O27 O 0.06954 0.34037 0.36854 0.0
Mg28 Mg 0.75886 0.05338 0.68974 0.0
O29 O 0.76502 0.00255 0.68035 0.0
O30 O 0.82649 0.02212 0.68402 0.0
Mg31 Mg 0.85966 0.08252 0.6938 0.0
C32 C 0.79321 0.99696 0.67951 0.0
C33 C 0.68311 0.04441 0.69347 0.0
O34 O 0.70873 0.08028 0.69508 0.0
O35 O 0.76546 0.04118 0.71776 0.0
O36 O 0.82804 0.06488 0.71921 0.0
O37 O 0.77289 0.08231 0.66377 0.0
O38 O 0.81418 0.0894 0.68366 0.0
C39 C 0.79557 0.05033 0.72631 0.0
C40 C 0.8077 0.09781 0.66874 0.0
O41 O 0.69434 0.02084 0.69097 0.0
Mg42 Mg 0.68742 0.75986 0.05752 0.0
O43 O 0.74625 0.76918 0.04982 0.0
O44 O 0.78864 0.82567 0.06022 0.0
Mg45 Mg 0.75896 0.85216 0.07445 0.0
C46 C 0.78045 0.79567 0.05189 0.0
C47 C 0.63977 0.68373 0.03699 0.0
O48 O 0.64052 0.70723 0.0253 0.0
O49 O 0.69481 0.74763 0.08545 0.0
O50 O 0.73672 0.80553 0.09469 0.0
O51 O 0.68688 0.79137 0.03377 0.0
O52 O 0.70869 0.81752 0.05899 0.0
C53 C 0.71484 0.77028 0.09736 0.0
C54 C 0.70296 0.82147 0.04318 0.0
O55 O 0.65807 0.69694 0.05087 0.0
Mg56 Mg 0.91639 0.68594 0.36426 0.0
O57 O 0.97223 0.74281 0.36713 0.0
O58 O 0.95615 0.78428 0.37686 0.0
Mg59 Mg 0.89251 0.75552 0.38079 0.0
C60 C 0.98097 0.77627 0.37171 0.0
C61 C 0.92676 0.61779 0.36345 0.0
O62 O 0.89038 0.60402 0.36593 0.0
O63 O 0.91064 0.67544 0.39321 0.0
O64 O 0.89453 0.7177 0.40172 0.0
O65 O 0.9095 0.70409 0.33763 0.0
O66 O 0.88724 0.71435 0.36163 0.0
C67 C 0.90109 0.6909 0.4049 0.0
C68 C 0.89271 0.7195 0.34547 0.0
O69 O 0.94776 0.65328 0.36166 0.0
Mg70 Mg 0.21897 0.94703 0.70404 0.0
O71 O 0.21675 0.00107 0.69642 0.0
O72 O 0.15882 0.98824 0.70427 0.0
Mg73 Mg 0.12468 0.92995 0.71613 0.0
C74 C 0.19103 0.0102 0.69756 0.0
C75 C 0.29296 0.94988 0.69945 0.0
O76 O 0.26649 0.91411 0.69953 0.0
O77 O 0.22432 0.96131 0.7326 0.0
O78 O 0.16507 0.9465 0.73886 0.0
O79 O 0.19445 0.91965 0.67859 0.0
O80 O 0.16096 0.91528 0.70154 0.0
C81 C 0.19899 0.95724 0.74336 0.0
C82 C 0.16172 0.90746 0.68567 0.0
O83 O 0.28303 0.9747 0.70089 0.0
Mg84 Mg 0.75936 0.57623 0.61359 0.0
O85 O 0.76983 0.63686 0.61566 0.0
O86 O 0.83135 0.67705 0.61191 0.0
Mg87 Mg 0.85863 0.64243 0.60398 0.0
C88 C 0.79805 0.6704 0.61533 0.0
C89 C 0.67708 0.53904 0.62747 0.0
O90 O 0.69342 0.53251 0.64048 0.0
O91 O 0.76019 0.57938 0.58429 0.0
O92 O 0.82111 0.62247 0.58022 0.0
O93 O 0.77759 0.58275 0.64102 0.0
O94 O 0.81575 0.59481 0.61885 0.0
C95 C 0.78787 0.60058 0.57453 0.0
C96 C 0.81156 0.59678 0.63506 0.0
O97 O 0.69658 0.55572 0.61429 0.0
Mg98 Mg 0.14455 0.77434 0.94699 0.0
O99 O 0.09961 0.78795 0.95725 0.0
O100 O 0.12799 0.85022 0.96165 0.0
Mg101 Mg 0.18814 0.87684 0.95133 0.0
C102 C 0.09902 0.81724 0.96255 0.0
C103 C 0.10818 0.69311 0.93342 0.0
O104 O 0.14293 0.70824 0.9276 0.0
O105 O 0.14019 0.79356 0.91995 0.0
O106 O 0.16596 0.85579 0.92427 0.0
O107 O 0.16173 0.77465 0.97431 0.0
O108 O 0.18765 0.82413 0.95699 0.0
C109 C 0.1502 0.82679 0.91457 0.0
C110 C 0.18448 0.81047 0.97211 0.0
O111 O 0.09873 0.7137 0.94183 0.0
Mg112 Mg 0.39529 0.16043 0.29596 0.0
O113 O 0.33955 0.11397 0.30789 0.0
O114 O 0.30208 0.13831 0.31224 0.0
Mg115 Mg 0.3322 0.19871 0.30234 0.0
C116 C 0.30858 0.11095 0.31319 0.0
C117 C 0.44441 0.1266 0.28434 0.0
O118 O 0.46757 0.16264 0.28137 0.0
O119 O 0.36676 0.15249 0.26984 0.0
O120 O 0.32939 0.1769 0.27518 0.0
O121 O 0.41793 0.18332 0.32245 0.0
O122 O 0.38697 0.20225 0.30566 0.0
C123 C 0.34227 0.16141 0.26511 0.0
C124 C 0.40304 0.20443 0.32002 0.0
O125 O 0.41177 0.11626 0.29033 0.0
Mg126 Mg 0.20774 0.41524 0.62152 0.0
O127 O 0.19844 0.35619 0.62687 0.0
O128 O 0.13689 0.31441 0.6253 0.0
Mg129 Mg 0.10687 0.34722 0.61808 0.0
C130 C 0.17094 0.32243 0.62794 0.0
C131 C 0.29303 0.45901 0.63082 0.0
O132 O 0.27989 0.47252 0.64253 0.0
O133 O 0.19923 0.4022 0.59266 0.0
O134 O 0.13649 0.36339 0.59222 0.0
O135 O 0.19512 0.41857 0.64951 0.0
O136 O 0.15306 0.39931 0.62863 0.0
C137 C 0.1682 0.38208 0.58458 0.0
C138 C 0.16034 0.40443 0.64467 0.0
O139 O 0.27037 0.4355 0.61994 0.0
Mg140 Mg 0.84076 0.20509 0.93483 0.0
O141 O 0.89125 0.20063 0.94495 0.0
O142 O 0.87339 0.13949 0.94725 0.0
Mg143 Mg 0.81254 0.10492 0.93777 0.0
C144 C 0.89806 0.17435 0.94897 0.0
C145 C 0.86818 0.29008 0.9358 0.0
O146 O 0.83498 0.27546 0.94326 0.0
O147 O 0.84986 0.19044 0.90751 0.0
O148 O 0.83134 0.1293 0.91095 0.0
O149 O 0.82132 0.19973 0.96212 0.0
O150 O 0.80332 0.15184 0.94418 0.0
C151 C 0.84381 0.15873 0.90158 0.0
C152 C 0.8033 0.16366 0.9594 0.0
O153 O 0.87955 0.26809 0.93049 0.0
Mg154 Mg 0.62974 0.83655 0.30397 0.0
O155 O 0.69281 0.88239 0.30436 0.0
O156 O 0.7262 0.85413 0.31034 0.0
Mg157 Mg 0.68516 0.79057 0.31207 0.0
C158 C 0.72427 0.88381 0.30734 0.0
C159 C 0.57951 0.86559 0.29024 0.0
O160 O 0.55575 0.82986 0.2936 0.0
O161 O 0.63607 0.81668 0.27739 0.0
O162 O 0.66991 0.7891 0.28376 0.0
O163 O 0.63049 0.84536 0.33228 0.0
O164 O 0.64048 0.80249 0.3198 0.0
C165 C 0.65288 0.79876 0.27292 0.0
C166 C 0.64129 0.82059 0.33343 0.0
O167 O 0.61456 0.8783 0.29267 0.0
H168 H 0.61881 0.62897 0.06148 0.0
H169 H 0.57082 0.56248 0.05922 0.0
H170 H 0.55412 0.5782 0.00588 0.0
H171 H 0.60131 0.64526 0.00824 0.0
H172 H 0.48892 0.53989 0.02035 0.0
H173 H 0.59883 0.52781 0.01942 0.0
H174 H 0.66074 0.53781 0.02891 0.0
H175 H 0.61244 0.48424 0.07699 0.0
H176 H 0.55033 0.47436 0.06789 0.0
H177 H 0.3692 0.3397 0.00817 0.0
H178 H 0.42189 0.40472 0.00605 0.0
H179 H 0.43731 0.40786 0.06084 0.0
H180 H 0.38482 0.34315 0.0631 0.0
H181 H 0.50465 0.43511 0.04284 0.0
H182 H 0.39532 0.45165 0.04346 0.0
H183 H 0.33375 0.44075 0.03293 0.0
H184 H 0.38254 0.485 0.98361 0.0
H185 H 0.44432 0.49568 0.99379 0.0
C186 C 0.60534 0.61823 0.04919 0.0
C187 C 0.61393 0.64249 0.03504 0.0
C188 C 0.57793 0.58005 0.04789 0.0
C189 C 0.559 0.56503 0.03231 0.0
C190 C 0.56825 0.58903 0.01804 0.0
C191 C 0.59537 0.62737 0.01939 0.0
C192 C 0.52815 0.52488 0.03126 0.0
C193 C 0.49268 0.51695 0.02497 0.0
C194 C 0.53265 0.49481 0.03749 0.0
C195 C 0.56996 0.50061 0.04301 0.0
C196 C 0.60146 0.5184 0.03207 0.0
C197 C 0.63658 0.52401 0.03737 0.0
C198 C 0.64054 0.51174 0.05355 0.0
C199 C 0.60934 0.49375 0.06446 0.0
C200 C 0.57415 0.48809 0.05923 0.0
C201 C 0.38369 0.35429 0.01978 0.0
C202 C 0.37271 0.3362 0.03581 0.0
C203 C 0.41377 0.39145 0.01854 0.0
C204 C 0.43349 0.41114 0.0333 0.0
C205 C 0.42257 0.39316 0.04929 0.0
C206 C 0.39239 0.35619 0.05055 0.0
C207 C 0.46561 0.45047 0.03219 0.0
C208 C 0.50122 0.45814 0.03807 0.0
C209 C 0.46137 0.48021 0.0254 0.0
C210 C 0.42432 0.47407 0.01933 0.0
C211 C 0.39284 0.45877 0.03033 0.0
C212 C 0.35792 0.45268 0.02443 0.0
C213 C 0.3542 0.46207 0.00759 0.0
C214 C 0.38544 0.47768 0.99664 0.0
C215 C 0.42042 0.48378 0.00247 0.0
H216 H 0.32714 0.45732 0.00305 0.0
H217 H 0.66776 0.51611 0.05763 0.0
H218 H 0.12242 0.45284 0.36706 0.0
H219 H 0.09252 0.49149 0.36668 0.0
H220 H 0.9826 0.39114 0.36863 0.0
H221 H 0.01246 0.35192 0.36877 0.0
H222 H 0.98465 0.44129 0.34538 0.0
H223 H 0.0192 0.44466 0.40397 0.0
H224 H 0.06174 0.4528 0.42805 0.0
H225 H 0.13403 0.56891 0.41409 0.0
H226 H 0.09229 0.5613 0.38973 0.0
H227 H 0.88826 0.54092 0.36544 0.0
H228 H 0.91423 0.49867 0.36646 0.0
H229 H 0.02708 0.59422 0.36267 0.0
H230 H 0.00129 0.63691 0.36176 0.0
H231 H 0.02081 0.54416 0.38782 0.0
H232 H 0.98638 0.5388 0.32837 0.0
H233 H 0.94334 0.52936 0.30432 0.0
H234 H 0.86914 0.4153 0.32067 0.0
H235 H 0.91151 0.42423 0.34496 0.0
C236 C 0.09187 0.43886 0.36743 0.0
C237 C 0.06981 0.39926 0.36802 0.0
C238 C 0.07482 0.46106 0.36729 0.0
C239 C 0.03536 0.44423 0.36789 0.0
C240 C 0.01313 0.40469 0.36824 0.0
C241 C 0.03022 0.38235 0.36835 0.0
C242 C 0.0176 0.4682 0.36794 0.0
C243 C 0.99205 0.46336 0.35483 0.0
C244 C 0.02782 0.49743 0.38011 0.0
C245 C 0.05275 0.50231 0.39492 0.0
C246 C 0.04431 0.47187 0.40596 0.0
C247 C 0.06826 0.47639 0.41967 0.0
C248 C 0.1006 0.51132 0.42258 0.0
C249 C 0.10898 0.54185 0.41181 0.0
C250 C 0.08517 0.53745 0.39805 0.0
C251 C 0.91862 0.55303 0.36476 0.0
C252 C 0.94272 0.59232 0.36347 0.0
C253 C 0.9334 0.52878 0.3653 0.0
C254 C 0.97255 0.54328 0.36451 0.0
C255 C 0.99675 0.58248 0.36328 0.0
C256 C 0.98197 0.6068 0.36269 0.0
C257 C 0.98821 0.5175 0.36515 0.0
C258 C 0.01331 0.52197 0.37842 0.0
C259 C 0.97737 0.48776 0.35322 0.0
C260 C 0.95193 0.48232 0.33858 0.0
C261 C 0.96073 0.51181 0.32692 0.0
C262 C 0.93649 0.50653 0.31322 0.0
C263 C 0.90347 0.47179 0.31099 0.0
C264 C 0.89469 0.44221 0.32243 0.0
C265 C 0.91883 0.44736 0.33615 0.0
H266 H 0.88474 0.46775 0.30038 0.0
H267 H 0.11912 0.51475 0.43319 0.0
H268 H 0.32089 0.90225 0.69551 0.0
H269 H 0.38672 0.91798 0.69439 0.0
H270 H 0.4225 0.03612 0.69981 0.0
H271 H 0.35622 0.02059 0.70073 0.0
H272 H 0.46336 0.02514 0.67565 0.0
H273 H 0.42672 0.98567 0.73365 0.0
H274 H 0.38722 0.94347 0.75687 0.0
H275 H 0.40846 0.85665 0.73881 0.0
H276 H 0.44768 0.89816 0.71532 0.0
H277 H 0.65306 0.08998 0.69796 0.0
H278 H 0.58677 0.07251 0.69853 0.0
H279 H 0.55422 0.95565 0.69106 0.0
H280 H 0.62113 0.97297 0.6906 0.0
H281 H 0.51161 0.96507 0.71594 0.0
H282 H 0.54944 0.00586 0.65807 0.0
H283 H 0.58971 0.04914 0.63531 0.0
H284 H 0.56686 0.13467 0.65368 0.0
H285 H 0.52685 0.09208 0.67671 0.0
C286 C 0.34266 0.93165 0.69646 0.0
C287 C 0.33323 0.96018 0.69829 0.0
C288 C 0.38037 0.94055 0.69589 0.0
C289 C 0.4096 0.97816 0.69729 0.0
C290 C 0.40038 0.00687 0.69878 0.0
C291 C 0.36252 0.99796 0.69933 0.0
C292 C 0.44968 0.9873 0.69708 0.0
C293 C 0.47403 0.01241 0.68461 0.0
C294 C 0.46341 0.96995 0.7085 0.0
C295 C 0.43983 0.9449 0.72261 0.0
C296 C 0.42271 0.95747 0.73454 0.0
C297 C 0.40042 0.93369 0.74776 0.0
C298 C 0.39525 0.89737 0.74928 0.0
C299 C 0.41244 0.88477 0.7376 0.0
C300 C 0.43473 0.90843 0.72433 0.0
C301 C 0.63194 0.06049 0.69644 0.0
C302 C 0.64247 0.03286 0.69414 0.0
C303 C 0.59396 0.0506 0.6967 0.0
C304 C 0.56553 0.01288 0.69459 0.0
C305 C 0.57577 0.98499 0.69263 0.0
C306 C 0.61396 0.99491 0.69234 0.0
C307 C 0.52523 0.00291 0.69453 0.0
C308 C 0.50087 0.97768 0.70695 0.0
C309 C 0.51152 0.02026 0.68311 0.0
C310 C 0.5354 0.04587 0.66921 0.0
C311 C 0.55322 0.034 0.65734 0.0
C312 C 0.57597 0.05839 0.64438 0.0
C313 C 0.58091 0.09466 0.64307 0.0
C314 C 0.56303 0.10658 0.65471 0.0
C315 C 0.54029 0.08231 0.66771 0.0
H316 H 0.59853 0.1135 0.63303 0.0
H317 H 0.37799 0.87901 0.75954 0.0
H318 H 0.63623 0.552 0.60345 0.0
H319 H 0.57109 0.53854 0.6057 0.0
H320 H 0.56223 0.49085 0.65598 0.0
H321 H 0.62741 0.5039 0.65379 0.0
H322 H 0.49952 0.44804 0.63685 0.0
H323 H 0.57539 0.5777 0.65255 0.0
H324 H 0.62678 0.64357 0.64914 0.0
H325 H 0.57547 0.65359 0.60289 0.0
H326 H 0.52407 0.58756 0.60587 0.0
H327 H 0.34923 0.50876 0.65206 0.0
H328 H 0.41481 0.52267 0.65314 0.0
H329 H 0.39318 0.44632 0.61096 0.0
H330 H 0.32763 0.432 0.60986 0.0
H331 H 0.47163 0.55228 0.62972 0.0
H332 H 0.4411 0.39941 0.61807 0.0
H333 H 0.39007 0.3341 0.62343 0.0
H334 H 0.35127 0.37195 0.66606 0.0
H335 H 0.40238 0.43736 0.66113 0.0
C336 C 0.62042 0.53848 0.61496 0.0
C337 C 0.63706 0.52918 0.62849 0.0
C338 C 0.58324 0.53095 0.61625 0.0
C339 C 0.56206 0.51417 0.6311 0.0
C340 C 0.57819 0.50393 0.64444 0.0
C341 C 0.61544 0.51149 0.64317 0.0
C342 C 0.52321 0.50774 0.63272 0.0
C343 C 0.4934 0.4708 0.63532 0.0
C344 C 0.51541 0.53765 0.63109 0.0
C345 C 0.54602 0.57756 0.62937 0.0
C346 C 0.57519 0.59386 0.64159 0.0
C347 C 0.60432 0.63124 0.63974 0.0
C348 C 0.60443 0.65273 0.62579 0.0
C349 C 0.57536 0.63691 0.61368 0.0
C350 C 0.5462 0.59951 0.61545 0.0
C351 C 0.35846 0.49503 0.64297 0.0
C352 C 0.33318 0.46913 0.63093 0.0
C353 C 0.39594 0.50308 0.64359 0.0
C354 C 0.40865 0.48516 0.63227 0.0
C355 C 0.38374 0.46001 0.61998 0.0
C356 C 0.34633 0.452 0.61932 0.0
C357 C 0.44788 0.49243 0.63337 0.0
C358 C 0.47776 0.52953 0.6313 0.0
C359 C 0.45579 0.46277 0.63581 0.0
C360 C 0.42539 0.42336 0.63911 0.0
C361 C 0.4218 0.39377 0.62864 0.0
C362 C 0.39283 0.35673 0.6316 0.0
C363 C 0.36737 0.34889 0.64504 0.0
C364 C 0.37093 0.37807 0.65561 0.0
C365 C 0.39987 0.41514 0.65273 0.0
H366 H 0.34492 0.32022 0.64729 0.0
H367 H 0.62702 0.68166 0.62437 0.0
H368 H 0.85275 0.3443 0.94684 0.0
H369 H 0.89268 0.41267 0.94444 0.0
H370 H 0.97738 0.39827 0.91804 0.0
H371 H 0.93779 0.32969 0.92065 0.0
H372 H 0.00857 0.45092 0.94236 0.0
H373 H 0.92108 0.42462 0.89641 0.0
H374 H 0.85833 0.39801 0.88289 0.0
H375 H 0.83102 0.46471 0.91607 0.0
H376 H 0.89345 0.49134 0.92995 0.0
H377 H 0.12085 0.6414 0.91711 0.0
H378 H 0.07893 0.57312 0.91567 0.0
H379 H 0.99383 0.58352 0.94387 0.0
H380 H 0.03547 0.65202 0.94523 0.0
H381 H 0.96322 0.53293 0.91759 0.0
H382 H 0.04936 0.55712 0.96422 0.0
H383 H 0.1119 0.58361 0.97794 0.0
H384 H 0.14137 0.5205 0.94353 0.0
H385 H 0.07916 0.49402 0.92944 0.0
C386 C 0.87979 0.35561 0.94045 0.0
C387 C 0.89207 0.33152 0.93391 0.0
C388 C 0.90252 0.39474 0.93901 0.0
C389 C 0.93782 0.4106 0.93087 0.0
C390 C 0.95018 0.38663 0.92433 0.0
C391 C 0.9275 0.34745 0.92581 0.0
C392 C 0.96235 0.4522 0.92971 0.0
C393 C -0.00114 0.46879 0.93668 0.0
C394 C 0.94935 0.4756 0.92268 0.0
C395 C 0.91183 0.45972 0.91432 0.0
C396 C 0.90159 0.43339 0.90091 0.0
C397 C 0.86609 0.41835 0.89317 0.0
C398 C 0.84067 0.42959 0.89865 0.0
C399 C 0.85073 0.45599 0.91185 0.0
C400 C 0.88618 0.4711 0.91965 0.0
C401 C 0.09312 0.62926 0.9229 0.0
C402 C 0.08162 0.65214 0.93141 0.0
C403 C 0.06924 0.59019 0.92211 0.0
C404 C 0.0335 0.57321 0.92989 0.0
C405 C 0.02136 0.59607 0.93784 0.0
C406 C 0.04523 0.63519 0.93863 0.0
C407 C 0.00934 0.53152 0.93023 0.0
C408 C 0.97293 0.51498 0.92316 0.0
C409 C 0.02238 0.50811 0.93717 0.0
C410 C 0.05976 0.5239 0.94566 0.0
C411 C 0.06929 0.54913 0.95949 0.0
C412 C 0.10466 0.5641 0.96735 0.0
C413 C 0.13063 0.55383 0.96158 0.0
C414 C 0.12125 0.52848 0.94797 0.0
C415 C 0.08593 0.51346 0.94005 0.0
H416 H 0.158 0.56544 0.96769 0.0
H417 H 0.8132 0.41791 0.89264 0.0
H418 H 0.51442 0.14 0.27476 0.0
H419 H 0.53587 0.09413 0.27238 0.0
H420 H 0.42399 0.00428 0.28527 0.0
H421 H 0.40248 0.05002 0.288 0.0
H422 H 0.47531 -8e-05 0.30407 0.0
H423 H 0.45944 0.01477 0.24437 0.0
H424 H 0.46773 0.04952 0.2174 0.0
H425 H 0.58763 0.09406 0.21986 0.0
H426 H 0.58012 0.05998 0.247 0.0
H427 H 0.50603 0.84846 0.28798 0.0
H428 H 0.48243 0.89212 0.28359 0.0
H429 H 0.59657 0.98427 0.27769 0.0
H430 H 0.62062 0.94074 0.2821 0.0
H431 H 0.54368 0.98657 0.25443 0.0
H432 H 0.55883 0.97359 0.31489 0.0
H433 H 0.54991 0.93826 0.34174 0.0
H434 H 0.42966 0.88953 0.33741 0.0
H435 H 0.43786 0.92417 0.31037 0.0
C436 C 0.49428 0.11044 0.27693 0.0
C437 C 0.4568 0.09867 0.28165 0.0
C438 C 0.50654 0.08422 0.27547 0.0
C439 C 0.48145 0.04575 0.27852 0.0
C440 C 0.44382 0.03385 0.28287 0.0
C441 C 0.43158 0.06003 0.28441 0.0
C442 C 0.49499 0.01822 0.27829 0.0
C443 C 0.48966 0.99658 0.29308 0.0
C444 C 0.51461 0.01457 0.26413 0.0
C445 C 0.51924 0.03509 0.24781 0.0
C446 C 0.48761 0.03222 0.23924 0.0
C447 C 0.49216 0.05175 0.22391 0.0
C448 C 0.52819 0.07406 0.21695 0.0
C449 C 0.55974 0.07681 0.22528 0.0
C450 C 0.55535 0.05736 0.24063 0.0
C451 C 0.52616 0.87791 0.28552 0.0
C452 C 0.56524 0.89123 0.28558 0.0
C453 C 0.51259 0.90279 0.28303 0.0
C454 C 0.53781 0.94139 0.28052 0.0
C455 C 0.57671 0.95453 0.27963 0.0
C456 C 0.59037 0.92966 0.28223 0.0
C457 C 0.52365 0.96831 0.28012 0.0
C458 C 0.52905 0.98988 0.26531 0.0
C459 C 0.50394 0.97188 0.29422 0.0
C460 C 0.49895 0.95115 0.31051 0.0
C461 C 0.53047 0.95508 0.31958 0.0
C462 C 0.52555 0.93523 0.33485 0.0
C463 C 0.48923 0.91158 0.34125 0.0
C464 C 0.45777 0.90781 0.33242 0.0
C465 C 0.46254 0.92756 0.31713 0.0
H466 H 0.48548 0.89624 0.35308 0.0
H467 H 0.53166 0.08915 0.20507 0.0
H468 H 0.38806 0.17864 0.23726 0.0
H469 H 0.3735 0.19037 0.20812 0.0
H470 H 0.25827 0.15138 0.22321 0.0
H471 H 0.2729 0.14064 0.25241 0.0
H472 H 0.27041 0.12756 0.18882 0.0
H473 H 0.30814 0.23704 0.22515 0.0
H474 H 0.35121 0.28646 0.24523 0.0
H475 H 0.44017 0.32703 0.20786 0.0
H476 H 0.39769 0.27746 0.18762 0.0
H477 H 0.20783 0.19156 0.12244 0.0
H478 H 0.22246 0.18909 0.15261 0.0
H479 H 0.34159 0.25069 0.14098 0.0
H480 H 0.32714 0.25445 0.1109 0.0
H481 H 0.32891 0.26344 0.17377 0.0
H482 H 0.29367 0.1562 0.13739 0.0
H483 H 0.2529 0.1065 0.11687 0.0
H484 H 0.16275 0.06049 0.15371 0.0
H485 H 0.20282 0.11035 0.17435 0.0
C486 C 0.35937 0.17144 0.23417 0.0
C487 C 0.33153 0.15871 0.24697 0.0
C488 C 0.3512 0.17845 0.21763 0.0
C489 C 0.31497 0.17211 0.21369 0.0
C490 C 0.28639 0.1565 0.22609 0.0
C491 C 0.29473 0.15028 0.24269 0.0
C492 C 0.30749 0.18458 0.19714 0.0
C493 C 0.28284 0.15722 0.18556 0.0
C494 C 0.32443 0.2233 0.19288 0.0
C495 C 0.34989 0.25329 0.20496 0.0
C496 C 0.33699 0.25627 0.22128 0.0
C497 C 0.36127 0.28434 0.23268 0.0
C498 C 0.39845 0.30978 0.22785 0.0
C499 C 0.41138 0.30726 0.21159 0.0
C500 C 0.38721 0.2792 0.20015 0.0
C501 C 0.23714 0.20606 0.12647 0.0
C502 C 0.26635 0.2226 0.11432 0.0
C503 C 0.24547 0.2044 0.14367 0.0
C504 C 0.28306 0.21845 0.14886 0.0
C505 C 0.31237 0.23926 0.13719 0.0
C506 C 0.30405 0.24153 0.11999 0.0
C507 C 0.29138 0.20639 0.16542 0.0
C508 C 0.31634 0.23376 0.17699 0.0
C509 C 0.27507 0.16757 0.16962 0.0
C510 C 0.2511 0.13721 0.15734 0.0
C511 C 0.26507 0.13561 0.14107 0.0
C512 C 0.2421 0.10742 0.12942 0.0
C513 C 0.20523 0.0804 0.13397 0.0
C514 C 0.1913 0.08147 0.1502 0.0
C515 C 0.21412 0.10968 0.16187 0.0
H516 H 0.18748 0.0586 0.12494 0.0
H517 H 0.41721 0.33152 0.23668 0.0
H518 H 0.06843 0.30734 0.42642 0.0
H519 H 0.07737 0.32425 0.45687 0.0
H520 H 0.1605 0.28885 0.46051 0.0
H521 H 0.15013 0.26993 0.43066 0.0
H522 H 0.12472 0.27178 0.48829 0.0
H523 H 0.18285 0.3853 0.45409 0.0
H524 H 0.18415 0.42952 0.43221 0.0
H525 H 0.10163 0.44285 0.46064 0.0
H526 H 0.09953 0.39836 0.48261 0.0
H527 H 0.21863 0.37657 0.5633 0.0
H528 H 0.21013 0.36209 0.53241 0.0
H529 H 0.10771 0.36809 0.53296 0.0
H530 H 0.11561 0.3817 0.56363 0.0
H531 H 0.1547 0.40174 0.50336 0.0
H532 H 0.09764 0.28659 0.53729 0.0
H533 H 0.09906 0.24367 0.55911 0.0
H534 H 0.1847 0.23588 0.53055 0.0
H535 H 0.18418 0.27926 0.50868 0.0
C536 C 0.08801 0.30246 0.43383 0.0
C537 C 0.10875 0.28757 0.42606 0.0
C538 C 0.09342 0.31251 0.45119 0.0
C539 C 0.1205 0.30892 0.46088 0.0
C540 C 0.13962 0.29215 0.45333 0.0
C541 C 0.13361 0.28131 0.43618 0.0
C542 C 0.13027 0.3238 0.47865 0.0
C543 C 0.13173 0.30039 0.49146 0.0
C544 C 0.13913 0.36104 0.48296 0.0
C545 C 0.14078 0.38823 0.4699 0.0
C546 C 0.16486 0.39754 0.45563 0.0
C547 C 0.16574 0.42265 0.44323 0.0
C548 C 0.1429 0.4389 0.44502 0.0
C549 C 0.11926 0.4302 0.45927 0.0
C550 C 0.11824 0.40507 0.47171 0.0
C551 C 0.19485 0.3756 0.55668 0.0
C552 C 0.16763 0.37994 0.56576 0.0
C553 C 0.18993 0.36722 0.53913 0.0
C554 C 0.15813 0.36381 0.53052 0.0
C555 C 0.13239 0.37064 0.53939 0.0
C556 C 0.13688 0.37825 0.55689 0.0
C557 C 0.14949 0.34984 0.5127 0.0
C558 C 0.14801 0.37331 0.5 0.0
C559 C 0.14117 0.31291 0.50842 0.0
C560 C 0.14118 0.2865 0.52146 0.0
C561 C 0.117 0.27598 0.53574 0.0
C562 C 0.1176 0.25152 0.5481 0.0
C563 C 0.14204 0.23714 0.54625 0.0
C564 C 0.16584 0.2471 0.53199 0.0
C565 C 0.16539 0.2716 0.5196 0.0
H566 H 0.14247 0.21821 0.55583 0.0
H567 H 0.14358 0.45829 0.43538 0.0
H568 H 0.74018 0.04753 0.74714 0.0
H569 H 0.74747 0.06588 0.7774 0.0
H570 H 0.85667 0.07371 0.77836 0.0
H571 H 0.84978 0.05555 0.74826 0.0
H572 H 0.76249 0.04174 0.80827 0.0
H573 H 0.91832 0.15741 0.79735 0.0
H574 H 0.95925 0.19593 0.77355 0.0
H575 H 0.86282 0.18679 0.74715 0.0
H576 H 0.82141 0.14872 0.77088 0.0
H577 H 0.85314 0.10429 0.8864 0.0
H578 H 0.8453 0.08734 0.85615 0.0
H579 H 0.83371 0.18408 0.84438 0.0
H580 H 0.8417 0.2015 0.87487 0.0
H581 H 0.8742 0.16815 0.81921 0.0
H582 H 0.75646 0.10517 0.8494 0.0
H583 H 0.71396 0.06773 0.87296 0.0
H584 H 0.72979 0.97449 0.86013 0.0
H585 H 0.77288 0.01161 0.83664 0.0
C586 C 0.7652 0.05198 0.75393 0.0
C587 C 0.79466 0.05066 0.74524 0.0
C588 C 0.7694 0.06266 0.77119 0.0
C589 C 0.80305 0.07212 0.77989 0.0
C590 C 0.83086 0.06732 0.7717 0.0
C591 C 0.82675 0.05673 0.75452 0.0
C592 C 0.81058 0.0898 0.79704 0.0
C593 C 0.78684 0.06936 0.81067 0.0
C594 C 0.84192 0.12628 0.80002 0.0
C595 C 0.86674 0.14995 0.78585 0.0
C596 C 0.90588 0.16381 0.78651 0.0
C597 C 0.92916 0.18553 0.77302 0.0
C598 C 0.91363 0.19374 0.75883 0.0
C599 C 0.8748 0.18032 0.75812 0.0
C600 C 0.85141 0.15864 0.77158 0.0
C601 C 0.84963 0.12244 0.87737 0.0
C602 C 0.8474 0.1539 0.88304 0.0
C603 C 0.84511 0.11265 0.8601 0.0
C604 C 0.83806 0.13397 0.84816 0.0
C605 C 0.83887 0.16716 0.85348 0.0
C606 C 0.84353 0.17711 0.87087 0.0
C607 C 0.82679 0.11953 0.83051 0.0
C608 C 0.84977 0.14061 0.81678 0.0
C609 C 0.79442 0.08388 0.82738 0.0
C610 C 0.76811 0.06128 0.84134 0.0
C611 C 0.75107 0.07677 0.85167 0.0
C612 C 0.72686 0.0556 0.86501 0.0
C613 C 0.71923 0.01878 0.86806 0.0
C614 C 0.73574 0.00302 0.85775 0.0
C615 C 0.76003 0.0241 0.84442 0.0
H616 H 0.70048 0.00244 0.87839 0.0
H617 H 0.9317 0.21055 0.74841 0.0
H618 H 0.65043 0.71258 0.11147 0.0
H619 H 0.63338 0.70629 0.1419 0.0
H620 H 0.74648 0.79399 0.15435 0.0
H621 H 0.76358 0.80073 0.12408 0.0
H622 H 0.65894 0.69677 0.17459 0.0
H623 H 0.73824 0.85998 0.17686 0.0
H624 H 0.75858 0.91347 0.15686 0.0
H625 H 0.66767 0.84352 0.12275 0.0
H626 H 0.64642 0.78985 0.14267 0.0
H627 H 0.69122 0.76674 0.25881 0.0
H628 H 0.69353 0.75147 0.22892 0.0
H629 H 0.6174 0.79181 0.21561 0.0
H630 H 0.6155 0.8081 0.24568 0.0
H631 H 0.67431 0.81907 0.19437 0.0
H632 H 0.58824 0.6963 0.21496 0.0
H633 H 0.56378 0.64127 0.23425 0.0
H634 H 0.65821 0.62694 0.22188 0.0
H635 H 0.68356 0.68222 0.20269 0.0
C636 C 0.67205 0.72946 0.12077 0.0
C637 C 0.70815 0.75764 0.1154 0.0
C638 C 0.66222 0.7259 0.13814 0.0
C639 C 0.68843 0.75036 0.15025 0.0
C640 C 0.72569 0.77533 0.14512 0.0
C641 C 0.73543 0.77908 0.12783 0.0
C642 C 0.67597 0.75396 0.1676 0.0
C643 C 0.66219 0.72339 0.17897 0.0
C644 C 0.679 0.78839 0.17305 0.0
C645 C 0.69097 0.82083 0.1612 0.0
C646 C 0.72247 0.8561 0.16514 0.0
C647 C 0.73417 0.88644 0.15381 0.0
C648 C 0.7145 0.88187 0.13852 0.0
C649 C 0.68296 0.847 0.13457 0.0
C650 C 0.67109 0.81661 0.14587 0.0
C651 C 0.67468 0.77221 0.24961 0.0
C652 C 0.65315 0.78871 0.25469 0.0
C653 C 0.67582 0.76312 0.23249 0.0
C654 C 0.65513 0.76985 0.22005 0.0
C655 C 0.63342 0.78616 0.22503 0.0
C656 C 0.6324 0.79549 0.24221 0.0
C657 C 0.65851 0.76227 0.20173 0.0
C658 C 0.6706 0.7922 0.19007 0.0
C659 C 0.65314 0.72701 0.19599 0.0
C660 C 0.63792 0.69358 0.20745 0.0
C661 C 0.60394 0.68158 0.21643 0.0
C662 C 0.58989 0.65031 0.22734 0.0
C663 C 0.60946 0.63065 0.22931 0.0
C664 C 0.64308 0.64219 0.22034 0.0
C665 C 0.65727 0.67346 0.20943 0.0
H666 H 0.59854 0.60646 0.23776 0.0
H667 H 0.72366 0.90536 0.12975 0.0
H668 H 0.75596 0.53905 0.55341 0.0
H669 H 0.76261 0.54027 0.52199 0.0
H670 H 0.81633 0.66181 0.5227 0.0
H671 H 0.81048 0.66066 0.55386 0.0
H672 H 0.76773 0.62798 0.49427 0.0
H673 H 0.86976 0.62389 0.52588 0.0
H674 H 0.89362 0.59357 0.54571 0.0
H675 H 0.84626 0.49477 0.51382 0.0
H676 H 0.82168 0.5244 0.49393 0.0
H677 H 0.9037 0.72696 0.43444 0.0
H678 H 0.87392 0.69788 0.46158 0.0
H679 H 0.84564 0.58839 0.44178 0.0
H680 H 0.87605 0.61758 0.41442 0.0
H681 H 0.86626 0.59774 0.47644 0.0
H682 H 0.77907 0.61064 0.4409 0.0
H683 H 0.75717 0.64278 0.42114 0.0
H684 H 0.77548 0.7245 0.46001 0.0
H685 H 0.7981 0.69325 0.47992 0.0
C686 C 0.76799 0.5658 0.54671 0.0
C687 C 0.78276 0.59979 0.55589 0.0
C688 C 0.77195 0.56649 0.52885 0.0
C689 C 0.79019 0.60116 0.5201 0.0
C690 C 0.80208 0.63479 0.52921 0.0
C691 C 0.79878 0.63414 0.54698 0.0
C692 C 0.80153 0.60368 0.50195 0.0
C693 C 0.78898 0.62107 0.49027 0.0
C694 C 0.82856 0.59375 0.49668 0.0
C695 C 0.84348 0.5761 0.50857 0.0
C696 C 0.86418 0.59558 0.52319 0.0
C697 C 0.87787 0.57856 0.53442 0.0
C698 C 0.87134 0.54221 0.53106 0.0
C699 C 0.8512 0.52287 0.51643 0.0
C700 C 0.83739 0.53976 0.50518 0.0
C701 C 0.89192 0.6968 0.43596 0.0
C702 C 0.89181 0.67447 0.42227 0.0
C703 C 0.87468 0.68019 0.45143 0.0
C704 C 0.85657 0.64089 0.45345 0.0
C705 C 0.85908 0.61874 0.44035 0.0
C706 C 0.87667 0.63547 0.4248 0.0
C707 C 0.83357 0.62349 0.46898 0.0
C708 C 0.84399 0.60341 0.48015 0.0
C709 C 0.80444 0.63087 0.47377 0.0
C710 C 0.79044 0.64962 0.4619 0.0
C711 C 0.77865 0.63559 0.44521 0.0
C712 C 0.76608 0.65365 0.43398 0.0
C713 C 0.76496 0.68568 0.43931 0.0
C714 C 0.77634 0.69967 0.4559 0.0
C715 C 0.78898 0.68175 0.46718 0.0
H716 H 0.75525 0.69964 0.4306 0.0
H717 H 0.88197 0.52908 0.53977 0.0
H718 H 0.16741 0.79624 0.88743 0.0
H719 H 0.17713 0.81895 0.85765 0.0
H720 H 0.13768 0.89574 0.87082 0.0
H721 H 0.1292 0.87417 0.90064 0.0
H722 H 0.11149 0.85157 0.83674 0.0
H723 H 0.22147 0.93463 0.87193 0.0
H724 H 0.27278 0.94611 0.892 0.0
H725 H 0.31548 0.89674 0.85623 0.0
H726 H 0.26398 0.88442 0.83606 0.0
H727 H 0.16794 0.97696 0.76932 0.0
H728 H 0.16289 0.95697 0.79918 0.0
H729 H 0.23768 0.91341 0.78885 0.0
H730 H 0.24398 0.93472 0.7591 0.0
H731 H 0.24595 0.93665 0.82105 0.0
H732 H 0.14224 0.85677 0.78502 0.0
H733 H 0.09085 0.84069 0.76427 0.0
H734 H 0.03543 0.87648 0.80017 0.0
H735 H 0.08683 0.89335 0.82104 0.0
C736 C 0.15983 0.81717 0.88382 0.0
C737 C 0.14753 0.8335 0.89623 0.0
C738 C 0.16561 0.83026 0.86689 0.0
C739 C 0.15834 0.85913 0.86218 0.0
C740 C 0.14342 0.87343 0.87428 0.0
C741 C 0.13855 0.86108 0.89125 0.0
C742 C 0.16924 0.87686 0.84509 0.0
C743 C 0.1408 0.87042 0.83331 0.0
C744 C 0.20756 0.9005 0.84055 0.0
C745 C 0.23864 0.90817 0.8526 0.0
C746 C 0.24157 0.92587 0.86842 0.0
C747 C 0.27073 0.93261 0.8798 0.0
C748 C 0.29731 0.92205 0.87542 0.0
C749 C 0.29483 0.90483 0.85962 0.0
C750 C 0.26568 0.89798 0.84821 0.0
C751 C 0.18445 0.96445 0.7736 0.0
C752 C 0.20603 0.95703 0.76189 0.0
C753 C 0.18125 0.95267 0.7906 0.0
C754 C 0.19877 0.93243 0.79605 0.0
C755 C 0.22354 0.92857 0.78486 0.0
C756 C 0.22732 0.94099 0.76788 0.0
C757 C 0.18812 0.91206 0.81267 0.0
C758 C 0.21658 0.91779 0.82437 0.0
C759 C 0.14975 0.88708 0.817 0.0
C760 C 0.11858 0.87666 0.80454 0.0
C761 C 0.11922 0.86145 0.78845 0.0
C762 C 0.09008 0.85217 0.77666 0.0
C763 C 0.05994 0.85765 0.78088 0.0
C764 C 0.05883 0.87231 0.79691 0.0
C765 C 0.08795 0.88172 0.80873 0.0
H766 H 0.03739 0.85046 0.77175 0.0
H767 H 0.31987 0.9273 0.88423 0.0
H768 H 0.25079 0.87554 0.97324 0.0
H769 H 0.26489 0.92957 0.99117 0.0
H770 H 0.16396 0.86098 0.02077 0.0
H771 H 0.14939 0.80662 0.00243 0.0
H772 H 0.16242 0.91901 0.00758 0.0
H773 H 0.25322 0.9061 0.03987 0.0
H774 H 0.30669 0.89566 0.04538 0.0
H775 H 0.38051 0.99581 0.01697 0.0
H776 H 0.3274 0.00661 0.01106 0.0
H777 H 0.20804 0.08899 0.0541 0.0
H778 H 0.19268 0.02556 0.04567 0.0
H779 H 0.27936 0.07223 0.00687 0.0
H780 H 0.2948 0.13615 0.01517 0.0
H781 H 0.28489 0.02136 0.02965 0.0
H782 H 0.1909 0.02964 0.99555 0.0
H783 H 0.13649 0.03865 0.99022 0.0
H784 H 0.0672 0.94453 0.02291 0.0
H785 H 0.12148 0.93551 0.02879 0.0
C786 C 0.23254 0.87157 0.98407 0.0
C787 C 0.19907 0.83709 0.9865 0.0
C788 C 0.24063 0.90249 0.99435 0.0
C789 C 0.21549 0.8994 0.00734 0.0
C790 C 0.18377 0.86394 0.01083 0.0
C791 C 0.17568 0.83281 0.00049 0.0
C792 C 0.2192 0.93431 0.01493 0.0
C793 C 0.18889 0.941 0.01289 0.0
C794 C 0.25402 0.96334 0.02142 0.0
C795 C 0.2862 0.95707 0.02496 0.0
C796 C 0.28079 0.92578 0.03469 0.0
C797 C 0.31106 0.91981 0.03791 0.0
C798 C 0.34696 0.94503 0.03152 0.0
C799 C 0.35268 0.97631 0.02192 0.0
C800 C 0.32251 0.98241 0.01867 0.0
C801 C 0.22343 0.08592 0.04357 0.0
C802 C 0.25275 0.1177 0.03534 0.0
C803 C 0.21456 0.04955 0.03877 0.0
C804 C 0.23501 0.0443 0.02573 0.0
C805 C 0.26335 0.07582 0.01703 0.0
C806 C 0.27195 0.11226 0.02169 0.0
C807 C 0.22846 0.0061 0.0219 0.0
C808 C 0.25825 -0.00102 0.02468 0.0
C809 C 0.19305 0.97657 0.01624 0.0
C810 C 0.16052 0.98235 0.01287 0.0
C811 C 0.16425 0.01122 0.00183 0.0
C812 C 0.13338 0.01626 -0.00133 0.0
C813 C 0.0985 0.99235 0.00632 0.0
C814 C 0.09432 0.96319 0.01707 0.0
C815 C 0.12514 0.95813 0.02034 0.0
H816 H 0.07469 0.9964 0.0039 0.0
H817 H 0.37036 0.94036 0.03401 0.0
H818 H 0.15869 0.2495 0.34335 0.0
H819 H 0.21767 0.24871 0.33997 0.0
H820 H 0.27797 0.36933 0.33242 0.0
H821 H 0.21852 0.3701 0.33569 0.0
H822 H 0.30619 0.32375 0.31335 0.0
H823 H 0.27931 0.34971 0.3697 0.0
H824 H 0.23697 0.34029 0.39403 0.0
H825 H 0.21472 0.22663 0.40004 0.0
H826 H 0.25633 0.2351 0.37551 0.0
H827 H 0.4472 0.27908 0.32604 0.0
H828 H 0.42111 0.31839 0.3356 0.0
H829 H 0.31858 0.21813 0.35092 0.0
H830 H 0.34558 0.17937 0.34237 0.0
H831 H 0.3279 0.27822 0.36892 0.0
H832 H 0.31917 0.25269 0.30234 0.0
H833 H 0.35395 0.25571 0.27587 0.0
H834 H 0.44206 0.3671 0.28947 0.0
H835 H 0.4077 0.36446 0.316 0.0
C836 C 0.18421 0.27552 0.3401 0.0
C837 C 0.18435 0.30983 0.33978 0.0
C838 C 0.21787 0.27513 0.33833 0.0
C839 C 0.2521 0.30912 0.33642 0.0
C840 C 0.25174 0.34292 0.33399 0.0
C841 C 0.2178 0.34326 0.33567 0.0
C842 C 0.28776 0.3092 0.33946 0.0
C843 C 0.3118 0.31505 0.32564 0.0
C844 C 0.2949 0.29791 0.35554 0.0
C845 C 0.27093 0.29305 0.37073 0.0
C846 C 0.26529 0.32266 0.37617 0.0
C847 C 0.2414 0.31748 0.38999 0.0
C848 C 0.2232 0.28289 0.39858 0.0
C849 C 0.22891 0.25343 0.39339 0.0
C850 C 0.2527 0.25843 0.37954 0.0
C851 C 0.42019 0.26583 0.33258 0.0
C852 C 0.39833 0.22634 0.33356 0.0
C853 C 0.40489 0.28819 0.33761 0.0
C854 C 0.36724 0.27105 0.34318 0.0
C855 C 0.34758 0.23204 0.34648 0.0
C856 C 0.36317 0.20983 0.34178 0.0
C857 C 0.34566 0.29133 0.34261 0.0
C858 C 0.32376 0.289 0.35689 0.0
C859 C 0.34064 0.30615 0.327 0.0
C860 C 0.36145 0.30797 0.31123 0.0
C861 C 0.34618 0.27757 0.2997 0.0
C862 C 0.3657 0.27927 0.2847 0.0
C863 C 0.40035 0.31145 0.28107 0.0
C864 C 0.41535 0.34211 0.29236 0.0
C865 C 0.39586 0.34053 0.30735 0.0
H866 H 0.41546 0.31269 0.26948 0.0
H867 H 0.20467 0.27892 0.40926 0.0
H868 H 0.87542 0.10427 0.66194 0.0
H869 H 0.93413 0.16445 0.65893 0.0
H870 H 0.87029 0.22182 0.65353 0.0
H871 H 0.81131 0.16128 0.65623 0.0
H872 H 0.937 0.25698 0.63553 0.0
H873 H 0.89629 0.21333 0.69202 0.0
H874 H 0.8724 0.16664 0.71546 0.0
H875 H 0.97452 0.16109 0.71423 0.0
H876 H -0.0013 0.2071 0.69048 0.0
H877 H 0.10669 0.42265 0.65155 0.0
H878 H 0.04137 0.37646 0.65896 0.0
H879 H 0.07465 0.29307 0.66813 0.0
H880 H 0.14022 0.34005 0.66191 0.0
H881 H 0.0161 0.27759 0.6872 0.0
H882 H 0.03481 0.29901 0.62191 0.0
H883 H 0.05351 0.3418 0.59685 0.0
H884 H 0.98962 0.39086 0.61649 0.0
H885 H 0.97021 0.34796 0.64146 0.0
C886 C 0.87395 0.1295 0.65928 0.0
C887 C 0.83912 0.12842 0.65941 0.0
C888 C 0.90743 0.16387 0.65778 0.0
C889 C 0.90642 0.19759 0.65667 0.0
C890 C 0.87156 0.19607 0.6546 0.0
C891 C 0.83792 0.16147 0.65592 0.0
C892 C 0.94134 0.23405 0.65968 0.0
C893 C 0.95399 0.26179 0.64695 0.0
C894 C 0.96315 0.24049 0.67474 0.0
C895 C 0.94922 0.21352 0.68936 0.0
C896 C 0.91359 0.20201 0.69667 0.0
C897 C 0.89997 0.17563 0.71 0.0
C898 C 0.92189 0.16086 0.71631 0.0
C899 C 0.95755 0.17253 0.70931 0.0
C900 C 0.97123 0.19877 0.69591 0.0
C901 C 0.10028 0.39509 0.65618 0.0
C902 C 0.12833 0.38487 0.65637 0.0
C903 C 0.06281 0.3684 0.65995 0.0
C904 C 0.05277 0.3308 0.66331 0.0
C905 C 0.08155 0.32179 0.6654 0.0
C906 C 0.11917 0.34878 0.66206 0.0
C907 C 0.01271 0.29993 0.66266 0.0
C908 C -0.00118 0.27313 0.67592 0.0
C909 C 0.98935 0.2946 0.64825 0.0
C910 C 0.00184 0.32102 0.63362 0.0
C911 C 0.02512 0.31922 0.6209 0.0
C912 C 0.03565 0.3433 0.6067 0.0
C913 C 0.02306 0.36927 0.60517 0.0
C914 C -0.00045 0.37091 0.61774 0.0
C915 C 0.98867 0.34665 0.63186 0.0
H916 H 0.03134 0.38795 0.5942 0.0
H917 H 0.91129 0.14044 0.72663 0.0
H918 H 0.71695 0.84602 0.00973 0.0
H919 H 0.73691 0.91018 -0.00067 0.0
H920 H 0.73489 0.94599 0.05111 0.0
H921 H 0.71591 0.88279 0.06157 0.0
H922 H 0.69419 0.96409 0.02591 0.0
H923 H 0.8147 0.97514 0.0371 0.0
H924 H 0.86464 0.95828 0.03492 0.0
H925 H 0.87072 0.97632 0.98051 0.0
H926 H 0.8203 0.99263 0.98231 0.0
H927 H 0.83691 0.16777 0.9902 0.0
H928 H 0.82062 0.11442 0.00967 0.0
H929 H 0.72288 0.04361 0.97866 0.0
H930 H 0.73929 0.09635 0.95923 0.0
H931 H 0.81786 0.04851 -0.00162 0.0
H932 H 0.6546 0.97727 0.00376 0.0
H933 H 0.60609 0.99601 0.00639 0.0
H934 H 0.6875 0.10113 0.02927 0.0
H935 H 0.73637 0.08283 0.027 0.0
C936 C 0.72093 0.86768 0.01884 0.0
C937 C 0.71501 0.85951 0.03643 0.0
C938 C 0.73242 0.9042 0.01293 0.0
C939 C 0.73743 0.93264 0.02452 0.0
C940 C 0.73124 0.92439 0.04202 0.0
C941 C 0.72051 0.88829 0.04794 0.0
C942 C 0.74792 0.97081 0.01843 0.0
C943 C 0.72121 0.98263 0.01989 0.0
C944 C 0.78353 0.99512 0.011 0.0
C945 C 0.81334 0.98461 0.00982 0.0
C946 C 0.8263 0.975 0.02463 0.0
C947 C 0.85479 0.96566 0.02347 0.0
C948 C 0.87073 0.96607 0.00758 0.0
C949 C 0.85825 0.97588 0.99281 0.0
C950 C 0.82971 0.98517 0.99389 0.0
C951 C 0.81121 0.14116 0.98799 0.0
C952 C 0.78905 0.13601 0.97339 0.0
C953 C 0.80217 0.11071 -0.00103 0.0
C954 C 0.77049 0.07519 0.99561 0.0
C955 C 0.74714 0.07088 0.98161 0.0
C956 C 0.75648 0.10099 0.97054 0.0
C957 C 0.76366 0.0414 0.00539 0.0
C958 C 0.79097 0.0302 0.00455 0.0
C959 C 0.72861 0.01768 0.01345 0.0
C960 C 0.69923 0.02873 0.01511 0.0
C961 C 0.66211 0.00429 0.00945 0.0
C962 C 0.63456 0.01486 0.01085 0.0
C963 C 0.64373 0.04977 0.01796 0.0
C964 C 0.68046 0.07415 0.02371 0.0
C965 C 0.70812 0.06371 0.02234 0.0
H966 H 0.62236 0.05791 0.01903 0.0
H967 H 0.89286 0.95894 0.00672 0.0
H968 H 0.63904 0.76084 0.34903 0.0
H969 H 0.69545 0.76078 0.3585 0.0
H970 H 0.75749 0.88267 0.35726 0.0
H971 H 0.70053 0.88251 0.34759 0.0
H972 H 0.7845 0.85741 0.33467 0.0
H973 H 0.76191 0.83206 0.39312 0.0
H974 H 0.72839 0.80468 0.42024 0.0
H975 H 0.70562 0.69485 0.40424 0.0
H976 H 0.73836 0.72133 0.37689 0.0
H977 H 0.92913 0.79566 0.34597 0.0
H978 H 0.89541 0.8311 0.34711 0.0
H979 H 0.79386 0.73238 0.32988 0.0
H980 H 0.82752 0.69706 0.32869 0.0
H981 H 0.80368 0.76496 0.36772 0.0
H982 H 0.81368 0.79355 0.30603 0.0
H983 H 0.84896 0.82401 0.27961 0.0
H984 H 0.89885 0.93242 0.30413 0.0
H985 H 0.86428 0.90246 0.33079 0.0
C986 C 0.66402 0.78763 0.35193 0.0
C987 C 0.66569 0.82159 0.34743 0.0
C988 C 0.69651 0.78768 0.35734 0.0
C989 C 0.73106 0.82176 0.35836 0.0
C990 C 0.73122 0.85603 0.35649 0.0
C991 C 0.69849 0.85594 0.35115 0.0
C992 C 0.76658 0.82047 0.35669 0.0
C993 C 0.78939 0.8381 0.34227 0.0
C994 C 0.77313 0.79526 0.36654 0.0
C995 C 0.75268 0.7788 0.38288 0.0
C996 C 0.7495 0.80201 0.3953 0.0
C997 C 0.73065 0.78663 0.41074 0.0
C998 C 0.7149 0.74805 0.41396 0.0
C999 C 0.71789 0.72475 0.40173 0.0
C1000 C 0.73667 0.73996 0.38627 0.0
C1001 C 0.90031 0.78239 0.34132 0.0
C1002 C 0.88085 0.74383 0.33711 0.0
C1003 C 0.88102 0.80253 0.34215 0.0
C1004 C 0.84218 0.78412 0.33876 0.0
C1005 C 0.82393 0.74699 0.33249 0.0
C1006 C 0.84327 0.72698 0.33157 0.0
C1007 C 0.81904 0.79988 0.34518 0.0
C1008 C 0.79918 0.78511 0.36054 0.0
C1009 C 0.8155 0.82797 0.33635 0.0
C1010 C 0.83695 0.8457 0.32048 0.0
C1011 C 0.83264 0.82379 0.30587 0.0
C1012 C 0.85238 0.84099 0.29083 0.0
C1013 C 0.87629 0.88011 0.29022 0.0
C1014 C 0.88047 0.90211 0.30464 0.0
C1015 C 0.86085 0.88503 0.31972 0.0
H1016 H 0.89146 0.89338 0.27854 0.0
H1017 H 0.7004 0.73622 0.42594 0.0
H1018 H 0.09515 0.90694 0.68854 0.0
H1019 H 0.03311 0.85639 0.67944 0.0
H1020 H 0.08582 0.80117 0.65377 0.0
H1021 H 0.14813 0.85214 0.66272 0.0
H1022 H 0.0252 0.79278 0.63626 0.0
H1023 H 0.05337 0.7781 0.69508 0.0
H1024 H 0.07096 0.79894 0.72503 0.0
H1025 H 0.97266 0.81047 0.73047 0.0
H1026 H 0.95479 0.79024 0.70046 0.0
H1027 H 0.88168 0.60643 0.63324 0.0
H1028 H 0.94003 0.66249 0.64217 0.0
H1029 H 0.87516 0.70649 0.66638 0.0
H1030 H 0.81645 0.64977 0.65775 0.0
H1031 H 0.93885 0.72364 0.68457 0.0
H1032 H 0.91173 0.74135 0.62614 0.0
H1033 H 0.8957 0.72534 0.59559 0.0
H1034 H 0.9906 0.70838 0.58971 0.0
H1035 H 0.00776 0.7253 0.62008 0.0
C1036 C 0.09351 0.8843 0.68076 0.0
C1037 C 0.1262 0.88288 0.67662 0.0
C1038 C 0.05809 0.85546 0.67558 0.0
C1039 C 0.05485 0.82448 0.66642 0.0
C1040 C 0.08773 0.82468 0.661 0.0
C1041 C 0.12328 0.85384 0.66603 0.0
C1042 C 0.01735 0.79067 0.66361 0.0
C1043 C 0.0065 0.77749 0.64684 0.0
C1044 C 0.99248 0.77131 0.67739 0.0
C1045 C 0.00294 0.783 0.69549 0.0
C1046 C 0.03564 0.7853 0.70264 0.0
C1047 C 0.04565 0.79699 0.71962 0.0
C1048 C 0.02299 0.8061 0.72963 0.0
C1049 C 0.99021 0.80345 0.72269 0.0
C1050 C 0.98011 0.79186 0.7057 0.0
C1051 C 0.87992 0.62745 0.64101 0.0
C1052 C 0.84474 0.62379 0.64492 0.0
C1053 C 0.9132 0.65968 0.64588 0.0
C1054 C 0.91184 0.68908 0.65448 0.0
C1055 C 0.87674 0.6842 0.65963 0.0
C1056 C 0.84328 0.65163 0.65489 0.0
C1057 C 0.94708 0.72542 0.65725 0.0
C1058 C 0.95747 0.7391 0.674 0.0
C1059 C 0.97153 0.74538 0.64347 0.0
C1060 C 0.96079 0.73424 0.62536 0.0
C1061 C 0.92902 0.734 0.61833 0.0
C1062 C 0.91986 0.72497 0.60104 0.0
C1063 C 0.94191 0.71553 0.59077 0.0
C1064 C 0.97347 0.71557 0.5977 0.0
C1065 C 0.9831 0.72516 0.6149 0.0
H1066 H 0.93461 0.70831 0.57742 0.0
H1067 H 0.03077 0.81512 0.74277 0.0
H1068 H 0.931 0.13064 0.95159 0.0
H1069 H 0.98723 0.14403 0.96799 0.0
H1070 H 0.00303 0.25303 0.98202 0.0
H1071 H 0.94751 0.24036 0.96508 0.0
H1072 H 0.0692 0.25904 0.97772 0.0
H1073 H 0.95846 0.17682 0.00903 0.0
H1074 H 0.89572 0.12103 0.01404 0.0
H1075 H 0.94202 0.04821 0.00654 0.0
H1076 H 0.00495 0.10356 0.00116 0.0
H1077 H 0.13787 0.19721 0.06067 0.0
H1078 H 0.09034 0.20298 0.04406 0.0
H1079 H 0.16173 0.2327 -0.00074 0.0
H1080 H 0.21028 0.22924 0.01624 0.0
H1081 H 0.05057 0.1616 0.02058 0.0
H1082 H 0.13798 0.27572 0.96908 0.0
H1083 H 0.19794 0.33618 0.96703 0.0
H1084 H 0.19412 0.35422 0.02104 0.0
H1085 H 0.13389 0.29415 0.02338 0.0
C1086 C 0.94671 0.15767 0.95798 0.0
C1087 C 0.93456 0.18428 0.95718 0.0
C1088 C 0.9788 0.16525 0.96741 0.0
C1089 C -0.00113 0.19918 0.97659 0.0
C1090 C 0.98794 0.2266 0.97511 0.0
C1091 C 0.95614 0.21928 0.96544 0.0
C1092 C 0.02972 0.20493 0.98851 0.0
C1093 C 0.06521 0.2378 0.98711 0.0
C1094 C 0.02416 0.17782 0.00118 0.0
C1095 C 0.9864 0.14437 0.00455 0.0
C1096 C 0.95523 0.14891 0.00833 0.0
C1097 C 0.91964 0.11737 0.01124 0.0
C1098 C 0.9149 0.08112 0.01059 0.0
C1099 C 0.94574 0.07632 0.00703 0.0
C1100 C 0.9814 0.10777 0.00405 0.0
C1101 C 0.14379 0.20606 0.0474 0.0
C1102 C 0.17772 0.21294 0.03973 0.0
C1103 C 0.11652 0.20909 0.03786 0.0
C1104 C 0.12218 0.21819 0.02033 0.0
C1105 C 0.15679 0.22641 0.01281 0.0
C1106 C 0.18457 0.22436 0.0225 0.0
C1107 C 0.0906 0.2156 0.00971 0.0
C1108 C 0.05479 0.18311 0.0113 0.0
C1109 C 0.09556 0.2438 0.99774 0.0
C1110 C 0.13158 0.28022 0.99642 0.0
C1111 C 0.14984 0.29266 0.9805 0.0
C1112 C 0.1839 0.32686 0.97929 0.0
C1113 C 0.19989 0.34896 0.9939 0.0
C1114 C 0.18178 0.337 0.00974 0.0
C1115 C 0.1477 0.30285 0.01102 0.0
H1116 H 0.22628 0.3754 0.99294 0.0
H1117 H 0.88737 0.0568 0.01291 0.0
H1118 H 0.73038 0.95373 0.30884 0.0
H1119 H 0.78656 0.01378 0.3161 0.0
H1120 H 0.85294 0.95862 0.31781 0.0
H1121 H 0.79714 0.89863 0.31033 0.0
H1122 H 0.86055 -0.00076 0.34689 0.0
H1123 H 0.86508 0.01868 0.2859 0.0
H1124 H 0.83982 0.0226 0.25774 0.0
H1125 H 0.82265 0.11168 0.27634 0.0
H1126 H 0.84734 0.10794 0.3047 0.0
H1127 H 0.04421 0.15155 0.35557 0.0
H1128 H 0.98692 0.09707 0.34505 0.0
H1129 H 0.93253 0.16403 0.34161 0.0
H1130 H 0.99055 0.21947 0.35186 0.0
H1131 H 0.91599 0.11909 0.31404 0.0
H1132 H 0.91231 0.10141 0.37458 0.0
H1133 H 0.93632 0.0976 0.40308 0.0
H1134 H 0.94956 0.00509 0.386 0.0
H1135 H 0.92613 0.00869 0.35732 0.0
C1136 C 0.75706 0.95445 0.31044 0.0
C1137 C 0.75909 0.92116 0.30923 0.0
C1138 C 0.78917 0.98885 0.3146 0.0
C1139 C 0.82392 0.99064 0.31757 0.0
C1140 C 0.82635 0.9578 0.3157 0.0
C1141 C 0.79437 0.9235 0.31145 0.0
C1142 C 0.85718 0.02605 0.32373 0.0
C1143 C 0.87299 0.02533 0.3396 0.0
C1144 C 0.87248 0.06042 0.31452 0.0
C1145 C 0.85768 0.06274 0.29748 0.0
C1146 C 0.8556 0.03887 0.28403 0.0
C1147 C 0.84145 0.04111 0.26802 0.0
C1148 C 0.82953 0.06729 0.26526 0.0
C1149 C 0.83183 0.09137 0.2785 0.0
C1150 C 0.84593 0.08922 0.29454 0.0
C1151 C 0.02014 0.1549 0.35265 0.0
C1152 C 0.022 0.18997 0.35474 0.0
C1153 C 0.98726 0.12355 0.34665 0.0
C1154 C 0.95511 0.12619 0.34282 0.0
C1155 C 0.95694 0.16127 0.34456 0.0
C1156 C 0.99008 0.19289 0.35048 0.0
C1157 C 0.9198 0.09209 0.33708 0.0
C1158 C 0.90349 0.09306 0.32136 0.0
C1159 C 0.90374 0.05789 0.34648 0.0
C1160 C 0.91776 0.05555 0.36375 0.0
C1161 C 0.92061 0.08044 0.37686 0.0
C1162 C 0.93407 0.07829 0.39306 0.0
C1163 C 0.94454 0.05118 0.39634 0.0
C1164 C 0.94148 0.0261 0.38344 0.0
C1165 C 0.92807 0.02816 0.36721 0.0
H1166 H 0.95495 0.04955 0.40888 0.0
H1167 H 0.81859 0.06899 0.25286 0.0
H1168 H 0.85202 0.74487 0.6184 0.0
H1169 H 0.84416 0.79644 0.62919 0.0
H1170 H 0.7243 0.72065 0.6345 0.0
H1171 H 0.73177 0.66856 0.62364 0.0
H1172 H 0.74328 0.79269 0.62113 0.0
H1173 H 0.7764 0.74013 0.66871 0.0
H1174 H 0.81509 0.7175 0.68311 0.0
H1175 H 0.91265 0.82823 0.67949 0.0
H1176 H 0.87471 0.8514 0.66475 0.0
H1177 H 0.72701 0.93041 0.67255 0.0
H1178 H 0.7209 0.871 0.662 0.0
H1179 H 0.84234 0.92289 0.6605 0.0
H1180 H 0.84865 0.98132 0.67129 0.0
H1181 H 0.81457 0.85642 0.67388 0.0
H1182 H 0.78704 0.9079 0.62392 0.0
H1183 H 0.75273 0.93218 0.607 0.0
H1184 H 0.64954 0.8267 0.61327 0.0
H1185 H 0.68318 0.80196 0.63042 0.0
C1186 C 0.82388 0.73907 0.62169 0.0
C1187 C 0.79258 0.70239 0.62028 0.0
C1188 C 0.81947 0.76864 0.62789 0.0
C1189 C 0.78374 0.76224 0.63287 0.0
C1190 C 0.75213 0.72613 0.63078 0.0
C1191 C 0.75652 0.69639 0.62462 0.0
C1192 C 0.78 0.793 0.64099 0.0
C1193 C 0.75827 0.80626 0.63284 0.0
C1194 C 0.80011 0.811 0.65611 0.0
C1195 C 0.82271 0.79746 0.66553 0.0
C1196 C 0.80614 0.75964 0.67092 0.0
C1197 C 0.82794 0.74671 0.67914 0.0
C1198 C 0.86631 0.77141 0.6822 0.0
C1199 C 0.88292 0.80914 0.67711 0.0
C1200 C 0.86126 0.8222 0.66883 0.0
C1201 C 0.75235 0.92908 0.66996 0.0
C1202 C 0.78829 0.96071 0.67284 0.0
C1203 C 0.74884 0.89514 0.66388 0.0
C1204 C 0.7812 0.89243 0.66038 0.0
C1205 C 0.81693 0.92405 0.66321 0.0
C1206 C 0.82045 0.95763 0.66936 0.0
C1207 C 0.77859 0.85702 0.65379 0.0
C1208 C 0.79908 0.84267 0.6623 0.0
C1209 C 0.75779 0.83842 0.63887 0.0
C1210 C 0.73751 0.85327 0.62864 0.0
C1211 C 0.75696 0.89001 0.62182 0.0
C1212 C 0.73766 0.90383 0.61216 0.0
C1213 C 0.69895 0.88104 0.60912 0.0
C1214 C 0.6795 0.84435 0.61568 0.0
C1215 C 0.69867 0.83041 0.62536 0.0
H1216 H 0.68406 0.89178 0.60163 0.0
H1217 H 0.88316 0.76133 0.68853 0.0
H1218 H 0.77614 0.73969 0.03071 0.0
H1219 H 0.828 0.7395 0.01499 0.0
H1220 H 0.90723 0.84597 0.0381 0.0
H1221 H 0.856 0.8466 0.05369 0.0
H1222 H 0.91658 0.84742 0.00384 0.0
H1223 H 0.9027 0.76423 0.05067 0.0
H1224 H 0.86782 0.70836 0.06918 0.0
H1225 H 0.84216 0.63564 0.02551 0.0
H1226 H 0.8765 0.69114 0.00669 0.0
H1227 H 0.09303 0.86757 0.98339 0.0
H1228 H 0.03692 0.86005 0.99789 0.0
H1229 H 0.97022 0.74986 0.97508 0.0
H1230 H 0.02683 0.75669 0.96092 0.0
H1231 H 0.9507 0.74703 0.0072 0.0
H1232 H 0.96711 0.82939 0.96048 0.0
H1233 H 0.00126 0.88484 0.94166 0.0
H1234 H 0.02027 0.95858 0.9843 0.0
H1235 H 0.98706 0.90361 0.00349 0.0
C1236 C 0.80465 0.76286 0.03259 0.0
C1237 C 0.81176 0.7932 0.04345 0.0
C1238 C 0.83428 0.76268 0.0236 0.0
C1239 C 0.87153 0.79275 0.02537 0.0
C1240 C 0.87872 0.82257 0.03646 0.0
C1241 C 0.84929 0.82276 0.04543 0.0
C1242 C 0.90306 0.79419 0.01526 0.0
C1243 C 0.92429 0.82565 0.0047 0.0
C1244 C 0.91234 0.76521 0.01595 0.0
C1245 C 0.8918 0.73184 0.02725 0.0
C1246 C 0.88935 0.73634 0.04499 0.0
C1247 C 0.86973 0.70473 0.05555 0.0
C1248 C 0.85268 0.66847 0.04852 0.0
C1249 C 0.85532 0.66374 0.03093 0.0
C1250 C 0.87488 0.69526 0.02032 0.0
C1251 C 0.0664 0.8418 0.98131 0.0
C1252 C 0.06437 0.81286 0.97083 0.0
C1253 C 0.03424 0.83758 0.98961 0.0
C1254 C -0.00094 0.80467 0.98734 0.0
C1255 C 0.99697 0.77557 0.97699 0.0
C1256 C 0.02933 0.77956 0.96885 0.0
C1257 C 0.96473 0.80065 0.99597 0.0
C1258 C 0.94289 0.7687 0.00621 0.0
C1259 C 0.95471 0.82914 0.99494 0.0
C1260 C 0.9748 0.86233 0.98345 0.0
C1261 C 0.97887 0.85743 0.96588 0.0
C1262 C -0.00191 0.88879 0.95515 0.0
C1263 C 0.01309 0.92522 0.96181 0.0
C1264 C 0.00883 0.93036 0.9792 0.0
C1265 C 0.98979 0.89911 0.99 0.0
H1266 H 0.0279 0.94946 0.95348 0.0
H1267 H 0.83751 0.64404 0.05671 0.0
H1268 H 0.0425 0.7738 0.35874 0.0
H1269 H 0.10321 0.82777 0.3499 0.0
H1270 H 0.06789 0.90423 0.36889 0.0
H1271 H 0.00781 0.85108 0.37792 0.0
H1272 H 0.09068 0.91494 0.33397 0.0
H1273 H 0.13316 0.89871 0.38965 0.0
H1274 H 0.14451 0.86267 0.41189 0.0
H1275 H 0.21641 0.84554 0.37738 0.0
H1276 H 0.20504 0.88106 0.35484 0.0
H1277 H 0.24381 0.09711 0.32949 0.0
H1278 H 0.19299 0.03705 0.34001 0.0
H1279 H 0.25395 0.98168 0.32373 0.0
H1280 H 0.30567 0.04221 0.31333 0.0
H1281 H 0.22014 0.95491 0.35468 0.0
H1282 H 0.18215 0.97361 0.29969 0.0
H1283 H 0.17066 0.00783 0.2766 0.0
H1284 H 0.08958 0.01703 0.30816 0.0
H1285 H 0.10101 0.98336 0.33155 0.0
C1286 C 0.04796 0.8021 0.36137 0.0
C1287 C 0.02003 0.80799 0.36893 0.0
C1288 C 0.08266 0.83288 0.35629 0.0
C1289 C 0.08983 0.86992 0.35863 0.0
C1290 C 0.06278 0.87583 0.36688 0.0
C1291 C 0.02842 0.84529 0.37208 0.0
C1292 C 0.12402 0.90271 0.35138 0.0
C1293 C 0.11897 0.92388 0.33859 0.0
C1294 C 0.16096 0.91336 0.35694 0.0
C1295 C 0.16788 0.89214 0.37049 0.0
C1296 C 0.15109 0.88694 0.38675 0.0
C1297 C 0.15759 0.86668 0.39942 0.0
C1298 C 0.18106 0.85171 0.39604 0.0
C1299 C 0.19818 0.85708 0.37998 0.0
C1300 C 0.19174 0.8773 0.36725 0.0
C1301 C 0.24663 0.07228 0.32815 0.0
C1302 C 0.27873 0.0745 0.32037 0.0
C1303 C 0.21743 0.03787 0.33416 0.0
C1304 C 0.21931 0.00471 0.33237 0.0
C1305 C 0.25183 0.00689 0.32516 0.0
C1306 C 0.2813 0.0415 0.31919 0.0
C1307 C 0.18665 0.96789 0.33764 0.0
C1308 C 0.19191 0.94582 0.34994 0.0
C1309 C 0.14977 0.95601 0.33149 0.0
C1310 C 0.14267 0.9762 0.31743 0.0
C1311 C 0.16208 0.98318 0.30176 0.0
C1312 C 0.15555 0.00244 0.28861 0.0
C1313 C 0.12946 0.01466 0.29092 0.0
C1314 C 0.1098 0.00757 0.30639 0.0
C1315 C 0.11627 0.98836 0.31959 0.0
H1316 H 0.12444 0.02957 0.28073 0.0
H1317 H 0.18607 0.83604 0.40587 0.0
H1318 H 0.25675 0.07089 0.68491 0.0
H1319 H 0.26314 0.12768 0.67075 0.0
H1320 H 0.14409 0.08573 0.67794 0.0
H1321 H 0.13746 0.02995 0.6921 0.0
H1322 H 0.17011 0.11007 0.64397 0.0
H1323 H 0.20353 0.15127 0.70344 0.0
H1324 H 0.24282 0.16486 0.72936 0.0
H1325 H 0.34107 0.24313 0.70091 0.0
H1326 H 0.30238 0.22958 0.67474 0.0
H1327 H 0.11978 0.24899 0.63585 0.0
H1328 H 0.13261 0.19964 0.6452 0.0
H1329 H 0.25245 0.27698 0.64084 0.0
H1330 H 0.23987 0.32694 0.63181 0.0
H1331 H 0.2385 0.23824 0.66948 0.0
H1332 H 0.20584 0.20595 0.61134 0.0
H1333 H 0.1688 0.19371 0.58477 0.0
H1334 H 0.07361 0.09983 0.60874 0.0
H1335 H 0.10985 0.11186 0.63556 0.0
C1336 C 0.23204 0.07396 0.68355 0.0
C1337 C 0.19664 0.04579 0.6897 0.0
C1338 C 0.23573 0.10635 0.67546 0.0
C1339 C 0.20399 0.11074 0.67324 0.0
C1340 C 0.16887 0.0828 0.67943 0.0
C1341 C 0.16526 0.05094 0.68764 0.0
C1342 C 0.20642 0.14409 0.66447 0.0
C1343 C 0.18504 0.13813 0.64952 0.0
C1344 C 0.22705 0.18091 0.67137 0.0
C1345 C 0.25019 0.18901 0.68709 0.0
C1346 C 0.23358 0.17108 0.70267 0.0
C1347 C 0.25572 0.17884 0.71742 0.0
C1348 C 0.29445 0.20473 0.71677 0.0
C1349 C 0.31109 0.22301 0.70138 0.0
C1350 C 0.28907 0.2153 0.68659 0.0
C1351 C 0.14889 0.25554 0.63674 0.0
C1352 C 0.17875 0.29196 0.63297 0.0
C1353 C 0.15621 0.22718 0.64204 0.0
C1354 C 0.19352 0.23435 0.64347 0.0
C1355 C 0.22344 0.2707 0.63977 0.0
C1356 C 0.21615 0.29921 0.63456 0.0
C1357 C 0.20091 0.20396 0.64929 0.0
C1358 C 0.22417 0.21044 0.66365 0.0
C1359 C 0.18244 0.16766 0.64169 0.0
C1360 C 0.16054 0.15997 0.62552 0.0
C1361 C 0.17693 0.18283 0.61099 0.0
C1362 C 0.15608 0.17592 0.59587 0.0
C1363 C 0.11886 0.14604 0.59508 0.0
C1364 C 0.10245 0.12296 0.60938 0.0
C1365 C 0.12315 0.12979 0.62454 0.0
H1366 H 0.10276 0.14076 0.58336 0.0
H1367 H 0.31154 0.21072 0.7282 0.0
loop_
_geom_bond_atom_site_label_1
_geom_bond_atom_site_label_2
_geom_bond_distance
_geom_bond_site_symmetry_2
_ccdc_geom_bond_type
Mg0 O1 2.028 . S
Mg0 O7 1.986 . S
Mg0 O9 2.114 . S
Mg0 O10 2.251 . S
Mg0 O13 2.010 . S
O1 Mg0 2.028 . S
O1 C4 1.250 . S
O2 Mg3 2.028 . S
O2 C4 1.248 . S
Mg3 O2 2.028 . S
Mg3 O8 2.032 . S
Mg3 O10 2.079 . S
C4 O1 1.250 . S
C4 O2 1.248 . S
C5 O6 1.264 . S
C5 O13 1.249 . S
O6 C5 1.264 . S
O7 Mg0 1.986 . S
O7 C11 1.246 . S
O8 Mg3 2.032 . S
O8 C11 1.259 . S
O9 Mg0 2.114 . S
O9 C12 1.252 . S
O10 Mg0 2.251 . S
O10 Mg3 2.079 . S
O10 C12 1.273 . S
C11 O7 1.246 . S
C11 O8 1.259 . S
C12 O9 1.252 . S
C12 O10 1.273 . S
O13 Mg0 2.010 . S
O13 C5 1.249 . S
Mg14 O15 2.028 . S
Mg14 O21 1.986 . S
Mg14 O23 2.114 . S
Mg14 O24 2.251 . S
Mg14 O27 2.010 . S
O15 Mg14 2.028 . S
O15 C18 1.250 . S
O16 Mg17 2.028 . S
O16 C18 1.248 . S
Mg17 O16 2.028 . S
Mg17 O22 2.032 . S
Mg17 O24 2.079 . S
C18 O15 1.250 . S
C18 O16 1.248 . S
C19 O20 1.264 . S
C19 O27 1.249 . S
O20 C19 1.264 . S
O21 Mg14 1.986 . S
O21 C25 1.246 . S
O22 Mg17 2.032 . S
O22 C25 1.259 . S
O23 Mg14 2.114 . S
O23 C26 1.252 . S
O24 Mg14 2.251 . S
O24 Mg17 2.079 . S
O24 C26 1.273 . S
C25 O21 1.246 . S
C25 O22 1.259 . S
C26 O23 1.252 . S
C26 O24 1.273 . S
O27 Mg14 2.010 . S
O27 C19 1.249 . S
Mg28 O29 2.028 . S
Mg28 O35 1.986 . S
Mg28 O37 2.114 . S
Mg28 O38 2.251 . S
Mg28 O41 2.010 . S
O29 Mg28 2.028 . S
O29 C32 1.250 . S
O30 Mg31 2.028 . S
O30 C32 1.248 . S
Mg31 O30 2.028 . S
Mg31 O36 2.032 . S
Mg31 O38 2.079 . S
C32 O29 1.250 . S
C32 O30 1.248 . S
C33 O34 1.264 . S
C33 O41 1.249 . S
O34 C33 1.264 . S
O35 Mg28 1.986 . S
O35 C39 1.246 . S
O36 Mg31 2.032 . S
O36 C39 1.259 . S
O37 Mg28 2.114 . S
O37 C40 1.252 . S
O38 Mg28 2.251 . S
O38 Mg31 2.079 . S
O38 C40 1.273 . S
C39 O35 1.246 . S
C39 O36 1.259 . S
C40 O37 1.252 . S
C40 O38 1.273 . S
O41 Mg28 2.010 . S
O41 C33 1.249 . S
Mg42 O43 2.028 . S
Mg42 O49 1.986 . S
Mg42 O51 2.114 . S
Mg42 O52 2.251 . S
Mg42 O55 2.010 . S
O43 Mg42 2.028 . S
O43 C46 1.250 . S
O44 Mg45 2.028 . S
O44 C46 1.248 . S
Mg45 O44 2.028 . S
Mg45 O50 2.032 . S
Mg45 O52 2.079 . S
C46 O43 1.250 . S
C46 O44 1.248 . S
C47 O48 1.264 . S
C47 O55 1.249 . S
O48 C47 1.264 . S
O49 Mg42 1.986 . S
O49 C53 1.246 . S
O50 Mg45 2.032 . S
O50 C53 1.259 . S
O51 Mg42 2.114 . S
O51 C54 1.252 . S
O52 Mg42 2.251 . S
O52 Mg45 2.079 . S
O52 C54 1.273 . S
C53 O49 1.246 . S
C53 O50 1.259 . S
C54 O51 1.252 . S
C54 O52 1.273 . S
O55 Mg42 2.010 . S
O55 C47 1.249 . S
Mg56 O57 2.028 . S
Mg56 O63 1.986 . S
Mg56 O65 2.114 . S
Mg56 O66 2.251 . S
Mg56 O69 2.010 . S
O57 Mg56 2.028 . S
O57 C60 1.250 . S
O58 Mg59 2.028 . S
O58 C60 1.248 . S
Mg59 O58 2.028 . S
Mg59 O64 2.032 . S
Mg59 O66 2.079 . S
C60 O57 1.250 . S
C60 O58 1.248 . S
C61 O62 1.264 . S
C61 O69 1.249 . S
O62 C61 1.264 . S
O63 Mg56 1.986 . S
O63 C67 1.246 . S
O64 Mg59 2.032 . S
O64 C67 1.259 . S
O65 Mg56 2.114 . S
O65 C68 1.252 . S
O66 Mg56 2.251 . S
O66 Mg59 2.079 . S
O66 C68 1.273 . S
C67 O63 1.246 . S
C67 O64 1.259 . S
C68 O65 1.252 . S
C68 O66 1.273 . S
O69 Mg56 2.010 . S
O69 C61 1.249 . S
Mg70 O71 2.028 . S
Mg70 O77 1.986 . S
Mg70 O79 2.114 . S
Mg70 O80 2.251 . S
Mg70 O83 2.010 . S
O71 Mg70 2.028 . S
O71 C74 1.250 . S
O72 Mg73 2.028 . S
O72 C74 1.248 . S
Mg73 O72 2.028 . S
Mg73 O78 2.032 . S
Mg73 O80 2.079 . S
C74 O71 1.250 . S
C74 O72 1.248 . S
C75 O76 1.264 . S
C75 O83 1.249 . S
O76 C75 1.264 . S
O77 Mg70 1.986 . S
O77 C81 1.246 . S
O78 Mg73 2.032 . S
O78 C81 1.259 . S
O79 Mg70 2.114 . S
O79 C82 1.252 . S
O80 Mg70 2.251 . S
O80 Mg73 2.079 . S
O80 C82 1.273 . S
C81 O77 1.246 . S
C81 O78 1.259 . S
C82 O79 1.252 . S
C82 O80 1.273 . S
O83 Mg70 2.010 . S
O83 C75 1.249 . S
Mg84 O85 2.028 . S
Mg84 O91 1.986 . S
Mg84 O93 2.114 . S
Mg84 O94 2.251 . S
Mg84 O97 2.010 . S
O85 Mg84 2.028 . S
O85 C88 1.250 . S
O86 Mg87 2.028 . S
O86 C88 1.248 . S
Mg87 O86 2.028 . S
Mg87 O92 2.032 . S
Mg87 O94 2.079 . S
C88 O85 1.250 . S
C88 O86 1.248 . S
C89 O90 1.264 . S
C89 O97 1.249 . S
O90 C89 1.264 . S
O91 Mg84 1.986 . S
O91 C95 1.246 . S
O92 Mg87 2.032 . S
O92 C95 1.259 . S
O93 Mg84 2.114 . S
O93 C96 1.252 . S
O94 Mg84 2.251 . S
O94 Mg87 2.079 . S
O94 C96 1.273 . S
C95 O91 1.246 . S
C95 O92 1.259 . S
C96 O93 1.252 . S
C96 O94 1.273 . S
O97 Mg84 2.010 . S
O97 C89 1.249 . S
Mg98 O99 2.028 . S
Mg98 O105 1.986 . S
Mg98 O107 2.114 . S
Mg98 O108 2.251 . S
Mg98 O111 2.010 . S
O99 Mg98 2.028 . S
O99 C102 1.250 . S
O100 Mg101 2.028 . S
O100 C102 1.248 . S
Mg101 O100 2.028 . S
Mg101 O106 2.032 . S
Mg101 O108 2.079 . S
C102 O99 1.250 . S
C102 O100 1.248 . S
C103 O104 1.264 . S
C103 O111 1.249 . S
O104 C103 1.264 . S
O105 Mg98 1.986 . S
O105 C109 1.246 . S
O106 Mg101 2.032 . S
O106 C109 1.259 . S
O107 Mg98 2.114 . S
O107 C110 1.252 . S
O108 Mg98 2.251 . S
O108 Mg101 2.079 . S
O108 C110 1.273 . S
C109 O105 1.246 . S
C109 O106 1.259 . S
C110 O107 1.252 . S
C110 O108 1.273 . S
O111 Mg98 2.010 . S
O111 C103 1.249 . S
Mg112 O113 2.028 . S
Mg112 O119 1.986 . S
Mg112 O121 2.114 . S
Mg112 O122 2.251 . S
Mg112 O125 2.010 . S
O113 Mg112 2.028 . S
O113 C116 1.250 . S
O114 Mg115 2.028 . S
O114 C116 1.248 . S
Mg115 O114 2.028 . S
Mg115 O120 2.032 . S
Mg115 O122 2.079 . S
C116 O113 1.250 . S
C116 O114 1.248 . S
C117 O118 1.264 . S
C117 O125 1.249 . S
O118 C117 1.264 . S
O119 Mg112 1.986 . S
O119 C123 1.246 . S
O120 Mg115 2.032 . S
O120 C123 1.259 . S
O121 Mg112 2.114 . S
O121 C124 1.252 . S
O122 Mg112 2.251 . S
O122 Mg115 2.079 . S
O122 C124 1.273 . S
C123 O119 1.246 . S
C123 O120 1.259 . S
C124 O121 1.252 . S
C124 O122 1.273 . S
O125 Mg112 2.010 . S
O125 C117 1.249 . S
Mg126 O127 2.028 . S
Mg126 O133 1.986 . S
Mg126 O135 2.114 . S
Mg126 O136 2.251 . S
Mg126 O139 2.010 . S
O127 Mg126 2.028 . S
O127 C130 1.250 . S
O128 Mg129 2.028 . S
O128 C130 1.248 . S
Mg129 O128 2.028 . S
Mg129 O134 2.032 . S
Mg129 O136 2.079 . S
C130 O127 1.250 . S
C130 O128 1.248 . S
C131 O132 1.264 . S
C131 O139 1.249 . S
O132 C131 1.264 . S
O133 Mg126 1.986 . S
O133 C137 1.246 . S
O134 Mg129 2.032 . S
O134 C137 1.259 . S
O135 Mg126 2.114 . S
O135 C138 1.252 . S
O136 Mg126 2.251 . S
O136 Mg129 2.079 . S
O136 C138 1.273 . S
C137 O133 1.246 . S
C137 O134 1.259 . S
C138 O135 1.252 . S
C138 O136 1.273 . S
O139 Mg126 2.010 . S
O139 C131 1.249 . S
Mg140 O141 2.028 . S
Mg140 O147 1.986 . S
Mg140 O149 2.114 . S
Mg140 O150 2.251 . S
Mg140 O153 2.010 . S
O141 Mg140 2.028 . S
O141 C144 1.250 . S
O142 Mg143 2.028 . S
O142 C144 1.248 . S
Mg143 O142 2.028 . S
Mg143 O148 2.032 . S
Mg143 O150 2.079 . S
C144 O141 1.250 . S
C144 O142 1.248 . S
C145 O146 1.264 . S
C145 O153 1.249 . S
O146 C145 1.264 . S
O147 Mg140 1.986 . S
O147 C151 1.246 . S
O148 Mg143 2.032 . S
O148 C151 1.259 . S
O149 Mg140 2.114 . S
O149 C152 1.252 . S
O150 Mg140 2.251 . S
O150 Mg143 2.079 . S
O150 C152 1.273 . S
C151 O147 1.246 . S
C151 O148 1.259 . S
C152 O149 1.252 . S
C152 O150 1.273 . S
O153 Mg140 2.010 . S
O153 C145 1.249 . S
Mg154 O155 2.028 . S
Mg154 O161 1.986 . S
Mg154 O163 2.114 . S
Mg154 O164 2.251 . S
Mg154 O167 2.010 . S
O155 Mg154 2.028 . S
O155 C158 1.250 . S
O156 Mg157 2.028 . S
O156 C158 1.248 . S
Mg157 O156 2.028 . S
Mg157 O162 2.032 . S
Mg157 O164 2.079 . S
C158 O155 1.250 . S
C158 O156 1.248 . S
C159 O160 1.264 . S
C159 O167 1.249 . S
O160 C159 1.264 . S
O161 Mg154 1.986 . S
O161 C165 1.246 . S
O162 Mg157 2.032 . S
O162 C165 1.259 . S
O163 Mg154 2.114 . S
O163 C166 1.252 . S
O164 Mg154 2.251 . S
O164 Mg157 2.079 . S
O164 C166 1.273 . S
C165 O161 1.246 . S
C165 O162 1.259 . S
C166 O163 1.252 . S
C166 O164 1.273 . S
O167 Mg154 2.010 . S
O167 C159 1.249 . S
H168 C186 0.951 . S
H169 C188 0.951 . S
H170 C190 0.950 . S
H171 C191 0.950 . S
H172 C193 0.950 . S
H173 C196 0.950 . S
H174 C197 0.950 . S
H175 C199 0.950 . S
H176 C200 0.950 . S
H177 C201 0.951 . S
H178 C203 0.951 . S
H179 C205 0.950 . S
H180 C206 0.950 . S
H181 C208 0.950 . S
H182 C211 0.950 . S
H183 C212 0.950 . S
H184 C214 0.996 . S
H185 C215 0.950 . S
C186 H168 0.951 . S
C186 C187 1.366 . S
C186 C188 1.388 . S
C187 C186 1.366 . S
C187 C191 1.385 . S
C188 H169 0.951 . S
C188 C186 1.388 . S
C188 C189 1.366 . S
C189 C188 1.366 . S
C189 C190 1.414 . S
C189 C192 1.499 . S
C190 H170 0.950 . S
C190 C189 1.414 . S
C190 C191 1.374 . S
C191 H171 0.950 . S
C191 C187 1.385 . S
C191 C190 1.374 . S
C192 C189 1.499 . S
C192 C193 1.373 . S
C192 C194 1.389 . S
C193 H172 0.950 . S
C193 C192 1.373 . S
C193 C209 1.377 . S
C194 C192 1.389 . S
C194 C195 1.524 . S
C194 C208 1.377 . S
C195 C194 1.524 . S
C195 C196 1.397 . S
C195 C200 1.363 . S
C196 H173 0.950 . S
C196 C195 1.397 . S
C196 C197 1.334 . S
C197 H174 0.950 . S
C197 C196 1.334 . S
C197 C198 1.287 . S
C198 C197 1.287 . S
C198 C199 1.524 . S
C198 H217 0.913 . S
C199 H175 0.950 . S
C199 C198 1.524 . S
C199 C200 1.415 . S
C200 H176 0.950 . S
C200 C195 1.363 . S
C200 C199 1.415 . S
C201 H177 0.951 . S
C201 C202 1.366 . S
C201 C203 1.388 . S
C202 C201 1.366 . S
C202 C206 1.385 . S
C203 H178 0.951 . S
C203 C201 1.388 . S
C203 C204 1.366 . S
C204 C203 1.366 . S
C204 C205 1.414 . S
C204 C207 1.499 . S
C205 H179 0.950 . S
C205 C204 1.414 . S
C205 C206 1.374 . S
C206 H180 0.950 . S
C206 C202 1.385 . S
C206 C205 1.374 . S
C207 C204 1.499 . S
C207 C208 1.373 . S
C207 C209 1.389 . S
C208 H181 0.950 . S
C208 C194 1.377 . S
C208 C207 1.373 . S
C209 C193 1.377 . S
C209 C207 1.389 . S
C209 C210 1.524 . S
C210 C209 1.524 . S
C210 C211 1.397 . S
C210 C215 1.363 . S
C211 H182 0.950 . S
C211 C210 1.397 . S
C211 C212 1.334 . S
C212 H183 0.950 . S
C212 C211 1.334 . S
C212 C213 1.287 . S
C213 C212 1.287 . S
C213 C214 1.524 . S
C213 H216 0.999 . S
C214 H184 0.996 . S
C214 C213 1.524 . S
C214 C215 1.415 . S
C215 H185 0.950 . S
C215 C210 1.363 . S
C215 C214 1.415 . S
H216 C213 0.999 . S
H217 C198 0.913 . S
H218 C236 0.951 . S
H219 C238 0.951 . S
H220 C240 0.950 1_655 S
H221 C241 0.950 . S
H222 C243 0.950 . S
H223 C246 0.950 . S
H224 C247 0.950 . S
H225 C249 0.950 . S
H226 C250 0.950 . S
H227 C251 0.951 . S
H228 C253 0.951 . S
H229 C255 0.950 1_455 S
H230 C256 0.950 . S
H231 C258 0.950 . S
H232 C261 0.950 . S
H233 C262 0.950 . S
H234 C264 0.950 . S
H235 C265 0.950 . S
C236 H218 0.951 . S
C236 C237 1.366 . S
C236 C238 1.388 . S
C237 C236 1.366 . S
C237 C241 1.385 . S
C238 H219 0.951 . S
C238 C236 1.388 . S
C238 C239 1.366 . S
C239 C238 1.366 . S
C239 C240 1.414 . S
C239 C242 1.499 . S
C240 H220 0.950 1_455 S
C240 C239 1.414 . S
C240 C241 1.374 . S
C241 H221 0.950 . S
C241 C237 1.385 . S
C241 C240 1.374 . S
C242 C239 1.499 . S
C242 C243 1.373 1_455 S
C242 C244 1.389 . S
C243 H222 0.950 . S
C243 C242 1.373 1_655 S
C243 C259 1.377 . S
C244 C242 1.389 . S
C244 C245 1.524 . S
C244 C258 1.377 . S
C245 C244 1.524 . S
C245 C246 1.397 . S
C245 C250 1.363 . S
C246 H223 0.950 . S
C246 C245 1.397 . S
C246 C247 1.334 . S
C247 H224 0.950 . S
C247 C246 1.334 . S
C247 C248 1.287 . S
C248 C247 1.287 . S
C248 C249 1.524 . S
C248 H267 0.913 . S
C249 H225 0.950 . S
C249 C248 1.524 . S
C249 C250 1.415 . S
C250 H226 0.950 . S
C250 C245 1.363 . S
C250 C249 1.415 . S
C251 H227 0.951 . S
C251 C252 1.366 . S
C251 C253 1.388 . S
C252 C251 1.366 . S
C252 C256 1.385 . S
C253 H228 0.951 . S
C253 C251 1.388 . S
C253 C254 1.366 . S
C254 C253 1.366 . S
C254 C255 1.414 . S
C254 C257 1.499 . S
C255 H229 0.950 1_655 S
C255 C254 1.414 . S
C255 C256 1.374 . S
C256 H230 0.950 . S
C256 C252 1.385 . S
C256 C255 1.374 . S
C257 C254 1.499 . S
C257 C258 1.373 1_655 S
C257 C259 1.389 . S
C258 H231 0.950 . S
C258 C244 1.377 . S
C258 C257 1.373 1_455 S
C259 C243 1.377 . S
C259 C257 1.389 . S
C259 C260 1.524 . S
C260 C259 1.524 . S
C260 C261 1.397 . S
C260 C265 1.363 . S
C261 H232 0.950 . S
C261 C260 1.397 . S
C261 C262 1.334 . S
C262 H233 0.950 . S
C262 C261 1.334 . S
C262 C263 1.287 . S
C263 C262 1.287 . S
C263 C264 1.524 . S
C263 H266 0.999 . S
C264 H234 0.950 . S
C264 C263 1.524 . S
C264 C265 1.415 . S
C265 H235 0.950 . S
C265 C260 1.363 . S
C265 C264 1.415 . S
H266 C263 0.999 . S
H267 C248 0.913 . S
H268 C286 0.951 . S
H269 C288 0.951 . S
H270 C290 0.950 1_545 S
H271 C291 0.950 . S
H272 C293 0.950 . S
H273 C296 0.950 . S
H274 C297 0.950 . S
H275 C299 0.950 . S
H276 C300 0.950 . S
H277 C301 0.951 . S
H278 C303 0.951 . S
H279 C305 0.950 1_565 S
H280 C306 0.950 . S
H281 C308 0.950 . S
H282 C311 0.950 . S
H283 C312 0.950 . S
H284 C314 0.950 . S
H285 C315 0.950 . S
C286 H268 0.951 . S
C286 C287 1.366 . S
C286 C288 1.388 . S
C287 C286 1.366 . S
C287 C291 1.385 . S
C288 H269 0.951 . S
C288 C286 1.388 . S
C288 C289 1.366 . S
C289 C288 1.366 . S
C289 C290 1.414 . S
C289 C292 1.499 . S
C290 H270 0.950 1_565 S
C290 C289 1.414 . S
C290 C291 1.374 . S
C291 H271 0.950 . S
C291 C287 1.385 . S
C291 C290 1.374 . S
C292 C289 1.499 . S
C292 C293 1.373 1_565 S
C292 C294 1.389 . S
C293 H272 0.950 . S
C293 C292 1.373 1_545 S
C293 C309 1.377 . S
C294 C292 1.389 . S
C294 C295 1.524 . S
C294 C308 1.377 . S
C295 C294 1.524 . S
C295 C296 1.397 . S
C295 C300 1.363 . S
C296 H273 0.950 . S
C296 C295 1.397 . S
C296 C297 1.334 . S
C297 H274 0.950 . S
C297 C296 1.334 . S
C297 C298 1.287 . S
C298 C297 1.287 . S
C298 C299 1.524 . S
C298 H317 0.913 . S
C299 H275 0.950 . S
C299 C298 1.524 . S
C299 C300 1.415 . S
C300 H276 0.950 . S
C300 C295 1.363 . S
C300 C299 1.415 . S
C301 H277 0.951 . S
C301 C302 1.366 . S
C301 C303 1.388 . S
C302 C301 1.366 . S
C302 C306 1.385 . S
C303 H278 0.951 . S
C303 C301 1.388 . S
C303 C304 1.366 . S
C304 C303 1.366 . S
C304 C305 1.414 . S
C304 C307 1.499 . S
C305 H279 0.950 1_545 S
C305 C304 1.414 . S
C305 C306 1.374 . S
C306 H280 0.950 . S
C306 C302 1.385 . S
C306 C305 1.374 . S
C307 C304 1.499 . S
C307 C308 1.373 1_545 S
C307 C309 1.389 . S
C308 H281 0.950 . S
C308 C294 1.377 . S
C308 C307 1.373 1_565 S
C309 C293 1.377 . S
C309 C307 1.389 . S
C309 C310 1.524 . S
C310 C309 1.524 . S
C310 C311 1.397 . S
C310 C315 1.363 . S
C311 H282 0.950 . S
C311 C310 1.397 . S
C311 C312 1.334 . S
C312 H283 0.950 . S
C312 C311 1.334 . S
C312 C313 1.287 . S
C313 C312 1.287 . S
C313 C314 1.524 . S
C313 H316 0.999 . S
C314 H284 0.950 . S
C314 C313 1.524 . S
C314 C315 1.415 . S
C315 H285 0.950 . S
C315 C310 1.363 . S
C315 C314 1.415 . S
H316 C313 0.999 . S
H317 C298 0.913 . S
H318 C336 0.951 . S
H319 C338 0.951 . S
H320 C340 0.950 . S
H321 C341 0.950 . S
H322 C343 0.950 . S
H323 C346 0.950 . S
H324 C347 0.950 . S
H325 C349 0.950 . S
H326 C350 0.950 . S
H327 C351 0.951 . S
H328 C353 0.951 . S
H329 C355 0.950 . S
H330 C356 0.950 . S
H331 C358 0.950 . S
H332 C361 0.950 . S
H333 C362 0.950 . S
H334 C364 0.950 . S
H335 C365 0.950 . S
C336 H318 0.951 . S
C336 C337 1.366 . S
C336 C338 1.388 . S
C337 C336 1.366 . S
C337 C341 1.385 . S
C338 H319 0.951 . S
C338 C336 1.388 . S
C338 C339 1.366 . S
C339 C338 1.366 . S
C339 C340 1.414 . S
C339 C342 1.499 . S
C340 H320 0.950 . S
C340 C339 1.414 . S
C340 C341 1.374 . S
C341 H321 0.950 . S
C341 C337 1.385 . S
C341 C340 1.374 . S
C342 C339 1.499 . S
C342 C343 1.373 . S
C342 C344 1.389 . S
C343 H322 0.950 . S
C343 C342 1.373 . S
C343 C359 1.377 . S
C344 C342 1.389 . S
C344 C345 1.524 . S
C344 C358 1.377 . S
C345 C344 1.524 . S
C345 C346 1.397 . S
C345 C350 1.363 . S
C346 H323 0.950 . S
C346 C345 1.397 . S
C346 C347 1.334 . S
C347 H324 0.950 . S
C347 C346 1.334 . S
C347 C348 1.287 . S
C348 C347 1.287 . S
C348 C349 1.524 . S
C348 H367 0.913 . S
C349 H325 0.950 . S
C349 C348 1.524 . S
C349 C350 1.415 . S
C350 H326 0.950 . S
C350 C345 1.363 . S
C350 C349 1.415 . S
C351 H327 0.951 . S
C351 C352 1.366 . S
C351 C353 1.388 . S
C352 C351 1.366 . S
C352 C356 1.385 . S
C353 H328 0.951 . S
C353 C351 1.388 . S
C353 C354 1.366 . S
C354 C353 1.366 . S
C354 C355 1.414 . S
C354 C357 1.499 . S
C355 H329 0.950 . S
C355 C354 1.414 . S
C355 C356 1.374 . S
C356 H330 0.950 . S
C356 C352 1.385 . S
C356 C355 1.374 . S
C357 C354 1.499 . S
C357 C358 1.373 . S
C357 C359 1.389 . S
C358 H331 0.950 . S
C358 C344 1.377 . S
C358 C357 1.373 . S
C359 C343 1.377 . S
C359 C357 1.389 . S
C359 C360 1.524 . S
C360 C359 1.524 . S
C360 C361 1.397 . S
C360 C365 1.363 . S
C361 H332 0.950 . S
C361 C360 1.397 . S
C361 C362 1.334 . S
C362 H333 0.950 . S
C362 C361 1.334 . S
C362 C363 1.287 . S
C363 C362 1.287 . S
C363 C364 1.524 . S
C363 H366 0.999 . S
C364 H334 0.950 . S
C364 C363 1.524 . S
C364 C365 1.415 . S
C365 H335 0.950 . S
C365 C360 1.363 . S
C365 C364 1.415 . S
H366 C363 0.999 . S
H367 C348 0.913 . S
H368 C386 0.951 . S
H369 C388 0.951 . S
H370 C390 0.950 . S
H371 C391 0.950 . S
H372 C393 0.950 . S
H373 C396 0.950 . S
H374 C397 0.950 . S
H375 C399 0.950 . S
H376 C400 0.950 . S
H377 C401 0.951 . S
H378 C403 0.951 . S
H379 C405 0.950 . S
H380 C406 0.950 . S
H381 C408 0.950 . S
H382 C411 0.950 . S
H383 C412 0.950 . S
H384 C414 0.950 . S
H385 C415 0.950 . S
C386 H368 0.951 . S
C386 C387 1.366 . S
C386 C388 1.388 . S
C387 C386 1.366 . S
C387 C391 1.385 . S
C388 H369 0.951 . S
C388 C386 1.388 . S
C388 C389 1.366 . S
C389 C388 1.366 . S
C389 C390 1.414 . S
C389 C392 1.499 . S
C390 H370 0.950 . S
C390 C389 1.414 . S
C390 C391 1.374 . S
C391 H371 0.950 . S
C391 C387 1.385 . S
C391 C390 1.374 . S
C392 C389 1.499 . S
C392 C393 1.373 1_655 S
C392 C394 1.389 . S
C393 H372 0.950 . S
C393 C392 1.373 1_455 S
C393 C409 1.377 . S
C394 C392 1.389 . S
C394 C395 1.524 . S
C394 C408 1.377 . S
C395 C394 1.524 . S
C395 C396 1.397 . S
C395 C400 1.363 . S
C396 H373 0.950 . S
C396 C395 1.397 . S
C396 C397 1.334 . S
C397 H374 0.950 . S
C397 C396 1.334 . S
C397 C398 1.287 . S
C398 C397 1.287 . S
C398 C399 1.524 . S
C398 H417 0.913 . S
C399 H375 0.950 . S
C399 C398 1.524 . S
C399 C400 1.415 . S
C400 H376 0.950 . S
C400 C395 1.363 . S
C400 C399 1.415 . S
C401 H377 0.951 . S
C401 C402 1.366 . S
C401 C403 1.388 . S
C402 C401 1.366 . S
C402 C406 1.385 . S
C403 H378 0.951 . S
C403 C401 1.388 . S
C403 C404 1.366 . S
C404 C403 1.366 . S
C404 C405 1.414 . S
C404 C407 1.499 . S
C405 H379 0.950 . S
C405 C404 1.414 . S
C405 C406 1.374 . S
C406 H380 0.950 . S
C406 C402 1.385 . S
C406 C405 1.374 . S
C407 C404 1.499 . S
C407 C408 1.373 1_455 S
C407 C409 1.389 . S
C408 H381 0.950 . S
C408 C394 1.377 . S
C408 C407 1.373 1_655 S
C409 C393 1.377 . S
C409 C407 1.389 . S
C409 C410 1.524 . S
C410 C409 1.524 . S
C410 C411 1.397 . S
C410 C415 1.363 . S
C411 H382 0.950 . S
C411 C410 1.397 . S
C411 C412 1.334 . S
C412 H383 0.950 . S
C412 C411 1.334 . S
C412 C413 1.287 . S
C413 C412 1.287 . S
C413 C414 1.524 . S
C413 H416 0.999 . S
C414 H384 0.950 . S
C414 C413 1.524 . S
C414 C415 1.415 . S
C415 H385 0.950 . S
C415 C410 1.363 . S
C415 C414 1.415 . S
H416 C413 0.999 . S
H417 C398 0.913 . S
H418 C436 0.951 . S
H419 C438 0.951 . S
H420 C440 0.950 . S
H421 C441 0.950 . S
H422 C443 0.950 . S
H423 C446 0.950 . S
H424 C447 0.950 1_565 S
H425 C449 0.950 . S
H426 C450 0.950 . S
H427 C451 0.951 . S
H428 C453 0.951 . S
H429 C455 0.950 . S
H430 C456 0.950 . S
H431 C458 0.950 . S
H432 C461 0.950 . S
H433 C462 0.950 1_545 S
H434 C464 0.950 . S
H435 C465 0.950 . S
C436 H418 0.951 . S
C436 C437 1.366 . S
C436 C438 1.388 . S
C437 C436 1.366 . S
C437 C441 1.385 . S
C438 H419 0.951 . S
C438 C436 1.388 . S
C438 C439 1.366 . S
C439 C438 1.366 . S
C439 C440 1.414 . S
C439 C442 1.499 . S
C440 H420 0.950 . S
C440 C439 1.414 . S
C440 C441 1.374 . S
C441 H421 0.950 . S
C441 C437 1.385 . S
C441 C440 1.374 . S
C442 C439 1.499 . S
C442 C443 1.373 . S
C442 C444 1.389 . S
C443 H422 0.950 . S
C443 C442 1.373 . S
C443 C459 1.377 1_545 S
C444 C442 1.389 . S
C444 C445 1.524 . S
C444 C458 1.377 1_545 S
C445 C444 1.524 . S
C445 C446 1.397 1_545 S
C445 C450 1.363 . S
C446 H423 0.950 . S
C446 C445 1.397 1_565 S
C446 C447 1.334 1_565 S
C447 H424 0.950 1_545 S
C447 C446 1.334 1_545 S
C447 C448 1.287 . S
C448 C447 1.287 . S
C448 C449 1.524 . S
C448 H467 0.913 . S
C449 H425 0.950 . S
C449 C448 1.524 . S
C449 C450 1.415 . S
C450 H426 0.950 . S
C450 C445 1.363 . S
C450 C449 1.415 . S
C451 H427 0.951 . S
C451 C452 1.366 . S
C451 C453 1.388 . S
C452 C451 1.366 . S
C452 C456 1.385 . S
C453 H428 0.951 . S
C453 C451 1.388 . S
C453 C454 1.366 . S
C454 C453 1.366 . S
C454 C455 1.414 . S
C454 C457 1.499 . S
C455 H429 0.950 . S
C455 C454 1.414 . S
C455 C456 1.374 . S
C456 H430 0.950 . S
C456 C452 1.385 . S
C456 C455 1.374 . S
C457 C454 1.499 . S
C457 C458 1.373 . S
C457 C459 1.389 . S
C458 H431 0.950 . S
C458 C444 1.377 1_565 S
C458 C457 1.373 . S
C459 C443 1.377 1_565 S
C459 C457 1.389 . S
C459 C460 1.524 . S
C460 C459 1.524 . S
C460 C461 1.397 1_565 S
C460 C465 1.363 . S
C461 H432 0.950 . S
C461 C460 1.397 1_545 S
C461 C462 1.334 1_545 S
C462 H433 0.950 1_565 S
C462 C461 1.334 1_565 S
C462 C463 1.287 . S
C463 C462 1.287 . S
C463 C464 1.524 . S
C463 H466 0.999 . S
C464 H434 0.950 . S
C464 C463 1.524 . S
C464 C465 1.415 . S
C465 H435 0.950 . S
C465 C460 1.363 . S
C465 C464 1.415 . S
H466 C463 0.999 . S
H467 C448 0.913 . S
H468 C486 0.951 . S
H469 C488 0.951 . S
H470 C490 0.950 . S
H471 C491 0.950 . S
H472 C493 0.950 . S
H473 C496 0.950 . S
H474 C497 0.950 . S
H475 C499 0.950 . S
H476 C500 0.950 . S
H477 C501 0.951 . S
H478 C503 0.951 . S
H479 C505 0.950 . S
H480 C506 0.950 . S
H481 C508 0.950 . S
H482 C511 0.950 . S
H483 C512 0.950 . S
H484 C514 0.950 . S
H485 C515 0.950 . S
C486 H468 0.951 . S
C486 C487 1.366 . S
C486 C488 1.388 . S
C487 C486 1.366 . S
C487 C491 1.385 . S
C488 H469 0.951 . S
C488 C486 1.388 . S
C488 C489 1.366 . S
C489 C488 1.366 . S
C489 C490 1.414 . S
C489 C492 1.499 . S
C490 H470 0.950 . S
C490 C489 1.414 . S
C490 C491 1.374 . S
C491 H471 0.950 . S
C491 C487 1.385 . S
C491 C490 1.374 . S
C492 C489 1.499 . S
C492 C493 1.373 . S
C492 C494 1.389 . S
C493 H472 0.950 . S
C493 C492 1.373 . S
C493 C509 1.377 . S
C494 C492 1.389 . S
C494 C495 1.524 . S
C494 C508 1.377 . S
C495 C494 1.524 . S
C495 C496 1.397 . S
C495 C500 1.363 . S
C496 H473 0.950 . S
C496 C495 1.397 . S
C496 C497 1.334 . S
C497 H474 0.950 . S
C497 C496 1.334 . S
C497 C498 1.287 . S
C498 C497 1.287 . S
C498 C499 1.524 . S
C498 H517 0.913 . S
C499 H475 0.950 . S
C499 C498 1.524 . S
C499 C500 1.415 . S
C500 H476 0.950 . S
C500 C495 1.363 . S
C500 C499 1.415 . S
C501 H477 0.951 . S
C501 C502 1.366 . S
C501 C503 1.388 . S
C502 C501 1.366 . S
C502 C506 1.385 . S
C503 H478 0.951 . S
C503 C501 1.388 . S
C503 C504 1.366 . S
C504 C503 1.366 . S
C504 C505 1.414 . S
C504 C507 1.499 . S
C505 H479 0.950 . S
C505 C504 1.414 . S
C505 C506 1.374 . S
C506 H480 0.950 . S
C506 C502 1.385 . S
C506 C505 1.374 . S
C507 C504 1.499 . S
C507 C508 1.373 . S
C507 C509 1.389 . S
C508 H481 0.950 . S
C508 C494 1.377 . S
C508 C507 1.373 . S
C509 C493 1.377 . S
C509 C507 1.389 . S
C509 C510 1.524 . S
C510 C509 1.524 . S
C510 C511 1.397 . S
C510 C515 1.363 . S
C511 H482 0.950 . S
C511 C510 1.397 . S
C511 C512 1.334 . S
C512 H483 0.950 . S
C512 C511 1.334 . S
C512 C513 1.287 . S
C513 C512 1.287 . S
C513 C514 1.524 . S
C513 H516 0.999 . S
C514 H484 0.950 . S
C514 C513 1.524 . S
C514 C515 1.415 . S
C515 H485 0.950 . S
C515 C510 1.363 . S
C515 C514 1.415 . S
H516 C513 0.999 . S
H517 C498 0.913 . S
H518 C536 0.951 . S
H519 C538 0.951 . S
H520 C540 0.950 . S
H521 C541 0.950 . S
H522 C543 0.950 . S
H523 C546 0.950 . S
H524 C547 0.950 . S
H525 C549 0.950 . S
H526 C550 0.950 . S
H527 C551 0.951 . S
H528 C553 0.951 . S
H529 C555 0.950 . S
H530 C556 0.950 . S
H531 C558 0.950 . S
H532 C561 0.950 . S
H533 C562 0.950 . S
H534 C564 0.950 . S
H535 C565 0.950 . S
C536 H518 0.951 . S
C536 C537 1.366 . S
C536 C538 1.388 . S
C537 C536 1.366 . S
C537 C541 1.385 . S
C538 H519 0.951 . S
C538 C536 1.388 . S
C538 C539 1.366 . S
C539 C538 1.366 . S
C539 C540 1.414 . S
C539 C542 1.499 . S
C540 H520 0.950 . S
C540 C539 1.414 . S
C540 C541 1.374 . S
C541 H521 0.950 . S
C541 C537 1.385 . S
C541 C540 1.374 . S
C542 C539 1.499 . S
C542 C543 1.373 . S
C542 C544 1.389 . S
C543 H522 0.950 . S
C543 C542 1.373 . S
C543 C559 1.377 . S
C544 C542 1.389 . S
C544 C545 1.524 . S
C544 C558 1.377 . S
C545 C544 1.524 . S
C545 C546 1.397 . S
C545 C550 1.363 . S
C546 H523 0.950 . S
C546 C545 1.397 . S
C546 C547 1.334 . S
C547 H524 0.950 . S
C547 C546 1.334 . S
C547 C548 1.287 . S
C548 C547 1.287 . S
C548 C549 1.524 . S
C548 H567 0.913 . S
C549 H525 0.950 . S
C549 C548 1.524 . S
C549 C550 1.415 . S
C550 H526 0.950 . S
C550 C545 1.363 . S
C550 C549 1.415 . S
C551 H527 0.951 . S
C551 C552 1.366 . S
C551 C553 1.388 . S
C552 C551 1.366 . S
C552 C556 1.385 . S
C553 H528 0.951 . S
C553 C551 1.388 . S
C553 C554 1.366 . S
C554 C553 1.366 . S
C554 C555 1.414 . S
C554 C557 1.499 . S
C555 H529 0.950 . S
C555 C554 1.414 . S
C555 C556 1.374 . S
C556 H530 0.950 . S
C556 C552 1.385 . S
C556 C555 1.374 . S
C557 C554 1.499 . S
C557 C558 1.373 . S
C557 C559 1.389 . S
C558 H531 0.950 . S
C558 C544 1.377 . S
C558 C557 1.373 . S
C559 C543 1.377 . S
C559 C557 1.389 . S
C559 C560 1.524 . S
C560 C559 1.524 . S
C560 C561 1.397 . S
C560 C565 1.363 . S
C561 H532 0.950 . S
C561 C560 1.397 . S
C561 C562 1.334 . S
C562 H533 0.950 . S
C562 C561 1.334 . S
C562 C563 1.287 . S
C563 C562 1.287 . S
C563 C564 1.524 . S
C563 H566 0.999 . S
C564 H534 0.950 . S
C564 C563 1.524 . S
C564 C565 1.415 . S
C565 H535 0.950 . S
C565 C560 1.363 . S
C565 C564 1.415 . S
H566 C563 0.999 . S
H567 C548 0.913 . S
H568 C586 0.951 . S
H569 C588 0.951 . S
H570 C590 0.950 . S
H571 C591 0.950 . S
H572 C593 0.950 . S
H573 C596 0.950 . S
H574 C597 0.950 . S
H575 C599 0.950 . S
H576 C600 0.950 . S
H577 C601 0.951 . S
H578 C603 0.951 . S
H579 C605 0.950 . S
H580 C606 0.950 . S
H581 C608 0.950 . S
H582 C611 0.950 . S
H583 C612 0.950 . S
H584 C614 0.950 . S
H585 C615 0.950 . S
C586 H568 0.951 . S
C586 C587 1.366 . S
C586 C588 1.388 . S
C587 C586 1.366 . S
C587 C591 1.385 . S
C588 H569 0.951 . S
C588 C586 1.388 . S
C588 C589 1.366 . S
C589 C588 1.366 . S
C589 C590 1.414 . S
C589 C592 1.499 . S
C590 H570 0.950 . S
C590 C589 1.414 . S
C590 C591 1.374 . S
C591 H571 0.950 . S
C591 C587 1.385 . S
C591 C590 1.374 . S
C592 C589 1.499 . S
C592 C593 1.373 . S
C592 C594 1.389 . S
C593 H572 0.950 . S
C593 C592 1.373 . S
C593 C609 1.377 . S
C594 C592 1.389 . S
C594 C595 1.524 . S
C594 C608 1.377 . S
C595 C594 1.524 . S
C595 C596 1.397 . S
C595 C600 1.363 . S
C596 H573 0.950 . S
C596 C595 1.397 . S
C596 C597 1.334 . S
C597 H574 0.950 . S
C597 C596 1.334 . S
C597 C598 1.287 . S
C598 C597 1.287 . S
C598 C599 1.524 . S
C598 H617 0.913 . S
C599 H575 0.950 . S
C599 C598 1.524 . S
C599 C600 1.415 . S
C600 H576 0.950 . S
C600 C595 1.363 . S
C600 C599 1.415 . S
C601 H577 0.951 . S
C601 C602 1.366 . S
C601 C603 1.388 . S
C602 C601 1.366 . S
C602 C606 1.385 . S
C603 H578 0.951 . S
C603 C601 1.388 . S
C603 C604 1.366 . S
C604 C603 1.366 . S
C604 C605 1.414 . S
C604 C607 1.499 . S
C605 H579 0.950 . S
C605 C604 1.414 . S
C605 C606 1.374 . S
C606 H580 0.950 . S
C606 C602 1.385 . S
C606 C605 1.374 . S
C607 C604 1.499 . S
C607 C608 1.373 . S
C607 C609 1.389 . S
C608 H581 0.950 . S
C608 C594 1.377 . S
C608 C607 1.373 . S
C609 C593 1.377 . S
C609 C607 1.389 . S
C609 C610 1.524 . S
C610 C609 1.524 . S
C610 C611 1.397 . S
C610 C615 1.363 . S
C611 H582 0.950 . S
C611 C610 1.397 . S
C611 C612 1.334 . S
C612 H583 0.950 . S
C612 C611 1.334 . S
C612 C613 1.287 . S
C613 C612 1.287 . S
C613 C614 1.524 . S
C613 H616 0.999 . S
C614 H584 0.950 . S
C614 C613 1.524 . S
C614 C615 1.415 . S
C615 H585 0.950 . S
C615 C610 1.363 . S
C615 C614 1.415 . S
H616 C613 0.999 . S
H617 C598 0.913 . S
H618 C636 0.951 . S
H619 C638 0.951 . S
H620 C640 0.950 . S
H621 C641 0.950 . S
H622 C643 0.950 . S
H623 C646 0.950 . S
H624 C647 0.950 . S
H625 C649 0.950 . S
H626 C650 0.950 . S
H627 C651 0.951 . S
H628 C653 0.951 . S
H629 C655 0.950 . S
H630 C656 0.950 . S
H631 C658 0.950 . S
H632 C661 0.950 . S
H633 C662 0.950 . S
H634 C664 0.950 . S
H635 C665 0.950 . S
C636 H618 0.951 . S
C636 C637 1.366 . S
C636 C638 1.388 . S
C637 C636 1.366 . S
C637 C641 1.385 . S
C638 H619 0.951 . S
C638 C636 1.388 . S
C638 C639 1.366 . S
C639 C638 1.366 . S
C639 C640 1.414 . S
C639 C642 1.499 . S
C640 H620 0.950 . S
C640 C639 1.414 . S
C640 C641 1.374 . S
C641 H621 0.950 . S
C641 C637 1.385 . S
C641 C640 1.374 . S
C642 C639 1.499 . S
C642 C643 1.373 . S
C642 C644 1.389 . S
C643 H622 0.950 . S
C643 C642 1.373 . S
C643 C659 1.377 . S
C644 C642 1.389 . S
C644 C645 1.524 . S
C644 C658 1.377 . S
C645 C644 1.524 . S
C645 C646 1.397 . S
C645 C650 1.363 . S
C646 H623 0.950 . S
C646 C645 1.397 . S
C646 C647 1.334 . S
C647 H624 0.950 . S
C647 C646 1.334 . S
C647 C648 1.287 . S
C648 C647 1.287 . S
C648 C649 1.524 . S
C648 H667 0.913 . S
C649 H625 0.950 . S
C649 C648 1.524 . S
C649 C650 1.415 . S
C650 H626 0.950 . S
C650 C645 1.363 . S
C650 C649 1.415 . S
C651 H627 0.951 . S
C651 C652 1.366 . S
C651 C653 1.388 . S
C652 C651 1.366 . S
C652 C656 1.385 . S
C653 H628 0.951 . S
C653 C651 1.388 . S
C653 C654 1.366 . S
C654 C653 1.366 . S
C654 C655 1.414 . S
C654 C657 1.499 . S
C655 H629 0.950 . S
C655 C654 1.414 . S
C655 C656 1.374 . S
C656 H630 0.950 . S
C656 C652 1.385 . S
C656 C655 1.374 . S
C657 C654 1.499 . S
C657 C658 1.373 . S
C657 C659 1.389 . S
C658 H631 0.950 . S
C658 C644 1.377 . S
C658 C657 1.373 . S
C659 C643 1.377 . S
C659 C657 1.389 . S
C659 C660 1.524 . S
C660 C659 1.524 . S
C660 C661 1.397 . S
C660 C665 1.363 . S
C661 H632 0.950 . S
C661 C660 1.397 . S
C661 C662 1.334 . S
C662 H633 0.950 . S
C662 C661 1.334 . S
C662 C663 1.287 . S
C663 C662 1.287 . S
C663 C664 1.524 . S
C663 H666 0.999 . S
C664 H634 0.950 . S
C664 C663 1.524 . S
C664 C665 1.415 . S
C665 H635 0.950 . S
C665 C660 1.363 . S
C665 C664 1.415 . S
H666 C663 0.999 . S
H667 C648 0.913 . S
H668 C686 0.951 . S
H669 C688 0.951 . S
H670 C690 0.950 . S
H671 C691 0.950 . S
H672 C693 0.950 . S
H673 C696 0.950 . S
H674 C697 0.950 . S
H675 C699 0.950 . S
H676 C700 0.950 . S
H677 C701 0.951 . S
H678 C703 0.951 . S
H679 C705 0.950 . S
H680 C706 0.950 . S
H681 C708 0.950 . S
H682 C711 0.950 . S
H683 C712 0.950 . S
H684 C714 0.950 . S
H685 C715 0.950 . S
C686 H668 0.951 . S
C686 C687 1.366 . S
C686 C688 1.388 . S
C687 C686 1.366 . S
C687 C691 1.385 . S
C688 H669 0.951 . S
C688 C686 1.388 . S
C688 C689 1.366 . S
C689 C688 1.366 . S
C689 C690 1.414 . S
C689 C692 1.499 . S
C690 H670 0.950 . S
C690 C689 1.414 . S
C690 C691 1.374 . S
C691 H671 0.950 . S
C691 C687 1.385 . S
C691 C690 1.374 . S
C692 C689 1.499 . S
C692 C693 1.373 . S
C692 C694 1.389 . S
C693 H672 0.950 . S
C693 C692 1.373 . S
C693 C709 1.377 . S
C694 C692 1.389 . S
C694 C695 1.524 . S
C694 C708 1.377 . S
C695 C694 1.524 . S
C695 C696 1.397 . S
C695 C700 1.363 . S
C696 H673 0.950 . S
C696 C695 1.397 . S
C696 C697 1.334 . S
C697 H674 0.950 . S
C697 C696 1.334 . S
C697 C698 1.287 . S
C698 C697 1.287 . S
C698 C699 1.524 . S
C698 H717 0.913 . S
C699 H675 0.950 . S
C699 C698 1.524 . S
C699 C700 1.415 . S
C700 H676 0.950 . S
C700 C695 1.363 . S
C700 C699 1.415 . S
C701 H677 0.951 . S
C701 C702 1.366 . S
C701 C703 1.388 . S
C702 C701 1.366 . S
C702 C706 1.385 . S
C703 H678 0.951 . S
C703 C701 1.388 . S
C703 C704 1.366 . S
C704 C703 1.366 . S
C704 C705 1.414 . S
C704 C707 1.499 . S
C705 H679 0.950 . S
C705 C704 1.414 . S
C705 C706 1.374 . S
C706 H680 0.950 . S
C706 C702 1.385 . S
C706 C705 1.374 . S
C707 C704 1.499 . S
C707 C708 1.373 . S
C707 C709 1.389 . S
C708 H681 0.950 . S
C708 C694 1.377 . S
C708 C707 1.373 . S
C709 C693 1.377 . S
C709 C707 1.389 . S
C709 C710 1.524 . S
C710 C709 1.524 . S
C710 C711 1.397 . S
C710 C715 1.363 . S
C711 H682 0.950 . S
C711 C710 1.397 . S
C711 C712 1.334 . S
C712 H683 0.950 . S
C712 C711 1.334 . S
C712 C713 1.287 . S
C713 C712 1.287 . S
C713 C714 1.524 . S
C713 H716 0.999 . S
C714 H684 0.950 . S
C714 C713 1.524 . S
C714 C715 1.415 . S
C715 H685 0.950 . S
C715 C710 1.363 . S
C715 C714 1.415 . S
H716 C713 0.999 . S
H717 C698 0.913 . S
H718 C736 0.951 . S
H719 C738 0.951 . S
H720 C740 0.950 . S
H721 C741 0.950 . S
H722 C743 0.950 . S
H723 C746 0.950 . S
H724 C747 0.950 . S
H725 C749 0.950 . S
H726 C750 0.950 . S
H727 C751 0.951 . S
H728 C753 0.951 . S
H729 C755 0.950 . S
H730 C756 0.950 . S
H731 C758 0.950 . S
H732 C761 0.950 . S
H733 C762 0.950 . S
H734 C764 0.950 . S
H735 C765 0.950 . S
C736 H718 0.951 . S
C736 C737 1.366 . S
C736 C738 1.388 . S
C737 C736 1.366 . S
C737 C741 1.385 . S
C738 H719 0.951 . S
C738 C736 1.388 . S
C738 C739 1.366 . S
C739 C738 1.366 . S
C739 C740 1.414 . S
C739 C742 1.499 . S
C740 H720 0.950 . S
C740 C739 1.414 . S
C740 C741 1.374 . S
C741 H721 0.950 . S
C741 C737 1.385 . S
C741 C740 1.374 . S
C742 C739 1.499 . S
C742 C743 1.373 . S
C742 C744 1.389 . S
C743 H722 0.950 . S
C743 C742 1.373 . S
C743 C759 1.377 . S
C744 C742 1.389 . S
C744 C745 1.524 . S
C744 C758 1.377 . S
C745 C744 1.524 . S
C745 C746 1.397 . S
C745 C750 1.363 . S
C746 H723 0.950 . S
C746 C745 1.397 . S
C746 C747 1.334 . S
C747 H724 0.950 . S
C747 C746 1.334 . S
C747 C748 1.287 . S
C748 C747 1.287 . S
C748 C749 1.524 . S
C748 H767 0.913 . S
C749 H725 0.950 . S
C749 C748 1.524 . S
C749 C750 1.415 . S
C750 H726 0.950 . S
C750 C745 1.363 . S
C750 C749 1.415 . S
C751 H727 0.951 . S
C751 C752 1.366 . S
C751 C753 1.388 . S
C752 C751 1.366 . S
C752 C756 1.385 . S
C753 H728 0.951 . S
C753 C751 1.388 . S
C753 C754 1.366 . S
C754 C753 1.366 . S
C754 C755 1.414 . S
C754 C757 1.499 . S
C755 H729 0.950 . S
C755 C754 1.414 . S
C755 C756 1.374 . S
C756 H730 0.950 . S
C756 C752 1.385 . S
C756 C755 1.374 . S
C757 C754 1.499 . S
C757 C758 1.373 . S
C757 C759 1.389 . S
C758 H731 0.950 . S
C758 C744 1.377 . S
C758 C757 1.373 . S
C759 C743 1.377 . S
C759 C757 1.389 . S
C759 C760 1.524 . S
C760 C759 1.524 . S
C760 C761 1.397 . S
C760 C765 1.363 . S
C761 H732 0.950 . S
C761 C760 1.397 . S
C761 C762 1.334 . S
C762 H733 0.950 . S
C762 C761 1.334 . S
C762 C763 1.287 . S
C763 C762 1.287 . S
C763 C764 1.524 . S
C763 H766 0.999 . S
C764 H734 0.950 . S
C764 C763 1.524 . S
C764 C765 1.415 . S
C765 H735 0.950 . S
C765 C760 1.363 . S
C765 C764 1.415 . S
H766 C763 0.999 . S
H767 C748 0.913 . S
H768 C786 0.951 . S
H769 C788 0.951 . S
H770 C790 0.950 . S
H771 C791 0.950 1_554 S
H772 C793 0.950 . S
H773 C796 0.950 . S
H774 C797 0.950 1_554 S
H775 C799 0.950 . S
H776 C800 0.950 1_545 S
H777 C801 0.951 . S
H778 C803 0.951 . S
H779 C805 0.950 . S
H780 C806 0.950 1_556 S
H781 C808 0.950 . S
H782 C811 0.950 . S
H783 C812 0.950 1_556 S
H784 C814 0.950 . S
H785 C815 0.950 1_565 S
C786 H768 0.951 . S
C786 C787 1.366 . S
C786 C788 1.388 . S
C787 C786 1.366 . S
C787 C791 1.385 . S
C788 H769 0.951 . S
C788 C786 1.388 . S
C788 C789 1.366 . S
C789 C788 1.366 . S
C789 C790 1.414 1_556 S
C789 C792 1.499 . S
C790 H770 0.950 . S
C790 C789 1.414 1_554 S
C790 C791 1.374 1_554 S
C791 H771 0.950 1_556 S
C791 C787 1.385 . S
C791 C790 1.374 1_556 S
C792 C789 1.499 . S
C792 C793 1.373 1_556 S
C792 C794 1.389 . S
C793 H772 0.950 . S
C793 C792 1.373 1_554 S
C793 C809 1.377 1_565 S
C794 C792 1.389 . S
C794 C795 1.524 . S
C794 C808 1.377 1_565 S
C795 C794 1.524 . S
C795 C796 1.397 1_556 S
C795 C800 1.363 . S
C796 H773 0.950 . S
C796 C795 1.397 1_554 S
C796 C797 1.334 1_554 S
C797 H774 0.950 1_556 S
C797 C796 1.334 1_556 S
C797 C798 1.287 . S
C798 C797 1.287 . S
C798 C799 1.524 . S
C798 H817 0.913 . S
C799 H775 0.950 . S
C799 C798 1.524 . S
C799 C800 1.415 . S
C800 H776 0.950 1_565 S
C800 C795 1.363 . S
C800 C799 1.415 . S
C801 H777 0.951 . S
C801 C802 1.366 . S
C801 C803 1.388 . S
C802 C801 1.366 . S
C802 C806 1.385 . S
C803 H778 0.951 . S
C803 C801 1.388 . S
C803 C804 1.366 . S
C804 C803 1.366 . S
C804 C805 1.414 1_554 S
C804 C807 1.499 . S
C805 H779 0.950 . S
C805 C804 1.414 1_556 S
C805 C806 1.374 1_556 S
C806 H780 0.950 1_554 S
C806 C802 1.385 . S
C806 C805 1.374 1_554 S
C807 C804 1.499 . S
C807 C808 1.373 1_554 S
C807 C809 1.389 . S
C808 H781 0.950 . S
C808 C794 1.377 1_545 S
C808 C807 1.373 1_556 S
C809 C793 1.377 1_545 S
C809 C807 1.389 . S
C809 C810 1.524 . S
C810 C809 1.524 . S
C810 C811 1.397 1_554 S
C810 C815 1.363 . S
C811 H782 0.950 . S
C811 C810 1.397 1_556 S
C811 C812 1.334 1_556 S
C812 H783 0.950 1_554 S
C812 C811 1.334 1_554 S
C812 C813 1.287 . S
C813 C812 1.287 . S
C813 C814 1.524 . S
C813 H816 0.999 . S
C814 H784 0.950 . S
C814 C813 1.524 . S
C814 C815 1.415 . S
C815 H785 0.950 1_545 S
C815 C810 1.363 . S
C815 C814 1.415 . S
H816 C813 0.999 . S
H817 C798 0.913 . S
H818 C836 0.951 . S
H819 C838 0.951 . S
H820 C840 0.950 . S
H821 C841 0.950 . S
H822 C843 0.950 . S
H823 C846 0.950 . S
H824 C847 0.950 . S
H825 C849 0.950 . S
H826 C850 0.950 . S
H827 C851 0.951 . S
H828 C853 0.951 . S
H829 C855 0.950 . S
H830 C856 0.950 . S
H831 C858 0.950 . S
H832 C861 0.950 . S
H833 C862 0.950 . S
H834 C864 0.950 . S
H835 C865 0.950 . S
C836 H818 0.951 . S
C836 C837 1.366 . S
C836 C838 1.388 . S
C837 C836 1.366 . S
C837 C841 1.385 . S
C838 H819 0.951 . S
C838 C836 1.388 . S
C838 C839 1.366 . S
C839 C838 1.366 . S
C839 C840 1.414 . S
C839 C842 1.499 . S
C840 H820 0.950 . S
C840 C839 1.414 . S
C840 C841 1.374 . S
C841 H821 0.950 . S
C841 C837 1.385 . S
C841 C840 1.374 . S
C842 C839 1.499 . S
C842 C843 1.373 . S
C842 C844 1.389 . S
C843 H822 0.950 . S
C843 C842 1.373 . S
C843 C859 1.377 . S
C844 C842 1.389 . S
C844 C845 1.524 . S
C844 C858 1.377 . S
C845 C844 1.524 . S
C845 C846 1.397 . S
C845 C850 1.363 . S
C846 H823 0.950 . S
C846 C845 1.397 . S
C846 C847 1.334 . S
C847 H824 0.950 . S
C847 C846 1.334 . S
C847 C848 1.287 . S
C848 C847 1.287 . S
C848 C849 1.524 . S
C848 H867 0.913 . S
C849 H825 0.950 . S
C849 C848 1.524 . S
C849 C850 1.415 . S
C850 H826 0.950 . S
C850 C845 1.363 . S
C850 C849 1.415 . S
C851 H827 0.951 . S
C851 C852 1.366 . S
C851 C853 1.388 . S
C852 C851 1.366 . S
C852 C856 1.385 . S
C853 H828 0.951 . S
C853 C851 1.388 . S
C853 C854 1.366 . S
C854 C853 1.366 . S
C854 C855 1.414 . S
C854 C857 1.499 . S
C855 H829 0.950 . S
C855 C854 1.414 . S
C855 C856 1.374 . S
C856 H830 0.950 . S
C856 C852 1.385 . S
C856 C855 1.374 . S
C857 C854 1.499 . S
C857 C858 1.373 . S
C857 C859 1.389 . S
C858 H831 0.950 . S
C858 C844 1.377 . S
C858 C857 1.373 . S
C859 C843 1.377 . S
C859 C857 1.389 . S
C859 C860 1.524 . S
C860 C859 1.524 . S
C860 C861 1.397 . S
C860 C865 1.363 . S
C861 H832 0.950 . S
C861 C860 1.397 . S
C861 C862 1.334 . S
C862 H833 0.950 . S
C862 C861 1.334 . S
C862 C863 1.287 . S
C863 C862 1.287 . S
C863 C864 1.524 . S
C863 H866 0.999 . S
C864 H834 0.950 . S
C864 C863 1.524 . S
C864 C865 1.415 . S
C865 H835 0.950 . S
C865 C860 1.363 . S
C865 C864 1.415 . S
H866 C863 0.999 . S
H867 C848 0.913 . S
H868 C886 0.951 . S
H869 C888 0.951 . S
H870 C890 0.950 . S
H871 C891 0.950 . S
H872 C893 0.950 . S
H873 C896 0.950 . S
H874 C897 0.950 . S
H875 C899 0.950 . S
H876 C900 0.950 1_455 S
H877 C901 0.951 . S
H878 C903 0.951 . S
H879 C905 0.950 . S
H880 C906 0.950 . S
H881 C908 0.950 . S
H882 C911 0.950 . S
H883 C912 0.950 . S
H884 C914 0.950 . S
H885 C915 0.950 1_655 S
C886 H868 0.951 . S
C886 C887 1.366 . S
C886 C888 1.388 . S
C887 C886 1.366 . S
C887 C891 1.385 . S
C888 H869 0.951 . S
C888 C886 1.388 . S
C888 C889 1.366 . S
C889 C888 1.366 . S
C889 C890 1.414 . S
C889 C892 1.499 . S
C890 H870 0.950 . S
C890 C889 1.414 . S
C890 C891 1.374 . S
C891 H871 0.950 . S
C891 C887 1.385 . S
C891 C890 1.374 . S
C892 C889 1.499 . S
C892 C893 1.373 . S
C892 C894 1.389 . S
C893 H872 0.950 . S
C893 C892 1.373 . S
C893 C909 1.377 1_655 S
C894 C892 1.389 . S
C894 C895 1.524 . S
C894 C908 1.377 1_655 S
C895 C894 1.524 . S
C895 C896 1.397 . S
C895 C900 1.363 . S
C896 H873 0.950 . S
C896 C895 1.397 . S
C896 C897 1.334 . S
C897 H874 0.950 . S
C897 C896 1.334 . S
C897 C898 1.287 . S
C898 C897 1.287 . S
C898 C899 1.524 . S
C898 H917 0.913 . S
C899 H875 0.950 . S
C899 C898 1.524 . S
C899 C900 1.415 . S
C900 H876 0.950 1_655 S
C900 C895 1.363 . S
C900 C899 1.415 . S
C901 H877 0.951 . S
C901 C902 1.366 . S
C901 C903 1.388 . S
C902 C901 1.366 . S
C902 C906 1.385 . S
C903 H878 0.951 . S
C903 C901 1.388 . S
C903 C904 1.366 . S
C904 C903 1.366 . S
C904 C905 1.414 . S
C904 C907 1.499 . S
C905 H879 0.950 . S
C905 C904 1.414 . S
C905 C906 1.374 . S
C906 H880 0.950 . S
C906 C902 1.385 . S
C906 C905 1.374 . S
C907 C904 1.499 . S
C907 C908 1.373 . S
C907 C909 1.389 . S
C908 H881 0.950 . S
C908 C894 1.377 1_455 S
C908 C907 1.373 . S
C909 C893 1.377 1_455 S
C909 C907 1.389 . S
C909 C910 1.524 . S
C910 C909 1.524 . S
C910 C911 1.397 . S
C910 C915 1.363 . S
C911 H882 0.950 . S
C911 C910 1.397 . S
C911 C912 1.334 . S
C912 H883 0.950 . S
C912 C911 1.334 . S
C912 C913 1.287 . S
C913 C912 1.287 . S
C913 C914 1.524 . S
C913 H916 0.999 . S
C914 H884 0.950 . S
C914 C913 1.524 . S
C914 C915 1.415 . S
C915 H885 0.950 1_455 S
C915 C910 1.363 . S
C915 C914 1.415 . S
H916 C913 0.999 . S
H917 C898 0.913 . S
H918 C936 0.951 1_556 S
H919 C938 0.951 . S
H920 C940 0.950 . S
H921 C941 0.950 . S
H922 C943 0.950 . S
H923 C946 0.950 . S
H924 C947 0.950 . S
H925 C949 0.950 . S
H926 C950 0.950 . S
H927 C951 0.951 1_554 S
H928 C953 0.951 . S
H929 C955 0.950 . S
H930 C956 0.950 . S
H931 C958 0.950 . S
H932 C961 0.950 . S
H933 C962 0.950 . S
H934 C964 0.950 . S
H935 C965 0.950 . S
C936 H918 0.951 1_554 S
C936 C937 1.366 . S
C936 C938 1.388 1_554 S
C937 C936 1.366 . S
C937 C941 1.385 . S
C938 H919 0.951 . S
C938 C936 1.388 1_556 S
C938 C939 1.366 1_556 S
C939 C938 1.366 1_554 S
C939 C940 1.414 . S
C939 C942 1.499 . S
C940 H920 0.950 . S
C940 C939 1.414 . S
C940 C941 1.374 . S
C941 H921 0.950 . S
C941 C937 1.385 . S
C941 C940 1.374 . S
C942 C939 1.499 . S
C942 C943 1.373 . S
C942 C944 1.389 1_554 S
C943 H922 0.950 . S
C943 C942 1.373 . S
C943 C959 1.377 1_565 S
C944 C942 1.389 1_556 S
C944 C945 1.524 . S
C944 C958 1.377 1_565 S
C945 C944 1.524 . S
C945 C946 1.397 1_556 S
C945 C950 1.363 . S
C946 H923 0.950 . S
C946 C945 1.397 1_554 S
C946 C947 1.334 . S
C947 H924 0.950 . S
C947 C946 1.334 . S
C947 C948 1.287 1_554 S
C948 C947 1.287 1_556 S
C948 C949 1.524 . S
C948 H967 0.913 . S
C949 H925 0.950 . S
C949 C948 1.524 . S
C949 C950 1.415 . S
C950 H926 0.950 . S
C950 C945 1.363 . S
C950 C949 1.415 . S
C951 H927 0.951 1_556 S
C951 C952 1.366 . S
C951 C953 1.388 1_556 S
C952 C951 1.366 . S
C952 C956 1.385 . S
C953 H928 0.951 . S
C953 C951 1.388 1_554 S
C953 C954 1.366 1_554 S
C954 C953 1.366 1_556 S
C954 C955 1.414 . S
C954 C957 1.499 . S
C955 H929 0.950 . S
C955 C954 1.414 . S
C955 C956 1.374 . S
C956 H930 0.950 . S
C956 C952 1.385 . S
C956 C955 1.374 . S
C957 C954 1.499 . S
C957 C958 1.373 . S
C957 C959 1.389 1_556 S
C958 H931 0.950 . S
C958 C944 1.377 1_545 S
C958 C957 1.373 . S
C959 C943 1.377 1_545 S
C959 C957 1.389 1_554 S
C959 C960 1.524 . S
C960 C959 1.524 . S
C960 C961 1.397 1_554 S
C960 C965 1.363 . S
C961 H932 0.950 . S
C961 C960 1.397 1_556 S
C961 C962 1.334 . S
C962 H933 0.950 . S
C962 C961 1.334 . S
C962 C963 1.287 1_556 S
C963 C962 1.287 1_554 S
C963 C964 1.524 . S
C963 H966 0.999 . S
C964 H934 0.950 . S
C964 C963 1.524 . S
C964 C965 1.415 . S
C965 H935 0.950 . S
C965 C960 1.363 . S
C965 C964 1.415 . S
H966 C963 0.999 . S
H967 C948 0.913 . S
H968 C986 0.951 . S
H969 C988 0.951 . S
H970 C990 0.950 . S
H971 C991 0.950 . S
H972 C993 0.950 . S
H973 C996 0.950 . S
H974 C997 0.950 . S
H975 C999 0.950 . S
H976 C1000 0.950 . S
H977 C1001 0.951 . S
H978 C1003 0.951 . S
H979 C1005 0.950 . S
H980 C1006 0.950 . S
H981 C1008 0.950 . S
H982 C1011 0.950 . S
H983 C1012 0.950 . S
H984 C1014 0.950 . S
H985 C1015 0.950 . S
C986 H968 0.951 . S
C986 C987 1.366 . S
C986 C988 1.388 . S
C987 C986 1.366 . S
C987 C991 1.385 . S
C988 H969 0.951 . S
C988 C986 1.388 . S
C988 C989 1.366 . S
C989 C988 1.366 . S
C989 C990 1.414 . S
C989 C992 1.499 . S
C990 H970 0.950 . S
C990 C989 1.414 . S
C990 C991 1.374 . S
C991 H971 0.950 . S
C991 C987 1.385 . S
C991 C990 1.374 . S
C992 C989 1.499 . S
C992 C993 1.373 . S
C992 C994 1.389 . S
C993 H972 0.950 . S
C993 C992 1.373 . S
C993 C1009 1.377 . S
C994 C992 1.389 . S
C994 C995 1.524 . S
C994 C1008 1.377 . S
C995 C994 1.524 . S
C995 C996 1.397 . S
C995 C1000 1.363 . S
C996 H973 0.950 . S
C996 C995 1.397 . S
C996 C997 1.334 . S
C997 H974 0.950 . S
C997 C996 1.334 . S
C997 C998 1.287 . S
C998 C997 1.287 . S
C998 C999 1.524 . S
C998 H1017 0.913 . S
C999 H975 0.950 . S
C999 C998 1.524 . S
C999 C1000 1.415 . S
C1000 H976 0.950 . S
C1000 C995 1.363 . S
C1000 C999 1.415 . S
C1001 H977 0.951 . S
C1001 C1002 1.366 . S
C1001 C1003 1.388 . S
C1002 C1001 1.366 . S
C1002 C1006 1.385 . S
C1003 H978 0.951 . S
C1003 C1001 1.388 . S
C1003 C1004 1.366 . S
C1004 C1003 1.366 . S
C1004 C1005 1.414 . S
C1004 C1007 1.499 . S
C1005 H979 0.950 . S
C1005 C1004 1.414 . S
C1005 C1006 1.374 . S
C1006 H980 0.950 . S
C1006 C1002 1.385 . S
C1006 C1005 1.374 . S
C1007 C1004 1.499 . S
C1007 C1008 1.373 . S
C1007 C1009 1.389 . S
C1008 H981 0.950 . S
C1008 C994 1.377 . S
C1008 C1007 1.373 . S
C1009 C993 1.377 . S
C1009 C1007 1.389 . S
C1009 C1010 1.524 . S
C1010 C1009 1.524 . S
C1010 C1011 1.397 . S
C1010 C1015 1.363 . S
C1011 H982 0.950 . S
C1011 C1010 1.397 . S
C1011 C1012 1.334 . S
C1012 H983 0.950 . S
C1012 C1011 1.334 . S
C1012 C1013 1.287 . S
C1013 C1012 1.287 . S
C1013 C1014 1.524 . S
C1013 H1016 0.999 . S
C1014 H984 0.950 . S
C1014 C1013 1.524 . S
C1014 C1015 1.415 . S
C1015 H985 0.950 . S
C1015 C1010 1.363 . S
C1015 C1014 1.415 . S
H1016 C1013 0.999 . S
H1017 C998 0.913 . S
H1018 C1036 0.951 . S
H1019 C1038 0.951 . S
H1020 C1040 0.950 . S
H1021 C1041 0.950 . S
H1022 C1043 0.950 . S
H1023 C1046 0.950 . S
H1024 C1047 0.950 . S
H1025 C1049 0.950 1_655 S
H1026 C1050 0.954 1_655 S
H1027 C1051 0.951 . S
H1028 C1053 0.951 . S
H1029 C1055 0.950 . S
H1030 C1056 0.950 . S
H1031 C1058 0.950 . S
H1032 C1061 0.950 . S
H1033 C1062 0.950 . S
H1034 C1064 0.950 1_455 S
H1035 C1065 0.953 1_455 S
C1036 H1018 0.951 . S
C1036 C1037 1.366 . S
C1036 C1038 1.388 . S
C1037 C1036 1.366 . S
C1037 C1041 1.385 . S
C1038 H1019 0.951 . S
C1038 C1036 1.388 . S
C1038 C1039 1.366 . S
C1039 C1038 1.366 . S
C1039 C1040 1.414 . S
C1039 C1042 1.499 . S
C1040 H1020 0.950 . S
C1040 C1039 1.414 . S
C1040 C1041 1.374 . S
C1041 H1021 0.950 . S
C1041 C1037 1.385 . S
C1041 C1040 1.374 . S
C1042 C1039 1.499 . S
C1042 C1043 1.373 . S
C1042 C1044 1.389 . S
C1043 H1022 0.950 . S
C1043 C1042 1.373 . S
C1043 C1059 1.377 1_455 S
C1044 C1042 1.389 . S
C1044 C1045 1.524 . S
C1044 C1058 1.377 1_455 S
C1045 C1044 1.524 . S
C1045 C1046 1.397 . S
C1045 C1050 1.361 . S
C1046 H1023 0.950 . S
C1046 C1045 1.397 . S
C1046 C1047 1.334 . S
C1047 H1024 0.950 . S
C1047 C1046 1.334 . S
C1047 C1048 1.287 . S
C1048 C1047 1.287 . S
C1048 C1049 1.524 . S
C1048 H1067 0.913 . S
C1049 H1025 0.950 1_455 S
C1049 C1048 1.524 . S
C1049 C1050 1.414 . S
C1050 H1026 0.954 1_455 S
C1050 C1045 1.361 . S
C1050 C1049 1.414 . S
C1051 H1027 0.951 . S
C1051 C1052 1.366 . S
C1051 C1053 1.388 . S
C1052 C1051 1.366 . S
C1052 C1056 1.385 . S
C1053 H1028 0.951 . S
C1053 C1051 1.388 . S
C1053 C1054 1.366 . S
C1054 C1053 1.366 . S
C1054 C1055 1.414 . S
C1054 C1057 1.499 . S
C1055 H1029 0.950 . S
C1055 C1054 1.414 . S
C1055 C1056 1.374 . S
C1056 H1030 0.950 . S
C1056 C1052 1.385 . S
C1056 C1055 1.374 . S
C1057 C1054 1.499 . S
C1057 C1058 1.373 . S
C1057 C1059 1.389 . S
C1058 H1031 0.950 . S
C1058 C1044 1.377 1_655 S
C1058 C1057 1.373 . S
C1059 C1043 1.377 1_655 S
C1059 C1057 1.389 . S
C1059 C1060 1.524 . S
C1060 C1059 1.524 . S
C1060 C1061 1.397 . S
C1060 C1065 1.361 . S
C1061 H1032 0.950 . S
C1061 C1060 1.397 . S
C1061 C1062 1.334 . S
C1062 H1033 0.950 . S
C1062 C1061 1.334 . S
C1062 C1063 1.287 . S
C1063 C1062 1.287 . S
C1063 C1064 1.524 . S
C1063 H1066 0.999 . S
C1064 H1034 0.950 1_655 S
C1064 C1063 1.524 . S
C1064 C1065 1.414 . S
C1065 H1035 0.953 1_655 S
C1065 C1060 1.361 . S
C1065 C1064 1.414 . S
H1066 C1063 0.999 . S
H1067 C1048 0.913 . S
H1068 C1086 0.951 . S
H1069 C1088 0.951 . S
H1070 C1090 0.950 1_554 S
H1071 C1091 0.940 1_655 S
H1072 C1093 0.955 . S
H1073 C1096 0.950 1_554 S
H1074 C1097 0.950 . S
H1075 C1099 0.950 . S
H1076 C1100 0.950 . S
H1077 C1101 0.951 . S
H1078 C1103 0.951 . S
H1079 C1105 0.950 1_556 S
H1080 C1106 0.950 . S
H1081 C1108 0.955 . S
H1082 C1111 0.950 1_556 S
H1083 C1112 0.950 . S
H1084 C1114 0.950 . S
H1085 C1115 0.950 . S
C1086 H1068 0.951 . S
C1086 C1087 1.366 1_455 S
C1086 C1088 1.388 . S
C1087 C1086 1.366 1_655 S
C1087 C1091 1.383 1_655 S
C1088 H1069 0.951 . S
C1088 C1086 1.388 . S
C1088 C1089 1.366 . S
C1089 C1088 1.366 . S
C1089 C1090 1.414 . S
C1089 C1092 1.499 . S
C1090 H1070 0.950 1_556 S
C1090 C1089 1.414 . S
C1090 C1091 1.385 . S
C1091 H1071 0.940 1_455 S
C1091 C1087 1.383 1_455 S
C1091 C1090 1.385 . S
C1092 C1089 1.499 . S
C1092 C1093 1.351 1_556 S
C1092 C1094 1.389 . S
C1093 H1072 0.955 . S
C1093 C1092 1.351 1_554 S
C1093 C1109 1.397 . S
C1094 C1092 1.389 . S
C1094 C1095 1.524 . S
C1094 C1108 1.397 . S
C1095 C1094 1.524 . S
C1095 C1096 1.397 . S
C1095 C1100 1.363 . S
C1096 H1073 0.950 1_556 S
C1096 C1095 1.397 . S
C1096 C1097 1.334 1_455 S
C1097 H1074 0.950 . S
C1097 C1096 1.334 1_655 S
C1097 C1098 1.287 1_655 S
C1098 C1097 1.287 1_455 S
C1098 C1099 1.524 . S
C1098 H1117 0.913 1_455 S
C1099 H1075 0.950 . S
C1099 C1098 1.524 . S
C1099 C1100 1.415 . S
C1100 H1076 0.950 . S
C1100 C1095 1.363 . S
C1100 C1099 1.415 . S
C1101 H1077 0.951 . S
C1101 C1102 1.366 . S
C1101 C1103 1.388 . S
C1102 C1101 1.366 . S
C1102 C1106 1.385 . S
C1103 H1078 0.951 . S
C1103 C1101 1.388 . S
C1103 C1104 1.366 . S
C1104 C1103 1.366 . S
C1104 C1105 1.414 . S
C1104 C1107 1.499 . S
C1105 H1079 0.950 1_554 S
C1105 C1104 1.414 . S
C1105 C1106 1.374 . S
C1106 H1080 0.950 . S
C1106 C1102 1.385 . S
C1106 C1105 1.374 . S
C1107 C1104 1.499 . S
C1107 C1108 1.351 1_554 S
C1107 C1109 1.389 . S
C1108 H1081 0.955 . S
C1108 C1094 1.397 . S
C1108 C1107 1.351 1_556 S
C1109 C1093 1.397 . S
C1109 C1107 1.389 . S
C1109 C1110 1.524 . S
C1110 C1109 1.524 . S
C1110 C1111 1.397 . S
C1110 C1115 1.363 . S
C1111 H1082 0.950 1_554 S
C1111 C1110 1.397 . S
C1111 C1112 1.334 . S
C1112 H1083 0.950 . S
C1112 C1111 1.334 . S
C1112 C1113 1.287 . S
C1113 C1112 1.287 . S
C1113 C1114 1.524 . S
C1113 H1116 0.999 . S
C1114 H1084 0.950 . S
C1114 C1113 1.524 . S
C1114 C1115 1.415 . S
C1115 H1085 0.950 . S
C1115 C1110 1.363 . S
C1115 C1114 1.415 . S
H1116 C1113 0.999 . S
H1117 C1098 0.913 1_655 S
H1118 C1136 0.951 . S
H1119 C1138 0.951 . S
H1120 C1140 0.950 . S
H1121 C1141 0.950 . S
H1122 C1143 0.950 . S
H1123 C1146 0.950 . S
H1124 C1147 0.950 . S
H1125 C1149 0.950 . S
H1126 C1150 0.950 . S
H1127 C1151 0.951 . S
H1128 C1153 0.951 . S
H1129 C1155 0.950 . S
H1130 C1156 0.950 . S
H1131 C1158 0.950 . S
H1132 C1161 0.950 . S
H1133 C1162 0.950 . S
H1134 C1164 0.950 . S
H1135 C1165 0.950 . S
C1136 H1118 0.951 . S
C1136 C1137 1.366 1_545 S
C1136 C1138 1.388 . S
C1137 C1136 1.366 1_565 S
C1137 C1141 1.385 . S
C1138 H1119 0.951 . S
C1138 C1136 1.388 . S
C1138 C1139 1.366 . S
C1139 C1138 1.366 . S
C1139 C1140 1.414 . S
C1139 C1142 1.499 . S
C1140 H1120 0.950 . S
C1140 C1139 1.414 . S
C1140 C1141 1.374 1_545 S
C1141 H1121 0.950 . S
C1141 C1137 1.385 . S
C1141 C1140 1.374 1_565 S
C1142 C1139 1.499 . S
C1142 C1143 1.373 . S
C1142 C1144 1.389 . S
C1143 H1122 0.950 . S
C1143 C1142 1.373 . S
C1143 C1159 1.377 . S
C1144 C1142 1.389 . S
C1144 C1145 1.524 . S
C1144 C1158 1.377 . S
C1145 C1144 1.524 . S
C1145 C1146 1.397 . S
C1145 C1150 1.363 . S
C1146 H1123 0.950 . S
C1146 C1145 1.397 . S
C1146 C1147 1.334 . S
C1147 H1124 0.950 . S
C1147 C1146 1.334 . S
C1147 C1148 1.287 . S
C1148 C1147 1.287 . S
C1148 C1149 1.524 . S
C1148 H1167 0.913 . S
C1149 H1125 0.950 . S
C1149 C1148 1.524 . S
C1149 C1150 1.415 . S
C1150 H1126 0.950 . S
C1150 C1145 1.363 . S
C1150 C1149 1.415 . S
C1151 H1127 0.951 . S
C1151 C1152 1.366 . S
C1151 C1153 1.388 1_455 S
C1152 C1151 1.366 . S
C1152 C1156 1.385 1_455 S
C1153 H1128 0.951 . S
C1153 C1151 1.388 1_655 S
C1153 C1154 1.366 . S
C1154 C1153 1.366 . S
C1154 C1155 1.414 . S
C1154 C1157 1.499 . S
C1155 H1129 0.950 . S
C1155 C1154 1.414 . S
C1155 C1156 1.374 . S
C1156 H1130 0.950 . S
C1156 C1152 1.385 1_655 S
C1156 C1155 1.374 . S
C1157 C1154 1.499 . S
C1157 C1158 1.373 . S
C1157 C1159 1.389 . S
C1158 H1131 0.950 . S
C1158 C1144 1.377 . S
C1158 C1157 1.373 . S
C1159 C1143 1.377 . S
C1159 C1157 1.389 . S
C1159 C1160 1.524 . S
C1160 C1159 1.524 . S
C1160 C1161 1.397 . S
C1160 C1165 1.363 . S
C1161 H1132 0.950 . S
C1161 C1160 1.397 . S
C1161 C1162 1.334 . S
C1162 H1133 0.950 . S
C1162 C1161 1.334 . S
C1162 C1163 1.287 . S
C1163 C1162 1.287 . S
C1163 C1164 1.524 . S
C1163 H1166 0.999 . S
C1164 H1134 0.950 . S
C1164 C1163 1.524 . S
C1164 C1165 1.415 . S
C1165 H1135 0.950 . S
C1165 C1160 1.363 . S
C1165 C1164 1.415 . S
H1166 C1163 0.999 . S
H1167 C1148 0.913 . S
H1168 C1186 0.951 . S
H1169 C1188 0.951 . S
H1170 C1190 0.950 . S
H1171 C1191 0.950 . S
H1172 C1193 0.950 . S
H1173 C1196 0.950 . S
H1174 C1197 0.950 . S
H1175 C1199 0.950 . S
H1176 C1200 0.950 . S
H1177 C1201 0.951 . S
H1178 C1203 0.951 . S
H1179 C1205 0.950 . S
H1180 C1206 0.950 . S
H1181 C1208 0.950 . S
H1182 C1211 0.950 . S
H1183 C1212 0.950 . S
H1184 C1214 0.950 1_545 S
H1185 C1215 0.950 . S
C1186 H1168 0.951 . S
C1186 C1187 1.366 . S
C1186 C1188 1.388 . S
C1187 C1186 1.366 . S
C1187 C1191 1.385 . S
C1188 H1169 0.951 . S
C1188 C1186 1.388 . S
C1188 C1189 1.366 . S
C1189 C1188 1.366 . S
C1189 C1190 1.414 . S
C1189 C1192 1.499 . S
C1190 H1170 0.950 . S
C1190 C1189 1.414 . S
C1190 C1191 1.374 . S
C1191 H1171 0.950 . S
C1191 C1187 1.385 . S
C1191 C1190 1.374 . S
C1192 C1189 1.499 . S
C1192 C1193 1.373 . S
C1192 C1194 1.389 . S
C1193 H1172 0.950 . S
C1193 C1192 1.373 . S
C1193 C1209 1.377 . S
C1194 C1192 1.389 . S
C1194 C1195 1.524 . S
C1194 C1208 1.377 . S
C1195 C1194 1.524 . S
C1195 C1196 1.397 . S
C1195 C1200 1.363 . S
C1196 H1173 0.950 . S
C1196 C1195 1.397 . S
C1196 C1197 1.334 . S
C1197 H1174 0.950 . S
C1197 C1196 1.334 . S
C1197 C1198 1.287 . S
C1198 C1197 1.287 . S
C1198 C1199 1.524 . S
C1198 H1217 0.913 . S
C1199 H1175 0.950 . S
C1199 C1198 1.524 . S
C1199 C1200 1.415 . S
C1200 H1176 0.950 . S
C1200 C1195 1.363 . S
C1200 C1199 1.415 . S
C1201 H1177 0.951 . S
C1201 C1202 1.366 . S
C1201 C1203 1.388 1_545 S
C1202 C1201 1.366 . S
C1202 C1206 1.385 1_545 S
C1203 H1178 0.951 . S
C1203 C1201 1.388 1_565 S
C1203 C1204 1.366 . S
C1204 C1203 1.366 . S
C1204 C1205 1.414 . S
C1204 C1207 1.499 . S
C1205 H1179 0.950 . S
C1205 C1204 1.414 . S
C1205 C1206 1.374 . S
C1206 H1180 0.950 . S
C1206 C1202 1.385 1_565 S
C1206 C1205 1.374 . S
C1207 C1204 1.499 . S
C1207 C1208 1.373 . S
C1207 C1209 1.389 . S
C1208 H1181 0.950 . S
C1208 C1194 1.377 . S
C1208 C1207 1.373 . S
C1209 C1193 1.377 . S
C1209 C1207 1.389 . S
C1209 C1210 1.524 . S
C1210 C1209 1.524 . S
C1210 C1211 1.397 . S
C1210 C1215 1.363 . S
C1211 H1182 0.950 . S
C1211 C1210 1.397 . S
C1211 C1212 1.334 1_565 S
C1212 H1183 0.950 . S
C1212 C1211 1.334 1_545 S
C1212 C1213 1.287 . S
C1213 C1212 1.287 . S
C1213 C1214 1.524 1_545 S
C1213 H1216 0.999 . S
C1214 H1184 0.950 1_565 S
C1214 C1213 1.524 1_565 S
C1214 C1215 1.415 . S
C1215 H1185 0.950 . S
C1215 C1210 1.363 . S
C1215 C1214 1.415 . S
H1216 C1213 0.999 . S
H1217 C1198 0.913 . S
H1218 C1236 0.951 . S
H1219 C1238 0.951 1_556 S
H1220 C1240 0.950 . S
H1221 C1241 0.950 . S
H1222 C1243 0.950 . S
H1223 C1246 0.950 . S
H1224 C1247 0.950 . S
H1225 C1249 0.950 . S
H1226 C1250 0.950 . S
H1227 C1251 0.951 . S
H1228 C1253 0.951 1_554 S
H1229 C1255 0.950 . S
H1230 C1256 0.950 . S
H1231 C1258 0.950 . S
H1232 C1261 0.950 . S
H1233 C1262 0.950 1_455 S
H1234 C1264 0.950 1_455 S
H1235 C1265 0.950 . S
C1236 H1218 0.951 . S
C1236 C1237 1.366 . S
C1236 C1238 1.388 . S
C1237 C1236 1.366 . S
C1237 C1241 1.385 . S
C1238 H1219 0.951 1_554 S
C1238 C1236 1.388 . S
C1238 C1239 1.366 . S
C1239 C1238 1.366 . S
C1239 C1240 1.414 . S
C1239 C1242 1.499 . S
C1240 H1220 0.950 . S
C1240 C1239 1.414 . S
C1240 C1241 1.374 . S
C1241 H1221 0.950 . S
C1241 C1237 1.385 . S
C1241 C1240 1.374 . S
C1242 C1239 1.499 . S
C1242 C1243 1.373 . S
C1242 C1244 1.392 . S
C1243 H1222 0.950 . S
C1243 C1242 1.373 . S
C1243 C1259 1.374 1_554 S
C1244 C1242 1.392 . S
C1244 C1245 1.524 . S
C1244 C1258 1.374 1_554 S
C1245 C1244 1.524 . S
C1245 C1246 1.449 . S
C1245 C1250 1.315 1_554 S
C1246 H1223 0.950 . S
C1246 C1245 1.449 . S
C1246 C1247 1.334 . S
C1247 H1224 0.950 . S
C1247 C1246 1.334 . S
C1247 C1248 1.287 . S
C1248 C1247 1.287 . S
C1248 C1249 1.524 1_554 S
C1248 H1267 0.913 . S
C1249 H1225 0.950 . S
C1249 C1248 1.524 1_556 S
C1249 C1250 1.415 . S
C1250 H1226 0.950 . S
C1250 C1245 1.315 1_556 S
C1250 C1249 1.415 . S
C1251 H1227 0.951 . S
C1251 C1252 1.366 . S
C1251 C1253 1.388 1_455 S
C1252 C1251 1.366 . S
C1252 C1256 1.385 1_455 S
C1253 H1228 0.951 1_556 S
C1253 C1251 1.388 1_655 S
C1253 C1254 1.366 . S
C1254 C1253 1.366 . S
C1254 C1255 1.414 . S
C1254 C1257 1.499 . S
C1255 H1229 0.950 . S
C1255 C1254 1.414 . S
C1255 C1256 1.374 . S
C1256 H1230 0.950 . S
C1256 C1252 1.385 1_655 S
C1256 C1255 1.374 . S
C1257 C1254 1.499 . S
C1257 C1258 1.373 . S
C1257 C1259 1.392 . S
C1258 H1231 0.950 . S
C1258 C1244 1.374 1_556 S
C1258 C1257 1.373 . S
C1259 C1243 1.374 1_556 S
C1259 C1257 1.392 . S
C1259 C1260 1.524 . S
C1260 C1259 1.524 . S
C1260 C1261 1.449 . S
C1260 C1265 1.315 1_556 S
C1261 H1232 0.950 . S
C1261 C1260 1.449 . S
C1261 C1262 1.334 . S
C1262 H1233 0.950 1_655 S
C1262 C1261 1.334 . S
C1262 C1263 1.287 1_655 S
C1263 C1262 1.287 1_455 S
C1263 C1264 1.524 1_456 S
C1263 H1266 0.999 . S
C1264 H1234 0.950 1_655 S
C1264 C1263 1.524 1_654 S
C1264 C1265 1.415 . S
C1265 H1235 0.950 . S
C1265 C1260 1.315 1_554 S
C1265 C1264 1.415 . S
H1266 C1263 0.999 . S
H1267 C1248 0.913 . S
H1268 C1286 0.951 . S
H1269 C1288 0.951 . S
H1270 C1290 0.950 . S
H1271 C1291 0.950 . S
H1272 C1293 0.950 . S
H1273 C1296 0.950 . S
H1274 C1297 0.950 . S
H1275 C1299 0.950 . S
H1276 C1300 0.950 . S
H1277 C1301 0.951 . S
H1278 C1303 0.951 . S
H1279 C1305 0.950 . S
H1280 C1306 0.950 . S
H1281 C1308 0.950 . S
H1282 C1311 0.950 . S
H1283 C1312 0.950 . S
H1284 C1314 0.950 . S
H1285 C1315 0.950 . S
C1286 H1268 0.951 . S
C1286 C1287 1.366 1_455 S
C1286 C1288 1.388 . S
C1287 C1286 1.366 1_655 S
C1287 C1291 1.385 . S
C1288 H1269 0.951 . S
C1288 C1286 1.388 . S
C1288 C1289 1.366 . S
C1289 C1288 1.366 . S
C1289 C1290 1.414 . S
C1289 C1292 1.499 . S
C1290 H1270 0.950 . S
C1290 C1289 1.414 . S
C1290 C1291 1.374 1_455 S
C1291 H1271 0.950 . S
C1291 C1287 1.385 . S
C1291 C1290 1.374 1_655 S
C1292 C1289 1.499 . S
C1292 C1293 1.373 . S
C1292 C1294 1.389 . S
C1293 H1272 0.950 . S
C1293 C1292 1.373 . S
C1293 C1309 1.377 . S
C1294 C1292 1.389 . S
C1294 C1295 1.524 . S
C1294 C1308 1.377 . S
C1295 C1294 1.524 . S
C1295 C1296 1.397 . S
C1295 C1300 1.363 . S
C1296 H1273 0.950 . S
C1296 C1295 1.397 . S
C1296 C1297 1.334 . S
C1297 H1274 0.950 . S
C1297 C1296 1.334 . S
C1297 C1298 1.287 . S
C1298 C1297 1.287 . S
C1298 C1299 1.524 . S
C1298 H1317 0.913 . S
C1299 H1275 0.950 . S
C1299 C1298 1.524 . S
C1299 C1300 1.415 . S
C1300 H1276 0.950 . S
C1300 C1295 1.363 . S
C1300 C1299 1.415 . S
C1301 H1277 0.951 . S
C1301 C1302 1.366 . S
C1301 C1303 1.388 1_545 S
C1302 C1301 1.366 . S
C1302 C1306 1.385 1_545 S
C1303 H1278 0.951 . S
C1303 C1301 1.388 1_565 S
C1303 C1304 1.366 . S
C1304 C1303 1.366 . S
C1304 C1305 1.414 . S
C1304 C1307 1.499 . S
C1305 H1279 0.950 . S
C1305 C1304 1.414 . S
C1305 C1306 1.374 . S
C1306 H1280 0.950 . S
C1306 C1302 1.385 1_565 S
C1306 C1305 1.374 . S
C1307 C1304 1.499 . S
C1307 C1308 1.373 . S
C1307 C1309 1.389 . S
C1308 H1281 0.950 . S
C1308 C1294 1.377 . S
C1308 C1307 1.373 . S
C1309 C1293 1.377 . S
C1309 C1307 1.389 . S
C1309 C1310 1.524 . S
C1310 C1309 1.524 . S
C1310 C1311 1.397 . S
C1310 C1315 1.363 . S
C1311 H1282 0.950 . S
C1311 C1310 1.397 . S
C1311 C1312 1.334 . S
C1312 H1283 0.950 . S
C1312 C1311 1.334 . S
C1312 C1313 1.287 . S
C1313 C1312 1.287 . S
C1313 C1314 1.524 . S
C1313 H1316 0.999 . S
C1314 H1284 0.950 . S
C1314 C1313 1.524 . S
C1314 C1315 1.415 . S
C1315 H1285 0.950 . S
C1315 C1310 1.363 . S
C1315 C1314 1.415 . S
H1316 C1313 0.999 . S
H1317 C1298 0.913 . S
H1318 C1336 0.951 1_565 S
H1319 C1338 0.951 . S
H1320 C1340 0.950 . S
H1321 C1341 0.950 1_565 S
H1322 C1343 0.950 . S
H1323 C1346 0.950 . S
H1324 C1347 0.950 . S
H1325 C1349 0.950 . S
H1326 C1350 0.950 . S
H1327 C1351 0.951 . S
H1328 C1353 0.951 . S
H1329 C1355 0.950 . S
H1330 C1356 0.950 . S
H1331 C1358 0.950 . S
H1332 C1361 0.950 . S
H1333 C1362 0.950 . S
H1334 C1364 0.950 . S
H1335 C1365 0.950 . S
C1336 H1318 0.951 1_545 S
C1336 C1337 1.366 1_545 S
C1336 C1338 1.388 . S
C1337 C1336 1.366 1_565 S
C1337 C1341 1.385 1_565 S
C1338 H1319 0.951 . S
C1338 C1336 1.388 . S
C1338 C1339 1.366 . S
C1339 C1338 1.366 . S
C1339 C1340 1.414 . S
C1339 C1342 1.499 . S
C1340 H1320 0.950 . S
C1340 C1339 1.414 . S
C1340 C1341 1.374 . S
C1341 H1321 0.950 1_545 S
C1341 C1337 1.385 1_545 S
C1341 C1340 1.374 . S
C1342 C1339 1.499 . S
C1342 C1343 1.373 . S
C1342 C1344 1.389 . S
C1343 H1322 0.950 . S
C1343 C1342 1.373 . S
C1343 C1359 1.377 . S
C1344 C1342 1.389 . S
C1344 C1345 1.524 . S
C1344 C1358 1.377 . S
C1345 C1344 1.524 . S
C1345 C1346 1.397 . S
C1345 C1350 1.363 . S
C1346 H1323 0.950 . S
C1346 C1345 1.397 . S
C1346 C1347 1.334 . S
C1347 H1324 0.950 . S
C1347 C1346 1.334 . S
C1347 C1348 1.287 . S
C1348 C1347 1.287 . S
C1348 C1349 1.524 . S
C1348 H1367 0.913 . S
C1349 H1325 0.950 . S
C1349 C1348 1.524 . S
C1349 C1350 1.415 . S
C1350 H1326 0.950 . S
C1350 C1345 1.363 . S
C1350 C1349 1.415 . S
C1351 H1327 0.951 . S
C1351 C1352 1.366 . S
C1351 C1353 1.388 . S
C1352 C1351 1.366 . S
C1352 C1356 1.385 . S
C1353 H1328 0.951 . S
C1353 C1351 1.388 . S
C1353 C1354 1.366 . S
C1354 C1353 1.366 . S
C1354 C1355 1.414 . S
C1354 C1357 1.499 . S
C1355 H1329 0.950 . S
C1355 C1354 1.414 . S
C1355 C1356 1.374 . S
C1356 H1330 0.950 . S
C1356 C1352 1.385 . S
C1356 C1355 1.374 . S
C1357 C1354 1.499 . S
C1357 C1358 1.373 . S
C1357 C1359 1.389 . S
C1358 H1331 0.950 . S
C1358 C1344 1.377 . S
C1358 C1357 1.373 . S
C1359 C1343 1.377 . S
C1359 C1357 1.389 . S
C1359 C1360 1.524 . S
C1360 C1359 1.524 . S
C1360 C1361 1.397 . S
C1360 C1365 1.363 . S
C1361 H1332 0.950 . S
C1361 C1360 1.397 . S
C1361 C1362 1.334 . S
C1362 H1333 0.950 . S
C1362 C1361 1.334 . S
C1362 C1363 1.287 . S
C1363 C1362 1.287 . S
C1363 C1364 1.524 . S
C1363 H1366 0.999 . S
C1364 H1334 0.950 . S
C1364 C1363 1.524 . S
C1364 C1365 1.415 . S
C1365 H1335 0.950 . S
C1365 C1360 1.363 . S
C1365 C1364 1.415 . S
H1366 C1363 0.999 . S
H1367 C1348 0.913 . S
C187 C47 1.191 . S
C202 C5 1.191 . S
C237 C19 1.193 . S
C252 C61 1.192 . S
C287 C75 1.193 . S
C302 C33 1.192 . S
C337 C89 1.191 . S
C352 C131 1.191 . S
C387 C145 1.193 . S
C402 C103 1.193 . S
C437 C117 1.192 . S
C452 C159 1.191 . S
C487 C123 1.530 . S
C502 C11 1.530 . S
C537 C25 1.529 . S
C552 C137 1.530 . S
C587 C39 1.530 . S
C602 C151 1.529 . S
C637 C53 1.530 . S
C652 C165 1.530 . S
C687 C95 1.530 . S
C702 C67 1.530 . S
C737 C109 1.530 . S
C752 C81 1.530 . S
C787 C110 0.684 . S
C802 C12 0.685 . S
C837 C26 0.686 . S
C852 C124 0.686 . S
C887 C40 0.686 . S
C902 C138 0.685 . S
C937 C54 0.686 . S
C952 C152 0.684 . S
C987 C166 0.684 . S
C1002 C68 0.684 . S
C1037 C82 0.685 . S
C1052 C96 0.686 . S
C1087 C144 1.239 . S
C1102 C4 1.237 . S
C1137 C158 1.238 . S
C1152 C18 1.238 . S
C1187 C88 1.238 . S
C1202 C32 1.239 . S
C1237 C46 1.237 . S
C1252 C102 1.239 . S
C1287 C60 1.238 . S
C1302 C116 1.238 . S
C1337 C74 1.237 . S
C1352 C130 1.239 . S
