# Generated by pormake.
# Topology wka, (5)-cn, num edge types: 1
# Building blocks:
#     Node 0, Type 0, BuildingBlock: BEQFEK_clean_sbu_0, # of connection points: 5
#     Node 1, Type 0, BuildingBlock: BEQFEK_clean_sbu_0, # of connection points: 5
#     Node 2, Type 0, BuildingBlock: BEQFEK_clean_sbu_0, # of connection points: 5
#     Node 3, Type 0, BuildingBlock: BEQFEK_clean_sbu_0, # of connection points: 5
#     Node 4, Type 0, BuildingBlock: BEQFEK_clean_sbu_0, # of connection points: 5
#     Node 5, Type 0, BuildingBlock: BEQFEK_clean_sbu_0, # of connection points: 5
#     Node 6, Type 0, BuildingBlock: BEQFEK_clean_sbu_0, # of connection points: 5
#     Node 7, Type 0, BuildingBlock: BEQFEK_clean_sbu_0, # of connection points: 5
#     Node 8, Type 0, BuildingBlock: BEQFEK_clean_sbu_0, # of connection points: 5
#     Node 9, Type 0, BuildingBlock: BEQFEK_clean_sbu_0, # of connection points: 5
#     Node 10, Type 0, BuildingBlock: BEQFEK_clean_sbu_0, # of connection points: 5
#     Node 11, Type 0, BuildingBlock: BEQFEK_clean_sbu_0, # of connection points: 5
#     Edge 12, Type (0, 0), BuildingBlock: KIFKEQ_clean_linker_1, # of connection points: 2
#     Edge 13, Type (0, 0), BuildingBlock: KIFKEQ_clean_linker_1, # of connection points: 2
#     Edge 14, Type (0, 0), BuildingBlock: KIFKEQ_clean_linker_1, # of connection points: 2
#     Edge 15, Type (0, 0), BuildingBlock: KIFKEQ_clean_linker_1, # of connection points: 2
#     Edge 16, Type (0, 0), BuildingBlock: KIFKEQ_clean_linker_1, # of connection points: 2
#     Edge 17, Type (0, 0), BuildingBlock: KIFKEQ_clean_linker_1, # of connection points: 2
#     Edge 18, Type (0, 0), BuildingBlock: KIFKEQ_clean_linker_1, # of connection points: 2
#     Edge 19, Type (0, 0), BuildingBlock: KIFKEQ_clean_linker_1, # of connection points: 2
#     Edge 20, Type (0, 0), BuildingBlock: KIFKEQ_clean_linker_1, # of connection points: 2
#     Edge 21, Type (0, 0), BuildingBlock: KIFKEQ_clean_linker_1, # of connection points: 2
#     Edge 22, Type (0, 0), BuildingBlock: KIFKEQ_clean_linker_1, # of connection points: 2
#     Edge 23, Type (0, 0), BuildingBlock: KIFKEQ_clean_linker_1, # of connection points: 2
#     Edge 24, Type (0, 0), BuildingBlock: KIFKEQ_clean_linker_1, # of connection points: 2
#     Edge 25, Type (0, 0), BuildingBlock: KIFKEQ_clean_linker_1, # of connection points: 2
#     Edge 26, Type (0, 0), BuildingBlock: KIFKEQ_clean_linker_1, # of connection points: 2
#     Edge 27, Type (0, 0), BuildingBlock: KIFKEQ_clean_linker_1, # of connection points: 2
#     Edge 28, Type (0, 0), BuildingBlock: KIFKEQ_clean_linker_1, # of connection points: 2
#     Edge 29, Type (0, 0), BuildingBlock: KIFKEQ_clean_linker_1, # of connection points: 2
#     Edge 30, Type (0, 0), BuildingBlock: KIFKEQ_clean_linker_1, # of connection points: 2
#     Edge 31, Type (0, 0), BuildingBlock: KIFKEQ_clean_linker_1, # of connection points: 2
#     Edge 32, Type (0, 0), BuildingBlock: KIFKEQ_clean_linker_1, # of connection points: 2
#     Edge 33, Type (0, 0), BuildingBlock: KIFKEQ_clean_linker_1, # of connection points: 2
#     Edge 34, Type (0, 0), BuildingBlock: KIFKEQ_clean_linker_1, # of connection points: 2
#     Edge 35, Type (0, 0), BuildingBlock: KIFKEQ_clean_linker_1, # of connection points: 2
#     Edge 36, Type (0, 0), BuildingBlock: KIFKEQ_clean_linker_1, # of connection points: 2
#     Edge 37, Type (0, 0), BuildingBlock: KIFKEQ_clean_linker_1, # of connection points: 2
#     Edge 38, Type (0, 0), BuildingBlock: KIFKEQ_clean_linker_1, # of connection points: 2
#     Edge 39, Type (0, 0), BuildingBlock: KIFKEQ_clean_linker_1, # of connection points: 2
#     Edge 40, Type (0, 0), BuildingBlock: KIFKEQ_clean_linker_1, # of connection points: 2
#     Edge 41, Type (0, 0), BuildingBlock: KIFKEQ_clean_linker_1, # of connection points: 2
# Relax obj value: 0.388
# Max RMSD: 0.233
# Mean RMSD: 0.233
data_MOF--net-wka--node1-BEQFEK_clean_sbu_0--edge1-KIFKEQ_clean_linker_1
_symmetry_space_group_name_H-M    P1
_symmetry_Int_Tables_number       1
_symmetry_cell_setting            triclinic
loop_
_symmetry_equiv_pos_as_xyz
'x, y, z'
_cell_length_a     69.244139
_cell_length_b     69.274422
_cell_length_c     18.004172
_cell_angle_alpha  89.985656
_cell_angle_beta   90.002079
_cell_angle_gamma 119.98473
loop_
_atom_site_label
_atom_site_type_symbol
_atom_site_fract_x
_atom_site_fract_y
_atom_site_fract_z
_atom_type_partial_charge
Co0 Co 0.1188 0.44944 0.96637 0.0
Co1 Co 0.09399 0.43804 0.11794 0.0
C2 C 0.06991 0.41466 0.98243 0.0
O3 O 0.08767 0.42681 0.94652 0.0
O4 O 0.06935 0.41628 0.05266 0.0
C5 C 0.12675 0.43071 0.84475 0.0
O6 O 0.11801 0.41369 0.89073 0.0
C7 C 0.07788 0.41611 0.263 0.0
C8 C 0.07827 0.44355 0.3266 0.0
C9 C 0.07515 0.42226 0.33408 0.0
N10 N 0.08316 0.43334 0.21696 0.0
N11 N 0.0827 0.44939 0.25495 0.0
C12 C 0.0745 0.39403 0.23776 0.0
H13 H 0.0896 0.3962 0.20907 0.0
H14 H 0.06994 0.38208 0.28443 0.0
H15 H 0.06087 0.38698 0.1961 0.0
C16 C 0.15077 0.44188 0.05199 0.0
N17 N 0.13103 0.44115 0.04568 0.0
N18 N 0.1212 0.43695 0.1111 0.0
C19 C 0.1349 0.43551 0.16163 0.0
C20 C 0.15371 0.43802 0.12551 0.0
C21 C 0.16689 0.44737 0.98928 0.0
H22 H 0.16887 0.46222 0.95907 0.0
H23 H 0.16009 0.43321 0.94976 0.0
H24 H 0.18338 0.45043 0.00872 0.0
O25 O 0.12058 0.47852 0.98787 0.0
O26 O 0.10117 0.46876 0.0929 0.0
H27 H 0.12332 0.44473 0.25906 0.0
H28 H 0.14912 0.44484 0.27143 0.0
C29 C 0.13253 0.43607 0.24416 0.0
H30 H 0.12372 0.41881 0.26581 0.0
H31 H 0.08657 0.46483 0.23286 0.0
O32 O 0.13247 0.44998 0.87015 0.0
C33 C 0.11191 0.48314 0.04267 0.0
Co34 Co 0.66829 0.12008 0.13081 0.0
Co35 Co 0.65693 0.09575 0.2836 0.0
C36 C 0.65262 0.07068 0.14812 0.0
O37 O 0.65729 0.08835 0.11329 0.0
O38 O 0.65299 0.07054 0.21872 0.0
C39 C 0.69429 0.12436 0.01459 0.0
O40 O 0.70083 0.1156 0.06669 0.0
C41 C 0.66411 0.08033 0.42833 0.0
C42 C 0.63698 0.07972 0.49436 0.0
C43 C 0.65548 0.0771 0.4998 0.0
N44 N 0.65162 0.08524 0.38353 0.0
N45 N 0.63504 0.08417 0.42301 0.0
C46 C 0.68354 0.07827 0.40241 0.0
H47 H 0.69001 0.08711 0.34884 0.0
H48 H 0.69696 0.08455 0.4447 0.0
H49 H 0.67785 0.06036 0.3935 0.0
C50 C 0.70921 0.15174 0.20988 0.0
N51 N 0.68997 0.13213 0.20671 0.0
N52 N 0.68544 0.12251 0.27249 0.0
C53 C 0.7017 0.13618 0.31997 0.0
C54 C 0.71744 0.15476 0.28155 0.0
C55 C 0.71875 0.16767 0.14618 0.0
H56 H 0.72617 0.16115 0.10579 0.0
H57 H 0.73194 0.18442 0.16435 0.0
H58 H 0.70526 0.16897 0.11746 0.0
O59 O 0.64234 0.12352 0.15653 0.0
O60 O 0.63356 0.10373 0.26104 0.0
H61 H 0.70965 0.15035 0.43008 0.0
H62 H 0.70929 0.12455 0.41858 0.0
C63 C 0.70075 0.13382 0.40253 0.0
H64 H 0.68328 0.12505 0.42214 0.0
H65 H 0.62304 0.08761 0.40212 0.0
O66 O 0.68147 0.13184 0.03252 0.0
C67 C 0.62966 0.11487 0.2128 0.0
Co68 Co 0.54906 0.66808 0.30215 0.0
Co69 Co 0.56382 0.65636 0.4504 0.0
C70 C 0.58532 0.65506 0.31407 0.0
O71 O 0.57149 0.65914 0.28154 0.0
O72 O 0.58611 0.65473 0.38468 0.0
C73 C 0.56697 0.69421 0.17872 0.0
O74 O 0.58405 0.70358 0.2243 0.0
C75 C 0.58459 0.65957 0.59778 0.0
C76 C 0.55475 0.63537 0.66001 0.0
C77 C 0.57705 0.6511 0.6686 0.0
N78 N 0.56725 0.64972 0.55053 0.0
N79 N 0.54967 0.63483 0.58793 0.0
C80 C 0.608 0.67563 0.57431 0.0
H81 H 0.60816 0.68299 0.51937 0.0
H82 H 0.61684 0.68889 0.61622 0.0
H83 H 0.61723 0.66642 0.56908 0.0
C84 C 0.55652 0.70754 0.3877 0.0
N85 N 0.55785 0.6889 0.38027 0.0
N86 N 0.56406 0.68424 0.44376 0.0
C87 C 0.56677 0.69992 0.49397 0.0
C88 C 0.56212 0.71519 0.46006 0.0
C89 C 0.54776 0.71638 0.32879 0.0
H90 H 0.53503 0.70247 0.29484 0.0
H91 H 0.5617 0.72761 0.29174 0.0
H92 H 0.54041 0.72595 0.35337 0.0
O93 O 0.52038 0.6412 0.3263 0.0
O94 O 0.53352 0.63173 0.42363 0.0
H95 H 0.56188 0.6842 0.60017 0.0
H96 H 0.57404 0.7141 0.60529 0.0
C97 C 0.57353 0.70025 0.57307 0.0
H98 H 0.59051 0.70262 0.57404 0.0
H99 H 0.53382 0.6251 0.56512 0.0
O100 O 0.5479 0.68052 0.20527 0.0
C101 C 0.51784 0.62761 0.37812 0.0
Co102 Co 0.8838 0.55104 0.4748 0.0
Co103 Co 0.90837 0.56284 0.62713 0.0
C104 C 0.93304 0.58562 0.49279 0.0
O105 O 0.91523 0.57345 0.45702 0.0
O106 O 0.93355 0.58434 0.56322 0.0
C107 C 0.87643 0.57049 0.35401 0.0
O108 O 0.88463 0.58713 0.40148 0.0
C109 C 0.92584 0.58403 0.77327 0.0
C110 C 0.91892 0.55435 0.83903 0.0
C111 C 0.92638 0.57692 0.84506 0.0
N112 N 0.91784 0.56627 0.72779 0.0
N113 N 0.91432 0.54874 0.76729 0.0
C114 C 0.93379 0.60735 0.74731 0.0
H115 H 0.92606 0.60723 0.69316 0.0
H116 H 0.93042 0.61706 0.78896 0.0
H117 H 0.95212 0.61582 0.7393 0.0
C118 C 0.85164 0.55861 0.55905 0.0
N119 N 0.87141 0.5594 0.55312 0.0
N120 N 0.88166 0.56474 0.6178 0.0
C121 C 0.86849 0.56743 0.66724 0.0
C122 C 0.84908 0.56367 0.63159 0.0
C123 C 0.83457 0.55068 0.49849 0.0
H124 H 0.83563 0.53796 0.46413 0.0
H125 H 0.83797 0.565 0.46226 0.0
H126 H 0.81748 0.54356 0.52146 0.0
O127 O 0.88155 0.52189 0.49623 0.0
O128 O 0.90081 0.53194 0.60147 0.0
H129 H 0.87788 0.56096 0.77375 0.0
H130 H 0.86075 0.57384 0.77862 0.0
C131 C 0.87419 0.57321 0.74733 0.0
H132 H 0.88909 0.58996 0.75078 0.0
H133 H 0.90761 0.53266 0.74609 0.0
O134 O 0.87079 0.55109 0.37789 0.0
C135 C 0.89012 0.51742 0.55157 0.0
Co136 Co 0.33132 0.88165 0.64153 0.0
Co137 Co 0.34502 0.90732 0.79136 0.0
C138 C 0.34689 0.931 0.65391 0.0
O139 O 0.34145 0.91302 0.61971 0.0
O140 O 0.34796 0.93173 0.72447 0.0
C141 C 0.30533 0.87454 0.51872 0.0
O142 O 0.29752 0.88395 0.56379 0.0
C143 C 0.33957 0.92386 0.93641 0.0
C144 C 0.36712 0.92404 -0.00127 0.0
C145 C 0.34877 0.92683 0.00712 0.0
N146 N 0.35149 0.91868 0.88982 0.0
N147 N 0.36832 0.91952 0.92703 0.0
C148 C 0.32062 0.92696 0.91202 0.0
H149 H 0.30722 0.91143 0.88689 0.0
H150 H 0.31393 0.93238 0.95852 0.0
H151 H 0.32664 0.93982 0.86771 0.0
C152 C 0.29124 0.85097 0.72791 0.0
N153 N 0.31055 0.87039 0.72073 0.0
N154 N 0.31658 0.88036 0.78583 0.0
C155 C 0.30157 0.86698 0.83714 0.0
C156 C 0.28479 0.84831 0.80187 0.0
C157 C 0.28 0.83493 0.66545 0.0
H158 H 0.29209 0.8311 0.63833 0.0
H159 H 0.27447 0.8428 0.62334 0.0
H160 H 0.26521 0.8193 0.68429 0.0
O161 O 0.35787 0.87881 0.66498 0.0
O162 O 0.36823 0.89947 0.76734 0.0
H163 H 0.32319 0.87865 0.93276 0.0
H164 H 0.29794 0.85255 0.94603 0.0
C165 C 0.30521 0.8692 0.91944 0.0
H166 H 0.29662 0.8776 0.94333 0.0
H167 H 0.37995 0.91582 0.90442 0.0
O168 O 0.31814 0.86802 0.54524 0.0
C169 C 0.37138 0.8879 0.71898 0.0
Co170 Co 0.44965 0.33267 0.80016 0.0
Co171 Co 0.43849 0.34434 0.95546 0.0
C172 C 0.41491 0.34668 0.82331 0.0
O173 O 0.42707 0.34156 0.78528 0.0
O174 O 0.41658 0.34802 0.89364 0.0
C175 C 0.42852 0.30567 0.684 0.0
O176 O 0.41298 0.29858 0.73544 0.0
C177 C 0.41601 0.33651 0.09979 0.0
C178 C 0.44251 0.36297 0.16783 0.0
C179 C 0.42127 0.34458 0.17188 0.0
N180 N 0.43356 0.3492 0.05593 0.0
N181 N 0.4491 0.36537 0.09659 0.0
C182 C 0.39455 0.31736 0.07232 0.0
H183 H 0.3972 0.31089 0.01918 0.0
H184 H 0.38688 0.30385 0.11415 0.0
H185 H 0.38266 0.32338 0.06189 0.0
C186 C 0.44245 0.29231 0.87937 0.0
N187 N 0.44179 0.31143 0.87671 0.0
N188 N 0.43725 0.31607 0.94318 0.0
C189 C 0.43528 0.30001 0.99049 0.0
C190 C 0.43801 0.2843 0.95146 0.0
C191 C 0.44796 0.28246 0.81438 0.0
H192 H 0.46205 0.29583 0.78272 0.0
H193 H 0.43329 0.2744 0.77703 0.0
H194 H 0.4522 0.26967 0.83163 0.0
O195 O 0.4788 0.35968 0.82272 0.0
O196 O 0.46927 0.36809 0.93085 0.0
H197 H 0.44168 0.29197 0.10023 0.0
H198 H 0.41625 0.29244 0.08927 0.0
C199 C 0.43404 0.30092 0.07309 0.0
H200 H 0.44278 0.31837 0.09284 0.0
H201 H 0.46466 0.37739 0.07648 0.0
O202 O 0.44854 0.31951 0.70228 0.0
C203 C 0.48353 0.3723 0.8795 0.0
Co204 Co 0.54871 0.88087 0.86006 0.0
Co205 Co 0.56146 0.9052 0.70722 0.0
C206 C 0.58254 0.93023 0.84256 0.0
O207 O 0.56959 0.91256 0.8775 0.0
O208 O 0.58287 0.93038 0.77194 0.0
C209 C 0.57042 0.87648 0.9762 0.0
O210 O 0.58574 0.88523 0.92416 0.0
C211 C 0.58401 0.92057 0.56244 0.0
C212 C 0.5575 0.92124 0.49645 0.0
C213 C 0.5786 0.92379 0.49095 0.0
N214 N 0.56663 0.91571 0.60728 0.0
N215 N 0.55112 0.91681 0.56782 0.0
C216 C 0.60547 0.92254 0.58833 0.0
H217 H 0.60304 0.9136 0.64173 0.0
H218 H 0.61262 0.91632 0.54592 0.0
H219 H 0.61769 0.94043 0.59762 0.0
C220 C 0.55766 0.84908 0.7803 0.0
N221 N 0.55812 0.86873 0.78379 0.0
N222 N 0.56309 0.87835 0.718 0.0
C223 C 0.56548 0.86463 0.67019 0.0
C224 C 0.56265 0.84601 0.70835 0.0
C225 C 0.55139 0.83317 0.84401 0.0
H226 H 0.53655 0.83174 0.87274 0.0
H227 H 0.56534 0.8398 0.88439 0.0
H228 H 0.54798 0.81646 0.82588 0.0
O229 O 0.51937 0.87762 0.83495 0.0
O230 O 0.53018 0.89738 0.73033 0.0
H231 H 0.55894 0.85049 0.56 0.0
H232 H 0.5845 0.8762 0.57126 0.0
C233 C 0.56672 0.86702 0.58764 0.0
H234 H 0.55807 0.87587 0.56848 0.0
H235 H 0.53569 0.9134 0.58875 0.0
O236 O 0.55012 0.86903 0.9582 0.0
C237 C 0.51525 0.8863 0.77893 0.0
Co238 Co 0.66794 0.54962 0.02014 0.0
Co239 Co 0.65669 0.56257 0.86716 0.0
C240 C 0.65315 0.58405 0.00202 0.0
O241 O 0.65761 0.57092 0.03705 0.0
O242 O 0.65329 0.58431 0.9314 0.0
C243 C 0.69419 0.57115 0.13624 0.0
O244 O 0.70094 0.58646 0.08415 0.0
C245 C 0.66404 0.58509 0.72234 0.0
C246 C 0.63693 0.55863 0.65615 0.0
C247 C 0.65547 0.57971 0.6508 0.0
N248 N 0.65147 0.56772 0.7671 0.0
N249 N 0.63491 0.55224 0.72752 0.0
C250 C 0.68352 0.60651 0.74834 0.0
H251 H 0.68996 0.60407 0.80189 0.0
H252 H 0.69695 0.61362 0.70608 0.0
H253 H 0.67789 0.61878 0.75736 0.0
C254 C 0.70859 0.55807 0.94082 0.0
N255 N 0.68947 0.55869 0.94398 0.0
N256 N 0.685 0.56382 0.87816 0.0
C257 C 0.70119 0.56619 0.83067 0.0
C258 C 0.7168 0.56314 0.8691 0.0
C259 C 0.71807 0.55168 0.0047 0.0
H260 H 0.72577 0.56576 0.04449 0.0
H261 H 0.73105 0.54779 0.98657 0.0
H262 H 0.70452 0.53712 0.03407 0.0
O263 O 0.6416 0.52046 0.99528 0.0
O264 O 0.6329 0.53146 0.89061 0.0
H265 H 0.7092 0.5601 0.72047 0.0
H266 H 0.70892 0.58557 0.73243 0.0
C267 C 0.70032 0.56775 0.74814 0.0
H268 H 0.68287 0.55916 0.72838 0.0
H269 H 0.62286 0.53681 0.74837 0.0
O270 O 0.68109 0.5509 0.11836 0.0
C271 C 0.62883 0.5165 0.93931 0.0
Co272 Co 0.11929 0.66678 0.19553 0.0
Co273 Co 0.09625 0.65742 0.03894 0.0
C274 C 0.07056 0.65276 0.17577 0.0
O275 O 0.08799 0.65775 0.21274 0.0
O276 O 0.07069 0.65203 0.10517 0.0
C277 C 0.12547 0.69032 0.32292 0.0
O278 O 0.11697 0.69904 0.27777 0.0
C279 C 0.07777 0.66732 0.91512 0.0
C280 C 0.08051 0.65511 0.90733 0.0
C281 C 0.06925 0.66117 0.84765 0.0
N282 N 0.08572 0.65476 0.93765 0.0
N283 N 0.0879 0.64078 0.89134 0.0
C284 C 0.07511 0.68522 0.96336 0.0
H285 H 0.05754 0.67776 0.98215 0.0
H286 H 0.08614 0.69031 0.0128 0.0
H287 H 0.07899 0.69998 0.92866 0.0
C288 C 0.15155 0.70896 0.12234 0.0
N289 N 0.1321 0.68951 0.1232 0.0
N290 N 0.12272 0.68577 0.0571 0.0
C291 C 0.13624 0.70275 0.01187 0.0
C292 C 0.1547 0.71811 0.05183 0.0
C293 C 0.16715 0.71792 0.18707 0.0
H294 H 0.16873 0.7043 0.21345 0.0
H295 H 0.16013 0.72447 0.22887 0.0
H296 H 0.18383 0.73166 0.17071 0.0
O297 O 0.1214 0.64039 0.16397 0.0
O298 O 0.10376 0.63353 0.05556 0.0
H299 H 0.13064 0.68536 0.91074 0.0
H300 H 0.14953 0.71485 0.90176 0.0
C301 C 0.1341 0.70201 0.92938 0.0
H302 H 0.12016 0.70461 0.91302 0.0
H303 H 0.09541 0.63312 0.91952 0.0
O304 O 0.13152 0.67718 0.296 0.0
C305 C 0.11383 0.62871 0.1051 0.0
Co306 Co 0.45116 0.12013 0.35781 0.0
Co307 Co 0.43872 0.09455 0.20779 0.0
C308 C 0.41716 0.07083 0.34531 0.0
O309 O 0.42987 0.08876 0.37947 0.0
O310 O 0.41731 0.07013 0.27473 0.0
C311 C 0.43237 0.12733 0.48052 0.0
O312 O 0.41522 0.11813 0.43513 0.0
C313 C 0.41655 0.0781 0.06287 0.0
C314 C 0.44379 0.0778 0.00016 0.0
C315 C 0.42266 0.07505 0.99208 0.0
N316 N 0.4337 0.08327 0.10922 0.0
N317 N 0.44961 0.08235 0.07177 0.0
C318 C 0.39453 0.075 0.08764 0.0
H319 H 0.38715 0.06118 0.12858 0.0
H320 H 0.39685 0.09005 0.11709 0.0
H321 H 0.38274 0.07082 0.04066 0.0
C322 C 0.44189 0.15106 0.27261 0.0
N323 N 0.4416 0.13154 0.27923 0.0
N324 N 0.43734 0.12156 0.21408 0.0
C325 C 0.43558 0.135 0.1633 0.0
C326 C 0.43782 0.15375 0.19901 0.0
C327 C 0.4471 0.16715 0.3352 0.0
H328 H 0.46279 0.1704 0.36271 0.0
H329 H 0.43356 0.1596 0.37696 0.0
H330 H 0.44857 0.18306 0.31641 0.0
O331 O 0.48046 0.12293 0.33356 0.0
O332 O 0.46982 0.10234 0.23106 0.0
H333 H 0.44496 0.1233 0.06647 0.0
H334 H 0.44539 0.14922 0.05369 0.0
C335 C 0.43638 0.13263 0.08084 0.0
H336 H 0.41919 0.12399 0.05856 0.0
H337 H 0.46495 0.086 0.09417 0.0
O338 O 0.45171 0.13368 0.45434 0.0
C339 C 0.48469 0.11384 0.27911 0.0
Co340 Co 0.333 0.45144 0.52504 0.0
Co341 Co 0.34504 0.43812 0.37463 0.0
C342 C 0.34563 0.4151 0.50885 0.0
O343 O 0.34107 0.42822 0.54384 0.0
O344 O 0.34702 0.41574 0.43832 0.0
C345 C 0.3064 0.4332 0.64724 0.0
O346 O 0.29717 0.41629 0.60095 0.0
C347 C 0.34161 0.41741 0.22774 0.0
C348 C 0.36522 0.44722 0.16414 0.0
C349 C 0.34975 0.4248 0.15659 0.0
N350 N 0.35141 0.4349 0.27428 0.0
N351 N 0.36594 0.4525 0.23611 0.0
C352 C 0.32585 0.39402 0.25221 0.0
H353 H 0.31838 0.39396 0.30683 0.0
H354 H 0.31265 0.38481 0.2104 0.0
H355 H 0.33535 0.38512 0.25859 0.0
C356 C 0.29369 0.4448 0.4402 0.0
N357 N 0.31239 0.44353 0.44667 0.0
N358 N 0.31706 0.4377 0.3825 0.0
C359 C 0.30128 0.4351 0.33284 0.0
C360 C 0.28595 0.43949 0.36782 0.0
C361 C 0.28483 0.45319 0.50022 0.0
H362 H 0.29872 0.46573 0.53468 0.0
H363 H 0.27358 0.43903 0.53649 0.0
H364 H 0.27527 0.46069 0.47667 0.0
O365 O 0.36032 0.48014 0.50306 0.0
O366 O 0.36962 0.4682 0.40231 0.0
H367 H 0.31672 0.44035 0.22598 0.0
H368 H 0.28672 0.42773 0.22203 0.0
C369 C 0.30081 0.42849 0.25349 0.0
H370 H 0.29878 0.41164 0.25196 0.0
H371 H 0.37553 0.46843 0.25841 0.0
O372 O 0.32037 0.4523 0.62173 0.0
C373 C 0.37382 0.4833 0.45022 0.0
Co374 Co 0.88425 0.33273 0.68011 0.0
Co375 Co 0.90895 0.34564 0.52816 0.0
C376 C 0.93335 0.34675 0.66228 0.0
O377 O 0.91556 0.34123 0.69806 0.0
O378 O 0.93395 0.34881 0.59194 0.0
C379 C 0.87646 0.30598 0.80169 0.0
O380 O 0.88448 0.29718 0.75497 0.0
C381 C 0.92655 0.34212 0.38207 0.0
C382 C 0.9198 0.36507 0.31673 0.0
C383 C 0.9272 0.34992 0.31043 0.0
N384 N 0.91853 0.35183 0.42769 0.0
N385 N 0.91511 0.36595 0.38846 0.0
C386 C 0.93441 0.32664 0.4078 0.0
H387 H 0.92645 0.3188 0.46146 0.0
H388 H 0.93124 0.31374 0.36565 0.0
H389 H 0.95269 0.33647 0.41677 0.0
C390 C 0.85196 0.29328 0.59505 0.0
N391 N 0.87176 0.31217 0.60141 0.0
N392 N 0.88208 0.31716 0.53683 0.0
C393 C 0.86892 0.30145 0.48703 0.0
C394 C 0.84944 0.28581 0.52232 0.0
C395 C 0.83484 0.28406 0.65547 0.0
H396 H 0.8359 0.29779 0.69012 0.0
H397 H 0.83819 0.27306 0.69147 0.0
H398 H 0.81776 0.27417 0.63235 0.0
O399 O 0.88229 0.35982 0.65918 0.0
O400 O 0.90168 0.36917 0.55424 0.0
H401 H 0.8785 0.31747 0.38083 0.0
H402 H 0.86132 0.2875 0.37539 0.0
C403 C 0.87472 0.30148 0.40698 0.0
H404 H 0.88961 0.29959 0.40361 0.0
H405 H 0.90841 0.37532 0.40981 0.0
O406 O 0.87099 0.31978 0.77682 0.0
C407 C 0.891 0.37298 0.60422 0.0
H408 H 0.10324 0.60248 0.98127 0.0
H409 H 0.13015 0.60995 0.20289 0.0
H410 H 0.10516 0.5686 0.9647 0.0
H411 H 0.13227 0.57611 0.18567 0.0
H412 H 0.10145 0.50008 0.16266 0.0
H413 H 0.10435 0.53626 0.17575 0.0
H414 H 0.13121 0.55381 0.95375 0.0
H415 H 0.12811 0.51718 0.94003 0.0
C416 C 0.10974 0.59702 0.02632 0.0
C417 C 0.11635 0.60886 0.09378 0.0
C418 C 0.111 0.57768 0.01646 0.0
C419 C 0.11879 0.56963 0.07391 0.0
C420 C 0.12595 0.58176 0.14066 0.0
C421 C 0.1248 0.6012 0.15043 0.0
C422 C 0.10803 0.51158 0.11644 0.0
C423 C 0.11443 0.50561 0.05004 0.0
C424 C 0.10988 0.53246 0.12434 0.0
C425 C 0.11809 0.54795 0.06597 0.0
C426 C 0.12469 0.54215 -0.00041 0.0
C427 C 0.12298 0.52121 0.99183 0.0
H428 H 0.51929 0.13048 0.37937 0.0
H429 H 0.50126 0.10374 0.15719 0.0
H430 H 0.55588 0.13362 0.36357 0.0
H431 H 0.53745 0.10667 0.142 0.0
H432 H 0.61131 0.13151 0.11429 0.0
H433 H 0.57767 0.13414 0.13129 0.0
H434 H 0.56973 0.10691 0.35227 0.0
H435 H 0.60328 0.10448 0.33589 0.0
C436 C 0.52313 0.12538 0.32717 0.0
C437 C 0.50725 0.11669 0.26983 0.0
C438 C 0.54404 0.12711 0.31821 0.0
C439 C 0.54954 0.1204 0.25148 0.0
C440 C 0.53385 0.11223 0.1937 0.0
C441 C 0.51297 0.11035 0.20282 0.0
C442 C 0.60248 0.12625 0.16667 0.0
C443 C 0.60992 0.1176 0.22341 0.0
C444 C 0.58318 0.12768 0.17632 0.0
C445 C 0.57103 0.12069 0.24311 0.0
C446 C 0.57884 0.11266 0.3005 0.0
C447 C 0.59799 0.11108 0.29072 0.0
H448 H 0.38304 0.52455 0.49973 0.0
H449 H 0.41186 0.49064 0.38207 0.0
H450 H 0.41764 0.56023 0.48061 0.0
H451 H 0.4463 0.52601 0.36481 0.0
H452 H 0.511 0.58961 0.44543 0.0
H453 H 0.47574 0.55513 0.46431 0.0
H454 H 0.44068 0.5838 0.35391 0.0
H455 H 0.4762 0.61842 0.33318 0.0
C456 C 0.39678 0.5247 0.47043 0.0
C457 C 0.39478 0.50483 0.44252 0.0
C458 C 0.41643 0.54506 0.45906 0.0
C459 C 0.4345 0.54574 0.42119 0.0
C460 C 0.43258 0.52586 0.39429 0.0
C461 C 0.41287 0.50566 0.40417 0.0
C462 C 0.49581 0.5886 0.42495 0.0
C463 C 0.49636 0.60669 0.38749 0.0
C464 C 0.47567 0.56887 0.43579 0.0
C465 C 0.45561 0.56695 0.41079 0.0
C466 C 0.456 0.58503 0.37406 0.0
C467 C 0.47627 0.60469 0.36173 0.0
H468 H 0.87391 0.39026 0.7053 0.0
H469 H 0.90263 0.40112 0.48546 0.0
H470 H 0.87107 0.42392 0.69212 0.0
H471 H 0.89983 0.43452 0.47274 0.0
H472 H 0.87427 0.48344 0.44919 0.0
H473 H 0.87195 0.44717 0.46235 0.0
H474 H 0.89836 0.46463 0.68483 0.0
H475 H 0.90062 0.50059 0.67213 0.0
C476 C 0.87952 0.39972 0.65416 0.0
C477 C 0.8886 0.393 0.59665 0.0
C478 C 0.87793 0.419 0.64668 0.0
C479 C 0.88519 0.43182 0.58128 0.0
C480 C 0.89383 0.42485 0.52336 0.0
C481 C 0.89559 0.40575 0.53104 0.0
C482 C 0.87944 0.47947 0.50103 0.0
C483 C 0.88775 0.49502 0.55939 0.0
C484 C 0.87817 0.45874 0.50849 0.0
C485 C 0.88496 0.45307 0.57468 0.0
C486 C 0.89274 0.46839 0.63351 0.0
C487 C 0.8942 0.48912 0.62587 0.0
H488 H 0.3985 0.89808 0.83974 0.0
H489 H 0.38893 0.87113 0.61762 0.0
H490 H 0.43177 0.89508 0.85332 0.0
H491 H 0.42239 0.86793 0.6318 0.0
H492 H 0.49902 0.8968 0.65666 0.0
H493 H 0.46307 0.89457 0.64175 0.0
H494 H 0.44435 0.86745 0.86306 0.0
H495 H 0.48057 0.86987 0.87857 0.0
C496 C 0.40342 0.89141 0.79379 0.0
C497 C 0.3911 0.88502 0.72728 0.0
C498 C 0.42242 0.88949 0.80198 0.0
C499 C 0.42971 0.88124 0.74374 0.0
C500 C 0.41726 0.87451 0.6775 0.0
C501 C 0.39806 0.87626 0.66947 0.0
C502 C 0.48725 0.89026 0.7022 0.0
C503 C 0.4928 0.8837 0.76916 0.0
C504 C 0.46654 0.8888 0.69327 0.0
C505 C 0.45088 0.88086 0.7512 0.0
C506 C 0.45618 0.87383 0.81764 0.0
C507 C 0.47689 0.87515 0.82643 0.0
H508 H 0.60132 0.50093 0.81864 0.0
H509 H 0.61095 0.48143 0.03748 0.0
H510 H 0.56755 0.46508 0.80362 0.0
H511 H 0.5771 0.4453 0.0218 0.0
H512 H 0.50075 0.39878 0.00163 0.0
H513 H 0.53684 0.43227 0.01509 0.0
H514 H 0.55372 0.42468 0.79021 0.0
H515 H 0.51726 0.39103 0.77613 0.0
C516 C 0.59634 0.48896 0.86348 0.0
C517 C 0.60881 0.49418 0.9296 0.0
C518 C 0.57704 0.4683 0.85447 0.0
C519 C 0.56964 0.45235 0.91147 0.0
C520 C 0.58228 0.45735 0.97712 0.0
C521 C 0.60171 0.47802 0.986 0.0
C522 C 0.51211 0.40414 0.9549 0.0
C523 C 0.50599 0.39225 0.88751 0.0
C524 C 0.53292 0.42327 0.96299 0.0
C525 C 0.54815 0.43112 0.90382 0.0
C526 C 0.54223 0.41912 0.83665 0.0
C527 C 0.52139 0.39982 0.82866 0.0
H528 H 0.06766 0.39862 0.8428 0.0
H529 H 0.02623 0.39746 0.02404 0.0
H530 H 0.03488 0.37857 0.76474 0.0
H531 H 0.99339 0.37813 0.94503 0.0
H532 H 0.9354 0.33311 0.80236 0.0
H533 H 0.96812 0.34562 0.88058 0.0
H534 H 0.00988 0.38615 0.69991 0.0
H535 H 0.97708 0.37286 0.62075 0.0
C536 C 0.05148 0.39393 0.86617 0.0
C537 C 0.04955 0.39976 0.93956 0.0
C538 C 0.03267 0.38258 0.8211 0.0
C539 C 0.01142 0.37696 0.84788 0.0
C540 C 0.0094 0.38194 0.92248 0.0
C541 C 0.02825 0.39309 0.96795 0.0
C542 C 0.95162 0.34445 0.77895 0.0
C543 C 0.95365 0.35212 0.7054 0.0
C544 C 0.9704 0.35177 0.82411 0.0
C545 C 0.99171 0.36718 0.79725 0.0
C546 C 0.99381 0.37411 0.72253 0.0
C547 C 0.975 0.36655 0.67698 0.0
H548 H 0.61571 0.97141 0.79425 0.0
H549 H 0.58092 0.93533 0.99181 0.0
H550 H 0.63664 0.00514 0.86864 0.0
H551 H 0.60061 0.96887 0.06466 0.0
H552 H 0.64536 0.0297 0.19577 0.0
H553 H 0.6327 0.99602 0.12122 0.0
H554 H 0.63131 0.03188 0.92637 0.0
H555 H 0.64502 0.0654 -0.00069 0.0
C556 C 0.61251 0.97067 0.85336 0.0
C557 C 0.59646 0.95071 0.88665 0.0
C558 C 0.6244 0.99004 0.89616 0.0
C559 C 0.62025 0.98995 0.97301 0.0
C560 C 0.60465 0.96973 0.00623 0.0
C561 C 0.59308 0.95041 0.96388 0.0
C562 C 0.64255 0.03036 0.13688 0.0
C563 C 0.646 0.05021 0.10394 0.0
C564 C 0.63516 0.01102 0.09399 0.0
C565 C 0.63071 0.01101 0.01742 0.0
C566 C 0.63482 0.03111 0.98454 0.0
C567 C 0.64249 0.05041 0.02696 0.0
H568 H 0.58235 0.64806 0.16463 0.0
H569 H 0.62005 0.64889 0.35713 0.0
H570 H 0.60172 0.63432 0.08911 0.0
H571 H 0.6406 0.63628 0.28005 0.0
H572 H 0.64747 0.58327 0.15162 0.0
H573 H 0.63454 0.60366 0.2249 0.0
H574 H 0.63319 0.63883 0.02814 0.0
H575 H 0.64513 0.61722 0.95332 0.0
C576 C 0.59512 0.64571 0.19075 0.0
C577 C 0.59937 0.64925 0.26749 0.0
C578 C 0.60647 0.638 0.14689 0.0
C579 C 0.62269 0.63391 0.1781 0.0
C580 C 0.62783 0.63866 0.25417 0.0
C581 C 0.61617 0.64605 0.29848 0.0
C582 C 0.64452 0.59539 0.12358 0.0
C583 C 0.64706 0.59835 0.04608 0.0
C584 C 0.63731 0.60738 0.16617 0.0
C585 C 0.63268 0.62298 0.13295 0.0
C586 C 0.63612 0.62665 0.05571 0.0
C587 C 0.6431 0.61436 0.01268 0.0
H588 H 0.93554 0.60078 0.35157 0.0
H589 H 0.97662 0.6027 0.53515 0.0
H590 H 0.96844 0.62021 0.27355 0.0
H591 H 0.00957 0.62141 0.45632 0.0
H592 H 0.02699 0.62617 0.13251 0.0
H593 H 0.99382 0.61273 0.21039 0.0
H594 H 0.03481 0.6537 0.39159 0.0
H595 H 0.06781 0.66627 0.31492 0.0
C596 C 0.95167 0.60549 0.37546 0.0
C597 C 0.95348 0.6001 0.44957 0.0
C598 C 0.97055 0.61648 0.3304 0.0
C599 C 0.99173 0.62218 0.35798 0.0
C600 C 0.99361 0.61756 0.43312 0.0
C601 C 0.97471 0.60677 0.47853 0.0
C602 C 0.02879 0.63249 0.18862 0.0
C603 C 0.05 0.64705 0.21776 0.0
C604 C 0.00979 0.62486 0.23342 0.0
C605 C 0.01159 0.63189 0.30795 0.0
C606 C 0.03276 0.64743 0.33535 0.0
C607 C 0.0517 0.65479 0.29106 0.0
H608 H 0.38338 0.02985 0.29859 0.0
H609 H 0.41944 0.06591 0.49442 0.0
H610 H 0.36241 0.99629 0.37371 0.0
H611 H 0.39969 0.03247 0.56802 0.0
H612 H 0.35482 0.9722 0.70106 0.0
H613 H 0.36763 0.0058 0.62603 0.0
H614 H 0.36734 0.96921 0.43089 0.0
H615 H 0.35343 0.93574 0.50446 0.0
C616 C 0.38684 0.03061 0.35752 0.0
C617 C 0.40321 0.05053 0.39014 0.0
C618 C 0.37493 0.01134 0.40072 0.0
C619 C 0.3794 0.01145 0.47729 0.0
C620 C 0.39538 0.03162 0.50986 0.0
C621 C 0.40695 0.05087 0.46712 0.0
C622 C 0.35725 0.97135 0.64198 0.0
C623 C 0.35327 0.95131 0.60912 0.0
C624 C 0.36475 0.99065 0.59882 0.0
C625 C 0.36881 0.99044 0.52205 0.0
C626 C 0.36414 0.97015 0.48924 0.0
C627 C 0.35633 0.95088 0.53196 0.0
H628 H 0.39908 0.37416 0.86719 0.0
H629 H 0.39676 0.33198 0.68699 0.0
H630 H 0.37922 0.38769 0.79061 0.0
H631 H 0.37605 0.34453 0.61168 0.0
H632 H 0.36994 0.39569 0.46588 0.0
H633 H 0.38347 0.3764 0.54467 0.0
H634 H 0.3465 0.38137 0.73017 0.0
H635 H 0.33381 0.40148 0.65201 0.0
C636 C 0.3938 0.36735 0.81194 0.0
C637 C 0.39967 0.3522 0.78287 0.0
C638 C 0.38234 0.37504 0.76789 0.0
C639 C 0.37622 0.36746 0.69421 0.0
C640 C 0.38097 0.35125 0.66718 0.0
C641 C 0.39269 0.34387 0.71068 0.0
C642 C 0.36444 0.39234 0.52315 0.0
C643 C 0.35098 0.40028 0.55274 0.0
C644 C 0.37213 0.38119 0.56854 0.0
C645 C 0.36627 0.37743 0.64437 0.0
C646 C 0.35182 0.38438 0.67272 0.0
C647 C 0.34438 0.39577 0.62762 0.0
H648 H 0.15472 0.40491 0.20185 0.0
H649 H 0.19637 0.47282 0.12982 0.0
H650 H 0.18676 0.40564 0.26149 0.0
H651 H 0.2284 0.47415 0.19193 0.0
H652 H 0.28571 0.46173 0.2432 0.0
H653 H 0.25381 0.46122 0.18411 0.0
H654 H 0.21141 0.42006 0.36268 0.0
H655 H 0.24324 0.41945 0.4186 0.0
C656 C 0.17083 0.42001 0.1991 0.0
C657 C 0.17332 0.43866 0.16036 0.0
C658 C 0.18915 0.42056 0.23383 0.0
C659 C 0.21029 0.43997 0.23165 0.0
C660 C 0.21256 0.45876 0.19355 0.0
C661 C 0.19426 0.45807 0.15806 0.0
C662 C 0.26947 0.45232 0.26902 0.0
C663 C 0.26677 0.44019 0.33437 0.0
C664 C 0.25121 0.45229 0.23586 0.0
C665 C 0.22988 0.44048 0.26819 0.0
C666 C 0.22742 0.42893 0.33515 0.0
C667 C 0.24567 0.42875 0.36774 0.0
H668 H 0.75291 0.15579 0.34848 0.0
H669 H 0.72524 0.19731 0.28984 0.0
H670 H 0.78466 0.1876 0.4073 0.0
H671 H 0.75644 0.22909 0.35101 0.0
H672 H 0.82627 0.28641 0.40094 0.0
H673 H 0.79479 0.25487 0.34082 0.0
H674 H 0.79493 0.21116 0.5122 0.0
H675 H 0.8274 0.24271 0.56924 0.0
C676 C 0.75377 0.17184 0.34819 0.0
C677 C 0.73702 0.17436 0.31366 0.0
C678 C 0.77177 0.19001 0.38253 0.0
C679 C 0.77319 0.211 0.38412 0.0
C680 C 0.7562 0.21335 0.3497 0.0
C681 C 0.73832 0.1952 0.31466 0.0
C682 C 0.8197 0.26997 0.42497 0.0
C683 C 0.82952 0.26682 0.48855 0.0
C684 C 0.80145 0.25192 0.39121 0.0
C685 C 0.79233 0.23034 0.42119 0.0
C686 C 0.80179 0.2274 0.48648 0.0
C687 C 0.82022 0.24547 0.5197 0.0
H688 H 0.59661 0.84494 0.63805 0.0
H689 H 0.52789 0.80339 0.70216 0.0
H690 H 0.5961 0.81314 0.57736 0.0
H691 H 0.52687 0.7716 0.63942 0.0
H692 H 0.53936 0.71442 0.58445 0.0
H693 H 0.53975 0.74588 0.64658 0.0
H694 H 0.58174 0.78968 0.47204 0.0
H695 H 0.58229 0.75822 0.41268 0.0
C696 C 0.58143 0.82888 0.63922 0.0
C697 C 0.56243 0.82636 0.67573 0.0
C698 C 0.581 0.81072 0.60382 0.0
C699 C 0.56142 0.78973 0.60323 0.0
C700 C 0.54237 0.78736 0.63985 0.0
C701 C 0.5429 0.8055 0.67584 0.0
C702 C 0.54887 0.73086 0.56006 0.0
C703 C 0.56123 0.73407 0.49488 0.0
C704 C 0.54887 0.74886 0.59503 0.0
C705 C 0.56093 0.77043 0.56479 0.0
C706 C 0.57268 0.77342 0.49793 0.0
C707 C 0.57283 0.75541 0.4634 0.0
H708 H 0.72451 0.52832 0.86119 0.0
H709 H 0.75238 0.59749 0.80235 0.0
H710 H 0.75579 0.52765 0.80084 0.0
H711 H 0.78421 0.59735 0.74434 0.0
H712 H 0.82722 0.58484 0.58383 0.0
H713 H 0.79468 0.58403 0.63997 0.0
H714 H 0.79411 0.54015 0.81202 0.0
H715 H 0.82568 0.53999 0.7528 0.0
C716 C 0.73764 0.54348 0.83647 0.0
C717 C 0.73638 0.56305 0.83718 0.0
C718 C 0.75557 0.54316 0.80192 0.0
C719 C 0.77264 0.56247 0.76771 0.0
C720 C 0.77126 0.58207 0.76896 0.0
C721 C 0.7532 0.58228 0.80282 0.0
C722 C 0.81994 0.57493 0.63334 0.0
C723 C 0.82914 0.56284 0.66493 0.0
C724 C 0.80146 0.57462 0.66604 0.0
C725 C 0.79185 0.56223 0.73123 0.0
C726 C 0.80089 0.54976 0.76168 0.0
C727 C 0.81919 0.5499 0.72845 0.0
H728 H 0.27326 0.80438 0.79759 0.0
H729 H 0.25387 0.84957 0.89032 0.0
H730 H 0.24194 0.77314 0.86109 0.0
H731 H 0.22286 0.81855 0.95527 0.0
H732 H 0.15544 0.75346 0.98513 0.0
H733 H 0.18707 0.78513 0.9248 0.0
H734 H 0.22963 0.75882 0.98822 0.0
H735 H 0.19775 0.72696 0.04733 0.0
C736 C 0.26211 0.80752 0.831 0.0
C737 C 0.2656 0.8292 0.83808 0.0
C738 C 0.2444 0.78975 0.86814 0.0
C739 C 0.22989 0.79337 0.91311 0.0
C740 C 0.23355 0.81516 0.92031 0.0
C741 C 0.2513 0.8329 0.88345 0.0
C742 C 0.17166 0.75469 0.98677 0.0
C743 C 0.17436 0.7381 0.02166 0.0
C744 C 0.18975 0.77278 0.95246 0.0
C745 C 0.21087 0.7745 0.9518 0.0
C746 C 0.21354 0.75788 0.98731 0.0
C747 C 0.19543 0.73983 0.02194 0.0
H748 H 0.40517 0.153 0.11442 0.0
H749 H 0.47085 0.19742 0.20096 0.0
H750 H 0.40523 0.18427 0.05097 0.0
H751 H 0.47088 0.22889 0.13869 0.0
H752 H 0.47175 0.27471 0.95176 0.0
H753 H 0.47178 0.24282 0.01075 0.0
H754 H 0.40409 0.21837 0.08473 0.0
H755 H 0.4041 0.25006 0.0247 0.0
C756 C 0.41952 0.16955 0.12023 0.0
C757 C 0.43782 0.17298 0.16348 0.0
C758 C 0.41955 0.18743 0.08423 0.0
C759 C 0.43802 0.20906 0.0901 0.0
C760 C 0.45646 0.2124 0.1328 0.0
C761 C 0.45635 0.1945 0.16918 0.0
C762 C 0.45681 0.26225 0.97957 0.0
C763 C 0.43778 0.26448 0.98277 0.0
C764 C 0.45689 0.24419 0.01408 0.0
C765 C 0.43792 0.22807 0.05229 0.0
C766 C 0.41886 0.23034 0.05492 0.0
C767 C 0.41885 0.24845 0.02084 0.0
H768 H 0.09978 0.40239 0.36953 0.0
H769 H 0.0564 0.42412 0.46346 0.0
H770 H 0.11297 0.40069 0.49367 0.0
H771 H 0.07008 0.42286 0.58734 0.0
H772 H 0.13314 0.46084 0.73625 0.0
H773 H 0.11744 0.45237 0.61153 0.0
H774 H 0.09505 0.3827 0.64534 0.0
H775 H 0.11046 0.39092 0.77148 0.0
C776 C 0.09221 0.40573 0.41658 0.0
C777 C 0.077 0.41339 0.40665 0.0
C778 C 0.09998 0.40496 0.4876 0.0
C779 C 0.09274 0.412 0.54911 0.0
C780 C 0.07597 0.41754 0.54015 0.0
C781 C 0.06808 0.41812 0.46949 0.0
C782 C 0.12536 0.44377 0.71688 0.0
C783 C 0.12278 0.42651 0.76423 0.0
C784 C 0.11624 0.43894 0.64576 0.0
C785 C 0.10472 0.41687 0.62024 0.0
C786 C 0.10373 0.3998 0.66461 0.0
C787 C 0.11265 0.40458 0.73642 0.0
H788 H 0.69248 0.14605 0.89037 0.0
H789 H 0.69798 0.08953 0.96324 0.0
H790 H 0.68818 0.13274 0.76194 0.0
H791 H 0.69294 0.07599 0.83556 0.0
H792 H 0.63938 0.0522 0.62499 0.0
H793 H 0.65437 0.06387 0.75075 0.0
H794 H 0.71172 0.12187 0.66047 0.0
H795 H 0.69707 0.11005 0.53573 0.0
C796 C 0.69325 0.13111 0.87869 0.0
C797 C 0.69567 0.11892 0.93648 0.0
C798 C 0.69082 0.12352 0.80555 0.0
C799 C 0.69026 0.10339 0.7896 0.0
C800 C 0.69344 0.09159 0.84686 0.0
C801 C 0.69644 0.09946 0.91965 0.0
C802 C 0.65567 0.06685 0.63202 0.0
C803 C 0.66727 0.08 0.57056 0.0
C804 C 0.66418 0.07356 0.70367 0.0
C805 C 0.6841 0.09379 0.71459 0.0
C806 C 0.69637 0.10618 0.65302 0.0
C807 C 0.68809 0.09924 0.58153 0.0
H808 H 0.59687 0.69513 0.70689 0.0
H809 H 0.57516 0.6295 0.79552 0.0
H810 H 0.59826 0.70915 0.83212 0.0
H811 H 0.57599 0.6435 0.92071 0.0
H812 H 0.53764 0.66633 0.07476 0.0
H813 H 0.54669 0.65842 0.95206 0.0
H814 H 0.6148 0.71125 0.97774 0.0
H815 H 0.60598 0.71911 0.10218 0.0
C816 C 0.59369 0.68399 0.75318 0.0
C817 C 0.5862 0.66124 0.74147 0.0
C818 C 0.59417 0.69199 0.82486 0.0
C819 C 0.58687 0.67727 0.8853 0.0
C820 C 0.58149 0.65507 0.8745 0.0
C821 C 0.58123 0.64714 0.80314 0.0
C822 C 0.55446 0.6766 0.0541 0.0
C823 C 0.57114 0.69322 0.09866 0.0
C824 C 0.55967 0.67188 0.98419 0.0
C825 C 0.58154 0.68389 0.95682 0.0
C826 C 0.59789 0.70163 -0.00155 0.0
C827 C 0.59277 0.70617 0.06923 0.0
H828 H 0.90335 0.59826 0.87943 0.0
H829 H 0.94609 0.57572 0.97284 0.0
H830 H 0.89125 0.60134 0.00395 0.0
H831 H 0.93348 0.57833 0.09732 0.0
H832 H 0.89561 0.61117 0.28482 0.0
H833 H 0.9114 0.61961 0.15919 0.0
H834 H 0.88437 0.54945 0.11804 0.0
H835 H 0.86832 0.54078 0.24234 0.0
C836 C 0.9112 0.59527 0.92647 0.0
C837 C 0.92594 0.58704 0.91649 0.0
C838 C 0.90401 0.59676 -0.0023 0.0
C839 C 0.91133 0.58985 0.05932 0.0
C840 C 0.92765 0.58371 0.05009 0.0
C841 C 0.93496 0.58237 0.97915 0.0
C842 C 0.8925 0.59749 0.2483 0.0
C843 C 0.88093 0.57529 0.27391 0.0
C844 C 0.90164 0.60239 0.1768 0.0
C845 C 0.8994 0.58516 0.13047 0.0
C846 C 0.88653 0.56297 0.15382 0.0
C847 C 0.87723 0.55804 0.2247 0.0
H848 H 0.28108 0.88941 0.44241 0.0
H849 H 0.33095 0.86986 0.41317 0.0
H850 H 0.28862 0.90496 0.31641 0.0
H851 H 0.33855 0.8857 0.28867 0.0
H852 H 0.36979 0.94519 0.13632 0.0
H853 H 0.35521 0.93133 0.26032 0.0
H854 H 0.28977 0.88904 0.16841 0.0
H855 H 0.3043 0.90243 0.0441 0.0
C856 C 0.29324 0.88796 0.40866 0.0
C857 C 0.3056 0.87861 0.43808 0.0
C858 C 0.29758 0.89696 0.33694 0.0
C859 C 0.31448 0.89693 0.29431 0.0
C860 C 0.3257 0.88622 0.32151 0.0
C861 C 0.32117 0.87697 0.39248 0.0
C862 C 0.35212 0.93357 0.14277 0.0
C863 C 0.33827 0.92487 0.08026 0.0
C864 C 0.34385 0.92555 0.21352 0.0
C865 C 0.32154 0.90888 0.22301 0.0
C866 C 0.30705 0.90191 0.16198 0.0
C867 C 0.31539 0.90979 0.09083 0.0
H868 H 0.45465 0.31239 0.56227 0.0
H869 H 0.38764 0.29431 0.62835 0.0
H870 H 0.44554 0.31626 0.43367 0.0
H871 H 0.37904 0.29912 0.50039 0.0
H872 H 0.41272 0.36037 0.29823 0.0
H873 H 0.40874 0.34444 0.4229 0.0
H874 H 0.40783 0.28683 0.32832 0.0
H875 H 0.4113 0.30236 0.20468 0.0
C876 C 0.4379 0.30876 0.54909 0.0
C877 C 0.42193 0.3032 0.60528 0.0
C878 C 0.43271 0.31098 0.47584 0.0
C879 C 0.41168 0.30807 0.45822 0.0
C880 C 0.39533 0.30137 0.51328 0.0
C881 C 0.4003 0.29858 0.58621 0.0
C882 C 0.41056 0.34383 0.30402 0.0
C883 C 0.4119 0.33241 0.2417 0.0
C884 C 0.40836 0.33479 0.37499 0.0
C885 C 0.40799 0.31449 0.38424 0.0
C886 C 0.40786 0.3024 0.32191 0.0
C887 C 0.40962 0.31123 0.25108 0.0
H888 H 0.6089 0.91134 0.02765 0.0
H889 H 0.54687 0.8548 0.10037 0.0
H890 H 0.61732 0.92494 0.15531 0.0
H891 H 0.5558 0.86817 0.22876 0.0
H892 H 0.58731 0.89089 0.45501 0.0
H893 H 0.59023 0.87911 0.33036 0.0
H894 H 0.59072 0.93701 0.23992 0.0
H895 H 0.58733 0.94866 0.36565 0.0
C896 C 0.59741 0.90142 0.07121 0.0
C897 C 0.57721 0.88194 0.05434 0.0
C898 C 0.60223 0.90932 0.14398 0.0
C899 C 0.58723 0.89754 0.20118 0.0
C900 C 0.56768 0.87738 0.1852 0.0
C901 C 0.56257 0.86976 0.11207 0.0
C902 C 0.58913 0.90169 0.40922 0.0
C903 C 0.58749 0.9209 0.42016 0.0
C904 C 0.59052 0.89477 0.33776 0.0
C905 C 0.59062 0.90714 0.27617 0.0
C906 C 0.59085 0.92733 0.28703 0.0
C907 C 0.58901 0.93403 0.35866 0.0
H908 H 0.6984 0.60986 0.1877 0.0
H909 H 0.69211 0.54749 0.26036 0.0
H910 H 0.69345 0.61844 0.31542 0.0
H911 H 0.68791 0.55658 0.38881 0.0
H912 H 0.69703 0.58817 0.61513 0.0
H913 H 0.71175 0.59101 0.49047 0.0
H914 H 0.6546 0.59204 0.3999 0.0
H915 H 0.63953 0.5887 0.52557 0.0
C916 C 0.69671 0.59833 0.23127 0.0
C917 C 0.69569 0.57799 0.21436 0.0
C918 C 0.69376 0.60324 0.30406 0.0
C919 C 0.69039 0.58819 0.36125 0.0
C920 C 0.69071 0.5685 0.34525 0.0
C921 C 0.69308 0.56329 0.27209 0.0
C922 C 0.68811 0.59008 0.56928 0.0
C923 C 0.66732 0.5886 0.58014 0.0
C924 C 0.69643 0.59144 0.49784 0.0
C925 C 0.68423 0.59167 0.43622 0.0
C926 C 0.66435 0.59207 0.44703 0.0
C927 C 0.65579 0.59026 0.51863 0.0
H928 H 0.13696 0.67073 0.43341 0.0
H929 H 0.10567 0.71045 0.39523 0.0
H930 H 0.12469 0.66554 0.56257 0.0
H931 H 0.09355 0.7053 0.52422 0.0
H932 H 0.0495 0.66241 0.72141 0.0
H933 H 0.06536 0.6724 0.59639 0.0
H934 H 0.12902 0.68525 0.68136 0.0
H935 H 0.11323 0.67495 0.80431 0.0
C936 C 0.12791 0.67875 0.4529 0.0
C937 C 0.12218 0.69087 0.40386 0.0
C938 C 0.12086 0.67577 0.52687 0.0
C939 C 0.10788 0.68476 0.5531 0.0
C940 C 0.10318 0.69785 0.50513 0.0
C941 C 0.11035 0.70097 0.43141 0.0
C942 C 0.06691 0.66745 0.71326 0.0
C943 C 0.08 0.66789 0.77334 0.0
C944 C 0.07602 0.67332 0.64191 0.0
C945 C 0.09847 0.67966 0.62921 0.0
C946 C 0.11164 0.6803 0.68931 0.0
C947 C 0.10255 0.67455 0.76042 0.0
H948 H 0.39318 0.11278 0.55606 0.0
H949 H 0.46239 0.13166 0.58666 0.0
H950 H 0.38484 0.09721 0.68203 0.0
H951 H 0.45381 0.1158 0.71114 0.0
H952 H 0.42463 0.05615 0.86321 0.0
H953 H 0.42405 0.06999 0.73901 0.0
H954 H 0.40229 0.11344 0.8306 0.0
H955 H 0.40335 0.10011 0.95506 0.0
C956 C 0.40668 0.11407 0.59009 0.0
C957 C 0.42841 0.12324 0.56108 0.0
C958 C 0.40184 0.10507 0.66178 0.0
C959 C 0.41861 0.10492 0.70479 0.0
C960 C 0.44057 0.11544 0.67799 0.0
C961 C 0.44548 0.12469 0.60704 0.0
C962 C 0.41888 0.06801 0.85664 0.0
C963 C 0.41408 0.07703 0.91907 0.0
C964 C 0.41871 0.07601 0.78578 0.0
C965 C 0.4135 0.09298 0.77615 0.0
C966 C 0.40635 0.10032 0.83715 0.0
C967 C 0.40673 0.09246 0.90838 0.0
H968 H 0.28265 0.39341 0.72072 0.0
H969 H 0.33187 0.46281 0.75451 0.0
H970 H 0.29034 0.38473 0.84558 0.0
H971 H 0.33963 0.45388 0.87769 0.0
H972 H 0.37109 0.42636 0.02946 0.0
H973 H 0.35656 0.42466 0.90448 0.0
H974 H 0.29103 0.40203 0.99494 0.0
H975 H 0.30556 0.40429 0.11996 0.0
C976 C 0.29472 0.40686 0.75515 0.0
C977 C 0.30683 0.42878 0.72734 0.0
C978 C 0.29917 0.40181 0.82616 0.0
C979 C 0.31593 0.41857 0.86965 0.0
C980 C 0.32694 0.44065 0.84406 0.0
C981 C 0.32231 0.44576 0.77385 0.0
C982 C 0.35338 0.42001 0.02234 0.0
C983 C 0.33944 0.4152 0.08437 0.0
C984 C 0.34513 0.41922 0.95111 0.0
C985 C 0.3228 0.41347 0.94093 0.0
C986 C 0.30827 0.40635 0.00184 0.0
C987 C 0.31658 0.40734 0.07337 0.0
H988 H 0.94694 0.37103 0.18299 0.0
H989 H 0.90424 0.30561 0.27526 0.0
H990 H 0.93429 0.35607 0.05835 0.0
H991 H 0.89212 0.29066 0.15056 0.0
H992 H 0.89398 0.2833 0.87357 0.0
H993 H 0.91014 0.29099 -0.00126 0.0
H994 H 0.8869 0.33755 0.03432 0.0
H995 H 0.87045 0.32979 0.91073 0.0
C996 C 0.93581 0.35326 0.17637 0.0
C997 C 0.9268 0.33947 0.23878 0.0
C998 C 0.92846 0.34477 0.10532 0.0
C999 C 0.91212 0.32234 0.09572 0.0
C1000 C 0.90487 0.30798 0.15705 0.0
C1001 C 0.91208 0.31653 0.2284 0.0
C1002 C 0.8918 0.29474 0.90882 0.0
C1003 C 0.88115 0.30615 0.88184 0.0
C1004 C 0.90117 0.29919 0.98002 0.0
C1005 C 0.90014 0.31521 0.02458 0.0
C1006 C 0.88819 0.32541 -0.00013 0.0
C1007 C 0.87862 0.32081 0.92941 0.0
loop_
_geom_bond_atom_site_label_1
_geom_bond_atom_site_label_2
_geom_bond_distance
_geom_bond_site_symmetry_2
_ccdc_geom_bond_type
Co0 O3 1.970 . S
Co0 N17 1.989 1_556 S
Co0 O25 1.967 1_556 S
Co0 O32 1.920 . S
Co1 O4 1.966 . S
Co1 N10 2.022 . S
Co1 N18 1.993 . S
Co1 O26 1.941 . S
C2 O3 1.258 1_554 S
C2 O4 1.263 . S
O3 Co0 1.970 . S
O3 C2 1.258 1_556 S
O4 Co1 1.966 . S
O4 C2 1.263 . S
C5 O6 1.235 . S
C5 O32 1.289 . S
O6 C5 1.235 . S
C7 C9 1.400 . S
C7 N10 1.351 . S
C7 C12 1.501 . S
C8 C9 1.387 . S
C8 N11 1.341 . S
C9 C7 1.400 . S
C9 C8 1.387 . S
N10 Co1 2.022 . S
N10 C7 1.351 . S
N10 N11 1.365 . S
N11 C8 1.341 . S
N11 N10 1.365 . S
N11 H31 0.862 . S
C12 C7 1.501 . S
C12 H13 0.961 . S
C12 H14 0.961 . S
C12 H15 0.960 . S
H13 C12 0.961 . S
H14 C12 0.961 . S
H15 C12 0.960 . S
C16 N17 1.342 . S
C16 C20 1.401 . S
C16 C21 1.499 1_554 S
N17 Co0 1.989 1_554 S
N17 C16 1.342 . S
N17 N18 1.388 . S
N18 Co1 1.993 . S
N18 N17 1.388 . S
N18 C19 1.346 . S
C19 N18 1.346 . S
C19 C20 1.396 . S
C19 C29 1.510 . S
C20 C16 1.401 . S
C20 C19 1.396 . S
C21 C16 1.499 1_556 S
C21 H22 0.959 . S
C21 H23 0.960 . S
C21 H24 0.961 . S
H22 C21 0.959 . S
H23 C21 0.960 . S
H24 C21 0.961 . S
O25 Co0 1.967 1_554 S
O25 C33 1.258 . S
O26 Co1 1.941 . S
O26 C33 1.266 . S
H27 C29 0.959 . S
H28 C29 0.961 . S
C29 C19 1.510 . S
C29 H27 0.959 . S
C29 H28 0.961 . S
C29 H30 0.960 . S
H30 C29 0.960 . S
H31 N11 0.862 . S
O32 Co0 1.920 . S
O32 C5 1.289 . S
C33 O25 1.258 . S
C33 O26 1.266 . S
Co34 O37 1.970 . S
Co34 N51 1.989 . S
Co34 O59 1.967 . S
Co34 O66 1.920 . S
Co35 O38 1.966 . S
Co35 N44 2.022 . S
Co35 N52 1.993 . S
Co35 O60 1.941 . S
C36 O37 1.258 . S
C36 O38 1.263 . S
O37 Co34 1.970 . S
O37 C36 1.258 . S
O38 Co35 1.966 . S
O38 C36 1.263 . S
C39 O40 1.235 . S
C39 O66 1.289 . S
O40 C39 1.235 . S
C41 C43 1.400 . S
C41 N44 1.351 . S
C41 C46 1.501 . S
C42 C43 1.387 . S
C42 N45 1.341 . S
C43 C41 1.400 . S
C43 C42 1.387 . S
N44 Co35 2.022 . S
N44 C41 1.351 . S
N44 N45 1.365 . S
N45 C42 1.341 . S
N45 N44 1.365 . S
N45 H65 0.862 . S
C46 C41 1.501 . S
C46 H47 0.961 . S
C46 H48 0.961 . S
C46 H49 0.960 . S
H47 C46 0.961 . S
H48 C46 0.961 . S
H49 C46 0.960 . S
C50 N51 1.342 . S
C50 C54 1.401 . S
C50 C55 1.499 . S
N51 Co34 1.989 . S
N51 C50 1.342 . S
N51 N52 1.388 . S
N52 Co35 1.993 . S
N52 N51 1.388 . S
N52 C53 1.346 . S
C53 N52 1.346 . S
C53 C54 1.396 . S
C53 C63 1.510 . S
C54 C50 1.401 . S
C54 C53 1.396 . S
C55 C50 1.499 . S
C55 H56 0.959 . S
C55 H57 0.960 . S
C55 H58 0.961 . S
H56 C55 0.959 . S
H57 C55 0.960 . S
H58 C55 0.961 . S
O59 Co34 1.967 . S
O59 C67 1.258 . S
O60 Co35 1.941 . S
O60 C67 1.266 . S
H61 C63 0.959 . S
H62 C63 0.961 . S
C63 C53 1.510 . S
C63 H61 0.959 . S
C63 H62 0.961 . S
C63 H64 0.960 . S
H64 C63 0.960 . S
H65 N45 0.862 . S
O66 Co34 1.920 . S
O66 C39 1.289 . S
C67 O59 1.258 . S
C67 O60 1.266 . S
Co68 O71 1.970 . S
Co68 N85 1.989 . S
Co68 O93 1.967 . S
Co68 O100 1.920 . S
Co69 O72 1.966 . S
Co69 N78 2.022 . S
Co69 N86 1.993 . S
Co69 O94 1.941 . S
C70 O71 1.258 . S
C70 O72 1.263 . S
O71 Co68 1.970 . S
O71 C70 1.258 . S
O72 Co69 1.966 . S
O72 C70 1.263 . S
C73 O74 1.235 . S
C73 O100 1.289 . S
O74 C73 1.235 . S
C75 C77 1.400 . S
C75 N78 1.351 . S
C75 C80 1.501 . S
C76 C77 1.387 . S
C76 N79 1.341 . S
C77 C75 1.400 . S
C77 C76 1.387 . S
N78 Co69 2.022 . S
N78 C75 1.351 . S
N78 N79 1.365 . S
N79 C76 1.341 . S
N79 N78 1.365 . S
N79 H99 0.862 . S
C80 C75 1.501 . S
C80 H81 0.961 . S
C80 H82 0.961 . S
C80 H83 0.960 . S
H81 C80 0.961 . S
H82 C80 0.961 . S
H83 C80 0.960 . S
C84 N85 1.342 . S
C84 C88 1.401 . S
C84 C89 1.499 . S
N85 Co68 1.989 . S
N85 C84 1.342 . S
N85 N86 1.388 . S
N86 Co69 1.993 . S
N86 N85 1.388 . S
N86 C87 1.346 . S
C87 N86 1.346 . S
C87 C88 1.396 . S
C87 C97 1.510 . S
C88 C84 1.401 . S
C88 C87 1.396 . S
C89 C84 1.499 . S
C89 H90 0.959 . S
C89 H91 0.960 . S
C89 H92 0.961 . S
H90 C89 0.959 . S
H91 C89 0.960 . S
H92 C89 0.961 . S
O93 Co68 1.967 . S
O93 C101 1.258 . S
O94 Co69 1.941 . S
O94 C101 1.266 . S
H95 C97 0.959 . S
H96 C97 0.961 . S
C97 C87 1.510 . S
C97 H95 0.959 . S
C97 H96 0.961 . S
C97 H98 0.960 . S
H98 C97 0.960 . S
H99 N79 0.862 . S
O100 Co68 1.920 . S
O100 C73 1.289 . S
C101 O93 1.258 . S
C101 O94 1.266 . S
Co102 O105 1.970 . S
Co102 N119 1.989 . S
Co102 O127 1.967 . S
Co102 O134 1.920 . S
Co103 O106 1.966 . S
Co103 N112 2.022 . S
Co103 N120 1.993 . S
Co103 O128 1.941 . S
C104 O105 1.258 . S
C104 O106 1.263 . S
O105 Co102 1.970 . S
O105 C104 1.258 . S
O106 Co103 1.966 . S
O106 C104 1.263 . S
C107 O108 1.235 . S
C107 O134 1.289 . S
O108 C107 1.235 . S
C109 C111 1.400 . S
C109 N112 1.351 . S
C109 C114 1.501 . S
C110 C111 1.387 . S
C110 N113 1.341 . S
C111 C109 1.400 . S
C111 C110 1.387 . S
N112 Co103 2.022 . S
N112 C109 1.351 . S
N112 N113 1.365 . S
N113 C110 1.341 . S
N113 N112 1.365 . S
N113 H133 0.862 . S
C114 C109 1.501 . S
C114 H115 0.961 . S
C114 H116 0.961 . S
C114 H117 0.960 . S
H115 C114 0.961 . S
H116 C114 0.961 . S
H117 C114 0.960 . S
C118 N119 1.342 . S
C118 C122 1.401 . S
C118 C123 1.499 . S
N119 Co102 1.989 . S
N119 C118 1.342 . S
N119 N120 1.388 . S
N120 Co103 1.993 . S
N120 N119 1.388 . S
N120 C121 1.346 . S
C121 N120 1.346 . S
C121 C122 1.396 . S
C121 C131 1.510 . S
C122 C118 1.401 . S
C122 C121 1.396 . S
C123 C118 1.499 . S
C123 H124 0.959 . S
C123 H125 0.960 . S
C123 H126 0.961 . S
H124 C123 0.959 . S
H125 C123 0.960 . S
H126 C123 0.961 . S
O127 Co102 1.967 . S
O127 C135 1.258 . S
O128 Co103 1.941 . S
O128 C135 1.266 . S
H129 C131 0.959 . S
H130 C131 0.961 . S
C131 C121 1.510 . S
C131 H129 0.959 . S
C131 H130 0.961 . S
C131 H132 0.960 . S
H132 C131 0.960 . S
H133 N113 0.862 . S
O134 Co102 1.920 . S
O134 C107 1.289 . S
C135 O127 1.258 . S
C135 O128 1.266 . S
Co136 O139 1.970 . S
Co136 N153 1.989 . S
Co136 O161 1.967 . S
Co136 O168 1.920 . S
Co137 O140 1.966 . S
Co137 N146 2.022 . S
Co137 N154 1.993 . S
Co137 O162 1.941 . S
C138 O139 1.258 . S
C138 O140 1.263 . S
O139 Co136 1.970 . S
O139 C138 1.258 . S
O140 Co137 1.966 . S
O140 C138 1.263 . S
C141 O142 1.235 . S
C141 O168 1.289 . S
O142 C141 1.235 . S
C143 C145 1.400 1_556 S
C143 N146 1.351 . S
C143 C148 1.501 . S
C144 C145 1.387 . S
C144 N147 1.341 1_554 S
C145 C143 1.400 1_554 S
C145 C144 1.387 . S
N146 Co137 2.022 . S
N146 C143 1.351 . S
N146 N147 1.365 . S
N147 C144 1.341 1_556 S
N147 N146 1.365 . S
N147 H167 0.862 . S
C148 C143 1.501 . S
C148 H149 0.961 . S
C148 H150 0.961 . S
C148 H151 0.960 . S
H149 C148 0.961 . S
H150 C148 0.961 . S
H151 C148 0.960 . S
C152 N153 1.342 . S
C152 C156 1.401 . S
C152 C157 1.499 . S
N153 Co136 1.989 . S
N153 C152 1.342 . S
N153 N154 1.388 . S
N154 Co137 1.993 . S
N154 N153 1.388 . S
N154 C155 1.346 . S
C155 N154 1.346 . S
C155 C156 1.396 . S
C155 C165 1.510 . S
C156 C152 1.401 . S
C156 C155 1.396 . S
C157 C152 1.499 . S
C157 H158 0.959 . S
C157 H159 0.960 . S
C157 H160 0.961 . S
H158 C157 0.959 . S
H159 C157 0.960 . S
H160 C157 0.961 . S
O161 Co136 1.967 . S
O161 C169 1.258 . S
O162 Co137 1.941 . S
O162 C169 1.266 . S
H163 C165 0.959 . S
H164 C165 0.961 . S
C165 C155 1.510 . S
C165 H163 0.959 . S
C165 H164 0.961 . S
C165 H166 0.960 . S
H166 C165 0.960 . S
H167 N147 0.862 . S
O168 Co136 1.920 . S
O168 C141 1.289 . S
C169 O161 1.258 . S
C169 O162 1.266 . S
Co170 O173 1.970 . S
Co170 N187 1.989 . S
Co170 O195 1.967 . S
Co170 O202 1.920 . S
Co171 O174 1.966 . S
Co171 N180 2.022 1_556 S
Co171 N188 1.993 . S
Co171 O196 1.941 . S
C172 O173 1.258 . S
C172 O174 1.263 . S
O173 Co170 1.970 . S
O173 C172 1.258 . S
O174 Co171 1.966 . S
O174 C172 1.263 . S
C175 O176 1.235 . S
C175 O202 1.289 . S
O176 C175 1.235 . S
C177 C179 1.400 . S
C177 N180 1.351 . S
C177 C182 1.501 . S
C178 C179 1.387 . S
C178 N181 1.341 . S
C179 C177 1.400 . S
C179 C178 1.387 . S
N180 Co171 2.022 1_554 S
N180 C177 1.351 . S
N180 N181 1.365 . S
N181 C178 1.341 . S
N181 N180 1.365 . S
N181 H201 0.862 . S
C182 C177 1.501 . S
C182 H183 0.961 . S
C182 H184 0.961 . S
C182 H185 0.960 . S
H183 C182 0.961 . S
H184 C182 0.961 . S
H185 C182 0.960 . S
C186 N187 1.342 . S
C186 C190 1.401 . S
C186 C191 1.499 . S
N187 Co170 1.989 . S
N187 C186 1.342 . S
N187 N188 1.388 . S
N188 Co171 1.993 . S
N188 N187 1.388 . S
N188 C189 1.346 1_556 S
C189 N188 1.346 1_554 S
C189 C190 1.396 1_554 S
C189 C199 1.510 . S
C190 C186 1.401 . S
C190 C189 1.396 1_556 S
C191 C186 1.499 . S
C191 H192 0.959 . S
C191 H193 0.960 . S
C191 H194 0.961 . S
H192 C191 0.959 . S
H193 C191 0.960 . S
H194 C191 0.961 . S
O195 Co170 1.967 . S
O195 C203 1.258 . S
O196 Co171 1.941 . S
O196 C203 1.266 . S
H197 C199 0.959 . S
H198 C199 0.961 . S
C199 C189 1.510 . S
C199 H197 0.959 . S
C199 H198 0.961 . S
C199 H200 0.960 . S
H200 C199 0.960 . S
H201 N181 0.862 . S
O202 Co170 1.920 . S
O202 C175 1.289 . S
C203 O195 1.258 . S
C203 O196 1.266 . S
Co204 O207 1.970 . S
Co204 N221 1.989 . S
Co204 O229 1.967 . S
Co204 O236 1.920 . S
Co205 O208 1.966 . S
Co205 N214 2.022 . S
Co205 N222 1.993 . S
Co205 O230 1.941 . S
C206 O207 1.258 . S
C206 O208 1.263 . S
O207 Co204 1.970 . S
O207 C206 1.258 . S
O208 Co205 1.966 . S
O208 C206 1.263 . S
C209 O210 1.235 . S
C209 O236 1.289 . S
O210 C209 1.235 . S
C211 C213 1.400 . S
C211 N214 1.351 . S
C211 C216 1.501 . S
C212 C213 1.387 . S
C212 N215 1.341 . S
C213 C211 1.400 . S
C213 C212 1.387 . S
N214 Co205 2.022 . S
N214 C211 1.351 . S
N214 N215 1.365 . S
N215 C212 1.341 . S
N215 N214 1.365 . S
N215 H235 0.862 . S
C216 C211 1.501 . S
C216 H217 0.961 . S
C216 H218 0.961 . S
C216 H219 0.960 . S
H217 C216 0.961 . S
H218 C216 0.961 . S
H219 C216 0.960 . S
C220 N221 1.342 . S
C220 C224 1.401 . S
C220 C225 1.499 . S
N221 Co204 1.989 . S
N221 C220 1.342 . S
N221 N222 1.388 . S
N222 Co205 1.993 . S
N222 N221 1.388 . S
N222 C223 1.346 . S
C223 N222 1.346 . S
C223 C224 1.396 . S
C223 C233 1.510 . S
C224 C220 1.401 . S
C224 C223 1.396 . S
C225 C220 1.499 . S
C225 H226 0.959 . S
C225 H227 0.960 . S
C225 H228 0.961 . S
H226 C225 0.959 . S
H227 C225 0.960 . S
H228 C225 0.961 . S
O229 Co204 1.967 . S
O229 C237 1.258 . S
O230 Co205 1.941 . S
O230 C237 1.266 . S
H231 C233 0.959 . S
H232 C233 0.961 . S
C233 C223 1.510 . S
C233 H231 0.959 . S
C233 H232 0.961 . S
C233 H234 0.960 . S
H234 C233 0.960 . S
H235 N215 0.862 . S
O236 Co204 1.920 . S
O236 C209 1.289 . S
C237 O229 1.258 . S
C237 O230 1.266 . S
Co238 O241 1.970 . S
Co238 N255 1.989 1_554 S
Co238 O263 1.967 1_554 S
Co238 O270 1.920 . S
Co239 O242 1.966 . S
Co239 N248 2.022 . S
Co239 N256 1.993 . S
Co239 O264 1.941 . S
C240 O241 1.258 1_556 S
C240 O242 1.263 . S
O241 Co238 1.970 . S
O241 C240 1.258 1_554 S
O242 Co239 1.966 . S
O242 C240 1.263 . S
C243 O244 1.235 . S
C243 O270 1.289 . S
O244 C243 1.235 . S
C245 C247 1.400 . S
C245 N248 1.351 . S
C245 C250 1.501 . S
C246 C247 1.387 . S
C246 N249 1.341 . S
C247 C245 1.400 . S
C247 C246 1.387 . S
N248 Co239 2.022 . S
N248 C245 1.351 . S
N248 N249 1.365 . S
N249 C246 1.341 . S
N249 N248 1.365 . S
N249 H269 0.862 . S
C250 C245 1.501 . S
C250 H251 0.961 . S
C250 H252 0.961 . S
C250 H253 0.960 . S
H251 C250 0.961 . S
H252 C250 0.961 . S
H253 C250 0.960 . S
C254 N255 1.342 . S
C254 C258 1.401 . S
C254 C259 1.499 1_556 S
N255 Co238 1.989 1_556 S
N255 C254 1.342 . S
N255 N256 1.388 . S
N256 Co239 1.993 . S
N256 N255 1.388 . S
N256 C257 1.346 . S
C257 N256 1.346 . S
C257 C258 1.396 . S
C257 C267 1.510 . S
C258 C254 1.401 . S
C258 C257 1.396 . S
C259 C254 1.499 1_554 S
C259 H260 0.959 . S
C259 H261 0.960 . S
C259 H262 0.961 . S
H260 C259 0.959 . S
H261 C259 0.960 . S
H262 C259 0.961 . S
O263 Co238 1.967 1_556 S
O263 C271 1.258 . S
O264 Co239 1.941 . S
O264 C271 1.266 . S
H265 C267 0.959 . S
H266 C267 0.961 . S
C267 C257 1.510 . S
C267 H265 0.959 . S
C267 H266 0.961 . S
C267 H268 0.960 . S
H268 C267 0.960 . S
H269 N249 0.862 . S
O270 Co238 1.920 . S
O270 C243 1.289 . S
C271 O263 1.258 . S
C271 O264 1.266 . S
Co272 O275 1.970 . S
Co272 N289 1.989 . S
Co272 O297 1.967 . S
Co272 O304 1.920 . S
Co273 O276 1.966 . S
Co273 N282 2.022 1_554 S
Co273 N290 1.993 . S
Co273 O298 1.941 . S
C274 O275 1.258 . S
C274 O276 1.263 . S
O275 Co272 1.970 . S
O275 C274 1.258 . S
O276 Co273 1.966 . S
O276 C274 1.263 . S
C277 O278 1.235 . S
C277 O304 1.289 . S
O278 C277 1.235 . S
C279 C281 1.400 . S
C279 N282 1.351 . S
C279 C284 1.501 . S
C280 C281 1.387 . S
C280 N283 1.341 . S
C281 C279 1.400 . S
C281 C280 1.387 . S
N282 Co273 2.022 1_556 S
N282 C279 1.351 . S
N282 N283 1.365 . S
N283 C280 1.341 . S
N283 N282 1.365 . S
N283 H303 0.862 . S
C284 C279 1.501 . S
C284 H285 0.961 . S
C284 H286 0.961 . S
C284 H287 0.960 . S
H285 C284 0.961 . S
H286 C284 0.961 . S
H287 C284 0.960 . S
C288 N289 1.342 . S
C288 C292 1.401 . S
C288 C293 1.499 . S
N289 Co272 1.989 . S
N289 C288 1.342 . S
N289 N290 1.388 . S
N290 Co273 1.993 . S
N290 N289 1.388 . S
N290 C291 1.346 1_554 S
C291 N290 1.346 1_556 S
C291 C292 1.396 1_556 S
C291 C301 1.510 . S
C292 C288 1.401 . S
C292 C291 1.396 1_554 S
C293 C288 1.499 . S
C293 H294 0.959 . S
C293 H295 0.960 . S
C293 H296 0.961 . S
H294 C293 0.959 . S
H295 C293 0.960 . S
H296 C293 0.961 . S
O297 Co272 1.967 . S
O297 C305 1.258 . S
O298 Co273 1.941 . S
O298 C305 1.266 . S
H299 C301 0.959 . S
H300 C301 0.961 . S
C301 C291 1.510 . S
C301 H299 0.959 . S
C301 H300 0.961 . S
C301 H302 0.960 . S
H302 C301 0.960 . S
H303 N283 0.862 . S
O304 Co272 1.920 . S
O304 C277 1.289 . S
C305 O297 1.258 . S
C305 O298 1.266 . S
Co306 O309 1.970 . S
Co306 N323 1.989 . S
Co306 O331 1.967 . S
Co306 O338 1.920 . S
Co307 O310 1.966 . S
Co307 N316 2.022 . S
Co307 N324 1.993 . S
Co307 O332 1.941 . S
C308 O309 1.258 . S
C308 O310 1.263 . S
O309 Co306 1.970 . S
O309 C308 1.258 . S
O310 Co307 1.966 . S
O310 C308 1.263 . S
C311 O312 1.235 . S
C311 O338 1.289 . S
O312 C311 1.235 . S
C313 C315 1.400 1_554 S
C313 N316 1.351 . S
C313 C318 1.501 . S
C314 C315 1.387 . S
C314 N317 1.341 1_556 S
C315 C313 1.400 1_556 S
C315 C314 1.387 . S
N316 Co307 2.022 . S
N316 C313 1.351 . S
N316 N317 1.365 . S
N317 C314 1.341 1_554 S
N317 N316 1.365 . S
N317 H337 0.862 . S
C318 C313 1.501 . S
C318 H319 0.961 . S
C318 H320 0.961 . S
C318 H321 0.960 . S
H319 C318 0.961 . S
H320 C318 0.961 . S
H321 C318 0.960 . S
C322 N323 1.342 . S
C322 C326 1.401 . S
C322 C327 1.499 . S
N323 Co306 1.989 . S
N323 C322 1.342 . S
N323 N324 1.388 . S
N324 Co307 1.993 . S
N324 N323 1.388 . S
N324 C325 1.346 . S
C325 N324 1.346 . S
C325 C326 1.396 . S
C325 C335 1.510 . S
C326 C322 1.401 . S
C326 C325 1.396 . S
C327 C322 1.499 . S
C327 H328 0.959 . S
C327 H329 0.960 . S
C327 H330 0.961 . S
H328 C327 0.959 . S
H329 C327 0.960 . S
H330 C327 0.961 . S
O331 Co306 1.967 . S
O331 C339 1.258 . S
O332 Co307 1.941 . S
O332 C339 1.266 . S
H333 C335 0.959 . S
H334 C335 0.961 . S
C335 C325 1.510 . S
C335 H333 0.959 . S
C335 H334 0.961 . S
C335 H336 0.960 . S
H336 C335 0.960 . S
H337 N317 0.862 . S
O338 Co306 1.920 . S
O338 C311 1.289 . S
C339 O331 1.258 . S
C339 O332 1.266 . S
Co340 O343 1.970 . S
Co340 N357 1.989 . S
Co340 O365 1.967 . S
Co340 O372 1.920 . S
Co341 O344 1.966 . S
Co341 N350 2.022 . S
Co341 N358 1.993 . S
Co341 O366 1.941 . S
C342 O343 1.258 . S
C342 O344 1.263 . S
O343 Co340 1.970 . S
O343 C342 1.258 . S
O344 Co341 1.966 . S
O344 C342 1.263 . S
C345 O346 1.235 . S
C345 O372 1.289 . S
O346 C345 1.235 . S
C347 C349 1.400 . S
C347 N350 1.351 . S
C347 C352 1.501 . S
C348 C349 1.387 . S
C348 N351 1.341 . S
C349 C347 1.400 . S
C349 C348 1.387 . S
N350 Co341 2.022 . S
N350 C347 1.351 . S
N350 N351 1.365 . S
N351 C348 1.341 . S
N351 N350 1.365 . S
N351 H371 0.862 . S
C352 C347 1.501 . S
C352 H353 0.961 . S
C352 H354 0.961 . S
C352 H355 0.960 . S
H353 C352 0.961 . S
H354 C352 0.961 . S
H355 C352 0.960 . S
C356 N357 1.342 . S
C356 C360 1.401 . S
C356 C361 1.499 . S
N357 Co340 1.989 . S
N357 C356 1.342 . S
N357 N358 1.388 . S
N358 Co341 1.993 . S
N358 N357 1.388 . S
N358 C359 1.346 . S
C359 N358 1.346 . S
C359 C360 1.396 . S
C359 C369 1.510 . S
C360 C356 1.401 . S
C360 C359 1.396 . S
C361 C356 1.499 . S
C361 H362 0.959 . S
C361 H363 0.960 . S
C361 H364 0.961 . S
H362 C361 0.959 . S
H363 C361 0.960 . S
H364 C361 0.961 . S
O365 Co340 1.967 . S
O365 C373 1.258 . S
O366 Co341 1.941 . S
O366 C373 1.266 . S
H367 C369 0.959 . S
H368 C369 0.961 . S
C369 C359 1.510 . S
C369 H367 0.959 . S
C369 H368 0.961 . S
C369 H370 0.960 . S
H370 C369 0.960 . S
H371 N351 0.862 . S
O372 Co340 1.920 . S
O372 C345 1.289 . S
C373 O365 1.258 . S
C373 O366 1.266 . S
Co374 O377 1.970 . S
Co374 N391 1.989 . S
Co374 O399 1.967 . S
Co374 O406 1.920 . S
Co375 O378 1.966 . S
Co375 N384 2.022 . S
Co375 N392 1.993 . S
Co375 O400 1.941 . S
C376 O377 1.258 . S
C376 O378 1.263 . S
O377 Co374 1.970 . S
O377 C376 1.258 . S
O378 Co375 1.966 . S
O378 C376 1.263 . S
C379 O380 1.235 . S
C379 O406 1.289 . S
O380 C379 1.235 . S
C381 C383 1.400 . S
C381 N384 1.351 . S
C381 C386 1.501 . S
C382 C383 1.387 . S
C382 N385 1.341 . S
C383 C381 1.400 . S
C383 C382 1.387 . S
N384 Co375 2.022 . S
N384 C381 1.351 . S
N384 N385 1.365 . S
N385 C382 1.341 . S
N385 N384 1.365 . S
N385 H405 0.862 . S
C386 C381 1.501 . S
C386 H387 0.961 . S
C386 H388 0.961 . S
C386 H389 0.960 . S
H387 C386 0.961 . S
H388 C386 0.961 . S
H389 C386 0.960 . S
C390 N391 1.342 . S
C390 C394 1.401 . S
C390 C395 1.499 . S
N391 Co374 1.989 . S
N391 C390 1.342 . S
N391 N392 1.388 . S
N392 Co375 1.993 . S
N392 N391 1.388 . S
N392 C393 1.346 . S
C393 N392 1.346 . S
C393 C394 1.396 . S
C393 C403 1.510 . S
C394 C390 1.401 . S
C394 C393 1.396 . S
C395 C390 1.499 . S
C395 H396 0.959 . S
C395 H397 0.960 . S
C395 H398 0.961 . S
H396 C395 0.959 . S
H397 C395 0.960 . S
H398 C395 0.961 . S
O399 Co374 1.967 . S
O399 C407 1.258 . S
O400 Co375 1.941 . S
O400 C407 1.266 . S
H401 C403 0.959 . S
H402 C403 0.961 . S
C403 C393 1.510 . S
C403 H401 0.959 . S
C403 H402 0.961 . S
C403 H404 0.960 . S
H404 C403 0.960 . S
H405 N385 0.862 . S
O406 Co374 1.920 . S
O406 C379 1.289 . S
C407 O399 1.258 . S
C407 O400 1.266 . S
H408 C416 0.950 1_556 S
H409 C421 0.950 . S
H410 C418 0.950 1_556 S
H411 C420 0.950 . S
H412 C422 0.950 . S
H413 C424 0.950 . S
H414 C426 0.950 1_556 S
H415 C427 0.950 1_556 S
C416 H408 0.950 1_554 S
C416 C417 1.386 . S
C416 C418 1.391 . S
C417 C416 1.386 . S
C417 C421 1.393 . S
C418 H410 0.950 1_554 S
C418 C416 1.391 . S
C418 C419 1.400 . S
C419 C418 1.400 . S
C419 C420 1.398 . S
C419 C425 1.491 . S
C420 H411 0.950 . S
C420 C419 1.398 . S
C420 C421 1.391 . S
C421 H409 0.950 . S
C421 C417 1.393 . S
C421 C420 1.391 . S
C422 H412 0.950 . S
C422 C423 1.386 . S
C422 C424 1.391 . S
C423 C422 1.386 . S
C423 C427 1.393 . S
C424 H413 0.950 . S
C424 C422 1.391 . S
C424 C425 1.400 . S
C425 C419 1.491 . S
C425 C424 1.400 . S
C425 C426 1.398 . S
C426 H414 0.950 1_554 S
C426 C425 1.398 . S
C426 C427 1.391 . S
C427 H415 0.950 1_554 S
C427 C423 1.393 . S
C427 C426 1.391 . S
H428 C436 0.950 . S
H429 C441 0.950 . S
H430 C438 0.950 . S
H431 C440 0.950 . S
H432 C442 0.950 . S
H433 C444 0.950 . S
H434 C446 0.950 . S
H435 C447 0.950 . S
C436 H428 0.950 . S
C436 C437 1.386 . S
C436 C438 1.391 . S
C437 C436 1.386 . S
C437 C441 1.393 . S
C438 H430 0.950 . S
C438 C436 1.391 . S
C438 C439 1.400 . S
C439 C438 1.400 . S
C439 C440 1.398 . S
C439 C445 1.491 . S
C440 H431 0.950 . S
C440 C439 1.398 . S
C440 C441 1.391 . S
C441 H429 0.950 . S
C441 C437 1.393 . S
C441 C440 1.391 . S
C442 H432 0.950 . S
C442 C443 1.386 . S
C442 C444 1.391 . S
C443 C442 1.386 . S
C443 C447 1.393 . S
C444 H433 0.950 . S
C444 C442 1.391 . S
C444 C445 1.400 . S
C445 C439 1.491 . S
C445 C444 1.400 . S
C445 C446 1.398 . S
C446 H434 0.950 . S
C446 C445 1.398 . S
C446 C447 1.391 . S
C447 H435 0.950 . S
C447 C443 1.393 . S
C447 C446 1.391 . S
H448 C456 0.950 . S
H449 C461 0.950 . S
H450 C458 0.950 . S
H451 C460 0.950 . S
H452 C462 0.950 . S
H453 C464 0.950 . S
H454 C466 0.950 . S
H455 C467 0.950 . S
C456 H448 0.950 . S
C456 C457 1.386 . S
C456 C458 1.391 . S
C457 C456 1.386 . S
C457 C461 1.393 . S
C458 H450 0.950 . S
C458 C456 1.391 . S
C458 C459 1.400 . S
C459 C458 1.400 . S
C459 C460 1.398 . S
C459 C465 1.491 . S
C460 H451 0.950 . S
C460 C459 1.398 . S
C460 C461 1.391 . S
C461 H449 0.950 . S
C461 C457 1.393 . S
C461 C460 1.391 . S
C462 H452 0.950 . S
C462 C463 1.386 . S
C462 C464 1.391 . S
C463 C462 1.386 . S
C463 C467 1.393 . S
C464 H453 0.950 . S
C464 C462 1.391 . S
C464 C465 1.400 . S
C465 C459 1.491 . S
C465 C464 1.400 . S
C465 C466 1.398 . S
C466 H454 0.950 . S
C466 C465 1.398 . S
C466 C467 1.391 . S
C467 H455 0.950 . S
C467 C463 1.393 . S
C467 C466 1.391 . S
H468 C476 0.950 . S
H469 C481 0.950 . S
H470 C478 0.950 . S
H471 C480 0.950 . S
H472 C482 0.950 . S
H473 C484 0.950 . S
H474 C486 0.950 . S
H475 C487 0.950 . S
C476 H468 0.950 . S
C476 C477 1.386 . S
C476 C478 1.391 . S
C477 C476 1.386 . S
C477 C481 1.393 . S
C478 H470 0.950 . S
C478 C476 1.391 . S
C478 C479 1.400 . S
C479 C478 1.400 . S
C479 C480 1.398 . S
C479 C485 1.491 . S
C480 H471 0.950 . S
C480 C479 1.398 . S
C480 C481 1.391 . S
C481 H469 0.950 . S
C481 C477 1.393 . S
C481 C480 1.391 . S
C482 H472 0.950 . S
C482 C483 1.386 . S
C482 C484 1.391 . S
C483 C482 1.386 . S
C483 C487 1.393 . S
C484 H473 0.950 . S
C484 C482 1.391 . S
C484 C485 1.400 . S
C485 C479 1.491 . S
C485 C484 1.400 . S
C485 C486 1.398 . S
C486 H474 0.950 . S
C486 C485 1.398 . S
C486 C487 1.391 . S
C487 H475 0.950 . S
C487 C483 1.393 . S
C487 C486 1.391 . S
H488 C496 0.950 . S
H489 C501 0.950 . S
H490 C498 0.950 . S
H491 C500 0.950 . S
H492 C502 0.950 . S
H493 C504 0.950 . S
H494 C506 0.950 . S
H495 C507 0.950 . S
C496 H488 0.950 . S
C496 C497 1.386 . S
C496 C498 1.391 . S
C497 C496 1.386 . S
C497 C501 1.393 . S
C498 H490 0.950 . S
C498 C496 1.391 . S
C498 C499 1.400 . S
C499 C498 1.400 . S
C499 C500 1.398 . S
C499 C505 1.491 . S
C500 H491 0.950 . S
C500 C499 1.398 . S
C500 C501 1.391 . S
C501 H489 0.950 . S
C501 C497 1.393 . S
C501 C500 1.391 . S
C502 H492 0.950 . S
C502 C503 1.386 . S
C502 C504 1.391 . S
C503 C502 1.386 . S
C503 C507 1.393 . S
C504 H493 0.950 . S
C504 C502 1.391 . S
C504 C505 1.400 . S
C505 C499 1.491 . S
C505 C504 1.400 . S
C505 C506 1.398 . S
C506 H494 0.950 . S
C506 C505 1.398 . S
C506 C507 1.391 . S
C507 H495 0.950 . S
C507 C503 1.393 . S
C507 C506 1.391 . S
H508 C516 0.950 . S
H509 C521 0.950 1_554 S
H510 C518 0.950 . S
H511 C520 0.950 1_554 S
H512 C522 0.950 1_554 S
H513 C524 0.950 1_554 S
H514 C526 0.950 . S
H515 C527 0.950 . S
C516 H508 0.950 . S
C516 C517 1.386 . S
C516 C518 1.391 . S
C517 C516 1.386 . S
C517 C521 1.393 . S
C518 H510 0.950 . S
C518 C516 1.391 . S
C518 C519 1.400 . S
C519 C518 1.400 . S
C519 C520 1.398 . S
C519 C525 1.491 . S
C520 H511 0.950 1_556 S
C520 C519 1.398 . S
C520 C521 1.391 . S
C521 H509 0.950 1_556 S
C521 C517 1.393 . S
C521 C520 1.391 . S
C522 H512 0.950 1_556 S
C522 C523 1.386 . S
C522 C524 1.391 . S
C523 C522 1.386 . S
C523 C527 1.393 . S
C524 H513 0.950 1_556 S
C524 C522 1.391 . S
C524 C525 1.400 . S
C525 C519 1.491 . S
C525 C524 1.400 . S
C525 C526 1.398 . S
C526 H514 0.950 . S
C526 C525 1.398 . S
C526 C527 1.391 . S
C527 H515 0.950 . S
C527 C523 1.393 . S
C527 C526 1.391 . S
H528 C536 0.950 . S
H529 C541 0.946 1_554 S
H530 C538 0.950 . S
H531 C540 0.946 . S
H532 C542 0.950 . S
H533 C544 0.950 . S
H534 C546 0.946 . S
H535 C547 0.950 . S
C536 H528 0.950 . S
C536 C537 1.386 . S
C536 C538 1.391 . S
C537 C536 1.386 . S
C537 C541 1.393 . S
C538 H530 0.950 . S
C538 C536 1.391 . S
C538 C539 1.400 . S
C539 C538 1.400 . S
C539 C540 1.400 1_455 S
C539 C545 1.491 1_455 S
C540 H531 0.946 . S
C540 C539 1.400 1_655 S
C540 C541 1.397 1_655 S
C541 H529 0.946 1_556 S
C541 C537 1.393 . S
C541 C540 1.397 1_455 S
C542 H532 0.950 . S
C542 C543 1.386 . S
C542 C544 1.391 . S
C543 C542 1.386 . S
C543 C547 1.393 . S
C544 H533 0.950 . S
C544 C542 1.391 . S
C544 C545 1.400 . S
C545 C539 1.491 1_655 S
C545 C544 1.400 . S
C545 C546 1.400 1_655 S
C546 H534 0.946 . S
C546 C545 1.400 1_455 S
C546 C547 1.393 1_455 S
C547 H535 0.950 . S
C547 C543 1.393 . S
C547 C546 1.393 1_655 S
H548 C556 0.950 . S
H549 C561 0.950 . S
H550 C558 0.950 . S
H551 C560 0.950 . S
H552 C562 0.950 . S
H553 C564 0.950 . S
H554 C566 0.950 . S
H555 C567 0.950 . S
C556 H548 0.950 . S
C556 C557 1.386 . S
C556 C558 1.391 . S
C557 C556 1.386 . S
C557 C561 1.393 . S
C558 H550 0.950 . S
C558 C556 1.391 . S
C558 C559 1.400 . S
C559 C558 1.400 . S
C559 C560 1.398 . S
C559 C565 1.491 1_566 S
C560 H551 0.950 . S
C560 C559 1.398 . S
C560 C561 1.391 . S
C561 H549 0.950 . S
C561 C557 1.393 . S
C561 C560 1.391 . S
C562 H552 0.950 . S
C562 C563 1.386 . S
C562 C564 1.391 . S
C563 C562 1.386 . S
C563 C567 1.393 . S
C564 H553 0.950 . S
C564 C562 1.391 . S
C564 C565 1.400 . S
C565 C559 1.491 1_544 S
C565 C564 1.400 . S
C565 C566 1.398 . S
C566 H554 0.950 . S
C566 C565 1.398 . S
C566 C567 1.391 . S
C567 H555 0.950 . S
C567 C563 1.393 . S
C567 C566 1.391 . S
H568 C576 0.950 . S
H569 C581 0.950 . S
H570 C578 0.950 . S
H571 C580 0.950 . S
H572 C582 0.950 . S
H573 C584 0.950 . S
H574 C586 0.950 . S
H575 C587 0.950 1_556 S
C576 H568 0.950 . S
C576 C577 1.386 . S
C576 C578 1.391 . S
C577 C576 1.386 . S
C577 C581 1.393 . S
C578 H570 0.950 . S
C578 C576 1.391 . S
C578 C579 1.400 . S
C579 C578 1.400 . S
C579 C580 1.398 . S
C579 C585 1.491 . S
C580 H571 0.950 . S
C580 C579 1.398 . S
C580 C581 1.391 . S
C581 H569 0.950 . S
C581 C577 1.393 . S
C581 C580 1.391 . S
C582 H572 0.950 . S
C582 C583 1.386 . S
C582 C584 1.391 . S
C583 C582 1.386 . S
C583 C587 1.393 . S
C584 H573 0.950 . S
C584 C582 1.391 . S
C584 C585 1.400 . S
C585 C579 1.491 . S
C585 C584 1.400 . S
C585 C586 1.398 . S
C586 H574 0.950 . S
C586 C585 1.398 . S
C586 C587 1.391 . S
C587 H575 0.950 1_554 S
C587 C583 1.393 . S
C587 C586 1.391 . S
H588 C596 0.950 . S
H589 C601 0.950 . S
H590 C598 0.950 . S
H591 C600 0.950 . S
H592 C602 0.950 . S
H593 C604 0.950 . S
H594 C606 0.950 . S
H595 C607 0.950 . S
C596 H588 0.950 . S
C596 C597 1.386 . S
C596 C598 1.391 . S
C597 C596 1.386 . S
C597 C601 1.393 . S
C598 H590 0.950 . S
C598 C596 1.391 . S
C598 C599 1.400 . S
C599 C598 1.400 . S
C599 C600 1.398 . S
C599 C605 1.491 1_655 S
C600 H591 0.950 . S
C600 C599 1.398 . S
C600 C601 1.391 . S
C601 H589 0.950 . S
C601 C597 1.393 . S
C601 C600 1.391 . S
C602 H592 0.950 . S
C602 C603 1.386 . S
C602 C604 1.391 . S
C603 C602 1.386 . S
C603 C607 1.393 . S
C604 H593 0.950 . S
C604 C602 1.391 . S
C604 C605 1.400 . S
C605 C599 1.491 1_455 S
C605 C604 1.400 . S
C605 C606 1.398 . S
C606 H594 0.950 . S
C606 C605 1.398 . S
C606 C607 1.391 . S
C607 H595 0.950 . S
C607 C603 1.393 . S
C607 C606 1.391 . S
H608 C616 0.950 . S
H609 C621 0.950 . S
H610 C618 0.950 . S
H611 C620 0.950 . S
H612 C622 0.950 . S
H613 C624 0.950 . S
H614 C626 0.950 . S
H615 C627 0.950 . S
C616 H608 0.950 . S
C616 C617 1.386 . S
C616 C618 1.391 . S
C617 C616 1.386 . S
C617 C621 1.393 . S
C618 H610 0.950 . S
C618 C616 1.391 . S
C618 C619 1.400 . S
C619 C618 1.400 . S
C619 C620 1.398 . S
C619 C625 1.491 1_545 S
C620 H611 0.950 . S
C620 C619 1.398 . S
C620 C621 1.391 . S
C621 H609 0.950 . S
C621 C617 1.393 . S
C621 C620 1.391 . S
C622 H612 0.950 . S
C622 C623 1.386 . S
C622 C624 1.391 . S
C623 C622 1.386 . S
C623 C627 1.393 . S
C624 H613 0.950 . S
C624 C622 1.391 . S
C624 C625 1.400 . S
C625 C619 1.491 1_565 S
C625 C624 1.400 . S
C625 C626 1.398 . S
C626 H614 0.950 . S
C626 C625 1.398 . S
C626 C627 1.391 . S
C627 H615 0.950 . S
C627 C623 1.393 . S
C627 C626 1.391 . S
H628 C636 0.950 . S
H629 C641 0.950 . S
H630 C638 0.950 . S
H631 C640 0.950 . S
H632 C642 0.950 . S
H633 C644 0.950 . S
H634 C646 0.950 . S
H635 C647 0.950 . S
C636 H628 0.950 . S
C636 C637 1.386 . S
C636 C638 1.391 . S
C637 C636 1.386 . S
C637 C641 1.393 . S
C638 H630 0.950 . S
C638 C636 1.391 . S
C638 C639 1.400 . S
C639 C638 1.400 . S
C639 C640 1.398 . S
C639 C645 1.491 . S
C640 H631 0.950 . S
C640 C639 1.398 . S
C640 C641 1.391 . S
C641 H629 0.950 . S
C641 C637 1.393 . S
C641 C640 1.391 . S
C642 H632 0.950 . S
C642 C643 1.386 . S
C642 C644 1.391 . S
C643 C642 1.386 . S
C643 C647 1.393 . S
C644 H633 0.950 . S
C644 C642 1.391 . S
C644 C645 1.400 . S
C645 C639 1.491 . S
C645 C644 1.400 . S
C645 C646 1.398 . S
C646 H634 0.950 . S
C646 C645 1.398 . S
C646 C647 1.391 . S
C647 H635 0.950 . S
C647 C643 1.393 . S
C647 C646 1.391 . S
H648 C656 0.950 . S
H649 C661 0.950 . S
H650 C658 0.950 . S
H651 C660 0.950 . S
H652 C662 0.950 . S
H653 C664 0.950 . S
H654 C666 0.950 . S
H655 C667 0.950 . S
C656 H648 0.950 . S
C656 C657 1.386 . S
C656 C658 1.391 . S
C657 C656 1.386 . S
C657 C661 1.393 . S
C658 H650 0.950 . S
C658 C656 1.391 . S
C658 C659 1.400 . S
C659 C658 1.400 . S
C659 C660 1.398 . S
C659 C665 1.491 . S
C660 H651 0.950 . S
C660 C659 1.398 . S
C660 C661 1.391 . S
C661 H649 0.950 . S
C661 C657 1.393 . S
C661 C660 1.391 . S
C662 H652 0.950 . S
C662 C663 1.386 . S
C662 C664 1.391 . S
C663 C662 1.386 . S
C663 C667 1.393 . S
C664 H653 0.950 . S
C664 C662 1.391 . S
C664 C665 1.400 . S
C665 C659 1.491 . S
C665 C664 1.400 . S
C665 C666 1.398 . S
C666 H654 0.950 . S
C666 C665 1.398 . S
C666 C667 1.391 . S
C667 H655 0.950 . S
C667 C663 1.393 . S
C667 C666 1.391 . S
H668 C676 0.950 . S
H669 C681 0.950 . S
H670 C678 0.950 . S
H671 C680 0.950 . S
H672 C682 0.950 . S
H673 C684 0.950 . S
H674 C686 0.950 . S
H675 C687 0.950 . S
C676 H668 0.950 . S
C676 C677 1.386 . S
C676 C678 1.391 . S
C677 C676 1.386 . S
C677 C681 1.393 . S
C678 H670 0.950 . S
C678 C676 1.391 . S
C678 C679 1.400 . S
C679 C678 1.400 . S
C679 C680 1.398 . S
C679 C685 1.491 . S
C680 H671 0.950 . S
C680 C679 1.398 . S
C680 C681 1.391 . S
C681 H669 0.950 . S
C681 C677 1.393 . S
C681 C680 1.391 . S
C682 H672 0.950 . S
C682 C683 1.386 . S
C682 C684 1.391 . S
C683 C682 1.386 . S
C683 C687 1.393 . S
C684 H673 0.950 . S
C684 C682 1.391 . S
C684 C685 1.400 . S
C685 C679 1.491 . S
C685 C684 1.400 . S
C685 C686 1.398 . S
C686 H674 0.950 . S
C686 C685 1.398 . S
C686 C687 1.391 . S
C687 H675 0.950 . S
C687 C683 1.393 . S
C687 C686 1.391 . S
H688 C696 0.950 . S
H689 C701 0.950 . S
H690 C698 0.950 . S
H691 C700 0.950 . S
H692 C702 0.950 . S
H693 C704 0.950 . S
H694 C706 0.950 . S
H695 C707 0.950 . S
C696 H688 0.950 . S
C696 C697 1.386 . S
C696 C698 1.391 . S
C697 C696 1.386 . S
C697 C701 1.393 . S
C698 H690 0.950 . S
C698 C696 1.391 . S
C698 C699 1.400 . S
C699 C698 1.400 . S
C699 C700 1.398 . S
C699 C705 1.491 . S
C700 H691 0.950 . S
C700 C699 1.398 . S
C700 C701 1.391 . S
C701 H689 0.950 . S
C701 C697 1.393 . S
C701 C700 1.391 . S
C702 H692 0.950 . S
C702 C703 1.386 . S
C702 C704 1.391 . S
C703 C702 1.386 . S
C703 C707 1.393 . S
C704 H693 0.950 . S
C704 C702 1.391 . S
C704 C705 1.400 . S
C705 C699 1.491 . S
C705 C704 1.400 . S
C705 C706 1.398 . S
C706 H694 0.950 . S
C706 C705 1.398 . S
C706 C707 1.391 . S
C707 H695 0.950 . S
C707 C703 1.393 . S
C707 C706 1.391 . S
H708 C716 0.950 . S
H709 C721 0.950 . S
H710 C718 0.950 . S
H711 C720 0.950 . S
H712 C722 0.950 . S
H713 C724 0.950 . S
H714 C726 0.950 . S
H715 C727 0.950 . S
C716 H708 0.950 . S
C716 C717 1.386 . S
C716 C718 1.391 . S
C717 C716 1.386 . S
C717 C721 1.393 . S
C718 H710 0.950 . S
C718 C716 1.391 . S
C718 C719 1.400 . S
C719 C718 1.400 . S
C719 C720 1.398 . S
C719 C725 1.491 . S
C720 H711 0.950 . S
C720 C719 1.398 . S
C720 C721 1.391 . S
C721 H709 0.950 . S
C721 C717 1.393 . S
C721 C720 1.391 . S
C722 H712 0.950 . S
C722 C723 1.386 . S
C722 C724 1.391 . S
C723 C722 1.386 . S
C723 C727 1.393 . S
C724 H713 0.950 . S
C724 C722 1.391 . S
C724 C725 1.400 . S
C725 C719 1.491 . S
C725 C724 1.400 . S
C725 C726 1.398 . S
C726 H714 0.950 . S
C726 C725 1.398 . S
C726 C727 1.391 . S
C727 H715 0.950 . S
C727 C723 1.393 . S
C727 C726 1.391 . S
H728 C736 0.950 . S
H729 C741 0.950 . S
H730 C738 0.950 . S
H731 C740 0.950 . S
H732 C742 0.950 1_554 S
H733 C744 0.950 . S
H734 C746 0.950 . S
H735 C747 0.950 . S
C736 H728 0.950 . S
C736 C737 1.386 . S
C736 C738 1.391 . S
C737 C736 1.386 . S
C737 C741 1.393 . S
C738 H730 0.950 . S
C738 C736 1.391 . S
C738 C739 1.400 . S
C739 C738 1.400 . S
C739 C740 1.398 . S
C739 C745 1.491 . S
C740 H731 0.950 . S
C740 C739 1.398 . S
C740 C741 1.391 . S
C741 H729 0.950 . S
C741 C737 1.393 . S
C741 C740 1.391 . S
C742 H732 0.950 1_556 S
C742 C743 1.386 1_556 S
C742 C744 1.391 . S
C743 C742 1.386 1_554 S
C743 C747 1.393 1_554 S
C744 H733 0.950 . S
C744 C742 1.391 . S
C744 C745 1.400 . S
C745 C739 1.491 . S
C745 C744 1.400 . S
C745 C746 1.398 . S
C746 H734 0.950 . S
C746 C745 1.398 . S
C746 C747 1.391 . S
C747 H735 0.950 . S
C747 C743 1.393 1_556 S
C747 C746 1.391 . S
H748 C756 0.950 . S
H749 C761 0.950 . S
H750 C758 0.950 . S
H751 C760 0.950 . S
H752 C762 0.950 1_556 S
H753 C764 0.950 . S
H754 C766 0.950 . S
H755 C767 0.946 1_556 S
C756 H748 0.950 . S
C756 C757 1.386 . S
C756 C758 1.391 . S
C757 C756 1.386 . S
C757 C761 1.393 . S
C758 H750 0.950 . S
C758 C756 1.391 . S
C758 C759 1.400 . S
C759 C758 1.400 . S
C759 C760 1.398 . S
C759 C765 1.491 . S
C760 H751 0.950 . S
C760 C759 1.398 . S
C760 C761 1.391 . S
C761 H749 0.950 . S
C761 C757 1.393 . S
C761 C760 1.391 . S
C762 H752 0.950 1_554 S
C762 C763 1.386 1_554 S
C762 C764 1.391 . S
C763 C762 1.386 1_556 S
C763 C767 1.390 1_556 S
C764 H753 0.950 . S
C764 C762 1.391 . S
C764 C765 1.400 . S
C765 C759 1.491 . S
C765 C764 1.400 . S
C765 C766 1.398 . S
C766 H754 0.950 . S
C766 C765 1.398 . S
C766 C767 1.398 . S
C767 H755 0.946 1_554 S
C767 C763 1.390 1_554 S
C767 C766 1.398 . S
H768 C776 0.950 . S
H769 C781 0.950 . S
H770 C778 0.950 . S
H771 C780 0.950 . S
H772 C782 0.950 . S
H773 C784 0.950 . S
H774 C786 0.950 . S
H775 C787 0.950 . S
C776 H768 0.950 . S
C776 C777 1.386 . S
C776 C778 1.391 . S
C777 C776 1.386 . S
C777 C781 1.393 . S
C778 H770 0.950 . S
C778 C776 1.391 . S
C778 C779 1.400 . S
C779 C778 1.400 . S
C779 C780 1.398 . S
C779 C785 1.491 . S
C780 H771 0.950 . S
C780 C779 1.398 . S
C780 C781 1.391 . S
C781 H769 0.950 . S
C781 C777 1.393 . S
C781 C780 1.391 . S
C782 H772 0.950 . S
C782 C783 1.386 . S
C782 C784 1.391 . S
C783 C782 1.386 . S
C783 C787 1.393 . S
C784 H773 0.950 . S
C784 C782 1.391 . S
C784 C785 1.400 . S
C785 C779 1.491 . S
C785 C784 1.400 . S
C785 C786 1.398 . S
C786 H774 0.950 . S
C786 C785 1.398 . S
C786 C787 1.391 . S
C787 H775 0.950 . S
C787 C783 1.393 . S
C787 C786 1.391 . S
H788 C796 0.950 . S
H789 C801 0.950 . S
H790 C798 0.950 . S
H791 C800 0.950 . S
H792 C802 0.950 . S
H793 C804 0.950 . S
H794 C806 0.950 . S
H795 C807 0.950 . S
C796 H788 0.950 . S
C796 C797 1.386 . S
C796 C798 1.391 . S
C797 C796 1.386 . S
C797 C801 1.393 . S
C798 H790 0.950 . S
C798 C796 1.391 . S
C798 C799 1.400 . S
C799 C798 1.400 . S
C799 C800 1.398 . S
C799 C805 1.491 . S
C800 H791 0.950 . S
C800 C799 1.398 . S
C800 C801 1.391 . S
C801 H789 0.950 . S
C801 C797 1.393 . S
C801 C800 1.391 . S
C802 H792 0.950 . S
C802 C803 1.386 . S
C802 C804 1.391 . S
C803 C802 1.386 . S
C803 C807 1.393 . S
C804 H793 0.950 . S
C804 C802 1.391 . S
C804 C805 1.400 . S
C805 C799 1.491 . S
C805 C804 1.400 . S
C805 C806 1.398 . S
C806 H794 0.950 . S
C806 C805 1.398 . S
C806 C807 1.391 . S
C807 H795 0.950 . S
C807 C803 1.393 . S
C807 C806 1.391 . S
H808 C816 0.950 . S
H809 C821 0.950 . S
H810 C818 0.950 . S
H811 C820 0.950 . S
H812 C822 0.950 . S
H813 C824 0.950 1_556 S
H814 C826 0.948 1_556 S
H815 C827 0.950 . S
C816 H808 0.950 . S
C816 C817 1.386 . S
C816 C818 1.391 . S
C817 C816 1.386 . S
C817 C821 1.393 . S
C818 H810 0.950 . S
C818 C816 1.391 . S
C818 C819 1.400 . S
C819 C818 1.400 . S
C819 C820 1.398 . S
C819 C825 1.491 . S
C820 H811 0.950 . S
C820 C819 1.398 . S
C820 C821 1.391 . S
C821 H809 0.950 . S
C821 C817 1.393 . S
C821 C820 1.391 . S
C822 H812 0.950 . S
C822 C823 1.386 . S
C822 C824 1.391 . S
C823 C822 1.386 . S
C823 C827 1.393 . S
C824 H813 0.950 1_554 S
C824 C822 1.391 . S
C824 C825 1.400 1_554 S
C825 C819 1.491 . S
C825 C824 1.400 1_556 S
C825 C826 1.398 1_556 S
C826 H814 0.948 1_554 S
C826 C825 1.398 1_554 S
C826 C827 1.391 . S
C827 H815 0.950 . S
C827 C823 1.393 . S
C827 C826 1.391 . S
H828 C836 0.950 . S
H829 C841 0.950 . S
H830 C838 0.950 . S
H831 C840 0.950 . S
H832 C842 0.950 . S
H833 C844 0.950 . S
H834 C846 0.950 . S
H835 C847 0.950 . S
C836 H828 0.950 . S
C836 C837 1.386 . S
C836 C838 1.391 1_556 S
C837 C836 1.386 . S
C837 C841 1.393 . S
C838 H830 0.950 . S
C838 C836 1.391 1_554 S
C838 C839 1.400 . S
C839 C838 1.400 . S
C839 C840 1.398 . S
C839 C845 1.491 . S
C840 H831 0.950 . S
C840 C839 1.398 . S
C840 C841 1.391 1_554 S
C841 H829 0.950 . S
C841 C837 1.393 . S
C841 C840 1.391 1_556 S
C842 H832 0.950 . S
C842 C843 1.386 . S
C842 C844 1.391 . S
C843 C842 1.386 . S
C843 C847 1.393 . S
C844 H833 0.950 . S
C844 C842 1.391 . S
C844 C845 1.400 . S
C845 C839 1.491 . S
C845 C844 1.400 . S
C845 C846 1.398 . S
C846 H834 0.950 . S
C846 C845 1.398 . S
C846 C847 1.391 . S
C847 H835 0.950 . S
C847 C843 1.393 . S
C847 C846 1.391 . S
H848 C856 0.950 . S
H849 C861 0.950 . S
H850 C858 0.950 . S
H851 C860 0.950 . S
H852 C862 0.950 . S
H853 C864 0.950 . S
H854 C866 0.950 . S
H855 C867 0.950 . S
C856 H848 0.950 . S
C856 C857 1.386 . S
C856 C858 1.391 . S
C857 C856 1.386 . S
C857 C861 1.393 . S
C858 H850 0.950 . S
C858 C856 1.391 . S
C858 C859 1.400 . S
C859 C858 1.400 . S
C859 C860 1.398 . S
C859 C865 1.491 . S
C860 H851 0.950 . S
C860 C859 1.398 . S
C860 C861 1.391 . S
C861 H849 0.950 . S
C861 C857 1.393 . S
C861 C860 1.391 . S
C862 H852 0.950 . S
C862 C863 1.386 . S
C862 C864 1.391 . S
C863 C862 1.386 . S
C863 C867 1.393 . S
C864 H853 0.950 . S
C864 C862 1.391 . S
C864 C865 1.400 . S
C865 C859 1.491 . S
C865 C864 1.400 . S
C865 C866 1.398 . S
C866 H854 0.950 . S
C866 C865 1.398 . S
C866 C867 1.391 . S
C867 H855 0.950 . S
C867 C863 1.393 . S
C867 C866 1.391 . S
H868 C876 0.950 . S
H869 C881 0.950 . S
H870 C878 0.950 . S
H871 C880 0.950 . S
H872 C882 0.950 . S
H873 C884 0.950 . S
H874 C886 0.950 . S
H875 C887 0.950 . S
C876 H868 0.950 . S
C876 C877 1.386 . S
C876 C878 1.391 . S
C877 C876 1.386 . S
C877 C881 1.393 . S
C878 H870 0.950 . S
C878 C876 1.391 . S
C878 C879 1.400 . S
C879 C878 1.400 . S
C879 C880 1.398 . S
C879 C885 1.491 . S
C880 H871 0.950 . S
C880 C879 1.398 . S
C880 C881 1.391 . S
C881 H869 0.950 . S
C881 C877 1.393 . S
C881 C880 1.391 . S
C882 H872 0.950 . S
C882 C883 1.386 . S
C882 C884 1.391 . S
C883 C882 1.386 . S
C883 C887 1.393 . S
C884 H873 0.950 . S
C884 C882 1.391 . S
C884 C885 1.400 . S
C885 C879 1.491 . S
C885 C884 1.400 . S
C885 C886 1.398 . S
C886 H874 0.950 . S
C886 C885 1.398 . S
C886 C887 1.391 . S
C887 H875 0.950 . S
C887 C883 1.393 . S
C887 C886 1.391 . S
H888 C896 0.950 . S
H889 C901 0.950 . S
H890 C898 0.950 . S
H891 C900 0.950 . S
H892 C902 0.950 . S
H893 C904 0.950 . S
H894 C906 0.950 . S
H895 C907 0.950 . S
C896 H888 0.950 . S
C896 C897 1.386 . S
C896 C898 1.391 . S
C897 C896 1.386 . S
C897 C901 1.393 . S
C898 H890 0.950 . S
C898 C896 1.391 . S
C898 C899 1.400 . S
C899 C898 1.400 . S
C899 C900 1.398 . S
C899 C905 1.491 . S
C900 H891 0.950 . S
C900 C899 1.398 . S
C900 C901 1.391 . S
C901 H889 0.950 . S
C901 C897 1.393 . S
C901 C900 1.391 . S
C902 H892 0.950 . S
C902 C903 1.386 . S
C902 C904 1.391 . S
C903 C902 1.386 . S
C903 C907 1.393 . S
C904 H893 0.950 . S
C904 C902 1.391 . S
C904 C905 1.400 . S
C905 C899 1.491 . S
C905 C904 1.400 . S
C905 C906 1.398 . S
C906 H894 0.950 . S
C906 C905 1.398 . S
C906 C907 1.391 . S
C907 H895 0.950 . S
C907 C903 1.393 . S
C907 C906 1.391 . S
H908 C916 0.950 . S
H909 C921 0.950 . S
H910 C918 0.950 . S
H911 C920 0.950 . S
H912 C922 0.950 . S
H913 C924 0.950 . S
H914 C926 0.950 . S
H915 C927 0.950 . S
C916 H908 0.950 . S
C916 C917 1.386 . S
C916 C918 1.391 . S
C917 C916 1.386 . S
C917 C921 1.393 . S
C918 H910 0.950 . S
C918 C916 1.391 . S
C918 C919 1.400 . S
C919 C918 1.400 . S
C919 C920 1.398 . S
C919 C925 1.491 . S
C920 H911 0.950 . S
C920 C919 1.398 . S
C920 C921 1.391 . S
C921 H909 0.950 . S
C921 C917 1.393 . S
C921 C920 1.391 . S
C922 H912 0.950 . S
C922 C923 1.386 . S
C922 C924 1.391 . S
C923 C922 1.386 . S
C923 C927 1.393 . S
C924 H913 0.950 . S
C924 C922 1.391 . S
C924 C925 1.400 . S
C925 C919 1.491 . S
C925 C924 1.400 . S
C925 C926 1.398 . S
C926 H914 0.950 . S
C926 C925 1.398 . S
C926 C927 1.391 . S
C927 H915 0.950 . S
C927 C923 1.393 . S
C927 C926 1.391 . S
H928 C936 0.950 . S
H929 C941 0.950 . S
H930 C938 0.950 . S
H931 C940 0.950 . S
H932 C942 0.950 . S
H933 C944 0.950 . S
H934 C946 0.950 . S
H935 C947 0.950 . S
C936 H928 0.950 . S
C936 C937 1.386 . S
C936 C938 1.391 . S
C937 C936 1.386 . S
C937 C941 1.393 . S
C938 H930 0.950 . S
C938 C936 1.391 . S
C938 C939 1.400 . S
C939 C938 1.400 . S
C939 C940 1.398 . S
C939 C945 1.491 . S
C940 H931 0.950 . S
C940 C939 1.398 . S
C940 C941 1.391 . S
C941 H929 0.950 . S
C941 C937 1.393 . S
C941 C940 1.391 . S
C942 H932 0.950 . S
C942 C943 1.386 . S
C942 C944 1.391 . S
C943 C942 1.386 . S
C943 C947 1.393 . S
C944 H933 0.950 . S
C944 C942 1.391 . S
C944 C945 1.400 . S
C945 C939 1.491 . S
C945 C944 1.400 . S
C945 C946 1.398 . S
C946 H934 0.950 . S
C946 C945 1.398 . S
C946 C947 1.391 . S
C947 H935 0.950 . S
C947 C943 1.393 . S
C947 C946 1.391 . S
H948 C956 0.950 . S
H949 C961 0.950 . S
H950 C958 0.950 . S
H951 C960 0.950 . S
H952 C962 0.950 . S
H953 C964 0.950 . S
H954 C966 0.950 . S
H955 C967 0.950 . S
C956 H948 0.950 . S
C956 C957 1.386 . S
C956 C958 1.391 . S
C957 C956 1.386 . S
C957 C961 1.393 . S
C958 H950 0.950 . S
C958 C956 1.391 . S
C958 C959 1.400 . S
C959 C958 1.400 . S
C959 C960 1.398 . S
C959 C965 1.491 . S
C960 H951 0.950 . S
C960 C959 1.398 . S
C960 C961 1.391 . S
C961 H949 0.950 . S
C961 C957 1.393 . S
C961 C960 1.391 . S
C962 H952 0.950 . S
C962 C963 1.386 . S
C962 C964 1.391 . S
C963 C962 1.386 . S
C963 C967 1.393 . S
C964 H953 0.950 . S
C964 C962 1.391 . S
C964 C965 1.400 . S
C965 C959 1.491 . S
C965 C964 1.400 . S
C965 C966 1.398 . S
C966 H954 0.950 . S
C966 C965 1.398 . S
C966 C967 1.391 . S
C967 H955 0.950 . S
C967 C963 1.393 . S
C967 C966 1.391 . S
H968 C976 0.950 . S
H969 C981 0.950 . S
H970 C978 0.950 . S
H971 C980 0.950 . S
H972 C982 0.950 . S
H973 C984 0.950 . S
H974 C986 0.950 . S
H975 C987 0.950 . S
C976 H968 0.950 . S
C976 C977 1.386 . S
C976 C978 1.391 . S
C977 C976 1.386 . S
C977 C981 1.393 . S
C978 H970 0.950 . S
C978 C976 1.391 . S
C978 C979 1.400 . S
C979 C978 1.400 . S
C979 C980 1.398 . S
C979 C985 1.491 . S
C980 H971 0.950 . S
C980 C979 1.398 . S
C980 C981 1.391 . S
C981 H969 0.950 . S
C981 C977 1.393 . S
C981 C980 1.391 . S
C982 H972 0.950 . S
C982 C983 1.386 . S
C982 C984 1.391 1_554 S
C983 C982 1.386 . S
C983 C987 1.393 . S
C984 H973 0.950 . S
C984 C982 1.391 1_556 S
C984 C985 1.400 . S
C985 C979 1.491 . S
C985 C984 1.400 . S
C985 C986 1.398 . S
C986 H974 0.950 . S
C986 C985 1.398 . S
C986 C987 1.391 1_556 S
C987 H975 0.950 . S
C987 C983 1.393 . S
C987 C986 1.391 1_554 S
H988 C996 0.950 . S
H989 C1001 0.950 . S
H990 C998 0.950 . S
H991 C1000 0.950 . S
H992 C1002 0.950 . S
H993 C1004 0.950 . S
H994 C1006 0.949 1_554 S
H995 C1007 0.950 . S
C996 H988 0.950 . S
C996 C997 1.386 . S
C996 C998 1.391 . S
C997 C996 1.386 . S
C997 C1001 1.393 . S
C998 H990 0.950 . S
C998 C996 1.391 . S
C998 C999 1.400 . S
C999 C998 1.400 . S
C999 C1000 1.398 . S
C999 C1005 1.491 . S
C1000 H991 0.950 . S
C1000 C999 1.398 . S
C1000 C1001 1.391 . S
C1001 H989 0.950 . S
C1001 C997 1.393 . S
C1001 C1000 1.391 . S
C1002 H992 0.950 . S
C1002 C1003 1.386 . S
C1002 C1004 1.391 . S
C1003 C1002 1.386 . S
C1003 C1007 1.393 . S
C1004 H993 0.950 . S
C1004 C1002 1.391 . S
C1004 C1005 1.400 1_556 S
C1005 C999 1.491 . S
C1005 C1004 1.400 1_554 S
C1005 C1006 1.398 1_554 S
C1006 H994 0.949 1_556 S
C1006 C1005 1.398 1_556 S
C1006 C1007 1.392 . S
C1007 H995 0.950 . S
C1007 C1003 1.393 . S
C1007 C1006 1.392 . S
C417 C305 1.536 . S
C423 C33 1.532 . S
C437 C339 1.529 . S
C443 C67 1.532 . S
C457 C373 1.535 . S
C463 C101 1.538 . S
C477 C407 1.529 . S
C483 C135 1.533 . S
C497 C169 1.536 . S
C503 C237 1.532 . S
C517 C271 1.536 . S
C523 C203 1.531 . S
C537 C2 1.718 1_556 S
C543 C376 1.713 . S
C557 C206 1.697 . S
C563 C36 1.698 . S
C577 C70 1.721 . S
C583 C240 1.717 1_554 S
C597 C104 1.725 . S
C603 C274 1.725 . S
C617 C308 1.724 . S
C623 C138 1.725 . S
C637 C172 1.709 . S
C643 C342 1.713 . S
C657 C20 1.599 . S
C663 C360 1.600 . S
C677 C54 1.597 . S
C683 C394 1.599 . S
C697 C224 1.600 . S
C703 C88 1.601 . S
C717 C258 1.594 . S
C723 C122 1.592 . S
C737 C156 1.590 . S
C743 C292 1.590 . S
C757 C326 1.600 . S
C763 C190 1.600 . S
C777 C9 0.814 . S
C783 C5 0.875 . S
C797 C39 0.906 1_556 S
C803 C43 0.840 . S
C817 C77 0.818 . S
C823 C73 0.875 . S
C837 C111 0.817 . S
C843 C107 0.888 . S
C857 C141 0.875 . S
C863 C145 0.813 . S
C877 C175 0.906 . S
C883 C179 0.840 . S
C897 C209 0.898 1_554 S
C903 C213 0.863 . S
C917 C243 0.917 . S
C923 C247 0.884 . S
C937 C277 0.907 . S
C943 C281 0.841 . S
C957 C311 0.876 . S
C963 C315 0.822 . S
C977 C345 0.875 . S
C983 C349 0.817 . S
C997 C383 0.865 . S
C1003 C379 0.921 . S
