# Generated by pormake.
# Topology lcy, (6)-cn, num edge types: 1
# Building blocks:
#     Node 0, Type 0, BuildingBlock: MIDCAF_clean_sbu_0, # of connection points: 6
#     Node 1, Type 0, BuildingBlock: MIDCAF_clean_sbu_0, # of connection points: 6
#     Node 2, Type 0, BuildingBlock: MIDCAF_clean_sbu_0, # of connection points: 6
#     Node 3, Type 0, BuildingBlock: MIDCAF_clean_sbu_0, # of connection points: 6
#     Edge 4, Type (0, 0), BuildingBlock: ZUJKAS_clean_linker_0, # of connection points: 2
#     Edge 5, Type (0, 0), BuildingBlock: ZUJKAS_clean_linker_0, # of connection points: 2
#     Edge 6, Type (0, 0), BuildingBlock: ZUJKAS_clean_linker_0, # of connection points: 2
#     Edge 7, Type (0, 0), BuildingBlock: ZUJKAS_clean_linker_0, # of connection points: 2
#     Edge 8, Type (0, 0), BuildingBlock: ZUJKAS_clean_linker_0, # of connection points: 2
#     Edge 9, Type (0, 0), BuildingBlock: ZUJKAS_clean_linker_0, # of connection points: 2
#     Edge 10, Type (0, 0), BuildingBlock: ZUJKAS_clean_linker_0, # of connection points: 2
#     Edge 11, Type (0, 0), BuildingBlock: ZUJKAS_clean_linker_0, # of connection points: 2
#     Edge 12, Type (0, 0), BuildingBlock: ZUJKAS_clean_linker_0, # of connection points: 2
#     Edge 13, Type (0, 0), BuildingBlock: ZUJKAS_clean_linker_0, # of connection points: 2
#     Edge 14, Type (0, 0), BuildingBlock: ZUJKAS_clean_linker_0, # of connection points: 2
#     Edge 15, Type (0, 0), BuildingBlock: ZUJKAS_clean_linker_0, # of connection points: 2
# Relax obj value: 0.076
# Max RMSD: 0.123
# Mean RMSD: 0.122
data_MOF--net-lcy--node1-MIDCAF_clean_sbu_0--edge1-ZUJKAS_clean_linker_0
_symmetry_space_group_name_H-M    P1
_symmetry_Int_Tables_number       1
_symmetry_cell_setting            triclinic
loop_
_symmetry_equiv_pos_as_xyz
'x, y, z'
_cell_length_a     32.549718
_cell_length_b     32.458512
_cell_length_c     32.41849
_cell_angle_alpha  90.246368
_cell_angle_beta   90.527991
_cell_angle_gamma 90.018165
loop_
_atom_site_label
_atom_site_type_symbol
_atom_site_fract_x
_atom_site_fract_y
_atom_site_fract_z
_atom_type_partial_charge
Zn0 Zn 0.32379 0.32774 0.31804 0.0
Zn1 Zn 0.42566 0.41155 0.42382 0.0
Zn2 Zn 0.37396 0.36919 0.37309 0.0
C3 C 0.35026 0.40362 0.46433 0.0
C4 C 0.41521 0.45663 0.35086 0.0
O5 O 0.40204 0.30935 0.35813 0.0
O6 O 0.36236 0.28088 0.30983 0.0
C7 C 0.28523 0.33543 0.39654 0.0
O8 O 0.34085 0.38345 0.4312 0.0
O9 O 0.38579 0.41871 0.46886 0.0
O10 O 0.43396 0.45821 0.38512 0.0
O11 O 0.39145 0.42611 0.34191 0.0
O12 O 0.27975 0.32188 0.36026 0.0
O13 O 0.31832 0.35489 0.40657 0.0
O14 O 0.35994 0.40786 0.31829 0.0
O15 O 0.32 0.3717 0.27589 0.0
C16 C 0.33886 0.40466 0.28454 0.0
O17 O 0.43019 0.33227 0.38242 0.0
O18 O 0.46778 0.36726 0.42787 0.0
C19 C 0.39368 0.27954 0.33307 0.0
C20 C 0.46275 0.33602 0.405 0.0
Zn21 Zn 0.82137 0.17485 0.65198 0.0
Zn22 Zn 0.91438 0.06492 0.56779 0.0
Zn23 Zn 0.86867 0.12097 0.60986 0.0
C24 C 0.96161 0.13692 0.58422 0.0
C25 C 0.84801 0.08775 0.51723 0.0
O26 O 0.85264 0.09204 0.66819 0.0
O27 O 0.82041 0.14091 0.70324 0.0
C28 C 0.89498 0.21478 0.63549 0.0
O29 O 0.92747 0.15035 0.59871 0.0
O30 O 0.96469 0.10045 0.57076 0.0
O31 O 0.87957 0.06511 0.51704 0.0
O32 O 0.83901 0.10927 0.5494 0.0
O33 O 0.85949 0.22227 0.64897 0.0
O34 O 0.90387 0.17874 0.62129 0.0
O35 O 0.8114 0.13122 0.57428 0.0
O36 O 0.77408 0.1731 0.61295 0.0
C37 C 0.77805 0.15154 0.58073 0.0
O38 O 0.87923 0.06465 0.64752 0.0
O39 O 0.90963 0.01877 0.60733 0.0
C40 C 0.83488 0.10485 0.70112 0.0
C41 C 0.8945 0.02844 0.64175 0.0
Zn42 Zn 0.1684 0.67639 0.83864 0.0
Zn43 Zn 0.06791 0.57411 0.92924 0.0
Zn44 Zn 0.11753 0.62287 0.8799 0.0
C45 C 0.14087 0.58722 0.97192 0.0
C46 C 0.08125 0.53506 0.85129 0.0
O47 O 0.08448 0.68071 0.86495 0.0
O48 O 0.128 0.7222 0.83322 0.0
C49 C 0.20618 0.6569 0.91373 0.0
O50 O 0.14754 0.60962 0.93993 0.0
O51 O 0.10852 0.56601 0.97464 0.0
O52 O 0.06299 0.53115 0.8853 0.0
O53 O 0.10376 0.56684 0.84412 0.0
O54 O 0.21095 0.68014 0.88301 0.0
O55 O 0.174 0.63403 0.9167 0.0
O56 O 0.13492 0.58986 0.82369 0.0
O57 O 0.17541 0.635 0.79294 0.0
C58 C 0.1585 0.59988 0.79366 0.0
O59 O 0.05986 0.65567 0.88973 0.0
O60 O 0.02484 0.61803 0.93434 0.0
C61 C 0.09272 0.71527 0.84746 0.0
C62 C 0.02813 0.64988 0.91234 0.0
Zn63 Zn 0.67779 0.83182 0.16546 0.0
Zn64 Zn 0.56365 0.91975 0.06877 0.0
Zn65 Zn 0.62011 0.87364 0.11578 0.0
C66 C 0.57698 0.95921 0.14532 0.0
C67 C 0.53216 0.83911 0.08449 0.0
O68 O 0.67564 0.86364 0.07953 0.0
O69 O 0.72008 0.83214 0.12099 0.0
C70 C 0.65843 0.90751 0.20295 0.0
O71 O 0.60113 0.92824 0.15049 0.0
O72 O 0.55755 0.96398 0.11174 0.0
O73 O 0.52358 0.87294 0.06723 0.0
O74 O 0.56637 0.83439 0.10414 0.0
O75 O 0.67945 0.87542 0.20949 0.0
O76 O 0.63531 0.91038 0.17067 0.0
O77 O 0.59357 0.8142 0.13154 0.0
O78 O 0.64072 0.7828 0.17009 0.0
C79 C 0.60575 0.78305 0.15275 0.0
O80 O 0.64925 0.89085 0.05809 0.0
O81 O 0.60334 0.92694 0.02245 0.0
C82 C 0.71097 0.84699 0.08608 0.0
C83 C 0.6389 0.91162 0.02593 0.0
H84 H 0.17832 0.51828 -0.00136 0.0
H85 H 0.22759 0.51178 0.05581 0.0
H86 H 0.2207 0.64277 0.07775 0.0
H87 H 0.17233 0.64951 0.01928 0.0
H88 H 0.30963 0.56574 0.0716 0.0
H89 H 0.18386 0.57323 0.18712 0.0
H90 H 0.17241 0.55626 0.13518 0.0
H91 H 0.18616 0.60894 0.14466 0.0
C92 C 0.18787 0.54569 0.01536 0.0
C93 C 0.17195 0.58434 0.0048 0.0
C94 C 0.21605 0.54203 0.04774 0.0
C95 C 0.22805 0.57684 0.07061 0.0
C96 C 0.21232 0.61568 0.06002 0.0
H97 H 0.33003 0.48639 0.30337 0.0
H98 H 0.31466 0.54256 0.25495 0.0
C99 C 0.18463 0.61946 0.02692 0.0
C100 C 0.25442 0.5708 0.10737 0.0
H101 H 0.24562 0.54141 0.20761 0.0
C102 C 0.29609 0.56157 0.10175 0.0
C103 C 0.23685 0.5663 0.14675 0.0
C104 C 0.19238 0.57672 0.15421 0.0
C105 C 0.31966 0.54429 0.13377 0.0
C106 C 0.30055 0.53484 0.17158 0.0
C107 C 0.26018 0.54828 0.17848 0.0
C108 C 0.31811 0.50405 0.20041 0.0
C109 C 0.36415 0.53423 0.12607 0.0
C110 C 0.32555 0.46397 0.18581 0.0
C111 C 0.33396 0.43207 0.21325 0.0
C112 C 0.33535 0.43961 0.25585 0.0
C113 C 0.32962 0.47998 0.27055 0.0
C114 C 0.32089 0.512 0.24298 0.0
H115 H 0.37815 0.55743 0.10536 0.0
H116 H 0.38222 0.53306 0.15528 0.0
H117 H 0.3662 0.50379 0.1105 0.0
H118 H 0.32244 0.45676 0.15327 0.0
H119 H 0.3381 0.40117 0.20121 0.0
H120 H 0.66276 0.90605 0.2866 0.0
H121 H 0.67715 0.96403 0.33295 0.0
H122 H 0.67955 0.04651 0.22897 0.0
H123 H 0.66512 0.98834 0.18244 0.0
H124 H 0.74996 0.04863 0.27536 0.0
H125 H 0.61742 0.06593 0.37749 0.0
H126 H 0.63089 0.01243 0.37464 0.0
H127 H 0.61386 0.03881 0.32874 0.0
C128 C 0.66553 0.9367 0.27383 0.0
C129 C 0.66268 0.94291 0.23116 0.0
C130 C 0.67318 0.9699 0.30029 0.0
C131 C 0.67858 0.00976 0.28448 0.0
C132 C 0.67477 0.01616 0.24185 0.0
H133 H 0.80876 0.15293 0.48027 0.0
H134 H 0.76248 0.15004 0.41947 0.0
C135 C 0.66669 0.98296 0.21538 0.0
C136 C 0.69535 0.0423 0.31194 0.0
H137 H 0.68616 0.07636 0.41094 0.0
C138 C 0.73538 0.05627 0.30436 0.0
C139 C 0.67613 0.053 0.34942 0.0
C140 C 0.63198 0.04208 0.35775 0.0
C141 C 0.7586 0.07548 0.33555 0.0
C142 C 0.74129 0.08059 0.37496 0.0
C143 C 0.69957 0.07179 0.38081 0.0
C144 C 0.76822 0.0841 0.41159 0.0
C145 C 0.80292 0.08609 0.32767 0.0
C146 C 0.78657 0.04809 0.42671 0.0
C147 C 0.81266 0.04964 0.46091 0.0
C148 C 0.82053 0.08721 0.48093 0.0
C149 C 0.80257 0.12353 0.46555 0.0
C150 C 0.77636 0.12197 0.43097 0.0
H151 H 0.8091 0.0891 0.29417 0.0
H152 H 0.81143 0.11532 0.34352 0.0
H153 H 0.82285 0.06128 0.34022 0.0
H154 H 0.78071 0.01866 0.41187 0.0
H155 H 0.82629 0.0213 0.47207 0.0
H156 H 0.15229 0.51557 0.7939 0.0
H157 H 0.16417 0.46822 0.73665 0.0
H158 H 0.20464 0.57034 0.66224 0.0
H159 H 0.18658 0.61794 0.71713 0.0
H160 H 0.1669 0.52254 0.61529 0.0
H161 H 0.26969 0.42242 0.70919 0.0
H162 H 0.21726 0.4223 0.72536 0.0
H163 H 0.24757 0.46867 0.72999 0.0
C164 C 0.16162 0.52799 0.76461 0.0
C165 C 0.16677 0.57061 0.7596 0.0
C166 C 0.16977 0.50071 0.73217 0.0
C167 C 0.18609 0.51531 0.695 0.0
C168 C 0.19176 0.55798 0.6903 0.0
H169 H 0.3668 0.42288 0.54411 0.0
H170 H 0.31892 0.44234 0.59749 0.0
C171 C 0.18183 0.58528 0.72197 0.0
C172 C 0.19915 0.48702 0.66121 0.0
H173 H 0.26464 0.40803 0.63895 0.0
C174 C 0.18837 0.4975 0.62049 0.0
C175 C 0.22647 0.45363 0.6679 0.0
C176 C 0.24121 0.44124 0.7104 0.0
C177 C 0.20749 0.47902 0.58647 0.0
C178 C 0.23612 0.44679 0.59324 0.0
C179 C 0.2432 0.43311 0.63377 0.0
C180 C 0.26412 0.43163 0.56037 0.0
C181 C 0.19916 0.4968 0.54423 0.0
C182 C 0.24973 0.41872 0.52136 0.0
C183 C 0.27751 0.40966 0.48981 0.0
C184 C 0.32006 0.41067 0.49748 0.0
C185 C 0.33421 0.42157 0.53709 0.0
C186 C 0.3067 0.43233 0.56791 0.0
H187 H 0.18375 0.52729 0.54595 0.0
H188 H 0.22809 0.50063 0.5268 0.0
H189 H 0.17856 0.47574 0.52667 0.0
H190 H 0.21714 0.4167 0.51484 0.0
H191 H 0.26568 0.40309 0.45924 0.0
H192 H 0.71985 0.9298 0.03692 0.0
H193 H 0.76855 0.95184 0.98407 0.0
H194 H 0.67453 0.93696 0.89064 0.0
H195 H 0.62592 0.91425 0.9432 0.0
H196 H 0.78859 0.91473 0.89096 0.0
H197 H 0.71152 0.06674 0.91051 0.0
H198 H 0.71231 0.02833 0.95063 0.0
H199 H 0.67886 0.02207 0.90676 0.0
C200 C 0.71005 0.92997 0.00491 0.0
C201 C 0.66936 0.92008 0.99389 0.0
C202 C 0.73785 0.94245 0.97486 0.0
C203 C 0.72501 0.94563 0.93365 0.0
C204 C 0.68492 0.93414 0.92235 0.0
H205 H 0.81038 0.02479 0.70051 0.0
H206 H 0.79399 0.98244 0.76054 0.0
C207 C 0.65718 0.92162 0.95232 0.0
C208 C 0.75062 0.96751 0.9037 0.0
H209 H 0.75661 0.05969 0.85471 0.0
C210 C 0.78211 0.94655 0.88314 0.0
C211 C 0.74235 0.00912 0.89442 0.0
C212 C 0.70963 0.03317 0.91682 0.0
C213 C 0.80462 0.96605 0.85195 0.0
C214 C 0.79468 0.00709 0.84109 0.0
C215 C 0.76425 0.02826 0.86304 0.0
C216 C 0.81292 0.02846 0.80546 0.0
C217 C 0.83855 0.94265 0.83087 0.0
C218 C 0.82914 0.06824 0.81075 0.0
C219 C 0.83753 0.09266 0.77659 0.0
C220 C 0.83047 0.07742 0.73664 0.0
C221 C 0.81638 0.0369 0.73117 0.0
C222 C 0.80748 0.01259 0.76541 0.0
H223 H 0.85098 0.91782 0.85092 0.0
H224 H 0.82614 0.92802 0.80238 0.0
H225 H 0.86408 0.96346 0.82211 0.0
H226 H 0.8333 0.08117 0.84138 0.0
H227 H 0.84853 0.12385 0.78138 0.0
H228 H 0.04041 0.11833 0.60389 0.0
H229 H 0.10131 0.16074 0.59187 0.0
H230 H 0.02393 0.25813 0.54477 0.0
H231 H 0.96304 0.21622 0.55807 0.0
H232 H 0.12218 0.18053 0.51741 0.0
H233 H 0.10784 0.32501 0.60658 0.0
H234 H 0.07735 0.27994 0.61763 0.0
H235 H 0.06191 0.31486 0.57732 0.0
C236 C 0.03654 0.14922 0.59193 0.0
C237 C -0.00265 0.16425 0.5819 0.0
C238 C 0.0712 0.17346 0.58529 0.0
C239 C 0.0672 0.21281 0.56789 0.0
C240 C 0.02779 0.2284 0.55931 0.0
H241 H 0.20256 0.33201 0.3861 0.0
H242 H 0.15211 0.30674 0.43556 0.0
C243 C 0.99305 0.20433 0.5665 0.0
C244 C 0.10392 0.23424 0.55211 0.0
H245 H 0.15006 0.32848 0.54491 0.0
C246 C 0.12881 0.21259 0.52432 0.0
C247 C 0.11263 0.27609 0.56105 0.0
C248 C 0.08873 0.30013 0.59264 0.0
C249 C 0.1607 0.23218 0.50355 0.0
C250 C 0.16755 0.27456 0.51041 0.0
C251 C 0.14422 0.29597 0.5396 0.0
C252 C 0.19663 0.29711 0.48449 0.0
C253 C 0.1858 0.20798 0.47292 0.0
C254 C 0.238 0.30056 0.49626 0.0
C255 C 0.26686 0.31472 0.46802 0.0
C256 C 0.25447 0.32573 0.42791 0.0
C257 C 0.21274 0.32379 0.4169 0.0
C258 C 0.18397 0.30973 0.44511 0.0
H259 H 0.17948 0.17438 0.4744 0.0
H260 H 0.17862 0.21881 0.44122 0.0
H261 H 0.21908 0.21319 0.47864 0.0
H262 H 0.24818 0.29037 0.52645 0.0
H263 H 0.29901 0.3155 0.47697 0.0
H264 H 0.09278 0.79209 0.8803 0.0
H265 H 0.04528 0.84844 0.86381 0.0
H266 H 0.97603 0.76658 0.78414 0.0
H267 H 0.02282 0.71012 0.80182 0.0
H268 H 0.0391 0.87918 0.79063 0.0
H269 H 0.88405 0.8296 0.83523 0.0
H270 H 0.92971 0.80259 0.85177 0.0
H271 H 0.9066 0.79146 0.80227 0.0
C272 C 0.06661 0.78606 0.86027 0.0
C273 C 0.06088 0.74695 0.84265 0.0
C274 C 0.03952 0.81813 0.85086 0.0
C275 C 0.00666 0.81176 0.82311 0.0
C276 C 0.00031 0.77213 0.80652 0.0
H277 H 0.88662 0.9453 0.6376 0.0
H278 H 0.90715 0.89544 0.69033 0.0
C279 C 0.02715 0.73993 0.81639 0.0
C280 C 0.9833 0.84752 0.80658 0.0
H281 H 0.88706 0.88028 0.77931 0.0
C282 C 0.00581 0.87993 0.78921 0.0
C283 C 0.93982 0.84853 0.80446 0.0
C284 C 0.91369 0.81631 0.82485 0.0
C285 C 0.9863 0.91196 0.76784 0.0
C286 C 0.94301 0.91182 0.76394 0.0
C287 C 0.92024 0.88038 0.78256 0.0
C288 C 0.92191 0.94152 0.73652 0.0
C289 C 0.01234 0.94445 0.74747 0.0
C290 C 0.92194 0.98383 0.74569 0.0
C291 C 0.91045 0.01237 0.7155 0.0
C292 C 0.89834 -0.00111 0.67598 0.0
C293 C 0.89573 0.95643 0.66789 0.0
C294 C 0.9072 0.92796 0.69801 0.0
H295 H 0.04561 0.9369 0.74875 0.0
H296 H 0.00302 0.94821 0.71466 0.0
H297 H 0.00773 0.97444 0.76331 0.0
H298 H 0.93316 0.99481 0.77532 0.0
H299 H 0.91344 0.04494 0.72227 0.0
H300 H 0.25296 0.59332 0.94299 0.0
H301 H 0.31187 0.5989 0.99121 0.0
H302 H 0.28691 0.72853 0.0067 0.0
H303 H 0.22932 0.72323 0.95806 0.0
H304 H 0.37716 0.66042 0.96943 0.0
H305 H 0.31557 0.6869 0.1264 0.0
H306 H 0.29278 0.65134 0.08983 0.0
H307 H 0.28429 0.70567 0.08435 0.0
C308 C 0.25978 0.62269 0.95751 0.0
C309 C 0.23707 0.65797 0.94699 0.0
C310 C 0.29314 0.62579 0.98504 0.0
C311 C 0.30327 0.664 0.00291 0.0
C312 C 0.27906 0.69862 0.9939 0.0
H313 H 0.44931 0.84498 0.08389 0.0
H314 H 0.39948 0.7901 0.0715 0.0
C315 C 0.24647 0.6957 0.96591 0.0
C316 C 0.34276 0.67057 0.02482 0.0
H317 H 0.37984 0.71847 0.11112 0.0
C318 C 0.37843 0.67173 0.00096 0.0
C319 C 0.34412 0.68506 0.0659 0.0
C320 C 0.30726 0.68204 0.09342 0.0
C321 C 0.41404 0.69177 0.01535 0.0
C322 C 0.41394 0.71018 0.05505 0.0
C323 C 0.37972 0.70475 0.08055 0.0
C324 C 0.4449 0.74153 0.06726 0.0
C325 C 0.44972 0.69669 0.98635 0.0
C326 C 0.48703 0.73243 0.06959 0.0
C327 C 0.51567 0.76407 0.07598 0.0
C328 C 0.50246 0.80498 0.08108 0.0
C329 C 0.46028 0.81369 0.08014 0.0
C330 C 0.43181 0.78228 0.0734 0.0
H331 H 0.44241 0.68536 0.95474 0.0
H332 H 0.45895 0.72955 0.98435 0.0
H333 H 0.47639 0.67891 -0.00181 0.0
H334 H 0.49784 0.70117 0.06542 0.0
H335 H 0.54811 0.75675 0.07569 0.0
H336 H 0.42616 0.24937 0.26321 0.0
H337 H 0.47173 0.18995 0.25574 0.0
H338 H 0.46877 0.17008 0.38716 0.0
H339 H 0.42325 0.23044 0.39484 0.0
H340 H 0.55419 0.17421 0.30527 0.0
H341 H 0.42753 0.05981 0.32191 0.0
H342 H 0.41562 0.11155 0.3055 0.0
H343 H 0.43318 0.10262 0.35725 0.0
C344 C 0.43542 0.23242 0.29047 0.0
C345 C 0.42161 0.24429 0.32954 0.0
C346 C 0.46153 0.19875 0.28626 0.0
C347 C 0.47365 0.17597 0.32093 0.0
C348 C 0.45971 0.18749 0.36014 0.0
H349 H 0.56996 0.94267 0.22723 0.0
H350 H 0.55626 0.99195 0.28313 0.0
C351 C 0.43386 0.22173 0.36446 0.0
C352 C 0.49897 0.13892 0.31442 0.0
H353 H 0.48629 0.03867 0.28573 0.0
C354 C 0.5399 0.14415 0.30234 0.0
C355 C 0.48046 0.09969 0.31124 0.0
C356 C 0.43679 0.09266 0.32469 0.0
C357 C 0.56139 0.11205 0.28315 0.0
C358 C 0.54091 0.07444 0.27505 0.0
C359 C 0.50175 0.06776 0.29152 0.0
C360 C 0.55564 0.04527 0.24331 0.0
C361 C 0.60487 0.11955 0.26944 0.0
C362 C 0.55967 0.05896 0.20249 0.0
C363 C 0.56715 0.03098 0.17067 0.0
C364 C 0.57103 0.98888 0.17918 0.0
C365 C 0.56765 0.97516 0.22008 0.0
C366 C 0.55992 0.00318 0.25196 0.0
H367 H 0.6211 0.14063 0.29123 0.0
H368 H 0.62246 0.09037 0.26712 0.0
H369 H 0.60432 0.13447 0.2387 0.0
H370 H 0.55528 0.09115 0.19494 0.0
H371 H 0.56944 0.04219 0.13934 0.0
H372 H 0.74075 0.22008 0.55382 0.0
H373 H 0.68742 0.22623 0.50112 0.0
H374 H 0.68862 0.09438 0.48298 0.0
H375 H 0.74256 0.08821 0.53649 0.0
H376 H 0.68937 0.20264 0.41746 0.0
H377 H 0.56714 0.11922 0.50295 0.0
H378 H 0.61392 0.1346 0.52902 0.0
H379 H 0.61491 0.09393 0.49136 0.0
C380 C 0.72964 0.1924 0.5386 0.0
C381 C 0.74576 0.15375 0.54884 0.0
C382 C 0.69943 0.19592 0.50825 0.0
C383 C 0.68428 0.16084 0.48771 0.0
C384 C 0.69989 0.12188 0.49827 0.0
H385 H 0.49762 0.29309 0.34122 0.0
H386 H 0.54851 0.23725 0.34674 0.0
C387 C 0.73063 0.11837 0.52871 0.0
C388 C 0.65081 0.16671 0.45702 0.0
H389 H 0.54619 0.16894 0.45528 0.0
C390 C 0.65796 0.19432 0.42463 0.0
C391 C 0.61008 0.15477 0.46577 0.0
C392 C 0.60068 0.12401 0.49911 0.0
C393 C 0.62544 0.21559 0.40558 0.0
C394 C 0.58483 0.20798 0.41873 0.0
C395 C 0.5775 0.17535 0.44606 0.0
C396 C 0.55201 0.23929 0.41347 0.0
C397 C 0.63524 0.24921 0.37521 0.0
C398 C 0.53682 0.25873 0.44899 0.0
C399 C 0.50787 0.29012 0.44586 0.0
C400 C 0.49316 0.30258 0.40717 0.0
C401 C 0.50825 0.28345 0.37143 0.0
C402 C 0.53744 0.25181 0.37456 0.0
H403 H 0.66883 0.25326 0.37101 0.0
H404 H 0.62135 0.24149 0.34476 0.0
H405 H 0.62209 0.27898 0.38569 0.0
H406 H 0.548 0.25011 0.47934 0.0
H407 H 0.49682 0.30458 0.47383 0.0
H408 H 0.08486 0.45304 0.86382 0.0
H409 H 0.06751 0.39816 0.81482 0.0
H410 H 0.04538 0.48877 0.72016 0.0
H411 H 0.06388 0.54389 0.76917 0.0
H412 H 0.99057 0.39458 0.78232 0.0
H413 H 0.10428 0.39781 0.65526 0.0
H414 H 0.11523 0.41839 0.70603 0.0
H415 H 0.08371 0.44692 0.67056 0.0
C416 C 0.07715 0.46111 0.83229 0.0
C417 C 0.07567 0.50247 0.82008 0.0
C418 C 0.06746 0.42981 0.8043 0.0
C419 C 0.05557 0.4393 0.76372 0.0
C420 C 0.0554 0.48065 0.75101 0.0
H421 H 0.88486 0.29619 0.62117 0.0
H422 H 0.93023 0.35196 0.64433 0.0
C423 C 0.06556 0.51209 0.77903 0.0
C424 C 0.03737 0.40654 0.73736 0.0
H425 H 0.04499 0.35588 0.64511 0.0
C426 C 0.00282 0.38588 0.75251 0.0
C427 C 0.05328 0.3954 0.69839 0.0
C428 C 0.09135 0.41549 0.68154 0.0
C429 C 0.98366 0.35446 0.72987 0.0
C430 C -0.00097 0.34372 0.69068 0.0
C431 C 0.03355 0.36421 0.67526 0.0
C432 C 0.97839 0.31139 0.66593 0.0
C433 C 0.94678 0.333 0.74786 0.0
C434 C 0.99143 0.27029 0.6689 0.0
C435 C 0.96547 0.23832 0.65578 0.0
C436 C 0.92636 0.24728 0.63951 0.0
C437 C 0.91493 0.28856 0.63357 0.0
C438 C 0.94086 0.3204 0.6465 0.0
H439 H 0.94181 0.34158 0.78066 0.0
H440 H 0.91886 0.34144 0.7299 0.0
H441 H 0.95049 0.29906 0.74576 0.0
H442 H 0.02016 0.26285 0.68427 0.0
H443 H 0.97466 0.20673 0.66125 0.0
H444 H 0.00951 0.69724 0.97794 0.0
H445 H 0.95252 0.74622 0.98389 0.0
H446 H 0.91731 0.72145 0.85756 0.0
H447 H 0.97459 0.67225 0.85167 0.0
H448 H 0.92737 0.81935 0.93106 0.0
H449 H 0.81754 0.68717 0.9325 0.0
H450 H 0.87167 0.6795 0.94225 0.0
H451 H 0.85388 0.69144 0.89118 0.0
C452 C 0.98986 0.7028 0.95137 0.0
C453 C -0.00389 0.68144 0.91436 0.0
C454 C 0.95763 0.73085 0.95464 0.0
C455 C 0.93088 0.73741 0.92114 0.0
C456 C 0.93776 0.71683 0.88367 0.0
H457 H 0.69481 0.83151 0.00476 0.0
H458 H 0.7449 0.81618 0.95072 0.0
C459 C 0.97032 0.68892 0.88032 0.0
C460 C 0.89357 0.76233 0.92771 0.0
H461 H 0.794 0.7506 0.95674 0.0
C462 C 0.89783 0.80466 0.93563 0.0
C463 C 0.85499 0.74318 0.93288 0.0
C464 C 0.84888 0.69782 0.92441 0.0
C465 C 0.86511 0.82769 0.95159 0.0
C466 C 0.82803 0.8074 0.96128 0.0
C467 C 0.8226 0.76605 0.94961 0.0
C468 C 0.79805 0.82538 0.99031 0.0
C469 C 0.8711 0.87309 0.95958 0.0
C470 C 0.81133 0.83614 0.03027 0.0
C471 C 0.78291 0.84482 0.061 0.0
C472 C 0.74067 0.84298 0.05233 0.0
C473 C 0.72729 0.83374 0.012 0.0
C474 C 0.75581 0.82501 0.98117 0.0
H475 H 0.89189 0.88674 0.93631 0.0
H476 H 0.84142 0.88998 0.95891 0.0
H477 H 0.88567 0.87748 0.99037 0.0
H478 H 0.84367 0.83542 0.03843 0.0
H479 H 0.79394 0.85165 0.09191 0.0
H480 H 0.62553 0.70285 0.14243 0.0
H481 H 0.58314 0.64286 0.1586 0.0
H482 H 0.48373 0.72347 0.19349 0.0
H483 H 0.5257 0.78343 0.17574 0.0
H484 H 0.5609 0.6305 0.23489 0.0
H485 H 0.41961 0.63199 0.13813 0.0
H486 H 0.46569 0.65953 0.12433 0.0
H487 H 0.43083 0.68106 0.16136 0.0
C488 C 0.59426 0.70754 0.15263 0.0
C489 C 0.57868 0.7474 0.15801 0.0
C490 C 0.57001 0.67339 0.16158 0.0
C491 C 0.53008 0.67861 0.17681 0.0
C492 C 0.51397 0.71857 0.18073 0.0
H493 H 0.42229 0.53827 0.36635 0.0
H494 H 0.44417 0.59172 0.31826 0.0
C495 C 0.53808 0.75279 0.17113 0.0
C496 C 0.50868 0.64318 0.19554 0.0
H497 H 0.41682 0.59245 0.2008 0.0
C498 C 0.52966 0.6218 0.22679 0.0
C499 C 0.46792 0.63174 0.185 0.0
C500 C 0.44479 0.652 0.15008 0.0
C501 C 0.51065 0.59034 0.24879 0.0
C502 C 0.46922 0.58059 0.23997 0.0
C503 C 0.44847 0.60062 0.20771 0.0
C504 C 0.44733 0.55064 0.26567 0.0
C505 C 0.53482 0.5683 0.28201 0.0
C506 C 0.44064 0.51036 0.25139 0.0
C507 C 0.42833 0.47977 0.27887 0.0
C508 C 0.42233 0.48939 0.32068 0.0
C509 C 0.42685 0.53022 0.33425 0.0
C510 C 0.439 0.56071 0.30684 0.0
H511 H 0.56844 0.57307 0.27878 0.0
H512 H 0.5256 0.58031 0.31266 0.0
H513 H 0.52839 0.5347 0.28124 0.0
H514 H 0.44728 0.50212 0.21973 0.0
H515 H 0.42552 0.44831 0.26792 0.0
loop_
_geom_bond_atom_site_label_1
_geom_bond_atom_site_label_2
_geom_bond_distance
_geom_bond_site_symmetry_2
_ccdc_geom_bond_type
Zn0 O6 1.920 . S
Zn0 O12 1.898 . S
Zn0 O15 1.905 . S
Zn1 O9 1.905 . S
Zn1 O10 1.898 . S
Zn1 O18 1.920 . S
Zn2 O5 2.080 . S
Zn2 O8 2.114 . S
Zn2 O11 2.120 . S
Zn2 O13 2.120 . S
Zn2 O14 2.114 . S
Zn2 O17 2.080 . S
C3 O8 1.166 . S
C3 O9 1.182 . S
C4 O10 1.167 . S
C4 O11 1.299 . S
O5 Zn2 2.080 . S
O5 C19 1.305 . S
O6 Zn0 1.920 . S
O6 C19 1.234 . S
C7 O12 1.167 . S
C7 O13 1.299 . S
O8 Zn2 2.114 . S
O8 C3 1.166 . S
O9 Zn1 1.905 . S
O9 C3 1.182 . S
O10 Zn1 1.898 . S
O10 C4 1.167 . S
O11 Zn2 2.120 . S
O11 C4 1.299 . S
O12 Zn0 1.898 . S
O12 C7 1.167 . S
O13 Zn2 2.120 . S
O13 C7 1.299 . S
O14 Zn2 2.114 . S
O14 C16 1.166 . S
O15 Zn0 1.905 . S
O15 C16 1.182 . S
C16 O14 1.166 . S
C16 O15 1.182 . S
O17 Zn2 2.080 . S
O17 C20 1.305 . S
O18 Zn1 1.920 . S
O18 C20 1.234 . S
C19 O5 1.305 . S
C19 O6 1.234 . S
C20 O17 1.305 . S
C20 O18 1.234 . S
Zn21 O27 1.920 . S
Zn21 O33 1.898 . S
Zn21 O36 1.905 . S
Zn22 O30 1.905 . S
Zn22 O31 1.898 . S
Zn22 O39 1.920 . S
Zn23 O26 2.080 . S
Zn23 O29 2.114 . S
Zn23 O32 2.120 . S
Zn23 O34 2.120 . S
Zn23 O35 2.114 . S
Zn23 O38 2.080 . S
C24 O29 1.166 . S
C24 O30 1.182 . S
C25 O31 1.167 . S
C25 O32 1.299 . S
O26 Zn23 2.080 . S
O26 C40 1.305 . S
O27 Zn21 1.920 . S
O27 C40 1.234 . S
C28 O33 1.167 . S
C28 O34 1.299 . S
O29 Zn23 2.114 . S
O29 C24 1.166 . S
O30 Zn22 1.905 . S
O30 C24 1.182 . S
O31 Zn22 1.898 . S
O31 C25 1.167 . S
O32 Zn23 2.120 . S
O32 C25 1.299 . S
O33 Zn21 1.898 . S
O33 C28 1.167 . S
O34 Zn23 2.120 . S
O34 C28 1.299 . S
O35 Zn23 2.114 . S
O35 C37 1.166 . S
O36 Zn21 1.905 . S
O36 C37 1.182 . S
C37 O35 1.166 . S
C37 O36 1.182 . S
O38 Zn23 2.080 . S
O38 C41 1.305 . S
O39 Zn22 1.920 . S
O39 C41 1.234 . S
C40 O26 1.305 . S
C40 O27 1.234 . S
C41 O38 1.305 . S
C41 O39 1.234 . S
Zn42 O48 1.920 . S
Zn42 O54 1.898 . S
Zn42 O57 1.905 . S
Zn43 O51 1.905 . S
Zn43 O52 1.898 . S
Zn43 O60 1.920 . S
Zn44 O47 2.080 . S
Zn44 O50 2.114 . S
Zn44 O53 2.120 . S
Zn44 O55 2.120 . S
Zn44 O56 2.114 . S
Zn44 O59 2.080 . S
C45 O50 1.166 . S
C45 O51 1.182 . S
C46 O52 1.167 . S
C46 O53 1.299 . S
O47 Zn44 2.080 . S
O47 C61 1.305 . S
O48 Zn42 1.920 . S
O48 C61 1.234 . S
C49 O54 1.167 . S
C49 O55 1.299 . S
O50 Zn44 2.114 . S
O50 C45 1.166 . S
O51 Zn43 1.905 . S
O51 C45 1.182 . S
O52 Zn43 1.898 . S
O52 C46 1.167 . S
O53 Zn44 2.120 . S
O53 C46 1.299 . S
O54 Zn42 1.898 . S
O54 C49 1.167 . S
O55 Zn44 2.120 . S
O55 C49 1.299 . S
O56 Zn44 2.114 . S
O56 C58 1.166 . S
O57 Zn42 1.905 . S
O57 C58 1.182 . S
C58 O56 1.166 . S
C58 O57 1.182 . S
O59 Zn44 2.080 . S
O59 C62 1.305 . S
O60 Zn43 1.920 . S
O60 C62 1.234 . S
C61 O47 1.305 . S
C61 O48 1.234 . S
C62 O59 1.305 . S
C62 O60 1.234 . S
Zn63 O69 1.920 . S
Zn63 O75 1.898 . S
Zn63 O78 1.905 . S
Zn64 O72 1.905 . S
Zn64 O73 1.898 . S
Zn64 O81 1.920 . S
Zn65 O68 2.080 . S
Zn65 O71 2.114 . S
Zn65 O74 2.120 . S
Zn65 O76 2.120 . S
Zn65 O77 2.114 . S
Zn65 O80 2.080 . S
C66 O71 1.166 . S
C66 O72 1.182 . S
C67 O73 1.167 . S
C67 O74 1.299 . S
O68 Zn65 2.080 . S
O68 C82 1.305 . S
O69 Zn63 1.920 . S
O69 C82 1.234 . S
C70 O75 1.167 . S
C70 O76 1.299 . S
O71 Zn65 2.114 . S
O71 C66 1.166 . S
O72 Zn64 1.905 . S
O72 C66 1.182 . S
O73 Zn64 1.898 . S
O73 C67 1.167 . S
O74 Zn65 2.120 . S
O74 C67 1.299 . S
O75 Zn63 1.898 . S
O75 C70 1.167 . S
O76 Zn65 2.120 . S
O76 C70 1.299 . S
O77 Zn65 2.114 . S
O77 C79 1.166 . S
O78 Zn63 1.905 . S
O78 C79 1.182 . S
C79 O77 1.166 . S
C79 O78 1.182 . S
O80 Zn65 2.080 . S
O80 C83 1.305 . S
O81 Zn64 1.920 . S
O81 C83 1.234 . S
C82 O68 1.305 . S
C82 O69 1.234 . S
C83 O80 1.305 . S
C83 O81 1.234 . S
H84 C92 0.929 . S
H85 C94 0.930 . S
H86 C96 0.930 . S
H87 C99 0.929 . S
H88 C102 0.930 . S
H89 C104 0.960 . S
H90 C104 0.960 . S
H91 C104 0.960 . S
C92 H84 0.929 . S
C92 C93 1.377 . S
C92 C94 1.384 1_556 S
C93 C92 1.377 . S
C93 C99 1.390 1_556 S
C94 H85 0.930 . S
C94 C92 1.384 1_554 S
C94 C95 1.372 . S
C95 C94 1.372 . S
C95 C96 1.400 . S
C95 C100 1.490 . S
C96 H86 0.930 . S
C96 C95 1.400 . S
C96 C99 1.386 . S
H97 C113 0.930 . S
H98 C114 0.931 . S
C99 H87 0.929 . S
C99 C93 1.390 1_554 S
C99 C96 1.386 . S
C100 C95 1.490 . S
C100 C102 1.395 . S
C100 C103 1.403 . S
H101 C107 0.930 . S
C102 H88 0.930 . S
C102 C100 1.395 . S
C102 C105 1.403 . S
C103 C100 1.403 . S
C103 C104 1.524 . S
C103 C107 1.400 . S
C104 H89 0.960 . S
C104 H90 0.960 . S
C104 H91 0.960 . S
C104 C103 1.524 . S
C105 C102 1.403 . S
C105 C106 1.392 . S
C105 C109 1.495 . S
C106 C105 1.392 . S
C106 C107 1.385 . S
C106 C108 1.478 . S
C107 H101 0.930 . S
C107 C103 1.400 . S
C107 C106 1.385 . S
C108 C106 1.478 . S
C108 C110 1.381 . S
C108 C114 1.383 . S
C109 C105 1.495 . S
C109 H115 0.959 . S
C109 H116 0.961 . S
C109 H117 0.960 . S
C110 C108 1.381 . S
C110 C111 1.394 . S
C110 H118 0.930 . S
C111 C110 1.394 . S
C111 C112 1.383 . S
C111 H119 0.929 . S
C112 C111 1.383 . S
C112 C113 1.377 . S
C113 H97 0.930 . S
C113 C112 1.377 . S
C113 C114 1.379 . S
C114 H98 0.931 . S
C114 C108 1.383 . S
C114 C113 1.379 . S
H115 C109 0.959 . S
H116 C109 0.961 . S
H117 C109 0.960 . S
H118 C110 0.930 . S
H119 C111 0.929 . S
H120 C128 0.929 . S
H121 C130 0.930 . S
H122 C132 0.928 1_545 S
H123 C135 0.929 . S
H124 C138 0.930 . S
H125 C140 0.960 . S
H126 C140 0.960 . S
H127 C140 0.960 . S
C128 H120 0.929 . S
C128 C129 1.377 . S
C128 C130 1.384 . S
C129 C128 1.377 . S
C129 C135 1.390 . S
C130 H121 0.930 . S
C130 C128 1.384 . S
C130 C131 1.372 . S
C131 C130 1.372 . S
C131 C132 1.400 . S
C131 C136 1.490 . S
C132 H122 0.928 1_565 S
C132 C131 1.400 . S
C132 C135 1.386 . S
H133 C149 0.930 . S
H134 C150 0.931 . S
C135 H123 0.929 . S
C135 C129 1.390 . S
C135 C132 1.386 . S
C136 C131 1.490 . S
C136 C138 1.395 . S
C136 C139 1.403 . S
H137 C143 0.928 1_545 S
C138 H124 0.930 . S
C138 C136 1.395 . S
C138 C141 1.403 . S
C139 C136 1.403 . S
C139 C140 1.524 . S
C139 C143 1.405 . S
C140 H125 0.960 . S
C140 H126 0.960 . S
C140 H127 0.960 . S
C140 C139 1.524 . S
C141 C138 1.403 . S
C141 C142 1.392 1_565 S
C141 C145 1.495 1_565 S
C142 C141 1.392 1_545 S
C142 C143 1.383 1_545 S
C142 C144 1.478 . S
C143 H137 0.928 1_565 S
C143 C139 1.405 . S
C143 C142 1.383 1_565 S
C144 C142 1.478 . S
C144 C146 1.381 . S
C144 C150 1.383 . S
C145 C141 1.495 1_545 S
C145 H151 0.959 1_545 S
C145 H152 0.961 . S
C145 H153 0.960 1_545 S
C146 C144 1.381 . S
C146 C147 1.394 . S
C146 H154 0.930 1_545 S
C147 C146 1.394 . S
C147 C148 1.383 . S
C147 H155 0.929 . S
C148 C147 1.383 . S
C148 C149 1.377 . S
C149 H133 0.930 . S
C149 C148 1.377 . S
C149 C150 1.379 . S
C150 H134 0.931 . S
C150 C144 1.383 . S
C150 C149 1.379 . S
H151 C145 0.959 1_565 S
H152 C145 0.961 . S
H153 C145 0.960 1_565 S
H154 C146 0.930 1_565 S
H155 C147 0.929 . S
H156 C164 0.929 . S
H157 C166 0.930 . S
H158 C168 0.930 . S
H159 C171 0.929 . S
H160 C174 0.930 . S
H161 C176 0.960 . S
H162 C176 0.960 . S
H163 C176 0.960 . S
C164 H156 0.929 . S
C164 C165 1.377 . S
C164 C166 1.384 . S
C165 C164 1.377 . S
C165 C171 1.390 . S
C166 H157 0.930 . S
C166 C164 1.384 . S
C166 C167 1.372 . S
C167 C166 1.372 . S
C167 C168 1.400 . S
C167 C172 1.490 . S
C168 H158 0.930 . S
C168 C167 1.400 . S
C168 C171 1.386 . S
H169 C185 0.930 . S
H170 C186 0.931 . S
C171 H159 0.929 . S
C171 C165 1.390 . S
C171 C168 1.386 . S
C172 C167 1.490 . S
C172 C174 1.395 . S
C172 C175 1.403 . S
H173 C179 0.930 . S
C174 H160 0.930 . S
C174 C172 1.395 . S
C174 C177 1.403 . S
C175 C172 1.403 . S
C175 C176 1.524 . S
C175 C179 1.400 . S
C176 H161 0.960 . S
C176 H162 0.960 . S
C176 H163 0.960 . S
C176 C175 1.524 . S
C177 C174 1.403 . S
C177 C178 1.392 . S
C177 C181 1.495 . S
C178 C177 1.392 . S
C178 C179 1.385 . S
C178 C180 1.478 . S
C179 H173 0.930 . S
C179 C175 1.400 . S
C179 C178 1.385 . S
C180 C178 1.478 . S
C180 C182 1.381 . S
C180 C186 1.383 . S
C181 C177 1.495 . S
C181 H187 0.959 . S
C181 H188 0.961 . S
C181 H189 0.960 . S
C182 C180 1.381 . S
C182 C183 1.394 . S
C182 H190 0.930 . S
C183 C182 1.394 . S
C183 C184 1.383 . S
C183 H191 0.929 . S
C184 C183 1.383 . S
C184 C185 1.377 . S
C185 H169 0.930 . S
C185 C184 1.377 . S
C185 C186 1.379 . S
C186 H170 0.931 . S
C186 C180 1.383 . S
C186 C185 1.379 . S
H187 C181 0.959 . S
H188 C181 0.961 . S
H189 C181 0.960 . S
H190 C182 0.930 . S
H191 C183 0.929 . S
H192 C200 0.929 . S
H193 C202 0.930 . S
H194 C204 0.930 1_545 S
H195 C207 0.929 . S
H196 C210 0.930 . S
H197 C212 0.960 . S
H198 C212 0.960 . S
H199 C212 0.960 . S
C200 H192 0.929 . S
C200 C201 1.377 . S
C200 C202 1.384 1_554 S
C201 C200 1.377 . S
C201 C207 1.390 . S
C202 H193 0.930 . S
C202 C200 1.384 1_556 S
C202 C203 1.372 . S
C203 C202 1.372 . S
C203 C204 1.400 . S
C203 C208 1.490 . S
C204 H194 0.930 1_565 S
C204 C203 1.400 . S
C204 C207 1.386 1_556 S
H205 C221 0.930 . S
H206 C222 0.931 . S
C207 H195 0.929 . S
C207 C201 1.390 . S
C207 C204 1.386 1_554 S
C208 C203 1.490 . S
C208 C210 1.395 . S
C208 C211 1.403 1_565 S
H209 C215 0.930 . S
C210 H196 0.930 . S
C210 C208 1.395 . S
C210 C213 1.403 . S
C211 C208 1.403 1_545 S
C211 C212 1.524 . S
C211 C215 1.400 . S
C212 H197 0.960 . S
C212 H198 0.960 . S
C212 H199 0.960 . S
C212 C211 1.524 . S
C213 C210 1.403 . S
C213 C214 1.392 1_565 S
C213 C217 1.495 . S
C214 C213 1.392 1_545 S
C214 C215 1.385 . S
C214 C216 1.478 . S
C215 H209 0.930 . S
C215 C211 1.400 . S
C215 C214 1.385 . S
C216 C214 1.478 . S
C216 C218 1.381 . S
C216 C222 1.383 . S
C217 C213 1.495 . S
C217 H223 0.959 . S
C217 H224 0.961 . S
C217 H225 0.960 . S
C218 C216 1.381 . S
C218 C219 1.394 . S
C218 H226 0.941 . S
C219 C218 1.394 . S
C219 C220 1.383 . S
C219 H227 0.929 . S
C220 C219 1.383 . S
C220 C221 1.377 . S
C221 H205 0.930 . S
C221 C220 1.377 . S
C221 C222 1.379 . S
C222 H206 0.931 . S
C222 C216 1.383 . S
C222 C221 1.379 . S
H223 C217 0.959 . S
H224 C217 0.961 . S
H225 C217 0.960 . S
H226 C218 0.941 . S
H227 C219 0.929 . S
H228 C236 0.929 . S
H229 C238 0.930 . S
H230 C240 0.930 . S
H231 C243 0.929 . S
H232 C246 0.930 . S
H233 C248 0.960 . S
H234 C248 0.960 . S
H235 C248 0.960 . S
C236 H228 0.929 . S
C236 C237 1.377 1_455 S
C236 C238 1.384 . S
C237 C236 1.377 1_655 S
C237 C243 1.390 . S
C238 H229 0.930 . S
C238 C236 1.384 . S
C238 C239 1.372 . S
C239 C238 1.372 . S
C239 C240 1.400 . S
C239 C244 1.490 . S
C240 H230 0.930 . S
C240 C239 1.400 . S
C240 C243 1.386 1_455 S
H241 C257 0.930 . S
H242 C258 0.931 . S
C243 H231 0.929 . S
C243 C237 1.390 . S
C243 C240 1.386 1_655 S
C244 C239 1.490 . S
C244 C246 1.395 . S
C244 C247 1.403 . S
H245 C251 0.930 . S
C246 H232 0.930 . S
C246 C244 1.395 . S
C246 C249 1.403 . S
C247 C244 1.403 . S
C247 C248 1.524 . S
C247 C251 1.400 . S
C248 H233 0.960 . S
C248 H234 0.960 . S
C248 H235 0.960 . S
C248 C247 1.524 . S
C249 C246 1.403 . S
C249 C250 1.392 . S
C249 C253 1.495 . S
C250 C249 1.392 . S
C250 C251 1.385 . S
C250 C252 1.478 . S
C251 H245 0.930 . S
C251 C247 1.400 . S
C251 C250 1.385 . S
C252 C250 1.478 . S
C252 C254 1.381 . S
C252 C258 1.383 . S
C253 C249 1.495 . S
C253 H259 0.959 . S
C253 H260 0.961 . S
C253 H261 0.960 . S
C254 C252 1.381 . S
C254 C255 1.394 . S
C254 H262 0.930 . S
C255 C254 1.394 . S
C255 C256 1.383 . S
C255 H263 0.929 . S
C256 C255 1.383 . S
C256 C257 1.377 . S
C257 H241 0.930 . S
C257 C256 1.377 . S
C257 C258 1.379 . S
C258 H242 0.931 . S
C258 C252 1.383 . S
C258 C257 1.379 . S
H259 C253 0.959 . S
H260 C253 0.961 . S
H261 C253 0.960 . S
H262 C254 0.930 . S
H263 C255 0.929 . S
H264 C272 0.929 . S
H265 C274 0.930 . S
H266 C276 0.930 1_655 S
H267 C279 0.929 . S
H268 C282 0.930 . S
H269 C284 0.960 . S
H270 C284 0.960 . S
H271 C284 0.960 . S
C272 H264 0.929 . S
C272 C273 1.377 . S
C272 C274 1.384 . S
C273 C272 1.377 . S
C273 C279 1.390 . S
C274 H265 0.930 . S
C274 C272 1.384 . S
C274 C275 1.372 . S
C275 C274 1.372 . S
C275 C276 1.400 . S
C275 C280 1.490 . S
C276 H266 0.930 1_455 S
C276 C275 1.400 . S
C276 C279 1.386 . S
H277 C293 0.930 . S
H278 C294 0.931 . S
C279 H267 0.929 . S
C279 C273 1.390 . S
C279 C276 1.386 . S
C280 C275 1.490 . S
C280 C282 1.395 . S
C280 C283 1.403 1_455 S
H281 C287 0.930 . S
C282 H268 0.930 . S
C282 C280 1.395 . S
C282 C285 1.403 . S
C283 C280 1.403 1_655 S
C283 C284 1.524 . S
C283 C287 1.400 . S
C284 H269 0.960 . S
C284 H270 0.960 . S
C284 H271 0.960 . S
C284 C283 1.524 . S
C285 C282 1.403 . S
C285 C286 1.392 1_455 S
C285 C289 1.495 . S
C286 C285 1.392 1_655 S
C286 C287 1.385 . S
C286 C288 1.478 . S
C287 H281 0.930 . S
C287 C283 1.400 . S
C287 C286 1.385 . S
C288 C286 1.478 . S
C288 C290 1.382 . S
C288 C294 1.383 . S
C289 C285 1.495 . S
C289 H295 0.959 . S
C289 H296 0.961 . S
C289 H297 0.960 . S
C290 C288 1.382 . S
C290 C291 1.395 1_565 S
C290 H298 0.929 1_655 S
C291 C290 1.395 1_545 S
C291 C292 1.383 . S
C291 H299 0.929 . S
C292 C291 1.383 . S
C292 C293 1.377 1_545 S
C293 H277 0.930 . S
C293 C292 1.377 1_565 S
C293 C294 1.379 . S
C294 H278 0.931 . S
C294 C288 1.383 . S
C294 C293 1.379 . S
H295 C289 0.959 . S
H296 C289 0.961 . S
H297 C289 0.960 . S
H298 C290 0.929 1_455 S
H299 C291 0.929 . S
H300 C308 0.929 . S
H301 C310 0.930 . S
H302 C312 0.930 . S
H303 C315 0.929 . S
H304 C318 0.930 . S
H305 C320 0.960 . S
H306 C320 0.960 . S
H307 C320 0.960 . S
C308 H300 0.929 . S
C308 C309 1.377 . S
C308 C310 1.384 . S
C309 C308 1.377 . S
C309 C315 1.390 . S
C310 H301 0.930 . S
C310 C308 1.384 . S
C310 C311 1.372 . S
C311 C310 1.372 . S
C311 C312 1.400 . S
C311 C316 1.490 . S
C312 H302 0.930 . S
C312 C311 1.400 . S
C312 C315 1.386 . S
H313 C329 0.930 . S
H314 C330 0.931 . S
C315 H303 0.929 . S
C315 C309 1.390 . S
C315 C312 1.386 . S
C316 C311 1.490 . S
C316 C318 1.395 . S
C316 C319 1.403 1_556 S
H317 C323 0.930 . S
C318 H304 0.930 . S
C318 C316 1.395 . S
C318 C321 1.403 . S
C319 C316 1.403 1_554 S
C319 C320 1.524 . S
C319 C323 1.400 . S
C320 H305 0.960 . S
C320 H306 0.960 . S
C320 H307 0.960 . S
C320 C319 1.524 . S
C321 C318 1.403 . S
C321 C322 1.374 1_556 S
C321 C325 1.495 . S
C322 C321 1.374 1_554 S
C322 C323 1.397 . S
C322 C324 1.485 . S
C323 H317 0.930 . S
C323 C319 1.400 . S
C323 C322 1.397 . S
C324 C322 1.485 . S
C324 C326 1.381 . S
C324 C330 1.383 . S
C325 C321 1.495 . S
C325 H331 0.959 . S
C325 H332 0.961 . S
C325 H333 0.960 . S
C326 C324 1.381 . S
C326 C327 1.394 . S
C326 H334 0.930 1_554 S
C327 C326 1.394 . S
C327 C328 1.383 . S
C327 H335 0.929 . S
C328 C327 1.383 . S
C328 C329 1.377 . S
C329 H313 0.930 . S
C329 C328 1.377 . S
C329 C330 1.379 . S
C330 H314 0.931 . S
C330 C324 1.383 . S
C330 C329 1.379 . S
H331 C325 0.959 . S
H332 C325 0.961 . S
H333 C325 0.960 . S
H334 C326 0.930 1_556 S
H335 C327 0.929 . S
H336 C344 0.929 . S
H337 C346 0.930 . S
H338 C348 0.930 . S
H339 C351 0.929 . S
H340 C354 0.930 . S
H341 C356 0.960 . S
H342 C356 0.960 . S
H343 C356 0.960 . S
C344 H336 0.929 . S
C344 C345 1.377 . S
C344 C346 1.384 . S
C345 C344 1.377 . S
C345 C351 1.390 . S
C346 H337 0.930 . S
C346 C344 1.384 . S
C346 C347 1.372 . S
C347 C346 1.372 . S
C347 C348 1.400 . S
C347 C352 1.490 . S
C348 H338 0.930 . S
C348 C347 1.400 . S
C348 C351 1.386 . S
H349 C365 0.941 . S
H350 C366 0.931 . S
C351 H339 0.929 . S
C351 C345 1.390 . S
C351 C348 1.386 . S
C352 C347 1.490 . S
C352 C354 1.395 . S
C352 C355 1.403 . S
H353 C359 0.930 . S
C354 H340 0.930 . S
C354 C352 1.395 . S
C354 C357 1.403 . S
C355 C352 1.403 . S
C355 C356 1.524 . S
C355 C359 1.400 . S
C356 H341 0.960 . S
C356 H342 0.960 . S
C356 H343 0.960 . S
C356 C355 1.524 . S
C357 C354 1.403 . S
C357 C358 1.392 . S
C357 C361 1.495 . S
C358 C357 1.392 . S
C358 C359 1.385 . S
C358 C360 1.478 . S
C359 H353 0.930 . S
C359 C355 1.400 . S
C359 C358 1.385 . S
C360 C358 1.478 . S
C360 C362 1.381 . S
C360 C366 1.383 . S
C361 C357 1.495 . S
C361 H367 0.959 . S
C361 H368 0.961 . S
C361 H369 0.960 . S
C362 C360 1.381 . S
C362 C363 1.394 1_545 S
C362 H370 0.930 . S
C363 C362 1.394 1_565 S
C363 C364 1.383 . S
C363 H371 0.929 . S
C364 C363 1.383 . S
C364 C365 1.390 . S
C365 H349 0.941 . S
C365 C364 1.390 . S
C365 C366 1.356 1_565 S
C366 H350 0.931 . S
C366 C360 1.383 . S
C366 C365 1.356 1_545 S
H367 C361 0.959 . S
H368 C361 0.961 . S
H369 C361 0.960 . S
H370 C362 0.930 . S
H371 C363 0.929 . S
H372 C380 0.929 . S
H373 C382 0.930 . S
H374 C384 0.930 . S
H375 C387 0.929 . S
H376 C390 0.930 . S
H377 C392 0.960 . S
H378 C392 0.960 . S
H379 C392 0.960 . S
C380 H372 0.929 . S
C380 C381 1.377 . S
C380 C382 1.384 . S
C381 C380 1.377 . S
C381 C387 1.390 . S
C382 H373 0.930 . S
C382 C380 1.384 . S
C382 C383 1.372 . S
C383 C382 1.372 . S
C383 C384 1.400 . S
C383 C388 1.490 . S
C384 H374 0.930 . S
C384 C383 1.400 . S
C384 C387 1.386 . S
H385 C401 0.930 . S
H386 C402 0.931 . S
C387 H375 0.929 . S
C387 C381 1.390 . S
C387 C384 1.386 . S
C388 C383 1.490 . S
C388 C390 1.395 . S
C388 C391 1.403 . S
H389 C395 0.930 . S
C390 H376 0.930 . S
C390 C388 1.395 . S
C390 C393 1.403 . S
C391 C388 1.403 . S
C391 C392 1.524 . S
C391 C395 1.400 . S
C392 H377 0.960 . S
C392 H378 0.960 . S
C392 H379 0.960 . S
C392 C391 1.524 . S
C393 C390 1.403 . S
C393 C394 1.392 . S
C393 C397 1.495 . S
C394 C393 1.392 . S
C394 C395 1.385 . S
C394 C396 1.478 . S
C395 H389 0.930 . S
C395 C391 1.400 . S
C395 C394 1.385 . S
C396 C394 1.478 . S
C396 C398 1.381 . S
C396 C402 1.383 . S
C397 C393 1.495 . S
C397 H403 0.959 . S
C397 H404 0.961 . S
C397 H405 0.960 . S
C398 C396 1.381 . S
C398 C399 1.394 . S
C398 H406 0.930 . S
C399 C398 1.394 . S
C399 C400 1.383 . S
C399 H407 0.929 . S
C400 C399 1.383 . S
C400 C401 1.377 . S
C401 H385 0.930 . S
C401 C400 1.377 . S
C401 C402 1.379 . S
C402 H386 0.931 . S
C402 C396 1.383 . S
C402 C401 1.379 . S
H403 C397 0.959 . S
H404 C397 0.961 . S
H405 C397 0.960 . S
H406 C398 0.930 . S
H407 C399 0.929 . S
H408 C416 0.929 . S
H409 C418 0.930 . S
H410 C420 0.930 . S
H411 C423 0.929 . S
H412 C426 0.930 . S
H413 C428 0.960 . S
H414 C428 0.960 . S
H415 C428 0.960 . S
C416 H408 0.929 . S
C416 C417 1.377 . S
C416 C418 1.384 . S
C417 C416 1.377 . S
C417 C423 1.390 . S
C418 H409 0.930 . S
C418 C416 1.384 . S
C418 C419 1.372 . S
C419 C418 1.372 . S
C419 C420 1.400 . S
C419 C424 1.490 . S
C420 H410 0.930 . S
C420 C419 1.400 . S
C420 C423 1.386 . S
H421 C437 0.930 . S
H422 C438 0.931 . S
C423 H411 0.929 . S
C423 C417 1.390 . S
C423 C420 1.386 . S
C424 C419 1.490 . S
C424 C426 1.395 1_455 S
C424 C427 1.403 . S
H425 C431 0.930 . S
C426 H412 0.930 . S
C426 C424 1.395 1_655 S
C426 C429 1.403 . S
C427 C424 1.403 . S
C427 C428 1.524 . S
C427 C431 1.400 . S
C428 H413 0.960 . S
C428 H414 0.960 . S
C428 H415 0.960 . S
C428 C427 1.524 . S
C429 C426 1.403 . S
C429 C430 1.392 . S
C429 C433 1.495 . S
C430 C429 1.392 . S
C430 C431 1.385 1_655 S
C430 C432 1.478 . S
C431 H425 0.930 . S
C431 C427 1.400 . S
C431 C430 1.385 1_455 S
C432 C430 1.478 . S
C432 C434 1.381 . S
C432 C438 1.383 . S
C433 C429 1.495 . S
C433 H439 0.959 . S
C433 H440 0.961 . S
C433 H441 0.960 . S
C434 C432 1.381 . S
C434 C435 1.394 . S
C434 H442 0.930 . S
C435 C434 1.394 . S
C435 C436 1.383 . S
C435 H443 0.929 . S
C436 C435 1.383 . S
C436 C437 1.377 . S
C437 H421 0.930 . S
C437 C436 1.377 . S
C437 C438 1.379 . S
C438 H422 0.931 . S
C438 C432 1.383 . S
C438 C437 1.379 . S
H439 C433 0.959 . S
H440 C433 0.961 . S
H441 C433 0.960 . S
H442 C434 0.930 . S
H443 C435 0.929 . S
H444 C452 0.929 . S
H445 C454 0.930 1_554 S
H446 C456 0.930 . S
H447 C459 0.929 . S
H448 C462 0.930 1_556 S
H449 C464 0.960 . S
H450 C464 0.959 . S
H451 C464 0.962 1_556 S
C452 H444 0.929 . S
C452 C453 1.377 . S
C452 C454 1.384 1_455 S
C453 C452 1.377 . S
C453 C459 1.390 1_455 S
C454 H445 0.930 1_556 S
C454 C452 1.384 1_655 S
C454 C455 1.372 . S
C455 C454 1.372 . S
C455 C456 1.400 . S
C455 C460 1.490 . S
C456 H446 0.930 . S
C456 C455 1.400 . S
C456 C459 1.386 . S
H457 C473 0.930 . S
H458 C474 0.931 1_556 S
C459 H447 0.929 . S
C459 C453 1.390 1_655 S
C459 C456 1.386 . S
C460 C455 1.490 . S
C460 C462 1.395 1_556 S
C460 C463 1.403 1_556 S
H461 C467 0.930 . S
C462 H448 0.930 1_554 S
C462 C460 1.395 1_554 S
C462 C465 1.403 . S
C463 C460 1.403 1_554 S
C463 C464 1.523 . S
C463 C467 1.400 . S
C464 H449 0.960 . S
C464 H450 0.959 . S
C464 H451 0.962 1_554 S
C464 C463 1.523 . S
C465 C462 1.403 . S
C465 C466 1.392 . S
C465 C469 1.495 . S
C466 C465 1.392 . S
C466 C467 1.385 . S
C466 C468 1.478 . S
C467 H461 0.930 . S
C467 C463 1.400 . S
C467 C466 1.385 . S
C468 C466 1.478 . S
C468 C470 1.381 . S
C468 C474 1.383 . S
C469 C465 1.495 . S
C469 H475 0.959 . S
C469 H476 0.961 . S
C469 H477 0.960 . S
C470 C468 1.381 . S
C470 C471 1.394 . S
C470 H478 0.930 . S
C471 C470 1.394 . S
C471 C472 1.383 . S
C471 H479 0.929 . S
C472 C471 1.383 . S
C472 C473 1.377 . S
C473 H457 0.930 . S
C473 C472 1.377 . S
C473 C474 1.379 . S
C474 H458 0.931 1_554 S
C474 C468 1.383 . S
C474 C473 1.379 . S
H475 C469 0.959 . S
H476 C469 0.961 . S
H477 C469 0.960 . S
H478 C470 0.930 . S
H479 C471 0.929 . S
H480 C488 0.929 . S
H481 C490 0.930 . S
H482 C492 0.930 . S
H483 C495 0.929 . S
H484 C498 0.930 . S
H485 C500 0.960 . S
H486 C500 0.960 . S
H487 C500 0.960 . S
C488 H480 0.929 . S
C488 C489 1.377 . S
C488 C490 1.384 . S
C489 C488 1.377 . S
C489 C495 1.390 . S
C490 H481 0.930 . S
C490 C488 1.384 . S
C490 C491 1.372 . S
C491 C490 1.372 . S
C491 C492 1.400 . S
C491 C496 1.490 . S
C492 H482 0.930 . S
C492 C491 1.400 . S
C492 C495 1.386 . S
H493 C509 0.930 . S
H494 C510 0.931 . S
C495 H483 0.929 . S
C495 C489 1.390 . S
C495 C492 1.386 . S
C496 C491 1.490 . S
C496 C498 1.395 . S
C496 C499 1.403 . S
H497 C503 0.930 . S
C498 H484 0.930 . S
C498 C496 1.395 . S
C498 C501 1.403 . S
C499 C496 1.403 . S
C499 C500 1.524 . S
C499 C503 1.400 . S
C500 H485 0.960 . S
C500 H486 0.960 . S
C500 H487 0.960 . S
C500 C499 1.524 . S
C501 C498 1.403 . S
C501 C502 1.392 . S
C501 C505 1.495 . S
C502 C501 1.392 . S
C502 C503 1.385 . S
C502 C504 1.478 . S
C503 H497 0.930 . S
C503 C499 1.400 . S
C503 C502 1.385 . S
C504 C502 1.478 . S
C504 C506 1.381 . S
C504 C510 1.383 . S
C505 C501 1.495 . S
C505 H511 0.959 . S
C505 H512 0.961 . S
C505 H513 0.960 . S
C506 C504 1.381 . S
C506 C507 1.394 . S
C506 H514 0.930 . S
C507 C506 1.394 . S
C507 C508 1.383 . S
C507 H515 0.929 . S
C508 C507 1.383 . S
C508 C509 1.377 . S
C509 H493 0.930 . S
C509 C508 1.377 . S
C509 C510 1.379 . S
C510 H494 0.931 . S
C510 C504 1.383 . S
C510 C509 1.379 . S
H511 C505 0.959 . S
H512 C505 0.961 . S
H513 C505 0.960 . S
H514 C506 0.930 . S
H515 C507 0.929 . S
C93 C45 1.342 . S
C112 C16 1.371 . S
C129 C70 1.214 . S
C148 C25 1.181 . S
C165 C58 1.352 . S
C184 C3 1.369 . S
C201 C83 1.243 . S
C220 C40 1.265 . S
C237 C24 1.310 . S
C256 C7 1.279 . S
C273 C61 1.260 . S
C292 C41 1.219 . S
C309 C49 1.237 . S
C328 C67 1.203 . S
C345 C19 1.299 . S
C364 C66 1.281 . S
C381 C37 1.303 . S
C400 C20 1.274 . S
C417 C46 1.231 . S
C436 C28 1.188 . S
C453 C62 1.255 . S
C472 C82 1.271 . S
C489 C79 1.309 . S
C508 C4 1.274 . S
