# Generated by pormake.
# Topology sva, (7)-cn, num edge types: 1
# Building blocks:
#     Node 0, Type 0, BuildingBlock: HICVOG_clean_sbu_0, # of connection points: 7
#     Node 1, Type 0, BuildingBlock: HICVOG_clean_sbu_0, # of connection points: 7
#     Node 2, Type 0, BuildingBlock: HICVOG_clean_sbu_0, # of connection points: 7
#     Node 3, Type 0, BuildingBlock: HICVOG_clean_sbu_0, # of connection points: 7
#     Node 4, Type 0, BuildingBlock: HICVOG_clean_sbu_0, # of connection points: 7
#     Node 5, Type 0, BuildingBlock: HICVOG_clean_sbu_0, # of connection points: 7
#     Node 6, Type 0, BuildingBlock: HICVOG_clean_sbu_0, # of connection points: 7
#     Node 7, Type 0, BuildingBlock: HICVOG_clean_sbu_0, # of connection points: 7
#     Edge 8, Type (0, 0), BuildingBlock: UVAHIK_clean_linker_0, # of connection points: 2
#     Edge 9, Type (0, 0), BuildingBlock: UVAHIK_clean_linker_0, # of connection points: 2
#     Edge 10, Type (0, 0), BuildingBlock: UVAHIK_clean_linker_0, # of connection points: 2
#     Edge 11, Type (0, 0), BuildingBlock: UVAHIK_clean_linker_0, # of connection points: 2
#     Edge 12, Type (0, 0), BuildingBlock: UVAHIK_clean_linker_0, # of connection points: 2
#     Edge 13, Type (0, 0), BuildingBlock: UVAHIK_clean_linker_0, # of connection points: 2
#     Edge 14, Type (0, 0), BuildingBlock: UVAHIK_clean_linker_0, # of connection points: 2
#     Edge 15, Type (0, 0), BuildingBlock: UVAHIK_clean_linker_0, # of connection points: 2
#     Edge 16, Type (0, 0), BuildingBlock: UVAHIK_clean_linker_0, # of connection points: 2
#     Edge 17, Type (0, 0), BuildingBlock: UVAHIK_clean_linker_0, # of connection points: 2
#     Edge 18, Type (0, 0), BuildingBlock: UVAHIK_clean_linker_0, # of connection points: 2
#     Edge 19, Type (0, 0), BuildingBlock: UVAHIK_clean_linker_0, # of connection points: 2
#     Edge 20, Type (0, 0), BuildingBlock: UVAHIK_clean_linker_0, # of connection points: 2
#     Edge 21, Type (0, 0), BuildingBlock: UVAHIK_clean_linker_0, # of connection points: 2
#     Edge 22, Type (0, 0), BuildingBlock: UVAHIK_clean_linker_0, # of connection points: 2
#     Edge 23, Type (0, 0), BuildingBlock: UVAHIK_clean_linker_0, # of connection points: 2
#     Edge 24, Type (0, 0), BuildingBlock: UVAHIK_clean_linker_0, # of connection points: 2
#     Edge 25, Type (0, 0), BuildingBlock: UVAHIK_clean_linker_0, # of connection points: 2
#     Edge 26, Type (0, 0), BuildingBlock: UVAHIK_clean_linker_0, # of connection points: 2
#     Edge 27, Type (0, 0), BuildingBlock: UVAHIK_clean_linker_0, # of connection points: 2
#     Edge 28, Type (0, 0), BuildingBlock: UVAHIK_clean_linker_0, # of connection points: 2
#     Edge 29, Type (0, 0), BuildingBlock: UVAHIK_clean_linker_0, # of connection points: 2
#     Edge 30, Type (0, 0), BuildingBlock: UVAHIK_clean_linker_0, # of connection points: 2
#     Edge 31, Type (0, 0), BuildingBlock: UVAHIK_clean_linker_0, # of connection points: 2
#     Edge 32, Type (0, 0), BuildingBlock: UVAHIK_clean_linker_0, # of connection points: 2
#     Edge 33, Type (0, 0), BuildingBlock: UVAHIK_clean_linker_0, # of connection points: 2
#     Edge 34, Type (0, 0), BuildingBlock: UVAHIK_clean_linker_0, # of connection points: 2
#     Edge 35, Type (0, 0), BuildingBlock: UVAHIK_clean_linker_0, # of connection points: 2
# Relax obj value: 0.223
# Max RMSD: 0.267
# Mean RMSD: 0.267
data_MOF--net-sva--node1-HICVOG_clean_sbu_0--edge1-UVAHIK_clean_linker_0
_symmetry_space_group_name_H-M    P1
_symmetry_Int_Tables_number       1
_symmetry_cell_setting            triclinic
loop_
_symmetry_equiv_pos_as_xyz
'x, y, z'
_cell_length_a     52.173964
_cell_length_b     52.150404
_cell_length_c     24.610153
_cell_angle_alpha  89.982149
_cell_angle_beta   89.873727
_cell_angle_gamma 90.048828
loop_
_atom_site_label
_atom_site_type_symbol
_atom_site_fract_x
_atom_site_fract_y
_atom_site_fract_z
_atom_type_partial_charge
Zn0 Zn 0.04274 0.19321 0.91646 0.0
C1 C 0.06434 0.23484 0.04604 0.0
N2 N 0.08655 0.22198 0.04085 0.0
C3 C 0.08136 0.20505 0.00117 0.0
N4 N 0.05712 0.20773 0.98246 0.0
N5 N 0.04621 0.22607 0.01172 0.0
C6 C 0.98925 0.27682 0.02652 0.0
O7 O 0.99194 0.2722 0.97434 0.0
O8 O 0.0511 0.15573 0.90969 0.0
Zn9 Zn 1.01026 0.22599 0.03358 0.0
N10 N 0.05462 0.21354 0.85486 0.0
C11 C 0.07727 0.25053 0.82453 0.0
C12 C 0.06937 0.23437 0.86628 0.0
C13 C 0.04741 0.20822 0.80285 0.0
N14 N 0.06995 0.2454 0.77288 0.0
C15 C 0.05521 0.22467 0.7604 0.0
O16 O 0.98406 0.21304 0.97899 0.0
C17 C 0.98377 0.1993 0.9363 0.0
O18 O 1.00443 0.19194 0.91393 0.0
H19 H 0.07478 0.23865 0.9076 0.0
H20 H 0.03517 0.19186 0.79513 0.0
C21 C 0.01312 0.2079 0.14547 0.0
C22 C 0.01103 0.18893 0.18627 0.0
C23 C 0.99897 0.15862 0.11874 0.0
C24 C 1.00086 0.17742 0.07894 0.0
N25 N 1.00783 0.20164 0.0929 0.0
N26 N 1.00403 0.1648 0.1711 0.0
H27 H 0.01919 0.22723 0.15465 0.0
C28 C 0.04848 0.14275 0.95305 0.0
O29 O 0.044 0.15489 0.99882 0.0
O30 O 0.99745 0.26037 0.06043 0.0
H31 H 0.99696 0.17269 0.03704 0.0
H32 H 0.08895 0.26719 0.83311 0.0
H33 H 0.99353 0.13923 0.10818 0.0
Zn34 Zn 0.82818 0.54074 0.17012 0.0
C35 C 0.79042 0.56266 0.30521 0.0
N36 N 0.80364 0.58461 0.29878 0.0
C37 C 0.81936 0.57921 0.25695 0.0
N38 N 0.81561 0.55508 0.23818 0.0
N39 N 0.79785 0.54444 0.26955 0.0
C40 C 0.76257 0.47376 0.33892 0.0
O41 O 0.78482 0.46288 0.34837 0.0
O42 O 0.86583 0.54779 0.15981 0.0
Zn43 Zn 0.79723 0.50828 0.29039 0.0
N44 N 0.8072 0.55368 0.11094 0.0
C45 C 0.77025 0.57702 0.08353 0.0
C46 C 0.78651 0.56826 0.12421 0.0
C47 C 0.81228 0.54744 0.05827 0.0
N48 N 0.77518 0.5707 0.03111 0.0
C49 C 0.79579 0.55615 0.01689 0.0
O50 O 0.81036 0.48241 0.23524 0.0
C51 C 0.82201 0.48203 0.18983 0.0
O52 O 0.82822 0.50258 0.16564 0.0
H53 H 0.7825 0.5729 0.16614 0.0
H54 H 0.82855 0.5353 0.04922 0.0
C55 C 0.81477 0.51209 0.40233 0.0
C56 C 0.83316 0.50945 0.44394 0.0
C57 C 0.8631 0.49406 0.37861 0.0
C58 C 0.84481 0.49647 0.33799 0.0
N59 N 0.82105 0.50538 0.35049 0.0
N60 N 0.85686 0.50052 0.43029 0.0
H61 H 0.79583 0.51959 0.41037 0.0
C62 C 0.87942 0.54199 0.20077 0.0
O63 O 0.86784 0.535 0.24584 0.0
O64 O 0.76219 0.49527 0.31434 0.0
H65 H 0.84957 0.49137 0.29666 0.0
H66 H 0.7537 0.58858 0.09351 0.0
H67 H 0.88212 0.48708 0.36923 0.0
Zn68 Zn 0.479 0.32676 0.42977 0.0
C69 C 0.45547 0.2902 0.56495 0.0
N70 N 0.43414 0.30432 0.55721 0.0
C71 C 0.44063 0.31914 0.51473 0.0
N72 N 0.46459 0.31423 0.49709 0.0
N73 N 0.47436 0.29653 0.52962 0.0
C74 C 0.53254 0.24528 0.53955 0.0
O75 O 0.53076 0.2511 0.48775 0.0
O76 O 0.46924 0.36366 0.41788 0.0
Zn77 Zn 0.51055 0.29551 0.55018 0.0
N78 N 0.46784 0.30452 0.37128 0.0
C79 C 0.44861 0.26512 0.34475 0.0
C80 C 0.45649 0.28197 0.38519 0.0
C81 C 0.47197 0.31079 0.31827 0.0
N82 N 0.45278 0.27127 0.29195 0.0
C83 C 0.46441 0.2936 0.27703 0.0
O84 O 0.53671 0.3092 0.49574 0.0
C85 C 0.53749 0.32225 0.45207 0.0
O86 O 0.51713 0.32888 0.42781 0.0
H87 H 0.45353 0.27708 0.4274 0.0
H88 H 0.48088 0.32899 0.3089 0.0
C89 C 0.5094 0.31198 0.66299 0.0
C90 C 0.51238 0.33029 0.70463 0.0
C91 C 0.52334 0.3616 0.63837 0.0
C92 C 0.52039 0.34346 0.59747 0.0
N93 N 0.51366 0.31903 0.61046 0.0
N94 N 0.51937 0.3546 0.69075 0.0
H95 H 0.50423 0.29233 0.67196 0.0
C96 C 0.47353 0.37772 0.45906 0.0
O97 O 0.4803 0.36671 0.50483 0.0
O98 O 0.52344 0.26076 0.57453 0.0
H99 H 0.52354 0.3488 0.55557 0.0
H100 H 0.43942 0.24718 0.35519 0.0
H101 H 0.52878 0.38109 0.62864 0.0
Zn102 Zn 0.7233 1.01066 0.79441 0.0
C103 C 0.69901 0.94095 0.76283 0.0
N104 N 0.71353 0.93515 0.80618 0.0
C105 C 0.72805 0.95638 0.81189 0.0
N106 N 0.7223 0.97448 0.7746 0.0
N107 N 0.70454 0.96437 0.74279 0.0
C108 C 0.64154 0.97305 0.70176 0.0
O109 O 0.65185 0.98201 0.74656 0.0
O110 O 0.75863 0.0242 0.81483 0.0
Zn111 Zn 0.6928 0.9777 0.67392 0.0
N112 N 0.70035 0.01366 0.85624 0.0
C113 C 0.65826 0.02395 0.8862 0.0
C114 C 0.67623 0.02178 0.84473 0.0
C115 C 0.70727 1.00734 0.90792 0.0
N116 N 0.66511 0.01783 0.93765 0.0
C117 C 0.68913 1.00954 0.95032 0.0
O118 O 0.69101 0.01587 0.66923 0.0
C119 C 0.69685 0.03631 0.69426 0.0
O120 O 0.70876 0.03579 0.73929 0.0
H121 H 0.67089 0.02636 0.80347 0.0
H122 H 0.72645 1.00033 0.91519 0.0
C123 C 0.71015 0.97084 0.5635 0.0
C124 C 0.72738 0.96264 0.52287 0.0
C125 C 0.75332 0.94353 0.591 0.0
C126 C 0.7363 0.95179 0.63092 0.0
N127 N 0.71505 0.96523 0.61651 0.0
N128 N 0.74855 0.94921 0.5382 0.0
H129 H 0.69342 0.98215 0.55362 0.0
C130 C 0.75839 0.04612 0.83773 0.0
O131 O 0.73616 0.05696 0.84782 0.0
O132 O 0.65609 0.96764 0.66189 0.0
H133 H 0.74012 0.94766 0.67316 0.0
H134 H 0.63898 0.03037 0.87762 0.0
H135 H 0.77031 0.93285 0.60187 0.0
Zn136 Zn 0.54258 0.6922 0.42544 0.0
C137 C 0.56564 0.73052 0.55858 0.0
N138 N 0.58775 0.71785 0.55007 0.0
C139 C 0.58201 0.70224 0.50845 0.0
N140 N 0.55747 0.70539 0.49199 0.0
N141 N 0.5469 0.72276 0.52444 0.0
C142 C 0.48804 0.77369 0.53618 0.0
O143 O 0.4898 0.76809 0.48425 0.0
O144 O 0.55076 0.65481 0.41454 0.0
Zn145 Zn 0.51049 0.72351 0.54528 0.0
N146 N 0.55372 0.71383 0.36555 0.0
C147 C 0.5739 0.75255 0.33747 0.0
C148 C 0.56577 0.73612 0.37854 0.0
C149 C 0.54922 0.70737 0.31282 0.0
N150 N 0.56937 0.74621 0.28497 0.0
C151 C 0.55711 0.72412 0.27092 0.0
O152 O 0.48404 0.71018 0.49119 0.0
C153 C 0.48389 0.69716 0.44752 0.0
O154 O 0.50461 0.69074 0.42433 0.0
H155 H 0.56905 0.74117 0.42051 0.0
H156 H 0.53982 0.68935 0.30416 0.0
C157 C 0.51164 0.7065 0.65772 0.0
C158 C 0.5087 0.688 0.69902 0.0
C159 C 0.49803 0.65692 0.63221 0.0
C160 C 0.50094 0.67525 0.59163 0.0
N161 N 0.5075 0.69966 0.60507 0.0
N162 N 0.50187 0.66371 0.68472 0.0
H163 H 0.51667 0.72614 0.66705 0.0
C164 C 0.5477 0.64081 0.45631 0.0
O165 O 0.54264 0.65185 0.50307 0.0
O166 O 0.49739 0.75815 0.57072 0.0
H167 H 0.4979 0.67008 0.54963 0.0
H168 H 0.5836 0.7703 0.34719 0.0
H169 H 0.49273 0.63744 0.62213 0.0
Zn170 Zn 0.32734 0.04002 0.67234 0.0
C171 C 0.29151 0.06187 0.80959 0.0
N172 N 0.30623 0.08296 0.80404 0.0
C173 C 0.3209 0.07705 0.76089 0.0
N174 N 0.31522 0.0537 0.74072 0.0
N175 N 0.29722 0.04374 0.77232 0.0
C176 C 0.24509 0.98691 0.78348 0.0
O177 O 0.25019 0.98918 0.73139 0.0
O178 O 0.36455 0.04872 0.66169 0.0
Zn179 Zn 0.29623 1.00763 0.79282 0.0
N180 N 0.30591 0.05289 0.61402 0.0
C181 C 0.26819 0.07523 0.58767 0.0
C182 C 0.2848 0.0667 0.62795 0.0
C183 C 0.31104 0.04713 0.56112 0.0
N184 N 0.27318 0.0694 0.53501 0.0
C185 C 0.29419 0.05557 0.52014 0.0
O186 O 0.30972 0.98183 0.73751 0.0
C187 C 0.32179 0.9813 0.69253 0.0
O188 O 0.32814 1.00177 0.66806 0.0
H189 H 0.28076 0.07092 0.67008 0.0
H190 H 0.32761 0.0355 0.55161 0.0
C191 C 0.31325 0.01086 0.90514 0.0
C192 C 0.33162 1.00845 0.9469 0.0
C193 C 0.36187 0.99355 0.8817 0.0
C194 C 0.34366 0.99587 0.8409 0.0
N195 N 0.31975 1.0044 0.85326 0.0
N196 N 0.35545 0.99984 0.93337 0.0
H197 H 0.29422 0.01814 0.91306 0.0
C198 C 0.37822 0.04272 0.70245 0.0
O199 O 0.36673 0.03502 0.74711 0.0
O200 O 0.26133 0.99518 0.81775 0.0
H201 H 0.34863 0.99106 0.79951 0.0
H202 H 0.25132 0.08622 0.59816 0.0
H203 H 0.38101 0.98685 0.87244 0.0
Zn204 Zn 0.97746 0.82901 0.92843 0.0
C205 C 0.95558 0.79036 0.06232 0.0
N206 N 0.9331 0.80243 0.05469 0.0
C207 C 0.93823 0.81828 0.01295 0.0
N208 N 0.96273 0.81571 0.99542 0.0
N209 N 0.97381 0.79859 0.02745 0.0
C210 C 0.04427 0.76634 0.10188 0.0
O211 O 0.05544 0.78876 0.10779 0.0
O212 O 0.96957 0.86648 0.91908 0.0
Zn213 Zn 1.00969 0.79946 0.04945 0.0
N214 N 0.96544 0.80806 0.86832 0.0
C215 C 0.94438 0.76998 0.83954 0.0
C216 C 0.95311 0.78586 0.88092 0.0
C217 C 0.96965 0.81496 0.81567 0.0
N218 N 0.94864 0.77674 0.78711 0.0
C219 C 0.96117 0.79876 0.77342 0.0
O220 O 0.03589 0.81215 0.99446 0.0
C221 C 0.03626 0.82377 0.94904 0.0
O222 O 0.01569 0.82976 0.92483 0.0
H223 H 0.95007 0.78048 0.92283 0.0
H224 H 0.97929 0.8329 0.80739 0.0
C225 C 1.00628 0.81804 0.16031 0.0
C226 C 1.00866 0.83689 0.20098 0.0
C227 C 0.02054 0.86729 0.13352 0.0
C228 C 0.01834 0.84855 0.09359 0.0
N229 N 0.01139 0.82433 0.10769 0.0
N230 N 0.01581 0.86102 0.18607 0.0
H231 H 1.00112 0.79849 0.17017 0.0
C232 C 0.97178 0.88023 0.9614 0.0
O233 O 0.97601 0.86897 0.00825 0.0
O234 O 0.0228 0.76531 0.07748 0.0
H235 H 0.02228 0.85324 0.05162 0.0
H236 H 0.93444 0.75231 0.84893 0.0
H237 H 0.02611 0.88665 0.12293 0.0
Zn238 Zn 0.22329 0.50996 0.31036 0.0
C239 C 0.20271 0.4402 0.25912 0.0
N240 N 0.21773 0.43262 0.30031 0.0
C241 C 0.22996 0.45438 0.31424 0.0
N242 N 0.22238 0.47457 0.2838 0.0
N243 N 0.20556 0.46545 0.24838 0.0
C244 C 0.14265 0.47161 0.19908 0.0
O245 O 0.15109 0.47495 0.24882 0.0
O246 O 0.2587 0.52341 0.33025 0.0
Zn247 Zn 0.19372 0.48351 0.18466 0.0
N248 N 0.20182 0.50912 0.37361 0.0
C249 C 0.15886 0.51005 0.40597 0.0
C250 C 0.17627 0.50985 0.36313 0.0
C251 C 0.21083 0.50806 0.42531 0.0
N252 N 0.16774 0.50941 0.45766 0.0
C253 C 0.19328 0.50831 0.46873 0.0
O254 O 0.18667 0.52043 0.19543 0.0
C255 C 0.19147 0.53978 0.22465 0.0
O256 O 0.20572 0.538 0.26624 0.0
H257 H 0.16952 0.51048 0.32167 0.0
H258 H 0.2313 0.50758 0.43228 0.0
C259 C 0.2157 0.48294 0.07653 0.0
C260 C 0.23642 0.48367 0.03987 0.0
C261 C 0.26539 0.47996 0.11355 0.0
C262 C 0.24488 0.47952 0.14973 0.0
N263 N 0.22047 0.48104 0.13065 0.0
N264 N 0.26071 0.48221 0.05963 0.0
H265 H 0.19613 0.48487 0.06264 0.0
C266 C 0.26904 0.5392 0.29737 0.0
O267 O 0.25782 0.5436 0.25057 0.0
O268 O 0.15869 0.47208 0.16011 0.0
H269 H 0.24851 0.47858 0.19282 0.0
H270 H 0.13847 0.5108 0.39831 0.0
H271 H 0.28489 0.47894 0.12821 0.0
C272 C 0.97715 0.9232 0.0041 0.0
C273 C 0.97413 0.90834 0.95697 0.0
C274 C 0.98351 0.9491 0.0003 0.0
C275 C 0.01652 0.99374 0.9095 0.0
H276 H 0.98995 0.04498 0.0088 0.0
C277 C 0.04272 0.10199 0.90071 0.0
C278 C 0.04531 0.11466 0.9508 0.0
C279 C 0.03485 0.07637 0.899 0.0
C280 C 0.99776 0.03081 0.9812 0.0
H281 H 0.97396 0.90928 0.86881 0.0
H282 H 0.98494 0.95473 0.86224 0.0
H283 H 0.97164 1.00201 0.00901 0.0
H284 H 0.04371 0.10993 0.03835 0.0
H285 H 0.03047 0.06522 0.03531 0.0
H286 H 0.04281 0.02259 0.88207 0.0
C287 C 0.98274 0.94617 0.90209 0.0
C288 C 0.98719 1.00625 0.98116 0.0
C289 C 0.97624 0.92023 0.90588 0.0
C290 C 0.04161 0.10078 -0.00091 0.0
C291 C 0.03381 0.07524 0.99737 0.0
C292 C 0.02712 0.01836 0.90953 0.0
C293 C 0.98702 0.96069 0.94929 0.0
C294 C 0.99666 0.98737 0.94581 0.0
C295 C 0.02951 0.06303 0.94734 0.0
C296 C 0.01807 0.03703 0.94594 0.0
H297 H 0.97561 0.91461 0.04407 0.0
H298 H 0.98686 0.95973 0.03742 0.0
H299 H 0.02445 0.97947 0.88229 0.0
H300 H 0.04545 0.11219 0.86278 0.0
H301 H 0.03171 0.06745 0.85984 0.0
C302 C 0.91985 0.54129 0.14528 0.0
C303 C 0.90749 0.53922 0.19594 0.0
C304 C 0.94587 0.53522 0.14014 0.0
C305 C 1.00483 0.52501 0.22106 0.0
H306 H 0.02529 0.48031 0.10261 0.0
C307 C 0.09787 0.46943 0.23288 0.0
C308 C 0.11482 0.47271 0.18907 0.0
C309 C 0.07222 0.47637 0.22798 0.0
C310 C 0.01984 0.49295 0.13559 0.0
H311 H 0.91293 0.53017 0.28121 0.0
H312 H 0.95795 0.51952 0.27225 0.0
H313 H 0.98165 0.49767 0.10521 0.0
H314 H 0.11781 0.48367 0.10425 0.0
H315 H 0.07261 0.49575 0.09563 0.0
H316 H 0.04266 0.51985 0.25217 0.0
C317 C 0.94776 0.526 0.2365 0.0
C318 C 0.99496 0.503 0.13698 0.0
C319 C 0.92186 0.53201 0.24161 0.0
C320 C 0.10514 0.48094 0.13871 0.0
C321 C 0.07933 0.48792 0.13379 0.0
C322 C 0.0295 0.51485 0.21986 0.0
C323 C 0.95999 0.52712 0.18561 0.0
C324 C 0.98707 0.51874 0.18037 0.0
C325 C 0.06297 0.48673 0.17916 0.0
C326 C 0.03709 0.49831 0.17779 0.0
H327 H 0.90927 0.54681 0.10932 0.0
H328 H 0.95486 0.53656 0.10053 0.0
H329 H 0.99955 0.53753 0.25435 0.0
H330 H 0.10471 0.46278 0.27196 0.0
H331 H 0.05982 0.47468 0.26319 0.0
C332 C 0.54321 0.60099 0.40006 0.0
C333 C 0.54548 0.61269 0.45129 0.0
C334 C 0.53699 0.57496 0.396 0.0
C335 C 0.53398 0.51459 0.47499 0.0
H336 H 0.47817 0.49706 0.37782 0.0
C337 C 0.47955 0.42074 0.50057 0.0
C338 C 0.47609 0.40579 0.45372 0.0
C339 C 0.48723 0.44626 0.49638 0.0
C340 C 0.49393 0.50163 0.40472 0.0
H341 H 0.54444 0.60604 0.53828 0.0
H342 H 0.5337 0.56084 0.53124 0.0
H343 H 0.49607 0.54044 0.37647 0.0
H344 H 0.47613 0.40633 0.36559 0.0
H345 H 0.48957 0.45118 0.35828 0.0
H346 H 0.53164 0.47603 0.50391 0.0
C347 C 0.53673 0.57164 0.49417 0.0
C348 C 0.50426 0.5264 0.40379 0.0
C349 C 0.54279 0.5976 0.49822 0.0
C350 C 0.47865 0.4174 0.40243 0.0
C351 C 0.48639 0.44304 0.39823 0.0
C352 C 0.52365 0.48994 0.47599 0.0
C353 C 0.53318 0.56015 0.44308 0.0
C354 C 0.5241 0.53324 0.43964 0.0
C355 C 0.49165 0.4574 0.44525 0.0
C356 C 0.50319 0.48333 0.44164 0.0
H357 H 0.54518 0.61213 0.36313 0.0
H358 H 0.53471 0.56653 0.35609 0.0
H359 H 0.54956 0.51914 0.50238 0.0
H360 H 0.47742 0.41243 0.54069 0.0
H361 H 0.49047 0.45707 0.53332 0.0
C362 C 0.60203 0.97449 0.64423 0.0
C363 C 0.61344 0.97325 0.69584 0.0
C364 C 0.57578 0.97942 0.63929 0.0
C365 C 0.51475 0.98059 0.71602 0.0
H366 H 0.49722 0.03749 0.62151 0.0
C367 C 0.42081 0.0345 0.74397 0.0
C368 C 0.4062 0.03944 0.69729 0.0
C369 C 0.44617 0.02644 0.73942 0.0
C370 C 0.50176 0.02138 0.64755 0.0
H371 H 0.60619 0.97433 0.78259 0.0
H372 H 0.56054 0.98266 0.77404 0.0
H373 H 0.5407 0.02001 0.61991 0.0
H374 H 0.40716 0.04144 0.60928 0.0
H375 H 0.4517 0.02726 0.60131 0.0
H376 H 0.47606 0.98215 0.74437 0.0
C377 C 0.57174 0.97997 0.73737 0.0
C378 C 0.52659 0.0113 0.64648 0.0
C379 C 0.59793 0.97532 0.74229 0.0
C380 C 0.41798 0.0378 0.64599 0.0
C381 C 0.44345 0.02963 0.64142 0.0
C382 C 0.49 0.99063 0.71705 0.0
C383 C 0.56052 0.9828 0.68588 0.0
C384 C 0.53346 0.99116 0.68157 0.0
C385 C 0.45749 0.02305 0.68808 0.0
C386 C 0.48339 0.01151 0.68378 0.0
H387 H 0.61357 0.97299 0.60772 0.0
H388 H 0.56755 0.98122 0.59911 0.0
H389 H 0.51938 0.96481 0.74287 0.0
H390 H 0.41235 0.03589 0.78411 0.0
H391 H 0.45673 0.02222 0.77619 0.0
C392 C 0.26821 0.07298 0.89436 0.0
C393 C 0.2677 0.06266 0.84183 0.0
C394 C 0.2458 0.08247 0.91822 0.0
C395 C 0.17484 0.09257 0.89507 0.0
H396 H 0.18899 0.15521 0.97442 0.0
C397 C 0.10246 0.17704 0.92986 0.0
C398 C 0.10032 0.18547 0.98386 0.0
C399 C 0.12102 0.15881 0.91523 0.0
C400 C 0.18471 0.13767 0.95267 0.0
H401 H 0.24327 0.05245 0.77433 0.0
H402 H 0.20438 0.06995 0.81444 0.0
H403 H 0.22418 0.12777 0.94721 0.0
H404 H 0.11646 0.1819 0.06462 0.0
H405 H 0.14931 0.15094 0.0388 0.0
H406 H 0.13518 0.1038 0.89844 0.0
C407 C 0.22173 0.07019 0.83846 0.0
C408 C 0.20491 0.12164 0.93746 0.0
C409 C 0.24407 0.05999 0.81533 0.0
C410 C 0.1175 0.17572 0.02264 0.0
C411 C 0.13627 0.15794 0.00797 0.0
C412 C 0.1546 0.10897 0.90947 0.0
C413 C 0.22253 0.08281 0.88912 0.0
C414 C 0.20039 0.09877 0.90845 0.0
C415 C 0.13828 0.14931 0.95413 0.0
C416 C 0.15939 0.13166 0.93846 0.0
H417 H 0.28626 0.07523 0.91555 0.0
H418 H 0.24714 0.09094 0.95827 0.0
H419 H 0.17037 0.07508 0.87341 0.0
H420 H 0.09026 0.18485 0.89869 0.0
H421 H 0.12246 0.15282 0.8732 0.0
C422 C 0.84933 0.6155 0.27416 0.0
C423 C 0.83879 0.59787 0.23727 0.0
C424 C 0.86745 0.63359 0.25724 0.0
C425 C 0.89368 0.66462 0.13163 0.0
H426 H 0.94235 0.69294 0.23445 0.0
C427 C 0.96413 0.74369 0.06879 0.0
C428 C 0.95693 0.7666 0.09456 0.0
C429 C 0.95617 0.72004 0.08993 0.0
C430 C 0.92904 0.68497 0.20524 0.0
H431 H 0.83798 0.58672 0.15286 0.0
H432 H 0.87106 0.61648 0.12375 0.0
H433 H 0.91526 0.65687 0.26137 0.0
H434 H 0.93816 0.78287 0.165 0.0
H435 H 0.92541 0.74148 0.2035 0.0
H436 H 0.90802 0.69257 0.07538 0.0
C437 C 0.86516 0.61677 0.16591 0.0
C438 C 0.9132 0.6645 0.22072 0.0
C439 C 0.84651 0.5991 0.18278 0.0
C440 C 0.94419 0.76542 0.14481 0.0
C441 C 0.93681 0.74177 0.16665 0.0
C442 C 0.90997 0.6846 0.11583 0.0
C443 C 0.87587 0.63445 0.20286 0.0
C444 C 0.89474 0.65444 0.18463 0.0
C445 C 0.94148 0.719 0.13782 0.0
C446 C 0.9274 0.69532 0.15278 0.0
H447 H 0.84352 0.61538 0.31646 0.0
H448 H 0.87439 0.64722 0.28692 0.0
H449 H 0.87957 0.658 0.1027 0.0
H450 H 0.97353 0.74413 0.02949 0.0
H451 H 0.96 0.70272 0.06705 0.0
C452 C 0.41271 0.35721 0.5282 0.0
C453 C 0.42344 0.33904 0.49277 0.0
C454 C 0.3948 0.37505 0.50934 0.0
C455 C 0.34426 0.37997 0.40999 0.0
H456 H 0.34271 0.45256 0.445 0.0
C457 C 0.25181 0.43609 0.39428 0.0
C458 C 0.25223 0.45366 0.35106 0.0
C459 C 0.27465 0.42706 0.41663 0.0
C460 C 0.34301 0.43234 0.435 0.0
H461 H 0.42398 0.32517 0.41003 0.0
H462 H 0.39217 0.356 0.37696 0.0
H463 H 0.38034 0.42654 0.46985 0.0
H464 H 0.27674 0.47713 0.30024 0.0
H465 H 0.31689 0.46197 0.34102 0.0
H466 H 0.30674 0.38541 0.37692 0.0
C467 C 0.39798 0.35674 0.41916 0.0
C468 C 0.36442 0.41748 0.44917 0.0
C469 C 0.41625 0.33918 0.43791 0.0
C470 C 0.27582 0.46416 0.33456 0.0
C471 C 0.2988 0.45523 0.35738 0.0
C472 C 0.32277 0.39463 0.3969 0.0
C473 C 0.38682 0.37464 0.45488 0.0
C474 C 0.36519 0.39111 0.4369 0.0
C475 C 0.29834 0.43557 0.39647 0.0
C476 C 0.32183 0.42087 0.40963 0.0
H477 H 0.41796 0.35738 0.57078 0.0
H478 H 0.38634 0.3884 0.5379 0.0
H479 H 0.34416 0.35968 0.40055 0.0
H480 H 0.2339 0.42757 0.40746 0.0
H481 H 0.27383 0.41203 0.44699 0.0
C482 C 0.65933 0.91574 0.77897 0.0
C483 C 0.67851 0.9239 0.7429 0.0
C484 C 0.64055 0.89832 0.76226 0.0
C485 C 0.6139 0.86486 0.63943 0.0
H486 H 0.59385 0.81399 0.74626 0.0
C487 C 0.55535 0.7767 0.57387 0.0
C488 C 0.5649 0.7534 0.59386 0.0
C489 C 0.56247 0.79998 0.59816 0.0
C490 C 0.59923 0.82797 0.71574 0.0
H491 H 0.69329 0.92034 0.66121 0.0
H492 H 0.6613 0.88905 0.63218 0.0
H493 H 0.62079 0.84961 0.7733 0.0
H494 H 0.58781 0.7359 0.65686 0.0
H495 H 0.60044 0.77601 0.69881 0.0
H496 H 0.59391 0.84207 0.58103 0.0
C497 C 0.65999 0.89671 0.67295 0.0
C498 C 0.61448 0.84875 0.73147 0.0
C499 C 0.67851 0.91456 0.68953 0.0
C500 C 0.57993 0.75361 0.64104 0.0
C501 C 0.58716 0.77675 0.66511 0.0
C502 C 0.59892 0.84385 0.62352 0.0
C503 C 0.6409 0.88803 0.70934 0.0
C504 C 0.62253 0.86726 0.69335 0.0
C505 C 0.57952 0.80036 0.64255 0.0
C506 C 0.59186 0.82475 0.6612 0.0
H507 H 0.65889 0.92287 0.82032 0.0
H508 H 0.62592 0.89274 0.79119 0.0
H509 H 0.61914 0.87893 0.60901 0.0
H510 H 0.54435 0.77715 0.53662 0.0
H511 H 0.55576 0.81769 0.58022 0.0
C512 C 0.78139 0.0823 0.88301 0.0
C513 C 0.78235 0.06038 0.84978 0.0
C514 C 0.80326 0.09723 0.89158 0.0
C515 C 0.86493 0.11452 0.82959 0.0
H516 H 0.88066 0.14107 0.97284 0.0
C517 C 0.95933 0.16856 0.87741 0.0
C518 C 0.95922 0.18767 0.91784 0.0
C519 C 0.93731 0.15414 0.86658 0.0
C520 C 0.87635 0.13424 0.93233 0.0
H521 H 0.80726 0.03669 0.80027 0.0
H522 H 0.84563 0.063 0.81503 0.0
H523 H 0.84415 0.11253 0.96087 0.0
H524 H 0.93517 0.20755 0.97615 0.0
H525 H 0.89655 0.18298 0.956 0.0
H526 H 0.89686 0.13651 0.80078 0.0
C527 C 0.8278 0.06861 0.83425 0.0
C528 C 0.85547 0.11769 0.92558 0.0
C529 C 0.8059 0.05344 0.82613 0.0
C530 C 0.93605 0.19295 0.94491 0.0
C531 C 0.91394 0.17861 0.93377 0.0
C532 C 0.88572 0.13126 0.83624 0.0
C533 C 0.82666 0.09079 0.8668 0.0
C534 C 0.84949 0.10763 0.87415 0.0
C535 C 0.91445 0.15851 0.89552 0.0
C536 C 0.89174 0.14137 0.88775 0.0
H537 H 0.76359 0.0882 0.90196 0.0
H538 H 0.80164 0.11427 0.91649 0.0
H539 H 0.86061 0.10741 0.78929 0.0
H540 H 0.97679 0.16382 0.85576 0.0
H541 H 0.93863 0.13875 0.83718 0.0
C542 C 0.83776 0.4371 0.2049 0.0
C543 C 0.83307 0.45766 0.1693 0.0
C544 C 0.85326 0.41652 0.1887 0.0
C545 C 0.9049 0.40219 0.08934 0.0
H546 H 0.89605 0.33223 0.13923 0.0
C547 C 0.96546 0.31761 0.00764 0.0
C548 C 0.97369 0.299 0.04505 0.0
C549 C 0.94859 0.33705 0.0236 0.0
C550 C 0.89892 0.35175 0.12545 0.0
H551 H 0.83937 0.47172 0.08742 0.0
H552 H 0.86551 0.43554 0.05863 0.0
H553 H 0.86418 0.36461 0.16314 0.0
H554 H 0.97114 0.28668 0.12912 0.0
H555 H 0.94168 0.32067 0.15692 0.0
H556 H 0.9395 0.38926 0.05126 0.0
C557 C 0.85801 0.43566 0.0997 0.0
C558 C 0.88062 0.37033 0.1391 0.0
C559 C 0.84275 0.4563 0.11601 0.0
C560 C 0.96519 0.30071 0.09923 0.0
C561 C 0.94813 0.32005 0.11508 0.0
C562 C 0.92306 0.3836 0.07543 0.0
C563 C 0.86426 0.41594 0.1364 0.0
C564 C 0.88333 0.39581 0.12112 0.0
C565 C 0.93939 0.33827 0.07729 0.0
C566 C 0.92031 0.35815 0.09326 0.0
H567 H 0.83082 0.43763 0.2464 0.0
H568 H 0.85769 0.40179 0.21822 0.0
H569 H 0.90805 0.4217 0.07584 0.0
H570 H 0.9716 0.31687 0.9656 0.0
H571 H 0.94212 0.35068 0.99338 0.0
C572 C 0.73978 0.43884 0.38903 0.0
C573 C 0.73868 0.45988 0.35336 0.0
C574 C 0.71798 0.42407 0.39962 0.0
C575 C 0.65682 0.40472 0.3395 0.0
H576 H 0.64028 0.38206 0.4855 0.0
C577 C 0.56241 0.35174 0.39115 0.0
C578 C 0.56216 0.33373 0.43379 0.0
C579 C 0.58446 0.36596 0.37945 0.0
C580 C 0.64483 0.38779 0.4443 0.0
H581 H 0.71363 0.48225 0.30169 0.0
H582 H 0.6754 0.45618 0.31988 0.0
H583 H 0.67674 0.41046 0.47069 0.0
H584 H 0.5856 0.31561 0.49549 0.0
H585 H 0.62435 0.33981 0.47388 0.0
H586 H 0.62528 0.38173 0.31279 0.0
C587 C 0.69326 0.45115 0.3395 0.0
C588 C 0.66566 0.40426 0.43591 0.0
C589 C 0.71508 0.46619 0.32941 0.0
C590 C 0.58502 0.32935 0.4625 0.0
C591 C 0.60719 0.34348 0.45049 0.0
C592 C 0.63612 0.38804 0.34779 0.0
C593 C 0.69455 0.42979 0.37438 0.0
C594 C 0.67187 0.41296 0.38344 0.0
C595 C 0.60703 0.36246 0.4097 0.0
C596 C 0.62977 0.37937 0.40036 0.0
H597 H 0.75764 0.43348 0.4083 0.0
H598 H 0.71968 0.40766 0.42636 0.0
H599 H 0.66137 0.41074 0.29847 0.0
H600 H 0.54519 0.35576 0.36816 0.0
H601 H 0.58339 0.38051 0.34816 0.0
C602 C 0.67574 0.06249 0.62174 0.0
C603 C 0.68547 0.06071 0.67483 0.0
C604 C 0.66068 0.0834 0.60621 0.0
C605 C 0.6391 0.14879 0.64809 0.0
H606 H 0.58039 0.13187 0.55851 0.0
C607 C 0.5556 0.2199 0.61117 0.0
C608 C 0.54774 0.22268 0.55684 0.0
C609 C 0.57228 0.2001 0.62613 0.0
C610 C 0.59678 0.13695 0.58323 0.0
H611 H 0.68794 0.08017 0.7525 0.0
H612 H 0.66136 0.11641 0.72577 0.0
H613 H 0.61112 0.09859 0.58204 0.0
H614 H 0.55055 0.20626 0.47609 0.0
H615 H 0.57932 0.17159 0.50235 0.0
H616 H 0.62429 0.18713 0.64993 0.0
C617 C 0.66563 0.10185 0.69575 0.0
C618 C 0.61454 0.11789 0.59651 0.0
C619 C 0.68094 0.08103 0.71113 0.0
C620 C 0.55622 0.20469 0.51827 0.0
C621 C 0.57267 0.18476 0.53333 0.0
C622 C 0.62119 0.16781 0.63514 0.0
C623 C 0.65469 0.10295 0.64352 0.0
C624 C 0.63605 0.12355 0.6289 0.0
C625 C 0.58123 0.18248 0.58724 0.0
C626 C 0.59988 0.16212 0.60239 0.0
H627 H 0.67902 0.04726 0.59262 0.0
H628 H 0.65324 0.0839 0.56518 0.0
H629 H 0.65553 0.15398 0.67255 0.0
H630 H 0.54946 0.23344 0.64191 0.0
H631 H 0.57828 0.19865 0.66812 0.0
C632 C 0.74332 0.55636 0.31085 0.0
C633 C 0.76648 0.56217 0.3371 0.0
C634 C 0.72002 0.56517 0.33224 0.0
C635 C 0.68623 0.59206 0.44971 0.0
H636 H 0.65977 0.64291 0.34955 0.0
C637 C 0.61842 0.67218 0.52329 0.0
C638 C 0.6006 0.68309 0.48737 0.0
C639 C 0.63629 0.65412 0.50516 0.0
C640 C 0.66627 0.62845 0.37784 0.0
H641 H 0.78341 0.5794 0.40846 0.0
H642 H 0.74258 0.59354 0.44739 0.0
H643 H 0.69357 0.61399 0.32031 0.0
H644 H 0.58892 0.68472 0.40337 0.0
H645 H 0.61842 0.65185 0.37208 0.0
H646 H 0.65877 0.60594 0.50709 0.0
C647 C 0.74242 0.58262 0.40996 0.0
C648 C 0.6858 0.61188 0.36094 0.0
C649 C 0.76575 0.57442 0.38787 0.0
C650 C 0.60152 0.67593 0.43253 0.0
C651 C 0.61898 0.65737 0.41443 0.0
C652 C 0.66622 0.6082 0.4663 0.0
C653 C 0.71953 0.57929 0.38088 0.0
C654 C 0.69633 0.5939 0.397 0.0
C655 C 0.63676 0.64617 0.45048 0.0
C656 C 0.65634 0.62715 0.43109 0.0
H657 H 0.74342 0.54739 0.27115 0.0
H658 H 0.70259 0.56233 0.30916 0.0
H659 H 0.69402 0.57833 0.47826 0.0
H660 H 0.61855 0.67757 0.5658 0.0
H661 H 0.65001 0.64681 0.53418 0.0
C662 C 0.46474 0.24369 0.57952 0.0
C663 C 0.45485 0.26693 0.59921 0.0
C664 C 0.45717 0.22032 0.60281 0.0
C665 C 0.41875 0.19184 0.71772 0.0
H666 H 0.40188 0.1403 0.61013 0.0
C667 C 0.36007 0.10276 0.77836 0.0
C668 C 0.34165 0.09399 0.74137 0.0
C669 C 0.37868 0.12054 0.76239 0.0
C670 C 0.40625 0.15453 0.64076 0.0
H671 H 0.43067 0.28414 0.66064 0.0
H672 H 0.41718 0.24382 0.70069 0.0
H673 H 0.42662 0.17776 0.58353 0.0
H674 H 0.32817 0.09673 0.65865 0.0
H675 H 0.35985 0.12863 0.63085 0.0
H676 H 0.39682 0.16973 0.77402 0.0
C677 C 0.4311 0.24324 0.66804 0.0
C678 C 0.42095 0.1759 0.62568 0.0
C679 C 0.43881 0.2665 0.64502 0.0
C680 C 0.34237 0.10296 0.68771 0.0
C681 C 0.3607 0.1212 0.67186 0.0
C682 C 0.40377 0.1707 0.73261 0.0
C683 C 0.43929 0.21973 0.64586 0.0
C684 C 0.42696 0.19517 0.66369 0.0
C685 C 0.3789 0.13061 0.70928 0.0
C686 C 0.39687 0.15192 0.69416 0.0
H687 H 0.4765 0.24338 0.54324 0.0
H688 H 0.46431 0.20268 0.58521 0.0
H689 H 0.42331 0.20594 0.7485 0.0
H690 H 0.35997 0.09593 0.81996 0.0
H691 H 0.39268 0.12663 0.79212 0.0
C692 C 0.77507 0.96284 0.82029 0.0
C693 C 0.75167 0.956 0.84464 0.0
C694 C 0.79822 0.95414 0.84224 0.0
C695 C 0.83106 0.92593 0.95888 0.0
H696 H 0.85989 0.8775 0.85611 0.0
C697 C 0.90052 0.84663 0.02879 0.0
C698 C 0.91904 0.83698 0.99267 0.0
C699 C 0.88222 0.86438 0.01145 0.0
C700 C 0.85271 0.89131 0.88518 0.0
H701 H 0.73409 0.93705 0.91351 0.0
H702 H 0.77465 0.92293 0.95338 0.0
H703 H 0.82566 0.90601 0.82768 0.0
H704 H 0.93152 0.83728 0.90903 0.0
H705 H 0.90131 0.86969 0.87933 0.0
H706 H 0.8583 0.91182 0.01626 0.0
C707 C 0.77509 0.9346 0.91696 0.0
C708 C 0.83294 0.90762 0.86874 0.0
C709 C 0.75191 0.94273 0.89429 0.0
C710 C 0.9184 0.84511 0.93843 0.0
C711 C 0.90051 0.86338 0.92119 0.0
C712 C 0.85132 0.91006 0.97506 0.0
C713 C 0.79831 0.93907 0.88958 0.0
C714 C 0.8216 0.92471 0.90568 0.0
C715 C 0.88203 0.8733 0.95744 0.0
C716 C 0.86206 0.89201 0.93883 0.0
H717 H 0.77538 0.97268 0.78151 0.0
H718 H 0.81592 0.95786 0.8205 0.0
H719 H 0.82261 0.93898 0.98808 0.0
H720 H 0.90018 0.8405 0.07085 0.0
H721 H 0.86798 0.87071 0.04051 0.0
C722 C 0.16988 0.40608 0.26782 0.0
C723 C 0.18374 0.42278 0.23406 0.0
C724 C 0.15176 0.38928 0.24621 0.0
C725 C 0.13118 0.35881 0.1162 0.0
H726 H 0.0746 0.33614 0.20698 0.0
C727 C 0.05908 0.28207 0.04487 0.0
C728 C 0.06342 0.25956 0.07482 0.0
C729 C 0.06771 0.30576 0.06453 0.0
C730 C 0.09014 0.34254 0.18102 0.0
H731 H 0.19076 0.43391 0.15079 0.0
H732 H 0.15785 0.40566 0.11262 0.0
H733 H 0.10211 0.37108 0.23776 0.0
H734 H 0.07798 0.24423 0.15032 0.0
H735 H 0.09166 0.28585 0.1862 0.0
H736 H 0.11864 0.33035 0.0592 0.0
C737 C 0.16104 0.40532 0.15604 0.0
C738 C 0.1062 0.36234 0.19882 0.0
C739 C 0.17965 0.42184 0.17783 0.0
C740 C 0.07407 0.26141 0.12697 0.0
C741 C 0.08202 0.28516 0.14727 0.0
C742 C 0.11471 0.33945 0.09789 0.0
C743 C 0.14674 0.38877 0.19004 0.0
C744 C 0.12754 0.37019 0.16756 0.0
C745 C 0.08012 0.3073 0.11503 0.0
C746 C 0.09448 0.33069 0.13076 0.0
H747 H 0.17301 0.40606 0.31134 0.0
H748 H 0.14205 0.37636 0.27385 0.0
H749 H 0.14742 0.3639 0.09101 0.0
H750 H 0.05143 0.28103 0.00403 0.0
H751 H 0.06606 0.32259 0.03899 0.0
C752 C 0.30627 0.54863 0.35943 0.0
C753 C 0.29145 0.55493 0.31368 0.0
C754 C 0.32653 0.56456 0.37573 0.0
C755 C 0.34923 0.63123 0.36825 0.0
H756 H 0.4168 0.60308 0.39479 0.0
C757 C 0.43629 0.689 0.45547 0.0
C758 C 0.45969 0.68518 0.42808 0.0
C759 C 0.41465 0.67428 0.44217 0.0
C760 C 0.398 0.6112 0.38757 0.0
H761 H 0.28634 0.58291 0.24926 0.0
H762 H 0.32129 0.61066 0.27814 0.0
H763 H 0.38131 0.57432 0.37208 0.0
H764 H 0.47815 0.6636 0.36333 0.0
H765 H 0.4407 0.63805 0.34094 0.0
H766 H 0.36599 0.66813 0.38374 0.0
C767 C 0.31729 0.59346 0.30134 0.0
C768 C 0.37769 0.59472 0.375 0.0
C769 C 0.2974 0.57738 0.28457 0.0
C770 C 0.46056 0.66711 0.38557 0.0
C771 C 0.43914 0.65225 0.3729 0.0
C772 C 0.36948 0.64768 0.38172 0.0
C773 C 0.33202 0.58731 0.34718 0.0
C774 C 0.35317 0.60459 0.3644 0.0
C775 C 0.41612 0.65525 0.40178 0.0
C776 C 0.39417 0.63786 0.39065 0.0
H777 H 0.30216 0.53147 0.38271 0.0
H778 H 0.3376 0.55937 0.41126 0.0
H779 H 0.33047 0.63934 0.36066 0.0
H780 H 0.43491 0.70267 0.48847 0.0
H781 H 0.39709 0.67703 0.46499 0.0
C782 C 0.34298 0.95514 0.61987 0.0
C783 C 0.33305 0.95684 0.67291 0.0
C784 C 0.35823 0.93434 0.60437 0.0
C785 C 0.38035 0.86907 0.64632 0.0
H786 H 0.43908 0.88662 0.55678 0.0
C787 C 0.46453 0.79854 0.60834 0.0
C788 C 0.4726 0.79609 0.554 0.0
C789 C 0.44763 0.81813 0.62364 0.0
C790 C 0.42269 0.88135 0.58149 0.0
H791 H 0.33046 0.93728 0.75049 0.0
H792 H 0.35734 0.90121 0.72381 0.0
H793 H 0.40799 0.91957 0.58035 0.0
H794 H 0.4699 0.81291 0.47361 0.0
H795 H 0.44078 0.8472 0.50043 0.0
H796 H 0.39553 0.83087 0.64807 0.0
C797 C 0.35308 0.91576 0.69379 0.0
C798 C 0.40472 0.90023 0.5948 0.0
C799 C 0.33757 0.93648 0.70914 0.0
C800 C 0.46409 0.81422 0.5158 0.0
C801 C 0.44743 0.83394 0.5312 0.0
C802 C 0.39849 0.85022 0.63333 0.0
C803 C 0.36425 0.91479 0.64166 0.0
C804 C 0.38318 0.89436 0.62713 0.0
C805 C 0.43866 0.83591 0.5851 0.0
C806 C 0.41982 0.85611 0.60054 0.0
H807 H 0.33975 0.9704 0.5908 0.0
H808 H 0.36584 0.93394 0.5634 0.0
H809 H 0.36393 0.8637 0.67077 0.0
H810 H 0.47068 0.78488 0.6388 0.0
H811 H 0.44148 0.81933 0.66563 0.0
C812 C 0.06202 0.84436 0.87488 0.0
C813 C 0.06064 0.83477 0.92821 0.0
C814 C 0.08291 0.85922 0.8581 0.0
C815 C 0.14888 0.88049 0.89654 0.0
H816 H 0.1316 0.93918 0.80701 0.0
C817 C 0.22032 0.96357 0.85602 0.0
C818 C 0.22255 0.97172 0.80171 0.0
C819 C 0.20059 0.94691 0.87178 0.0
C820 C 0.1368 0.92279 0.83166 0.0
H821 H 0.08082 0.83234 0.00497 0.0
H822 H 0.11706 0.85855 0.97605 0.0
H823 H 0.09835 0.90865 0.83232 0.0
H824 H 0.2052 0.96941 0.72186 0.0
H825 H 0.17066 0.94065 0.7495 0.0
H826 H 0.18732 0.89508 0.89651 0.0
C827 C 0.10218 0.85433 0.9468 0.0
C828 C 0.11774 0.90514 0.84599 0.0
C829 C 0.08136 0.83922 0.96344 0.0
C830 C 0.20407 0.96353 0.76401 0.0
C831 C 0.18421 0.94708 0.77988 0.0
C832 C 0.16792 0.89828 0.88251 0.0
C833 C 0.10288 0.86516 0.89436 0.0
C834 C 0.1235 0.88365 0.87845 0.0
C835 C 0.18246 0.93823 0.83375 0.0
C836 C 0.16211 0.91961 0.84978 0.0
H837 H 0.04648 0.84115 0.84654 0.0
H838 H 0.08308 0.86657 0.81694 0.0
H839 H 0.15417 0.86407 0.92101 0.0
H840 H 0.23423 0.96948 0.88614 0.0
H841 H 0.19957 0.94072 0.91375 0.0
C842 C 0.04969 0.7184 0.10366 0.0
C843 C 0.05753 0.74286 0.12079 0.0
C844 C 0.0638 0.6966 0.11827 0.0
C845 C 0.1288 0.67772 0.16613 0.0
H846 H 0.09614 0.61202 0.19152 0.0
C847 C 0.18356 0.58694 0.24054 0.0
C848 C 0.17779 0.56411 0.21271 0.0
C849 C 0.16911 0.6092 0.23139 0.0
C850 C 0.10554 0.63024 0.18428 0.0
H851 H 0.08559 0.7635 0.16888 0.0
H852 H 0.10958 0.72567 0.19556 0.0
H853 H 0.06981 0.64968 0.17339 0.0
H854 H 0.15231 0.54694 0.15311 0.0
H855 H 0.12731 0.58551 0.13763 0.0
H856 H 0.16453 0.65817 0.17765 0.0
C857 C 0.09309 0.72323 0.16942 0.0
C858 C 0.09045 0.65183 0.17366 0.0
C859 C 0.07918 0.74496 0.15441 0.0
C860 C 0.15745 0.56416 0.17518 0.0
C861 C 0.1429 0.58622 0.1666 0.0
C862 C 0.14387 0.65617 0.17729 0.0
C863 C 0.08591 0.69877 0.15077 0.0
C864 C 0.10187 0.67585 0.16396 0.0
C865 C 0.1484 0.60894 0.19483 0.0
C866 C 0.13242 0.63214 0.18591 0.0
H867 H 0.03311 0.71615 0.07767 0.0
H868 H 0.05777 0.67816 0.10267 0.0
H869 H 0.13838 0.69574 0.15794 0.0
H870 H 0.19902 0.58755 0.26981 0.0
H871 H 0.17375 0.62644 0.25385 0.0
C872 C 0.02116 0.17314 0.27985 0.0
C873 C 0.01616 0.19396 0.24496 0.0
C874 C 0.02458 0.17686 0.33551 0.0
C875 C 0.04176 0.2251 0.43785 0.0
H876 H 1.00808 0.17842 0.53794 0.0
C877 C 0.04444 0.24206 0.6688 0.0
C878 C 0.04768 0.22067 0.70286 0.0
C879 C 0.03926 0.23896 0.61357 0.0
C880 C 0.01788 0.19144 0.51062 0.0
H881 H 0.01073 0.23531 0.24274 0.0
H882 H 0.01726 0.24172 0.33973 0.0
H883 H 1.00219 0.17308 0.44031 0.0
H884 H 0.04798 0.1791 0.70529 0.0
H885 H 0.03925 0.17363 0.60858 0.0
H886 H 0.05786 0.24321 0.50783 0.0
C887 C 0.01867 0.22248 0.32342 0.0
C888 C 0.01445 0.18842 0.45463 0.0
C889 C 0.01506 0.21876 0.26755 0.0
C890 C 0.04517 0.196 0.68046 0.0
C891 C 0.04018 0.19288 0.62491 0.0
C892 C 0.04534 0.22803 0.49381 0.0
C893 C 0.02321 0.20152 0.35806 0.0
C894 C 0.0264 0.20518 0.4176 0.0
C895 C 0.03747 0.21435 0.59062 0.0
C896 C 0.03345 0.21124 0.53099 0.0
H897 H 0.02239 0.15376 0.26425 0.0
H898 H 0.02848 0.16036 0.36092 0.0
H899 H 0.05151 0.2381 0.41036 0.0
H900 H 0.046 0.26134 0.68484 0.0
H901 H 0.03671 0.25594 0.58883 0.0
C902 C 0.77836 0.54755 0.92423 0.0
C903 C 0.79971 0.54968 0.9587 0.0
C904 C 0.78151 0.54273 0.86881 0.0
C905 C 0.82862 0.51946 0.76697 0.0
H906 H 0.78412 0.55464 0.66524 0.0
C907 C 0.84866 0.52055 0.53709 0.0
C908 C 0.82793 0.51585 0.50193 0.0
C909 C 0.84467 0.52482 0.59241 0.0
C910 C 0.79652 0.54449 0.69317 0.0
H911 H 0.84127 0.54876 0.96143 0.0
H912 H 0.84679 0.5406 0.86461 0.0
H913 H 0.77863 0.56151 0.76261 0.0
H914 H 0.78643 0.51203 0.49863 0.0
H915 H 0.77956 0.52003 0.59508 0.0
H916 H 0.84674 0.50278 0.69734 0.0
C917 C 0.82752 0.54206 0.88074 0.0
C918 C 0.79337 0.54836 0.74903 0.0
C919 C 0.82436 0.54671 0.93638 0.0
C920 C 0.80293 0.51607 0.52373 0.0
C921 C 0.79894 0.52053 0.57926 0.0
C922 C 0.83187 0.51573 0.71114 0.0
C923 C 0.80612 0.54017 0.84617 0.0
C924 C 0.8094 0.53592 0.78668 0.0
C925 C 0.81982 0.52462 0.61428 0.0
C926 C 0.81591 0.52826 0.67361 0.0
H927 H 0.75909 0.54954 0.94014 0.0
H928 H 0.76457 0.54091 0.84375 0.0
H929 H 0.84102 0.50919 0.7947 0.0
H930 H 0.86818 0.52078 0.52198 0.0
H931 H 0.86112 0.52836 0.61814 0.0
C932 C 0.48993 0.30629 0.78019 0.0
C933 C 0.50844 0.32416 0.76294 0.0
C934 C 0.48527 0.30246 0.8357 0.0
C935 C 0.49355 0.33486 0.96866 0.0
H936 H 0.47937 0.26746 0.02802 0.0
C937 C 0.48865 0.31482 0.19982 0.0
C938 C 0.46881 0.29865 0.21818 0.0
C939 C 0.49319 0.31805 0.14416 0.0
C940 C 0.48306 0.28645 0.01193 0.0
H941 H 0.53709 0.35135 0.79045 0.0
H942 H 0.52936 0.34432 0.88667 0.0
H943 H 0.48816 0.27214 0.93107 0.0
H944 H 0.43813 0.27342 0.19174 0.0
H945 H 0.44613 0.2791 0.09512 0.0
H946 H 0.48866 0.34911 0.0496 0.0
C947 C 0.51799 0.33369 0.85758 0.0
C948 C 0.48806 0.28913 0.95636 0.0
C949 C 0.52252 0.33762 0.80233 0.0
C950 C 0.45365 0.28594 0.17932 0.0
C951 C 0.45827 0.28909 0.12382 0.0
C952 C 0.48867 0.33215 0.02421 0.0
C953 C 0.49905 0.31637 0.87504 0.0
C954 C 0.49344 0.31337 0.93405 0.0
C955 C 0.47817 0.30506 0.10558 0.0
C956 C 0.48338 0.30792 0.04649 0.0
H957 H 0.47838 0.29592 0.751 0.0
H958 H 0.47034 0.28917 0.84771 0.0
H959 H 0.4971 0.3539 0.95274 0.0
H960 H 0.50125 0.32445 0.2281 0.0
H961 H 0.50891 0.33023 0.13135 0.0
C962 C 0.69903 0.97078 0.44159 0.0
C963 C 0.72364 0.96858 0.46435 0.0
C964 C 0.69604 0.97538 0.38592 0.0
C965 C 0.73083 0.97071 0.25431 0.0
H966 H 0.6764 0.0152 0.20376 0.0
C967 C 0.71994 1.00341 0.02912 0.0
C968 C 0.69485 1.00311 0.00807 0.0
C969 C 0.72429 0.99888 0.08452 0.0
C970 C 0.69158 1.00256 0.21722 0.0
H971 H 0.76434 0.96978 0.44632 0.0
H972 H 0.75912 0.97827 0.34979 0.0
H973 H 0.68217 1.00847 0.3009 0.0
H974 H 0.65483 0.99708 0.02926 0.0
H975 H 0.66248 0.98938 0.12501 0.0
H976 H 0.7403 0.96505 0.17032 0.0
C977 C 0.74211 0.97596 0.37463 0.0
C978 C 0.69485 0.99864 0.27294 0.0
C979 C 0.7451 0.97121 0.43013 0.0
C980 C 0.6744 0.99777 0.04377 0.0
C981 C 0.67874 0.99341 0.09889 0.0
C982 C 0.72764 0.97477 0.19851 0.0
C983 C 0.71755 0.97797 0.35168 0.0
C984 C 0.71441 0.98253 0.29226 0.0
C985 C 0.70366 0.9942 0.12009 0.0
C986 C 0.70784 0.99056 0.17934 0.0
H987 H 0.68204 0.96827 0.46634 0.0
H988 H 0.67682 0.97635 0.36955 0.0
H989 H 0.74588 0.95788 0.2676 0.0
H990 H 0.73622 1.00789 0.00354 0.0
H991 H 0.74372 0.9998 0.09979 0.0
C992 C 0.53233 0.70298 0.19455 0.0
C993 C 0.55248 0.71887 0.21227 0.0
C994 C 0.52759 0.69967 0.13901 0.0
C995 C 0.53776 0.73105 0.0065 0.0
H996 H 0.52305 0.66378 0.94736 0.0
C997 C 0.53104 0.71169 0.77487 0.0
C998 C 0.51253 0.69391 0.75741 0.0
C999 C 0.53559 0.71535 0.83041 0.0
C1000 C 0.52677 0.68277 0.96327 0.0
H1001 H 0.58358 0.74342 0.18478 0.0
H1002 H 0.5752 0.73766 0.08848 0.0
H1003 H 0.53151 0.66843 0.04419 0.0
H1004 H 0.4838 0.66667 0.78457 0.0
H1005 H 0.4913 0.67344 0.8809 0.0
H1006 H 0.5328 0.74546 0.92575 0.0
C1007 C 0.56296 0.72796 0.11756 0.0
C1008 C 0.53167 0.6854 0.0188 0.0
C1009 C 0.56779 0.73116 0.1729 0.0
C1010 C 0.49836 0.68034 0.79664 0.0
C1011 C 0.50276 0.68412 0.85194 0.0
C1012 C 0.53272 0.72845 0.95099 0.0
C1013 C 0.54271 0.71233 0.09996 0.0
C1014 C 0.53726 0.70955 0.04102 0.0
C1015 C 0.52169 0.70138 0.86961 0.0
C1016 C 0.52715 0.70427 0.92866 0.0
H1017 H 0.51965 0.69365 0.22323 0.0
H1018 H 0.51163 0.68774 0.12667 0.0
H1019 H 0.54167 0.74998 0.02257 0.0
H1020 H 0.54266 0.72212 0.74579 0.0
H1021 H 0.55053 0.72858 0.84253 0.0
C1022 C 0.32274 0.04683 0.43914 0.0
C1023 C 0.29809 0.04946 0.46171 0.0
C1024 C 0.32586 0.04226 0.38344 0.0
C1025 C 0.29148 0.0479 0.25177 0.0
H1026 H 0.34519 1.0026 0.20048 0.0
C1027 C 0.30127 0.01518 0.02659 0.0
C1028 C 0.32629 0.01492 0.00487 0.0
C1029 C 0.29723 0.01978 0.08208 0.0
C1030 C 0.33022 0.01548 0.21414 0.0
H1031 H 0.25745 0.0489 0.44337 0.0
H1032 H 0.26287 0.04044 0.34689 0.0
H1033 H 0.33952 1.00929 0.29774 0.0
H1034 H 0.36651 0.02 0.02506 0.0
H1035 H 0.35937 0.02783 0.12104 0.0
H1036 H 0.28211 0.05384 0.16792 0.0
C1037 C 0.27983 0.04244 0.37184 0.0
C1038 C 0.32701 0.01937 0.26994 0.0
C1039 C 0.27672 0.04717 0.42732 0.0
C1040 C 0.34698 0.01976 0.04007 0.0
C1041 C 0.34294 0.02418 0.09533 0.0
C1042 C 0.29461 0.04388 0.19593 0.0
C1043 C 0.30443 0.04011 0.34902 0.0
C1044 C 0.30767 0.03572 0.28953 0.0
C1045 C 0.31807 0.02399 0.11715 0.0
C1046 C 0.31413 0.02776 0.17648 0.0
H1047 H 0.33967 0.04903 0.46404 0.0
H1048 H 0.34512 0.04099 0.36718 0.0
H1049 H 0.27664 0.06094 0.26525 0.0
H1050 H 0.28479 0.01109 0.00147 0.0
H1051 H 0.27784 0.01929 0.09782 0.0
C1052 C 0.98584 0.81338 0.2767 0.0
C1053 C 1.00428 0.83133 0.25942 0.0
C1054 C 0.9812 0.80954 0.33219 0.0
C1055 C 1.01007 0.81833 0.46771 0.0
H1056 H 0.93982 0.81657 0.51923 0.0
C1057 C 0.9856 0.82042 0.69686 0.0
C1058 C 0.96548 0.80449 0.71476 0.0
C1059 C 0.99003 0.82415 0.64128 0.0
C1060 C 0.95956 0.81671 0.50553 0.0
H1061 H 0.03246 0.85903 0.28691 0.0
H1062 H 0.02441 0.85225 0.3833 0.0
H1063 H 0.94845 0.82069 0.42219 0.0
H1064 H 0.9342 0.78021 0.6875 0.0
H1065 H 0.94232 0.78624 0.59133 0.0
H1066 H 0.02125 0.81408 0.55079 0.0
C1067 C 0.01365 0.84107 0.3541 0.0
C1068 C 0.96448 0.81906 0.44988 0.0
C1069 C 0.01811 0.84507 0.29881 0.0
C1070 C 0.94988 0.79262 0.67551 0.0
C1071 C 0.95438 0.79626 0.62011 0.0
C1072 C 1.00516 0.81582 0.52333 0.0
C1073 C 0.99503 0.8234 0.37146 0.0
C1074 C 0.98979 0.81998 0.43037 0.0
C1075 C 0.9746 0.81195 0.6022 0.0
C1076 C 0.97984 0.81503 0.543 0.0
H1077 H 0.97452 0.80276 0.24754 0.0
H1078 H 0.96681 0.79569 0.3444 0.0
H1079 H 0.02978 0.8187 0.45384 0.0
H1080 H 0.99844 0.82954 0.72537 0.0
H1081 H 1.00563 0.83659 0.62896 0.0
C1082 C 0.22182 0.4919 0.54296 0.0
C1083 C 0.20159 0.50773 0.52593 0.0
C1084 C 0.22784 0.48997 0.59815 0.0
C1085 C 0.22162 0.5228 0.72884 0.0
H1086 H 0.22294 0.45469 0.79231 0.0
C1087 C 0.24982 0.50256 0.95149 0.0
C1088 C 0.23269 0.48706 0.98093 0.0
C1089 C 0.2471 0.50549 0.89549 0.0
C1090 C 0.2226 0.47379 0.77499 0.0
H1091 H 0.17232 0.53442 0.55256 0.0
H1092 H 0.18314 0.53137 0.64869 0.0
H1093 H 0.21772 0.4596 0.69396 0.0
H1094 H 0.1996 0.46203 0.97497 0.0
H1095 H 0.19503 0.46695 0.87648 0.0
H1096 H 0.22639 0.537 0.80985 0.0
C1097 C 0.19426 0.52045 0.61955 0.0
C1098 C 0.21989 0.47658 0.71888 0.0
C1099 C 0.188 0.52207 0.56467 0.0
C1100 C 0.21285 0.47437 0.95333 0.0
C1101 C 0.21039 0.47698 0.89708 0.0
C1102 C 0.22471 0.51999 0.78482 0.0
C1103 C 0.21397 0.50412 0.63685 0.0
C1104 C 0.21907 0.50112 0.69547 0.0
C1105 C 0.22749 0.49259 0.86778 0.0
C1106 C 0.22492 0.49548 0.80839 0.0
H1107 H 0.23238 0.48035 0.51399 0.0
H1108 H 0.24316 0.47728 0.61066 0.0
H1109 H 0.22109 0.54191 0.71161 0.0
H1110 H 0.26526 0.51257 0.97185 0.0
H1111 H 0.26059 0.51752 0.87369 0.0
loop_
_geom_bond_atom_site_label_1
_geom_bond_atom_site_label_2
_geom_bond_distance
_geom_bond_site_symmetry_2
_ccdc_geom_bond_type
Zn0 N4 2.020 . S
Zn0 O8 2.019 . S
Zn0 N10 2.119 1_455 S
Zn0 O18 1.975 1_455 S
C1 N2 1.334 . S
C1 N5 1.336 . S
N2 C1 1.334 . S
N2 C3 1.334 1_554 S
C3 N2 1.334 1_556 S
C3 N4 1.336 . S
N4 Zn0 2.020 . S
N4 C3 1.336 . S
N4 N5 1.354 1_556 S
N5 C1 1.336 . S
N5 N4 1.354 1_554 S
N5 Zn9 2.020 1_455 S
C6 O7 1.244 . S
C6 O30 1.257 . S
O7 C6 1.244 . S
O8 Zn0 2.019 . S
O8 C28 1.257 . S
Zn9 N5 2.020 1_655 S
Zn9 O16 1.975 . S
Zn9 N25 2.119 . S
Zn9 O30 2.019 . S
N10 Zn0 2.119 1_655 S
N10 C12 1.334 . S
N10 C13 1.328 1_655 S
C11 C12 1.391 . S
C11 N14 1.329 . S
C11 H32 0.930 . S
C12 N10 1.334 . S
C12 C11 1.391 . S
C12 H19 0.930 . S
C13 N10 1.328 1_455 S
C13 C15 1.392 1_455 S
C13 H20 0.930 . S
N14 C11 1.329 . S
N14 C15 1.331 . S
C15 C13 1.392 1_655 S
C15 N14 1.331 . S
O16 Zn9 1.975 . S
O16 C17 1.252 1_554 S
C17 O16 1.252 1_556 S
C17 O18 1.252 . S
O18 Zn0 1.975 1_655 S
O18 C17 1.252 . S
H19 C12 0.930 . S
H20 C13 0.930 . S
C21 C22 1.392 . S
C21 N25 1.328 . S
C21 H27 0.930 . S
C22 C21 1.392 . S
C22 N26 1.331 . S
C23 C24 1.391 . S
C23 N26 1.329 . S
C23 H33 0.930 . S
C24 C23 1.391 . S
C24 N25 1.334 . S
C24 H31 0.930 . S
N25 Zn9 2.119 . S
N25 C21 1.328 . S
N25 C24 1.334 . S
N26 C22 1.331 . S
N26 C23 1.329 . S
H27 C21 0.930 . S
C28 O8 1.257 . S
C28 O29 1.244 . S
O29 C28 1.244 . S
O30 C6 1.257 . S
O30 Zn9 2.019 . S
H31 C24 0.930 . S
H32 C11 0.930 . S
H33 C23 0.930 . S
Zn34 N38 2.020 . S
Zn34 O42 2.019 . S
Zn34 N44 2.119 . S
Zn34 O52 1.975 . S
C35 N36 1.334 . S
C35 N39 1.336 . S
N36 C35 1.334 . S
N36 C37 1.334 . S
C37 N36 1.334 . S
C37 N38 1.336 . S
N38 Zn34 2.020 . S
N38 C37 1.336 . S
N38 N39 1.354 . S
N39 C35 1.336 . S
N39 N38 1.354 . S
N39 Zn43 2.020 . S
C40 O41 1.244 . S
C40 O64 1.257 . S
O41 C40 1.244 . S
O42 Zn34 2.019 . S
O42 C62 1.257 . S
Zn43 N39 2.020 . S
Zn43 O50 1.975 . S
Zn43 N59 2.119 . S
Zn43 O64 2.019 . S
N44 Zn34 2.119 . S
N44 C46 1.334 . S
N44 C47 1.328 . S
C45 C46 1.391 . S
C45 N48 1.329 . S
C45 H66 0.930 . S
C46 N44 1.334 . S
C46 C45 1.391 . S
C46 H53 0.930 . S
C47 N44 1.328 . S
C47 C49 1.392 . S
C47 H54 0.930 . S
N48 C45 1.329 . S
N48 C49 1.331 . S
C49 C47 1.392 . S
C49 N48 1.331 . S
O50 Zn43 1.975 . S
O50 C51 1.252 . S
C51 O50 1.252 . S
C51 O52 1.252 . S
O52 Zn34 1.975 . S
O52 C51 1.252 . S
H53 C46 0.930 . S
H54 C47 0.930 . S
C55 C56 1.392 . S
C55 N59 1.328 . S
C55 H61 0.930 . S
C56 C55 1.392 . S
C56 N60 1.331 . S
C57 C58 1.391 . S
C57 N60 1.329 . S
C57 H67 0.930 . S
C58 C57 1.391 . S
C58 N59 1.334 . S
C58 H65 0.930 . S
N59 Zn43 2.119 . S
N59 C55 1.328 . S
N59 C58 1.334 . S
N60 C56 1.331 . S
N60 C57 1.329 . S
H61 C55 0.930 . S
C62 O42 1.257 . S
C62 O63 1.244 . S
O63 C62 1.244 . S
O64 C40 1.257 . S
O64 Zn43 2.019 . S
H65 C58 0.930 . S
H66 C45 0.930 . S
H67 C57 0.930 . S
Zn68 N72 2.020 . S
Zn68 O76 2.019 . S
Zn68 N78 2.119 . S
Zn68 O86 1.975 . S
C69 N70 1.334 . S
C69 N73 1.336 . S
N70 C69 1.334 . S
N70 C71 1.334 . S
C71 N70 1.334 . S
C71 N72 1.336 . S
N72 Zn68 2.020 . S
N72 C71 1.336 . S
N72 N73 1.354 . S
N73 C69 1.336 . S
N73 N72 1.354 . S
N73 Zn77 2.020 . S
C74 O75 1.244 . S
C74 O98 1.257 . S
O75 C74 1.244 . S
O76 Zn68 2.019 . S
O76 C96 1.257 . S
Zn77 N73 2.020 . S
Zn77 O84 1.975 . S
Zn77 N93 2.119 . S
Zn77 O98 2.019 . S
N78 Zn68 2.119 . S
N78 C80 1.334 . S
N78 C81 1.328 . S
C79 C80 1.391 . S
C79 N82 1.329 . S
C79 H100 0.930 . S
C80 N78 1.334 . S
C80 C79 1.391 . S
C80 H87 0.930 . S
C81 N78 1.328 . S
C81 C83 1.392 . S
C81 H88 0.930 . S
N82 C79 1.329 . S
N82 C83 1.331 . S
C83 C81 1.392 . S
C83 N82 1.331 . S
O84 Zn77 1.975 . S
O84 C85 1.252 . S
C85 O84 1.252 . S
C85 O86 1.252 . S
O86 Zn68 1.975 . S
O86 C85 1.252 . S
H87 C80 0.930 . S
H88 C81 0.930 . S
C89 C90 1.392 . S
C89 N93 1.328 . S
C89 H95 0.930 . S
C90 C89 1.392 . S
C90 N94 1.331 . S
C91 C92 1.391 . S
C91 N94 1.329 . S
C91 H101 0.930 . S
C92 C91 1.391 . S
C92 N93 1.334 . S
C92 H99 0.930 . S
N93 Zn77 2.119 . S
N93 C89 1.328 . S
N93 C92 1.334 . S
N94 C90 1.331 . S
N94 C91 1.329 . S
H95 C89 0.930 . S
C96 O76 1.257 . S
C96 O97 1.244 . S
O97 C96 1.244 . S
O98 C74 1.257 . S
O98 Zn77 2.019 . S
H99 C92 0.930 . S
H100 C79 0.930 . S
H101 C91 0.930 . S
Zn102 N106 2.020 1_545 S
Zn102 O110 2.019 . S
Zn102 N112 2.119 . S
Zn102 O120 1.975 . S
C103 N104 1.334 . S
C103 N107 1.336 . S
N104 C103 1.334 . S
N104 C105 1.334 . S
C105 N104 1.334 . S
C105 N106 1.336 . S
N106 Zn102 2.020 1_565 S
N106 C105 1.336 . S
N106 N107 1.354 . S
N107 C103 1.336 . S
N107 N106 1.354 . S
N107 Zn111 2.020 . S
C108 O109 1.244 . S
C108 O132 1.257 . S
O109 C108 1.244 . S
O110 Zn102 2.019 . S
O110 C130 1.257 . S
Zn111 N107 2.020 . S
Zn111 O118 1.975 1_565 S
Zn111 N127 2.119 1_565 S
Zn111 O132 2.019 . S
N112 Zn102 2.119 . S
N112 C114 1.334 . S
N112 C115 1.328 . S
C113 C114 1.391 . S
C113 N116 1.329 . S
C113 H134 0.930 . S
C114 N112 1.334 . S
C114 C113 1.391 . S
C114 H121 0.930 . S
C115 N112 1.328 . S
C115 C117 1.392 . S
C115 H122 0.930 . S
N116 C113 1.329 . S
N116 C117 1.331 . S
C117 C115 1.392 . S
C117 N116 1.331 . S
O118 Zn111 1.975 1_545 S
O118 C119 1.252 . S
C119 O118 1.252 . S
C119 O120 1.252 . S
O120 Zn102 1.975 . S
O120 C119 1.252 . S
H121 C114 0.930 . S
H122 C115 0.930 . S
C123 C124 1.392 1_565 S
C123 N127 1.328 1_565 S
C123 H129 0.930 . S
C124 C123 1.392 1_545 S
C124 N128 1.331 . S
C125 C126 1.391 . S
C125 N128 1.329 . S
C125 H135 0.930 . S
C126 C125 1.391 . S
C126 N127 1.334 . S
C126 H133 0.930 . S
N127 Zn111 2.119 1_545 S
N127 C123 1.328 1_545 S
N127 C126 1.334 . S
N128 C124 1.331 . S
N128 C125 1.329 . S
H129 C123 0.930 . S
C130 O110 1.257 . S
C130 O131 1.244 . S
O131 C130 1.244 . S
O132 C108 1.257 . S
O132 Zn111 2.019 . S
H133 C126 0.930 . S
H134 C113 0.930 . S
H135 C125 0.930 . S
Zn136 N140 2.020 . S
Zn136 O144 2.019 . S
Zn136 N146 2.119 . S
Zn136 O154 1.975 . S
C137 N138 1.334 . S
C137 N141 1.336 . S
N138 C137 1.334 . S
N138 C139 1.334 . S
C139 N138 1.334 . S
C139 N140 1.336 . S
N140 Zn136 2.020 . S
N140 C139 1.336 . S
N140 N141 1.354 . S
N141 C137 1.336 . S
N141 N140 1.354 . S
N141 Zn145 2.020 . S
C142 O143 1.244 . S
C142 O166 1.257 . S
O143 C142 1.244 . S
O144 Zn136 2.019 . S
O144 C164 1.257 . S
Zn145 N141 2.020 . S
Zn145 O152 1.975 . S
Zn145 N161 2.119 . S
Zn145 O166 2.019 . S
N146 Zn136 2.119 . S
N146 C148 1.334 . S
N146 C149 1.328 . S
C147 C148 1.391 . S
C147 N150 1.329 . S
C147 H168 0.930 . S
C148 N146 1.334 . S
C148 C147 1.391 . S
C148 H155 0.930 . S
C149 N146 1.328 . S
C149 C151 1.392 . S
C149 H156 0.930 . S
N150 C147 1.329 . S
N150 C151 1.331 . S
C151 C149 1.392 . S
C151 N150 1.331 . S
O152 Zn145 1.975 . S
O152 C153 1.252 . S
C153 O152 1.252 . S
C153 O154 1.252 . S
O154 Zn136 1.975 . S
O154 C153 1.252 . S
H155 C148 0.930 . S
H156 C149 0.930 . S
C157 C158 1.392 . S
C157 N161 1.328 . S
C157 H163 0.930 . S
C158 C157 1.392 . S
C158 N162 1.331 . S
C159 C160 1.391 . S
C159 N162 1.329 . S
C159 H169 0.930 . S
C160 C159 1.391 . S
C160 N161 1.334 . S
C160 H167 0.930 . S
N161 Zn145 2.119 . S
N161 C157 1.328 . S
N161 C160 1.334 . S
N162 C158 1.331 . S
N162 C159 1.329 . S
H163 C157 0.930 . S
C164 O144 1.257 . S
C164 O165 1.244 . S
O165 C164 1.244 . S
O166 C142 1.257 . S
O166 Zn145 2.019 . S
H167 C160 0.930 . S
H168 C147 0.930 . S
H169 C159 0.930 . S
Zn170 N174 2.020 . S
Zn170 O178 2.019 . S
Zn170 N180 2.119 1_545 S
Zn170 O188 1.975 1_545 S
C171 N172 1.334 . S
C171 N175 1.336 . S
N172 C171 1.334 . S
N172 C173 1.334 . S
C173 N172 1.334 . S
C173 N174 1.336 . S
N174 Zn170 2.020 . S
N174 C173 1.336 . S
N174 N175 1.354 . S
N175 C171 1.336 . S
N175 N174 1.354 . S
N175 Zn179 2.020 1_545 S
C176 O177 1.244 . S
C176 O200 1.257 . S
O177 C176 1.244 . S
O178 Zn170 2.019 . S
O178 C198 1.257 . S
Zn179 N175 2.020 1_565 S
Zn179 O186 1.975 . S
Zn179 N195 2.119 . S
Zn179 O200 2.019 . S
N180 Zn170 2.119 1_565 S
N180 C182 1.334 . S
N180 C183 1.328 1_565 S
C181 C182 1.391 . S
C181 N184 1.329 . S
C181 H202 0.930 . S
C182 N180 1.334 . S
C182 C181 1.391 . S
C182 H189 0.930 . S
C183 N180 1.328 1_545 S
C183 C185 1.392 1_545 S
C183 H190 0.930 . S
N184 C181 1.329 . S
N184 C185 1.331 . S
C185 C183 1.392 1_565 S
C185 N184 1.331 . S
O186 Zn179 1.975 . S
O186 C187 1.252 . S
C187 O186 1.252 . S
C187 O188 1.252 . S
O188 Zn170 1.975 1_565 S
O188 C187 1.252 . S
H189 C182 0.930 . S
H190 C183 0.930 . S
C191 C192 1.392 . S
C191 N195 1.328 . S
C191 H197 0.930 . S
C192 C191 1.392 . S
C192 N196 1.331 . S
C193 C194 1.391 . S
C193 N196 1.329 . S
C193 H203 0.930 . S
C194 C193 1.391 . S
C194 N195 1.334 . S
C194 H201 0.930 . S
N195 Zn179 2.119 . S
N195 C191 1.328 . S
N195 C194 1.334 . S
N196 C192 1.331 . S
N196 C193 1.329 . S
H197 C191 0.930 . S
C198 O178 1.257 . S
C198 O199 1.244 . S
O199 C198 1.244 . S
O200 C176 1.257 . S
O200 Zn179 2.019 . S
H201 C194 0.930 . S
H202 C181 0.930 . S
H203 C193 0.930 . S
Zn204 N208 2.020 . S
Zn204 O212 2.019 . S
Zn204 N214 2.119 1_655 S
Zn204 O222 1.975 1_655 S
C205 N206 1.334 . S
C205 N209 1.336 . S
N206 C205 1.334 . S
N206 C207 1.334 1_554 S
C207 N206 1.334 1_556 S
C207 N208 1.336 . S
N208 Zn204 2.020 . S
N208 C207 1.336 . S
N208 N209 1.354 1_556 S
N209 C205 1.336 . S
N209 N208 1.354 1_554 S
N209 Zn213 2.020 1_655 S
C210 O211 1.244 . S
C210 O234 1.257 . S
O211 C210 1.244 . S
O212 Zn204 2.019 . S
O212 C232 1.257 . S
Zn213 N209 2.020 1_455 S
Zn213 O220 1.975 . S
Zn213 N229 2.119 . S
Zn213 O234 2.019 . S
N214 Zn204 2.119 1_455 S
N214 C216 1.334 . S
N214 C217 1.328 1_455 S
C215 C216 1.391 . S
C215 N218 1.329 . S
C215 H236 0.930 . S
C216 N214 1.334 . S
C216 C215 1.391 . S
C216 H223 0.930 . S
C217 N214 1.328 1_655 S
C217 C219 1.392 1_655 S
C217 H224 0.930 . S
N218 C215 1.329 . S
N218 C219 1.331 . S
C219 C217 1.392 1_455 S
C219 N218 1.331 . S
O220 Zn213 1.975 . S
O220 C221 1.252 1_554 S
C221 O220 1.252 1_556 S
C221 O222 1.252 . S
O222 Zn204 1.975 1_455 S
O222 C221 1.252 . S
H223 C216 0.930 . S
H224 C217 0.930 . S
C225 C226 1.392 . S
C225 N229 1.328 . S
C225 H231 0.930 . S
C226 C225 1.392 . S
C226 N230 1.331 . S
C227 C228 1.391 . S
C227 N230 1.329 . S
C227 H237 0.930 . S
C228 C227 1.391 . S
C228 N229 1.334 . S
C228 H235 0.930 . S
N229 Zn213 2.119 . S
N229 C225 1.328 . S
N229 C228 1.334 . S
N230 C226 1.331 . S
N230 C227 1.329 . S
H231 C225 0.930 . S
C232 O212 1.257 . S
C232 O233 1.244 . S
O233 C232 1.244 . S
O234 C210 1.257 . S
O234 Zn213 2.019 . S
H235 C228 0.930 . S
H236 C215 0.930 . S
H237 C227 0.930 . S
Zn238 N242 2.020 . S
Zn238 O246 2.019 . S
Zn238 N248 2.119 . S
Zn238 O256 1.975 . S
C239 N240 1.334 . S
C239 N243 1.336 . S
N240 C239 1.334 . S
N240 C241 1.334 . S
C241 N240 1.334 . S
C241 N242 1.336 . S
N242 Zn238 2.020 . S
N242 C241 1.336 . S
N242 N243 1.354 . S
N243 C239 1.336 . S
N243 N242 1.354 . S
N243 Zn247 2.020 . S
C244 O245 1.244 . S
C244 O268 1.257 . S
O245 C244 1.244 . S
O246 Zn238 2.019 . S
O246 C266 1.257 . S
Zn247 N243 2.020 . S
Zn247 O254 1.975 . S
Zn247 N263 2.119 . S
Zn247 O268 2.019 . S
N248 Zn238 2.119 . S
N248 C250 1.334 . S
N248 C251 1.328 . S
C249 C250 1.391 . S
C249 N252 1.329 . S
C249 H270 0.930 . S
C250 N248 1.334 . S
C250 C249 1.391 . S
C250 H257 0.930 . S
C251 N248 1.328 . S
C251 C253 1.392 . S
C251 H258 0.930 . S
N252 C249 1.329 . S
N252 C253 1.331 . S
C253 C251 1.392 . S
C253 N252 1.331 . S
O254 Zn247 1.975 . S
O254 C255 1.252 . S
C255 O254 1.252 . S
C255 O256 1.252 . S
O256 Zn238 1.975 . S
O256 C255 1.252 . S
H257 C250 0.930 . S
H258 C251 0.930 . S
C259 C260 1.392 . S
C259 N263 1.328 . S
C259 H265 0.930 . S
C260 C259 1.392 . S
C260 N264 1.331 . S
C261 C262 1.391 . S
C261 N264 1.329 . S
C261 H271 0.930 . S
C262 C261 1.391 . S
C262 N263 1.334 . S
C262 H269 0.930 . S
N263 Zn247 2.119 . S
N263 C259 1.328 . S
N263 C262 1.334 . S
N264 C260 1.331 . S
N264 C261 1.329 . S
H265 C259 0.930 . S
C266 O246 1.257 . S
C266 O267 1.244 . S
O267 C266 1.244 . S
O268 C244 1.257 . S
O268 Zn247 2.019 . S
H269 C262 0.930 . S
H270 C249 0.930 . S
H271 C261 0.930 . S
C272 C273 1.349 . S
C272 C274 1.332 . S
C272 H297 0.950 1_656 S
C273 C272 1.349 . S
C273 C289 1.349 . S
C274 C272 1.332 . S
C274 C293 1.436 . S
C274 H298 0.938 1_656 S
C275 C292 1.574 1_565 S
C275 C294 1.368 . S
C275 H299 0.949 . S
H276 C280 0.949 1_554 S
C277 C278 1.349 . S
C277 C279 1.333 . S
C277 H300 0.950 1_455 S
C278 C277 1.349 . S
C278 C290 1.349 . S
C279 C277 1.333 . S
C279 C295 1.439 . S
C279 H301 0.933 1_455 S
C280 H276 0.949 1_556 S
C280 C288 1.574 1_545 S
C280 C296 1.368 . S
H281 C289 0.950 . S
H282 C287 0.950 . S
H283 C288 0.949 1_554 S
H284 C290 0.950 1_554 S
H285 C291 0.950 1_554 S
H286 C292 0.949 . S
C287 H282 0.950 . S
C287 C289 1.327 . S
C287 C293 1.429 . S
C288 C280 1.574 1_565 S
C288 H283 0.949 1_556 S
C288 C294 1.368 1_455 S
C289 C273 1.349 . S
C289 H281 0.950 . S
C289 C287 1.327 . S
C290 C278 1.349 . S
C290 H284 0.950 1_556 S
C290 C291 1.327 . S
C291 H285 0.950 1_556 S
C291 C290 1.327 . S
C291 C295 1.429 . S
C292 C275 1.574 1_545 S
C292 H286 0.949 . S
C292 C296 1.368 1_655 S
C293 C274 1.436 . S
C293 C287 1.429 . S
C293 C294 1.523 . S
C294 C275 1.368 . S
C294 C288 1.368 1_655 S
C294 C293 1.523 . S
C295 C279 1.439 . S
C295 C291 1.429 . S
C295 C296 1.523 . S
C296 C280 1.368 . S
C296 C292 1.368 1_455 S
C296 C295 1.523 . S
H297 C272 0.950 1_454 S
H298 C274 0.938 1_454 S
H299 C275 0.949 . S
H300 C277 0.950 1_655 S
H301 C279 0.933 1_655 S
C302 C303 1.349 . S
C302 C304 1.327 . S
C302 H327 0.950 . S
C303 C302 1.349 . S
C303 C319 1.349 . S
C304 C302 1.327 . S
C304 C323 1.429 . S
C304 H328 0.950 . S
C305 C322 1.574 1_655 S
C305 C324 1.368 . S
C305 H329 0.949 . S
H306 C310 0.949 . S
C307 C308 1.349 . S
C307 C309 1.327 . S
C307 H330 0.950 . S
C308 C307 1.349 . S
C308 C320 1.349 . S
C309 C307 1.327 . S
C309 C325 1.429 . S
C309 H331 0.950 . S
C310 H306 0.949 . S
C310 C318 1.574 1_455 S
C310 C326 1.368 . S
H311 C319 0.950 . S
H312 C317 0.950 . S
H313 C318 0.949 . S
H314 C320 0.950 . S
H315 C321 0.950 . S
H316 C322 0.949 . S
C317 H312 0.950 . S
C317 C319 1.327 . S
C317 C323 1.429 . S
C318 C310 1.574 1_655 S
C318 H313 0.949 . S
C318 C324 1.368 . S
C319 C303 1.349 . S
C319 H311 0.950 . S
C319 C317 1.327 . S
C320 C308 1.349 . S
C320 H314 0.950 . S
C320 C321 1.327 . S
C321 H315 0.950 . S
C321 C320 1.327 . S
C321 C325 1.429 . S
C322 C305 1.574 1_455 S
C322 H316 0.949 . S
C322 C326 1.368 . S
C323 C304 1.429 . S
C323 C317 1.429 . S
C323 C324 1.523 . S
C324 C305 1.368 . S
C324 C318 1.368 . S
C324 C323 1.523 . S
C325 C309 1.429 . S
C325 C321 1.429 . S
C325 C326 1.523 . S
C326 C310 1.368 . S
C326 C322 1.368 . S
C326 C325 1.523 . S
H327 C302 0.950 . S
H328 C304 0.950 . S
H329 C305 0.949 . S
H330 C307 0.950 . S
H331 C309 0.950 . S
C332 C333 1.349 . S
C332 C334 1.327 . S
C332 H357 0.950 . S
C333 C332 1.349 . S
C333 C349 1.349 . S
C334 C332 1.327 . S
C334 C353 1.429 . S
C334 H358 0.950 . S
C335 C352 1.574 . S
C335 C354 1.368 . S
C335 H359 0.949 . S
H336 C340 0.949 . S
C337 C338 1.349 . S
C337 C339 1.327 . S
C337 H360 0.950 . S
C338 C337 1.349 . S
C338 C350 1.349 . S
C339 C337 1.327 . S
C339 C355 1.429 . S
C339 H361 0.950 . S
C340 H336 0.949 . S
C340 C348 1.574 . S
C340 C356 1.368 . S
H341 C349 0.950 . S
H342 C347 0.950 . S
H343 C348 0.949 . S
H344 C350 0.950 . S
H345 C351 0.950 . S
H346 C352 0.949 . S
C347 H342 0.950 . S
C347 C349 1.327 . S
C347 C353 1.429 . S
C348 C340 1.574 . S
C348 H343 0.949 . S
C348 C354 1.368 . S
C349 C333 1.349 . S
C349 H341 0.950 . S
C349 C347 1.327 . S
C350 C338 1.349 . S
C350 H344 0.950 . S
C350 C351 1.327 . S
C351 H345 0.950 . S
C351 C350 1.327 . S
C351 C355 1.429 . S
C352 C335 1.574 . S
C352 H346 0.949 . S
C352 C356 1.368 . S
C353 C334 1.429 . S
C353 C347 1.429 . S
C353 C354 1.523 . S
C354 C335 1.368 . S
C354 C348 1.368 . S
C354 C353 1.523 . S
C355 C339 1.429 . S
C355 C351 1.429 . S
C355 C356 1.523 . S
C356 C340 1.368 . S
C356 C352 1.368 . S
C356 C355 1.523 . S
H357 C332 0.950 . S
H358 C334 0.950 . S
H359 C335 0.949 . S
H360 C337 0.950 . S
H361 C339 0.950 . S
C362 C363 1.349 . S
C362 C364 1.327 . S
C362 H387 0.950 . S
C363 C362 1.349 . S
C363 C379 1.349 . S
C364 C362 1.327 . S
C364 C383 1.429 . S
C364 H388 0.950 . S
C365 C382 1.574 . S
C365 C384 1.368 1_545 S
C365 H389 0.949 . S
H366 C370 0.949 . S
C367 C368 1.349 . S
C367 C369 1.327 . S
C367 H390 0.950 . S
C368 C367 1.349 . S
C368 C380 1.349 . S
C369 C367 1.327 . S
C369 C385 1.429 . S
C369 H391 0.950 . S
C370 H366 0.949 . S
C370 C378 1.574 . S
C370 C386 1.368 1_565 S
H371 C379 0.950 1_545 S
H372 C377 0.938 1_545 S
H373 C378 0.949 . S
H374 C380 0.950 1_565 S
H375 C381 0.933 1_565 S
H376 C382 0.949 . S
C377 H372 0.938 1_565 S
C377 C379 1.332 . S
C377 C383 1.436 . S
C378 C370 1.574 . S
C378 H373 0.949 . S
C378 C384 1.368 . S
C379 C363 1.349 . S
C379 H371 0.950 1_565 S
C379 C377 1.332 . S
C380 C368 1.349 . S
C380 H374 0.950 1_545 S
C380 C381 1.333 . S
C381 H375 0.933 1_545 S
C381 C380 1.333 . S
C381 C385 1.439 . S
C382 C365 1.574 . S
C382 H376 0.949 . S
C382 C386 1.368 . S
C383 C364 1.429 . S
C383 C377 1.436 . S
C383 C384 1.523 . S
C384 C365 1.368 1_565 S
C384 C378 1.368 . S
C384 C383 1.523 . S
C385 C369 1.429 . S
C385 C381 1.439 . S
C385 C386 1.523 . S
C386 C370 1.368 1_545 S
C386 C382 1.368 . S
C386 C385 1.523 . S
H387 C362 0.950 . S
H388 C364 0.950 . S
H389 C365 0.949 . S
H390 C367 0.950 . S
H391 C369 0.950 . S
C392 C393 1.349 . S
C392 C394 1.327 . S
C392 H417 0.950 . S
C393 C392 1.349 . S
C393 C409 1.349 . S
C394 C392 1.327 . S
C394 C413 1.429 . S
C394 H418 0.950 . S
C395 C412 1.574 . S
C395 C414 1.368 . S
C395 H419 0.949 . S
H396 C400 0.949 . S
C397 C398 1.349 . S
C397 C399 1.327 . S
C397 H420 0.950 . S
C398 C397 1.349 . S
C398 C410 1.349 . S
C399 C397 1.327 . S
C399 C415 1.429 . S
C399 H421 0.950 . S
C400 H396 0.949 . S
C400 C408 1.574 . S
C400 C416 1.368 . S
H401 C409 0.950 . S
H402 C407 0.950 . S
H403 C408 0.949 . S
H404 C410 0.950 1_554 S
H405 C411 0.950 . S
H406 C412 0.949 . S
C407 H402 0.950 . S
C407 C409 1.327 . S
C407 C413 1.429 . S
C408 C400 1.574 . S
C408 H403 0.949 . S
C408 C414 1.368 . S
C409 C393 1.349 . S
C409 H401 0.950 . S
C409 C407 1.327 . S
C410 C398 1.349 . S
C410 H404 0.950 1_556 S
C410 C411 1.327 . S
C411 H405 0.950 . S
C411 C410 1.327 . S
C411 C415 1.429 . S
C412 C395 1.574 . S
C412 H406 0.949 . S
C412 C416 1.368 . S
C413 C394 1.429 . S
C413 C407 1.429 . S
C413 C414 1.523 . S
C414 C395 1.368 . S
C414 C408 1.368 . S
C414 C413 1.523 . S
C415 C399 1.429 . S
C415 C411 1.429 . S
C415 C416 1.523 . S
C416 C400 1.368 . S
C416 C412 1.368 . S
C416 C415 1.523 . S
H417 C392 0.950 . S
H418 C394 0.950 . S
H419 C395 0.949 . S
H420 C397 0.950 . S
H421 C399 0.950 . S
C422 C423 1.349 . S
C422 C424 1.327 . S
C422 H447 0.950 . S
C423 C422 1.349 . S
C423 C439 1.349 . S
C424 C422 1.327 . S
C424 C443 1.429 . S
C424 H448 0.950 . S
C425 C442 1.574 . S
C425 C444 1.368 . S
C425 H449 0.949 . S
H426 C430 0.949 . S
C427 C428 1.349 . S
C427 C429 1.327 . S
C427 H450 0.950 . S
C428 C427 1.349 . S
C428 C440 1.349 . S
C429 C427 1.327 . S
C429 C445 1.429 . S
C429 H451 0.950 . S
C430 H426 0.949 . S
C430 C438 1.574 . S
C430 C446 1.368 . S
H431 C439 0.950 . S
H432 C437 0.950 . S
H433 C438 0.949 . S
H434 C440 0.950 . S
H435 C441 0.950 . S
H436 C442 0.949 . S
C437 H432 0.950 . S
C437 C439 1.327 . S
C437 C443 1.429 . S
C438 C430 1.574 . S
C438 H433 0.949 . S
C438 C444 1.368 . S
C439 C423 1.349 . S
C439 H431 0.950 . S
C439 C437 1.327 . S
C440 C428 1.349 . S
C440 H434 0.950 . S
C440 C441 1.327 . S
C441 H435 0.950 . S
C441 C440 1.327 . S
C441 C445 1.429 . S
C442 C425 1.574 . S
C442 H436 0.949 . S
C442 C446 1.368 . S
C443 C424 1.429 . S
C443 C437 1.429 . S
C443 C444 1.523 . S
C444 C425 1.368 . S
C444 C438 1.368 . S
C444 C443 1.523 . S
C445 C429 1.429 . S
C445 C441 1.429 . S
C445 C446 1.523 . S
C446 C430 1.368 . S
C446 C442 1.368 . S
C446 C445 1.523 . S
H447 C422 0.950 . S
H448 C424 0.950 . S
H449 C425 0.949 . S
H450 C427 0.950 . S
H451 C429 0.950 . S
C452 C453 1.349 . S
C452 C454 1.327 . S
C452 H477 0.950 . S
C453 C452 1.349 . S
C453 C469 1.349 . S
C454 C452 1.327 . S
C454 C473 1.429 . S
C454 H478 0.950 . S
C455 C472 1.574 . S
C455 C474 1.368 . S
C455 H479 0.949 . S
H456 C460 0.949 . S
C457 C458 1.349 . S
C457 C459 1.327 . S
C457 H480 0.950 . S
C458 C457 1.349 . S
C458 C470 1.349 . S
C459 C457 1.327 . S
C459 C475 1.429 . S
C459 H481 0.950 . S
C460 H456 0.949 . S
C460 C468 1.574 . S
C460 C476 1.368 . S
H461 C469 0.950 . S
H462 C467 0.950 . S
H463 C468 0.949 . S
H464 C470 0.950 . S
H465 C471 0.950 . S
H466 C472 0.949 . S
C467 H462 0.950 . S
C467 C469 1.327 . S
C467 C473 1.429 . S
C468 C460 1.574 . S
C468 H463 0.949 . S
C468 C474 1.368 . S
C469 C453 1.349 . S
C469 H461 0.950 . S
C469 C467 1.327 . S
C470 C458 1.349 . S
C470 H464 0.950 . S
C470 C471 1.327 . S
C471 H465 0.950 . S
C471 C470 1.327 . S
C471 C475 1.429 . S
C472 C455 1.574 . S
C472 H466 0.949 . S
C472 C476 1.368 . S
C473 C454 1.429 . S
C473 C467 1.429 . S
C473 C474 1.523 . S
C474 C455 1.368 . S
C474 C468 1.368 . S
C474 C473 1.523 . S
C475 C459 1.429 . S
C475 C471 1.429 . S
C475 C476 1.523 . S
C476 C460 1.368 . S
C476 C472 1.368 . S
C476 C475 1.523 . S
H477 C452 0.950 . S
H478 C454 0.950 . S
H479 C455 0.949 . S
H480 C457 0.950 . S
H481 C459 0.950 . S
C482 C483 1.349 . S
C482 C484 1.327 . S
C482 H507 0.950 . S
C483 C482 1.349 . S
C483 C499 1.349 . S
C484 C482 1.327 . S
C484 C503 1.429 . S
C484 H508 0.950 . S
C485 C502 1.574 . S
C485 C504 1.368 . S
C485 H509 0.949 . S
H486 C490 0.949 . S
C487 C488 1.349 . S
C487 C489 1.327 . S
C487 H510 0.950 . S
C488 C487 1.349 . S
C488 C500 1.349 . S
C489 C487 1.327 . S
C489 C505 1.429 . S
C489 H511 0.950 . S
C490 H486 0.949 . S
C490 C498 1.574 . S
C490 C506 1.368 . S
H491 C499 0.950 . S
H492 C497 0.950 . S
H493 C498 0.949 . S
H494 C500 0.950 . S
H495 C501 0.950 . S
H496 C502 0.949 . S
C497 H492 0.950 . S
C497 C499 1.327 . S
C497 C503 1.429 . S
C498 C490 1.574 . S
C498 H493 0.949 . S
C498 C504 1.368 . S
C499 C483 1.349 . S
C499 H491 0.950 . S
C499 C497 1.327 . S
C500 C488 1.349 . S
C500 H494 0.950 . S
C500 C501 1.327 . S
C501 H495 0.950 . S
C501 C500 1.327 . S
C501 C505 1.429 . S
C502 C485 1.574 . S
C502 H496 0.949 . S
C502 C506 1.368 . S
C503 C484 1.429 . S
C503 C497 1.429 . S
C503 C504 1.523 . S
C504 C485 1.368 . S
C504 C498 1.368 . S
C504 C503 1.523 . S
C505 C489 1.429 . S
C505 C501 1.429 . S
C505 C506 1.523 . S
C506 C490 1.368 . S
C506 C502 1.368 . S
C506 C505 1.523 . S
H507 C482 0.950 . S
H508 C484 0.950 . S
H509 C485 0.949 . S
H510 C487 0.950 . S
H511 C489 0.950 . S
C512 C513 1.349 . S
C512 C514 1.327 . S
C512 H537 0.950 . S
C513 C512 1.349 . S
C513 C529 1.349 . S
C514 C512 1.327 . S
C514 C533 1.429 . S
C514 H538 0.950 . S
C515 C532 1.574 . S
C515 C534 1.368 . S
C515 H539 0.949 . S
H516 C520 0.949 . S
C517 C518 1.349 . S
C517 C519 1.327 . S
C517 H540 0.950 1_556 S
C518 C517 1.349 . S
C518 C530 1.349 . S
C519 C517 1.327 . S
C519 C535 1.429 . S
C519 H541 0.950 . S
C520 H516 0.949 . S
C520 C528 1.574 . S
C520 C536 1.368 . S
H521 C529 0.950 . S
H522 C527 0.950 . S
H523 C528 0.949 . S
H524 C530 0.950 . S
H525 C531 0.950 . S
H526 C532 0.949 . S
C527 H522 0.950 . S
C527 C529 1.327 . S
C527 C533 1.429 . S
C528 C520 1.574 . S
C528 H523 0.949 . S
C528 C534 1.368 . S
C529 C513 1.349 . S
C529 H521 0.950 . S
C529 C527 1.327 . S
C530 C518 1.349 . S
C530 H524 0.950 . S
C530 C531 1.327 . S
C531 H525 0.950 . S
C531 C530 1.327 . S
C531 C535 1.429 . S
C532 C515 1.574 . S
C532 H526 0.949 . S
C532 C536 1.368 . S
C533 C514 1.429 . S
C533 C527 1.429 . S
C533 C534 1.523 . S
C534 C515 1.368 . S
C534 C528 1.368 . S
C534 C533 1.523 . S
C535 C519 1.429 . S
C535 C531 1.429 . S
C535 C536 1.523 . S
C536 C520 1.368 . S
C536 C532 1.368 . S
C536 C535 1.523 . S
H537 C512 0.950 . S
H538 C514 0.950 . S
H539 C515 0.949 . S
H540 C517 0.950 1_554 S
H541 C519 0.950 . S
C542 C543 1.349 . S
C542 C544 1.327 . S
C542 H567 0.950 . S
C543 C542 1.349 . S
C543 C559 1.349 . S
C544 C542 1.327 . S
C544 C563 1.429 . S
C544 H568 0.950 . S
C545 C562 1.574 . S
C545 C564 1.368 . S
C545 H569 0.949 . S
H546 C550 0.949 . S
C547 C548 1.349 . S
C547 C549 1.327 . S
C547 H570 0.950 1_554 S
C548 C547 1.349 . S
C548 C560 1.349 . S
C549 C547 1.327 . S
C549 C565 1.429 . S
C549 H571 0.950 . S
C550 H546 0.949 . S
C550 C558 1.574 . S
C550 C566 1.368 . S
H551 C559 0.950 . S
H552 C557 0.950 . S
H553 C558 0.949 . S
H554 C560 0.950 . S
H555 C561 0.950 . S
H556 C562 0.949 . S
C557 H552 0.950 . S
C557 C559 1.327 . S
C557 C563 1.429 . S
C558 C550 1.574 . S
C558 H553 0.949 . S
C558 C564 1.368 . S
C559 C543 1.349 . S
C559 H551 0.950 . S
C559 C557 1.327 . S
C560 C548 1.349 . S
C560 H554 0.950 . S
C560 C561 1.327 . S
C561 H555 0.950 . S
C561 C560 1.327 . S
C561 C565 1.429 . S
C562 C545 1.574 . S
C562 H556 0.949 . S
C562 C566 1.368 . S
C563 C544 1.429 . S
C563 C557 1.429 . S
C563 C564 1.523 . S
C564 C545 1.368 . S
C564 C558 1.368 . S
C564 C563 1.523 . S
C565 C549 1.429 . S
C565 C561 1.429 . S
C565 C566 1.523 . S
C566 C550 1.368 . S
C566 C562 1.368 . S
C566 C565 1.523 . S
H567 C542 0.950 . S
H568 C544 0.950 . S
H569 C545 0.949 . S
H570 C547 0.950 1_556 S
H571 C549 0.950 . S
C572 C573 1.349 . S
C572 C574 1.327 . S
C572 H597 0.950 . S
C573 C572 1.349 . S
C573 C589 1.349 . S
C574 C572 1.327 . S
C574 C593 1.429 . S
C574 H598 0.950 . S
C575 C592 1.574 . S
C575 C594 1.368 . S
C575 H599 0.949 . S
H576 C580 0.949 . S
C577 C578 1.349 . S
C577 C579 1.327 . S
C577 H600 0.950 . S
C578 C577 1.349 . S
C578 C590 1.349 . S
C579 C577 1.327 . S
C579 C595 1.429 . S
C579 H601 0.950 . S
C580 H576 0.949 . S
C580 C588 1.574 . S
C580 C596 1.368 . S
H581 C589 0.950 . S
H582 C587 0.950 . S
H583 C588 0.949 . S
H584 C590 0.950 . S
H585 C591 0.950 . S
H586 C592 0.949 . S
C587 H582 0.950 . S
C587 C589 1.327 . S
C587 C593 1.429 . S
C588 C580 1.574 . S
C588 H583 0.949 . S
C588 C594 1.368 . S
C589 C573 1.349 . S
C589 H581 0.950 . S
C589 C587 1.327 . S
C590 C578 1.349 . S
C590 H584 0.950 . S
C590 C591 1.327 . S
C591 H585 0.950 . S
C591 C590 1.327 . S
C591 C595 1.429 . S
C592 C575 1.574 . S
C592 H586 0.949 . S
C592 C596 1.368 . S
C593 C574 1.429 . S
C593 C587 1.429 . S
C593 C594 1.523 . S
C594 C575 1.368 . S
C594 C588 1.368 . S
C594 C593 1.523 . S
C595 C579 1.429 . S
C595 C591 1.429 . S
C595 C596 1.523 . S
C596 C580 1.368 . S
C596 C592 1.368 . S
C596 C595 1.523 . S
H597 C572 0.950 . S
H598 C574 0.950 . S
H599 C575 0.949 . S
H600 C577 0.950 . S
H601 C579 0.950 . S
C602 C603 1.349 . S
C602 C604 1.327 . S
C602 H627 0.950 . S
C603 C602 1.349 . S
C603 C619 1.349 . S
C604 C602 1.327 . S
C604 C623 1.429 . S
C604 H628 0.950 . S
C605 C622 1.574 . S
C605 C624 1.368 . S
C605 H629 0.949 . S
H606 C610 0.949 . S
C607 C608 1.349 . S
C607 C609 1.327 . S
C607 H630 0.950 . S
C608 C607 1.349 . S
C608 C620 1.349 . S
C609 C607 1.327 . S
C609 C625 1.429 . S
C609 H631 0.950 . S
C610 H606 0.949 . S
C610 C618 1.574 . S
C610 C626 1.368 . S
H611 C619 0.950 . S
H612 C617 0.950 . S
H613 C618 0.949 . S
H614 C620 0.950 . S
H615 C621 0.950 . S
H616 C622 0.949 . S
C617 H612 0.950 . S
C617 C619 1.327 . S
C617 C623 1.429 . S
C618 C610 1.574 . S
C618 H613 0.949 . S
C618 C624 1.368 . S
C619 C603 1.349 . S
C619 H611 0.950 . S
C619 C617 1.327 . S
C620 C608 1.349 . S
C620 H614 0.950 . S
C620 C621 1.327 . S
C621 H615 0.950 . S
C621 C620 1.327 . S
C621 C625 1.429 . S
C622 C605 1.574 . S
C622 H616 0.949 . S
C622 C626 1.368 . S
C623 C604 1.429 . S
C623 C617 1.429 . S
C623 C624 1.523 . S
C624 C605 1.368 . S
C624 C618 1.368 . S
C624 C623 1.523 . S
C625 C609 1.429 . S
C625 C621 1.429 . S
C625 C626 1.523 . S
C626 C610 1.368 . S
C626 C622 1.368 . S
C626 C625 1.523 . S
H627 C602 0.950 . S
H628 C604 0.950 . S
H629 C605 0.949 . S
H630 C607 0.950 . S
H631 C609 0.950 . S
C632 C633 1.349 . S
C632 C634 1.327 . S
C632 H657 0.950 . S
C633 C632 1.349 . S
C633 C649 1.349 . S
C634 C632 1.327 . S
C634 C653 1.429 . S
C634 H658 0.950 . S
C635 C652 1.574 . S
C635 C654 1.368 . S
C635 H659 0.949 . S
H636 C640 0.949 . S
C637 C638 1.349 . S
C637 C639 1.327 . S
C637 H660 0.950 . S
C638 C637 1.349 . S
C638 C650 1.349 . S
C639 C637 1.327 . S
C639 C655 1.429 . S
C639 H661 0.950 . S
C640 H636 0.949 . S
C640 C648 1.574 . S
C640 C656 1.368 . S
H641 C649 0.950 . S
H642 C647 0.950 . S
H643 C648 0.949 . S
H644 C650 0.950 . S
H645 C651 0.950 . S
H646 C652 0.949 . S
C647 H642 0.950 . S
C647 C649 1.327 . S
C647 C653 1.429 . S
C648 C640 1.574 . S
C648 H643 0.949 . S
C648 C654 1.368 . S
C649 C633 1.349 . S
C649 H641 0.950 . S
C649 C647 1.327 . S
C650 C638 1.349 . S
C650 H644 0.950 . S
C650 C651 1.327 . S
C651 H645 0.950 . S
C651 C650 1.327 . S
C651 C655 1.429 . S
C652 C635 1.574 . S
C652 H646 0.949 . S
C652 C656 1.368 . S
C653 C634 1.429 . S
C653 C647 1.429 . S
C653 C654 1.523 . S
C654 C635 1.368 . S
C654 C648 1.368 . S
C654 C653 1.523 . S
C655 C639 1.429 . S
C655 C651 1.429 . S
C655 C656 1.523 . S
C656 C640 1.368 . S
C656 C652 1.368 . S
C656 C655 1.523 . S
H657 C632 0.950 . S
H658 C634 0.950 . S
H659 C635 0.949 . S
H660 C637 0.950 . S
H661 C639 0.950 . S
C662 C663 1.349 . S
C662 C664 1.327 . S
C662 H687 0.950 . S
C663 C662 1.349 . S
C663 C679 1.349 . S
C664 C662 1.327 . S
C664 C683 1.429 . S
C664 H688 0.950 . S
C665 C682 1.574 . S
C665 C684 1.368 . S
C665 H689 0.949 . S
H666 C670 0.949 . S
C667 C668 1.349 . S
C667 C669 1.327 . S
C667 H690 0.950 . S
C668 C667 1.349 . S
C668 C680 1.349 . S
C669 C667 1.327 . S
C669 C685 1.429 . S
C669 H691 0.950 . S
C670 H666 0.949 . S
C670 C678 1.574 . S
C670 C686 1.368 . S
H671 C679 0.950 . S
H672 C677 0.950 . S
H673 C678 0.949 . S
H674 C680 0.950 . S
H675 C681 0.950 . S
H676 C682 0.949 . S
C677 H672 0.950 . S
C677 C679 1.327 . S
C677 C683 1.429 . S
C678 C670 1.574 . S
C678 H673 0.949 . S
C678 C684 1.368 . S
C679 C663 1.349 . S
C679 H671 0.950 . S
C679 C677 1.327 . S
C680 C668 1.349 . S
C680 H674 0.950 . S
C680 C681 1.327 . S
C681 H675 0.950 . S
C681 C680 1.327 . S
C681 C685 1.429 . S
C682 C665 1.574 . S
C682 H676 0.949 . S
C682 C686 1.368 . S
C683 C664 1.429 . S
C683 C677 1.429 . S
C683 C684 1.523 . S
C684 C665 1.368 . S
C684 C678 1.368 . S
C684 C683 1.523 . S
C685 C669 1.429 . S
C685 C681 1.429 . S
C685 C686 1.523 . S
C686 C670 1.368 . S
C686 C682 1.368 . S
C686 C685 1.523 . S
H687 C662 0.950 . S
H688 C664 0.950 . S
H689 C665 0.949 . S
H690 C667 0.950 . S
H691 C669 0.950 . S
C692 C693 1.349 . S
C692 C694 1.327 . S
C692 H717 0.950 . S
C693 C692 1.349 . S
C693 C709 1.349 . S
C694 C692 1.327 . S
C694 C713 1.429 . S
C694 H718 0.950 . S
C695 C712 1.574 . S
C695 C714 1.368 . S
C695 H719 0.949 . S
H696 C700 0.949 . S
C697 C698 1.349 . S
C697 C699 1.327 . S
C697 H720 0.950 1_556 S
C698 C697 1.349 . S
C698 C710 1.349 . S
C699 C697 1.327 . S
C699 C715 1.429 . S
C699 H721 0.950 . S
C700 H696 0.949 . S
C700 C708 1.574 . S
C700 C716 1.368 . S
H701 C709 0.950 . S
H702 C707 0.950 . S
H703 C708 0.949 . S
H704 C710 0.950 . S
H705 C711 0.950 . S
H706 C712 0.949 . S
C707 H702 0.950 . S
C707 C709 1.327 . S
C707 C713 1.429 . S
C708 C700 1.574 . S
C708 H703 0.949 . S
C708 C714 1.368 . S
C709 C693 1.349 . S
C709 H701 0.950 . S
C709 C707 1.327 . S
C710 C698 1.349 . S
C710 H704 0.950 . S
C710 C711 1.327 . S
C711 H705 0.950 . S
C711 C710 1.327 . S
C711 C715 1.429 . S
C712 C695 1.574 . S
C712 H706 0.949 . S
C712 C716 1.368 . S
C713 C694 1.429 . S
C713 C707 1.429 . S
C713 C714 1.523 . S
C714 C695 1.368 . S
C714 C708 1.368 . S
C714 C713 1.523 . S
C715 C699 1.429 . S
C715 C711 1.429 . S
C715 C716 1.523 . S
C716 C700 1.368 . S
C716 C712 1.368 . S
C716 C715 1.523 . S
H717 C692 0.950 . S
H718 C694 0.950 . S
H719 C695 0.949 . S
H720 C697 0.950 1_554 S
H721 C699 0.950 . S
C722 C723 1.349 . S
C722 C724 1.327 . S
C722 H747 0.950 . S
C723 C722 1.349 . S
C723 C739 1.349 . S
C724 C722 1.327 . S
C724 C743 1.429 . S
C724 H748 0.950 . S
C725 C742 1.574 . S
C725 C744 1.368 . S
C725 H749 0.949 . S
H726 C730 0.949 . S
C727 C728 1.349 . S
C727 C729 1.327 . S
C727 H750 0.950 1_554 S
C728 C727 1.349 . S
C728 C740 1.349 . S
C729 C727 1.327 . S
C729 C745 1.429 . S
C729 H751 0.950 . S
C730 H726 0.949 . S
C730 C738 1.574 . S
C730 C746 1.368 . S
H731 C739 0.950 . S
H732 C737 0.950 . S
H733 C738 0.949 . S
H734 C740 0.950 . S
H735 C741 0.950 . S
H736 C742 0.949 . S
C737 H732 0.950 . S
C737 C739 1.327 . S
C737 C743 1.429 . S
C738 C730 1.574 . S
C738 H733 0.949 . S
C738 C744 1.368 . S
C739 C723 1.349 . S
C739 H731 0.950 . S
C739 C737 1.327 . S
C740 C728 1.349 . S
C740 H734 0.950 . S
C740 C741 1.327 . S
C741 H735 0.950 . S
C741 C740 1.327 . S
C741 C745 1.429 . S
C742 C725 1.574 . S
C742 H736 0.949 . S
C742 C746 1.368 . S
C743 C724 1.429 . S
C743 C737 1.429 . S
C743 C744 1.523 . S
C744 C725 1.368 . S
C744 C738 1.368 . S
C744 C743 1.523 . S
C745 C729 1.429 . S
C745 C741 1.429 . S
C745 C746 1.523 . S
C746 C730 1.368 . S
C746 C742 1.368 . S
C746 C745 1.523 . S
H747 C722 0.950 . S
H748 C724 0.950 . S
H749 C725 0.949 . S
H750 C727 0.950 1_556 S
H751 C729 0.950 . S
C752 C753 1.349 . S
C752 C754 1.327 . S
C752 H777 0.950 . S
C753 C752 1.349 . S
C753 C769 1.349 . S
C754 C752 1.327 . S
C754 C773 1.429 . S
C754 H778 0.950 . S
C755 C772 1.574 . S
C755 C774 1.368 . S
C755 H779 0.949 . S
H756 C760 0.949 . S
C757 C758 1.349 . S
C757 C759 1.327 . S
C757 H780 0.950 . S
C758 C757 1.349 . S
C758 C770 1.349 . S
C759 C757 1.327 . S
C759 C775 1.429 . S
C759 H781 0.950 . S
C760 H756 0.949 . S
C760 C768 1.574 . S
C760 C776 1.368 . S
H761 C769 0.950 . S
H762 C767 0.950 . S
H763 C768 0.949 . S
H764 C770 0.950 . S
H765 C771 0.950 . S
H766 C772 0.949 . S
C767 H762 0.950 . S
C767 C769 1.327 . S
C767 C773 1.429 . S
C768 C760 1.574 . S
C768 H763 0.949 . S
C768 C774 1.368 . S
C769 C753 1.349 . S
C769 H761 0.950 . S
C769 C767 1.327 . S
C770 C758 1.349 . S
C770 H764 0.950 . S
C770 C771 1.327 . S
C771 H765 0.950 . S
C771 C770 1.327 . S
C771 C775 1.429 . S
C772 C755 1.574 . S
C772 H766 0.949 . S
C772 C776 1.368 . S
C773 C754 1.429 . S
C773 C767 1.429 . S
C773 C774 1.523 . S
C774 C755 1.368 . S
C774 C768 1.368 . S
C774 C773 1.523 . S
C775 C759 1.429 . S
C775 C771 1.429 . S
C775 C776 1.523 . S
C776 C760 1.368 . S
C776 C772 1.368 . S
C776 C775 1.523 . S
H777 C752 0.950 . S
H778 C754 0.950 . S
H779 C755 0.949 . S
H780 C757 0.950 . S
H781 C759 0.950 . S
C782 C783 1.349 . S
C782 C784 1.327 . S
C782 H807 0.950 . S
C783 C782 1.349 . S
C783 C799 1.349 . S
C784 C782 1.327 . S
C784 C803 1.429 . S
C784 H808 0.950 . S
C785 C802 1.574 . S
C785 C804 1.368 . S
C785 H809 0.949 . S
H786 C790 0.949 . S
C787 C788 1.349 . S
C787 C789 1.327 . S
C787 H810 0.950 . S
C788 C787 1.349 . S
C788 C800 1.349 . S
C789 C787 1.327 . S
C789 C805 1.429 . S
C789 H811 0.950 . S
C790 H786 0.949 . S
C790 C798 1.574 . S
C790 C806 1.368 . S
H791 C799 0.950 . S
H792 C797 0.950 . S
H793 C798 0.949 . S
H794 C800 0.950 . S
H795 C801 0.950 . S
H796 C802 0.949 . S
C797 H792 0.950 . S
C797 C799 1.327 . S
C797 C803 1.429 . S
C798 C790 1.574 . S
C798 H793 0.949 . S
C798 C804 1.368 . S
C799 C783 1.349 . S
C799 H791 0.950 . S
C799 C797 1.327 . S
C800 C788 1.349 . S
C800 H794 0.950 . S
C800 C801 1.327 . S
C801 H795 0.950 . S
C801 C800 1.327 . S
C801 C805 1.429 . S
C802 C785 1.574 . S
C802 H796 0.949 . S
C802 C806 1.368 . S
C803 C784 1.429 . S
C803 C797 1.429 . S
C803 C804 1.523 . S
C804 C785 1.368 . S
C804 C798 1.368 . S
C804 C803 1.523 . S
C805 C789 1.429 . S
C805 C801 1.429 . S
C805 C806 1.523 . S
C806 C790 1.368 . S
C806 C802 1.368 . S
C806 C805 1.523 . S
H807 C782 0.950 . S
H808 C784 0.950 . S
H809 C785 0.949 . S
H810 C787 0.950 . S
H811 C789 0.950 . S
C812 C813 1.349 . S
C812 C814 1.327 . S
C812 H837 0.950 . S
C813 C812 1.349 . S
C813 C829 1.349 1_556 S
C814 C812 1.327 . S
C814 C833 1.429 . S
C814 H838 0.950 . S
C815 C832 1.574 . S
C815 C834 1.368 . S
C815 H839 0.949 . S
H816 C820 0.949 . S
C817 C818 1.349 . S
C817 C819 1.327 . S
C817 H840 0.950 . S
C818 C817 1.349 . S
C818 C830 1.349 . S
C819 C817 1.327 . S
C819 C835 1.429 . S
C819 H841 0.950 . S
C820 H816 0.949 . S
C820 C828 1.574 . S
C820 C836 1.368 . S
H821 C829 0.950 . S
H822 C827 0.950 1_554 S
H823 C828 0.949 . S
H824 C830 0.950 . S
H825 C831 0.950 . S
H826 C832 0.949 . S
C827 H822 0.950 1_556 S
C827 C829 1.327 1_556 S
C827 C833 1.429 . S
C828 C820 1.574 . S
C828 H823 0.949 . S
C828 C834 1.368 . S
C829 C813 1.349 1_554 S
C829 H821 0.950 . S
C829 C827 1.327 1_554 S
C830 C818 1.349 . S
C830 H824 0.950 . S
C830 C831 1.327 . S
C831 H825 0.950 . S
C831 C830 1.327 . S
C831 C835 1.429 . S
C832 C815 1.574 . S
C832 H826 0.949 . S
C832 C836 1.368 . S
C833 C814 1.429 . S
C833 C827 1.429 . S
C833 C834 1.523 . S
C834 C815 1.368 . S
C834 C828 1.368 . S
C834 C833 1.523 . S
C835 C819 1.429 . S
C835 C831 1.429 . S
C835 C836 1.523 . S
C836 C820 1.368 . S
C836 C832 1.368 . S
C836 C835 1.523 . S
H837 C812 0.950 . S
H838 C814 0.950 . S
H839 C815 0.949 . S
H840 C817 0.950 . S
H841 C819 0.950 . S
C842 C843 1.349 . S
C842 C844 1.327 . S
C842 H867 0.950 . S
C843 C842 1.349 . S
C843 C859 1.349 . S
C844 C842 1.327 . S
C844 C863 1.429 . S
C844 H868 0.950 . S
C845 C862 1.574 . S
C845 C864 1.368 . S
C845 H869 0.949 . S
H846 C850 0.949 . S
C847 C848 1.349 . S
C847 C849 1.327 . S
C847 H870 0.950 . S
C848 C847 1.349 . S
C848 C860 1.349 . S
C849 C847 1.327 . S
C849 C865 1.429 . S
C849 H871 0.950 . S
C850 H846 0.949 . S
C850 C858 1.574 . S
C850 C866 1.368 . S
H851 C859 0.950 . S
H852 C857 0.950 . S
H853 C858 0.949 . S
H854 C860 0.950 . S
H855 C861 0.950 . S
H856 C862 0.949 . S
C857 H852 0.950 . S
C857 C859 1.327 . S
C857 C863 1.429 . S
C858 C850 1.574 . S
C858 H853 0.949 . S
C858 C864 1.368 . S
C859 C843 1.349 . S
C859 H851 0.950 . S
C859 C857 1.327 . S
C860 C848 1.349 . S
C860 H854 0.950 . S
C860 C861 1.327 . S
C861 H855 0.950 . S
C861 C860 1.327 . S
C861 C865 1.429 . S
C862 C845 1.574 . S
C862 H856 0.949 . S
C862 C866 1.368 . S
C863 C844 1.429 . S
C863 C857 1.429 . S
C863 C864 1.523 . S
C864 C845 1.368 . S
C864 C858 1.368 . S
C864 C863 1.523 . S
C865 C849 1.429 . S
C865 C861 1.429 . S
C865 C866 1.523 . S
C866 C850 1.368 . S
C866 C862 1.368 . S
C866 C865 1.523 . S
H867 C842 0.950 . S
H868 C844 0.950 . S
H869 C845 0.949 . S
H870 C847 0.950 . S
H871 C849 0.950 . S
C872 C873 1.349 . S
C872 C874 1.327 . S
C872 H897 0.936 1_655 S
C873 C872 1.349 . S
C873 C889 1.349 . S
C874 C872 1.327 . S
C874 C893 1.429 . S
C874 H898 0.950 1_655 S
C875 C892 1.574 . S
C875 C894 1.368 . S
C875 H899 0.949 . S
H876 C880 0.949 . S
C877 C878 1.349 . S
C877 C879 1.327 . S
C877 H900 0.950 . S
C878 C877 1.349 . S
C878 C890 1.349 1_655 S
C879 C877 1.327 . S
C879 C895 1.429 . S
C879 H901 0.950 . S
C880 H876 0.949 . S
C880 C888 1.576 . S
C880 C896 1.368 1_455 S
H881 C889 0.950 . S
H882 C887 0.950 . S
H883 C888 0.962 . S
H884 C890 0.950 . S
H885 C891 0.950 . S
H886 C892 0.949 . S
C887 H882 0.950 . S
C887 C889 1.327 . S
C887 C893 1.429 . S
C888 C880 1.576 . S
C888 H883 0.962 . S
C888 C894 1.352 1_455 S
C889 C873 1.349 . S
C889 H881 0.950 . S
C889 C887 1.327 . S
C890 C878 1.349 1_455 S
C890 H884 0.950 . S
C890 C891 1.327 . S
C891 H885 0.950 . S
C891 C890 1.327 . S
C891 C895 1.429 1_455 S
C892 C875 1.574 . S
C892 H886 0.949 . S
C892 C896 1.368 . S
C893 C874 1.429 . S
C893 C887 1.429 . S
C893 C894 1.523 . S
C894 C875 1.368 . S
C894 C888 1.352 1_655 S
C894 C893 1.523 . S
C895 C879 1.429 . S
C895 C891 1.429 1_655 S
C895 C896 1.523 . S
C896 C880 1.368 1_655 S
C896 C892 1.368 . S
C896 C895 1.523 . S
H897 C872 0.936 1_455 S
H898 C874 0.950 1_455 S
H899 C875 0.949 . S
H900 C877 0.950 . S
H901 C879 0.950 . S
C902 C903 1.349 . S
C902 C904 1.327 . S
C902 H927 0.950 . S
C903 C902 1.349 . S
C903 C919 1.349 . S
C904 C902 1.327 . S
C904 C923 1.429 . S
C904 H928 0.950 . S
C905 C922 1.574 . S
C905 C924 1.368 . S
C905 H929 0.949 . S
H906 C910 0.949 . S
C907 C908 1.349 . S
C907 C909 1.327 . S
C907 H930 0.950 . S
C908 C907 1.349 . S
C908 C920 1.349 . S
C909 C907 1.327 . S
C909 C925 1.429 . S
C909 H931 0.950 . S
C910 H906 0.949 . S
C910 C918 1.574 . S
C910 C926 1.368 . S
H911 C919 0.950 . S
H912 C917 0.950 . S
H913 C918 0.949 . S
H914 C920 0.950 . S
H915 C921 0.950 . S
H916 C922 0.949 . S
C917 H912 0.950 . S
C917 C919 1.327 . S
C917 C923 1.429 . S
C918 C910 1.574 . S
C918 H913 0.949 . S
C918 C924 1.368 . S
C919 C903 1.349 . S
C919 H911 0.950 . S
C919 C917 1.327 . S
C920 C908 1.349 . S
C920 H914 0.950 . S
C920 C921 1.327 . S
C921 H915 0.950 . S
C921 C920 1.327 . S
C921 C925 1.429 . S
C922 C905 1.574 . S
C922 H916 0.949 . S
C922 C926 1.368 . S
C923 C904 1.429 . S
C923 C917 1.429 . S
C923 C924 1.523 . S
C924 C905 1.368 . S
C924 C918 1.368 . S
C924 C923 1.523 . S
C925 C909 1.429 . S
C925 C921 1.429 . S
C925 C926 1.523 . S
C926 C910 1.368 . S
C926 C922 1.368 . S
C926 C925 1.523 . S
H927 C902 0.950 . S
H928 C904 0.950 . S
H929 C905 0.949 . S
H930 C907 0.950 . S
H931 C909 0.950 . S
C932 C933 1.349 . S
C932 C934 1.327 . S
C932 H957 0.950 . S
C933 C932 1.349 . S
C933 C949 1.349 . S
C934 C932 1.327 . S
C934 C953 1.429 . S
C934 H958 0.950 . S
C935 C952 1.574 1_556 S
C935 C954 1.368 . S
C935 H959 0.949 . S
H936 C940 0.949 . S
C937 C938 1.349 . S
C937 C939 1.327 . S
C937 H960 0.950 . S
C938 C937 1.349 . S
C938 C950 1.349 . S
C939 C937 1.327 . S
C939 C955 1.429 . S
C939 H961 0.950 . S
C940 H936 0.949 . S
C940 C948 1.574 1_554 S
C940 C956 1.368 . S
H941 C949 0.950 . S
H942 C947 0.950 . S
H943 C948 0.949 . S
H944 C950 0.950 . S
H945 C951 0.950 . S
H946 C952 0.949 . S
C947 H942 0.950 . S
C947 C949 1.327 . S
C947 C953 1.429 . S
C948 C940 1.574 1_556 S
C948 H943 0.949 . S
C948 C954 1.368 . S
C949 C933 1.349 . S
C949 H941 0.950 . S
C949 C947 1.327 . S
C950 C938 1.349 . S
C950 H944 0.950 . S
C950 C951 1.327 . S
C951 H945 0.950 . S
C951 C950 1.327 . S
C951 C955 1.429 . S
C952 C935 1.574 1_554 S
C952 H946 0.949 . S
C952 C956 1.368 . S
C953 C934 1.429 . S
C953 C947 1.429 . S
C953 C954 1.523 . S
C954 C935 1.368 . S
C954 C948 1.368 . S
C954 C953 1.523 . S
C955 C939 1.429 . S
C955 C951 1.429 . S
C955 C956 1.523 . S
C956 C940 1.368 . S
C956 C952 1.368 . S
C956 C955 1.523 . S
H957 C932 0.950 . S
H958 C934 0.950 . S
H959 C935 0.949 . S
H960 C937 0.950 . S
H961 C939 0.950 . S
C962 C963 1.349 1_565 S
C962 C964 1.327 . S
C962 H987 0.950 . S
C963 C962 1.349 1_545 S
C963 C979 1.349 . S
C964 C962 1.327 . S
C964 C983 1.429 1_565 S
C964 H988 0.950 . S
C965 C982 1.574 . S
C965 C984 1.368 . S
C965 H989 0.949 . S
H966 C970 0.949 . S
C967 C968 1.349 . S
C967 C969 1.327 . S
C967 H990 0.950 . S
C968 C967 1.349 . S
C968 C980 1.349 . S
C969 C967 1.327 . S
C969 C985 1.429 . S
C969 H991 0.950 . S
C970 H966 0.949 . S
C970 C978 1.574 . S
C970 C986 1.368 1_565 S
H971 C979 0.950 . S
H972 C977 0.950 . S
H973 C978 0.949 . S
H974 C980 0.950 1_565 S
H975 C981 0.950 1_565 S
H976 C982 0.949 . S
C977 H972 0.950 . S
C977 C979 1.327 . S
C977 C983 1.429 . S
C978 C970 1.574 . S
C978 H973 0.949 . S
C978 C984 1.368 1_565 S
C979 C963 1.349 . S
C979 H971 0.950 . S
C979 C977 1.327 . S
C980 C968 1.349 . S
C980 H974 0.950 1_545 S
C980 C981 1.327 . S
C981 H975 0.950 1_545 S
C981 C980 1.327 . S
C981 C985 1.429 . S
C982 C965 1.574 . S
C982 H976 0.949 . S
C982 C986 1.368 . S
C983 C964 1.429 1_545 S
C983 C977 1.429 . S
C983 C984 1.523 . S
C984 C965 1.368 . S
C984 C978 1.368 1_545 S
C984 C983 1.523 . S
C985 C969 1.429 . S
C985 C981 1.429 . S
C985 C986 1.523 . S
C986 C970 1.368 1_545 S
C986 C982 1.368 . S
C986 C985 1.523 . S
H987 C962 0.950 . S
H988 C964 0.950 . S
H989 C965 0.949 . S
H990 C967 0.950 . S
H991 C969 0.950 . S
C992 C993 1.349 . S
C992 C994 1.327 . S
C992 H1017 0.950 . S
C993 C992 1.349 . S
C993 C1009 1.349 . S
C994 C992 1.327 . S
C994 C1013 1.429 . S
C994 H1018 0.950 . S
C995 C1012 1.574 1_554 S
C995 C1014 1.368 . S
C995 H1019 0.949 . S
H996 C1000 0.949 . S
C997 C998 1.349 . S
C997 C999 1.327 . S
C997 H1020 0.950 . S
C998 C997 1.349 . S
C998 C1010 1.349 . S
C999 C997 1.327 . S
C999 C1015 1.429 . S
C999 H1021 0.950 . S
C1000 H996 0.949 . S
C1000 C1008 1.574 1_556 S
C1000 C1016 1.368 . S
H1001 C1009 0.950 . S
H1002 C1007 0.950 . S
H1003 C1008 0.949 . S
H1004 C1010 0.950 . S
H1005 C1011 0.950 . S
H1006 C1012 0.949 . S
C1007 H1002 0.950 . S
C1007 C1009 1.327 . S
C1007 C1013 1.429 . S
C1008 C1000 1.574 1_554 S
C1008 H1003 0.949 . S
C1008 C1014 1.368 . S
C1009 C993 1.349 . S
C1009 H1001 0.950 . S
C1009 C1007 1.327 . S
C1010 C998 1.349 . S
C1010 H1004 0.950 . S
C1010 C1011 1.327 . S
C1011 H1005 0.950 . S
C1011 C1010 1.327 . S
C1011 C1015 1.429 . S
C1012 C995 1.574 1_556 S
C1012 H1006 0.949 . S
C1012 C1016 1.368 . S
C1013 C994 1.429 . S
C1013 C1007 1.429 . S
C1013 C1014 1.523 . S
C1014 C995 1.368 . S
C1014 C1008 1.368 . S
C1014 C1013 1.523 . S
C1015 C999 1.429 . S
C1015 C1011 1.429 . S
C1015 C1016 1.523 . S
C1016 C1000 1.368 . S
C1016 C1012 1.368 . S
C1016 C1015 1.523 . S
H1017 C992 0.950 . S
H1018 C994 0.950 . S
H1019 C995 0.949 . S
H1020 C997 0.950 . S
H1021 C999 0.950 . S
C1022 C1023 1.349 1_545 S
C1022 C1024 1.327 . S
C1022 H1047 0.950 . S
C1023 C1022 1.349 1_565 S
C1023 C1039 1.349 . S
C1024 C1022 1.327 . S
C1024 C1043 1.429 1_545 S
C1024 H1048 0.950 . S
C1025 C1042 1.574 . S
C1025 C1044 1.368 . S
C1025 H1049 0.949 . S
H1026 C1030 0.949 . S
C1027 C1028 1.349 . S
C1027 C1029 1.327 . S
C1027 H1050 0.950 . S
C1028 C1027 1.349 . S
C1028 C1040 1.349 . S
C1029 C1027 1.327 . S
C1029 C1045 1.429 . S
C1029 H1051 0.950 . S
C1030 H1026 0.949 . S
C1030 C1038 1.574 . S
C1030 C1046 1.368 1_545 S
H1031 C1039 0.950 . S
H1032 C1037 0.950 . S
H1033 C1038 0.949 . S
H1034 C1040 0.950 1_545 S
H1035 C1041 0.950 1_545 S
H1036 C1042 0.949 . S
C1037 H1032 0.950 . S
C1037 C1039 1.327 . S
C1037 C1043 1.429 . S
C1038 C1030 1.574 . S
C1038 H1033 0.949 . S
C1038 C1044 1.368 1_545 S
C1039 C1023 1.349 . S
C1039 H1031 0.950 . S
C1039 C1037 1.327 . S
C1040 C1028 1.349 . S
C1040 H1034 0.950 1_565 S
C1040 C1041 1.327 . S
C1041 H1035 0.950 1_565 S
C1041 C1040 1.327 . S
C1041 C1045 1.429 . S
C1042 C1025 1.574 . S
C1042 H1036 0.949 . S
C1042 C1046 1.368 . S
C1043 C1024 1.429 1_565 S
C1043 C1037 1.429 . S
C1043 C1044 1.523 . S
C1044 C1025 1.368 . S
C1044 C1038 1.368 1_565 S
C1044 C1043 1.523 . S
C1045 C1029 1.429 . S
C1045 C1041 1.429 . S
C1045 C1046 1.523 . S
C1046 C1030 1.368 1_565 S
C1046 C1042 1.368 . S
C1046 C1045 1.523 . S
H1047 C1022 0.950 . S
H1048 C1024 0.950 . S
H1049 C1025 0.949 . S
H1050 C1027 0.950 . S
H1051 C1029 0.950 . S
C1052 C1053 1.391 . S
C1052 C1054 1.322 1_455 S
C1052 H1077 0.913 1_455 S
C1053 C1052 1.391 . S
C1053 C1069 1.349 . S
C1054 C1052 1.322 1_655 S
C1054 C1073 1.429 1_655 S
C1054 H1078 0.950 . S
C1055 C1072 1.574 . S
C1055 C1074 1.368 . S
C1055 H1079 0.949 . S
H1056 C1060 0.949 . S
C1057 C1058 1.349 . S
C1057 C1059 1.327 . S
C1057 H1080 0.950 . S
C1058 C1057 1.349 . S
C1058 C1070 1.349 1_455 S
C1059 C1057 1.327 . S
C1059 C1075 1.429 . S
C1059 H1081 0.950 . S
C1060 H1056 0.949 . S
C1060 C1068 1.574 . S
C1060 C1076 1.368 1_655 S
H1061 C1069 0.950 . S
H1062 C1067 0.950 . S
H1063 C1068 0.949 . S
H1064 C1070 0.950 . S
H1065 C1071 0.950 . S
H1066 C1072 0.949 . S
C1067 H1062 0.950 . S
C1067 C1069 1.327 . S
C1067 C1073 1.429 . S
C1068 C1060 1.574 . S
C1068 H1063 0.949 . S
C1068 C1074 1.368 1_655 S
C1069 C1053 1.349 . S
C1069 H1061 0.950 . S
C1069 C1067 1.327 . S
C1070 C1058 1.349 1_655 S
C1070 H1064 0.950 . S
C1070 C1071 1.327 . S
C1071 H1065 0.950 . S
C1071 C1070 1.327 . S
C1071 C1075 1.429 1_655 S
C1072 C1055 1.574 . S
C1072 H1066 0.949 . S
C1072 C1076 1.368 . S
C1073 C1054 1.429 1_455 S
C1073 C1067 1.429 . S
C1073 C1074 1.523 . S
C1074 C1055 1.368 . S
C1074 C1068 1.368 1_455 S
C1074 C1073 1.523 . S
C1075 C1059 1.429 . S
C1075 C1071 1.429 1_455 S
C1075 C1076 1.523 . S
C1076 C1060 1.368 1_455 S
C1076 C1072 1.368 . S
C1076 C1075 1.523 . S
H1077 C1052 0.913 1_655 S
H1078 C1054 0.950 . S
H1079 C1055 0.949 . S
H1080 C1057 0.950 . S
H1081 C1059 0.950 . S
C1082 C1083 1.349 . S
C1082 C1084 1.327 . S
C1082 H1107 0.950 . S
C1083 C1082 1.349 . S
C1083 C1099 1.349 . S
C1084 C1082 1.327 . S
C1084 C1103 1.429 . S
C1084 H1108 0.950 . S
C1085 C1102 1.574 . S
C1085 C1104 1.368 . S
C1085 H1109 0.949 . S
H1086 C1090 0.949 . S
C1087 C1088 1.349 . S
C1087 C1089 1.327 . S
C1087 H1110 0.950 . S
C1088 C1087 1.349 . S
C1088 C1100 1.349 . S
C1089 C1087 1.327 . S
C1089 C1105 1.429 . S
C1089 H1111 0.950 . S
C1090 H1086 0.949 . S
C1090 C1098 1.574 . S
C1090 C1106 1.368 . S
H1091 C1099 0.950 . S
H1092 C1097 0.950 . S
H1093 C1098 0.949 . S
H1094 C1100 0.950 . S
H1095 C1101 0.950 . S
H1096 C1102 0.949 . S
C1097 H1092 0.950 . S
C1097 C1099 1.327 . S
C1097 C1103 1.429 . S
C1098 C1090 1.574 . S
C1098 H1093 0.949 . S
C1098 C1104 1.368 . S
C1099 C1083 1.349 . S
C1099 H1091 0.950 . S
C1099 C1097 1.327 . S
C1100 C1088 1.349 . S
C1100 H1094 0.950 . S
C1100 C1101 1.327 . S
C1101 H1095 0.950 . S
C1101 C1100 1.327 . S
C1101 C1105 1.429 . S
C1102 C1085 1.574 . S
C1102 H1096 0.949 . S
C1102 C1106 1.368 . S
C1103 C1084 1.429 . S
C1103 C1097 1.429 . S
C1103 C1104 1.523 . S
C1104 C1085 1.368 . S
C1104 C1098 1.368 . S
C1104 C1103 1.523 . S
C1105 C1089 1.429 . S
C1105 C1101 1.429 . S
C1105 C1106 1.523 . S
C1106 C1090 1.368 . S
C1106 C1102 1.368 . S
C1106 C1105 1.523 . S
H1107 C1082 0.950 . S
H1108 C1084 0.950 . S
H1109 C1085 0.949 . S
H1110 C1087 0.950 . S
H1111 C1089 0.950 . S
C273 C232 0.312 . S
C278 C28 0.310 . S
C303 C62 0.312 . S
C308 C244 0.312 . S
C333 C164 0.312 . S
C338 C96 0.312 . S
C363 C108 0.312 . S
C368 C198 0.310 . S
C393 C171 2.126 . S
C398 C3 2.155 . S
C423 C37 2.158 . S
C428 C205 2.125 . S
C453 C71 2.158 . S
C458 C241 2.126 . S
C483 C103 2.158 . S
C488 C137 2.126 . S
C513 C130 1.437 . S
C518 C17 1.421 . S
C543 C51 1.418 . S
C548 C6 1.438 . S
C573 C40 1.437 . S
C578 C85 1.418 . S
C603 C119 1.418 . S
C608 C74 1.437 . S
C633 C35 2.126 . S
C638 C139 2.158 . S
C663 C69 2.126 . S
C668 C173 2.155 . S
C693 C105 2.126 . S
C698 C207 2.160 . S
C723 C239 2.158 . S
C728 C1 2.124 . S
C753 C266 1.437 . S
C758 C153 1.418 . S
C783 C187 1.418 . S
C788 C142 1.440 . S
C813 C221 1.418 . S
C818 C176 1.439 . S
C843 C210 1.437 . S
C848 C255 1.418 . S
C873 C22 1.383 . S
C878 C15 1.386 . S
C903 C49 1.386 1_556 S
C908 C56 1.383 . S
C933 C90 1.383 . S
C938 C83 1.386 . S
C963 C124 1.386 . S
C968 C117 1.383 1_554 S
C993 C151 1.386 . S
C998 C158 1.383 . S
C1023 C185 1.386 . S
C1028 C192 1.383 1_554 S
C1053 C226 1.383 . S
C1058 C219 1.386 . S
C1083 C253 1.383 . S
C1088 C260 1.386 1_556 S
