# Generated by pormake.
# Topology smm, (6)-cn, num edge types: 1
# Building blocks:
#     Node 0, Type 0, BuildingBlock: BETFEN_clean_sbu_0, # of connection points: 6
#     Node 1, Type 0, BuildingBlock: BETFEN_clean_sbu_0, # of connection points: 6
#     Node 2, Type 0, BuildingBlock: BETFEN_clean_sbu_0, # of connection points: 6
#     Node 3, Type 0, BuildingBlock: BETFEN_clean_sbu_0, # of connection points: 6
#     Node 4, Type 0, BuildingBlock: BETFEN_clean_sbu_0, # of connection points: 6
#     Node 5, Type 0, BuildingBlock: BETFEN_clean_sbu_0, # of connection points: 6
#     Node 6, Type 0, BuildingBlock: BETFEN_clean_sbu_0, # of connection points: 6
#     Node 7, Type 0, BuildingBlock: BETFEN_clean_sbu_0, # of connection points: 6
#     Node 8, Type 0, BuildingBlock: BETFEN_clean_sbu_0, # of connection points: 6
#     Edge 9, Type (0, 0), BuildingBlock: OJICUG_clean_linker_0, # of connection points: 2
#     Edge 10, Type (0, 0), BuildingBlock: OJICUG_clean_linker_0, # of connection points: 2
#     Edge 11, Type (0, 0), BuildingBlock: OJICUG_clean_linker_0, # of connection points: 2
#     Edge 12, Type (0, 0), BuildingBlock: OJICUG_clean_linker_0, # of connection points: 2
#     Edge 13, Type (0, 0), BuildingBlock: OJICUG_clean_linker_0, # of connection points: 2
#     Edge 14, Type (0, 0), BuildingBlock: OJICUG_clean_linker_0, # of connection points: 2
#     Edge 15, Type (0, 0), BuildingBlock: OJICUG_clean_linker_0, # of connection points: 2
#     Edge 16, Type (0, 0), BuildingBlock: OJICUG_clean_linker_0, # of connection points: 2
#     Edge 17, Type (0, 0), BuildingBlock: OJICUG_clean_linker_0, # of connection points: 2
#     Edge 18, Type (0, 0), BuildingBlock: OJICUG_clean_linker_0, # of connection points: 2
#     Edge 19, Type (0, 0), BuildingBlock: OJICUG_clean_linker_0, # of connection points: 2
#     Edge 20, Type (0, 0), BuildingBlock: OJICUG_clean_linker_0, # of connection points: 2
#     Edge 21, Type (0, 0), BuildingBlock: OJICUG_clean_linker_0, # of connection points: 2
#     Edge 22, Type (0, 0), BuildingBlock: OJICUG_clean_linker_0, # of connection points: 2
#     Edge 23, Type (0, 0), BuildingBlock: OJICUG_clean_linker_0, # of connection points: 2
#     Edge 24, Type (0, 0), BuildingBlock: OJICUG_clean_linker_0, # of connection points: 2
#     Edge 25, Type (0, 0), BuildingBlock: OJICUG_clean_linker_0, # of connection points: 2
#     Edge 26, Type (0, 0), BuildingBlock: OJICUG_clean_linker_0, # of connection points: 2
#     Edge 27, Type (0, 0), BuildingBlock: OJICUG_clean_linker_0, # of connection points: 2
#     Edge 28, Type (0, 0), BuildingBlock: OJICUG_clean_linker_0, # of connection points: 2
#     Edge 29, Type (0, 0), BuildingBlock: OJICUG_clean_linker_0, # of connection points: 2
#     Edge 30, Type (0, 0), BuildingBlock: OJICUG_clean_linker_0, # of connection points: 2
#     Edge 31, Type (0, 0), BuildingBlock: OJICUG_clean_linker_0, # of connection points: 2
#     Edge 32, Type (0, 0), BuildingBlock: OJICUG_clean_linker_0, # of connection points: 2
#     Edge 33, Type (0, 0), BuildingBlock: OJICUG_clean_linker_0, # of connection points: 2
#     Edge 34, Type (0, 0), BuildingBlock: OJICUG_clean_linker_0, # of connection points: 2
#     Edge 35, Type (0, 0), BuildingBlock: OJICUG_clean_linker_0, # of connection points: 2
# Relax obj value: 0.152
# Max RMSD: 0.212
# Mean RMSD: 0.178
data_MOF--net-smm--node1-BETFEN_clean_sbu_0--edge1-OJICUG_clean_linker_0
_symmetry_space_group_name_H-M    P1
_symmetry_Int_Tables_number       1
_symmetry_cell_setting            triclinic
loop_
_symmetry_equiv_pos_as_xyz
'x, y, z'
_cell_length_a     46.735963
_cell_length_b     63.851038
_cell_length_c     10.567671
_cell_angle_alpha  92.483155
_cell_angle_beta   94.332451
_cell_angle_gamma 123.84683
loop_
_atom_site_label
_atom_site_type_symbol
_atom_site_fract_x
_atom_site_fract_y
_atom_site_fract_z
_atom_type_partial_charge
Pr0 Pr 0.12964 0.26477 0.05452 0.0
Pr1 Pr 1.05839 0.21712 0.05463 0.0
C2 C 0.18703 0.30765 -0.00228 0.0
C3 C 0.20672 0.33517 -0.01411 0.0
C4 C 0.23421 0.35234 0.07944 0.0
C5 C 0.25696 0.37773 0.05838 0.0
C6 C 0.25286 0.38637 0.94275 0.0
C7 C 0.22442 0.36948 0.85181 0.0
C8 C 0.20161 0.34415 0.87302 0.0
C9 C 0.11216 0.25105 0.29819 0.0
C10 C 1.06068 0.26966 0.05741 0.0
C11 C 1.0057 0.17044 0.09634 0.0
C12 C 1.00265 0.14603 0.09471 0.0
C13 C 0.97624 0.12495 0.01295 0.0
C14 C 0.97551 0.10272 -0.00085 0.0
C15 C 1.00124 0.10108 0.06677 0.0
C16 C 1.02702 0.12196 0.15177 0.0
C17 C 1.02771 0.14414 0.16562 0.0
C18 C 1.0765 0.23081 0.81182 0.0
C19 C 0.12758 0.21293 0.05921 0.0
O20 O 0.15997 0.29236 0.91414 0.0
O21 O 0.18406 0.2998 0.11141 0.0
O22 O 0.0922 0.25042 0.20841 0.0
O23 O 0.14286 0.25981 0.2652 0.0
O24 O 1.04114 0.24543 0.07811 0.0
O25 O 0.09355 0.28036 0.03666 0.0
O26 O 1.02687 0.18802 0.18881 0.0
O27 O 1.00788 0.17943 -0.014 0.0
O28 O 0.09608 0.23118 0.90225 0.0
O29 O 1.04589 0.2225 0.84418 0.0
O30 O 0.1454 0.23603 0.02381 0.0
O31 O 0.09591 0.20307 0.09079 0.0
H32 H 0.23912 0.34592 0.16656 0.0
H33 H 0.27879 0.39026 0.12985 0.0
H34 H 0.22032 0.3757 0.76256 0.0
H35 H 0.18085 0.3314 0.79849 0.0
H36 H 0.95662 0.12589 0.95722 0.0
H37 H 0.95491 0.08689 0.9345 0.0
H38 H 1.04746 0.12153 0.20444 0.0
H39 H 1.04853 0.16007 0.22922 0.0
Pr40 Pr 0.99855 0.85379 0.95455 0.0
Pr41 Pr 0.99194 0.89995 0.93212 0.0
C42 C 0.98347 0.80597 -0.01188 0.0
C43 C 0.97482 0.77904 -2e-05 0.0
C44 C 0.96896 0.76269 0.89142 0.0
C45 C 0.95713 0.73685 0.89914 0.0
C46 C 0.94979 0.72564 0.01562 0.0
C47 C 0.9561 0.74216 0.12453 0.0
C48 C 0.96842 0.76812 0.11701 0.0
C49 C 1.00174 0.86931 0.71084 0.0
C50 C 0.92114 0.84797 0.90754 0.0
C51 C 0.98973 0.94002 0.87789 0.0
C52 C 0.99801 0.96539 0.92103 0.0
C53 C 0.98756 0.96984 0.03478 0.0
C54 C 0.99063 0.9927 0.06337 0.0
C55 C 1.00416 1.01159 -0.02124 0.0
C56 C 1.01607 1.00749 0.86801 0.0
C57 C 1.01294 0.98463 0.83945 0.0
C58 C 0.99076 0.88537 0.18002 0.0
C59 C 1.07226 0.91433 0.96588 0.0
O60 O 0.99552 0.82387 0.08313 0.0
O61 O 0.98212 0.81396 0.87753 0.0
O62 O 0.98108 0.8677 0.78678 0.0
O63 O 1.0209 0.86197 0.75848 0.0
O64 O 0.93754 0.86773 0.84392 0.0
O65 O 0.93909 0.8406 0.97294 0.0
O66 O 1.01473 0.9378 0.84863 0.0
O67 O 0.96561 0.92062 0.93022 0.0
O68 O 1.01011 0.8861 0.10101 0.0
O69 O 0.97323 0.8941 0.13543 0.0
O70 O 1.05988 0.89047 -0.00443 0.0
O71 O 1.05104 0.92058 0.92387 0.0
H72 H 0.97294 0.76976 0.79863 0.0
H73 H 0.95262 0.72538 0.81186 0.0
H74 H 0.95145 0.73504 0.21708 0.0
H75 H 0.97197 0.7795 0.2033 0.0
H76 H 0.97582 0.95531 0.09947 0.0
H77 H 0.98099 0.99508 0.14906 0.0
H78 H 1.02725 1.02177 0.80188 0.0
H79 H 1.02109 0.98164 0.75101 0.0
Pr80 Pr 0.29316 1.05277 -0.01664 0.0
Pr81 Pr 0.25228 0.07769 0.00336 0.0
C82 C 0.32209 1.02717 0.92761 0.0
C83 C 0.35399 1.02713 0.93998 0.0
C84 C 0.37144 1.02986 0.06029 0.0
C85 C 0.39775 1.02551 0.07169 0.0
C86 C 0.40738 1.01838 0.96322 0.0
C87 C 0.39128 1.0171 0.84238 0.0
C88 C 0.36478 1.02131 0.83104 0.0
C89 C 0.28712 0.06532 0.23171 0.0
C90 C 0.3411 0.1161 0.00175 0.0
C91 C 0.221 0.10134 0.0675 0.0
C92 C 0.21244 0.12069 0.06796 0.0
C93 C 0.21211 0.13238 0.95842 0.0
C94 C 0.19985 0.14819 0.95784 0.0
C95 C 0.18708 0.15244 0.06613 0.0
C96 C 0.18815 0.14105 0.17614 0.0
C97 C 0.20073 0.12552 0.17703 0.0
C98 C 0.25903 0.06613 0.75376 0.0
C99 C 0.20694 1.01378 -0.01693 0.0
O100 O 0.31969 1.04156 0.84905 0.0
O101 O 0.30723 1.02523 0.03044 0.0
O102 O 0.2633 1.05556 0.13962 0.0
O103 O 0.31541 0.06852 0.19801 0.0
O104 O 0.31233 0.11465 0.02601 0.0
O105 O 0.33998 0.09513 0.97551 0.0
O106 O 0.24864 0.1055 0.13585 0.0
O107 O 0.21079 0.08538 0.96568 0.0
O108 O 0.28228 0.07521 0.84729 0.0
O109 O 0.23129 0.06392 0.78611 0.0
O110 O 0.23425 1.01673 0.93471 0.0
O111 O 0.20896 1.03421 0.03257 0.0
H112 H 0.36392 1.03441 0.14628 0.0
H113 H 0.40994 1.02704 0.16611 0.0
H114 H 0.39784 1.01149 0.75694 0.0
H115 H 0.35165 1.01892 0.7372 0.0
H116 H 0.2206 0.12884 0.87231 0.0
H117 H 0.19929 0.15641 0.87096 0.0
H118 H 0.17909 0.14405 0.262 0.0
H119 H 0.20037 0.11665 0.26254 0.0
Pr120 Pr 0.80654 0.55935 0.01958 0.0
Pr121 Pr 0.86717 0.55459 0.01008 0.0
C122 C 0.76266 0.57053 0.09514 0.0
C123 C 0.76635 0.58664 0.206 0.0
C124 C 0.73849 0.58785 0.23288 0.0
C125 C 0.74173 0.60247 0.34183 0.0
C126 C 0.77295 0.6161 0.42487 0.0
C127 C 0.80083 0.61478 0.39769 0.0
C128 C 0.79742 0.59992 0.2894 0.0
C129 C 0.82029 0.55442 0.77224 0.0
C130 C 0.8842 0.61352 0.03444 0.0
C131 C 0.91049 0.54007 0.96275 0.0
C132 C 0.91667 0.51978 -0.01117 0.0
C133 C 0.93652 0.52169 0.10154 0.0
C134 C 0.94409 0.5035 0.12186 0.0
C135 C 0.93224 0.48275 0.03 0.0
C136 C 0.91216 0.48079 0.91767 0.0
C137 C 0.90462 0.499 0.89736 0.0
C138 C 0.85335 0.56014 0.25595 0.0
C139 C 0.78348 0.50044 -0.00446 0.0
O140 O 0.76108 0.55023 0.12287 0.0
O141 O 0.78309 0.5822 0.00819 0.0
O142 O 0.84295 0.56768 0.86563 0.0
O143 O 0.78906 0.54423 0.80284 0.0
O144 O 0.89437 0.59952 -0.01809 0.0
O145 O 0.85448 0.60161 0.0839 0.0
O146 O 0.88333 0.53394 0.88376 0.0
O147 O 0.9171 0.55668 0.05734 0.0
O148 O 0.83105 0.54628 0.16287 0.0
O149 O 0.88468 0.5711 0.22545 0.0
O150 O 0.77273 0.51538 0.01332 0.0
O151 O 0.81701 0.51048 -0.01444 0.0
H152 H 0.7143 0.57751 0.16987 0.0
H153 H 0.72006 0.60357 0.35975 0.0
H154 H 0.82508 0.62509 0.46036 0.0
H155 H 0.81894 0.59869 0.27111 0.0
H156 H 0.94658 0.53743 0.17418 0.0
H157 H 0.95919 0.50572 0.21043 0.0
H158 H 0.9029 0.46549 0.84323 0.0
H159 H 0.88973 0.49697 0.80852 0.0
Pr160 Pr 0.56049 0.21362 0.06464 0.0
Pr161 Pr 0.56338 0.26214 0.0389 0.0
C162 C 0.55086 0.16989 0.12808 0.0
C163 C 0.56501 0.15947 0.21552 0.0
C164 C 0.57819 0.14624 0.16498 0.0
C165 C 0.58874 0.13419 0.2442 0.0
C166 C 0.58599 0.13488 0.37579 0.0
C167 C 0.5737 0.14877 0.42684 0.0
C168 C 0.56337 0.16098 0.34764 0.0
C169 C 0.56232 0.22666 0.81382 0.0
C170 C 0.4842 0.20705 0.02624 0.0
C171 C 0.58597 0.31019 -0.01769 0.0
C172 C 0.6178 0.33734 -0.00795 0.0
C173 C 0.6191 0.35674 0.06683 0.0
C174 C 0.64685 0.38246 0.069 0.0
C175 C 0.67468 0.39014 -0.00418 0.0
C176 C 0.67383 0.3706 0.92322 0.0
C177 C 0.64591 0.34476 0.92092 0.0
C178 C 0.561 0.24903 0.28852 0.0
C179 C 0.63679 0.26304 0.08405 0.0
O180 O 0.56901 0.18215 0.03678 0.0
O181 O 0.53533 0.17965 0.1769 0.0
O182 O 0.54442 0.22809 0.89308 0.0
O183 O 0.57864 0.21717 0.86095 0.0
O184 O 0.50069 0.23085 -0.00729 0.0
O185 O 0.50209 0.19815 0.07023 0.0
O186 O 0.58376 0.29297 0.90234 0.0
O187 O 0.57185 0.30081 0.08572 0.0
O188 O 0.57924 0.24781 0.20994 0.0
O189 O 0.54468 0.25859 0.24135 0.0
O190 O 0.61861 0.24182 0.13664 0.0
O191 O 0.62096 0.27254 0.02573 0.0
H192 H 0.57967 0.14476 0.06346 0.0
H193 H 0.59865 0.12407 0.20188 0.0
H194 H 0.57084 0.14949 0.52736 0.0
H195 H 0.55328 0.171 0.38967 0.0
H196 H 0.59815 0.35206 0.12268 0.0
H197 H 0.6463 0.3964 0.12873 0.0
H198 H 0.69425 0.37528 0.86461 0.0
H199 H 0.64611 0.33064 0.86126 0.0
Pr200 Pr 1.02439 0.39311 0.13632 0.0
Pr201 Pr 0.94957 0.34892 0.06656 0.0
C202 C 0.09048 0.42635 0.23995 0.0
C203 C 0.12724 0.44503 0.29258 0.0
C204 C 0.15098 0.46153 0.21263 0.0
C205 C 0.1853 0.48008 0.26126 0.0
C206 C 0.19689 0.48272 0.39134 0.0
C207 C 0.17357 0.46563 0.4709 0.0
C208 C 0.13898 0.44697 0.42195 0.0
C209 C 1.00303 0.38261 0.87494 0.0
C210 C 1.00734 0.33435 0.08344 0.0
C211 C 0.88167 0.31656 0.97462 0.0
C212 C 0.84697 0.31093 -0.00601 0.0
C213 C 0.8406 0.33 0.00547 0.0
C214 C 0.80733 0.32384 0.02375 0.0
C215 C 0.77983 0.29853 0.03202 0.0
C216 C 0.78645 0.27958 0.0197 0.0
C217 C 0.81951 0.28572 0.00093 0.0
C218 C 0.97061 0.36018 0.32852 0.0
C219 C 0.96902 0.4089 0.09577 0.0
O220 O 1.06701 0.40937 0.30574 0.0
O221 O 1.07917 0.42597 0.12232 0.0
O222 O 0.99572 0.36602 0.95085 0.0
O223 O 1.02292 0.40544 0.93227 0.0
O224 O 0.97581 0.32659 0.03115 0.0
O225 O 1.02871 0.35774 0.14019 0.0
O226 O 0.90315 0.33726 0.92344 0.0
O227 O 0.89715 0.31168 0.06514 0.0
O228 O 0.97784 0.37642 0.25079 0.0
O229 O 0.95067 0.33731 0.27267 0.0
O230 O 0.99985 0.41656 0.15381 0.0
O231 O 0.94705 0.38501 0.04612 0.0
H232 H 0.14297 0.46039 0.11226 0.0
H233 H 0.20275 0.49265 0.19694 0.0
H234 H 0.18172 0.46726 0.57158 0.0
H235 H 0.1213 0.43442 0.48577 0.0
H236 H 0.86131 0.34965 0.00094 0.0
H237 H 0.8033 0.33894 0.0336 0.0
H238 H 0.7659 0.25985 0.02315 0.0
H239 H 0.82364 0.27064 -0.00836 0.0
Pr240 Pr 0.56582 0.98031 0.02097 0.0
Pr241 Pr 0.49752 0.93083 0.02713 0.0
C242 C 0.61627 1.026 0.95862 0.0
C243 C 0.61452 1.04241 0.86956 0.0
C244 C 0.64107 0.06825 0.87704 0.0
C245 C 0.63834 0.08383 0.79471 0.0
C246 C 0.60892 0.07376 0.70399 0.0
C247 C 0.58246 1.04777 0.69719 0.0
C248 C 0.58528 1.03227 0.77887 0.0
C249 C 0.55001 0.96727 0.26765 0.0
C250 C 0.4936 0.97895 0.00819 0.0
C251 C 0.44251 0.88698 0.08627 0.0
C252 C 0.42986 0.86029 0.06948 0.0
C253 C 0.39443 0.84155 0.0679 0.0
C254 C 0.38198 0.81605 0.04134 0.0
C255 C 0.40497 0.80916 0.01668 0.0
C256 C 0.4406 0.82806 0.02209 0.0
C257 C 0.45292 0.85344 0.04786 0.0
C258 C 0.51331 0.94414 0.77984 0.0
C259 C 0.56921 0.93012 0.02716 0.0
O260 O 0.60988 1.00468 0.90605 0.0
O261 O 0.60062 1.02314 0.06022 0.0
O262 O 0.5292 0.96508 0.17662 0.0
O263 O 0.58106 0.97753 0.23465 0.0
O264 O 0.48123 0.95846 0.06746 0.0
O265 O 0.52291 0.98834 0.95724 0.0
O266 O 0.47103 0.90155 0.16471 0.0
O267 O 0.44202 0.89702 -0.01852 0.0
O268 O 0.53403 0.94622 0.87068 0.0
O269 O 0.48226 0.93363 0.81289 0.0
O270 O 0.58686 0.95442 0.00843 0.0
O271 O 0.53609 0.91769 0.04604 0.0
H272 H 0.66377 0.07638 0.9468 0.0
H273 H 0.65932 0.10371 0.80166 0.0
H274 H 0.55916 1.03942 0.63037 0.0
H275 H 0.56439 1.01235 0.77198 0.0
H276 H 0.37638 0.84669 0.08414 0.0
H277 H 0.35441 0.80179 0.03766 0.0
H278 H 0.45881 0.82335 0.00074 0.0
H279 H 0.48031 0.86776 0.04741 0.0
Pr280 Pr 0.42139 0.59588 0.6385 0.0
Pr281 Pr 0.3937 0.62837 0.60639 0.0
C282 C 0.43158 0.56043 0.7106 0.0
C283 C 0.40781 0.53561 0.75608 0.0
C284 C 0.41063 0.51531 0.72554 0.0
C285 C 0.38627 0.49122 0.76014 0.0
C286 C 0.35874 0.4871 0.82598 0.0
C287 C 0.35638 0.50762 0.85815 0.0
C288 C 0.38059 0.53162 0.82307 0.0
C289 C 0.42044 0.60935 0.39145 0.0
C290 C 0.33752 0.56847 0.56189 0.0
C291 C 0.37325 0.65893 0.54888 0.0
C292 C 0.37298 0.67841 0.62455 0.0
C293 C 0.37617 0.67931 0.758 0.0
C294 C 0.37603 0.69787 0.83131 0.0
C295 C 0.37312 0.71598 0.77214 0.0
C296 C 0.36951 0.71478 0.63804 0.0
C297 C 0.36937 0.69603 0.56464 0.0
C298 C 0.39666 0.61609 0.85614 0.0
C299 C 0.4792 0.65773 0.67584 0.0
O300 O 0.43984 0.58017 0.78678 0.0
O301 O 0.42457 0.56229 0.59117 0.0
O302 O 0.39684 0.60244 0.46191 0.0
O303 O 0.44584 0.60871 0.44609 0.0
O304 O 0.34736 0.5895 0.51059 0.0
O305 O 0.36029 0.56741 0.63838 0.0
O306 O 0.40387 0.66422 0.52963 0.0
O307 O 0.35228 0.63599 0.58002 0.0
O308 O 0.41933 0.62252 0.78254 0.0
O309 O 0.37152 0.61713 0.80412 0.0
O310 O 0.47315 0.63552 0.70016 0.0
O311 O 0.45414 0.65956 0.6234 0.0
H312 H 0.43131 0.51801 0.67316 0.0
H313 H 0.38888 0.47578 0.73501 0.0
H314 H 0.33522 0.50497 0.90714 0.0
H315 H 0.37763 0.54696 0.84621 0.0
H316 H 0.37894 0.66572 0.80546 0.0
H317 H 0.37857 0.69821 0.93424 0.0
H318 H 0.36789 0.72878 0.58993 0.0
H319 H 0.36691 0.69548 0.46157 0.0
Pr320 Pr 0.69519 0.75221 0.83092 0.0
Pr321 Pr 0.69805 0.80062 0.87803 0.0
C322 C 0.70175 0.71454 0.75706 0.0
C323 C 0.7272 0.70776 0.76147 0.0
C324 C 0.72658 0.69198 0.85135 0.0
C325 C 0.74524 0.68108 0.83875 0.0
C326 C 0.76434 0.68549 0.73492 0.0
C327 C 0.76776 0.70336 0.65311 0.0
C328 C 0.7493 0.71434 0.66606 0.0
C329 C 0.69233 0.76446 0.08435 0.0
C330 C 0.77315 0.80491 0.89128 0.0
C331 C 0.69027 0.8378 0.96411 0.0
C332 C 0.66879 0.8486 0.96223 0.0
C333 C 0.67439 0.86699 0.8799 0.0
C334 C 0.65749 0.8795 0.88863 0.0
C335 C 0.63454 0.87419 -0.01947 0.0
C336 C 0.6284 0.85539 0.06111 0.0
C337 C 0.64535 0.84289 0.05246 0.0
C338 C 0.70051 0.78897 0.62386 0.0
C339 C 0.62071 0.7433 0.80241 0.0
O340 O 0.70651 0.73203 0.68405 0.0
O341 O 0.68963 0.71543 0.86335 0.0
O342 O 0.71252 0.78004 0.01225 0.0
O343 O 0.67309 0.74159 0.02713 0.0
O344 O 0.75828 0.81648 0.92965 0.0
O345 O 0.75434 0.78163 0.83556 0.0
O346 O 0.68027 0.81744 0.02177 0.0
O347 O 0.70612 0.83903 0.86496 0.0
O348 O 0.68088 0.77325 0.69674 0.0
O349 O 0.71851 0.81197 0.67974 0.0
O350 O 0.63818 0.73453 0.76138 0.0
O351 O 0.63684 0.76678 0.85987 0.0
H352 H 0.70997 0.68674 0.92658 0.0
H353 H 0.74254 0.66767 0.90433 0.0
H354 H 0.78197 0.70708 0.57134 0.0
H355 H 0.75051 0.72656 0.59562 0.0
H356 H 0.69251 0.87218 0.81016 0.0
H357 H 0.66262 0.8935 0.82331 0.0
H358 H 0.61134 0.85087 0.1342 0.0
H359 H 0.64077 0.82922 0.11915 0.0
C360 C 0.29373 0.43329 0.00498 0.0
C361 C 0.27951 0.41233 0.91309 0.0
H362 H 0.33009 0.47339 0.0497 0.0
C363 C 0.29175 0.41614 0.79307 0.0
H364 H 0.28474 0.43093 0.09814 0.0
C365 C 0.31766 0.44035 0.76546 0.0
C366 C 0.33182 0.46133 0.85703 0.0
H367 H 0.28167 0.40032 0.72089 0.0
H368 H 0.32631 0.44269 0.67171 0.0
C369 C 0.31952 0.45757 -0.023 0.0
C370 C 0.85979 0.81146 0.93299 0.0
C371 C 0.88358 0.83704 0.91672 0.0
H372 H 0.8064 0.78141 0.93709 0.0
C373 C 0.87097 0.85261 0.90382 0.0
H374 H 0.86846 0.79897 0.9436 0.0
C375 C 0.8355 0.84276 0.90299 0.0
C376 C 0.81148 0.8169 0.91224 0.0
H377 H 0.88861 0.87256 0.89273 0.0
H378 H 0.82675 0.85513 0.88929 0.0
C379 C 0.82419 0.80148 0.92912 0.0
C380 C 0.45734 1.0168 0.89627 0.0
C381 C 0.43147 1.00993 -0.0225 0.0
H382 H 0.49788 1.01287 0.84325 0.0
C383 C 0.42745 0.9937 0.07055 0.0
H384 H 0.4612 1.02933 0.82379 0.0
C385 C 0.44807 0.9842 0.08083 0.0
C386 C 0.47366 0.99074 -0.00083 0.0
H387 H 0.40754 0.98768 0.13349 0.0
H388 H 0.44364 0.97143 0.1527 0.0
C389 C 0.47846 1.00748 0.90777 0.0
C390 C 0.42008 0.18715 0.06548 0.0
C391 C 0.44529 0.18704 -0.00044 0.0
H392 H 0.36763 0.16547 0.11798 0.0
C393 C 0.43448 0.16402 0.92914 0.0
H394 H 0.42734 0.20407 0.12442 0.0
C395 C 0.40087 0.14191 0.92795 0.0
C396 C 0.37585 0.14142 -0.00297 0.0
H397 H 0.45292 0.16272 0.87901 0.0
H398 H 0.39482 0.12479 0.87441 0.0
C399 C 0.38577 0.16477 0.06308 0.0
C400 C 0.9975 0.29068 0.05258 0.0
C401 C 1.02025 0.31732 0.07472 0.0
H402 H 0.99199 0.25478 0.03203 0.0
C403 C 1.05618 0.32784 0.08991 0.0
H404 H 0.9697 0.28177 0.04067 0.0
C405 C 1.06895 0.31244 0.08249 0.0
C406 C 1.04634 0.28581 0.06229 0.0
H407 H 1.0747 0.3482 0.10658 0.0
H408 H 0.09678 0.32152 0.0945 0.0
C409 C 1.01033 0.27516 0.04799 0.0
C410 C 0.91091 0.68289 0.10991 0.0
C411 C 0.93469 0.69706 0.02293 0.0
H412 H 0.8772 0.64688 0.18158 0.0
C413 C 0.94296 0.68318 0.94226 0.0
H414 H 0.90296 0.69202 0.17325 0.0
C415 C 0.92815 0.65671 0.94822 0.0
C416 C 0.90386 0.64259 0.03384 0.0
H417 H 0.96115 0.69281 0.87391 0.0
H418 H 0.93513 0.64716 0.88299 0.0
C419 C 0.89581 0.65652 0.11444 0.0
C420 C 0.28892 0.52223 0.56771 0.0
C421 C 0.30123 0.54622 0.52642 0.0
H422 H 0.24598 0.48308 0.55751 0.0
C423 C 0.27847 0.54909 0.44618 0.0
H424 H 0.30576 0.51941 0.62987 0.0
C425 C 0.24473 0.52857 0.4053 0.0
C426 C 0.23252 0.50443 0.44308 0.0
H427 H 0.28671 0.56726 0.41326 0.0
H428 H 0.22812 0.53164 0.34334 0.0
C429 C 0.25473 0.50149 0.52668 0.0
C430 C 0.7482 0.64144 0.69042 0.0
C431 C 0.77332 0.66762 0.69303 0.0
H432 H 0.72869 0.60437 0.60284 0.0
C433 C 0.80256 0.67592 0.62858 0.0
H434 H 0.72529 0.63432 0.73859 0.0
C435 C 0.80419 0.65863 0.54926 0.0
C436 C 0.77665 0.63291 0.5341 0.0
H437 H 0.82261 0.69595 0.63069 0.0
H438 H 0.82534 0.66571 0.49132 0.0
C439 C 0.74984 0.62424 0.6113 0.0
C440 C 0.60984 0.12943 0.58453 0.0
C441 C 0.59405 0.12002 0.45804 0.0
H442 H 0.62665 0.12222 0.76156 0.0
C443 C 0.58467 0.09574 0.41186 0.0
H444 H 0.61778 0.14815 0.62284 0.0
C445 C 0.59032 0.08108 0.4906 0.0
C446 C 0.60526 0.09019 0.61802 0.0
H447 H 0.57205 0.0877 0.31562 0.0
H448 H 0.58269 0.06246 0.45165 0.0
C449 C 0.61534 0.11468 0.66364 0.0
C450 C 0.18732 0.19067 0.00447 0.0
C451 C 0.17195 0.16807 0.06406 0.0
H452 H 0.18593 0.22254 0.95734 0.0
C453 C 0.1418 0.16048 0.12203 0.0
H454 H 0.21063 0.19733 0.95961 0.0
C455 C 0.12751 0.17492 0.12022 0.0
C456 C 0.14298 0.19758 0.06142 0.0
H457 H 0.12884 0.14309 0.16761 0.0
H458 H 0.10437 0.16833 0.16589 0.0
C459 C 0.17321 0.20527 0.00389 0.0
C460 C 1.01203 1.04718 0.12577 0.0
C461 C 1.00411 1.03481 0.0021 0.0
H462 H 1.017 0.07748 0.2436 0.0
C463 C 0.99515 1.04442 0.90045 0.0
H464 H 1.01926 1.04045 0.20624 0.0
C465 C 0.99411 0.06575 0.92168 0.0
C466 C 1.00194 0.0781 0.04524 0.0
H467 H 0.98838 1.03522 0.80418 0.0
H468 H 0.98751 0.07272 0.84064 0.0
C469 C 1.01102 0.06858 0.14703 0.0
C470 C 0.11672 0.9592 0.06172 0.0
C471 C 0.10995 0.9372 -0.00878 0.0
H472 H 0.15079 0.99944 0.11413 0.0
C473 C 0.13655 0.94058 0.92088 0.0
H474 H 0.09688 0.9579 0.11448 0.0
C475 C 0.16811 0.965 0.9201 0.0
C476 C 0.17405 0.98712 -0.01274 0.0
H477 H 0.1323 0.92467 0.86108 0.0
H478 H 0.1874 0.96666 0.86281 0.0
C479 C 0.14777 0.98341 0.05989 0.0
C480 C 0.97371 0.47099 0.11359 0.0
C481 C 0.94128 0.4636 0.04999 0.0
H482 H 1.00782 0.46001 0.17781 0.0
C483 C 0.91783 0.43776 0.00424 0.0
H484 H 0.99285 0.49063 0.14893 0.0
C485 C 0.92659 0.4201 0.02036 0.0
C486 C 0.95913 0.42758 0.08284 0.0
H487 H 0.89241 0.43101 0.9565 0.0
H488 H 0.90777 0.40051 -0.01699 0.0
C489 C 0.98245 0.45333 0.12967 0.0
C490 C 0.76438 0.4536 -0.0209 0.0
C491 C 0.75652 0.47195 -0.00871 0.0
H492 H 0.7457 0.41401 0.97149 0.0
C493 C 0.72154 0.46279 0.00257 0.0
H494 H 0.79077 0.45955 0.97035 0.0
C495 C 0.69572 0.43676 0.00319 0.0
C496 C 0.70331 0.41828 -0.00729 0.0
H497 H 0.71376 0.47585 0.01142 0.0
H498 H 0.66942 0.43116 0.01048 0.0
C499 C 0.73826 0.42727 -0.02063 0.0
C500 C 0.69077 0.26461 0.14856 0.0
C501 C 0.67461 0.27458 0.08085 0.0
H502 H 0.73627 0.26455 0.18824 0.0
C503 C 0.69429 0.294 0.00351 0.0
H504 H 0.67668 0.24982 0.21008 0.0
C505 C 0.72879 0.30242 -0.00968 0.0
C506 C 0.74433 0.29156 0.05388 0.0
H507 H 0.68272 0.30211 0.9498 0.0
H508 H 0.74281 0.31675 0.92655 0.0
C509 C 0.72502 0.27296 0.13536 0.0
C510 C 0.63607 0.91461 -0.02266 0.0
C511 C 0.61782 0.88858 -0.00585 0.0
H512 H 0.63557 0.948 0.97544 0.0
C513 C 0.58358 0.87657 0.02497 0.0
H514 H 0.66262 0.92477 0.95573 0.0
C515 C 0.56808 0.89004 0.03734 0.0
C516 C 0.58628 0.91601 0.01963 0.0
H517 H 0.56839 0.85656 0.03747 0.0
H518 H 0.54161 0.87995 0.05982 0.0
C519 C 0.62059 0.92808 -0.01008 0.0
C520 C 0.35678 0.74667 0.81329 0.0
C521 C 0.37682 0.73731 0.84972 0.0
H522 H 0.34997 0.77695 0.83892 0.0
C523 C 0.40277 0.7499 0.95435 0.0
H524 H 0.33622 0.73706 0.73436 0.0
C525 C 0.4102 0.77242 0.01543 0.0
C526 C 0.39199 0.78281 0.97244 0.0
H527 H 0.41877 0.74322 -0.01564 0.0
H528 H 0.43139 0.78239 0.0921 0.0
C529 C 0.36432 0.76928 0.87421 0.0
C530 C 0.57131 0.70104 0.83926 0.0
C531 C 0.58275 0.72441 0.79234 0.0
H532 H 0.53044 0.66203 0.83888 0.0
C533 C 0.55915 0.72638 0.7121 0.0
H534 H 0.58912 0.69888 0.89974 0.0
C535 C 0.52507 0.70491 0.67571 0.0
C536 C 0.51438 0.68114 0.71748 0.0
H537 H 0.56756 0.74397 0.67178 0.0
H538 H 0.50761 0.70671 0.61107 0.0
C539 C 0.53775 0.67976 0.80245 0.0
C540 C 1.06142 0.23337 0.58325 0.0
C541 C 1.08578 0.2361 0.68072 0.0
H542 H 1.05063 0.23585 0.38572 0.0
C543 C 0.1189 0.24371 0.65141 0.0
H544 H 1.03569 0.22752 0.60298 0.0
C545 C 0.12746 0.24849 0.52694 0.0
C546 C 0.10308 0.24576 0.4295 0.0
H547 H 0.1382 0.24596 0.72464 0.0
H548 H 0.15319 0.25435 0.5071 0.0
C549 C 1.06996 0.23812 0.45886 0.0
C550 C 1.01994 0.87174 0.49201 0.0
C551 C 0.99951 0.87393 0.57565 0.0
H552 H 1.03299 0.87342 0.30059 0.0
C553 C 0.97621 0.87982 0.528 0.0
H554 H 1.03809 0.86716 0.52606 0.0
C555 C 0.97326 0.88333 0.39916 0.0
C556 C 0.99358 0.88106 0.3154 0.0
H557 H 0.96012 0.88162 0.59013 0.0
H558 H 0.95505 0.88786 0.3652 0.0
C559 C 1.01696 0.87523 0.36296 0.0
C560 C 0.24042 1.05911 0.51929 0.0
C561 C 0.26612 0.06556 0.62035 0.0
H562 H 0.22716 1.05432 0.31694 0.0
C563 C 0.2991 0.07245 0.59291 0.0
H564 H 0.21484 1.05385 0.5377 0.0
C565 C 0.30623 0.07284 0.4665 0.0
C566 C 0.28047 0.0663 0.36546 0.0
H567 H 0.31946 0.07764 0.66913 0.0
H568 H 0.33178 0.07805 0.44795 0.0
C569 C 0.24754 1.0595 0.39303 0.0
C570 C 0.87148 0.5717 0.49016 0.0
C571 C 0.84493 0.55931 0.38773 0.0
H572 H 0.88436 0.57958 0.69284 0.0
C573 C 0.81015 0.54535 0.41229 0.0
H574 H 0.89849 0.58257 0.4737 0.0
C575 C 0.80204 0.54359 0.53755 0.0
C576 C 0.82859 0.55579 0.64005 0.0
H577 H 0.78918 0.53564 0.33476 0.0
H578 H 0.77503 0.5327 0.55406 0.0
C579 C 0.86337 0.56991 0.61537 0.0
C580 C 0.58008 0.23337 0.46815 0.0
C581 C 0.56122 0.24314 0.4226 0.0
H582 H 0.59522 0.22053 0.62762 0.0
C583 C 0.54252 0.24732 0.50658 0.0
H584 H 0.59461 0.22983 0.40561 0.0
C585 C 0.54283 0.24198 0.6337 0.0
C586 C 0.56181 0.2323 0.67939 0.0
H587 H 0.52769 0.2548 0.4742 0.0
H588 H 0.52827 0.24547 0.69622 0.0
C589 C 0.5804 0.22803 0.59528 0.0
C590 C 0.96718 0.34638 0.54712 0.0
C591 C 0.97908 0.3661 0.4681 0.0
H592 H 0.96529 0.33616 0.73822 0.0
C593 C 0.99878 0.39131 0.52375 0.0
H594 H 0.95193 0.32675 0.50667 0.0
C595 C 1.0064 0.39668 0.65637 0.0
C596 C 0.99451 0.37693 0.7353 0.0
H597 H 1.00828 0.40687 0.46491 0.0
H598 H 1.02168 0.4163 0.69701 0.0
C599 C 0.97479 0.35174 0.67956 0.0
C600 C 0.49767 0.9459 0.54954 0.0
C601 C 0.52264 0.95021 0.64891 0.0
H602 H 0.48673 0.94785 0.35119 0.0
C603 C 0.55678 0.96031 0.62204 0.0
H604 H 0.47119 0.93818 0.56723 0.0
C605 C 0.56572 0.96586 0.49838 0.0
C606 C 0.54073 0.96146 0.39888 0.0
H607 H 0.57664 0.96386 0.69662 0.0
H608 H 0.5922 0.97357 0.48072 0.0
C609 C 0.5066 0.95144 0.42584 0.0
C610 C 0.43305 0.61629 0.04253 0.0
C611 C 0.40262 0.61413 -0.00729 0.0
H612 H 0.46279 0.61665 0.20868 0.0
C613 C 0.37859 0.61082 0.075 0.0
H614 H 0.45211 0.61897 -0.01903 0.0
C615 C 0.38484 0.60968 0.20493 0.0
C616 C 0.41518 0.61173 0.2549 0.0
H617 H 0.35503 0.60921 0.03918 0.0
H618 H 0.36576 0.60708 0.26617 0.0
C619 C 0.43929 0.6151 0.17269 0.0
C620 C 0.71913 0.80174 0.40894 0.0
C621 C 0.69853 0.78266 0.48604 0.0
H622 H 0.73317 0.81093 0.22085 0.0
C623 C 0.6757 0.75757 0.42998 0.0
H624 H 0.73693 0.82124 0.44966 0.0
C625 C 0.67349 0.75169 0.29906 0.0
C626 C 0.69413 0.77077 0.22202 0.0
H627 H 0.65951 0.74249 0.4872 0.0
H628 H 0.65571 0.73218 0.25833 0.0
C629 C 0.71695 0.79585 0.27807 0.0
loop_
_geom_bond_atom_site_label_1
_geom_bond_atom_site_label_2
_geom_bond_distance
_geom_bond_site_symmetry_2
_ccdc_geom_bond_type
Pr0 C2 2.880 . S
Pr0 O20 2.562 . S
Pr0 O21 2.490 . S
Pr0 O22 2.695 . S
Pr0 O23 2.512 . S
Pr0 O25 2.437 . S
Pr0 O28 2.436 1_554 S
Pr0 O30 2.438 . S
Pr1 C11 2.880 . S
Pr1 O22 2.436 1_655 S
Pr1 O24 2.438 . S
Pr1 O26 2.562 . S
Pr1 O27 2.490 1_554 S
Pr1 O28 2.695 1_654 S
Pr1 O29 2.512 1_554 S
Pr1 O31 2.437 1_655 S
C2 Pr0 2.880 . S
C2 C3 1.491 . S
C2 O20 1.254 . S
C2 O21 1.225 . S
C3 C2 1.491 . S
C3 C4 1.392 . S
C3 C8 1.356 . S
C4 C3 1.392 . S
C4 C5 1.368 . S
C4 H32 0.929 . S
C5 C4 1.368 . S
C5 C6 1.386 . S
C5 H33 0.929 . S
C6 C5 1.386 . S
C6 C7 1.373 . S
C7 C6 1.373 . S
C7 C8 1.409 . S
C7 H34 0.931 1_554 S
C8 C3 1.356 . S
C8 C7 1.409 . S
C8 H35 0.930 1_554 S
C9 O22 1.270 . S
C9 O23 1.248 . S
C10 O24 1.267 1_455 S
C10 O25 1.278 . S
C11 Pr1 2.880 . S
C11 C12 1.491 . S
C11 O26 1.254 . S
C11 O27 1.225 1_554 S
C12 C11 1.491 . S
C12 C13 1.392 1_554 S
C12 C17 1.356 . S
C13 C12 1.392 1_556 S
C13 C14 1.368 . S
C13 H36 0.929 . S
C14 C13 1.368 . S
C14 C15 1.386 1_556 S
C14 H37 0.929 . S
C15 C14 1.386 1_554 S
C15 C16 1.373 . S
C16 C15 1.373 . S
C16 C17 1.409 . S
C16 H38 0.931 . S
C17 C12 1.356 . S
C17 C16 1.409 . S
C17 H39 0.930 . S
C18 O28 1.270 . S
C18 O29 1.248 1_455 S
C19 O30 1.267 . S
C19 O31 1.278 . S
O20 Pr0 2.562 . S
O20 C2 1.254 . S
O21 Pr0 2.490 . S
O21 C2 1.225 . S
O22 Pr0 2.695 . S
O22 Pr1 2.436 1_455 S
O22 C9 1.270 . S
O23 Pr0 2.512 . S
O23 C9 1.248 . S
O24 Pr1 2.438 . S
O24 C10 1.267 1_655 S
O25 Pr0 2.437 . S
O25 C10 1.278 . S
O26 Pr1 2.562 . S
O26 C11 1.254 . S
O27 Pr1 2.490 1_556 S
O27 C11 1.225 1_556 S
O28 Pr0 2.436 1_556 S
O28 Pr1 2.695 1_456 S
O28 C18 1.270 . S
O29 Pr1 2.512 1_556 S
O29 C18 1.248 1_655 S
O30 Pr0 2.438 . S
O30 C19 1.267 . S
O31 Pr1 2.437 1_455 S
O31 C19 1.278 . S
H32 C4 0.929 . S
H33 C5 0.929 . S
H34 C7 0.931 1_556 S
H35 C8 0.930 1_556 S
H36 C13 0.929 . S
H37 C14 0.929 . S
H38 C16 0.931 . S
H39 C17 0.930 . S
Pr40 C42 2.880 . S
Pr40 O60 2.562 . S
Pr40 O61 2.490 1_554 S
Pr40 O62 2.695 1_554 S
Pr40 O63 2.512 1_554 S
Pr40 O65 2.437 1_554 S
Pr40 O68 2.436 . S
Pr40 O70 2.438 . S
Pr41 C51 2.880 . S
Pr41 O62 2.436 1_554 S
Pr41 O64 2.438 . S
Pr41 O66 2.562 1_554 S
Pr41 O67 2.490 . S
Pr41 O68 2.695 . S
Pr41 O69 2.512 . S
Pr41 O71 2.437 . S
C42 Pr40 2.880 . S
C42 C43 1.491 . S
C42 O60 1.254 . S
C42 O61 1.225 1_554 S
C43 C42 1.491 . S
C43 C44 1.392 1_554 S
C43 C48 1.356 . S
C44 C43 1.392 1_556 S
C44 C45 1.368 . S
C44 H72 0.929 . S
C45 C44 1.368 . S
C45 C46 1.386 1_556 S
C45 H73 0.929 . S
C46 C45 1.386 1_554 S
C46 C47 1.373 . S
C47 C46 1.373 . S
C47 C48 1.409 . S
C47 H74 0.931 . S
C48 C43 1.356 . S
C48 C47 1.409 . S
C48 H75 0.930 . S
C49 O62 1.270 . S
C49 O63 1.248 . S
C50 O64 1.267 1_556 S
C50 O65 1.278 . S
C51 Pr41 2.880 . S
C51 C52 1.491 . S
C51 O66 1.254 1_554 S
C51 O67 1.225 . S
C52 C51 1.491 . S
C52 C53 1.392 . S
C52 C57 1.356 1_554 S
C53 C52 1.392 . S
C53 C54 1.368 . S
C53 H76 0.929 . S
C54 C53 1.368 . S
C54 C55 1.386 . S
C54 H77 0.929 . S
C55 C54 1.386 . S
C55 C56 1.373 1_554 S
C56 C55 1.373 1_556 S
C56 C57 1.409 . S
C56 H78 0.931 . S
C57 C52 1.356 1_556 S
C57 C56 1.409 . S
C57 H79 0.930 . S
C58 O68 1.270 . S
C58 O69 1.248 . S
C59 O70 1.267 . S
C59 O71 1.278 . S
O60 Pr40 2.562 . S
O60 C42 1.254 . S
O61 Pr40 2.490 1_556 S
O61 C42 1.225 1_556 S
O62 Pr40 2.695 1_556 S
O62 Pr41 2.436 1_556 S
O62 C49 1.270 . S
O63 Pr40 2.512 1_556 S
O63 C49 1.248 . S
O64 Pr41 2.438 . S
O64 C50 1.267 1_554 S
O65 Pr40 2.437 1_556 S
O65 C50 1.278 . S
O66 Pr41 2.562 1_556 S
O66 C51 1.254 1_556 S
O67 Pr41 2.490 . S
O67 C51 1.225 . S
O68 Pr40 2.436 . S
O68 Pr41 2.695 . S
O68 C58 1.270 . S
O69 Pr41 2.512 . S
O69 C58 1.248 . S
O70 Pr40 2.438 . S
O70 C59 1.267 . S
O71 Pr41 2.437 . S
O71 C59 1.278 . S
H72 C44 0.929 . S
H73 C45 0.929 . S
H74 C47 0.931 . S
H75 C48 0.930 . S
H76 C53 0.929 . S
H77 C54 0.929 . S
H78 C56 0.931 . S
H79 C57 0.930 . S
Pr80 C82 2.880 1_554 S
Pr80 O100 2.562 1_554 S
Pr80 O101 2.490 . S
Pr80 O102 2.695 1_565 S
Pr80 O103 2.512 . S
Pr80 O105 2.437 1_565 S
Pr80 O108 2.436 1_564 S
Pr80 O110 2.438 . S
Pr81 C91 2.880 . S
Pr81 O102 2.436 . S
Pr81 O104 2.438 . S
Pr81 O106 2.562 . S
Pr81 O107 2.490 1_554 S
Pr81 O108 2.695 1_554 S
Pr81 O109 2.512 1_554 S
Pr81 O111 2.437 1_554 S
C82 Pr80 2.880 1_556 S
C82 C83 1.491 . S
C82 O100 1.254 . S
C82 O101 1.225 1_556 S
C83 C82 1.491 . S
C83 C84 1.392 1_556 S
C83 C88 1.356 . S
C84 C83 1.392 1_554 S
C84 C85 1.368 . S
C84 H112 0.929 . S
C85 C84 1.368 . S
C85 C86 1.386 1_554 S
C85 H113 0.929 . S
C86 C85 1.386 1_556 S
C86 C87 1.373 . S
C87 C86 1.373 . S
C87 C88 1.409 . S
C87 H114 0.931 . S
C88 C83 1.356 . S
C88 C87 1.409 . S
C88 H115 0.930 . S
C89 O102 1.270 . S
C89 O103 1.248 1_545 S
C90 O104 1.267 . S
C90 O105 1.278 . S
C91 Pr81 2.880 . S
C91 C92 1.491 . S
C91 O106 1.254 . S
C91 O107 1.225 1_554 S
C92 C91 1.491 . S
C92 C93 1.392 1_554 S
C92 C97 1.356 . S
C93 C92 1.392 1_556 S
C93 C94 1.368 . S
C93 H116 0.929 . S
C94 C93 1.368 . S
C94 C95 1.386 1_556 S
C94 H117 0.929 . S
C95 C94 1.386 1_554 S
C95 C96 1.373 . S
C96 C95 1.373 . S
C96 C97 1.409 . S
C96 H118 0.931 . S
C97 C92 1.356 . S
C97 C96 1.409 . S
C97 H119 0.930 . S
C98 O108 1.270 . S
C98 O109 1.248 . S
C99 O110 1.267 1_556 S
C99 O111 1.278 1_565 S
O100 Pr80 2.562 1_556 S
O100 C82 1.254 . S
O101 Pr80 2.490 . S
O101 C82 1.225 1_554 S
O102 Pr80 2.695 1_545 S
O102 Pr81 2.436 . S
O102 C89 1.270 . S
O103 Pr80 2.512 . S
O103 C89 1.248 1_565 S
O104 Pr81 2.438 . S
O104 C90 1.267 . S
O105 Pr80 2.437 1_545 S
O105 C90 1.278 . S
O106 Pr81 2.562 . S
O106 C91 1.254 . S
O107 Pr81 2.490 1_556 S
O107 C91 1.225 1_556 S
O108 Pr80 2.436 1_546 S
O108 Pr81 2.695 1_556 S
O108 C98 1.270 . S
O109 Pr81 2.512 1_556 S
O109 C98 1.248 . S
O110 Pr80 2.438 . S
O110 C99 1.267 1_554 S
O111 Pr81 2.437 1_556 S
O111 C99 1.278 1_545 S
H112 C84 0.929 . S
H113 C85 0.929 . S
H114 C87 0.931 . S
H115 C88 0.930 . S
H116 C93 0.929 . S
H117 C94 0.929 . S
H118 C96 0.931 . S
H119 C97 0.930 . S
Pr120 C122 2.880 . S
Pr120 O140 2.562 . S
Pr120 O141 2.490 . S
Pr120 O142 2.695 1_554 S
Pr120 O143 2.512 1_554 S
Pr120 O145 2.437 . S
Pr120 O148 2.436 . S
Pr120 O150 2.438 . S
Pr121 C131 2.880 . S
Pr121 O142 2.436 1_554 S
Pr121 O144 2.438 . S
Pr121 O146 2.562 1_554 S
Pr121 O147 2.490 . S
Pr121 O148 2.695 . S
Pr121 O149 2.512 . S
Pr121 O151 2.437 . S
C122 Pr120 2.880 . S
C122 C123 1.491 . S
C122 O140 1.254 . S
C122 O141 1.225 . S
C123 C122 1.491 . S
C123 C124 1.392 . S
C123 C128 1.356 . S
C124 C123 1.392 . S
C124 C125 1.368 . S
C124 H152 0.929 1_554 S
C125 C124 1.368 . S
C125 C126 1.386 . S
C125 H153 0.929 . S
C126 C125 1.386 . S
C126 C127 1.373 . S
C127 C126 1.373 . S
C127 C128 1.409 . S
C127 H154 0.931 . S
C128 C123 1.356 . S
C128 C127 1.409 . S
C128 H155 0.930 . S
C129 O142 1.270 . S
C129 O143 1.248 . S
C130 O144 1.267 . S
C130 O145 1.278 . S
C131 Pr121 2.880 . S
C131 C132 1.491 . S
C131 O146 1.254 1_554 S
C131 O147 1.225 . S
C132 C131 1.491 . S
C132 C133 1.392 . S
C132 C137 1.356 1_554 S
C133 C132 1.392 . S
C133 C134 1.368 . S
C133 H156 0.929 . S
C134 C133 1.368 . S
C134 C135 1.386 . S
C134 H157 0.929 . S
C135 C134 1.386 . S
C135 C136 1.373 1_554 S
C136 C135 1.373 1_556 S
C136 C137 1.409 . S
C136 H158 0.931 . S
C137 C132 1.356 1_556 S
C137 C136 1.409 . S
C137 H159 0.930 . S
C138 O148 1.270 . S
C138 O149 1.248 . S
C139 O150 1.267 . S
C139 O151 1.278 . S
O140 Pr120 2.562 . S
O140 C122 1.254 . S
O141 Pr120 2.490 . S
O141 C122 1.225 . S
O142 Pr120 2.695 1_556 S
O142 Pr121 2.436 1_556 S
O142 C129 1.270 . S
O143 Pr120 2.512 1_556 S
O143 C129 1.248 . S
O144 Pr121 2.438 . S
O144 C130 1.267 . S
O145 Pr120 2.437 . S
O145 C130 1.278 . S
O146 Pr121 2.562 1_556 S
O146 C131 1.254 1_556 S
O147 Pr121 2.490 . S
O147 C131 1.225 . S
O148 Pr120 2.436 . S
O148 Pr121 2.695 . S
O148 C138 1.270 . S
O149 Pr121 2.512 . S
O149 C138 1.248 . S
O150 Pr120 2.438 . S
O150 C139 1.267 . S
O151 Pr121 2.437 . S
O151 C139 1.278 . S
H152 C124 0.929 1_556 S
H153 C125 0.929 . S
H154 C127 0.931 . S
H155 C128 0.930 . S
H156 C133 0.929 . S
H157 C134 0.929 . S
H158 C136 0.931 . S
H159 C137 0.930 . S
Pr160 C162 2.880 . S
Pr160 O180 2.562 . S
Pr160 O181 2.490 . S
Pr160 O182 2.695 1_554 S
Pr160 O183 2.512 1_554 S
Pr160 O185 2.437 . S
Pr160 O188 2.436 . S
Pr160 O190 2.438 . S
Pr161 C171 2.880 . S
Pr161 O182 2.436 1_554 S
Pr161 O184 2.438 . S
Pr161 O186 2.562 1_554 S
Pr161 O187 2.490 . S
Pr161 O188 2.695 . S
Pr161 O189 2.512 . S
Pr161 O191 2.437 . S
C162 Pr160 2.880 . S
C162 C163 1.491 . S
C162 O180 1.254 . S
C162 O181 1.225 . S
C163 C162 1.491 . S
C163 C164 1.392 . S
C163 C168 1.356 . S
C164 C163 1.392 . S
C164 C165 1.368 . S
C164 H192 0.929 1_554 S
C165 C164 1.368 . S
C165 C166 1.386 . S
C165 H193 0.929 . S
C166 C165 1.386 . S
C166 C167 1.373 . S
C167 C166 1.373 . S
C167 C168 1.409 . S
C167 H194 0.931 . S
C168 C163 1.356 . S
C168 C167 1.409 . S
C168 H195 0.930 . S
C169 O182 1.270 . S
C169 O183 1.248 . S
C170 O184 1.267 . S
C170 O185 1.278 . S
C171 Pr161 2.880 . S
C171 C172 1.491 . S
C171 O186 1.254 1_554 S
C171 O187 1.225 . S
C172 C171 1.491 . S
C172 C173 1.392 . S
C172 C177 1.356 1_554 S
C173 C172 1.392 . S
C173 C174 1.368 . S
C173 H196 0.929 . S
C174 C173 1.368 . S
C174 C175 1.386 . S
C174 H197 0.929 . S
C175 C174 1.386 . S
C175 C176 1.373 1_554 S
C176 C175 1.373 1_556 S
C176 C177 1.409 . S
C176 H198 0.931 . S
C177 C172 1.356 1_556 S
C177 C176 1.409 . S
C177 H199 0.930 . S
C178 O188 1.270 . S
C178 O189 1.248 . S
C179 O190 1.267 . S
C179 O191 1.278 . S
O180 Pr160 2.562 . S
O180 C162 1.254 . S
O181 Pr160 2.490 . S
O181 C162 1.225 . S
O182 Pr160 2.695 1_556 S
O182 Pr161 2.436 1_556 S
O182 C169 1.270 . S
O183 Pr160 2.512 1_556 S
O183 C169 1.248 . S
O184 Pr161 2.438 . S
O184 C170 1.267 . S
O185 Pr160 2.437 . S
O185 C170 1.278 . S
O186 Pr161 2.562 1_556 S
O186 C171 1.254 1_556 S
O187 Pr161 2.490 . S
O187 C171 1.225 . S
O188 Pr160 2.436 . S
O188 Pr161 2.695 . S
O188 C178 1.270 . S
O189 Pr161 2.512 . S
O189 C178 1.248 . S
O190 Pr160 2.438 . S
O190 C179 1.267 . S
O191 Pr161 2.437 . S
O191 C179 1.278 . S
H192 C164 0.929 1_556 S
H193 C165 0.929 . S
H194 C167 0.931 . S
H195 C168 0.930 . S
H196 C173 0.929 . S
H197 C174 0.929 . S
H198 C176 0.931 . S
H199 C177 0.930 . S
Pr200 C202 2.880 1_655 S
Pr200 O220 2.562 1_655 S
Pr200 O221 2.490 1_655 S
Pr200 O222 2.695 . S
Pr200 O223 2.512 1_554 S
Pr200 O225 2.437 . S
Pr200 O228 2.436 . S
Pr200 O230 2.438 . S
Pr201 C211 2.880 . S
Pr201 O222 2.436 . S
Pr201 O224 2.438 . S
Pr201 O226 2.562 . S
Pr201 O227 2.490 . S
Pr201 O228 2.695 . S
Pr201 O229 2.512 . S
Pr201 O231 2.437 . S
C202 Pr200 2.880 1_455 S
C202 C203 1.491 . S
C202 O220 1.254 . S
C202 O221 1.225 . S
C203 C202 1.491 . S
C203 C204 1.392 . S
C203 C208 1.356 . S
C204 C203 1.392 . S
C204 C205 1.368 . S
C204 H232 0.929 . S
C205 C204 1.368 . S
C205 C206 1.386 . S
C205 H233 0.929 . S
C206 C205 1.386 . S
C206 C207 1.373 . S
C207 C206 1.373 . S
C207 C208 1.409 . S
C207 H234 0.931 . S
C208 C203 1.356 . S
C208 C207 1.409 . S
C208 H235 0.930 . S
C209 O222 1.270 1_556 S
C209 O223 1.248 . S
C210 O224 1.267 . S
C210 O225 1.278 . S
C211 Pr201 2.880 . S
C211 C212 1.491 . S
C211 O226 1.254 . S
C211 O227 1.225 . S
C212 C211 1.491 . S
C212 C213 1.392 . S
C212 C217 1.356 1_554 S
C213 C212 1.392 . S
C213 C214 1.368 . S
C213 H236 0.929 . S
C214 C213 1.368 . S
C214 C215 1.386 1_554 S
C214 H237 0.929 . S
C215 C214 1.386 1_556 S
C215 C216 1.373 . S
C216 C215 1.373 . S
C216 C217 1.409 . S
C216 H238 0.931 . S
C217 C212 1.356 1_556 S
C217 C216 1.409 . S
C217 H239 0.930 . S
C218 O228 1.270 . S
C218 O229 1.248 . S
C219 O230 1.267 . S
C219 O231 1.278 . S
O220 Pr200 2.562 1_455 S
O220 C202 1.254 . S
O221 Pr200 2.490 1_455 S
O221 C202 1.225 . S
O222 Pr200 2.695 . S
O222 Pr201 2.436 . S
O222 C209 1.270 1_554 S
O223 Pr200 2.512 1_556 S
O223 C209 1.248 . S
O224 Pr201 2.438 . S
O224 C210 1.267 . S
O225 Pr200 2.437 . S
O225 C210 1.278 . S
O226 Pr201 2.562 . S
O226 C211 1.254 . S
O227 Pr201 2.490 . S
O227 C211 1.225 . S
O228 Pr200 2.436 . S
O228 Pr201 2.695 . S
O228 C218 1.270 . S
O229 Pr201 2.512 . S
O229 C218 1.248 . S
O230 Pr200 2.438 . S
O230 C219 1.267 . S
O231 Pr201 2.437 . S
O231 C219 1.278 . S
H232 C204 0.929 . S
H233 C205 0.929 . S
H234 C207 0.931 . S
H235 C208 0.930 . S
H236 C213 0.929 . S
H237 C214 0.929 . S
H238 C216 0.931 . S
H239 C217 0.930 . S
Pr240 C242 2.880 . S
Pr240 O260 2.562 . S
Pr240 O261 2.490 . S
Pr240 O262 2.695 . S
Pr240 O263 2.512 1_556 S
Pr240 O265 2.437 . S
Pr240 O268 2.436 . S
Pr240 O270 2.438 . S
Pr241 C251 2.880 . S
Pr241 O262 2.436 . S
Pr241 O264 2.438 . S
Pr241 O266 2.562 . S
Pr241 O267 2.490 . S
Pr241 O268 2.695 . S
Pr241 O269 2.512 . S
Pr241 O271 2.437 . S
C242 Pr240 2.880 . S
C242 C243 1.491 . S
C242 O260 1.254 . S
C242 O261 1.225 . S
C243 C242 1.491 . S
C243 C244 1.392 . S
C243 C248 1.356 . S
C244 C243 1.392 . S
C244 C245 1.368 1_565 S
C244 H272 0.929 1_556 S
C245 C244 1.368 1_545 S
C245 C246 1.386 . S
C245 H273 0.929 . S
C246 C245 1.386 . S
C246 C247 1.373 . S
C247 C246 1.373 . S
C247 C248 1.409 1_545 S
C247 H274 0.931 . S
C248 C243 1.356 . S
C248 C247 1.409 1_565 S
C248 H275 0.930 . S
C249 O262 1.270 1_554 S
C249 O263 1.248 . S
C250 O264 1.267 . S
C250 O265 1.278 . S
C251 Pr241 2.880 . S
C251 C252 1.491 . S
C251 O266 1.254 . S
C251 O267 1.225 . S
C252 C251 1.491 . S
C252 C253 1.392 . S
C252 C257 1.356 . S
C253 C252 1.392 . S
C253 C254 1.368 . S
C253 H276 0.929 . S
C254 C253 1.368 . S
C254 C255 1.386 . S
C254 H277 0.929 . S
C255 C254 1.386 . S
C255 C256 1.373 . S
C256 C255 1.373 . S
C256 C257 1.409 . S
C256 H278 0.931 1_556 S
C257 C252 1.356 . S
C257 C256 1.409 . S
C257 H279 0.930 1_556 S
C258 O268 1.270 . S
C258 O269 1.248 . S
C259 O270 1.267 . S
C259 O271 1.278 . S
O260 Pr240 2.562 . S
O260 C242 1.254 . S
O261 Pr240 2.490 . S
O261 C242 1.225 . S
O262 Pr240 2.695 . S
O262 Pr241 2.436 . S
O262 C249 1.270 1_556 S
O263 Pr240 2.512 1_554 S
O263 C249 1.248 . S
O264 Pr241 2.438 . S
O264 C250 1.267 . S
O265 Pr240 2.437 . S
O265 C250 1.278 . S
O266 Pr241 2.562 . S
O266 C251 1.254 . S
O267 Pr241 2.490 . S
O267 C251 1.225 . S
O268 Pr240 2.436 . S
O268 Pr241 2.695 . S
O268 C258 1.270 . S
O269 Pr241 2.512 . S
O269 C258 1.248 . S
O270 Pr240 2.438 . S
O270 C259 1.267 . S
O271 Pr241 2.437 . S
O271 C259 1.278 . S
H272 C244 0.929 1_554 S
H273 C245 0.929 . S
H274 C247 0.931 . S
H275 C248 0.930 . S
H276 C253 0.929 . S
H277 C254 0.929 . S
H278 C256 0.931 1_554 S
H279 C257 0.930 1_554 S
Pr280 C282 2.880 . S
Pr280 O300 2.562 . S
Pr280 O301 2.490 . S
Pr280 O302 2.695 . S
Pr280 O303 2.512 . S
Pr280 O305 2.437 . S
Pr280 O308 2.436 . S
Pr280 O310 2.438 . S
Pr281 C291 2.880 . S
Pr281 O302 2.436 . S
Pr281 O304 2.438 . S
Pr281 O306 2.562 . S
Pr281 O307 2.490 . S
Pr281 O308 2.695 . S
Pr281 O309 2.512 1_556 S
Pr281 O311 2.437 . S
C282 Pr280 2.880 . S
C282 C283 1.491 . S
C282 O300 1.254 . S
C282 O301 1.225 . S
C283 C282 1.491 . S
C283 C284 1.392 . S
C283 C288 1.356 . S
C284 C283 1.392 . S
C284 C285 1.368 . S
C284 H312 0.929 . S
C285 C284 1.368 . S
C285 C286 1.386 . S
C285 H313 0.929 . S
C286 C285 1.386 . S
C286 C287 1.373 . S
C287 C286 1.373 . S
C287 C288 1.409 . S
C287 H314 0.931 1_556 S
C288 C283 1.356 . S
C288 C287 1.409 . S
C288 H315 0.930 1_556 S
C289 O302 1.270 . S
C289 O303 1.248 . S
C290 O304 1.267 . S
C290 O305 1.278 . S
C291 Pr281 2.880 . S
C291 C292 1.491 . S
C291 O306 1.254 . S
C291 O307 1.225 . S
C292 C291 1.491 . S
C292 C293 1.392 . S
C292 C297 1.356 . S
C293 C292 1.392 . S
C293 C294 1.368 . S
C293 H316 0.929 1_556 S
C294 C293 1.368 . S
C294 C295 1.386 . S
C294 H317 0.929 1_556 S
C295 C294 1.386 . S
C295 C296 1.373 . S
C296 C295 1.373 . S
C296 C297 1.409 . S
C296 H318 0.931 . S
C297 C292 1.356 . S
C297 C296 1.409 . S
C297 H319 0.930 . S
C298 O308 1.270 1_554 S
C298 O309 1.248 . S
C299 O310 1.267 . S
C299 O311 1.278 . S
O300 Pr280 2.562 . S
O300 C282 1.254 . S
O301 Pr280 2.490 . S
O301 C282 1.225 . S
O302 Pr280 2.695 . S
O302 Pr281 2.436 . S
O302 C289 1.270 . S
O303 Pr280 2.512 . S
O303 C289 1.248 . S
O304 Pr281 2.438 . S
O304 C290 1.267 . S
O305 Pr280 2.437 . S
O305 C290 1.278 . S
O306 Pr281 2.562 . S
O306 C291 1.254 . S
O307 Pr281 2.490 . S
O307 C291 1.225 . S
O308 Pr280 2.436 . S
O308 Pr281 2.695 . S
O308 C298 1.270 1_556 S
O309 Pr281 2.512 1_554 S
O309 C298 1.248 . S
O310 Pr280 2.438 . S
O310 C299 1.267 . S
O311 Pr281 2.437 . S
O311 C299 1.278 . S
H312 C284 0.929 . S
H313 C285 0.929 . S
H314 C287 0.931 1_554 S
H315 C288 0.930 1_554 S
H316 C293 0.929 1_554 S
H317 C294 0.929 1_554 S
H318 C296 0.931 . S
H319 C297 0.930 . S
Pr320 C322 2.880 . S
Pr320 O340 2.562 . S
Pr320 O341 2.490 . S
Pr320 O342 2.695 . S
Pr320 O343 2.512 1_556 S
Pr320 O345 2.437 . S
Pr320 O348 2.436 . S
Pr320 O350 2.438 . S
Pr321 C331 2.880 . S
Pr321 O342 2.436 . S
Pr321 O344 2.438 . S
Pr321 O346 2.562 . S
Pr321 O347 2.490 . S
Pr321 O348 2.695 . S
Pr321 O349 2.512 . S
Pr321 O351 2.437 . S
C322 Pr320 2.880 . S
C322 C323 1.491 . S
C322 O340 1.254 . S
C322 O341 1.225 . S
C323 C322 1.491 . S
C323 C324 1.392 . S
C323 C328 1.356 . S
C324 C323 1.392 . S
C324 C325 1.368 . S
C324 H352 0.929 . S
C325 C324 1.368 . S
C325 C326 1.386 . S
C325 H353 0.929 . S
C326 C325 1.386 . S
C326 C327 1.373 . S
C327 C326 1.373 . S
C327 C328 1.409 . S
C327 H354 0.931 . S
C328 C323 1.356 . S
C328 C327 1.409 . S
C328 H355 0.930 . S
C329 O342 1.270 1_554 S
C329 O343 1.248 . S
C330 O344 1.267 . S
C330 O345 1.278 . S
C331 Pr321 2.880 . S
C331 C332 1.491 . S
C331 O346 1.254 . S
C331 O347 1.225 . S
C332 C331 1.491 . S
C332 C333 1.392 . S
C332 C337 1.356 . S
C333 C332 1.392 . S
C333 C334 1.368 . S
C333 H356 0.929 . S
C334 C333 1.368 . S
C334 C335 1.386 . S
C334 H357 0.929 . S
C335 C334 1.386 . S
C335 C336 1.373 1_556 S
C336 C335 1.373 1_554 S
C336 C337 1.409 1_554 S
C336 H358 0.931 . S
C337 C332 1.356 . S
C337 C336 1.409 1_556 S
C337 H359 0.930 1_556 S
C338 O348 1.270 . S
C338 O349 1.248 . S
C339 O350 1.267 . S
C339 O351 1.278 . S
O340 Pr320 2.562 . S
O340 C322 1.254 . S
O341 Pr320 2.490 . S
O341 C322 1.225 . S
O342 Pr320 2.695 . S
O342 Pr321 2.436 . S
O342 C329 1.270 1_556 S
O343 Pr320 2.512 1_554 S
O343 C329 1.248 . S
O344 Pr321 2.438 . S
O344 C330 1.267 . S
O345 Pr320 2.437 . S
O345 C330 1.278 . S
O346 Pr321 2.562 . S
O346 C331 1.254 . S
O347 Pr321 2.490 . S
O347 C331 1.225 . S
O348 Pr320 2.436 . S
O348 Pr321 2.695 . S
O348 C338 1.270 . S
O349 Pr321 2.512 . S
O349 C338 1.248 . S
O350 Pr320 2.438 . S
O350 C339 1.267 . S
O351 Pr321 2.437 . S
O351 C339 1.278 . S
H352 C324 0.929 . S
H353 C325 0.929 . S
H354 C327 0.931 . S
H355 C328 0.930 . S
H356 C333 0.929 . S
H357 C334 0.929 . S
H358 C336 0.931 . S
H359 C337 0.930 1_554 S
C360 C361 1.387 . S
C360 H364 0.950 . S
C360 C369 1.390 . S
C361 C360 1.387 . S
C361 C363 1.387 1_554 S
H362 C369 0.950 . S
C363 C361 1.387 1_556 S
C363 C365 1.390 . S
C363 H367 0.950 . S
H364 C360 0.950 . S
C365 C363 1.390 . S
C365 C366 1.387 . S
C365 H368 0.950 . S
C366 C365 1.387 . S
C366 C369 1.387 1_556 S
H367 C363 0.950 . S
H368 C365 0.950 . S
C369 C360 1.390 . S
C369 H362 0.950 . S
C369 C366 1.387 1_554 S
C370 C371 1.387 1_554 S
C370 H374 0.950 . S
C370 C379 1.390 1_554 S
C371 C370 1.387 1_556 S
C371 C373 1.387 . S
H372 C379 0.950 1_554 S
C373 C371 1.387 . S
C373 C375 1.390 . S
C373 H377 0.950 . S
H374 C370 0.950 . S
C375 C373 1.390 . S
C375 C376 1.387 . S
C375 H378 0.950 . S
C376 C375 1.387 . S
C376 C379 1.387 . S
H377 C373 0.950 . S
H378 C375 0.950 . S
C379 C370 1.390 1_556 S
C379 H372 0.950 1_556 S
C379 C376 1.387 . S
C380 C381 1.387 . S
C380 H384 0.950 . S
C380 C389 1.390 . S
C381 C380 1.387 . S
C381 C383 1.387 1_556 S
H382 C389 0.950 . S
C383 C381 1.387 1_554 S
C383 C385 1.390 1_554 S
C383 H387 0.950 . S
H384 C380 0.950 . S
C385 C383 1.390 1_556 S
C385 C386 1.387 . S
C385 H388 0.950 1_556 S
C386 C385 1.387 . S
C386 C389 1.387 . S
H387 C383 0.950 . S
H388 C385 0.950 1_554 S
C389 C380 1.390 . S
C389 H382 0.950 . S
C389 C386 1.387 . S
C390 C391 1.387 1_556 S
C390 H394 0.950 . S
C390 C399 1.390 . S
C391 C390 1.387 1_554 S
C391 C393 1.387 . S
H392 C399 0.950 . S
C393 C391 1.387 . S
C393 C395 1.390 . S
C393 H397 0.950 . S
H394 C390 0.950 . S
C395 C393 1.390 . S
C395 C396 1.387 . S
C395 H398 0.950 . S
C396 C395 1.387 . S
C396 C399 1.387 1_554 S
H397 C393 0.950 . S
H398 C395 0.950 . S
C399 C390 1.390 . S
C399 H392 0.950 . S
C399 C396 1.387 1_556 S
C400 C401 1.387 . S
C400 H404 0.950 . S
C400 C409 1.390 . S
C401 C400 1.387 . S
C401 C403 1.387 . S
H402 C409 0.950 . S
C403 C401 1.387 . S
C403 C405 1.390 . S
C403 H407 0.950 1_554 S
H404 C400 0.950 . S
C405 C403 1.390 . S
C405 C406 1.387 . S
C405 H408 0.950 1_554 S
C406 C405 1.387 . S
C406 C409 1.387 . S
H407 C403 0.950 1_556 S
H408 C405 0.950 1_556 S
C409 C400 1.390 . S
C409 H402 0.950 . S
C409 C406 1.387 . S
C410 C411 1.387 . S
C410 H414 0.950 . S
C410 C419 1.390 . S
C411 C410 1.387 . S
C411 C413 1.387 1_554 S
H412 C419 0.950 . S
C413 C411 1.387 1_556 S
C413 C415 1.390 . S
C413 H417 0.950 . S
H414 C410 0.950 . S
C415 C413 1.390 . S
C415 C416 1.387 1_556 S
C415 H418 0.950 . S
C416 C415 1.387 1_554 S
C416 C419 1.387 . S
H417 C413 0.950 . S
H418 C415 0.950 . S
C419 C410 1.390 . S
C419 H412 0.950 . S
C419 C416 1.387 . S
C420 C421 1.387 . S
C420 H424 0.950 . S
C420 C429 1.390 . S
C421 C420 1.387 . S
C421 C423 1.387 . S
H422 C429 0.950 . S
C423 C421 1.387 . S
C423 C425 1.390 . S
C423 H427 0.950 . S
H424 C420 0.950 . S
C425 C423 1.390 . S
C425 C426 1.387 . S
C425 H428 0.950 . S
C426 C425 1.387 . S
C426 C429 1.387 . S
H427 C423 0.950 . S
H428 C425 0.950 . S
C429 C420 1.390 . S
C429 H422 0.950 . S
C429 C426 1.387 . S
C430 C431 1.387 . S
C430 H434 0.950 . S
C430 C439 1.390 . S
C431 C430 1.387 . S
C431 C433 1.387 . S
H432 C439 0.950 . S
C433 C431 1.387 . S
C433 C435 1.390 . S
C433 H437 0.950 . S
H434 C430 0.950 . S
C435 C433 1.390 . S
C435 C436 1.387 . S
C435 H438 0.950 . S
C436 C435 1.387 . S
C436 C439 1.387 . S
H437 C433 0.950 . S
H438 C435 0.950 . S
C439 C430 1.390 . S
C439 H432 0.950 . S
C439 C436 1.387 . S
C440 C441 1.387 . S
C440 H444 0.950 . S
C440 C449 1.390 . S
C441 C440 1.387 . S
C441 C443 1.387 . S
H442 C449 0.950 . S
C443 C441 1.387 . S
C443 C445 1.390 . S
C443 H447 0.950 . S
H444 C440 0.950 . S
C445 C443 1.390 . S
C445 C446 1.387 . S
C445 H448 0.950 . S
C446 C445 1.387 . S
C446 C449 1.387 . S
H447 C443 0.950 . S
H448 C445 0.950 . S
C449 C440 1.390 . S
C449 H442 0.950 . S
C449 C446 1.387 . S
C450 C451 1.387 1_556 S
C450 H454 0.950 . S
C450 C459 1.390 . S
C451 C450 1.387 1_554 S
C451 C453 1.387 . S
H452 C459 0.950 . S
C453 C451 1.387 . S
C453 C455 1.390 . S
C453 H457 0.950 . S
H454 C450 0.950 . S
C455 C453 1.390 . S
C455 C456 1.387 . S
C455 H458 0.950 . S
C456 C455 1.387 . S
C456 C459 1.387 1_554 S
H457 C453 0.950 . S
H458 C455 0.950 . S
C459 C450 1.390 . S
C459 H452 0.950 . S
C459 C456 1.387 1_556 S
C460 C461 1.387 . S
C460 H464 0.950 . S
C460 C469 1.390 1_565 S
C461 C460 1.387 . S
C461 C463 1.387 1_554 S
H462 C469 0.950 . S
C463 C461 1.387 1_556 S
C463 C465 1.348 1_565 S
C463 H467 0.950 . S
H464 C460 0.950 . S
C465 C463 1.348 1_545 S
C465 C466 1.405 1_556 S
C465 H468 0.976 . S
C466 C465 1.405 1_554 S
C466 C469 1.387 . S
H467 C463 0.950 . S
H468 C465 0.976 . S
C469 C460 1.390 1_545 S
C469 H462 0.950 . S
C469 C466 1.387 . S
C470 C471 1.387 . S
C470 H474 0.950 . S
C470 C479 1.390 . S
C471 C470 1.387 . S
C471 C473 1.387 1_554 S
H472 C479 0.950 . S
C473 C471 1.387 1_556 S
C473 C475 1.390 . S
C473 H477 0.950 . S
H474 C470 0.950 . S
C475 C473 1.390 . S
C475 C476 1.387 1_556 S
C475 H478 0.950 . S
C476 C475 1.387 1_554 S
C476 C479 1.387 . S
H477 C473 0.950 . S
H478 C475 0.950 . S
C479 C470 1.390 . S
C479 H472 0.950 . S
C479 C476 1.387 . S
C480 C481 1.387 . S
C480 H484 0.950 . S
C480 C489 1.390 . S
C481 C480 1.387 . S
C481 C483 1.387 1_554 S
H482 C489 0.950 . S
C483 C481 1.387 1_556 S
C483 C485 1.390 . S
C483 H487 0.950 . S
H484 C480 0.950 . S
C485 C483 1.390 . S
C485 C486 1.387 1_556 S
C485 H488 0.950 . S
C486 C485 1.387 1_554 S
C486 C489 1.387 . S
H487 C483 0.950 . S
H488 C485 0.950 . S
C489 C480 1.390 . S
C489 H482 0.950 . S
C489 C486 1.387 . S
C490 C491 1.387 1_556 S
C490 H494 0.950 . S
C490 C499 1.390 . S
C491 C490 1.387 1_554 S
C491 C493 1.387 . S
H492 C499 0.950 . S
C493 C491 1.387 . S
C493 C495 1.390 . S
C493 H497 0.950 . S
H494 C490 0.950 . S
C495 C493 1.390 . S
C495 C496 1.387 . S
C495 H498 0.950 . S
C496 C495 1.387 . S
C496 C499 1.387 1_554 S
H497 C493 0.950 . S
H498 C495 0.950 . S
C499 C490 1.390 . S
C499 H492 0.950 . S
C499 C496 1.387 1_556 S
C500 C501 1.387 1_556 S
C500 H504 0.950 . S
C500 C509 1.390 . S
C501 C500 1.387 1_554 S
C501 C503 1.387 . S
H502 C509 0.950 . S
C503 C501 1.387 . S
C503 C505 1.390 . S
C503 H507 0.950 . S
H504 C500 0.950 . S
C505 C503 1.390 . S
C505 C506 1.387 . S
C505 H508 0.950 . S
C506 C505 1.387 . S
C506 C509 1.387 1_554 S
H507 C503 0.950 . S
H508 C505 0.950 . S
C509 C500 1.390 . S
C509 H502 0.950 . S
C509 C506 1.387 1_556 S
C510 C511 1.387 . S
C510 H514 0.950 . S
C510 C519 1.390 . S
C511 C510 1.387 . S
C511 C513 1.387 . S
H512 C519 0.950 . S
C513 C511 1.387 . S
C513 C515 1.390 . S
C513 H517 0.950 1_556 S
H514 C510 0.950 . S
C515 C513 1.390 . S
C515 C516 1.387 . S
C515 H518 0.950 1_556 S
C516 C515 1.387 . S
C516 C519 1.387 . S
H517 C513 0.950 1_554 S
H518 C515 0.950 1_554 S
C519 C510 1.390 . S
C519 H512 0.950 . S
C519 C516 1.387 . S
C520 C521 1.387 . S
C520 H524 0.950 . S
C520 C529 1.390 . S
C521 C520 1.387 . S
C521 C523 1.387 . S
H522 C529 0.950 . S
C523 C521 1.387 . S
C523 C525 1.390 . S
C523 H527 0.950 1_556 S
H524 C520 0.950 . S
C525 C523 1.390 . S
C525 C526 1.387 . S
C525 H528 0.950 1_556 S
C526 C525 1.387 . S
C526 C529 1.387 . S
H527 C523 0.950 1_554 S
H528 C525 0.950 1_554 S
C529 C520 1.390 . S
C529 H522 0.950 . S
C529 C526 1.387 . S
C530 C531 1.387 . S
C530 H534 0.950 . S
C530 C539 1.390 . S
C531 C530 1.387 . S
C531 C533 1.387 . S
H532 C539 0.950 . S
C533 C531 1.387 . S
C533 C535 1.390 . S
C533 H537 0.950 . S
H534 C530 0.950 . S
C535 C533 1.390 . S
C535 C536 1.387 . S
C535 H538 0.950 . S
C536 C535 1.387 . S
C536 C539 1.387 . S
H537 C533 0.950 . S
H538 C535 0.950 . S
C539 C530 1.390 . S
C539 H532 0.950 . S
C539 C536 1.387 . S
C540 C541 1.387 . S
C540 H544 0.950 1_455 S
C540 C549 1.390 . S
C541 C540 1.387 . S
C541 C543 1.387 . S
H542 C549 0.950 1_655 S
C543 C541 1.387 . S
C543 C545 1.390 . S
C543 H547 0.950 . S
H544 C540 0.950 1_655 S
C545 C543 1.390 . S
C545 C546 1.387 . S
C545 H548 0.950 . S
C546 C545 1.387 . S
C546 C549 1.387 . S
H547 C543 0.950 . S
H548 C545 0.950 . S
C549 C540 1.390 . S
C549 H542 0.950 1_455 S
C549 C546 1.387 . S
C550 C551 1.387 . S
C550 H554 0.950 . S
C550 C559 1.390 . S
C551 C550 1.387 . S
C551 C553 1.387 . S
H552 C559 0.950 . S
C553 C551 1.387 . S
C553 C555 1.390 . S
C553 H557 0.950 . S
H554 C550 0.950 . S
C555 C553 1.390 . S
C555 C556 1.387 . S
C555 H558 0.950 . S
C556 C555 1.387 . S
C556 C559 1.387 . S
H557 C553 0.950 . S
H558 C555 0.950 . S
C559 C550 1.390 . S
C559 H552 0.950 . S
C559 C556 1.387 . S
C560 C561 1.387 . S
C560 H564 0.950 . S
C560 C569 1.390 . S
C561 C560 1.387 . S
C561 C563 1.387 1_545 S
H562 C569 0.950 . S
C563 C561 1.387 1_565 S
C563 C565 1.390 . S
C563 H567 0.950 . S
H564 C560 0.950 . S
C565 C563 1.390 . S
C565 C566 1.387 1_565 S
C565 H568 0.950 . S
C566 C565 1.387 1_545 S
C566 C569 1.387 . S
H567 C563 0.950 . S
H568 C565 0.950 . S
C569 C560 1.390 . S
C569 H562 0.950 . S
C569 C566 1.387 . S
C570 C571 1.387 . S
C570 H574 0.950 . S
C570 C579 1.390 . S
C571 C570 1.387 . S
C571 C573 1.387 . S
H572 C579 0.950 . S
C573 C571 1.387 . S
C573 C575 1.390 . S
C573 H577 0.950 . S
H574 C570 0.950 . S
C575 C573 1.390 . S
C575 C576 1.387 . S
C575 H578 0.950 . S
C576 C575 1.387 . S
C576 C579 1.387 . S
H577 C573 0.950 . S
H578 C575 0.950 . S
C579 C570 1.390 . S
C579 H572 0.950 . S
C579 C576 1.387 . S
C580 C581 1.387 . S
C580 H584 0.950 . S
C580 C589 1.390 . S
C581 C580 1.387 . S
C581 C583 1.387 . S
H582 C589 0.950 . S
C583 C581 1.387 . S
C583 C585 1.390 . S
C583 H587 0.950 . S
H584 C580 0.950 . S
C585 C583 1.390 . S
C585 C586 1.387 . S
C585 H588 0.950 . S
C586 C585 1.387 . S
C586 C589 1.387 . S
H587 C583 0.950 . S
H588 C585 0.950 . S
C589 C580 1.390 . S
C589 H582 0.950 . S
C589 C586 1.387 . S
C590 C591 1.387 . S
C590 H594 0.950 . S
C590 C599 1.390 . S
C591 C590 1.387 . S
C591 C593 1.387 . S
H592 C599 0.950 . S
C593 C591 1.387 . S
C593 C595 1.390 . S
C593 H597 0.950 . S
H594 C590 0.950 . S
C595 C593 1.390 . S
C595 C596 1.387 . S
C595 H598 0.950 . S
C596 C595 1.387 . S
C596 C599 1.387 . S
H597 C593 0.950 . S
H598 C595 0.950 . S
C599 C590 1.390 . S
C599 H592 0.950 . S
C599 C596 1.387 . S
C600 C601 1.387 . S
C600 H604 0.950 . S
C600 C609 1.390 . S
C601 C600 1.387 . S
C601 C603 1.387 . S
H602 C609 0.950 . S
C603 C601 1.387 . S
C603 C605 1.390 . S
C603 H607 0.950 . S
H604 C600 0.950 . S
C605 C603 1.390 . S
C605 C606 1.387 . S
C605 H608 0.950 . S
C606 C605 1.387 . S
C606 C609 1.387 . S
H607 C603 0.950 . S
H608 C605 0.950 . S
C609 C600 1.390 . S
C609 H602 0.950 . S
C609 C606 1.387 . S
C610 C611 1.387 . S
C610 H614 0.950 . S
C610 C619 1.390 . S
C611 C610 1.387 . S
C611 C613 1.387 . S
H612 C619 0.950 . S
C613 C611 1.387 . S
C613 C615 1.390 . S
C613 H617 0.950 . S
H614 C610 0.950 . S
C615 C613 1.390 . S
C615 C616 1.387 . S
C615 H618 0.950 . S
C616 C615 1.387 . S
C616 C619 1.387 . S
H617 C613 0.950 . S
H618 C615 0.950 . S
C619 C610 1.390 . S
C619 H612 0.950 . S
C619 C616 1.387 . S
C620 C621 1.387 . S
C620 H624 0.950 . S
C620 C629 1.390 . S
C621 C620 1.387 . S
C621 C623 1.387 . S
H622 C629 0.950 . S
C623 C621 1.387 . S
C623 C625 1.390 . S
C623 H627 0.950 . S
H624 C620 0.950 . S
C625 C623 1.390 . S
C625 C626 1.387 . S
C625 H628 0.950 . S
C626 C625 1.387 . S
C626 C629 1.387 . S
H627 C623 0.950 . S
H628 C625 0.950 . S
C629 C620 1.390 . S
C629 H622 0.950 . S
C629 C626 1.387 . S
C361 C6 1.699 . S
C366 C286 1.695 . S
C371 C50 2.644 . S
C376 C330 2.731 . S
C381 C86 1.737 . S
C386 C250 1.745 . S
C391 C170 3.155 . S
C396 C90 3.115 . S
C401 C210 2.921 . S
C406 C10 2.977 1_655 S
C411 C46 2.583 . S
C416 C130 2.539 . S
C421 C290 2.404 . S
C426 C206 2.330 . S
C431 C326 1.871 . S
C436 C126 1.900 . S
C441 C166 2.286 . S
C446 C246 2.326 . S
C451 C95 2.053 . S
C456 C19 2.181 . S
C461 C55 1.576 . S
C466 C15 1.575 . S
C471 C59 3.475 1_455 S
C476 C99 3.400 1_554 S
C481 C135 1.960 . S
C486 C219 1.971 . S
C491 C139 1.976 . S
C496 C175 2.017 . S
C501 C179 1.775 . S
C506 C215 1.765 1_554 S
C511 C335 2.084 . S
C516 C259 2.158 . S
C521 C295 1.011 . S
C526 C255 1.032 . S
C531 C339 2.245 . S
C536 C299 2.361 . S
C541 C18 1.150 . S
C546 C9 1.150 . S
C551 C49 1.119 . S
C556 C58 1.119 . S
C561 C98 1.119 . S
C566 C89 1.119 . S
C571 C138 1.180 . S
C576 C129 1.180 . S
C581 C178 1.200 . S
C586 C169 1.200 . S
C591 C218 1.119 . S
C596 C209 1.119 . S
C601 C258 1.193 . S
C606 C249 1.193 . S
C611 C298 1.160 . S
C616 C289 1.160 . S
C621 C338 1.141 . S
C626 C329 1.141 . S
