# Generated by pormake.
# Topology rhr, (4)-cn, num edge types: 1
# Building blocks:
#     Node 0, Type 0, BuildingBlock: ESEHIV_clean_sbu_0, # of connection points: 4
#     Node 1, Type 0, BuildingBlock: ESEHIV_clean_sbu_0, # of connection points: 4
#     Node 2, Type 0, BuildingBlock: ESEHIV_clean_sbu_0, # of connection points: 4
#     Node 3, Type 0, BuildingBlock: ESEHIV_clean_sbu_0, # of connection points: 4
#     Node 4, Type 0, BuildingBlock: ESEHIV_clean_sbu_0, # of connection points: 4
#     Node 5, Type 0, BuildingBlock: ESEHIV_clean_sbu_0, # of connection points: 4
#     Node 6, Type 0, BuildingBlock: ESEHIV_clean_sbu_0, # of connection points: 4
#     Node 7, Type 0, BuildingBlock: ESEHIV_clean_sbu_0, # of connection points: 4
#     Node 8, Type 0, BuildingBlock: ESEHIV_clean_sbu_0, # of connection points: 4
#     Node 9, Type 0, BuildingBlock: ESEHIV_clean_sbu_0, # of connection points: 4
#     Node 10, Type 0, BuildingBlock: ESEHIV_clean_sbu_0, # of connection points: 4
#     Node 11, Type 0, BuildingBlock: ESEHIV_clean_sbu_0, # of connection points: 4
#     Node 12, Type 0, BuildingBlock: ESEHIV_clean_sbu_0, # of connection points: 4
#     Node 13, Type 0, BuildingBlock: ESEHIV_clean_sbu_0, # of connection points: 4
#     Node 14, Type 0, BuildingBlock: ESEHIV_clean_sbu_0, # of connection points: 4
#     Node 15, Type 0, BuildingBlock: ESEHIV_clean_sbu_0, # of connection points: 4
#     Node 16, Type 0, BuildingBlock: ESEHIV_clean_sbu_0, # of connection points: 4
#     Node 17, Type 0, BuildingBlock: ESEHIV_clean_sbu_0, # of connection points: 4
#     Node 18, Type 0, BuildingBlock: ESEHIV_clean_sbu_0, # of connection points: 4
#     Node 19, Type 0, BuildingBlock: ESEHIV_clean_sbu_0, # of connection points: 4
#     Node 20, Type 0, BuildingBlock: ESEHIV_clean_sbu_0, # of connection points: 4
#     Node 21, Type 0, BuildingBlock: ESEHIV_clean_sbu_0, # of connection points: 4
#     Node 22, Type 0, BuildingBlock: ESEHIV_clean_sbu_0, # of connection points: 4
#     Node 23, Type 0, BuildingBlock: ESEHIV_clean_sbu_0, # of connection points: 4
#     Edge 24, Type (0, 0), BuildingBlock: CIFDUS_clean_linker_0, # of connection points: 2
#     Edge 25, Type (0, 0), BuildingBlock: CIFDUS_clean_linker_0, # of connection points: 2
#     Edge 26, Type (0, 0), BuildingBlock: CIFDUS_clean_linker_0, # of connection points: 2
#     Edge 27, Type (0, 0), BuildingBlock: CIFDUS_clean_linker_0, # of connection points: 2
#     Edge 28, Type (0, 0), BuildingBlock: CIFDUS_clean_linker_0, # of connection points: 2
#     Edge 29, Type (0, 0), BuildingBlock: CIFDUS_clean_linker_0, # of connection points: 2
#     Edge 30, Type (0, 0), BuildingBlock: CIFDUS_clean_linker_0, # of connection points: 2
#     Edge 31, Type (0, 0), BuildingBlock: CIFDUS_clean_linker_0, # of connection points: 2
#     Edge 32, Type (0, 0), BuildingBlock: CIFDUS_clean_linker_0, # of connection points: 2
#     Edge 33, Type (0, 0), BuildingBlock: CIFDUS_clean_linker_0, # of connection points: 2
#     Edge 34, Type (0, 0), BuildingBlock: CIFDUS_clean_linker_0, # of connection points: 2
#     Edge 35, Type (0, 0), BuildingBlock: CIFDUS_clean_linker_0, # of connection points: 2
#     Edge 36, Type (0, 0), BuildingBlock: CIFDUS_clean_linker_0, # of connection points: 2
#     Edge 37, Type (0, 0), BuildingBlock: CIFDUS_clean_linker_0, # of connection points: 2
#     Edge 38, Type (0, 0), BuildingBlock: CIFDUS_clean_linker_0, # of connection points: 2
#     Edge 39, Type (0, 0), BuildingBlock: CIFDUS_clean_linker_0, # of connection points: 2
#     Edge 40, Type (0, 0), BuildingBlock: CIFDUS_clean_linker_0, # of connection points: 2
#     Edge 41, Type (0, 0), BuildingBlock: CIFDUS_clean_linker_0, # of connection points: 2
#     Edge 42, Type (0, 0), BuildingBlock: CIFDUS_clean_linker_0, # of connection points: 2
#     Edge 43, Type (0, 0), BuildingBlock: CIFDUS_clean_linker_0, # of connection points: 2
#     Edge 44, Type (0, 0), BuildingBlock: CIFDUS_clean_linker_0, # of connection points: 2
#     Edge 45, Type (0, 0), BuildingBlock: CIFDUS_clean_linker_0, # of connection points: 2
#     Edge 46, Type (0, 0), BuildingBlock: CIFDUS_clean_linker_0, # of connection points: 2
#     Edge 47, Type (0, 0), BuildingBlock: CIFDUS_clean_linker_0, # of connection points: 2
#     Edge 48, Type (0, 0), BuildingBlock: CIFDUS_clean_linker_0, # of connection points: 2
#     Edge 49, Type (0, 0), BuildingBlock: CIFDUS_clean_linker_0, # of connection points: 2
#     Edge 50, Type (0, 0), BuildingBlock: CIFDUS_clean_linker_0, # of connection points: 2
#     Edge 51, Type (0, 0), BuildingBlock: CIFDUS_clean_linker_0, # of connection points: 2
#     Edge 52, Type (0, 0), BuildingBlock: CIFDUS_clean_linker_0, # of connection points: 2
#     Edge 53, Type (0, 0), BuildingBlock: CIFDUS_clean_linker_0, # of connection points: 2
#     Edge 54, Type (0, 0), BuildingBlock: CIFDUS_clean_linker_0, # of connection points: 2
#     Edge 55, Type (0, 0), BuildingBlock: CIFDUS_clean_linker_0, # of connection points: 2
#     Edge 56, Type (0, 0), BuildingBlock: CIFDUS_clean_linker_0, # of connection points: 2
#     Edge 57, Type (0, 0), BuildingBlock: CIFDUS_clean_linker_0, # of connection points: 2
#     Edge 58, Type (0, 0), BuildingBlock: CIFDUS_clean_linker_0, # of connection points: 2
#     Edge 59, Type (0, 0), BuildingBlock: CIFDUS_clean_linker_0, # of connection points: 2
#     Edge 60, Type (0, 0), BuildingBlock: CIFDUS_clean_linker_0, # of connection points: 2
#     Edge 61, Type (0, 0), BuildingBlock: CIFDUS_clean_linker_0, # of connection points: 2
#     Edge 62, Type (0, 0), BuildingBlock: CIFDUS_clean_linker_0, # of connection points: 2
#     Edge 63, Type (0, 0), BuildingBlock: CIFDUS_clean_linker_0, # of connection points: 2
#     Edge 64, Type (0, 0), BuildingBlock: CIFDUS_clean_linker_0, # of connection points: 2
#     Edge 65, Type (0, 0), BuildingBlock: CIFDUS_clean_linker_0, # of connection points: 2
#     Edge 66, Type (0, 0), BuildingBlock: CIFDUS_clean_linker_0, # of connection points: 2
#     Edge 67, Type (0, 0), BuildingBlock: CIFDUS_clean_linker_0, # of connection points: 2
#     Edge 68, Type (0, 0), BuildingBlock: CIFDUS_clean_linker_0, # of connection points: 2
#     Edge 69, Type (0, 0), BuildingBlock: CIFDUS_clean_linker_0, # of connection points: 2
#     Edge 70, Type (0, 0), BuildingBlock: CIFDUS_clean_linker_0, # of connection points: 2
#     Edge 71, Type (0, 0), BuildingBlock: CIFDUS_clean_linker_0, # of connection points: 2
# Relax obj value: 0.012
# Max RMSD: 0.143
# Mean RMSD: 0.096
data_MOF--net-rhr--node1-ESEHIV_clean_sbu_0--edge1-CIFDUS_clean_linker_0
_symmetry_space_group_name_H-M    P1
_symmetry_Int_Tables_number       1
_symmetry_cell_setting            triclinic
loop_
_symmetry_equiv_pos_as_xyz
'x, y, z'
_cell_length_a     48.092917
_cell_length_b     47.887714
_cell_length_c     47.906037
_cell_angle_alpha  90.122339
_cell_angle_beta   93.074099
_cell_angle_gamma 92.46
loop_
_atom_site_label
_atom_site_type_symbol
_atom_site_fract_x
_atom_site_fract_y
_atom_site_fract_z
_atom_type_partial_charge
Cu0 Cu 0.34018 0.04101 0.33774 0.0
N1 N 0.34277 1.02906 0.30104 0.0
N2 N 0.36226 1.02182 0.26047 0.0
C3 C 0.36417 0.03579 0.28505 0.0
C4 C 0.33845 1.00581 0.26103 0.0
C5 C 0.32654 1.01024 0.28615 0.0
O6 O 0.367 0.07324 0.34158 0.0
C7 C 0.34568 1.00773 0.38815 0.0
O8 O 0.34686 0.03143 0.40207 0.0
H9 H 0.38122 0.05012 0.2918 0.0
H10 H 0.30801 0.99968 0.29352 0.0
N11 N 0.30383 0.05136 0.34342 0.0
N12 N 0.26634 0.06052 0.36689 0.0
C13 C 0.29414 0.05763 0.36835 0.0
C14 C 0.2814 0.05078 0.32529 0.0
C15 C 0.25819 0.05659 0.33973 0.0
C16 C 0.35905 0.09692 0.3327 0.0
O17 O 0.33246 0.09956 0.32599 0.0
H18 H 0.30718 0.0599 0.38732 0.0
H19 H 0.28172 0.04566 0.30333 0.0
O20 O 0.34622 1.00822 0.36156 0.0
H21 H 0.33092 0.99084 0.24512 0.0
H22 H 0.23692 0.05686 0.33115 0.0
Cu23 Cu 0.06644 0.3469 0.37415 0.0
N24 N 0.09073 0.31722 0.37785 0.0
N25 N 0.11867 0.2881 0.40136 0.0
C26 C 0.10175 0.30971 0.40299 0.0
C27 C 0.11868 0.28185 0.37387 0.0
C28 C 0.10131 0.29988 0.35935 0.0
O29 O 0.04445 0.34514 0.40734 0.0
C30 C 0.10055 0.38049 0.34449 0.0
O31 O 0.09561 0.35843 0.32835 0.0
H32 H 0.09715 0.3199 0.4223 0.0
H33 H 0.09654 0.30007 0.33703 0.0
N34 N 0.03974 0.34543 0.34409 0.0
N35 N 1.00498 0.36281 0.31731 0.0
C36 C 1.02765 0.36865 0.33448 0.0
C37 C 1.02424 0.32393 0.33244 0.0
C38 C 1.0027 0.33463 0.31592 0.0
C39 C 0.03287 0.32099 0.41108 0.0
O40 O 0.03728 0.3009 0.39335 0.0
H41 H 0.03421 0.38948 0.34165 0.0
H42 H 1.02735 0.30212 0.33687 0.0
O43 O 0.08961 0.38068 0.3682 0.0
H44 H 0.12962 0.26493 0.36504 0.0
H45 H 0.98618 0.32263 0.30454 0.0
Cu46 Cu 0.67528 0.04854 0.39787 0.0
N47 N 0.64022 0.06357 0.39776 0.0
N48 N 0.6031 0.08174 0.37588 0.0
C49 C 0.62195 0.06184 0.3755 0.0
C50 C 0.60946 0.0965 0.39954 0.0
C51 C 0.6323 0.08509 0.41316 0.0
O52 O 0.67775 0.03289 0.3606 0.0
C53 C 0.7078 0.08643 0.43167 0.0
O54 O 0.69393 0.0737 0.4512 0.0
H55 H 0.62476 0.04901 0.35736 0.0
H56 H 0.64415 0.09395 0.43109 0.0
N57 N 0.67921 1.01988 0.4237 0.0
N58 N 0.69723 0.98234 0.44396 0.0
C59 C 0.70018 1.00227 0.42436 0.0
C60 C 0.6622 1.01096 0.44353 0.0
C61 C 0.67331 0.98771 0.45613 0.0
C62 C 0.66402 1.01002 0.3549 0.0
O63 O 0.6518 0.99672 0.37517 0.0
H64 H 0.71681 1.00367 0.41002 0.0
H65 H 0.64297 1.02047 0.4482 0.0
O66 O 0.70337 0.07837 0.40638 0.0
H67 H 0.60019 0.11584 0.405 0.0
H68 H 0.66454 0.97583 0.47299 0.0
Cu69 Cu 0.03499 0.71775 0.34142 0.0
N70 N 0.05741 0.71871 0.31038 0.0
N71 N 0.08816 0.70025 0.28272 0.0
C72 C 0.07904 0.70188 0.30883 0.0
C73 C 0.07171 0.71698 0.26709 0.0
C74 C 0.0528 0.72845 0.28423 0.0
O75 O 1.01352 0.68191 0.33743 0.0
C76 C 0.07152 0.74779 0.37769 0.0
O77 O 0.0657 0.76647 0.35847 0.0
H78 H 0.08656 0.68933 0.32619 0.0
H79 H 0.03575 0.74135 0.27767 0.0
N80 N 1.00898 0.74577 0.34439 0.0
N81 N 0.97794 0.76971 0.36714 0.0
C82 C 0.99062 0.74525 0.36471 0.0
C83 C 1.00777 0.77154 0.33327 0.0
C84 C 0.98866 0.78639 0.34735 0.0
C85 C 0.99915 0.67893 0.31426 0.0
O86 O 0.99867 0.70003 0.29681 0.0
H87 H 0.98802 0.72774 0.37872 0.0
H88 H 1.021 0.77953 0.31729 0.0
O89 O 0.06055 0.72306 0.37463 0.0
H90 H 0.07271 0.72 0.24477 0.0
H91 H 0.98359 0.80794 0.34375 0.0
Cu92 Cu 0.37848 1.01935 0.72709 0.0
N93 N 0.37827 0.03721 0.76179 0.0
N94 N 0.39527 0.06823 0.79396 0.0
C95 C 0.38939 0.06315 0.76652 0.0
C96 C 0.3871 0.04464 0.80715 0.0
C97 C 0.37648 1.02553 0.78721 0.0
O98 O 0.40844 0.99228 0.7303 0.0
C99 C 0.37079 0.04846 0.67474 0.0
O100 O 0.3634 1.0239 0.66384 0.0
H101 H 0.39614 0.07678 0.74996 0.0
H102 H 0.37061 1.00383 0.79078 0.0
N103 N 0.34435 1.00018 0.71814 0.0
N104 N 0.31324 0.97292 0.693 0.0
C105 C 0.34047 0.97811 0.70067 0.0
C106 C 0.31868 1.00917 0.72191 0.0
C107 C 0.29943 0.99238 0.70646 0.0
C108 C 0.42934 0.9954 0.74793 0.0
O109 O 0.4338 1.01949 0.76088 0.0
H110 H 0.35751 0.96755 0.69198 0.0
H111 H 0.31441 1.02768 0.73365 0.0
O112 O 0.38133 0.04978 0.69978 0.0
H113 H 0.39034 0.04081 0.82932 0.0
H114 H 0.27716 0.99491 0.70458 0.0
Cu115 Cu 0.06126 0.38072 0.71203 0.0
N116 N 0.081 0.37041 0.68148 0.0
N117 N 0.10351 0.34112 0.65522 0.0
C118 C 0.08695 0.3437 0.6768 0.0
C119 C 0.1082 0.36738 0.64582 0.0
C120 C 0.09407 0.38548 0.66201 0.0
O121 O 0.03062 0.35321 0.7129 0.0
C122 C 0.10839 0.39724 0.74306 0.0
O123 O 0.11251 0.41002 0.71931 0.0
H124 H 0.08015 0.32657 0.68985 0.0
H125 H 0.09404 0.408 0.66028 0.0
N126 N 0.04634 0.41598 0.70947 0.0
N127 N 1.02409 0.45086 0.72832 0.0
C128 C 0.04386 0.43193 0.73228 0.0
C129 C 1.02789 0.42549 0.69002 0.0
C130 C 1.01405 0.44704 0.70165 0.0
C131 C 1.00594 0.35839 0.71906 0.0
O132 O 1.00143 0.38169 0.73227 0.0
H133 H 0.05359 0.42715 0.75251 0.0
H134 H 1.02261 0.41545 0.67008 0.0
O135 O 0.08658 0.38143 0.74484 0.0
H136 H 0.12108 0.3731 0.62871 0.0
H137 H 0.99643 0.45741 0.69204 0.0
Cu138 Cu 0.75262 0.03276 0.70562 0.0
N139 N 0.75198 1.00489 0.73273 0.0
N140 N 0.73601 0.96721 0.75535 0.0
C141 C 0.73015 0.98696 0.7361 0.0
C142 C 0.76274 0.97303 0.76441 0.0
C143 C 0.77256 0.99625 0.75033 0.0
O144 O 0.71991 0.0559 0.71038 0.0
C145 C 0.77954 1.00181 0.66672 0.0
O146 O 0.79971 1.00646 0.68596 0.0
H147 H 0.71069 0.98786 0.72377 0.0
H148 H 0.79343 1.00563 0.75223 0.0
N149 N 0.78415 0.05677 0.71041 0.0
N150 N 0.81682 0.08882 0.69942 0.0
C151 C 0.7958 0.07131 0.68971 0.0
C152 C 0.79827 0.06536 0.73412 0.0
C153 C 0.81841 0.08526 0.7274 0.0
C154 C 0.71714 0.06513 0.73519 0.0
O155 O 0.73529 0.05779 0.75501 0.0
H156 H 0.78804 0.07005 0.66808 0.0
H157 H 0.79363 0.05842 0.75489 0.0
O158 O 0.75587 1.01231 0.67017 0.0
H159 H 0.77447 0.9613 0.77992 0.0
H160 H 0.8326 0.09675 0.74199 0.0
Cu161 Cu 0.04012 0.69594 0.72341 0.0
N162 N 0.07237 0.71904 0.72029 0.0
N163 N 0.11046 0.73855 0.702 0.0
C164 C 0.08705 0.72222 0.69719 0.0
C165 C 0.11045 0.7459 0.72924 0.0
C166 C 0.08699 0.73384 0.74044 0.0
O167 O 1.0174 0.6971 0.68855 0.0
C168 C 0.06009 0.65887 0.7621 0.0
O169 O 0.06031 0.68211 0.77672 0.0
H170 H 0.08101 0.71207 0.67745 0.0
H171 H 0.08127 0.73536 0.76189 0.0
N172 N 1.01648 0.70795 0.75032 0.0
N173 N 0.98407 0.70321 0.78194 0.0
C174 C 0.99652 0.69109 0.76077 0.0
C175 C 1.01645 0.73192 0.76503 0.0
C176 C 0.99656 0.72895 0.78476 0.0
C177 C 1.01251 0.72188 0.68052 0.0
O178 O 1.0247 0.74295 0.6947 0.0
H179 H 0.99257 0.66958 0.75416 0.0
H180 H 0.03056 0.74979 0.76237 0.0
O181 O 0.05217 0.65936 0.73623 0.0
H182 H 0.12624 0.75908 0.74032 0.0
H183 H 0.99228 0.74419 0.80051 0.0
Cu184 Cu 0.36889 0.38369 1.01436 0.0
N185 N 0.33286 0.39322 1.02375 0.0
N186 N 0.30086 0.41148 0.05014 0.0
C187 C 0.32752 0.4039 0.04889 0.0
C188 C 0.28874 0.40504 1.02474 0.0
C189 C 0.30845 0.39353 1.00858 0.0
O190 O 0.39489 0.41571 1.02028 0.0
C191 C 0.36737 0.33189 0.04168 0.0
O192 O 0.344 0.32777 1.02646 0.0
H193 H 0.34336 0.40705 0.06565 0.0
H194 H 0.30543 0.38687 0.98701 0.0
N195 N 0.37329 0.36868 0.97858 0.0
N196 N 0.39697 0.34809 0.94547 0.0
C197 C 0.39845 0.36528 0.96803 0.0
C198 C 0.35515 0.35313 0.96204 0.0
C199 C 0.36965 0.3405 0.9416 0.0
C200 C 0.38966 0.44158 1.01949 0.0
O201 O 0.40968 0.46011 1.02674 0.0
H202 H 0.41777 0.37353 0.9781 0.0
H203 H 0.33328 0.34965 0.96568 0.0
O204 O 0.38096 0.35516 0.0401 0.0
H205 H 0.26725 0.40849 1.01826 0.0
H206 H 0.36087 0.32604 0.92577 0.0
Cu207 Cu 0.69711 0.36535 0.04572 0.0
N208 N 0.69896 0.39348 1.01849 0.0
N209 N 0.72241 0.42011 0.98827 0.0
C210 C 0.72102 0.39571 1.00239 0.0
C211 C 0.69959 0.43353 0.99532 0.0
C212 C 0.6852 0.41708 1.01405 0.0
O213 O 0.73226 0.3706 0.0684 0.0
C214 C 0.66682 0.32684 1.01314 0.0
O215 O 0.64923 0.34683 1.01564 0.0
H216 H 0.7366 0.3801 1.00246 0.0
H217 H 0.66724 0.42284 1.02508 0.0
N218 N 0.66759 0.36598 0.07012 0.0
N219 N 0.63492 0.34725 0.09719 0.0
C220 C 0.65577 0.34234 0.08025 0.0
C221 C 0.65406 0.38689 0.08148 0.0
C222 C 0.63386 0.37537 0.09824 0.0
C223 C 0.73832 0.39584 0.07606 0.0
O224 O 0.7204 0.41505 0.06967 0.0
H225 H 0.66243 0.32174 0.07511 0.0
H226 H 0.65835 0.40888 0.07772 0.0
O227 O 0.69129 0.3301 1.02477 0.0
H228 H 0.69465 0.45451 0.98902 0.0
H229 H 0.6191 0.38676 0.10961 0.0
Cu230 Cu 0.73114 0.73631 0.05323 0.0
N231 N 0.73269 0.76767 0.0764 0.0
N232 N 0.71663 0.8045 0.09794 0.0
C233 C 0.71023 0.77927 0.08624 0.0
C234 C 0.74432 0.80885 0.09569 0.0
C235 C 0.75423 0.78596 0.08244 0.0
O236 O 0.69877 0.74009 1.02662 0.0
C237 C 0.7519 0.70086 0.09446 0.0
O238 O 0.77061 0.72169 0.09611 0.0
H239 H 0.68924 0.77035 0.08283 0.0
H240 H 0.77531 0.78352 0.07634 0.0
N241 N 0.763 0.73589 0.03282 0.0
N242 N 0.79871 0.71896 1.01124 0.0
C243 C 0.77689 0.71298 0.02709 0.0
C244 C 0.77638 0.75718 1.02014 0.0
C245 C 0.79844 0.74677 1.00673 0.0
C246 C 0.6953 0.76399 1.01528 0.0
O247 O 0.71346 0.78457 1.02174 0.0
H248 H 0.77056 0.6922 0.03377 0.0
H249 H 0.77039 0.77868 1.02042 0.0
O250 O 0.73116 0.70263 0.07678 0.0
H251 H 0.7563 0.82761 0.1022 0.0
H252 H 0.81306 0.75873 0.99459 0.0
Cu253 Cu 0.36829 0.72707 0.03096 0.0
N254 N 0.33413 0.72788 1.0106 0.0
N255 N 0.2979 0.7123 0.98295 0.0
C256 C 0.32282 0.70634 0.99524 0.0
C257 C 0.29336 0.73871 0.99094 0.0
C258 C 0.31588 0.74835 1.00789 0.0
O259 O 0.3654 0.69641 0.05753 0.0
C260 C 0.39583 0.74292 0.98531 0.0
O261 O 0.37755 0.76235 0.98736 0.0
H262 H 0.33239 0.68638 0.9938 0.0
H263 H 0.31865 0.76874 1.01764 0.0
N264 N 0.37687 0.76016 0.05108 0.0
N265 N 0.40283 0.79482 0.07195 0.0
C266 C 0.40252 0.77246 0.05473 0.0
C267 C 0.36034 0.77539 0.06642 0.0
C268 C 0.37634 0.79675 0.0794 0.0
C269 C 0.34463 0.69743 0.0729 0.0
O270 O 0.32769 0.71804 0.06918 0.0
H271 H 0.42075 0.76472 0.04546 0.0
H272 H 0.33826 0.77123 0.0683 0.0
O273 O 0.39637 0.72359 1.00356 0.0
H274 H 0.27509 0.75021 0.985 0.0
H275 H 0.36903 0.81261 0.09304 0.0
Cu276 Cu 0.87619 0.54403 0.88905 0.0
N277 N 0.90478 0.52141 0.87881 0.0
N278 N 0.93398 0.50231 0.8501 0.0
C279 C 0.90922 0.5142 0.85225 0.0
C280 C 0.94551 0.5019 0.87641 0.0
C281 C 0.92753 0.5138 0.89403 0.0
O282 O 0.87768 0.57524 0.8629 0.0
C283 C 0.84058 0.50091 0.90504 0.0
O284 O 0.86474 0.49231 0.91493 0.0
H285 H 0.89529 0.51923 0.83465 0.0
H286 H 0.93154 0.51787 0.91608 0.0
N287 N 0.88239 0.55901 0.92498 0.0
N288 N 0.87643 0.58829 0.96032 0.0
C289 C 0.87292 0.58376 0.93255 0.0
C290 C 0.89207 0.54721 0.94887 0.0
C291 C 0.88847 0.56531 0.97074 0.0
C292 C 0.89907 0.59178 0.86691 0.0
O293 O 0.91681 0.58704 0.888 0.0
H294 H 0.86204 0.59737 0.91808 0.0
H295 H 0.89975 0.52638 0.95056 0.0
O296 O 0.84044 0.52297 0.89014 0.0
H297 H 0.96578 0.49419 0.88244 0.0
H298 H 0.89343 0.5614 0.99265 0.0
Cu299 Cu 0.5576 0.84264 0.8515 0.0
N300 N 0.53123 0.81282 0.85012 0.0
N301 N 0.4955 0.78712 0.86553 0.0
C302 C 0.50872 0.81247 0.86555 0.0
C303 C 0.5101 0.77072 0.84932 0.0
C304 C 0.53209 0.78679 0.83951 0.0
O305 O 0.57902 0.84031 0.88776 0.0
C306 C 0.52253 0.87728 0.82081 0.0
O307 O 0.52191 0.85505 0.80462 0.0
H308 H 0.50326 0.83 0.87816 0.0
H309 H 0.54847 0.77954 0.82708 0.0
N310 N 0.58344 0.8412 0.82397 0.0
N311 N 0.61661 0.85903 0.79745 0.0
C312 C 0.59409 0.86429 0.81187 0.0
C313 C 0.59972 0.82041 0.81689 0.0
C314 C 0.62028 0.83139 0.80049 0.0
C315 C 0.58761 0.81627 0.89497 0.0
O316 O 0.58121 0.79487 0.87837 0.0
H317 H 0.58685 0.885 0.81557 0.0
H318 H 0.59797 0.79924 0.82459 0.0
O319 O 0.53707 0.87685 0.844 0.0
H320 H 0.50572 0.74862 0.84563 0.0
H321 H 0.63728 0.82021 0.79251 0.0
Cu322 Cu 0.20209 0.529 0.89329 0.0
N323 N 0.16447 0.53738 0.8908 0.0
N324 N 0.12545 0.55498 0.87208 0.0
C325 C 0.15277 0.55133 0.86915 0.0
C326 C 0.11968 0.54273 0.89661 0.0
C327 C 0.14379 0.53163 0.90801 0.0
O328 O 0.20603 0.50455 0.86172 0.0
C329 C 0.21696 0.58339 0.9085 0.0
O330 O 0.19372 0.57981 0.9215 0.0
H331 H 0.1644 0.55943 0.85198 0.0
H332 H 0.14609 0.52041 0.9275 0.0
N333 N 0.21367 0.51038 0.92578 0.0
N334 N 0.24374 0.48805 0.95409 0.0
C335 C 0.23651 0.4951 0.92751 0.0
C336 C 0.20602 0.51322 0.9522 0.0
C337 C 0.22454 0.49937 0.96976 0.0
C338 C 0.19337 0.48077 0.86364 0.0
O339 O 0.18215 0.47421 0.8873 0.0
H340 H 0.24876 0.49103 0.90975 0.0
H341 H 0.18929 0.52583 0.95846 0.0
O342 O 0.22461 0.56368 0.89313 0.0
H343 H 0.09955 0.542 0.90572 0.0
H344 H 0.22447 0.49865 0.99233 0.0
Cu345 Cu 0.56588 0.20431 0.86092 0.0
N346 N 0.54559 0.23721 0.85793 0.0
N347 N 0.5134 0.2676 0.86893 0.0
C348 C 0.52124 0.2408 0.87007 0.0
C349 C 0.53377 0.28149 0.85554 0.0
C350 C 0.55357 0.26274 0.84885 0.0
O351 O 0.59101 0.21055 0.89416 0.0
C352 C 0.5192 0.17316 0.8442 0.0
O353 O 0.52082 0.19204 0.82442 0.0
H354 H 0.51025 0.22427 0.88092 0.0
H355 H 0.57299 0.26763 0.83917 0.0
N356 N 0.58644 0.1954 0.82961 0.0
N357 N 0.61416 0.17115 0.80273 0.0
C358 C 0.60365 0.17387 0.82829 0.0
C359 C 0.58587 0.20668 0.80388 0.0
C360 C 0.6029 0.19185 0.78734 0.0
C361 C 0.6151 0.2223 0.89169 0.0
O362 O 0.6238 0.22685 0.86651 0.0
H363 H 0.60787 0.16011 0.84575 0.0
H364 H 0.57366 0.22424 0.79748 0.0
O365 O 0.53801 0.17379 0.86405 0.0
H366 H 0.53459 0.30369 0.85132 0.0
H367 H 0.60684 0.19621 0.76571 0.0
Cu368 Cu 0.86306 0.52156 0.21263 0.0
N369 N 0.83148 0.54342 0.21123 0.0
N370 N 0.8051 0.57748 0.19347 0.0
C371 C 0.83123 0.56929 0.20008 0.0
C372 C 0.78818 0.55585 0.20092 0.0
C373 C 0.80447 0.53486 0.21168 0.0
O374 O 0.85941 0.50171 0.17645 0.0
C375 C 0.89993 0.55647 0.24479 0.0
O376 O 0.88338 0.54714 0.26396 0.0
H377 H 0.85 0.58079 0.19456 0.0
H378 H 0.79719 0.51403 0.21722 0.0
N379 N 0.86466 0.49495 0.24143 0.0
N380 N 0.88241 0.46024 0.26721 0.0
C381 C 0.88747 0.48043 0.24825 0.0
C382 C 0.84447 0.48391 0.25694 0.0
C383 C 0.85534 0.46247 0.27282 0.0
C384 C 0.85414 0.47533 0.17427 0.0
O385 O 0.85764 0.45956 0.19642 0.0
H386 H 0.90695 0.48364 0.23817 0.0
H387 H 0.82316 0.49031 0.2561 0.0
O388 O 0.89538 0.5477 0.21962 0.0
H389 H 0.76571 0.55469 0.19767 0.0
H390 H 0.84401 0.44926 0.28701 0.0
Cu391 Cu 0.54951 0.9441 0.16765 0.0
N392 N 0.57812 0.94298 0.14315 0.0
N393 N 0.61515 0.92619 0.12379 0.0
C394 C 0.59613 0.92236 0.14324 0.0
C395 C 0.60892 0.95047 0.11106 0.0
C396 C 0.58595 0.96081 0.12309 0.0
O397 O 0.52444 0.91147 0.16138 0.0
C398 C 0.58597 0.96411 0.21035 0.0
O399 O 0.59261 0.98156 0.1904 0.0
H400 H 0.59536 0.90505 0.15769 0.0
H401 H 0.57573 0.97987 0.11763 0.0
N402 N 0.52806 0.97524 0.16278 0.0
N403 N 0.4949 1.0037 0.17422 0.0
C404 C 0.51535 0.98724 0.18373 0.0
C405 C 0.51545 0.98459 0.13906 0.0
C406 C 0.49486 1.00218 0.14608 0.0
C407 C 0.51841 0.90337 0.13635 0.0
O408 O 0.53031 0.91648 0.11578 0.0
H409 H 0.51893 0.98152 0.20544 0.0
H410 H 0.51919 0.97717 0.11831 0.0
O411 O 0.5668 0.94535 0.20516 0.0
H412 H 0.61984 0.95985 0.09402 0.0
H413 H 0.4798 1.01148 0.13172 0.0
Cu414 Cu 0.2141 0.54353 0.19977 0.0
N415 N 0.21136 0.52159 0.23197 0.0
N416 N 0.19347 0.49114 0.26229 0.0
C417 C 0.19198 0.50102 0.23586 0.0
C418 C 0.21466 0.5061 0.27555 0.0
C419 C 0.22566 0.52485 0.25678 0.0
O420 O 0.18484 0.57101 0.20107 0.0
C421 C 0.23073 0.49968 0.16731 0.0
O422 O 0.24446 0.49509 0.19119 0.0
H423 H 0.17649 0.4941 0.21981 0.0
H424 H 0.24244 0.54026 0.26112 0.0
N425 N 0.24829 0.56347 0.19965 0.0
N426 N 0.27972 0.59432 0.1837 0.0
C427 C 0.2524 0.58728 0.18536 0.0
C428 C 0.27394 0.55513 0.20747 0.0
C429 C 0.29344 0.57415 0.19755 0.0
C430 C 0.18742 0.58783 0.22192 0.0
O431 O 0.20919 0.58578 0.23945 0.0
H432 H 0.23569 0.59813 0.17464 0.0
H433 H 0.2782 0.5358 0.21818 0.0
O434 O 0.21369 0.51949 0.16627 0.0
H435 H 0.2217 0.50367 0.29721 0.0
H436 H 0.31587 0.57279 0.19955 0.0
Cu437 Cu 0.49899 0.20904 0.20766 0.0
N438 N 0.47422 0.2083 0.17629 0.0
N439 N 0.44937 0.22714 0.14099 0.0
C440 C 0.4667 0.232 0.16363 0.0
C441 C 0.44543 0.1991 0.13942 0.0
C442 C 0.46096 0.18745 0.16125 0.0
O443 O 0.52303 0.24293 0.20289 0.0
C444 C 0.46561 0.17998 0.24286 0.0
O445 O 0.46647 0.16295 0.22148 0.0
H446 H 0.47387 0.25257 0.17105 0.0
H447 H 0.46258 0.16542 0.16557 0.0
N448 N 0.52276 0.17939 0.20988 0.0
N449 N 0.54962 0.15124 0.23541 0.0
C450 C 0.53999 0.17709 0.2326 0.0
C451 C 0.52176 0.15418 0.19726 0.0
C452 C 0.5383 0.13661 0.21318 0.0
C453 C 0.5365 0.24159 0.18061 0.0
O454 O 0.53356 0.21843 0.16578 0.0
H455 H 0.54279 0.19323 0.24849 0.0
H456 H 0.50809 0.14821 0.17941 0.0
O457 O 0.47775 0.20423 0.24156 0.0
H458 H 0.4328 0.18784 0.12336 0.0
H459 H 0.54037 0.11448 0.20968 0.0
Cu460 Cu 0.85861 0.84598 0.53231 0.0
N461 N 0.86808 0.81738 0.5571 0.0
N462 N 0.89557 0.79045 0.5837 0.0
C463 C 0.89444 0.81173 0.56528 0.0
C464 C 0.86875 0.78233 0.5872 0.0
C465 C 0.85182 0.79908 0.57083 0.0
O466 O 0.88564 0.84614 0.50286 0.0
C467 C 0.83382 0.88393 0.56704 0.0
O468 O 0.81506 0.86316 0.56681 0.0
H469 H 0.91245 0.82323 0.55789 0.0
H470 H 0.82929 0.79835 0.56957 0.0
N471 N 0.82359 0.8399 0.51425 0.0
N472 N 0.78388 0.85342 0.49323 0.0
C473 C 0.81021 0.86098 0.50198 0.0
C474 C 0.80528 0.8178 0.51296 0.0
C475 C 0.78057 0.82618 0.50007 0.0
C476 C 0.88598 0.82318 0.48921 0.0
O477 O 0.86887 0.80252 0.49614 0.0
H478 H 0.81921 0.88206 0.50131 0.0
H479 H 0.80919 0.79742 0.52161 0.0
O480 O 0.85599 0.88103 0.55379 0.0
H481 H 0.86185 0.76619 0.60135 0.0
H482 H 0.76155 0.81345 0.49666 0.0
Cu483 Cu 0.21996 0.8497 0.5244 0.0
N484 N 0.25031 0.85691 0.50182 0.0
N485 N 0.28032 0.88313 0.47747 0.0
C486 C 0.25937 0.88298 0.4952 0.0
C487 C 0.28452 0.85585 0.47261 0.0
C488 C 0.26601 0.83973 0.4877 0.0
O489 O 0.22172 0.88047 0.55175 0.0
C490 C 0.18363 0.81972 0.48779 0.0
O491 O 0.20353 0.80206 0.49234 0.0
H492 H 0.25011 0.90157 0.50275 0.0
H493 H 0.26392 0.81715 0.48802 0.0
N494 N 0.22096 0.81764 0.54685 0.0
N495 N 0.20379 0.78806 0.57838 0.0
C496 C 0.19812 0.80812 0.5595 0.0
C497 C 0.24203 0.80287 0.55796 0.0
C498 C 0.23146 0.78467 0.57763 0.0
C499 C 0.24477 0.88105 0.56643 0.0
O500 O 0.26336 0.86297 0.56041 0.0
H501 H 0.17792 0.81706 0.55612 0.0
H502 H 0.26366 0.80607 0.55319 0.0
O503 O 0.18626 0.84379 0.49959 0.0
H504 H 0.29987 0.84807 0.45918 0.0
H505 H 0.24328 0.77061 0.59083 0.0
Cu506 Cu 0.23015 0.16782 0.55479 0.0
N507 N 0.21156 0.18175 0.5848 0.0
N508 N 0.18938 0.21267 0.60956 0.0
C509 C 0.20757 0.20899 0.58951 0.0
C510 C 0.18203 0.18665 0.61812 0.0
C511 C 0.19574 0.16761 0.60278 0.0
O512 O 0.22568 0.19431 0.52362 0.0
C513 C 0.27812 0.15758 0.59151 0.0
O514 O 0.26479 0.17036 0.6107 0.0
H515 H 0.21625 0.22563 0.57696 0.0
H516 H 0.1933 0.14508 0.60369 0.0
N517 N 0.21316 0.13455 0.54107 0.0
N518 N 0.20957 0.0989 0.51091 0.0
C519 C 0.22693 0.11704 0.52543 0.0
C520 C 0.18597 0.1269 0.53673 0.0
C521 C 0.18368 0.10502 0.51774 0.0
C522 C 0.20045 0.20081 0.51817 0.0
O523 O 0.1811 0.19024 0.53386 0.0
H524 H 0.24901 0.11971 0.52221 0.0
H525 H 0.16893 0.13795 0.54474 0.0
O526 O 0.26822 0.15747 0.56623 0.0
H527 H 0.16714 0.18164 0.6337 0.0
H528 H 0.16456 0.09577 0.50815 0.0
Cu529 Cu 0.87979 0.23041 0.54285 0.0
N530 N 0.84639 0.22854 0.521 0.0
N531 N 0.80912 0.20746 0.4987 0.0
C532 C 0.82799 0.20651 0.52052 0.0
C533 C 0.81581 0.23114 0.4849 0.0
C534 C 0.83884 0.24412 0.49873 0.0
O535 O 0.88087 0.19609 0.56473 0.0
C536 C 0.91716 0.26111 0.51108 0.0
O537 O 0.90169 0.28143 0.51875 0.0
H538 H 0.82973 0.18898 0.53464 0.0
H539 H 0.85027 0.26262 0.49201 0.0
N540 N 0.8829 0.25949 0.5689 0.0
N541 N 0.9035 0.28416 0.60446 0.0
C542 C 0.90453 0.2616 0.58775 0.0
C543 C 0.86716 0.28136 0.57378 0.0
C544 C 0.87989 0.29669 0.59585 0.0
C545 C 0.86615 0.19579 0.58611 0.0
O546 O 0.85145 0.21753 0.59124 0.0
H547 H 0.92068 0.24655 0.58906 0.0
H548 H 0.84811 0.28597 0.56198 0.0
O549 O 0.91104 0.23617 0.5188 0.0
H550 H 0.80545 0.23803 0.46567 0.0
H551 H 0.87271 0.31591 0.6043 0.0
H552 H 0.18939 0.10331 0.45795 0.0
H553 H 0.2489 0.06113 0.51117 0.0
H554 H 0.27041 0.04259 0.47018 0.0
H555 H 0.27556 0.04327 0.41972 0.0
H556 H 0.21844 0.08838 0.36613 0.0
H557 H 0.19225 0.10063 0.40658 0.0
C558 C 0.20647 0.08932 0.46037 0.0
C559 C 0.21751 0.08322 0.48732 0.0
C560 C 0.21937 0.07979 0.43671 0.0
C561 C 0.24008 0.06571 0.49049 0.0
C562 C 0.25246 0.0554 0.46713 0.0
C563 C 0.2574 0.05582 0.41688 0.0
C564 C 0.24927 0.06542 0.39007 0.0
C565 C 0.2429 0.06316 0.4402 0.0
C566 C 0.22515 0.08085 0.38658 0.0
C567 C 0.21027 0.08793 0.40971 0.0
H568 H 1.01538 0.27013 0.42901 0.0
H569 H 1.0065 0.35821 0.44343 0.0
H570 H 0.97041 0.34719 0.4765 0.0
H571 H 0.93957 0.3125 0.4989 0.0
H572 H 0.94881 0.22449 0.48408 0.0
H573 H 0.98671 0.2356 0.45338 0.0
C574 C 1.00569 0.287 0.43947 0.0
C575 C 1.01344 0.31501 0.43354 0.0
C576 C 0.98492 0.2805 0.45817 0.0
C577 C 1.00093 0.33652 0.44761 0.0
C578 C 0.98021 0.3302 0.46639 0.0
C579 C 0.94989 0.2957 0.48902 0.0
C580 C 0.94111 0.26764 0.49357 0.0
C581 C 0.97171 0.30226 0.47142 0.0
C582 C 0.95501 0.2462 0.48087 0.0
C583 C 0.97668 0.25256 0.4633 0.0
H584 H 0.79362 0.89984 0.46366 0.0
H585 H 0.72782 0.84952 0.49875 0.0
H586 H 0.69436 0.88502 0.48567 0.0
H587 H 0.6847 0.93191 0.46679 0.0
H588 H 0.75224 0.98278 0.4351 0.0
H589 H 0.78418 0.94569 0.44472 0.0
C590 C 0.77198 0.89663 0.46857 0.0
C591 C 0.76334 0.87223 0.48248 0.0
C592 C 0.75321 0.91739 0.46182 0.0
C593 C 0.73503 0.86804 0.48793 0.0
C594 C 0.71596 0.88848 0.48071 0.0
C595 C 0.70643 0.93493 0.46218 0.0
C596 C 0.71594 0.96017 0.45014 0.0
C597 C 0.72496 0.91352 0.46815 0.0
C598 C 0.74414 0.96352 0.44393 0.0
C599 C 0.76252 0.94233 0.44955 0.0
H600 H 0.16577 0.76674 0.47394 0.0
H601 H 0.14656 0.85282 0.45917 0.0
H602 H 0.10933 0.83779 0.42472 0.0
H603 H 0.08431 0.80036 0.39687 0.0
H604 H 0.10271 0.71422 0.41248 0.0
H605 H 0.13817 0.72912 0.44879 0.0
C606 C 0.15336 0.78227 0.46329 0.0
C607 C 0.1592 0.81097 0.46891 0.0
C608 C 0.13195 0.77343 0.44365 0.0
C609 C 0.14258 0.83069 0.45525 0.0
C610 C 0.12137 0.82207 0.43547 0.0
C611 C 0.09596 0.78477 0.4083 0.0
C612 C 0.09105 0.75615 0.4017 0.0
C613 C 0.11619 0.79353 0.42919 0.0
C614 C 0.10605 0.7363 0.41707 0.0
C615 C 0.12641 0.74486 0.43775 0.0
H616 H 0.28653 0.87703 0.60559 0.0
H617 H 0.2185 0.92907 0.58093 0.0
H618 H 0.23304 0.96191 0.61908 0.0
H619 H 0.26691 0.97667 0.65812 0.0
H620 H 0.33438 0.92334 0.68141 0.0
H621 H 0.31826 0.8902 0.64485 0.0
C622 C 0.27472 0.89553 0.60842 0.0
C623 C 0.25155 0.90068 0.59018 0.0
C624 C 0.28325 0.91415 0.63011 0.0
C625 C 0.23641 0.9246 0.5946 0.0
C626 C 0.2448 0.94339 0.61637 0.0
C627 C 0.27784 0.95763 0.65543 0.0
C628 C 0.30206 0.95266 0.67246 0.0
C629 C 0.26842 0.93851 0.63412 0.0
C630 C 0.31606 0.92795 0.66841 0.0
C631 C 0.30677 0.90891 0.64755 0.0
H632 H 0.15438 0.33486 0.63532 0.0
H633 H 0.07843 0.28973 0.6548 0.0
H634 H 0.09858 0.24561 0.64287 0.0
H635 H 0.13788 0.21976 0.62742 0.0
H636 H 0.21425 0.26444 0.60837 0.0
H637 H 0.19385 0.30877 0.61934 0.0
C638 C 0.14218 0.31539 0.63659 0.0
C639 C 0.11498 0.31556 0.64601 0.0
C640 C 0.15403 0.28999 0.62992 0.0
C641 C 0.09952 0.29011 0.64791 0.0
C642 C 0.11101 0.26488 0.64105 0.0
C643 C 0.15021 0.23913 0.62599 0.0
C644 C 0.17763 0.23869 0.6172 0.0
C645 C 0.13834 0.26453 0.63232 0.0
C646 C 0.19305 0.26415 0.61491 0.0
C647 C 0.1814 0.28953 0.62123 0.0
H648 H 0.86211 0.19684 0.64162 0.0
H649 H 0.86392 0.14028 0.57174 0.0
H650 H 0.85046 0.10095 0.60172 0.0
H651 H 0.83322 0.08397 0.6468 0.0
H652 H 0.8323 0.14117 0.71633 0.0
H653 H 0.85075 0.17899 0.68766 0.0
C654 C 0.86002 0.17579 0.63311 0.0
C655 C 0.86371 0.17135 0.60458 0.0
C656 C 0.85225 0.15353 0.65037 0.0
C657 C 0.86129 0.14407 0.59372 0.0
C658 C 0.85336 0.12169 0.6108 0.0
C659 C 0.83736 0.10468 0.65564 0.0
C660 C 0.83114 0.10989 0.68353 0.0
C661 C 0.84799 0.12635 0.63897 0.0
C662 C 0.83702 0.13664 0.69499 0.0
C663 C 0.84739 0.1583 0.67855 0.0
H664 H 1.00722 0.77003 0.65233 0.0
H665 H 0.9688 0.68755 0.6597 0.0
H666 H 0.92909 0.70126 0.62918 0.0
H667 H 0.90373 0.73825 0.60343 0.0
H668 H 0.94299 0.82062 0.59755 0.0
H669 H 0.98389 0.80538 0.62439 0.0
C670 C 0.99031 0.7549 0.64703 0.0
C671 C 0.99085 0.72788 0.65844 0.0
C672 C 0.96755 0.76304 0.62992 0.0
C673 C 0.96894 0.70845 0.6511 0.0
C674 C 0.94613 0.71638 0.63386 0.0
C675 C 0.92127 0.75279 0.60803 0.0
C676 C 0.92018 0.7806 0.59851 0.0
C677 C 0.9449 0.74386 0.62369 0.0
C678 C 0.94329 0.79908 0.60429 0.0
C679 C 0.96669 0.79042 0.61981 0.0
H680 H 0.41778 0.33163 0.06979 0.0
H681 H 0.34222 0.28109 0.0531 0.0
H682 H 0.36131 0.24349 0.08172 0.0
H683 H 0.39948 0.22524 0.1122 0.0
H684 H 0.47489 0.27617 0.12783 0.0
H685 H 0.45586 0.31327 0.09893 0.0
C686 C 0.40539 0.31244 0.07244 0.0
C687 C 0.37857 0.30926 0.05941 0.0
C688 C 0.41652 0.29091 0.08874 0.0
C689 C 0.36293 0.28413 0.06294 0.0
C690 C 0.37384 0.26259 0.07928 0.0
C691 C 0.41177 0.24436 0.10899 0.0
C692 C 0.43843 0.24804 0.12237 0.0
C693 C 0.40064 0.26574 0.09229 0.0
C694 C 0.45411 0.27301 0.11821 0.0
C695 C 0.4433 0.29421 0.10158 0.0
H696 H 0.83921 0.4205 0.16357 0.0
H697 H 0.83119 0.50336 0.12946 0.0
H698 H 0.79628 0.48514 0.09446 0.0
H699 H 0.76416 0.44701 0.07724 0.0
H700 H 0.77135 0.36414 0.11114 0.0
H701 H 0.81063 0.38101 0.14245 0.0
C702 C 0.83022 0.43455 0.14817 0.0
C703 C 0.8377 0.46342 0.14946 0.0
C704 C 0.80974 0.42397 0.12832 0.0
C705 C 0.82593 0.48114 0.12911 0.0
C706 C 0.80576 0.47074 0.10917 0.0
C707 C 0.77448 0.43253 0.0913 0.0
C708 C 0.76455 0.40442 0.0922 0.0
C709 C 0.79687 0.44242 0.1092 0.0
C710 C 0.7785 0.38585 0.11011 0.0
C711 C 0.80088 0.39556 0.12809 0.0
H712 H 0.71911 0.8604 0.09114 0.0
H713 H 0.66949 0.79216 0.12384 0.0
H714 H 0.63338 0.82417 0.13481 0.0
H715 H 0.61518 0.87084 0.13317 0.0
H716 H 0.66438 0.9397 0.10085 0.0
H717 H 0.70132 0.90804 0.09117 0.0
C718 C 0.7006 0.8527 0.10111 0.0
C719 C 0.69691 0.824 0.10674 0.0
C720 C 0.67976 0.87121 0.10701 0.0
C721 C 0.67262 0.81415 0.11918 0.0
C722 C 0.65201 0.83242 0.12543 0.0
C723 C 0.63412 0.87912 0.12442 0.0
C724 C 0.637 0.90769 0.11789 0.0
C725 C 0.65524 0.8609 0.11912 0.0
C726 C 0.66147 0.91778 0.10584 0.0
C727 C 0.68269 0.89971 0.10048 0.0
H728 H 0.32493 0.59366 0.15247 0.0
H729 H 0.25964 0.64547 0.17803 0.0
H730 H 0.27517 0.68252 0.14684 0.0
H731 H 0.3052 0.699 0.11066 0.0
H732 H 0.37016 0.64766 0.08322 0.0
H733 H 0.35708 0.61159 0.11703 0.0
C734 C 0.31448 0.61327 0.15148 0.0
C735 C 0.2911 0.61687 0.16743 0.0
C736 C 0.32331 0.63437 0.13307 0.0
C737 C 0.27748 0.6422 0.16574 0.0
C738 C 0.28636 0.66335 0.14795 0.0
C739 C 0.31666 0.67999 0.11203 0.0
C740 C 0.3385 0.67596 0.09423 0.0
C741 C 0.30888 0.65944 0.13118 0.0
C742 C 0.35321 0.65127 0.0966 0.0
C743 C 0.3457 0.63064 0.1159 0.0
H744 H 0.39631 0.7807 0.94374 0.0
H745 H 0.43937 0.70916 0.97543 0.0
H746 H 0.47286 0.71477 0.93874 0.0
H747 H 0.49171 0.74248 0.89952 0.0
H748 H 0.44915 0.81508 0.87046 0.0
H749 H 0.41332 0.80646 0.90409 0.0
C750 C 0.41291 0.76616 0.94266 0.0
C751 C 0.41545 0.74467 0.96249 0.0
C752 C 0.43211 0.76974 0.92188 0.0
C753 C 0.43702 0.72597 0.96052 0.0
C754 C 0.45616 0.72919 0.93954 0.0
C755 C 0.47422 0.75594 0.9003 0.0
C756 C 0.47281 0.77931 0.88258 0.0
C757 C 0.45414 0.75127 0.92033 0.0
C758 C 0.45045 0.79702 0.88397 0.0
C759 C 0.43011 0.79214 0.90321 0.0
H760 H 0.35761 0.42923 0.97247 0.0
H761 H 0.3596 0.47623 0.04936 0.0
H762 H 0.31346 0.49364 0.03682 0.0
H763 H 0.27336 0.49678 1.00312 0.0
H764 H 0.27143 0.44998 0.92598 0.0
H765 H 0.31662 0.4312 0.93939 0.0
C766 C 0.34779 0.44321 0.98642 0.0
C767 C 0.36161 0.45122 1.01191 0.0
C768 C 0.32141 0.45335 0.97891 0.0
C769 C 0.34909 0.4697 0.02971 0.0
C770 C 0.32276 0.47961 1.02256 0.0
C771 C 0.2826 0.48218 0.98942 0.0
C772 C 0.26906 0.47498 0.96347 0.0
C773 C 0.30876 0.47167 0.99715 0.0
C774 C 0.28158 0.45621 0.94586 0.0
C775 C 0.30744 0.44546 0.95351 0.0
H776 H 0.59606 0.23641 0.94231 0.0
H777 H 0.67015 0.23875 0.89536 0.0
H778 H 0.69465 0.26821 0.93126 0.0
H779 H 0.69304 0.29865 0.97301 0.0
H780 H 0.6176 0.29878 1.01761 0.0
H781 H 0.59594 0.26295 0.98621 0.0
C782 C 0.61777 0.24279 0.94026 0.0
C783 C 0.63115 0.23546 0.91606 0.0
C784 C 0.63152 0.26052 0.9606 0.0
C785 C 0.65924 0.24421 0.91367 0.0
C786 C 0.6733 0.26116 0.93419 0.0
C787 C 0.67218 0.2902 0.97622 0.0
C788 C 0.65694 0.30126 0.99758 0.0
C789 C 0.65939 0.27024 0.95733 0.0
C790 C 0.62971 0.29056 1.00126 0.0
C791 C 0.61725 0.27015 0.98324 0.0
H792 H 0.81389 0.67036 0.0344 0.0
H793 H 0.82476 0.72317 0.96262 0.0
H794 H 0.85238 0.68794 0.94153 0.0
H795 H 0.87034 0.64075 0.94191 0.0
H796 H 0.85789 0.58715 1.01279 0.0
H797 H 0.83429 0.62417 0.03599 0.0
C798 C 0.82228 0.67414 1.01413 0.0
C799 C 0.81698 0.69924 0.99997 0.0
C800 C 0.83785 0.65364 1.00199 0.0
C801 C 0.8286 0.70412 0.97403 0.0
C802 C 0.84426 0.6839 0.96188 0.0
C803 C 0.86249 0.6372 0.96245 0.0
C804 C 0.86559 0.61111 0.97544 0.0
C805 C 0.84853 0.65839 0.97543 0.0
C806 C 0.85592 0.60704 1.00237 0.0
C807 C 0.84221 0.62814 1.01555 0.0
H808 H 0.1169 0.38764 0.29198 0.0
H809 H 0.12314 0.42687 0.37336 0.0
H810 H 0.15297 0.46481 0.3551 0.0
H811 H 0.17756 0.48645 0.31563 0.0
H812 H 0.16991 0.44638 0.23467 0.0
H813 H 0.14021 0.40911 0.25319 0.0
C814 C 0.12476 0.40442 0.30588 0.0
C815 C 0.11791 0.40428 0.3341 0.0
C816 C 0.14164 0.42602 0.29524 0.0
C817 C 0.12809 0.42644 0.35158 0.0
C818 C 0.14519 0.44808 0.34113 0.0
C819 C 0.16951 0.46945 0.30214 0.0
C820 C 0.17598 0.46923 0.27374 0.0
C821 C 0.15221 0.44802 0.31298 0.0
C822 C 0.16503 0.44726 0.25644 0.0
C823 C 0.14815 0.42586 0.26707 0.0
H824 H 0.12576 0.55978 0.81591 0.0
H825 H 0.0847 0.58742 0.88823 0.0
H826 H 0.05827 0.62001 0.85935 0.0
H827 H 0.05069 0.64418 0.8148 0.0
H828 H 0.09091 0.61701 0.74187 0.0
H829 H 0.11363 0.5804 0.76955 0.0
C830 C 0.11085 0.57281 0.82522 0.0
C831 C 0.10745 0.57145 0.85427 0.0
C832 C 0.09571 0.59159 0.80841 0.0
C833 C 0.08765 0.58801 0.866 0.0
C834 C 0.07266 0.60677 0.84951 0.0
C835 C 0.0641 0.62992 0.80487 0.0
C836 C 0.06942 0.63338 0.77647 0.0
C837 C 0.07706 0.60922 0.82089 0.0
C838 C 0.08648 0.61463 0.76369 0.0
C839 C 0.09963 0.59391 0.77958 0.0
H840 H 0.43652 0.06685 0.83469 0.0
H841 H 0.39335 0.12162 0.7775 0.0
H842 H 0.42702 0.1598 0.79003 0.0
H843 H 0.47083 0.17619 0.81362 0.0
H844 H 0.51541 0.122 0.87034 0.0
H845 H 0.47887 0.08505 0.862 0.0
C846 C 0.43416 0.08734 0.82552 0.0
C847 C 0.41253 0.09143 0.80507 0.0
C848 C 0.454 0.10912 0.8325 0.0
C849 C 0.40994 0.11798 0.79308 0.0
C850 C 0.4292 0.13976 0.80021 0.0
C851 C 0.47254 0.15636 0.82436 0.0
C852 C 0.49601 0.1517 0.84227 0.0
C853 C 0.4517 0.13532 0.81927 0.0
C854 C 0.4976 0.12607 0.85637 0.0
C855 C 0.47676 0.10493 0.85151 0.0
H856 H 0.98879 0.50281 0.8404 0.0
H857 H 0.90697 0.48315 0.80239 0.0
H858 H 0.92769 0.46799 0.75971 0.0
H859 H 0.96926 0.45745 0.7343 0.0
H860 H 0.05099 0.47609 0.7728 0.0
H861 H 1.0302 0.49459 0.81416 0.0
C862 C 0.97549 0.49506 0.82286 0.0
C863 C 0.94635 0.49389 0.82475 0.0
C864 C 0.98757 0.48629 0.79841 0.0
C865 C 0.92943 0.48439 0.8015 0.0
C866 C 0.94128 0.47563 0.7771 0.0
C867 C 0.98248 0.46617 0.75147 0.0
C868 C 1.01164 0.46551 0.75049 0.0
C869 C 0.97034 0.47625 0.7754 0.0
C870 C 1.0285 0.47636 0.77316 0.0
C871 C 1.01662 0.48681 0.79681 0.0
H872 H 0.67979 0.96494 0.752 0.0
H873 H 0.75103 0.91734 0.77711 0.0
H874 H 0.72016 0.87864 0.79102 0.0
H875 H 0.67272 0.85875 0.79723 0.0
H876 H 0.60182 0.90652 0.77183 0.0
H877 H 0.63276 0.94449 0.75625 0.0
C878 C 0.68866 0.94601 0.76015 0.0
C879 C 0.71779 0.94421 0.76349 0.0
C880 C 0.67079 0.92376 0.76794 0.0
C881 C 0.72875 0.91958 0.77465 0.0
C882 C 0.71108 0.8973 0.78242 0.0
C883 C 0.66409 0.87726 0.78783 0.0
C884 C 0.63502 0.87984 0.78567 0.0
C885 C 0.68205 0.89919 0.77927 0.0
C886 C 0.62413 0.90417 0.77388 0.0
C887 C 0.6418 0.92587 0.765 0.0
H888 H 0.98331 0.66154 0.26176 0.0
H889 H 0.9791 0.6371 0.34809 0.0
H890 H 0.94914 0.59619 0.33386 0.0
H891 H 0.92188 0.56916 0.29704 0.0
H892 H 0.92721 0.5932 0.21067 0.0
H893 H 0.95928 0.63244 0.22477 0.0
C894 C 0.97595 0.64721 0.27752 0.0
C895 C 0.98318 0.6526 0.30605 0.0
C896 C 0.95893 0.62372 0.26914 0.0
C897 C 0.97385 0.63352 0.32607 0.0
C898 C 0.95663 0.61019 0.31791 0.0
C899 C 0.93021 0.58285 0.28124 0.0
C900 C 0.9219 0.57833 0.25277 0.0
C901 C 0.9487 0.60534 0.28953 0.0
C902 C 0.93322 0.59611 0.23263 0.0
C903 C 0.95145 0.61864 0.24073 0.0
H904 H 0.41739 0.03478 0.26844 0.0
H905 H 0.35423 1.00747 0.20571 0.0
H906 H 0.38998 1.00229 0.17195 0.0
H907 H 0.43961 1.00166 0.16161 0.0
H908 H 0.50241 1.02789 0.22486 0.0
H909 H 0.46624 0.03815 0.25696 0.0
C910 C 0.41122 1.02826 0.24728 0.0
C911 C 0.38304 1.0213 0.2398 0.0
C912 C 0.43189 1.02517 0.22805 0.0
C913 C 0.37575 1.01249 0.21225 0.0
C914 C 0.39619 1.00966 0.19286 0.0
C915 C 0.44529 1.01029 0.18216 0.0
C916 C 0.47358 1.01405 0.19095 0.0
C917 C 0.42438 1.0154 0.20071 0.0
C918 C 0.48072 1.02476 0.2178 0.0
C919 C 0.46008 0.03051 0.23613 0.0
H920 H 0.61041 0.13139 0.35188 0.0
H921 H 0.5649 0.0523 0.34357 0.0
H922 H 0.54474 0.06617 0.29768 0.0
H923 H 0.54076 0.10109 0.25983 0.0
H924 H 0.58883 0.17904 0.26774 0.0
H925 H 0.60775 0.16535 0.31375 0.0
C926 C 0.59557 0.11756 0.3402 0.0
C927 C 0.58836 0.09129 0.35116 0.0
C928 C 0.58509 0.12529 0.31361 0.0
C929 C 0.57006 0.0729 0.33556 0.0
C930 C 0.55886 0.08072 0.30932 0.0
C931 C 0.55578 0.11477 0.27143 0.0
C932 C 0.56347 0.14103 0.26045 0.0
C933 C 0.56647 0.10679 0.29799 0.0
C934 C 0.58259 0.1588 0.2759 0.0
C935 C 0.59328 0.15105 0.30221 0.0
H936 H 0.82928 0.98921 0.64658 0.0
H937 H 0.74099 0.96991 0.63473 0.0
H938 H 0.75018 0.93263 0.60174 0.0
H939 H 0.78353 0.90307 0.57936 0.0
H940 H 0.87175 0.92313 0.5902 0.0
H941 H 0.86237 0.9627 0.62041 0.0
C942 C 0.81198 0.97707 0.63654 0.0
C943 C 0.78442 0.98225 0.64337 0.0
C944 C 0.81747 0.95566 0.6176 0.0
C945 C 0.76232 0.9665 0.62987 0.0
C946 C 0.76762 0.94503 0.61114 0.0
C947 C 0.80075 0.91621 0.58818 0.0
C948 C 0.82841 0.90986 0.5828 0.0
C949 C 0.79514 0.93902 0.60535 0.0
C950 C 0.85035 0.92744 0.59401 0.0
C951 C 0.84496 0.95001 0.61137 0.0
H952 H 0.21348 0.77643 0.6331 0.0
H953 H 0.15009 0.77264 0.56603 0.0
H954 H 0.11544 0.75589 0.59834 0.0
H955 H 0.10262 0.74457 0.64614 0.0
H956 H 0.16559 0.74974 0.71369 0.0
H957 H 0.20079 0.76382 0.68096 0.0
C958 C 0.19218 0.77148 0.62556 0.0
C959 C 0.18435 0.77568 0.5972 0.0
C960 C 0.1722 0.76243 0.64445 0.0
C961 C 0.15654 0.76968 0.58778 0.0
C962 C 0.13674 0.76013 0.60625 0.0
C963 C 0.12409 0.74845 0.65366 0.0
C964 C 0.13135 0.74614 0.68241 0.0
C965 C 0.14422 0.75678 0.63471 0.0
C966 C 0.15928 0.75171 0.69178 0.0
C967 C 0.17949 0.75962 0.67302 0.0
H968 H 0.30983 0.15826 0.6406 0.0
H969 H 0.29646 0.11315 0.56265 0.0
H970 H 0.32638 0.07655 0.58054 0.0
H971 H 0.35181 0.05461 0.62031 0.0
H972 H 0.36598 0.10025 0.69791 0.0
H973 H 0.34076 0.13932 0.67806 0.0
C974 C 0.31387 0.14068 0.62732 0.0
C975 C 0.3006 0.13844 0.60037 0.0
C976 C 0.33113 0.11958 0.63778 0.0
C977 C 0.30633 0.11557 0.58343 0.0
C978 C 0.32334 0.09446 0.59374 0.0
C979 C 0.34986 0.07331 0.63273 0.0
C980 C 0.3606 0.0742 0.66074 0.0
C981 C 0.33518 0.09582 0.62118 0.0
C982 C 0.358 0.0988 0.67636 0.0
C983 C 0.34336 0.12117 0.66505 0.0
H984 H 0.89688 0.31756 0.64928 0.0
H985 H 0.95794 0.27162 0.60735 0.0
H986 H 0.99376 0.28698 0.64206 0.0
H987 H 1.00898 0.31619 0.68182 0.0
H988 H 0.94983 0.36555 0.72251 0.0
H989 H 0.91214 0.34579 0.69116 0.0
C990 C 0.91801 0.31097 0.64772 0.0
C991 C 0.92446 0.2933 0.62563 0.0
C992 C 0.93895 0.32041 0.66764 0.0
C993 C 0.952 0.28474 0.62423 0.0
C994 C 0.9727 0.29367 0.64405 0.0
C995 C 0.9878 0.32236 0.68425 0.0
C996 C 0.98234 0.34249 0.70442 0.0
C997 C 0.96651 0.31176 0.66559 0.0
C998 C 0.95469 0.35011 0.70715 0.0
C999 C 0.93314 0.33899 0.68907 0.0
H1000 H 0.72306 0.10579 0.48376 0.0
H1001 H 0.73675 0.121 0.3967 0.0
H1002 H 0.76845 0.16085 0.40968 0.0
H1003 H 0.79293 0.19098 0.44606 0.0
H1004 H 0.7796 0.17461 0.53288 0.0
H1005 H 0.74702 0.13568 0.51971 0.0
C1006 C 0.73293 0.11778 0.46755 0.0
C1007 C 0.72749 0.11034 0.43927 0.0
C1008 C 0.75116 0.14055 0.47516 0.0
C1009 C 0.74059 0.12617 0.41863 0.0
C1010 C 0.75867 0.14902 0.42604 0.0
C1011 C 0.78259 0.17909 0.46202 0.0
C1012 C 0.78861 0.18572 0.49044 0.0
C1013 C 0.76413 0.15641 0.45426 0.0
C1014 C 0.77543 0.16981 0.51092 0.0
C1015 C 0.7568 0.14757 0.50339 0.0
H1016 H 0.9727 0.81973 0.39319 0.0
H1017 H 0.93942 0.73468 0.38836 0.0
H1018 H 0.90821 0.74404 0.42537 0.0
H1019 H 0.89095 0.77559 0.45967 0.0
H1020 H 0.92374 0.86075 0.4663 0.0
H1021 H 0.95446 0.85221 0.42808 0.0
C1022 C 0.95839 0.80339 0.40007 0.0
C1023 C 0.9585 0.77644 0.38797 0.0
C1024 C 0.94052 0.80889 0.4218 0.0
C1025 C 0.94002 0.75543 0.39743 0.0
C1026 C 0.9221 0.76081 0.41859 0.0
C1027 C 0.90473 0.79244 0.45285 0.0
C1028 C 0.90493 0.81883 0.46601 0.0
C1029 C 0.92232 0.78733 0.43107 0.0
C1030 C 0.92309 0.84023 0.45668 0.0
C1031 C 0.94066 0.83533 0.43477 0.0
H1032 H 0.32894 1.00089 0.44135 0.0
H1033 H 0.34509 0.95431 0.36717 0.0
H1034 H 0.3276 0.91125 0.38876 0.0
H1035 H 0.30464 0.88723 0.42762 0.0
H1036 H 0.28778 0.93447 0.50114 0.0
H1037 H 0.30833 0.97663 0.48085 0.0
C1038 C 0.32909 0.98128 0.43 0.0
C1039 C 0.33845 0.98099 0.40261 0.0
C1040 C 0.31844 0.95663 0.44233 0.0
C1041 C 0.33809 0.95529 0.38826 0.0
C1042 C 0.32797 0.9306 0.40058 0.0
C1043 C 0.30579 0.90664 0.43936 0.0
C1044 C 0.29432 0.90754 0.46585 0.0
C1045 C 0.31762 0.93106 0.42744 0.0
C1046 C 0.29587 0.9331 0.48056 0.0
C1047 C 0.30782 0.95728 0.46902 0.0
H1048 H 0.15338 0.22882 0.51332 0.0
H1049 H 0.2272 0.21318 0.46955 0.0
H1050 H 0.20825 0.2388 0.42878 0.0
H1051 H 0.16911 0.2642 0.405 0.0
H1052 H 0.0961 0.27863 0.45064 0.0
H1053 H 0.11619 0.25472 0.4911 0.0
C1054 C 0.16551 0.23104 0.49493 0.0
C1055 C 0.19161 0.21893 0.49445 0.0
C1056 C 0.15442 0.24544 0.47177 0.0
C1057 C 0.2071 0.22241 0.47054 0.0
C1058 C 0.19614 0.23687 0.44716 0.0
C1059 C 0.15769 0.26196 0.42382 0.0
C1060 C 0.13113 0.27331 0.42479 0.0
C1061 C 0.16957 0.24816 0.44738 0.0
C1062 C 0.11665 0.27048 0.44941 0.0
C1063 C 0.12809 0.2567 0.47257 0.0
H1064 H 0.6779 0.8142 0.99613 0.0
H1065 H 0.66003 0.72542 0.98739 0.0
H1066 H 0.62417 0.73414 0.95058 0.0
H1067 H 0.59981 0.76673 0.9192 0.0
H1068 H 0.61725 0.85556 0.92801 0.0
H1069 H 0.65123 0.84705 0.96675 0.0
C1070 C 0.66611 0.7967 0.98629 0.0
C1071 C 0.67193 0.76909 0.99442 0.0
C1072 C 0.64548 0.80191 0.96514 0.0
C1073 C 0.65611 0.7468 0.9816 0.0
C1074 C 0.63564 0.75181 0.96047 0.0
C1075 C 0.61089 0.78433 0.92965 0.0
C1076 C 0.60608 0.81182 0.92045 0.0
C1077 C 0.63043 0.77924 0.95182 0.0
C1078 C 0.62046 0.83425 0.93457 0.0
C1079 C 0.64 0.82935 0.95665 0.0
H1080 H 0.31208 0.67097 0.94889 0.0
H1081 H 0.2416 0.71095 0.98083 0.0
H1082 H 0.20993 0.67589 0.95768 0.0
H1083 H 0.20263 0.63155 0.93229 0.0
H1084 H 0.27289 0.59077 0.90072 0.0
H1085 H 0.30431 0.62862 0.91956 0.0
C1086 C 0.28978 0.67202 0.95068 0.0
C1087 C 0.27923 0.69334 0.96686 0.0
C1088 C 0.27171 0.65164 0.93745 0.0
C1089 C 0.25025 0.69484 0.96846 0.0
C1090 C 0.23215 0.6747 0.95536 0.0
C1091 C 0.22479 0.63108 0.92921 0.0
C1092 C 0.23545 0.60822 0.91542 0.0
C1093 C 0.24269 0.65268 0.94035 0.0
C1094 C 0.26415 0.60812 0.91127 0.0
C1095 C 0.28214 0.62966 0.92221 0.0
H1096 H 0.40048 0.29717 0.92119 0.0
H1097 H 0.44621 0.37548 0.93706 0.0
H1098 H 0.48618 0.35788 0.91404 0.0
H1099 H 0.50876 0.31973 0.89019 0.0
H1100 H 0.46336 0.24105 0.87542 0.0
H1101 H 0.42288 0.25921 0.89703 0.0
C1102 C 0.41905 0.31052 0.91934 0.0
C1103 C 0.42017 0.33773 0.93086 0.0
C1104 C 0.44219 0.30009 0.90632 0.0
C1105 C 0.44474 0.35444 0.92864 0.0
C1106 C 0.46763 0.34439 0.91537 0.0
C1107 C 0.48993 0.30665 0.89143 0.0
C1108 C 0.48925 0.27897 0.88109 0.0
C1109 C 0.4667 0.31718 0.90424 0.0
C1110 C 0.46469 0.26226 0.88338 0.0
C1111 C 0.44143 0.2727 0.89568 0.0
H1112 H 0.72301 0.46232 0.94994 0.0
H1113 H 0.77562 0.40301 0.99239 0.0
H1114 H 0.81528 0.42109 0.9683 0.0
H1115 H 0.83632 0.45489 0.93731 0.0
H1116 H 0.78611 0.5165 0.89589 0.0
H1117 H 0.74455 0.49636 0.91727 0.0
C1118 C 0.74312 0.45335 0.95394 0.0
C1119 C 0.74581 0.43096 0.97298 0.0
C1120 C 0.76651 0.4643 0.94018 0.0
C1121 C 0.77226 0.41967 0.97759 0.0
C1122 C 0.79528 0.43021 0.96392 0.0
C1123 C 0.81629 0.4639 0.93266 0.0
C1124 C 0.81448 0.48727 0.915 0.0
C1125 C 0.79273 0.4526 0.94539 0.0
C1126 C 0.7882 0.49847 0.90932 0.0
C1127 C 0.76443 0.48703 0.92169 0.0
H1128 H 0.60823 0.35026 0.14605 0.0
H1129 H 0.61972 0.29673 0.07532 0.0
H1130 H 0.59092 0.25996 0.09537 0.0
H1131 H 0.563 0.24241 0.13247 0.0
H1132 H 0.54947 0.2942 0.20384 0.0
H1133 H 0.57838 0.33217 0.18407 0.0
C1134 C 0.60425 0.3306 0.13502 0.0
C1135 C 0.6166 0.32626 0.10928 0.0
C1136 C 0.58736 0.30916 0.1468 0.0
C1137 C 0.61118 0.30057 0.09535 0.0
C1138 C 0.5945 0.27949 0.10674 0.0
C1139 C 0.56627 0.26193 0.14395 0.0
C1140 C 0.55406 0.26526 0.16978 0.0
C1141 C 0.58268 0.28346 0.13246 0.0
C1142 C 0.55863 0.29092 0.18399 0.0
C1143 C 0.57515 0.31265 0.17263 0.0
H1144 H 0.75982 0.5845 0.15781 0.0
H1145 H 0.83347 0.62736 0.19502 0.0
H1146 H 0.82301 0.66915 0.16815 0.0
H1147 H 0.79394 0.69329 0.13342 0.0
H1148 H 0.72022 0.65134 0.09534 0.0
H1149 H 0.72954 0.60962 0.12342 0.0
C1150 C 0.7734 0.60307 0.16031 0.0
C1151 C 0.79756 0.60259 0.17848 0.0
C1152 C 0.76728 0.62722 0.14457 0.0
C1153 C 0.81502 0.62688 0.18104 0.0
C1154 C 0.80897 0.65088 0.16572 0.0
C1155 C 0.77974 0.67512 0.13122 0.0
C1156 C 0.75636 0.67559 0.11214 0.0
C1157 C 0.78533 0.65123 0.14726 0.0
C1158 C 0.73833 0.65169 0.1098 0.0
C1159 C 0.74371 0.62778 0.12586 0.0
H1160 H 0.41353 0.8194 0.12224 0.0
H1161 H 0.44539 0.81076 0.04042 0.0
H1162 H 0.48492 0.8427 0.0537 0.0
H1163 H 0.5093 0.87451 0.08785 0.0
H1164 H 0.47841 0.88258 0.17027 0.0
H1165 H 0.43972 0.84927 0.15761 0.0
C1166 C 0.42913 0.82462 0.10737 0.0
C1167 C 0.42648 0.81295 0.08032 0.0
C1168 C 0.45195 0.84281 0.11528 0.0
C1169 C 0.44708 0.8194 0.06138 0.0
C1170 C 0.4696 0.83772 0.06893 0.0
C1171 C 0.49419 0.86888 0.10312 0.0
C1172 C 0.49661 0.88118 0.12989 0.0
C1173 C 0.47211 0.84972 0.09573 0.0
C1174 C 0.47705 0.87339 0.14953 0.0
C1175 C 0.45485 0.85446 0.14226 0.0
H1176 H 0.26036 0.44964 0.04964 0.0
H1177 H 0.3137 0.40143 0.10441 0.0
H1178 H 0.29543 0.42338 0.14509 0.0
H1179 H 0.26586 0.45713 0.16535 0.0
H1180 H 0.21271 0.5069 0.11197 0.0
H1181 H 0.2289 0.48321 0.07067 0.0
C1182 C 0.26769 0.44376 0.0705 0.0
C1183 C 0.28856 0.42393 0.07389 0.0
C1184 C 0.25711 0.45673 0.09409 0.0
C1185 C 0.29804 0.41683 0.10112 0.0
C1186 C 0.28747 0.4293 0.12444 0.0
C1187 C 0.25755 0.46279 0.14475 0.0
C1188 C 0.23803 0.4839 0.14194 0.0
C1189 C 0.26725 0.44944 0.12121 0.0
C1190 C 0.22763 0.49072 0.1149 0.0
C1191 C 0.23701 0.47723 0.09123 0.0
H1192 H 0.92734 0.6403 0.87919 0.0
H1193 H 0.8881 0.59292 0.81016 0.0
H1194 H 0.90941 0.62536 0.77707 0.0
H1195 H 0.94382 0.66389 0.76816 0.0
H1196 H 0.98277 0.71075 0.83772 0.0
H1197 H 0.95667 0.68211 0.87027 0.0
C1198 C 0.92303 0.6374 0.85688 0.0
C1199 C 0.90641 0.61416 0.84706 0.0
C1200 C 0.93551 0.65591 0.83814 0.0
C1201 C 0.90072 0.61074 0.81818 0.0
C1202 C 0.91312 0.62913 0.7993 0.0
C1203 C 0.94628 0.66798 0.79043 0.0
C1204 C 0.96545 0.68923 0.80053 0.0
C1205 C 0.93127 0.65126 0.80907 0.0
C1206 C 0.96811 0.69466 0.8294 0.0
C1207 C 0.95333 0.67814 0.84804 0.0
H1208 H 0.93866 0.46512 0.27215 0.0
H1209 H 0.86894 0.40767 0.28462 0.0
H1210 H 0.90081 0.3718 0.30024 0.0
H1211 H 0.94879 0.35666 0.31071 0.0
H1212 H 1.01823 0.41449 0.29875 0.0
H1213 H 0.98634 0.45003 0.28223 0.0
C1214 C 0.9304 0.44471 0.27808 0.0
C1215 C 0.90133 0.43924 0.27716 0.0
C1216 C 0.94889 0.42411 0.28703 0.0
C1217 C 0.89112 0.41271 0.28542 0.0
C1218 C 0.90938 0.39205 0.29417 0.0
C1219 C 0.9569 0.37692 0.30414 0.0
C1220 C 0.98589 0.38287 0.30587 0.0
C1221 C 0.93834 0.39747 0.29505 0.0
C1222 C 0.99604 0.40944 0.29776 0.0
C1223 C 0.9778 0.42977 0.2883 0.0
H1224 H 0.6296 0.96661 0.3368 0.0
H1225 H 0.68022 0.03579 0.30697 0.0
H1226 H 0.66139 1.02663 0.25926 0.0
H1227 H 0.6279 1.00138 0.2268 0.0
H1228 H 0.57617 0.93325 0.25711 0.0
H1229 H 0.59811 0.93974 0.30399 0.0
C1230 C 0.63685 0.97951 0.31986 0.0
C1231 C 0.65621 1.00198 0.32554 0.0
C1232 C 0.62546 0.97454 0.29263 0.0
C1233 C 0.66535 1.01838 0.30324 0.0
C1234 C 0.65445 1.01325 0.27596 0.0
C1235 C 0.62148 0.98783 0.24361 0.0
C1236 C 0.60021 0.967 0.23847 0.0
C1237 C 0.63403 0.9918 0.27055 0.0
C1238 C 0.59235 0.94954 0.26048 0.0
C1239 C 0.6049 0.95322 0.2873 0.0
H1240 H 0.18722 0.62182 0.2671 0.0
H1241 H 0.14016 0.60138 0.19004 0.0
H1242 H 0.1058 0.63568 0.20123 0.0
H1243 H 0.08841 0.67073 0.23411 0.0
H1244 H 0.13574 0.68891 0.31147 0.0
H1245 H 0.17073 0.65636 0.29892 0.0
C1246 C 0.16954 0.62482 0.25256 0.0
C1247 C 0.16639 0.6089 0.22769 0.0
C1248 C 0.14985 0.64427 0.25927 0.0
C1249 C 0.14318 0.61323 0.20932 0.0
C1250 C 0.12352 0.63289 0.21574 0.0
C1251 C 0.10658 0.66776 0.24799 0.0
C1252 C 0.10947 0.68229 0.27376 0.0
C1253 C 0.12655 0.64848 0.24077 0.0
C1254 C 0.13293 0.67789 0.29169 0.0
C1255 C 0.15296 0.65929 0.28449 0.0
H1256 H 0.41899 0.1947 0.26854 0.0
H1257 H 0.48534 0.13706 0.27271 0.0
H1258 H 0.45972 0.10727 0.30476 0.0
H1259 H 0.41511 0.0937 0.32516 0.0
H1260 H 0.34803 0.15075 0.3197 0.0
H1261 H 0.37714 0.18455 0.29529 0.0
C1262 C 0.42825 0.17625 0.27746 0.0
C1263 C 0.45414 0.16826 0.2686 0.0
C1264 C 0.41293 0.15867 0.29529 0.0
C1265 C 0.46558 0.14381 0.2796 0.0
C1266 C 0.45079 0.12659 0.2977 0.0
C1267 C 0.40713 0.11383 0.31936 0.0
C1268 C 0.37922 0.11939 0.32402 0.0
C1269 C 0.42392 0.13318 0.30478 0.0
C1270 C 0.36929 0.14566 0.31617 0.0
C1271 C 0.38594 0.16508 0.30208 0.0
H1272 H 0.15325 0.43355 0.74559 0.0
H1273 H 0.10401 0.37862 0.79675 0.0
H1274 H 0.12947 0.39717 0.83876 0.0
H1275 H 0.16128 0.43286 0.86092 0.0
H1276 H 0.20818 0.49001 0.80985 0.0
H1277 H 0.18832 0.46627 0.76768 0.0
C1278 C 0.14829 0.42531 0.76589 0.0
C1279 C 0.12647 0.40499 0.76806 0.0
C1280 C 0.16248 0.43657 0.78993 0.0
C1281 C 0.12055 0.3944 0.79451 0.0
C1282 C 0.13505 0.40506 0.81853 0.0
C1283 C 0.16756 0.43991 0.8406 0.0
C1284 C 0.1859 0.46345 0.83853 0.0
C1285 C 0.1554 0.42676 0.8165 0.0
C1286 C 0.19396 0.47208 0.81203 0.0
C1287 C 0.1825 0.4586 0.78792 0.0
H1288 H 0.62201 0.15226 0.74985 0.0
H1289 H 0.6512 0.14393 0.83613 0.0
H1290 H 0.68437 0.11011 0.82268 0.0
H1291 H 0.70601 0.08345 0.7869 0.0
H1292 H 0.67828 0.09102 0.70023 0.0
H1293 H 0.64383 0.12449 0.71336 0.0
C1294 C 0.63569 0.14318 0.76572 0.0
C1295 C 0.63377 0.15084 0.79415 0.0
C1296 C 0.65508 0.12352 0.75777 0.0
C1297 C 0.65165 0.13838 0.81426 0.0
C1298 C 0.67086 0.11905 0.80654 0.0
C1299 C 0.69246 0.09229 0.77071 0.0
C1300 C 0.69496 0.08459 0.74249 0.0
C1301 C 0.67282 0.11151 0.77842 0.0
C1302 C 0.67694 0.09638 0.72207 0.0
C1303 C 0.65725 0.11563 0.72962 0.0
H1304 H 0.48783 0.88148 0.77428 0.0
H1305 H 0.52249 0.92948 0.84518 0.0
H1306 H 0.49782 0.97035 0.82813 0.0
H1307 H 0.46602 0.99231 0.79331 0.0
H1308 H 0.43047 0.94369 0.7232 0.0
H1309 H 0.45612 0.90331 0.73964 0.0
C1310 C 0.49007 0.90085 0.78611 0.0
C1311 C 0.50711 0.90225 0.81111 0.0
C1312 C 0.47574 0.92424 0.7762 0.0
C1313 C 0.50954 0.92764 0.826 0.0
C1314 C 0.49546 0.95107 0.81618 0.0
C1315 C 0.46402 0.97298 0.78141 0.0
C1316 C 0.44635 0.97124 0.75682 0.0
C1317 C 0.47851 0.94963 0.79129 0.0
C1318 C 0.4439 0.94579 0.74204 0.0
C1319 C 0.45854 0.92263 0.75151 0.0
loop_
_geom_bond_atom_site_label_1
_geom_bond_atom_site_label_2
_geom_bond_distance
_geom_bond_site_symmetry_2
_ccdc_geom_bond_type
Cu0 N1 1.999 1_545 S
Cu0 O6 1.974 . S
Cu0 N11 1.985 . S
Cu0 O20 1.959 1_545 S
N1 Cu0 1.999 1_565 S
N1 C3 1.263 . S
N1 C5 1.389 . S
N2 C3 1.358 . S
N2 C4 1.400 . S
C3 N1 1.263 . S
C3 N2 1.358 . S
C3 H9 0.930 1_565 S
C4 N2 1.400 . S
C4 C5 1.351 . S
C4 H21 0.930 . S
C5 N1 1.389 . S
C5 C4 1.351 . S
C5 H10 0.930 . S
O6 Cu0 1.974 . S
O6 C16 1.282 . S
C7 O8 1.261 . S
C7 O20 1.251 . S
O8 C7 1.261 . S
H9 C3 0.930 1_545 S
H10 C5 0.930 . S
N11 Cu0 1.985 . S
N11 C13 1.335 . S
N11 C14 1.390 . S
N12 C13 1.345 . S
N12 C15 1.336 . S
C13 N11 1.335 . S
C13 N12 1.345 . S
C13 H18 0.930 . S
C14 N11 1.390 . S
C14 C15 1.346 . S
C14 H19 0.930 . S
C15 N12 1.336 . S
C15 C14 1.346 . S
C15 H22 0.929 . S
C16 O6 1.282 . S
C16 O17 1.216 . S
O17 C16 1.216 . S
H18 C13 0.930 . S
H19 C14 0.930 . S
O20 Cu0 1.959 1_565 S
O20 C7 1.251 . S
H21 C4 0.930 . S
H22 C15 0.929 . S
Cu23 N24 1.999 . S
Cu23 O29 1.974 1_455 S
Cu23 N34 1.985 1_455 S
Cu23 O43 1.959 . S
N24 Cu23 1.999 . S
N24 C26 1.263 . S
N24 C28 1.389 . S
N25 C26 1.358 . S
N25 C27 1.400 . S
C26 N24 1.263 . S
C26 N25 1.358 . S
C26 H32 0.930 . S
C27 N25 1.400 . S
C27 C28 1.351 . S
C27 H44 0.930 . S
C28 N24 1.389 . S
C28 C27 1.351 . S
C28 H33 0.930 . S
O29 Cu23 1.974 1_655 S
O29 C39 1.282 . S
C30 O31 1.261 . S
C30 O43 1.251 . S
O31 C30 1.261 . S
H32 C26 0.930 . S
H33 C28 0.930 . S
N34 Cu23 1.985 1_655 S
N34 C36 1.335 . S
N34 C37 1.390 . S
N35 C36 1.345 . S
N35 C38 1.336 . S
C36 N34 1.335 . S
C36 N35 1.345 . S
C36 H41 0.900 1_655 S
C37 N34 1.390 . S
C37 C38 1.346 . S
C37 H42 0.930 . S
C38 N35 1.336 . S
C38 C37 1.346 . S
C38 H45 0.929 . S
C39 O29 1.282 . S
C39 O40 1.216 . S
O40 C39 1.216 . S
H41 C36 0.900 1_455 S
H42 C37 0.930 . S
O43 Cu23 1.959 . S
O43 C30 1.251 . S
H44 C27 0.930 . S
H45 C38 0.929 . S
Cu46 N47 1.999 . S
Cu46 O52 1.974 1_545 S
Cu46 N57 1.985 1_545 S
Cu46 O66 1.959 . S
N47 Cu46 1.999 . S
N47 C49 1.263 . S
N47 C51 1.389 . S
N48 C49 1.358 . S
N48 C50 1.400 . S
C49 N47 1.263 . S
C49 N48 1.358 . S
C49 H55 0.930 . S
C50 N48 1.400 . S
C50 C51 1.351 . S
C50 H67 0.930 . S
C51 N47 1.389 . S
C51 C50 1.351 . S
C51 H56 0.930 . S
O52 Cu46 1.974 1_565 S
O52 C62 1.282 . S
C53 O54 1.261 . S
C53 O66 1.251 . S
O54 C53 1.261 . S
H55 C49 0.930 . S
H56 C51 0.930 . S
N57 Cu46 1.985 1_565 S
N57 C59 1.335 . S
N57 C60 1.390 . S
N58 C59 1.345 . S
N58 C61 1.336 . S
C59 N57 1.335 . S
C59 N58 1.345 . S
C59 H64 0.930 . S
C60 N57 1.390 . S
C60 C61 1.346 . S
C60 H65 0.930 . S
C61 N58 1.336 . S
C61 C60 1.346 . S
C61 H68 0.929 . S
C62 O52 1.282 . S
C62 O63 1.216 . S
O63 C62 1.216 . S
H64 C59 0.930 . S
H65 C60 0.930 . S
O66 Cu46 1.959 . S
O66 C53 1.251 . S
H67 C50 0.930 . S
H68 C61 0.929 . S
Cu69 N70 1.999 . S
Cu69 O75 1.974 1_455 S
Cu69 N80 1.985 1_455 S
Cu69 O89 1.959 . S
N70 Cu69 1.999 . S
N70 C72 1.263 . S
N70 C74 1.389 . S
N71 C72 1.358 . S
N71 C73 1.400 . S
C72 N70 1.263 . S
C72 N71 1.358 . S
C72 H78 0.930 . S
C73 N71 1.400 . S
C73 C74 1.351 . S
C73 H90 0.930 . S
C74 N70 1.389 . S
C74 C73 1.351 . S
C74 H79 0.930 . S
O75 Cu69 1.974 1_655 S
O75 C85 1.282 . S
C76 O77 1.261 . S
C76 O89 1.251 . S
O77 C76 1.261 . S
H78 C72 0.930 . S
H79 C74 0.930 . S
N80 Cu69 1.985 1_655 S
N80 C82 1.335 . S
N80 C83 1.390 . S
N81 C82 1.345 . S
N81 C84 1.336 . S
C82 N80 1.335 . S
C82 N81 1.345 . S
C82 H87 0.930 . S
C83 N80 1.390 . S
C83 C84 1.346 . S
C83 H88 0.930 . S
C84 N81 1.336 . S
C84 C83 1.346 . S
C84 H91 0.929 . S
C85 O75 1.282 . S
C85 O86 1.216 . S
O86 C85 1.216 . S
H87 C82 0.930 . S
H88 C83 0.930 . S
O89 Cu69 1.959 . S
O89 C76 1.251 . S
H90 C73 0.930 . S
H91 C84 0.929 . S
Cu92 N93 1.999 . S
Cu92 O98 1.974 1_545 S
Cu92 N103 1.985 1_545 S
Cu92 O112 1.959 . S
N93 Cu92 1.999 . S
N93 C95 1.263 . S
N93 C97 1.389 . S
N94 C95 1.358 . S
N94 C96 1.400 . S
C95 N93 1.263 . S
C95 N94 1.358 . S
C95 H101 0.930 . S
C96 N94 1.400 . S
C96 C97 1.351 . S
C96 H113 0.930 . S
C97 N93 1.389 . S
C97 C96 1.351 . S
C97 H102 0.930 . S
O98 Cu92 1.974 1_565 S
O98 C108 1.282 . S
C99 O100 1.261 . S
C99 O112 1.251 . S
O100 C99 1.261 . S
H101 C95 0.930 . S
H102 C97 0.930 . S
N103 Cu92 1.985 1_565 S
N103 C105 1.335 . S
N103 C106 1.390 . S
N104 C105 1.345 . S
N104 C107 1.336 . S
C105 N103 1.335 . S
C105 N104 1.345 . S
C105 H110 0.930 . S
C106 N103 1.390 . S
C106 C107 1.346 . S
C106 H111 0.930 . S
C107 N104 1.336 . S
C107 C106 1.346 . S
C107 H114 0.929 . S
C108 O98 1.282 . S
C108 O109 1.216 . S
O109 C108 1.216 . S
H110 C105 0.930 . S
H111 C106 0.930 . S
O112 Cu92 1.959 . S
O112 C99 1.251 . S
H113 C96 0.930 . S
H114 C107 0.929 . S
Cu115 N116 1.999 . S
Cu115 O121 1.974 1_455 S
Cu115 N126 1.985 1_455 S
Cu115 O135 1.959 . S
N116 Cu115 1.999 . S
N116 C118 1.263 . S
N116 C120 1.389 . S
N117 C118 1.358 . S
N117 C119 1.400 . S
C118 N116 1.263 . S
C118 N117 1.358 . S
C118 H124 0.930 . S
C119 N117 1.400 . S
C119 C120 1.351 . S
C119 H136 0.930 . S
C120 N116 1.389 . S
C120 C119 1.351 . S
C120 H125 0.930 . S
O121 Cu115 1.974 1_655 S
O121 C131 1.282 . S
C122 O123 1.261 . S
C122 O135 1.251 . S
O123 C122 1.261 . S
H124 C118 0.930 . S
H125 C120 0.930 . S
N126 Cu115 1.985 1_655 S
N126 C128 1.335 . S
N126 C129 1.390 . S
N127 C128 1.345 . S
N127 C130 1.336 . S
C128 N126 1.335 . S
C128 N127 1.345 . S
C128 H133 0.930 1_655 S
C129 N126 1.390 . S
C129 C130 1.346 . S
C129 H134 0.930 . S
C130 N127 1.336 . S
C130 C129 1.346 . S
C130 H137 0.929 . S
C131 O121 1.282 . S
C131 O132 1.216 . S
O132 C131 1.216 . S
H133 C128 0.930 1_455 S
H134 C129 0.930 . S
O135 Cu115 1.959 . S
O135 C122 1.251 . S
H136 C119 0.930 . S
H137 C130 0.929 . S
Cu138 N139 1.999 1_545 S
Cu138 O144 1.974 . S
Cu138 N149 1.985 . S
Cu138 O158 1.959 1_545 S
N139 Cu138 1.999 1_565 S
N139 C141 1.263 . S
N139 C143 1.389 . S
N140 C141 1.358 . S
N140 C142 1.400 . S
C141 N139 1.263 . S
C141 N140 1.358 . S
C141 H147 0.930 . S
C142 N140 1.400 . S
C142 C143 1.351 . S
C142 H159 0.930 . S
C143 N139 1.389 . S
C143 C142 1.351 . S
C143 H148 0.930 . S
O144 Cu138 1.974 . S
O144 C154 1.282 . S
C145 O146 1.261 . S
C145 O158 1.251 . S
O146 C145 1.261 . S
H147 C141 0.930 . S
H148 C143 0.930 . S
N149 Cu138 1.985 . S
N149 C151 1.335 . S
N149 C152 1.390 . S
N150 C151 1.345 . S
N150 C153 1.336 . S
C151 N149 1.335 . S
C151 N150 1.345 . S
C151 H156 0.930 . S
C152 N149 1.390 . S
C152 C153 1.346 . S
C152 H157 0.930 . S
C153 N150 1.336 . S
C153 C152 1.346 . S
C153 H160 0.929 . S
C154 O144 1.282 . S
C154 O155 1.216 . S
O155 C154 1.216 . S
H156 C151 0.930 . S
H157 C152 0.930 . S
O158 Cu138 1.959 1_565 S
O158 C145 1.251 . S
H159 C142 0.930 . S
H160 C153 0.929 . S
Cu161 N162 1.989 1_655 S
Cu161 O167 1.983 . S
Cu161 N172 1.995 . S
Cu161 O181 1.950 1_655 S
N162 Cu161 1.989 1_455 S
N162 C164 1.263 . S
N162 C166 1.389 . S
N163 C164 1.358 . S
N163 C165 1.400 . S
C164 N162 1.263 . S
C164 N163 1.358 . S
C164 H170 0.930 . S
C165 N163 1.400 . S
C165 C166 1.351 . S
C165 H182 0.930 . S
C166 N162 1.389 . S
C166 C165 1.351 . S
C166 H171 0.930 . S
O167 Cu161 1.983 . S
O167 C177 1.282 . S
C168 O169 1.261 . S
C168 O181 1.251 . S
O169 C168 1.261 . S
H170 C164 0.930 . S
H171 C166 0.930 . S
N172 Cu161 1.995 . S
N172 C174 1.335 . S
N172 C175 1.390 . S
N173 C174 1.345 . S
N173 C176 1.336 . S
C174 N172 1.335 . S
C174 N173 1.345 . S
C174 H179 0.930 . S
C175 N172 1.390 . S
C175 C176 1.346 . S
C175 H180 0.930 . S
C176 N173 1.336 . S
C176 C175 1.346 . S
C176 H183 0.929 . S
C177 O167 1.282 . S
C177 O178 1.216 . S
O178 C177 1.216 . S
H179 C174 0.930 . S
H180 C175 0.930 . S
O181 Cu161 1.950 1_455 S
O181 C168 1.251 . S
H182 C165 0.930 . S
H183 C176 0.929 . S
Cu184 N185 1.999 . S
Cu184 O190 1.974 1_554 S
Cu184 N195 1.985 1_554 S
Cu184 O204 1.959 . S
N185 Cu184 1.999 . S
N185 C187 1.263 . S
N185 C189 1.389 . S
N186 C187 1.358 . S
N186 C188 1.400 . S
C187 N185 1.263 . S
C187 N186 1.358 . S
C187 H193 0.930 . S
C188 N186 1.400 . S
C188 C189 1.351 . S
C188 H205 0.930 . S
C189 N185 1.389 . S
C189 C188 1.351 . S
C189 H194 0.930 . S
O190 Cu184 1.974 1_556 S
O190 C200 1.282 . S
C191 O192 1.261 . S
C191 O204 1.251 . S
O192 C191 1.261 . S
H193 C187 0.930 . S
H194 C189 0.930 . S
N195 Cu184 1.985 1_556 S
N195 C197 1.335 . S
N195 C198 1.390 . S
N196 C197 1.345 . S
N196 C199 1.336 . S
C197 N195 1.335 . S
C197 N196 1.345 . S
C197 H202 0.899 1_556 S
C198 N195 1.390 . S
C198 C199 1.346 . S
C198 H203 0.930 . S
C199 N196 1.336 . S
C199 C198 1.346 . S
C199 H206 0.929 . S
C200 O190 1.282 . S
C200 O201 1.216 . S
O201 C200 1.216 . S
H202 C197 0.899 1_554 S
H203 C198 0.930 . S
O204 Cu184 1.959 . S
O204 C191 1.251 . S
H205 C188 0.930 . S
H206 C199 0.929 . S
Cu207 N208 1.999 1_554 S
Cu207 O213 1.974 . S
Cu207 N218 1.985 . S
Cu207 O227 1.959 1_554 S
N208 Cu207 1.999 1_556 S
N208 C210 1.263 . S
N208 C212 1.389 . S
N209 C210 1.358 . S
N209 C211 1.400 . S
C210 N208 1.263 . S
C210 N209 1.358 . S
C210 H216 0.930 . S
C211 N209 1.400 . S
C211 C212 1.351 . S
C211 H228 0.930 . S
C212 N208 1.389 . S
C212 C211 1.351 . S
C212 H217 0.930 . S
O213 Cu207 1.974 . S
O213 C223 1.282 . S
C214 O215 1.261 . S
C214 O227 1.251 . S
O215 C214 1.261 . S
H216 C210 0.930 . S
H217 C212 0.930 . S
N218 Cu207 1.985 . S
N218 C220 1.335 . S
N218 C221 1.390 . S
N219 C220 1.345 . S
N219 C222 1.336 . S
C220 N218 1.335 . S
C220 N219 1.345 . S
C220 H225 0.930 . S
C221 N218 1.390 . S
C221 C222 1.346 . S
C221 H226 0.930 . S
C222 N219 1.336 . S
C222 C221 1.346 . S
C222 H229 0.929 . S
C223 O213 1.282 . S
C223 O224 1.216 . S
O224 C223 1.216 . S
H225 C220 0.930 . S
H226 C221 0.930 . S
O227 Cu207 1.959 1_556 S
O227 C214 1.251 . S
H228 C211 0.930 . S
H229 C222 0.929 . S
Cu230 N231 1.988 1_556 S
Cu230 O236 1.983 . S
Cu230 N241 1.997 . S
Cu230 O250 1.949 1_556 S
N231 Cu230 1.988 1_554 S
N231 C233 1.263 . S
N231 C235 1.389 . S
N232 C233 1.358 . S
N232 C234 1.400 . S
C233 N231 1.263 . S
C233 N232 1.358 . S
C233 H239 0.930 . S
C234 N232 1.400 . S
C234 C235 1.351 . S
C234 H251 0.930 . S
C235 N231 1.389 . S
C235 C234 1.351 . S
C235 H240 0.930 . S
O236 Cu230 1.983 . S
O236 C246 1.282 . S
C237 O238 1.261 . S
C237 O250 1.251 . S
O238 C237 1.261 . S
H239 C233 0.930 . S
H240 C235 0.930 . S
N241 Cu230 1.997 . S
N241 C243 1.335 . S
N241 C244 1.390 . S
N242 C243 1.345 . S
N242 C245 1.336 . S
C243 N241 1.335 . S
C243 N242 1.345 . S
C243 H248 0.930 . S
C244 N241 1.390 . S
C244 C245 1.346 . S
C244 H249 0.930 . S
C245 N242 1.336 . S
C245 C244 1.346 . S
C245 H252 0.929 . S
C246 O236 1.282 . S
C246 O247 1.216 . S
O247 C246 1.216 . S
H248 C243 0.930 . S
H249 C244 0.930 . S
O250 Cu230 1.949 1_554 S
O250 C237 1.251 . S
H251 C234 0.930 . S
H252 C245 0.929 . S
Cu253 N254 1.999 1_554 S
Cu253 O259 1.974 . S
Cu253 N264 1.985 . S
Cu253 O273 1.959 1_554 S
N254 Cu253 1.999 1_556 S
N254 C256 1.263 . S
N254 C258 1.389 . S
N255 C256 1.358 . S
N255 C257 1.400 . S
C256 N254 1.263 . S
C256 N255 1.358 . S
C256 H262 0.930 . S
C257 N255 1.400 . S
C257 C258 1.351 . S
C257 H274 0.930 . S
C258 N254 1.389 . S
C258 C257 1.351 . S
C258 H263 0.930 . S
O259 Cu253 1.974 . S
O259 C269 1.282 . S
C260 O261 1.261 . S
C260 O273 1.251 . S
O261 C260 1.261 . S
H262 C256 0.930 . S
H263 C258 0.930 . S
N264 Cu253 1.985 . S
N264 C266 1.335 . S
N264 C267 1.390 . S
N265 C266 1.345 . S
N265 C268 1.336 . S
C266 N264 1.335 . S
C266 N265 1.345 . S
C266 H271 0.930 . S
C267 N264 1.390 . S
C267 C268 1.346 . S
C267 H272 0.930 . S
C268 N265 1.336 . S
C268 C267 1.346 . S
C268 H275 0.929 . S
C269 O259 1.282 . S
C269 O270 1.216 . S
O270 C269 1.216 . S
H271 C266 0.930 . S
H272 C267 0.930 . S
O273 Cu253 1.959 1_556 S
O273 C260 1.251 . S
H274 C257 0.930 . S
H275 C268 0.929 . S
Cu276 N277 1.999 . S
Cu276 O282 1.974 . S
Cu276 N287 1.985 . S
Cu276 O296 1.959 . S
N277 Cu276 1.999 . S
N277 C279 1.263 . S
N277 C281 1.389 . S
N278 C279 1.358 . S
N278 C280 1.400 . S
C279 N277 1.263 . S
C279 N278 1.358 . S
C279 H285 0.930 . S
C280 N278 1.400 . S
C280 C281 1.351 . S
C280 H297 0.930 . S
C281 N277 1.389 . S
C281 C280 1.351 . S
C281 H286 0.930 . S
O282 Cu276 1.974 . S
O282 C292 1.282 . S
C283 O284 1.261 . S
C283 O296 1.251 . S
O284 C283 1.261 . S
H285 C279 0.930 . S
H286 C281 0.930 . S
N287 Cu276 1.985 . S
N287 C289 1.335 . S
N287 C290 1.390 . S
N288 C289 1.345 . S
N288 C291 1.336 . S
C289 N287 1.335 . S
C289 N288 1.345 . S
C289 H294 0.930 . S
C290 N287 1.390 . S
C290 C291 1.346 . S
C290 H295 0.930 . S
C291 N288 1.336 . S
C291 C290 1.346 . S
C291 H298 0.929 . S
C292 O282 1.282 . S
C292 O293 1.216 . S
O293 C292 1.216 . S
H294 C289 0.930 . S
H295 C290 0.930 . S
O296 Cu276 1.959 . S
O296 C283 1.251 . S
H297 C280 0.930 . S
H298 C291 0.929 . S
Cu299 N300 1.999 . S
Cu299 O305 1.974 . S
Cu299 N310 1.985 . S
Cu299 O319 1.959 . S
N300 Cu299 1.999 . S
N300 C302 1.263 . S
N300 C304 1.389 . S
N301 C302 1.358 . S
N301 C303 1.400 . S
C302 N300 1.263 . S
C302 N301 1.358 . S
C302 H308 0.930 . S
C303 N301 1.400 . S
C303 C304 1.351 . S
C303 H320 0.930 . S
C304 N300 1.389 . S
C304 C303 1.351 . S
C304 H309 0.930 . S
O305 Cu299 1.974 . S
O305 C315 1.282 . S
C306 O307 1.261 . S
C306 O319 1.251 . S
O307 C306 1.261 . S
H308 C302 0.930 . S
H309 C304 0.930 . S
N310 Cu299 1.985 . S
N310 C312 1.335 . S
N310 C313 1.390 . S
N311 C312 1.345 . S
N311 C314 1.336 . S
C312 N310 1.335 . S
C312 N311 1.345 . S
C312 H317 0.930 . S
C313 N310 1.390 . S
C313 C314 1.346 . S
C313 H318 0.930 . S
C314 N311 1.336 . S
C314 C313 1.346 . S
C314 H321 0.929 . S
C315 O305 1.282 . S
C315 O316 1.216 . S
O316 C315 1.216 . S
H317 C312 0.930 . S
H318 C313 0.930 . S
O319 Cu299 1.959 . S
O319 C306 1.251 . S
H320 C303 0.930 . S
H321 C314 0.929 . S
Cu322 N323 1.999 . S
Cu322 O328 1.974 . S
Cu322 N333 1.985 . S
Cu322 O342 1.959 . S
N323 Cu322 1.999 . S
N323 C325 1.263 . S
N323 C327 1.389 . S
N324 C325 1.358 . S
N324 C326 1.400 . S
C325 N323 1.263 . S
C325 N324 1.358 . S
C325 H331 0.930 . S
C326 N324 1.400 . S
C326 C327 1.351 . S
C326 H343 0.930 . S
C327 N323 1.389 . S
C327 C326 1.351 . S
C327 H332 0.930 . S
O328 Cu322 1.974 . S
O328 C338 1.282 . S
C329 O330 1.261 . S
C329 O342 1.251 . S
O330 C329 1.261 . S
H331 C325 0.930 . S
H332 C327 0.930 . S
N333 Cu322 1.985 . S
N333 C335 1.335 . S
N333 C336 1.390 . S
N334 C335 1.345 . S
N334 C337 1.336 . S
C335 N333 1.335 . S
C335 N334 1.345 . S
C335 H340 0.930 . S
C336 N333 1.390 . S
C336 C337 1.346 . S
C336 H341 0.930 . S
C337 N334 1.336 . S
C337 C336 1.346 . S
C337 H344 0.929 . S
C338 O328 1.282 . S
C338 O339 1.216 . S
O339 C338 1.216 . S
H340 C335 0.930 . S
H341 C336 0.930 . S
O342 Cu322 1.959 . S
O342 C329 1.251 . S
H343 C326 0.930 . S
H344 C337 0.929 . S
Cu345 N346 1.999 . S
Cu345 O351 1.974 . S
Cu345 N356 1.985 . S
Cu345 O365 1.959 . S
N346 Cu345 1.999 . S
N346 C348 1.263 . S
N346 C350 1.389 . S
N347 C348 1.358 . S
N347 C349 1.400 . S
C348 N346 1.263 . S
C348 N347 1.358 . S
C348 H354 0.930 . S
C349 N347 1.400 . S
C349 C350 1.351 . S
C349 H366 0.930 . S
C350 N346 1.389 . S
C350 C349 1.351 . S
C350 H355 0.930 . S
O351 Cu345 1.974 . S
O351 C361 1.282 . S
C352 O353 1.261 . S
C352 O365 1.251 . S
O353 C352 1.261 . S
H354 C348 0.930 . S
H355 C350 0.930 . S
N356 Cu345 1.985 . S
N356 C358 1.335 . S
N356 C359 1.390 . S
N357 C358 1.345 . S
N357 C360 1.336 . S
C358 N356 1.335 . S
C358 N357 1.345 . S
C358 H363 0.930 . S
C359 N356 1.390 . S
C359 C360 1.346 . S
C359 H364 0.930 . S
C360 N357 1.336 . S
C360 C359 1.346 . S
C360 H367 0.929 . S
C361 O351 1.282 . S
C361 O362 1.216 . S
O362 C361 1.216 . S
H363 C358 0.930 . S
H364 C359 0.930 . S
O365 Cu345 1.959 . S
O365 C352 1.251 . S
H366 C349 0.930 . S
H367 C360 0.929 . S
Cu368 N369 1.999 . S
Cu368 O374 1.974 . S
Cu368 N379 1.985 . S
Cu368 O388 1.959 . S
N369 Cu368 1.999 . S
N369 C371 1.263 . S
N369 C373 1.389 . S
N370 C371 1.358 . S
N370 C372 1.400 . S
C371 N369 1.263 . S
C371 N370 1.358 . S
C371 H377 0.930 . S
C372 N370 1.400 . S
C372 C373 1.351 . S
C372 H389 0.930 . S
C373 N369 1.389 . S
C373 C372 1.351 . S
C373 H378 0.930 . S
O374 Cu368 1.974 . S
O374 C384 1.282 . S
C375 O376 1.261 . S
C375 O388 1.251 . S
O376 C375 1.261 . S
H377 C371 0.930 . S
H378 C373 0.930 . S
N379 Cu368 1.985 . S
N379 C381 1.335 . S
N379 C382 1.390 . S
N380 C381 1.345 . S
N380 C383 1.336 . S
C381 N379 1.335 . S
C381 N380 1.345 . S
C381 H386 0.930 . S
C382 N379 1.390 . S
C382 C383 1.346 . S
C382 H387 0.930 . S
C383 N380 1.336 . S
C383 C382 1.346 . S
C383 H390 0.929 . S
C384 O374 1.282 . S
C384 O385 1.216 . S
O385 C384 1.216 . S
H386 C381 0.930 . S
H387 C382 0.930 . S
O388 Cu368 1.959 . S
O388 C375 1.251 . S
H389 C372 0.930 . S
H390 C383 0.929 . S
Cu391 N392 1.999 . S
Cu391 O397 1.974 . S
Cu391 N402 1.985 . S
Cu391 O411 1.959 . S
N392 Cu391 1.999 . S
N392 C394 1.263 . S
N392 C396 1.389 . S
N393 C394 1.358 . S
N393 C395 1.400 . S
C394 N392 1.263 . S
C394 N393 1.358 . S
C394 H400 0.930 . S
C395 N393 1.400 . S
C395 C396 1.351 . S
C395 H412 0.930 . S
C396 N392 1.389 . S
C396 C395 1.351 . S
C396 H401 0.930 . S
O397 Cu391 1.974 . S
O397 C407 1.282 . S
C398 O399 1.261 . S
C398 O411 1.251 . S
O399 C398 1.261 . S
H400 C394 0.930 . S
H401 C396 0.930 . S
N402 Cu391 1.985 . S
N402 C404 1.335 . S
N402 C405 1.390 . S
N403 C404 1.345 . S
N403 C406 1.336 . S
C404 N402 1.335 . S
C404 N403 1.345 . S
C404 H409 0.930 . S
C405 N402 1.390 . S
C405 C406 1.346 . S
C405 H410 0.930 . S
C406 N403 1.336 . S
C406 C405 1.346 . S
C406 H413 0.929 . S
C407 O397 1.282 . S
C407 O408 1.216 . S
O408 C407 1.216 . S
H409 C404 0.930 . S
H410 C405 0.930 . S
O411 Cu391 1.959 . S
O411 C398 1.251 . S
H412 C395 0.930 . S
H413 C406 0.929 . S
Cu414 N415 1.999 . S
Cu414 O420 1.974 . S
Cu414 N425 1.985 . S
Cu414 O434 1.959 . S
N415 Cu414 1.999 . S
N415 C417 1.263 . S
N415 C419 1.389 . S
N416 C417 1.358 . S
N416 C418 1.400 . S
C417 N415 1.263 . S
C417 N416 1.358 . S
C417 H423 0.930 . S
C418 N416 1.400 . S
C418 C419 1.351 . S
C418 H435 0.930 . S
C419 N415 1.389 . S
C419 C418 1.351 . S
C419 H424 0.930 . S
O420 Cu414 1.974 . S
O420 C430 1.282 . S
C421 O422 1.261 . S
C421 O434 1.251 . S
O422 C421 1.261 . S
H423 C417 0.930 . S
H424 C419 0.930 . S
N425 Cu414 1.985 . S
N425 C427 1.335 . S
N425 C428 1.390 . S
N426 C427 1.345 . S
N426 C429 1.336 . S
C427 N425 1.335 . S
C427 N426 1.345 . S
C427 H432 0.930 . S
C428 N425 1.390 . S
C428 C429 1.346 . S
C428 H433 0.930 . S
C429 N426 1.336 . S
C429 C428 1.346 . S
C429 H436 0.929 . S
C430 O420 1.282 . S
C430 O431 1.216 . S
O431 C430 1.216 . S
H432 C427 0.930 . S
H433 C428 0.930 . S
O434 Cu414 1.959 . S
O434 C421 1.251 . S
H435 C418 0.930 . S
H436 C429 0.929 . S
Cu437 N438 1.999 . S
Cu437 O443 1.974 . S
Cu437 N448 1.985 . S
Cu437 O457 1.959 . S
N438 Cu437 1.999 . S
N438 C440 1.263 . S
N438 C442 1.389 . S
N439 C440 1.358 . S
N439 C441 1.400 . S
C440 N438 1.263 . S
C440 N439 1.358 . S
C440 H446 0.930 . S
C441 N439 1.400 . S
C441 C442 1.351 . S
C441 H458 0.930 . S
C442 N438 1.389 . S
C442 C441 1.351 . S
C442 H447 0.930 . S
O443 Cu437 1.974 . S
O443 C453 1.282 . S
C444 O445 1.261 . S
C444 O457 1.251 . S
O445 C444 1.261 . S
H446 C440 0.930 . S
H447 C442 0.930 . S
N448 Cu437 1.985 . S
N448 C450 1.335 . S
N448 C451 1.390 . S
N449 C450 1.345 . S
N449 C452 1.336 . S
C450 N448 1.335 . S
C450 N449 1.345 . S
C450 H455 0.930 . S
C451 N448 1.390 . S
C451 C452 1.346 . S
C451 H456 0.930 . S
C452 N449 1.336 . S
C452 C451 1.346 . S
C452 H459 0.929 . S
C453 O443 1.282 . S
C453 O454 1.216 . S
O454 C453 1.216 . S
H455 C450 0.930 . S
H456 C451 0.930 . S
O457 Cu437 1.959 . S
O457 C444 1.251 . S
H458 C441 0.930 . S
H459 C452 0.929 . S
Cu460 N461 1.999 . S
Cu460 O466 1.974 . S
Cu460 N471 1.985 . S
Cu460 O480 1.959 . S
N461 Cu460 1.999 . S
N461 C463 1.263 . S
N461 C465 1.389 . S
N462 C463 1.358 . S
N462 C464 1.400 . S
C463 N461 1.263 . S
C463 N462 1.358 . S
C463 H469 0.930 . S
C464 N462 1.400 . S
C464 C465 1.351 . S
C464 H481 0.930 . S
C465 N461 1.389 . S
C465 C464 1.351 . S
C465 H470 0.930 . S
O466 Cu460 1.974 . S
O466 C476 1.282 . S
C467 O468 1.261 . S
C467 O480 1.251 . S
O468 C467 1.261 . S
H469 C463 0.930 . S
H470 C465 0.930 . S
N471 Cu460 1.985 . S
N471 C473 1.335 . S
N471 C474 1.390 . S
N472 C473 1.345 . S
N472 C475 1.336 . S
C473 N471 1.335 . S
C473 N472 1.345 . S
C473 H478 0.930 . S
C474 N471 1.390 . S
C474 C475 1.346 . S
C474 H479 0.930 . S
C475 N472 1.336 . S
C475 C474 1.346 . S
C475 H482 0.929 . S
C476 O466 1.282 . S
C476 O477 1.216 . S
O477 C476 1.216 . S
H478 C473 0.930 . S
H479 C474 0.930 . S
O480 Cu460 1.959 . S
O480 C467 1.251 . S
H481 C464 0.930 . S
H482 C475 0.929 . S
Cu483 N484 1.999 . S
Cu483 O489 1.974 . S
Cu483 N494 1.985 . S
Cu483 O503 1.959 . S
N484 Cu483 1.999 . S
N484 C486 1.263 . S
N484 C488 1.389 . S
N485 C486 1.358 . S
N485 C487 1.400 . S
C486 N484 1.263 . S
C486 N485 1.358 . S
C486 H492 0.930 . S
C487 N485 1.400 . S
C487 C488 1.351 . S
C487 H504 0.930 . S
C488 N484 1.389 . S
C488 C487 1.351 . S
C488 H493 0.930 . S
O489 Cu483 1.974 . S
O489 C499 1.282 . S
C490 O491 1.261 . S
C490 O503 1.251 . S
O491 C490 1.261 . S
H492 C486 0.930 . S
H493 C488 0.930 . S
N494 Cu483 1.985 . S
N494 C496 1.335 . S
N494 C497 1.390 . S
N495 C496 1.345 . S
N495 C498 1.336 . S
C496 N494 1.335 . S
C496 N495 1.345 . S
C496 H501 0.930 . S
C497 N494 1.390 . S
C497 C498 1.346 . S
C497 H502 0.930 . S
C498 N495 1.336 . S
C498 C497 1.346 . S
C498 H505 0.929 . S
C499 O489 1.282 . S
C499 O500 1.216 . S
O500 C499 1.216 . S
H501 C496 0.930 . S
H502 C497 0.930 . S
O503 Cu483 1.959 . S
O503 C490 1.251 . S
H504 C487 0.930 . S
H505 C498 0.929 . S
Cu506 N507 1.999 . S
Cu506 O512 1.974 . S
Cu506 N517 1.985 . S
Cu506 O526 1.959 . S
N507 Cu506 1.999 . S
N507 C509 1.263 . S
N507 C511 1.389 . S
N508 C509 1.358 . S
N508 C510 1.400 . S
C509 N507 1.263 . S
C509 N508 1.358 . S
C509 H515 0.930 . S
C510 N508 1.400 . S
C510 C511 1.351 . S
C510 H527 0.930 . S
C511 N507 1.389 . S
C511 C510 1.351 . S
C511 H516 0.930 . S
O512 Cu506 1.974 . S
O512 C522 1.282 . S
C513 O514 1.261 . S
C513 O526 1.251 . S
O514 C513 1.261 . S
H515 C509 0.930 . S
H516 C511 0.930 . S
N517 Cu506 1.985 . S
N517 C519 1.335 . S
N517 C520 1.390 . S
N518 C519 1.345 . S
N518 C521 1.336 . S
C519 N517 1.335 . S
C519 N518 1.345 . S
C519 H524 0.930 . S
C520 N517 1.390 . S
C520 C521 1.346 . S
C520 H525 0.930 . S
C521 N518 1.336 . S
C521 C520 1.346 . S
C521 H528 0.929 . S
C522 O512 1.282 . S
C522 O523 1.216 . S
O523 C522 1.216 . S
H524 C519 0.930 . S
H525 C520 0.930 . S
O526 Cu506 1.959 . S
O526 C513 1.251 . S
H527 C510 0.930 . S
H528 C521 0.929 . S
Cu529 N530 1.999 . S
Cu529 O535 1.974 . S
Cu529 N540 1.985 . S
Cu529 O549 1.959 . S
N530 Cu529 1.999 . S
N530 C532 1.263 . S
N530 C534 1.389 . S
N531 C532 1.358 . S
N531 C533 1.400 . S
C532 N530 1.263 . S
C532 N531 1.358 . S
C532 H538 0.930 . S
C533 N531 1.400 . S
C533 C534 1.351 . S
C533 H550 0.930 . S
C534 N530 1.389 . S
C534 C533 1.351 . S
C534 H539 0.930 . S
O535 Cu529 1.974 . S
O535 C545 1.282 . S
C536 O537 1.261 . S
C536 O549 1.251 . S
O537 C536 1.261 . S
H538 C532 0.930 . S
H539 C534 0.930 . S
N540 Cu529 1.985 . S
N540 C542 1.335 . S
N540 C543 1.390 . S
N541 C542 1.345 . S
N541 C544 1.336 . S
C542 N540 1.335 . S
C542 N541 1.345 . S
C542 H547 0.930 . S
C543 N540 1.390 . S
C543 C544 1.346 . S
C543 H548 0.930 . S
C544 N541 1.336 . S
C544 C543 1.346 . S
C544 H551 0.929 . S
C545 O535 1.282 . S
C545 O546 1.216 . S
O546 C545 1.216 . S
H547 C542 0.930 . S
H548 C543 0.930 . S
O549 Cu529 1.959 . S
O549 C536 1.251 . S
H550 C533 0.930 . S
H551 C544 0.929 . S
H552 C558 0.930 . S
H553 C561 0.930 . S
H554 C562 0.930 . S
H555 C563 0.930 . S
H556 C566 0.930 . S
H557 C567 0.930 . S
C558 H552 0.930 . S
C558 C559 1.355 . S
C558 C560 1.415 . S
C559 C558 1.355 . S
C559 C561 1.419 . S
C560 C558 1.415 . S
C560 C565 1.425 . S
C560 C567 1.409 . S
C561 H553 0.930 . S
C561 C559 1.419 . S
C561 C562 1.362 . S
C562 H554 0.930 . S
C562 C561 1.362 . S
C562 C565 1.409 . S
C563 H555 0.930 . S
C563 C564 1.355 . S
C563 C565 1.415 . S
C564 C563 1.355 . S
C564 C566 1.419 . S
C565 C560 1.425 . S
C565 C562 1.409 . S
C565 C563 1.415 . S
C566 H556 0.930 . S
C566 C564 1.419 . S
C566 C567 1.362 . S
C567 H557 0.930 . S
C567 C560 1.409 . S
C567 C566 1.362 . S
H568 C574 0.930 . S
H569 C577 0.930 . S
H570 C578 0.930 . S
H571 C579 0.930 . S
H572 C582 0.930 . S
H573 C583 0.930 . S
C574 H568 0.930 . S
C574 C575 1.355 . S
C574 C576 1.415 . S
C575 C574 1.355 . S
C575 C577 1.419 . S
C576 C574 1.415 . S
C576 C581 1.425 . S
C576 C583 1.409 . S
C577 H569 0.930 . S
C577 C575 1.419 . S
C577 C578 1.362 . S
C578 H570 0.930 . S
C578 C577 1.362 . S
C578 C581 1.409 . S
C579 H571 0.930 . S
C579 C580 1.355 . S
C579 C581 1.415 . S
C580 C579 1.355 . S
C580 C582 1.419 . S
C581 C576 1.425 . S
C581 C578 1.409 . S
C581 C579 1.415 . S
C582 H572 0.930 . S
C582 C580 1.419 . S
C582 C583 1.362 . S
C583 H573 0.930 . S
C583 C576 1.409 . S
C583 C582 1.362 . S
H584 C590 0.930 . S
H585 C593 0.930 . S
H586 C594 0.930 . S
H587 C595 0.930 . S
H588 C598 0.930 . S
H589 C599 0.930 . S
C590 H584 0.930 . S
C590 C591 1.355 . S
C590 C592 1.415 . S
C591 C590 1.355 . S
C591 C593 1.419 . S
C592 C590 1.415 . S
C592 C597 1.425 . S
C592 C599 1.409 . S
C593 H585 0.930 . S
C593 C591 1.419 . S
C593 C594 1.362 . S
C594 H586 0.930 . S
C594 C593 1.362 . S
C594 C597 1.409 . S
C595 H587 0.930 . S
C595 C596 1.355 . S
C595 C597 1.415 . S
C596 C595 1.355 . S
C596 C598 1.419 . S
C597 C592 1.425 . S
C597 C594 1.409 . S
C597 C595 1.415 . S
C598 H588 0.930 . S
C598 C596 1.419 . S
C598 C599 1.362 . S
C599 H589 0.930 . S
C599 C592 1.409 . S
C599 C598 1.362 . S
H600 C606 0.930 . S
H601 C609 0.930 . S
H602 C610 0.930 . S
H603 C611 0.930 . S
H604 C614 0.930 . S
H605 C615 0.930 . S
C606 H600 0.930 . S
C606 C607 1.355 . S
C606 C608 1.415 . S
C607 C606 1.355 . S
C607 C609 1.419 . S
C608 C606 1.415 . S
C608 C613 1.425 . S
C608 C615 1.409 . S
C609 H601 0.930 . S
C609 C607 1.419 . S
C609 C610 1.362 . S
C610 H602 0.930 . S
C610 C609 1.362 . S
C610 C613 1.409 . S
C611 H603 0.930 . S
C611 C612 1.355 . S
C611 C613 1.415 . S
C612 C611 1.355 . S
C612 C614 1.419 . S
C613 C608 1.425 . S
C613 C610 1.409 . S
C613 C611 1.415 . S
C614 H604 0.930 . S
C614 C612 1.419 . S
C614 C615 1.362 . S
C615 H605 0.930 . S
C615 C608 1.409 . S
C615 C614 1.362 . S
H616 C622 0.930 . S
H617 C625 0.930 . S
H618 C626 0.930 . S
H619 C627 0.930 . S
H620 C630 0.930 . S
H621 C631 0.930 . S
C622 H616 0.930 . S
C622 C623 1.355 . S
C622 C624 1.415 . S
C623 C622 1.355 . S
C623 C625 1.419 . S
C624 C622 1.415 . S
C624 C629 1.425 . S
C624 C631 1.409 . S
C625 H617 0.930 . S
C625 C623 1.419 . S
C625 C626 1.362 . S
C626 H618 0.930 . S
C626 C625 1.362 . S
C626 C629 1.409 . S
C627 H619 0.930 . S
C627 C628 1.355 . S
C627 C629 1.415 . S
C628 C627 1.355 . S
C628 C630 1.419 . S
C629 C624 1.425 . S
C629 C626 1.409 . S
C629 C627 1.415 . S
C630 H620 0.930 . S
C630 C628 1.419 . S
C630 C631 1.362 . S
C631 H621 0.930 . S
C631 C624 1.409 . S
C631 C630 1.362 . S
H632 C638 0.930 . S
H633 C641 0.930 . S
H634 C642 0.930 . S
H635 C643 0.930 . S
H636 C646 0.930 . S
H637 C647 0.930 . S
C638 H632 0.930 . S
C638 C639 1.355 . S
C638 C640 1.415 . S
C639 C638 1.355 . S
C639 C641 1.419 . S
C640 C638 1.415 . S
C640 C645 1.425 . S
C640 C647 1.409 . S
C641 H633 0.930 . S
C641 C639 1.419 . S
C641 C642 1.362 . S
C642 H634 0.930 . S
C642 C641 1.362 . S
C642 C645 1.409 . S
C643 H635 0.930 . S
C643 C644 1.355 . S
C643 C645 1.415 . S
C644 C643 1.355 . S
C644 C646 1.419 . S
C645 C640 1.425 . S
C645 C642 1.409 . S
C645 C643 1.415 . S
C646 H636 0.930 . S
C646 C644 1.419 . S
C646 C647 1.362 . S
C647 H637 0.930 . S
C647 C640 1.409 . S
C647 C646 1.362 . S
H648 C654 0.930 . S
H649 C657 0.930 . S
H650 C658 0.930 . S
H651 C659 0.930 . S
H652 C662 0.930 . S
H653 C663 0.930 . S
C654 H648 0.930 . S
C654 C655 1.355 . S
C654 C656 1.415 . S
C655 C654 1.355 . S
C655 C657 1.419 . S
C656 C654 1.415 . S
C656 C661 1.425 . S
C656 C663 1.409 . S
C657 H649 0.930 . S
C657 C655 1.419 . S
C657 C658 1.362 . S
C658 H650 0.930 . S
C658 C657 1.362 . S
C658 C661 1.409 . S
C659 H651 0.930 . S
C659 C660 1.355 . S
C659 C661 1.415 . S
C660 C659 1.355 . S
C660 C662 1.419 . S
C661 C656 1.425 . S
C661 C658 1.409 . S
C661 C659 1.415 . S
C662 H652 0.930 . S
C662 C660 1.419 . S
C662 C663 1.362 . S
C663 H653 0.930 . S
C663 C656 1.409 . S
C663 C662 1.362 . S
H664 C670 0.930 . S
H665 C673 0.930 . S
H666 C674 0.930 . S
H667 C675 0.930 . S
H668 C678 0.930 . S
H669 C679 0.930 . S
C670 H664 0.930 . S
C670 C671 1.355 . S
C670 C672 1.415 . S
C671 C670 1.355 . S
C671 C673 1.419 . S
C672 C670 1.415 . S
C672 C677 1.425 . S
C672 C679 1.409 . S
C673 H665 0.930 . S
C673 C671 1.419 . S
C673 C674 1.362 . S
C674 H666 0.930 . S
C674 C673 1.362 . S
C674 C677 1.409 . S
C675 H667 0.930 . S
C675 C676 1.355 . S
C675 C677 1.415 . S
C676 C675 1.355 . S
C676 C678 1.419 . S
C677 C672 1.425 . S
C677 C674 1.409 . S
C677 C675 1.415 . S
C678 H668 0.930 . S
C678 C676 1.419 . S
C678 C679 1.362 . S
C679 H669 0.930 . S
C679 C672 1.409 . S
C679 C678 1.362 . S
H680 C686 0.930 . S
H681 C689 0.930 . S
H682 C690 0.930 . S
H683 C691 0.930 . S
H684 C694 0.930 . S
H685 C695 0.930 . S
C686 H680 0.930 . S
C686 C687 1.355 . S
C686 C688 1.415 . S
C687 C686 1.355 . S
C687 C689 1.419 . S
C688 C686 1.415 . S
C688 C693 1.425 . S
C688 C695 1.409 . S
C689 H681 0.930 . S
C689 C687 1.419 . S
C689 C690 1.362 . S
C690 H682 0.930 . S
C690 C689 1.362 . S
C690 C693 1.409 . S
C691 H683 0.930 . S
C691 C692 1.355 . S
C691 C693 1.415 . S
C692 C691 1.355 . S
C692 C694 1.419 . S
C693 C688 1.425 . S
C693 C690 1.409 . S
C693 C691 1.415 . S
C694 H684 0.930 . S
C694 C692 1.419 . S
C694 C695 1.362 . S
C695 H685 0.930 . S
C695 C688 1.409 . S
C695 C694 1.362 . S
H696 C702 0.930 . S
H697 C705 0.930 . S
H698 C706 0.930 . S
H699 C707 0.930 . S
H700 C710 0.930 . S
H701 C711 0.930 . S
C702 H696 0.930 . S
C702 C703 1.355 . S
C702 C704 1.415 . S
C703 C702 1.355 . S
C703 C705 1.419 . S
C704 C702 1.415 . S
C704 C709 1.425 . S
C704 C711 1.409 . S
C705 H697 0.930 . S
C705 C703 1.419 . S
C705 C706 1.362 . S
C706 H698 0.930 . S
C706 C705 1.362 . S
C706 C709 1.409 . S
C707 H699 0.930 . S
C707 C708 1.355 . S
C707 C709 1.415 . S
C708 C707 1.355 . S
C708 C710 1.419 . S
C709 C704 1.425 . S
C709 C706 1.409 . S
C709 C707 1.415 . S
C710 H700 0.930 . S
C710 C708 1.419 . S
C710 C711 1.362 . S
C711 H701 0.930 . S
C711 C704 1.409 . S
C711 C710 1.362 . S
H712 C718 0.930 . S
H713 C721 0.930 . S
H714 C722 0.930 . S
H715 C723 0.930 . S
H716 C726 0.930 . S
H717 C727 0.930 . S
C718 H712 0.930 . S
C718 C719 1.355 . S
C718 C720 1.415 . S
C719 C718 1.355 . S
C719 C721 1.419 . S
C720 C718 1.415 . S
C720 C725 1.425 . S
C720 C727 1.409 . S
C721 H713 0.930 . S
C721 C719 1.419 . S
C721 C722 1.362 . S
C722 H714 0.930 . S
C722 C721 1.362 . S
C722 C725 1.409 . S
C723 H715 0.930 . S
C723 C724 1.355 . S
C723 C725 1.415 . S
C724 C723 1.355 . S
C724 C726 1.419 . S
C725 C720 1.425 . S
C725 C722 1.409 . S
C725 C723 1.415 . S
C726 H716 0.930 . S
C726 C724 1.419 . S
C726 C727 1.362 . S
C727 H717 0.930 . S
C727 C720 1.409 . S
C727 C726 1.362 . S
H728 C734 0.930 . S
H729 C737 0.930 . S
H730 C738 0.930 . S
H731 C739 0.930 . S
H732 C742 0.930 . S
H733 C743 0.930 . S
C734 H728 0.930 . S
C734 C735 1.355 . S
C734 C736 1.415 . S
C735 C734 1.355 . S
C735 C737 1.419 . S
C736 C734 1.415 . S
C736 C741 1.425 . S
C736 C743 1.409 . S
C737 H729 0.930 . S
C737 C735 1.419 . S
C737 C738 1.362 . S
C738 H730 0.930 . S
C738 C737 1.362 . S
C738 C741 1.409 . S
C739 H731 0.930 . S
C739 C740 1.355 . S
C739 C741 1.415 . S
C740 C739 1.355 . S
C740 C742 1.419 . S
C741 C736 1.425 . S
C741 C738 1.409 . S
C741 C739 1.415 . S
C742 H732 0.930 . S
C742 C740 1.419 . S
C742 C743 1.362 . S
C743 H733 0.930 . S
C743 C736 1.409 . S
C743 C742 1.362 . S
H744 C750 0.930 . S
H745 C753 0.930 . S
H746 C754 0.930 . S
H747 C755 0.930 . S
H748 C758 0.930 . S
H749 C759 0.930 . S
C750 H744 0.930 . S
C750 C751 1.355 . S
C750 C752 1.415 . S
C751 C750 1.355 . S
C751 C753 1.419 . S
C752 C750 1.415 . S
C752 C757 1.425 . S
C752 C759 1.409 . S
C753 H745 0.930 . S
C753 C751 1.419 . S
C753 C754 1.362 . S
C754 H746 0.930 . S
C754 C753 1.362 . S
C754 C757 1.409 . S
C755 H747 0.930 . S
C755 C756 1.355 . S
C755 C757 1.415 . S
C756 C755 1.355 . S
C756 C758 1.419 . S
C757 C752 1.425 . S
C757 C754 1.409 . S
C757 C755 1.415 . S
C758 H748 0.930 . S
C758 C756 1.419 . S
C758 C759 1.362 . S
C759 H749 0.930 . S
C759 C752 1.409 . S
C759 C758 1.362 . S
H760 C766 0.930 . S
H761 C769 0.930 . S
H762 C770 0.930 . S
H763 C771 0.930 . S
H764 C774 0.930 . S
H765 C775 0.930 . S
C766 H760 0.930 . S
C766 C767 1.355 . S
C766 C768 1.415 . S
C767 C766 1.355 . S
C767 C769 1.419 . S
C768 C766 1.415 . S
C768 C773 1.425 . S
C768 C775 1.409 . S
C769 H761 0.930 . S
C769 C767 1.419 . S
C769 C770 1.362 . S
C770 H762 0.930 . S
C770 C769 1.362 . S
C770 C773 1.409 . S
C771 H763 0.930 . S
C771 C772 1.355 . S
C771 C773 1.415 . S
C772 C771 1.355 . S
C772 C774 1.419 . S
C773 C768 1.425 . S
C773 C770 1.409 . S
C773 C771 1.415 . S
C774 H764 0.930 . S
C774 C772 1.419 . S
C774 C775 1.362 . S
C775 H765 0.930 . S
C775 C768 1.409 . S
C775 C774 1.362 . S
H776 C782 0.930 . S
H777 C785 0.930 . S
H778 C786 0.930 . S
H779 C787 0.930 . S
H780 C790 0.930 . S
H781 C791 0.930 . S
C782 H776 0.930 . S
C782 C783 1.355 . S
C782 C784 1.415 . S
C783 C782 1.355 . S
C783 C785 1.419 . S
C784 C782 1.415 . S
C784 C789 1.425 . S
C784 C791 1.409 . S
C785 H777 0.930 . S
C785 C783 1.419 . S
C785 C786 1.362 . S
C786 H778 0.930 . S
C786 C785 1.362 . S
C786 C789 1.409 . S
C787 H779 0.930 . S
C787 C788 1.355 . S
C787 C789 1.415 . S
C788 C787 1.355 . S
C788 C790 1.419 . S
C789 C784 1.425 . S
C789 C786 1.409 . S
C789 C787 1.415 . S
C790 H780 0.930 . S
C790 C788 1.419 . S
C790 C791 1.362 . S
C791 H781 0.930 . S
C791 C784 1.409 . S
C791 C790 1.362 . S
H792 C798 0.930 . S
H793 C801 0.930 . S
H794 C802 0.930 . S
H795 C803 0.930 . S
H796 C806 0.930 . S
H797 C807 0.930 . S
C798 H792 0.930 . S
C798 C799 1.355 . S
C798 C800 1.415 . S
C799 C798 1.355 . S
C799 C801 1.419 . S
C800 C798 1.415 . S
C800 C805 1.425 . S
C800 C807 1.409 . S
C801 H793 0.930 . S
C801 C799 1.419 . S
C801 C802 1.362 . S
C802 H794 0.930 . S
C802 C801 1.362 . S
C802 C805 1.409 . S
C803 H795 0.930 . S
C803 C804 1.355 . S
C803 C805 1.415 . S
C804 C803 1.355 . S
C804 C806 1.419 . S
C805 C800 1.425 . S
C805 C802 1.409 . S
C805 C803 1.415 . S
C806 H796 0.930 . S
C806 C804 1.419 . S
C806 C807 1.362 . S
C807 H797 0.930 . S
C807 C800 1.409 . S
C807 C806 1.362 . S
H808 C814 0.930 . S
H809 C817 0.930 . S
H810 C818 0.930 . S
H811 C819 0.930 . S
H812 C822 0.930 . S
H813 C823 0.930 . S
C814 H808 0.930 . S
C814 C815 1.355 . S
C814 C816 1.415 . S
C815 C814 1.355 . S
C815 C817 1.419 . S
C816 C814 1.415 . S
C816 C821 1.425 . S
C816 C823 1.409 . S
C817 H809 0.930 . S
C817 C815 1.419 . S
C817 C818 1.362 . S
C818 H810 0.930 . S
C818 C817 1.362 . S
C818 C821 1.409 . S
C819 H811 0.930 . S
C819 C820 1.355 . S
C819 C821 1.415 . S
C820 C819 1.355 . S
C820 C822 1.419 . S
C821 C816 1.425 . S
C821 C818 1.409 . S
C821 C819 1.415 . S
C822 H812 0.930 . S
C822 C820 1.419 . S
C822 C823 1.362 . S
C823 H813 0.930 . S
C823 C816 1.409 . S
C823 C822 1.362 . S
H824 C830 0.930 . S
H825 C833 0.930 . S
H826 C834 0.930 . S
H827 C835 0.930 . S
H828 C838 0.930 . S
H829 C839 0.930 . S
C830 H824 0.930 . S
C830 C831 1.355 . S
C830 C832 1.415 . S
C831 C830 1.355 . S
C831 C833 1.419 . S
C832 C830 1.415 . S
C832 C837 1.425 . S
C832 C839 1.409 . S
C833 H825 0.930 . S
C833 C831 1.419 . S
C833 C834 1.362 . S
C834 H826 0.930 . S
C834 C833 1.362 . S
C834 C837 1.409 . S
C835 H827 0.930 . S
C835 C836 1.355 . S
C835 C837 1.415 . S
C836 C835 1.355 . S
C836 C838 1.419 . S
C837 C832 1.425 . S
C837 C834 1.409 . S
C837 C835 1.415 . S
C838 H828 0.930 . S
C838 C836 1.419 . S
C838 C839 1.362 . S
C839 H829 0.930 . S
C839 C832 1.409 . S
C839 C838 1.362 . S
H840 C846 0.930 . S
H841 C849 0.930 . S
H842 C850 0.930 . S
H843 C851 0.930 . S
H844 C854 0.930 . S
H845 C855 0.930 . S
C846 H840 0.930 . S
C846 C847 1.355 . S
C846 C848 1.415 . S
C847 C846 1.355 . S
C847 C849 1.419 . S
C848 C846 1.415 . S
C848 C853 1.425 . S
C848 C855 1.409 . S
C849 H841 0.930 . S
C849 C847 1.419 . S
C849 C850 1.362 . S
C850 H842 0.930 . S
C850 C849 1.362 . S
C850 C853 1.409 . S
C851 H843 0.930 . S
C851 C852 1.355 . S
C851 C853 1.415 . S
C852 C851 1.355 . S
C852 C854 1.419 . S
C853 C848 1.425 . S
C853 C850 1.409 . S
C853 C851 1.415 . S
C854 H844 0.930 . S
C854 C852 1.419 . S
C854 C855 1.362 . S
C855 H845 0.930 . S
C855 C848 1.409 . S
C855 C854 1.362 . S
H856 C862 0.930 . S
H857 C865 0.930 . S
H858 C866 0.930 . S
H859 C867 0.930 . S
H860 C870 0.930 . S
H861 C871 0.930 . S
C862 H856 0.930 . S
C862 C863 1.355 . S
C862 C864 1.415 . S
C863 C862 1.355 . S
C863 C865 1.419 . S
C864 C862 1.415 . S
C864 C869 1.425 . S
C864 C871 1.409 . S
C865 H857 0.930 . S
C865 C863 1.419 . S
C865 C866 1.362 . S
C866 H858 0.930 . S
C866 C865 1.362 . S
C866 C869 1.409 . S
C867 H859 0.930 . S
C867 C868 1.355 . S
C867 C869 1.415 . S
C868 C867 1.355 . S
C868 C870 1.419 . S
C869 C864 1.425 . S
C869 C866 1.409 . S
C869 C867 1.415 . S
C870 H860 0.930 . S
C870 C868 1.419 . S
C870 C871 1.362 . S
C871 H861 0.930 . S
C871 C864 1.409 . S
C871 C870 1.362 . S
H872 C878 0.930 . S
H873 C881 0.930 . S
H874 C882 0.930 . S
H875 C883 0.930 . S
H876 C886 0.930 . S
H877 C887 0.930 . S
C878 H872 0.930 . S
C878 C879 1.355 . S
C878 C880 1.415 . S
C879 C878 1.355 . S
C879 C881 1.419 . S
C880 C878 1.415 . S
C880 C885 1.425 . S
C880 C887 1.409 . S
C881 H873 0.930 . S
C881 C879 1.419 . S
C881 C882 1.362 . S
C882 H874 0.930 . S
C882 C881 1.362 . S
C882 C885 1.409 . S
C883 H875 0.930 . S
C883 C884 1.355 . S
C883 C885 1.415 . S
C884 C883 1.355 . S
C884 C886 1.419 . S
C885 C880 1.425 . S
C885 C882 1.409 . S
C885 C883 1.415 . S
C886 H876 0.930 . S
C886 C884 1.419 . S
C886 C887 1.362 . S
C887 H877 0.930 . S
C887 C880 1.409 . S
C887 C886 1.362 . S
H888 C894 0.930 . S
H889 C897 0.930 . S
H890 C898 0.930 . S
H891 C899 0.930 . S
H892 C902 0.930 . S
H893 C903 0.930 . S
C894 H888 0.930 . S
C894 C895 1.355 . S
C894 C896 1.415 . S
C895 C894 1.355 . S
C895 C897 1.419 . S
C896 C894 1.415 . S
C896 C901 1.425 . S
C896 C903 1.409 . S
C897 H889 0.930 . S
C897 C895 1.419 . S
C897 C898 1.362 . S
C898 H890 0.930 . S
C898 C897 1.362 . S
C898 C901 1.409 . S
C899 H891 0.930 . S
C899 C900 1.355 . S
C899 C901 1.415 . S
C900 C899 1.355 . S
C900 C902 1.419 . S
C901 C896 1.425 . S
C901 C898 1.409 . S
C901 C899 1.415 . S
C902 H892 0.930 . S
C902 C900 1.419 . S
C902 C903 1.362 . S
C903 H893 0.930 . S
C903 C896 1.409 . S
C903 C902 1.362 . S
H904 C910 0.930 . S
H905 C913 0.930 . S
H906 C914 0.930 . S
H907 C915 0.930 . S
H908 C918 0.930 . S
H909 C919 0.930 . S
C910 H904 0.930 . S
C910 C911 1.355 . S
C910 C912 1.415 . S
C911 C910 1.355 . S
C911 C913 1.419 . S
C912 C910 1.415 . S
C912 C917 1.425 . S
C912 C919 1.409 . S
C913 H905 0.930 . S
C913 C911 1.419 . S
C913 C914 1.362 . S
C914 H906 0.930 . S
C914 C913 1.362 . S
C914 C917 1.409 . S
C915 H907 0.930 . S
C915 C916 1.355 . S
C915 C917 1.415 . S
C916 C915 1.355 . S
C916 C918 1.419 . S
C917 C912 1.425 . S
C917 C914 1.409 . S
C917 C915 1.415 . S
C918 H908 0.930 . S
C918 C916 1.419 . S
C918 C919 1.362 . S
C919 H909 0.930 . S
C919 C912 1.409 . S
C919 C918 1.362 . S
H920 C926 0.930 . S
H921 C929 0.930 . S
H922 C930 0.930 . S
H923 C931 0.930 . S
H924 C934 0.930 . S
H925 C935 0.930 . S
C926 H920 0.930 . S
C926 C927 1.355 . S
C926 C928 1.415 . S
C927 C926 1.355 . S
C927 C929 1.419 . S
C928 C926 1.415 . S
C928 C933 1.425 . S
C928 C935 1.409 . S
C929 H921 0.930 . S
C929 C927 1.419 . S
C929 C930 1.362 . S
C930 H922 0.930 . S
C930 C929 1.362 . S
C930 C933 1.409 . S
C931 H923 0.930 . S
C931 C932 1.355 . S
C931 C933 1.415 . S
C932 C931 1.355 . S
C932 C934 1.419 . S
C933 C928 1.425 . S
C933 C930 1.409 . S
C933 C931 1.415 . S
C934 H924 0.930 . S
C934 C932 1.419 . S
C934 C935 1.362 . S
C935 H925 0.930 . S
C935 C928 1.409 . S
C935 C934 1.362 . S
H936 C942 0.930 . S
H937 C945 0.930 . S
H938 C946 0.930 . S
H939 C947 0.930 . S
H940 C950 0.930 . S
H941 C951 0.930 . S
C942 H936 0.930 . S
C942 C943 1.355 . S
C942 C944 1.415 . S
C943 C942 1.355 . S
C943 C945 1.419 . S
C944 C942 1.415 . S
C944 C949 1.425 . S
C944 C951 1.409 . S
C945 H937 0.930 . S
C945 C943 1.419 . S
C945 C946 1.362 . S
C946 H938 0.930 . S
C946 C945 1.362 . S
C946 C949 1.409 . S
C947 H939 0.930 . S
C947 C948 1.355 . S
C947 C949 1.415 . S
C948 C947 1.355 . S
C948 C950 1.419 . S
C949 C944 1.425 . S
C949 C946 1.409 . S
C949 C947 1.415 . S
C950 H940 0.930 . S
C950 C948 1.419 . S
C950 C951 1.362 . S
C951 H941 0.930 . S
C951 C944 1.409 . S
C951 C950 1.362 . S
H952 C958 0.930 . S
H953 C961 0.930 . S
H954 C962 0.930 . S
H955 C963 0.930 . S
H956 C966 0.930 . S
H957 C967 0.930 . S
C958 H952 0.930 . S
C958 C959 1.355 . S
C958 C960 1.415 . S
C959 C958 1.355 . S
C959 C961 1.419 . S
C960 C958 1.415 . S
C960 C965 1.425 . S
C960 C967 1.409 . S
C961 H953 0.930 . S
C961 C959 1.419 . S
C961 C962 1.362 . S
C962 H954 0.930 . S
C962 C961 1.362 . S
C962 C965 1.409 . S
C963 H955 0.930 . S
C963 C964 1.355 . S
C963 C965 1.415 . S
C964 C963 1.355 . S
C964 C966 1.419 . S
C965 C960 1.425 . S
C965 C962 1.409 . S
C965 C963 1.415 . S
C966 H956 0.930 . S
C966 C964 1.419 . S
C966 C967 1.362 . S
C967 H957 0.930 . S
C967 C960 1.409 . S
C967 C966 1.362 . S
H968 C974 0.930 . S
H969 C977 0.930 . S
H970 C978 0.930 . S
H971 C979 0.930 . S
H972 C982 0.930 . S
H973 C983 0.930 . S
C974 H968 0.930 . S
C974 C975 1.355 . S
C974 C976 1.415 . S
C975 C974 1.355 . S
C975 C977 1.419 . S
C976 C974 1.415 . S
C976 C981 1.425 . S
C976 C983 1.409 . S
C977 H969 0.930 . S
C977 C975 1.419 . S
C977 C978 1.362 . S
C978 H970 0.930 . S
C978 C977 1.362 . S
C978 C981 1.409 . S
C979 H971 0.930 . S
C979 C980 1.355 . S
C979 C981 1.415 . S
C980 C979 1.355 . S
C980 C982 1.419 . S
C981 C976 1.425 . S
C981 C978 1.409 . S
C981 C979 1.415 . S
C982 H972 0.930 . S
C982 C980 1.419 . S
C982 C983 1.362 . S
C983 H973 0.930 . S
C983 C976 1.409 . S
C983 C982 1.362 . S
H984 C990 0.930 . S
H985 C993 0.930 . S
H986 C994 0.930 . S
H987 C995 0.930 . S
H988 C998 0.930 . S
H989 C999 0.930 . S
C990 H984 0.930 . S
C990 C991 1.355 . S
C990 C992 1.415 . S
C991 C990 1.355 . S
C991 C993 1.419 . S
C992 C990 1.415 . S
C992 C997 1.425 . S
C992 C999 1.409 . S
C993 H985 0.930 . S
C993 C991 1.419 . S
C993 C994 1.362 . S
C994 H986 0.930 . S
C994 C993 1.362 . S
C994 C997 1.409 . S
C995 H987 0.930 . S
C995 C996 1.355 . S
C995 C997 1.415 . S
C996 C995 1.355 . S
C996 C998 1.419 . S
C997 C992 1.425 . S
C997 C994 1.409 . S
C997 C995 1.415 . S
C998 H988 0.930 . S
C998 C996 1.419 . S
C998 C999 1.362 . S
C999 H989 0.930 . S
C999 C992 1.409 . S
C999 C998 1.362 . S
H1000 C1006 0.930 . S
H1001 C1009 0.930 . S
H1002 C1010 0.930 . S
H1003 C1011 0.930 . S
H1004 C1014 0.930 . S
H1005 C1015 0.930 . S
C1006 H1000 0.930 . S
C1006 C1007 1.355 . S
C1006 C1008 1.415 . S
C1007 C1006 1.355 . S
C1007 C1009 1.419 . S
C1008 C1006 1.415 . S
C1008 C1013 1.425 . S
C1008 C1015 1.409 . S
C1009 H1001 0.930 . S
C1009 C1007 1.419 . S
C1009 C1010 1.362 . S
C1010 H1002 0.930 . S
C1010 C1009 1.362 . S
C1010 C1013 1.409 . S
C1011 H1003 0.930 . S
C1011 C1012 1.355 . S
C1011 C1013 1.415 . S
C1012 C1011 1.355 . S
C1012 C1014 1.419 . S
C1013 C1008 1.425 . S
C1013 C1010 1.409 . S
C1013 C1011 1.415 . S
C1014 H1004 0.930 . S
C1014 C1012 1.419 . S
C1014 C1015 1.362 . S
C1015 H1005 0.930 . S
C1015 C1008 1.409 . S
C1015 C1014 1.362 . S
H1016 C1022 0.930 . S
H1017 C1025 0.930 . S
H1018 C1026 0.930 . S
H1019 C1027 0.930 . S
H1020 C1030 0.930 . S
H1021 C1031 0.930 . S
C1022 H1016 0.930 . S
C1022 C1023 1.355 . S
C1022 C1024 1.415 . S
C1023 C1022 1.355 . S
C1023 C1025 1.419 . S
C1024 C1022 1.415 . S
C1024 C1029 1.425 . S
C1024 C1031 1.409 . S
C1025 H1017 0.930 . S
C1025 C1023 1.419 . S
C1025 C1026 1.362 . S
C1026 H1018 0.930 . S
C1026 C1025 1.362 . S
C1026 C1029 1.409 . S
C1027 H1019 0.930 . S
C1027 C1028 1.355 . S
C1027 C1029 1.415 . S
C1028 C1027 1.355 . S
C1028 C1030 1.419 . S
C1029 C1024 1.425 . S
C1029 C1026 1.409 . S
C1029 C1027 1.415 . S
C1030 H1020 0.930 . S
C1030 C1028 1.419 . S
C1030 C1031 1.362 . S
C1031 H1021 0.930 . S
C1031 C1024 1.409 . S
C1031 C1030 1.362 . S
H1032 C1038 0.930 . S
H1033 C1041 0.930 . S
H1034 C1042 0.930 . S
H1035 C1043 0.930 . S
H1036 C1046 0.930 . S
H1037 C1047 0.930 . S
C1038 H1032 0.930 . S
C1038 C1039 1.355 . S
C1038 C1040 1.415 . S
C1039 C1038 1.355 . S
C1039 C1041 1.419 . S
C1040 C1038 1.415 . S
C1040 C1045 1.425 . S
C1040 C1047 1.409 . S
C1041 H1033 0.930 . S
C1041 C1039 1.419 . S
C1041 C1042 1.362 . S
C1042 H1034 0.930 . S
C1042 C1041 1.362 . S
C1042 C1045 1.409 . S
C1043 H1035 0.930 . S
C1043 C1044 1.355 . S
C1043 C1045 1.415 . S
C1044 C1043 1.355 . S
C1044 C1046 1.419 . S
C1045 C1040 1.425 . S
C1045 C1042 1.409 . S
C1045 C1043 1.415 . S
C1046 H1036 0.930 . S
C1046 C1044 1.419 . S
C1046 C1047 1.362 . S
C1047 H1037 0.930 . S
C1047 C1040 1.409 . S
C1047 C1046 1.362 . S
H1048 C1054 0.930 . S
H1049 C1057 0.930 . S
H1050 C1058 0.930 . S
H1051 C1059 0.930 . S
H1052 C1062 0.930 . S
H1053 C1063 0.930 . S
C1054 H1048 0.930 . S
C1054 C1055 1.355 . S
C1054 C1056 1.415 . S
C1055 C1054 1.355 . S
C1055 C1057 1.419 . S
C1056 C1054 1.415 . S
C1056 C1061 1.425 . S
C1056 C1063 1.409 . S
C1057 H1049 0.930 . S
C1057 C1055 1.419 . S
C1057 C1058 1.362 . S
C1058 H1050 0.930 . S
C1058 C1057 1.362 . S
C1058 C1061 1.409 . S
C1059 H1051 0.930 . S
C1059 C1060 1.355 . S
C1059 C1061 1.415 . S
C1060 C1059 1.355 . S
C1060 C1062 1.419 . S
C1061 C1056 1.425 . S
C1061 C1058 1.409 . S
C1061 C1059 1.415 . S
C1062 H1052 0.930 . S
C1062 C1060 1.419 . S
C1062 C1063 1.362 . S
C1063 H1053 0.930 . S
C1063 C1056 1.409 . S
C1063 C1062 1.362 . S
H1064 C1070 0.930 . S
H1065 C1073 0.930 . S
H1066 C1074 0.930 . S
H1067 C1075 0.930 . S
H1068 C1078 0.930 . S
H1069 C1079 0.930 . S
C1070 H1064 0.930 . S
C1070 C1071 1.355 . S
C1070 C1072 1.415 . S
C1071 C1070 1.355 . S
C1071 C1073 1.419 . S
C1072 C1070 1.415 . S
C1072 C1077 1.425 . S
C1072 C1079 1.409 . S
C1073 H1065 0.930 . S
C1073 C1071 1.419 . S
C1073 C1074 1.362 . S
C1074 H1066 0.930 . S
C1074 C1073 1.362 . S
C1074 C1077 1.409 . S
C1075 H1067 0.930 . S
C1075 C1076 1.355 . S
C1075 C1077 1.415 . S
C1076 C1075 1.355 . S
C1076 C1078 1.419 . S
C1077 C1072 1.425 . S
C1077 C1074 1.409 . S
C1077 C1075 1.415 . S
C1078 H1068 0.930 . S
C1078 C1076 1.419 . S
C1078 C1079 1.362 . S
C1079 H1069 0.930 . S
C1079 C1072 1.409 . S
C1079 C1078 1.362 . S
H1080 C1086 0.930 . S
H1081 C1089 0.930 . S
H1082 C1090 0.930 . S
H1083 C1091 0.930 . S
H1084 C1094 0.930 . S
H1085 C1095 0.930 . S
C1086 H1080 0.930 . S
C1086 C1087 1.355 . S
C1086 C1088 1.415 . S
C1087 C1086 1.355 . S
C1087 C1089 1.419 . S
C1088 C1086 1.415 . S
C1088 C1093 1.425 . S
C1088 C1095 1.409 . S
C1089 H1081 0.930 . S
C1089 C1087 1.419 . S
C1089 C1090 1.362 . S
C1090 H1082 0.930 . S
C1090 C1089 1.362 . S
C1090 C1093 1.409 . S
C1091 H1083 0.930 . S
C1091 C1092 1.355 . S
C1091 C1093 1.415 . S
C1092 C1091 1.355 . S
C1092 C1094 1.419 . S
C1093 C1088 1.425 . S
C1093 C1090 1.409 . S
C1093 C1091 1.415 . S
C1094 H1084 0.930 . S
C1094 C1092 1.419 . S
C1094 C1095 1.362 . S
C1095 H1085 0.930 . S
C1095 C1088 1.409 . S
C1095 C1094 1.362 . S
H1096 C1102 0.930 . S
H1097 C1105 0.930 . S
H1098 C1106 0.930 . S
H1099 C1107 0.930 . S
H1100 C1110 0.930 . S
H1101 C1111 0.930 . S
C1102 H1096 0.930 . S
C1102 C1103 1.355 . S
C1102 C1104 1.415 . S
C1103 C1102 1.355 . S
C1103 C1105 1.419 . S
C1104 C1102 1.415 . S
C1104 C1109 1.425 . S
C1104 C1111 1.409 . S
C1105 H1097 0.930 . S
C1105 C1103 1.419 . S
C1105 C1106 1.362 . S
C1106 H1098 0.930 . S
C1106 C1105 1.362 . S
C1106 C1109 1.409 . S
C1107 H1099 0.930 . S
C1107 C1108 1.355 . S
C1107 C1109 1.415 . S
C1108 C1107 1.355 . S
C1108 C1110 1.419 . S
C1109 C1104 1.425 . S
C1109 C1106 1.409 . S
C1109 C1107 1.415 . S
C1110 H1100 0.930 . S
C1110 C1108 1.419 . S
C1110 C1111 1.362 . S
C1111 H1101 0.930 . S
C1111 C1104 1.409 . S
C1111 C1110 1.362 . S
H1112 C1118 0.930 . S
H1113 C1121 0.930 . S
H1114 C1122 0.930 . S
H1115 C1123 0.930 . S
H1116 C1126 0.930 . S
H1117 C1127 0.930 . S
C1118 H1112 0.930 . S
C1118 C1119 1.355 . S
C1118 C1120 1.415 . S
C1119 C1118 1.355 . S
C1119 C1121 1.419 . S
C1120 C1118 1.415 . S
C1120 C1125 1.425 . S
C1120 C1127 1.409 . S
C1121 H1113 0.930 . S
C1121 C1119 1.419 . S
C1121 C1122 1.362 . S
C1122 H1114 0.930 . S
C1122 C1121 1.362 . S
C1122 C1125 1.409 . S
C1123 H1115 0.930 . S
C1123 C1124 1.355 . S
C1123 C1125 1.415 . S
C1124 C1123 1.355 . S
C1124 C1126 1.419 . S
C1125 C1120 1.425 . S
C1125 C1122 1.409 . S
C1125 C1123 1.415 . S
C1126 H1116 0.930 . S
C1126 C1124 1.419 . S
C1126 C1127 1.362 . S
C1127 H1117 0.930 . S
C1127 C1120 1.409 . S
C1127 C1126 1.362 . S
H1128 C1134 0.930 . S
H1129 C1137 0.930 . S
H1130 C1138 0.930 . S
H1131 C1139 0.930 . S
H1132 C1142 0.930 . S
H1133 C1143 0.930 . S
C1134 H1128 0.930 . S
C1134 C1135 1.355 . S
C1134 C1136 1.415 . S
C1135 C1134 1.355 . S
C1135 C1137 1.419 . S
C1136 C1134 1.415 . S
C1136 C1141 1.425 . S
C1136 C1143 1.409 . S
C1137 H1129 0.930 . S
C1137 C1135 1.419 . S
C1137 C1138 1.362 . S
C1138 H1130 0.930 . S
C1138 C1137 1.362 . S
C1138 C1141 1.409 . S
C1139 H1131 0.930 . S
C1139 C1140 1.355 . S
C1139 C1141 1.415 . S
C1140 C1139 1.355 . S
C1140 C1142 1.419 . S
C1141 C1136 1.425 . S
C1141 C1138 1.409 . S
C1141 C1139 1.415 . S
C1142 H1132 0.930 . S
C1142 C1140 1.419 . S
C1142 C1143 1.362 . S
C1143 H1133 0.930 . S
C1143 C1136 1.409 . S
C1143 C1142 1.362 . S
H1144 C1150 0.930 . S
H1145 C1153 0.930 . S
H1146 C1154 0.930 . S
H1147 C1155 0.930 . S
H1148 C1158 0.930 . S
H1149 C1159 0.930 . S
C1150 H1144 0.930 . S
C1150 C1151 1.355 . S
C1150 C1152 1.415 . S
C1151 C1150 1.355 . S
C1151 C1153 1.419 . S
C1152 C1150 1.415 . S
C1152 C1157 1.425 . S
C1152 C1159 1.409 . S
C1153 H1145 0.930 . S
C1153 C1151 1.419 . S
C1153 C1154 1.362 . S
C1154 H1146 0.930 . S
C1154 C1153 1.362 . S
C1154 C1157 1.409 . S
C1155 H1147 0.930 . S
C1155 C1156 1.355 . S
C1155 C1157 1.415 . S
C1156 C1155 1.355 . S
C1156 C1158 1.419 . S
C1157 C1152 1.425 . S
C1157 C1154 1.409 . S
C1157 C1155 1.415 . S
C1158 H1148 0.930 . S
C1158 C1156 1.419 . S
C1158 C1159 1.362 . S
C1159 H1149 0.930 . S
C1159 C1152 1.409 . S
C1159 C1158 1.362 . S
H1160 C1166 0.930 . S
H1161 C1169 0.930 . S
H1162 C1170 0.930 . S
H1163 C1171 0.930 . S
H1164 C1174 0.930 . S
H1165 C1175 0.930 . S
C1166 H1160 0.930 . S
C1166 C1167 1.355 . S
C1166 C1168 1.415 . S
C1167 C1166 1.355 . S
C1167 C1169 1.419 . S
C1168 C1166 1.415 . S
C1168 C1173 1.425 . S
C1168 C1175 1.409 . S
C1169 H1161 0.930 . S
C1169 C1167 1.419 . S
C1169 C1170 1.362 . S
C1170 H1162 0.930 . S
C1170 C1169 1.362 . S
C1170 C1173 1.409 . S
C1171 H1163 0.930 . S
C1171 C1172 1.355 . S
C1171 C1173 1.415 . S
C1172 C1171 1.355 . S
C1172 C1174 1.419 . S
C1173 C1168 1.425 . S
C1173 C1170 1.409 . S
C1173 C1171 1.415 . S
C1174 H1164 0.930 . S
C1174 C1172 1.419 . S
C1174 C1175 1.362 . S
C1175 H1165 0.930 . S
C1175 C1168 1.409 . S
C1175 C1174 1.362 . S
H1176 C1182 0.930 . S
H1177 C1185 0.930 . S
H1178 C1186 0.930 . S
H1179 C1187 0.930 . S
H1180 C1190 0.930 . S
H1181 C1191 0.930 . S
C1182 H1176 0.930 . S
C1182 C1183 1.355 . S
C1182 C1184 1.415 . S
C1183 C1182 1.355 . S
C1183 C1185 1.419 . S
C1184 C1182 1.415 . S
C1184 C1189 1.425 . S
C1184 C1191 1.409 . S
C1185 H1177 0.930 . S
C1185 C1183 1.419 . S
C1185 C1186 1.362 . S
C1186 H1178 0.930 . S
C1186 C1185 1.362 . S
C1186 C1189 1.409 . S
C1187 H1179 0.930 . S
C1187 C1188 1.355 . S
C1187 C1189 1.415 . S
C1188 C1187 1.355 . S
C1188 C1190 1.419 . S
C1189 C1184 1.425 . S
C1189 C1186 1.409 . S
C1189 C1187 1.415 . S
C1190 H1180 0.930 . S
C1190 C1188 1.419 . S
C1190 C1191 1.362 . S
C1191 H1181 0.930 . S
C1191 C1184 1.409 . S
C1191 C1190 1.362 . S
H1192 C1198 0.930 . S
H1193 C1201 0.930 . S
H1194 C1202 0.930 . S
H1195 C1203 0.930 . S
H1196 C1206 0.930 . S
H1197 C1207 0.930 . S
C1198 H1192 0.930 . S
C1198 C1199 1.355 . S
C1198 C1200 1.415 . S
C1199 C1198 1.355 . S
C1199 C1201 1.419 . S
C1200 C1198 1.415 . S
C1200 C1205 1.425 . S
C1200 C1207 1.409 . S
C1201 H1193 0.930 . S
C1201 C1199 1.419 . S
C1201 C1202 1.362 . S
C1202 H1194 0.930 . S
C1202 C1201 1.362 . S
C1202 C1205 1.409 . S
C1203 H1195 0.930 . S
C1203 C1204 1.355 . S
C1203 C1205 1.415 . S
C1204 C1203 1.355 . S
C1204 C1206 1.419 . S
C1205 C1200 1.425 . S
C1205 C1202 1.409 . S
C1205 C1203 1.415 . S
C1206 H1196 0.930 . S
C1206 C1204 1.419 . S
C1206 C1207 1.362 . S
C1207 H1197 0.930 . S
C1207 C1200 1.409 . S
C1207 C1206 1.362 . S
H1208 C1214 0.930 . S
H1209 C1217 0.930 . S
H1210 C1218 0.930 . S
H1211 C1219 0.930 . S
H1212 C1222 0.930 . S
H1213 C1223 0.930 . S
C1214 H1208 0.930 . S
C1214 C1215 1.355 . S
C1214 C1216 1.415 . S
C1215 C1214 1.355 . S
C1215 C1217 1.419 . S
C1216 C1214 1.415 . S
C1216 C1221 1.425 . S
C1216 C1223 1.409 . S
C1217 H1209 0.930 . S
C1217 C1215 1.419 . S
C1217 C1218 1.362 . S
C1218 H1210 0.930 . S
C1218 C1217 1.362 . S
C1218 C1221 1.409 . S
C1219 H1211 0.930 . S
C1219 C1220 1.355 . S
C1219 C1221 1.415 . S
C1220 C1219 1.355 . S
C1220 C1222 1.419 . S
C1221 C1216 1.425 . S
C1221 C1218 1.409 . S
C1221 C1219 1.415 . S
C1222 H1212 0.930 . S
C1222 C1220 1.419 . S
C1222 C1223 1.362 . S
C1223 H1213 0.930 . S
C1223 C1216 1.409 . S
C1223 C1222 1.362 . S
H1224 C1230 0.930 . S
H1225 C1233 0.930 . S
H1226 C1234 0.930 . S
H1227 C1235 0.930 . S
H1228 C1238 0.930 . S
H1229 C1239 0.930 . S
C1230 H1224 0.930 . S
C1230 C1231 1.355 . S
C1230 C1232 1.415 . S
C1231 C1230 1.355 . S
C1231 C1233 1.419 . S
C1232 C1230 1.415 . S
C1232 C1237 1.425 . S
C1232 C1239 1.409 . S
C1233 H1225 0.930 . S
C1233 C1231 1.419 . S
C1233 C1234 1.362 . S
C1234 H1226 0.930 . S
C1234 C1233 1.362 . S
C1234 C1237 1.409 . S
C1235 H1227 0.930 . S
C1235 C1236 1.355 . S
C1235 C1237 1.415 . S
C1236 C1235 1.355 . S
C1236 C1238 1.419 . S
C1237 C1232 1.425 . S
C1237 C1234 1.409 . S
C1237 C1235 1.415 . S
C1238 H1228 0.930 . S
C1238 C1236 1.419 . S
C1238 C1239 1.362 . S
C1239 H1229 0.930 . S
C1239 C1232 1.409 . S
C1239 C1238 1.362 . S
H1240 C1246 0.930 . S
H1241 C1249 0.930 . S
H1242 C1250 0.930 . S
H1243 C1251 0.930 . S
H1244 C1254 0.930 . S
H1245 C1255 0.930 . S
C1246 H1240 0.930 . S
C1246 C1247 1.355 . S
C1246 C1248 1.415 . S
C1247 C1246 1.355 . S
C1247 C1249 1.419 . S
C1248 C1246 1.415 . S
C1248 C1253 1.425 . S
C1248 C1255 1.409 . S
C1249 H1241 0.930 . S
C1249 C1247 1.419 . S
C1249 C1250 1.362 . S
C1250 H1242 0.930 . S
C1250 C1249 1.362 . S
C1250 C1253 1.409 . S
C1251 H1243 0.930 . S
C1251 C1252 1.355 . S
C1251 C1253 1.415 . S
C1252 C1251 1.355 . S
C1252 C1254 1.419 . S
C1253 C1248 1.425 . S
C1253 C1250 1.409 . S
C1253 C1251 1.415 . S
C1254 H1244 0.930 . S
C1254 C1252 1.419 . S
C1254 C1255 1.362 . S
C1255 H1245 0.930 . S
C1255 C1248 1.409 . S
C1255 C1254 1.362 . S
H1256 C1262 0.930 . S
H1257 C1265 0.930 . S
H1258 C1266 0.930 . S
H1259 C1267 0.930 . S
H1260 C1270 0.930 . S
H1261 C1271 0.930 . S
C1262 H1256 0.930 . S
C1262 C1263 1.355 . S
C1262 C1264 1.415 . S
C1263 C1262 1.355 . S
C1263 C1265 1.419 . S
C1264 C1262 1.415 . S
C1264 C1269 1.425 . S
C1264 C1271 1.409 . S
C1265 H1257 0.930 . S
C1265 C1263 1.419 . S
C1265 C1266 1.362 . S
C1266 H1258 0.930 . S
C1266 C1265 1.362 . S
C1266 C1269 1.409 . S
C1267 H1259 0.930 . S
C1267 C1268 1.355 . S
C1267 C1269 1.415 . S
C1268 C1267 1.355 . S
C1268 C1270 1.419 . S
C1269 C1264 1.425 . S
C1269 C1266 1.409 . S
C1269 C1267 1.415 . S
C1270 H1260 0.930 . S
C1270 C1268 1.419 . S
C1270 C1271 1.362 . S
C1271 H1261 0.930 . S
C1271 C1264 1.409 . S
C1271 C1270 1.362 . S
H1272 C1278 0.930 . S
H1273 C1281 0.930 . S
H1274 C1282 0.930 . S
H1275 C1283 0.930 . S
H1276 C1286 0.930 . S
H1277 C1287 0.930 . S
C1278 H1272 0.930 . S
C1278 C1279 1.355 . S
C1278 C1280 1.415 . S
C1279 C1278 1.355 . S
C1279 C1281 1.419 . S
C1280 C1278 1.415 . S
C1280 C1285 1.425 . S
C1280 C1287 1.409 . S
C1281 H1273 0.930 . S
C1281 C1279 1.419 . S
C1281 C1282 1.362 . S
C1282 H1274 0.930 . S
C1282 C1281 1.362 . S
C1282 C1285 1.409 . S
C1283 H1275 0.930 . S
C1283 C1284 1.355 . S
C1283 C1285 1.415 . S
C1284 C1283 1.355 . S
C1284 C1286 1.419 . S
C1285 C1280 1.425 . S
C1285 C1282 1.409 . S
C1285 C1283 1.415 . S
C1286 H1276 0.930 . S
C1286 C1284 1.419 . S
C1286 C1287 1.362 . S
C1287 H1277 0.930 . S
C1287 C1280 1.409 . S
C1287 C1286 1.362 . S
H1288 C1294 0.930 . S
H1289 C1297 0.930 . S
H1290 C1298 0.930 . S
H1291 C1299 0.930 . S
H1292 C1302 0.930 . S
H1293 C1303 0.930 . S
C1294 H1288 0.930 . S
C1294 C1295 1.355 . S
C1294 C1296 1.415 . S
C1295 C1294 1.355 . S
C1295 C1297 1.419 . S
C1296 C1294 1.415 . S
C1296 C1301 1.425 . S
C1296 C1303 1.409 . S
C1297 H1289 0.930 . S
C1297 C1295 1.419 . S
C1297 C1298 1.362 . S
C1298 H1290 0.930 . S
C1298 C1297 1.362 . S
C1298 C1301 1.409 . S
C1299 H1291 0.930 . S
C1299 C1300 1.355 . S
C1299 C1301 1.415 . S
C1300 C1299 1.355 . S
C1300 C1302 1.419 . S
C1301 C1296 1.425 . S
C1301 C1298 1.409 . S
C1301 C1299 1.415 . S
C1302 H1292 0.930 . S
C1302 C1300 1.419 . S
C1302 C1303 1.362 . S
C1303 H1293 0.930 . S
C1303 C1296 1.409 . S
C1303 C1302 1.362 . S
H1304 C1310 0.930 . S
H1305 C1313 0.930 . S
H1306 C1314 0.930 . S
H1307 C1315 0.930 . S
H1308 C1318 0.930 . S
H1309 C1319 0.930 . S
C1310 H1304 0.930 . S
C1310 C1311 1.355 . S
C1310 C1312 1.415 . S
C1311 C1310 1.355 . S
C1311 C1313 1.419 . S
C1312 C1310 1.415 . S
C1312 C1317 1.425 . S
C1312 C1319 1.409 . S
C1313 H1305 0.930 . S
C1313 C1311 1.419 . S
C1313 C1314 1.362 . S
C1314 H1306 0.930 . S
C1314 C1313 1.362 . S
C1314 C1317 1.409 . S
C1315 H1307 0.930 . S
C1315 C1316 1.355 . S
C1315 C1317 1.415 . S
C1316 C1315 1.355 . S
C1316 C1318 1.419 . S
C1317 C1312 1.425 . S
C1317 C1314 1.409 . S
C1317 C1315 1.415 . S
C1318 H1308 0.930 . S
C1318 C1316 1.419 . S
C1318 C1319 1.362 . S
C1319 H1309 0.930 . S
C1319 C1312 1.409 . S
C1319 C1318 1.362 . S
C559 N518 1.249 . S
C564 N12 1.235 . S
C575 C39 1.650 . S
C580 C536 1.660 . S
C591 N472 1.224 . S
C596 N58 1.258 . S
C607 C490 1.755 . S
C612 C76 1.754 . S
C623 C499 1.632 . S
C628 N104 1.572 . S
C639 N117 1.315 . S
C644 N508 1.313 . S
C655 C545 1.531 . S
C660 N150 1.428 . S
C671 C177 1.312 . S
C676 N462 1.275 . S
C687 C191 1.304 . S
C692 N439 1.325 . S
C703 C384 1.818 . S
C708 C223 1.839 . S
C719 N232 1.138 . S
C724 N393 1.153 . S
C735 N426 1.595 . S
C740 C269 1.626 . S
C751 C260 1.645 . S
C756 N301 1.644 . S
C767 C200 1.443 . S
C772 N334 1.412 . S
C783 C361 1.664 . S
C788 C214 1.666 . S
C799 N242 1.153 . S
C804 N288 1.167 . S
C815 C30 1.613 . S
C820 N416 1.597 . S
C831 N324 1.510 . S
C836 C168 1.504 . S
C847 N94 1.578 . S
C852 C352 1.572 . S
C863 N278 1.348 . S
C868 N127 1.345 . S
C879 N140 1.422 . S
C884 N311 1.393 . S
C895 C85 1.859 . S
C900 C375 1.842 . S
C911 N2 1.205 . S
C916 N403 1.212 . S
C927 N48 1.346 . S
C932 N449 1.228 . S
C943 C145 2.002 . S
C948 C467 2.005 . S
C959 N495 1.404 . S
C964 N163 1.370 . S
C975 C513 1.895 . S
C980 C99 1.888 . S
C991 N541 1.349 . S
C996 C131 1.354 . S
C1007 C53 1.503 . S
C1012 N531 1.466 . S
C1023 N81 1.806 . S
C1028 C476 1.805 . S
C1039 C7 1.599 . S
C1044 N485 1.577 . S
C1055 C522 1.594 . S
C1060 N25 1.558 . S
C1071 C246 1.730 . S
C1076 C315 1.728 . S
C1087 N255 1.313 . S
C1092 C329 1.380 . S
C1103 N196 1.724 . S
C1108 N347 1.662 . S
C1119 N209 1.356 . S
C1124 C283 1.406 . S
C1135 N219 1.536 . S
C1140 C453 1.569 . S
C1151 N370 1.605 . S
C1156 C237 1.638 . S
C1167 N265 1.386 . S
C1172 C407 1.375 . S
C1183 N186 1.677 . S
C1188 C421 1.727 . S
C1199 C292 1.279 . S
C1204 N173 1.226 . S
C1215 N380 1.474 . S
C1220 N35 1.532 . S
C1231 C62 1.494 . S
C1236 C398 1.508 . S
C1247 C430 1.753 . S
C1252 N71 1.702 . S
C1263 C444 1.641 . S
C1268 C16 1.626 . S
C1279 C122 1.351 . S
C1284 C338 1.340 . S
C1295 N357 1.869 . S
C1300 C154 1.905 . S
C1311 C306 1.974 . S
C1316 C108 1.972 . S
