# Generated by pormake.
# Topology tsi, (8)-cn, num edge types: 1
# Building blocks:
#     Node 0, Type 0, BuildingBlock: AJUNOK_clean_sbu_0, # of connection points: 8
#     Node 1, Type 0, BuildingBlock: AJUNOK_clean_sbu_0, # of connection points: 8
#     Node 2, Type 0, BuildingBlock: AJUNOK_clean_sbu_0, # of connection points: 8
#     Node 3, Type 0, BuildingBlock: AJUNOK_clean_sbu_0, # of connection points: 8
#     Edge 4, Type (0, 0), BuildingBlock: XIVTED_clean_linker_0, # of connection points: 2
#     Edge 5, Type (0, 0), BuildingBlock: XIVTED_clean_linker_0, # of connection points: 2
#     Edge 6, Type (0, 0), BuildingBlock: XIVTED_clean_linker_0, # of connection points: 2
#     Edge 7, Type (0, 0), BuildingBlock: XIVTED_clean_linker_0, # of connection points: 2
#     Edge 8, Type (0, 0), BuildingBlock: XIVTED_clean_linker_0, # of connection points: 2
#     Edge 9, Type (0, 0), BuildingBlock: XIVTED_clean_linker_0, # of connection points: 2
#     Edge 10, Type (0, 0), BuildingBlock: XIVTED_clean_linker_0, # of connection points: 2
#     Edge 11, Type (0, 0), BuildingBlock: XIVTED_clean_linker_0, # of connection points: 2
#     Edge 12, Type (0, 0), BuildingBlock: XIVTED_clean_linker_0, # of connection points: 2
#     Edge 13, Type (0, 0), BuildingBlock: XIVTED_clean_linker_0, # of connection points: 2
#     Edge 14, Type (0, 0), BuildingBlock: XIVTED_clean_linker_0, # of connection points: 2
#     Edge 15, Type (0, 0), BuildingBlock: XIVTED_clean_linker_0, # of connection points: 2
#     Edge 16, Type (0, 0), BuildingBlock: XIVTED_clean_linker_0, # of connection points: 2
#     Edge 17, Type (0, 0), BuildingBlock: XIVTED_clean_linker_0, # of connection points: 2
#     Edge 18, Type (0, 0), BuildingBlock: XIVTED_clean_linker_0, # of connection points: 2
#     Edge 19, Type (0, 0), BuildingBlock: XIVTED_clean_linker_0, # of connection points: 2
# Relax obj value: 0.179
# Max RMSD: 0.223
# Mean RMSD: 0.223
data_MOF--net-tsi--node1-AJUNOK_clean_sbu_0--edge1-XIVTED_clean_linker_0
_symmetry_space_group_name_H-M    P1
_symmetry_Int_Tables_number       1
_symmetry_cell_setting            triclinic
loop_
_symmetry_equiv_pos_as_xyz
'x, y, z'
_cell_length_a     15.79871
_cell_length_b     15.72044
_cell_length_c     75.58202
_cell_angle_alpha  89.803426
_cell_angle_beta   89.979287
_cell_angle_gamma 89.774094
loop_
_atom_site_label
_atom_site_type_symbol
_atom_site_fract_x
_atom_site_fract_y
_atom_site_fract_z
_atom_type_partial_charge
Cd0 Cd 0.0365 0.20594 0.41381 0.0
Cd1 Cd 0.0255 0.40747 0.38123 0.0
C2 C 0.15474 0.17664 0.37875 0.0
N3 N 0.0721 0.1863 0.3834 0.0
C4 C 0.02957 0.13424 0.35492 0.0
C5 C 0.11461 0.13101 0.34919 0.0
C6 C 0.17729 0.15274 0.36162 0.0
C7 C 0.00978 0.16323 0.37198 0.0
H8 H 0.20395 0.18406 0.38848 0.0
H9 H 0.9445 0.16477 0.37629 0.0
C10 C 0.84916 0.31321 0.40332 0.0
C11 C 0.92845 0.51916 0.41155 0.0
C12 C 0.91437 0.56117 0.42758 0.0
C13 C 0.98139 0.57172 0.4396 0.0
C14 C 0.06195 0.54157 0.43479 0.0
C15 C 0.07301 0.49935 0.41869 0.0
N16 N 0.00629 0.48685 0.40762 0.0
H17 H 0.8767 0.51155 0.40235 0.0
H18 H 0.13498 0.4761 0.41516 0.0
C19 C 0.91601 0.31625 0.35031 0.0
N20 N 0.99711 0.33554 0.35481 0.0
C21 C 0.04133 0.32025 0.32469 0.0
C22 C 0.95799 0.30081 0.3196 0.0
C23 C 0.89533 0.29731 0.33279 0.0
C24 C 0.05956 0.33719 0.34243 0.0
H25 H 0.86625 0.31961 0.36007 0.0
H26 H 0.12281 0.35599 0.34619 0.0
C27 C 0.2098 0.33159 0.40345 0.0
C28 C 0.02772 0.03404 0.40662 0.0
N29 N 0.05461 0.18571 0.44435 0.0
C30 C 0.13165 0.1585 0.45011 0.0
C31 C 0.14302 0.13335 0.46771 0.0
C32 C 0.07443 0.13608 0.47955 0.0
C33 C 0.9962 0.1672 0.47335 0.0
C34 C 0.98753 0.19136 0.45558 0.0
C35 C 0.03447 0.54869 0.35826 0.0
O36 O 0.89053 0.26446 0.41367 0.0
O37 O 0.88718 0.35755 0.39173 0.0
O38 O 0.17151 0.36478 0.39024 0.0
O39 O 0.16972 0.28788 0.41492 0.0
O40 O 0.96032 0.07753 0.40831 0.0
O41 O 0.09582 0.06672 0.41229 0.0
O42 O 0.10105 0.51288 0.36402 0.0
O43 O 0.96453 0.52172 0.36421 0.0
H44 H 0.18369 0.15362 0.44086 0.0
H45 H 0.92654 0.21176 0.45059 0.0
H46 H 0.97808 0.115 0.34644 0.0
H47 H 0.24389 0.15164 0.35841 0.0
H48 H 0.85154 0.5849 0.43057 0.0
H49 H 0.11548 0.54815 0.44362 0.0
H50 H 0.09201 0.32276 0.31505 0.0
H51 H 0.82995 0.28439 0.3295 0.0
H52 H 0.20469 0.11087 0.47193 0.0
H53 H 0.94137 0.16958 0.48193 0.0
Cd54 Cd 0.0475 0.75841 0.66398 0.0
Cd55 Cd 0.85919 0.75253 0.63198 0.0
C56 C 0.1062 0.90817 0.63543 0.0
N57 N 0.08116 0.82536 0.63643 0.0
C58 C 0.09462 0.812 0.60498 0.0
C59 C 0.11035 0.89941 0.60339 0.0
C60 C 0.1183 0.94738 0.61895 0.0
C61 C 0.07848 0.7766 0.6216 0.0
H62 H 0.11344 0.94499 0.64739 0.0
H63 H 0.06212 0.71025 0.62254 0.0
C64 C 0.94088 0.58844 0.65333 0.0
C65 C 0.76255 0.69221 0.66758 0.0
C66 C 0.71788 0.69386 0.68354 0.0
C67 C 0.69253 0.77202 0.69082 0.0
C68 C 0.71146 0.84683 0.6814 0.0
C69 C 0.75604 0.84214 0.66541 0.0
N70 N 0.78339 0.76574 0.6591 0.0
H71 H 0.78003 0.63172 0.66192 0.0
H72 H 0.76726 0.89971 0.65799 0.0
C73 C 0.92135 0.68852 0.59539 0.0
N74 N 0.90346 0.76581 0.60249 0.0
C75 C 0.91252 0.83122 0.57384 0.0
C76 C 0.92713 0.75105 0.56616 0.0
C77 C 0.93366 0.67973 0.57727 0.0
C78 C 0.89945 0.83709 0.5922 0.0
H79 H 0.92257 0.63271 0.60377 0.0
H80 H 0.88329 0.8976 0.5981 0.0
C81 C 0.93065 0.94262 0.6513 0.0
C82 C 0.18593 0.65673 0.65387 0.0
N83 N 0.08889 0.78589 0.69356 0.0
C84 C 0.0576 0.85393 0.70259 0.0
C85 C 0.08449 0.87038 0.71991 0.0
C86 C 0.14505 0.81704 0.72791 0.0
C87 C 0.17549 0.74691 0.71837 0.0
C88 C 0.14565 0.73184 0.70125 0.0
C89 C 0.71729 0.66929 0.61815 0.0
O90 O 0.95035 0.63244 0.66732 0.0
O91 O 0.94602 0.62585 0.63846 0.0
O92 O 0.89686 0.90493 0.63811 0.0
O93 O 0.97276 0.90051 0.66285 0.0
O94 O 0.11052 0.63556 0.65063 0.0
O95 O 0.19822 0.7255 0.66233 0.0
O96 O 0.7217 0.75015 0.61733 0.0
O97 O 0.77823 0.63015 0.62541 0.0
H98 H 0.01192 0.89572 0.69638 0.0
H99 H 0.16822 0.67684 0.69409 0.0
H100 H 0.0895 0.77214 0.59338 0.0
H101 H 0.13318 0.01452 0.61838 0.0
H102 H 0.70461 0.63438 0.69023 0.0
H103 H 0.69098 0.9084 0.68619 0.0
H104 H 0.90687 0.88766 0.56566 0.0
H105 H 0.94559 0.617 0.5719 0.0
H106 H 0.05939 0.9251 0.72686 0.0
H107 H 0.22113 0.70345 0.72417 0.0
Cd108 Cd 0.50557 0.60815 0.87938 0.0
Cd109 Cd 0.50052 0.79216 0.91214 0.0
C110 C 0.56563 0.68515 0.84329 0.0
N111 N 0.4904 0.66285 0.85066 0.0
C112 C 0.41949 0.68727 0.82305 0.0
C113 C 0.49652 0.71203 0.81525 0.0
C114 C 0.57004 0.71054 0.82566 0.0
C115 C 0.4178 0.66273 0.84095 0.0
H116 H 0.62284 0.6821 0.85109 0.0
H117 H 0.35912 0.64232 0.84696 0.0
C118 C 0.31451 0.68176 0.89854 0.0
C119 C 0.39237 0.86576 0.94521 0.0
C120 C 0.37428 0.89235 0.96247 0.0
C121 C 0.43343 0.87792 0.97609 0.0
C122 C 0.50926 0.8353 0.97185 0.0
C123 C 0.52478 0.80994 0.95442 0.0
N124 N 0.46682 0.82591 0.94152 0.0
H125 H 0.34759 0.8781 0.93467 0.0
H126 H 0.58392 0.77902 0.95106 0.0
C127 C 0.35771 0.86312 0.88325 0.0
N128 N 0.43959 0.83626 0.88464 0.0
C129 C 0.45997 0.86001 0.85361 0.0
C130 C 0.37334 0.8774 0.85135 0.0
C131 C 0.32265 0.88201 0.86665 0.0
C132 C 0.49135 0.83802 0.87028 0.0
H133 H 0.31849 0.86735 0.89495 0.0
H134 H 0.55702 0.82023 0.87156 0.0
C135 C 0.67069 0.68586 0.90069 0.0
C136 C 0.58229 0.46396 0.86436 0.0
N137 N 0.50681 0.53661 0.90724 0.0
C138 C 0.5835 0.50577 0.91247 0.0
C139 C 0.59273 0.4644 0.92874 0.0
C140 C 0.52195 0.45247 0.93969 0.0
C141 C 0.44261 0.48035 0.93355 0.0
C142 C 0.43636 0.52183 0.91717 0.0
C143 C 0.60608 0.93179 0.90531 0.0
O144 O 0.35296 0.64444 0.88582 0.0
O145 O 0.35603 0.72464 0.90995 0.0
O146 O 0.62628 0.69282 0.91472 0.0
O147 O 0.63366 0.6919 0.88583 0.0
O148 O 0.50207 0.46656 0.86609 0.0
O149 O 0.62333 0.52888 0.86905 0.0
O150 O 0.6249 0.85708 0.90061 0.0
O151 O 0.53809 0.94239 0.91413 0.0
H152 H 0.63819 0.51387 0.90406 0.0
H153 H 0.37497 0.54126 0.91248 0.0
H154 H 0.36146 0.68699 0.81543 0.0
H155 H 0.63113 0.72676 0.82011 0.0
H156 H 0.31459 0.92393 0.9651 0.0
H157 H 0.5573 0.82375 0.9818 0.0
H158 H 0.50283 0.85779 0.84248 0.0
H159 H 0.25636 0.89919 0.86585 0.0
H160 H 0.65481 0.44186 0.93268 0.0
H161 H 0.38612 0.47182 0.94147 0.0
Cd162 Cd 0.61817 0.24375 0.13172 0.0
Cd163 Cd 0.42419 0.2365 0.1614 0.0
C164 C 0.5572 0.31316 0.0953 0.0
N165 N 0.57477 0.23492 0.1021 0.0
C166 C 0.56895 0.17377 0.07309 0.0
C167 C 0.55472 0.25501 0.06577 0.0
C168 C 0.5465 0.32455 0.0772 0.0
C169 C 0.58015 0.16522 0.09147 0.0
H170 H 0.55522 0.36785 0.10389 0.0
H171 H 0.59628 0.10397 0.09713 0.0
C172 C 0.54266 0.05173 0.14928 0.0
C173 C 0.38261 0.12233 0.19676 0.0
C174 C 0.35129 0.10332 0.21364 0.0
C175 C 0.31274 0.16753 0.22376 0.0
C176 C 0.30815 0.25012 0.21665 0.0
C177 C 0.34142 0.26657 0.19984 0.0
N178 N 0.37716 0.20291 0.1902 0.0
H179 H 0.41035 0.07245 0.18885 0.0
H180 H 0.33789 0.33014 0.19435 0.0
C181 C 0.36757 0.08979 0.13217 0.0
N182 N 0.39195 0.17264 0.1335 0.0
C183 C 0.3818 0.18885 0.10202 0.0
C184 C 0.36646 0.10155 0.10012 0.0
C185 C 0.35703 0.05217 0.11553 0.0
C186 C 0.39594 0.22275 0.11881 0.0
H187 H 0.35945 0.05172 0.14399 0.0
H188 H 0.4124 0.28896 0.11996 0.0
C189 C 0.53285 0.40611 0.1522 0.0
C190 C 0.76142 0.32648 0.11826 0.0
N191 N 0.68292 0.23714 0.16028 0.0
C192 C 0.70683 0.31263 0.16748 0.0
C193 C 0.7431 0.31571 0.18433 0.0
C194 C 0.75689 0.24012 0.19388 0.0
C195 C 0.73572 0.16272 0.18579 0.0
C196 C 0.69982 0.16263 0.16886 0.0
C197 C 0.28907 0.344 0.15189 0.0
O198 O 0.58154 0.09009 0.13676 0.0
O199 O 0.49714 0.09348 0.16024 0.0
O200 O 0.5213 0.36159 0.16612 0.0
O201 O 0.52932 0.36916 0.13733 0.0
O202 O 0.75876 0.24544 0.11821 0.0
O203 O 0.6988 0.36566 0.12475 0.0
O204 O 0.36462 0.36004 0.14766 0.0
O205 O 0.27499 0.27724 0.16101 0.0
H206 H 0.69744 0.37107 0.16018 0.0
H207 H 0.68703 0.10268 0.16259 0.0
H208 H 0.57593 0.11866 0.06464 0.0
H209 H 0.53485 0.38803 0.0721 0.0
H210 H 0.3556 0.03869 0.21858 0.0
H211 H 0.27986 0.3017 0.22408 0.0
H212 H 0.3884 0.22983 0.09057 0.0
H213 H 0.34238 0.98505 0.11474 0.0
H214 H 0.75871 0.377 0.18992 0.0
H215 H 0.74786 0.1026 0.19237 0.0
H216 H 0.84837 0.54385 0.462 0.0
H217 H 0.02147 0.8356 0.54091 0.0
H218 H 0.08093 0.68556 0.45783 0.0
H219 H 0.83559 0.63786 0.54716 0.0
H220 H 0.03058 0.80168 0.50914 0.0
H221 H 0.82883 0.59865 0.49188 0.0
C222 C 0.89484 0.58743 0.46727 0.0
C223 C 0.96656 0.60983 0.45737 0.0
C224 C 0.98758 0.76612 0.5175 0.0
C225 C 0.94495 0.67241 0.4918 0.0
C226 C 0.98216 0.78576 0.53556 0.0
C227 C 0.9287 0.73863 0.54669 0.0
C228 C 0.938 0.69993 0.51056 0.0
C229 C 0.8787 0.6748 0.5391 0.0
C230 C 0.88396 0.61826 0.48442 0.0
C231 C 0.02524 0.66572 0.46507 0.0
N232 N 0.8847 0.6573 0.52158 0.0
N233 N 0.01326 0.695 0.48184 0.0
H234 H 0.42412 0.63307 0.78659 0.0
H235 H 0.71464 0.88684 0.71768 0.0
H236 H 0.58455 0.84385 0.80049 0.0
H237 H 0.5698 0.66453 0.70386 0.0
H238 H 0.64987 0.88511 0.74699 0.0
H239 H 0.45716 0.65807 0.75529 0.0
C240 C 0.46505 0.68554 0.78304 0.0
C241 C 0.50306 0.73533 0.7962 0.0
C242 C 0.63165 0.83703 0.73751 0.0
C243 C 0.54213 0.76354 0.76047 0.0
C244 C 0.66836 0.83826 0.7207 0.0
C245 C 0.6484 0.77527 0.70826 0.0
C246 C 0.57441 0.77228 0.74204 0.0
C247 C 0.58853 0.71339 0.7131 0.0
C248 C 0.48446 0.69937 0.76519 0.0
C249 C 0.55562 0.80248 0.79081 0.0
N250 N 0.55415 0.71312 0.72962 0.0
N251 N 0.57429 0.81398 0.77343 0.0
H252 H 0.64675 0.48267 0.96382 0.0
H253 H 0.46445 0.17449 0.03944 0.0
H254 H 0.41942 0.33558 0.95655 0.0
H255 H 0.64846 0.37161 0.04807 0.0
H256 H 0.45932 0.21441 1.00787 0.0
H257 H 0.66066 0.42419 0.99356 0.0
C258 C 0.60014 0.4373 0.9684 0.0
C259 C 0.53175 0.41415 0.95763 0.0
C260 C 0.50098 0.24854 1.01671 0.0
C261 C 0.54685 0.34725 0.99193 0.0
C262 C 0.50414 0.22548 0.03465 0.0
C263 C 0.55587 0.27068 0.04639 0.0
C264 C 0.55105 0.3163 1.01052 0.0
C265 C 0.60656 0.33606 0.03953 0.0
C266 C 0.60781 0.40428 0.98547 0.0
C267 C 0.47261 0.35597 0.96447 0.0
N268 N 0.6027 0.35693 0.02213 0.0
N269 N 0.48145 0.3245 0.9812 0.0
H270 H 0.01991 0.38252 0.29007 0.0
H271 H 0.71139 0.14292 0.22259 0.0
H272 H 0.84591 0.18511 0.30576 0.0
H273 H 0.88318 0.34237 0.20697 0.0
H274 H 0.76624 0.1513 0.25275 0.0
H275 H 0.97779 0.36192 0.2593 0.0
C276 C 0.97338 0.33429 0.28707 0.0
C277 C 0.93593 0.28606 0.30065 0.0
C278 C 0.79222 0.19303 0.24272 0.0
C279 C 0.88635 0.26299 0.26531 0.0
C280 C 0.76123 0.18794 0.22544 0.0
C281 C 0.79236 0.24224 0.21216 0.0
C282 C 0.85501 0.25283 0.24685 0.0
C283 C 0.85619 0.30014 0.21678 0.0
C284 C 0.9489 0.32298 0.26947 0.0
C285 C 0.87525 0.22515 0.29585 0.0
N286 N 0.88518 0.30401 0.23371 0.0
N287 N 0.85219 0.21564 0.27863 0.0
H288 H 0.15988 0.21717 0.2376 0.0
H289 H 0.26791 0.07066 0.33555 0.0
H290 H 0.38587 0.07546 0.25064 0.0
H291 H 0.01465 0.13745 0.31882 0.0
H292 H 0.31191 0.07 0.3048 0.0
H293 H 0.10615 0.19088 0.26752 0.0
C294 C 0.19815 0.18042 0.24676 0.0
C295 C 0.27772 0.14883 0.24164 0.0
C296 C 0.24667 0.08516 0.30792 0.0
C297 C 0.21661 0.11845 0.27593 0.0
C298 C 0.22125 0.08679 0.32563 0.0
C299 C 0.13815 0.11102 0.3303 0.0
C300 C 0.18885 0.10746 0.2946 0.0
C301 C 0.08031 0.12337 0.31632 0.0
C302 C 0.16716 0.16486 0.26379 0.0
C303 C 0.32408 0.10067 0.254 0.0
N304 N 0.1071 0.12362 0.29921 0.0
N305 N 0.2933 0.08777 0.27061 0.0
H306 H 0.0517 0.84854 0.75774 0.0
H307 H 0.44696 0.93666 0.82034 0.0
H308 H 0.30922 0.82308 0.73951 0.0
H309 H 0.2142 0.82904 0.84034 0.0
H310 H 0.3913 0.92496 0.79035 0.0
H311 H 0.10467 0.87139 0.78792 0.0
C312 C 0.11934 0.84849 0.76008 0.0
C313 C 0.17616 0.83376 0.74613 0.0
C314 C 0.35238 0.90471 0.80138 0.0
C315 C 0.23697 0.86079 0.78048 0.0
C316 C 0.3841 0.91101 0.81858 0.0
C317 C 0.3359 0.88308 0.83315 0.0
C318 C 0.27099 0.87216 0.79862 0.0
C319 C 0.25375 0.85269 0.82974 0.0
C320 C 0.14942 0.86107 0.77728 0.0
C321 C 0.26326 0.83365 0.74991 0.0
N322 N 0.22402 0.84807 0.81288 0.0
N323 N 0.29105 0.84744 0.7667 0.0
H324 H 0.35887 0.02814 0.98654 0.0
H325 H 0.43963 0.95105 0.08995 0.0
H326 H 0.47172 0.79891 1.00769 0.0
H327 H 0.29615 0.16325 0.06928 0.0
H328 H 0.45125 0.8938 0.06001 0.0
H329 H 0.33577 0.0788 1.01669 0.0
C330 C 0.37803 0.98791 0.99749 0.0
C331 C 0.41723 0.90883 0.99447 0.0
C332 C 0.41652 0.95248 0.06203 0.0
C333 C 0.39154 0.96718 0.02918 0.0
C334 C 0.40926 0.98491 0.07917 0.0
C335 C 0.36665 0.06211 0.0822 0.0
C336 C 0.38101 0.99743 0.04773 0.0
C337 C 0.33025 0.10399 0.06759 0.0
C338 C 0.36511 0.01716 1.01474 0.0
C339 C 0.44221 0.86064 1.0093 0.0
N340 N 0.33833 0.07121 0.05103 0.0
N341 N 0.42907 0.89057 0.02596 0.0
H342 H 0.15956 0.99335 0.49078 0.0
H343 H 0.03545 0.04887 0.593 0.0
H344 H 0.00942 0.20265 0.5104 0.0
H345 H 0.18798 0.84204 0.57311 0.0
H346 H 0.02908 0.10902 0.56312 0.0
H347 H 0.17319 0.93913 0.52096 0.0
C348 C 0.13014 0.0285 0.50146 0.0
C349 C 0.08369 0.10315 0.498 0.0
C350 C 0.06452 0.05083 0.5653 0.0
C351 C 0.09864 0.04076 0.53273 0.0
C352 C 0.0688 0.01683 0.5824 0.0
C353 C 0.11261 0.9404 0.5856 0.0
C354 C 0.10459 0.00838 0.55125 0.0
C355 C 0.15303 0.90075 0.57126 0.0
C356 C 0.13762 0.99718 0.51871 0.0
C357 C 0.04537 0.14466 0.51238 0.0
N358 N 0.1481 0.93519 0.55475 0.0
N359 N 0.05382 0.11303 0.52909 0.0
H360 H 0.1691 0.97491 0.39017 0.0
H361 H 0.90286 0.64169 0.34464 0.0
H362 H 0.89634 0.95717 0.38973 0.0
H363 H 0.17511 0.63805 0.34823 0.0
H364 H 0.90555 0.7962 0.3449 0.0
H365 H 0.17471 0.8904 0.36336 0.0
C366 C 0.11036 0.95142 0.38469 0.0
C367 C 0.03219 0.96967 0.39268 0.0
C368 C 0.96515 0.76186 0.34496 0.0
C369 C 0.03829 0.87444 0.36169 0.0
C370 C 0.96359 0.67348 0.34478 0.0
C371 C 0.03843 0.62827 0.3482 0.0
C372 C 0.04136 0.80246 0.34931 0.0
C373 C 0.11538 0.67159 0.34703 0.0
C374 C 0.11355 0.90525 0.36908 0.0
C375 C 0.95811 0.94154 0.38442 0.0
N376 N 0.11501 0.75735 0.34847 0.0
N377 N 0.96309 0.89413 0.36953 0.0
H378 H 0.3332 0.60703 0.66929 0.0
H379 H 0.67981 0.50491 0.62626 0.0
H380 H 0.19559 0.60409 0.62004 0.0
H381 H 0.57712 0.72865 0.60069 0.0
H382 H 0.53643 0.45122 0.6303 0.0
H383 H 0.45918 0.55633 0.65364 0.0
C384 C 0.32933 0.59328 0.65527 0.0
C385 C 0.25551 0.6103 0.64578 0.0
C386 C 0.54596 0.50995 0.62303 0.0
C387 C 0.39778 0.55469 0.62789 0.0
C388 C 0.62744 0.54113 0.6208 0.0
C389 C 0.63927 0.62351 0.61399 0.0
C390 C 0.4773 0.56155 0.61826 0.0
C391 C 0.56988 0.66646 0.60669 0.0
C392 C 0.40036 0.56333 0.64639 0.0
C393 C 0.25242 0.59178 0.62766 0.0
N394 N 0.49092 0.63583 0.60944 0.0
N395 N 0.32406 0.56825 0.61906 0.0
H396 H 0.7468 0.42906 0.87194 0.0
H397 H 0.6348 0.08708 0.92004 0.0
H398 H 0.52079 0.31668 0.85017 0.0
H399 H 0.67754 0.93864 0.87292 0.0
H400 H 0.67909 0.21449 0.90377 0.0
H401 H 0.80064 0.28702 0.87874 0.0
C402 C 0.71027 0.37451 0.86776 0.0
C403 C 0.62753 0.38401 0.86119 0.0
C404 C 0.68207 0.15318 0.89727 0.0
C405 C 0.69007 0.22344 0.86843 0.0
C406 C 0.65612 0.08116 0.90647 0.0
C407 C 0.65186 0.00341 0.89768 0.0
C408 C 0.69987 0.14707 0.87911 0.0
C409 C 0.67983 0.99819 0.88007 0.0
C410 C 0.74146 0.2938 0.87162 0.0
C411 C 0.58367 0.3116 0.85578 0.0
N412 N 0.69924 0.07013 0.87104 0.0
N413 N 0.61479 0.23363 0.85993 0.0
H414 H 0.14408 0.39769 0.16772 0.0
H415 H 0.79518 0.49232 0.12544 0.0
H416 H 0.27961 0.39957 0.11818 0.0
H417 H 0.90265 0.2686 0.10103 0.0
H418 H 0.9371 0.55094 0.12856 0.0
H419 H 0.01826 0.4504 0.15229 0.0
C420 C 0.14763 0.41172 0.15369 0.0
C421 C 0.22058 0.39324 0.14404 0.0
C422 C 0.92881 0.49106 0.12172 0.0
C423 C 0.07836 0.45092 0.12639 0.0
C424 C 0.84823 0.457 0.12005 0.0
C425 C 0.83844 0.37345 0.11385 0.0
C426 C 0.99861 0.44106 0.11702 0.0
C427 C 0.90846 0.33168 0.10659 0.0
C428 C 0.07668 0.4429 0.14493 0.0
C429 C 0.22334 0.41258 0.12592 0.0
N430 N 0.98658 0.36523 0.10879 0.0
N431 N 0.15163 0.43692 0.11745 0.0
H432 H 0.9814 0.04552 0.67886 0.0
H433 H 0.89729 0.48244 0.62625 0.0
H434 H 0.87213 0.05836 0.62662 0.0
H435 H 0.96792 0.47631 0.68135 0.0
H436 H 0.89079 0.32743 0.62625 0.0
H437 H 0.98004 0.20146 0.68009 0.0
C438 C 0.95669 0.08085 0.66766 0.0
C439 C 0.92656 0.03786 0.65261 0.0
C440 C 0.90747 0.35963 0.63839 0.0
C441 C 0.92558 0.21779 0.65392 0.0
C442 C 0.91136 0.44862 0.63841 0.0
C443 C 0.93345 0.49333 0.65383 0.0
C444 C 0.92652 0.31355 0.65386 0.0
C445 C 0.95048 0.44506 0.66915 0.0
C446 C 0.95594 0.1702 0.6684 0.0
C447 C 0.8956 0.08796 0.63855 0.0
N448 N 0.9472 0.35806 0.66875 0.0
N449 N 0.89634 0.17468 0.63952 0.0
H450 H 0.7775 0.64253 0.87368 0.0
H451 H 0.2105 0.73738 0.92559 0.0
H452 H 0.78162 0.71532 0.92862 0.0
H453 H 0.20039 0.61886 0.87426 0.0
H454 H 0.05525 0.73474 0.92687 0.0
H455 H 0.93198 0.63822 0.87361 0.0
C456 C 0.81077 0.65755 0.88579 0.0
C457 C 0.7656 0.67955 0.90118 0.0
C458 C 0.08696 0.70894 0.91536 0.0
C459 C 0.94484 0.67525 0.90113 0.0
C460 C 0.17593 0.71045 0.91459 0.0
C461 C 0.21956 0.678 0.8998 0.0
C462 C 0.04028 0.67556 0.90115 0.0
C463 C 0.17035 0.64425 0.88599 0.0
C464 C 0.89947 0.6549 0.88573 0.0
C465 C 0.81321 0.69783 0.91645 0.0
N466 N 0.08399 0.64433 0.88698 0.0
N467 N 0.8999 0.69585 0.916 0.0
H468 H 0.58228 0.51189 0.12541 0.0
H469 H 0.48747 0.94861 0.17655 0.0
H470 H 0.50111 0.51824 0.17987 0.0
H471 H 0.60622 0.93619 0.12523 0.0
H472 H 0.48918 0.79285 0.17805 0.0
H473 H 0.58897 0.66684 0.12521 0.0
C474 C 0.56596 0.54575 0.1374 0.0
C475 C 0.54079 0.50113 0.15269 0.0
C476 C 0.51524 0.82413 0.1665 0.0
C477 C 0.54788 0.68086 0.15248 0.0
C478 C 0.51418 0.91342 0.16559 0.0
C479 C 0.5468 0.9565 0.15072 0.0
C480 C 0.54849 0.77661 0.15237 0.0
C481 C 0.58067 0.9065 0.13701 0.0
C482 C 0.56995 0.63472 0.13726 0.0
C483 C 0.52096 0.54944 0.16779 0.0
N484 N 0.58019 0.81977 0.13813 0.0
N485 N 0.52435 0.63644 0.16726 0.0
H486 H 0.74156 0.23059 0.42647 0.0
H487 H 0.31897 0.41944 0.38179 0.0
H488 H 0.74103 0.40911 0.38294 0.0
H489 H 0.3165 0.25307 0.42733 0.0
H490 H 0.47363 0.41811 0.38248 0.0
H491 H 0.58657 0.2391 0.4274 0.0
C492 C 0.70911 0.27177 0.41714 0.0
C493 C 0.75498 0.31905 0.40459 0.0
C494 C 0.43936 0.3822 0.39239 0.0
C495 C 0.5769 0.32894 0.40557 0.0
C496 C 0.35076 0.38304 0.39202 0.0
C497 C 0.30404 0.33631 0.40451 0.0
C498 C 0.48231 0.33393 0.4053 0.0
C499 C 0.34942 0.29026 0.41743 0.0
C500 C 0.62045 0.27662 0.41769 0.0
C501 C 0.70889 0.37131 0.39286 0.0
N502 N 0.43573 0.28994 0.41743 0.0
N503 N 0.62284 0.37458 0.39361 0.0
loop_
_geom_bond_atom_site_label_1
_geom_bond_atom_site_label_2
_geom_bond_distance
_geom_bond_site_symmetry_2
_ccdc_geom_bond_type
Cd0 N3 2.334 . S
Cd0 N29 2.304 . S
Cd0 O36 2.268 1_455 S
Cd0 O39 2.273 . S
Cd0 O40 2.417 1_445 S
Cd0 O41 2.330 1_545 S
Cd1 N16 2.304 . S
Cd1 N20 2.334 . S
Cd1 O37 2.273 . S
Cd1 O38 2.268 1_655 S
Cd1 O42 2.417 1_655 S
Cd1 O43 2.330 . S
C2 N3 1.332 . S
C2 C6 1.381 . S
C2 H8 0.931 . S
N3 Cd0 2.334 . S
N3 C2 1.332 . S
N3 C7 1.328 1_455 S
C4 C5 1.396 1_655 S
C4 C7 1.378 . S
C4 H46 0.931 . S
C5 C4 1.396 1_455 S
C5 C6 1.382 . S
C6 C2 1.381 . S
C6 C5 1.382 . S
C6 H47 0.930 . S
C7 N3 1.328 1_655 S
C7 C4 1.378 . S
C7 H9 0.930 . S
H8 C2 0.931 . S
H9 C7 0.930 . S
C10 O36 1.238 . S
C10 O37 1.253 . S
C11 C12 1.379 . S
C11 N16 1.337 . S
C11 H17 0.929 . S
C12 C11 1.379 . S
C12 C13 1.380 . S
C12 H48 0.929 . S
C13 C12 1.380 . S
C13 C14 1.399 1_655 S
C14 C13 1.399 1_455 S
C14 C15 1.376 . S
C14 H49 0.931 . S
C15 C14 1.376 . S
C15 N16 1.338 1_455 S
C15 H18 0.930 . S
N16 Cd1 2.304 . S
N16 C11 1.337 . S
N16 C15 1.338 1_655 S
H17 C11 0.929 . S
H18 C15 0.930 . S
C19 N20 1.332 . S
C19 C23 1.381 . S
C19 H25 0.931 . S
N20 Cd1 2.334 . S
N20 C19 1.332 . S
N20 C24 1.328 1_655 S
C21 C22 1.396 1_455 S
C21 C24 1.378 . S
C21 H50 0.931 . S
C22 C21 1.396 1_655 S
C22 C23 1.382 . S
C23 C19 1.381 . S
C23 C22 1.382 . S
C23 H51 0.930 . S
C24 N20 1.328 1_455 S
C24 C21 1.378 . S
C24 H26 0.930 . S
H25 C19 0.931 . S
H26 C24 0.930 . S
C27 O38 1.238 . S
C27 O39 1.253 . S
C28 O40 1.239 1_455 S
C28 O41 1.230 . S
N29 Cd0 2.304 . S
N29 C30 1.337 . S
N29 C34 1.338 1_455 S
C30 N29 1.337 . S
C30 C31 1.379 . S
C30 H44 0.929 . S
C31 C30 1.379 . S
C31 C32 1.380 . S
C31 H52 0.929 . S
C32 C31 1.380 . S
C32 C33 1.399 1_455 S
C33 C32 1.399 1_655 S
C33 C34 1.376 . S
C33 H53 0.931 . S
C34 N29 1.338 1_655 S
C34 C33 1.376 . S
C34 H45 0.930 . S
C35 O42 1.239 1_655 S
C35 O43 1.230 . S
O36 Cd0 2.268 1_655 S
O36 C10 1.238 . S
O37 Cd1 2.273 . S
O37 C10 1.253 . S
O38 Cd1 2.268 1_455 S
O38 C27 1.238 . S
O39 Cd0 2.273 . S
O39 C27 1.253 . S
O40 Cd0 2.417 1_665 S
O40 C28 1.239 1_655 S
O41 Cd0 2.330 1_565 S
O41 C28 1.230 . S
O42 Cd1 2.417 1_455 S
O42 C35 1.239 1_455 S
O43 Cd1 2.330 . S
O43 C35 1.230 . S
H44 C30 0.929 . S
H45 C34 0.930 . S
H46 C4 0.931 . S
H47 C6 0.930 . S
H48 C12 0.929 . S
H49 C14 0.931 . S
H50 C21 0.931 . S
H51 C23 0.930 . S
H52 C31 0.929 . S
H53 C33 0.931 . S
Cd54 N57 2.334 . S
Cd54 N83 2.304 . S
Cd54 O90 2.268 . S
Cd54 O93 2.273 . S
Cd54 O94 2.417 . S
Cd54 O95 2.330 . S
Cd55 N70 2.304 . S
Cd55 N74 2.334 . S
Cd55 O91 2.273 . S
Cd55 O92 2.268 . S
Cd55 O96 2.417 . S
Cd55 O97 2.330 . S
C56 N57 1.332 . S
C56 C60 1.381 . S
C56 H62 0.931 . S
N57 Cd54 2.334 . S
N57 C56 1.332 . S
N57 C61 1.328 . S
C58 C59 1.396 . S
C58 C61 1.378 . S
C58 H100 0.931 . S
C59 C58 1.396 . S
C59 C60 1.382 . S
C60 C56 1.381 . S
C60 C59 1.382 . S
C60 H101 0.930 . S
C61 N57 1.328 . S
C61 C58 1.378 . S
C61 H63 0.930 . S
H62 C56 0.931 . S
H63 C61 0.930 . S
C64 O90 1.238 1_655 S
C64 O91 1.253 . S
C65 C66 1.379 . S
C65 N70 1.337 . S
C65 H71 0.929 . S
C66 C65 1.379 . S
C66 C67 1.380 . S
C66 H102 0.929 . S
C67 C66 1.380 . S
C67 C68 1.399 . S
C68 C67 1.399 . S
C68 C69 1.376 . S
C68 H103 0.931 . S
C69 C68 1.376 . S
C69 N70 1.338 . S
C69 H72 0.930 . S
N70 Cd55 2.304 . S
N70 C65 1.337 . S
N70 C69 1.338 . S
H71 C65 0.929 . S
H72 C69 0.930 . S
C73 N74 1.332 . S
C73 C77 1.381 . S
C73 H79 0.931 . S
N74 Cd55 2.334 . S
N74 C73 1.332 . S
N74 C78 1.328 . S
C75 C76 1.396 . S
C75 C78 1.378 . S
C75 H104 0.931 . S
C76 C75 1.396 . S
C76 C77 1.382 . S
C77 C73 1.381 . S
C77 C76 1.382 . S
C77 H105 0.930 . S
C78 N74 1.328 . S
C78 C75 1.378 . S
C78 H80 0.930 . S
H79 C73 0.931 . S
H80 C78 0.930 . S
C81 O92 1.238 1_455 S
C81 O93 1.253 . S
C82 O94 1.239 . S
C82 O95 1.230 . S
N83 Cd54 2.304 . S
N83 C84 1.337 . S
N83 C88 1.338 . S
C84 N83 1.337 . S
C84 C85 1.379 . S
C84 H98 0.929 . S
C85 C84 1.379 . S
C85 C86 1.380 . S
C85 H106 0.929 . S
C86 C85 1.380 . S
C86 C87 1.399 . S
C87 C86 1.399 . S
C87 C88 1.376 . S
C87 H107 0.931 . S
C88 N83 1.338 . S
C88 C87 1.376 . S
C88 H99 0.930 . S
C89 O96 1.239 . S
C89 O97 1.230 . S
O90 Cd54 2.268 . S
O90 C64 1.238 1_455 S
O91 Cd55 2.273 . S
O91 C64 1.253 . S
O92 Cd55 2.268 . S
O92 C81 1.238 1_655 S
O93 Cd54 2.273 . S
O93 C81 1.253 . S
O94 Cd54 2.417 . S
O94 C82 1.239 . S
O95 Cd54 2.330 . S
O95 C82 1.230 . S
O96 Cd55 2.417 . S
O96 C89 1.239 . S
O97 Cd55 2.330 . S
O97 C89 1.230 . S
H98 C84 0.929 . S
H99 C88 0.930 . S
H100 C58 0.931 . S
H101 C60 0.930 . S
H102 C66 0.929 . S
H103 C68 0.931 . S
H104 C75 0.931 . S
H105 C77 0.930 . S
H106 C85 0.929 . S
H107 C87 0.931 . S
Cd108 N111 2.334 . S
Cd108 N137 2.304 . S
Cd108 O144 2.268 . S
Cd108 O147 2.273 . S
Cd108 O148 2.417 . S
Cd108 O149 2.330 . S
Cd109 N124 2.304 . S
Cd109 N128 2.334 . S
Cd109 O145 2.273 . S
Cd109 O146 2.268 . S
Cd109 O150 2.417 1_565 S
Cd109 O151 2.330 1_565 S
C110 N111 1.332 . S
C110 C114 1.381 . S
C110 H116 0.931 . S
N111 Cd108 2.334 . S
N111 C110 1.332 . S
N111 C115 1.328 . S
C112 C113 1.396 . S
C112 C115 1.378 . S
C112 H154 0.931 . S
C113 C112 1.396 . S
C113 C114 1.382 . S
C114 C110 1.381 . S
C114 C113 1.382 . S
C114 H155 0.930 . S
C115 N111 1.328 . S
C115 C112 1.378 . S
C115 H117 0.930 . S
H116 C110 0.931 . S
H117 C115 0.930 . S
C118 O144 1.238 . S
C118 O145 1.253 . S
C119 C120 1.379 . S
C119 N124 1.337 . S
C119 H125 0.929 . S
C120 C119 1.379 . S
C120 C121 1.380 . S
C120 H156 0.929 . S
C121 C120 1.380 . S
C121 C122 1.399 . S
C122 C121 1.399 . S
C122 C123 1.376 . S
C122 H157 0.931 . S
C123 C122 1.376 . S
C123 N124 1.338 . S
C123 H126 0.930 . S
N124 Cd109 2.304 . S
N124 C119 1.337 . S
N124 C123 1.338 . S
H125 C119 0.929 . S
H126 C123 0.930 . S
C127 N128 1.332 . S
C127 C131 1.381 . S
C127 H133 0.931 . S
N128 Cd109 2.334 . S
N128 C127 1.332 . S
N128 C132 1.328 . S
C129 C130 1.396 . S
C129 C132 1.378 . S
C129 H158 0.931 . S
C130 C129 1.396 . S
C130 C131 1.382 . S
C131 C127 1.381 . S
C131 C130 1.382 . S
C131 H159 0.930 . S
C132 N128 1.328 . S
C132 C129 1.378 . S
C132 H134 0.930 . S
H133 C127 0.931 . S
H134 C132 0.930 . S
C135 O146 1.238 . S
C135 O147 1.253 . S
C136 O148 1.239 . S
C136 O149 1.230 . S
N137 Cd108 2.304 . S
N137 C138 1.337 . S
N137 C142 1.338 . S
C138 N137 1.337 . S
C138 C139 1.379 . S
C138 H152 0.929 . S
C139 C138 1.379 . S
C139 C140 1.380 . S
C139 H160 0.929 . S
C140 C139 1.380 . S
C140 C141 1.399 . S
C141 C140 1.399 . S
C141 C142 1.376 . S
C141 H161 0.931 . S
C142 N137 1.338 . S
C142 C141 1.376 . S
C142 H153 0.930 . S
C143 O150 1.239 . S
C143 O151 1.230 . S
O144 Cd108 2.268 . S
O144 C118 1.238 . S
O145 Cd109 2.273 . S
O145 C118 1.253 . S
O146 Cd109 2.268 . S
O146 C135 1.238 . S
O147 Cd108 2.273 . S
O147 C135 1.253 . S
O148 Cd108 2.417 . S
O148 C136 1.239 . S
O149 Cd108 2.330 . S
O149 C136 1.230 . S
O150 Cd109 2.417 1_545 S
O150 C143 1.239 . S
O151 Cd109 2.330 1_545 S
O151 C143 1.230 . S
H152 C138 0.929 . S
H153 C142 0.930 . S
H154 C112 0.931 . S
H155 C114 0.930 . S
H156 C120 0.929 . S
H157 C122 0.931 . S
H158 C129 0.931 . S
H159 C131 0.930 . S
H160 C139 0.929 . S
H161 C141 0.931 . S
Cd162 N165 2.334 . S
Cd162 N191 2.304 . S
Cd162 O198 2.268 . S
Cd162 O201 2.273 . S
Cd162 O202 2.417 . S
Cd162 O203 2.330 . S
Cd163 N178 2.304 . S
Cd163 N182 2.334 . S
Cd163 O199 2.273 . S
Cd163 O200 2.268 . S
Cd163 O204 2.417 . S
Cd163 O205 2.330 . S
C164 N165 1.332 . S
C164 C168 1.381 . S
C164 H170 0.931 . S
N165 Cd162 2.334 . S
N165 C164 1.332 . S
N165 C169 1.328 . S
C166 C167 1.396 . S
C166 C169 1.378 . S
C166 H208 0.931 . S
C167 C166 1.396 . S
C167 C168 1.382 . S
C168 C164 1.381 . S
C168 C167 1.382 . S
C168 H209 0.930 . S
C169 N165 1.328 . S
C169 C166 1.378 . S
C169 H171 0.930 . S
H170 C164 0.931 . S
H171 C169 0.930 . S
C172 O198 1.238 . S
C172 O199 1.253 . S
C173 C174 1.379 . S
C173 N178 1.337 . S
C173 H179 0.929 . S
C174 C173 1.379 . S
C174 C175 1.380 . S
C174 H210 0.929 . S
C175 C174 1.380 . S
C175 C176 1.399 . S
C176 C175 1.399 . S
C176 C177 1.376 . S
C176 H211 0.931 . S
C177 C176 1.376 . S
C177 N178 1.338 . S
C177 H180 0.930 . S
N178 Cd163 2.304 . S
N178 C173 1.337 . S
N178 C177 1.338 . S
H179 C173 0.929 . S
H180 C177 0.930 . S
C181 N182 1.332 . S
C181 C185 1.381 . S
C181 H187 0.931 . S
N182 Cd163 2.334 . S
N182 C181 1.332 . S
N182 C186 1.328 . S
C183 C184 1.396 . S
C183 C186 1.378 . S
C183 H212 0.931 . S
C184 C183 1.396 . S
C184 C185 1.382 . S
C185 C181 1.381 . S
C185 C184 1.382 . S
C185 H213 0.930 . S
C186 N182 1.328 . S
C186 C183 1.378 . S
C186 H188 0.930 . S
H187 C181 0.931 . S
H188 C186 0.930 . S
C189 O200 1.238 . S
C189 O201 1.253 . S
C190 O202 1.239 . S
C190 O203 1.230 . S
N191 Cd162 2.304 . S
N191 C192 1.337 . S
N191 C196 1.338 . S
C192 N191 1.337 . S
C192 C193 1.379 . S
C192 H206 0.929 . S
C193 C192 1.379 . S
C193 C194 1.380 . S
C193 H214 0.929 . S
C194 C193 1.380 . S
C194 C195 1.399 . S
C195 C194 1.399 . S
C195 C196 1.376 . S
C195 H215 0.931 . S
C196 N191 1.338 . S
C196 C195 1.376 . S
C196 H207 0.930 . S
C197 O204 1.239 . S
C197 O205 1.230 . S
O198 Cd162 2.268 . S
O198 C172 1.238 . S
O199 Cd163 2.273 . S
O199 C172 1.253 . S
O200 Cd163 2.268 . S
O200 C189 1.238 . S
O201 Cd162 2.273 . S
O201 C189 1.253 . S
O202 Cd162 2.417 . S
O202 C190 1.239 . S
O203 Cd162 2.330 . S
O203 C190 1.230 . S
O204 Cd163 2.417 . S
O204 C197 1.239 . S
O205 Cd163 2.330 . S
O205 C197 1.230 . S
H206 C192 0.929 . S
H207 C196 0.930 . S
H208 C166 0.931 . S
H209 C168 0.930 . S
H210 C174 0.929 . S
H211 C176 0.931 . S
H212 C183 0.931 . S
H213 C185 0.930 . S
H214 C193 0.929 . S
H215 C195 0.931 . S
H216 C222 0.930 . S
H217 C226 0.933 . S
H218 C231 0.929 . S
H219 C229 0.929 . S
H220 C224 0.929 1_455 S
H221 C230 0.929 . S
C222 H216 0.930 . S
C222 C223 1.367 . S
C222 C230 1.378 . S
C223 C222 1.367 . S
C223 C231 1.433 1_655 S
C224 H220 0.929 1_655 S
C224 C226 1.378 . S
C224 C228 1.350 . S
C225 C228 1.463 . S
C225 C230 1.350 . S
C225 N233 1.427 1_655 S
C226 H217 0.933 . S
C226 C224 1.378 . S
C226 C227 1.367 . S
C227 C226 1.367 . S
C227 C229 1.433 . S
C228 C224 1.350 . S
C228 C225 1.463 . S
C228 N232 1.427 . S
C229 H219 0.929 . S
C229 C227 1.433 . S
C229 N232 1.384 . S
C230 H221 0.929 . S
C230 C222 1.378 . S
C230 C225 1.350 . S
C231 H218 0.929 . S
C231 C223 1.433 1_455 S
C231 N233 1.384 . S
N232 C228 1.427 . S
N232 C229 1.384 . S
N233 C225 1.427 1_455 S
N233 C231 1.384 . S
H234 C240 0.930 . S
H235 C244 0.930 . S
H236 C249 0.929 . S
H237 C247 0.929 . S
H238 C242 0.929 . S
H239 C248 0.929 . S
C240 H234 0.930 . S
C240 C241 1.367 . S
C240 C248 1.378 . S
C241 C240 1.367 . S
C241 C249 1.433 . S
C242 H238 0.929 . S
C242 C244 1.378 . S
C242 C246 1.350 . S
C243 C246 1.463 . S
C243 C248 1.350 . S
C243 N251 1.427 . S
C244 H235 0.930 . S
C244 C242 1.378 . S
C244 C245 1.367 . S
C245 C244 1.367 . S
C245 C247 1.433 . S
C246 C242 1.350 . S
C246 C243 1.463 . S
C246 N250 1.427 . S
C247 H237 0.929 . S
C247 C245 1.433 . S
C247 N250 1.384 . S
C248 H239 0.929 . S
C248 C240 1.378 . S
C248 C243 1.350 . S
C249 H236 0.929 . S
C249 C241 1.433 . S
C249 N251 1.384 . S
N250 C246 1.427 . S
N250 C247 1.384 . S
N251 C243 1.427 . S
N251 C249 1.384 . S
H252 C258 0.930 . S
H253 C262 0.930 . S
H254 C267 0.929 . S
H255 C265 0.929 . S
H256 C260 0.929 . S
H257 C266 0.929 . S
C258 H252 0.930 . S
C258 C259 1.367 . S
C258 C266 1.378 . S
C259 C258 1.367 . S
C259 C267 1.433 . S
C260 H256 0.929 . S
C260 C262 1.378 . S
C260 C264 1.350 . S
C261 C264 1.463 1_556 S
C261 C266 1.350 . S
C261 N269 1.427 . S
C262 H253 0.930 . S
C262 C260 1.378 . S
C262 C263 1.367 . S
C263 C262 1.367 . S
C263 C265 1.433 . S
C264 C260 1.350 . S
C264 C261 1.463 1_554 S
C264 N268 1.427 . S
C265 H255 0.929 . S
C265 C263 1.433 . S
C265 N268 1.384 . S
C266 H257 0.929 . S
C266 C258 1.378 . S
C266 C261 1.350 . S
C267 H254 0.929 . S
C267 C259 1.433 . S
C267 N269 1.384 . S
N268 C264 1.427 . S
N268 C265 1.384 . S
N269 C261 1.427 . S
N269 C267 1.384 . S
H270 C276 0.930 . S
H271 C280 0.930 . S
H272 C285 0.929 . S
H273 C283 0.929 . S
H274 C278 0.929 . S
H275 C284 0.929 . S
C276 H270 0.930 . S
C276 C277 1.367 . S
C276 C284 1.378 . S
C277 C276 1.367 . S
C277 C285 1.433 . S
C278 H274 0.929 . S
C278 C280 1.378 . S
C278 C282 1.350 . S
C279 C282 1.463 . S
C279 C284 1.350 . S
C279 N287 1.427 . S
C280 H271 0.930 . S
C280 C278 1.378 . S
C280 C281 1.367 . S
C281 C280 1.367 . S
C281 C283 1.433 . S
C282 C278 1.350 . S
C282 C279 1.463 . S
C282 N286 1.427 . S
C283 H273 0.929 . S
C283 C281 1.433 . S
C283 N286 1.384 . S
C284 H275 0.929 . S
C284 C276 1.378 . S
C284 C279 1.350 . S
C285 H272 0.929 . S
C285 C277 1.433 . S
C285 N287 1.384 . S
N286 C282 1.427 . S
N286 C283 1.384 . S
N287 C279 1.427 . S
N287 C285 1.384 . S
H288 C294 0.930 . S
H289 C298 0.930 . S
H290 C303 0.929 . S
H291 C301 0.929 . S
H292 C296 0.929 . S
H293 C302 0.929 . S
C294 H288 0.930 . S
C294 C295 1.367 . S
C294 C302 1.378 . S
C295 C294 1.367 . S
C295 C303 1.433 . S
C296 H292 0.929 . S
C296 C298 1.378 . S
C296 C300 1.350 . S
C297 C300 1.463 . S
C297 C302 1.350 . S
C297 N305 1.427 . S
C298 H289 0.930 . S
C298 C296 1.378 . S
C298 C299 1.367 . S
C299 C298 1.367 . S
C299 C301 1.433 . S
C300 C296 1.350 . S
C300 C297 1.463 . S
C300 N304 1.427 . S
C301 H291 0.929 . S
C301 C299 1.433 . S
C301 N304 1.384 . S
C302 H293 0.929 . S
C302 C294 1.378 . S
C302 C297 1.350 . S
C303 H290 0.929 . S
C303 C295 1.433 . S
C303 N305 1.384 . S
N304 C300 1.427 . S
N304 C301 1.384 . S
N305 C297 1.427 . S
N305 C303 1.384 . S
H306 C312 0.930 . S
H307 C316 0.930 . S
H308 C321 0.929 . S
H309 C319 0.929 . S
H310 C314 0.929 . S
H311 C320 0.929 . S
C312 H306 0.930 . S
C312 C313 1.367 . S
C312 C320 1.378 . S
C313 C312 1.367 . S
C313 C321 1.433 . S
C314 H310 0.929 . S
C314 C316 1.378 . S
C314 C318 1.350 . S
C315 C318 1.463 . S
C315 C320 1.350 . S
C315 N323 1.427 . S
C316 H307 0.930 . S
C316 C314 1.378 . S
C316 C317 1.367 . S
C317 C316 1.367 . S
C317 C319 1.433 . S
C318 C314 1.350 . S
C318 C315 1.463 . S
C318 N322 1.427 . S
C319 H309 0.929 . S
C319 C317 1.433 . S
C319 N322 1.384 . S
C320 H311 0.929 . S
C320 C312 1.378 . S
C320 C315 1.350 . S
C321 H308 0.929 . S
C321 C313 1.433 . S
C321 N323 1.384 . S
N322 C318 1.427 . S
N322 C319 1.384 . S
N323 C315 1.427 . S
N323 C321 1.384 . S
H324 C330 0.930 . S
H325 C334 0.930 . S
H326 C339 0.929 . S
H327 C337 0.929 . S
H328 C332 0.929 . S
H329 C338 0.929 . S
C330 H324 0.930 . S
C330 C331 1.367 . S
C330 C338 1.378 1_565 S
C331 C330 1.367 . S
C331 C339 1.433 . S
C332 H328 0.929 . S
C332 C334 1.378 . S
C332 C336 1.350 . S
C333 C336 1.463 1_556 S
C333 C338 1.350 . S
C333 N341 1.427 1_545 S
C334 H325 0.930 . S
C334 C332 1.378 . S
C334 C335 1.367 . S
C335 C334 1.367 . S
C335 C337 1.433 . S
C336 C332 1.350 . S
C336 C333 1.463 1_554 S
C336 N340 1.427 . S
C337 H327 0.929 . S
C337 C335 1.433 . S
C337 N340 1.384 . S
C338 H329 0.929 . S
C338 C330 1.378 1_545 S
C338 C333 1.350 . S
C339 H326 0.929 . S
C339 C331 1.433 . S
C339 N341 1.384 . S
N340 C336 1.427 . S
N340 C337 1.384 . S
N341 C333 1.427 1_565 S
N341 C339 1.384 . S
H342 C348 0.930 1_565 S
H343 C352 0.930 . S
H344 C357 0.929 1_655 S
H345 C355 0.929 . S
H346 C350 0.929 1_545 S
H347 C356 0.929 . S
C348 H342 0.930 1_545 S
C348 C349 1.367 . S
C348 C356 1.378 1_545 S
C349 C348 1.367 . S
C349 C357 1.433 . S
C350 H346 0.929 1_565 S
C350 C352 1.378 . S
C350 C354 1.350 . S
C351 C354 1.463 . S
C351 C356 1.350 . S
C351 N359 1.427 1_565 S
C352 H343 0.930 . S
C352 C350 1.378 . S
C352 C353 1.367 . S
C353 C352 1.367 . S
C353 C355 1.433 . S
C354 C350 1.350 . S
C354 C351 1.463 . S
C354 N358 1.427 . S
C355 H345 0.929 . S
C355 C353 1.433 . S
C355 N358 1.384 . S
C356 H347 0.929 . S
C356 C348 1.378 1_565 S
C356 C351 1.350 . S
C357 H344 0.929 1_455 S
C357 C349 1.433 . S
C357 N359 1.384 . S
N358 C354 1.427 . S
N358 C355 1.384 . S
N359 C351 1.427 1_545 S
N359 C357 1.384 . S
H360 C366 0.930 . S
H361 C370 0.930 . S
H362 C375 0.929 . S
H363 C373 0.929 . S
H364 C368 0.929 . S
H365 C374 0.929 . S
C366 H360 0.930 . S
C366 C367 1.367 . S
C366 C374 1.378 . S
C367 C366 1.367 . S
C367 C375 1.433 1_455 S
C368 H364 0.929 . S
C368 C370 1.378 . S
C368 C372 1.350 . S
C369 C372 1.463 1_455 S
C369 C374 1.350 . S
C369 N377 1.427 1_455 S
C370 H361 0.930 . S
C370 C368 1.378 . S
C370 C371 1.367 . S
C371 C370 1.367 . S
C371 C373 1.433 1_655 S
C372 C368 1.350 . S
C372 C369 1.463 1_655 S
C372 N376 1.427 1_655 S
C373 H363 0.929 . S
C373 C371 1.433 1_455 S
C373 N376 1.384 . S
C374 H365 0.929 . S
C374 C366 1.378 . S
C374 C369 1.350 . S
C375 H362 0.929 . S
C375 C367 1.433 1_655 S
C375 N377 1.384 . S
N376 C372 1.427 1_455 S
N376 C373 1.384 . S
N377 C369 1.427 1_655 S
N377 C375 1.384 . S
H378 C384 0.930 . S
H379 C388 0.930 . S
H380 C393 0.929 . S
H381 C391 0.929 . S
H382 C386 0.929 . S
H383 C392 0.929 . S
C384 H378 0.930 . S
C384 C385 1.367 . S
C384 C392 1.378 . S
C385 C384 1.367 . S
C385 C393 1.433 . S
C386 H382 0.929 . S
C386 C388 1.378 . S
C386 C390 1.350 . S
C387 C390 1.463 . S
C387 C392 1.350 . S
C387 N395 1.427 . S
C388 H379 0.930 . S
C388 C386 1.378 . S
C388 C389 1.367 . S
C389 C388 1.367 . S
C389 C391 1.433 . S
C390 C386 1.350 . S
C390 C387 1.463 . S
C390 N394 1.427 . S
C391 H381 0.929 . S
C391 C389 1.433 . S
C391 N394 1.384 . S
C392 H383 0.929 . S
C392 C384 1.378 . S
C392 C387 1.350 . S
C393 H380 0.929 . S
C393 C385 1.433 . S
C393 N395 1.384 . S
N394 C390 1.427 . S
N394 C391 1.384 . S
N395 C387 1.427 . S
N395 C393 1.384 . S
H396 C402 0.930 . S
H397 C406 0.930 . S
H398 C411 0.929 . S
H399 C409 0.929 . S
H400 C404 0.929 . S
H401 C410 0.929 . S
C402 H396 0.930 . S
C402 C403 1.367 . S
C402 C410 1.378 . S
C403 C402 1.367 . S
C403 C411 1.433 . S
C404 H400 0.929 . S
C404 C406 1.378 . S
C404 C408 1.350 . S
C405 C408 1.463 . S
C405 C410 1.350 . S
C405 N413 1.427 . S
C406 H397 0.930 . S
C406 C404 1.378 . S
C406 C407 1.367 . S
C407 C406 1.367 . S
C407 C409 1.433 . S
C408 C404 1.350 . S
C408 C405 1.463 . S
C408 N412 1.427 . S
C409 H399 0.929 . S
C409 C407 1.433 . S
C409 N412 1.384 . S
C410 H401 0.929 . S
C410 C402 1.378 . S
C410 C405 1.350 . S
C411 H398 0.929 . S
C411 C403 1.433 . S
C411 N413 1.384 . S
N412 C408 1.427 . S
N412 C409 1.384 . S
N413 C405 1.427 . S
N413 C411 1.384 . S
H414 C420 0.930 . S
H415 C424 0.930 . S
H416 C429 0.929 . S
H417 C427 0.929 . S
H418 C422 0.929 . S
H419 C428 0.929 . S
C420 H414 0.930 . S
C420 C421 1.367 . S
C420 C428 1.378 . S
C421 C420 1.367 . S
C421 C429 1.433 . S
C422 H418 0.929 . S
C422 C424 1.378 . S
C422 C426 1.350 . S
C423 C426 1.463 1_455 S
C423 C428 1.350 . S
C423 N431 1.427 . S
C424 H415 0.930 . S
C424 C422 1.378 . S
C424 C425 1.367 . S
C425 C424 1.367 . S
C425 C427 1.433 . S
C426 C422 1.350 . S
C426 C423 1.463 1_655 S
C426 N430 1.427 . S
C427 H417 0.929 . S
C427 C425 1.433 . S
C427 N430 1.384 . S
C428 H419 0.929 . S
C428 C420 1.378 . S
C428 C423 1.350 . S
C429 H416 0.929 . S
C429 C421 1.433 . S
C429 N431 1.384 . S
N430 C426 1.427 . S
N430 C427 1.384 . S
N431 C423 1.427 . S
N431 C429 1.384 . S
H432 C438 0.930 . S
H433 C442 0.930 . S
H434 C447 0.929 . S
H435 C445 0.929 . S
H436 C440 0.929 . S
H437 C446 0.929 . S
C438 H432 0.930 . S
C438 C439 1.367 . S
C438 C446 1.378 . S
C439 C438 1.367 . S
C439 C447 1.433 . S
C440 H436 0.929 . S
C440 C442 1.378 . S
C440 C444 1.350 . S
C441 C444 1.463 1_655 S
C441 C446 1.350 . S
C441 N449 1.427 . S
C442 H433 0.930 . S
C442 C440 1.378 . S
C442 C443 1.367 . S
C443 C442 1.367 . S
C443 C445 1.433 . S
C444 C440 1.350 . S
C444 C441 1.463 1_455 S
C444 N448 1.427 . S
C445 H435 0.929 . S
C445 C443 1.433 . S
C445 N448 1.384 . S
C446 H437 0.929 . S
C446 C438 1.378 . S
C446 C441 1.350 . S
C447 H434 0.929 . S
C447 C439 1.433 . S
C447 N449 1.384 . S
N448 C444 1.427 . S
N448 C445 1.384 . S
N449 C441 1.427 . S
N449 C447 1.384 . S
H450 C456 0.930 . S
H451 C460 0.930 . S
H452 C465 0.929 . S
H453 C463 0.929 . S
H454 C458 0.929 . S
H455 C464 0.929 . S
C456 H450 0.930 . S
C456 C457 1.367 . S
C456 C464 1.378 . S
C457 C456 1.367 . S
C457 C465 1.433 . S
C458 H454 0.929 . S
C458 C460 1.378 . S
C458 C462 1.350 . S
C459 C462 1.463 1_655 S
C459 C464 1.350 . S
C459 N467 1.427 . S
C460 H451 0.930 . S
C460 C458 1.378 . S
C460 C461 1.367 . S
C461 C460 1.367 . S
C461 C463 1.433 . S
C462 C458 1.350 . S
C462 C459 1.463 1_455 S
C462 N466 1.427 . S
C463 H453 0.929 . S
C463 C461 1.433 . S
C463 N466 1.384 . S
C464 H455 0.929 . S
C464 C456 1.378 . S
C464 C459 1.350 . S
C465 H452 0.929 . S
C465 C457 1.433 . S
C465 N467 1.384 . S
N466 C462 1.427 . S
N466 C463 1.384 . S
N467 C459 1.427 . S
N467 C465 1.384 . S
H468 C474 0.930 . S
H469 C478 0.930 . S
H470 C483 0.929 . S
H471 C481 0.929 . S
H472 C476 0.929 . S
H473 C482 0.929 . S
C474 H468 0.930 . S
C474 C475 1.367 . S
C474 C482 1.378 . S
C475 C474 1.367 . S
C475 C483 1.433 . S
C476 H472 0.929 . S
C476 C478 1.378 . S
C476 C480 1.350 . S
C477 C480 1.463 . S
C477 C482 1.350 . S
C477 N485 1.427 . S
C478 H469 0.930 . S
C478 C476 1.378 . S
C478 C479 1.367 . S
C479 C478 1.367 . S
C479 C481 1.433 . S
C480 C476 1.350 . S
C480 C477 1.463 . S
C480 N484 1.427 . S
C481 H471 0.929 . S
C481 C479 1.433 . S
C481 N484 1.384 . S
C482 H473 0.929 . S
C482 C474 1.378 . S
C482 C477 1.350 . S
C483 H470 0.929 . S
C483 C475 1.433 . S
C483 N485 1.384 . S
N484 C480 1.427 . S
N484 C481 1.384 . S
N485 C477 1.427 . S
N485 C483 1.384 . S
H486 C492 0.930 . S
H487 C496 0.930 . S
H488 C501 0.929 . S
H489 C499 0.929 . S
H490 C494 0.929 . S
H491 C500 0.929 . S
C492 H486 0.930 . S
C492 C493 1.367 . S
C492 C500 1.378 . S
C493 C492 1.367 . S
C493 C501 1.433 . S
C494 H490 0.929 . S
C494 C496 1.378 . S
C494 C498 1.350 . S
C495 C498 1.463 . S
C495 C500 1.350 . S
C495 N503 1.427 . S
C496 H487 0.930 . S
C496 C494 1.378 . S
C496 C497 1.367 . S
C497 C496 1.367 . S
C497 C499 1.433 . S
C498 C494 1.350 . S
C498 C495 1.463 . S
C498 N502 1.427 . S
C499 H489 0.929 . S
C499 C497 1.433 . S
C499 N502 1.384 . S
C500 H491 0.929 . S
C500 C492 1.378 . S
C500 C495 1.350 . S
C501 H488 0.929 . S
C501 C493 1.433 . S
C501 N503 1.384 . S
N502 C498 1.427 . S
N502 C499 1.384 . S
N503 C495 1.427 . S
N503 C501 1.384 . S
C223 C13 2.138 . S
C227 C76 2.142 . S
C241 C113 2.144 . S
C245 C67 2.140 . S
C259 C140 2.133 . S
C263 C167 2.138 . S
C277 C22 2.145 . S
C281 C194 2.140 . S
C295 C175 2.131 . S
C299 C5 2.135 . S
C313 C86 2.138 . S
C317 C130 2.142 . S
C331 C121 2.129 . S
C335 C184 2.134 . S
C349 C32 2.129 . S
C353 C59 2.134 . S
C367 C28 0.225 . S
C371 C35 0.227 . S
C385 C82 0.230 . S
C389 C89 0.229 . S
C403 C136 0.226 . S
C407 C143 0.229 . S
C421 C197 0.230 . S
C425 C190 0.228 . S
C439 C81 1.917 1_645 S
C443 C64 1.917 1_455 S
C457 C135 1.914 . S
C461 C118 1.914 . S
C475 C189 1.912 . S
C479 C172 1.912 1_565 S
C493 C10 1.919 . S
C497 C27 1.919 . S
