# Generated by pormake.
# Topology smc, (6)-cn, num edge types: 1
# Building blocks:
#     Node 0, Type 0, BuildingBlock: INOVEN_clean_sbu_0, # of connection points: 6
#     Node 1, Type 0, BuildingBlock: INOVEN_clean_sbu_0, # of connection points: 6
#     Node 2, Type 0, BuildingBlock: INOVEN_clean_sbu_0, # of connection points: 6
#     Node 3, Type 0, BuildingBlock: INOVEN_clean_sbu_0, # of connection points: 6
#     Node 4, Type 0, BuildingBlock: INOVEN_clean_sbu_0, # of connection points: 6
#     Node 5, Type 0, BuildingBlock: INOVEN_clean_sbu_0, # of connection points: 6
#     Node 6, Type 0, BuildingBlock: INOVEN_clean_sbu_0, # of connection points: 6
#     Node 7, Type 0, BuildingBlock: INOVEN_clean_sbu_0, # of connection points: 6
#     Node 8, Type 0, BuildingBlock: INOVEN_clean_sbu_0, # of connection points: 6
#     Edge 9, Type (0, 0), BuildingBlock: MIFKUJ_clean_linker_0, # of connection points: 2
#     Edge 10, Type (0, 0), BuildingBlock: MIFKUJ_clean_linker_0, # of connection points: 2
#     Edge 11, Type (0, 0), BuildingBlock: MIFKUJ_clean_linker_0, # of connection points: 2
#     Edge 12, Type (0, 0), BuildingBlock: MIFKUJ_clean_linker_0, # of connection points: 2
#     Edge 13, Type (0, 0), BuildingBlock: MIFKUJ_clean_linker_0, # of connection points: 2
#     Edge 14, Type (0, 0), BuildingBlock: MIFKUJ_clean_linker_0, # of connection points: 2
#     Edge 15, Type (0, 0), BuildingBlock: MIFKUJ_clean_linker_0, # of connection points: 2
#     Edge 16, Type (0, 0), BuildingBlock: MIFKUJ_clean_linker_0, # of connection points: 2
#     Edge 17, Type (0, 0), BuildingBlock: MIFKUJ_clean_linker_0, # of connection points: 2
#     Edge 18, Type (0, 0), BuildingBlock: MIFKUJ_clean_linker_0, # of connection points: 2
#     Edge 19, Type (0, 0), BuildingBlock: MIFKUJ_clean_linker_0, # of connection points: 2
#     Edge 20, Type (0, 0), BuildingBlock: MIFKUJ_clean_linker_0, # of connection points: 2
#     Edge 21, Type (0, 0), BuildingBlock: MIFKUJ_clean_linker_0, # of connection points: 2
#     Edge 22, Type (0, 0), BuildingBlock: MIFKUJ_clean_linker_0, # of connection points: 2
#     Edge 23, Type (0, 0), BuildingBlock: MIFKUJ_clean_linker_0, # of connection points: 2
#     Edge 24, Type (0, 0), BuildingBlock: MIFKUJ_clean_linker_0, # of connection points: 2
#     Edge 25, Type (0, 0), BuildingBlock: MIFKUJ_clean_linker_0, # of connection points: 2
#     Edge 26, Type (0, 0), BuildingBlock: MIFKUJ_clean_linker_0, # of connection points: 2
#     Edge 27, Type (0, 0), BuildingBlock: MIFKUJ_clean_linker_0, # of connection points: 2
#     Edge 28, Type (0, 0), BuildingBlock: MIFKUJ_clean_linker_0, # of connection points: 2
#     Edge 29, Type (0, 0), BuildingBlock: MIFKUJ_clean_linker_0, # of connection points: 2
#     Edge 30, Type (0, 0), BuildingBlock: MIFKUJ_clean_linker_0, # of connection points: 2
#     Edge 31, Type (0, 0), BuildingBlock: MIFKUJ_clean_linker_0, # of connection points: 2
#     Edge 32, Type (0, 0), BuildingBlock: MIFKUJ_clean_linker_0, # of connection points: 2
#     Edge 33, Type (0, 0), BuildingBlock: MIFKUJ_clean_linker_0, # of connection points: 2
#     Edge 34, Type (0, 0), BuildingBlock: MIFKUJ_clean_linker_0, # of connection points: 2
#     Edge 35, Type (0, 0), BuildingBlock: MIFKUJ_clean_linker_0, # of connection points: 2
# Relax obj value: 0.154
# Max RMSD: 0.295
# Mean RMSD: 0.295
data_MOF--net-smc--node1-INOVEN_clean_sbu_0--edge1-MIFKUJ_clean_linker_0
_symmetry_space_group_name_H-M    P1
_symmetry_Int_Tables_number       1
_symmetry_cell_setting            triclinic
loop_
_symmetry_equiv_pos_as_xyz
'x, y, z'
_cell_length_a     48.709425
_cell_length_b     48.686992
_cell_length_c     49.929367
_cell_angle_alpha  89.724287
_cell_angle_beta   90.309552
_cell_angle_gamma 119.89258
loop_
_atom_site_label
_atom_site_type_symbol
_atom_site_fract_x
_atom_site_fract_y
_atom_site_fract_z
_atom_type_partial_charge
Gd0 Gd 0.03711 0.47487 1.03425 0.0
Gd1 Gd 0.98981 0.40112 1.0379 0.0
C2 C 0.06455 0.42711 0.03939 0.0
C3 C 0.08068 0.53331 1.03748 0.0
C4 C 0.10562 0.56699 0.03964 0.0
C5 C 0.12806 0.58168 1.0192 0.0
C6 C 0.10628 0.58515 0.06166 0.0
C7 C 0.15058 0.63244 0.0423 0.0
C8 C 0.12852 0.61746 0.063 0.0
C9 C 0.15029 0.61406 1.0205 0.0
C10 C 1.01082 0.44275 0.98787 0.0
C11 C 0.9641 0.45193 0.04163 0.0
C12 C 0.94734 0.34528 1.0226 0.0
C13 C 0.91369 0.32346 1.02815 0.0
C14 C 0.89908 0.32684 0.05106 0.0
C15 C 0.89533 0.30067 1.00898 0.0
C16 C 0.84779 0.2845 1.03551 0.0
C17 C 0.86273 0.2814 1.01259 0.0
C18 C 0.8664 0.30743 0.05477 0.0
C19 C 1.00785 0.42408 0.08825 0.0
O20 O 0.06861 0.45531 0.04531 0.0
O21 O 0.03683 0.40302 1.03171 0.0
O22 O 0.0802 0.51469 1.01836 0.0
O23 O 0.05773 0.51982 0.05501 0.0
O24 O 0.01579 0.47113 0.99232 0.0
O25 O 0.02067 0.43401 1.00748 0.0
O26 O 0.95771 0.42264 1.03629 0.0
O27 O 0.99323 0.47553 0.04505 0.0
O28 O 0.96767 0.35008 0.04191 0.0
O29 O 0.95311 0.37127 1.01003 0.0
O30 O 0.98727 0.39484 0.08275 0.0
O31 O 0.01578 0.43977 0.06661 0.0
H32 H 0.12804 0.56833 1.0019 0.0
H33 H 0.08937 0.57449 0.07779 0.0
H34 H 0.12839 0.63072 0.08031 0.0
H35 H 0.16668 0.62485 1.00405 0.0
H36 H 0.91285 0.34473 0.06588 0.0
H37 H 0.90613 0.29822 0.99091 0.0
H38 H 0.84914 0.26452 0.99706 0.0
H39 H 0.85576 0.31032 0.07274 0.0
Gd40 Gd 0.54645 0.55891 0.04083 0.0
Gd41 Gd 0.62128 0.5873 0.04737 0.0
C42 C 0.59103 0.63348 1.03551 0.0
C43 C 0.48563 0.53061 0.04654 0.0
C44 C 0.45546 0.53029 0.04135 0.0
C45 C 0.43518 0.51128 1.02077 0.0
C46 C 0.44439 0.54471 0.05935 0.0
C47 C 0.39256 0.51887 1.03764 0.0
C48 C 0.41333 0.53911 0.05748 0.0
C49 C 0.40416 0.50573 1.01887 0.0
C50 C 0.58097 0.56937 0.99575 0.0
C51 C 0.57395 0.51197 0.05638 0.0
C52 C 0.68021 0.60485 0.03954 0.0
C53 C 0.70081 0.59075 1.0362 0.0
C54 C 0.72377 0.59686 0.05593 0.0
C55 C 0.69789 0.57108 1.01456 0.0
C56 C 0.74062 0.56386 1.03281 0.0
C57 C 0.71763 0.55775 1.01289 0.0
C58 C 0.7432 0.58347 0.0544 0.0
C59 C 0.59569 0.59301 0.09399 0.0
O60 O 0.56238 0.61005 0.04129 0.0
O61 O 0.61652 0.62998 1.03389 0.0
O62 O 0.49949 0.52499 1.02654 0.0
O63 O 0.50566 0.5511 0.06384 0.0
O64 O 0.55653 0.57343 0.99707 0.0
O65 O 0.58476 0.55883 1.01771 0.0
O66 O 0.60345 0.53473 0.05174 0.0
O67 O 0.54974 0.51713 0.05619 0.0
O68 O 0.66738 0.60072 0.06323 0.0
O69 O 0.66109 0.60275 1.01998 0.0
O70 O 0.62535 0.60214 0.09088 0.0
O71 O 0.58166 0.58047 0.0724 0.0
H72 H 0.44275 0.4994 1.00684 0.0
H73 H 0.45925 0.55927 0.07561 0.0
H74 H 0.40533 0.55001 0.07201 0.0
H75 H 0.38878 0.48976 1.00351 0.0
H76 H 0.72648 0.61185 0.07288 0.0
H77 H 0.68039 0.56592 0.99903 0.0
H78 H 0.71511 0.54296 0.99587 0.0
H79 H 0.75999 0.58819 0.07046 0.0
Gd80 Gd 0.46676 0.99271 1.03536 0.0
Gd81 Gd 0.43855 0.03404 0.04392 0.0
C82 C 0.39118 0.9582 0.04279 0.0
C83 C 0.48849 0.95395 1.03116 0.0
C84 C 0.4912 0.92519 1.03584 0.0
C85 C 0.48172 0.90201 1.01578 0.0
C86 C 0.50815 0.92332 0.05801 0.0
C87 C 0.50798 0.87706 0.039 0.0
C88 C 0.51635 0.89954 0.0596 0.0
C89 C 0.4899 0.87821 1.01736 0.0
C90 C 0.46141 0.02306 0.99088 0.0
C91 C 0.51368 0.06415 0.04534 0.0
C92 C 0.4175 0.0733 0.03938 0.0
C93 C 0.43204 0.10832 0.04255 0.0
C94 C 0.42987 0.12165 0.06683 0.0
C95 C 0.44823 0.12888 1.02107 0.0
C96 C 0.45996 0.17515 0.04812 0.0
C97 C 0.46202 0.16176 1.02384 0.0
C98 C 0.44367 0.15461 0.06959 0.0
C99 C 0.45339 0.01628 0.09144 0.0
O100 O 0.41678 0.95538 0.04311 0.0
O101 O 0.39283 0.98629 0.04143 0.0
O102 O 0.46673 0.95311 1.01507 0.0
O103 O 0.49738 0.9755 0.04992 0.0
O104 O 0.48629 0.02097 0.99622 0.0
O105 O 0.44157 1.00938 1.00897 0.0
O106 O 0.49062 0.06887 1.0369 0.0
O107 O 0.50794 0.03571 0.052 0.0
O108 O 0.41319 0.05618 0.06097 0.0
O109 O 0.42766 0.06386 1.01915 0.0
O110 O 0.46032 0.04488 0.08499 0.0
O111 O 0.44231 0.99927 0.07074 0.0
H112 H 0.46921 0.9031 0.99816 0.0
H113 H 0.51624 0.94098 0.07369 0.0
H114 H 0.52981 0.89916 0.07679 0.0
H115 H 0.48329 0.86162 1.00095 0.0
H116 H 0.41753 0.10661 0.08376 0.0
H117 H 0.45019 0.11961 1.00194 0.0
H118 H 0.47379 0.17667 1.00671 0.0
H119 H 0.4418 0.16401 0.08867 0.0
Gd120 Gd 0.70021 0.80877 0.37659 0.0
Gd121 Gd 0.66211 0.73772 0.37754 0.0
C122 C 0.73665 0.76855 0.37072 0.0
C123 C 0.73858 0.86894 0.38406 0.0
C124 C 0.7672 0.89947 0.37705 0.0
C125 C 0.76724 0.91769 0.35508 0.0
C126 C 0.79278 0.91304 0.3951 0.0
C127 C 0.81635 0.96334 0.37086 0.0
C128 C 0.81704 0.9445 0.39205 0.0
C129 C 0.79158 0.94917 0.35197 0.0
C130 C 0.67725 0.78011 0.32799 0.0
C131 C 0.62847 0.78034 0.3856 0.0
C132 C 0.61887 0.67876 0.37204 0.0
C133 C 0.58392 0.65976 0.37218 0.0
C134 C 0.56934 0.62987 0.38444 0.0
C135 C 0.5649 0.67102 0.36084 0.0
C136 C 0.51705 0.62209 0.37349 0.0
C137 C 0.53176 0.65235 0.36148 0.0
C138 C 0.53635 0.61128 0.38514 0.0
C139 C 0.69145 0.76246 0.42398 0.0
O140 O 0.7382 0.79552 0.37744 0.0
O141 O 0.70921 0.74265 0.36537 0.0
O142 O 0.71389 0.85765 0.36821 0.0
O143 O 0.74192 0.84681 0.39604 0.0
O144 O 0.67917 0.80668 0.33469 0.0
O145 O 0.6889 0.77161 0.34632 0.0
O146 O 0.62596 0.75444 0.37483 0.0
O147 O 0.65598 0.80281 0.39428 0.0
O148 O 0.63226 0.69124 0.39495 0.0
O149 O 0.63223 0.69799 0.35181 0.0
O150 O 0.68789 0.73659 0.41364 0.0
O151 O 0.67757 0.77408 0.41008 0.0
H152 H 0.74782 0.90812 0.34086 0.0
H153 H 0.79321 0.89983 0.41247 0.0
H154 H 0.83543 0.95449 0.40719 0.0
H155 H 0.79051 0.96265 0.33508 0.0
H156 H 0.58354 0.62089 0.39357 0.0
H157 H 0.5756 0.69414 0.35141 0.0
H158 H 0.51773 0.6614 0.35217 0.0
H159 H 0.52597 0.58848 0.39508 0.0
Gd160 Gd 0.21581 0.8906 0.36942 0.0
Gd161 Gd 0.28999 0.91779 0.37668 0.0
C162 C 0.26057 0.96515 0.3673 0.0
C163 C 0.15485 0.86154 0.37412 0.0
C164 C 0.12442 0.86046 0.36868 0.0
C165 C 0.11058 0.85389 0.34302 0.0
C166 C 0.10691 0.86173 0.39039 0.0
C167 C 0.06155 0.84806 0.36133 0.0
C168 C 0.07591 0.85563 0.38679 0.0
C169 C 0.07949 0.84785 0.33938 0.0
C170 C 0.25073 0.90301 0.32427 0.0
C171 C 0.24224 0.84262 0.38418 0.0
C172 C 0.3492 0.93608 0.36945 0.0
C173 C 0.3696 0.92231 0.36432 0.0
C174 C 0.39915 0.93598 0.37708 0.0
C175 C 0.35913 0.89423 0.34972 0.0
C176 C 0.40777 0.89361 0.3611 0.0
C177 C 0.37817 0.88016 0.34792 0.0
C178 C 0.41789 0.92177 0.37568 0.0
C179 C 0.26452 0.92194 0.42378 0.0
O180 O 0.2316 0.94166 0.37176 0.0
O181 O 0.28589 0.96141 0.3654 0.0
O182 O 0.16939 0.8565 0.35434 0.0
O183 O 0.17423 0.88219 0.39165 0.0
O184 O 0.22625 0.90691 0.32619 0.0
O185 O 0.25432 0.89131 0.34572 0.0
O186 O 0.27185 0.86509 0.3796 0.0
O187 O 0.21847 0.84839 0.38426 0.0
O188 O 0.33539 0.92883 0.39282 0.0
O189 O 0.33081 0.93616 0.35015 0.0
O190 O 0.29391 0.93013 0.42062 0.0
O191 O 0.25023 0.9107 0.40194 0.0
H192 H 0.12335 0.85247 0.32588 0.0
H193 H 0.11673 0.86616 0.41046 0.0
H194 H 0.06278 0.85552 0.40426 0.0
H195 H 0.06937 0.84254 0.31943 0.0
H196 H 0.40735 0.95724 0.38897 0.0
H197 H 0.33608 0.88284 0.3402 0.0
H198 H 0.36957 0.85868 0.33631 0.0
H199 H 0.43993 0.93251 0.38679 0.0
Gd200 Gd 0.13538 0.32402 0.36637 0.0
Gd201 Gd 0.1078 0.36553 0.37868 0.0
C202 C 0.05988 0.28972 0.37627 0.0
C203 C 0.15619 0.28491 0.35966 0.0
C204 C 0.15785 0.25549 0.36285 0.0
C205 C 0.15967 0.2402 0.33975 0.0
C206 C 0.16236 0.24512 0.38796 0.0
C207 C 0.17264 0.20602 0.36648 0.0
C208 C 0.16948 0.22054 0.38975 0.0
C209 C 0.16706 0.21593 0.34148 0.0
C210 C 0.12868 0.35599 0.32385 0.0
C211 C 0.18306 0.39561 0.37703 0.0
C212 C 0.08632 0.40458 0.37739 0.0
C213 C 0.10166 0.43954 0.38021 0.0
C214 C 0.08731 0.45306 0.39545 0.0
C215 C 0.13044 0.45975 0.36721 0.0
C216 C 0.12938 0.50635 0.38359 0.0
C217 C 0.14401 0.4927 0.36878 0.0
C218 C 0.10107 0.48611 0.39722 0.0
C219 C 0.12476 0.34577 0.42389 0.0
O220 O 0.08531 0.28668 0.37446 0.0
O221 O 0.06176 0.31795 0.37673 0.0
O222 O 0.13496 0.28552 0.34382 0.0
O223 O 0.16506 0.30513 0.3795 0.0
O224 O 0.15336 0.35299 0.32751 0.0
O225 O 0.10952 0.34201 0.34237 0.0
O226 O 0.15958 0.40053 0.37029 0.0
O227 O 0.17755 0.36688 0.38243 0.0
O228 O 0.08474 0.38829 0.39885 0.0
O229 O 0.09393 0.39452 0.35597 0.0
O230 O 0.13067 0.37449 0.41941 0.0
O231 O 0.11251 0.32968 0.40297 0.0
H232 H 0.15683 0.24807 0.32011 0.0
H233 H 0.16131 0.25658 0.40615 0.0
H234 H 0.17297 0.21328 0.40941 0.0
H235 H 0.16973 0.20597 0.32302 0.0
H236 H 0.06522 0.43804 0.40572 0.0
H237 H 0.14238 0.45013 0.35557 0.0
H238 H 0.16608 0.50753 0.35841 0.0
H239 H 0.08909 0.4958 0.4087 0.0
Gd240 Gd 0.37166 0.14526 0.69893 0.0
Gd241 Gd 0.32723 0.07214 0.70879 0.0
C242 C 0.40227 0.09961 0.70404 0.0
C243 C 0.41459 0.20389 0.69824 0.0
C244 C 0.43927 0.2376 0.69791 0.0
C245 C 0.45244 0.25312 0.6736 0.0
C246 C 0.44949 0.25468 0.72193 0.0
C247 C 0.48535 0.30252 0.69737 0.0
C248 C 0.47238 0.28679 0.72168 0.0
C249 C 0.47519 0.28533 0.67332 0.0
C250 C 0.34106 0.10897 0.65576 0.0
C251 C 0.29896 0.12114 0.70977 0.0
C252 C 0.2842 0.01471 0.69871 0.0
C253 C 0.25022 0.99557 0.70492 0.0
C254 C 0.2373 0.9636 0.71187 0.0
C255 C 0.23027 1.0087 0.70316 0.0
C256 C 0.1845 0.95746 0.71335 0.0
C257 C 0.19772 0.9898 0.70725 0.0
C258 C 0.20473 0.9447 0.71611 0.0
C259 C 0.34976 0.10037 0.75676 0.0
O260 O 0.40624 0.12845 0.70526 0.0
O261 O 0.37402 0.07357 0.70276 0.0
O262 O 0.41009 0.1849 0.6781 0.0
O263 O 0.39576 0.19085 0.71881 0.0
O264 O 0.34589 0.13749 0.65902 0.0
O265 O 0.35349 0.10201 0.6748 0.0
O266 O 0.29327 0.09154 0.70866 0.0
O267 O 0.32772 0.14597 0.70915 0.0
O268 O 0.304 0.02203 0.71888 0.0
O269 O 0.29188 0.03828 0.68205 0.0
O270 O 0.32947 0.0705 0.75372 0.0
O271 O 0.35512 0.11392 0.7341 0.0
H272 H 0.44493 0.24047 0.65478 0.0
H273 H 0.43974 0.24325 0.74095 0.0
H274 H 0.4795 0.29945 0.74051 0.0
H275 H 0.485 0.29672 0.6543 0.0
H276 H 0.2523 0.9531 0.71351 0.0
H277 H 0.23967 0.03341 0.69801 0.0
H278 H 0.18281 1.00033 0.7048 0.0
H279 H 0.19534 0.91999 0.72125 0.0
Gd280 Gd 0.88258 0.2245 0.69583 0.0
Gd281 Gd 0.95391 0.25299 0.70999 0.0
C282 C 0.92254 0.29837 0.70338 0.0
C283 C 0.82133 0.19317 0.69262 0.0
C284 C 0.79084 0.19246 0.69619 0.0
C285 C 0.77164 0.18752 0.67361 0.0
C286 C 0.77877 0.19257 0.72168 0.0
C287 C 0.72818 0.18108 0.70187 0.0
C288 C 0.74778 0.18702 0.72448 0.0
C289 C 0.74075 0.18192 0.67638 0.0
C290 C 0.92317 0.24133 0.65414 0.0
C291 C 0.90894 0.17653 0.70951 0.0
C292 C 1.01361 0.27156 0.70561 0.0
C293 C 0.03289 0.25573 0.7033 0.0
C294 C 0.04913 0.2539 0.726 0.0
C295 C 0.03517 0.24208 0.67924 0.0
C296 C 0.06881 0.22447 0.70101 0.0
C297 C 0.0531 0.22676 0.67807 0.0
C298 C 0.06665 0.23834 0.72492 0.0
C299 C 0.92409 0.25384 0.75528 0.0
O300 O 0.89475 0.27284 0.70718 0.0
O301 O 0.94877 0.29653 0.69962 0.0
O302 O 0.83963 0.21021 0.67294 0.0
O303 O 0.83709 0.19289 0.71389 0.0
O304 O 0.89903 0.24579 0.65455 0.0
O305 O 0.92411 0.22776 0.67541 0.0
O306 O 0.93742 0.20068 0.71497 0.0
O307 O 0.88529 0.18036 0.70137 0.0
O308 O 0.99912 0.26736 0.72848 0.0
O309 O 0.99618 0.27071 0.68515 0.0
O310 O 0.95386 0.26285 0.75372 0.0
O311 O 0.91092 0.24329 0.73272 0.0
H312 H 0.78012 0.18676 0.65376 0.0
H313 H 0.7929 0.19609 0.73951 0.0
H314 H 0.73905 0.18699 0.74438 0.0
H315 H 0.72633 0.17695 0.65853 0.0
H316 H 0.04818 0.26444 0.74479 0.0
H317 H 0.02325 0.24328 0.66131 0.0
H318 H 0.05435 0.21638 0.6593 0.0
H319 H 0.07895 0.2376 0.74281 0.0
Gd320 Gd 0.80385 0.661 0.7107 0.0
Gd321 Gd 0.77674 0.70288 0.71876 0.0
C322 C 0.72989 0.62622 0.71114 0.0
C323 C 0.83632 0.6318 0.71109 0.0
C324 C 0.83883 0.6028 0.70797 0.0
C325 C 0.85594 0.6008 0.68621 0.0
C326 C 0.82871 0.57949 0.72811 0.0
C327 C 0.85457 0.55403 0.70552 0.0
C328 C 0.83637 0.55528 0.72682 0.0
C329 C 0.86364 0.57673 0.68496 0.0
C330 C 0.78998 0.68251 0.66517 0.0
C331 C 0.85118 0.73508 0.72091 0.0
C332 C 0.75246 0.73958 0.71693 0.0
C333 C 0.76628 0.77455 0.71586 0.0
C334 C 0.76483 0.79075 0.73855 0.0
C335 C 0.78181 0.79222 0.69286 0.0
C336 C 0.79476 0.84154 0.71561 0.0
C337 C 0.79586 0.82531 0.69275 0.0
C338 C 0.77896 0.8238 0.73847 0.0
C339 C 0.78592 0.68045 0.76592 0.0
O340 O 0.7546 0.62262 0.7153 0.0
O341 O 0.73276 0.65479 0.70866 0.0
O342 O 0.832 0.64474 0.68969 0.0
O343 O 0.82277 0.63521 0.7324 0.0
O344 O 0.78418 0.65361 0.66827 0.0
O345 O 0.80317 0.69837 0.68584 0.0
O346 O 0.82794 0.74042 0.71471 0.0
O347 O 0.84583 0.70611 0.7249 0.0
O348 O 0.757 0.72824 0.73922 0.0
O349 O 0.75548 0.72556 0.69576 0.0
O350 O 0.79467 0.70982 0.7609 0.0
O351 O 0.77568 0.66478 0.74444 0.0
H352 H 0.86444 0.61861 0.67055 0.0
H353 H 0.81587 0.58054 0.74534 0.0
H354 H 0.82914 0.53833 0.7431 0.0
H355 H 0.87716 0.57622 0.66802 0.0
H356 H 0.75292 0.77783 0.75652 0.0
H357 H 0.78343 0.78061 0.675 0.0
H358 H 0.80807 0.83821 0.67488 0.0
H359 H 0.77721 0.83543 0.75629 0.0
H360 H 0.35433 0.51135 0.99441 0.0
H361 H 0.29745 0.49238 0.99442 0.0
H362 H 0.29659 0.48679 0.08069 0.0
H363 H 0.35322 0.50472 0.08078 0.0
H364 H 0.2482 0.43498 0.06079 0.0
H365 H 0.29107 0.54573 0.04849 0.0
H366 H 0.32403 0.59844 1.0282 0.0
H367 H 0.27509 0.56432 0.95333 0.0
H368 H 0.24212 0.51121 0.97306 0.0
H369 H 0.10077 0.4311 0.08199 0.0
H370 H 0.1558 0.44274 0.08069 0.0
H371 H 0.15002 0.43359 0.99466 0.0
H372 H 0.09463 0.42151 0.99606 0.0
H373 H 0.20109 0.49167 1.01367 0.0
H374 H 0.15641 0.37986 1.02948 0.0
H375 H 0.12272 0.32959 0.05323 0.0
H376 H 0.175 0.36938 0.12586 0.0
H377 H 0.20874 0.42007 0.10262 0.0
C378 C 0.34205 0.50607 1.01339 0.0
C379 C 0.35843 0.50968 1.0376 0.0
C380 C 0.30954 0.49544 1.01339 0.0
C381 C 0.29271 0.48835 1.03758 0.0
C382 C 0.30903 0.49213 0.06177 0.0
C383 C 0.34152 0.50275 0.0618 0.0
C384 C 0.25799 0.47634 1.03761 0.0
C385 C 0.23798 0.44759 0.0507 0.0
C386 C 0.2445 0.49251 1.0242 0.0
C387 C 0.26437 0.52437 1.01218 0.0
C388 C 0.28753 0.54937 1.02762 0.0
C389 C 0.30618 0.57934 1.01624 0.0
C390 C 0.30172 0.5847 0.98947 0.0
C391 C 0.27855 0.56011 0.97405 0.0
C392 C 0.25987 0.53007 0.98533 0.0
C393 C 0.11092 0.43038 0.06295 0.0
C394 C 0.09341 0.42469 0.03919 0.0
C395 C 0.14239 0.43724 0.06218 0.0
C396 C 0.157 0.43903 1.03757 0.0
C397 C 0.13913 0.4322 1.01385 0.0
C398 C 0.10744 0.42485 1.01468 0.0
C399 C 0.19146 0.45027 1.0366 0.0
C400 C 0.2114 0.47899 1.02349 0.0
C401 C 0.20493 0.43439 0.05041 0.0
C402 C 0.18496 0.40382 0.06435 0.0
C403 C 0.16059 0.37796 0.05056 0.0
C404 C 0.1415 0.34938 0.06392 0.0
C405 C 0.14668 0.34631 0.09105 0.0
C406 C 0.17101 0.3718 0.10485 0.0
C407 C 0.19015 0.40044 0.09158 0.0
H408 H 0.13187 0.32417 0.10136 0.0
H409 H 0.31616 0.60794 0.9807 0.0
H410 H 0.56585 0.88612 0.05557 0.0
H411 H 0.58478 0.84818 0.05533 0.0
H412 H 0.49564 0.77716 1.02196 0.0
H413 H 0.47604 0.81462 1.02314 0.0
H414 H 0.51399 0.7513 0.05937 0.0
H415 H 0.56339 0.81798 0.98328 0.0
H416 H 0.59535 0.86828 0.95901 0.0
H417 H 0.67654 0.88786 1.00695 0.0
H418 H 0.64492 0.83785 1.03176 0.0
H419 H 0.551 0.64323 1.00526 0.0
H420 H 0.54321 0.68892 1.00614 0.0
H421 H 0.62558 0.73875 0.05663 0.0
H422 H 0.63343 0.69238 0.05592 0.0
H423 H 0.61442 0.77708 1.01381 0.0
H424 H 0.56314 0.7068 0.08834 0.0
H425 H 0.53037 0.65393 0.10845 0.0
H426 H 0.45131 0.63933 0.05974 0.0
H427 H 0.48377 0.69199 0.03904 0.0
C428 C 0.55002 0.86231 0.04853 0.0
C429 C 0.5193 0.85354 0.03941 0.0
C430 C 0.56108 0.84069 0.04809 0.0
C431 C 0.54186 0.80982 0.03829 0.0
C432 C 0.51104 0.80083 1.02955 0.0
C433 C 0.49992 0.82241 1.03003 0.0
C434 C 0.55379 0.78687 1.03715 0.0
C435 C 0.53587 0.757 0.04927 0.0
C436 C 0.58266 0.79426 1.0244 0.0
C437 C 0.60169 0.82437 1.00959 0.0
C438 C 0.58798 0.83316 0.98881 0.0
C439 C 0.60605 0.86158 0.97492 0.0
C440 C 0.63793 0.8813 0.98149 0.0
C441 C 0.65183 0.87259 1.00192 0.0
C442 C 0.63385 0.84421 1.01589 0.0
C443 C 0.56807 0.66427 1.01591 0.0
C444 C 0.59286 0.6643 1.03048 0.0
C445 C 0.56348 0.69031 1.01649 0.0
C446 C 0.5835 0.71704 1.03175 0.0
C447 C 0.60985 0.71829 0.04472 0.0
C448 C 0.61449 0.69196 0.04415 0.0
C449 C 0.57458 0.74181 1.03594 0.0
C450 C 0.59287 0.77179 1.02429 0.0
C451 C 0.54591 0.73449 0.0489 0.0
C452 C 0.52596 0.70328 0.06201 0.0
C453 C 0.53881 0.69227 0.08182 0.0
C454 C 0.52029 0.66234 0.09333 0.0
C455 C 0.4888 0.64326 0.08533 0.0
C456 C 0.47571 0.65415 0.06591 0.0
C457 C 0.49414 0.68407 0.05432 0.0
H458 H 0.47452 0.62005 0.0942 0.0
H459 H 0.65189 0.90329 0.9707 0.0
H460 H 0.33357 0.94019 1.0186 0.0
H461 H 0.2866 0.88651 1.01928 0.0
H462 H 0.33463 0.85571 0.07401 0.0
H463 H 0.38089 0.90863 0.07361 0.0
H464 H 0.2872 0.83031 1.00369 0.0
H465 H 0.27906 0.80046 0.11703 0.0
H466 H 0.28709 0.82698 0.16066 0.0
H467 H 0.27018 0.89734 0.12443 0.0
H468 H 0.26126 0.87085 0.08071 0.0
H469 H 0.2132 0.66443 1.02751 0.0
H470 H 0.24969 0.72164 1.02815 0.0
H471 H 0.17579 0.73639 0.05968 0.0
H472 H 0.13915 0.67934 0.05895 0.0
H473 H 0.23042 0.77212 0.08566 0.0
H474 H 0.1972 0.75014 0.99314 0.0
H475 H 0.18904 0.72228 0.95016 0.0
H476 H 0.2888 0.75593 0.94494 0.0
H477 H 0.29749 0.78363 0.98808 0.0
C478 C 0.3336 0.92211 1.0313 0.0
C479 C 0.36074 0.9285 0.0461 0.0
C480 C 0.30699 0.89148 1.03151 0.0
C481 C 0.30712 0.86726 0.04693 0.0
C482 C 0.33382 0.87414 0.06238 0.0
C483 C 0.36027 0.90438 0.06201 0.0
C484 C 0.28058 0.83409 0.04583 0.0
C485 C 0.27448 0.81766 1.02154 0.0
C486 C 0.26433 0.81754 0.06923 0.0
C487 C 0.26963 0.8337 0.0955 0.0
C488 C 0.27679 0.82144 0.11839 0.0
C489 C 0.28141 0.83642 0.14317 0.0
C490 C 0.27902 0.86375 0.14534 0.0
C491 C 0.27201 0.87616 0.12273 0.0
C492 C 0.26717 0.86117 0.09793 0.0
C493 C 0.20462 0.67985 1.03438 0.0
C494 C 0.17317 0.66722 0.04312 0.0
C495 C 0.22553 0.71257 1.03477 0.0
C496 C 0.21537 0.73338 0.04365 0.0
C497 C 0.18417 0.72082 0.05274 0.0
C498 C 0.16328 0.68814 0.05241 0.0
C499 C 0.23722 0.76823 0.04357 0.0
C500 C 0.24273 0.78487 0.06772 0.0
C501 C 0.25307 0.78494 1.0201 0.0
C502 C 0.24795 0.76882 0.9939 0.0
C503 C 0.21737 0.75149 0.98288 0.0
C504 C 0.21265 0.73572 0.95849 0.0
C505 C 0.23837 0.7373 0.94485 0.0
C506 C 0.26889 0.75473 0.95553 0.0
C507 C 0.27373 0.7705 0.97992 0.0
H508 H 0.23467 0.72505 0.92598 0.0
H509 H 0.2828 0.87541 0.16451 0.0
H510 H 0.43569 0.20795 0.07419 0.0
H511 H 0.458 0.26525 0.0771 0.0
H512 H 0.53818 0.27969 1.03015 0.0
H513 H 0.51656 0.22233 1.02792 0.0
H514 H 0.55714 0.32196 0.07035 0.0
H515 H 0.47764 0.28644 1.00173 0.0
H516 H 0.42443 0.25347 0.98226 0.0
H517 H 0.38499 0.2876 0.04133 0.0
H518 H 0.43794 0.32048 0.06138 0.0
H519 H 0.60878 0.48496 0.03955 0.0
H520 H 0.59221 0.42849 0.03885 0.0
H521 H 0.5056 0.4069 0.07926 0.0
H522 H 0.52145 0.46292 0.07903 0.0
H523 H 0.49144 0.36815 0.04061 0.0
H524 H 0.57144 0.40328 0.10988 0.0
H525 H 0.62498 0.4365 0.12871 0.0
H526 H 0.66381 0.40361 0.06806 0.0
H527 H 0.61053 0.37046 0.04868 0.0
C528 C 0.45829 0.22323 0.06478 0.0
C529 C 0.47416 0.21031 0.0507 0.0
C530 C 0.4709 0.25609 0.06623 0.0
C531 C 0.4996 0.27694 0.0535 0.0
C532 C 0.51594 0.26419 0.04003 0.0
C533 C 0.50336 0.2313 0.03857 0.0
C534 C 0.51215 0.31191 0.05382 0.0
C535 C 0.5429 0.33211 0.06358 0.0
C536 C 0.49355 0.32528 0.04532 0.0
C537 C 0.46171 0.3057 1.0332 0.0
C538 C 0.45759 0.28675 1.01068 0.0
C539 C 0.42748 0.26811 0.99952 0.0
C540 C 0.40133 0.26839 1.01059 0.0
C541 C 0.40526 0.28739 1.03279 0.0
C542 C 0.43532 0.30606 0.04405 0.0
C543 C 0.58648 0.46821 0.04872 0.0
C544 C 0.56653 0.47855 0.05943 0.0
C545 C 0.57698 0.43583 0.04833 0.0
C546 C 0.54765 0.41314 0.05921 0.0
C547 C 0.52824 0.42369 0.07062 0.0
C548 C 0.53746 0.45587 0.07063 0.0
C549 C 0.53627 0.37836 0.05773 0.0
C550 C 0.50572 0.35812 0.04754 0.0
C551 C 0.55509 0.36504 0.06585 0.0
C552 C 0.58704 0.38461 0.07771 0.0
C553 C 0.59142 0.40326 0.10048 0.0
C554 C 0.62172 0.42206 0.11126 0.0
C555 C 0.64779 0.42222 0.09955 0.0
C556 C 0.6436 0.40349 0.07709 0.0
C557 C 0.61336 0.38466 0.06623 0.0
H558 H 0.67123 0.43681 0.1079 0.0
H559 H 0.37804 0.25393 1.00192 0.0
H560 H 0.53748 0.12727 0.05665 0.0
H561 H 0.59362 0.16846 0.05896 0.0
H562 H 0.62025 0.09995 1.03451 0.0
H563 H 0.56484 0.05885 1.03397 0.0
H564 H 0.65662 0.13162 0.07192 0.0
H565 H 0.62021 0.16208 0.99177 0.0
H566 H 0.58583 0.17788 0.96774 0.0
H567 H 0.61759 0.2586 1.01924 0.0
H568 H 0.65192 0.24308 0.04373 0.0
H569 H 0.81118 0.22162 1.02327 0.0
H570 H 0.75401 0.18829 1.02738 0.0
H571 H 0.74798 0.26667 0.06073 0.0
H572 H 0.80529 0.30078 0.05548 0.0
H573 H 0.7012 0.23485 1.02474 0.0
H574 H 0.74226 0.20684 0.10115 0.0
H575 H 0.77658 0.19065 0.12472 0.0
H576 H 0.7358 0.10441 0.07936 0.0
H577 H 0.70151 0.12025 0.05527 0.0
C578 C 0.55547 0.12124 0.05174 0.0
C579 C 0.54694 0.08995 0.04529 0.0
C580 C 0.58752 0.14476 0.05291 0.0
C581 C 0.61138 0.13751 0.04667 0.0
C582 C 0.60252 0.10626 0.03967 0.0
C583 C 0.57077 0.08275 0.03927 0.0
C584 C 0.64569 0.16178 0.04774 0.0
C585 C 0.66629 0.15403 0.06133 0.0
C586 C 0.65847 0.19164 1.03485 0.0
C587 C 0.63839 0.20128 1.01971 0.0
C588 C 0.61976 0.18314 0.99801 0.0
C589 C 0.60029 0.19205 0.98431 0.0
C590 C 0.59947 0.21919 0.99201 0.0
C591 C 0.61823 0.23757 1.01332 0.0
C592 C 0.63772 0.22876 1.02709 0.0
C593 C 0.79776 0.23196 1.03125 0.0
C594 C 0.81295 0.26395 0.03904 0.0
C595 C 0.76504 0.21273 1.03386 0.0
C596 C 0.74671 0.22483 0.04473 0.0
C597 C 0.76166 0.25678 0.05241 0.0
C598 C 0.79448 0.27615 0.04966 0.0
C599 C 0.71196 0.20394 0.04791 0.0
C600 C 0.69138 0.21246 1.03538 0.0
C601 C 0.69913 0.17461 0.06158 0.0
C602 C 0.71944 0.16483 0.07631 0.0
C603 C 0.74072 0.18449 0.09611 0.0
C604 C 0.76016 0.17537 0.10957 0.0
C605 C 0.7584 0.14654 0.10352 0.0
C606 C 0.73713 0.12673 0.08404 0.0
C607 C 0.71765 0.13574 0.0705 0.0
H608 H 0.77349 0.13954 0.11395 0.0
H609 H 0.58436 0.22606 0.98145 0.0
H610 H 0.90238 0.4151 1.02475 0.0
H611 H 0.86099 0.42979 1.02321 0.0
H612 H 0.9255 0.52028 0.05846 0.0
H613 H 0.96673 0.50586 0.06021 0.0
H614 H 0.86743 0.49504 0.08065 0.0
H615 H 0.91163 0.51306 0.99217 0.0
H616 H 0.92684 0.49868 0.94973 0.0
H617 H 0.82955 0.42991 0.93416 0.0
H618 H 0.81388 0.44327 0.97688 0.0
H619 H 0.80331 0.59194 0.04691 0.0
H620 H 0.83702 0.56818 0.04872 0.0
H621 H 0.76101 0.48103 1.01692 0.0
H622 H 0.7265 0.50435 1.01578 0.0
H623 H 0.82011 0.49913 0.9935 0.0
H624 H 0.77583 0.4838 0.0812 0.0
H625 H 0.76121 0.49963 0.12321 0.0
H626 H 0.85926 0.56486 0.13974 0.0
H627 H 0.87444 0.54976 0.0976 0.0
C628 C 0.90765 0.43799 1.03243 0.0
C629 C 0.93796 0.45932 0.0425 0.0
C630 C 0.88401 0.44643 1.03139 0.0
C631 C 0.89022 0.47629 0.04048 0.0
C632 C 0.92013 0.49714 0.05131 0.0
C633 C 0.94375 0.48885 0.0522 0.0
C634 C 0.86603 0.48637 1.03828 0.0
C635 C 0.85725 0.4961 0.06156 0.0
C636 C 0.85217 0.48714 1.01346 0.0
C637 C 0.86164 0.47886 0.98791 0.0
C638 C 0.89353 0.49457 0.97987 0.0
C639 C 0.90224 0.48662 0.95575 0.0
C640 C 0.87921 0.46328 0.93931 0.0
C641 C 0.84741 0.44786 0.94697 0.0
C642 C 0.83861 0.45557 0.97115 0.0
C643 C 0.79351 0.5676 0.0405 0.0
C644 C 0.7619 0.54996 1.03157 0.0
C645 C 0.81294 0.5541 0.04144 0.0
C646 C 0.80141 0.52267 1.03334 0.0
C647 C 0.77035 0.5053 1.02337 0.0
C648 C 0.75071 0.51875 1.02261 0.0
C649 C 0.82186 0.5081 1.03581 0.0
C650 C 0.82999 0.49764 1.01262 0.0
C651 C 0.83524 0.50675 0.06069 0.0
C652 C 0.82624 0.51583 0.08612 0.0
C653 C 0.79426 0.50171 0.09368 0.0
C654 C 0.78587 0.51051 0.11754 0.0
C655 C 0.80929 0.53328 0.1341 0.0
C656 C 0.84114 0.54724 0.12687 0.0
C657 C 0.84966 0.53854 0.10301 0.0
H658 H 0.80275 0.54007 0.15257 0.0
H659 H 0.88599 0.45725 0.92059 0.0
H660 H 0.78831 0.80404 0.40085 0.0
H661 H 0.84137 0.81238 0.39523 0.0
H662 H 0.80839 0.74406 0.33114 0.0
H663 H 0.75413 0.73477 0.33729 0.0
H664 H 0.85452 0.74185 0.36462 0.0
H665 H 0.8432 0.82055 0.31516 0.0
H666 H 0.82697 0.86082 0.30963 0.0
H667 H 0.89129 0.91677 0.37209 0.0
H668 H 0.90762 0.87663 0.37825 0.0
H669 H 0.01633 0.80159 0.32925 0.0
H670 H 0.96004 0.78479 0.32622 0.0
H671 H 0.97301 0.85559 0.38435 0.0
H672 H 0.0295 0.87365 0.38638 0.0
H673 H 0.93514 0.85399 0.34676 0.0
H674 H 0.94185 0.77489 0.40054 0.0
H675 H 0.95648 0.73409 0.41019 0.0
H676 H 0.90055 0.67923 0.3433 0.0
H677 H 0.88591 0.71993 0.33307 0.0
C678 C 0.79208 0.79029 0.38582 0.0
C679 C 0.76712 0.76896 0.3693 0.0
C680 C 0.82253 0.79523 0.38256 0.0
C681 C 0.82902 0.77953 0.36229 0.0
C682 C 0.80387 0.75666 0.34674 0.0
C683 C 0.77296 0.75131 0.35029 0.0
C684 C 0.86247 0.78875 0.35685 0.0
C685 C 0.87211 0.76619 0.3601 0.0
C686 C 0.88547 0.82072 0.35156 0.0
C687 C 0.87654 0.84549 0.34723 0.0
C688 C 0.85384 0.84141 0.32776 0.0
C689 C 0.84461 0.86421 0.32452 0.0
C690 C 0.85805 0.89132 0.34053 0.0
C691 C 0.8809 0.89577 0.3597 0.0
C692 C 0.89021 0.87303 0.36303 0.0
C693 C 1.00737 0.81402 0.34101 0.0
C694 C 0.02757 0.83894 0.35817 0.0
C695 C 0.97502 0.80407 0.33953 0.0
C696 C 0.96208 0.81852 0.35541 0.0
C697 C 0.98233 0.84392 0.37198 0.0
C698 C 1.01466 0.85405 0.37331 0.0
C699 C 0.92749 0.80723 0.35511 0.0
C700 C 0.9176 0.82948 0.35077 0.0
C701 C 0.90436 0.77508 0.35968 0.0
C702 C 0.91312 0.75062 0.36584 0.0
C703 C 0.93289 0.75424 0.38776 0.0
C704 C 0.94114 0.73112 0.39336 0.0
C705 C 0.92954 0.70414 0.37731 0.0
C706 C 0.90958 0.70017 0.35568 0.0
C707 C 0.90128 0.72325 0.34998 0.0
H708 H 0.93596 0.68626 0.38168 0.0
H709 H 0.85079 0.90888 0.33807 0.0
H710 H 0.15508 0.1544 0.33375 0.0
H711 H 0.17459 0.11718 0.33416 0.0
H712 H 0.23157 0.16324 0.40384 0.0
H713 H 0.21413 0.20233 0.40226 0.0
H714 H 0.26454 0.14915 0.37341 0.0
H715 H 0.15944 0.08902 0.40615 0.0
H716 H 0.10156 0.06666 0.40721 0.0
H717 H 0.09217 0.0179 0.33333 0.0
H718 H 0.15007 0.04032 0.33163 0.0
H719 H 0.28605 0.01473 0.40209 0.0
H720 H 0.27453 0.05855 0.40282 0.0
H721 H 0.22581 0.02728 0.32715 0.0
H722 H 0.23684 0.98342 0.32671 0.0
H723 H 0.18953 0.03399 0.36408 0.0
H724 H 0.29806 0.09745 0.33325 0.0
H725 H 0.35546 0.11745 0.33703 0.0
H726 H 0.35707 0.1574 0.41392 0.0
H727 H 0.2996 0.13736 0.41068 0.0
C728 C 0.17205 0.15701 0.34904 0.0
C729 C 0.18289 0.18164 0.36798 0.0
C730 C 0.18288 0.13525 0.34949 0.0
C731 C 0.20419 0.13681 0.36935 0.0
C732 C 0.21503 0.16128 0.38835 0.0
C733 C 0.20461 0.18344 0.38764 0.0
C734 C 0.21533 0.11317 0.36998 0.0
C735 C 0.248 0.12396 0.37173 0.0
C736 C 0.19402 0.08014 0.36774 0.0
C737 C 0.15915 0.06658 0.36865 0.0
C738 C 0.14506 0.07371 0.39003 0.0
C739 C 0.11224 0.061 0.39076 0.0
C740 C 0.09321 0.04093 0.37032 0.0
C741 C 0.10695 0.03348 0.34914 0.0
C742 C 0.13977 0.04615 0.34829 0.0
C743 C 0.27423 0.01825 0.38509 0.0
C744 C 0.26318 0.99641 0.36393 0.0
C745 C 0.26735 0.04303 0.38563 0.0
C746 C 0.2494 0.04635 0.36499 0.0
C747 C 0.2397 0.0253 0.34328 0.0
C748 C 0.24641 1.00054 0.34282 0.0
C749 C 0.23861 0.07009 0.3668 0.0
C750 C 0.20596 0.05923 0.36571 0.0
C751 C 0.25986 0.10287 0.37025 0.0
C752 C 0.29454 0.11577 0.37179 0.0
C753 C 0.31066 0.11044 0.35098 0.0
C754 C 0.3432 0.12179 0.35303 0.0
C755 C 0.3599 0.13867 0.37572 0.0
C756 C 0.34412 0.14437 0.39634 0.0
C757 C 0.31158 0.13307 0.39439 0.0
H758 H 0.38508 0.14737 0.3773 0.0
H759 H 0.0678 0.0311 0.37093 0.0
H760 H 0.05033 0.23884 0.40495 0.0
H761 H 1.00462 0.18566 0.40371 0.0
H762 H 0.95481 0.21885 0.3535 0.0
H763 H 1.00116 0.27294 0.35474 0.0
H764 H 0.91682 0.16928 0.39629 0.0
H765 H 0.98731 0.18845 0.32162 0.0
H766 H 0.04029 0.20808 0.30211 0.0
H767 H 0.05366 0.14265 0.35072 0.0
H768 H 1.00091 0.12295 0.37082 0.0
H769 H 0.80661 0.01222 0.35575 0.0
H770 H 0.84452 0.06888 0.35567 0.0
H771 H 0.91733 0.05039 0.38471 0.0
H772 H 0.87997 0.99349 0.38337 0.0
H773 H 0.94197 0.09479 0.34949 0.0
H774 H 0.87654 0.07725 0.4261 0.0
H775 H 0.82678 0.059 0.45097 0.0
H776 H 0.80634 0.12108 0.40439 0.0
H777 H 0.85582 0.1394 0.37899 0.0
C778 C 0.02944 0.23507 0.39406 0.0
C779 C 0.02942 0.25995 0.37967 0.0
C780 C 1.00332 0.20462 0.39339 0.0
C781 C 0.97657 0.19819 0.37814 0.0
C782 C 0.97536 0.22337 0.3653 0.0
C783 C 1.00172 0.2542 0.36606 0.0
C784 C 0.95176 0.16464 0.37377 0.0
C785 C 0.92193 0.15304 0.38554 0.0
C786 C 0.95896 0.14333 0.36059 0.0
C787 C 0.99023 0.15436 0.34783 0.0
C788 C 1.0016 0.17834 0.32823 0.0
C789 C 0.03159 0.18948 0.31706 0.0
C790 C 0.05036 0.17666 0.32521 0.0
C791 C 0.0391 0.15256 0.34443 0.0
C792 C 1.00913 0.14136 0.35568 0.0
C793 C 0.83082 0.02005 0.36165 0.0
C794 C 0.84006 0.99802 0.36959 0.0
C795 C 0.85243 0.05265 0.362 0.0
C796 C 0.88376 0.06418 0.3707 0.0
C797 C 0.89328 0.04225 0.37807 0.0
C798 C 0.87175 1.00962 0.37751 0.0
C799 C 0.90665 0.09899 0.37209 0.0
C800 C 0.93637 0.11091 0.35986 0.0
C801 C 0.89947 0.12044 0.38526 0.0
C802 C 0.86968 0.1094 0.40043 0.0
C803 C 0.8613 0.0868 0.42101 0.0
C804 C 0.83318 0.07649 0.43522 0.0
C805 C 0.81336 0.08879 0.4292 0.0
C806 C 0.82168 0.11151 0.40899 0.0
C807 C 0.84976 0.12188 0.39469 0.0
H808 H 0.7916 0.08079 0.44024 0.0
H809 H 0.07361 0.18538 0.31661 0.0
H810 H 0.2808 0.81655 0.37757 0.0
H811 H 0.26477 0.76003 0.37797 0.0
H812 H 0.16947 0.73621 0.39822 0.0
H813 H 0.185 0.79203 0.39772 0.0
H814 H 0.23854 0.71183 0.41518 0.0
H815 H 0.11754 0.67111 0.36402 0.0
H816 H 0.09294 0.69222 0.33297 0.0
H817 H 0.18397 0.75574 0.29914 0.0
H818 H 0.20904 0.73472 0.32973 0.0
H819 H 0.136 0.54411 0.42673 0.0
H820 H 0.15839 0.60174 0.42731 0.0
H821 H 0.17667 0.60576 0.34258 0.0
H822 H 0.15402 0.54823 0.34179 0.0
H823 H 0.14989 0.64096 0.35518 0.0
H824 H 0.23683 0.6299 0.3866 0.0
H825 H 0.264 0.60962 0.41552 0.0
H826 H 0.24573 0.65047 0.48441 0.0
H827 H 0.21804 0.67062 0.45593 0.0
C828 C 0.25654 0.7993 0.38243 0.0
C829 C 0.23421 0.80898 0.38739 0.0
C830 C 0.24739 0.76698 0.38265 0.0
C831 C 0.21576 0.74379 0.38766 0.0
C832 C 0.19386 0.75354 0.3938 0.0
C833 C 0.2029 0.78564 0.39358 0.0
C834 C 0.20508 0.70935 0.38559 0.0
C835 C 0.21917 0.69634 0.40206 0.0
C836 C 0.18009 0.6891 0.36818 0.0
C837 C 0.16518 0.70151 0.34933 0.0
C838 C 0.13228 0.68947 0.34986 0.0
C839 C 0.11826 0.70144 0.33236 0.0
C840 C 0.13689 0.72537 0.31415 0.0
C841 C 0.16957 0.73728 0.31332 0.0
C842 C 0.1837 0.72537 0.33076 0.0
C843 C 0.14469 0.55726 0.4082 0.0
C844 C 0.14328 0.5415 0.38422 0.0
C845 C 0.15772 0.59025 0.4086 0.0
C846 C 0.1695 0.60821 0.38503 0.0
C847 C 0.16786 0.5925 0.36104 0.0
C848 C 0.15509 0.55959 0.36067 0.0
C849 C 0.18289 0.64325 0.38517 0.0
C850 C 0.16925 0.65639 0.36833 0.0
C851 C 0.20852 0.66361 0.40198 0.0
C852 C 0.22509 0.65149 0.41917 0.0
C853 C 0.23836 0.63432 0.40795 0.0
C854 C 0.25391 0.6229 0.42426 0.0
C855 C 0.25652 0.62868 0.4518 0.0
C856 C 0.24365 0.64597 0.46308 0.0
C857 C 0.22805 0.65742 0.44686 0.0
H858 H 0.26858 0.61983 0.46439 0.0
H859 H 0.126 0.73463 0.30064 0.0
H860 H 0.23604 0.39057 0.37478 0.0
H861 H 0.29097 0.4326 0.37534 0.0
H862 H 0.26137 0.50244 0.38096 0.0
H863 H 0.20564 0.46001 0.37922 0.0
H864 H 0.30975 0.52357 0.34876 0.0
H865 H 0.29119 0.48029 0.43665 0.0
H866 H 0.27284 0.43864 0.4713 0.0
H867 H 0.33827 0.41055 0.44298 0.0
H868 H 0.35672 0.45176 0.40792 0.0
H869 H 0.47185 0.63961 0.38129 0.0
H870 H 0.41423 0.60515 0.38311 0.0
H871 H 0.42492 0.52376 0.36852 0.0
H872 H 0.48221 0.55788 0.36628 0.0
H873 H 0.38499 0.51351 0.40981 0.0
H874 H 0.39982 0.55605 0.31935 0.0
H875 H 0.41811 0.59948 0.28635 0.0
H876 H 0.3595 0.63162 0.32277 0.0
H877 H 0.34118 0.5886 0.35621 0.0
C878 C 0.24106 0.41484 0.37624 0.0
C879 C 0.21638 0.4219 0.37732 0.0
C880 C 0.27263 0.43894 0.3767 0.0
C881 C 0.28053 0.47078 0.37897 0.0
C882 C 0.25595 0.47806 0.37946 0.0
C883 C 0.22412 0.45382 0.37853 0.0
C884 C 0.3145 0.49609 0.38054 0.0
C885 C 0.32606 0.52165 0.36248 0.0
C886 C 0.33604 0.4937 0.39832 0.0
C887 C 0.32521 0.46902 0.41954 0.0
C888 C 0.30155 0.46512 0.43771 0.0
C889 C 0.29114 0.4416 0.45744 0.0
C890 C 0.30435 0.42193 0.45931 0.0
C891 C 0.32806 0.4258 0.4415 0.0
C892 C 0.33854 0.44927 0.42173 0.0
C893 C 0.46193 0.61443 0.37814 0.0
C894 C 0.48182 0.60158 0.37378 0.0
C895 C 0.42895 0.59473 0.37925 0.0
C896 C 0.41518 0.56182 0.3759 0.0
C897 C 0.43495 0.54903 0.37135 0.0
C898 C 0.4678 0.56862 0.37018 0.0
C899 C 0.38027 0.54034 0.37754 0.0
C900 C 0.36856 0.51555 0.39631 0.0
C901 C 0.35864 0.54375 0.36072 0.0
C902 C 0.3694 0.56933 0.34043 0.0
C903 C 0.39101 0.57251 0.32043 0.0
C904 C 0.40135 0.59703 0.30163 0.0
C905 C 0.39005 0.61835 0.30251 0.0
C906 C 0.36828 0.61512 0.32213 0.0
C907 C 0.35789 0.59067 0.341 0.0
H908 H 0.3981 0.63732 0.28795 0.0
H909 H 0.29625 0.40373 0.47459 0.0
H910 H 0.38865 0.82978 0.35962 0.0
H911 H 0.42185 0.80532 0.36079 0.0
H912 H 0.50538 0.89786 0.36471 0.0
H913 H 0.47273 0.92244 0.36102 0.0
H914 H 0.51829 0.86452 0.33505 0.0
H915 H 0.46847 0.84509 0.42187 0.0
H916 H 0.42349 0.82483 0.45321 0.0
H917 H 0.38902 0.73037 0.42395 0.0
H918 H 0.43363 0.75015 0.39225 0.0
H919 H 0.62953 0.8351 0.39876 0.0
H920 H 0.58779 0.84818 0.39249 0.0
H921 H 0.52457 0.75354 0.36425 0.0
H922 H 0.56668 0.74011 0.37014 0.0
H923 H 0.49785 0.78148 0.40266 0.0
H924 H 0.55329 0.80319 0.31871 0.0
H925 H 0.60115 0.82568 0.29059 0.0
H926 H 0.62782 0.91916 0.31816 0.0
H927 H 0.58033 0.89715 0.34676 0.0
C928 C 0.4141 0.84502 0.36015 0.0
C929 C 0.42781 0.87824 0.36052 0.0
C930 C 0.43311 0.83091 0.3613 0.0
C931 C 0.46622 0.84962 0.36353 0.0
C932 C 0.47994 0.88274 0.3632 0.0
C933 C 0.46107 0.89683 0.36146 0.0
C934 C 0.48686 0.83513 0.36635 0.0
C935 C 0.51378 0.84652 0.34999 0.0
C936 C 0.48087 0.81104 0.38539 0.0
C937 C 0.45415 0.79914 0.40449 0.0
C938 C 0.45117 0.82003 0.42201 0.0
C939 C 0.42577 0.80863 0.43985 0.0
C940 C 0.40336 0.77635 0.44051 0.0
C941 C 0.40636 0.75538 0.42339 0.0
C942 C 0.4317 0.76666 0.4055 0.0
C943 C 0.60669 0.81679 0.39154 0.0
C944 C 0.60154 0.7865 0.38487 0.0
C945 C 0.58286 0.82441 0.3879 0.0
C946 C 0.55323 0.80194 0.3777 0.0
C947 C 0.54736 0.77122 0.37212 0.0
C948 C 0.57142 0.7636 0.37549 0.0
C949 C 0.52925 0.81145 0.3718 0.0
C950 C 0.50189 0.79918 0.38754 0.0
C951 C 0.53505 0.8351 0.35254 0.0
C952 C 0.56336 0.84848 0.33502 0.0
C953 C 0.56947 0.82851 0.31891 0.0
C954 C 0.59651 0.84118 0.30287 0.0
C955 C 0.61754 0.87383 0.30263 0.0
C956 C 0.61151 0.89388 0.31837 0.0
C957 C 0.58451 0.88132 0.33448 0.0
H958 H 0.63848 0.88359 0.29021 0.0
H959 H 0.3837 0.76757 0.45432 0.0
H960 H 0.6938 0.19861 0.66945 0.0
H961 H 0.63758 0.18144 0.67205 0.0
H962 H 0.62953 0.12803 0.74365 0.0
H963 H 0.68556 0.14376 0.74037 0.0
H964 H 0.58118 0.09393 0.71168 0.0
H965 H 0.62971 0.19961 0.74558 0.0
H966 H 0.6665 0.25728 0.74576 0.0
H967 H 0.62406 0.26711 0.67342 0.0
H968 H 0.5873 0.20941 0.67258 0.0
H969 H 0.42496 0.07191 0.73889 0.0
H970 H 0.48011 0.083 0.74117 0.0
H971 H 0.50122 0.13791 0.66834 0.0
H972 H 0.44674 0.12733 0.66643 0.0
H973 H 0.54283 0.17094 0.70606 0.0
H974 H 0.49685 0.06472 0.6708 0.0
H975 H 0.45957 1.00714 0.67113 0.0
H976 H 0.49686 0.99885 0.74697 0.0
H977 H 0.53408 0.05649 0.74726 0.0
C978 C 0.68012 0.18308 0.6857 0.0
C979 C 0.69437 0.17262 0.7047 0.0
C980 C 0.64796 0.17354 0.68734 0.0
C981 C 0.6293 0.15375 0.70827 0.0
C982 C 0.64343 0.1434 0.72738 0.0
C983 C 0.6756 0.15275 0.72565 0.0
C984 C 0.59496 0.14341 0.70976 0.0
C985 C 0.57282 0.11082 0.7109 0.0
C986 C 0.58392 0.16534 0.7084 0.0
C987 C 0.60589 0.20012 0.70892 0.0
C988 C 0.62835 0.21403 0.72961 0.0
C989 C 0.64919 0.24673 0.72984 0.0
C990 C 0.64766 0.26584 0.70959 0.0
C991 C 0.62523 0.25228 0.68909 0.0
C992 C 0.60437 0.21957 0.68874 0.0
C993 C 0.4412 0.08529 0.72292 0.0
C994 C 0.43166 0.09826 0.70219 0.0
C995 C 0.47272 0.0919 0.72433 0.0
C996 C 0.49489 0.11139 0.70493 0.0
C997 C 0.4847 0.12298 0.68359 0.0
C998 C 0.45349 0.1166 0.68232 0.0
C999 C 0.5291 0.12148 0.70731 0.0
C1000 C 0.55122 0.15407 0.70702 0.0
C1001 C 0.54007 0.09959 0.7095 0.0
C1002 C 0.51802 0.06492 0.70917 0.0
C1003 C 0.49695 0.05064 0.68763 0.0
C1004 C 0.47585 0.018 0.68769 0.0
C1005 C 0.47579 0.99936 0.70909 0.0
C1006 C 0.49691 0.01332 0.73042 0.0
C1007 C 0.51802 0.04597 0.73048 0.0
H1008 H 0.45943 0.97409 0.7091 0.0
H1009 H 0.6638 0.29115 0.70981 0.0
H1010 H 0.97001 0.35959 0.68941 0.0
H1011 H 0.96488 0.40767 0.68813 0.0
H1012 H 0.86934 0.35332 0.7176 0.0
H1013 H 0.87401 0.30649 0.71911 0.0
H1014 H 0.87157 0.3869 0.67406 0.0
H1015 H 0.9268 0.40256 0.75791 0.0
H1016 H 0.97101 0.40941 0.78675 0.0
H1017 H 0.03499 0.4931 0.74287 0.0
H1018 H 0.99116 0.48645 0.71348 0.0
H1019 H 0.82053 0.49099 0.71933 0.0
H1020 H 0.83777 0.45164 0.71799 0.0
H1021 H 0.9293 0.52275 0.68903 0.0
H1022 H 0.91256 0.56246 0.69103 0.0
H1023 H 0.93474 0.4848 0.72702 0.0
H1024 H 0.87496 0.46982 0.64582 0.0
H1025 H 0.82853 0.4612 0.61921 0.0
H1026 H 0.77046 0.37372 0.66088 0.0
H1027 H 0.81648 0.38202 0.68797 0.0
C1028 C 0.9481 0.3581 0.69578 0.0
C1029 C 0.9224 0.32892 0.704 0.0
C1030 C 0.94514 0.38552 0.69502 0.0
C1031 C 0.91649 0.38397 0.70246 0.0
C1032 C 0.89146 0.35511 0.71136 0.0
C1033 C 0.89434 0.32817 0.71219 0.0
C1034 C 0.91133 0.41162 0.70077 0.0
C1035 C 0.88543 0.40831 0.68566 0.0
C1036 C 0.92951 0.43971 0.71563 0.0
C1037 C 0.95583 0.44378 0.73328 0.0
C1038 C 0.95036 0.42225 0.75424 0.0
C1039 C 0.97532 0.42613 0.77073 0.0
C1040 C 1.00582 0.45162 0.76659 0.0
C1041 C 1.01137 0.47333 0.74601 0.0
C1042 C 0.98648 0.46952 0.72943 0.0
C1043 C 0.84443 0.49837 0.71291 0.0
C1044 C 0.86501 0.5299 0.70505 0.0
C1045 C 0.8542 0.47577 0.71196 0.0
C1046 C 0.88474 0.48411 0.70306 0.0
C1047 C 0.9056 0.51569 0.69584 0.0
C1048 C 0.89583 0.53829 0.69673 0.0
C1049 C 0.89457 0.4597 0.70074 0.0
C1050 C 0.92125 0.46363 0.71506 0.0
C1051 C 0.87679 0.43184 0.68546 0.0
C1052 C 0.84913 0.42667 0.66904 0.0
C1053 C 0.85225 0.44885 0.64942 0.0
C1054 C 0.82601 0.444 0.63423 0.0
C1055 C 0.79655 0.41696 0.63838 0.0
C1056 C 0.79329 0.39466 0.65769 0.0
C1057 C 0.81945 0.39941 0.67294 0.0
H1058 H 0.77627 0.41326 0.62661 0.0
H1059 H 0.02512 0.4546 0.77937 0.0
H1060 H 0.67712 0.60922 0.67937 0.0
H1061 H 0.63135 0.55517 0.67495 0.0
H1062 H 0.66902 0.52339 0.73875 0.0
H1063 H 0.71355 0.57657 0.74355 0.0
H1064 H 0.65739 0.48756 0.69683 0.0
H1065 H 0.60153 0.5298 0.74608 0.0
H1066 H 0.58123 0.56632 0.75425 0.0
H1067 H 0.52845 0.53705 0.68064 0.0
H1068 H 0.54896 0.50072 0.67188 0.0
H1069 H 0.53599 0.33433 0.73095 0.0
H1070 H 0.57444 0.39101 0.73128 0.0
H1071 H 0.52738 0.4049 0.66348 0.0
H1072 H 0.48827 0.34824 0.66347 0.0
H1073 H 0.54243 0.45024 0.70164 0.0
H1074 H 0.59541 0.40456 0.65465 0.0
H1075 H 0.61555 0.36768 0.6475 0.0
H1076 H 0.67382 0.40335 0.71782 0.0
H1077 H 0.65365 0.44013 0.72564 0.0
C1078 C 0.67486 0.5908 0.69295 0.0
C1079 C 0.69888 0.5969 0.71162 0.0
C1080 C 0.6489 0.55996 0.69035 0.0
C1081 C 0.64684 0.53516 0.70648 0.0
C1082 C 0.67005 0.54198 0.72605 0.0
C1083 C 0.69554 0.57246 0.72875 0.0
C1084 C 0.62218 0.50157 0.70219 0.0
C1085 C 0.63225 0.47942 0.69811 0.0
C1086 C 0.58938 0.491 0.703 0.0
C1087 C 0.57717 0.51292 0.70816 0.0
C1088 C 0.58592 0.53144 0.73151 0.0
C1089 C 0.5743 0.55204 0.73628 0.0
C1090 C 0.55365 0.55411 0.71792 0.0
C1091 C 0.54452 0.5355 0.6948 0.0
C1092 C 0.55615 0.5149 0.68994 0.0
C1093 C 0.5337 0.34948 0.71622 0.0
C1094 C 0.50914 0.33682 0.69715 0.0
C1095 C 0.55582 0.38182 0.7163 0.0
C1096 C 0.55393 0.40211 0.69723 0.0
C1097 C 0.5293 0.38962 0.67831 0.0
C1098 C 0.50718 0.35723 0.67818 0.0
C1099 C 0.57778 0.43634 0.69708 0.0
C1100 C 0.56758 0.45851 0.70017 0.0
C1101 C 0.61056 0.44701 0.6955 0.0
C1102 C 0.6228 0.42494 0.69084 0.0
C1103 C 0.61233 0.40438 0.66871 0.0
C1104 C 0.62378 0.38351 0.66452 0.0
C1105 C 0.6459 0.38313 0.68223 0.0
C1106 C 0.65666 0.40366 0.70414 0.0
C1107 C 0.64524 0.42454 0.70844 0.0
H1108 H 0.65475 0.36697 0.67894 0.0
H1109 H 0.54464 0.57005 0.72164 0.0
H1110 H 0.79441 0.88015 0.67558 0.0
H1111 H 0.81864 0.93778 0.67591 0.0
H1112 H 0.85367 0.94059 0.75598 0.0
H1113 H 0.82925 0.88286 0.75584 0.0
H1114 H 0.83098 0.97898 0.75317 0.0
H1115 H 0.9034 0.96395 0.70037 0.0
H1116 H 0.92065 0.94154 0.66436 0.0
H1117 H 0.88522 0.98044 0.60521 0.0
H1118 H 0.86737 1.00276 0.64089 0.0
H1119 H 0.93302 0.14996 0.74467 0.0
H1120 H 0.91828 0.09363 0.74744 0.0
H1121 H 0.85692 0.07313 0.6789 0.0
H1122 H 0.87073 0.12862 0.6765 0.0
H1123 H 0.89851 0.04533 0.6784 0.0
H1124 H 0.82234 0.05605 0.73343 0.0
H1125 H 0.80694 0.07891 0.77043 0.0
H1126 H 0.85355 0.04882 0.82684 0.0
H1127 H 0.86962 0.02616 0.79007 0.0
C1128 C 0.80755 0.89303 0.69316 0.0
C1129 C 0.80993 0.8768 0.71565 0.0
C1130 C 0.82145 0.92605 0.69333 0.0
C1131 C 0.83845 0.94373 0.71583 0.0
C1132 C 0.84071 0.92758 0.73837 0.0
C1133 C 0.82665 0.89452 0.73828 0.0
C1134 C 0.8533 0.97895 0.71599 0.0
C1135 C 0.84623 0.99346 0.73704 0.0
C1136 C 0.87304 0.99807 0.69489 0.0
C1137 C 0.8838 0.98479 0.67332 0.0
C1138 C 0.89908 0.96753 0.67968 0.0
C1139 C 0.909 0.95488 0.65933 0.0
C1140 C 0.90396 0.95949 0.63252 0.0
C1141 C 0.88907 0.97686 0.62599 0.0
C1142 C 0.87908 0.98955 0.64627 0.0
C1143 C 0.91665 0.13341 0.73012 0.0
C1144 C 0.90292 0.1436 0.71048 0.0
C1145 C 0.90817 0.10132 0.73174 0.0
C1146 C 0.88647 0.07927 0.71336 0.0
C1147 C 0.87371 0.08974 0.69323 0.0
C1148 C 0.88156 0.12144 0.69198 0.0
C1149 C 0.8759 0.045 0.71537 0.0
C1150 C 0.88367 0.03073 0.69467 0.0
C1151 C 0.85717 0.02619 0.73693 0.0
C1152 C 0.84755 0.03981 0.75899 0.0
C1153 C 0.8296 0.05462 0.75369 0.0
C1154 C 0.82067 0.06746 0.77462 0.0
C1155 C 0.82936 0.06542 0.80096 0.0
C1156 C 0.84691 0.05045 0.80642 0.0
C1157 C 0.85592 0.0376 0.78555 0.0
H1158 H 0.82241 0.07536 0.81714 0.0
H1159 H 0.91166 0.94967 0.61679 0.0
H1160 H 0.90153 0.73168 0.70325 0.0
H1161 H 0.95692 0.77287 0.70349 0.0
H1162 H 0.93183 0.83783 0.73942 0.0
H1163 H 0.8755 0.79672 0.7375 0.0
H1164 H 0.97713 0.86884 0.70578 0.0
H1165 H 0.96423 0.79762 0.77694 0.0
H1166 H 0.94718 0.74585 0.79835 0.0
H1167 H 1.00717 0.72995 0.74557 0.0
H1168 H 0.02428 0.78145 0.72362 0.0
H1169 H 0.14216 0.97062 0.73813 0.0
H1170 H 0.0847 0.93626 0.7416 0.0
H1171 H 0.09076 0.86358 0.69734 0.0
H1172 H 0.14797 0.89773 0.69366 0.0
H1173 H 0.05471 0.83986 0.74122 0.0
H1174 H 0.06414 0.91106 0.66846 0.0
H1175 H 0.08168 0.96395 0.64908 0.0
H1176 H 0.02908 0.98145 0.7087 0.0
H1177 H 1.01148 0.92878 0.7286 0.0
C1178 C 0.90779 0.75476 0.71121 0.0
C1179 C 0.88438 0.76095 0.7208 0.0
C1180 C 0.93953 0.77827 0.71149 0.0
C1181 C 0.94881 0.80819 0.72239 0.0
C1182 C 0.92532 0.81481 0.73122 0.0
C1183 C 0.89322 0.79138 0.7302 0.0
C1184 C 0.98308 0.83213 0.72452 0.0
C1185 C 0.99401 0.86265 0.71398 0.0
C1186 C 1.0053 0.82417 0.73512 0.0
C1187 C 0.9954 0.79335 0.74855 0.0
C1188 C 0.97368 0.78303 0.76983 0.0
C1189 C 0.96401 0.75373 0.78206 0.0
C1190 C 0.97605 0.73461 0.7733 0.0
C1191 C 0.99786 0.74479 0.75234 0.0
C1192 C 1.0076 0.77406 0.74003 0.0
C1193 C 0.1312 0.94739 0.72899 0.0
C1194 C 0.14966 0.93681 0.71578 0.0
C1195 C 0.09837 0.9278 0.73099 0.0
C1196 C 0.08342 0.89741 0.71961 0.0
C1197 C 0.10181 0.88688 0.70639 0.0
C1198 C 0.13455 0.90637 0.70443 0.0
C1199 C 0.0487 0.87606 0.72177 0.0
C1200 C 0.03773 0.84607 0.73328 0.0
C1201 C 0.02656 0.88471 0.71242 0.0
C1202 C 0.03669 0.91609 0.70012 0.0
C1203 C 0.05641 0.92624 0.67749 0.0
C1204 C 0.06631 0.95615 0.66639 0.0
C1205 C 0.05644 0.97601 0.67762 0.0
C1206 C 0.03663 0.966 0.69998 0.0
C1207 C 0.02666 0.93612 0.71116 0.0
H1208 H 0.06423 0.9992 0.66907 0.0
H1209 H 0.9685 0.71192 0.78278 0.0
H1210 H 0.24391 0.09292 0.73908 0.0
H1211 H 0.20163 0.10653 0.73848 0.0
H1212 H 0.25085 0.17509 0.67583 0.0
H1213 H 0.29392 0.16342 0.67822 0.0
H1214 H 0.23228 0.20078 0.70684 0.0
H1215 H 0.17825 0.09528 0.66911 0.0
H1216 H 0.15894 0.03781 0.66918 0.0
H1217 H 0.10324 0.02627 0.73909 0.0
H1218 H 0.12266 0.08377 0.73976 0.0
H1219 H 0.11094 0.22931 0.66249 0.0
H1220 H 0.14601 0.20669 0.66347 0.0
H1221 H 0.10574 0.16115 0.73884 0.0
H1222 H 0.07032 0.18334 0.73783 0.0
H1223 H 0.11744 0.12248 0.70388 0.0
H1224 H 0.17258 0.22875 0.74009 0.0
H1225 H 0.19228 0.28626 0.7389 0.0
H1226 H 0.24563 0.29515 0.66799 0.0
H1227 H 0.2259 0.2376 0.66857 0.0
C1228 C 0.2455 0.11088 0.72527 0.0
C1229 C 0.2722 0.12733 0.70887 0.0
C1230 C 0.2212 0.11849 0.7247 0.0
C1231 C 0.22257 0.14167 0.70683 0.0
C1232 C 0.24907 0.15736 0.69001 0.0
C1233 C 0.27372 0.15062 0.6913 0.0
C1234 C 0.19749 0.15094 0.70607 0.0
C1235 C 0.20724 0.18344 0.7057 0.0
C1236 C 0.16454 0.12861 0.70547 0.0
C1237 C 0.15224 0.09392 0.70467 0.0
C1238 C 0.16202 0.08052 0.68459 0.0
C1239 C 0.15108 0.04795 0.68451 0.0
C1240 C 0.13006 0.02846 0.70424 0.0
C1241 C 0.11967 0.04144 0.72392 0.0
C1242 C 0.13063 0.07402 0.72416 0.0
C1243 C 0.10914 0.21401 0.67902 0.0
C1244 C 0.08802 0.20837 0.70019 0.0
C1245 C 0.1293 0.20122 0.67963 0.0
C1246 C 0.12871 0.18246 0.70137 0.0
C1247 C 0.10664 0.17557 0.7219 0.0
C1248 C 0.08663 0.18851 0.72139 0.0
C1249 C 0.15262 0.17201 0.70364 0.0
C1250 C 0.14259 0.1395 0.70467 0.0
C1251 C 0.18539 0.1942 0.7044 0.0
C1252 C 0.19755 0.22885 0.70425 0.0
C1253 C 0.18835 0.24294 0.72416 0.0
C1254 C 0.19954 0.27555 0.7236 0.0
C1255 C 0.22013 0.29433 0.70335 0.0
C1256 C 0.22965 0.28057 0.68365 0.0
C1257 C 0.2185 0.24797 0.6841 0.0
H1258 H 0.22876 0.31957 0.70295 0.0
H1259 H 0.12175 1.00328 0.70422 0.0
H1260 H 0.07307 0.35367 0.31254 0.0
H1261 H 0.05873 0.3731 0.27284 0.0
H1262 H 0.15223 0.40741 0.24064 0.0
H1263 H 0.16701 0.38817 0.28095 0.0
H1264 H 0.12875 0.44985 0.23172 0.0
H1265 H 0.0947 0.34035 0.21732 0.0
H1266 H 0.06843 0.28358 0.22893 0.0
H1267 H 0.9792 0.28079 0.23522 0.0
H1268 H 1.00503 0.33769 0.22402 0.0
H1269 H 0.07216 0.45889 0.09796 0.0
H1270 H 0.09865 0.45438 0.13834 0.0
H1271 H 1.00809 0.40242 0.17761 0.0
H1272 H 0.98178 0.40541 0.13695 0.0
H1273 H 0.03593 0.36972 0.18051 0.0
H1274 H 0.07023 0.47993 0.1967 0.0
H1275 H 0.09664 0.53688 0.18571 0.0
H1276 H 0.18508 0.53871 0.17599 0.0
H1277 H 0.15908 0.48164 0.18657 0.0
C1278 C 0.09079 0.36564 0.29719 0.0
C1279 C 0.12119 0.36931 0.29989 0.0
C1280 C 0.08248 0.37667 0.27441 0.0
C1281 C 0.10424 0.39147 0.25354 0.0
C1282 C 0.13502 0.39607 0.25645 0.0
C1283 C 0.14339 0.38493 0.2794 0.0
C1284 C 0.09387 0.40042 0.22836 0.0
C1285 C 0.10874 0.43231 0.22024 0.0
C1286 C 0.06755 0.37766 0.2135 0.0
C1287 C 0.05186 0.34335 0.22001 0.0
C1288 C 0.06952 0.32768 0.22135 0.0
C1289 C 0.0547 0.29547 0.22784 0.0
C1290 C 0.02218 0.2786 0.23286 0.0
C1291 C 1.00439 0.2939 0.23134 0.0
C1292 C 0.0191 0.32612 0.22489 0.0
C1293 C 0.05809 0.44749 0.11552 0.0
C1294 C 0.02486 0.43246 0.11427 0.0
C1295 C 0.07326 0.44481 0.13868 0.0
C1296 C 0.05543 0.42771 0.16117 0.0
C1297 C 0.02249 0.41537 0.16056 0.0
C1298 C 1.00743 0.41747 0.13738 0.0
C1299 C 0.06995 0.41949 0.1842 0.0
C1300 C 0.05597 0.38746 0.19184 0.0
C1301 C 0.09702 0.44218 0.1985 0.0
C1302 C 0.11263 0.47644 0.19212 0.0
C1303 C 0.09524 0.49241 0.19199 0.0
C1304 C 0.11015 0.52473 0.18588 0.0
C1305 C 0.1425 0.54138 0.18007 0.0
C1306 C 0.16002 0.52577 0.18044 0.0
C1307 C 0.14521 0.49345 0.18651 0.0
H1308 H 0.15399 0.5664 0.17535 0.0
H1309 H 1.01075 0.25367 0.23788 0.0
H1310 H 0.6536 0.79533 0.28323 0.0
H1311 H 0.63391 0.76456 0.24165 0.0
H1312 H 0.65125 0.69262 0.27516 0.0
H1313 H 0.67381 0.72466 0.31485 0.0
H1314 H 0.66795 0.69813 0.22879 0.0
H1315 H 0.57218 0.68919 0.26697 0.0
H1316 H 0.5393 0.7107 0.28412 0.0
H1317 H 0.54652 0.7561 0.20844 0.0
H1318 H 0.57973 0.73513 0.19095 0.0
H1319 H 0.58614 0.57136 0.14478 0.0
H1320 H 0.59159 0.60312 0.18436 0.0
H1321 H 0.59193 0.67541 0.13389 0.0
H1322 H 0.5854 0.64301 0.09431 0.0
H1323 H 0.56644 0.67333 0.1852 0.0
H1324 H 0.66045 0.6788 0.14754 0.0
H1325 H 0.69182 0.65525 0.13115 0.0
H1326 H 0.68595 0.61372 0.20849 0.0
H1327 H 0.65415 0.63665 0.22521 0.0
C1328 C 0.65324 0.77299 0.28154 0.0
C1329 C 0.6647 0.76217 0.3026 0.0
C1330 C 0.64161 0.75513 0.25786 0.0
C1331 C 0.64025 0.72561 0.25516 0.0
C1332 C 0.65182 0.71511 0.27637 0.0
C1333 C 0.66437 0.73334 0.29941 0.0
C1334 C 0.62795 0.70572 0.2303 0.0
C1335 C 0.64547 0.69248 0.2197 0.0
C1336 C 0.59913 0.69884 0.21742 0.0
C1337 C 0.57865 0.71085 0.22775 0.0
C1338 C 0.56683 0.70385 0.25403 0.0
C1339 C 0.54815 0.71595 0.26381 0.0
C1340 C 0.5409 0.73483 0.2474 0.0
C1341 C 0.55219 0.74151 0.22114 0.0
C1342 C 0.57091 0.72951 0.21128 0.0
C1343 C 0.58547 0.59314 0.14229 0.0
C1344 C 0.5847 0.6044 0.11655 0.0
C1345 C 0.58908 0.61156 0.16489 0.0
C1346 C 0.59299 0.64206 0.16211 0.0
C1347 C 0.58906 0.65203 0.13661 0.0
C1348 C 0.58499 0.63332 0.11397 0.0
C1349 C 0.60579 0.66489 0.18492 0.0
C1350 C 0.58872 0.67895 0.1947 0.0
C1351 C 0.63485 0.67228 0.19741 0.0
C1352 C 0.65477 0.65928 0.18756 0.0
C1353 C 0.66578 0.66457 0.16101 0.0
C1354 C 0.68362 0.65132 0.15167 0.0
C1355 C 0.69084 0.63297 0.16876 0.0
C1356 C 0.68034 0.62793 0.19527 0.0
C1357 C 0.66244 0.64107 0.2047 0.0
H1358 H 0.70461 0.62269 0.16148 0.0
H1359 H 0.52649 0.74422 0.25502 0.0
H1360 H 0.45969 0.97845 0.12988 0.0
H1361 H 0.42869 0.95795 0.17145 0.0
H1362 H 0.37521 1.00388 0.15049 0.0
H1363 H 0.40674 0.02519 0.11024 0.0
H1364 H 0.38783 0.01314 0.19993 0.0
H1365 H 0.34988 0.92039 0.14337 0.0
H1366 H 0.35433 0.87984 0.11757 0.0
H1367 H 0.38542 0.85208 0.18792 0.0
H1368 H 0.38159 0.89281 0.21421 0.0
H1369 H 0.25189 0.93787 0.28083 0.0
H1370 H 0.28821 0.95499 0.24276 0.0
H1371 H 0.33504 0.90744 0.27667 0.0
H1372 H 0.29755 0.88896 0.31414 0.0
H1373 H 0.33062 0.89924 0.22435 0.0
H1374 H 0.36696 0.9899 0.28118 0.0
H1375 H 0.36133 0.02922 0.30799 0.0
H1376 H 0.3336 0.06047 0.2376 0.0
H1377 H 0.33861 0.02101 0.21042 0.0
C1378 C 0.44153 0.98435 0.13446 0.0
C1379 C 0.43611 1.00396 0.1171 0.0
C1380 C 0.42358 0.97241 0.15809 0.0
C1381 C 0.39929 0.97916 0.16431 0.0
C1382 C 0.39388 0.99848 0.1466 0.0
C1383 C 0.41202 0.01074 0.12349 0.0
C1384 C 0.37931 0.96673 0.18906 0.0
C1385 C 0.37516 0.98814 0.20502 0.0
C1386 C 0.36338 0.93426 0.19657 0.0
C1387 C 0.36584 0.90994 0.18068 0.0
C1388 C 0.35804 0.90592 0.15329 0.0
C1389 C 0.36045 0.88289 0.13856 0.0
C1390 C 0.37031 0.86351 0.151 0.0
C1391 C 0.37782 0.86713 0.17827 0.0
C1392 C 0.37555 0.89019 0.1931 0.0
C1393 C 0.26983 0.93093 0.28011 0.0
C1394 C 0.27228 0.91259 0.30079 0.0
C1395 C 0.29079 0.94094 0.25839 0.0
C1396 C 0.31504 0.93324 0.25699 0.0
C1397 C 0.31684 0.91402 0.27726 0.0
C1398 C 0.2956 0.90372 0.29884 0.0
C1399 C 0.33859 0.94556 0.23457 0.0
C1400 C 0.34349 0.92423 0.21924 0.0
C1401 C 0.35533 0.97813 0.22761 0.0
C1402 C 0.35297 1.00236 0.2438 0.0
C1403 C 0.35954 1.00507 0.27144 0.0
C1404 C 0.35645 0.02738 0.2867 0.0
C1405 C 0.34706 0.04729 0.27452 0.0
C1406 C 0.34086 0.04502 0.24702 0.0
C1407 C 0.34386 0.02272 0.23166 0.0
H1408 H 0.34464 0.06451 0.28638 0.0
H1409 H 0.37201 0.84561 0.13954 0.0
H1410 H 0.50238 0.05759 0.95001 0.0
H1411 H 0.49015 0.0791 0.90976 0.0
H1412 H 0.39407 0.04116 0.93707 0.0
H1413 H 0.40597 0.01951 0.97668 0.0
H1414 H 0.39457 0.02743 0.88578 0.0
H1415 H 0.44953 0.12059 0.94092 0.0
H1416 H 0.49478 0.1606 0.96715 0.0
H1417 H 0.55354 0.1874 0.89723 0.0
H1418 H 0.50881 0.14711 0.87065 0.0
H1419 H 0.32842 0.09465 0.80711 0.0
H1420 H 0.35513 0.09081 0.84727 0.0
H1421 H 0.44093 0.12224 0.80216 0.0
H1422 H 0.41417 0.1267 0.76181 0.0
H1423 H 0.45098 0.14089 0.8594 0.0
H1424 H 0.39591 0.0484 0.80427 0.0
H1425 H 0.35041 1.00918 0.77782 0.0
H1426 H 0.29218 0.98095 0.84815 0.0
H1427 H 0.33722 0.02048 0.87494 0.0
C1428 C 0.47871 0.05395 0.94735 0.0
C1429 C 0.45518 0.0369 0.96655 0.0
C1430 C 0.47176 0.06637 0.92443 0.0
C1431 C 0.44115 0.06194 0.92032 0.0
C1432 C 0.41781 0.04493 0.93961 0.0
C1433 C 0.42472 0.03264 0.96237 0.0
C1434 C 0.43269 0.07398 0.89578 0.0
C1435 C 0.40686 0.0523 0.88023 0.0
C1436 C 0.4491 0.1063 0.88789 0.0
C1437 C 0.47591 0.13062 0.90384 0.0
C1438 C 0.47217 0.13483 0.93117 0.0
C1439 C 0.4977 0.15758 0.9461 0.0
C1440 C 0.52698 0.1765 0.93386 0.0
C1441 C 0.53083 0.1727 0.90668 0.0
C1442 C 0.5054 0.14991 0.89167 0.0
C1443 C 0.35347 0.10246 0.80607 0.0
C1444 C 0.36928 0.11145 0.78139 0.0
C1445 C 0.36867 0.0999 0.82901 0.0
C1446 C 0.39992 0.10569 0.82772 0.0
C1447 C 0.41685 0.11772 0.80372 0.0
C1448 C 0.40161 0.12057 0.78068 0.0
C1449 C 0.41251 0.09438 0.84999 0.0
C1450 C 0.43898 0.11603 0.86496 0.0
C1451 C 0.3968 0.06195 0.85744 0.0
C1452 C 0.36987 0.03758 0.84156 0.0
C1453 C 0.37335 0.03396 0.81407 0.0
C1454 C 0.34765 0.01168 0.79901 0.0
C1455 C 0.3184 0.99263 0.81128 0.0
C1456 C 0.31484 0.99575 0.83867 0.0
C1457 C 0.34046 0.01808 0.8538 0.0
H1458 H 0.29852 0.9754 0.79959 0.0
H1459 H 0.54667 0.19419 0.94541 0.0
H1460 H 0.98564 0.45559 0.94291 0.0
H1461 H 0.96322 0.42205 0.90301 0.0
H1462 H 0.98049 0.35125 0.93902 0.0
H1463 H 1.00431 0.3852 0.97771 0.0
H1464 H 0.99716 0.35637 0.8911 0.0
H1465 H 0.90329 0.34512 0.93268 0.0
H1466 H 0.86796 0.36277 0.95147 0.0
H1467 H 0.86719 0.40522 0.87609 0.0
H1468 H 0.90285 0.38812 0.85691 0.0
H1469 H 0.91619 0.23036 0.8054 0.0
H1470 H 0.92193 0.26063 0.84603 0.0
H1471 H 0.91703 0.33237 0.79872 0.0
H1472 H 0.9102 0.30146 0.75827 0.0
H1473 H 0.89336 0.32855 0.85044 0.0
H1474 H 0.98762 0.33777 0.80976 0.0
H1475 H 0.01989 0.31602 0.79172 0.0
H1476 H 0.01777 0.2742 0.86816 0.0
H1477 H 0.98508 0.29531 0.88653 0.0
C1478 C 0.98462 0.43287 0.94218 0.0
C1479 C 0.99653 0.42299 0.96358 0.0
C1480 C 0.97153 0.41352 0.91946 0.0
C1481 C 0.96965 0.38369 0.91791 0.0
C1482 C 0.98158 0.37402 0.93943 0.0
C1483 C 0.99508 0.39347 0.96174 0.0
C1484 C 0.95653 0.36278 0.89375 0.0
C1485 C 0.97424 0.35007 0.88258 0.0
C1486 C 0.92696 0.35488 0.88187 0.0
C1487 C 0.90593 0.36558 0.89343 0.0
C1488 C 0.8958 0.35845 0.92017 0.0
C1489 C 0.87568 0.3683 0.93088 0.0
C1490 C 0.86533 0.38506 0.91497 0.0
C1491 C 0.87521 0.39219 0.88836 0.0
C1492 C 0.89536 0.38241 0.87756 0.0
C1493 C 0.91432 0.25157 0.80387 0.0
C1494 C 0.91204 0.26312 0.77861 0.0
C1495 C 0.9182 0.26922 0.82708 0.0
C1496 C 0.92077 0.29926 0.82544 0.0
C1497 C 0.91519 0.30933 0.8006 0.0
C1498 C 0.91087 0.29138 0.77739 0.0
C1499 C 0.93366 0.32169 0.84856 0.0
C1500 C 0.91618 0.33489 0.85922 0.0
C1501 C 0.96332 0.32984 0.86029 0.0
C1502 C 0.98373 0.31792 0.84945 0.0
C1503 C 0.99396 0.32384 0.82269 0.0
C1504 C 1.01231 0.31162 0.8124 0.0
C1505 C 0.02084 0.2937 0.82877 0.0
C1506 C 1.01114 0.28807 0.8555 0.0
C1507 C 0.99272 0.30018 0.86586 0.0
H1508 H 0.035 0.28421 0.82076 0.0
H1509 H 0.84952 0.39238 0.92322 0.0
H1510 H 0.76264 0.61964 0.7854 0.0
H1511 H 0.7313 0.59685 0.82622 0.0
H1512 H 0.73874 0.68711 0.84385 0.0
H1513 H 0.77223 0.71024 0.80523 0.0
H1514 H 0.74008 0.66656 0.88692 0.0
H1515 H 0.66875 0.6121 0.81171 0.0
H1516 H 0.64777 0.57692 0.77238 0.0
H1517 H 0.64579 0.50081 0.81776 0.0
H1518 H 0.66709 0.5356 0.8572 0.0
H1519 H 0.59072 0.61158 0.95555 0.0
H1520 H 0.62836 0.62701 0.91822 0.0
H1521 H 0.65739 0.56143 0.9461 0.0
H1522 H 0.62048 0.54658 0.98388 0.0
H1523 H 0.63899 0.56454 0.88339 0.0
H1524 H 0.70828 0.62089 0.95897 0.0
H1525 H 0.72226 0.65534 0.99865 0.0
H1526 H 0.72221 0.72874 0.95064 0.0
H1527 H 0.70803 0.6946 0.91067 0.0
C1528 C 0.75816 0.63467 0.79846 0.0
C1529 C 0.77024 0.66683 0.79205 0.0
C1530 C 0.73966 0.6215 0.8216 0.0
C1531 C 0.73163 0.63985 0.83818 0.0
C1532 C 0.74439 0.67212 0.83186 0.0
C1533 C 0.76371 0.68546 0.8095 0.0
C1534 C 0.71003 0.62626 0.862 0.0
C1535 C 0.71792 0.64432 0.88572 0.0
C1536 C 0.68116 0.5968 0.86143 0.0
C1537 C 0.66979 0.57652 0.83729 0.0
C1538 C 0.66415 0.58796 0.81318 0.0
C1539 C 0.65213 0.56807 0.7909 0.0
C1540 C 0.6454 0.53664 0.79264 0.0
C1541 C 0.651 0.52514 0.81649 0.0
C1542 C 0.66305 0.54492 0.83877 0.0
C1543 C 0.60504 0.60038 0.95363 0.0
C1544 C 0.60273 0.57793 0.97261 0.0
C1545 C 0.62652 0.60922 0.93235 0.0
C1546 C 0.6456 0.59531 0.92938 0.0
C1547 C 0.64283 0.57237 0.94798 0.0
C1548 C 0.62183 0.56401 0.96957 0.0
C1549 C 0.66894 0.60539 0.90717 0.0
C1550 C 0.66134 0.58667 0.88411 0.0
C1551 C 0.69771 0.63441 0.90805 0.0
C1552 C 0.70683 0.65512 0.93192 0.0
C1553 C 0.71103 0.64429 0.95692 0.0
C1554 C 0.71902 0.66377 0.97945 0.0
C1555 C 0.72296 0.69414 0.9772 0.0
C1556 C 0.7191 0.70518 0.95237 0.0
C1557 C 0.71116 0.68581 0.92976 0.0
H1558 H 0.72909 0.70916 0.99468 0.0
H1559 H 0.63564 0.52104 0.77562 0.0
H1560 H 0.75034 0.77754 0.43761 0.0
H1561 H 0.76779 0.77133 0.48184 0.0
H1562 H 0.68085 0.75848 0.51577 0.0
H1563 H 0.66311 0.76415 0.47088 0.0
H1564 H 0.78026 0.79393 0.52962 0.0
H1565 H 0.65498 0.69964 0.56304 0.0
H1566 H 0.60281 0.66305 0.54314 0.0
H1567 H 0.64781 0.66041 0.47024 0.0
H1568 H 0.70022 0.69661 0.48985 0.0
H1569 H 0.79932 0.7421 0.65782 0.0
H1570 H 0.78178 0.76209 0.62043 0.0
H1571 H 0.74482 0.67191 0.58057 0.0
H1572 H 0.76003 0.65111 0.61918 0.0
H1573 H 0.70622 0.69058 0.57152 0.0
H1574 H 0.8198 0.74414 0.56424 0.0
H1575 H 0.8749 0.7771 0.57992 0.0
H1576 H 0.85862 0.85489 0.59332 0.0
H1577 H 0.80332 0.82226 0.57796 0.0
C1578 C 0.73564 0.775 0.45469 0.0
C1579 C 0.70569 0.772 0.45087 0.0
C1580 C 0.74551 0.77111 0.48005 0.0
C1581 C 0.72546 0.76374 0.50226 0.0
C1582 C 0.69662 0.76363 0.49893 0.0
C1583 C 0.6867 0.76752 0.47336 0.0
C1584 C 0.73359 0.75297 0.52773 0.0
C1585 C 0.76391 0.77148 0.53893 0.0
C1586 C 0.71276 0.72325 0.53965 0.0
C1587 C 0.68143 0.70115 0.5278 0.0
C1588 C 0.6537 0.69117 0.54279 0.0
C1589 C 0.62411 0.67051 0.53157 0.0
C1590 C 0.62199 0.65952 0.5054 0.0
C1591 C 0.64948 0.66903 0.49046 0.0
C1592 C 0.67912 0.68963 0.50162 0.0
C1593 C 0.78707 0.72641 0.64123 0.0
C1594 C 0.78077 0.69491 0.6416 0.0
C1595 C 0.77741 0.73802 0.61959 0.0
C1596 C 0.76237 0.71884 0.59717 0.0
C1597 C 0.75627 0.68734 0.5975 0.0
C1598 C 0.7652 0.67547 0.61951 0.0
C1599 C 0.75305 0.73146 0.57342 0.0
C1600 C 0.72248 0.71326 0.56251 0.0
C1601 C 0.77408 0.76097 0.5612 0.0
C1602 C 0.80738 0.78068 0.5702 0.0
C1603 C 0.82795 0.76823 0.57066 0.0
C1604 C 0.85921 0.78685 0.57947 0.0
C1605 C 0.87023 0.81804 0.58768 0.0
C1606 C 0.85004 0.83071 0.58699 0.0
C1607 C 0.81875 0.81219 0.57821 0.0
H1608 H 0.89443 0.83241 0.59451 0.0
H1609 H 0.59906 0.64357 0.49673 0.0
H1610 H 0.23663 0.95886 0.42723 0.0
H1611 H 0.2383 0.98927 0.46706 0.0
H1612 H 0.27399 0.93906 0.51396 0.0
H1613 H 0.2722 0.90895 0.47449 0.0
H1614 H 0.23667 0.95081 0.54404 0.0
H1615 H 0.32265 0.01107 0.48144 0.0
H1616 H 0.34637 0.03773 0.43867 0.0
H1617 H 0.30333 0.09568 0.44678 0.0
H1618 H 0.27886 0.06894 0.48934 0.0
H1619 H 0.33871 0.05334 0.64364 0.0
H1620 H 0.31423 0.01935 0.60478 0.0
H1621 H 0.28486 0.08406 0.57504 0.0
H1622 H 0.30943 0.1183 0.61419 0.0
H1623 H 0.30987 0.0665 0.53557 0.0
H1624 H 0.23065 0.01207 0.60132 0.0
H1625 H 0.20709 0.98603 0.6443 0.0
H1626 H 0.23711 0.91797 0.63085 0.0
H1627 H 0.26125 0.94384 0.58795 0.0
C1628 C 0.2433 0.95331 0.44636 0.0
C1629 C 0.25372 0.93112 0.44794 0.0
C1630 C 0.24483 0.9711 0.46904 0.0
C1631 C 0.25686 0.96695 0.49354 0.0
C1632 C 0.26465 0.94285 0.49543 0.0
C1633 C 0.26335 0.92538 0.47287 0.0
C1634 C 0.26418 0.989 0.51668 0.0
C1635 C 0.25271 0.9761 0.54217 0.0
C1636 C 0.28446 0.02223 0.51431 0.0
C1637 C 0.29858 0.03771 0.48839 0.0
C1638 C 0.31797 0.02925 0.47395 0.0
C1639 C 0.33163 0.04446 0.44979 0.0
C1640 C 0.32639 0.06841 0.44002 0.0
C1641 C 0.3074 0.07715 0.45436 0.0
C1642 C 0.29356 0.06193 0.47847 0.0
C1643 C 0.32676 0.06021 0.62898 0.0
C1644 C 0.32574 0.08837 0.63214 0.0
C1645 C 0.31266 0.04067 0.60676 0.0
C1646 C 0.29719 0.04877 0.58706 0.0
C1647 C 0.29646 0.07714 0.58999 0.0
C1648 C 0.31049 0.09669 0.61237 0.0
C1649 C 0.28302 0.02815 0.56301 0.0
C1650 C 0.2933 0.04131 0.53741 0.0
C1651 C 0.26165 0.99516 0.56527 0.0
C1652 C 0.24789 0.98001 0.59143 0.0
C1653 C 0.23253 0.99175 0.60764 0.0
C1654 C 0.21901 0.97698 0.63197 0.0
C1655 C 0.22056 0.95034 0.64025 0.0
C1656 C 0.23588 0.93858 0.62436 0.0
C1657 C 0.24945 0.95326 0.60002 0.0
H1658 H 0.20972 0.93866 0.65888 0.0
H1659 H 0.33696 0.08013 0.4213 0.0
H1660 H 0.96705 0.22274 0.64591 0.0
H1661 H 1.00387 0.23657 0.60828 0.0
H1662 H 0.96561 0.29138 0.5728 0.0
H1663 H 0.92874 0.27744 0.61031 0.0
H1664 H 0.97402 0.25748 0.5352 0.0
H1665 H 0.03716 0.3257 0.6081 0.0
H1666 H 0.05982 0.33638 0.65371 0.0
H1667 H 0.10578 0.28255 0.63735 0.0
H1668 H 0.08293 0.27109 0.59179 0.0
H1669 H 0.13231 0.3765 0.47151 0.0
H1670 H 0.10087 0.35456 0.5121 0.0
H1671 H 0.0573 0.26095 0.47785 0.0
H1672 H 0.08833 0.28287 0.43698 0.0
H1673 H 0.09009 0.31149 0.55052 0.0
H1674 H 0.9795 0.22154 0.49398 0.0
H1675 H 0.95758 0.21143 0.44806 0.0
H1676 H 1.00696 0.31136 0.4318 0.0
H1677 H 0.0289 0.32207 0.47769 0.0
C1678 C 0.96669 0.23793 0.63016 0.0
C1679 C 0.94532 0.24939 0.63127 0.0
C1680 C 0.98773 0.2458 0.60861 0.0
C1681 C 0.98791 0.26539 0.58772 0.0
C1682 C 0.96606 0.27628 0.58859 0.0
C1683 C 0.94503 0.26839 0.61011 0.0
C1684 C 1.01095 0.27494 0.56507 0.0
C1685 C 0.99937 0.26915 0.53863 0.0
C1686 C 0.04416 0.29014 0.56931 0.0
C1687 C 0.05817 0.29738 0.5966 0.0
C1688 C 0.05197 0.31602 0.61428 0.0
C1689 C 0.06488 0.32225 0.6401 0.0
C1690 C 0.08433 0.31027 0.64837 0.0
C1691 C 0.09085 0.29196 0.63086 0.0
C1692 C 0.07789 0.28556 0.60505 0.0
C1693 C 0.11664 0.35113 0.47284 0.0
C1694 C 0.1126 0.33155 0.45078 0.0
C1695 C 0.09858 0.33858 0.49612 0.0
C1696 C 0.07606 0.30616 0.49791 0.0
C1697 C 0.07399 0.28614 0.47682 0.0
C1698 C 0.09199 0.29869 0.4535 0.0
C1699 C 0.05314 0.2941 0.52072 0.0
C1700 C 0.06471 0.29947 0.54715 0.0
C1701 C 0.01992 0.27855 0.5165 0.0
C1702 C 1.00597 0.27255 0.48919 0.0
C1703 C 0.98549 0.24135 0.48065 0.0
C1704 C 0.97312 0.23552 0.45463 0.0
C1705 C 0.98086 0.26074 0.43706 0.0
C1706 C 1.00098 0.29185 0.44545 0.0
C1707 C 1.0134 0.29782 0.47145 0.0
H1708 H 0.97118 0.25618 0.41697 0.0
H1709 H 0.09422 0.31503 0.6684 0.0
loop_
_geom_bond_atom_site_label_1
_geom_bond_atom_site_label_2
_geom_bond_distance
_geom_bond_site_symmetry_2
_ccdc_geom_bond_type
Gd0 C3 2.818 . S
Gd0 O20 2.377 . S
Gd0 O22 2.448 . S
Gd0 O23 2.506 1_556 S
Gd0 O24 2.435 . S
Gd0 O25 2.717 1_455 S
Gd0 O27 2.395 1_456 S
Gd0 O31 2.327 1_556 S
Gd1 C12 2.818 . S
Gd1 O21 2.395 1_655 S
Gd1 O25 2.327 1_554 S
Gd1 O26 2.377 . S
Gd1 O28 2.448 . S
Gd1 O29 2.506 1_554 S
Gd1 O30 2.435 . S
Gd1 O31 2.717 1_655 S
C2 O20 1.240 . S
C2 O21 1.240 1_556 S
C3 Gd0 2.818 . S
C3 C4 1.510 . S
C3 O22 1.249 . S
C3 O23 1.252 1_556 S
C4 C3 1.510 . S
C4 C5 1.404 . S
C4 C6 1.352 1_556 S
C5 C4 1.404 . S
C5 C9 1.389 . S
C5 H32 0.930 . S
C6 C4 1.352 1_554 S
C6 C8 1.374 . S
C6 H33 0.931 . S
C7 C8 1.359 1_556 S
C7 C9 1.364 . S
C8 C6 1.374 . S
C8 C7 1.359 1_554 S
C8 H34 0.931 . S
C9 C5 1.389 . S
C9 C7 1.364 . S
C9 H35 0.931 . S
C10 O24 1.256 1_655 S
C10 O25 1.257 . S
C11 O26 1.240 . S
C11 O27 1.240 . S
C12 Gd1 2.818 . S
C12 C13 1.510 . S
C12 O28 1.249 . S
C12 O29 1.252 1_554 S
C13 C12 1.510 . S
C13 C14 1.404 . S
C13 C15 1.352 1_554 S
C14 C13 1.404 . S
C14 C18 1.389 . S
C14 H36 0.930 . S
C15 C13 1.352 1_556 S
C15 C17 1.374 . S
C15 H37 0.931 . S
C16 C17 1.359 1_554 S
C16 C18 1.364 . S
C17 C15 1.374 . S
C17 C16 1.359 1_556 S
C17 H38 0.931 . S
C18 C14 1.389 . S
C18 C16 1.364 . S
C18 H39 0.931 . S
C19 O30 1.256 1_455 S
C19 O31 1.257 . S
O20 Gd0 2.377 . S
O20 C2 1.240 . S
O21 Gd1 2.395 1_455 S
O21 C2 1.240 1_554 S
O22 Gd0 2.448 . S
O22 C3 1.249 . S
O23 Gd0 2.506 1_554 S
O23 C3 1.252 1_554 S
O24 Gd0 2.435 . S
O24 C10 1.256 1_455 S
O25 Gd0 2.717 1_655 S
O25 Gd1 2.327 1_556 S
O25 C10 1.257 . S
O26 Gd1 2.377 . S
O26 C11 1.240 . S
O27 Gd0 2.395 1_654 S
O27 C11 1.240 . S
O28 Gd1 2.448 . S
O28 C12 1.249 . S
O29 Gd1 2.506 1_556 S
O29 C12 1.252 1_556 S
O30 Gd1 2.435 . S
O30 C19 1.256 1_655 S
O31 Gd0 2.327 1_554 S
O31 Gd1 2.717 1_455 S
O31 C19 1.257 . S
H32 C5 0.930 . S
H33 C6 0.931 . S
H34 C8 0.931 . S
H35 C9 0.931 . S
H36 C14 0.930 . S
H37 C15 0.931 . S
H38 C17 0.931 . S
H39 C18 0.931 . S
Gd40 C43 2.818 . S
Gd40 O60 2.377 . S
Gd40 O62 2.448 . S
Gd40 O63 2.506 1_556 S
Gd40 O64 2.435 . S
Gd40 O65 2.717 . S
Gd40 O67 2.395 1_556 S
Gd40 O71 2.327 1_556 S
Gd41 C52 2.818 . S
Gd41 O61 2.395 . S
Gd41 O65 2.327 1_554 S
Gd41 O66 2.377 . S
Gd41 O68 2.448 . S
Gd41 O69 2.506 1_554 S
Gd41 O70 2.435 . S
Gd41 O71 2.717 . S
C42 O60 1.240 . S
C42 O61 1.240 1_556 S
C43 Gd40 2.818 . S
C43 C44 1.510 . S
C43 O62 1.249 . S
C43 O63 1.252 1_556 S
C44 C43 1.510 . S
C44 C45 1.404 . S
C44 C46 1.352 1_556 S
C45 C44 1.404 . S
C45 C49 1.389 . S
C45 H72 0.930 . S
C46 C44 1.352 1_554 S
C46 C48 1.374 . S
C46 H73 0.931 . S
C47 C48 1.359 1_556 S
C47 C49 1.364 . S
C48 C46 1.374 . S
C48 C47 1.359 1_554 S
C48 H74 0.931 . S
C49 C45 1.389 . S
C49 C47 1.364 . S
C49 H75 0.931 . S
C50 O64 1.256 . S
C50 O65 1.257 . S
C51 O66 1.240 . S
C51 O67 1.240 . S
C52 Gd41 2.818 . S
C52 C53 1.510 . S
C52 O68 1.249 . S
C52 O69 1.252 1_554 S
C53 C52 1.510 . S
C53 C54 1.404 . S
C53 C55 1.352 1_554 S
C54 C53 1.404 . S
C54 C58 1.389 . S
C54 H76 0.930 . S
C55 C53 1.352 1_556 S
C55 C57 1.374 . S
C55 H77 0.931 . S
C56 C57 1.359 1_554 S
C56 C58 1.364 . S
C57 C55 1.374 . S
C57 C56 1.359 1_556 S
C57 H78 0.931 . S
C58 C54 1.389 . S
C58 C56 1.364 . S
C58 H79 0.931 . S
C59 O70 1.256 . S
C59 O71 1.257 . S
O60 Gd40 2.377 . S
O60 C42 1.240 . S
O61 Gd41 2.395 . S
O61 C42 1.240 1_554 S
O62 Gd40 2.448 . S
O62 C43 1.249 . S
O63 Gd40 2.506 1_554 S
O63 C43 1.252 1_554 S
O64 Gd40 2.435 . S
O64 C50 1.256 . S
O65 Gd40 2.717 . S
O65 Gd41 2.327 1_556 S
O65 C50 1.257 . S
O66 Gd41 2.377 . S
O66 C51 1.240 . S
O67 Gd40 2.395 1_554 S
O67 C51 1.240 . S
O68 Gd41 2.448 . S
O68 C52 1.249 . S
O69 Gd41 2.506 1_556 S
O69 C52 1.252 1_556 S
O70 Gd41 2.435 . S
O70 C59 1.256 . S
O71 Gd40 2.327 1_554 S
O71 Gd41 2.717 . S
O71 C59 1.257 . S
H72 C45 0.930 . S
H73 C46 0.931 . S
H74 C48 0.931 . S
H75 C49 0.931 . S
H76 C54 0.930 . S
H77 C55 0.931 . S
H78 C57 0.931 . S
H79 C58 0.931 . S
Gd80 C83 2.818 . S
Gd80 O100 2.377 . S
Gd80 O102 2.448 . S
Gd80 O103 2.506 1_556 S
Gd80 O104 2.435 . S
Gd80 O105 2.717 1_565 S
Gd80 O107 2.395 1_566 S
Gd80 O111 2.327 1_556 S
Gd81 C92 2.818 . S
Gd81 O101 2.395 1_545 S
Gd81 O105 2.327 1_554 S
Gd81 O106 2.377 . S
Gd81 O108 2.448 . S
Gd81 O109 2.506 1_554 S
Gd81 O110 2.435 . S
Gd81 O111 2.717 1_545 S
C82 O100 1.240 . S
C82 O101 1.240 1_556 S
C83 Gd80 2.818 . S
C83 C84 1.510 . S
C83 O102 1.249 . S
C83 O103 1.252 1_556 S
C84 C83 1.510 . S
C84 C85 1.404 . S
C84 C86 1.352 1_556 S
C85 C84 1.404 . S
C85 C89 1.389 . S
C85 H112 0.930 . S
C86 C84 1.352 1_554 S
C86 C88 1.374 . S
C86 H113 0.931 . S
C87 C88 1.359 1_556 S
C87 C89 1.364 . S
C88 C86 1.374 . S
C88 C87 1.359 1_554 S
C88 H114 0.931 . S
C89 C85 1.389 . S
C89 C87 1.364 . S
C89 H115 0.931 . S
C90 O104 1.256 1_545 S
C90 O105 1.257 . S
C91 O106 1.240 . S
C91 O107 1.240 . S
C92 Gd81 2.818 . S
C92 C93 1.510 . S
C92 O108 1.249 . S
C92 O109 1.252 1_554 S
C93 C92 1.510 . S
C93 C94 1.404 . S
C93 C95 1.352 1_554 S
C94 C93 1.404 . S
C94 C98 1.389 . S
C94 H116 0.930 . S
C95 C93 1.352 1_556 S
C95 C97 1.374 . S
C95 H117 0.931 . S
C96 C97 1.359 1_554 S
C96 C98 1.364 . S
C97 C95 1.374 . S
C97 C96 1.359 1_556 S
C97 H118 0.931 . S
C98 C94 1.389 . S
C98 C96 1.364 . S
C98 H119 0.931 . S
C99 O110 1.256 1_565 S
C99 O111 1.257 . S
O100 Gd80 2.377 . S
O100 C82 1.240 . S
O101 Gd81 2.395 1_565 S
O101 C82 1.240 1_554 S
O102 Gd80 2.448 . S
O102 C83 1.249 . S
O103 Gd80 2.506 1_554 S
O103 C83 1.252 1_554 S
O104 Gd80 2.435 . S
O104 C90 1.256 1_565 S
O105 Gd80 2.717 1_545 S
O105 Gd81 2.327 1_556 S
O105 C90 1.257 . S
O106 Gd81 2.377 . S
O106 C91 1.240 . S
O107 Gd80 2.395 1_544 S
O107 C91 1.240 . S
O108 Gd81 2.448 . S
O108 C92 1.249 . S
O109 Gd81 2.506 1_556 S
O109 C92 1.252 1_556 S
O110 Gd81 2.435 . S
O110 C99 1.256 1_545 S
O111 Gd80 2.327 1_554 S
O111 Gd81 2.717 1_565 S
O111 C99 1.257 . S
H112 C85 0.930 . S
H113 C86 0.931 . S
H114 C88 0.931 . S
H115 C89 0.931 . S
H116 C94 0.930 . S
H117 C95 0.931 . S
H118 C97 0.931 . S
H119 C98 0.931 . S
Gd120 C123 2.818 . S
Gd120 O140 2.377 . S
Gd120 O142 2.448 . S
Gd120 O143 2.506 . S
Gd120 O144 2.435 . S
Gd120 O145 2.717 . S
Gd120 O147 2.395 . S
Gd120 O151 2.327 . S
Gd121 C132 2.818 . S
Gd121 O141 2.395 . S
Gd121 O145 2.327 . S
Gd121 O146 2.377 . S
Gd121 O148 2.448 . S
Gd121 O149 2.506 . S
Gd121 O150 2.435 . S
Gd121 O151 2.717 . S
C122 O140 1.240 . S
C122 O141 1.240 . S
C123 Gd120 2.818 . S
C123 C124 1.510 . S
C123 O142 1.249 . S
C123 O143 1.252 . S
C124 C123 1.510 . S
C124 C125 1.404 . S
C124 C126 1.352 . S
C125 C124 1.404 . S
C125 C129 1.389 . S
C125 H152 0.930 . S
C126 C124 1.352 . S
C126 C128 1.374 . S
C126 H153 0.931 . S
C127 C128 1.359 . S
C127 C129 1.364 . S
C128 C126 1.374 . S
C128 C127 1.359 . S
C128 H154 0.931 . S
C129 C125 1.389 . S
C129 C127 1.364 . S
C129 H155 0.931 . S
C130 O144 1.256 . S
C130 O145 1.257 . S
C131 O146 1.240 . S
C131 O147 1.240 . S
C132 Gd121 2.818 . S
C132 C133 1.510 . S
C132 O148 1.249 . S
C132 O149 1.252 . S
C133 C132 1.510 . S
C133 C134 1.404 . S
C133 C135 1.352 . S
C134 C133 1.404 . S
C134 C138 1.389 . S
C134 H156 0.930 . S
C135 C133 1.352 . S
C135 C137 1.374 . S
C135 H157 0.931 . S
C136 C137 1.359 . S
C136 C138 1.364 . S
C137 C135 1.374 . S
C137 C136 1.359 . S
C137 H158 0.931 . S
C138 C134 1.389 . S
C138 C136 1.364 . S
C138 H159 0.931 . S
C139 O150 1.256 . S
C139 O151 1.257 . S
O140 Gd120 2.377 . S
O140 C122 1.240 . S
O141 Gd121 2.395 . S
O141 C122 1.240 . S
O142 Gd120 2.448 . S
O142 C123 1.249 . S
O143 Gd120 2.506 . S
O143 C123 1.252 . S
O144 Gd120 2.435 . S
O144 C130 1.256 . S
O145 Gd120 2.717 . S
O145 Gd121 2.327 . S
O145 C130 1.257 . S
O146 Gd121 2.377 . S
O146 C131 1.240 . S
O147 Gd120 2.395 . S
O147 C131 1.240 . S
O148 Gd121 2.448 . S
O148 C132 1.249 . S
O149 Gd121 2.506 . S
O149 C132 1.252 . S
O150 Gd121 2.435 . S
O150 C139 1.256 . S
O151 Gd120 2.327 . S
O151 Gd121 2.717 . S
O151 C139 1.257 . S
H152 C125 0.930 . S
H153 C126 0.931 . S
H154 C128 0.931 . S
H155 C129 0.931 . S
H156 C134 0.930 . S
H157 C135 0.931 . S
H158 C137 0.931 . S
H159 C138 0.931 . S
Gd160 C163 2.818 . S
Gd160 O180 2.377 . S
Gd160 O182 2.448 . S
Gd160 O183 2.506 . S
Gd160 O184 2.435 . S
Gd160 O185 2.717 . S
Gd160 O187 2.395 . S
Gd160 O191 2.327 . S
Gd161 C172 2.818 . S
Gd161 O181 2.395 . S
Gd161 O185 2.327 . S
Gd161 O186 2.377 . S
Gd161 O188 2.448 . S
Gd161 O189 2.506 . S
Gd161 O190 2.435 . S
Gd161 O191 2.717 . S
C162 O180 1.240 . S
C162 O181 1.240 . S
C163 Gd160 2.818 . S
C163 C164 1.510 . S
C163 O182 1.249 . S
C163 O183 1.252 . S
C164 C163 1.510 . S
C164 C165 1.404 . S
C164 C166 1.352 . S
C165 C164 1.404 . S
C165 C169 1.389 . S
C165 H192 0.930 . S
C166 C164 1.352 . S
C166 C168 1.374 . S
C166 H193 0.931 . S
C167 C168 1.359 . S
C167 C169 1.364 . S
C168 C166 1.374 . S
C168 C167 1.359 . S
C168 H194 0.931 . S
C169 C165 1.389 . S
C169 C167 1.364 . S
C169 H195 0.931 . S
C170 O184 1.256 . S
C170 O185 1.257 . S
C171 O186 1.240 . S
C171 O187 1.240 . S
C172 Gd161 2.818 . S
C172 C173 1.510 . S
C172 O188 1.249 . S
C172 O189 1.252 . S
C173 C172 1.510 . S
C173 C174 1.404 . S
C173 C175 1.352 . S
C174 C173 1.404 . S
C174 C178 1.389 . S
C174 H196 0.930 . S
C175 C173 1.352 . S
C175 C177 1.374 . S
C175 H197 0.931 . S
C176 C177 1.359 . S
C176 C178 1.364 . S
C177 C175 1.374 . S
C177 C176 1.359 . S
C177 H198 0.931 . S
C178 C174 1.389 . S
C178 C176 1.364 . S
C178 H199 0.931 . S
C179 O190 1.256 . S
C179 O191 1.257 . S
O180 Gd160 2.377 . S
O180 C162 1.240 . S
O181 Gd161 2.395 . S
O181 C162 1.240 . S
O182 Gd160 2.448 . S
O182 C163 1.249 . S
O183 Gd160 2.506 . S
O183 C163 1.252 . S
O184 Gd160 2.435 . S
O184 C170 1.256 . S
O185 Gd160 2.717 . S
O185 Gd161 2.327 . S
O185 C170 1.257 . S
O186 Gd161 2.377 . S
O186 C171 1.240 . S
O187 Gd160 2.395 . S
O187 C171 1.240 . S
O188 Gd161 2.448 . S
O188 C172 1.249 . S
O189 Gd161 2.506 . S
O189 C172 1.252 . S
O190 Gd161 2.435 . S
O190 C179 1.256 . S
O191 Gd160 2.327 . S
O191 Gd161 2.717 . S
O191 C179 1.257 . S
H192 C165 0.930 . S
H193 C166 0.931 . S
H194 C168 0.931 . S
H195 C169 0.931 . S
H196 C174 0.930 . S
H197 C175 0.931 . S
H198 C177 0.931 . S
H199 C178 0.931 . S
Gd200 C203 2.818 . S
Gd200 O220 2.377 . S
Gd200 O222 2.448 . S
Gd200 O223 2.506 . S
Gd200 O224 2.435 . S
Gd200 O225 2.717 . S
Gd200 O227 2.395 . S
Gd200 O231 2.327 . S
Gd201 C212 2.818 . S
Gd201 O221 2.395 . S
Gd201 O225 2.327 . S
Gd201 O226 2.377 . S
Gd201 O228 2.448 . S
Gd201 O229 2.506 . S
Gd201 O230 2.435 . S
Gd201 O231 2.717 . S
C202 O220 1.240 . S
C202 O221 1.240 . S
C203 Gd200 2.818 . S
C203 C204 1.510 . S
C203 O222 1.249 . S
C203 O223 1.252 . S
C204 C203 1.510 . S
C204 C205 1.404 . S
C204 C206 1.352 . S
C205 C204 1.404 . S
C205 C209 1.389 . S
C205 H232 0.930 . S
C206 C204 1.352 . S
C206 C208 1.374 . S
C206 H233 0.931 . S
C207 C208 1.359 . S
C207 C209 1.364 . S
C208 C206 1.374 . S
C208 C207 1.359 . S
C208 H234 0.931 . S
C209 C205 1.389 . S
C209 C207 1.364 . S
C209 H235 0.931 . S
C210 O224 1.256 . S
C210 O225 1.257 . S
C211 O226 1.240 . S
C211 O227 1.240 . S
C212 Gd201 2.818 . S
C212 C213 1.510 . S
C212 O228 1.249 . S
C212 O229 1.252 . S
C213 C212 1.510 . S
C213 C214 1.404 . S
C213 C215 1.352 . S
C214 C213 1.404 . S
C214 C218 1.389 . S
C214 H236 0.930 . S
C215 C213 1.352 . S
C215 C217 1.374 . S
C215 H237 0.931 . S
C216 C217 1.359 . S
C216 C218 1.364 . S
C217 C215 1.374 . S
C217 C216 1.359 . S
C217 H238 0.931 . S
C218 C214 1.389 . S
C218 C216 1.364 . S
C218 H239 0.931 . S
C219 O230 1.256 . S
C219 O231 1.257 . S
O220 Gd200 2.377 . S
O220 C202 1.240 . S
O221 Gd201 2.395 . S
O221 C202 1.240 . S
O222 Gd200 2.448 . S
O222 C203 1.249 . S
O223 Gd200 2.506 . S
O223 C203 1.252 . S
O224 Gd200 2.435 . S
O224 C210 1.256 . S
O225 Gd200 2.717 . S
O225 Gd201 2.327 . S
O225 C210 1.257 . S
O226 Gd201 2.377 . S
O226 C211 1.240 . S
O227 Gd200 2.395 . S
O227 C211 1.240 . S
O228 Gd201 2.448 . S
O228 C212 1.249 . S
O229 Gd201 2.506 . S
O229 C212 1.252 . S
O230 Gd201 2.435 . S
O230 C219 1.256 . S
O231 Gd200 2.327 . S
O231 Gd201 2.717 . S
O231 C219 1.257 . S
H232 C205 0.930 . S
H233 C206 0.931 . S
H234 C208 0.931 . S
H235 C209 0.931 . S
H236 C214 0.930 . S
H237 C215 0.931 . S
H238 C217 0.931 . S
H239 C218 0.931 . S
Gd240 C243 2.818 . S
Gd240 O260 2.377 . S
Gd240 O262 2.448 . S
Gd240 O263 2.506 . S
Gd240 O264 2.435 . S
Gd240 O265 2.717 . S
Gd240 O267 2.395 . S
Gd240 O271 2.327 . S
Gd241 C252 2.818 . S
Gd241 O261 2.395 . S
Gd241 O265 2.327 . S
Gd241 O266 2.377 . S
Gd241 O268 2.448 . S
Gd241 O269 2.506 . S
Gd241 O270 2.435 . S
Gd241 O271 2.717 . S
C242 O260 1.240 . S
C242 O261 1.240 . S
C243 Gd240 2.818 . S
C243 C244 1.510 . S
C243 O262 1.249 . S
C243 O263 1.252 . S
C244 C243 1.510 . S
C244 C245 1.404 . S
C244 C246 1.352 . S
C245 C244 1.404 . S
C245 C249 1.389 . S
C245 H272 0.930 . S
C246 C244 1.352 . S
C246 C248 1.374 . S
C246 H273 0.931 . S
C247 C248 1.359 . S
C247 C249 1.364 . S
C248 C246 1.374 . S
C248 C247 1.359 . S
C248 H274 0.931 . S
C249 C245 1.389 . S
C249 C247 1.364 . S
C249 H275 0.931 . S
C250 O264 1.256 . S
C250 O265 1.257 . S
C251 O266 1.240 . S
C251 O267 1.240 . S
C252 Gd241 2.818 . S
C252 C253 1.510 1_545 S
C252 O268 1.249 . S
C252 O269 1.252 . S
C253 C252 1.510 1_565 S
C253 C254 1.404 . S
C253 C255 1.352 . S
C254 C253 1.404 . S
C254 C258 1.389 . S
C254 H276 0.930 . S
C255 C253 1.352 . S
C255 C257 1.374 . S
C255 H277 0.931 1_565 S
C256 C257 1.359 . S
C256 C258 1.364 . S
C257 C255 1.374 . S
C257 C256 1.359 . S
C257 H278 0.931 . S
C258 C254 1.389 . S
C258 C256 1.364 . S
C258 H279 0.931 . S
C259 O270 1.256 . S
C259 O271 1.257 . S
O260 Gd240 2.377 . S
O260 C242 1.240 . S
O261 Gd241 2.395 . S
O261 C242 1.240 . S
O262 Gd240 2.448 . S
O262 C243 1.249 . S
O263 Gd240 2.506 . S
O263 C243 1.252 . S
O264 Gd240 2.435 . S
O264 C250 1.256 . S
O265 Gd240 2.717 . S
O265 Gd241 2.327 . S
O265 C250 1.257 . S
O266 Gd241 2.377 . S
O266 C251 1.240 . S
O267 Gd240 2.395 . S
O267 C251 1.240 . S
O268 Gd241 2.448 . S
O268 C252 1.249 . S
O269 Gd241 2.506 . S
O269 C252 1.252 . S
O270 Gd241 2.435 . S
O270 C259 1.256 . S
O271 Gd240 2.327 . S
O271 Gd241 2.717 . S
O271 C259 1.257 . S
H272 C245 0.930 . S
H273 C246 0.931 . S
H274 C248 0.931 . S
H275 C249 0.931 . S
H276 C254 0.930 . S
H277 C255 0.931 1_545 S
H278 C257 0.931 . S
H279 C258 0.931 . S
Gd280 C283 2.818 . S
Gd280 O300 2.377 . S
Gd280 O302 2.448 . S
Gd280 O303 2.506 . S
Gd280 O304 2.435 . S
Gd280 O305 2.717 . S
Gd280 O307 2.395 . S
Gd280 O311 2.327 . S
Gd281 C292 2.818 . S
Gd281 O301 2.395 . S
Gd281 O305 2.327 . S
Gd281 O306 2.377 . S
Gd281 O308 2.448 . S
Gd281 O309 2.506 . S
Gd281 O310 2.435 . S
Gd281 O311 2.717 . S
C282 O300 1.240 . S
C282 O301 1.240 . S
C283 Gd280 2.818 . S
C283 C284 1.510 . S
C283 O302 1.249 . S
C283 O303 1.252 . S
C284 C283 1.510 . S
C284 C285 1.404 . S
C284 C286 1.352 . S
C285 C284 1.404 . S
C285 C289 1.389 . S
C285 H312 0.930 . S
C286 C284 1.352 . S
C286 C288 1.374 . S
C286 H313 0.931 . S
C287 C288 1.359 . S
C287 C289 1.364 . S
C288 C286 1.374 . S
C288 C287 1.359 . S
C288 H314 0.931 . S
C289 C285 1.389 . S
C289 C287 1.364 . S
C289 H315 0.931 . S
C290 O304 1.256 . S
C290 O305 1.257 . S
C291 O306 1.240 . S
C291 O307 1.240 . S
C292 Gd281 2.818 . S
C292 C293 1.510 1_655 S
C292 O308 1.249 . S
C292 O309 1.252 . S
C293 C292 1.510 1_455 S
C293 C294 1.404 . S
C293 C295 1.352 . S
C294 C293 1.404 . S
C294 C298 1.389 . S
C294 H316 0.930 . S
C295 C293 1.352 . S
C295 C297 1.374 . S
C295 H317 0.931 1_455 S
C296 C297 1.359 . S
C296 C298 1.364 . S
C297 C295 1.374 . S
C297 C296 1.359 . S
C297 H318 0.931 . S
C298 C294 1.389 . S
C298 C296 1.364 . S
C298 H319 0.931 . S
C299 O310 1.256 . S
C299 O311 1.257 . S
O300 Gd280 2.377 . S
O300 C282 1.240 . S
O301 Gd281 2.395 . S
O301 C282 1.240 . S
O302 Gd280 2.448 . S
O302 C283 1.249 . S
O303 Gd280 2.506 . S
O303 C283 1.252 . S
O304 Gd280 2.435 . S
O304 C290 1.256 . S
O305 Gd280 2.717 . S
O305 Gd281 2.327 . S
O305 C290 1.257 . S
O306 Gd281 2.377 . S
O306 C291 1.240 . S
O307 Gd280 2.395 . S
O307 C291 1.240 . S
O308 Gd281 2.448 . S
O308 C292 1.249 . S
O309 Gd281 2.506 . S
O309 C292 1.252 . S
O310 Gd281 2.435 . S
O310 C299 1.256 . S
O311 Gd280 2.327 . S
O311 Gd281 2.717 . S
O311 C299 1.257 . S
H312 C285 0.930 . S
H313 C286 0.931 . S
H314 C288 0.931 . S
H315 C289 0.931 . S
H316 C294 0.930 . S
H317 C295 0.931 1_655 S
H318 C297 0.931 . S
H319 C298 0.931 . S
Gd320 C323 2.818 . S
Gd320 O340 2.377 . S
Gd320 O342 2.448 . S
Gd320 O343 2.506 . S
Gd320 O344 2.435 . S
Gd320 O345 2.717 . S
Gd320 O347 2.395 . S
Gd320 O351 2.327 . S
Gd321 C332 2.818 . S
Gd321 O341 2.395 . S
Gd321 O345 2.327 . S
Gd321 O346 2.377 . S
Gd321 O348 2.448 . S
Gd321 O349 2.506 . S
Gd321 O350 2.435 . S
Gd321 O351 2.717 . S
C322 O340 1.240 . S
C322 O341 1.240 . S
C323 Gd320 2.818 . S
C323 C324 1.510 . S
C323 O342 1.249 . S
C323 O343 1.252 . S
C324 C323 1.510 . S
C324 C325 1.404 . S
C324 C326 1.352 . S
C325 C324 1.404 . S
C325 C329 1.389 . S
C325 H352 0.930 . S
C326 C324 1.352 . S
C326 C328 1.374 . S
C326 H353 0.931 . S
C327 C328 1.359 . S
C327 C329 1.364 . S
C328 C326 1.374 . S
C328 C327 1.359 . S
C328 H354 0.931 . S
C329 C325 1.389 . S
C329 C327 1.364 . S
C329 H355 0.931 . S
C330 O344 1.256 . S
C330 O345 1.257 . S
C331 O346 1.240 . S
C331 O347 1.240 . S
C332 Gd321 2.818 . S
C332 C333 1.510 . S
C332 O348 1.249 . S
C332 O349 1.252 . S
C333 C332 1.510 . S
C333 C334 1.404 . S
C333 C335 1.352 . S
C334 C333 1.404 . S
C334 C338 1.389 . S
C334 H356 0.930 . S
C335 C333 1.352 . S
C335 C337 1.374 . S
C335 H357 0.931 . S
C336 C337 1.359 . S
C336 C338 1.364 . S
C337 C335 1.374 . S
C337 C336 1.359 . S
C337 H358 0.931 . S
C338 C334 1.389 . S
C338 C336 1.364 . S
C338 H359 0.931 . S
C339 O350 1.256 . S
C339 O351 1.257 . S
O340 Gd320 2.377 . S
O340 C322 1.240 . S
O341 Gd321 2.395 . S
O341 C322 1.240 . S
O342 Gd320 2.448 . S
O342 C323 1.249 . S
O343 Gd320 2.506 . S
O343 C323 1.252 . S
O344 Gd320 2.435 . S
O344 C330 1.256 . S
O345 Gd320 2.717 . S
O345 Gd321 2.327 . S
O345 C330 1.257 . S
O346 Gd321 2.377 . S
O346 C331 1.240 . S
O347 Gd320 2.395 . S
O347 C331 1.240 . S
O348 Gd321 2.448 . S
O348 C332 1.249 . S
O349 Gd321 2.506 . S
O349 C332 1.252 . S
O350 Gd321 2.435 . S
O350 C339 1.256 . S
O351 Gd320 2.327 . S
O351 Gd321 2.717 . S
O351 C339 1.257 . S
H352 C325 0.930 . S
H353 C326 0.931 . S
H354 C328 0.931 . S
H355 C329 0.931 . S
H356 C334 0.930 . S
H357 C335 0.931 . S
H358 C337 0.931 . S
H359 C338 0.931 . S
H360 C378 0.951 . S
H361 C380 0.951 . S
H362 C382 0.950 . S
H363 C383 0.950 . S
H364 C385 0.950 . S
H365 C388 0.950 1_554 S
H366 C389 0.950 . S
H367 C391 0.950 . S
H368 C392 0.950 . S
H369 C393 0.951 . S
H370 C395 0.951 . S
H371 C397 0.950 . S
H372 C398 0.950 . S
H373 C400 0.950 . S
H374 C403 0.950 1_556 S
H375 C404 0.950 1_556 S
H376 C406 0.950 . S
H377 C407 0.950 . S
C378 H360 0.951 . S
C378 C379 1.366 . S
C378 C380 1.388 . S
C379 C378 1.366 . S
C379 C383 1.385 1_556 S
C380 H361 0.951 . S
C380 C378 1.388 . S
C380 C381 1.366 . S
C381 C380 1.366 . S
C381 C382 1.414 1_556 S
C381 C384 1.499 . S
C382 H362 0.950 . S
C382 C381 1.414 1_554 S
C382 C383 1.374 . S
C383 H363 0.950 . S
C383 C379 1.385 1_554 S
C383 C382 1.374 . S
C384 C381 1.499 . S
C384 C385 1.373 1_556 S
C384 C386 1.389 . S
C385 H364 0.950 . S
C385 C384 1.373 1_554 S
C385 C401 1.377 . S
C386 C384 1.389 . S
C386 C387 1.524 . S
C386 C400 1.377 . S
C387 C386 1.524 . S
C387 C388 1.397 . S
C387 C392 1.363 . S
C388 H365 0.950 1_556 S
C388 C387 1.397 . S
C388 C389 1.334 . S
C389 H366 0.950 . S
C389 C388 1.334 . S
C389 C390 1.287 . S
C390 C389 1.287 . S
C390 C391 1.524 . S
C390 H409 0.913 . S
C391 H367 0.950 . S
C391 C390 1.524 . S
C391 C392 1.415 . S
C392 H368 0.950 . S
C392 C387 1.363 . S
C392 C391 1.415 . S
C393 H369 0.951 . S
C393 C394 1.366 1_554 S
C393 C395 1.388 . S
C394 C393 1.366 1_556 S
C394 C398 1.385 . S
C395 H370 0.951 . S
C395 C393 1.388 . S
C395 C396 1.366 1_554 S
C396 C395 1.366 1_556 S
C396 C397 1.414 . S
C396 C399 1.499 . S
C397 H371 0.950 . S
C397 C396 1.414 . S
C397 C398 1.374 . S
C398 H372 0.950 . S
C398 C394 1.385 . S
C398 C397 1.374 . S
C399 C396 1.499 . S
C399 C400 1.373 . S
C399 C401 1.389 1_556 S
C400 H373 0.950 . S
C400 C386 1.377 . S
C400 C399 1.373 . S
C401 C385 1.377 . S
C401 C399 1.389 1_554 S
C401 C402 1.524 . S
C402 C401 1.524 . S
C402 C403 1.397 . S
C402 C407 1.363 . S
C403 H374 0.950 1_554 S
C403 C402 1.397 . S
C403 C404 1.334 . S
C404 H375 0.950 1_554 S
C404 C403 1.334 . S
C404 C405 1.287 . S
C405 C404 1.287 . S
C405 C406 1.524 . S
C405 H408 0.999 . S
C406 H376 0.950 . S
C406 C405 1.524 . S
C406 C407 1.415 . S
C407 H377 0.950 . S
C407 C402 1.363 . S
C407 C406 1.415 . S
H408 C405 0.999 . S
H409 C390 0.913 . S
H410 C428 0.951 . S
H411 C430 0.951 . S
H412 C432 0.950 . S
H413 C433 0.950 . S
H414 C435 0.950 . S
H415 C438 0.950 . S
H416 C439 0.950 . S
H417 C441 0.950 . S
H418 C442 0.950 . S
H419 C443 0.951 . S
H420 C445 0.951 . S
H421 C447 0.950 . S
H422 C448 0.950 . S
H423 C450 0.950 . S
H424 C453 0.950 . S
H425 C454 0.950 . S
H426 C456 0.950 . S
H427 C457 0.950 . S
C428 H410 0.951 . S
C428 C429 1.366 1_554 S
C428 C430 1.388 . S
C429 C428 1.366 1_556 S
C429 C433 1.385 . S
C430 H411 0.951 . S
C430 C428 1.388 . S
C430 C431 1.366 1_554 S
C431 C430 1.366 1_556 S
C431 C432 1.414 . S
C431 C434 1.499 . S
C432 H412 0.950 . S
C432 C431 1.414 . S
C432 C433 1.374 . S
C433 H413 0.950 . S
C433 C429 1.385 . S
C433 C432 1.374 . S
C434 C431 1.499 . S
C434 C435 1.373 1_556 S
C434 C436 1.389 . S
C435 H414 0.950 . S
C435 C434 1.373 1_554 S
C435 C451 1.377 . S
C436 C434 1.389 . S
C436 C437 1.524 . S
C436 C450 1.377 . S
C437 C436 1.524 . S
C437 C438 1.397 . S
C437 C442 1.363 . S
C438 H415 0.950 . S
C438 C437 1.397 . S
C438 C439 1.334 . S
C439 H416 0.950 . S
C439 C438 1.334 . S
C439 C440 1.287 . S
C440 C439 1.287 . S
C440 C441 1.524 . S
C440 H459 0.913 . S
C441 H417 0.950 . S
C441 C440 1.524 . S
C441 C442 1.415 . S
C442 H418 0.950 . S
C442 C437 1.363 . S
C442 C441 1.415 . S
C443 H419 0.951 . S
C443 C444 1.366 . S
C443 C445 1.388 . S
C444 C443 1.366 . S
C444 C448 1.385 1_556 S
C445 H420 0.951 . S
C445 C443 1.388 . S
C445 C446 1.371 . S
C446 C445 1.371 . S
C446 C447 1.409 1_556 S
C446 C449 1.499 . S
C447 H421 0.950 . S
C447 C446 1.409 1_554 S
C447 C448 1.374 . S
C448 H422 0.950 . S
C448 C444 1.385 1_554 S
C448 C447 1.374 . S
C449 C446 1.499 . S
C449 C450 1.381 . S
C449 C451 1.383 1_556 S
C450 H423 0.950 . S
C450 C436 1.377 . S
C450 C449 1.381 . S
C451 C435 1.377 . S
C451 C449 1.383 1_554 S
C451 C452 1.524 . S
C452 C451 1.524 . S
C452 C453 1.397 . S
C452 C457 1.363 . S
C453 H424 0.950 . S
C453 C452 1.397 . S
C453 C454 1.334 . S
C454 H425 0.950 . S
C454 C453 1.334 . S
C454 C455 1.287 . S
C455 C454 1.287 . S
C455 C456 1.524 . S
C455 H458 0.999 . S
C456 H426 0.950 . S
C456 C455 1.524 . S
C456 C457 1.415 . S
C457 H427 0.950 . S
C457 C452 1.363 . S
C457 C456 1.415 . S
H458 C455 0.999 . S
H459 C440 0.913 . S
H460 C478 0.951 . S
H461 C480 0.951 . S
H462 C482 0.950 . S
H463 C483 0.950 . S
H464 C485 0.950 . S
H465 C488 0.950 . S
H466 C489 0.950 . S
H467 C491 0.950 . S
H468 C492 0.950 . S
H469 C493 0.951 . S
H470 C495 0.951 . S
H471 C497 0.950 . S
H472 C498 0.950 . S
H473 C500 0.950 . S
H474 C503 0.950 . S
H475 C504 0.950 . S
H476 C506 0.950 . S
H477 C507 0.950 . S
C478 H460 0.951 . S
C478 C479 1.366 1_554 S
C478 C480 1.388 . S
C479 C478 1.366 1_556 S
C479 C483 1.385 . S
C480 H461 0.951 . S
C480 C478 1.388 . S
C480 C481 1.360 1_554 S
C481 C480 1.360 1_556 S
C481 C482 1.421 . S
C481 C484 1.498 . S
C482 H462 0.950 . S
C482 C481 1.421 . S
C482 C483 1.374 . S
C483 H463 0.950 . S
C483 C479 1.385 . S
C483 C482 1.374 . S
C484 C481 1.498 . S
C484 C485 1.410 . S
C484 C486 1.356 1_556 S
C485 H464 0.950 . S
C485 C484 1.410 . S
C485 C501 1.377 . S
C486 C484 1.356 1_554 S
C486 C487 1.524 . S
C486 C500 1.377 . S
C487 C486 1.524 . S
C487 C488 1.397 . S
C487 C492 1.363 . S
C488 H465 0.950 . S
C488 C487 1.397 . S
C488 C489 1.334 . S
C489 H466 0.950 . S
C489 C488 1.334 . S
C489 C490 1.287 . S
C490 C489 1.287 . S
C490 C491 1.524 . S
C490 H509 0.913 . S
C491 H467 0.950 . S
C491 C490 1.524 . S
C491 C492 1.415 . S
C492 H468 0.950 . S
C492 C487 1.363 . S
C492 C491 1.415 . S
C493 H469 0.951 . S
C493 C494 1.366 . S
C493 C495 1.388 . S
C494 C493 1.366 . S
C494 C498 1.385 1_556 S
C495 H470 0.951 . S
C495 C493 1.388 . S
C495 C496 1.366 . S
C496 C495 1.366 . S
C496 C497 1.414 1_556 S
C496 C499 1.499 . S
C497 H471 0.950 . S
C497 C496 1.414 1_554 S
C497 C498 1.374 . S
C498 H472 0.950 . S
C498 C494 1.385 1_554 S
C498 C497 1.374 . S
C499 C496 1.499 . S
C499 C500 1.373 1_556 S
C499 C501 1.389 . S
C500 H473 0.950 . S
C500 C486 1.377 . S
C500 C499 1.373 1_554 S
C501 C485 1.377 . S
C501 C499 1.389 . S
C501 C502 1.524 . S
C502 C501 1.524 . S
C502 C503 1.397 . S
C502 C507 1.363 . S
C503 H474 0.950 . S
C503 C502 1.397 . S
C503 C504 1.334 . S
C504 H475 0.950 . S
C504 C503 1.334 . S
C504 C505 1.287 . S
C505 C504 1.287 . S
C505 C506 1.524 . S
C505 H508 0.999 . S
C506 H476 0.950 . S
C506 C505 1.524 . S
C506 C507 1.415 . S
C507 H477 0.950 . S
C507 C502 1.363 . S
C507 C506 1.415 . S
H508 C505 0.999 . S
H509 C490 0.913 . S
H510 C528 0.951 . S
H511 C530 0.951 . S
H512 C532 0.950 . S
H513 C533 0.950 . S
H514 C535 0.950 . S
H515 C538 0.950 . S
H516 C539 0.950 . S
H517 C541 0.950 1_554 S
H518 C542 0.950 . S
H519 C543 0.951 . S
H520 C545 0.951 . S
H521 C547 0.950 . S
H522 C548 0.950 . S
H523 C550 0.957 . S
H524 C553 0.950 . S
H525 C554 0.950 . S
H526 C556 0.950 . S
H527 C557 0.924 1_556 S
C528 H510 0.951 . S
C528 C529 1.366 . S
C528 C530 1.388 . S
C529 C528 1.366 . S
C529 C533 1.385 1_554 S
C530 H511 0.951 . S
C530 C528 1.388 . S
C530 C531 1.366 . S
C531 C530 1.366 . S
C531 C532 1.414 1_554 S
C531 C534 1.499 . S
C532 H512 0.950 . S
C532 C531 1.414 1_556 S
C532 C533 1.374 . S
C533 H513 0.950 . S
C533 C529 1.385 1_556 S
C533 C532 1.374 . S
C534 C531 1.499 . S
C534 C535 1.373 . S
C534 C536 1.389 . S
C535 H514 0.950 . S
C535 C534 1.373 . S
C535 C551 1.377 . S
C536 C534 1.389 . S
C536 C537 1.524 1_554 S
C536 C550 1.377 . S
C537 C536 1.524 1_556 S
C537 C538 1.397 . S
C537 C542 1.363 1_556 S
C538 H515 0.950 . S
C538 C537 1.397 . S
C538 C539 1.334 . S
C539 H516 0.950 . S
C539 C538 1.334 . S
C539 C540 1.287 . S
C540 C539 1.287 . S
C540 C541 1.524 . S
C540 H559 0.913 . S
C541 H517 0.950 1_556 S
C541 C540 1.524 . S
C541 C542 1.415 1_556 S
C542 H518 0.950 . S
C542 C537 1.363 1_554 S
C542 C541 1.415 1_554 S
C543 H519 0.951 . S
C543 C544 1.366 1_556 S
C543 C545 1.388 . S
C544 C543 1.366 1_554 S
C544 C548 1.385 . S
C545 H520 0.951 . S
C545 C543 1.388 . S
C545 C546 1.366 1_556 S
C546 C545 1.366 1_554 S
C546 C547 1.414 . S
C546 C549 1.499 . S
C547 H521 0.950 . S
C547 C546 1.414 . S
C547 C548 1.374 . S
C548 H522 0.950 . S
C548 C544 1.385 . S
C548 C547 1.374 . S
C549 C546 1.499 . S
C549 C550 1.373 . S
C549 C551 1.389 . S
C550 H523 0.957 . S
C550 C536 1.377 . S
C550 C549 1.373 . S
C551 C535 1.377 . S
C551 C549 1.389 . S
C551 C552 1.524 . S
C552 C551 1.524 . S
C552 C553 1.397 . S
C552 C557 1.363 . S
C553 H524 0.950 . S
C553 C552 1.397 . S
C553 C554 1.334 . S
C554 H525 0.950 . S
C554 C553 1.334 . S
C554 C555 1.287 . S
C555 C554 1.287 . S
C555 C556 1.524 . S
C555 H558 0.999 . S
C556 H526 0.950 . S
C556 C555 1.524 . S
C556 C557 1.415 . S
C557 H527 0.924 1_554 S
C557 C552 1.363 . S
C557 C556 1.415 . S
H558 C555 0.999 . S
H559 C540 0.913 . S
H560 C578 0.951 . S
H561 C580 0.951 . S
H562 C582 0.950 . S
H563 C583 0.950 . S
H564 C585 0.950 . S
H565 C588 0.950 . S
H566 C589 0.950 . S
H567 C591 0.950 . S
H568 C592 0.950 . S
H569 C593 0.951 . S
H570 C595 0.951 . S
H571 C597 0.950 . S
H572 C598 0.950 . S
H573 C600 0.950 . S
H574 C603 0.950 . S
H575 C604 0.950 . S
H576 C606 0.950 . S
H577 C607 0.950 1_556 S
C578 H560 0.951 . S
C578 C579 1.366 . S
C578 C580 1.388 . S
C579 C578 1.366 . S
C579 C583 1.385 1_554 S
C580 H561 0.951 . S
C580 C578 1.388 . S
C580 C581 1.366 . S
C581 C580 1.366 . S
C581 C582 1.414 1_554 S
C581 C584 1.499 . S
C582 H562 0.950 . S
C582 C581 1.414 1_556 S
C582 C583 1.374 . S
C583 H563 0.950 . S
C583 C579 1.385 1_556 S
C583 C582 1.374 . S
C584 C581 1.499 . S
C584 C585 1.373 . S
C584 C586 1.389 . S
C585 H564 0.950 . S
C585 C584 1.373 . S
C585 C601 1.377 . S
C586 C584 1.389 . S
C586 C587 1.524 1_554 S
C586 C600 1.377 . S
C587 C586 1.524 1_556 S
C587 C588 1.397 . S
C587 C592 1.363 1_556 S
C588 H565 0.950 . S
C588 C587 1.397 . S
C588 C589 1.334 . S
C589 H566 0.950 . S
C589 C588 1.334 . S
C589 C590 1.287 . S
C590 C589 1.287 . S
C590 C591 1.524 1_556 S
C590 H609 0.913 . S
C591 H567 0.950 . S
C591 C590 1.524 1_554 S
C591 C592 1.415 . S
C592 H568 0.950 . S
C592 C587 1.363 1_554 S
C592 C591 1.415 . S
C593 H569 0.951 . S
C593 C594 1.366 1_556 S
C593 C595 1.388 . S
C594 C593 1.366 1_554 S
C594 C598 1.385 . S
C595 H570 0.951 . S
C595 C593 1.388 . S
C595 C596 1.366 1_556 S
C596 C595 1.366 1_554 S
C596 C597 1.414 . S
C596 C599 1.499 . S
C597 H571 0.950 . S
C597 C596 1.414 . S
C597 C598 1.374 . S
C598 H572 0.950 . S
C598 C594 1.385 . S
C598 C597 1.374 . S
C599 C596 1.499 . S
C599 C600 1.373 . S
C599 C601 1.389 . S
C600 H573 0.950 . S
C600 C586 1.377 . S
C600 C599 1.373 . S
C601 C585 1.377 . S
C601 C599 1.389 . S
C601 C602 1.524 . S
C602 C601 1.524 . S
C602 C603 1.397 . S
C602 C607 1.363 . S
C603 H574 0.950 . S
C603 C602 1.397 . S
C603 C604 1.334 . S
C604 H575 0.950 . S
C604 C603 1.334 . S
C604 C605 1.287 . S
C605 C604 1.287 . S
C605 C606 1.524 . S
C605 H608 0.999 . S
C606 H576 0.950 . S
C606 C605 1.524 . S
C606 C607 1.415 . S
C607 H577 0.950 1_554 S
C607 C602 1.363 . S
C607 C606 1.415 . S
H608 C605 0.999 . S
H609 C590 0.913 . S
H610 C628 0.951 . S
H611 C630 0.951 . S
H612 C632 0.950 . S
H613 C633 0.950 . S
H614 C635 0.950 . S
H615 C638 0.950 . S
H616 C639 0.950 . S
H617 C641 0.950 . S
H618 C642 0.950 . S
H619 C643 0.951 . S
H620 C645 0.951 . S
H621 C647 0.950 . S
H622 C648 0.950 . S
H623 C650 0.950 . S
H624 C653 0.950 . S
H625 C654 0.950 . S
H626 C656 0.950 . S
H627 C657 0.950 . S
C628 H610 0.951 . S
C628 C629 1.366 1_556 S
C628 C630 1.388 . S
C629 C628 1.366 1_554 S
C629 C633 1.385 . S
C630 H611 0.951 . S
C630 C628 1.388 . S
C630 C631 1.366 1_556 S
C631 C630 1.366 1_554 S
C631 C632 1.414 . S
C631 C634 1.499 . S
C632 H612 0.950 . S
C632 C631 1.414 . S
C632 C633 1.374 . S
C633 H613 0.950 . S
C633 C629 1.385 . S
C633 C632 1.374 . S
C634 C631 1.499 . S
C634 C635 1.373 . S
C634 C636 1.389 1_554 S
C635 H614 0.950 . S
C635 C634 1.373 . S
C635 C651 1.377 . S
C636 C634 1.389 1_556 S
C636 C637 1.524 . S
C636 C650 1.377 . S
C637 C636 1.524 . S
C637 C638 1.397 . S
C637 C642 1.363 . S
C638 H615 0.950 . S
C638 C637 1.397 . S
C638 C639 1.334 . S
C639 H616 0.950 . S
C639 C638 1.334 . S
C639 C640 1.287 . S
C640 C639 1.287 . S
C640 C641 1.524 . S
C640 H659 0.913 . S
C641 H617 0.950 . S
C641 C640 1.524 . S
C641 C642 1.415 . S
C642 H618 0.950 . S
C642 C637 1.363 . S
C642 C641 1.415 . S
C643 H619 0.951 . S
C643 C644 1.366 . S
C643 C645 1.388 . S
C644 C643 1.366 . S
C644 C648 1.385 1_554 S
C645 H620 0.951 . S
C645 C643 1.388 . S
C645 C646 1.366 . S
C646 C645 1.366 . S
C646 C647 1.414 1_554 S
C646 C649 1.499 . S
C647 H621 0.950 . S
C647 C646 1.414 1_556 S
C647 C648 1.374 . S
C648 H622 0.950 . S
C648 C644 1.385 1_556 S
C648 C647 1.374 . S
C649 C646 1.499 . S
C649 C650 1.373 1_554 S
C649 C651 1.389 . S
C650 H623 0.950 . S
C650 C636 1.377 . S
C650 C649 1.373 1_556 S
C651 C635 1.377 . S
C651 C649 1.389 . S
C651 C652 1.524 . S
C652 C651 1.524 . S
C652 C653 1.397 . S
C652 C657 1.363 . S
C653 H624 0.950 . S
C653 C652 1.397 . S
C653 C654 1.334 . S
C654 H625 0.950 . S
C654 C653 1.334 . S
C654 C655 1.287 . S
C655 C654 1.287 . S
C655 C656 1.524 . S
C655 H658 0.999 . S
C656 H626 0.950 . S
C656 C655 1.524 . S
C656 C657 1.415 . S
C657 H627 0.950 . S
C657 C652 1.363 . S
C657 C656 1.415 . S
H658 C655 0.999 . S
H659 C640 0.913 . S
H660 C678 0.951 . S
H661 C680 0.951 . S
H662 C682 0.950 . S
H663 C683 0.950 . S
H664 C685 0.950 . S
H665 C688 0.950 . S
H666 C689 0.950 . S
H667 C691 0.950 . S
H668 C692 0.950 . S
H669 C693 0.944 1_455 S
H670 C695 0.951 . S
H671 C697 0.950 . S
H672 C698 0.950 . S
H673 C700 0.950 . S
H674 C703 0.950 . S
H675 C704 0.950 . S
H676 C706 0.950 . S
H677 C707 0.950 . S
C678 H660 0.951 . S
C678 C679 1.366 . S
C678 C680 1.388 . S
C679 C678 1.366 . S
C679 C683 1.385 . S
C680 H661 0.951 . S
C680 C678 1.388 . S
C680 C681 1.366 . S
C681 C680 1.366 . S
C681 C682 1.414 . S
C681 C684 1.499 . S
C682 H662 0.950 . S
C682 C681 1.414 . S
C682 C683 1.374 . S
C683 H663 0.950 . S
C683 C679 1.385 . S
C683 C682 1.374 . S
C684 C681 1.499 . S
C684 C685 1.373 . S
C684 C686 1.389 . S
C685 H664 0.950 . S
C685 C684 1.373 . S
C685 C701 1.377 . S
C686 C684 1.389 . S
C686 C687 1.524 . S
C686 C700 1.377 . S
C687 C686 1.524 . S
C687 C688 1.397 . S
C687 C692 1.363 . S
C688 H665 0.950 . S
C688 C687 1.397 . S
C688 C689 1.334 . S
C689 H666 0.950 . S
C689 C688 1.334 . S
C689 C690 1.287 . S
C690 C689 1.287 . S
C690 C691 1.524 . S
C690 H709 0.913 . S
C691 H667 0.950 . S
C691 C690 1.524 . S
C691 C692 1.415 . S
C692 H668 0.950 . S
C692 C687 1.363 . S
C692 C691 1.415 . S
C693 H669 0.944 1_655 S
C693 C694 1.363 1_655 S
C693 C695 1.398 . S
C694 C693 1.363 1_455 S
C694 C698 1.385 . S
C695 H670 0.951 . S
C695 C693 1.398 . S
C695 C696 1.366 . S
C696 C695 1.366 . S
C696 C697 1.414 . S
C696 C699 1.499 . S
C697 H671 0.950 . S
C697 C696 1.414 . S
C697 C698 1.374 1_655 S
C698 H672 0.950 . S
C698 C694 1.385 . S
C698 C697 1.374 1_455 S
C699 C696 1.499 . S
C699 C700 1.373 . S
C699 C701 1.389 . S
C700 H673 0.950 . S
C700 C686 1.377 . S
C700 C699 1.373 . S
C701 C685 1.377 . S
C701 C699 1.389 . S
C701 C702 1.524 . S
C702 C701 1.524 . S
C702 C703 1.397 . S
C702 C707 1.363 . S
C703 H674 0.950 . S
C703 C702 1.397 . S
C703 C704 1.334 . S
C704 H675 0.950 . S
C704 C703 1.334 . S
C704 C705 1.287 . S
C705 C704 1.287 . S
C705 C706 1.524 . S
C705 H708 0.999 . S
C706 H676 0.950 . S
C706 C705 1.524 . S
C706 C707 1.415 . S
C707 H677 0.950 . S
C707 C702 1.363 . S
C707 C706 1.415 . S
H708 C705 0.999 . S
H709 C690 0.913 . S
H710 C728 0.951 . S
H711 C730 0.951 . S
H712 C732 0.950 . S
H713 C733 0.950 . S
H714 C735 0.950 . S
H715 C738 0.950 . S
H716 C739 0.950 . S
H717 C741 0.950 . S
H718 C742 0.950 . S
H719 C743 0.951 . S
H720 C745 0.951 . S
H721 C747 0.950 . S
H722 C748 0.950 . S
H723 C750 0.950 1_565 S
H724 C753 0.950 . S
H725 C754 0.950 . S
H726 C756 0.950 . S
H727 C757 0.950 . S
C728 H710 0.951 . S
C728 C729 1.366 . S
C728 C730 1.388 . S
C729 C728 1.366 . S
C729 C733 1.385 . S
C730 H711 0.951 . S
C730 C728 1.388 . S
C730 C731 1.366 . S
C731 C730 1.366 . S
C731 C732 1.414 . S
C731 C734 1.499 . S
C732 H712 0.950 . S
C732 C731 1.414 . S
C732 C733 1.374 . S
C733 H713 0.950 . S
C733 C729 1.385 . S
C733 C732 1.374 . S
C734 C731 1.499 . S
C734 C735 1.373 . S
C734 C736 1.389 . S
C735 H714 0.950 . S
C735 C734 1.373 . S
C735 C751 1.377 . S
C736 C734 1.389 . S
C736 C737 1.524 . S
C736 C750 1.377 . S
C737 C736 1.524 . S
C737 C738 1.397 . S
C737 C742 1.363 1_545 S
C738 H715 0.950 . S
C738 C737 1.397 . S
C738 C739 1.334 . S
C739 H716 0.950 . S
C739 C738 1.334 . S
C739 C740 1.287 1_545 S
C740 C739 1.287 1_565 S
C740 C741 1.524 . S
C740 H759 0.913 . S
C741 H717 0.950 . S
C741 C740 1.524 . S
C741 C742 1.415 . S
C742 H718 0.950 . S
C742 C737 1.363 1_565 S
C742 C741 1.415 . S
C743 H719 0.951 . S
C743 C744 1.366 . S
C743 C745 1.388 1_565 S
C744 C743 1.366 . S
C744 C748 1.385 . S
C745 H720 0.951 . S
C745 C743 1.388 1_545 S
C745 C746 1.366 . S
C746 C745 1.366 . S
C746 C747 1.414 1_545 S
C746 C749 1.499 . S
C747 H721 0.950 . S
C747 C746 1.414 1_565 S
C747 C748 1.374 . S
C748 H722 0.950 . S
C748 C744 1.385 . S
C748 C747 1.374 . S
C749 C746 1.499 . S
C749 C750 1.373 . S
C749 C751 1.389 . S
C750 H723 0.950 1_545 S
C750 C736 1.377 . S
C750 C749 1.373 . S
C751 C735 1.377 . S
C751 C749 1.389 . S
C751 C752 1.524 . S
C752 C751 1.524 . S
C752 C753 1.397 . S
C752 C757 1.363 . S
C753 H724 0.950 . S
C753 C752 1.397 . S
C753 C754 1.334 . S
C754 H725 0.950 . S
C754 C753 1.334 . S
C754 C755 1.287 . S
C755 C754 1.287 . S
C755 C756 1.524 . S
C755 H758 0.999 . S
C756 H726 0.950 . S
C756 C755 1.524 . S
C756 C757 1.415 . S
C757 H727 0.950 . S
C757 C752 1.363 . S
C757 C756 1.415 . S
H758 C755 0.999 . S
H759 C740 0.913 . S
H760 C778 0.951 . S
H761 C780 0.951 . S
H762 C782 0.950 . S
H763 C783 0.950 . S
H764 C785 0.950 . S
H765 C788 0.969 . S
H766 C789 0.950 . S
H767 C791 0.950 . S
H768 C792 0.950 . S
H769 C793 0.951 1_565 S
H770 C795 0.951 . S
H771 C797 0.950 . S
H772 C798 0.950 . S
H773 C800 0.950 . S
H774 C803 0.950 . S
H775 C804 0.950 . S
H776 C806 0.950 . S
H777 C807 0.950 . S
C778 H760 0.951 . S
C778 C779 1.366 . S
C778 C780 1.388 . S
C779 C778 1.366 . S
C779 C783 1.385 . S
C780 H761 0.951 . S
C780 C778 1.388 . S
C780 C781 1.393 . S
C781 C780 1.393 . S
C781 C782 1.392 1_455 S
C781 C784 1.493 1_455 S
C782 H762 0.950 . S
C782 C781 1.392 1_655 S
C782 C783 1.374 1_655 S
C783 H763 0.950 . S
C783 C779 1.385 . S
C783 C782 1.374 1_455 S
C784 C781 1.493 1_655 S
C784 C785 1.373 . S
C784 C786 1.389 . S
C785 H764 0.950 . S
C785 C784 1.373 . S
C785 C801 1.377 . S
C786 C784 1.389 . S
C786 C787 1.524 1_655 S
C786 C800 1.377 . S
C787 C786 1.524 1_455 S
C787 C788 1.397 . S
C787 C792 1.363 . S
C788 H765 0.969 . S
C788 C787 1.397 . S
C788 C789 1.334 . S
C789 H766 0.950 . S
C789 C788 1.334 . S
C789 C790 1.287 . S
C790 C789 1.287 . S
C790 C791 1.524 . S
C790 H809 0.913 . S
C791 H767 0.950 . S
C791 C790 1.524 . S
C791 C792 1.415 . S
C792 H768 0.950 . S
C792 C787 1.363 . S
C792 C791 1.415 . S
C793 H769 0.951 1_545 S
C793 C794 1.366 1_545 S
C793 C795 1.388 . S
C794 C793 1.366 1_565 S
C794 C798 1.385 . S
C795 H770 0.951 . S
C795 C793 1.388 . S
C795 C796 1.366 . S
C796 C795 1.366 . S
C796 C797 1.414 . S
C796 C799 1.499 . S
C797 H771 0.950 . S
C797 C796 1.414 . S
C797 C798 1.374 1_545 S
C798 H772 0.950 . S
C798 C794 1.385 . S
C798 C797 1.374 1_565 S
C799 C796 1.499 . S
C799 C800 1.373 . S
C799 C801 1.389 . S
C800 H773 0.950 . S
C800 C786 1.377 . S
C800 C799 1.373 . S
C801 C785 1.377 . S
C801 C799 1.389 . S
C801 C802 1.524 . S
C802 C801 1.524 . S
C802 C803 1.397 . S
C802 C807 1.363 . S
C803 H774 0.950 . S
C803 C802 1.397 . S
C803 C804 1.334 . S
C804 H775 0.950 . S
C804 C803 1.334 . S
C804 C805 1.287 . S
C805 C804 1.287 . S
C805 C806 1.524 . S
C805 H808 0.999 . S
C806 H776 0.950 . S
C806 C805 1.524 . S
C806 C807 1.415 . S
C807 H777 0.950 . S
C807 C802 1.363 . S
C807 C806 1.415 . S
H808 C805 0.999 . S
H809 C790 0.913 . S
H810 C828 0.951 . S
H811 C830 0.951 . S
H812 C832 0.950 . S
H813 C833 0.950 . S
H814 C835 0.950 . S
H815 C838 0.950 . S
H816 C839 0.950 . S
H817 C841 0.950 . S
H818 C842 0.950 . S
H819 C843 0.951 . S
H820 C845 0.951 . S
H821 C847 0.950 . S
H822 C848 0.950 . S
H823 C850 0.950 . S
H824 C853 0.950 . S
H825 C854 0.950 . S
H826 C856 0.950 . S
H827 C857 0.950 . S
C828 H810 0.951 . S
C828 C829 1.366 . S
C828 C830 1.388 . S
C829 C828 1.366 . S
C829 C833 1.385 . S
C830 H811 0.951 . S
C830 C828 1.388 . S
C830 C831 1.366 . S
C831 C830 1.366 . S
C831 C832 1.414 . S
C831 C834 1.499 . S
C832 H812 0.950 . S
C832 C831 1.414 . S
C832 C833 1.374 . S
C833 H813 0.950 . S
C833 C829 1.385 . S
C833 C832 1.374 . S
C834 C831 1.499 . S
C834 C835 1.373 . S
C834 C836 1.389 . S
C835 H814 0.950 . S
C835 C834 1.373 . S
C835 C851 1.377 . S
C836 C834 1.389 . S
C836 C837 1.524 . S
C836 C850 1.377 . S
C837 C836 1.524 . S
C837 C838 1.397 . S
C837 C842 1.363 . S
C838 H815 0.950 . S
C838 C837 1.397 . S
C838 C839 1.334 . S
C839 H816 0.950 . S
C839 C838 1.334 . S
C839 C840 1.287 . S
C840 C839 1.287 . S
C840 C841 1.524 . S
C840 H859 0.913 . S
C841 H817 0.950 . S
C841 C840 1.524 . S
C841 C842 1.415 . S
C842 H818 0.950 . S
C842 C837 1.363 . S
C842 C841 1.415 . S
C843 H819 0.951 . S
C843 C844 1.366 . S
C843 C845 1.388 . S
C844 C843 1.366 . S
C844 C848 1.385 . S
C845 H820 0.951 . S
C845 C843 1.388 . S
C845 C846 1.366 . S
C846 C845 1.366 . S
C846 C847 1.414 . S
C846 C849 1.499 . S
C847 H821 0.950 . S
C847 C846 1.414 . S
C847 C848 1.374 . S
C848 H822 0.950 . S
C848 C844 1.385 . S
C848 C847 1.374 . S
C849 C846 1.499 . S
C849 C850 1.373 . S
C849 C851 1.389 . S
C850 H823 0.950 . S
C850 C836 1.377 . S
C850 C849 1.373 . S
C851 C835 1.377 . S
C851 C849 1.389 . S
C851 C852 1.524 . S
C852 C851 1.524 . S
C852 C853 1.397 . S
C852 C857 1.363 . S
C853 H824 0.950 . S
C853 C852 1.397 . S
C853 C854 1.334 . S
C854 H825 0.950 . S
C854 C853 1.334 . S
C854 C855 1.287 . S
C855 C854 1.287 . S
C855 C856 1.524 . S
C855 H858 0.999 . S
C856 H826 0.950 . S
C856 C855 1.524 . S
C856 C857 1.415 . S
C857 H827 0.950 . S
C857 C852 1.363 . S
C857 C856 1.415 . S
H858 C855 0.999 . S
H859 C840 0.913 . S
H860 C878 0.951 . S
H861 C880 0.951 . S
H862 C882 0.950 . S
H863 C883 0.950 . S
H864 C885 0.950 . S
H865 C888 0.950 . S
H866 C889 0.950 . S
H867 C891 0.950 . S
H868 C892 0.950 . S
H869 C893 0.951 . S
H870 C895 0.951 . S
H871 C897 0.950 . S
H872 C898 0.950 . S
H873 C900 0.950 . S
H874 C903 0.950 . S
H875 C904 0.950 . S
H876 C906 0.950 . S
H877 C907 0.950 . S
C878 H860 0.951 . S
C878 C879 1.366 . S
C878 C880 1.388 . S
C879 C878 1.366 . S
C879 C883 1.385 . S
C880 H861 0.951 . S
C880 C878 1.388 . S
C880 C881 1.366 . S
C881 C880 1.366 . S
C881 C882 1.414 . S
C881 C884 1.499 . S
C882 H862 0.950 . S
C882 C881 1.414 . S
C882 C883 1.374 . S
C883 H863 0.950 . S
C883 C879 1.385 . S
C883 C882 1.374 . S
C884 C881 1.499 . S
C884 C885 1.373 . S
C884 C886 1.389 . S
C885 H864 0.950 . S
C885 C884 1.373 . S
C885 C901 1.377 . S
C886 C884 1.389 . S
C886 C887 1.524 . S
C886 C900 1.377 . S
C887 C886 1.524 . S
C887 C888 1.397 . S
C887 C892 1.363 . S
C888 H865 0.950 . S
C888 C887 1.397 . S
C888 C889 1.334 . S
C889 H866 0.950 . S
C889 C888 1.334 . S
C889 C890 1.287 . S
C890 C889 1.287 . S
C890 C891 1.524 . S
C890 H909 0.913 . S
C891 H867 0.950 . S
C891 C890 1.524 . S
C891 C892 1.415 . S
C892 H868 0.950 . S
C892 C887 1.363 . S
C892 C891 1.415 . S
C893 H869 0.951 . S
C893 C894 1.366 . S
C893 C895 1.388 . S
C894 C893 1.366 . S
C894 C898 1.385 . S
C895 H870 0.951 . S
C895 C893 1.388 . S
C895 C896 1.366 . S
C896 C895 1.366 . S
C896 C897 1.414 . S
C896 C899 1.499 . S
C897 H871 0.950 . S
C897 C896 1.414 . S
C897 C898 1.374 . S
C898 H872 0.950 . S
C898 C894 1.385 . S
C898 C897 1.374 . S
C899 C896 1.499 . S
C899 C900 1.373 . S
C899 C901 1.389 . S
C900 H873 0.950 . S
C900 C886 1.377 . S
C900 C899 1.373 . S
C901 C885 1.377 . S
C901 C899 1.389 . S
C901 C902 1.524 . S
C902 C901 1.524 . S
C902 C903 1.397 . S
C902 C907 1.363 . S
C903 H874 0.950 . S
C903 C902 1.397 . S
C903 C904 1.334 . S
C904 H875 0.950 . S
C904 C903 1.334 . S
C904 C905 1.287 . S
C905 C904 1.287 . S
C905 C906 1.524 . S
C905 H908 0.999 . S
C906 H876 0.950 . S
C906 C905 1.524 . S
C906 C907 1.415 . S
C907 H877 0.950 . S
C907 C902 1.363 . S
C907 C906 1.415 . S
H908 C905 0.999 . S
H909 C890 0.913 . S
H910 C928 0.951 . S
H911 C930 0.951 . S
H912 C932 0.950 . S
H913 C933 0.950 . S
H914 C935 0.950 . S
H915 C938 0.950 . S
H916 C939 0.950 . S
H917 C941 0.950 . S
H918 C942 0.950 . S
H919 C943 0.951 . S
H920 C945 0.951 . S
H921 C947 0.950 . S
H922 C948 0.950 . S
H923 C950 0.950 . S
H924 C953 0.950 . S
H925 C954 0.950 . S
H926 C956 0.950 . S
H927 C957 0.950 . S
C928 H910 0.951 . S
C928 C929 1.366 . S
C928 C930 1.388 . S
C929 C928 1.366 . S
C929 C933 1.385 . S
C930 H911 0.951 . S
C930 C928 1.388 . S
C930 C931 1.366 . S
C931 C930 1.366 . S
C931 C932 1.414 . S
C931 C934 1.499 . S
C932 H912 0.950 . S
C932 C931 1.414 . S
C932 C933 1.374 . S
C933 H913 0.950 . S
C933 C929 1.385 . S
C933 C932 1.374 . S
C934 C931 1.499 . S
C934 C935 1.373 . S
C934 C936 1.389 . S
C935 H914 0.950 . S
C935 C934 1.373 . S
C935 C951 1.377 . S
C936 C934 1.389 . S
C936 C937 1.524 . S
C936 C950 1.377 . S
C937 C936 1.524 . S
C937 C938 1.397 . S
C937 C942 1.363 . S
C938 H915 0.950 . S
C938 C937 1.397 . S
C938 C939 1.334 . S
C939 H916 0.950 . S
C939 C938 1.334 . S
C939 C940 1.287 . S
C940 C939 1.287 . S
C940 C941 1.524 . S
C940 H959 0.913 . S
C941 H917 0.950 . S
C941 C940 1.524 . S
C941 C942 1.415 . S
C942 H918 0.950 . S
C942 C937 1.363 . S
C942 C941 1.415 . S
C943 H919 0.951 . S
C943 C944 1.366 . S
C943 C945 1.388 . S
C944 C943 1.366 . S
C944 C948 1.385 . S
C945 H920 0.951 . S
C945 C943 1.388 . S
C945 C946 1.366 . S
C946 C945 1.366 . S
C946 C947 1.414 . S
C946 C949 1.499 . S
C947 H921 0.950 . S
C947 C946 1.414 . S
C947 C948 1.374 . S
C948 H922 0.950 . S
C948 C944 1.385 . S
C948 C947 1.374 . S
C949 C946 1.499 . S
C949 C950 1.373 . S
C949 C951 1.389 . S
C950 H923 0.950 . S
C950 C936 1.377 . S
C950 C949 1.373 . S
C951 C935 1.377 . S
C951 C949 1.389 . S
C951 C952 1.524 . S
C952 C951 1.524 . S
C952 C953 1.397 . S
C952 C957 1.363 . S
C953 H924 0.950 . S
C953 C952 1.397 . S
C953 C954 1.334 . S
C954 H925 0.950 . S
C954 C953 1.334 . S
C954 C955 1.287 . S
C955 C954 1.287 . S
C955 C956 1.524 . S
C955 H958 0.999 . S
C956 H926 0.950 . S
C956 C955 1.524 . S
C956 C957 1.415 . S
C957 H927 0.950 . S
C957 C952 1.363 . S
C957 C956 1.415 . S
H958 C955 0.999 . S
H959 C940 0.913 . S
H960 C978 0.951 . S
H961 C980 0.951 . S
H962 C982 0.950 . S
H963 C983 0.950 . S
H964 C985 0.950 . S
H965 C988 0.950 . S
H966 C989 0.950 . S
H967 C991 0.950 . S
H968 C992 0.950 . S
H969 C993 0.951 . S
H970 C995 0.951 . S
H971 C997 0.950 . S
H972 C998 0.950 . S
H973 C1000 0.950 . S
H974 C1003 0.950 . S
H975 C1004 0.950 . S
H976 C1006 0.950 . S
H977 C1007 0.950 . S
C978 H960 0.951 . S
C978 C979 1.366 . S
C978 C980 1.388 . S
C979 C978 1.366 . S
C979 C983 1.385 . S
C980 H961 0.951 . S
C980 C978 1.388 . S
C980 C981 1.366 . S
C981 C980 1.366 . S
C981 C982 1.414 . S
C981 C984 1.499 . S
C982 H962 0.950 . S
C982 C981 1.414 . S
C982 C983 1.374 . S
C983 H963 0.950 . S
C983 C979 1.385 . S
C983 C982 1.374 . S
C984 C981 1.499 . S
C984 C985 1.373 . S
C984 C986 1.389 . S
C985 H964 0.950 . S
C985 C984 1.373 . S
C985 C1001 1.377 . S
C986 C984 1.389 . S
C986 C987 1.524 . S
C986 C1000 1.377 . S
C987 C986 1.524 . S
C987 C988 1.397 . S
C987 C992 1.363 . S
C988 H965 0.950 . S
C988 C987 1.397 . S
C988 C989 1.334 . S
C989 H966 0.950 . S
C989 C988 1.334 . S
C989 C990 1.287 . S
C990 C989 1.287 . S
C990 C991 1.524 . S
C990 H1009 0.913 . S
C991 H967 0.950 . S
C991 C990 1.524 . S
C991 C992 1.415 . S
C992 H968 0.950 . S
C992 C987 1.363 . S
C992 C991 1.415 . S
C993 H969 0.951 . S
C993 C994 1.366 . S
C993 C995 1.388 . S
C994 C993 1.366 . S
C994 C998 1.385 . S
C995 H970 0.951 . S
C995 C993 1.388 . S
C995 C996 1.366 . S
C996 C995 1.366 . S
C996 C997 1.414 . S
C996 C999 1.499 . S
C997 H971 0.950 . S
C997 C996 1.414 . S
C997 C998 1.374 . S
C998 H972 0.950 . S
C998 C994 1.385 . S
C998 C997 1.374 . S
C999 C996 1.499 . S
C999 C1000 1.373 . S
C999 C1001 1.389 . S
C1000 H973 0.950 . S
C1000 C986 1.377 . S
C1000 C999 1.373 . S
C1001 C985 1.377 . S
C1001 C999 1.389 . S
C1001 C1002 1.524 . S
C1002 C1001 1.524 . S
C1002 C1003 1.397 . S
C1002 C1007 1.363 . S
C1003 H974 0.950 . S
C1003 C1002 1.397 . S
C1003 C1004 1.334 . S
C1004 H975 0.950 . S
C1004 C1003 1.334 . S
C1004 C1005 1.287 . S
C1005 C1004 1.287 . S
C1005 C1006 1.524 . S
C1005 H1008 0.999 . S
C1006 H976 0.950 . S
C1006 C1005 1.524 . S
C1006 C1007 1.415 . S
C1007 H977 0.950 . S
C1007 C1002 1.363 . S
C1007 C1006 1.415 . S
H1008 C1005 0.999 . S
H1009 C990 0.913 . S
H1010 C1028 0.951 . S
H1011 C1030 0.951 . S
H1012 C1032 0.950 . S
H1013 C1033 0.950 . S
H1014 C1035 0.950 . S
H1015 C1038 0.950 . S
H1016 C1039 0.950 . S
H1017 C1041 0.950 . S
H1018 C1042 0.950 . S
H1019 C1043 0.951 . S
H1020 C1045 0.951 . S
H1021 C1047 0.950 . S
H1022 C1048 0.950 . S
H1023 C1050 0.950 . S
H1024 C1053 0.950 . S
H1025 C1054 0.950 . S
H1026 C1056 0.950 . S
H1027 C1057 0.950 . S
C1028 H1010 0.951 . S
C1028 C1029 1.366 . S
C1028 C1030 1.388 . S
C1029 C1028 1.366 . S
C1029 C1033 1.385 . S
C1030 H1011 0.951 . S
C1030 C1028 1.388 . S
C1030 C1031 1.366 . S
C1031 C1030 1.366 . S
C1031 C1032 1.414 . S
C1031 C1034 1.499 . S
C1032 H1012 0.950 . S
C1032 C1031 1.414 . S
C1032 C1033 1.374 . S
C1033 H1013 0.950 . S
C1033 C1029 1.385 . S
C1033 C1032 1.374 . S
C1034 C1031 1.499 . S
C1034 C1035 1.373 . S
C1034 C1036 1.389 . S
C1035 H1014 0.950 . S
C1035 C1034 1.373 . S
C1035 C1051 1.377 . S
C1036 C1034 1.389 . S
C1036 C1037 1.524 . S
C1036 C1050 1.377 . S
C1037 C1036 1.524 . S
C1037 C1038 1.397 . S
C1037 C1042 1.363 . S
C1038 H1015 0.950 . S
C1038 C1037 1.397 . S
C1038 C1039 1.334 . S
C1039 H1016 0.950 . S
C1039 C1038 1.334 . S
C1039 C1040 1.287 . S
C1040 C1039 1.287 . S
C1040 C1041 1.524 . S
C1040 H1059 0.913 . S
C1041 H1017 0.950 . S
C1041 C1040 1.524 . S
C1041 C1042 1.415 . S
C1042 H1018 0.950 . S
C1042 C1037 1.363 . S
C1042 C1041 1.415 . S
C1043 H1019 0.951 . S
C1043 C1044 1.366 . S
C1043 C1045 1.388 . S
C1044 C1043 1.366 . S
C1044 C1048 1.385 . S
C1045 H1020 0.951 . S
C1045 C1043 1.388 . S
C1045 C1046 1.366 . S
C1046 C1045 1.366 . S
C1046 C1047 1.414 . S
C1046 C1049 1.499 . S
C1047 H1021 0.950 . S
C1047 C1046 1.414 . S
C1047 C1048 1.374 . S
C1048 H1022 0.950 . S
C1048 C1044 1.385 . S
C1048 C1047 1.374 . S
C1049 C1046 1.499 . S
C1049 C1050 1.373 . S
C1049 C1051 1.389 . S
C1050 H1023 0.950 . S
C1050 C1036 1.377 . S
C1050 C1049 1.373 . S
C1051 C1035 1.377 . S
C1051 C1049 1.389 . S
C1051 C1052 1.524 . S
C1052 C1051 1.524 . S
C1052 C1053 1.397 . S
C1052 C1057 1.363 . S
C1053 H1024 0.950 . S
C1053 C1052 1.397 . S
C1053 C1054 1.334 . S
C1054 H1025 0.950 . S
C1054 C1053 1.334 . S
C1054 C1055 1.287 . S
C1055 C1054 1.287 . S
C1055 C1056 1.524 . S
C1055 H1058 0.999 . S
C1056 H1026 0.950 . S
C1056 C1055 1.524 . S
C1056 C1057 1.415 . S
C1057 H1027 0.950 . S
C1057 C1052 1.363 . S
C1057 C1056 1.415 . S
H1058 C1055 0.999 . S
H1059 C1040 0.913 . S
H1060 C1078 0.951 . S
H1061 C1080 0.951 . S
H1062 C1082 0.950 . S
H1063 C1083 0.950 . S
H1064 C1085 0.950 . S
H1065 C1088 0.950 . S
H1066 C1089 0.950 . S
H1067 C1091 0.950 . S
H1068 C1092 0.950 . S
H1069 C1093 0.951 . S
H1070 C1095 0.951 . S
H1071 C1097 0.950 . S
H1072 C1098 0.950 . S
H1073 C1100 0.950 . S
H1074 C1103 0.950 . S
H1075 C1104 0.950 . S
H1076 C1106 0.950 . S
H1077 C1107 0.950 . S
C1078 H1060 0.951 . S
C1078 C1079 1.366 . S
C1078 C1080 1.388 . S
C1079 C1078 1.366 . S
C1079 C1083 1.385 . S
C1080 H1061 0.951 . S
C1080 C1078 1.388 . S
C1080 C1081 1.366 . S
C1081 C1080 1.366 . S
C1081 C1082 1.414 . S
C1081 C1084 1.499 . S
C1082 H1062 0.950 . S
C1082 C1081 1.414 . S
C1082 C1083 1.374 . S
C1083 H1063 0.950 . S
C1083 C1079 1.385 . S
C1083 C1082 1.374 . S
C1084 C1081 1.499 . S
C1084 C1085 1.373 . S
C1084 C1086 1.389 . S
C1085 H1064 0.950 . S
C1085 C1084 1.373 . S
C1085 C1101 1.377 . S
C1086 C1084 1.389 . S
C1086 C1087 1.524 . S
C1086 C1100 1.377 . S
C1087 C1086 1.524 . S
C1087 C1088 1.397 . S
C1087 C1092 1.363 . S
C1088 H1065 0.950 . S
C1088 C1087 1.397 . S
C1088 C1089 1.334 . S
C1089 H1066 0.950 . S
C1089 C1088 1.334 . S
C1089 C1090 1.287 . S
C1090 C1089 1.287 . S
C1090 C1091 1.524 . S
C1090 H1109 0.913 . S
C1091 H1067 0.950 . S
C1091 C1090 1.524 . S
C1091 C1092 1.415 . S
C1092 H1068 0.950 . S
C1092 C1087 1.363 . S
C1092 C1091 1.415 . S
C1093 H1069 0.951 . S
C1093 C1094 1.366 . S
C1093 C1095 1.388 . S
C1094 C1093 1.366 . S
C1094 C1098 1.385 . S
C1095 H1070 0.951 . S
C1095 C1093 1.388 . S
C1095 C1096 1.366 . S
C1096 C1095 1.366 . S
C1096 C1097 1.414 . S
C1096 C1099 1.499 . S
C1097 H1071 0.950 . S
C1097 C1096 1.414 . S
C1097 C1098 1.374 . S
C1098 H1072 0.950 . S
C1098 C1094 1.385 . S
C1098 C1097 1.374 . S
C1099 C1096 1.499 . S
C1099 C1100 1.373 . S
C1099 C1101 1.389 . S
C1100 H1073 0.950 . S
C1100 C1086 1.377 . S
C1100 C1099 1.373 . S
C1101 C1085 1.377 . S
C1101 C1099 1.389 . S
C1101 C1102 1.524 . S
C1102 C1101 1.524 . S
C1102 C1103 1.397 . S
C1102 C1107 1.363 . S
C1103 H1074 0.950 . S
C1103 C1102 1.397 . S
C1103 C1104 1.334 . S
C1104 H1075 0.950 . S
C1104 C1103 1.334 . S
C1104 C1105 1.287 . S
C1105 C1104 1.287 . S
C1105 C1106 1.524 . S
C1105 H1108 0.999 . S
C1106 H1076 0.950 . S
C1106 C1105 1.524 . S
C1106 C1107 1.415 . S
C1107 H1077 0.950 . S
C1107 C1102 1.363 . S
C1107 C1106 1.415 . S
H1108 C1105 0.999 . S
H1109 C1090 0.913 . S
H1110 C1128 0.951 . S
H1111 C1130 0.951 . S
H1112 C1132 0.950 . S
H1113 C1133 0.950 . S
H1114 C1135 0.950 . S
H1115 C1138 0.950 . S
H1116 C1139 0.950 . S
H1117 C1141 0.950 . S
H1118 C1142 0.975 . S
H1119 C1143 0.951 . S
H1120 C1145 0.951 . S
H1121 C1147 0.950 . S
H1122 C1148 0.950 . S
H1123 C1150 0.950 . S
H1124 C1153 0.950 . S
H1125 C1154 0.950 . S
H1126 C1156 0.950 . S
H1127 C1157 0.950 . S
C1128 H1110 0.951 . S
C1128 C1129 1.366 . S
C1128 C1130 1.388 . S
C1129 C1128 1.366 . S
C1129 C1133 1.385 . S
C1130 H1111 0.951 . S
C1130 C1128 1.388 . S
C1130 C1131 1.366 . S
C1131 C1130 1.366 . S
C1131 C1132 1.414 . S
C1131 C1134 1.499 . S
C1132 H1112 0.950 . S
C1132 C1131 1.414 . S
C1132 C1133 1.374 . S
C1133 H1113 0.950 . S
C1133 C1129 1.385 . S
C1133 C1132 1.374 . S
C1134 C1131 1.499 . S
C1134 C1135 1.373 . S
C1134 C1136 1.389 . S
C1135 H1114 0.950 . S
C1135 C1134 1.373 . S
C1135 C1151 1.377 1_565 S
C1136 C1134 1.389 . S
C1136 C1137 1.524 . S
C1136 C1150 1.377 1_565 S
C1137 C1136 1.524 . S
C1137 C1138 1.397 . S
C1137 C1142 1.363 . S
C1138 H1115 0.950 . S
C1138 C1137 1.397 . S
C1138 C1139 1.334 . S
C1139 H1116 0.950 . S
C1139 C1138 1.334 . S
C1139 C1140 1.287 . S
C1140 C1139 1.287 . S
C1140 C1141 1.524 . S
C1140 H1159 0.913 . S
C1141 H1117 0.950 . S
C1141 C1140 1.524 . S
C1141 C1142 1.415 . S
C1142 H1118 0.975 . S
C1142 C1137 1.363 . S
C1142 C1141 1.415 . S
C1143 H1119 0.951 . S
C1143 C1144 1.366 . S
C1143 C1145 1.388 . S
C1144 C1143 1.366 . S
C1144 C1148 1.385 . S
C1145 H1120 0.951 . S
C1145 C1143 1.388 . S
C1145 C1146 1.366 . S
C1146 C1145 1.366 . S
C1146 C1147 1.414 . S
C1146 C1149 1.499 . S
C1147 H1121 0.950 . S
C1147 C1146 1.414 . S
C1147 C1148 1.374 . S
C1148 H1122 0.950 . S
C1148 C1144 1.385 . S
C1148 C1147 1.374 . S
C1149 C1146 1.499 . S
C1149 C1150 1.373 . S
C1149 C1151 1.389 . S
C1150 H1123 0.950 . S
C1150 C1136 1.377 1_545 S
C1150 C1149 1.373 . S
C1151 C1135 1.377 1_545 S
C1151 C1149 1.389 . S
C1151 C1152 1.524 . S
C1152 C1151 1.524 . S
C1152 C1153 1.397 . S
C1152 C1157 1.363 . S
C1153 H1124 0.950 . S
C1153 C1152 1.397 . S
C1153 C1154 1.334 . S
C1154 H1125 0.950 . S
C1154 C1153 1.334 . S
C1154 C1155 1.287 . S
C1155 C1154 1.287 . S
C1155 C1156 1.524 . S
C1155 H1158 0.999 . S
C1156 H1126 0.950 . S
C1156 C1155 1.524 . S
C1156 C1157 1.415 . S
C1157 H1127 0.950 . S
C1157 C1152 1.363 . S
C1157 C1156 1.415 . S
H1158 C1155 0.999 . S
H1159 C1140 0.913 . S
H1160 C1178 0.951 . S
H1161 C1180 0.951 . S
H1162 C1182 0.950 . S
H1163 C1183 0.950 . S
H1164 C1185 0.950 . S
H1165 C1188 0.950 . S
H1166 C1189 0.950 . S
H1167 C1191 0.950 . S
H1168 C1192 0.950 1_455 S
H1169 C1193 0.951 . S
H1170 C1195 0.951 . S
H1171 C1197 0.950 . S
H1172 C1198 0.950 . S
H1173 C1200 0.950 . S
H1174 C1203 0.950 . S
H1175 C1204 0.950 . S
H1176 C1206 0.953 . S
H1177 C1207 0.950 1_655 S
C1178 H1160 0.951 . S
C1178 C1179 1.366 . S
C1178 C1180 1.388 . S
C1179 C1178 1.366 . S
C1179 C1183 1.385 . S
C1180 H1161 0.951 . S
C1180 C1178 1.388 . S
C1180 C1181 1.366 . S
C1181 C1180 1.366 . S
C1181 C1182 1.414 . S
C1181 C1184 1.499 . S
C1182 H1162 0.950 . S
C1182 C1181 1.414 . S
C1182 C1183 1.374 . S
C1183 H1163 0.950 . S
C1183 C1179 1.385 . S
C1183 C1182 1.374 . S
C1184 C1181 1.499 . S
C1184 C1185 1.373 . S
C1184 C1186 1.389 . S
C1185 H1164 0.950 . S
C1185 C1184 1.373 . S
C1185 C1201 1.377 1_655 S
C1186 C1184 1.389 . S
C1186 C1187 1.524 . S
C1186 C1200 1.377 1_655 S
C1187 C1186 1.524 . S
C1187 C1188 1.397 . S
C1187 C1192 1.363 . S
C1188 H1165 0.950 . S
C1188 C1187 1.397 . S
C1188 C1189 1.334 . S
C1189 H1166 0.950 . S
C1189 C1188 1.334 . S
C1189 C1190 1.287 . S
C1190 C1189 1.287 . S
C1190 C1191 1.524 . S
C1190 H1209 0.913 . S
C1191 H1167 0.950 . S
C1191 C1190 1.524 . S
C1191 C1192 1.415 . S
C1192 H1168 0.950 1_655 S
C1192 C1187 1.363 . S
C1192 C1191 1.415 . S
C1193 H1169 0.951 . S
C1193 C1194 1.366 . S
C1193 C1195 1.388 . S
C1194 C1193 1.366 . S
C1194 C1198 1.385 . S
C1195 H1170 0.951 . S
C1195 C1193 1.388 . S
C1195 C1196 1.366 . S
C1196 C1195 1.366 . S
C1196 C1197 1.414 . S
C1196 C1199 1.499 . S
C1197 H1171 0.950 . S
C1197 C1196 1.414 . S
C1197 C1198 1.374 . S
C1198 H1172 0.950 . S
C1198 C1194 1.385 . S
C1198 C1197 1.374 . S
C1199 C1196 1.499 . S
C1199 C1200 1.373 . S
C1199 C1201 1.389 . S
C1200 H1173 0.950 . S
C1200 C1186 1.377 1_455 S
C1200 C1199 1.373 . S
C1201 C1185 1.377 1_455 S
C1201 C1199 1.389 . S
C1201 C1202 1.524 . S
C1202 C1201 1.524 . S
C1202 C1203 1.397 . S
C1202 C1207 1.363 . S
C1203 H1174 0.950 . S
C1203 C1202 1.397 . S
C1203 C1204 1.334 . S
C1204 H1175 0.950 . S
C1204 C1203 1.334 . S
C1204 C1205 1.287 . S
C1205 C1204 1.287 . S
C1205 C1206 1.524 . S
C1205 H1208 0.999 . S
C1206 H1176 0.953 . S
C1206 C1205 1.524 . S
C1206 C1207 1.415 . S
C1207 H1177 0.950 1_455 S
C1207 C1202 1.363 . S
C1207 C1206 1.415 . S
H1208 C1205 0.999 . S
H1209 C1190 0.913 . S
H1210 C1228 0.951 . S
H1211 C1230 0.951 . S
H1212 C1232 0.950 . S
H1213 C1233 0.950 . S
H1214 C1235 0.950 . S
H1215 C1238 0.950 . S
H1216 C1239 0.950 . S
H1217 C1241 0.950 . S
H1218 C1242 0.950 . S
H1219 C1243 0.951 . S
H1220 C1245 0.951 . S
H1221 C1247 0.950 . S
H1222 C1248 0.950 . S
H1223 C1250 0.950 . S
H1224 C1253 0.950 . S
H1225 C1254 0.950 . S
H1226 C1256 0.950 . S
H1227 C1257 0.950 . S
C1228 H1210 0.951 . S
C1228 C1229 1.366 . S
C1228 C1230 1.388 . S
C1229 C1228 1.366 . S
C1229 C1233 1.385 . S
C1230 H1211 0.951 . S
C1230 C1228 1.388 . S
C1230 C1231 1.366 . S
C1231 C1230 1.366 . S
C1231 C1232 1.414 . S
C1231 C1234 1.499 . S
C1232 H1212 0.950 . S
C1232 C1231 1.414 . S
C1232 C1233 1.374 . S
C1233 H1213 0.950 . S
C1233 C1229 1.385 . S
C1233 C1232 1.374 . S
C1234 C1231 1.499 . S
C1234 C1235 1.373 . S
C1234 C1236 1.389 . S
C1235 H1214 0.950 . S
C1235 C1234 1.373 . S
C1235 C1251 1.377 . S
C1236 C1234 1.389 . S
C1236 C1237 1.524 . S
C1236 C1250 1.377 . S
C1237 C1236 1.524 . S
C1237 C1238 1.397 . S
C1237 C1242 1.363 . S
C1238 H1215 0.950 . S
C1238 C1237 1.397 . S
C1238 C1239 1.334 . S
C1239 H1216 0.950 . S
C1239 C1238 1.334 . S
C1239 C1240 1.287 . S
C1240 C1239 1.287 . S
C1240 C1241 1.524 . S
C1240 H1259 0.913 . S
C1241 H1217 0.950 . S
C1241 C1240 1.524 . S
C1241 C1242 1.415 . S
C1242 H1218 0.950 . S
C1242 C1237 1.363 . S
C1242 C1241 1.415 . S
C1243 H1219 0.951 . S
C1243 C1244 1.366 . S
C1243 C1245 1.388 . S
C1244 C1243 1.366 . S
C1244 C1248 1.385 . S
C1245 H1220 0.951 . S
C1245 C1243 1.388 . S
C1245 C1246 1.366 . S
C1246 C1245 1.366 . S
C1246 C1247 1.414 . S
C1246 C1249 1.499 . S
C1247 H1221 0.950 . S
C1247 C1246 1.414 . S
C1247 C1248 1.374 . S
C1248 H1222 0.950 . S
C1248 C1244 1.385 . S
C1248 C1247 1.374 . S
C1249 C1246 1.499 . S
C1249 C1250 1.373 . S
C1249 C1251 1.389 . S
C1250 H1223 0.950 . S
C1250 C1236 1.377 . S
C1250 C1249 1.373 . S
C1251 C1235 1.377 . S
C1251 C1249 1.389 . S
C1251 C1252 1.524 . S
C1252 C1251 1.524 . S
C1252 C1253 1.397 . S
C1252 C1257 1.363 . S
C1253 H1224 0.950 . S
C1253 C1252 1.397 . S
C1253 C1254 1.334 . S
C1254 H1225 0.950 . S
C1254 C1253 1.334 . S
C1254 C1255 1.287 . S
C1255 C1254 1.287 . S
C1255 C1256 1.524 . S
C1255 H1258 0.999 . S
C1256 H1226 0.950 . S
C1256 C1255 1.524 . S
C1256 C1257 1.415 . S
C1257 H1227 0.950 . S
C1257 C1252 1.363 . S
C1257 C1256 1.415 . S
H1258 C1255 0.999 . S
H1259 C1240 0.913 . S
H1260 C1278 0.951 . S
H1261 C1280 0.951 . S
H1262 C1282 0.950 . S
H1263 C1283 0.950 . S
H1264 C1285 0.950 . S
H1265 C1288 0.950 . S
H1266 C1289 0.950 . S
H1267 C1291 0.950 . S
H1268 C1292 0.950 1_655 S
H1269 C1293 0.951 . S
H1270 C1295 0.951 . S
H1271 C1297 0.950 . S
H1272 C1298 0.950 1_655 S
H1273 C1300 0.950 . S
H1274 C1303 0.950 . S
H1275 C1304 0.950 . S
H1276 C1306 0.950 . S
H1277 C1307 0.950 . S
C1278 H1260 0.951 . S
C1278 C1279 1.366 . S
C1278 C1280 1.388 . S
C1279 C1278 1.366 . S
C1279 C1283 1.385 . S
C1280 H1261 0.951 . S
C1280 C1278 1.388 . S
C1280 C1281 1.366 . S
C1281 C1280 1.366 . S
C1281 C1282 1.414 . S
C1281 C1284 1.499 . S
C1282 H1262 0.950 . S
C1282 C1281 1.414 . S
C1282 C1283 1.374 . S
C1283 H1263 0.950 . S
C1283 C1279 1.385 . S
C1283 C1282 1.374 . S
C1284 C1281 1.499 . S
C1284 C1285 1.373 . S
C1284 C1286 1.389 . S
C1285 H1264 0.950 . S
C1285 C1284 1.373 . S
C1285 C1301 1.377 . S
C1286 C1284 1.389 . S
C1286 C1287 1.524 . S
C1286 C1300 1.377 . S
C1287 C1286 1.524 . S
C1287 C1288 1.397 . S
C1287 C1292 1.363 . S
C1288 H1265 0.950 . S
C1288 C1287 1.397 . S
C1288 C1289 1.334 . S
C1289 H1266 0.950 . S
C1289 C1288 1.334 . S
C1289 C1290 1.287 . S
C1290 C1289 1.287 . S
C1290 C1291 1.524 1_455 S
C1290 H1309 0.913 . S
C1291 H1267 0.950 . S
C1291 C1290 1.524 1_655 S
C1291 C1292 1.415 1_655 S
C1292 H1268 0.950 1_455 S
C1292 C1287 1.363 . S
C1292 C1291 1.415 1_455 S
C1293 H1269 0.951 . S
C1293 C1294 1.366 . S
C1293 C1295 1.388 . S
C1294 C1293 1.366 . S
C1294 C1298 1.385 . S
C1295 H1270 0.951 . S
C1295 C1293 1.388 . S
C1295 C1296 1.366 . S
C1296 C1295 1.366 . S
C1296 C1297 1.414 . S
C1296 C1299 1.499 . S
C1297 H1271 0.950 . S
C1297 C1296 1.414 . S
C1297 C1298 1.374 . S
C1298 H1272 0.950 1_455 S
C1298 C1294 1.385 . S
C1298 C1297 1.374 . S
C1299 C1296 1.499 . S
C1299 C1300 1.373 . S
C1299 C1301 1.389 . S
C1300 H1273 0.950 . S
C1300 C1286 1.377 . S
C1300 C1299 1.373 . S
C1301 C1285 1.377 . S
C1301 C1299 1.389 . S
C1301 C1302 1.524 . S
C1302 C1301 1.524 . S
C1302 C1303 1.397 . S
C1302 C1307 1.363 . S
C1303 H1274 0.950 . S
C1303 C1302 1.397 . S
C1303 C1304 1.334 . S
C1304 H1275 0.950 . S
C1304 C1303 1.334 . S
C1304 C1305 1.287 . S
C1305 C1304 1.287 . S
C1305 C1306 1.524 . S
C1305 H1308 0.999 . S
C1306 H1276 0.950 . S
C1306 C1305 1.524 . S
C1306 C1307 1.415 . S
C1307 H1277 0.950 . S
C1307 C1302 1.363 . S
C1307 C1306 1.415 . S
H1308 C1305 0.999 . S
H1309 C1290 0.913 . S
H1310 C1328 0.951 . S
H1311 C1330 0.951 . S
H1312 C1332 0.950 . S
H1313 C1333 0.950 . S
H1314 C1335 0.950 . S
H1315 C1338 0.950 . S
H1316 C1339 0.950 . S
H1317 C1341 0.950 . S
H1318 C1342 0.950 . S
H1319 C1343 0.951 . S
H1320 C1345 0.951 . S
H1321 C1347 0.950 . S
H1322 C1348 0.950 . S
H1323 C1350 0.950 . S
H1324 C1353 0.950 . S
H1325 C1354 0.950 . S
H1326 C1356 0.950 . S
H1327 C1357 0.950 . S
C1328 H1310 0.951 . S
C1328 C1329 1.366 . S
C1328 C1330 1.388 . S
C1329 C1328 1.366 . S
C1329 C1333 1.385 . S
C1330 H1311 0.951 . S
C1330 C1328 1.388 . S
C1330 C1331 1.366 . S
C1331 C1330 1.366 . S
C1331 C1332 1.414 . S
C1331 C1334 1.499 . S
C1332 H1312 0.950 . S
C1332 C1331 1.414 . S
C1332 C1333 1.374 . S
C1333 H1313 0.950 . S
C1333 C1329 1.385 . S
C1333 C1332 1.374 . S
C1334 C1331 1.499 . S
C1334 C1335 1.373 . S
C1334 C1336 1.389 . S
C1335 H1314 0.950 . S
C1335 C1334 1.373 . S
C1335 C1351 1.377 . S
C1336 C1334 1.389 . S
C1336 C1337 1.524 . S
C1336 C1350 1.377 . S
C1337 C1336 1.524 . S
C1337 C1338 1.397 . S
C1337 C1342 1.363 . S
C1338 H1315 0.950 . S
C1338 C1337 1.397 . S
C1338 C1339 1.334 . S
C1339 H1316 0.950 . S
C1339 C1338 1.334 . S
C1339 C1340 1.287 . S
C1340 C1339 1.287 . S
C1340 C1341 1.524 . S
C1340 H1359 0.913 . S
C1341 H1317 0.950 . S
C1341 C1340 1.524 . S
C1341 C1342 1.415 . S
C1342 H1318 0.950 . S
C1342 C1337 1.363 . S
C1342 C1341 1.415 . S
C1343 H1319 0.951 . S
C1343 C1344 1.366 . S
C1343 C1345 1.388 . S
C1344 C1343 1.366 . S
C1344 C1348 1.385 . S
C1345 H1320 0.951 . S
C1345 C1343 1.388 . S
C1345 C1346 1.366 . S
C1346 C1345 1.366 . S
C1346 C1347 1.414 . S
C1346 C1349 1.499 . S
C1347 H1321 0.950 . S
C1347 C1346 1.414 . S
C1347 C1348 1.374 . S
C1348 H1322 0.950 . S
C1348 C1344 1.385 . S
C1348 C1347 1.374 . S
C1349 C1346 1.499 . S
C1349 C1350 1.373 . S
C1349 C1351 1.389 . S
C1350 H1323 0.950 . S
C1350 C1336 1.377 . S
C1350 C1349 1.373 . S
C1351 C1335 1.377 . S
C1351 C1349 1.389 . S
C1351 C1352 1.524 . S
C1352 C1351 1.524 . S
C1352 C1353 1.397 . S
C1352 C1357 1.363 . S
C1353 H1324 0.950 . S
C1353 C1352 1.397 . S
C1353 C1354 1.334 . S
C1354 H1325 0.950 . S
C1354 C1353 1.334 . S
C1354 C1355 1.287 . S
C1355 C1354 1.287 . S
C1355 C1356 1.524 . S
C1355 H1358 0.999 . S
C1356 H1326 0.950 . S
C1356 C1355 1.524 . S
C1356 C1357 1.415 . S
C1357 H1327 0.950 . S
C1357 C1352 1.363 . S
C1357 C1356 1.415 . S
H1358 C1355 0.999 . S
H1359 C1340 0.913 . S
H1360 C1378 0.951 . S
H1361 C1380 0.951 . S
H1362 C1382 0.950 . S
H1363 C1383 0.950 . S
H1364 C1385 0.950 . S
H1365 C1388 0.950 . S
H1366 C1389 0.950 . S
H1367 C1391 0.950 . S
H1368 C1392 0.950 . S
H1369 C1393 0.951 . S
H1370 C1395 0.951 . S
H1371 C1397 0.950 . S
H1372 C1398 0.950 . S
H1373 C1400 0.950 . S
H1374 C1403 0.950 . S
H1375 C1404 0.950 . S
H1376 C1406 0.950 . S
H1377 C1407 0.950 . S
C1378 H1360 0.951 . S
C1378 C1379 1.366 . S
C1378 C1380 1.388 . S
C1379 C1378 1.366 . S
C1379 C1383 1.385 . S
C1380 H1361 0.951 . S
C1380 C1378 1.388 . S
C1380 C1381 1.366 . S
C1381 C1380 1.366 . S
C1381 C1382 1.414 . S
C1381 C1384 1.499 . S
C1382 H1362 0.950 . S
C1382 C1381 1.414 . S
C1382 C1383 1.374 . S
C1383 H1363 0.950 . S
C1383 C1379 1.385 . S
C1383 C1382 1.374 . S
C1384 C1381 1.499 . S
C1384 C1385 1.373 . S
C1384 C1386 1.389 . S
C1385 H1364 0.950 . S
C1385 C1384 1.373 . S
C1385 C1401 1.377 . S
C1386 C1384 1.389 . S
C1386 C1387 1.524 . S
C1386 C1400 1.377 . S
C1387 C1386 1.524 . S
C1387 C1388 1.397 . S
C1387 C1392 1.363 . S
C1388 H1365 0.950 . S
C1388 C1387 1.397 . S
C1388 C1389 1.334 . S
C1389 H1366 0.950 . S
C1389 C1388 1.334 . S
C1389 C1390 1.287 . S
C1390 C1389 1.287 . S
C1390 C1391 1.524 . S
C1390 H1409 0.913 . S
C1391 H1367 0.950 . S
C1391 C1390 1.524 . S
C1391 C1392 1.415 . S
C1392 H1368 0.950 . S
C1392 C1387 1.363 . S
C1392 C1391 1.415 . S
C1393 H1369 0.951 . S
C1393 C1394 1.366 . S
C1393 C1395 1.388 . S
C1394 C1393 1.366 . S
C1394 C1398 1.385 . S
C1395 H1370 0.951 . S
C1395 C1393 1.388 . S
C1395 C1396 1.366 . S
C1396 C1395 1.366 . S
C1396 C1397 1.414 . S
C1396 C1399 1.499 . S
C1397 H1371 0.950 . S
C1397 C1396 1.414 . S
C1397 C1398 1.374 . S
C1398 H1372 0.950 . S
C1398 C1394 1.385 . S
C1398 C1397 1.374 . S
C1399 C1396 1.499 . S
C1399 C1400 1.373 . S
C1399 C1401 1.389 . S
C1400 H1373 0.950 . S
C1400 C1386 1.377 . S
C1400 C1399 1.373 . S
C1401 C1385 1.377 . S
C1401 C1399 1.389 . S
C1401 C1402 1.524 . S
C1402 C1401 1.524 . S
C1402 C1403 1.397 . S
C1402 C1407 1.363 . S
C1403 H1374 0.950 . S
C1403 C1402 1.397 . S
C1403 C1404 1.334 1_565 S
C1404 H1375 0.950 . S
C1404 C1403 1.334 1_545 S
C1404 C1405 1.287 . S
C1405 C1404 1.287 . S
C1405 C1406 1.524 . S
C1405 H1408 0.999 . S
C1406 H1376 0.950 . S
C1406 C1405 1.524 . S
C1406 C1407 1.415 1_545 S
C1407 H1377 0.950 . S
C1407 C1402 1.363 . S
C1407 C1406 1.415 1_565 S
H1408 C1405 0.999 . S
H1409 C1390 0.913 . S
H1410 C1428 0.951 . S
H1411 C1430 0.951 . S
H1412 C1432 0.950 . S
H1413 C1433 0.950 . S
H1414 C1435 0.950 . S
H1415 C1438 0.950 . S
H1416 C1439 0.950 . S
H1417 C1441 0.950 . S
H1418 C1442 0.950 . S
H1419 C1443 0.951 . S
H1420 C1445 0.951 . S
H1421 C1447 0.950 . S
H1422 C1448 0.950 . S
H1423 C1450 0.950 . S
H1424 C1453 0.950 . S
H1425 C1454 0.950 . S
H1426 C1456 0.950 . S
H1427 C1457 0.950 . S
C1428 H1410 0.951 . S
C1428 C1429 1.366 . S
C1428 C1430 1.388 . S
C1429 C1428 1.366 . S
C1429 C1433 1.385 . S
C1430 H1411 0.951 . S
C1430 C1428 1.388 . S
C1430 C1431 1.366 . S
C1431 C1430 1.366 . S
C1431 C1432 1.414 . S
C1431 C1434 1.499 . S
C1432 H1412 0.950 . S
C1432 C1431 1.414 . S
C1432 C1433 1.374 . S
C1433 H1413 0.950 . S
C1433 C1429 1.385 . S
C1433 C1432 1.374 . S
C1434 C1431 1.499 . S
C1434 C1435 1.373 . S
C1434 C1436 1.389 . S
C1435 H1414 0.950 . S
C1435 C1434 1.373 . S
C1435 C1451 1.377 . S
C1436 C1434 1.389 . S
C1436 C1437 1.524 . S
C1436 C1450 1.377 . S
C1437 C1436 1.524 . S
C1437 C1438 1.397 . S
C1437 C1442 1.363 . S
C1438 H1415 0.950 . S
C1438 C1437 1.397 . S
C1438 C1439 1.334 . S
C1439 H1416 0.950 . S
C1439 C1438 1.334 . S
C1439 C1440 1.287 . S
C1440 C1439 1.287 . S
C1440 C1441 1.524 . S
C1440 H1459 0.913 . S
C1441 H1417 0.950 . S
C1441 C1440 1.524 . S
C1441 C1442 1.415 . S
C1442 H1418 0.950 . S
C1442 C1437 1.363 . S
C1442 C1441 1.415 . S
C1443 H1419 0.951 . S
C1443 C1444 1.366 . S
C1443 C1445 1.388 . S
C1444 C1443 1.366 . S
C1444 C1448 1.385 . S
C1445 H1420 0.951 . S
C1445 C1443 1.388 . S
C1445 C1446 1.366 . S
C1446 C1445 1.366 . S
C1446 C1447 1.414 . S
C1446 C1449 1.499 . S
C1447 H1421 0.950 . S
C1447 C1446 1.414 . S
C1447 C1448 1.374 . S
C1448 H1422 0.950 . S
C1448 C1444 1.385 . S
C1448 C1447 1.374 . S
C1449 C1446 1.499 . S
C1449 C1450 1.373 . S
C1449 C1451 1.389 . S
C1450 H1423 0.950 . S
C1450 C1436 1.377 . S
C1450 C1449 1.373 . S
C1451 C1435 1.377 . S
C1451 C1449 1.389 . S
C1451 C1452 1.524 . S
C1452 C1451 1.524 . S
C1452 C1453 1.397 . S
C1452 C1457 1.363 . S
C1453 H1424 0.950 . S
C1453 C1452 1.397 . S
C1453 C1454 1.334 1_545 S
C1454 H1425 0.950 . S
C1454 C1453 1.334 1_565 S
C1454 C1455 1.287 . S
C1455 C1454 1.287 . S
C1455 C1456 1.524 . S
C1455 H1458 0.999 . S
C1456 H1426 0.950 . S
C1456 C1455 1.524 . S
C1456 C1457 1.415 1_565 S
C1457 H1427 0.950 . S
C1457 C1452 1.363 . S
C1457 C1456 1.415 1_545 S
H1458 C1455 0.999 . S
H1459 C1440 0.913 . S
H1460 C1478 0.951 . S
H1461 C1480 0.951 . S
H1462 C1482 0.950 . S
H1463 C1483 0.950 . S
H1464 C1485 0.950 . S
H1465 C1488 0.950 . S
H1466 C1489 0.950 . S
H1467 C1491 0.950 . S
H1468 C1492 0.950 . S
H1469 C1493 0.951 . S
H1470 C1495 0.951 . S
H1471 C1497 0.950 . S
H1472 C1498 0.950 . S
H1473 C1500 0.950 . S
H1474 C1503 0.950 . S
H1475 C1504 0.950 . S
H1476 C1506 0.950 . S
H1477 C1507 0.950 . S
C1478 H1460 0.951 . S
C1478 C1479 1.366 . S
C1478 C1480 1.388 . S
C1479 C1478 1.366 . S
C1479 C1483 1.385 . S
C1480 H1461 0.951 . S
C1480 C1478 1.388 . S
C1480 C1481 1.366 . S
C1481 C1480 1.366 . S
C1481 C1482 1.414 . S
C1481 C1484 1.499 . S
C1482 H1462 0.950 . S
C1482 C1481 1.414 . S
C1482 C1483 1.374 . S
C1483 H1463 0.950 . S
C1483 C1479 1.385 . S
C1483 C1482 1.374 . S
C1484 C1481 1.499 . S
C1484 C1485 1.373 . S
C1484 C1486 1.389 . S
C1485 H1464 0.950 . S
C1485 C1484 1.373 . S
C1485 C1501 1.377 . S
C1486 C1484 1.389 . S
C1486 C1487 1.524 . S
C1486 C1500 1.377 . S
C1487 C1486 1.524 . S
C1487 C1488 1.397 . S
C1487 C1492 1.363 . S
C1488 H1465 0.950 . S
C1488 C1487 1.397 . S
C1488 C1489 1.334 . S
C1489 H1466 0.950 . S
C1489 C1488 1.334 . S
C1489 C1490 1.287 . S
C1490 C1489 1.287 . S
C1490 C1491 1.524 . S
C1490 H1509 0.913 . S
C1491 H1467 0.950 . S
C1491 C1490 1.524 . S
C1491 C1492 1.415 . S
C1492 H1468 0.950 . S
C1492 C1487 1.363 . S
C1492 C1491 1.415 . S
C1493 H1469 0.951 . S
C1493 C1494 1.366 . S
C1493 C1495 1.388 . S
C1494 C1493 1.366 . S
C1494 C1498 1.385 . S
C1495 H1470 0.951 . S
C1495 C1493 1.388 . S
C1495 C1496 1.366 . S
C1496 C1495 1.366 . S
C1496 C1497 1.414 . S
C1496 C1499 1.499 . S
C1497 H1471 0.950 . S
C1497 C1496 1.414 . S
C1497 C1498 1.374 . S
C1498 H1472 0.950 . S
C1498 C1494 1.385 . S
C1498 C1497 1.374 . S
C1499 C1496 1.499 . S
C1499 C1500 1.373 . S
C1499 C1501 1.389 . S
C1500 H1473 0.950 . S
C1500 C1486 1.377 . S
C1500 C1499 1.373 . S
C1501 C1485 1.377 . S
C1501 C1499 1.389 . S
C1501 C1502 1.524 . S
C1502 C1501 1.524 . S
C1502 C1503 1.397 . S
C1502 C1507 1.363 . S
C1503 H1474 0.950 . S
C1503 C1502 1.397 . S
C1503 C1504 1.334 . S
C1504 H1475 0.950 . S
C1504 C1503 1.334 . S
C1504 C1505 1.287 . S
C1505 C1504 1.287 . S
C1505 C1506 1.524 . S
C1505 H1508 0.999 . S
C1506 H1476 0.950 . S
C1506 C1505 1.524 . S
C1506 C1507 1.415 . S
C1507 H1477 0.950 . S
C1507 C1502 1.363 . S
C1507 C1506 1.415 . S
H1508 C1505 0.999 . S
H1509 C1490 0.913 . S
H1510 C1528 0.951 . S
H1511 C1530 0.951 . S
H1512 C1532 0.950 . S
H1513 C1533 0.950 . S
H1514 C1535 0.950 . S
H1515 C1538 0.950 . S
H1516 C1539 0.950 . S
H1517 C1541 0.950 . S
H1518 C1542 0.950 . S
H1519 C1543 0.951 . S
H1520 C1545 0.951 . S
H1521 C1547 0.950 . S
H1522 C1548 0.950 . S
H1523 C1550 0.950 . S
H1524 C1553 0.950 . S
H1525 C1554 0.950 . S
H1526 C1556 0.950 . S
H1527 C1557 0.950 . S
C1528 H1510 0.951 . S
C1528 C1529 1.366 . S
C1528 C1530 1.388 . S
C1529 C1528 1.366 . S
C1529 C1533 1.385 . S
C1530 H1511 0.951 . S
C1530 C1528 1.388 . S
C1530 C1531 1.366 . S
C1531 C1530 1.366 . S
C1531 C1532 1.414 . S
C1531 C1534 1.499 . S
C1532 H1512 0.950 . S
C1532 C1531 1.414 . S
C1532 C1533 1.374 . S
C1533 H1513 0.950 . S
C1533 C1529 1.385 . S
C1533 C1532 1.374 . S
C1534 C1531 1.499 . S
C1534 C1535 1.373 . S
C1534 C1536 1.389 . S
C1535 H1514 0.950 . S
C1535 C1534 1.373 . S
C1535 C1551 1.377 . S
C1536 C1534 1.389 . S
C1536 C1537 1.524 . S
C1536 C1550 1.377 . S
C1537 C1536 1.524 . S
C1537 C1538 1.397 . S
C1537 C1542 1.363 . S
C1538 H1515 0.950 . S
C1538 C1537 1.397 . S
C1538 C1539 1.334 . S
C1539 H1516 0.950 . S
C1539 C1538 1.334 . S
C1539 C1540 1.287 . S
C1540 C1539 1.287 . S
C1540 C1541 1.524 . S
C1540 H1559 0.913 . S
C1541 H1517 0.950 . S
C1541 C1540 1.524 . S
C1541 C1542 1.415 . S
C1542 H1518 0.950 . S
C1542 C1537 1.363 . S
C1542 C1541 1.415 . S
C1543 H1519 0.951 . S
C1543 C1544 1.366 . S
C1543 C1545 1.388 . S
C1544 C1543 1.366 . S
C1544 C1548 1.385 . S
C1545 H1520 0.951 . S
C1545 C1543 1.388 . S
C1545 C1546 1.366 . S
C1546 C1545 1.366 . S
C1546 C1547 1.414 . S
C1546 C1549 1.499 . S
C1547 H1521 0.950 . S
C1547 C1546 1.414 . S
C1547 C1548 1.374 . S
C1548 H1522 0.950 . S
C1548 C1544 1.385 . S
C1548 C1547 1.374 . S
C1549 C1546 1.499 . S
C1549 C1550 1.373 . S
C1549 C1551 1.389 . S
C1550 H1523 0.950 . S
C1550 C1536 1.377 . S
C1550 C1549 1.373 . S
C1551 C1535 1.377 . S
C1551 C1549 1.389 . S
C1551 C1552 1.524 . S
C1552 C1551 1.524 . S
C1552 C1553 1.397 . S
C1552 C1557 1.363 . S
C1553 H1524 0.950 . S
C1553 C1552 1.397 . S
C1553 C1554 1.334 . S
C1554 H1525 0.950 . S
C1554 C1553 1.334 . S
C1554 C1555 1.287 . S
C1555 C1554 1.287 . S
C1555 C1556 1.524 . S
C1555 H1558 0.999 . S
C1556 H1526 0.950 . S
C1556 C1555 1.524 . S
C1556 C1557 1.415 . S
C1557 H1527 0.950 . S
C1557 C1552 1.363 . S
C1557 C1556 1.415 . S
H1558 C1555 0.999 . S
H1559 C1540 0.913 . S
H1560 C1578 0.951 . S
H1561 C1580 0.951 . S
H1562 C1582 0.950 . S
H1563 C1583 0.950 . S
H1564 C1585 0.950 . S
H1565 C1588 0.950 . S
H1566 C1589 0.950 . S
H1567 C1591 0.950 . S
H1568 C1592 0.950 . S
H1569 C1593 0.951 . S
H1570 C1595 0.951 . S
H1571 C1597 0.950 . S
H1572 C1598 0.950 . S
H1573 C1600 0.950 . S
H1574 C1603 0.950 . S
H1575 C1604 0.950 . S
H1576 C1606 0.950 . S
H1577 C1607 0.950 . S
C1578 H1560 0.951 . S
C1578 C1579 1.366 . S
C1578 C1580 1.388 . S
C1579 C1578 1.366 . S
C1579 C1583 1.385 . S
C1580 H1561 0.951 . S
C1580 C1578 1.388 . S
C1580 C1581 1.366 . S
C1581 C1580 1.366 . S
C1581 C1582 1.414 . S
C1581 C1584 1.499 . S
C1582 H1562 0.950 . S
C1582 C1581 1.414 . S
C1582 C1583 1.374 . S
C1583 H1563 0.950 . S
C1583 C1579 1.385 . S
C1583 C1582 1.374 . S
C1584 C1581 1.499 . S
C1584 C1585 1.373 . S
C1584 C1586 1.389 . S
C1585 H1564 0.950 . S
C1585 C1584 1.373 . S
C1585 C1601 1.377 . S
C1586 C1584 1.389 . S
C1586 C1587 1.524 . S
C1586 C1600 1.377 . S
C1587 C1586 1.524 . S
C1587 C1588 1.397 . S
C1587 C1592 1.363 . S
C1588 H1565 0.950 . S
C1588 C1587 1.397 . S
C1588 C1589 1.334 . S
C1589 H1566 0.950 . S
C1589 C1588 1.334 . S
C1589 C1590 1.287 . S
C1590 C1589 1.287 . S
C1590 C1591 1.524 . S
C1590 H1609 0.913 . S
C1591 H1567 0.950 . S
C1591 C1590 1.524 . S
C1591 C1592 1.415 . S
C1592 H1568 0.950 . S
C1592 C1587 1.363 . S
C1592 C1591 1.415 . S
C1593 H1569 0.951 . S
C1593 C1594 1.366 . S
C1593 C1595 1.388 . S
C1594 C1593 1.366 . S
C1594 C1598 1.385 . S
C1595 H1570 0.951 . S
C1595 C1593 1.388 . S
C1595 C1596 1.366 . S
C1596 C1595 1.366 . S
C1596 C1597 1.414 . S
C1596 C1599 1.499 . S
C1597 H1571 0.950 . S
C1597 C1596 1.414 . S
C1597 C1598 1.374 . S
C1598 H1572 0.950 . S
C1598 C1594 1.385 . S
C1598 C1597 1.374 . S
C1599 C1596 1.499 . S
C1599 C1600 1.373 . S
C1599 C1601 1.389 . S
C1600 H1573 0.950 . S
C1600 C1586 1.377 . S
C1600 C1599 1.373 . S
C1601 C1585 1.377 . S
C1601 C1599 1.389 . S
C1601 C1602 1.524 . S
C1602 C1601 1.524 . S
C1602 C1603 1.397 . S
C1602 C1607 1.363 . S
C1603 H1574 0.950 . S
C1603 C1602 1.397 . S
C1603 C1604 1.334 . S
C1604 H1575 0.950 . S
C1604 C1603 1.334 . S
C1604 C1605 1.287 . S
C1605 C1604 1.287 . S
C1605 C1606 1.524 . S
C1605 H1608 0.999 . S
C1606 H1576 0.950 . S
C1606 C1605 1.524 . S
C1606 C1607 1.415 . S
C1607 H1577 0.950 . S
C1607 C1602 1.363 . S
C1607 C1606 1.415 . S
H1608 C1605 0.999 . S
H1609 C1590 0.913 . S
H1610 C1628 0.951 . S
H1611 C1630 0.951 . S
H1612 C1632 0.950 . S
H1613 C1633 0.950 . S
H1614 C1635 0.950 . S
H1615 C1638 0.950 . S
H1616 C1639 0.950 . S
H1617 C1641 0.950 . S
H1618 C1642 0.950 . S
H1619 C1643 0.951 . S
H1620 C1645 0.951 . S
H1621 C1647 0.950 . S
H1622 C1648 0.950 . S
H1623 C1650 0.950 . S
H1624 C1653 0.950 . S
H1625 C1654 0.950 . S
H1626 C1656 0.950 . S
H1627 C1657 0.950 . S
C1628 H1610 0.951 . S
C1628 C1629 1.366 . S
C1628 C1630 1.388 . S
C1629 C1628 1.366 . S
C1629 C1633 1.385 . S
C1630 H1611 0.951 . S
C1630 C1628 1.388 . S
C1630 C1631 1.366 . S
C1631 C1630 1.366 . S
C1631 C1632 1.414 . S
C1631 C1634 1.499 . S
C1632 H1612 0.950 . S
C1632 C1631 1.414 . S
C1632 C1633 1.374 . S
C1633 H1613 0.950 . S
C1633 C1629 1.385 . S
C1633 C1632 1.374 . S
C1634 C1631 1.499 . S
C1634 C1635 1.373 . S
C1634 C1636 1.389 1_565 S
C1635 H1614 0.950 . S
C1635 C1634 1.373 . S
C1635 C1651 1.377 . S
C1636 C1634 1.389 1_545 S
C1636 C1637 1.524 . S
C1636 C1650 1.377 . S
C1637 C1636 1.524 . S
C1637 C1638 1.397 . S
C1637 C1642 1.363 . S
C1638 H1615 0.950 . S
C1638 C1637 1.397 . S
C1638 C1639 1.334 . S
C1639 H1616 0.950 . S
C1639 C1638 1.334 . S
C1639 C1640 1.287 . S
C1640 C1639 1.287 . S
C1640 C1641 1.524 . S
C1640 H1659 0.913 . S
C1641 H1617 0.950 . S
C1641 C1640 1.524 . S
C1641 C1642 1.415 . S
C1642 H1618 0.950 . S
C1642 C1637 1.363 . S
C1642 C1641 1.415 . S
C1643 H1619 0.951 . S
C1643 C1644 1.366 . S
C1643 C1645 1.388 . S
C1644 C1643 1.366 . S
C1644 C1648 1.385 . S
C1645 H1620 0.951 . S
C1645 C1643 1.388 . S
C1645 C1646 1.366 . S
C1646 C1645 1.366 . S
C1646 C1647 1.414 . S
C1646 C1649 1.499 . S
C1647 H1621 0.950 . S
C1647 C1646 1.414 . S
C1647 C1648 1.374 . S
C1648 H1622 0.950 . S
C1648 C1644 1.385 . S
C1648 C1647 1.374 . S
C1649 C1646 1.499 . S
C1649 C1650 1.373 . S
C1649 C1651 1.389 1_545 S
C1650 H1623 0.950 . S
C1650 C1636 1.377 . S
C1650 C1649 1.373 . S
C1651 C1635 1.377 . S
C1651 C1649 1.389 1_565 S
C1651 C1652 1.524 . S
C1652 C1651 1.524 . S
C1652 C1653 1.397 . S
C1652 C1657 1.363 . S
C1653 H1624 0.950 . S
C1653 C1652 1.397 . S
C1653 C1654 1.334 . S
C1654 H1625 0.950 . S
C1654 C1653 1.334 . S
C1654 C1655 1.287 . S
C1655 C1654 1.287 . S
C1655 C1656 1.524 . S
C1655 H1658 0.999 . S
C1656 H1626 0.950 . S
C1656 C1655 1.524 . S
C1656 C1657 1.415 . S
C1657 H1627 0.950 . S
C1657 C1652 1.363 . S
C1657 C1656 1.415 . S
H1658 C1655 0.999 . S
H1659 C1640 0.913 . S
H1660 C1678 0.951 . S
H1661 C1680 0.951 . S
H1662 C1682 0.950 . S
H1663 C1683 0.950 . S
H1664 C1685 0.950 . S
H1665 C1688 0.950 . S
H1666 C1689 0.950 . S
H1667 C1691 0.950 . S
H1668 C1692 0.950 . S
H1669 C1693 0.951 . S
H1670 C1695 0.951 . S
H1671 C1697 0.950 . S
H1672 C1698 0.950 . S
H1673 C1700 0.950 . S
H1674 C1703 0.950 . S
H1675 C1704 0.950 . S
H1676 C1706 0.950 . S
H1677 C1707 0.950 . S
C1678 H1660 0.951 . S
C1678 C1679 1.366 . S
C1678 C1680 1.388 . S
C1679 C1678 1.366 . S
C1679 C1683 1.385 . S
C1680 H1661 0.951 . S
C1680 C1678 1.388 . S
C1680 C1681 1.366 . S
C1681 C1680 1.366 . S
C1681 C1682 1.414 . S
C1681 C1684 1.499 . S
C1682 H1662 0.950 . S
C1682 C1681 1.414 . S
C1682 C1683 1.374 . S
C1683 H1663 0.950 . S
C1683 C1679 1.385 . S
C1683 C1682 1.374 . S
C1684 C1681 1.499 . S
C1684 C1685 1.373 . S
C1684 C1686 1.389 1_655 S
C1685 H1664 0.950 . S
C1685 C1684 1.373 . S
C1685 C1701 1.377 . S
C1686 C1684 1.389 1_455 S
C1686 C1687 1.524 . S
C1686 C1700 1.377 . S
C1687 C1686 1.524 . S
C1687 C1688 1.397 . S
C1687 C1692 1.363 . S
C1688 H1665 0.950 . S
C1688 C1687 1.397 . S
C1688 C1689 1.334 . S
C1689 H1666 0.950 . S
C1689 C1688 1.334 . S
C1689 C1690 1.287 . S
C1690 C1689 1.287 . S
C1690 C1691 1.524 . S
C1690 H1709 0.913 . S
C1691 H1667 0.950 . S
C1691 C1690 1.524 . S
C1691 C1692 1.415 . S
C1692 H1668 0.950 . S
C1692 C1687 1.363 . S
C1692 C1691 1.415 . S
C1693 H1669 0.951 . S
C1693 C1694 1.366 . S
C1693 C1695 1.388 . S
C1694 C1693 1.366 . S
C1694 C1698 1.385 . S
C1695 H1670 0.951 . S
C1695 C1693 1.388 . S
C1695 C1696 1.366 . S
C1696 C1695 1.366 . S
C1696 C1697 1.414 . S
C1696 C1699 1.499 . S
C1697 H1671 0.950 . S
C1697 C1696 1.414 . S
C1697 C1698 1.374 . S
C1698 H1672 0.950 . S
C1698 C1694 1.385 . S
C1698 C1697 1.374 . S
C1699 C1696 1.499 . S
C1699 C1700 1.373 . S
C1699 C1701 1.389 1_455 S
C1700 H1673 0.950 . S
C1700 C1686 1.377 . S
C1700 C1699 1.373 . S
C1701 C1685 1.377 . S
C1701 C1699 1.389 1_655 S
C1701 C1702 1.524 . S
C1702 C1701 1.524 . S
C1702 C1703 1.397 . S
C1702 C1707 1.363 . S
C1703 H1674 0.950 . S
C1703 C1702 1.397 . S
C1703 C1704 1.334 . S
C1704 H1675 0.950 . S
C1704 C1703 1.334 . S
C1704 C1705 1.287 . S
C1705 C1704 1.287 . S
C1705 C1706 1.524 . S
C1705 H1708 0.999 . S
C1706 H1676 0.950 . S
C1706 C1705 1.524 . S
C1706 C1707 1.415 . S
C1707 H1677 0.950 . S
C1707 C1702 1.363 . S
C1707 C1706 1.415 . S
H1708 C1705 0.999 . S
H1709 C1690 0.913 . S
C379 C47 1.488 . S
C394 C2 1.523 . S
C429 C87 1.489 . S
C444 C42 1.523 . S
C479 C82 1.523 . S
C494 C7 1.489 . S
C529 C96 1.380 . S
C544 C51 1.353 . S
C579 C91 1.352 . S
C594 C16 1.380 . S
C629 C11 1.353 . S
C644 C56 1.380 . S
C679 C122 1.524 . S
C694 C167 1.490 . S
C729 C207 1.489 . S
C744 C162 1.523 . S
C779 C202 1.524 . S
C794 C127 1.489 . S
C829 C171 1.353 . S
C844 C216 1.380 . S
C879 C211 1.353 . S
C894 C136 1.380 . S
C929 C176 1.380 . S
C944 C131 1.353 . S
C979 C287 1.488 . S
C994 C242 1.523 . S
C1029 C282 1.523 . S
C1044 C327 1.489 . S
C1079 C322 1.523 . S
C1094 C247 1.488 . S
C1129 C336 1.381 . S
C1144 C291 1.353 . S
C1179 C331 1.353 . S
C1194 C256 1.380 . S
C1229 C251 1.352 . S
C1244 C296 1.380 . S
C1279 C210 2.569 . S
C1294 C19 2.328 . S
C1329 C130 2.569 . S
C1344 C59 2.328 . S
C1379 C99 2.328 . S
C1394 C170 2.569 . S
C1429 C90 2.569 . S
C1444 C259 2.329 . S
C1479 C10 2.569 . S
C1494 C299 2.329 . S
C1529 C339 2.328 . S
C1544 C50 2.569 . S
C1579 C139 2.329 . S
C1594 C330 2.569 . S
C1629 C179 2.329 . S
C1644 C250 2.569 . S
C1679 C290 2.569 . S
C1694 C219 2.328 . S
