# Generated by pormake.
# Topology wgb, (5)-cn, num edge types: 1
# Building blocks:
#     Node 0, Type 0, BuildingBlock: XOMCOT_clean_sbu_0, # of connection points: 5
#     Node 1, Type 0, BuildingBlock: XOMCOT_clean_sbu_0, # of connection points: 5
#     Node 2, Type 0, BuildingBlock: XOMCOT_clean_sbu_0, # of connection points: 5
#     Node 3, Type 0, BuildingBlock: XOMCOT_clean_sbu_0, # of connection points: 5
#     Node 4, Type 0, BuildingBlock: XOMCOT_clean_sbu_0, # of connection points: 5
#     Node 5, Type 0, BuildingBlock: XOMCOT_clean_sbu_0, # of connection points: 5
#     Node 6, Type 0, BuildingBlock: XOMCOT_clean_sbu_0, # of connection points: 5
#     Node 7, Type 0, BuildingBlock: XOMCOT_clean_sbu_0, # of connection points: 5
#     Node 8, Type 0, BuildingBlock: XOMCOT_clean_sbu_0, # of connection points: 5
#     Node 9, Type 0, BuildingBlock: XOMCOT_clean_sbu_0, # of connection points: 5
#     Node 10, Type 0, BuildingBlock: XOMCOT_clean_sbu_0, # of connection points: 5
#     Node 11, Type 0, BuildingBlock: XOMCOT_clean_sbu_0, # of connection points: 5
#     Node 12, Type 0, BuildingBlock: XOMCOT_clean_sbu_0, # of connection points: 5
#     Node 13, Type 0, BuildingBlock: XOMCOT_clean_sbu_0, # of connection points: 5
#     Node 14, Type 0, BuildingBlock: XOMCOT_clean_sbu_0, # of connection points: 5
#     Node 15, Type 0, BuildingBlock: XOMCOT_clean_sbu_0, # of connection points: 5
#     Edge 16, Type (0, 0), None
#     Edge 17, Type (0, 0), None
#     Edge 18, Type (0, 0), None
#     Edge 19, Type (0, 0), None
#     Edge 20, Type (0, 0), None
#     Edge 21, Type (0, 0), None
#     Edge 22, Type (0, 0), None
#     Edge 23, Type (0, 0), None
#     Edge 24, Type (0, 0), None
#     Edge 25, Type (0, 0), None
#     Edge 26, Type (0, 0), None
#     Edge 27, Type (0, 0), None
#     Edge 28, Type (0, 0), None
#     Edge 29, Type (0, 0), None
#     Edge 30, Type (0, 0), None
#     Edge 31, Type (0, 0), None
#     Edge 32, Type (0, 0), None
#     Edge 33, Type (0, 0), None
#     Edge 34, Type (0, 0), None
#     Edge 35, Type (0, 0), None
#     Edge 36, Type (0, 0), None
#     Edge 37, Type (0, 0), None
#     Edge 38, Type (0, 0), None
#     Edge 39, Type (0, 0), None
#     Edge 40, Type (0, 0), None
#     Edge 41, Type (0, 0), None
#     Edge 42, Type (0, 0), None
#     Edge 43, Type (0, 0), None
#     Edge 44, Type (0, 0), None
#     Edge 45, Type (0, 0), None
#     Edge 46, Type (0, 0), None
#     Edge 47, Type (0, 0), None
#     Edge 48, Type (0, 0), None
#     Edge 49, Type (0, 0), None
#     Edge 50, Type (0, 0), None
#     Edge 51, Type (0, 0), None
#     Edge 52, Type (0, 0), None
#     Edge 53, Type (0, 0), None
#     Edge 54, Type (0, 0), None
#     Edge 55, Type (0, 0), None
# Relax obj value: 0.078
# Max RMSD: 0.113
# Mean RMSD: 0.113
data_MOF--net-wgb--node1-XOMCOT_clean_sbu_0--edge1-none
_symmetry_space_group_name_H-M    P1
_symmetry_Int_Tables_number       1
_symmetry_cell_setting            triclinic
loop_
_symmetry_equiv_pos_as_xyz
'x, y, z'
_cell_length_a     29.704114
_cell_length_b     29.704321
_cell_length_c     13.642941
_cell_angle_alpha  89.999619
_cell_angle_beta   89.999763
_cell_angle_gamma 89.998238
loop_
_atom_site_label
_atom_site_type_symbol
_atom_site_fract_x
_atom_site_fract_y
_atom_site_fract_z
_atom_type_partial_charge
Co0 Co 0.35618 0.10736 0.25315 0.0
C1 C 0.33698 0.1976 0.17418 0.0
C2 C 0.3345 0.19875 0.33127 0.0
C3 C 0.32821 0.24215 0.2965 0.0
N4 N 0.33933 0.17069 0.2541 0.0
N5 N 0.32969 0.24078 0.19767 0.0
H6 H 0.34352 0.18721 0.10043 0.0
H7 H 0.33669 0.18864 0.40728 0.0
C8 C 0.26862 0.11196 0.36465 0.0
O9 O 0.25388 0.1424 0.30276 0.0
N10 N 0.37498 0.0451 0.2436 0.0
C11 C 0.39387 0.02988 0.1602 0.0
C12 C 0.40084 0.98492 0.1673 0.0
C13 C 0.37256 1.00868 0.30362 0.0
N14 N 0.38802 0.9713 0.25711 0.0
C15 C 0.34058 0.10809 0.04551 0.0
C16 C 0.25474 0.07266 0.04962 0.0
C17 C 0.27288 0.08671 0.95992 0.0
C18 C 0.31688 0.10337 0.9581 0.0
C19 C 0.27991 0.07759 0.13541 0.0
N20 N 0.32121 0.09784 0.13359 0.0
H21 H 0.37436 0.12146 0.0426 0.0
H22 H 0.26597 0.06459 0.20241 0.0
H23 H 0.40262 0.05019 0.09759 0.0
H24 H 0.35906 0.00928 0.37731 0.0
O25 O 0.41548 0.12546 0.20058 0.0
O26 O 0.39735 0.11681 0.35691 0.0
O27 O 0.30534 0.09093 0.34708 0.0
C28 C 0.42796 0.12567 0.29237 0.0
H29 H 0.32425 0.27222 0.3404 0.0
H30 H 0.41584 0.96391 0.11114 0.0
H31 H 0.22141 0.05795 0.05341 0.0
H32 H 0.33237 0.11421 0.89021 0.0
Co33 Co 0.10733 0.66213 0.82625 0.0
C34 C 0.19758 0.68135 0.90521 0.0
C35 C 0.19873 0.6838 0.74812 0.0
C36 C 0.24213 0.6901 0.78288 0.0
N37 N 0.17067 0.67898 0.82529 0.0
N38 N 0.24076 0.68863 0.88171 0.0
H39 H 0.18719 0.67481 0.97896 0.0
H40 H 0.18862 0.6816 0.67211 0.0
C41 C 0.11194 0.74969 0.71475 0.0
O42 O 0.14238 0.76443 0.77664 0.0
N43 N 0.04508 0.64334 0.83581 0.0
C44 C 0.02986 0.62445 0.91921 0.0
C45 C 0.9849 0.61748 0.91211 0.0
C46 C 1.00866 0.64576 0.77578 0.0
N47 N 0.97128 0.6303 0.82229 0.0
C48 C 0.10807 0.67774 1.03389 0.0
C49 C 0.07264 0.76358 1.02978 0.0
C50 C 0.08669 0.74544 0.11948 0.0
C51 C 0.10335 0.70144 0.1213 0.0
C52 C 0.07757 0.73841 0.94399 0.0
N53 N 0.09782 0.69711 0.94581 0.0
H54 H 0.12145 0.64396 1.0368 0.0
H55 H 0.06456 0.75235 0.87699 0.0
H56 H 0.05016 0.6157 0.98182 0.0
H57 H 0.00926 0.65926 0.70209 0.0
O58 O 0.12544 0.60283 0.87882 0.0
O59 O 0.11679 0.62096 0.7225 0.0
O60 O 0.09091 0.71297 0.73232 0.0
C61 C 0.12565 0.59035 0.78704 0.0
H62 H 0.2722 0.69405 0.73898 0.0
H63 H 0.96389 0.60249 0.96827 0.0
H64 H 0.05793 0.7969 1.02599 0.0
H65 H 0.11419 0.68595 0.18919 0.0
Co66 Co 0.6621 0.911 0.25313 0.0
C67 C 0.68129 0.82075 0.17414 0.0
C68 C 0.68383 0.8196 0.33122 0.0
C69 C 0.69012 0.77621 0.29644 0.0
N70 N 0.67896 0.84767 0.25406 0.0
N71 N 0.6886 0.77758 0.19761 0.0
H72 H 0.67471 0.83115 0.1004 0.0
H73 H 0.68166 0.82972 0.40723 0.0
C74 C 0.74967 0.90641 0.36461 0.0
O75 O 0.76442 0.87598 0.3027 0.0
N76 N 0.64331 0.97326 0.24359 0.0
C77 C 0.62441 0.98848 0.1602 0.0
C78 C 0.61744 0.03344 0.16731 0.0
C79 C 0.64573 0.00967 0.30362 0.0
N80 N 0.63027 0.04706 0.25712 0.0
C81 C 0.67771 0.91027 0.04548 0.0
C82 C 0.76355 0.9457 0.04959 0.0
C83 C 0.74541 0.93165 0.95989 0.0
C84 C 0.70141 0.91499 0.95808 0.0
C85 C 0.73837 0.94078 0.13538 0.0
N86 N 0.69707 0.92053 0.13356 0.0
H87 H 0.64393 0.8969 0.04257 0.0
H88 H 0.75231 0.95378 0.20238 0.0
H89 H 0.61566 0.96818 0.09758 0.0
H90 H 0.65923 1.00907 0.37731 0.0
O91 O 0.60281 0.89289 0.20056 0.0
O92 O 0.62094 0.90154 0.35689 0.0
O93 O 0.71295 0.92743 0.34706 0.0
C94 C 0.59032 0.89268 0.29235 0.0
H95 H 0.6941 0.74614 0.34033 0.0
H96 H 0.60244 0.05445 0.11115 0.0
H97 H 0.79687 0.96042 0.05338 0.0
H98 H 0.68591 0.90416 0.89018 0.0
Co99 Co 0.91094 0.35622 0.82624 0.0
C100 C 0.82069 0.337 0.90521 0.0
C101 C 0.81955 0.33454 0.74812 0.0
C102 C 0.77615 0.32824 0.78288 0.0
N103 N 0.84761 0.33936 0.82529 0.0
N104 N 0.77752 0.32971 0.88171 0.0
H105 H 0.83109 0.34354 0.97896 0.0
H106 H 0.82966 0.33674 0.67211 0.0
C107 C 0.90635 0.26866 0.71475 0.0
O108 O 0.87591 0.25392 0.77665 0.0
N109 N 0.9732 0.37501 0.8358 0.0
C110 C 0.98842 0.39391 0.9192 0.0
C111 C 0.03338 0.40087 0.9121 0.0
C112 C 0.00961 0.37259 0.77578 0.0
N113 N 0.047 0.38804 0.8223 0.0
C114 C 0.91021 0.34062 1.03389 0.0
C115 C 0.94564 0.25478 1.02979 0.0
C116 C 0.93159 0.27292 0.11949 0.0
C117 C 0.91493 0.31692 0.12129 0.0
C118 C 0.94072 0.27995 0.94399 0.0
N119 N 0.92046 0.32125 0.94581 0.0
H120 H 0.89683 0.37439 1.0368 0.0
H121 H 0.95372 0.26601 0.877 0.0
H122 H 0.96811 0.40266 0.98181 0.0
H123 H 1.00902 0.35909 0.7021 0.0
O124 O 0.89283 0.41552 0.87881 0.0
O125 O 0.90149 0.39738 0.72249 0.0
O126 O 0.92737 0.30537 0.73232 0.0
C127 C 0.89263 0.428 0.78703 0.0
H128 H 0.74608 0.32429 0.73899 0.0
H129 H 0.05439 0.41587 0.96827 0.0
H130 H 0.96036 0.22145 1.026 0.0
H131 H 0.90409 0.33241 0.18919 0.0
Co132 Co 0.35618 0.41096 0.07626 0.0
C133 C 0.33705 0.32069 0.1552 0.0
C134 C 0.33447 0.31957 0.99812 0.0
C135 C 0.32819 0.27617 1.03287 0.0
N136 N 0.33936 0.34762 0.0753 0.0
N137 N 0.32977 0.27752 0.13169 0.0
H138 H 0.3436 0.33108 0.22895 0.0
H139 H 0.3366 0.3297 0.92211 0.0
C140 C 0.26861 0.40635 0.9648 0.0
O141 O 0.25387 0.37591 1.0267 0.0
N142 N 0.37494 0.47322 0.08584 0.0
C143 C 0.39381 0.48845 0.16925 0.0
C144 C 0.40078 0.53341 0.16215 0.0
C145 C 0.37254 0.50963 1.0258 0.0
N146 N 0.38798 0.54703 0.07232 0.0
C147 C 0.34056 0.41019 0.28391 0.0
C148 C 0.25473 0.44564 0.2798 0.0
C149 C 0.27286 0.43159 0.3695 0.0
C150 C 0.31686 0.41491 0.37131 0.0
C151 C 0.2799 0.44072 0.19401 0.0
N152 N 0.3212 0.42046 0.19583 0.0
H153 H 0.37434 0.39683 0.28682 0.0
H154 H 0.26596 0.45373 0.12702 0.0
H155 H 0.40255 0.46815 0.23188 0.0
H156 H 0.35907 0.50903 0.95209 0.0
O157 O 0.41548 0.39288 0.12884 0.0
O158 O 0.39735 0.40153 0.97251 0.0
O159 O 0.30533 0.42737 0.98234 0.0
C160 C 0.42797 0.39268 1.03706 0.0
H161 H 0.32415 0.24611 0.98897 0.0
H162 H 0.41576 0.55442 0.21832 0.0
H163 H 0.22141 0.46037 0.27602 0.0
H164 H 0.33235 0.40407 0.4392 0.0
Co165 Co 0.41093 0.66212 1.00314 0.0
C166 C 0.32067 0.68127 0.92418 0.0
C167 C 0.31954 0.68387 0.08126 0.0
C168 C 0.27615 0.69016 0.04651 0.0
N169 N 0.34759 0.67897 1.00409 0.0
N170 N 0.2775 0.68857 0.94769 0.0
H171 H 0.33106 0.6747 0.85044 0.0
H172 H 0.32967 0.68175 0.15727 0.0
C173 C 0.40634 0.7497 0.11459 0.0
O174 O 0.37591 0.76445 0.05268 0.0
N175 N 0.47319 0.64333 0.99358 0.0
C176 C 0.48841 0.62445 0.91018 0.0
C177 C 0.53337 0.61747 0.91728 0.0
C178 C 0.5096 0.64576 0.05361 0.0
N179 N 0.54699 0.6303 1.00709 0.0
C180 C 0.41018 0.67773 0.79549 0.0
C181 C 0.44564 0.76356 0.79959 0.0
C182 C 0.43158 0.74542 0.70989 0.0
C183 C 0.4149 0.70143 0.70809 0.0
C184 C 0.44071 0.73839 0.88538 0.0
N185 N 0.42044 0.69709 0.88357 0.0
H186 H 0.39681 0.64395 0.79258 0.0
H187 H 0.45372 0.75232 0.95237 0.0
H188 H 0.4681 0.6157 0.84756 0.0
H189 H 0.50901 0.65925 0.12729 0.0
O190 O 0.39283 0.60282 0.95058 0.0
O191 O 0.40148 0.62096 0.1069 0.0
O192 O 0.42736 0.71297 0.09706 0.0
C193 C 0.39263 0.59034 0.04236 0.0
H194 H 0.24609 0.6942 0.0904 0.0
H195 H 0.55438 0.60248 0.86111 0.0
H196 H 0.46036 0.79688 0.80337 0.0
H197 H 0.40406 0.68594 0.64019 0.0
Co198 Co 0.6621 0.6074 0.07624 0.0
C199 C 0.68125 0.69767 0.15516 0.0
C200 C 0.68377 0.69879 0.99807 0.0
C201 C 0.69005 0.74219 1.03281 0.0
N202 N 0.67892 0.67074 0.07526 0.0
N203 N 0.68851 0.74084 0.13164 0.0
H204 H 0.67473 0.68727 0.22892 0.0
H205 H 0.68162 0.68866 0.92207 0.0
C206 C 0.74967 0.61202 0.96477 0.0
O207 O 0.7644 0.64247 1.02666 0.0
N208 N 0.64334 0.54513 0.08583 0.0
C209 C 0.62448 0.52991 0.16925 0.0
C210 C 0.61751 0.48495 0.16215 0.0
C211 C 0.64575 0.50872 1.0258 0.0
N212 N 0.63031 0.47133 0.07232 0.0
C213 C 0.67772 0.60817 0.28388 0.0
C214 C 0.76355 0.57272 0.27979 0.0
C215 C 0.74542 0.58678 0.36948 0.0
C216 C 0.70142 0.60345 0.37129 0.0
C217 C 0.73838 0.57765 0.19399 0.0
N218 N 0.69709 0.59791 0.19581 0.0
H219 H 0.64394 0.62154 0.28679 0.0
H220 H 0.75232 0.56464 0.127 0.0
H221 H 0.61574 0.55021 0.23188 0.0
H222 H 0.65922 0.50932 0.95208 0.0
O223 O 0.6028 0.62548 0.12881 0.0
O224 O 0.62093 0.61682 0.97248 0.0
O225 O 0.71296 0.59098 0.98232 0.0
C226 C 0.59031 0.62567 1.03703 0.0
H227 H 0.69406 0.77226 0.9889 0.0
H228 H 0.60253 0.46394 0.21833 0.0
H229 H 0.79688 0.558 0.276 0.0
H230 H 0.68592 0.61429 0.43918 0.0
Co231 Co 0.60735 0.35623 1.00316 0.0
C232 C 0.69761 0.33708 0.92419 0.0
C233 C 0.69874 0.33448 0.08127 0.0
C234 C 0.74213 0.32819 0.04651 0.0
N235 N 0.67069 0.33938 1.0041 0.0
N236 N 0.74078 0.32978 0.94769 0.0
H237 H 0.68722 0.34365 0.85045 0.0
H238 H 0.68861 0.33661 0.15728 0.0
C239 C 0.61194 0.26866 0.11462 0.0
O240 O 0.64237 0.25391 0.0527 0.0
N241 N 0.54509 0.37502 0.9936 0.0
C242 C 0.52987 0.39392 0.91021 0.0
C243 C 0.48491 0.40089 0.91731 0.0
C244 C 0.50868 0.3726 0.05363 0.0
N245 N 0.47129 0.38807 1.00712 0.0
C246 C 0.6081 0.34063 0.79551 0.0
C247 C 0.57265 0.2548 0.79961 0.0
C248 C 0.5867 0.27293 0.70991 0.0
C249 C 0.60338 0.31692 0.70811 0.0
C250 C 0.57757 0.27997 0.8854 0.0
N251 N 0.59783 0.32126 0.88359 0.0
H252 H 0.62147 0.3744 0.7926 0.0
H253 H 0.56456 0.26603 0.95239 0.0
H254 H 0.55018 0.40266 0.84759 0.0
H255 H 0.50928 0.3591 0.12731 0.0
O256 O 0.62545 0.41553 0.95059 0.0
O257 O 0.6168 0.39739 0.10692 0.0
O258 O 0.59093 0.30538 0.09708 0.0
C259 C 0.62566 0.42801 0.04237 0.0
H260 H 0.7722 0.32414 0.09041 0.0
H261 H 0.4639 0.41589 0.86115 0.0
H262 H 0.55792 0.22148 0.8034 0.0
H263 H 0.61422 0.33242 0.64021 0.0
Co264 Co 0.85617 0.60739 0.75313 0.0
C265 C 0.83697 0.69765 0.67418 0.0
C266 C 0.83452 0.69879 0.83127 0.0
C267 C 0.82823 0.74218 0.79652 0.0
N268 N 0.83933 0.67073 0.75409 0.0
N269 N 0.82969 0.74082 0.69769 0.0
H270 H 0.84349 0.68725 0.60042 0.0
H271 H 0.83672 0.68867 0.90728 0.0
C272 C 0.7686 0.61201 0.86455 0.0
O273 O 0.75387 0.64247 0.80267 0.0
N274 N 0.87494 0.54512 0.74356 0.0
C275 C 0.89383 0.5299 0.66015 0.0
C276 C 0.9008 0.48494 0.66726 0.0
C277 C 0.87254 0.50871 0.8036 0.0
N278 N 0.888 0.47132 0.75709 0.0
C279 C 0.84057 0.60815 0.54548 0.0
C280 C 0.75473 0.57271 0.54956 0.0
C281 C 0.77287 0.58677 0.45987 0.0
C282 C 0.81687 0.60343 0.45807 0.0
C283 C 0.7799 0.57763 0.63536 0.0
N284 N 0.8212 0.59789 0.63355 0.0
H285 H 0.87435 0.62152 0.54258 0.0
H286 H 0.76596 0.56462 0.70235 0.0
H287 H 0.90257 0.5502 0.59753 0.0
H288 H 0.85905 0.50931 0.87729 0.0
O289 O 0.91547 0.62548 0.70056 0.0
O290 O 0.89733 0.61682 0.85689 0.0
O291 O 0.80531 0.59097 0.84703 0.0
C292 C 0.92796 0.62567 0.79235 0.0
H293 H 0.82428 0.77226 0.84043 0.0
H294 H 0.91579 0.46393 0.61109 0.0
H295 H 0.72141 0.55799 0.55334 0.0
H296 H 0.83237 0.61428 0.39018 0.0
Co297 Co 0.60734 0.16216 0.32628 0.0
C298 C 0.6976 0.18136 0.40523 0.0
C299 C 0.69874 0.18384 0.24814 0.0
C300 C 0.74213 0.19013 0.28289 0.0
N301 N 0.67068 0.17901 0.32532 0.0
N302 N 0.74077 0.18865 0.38172 0.0
H303 H 0.68721 0.17482 0.47898 0.0
H304 H 0.68862 0.18165 0.17214 0.0
C305 C 0.61194 0.24974 0.21484 0.0
O306 O 0.64239 0.26447 0.27672 0.0
N307 N 0.54508 0.14338 0.33585 0.0
C308 C 0.52986 0.1245 0.41926 0.0
C309 C 0.4849 0.11751 0.41214 0.0
C310 C 0.50867 0.14578 0.27581 0.0
N311 N 0.47128 0.13031 0.32231 0.0
C312 C 0.60809 0.17777 0.53393 0.0
C313 C 0.57264 0.2636 0.52983 0.0
C314 C 0.58671 0.24547 0.61953 0.0
C315 C 0.60338 0.20147 0.62134 0.0
C316 C 0.57757 0.23843 0.44404 0.0
N317 N 0.59783 0.19714 0.44586 0.0
H318 H 0.62147 0.144 0.53684 0.0
H319 H 0.56455 0.25237 0.37705 0.0
H320 H 0.55016 0.11577 0.48189 0.0
H321 H 0.50927 0.15926 0.20211 0.0
O322 O 0.62544 0.10286 0.37885 0.0
O323 O 0.61678 0.121 0.22252 0.0
O324 O 0.59092 0.21301 0.23237 0.0
C325 C 0.62564 0.09038 0.28707 0.0
H326 H 0.7722 0.19409 0.23899 0.0
H327 H 0.46389 0.10252 0.46832 0.0
H328 H 0.55792 0.29692 0.52605 0.0
H329 H 0.61422 0.18598 0.68923 0.0
Co330 Co 0.16211 0.41096 0.75314 0.0
C331 C 0.18131 0.32071 0.67419 0.0
C332 C 0.18377 0.31956 0.83128 0.0
C333 C 0.19007 0.27617 0.79653 0.0
N334 N 0.17895 0.34762 0.7541 0.0
N335 N 0.1886 0.27753 0.6977 0.0
H336 H 0.17478 0.3311 0.60044 0.0
H337 H 0.18158 0.32968 0.90729 0.0
C338 C 0.24968 0.40635 0.86457 0.0
O339 O 0.26441 0.3759 0.8027 0.0
N340 N 0.14333 0.47322 0.74358 0.0
C341 C 0.12444 0.48845 0.66018 0.0
C342 C 0.11746 0.5334 0.66728 0.0
C343 C 0.14574 0.50964 0.80361 0.0
N344 N 0.13027 0.54702 0.7571 0.0
C345 C 0.17771 0.41021 0.5455 0.0
C346 C 0.26355 0.44565 0.54958 0.0
C347 C 0.24541 0.43159 0.45989 0.0
C348 C 0.20141 0.41493 0.45809 0.0
C349 C 0.23838 0.44073 0.63538 0.0
N350 N 0.19708 0.42047 0.63357 0.0
H351 H 0.14393 0.39683 0.5426 0.0
H352 H 0.25232 0.45374 0.70237 0.0
H353 H 0.1157 0.46814 0.59755 0.0
H354 H 0.15923 0.50904 0.8773 0.0
O355 O 0.10281 0.39287 0.70057 0.0
O356 O 0.12094 0.40152 0.8569 0.0
O357 O 0.21296 0.42738 0.84706 0.0
C358 C 0.09032 0.39267 0.79236 0.0
H359 H 0.19402 0.2461 0.84044 0.0
H360 H 0.10247 0.55441 0.61111 0.0
H361 H 0.29687 0.46037 0.55336 0.0
H362 H 0.18591 0.40408 0.3902 0.0
Co363 Co 0.41095 0.85619 0.32626 0.0
C364 C 0.32069 0.83699 0.40521 0.0
C365 C 0.31955 0.83452 0.24812 0.0
C366 C 0.27616 0.82823 0.28287 0.0
N367 N 0.34761 0.83935 0.3253 0.0
N368 N 0.27752 0.8297 0.3817 0.0
H369 H 0.33108 0.84352 0.47896 0.0
H370 H 0.32967 0.83671 0.17212 0.0
C371 C 0.40634 0.76862 0.21482 0.0
O372 O 0.37589 0.75388 0.2767 0.0
N373 N 0.47321 0.87497 0.33583 0.0
C374 C 0.48843 0.89385 0.41924 0.0
C375 C 0.53339 0.90084 0.41213 0.0
C376 C 0.50962 0.87258 0.27578 0.0
N377 N 0.547 0.88804 0.32229 0.0
C378 C 0.41019 0.84058 0.53391 0.0
C379 C 0.44564 0.75475 0.52981 0.0
C380 C 0.43158 0.77288 0.61951 0.0
C381 C 0.41491 0.81688 0.62131 0.0
C382 C 0.44072 0.77992 0.44402 0.0
N383 N 0.42046 0.82121 0.44583 0.0
H384 H 0.39681 0.87436 0.53681 0.0
H385 H 0.45373 0.76598 0.37703 0.0
H386 H 0.46813 0.90258 0.48187 0.0
H387 H 0.50902 0.8591 0.20208 0.0
O388 O 0.39285 0.91549 0.37884 0.0
O389 O 0.40151 0.89736 0.22251 0.0
O390 O 0.42737 0.80534 0.23234 0.0
C391 C 0.39265 0.92798 0.28705 0.0
H392 H 0.24608 0.82427 0.23897 0.0
H393 H 0.5544 0.91583 0.4683 0.0
H394 H 0.46036 0.72143 0.52603 0.0
H395 H 0.40406 0.83237 0.6892 0.0
Co396 Co 0.85618 0.911 0.57626 0.0
C397 C 0.83705 0.82073 0.65522 0.0
C398 C 0.83442 0.81961 0.49814 0.0
C399 C 0.82814 0.77622 0.5329 0.0
N400 N 0.83934 0.84766 0.57532 0.0
N401 N 0.82975 0.77756 0.63172 0.0
H402 H 0.84364 0.83112 0.72896 0.0
H403 H 0.83652 0.82974 0.42213 0.0
C404 C 0.76859 0.90641 0.46484 0.0
O405 O 0.75384 0.87598 0.52674 0.0
N406 N 0.87496 0.97325 0.58582 0.0
C407 C 0.89384 0.98848 0.66923 0.0
C408 C 0.90082 0.03343 0.66212 0.0
C409 C 0.87256 0.00966 0.52578 0.0
N410 N 0.88802 0.04705 0.57229 0.0
C411 C 0.84056 0.91024 0.78391 0.0
C412 C 0.75474 0.94571 0.77981 0.0
C413 C 0.77287 0.93164 0.8695 0.0
C414 C 0.81686 0.91496 0.87131 0.0
C415 C 0.77991 0.94079 0.69402 0.0
N416 N 0.8212 0.92051 0.69583 0.0
H417 H 0.87434 0.89686 0.78682 0.0
H418 H 0.76598 0.95381 0.62703 0.0
H419 H 0.90257 0.96817 0.73186 0.0
H420 H 0.85908 1.00906 0.45208 0.0
O421 O 0.91548 0.8929 0.62883 0.0
O422 O 0.89734 0.90155 0.47251 0.0
O423 O 0.80533 0.92742 0.48234 0.0
C424 C 0.92796 0.89269 0.53705 0.0
H425 H 0.82407 0.74616 0.489 0.0
H426 H 0.91581 0.05444 0.71829 0.0
H427 H 0.72143 0.96045 0.77602 0.0
H428 H 0.83235 0.90411 0.93921 0.0
Co429 Co 0.91095 0.16215 0.50312 0.0
C430 C 0.82068 0.18128 0.42418 0.0
C431 C 0.81957 0.18389 0.58126 0.0
C432 C 0.77617 0.19018 0.54651 0.0
N433 N 0.84761 0.17899 0.50408 0.0
N434 N 0.77751 0.18858 0.44769 0.0
H435 H 0.83107 0.17471 0.35043 0.0
H436 H 0.8297 0.18178 0.65726 0.0
C437 C 0.90636 0.24974 0.61453 0.0
O438 O 0.87592 0.26448 0.55263 0.0
N439 N 0.97322 0.14337 0.49355 0.0
C440 C 0.98844 0.12451 0.41014 0.0
C441 C 0.0334 0.11752 0.41725 0.0
C442 C 0.00962 0.14576 0.55361 0.0
N443 N 0.04701 0.13031 0.50709 0.0
C444 C 0.91019 0.17777 0.29547 0.0
C445 C 0.94566 0.26359 0.29956 0.0
C446 C 0.93159 0.24546 0.20987 0.0
C447 C 0.9149 0.20147 0.20807 0.0
C448 C 0.94073 0.23841 0.38536 0.0
N449 N 0.92046 0.19713 0.38355 0.0
H450 H 0.89681 0.14399 0.29256 0.0
H451 H 0.95376 0.25234 0.45234 0.0
H452 H 0.96814 0.11578 0.3475 0.0
H453 H 1.00902 0.15923 0.62732 0.0
O454 O 0.89286 0.10285 0.45055 0.0
O455 O 0.90152 0.12099 0.60688 0.0
O456 O 0.92737 0.213 0.59703 0.0
C457 C 0.89266 0.09037 0.54234 0.0
H458 H 0.74611 0.19424 0.59041 0.0
H459 H 0.05441 0.10253 0.36108 0.0
H460 H 0.96039 0.2969 0.30334 0.0
H461 H 0.90405 0.18598 0.14018 0.0
Co462 Co 0.16211 0.10735 0.57628 0.0
C463 C 0.18123 0.19762 0.65524 0.0
C464 C 0.18386 0.19874 0.49816 0.0
C465 C 0.19014 0.24214 0.53291 0.0
N466 N 0.17895 0.1707 0.57533 0.0
N467 N 0.18854 0.24079 0.63173 0.0
H468 H 0.17465 0.18723 0.72897 0.0
H469 H 0.18176 0.18861 0.42215 0.0
C470 C 0.2497 0.11195 0.46488 0.0
O471 O 0.26444 0.14238 0.52678 0.0
N472 N 0.14333 0.04509 0.58584 0.0
C473 C 0.12446 0.02987 0.66925 0.0
C474 C 0.11748 0.98491 0.66214 0.0
C475 C 0.14574 1.00869 0.52579 0.0
N476 N 0.13028 0.9713 0.57231 0.0
C477 C 0.17772 0.10812 0.78393 0.0
C478 C 0.26355 0.07265 0.77984 0.0
C479 C 0.24542 0.08672 0.86953 0.0
C480 C 0.20142 0.1034 0.87134 0.0
C481 C 0.23837 0.07757 0.69405 0.0
N482 N 0.19708 0.09785 0.69586 0.0
H483 H 0.14394 0.12149 0.78684 0.0
H484 H 0.25231 0.06455 0.62706 0.0
H485 H 0.11573 0.05017 0.73188 0.0
H486 H 0.15921 0.00929 0.45209 0.0
O487 O 0.10281 0.12545 0.62884 0.0
O488 O 0.12095 0.1168 0.47252 0.0
O489 O 0.21297 0.09094 0.48237 0.0
C490 C 0.09033 0.12565 0.53705 0.0
H491 H 0.1942 0.2722 0.48901 0.0
H492 H 0.1025 0.9639 0.71831 0.0
H493 H 0.29686 0.05791 0.77606 0.0
H494 H 0.18593 0.11425 0.93923 0.0
Co495 Co 0.10734 0.8562 0.50312 0.0
C496 C 0.1976 0.83707 0.42416 0.0
C497 C 0.19872 0.83444 0.58124 0.0
C498 C 0.24212 0.82815 0.54649 0.0
N499 N 0.17068 0.83936 0.50407 0.0
N500 N 0.24078 0.82976 0.44767 0.0
H501 H 0.18722 0.84365 0.35042 0.0
H502 H 0.18859 0.83655 0.65725 0.0
C503 C 0.11192 0.76861 0.61452 0.0
O504 O 0.14236 0.75386 0.55262 0.0
N505 N 0.04508 0.87499 0.49356 0.0
C506 C 0.02986 0.89387 0.41016 0.0
C507 C 0.9849 0.90086 0.41727 0.0
C508 C 1.00867 0.87259 0.55361 0.0
N509 N 0.97128 0.88806 0.5071 0.0
C510 C 0.1081 0.84059 0.29547 0.0
C511 C 0.07262 0.75477 0.29956 0.0
C512 C 0.0867 0.7729 0.20987 0.0
C513 C 0.10338 0.81689 0.20806 0.0
C514 C 0.07755 0.77994 0.38535 0.0
N515 N 0.09783 0.82123 0.38354 0.0
H516 H 0.12148 0.87437 0.29256 0.0
H517 H 0.06452 0.76601 0.45234 0.0
H518 H 0.05016 0.9026 0.34752 0.0
H519 H 0.00927 0.8591 0.6273 0.0
O520 O 0.12544 0.9155 0.45056 0.0
O521 O 0.11678 0.89736 0.60688 0.0
O522 O 0.09092 0.80535 0.59703 0.0
C523 C 0.12564 0.92798 0.54235 0.0
H524 H 0.27218 0.82409 0.59039 0.0
H525 H 0.96389 0.91584 0.3611 0.0
H526 H 0.05789 0.72146 0.30334 0.0
H527 H 0.11423 0.83238 0.14017 0.0
loop_
_geom_bond_atom_site_label_1
_geom_bond_atom_site_label_2
_geom_bond_distance
_geom_bond_site_symmetry_2
_ccdc_geom_bond_type
Co0 N4 2.148 . S
Co0 N10 2.128 . S
Co0 N20 2.194 . S
Co0 O25 2.351 . S
Co0 O26 2.155 . S
Co0 O27 2.096 . S
C1 N4 1.301 . S
C1 N5 1.328 . S
C1 H6 0.930 . S
C2 C3 1.333 . S
C2 N4 1.317 . S
C2 H7 0.930 . S
C3 C2 1.333 . S
C3 N5 1.350 . S
C3 H29 0.931 . S
N4 Co0 2.148 . S
N4 C1 1.301 . S
N4 C2 1.317 . S
N5 C1 1.328 . S
N5 C3 1.350 . S
H6 C1 0.930 . S
H7 C2 0.930 . S
C8 O9 1.224 . S
C8 O27 1.247 . S
O9 C8 1.224 . S
N10 Co0 2.128 . S
N10 C11 1.355 . S
N10 C13 1.311 1_545 S
C11 N10 1.355 . S
C11 C12 1.363 1_545 S
C11 H23 0.929 . S
C12 C11 1.363 1_565 S
C12 N14 1.375 . S
C12 H30 0.931 . S
C13 N10 1.311 1_565 S
C13 N14 1.347 . S
C13 H24 0.926 1_565 S
N14 C12 1.375 . S
N14 C13 1.347 . S
C15 C18 1.365 1_554 S
C15 N20 1.328 . S
C15 H21 0.929 . S
C16 C17 1.362 . S
C16 C19 1.378 1_556 S
C16 H31 0.929 . S
C17 C16 1.362 . S
C17 C18 1.366 . S
C18 C15 1.365 1_556 S
C18 C17 1.366 . S
C18 H32 0.930 . S
C19 C16 1.378 1_554 S
C19 N20 1.315 . S
C19 H22 0.930 . S
N20 Co0 2.194 . S
N20 C15 1.328 . S
N20 C19 1.315 . S
H21 C15 0.929 . S
H22 C19 0.930 . S
H23 C11 0.929 . S
H24 C13 0.926 1_545 S
O25 Co0 2.351 . S
O25 C28 1.244 . S
O26 Co0 2.155 . S
O26 C28 1.240 . S
O27 Co0 2.096 . S
O27 C8 1.247 . S
C28 O25 1.244 . S
C28 O26 1.240 . S
H29 C3 0.931 . S
H30 C12 0.931 . S
H31 C16 0.929 . S
H32 C18 0.930 . S
Co33 N37 2.148 . S
Co33 N43 2.128 . S
Co33 N53 2.194 . S
Co33 O58 2.351 . S
Co33 O59 2.155 . S
Co33 O60 2.096 . S
C34 N37 1.301 . S
C34 N38 1.328 . S
C34 H39 0.930 . S
C35 C36 1.333 . S
C35 N37 1.317 . S
C35 H40 0.930 . S
C36 C35 1.333 . S
C36 N38 1.350 . S
C36 H62 0.931 . S
N37 Co33 2.148 . S
N37 C34 1.301 . S
N37 C35 1.317 . S
N38 C34 1.328 . S
N38 C36 1.350 . S
H39 C34 0.930 . S
H40 C35 0.930 . S
C41 O42 1.224 . S
C41 O60 1.247 . S
O42 C41 1.224 . S
N43 Co33 2.128 . S
N43 C44 1.355 . S
N43 C46 1.311 1_455 S
C44 N43 1.355 . S
C44 C45 1.363 1_455 S
C44 H56 0.929 . S
C45 C44 1.363 1_655 S
C45 N47 1.375 . S
C45 H63 0.931 . S
C46 N43 1.311 1_655 S
C46 N47 1.347 . S
C46 H57 0.926 1_655 S
N47 C45 1.375 . S
N47 C46 1.347 . S
C48 C51 1.365 1_556 S
C48 N53 1.328 . S
C48 H54 0.929 . S
C49 C50 1.362 . S
C49 C52 1.378 1_554 S
C49 H64 0.929 . S
C50 C49 1.362 . S
C50 C51 1.366 . S
C51 C48 1.365 1_554 S
C51 C50 1.366 . S
C51 H65 0.930 . S
C52 C49 1.378 1_556 S
C52 N53 1.315 . S
C52 H55 0.930 . S
N53 Co33 2.194 . S
N53 C48 1.328 . S
N53 C52 1.315 . S
H54 C48 0.929 . S
H55 C52 0.930 . S
H56 C44 0.929 . S
H57 C46 0.926 1_455 S
O58 Co33 2.351 . S
O58 C61 1.244 . S
O59 Co33 2.155 . S
O59 C61 1.240 . S
O60 Co33 2.096 . S
O60 C41 1.247 . S
C61 O58 1.244 . S
C61 O59 1.240 . S
H62 C36 0.931 . S
H63 C45 0.931 . S
H64 C49 0.929 . S
H65 C51 0.930 . S
Co66 N70 2.148 . S
Co66 N76 2.128 . S
Co66 N86 2.194 . S
Co66 O91 2.351 . S
Co66 O92 2.155 . S
Co66 O93 2.096 . S
C67 N70 1.301 . S
C67 N71 1.328 . S
C67 H72 0.930 . S
C68 C69 1.333 . S
C68 N70 1.317 . S
C68 H73 0.930 . S
C69 C68 1.333 . S
C69 N71 1.350 . S
C69 H95 0.931 . S
N70 Co66 2.148 . S
N70 C67 1.301 . S
N70 C68 1.317 . S
N71 C67 1.328 . S
N71 C69 1.350 . S
H72 C67 0.930 . S
H73 C68 0.930 . S
C74 O75 1.224 . S
C74 O93 1.247 . S
O75 C74 1.224 . S
N76 Co66 2.128 . S
N76 C77 1.355 . S
N76 C79 1.311 1_565 S
C77 N76 1.355 . S
C77 C78 1.363 1_565 S
C77 H89 0.929 . S
C78 C77 1.363 1_545 S
C78 N80 1.375 . S
C78 H96 0.931 . S
C79 N76 1.311 1_545 S
C79 N80 1.347 . S
C79 H90 0.926 1_545 S
N80 C78 1.375 . S
N80 C79 1.347 . S
C81 C84 1.365 1_554 S
C81 N86 1.328 . S
C81 H87 0.929 . S
C82 C83 1.362 . S
C82 C85 1.378 1_556 S
C82 H97 0.929 . S
C83 C82 1.362 . S
C83 C84 1.366 . S
C84 C81 1.365 1_556 S
C84 C83 1.366 . S
C84 H98 0.930 . S
C85 C82 1.378 1_554 S
C85 N86 1.315 . S
C85 H88 0.930 . S
N86 Co66 2.194 . S
N86 C81 1.328 . S
N86 C85 1.315 . S
H87 C81 0.929 . S
H88 C85 0.930 . S
H89 C77 0.929 . S
H90 C79 0.926 1_565 S
O91 Co66 2.351 . S
O91 C94 1.244 . S
O92 Co66 2.155 . S
O92 C94 1.240 . S
O93 Co66 2.096 . S
O93 C74 1.247 . S
C94 O91 1.244 . S
C94 O92 1.240 . S
H95 C69 0.931 . S
H96 C78 0.931 . S
H97 C82 0.929 . S
H98 C84 0.930 . S
Co99 N103 2.148 . S
Co99 N109 2.128 . S
Co99 N119 2.194 . S
Co99 O124 2.351 . S
Co99 O125 2.155 . S
Co99 O126 2.096 . S
C100 N103 1.301 . S
C100 N104 1.328 . S
C100 H105 0.930 . S
C101 C102 1.333 . S
C101 N103 1.317 . S
C101 H106 0.930 . S
C102 C101 1.333 . S
C102 N104 1.350 . S
C102 H128 0.931 . S
N103 Co99 2.148 . S
N103 C100 1.301 . S
N103 C101 1.317 . S
N104 C100 1.328 . S
N104 C102 1.350 . S
H105 C100 0.930 . S
H106 C101 0.930 . S
C107 O108 1.224 . S
C107 O126 1.247 . S
O108 C107 1.224 . S
N109 Co99 2.128 . S
N109 C110 1.355 . S
N109 C112 1.311 1_655 S
C110 N109 1.355 . S
C110 C111 1.363 1_655 S
C110 H122 0.929 . S
C111 C110 1.363 1_455 S
C111 N113 1.375 . S
C111 H129 0.931 . S
C112 N109 1.311 1_455 S
C112 N113 1.347 . S
C112 H123 0.926 1_455 S
N113 C111 1.375 . S
N113 C112 1.347 . S
C114 C117 1.365 1_556 S
C114 N119 1.328 . S
C114 H120 0.929 . S
C115 C116 1.362 . S
C115 C118 1.378 1_554 S
C115 H130 0.929 . S
C116 C115 1.362 . S
C116 C117 1.366 . S
C117 C114 1.365 1_554 S
C117 C116 1.366 . S
C117 H131 0.930 . S
C118 C115 1.378 1_556 S
C118 N119 1.315 . S
C118 H121 0.930 . S
N119 Co99 2.194 . S
N119 C114 1.328 . S
N119 C118 1.315 . S
H120 C114 0.929 . S
H121 C118 0.930 . S
H122 C110 0.929 . S
H123 C112 0.926 1_655 S
O124 Co99 2.351 . S
O124 C127 1.244 . S
O125 Co99 2.155 . S
O125 C127 1.240 . S
O126 Co99 2.096 . S
O126 C107 1.247 . S
C127 O124 1.244 . S
C127 O125 1.240 . S
H128 C102 0.931 . S
H129 C111 0.931 . S
H130 C115 0.929 . S
H131 C117 0.930 . S
Co132 N136 2.148 . S
Co132 N142 2.128 . S
Co132 N152 2.194 . S
Co132 O157 2.351 . S
Co132 O158 2.155 1_554 S
Co132 O159 2.096 1_554 S
C133 N136 1.301 . S
C133 N137 1.328 . S
C133 H138 0.930 . S
C134 C135 1.331 1_556 S
C134 N136 1.317 1_556 S
C134 H139 0.930 . S
C135 C134 1.331 1_554 S
C135 N137 1.360 . S
C135 H161 0.926 1_554 S
N136 Co132 2.148 . S
N136 C133 1.301 . S
N136 C134 1.317 1_554 S
N137 C133 1.328 . S
N137 C135 1.360 . S
H138 C133 0.930 . S
H139 C134 0.930 . S
C140 O141 1.224 . S
C140 O159 1.247 . S
O141 C140 1.224 . S
N142 Co132 2.128 . S
N142 C143 1.355 . S
N142 C145 1.311 1_554 S
C143 N142 1.355 . S
C143 C144 1.363 . S
C143 H155 0.929 . S
C144 C143 1.363 . S
C144 N146 1.375 . S
C144 H162 0.931 . S
C145 N142 1.311 1_556 S
C145 N146 1.347 1_556 S
C145 H156 0.929 . S
N146 C144 1.375 . S
N146 C145 1.347 1_554 S
C147 C150 1.365 . S
C147 N152 1.328 . S
C147 H153 0.929 . S
C148 C149 1.362 . S
C148 C151 1.378 . S
C148 H163 0.929 . S
C149 C148 1.362 . S
C149 C150 1.366 . S
C150 C147 1.365 . S
C150 C149 1.366 . S
C150 H164 0.930 . S
C151 C148 1.378 . S
C151 N152 1.315 . S
C151 H154 0.930 . S
N152 Co132 2.194 . S
N152 C147 1.328 . S
N152 C151 1.315 . S
H153 C147 0.929 . S
H154 C151 0.930 . S
H155 C143 0.929 . S
H156 C145 0.929 . S
O157 Co132 2.351 . S
O157 C160 1.244 . S
O158 Co132 2.155 1_556 S
O158 C160 1.240 1_556 S
O159 Co132 2.096 1_556 S
O159 C140 1.247 . S
C160 O157 1.244 . S
C160 O158 1.240 1_554 S
H161 C135 0.926 1_556 S
H162 C144 0.931 . S
H163 C148 0.929 . S
H164 C150 0.930 . S
Co165 N169 2.148 . S
Co165 N175 2.128 . S
Co165 N185 2.194 . S
Co165 O190 2.351 . S
Co165 O191 2.155 1_556 S
Co165 O192 2.096 1_556 S
C166 N169 1.301 . S
C166 N170 1.328 . S
C166 H171 0.930 . S
C167 C168 1.331 1_554 S
C167 N169 1.317 1_554 S
C167 H172 0.930 . S
C168 C167 1.331 1_556 S
C168 N170 1.360 . S
C168 H194 0.926 1_556 S
N169 Co165 2.148 . S
N169 C166 1.301 . S
N169 C167 1.317 1_556 S
N170 C166 1.328 . S
N170 C168 1.360 . S
H171 C166 0.930 . S
H172 C167 0.930 . S
C173 O174 1.224 . S
C173 O192 1.247 . S
O174 C173 1.224 . S
N175 Co165 2.128 . S
N175 C176 1.355 . S
N175 C178 1.311 1_556 S
C176 N175 1.355 . S
C176 C177 1.363 . S
C176 H188 0.929 . S
C177 C176 1.363 . S
C177 N179 1.375 . S
C177 H195 0.931 . S
C178 N175 1.311 1_554 S
C178 N179 1.347 1_554 S
C178 H189 0.929 . S
N179 C177 1.375 . S
N179 C178 1.347 1_556 S
C180 C183 1.365 . S
C180 N185 1.328 . S
C180 H186 0.929 . S
C181 C182 1.362 . S
C181 C184 1.378 . S
C181 H196 0.929 . S
C182 C181 1.362 . S
C182 C183 1.366 . S
C183 C180 1.365 . S
C183 C182 1.366 . S
C183 H197 0.930 . S
C184 C181 1.378 . S
C184 N185 1.315 . S
C184 H187 0.930 . S
N185 Co165 2.194 . S
N185 C180 1.328 . S
N185 C184 1.315 . S
H186 C180 0.929 . S
H187 C184 0.930 . S
H188 C176 0.929 . S
H189 C178 0.929 . S
O190 Co165 2.351 . S
O190 C193 1.244 . S
O191 Co165 2.155 1_554 S
O191 C193 1.240 1_554 S
O192 Co165 2.096 1_554 S
O192 C173 1.247 . S
C193 O190 1.244 . S
C193 O191 1.240 1_556 S
H194 C168 0.926 1_554 S
H195 C177 0.931 . S
H196 C181 0.929 . S
H197 C183 0.930 . S
Co198 N202 2.148 . S
Co198 N208 2.128 . S
Co198 N218 2.194 . S
Co198 O223 2.351 . S
Co198 O224 2.155 1_554 S
Co198 O225 2.096 1_554 S
C199 N202 1.301 . S
C199 N203 1.328 . S
C199 H204 0.930 . S
C200 C201 1.331 1_556 S
C200 N202 1.317 1_556 S
C200 H205 0.930 . S
C201 C200 1.331 1_554 S
C201 N203 1.360 . S
C201 H227 0.926 1_554 S
N202 Co198 2.148 . S
N202 C199 1.301 . S
N202 C200 1.317 1_554 S
N203 C199 1.328 . S
N203 C201 1.360 . S
H204 C199 0.930 . S
H205 C200 0.930 . S
C206 O207 1.224 . S
C206 O225 1.247 . S
O207 C206 1.224 . S
N208 Co198 2.128 . S
N208 C209 1.355 . S
N208 C211 1.311 1_554 S
C209 N208 1.355 . S
C209 C210 1.363 . S
C209 H221 0.929 . S
C210 C209 1.363 . S
C210 N212 1.375 . S
C210 H228 0.931 . S
C211 N208 1.311 1_556 S
C211 N212 1.347 1_556 S
C211 H222 0.929 . S
N212 C210 1.375 . S
N212 C211 1.347 1_554 S
C213 C216 1.365 . S
C213 N218 1.328 . S
C213 H219 0.929 . S
C214 C215 1.362 . S
C214 C217 1.378 . S
C214 H229 0.929 . S
C215 C214 1.362 . S
C215 C216 1.366 . S
C216 C213 1.365 . S
C216 C215 1.366 . S
C216 H230 0.930 . S
C217 C214 1.378 . S
C217 N218 1.315 . S
C217 H220 0.930 . S
N218 Co198 2.194 . S
N218 C213 1.328 . S
N218 C217 1.315 . S
H219 C213 0.929 . S
H220 C217 0.930 . S
H221 C209 0.929 . S
H222 C211 0.929 . S
O223 Co198 2.351 . S
O223 C226 1.244 . S
O224 Co198 2.155 1_556 S
O224 C226 1.240 1_556 S
O225 Co198 2.096 1_556 S
O225 C206 1.247 . S
C226 O223 1.244 . S
C226 O224 1.240 1_554 S
H227 C201 0.926 1_556 S
H228 C210 0.931 . S
H229 C214 0.929 . S
H230 C216 0.930 . S
Co231 N235 2.148 . S
Co231 N241 2.128 . S
Co231 N251 2.194 . S
Co231 O256 2.351 . S
Co231 O257 2.155 1_556 S
Co231 O258 2.096 1_556 S
C232 N235 1.301 . S
C232 N236 1.328 . S
C232 H237 0.930 . S
C233 C234 1.331 1_554 S
C233 N235 1.317 1_554 S
C233 H238 0.930 . S
C234 C233 1.331 1_556 S
C234 N236 1.360 . S
C234 H260 0.926 1_556 S
N235 Co231 2.148 . S
N235 C232 1.301 . S
N235 C233 1.317 1_556 S
N236 C232 1.328 . S
N236 C234 1.360 . S
H237 C232 0.930 . S
H238 C233 0.930 . S
C239 O240 1.224 . S
C239 O258 1.247 . S
O240 C239 1.224 . S
N241 Co231 2.128 . S
N241 C242 1.355 . S
N241 C244 1.311 1_556 S
C242 N241 1.355 . S
C242 C243 1.363 . S
C242 H254 0.929 . S
C243 C242 1.363 . S
C243 N245 1.375 . S
C243 H261 0.931 . S
C244 N241 1.311 1_554 S
C244 N245 1.347 1_554 S
C244 H255 0.929 . S
N245 C243 1.375 . S
N245 C244 1.347 1_556 S
C246 C249 1.365 . S
C246 N251 1.328 . S
C246 H252 0.929 . S
C247 C248 1.362 . S
C247 C250 1.378 . S
C247 H262 0.929 . S
C248 C247 1.362 . S
C248 C249 1.366 . S
C249 C246 1.365 . S
C249 C248 1.366 . S
C249 H263 0.930 . S
C250 C247 1.378 . S
C250 N251 1.315 . S
C250 H253 0.930 . S
N251 Co231 2.194 . S
N251 C246 1.328 . S
N251 C250 1.315 . S
H252 C246 0.929 . S
H253 C250 0.930 . S
H254 C242 0.929 . S
H255 C244 0.929 . S
O256 Co231 2.351 . S
O256 C259 1.244 . S
O257 Co231 2.155 1_554 S
O257 C259 1.240 1_554 S
O258 Co231 2.096 1_554 S
O258 C239 1.247 . S
C259 O256 1.244 . S
C259 O257 1.240 1_556 S
H260 C234 0.926 1_554 S
H261 C243 0.931 . S
H262 C247 0.929 . S
H263 C249 0.930 . S
Co264 N268 2.148 . S
Co264 N274 2.128 . S
Co264 N284 2.194 . S
Co264 O289 2.351 . S
Co264 O290 2.155 . S
Co264 O291 2.096 . S
C265 N268 1.301 . S
C265 N269 1.328 . S
C265 H270 0.930 . S
C266 C267 1.333 . S
C266 N268 1.317 . S
C266 H271 0.930 . S
C267 C266 1.333 . S
C267 N269 1.350 . S
C267 H293 0.931 . S
N268 Co264 2.148 . S
N268 C265 1.301 . S
N268 C266 1.317 . S
N269 C265 1.328 . S
N269 C267 1.350 . S
H270 C265 0.930 . S
H271 C266 0.930 . S
C272 O273 1.224 . S
C272 O291 1.247 . S
O273 C272 1.224 . S
N274 Co264 2.128 . S
N274 C275 1.355 . S
N274 C277 1.311 . S
C275 N274 1.355 . S
C275 C276 1.363 . S
C275 H287 0.929 . S
C276 C275 1.363 . S
C276 N278 1.375 . S
C276 H294 0.931 . S
C277 N274 1.311 . S
C277 N278 1.347 . S
C277 H288 0.929 . S
N278 C276 1.375 . S
N278 C277 1.347 . S
C279 C282 1.365 . S
C279 N284 1.328 . S
C279 H285 0.929 . S
C280 C281 1.362 . S
C280 C283 1.378 . S
C280 H295 0.929 . S
C281 C280 1.362 . S
C281 C282 1.366 . S
C282 C279 1.365 . S
C282 C281 1.366 . S
C282 H296 0.930 . S
C283 C280 1.378 . S
C283 N284 1.315 . S
C283 H286 0.930 . S
N284 Co264 2.194 . S
N284 C279 1.328 . S
N284 C283 1.315 . S
H285 C279 0.929 . S
H286 C283 0.930 . S
H287 C275 0.929 . S
H288 C277 0.929 . S
O289 Co264 2.351 . S
O289 C292 1.244 . S
O290 Co264 2.155 . S
O290 C292 1.240 . S
O291 Co264 2.096 . S
O291 C272 1.247 . S
C292 O289 1.244 . S
C292 O290 1.240 . S
H293 C267 0.931 . S
H294 C276 0.931 . S
H295 C280 0.929 . S
H296 C282 0.930 . S
Co297 N301 2.148 . S
Co297 N307 2.128 . S
Co297 N317 2.194 . S
Co297 O322 2.351 . S
Co297 O323 2.155 . S
Co297 O324 2.096 . S
C298 N301 1.301 . S
C298 N302 1.328 . S
C298 H303 0.930 . S
C299 C300 1.333 . S
C299 N301 1.317 . S
C299 H304 0.930 . S
C300 C299 1.333 . S
C300 N302 1.350 . S
C300 H326 0.931 . S
N301 Co297 2.148 . S
N301 C298 1.301 . S
N301 C299 1.317 . S
N302 C298 1.328 . S
N302 C300 1.350 . S
H303 C298 0.930 . S
H304 C299 0.930 . S
C305 O306 1.224 . S
C305 O324 1.247 . S
O306 C305 1.224 . S
N307 Co297 2.128 . S
N307 C308 1.355 . S
N307 C310 1.311 . S
C308 N307 1.355 . S
C308 C309 1.363 . S
C308 H320 0.929 . S
C309 C308 1.363 . S
C309 N311 1.375 . S
C309 H327 0.931 . S
C310 N307 1.311 . S
C310 N311 1.347 . S
C310 H321 0.929 . S
N311 C309 1.375 . S
N311 C310 1.347 . S
C312 C315 1.365 . S
C312 N317 1.328 . S
C312 H318 0.929 . S
C313 C314 1.362 . S
C313 C316 1.378 . S
C313 H328 0.929 . S
C314 C313 1.362 . S
C314 C315 1.366 . S
C315 C312 1.365 . S
C315 C314 1.366 . S
C315 H329 0.930 . S
C316 C313 1.378 . S
C316 N317 1.315 . S
C316 H319 0.930 . S
N317 Co297 2.194 . S
N317 C312 1.328 . S
N317 C316 1.315 . S
H318 C312 0.929 . S
H319 C316 0.930 . S
H320 C308 0.929 . S
H321 C310 0.929 . S
O322 Co297 2.351 . S
O322 C325 1.244 . S
O323 Co297 2.155 . S
O323 C325 1.240 . S
O324 Co297 2.096 . S
O324 C305 1.247 . S
C325 O322 1.244 . S
C325 O323 1.240 . S
H326 C300 0.931 . S
H327 C309 0.931 . S
H328 C313 0.929 . S
H329 C315 0.930 . S
Co330 N334 2.148 . S
Co330 N340 2.128 . S
Co330 N350 2.194 . S
Co330 O355 2.351 . S
Co330 O356 2.155 . S
Co330 O357 2.096 . S
C331 N334 1.301 . S
C331 N335 1.328 . S
C331 H336 0.930 . S
C332 C333 1.333 . S
C332 N334 1.317 . S
C332 H337 0.930 . S
C333 C332 1.333 . S
C333 N335 1.350 . S
C333 H359 0.931 . S
N334 Co330 2.148 . S
N334 C331 1.301 . S
N334 C332 1.317 . S
N335 C331 1.328 . S
N335 C333 1.350 . S
H336 C331 0.930 . S
H337 C332 0.930 . S
C338 O339 1.224 . S
C338 O357 1.247 . S
O339 C338 1.224 . S
N340 Co330 2.128 . S
N340 C341 1.355 . S
N340 C343 1.311 . S
C341 N340 1.355 . S
C341 C342 1.363 . S
C341 H353 0.929 . S
C342 C341 1.363 . S
C342 N344 1.375 . S
C342 H360 0.931 . S
C343 N340 1.311 . S
C343 N344 1.347 . S
C343 H354 0.929 . S
N344 C342 1.375 . S
N344 C343 1.347 . S
C345 C348 1.365 . S
C345 N350 1.328 . S
C345 H351 0.929 . S
C346 C347 1.362 . S
C346 C349 1.378 . S
C346 H361 0.929 . S
C347 C346 1.362 . S
C347 C348 1.366 . S
C348 C345 1.365 . S
C348 C347 1.366 . S
C348 H362 0.930 . S
C349 C346 1.378 . S
C349 N350 1.315 . S
C349 H352 0.930 . S
N350 Co330 2.194 . S
N350 C345 1.328 . S
N350 C349 1.315 . S
H351 C345 0.929 . S
H352 C349 0.930 . S
H353 C341 0.929 . S
H354 C343 0.929 . S
O355 Co330 2.351 . S
O355 C358 1.244 . S
O356 Co330 2.155 . S
O356 C358 1.240 . S
O357 Co330 2.096 . S
O357 C338 1.247 . S
C358 O355 1.244 . S
C358 O356 1.240 . S
H359 C333 0.931 . S
H360 C342 0.931 . S
H361 C346 0.929 . S
H362 C348 0.930 . S
Co363 N367 2.148 . S
Co363 N373 2.128 . S
Co363 N383 2.194 . S
Co363 O388 2.351 . S
Co363 O389 2.155 . S
Co363 O390 2.096 . S
C364 N367 1.301 . S
C364 N368 1.328 . S
C364 H369 0.930 . S
C365 C366 1.333 . S
C365 N367 1.317 . S
C365 H370 0.930 . S
C366 C365 1.333 . S
C366 N368 1.350 . S
C366 H392 0.931 . S
N367 Co363 2.148 . S
N367 C364 1.301 . S
N367 C365 1.317 . S
N368 C364 1.328 . S
N368 C366 1.350 . S
H369 C364 0.930 . S
H370 C365 0.930 . S
C371 O372 1.224 . S
C371 O390 1.247 . S
O372 C371 1.224 . S
N373 Co363 2.128 . S
N373 C374 1.355 . S
N373 C376 1.311 . S
C374 N373 1.355 . S
C374 C375 1.363 . S
C374 H386 0.929 . S
C375 C374 1.363 . S
C375 N377 1.375 . S
C375 H393 0.931 . S
C376 N373 1.311 . S
C376 N377 1.347 . S
C376 H387 0.929 . S
N377 C375 1.375 . S
N377 C376 1.347 . S
C378 C381 1.365 . S
C378 N383 1.328 . S
C378 H384 0.929 . S
C379 C380 1.362 . S
C379 C382 1.378 . S
C379 H394 0.929 . S
C380 C379 1.362 . S
C380 C381 1.366 . S
C381 C378 1.365 . S
C381 C380 1.366 . S
C381 H395 0.930 . S
C382 C379 1.378 . S
C382 N383 1.315 . S
C382 H385 0.930 . S
N383 Co363 2.194 . S
N383 C378 1.328 . S
N383 C382 1.315 . S
H384 C378 0.929 . S
H385 C382 0.930 . S
H386 C374 0.929 . S
H387 C376 0.929 . S
O388 Co363 2.351 . S
O388 C391 1.244 . S
O389 Co363 2.155 . S
O389 C391 1.240 . S
O390 Co363 2.096 . S
O390 C371 1.247 . S
C391 O388 1.244 . S
C391 O389 1.240 . S
H392 C366 0.931 . S
H393 C375 0.931 . S
H394 C379 0.929 . S
H395 C381 0.930 . S
Co396 N400 2.148 . S
Co396 N406 2.128 . S
Co396 N416 2.194 . S
Co396 O421 2.351 . S
Co396 O422 2.155 . S
Co396 O423 2.096 . S
C397 N400 1.301 . S
C397 N401 1.328 . S
C397 H402 0.930 . S
C398 C399 1.333 . S
C398 N400 1.317 . S
C398 H403 0.930 . S
C399 C398 1.333 . S
C399 N401 1.350 . S
C399 H425 0.931 . S
N400 Co396 2.148 . S
N400 C397 1.301 . S
N400 C398 1.317 . S
N401 C397 1.328 . S
N401 C399 1.350 . S
H402 C397 0.930 . S
H403 C398 0.930 . S
C404 O405 1.224 . S
C404 O423 1.247 . S
O405 C404 1.224 . S
N406 Co396 2.128 . S
N406 C407 1.355 . S
N406 C409 1.311 1_565 S
C407 N406 1.355 . S
C407 C408 1.363 1_565 S
C407 H419 0.929 . S
C408 C407 1.363 1_545 S
C408 N410 1.375 . S
C408 H426 0.931 . S
C409 N406 1.311 1_545 S
C409 N410 1.347 . S
C409 H420 0.926 1_545 S
N410 C408 1.375 . S
N410 C409 1.347 . S
C411 C414 1.365 . S
C411 N416 1.328 . S
C411 H417 0.929 . S
C412 C413 1.362 . S
C412 C415 1.378 . S
C412 H427 0.929 . S
C413 C412 1.362 . S
C413 C414 1.366 . S
C414 C411 1.365 . S
C414 C413 1.366 . S
C414 H428 0.930 . S
C415 C412 1.378 . S
C415 N416 1.315 . S
C415 H418 0.930 . S
N416 Co396 2.194 . S
N416 C411 1.328 . S
N416 C415 1.315 . S
H417 C411 0.929 . S
H418 C415 0.930 . S
H419 C407 0.929 . S
H420 C409 0.926 1_565 S
O421 Co396 2.351 . S
O421 C424 1.244 . S
O422 Co396 2.155 . S
O422 C424 1.240 . S
O423 Co396 2.096 . S
O423 C404 1.247 . S
C424 O421 1.244 . S
C424 O422 1.240 . S
H425 C399 0.931 . S
H426 C408 0.931 . S
H427 C412 0.929 . S
H428 C414 0.930 . S
Co429 N433 2.148 . S
Co429 N439 2.128 . S
Co429 N449 2.194 . S
Co429 O454 2.351 . S
Co429 O455 2.155 . S
Co429 O456 2.096 . S
C430 N433 1.301 . S
C430 N434 1.328 . S
C430 H435 0.930 . S
C431 C432 1.333 . S
C431 N433 1.317 . S
C431 H436 0.930 . S
C432 C431 1.333 . S
C432 N434 1.350 . S
C432 H458 0.931 . S
N433 Co429 2.148 . S
N433 C430 1.301 . S
N433 C431 1.317 . S
N434 C430 1.328 . S
N434 C432 1.350 . S
H435 C430 0.930 . S
H436 C431 0.930 . S
C437 O438 1.224 . S
C437 O456 1.247 . S
O438 C437 1.224 . S
N439 Co429 2.128 . S
N439 C440 1.355 . S
N439 C442 1.311 1_655 S
C440 N439 1.355 . S
C440 C441 1.363 1_655 S
C440 H452 0.929 . S
C441 C440 1.363 1_455 S
C441 N443 1.375 . S
C441 H459 0.931 . S
C442 N439 1.311 1_455 S
C442 N443 1.347 . S
C442 H453 0.926 1_455 S
N443 C441 1.375 . S
N443 C442 1.347 . S
C444 C447 1.365 . S
C444 N449 1.328 . S
C444 H450 0.929 . S
C445 C446 1.362 . S
C445 C448 1.378 . S
C445 H460 0.929 . S
C446 C445 1.362 . S
C446 C447 1.366 . S
C447 C444 1.365 . S
C447 C446 1.366 . S
C447 H461 0.930 . S
C448 C445 1.378 . S
C448 N449 1.315 . S
C448 H451 0.930 . S
N449 Co429 2.194 . S
N449 C444 1.328 . S
N449 C448 1.315 . S
H450 C444 0.929 . S
H451 C448 0.930 . S
H452 C440 0.929 . S
H453 C442 0.926 1_655 S
O454 Co429 2.351 . S
O454 C457 1.244 . S
O455 Co429 2.155 . S
O455 C457 1.240 . S
O456 Co429 2.096 . S
O456 C437 1.247 . S
C457 O454 1.244 . S
C457 O455 1.240 . S
H458 C432 0.931 . S
H459 C441 0.931 . S
H460 C445 0.929 . S
H461 C447 0.930 . S
Co462 N466 2.148 . S
Co462 N472 2.128 . S
Co462 N482 2.194 . S
Co462 O487 2.351 . S
Co462 O488 2.155 . S
Co462 O489 2.096 . S
C463 N466 1.301 . S
C463 N467 1.328 . S
C463 H468 0.930 . S
C464 C465 1.333 . S
C464 N466 1.317 . S
C464 H469 0.930 . S
C465 C464 1.333 . S
C465 N467 1.350 . S
C465 H491 0.931 . S
N466 Co462 2.148 . S
N466 C463 1.301 . S
N466 C464 1.317 . S
N467 C463 1.328 . S
N467 C465 1.350 . S
H468 C463 0.930 . S
H469 C464 0.930 . S
C470 O471 1.224 . S
C470 O489 1.247 . S
O471 C470 1.224 . S
N472 Co462 2.128 . S
N472 C473 1.355 . S
N472 C475 1.311 1_545 S
C473 N472 1.355 . S
C473 C474 1.363 1_545 S
C473 H485 0.929 . S
C474 C473 1.363 1_565 S
C474 N476 1.375 . S
C474 H492 0.931 . S
C475 N472 1.311 1_565 S
C475 N476 1.347 . S
C475 H486 0.926 1_565 S
N476 C474 1.375 . S
N476 C475 1.347 . S
C477 C480 1.365 . S
C477 N482 1.328 . S
C477 H483 0.929 . S
C478 C479 1.362 . S
C478 C481 1.378 . S
C478 H493 0.929 . S
C479 C478 1.362 . S
C479 C480 1.366 . S
C480 C477 1.365 . S
C480 C479 1.366 . S
C480 H494 0.930 . S
C481 C478 1.378 . S
C481 N482 1.315 . S
C481 H484 0.930 . S
N482 Co462 2.194 . S
N482 C477 1.328 . S
N482 C481 1.315 . S
H483 C477 0.929 . S
H484 C481 0.930 . S
H485 C473 0.929 . S
H486 C475 0.926 1_545 S
O487 Co462 2.351 . S
O487 C490 1.244 . S
O488 Co462 2.155 . S
O488 C490 1.240 . S
O489 Co462 2.096 . S
O489 C470 1.247 . S
C490 O487 1.244 . S
C490 O488 1.240 . S
H491 C465 0.931 . S
H492 C474 0.931 . S
H493 C478 0.929 . S
H494 C480 0.930 . S
Co495 N499 2.148 . S
Co495 N505 2.128 . S
Co495 N515 2.194 . S
Co495 O520 2.351 . S
Co495 O521 2.155 . S
Co495 O522 2.096 . S
C496 N499 1.301 . S
C496 N500 1.328 . S
C496 H501 0.930 . S
C497 C498 1.333 . S
C497 N499 1.317 . S
C497 H502 0.930 . S
C498 C497 1.333 . S
C498 N500 1.350 . S
C498 H524 0.931 . S
N499 Co495 2.148 . S
N499 C496 1.301 . S
N499 C497 1.317 . S
N500 C496 1.328 . S
N500 C498 1.350 . S
H501 C496 0.930 . S
H502 C497 0.930 . S
C503 O504 1.224 . S
C503 O522 1.247 . S
O504 C503 1.224 . S
N505 Co495 2.128 . S
N505 C506 1.355 . S
N505 C508 1.311 1_455 S
C506 N505 1.355 . S
C506 C507 1.363 1_455 S
C506 H518 0.929 . S
C507 C506 1.363 1_655 S
C507 N509 1.375 . S
C507 H525 0.931 . S
C508 N505 1.311 1_655 S
C508 N509 1.347 . S
C508 H519 0.926 1_655 S
N509 C507 1.375 . S
N509 C508 1.347 . S
C510 C513 1.365 . S
C510 N515 1.328 . S
C510 H516 0.929 . S
C511 C512 1.362 . S
C511 C514 1.378 . S
C511 H526 0.929 . S
C512 C511 1.362 . S
C512 C513 1.366 . S
C513 C510 1.365 . S
C513 C512 1.366 . S
C513 H527 0.930 . S
C514 C511 1.378 . S
C514 N515 1.315 . S
C514 H517 0.930 . S
N515 Co495 2.194 . S
N515 C510 1.328 . S
N515 C514 1.315 . S
H516 C510 0.929 . S
H517 C514 0.930 . S
H518 C506 0.929 . S
H519 C508 0.926 1_455 S
O520 Co495 2.351 . S
O520 C523 1.244 . S
O521 Co495 2.155 . S
O521 C523 1.240 . S
O522 Co495 2.096 . S
O522 C503 1.247 . S
C523 O520 1.244 . S
C523 O521 1.240 . S
H524 C498 0.931 . S
H525 C507 0.931 . S
H526 C511 0.929 . S
H527 C513 0.930 . S
C8 C470 1.471 . S
C503 C41 1.471 . S
C404 C74 1.471 . S
C107 C437 1.471 . S
C140 C338 1.471 . S
C371 C173 1.471 . S
C206 C272 1.471 . S
C305 C239 1.471 . S
N137 N5 1.869 . S
N38 N170 1.869 . S
N71 N203 1.869 . S
N104 N236 1.869 . S
N401 N269 1.869 . S
N434 N302 1.869 . S
N335 N467 1.869 . S
N368 N500 1.869 . S
C17 C479 1.571 . S
C512 C50 1.571 . S
C83 C413 1.571 . S
C446 C116 1.571 . S
C347 C149 1.571 . S
C380 C182 1.571 . S
C215 C281 1.571 . S
C248 C314 1.571 . S
N14 C391 1.722 . S
C292 N47 1.722 . S
N80 C325 1.722 . S
C358 N113 1.722 . S
C193 N146 1.722 1_556 S
C226 N179 1.722 1_554 S
N212 C259 1.722 1_554 S
C160 N245 1.722 1_554 S
C127 N278 1.722 . S
N311 C28 1.722 . S
N344 C61 1.722 . S
C94 N377 1.722 . S
C457 N410 1.722 . S
C490 N443 1.722 . S
C523 N476 1.722 . S
N509 C424 1.722 . S
