# Generated by pormake.
# Topology upa, (4)-cn, num edge types: 1
# Building blocks:
#     Node 0, Type 0, BuildingBlock: NAHDIM_clean_sbu_0, # of connection points: 4
#     Node 1, Type 0, BuildingBlock: NAHDIM_clean_sbu_0, # of connection points: 4
#     Node 2, Type 0, BuildingBlock: NAHDIM_clean_sbu_0, # of connection points: 4
#     Node 3, Type 0, BuildingBlock: NAHDIM_clean_sbu_0, # of connection points: 4
#     Node 4, Type 0, BuildingBlock: NAHDIM_clean_sbu_0, # of connection points: 4
#     Node 5, Type 0, BuildingBlock: NAHDIM_clean_sbu_0, # of connection points: 4
#     Node 6, Type 0, BuildingBlock: NAHDIM_clean_sbu_0, # of connection points: 4
#     Node 7, Type 0, BuildingBlock: NAHDIM_clean_sbu_0, # of connection points: 4
#     Edge 8, Type (0, 0), BuildingBlock: CIFDUS_clean_linker_0, # of connection points: 2
#     Edge 9, Type (0, 0), BuildingBlock: CIFDUS_clean_linker_0, # of connection points: 2
#     Edge 10, Type (0, 0), BuildingBlock: CIFDUS_clean_linker_0, # of connection points: 2
#     Edge 11, Type (0, 0), BuildingBlock: CIFDUS_clean_linker_0, # of connection points: 2
#     Edge 12, Type (0, 0), BuildingBlock: CIFDUS_clean_linker_0, # of connection points: 2
#     Edge 13, Type (0, 0), BuildingBlock: CIFDUS_clean_linker_0, # of connection points: 2
#     Edge 14, Type (0, 0), BuildingBlock: CIFDUS_clean_linker_0, # of connection points: 2
#     Edge 15, Type (0, 0), BuildingBlock: CIFDUS_clean_linker_0, # of connection points: 2
#     Edge 16, Type (0, 0), BuildingBlock: CIFDUS_clean_linker_0, # of connection points: 2
#     Edge 17, Type (0, 0), BuildingBlock: CIFDUS_clean_linker_0, # of connection points: 2
#     Edge 18, Type (0, 0), BuildingBlock: CIFDUS_clean_linker_0, # of connection points: 2
#     Edge 19, Type (0, 0), BuildingBlock: CIFDUS_clean_linker_0, # of connection points: 2
#     Edge 20, Type (0, 0), BuildingBlock: CIFDUS_clean_linker_0, # of connection points: 2
#     Edge 21, Type (0, 0), BuildingBlock: CIFDUS_clean_linker_0, # of connection points: 2
#     Edge 22, Type (0, 0), BuildingBlock: CIFDUS_clean_linker_0, # of connection points: 2
#     Edge 23, Type (0, 0), BuildingBlock: CIFDUS_clean_linker_0, # of connection points: 2
# Relax obj value: 0.274
# Max RMSD: 0.206
# Mean RMSD: 0.206
data_MOF--net-upa--node1-NAHDIM_clean_sbu_0--edge1-CIFDUS_clean_linker_0
_symmetry_space_group_name_H-M    P1
_symmetry_Int_Tables_number       1
_symmetry_cell_setting            triclinic
loop_
_symmetry_equiv_pos_as_xyz
'x, y, z'
_cell_length_a     23.451916
_cell_length_b     23.398583
_cell_length_c     36.549648
_cell_angle_alpha  90.009477
_cell_angle_beta   89.785428
_cell_angle_gamma 90.238208
loop_
_atom_site_label
_atom_site_type_symbol
_atom_site_fract_x
_atom_site_fract_y
_atom_site_fract_z
_atom_type_partial_charge
C0 C 0.30043 0.17201 0.29277 0.0
O1 O 0.27231 0.1266 0.28165 0.0
O2 O 0.13849 0.2484 0.31194 0.0
Zn3 Zn 0.19731 0.19854 0.3373 0.0
O4 O 0.20336 0.21395 0.39196 0.0
C5 C 0.13765 0.10737 0.30212 0.0
O6 O 0.14037 0.14299 0.27438 0.0
O7 O 0.27649 0.20669 0.31481 0.0
C8 C 0.16755 0.19198 0.41419 0.0
O9 O 0.12482 0.16184 0.40114 0.0
C10 C 0.09573 0.26986 0.32841 0.0
O11 O 0.09433 0.26935 0.36432 0.0
O12 O 0.16452 0.11945 0.33131 0.0
C13 C 0.21572 0.8111 0.78577 0.0
O14 O 0.17755 0.8011 0.81142 0.0
O15 O 0.15809 0.65766 0.78932 0.0
Zn16 Zn 0.23741 0.69112 0.79895 0.0
O17 O 0.24753 0.70457 0.85358 0.0
C18 C 0.30864 0.59234 0.80162 0.0
O19 O 0.27454 0.58062 0.82921 0.0
O20 O 0.24625 0.76965 0.77448 0.0
C21 C 0.22085 0.67636 0.87803 0.0
O22 O 0.18336 0.63759 0.86798 0.0
C23 C 0.13353 0.61089 0.78028 0.0
O24 O 0.07753 0.60941 0.78044 0.0
O25 O 0.30048 0.63778 0.78328 0.0
C26 C 0.7052 0.81639 0.28527 0.0
O27 O 0.70027 0.8597 0.30793 0.0
O28 O 0.88338 0.74874 0.30037 0.0
Zn29 Zn 0.82047 0.80144 0.31674 0.0
O30 O 0.80539 0.79441 0.37181 0.0
C31 C 0.88049 0.88791 0.27587 0.0
O32 O 0.87458 0.85156 0.24875 0.0
O33 O 0.75078 0.78704 0.28535 0.0
C34 C 0.82916 0.83077 0.39285 0.0
O35 O 0.861 0.87109 0.37829 0.0
C36 C 0.9317 0.75295 0.31586 0.0
O37 O 0.93605 0.78366 0.3458 0.0
O38 O 0.85527 0.87822 0.30609 0.0
C39 C 0.67787 0.24661 0.75529 0.0
O40 O 0.67521 0.29477 0.73692 0.0
O41 O 0.71756 0.38629 0.79989 0.0
Zn42 Zn 0.67133 0.31992 0.82062 0.0
O43 O 0.69452 0.29973 0.87238 0.0
C44 C 0.5726 0.37972 0.79597 0.0
O45 O 0.60736 0.39198 0.7688 0.0
O46 O 0.67745 0.24805 0.79005 0.0
C47 C 0.6785 0.32941 0.89967 0.0
O48 O 0.64837 0.37574 0.89389 0.0
C49 C 0.75526 0.41458 0.81717 0.0
O50 O 0.7708 0.39742 0.84985 0.0
O51 O 0.58976 0.34694 0.82138 0.0
C52 C 0.81967 0.2779 0.20095 0.0
O53 O 0.81544 0.26619 0.16594 0.0
O54 O 0.63941 0.23773 0.21598 0.0
Zn55 Zn 0.69594 0.29608 0.19581 0.0
O56 O 0.69725 0.30157 0.14029 0.0
C57 C 0.60907 0.37368 0.19744 0.0
O58 O 0.59088 0.33256 0.17591 0.0
O59 O 0.77488 0.29077 0.21887 0.0
C60 C 0.70849 0.2674 0.1142 0.0
O61 O 0.72454 0.21489 0.12143 0.0
C62 C 0.60579 0.20639 0.1974 0.0
O63 O 0.61312 0.20241 0.16186 0.0
O64 O 0.65888 0.36994 0.21088 0.0
C65 C 0.22905 0.29657 0.72056 0.0
O66 O 0.27202 0.29792 0.69741 0.0
O67 O 0.31099 0.15705 0.71291 0.0
Zn68 Zn 0.22897 0.17615 0.69948 0.0
O69 O 0.22297 0.19146 0.64497 0.0
C70 C 0.18303 0.06673 0.68694 0.0
O71 O 0.22256 0.07011 0.66144 0.0
O72 O 0.2039 0.24892 0.72653 0.0
C73 C 0.26366 0.20573 0.62372 0.0
O74 O 0.31496 0.21318 0.63727 0.0
C75 C 0.34017 0.11286 0.72092 0.0
O76 O 0.39545 0.11895 0.72518 0.0
O77 O 0.17675 0.10862 0.70882 0.0
C78 C 0.1892 0.71177 0.17584 0.0
O79 O 0.18664 0.70747 0.14009 0.0
O80 O 0.37131 0.7639 0.17994 0.0
Zn81 Zn 0.31201 0.70651 0.16271 0.0
O82 O 0.29844 0.70878 0.10754 0.0
C83 C 0.37816 0.62068 0.2012 0.0
O84 O 0.38801 0.66198 0.22472 0.0
O85 O 0.23776 0.71393 0.19126 0.0
C86 C 0.27995 0.66247 0.09348 0.0
O87 O 0.27148 0.61822 0.11499 0.0
C88 C 0.42253 0.75471 0.16995 0.0
O89 O 0.43204 0.71498 0.14527 0.0
O90 O 0.34555 0.62961 0.17411 0.0
C91 C 0.81203 0.72202 0.72766 0.0
O92 O 0.85592 0.74799 0.74259 0.0
O93 O 0.748 0.88719 0.70219 0.0
Zn94 Zn 0.80353 0.82699 0.68372 0.0
O95 O 0.80679 0.8252 0.62792 0.0
C96 C 0.92868 0.84294 0.69249 0.0
O97 O 0.93498 0.80293 0.66759 0.0
O98 O 0.78378 0.74771 0.70299 0.0
C99 C 0.83725 0.86173 0.61089 0.0
O100 O 0.86496 0.90059 0.62982 0.0
C101 C 0.73349 0.93009 0.68296 0.0
O102 O 0.74718 0.93119 0.64812 0.0
O103 O 0.87882 0.8558 0.70333 0.0
H104 H 0.07399 0.0698 0.24471 0.0
H105 H 0.10496 0.0402 0.35957 0.0
H106 H 0.02625 0.97192 0.36165 0.0
H107 H 0.94684 0.92304 0.33161 0.0
H108 H 0.9179 0.94795 0.2163 0.0
H109 H 0.99734 0.0164 0.21369 0.0
C110 C 0.06392 0.04798 0.27011 0.0
C111 C 0.09527 0.06034 0.30196 0.0
C112 C 0.01845 0.00873 0.27117 0.0
C113 C 0.08174 0.03147 0.33461 0.0
C114 C 0.03643 0.99268 0.33592 0.0
C115 C 0.95744 0.94403 0.306 0.0
C116 C 0.92587 0.93165 0.27434 0.0
C117 C 0.004 0.98171 0.30454 0.0
C118 C 0.94123 0.95758 0.24109 0.0
C119 C 0.98673 0.99639 0.23959 0.0
H120 H 0.34024 0.49688 0.83839 0.0
H121 H 0.38486 0.60114 0.74504 0.0
H122 H 0.46819 0.54144 0.73342 0.0
H123 H 0.53165 0.46383 0.75222 0.0
H124 H 0.48862 0.36165 0.84682 0.0
H125 H 0.40102 0.41622 0.85528 0.0
C126 C 0.36793 0.5064 0.81533 0.0
C127 C 0.35665 0.55382 0.79286 0.0
C128 C 0.41613 0.47237 0.80909 0.0
C129 C 0.39282 0.56523 0.76298 0.0
C130 C 0.44049 0.5311 0.7563 0.0
C131 C 0.50287 0.45303 0.77448 0.0
C132 C 0.5169 0.40889 0.79898 0.0
C133 C 0.45307 0.48519 0.77956 0.0
C134 C 0.47904 0.39556 0.82766 0.0
C135 C 0.42896 0.42681 0.83256 0.0
H136 H 0.49987 0.38602 0.17628 0.0
H137 H 0.63381 0.47149 0.23603 0.0
H138 H 0.57159 0.5541 0.24556 0.0
H139 H 0.48107 0.60399 0.23334 0.0
H140 H 0.34984 0.51848 0.17118 0.0
H141 H 0.4091 0.43333 0.16652 0.0
C142 C 0.51561 0.42257 0.19151 0.0
C143 C 0.57158 0.42286 0.20512 0.0
C144 C 0.48 0.46975 0.19653 0.0
C145 C 0.59095 0.47038 0.22511 0.0
C146 C 0.55541 0.51756 0.23056 0.0
C147 C 0.46515 0.56631 0.21934 0.0
C148 C 0.41121 0.56735 0.20263 0.0
C149 C 0.50008 0.51797 0.21597 0.0
C150 C 0.3913 0.51863 0.18415 0.0
C151 C 0.42519 0.47005 0.1814 0.0
H152 H 0.08979 0.04971 0.73057 0.0
H153 H 0.19438 0.96736 0.64886 0.0
H154 H 0.12843 0.88666 0.6469 0.0
H155 H 0.03562 0.84474 0.66303 0.0
H156 H 0.9296 0.92824 0.74351 0.0
H157 H 0.00177 0.00242 0.75161 0.0
C158 C 0.09843 0.01386 0.7126 0.0
C159 C 0.14623 0.01527 0.68929 0.0
C160 C 0.05988 0.96773 0.71123 0.0
C161 C 0.15727 0.96801 0.66658 0.0
C162 C 0.11962 0.92168 0.66547 0.0
C163 C 0.0287 0.87854 0.68284 0.0
C164 C 0.97685 0.88123 0.7022 0.0
C165 C 0.0699 0.92186 0.68685 0.0
C166 C 0.96884 0.92532 0.72791 0.0
C167 C 0.01005 0.96797 0.73251 0.0
H168 H 0.26248 0.22733 0.45109 0.0
H169 H 0.08992 0.16751 0.46756 0.0
H170 H 0.10362 0.16908 0.53367 0.0
H171 H 0.16565 0.18297 0.58672 0.0
H172 H 0.33928 0.23984 0.5707 0.0
H173 H 0.32401 0.24394 0.50465 0.0
C174 C 0.22771 0.21515 0.46916 0.0
C175 C 0.17529 0.19718 0.45431 0.0
C176 C 0.23615 0.21526 0.50728 0.0
C177 C 0.13081 0.18123 0.47817 0.0
C178 C 0.13859 0.18209 0.51603 0.0
C179 C 0.20014 0.19662 0.56886 0.0
C180 C 0.25361 0.21092 0.58376 0.0
C181 C 0.19128 0.19829 0.53088 0.0
C182 C 0.29773 0.22842 0.56006 0.0
C183 C 0.28904 0.23078 0.52223 0.0
H184 H 0.19492 0.60484 0.93403 0.0
H185 H 0.27903 0.76489 0.91013 0.0
H186 H 0.30408 0.77578 0.97474 0.0
H187 H 0.30312 0.73875 0.03824 0.0
H188 H 0.2217 0.57645 0.06039 0.0
H189 H 0.19487 0.56767 0.99645 0.0
C190 C 0.21843 0.64233 0.94293 0.0
C191 C 0.2348 0.68408 0.91728 0.0
C192 C 0.23347 0.64783 0.97992 0.0
C193 C 0.26588 0.73204 0.9293 0.0
C194 C 0.28024 0.73831 0.96626 0.0
C195 C 0.27943 0.70157 0.02904 0.0
C196 C 0.26448 0.65842 0.05422 0.0
C197 C 0.26446 0.69631 0.99186 0.0
C198 C 0.23401 0.61033 0.04174 0.0
C199 C 0.21846 0.60522 0.0051 0.0
H200 H 0.78338 0.79052 0.56211 0.0
H201 H 0.89951 0.93401 0.56837 0.0
H202 H 0.90647 0.93672 0.50205 0.0
H203 H 0.88029 0.89926 0.44244 0.0
H204 H 0.7649 0.75573 0.43422 0.0
H205 H 0.75696 0.75226 0.50113 0.0
C206 C 0.8102 0.82233 0.54893 0.0
C207 C 0.84081 0.86204 0.57035 0.0
C208 C 0.81415 0.82376 0.51044 0.0
C209 C 0.87537 0.90295 0.55275 0.0
C210 C 0.87945 0.9046 0.51473 0.0
C211 C 0.85323 0.86713 0.45512 0.0
C212 C 0.82317 0.82786 0.43325 0.0
C213 C 0.84905 0.86534 0.49335 0.0
C214 C 0.78851 0.78652 0.45037 0.0
C215 C 0.78399 0.78453 0.48863 0.0
H216 H 0.65565 0.38597 0.96295 0.0
H217 H 0.72948 0.23002 0.92163 0.0
H218 H 0.74583 0.19703 0.98415 0.0
H219 H 0.73703 0.21153 0.05086 0.0
H220 H 0.6637 0.36844 0.09135 0.0
H221 H 0.64943 0.40165 0.029 0.0
C222 C 0.67549 0.34482 0.96754 0.0
C223 C 0.69108 0.31053 0.93755 0.0
C224 C 0.68477 0.32607 0.00353 0.0
C225 C 0.71701 0.2574 0.94415 0.0
C226 C 0.72629 0.23839 0.97994 0.0
C227 C 0.71801 0.253 0.04604 0.0
C228 C 0.70139 0.28723 0.07589 0.0
C229 C 0.70997 0.27219 0.00989 0.0
C230 C 0.67702 0.34104 0.06903 0.0
C231 C 0.66873 0.36018 0.0333 0.0
H232 H 0.5529 0.24993 0.25728 0.0
H233 H 0.5351 0.12084 0.1738 0.0
H234 H 0.43966 0.09706 0.19681 0.0
H235 H 0.35918 0.11691 0.23858 0.0
H236 H 0.37603 0.25044 0.31942 0.0
H237 H 0.47368 0.26867 0.29934 0.0
C238 C 0.52863 0.21583 0.2445 0.0
C239 C 0.55137 0.18677 0.21406 0.0
C240 C 0.47318 0.20377 0.25709 0.0
C241 C 0.51871 0.14362 0.19737 0.0
C242 C 0.46404 0.13022 0.21042 0.0
C243 C 0.38428 0.14984 0.25191 0.0
C244 C 0.36004 0.18233 0.28044 0.0
C245 C 0.44043 0.1607 0.23989 0.0
C246 C 0.39328 0.22497 0.29728 0.0
C247 C 0.4493 0.23535 0.28589 0.0
H248 H 0.291 0.84864 0.73338 0.0
H249 H 0.16413 0.90869 0.80992 0.0
H250 H 0.18793 0.00748 0.79479 0.0
H251 H 0.25134 0.0776 0.764 0.0
H252 H 0.37679 0.0175 0.68692 0.0
H253 H 0.34743 0.91862 0.69815 0.0
C254 C 0.26817 0.88327 0.74653 0.0
C255 C 0.22643 0.87087 0.7732 0.0
C256 C 0.28216 0.94035 0.73778 0.0
C257 C 0.19692 0.91661 0.78958 0.0
C258 C 0.21058 0.97336 0.78102 0.0
C259 C 0.27109 0.04283 0.74905 0.0
C260 C 0.31538 0.05478 0.72415 0.0
C261 C 0.25404 0.98584 0.75578 0.0
C262 C 0.34199 0.00929 0.70581 0.0
C263 C 0.32535 0.95274 0.71232 0.0
H264 H 0.59768 0.86131 0.28243 0.0
H265 H 0.70788 0.73856 0.22978 0.0
H266 H 0.63168 0.71251 0.1878 0.0
H267 H 0.53303 0.72128 0.16751 0.0
H268 H 0.42053 0.8407 0.22108 0.0
H269 H 0.49855 0.8718 0.26081 0.0
C270 C 0.6051 0.82903 0.26168 0.0
C271 C 0.65853 0.80182 0.25948 0.0
C272 C 0.56074 0.81375 0.23765 0.0
C273 C 0.66723 0.76003 0.23237 0.0
C274 C 0.62366 0.74514 0.20822 0.0
C275 C 0.52558 0.7547 0.18751 0.0
C276 C 0.47092 0.77873 0.19116 0.0
C277 C 0.57017 0.77136 0.21077 0.0
C278 C 0.46217 0.82156 0.21756 0.0
C279 C 0.50673 0.83919 0.24042 0.0
H280 H 0.67577 0.13962 0.78483 0.0
H281 H 0.69049 0.2288 0.68179 0.0
H282 H 0.7033 0.13804 0.64994 0.0
H283 H 0.71653 0.03419 0.65178 0.0
H284 H 0.70382 0.94496 0.7549 0.0
H285 H 0.68299 0.03486 0.7861 0.0
C286 C 0.68154 0.13926 0.75538 0.0
C287 C 0.68272 0.19115 0.73582 0.0
C288 C 0.68906 0.08686 0.7372 0.0
C289 C 0.68969 0.18967 0.69761 0.0
C290 C 0.697 0.13772 0.67934 0.0
C291 C 0.70842 0.03413 0.68101 0.0
C292 C 0.71214 0.98276 0.70095 0.0
C293 C 0.69755 0.08614 0.69891 0.0
C294 C 0.70143 0.98376 0.73883 0.0
C295 C 0.68978 0.03525 0.75675 0.0
H296 H 0.072 0.24514 0.25715 0.0
H297 H 0.00045 0.32424 0.35352 0.0
H298 H 0.90901 0.3347 0.3225 0.0
H299 H 0.84756 0.31612 0.26926 0.0
H300 H 0.91921 0.2357 0.17334 0.0
H301 H 0.012 0.23064 0.20306 0.0
C302 C 0.03674 0.26551 0.27123 0.0
C303 C 0.04324 0.28383 0.30769 0.0
C304 C 0.98387 0.27039 0.25347 0.0
C305 C 0.99675 0.30969 0.32549 0.0
C306 C 0.94428 0.31545 0.30782 0.0
C307 C 0.88348 0.29757 0.25483 0.0
C308 C 0.87616 0.27604 0.21916 0.0
C309 C 0.937 0.29493 0.27206 0.0
C310 C 0.92342 0.25258 0.2008 0.0
C311 C 0.97664 0.24969 0.21777 0.0
H312 H 0.26849 0.40542 0.70906 0.0
H313 H 0.14401 0.30952 0.77141 0.0
H314 H 0.1074 0.39817 0.79762 0.0
H315 H 0.10679 0.50319 0.80025 0.0
H316 H 0.22646 0.59984 0.73526 0.0
H317 H 0.26985 0.51086 0.7133 0.0
C318 C 0.23359 0.40375 0.72857 0.0
C319 C 0.2089 0.35052 0.73802 0.0
C320 C 0.21221 0.45516 0.74329 0.0
C321 C 0.16373 0.34958 0.76342 0.0
C322 C 0.14274 0.40036 0.77846 0.0
C323 C 0.14296 0.50469 0.78167 0.0
C324 C 0.16468 0.55805 0.77028 0.0
C325 C 0.16612 0.45338 0.76825 0.0
C326 C 0.21058 0.5594 0.74557 0.0
C327 C 0.23472 0.50846 0.7326 0.0
H328 H 0.17804 0.72092 0.25005 0.0
H329 H 0.08011 0.70545 0.15068 0.0
H330 H 0.99178 0.71029 0.18578 0.0
H331 H 0.94213 0.72486 0.24403 0.0
H332 H 0.03933 0.74401 0.34333 0.0
H333 H 0.12791 0.7307 0.309 0.0
C334 C 0.13739 0.71842 0.23608 0.0
C335 C 0.13587 0.71336 0.19772 0.0
C336 C 0.08649 0.72157 0.25643 0.0
C337 C 0.08272 0.70981 0.18013 0.0
C338 C 0.03204 0.71242 0.20019 0.0
C339 C 0.98259 0.72505 0.25832 0.0
C340 C 0.98407 0.7354 0.2962 0.0
C341 C 0.0334 0.71896 0.23828 0.0
C342 C 0.03698 0.73614 0.31416 0.0
C343 C 0.0877 0.72884 0.29452 0.0
H344 H 0.71301 0.47501 0.75963 0.0
H345 H 0.84381 0.47968 0.84237 0.0
H346 H 0.87353 0.57449 0.82158 0.0
H347 H 0.86028 0.65755 0.78136 0.0
H348 H 0.72767 0.65383 0.69976 0.0
H349 H 0.70078 0.55738 0.71878 0.0
C350 C 0.74842 0.49645 0.77291 0.0
C351 C 0.77619 0.47006 0.80252 0.0
C352 C 0.7647 0.55145 0.76122 0.0
C353 C 0.82164 0.49887 0.81955 0.0
C354 C 0.83861 0.55322 0.80772 0.0
C355 C 0.82555 0.63568 0.76765 0.0
C356 C 0.796 0.66318 0.7392 0.0
C357 C 0.81004 0.5802 0.77885 0.0
C358 C 0.7511 0.63396 0.72181 0.0
C359 C 0.73571 0.57867 0.73263 0.0
loop_
_geom_bond_atom_site_label_1
_geom_bond_atom_site_label_2
_geom_bond_distance
_geom_bond_site_symmetry_2
_ccdc_geom_bond_type
C0 O1 1.160 . S
C0 O7 1.185 . S
O1 C0 1.160 . S
O2 Zn3 1.899 . S
O2 C10 1.284 . S
Zn3 O2 1.899 . S
Zn3 O4 2.032 . S
Zn3 O7 2.086 . S
Zn3 O12 1.977 . S
O4 Zn3 2.032 . S
O4 C8 1.278 . S
C5 O6 1.203 . S
C5 O12 1.267 . S
O6 C5 1.203 . S
O7 C0 1.185 . S
O7 Zn3 2.086 . S
C8 O4 1.278 . S
C8 O9 1.211 . S
O9 C8 1.211 . S
C10 O2 1.284 . S
C10 O11 1.273 . S
O11 C10 1.273 . S
O12 Zn3 1.977 . S
O12 C5 1.267 . S
C13 O14 1.160 . S
C13 O20 1.185 . S
O14 C13 1.160 . S
O15 Zn16 1.899 . S
O15 C23 1.284 . S
Zn16 O15 1.899 . S
Zn16 O17 2.032 . S
Zn16 O20 2.086 . S
Zn16 O25 1.977 . S
O17 Zn16 2.032 . S
O17 C21 1.278 . S
C18 O19 1.203 . S
C18 O25 1.267 . S
O19 C18 1.203 . S
O20 C13 1.185 . S
O20 Zn16 2.086 . S
C21 O17 1.278 . S
C21 O22 1.211 . S
O22 C21 1.211 . S
C23 O15 1.284 . S
C23 O24 1.273 . S
O24 C23 1.273 . S
O25 Zn16 1.977 . S
O25 C18 1.267 . S
C26 O27 1.160 . S
C26 O33 1.185 . S
O27 C26 1.160 . S
O28 Zn29 1.899 . S
O28 C36 1.284 . S
Zn29 O28 1.899 . S
Zn29 O30 2.032 . S
Zn29 O33 2.086 . S
Zn29 O38 1.977 . S
O30 Zn29 2.032 . S
O30 C34 1.278 . S
C31 O32 1.203 . S
C31 O38 1.267 . S
O32 C31 1.203 . S
O33 C26 1.185 . S
O33 Zn29 2.086 . S
C34 O30 1.278 . S
C34 O35 1.211 . S
O35 C34 1.211 . S
C36 O28 1.284 . S
C36 O37 1.273 . S
O37 C36 1.273 . S
O38 Zn29 1.977 . S
O38 C31 1.267 . S
C39 O40 1.160 . S
C39 O46 1.185 . S
O40 C39 1.160 . S
O41 Zn42 1.899 . S
O41 C49 1.284 . S
Zn42 O41 1.899 . S
Zn42 O43 2.032 . S
Zn42 O46 2.086 . S
Zn42 O51 1.977 . S
O43 Zn42 2.032 . S
O43 C47 1.278 . S
C44 O45 1.203 . S
C44 O51 1.267 . S
O45 C44 1.203 . S
O46 C39 1.185 . S
O46 Zn42 2.086 . S
C47 O43 1.278 . S
C47 O48 1.211 . S
O48 C47 1.211 . S
C49 O41 1.284 . S
C49 O50 1.273 . S
O50 C49 1.273 . S
O51 Zn42 1.977 . S
O51 C44 1.267 . S
C52 O53 1.160 . S
C52 O59 1.185 . S
O53 C52 1.160 . S
O54 Zn55 1.899 . S
O54 C62 1.284 . S
Zn55 O54 1.899 . S
Zn55 O56 2.032 . S
Zn55 O59 2.086 . S
Zn55 O64 1.977 . S
O56 Zn55 2.032 . S
O56 C60 1.278 . S
C57 O58 1.203 . S
C57 O64 1.267 . S
O58 C57 1.203 . S
O59 C52 1.185 . S
O59 Zn55 2.086 . S
C60 O56 1.278 . S
C60 O61 1.211 . S
O61 C60 1.211 . S
C62 O54 1.284 . S
C62 O63 1.273 . S
O63 C62 1.273 . S
O64 Zn55 1.977 . S
O64 C57 1.267 . S
C65 O66 1.160 . S
C65 O72 1.185 . S
O66 C65 1.160 . S
O67 Zn68 1.899 . S
O67 C75 1.284 . S
Zn68 O67 1.899 . S
Zn68 O69 2.032 . S
Zn68 O72 2.086 . S
Zn68 O77 1.977 . S
O69 Zn68 2.032 . S
O69 C73 1.278 . S
C70 O71 1.203 . S
C70 O77 1.267 . S
O71 C70 1.203 . S
O72 C65 1.185 . S
O72 Zn68 2.086 . S
C73 O69 1.278 . S
C73 O74 1.211 . S
O74 C73 1.211 . S
C75 O67 1.284 . S
C75 O76 1.273 . S
O76 C75 1.273 . S
O77 Zn68 1.977 . S
O77 C70 1.267 . S
C78 O79 1.160 . S
C78 O85 1.185 . S
O79 C78 1.160 . S
O80 Zn81 1.899 . S
O80 C88 1.284 . S
Zn81 O80 1.899 . S
Zn81 O82 2.032 . S
Zn81 O85 2.086 . S
Zn81 O90 1.977 . S
O82 Zn81 2.032 . S
O82 C86 1.278 . S
C83 O84 1.203 . S
C83 O90 1.267 . S
O84 C83 1.203 . S
O85 C78 1.185 . S
O85 Zn81 2.086 . S
C86 O82 1.278 . S
C86 O87 1.211 . S
O87 C86 1.211 . S
C88 O80 1.284 . S
C88 O89 1.273 . S
O89 C88 1.273 . S
O90 Zn81 1.977 . S
O90 C83 1.267 . S
C91 O92 1.160 . S
C91 O98 1.185 . S
O92 C91 1.160 . S
O93 Zn94 1.899 . S
O93 C101 1.284 . S
Zn94 O93 1.899 . S
Zn94 O95 2.032 . S
Zn94 O98 2.086 . S
Zn94 O103 1.977 . S
O95 Zn94 2.032 . S
O95 C99 1.278 . S
C96 O97 1.203 . S
C96 O103 1.267 . S
O97 C96 1.203 . S
O98 C91 1.185 . S
O98 Zn94 2.086 . S
C99 O95 1.278 . S
C99 O100 1.211 . S
O100 C99 1.211 . S
C101 O93 1.284 . S
C101 O102 1.273 . S
O102 C101 1.273 . S
O103 Zn94 1.977 . S
O103 C96 1.267 . S
H104 C110 0.930 1_565 S
H105 C113 0.930 . S
H106 C114 0.930 . S
H107 C115 0.930 1_545 S
H108 C118 0.930 . S
H109 C119 0.930 . S
C110 H104 0.930 1_545 S
C110 C111 1.355 . S
C110 C112 1.415 1_545 S
C111 C110 1.355 . S
C111 C113 1.419 . S
C112 C110 1.415 1_565 S
C112 C117 1.425 1_465 S
C112 C119 1.409 . S
C113 H105 0.930 . S
C113 C111 1.419 . S
C113 C114 1.362 1_455 S
C114 H106 0.930 . S
C114 C113 1.362 1_655 S
C114 C117 1.409 . S
C115 H107 0.930 1_565 S
C115 C116 1.355 . S
C115 C117 1.415 1_565 S
C116 C115 1.355 . S
C116 C118 1.419 . S
C117 C112 1.425 1_645 S
C117 C114 1.409 . S
C117 C115 1.415 1_545 S
C118 H108 0.930 . S
C118 C116 1.419 . S
C118 C119 1.362 1_655 S
C119 H109 0.930 . S
C119 C112 1.409 . S
C119 C118 1.362 1_455 S
H120 C126 0.930 . S
H121 C129 0.930 . S
H122 C130 0.930 . S
H123 C131 0.930 . S
H124 C134 0.930 . S
H125 C135 0.930 . S
C126 H120 0.930 . S
C126 C127 1.355 . S
C126 C128 1.415 . S
C127 C126 1.355 . S
C127 C129 1.419 . S
C128 C126 1.415 . S
C128 C133 1.425 . S
C128 C135 1.409 . S
C129 H121 0.930 . S
C129 C127 1.419 . S
C129 C130 1.362 . S
C130 H122 0.930 . S
C130 C129 1.362 . S
C130 C133 1.409 . S
C131 H123 0.930 . S
C131 C132 1.355 . S
C131 C133 1.415 . S
C132 C131 1.355 . S
C132 C134 1.419 . S
C133 C128 1.425 . S
C133 C130 1.409 . S
C133 C131 1.415 . S
C134 H124 0.930 . S
C134 C132 1.419 . S
C134 C135 1.362 . S
C135 H125 0.930 . S
C135 C128 1.409 . S
C135 C134 1.362 . S
H136 C142 0.930 . S
H137 C145 0.930 . S
H138 C146 0.930 . S
H139 C147 0.930 . S
H140 C150 0.930 . S
H141 C151 0.930 . S
C142 H136 0.930 . S
C142 C143 1.355 . S
C142 C144 1.415 . S
C143 C142 1.355 . S
C143 C145 1.419 . S
C144 C142 1.415 . S
C144 C149 1.425 . S
C144 C151 1.409 . S
C145 H137 0.930 . S
C145 C143 1.419 . S
C145 C146 1.362 . S
C146 H138 0.930 . S
C146 C145 1.362 . S
C146 C149 1.409 . S
C147 H139 0.930 . S
C147 C148 1.355 . S
C147 C149 1.415 . S
C148 C147 1.355 . S
C148 C150 1.419 . S
C149 C144 1.425 . S
C149 C146 1.409 . S
C149 C147 1.415 . S
C150 H140 0.930 . S
C150 C148 1.419 . S
C150 C151 1.362 . S
C151 H141 0.930 . S
C151 C144 1.409 . S
C151 C150 1.362 . S
H152 C158 0.930 1_655 S
H153 C161 0.930 . S
H154 C162 0.930 . S
H155 C163 0.930 1_455 S
H156 C166 0.930 . S
H157 C167 0.930 . S
C158 H152 0.930 1_455 S
C158 C159 1.355 . S
C158 C160 1.415 1_455 S
C159 C158 1.355 . S
C159 C161 1.419 . S
C160 C158 1.415 1_655 S
C160 C165 1.425 1_645 S
C160 C167 1.409 . S
C161 H153 0.930 . S
C161 C159 1.419 . S
C161 C162 1.362 1_545 S
C162 H154 0.930 . S
C162 C161 1.362 1_565 S
C162 C165 1.409 . S
C163 H155 0.930 1_655 S
C163 C164 1.355 . S
C163 C165 1.415 1_655 S
C164 C163 1.355 . S
C164 C166 1.419 . S
C165 C160 1.425 1_465 S
C165 C162 1.409 . S
C165 C163 1.415 1_455 S
C166 H156 0.930 . S
C166 C164 1.419 . S
C166 C167 1.362 1_565 S
C167 H157 0.930 . S
C167 C160 1.409 . S
C167 C166 1.362 1_545 S
H168 C174 0.930 . S
H169 C177 0.930 . S
H170 C178 0.930 . S
H171 C179 0.930 . S
H172 C182 0.930 . S
H173 C183 0.930 . S
C174 H168 0.930 . S
C174 C175 1.355 . S
C174 C176 1.415 . S
C175 C174 1.355 . S
C175 C177 1.419 . S
C176 C174 1.415 . S
C176 C181 1.425 . S
C176 C183 1.409 . S
C177 H169 0.930 . S
C177 C175 1.419 . S
C177 C178 1.362 . S
C178 H170 0.930 . S
C178 C177 1.362 . S
C178 C181 1.409 . S
C179 H171 0.930 . S
C179 C180 1.355 . S
C179 C181 1.415 . S
C180 C179 1.355 . S
C180 C182 1.419 . S
C181 C176 1.425 . S
C181 C178 1.409 . S
C181 C179 1.415 . S
C182 H172 0.930 . S
C182 C180 1.419 . S
C182 C183 1.362 . S
C183 H173 0.930 . S
C183 C176 1.409 . S
C183 C182 1.362 . S
H184 C190 0.930 . S
H185 C193 0.930 . S
H186 C194 0.930 . S
H187 C195 0.930 . S
H188 C198 0.930 . S
H189 C199 0.930 . S
C190 H184 0.930 . S
C190 C191 1.355 . S
C190 C192 1.415 . S
C191 C190 1.355 . S
C191 C193 1.419 . S
C192 C190 1.415 . S
C192 C197 1.425 1_556 S
C192 C199 1.409 1_556 S
C193 H185 0.930 . S
C193 C191 1.419 . S
C193 C194 1.362 . S
C194 H186 0.930 . S
C194 C193 1.362 . S
C194 C197 1.409 1_556 S
C195 H187 0.930 . S
C195 C196 1.355 . S
C195 C197 1.415 . S
C196 C195 1.355 . S
C196 C198 1.419 . S
C197 C192 1.425 1_554 S
C197 C194 1.409 1_554 S
C197 C195 1.415 . S
C198 H188 0.930 . S
C198 C196 1.419 . S
C198 C199 1.362 . S
C199 H189 0.930 . S
C199 C192 1.409 1_554 S
C199 C198 1.362 . S
H200 C206 0.930 . S
H201 C209 0.930 . S
H202 C210 0.930 . S
H203 C211 0.930 . S
H204 C214 0.930 . S
H205 C215 0.930 . S
C206 H200 0.930 . S
C206 C207 1.355 . S
C206 C208 1.415 . S
C207 C206 1.355 . S
C207 C209 1.419 . S
C208 C206 1.415 . S
C208 C213 1.425 . S
C208 C215 1.409 . S
C209 H201 0.930 . S
C209 C207 1.419 . S
C209 C210 1.362 . S
C210 H202 0.930 . S
C210 C209 1.362 . S
C210 C213 1.409 . S
C211 H203 0.930 . S
C211 C212 1.355 . S
C211 C213 1.415 . S
C212 C211 1.355 . S
C212 C214 1.419 . S
C213 C208 1.425 . S
C213 C210 1.409 . S
C213 C211 1.415 . S
C214 H204 0.930 . S
C214 C212 1.419 . S
C214 C215 1.362 . S
C215 H205 0.930 . S
C215 C208 1.409 . S
C215 C214 1.362 . S
H216 C222 0.930 . S
H217 C225 0.930 . S
H218 C226 0.930 . S
H219 C227 0.930 . S
H220 C230 0.930 . S
H221 C231 0.930 . S
C222 H216 0.930 . S
C222 C223 1.355 . S
C222 C224 1.415 1_556 S
C223 C222 1.355 . S
C223 C225 1.419 . S
C224 C222 1.415 1_554 S
C224 C229 1.425 1_554 S
C224 C231 1.409 . S
C225 H217 0.930 . S
C225 C223 1.419 . S
C225 C226 1.362 . S
C226 H218 0.930 . S
C226 C225 1.362 . S
C226 C229 1.409 . S
C227 H219 0.930 . S
C227 C228 1.355 . S
C227 C229 1.415 1_554 S
C228 C227 1.355 . S
C228 C230 1.419 . S
C229 C224 1.425 1_556 S
C229 C226 1.409 . S
C229 C227 1.415 1_556 S
C230 H220 0.930 . S
C230 C228 1.419 . S
C230 C231 1.362 . S
C231 H221 0.930 . S
C231 C224 1.409 . S
C231 C230 1.362 . S
H232 C238 0.930 . S
H233 C241 0.930 . S
H234 C242 0.930 . S
H235 C243 0.930 . S
H236 C246 0.930 . S
H237 C247 0.930 . S
C238 H232 0.930 . S
C238 C239 1.355 . S
C238 C240 1.415 . S
C239 C238 1.355 . S
C239 C241 1.419 . S
C240 C238 1.415 . S
C240 C245 1.425 . S
C240 C247 1.409 . S
C241 H233 0.930 . S
C241 C239 1.419 . S
C241 C242 1.362 . S
C242 H234 0.930 . S
C242 C241 1.362 . S
C242 C245 1.409 . S
C243 H235 0.930 . S
C243 C244 1.355 . S
C243 C245 1.415 . S
C244 C243 1.355 . S
C244 C246 1.419 . S
C245 C240 1.425 . S
C245 C242 1.409 . S
C245 C243 1.415 . S
C246 H236 0.930 . S
C246 C244 1.419 . S
C246 C247 1.362 . S
C247 H237 0.930 . S
C247 C240 1.409 . S
C247 C246 1.362 . S
H248 C254 0.930 . S
H249 C257 0.930 . S
H250 C258 0.930 . S
H251 C259 0.929 . S
H252 C262 0.930 . S
H253 C263 0.930 . S
C254 H248 0.930 . S
C254 C255 1.355 . S
C254 C256 1.415 . S
C255 C254 1.355 . S
C255 C257 1.419 . S
C256 C254 1.415 . S
C256 C261 1.425 . S
C256 C263 1.409 . S
C257 H249 0.930 . S
C257 C255 1.419 . S
C257 C258 1.362 . S
C258 H250 0.930 . S
C258 C257 1.362 . S
C258 C261 1.409 . S
C259 H251 0.929 . S
C259 C260 1.355 . S
C259 C261 1.415 . S
C260 C259 1.355 . S
C260 C262 1.419 . S
C261 C256 1.425 . S
C261 C258 1.409 . S
C261 C259 1.415 . S
C262 H252 0.930 . S
C262 C260 1.419 . S
C262 C263 1.362 . S
C263 H253 0.930 . S
C263 C256 1.409 . S
C263 C262 1.362 . S
H264 C270 0.930 . S
H265 C273 0.930 . S
H266 C274 0.930 . S
H267 C275 0.930 . S
H268 C278 0.930 . S
H269 C279 0.930 . S
C270 H264 0.930 . S
C270 C271 1.355 . S
C270 C272 1.415 . S
C271 C270 1.355 . S
C271 C273 1.419 . S
C272 C270 1.415 . S
C272 C277 1.425 . S
C272 C279 1.409 . S
C273 H265 0.930 . S
C273 C271 1.419 . S
C273 C274 1.362 . S
C274 H266 0.930 . S
C274 C273 1.362 . S
C274 C277 1.409 . S
C275 H267 0.930 . S
C275 C276 1.355 . S
C275 C277 1.415 . S
C276 C275 1.355 . S
C276 C278 1.419 . S
C277 C272 1.425 . S
C277 C274 1.409 . S
C277 C275 1.415 . S
C278 H268 0.930 . S
C278 C276 1.419 . S
C278 C279 1.362 . S
C279 H269 0.930 . S
C279 C272 1.409 . S
C279 C278 1.362 . S
H280 C286 0.930 . S
H281 C289 0.930 . S
H282 C290 0.930 . S
H283 C291 0.930 . S
H284 C294 0.930 1_565 S
H285 C295 0.930 . S
C286 H280 0.930 . S
C286 C287 1.355 . S
C286 C288 1.415 . S
C287 C286 1.355 . S
C287 C289 1.419 . S
C288 C286 1.415 . S
C288 C293 1.425 . S
C288 C295 1.409 . S
C289 H281 0.930 . S
C289 C287 1.419 . S
C289 C290 1.362 . S
C290 H282 0.930 . S
C290 C289 1.362 . S
C290 C293 1.409 . S
C291 H283 0.930 . S
C291 C292 1.355 . S
C291 C293 1.415 . S
C292 C291 1.355 . S
C292 C294 1.419 . S
C293 C288 1.425 . S
C293 C290 1.409 . S
C293 C291 1.415 . S
C294 H284 0.930 1_545 S
C294 C292 1.419 . S
C294 C295 1.362 . S
C295 H285 0.930 . S
C295 C288 1.409 . S
C295 C294 1.362 . S
H296 C302 0.923 1_455 S
H297 C305 0.930 . S
H298 C306 0.930 . S
H299 C307 0.930 . S
H300 C310 0.930 . S
H301 C311 0.930 . S
C302 H296 0.923 1_655 S
C302 C303 1.355 . S
C302 C304 1.415 . S
C303 C302 1.355 . S
C303 C305 1.419 . S
C304 C302 1.415 . S
C304 C309 1.425 . S
C304 C311 1.409 . S
C305 H297 0.930 . S
C305 C303 1.419 . S
C305 C306 1.362 . S
C306 H298 0.930 . S
C306 C305 1.362 . S
C306 C309 1.409 . S
C307 H299 0.930 . S
C307 C308 1.355 . S
C307 C309 1.415 . S
C308 C307 1.355 . S
C308 C310 1.419 . S
C309 C304 1.425 . S
C309 C306 1.409 . S
C309 C307 1.415 . S
C310 H300 0.930 . S
C310 C308 1.419 . S
C310 C311 1.362 . S
C311 H301 0.930 . S
C311 C304 1.409 . S
C311 C310 1.362 . S
H312 C318 0.930 . S
H313 C321 0.930 . S
H314 C322 0.930 . S
H315 C323 0.930 . S
H316 C326 0.930 . S
H317 C327 0.930 . S
C318 H312 0.930 . S
C318 C319 1.355 . S
C318 C320 1.415 . S
C319 C318 1.355 . S
C319 C321 1.419 . S
C320 C318 1.415 . S
C320 C325 1.425 . S
C320 C327 1.409 . S
C321 H313 0.930 . S
C321 C319 1.419 . S
C321 C322 1.362 . S
C322 H314 0.930 . S
C322 C321 1.362 . S
C322 C325 1.409 . S
C323 H315 0.930 . S
C323 C324 1.355 . S
C323 C325 1.415 . S
C324 C323 1.355 . S
C324 C326 1.419 . S
C325 C320 1.425 . S
C325 C322 1.409 . S
C325 C323 1.415 . S
C326 H316 0.930 . S
C326 C324 1.419 . S
C326 C327 1.362 . S
C327 H317 0.930 . S
C327 C320 1.409 . S
C327 C326 1.362 . S
H328 C334 0.930 . S
H329 C337 0.930 . S
H330 C338 0.930 . S
H331 C339 0.930 . S
H332 C342 0.930 . S
H333 C343 0.930 . S
C334 H328 0.930 . S
C334 C335 1.355 . S
C334 C336 1.415 . S
C335 C334 1.355 . S
C335 C337 1.419 . S
C336 C334 1.415 . S
C336 C341 1.425 . S
C336 C343 1.409 . S
C337 H329 0.930 . S
C337 C335 1.419 . S
C337 C338 1.362 . S
C338 H330 0.930 . S
C338 C337 1.362 . S
C338 C341 1.409 . S
C339 H331 0.930 . S
C339 C340 1.355 . S
C339 C341 1.415 . S
C340 C339 1.355 . S
C340 C342 1.419 . S
C341 C336 1.425 . S
C341 C338 1.409 . S
C341 C339 1.415 . S
C342 H332 0.930 . S
C342 C340 1.419 . S
C342 C343 1.362 . S
C343 H333 0.930 . S
C343 C336 1.409 . S
C343 C342 1.362 . S
H344 C350 0.930 . S
H345 C353 0.930 . S
H346 C354 0.930 . S
H347 C355 0.930 . S
H348 C358 0.930 . S
H349 C359 0.930 . S
C350 H344 0.930 . S
C350 C351 1.355 . S
C350 C352 1.415 . S
C351 C350 1.355 . S
C351 C353 1.419 . S
C352 C350 1.415 . S
C352 C357 1.425 . S
C352 C359 1.409 . S
C353 H345 0.930 . S
C353 C351 1.419 . S
C353 C354 1.362 . S
C354 H346 0.930 . S
C354 C353 1.362 . S
C354 C357 1.409 . S
C355 H347 0.930 . S
C355 C356 1.355 . S
C355 C357 1.415 . S
C356 C355 1.355 . S
C356 C358 1.419 . S
C357 C352 1.425 . S
C357 C354 1.409 . S
C357 C355 1.415 . S
C358 H348 0.930 . S
C358 C356 1.419 . S
C358 C359 1.362 . S
C359 H349 0.930 . S
C359 C352 1.409 . S
C359 C358 1.362 . S
C111 C5 0.505 . S
C116 C31 0.500 . S
C127 C18 0.627 . S
C132 C44 0.588 . S
C143 C57 0.747 . S
C148 C83 0.755 . S
C159 C70 0.546 . S
C164 C96 0.518 . S
C175 C8 1.412 . S
C180 C73 1.459 . S
C191 C21 1.439 . S
C196 C86 1.360 . S
C207 C99 1.358 . S
C212 C34 1.428 . S
C223 C47 1.398 . S
C228 C60 1.365 . S
C239 C62 1.522 . S
C244 C0 1.601 . S
C255 C13 1.601 . S
C260 C75 1.521 1_565 S
C271 C26 1.569 . S
C276 C88 1.528 . S
C287 C39 1.580 . S
C292 C101 1.569 1_545 S
C303 C10 1.545 1_655 S
C308 C52 1.599 . S
C319 C65 1.573 . S
C324 C23 1.513 . S
C335 C78 1.601 . S
C340 C36 1.527 1_455 S
C351 C49 1.499 . S
C356 C91 1.594 . S
