# Generated by pormake.
# Topology vbm, (6)-cn, num edge types: 1
# Building blocks:
#     Node 0, Type 0, BuildingBlock: BETFEN_clean_sbu_0, # of connection points: 6
#     Node 1, Type 0, BuildingBlock: BETFEN_clean_sbu_0, # of connection points: 6
#     Node 2, Type 0, BuildingBlock: BETFEN_clean_sbu_0, # of connection points: 6
#     Node 3, Type 0, BuildingBlock: BETFEN_clean_sbu_0, # of connection points: 6
#     Node 4, Type 0, BuildingBlock: BETFEN_clean_sbu_0, # of connection points: 6
#     Node 5, Type 0, BuildingBlock: BETFEN_clean_sbu_0, # of connection points: 6
#     Node 6, Type 0, BuildingBlock: BETFEN_clean_sbu_0, # of connection points: 6
#     Node 7, Type 0, BuildingBlock: BETFEN_clean_sbu_0, # of connection points: 6
#     Node 8, Type 0, BuildingBlock: BETFEN_clean_sbu_0, # of connection points: 6
#     Node 9, Type 0, BuildingBlock: BETFEN_clean_sbu_0, # of connection points: 6
#     Node 10, Type 0, BuildingBlock: BETFEN_clean_sbu_0, # of connection points: 6
#     Node 11, Type 0, BuildingBlock: BETFEN_clean_sbu_0, # of connection points: 6
#     Node 12, Type 0, BuildingBlock: BETFEN_clean_sbu_0, # of connection points: 6
#     Node 13, Type 0, BuildingBlock: BETFEN_clean_sbu_0, # of connection points: 6
#     Node 14, Type 0, BuildingBlock: BETFEN_clean_sbu_0, # of connection points: 6
#     Node 15, Type 0, BuildingBlock: BETFEN_clean_sbu_0, # of connection points: 6
#     Edge 16, Type (0, 0), BuildingBlock: XUDNAN_clean_linker_2, # of connection points: 2
#     Edge 17, Type (0, 0), BuildingBlock: XUDNAN_clean_linker_2, # of connection points: 2
#     Edge 18, Type (0, 0), BuildingBlock: XUDNAN_clean_linker_2, # of connection points: 2
#     Edge 19, Type (0, 0), BuildingBlock: XUDNAN_clean_linker_2, # of connection points: 2
#     Edge 20, Type (0, 0), BuildingBlock: XUDNAN_clean_linker_2, # of connection points: 2
#     Edge 21, Type (0, 0), BuildingBlock: XUDNAN_clean_linker_2, # of connection points: 2
#     Edge 22, Type (0, 0), BuildingBlock: XUDNAN_clean_linker_2, # of connection points: 2
#     Edge 23, Type (0, 0), BuildingBlock: XUDNAN_clean_linker_2, # of connection points: 2
#     Edge 24, Type (0, 0), BuildingBlock: XUDNAN_clean_linker_2, # of connection points: 2
#     Edge 25, Type (0, 0), BuildingBlock: XUDNAN_clean_linker_2, # of connection points: 2
#     Edge 26, Type (0, 0), BuildingBlock: XUDNAN_clean_linker_2, # of connection points: 2
#     Edge 27, Type (0, 0), BuildingBlock: XUDNAN_clean_linker_2, # of connection points: 2
#     Edge 28, Type (0, 0), BuildingBlock: XUDNAN_clean_linker_2, # of connection points: 2
#     Edge 29, Type (0, 0), BuildingBlock: XUDNAN_clean_linker_2, # of connection points: 2
#     Edge 30, Type (0, 0), BuildingBlock: XUDNAN_clean_linker_2, # of connection points: 2
#     Edge 31, Type (0, 0), BuildingBlock: XUDNAN_clean_linker_2, # of connection points: 2
#     Edge 32, Type (0, 0), BuildingBlock: XUDNAN_clean_linker_2, # of connection points: 2
#     Edge 33, Type (0, 0), BuildingBlock: XUDNAN_clean_linker_2, # of connection points: 2
#     Edge 34, Type (0, 0), BuildingBlock: XUDNAN_clean_linker_2, # of connection points: 2
#     Edge 35, Type (0, 0), BuildingBlock: XUDNAN_clean_linker_2, # of connection points: 2
#     Edge 36, Type (0, 0), BuildingBlock: XUDNAN_clean_linker_2, # of connection points: 2
#     Edge 37, Type (0, 0), BuildingBlock: XUDNAN_clean_linker_2, # of connection points: 2
#     Edge 38, Type (0, 0), BuildingBlock: XUDNAN_clean_linker_2, # of connection points: 2
#     Edge 39, Type (0, 0), BuildingBlock: XUDNAN_clean_linker_2, # of connection points: 2
#     Edge 40, Type (0, 0), BuildingBlock: XUDNAN_clean_linker_2, # of connection points: 2
#     Edge 41, Type (0, 0), BuildingBlock: XUDNAN_clean_linker_2, # of connection points: 2
#     Edge 42, Type (0, 0), BuildingBlock: XUDNAN_clean_linker_2, # of connection points: 2
#     Edge 43, Type (0, 0), BuildingBlock: XUDNAN_clean_linker_2, # of connection points: 2
#     Edge 44, Type (0, 0), BuildingBlock: XUDNAN_clean_linker_2, # of connection points: 2
#     Edge 45, Type (0, 0), BuildingBlock: XUDNAN_clean_linker_2, # of connection points: 2
#     Edge 46, Type (0, 0), BuildingBlock: XUDNAN_clean_linker_2, # of connection points: 2
#     Edge 47, Type (0, 0), BuildingBlock: XUDNAN_clean_linker_2, # of connection points: 2
#     Edge 48, Type (0, 0), BuildingBlock: XUDNAN_clean_linker_2, # of connection points: 2
#     Edge 49, Type (0, 0), BuildingBlock: XUDNAN_clean_linker_2, # of connection points: 2
#     Edge 50, Type (0, 0), BuildingBlock: XUDNAN_clean_linker_2, # of connection points: 2
#     Edge 51, Type (0, 0), BuildingBlock: XUDNAN_clean_linker_2, # of connection points: 2
#     Edge 52, Type (0, 0), BuildingBlock: XUDNAN_clean_linker_2, # of connection points: 2
#     Edge 53, Type (0, 0), BuildingBlock: XUDNAN_clean_linker_2, # of connection points: 2
#     Edge 54, Type (0, 0), BuildingBlock: XUDNAN_clean_linker_2, # of connection points: 2
#     Edge 55, Type (0, 0), BuildingBlock: XUDNAN_clean_linker_2, # of connection points: 2
#     Edge 56, Type (0, 0), BuildingBlock: XUDNAN_clean_linker_2, # of connection points: 2
#     Edge 57, Type (0, 0), BuildingBlock: XUDNAN_clean_linker_2, # of connection points: 2
#     Edge 58, Type (0, 0), BuildingBlock: XUDNAN_clean_linker_2, # of connection points: 2
#     Edge 59, Type (0, 0), BuildingBlock: XUDNAN_clean_linker_2, # of connection points: 2
#     Edge 60, Type (0, 0), BuildingBlock: XUDNAN_clean_linker_2, # of connection points: 2
#     Edge 61, Type (0, 0), BuildingBlock: XUDNAN_clean_linker_2, # of connection points: 2
#     Edge 62, Type (0, 0), BuildingBlock: XUDNAN_clean_linker_2, # of connection points: 2
#     Edge 63, Type (0, 0), BuildingBlock: XUDNAN_clean_linker_2, # of connection points: 2
# Relax obj value: 0.067
# Max RMSD: 0.141
# Mean RMSD: 0.141
data_MOF--net-vbm--node1-BETFEN_clean_sbu_0--edge1-XUDNAN_clean_linker_2
_symmetry_space_group_name_H-M    P1
_symmetry_Int_Tables_number       1
_symmetry_cell_setting            triclinic
loop_
_symmetry_equiv_pos_as_xyz
'x, y, z'
_cell_length_a     55.347073
_cell_length_b     26.195387
_cell_length_c     57.106643
_cell_angle_alpha  89.916811
_cell_angle_beta   90.168481
_cell_angle_gamma 90.014887
loop_
_atom_site_label
_atom_site_type_symbol
_atom_site_fract_x
_atom_site_fract_y
_atom_site_fract_z
_atom_type_partial_charge
Pr0 Pr 0.14051 0.06026 0.14513 0.0
Pr1 Pr 0.12402 0.1724 0.14608 0.0
C2 C 0.15102 0.96528 0.15972 0.0
C3 C 0.14564 0.91031 0.15769 0.0
C4 C 0.15388 0.88068 0.13878 0.0
C5 C 0.15166 0.82739 0.13939 0.0
C6 C 0.14133 0.80322 0.15896 0.0
C7 C 0.13192 0.83325 0.17711 0.0
C8 C 0.13417 0.88609 0.17653 0.0
C9 C 0.13418 0.08907 0.0984 0.0
C10 C 0.08272 0.0889 0.13697 0.0
C11 C 0.11508 0.27203 0.13889 0.0
C12 C 0.12176 0.32486 0.14481 0.0
C13 C 0.11623 0.34585 0.16676 0.0
C14 C 0.1202 0.39759 0.17102 0.0
C15 C 0.12998 0.42927 0.15352 0.0
C16 C 0.13588 0.40793 0.13172 0.0
C17 C 0.13173 0.35626 0.12741 0.0
C18 C 0.12111 0.1219 0.18902 0.0
C19 C 0.1825 0.15068 0.14928 0.0
O20 O 0.13457 0.99405 0.16954 0.0
O21 O 0.16299 0.98811 0.14294 0.0
O22 O 0.1307 0.11785 0.11578 0.0
O23 O 0.14057 0.04367 0.10505 0.0
O24 O 0.09024 0.13423 0.13039 0.0
O25 O 0.09781 0.05499 0.14603 0.0
O26 O 0.13017 0.24572 0.12607 0.0
O27 O 0.10387 0.24469 0.15469 0.0
O28 O 0.13876 0.11854 0.17506 0.0
O29 O 0.10486 0.15337 0.18118 0.0
O30 O 0.17845 0.10136 0.14628 0.0
O31 O 0.16502 0.18425 0.1511 0.0
H32 H 0.16283 0.89836 0.12401 0.0
H33 H 0.15907 0.80507 0.12516 0.0
H34 H 0.12345 0.81574 0.19219 0.0
H35 H 0.12773 0.90791 0.19136 0.0
H36 H 0.1083 0.32272 0.18046 0.0
H37 H 0.11505 0.41295 0.18788 0.0
H38 H 0.14373 0.43107 0.11798 0.0
H39 H 0.13591 0.34102 0.11026 0.0
Pr40 Pr 0.85258 0.98848 0.13796 0.0
Pr41 Pr 0.87686 0.87748 0.14316 0.0
C42 C 0.83985 0.0878 0.13857 0.0
C43 C 0.8475 0.14137 0.14217 0.0
C44 C 0.84689 0.17533 0.12311 0.0
C45 C 0.85077 0.22756 0.1264 0.0
C46 C 0.85543 0.24715 0.14888 0.0
C47 C 0.85717 0.21264 0.16779 0.0
C48 C 0.85311 0.1604 0.16449 0.0
C49 C 0.85783 0.93385 0.09658 0.0
C50 C 0.91343 0.97437 0.14048 0.0
C51 C 0.89038 0.7809 0.13384 0.0
C52 C 0.88456 0.72686 0.13906 0.0
C53 C 0.88643 0.70652 0.16178 0.0
C54 C 0.88207 0.65456 0.16578 0.0
C55 C 0.87554 0.62184 0.14722 0.0
C56 C 0.87343 0.64259 0.12458 0.0
C57 C 0.87794 0.69439 0.12058 0.0
C58 C 0.86677 0.91851 0.18772 0.0
C59 C 0.81656 0.89014 0.14045 0.0
O60 O 0.83745 0.05757 0.15678 0.0
O61 O 0.84779 0.06453 0.11987 0.0
O62 O 0.87363 0.93586 0.11268 0.0
O63 O 0.83872 0.96014 0.10192 0.0
O64 O 0.91187 0.92452 0.13758 0.0
O65 O 0.89416 1.00388 0.14325 0.0
O66 O 0.87468 0.80614 0.12109 0.0
O67 O 0.90061 0.80871 0.15021 0.0
O68 O 0.86273 0.93838 0.16816 0.0
O69 O 0.87579 0.87326 0.18475 0.0
O70 O 0.81752 0.93979 0.14466 0.0
O71 O 0.83598 0.86204 0.13708 0.0
H72 H 0.84246 0.16173 0.10571 0.0
H73 H 0.84903 0.25273 0.11143 0.0
H74 H 0.86129 0.22602 0.18528 0.0
H75 H 0.85377 0.1352 0.17951 0.0
H76 H 0.89152 0.73051 0.17642 0.0
H77 H 0.88421 0.63993 0.18341 0.0
H78 H 0.86806 0.61897 0.10992 0.0
H79 H 0.87639 0.70911 0.1029 0.0
Pr80 Pr 0.14237 0.98261 0.38287 0.0
Pr81 Pr 0.11886 0.87432 0.37909 0.0
C82 C 0.15491 0.07815 0.37003 0.0
C83 C 0.14957 0.13352 0.37179 0.0
C84 C 0.15258 0.16164 0.39264 0.0
C85 C 0.1502 0.21515 0.39248 0.0
C86 C 0.14504 0.24116 0.37146 0.0
C87 C 0.14087 0.21255 0.35106 0.0
C88 C 0.14315 0.15957 0.35123 0.0
C89 C 0.1339 0.95076 0.42871 0.0
C90 C 0.08178 0.96603 0.38843 0.0
C91 C 0.10675 0.77459 0.37655 0.0
C92 C 0.11555 0.72112 0.37593 0.0
C93 C 0.11857 0.69718 0.35416 0.0
C94 C 0.12437 0.64555 0.3528 0.0
C95 C 0.12763 0.61613 0.37319 0.0
C96 C 0.12464 0.63995 0.39509 0.0
C97 C 0.1186 0.69196 0.39645 0.0
C98 C 0.12173 0.93117 0.33776 0.0
C99 C 0.17866 0.88443 0.38542 0.0
O100 O 0.13948 0.04998 0.35838 0.0
O101 O 0.16506 0.05432 0.38772 0.0
O102 O 0.1287 0.92424 0.41081 0.0
O103 O 0.14366 0.99399 0.42293 0.0
O104 O 0.08431 0.91633 0.39069 0.0
O105 O 0.10014 0.99665 0.38333 0.0
O106 O 0.10682 0.79993 0.39633 0.0
O107 O 0.11164 0.80314 0.35839 0.0
O108 O 0.13856 0.92633 0.35259 0.0
O109 O 0.10234 0.90795 0.34467 0.0
O110 O 0.17813 0.93399 0.38096 0.0
O111 O 0.15897 0.85658 0.38719 0.0
H112 H 0.15749 0.14261 0.40881 0.0
H113 H 0.15354 0.23628 0.40846 0.0
H114 H 0.13652 0.23139 0.33468 0.0
H115 H 0.14071 0.13901 0.33494 0.0
H116 H 0.11584 0.71807 0.33797 0.0
H117 H 0.1258 0.62851 0.3356 0.0
H118 H 0.1271 0.61858 0.41117 0.0
H119 H 0.11604 0.7091 0.41351 0.0
Pr120 Pr 0.85405 0.05881 0.3867 0.0
Pr121 Pr 0.87131 0.16582 0.37718 0.0
C122 C 0.84284 0.95889 0.39087 0.0
C123 C 0.84812 0.90535 0.38545 0.0
C124 C 0.83348 0.86775 0.3955 0.0
C125 C 0.83767 0.81623 0.39099 0.0
C126 C 0.85681 0.80112 0.37642 0.0
C127 C 0.87169 0.8392 0.36651 0.0
C128 C 0.86732 0.891 0.37093 0.0
C129 C 0.85598 0.11769 0.42708 0.0
C130 C 0.91302 0.0836 0.38633 0.0
C131 C 0.88239 0.26582 0.37895 0.0
C132 C 0.87576 0.31983 0.37583 0.0
C133 C 0.86767 0.3394 0.35431 0.0
C134 C 0.86438 0.39204 0.35148 0.0
C135 C 0.8694 0.42603 0.37 0.0
C136 C 0.87666 0.40579 0.39172 0.0
C137 C 0.87971 0.3533 0.39458 0.0
C138 C 0.86822 0.10487 0.337 0.0
C139 C 0.81234 0.14797 0.3814 0.0
O140 O 0.8343 0.98794 0.37418 0.0
O141 O 0.8574 0.98267 0.40519 0.0
O142 O 0.87211 0.11759 0.41139 0.0
O143 O 0.83812 0.08813 0.42152 0.0
O144 O 0.90683 0.13115 0.39 0.0
O145 O 0.89653 0.04912 0.38044 0.0
O146 O 0.87265 0.24105 0.39642 0.0
O147 O 0.88654 0.23746 0.36053 0.0
O148 O 0.85291 0.10615 0.35327 0.0
O149 O 0.88536 0.13805 0.34027 0.0
O150 O 0.81589 0.09829 0.38361 0.0
O151 O 0.83025 0.18044 0.37934 0.0
H152 H 0.81858 0.87832 0.40678 0.0
H153 H 0.82555 0.78839 0.39861 0.0
H154 H 0.88683 0.82904 0.3555 0.0
H155 H 0.87889 0.91969 0.36312 0.0
H156 H 0.86439 0.3143 0.33959 0.0
H157 H 0.85823 0.4061 0.33465 0.0
H158 H 0.88101 0.43049 0.40632 0.0
H159 H 0.88607 0.33896 0.41131 0.0
Pr160 Pr 0.87337 0.88705 0.87666 0.0
Pr161 Pr 0.85145 0.9919 0.88623 0.0
C162 C 0.88565 0.78721 0.87884 0.0
C163 C 0.87862 0.73313 0.87482 0.0
C164 C 0.88795 0.70681 0.85546 0.0
C165 C 0.88422 0.65432 0.85293 0.0
C166 C 0.87091 0.62649 0.86962 0.0
C167 C 0.86129 0.65294 0.8889 0.0
C168 C 0.86513 0.70561 0.89149 0.0
C169 C 0.86643 0.94592 0.83625 0.0
C170 C 0.81323 0.89701 0.88192 0.0
C171 C 0.83911 0.09138 0.89098 0.0
C172 C 0.84485 0.14537 0.88595 0.0
C173 C 0.83752 0.18256 0.90206 0.0
C174 C 0.84137 0.23444 0.89762 0.0
C175 C 0.85287 0.25053 0.87694 0.0
C176 C 0.86091 0.21277 0.8611 0.0
C177 C 0.85683 0.16073 0.8655 0.0
C178 C 0.85737 0.93314 0.92634 0.0
C179 C 0.91138 0.97837 0.88099 0.0
O180 O 0.87558 0.81195 0.89615 0.0
O181 O 0.89039 0.81629 0.86075 0.0
O182 O 0.85183 0.94323 0.85317 0.0
O183 O 0.8844 0.91449 0.83886 0.0
O184 O 0.81478 0.94719 0.8838 0.0
O185 O 0.83239 0.86776 0.87952 0.0
O186 O 0.83107 0.06247 0.87399 0.0
O187 O 0.85306 0.06716 0.90574 0.0
O188 O 0.87306 0.93684 0.91028 0.0
O189 O 0.8381 0.9591 0.92139 0.0
O190 O 0.90902 0.9294 0.88553 0.0
O191 O 0.89226 1.00723 0.87647 0.0
H192 H 0.89881 0.72653 0.84255 0.0
H193 H 0.89239 0.63537 0.83809 0.0
H194 H 0.85075 0.63304 0.902 0.0
H195 H 0.85791 0.72449 0.90681 0.0
H196 H 0.82831 0.17146 0.91799 0.0
H197 H 0.8346 0.26187 0.91014 0.0
H198 H 0.87034 0.22329 0.84523 0.0
H199 H 0.8629 0.13267 0.8529 0.0
Pr200 Pr 0.12176 0.17543 0.8805 0.0
Pr201 Pr 0.14008 0.06265 0.88005 0.0
C202 C 0.11171 0.27462 0.88762 0.0
C203 C 0.11897 0.32743 0.88218 0.0
C204 C 0.11618 0.34787 0.85959 0.0
C205 C 0.12082 0.39946 0.85546 0.0
C206 C 0.12858 0.43156 0.87375 0.0
C207 C 0.13174 0.41073 0.89624 0.0
C208 C 0.1269 0.35922 0.9004 0.0
C209 C 0.11892 0.12551 0.83728 0.0
C210 C 0.18045 0.15652 0.87397 0.0
C211 C 0.15015 0.96787 0.86518 0.0
C212 C 0.14546 0.91266 0.86729 0.0
C213 C 0.15206 0.88409 0.8872 0.0
C214 C 0.15021 0.83067 0.88694 0.0
C215 C 0.14193 0.8054 0.86673 0.0
C216 C 0.1342 0.83444 0.84744 0.0
C217 C 0.13605 0.88736 0.84769 0.0
C218 C 0.13496 0.09107 0.92707 0.0
C219 C 0.08167 0.08943 0.88865 0.0
O220 O 0.1258 0.2481 0.9015 0.0
O221 O 0.10178 0.24748 0.87095 0.0
O222 O 0.13668 0.12295 0.85119 0.0
O223 O 0.10235 0.15583 0.8453 0.0
O224 O 0.17707 0.1064 0.87363 0.0
O225 O 0.16272 0.18925 0.87672 0.0
O226 O 0.1329 0.99605 0.85619 0.0
O227 O 0.16297 0.99098 0.88136 0.0
O228 O 0.13058 0.11922 0.90964 0.0
O229 O 0.14236 0.04652 0.92031 0.0
O230 O 0.08885 0.13433 0.89618 0.0
O231 O 0.0971 0.05687 0.87908 0.0
H232 H 0.10991 0.32442 0.8452 0.0
H233 H 0.11778 0.41437 0.838 0.0
H234 H 0.138 0.43412 0.91064 0.0
H235 H 0.129 0.34438 0.91801 0.0
H236 H 0.15935 0.90272 0.9026 0.0
H237 H 0.15629 0.80911 0.90205 0.0
H238 H 0.1273 0.81609 0.83179 0.0
H239 H 0.13088 0.90849 0.83213 0.0
Pr240 Pr 0.8726 0.17352 0.64202 0.0
Pr241 Pr 0.85548 0.05746 0.64132 0.0
C242 C 0.8846 0.26868 0.62939 0.0
C243 C 0.87742 0.3226 0.63079 0.0
C244 C 0.87864 0.3507 0.65174 0.0
C245 C 0.87299 0.40281 0.65173 0.0
C246 C 0.86606 0.42728 0.63081 0.0
C247 C 0.86499 0.39883 0.61002 0.0
C248 C 0.87048 0.34715 0.61005 0.0
C249 C 0.86362 0.13801 0.68801 0.0
C250 C 0.81535 0.14964 0.64534 0.0
C251 C 0.84505 0.95936 0.65022 0.0
C252 C 0.8504 0.90588 0.64477 0.0
C253 C 0.84831 0.88669 0.62192 0.0
C254 C 0.85001 0.83429 0.61795 0.0
C255 C 0.85365 0.80038 0.63676 0.0
C256 C 0.857 0.82009 0.65939 0.0
C257 C 0.8554 0.87244 0.66332 0.0
C258 C 0.85827 0.10418 0.59754 0.0
C259 C 0.91504 0.085 0.64104 0.0
O260 O 0.87077 0.23894 0.61666 0.0
O261 O 0.89355 0.24646 0.64809 0.0
O262 O 0.86147 0.1149 0.66907 0.0
O263 O 0.86988 0.18482 0.68363 0.0
O264 O 0.8211 0.10413 0.65391 0.0
O265 O 0.83147 0.17841 0.63482 0.0
O266 O 0.86127 0.98497 0.66208 0.0
O267 O 0.8336 0.98655 0.63444 0.0
O268 O 0.87352 0.10971 0.61388 0.0
O269 O 0.84149 0.07191 0.60336 0.0
O270 O 0.90961 0.13387 0.63951 0.0
O271 O 0.8983 0.04863 0.64193 0.0
H272 H 0.88406 0.33268 0.668 0.0
H273 H 0.87384 0.42375 0.66805 0.0
H274 H 0.8603 0.41667 0.5935 0.0
H275 H 0.86972 0.32644 0.59365 0.0
H276 H 0.84462 0.91182 0.60726 0.0
H277 H 0.84787 0.82021 0.60024 0.0
H278 H 0.85966 0.79498 0.67426 0.0
H279 H 0.85702 0.88664 0.68107 0.0
Pr280 Pr 0.1216 0.87232 0.6483 0.0
Pr281 Pr 0.14487 0.98178 0.64642 0.0
C282 C 0.11025 0.77228 0.64964 0.0
C283 C 0.11822 0.71893 0.64605 0.0
C284 C 0.12091 0.6868 0.66561 0.0
C285 C 0.12629 0.63504 0.66284 0.0
C286 C 0.12899 0.61398 0.64037 0.0
C287 C 0.1265 0.64639 0.62077 0.0
C288 C 0.12123 0.6983 0.62357 0.0
C289 C 0.12085 0.92819 0.69 0.0
C290 C 0.18112 0.88373 0.64834 0.0
C291 C 0.15687 0.078 0.65854 0.0
C292 C 0.15296 0.13258 0.65296 0.0
C293 C 0.15306 0.15126 0.62989 0.0
C294 C 0.15064 0.20376 0.62557 0.0
C295 C 0.14826 0.23874 0.64421 0.0
C296 C 0.14747 0.21941 0.6672 0.0
C297 C 0.14971 0.16702 0.67146 0.0
C298 C 0.13799 0.94976 0.59996 0.0
C299 C 0.08425 0.96545 0.64173 0.0
O300 O 0.10566 0.8014 0.63143 0.0
O301 O 0.11982 0.79696 0.66727 0.0
O302 O 0.13878 0.92533 0.67639 0.0
O303 O 0.10284 0.90154 0.68219 0.0
O304 O 0.17899 0.93174 0.6551 0.0
O305 O 0.16246 0.85707 0.64087 0.0
O306 O 0.13867 0.05324 0.66777 0.0
O307 O 0.16982 0.05028 0.64414 0.0
O308 O 0.13254 0.92385 0.61784 0.0
O309 O 0.14772 0.99281 0.60598 0.0
O310 O 0.08673 0.91627 0.63732 0.0
O311 O 0.1029 0.99449 0.64761 0.0
H312 H 0.11847 0.70158 0.68316 0.0
H313 H 0.12844 0.61166 0.67835 0.0
H314 H 0.12807 0.6315 0.60317 0.0
H315 H 0.11907 0.72194 0.60813 0.0
H316 H 0.15523 0.12545 0.61524 0.0
H317 H 0.15075 0.21687 0.60758 0.0
H318 H 0.14593 0.24478 0.68206 0.0
H319 H 0.14946 0.15342 0.68939 0.0
Pr320 Pr 0.6426 0.55627 0.13975 0.0
Pr321 Pr 0.6222 0.67074 0.14276 0.0
C322 C 0.66047 0.46174 0.14628 0.0
C323 C 0.65518 0.40698 0.14207 0.0
C324 C 0.6646 0.38249 0.12223 0.0
C325 C 0.66262 0.32966 0.1197 0.0
C326 C 0.65143 0.29983 0.13707 0.0
C327 C 0.64089 0.32451 0.15634 0.0
C328 C 0.6428 0.37756 0.15885 0.0
C329 C 0.62855 0.59814 0.09711 0.0
C330 C 0.58355 0.57581 0.13747 0.0
C331 C 0.60975 0.76774 0.13239 0.0
C332 C 0.61855 0.82111 0.13412 0.0
C333 C 0.60962 0.85404 0.1515 0.0
C334 C 0.61633 0.90562 0.15189 0.0
C335 C 0.632 0.92547 0.13478 0.0
C336 C 0.64093 0.89228 0.11748 0.0
C337 C 0.63443 0.84083 0.11723 0.0
C338 C 0.62511 0.62818 0.18806 0.0
C339 C 0.68124 0.65457 0.14548 0.0
O340 O 0.6476 0.4857 0.16205 0.0
O341 O 0.66601 0.49026 0.12819 0.0
O342 O 0.6396 0.62229 0.11316 0.0
O343 O 0.6252 0.55058 0.10281 0.0
O344 O 0.58722 0.6249 0.13355 0.0
O345 O 0.60107 0.54388 0.14338 0.0
O346 O 0.62073 0.73731 0.11769 0.0
O347 O 0.60305 0.74476 0.15166 0.0
O348 O 0.63098 0.60721 0.16915 0.0
O349 O 0.61748 0.67408 0.18375 0.0
O350 O 0.67853 0.60478 0.14226 0.0
O351 O 0.66302 0.6866 0.14718 0.0
H352 H 0.67424 0.40387 0.10897 0.0
H353 H 0.67047 0.312 0.10437 0.0
H354 H 0.63223 0.30267 0.17007 0.0
H355 H 0.63538 0.39518 0.17439 0.0
H356 H 0.59717 0.8401 0.16465 0.0
H357 H 0.6093 0.92979 0.16564 0.0
H358 H 0.65259 0.90618 0.10368 0.0
H359 H 0.64145 0.81684 0.10341 0.0
Pr360 Pr 0.35681 0.47406 0.14183 0.0
Pr361 Pr 0.37543 0.36996 0.14547 0.0
C362 C 0.34588 0.57367 0.14846 0.0
C363 C 0.3527 0.62759 0.14442 0.0
C364 C 0.35457 0.64812 0.12175 0.0
C365 C 0.35881 0.70034 0.11856 0.0
C366 C 0.36144 0.73318 0.13794 0.0
C367 C 0.35982 0.71229 0.16058 0.0
C368 C 0.35544 0.66015 0.16375 0.0
C369 C 0.35907 0.42858 0.09774 0.0
C370 C 0.41668 0.45213 0.13526 0.0
C371 C 0.38477 0.26935 0.14987 0.0
C372 C 0.37885 0.21543 0.14514 0.0
C373 C 0.37642 0.18191 0.16417 0.0
C374 C 0.37426 0.12937 0.16059 0.0
C375 C 0.37437 0.10913 0.1378 0.0
C376 C 0.37561 0.1432 0.11868 0.0
C377 C 0.37799 0.19579 0.12231 0.0
C378 C 0.3771 0.42449 0.18743 0.0
C379 C 0.31806 0.38319 0.1387 0.0
O380 O 0.35879 0.54698 0.16326 0.0
O381 O 0.33791 0.54686 0.13077 0.0
O382 O 0.37518 0.42401 0.11334 0.0
O383 O 0.34149 0.45767 0.10461 0.0
O384 O 0.4115 0.40338 0.13355 0.0
O385 O 0.3997 0.48624 0.14025 0.0
O386 O 0.39381 0.29762 0.13313 0.0
O387 O 0.37098 0.29451 0.16435 0.0
O388 O 0.35881 0.42299 0.17412 0.0
O389 O 0.39493 0.3988 0.17885 0.0
O390 O 0.32065 0.4281 0.14887 0.0
O391 O 0.33699 0.35849 0.13109 0.0
H392 H 0.35233 0.62411 0.10647 0.0
H393 H 0.35954 0.71508 0.10086 0.0
H394 H 0.36207 0.73612 0.17591 0.0
H395 H 0.35387 0.6453 0.1814 0.0
H396 H 0.37717 0.19622 0.18196 0.0
H397 H 0.37361 0.10461 0.17577 0.0
H398 H 0.37516 0.12924 0.10085 0.0
H399 H 0.37975 0.2208 0.10729 0.0
Pr400 Pr 0.64275 0.48224 0.38128 0.0
Pr401 Pr 0.6191 0.3754 0.37645 0.0
C402 C 0.65617 0.5788 0.37037 0.0
C403 C 0.65187 0.63378 0.37588 0.0
C404 C 0.66606 0.65926 0.39264 0.0
C405 C 0.6635 0.71191 0.39625 0.0
C406 C 0.64657 0.74076 0.38331 0.0
C407 C 0.63226 0.71515 0.36663 0.0
C408 C 0.63492 0.66249 0.36293 0.0
C409 C 0.63299 0.45059 0.42692 0.0
C410 C 0.58177 0.46687 0.38454 0.0
C411 C 0.60959 0.27521 0.37058 0.0
C412 C 0.61504 0.22127 0.37563 0.0
C413 C 0.60236 0.18378 0.36317 0.0
C414 C 0.60731 0.13201 0.36664 0.0
C415 C 0.62519 0.11642 0.38266 0.0
C416 C 0.63816 0.1544 0.39498 0.0
C417 C 0.63314 0.20642 0.39148 0.0
C418 C 0.62373 0.43182 0.33507 0.0
C419 C 0.67704 0.38401 0.38862 0.0
O420 O 0.63892 0.55398 0.35958 0.0
O421 O 0.66796 0.55039 0.38551 0.0
O422 O 0.62804 0.42384 0.40902 0.0
O423 O 0.6431 0.49347 0.42128 0.0
O424 O 0.58384 0.41699 0.38677 0.0
O425 O 0.60063 0.49656 0.38005 0.0
O426 O 0.59893 0.30302 0.38659 0.0
O427 O 0.62527 0.30048 0.358 0.0
O428 O 0.63986 0.42704 0.35056 0.0
O429 O 0.60398 0.40921 0.34132 0.0
O430 O 0.67752 0.43037 0.37944 0.0
O431 O 0.65653 0.361 0.39338 0.0
H432 H 0.67956 0.63875 0.40269 0.0
H433 H 0.67526 0.73011 0.40892 0.0
H434 H 0.61885 0.73565 0.35649 0.0
H435 H 0.62385 0.64437 0.34966 0.0
H436 H 0.58852 0.19462 0.35066 0.0
H437 H 0.59673 0.10423 0.35705 0.0
H438 H 0.65236 0.14402 0.40716 0.0
H439 H 0.64342 0.23489 0.40099 0.0
Pr440 Pr 0.35437 0.55659 0.37998 0.0
Pr441 Pr 0.37199 0.66853 0.378 0.0
C442 C 0.34339 0.46121 0.36627 0.0
C443 C 0.34975 0.4067 0.36908 0.0
C444 C 0.33501 0.37395 0.38238 0.0
C445 C 0.33853 0.32106 0.38169 0.0
C446 C 0.35674 0.30016 0.36754 0.0
C447 C 0.37236 0.33314 0.35545 0.0
C448 C 0.36887 0.38575 0.35614 0.0
C449 C 0.36148 0.58647 0.42631 0.0
C450 C 0.41255 0.58376 0.38794 0.0
C451 C 0.38209 0.7681 0.38358 0.0
C452 C 0.37611 0.82111 0.37713 0.0
C453 C 0.3899 0.84622 0.36008 0.0
C454 C 0.38674 0.89817 0.35596 0.0
C455 C 0.36957 0.92623 0.36868 0.0
C456 C 0.35547 0.90099 0.38553 0.0
C457 C 0.35874 0.84888 0.38975 0.0
C458 C 0.37249 0.61612 0.33549 0.0
C459 C 0.31313 0.64864 0.37673 0.0
O460 O 0.35891 0.49053 0.35537 0.0
O461 O 0.33204 0.48424 0.38337 0.0
O462 O 0.36509 0.61487 0.40876 0.0
O463 O 0.35457 0.5412 0.42002 0.0
O464 O 0.40532 0.62951 0.39414 0.0
O465 O 0.3972 0.55012 0.37902 0.0
O466 O 0.36709 0.74313 0.39708 0.0
O467 O 0.39262 0.73941 0.36786 0.0
O468 O 0.35555 0.61506 0.35022 0.0
O469 O 0.39006 0.64513 0.34258 0.0
O470 O 0.31672 0.59899 0.37933 0.0
O471 O 0.33091 0.68153 0.37468 0.0
H472 H 0.32007 0.38898 0.39246 0.0
H473 H 0.3262 0.29649 0.39116 0.0
H474 H 0.38685 0.31812 0.34477 0.0
H475 H 0.3806 0.40975 0.34569 0.0
H476 H 0.40373 0.82611 0.35038 0.0
H477 H 0.39827 0.91658 0.3432 0.0
H478 H 0.34195 0.92143 0.39546 0.0
H479 H 0.34803 0.83069 0.40324 0.0
Pr480 Pr 0.3719 0.38083 0.87871 0.0
Pr481 Pr 0.35352 0.48732 0.88497 0.0
C482 C 0.38343 0.28075 0.87833 0.0
C483 C 0.37427 0.22779 0.87804 0.0
C484 C 0.36381 0.20689 0.85777 0.0
C485 C 0.35802 0.15509 0.85683 0.0
C486 C 0.36227 0.123 0.87622 0.0
C487 C 0.37231 0.14424 0.89664 0.0
C488 C 0.37833 0.19603 0.89749 0.0
C489 C 0.36459 0.43588 0.837 0.0
C490 C 0.31357 0.39552 0.88283 0.0
C491 C 0.34046 0.58661 0.88392 0.0
C492 C 0.34718 0.64097 0.88141 0.0
C493 C 0.35278 0.67107 0.90109 0.0
C494 C 0.35452 0.72425 0.89902 0.0
C495 C 0.35047 0.74809 0.8773 0.0
C496 C 0.34627 0.71765 0.85747 0.0
C497 C 0.34455 0.66479 0.85951 0.0
C498 C 0.35761 0.43475 0.92696 0.0
C499 C 0.41325 0.4657 0.88053 0.0
O500 O 0.38122 0.30713 0.89763 0.0
O501 O 0.38084 0.30828 0.85939 0.0
O502 O 0.35037 0.43382 0.85406 0.0
O503 O 0.38371 0.40846 0.84086 0.0
O504 O 0.3171 0.44364 0.87666 0.0
O505 O 0.33182 0.36633 0.88892 0.0
O506 O 0.34151 0.55763 0.86536 0.0
O507 O 0.34565 0.56243 0.90332 0.0
O508 O 0.37354 0.43407 0.91103 0.0
O509 O 0.33893 0.46182 0.92101 0.0
O510 O 0.40865 0.41785 0.88558 0.0
O511 O 0.39558 0.49914 0.87706 0.0
H512 H 0.36069 0.23015 0.84236 0.0
H513 H 0.35078 0.14002 0.84062 0.0
H514 H 0.37556 0.12093 0.912 0.0
H515 H 0.38662 0.21107 0.91324 0.0
H516 H 0.3547 0.65388 0.91825 0.0
H517 H 0.3577 0.7468 0.91461 0.0
H518 H 0.34348 0.73489 0.84042 0.0
H519 H 0.34004 0.64283 0.84404 0.0
Pr520 Pr 0.62245 0.66588 0.87719 0.0
Pr521 Pr 0.64251 0.55857 0.88572 0.0
C522 C 0.6115 0.76582 0.87233 0.0
C523 C 0.61777 0.81956 0.87714 0.0
C524 C 0.60803 0.85743 0.86256 0.0
C525 C 0.61269 0.90908 0.86676 0.0
C526 C 0.62742 0.9242 0.88563 0.0
C527 C 0.63778 0.88576 0.89988 0.0
C528 C 0.63294 0.83393 0.89571 0.0
C529 C 0.62926 0.60634 0.83686 0.0
C530 C 0.68078 0.65499 0.88957 0.0
C531 C 0.65982 0.46207 0.88327 0.0
C532 C 0.65414 0.40712 0.88727 0.0
C533 C 0.66586 0.38037 0.90532 0.0
C534 C 0.66273 0.32763 0.90789 0.0
C535 C 0.64766 0.29992 0.89254 0.0
C536 C 0.63578 0.32678 0.87451 0.0
C537 C 0.639 0.37965 0.87188 0.0
C538 C 0.62341 0.60317 0.92622 0.0
C539 C 0.58341 0.57574 0.87918 0.0
O540 O 0.60323 0.73751 0.88949 0.0
O541 O 0.62522 0.7409 0.85769 0.0
O542 O 0.64377 0.61009 0.85374 0.0
O543 O 0.61024 0.63417 0.84026 0.0
O544 O 0.67934 0.60468 0.88769 0.0
O545 O 0.66171 0.68468 0.88804 0.0
O546 O 0.6487 0.48521 0.86604 0.0
O547 O 0.66359 0.49181 0.90139 0.0
O548 O 0.63609 0.62622 0.91118 0.0
O549 O 0.61989 0.55599 0.92013 0.0
O550 O 0.58649 0.62346 0.88579 0.0
O551 O 0.60215 0.54653 0.87398 0.0
H552 H 0.59639 0.84703 0.84803 0.0
H553 H 0.60411 0.93711 0.85554 0.0
H554 H 0.64965 0.89563 0.91427 0.0
H555 H 0.64092 0.80522 0.90702 0.0
H556 H 0.67797 0.40008 0.91719 0.0
H557 H 0.67266 0.30844 0.92169 0.0
H558 H 0.62384 0.3071 0.86248 0.0
H559 H 0.62984 0.3988 0.85757 0.0
Pr560 Pr 0.36983 0.6684 0.64395 0.0
Pr561 Pr 0.35707 0.55202 0.64385 0.0
C562 C 0.38494 0.76485 0.63816 0.0
C563 C 0.37953 0.81861 0.6434 0.0
C564 C 0.38418 0.83923 0.66564 0.0
C565 C 0.38257 0.89174 0.66922 0.0
C566 C 0.3765 0.92455 0.65061 0.0
C567 C 0.37054 0.90357 0.62873 0.0
C568 C 0.37206 0.85104 0.62518 0.0
C569 C 0.36035 0.62423 0.68764 0.0
C570 C 0.31394 0.64119 0.64395 0.0
C571 C 0.34594 0.45709 0.6581 0.0
C572 C 0.35264 0.40285 0.6563 0.0
C573 C 0.34878 0.37405 0.63585 0.0
C574 C 0.35429 0.32185 0.63556 0.0
C575 C 0.36372 0.29793 0.65568 0.0
C576 C 0.36734 0.32701 0.67603 0.0
C577 C 0.36194 0.37877 0.67629 0.0
C578 C 0.36047 0.58335 0.59712 0.0
C579 C 0.41453 0.58367 0.63766 0.0
O580 O 0.37079 0.74158 0.6232 0.0
O581 O 0.39253 0.73551 0.65525 0.0
O582 O 0.3728 0.60507 0.67155 0.0
O583 O 0.35208 0.66882 0.6816 0.0
O584 O 0.3208 0.59699 0.65319 0.0
O585 O 0.32958 0.67155 0.63385 0.0
O586 O 0.36114 0.48681 0.66918 0.0
O587 O 0.33522 0.4792 0.64031 0.0
O588 O 0.36353 0.61149 0.61474 0.0
O589 O 0.3558 0.53686 0.60353 0.0
O590 O 0.40712 0.63144 0.63603 0.0
O591 O 0.39942 0.54534 0.6415 0.0
H592 H 0.38988 0.81518 0.68008 0.0
H593 H 0.38677 0.90679 0.68641 0.0
H594 H 0.36594 0.92786 0.61402 0.0
H595 H 0.36846 0.83604 0.60784 0.0
H596 H 0.34145 0.39164 0.62019 0.0
H597 H 0.35142 0.30042 0.61958 0.0
H598 H 0.37401 0.30963 0.69201 0.0
H599 H 0.3647 0.39992 0.69235 0.0
Pr600 Pr 0.62114 0.37332 0.64376 0.0
Pr601 Pr 0.64582 0.49166 0.64313 0.0
C602 C 0.60821 0.27792 0.63221 0.0
C603 C 0.61295 0.22402 0.63853 0.0
C604 C 0.59784 0.19872 0.65447 0.0
C605 C 0.60092 0.14681 0.65905 0.0
C606 C 0.61933 0.1189 0.64795 0.0
C607 C 0.63463 0.14429 0.63214 0.0
C608 C 0.63145 0.19628 0.62746 0.0
C609 C 0.62908 0.41574 0.6886 0.0
C610 C 0.68113 0.38887 0.64899 0.0
C611 C 0.6578 0.58643 0.65664 0.0
C612 C 0.65033 0.64034 0.65371 0.0
C613 C 0.66486 0.67451 0.64099 0.0
C614 C 0.65987 0.72691 0.64111 0.0
C615 C 0.64031 0.746 0.65407 0.0
C616 C 0.62497 0.71141 0.66558 0.0
C617 C 0.62994 0.65925 0.66547 0.0
C618 C 0.63723 0.45606 0.59756 0.0
C619 C 0.58511 0.47354 0.63851 0.0
O620 O 0.62555 0.30295 0.62156 0.0
O621 O 0.59595 0.3059 0.64711 0.0
O622 O 0.63332 0.43358 0.66881 0.0
O623 O 0.62028 0.37003 0.68597 0.0
O624 O 0.67942 0.43915 0.65168 0.0
O625 O 0.66269 0.35868 0.64396 0.0
O626 O 0.64332 0.55657 0.6686 0.0
O627 O 0.6683 0.56358 0.63893 0.0
O628 O 0.63279 0.43242 0.61637 0.0
O629 O 0.64693 0.50007 0.60239 0.0
O630 O 0.58719 0.42354 0.63557 0.0
O631 O 0.60375 0.50405 0.64307 0.0
H632 H 0.58324 0.21875 0.66309 0.0
H633 H 0.58849 0.12837 0.67098 0.0
H634 H 0.64915 0.12412 0.62349 0.0
H635 H 0.64332 0.21453 0.61494 0.0
H636 H 0.68068 0.661 0.63174 0.0
H637 H 0.67202 0.75262 0.63207 0.0
H638 H 0.60943 0.72482 0.67528 0.0
H639 H 0.61821 0.6341 0.67533 0.0
H640 H 0.20403 0.21922 0.17838 0.0
H641 H 0.2143 0.13416 0.11414 0.0
H642 H 0.2478 0.19196 0.10323 0.0
H643 H 0.21413 0.34031 0.15653 0.0
H644 H 0.23098 0.3647 0.18116 0.0
H645 H 0.2093 0.31424 0.18537 0.0
H646 H 0.24201 0.25601 0.20397 0.0
H647 H 0.26354 0.30712 0.20083 0.0
H648 H 0.26991 0.24523 0.18854 0.0
H649 H 0.27498 0.26583 0.09658 0.0
H650 H 0.30461 0.33535 0.09951 0.0
H651 H 0.28008 0.36942 0.16987 0.0
C652 C 0.21407 0.21161 0.1625 0.0
C653 C 0.20691 0.17206 0.14716 0.0
C654 C 0.21995 0.16357 0.12631 0.0
C655 C 0.23866 0.19676 0.11981 0.0
C656 C 0.24429 0.23735 0.13466 0.0
C657 C 0.23317 0.24362 0.15605 0.0
C658 C 0.24311 0.28985 0.1689 0.0
C659 C 0.22319 0.32962 0.17324 0.0
C660 C 0.25538 0.27358 0.19192 0.0
C661 C 0.26138 0.30913 0.1512 0.0
C662 C 0.26115 0.2788 0.13136 0.0
C663 C 0.2757 0.28917 0.11219 0.0
C664 C 0.29226 0.32915 0.11394 0.0
C665 C 0.29469 0.3575 0.13494 0.0
C666 C 0.27836 0.34889 0.1535 0.0
H667 H 0.77843 0.87249 0.17075 0.0
H668 H 0.80453 0.84428 0.10046 0.0
H669 H 0.77442 0.7759 0.09544 0.0
H670 H 0.76811 0.74634 0.1863 0.0
H671 H 0.74029 0.75588 0.20202 0.0
H672 H 0.762 0.80693 0.2 0.0
H673 H 0.72981 0.86714 0.18176 0.0
H674 H 0.70778 0.81693 0.1847 0.0
H675 H 0.71285 0.84611 0.15654 0.0
H676 H 0.74618 0.7026 0.09999 0.0
H677 H 0.71273 0.64356 0.10967 0.0
H678 H 0.70223 0.72207 0.17559 0.0
C679 C 0.77695 0.85345 0.15399 0.0
C680 C 0.79358 0.86374 0.13587 0.0
C681 C 0.79171 0.83707 0.1144 0.0
C682 C 0.77488 0.79781 0.11148 0.0
C683 C 0.75974 0.78616 0.13011 0.0
C684 C 0.75984 0.81436 0.1506 0.0
C685 C 0.74142 0.79337 0.16775 0.0
C686 C 0.7537 0.77453 0.19036 0.0
C687 C 0.7218 0.83326 0.17299 0.0
C688 C 0.73131 0.749 0.15375 0.0
C689 C 0.74258 0.74483 0.13231 0.0
C690 C 0.73695 0.70583 0.1166 0.0
C691 C 0.71825 0.67196 0.12238 0.0
C692 C 0.70522 0.67814 0.14343 0.0
C693 C 0.71222 0.71632 0.15953 0.0
H694 H 0.29413 0.7229 0.34922 0.0
H695 H 0.27897 0.62816 0.4097 0.0
H696 H 0.24493 0.68507 0.42015 0.0
H697 H 0.28346 0.84049 0.37486 0.0
H698 H 0.26893 0.86964 0.34991 0.0
H699 H 0.29057 0.81917 0.3457 0.0
H700 H 0.25919 0.76564 0.32256 0.0
H701 H 0.23777 0.81689 0.32577 0.0
H702 H 0.23 0.75334 0.33531 0.0
H703 H 0.21661 0.75761 0.42663 0.0
H704 H 0.18746 0.8282 0.42343 0.0
H705 H 0.21921 0.87443 0.3574 0.0
C706 C 0.28304 0.71319 0.36418 0.0
C707 C 0.28889 0.67104 0.37858 0.0
C708 C 0.27438 0.65969 0.39822 0.0
C709 C 0.25533 0.6923 0.40448 0.0
C710 C 0.25098 0.73536 0.39065 0.0
C711 C 0.2638 0.74483 0.37043 0.0
C712 C 0.25529 0.79344 0.35851 0.0
C713 C 0.27578 0.83302 0.35717 0.0
C714 C 0.24493 0.78162 0.33409 0.0
C715 C 0.23571 0.81029 0.37533 0.0
C716 C 0.23401 0.77663 0.39398 0.0
C717 C 0.21756 0.78381 0.412 0.0
C718 C 0.2013 0.82437 0.41015 0.0
C719 C 0.20124 0.85675 0.39028 0.0
C720 C 0.21923 0.85091 0.37301 0.0
H721 H 0.79444 0.22483 0.35486 0.0
H722 H 0.77697 0.12527 0.41309 0.0
H723 H 0.74202 0.18052 0.42276 0.0
H724 H 0.7818 0.34032 0.38195 0.0
H725 H 0.76852 0.37093 0.35671 0.0
H726 H 0.79067 0.32131 0.3529 0.0
H727 H 0.76089 0.26904 0.32731 0.0
H728 H 0.73897 0.31941 0.33027 0.0
H729 H 0.73114 0.25494 0.33834 0.0
H730 H 0.71263 0.25146 0.4287 0.0
H731 H 0.68367 0.3222 0.42554 0.0
H732 H 0.71884 0.37487 0.36213 0.0
C733 C 0.78274 0.21383 0.36919 0.0
C734 C 0.78812 0.17068 0.38315 0.0
C735 C 0.77277 0.1576 0.40195 0.0
C736 C 0.75317 0.1892 0.40774 0.0
C737 C 0.74919 0.23308 0.39434 0.0
C738 C 0.76303 0.24452 0.37499 0.0
C739 C 0.75487 0.29383 0.36344 0.0
C740 C 0.77517 0.33396 0.36378 0.0
C741 C 0.74592 0.28369 0.33835 0.0
C742 C 0.7343 0.30887 0.37948 0.0
C743 C 0.73172 0.27356 0.39739 0.0
C744 C 0.71427 0.2789 0.41462 0.0
C745 C 0.69804 0.31951 0.41275 0.0
C746 C 0.69899 0.3539 0.39359 0.0
C747 C 0.71793 0.34969 0.37717 0.0
H748 H 0.72247 0.66397 0.86341 0.0
H749 H 0.68814 0.71075 0.92799 0.0
H750 H 0.71737 0.78111 0.93216 0.0
H751 H 0.78632 0.69865 0.88283 0.0
H752 H 0.79421 0.71958 0.85378 0.0
H753 H 0.77263 0.66877 0.85765 0.0
H754 H 0.74193 0.71989 0.83249 0.0
H755 H 0.76304 0.77176 0.82939 0.0
H756 H 0.73347 0.78344 0.84138 0.0
H757 H 0.74579 0.8544 0.92609 0.0
H758 H 0.77889 0.91374 0.91531 0.0
H759 H 0.79646 0.81764 0.85604 0.0
C760 C 0.72204 0.68733 0.87904 0.0
C761 C 0.70338 0.68152 0.89565 0.0
C762 C 0.70265 0.71414 0.91538 0.0
C763 C 0.71897 0.7546 0.91773 0.0
C764 C 0.73622 0.76151 0.90037 0.0
C765 C 0.73856 0.72774 0.88187 0.0
C766 C 0.7585 0.74494 0.86545 0.0
C767 C 0.77913 0.70565 0.86491 0.0
C768 C 0.74863 0.75562 0.84072 0.0
C769 C 0.76642 0.79392 0.87734 0.0
C770 C 0.75312 0.80322 0.89726 0.0
C771 C 0.75662 0.84715 0.9107 0.0
C772 C 0.77514 0.88108 0.90426 0.0
C773 C 0.79 0.87031 0.8848 0.0
C774 C 0.78518 0.82682 0.87093 0.0
H775 H 0.29304 0.32389 0.91086 0.0
H776 H 0.28282 0.40586 0.84562 0.0
H777 H 0.25048 0.34504 0.83436 0.0
H778 H 0.28506 0.2002 0.88929 0.0
H779 H 0.26851 0.17625 0.91414 0.0
H780 H 0.28975 0.22776 0.91785 0.0
H781 H 0.25653 0.28541 0.9358 0.0
H782 H 0.23548 0.23333 0.93313 0.0
H783 H 0.2285 0.29437 0.92017 0.0
H784 H 0.22217 0.27048 0.82886 0.0
H785 H 0.19216 0.20151 0.83351 0.0
H786 H 0.21931 0.17035 0.90325 0.0
C787 C 0.28347 0.32983 0.89451 0.0
C788 C 0.29023 0.36962 0.87913 0.0
C789 C 0.27757 0.37613 0.85779 0.0
C790 C 0.25949 0.34126 0.85112 0.0
C791 C 0.25417 0.30074 0.86618 0.0
C792 C 0.26517 0.29599 0.8878 0.0
C793 C 0.25566 0.25003 0.90106 0.0
C794 C 0.27596 0.21128 0.90586 0.0
C795 C 0.2433 0.26679 0.92389 0.0
C796 C 0.23756 0.22932 0.88351 0.0
C797 C 0.23743 0.25855 0.86329 0.0
C798 C 0.2221 0.24747 0.84461 0.0
C799 C 0.20539 0.20769 0.84725 0.0
C800 C 0.2039 0.17988 0.86845 0.0
C801 C 0.22069 0.18976 0.88654 0.0
H802 H 0.7133 0.35344 0.61692 0.0
H803 H 0.69851 0.35991 0.69122 0.0
H804 H 0.72954 0.29342 0.69845 0.0
H805 H 0.72101 0.22244 0.61279 0.0
H806 H 0.74557 0.22371 0.59213 0.0
H807 H 0.72408 0.27529 0.59276 0.0
H808 H 0.75838 0.34134 0.59925 0.0
H809 H 0.78006 0.29024 0.59759 0.0
H810 H 0.7797 0.33162 0.62277 0.0
H811 H 0.75942 0.21922 0.69673 0.0
H812 H 0.79174 0.15691 0.68723 0.0
H813 H 0.78757 0.2015 0.61427 0.0
C814 C 0.71738 0.34227 0.63477 0.0
C815 C 0.70408 0.36245 0.65363 0.0
C816 C 0.70911 0.34576 0.67669 0.0
C817 C 0.72643 0.30755 0.68088 0.0
C818 C 0.7386 0.28674 0.66178 0.0
C819 C 0.73483 0.30468 0.63926 0.0
C820 C 0.75013 0.27584 0.62176 0.0
C821 C 0.73424 0.24766 0.6038 0.0
C822 C 0.76814 0.31191 0.60964 0.0
C823 C 0.76293 0.23861 0.63787 0.0
C824 C 0.75582 0.24482 0.66086 0.0
C825 C 0.76521 0.21428 0.67879 0.0
C826 C 0.78326 0.17842 0.67322 0.0
C827 C 0.79183 0.17405 0.65001 0.0
C828 C 0.78105 0.20363 0.63211 0.0
H829 H 0.20482 0.82737 0.61573 0.0
H830 H 0.2074 0.87359 0.68846 0.0
H831 H 0.23907 0.80859 0.6962 0.0
H832 H 0.21259 0.69611 0.62388 0.0
H833 H 0.23205 0.68637 0.59903 0.0
H834 H 0.21047 0.73784 0.59884 0.0
H835 H 0.24446 0.80401 0.59123 0.0
H836 H 0.26599 0.75255 0.59038 0.0
H837 H 0.27052 0.80513 0.61024 0.0
H838 H 0.26759 0.73195 0.69639 0.0
H839 H 0.29818 0.66594 0.68729 0.0
H840 H 0.27923 0.67526 0.61383 0.0
C841 C 0.2126 0.82468 0.63312 0.0
C842 C 0.20393 0.85554 0.6515 0.0
C843 C 0.2142 0.8508 0.6741 0.0
C844 C 0.23189 0.8135 0.67869 0.0
C845 C 0.23934 0.78205 0.66035 0.0
C846 C 0.23065 0.78863 0.63783 0.0
C847 C 0.24223 0.75138 0.621 0.0
C848 C 0.2232 0.71583 0.61004 0.0
C849 C 0.25666 0.77997 0.6021 0.0
C850 C 0.25873 0.72241 0.63753 0.0
C851 C 0.25638 0.73978 0.66027 0.0
C852 C 0.26965 0.71835 0.67863 0.0
C853 C 0.2867 0.68029 0.67338 0.0
C854 C 0.29065 0.66492 0.64997 0.0
C855 C 0.27609 0.68546 0.63195 0.0
H856 H 0.15244 0.9395 0.29969 0.0
H857 H 0.08889 1.00543 0.33199 0.0
H858 H 0.08353 0.06249 0.29805 0.0
H859 H 0.17463 0.05593 0.27021 0.0
H860 H 0.18337 0.02288 0.24388 0.0
H861 H 0.18389 0.99 0.27163 0.0
H862 H 0.15592 0.92002 0.25459 0.0
H863 H 0.15521 0.95287 0.22686 0.0
H864 H 0.12739 0.93797 0.2417 0.0
H865 H 0.08281 0.10742 0.26078 0.0
H866 H 0.08726 0.14246 0.22128 0.0
H867 H 0.15104 0.0488 0.21045 0.0
C868 C 0.13782 0.96697 0.29972 0.0
C869 C 0.12123 0.9689 0.31856 0.0
C870 C 0.10184 1.0039 0.31781 0.0
C871 C 0.09865 0.03634 0.29861 0.0
C872 C 0.11483 0.03288 0.28006 0.0
C873 C 0.13406 0.99928 0.28028 0.0
C874 C 0.14766 1.00169 0.25709 0.0
C875 C 0.17395 1.01866 0.26094 0.0
C876 C 0.14647 0.95007 0.24431 0.0
C877 C 0.13313 0.0423 0.24408 0.0
C878 C 0.11426 0.05921 0.25784 0.0
C879 C 0.09764 0.09499 0.24989 0.0
C880 C 0.10034 0.11461 0.22732 0.0
C881 C 0.1196 0.09889 0.21276 0.0
C882 C 0.13628 0.06201 0.22126 0.0
H883 H 0.88073 0.12483 0.29097 0.0
H884 H 0.8503 1.00939 0.33642 0.0
H885 H 0.84515 0.95154 0.30294 0.0
H886 H 0.83985 0.09843 0.24191 0.0
H887 H 0.86247 0.11033 0.21993 0.0
H888 H 0.86405 0.14278 0.24768 0.0
H889 H 0.9075 0.10863 0.25386 0.0
H890 H 0.90598 0.07609 0.22613 0.0
H891 H 0.91302 0.04089 0.25244 0.0
H892 H 0.84546 0.90455 0.26578 0.0
H893 H 0.84919 0.87098 0.22564 0.0
H894 H 0.87606 1.01773 0.20195 0.0
C895 C 0.87308 0.08727 0.29375 0.0
C896 C 0.86586 0.07128 0.31636 0.0
C897 C 0.85566 0.02232 0.31933 0.0
C898 C 0.85276 0.98918 0.30038 0.0
C899 C 0.85978 1.00598 0.27832 0.0
C900 C 0.86951 0.05394 0.27474 0.0
C901 C 0.87489 0.06238 0.24892 0.0
C902 C 0.85938 0.10608 0.23903 0.0
C903 C 0.90196 0.07258 0.24512 0.0
C904 C 0.86725 1.01108 0.23878 0.0
C905 C 0.85868 0.97933 0.25623 0.0
C906 C 0.85178 0.92915 0.25185 0.0
C907 C 0.85394 0.91041 0.22904 0.0
C908 C 0.86249 0.94193 0.21079 0.0
C909 C 0.86891 0.99326 0.21558 0.0
H910 H 0.87278 0.039 0.70213 0.0
H911 H 0.84874 0.18675 0.72702 0.0
H912 H 0.84547 0.15211 0.76714 0.0
H913 H 0.836 0.95992 0.74154 0.0
H914 H 0.85946 0.91337 0.74638 0.0
H915 H 0.85809 0.94786 0.71908 0.0
H916 H 0.90221 0.97812 0.72518 0.0
H917 H 0.90364 0.9439 0.75252 0.0
H918 H 0.91026 1.01125 0.75174 0.0
H919 H 0.84471 0.1028 0.80421 0.0
H920 H 0.84944 0.0425 0.83705 0.0
H921 H 0.87707 0.92773 0.78985 0.0
C922 C 0.86645 0.06364 0.71602 0.0
C923 C 0.86066 0.11547 0.71155 0.0
C924 C 0.85311 0.14702 0.73016 0.0
C925 C 0.85116 0.12763 0.75295 0.0
C926 C 0.85722 0.07672 0.75692 0.0
C927 C 0.86494 0.04508 0.7391 0.0
C928 C 0.87174 0.99269 0.74865 0.0
C929 C 0.85534 0.951 0.73829 0.0
C930 C 0.89856 0.98082 0.74426 0.0
C931 C 0.86677 1.00023 0.77457 0.0
C932 C 0.85801 0.04874 0.77877 0.0
C933 C 0.85153 0.06469 0.80112 0.0
C934 C 0.85408 0.03015 0.8197 0.0
C935 C 0.86338 0.98065 0.81602 0.0
C936 C 0.86998 0.96556 0.79315 0.0
H937 H 0.1533 0.07001 0.81179 0.0
H938 H 0.078 0.11671 0.81215 0.0
H939 H 0.07155 0.07384 0.77451 0.0
H940 H 0.16238 0.08654 0.74923 0.0
H941 H 0.18132 0.03112 0.7458 0.0
H942 H 0.18068 0.06446 0.77338 0.0
H943 H 0.16916 0.98057 0.79466 0.0
H944 H 0.16992 0.94701 0.76715 0.0
H945 H 0.1431 0.94507 0.78495 0.0
H946 H 0.0723 0.02761 0.73747 0.0
H947 H 0.08007 0.97623 0.70233 0.0
H948 H 0.15513 0.95892 0.72308 0.0
C949 C 0.13549 0.07096 0.8039 0.0
C950 C 0.11613 0.09711 0.81492 0.0
C951 C 0.09312 0.09741 0.80405 0.0
C952 C 0.08924 0.07308 0.78262 0.0
C953 C 0.10857 0.04853 0.772 0.0
C954 C 0.13127 0.04691 0.78212 0.0
C955 C 0.1487 1.01755 0.76646 0.0
C956 C 0.1695 0.05199 0.75824 0.0
C957 C 0.15828 0.96971 0.77906 0.0
C958 C 0.13215 1.00332 0.74609 0.0
C959 C 0.10909 1.02172 0.7499 0.0
C960 C 0.09027 1.01301 0.73423 0.0
C961 C 0.09487 0.98376 0.71431 0.0
C962 C 0.11815 0.96366 0.70998 0.0
C963 C 0.13723 0.97436 0.72586 0.0
H964 H 0.64577 0.42299 0.29218 0.0
H965 H 0.60092 0.52257 0.33419 0.0
H966 H 0.59838 0.5838 0.30147 0.0
H967 H 0.67796 0.52109 0.2587 0.0
H968 H 0.67663 0.48627 0.23151 0.0
H969 H 0.67711 0.45229 0.25898 0.0
H970 H 0.63767 0.40561 0.24738 0.0
H971 H 0.63698 0.43964 0.21994 0.0
H972 H 0.6114 0.44241 0.23936 0.0
H973 H 0.59945 0.63249 0.26509 0.0
H974 H 0.60277 0.66755 0.22546 0.0
H975 H 0.64444 0.53526 0.20395 0.0
C976 C 0.63592 0.45833 0.29449 0.0
C977 C 0.62431 0.46941 0.31593 0.0
C978 C 0.61061 0.51456 0.31818 0.0
C979 C 0.60894 0.54929 0.29964 0.0
C980 C 0.62043 0.53742 0.27868 0.0
C981 C 0.63347 0.49295 0.27577 0.0
C982 C 0.64244 0.48837 0.25066 0.0
C983 C 0.67019 0.48694 0.24993 0.0
C984 C 0.63146 0.44121 0.23863 0.0
C985 C 0.6326 0.53763 0.2401 0.0
C986 C 0.62006 0.56502 0.25681 0.0
C987 C 0.60922 0.61157 0.25183 0.0
C988 C 0.61126 0.63119 0.2292 0.0
C989 C 0.62389 0.60435 0.21158 0.0
C990 C 0.63464 0.55661 0.21705 0.0
H991 H 0.34015 0.59556 0.29962 0.0
H992 H 0.41119 0.55741 0.32673 0.0
H993 H 0.41851 0.50251 0.29249 0.0
H994 H 0.32616 0.4721 0.2721 0.0
H995 H 0.31236 0.5002 0.24651 0.0
H996 H 0.31144 0.53332 0.27414 0.0
H997 H 0.33118 0.61236 0.25481 0.0
H998 H 0.33228 0.57936 0.22717 0.0
H999 H 0.35954 0.60537 0.2397 0.0
H1000 H 0.41964 0.4565 0.25569 0.0
H1001 H 0.41475 0.41832 0.21695 0.0
H1002 H 0.34335 0.48615 0.21065 0.0
C1003 C 0.357 0.57476 0.29841 0.0
C1004 C 0.37512 0.58019 0.31581 0.0
C1005 C 0.39717 0.55357 0.31355 0.0
C1006 C 0.40146 0.52231 0.29421 0.0
C1007 C 0.38363 0.51862 0.27705 0.0
C1008 C 0.36184 0.544 0.27876 0.0
C1009 C 0.34664 0.53544 0.25678 0.0
C1010 C 0.32273 0.50865 0.26275 0.0
C1011 C 0.34215 0.58615 0.24385 0.0
C1012 C 0.36327 0.50073 0.24276 0.0
C1013 C 0.38446 0.49199 0.255 0.0
C1014 C 0.40309 0.46264 0.24596 0.0
C1015 C 0.40009 0.44114 0.22384 0.0
C1016 C 0.37861 0.44877 0.21079 0.0
C1017 C 0.35987 0.4792 0.22034 0.0
H1018 H 0.39044 0.43842 0.79575 0.0
H1019 H 0.32782 0.50311 0.83025 0.0
H1020 H 0.32044 0.55872 0.79616 0.0
H1021 H 0.41076 0.55093 0.7659 0.0
H1022 H 0.41861 0.51825 0.73923 0.0
H1023 H 0.41967 0.48475 0.76677 0.0
H1024 H 0.39066 0.4158 0.75035 0.0
H1025 H 0.38973 0.44908 0.72273 0.0
H1026 H 0.36205 0.4349 0.73798 0.0
H1027 H 0.3204 0.60919 0.75913 0.0
H1028 H 0.3263 0.64816 0.72013 0.0
H1029 H 0.38641 0.5457 0.70744 0.0
C1030 C 0.37522 0.46437 0.79608 0.0
C1031 C 0.36004 0.46736 0.81589 0.0
C1032 C 0.34005 0.5011 0.81553 0.0
C1033 C 0.3356 0.53264 0.79617 0.0
C1034 C 0.35091 0.52902 0.77696 0.0
C1035 C 0.37011 0.49528 0.77655 0.0
C1036 C 0.3831 0.49767 0.75319 0.0
C1037 C 0.4096 0.51389 0.75648 0.0
C1038 C 0.38126 0.44631 0.7403 0.0
C1039 C 0.36849 0.53881 0.74081 0.0
C1040 C 0.35008 0.55641 0.75493 0.0
C1041 C 0.33461 0.59548 0.74779 0.0
C1042 C 0.33809 0.61742 0.72564 0.0
C1043 C 0.35666 0.59985 0.71075 0.0
C1044 C 0.37191 0.55965 0.7184 0.0
H1045 H 0.60447 0.60736 0.79507 0.0
H1046 H 0.66445 0.53469 0.83096 0.0
H1047 H 0.67074 0.47814 0.79701 0.0
H1048 H 0.58124 0.49927 0.76459 0.0
H1049 H 0.57507 0.53333 0.73778 0.0
H1050 H 0.57466 0.56665 0.76533 0.0
H1051 H 0.60624 0.63097 0.74962 0.0
H1052 H 0.60682 0.59788 0.72197 0.0
H1053 H 0.63445 0.6077 0.73813 0.0
H1054 H 0.66929 0.42681 0.76004 0.0
H1055 H 0.66208 0.38786 0.72113 0.0
H1056 H 0.60647 0.50009 0.70681 0.0
C1057 C 0.61888 0.57944 0.79575 0.0
C1058 C 0.63352 0.57428 0.81594 0.0
C1059 C 0.65255 0.53819 0.81599 0.0
C1060 C 0.65639 0.50619 0.79669 0.0
C1061 C 0.64158 0.51199 0.7771 0.0
C1062 C 0.6235 0.54832 0.77627 0.0
C1063 C 0.61093 0.54814 0.75259 0.0
C1064 C 0.58387 0.53611 0.75524 0.0
C1065 C 0.61485 0.5992 0.73982 0.0
C1066 C 0.62431 0.50495 0.74051 0.0
C1067 C 0.64186 0.48459 0.75506 0.0
C1068 C 0.65582 0.44278 0.74838 0.0
C1069 C 0.65161 0.42086 0.72633 0.0
C1070 C 0.63394 0.44126 0.71112 0.0
C1071 C 0.62032 0.48427 0.71813 0.0
H1072 H 0.14041 0.02758 0.96362 0.0
H1073 H 0.12353 0.18503 0.94699 0.0
H1074 H 0.12055 0.20425 0.98966 0.0
H1075 H 0.10017 1.01536 0.01228 0.0
H1076 H 0.12056 0.97409 0.02807 0.0
H1077 H 0.12074 0.97465 0.99655 0.0
H1078 H 0.16665 0.9955 0.99694 0.0
H1079 H 0.16661 0.9951 0.02843 0.0
H1080 H 0.17729 0.05053 0.01285 0.0
H1081 H 0.12053 0.2038 0.03603 0.0
H1082 H 0.12317 0.18359 0.07867 0.0
H1083 H 0.13985 0.02634 0.06168 0.0
C1084 C 0.13604 0.06623 0.96882 0.0
C1085 C 0.13228 0.10483 0.95205 0.0
C1086 C 0.12649 0.15484 0.95965 0.0
C1087 C 0.12479 0.16601 0.98381 0.0
C1088 C 0.12881 0.12661 0.99996 0.0
C1089 C 0.13422 0.07773 0.99252 0.0
C1090 C 0.13785 0.04146 0.01268 0.0
C1091 C 0.11869 0.99889 0.01237 0.0
C1092 C 0.16363 1.01938 0.01272 0.0
C1093 C 0.13403 0.07726 0.03291 0.0
C1094 C 0.12871 0.12633 0.02557 0.0
C1095 C 0.12464 0.16538 0.0418 0.0
C1096 C 0.12614 0.15365 0.06594 0.0
C1097 C 0.1317 0.10337 0.07343 0.0
C1098 C 0.13556 0.06514 0.05658 0.0
H1099 H 0.82555 0.93164 0.96204 0.0
H1100 H 0.9013 0.90748 0.94637 0.0
H1101 H 0.90984 0.89767 0.98891 0.0
H1102 H 0.83484 1.00871 1.01105 0.0
H1103 H 0.80914 0.98453 0.02688 0.0
H1104 H 0.80905 0.98397 0.9954 0.0
H1105 H 0.80081 0.88654 0.99566 0.0
H1106 H 0.80082 0.88679 0.0272 0.0
H1107 H 0.82085 0.84469 1.01158 0.0
H1108 H 0.90988 0.89742 0.03417 0.0
H1109 H 0.90151 0.90752 0.07665 0.0
H1110 H 0.82577 0.93264 0.06082 0.0
C1111 C 0.84391 0.92325 0.96745 0.0
C1112 C 0.86276 0.91985 0.95095 0.0
C1113 C 0.88656 0.90955 0.95877 0.0
C1114 C 0.89155 0.90416 0.98287 0.0
C1115 C 0.87251 0.90901 0.99874 0.0
C1116 C 0.84915 0.91818 0.9912 0.0
C1117 C 0.83197 0.92506 1.01144 0.0
C1118 C 0.8206 0.97875 1.01117 0.0
C1119 C 0.81246 0.88326 1.01147 0.0
C1120 C 0.84924 0.91866 0.03172 0.0
C1121 C 0.87255 0.90922 0.02424 0.0
C1122 C 0.89163 0.90423 0.04016 0.0
C1123 C 0.88672 0.90979 0.06422 0.0
C1124 C 0.86298 0.9205 0.07198 0.0
C1125 C 0.84408 0.92403 0.05545 0.0
H1126 H 0.1421 1.01161 0.46542 0.0
H1127 H 0.11881 0.85806 0.44846 0.0
H1128 H 0.11606 0.83837 0.49122 0.0
H1129 H 0.17954 0.98047 0.51302 0.0
H1130 H 0.17183 0.03738 0.52905 0.0
H1131 H 0.17074 0.03762 0.49757 0.0
H1132 H 0.12595 0.06711 0.49877 0.0
H1133 H 0.12688 0.06704 0.53028 0.0
H1134 H 0.10426 0.03015 0.51509 0.0
H1135 H 0.11707 0.83834 0.53808 0.0
H1136 H 0.12199 0.85759 0.58067 0.0
H1137 H 0.14511 1.01086 0.56297 0.0
C1138 C 0.13631 0.97368 0.47049 0.0
C1139 C 0.13067 0.93638 0.45362 0.0
C1140 C 0.12314 0.88733 0.46117 0.0
C1141 C 0.12159 0.87592 0.48539 0.0
C1142 C 0.1276 0.91405 0.50161 0.0
C1143 C 0.13475 0.96193 0.49415 0.0
C1144 C 0.14066 0.99695 0.51421 0.0
C1145 C 0.16727 1.01407 0.51341 0.0
C1146 C 0.12341 0.04301 0.51461 0.0
C1147 C 0.13605 0.96162 0.53447 0.0
C1148 C 0.12837 0.9139 0.52727 0.0
C1149 C 0.1231 0.87569 0.54369 0.0
C1150 C 0.12591 0.88686 0.56782 0.0
C1151 C 0.13405 0.93567 0.5751 0.0
C1152 C 0.13899 0.97307 0.55807 0.0
H1153 H 0.82634 0.09539 0.56183 0.0
H1154 H 0.89923 0.14552 0.5776 0.0
H1155 H 0.90638 0.16075 0.53523 0.0
H1156 H 0.84024 0.02736 0.51094 0.0
H1157 H 0.81279 0.04443 0.49579 0.0
H1158 H 0.81325 0.04174 0.52725 0.0
H1159 H 0.79801 0.13525 0.52921 0.0
H1160 H 0.79745 0.13816 0.49769 0.0
H1161 H 0.81447 0.18469 0.51411 0.0
H1162 H 0.90604 0.16312 0.49006 0.0
H1163 H 0.89782 0.15454 0.44744 0.0
H1164 H 0.82481 0.10512 0.463 0.0
C1165 C 0.84371 0.11035 0.55645 0.0
C1166 C 0.86223 0.11936 0.57292 0.0
C1167 C 0.88475 0.13868 0.5652 0.0
C1168 C 0.88896 0.14729 0.5412 0.0
C1169 C 0.87037 0.13689 0.52531 0.0
C1170 C 0.84812 0.11926 0.53276 0.0
C1171 C 0.83131 0.10899 0.51244 0.0
C1172 C 0.82399 0.05228 0.51156 0.0
C1173 C 0.80899 0.14387 0.51343 0.0
C1174 C 0.84756 0.12306 0.49226 0.0
C1175 C 0.87005 0.13908 0.49985 0.0
C1176 C 0.88836 0.15137 0.48399 0.0
C1177 C 0.88354 0.14662 0.45985 0.0
C1178 C 0.86062 0.12975 0.45195 0.0
C1179 C 0.84243 0.11874 0.46846 0.0
H1180 H 0.60713 0.54701 0.06152 0.0
H1181 H 0.64677 0.68589 0.07674 0.0
H1182 H 0.64743 0.70663 0.03426 0.0
H1183 H 0.63936 0.51432 1.01098 0.0
H1184 H 0.61355 0.48833 0.99581 0.0
H1185 H 0.61453 0.48764 0.02729 0.0
H1186 H 0.57377 0.5364 0.02874 0.0
H1187 H 0.57263 0.53716 0.9972 0.0
H1188 H 0.57073 0.59616 0.0133 0.0
H1189 H 0.64607 0.70765 0.9891 0.0
H1190 H 0.64265 0.68935 0.94662 0.0
H1191 H 0.60382 0.54973 0.96238 0.0
C1192 C 0.61562 0.5823 0.05602 0.0
C1193 C 0.62679 0.61501 0.07241 0.0
C1194 C 0.6379 0.66054 0.06446 0.0
C1195 C 0.63841 0.67248 0.04038 0.0
C1196 C 0.62761 0.63861 0.02461 0.0
C1197 C 0.61632 0.59458 0.03224 0.0
C1198 C 0.60706 0.56292 0.012 0.0
C1199 C 0.61937 0.51021 1.0115 0.0
C1200 C 0.5794 0.55789 0.01287 0.0
C1201 C 0.61495 0.59567 0.99163 0.0
C1202 C 0.62676 0.63928 0.99911 0.0
C1203 C 0.63658 0.67394 0.98315 0.0
C1204 C 0.63448 0.66335 0.95905 0.0
C1205 C 0.62275 0.61836 0.95119 0.0
C1206 C 0.61261 0.58474 0.96779 0.0
H1207 H 0.32648 0.4461 0.96306 0.0
H1208 H 0.39929 0.39647 0.94686 0.0
H1209 H 0.40736 0.38405 0.9893 0.0
H1210 H 0.34179 0.51826 0.01278 0.0
H1211 H 0.31469 0.50232 0.02861 0.0
H1212 H 0.31439 0.50307 0.99712 0.0
H1213 H 0.29894 0.4096 0.99667 0.0
H1214 H 0.29916 0.40858 0.02821 0.0
H1215 H 0.3157 0.36098 0.01209 0.0
H1216 H 0.40762 0.38208 0.03423 0.0
H1217 H 0.40023 0.39145 0.07685 0.0
H1218 H 0.32731 0.44316 0.06213 0.0
C1219 C 0.34404 0.43184 0.96834 0.0
C1220 C 0.36225 0.4219 0.95173 0.0
C1221 C 0.38505 0.40386 0.95937 0.0
C1222 C 0.38977 0.39685 0.9834 0.0
C1223 C 0.37146 0.40793 0.99938 0.0
C1224 C 0.34903 0.42495 0.99207 0.0
C1225 C 0.33269 0.43665 0.0125 0.0
C1226 C 0.32548 0.49344 0.01276 0.0
C1227 C 0.3103 0.40186 0.01235 0.0
C1228 C 0.34938 0.42381 0.03259 0.0
C1229 C 0.37165 0.40713 0.02482 0.0
C1230 C 0.39017 0.3947 0.04046 0.0
C1231 C 0.38581 0.39999 0.0646 0.0
C1232 C 0.36318 0.41786 0.07271 0.0
C1233 C 0.34475 0.42918 0.05644 0.0
H1234 H 0.63687 0.51424 0.46315 0.0
H1235 H 0.62083 0.35629 0.44696 0.0
H1236 H 0.61808 0.33743 0.48981 0.0
H1237 H 0.67497 0.49149 0.51075 0.0
H1238 H 0.66495 0.54718 0.52647 0.0
H1239 H 0.66384 0.54642 0.49502 0.0
H1240 H 0.61796 0.56745 0.4961 0.0
H1241 H 0.61893 0.56844 0.5276 0.0
H1242 H 0.5979 0.52709 0.51269 0.0
H1243 H 0.61914 0.3388 0.53693 0.0
H1244 H 0.62407 0.36015 0.57937 0.0
H1245 H 0.6398 0.51676 0.56028 0.0
C1246 C 0.63258 0.47554 0.46841 0.0
C1247 C 0.62906 0.43674 0.45176 0.0
C1248 C 0.62346 0.38672 0.45953 0.0
C1249 C 0.62195 0.37576 0.4838 0.0
C1250 C 0.62601 0.41537 0.49984 0.0
C1251 C 0.63112 0.46425 0.49211 0.0
C1252 C 0.63554 0.50074 0.51192 0.0
C1253 C 0.66135 0.5227 0.51098 0.0
C1254 C 0.61644 0.54343 0.51208 0.0
C1255 C 0.63242 0.46521 0.53235 0.0
C1256 C 0.62679 0.41601 0.52551 0.0
C1257 C 0.62349 0.37737 0.54225 0.0
C1258 C 0.62626 0.38971 0.56629 0.0
C1259 C 0.63242 0.44008 0.57311 0.0
C1260 C 0.63521 0.47778 0.55577 0.0
H1261 H 0.35923 0.52014 0.56033 0.0
H1262 H 0.3672 0.68012 0.57791 0.0
H1263 H 0.36998 0.70124 0.53538 0.0
H1264 H 0.40064 0.51903 0.51214 0.0
H1265 H 0.3827 0.47366 0.49597 0.0
H1266 H 0.38223 0.4732 0.52749 0.0
H1267 H 0.33549 0.48298 0.5268 0.0
H1268 H 0.33581 0.48351 0.49531 0.0
H1269 H 0.32213 0.5356 0.51103 0.0
H1270 H 0.37066 0.7021 0.48893 0.0
H1271 H 0.36871 0.68254 0.44619 0.0
H1272 H 0.36044 0.52194 0.46262 0.0
C1273 C 0.36163 0.55975 0.55538 0.0
C1274 C 0.36293 0.5985 0.57232 0.0
C1275 C 0.36617 0.64982 0.56507 0.0
C1276 C 0.36777 0.66205 0.541 0.0
C1277 C 0.36624 0.6224 0.52465 0.0
C1278 C 0.36333 0.57231 0.53181 0.0
C1279 C 0.36181 0.53599 0.51151 0.0
C1280 C 0.38311 0.49826 0.5118 0.0
C1281 C 0.33736 0.5079 0.51115 0.0
C1282 C 0.36389 0.57308 0.49152 0.0
C1283 C 0.36661 0.62288 0.49907 0.0
C1284 C 0.3686 0.66311 0.48301 0.0
C1285 C 0.36754 0.65175 0.45881 0.0
C1286 C 0.36438 0.60072 0.45117 0.0
C1287 C 0.3628 0.56137 0.46785 0.0
H1288 H 0.95878 0.92899 0.13955 0.0
H1289 H 0.92247 0.07627 0.14016 0.0
H1290 H 0.96167 0.11952 0.13862 0.0
H1291 H 0.00902 0.96674 0.17632 0.0
H1292 H 0.03125 0.93032 0.16052 0.0
H1293 H 0.00028 0.90917 0.16123 0.0
H1294 H -0.00087 0.90844 0.11588 0.0
H1295 H 0.03008 0.92976 0.11504 0.0
H1296 H 0.00698 0.96556 0.09997 0.0
H1297 H 0.00358 0.14781 0.13609 0.0
H1298 H 0.04744 0.16053 0.13525 0.0
H1299 H 0.05842 0.99633 0.13783 0.0
C1300 C 0.95911 0.97033 0.13935 0.0
C1301 C 0.93743 0.9992 0.13995 0.0
C1302 C 0.93869 0.05319 0.13976 0.0
C1303 C 0.96091 0.07825 0.13882 0.0
C1304 C 0.98182 0.04894 0.13817 0.0
C1305 C 0.9813 0.99625 0.13858 0.0
C1306 C 0.0068 0.97457 0.13814 0.0
C1307 C 0.01214 0.94336 0.16038 0.0
C1308 C 0.01098 0.94269 0.11593 0.0
C1309 C 0.02152 0.02345 0.13758 0.0
C1310 C 0.00658 0.06567 0.13732 0.0
C1311 C 0.01554 0.11513 0.13633 0.0
C1312 C 0.04054 0.12185 0.13573 0.0
C1313 C 0.05641 0.07936 0.13639 0.0
C1314 C 0.04673 0.02945 0.13735 0.0
H1315 H 0.93765 0.99362 0.37562 0.0
H1316 H 0.94733 0.14555 0.40485 0.0
H1317 H 0.99047 0.12953 0.40973 0.0
H1318 H 0.98195 0.93067 0.4137 0.0
H1319 H 0.99298 0.88905 0.391 0.0
H1320 H 0.96216 0.91126 0.39022 0.0
H1321 H 0.96884 0.94758 0.34854 0.0
H1322 H -0.00035 0.92547 0.34915 0.0
H1323 H 0.99324 0.99183 0.34351 0.0
H1324 H 0.03246 0.10142 0.40963 0.0
H1325 H 0.07212 0.05989 0.40555 0.0
H1326 H 0.03719 0.9242 0.37793 0.0
C1327 C 0.94885 0.02321 0.38321 0.0
C1328 C 0.93891 0.07085 0.38972 0.0
C1329 C 0.95429 0.10874 0.39951 0.0
C1330 C 0.97895 0.1001 0.40248 0.0
C1331 C 0.98822 0.05324 0.39571 0.0
C1332 C 0.97381 1.01522 0.38638 0.0
C1333 C 0.98893 0.9688 0.3802 0.0
C1334 C 0.98104 0.92217 0.39465 0.0
C1335 C 0.98758 0.95778 0.35378 0.0
C1336 C 0.01398 0.98719 0.38736 0.0
C1337 C 0.01296 0.03616 0.3962 0.0
C1338 C 0.03358 0.06287 0.40295 0.0
C1339 C 0.05601 0.03909 0.40048 0.0
C1340 C 0.05767 0.98894 0.39158 0.0
C1341 C 0.03635 0.96237 0.38515 0.0
H1342 H 0.05685 0.99687 0.8874 0.0
H1343 H 0.04657 0.16131 0.88826 0.0
H1344 H 0.00273 0.14952 0.88581 0.0
H1345 H 0.00842 0.96692 0.8475 0.0
H1346 H -0.00105 0.91011 0.8628 0.0
H1347 H 0.02997 0.93074 0.86445 0.0
H1348 H 0.02751 0.93214 0.90972 0.0
H1349 H 0.99652 0.91126 0.90821 0.0
H1350 H 0.00417 0.96895 0.92373 0.0
H1351 H 0.96064 0.12218 0.88201 0.0
H1352 H 0.92117 0.07984 0.87994 0.0
H1353 H 0.95654 0.9318 0.88339 0.0
C1354 C 0.04531 0.03023 0.88713 0.0
C1355 C 0.05525 0.07998 0.88812 0.0
C1356 C 0.03952 0.12275 0.8878 0.0
C1357 C 0.01451 0.11656 0.88627 0.0
C1358 C 0.00527 0.06731 0.88534 0.0
C1359 C 0.02001 0.02475 0.88603 0.0
C1360 C 0.00492 0.97623 0.88548 0.0
C1361 C 0.01092 0.9441 0.86376 0.0
C1362 C 0.00849 0.94532 0.90814 0.0
C1363 C 0.97954 0.9985 0.884 0.0
C1364 C 0.98039 0.05117 0.88383 0.0
C1365 C 0.95964 0.08094 0.88225 0.0
C1366 C 0.93726 0.05641 0.88101 0.0
C1367 C 0.93563 1.0025 0.88151 0.0
C1368 C 0.95715 0.97312 0.88302 0.0
H1369 H 0.93894 0.99344 0.63128 0.0
H1370 H 0.95044 0.1496 0.65457 0.0
H1371 H 0.99388 0.13427 0.65689 0.0
H1372 H 0.98555 0.93606 0.66777 0.0
H1373 H 0.99532 0.8912 0.64583 0.0
H1374 H 0.96451 0.91346 0.64597 0.0
H1375 H 0.9689 0.9437 0.60302 0.0
H1376 H -0.00027 0.92158 0.60271 0.0
H1377 H 0.99296 0.98702 0.59542 0.0
H1378 H 0.03524 0.10529 0.65665 0.0
H1379 H 0.07432 0.06293 0.65411 0.0
H1380 H 0.03898 0.92325 0.63097 0.0
C1381 C 0.95065 0.02414 0.63697 0.0
C1382 C 0.94114 0.07277 0.64264 0.0
C1383 C 0.95712 0.11213 0.64988 0.0
C1384 C 0.98194 0.10386 0.65135 0.0
C1385 C 0.99076 0.05602 0.64548 0.0
C1386 C 0.97583 1.01666 0.63841 0.0
C1387 C 0.99067 0.96927 0.63288 0.0
C1388 C 0.9836 0.92486 0.64908 0.0
C1389 C 0.9879 0.95452 0.60696 0.0
C1390 C 0.01613 0.98846 0.63814 0.0
C1391 C 0.01543 0.03874 0.64532 0.0
C1392 C 0.03614 0.0659 0.65104 0.0
C1393 C 0.05836 0.04126 0.64943 0.0
C1394 C 0.05997 0.98963 0.64218 0.0
C1395 C 0.03844 0.96276 0.63647 0.0
H1396 H 0.43996 0.54204 0.14742 0.0
H1397 H 0.45075 0.39561 0.11332 0.0
H1398 H 0.49368 0.41514 0.1082 0.0
H1399 H 0.48359 0.61388 0.1111 0.0
H1400 H 0.49409 0.65199 0.13535 0.0
H1401 H 0.46347 0.62852 0.13493 0.0
H1402 H 0.47022 0.58579 0.17534 0.0
H1403 H 0.50085 0.60894 0.17589 0.0
H1404 H 0.49491 0.54164 0.17912 0.0
H1405 H 0.53529 0.44501 0.10957 0.0
H1406 H 0.57461 0.48622 0.11639 0.0
H1407 H 0.53865 0.61569 0.14838 0.0
C1408 C 0.45132 0.51464 0.13851 0.0
C1409 C 0.44195 0.46734 0.1308 0.0
C1410 C 0.45745 0.43203 0.11952 0.0
C1411 C 0.48191 0.44278 0.11641 0.0
C1412 C 0.49069 0.48913 0.12455 0.0
C1413 C 0.47601 0.52475 0.13525 0.0
C1414 C 0.49066 0.57055 0.14327 0.0
C1415 C 0.48247 0.61913 0.13039 0.0
C1416 C 0.48907 0.57709 0.16999 0.0
C1417 C 0.51586 0.55437 0.13579 0.0
C1418 C 0.51524 0.50722 0.12498 0.0
C1419 C 0.53608 0.48221 0.11776 0.0
C1420 C 0.5583 0.50571 0.12184 0.0
C1421 C 0.55955 0.55386 0.13289 0.0
C1422 C 0.53806 0.57903 0.13964 0.0
H1423 H 0.4366 0.49074 0.38474 0.0
H1424 H 0.44823 0.65371 0.39375 0.0
H1425 H 0.49195 0.64001 0.39451 0.0
H1426 H 0.48631 0.4519 0.42346 0.0
H1427 H 0.49454 0.39771 0.40577 0.0
H1428 H 0.46368 0.41969 0.40617 0.0
H1429 H 0.46427 0.42885 0.36103 0.0
H1430 H 0.49512 0.407 0.36047 0.0
H1431 H 0.48726 0.4675 0.34742 0.0
H1432 H 0.53387 0.61138 0.39273 0.0
H1433 H 0.57298 0.56792 0.39012 0.0
H1434 H 0.53623 0.42188 0.38358 0.0
C1435 C 0.44839 0.52337 0.387 0.0
C1436 C 0.43884 0.57323 0.38929 0.0
C1437 C 0.45491 0.61501 0.39219 0.0
C1438 C 0.47988 0.60776 0.39257 0.0
C1439 C 0.4887 0.55843 0.39027 0.0
C1440 C 0.47361 0.51678 0.38774 0.0
C1441 C 0.48824 0.46788 0.38581 0.0
C1442 C 0.48288 0.43218 0.40654 0.0
C1443 C 0.48344 0.44124 0.36227 0.0
C1444 C 0.51383 0.489 0.38715 0.0
C1445 C 0.51346 0.54139 0.38974 0.0
C1446 C 0.53449 0.5703 0.39086 0.0
C1447 C 0.55666 0.54515 0.38929 0.0
C1448 C 0.55778 0.49145 0.3867 0.0
C1449 C 0.53599 0.46293 0.38574 0.0
H1450 H 0.43845 0.55442 0.89189 0.0
H1451 H 0.44601 0.40494 0.86001 0.0
H1452 H 0.48949 0.41949 0.85494 0.0
H1453 H 0.48409 0.61961 0.85564 0.0
H1454 H 0.49552 0.65754 0.87956 0.0
H1455 H 0.46437 0.63736 0.87934 0.0
H1456 H 0.47016 0.59559 0.92009 0.0
H1457 H 0.50131 0.61548 0.92043 0.0
H1458 H 0.49377 0.54903 0.92424 0.0
H1459 H 0.53165 0.44639 0.85476 0.0
H1460 H 0.57171 0.48479 0.85954 0.0
H1461 H 0.53915 0.61791 0.89213 0.0
C1462 C 0.44928 0.52536 0.88349 0.0
C1463 C 0.43886 0.47866 0.87625 0.0
C1464 C 0.45363 0.44095 0.86575 0.0
C1465 C 0.47835 0.44885 0.86271 0.0
C1466 C 0.48823 0.49465 0.87037 0.0
C1467 C 0.47434 0.53239 0.88055 0.0
C1468 C 0.49016 0.5769 0.88817 0.0
C1469 C 0.48312 0.62576 0.87488 0.0
C1470 C 0.48876 0.58469 0.91482 0.0
C1471 C 0.51501 0.55779 0.88083 0.0
C1472 C 0.51322 0.51032 0.87049 0.0
C1473 C 0.53337 0.48367 0.86273 0.0
C1474 C 0.55612 0.50585 0.86563 0.0
C1475 C 0.55873 0.55435 0.87627 0.0
C1476 C 0.53779 0.58085 0.88385 0.0
H1477 H 0.4396 0.49168 0.63486 0.0
H1478 H 0.44974 0.65619 0.63785 0.0
H1479 H 0.49357 0.64448 0.63738 0.0
H1480 H 0.48933 0.45828 0.67186 0.0
H1481 H 0.49822 0.40305 0.65517 0.0
H1482 H 0.46718 0.42371 0.65496 0.0
H1483 H 0.46802 0.42954 0.60971 0.0
H1484 H 0.49906 0.40875 0.60975 0.0
H1485 H 0.49082 0.46785 0.59564 0.0
H1486 H 0.53571 0.61719 0.63805 0.0
H1487 H 0.57515 0.57512 0.63898 0.0
H1488 H 0.53989 0.4269 0.63497 0.0
C1489 C 0.45106 0.52516 0.63527 0.0
C1490 C 0.44101 0.57483 0.63631 0.0
C1491 C 0.45674 0.61766 0.63687 0.0
C1492 C 0.48179 0.61153 0.63666 0.0
C1493 C 0.49108 0.56234 0.63571 0.0
C1494 C 0.47636 0.5198 0.63487 0.0
C1495 C 0.49146 0.47134 0.63399 0.0
C1496 C 0.48624 0.43708 0.65527 0.0
C1497 C 0.48708 0.44267 0.6109 0.0
C1498 C 0.51688 0.49358 0.63501 0.0
C1499 C 0.516 0.54622 0.63587 0.0
C1500 C 0.53673 0.57598 0.63725 0.0
C1501 C 0.55913 0.55152 0.6378 0.0
C1502 C 0.56083 0.49757 0.63701 0.0
C1503 C 0.5393 0.4682 0.63547 0.0
H1504 H 0.13037 0.72941 0.12608 0.0
H1505 H 0.15408 0.75035 0.19801 0.0
H1506 H 0.15402 0.6574 0.2039 0.0
H1507 H 0.09064 0.62423 0.13705 0.0
H1508 H 0.09808 0.59056 0.11053 0.0
H1509 H 0.10038 0.65909 0.11152 0.0
H1510 H 0.14513 0.65351 0.09851 0.0
H1511 H 0.14295 0.5849 0.09752 0.0
H1512 H 0.16597 0.61488 0.11516 0.0
H1513 H 0.15153 0.56402 0.20255 0.0
H1514 H 0.14617 0.47277 0.19408 0.0
H1515 H 0.12305 0.5104 0.1233 0.0
C1516 C 0.13574 0.71428 0.14297 0.0
C1517 C 0.14197 0.74706 0.16167 0.0
C1518 C 0.14879 0.72596 0.18358 0.0
C1519 C 0.14899 0.67324 0.18707 0.0
C1520 C 0.14249 0.64204 0.16845 0.0
C1521 C 0.13601 0.66146 0.14681 0.0
C1522 C 0.12949 0.61891 0.12997 0.0
C1523 C 0.10308 0.62348 0.1218 0.0
C1524 C 0.14693 0.61801 0.10905 0.0
C1525 C 0.13315 0.57284 0.1457 0.0
C1526 C 0.14079 0.58728 0.16774 0.0
C1527 C 0.14545 0.55202 0.18539 0.0
C1528 C 0.14215 0.50029 0.18045 0.0
C1529 C 0.134 0.4843 0.15811 0.0
C1530 C 0.12955 0.52125 0.14049 0.0
H1531 H 0.87514 0.3213 0.11989 0.0
H1532 H 0.83857 0.30111 0.18654 0.0
H1533 H 0.84049 0.39364 0.19328 0.0
H1534 H 0.91477 0.42278 0.13732 0.0
H1535 H 0.91212 0.45723 0.11008 0.0
H1536 H 0.90852 0.3889 0.11051 0.0
H1537 H 0.8665 0.39802 0.0909 0.0
H1538 H 0.86994 0.46641 0.09043 0.0
H1539 H 0.84396 0.43808 0.10429 0.0
H1540 H 0.84548 0.48774 0.19287 0.0
H1541 H 0.85327 0.5787 0.18526 0.0
H1542 H 0.88643 0.53935 0.11878 0.0
C1543 C 0.86741 0.33621 0.13587 0.0
C1544 C 0.85701 0.30336 0.15283 0.0
C1545 C 0.84725 0.32489 0.17353 0.0
C1546 C 0.84802 0.37761 0.17745 0.0
C1547 C 0.85838 0.40865 0.16044 0.0
C1548 C 0.86783 0.38896 0.14001 0.0
C1549 C 0.87761 0.43119 0.12446 0.0
C1550 C 0.90488 0.42462 0.12036 0.0
C1551 C 0.86367 0.43355 0.10114 0.0
C1552 C 0.87235 0.47754 0.13953 0.0
C1553 C 0.86118 0.46351 0.16014 0.0
C1554 C 0.85435 0.49929 0.17685 0.0
C1555 C 0.85905 0.55094 0.17243 0.0
C1556 C 0.87066 0.56658 0.15152 0.0
C1557 C 0.87733 0.52903 0.13486 0.0
H1558 H 0.1236 0.31383 0.40017 0.0
H1559 H 0.16909 0.2964 0.33888 0.0
H1560 H 0.17019 0.38957 0.33386 0.0
H1561 H 0.0882 0.41804 0.37793 0.0
H1562 H 0.08636 0.45153 0.40542 0.0
H1563 H 0.08969 0.38314 0.40513 0.0
H1564 H 0.12792 0.39074 0.43117 0.0
H1565 H 0.1247 0.45921 0.43149 0.0
H1566 H 0.15256 0.43077 0.42177 0.0
H1567 H 0.16693 0.4827 0.33499 0.0
H1568 H 0.158 0.5733 0.34115 0.0
H1569 H 0.11279 0.53396 0.40065 0.0
C1570 C 0.13396 0.32983 0.38587 0.0
C1571 C 0.14616 0.29779 0.36981 0.0
C1572 C 0.15937 0.32009 0.3512 0.0
C1573 C 0.16022 0.373 0.34826 0.0
C1574 C 0.14782 0.40344 0.36411 0.0
C1575 C 0.13488 0.38304 0.38254 0.0
C1576 C 0.12274 0.42517 0.39655 0.0
C1577 C 0.09511 0.4191 0.39622 0.0
C1578 C 0.13257 0.42654 0.42174 0.0
C1579 C 0.13069 0.47204 0.38283 0.0
C1580 C 0.14537 0.45826 0.36439 0.0
C1581 C 0.15529 0.49409 0.34925 0.0
C1582 C 0.14991 0.54558 0.35282 0.0
C1583 C 0.13432 0.56113 0.37113 0.0
C1584 C 0.12484 0.52361 0.38654 0.0
H1585 H 0.85539 0.50044 0.40153 0.0
H1586 H 0.88177 0.47974 0.33054 0.0
H1587 H 0.8809 0.5727 0.32456 0.0
H1588 H 0.81612 0.6059 0.39018 0.0
H1589 H 0.82335 0.63887 0.41698 0.0
H1590 H 0.82533 0.57031 0.41573 0.0
H1591 H 0.86992 0.57434 0.42953 0.0
H1592 H 0.86805 0.64291 0.43096 0.0
H1593 H 0.89117 0.61307 0.41355 0.0
H1594 H 0.87737 0.66733 0.32603 0.0
H1595 H 0.8716 0.7584 0.33497 0.0
H1596 H 0.85048 0.71842 0.40594 0.0
C1597 C 0.86114 0.51528 0.38474 0.0
C1598 C 0.86835 0.48232 0.3664 0.0
C1599 C 0.87553 0.50375 0.34469 0.0
C1600 C 0.87535 0.55665 0.34117 0.0
C1601 C 0.8682 0.58783 0.35959 0.0
C1602 C 0.86136 0.56809 0.381 0.0
C1603 C 0.8549 0.61027 0.39801 0.0
C1604 C 0.82834 0.60608 0.40566 0.0
C1605 C 0.87203 0.61012 0.41927 0.0
C1606 C 0.85904 0.65672 0.38268 0.0
C1607 C 0.86669 0.64283 0.36061 0.0
C1608 C 0.87155 0.67883 0.34331 0.0
C1609 C 0.86843 0.73058 0.34865 0.0
C1610 C 0.86072 0.74602 0.37121 0.0
C1611 C 0.8561 0.70823 0.38842 0.0
H1612 H 0.86051 0.33141 0.90772 0.0
H1613 H 0.85062 0.2971 0.83382 0.0
H1614 H 0.85446 0.38829 0.82451 0.0
H1615 H 0.82509 0.44815 0.90682 0.0
H1616 H 0.84427 0.48078 0.92751 0.0
H1617 H 0.84145 0.41229 0.92868 0.0
H1618 H 0.8879 0.40327 0.92521 0.0
H1619 H 0.89086 0.4717 0.92405 0.0
H1620 H 0.90332 0.43295 0.90099 0.0
H1621 H 0.85858 0.48243 0.82278 0.0
H1622 H 0.86307 0.5748 0.82865 0.0
H1623 H 0.8699 0.55039 0.90368 0.0
C1624 C 0.85893 0.34287 0.88957 0.0
C1625 C 0.85552 0.30626 0.87151 0.0
C1626 C 0.85386 0.32359 0.84801 0.0
C1627 C 0.85576 0.37559 0.84251 0.0
C1628 C 0.85904 0.4103 0.86067 0.0
C1629 C 0.86053 0.39487 0.88374 0.0
C1630 C 0.86388 0.44052 0.89986 0.0
C1631 C 0.84239 0.44573 0.91671 0.0
C1632 C 0.88792 0.43688 0.91332 0.0
C1633 C 0.86425 0.48384 0.88213 0.0
C1634 C 0.86135 0.46531 0.85968 0.0
C1635 C 0.86098 0.49745 0.84027 0.0
C1636 C 0.86375 0.55 0.84381 0.0
C1637 C 0.8671 0.57034 0.8666 0.0
C1638 C 0.86718 0.53646 0.88603 0.0
H1639 H 0.11883 0.51381 0.90248 0.0
H1640 H 0.14943 0.47369 0.83493 0.0
H1641 H 0.15617 0.56457 0.82648 0.0
H1642 H 0.08873 0.62729 0.88465 0.0
H1643 H 0.09575 0.66272 0.91084 0.0
H1644 H 0.09326 0.59423 0.91203 0.0
H1645 H 0.13635 0.58826 0.92966 0.0
H1646 H 0.13897 0.6568 0.9286 0.0
H1647 H 0.16127 0.61748 0.91443 0.0
H1648 H 0.15921 0.65793 0.82471 0.0
H1649 H 0.15888 0.75108 0.82982 0.0
H1650 H 0.12745 0.73272 0.89893 0.0
C1651 C 0.12725 0.52403 0.88604 0.0
C1652 C 0.1334 0.48644 0.86926 0.0
C1653 C 0.14408 0.50166 0.84785 0.0
C1654 C 0.14818 0.55319 0.84295 0.0
C1655 C 0.1418 0.58908 0.85974 0.0
C1656 C 0.13173 0.57542 0.88092 0.0
C1657 C 0.12661 0.62209 0.89582 0.0
C1658 C 0.09948 0.62685 0.90114 0.0
C1659 C 0.1417 0.62108 0.91847 0.0
C1660 C 0.13509 0.66402 0.87946 0.0
C1661 C 0.14382 0.64381 0.85881 0.0
C1662 C 0.15243 0.67436 0.84077 0.0
C1663 C 0.15202 0.7272 0.84381 0.0
C1664 C 0.14293 0.74911 0.86467 0.0
C1665 C 0.1346 0.71698 0.88286 0.0
H1666 H 0.88164 0.72519 0.65692 0.0
H1667 H 0.82178 0.74959 0.60876 0.0
H1668 H 0.81847 0.65693 0.60278 0.0
H1669 H 0.90888 0.6209 0.62676 0.0
H1670 H 0.91679 0.5862 0.65297 0.0
H1671 H 0.91463 0.65476 0.65367 0.0
H1672 H 0.8837 0.64885 0.68752 0.0
H1673 H 0.88572 0.58021 0.6869 0.0
H1674 H 0.85677 0.61098 0.68377 0.0
H1675 H 0.82081 0.56362 0.60226 0.0
H1676 H 0.82957 0.47213 0.60613 0.0
H1677 H 0.88839 0.50656 0.65421 0.0
C1678 C 0.86778 0.711 0.6452 0.0
C1679 C 0.85217 0.74465 0.63305 0.0
C1680 C 0.83432 0.72463 0.6178 0.0
C1681 C 0.83211 0.67207 0.61447 0.0
C1682 C 0.84775 0.64009 0.62665 0.0
C1683 C 0.86523 0.65851 0.64173 0.0
C1684 C 0.87971 0.61539 0.65257 0.0
C1685 C 0.90659 0.61957 0.64609 0.0
C1686 C 0.87626 0.61378 0.67927 0.0
C1687 C 0.86778 0.57001 0.64087 0.0
C1688 C 0.84927 0.58538 0.6262 0.0
C1689 C 0.83534 0.55092 0.61357 0.0
C1690 C 0.84058 0.49907 0.61579 0.0
C1691 C 0.85984 0.48218 0.63026 0.0
C1692 C 0.87345 0.51822 0.64315 0.0
H1693 H 0.123 0.31372 0.66837 0.0
H1694 H 0.1728 0.29241 0.61046 0.0
H1695 H 0.17249 0.38486 0.60312 0.0
H1696 H 0.08802 0.41519 0.64321 0.0
H1697 H 0.08504 0.45008 0.67023 0.0
H1698 H 0.0885 0.38173 0.67083 0.0
H1699 H 0.12564 0.391 0.69819 0.0
H1700 H 0.12227 0.4594 0.69766 0.0
H1701 H 0.15057 0.43081 0.68931 0.0
H1702 H 0.16764 0.47909 0.60212 0.0
H1703 H 0.15863 0.57019 0.60769 0.0
H1704 H 0.11219 0.53195 0.66641 0.0
C1705 C 0.13399 0.32832 0.65422 0.0
C1706 C 0.14769 0.29508 0.63981 0.0
C1707 C 0.16162 0.31637 0.6214 0.0
C1708 C 0.16177 0.36907 0.6172 0.0
C1709 C 0.14811 0.40044 0.63167 0.0
C1710 C 0.13454 0.38106 0.64988 0.0
C1711 C 0.1218 0.42362 0.66301 0.0
C1712 C 0.0942 0.41727 0.66173 0.0
C1713 C 0.1306 0.42636 0.68855 0.0
C1714 C 0.13017 0.46975 0.64909 0.0
C1715 C 0.14539 0.45536 0.63117 0.0
C1716 C 0.15564 0.49089 0.61602 0.0
C1717 C 0.15023 0.54263 0.61922 0.0
C1718 C 0.13454 0.55863 0.63736 0.0
C1719 C 0.12444 0.52135 0.65249 0.0
H1720 H 0.60451 1.01026 0.14664 0.0
H1721 H 0.67611 0.96537 0.12323 0.0
H1722 H 0.68795 0.05547 0.12095 0.0
H1723 H 0.59867 0.12293 0.11182 0.0
H1724 H 0.58416 0.16022 0.13425 0.0
H1725 H 0.58073 0.09185 0.13397 0.0
H1726 H 0.59679 0.08701 0.17653 0.0
H1727 H 0.60021 0.15541 0.17696 0.0
H1728 H 0.62567 0.11495 0.18358 0.0
H1729 H 0.69248 0.14867 0.12076 0.0
H1730 H 0.68985 0.24203 0.12358 0.0
H1731 H 0.61587 0.2292 0.14819 0.0
C1732 C 0.62278 1.01924 0.14133 0.0
C1733 C 0.63924 0.9803 0.13481 0.0
C1734 C 0.6629 0.99415 0.12774 0.0
C1735 C 0.66992 0.04533 0.12657 0.0
C1736 C 0.65326 0.0825 0.13288 0.0
C1737 C 0.63025 0.07038 0.14031 0.0
C1738 C 0.6161 0.11832 0.1463 0.0
C1739 C 0.59359 0.12362 0.13064 0.0
C1740 C 0.6093 0.11895 0.17239 0.0
C1741 C 0.63476 0.15905 0.14073 0.0
C1742 C 0.65602 0.13722 0.13305 0.0
C1743 C 0.67593 0.16638 0.12668 0.0
C1744 C 0.67416 0.21947 0.12816 0.0
C1745 C 0.65255 0.24317 0.13578 0.0
C1746 C 0.63264 0.21232 0.14233 0.0
H1747 H 0.3441 0.81468 0.16386 0.0
H1748 H 0.38961 0.77795 0.10431 0.0
H1749 H 0.3969 0.86943 0.09772 0.0
H1750 H 0.31726 0.9281 0.14029 0.0
H1751 H 0.31785 0.96269 0.16755 0.0
H1752 H 0.31577 0.89408 0.16772 0.0
H1753 H 0.35382 0.88895 0.19412 0.0
H1754 H 0.35599 0.95758 0.19404 0.0
H1755 H 0.38135 0.91953 0.18479 0.0
H1756 H 0.40005 0.96361 0.09763 0.0
H1757 H 0.39894 0.05625 0.10402 0.0
H1758 H 0.35111 0.03367 0.16342 0.0
C1759 C 0.35579 0.82575 0.14955 0.0
C1760 C 0.3661 0.78876 0.13446 0.0
C1761 C 0.38106 0.80526 0.11582 0.0
C1762 C 0.38548 0.85722 0.11202 0.0
C1763 C 0.37501 0.89244 0.1271 0.0
C1764 C 0.36054 0.87762 0.14556 0.0
C1765 C 0.35173 0.92365 0.15923 0.0
C1766 C 0.32401 0.92733 0.15865 0.0
C1767 C 0.3613 0.92234 0.18454 0.0
C1768 C 0.36332 0.96651 0.14532 0.0
C1769 C 0.37674 0.94745 0.12697 0.0
C1770 C 0.38944 0.97915 0.11181 0.0
C1771 C 0.38846 0.03191 0.11547 0.0
C1772 C 0.37464 0.0528 0.134 0.0
C1773 C 0.36194 1.01928 0.14913 0.0
H1774 H 0.62428 0.03647 0.35076 0.0
H1775 H 0.63585 0.06981 0.42447 0.0
H1776 H 0.6426 0.97846 0.43214 0.0
H1777 H 0.59159 0.91845 0.35971 0.0
H1778 H 0.60478 0.88686 0.33481 0.0
H1779 H 0.60127 0.95523 0.33473 0.0
H1780 H 0.64698 0.96608 0.32666 0.0
H1781 H 0.65066 0.89775 0.32667 0.0
H1782 H 0.66862 0.93661 0.34609 0.0
H1783 H 0.64724 0.88406 0.43236 0.0
H1784 H 0.65034 0.79189 0.42511 0.0
H1785 H 0.63623 0.81791 0.35112 0.0
C1786 C 0.62806 0.02466 0.36857 0.0
C1787 C 0.62968 0.06088 0.38699 0.0
C1788 C 0.63498 0.04339 0.40994 0.0
C1789 C 0.63863 0.99137 0.41454 0.0
C1790 C 0.63684 0.95692 0.39606 0.0
C1791 C 0.63169 0.97267 0.37352 0.0
C1792 C 0.63088 0.92742 0.35689 0.0
C1793 C 0.60563 0.92166 0.34589 0.0
C1794 C 0.65046 0.93226 0.33796 0.0
C1795 C 0.63638 0.88384 0.37368 0.0
C1796 C 0.63969 0.90193 0.39616 0.0
C1797 C 0.64485 0.8694 0.4148 0.0
C1798 C 0.64678 0.81694 0.41042 0.0
C1799 C 0.64383 0.79701 0.38749 0.0
C1800 C 0.63842 0.83135 0.36891 0.0
H1801 H 0.36158 1.00321 0.40079 0.0
H1802 H 0.37085 0.97461 0.32639 0.0
H1803 H 0.36851 0.06669 0.31861 0.0
H1804 H 0.31788 0.10659 0.39362 0.0
H1805 H 0.32958 0.14297 0.41791 0.0
H1806 H 0.3319 0.07436 0.41804 0.0
H1807 H 0.37822 0.08131 0.42397 0.0
H1808 H 0.37607 0.14991 0.42378 0.0
H1809 H 0.39589 0.11807 0.40352 0.0
H1810 H 0.36615 0.15999 0.31845 0.0
H1811 H 0.36277 0.25213 0.32583 0.0
H1812 H 0.35381 0.22242 0.40016 0.0
C1813 C 0.36273 1.01624 0.38283 0.0
C1814 C 0.36662 0.98161 0.3642 0.0
C1815 C 0.36837 1.00037 0.34099 0.0
C1816 C 0.36688 0.05259 0.33635 0.0
C1817 C 0.3633 0.08558 0.35505 0.0
C1818 C 0.36105 0.06843 0.37781 0.0
C1819 C 0.3574 0.11263 0.39457 0.0
C1820 C 0.33272 0.1089 0.40675 0.0
C1821 C 0.37813 0.11564 0.41252 0.0
C1822 C 0.35817 0.15712 0.37758 0.0
C1823 C 0.36162 0.14035 0.35492 0.0
C1824 C 0.36342 0.17378 0.3361 0.0
C1825 C 0.36168 0.22603 0.34051 0.0
C1826 C 0.35829 0.24443 0.36359 0.0
C1827 C 0.3563 0.20939 0.38234 0.0
H1828 H 0.37992 0.82196 0.89692 0.0
H1829 H 0.31594 0.80125 0.85373 0.0
H1830 H 0.31209 0.89429 0.84948 0.0
H1831 H 0.35844 0.93561 0.92713 0.0
H1832 H 0.38766 0.96596 0.9277 0.0
H1833 H 0.38549 0.89732 0.92785 0.0
H1834 H 0.41271 0.89293 0.89111 0.0
H1835 H 0.41499 0.96151 0.89087 0.0
H1836 H 0.4043 0.92828 0.86522 0.0
H1837 H 0.31443 0.98783 0.84995 0.0
H1838 H 0.32362 0.07907 0.85406 0.0
H1839 H 0.38709 0.04137 0.89569 0.0
C1840 C 0.36505 0.83714 0.8867 0.0
C1841 C 0.34839 0.80435 0.87542 0.0
C1842 C 0.3292 0.82558 0.86213 0.0
C1843 C 0.32673 0.87838 0.85975 0.0
C1844 C 0.34351 0.90957 0.87085 0.0
C1845 C 0.36233 0.89005 0.88405 0.0
C1846 C 0.37798 0.93264 0.8938 0.0
C1847 C 0.37735 0.93288 0.92072 0.0
C1848 C 0.40404 0.92859 0.88469 0.0
C1849 C 0.36508 0.97887 0.88371 0.0
C1850 C 0.34514 0.96444 0.87075 0.0
C1851 C 0.3301 0.99981 0.8599 0.0
C1852 C 0.33562 0.05161 0.86218 0.0
C1853 C 0.35625 0.06772 0.87494 0.0
C1854 C 0.37107 0.03059 0.88597 0.0
H1855 H 0.64202 0.22461 0.8585 0.0
H1856 H 0.6453 0.24676 0.93387 0.0
H1857 H 0.64141 0.15428 0.93976 0.0
H1858 H 0.5968 0.12351 0.86027 0.0
H1859 H 0.6099 0.08821 0.8364 0.0
H1860 H 0.61328 0.15657 0.83768 0.0
H1861 H 0.65979 0.14664 0.83548 0.0
H1862 H 0.65652 0.07828 0.83424 0.0
H1863 H 0.67511 0.1069 0.85662 0.0
H1864 H 0.63691 0.06013 0.9381 0.0
H1865 H 0.63149 0.96924 0.92886 0.0
H1866 H 0.63108 1.00586 0.85458 0.0
C1867 C 0.64166 0.2102 0.87627 0.0
C1868 C 0.64429 0.24354 0.89571 0.0
C1869 C 0.64394 0.22247 0.91861 0.0
C1870 C 0.64152 0.16981 0.92219 0.0
C1871 C 0.63918 0.13825 0.90276 0.0
C1872 C 0.63909 0.15745 0.88022 0.0
C1873 C 0.63615 0.11461 0.86248 0.0
C1874 C 0.61263 0.12112 0.84838 0.0
C1875 C 0.65821 0.11144 0.84625 0.0
C1876 C 0.6348 0.06856 0.87866 0.0
C1877 C 0.63654 0.08327 0.90179 0.0
C1878 C 0.63565 0.048 0.92003 0.0
C1879 C 0.63281 0.9962 0.91455 0.0
C1880 C 0.63108 0.97966 0.89097 0.0
C1881 C 0.63212 1.01678 0.87282 0.0
H1882 H 0.34593 0.99874 0.63329 0.0
H1883 H 0.4116 0.97674 0.67398 0.0
H1884 H 0.41533 0.06959 0.67891 0.0
H1885 H 0.3666 0.1127 0.60294 0.0
H1886 H 0.33737 0.14299 0.60325 0.0
H1887 H 0.33954 0.07436 0.60277 0.0
H1888 H 0.31335 0.06897 0.64019 0.0
H1889 H 0.31105 0.13752 0.64079 0.0
H1890 H 0.32246 0.10364 0.666 0.0
H1891 H 0.41268 0.16278 0.67927 0.0
H1892 H 0.40315 0.25405 0.67608 0.0
H1893 H 0.3388 0.21766 0.63558 0.0
C1894 C 0.36113 1.01353 0.64314 0.0
C1895 C 0.37829 0.98048 0.65355 0.0
C1896 C 0.39791 1.00124 0.66636 0.0
C1897 C 0.40034 0.05392 0.66906 0.0
C1898 C 0.38312 0.08531 0.65869 0.0
C1899 C 0.36391 0.0662 0.64596 0.0
C1900 C 0.34798 0.10885 0.63676 0.0
C1901 C 0.34788 0.10976 0.60983 0.0
C1902 C 0.32219 0.10448 0.64653 0.0
C1903 C 0.36116 0.15477 0.64667 0.0
C1904 C 0.38147 0.14003 0.65905 0.0
C1905 C 0.39677 0.175 0.66974 0.0
C1906 C 0.39109 0.22673 0.66794 0.0
C1907 C 0.37009 0.24303 0.65581 0.0
C1908 C 0.35507 0.20645 0.64482 0.0
H1909 H 0.64406 0.82286 0.62098 0.0
H1910 H 0.62917 0.7952 0.69457 0.0
H1911 H 0.62268 0.88704 0.70058 0.0
H1912 H 0.67641 0.94213 0.62932 0.0
H1913 H 0.66406 0.97176 0.60342 0.0
H1914 H 0.66775 0.90346 0.60459 0.0
H1915 H 0.62235 0.89144 0.59487 0.0
H1916 H 0.61853 0.95968 0.59363 0.0
H1917 H 0.59996 0.922 0.61294 0.0
H1918 H 0.61796 0.98014 0.69919 0.0
H1919 H 0.61453 0.07161 0.69034 0.0
H1920 H 0.63156 0.04107 0.61742 0.0
C1921 C 0.6396 0.83624 0.63836 0.0
C1922 C 0.63683 0.80171 0.65725 0.0
C1923 C 0.63087 0.82071 0.67973 0.0
C1924 C 0.62734 0.87287 0.68338 0.0
C1925 C 0.62999 0.90573 0.66444 0.0
C1926 C 0.63597 0.88846 0.64237 0.0
C1927 C 0.63728 0.93238 0.62507 0.0
C1928 C 0.6629 0.93774 0.61501 0.0
C1929 C 0.6184 0.92598 0.60547 0.0
C1930 C 0.63107 0.97681 0.64098 0.0
C1931 C 0.62702 0.96031 0.66359 0.0
C1932 C 0.62097 0.9937 0.68153 0.0
C1933 C 0.61887 0.04559 0.67626 0.0
C1934 C 0.62253 0.06372 0.65315 0.0
C1935 C 0.62886 0.02865 0.63531 0.0
loop_
_geom_bond_atom_site_label_1
_geom_bond_atom_site_label_2
_geom_bond_distance
_geom_bond_site_symmetry_2
_ccdc_geom_bond_type
Pr0 C2 2.880 1_545 S
Pr0 O20 2.562 1_545 S
Pr0 O21 2.490 1_545 S
Pr0 O22 2.695 . S
Pr0 O23 2.512 . S
Pr0 O25 2.437 . S
Pr0 O28 2.436 . S
Pr0 O30 2.438 . S
Pr1 C11 2.880 . S
Pr1 O22 2.436 . S
Pr1 O24 2.438 . S
Pr1 O26 2.562 . S
Pr1 O27 2.490 . S
Pr1 O28 2.695 . S
Pr1 O29 2.512 . S
Pr1 O31 2.437 . S
C2 Pr0 2.880 1_565 S
C2 C3 1.491 . S
C2 O20 1.254 . S
C2 O21 1.225 . S
C3 C2 1.491 . S
C3 C4 1.392 . S
C3 C8 1.356 . S
C4 C3 1.392 . S
C4 C5 1.368 . S
C4 H32 0.929 . S
C5 C4 1.368 . S
C5 C6 1.386 . S
C5 H33 0.929 . S
C6 C5 1.386 . S
C6 C7 1.373 . S
C7 C6 1.373 . S
C7 C8 1.409 . S
C7 H34 0.931 . S
C8 C3 1.356 . S
C8 C7 1.409 . S
C8 H35 0.930 . S
C9 O22 1.270 . S
C9 O23 1.248 . S
C10 O24 1.267 . S
C10 O25 1.278 . S
C11 Pr1 2.880 . S
C11 C12 1.491 . S
C11 O26 1.254 . S
C11 O27 1.225 . S
C12 C11 1.491 . S
C12 C13 1.392 . S
C12 C17 1.356 . S
C13 C12 1.392 . S
C13 C14 1.368 . S
C13 H36 0.929 . S
C14 C13 1.368 . S
C14 C15 1.386 . S
C14 H37 0.929 . S
C15 C14 1.386 . S
C15 C16 1.373 . S
C16 C15 1.373 . S
C16 C17 1.409 . S
C16 H38 0.931 . S
C17 C12 1.356 . S
C17 C16 1.409 . S
C17 H39 0.930 . S
C18 O28 1.270 . S
C18 O29 1.248 . S
C19 O30 1.267 . S
C19 O31 1.278 . S
O20 Pr0 2.562 1_565 S
O20 C2 1.254 . S
O21 Pr0 2.490 1_565 S
O21 C2 1.225 . S
O22 Pr0 2.695 . S
O22 Pr1 2.436 . S
O22 C9 1.270 . S
O23 Pr0 2.512 . S
O23 C9 1.248 . S
O24 Pr1 2.438 . S
O24 C10 1.267 . S
O25 Pr0 2.437 . S
O25 C10 1.278 . S
O26 Pr1 2.562 . S
O26 C11 1.254 . S
O27 Pr1 2.490 . S
O27 C11 1.225 . S
O28 Pr0 2.436 . S
O28 Pr1 2.695 . S
O28 C18 1.270 . S
O29 Pr1 2.512 . S
O29 C18 1.248 . S
O30 Pr0 2.438 . S
O30 C19 1.267 . S
O31 Pr1 2.437 . S
O31 C19 1.278 . S
H32 C4 0.929 . S
H33 C5 0.929 . S
H34 C7 0.931 . S
H35 C8 0.930 . S
H36 C13 0.929 . S
H37 C14 0.929 . S
H38 C16 0.931 . S
H39 C17 0.930 . S
Pr40 C42 2.880 1_565 S
Pr40 O60 2.562 1_565 S
Pr40 O61 2.490 1_565 S
Pr40 O62 2.695 . S
Pr40 O63 2.512 . S
Pr40 O65 2.437 . S
Pr40 O68 2.436 . S
Pr40 O70 2.438 . S
Pr41 C51 2.880 . S
Pr41 O62 2.436 . S
Pr41 O64 2.438 . S
Pr41 O66 2.562 . S
Pr41 O67 2.490 . S
Pr41 O68 2.695 . S
Pr41 O69 2.512 . S
Pr41 O71 2.437 . S
C42 Pr40 2.880 1_545 S
C42 C43 1.491 . S
C42 O60 1.254 . S
C42 O61 1.225 . S
C43 C42 1.491 . S
C43 C44 1.392 . S
C43 C48 1.356 . S
C44 C43 1.392 . S
C44 C45 1.368 . S
C44 H72 0.929 . S
C45 C44 1.368 . S
C45 C46 1.386 . S
C45 H73 0.929 . S
C46 C45 1.386 . S
C46 C47 1.373 . S
C47 C46 1.373 . S
C47 C48 1.409 . S
C47 H74 0.931 . S
C48 C43 1.356 . S
C48 C47 1.409 . S
C48 H75 0.930 . S
C49 O62 1.270 . S
C49 O63 1.248 . S
C50 O64 1.267 . S
C50 O65 1.278 . S
C51 Pr41 2.880 . S
C51 C52 1.491 . S
C51 O66 1.254 . S
C51 O67 1.225 . S
C52 C51 1.491 . S
C52 C53 1.392 . S
C52 C57 1.356 . S
C53 C52 1.392 . S
C53 C54 1.368 . S
C53 H76 0.929 . S
C54 C53 1.368 . S
C54 C55 1.386 . S
C54 H77 0.929 . S
C55 C54 1.386 . S
C55 C56 1.373 . S
C56 C55 1.373 . S
C56 C57 1.409 . S
C56 H78 0.931 . S
C57 C52 1.356 . S
C57 C56 1.409 . S
C57 H79 0.930 . S
C58 O68 1.270 . S
C58 O69 1.248 . S
C59 O70 1.267 . S
C59 O71 1.278 . S
O60 Pr40 2.562 1_545 S
O60 C42 1.254 . S
O61 Pr40 2.490 1_545 S
O61 C42 1.225 . S
O62 Pr40 2.695 . S
O62 Pr41 2.436 . S
O62 C49 1.270 . S
O63 Pr40 2.512 . S
O63 C49 1.248 . S
O64 Pr41 2.438 . S
O64 C50 1.267 . S
O65 Pr40 2.437 . S
O65 C50 1.278 . S
O66 Pr41 2.562 . S
O66 C51 1.254 . S
O67 Pr41 2.490 . S
O67 C51 1.225 . S
O68 Pr40 2.436 . S
O68 Pr41 2.695 . S
O68 C58 1.270 . S
O69 Pr41 2.512 . S
O69 C58 1.248 . S
O70 Pr40 2.438 . S
O70 C59 1.267 . S
O71 Pr41 2.437 . S
O71 C59 1.278 . S
H72 C44 0.929 . S
H73 C45 0.929 . S
H74 C47 0.931 . S
H75 C48 0.930 . S
H76 C53 0.929 . S
H77 C54 0.929 . S
H78 C56 0.931 . S
H79 C57 0.930 . S
Pr80 C82 2.880 1_565 S
Pr80 O100 2.562 1_565 S
Pr80 O101 2.490 1_565 S
Pr80 O102 2.695 . S
Pr80 O103 2.512 . S
Pr80 O105 2.437 . S
Pr80 O108 2.436 . S
Pr80 O110 2.438 . S
Pr81 C91 2.880 . S
Pr81 O102 2.436 . S
Pr81 O104 2.438 . S
Pr81 O106 2.562 . S
Pr81 O107 2.490 . S
Pr81 O108 2.695 . S
Pr81 O109 2.512 . S
Pr81 O111 2.437 . S
C82 Pr80 2.880 1_545 S
C82 C83 1.491 . S
C82 O100 1.254 . S
C82 O101 1.225 . S
C83 C82 1.491 . S
C83 C84 1.392 . S
C83 C88 1.356 . S
C84 C83 1.392 . S
C84 C85 1.368 . S
C84 H112 0.929 . S
C85 C84 1.368 . S
C85 C86 1.386 . S
C85 H113 0.929 . S
C86 C85 1.386 . S
C86 C87 1.373 . S
C87 C86 1.373 . S
C87 C88 1.409 . S
C87 H114 0.931 . S
C88 C83 1.356 . S
C88 C87 1.409 . S
C88 H115 0.930 . S
C89 O102 1.270 . S
C89 O103 1.248 . S
C90 O104 1.267 . S
C90 O105 1.278 . S
C91 Pr81 2.880 . S
C91 C92 1.491 . S
C91 O106 1.254 . S
C91 O107 1.225 . S
C92 C91 1.491 . S
C92 C93 1.392 . S
C92 C97 1.356 . S
C93 C92 1.392 . S
C93 C94 1.368 . S
C93 H116 0.929 . S
C94 C93 1.368 . S
C94 C95 1.386 . S
C94 H117 0.929 . S
C95 C94 1.386 . S
C95 C96 1.373 . S
C96 C95 1.373 . S
C96 C97 1.409 . S
C96 H118 0.931 . S
C97 C92 1.356 . S
C97 C96 1.409 . S
C97 H119 0.930 . S
C98 O108 1.270 . S
C98 O109 1.248 . S
C99 O110 1.267 . S
C99 O111 1.278 . S
O100 Pr80 2.562 1_545 S
O100 C82 1.254 . S
O101 Pr80 2.490 1_545 S
O101 C82 1.225 . S
O102 Pr80 2.695 . S
O102 Pr81 2.436 . S
O102 C89 1.270 . S
O103 Pr80 2.512 . S
O103 C89 1.248 . S
O104 Pr81 2.438 . S
O104 C90 1.267 . S
O105 Pr80 2.437 . S
O105 C90 1.278 . S
O106 Pr81 2.562 . S
O106 C91 1.254 . S
O107 Pr81 2.490 . S
O107 C91 1.225 . S
O108 Pr80 2.436 . S
O108 Pr81 2.695 . S
O108 C98 1.270 . S
O109 Pr81 2.512 . S
O109 C98 1.248 . S
O110 Pr80 2.438 . S
O110 C99 1.267 . S
O111 Pr81 2.437 . S
O111 C99 1.278 . S
H112 C84 0.929 . S
H113 C85 0.929 . S
H114 C87 0.931 . S
H115 C88 0.930 . S
H116 C93 0.929 . S
H117 C94 0.929 . S
H118 C96 0.931 . S
H119 C97 0.930 . S
Pr120 C122 2.880 1_545 S
Pr120 O140 2.562 1_545 S
Pr120 O141 2.490 1_545 S
Pr120 O142 2.695 . S
Pr120 O143 2.512 . S
Pr120 O145 2.437 . S
Pr120 O148 2.436 . S
Pr120 O150 2.438 . S
Pr121 C131 2.880 . S
Pr121 O142 2.436 . S
Pr121 O144 2.438 . S
Pr121 O146 2.562 . S
Pr121 O147 2.490 . S
Pr121 O148 2.695 . S
Pr121 O149 2.512 . S
Pr121 O151 2.437 . S
C122 Pr120 2.880 1_565 S
C122 C123 1.491 . S
C122 O140 1.254 . S
C122 O141 1.225 . S
C123 C122 1.491 . S
C123 C124 1.392 . S
C123 C128 1.356 . S
C124 C123 1.392 . S
C124 C125 1.368 . S
C124 H152 0.929 . S
C125 C124 1.368 . S
C125 C126 1.386 . S
C125 H153 0.929 . S
C126 C125 1.386 . S
C126 C127 1.373 . S
C127 C126 1.373 . S
C127 C128 1.409 . S
C127 H154 0.931 . S
C128 C123 1.356 . S
C128 C127 1.409 . S
C128 H155 0.930 . S
C129 O142 1.270 . S
C129 O143 1.248 . S
C130 O144 1.267 . S
C130 O145 1.278 . S
C131 Pr121 2.880 . S
C131 C132 1.491 . S
C131 O146 1.254 . S
C131 O147 1.225 . S
C132 C131 1.491 . S
C132 C133 1.392 . S
C132 C137 1.356 . S
C133 C132 1.392 . S
C133 C134 1.368 . S
C133 H156 0.929 . S
C134 C133 1.368 . S
C134 C135 1.386 . S
C134 H157 0.929 . S
C135 C134 1.386 . S
C135 C136 1.373 . S
C136 C135 1.373 . S
C136 C137 1.409 . S
C136 H158 0.931 . S
C137 C132 1.356 . S
C137 C136 1.409 . S
C137 H159 0.930 . S
C138 O148 1.270 . S
C138 O149 1.248 . S
C139 O150 1.267 . S
C139 O151 1.278 . S
O140 Pr120 2.562 1_565 S
O140 C122 1.254 . S
O141 Pr120 2.490 1_565 S
O141 C122 1.225 . S
O142 Pr120 2.695 . S
O142 Pr121 2.436 . S
O142 C129 1.270 . S
O143 Pr120 2.512 . S
O143 C129 1.248 . S
O144 Pr121 2.438 . S
O144 C130 1.267 . S
O145 Pr120 2.437 . S
O145 C130 1.278 . S
O146 Pr121 2.562 . S
O146 C131 1.254 . S
O147 Pr121 2.490 . S
O147 C131 1.225 . S
O148 Pr120 2.436 . S
O148 Pr121 2.695 . S
O148 C138 1.270 . S
O149 Pr121 2.512 . S
O149 C138 1.248 . S
O150 Pr120 2.438 . S
O150 C139 1.267 . S
O151 Pr121 2.437 . S
O151 C139 1.278 . S
H152 C124 0.929 . S
H153 C125 0.929 . S
H154 C127 0.931 . S
H155 C128 0.930 . S
H156 C133 0.929 . S
H157 C134 0.929 . S
H158 C136 0.931 . S
H159 C137 0.930 . S
Pr160 C162 2.880 . S
Pr160 O180 2.562 . S
Pr160 O181 2.490 . S
Pr160 O182 2.695 . S
Pr160 O183 2.512 . S
Pr160 O185 2.437 . S
Pr160 O188 2.436 . S
Pr160 O190 2.438 . S
Pr161 C171 2.880 1_565 S
Pr161 O182 2.436 . S
Pr161 O184 2.438 . S
Pr161 O186 2.562 1_565 S
Pr161 O187 2.490 1_565 S
Pr161 O188 2.695 . S
Pr161 O189 2.512 . S
Pr161 O191 2.437 . S
C162 Pr160 2.880 . S
C162 C163 1.491 . S
C162 O180 1.254 . S
C162 O181 1.225 . S
C163 C162 1.491 . S
C163 C164 1.392 . S
C163 C168 1.356 . S
C164 C163 1.392 . S
C164 C165 1.368 . S
C164 H192 0.929 . S
C165 C164 1.368 . S
C165 C166 1.386 . S
C165 H193 0.929 . S
C166 C165 1.386 . S
C166 C167 1.373 . S
C167 C166 1.373 . S
C167 C168 1.409 . S
C167 H194 0.931 . S
C168 C163 1.356 . S
C168 C167 1.409 . S
C168 H195 0.930 . S
C169 O182 1.270 . S
C169 O183 1.248 . S
C170 O184 1.267 . S
C170 O185 1.278 . S
C171 Pr161 2.880 1_545 S
C171 C172 1.491 . S
C171 O186 1.254 . S
C171 O187 1.225 . S
C172 C171 1.491 . S
C172 C173 1.392 . S
C172 C177 1.356 . S
C173 C172 1.392 . S
C173 C174 1.368 . S
C173 H196 0.929 . S
C174 C173 1.368 . S
C174 C175 1.386 . S
C174 H197 0.929 . S
C175 C174 1.386 . S
C175 C176 1.373 . S
C176 C175 1.373 . S
C176 C177 1.409 . S
C176 H198 0.931 . S
C177 C172 1.356 . S
C177 C176 1.409 . S
C177 H199 0.930 . S
C178 O188 1.270 . S
C178 O189 1.248 . S
C179 O190 1.267 . S
C179 O191 1.278 . S
O180 Pr160 2.562 . S
O180 C162 1.254 . S
O181 Pr160 2.490 . S
O181 C162 1.225 . S
O182 Pr160 2.695 . S
O182 Pr161 2.436 . S
O182 C169 1.270 . S
O183 Pr160 2.512 . S
O183 C169 1.248 . S
O184 Pr161 2.438 . S
O184 C170 1.267 . S
O185 Pr160 2.437 . S
O185 C170 1.278 . S
O186 Pr161 2.562 1_545 S
O186 C171 1.254 . S
O187 Pr161 2.490 1_545 S
O187 C171 1.225 . S
O188 Pr160 2.436 . S
O188 Pr161 2.695 . S
O188 C178 1.270 . S
O189 Pr161 2.512 . S
O189 C178 1.248 . S
O190 Pr160 2.438 . S
O190 C179 1.267 . S
O191 Pr161 2.437 . S
O191 C179 1.278 . S
H192 C164 0.929 . S
H193 C165 0.929 . S
H194 C167 0.931 . S
H195 C168 0.930 . S
H196 C173 0.929 . S
H197 C174 0.929 . S
H198 C176 0.931 . S
H199 C177 0.930 . S
Pr200 C202 2.880 . S
Pr200 O220 2.562 . S
Pr200 O221 2.490 . S
Pr200 O222 2.695 . S
Pr200 O223 2.512 . S
Pr200 O225 2.437 . S
Pr200 O228 2.436 . S
Pr200 O230 2.438 . S
Pr201 C211 2.880 1_545 S
Pr201 O222 2.436 . S
Pr201 O224 2.438 . S
Pr201 O226 2.562 1_545 S
Pr201 O227 2.490 1_545 S
Pr201 O228 2.695 . S
Pr201 O229 2.512 . S
Pr201 O231 2.437 . S
C202 Pr200 2.880 . S
C202 C203 1.491 . S
C202 O220 1.254 . S
C202 O221 1.225 . S
C203 C202 1.491 . S
C203 C204 1.392 . S
C203 C208 1.356 . S
C204 C203 1.392 . S
C204 C205 1.368 . S
C204 H232 0.929 . S
C205 C204 1.368 . S
C205 C206 1.386 . S
C205 H233 0.929 . S
C206 C205 1.386 . S
C206 C207 1.373 . S
C207 C206 1.373 . S
C207 C208 1.409 . S
C207 H234 0.931 . S
C208 C203 1.356 . S
C208 C207 1.409 . S
C208 H235 0.930 . S
C209 O222 1.270 . S
C209 O223 1.248 . S
C210 O224 1.267 . S
C210 O225 1.278 . S
C211 Pr201 2.880 1_565 S
C211 C212 1.491 . S
C211 O226 1.254 . S
C211 O227 1.225 . S
C212 C211 1.491 . S
C212 C213 1.392 . S
C212 C217 1.356 . S
C213 C212 1.392 . S
C213 C214 1.368 . S
C213 H236 0.929 . S
C214 C213 1.368 . S
C214 C215 1.386 . S
C214 H237 0.929 . S
C215 C214 1.386 . S
C215 C216 1.373 . S
C216 C215 1.373 . S
C216 C217 1.409 . S
C216 H238 0.931 . S
C217 C212 1.356 . S
C217 C216 1.409 . S
C217 H239 0.930 . S
C218 O228 1.270 . S
C218 O229 1.248 . S
C219 O230 1.267 . S
C219 O231 1.278 . S
O220 Pr200 2.562 . S
O220 C202 1.254 . S
O221 Pr200 2.490 . S
O221 C202 1.225 . S
O222 Pr200 2.695 . S
O222 Pr201 2.436 . S
O222 C209 1.270 . S
O223 Pr200 2.512 . S
O223 C209 1.248 . S
O224 Pr201 2.438 . S
O224 C210 1.267 . S
O225 Pr200 2.437 . S
O225 C210 1.278 . S
O226 Pr201 2.562 1_565 S
O226 C211 1.254 . S
O227 Pr201 2.490 1_565 S
O227 C211 1.225 . S
O228 Pr200 2.436 . S
O228 Pr201 2.695 . S
O228 C218 1.270 . S
O229 Pr201 2.512 . S
O229 C218 1.248 . S
O230 Pr200 2.438 . S
O230 C219 1.267 . S
O231 Pr201 2.437 . S
O231 C219 1.278 . S
H232 C204 0.929 . S
H233 C205 0.929 . S
H234 C207 0.931 . S
H235 C208 0.930 . S
H236 C213 0.929 . S
H237 C214 0.929 . S
H238 C216 0.931 . S
H239 C217 0.930 . S
Pr240 C242 2.880 . S
Pr240 O260 2.562 . S
Pr240 O261 2.490 . S
Pr240 O262 2.695 . S
Pr240 O263 2.512 . S
Pr240 O265 2.437 . S
Pr240 O268 2.436 . S
Pr240 O270 2.438 . S
Pr241 C251 2.880 1_545 S
Pr241 O262 2.436 . S
Pr241 O264 2.438 . S
Pr241 O266 2.562 1_545 S
Pr241 O267 2.490 1_545 S
Pr241 O268 2.695 . S
Pr241 O269 2.512 . S
Pr241 O271 2.437 . S
C242 Pr240 2.880 . S
C242 C243 1.491 . S
C242 O260 1.254 . S
C242 O261 1.225 . S
C243 C242 1.491 . S
C243 C244 1.392 . S
C243 C248 1.356 . S
C244 C243 1.392 . S
C244 C245 1.368 . S
C244 H272 0.929 . S
C245 C244 1.368 . S
C245 C246 1.386 . S
C245 H273 0.929 . S
C246 C245 1.386 . S
C246 C247 1.373 . S
C247 C246 1.373 . S
C247 C248 1.409 . S
C247 H274 0.931 . S
C248 C243 1.356 . S
C248 C247 1.409 . S
C248 H275 0.930 . S
C249 O262 1.270 . S
C249 O263 1.248 . S
C250 O264 1.267 . S
C250 O265 1.278 . S
C251 Pr241 2.880 1_565 S
C251 C252 1.491 . S
C251 O266 1.254 . S
C251 O267 1.225 . S
C252 C251 1.491 . S
C252 C253 1.392 . S
C252 C257 1.356 . S
C253 C252 1.392 . S
C253 C254 1.368 . S
C253 H276 0.929 . S
C254 C253 1.368 . S
C254 C255 1.386 . S
C254 H277 0.929 . S
C255 C254 1.386 . S
C255 C256 1.373 . S
C256 C255 1.373 . S
C256 C257 1.409 . S
C256 H278 0.931 . S
C257 C252 1.356 . S
C257 C256 1.409 . S
C257 H279 0.930 . S
C258 O268 1.270 . S
C258 O269 1.248 . S
C259 O270 1.267 . S
C259 O271 1.278 . S
O260 Pr240 2.562 . S
O260 C242 1.254 . S
O261 Pr240 2.490 . S
O261 C242 1.225 . S
O262 Pr240 2.695 . S
O262 Pr241 2.436 . S
O262 C249 1.270 . S
O263 Pr240 2.512 . S
O263 C249 1.248 . S
O264 Pr241 2.438 . S
O264 C250 1.267 . S
O265 Pr240 2.437 . S
O265 C250 1.278 . S
O266 Pr241 2.562 1_565 S
O266 C251 1.254 . S
O267 Pr241 2.490 1_565 S
O267 C251 1.225 . S
O268 Pr240 2.436 . S
O268 Pr241 2.695 . S
O268 C258 1.270 . S
O269 Pr241 2.512 . S
O269 C258 1.248 . S
O270 Pr240 2.438 . S
O270 C259 1.267 . S
O271 Pr241 2.437 . S
O271 C259 1.278 . S
H272 C244 0.929 . S
H273 C245 0.929 . S
H274 C247 0.931 . S
H275 C248 0.930 . S
H276 C253 0.929 . S
H277 C254 0.929 . S
H278 C256 0.931 . S
H279 C257 0.930 . S
Pr280 C282 2.880 . S
Pr280 O300 2.562 . S
Pr280 O301 2.490 . S
Pr280 O302 2.695 . S
Pr280 O303 2.512 . S
Pr280 O305 2.437 . S
Pr280 O308 2.436 . S
Pr280 O310 2.438 . S
Pr281 C291 2.880 1_565 S
Pr281 O302 2.436 . S
Pr281 O304 2.438 . S
Pr281 O306 2.562 1_565 S
Pr281 O307 2.490 1_565 S
Pr281 O308 2.695 . S
Pr281 O309 2.512 . S
Pr281 O311 2.437 . S
C282 Pr280 2.880 . S
C282 C283 1.491 . S
C282 O300 1.254 . S
C282 O301 1.225 . S
C283 C282 1.491 . S
C283 C284 1.392 . S
C283 C288 1.356 . S
C284 C283 1.392 . S
C284 C285 1.368 . S
C284 H312 0.929 . S
C285 C284 1.368 . S
C285 C286 1.386 . S
C285 H313 0.929 . S
C286 C285 1.386 . S
C286 C287 1.373 . S
C287 C286 1.373 . S
C287 C288 1.409 . S
C287 H314 0.931 . S
C288 C283 1.356 . S
C288 C287 1.409 . S
C288 H315 0.930 . S
C289 O302 1.270 . S
C289 O303 1.248 . S
C290 O304 1.267 . S
C290 O305 1.278 . S
C291 Pr281 2.880 1_545 S
C291 C292 1.491 . S
C291 O306 1.254 . S
C291 O307 1.225 . S
C292 C291 1.491 . S
C292 C293 1.392 . S
C292 C297 1.356 . S
C293 C292 1.392 . S
C293 C294 1.368 . S
C293 H316 0.929 . S
C294 C293 1.368 . S
C294 C295 1.386 . S
C294 H317 0.929 . S
C295 C294 1.386 . S
C295 C296 1.373 . S
C296 C295 1.373 . S
C296 C297 1.409 . S
C296 H318 0.931 . S
C297 C292 1.356 . S
C297 C296 1.409 . S
C297 H319 0.930 . S
C298 O308 1.270 . S
C298 O309 1.248 . S
C299 O310 1.267 . S
C299 O311 1.278 . S
O300 Pr280 2.562 . S
O300 C282 1.254 . S
O301 Pr280 2.490 . S
O301 C282 1.225 . S
O302 Pr280 2.695 . S
O302 Pr281 2.436 . S
O302 C289 1.270 . S
O303 Pr280 2.512 . S
O303 C289 1.248 . S
O304 Pr281 2.438 . S
O304 C290 1.267 . S
O305 Pr280 2.437 . S
O305 C290 1.278 . S
O306 Pr281 2.562 1_545 S
O306 C291 1.254 . S
O307 Pr281 2.490 1_545 S
O307 C291 1.225 . S
O308 Pr280 2.436 . S
O308 Pr281 2.695 . S
O308 C298 1.270 . S
O309 Pr281 2.512 . S
O309 C298 1.248 . S
O310 Pr280 2.438 . S
O310 C299 1.267 . S
O311 Pr281 2.437 . S
O311 C299 1.278 . S
H312 C284 0.929 . S
H313 C285 0.929 . S
H314 C287 0.931 . S
H315 C288 0.930 . S
H316 C293 0.929 . S
H317 C294 0.929 . S
H318 C296 0.931 . S
H319 C297 0.930 . S
Pr320 C322 2.880 . S
Pr320 O340 2.562 . S
Pr320 O341 2.490 . S
Pr320 O342 2.695 . S
Pr320 O343 2.512 . S
Pr320 O345 2.437 . S
Pr320 O348 2.436 . S
Pr320 O350 2.438 . S
Pr321 C331 2.880 . S
Pr321 O342 2.436 . S
Pr321 O344 2.438 . S
Pr321 O346 2.562 . S
Pr321 O347 2.490 . S
Pr321 O348 2.695 . S
Pr321 O349 2.512 . S
Pr321 O351 2.437 . S
C322 Pr320 2.880 . S
C322 C323 1.491 . S
C322 O340 1.254 . S
C322 O341 1.225 . S
C323 C322 1.491 . S
C323 C324 1.392 . S
C323 C328 1.356 . S
C324 C323 1.392 . S
C324 C325 1.368 . S
C324 H352 0.929 . S
C325 C324 1.368 . S
C325 C326 1.386 . S
C325 H353 0.929 . S
C326 C325 1.386 . S
C326 C327 1.373 . S
C327 C326 1.373 . S
C327 C328 1.409 . S
C327 H354 0.931 . S
C328 C323 1.356 . S
C328 C327 1.409 . S
C328 H355 0.930 . S
C329 O342 1.270 . S
C329 O343 1.248 . S
C330 O344 1.267 . S
C330 O345 1.278 . S
C331 Pr321 2.880 . S
C331 C332 1.491 . S
C331 O346 1.254 . S
C331 O347 1.225 . S
C332 C331 1.491 . S
C332 C333 1.392 . S
C332 C337 1.356 . S
C333 C332 1.392 . S
C333 C334 1.368 . S
C333 H356 0.929 . S
C334 C333 1.368 . S
C334 C335 1.386 . S
C334 H357 0.929 . S
C335 C334 1.386 . S
C335 C336 1.373 . S
C336 C335 1.373 . S
C336 C337 1.409 . S
C336 H358 0.931 . S
C337 C332 1.356 . S
C337 C336 1.409 . S
C337 H359 0.930 . S
C338 O348 1.270 . S
C338 O349 1.248 . S
C339 O350 1.267 . S
C339 O351 1.278 . S
O340 Pr320 2.562 . S
O340 C322 1.254 . S
O341 Pr320 2.490 . S
O341 C322 1.225 . S
O342 Pr320 2.695 . S
O342 Pr321 2.436 . S
O342 C329 1.270 . S
O343 Pr320 2.512 . S
O343 C329 1.248 . S
O344 Pr321 2.438 . S
O344 C330 1.267 . S
O345 Pr320 2.437 . S
O345 C330 1.278 . S
O346 Pr321 2.562 . S
O346 C331 1.254 . S
O347 Pr321 2.490 . S
O347 C331 1.225 . S
O348 Pr320 2.436 . S
O348 Pr321 2.695 . S
O348 C338 1.270 . S
O349 Pr321 2.512 . S
O349 C338 1.248 . S
O350 Pr320 2.438 . S
O350 C339 1.267 . S
O351 Pr321 2.437 . S
O351 C339 1.278 . S
H352 C324 0.929 . S
H353 C325 0.929 . S
H354 C327 0.931 . S
H355 C328 0.930 . S
H356 C333 0.929 . S
H357 C334 0.929 . S
H358 C336 0.931 . S
H359 C337 0.930 . S
Pr360 C362 2.880 . S
Pr360 O380 2.562 . S
Pr360 O381 2.490 . S
Pr360 O382 2.695 . S
Pr360 O383 2.512 . S
Pr360 O385 2.437 . S
Pr360 O388 2.436 . S
Pr360 O390 2.438 . S
Pr361 C371 2.880 . S
Pr361 O382 2.436 . S
Pr361 O384 2.438 . S
Pr361 O386 2.562 . S
Pr361 O387 2.490 . S
Pr361 O388 2.695 . S
Pr361 O389 2.512 . S
Pr361 O391 2.437 . S
C362 Pr360 2.880 . S
C362 C363 1.491 . S
C362 O380 1.254 . S
C362 O381 1.225 . S
C363 C362 1.491 . S
C363 C364 1.392 . S
C363 C368 1.356 . S
C364 C363 1.392 . S
C364 C365 1.368 . S
C364 H392 0.929 . S
C365 C364 1.368 . S
C365 C366 1.386 . S
C365 H393 0.929 . S
C366 C365 1.386 . S
C366 C367 1.373 . S
C367 C366 1.373 . S
C367 C368 1.409 . S
C367 H394 0.931 . S
C368 C363 1.356 . S
C368 C367 1.409 . S
C368 H395 0.930 . S
C369 O382 1.270 . S
C369 O383 1.248 . S
C370 O384 1.267 . S
C370 O385 1.278 . S
C371 Pr361 2.880 . S
C371 C372 1.491 . S
C371 O386 1.254 . S
C371 O387 1.225 . S
C372 C371 1.491 . S
C372 C373 1.392 . S
C372 C377 1.356 . S
C373 C372 1.392 . S
C373 C374 1.368 . S
C373 H396 0.929 . S
C374 C373 1.368 . S
C374 C375 1.386 . S
C374 H397 0.929 . S
C375 C374 1.386 . S
C375 C376 1.373 . S
C376 C375 1.373 . S
C376 C377 1.409 . S
C376 H398 0.931 . S
C377 C372 1.356 . S
C377 C376 1.409 . S
C377 H399 0.930 . S
C378 O388 1.270 . S
C378 O389 1.248 . S
C379 O390 1.267 . S
C379 O391 1.278 . S
O380 Pr360 2.562 . S
O380 C362 1.254 . S
O381 Pr360 2.490 . S
O381 C362 1.225 . S
O382 Pr360 2.695 . S
O382 Pr361 2.436 . S
O382 C369 1.270 . S
O383 Pr360 2.512 . S
O383 C369 1.248 . S
O384 Pr361 2.438 . S
O384 C370 1.267 . S
O385 Pr360 2.437 . S
O385 C370 1.278 . S
O386 Pr361 2.562 . S
O386 C371 1.254 . S
O387 Pr361 2.490 . S
O387 C371 1.225 . S
O388 Pr360 2.436 . S
O388 Pr361 2.695 . S
O388 C378 1.270 . S
O389 Pr361 2.512 . S
O389 C378 1.248 . S
O390 Pr360 2.438 . S
O390 C379 1.267 . S
O391 Pr361 2.437 . S
O391 C379 1.278 . S
H392 C364 0.929 . S
H393 C365 0.929 . S
H394 C367 0.931 . S
H395 C368 0.930 . S
H396 C373 0.929 . S
H397 C374 0.929 . S
H398 C376 0.931 . S
H399 C377 0.930 . S
Pr400 C402 2.880 . S
Pr400 O420 2.562 . S
Pr400 O421 2.490 . S
Pr400 O422 2.695 . S
Pr400 O423 2.512 . S
Pr400 O425 2.437 . S
Pr400 O428 2.436 . S
Pr400 O430 2.438 . S
Pr401 C411 2.880 . S
Pr401 O422 2.436 . S
Pr401 O424 2.438 . S
Pr401 O426 2.562 . S
Pr401 O427 2.490 . S
Pr401 O428 2.695 . S
Pr401 O429 2.512 . S
Pr401 O431 2.437 . S
C402 Pr400 2.880 . S
C402 C403 1.491 . S
C402 O420 1.254 . S
C402 O421 1.225 . S
C403 C402 1.491 . S
C403 C404 1.392 . S
C403 C408 1.356 . S
C404 C403 1.392 . S
C404 C405 1.368 . S
C404 H432 0.929 . S
C405 C404 1.368 . S
C405 C406 1.386 . S
C405 H433 0.929 . S
C406 C405 1.386 . S
C406 C407 1.373 . S
C407 C406 1.373 . S
C407 C408 1.409 . S
C407 H434 0.931 . S
C408 C403 1.356 . S
C408 C407 1.409 . S
C408 H435 0.930 . S
C409 O422 1.270 . S
C409 O423 1.248 . S
C410 O424 1.267 . S
C410 O425 1.278 . S
C411 Pr401 2.880 . S
C411 C412 1.491 . S
C411 O426 1.254 . S
C411 O427 1.225 . S
C412 C411 1.491 . S
C412 C413 1.392 . S
C412 C417 1.356 . S
C413 C412 1.392 . S
C413 C414 1.368 . S
C413 H436 0.929 . S
C414 C413 1.368 . S
C414 C415 1.386 . S
C414 H437 0.929 . S
C415 C414 1.386 . S
C415 C416 1.373 . S
C416 C415 1.373 . S
C416 C417 1.409 . S
C416 H438 0.931 . S
C417 C412 1.356 . S
C417 C416 1.409 . S
C417 H439 0.930 . S
C418 O428 1.270 . S
C418 O429 1.248 . S
C419 O430 1.267 . S
C419 O431 1.278 . S
O420 Pr400 2.562 . S
O420 C402 1.254 . S
O421 Pr400 2.490 . S
O421 C402 1.225 . S
O422 Pr400 2.695 . S
O422 Pr401 2.436 . S
O422 C409 1.270 . S
O423 Pr400 2.512 . S
O423 C409 1.248 . S
O424 Pr401 2.438 . S
O424 C410 1.267 . S
O425 Pr400 2.437 . S
O425 C410 1.278 . S
O426 Pr401 2.562 . S
O426 C411 1.254 . S
O427 Pr401 2.490 . S
O427 C411 1.225 . S
O428 Pr400 2.436 . S
O428 Pr401 2.695 . S
O428 C418 1.270 . S
O429 Pr401 2.512 . S
O429 C418 1.248 . S
O430 Pr400 2.438 . S
O430 C419 1.267 . S
O431 Pr401 2.437 . S
O431 C419 1.278 . S
H432 C404 0.929 . S
H433 C405 0.929 . S
H434 C407 0.931 . S
H435 C408 0.930 . S
H436 C413 0.929 . S
H437 C414 0.929 . S
H438 C416 0.931 . S
H439 C417 0.930 . S
Pr440 C442 2.880 . S
Pr440 O460 2.562 . S
Pr440 O461 2.490 . S
Pr440 O462 2.695 . S
Pr440 O463 2.512 . S
Pr440 O465 2.437 . S
Pr440 O468 2.436 . S
Pr440 O470 2.438 . S
Pr441 C451 2.880 . S
Pr441 O462 2.436 . S
Pr441 O464 2.438 . S
Pr441 O466 2.562 . S
Pr441 O467 2.490 . S
Pr441 O468 2.695 . S
Pr441 O469 2.512 . S
Pr441 O471 2.437 . S
C442 Pr440 2.880 . S
C442 C443 1.491 . S
C442 O460 1.254 . S
C442 O461 1.225 . S
C443 C442 1.491 . S
C443 C444 1.392 . S
C443 C448 1.356 . S
C444 C443 1.392 . S
C444 C445 1.368 . S
C444 H472 0.929 . S
C445 C444 1.368 . S
C445 C446 1.386 . S
C445 H473 0.929 . S
C446 C445 1.386 . S
C446 C447 1.373 . S
C447 C446 1.373 . S
C447 C448 1.409 . S
C447 H474 0.931 . S
C448 C443 1.356 . S
C448 C447 1.409 . S
C448 H475 0.930 . S
C449 O462 1.270 . S
C449 O463 1.248 . S
C450 O464 1.267 . S
C450 O465 1.278 . S
C451 Pr441 2.880 . S
C451 C452 1.491 . S
C451 O466 1.254 . S
C451 O467 1.225 . S
C452 C451 1.491 . S
C452 C453 1.392 . S
C452 C457 1.356 . S
C453 C452 1.392 . S
C453 C454 1.368 . S
C453 H476 0.929 . S
C454 C453 1.368 . S
C454 C455 1.386 . S
C454 H477 0.929 . S
C455 C454 1.386 . S
C455 C456 1.373 . S
C456 C455 1.373 . S
C456 C457 1.409 . S
C456 H478 0.931 . S
C457 C452 1.356 . S
C457 C456 1.409 . S
C457 H479 0.930 . S
C458 O468 1.270 . S
C458 O469 1.248 . S
C459 O470 1.267 . S
C459 O471 1.278 . S
O460 Pr440 2.562 . S
O460 C442 1.254 . S
O461 Pr440 2.490 . S
O461 C442 1.225 . S
O462 Pr440 2.695 . S
O462 Pr441 2.436 . S
O462 C449 1.270 . S
O463 Pr440 2.512 . S
O463 C449 1.248 . S
O464 Pr441 2.438 . S
O464 C450 1.267 . S
O465 Pr440 2.437 . S
O465 C450 1.278 . S
O466 Pr441 2.562 . S
O466 C451 1.254 . S
O467 Pr441 2.490 . S
O467 C451 1.225 . S
O468 Pr440 2.436 . S
O468 Pr441 2.695 . S
O468 C458 1.270 . S
O469 Pr441 2.512 . S
O469 C458 1.248 . S
O470 Pr440 2.438 . S
O470 C459 1.267 . S
O471 Pr441 2.437 . S
O471 C459 1.278 . S
H472 C444 0.929 . S
H473 C445 0.929 . S
H474 C447 0.931 . S
H475 C448 0.930 . S
H476 C453 0.929 . S
H477 C454 0.929 . S
H478 C456 0.931 . S
H479 C457 0.930 . S
Pr480 C482 2.880 . S
Pr480 O500 2.562 . S
Pr480 O501 2.490 . S
Pr480 O502 2.695 . S
Pr480 O503 2.512 . S
Pr480 O505 2.437 . S
Pr480 O508 2.436 . S
Pr480 O510 2.438 . S
Pr481 C491 2.880 . S
Pr481 O502 2.436 . S
Pr481 O504 2.438 . S
Pr481 O506 2.562 . S
Pr481 O507 2.490 . S
Pr481 O508 2.695 . S
Pr481 O509 2.512 . S
Pr481 O511 2.437 . S
C482 Pr480 2.880 . S
C482 C483 1.491 . S
C482 O500 1.254 . S
C482 O501 1.225 . S
C483 C482 1.491 . S
C483 C484 1.392 . S
C483 C488 1.356 . S
C484 C483 1.392 . S
C484 C485 1.368 . S
C484 H512 0.929 . S
C485 C484 1.368 . S
C485 C486 1.386 . S
C485 H513 0.929 . S
C486 C485 1.386 . S
C486 C487 1.373 . S
C487 C486 1.373 . S
C487 C488 1.409 . S
C487 H514 0.931 . S
C488 C483 1.356 . S
C488 C487 1.409 . S
C488 H515 0.930 . S
C489 O502 1.270 . S
C489 O503 1.248 . S
C490 O504 1.267 . S
C490 O505 1.278 . S
C491 Pr481 2.880 . S
C491 C492 1.491 . S
C491 O506 1.254 . S
C491 O507 1.225 . S
C492 C491 1.491 . S
C492 C493 1.392 . S
C492 C497 1.356 . S
C493 C492 1.392 . S
C493 C494 1.368 . S
C493 H516 0.929 . S
C494 C493 1.368 . S
C494 C495 1.386 . S
C494 H517 0.929 . S
C495 C494 1.386 . S
C495 C496 1.373 . S
C496 C495 1.373 . S
C496 C497 1.409 . S
C496 H518 0.931 . S
C497 C492 1.356 . S
C497 C496 1.409 . S
C497 H519 0.930 . S
C498 O508 1.270 . S
C498 O509 1.248 . S
C499 O510 1.267 . S
C499 O511 1.278 . S
O500 Pr480 2.562 . S
O500 C482 1.254 . S
O501 Pr480 2.490 . S
O501 C482 1.225 . S
O502 Pr480 2.695 . S
O502 Pr481 2.436 . S
O502 C489 1.270 . S
O503 Pr480 2.512 . S
O503 C489 1.248 . S
O504 Pr481 2.438 . S
O504 C490 1.267 . S
O505 Pr480 2.437 . S
O505 C490 1.278 . S
O506 Pr481 2.562 . S
O506 C491 1.254 . S
O507 Pr481 2.490 . S
O507 C491 1.225 . S
O508 Pr480 2.436 . S
O508 Pr481 2.695 . S
O508 C498 1.270 . S
O509 Pr481 2.512 . S
O509 C498 1.248 . S
O510 Pr480 2.438 . S
O510 C499 1.267 . S
O511 Pr481 2.437 . S
O511 C499 1.278 . S
H512 C484 0.929 . S
H513 C485 0.929 . S
H514 C487 0.931 . S
H515 C488 0.930 . S
H516 C493 0.929 . S
H517 C494 0.929 . S
H518 C496 0.931 . S
H519 C497 0.930 . S
Pr520 C522 2.880 . S
Pr520 O540 2.562 . S
Pr520 O541 2.490 . S
Pr520 O542 2.695 . S
Pr520 O543 2.512 . S
Pr520 O545 2.437 . S
Pr520 O548 2.436 . S
Pr520 O550 2.438 . S
Pr521 C531 2.880 . S
Pr521 O542 2.436 . S
Pr521 O544 2.438 . S
Pr521 O546 2.562 . S
Pr521 O547 2.490 . S
Pr521 O548 2.695 . S
Pr521 O549 2.512 . S
Pr521 O551 2.437 . S
C522 Pr520 2.880 . S
C522 C523 1.491 . S
C522 O540 1.254 . S
C522 O541 1.225 . S
C523 C522 1.491 . S
C523 C524 1.392 . S
C523 C528 1.356 . S
C524 C523 1.392 . S
C524 C525 1.368 . S
C524 H552 0.929 . S
C525 C524 1.368 . S
C525 C526 1.386 . S
C525 H553 0.929 . S
C526 C525 1.386 . S
C526 C527 1.373 . S
C527 C526 1.373 . S
C527 C528 1.409 . S
C527 H554 0.931 . S
C528 C523 1.356 . S
C528 C527 1.409 . S
C528 H555 0.930 . S
C529 O542 1.270 . S
C529 O543 1.248 . S
C530 O544 1.267 . S
C530 O545 1.278 . S
C531 Pr521 2.880 . S
C531 C532 1.491 . S
C531 O546 1.254 . S
C531 O547 1.225 . S
C532 C531 1.491 . S
C532 C533 1.392 . S
C532 C537 1.356 . S
C533 C532 1.392 . S
C533 C534 1.368 . S
C533 H556 0.929 . S
C534 C533 1.368 . S
C534 C535 1.386 . S
C534 H557 0.929 . S
C535 C534 1.386 . S
C535 C536 1.373 . S
C536 C535 1.373 . S
C536 C537 1.409 . S
C536 H558 0.931 . S
C537 C532 1.356 . S
C537 C536 1.409 . S
C537 H559 0.930 . S
C538 O548 1.270 . S
C538 O549 1.248 . S
C539 O550 1.267 . S
C539 O551 1.278 . S
O540 Pr520 2.562 . S
O540 C522 1.254 . S
O541 Pr520 2.490 . S
O541 C522 1.225 . S
O542 Pr520 2.695 . S
O542 Pr521 2.436 . S
O542 C529 1.270 . S
O543 Pr520 2.512 . S
O543 C529 1.248 . S
O544 Pr521 2.438 . S
O544 C530 1.267 . S
O545 Pr520 2.437 . S
O545 C530 1.278 . S
O546 Pr521 2.562 . S
O546 C531 1.254 . S
O547 Pr521 2.490 . S
O547 C531 1.225 . S
O548 Pr520 2.436 . S
O548 Pr521 2.695 . S
O548 C538 1.270 . S
O549 Pr521 2.512 . S
O549 C538 1.248 . S
O550 Pr520 2.438 . S
O550 C539 1.267 . S
O551 Pr521 2.437 . S
O551 C539 1.278 . S
H552 C524 0.929 . S
H553 C525 0.929 . S
H554 C527 0.931 . S
H555 C528 0.930 . S
H556 C533 0.929 . S
H557 C534 0.929 . S
H558 C536 0.931 . S
H559 C537 0.930 . S
Pr560 C562 2.880 . S
Pr560 O580 2.562 . S
Pr560 O581 2.490 . S
Pr560 O582 2.695 . S
Pr560 O583 2.512 . S
Pr560 O585 2.437 . S
Pr560 O588 2.436 . S
Pr560 O590 2.438 . S
Pr561 C571 2.880 . S
Pr561 O582 2.436 . S
Pr561 O584 2.438 . S
Pr561 O586 2.562 . S
Pr561 O587 2.490 . S
Pr561 O588 2.695 . S
Pr561 O589 2.512 . S
Pr561 O591 2.437 . S
C562 Pr560 2.880 . S
C562 C563 1.491 . S
C562 O580 1.254 . S
C562 O581 1.225 . S
C563 C562 1.491 . S
C563 C564 1.392 . S
C563 C568 1.356 . S
C564 C563 1.392 . S
C564 C565 1.368 . S
C564 H592 0.929 . S
C565 C564 1.368 . S
C565 C566 1.386 . S
C565 H593 0.929 . S
C566 C565 1.386 . S
C566 C567 1.373 . S
C567 C566 1.373 . S
C567 C568 1.409 . S
C567 H594 0.931 . S
C568 C563 1.356 . S
C568 C567 1.409 . S
C568 H595 0.930 . S
C569 O582 1.270 . S
C569 O583 1.248 . S
C570 O584 1.267 . S
C570 O585 1.278 . S
C571 Pr561 2.880 . S
C571 C572 1.491 . S
C571 O586 1.254 . S
C571 O587 1.225 . S
C572 C571 1.491 . S
C572 C573 1.392 . S
C572 C577 1.356 . S
C573 C572 1.392 . S
C573 C574 1.368 . S
C573 H596 0.929 . S
C574 C573 1.368 . S
C574 C575 1.386 . S
C574 H597 0.929 . S
C575 C574 1.386 . S
C575 C576 1.373 . S
C576 C575 1.373 . S
C576 C577 1.409 . S
C576 H598 0.931 . S
C577 C572 1.356 . S
C577 C576 1.409 . S
C577 H599 0.930 . S
C578 O588 1.270 . S
C578 O589 1.248 . S
C579 O590 1.267 . S
C579 O591 1.278 . S
O580 Pr560 2.562 . S
O580 C562 1.254 . S
O581 Pr560 2.490 . S
O581 C562 1.225 . S
O582 Pr560 2.695 . S
O582 Pr561 2.436 . S
O582 C569 1.270 . S
O583 Pr560 2.512 . S
O583 C569 1.248 . S
O584 Pr561 2.438 . S
O584 C570 1.267 . S
O585 Pr560 2.437 . S
O585 C570 1.278 . S
O586 Pr561 2.562 . S
O586 C571 1.254 . S
O587 Pr561 2.490 . S
O587 C571 1.225 . S
O588 Pr560 2.436 . S
O588 Pr561 2.695 . S
O588 C578 1.270 . S
O589 Pr561 2.512 . S
O589 C578 1.248 . S
O590 Pr560 2.438 . S
O590 C579 1.267 . S
O591 Pr561 2.437 . S
O591 C579 1.278 . S
H592 C564 0.929 . S
H593 C565 0.929 . S
H594 C567 0.931 . S
H595 C568 0.930 . S
H596 C573 0.929 . S
H597 C574 0.929 . S
H598 C576 0.931 . S
H599 C577 0.930 . S
Pr600 C602 2.880 . S
Pr600 O620 2.562 . S
Pr600 O621 2.490 . S
Pr600 O622 2.695 . S
Pr600 O623 2.512 . S
Pr600 O625 2.437 . S
Pr600 O628 2.436 . S
Pr600 O630 2.438 . S
Pr601 C611 2.880 . S
Pr601 O622 2.436 . S
Pr601 O624 2.438 . S
Pr601 O626 2.562 . S
Pr601 O627 2.490 . S
Pr601 O628 2.695 . S
Pr601 O629 2.512 . S
Pr601 O631 2.437 . S
C602 Pr600 2.880 . S
C602 C603 1.491 . S
C602 O620 1.254 . S
C602 O621 1.225 . S
C603 C602 1.491 . S
C603 C604 1.392 . S
C603 C608 1.356 . S
C604 C603 1.392 . S
C604 C605 1.368 . S
C604 H632 0.929 . S
C605 C604 1.368 . S
C605 C606 1.386 . S
C605 H633 0.929 . S
C606 C605 1.386 . S
C606 C607 1.373 . S
C607 C606 1.373 . S
C607 C608 1.409 . S
C607 H634 0.931 . S
C608 C603 1.356 . S
C608 C607 1.409 . S
C608 H635 0.930 . S
C609 O622 1.270 . S
C609 O623 1.248 . S
C610 O624 1.267 . S
C610 O625 1.278 . S
C611 Pr601 2.880 . S
C611 C612 1.491 . S
C611 O626 1.254 . S
C611 O627 1.225 . S
C612 C611 1.491 . S
C612 C613 1.392 . S
C612 C617 1.356 . S
C613 C612 1.392 . S
C613 C614 1.368 . S
C613 H636 0.929 . S
C614 C613 1.368 . S
C614 C615 1.386 . S
C614 H637 0.929 . S
C615 C614 1.386 . S
C615 C616 1.373 . S
C616 C615 1.373 . S
C616 C617 1.409 . S
C616 H638 0.931 . S
C617 C612 1.356 . S
C617 C616 1.409 . S
C617 H639 0.930 . S
C618 O628 1.270 . S
C618 O629 1.248 . S
C619 O630 1.267 . S
C619 O631 1.278 . S
O620 Pr600 2.562 . S
O620 C602 1.254 . S
O621 Pr600 2.490 . S
O621 C602 1.225 . S
O622 Pr600 2.695 . S
O622 Pr601 2.436 . S
O622 C609 1.270 . S
O623 Pr600 2.512 . S
O623 C609 1.248 . S
O624 Pr601 2.438 . S
O624 C610 1.267 . S
O625 Pr600 2.437 . S
O625 C610 1.278 . S
O626 Pr601 2.562 . S
O626 C611 1.254 . S
O627 Pr601 2.490 . S
O627 C611 1.225 . S
O628 Pr600 2.436 . S
O628 Pr601 2.695 . S
O628 C618 1.270 . S
O629 Pr601 2.512 . S
O629 C618 1.248 . S
O630 Pr600 2.438 . S
O630 C619 1.267 . S
O631 Pr601 2.437 . S
O631 C619 1.278 . S
H632 C604 0.929 . S
H633 C605 0.929 . S
H634 C607 0.931 . S
H635 C608 0.930 . S
H636 C613 0.929 . S
H637 C614 0.929 . S
H638 C616 0.931 . S
H639 C617 0.930 . S
H640 C652 0.930 . S
H641 C654 0.930 . S
H642 C655 0.930 . S
H643 C659 0.959 . S
H644 C659 0.959 . S
H645 C659 0.961 . S
H646 C660 0.960 . S
H647 C660 0.961 . S
H648 C660 0.959 . S
H649 C663 0.929 . S
H650 C664 0.931 . S
H651 C666 0.930 . S
C652 H640 0.930 . S
C652 C653 1.399 . S
C652 C657 1.399 . S
C653 C652 1.399 . S
C653 C654 1.376 . S
C654 H641 0.930 . S
C654 C653 1.376 . S
C654 C655 1.388 . S
C655 H642 0.930 . S
C655 C654 1.388 . S
C655 C656 1.390 . S
C656 C655 1.390 . S
C656 C657 1.394 . S
C656 C662 1.465 . S
C657 C652 1.399 . S
C657 C656 1.394 . S
C657 C658 1.516 . S
C658 C657 1.516 . S
C658 C659 1.502 . S
C658 C660 1.561 . S
C658 C661 1.526 . S
C659 H643 0.959 . S
C659 H644 0.959 . S
C659 H645 0.961 . S
C659 C658 1.502 . S
C660 H646 0.960 . S
C660 H647 0.961 . S
C660 H648 0.959 . S
C660 C658 1.561 . S
C661 C658 1.526 . S
C661 C662 1.396 . S
C661 C666 1.390 . S
C662 C656 1.465 . S
C662 C661 1.396 . S
C662 C663 1.399 . S
C663 H649 0.929 . S
C663 C662 1.399 . S
C663 C664 1.385 . S
C664 H650 0.931 . S
C664 C663 1.385 . S
C664 C665 1.389 . S
C665 C664 1.389 . S
C665 C666 1.387 . S
C666 H651 0.930 . S
C666 C661 1.390 . S
C666 C665 1.387 . S
H667 C679 0.930 . S
H668 C681 0.930 . S
H669 C682 0.930 . S
H670 C686 0.959 . S
H671 C686 0.959 . S
H672 C686 0.961 . S
H673 C687 0.960 . S
H674 C687 0.961 . S
H675 C687 0.959 . S
H676 C690 0.929 . S
H677 C691 0.931 . S
H678 C693 0.930 . S
C679 H667 0.930 . S
C679 C680 1.399 . S
C679 C684 1.399 . S
C680 C679 1.399 . S
C680 C681 1.376 . S
C681 H668 0.930 . S
C681 C680 1.376 . S
C681 C682 1.388 . S
C682 H669 0.930 . S
C682 C681 1.388 . S
C682 C683 1.390 . S
C683 C682 1.390 . S
C683 C684 1.394 . S
C683 C689 1.465 . S
C684 C679 1.399 . S
C684 C683 1.394 . S
C684 C685 1.516 . S
C685 C684 1.516 . S
C685 C686 1.502 . S
C685 C687 1.561 . S
C685 C688 1.526 . S
C686 H670 0.959 . S
C686 H671 0.959 . S
C686 H672 0.961 . S
C686 C685 1.502 . S
C687 H673 0.960 . S
C687 H674 0.961 . S
C687 H675 0.959 . S
C687 C685 1.561 . S
C688 C685 1.526 . S
C688 C689 1.396 . S
C688 C693 1.390 . S
C689 C683 1.465 . S
C689 C688 1.396 . S
C689 C690 1.399 . S
C690 H676 0.929 . S
C690 C689 1.399 . S
C690 C691 1.385 . S
C691 H677 0.931 . S
C691 C690 1.385 . S
C691 C692 1.389 . S
C692 C691 1.389 . S
C692 C693 1.387 . S
C693 H678 0.930 . S
C693 C688 1.390 . S
C693 C692 1.387 . S
H694 C706 0.930 . S
H695 C708 0.930 . S
H696 C709 0.930 . S
H697 C713 0.959 . S
H698 C713 0.959 . S
H699 C713 0.961 . S
H700 C714 0.960 . S
H701 C714 0.961 . S
H702 C714 0.959 . S
H703 C717 0.929 . S
H704 C718 0.931 . S
H705 C720 0.930 . S
C706 H694 0.930 . S
C706 C707 1.399 . S
C706 C711 1.399 . S
C707 C706 1.399 . S
C707 C708 1.376 . S
C708 H695 0.930 . S
C708 C707 1.376 . S
C708 C709 1.388 . S
C709 H696 0.930 . S
C709 C708 1.388 . S
C709 C710 1.390 . S
C710 C709 1.390 . S
C710 C711 1.394 . S
C710 C716 1.465 . S
C711 C706 1.399 . S
C711 C710 1.394 . S
C711 C712 1.516 . S
C712 C711 1.516 . S
C712 C713 1.502 . S
C712 C714 1.561 . S
C712 C715 1.526 . S
C713 H697 0.959 . S
C713 H698 0.959 . S
C713 H699 0.961 . S
C713 C712 1.502 . S
C714 H700 0.960 . S
C714 H701 0.961 . S
C714 H702 0.959 . S
C714 C712 1.561 . S
C715 C712 1.526 . S
C715 C716 1.396 . S
C715 C720 1.390 . S
C716 C710 1.465 . S
C716 C715 1.396 . S
C716 C717 1.399 . S
C717 H703 0.929 . S
C717 C716 1.399 . S
C717 C718 1.385 . S
C718 H704 0.931 . S
C718 C717 1.385 . S
C718 C719 1.389 . S
C719 C718 1.389 . S
C719 C720 1.387 . S
C720 H705 0.930 . S
C720 C715 1.390 . S
C720 C719 1.387 . S
H721 C733 0.930 . S
H722 C735 0.930 . S
H723 C736 0.930 . S
H724 C740 0.959 . S
H725 C740 0.959 . S
H726 C740 0.961 . S
H727 C741 0.960 . S
H728 C741 0.961 . S
H729 C741 0.959 . S
H730 C744 0.929 . S
H731 C745 0.931 . S
H732 C747 0.930 . S
C733 H721 0.930 . S
C733 C734 1.399 . S
C733 C738 1.399 . S
C734 C733 1.399 . S
C734 C735 1.376 . S
C735 H722 0.930 . S
C735 C734 1.376 . S
C735 C736 1.388 . S
C736 H723 0.930 . S
C736 C735 1.388 . S
C736 C737 1.390 . S
C737 C736 1.390 . S
C737 C738 1.394 . S
C737 C743 1.465 . S
C738 C733 1.399 . S
C738 C737 1.394 . S
C738 C739 1.516 . S
C739 C738 1.516 . S
C739 C740 1.502 . S
C739 C741 1.561 . S
C739 C742 1.526 . S
C740 H724 0.959 . S
C740 H725 0.959 . S
C740 H726 0.961 . S
C740 C739 1.502 . S
C741 H727 0.960 . S
C741 H728 0.961 . S
C741 H729 0.959 . S
C741 C739 1.561 . S
C742 C739 1.526 . S
C742 C743 1.396 . S
C742 C747 1.390 . S
C743 C737 1.465 . S
C743 C742 1.396 . S
C743 C744 1.399 . S
C744 H730 0.929 . S
C744 C743 1.399 . S
C744 C745 1.385 . S
C745 H731 0.931 . S
C745 C744 1.385 . S
C745 C746 1.389 . S
C746 C745 1.389 . S
C746 C747 1.387 . S
C747 H732 0.930 . S
C747 C742 1.390 . S
C747 C746 1.387 . S
H748 C760 0.930 . S
H749 C762 0.930 . S
H750 C763 0.930 . S
H751 C767 0.959 . S
H752 C767 0.959 . S
H753 C767 0.961 . S
H754 C768 0.960 . S
H755 C768 0.961 . S
H756 C768 0.959 . S
H757 C771 0.929 . S
H758 C772 0.931 . S
H759 C774 0.930 . S
C760 H748 0.930 . S
C760 C761 1.399 . S
C760 C765 1.399 . S
C761 C760 1.399 . S
C761 C762 1.376 . S
C762 H749 0.930 . S
C762 C761 1.376 . S
C762 C763 1.388 . S
C763 H750 0.930 . S
C763 C762 1.388 . S
C763 C764 1.390 . S
C764 C763 1.390 . S
C764 C765 1.394 . S
C764 C770 1.465 . S
C765 C760 1.399 . S
C765 C764 1.394 . S
C765 C766 1.516 . S
C766 C765 1.516 . S
C766 C767 1.502 . S
C766 C768 1.561 . S
C766 C769 1.526 . S
C767 H751 0.959 . S
C767 H752 0.959 . S
C767 H753 0.961 . S
C767 C766 1.502 . S
C768 H754 0.960 . S
C768 H755 0.961 . S
C768 H756 0.959 . S
C768 C766 1.561 . S
C769 C766 1.526 . S
C769 C770 1.396 . S
C769 C774 1.390 . S
C770 C764 1.465 . S
C770 C769 1.396 . S
C770 C771 1.399 . S
C771 H757 0.929 . S
C771 C770 1.399 . S
C771 C772 1.385 . S
C772 H758 0.931 . S
C772 C771 1.385 . S
C772 C773 1.389 . S
C773 C772 1.389 . S
C773 C774 1.387 . S
C774 H759 0.930 . S
C774 C769 1.390 . S
C774 C773 1.387 . S
H775 C787 0.930 . S
H776 C789 0.930 . S
H777 C790 0.930 . S
H778 C794 0.959 . S
H779 C794 0.959 . S
H780 C794 0.961 . S
H781 C795 0.960 . S
H782 C795 0.961 . S
H783 C795 0.959 . S
H784 C798 0.929 . S
H785 C799 0.931 . S
H786 C801 0.930 . S
C787 H775 0.930 . S
C787 C788 1.399 . S
C787 C792 1.399 . S
C788 C787 1.399 . S
C788 C789 1.376 . S
C789 H776 0.930 . S
C789 C788 1.376 . S
C789 C790 1.388 . S
C790 H777 0.930 . S
C790 C789 1.388 . S
C790 C791 1.390 . S
C791 C790 1.390 . S
C791 C792 1.394 . S
C791 C797 1.465 . S
C792 C787 1.399 . S
C792 C791 1.394 . S
C792 C793 1.516 . S
C793 C792 1.516 . S
C793 C794 1.502 . S
C793 C795 1.561 . S
C793 C796 1.526 . S
C794 H778 0.959 . S
C794 H779 0.959 . S
C794 H780 0.961 . S
C794 C793 1.502 . S
C795 H781 0.960 . S
C795 H782 0.961 . S
C795 H783 0.959 . S
C795 C793 1.561 . S
C796 C793 1.526 . S
C796 C797 1.396 . S
C796 C801 1.390 . S
C797 C791 1.465 . S
C797 C796 1.396 . S
C797 C798 1.399 . S
C798 H784 0.929 . S
C798 C797 1.399 . S
C798 C799 1.385 . S
C799 H785 0.931 . S
C799 C798 1.385 . S
C799 C800 1.389 . S
C800 C799 1.389 . S
C800 C801 1.387 . S
C801 H786 0.930 . S
C801 C796 1.390 . S
C801 C800 1.387 . S
H802 C814 0.930 . S
H803 C816 0.930 . S
H804 C817 0.930 . S
H805 C821 0.959 . S
H806 C821 0.959 . S
H807 C821 0.961 . S
H808 C822 0.960 . S
H809 C822 0.961 . S
H810 C822 0.959 . S
H811 C825 0.929 . S
H812 C826 0.931 . S
H813 C828 0.930 . S
C814 H802 0.930 . S
C814 C815 1.399 . S
C814 C819 1.399 . S
C815 C814 1.399 . S
C815 C816 1.376 . S
C816 H803 0.930 . S
C816 C815 1.376 . S
C816 C817 1.388 . S
C817 H804 0.930 . S
C817 C816 1.388 . S
C817 C818 1.390 . S
C818 C817 1.390 . S
C818 C819 1.394 . S
C818 C824 1.465 . S
C819 C814 1.399 . S
C819 C818 1.394 . S
C819 C820 1.516 . S
C820 C819 1.516 . S
C820 C821 1.502 . S
C820 C822 1.561 . S
C820 C823 1.526 . S
C821 H805 0.959 . S
C821 H806 0.959 . S
C821 H807 0.961 . S
C821 C820 1.502 . S
C822 H808 0.960 . S
C822 H809 0.961 . S
C822 H810 0.959 . S
C822 C820 1.561 . S
C823 C820 1.526 . S
C823 C824 1.396 . S
C823 C828 1.390 . S
C824 C818 1.465 . S
C824 C823 1.396 . S
C824 C825 1.399 . S
C825 H811 0.929 . S
C825 C824 1.399 . S
C825 C826 1.385 . S
C826 H812 0.931 . S
C826 C825 1.385 . S
C826 C827 1.389 . S
C827 C826 1.389 . S
C827 C828 1.387 . S
C828 H813 0.930 . S
C828 C823 1.390 . S
C828 C827 1.387 . S
H829 C841 0.930 . S
H830 C843 0.930 . S
H831 C844 0.930 . S
H832 C848 0.959 . S
H833 C848 0.959 . S
H834 C848 0.961 . S
H835 C849 0.960 . S
H836 C849 0.961 . S
H837 C849 0.959 . S
H838 C852 0.929 . S
H839 C853 0.931 . S
H840 C855 0.930 . S
C841 H829 0.930 . S
C841 C842 1.399 . S
C841 C846 1.399 . S
C842 C841 1.399 . S
C842 C843 1.376 . S
C843 H830 0.930 . S
C843 C842 1.376 . S
C843 C844 1.388 . S
C844 H831 0.930 . S
C844 C843 1.388 . S
C844 C845 1.390 . S
C845 C844 1.390 . S
C845 C846 1.394 . S
C845 C851 1.465 . S
C846 C841 1.399 . S
C846 C845 1.394 . S
C846 C847 1.516 . S
C847 C846 1.516 . S
C847 C848 1.502 . S
C847 C849 1.561 . S
C847 C850 1.526 . S
C848 H832 0.959 . S
C848 H833 0.959 . S
C848 H834 0.961 . S
C848 C847 1.502 . S
C849 H835 0.960 . S
C849 H836 0.961 . S
C849 H837 0.959 . S
C849 C847 1.561 . S
C850 C847 1.526 . S
C850 C851 1.396 . S
C850 C855 1.390 . S
C851 C845 1.465 . S
C851 C850 1.396 . S
C851 C852 1.399 . S
C852 H838 0.929 . S
C852 C851 1.399 . S
C852 C853 1.385 . S
C853 H839 0.931 . S
C853 C852 1.385 . S
C853 C854 1.389 . S
C854 C853 1.389 . S
C854 C855 1.387 . S
C855 H840 0.930 . S
C855 C850 1.390 . S
C855 C854 1.387 . S
H856 C868 0.930 . S
H857 C870 0.930 . S
H858 C871 0.930 . S
H859 C875 0.959 . S
H860 C875 0.959 . S
H861 C875 0.961 . S
H862 C876 0.960 . S
H863 C876 0.961 . S
H864 C876 0.959 . S
H865 C879 0.929 . S
H866 C880 0.931 . S
H867 C882 0.931 . S
C868 H856 0.930 . S
C868 C869 1.399 . S
C868 C873 1.399 . S
C869 C868 1.399 . S
C869 C870 1.376 . S
C870 H857 0.930 . S
C870 C869 1.376 . S
C870 C871 1.388 1_565 S
C871 H858 0.930 . S
C871 C870 1.388 1_545 S
C871 C872 1.390 . S
C872 C871 1.390 . S
C872 C873 1.394 1_545 S
C872 C878 1.465 . S
C873 C868 1.399 . S
C873 C872 1.394 1_565 S
C873 C874 1.516 . S
C874 C873 1.516 . S
C874 C875 1.502 . S
C874 C876 1.561 . S
C874 C877 1.526 1_565 S
C875 H859 0.959 . S
C875 H860 0.959 . S
C875 H861 0.961 . S
C875 C874 1.502 . S
C876 H862 0.960 . S
C876 H863 0.961 . S
C876 H864 0.959 . S
C876 C874 1.561 . S
C877 C874 1.526 1_545 S
C877 C878 1.396 . S
C877 C882 1.390 . S
C878 C872 1.465 . S
C878 C877 1.396 . S
C878 C879 1.399 . S
C879 H865 0.929 . S
C879 C878 1.399 . S
C879 C880 1.385 . S
C880 H866 0.931 . S
C880 C879 1.385 . S
C880 C881 1.389 . S
C881 C880 1.389 . S
C881 C882 1.387 . S
C882 H867 0.931 . S
C882 C877 1.390 . S
C882 C881 1.387 . S
H883 C895 0.930 . S
H884 C897 0.930 1_565 S
H885 C898 0.930 . S
H886 C902 0.959 . S
H887 C902 0.959 . S
H888 C902 0.961 . S
H889 C903 0.960 . S
H890 C903 0.961 . S
H891 C903 0.959 . S
H892 C906 0.929 . S
H893 C907 0.931 . S
H894 C909 0.930 1_545 S
C895 H883 0.930 . S
C895 C896 1.399 . S
C895 C900 1.399 . S
C896 C895 1.399 . S
C896 C897 1.376 . S
C897 H884 0.930 1_545 S
C897 C896 1.376 . S
C897 C898 1.388 1_545 S
C898 H885 0.930 . S
C898 C897 1.388 1_565 S
C898 C899 1.390 . S
C899 C898 1.390 . S
C899 C900 1.394 1_565 S
C899 C905 1.465 . S
C900 C895 1.399 . S
C900 C899 1.394 1_545 S
C900 C901 1.516 . S
C901 C900 1.516 . S
C901 C902 1.502 . S
C901 C903 1.561 . S
C901 C904 1.532 . S
C902 H886 0.959 . S
C902 H887 0.959 . S
C902 H888 0.961 . S
C902 C901 1.502 . S
C903 H889 0.960 . S
C903 H890 0.961 . S
C903 H891 0.959 . S
C903 C901 1.561 . S
C904 C901 1.532 . S
C904 C905 1.392 1_545 S
C904 C909 1.388 1_545 S
C905 C899 1.465 . S
C905 C904 1.392 1_565 S
C905 C906 1.399 . S
C906 H892 0.929 . S
C906 C905 1.399 . S
C906 C907 1.385 . S
C907 H893 0.931 . S
C907 C906 1.385 . S
C907 C908 1.389 . S
C908 C907 1.389 . S
C908 C909 1.387 . S
C909 H894 0.930 1_565 S
C909 C904 1.388 1_565 S
C909 C908 1.387 . S
H910 C922 0.930 1_565 S
H911 C924 0.930 . S
H912 C925 0.930 . S
H913 C929 0.959 . S
H914 C929 0.959 . S
H915 C929 0.961 . S
H916 C930 0.960 . S
H917 C930 0.961 . S
H918 C930 0.959 . S
H919 C933 0.929 . S
H920 C934 0.931 . S
H921 C936 0.930 . S
C922 H910 0.930 1_545 S
C922 C923 1.399 . S
C922 C927 1.400 . S
C923 C922 1.399 . S
C923 C924 1.376 . S
C924 H911 0.930 . S
C924 C923 1.376 . S
C924 C925 1.388 . S
C925 H912 0.930 . S
C925 C924 1.388 . S
C925 C926 1.390 . S
C926 C925 1.390 . S
C926 C927 1.396 . S
C926 C932 1.465 . S
C927 C922 1.400 . S
C927 C926 1.396 . S
C927 C928 1.513 1_545 S
C928 C927 1.513 1_565 S
C928 C929 1.502 . S
C928 C930 1.561 . S
C928 C931 1.526 . S
C929 H913 0.959 . S
C929 H914 0.959 . S
C929 H915 0.961 . S
C929 C928 1.502 . S
C930 H916 0.960 . S
C930 H917 0.961 . S
C930 H918 0.959 . S
C930 C928 1.561 . S
C931 C928 1.526 . S
C931 C932 1.396 1_565 S
C931 C936 1.390 . S
C932 C926 1.465 . S
C932 C931 1.396 1_545 S
C932 C933 1.399 . S
C933 H919 0.929 . S
C933 C932 1.399 . S
C933 C934 1.385 1_545 S
C934 H920 0.931 . S
C934 C933 1.385 1_565 S
C934 C935 1.389 . S
C935 C934 1.389 . S
C935 C936 1.387 . S
C936 H921 0.930 . S
C936 C931 1.390 . S
C936 C935 1.387 . S
H937 C949 0.930 . S
H938 C951 0.930 . S
H939 C952 0.930 . S
H940 C956 0.959 . S
H941 C956 0.959 1_565 S
H942 C956 0.961 . S
H943 C957 0.960 . S
H944 C957 0.961 . S
H945 C957 0.959 . S
H946 C960 0.929 . S
H947 C961 0.931 . S
H948 C963 0.930 . S
C949 H937 0.930 . S
C949 C950 1.399 . S
C949 C954 1.399 . S
C950 C949 1.399 . S
C950 C951 1.376 . S
C951 H938 0.930 . S
C951 C950 1.376 . S
C951 C952 1.388 . S
C952 H939 0.930 . S
C952 C951 1.388 . S
C952 C953 1.390 . S
C953 C952 1.390 . S
C953 C954 1.394 . S
C953 C959 1.465 1_545 S
C954 C949 1.399 . S
C954 C953 1.394 . S
C954 C955 1.516 1_545 S
C955 C954 1.516 1_565 S
C955 C956 1.502 1_565 S
C955 C957 1.561 . S
C955 C958 1.526 . S
C956 H940 0.959 . S
C956 H941 0.959 1_545 S
C956 H942 0.961 . S
C956 C955 1.502 1_545 S
C957 H943 0.960 . S
C957 H944 0.961 . S
C957 H945 0.959 . S
C957 C955 1.561 . S
C958 C955 1.526 . S
C958 C959 1.396 . S
C958 C963 1.390 . S
C959 C953 1.465 1_565 S
C959 C958 1.396 . S
C959 C960 1.399 . S
C960 H946 0.929 . S
C960 C959 1.399 . S
C960 C961 1.385 . S
C961 H947 0.931 . S
C961 C960 1.385 . S
C961 C962 1.389 . S
C962 C961 1.389 . S
C962 C963 1.387 . S
C963 H948 0.930 . S
C963 C958 1.390 . S
C963 C962 1.387 . S
H964 C976 0.930 . S
H965 C978 0.930 . S
H966 C979 0.930 . S
H967 C983 0.959 . S
H968 C983 0.959 . S
H969 C983 0.961 . S
H970 C984 0.960 . S
H971 C984 0.961 . S
H972 C984 0.959 . S
H973 C987 0.929 . S
H974 C988 0.931 . S
H975 C990 0.930 . S
C976 H964 0.930 . S
C976 C977 1.399 . S
C976 C981 1.399 . S
C977 C976 1.399 . S
C977 C978 1.376 . S
C978 H965 0.930 . S
C978 C977 1.376 . S
C978 C979 1.388 . S
C979 H966 0.930 . S
C979 C978 1.388 . S
C979 C980 1.390 . S
C980 C979 1.390 . S
C980 C981 1.394 . S
C980 C986 1.465 . S
C981 C976 1.399 . S
C981 C980 1.394 . S
C981 C982 1.516 . S
C982 C981 1.516 . S
C982 C983 1.502 . S
C982 C984 1.561 . S
C982 C985 1.526 . S
C983 H967 0.959 . S
C983 H968 0.959 . S
C983 H969 0.961 . S
C983 C982 1.502 . S
C984 H970 0.960 . S
C984 H971 0.961 . S
C984 H972 0.959 . S
C984 C982 1.561 . S
C985 C982 1.526 . S
C985 C986 1.396 . S
C985 C990 1.390 . S
C986 C980 1.465 . S
C986 C985 1.396 . S
C986 C987 1.399 . S
C987 H973 0.929 . S
C987 C986 1.399 . S
C987 C988 1.385 . S
C988 H974 0.931 . S
C988 C987 1.385 . S
C988 C989 1.389 . S
C989 C988 1.389 . S
C989 C990 1.387 . S
C990 H975 0.930 . S
C990 C985 1.390 . S
C990 C989 1.387 . S
H991 C1003 0.930 . S
H992 C1005 0.930 . S
H993 C1006 0.930 . S
H994 C1010 0.959 . S
H995 C1010 0.959 . S
H996 C1010 0.961 . S
H997 C1011 0.960 . S
H998 C1011 0.961 . S
H999 C1011 0.959 . S
H1000 C1014 0.929 . S
H1001 C1015 0.931 . S
H1002 C1017 0.930 . S
C1003 H991 0.930 . S
C1003 C1004 1.399 . S
C1003 C1008 1.399 . S
C1004 C1003 1.399 . S
C1004 C1005 1.376 . S
C1005 H992 0.930 . S
C1005 C1004 1.376 . S
C1005 C1006 1.388 . S
C1006 H993 0.930 . S
C1006 C1005 1.388 . S
C1006 C1007 1.390 . S
C1007 C1006 1.390 . S
C1007 C1008 1.394 . S
C1007 C1013 1.465 . S
C1008 C1003 1.399 . S
C1008 C1007 1.394 . S
C1008 C1009 1.516 . S
C1009 C1008 1.516 . S
C1009 C1010 1.502 . S
C1009 C1011 1.561 . S
C1009 C1012 1.526 . S
C1010 H994 0.959 . S
C1010 H995 0.959 . S
C1010 H996 0.961 . S
C1010 C1009 1.502 . S
C1011 H997 0.960 . S
C1011 H998 0.961 . S
C1011 H999 0.959 . S
C1011 C1009 1.561 . S
C1012 C1009 1.526 . S
C1012 C1013 1.396 . S
C1012 C1017 1.390 . S
C1013 C1007 1.465 . S
C1013 C1012 1.396 . S
C1013 C1014 1.399 . S
C1014 H1000 0.929 . S
C1014 C1013 1.399 . S
C1014 C1015 1.385 . S
C1015 H1001 0.931 . S
C1015 C1014 1.385 . S
C1015 C1016 1.389 . S
C1016 C1015 1.389 . S
C1016 C1017 1.387 . S
C1017 H1002 0.930 . S
C1017 C1012 1.390 . S
C1017 C1016 1.387 . S
H1018 C1030 0.930 . S
H1019 C1032 0.930 . S
H1020 C1033 0.930 . S
H1021 C1037 0.959 . S
H1022 C1037 0.959 . S
H1023 C1037 0.961 . S
H1024 C1038 0.960 . S
H1025 C1038 0.961 . S
H1026 C1038 0.959 . S
H1027 C1041 0.929 . S
H1028 C1042 0.931 . S
H1029 C1044 0.930 . S
C1030 H1018 0.930 . S
C1030 C1031 1.399 . S
C1030 C1035 1.399 . S
C1031 C1030 1.399 . S
C1031 C1032 1.376 . S
C1032 H1019 0.930 . S
C1032 C1031 1.376 . S
C1032 C1033 1.388 . S
C1033 H1020 0.930 . S
C1033 C1032 1.388 . S
C1033 C1034 1.390 . S
C1034 C1033 1.390 . S
C1034 C1035 1.394 . S
C1034 C1040 1.465 . S
C1035 C1030 1.399 . S
C1035 C1034 1.394 . S
C1035 C1036 1.516 . S
C1036 C1035 1.516 . S
C1036 C1037 1.502 . S
C1036 C1038 1.561 . S
C1036 C1039 1.526 . S
C1037 H1021 0.959 . S
C1037 H1022 0.959 . S
C1037 H1023 0.961 . S
C1037 C1036 1.502 . S
C1038 H1024 0.960 . S
C1038 H1025 0.961 . S
C1038 H1026 0.959 . S
C1038 C1036 1.561 . S
C1039 C1036 1.526 . S
C1039 C1040 1.396 . S
C1039 C1044 1.390 . S
C1040 C1034 1.465 . S
C1040 C1039 1.396 . S
C1040 C1041 1.399 . S
C1041 H1027 0.929 . S
C1041 C1040 1.399 . S
C1041 C1042 1.385 . S
C1042 H1028 0.931 . S
C1042 C1041 1.385 . S
C1042 C1043 1.389 . S
C1043 C1042 1.389 . S
C1043 C1044 1.387 . S
C1044 H1029 0.930 . S
C1044 C1039 1.390 . S
C1044 C1043 1.387 . S
H1045 C1057 0.930 . S
H1046 C1059 0.930 . S
H1047 C1060 0.930 . S
H1048 C1064 0.959 . S
H1049 C1064 0.959 . S
H1050 C1064 0.961 . S
H1051 C1065 0.960 . S
H1052 C1065 0.961 . S
H1053 C1065 0.959 . S
H1054 C1068 0.929 . S
H1055 C1069 0.931 . S
H1056 C1071 0.930 . S
C1057 H1045 0.930 . S
C1057 C1058 1.399 . S
C1057 C1062 1.399 . S
C1058 C1057 1.399 . S
C1058 C1059 1.376 . S
C1059 H1046 0.930 . S
C1059 C1058 1.376 . S
C1059 C1060 1.388 . S
C1060 H1047 0.930 . S
C1060 C1059 1.388 . S
C1060 C1061 1.390 . S
C1061 C1060 1.390 . S
C1061 C1062 1.394 . S
C1061 C1067 1.465 . S
C1062 C1057 1.399 . S
C1062 C1061 1.394 . S
C1062 C1063 1.516 . S
C1063 C1062 1.516 . S
C1063 C1064 1.502 . S
C1063 C1065 1.561 . S
C1063 C1066 1.526 . S
C1064 H1048 0.959 . S
C1064 H1049 0.959 . S
C1064 H1050 0.961 . S
C1064 C1063 1.502 . S
C1065 H1051 0.960 . S
C1065 H1052 0.961 . S
C1065 H1053 0.959 . S
C1065 C1063 1.561 . S
C1066 C1063 1.526 . S
C1066 C1067 1.396 . S
C1066 C1071 1.390 . S
C1067 C1061 1.465 . S
C1067 C1066 1.396 . S
C1067 C1068 1.399 . S
C1068 H1054 0.929 . S
C1068 C1067 1.399 . S
C1068 C1069 1.385 . S
C1069 H1055 0.931 . S
C1069 C1068 1.385 . S
C1069 C1070 1.389 . S
C1070 C1069 1.389 . S
C1070 C1071 1.387 . S
C1071 H1056 0.930 . S
C1071 C1066 1.390 . S
C1071 C1070 1.387 . S
H1072 C1084 0.930 . S
H1073 C1086 0.930 . S
H1074 C1087 0.930 . S
H1075 C1091 0.962 . S
H1076 C1091 0.979 . S
H1077 C1091 0.940 1_556 S
H1078 C1092 0.958 1_566 S
H1079 C1092 0.963 1_565 S
H1080 C1092 0.959 . S
H1081 C1095 0.929 . S
H1082 C1096 0.931 . S
H1083 C1098 0.930 . S
C1084 H1072 0.930 . S
C1084 C1085 1.399 . S
C1084 C1089 1.399 . S
C1085 C1084 1.399 . S
C1085 C1086 1.376 . S
C1086 H1073 0.930 . S
C1086 C1085 1.376 . S
C1086 C1087 1.388 . S
C1087 H1074 0.930 . S
C1087 C1086 1.388 . S
C1087 C1088 1.390 . S
C1088 C1087 1.390 . S
C1088 C1089 1.394 . S
C1088 C1094 1.465 1_556 S
C1089 C1084 1.399 . S
C1089 C1088 1.394 . S
C1089 C1090 1.517 1_556 S
C1090 C1089 1.517 1_554 S
C1090 C1091 1.502 . S
C1090 C1092 1.561 . S
C1090 C1093 1.525 . S
C1091 H1075 0.962 . S
C1091 H1076 0.979 . S
C1091 H1077 0.940 1_554 S
C1091 C1090 1.502 . S
C1092 H1078 0.958 1_544 S
C1092 H1079 0.963 1_545 S
C1092 H1080 0.959 . S
C1092 C1090 1.561 . S
C1093 C1090 1.525 . S
C1093 C1094 1.396 . S
C1093 C1098 1.390 . S
C1094 C1088 1.465 1_554 S
C1094 C1093 1.396 . S
C1094 C1095 1.399 . S
C1095 H1081 0.929 . S
C1095 C1094 1.399 . S
C1095 C1096 1.385 . S
C1096 H1082 0.931 . S
C1096 C1095 1.385 . S
C1096 C1097 1.389 . S
C1097 C1096 1.389 . S
C1097 C1098 1.387 . S
C1098 H1083 0.930 . S
C1098 C1093 1.390 . S
C1098 C1097 1.387 . S
H1099 C1111 0.930 . S
H1100 C1113 0.930 . S
H1101 C1114 0.930 . S
H1102 C1118 0.962 . S
H1103 C1118 0.979 . S
H1104 C1118 0.940 1_556 S
H1105 C1119 0.958 1_556 S
H1106 C1119 0.963 . S
H1107 C1119 0.959 . S
H1108 C1122 0.929 . S
H1109 C1123 0.931 . S
H1110 C1125 0.930 . S
C1111 H1099 0.930 . S
C1111 C1112 1.399 . S
C1111 C1116 1.399 . S
C1112 C1111 1.399 . S
C1112 C1113 1.376 . S
C1113 H1100 0.930 . S
C1113 C1112 1.376 . S
C1113 C1114 1.388 . S
C1114 H1101 0.930 . S
C1114 C1113 1.388 . S
C1114 C1115 1.390 . S
C1115 C1114 1.390 . S
C1115 C1116 1.394 . S
C1115 C1121 1.465 1_556 S
C1116 C1111 1.399 . S
C1116 C1115 1.394 . S
C1116 C1117 1.517 1_556 S
C1117 C1116 1.517 1_554 S
C1117 C1118 1.502 . S
C1117 C1119 1.561 . S
C1117 C1120 1.525 . S
C1118 H1102 0.962 . S
C1118 H1103 0.979 . S
C1118 H1104 0.940 1_554 S
C1118 C1117 1.502 . S
C1119 H1105 0.958 1_554 S
C1119 H1106 0.963 . S
C1119 H1107 0.959 . S
C1119 C1117 1.561 . S
C1120 C1117 1.525 . S
C1120 C1121 1.396 . S
C1120 C1125 1.390 . S
C1121 C1115 1.465 1_554 S
C1121 C1120 1.396 . S
C1121 C1122 1.399 . S
C1122 H1108 0.929 . S
C1122 C1121 1.399 . S
C1122 C1123 1.385 . S
C1123 H1109 0.931 . S
C1123 C1122 1.385 . S
C1123 C1124 1.389 . S
C1124 C1123 1.389 . S
C1124 C1125 1.387 . S
C1125 H1110 0.930 . S
C1125 C1120 1.390 . S
C1125 C1124 1.387 . S
H1126 C1138 0.930 . S
H1127 C1140 0.930 . S
H1128 C1141 0.930 . S
H1129 C1145 0.959 . S
H1130 C1145 0.959 1_545 S
H1131 C1145 0.960 1_545 S
H1132 C1146 0.960 1_545 S
H1133 C1146 0.961 1_545 S
H1134 C1146 0.959 . S
H1135 C1149 0.929 . S
H1136 C1150 0.931 . S
H1137 C1152 0.930 . S
C1138 H1126 0.930 . S
C1138 C1139 1.399 . S
C1138 C1143 1.399 . S
C1139 C1138 1.399 . S
C1139 C1140 1.376 . S
C1140 H1127 0.930 . S
C1140 C1139 1.376 . S
C1140 C1141 1.388 . S
C1141 H1128 0.930 . S
C1141 C1140 1.388 . S
C1141 C1142 1.390 . S
C1142 C1141 1.390 . S
C1142 C1143 1.394 . S
C1142 C1148 1.465 . S
C1143 C1138 1.399 . S
C1143 C1142 1.394 . S
C1143 C1144 1.516 . S
C1144 C1143 1.516 . S
C1144 C1145 1.502 . S
C1144 C1146 1.561 . S
C1144 C1147 1.526 . S
C1145 H1129 0.959 . S
C1145 H1130 0.959 1_565 S
C1145 H1131 0.960 1_565 S
C1145 C1144 1.502 . S
C1146 H1132 0.960 1_565 S
C1146 H1133 0.961 1_565 S
C1146 H1134 0.959 . S
C1146 C1144 1.561 . S
C1147 C1144 1.526 . S
C1147 C1148 1.396 . S
C1147 C1152 1.390 . S
C1148 C1142 1.465 . S
C1148 C1147 1.396 . S
C1148 C1149 1.399 . S
C1149 H1135 0.929 . S
C1149 C1148 1.399 . S
C1149 C1150 1.385 . S
C1150 H1136 0.931 . S
C1150 C1149 1.385 . S
C1150 C1151 1.389 . S
C1151 C1150 1.389 . S
C1151 C1152 1.387 . S
C1152 H1137 0.930 . S
C1152 C1147 1.390 . S
C1152 C1151 1.387 . S
H1153 C1165 0.930 . S
H1154 C1167 0.930 . S
H1155 C1168 0.930 . S
H1156 C1172 0.959 . S
H1157 C1172 0.959 . S
H1158 C1172 0.961 . S
H1159 C1173 0.960 . S
H1160 C1173 0.961 . S
H1161 C1173 0.959 . S
H1162 C1176 0.929 . S
H1163 C1177 0.931 . S
H1164 C1179 0.930 . S
C1165 H1153 0.930 . S
C1165 C1166 1.399 . S
C1165 C1170 1.399 . S
C1166 C1165 1.399 . S
C1166 C1167 1.376 . S
C1167 H1154 0.930 . S
C1167 C1166 1.376 . S
C1167 C1168 1.388 . S
C1168 H1155 0.930 . S
C1168 C1167 1.388 . S
C1168 C1169 1.390 . S
C1169 C1168 1.390 . S
C1169 C1170 1.394 . S
C1169 C1175 1.465 . S
C1170 C1165 1.399 . S
C1170 C1169 1.394 . S
C1170 C1171 1.516 . S
C1171 C1170 1.516 . S
C1171 C1172 1.502 . S
C1171 C1173 1.561 . S
C1171 C1174 1.526 . S
C1172 H1156 0.959 . S
C1172 H1157 0.959 . S
C1172 H1158 0.961 . S
C1172 C1171 1.502 . S
C1173 H1159 0.960 . S
C1173 H1160 0.961 . S
C1173 H1161 0.959 . S
C1173 C1171 1.561 . S
C1174 C1171 1.526 . S
C1174 C1175 1.396 . S
C1174 C1179 1.390 . S
C1175 C1169 1.465 . S
C1175 C1174 1.396 . S
C1175 C1176 1.399 . S
C1176 H1162 0.929 . S
C1176 C1175 1.399 . S
C1176 C1177 1.385 . S
C1177 H1163 0.931 . S
C1177 C1176 1.385 . S
C1177 C1178 1.389 . S
C1178 C1177 1.389 . S
C1178 C1179 1.387 . S
C1179 H1164 0.930 . S
C1179 C1174 1.390 . S
C1179 C1178 1.387 . S
H1180 C1192 0.930 . S
H1181 C1194 0.930 . S
H1182 C1195 0.930 . S
H1183 C1199 0.962 . S
H1184 C1199 0.979 . S
H1185 C1199 0.940 1_554 S
H1186 C1200 0.958 1_554 S
H1187 C1200 0.963 . S
H1188 C1200 0.959 . S
H1189 C1203 0.929 . S
H1190 C1204 0.931 . S
H1191 C1206 0.930 . S
C1192 H1180 0.930 . S
C1192 C1193 1.399 . S
C1192 C1197 1.399 . S
C1193 C1192 1.399 . S
C1193 C1194 1.376 . S
C1194 H1181 0.930 . S
C1194 C1193 1.376 . S
C1194 C1195 1.388 . S
C1195 H1182 0.930 . S
C1195 C1194 1.388 . S
C1195 C1196 1.390 . S
C1196 C1195 1.390 . S
C1196 C1197 1.394 . S
C1196 C1202 1.465 1_554 S
C1197 C1192 1.399 . S
C1197 C1196 1.394 . S
C1197 C1198 1.517 1_554 S
C1198 C1197 1.517 1_556 S
C1198 C1199 1.502 . S
C1198 C1200 1.561 . S
C1198 C1201 1.525 . S
C1199 H1183 0.962 . S
C1199 H1184 0.979 . S
C1199 H1185 0.940 1_556 S
C1199 C1198 1.502 . S
C1200 H1186 0.958 1_556 S
C1200 H1187 0.963 . S
C1200 H1188 0.959 . S
C1200 C1198 1.561 . S
C1201 C1198 1.525 . S
C1201 C1202 1.396 . S
C1201 C1206 1.390 . S
C1202 C1196 1.465 1_556 S
C1202 C1201 1.396 . S
C1202 C1203 1.399 . S
C1203 H1189 0.929 . S
C1203 C1202 1.399 . S
C1203 C1204 1.385 . S
C1204 H1190 0.931 . S
C1204 C1203 1.385 . S
C1204 C1205 1.389 . S
C1205 C1204 1.389 . S
C1205 C1206 1.387 . S
C1206 H1191 0.930 . S
C1206 C1201 1.390 . S
C1206 C1205 1.387 . S
H1207 C1219 0.930 . S
H1208 C1221 0.930 . S
H1209 C1222 0.930 . S
H1210 C1226 0.962 . S
H1211 C1226 0.979 . S
H1212 C1226 0.940 1_556 S
H1213 C1227 0.958 1_556 S
H1214 C1227 0.963 . S
H1215 C1227 0.959 . S
H1216 C1230 0.929 . S
H1217 C1231 0.931 . S
H1218 C1233 0.930 . S
C1219 H1207 0.930 . S
C1219 C1220 1.399 . S
C1219 C1224 1.399 . S
C1220 C1219 1.399 . S
C1220 C1221 1.376 . S
C1221 H1208 0.930 . S
C1221 C1220 1.376 . S
C1221 C1222 1.388 . S
C1222 H1209 0.930 . S
C1222 C1221 1.388 . S
C1222 C1223 1.390 . S
C1223 C1222 1.390 . S
C1223 C1224 1.394 . S
C1223 C1229 1.465 1_556 S
C1224 C1219 1.399 . S
C1224 C1223 1.394 . S
C1224 C1225 1.517 1_556 S
C1225 C1224 1.517 1_554 S
C1225 C1226 1.502 . S
C1225 C1227 1.561 . S
C1225 C1228 1.525 . S
C1226 H1210 0.962 . S
C1226 H1211 0.979 . S
C1226 H1212 0.940 1_554 S
C1226 C1225 1.502 . S
C1227 H1213 0.958 1_554 S
C1227 H1214 0.963 . S
C1227 H1215 0.959 . S
C1227 C1225 1.561 . S
C1228 C1225 1.525 . S
C1228 C1229 1.396 . S
C1228 C1233 1.390 . S
C1229 C1223 1.465 1_554 S
C1229 C1228 1.396 . S
C1229 C1230 1.399 . S
C1230 H1216 0.929 . S
C1230 C1229 1.399 . S
C1230 C1231 1.385 . S
C1231 H1217 0.931 . S
C1231 C1230 1.385 . S
C1231 C1232 1.389 . S
C1232 C1231 1.389 . S
C1232 C1233 1.387 . S
C1233 H1218 0.930 . S
C1233 C1228 1.390 . S
C1233 C1232 1.387 . S
H1234 C1246 0.930 . S
H1235 C1248 0.930 . S
H1236 C1249 0.930 . S
H1237 C1253 0.959 . S
H1238 C1253 0.959 . S
H1239 C1253 0.961 . S
H1240 C1254 0.960 . S
H1241 C1254 0.961 . S
H1242 C1254 0.959 . S
H1243 C1257 0.929 . S
H1244 C1258 0.931 . S
H1245 C1260 0.930 . S
C1246 H1234 0.930 . S
C1246 C1247 1.399 . S
C1246 C1251 1.399 . S
C1247 C1246 1.399 . S
C1247 C1248 1.376 . S
C1248 H1235 0.930 . S
C1248 C1247 1.376 . S
C1248 C1249 1.388 . S
C1249 H1236 0.930 . S
C1249 C1248 1.388 . S
C1249 C1250 1.390 . S
C1250 C1249 1.390 . S
C1250 C1251 1.394 . S
C1250 C1256 1.465 . S
C1251 C1246 1.399 . S
C1251 C1250 1.394 . S
C1251 C1252 1.516 . S
C1252 C1251 1.516 . S
C1252 C1253 1.502 . S
C1252 C1254 1.561 . S
C1252 C1255 1.526 . S
C1253 H1237 0.959 . S
C1253 H1238 0.959 . S
C1253 H1239 0.961 . S
C1253 C1252 1.502 . S
C1254 H1240 0.960 . S
C1254 H1241 0.961 . S
C1254 H1242 0.959 . S
C1254 C1252 1.561 . S
C1255 C1252 1.526 . S
C1255 C1256 1.396 . S
C1255 C1260 1.390 . S
C1256 C1250 1.465 . S
C1256 C1255 1.396 . S
C1256 C1257 1.399 . S
C1257 H1243 0.929 . S
C1257 C1256 1.399 . S
C1257 C1258 1.385 . S
C1258 H1244 0.931 . S
C1258 C1257 1.385 . S
C1258 C1259 1.389 . S
C1259 C1258 1.389 . S
C1259 C1260 1.387 . S
C1260 H1245 0.930 . S
C1260 C1255 1.390 . S
C1260 C1259 1.387 . S
H1261 C1273 0.930 . S
H1262 C1275 0.930 . S
H1263 C1276 0.930 . S
H1264 C1280 0.959 . S
H1265 C1280 0.959 . S
H1266 C1280 0.961 . S
H1267 C1281 0.960 . S
H1268 C1281 0.961 . S
H1269 C1281 0.959 . S
H1270 C1284 0.929 . S
H1271 C1285 0.931 . S
H1272 C1287 0.930 . S
C1273 H1261 0.930 . S
C1273 C1274 1.399 . S
C1273 C1278 1.399 . S
C1274 C1273 1.399 . S
C1274 C1275 1.376 . S
C1275 H1262 0.930 . S
C1275 C1274 1.376 . S
C1275 C1276 1.388 . S
C1276 H1263 0.930 . S
C1276 C1275 1.388 . S
C1276 C1277 1.390 . S
C1277 C1276 1.390 . S
C1277 C1278 1.394 . S
C1277 C1283 1.465 . S
C1278 C1273 1.399 . S
C1278 C1277 1.394 . S
C1278 C1279 1.516 . S
C1279 C1278 1.516 . S
C1279 C1280 1.502 . S
C1279 C1281 1.561 . S
C1279 C1282 1.526 . S
C1280 H1264 0.959 . S
C1280 H1265 0.959 . S
C1280 H1266 0.961 . S
C1280 C1279 1.502 . S
C1281 H1267 0.960 . S
C1281 H1268 0.961 . S
C1281 H1269 0.959 . S
C1281 C1279 1.561 . S
C1282 C1279 1.526 . S
C1282 C1283 1.396 . S
C1282 C1287 1.390 . S
C1283 C1277 1.465 . S
C1283 C1282 1.396 . S
C1283 C1284 1.399 . S
C1284 H1270 0.929 . S
C1284 C1283 1.399 . S
C1284 C1285 1.385 . S
C1285 H1271 0.931 . S
C1285 C1284 1.385 . S
C1285 C1286 1.389 . S
C1286 C1285 1.389 . S
C1286 C1287 1.387 . S
C1287 H1272 0.930 . S
C1287 C1282 1.390 . S
C1287 C1286 1.387 . S
H1288 C1300 0.930 . S
H1289 C1302 0.930 . S
H1290 C1303 0.930 . S
H1291 C1307 0.959 . S
H1292 C1307 0.959 . S
H1293 C1307 0.961 1_655 S
H1294 C1308 0.969 1_565 S
H1295 C1308 0.953 1_455 S
H1296 C1308 0.960 . S
H1297 C1311 0.929 . S
H1298 C1312 0.931 . S
H1299 C1314 0.937 . S
C1300 H1288 0.930 . S
C1300 C1301 1.399 . S
C1300 C1305 1.399 . S
C1301 C1300 1.399 . S
C1301 C1302 1.376 1_565 S
C1302 H1289 0.930 . S
C1302 C1301 1.376 1_545 S
C1302 C1303 1.388 . S
C1303 H1290 0.930 . S
C1303 C1302 1.388 . S
C1303 C1304 1.390 . S
C1304 C1303 1.390 . S
C1304 C1305 1.394 1_545 S
C1304 C1310 1.465 1_655 S
C1305 C1300 1.399 . S
C1305 C1304 1.394 1_565 S
C1305 C1306 1.516 1_655 S
C1306 C1305 1.516 1_455 S
C1306 C1307 1.502 . S
C1306 C1308 1.560 1_465 S
C1306 C1309 1.526 . S
C1307 H1291 0.959 . S
C1307 H1292 0.959 . S
C1307 H1293 0.961 1_455 S
C1307 C1306 1.502 . S
C1308 H1294 0.969 1_545 S
C1308 H1295 0.953 1_655 S
C1308 H1296 0.960 . S
C1308 C1306 1.560 1_645 S
C1309 C1306 1.526 . S
C1309 C1310 1.396 1_565 S
C1309 C1314 1.390 . S
C1310 C1304 1.465 1_455 S
C1310 C1309 1.396 1_545 S
C1310 C1311 1.399 . S
C1311 H1297 0.929 . S
C1311 C1310 1.399 . S
C1311 C1312 1.385 . S
C1312 H1298 0.931 . S
C1312 C1311 1.385 . S
C1312 C1313 1.389 . S
C1313 C1312 1.389 . S
C1313 C1314 1.379 1_545 S
C1314 H1299 0.937 . S
C1314 C1309 1.390 . S
C1314 C1313 1.379 1_565 S
H1315 C1327 0.930 1_565 S
H1316 C1329 0.930 . S
H1317 C1330 0.930 . S
H1318 C1334 0.959 . S
H1319 C1334 0.959 1_455 S
H1320 C1334 0.961 . S
H1321 C1335 0.960 1_655 S
H1322 C1335 0.961 . S
H1323 C1335 0.959 . S
H1324 C1338 0.929 . S
H1325 C1339 0.932 . S
H1326 C1341 0.930 . S
C1327 H1315 0.930 1_545 S
C1327 C1328 1.399 . S
C1327 C1332 1.399 . S
C1328 C1327 1.399 . S
C1328 C1329 1.376 . S
C1329 H1316 0.930 . S
C1329 C1328 1.376 . S
C1329 C1330 1.388 . S
C1330 H1317 0.930 . S
C1330 C1329 1.388 . S
C1330 C1331 1.390 . S
C1331 C1330 1.390 . S
C1331 C1332 1.394 . S
C1331 C1337 1.465 1_655 S
C1332 C1327 1.399 . S
C1332 C1331 1.394 . S
C1332 C1333 1.543 1_545 S
C1333 C1332 1.543 1_565 S
C1333 C1334 1.506 . S
C1333 C1335 1.558 1_665 S
C1333 C1336 1.498 1_655 S
C1334 H1318 0.959 . S
C1334 H1319 0.959 1_655 S
C1334 H1320 0.961 . S
C1334 C1333 1.506 . S
C1335 H1321 0.960 1_455 S
C1335 H1322 0.961 . S
C1335 H1323 0.959 . S
C1335 C1333 1.558 1_445 S
C1336 C1333 1.498 1_455 S
C1336 C1337 1.396 1_565 S
C1336 C1341 1.390 . S
C1337 C1331 1.465 1_455 S
C1337 C1336 1.396 1_545 S
C1337 C1338 1.399 . S
C1338 H1324 0.929 . S
C1338 C1337 1.399 . S
C1338 C1339 1.390 . S
C1339 H1325 0.932 . S
C1339 C1338 1.390 . S
C1339 C1340 1.384 1_545 S
C1340 C1339 1.384 1_565 S
C1340 C1341 1.387 . S
C1341 H1326 0.930 . S
C1341 C1336 1.390 . S
C1341 C1340 1.387 . S
H1342 C1354 0.930 1_565 S
H1343 C1356 0.930 . S
H1344 C1357 0.930 . S
H1345 C1361 0.959 . S
H1346 C1361 0.959 1_655 S
H1347 C1361 0.961 . S
H1348 C1362 0.960 1_455 S
H1349 C1362 0.961 . S
H1350 C1362 0.959 . S
H1351 C1365 0.929 . S
H1352 C1366 0.931 . S
H1353 C1368 0.930 . S
C1354 H1342 0.930 1_545 S
C1354 C1355 1.399 . S
C1354 C1359 1.399 . S
C1355 C1354 1.399 . S
C1355 C1356 1.376 . S
C1356 H1343 0.930 . S
C1356 C1355 1.376 . S
C1356 C1357 1.388 . S
C1357 H1344 0.930 . S
C1357 C1356 1.388 . S
C1357 C1358 1.390 . S
C1358 C1357 1.390 . S
C1358 C1359 1.396 . S
C1358 C1364 1.465 1_455 S
C1359 C1354 1.399 . S
C1359 C1358 1.396 . S
C1359 C1360 1.514 1_545 S
C1360 C1359 1.514 1_565 S
C1360 C1361 1.502 . S
C1360 C1362 1.561 1_465 S
C1360 C1363 1.526 1_455 S
C1361 H1345 0.959 . S
C1361 H1346 0.959 1_455 S
C1361 H1347 0.961 . S
C1361 C1360 1.502 . S
C1362 H1348 0.960 1_655 S
C1362 H1349 0.961 . S
C1362 H1350 0.959 . S
C1362 C1360 1.561 1_645 S
C1363 C1360 1.526 1_655 S
C1363 C1364 1.396 1_565 S
C1363 C1368 1.390 . S
C1364 C1358 1.465 1_655 S
C1364 C1363 1.396 1_545 S
C1364 C1365 1.399 . S
C1365 H1351 0.929 . S
C1365 C1364 1.399 . S
C1365 C1366 1.385 . S
C1366 H1352 0.931 . S
C1366 C1365 1.385 . S
C1366 C1367 1.389 1_545 S
C1367 C1366 1.389 1_565 S
C1367 C1368 1.387 . S
C1368 H1353 0.930 . S
C1368 C1363 1.390 . S
C1368 C1367 1.387 . S
H1369 C1381 0.930 1_565 S
H1370 C1383 0.930 . S
H1371 C1384 0.930 . S
H1372 C1388 0.959 . S
H1373 C1388 0.959 1_455 S
H1374 C1388 0.961 . S
H1375 C1389 0.960 1_655 S
H1376 C1389 0.961 . S
H1377 C1389 0.959 . S
H1378 C1392 0.929 . S
H1379 C1393 0.931 1_545 S
H1380 C1395 0.930 . S
C1381 H1369 0.930 1_545 S
C1381 C1382 1.399 . S
C1381 C1386 1.399 . S
C1382 C1381 1.399 . S
C1382 C1383 1.376 . S
C1383 H1370 0.930 . S
C1383 C1382 1.376 . S
C1383 C1384 1.388 . S
C1384 H1371 0.930 . S
C1384 C1383 1.388 . S
C1384 C1385 1.390 . S
C1385 C1384 1.390 . S
C1385 C1386 1.394 . S
C1385 C1391 1.465 1_655 S
C1386 C1381 1.399 . S
C1386 C1385 1.394 . S
C1386 C1387 1.540 1_545 S
C1387 C1386 1.540 1_565 S
C1387 C1388 1.506 . S
C1387 C1389 1.558 1_665 S
C1387 C1390 1.501 1_655 S
C1388 H1372 0.959 . S
C1388 H1373 0.959 1_655 S
C1388 H1374 0.961 . S
C1388 C1387 1.506 . S
C1389 H1375 0.960 1_455 S
C1389 H1376 0.961 . S
C1389 H1377 0.959 . S
C1389 C1387 1.558 1_445 S
C1390 C1387 1.501 1_455 S
C1390 C1391 1.396 1_565 S
C1390 C1395 1.390 . S
C1391 C1385 1.465 1_455 S
C1391 C1390 1.396 1_545 S
C1391 C1392 1.399 . S
C1392 H1378 0.929 . S
C1392 C1391 1.399 . S
C1392 C1393 1.385 1_545 S
C1393 H1379 0.931 1_565 S
C1393 C1392 1.385 1_565 S
C1393 C1394 1.389 . S
C1394 C1393 1.389 . S
C1394 C1395 1.387 . S
C1395 H1380 0.930 . S
C1395 C1390 1.390 . S
C1395 C1394 1.387 . S
H1396 C1408 0.930 . S
H1397 C1410 0.930 . S
H1398 C1411 0.930 . S
H1399 C1415 0.959 . S
H1400 C1415 0.959 . S
H1401 C1415 0.961 . S
H1402 C1416 0.960 . S
H1403 C1416 0.961 . S
H1404 C1416 0.959 . S
H1405 C1419 0.929 . S
H1406 C1420 0.931 . S
H1407 C1422 0.930 . S
C1408 H1396 0.930 . S
C1408 C1409 1.399 . S
C1408 C1413 1.399 . S
C1409 C1408 1.399 . S
C1409 C1410 1.376 . S
C1410 H1397 0.930 . S
C1410 C1409 1.376 . S
C1410 C1411 1.388 . S
C1411 H1398 0.930 . S
C1411 C1410 1.388 . S
C1411 C1412 1.390 . S
C1412 C1411 1.390 . S
C1412 C1413 1.394 . S
C1412 C1418 1.465 . S
C1413 C1408 1.399 . S
C1413 C1412 1.394 . S
C1413 C1414 1.516 . S
C1414 C1413 1.516 . S
C1414 C1415 1.502 . S
C1414 C1416 1.561 . S
C1414 C1417 1.526 . S
C1415 H1399 0.959 . S
C1415 H1400 0.959 . S
C1415 H1401 0.961 . S
C1415 C1414 1.502 . S
C1416 H1402 0.960 . S
C1416 H1403 0.961 . S
C1416 H1404 0.959 . S
C1416 C1414 1.561 . S
C1417 C1414 1.526 . S
C1417 C1418 1.396 . S
C1417 C1422 1.390 . S
C1418 C1412 1.465 . S
C1418 C1417 1.396 . S
C1418 C1419 1.399 . S
C1419 H1405 0.929 . S
C1419 C1418 1.399 . S
C1419 C1420 1.385 . S
C1420 H1406 0.931 . S
C1420 C1419 1.385 . S
C1420 C1421 1.389 . S
C1421 C1420 1.389 . S
C1421 C1422 1.387 . S
C1422 H1407 0.930 . S
C1422 C1417 1.390 . S
C1422 C1421 1.387 . S
H1423 C1435 0.930 . S
H1424 C1437 0.930 . S
H1425 C1438 0.930 . S
H1426 C1442 0.959 . S
H1427 C1442 0.959 . S
H1428 C1442 0.961 . S
H1429 C1443 0.960 . S
H1430 C1443 0.961 . S
H1431 C1443 0.959 . S
H1432 C1446 0.929 . S
H1433 C1447 0.931 . S
H1434 C1449 0.930 . S
C1435 H1423 0.930 . S
C1435 C1436 1.399 . S
C1435 C1440 1.399 . S
C1436 C1435 1.399 . S
C1436 C1437 1.376 . S
C1437 H1424 0.930 . S
C1437 C1436 1.376 . S
C1437 C1438 1.388 . S
C1438 H1425 0.930 . S
C1438 C1437 1.388 . S
C1438 C1439 1.390 . S
C1439 C1438 1.390 . S
C1439 C1440 1.394 . S
C1439 C1445 1.465 . S
C1440 C1435 1.399 . S
C1440 C1439 1.394 . S
C1440 C1441 1.516 . S
C1441 C1440 1.516 . S
C1441 C1442 1.502 . S
C1441 C1443 1.561 . S
C1441 C1444 1.526 . S
C1442 H1426 0.959 . S
C1442 H1427 0.959 . S
C1442 H1428 0.961 . S
C1442 C1441 1.502 . S
C1443 H1429 0.960 . S
C1443 H1430 0.961 . S
C1443 H1431 0.959 . S
C1443 C1441 1.561 . S
C1444 C1441 1.526 . S
C1444 C1445 1.396 . S
C1444 C1449 1.390 . S
C1445 C1439 1.465 . S
C1445 C1444 1.396 . S
C1445 C1446 1.399 . S
C1446 H1432 0.929 . S
C1446 C1445 1.399 . S
C1446 C1447 1.385 . S
C1447 H1433 0.931 . S
C1447 C1446 1.385 . S
C1447 C1448 1.389 . S
C1448 C1447 1.389 . S
C1448 C1449 1.387 . S
C1449 H1434 0.930 . S
C1449 C1444 1.390 . S
C1449 C1448 1.387 . S
H1450 C1462 0.930 . S
H1451 C1464 0.930 . S
H1452 C1465 0.930 . S
H1453 C1469 0.959 . S
H1454 C1469 0.959 . S
H1455 C1469 0.961 . S
H1456 C1470 0.960 . S
H1457 C1470 0.961 . S
H1458 C1470 0.959 . S
H1459 C1473 0.929 . S
H1460 C1474 0.931 . S
H1461 C1476 0.930 . S
C1462 H1450 0.930 . S
C1462 C1463 1.399 . S
C1462 C1467 1.399 . S
C1463 C1462 1.399 . S
C1463 C1464 1.376 . S
C1464 H1451 0.930 . S
C1464 C1463 1.376 . S
C1464 C1465 1.388 . S
C1465 H1452 0.930 . S
C1465 C1464 1.388 . S
C1465 C1466 1.390 . S
C1466 C1465 1.390 . S
C1466 C1467 1.394 . S
C1466 C1472 1.465 . S
C1467 C1462 1.399 . S
C1467 C1466 1.394 . S
C1467 C1468 1.516 . S
C1468 C1467 1.516 . S
C1468 C1469 1.502 . S
C1468 C1470 1.561 . S
C1468 C1471 1.526 . S
C1469 H1453 0.959 . S
C1469 H1454 0.959 . S
C1469 H1455 0.961 . S
C1469 C1468 1.502 . S
C1470 H1456 0.960 . S
C1470 H1457 0.961 . S
C1470 H1458 0.959 . S
C1470 C1468 1.561 . S
C1471 C1468 1.526 . S
C1471 C1472 1.396 . S
C1471 C1476 1.390 . S
C1472 C1466 1.465 . S
C1472 C1471 1.396 . S
C1472 C1473 1.399 . S
C1473 H1459 0.929 . S
C1473 C1472 1.399 . S
C1473 C1474 1.385 . S
C1474 H1460 0.931 . S
C1474 C1473 1.385 . S
C1474 C1475 1.389 . S
C1475 C1474 1.389 . S
C1475 C1476 1.387 . S
C1476 H1461 0.930 . S
C1476 C1471 1.390 . S
C1476 C1475 1.387 . S
H1477 C1489 0.930 . S
H1478 C1491 0.930 . S
H1479 C1492 0.930 . S
H1480 C1496 0.959 . S
H1481 C1496 0.959 . S
H1482 C1496 0.961 . S
H1483 C1497 0.960 . S
H1484 C1497 0.961 . S
H1485 C1497 0.959 . S
H1486 C1500 0.929 . S
H1487 C1501 0.931 . S
H1488 C1503 0.930 . S
C1489 H1477 0.930 . S
C1489 C1490 1.399 . S
C1489 C1494 1.399 . S
C1490 C1489 1.399 . S
C1490 C1491 1.376 . S
C1491 H1478 0.930 . S
C1491 C1490 1.376 . S
C1491 C1492 1.388 . S
C1492 H1479 0.930 . S
C1492 C1491 1.388 . S
C1492 C1493 1.390 . S
C1493 C1492 1.390 . S
C1493 C1494 1.394 . S
C1493 C1499 1.465 . S
C1494 C1489 1.399 . S
C1494 C1493 1.394 . S
C1494 C1495 1.516 . S
C1495 C1494 1.516 . S
C1495 C1496 1.502 . S
C1495 C1497 1.561 . S
C1495 C1498 1.526 . S
C1496 H1480 0.959 . S
C1496 H1481 0.959 . S
C1496 H1482 0.961 . S
C1496 C1495 1.502 . S
C1497 H1483 0.960 . S
C1497 H1484 0.961 . S
C1497 H1485 0.959 . S
C1497 C1495 1.561 . S
C1498 C1495 1.526 . S
C1498 C1499 1.396 . S
C1498 C1503 1.390 . S
C1499 C1493 1.465 . S
C1499 C1498 1.396 . S
C1499 C1500 1.399 . S
C1500 H1486 0.929 . S
C1500 C1499 1.399 . S
C1500 C1501 1.385 . S
C1501 H1487 0.931 . S
C1501 C1500 1.385 . S
C1501 C1502 1.389 . S
C1502 C1501 1.389 . S
C1502 C1503 1.387 . S
C1503 H1488 0.930 . S
C1503 C1498 1.390 . S
C1503 C1502 1.387 . S
H1504 C1516 0.930 . S
H1505 C1518 0.930 . S
H1506 C1519 0.930 . S
H1507 C1523 0.959 . S
H1508 C1523 0.959 . S
H1509 C1523 0.961 . S
H1510 C1524 0.960 . S
H1511 C1524 0.961 . S
H1512 C1524 0.959 . S
H1513 C1527 0.929 . S
H1514 C1528 0.931 . S
H1515 C1530 0.930 . S
C1516 H1504 0.930 . S
C1516 C1517 1.399 . S
C1516 C1521 1.399 . S
C1517 C1516 1.399 . S
C1517 C1518 1.376 . S
C1518 H1505 0.930 . S
C1518 C1517 1.376 . S
C1518 C1519 1.388 . S
C1519 H1506 0.930 . S
C1519 C1518 1.388 . S
C1519 C1520 1.390 . S
C1520 C1519 1.390 . S
C1520 C1521 1.394 . S
C1520 C1526 1.465 . S
C1521 C1516 1.399 . S
C1521 C1520 1.394 . S
C1521 C1522 1.516 . S
C1522 C1521 1.516 . S
C1522 C1523 1.502 . S
C1522 C1524 1.561 . S
C1522 C1525 1.526 . S
C1523 H1507 0.959 . S
C1523 H1508 0.959 . S
C1523 H1509 0.961 . S
C1523 C1522 1.502 . S
C1524 H1510 0.960 . S
C1524 H1511 0.961 . S
C1524 H1512 0.959 . S
C1524 C1522 1.561 . S
C1525 C1522 1.526 . S
C1525 C1526 1.396 . S
C1525 C1530 1.390 . S
C1526 C1520 1.465 . S
C1526 C1525 1.396 . S
C1526 C1527 1.399 . S
C1527 H1513 0.929 . S
C1527 C1526 1.399 . S
C1527 C1528 1.385 . S
C1528 H1514 0.931 . S
C1528 C1527 1.385 . S
C1528 C1529 1.389 . S
C1529 C1528 1.389 . S
C1529 C1530 1.387 . S
C1530 H1515 0.930 . S
C1530 C1525 1.390 . S
C1530 C1529 1.387 . S
H1531 C1543 0.930 . S
H1532 C1545 0.930 . S
H1533 C1546 0.930 . S
H1534 C1550 0.959 . S
H1535 C1550 0.959 . S
H1536 C1550 0.961 . S
H1537 C1551 0.960 . S
H1538 C1551 0.961 . S
H1539 C1551 0.959 . S
H1540 C1554 0.929 . S
H1541 C1555 0.931 . S
H1542 C1557 0.930 . S
C1543 H1531 0.930 . S
C1543 C1544 1.399 . S
C1543 C1548 1.399 . S
C1544 C1543 1.399 . S
C1544 C1545 1.376 . S
C1545 H1532 0.930 . S
C1545 C1544 1.376 . S
C1545 C1546 1.388 . S
C1546 H1533 0.930 . S
C1546 C1545 1.388 . S
C1546 C1547 1.390 . S
C1547 C1546 1.390 . S
C1547 C1548 1.394 . S
C1547 C1553 1.465 . S
C1548 C1543 1.399 . S
C1548 C1547 1.394 . S
C1548 C1549 1.516 . S
C1549 C1548 1.516 . S
C1549 C1550 1.502 . S
C1549 C1551 1.561 . S
C1549 C1552 1.526 . S
C1550 H1534 0.959 . S
C1550 H1535 0.959 . S
C1550 H1536 0.961 . S
C1550 C1549 1.502 . S
C1551 H1537 0.960 . S
C1551 H1538 0.961 . S
C1551 H1539 0.959 . S
C1551 C1549 1.561 . S
C1552 C1549 1.526 . S
C1552 C1553 1.396 . S
C1552 C1557 1.390 . S
C1553 C1547 1.465 . S
C1553 C1552 1.396 . S
C1553 C1554 1.399 . S
C1554 H1540 0.929 . S
C1554 C1553 1.399 . S
C1554 C1555 1.385 . S
C1555 H1541 0.931 . S
C1555 C1554 1.385 . S
C1555 C1556 1.389 . S
C1556 C1555 1.389 . S
C1556 C1557 1.387 . S
C1557 H1542 0.930 . S
C1557 C1552 1.390 . S
C1557 C1556 1.387 . S
H1558 C1570 0.930 . S
H1559 C1572 0.930 . S
H1560 C1573 0.930 . S
H1561 C1577 0.959 . S
H1562 C1577 0.959 . S
H1563 C1577 0.961 . S
H1564 C1578 0.960 . S
H1565 C1578 0.961 . S
H1566 C1578 0.959 . S
H1567 C1581 0.929 . S
H1568 C1582 0.931 . S
H1569 C1584 0.930 . S
C1570 H1558 0.930 . S
C1570 C1571 1.399 . S
C1570 C1575 1.399 . S
C1571 C1570 1.399 . S
C1571 C1572 1.376 . S
C1572 H1559 0.930 . S
C1572 C1571 1.376 . S
C1572 C1573 1.388 . S
C1573 H1560 0.930 . S
C1573 C1572 1.388 . S
C1573 C1574 1.390 . S
C1574 C1573 1.390 . S
C1574 C1575 1.394 . S
C1574 C1580 1.465 . S
C1575 C1570 1.399 . S
C1575 C1574 1.394 . S
C1575 C1576 1.516 . S
C1576 C1575 1.516 . S
C1576 C1577 1.502 . S
C1576 C1578 1.561 . S
C1576 C1579 1.526 . S
C1577 H1561 0.959 . S
C1577 H1562 0.959 . S
C1577 H1563 0.961 . S
C1577 C1576 1.502 . S
C1578 H1564 0.960 . S
C1578 H1565 0.961 . S
C1578 H1566 0.959 . S
C1578 C1576 1.561 . S
C1579 C1576 1.526 . S
C1579 C1580 1.396 . S
C1579 C1584 1.390 . S
C1580 C1574 1.465 . S
C1580 C1579 1.396 . S
C1580 C1581 1.399 . S
C1581 H1567 0.929 . S
C1581 C1580 1.399 . S
C1581 C1582 1.385 . S
C1582 H1568 0.931 . S
C1582 C1581 1.385 . S
C1582 C1583 1.389 . S
C1583 C1582 1.389 . S
C1583 C1584 1.387 . S
C1584 H1569 0.930 . S
C1584 C1579 1.390 . S
C1584 C1583 1.387 . S
H1585 C1597 0.930 . S
H1586 C1599 0.930 . S
H1587 C1600 0.930 . S
H1588 C1604 0.959 . S
H1589 C1604 0.959 . S
H1590 C1604 0.961 . S
H1591 C1605 0.960 . S
H1592 C1605 0.961 . S
H1593 C1605 0.959 . S
H1594 C1608 0.929 . S
H1595 C1609 0.931 . S
H1596 C1611 0.930 . S
C1597 H1585 0.930 . S
C1597 C1598 1.399 . S
C1597 C1602 1.399 . S
C1598 C1597 1.399 . S
C1598 C1599 1.376 . S
C1599 H1586 0.930 . S
C1599 C1598 1.376 . S
C1599 C1600 1.388 . S
C1600 H1587 0.930 . S
C1600 C1599 1.388 . S
C1600 C1601 1.390 . S
C1601 C1600 1.390 . S
C1601 C1602 1.394 . S
C1601 C1607 1.465 . S
C1602 C1597 1.399 . S
C1602 C1601 1.394 . S
C1602 C1603 1.516 . S
C1603 C1602 1.516 . S
C1603 C1604 1.502 . S
C1603 C1605 1.561 . S
C1603 C1606 1.526 . S
C1604 H1588 0.959 . S
C1604 H1589 0.959 . S
C1604 H1590 0.961 . S
C1604 C1603 1.502 . S
C1605 H1591 0.960 . S
C1605 H1592 0.961 . S
C1605 H1593 0.959 . S
C1605 C1603 1.561 . S
C1606 C1603 1.526 . S
C1606 C1607 1.396 . S
C1606 C1611 1.390 . S
C1607 C1601 1.465 . S
C1607 C1606 1.396 . S
C1607 C1608 1.399 . S
C1608 H1594 0.929 . S
C1608 C1607 1.399 . S
C1608 C1609 1.385 . S
C1609 H1595 0.931 . S
C1609 C1608 1.385 . S
C1609 C1610 1.389 . S
C1610 C1609 1.389 . S
C1610 C1611 1.387 . S
C1611 H1596 0.930 . S
C1611 C1606 1.390 . S
C1611 C1610 1.387 . S
H1612 C1624 0.930 . S
H1613 C1626 0.930 . S
H1614 C1627 0.930 . S
H1615 C1631 0.959 . S
H1616 C1631 0.959 . S
H1617 C1631 0.961 . S
H1618 C1632 0.960 . S
H1619 C1632 0.961 . S
H1620 C1632 0.959 . S
H1621 C1635 0.929 . S
H1622 C1636 0.931 . S
H1623 C1638 0.930 . S
C1624 H1612 0.930 . S
C1624 C1625 1.399 . S
C1624 C1629 1.399 . S
C1625 C1624 1.399 . S
C1625 C1626 1.376 . S
C1626 H1613 0.930 . S
C1626 C1625 1.376 . S
C1626 C1627 1.388 . S
C1627 H1614 0.930 . S
C1627 C1626 1.388 . S
C1627 C1628 1.390 . S
C1628 C1627 1.390 . S
C1628 C1629 1.394 . S
C1628 C1634 1.465 . S
C1629 C1624 1.399 . S
C1629 C1628 1.394 . S
C1629 C1630 1.516 . S
C1630 C1629 1.516 . S
C1630 C1631 1.502 . S
C1630 C1632 1.561 . S
C1630 C1633 1.526 . S
C1631 H1615 0.959 . S
C1631 H1616 0.959 . S
C1631 H1617 0.961 . S
C1631 C1630 1.502 . S
C1632 H1618 0.960 . S
C1632 H1619 0.961 . S
C1632 H1620 0.959 . S
C1632 C1630 1.561 . S
C1633 C1630 1.526 . S
C1633 C1634 1.396 . S
C1633 C1638 1.390 . S
C1634 C1628 1.465 . S
C1634 C1633 1.396 . S
C1634 C1635 1.399 . S
C1635 H1621 0.929 . S
C1635 C1634 1.399 . S
C1635 C1636 1.385 . S
C1636 H1622 0.931 . S
C1636 C1635 1.385 . S
C1636 C1637 1.389 . S
C1637 C1636 1.389 . S
C1637 C1638 1.387 . S
C1638 H1623 0.930 . S
C1638 C1633 1.390 . S
C1638 C1637 1.387 . S
H1639 C1651 0.930 . S
H1640 C1653 0.930 . S
H1641 C1654 0.930 . S
H1642 C1658 0.959 . S
H1643 C1658 0.959 . S
H1644 C1658 0.961 . S
H1645 C1659 0.960 . S
H1646 C1659 0.961 . S
H1647 C1659 0.959 . S
H1648 C1662 0.929 . S
H1649 C1663 0.931 . S
H1650 C1665 0.930 . S
C1651 H1639 0.930 . S
C1651 C1652 1.399 . S
C1651 C1656 1.399 . S
C1652 C1651 1.399 . S
C1652 C1653 1.376 . S
C1653 H1640 0.930 . S
C1653 C1652 1.376 . S
C1653 C1654 1.388 . S
C1654 H1641 0.930 . S
C1654 C1653 1.388 . S
C1654 C1655 1.390 . S
C1655 C1654 1.390 . S
C1655 C1656 1.394 . S
C1655 C1661 1.465 . S
C1656 C1651 1.399 . S
C1656 C1655 1.394 . S
C1656 C1657 1.516 . S
C1657 C1656 1.516 . S
C1657 C1658 1.502 . S
C1657 C1659 1.561 . S
C1657 C1660 1.526 . S
C1658 H1642 0.959 . S
C1658 H1643 0.959 . S
C1658 H1644 0.961 . S
C1658 C1657 1.502 . S
C1659 H1645 0.960 . S
C1659 H1646 0.961 . S
C1659 H1647 0.959 . S
C1659 C1657 1.561 . S
C1660 C1657 1.526 . S
C1660 C1661 1.396 . S
C1660 C1665 1.390 . S
C1661 C1655 1.465 . S
C1661 C1660 1.396 . S
C1661 C1662 1.399 . S
C1662 H1648 0.929 . S
C1662 C1661 1.399 . S
C1662 C1663 1.385 . S
C1663 H1649 0.931 . S
C1663 C1662 1.385 . S
C1663 C1664 1.389 . S
C1664 C1663 1.389 . S
C1664 C1665 1.387 . S
C1665 H1650 0.930 . S
C1665 C1660 1.390 . S
C1665 C1664 1.387 . S
H1666 C1678 0.930 . S
H1667 C1680 0.930 . S
H1668 C1681 0.930 . S
H1669 C1685 0.959 . S
H1670 C1685 0.959 . S
H1671 C1685 0.961 . S
H1672 C1686 0.960 . S
H1673 C1686 0.961 . S
H1674 C1686 0.959 . S
H1675 C1689 0.929 . S
H1676 C1690 0.931 . S
H1677 C1692 0.930 . S
C1678 H1666 0.930 . S
C1678 C1679 1.399 . S
C1678 C1683 1.399 . S
C1679 C1678 1.399 . S
C1679 C1680 1.376 . S
C1680 H1667 0.930 . S
C1680 C1679 1.376 . S
C1680 C1681 1.388 . S
C1681 H1668 0.930 . S
C1681 C1680 1.388 . S
C1681 C1682 1.390 . S
C1682 C1681 1.390 . S
C1682 C1683 1.394 . S
C1682 C1688 1.465 . S
C1683 C1678 1.399 . S
C1683 C1682 1.394 . S
C1683 C1684 1.516 . S
C1684 C1683 1.516 . S
C1684 C1685 1.502 . S
C1684 C1686 1.561 . S
C1684 C1687 1.526 . S
C1685 H1669 0.959 . S
C1685 H1670 0.959 . S
C1685 H1671 0.961 . S
C1685 C1684 1.502 . S
C1686 H1672 0.960 . S
C1686 H1673 0.961 . S
C1686 H1674 0.959 . S
C1686 C1684 1.561 . S
C1687 C1684 1.526 . S
C1687 C1688 1.396 . S
C1687 C1692 1.390 . S
C1688 C1682 1.465 . S
C1688 C1687 1.396 . S
C1688 C1689 1.399 . S
C1689 H1675 0.929 . S
C1689 C1688 1.399 . S
C1689 C1690 1.385 . S
C1690 H1676 0.931 . S
C1690 C1689 1.385 . S
C1690 C1691 1.389 . S
C1691 C1690 1.389 . S
C1691 C1692 1.387 . S
C1692 H1677 0.930 . S
C1692 C1687 1.390 . S
C1692 C1691 1.387 . S
H1693 C1705 0.930 . S
H1694 C1707 0.930 . S
H1695 C1708 0.930 . S
H1696 C1712 0.959 . S
H1697 C1712 0.959 . S
H1698 C1712 0.961 . S
H1699 C1713 0.960 . S
H1700 C1713 0.961 . S
H1701 C1713 0.959 . S
H1702 C1716 0.929 . S
H1703 C1717 0.931 . S
H1704 C1719 0.930 . S
C1705 H1693 0.930 . S
C1705 C1706 1.399 . S
C1705 C1710 1.399 . S
C1706 C1705 1.399 . S
C1706 C1707 1.376 . S
C1707 H1694 0.930 . S
C1707 C1706 1.376 . S
C1707 C1708 1.388 . S
C1708 H1695 0.930 . S
C1708 C1707 1.388 . S
C1708 C1709 1.390 . S
C1709 C1708 1.390 . S
C1709 C1710 1.394 . S
C1709 C1715 1.465 . S
C1710 C1705 1.399 . S
C1710 C1709 1.394 . S
C1710 C1711 1.516 . S
C1711 C1710 1.516 . S
C1711 C1712 1.502 . S
C1711 C1713 1.561 . S
C1711 C1714 1.526 . S
C1712 H1696 0.959 . S
C1712 H1697 0.959 . S
C1712 H1698 0.961 . S
C1712 C1711 1.502 . S
C1713 H1699 0.960 . S
C1713 H1700 0.961 . S
C1713 H1701 0.959 . S
C1713 C1711 1.561 . S
C1714 C1711 1.526 . S
C1714 C1715 1.396 . S
C1714 C1719 1.390 . S
C1715 C1709 1.465 . S
C1715 C1714 1.396 . S
C1715 C1716 1.399 . S
C1716 H1702 0.929 . S
C1716 C1715 1.399 . S
C1716 C1717 1.385 . S
C1717 H1703 0.931 . S
C1717 C1716 1.385 . S
C1717 C1718 1.389 . S
C1718 C1717 1.389 . S
C1718 C1719 1.387 . S
C1719 H1704 0.930 . S
C1719 C1714 1.390 . S
C1719 C1718 1.387 . S
H1720 C1732 0.930 . S
H1721 C1734 0.930 . S
H1722 C1735 0.930 . S
H1723 C1739 0.959 . S
H1724 C1739 0.959 . S
H1725 C1739 0.961 . S
H1726 C1740 0.960 . S
H1727 C1740 0.961 . S
H1728 C1740 0.959 . S
H1729 C1743 0.929 . S
H1730 C1744 0.931 . S
H1731 C1746 0.930 . S
C1732 H1720 0.930 . S
C1732 C1733 1.399 . S
C1732 C1737 1.399 1_565 S
C1733 C1732 1.399 . S
C1733 C1734 1.376 . S
C1734 H1721 0.930 . S
C1734 C1733 1.376 . S
C1734 C1735 1.388 1_565 S
C1735 H1722 0.930 . S
C1735 C1734 1.388 1_545 S
C1735 C1736 1.390 . S
C1736 C1735 1.390 . S
C1736 C1737 1.394 . S
C1736 C1742 1.465 . S
C1737 C1732 1.399 1_545 S
C1737 C1736 1.394 . S
C1737 C1738 1.516 . S
C1738 C1737 1.516 . S
C1738 C1739 1.502 . S
C1738 C1740 1.561 . S
C1738 C1741 1.526 . S
C1739 H1723 0.959 . S
C1739 H1724 0.959 . S
C1739 H1725 0.961 . S
C1739 C1738 1.502 . S
C1740 H1726 0.960 . S
C1740 H1727 0.961 . S
C1740 H1728 0.959 . S
C1740 C1738 1.561 . S
C1741 C1738 1.526 . S
C1741 C1742 1.396 . S
C1741 C1746 1.390 . S
C1742 C1736 1.465 . S
C1742 C1741 1.396 . S
C1742 C1743 1.399 . S
C1743 H1729 0.929 . S
C1743 C1742 1.399 . S
C1743 C1744 1.385 . S
C1744 H1730 0.931 . S
C1744 C1743 1.385 . S
C1744 C1745 1.389 . S
C1745 C1744 1.389 . S
C1745 C1746 1.387 . S
C1746 H1731 0.930 . S
C1746 C1741 1.390 . S
C1746 C1745 1.387 . S
H1747 C1759 0.930 . S
H1748 C1761 0.930 . S
H1749 C1762 0.930 . S
H1750 C1766 0.959 . S
H1751 C1766 0.959 . S
H1752 C1766 0.961 . S
H1753 C1767 0.960 . S
H1754 C1767 0.961 . S
H1755 C1767 0.959 . S
H1756 C1770 0.929 . S
H1757 C1771 0.931 . S
H1758 C1773 0.933 . S
C1759 H1747 0.930 . S
C1759 C1760 1.399 . S
C1759 C1764 1.399 . S
C1760 C1759 1.399 . S
C1760 C1761 1.376 . S
C1761 H1748 0.930 . S
C1761 C1760 1.376 . S
C1761 C1762 1.388 . S
C1762 H1749 0.930 . S
C1762 C1761 1.388 . S
C1762 C1763 1.390 . S
C1763 C1762 1.390 . S
C1763 C1764 1.394 . S
C1763 C1769 1.465 . S
C1764 C1759 1.399 . S
C1764 C1763 1.394 . S
C1764 C1765 1.516 . S
C1765 C1764 1.516 . S
C1765 C1766 1.502 . S
C1765 C1767 1.561 . S
C1765 C1768 1.526 . S
C1766 H1750 0.959 . S
C1766 H1751 0.959 . S
C1766 H1752 0.961 . S
C1766 C1765 1.502 . S
C1767 H1753 0.960 . S
C1767 H1754 0.961 . S
C1767 H1755 0.959 . S
C1767 C1765 1.561 . S
C1768 C1765 1.526 . S
C1768 C1769 1.396 . S
C1768 C1773 1.390 . S
C1769 C1763 1.465 . S
C1769 C1768 1.396 . S
C1769 C1770 1.399 . S
C1770 H1756 0.929 . S
C1770 C1769 1.399 . S
C1770 C1771 1.385 1_565 S
C1771 H1757 0.931 . S
C1771 C1770 1.385 1_545 S
C1771 C1772 1.389 . S
C1772 C1771 1.389 . S
C1772 C1773 1.387 1_545 S
C1773 H1758 0.933 . S
C1773 C1768 1.390 . S
C1773 C1772 1.387 1_565 S
H1774 C1786 0.923 1_545 S
H1775 C1788 0.930 . S
H1776 C1789 0.930 . S
H1777 C1793 0.959 . S
H1778 C1793 0.959 . S
H1779 C1793 0.961 . S
H1780 C1794 0.960 . S
H1781 C1794 0.961 . S
H1782 C1794 0.959 . S
H1783 C1797 0.929 . S
H1784 C1798 0.931 . S
H1785 C1800 0.930 . S
C1786 H1774 0.923 1_565 S
C1786 C1787 1.383 1_565 S
C1786 C1791 1.423 . S
C1787 C1786 1.383 1_545 S
C1787 C1788 1.376 . S
C1788 H1775 0.930 . S
C1788 C1787 1.376 . S
C1788 C1789 1.388 1_545 S
C1789 H1776 0.930 . S
C1789 C1788 1.388 1_565 S
C1789 C1790 1.390 . S
C1790 C1789 1.390 . S
C1790 C1791 1.394 . S
C1790 C1796 1.465 . S
C1791 C1786 1.423 . S
C1791 C1790 1.394 . S
C1791 C1792 1.516 . S
C1792 C1791 1.516 . S
C1792 C1793 1.502 . S
C1792 C1794 1.561 . S
C1792 C1795 1.526 . S
C1793 H1777 0.959 . S
C1793 H1778 0.959 . S
C1793 H1779 0.961 . S
C1793 C1792 1.502 . S
C1794 H1780 0.960 . S
C1794 H1781 0.961 . S
C1794 H1782 0.959 . S
C1794 C1792 1.561 . S
C1795 C1792 1.526 . S
C1795 C1796 1.396 . S
C1795 C1800 1.390 . S
C1796 C1790 1.465 . S
C1796 C1795 1.396 . S
C1796 C1797 1.399 . S
C1797 H1783 0.929 . S
C1797 C1796 1.399 . S
C1797 C1798 1.385 . S
C1798 H1784 0.931 . S
C1798 C1797 1.385 . S
C1798 C1799 1.389 . S
C1799 C1798 1.389 . S
C1799 C1800 1.387 . S
C1800 H1785 0.930 . S
C1800 C1795 1.390 . S
C1800 C1799 1.387 . S
H1801 C1813 0.930 . S
H1802 C1815 0.930 . S
H1803 C1816 0.930 . S
H1804 C1820 0.959 . S
H1805 C1820 0.959 . S
H1806 C1820 0.961 . S
H1807 C1821 0.960 . S
H1808 C1821 0.961 . S
H1809 C1821 0.959 . S
H1810 C1824 0.929 . S
H1811 C1825 0.931 . S
H1812 C1827 0.930 . S
C1813 H1801 0.930 . S
C1813 C1814 1.399 . S
C1813 C1818 1.399 1_565 S
C1814 C1813 1.399 . S
C1814 C1815 1.376 . S
C1815 H1802 0.930 . S
C1815 C1814 1.376 . S
C1815 C1816 1.388 1_565 S
C1816 H1803 0.930 . S
C1816 C1815 1.388 1_545 S
C1816 C1817 1.390 . S
C1817 C1816 1.390 . S
C1817 C1818 1.394 . S
C1817 C1823 1.465 . S
C1818 C1813 1.399 1_545 S
C1818 C1817 1.394 . S
C1818 C1819 1.516 . S
C1819 C1818 1.516 . S
C1819 C1820 1.502 . S
C1819 C1821 1.561 . S
C1819 C1822 1.526 . S
C1820 H1804 0.959 . S
C1820 H1805 0.959 . S
C1820 H1806 0.961 . S
C1820 C1819 1.502 . S
C1821 H1807 0.960 . S
C1821 H1808 0.961 . S
C1821 H1809 0.959 . S
C1821 C1819 1.561 . S
C1822 C1819 1.526 . S
C1822 C1823 1.396 . S
C1822 C1827 1.390 . S
C1823 C1817 1.465 . S
C1823 C1822 1.396 . S
C1823 C1824 1.399 . S
C1824 H1810 0.929 . S
C1824 C1823 1.399 . S
C1824 C1825 1.385 . S
C1825 H1811 0.931 . S
C1825 C1824 1.385 . S
C1825 C1826 1.389 . S
C1826 C1825 1.389 . S
C1826 C1827 1.387 . S
C1827 H1812 0.930 . S
C1827 C1822 1.390 . S
C1827 C1826 1.387 . S
H1828 C1840 0.930 . S
H1829 C1842 0.930 . S
H1830 C1843 0.930 . S
H1831 C1847 0.959 . S
H1832 C1847 0.959 . S
H1833 C1847 0.961 . S
H1834 C1848 0.960 . S
H1835 C1848 0.961 . S
H1836 C1848 0.959 . S
H1837 C1851 0.929 . S
H1838 C1852 0.931 . S
H1839 C1854 0.930 . S
C1840 H1828 0.930 . S
C1840 C1841 1.399 . S
C1840 C1845 1.399 . S
C1841 C1840 1.399 . S
C1841 C1842 1.376 . S
C1842 H1829 0.930 . S
C1842 C1841 1.376 . S
C1842 C1843 1.388 . S
C1843 H1830 0.930 . S
C1843 C1842 1.388 . S
C1843 C1844 1.390 . S
C1844 C1843 1.390 . S
C1844 C1845 1.394 . S
C1844 C1850 1.465 . S
C1845 C1840 1.399 . S
C1845 C1844 1.394 . S
C1845 C1846 1.516 . S
C1846 C1845 1.516 . S
C1846 C1847 1.502 . S
C1846 C1848 1.561 . S
C1846 C1849 1.526 . S
C1847 H1831 0.959 . S
C1847 H1832 0.959 . S
C1847 H1833 0.961 . S
C1847 C1846 1.502 . S
C1848 H1834 0.960 . S
C1848 H1835 0.961 . S
C1848 H1836 0.959 . S
C1848 C1846 1.561 . S
C1849 C1846 1.526 . S
C1849 C1850 1.396 . S
C1849 C1854 1.390 1_565 S
C1850 C1844 1.465 . S
C1850 C1849 1.396 . S
C1850 C1851 1.399 . S
C1851 H1837 0.929 . S
C1851 C1850 1.399 . S
C1851 C1852 1.385 1_565 S
C1852 H1838 0.931 . S
C1852 C1851 1.385 1_545 S
C1852 C1853 1.389 . S
C1853 C1852 1.389 . S
C1853 C1854 1.387 . S
C1854 H1839 0.930 . S
C1854 C1849 1.390 1_545 S
C1854 C1853 1.387 . S
H1855 C1867 0.930 . S
H1856 C1869 0.930 . S
H1857 C1870 0.930 . S
H1858 C1874 0.959 . S
H1859 C1874 0.959 . S
H1860 C1874 0.961 . S
H1861 C1875 0.960 . S
H1862 C1875 0.961 . S
H1863 C1875 0.959 . S
H1864 C1878 0.929 . S
H1865 C1879 0.931 . S
H1866 C1881 0.927 1_565 S
C1867 H1855 0.930 . S
C1867 C1868 1.399 . S
C1867 C1872 1.399 . S
C1868 C1867 1.399 . S
C1868 C1869 1.376 . S
C1869 H1856 0.930 . S
C1869 C1868 1.376 . S
C1869 C1870 1.388 . S
C1870 H1857 0.930 . S
C1870 C1869 1.388 . S
C1870 C1871 1.390 . S
C1871 C1870 1.390 . S
C1871 C1872 1.394 . S
C1871 C1877 1.465 . S
C1872 C1867 1.399 . S
C1872 C1871 1.394 . S
C1872 C1873 1.516 . S
C1873 C1872 1.516 . S
C1873 C1874 1.502 . S
C1873 C1875 1.561 . S
C1873 C1876 1.526 . S
C1874 H1858 0.959 . S
C1874 H1859 0.959 . S
C1874 H1860 0.961 . S
C1874 C1873 1.502 . S
C1875 H1861 0.960 . S
C1875 H1862 0.961 . S
C1875 H1863 0.959 . S
C1875 C1873 1.561 . S
C1876 C1873 1.526 . S
C1876 C1877 1.396 . S
C1876 C1881 1.399 . S
C1877 C1871 1.465 . S
C1877 C1876 1.396 . S
C1877 C1878 1.399 . S
C1878 H1864 0.929 . S
C1878 C1877 1.399 . S
C1878 C1879 1.385 1_545 S
C1879 H1865 0.931 . S
C1879 C1878 1.385 1_565 S
C1879 C1880 1.389 . S
C1880 C1879 1.389 . S
C1880 C1881 1.380 1_565 S
C1881 H1866 0.927 1_545 S
C1881 C1876 1.399 . S
C1881 C1880 1.380 1_545 S
H1882 C1894 0.930 1_565 S
H1883 C1896 0.930 . S
H1884 C1897 0.930 . S
H1885 C1901 0.959 . S
H1886 C1901 0.959 . S
H1887 C1901 0.961 . S
H1888 C1902 0.960 . S
H1889 C1902 0.961 . S
H1890 C1902 0.959 . S
H1891 C1905 0.929 . S
H1892 C1906 0.931 . S
H1893 C1908 0.930 . S
C1894 H1882 0.930 1_545 S
C1894 C1895 1.399 1_545 S
C1894 C1899 1.399 . S
C1895 C1894 1.399 1_565 S
C1895 C1896 1.376 . S
C1896 H1883 0.930 . S
C1896 C1895 1.376 . S
C1896 C1897 1.388 1_565 S
C1897 H1884 0.930 . S
C1897 C1896 1.388 1_545 S
C1897 C1898 1.390 . S
C1898 C1897 1.390 . S
C1898 C1899 1.394 . S
C1898 C1904 1.465 . S
C1899 C1894 1.399 . S
C1899 C1898 1.394 . S
C1899 C1900 1.516 . S
C1900 C1899 1.516 . S
C1900 C1901 1.502 . S
C1900 C1902 1.561 . S
C1900 C1903 1.526 . S
C1901 H1885 0.959 . S
C1901 H1886 0.959 . S
C1901 H1887 0.961 . S
C1901 C1900 1.502 . S
C1902 H1888 0.960 . S
C1902 H1889 0.961 . S
C1902 H1890 0.959 . S
C1902 C1900 1.561 . S
C1903 C1900 1.526 . S
C1903 C1904 1.396 . S
C1903 C1908 1.390 . S
C1904 C1898 1.465 . S
C1904 C1903 1.396 . S
C1904 C1905 1.399 . S
C1905 H1891 0.929 . S
C1905 C1904 1.399 . S
C1905 C1906 1.385 . S
C1906 H1892 0.931 . S
C1906 C1905 1.385 . S
C1906 C1907 1.389 . S
C1907 C1906 1.389 . S
C1907 C1908 1.387 . S
C1908 H1893 0.930 . S
C1908 C1903 1.390 . S
C1908 C1907 1.387 . S
H1909 C1921 0.930 . S
H1910 C1923 0.930 . S
H1911 C1924 0.930 . S
H1912 C1928 0.959 . S
H1913 C1928 0.959 . S
H1914 C1928 0.961 . S
H1915 C1929 0.960 . S
H1916 C1929 0.961 . S
H1917 C1929 0.959 . S
H1918 C1932 0.929 . S
H1919 C1933 0.931 . S
H1920 C1935 0.930 . S
C1921 H1909 0.930 . S
C1921 C1922 1.399 . S
C1921 C1926 1.399 . S
C1922 C1921 1.399 . S
C1922 C1923 1.376 . S
C1923 H1910 0.930 . S
C1923 C1922 1.376 . S
C1923 C1924 1.388 . S
C1924 H1911 0.930 . S
C1924 C1923 1.388 . S
C1924 C1925 1.390 . S
C1925 C1924 1.390 . S
C1925 C1926 1.394 . S
C1925 C1931 1.465 . S
C1926 C1921 1.399 . S
C1926 C1925 1.394 . S
C1926 C1927 1.516 . S
C1927 C1926 1.516 . S
C1927 C1928 1.502 . S
C1927 C1929 1.561 . S
C1927 C1930 1.526 . S
C1928 H1912 0.959 . S
C1928 H1913 0.959 . S
C1928 H1914 0.961 . S
C1928 C1927 1.502 . S
C1929 H1915 0.960 . S
C1929 H1916 0.961 . S
C1929 H1917 0.959 . S
C1929 C1927 1.561 . S
C1930 C1927 1.526 . S
C1930 C1931 1.396 . S
C1930 C1935 1.390 1_565 S
C1931 C1925 1.465 . S
C1931 C1930 1.396 . S
C1931 C1932 1.399 . S
C1932 H1918 0.929 . S
C1932 C1931 1.399 . S
C1932 C1933 1.385 1_565 S
C1933 H1919 0.931 . S
C1933 C1932 1.385 1_545 S
C1933 C1934 1.389 . S
C1934 C1933 1.389 . S
C1934 C1935 1.387 . S
C1935 H1920 0.930 . S
C1935 C1930 1.390 1_545 S
C1935 C1934 1.387 . S
C653 C19 1.557 . S
C665 C379 1.561 . S
C680 C59 1.557 . S
C692 C339 1.561 . S
C707 C459 1.554 . S
C719 C99 1.560 . S
C734 C139 1.557 . S
C746 C419 1.561 . S
C761 C530 1.558 . S
C773 C170 1.558 . S
C788 C490 1.539 . S
C800 C210 1.539 . S
C815 C610 1.536 . S
C827 C250 1.536 . S
C842 C290 1.537 . S
C854 C570 1.537 . S
C869 C98 1.663 . S
C881 C18 1.659 . S
C896 C138 1.668 . S
C908 C58 1.663 . S
C923 C249 1.657 . S
C935 C169 1.669 . S
C950 C209 1.659 . S
C962 C289 1.658 . S
C977 C418 1.668 . S
C989 C338 1.663 . S
C1004 C458 1.660 . S
C1016 C378 1.657 . S
C1031 C489 1.691 . S
C1043 C569 1.680 . S
C1058 C529 1.691 . S
C1070 C609 1.682 . S
C1085 C218 1.512 . S
C1097 C9 1.525 . S
C1112 C178 1.497 . S
C1124 C49 1.485 . S
C1139 C89 1.550 . S
C1151 C298 1.550 . S
C1166 C258 1.488 . S
C1178 C129 1.478 . S
C1193 C329 1.474 . S
C1205 C538 1.469 . S
C1220 C498 1.496 . S
C1232 C369 1.484 . S
C1247 C409 1.548 . S
C1259 C618 1.550 . S
C1274 C578 1.513 . S
C1286 C449 1.525 . S
C1301 C50 1.653 . S
C1313 C10 1.610 . S
C1328 C130 1.588 . S
C1340 C90 1.622 . S
C1355 C219 1.602 . S
C1367 C179 1.647 . S
C1382 C259 1.607 . S
C1394 C299 1.644 . S
C1409 C370 1.586 . S
C1421 C330 1.627 . S
C1436 C450 1.635 . S
C1448 C410 1.639 . S
C1463 C499 1.593 . S
C1475 C539 1.652 . S
C1490 C579 1.608 . S
C1502 C619 1.644 . S
C1517 C6 1.597 . S
C1529 C15 1.635 . S
C1544 C46 1.596 . S
C1556 C55 1.638 . S
C1571 C86 1.597 . S
C1583 C95 1.637 . S
C1598 C135 1.607 . S
C1610 C126 1.623 . S
C1625 C175 1.628 . S
C1637 C166 1.616 . S
C1652 C206 1.638 . S
C1664 C215 1.603 . S
C1679 C255 1.604 . S
C1691 C246 1.626 . S
C1706 C295 1.602 . S
C1718 C286 1.629 . S
C1733 C335 1.640 . S
C1745 C326 1.599 . S
C1760 C366 1.641 . S
C1772 C375 1.598 . S
C1787 C415 1.628 . S
C1799 C406 1.615 . S
C1814 C455 1.610 . S
C1826 C446 1.621 . S
C1841 C495 1.600 . S
C1853 C486 1.639 . S
C1868 C535 1.607 . S
C1880 C526 1.623 . S
C1895 C566 1.617 . S
C1907 C575 1.626 . S
C1922 C615 1.628 . S
C1934 C606 1.616 . S
