# Generated by pormake.
# Topology uoa, (4)-cn, num edge types: 1
# Building blocks:
#     Node 0, Type 0, BuildingBlock: GALJAG_clean_sbu_0, # of connection points: 4
#     Node 1, Type 0, BuildingBlock: GALJAG_clean_sbu_0, # of connection points: 4
#     Node 2, Type 0, BuildingBlock: GALJAG_clean_sbu_0, # of connection points: 4
#     Node 3, Type 0, BuildingBlock: GALJAG_clean_sbu_0, # of connection points: 4
#     Node 4, Type 0, BuildingBlock: GALJAG_clean_sbu_0, # of connection points: 4
#     Node 5, Type 0, BuildingBlock: GALJAG_clean_sbu_0, # of connection points: 4
#     Node 6, Type 0, BuildingBlock: GALJAG_clean_sbu_0, # of connection points: 4
#     Node 7, Type 0, BuildingBlock: GALJAG_clean_sbu_0, # of connection points: 4
#     Node 8, Type 0, BuildingBlock: GALJAG_clean_sbu_0, # of connection points: 4
#     Node 9, Type 0, BuildingBlock: GALJAG_clean_sbu_0, # of connection points: 4
#     Node 10, Type 0, BuildingBlock: GALJAG_clean_sbu_0, # of connection points: 4
#     Node 11, Type 0, BuildingBlock: GALJAG_clean_sbu_0, # of connection points: 4
#     Node 12, Type 0, BuildingBlock: GALJAG_clean_sbu_0, # of connection points: 4
#     Node 13, Type 0, BuildingBlock: GALJAG_clean_sbu_0, # of connection points: 4
#     Node 14, Type 0, BuildingBlock: GALJAG_clean_sbu_0, # of connection points: 4
#     Node 15, Type 0, BuildingBlock: GALJAG_clean_sbu_0, # of connection points: 4
#     Node 16, Type 0, BuildingBlock: GALJAG_clean_sbu_0, # of connection points: 4
#     Node 17, Type 0, BuildingBlock: GALJAG_clean_sbu_0, # of connection points: 4
#     Node 18, Type 0, BuildingBlock: GALJAG_clean_sbu_0, # of connection points: 4
#     Node 19, Type 0, BuildingBlock: GALJAG_clean_sbu_0, # of connection points: 4
#     Node 20, Type 0, BuildingBlock: GALJAG_clean_sbu_0, # of connection points: 4
#     Node 21, Type 0, BuildingBlock: GALJAG_clean_sbu_0, # of connection points: 4
#     Node 22, Type 0, BuildingBlock: GALJAG_clean_sbu_0, # of connection points: 4
#     Node 23, Type 0, BuildingBlock: GALJAG_clean_sbu_0, # of connection points: 4
#     Node 24, Type 0, BuildingBlock: GALJAG_clean_sbu_0, # of connection points: 4
#     Node 25, Type 0, BuildingBlock: GALJAG_clean_sbu_0, # of connection points: 4
#     Node 26, Type 0, BuildingBlock: GALJAG_clean_sbu_0, # of connection points: 4
#     Node 27, Type 0, BuildingBlock: GALJAG_clean_sbu_0, # of connection points: 4
#     Node 28, Type 0, BuildingBlock: GALJAG_clean_sbu_0, # of connection points: 4
#     Node 29, Type 0, BuildingBlock: GALJAG_clean_sbu_0, # of connection points: 4
#     Node 30, Type 0, BuildingBlock: GALJAG_clean_sbu_0, # of connection points: 4
#     Node 31, Type 0, BuildingBlock: GALJAG_clean_sbu_0, # of connection points: 4
#     Edge 32, Type (0, 0), BuildingBlock: UVAHIK_clean_linker_0, # of connection points: 2
#     Edge 33, Type (0, 0), BuildingBlock: UVAHIK_clean_linker_0, # of connection points: 2
#     Edge 34, Type (0, 0), BuildingBlock: UVAHIK_clean_linker_0, # of connection points: 2
#     Edge 35, Type (0, 0), BuildingBlock: UVAHIK_clean_linker_0, # of connection points: 2
#     Edge 36, Type (0, 0), BuildingBlock: UVAHIK_clean_linker_0, # of connection points: 2
#     Edge 37, Type (0, 0), BuildingBlock: UVAHIK_clean_linker_0, # of connection points: 2
#     Edge 38, Type (0, 0), BuildingBlock: UVAHIK_clean_linker_0, # of connection points: 2
#     Edge 39, Type (0, 0), BuildingBlock: UVAHIK_clean_linker_0, # of connection points: 2
#     Edge 40, Type (0, 0), BuildingBlock: UVAHIK_clean_linker_0, # of connection points: 2
#     Edge 41, Type (0, 0), BuildingBlock: UVAHIK_clean_linker_0, # of connection points: 2
#     Edge 42, Type (0, 0), BuildingBlock: UVAHIK_clean_linker_0, # of connection points: 2
#     Edge 43, Type (0, 0), BuildingBlock: UVAHIK_clean_linker_0, # of connection points: 2
#     Edge 44, Type (0, 0), BuildingBlock: UVAHIK_clean_linker_0, # of connection points: 2
#     Edge 45, Type (0, 0), BuildingBlock: UVAHIK_clean_linker_0, # of connection points: 2
#     Edge 46, Type (0, 0), BuildingBlock: UVAHIK_clean_linker_0, # of connection points: 2
#     Edge 47, Type (0, 0), BuildingBlock: UVAHIK_clean_linker_0, # of connection points: 2
#     Edge 48, Type (0, 0), BuildingBlock: UVAHIK_clean_linker_0, # of connection points: 2
#     Edge 49, Type (0, 0), BuildingBlock: UVAHIK_clean_linker_0, # of connection points: 2
#     Edge 50, Type (0, 0), BuildingBlock: UVAHIK_clean_linker_0, # of connection points: 2
#     Edge 51, Type (0, 0), BuildingBlock: UVAHIK_clean_linker_0, # of connection points: 2
#     Edge 52, Type (0, 0), BuildingBlock: UVAHIK_clean_linker_0, # of connection points: 2
#     Edge 53, Type (0, 0), BuildingBlock: UVAHIK_clean_linker_0, # of connection points: 2
#     Edge 54, Type (0, 0), BuildingBlock: UVAHIK_clean_linker_0, # of connection points: 2
#     Edge 55, Type (0, 0), BuildingBlock: UVAHIK_clean_linker_0, # of connection points: 2
#     Edge 56, Type (0, 0), BuildingBlock: UVAHIK_clean_linker_0, # of connection points: 2
#     Edge 57, Type (0, 0), BuildingBlock: UVAHIK_clean_linker_0, # of connection points: 2
#     Edge 58, Type (0, 0), BuildingBlock: UVAHIK_clean_linker_0, # of connection points: 2
#     Edge 59, Type (0, 0), BuildingBlock: UVAHIK_clean_linker_0, # of connection points: 2
#     Edge 60, Type (0, 0), BuildingBlock: UVAHIK_clean_linker_0, # of connection points: 2
#     Edge 61, Type (0, 0), BuildingBlock: UVAHIK_clean_linker_0, # of connection points: 2
#     Edge 62, Type (0, 0), BuildingBlock: UVAHIK_clean_linker_0, # of connection points: 2
#     Edge 63, Type (0, 0), BuildingBlock: UVAHIK_clean_linker_0, # of connection points: 2
#     Edge 64, Type (0, 0), BuildingBlock: UVAHIK_clean_linker_0, # of connection points: 2
#     Edge 65, Type (0, 0), BuildingBlock: UVAHIK_clean_linker_0, # of connection points: 2
#     Edge 66, Type (0, 0), BuildingBlock: UVAHIK_clean_linker_0, # of connection points: 2
#     Edge 67, Type (0, 0), BuildingBlock: UVAHIK_clean_linker_0, # of connection points: 2
#     Edge 68, Type (0, 0), BuildingBlock: UVAHIK_clean_linker_0, # of connection points: 2
#     Edge 69, Type (0, 0), BuildingBlock: UVAHIK_clean_linker_0, # of connection points: 2
#     Edge 70, Type (0, 0), BuildingBlock: UVAHIK_clean_linker_0, # of connection points: 2
#     Edge 71, Type (0, 0), BuildingBlock: UVAHIK_clean_linker_0, # of connection points: 2
#     Edge 72, Type (0, 0), BuildingBlock: UVAHIK_clean_linker_0, # of connection points: 2
#     Edge 73, Type (0, 0), BuildingBlock: UVAHIK_clean_linker_0, # of connection points: 2
#     Edge 74, Type (0, 0), BuildingBlock: UVAHIK_clean_linker_0, # of connection points: 2
#     Edge 75, Type (0, 0), BuildingBlock: UVAHIK_clean_linker_0, # of connection points: 2
#     Edge 76, Type (0, 0), BuildingBlock: UVAHIK_clean_linker_0, # of connection points: 2
#     Edge 77, Type (0, 0), BuildingBlock: UVAHIK_clean_linker_0, # of connection points: 2
#     Edge 78, Type (0, 0), BuildingBlock: UVAHIK_clean_linker_0, # of connection points: 2
#     Edge 79, Type (0, 0), BuildingBlock: UVAHIK_clean_linker_0, # of connection points: 2
#     Edge 80, Type (0, 0), BuildingBlock: UVAHIK_clean_linker_0, # of connection points: 2
#     Edge 81, Type (0, 0), BuildingBlock: UVAHIK_clean_linker_0, # of connection points: 2
#     Edge 82, Type (0, 0), BuildingBlock: UVAHIK_clean_linker_0, # of connection points: 2
#     Edge 83, Type (0, 0), BuildingBlock: UVAHIK_clean_linker_0, # of connection points: 2
#     Edge 84, Type (0, 0), BuildingBlock: UVAHIK_clean_linker_0, # of connection points: 2
#     Edge 85, Type (0, 0), BuildingBlock: UVAHIK_clean_linker_0, # of connection points: 2
#     Edge 86, Type (0, 0), BuildingBlock: UVAHIK_clean_linker_0, # of connection points: 2
#     Edge 87, Type (0, 0), BuildingBlock: UVAHIK_clean_linker_0, # of connection points: 2
#     Edge 88, Type (0, 0), BuildingBlock: UVAHIK_clean_linker_0, # of connection points: 2
#     Edge 89, Type (0, 0), BuildingBlock: UVAHIK_clean_linker_0, # of connection points: 2
#     Edge 90, Type (0, 0), BuildingBlock: UVAHIK_clean_linker_0, # of connection points: 2
#     Edge 91, Type (0, 0), BuildingBlock: UVAHIK_clean_linker_0, # of connection points: 2
#     Edge 92, Type (0, 0), BuildingBlock: UVAHIK_clean_linker_0, # of connection points: 2
#     Edge 93, Type (0, 0), BuildingBlock: UVAHIK_clean_linker_0, # of connection points: 2
#     Edge 94, Type (0, 0), BuildingBlock: UVAHIK_clean_linker_0, # of connection points: 2
#     Edge 95, Type (0, 0), BuildingBlock: UVAHIK_clean_linker_0, # of connection points: 2
# Relax obj value: 0.050
# Max RMSD: 0.160
# Mean RMSD: 0.160
data_MOF--net-uoa--node1-GALJAG_clean_sbu_0--edge1-UVAHIK_clean_linker_0
_symmetry_space_group_name_H-M    P1
_symmetry_Int_Tables_number       1
_symmetry_cell_setting            triclinic
loop_
_symmetry_equiv_pos_as_xyz
'x, y, z'
_cell_length_a     96.29021
_cell_length_b     96.267977
_cell_length_c     36.7667
_cell_angle_alpha  90.016706
_cell_angle_beta   90.000647
_cell_angle_gamma 89.987757
loop_
_atom_site_label
_atom_site_type_symbol
_atom_site_fract_x
_atom_site_fract_y
_atom_site_fract_z
_atom_type_partial_charge
In0 In 0.01114 0.09982 0.03027 0.0
O1 O 0.02978 0.09439 0.06598 0.0
O2 O 0.03204 0.11075 0.02765 0.0
C3 C 0.00423 0.07288 0.02275 0.0
C4 C 0.99752 0.11164 0.087 0.0
C5 C 0.00774 0.10889 0.96117 0.0
O6 O 0.01638 0.0768 0.03051 0.0
O7 O 0.99552 0.08257 0.01877 0.0
O8 O 9e-05 0.11312 0.98682 0.0
O9 O 0.01693 0.10031 0.97061 0.0
C10 C 0.03755 0.10361 0.05254 0.0
O11 O 0.00594 0.11832 0.06742 0.0
O12 O 0.99542 0.09935 0.07668 0.0
In13 In 0.14676 0.77037 0.28053 0.0
O14 O 0.13241 0.75746 0.3172 0.0
O15 O 0.1537 0.75914 0.33173 0.0
C16 C 0.13528 0.76692 0.21389 0.0
C17 C 0.13808 0.7947 0.30867 0.0
C18 C 0.17375 0.7652 0.26711 0.0
O19 O 0.13563 0.75735 0.23732 0.0
O20 O 0.14029 0.77831 0.2245 0.0
O21 O 0.16965 0.77659 0.28046 0.0
O22 O 0.16423 0.75656 0.26034 0.0
C23 C 0.14185 0.7545 0.33974 0.0
O24 O 0.1495 0.79369 0.29195 0.0
O25 O 0.13106 0.78367 0.30999 0.0
In26 In 0.47811 0.89434 0.54341 0.0
O27 O 0.49184 0.87957 0.57665 0.0
O28 O 0.48881 0.90015 0.59616 0.0
C29 C 0.47865 0.88253 0.47658 0.0
C30 C 0.45408 0.88727 0.57559 0.0
C31 C 0.48474 0.92078 0.52737 0.0
O32 O 0.48923 0.88299 0.4968 0.0
O33 O 0.46784 0.88761 0.49053 0.0
O34 O 0.4727 0.91728 0.53748 0.0
O35 O 0.49338 0.91095 0.52535 0.0
C36 C 0.49414 0.88836 0.60149 0.0
O37 O 0.4557 0.89895 0.56053 0.0
O38 O 0.46435 0.87919 0.57335 0.0
In39 In 0.34573 0.22661 0.78605 0.0
O40 O 0.35498 0.2415 0.82842 0.0
O41 O 0.33606 0.23111 0.8408 0.0
C42 C 0.35997 0.2324 0.72466 0.0
C43 C 0.35624 0.20261 0.81079 0.0
C44 C 0.31986 0.23125 0.7613 0.0
O45 O 0.35782 0.24142 0.74898 0.0
O46 O 0.35539 0.22047 0.73202 0.0
O47 O 0.32418 0.21917 0.76872 0.0
O48 O 0.32858 0.24083 0.76645 0.0
C49 C 0.34544 0.23931 0.85138 0.0
O50 O 0.34445 0.20319 0.79568 0.0
O51 O 0.36273 0.21398 0.81222 0.0
In52 In 0.02621 0.90469 0.46144 0.0
O53 O 0.04942 0.90641 0.44921 0.0
O54 O 0.04139 0.88684 0.46621 0.0
C55 C 0.01876 0.93169 0.46069 0.0
C56 C 0.01597 0.89538 0.39751 0.0
C57 C 0.02015 0.89772 0.53076 0.0
O58 O 0.03129 0.92786 0.46203 0.0
O59 O 0.01006 0.92192 0.45939 0.0
O60 O 0.01449 0.8917 0.50399 0.0
O61 O 0.02866 0.90714 0.52233 0.0
C62 C 0.05183 0.89377 0.45608 0.0
O63 O 0.00952 0.8936 0.42712 0.0
O64 O 0.0273 0.90181 0.40045 0.0
In65 In 0.34624 0.77651 0.72859 0.0
O66 O 0.35743 0.76034 0.69278 0.0
O67 O 0.34821 0.77791 0.6674 0.0
C68 C 0.35381 0.77061 0.79752 0.0
C69 C 0.35674 0.80226 0.72396 0.0
C70 C 0.31944 0.7685 0.73033 0.0
O71 O 0.35948 0.76471 0.77057 0.0
O72 O 0.34447 0.77925 0.78941 0.0
O73 O 0.323 0.78113 0.73055 0.0
O74 O 0.32938 0.75999 0.72863 0.0
C75 C 0.355 0.76682 0.66354 0.0
O76 O 0.34406 0.79977 0.71789 0.0
O77 O 0.36395 0.79181 0.73263 0.0
In78 In 0.46958 0.08925 0.95316 0.0
O79 O 0.48586 0.10032 0.91783 0.0
O80 O 0.46934 0.08964 0.89159 0.0
C81 C 0.4761 0.09746 0.02108 0.0
C82 C 0.4449 0.1018 0.94591 0.0
C83 C 0.47562 0.06195 0.9579 0.0
O84 O 0.48397 0.09984 0.99427 0.0
O85 O 0.46507 0.09102 0.0135 0.0
O86 O 0.46327 0.06635 0.95705 0.0
O87 O 0.48476 0.07128 0.95602 0.0
C88 C 0.48013 0.09692 0.88822 0.0
O89 O 0.44627 0.08881 0.94211 0.0
O90 O 0.45592 0.10829 0.95359 0.0
In91 In 0.14581 0.21543 0.21334 0.0
O92 O 0.14721 0.19204 0.2035 0.0
O93 O 0.1272 0.20155 0.20485 0.0
C94 C 0.17199 0.22165 0.23296 0.0
C95 C 0.14366 0.2257 0.14523 0.0
C96 C 0.13395 0.223 0.27664 0.0
O97 O 0.16792 0.20924 0.22953 0.0
O98 O 0.16292 0.23074 0.2261 0.0
O99 O 0.13419 0.23103 0.24939 0.0
O100 O 0.13936 0.21124 0.27146 0.0
C101 C 0.1342 0.19055 0.20102 0.0
O102 O 0.1354 0.22933 0.17026 0.0
O103 O 0.15284 0.21713 0.15486 0.0
In104 In 0.96905 0.90064 0.96231 0.0
O105 O 0.97576 0.88386 0.92122 0.0
O106 O 0.98483 0.90382 0.91694 0.0
C107 C 0.97438 0.88999 0.02891 0.0
C108 C 0.94315 0.89451 0.93995 0.0
C109 C 0.97308 0.92792 0.97529 0.0
O110 O 0.98277 0.88866 0.00274 0.0
O111 O 0.96333 0.89635 0.02116 0.0
O112 O 0.9614 0.92311 0.96611 0.0
O113 O 0.98258 0.91899 0.97802 0.0
C114 C 0.9838 0.89179 0.90385 0.0
O115 O 0.95008 0.90437 0.9264 0.0
O116 O 0.94922 0.88793 0.96501 0.0
In117 In 0.85297 0.21931 0.71193 0.0
O118 O 0.84718 0.20151 0.67367 0.0
O119 O 0.8602 0.19699 0.71884 0.0
C120 C 0.82708 0.22994 0.71002 0.0
C121 C 0.86872 0.23163 0.65984 0.0
C122 C 0.85972 0.2215 0.78321 0.0
O123 O 0.82959 0.21734 0.70302 0.0
O124 O 0.83762 0.23715 0.71774 0.0
O125 O 0.8672 0.22675 0.75854 0.0
O126 O 0.84911 0.21524 0.77176 0.0
C127 C 0.85418 0.19252 0.69069 0.0
O128 O 0.87227 0.22056 0.6755 0.0
O129 O 0.85769 0.23692 0.67195 0.0
In130 In 0.53047 0.08979 0.45391 0.0
O131 O 0.51465 0.10163 0.41858 0.0
O132 O 0.53008 0.08941 0.39242 0.0
C133 C 0.52451 0.09934 0.52105 0.0
C134 C 0.55595 0.10004 0.44202 0.0
C135 C 0.52351 0.06279 0.46167 0.0
O136 O 0.51646 0.10124 0.49435 0.0
O137 O 0.53553 0.09285 0.51366 0.0
O138 O 0.53594 0.06689 0.46215 0.0
O139 O 0.51466 0.07227 0.45708 0.0
C140 C 0.51985 0.09744 0.38899 0.0
O141 O 0.55323 0.08725 0.43894 0.0
O142 O 0.54588 0.10757 0.45187 0.0
In143 In 0.65641 0.77827 0.21602 0.0
O144 O 0.64485 0.76118 0.18421 0.0
O145 O 0.6519 0.77906 0.15573 0.0
C146 C 0.65062 0.77296 0.28635 0.0
C147 C 0.646 0.80412 0.21211 0.0
C148 C 0.68324 0.77045 0.21274 0.0
O149 O 0.64336 0.76795 0.26083 0.0
O150 O 0.6607 0.78036 0.27615 0.0
O151 O 0.67959 0.78305 0.21331 0.0
O152 O 0.67335 0.76186 0.21314 0.0
C153 C 0.64568 0.76756 0.15423 0.0
O154 O 0.65832 0.80139 0.2026 0.0
O155 O 0.63915 0.79387 0.22381 0.0
In156 In 0.97065 0.10072 0.52493 0.0
O157 O 0.94744 0.1019 0.51275 0.0
O158 O 0.95367 0.09893 0.5677 0.0
C159 C 0.97738 0.07403 0.50963 0.0
C160 C 0.98298 0.11185 0.58445 0.0
C161 C 0.97644 0.11511 0.46312 0.0
O162 O 0.96495 0.07806 0.51184 0.0
O163 O 0.98625 0.08339 0.51503 0.0
O164 O 0.98527 0.10767 0.47919 0.0
O165 O 0.96492 0.11587 0.47913 0.0
C166 C 0.94379 0.1007 0.54561 0.0
O167 O 0.97556 0.11903 0.56327 0.0
O168 O 0.98453 0.0994 0.57479 0.0
In169 In 0.66329 0.21744 0.28954 0.0
O170 O 0.65104 0.23434 0.32056 0.0
O171 O 0.65982 0.21757 0.35028 0.0
C172 C 0.65794 0.22231 0.21862 0.0
C173 C 0.65249 0.19194 0.29771 0.0
C174 C 0.69034 0.22452 0.29277 0.0
O175 O 0.66604 0.21291 0.2296 0.0
O176 O 0.65227 0.22935 0.24362 0.0
O177 O 0.68631 0.21206 0.2928 0.0
O178 O 0.68072 0.2334 0.29142 0.0
C179 C 0.65282 0.22861 0.35117 0.0
O180 O 0.66506 0.19463 0.30461 0.0
O181 O 0.64546 0.20206 0.28586 0.0
In182 In 0.52016 0.89348 0.0423 0.0
O183 O 0.50669 0.87886 0.07676 0.0
O184 O 0.50955 0.89965 0.09486 0.0
C185 C 0.51952 0.88107 0.97621 0.0
C186 C 0.54457 0.88705 0.07354 0.0
C187 C 0.51329 0.91977 0.02502 0.0
O188 O 0.50894 0.88178 0.99639 0.0
O189 O 0.53037 0.88616 0.98991 0.0
O190 O 0.52526 0.91647 0.03613 0.0
O191 O 0.50483 0.9098 0.02264 0.0
C192 C 0.50434 0.88786 0.10104 0.0
O193 O 0.54276 0.89838 0.05685 0.0
O194 O 0.53425 0.87899 0.07359 0.0
In195 In 0.8483 0.77374 0.76901 0.0
O196 O 0.86663 0.76914 0.80725 0.0
O197 O 0.84844 0.75692 0.81254 0.0
C198 C 0.85843 0.76907 0.70147 0.0
C199 C 0.85277 0.80019 0.78991 0.0
C200 C 0.82092 0.76797 0.76288 0.0
O201 O 0.86107 0.76107 0.72781 0.0
O202 O 0.85097 0.77938 0.70944 0.0
O203 O 0.82531 0.77963 0.77339 0.0
O204 O 0.8303 0.75933 0.75524 0.0
C205 C 0.86037 0.75971 0.82452 0.0
O206 O 0.85681 0.79551 0.75965 0.0
O207 O 0.84628 0.79159 0.80946 0.0
In208 In 0.52778 0.59803 0.54598 0.0
O209 O 0.55078 0.59467 0.55799 0.0
O210 O 0.54426 0.61463 0.53961 0.0
C211 C 0.51917 0.57139 0.54684 0.0
C212 C 0.51817 0.60815 0.6098 0.0
C213 C 0.5218 0.60529 0.47681 0.0
O214 O 0.53184 0.57471 0.54571 0.0
O215 O 0.51087 0.58151 0.54807 0.0
O216 O 0.5168 0.61181 0.50369 0.0
O217 O 0.52963 0.59528 0.48508 0.0
C218 C 0.55416 0.60698 0.55 0.0
O219 O 0.51161 0.60985 0.58036 0.0
O220 O 0.52933 0.60143 0.60676 0.0
In221 In 0.65975 0.27767 0.77985 0.0
O222 O 0.65917 0.30112 0.79054 0.0
O223 O 0.64127 0.28897 0.80297 0.0
C224 C 0.68633 0.27343 0.76024 0.0
C225 C 0.65896 0.26432 0.84429 0.0
C226 C 0.64756 0.27231 0.71525 0.0
O227 O 0.68194 0.28529 0.76964 0.0
O228 O 0.67732 0.26391 0.76082 0.0
O229 O 0.64828 0.26332 0.74025 0.0
O230 O 0.6526 0.284 0.72336 0.0
C231 C 0.64696 0.30078 0.80324 0.0
O232 O 0.65033 0.26172 0.81923 0.0
O233 O 0.66801 0.27328 0.83628 0.0
In234 In 0.96481 0.40748 0.03883 0.0
O235 O 0.98234 0.39634 0.07009 0.0
O236 O 0.96412 0.40233 0.09873 0.0
C237 C 0.97078 0.40332 0.96805 0.0
C238 C 0.93963 0.39549 0.04127 0.0
C239 C 0.97127 0.43453 0.04613 0.0
O240 O 0.97578 0.39567 0.99278 0.0
O241 O 0.96299 0.41295 0.97922 0.0
O242 O 0.95885 0.43029 0.04522 0.0
O243 O 0.98034 0.4251 0.04379 0.0
C244 C 0.97588 0.39662 0.10004 0.0
O245 O 0.94153 0.40794 0.05106 0.0
O246 O 0.95034 0.38935 0.02968 0.0
In247 In 0.85167 0.71872 0.26454 0.0
O248 O 0.86217 0.73528 0.30061 0.0
O249 O 0.85252 0.71793 0.32596 0.0
C250 C 0.86008 0.72409 0.19592 0.0
C251 C 0.86227 0.69312 0.27314 0.0
C252 C 0.82483 0.72654 0.26029 0.0
O253 O 0.86515 0.73046 0.22295 0.0
O254 O 0.85099 0.71516 0.20382 0.0
O255 O 0.82847 0.71394 0.26096 0.0
O256 O 0.8347 0.73511 0.26224 0.0
C257 C 0.85922 0.72906 0.32993 0.0
O258 O 0.84939 0.69553 0.27553 0.0
O259 O 0.86968 0.70358 0.26572 0.0
In260 In 0.5243 0.40726 0.9434 0.0
O261 O 0.54749 0.40847 0.93106 0.0
O262 O 0.53869 0.38874 0.94401 0.0
C263 C 0.5178 0.4345 0.94712 0.0
C264 C 0.51393 0.39828 0.87944 0.0
C265 C 0.5177 0.39968 0.01182 0.0
O266 O 0.5302 0.43024 0.94818 0.0
O267 O 0.50883 0.42508 0.94364 0.0
O268 O 0.50939 0.39805 0.98555 0.0
O269 O 0.52925 0.40494 0.00342 0.0
C270 C 0.54939 0.39557 0.93529 0.0
O271 O 0.50893 0.39436 0.90953 0.0
O272 O 0.52383 0.40678 0.88188 0.0
In273 In 0.86055 0.26384 0.22327 0.0
O274 O 0.85546 0.28658 0.21075 0.0
O275 O 0.87491 0.27856 0.1932 0.0
C276 C 0.83406 0.25824 0.24103 0.0
C277 C 0.86509 0.24863 0.16256 0.0
C278 C 0.87339 0.26105 0.28854 0.0
O279 O 0.83795 0.27004 0.23004 0.0
O280 O 0.84356 0.2492 0.24289 0.0
O281 O 0.87326 0.25144 0.2652 0.0
O282 O 0.86751 0.27206 0.27841 0.0
C283 C 0.8667 0.28875 0.19406 0.0
O284 O 0.87484 0.25226 0.1835 0.0
O285 O 0.85315 0.25217 0.17305 0.0
In286 In 0.97747 0.60032 0.47142 0.0
O287 O 0.96013 0.59528 0.43128 0.0
O288 O 0.95596 0.61007 0.47282 0.0
C289 C 0.98564 0.57359 0.47108 0.0
C290 C 0.99191 0.61483 0.42069 0.0
C291 C 0.97877 0.60676 0.54305 0.0
O292 O 0.97343 0.57726 0.46307 0.0
O293 O 0.99375 0.58342 0.47917 0.0
O294 O 0.98554 0.61347 0.51945 0.0
O295 O 0.97142 0.59708 0.5304 0.0
C296 C 0.95157 0.60368 0.44513 0.0
O297 O 0.98133 0.61964 0.43644 0.0
O298 O 0.99572 0.60311 0.4322 0.0
In299 In 0.6494 0.72717 0.72132 0.0
O300 O 0.65273 0.70385 0.71123 0.0
O301 O 0.63493 0.71364 0.68847 0.0
C302 C 0.67633 0.73236 0.73543 0.0
C303 C 0.64424 0.74322 0.66265 0.0
C304 C 0.63712 0.73017 0.78714 0.0
O305 O 0.67229 0.72109 0.72129 0.0
O306 O 0.66676 0.74089 0.74265 0.0
O307 O 0.63796 0.73996 0.76449 0.0
O308 O 0.64205 0.7188 0.77614 0.0
C309 C 0.64197 0.70268 0.69182 0.0
O310 O 0.63472 0.73942 0.68408 0.0
O311 O 0.65627 0.73937 0.67161 0.0
In312 In 0.46676 0.4062 0.45217 0.0
O313 O 0.48198 0.3959 0.41242 0.0
O314 O 0.46869 0.41192 0.39272 0.0
C315 C 0.47208 0.39278 0.5151 0.0
C316 C 0.4418 0.39647 0.43254 0.0
C317 C 0.47402 0.43234 0.47025 0.0
O318 O 0.48082 0.39336 0.48952 0.0
O319 O 0.46064 0.39859 0.50846 0.0
O320 O 0.4615 0.42881 0.4659 0.0
O321 O 0.48271 0.42276 0.46521 0.0
C322 C 0.47795 0.40305 0.38556 0.0
O323 O 0.44329 0.40856 0.44552 0.0
O324 O 0.45277 0.38929 0.43087 0.0
In325 In 0.34539 0.72276 0.22679 0.0
O326 O 0.35332 0.70082 0.23707 0.0
O327 O 0.34406 0.705 0.18575 0.0
C328 C 0.31807 0.72848 0.23555 0.0
C329 C 0.35668 0.73689 0.17043 0.0
C330 C 0.35663 0.72766 0.29295 0.0
O331 O 0.32231 0.71697 0.22355 0.0
O332 O 0.32756 0.73695 0.24335 0.0
O333 O 0.35845 0.73583 0.26649 0.0
O334 O 0.34945 0.71708 0.28574 0.0
C335 C 0.35 0.69627 0.2061 0.0
O336 O 0.3634 0.72783 0.18794 0.0
O337 O 0.34467 0.73925 0.18254 0.0
In338 In 0.01894 0.60271 0.98236 0.0
O339 O 0.04142 0.59738 0.9666 0.0
O340 O 0.03336 0.6172 0.95221 0.0
C341 C 0.01123 0.57678 0.00045 0.0
C342 C 0.00335 0.60798 0.9229 0.0
C343 C 0.01815 0.61526 0.04826 0.0
O344 O 0.02328 0.57961 0.98897 0.0
O345 O 0.00309 0.58704 0.00267 0.0
O346 O 0.00841 0.61645 0.02548 0.0
O347 O 0.0283 0.60814 0.03733 0.0
C348 C 0.04343 0.60886 0.95087 0.0
O349 O 0.00648 0.61736 0.94553 0.0
O350 O 0.00757 0.59599 0.93115 0.0
In351 In 0.15216 0.27785 0.70292 0.0
O352 O 0.13918 0.26228 0.66974 0.0
O353 O 0.14878 0.27915 0.64216 0.0
C354 C 0.14713 0.2711 0.77287 0.0
C355 C 0.14155 0.30363 0.70101 0.0
C356 C 0.17881 0.26964 0.69723 0.0
O357 O 0.15575 0.28027 0.7634 0.0
O358 O 0.14085 0.26522 0.74685 0.0
O359 O 0.17541 0.28228 0.69951 0.0
O360 O 0.16878 0.26123 0.69751 0.0
C361 C 0.14129 0.26847 0.63989 0.0
O362 O 0.15409 0.30116 0.69308 0.0
O363 O 0.13455 0.29313 0.7104 0.0
In364 In 0.47216 0.60188 0.04311 0.0
O365 O 0.45275 0.59645 0.07612 0.0
O366 O 0.45203 0.61405 0.04121 0.0
C367 C 0.47858 0.57545 0.02564 0.0
C368 C 0.48572 0.6103 0.10385 0.0
C369 C 0.4775 0.61367 0.97793 0.0
O370 O 0.46628 0.57916 0.03259 0.0
O371 O 0.48747 0.58501 0.02761 0.0
O372 O 0.48586 0.61464 0.0043 0.0
O373 O 0.46649 0.60713 0.98487 0.0
C374 C 0.44575 0.60653 0.06395 0.0
O375 O 0.47884 0.61864 0.08444 0.0
O376 O 0.48609 0.59805 0.09195 0.0
In377 In 0.15193 0.7155 0.78475 0.0
O378 O 0.14055 0.73276 0.81648 0.0
O379 O 0.14811 0.7152 0.84541 0.0
C380 C 0.14579 0.72042 0.71437 0.0
C381 C 0.14179 0.68961 0.79125 0.0
C382 C 0.17871 0.72351 0.7861 0.0
O383 O 0.1386 0.72552 0.73991 0.0
O384 O 0.15588 0.71303 0.72458 0.0
O385 O 0.17516 0.71088 0.78595 0.0
O386 O 0.16875 0.73203 0.78634 0.0
C387 C 0.14182 0.72666 0.84676 0.0
O388 O 0.15421 0.69254 0.79939 0.0
O389 O 0.1347 0.69967 0.7794 0.0
In390 In 0.02021 0.40205 0.53092 0.0
O391 O 0.00658 0.38909 0.56923 0.0
O392 O 0.00954 0.41045 0.58153 0.0
C393 C 0.01608 0.38967 0.46565 0.0
C394 C 0.04404 0.39257 0.55997 0.0
C395 C 0.01716 0.42901 0.51358 0.0
O396 O 0.00646 0.39128 0.48858 0.0
O397 O 0.02779 0.39388 0.47614 0.0
O398 O 0.0283 0.42424 0.52676 0.0
O399 O 0.00762 0.42017 0.50918 0.0
C400 C 0.00427 0.39901 0.59087 0.0
O401 O 0.04349 0.40397 0.54303 0.0
O402 O 0.03278 0.38592 0.56111 0.0
In403 In 0.33545 0.28023 0.30074 0.0
O404 O 0.35022 0.26554 0.33154 0.0
O405 O 0.33926 0.28102 0.36128 0.0
C406 C 0.34055 0.27555 0.22976 0.0
C407 C 0.34417 0.30663 0.30501 0.0
C408 C 0.30955 0.26983 0.30569 0.0
O409 O 0.33182 0.28431 0.24102 0.0
O410 O 0.34686 0.26894 0.25451 0.0
O411 O 0.31193 0.28272 0.30486 0.0
O412 O 0.32022 0.26225 0.30457 0.0
C413 C 0.34786 0.27116 0.36204 0.0
O414 O 0.332 0.30313 0.31414 0.0
O415 O 0.35173 0.29686 0.29348 0.0
C416 C 0.99841 0.10946 0.63844 0.0
C417 C 0.98794 0.11682 0.62016 0.0
C418 C 0.00163 0.11256 0.67455 0.0
C419 C 0.98501 0.1247 0.75692 0.0
H420 H 0.02244 0.12393 0.79575 0.0
C421 C 0.99574 0.12271 0.91224 0.0
C422 C 0.00607 0.11322 0.9228 0.0
C423 C 0.99405 0.12624 0.87549 0.0
C424 C 0.01191 0.12411 0.7854 0.0
H425 H 0.97296 0.13353 0.62478 0.0
H426 H 0.97847 0.13882 0.68847 0.0
H427 H 0.0189 0.12487 0.73011 0.0
H428 H 0.02282 0.10013 0.90325 0.0
H429 H 0.01974 0.106 0.83967 0.0
H430 H 0.97799 0.12319 0.81201 0.0
C431 C 0.98422 0.13071 0.67464 0.0
C432 C 0.0099 0.12473 0.7478 0.0
C433 C 0.98115 0.12776 0.63819 0.0
C434 C 0.01478 0.10751 0.89606 0.0
C435 C 0.01309 0.11099 0.85952 0.0
C436 C 0.98702 0.12396 0.79458 0.0
C437 C 0.99431 0.12294 0.69337 0.0
C438 C 0.99644 0.12465 0.73312 0.0
C439 C 0.00267 0.12034 0.84864 0.0
C440 C 0.0005 0.12324 0.80923 0.0
H441 H 0.00378 0.10096 0.62521 0.0
H442 H 0.00937 0.1063 0.68833 0.0
H443 H 0.97451 0.12449 0.74636 0.0
H444 H 0.98889 0.1273 0.93228 0.0
H445 H 0.98599 0.13356 0.86811 0.0
C446 C 0.13543 0.72355 0.91181 0.0
C447 C 0.13673 0.73238 0.88159 0.0
C448 C 0.13166 0.72885 0.94571 0.0
C449 C 0.1346 0.76001 0.00026 0.0
H450 H 0.1099 0.74031 0.06569 0.0
C451 C 0.13046 0.77567 0.15104 0.0
C452 C 0.13082 0.76459 0.17589 0.0
C453 C 0.12804 0.77321 0.11408 0.0
C454 C 0.11687 0.74591 0.04785 0.0
H455 H 0.1348 0.75362 0.86285 0.0
H456 H 0.12845 0.76301 0.92275 0.0
H457 H 0.11139 0.7333 0.00201 0.0
H458 H 0.12835 0.74233 0.18184 0.0
H459 H 0.12445 0.73798 0.11748 0.0
H460 H 0.14069 0.77214 0.04625 0.0
C461 C 0.13027 0.75195 0.91994 0.0
C462 C 0.11766 0.74193 0.01134 0.0
C463 C 0.13385 0.74659 0.88572 0.0
C464 C 0.12809 0.75109 0.16335 0.0
C465 C 0.12577 0.74861 0.12639 0.0
C466 C 0.13391 0.76392 0.03685 0.0
C467 C 0.12927 0.74313 0.95033 0.0
C468 C 0.12679 0.74872 0.98739 0.0
C469 C 0.12602 0.7596 0.10112 0.0
C470 C 0.1253 0.75668 0.06134 0.0
H471 H 0.13754 0.71253 0.90942 0.0
H472 H 0.13115 0.72181 0.96866 0.0
H473 H 0.14184 0.76533 0.98253 0.0
H474 H 0.13244 0.78621 0.15997 0.0
H475 H 0.12804 0.78195 0.09556 0.0
C476 C 0.49407 0.89549 0.1599 0.0
C477 C 0.49748 0.88465 0.13597 0.0
C478 C 0.48941 0.89262 0.19502 0.0
C479 C 0.49245 0.86624 0.26588 0.0
H480 H 0.46543 0.88957 0.31471 0.0
C481 C 0.46686 0.87752 0.41753 0.0
C482 C 0.47912 0.87797 0.43822 0.0
C483 C 0.4674 0.87532 0.38001 0.0
C484 C 0.47283 0.88277 0.30149 0.0
H485 H 0.49819 0.86228 0.12947 0.0
H486 H 0.49 0.85723 0.19118 0.0
H487 H 0.46846 0.89152 0.24924 0.0
H488 H 0.50149 0.87568 0.43624 0.0
H489 H 0.50249 0.87205 0.37062 0.0
H490 H 0.49697 0.85766 0.31834 0.0
C491 C 0.49102 0.86796 0.18271 0.0
C492 C 0.47467 0.884 0.26396 0.0
C493 C 0.49559 0.87085 0.14734 0.0
C494 C 0.49187 0.87538 0.42099 0.0
C495 C 0.49243 0.87323 0.38338 0.0
C496 C 0.49062 0.86501 0.30351 0.0
C497 C 0.48811 0.87883 0.20713 0.0
C498 C 0.48474 0.87601 0.24587 0.0
C499 C 0.48022 0.87358 0.3623 0.0
C500 C 0.48101 0.87349 0.32187 0.0
H501 H 0.49544 0.90624 0.15192 0.0
H502 H 0.48743 0.90124 0.21323 0.0
H503 H 0.50036 0.86 0.25278 0.0
H504 H 0.45685 0.87937 0.43012 0.0
H505 H 0.45779 0.87538 0.3647 0.0
C506 C 0.35388 0.27546 0.42684 0.0
C507 C 0.35436 0.26665 0.39642 0.0
C508 C 0.35906 0.27109 0.46034 0.0
C509 C 0.36341 0.23987 0.5136 0.0
H510 H 0.38291 0.26439 0.57993 0.0
C511 C 0.36887 0.22515 0.66377 0.0
C512 C 0.36556 0.23582 0.68835 0.0
C513 C 0.37172 0.2282 0.62738 0.0
C514 C 0.37744 0.25742 0.56181 0.0
H515 H 0.361 0.24648 0.37683 0.0
H516 H 0.36984 0.23865 0.43605 0.0
H517 H 0.38004 0.2711 0.51632 0.0
H518 H 0.36346 0.25809 0.69475 0.0
H519 H 0.36802 0.26342 0.63117 0.0
H520 H 0.36002 0.22657 0.55915 0.0
C521 C 0.36551 0.24899 0.4337 0.0
C522 C 0.37586 0.26124 0.52535 0.0
C523 C 0.3605 0.25347 0.39989 0.0
C524 C 0.36602 0.24966 0.67642 0.0
C525 C 0.3687 0.2527 0.63991 0.0
C526 C 0.36487 0.23611 0.55009 0.0
C527 C 0.3647 0.25773 0.46434 0.0
C528 C 0.3685 0.25267 0.50112 0.0
C529 C 0.37114 0.24196 0.61465 0.0
C530 C 0.37157 0.24501 0.57492 0.0
H531 H 0.34928 0.2857 0.42494 0.0
H532 H 0.35812 0.27798 0.48351 0.0
H533 H 0.35755 0.23313 0.49567 0.0
H534 H 0.36873 0.21439 0.67234 0.0
H535 H 0.3739 0.21969 0.60894 0.0
C536 C 0.00023 0.89675 0.85306 0.0
C537 C 0.99011 0.88807 0.86852 0.0
C538 C 0.00474 0.89461 0.81741 0.0
C539 C 0.99215 0.88125 0.7308 0.0
H540 H 0.03019 0.8873 0.70009 0.0
C541 C 0.00798 0.88341 0.57835 0.0
C542 C 0.01723 0.89413 0.56914 0.0
C543 C 0.00534 0.88024 0.61492 0.0
C544 C 0.0195 0.88565 0.70817 0.0
H545 H 0.97716 0.86999 0.85931 0.0
H546 H 0.98501 0.86629 0.79664 0.0
H547 H 0.02479 0.88571 0.76476 0.0
H548 H 0.03097 0.90992 0.59098 0.0
H549 H 0.02622 0.9046 0.65429 0.0
H550 H 0.98676 0.88175 0.67431 0.0
C551 C 0.98942 0.87476 0.81221 0.0
C552 C 0.01643 0.88469 0.74523 0.0
C553 C 0.98502 0.87681 0.84813 0.0
C554 C 0.02382 0.90156 0.59714 0.0
C555 C 0.02119 0.89842 0.63352 0.0
C556 C 0.99521 0.88229 0.69368 0.0
C557 C -0.00086 0.88381 0.79626 0.0
C558 C 0.00268 0.88281 0.75699 0.0
C559 C 0.01192 0.88772 0.64295 0.0
C560 C 0.00887 0.88487 0.68196 0.0
H561 H 0.00432 0.90552 0.8681 0.0
H562 H 0.01213 0.90184 0.80584 0.0
H563 H 0.98143 0.87994 0.73902 0.0
H564 H 0.00278 0.87748 0.55733 0.0
H565 H 0.99821 0.87188 0.62123 0.0
C566 C 0.36781 0.75796 0.84497 0.0
C567 C 0.35766 0.76786 0.8358 0.0
C568 C 0.3711 0.75542 0.88153 0.0
C569 C 0.36752 0.7707 0.97412 0.0
H570 H 0.36953 0.73252 0.00713 0.0
C571 C 0.35412 0.75377 0.11945 0.0
C572 C 0.36149 0.74278 0.13551 0.0
C573 C 0.35699 0.75788 0.08382 0.0
C574 C 0.36928 0.74325 0.99831 0.0
H575 H 0.3431 0.78289 0.85767 0.0
H576 H 0.34867 0.77838 0.9209 0.0
H577 H 0.36821 0.73745 0.94212 0.0
H578 H 0.37808 0.72788 0.1275 0.0
H579 H 0.38308 0.73503 0.06492 0.0
H580 H 0.36801 0.77646 0.03037 0.0
C581 C 0.35429 0.77272 0.90011 0.0
C582 C 0.36852 0.74608 0.96102 0.0
C583 C 0.35099 0.77522 0.86378 0.0
C584 C 0.37227 0.73642 0.11585 0.0
C585 C 0.37506 0.74044 0.07996 0.0
C586 C 0.36823 0.76787 0.01133 0.0
C587 C 0.36436 0.76278 0.90953 0.0
C588 C 0.36722 0.75983 0.94855 0.0
C589 C 0.36722 0.751 0.0633 0.0
C590 C 0.36873 0.7541 0.0239 0.0
H591 H 0.37314 0.75215 0.82395 0.0
H592 H 0.37896 0.74774 0.88787 0.0
H593 H 0.36685 0.78143 0.96539 0.0
H594 H 0.34573 0.75885 0.13392 0.0
H595 H 0.35067 0.76595 0.07171 0.0
C596 C 0.49343 0.10394 0.06887 0.0
C597 C 0.47962 0.10138 0.05876 0.0
C598 C 0.49682 0.10636 0.10532 0.0
C599 C 0.48281 0.1003 0.19818 0.0
H600 H 0.51486 0.12213 0.22653 0.0
C601 C 0.50073 0.10576 0.34802 0.0
C602 C 0.51452 0.10138 0.35284 0.0
C603 C 0.49559 0.1083 0.313 0.0
C604 C 0.50583 0.11608 0.21895 0.0
H605 H 0.45842 0.10011 0.07822 0.0
H606 H 0.4642 0.10495 0.14141 0.0
H607 H 0.50726 0.1222 0.16317 0.0
H608 H 0.53392 0.09686 0.32531 0.0
H609 H 0.52504 0.10159 0.26447 0.0
H610 H 0.48144 0.09425 0.25413 0.0
C611 C 0.47253 0.10457 0.12167 0.0
C612 C 0.50153 0.11601 0.18263 0.0
C613 C 0.46919 0.10189 0.08539 0.0
C614 C 0.52322 0.10016 0.32234 0.0
C615 C 0.51818 0.10296 0.28756 0.0
C616 C 0.48698 0.10057 0.23456 0.0
C617 C 0.48643 0.10651 0.13233 0.0
C618 C 0.49016 0.10784 0.17156 0.0
C619 C 0.50426 0.10681 0.28248 0.0
C620 C 0.49871 0.1082 0.24511 0.0
H621 H 0.50167 0.10354 0.04886 0.0
H622 H 0.50766 0.10759 0.11239 0.0
H623 H 0.47417 0.09368 0.19081 0.0
H624 H 0.49383 0.10677 0.37113 0.0
H625 H 0.48481 0.11127 0.3097 0.0
C626 C 0.13657 0.27227 0.57402 0.0
C627 C 0.13591 0.26352 0.60456 0.0
C628 C 0.1326 0.26744 0.53979 0.0
C629 C 0.13133 0.23556 0.48737 0.0
H630 H 0.11165 0.25813 0.4168 0.0
C631 C 0.12648 0.21725 0.33974 0.0
C632 C 0.12907 0.22732 0.31298 0.0
C633 C 0.12393 0.22118 0.37568 0.0
C634 C 0.11722 0.25172 0.4361 0.0
H635 H 0.13016 0.24301 0.62351 0.0
H636 H 0.12336 0.23445 0.56323 0.0
H637 H 0.11338 0.26593 0.47988 0.0
H638 H 0.13038 0.2494 0.3023 0.0
H639 H 0.12638 0.25631 0.36527 0.0
H640 H 0.13585 0.2217 0.44368 0.0
C641 C 0.12695 0.24506 0.56596 0.0
C642 C 0.11815 0.25617 0.47225 0.0
C643 C 0.13078 0.24996 0.6004 0.0
C644 C 0.12835 0.24143 0.3224 0.0
C645 C 0.126 0.24537 0.35852 0.0
C646 C 0.13052 0.23118 0.45123 0.0
C647 C 0.12799 0.25372 0.53524 0.0
C648 C 0.12543 0.24824 0.4981 0.0
C649 C 0.12415 0.23526 0.38582 0.0
C650 C 0.12366 0.23931 0.42494 0.0
H651 H 0.14044 0.2828 0.57642 0.0
H652 H 0.13367 0.27431 0.51662 0.0
H653 H 0.13719 0.22933 0.50653 0.0
H654 H 0.12682 0.20629 0.33312 0.0
H655 H 0.12218 0.21312 0.39571 0.0
C656 C 0.01983 0.89028 0.33187 0.0
C657 C 0.01074 0.89072 0.36176 0.0
C658 C 0.01494 0.88687 0.29729 0.0
C659 C 0.98392 0.88936 0.2419 0.0
H660 H 0.00447 0.86609 0.17463 0.0
C661 C 0.96695 0.88511 0.09265 0.0
C662 C 0.97757 0.88566 0.06653 0.0
C663 C 0.97006 0.8828 0.12925 0.0
C664 C 0.99865 0.8727 0.19296 0.0
H665 H 0.98947 0.88759 0.37912 0.0
H666 H 0.9808 0.88186 0.31813 0.0
H667 H 0.01163 0.86739 0.23826 0.0
H668 H -0.00027 0.88368 0.0579 0.0
H669 H 0.00528 0.88009 0.12193 0.0
H670 H 0.97138 0.89529 0.19665 0.0
C671 C 0.99174 0.8841 0.3217 0.0
C672 C 0.00272 0.87337 0.22945 0.0
C673 C 0.9967 0.88733 0.35654 0.0
C674 C 0.99133 0.88325 0.07746 0.0
C675 C 0.99448 0.88113 0.11421 0.0
C676 C 0.97994 0.88882 0.20538 0.0
C677 C 0.00081 0.88398 0.29168 0.0
C678 C 0.99553 0.88189 0.25415 0.0
C679 C 0.98391 0.8812 0.14073 0.0
C680 C 0.98739 0.88065 0.18025 0.0
H681 H 0.03073 0.89279 0.33509 0.0
H682 H 0.02214 0.88702 0.27466 0.0
H683 H 0.9783 0.89616 0.26019 0.0
H684 H 0.95622 0.8868 0.08491 0.0
H685 H 0.96161 0.88257 0.14866 0.0
C686 C 0.88036 0.24353 0.10903 0.0
C687 C 0.86744 0.24228 0.1265 0.0
C688 C 0.8819 0.23943 0.07269 0.0
C689 C 0.86619 0.21832 -0.00015 0.0
H690 H 0.87991 0.24679 0.93445 0.0
C691 C 0.85312 0.21768 0.84795 0.0
C692 C 0.86281 0.22263 0.82252 0.0
C693 C 0.85566 0.21884 0.88517 0.0
C694 C 0.87632 0.23859 0.95227 0.0
H695 H 0.84622 0.23515 0.12043 0.0
H696 H 0.84899 0.2277 0.05741 0.0
H697 H 0.88118 0.25039 7e-05 0.0
H698 H 0.88286 0.23253 0.81612 0.0
H699 H 0.88746 0.23435 0.88148 0.0
H700 H 0.86124 0.20653 0.95235 0.0
C701 C 0.8579 0.23191 0.07161 0.0
C702 C 0.87704 0.24067 0.9899 0.0
C703 C 0.8563 0.23621 0.10765 0.0
C704 C 0.87519 0.22867 0.83513 0.0
C705 C 0.87778 0.22975 0.87256 0.0
C706 C 0.86562 0.21617 0.96231 0.0
C707 C 0.87061 0.23378 0.05348 0.0
C708 C 0.87165 0.23071 0.01402 0.0
C709 C 0.86801 0.22487 0.89806 0.0
C710 C 0.8703 0.22644 0.93797 0.0
H711 H 0.88909 0.24826 0.12286 0.0
H712 H 0.89183 0.24092 0.0594 0.0
H713 H 0.86214 0.21039 0.01785 0.0
H714 H 0.84344 0.21305 0.83914 0.0
H715 H 0.84773 0.21526 0.90384 0.0
C716 C 0.47681 0.10011 0.82159 0.0
C717 C 0.48553 0.10091 0.85215 0.0
C718 C 0.48191 0.10313 0.78697 0.0
C719 C 0.51329 0.10115 0.73391 0.0
H720 H 0.49305 0.12347 0.66388 0.0
C721 C 0.53141 0.10403 0.58528 0.0
C722 C 0.52101 0.10348 0.55858 0.0
C723 C 0.528 0.10653 0.62162 0.0
C724 C 0.49877 0.1171 0.68296 0.0
H725 H 0.50633 0.10574 0.87068 0.0
H726 H 0.51541 0.11067 0.80961 0.0
H727 H 0.48528 0.12263 0.72706 0.0
H728 H 0.49894 0.10552 0.5486 0.0
H729 H 0.49285 0.1093 0.61213 0.0
H730 H 0.52629 0.0949 0.68989 0.0
C731 C 0.50459 0.10783 0.81271 0.0
C732 C 0.49437 0.11672 0.71918 0.0
C733 C 0.4994 0.10505 0.84755 0.0
C734 C 0.50717 0.10595 0.56865 0.0
C735 C 0.50372 0.10821 0.60512 0.0
C736 C 0.51757 0.10136 0.69762 0.0
C737 C 0.49589 0.1068 0.7821 0.0
C738 C 0.50146 0.10857 0.74485 0.0
C739 C 0.51407 0.10827 0.63223 0.0
C740 C 0.51025 0.10916 0.67148 0.0
H741 H 0.46605 0.097 0.82437 0.0
H742 H 0.47502 0.10211 0.76382 0.0
H743 H 0.51883 0.09465 0.75306 0.0
H744 H 0.5422 0.10231 0.57817 0.0
H745 H 0.5363 0.10686 0.64147 0.0
C746 C 0.62861 0.74854 0.61011 0.0
C747 C 0.64154 0.75001 0.62741 0.0
C748 C 0.62687 0.75287 0.57404 0.0
C749 C 0.64196 0.77471 0.50186 0.0
H750 H 0.62999 0.74569 0.43568 0.0
C751 C 0.65692 0.77568 0.3516 0.0
C752 C 0.64753 0.77083 0.32531 0.0
C753 C 0.65404 0.7742 0.38854 0.0
C754 C 0.63308 0.75403 0.45373 0.0
H755 H 0.66251 0.75784 0.62156 0.0
H756 H 0.65939 0.76573 0.55907 0.0
H757 H 0.62822 0.74208 0.50125 0.0
H758 H 0.62774 0.76059 0.31701 0.0
H759 H 0.62258 0.75814 0.38196 0.0
H760 H 0.64699 0.78662 0.45465 0.0
C761 C 0.65063 0.76115 0.57314 0.0
C762 C 0.63206 0.75195 0.4913 0.0
C763 C 0.65243 0.75661 0.60886 0.0
C764 C 0.63519 0.76438 0.33673 0.0
C765 C 0.63226 0.76296 0.3739 0.0
C766 C 0.64285 0.77685 0.46439 0.0
C767 C 0.63796 0.759 0.55505 0.0
C768 C 0.63687 0.76211 0.51568 0.0
C769 C 0.64164 0.76794 0.40024 0.0
C770 C 0.63885 0.76636 0.43985 0.0
H771 H 0.62007 0.74338 0.62375 0.0
H772 H 0.61699 0.75115 0.56071 0.0
H773 H 0.64557 0.78278 0.52009 0.0
H774 H 0.66656 0.78061 0.34368 0.0
H775 H 0.66168 0.77784 0.40796 0.0
C776 C 0.96797 0.1276 0.40765 0.0
C777 C 0.97873 0.12072 0.42614 0.0
C778 C 0.96927 0.13077 0.37066 0.0
C779 C 0.97039 0.12491 0.28961 0.0
H780 H 0.00546 0.13356 0.2431 0.0
C781 C 0.98332 0.10865 0.14326 0.0
C782 C 0.99222 0.11692 0.12215 0.0
C783 C 0.98019 0.11234 0.17907 0.0
C784 C 0.99552 0.13139 0.25555 0.0
H785 H -0.00041 0.11249 0.42096 0.0
H786 H 0.00182 0.11786 0.35655 0.0
H787 H 0.00352 0.13498 0.30909 0.0
H788 H 0.00419 0.13599 0.12131 0.0
H789 H 0.99859 0.14254 0.18389 0.0
H790 H 0.96243 0.12116 0.23614 0.0
C791 C 0.99241 0.12096 0.37052 0.0
C792 C 0.99444 0.13203 0.29346 0.0
C793 C 0.99112 0.11782 0.40748 0.0
C794 C 0.9973 0.12939 0.13693 0.0
C795 C 0.99419 0.13309 0.17286 0.0
C796 C 0.97146 0.12428 0.25173 0.0
C797 C 0.98135 0.12711 0.35138 0.0
C798 C 0.98198 0.12845 0.31103 0.0
C799 C 0.98589 0.12441 0.19467 0.0
C800 C 0.98413 0.12714 0.23428 0.0
H801 H 0.95831 0.13003 0.42135 0.0
H802 H 0.96064 0.13573 0.35692 0.0
H803 H 0.96066 0.12197 0.30214 0.0
H804 H 0.97926 0.09896 0.13268 0.0
H805 H 0.97388 0.10532 0.1951 0.0
C806 C 0.64835 0.23668 0.16735 0.0
C807 C 0.65589 0.22507 0.17941 0.0
C808 C 0.64747 0.23972 0.13014 0.0
C809 C 0.66673 0.23365 0.04509 0.0
H810 H 0.63374 0.24832 0.99835 0.0
C811 C 0.66879 0.26086 0.90633 0.0
C812 C 0.65821 0.25811 0.88102 0.0
C813 C 0.66789 0.25583 0.94182 0.0
C814 C 0.64299 0.2441 0.01095 0.0
H815 H 0.66789 0.2072 0.16195 0.0
H816 H 0.66623 0.21238 0.09738 0.0
H817 H 0.63277 0.24126 0.06228 0.0
H818 H 0.63843 0.24784 0.87295 0.0
H819 H 0.63686 0.23895 0.93533 0.0
H820 H 0.67696 0.23645 0.99402 0.0
C821 C 0.66122 0.21931 0.11652 0.0
C822 C 0.64247 0.2402 0.04764 0.0
C823 C 0.66211 0.2163 0.15356 0.0
C824 C 0.64676 0.25008 0.89186 0.0
C825 C 0.64581 0.24509 0.9276 0.0
C826 C 0.66725 0.23758 0.00859 0.0
C827 C 0.65413 0.23119 0.10437 0.0
C828 C 0.65437 0.23499 0.06516 0.0
C829 C 0.65637 0.24795 0.95297 0.0
C830 C 0.65544 0.24297 0.99116 0.0
H831 H 0.64345 0.24362 0.18668 0.0
H832 H 0.64201 0.24901 0.12168 0.0
H833 H 0.67613 0.22984 0.0578 0.0
H834 H 0.67772 0.26707 0.89888 0.0
H835 H 0.67611 0.25839 0.9608 0.0
C836 C 0.5028 0.87095 0.64688 0.0
C837 C 0.50102 0.88485 0.6362 0.0
C838 C 0.50732 0.86777 0.68212 0.0
C839 C 0.50569 0.86555 0.76524 0.0
H840 H 0.53305 0.88809 0.81521 0.0
C841 C 0.50623 0.87404 0.92062 0.0
C842 C 0.51901 0.87636 0.93798 0.0
C843 C 0.50569 0.87196 0.88298 0.0
C844 C 0.52554 0.8815 0.80166 0.0
H845 H 0.50321 0.9063 0.65322 0.0
H846 H 0.51116 0.90079 0.71432 0.0
H847 H 0.5301 0.89051 0.74982 0.0
H848 H 0.54131 0.87726 0.93011 0.0
H849 H 0.54038 0.87338 0.86465 0.0
H850 H 0.50095 0.85673 0.81732 0.0
C851 C 0.50912 0.89232 0.69566 0.0
C852 C 0.52376 0.883 0.76419 0.0
C853 C 0.5045 0.89549 0.66068 0.0
C854 C 0.53129 0.87564 0.91742 0.0
C855 C 0.53075 0.87349 0.87988 0.0
C856 C 0.50745 0.86405 0.80282 0.0
C857 C 0.51028 0.87844 0.70709 0.0
C858 C 0.51358 0.87531 0.7457 0.0
C859 C 0.51792 0.8721 0.86202 0.0
C860 C 0.51719 0.87225 0.8216 0.0
H861 H 0.50014 0.86254 0.62858 0.0
H862 H 0.50822 0.85697 0.69008 0.0
H863 H 0.49768 0.85952 0.75182 0.0
H864 H 0.4966 0.87457 0.93578 0.0
H865 H 0.49561 0.87103 0.87011 0.0
C866 C 0.86239 0.77689 0.63762 0.0
C867 C 0.86276 0.76623 0.66365 0.0
C868 C 0.86501 0.77404 0.601 0.0
C869 C 0.87771 0.74638 0.53737 0.0
H870 H 0.85391 0.7656 0.46873 0.0
C871 C 0.86297 0.7251 0.39612 0.0
C872 C 0.86297 0.73428 0.36643 0.0
C873 C 0.86552 0.72993 0.43127 0.0
C874 C 0.86079 0.76031 0.48747 0.0
H875 H 0.86655 0.7443 0.67207 0.0
H876 H 0.87058 0.73914 0.60801 0.0
H877 H 0.85349 0.7722 0.53257 0.0
H878 H 0.86591 0.75569 0.35006 0.0
H879 H 0.87003 0.76428 0.41208 0.0
H880 H 0.88435 0.73397 0.49213 0.0
C881 C 0.86865 0.74981 0.61579 0.0
C882 C 0.86061 0.7641 0.52416 0.0
C883 C 0.86627 0.75273 0.65257 0.0
C884 C 0.86587 0.74839 0.37247 0.0
C885 C 0.86818 0.7533 0.40788 0.0
C886 C 0.87773 0.74246 0.50072 0.0
C887 C 0.86779 0.76039 0.58936 0.0
C888 C 0.86892 0.75707 0.54978 0.0
C889 C 0.86791 0.74411 0.43763 0.0
C890 C 0.86913 0.74926 0.47552 0.0
H891 H 0.85985 0.78744 0.64548 0.0
H892 H 0.86461 0.78254 0.58174 0.0
H893 H 0.88448 0.7409 0.55601 0.0
H894 H 0.86081 0.71415 0.39225 0.0
H895 H 0.8651 0.72264 0.45368 0.0
C896 C 0.4871 0.6257 0.15884 0.0
C897 C 0.49177 0.61401 0.13947 0.0
C898 C 0.49144 0.62795 0.19476 0.0
C899 C 0.51805 0.61781 0.2624 0.0
H900 H 0.48865 0.62227 0.33355 0.0
C901 C 0.525 0.60112 0.41046 0.0
C902 C 0.51891 0.60895 0.43847 0.0
C903 C 0.52238 0.60429 0.37411 0.0
C904 C 0.49703 0.6213 0.31407 0.0
H905 H 0.50514 0.59591 0.14171 0.0
H906 H 0.51286 0.59993 0.20386 0.0
H907 H 0.48325 0.62379 0.26875 0.0
H908 H 0.50536 0.62634 0.45035 0.0
H909 H 0.50079 0.63197 0.38641 0.0
H910 H 0.5318 0.61501 0.30748 0.0
C911 C 0.50584 0.60736 0.19153 0.0
C912 C 0.49393 0.62218 0.27693 0.0
C913 C 0.50137 0.60502 0.15596 0.0
C914 C 0.51017 0.62011 0.42931 0.0
C915 C 0.50753 0.6233 0.39273 0.0
C916 C 0.52116 0.617 0.29944 0.0
C917 C 0.50071 0.61867 0.21162 0.0
C918 C 0.50434 0.62003 0.25072 0.0
C919 C 0.51363 0.61541 0.3647 0.0
C920 C 0.51062 0.6183 0.32572 0.0
H921 H 0.47964 0.63276 0.14682 0.0
H922 H 0.48738 0.63679 0.20955 0.0
H923 H 0.52633 0.61633 0.24283 0.0
H924 H 0.53174 0.59242 0.41658 0.0
H925 H 0.52703 0.5978 0.35332 0.0
C926 C 0.64373 0.24829 0.38937 0.0
C927 C 0.64753 0.23427 0.38585 0.0
C928 C 0.64004 0.25368 0.42348 0.0
C929 C 0.62912 0.24359 0.51652 0.0
H930 H 0.65025 0.27574 0.54745 0.0
C931 C 0.64068 0.25529 0.66705 0.0
C932 C 0.64264 0.2691 0.67811 0.0
C933 C 0.63804 0.25216 0.63055 0.0
C934 C 0.64399 0.26695 0.5392 0.0
H935 H 0.64981 0.21475 0.41467 0.0
H936 H 0.64326 0.22405 0.47371 0.0
H937 H 0.65113 0.26841 0.48416 0.0
H938 H 0.64246 0.29055 0.66019 0.0
H939 H 0.63746 0.28515 0.59675 0.0
H940 H 0.62218 0.24193 0.57165 0.0
C941 C 0.64313 0.23092 0.45038 0.0
C942 C 0.64452 0.26274 0.50283 0.0
C943 C 0.64699 0.22562 0.41658 0.0
C944 C 0.64112 0.27978 0.65239 0.0
C945 C 0.63835 0.27668 0.61596 0.0
C946 C 0.62849 0.24785 0.55284 0.0
C947 C 0.63986 0.24505 0.4544 0.0
C948 C 0.63741 0.25079 0.49133 0.0
C949 C 0.63718 0.2628 0.60435 0.0
C950 C 0.63624 0.25936 0.56489 0.0
H951 H 0.64407 0.25518 0.3661 0.0
H952 H 0.63752 0.26461 0.4258 0.0
H953 H 0.62338 0.23443 0.50829 0.0
H954 H 0.64184 0.24683 0.68625 0.0
H955 H 0.63736 0.24135 0.62265 0.0
C956 C 0.99715 0.38414 0.64347 0.0
C957 C 0.99741 0.3972 0.62644 0.0
C958 C 0.99261 0.38289 0.6795 0.0
C959 C 0.97233 0.40001 0.7512 0.0
H960 H -0.00097 0.38411 0.81834 0.0
C961 C 0.96958 0.41146 0.90385 0.0
C962 C 0.97343 0.40115 0.92888 0.0
C963 C 0.97159 0.40947 0.86666 0.0
C964 C 0.99131 0.38834 0.80002 0.0
H965 H 0.99251 0.41903 0.63284 0.0
H966 H 0.98421 0.41678 0.69531 0.0
H967 H 0.00328 0.38285 0.75298 0.0
H968 H 0.98242 0.38065 0.93469 0.0
H969 H 0.98566 0.37697 0.86938 0.0
H970 H 0.9603 0.40549 0.79785 0.0
C971 C 0.98762 0.40754 0.68101 0.0
C972 C 0.99377 0.38762 0.76256 0.0
C973 C 0.99239 0.40884 0.64533 0.0
C974 C 0.97942 0.3888 0.91597 0.0
C975 C 0.9813 0.38672 0.87856 0.0
C976 C 0.96977 0.40056 0.78856 0.0
C977 C 0.98799 0.39463 0.69873 0.0
C978 C 0.98447 0.39374 0.73788 0.0
C979 C 0.97735 0.39703 0.85341 0.0
C980 C 0.97941 0.39507 0.81354 0.0
H981 H 0.00106 0.37502 0.62958 0.0
H982 H 0.99294 0.3728 0.69255 0.0
H983 H 0.96492 0.40466 0.7327 0.0
H984 H 0.96504 0.42115 0.91301 0.0
H985 H 0.96876 0.41781 0.84833 0.0
C986 C 0.85801 0.71906 0.12967 0.0
C987 C 0.86408 0.72686 0.15775 0.0
C988 C 0.86116 0.72183 0.09337 0.0
C989 C 0.87345 0.7497 0.03322 0.0
H990 H 0.87432 0.71982 0.96245 0.0
C991 C 0.87611 0.76055 0.87876 0.0
C992 C 0.86555 0.75382 0.85909 0.0
C993 C 0.87922 0.75645 0.9144 0.0
C994 C 0.87415 0.72827 0.98189 0.0
H995 H 0.87846 0.74355 0.16984 0.0
H996 H 0.88407 0.74839 0.10603 0.0
H997 H 0.87381 0.71436 0.02721 0.0
H998 H 0.85057 0.73704 0.86037 0.0
H999 H 0.85612 0.72976 0.92214 0.0
H1000 H 0.87346 0.76361 0.98774 0.0
C1001 C 0.87676 0.74018 0.11223 0.0
C1002 C 0.87381 0.72516 0.019 0.0
C1003 C 0.8736 0.73738 0.14875 0.0
C1004 C 0.85877 0.74241 0.87485 0.0
C1005 C 0.86199 0.73821 0.91022 0.0
C1006 C 0.87387 0.75282 0.99606 0.0
C1007 C 0.8705 0.73247 0.0841 0.0
C1008 C 0.87302 0.73582 0.0451 0.0
C1009 C 0.87197 0.74542 0.93077 0.0
C1010 C 0.87381 0.74213 0.96997 0.0
H1011 H 0.85061 0.7109 0.13565 0.0
H1012 H 0.85593 0.71585 0.07251 0.0
H1013 H 0.87273 0.75818 0.05251 0.0
H1014 H 0.88147 0.76943 0.86735 0.0
H1015 H 0.88704 0.76213 0.92948 0.0
C1016 C 0.52455 0.39461 0.07584 0.0
C1017 C 0.51404 0.3965 0.04985 0.0
C1018 C 0.52122 0.39284 0.11252 0.0
C1019 C 0.49131 0.38691 0.17598 0.0
H1020 H 0.51582 0.40484 0.24535 0.0
C1021 C 0.47473 0.40525 0.31867 0.0
C1022 C 0.48289 0.40075 0.34807 0.0
C1023 C 0.479 0.40285 0.28298 0.0
C1024 C 0.50899 0.39964 0.22629 0.0
H1025 H 0.49183 0.3978 0.0415 0.0
H1026 H 0.48596 0.39541 0.10561 0.0
H1027 H 0.52226 0.40409 0.18133 0.0
H1028 H 0.50195 0.39031 0.36333 0.0
H1029 H 0.50975 0.38658 0.30037 0.0
H1030 H 0.47767 0.38332 0.22113 0.0
C1031 C 0.49678 0.3948 0.09783 0.0
C1032 C 0.51268 0.39912 0.18956 0.0
C1033 C 0.50012 0.39626 0.06101 0.0
C1034 C 0.49549 0.39389 0.34111 0.0
C1035 C 0.49993 0.39177 0.30525 0.0
C1036 C 0.48751 0.38769 0.21261 0.0
C1037 C 0.5073 0.39327 0.12421 0.0
C1038 C 0.50382 0.39288 0.16376 0.0
C1039 C 0.49166 0.39615 0.27595 0.0
C1040 C 0.49626 0.39419 0.23796 0.0
H1041 H 0.53538 0.39461 0.06784 0.0
H1042 H 0.5296 0.39132 0.13171 0.0
H1043 H 0.48435 0.38173 0.15725 0.0
H1044 H 0.46492 0.41049 0.32324 0.0
H1045 H 0.47252 0.40644 0.2608 0.0
C1046 C 0.88508 0.24678 0.33678 0.0
C1047 C 0.87856 0.25917 0.32611 0.0
C1048 C 0.88837 0.24445 0.37338 0.0
C1049 C 0.88992 0.26182 0.4648 0.0
H1050 H 0.88089 0.22492 0.49967 0.0
C1051 C 0.87117 0.24919 0.61015 0.0
C1052 C 0.87543 0.23664 0.62613 0.0
C1053 C 0.87541 0.25264 0.57491 0.0
C1054 C 0.88371 0.23522 0.49035 0.0
H1055 H 0.87087 0.27906 0.34511 0.0
H1056 H 0.87615 0.27488 0.40867 0.0
H1057 H 0.88117 0.22946 0.43469 0.0
H1058 H 0.88814 0.21826 0.61864 0.0
H1059 H 0.89543 0.22424 0.55692 0.0
H1060 H 0.89162 0.26768 0.52094 0.0
C1061 C 0.87907 0.26703 0.389 0.0
C1062 C 0.88392 0.23783 0.45298 0.0
C1063 C 0.87593 0.26941 0.35245 0.0
C1064 C 0.88469 0.22802 0.60706 0.0
C1065 C 0.8888 0.23139 0.57165 0.0
C1066 C 0.88954 0.25923 0.50224 0.0
C1067 C 0.88507 0.2544 0.40014 0.0
C1068 C 0.88672 0.25125 0.43966 0.0
C1069 C 0.88386 0.24353 0.55483 0.0
C1070 C 0.88617 0.24596 0.5154 0.0
H1071 H 0.88732 0.23874 0.31703 0.0
H1072 H 0.89324 0.23471 0.38077 0.0
H1073 H 0.89243 0.27221 0.45562 0.0
H1074 H 0.86402 0.25604 0.62418 0.0
H1075 H 0.87136 0.26203 0.5626 0.0
C1076 C 0.99085 0.60009 0.86724 0.0
C1077 C 0.99695 0.61091 0.88725 0.0
C1078 C 0.98669 0.60221 0.83129 0.0
C1079 C 0.99649 0.62173 0.75172 0.0
H1080 H 0.96193 0.608 0.71139 0.0
C1081 C 0.98629 0.62139 0.59622 0.0
C1082 C 0.9795 0.60958 0.58254 0.0
C1083 C 0.98704 0.62371 0.63382 0.0
C1084 C 0.9717 0.61178 0.7221 0.0
H1085 H 0.00311 0.63255 0.88583 0.0
H1086 H 0.99608 0.63619 0.82241 0.0
H1087 H 0.9653 0.60812 0.77713 0.0
H1088 H 0.96822 0.59093 0.59741 0.0
H1089 H 0.96991 0.59467 0.66243 0.0
H1090 H 0.00327 0.62466 0.69687 0.0
C1091 C 0.99442 0.62612 0.8348 0.0
C1092 C 0.97356 0.61194 0.75979 0.0
C1093 C 0.99833 0.62406 0.87109 0.0
C1094 C 0.97345 0.60019 0.60707 0.0
C1095 C 0.97431 0.60242 0.64449 0.0
C1096 C 0.99473 0.62138 0.71396 0.0
C1097 C 0.98877 0.61514 0.81442 0.0
C1098 C 0.98607 0.61667 0.77493 0.0
C1099 C 0.98111 0.6142 0.65847 0.0
C1100 C 0.98242 0.6161 0.6986 0.0
H1101 H 0.9897 0.58984 0.87903 0.0
H1102 H 0.98246 0.59354 0.81611 0.0
H1103 H 0.0063 0.62531 0.76271 0.0
H1104 H 0.991 0.62883 0.5779 0.0
H1105 H 0.99222 0.63297 0.64352 0.0
C1106 C 0.63702 0.74797 0.11513 0.0
C1107 C 0.64016 0.76212 0.11957 0.0
C1108 C 0.63296 0.74287 0.08103 0.0
C1109 C 0.61968 0.75364 0.99077 0.0
H1110 H 0.64191 0.72324 0.95354 0.0
C1111 C 0.62981 0.74562 0.83831 0.0
C1112 C 0.63234 0.7322 0.82497 0.0
C1113 C 0.62738 0.74778 0.87535 0.0
C1114 C 0.63534 0.73152 0.96359 0.0
H1115 H 0.64093 0.78211 0.09246 0.0
H1116 H 0.63375 0.77328 0.03341 0.0
H1117 H 0.64358 0.72959 0.01746 0.0
H1118 H 0.6334 0.7104 0.83944 0.0
H1119 H 0.62882 0.71411 0.90398 0.0
H1120 H 0.61166 0.7558 0.93679 0.0
C1121 C 0.6344 0.7661 0.05604 0.0
C1122 C 0.63633 0.73516 0.00031 0.0
C1123 C 0.63863 0.77114 0.08982 0.0
C1124 C 0.63159 0.72088 0.84901 0.0
C1125 C 0.62906 0.72303 0.88604 0.0
C1126 C 0.6186 0.74993 0.95412 0.0
C1127 C 0.63175 0.75188 0.05108 0.0
C1128 C 0.62884 0.74653 0.014 0.0
C1129 C 0.62733 0.73655 0.89986 0.0
C1130 C 0.62675 0.7391 0.9398 0.0
H1131 H 0.63812 0.7408 0.13764 0.0
H1132 H 0.63094 0.73186 0.07795 0.0
H1133 H 0.61363 0.76233 0.00074 0.0
H1134 H 0.63035 0.75455 0.82044 0.0
H1135 H 0.62626 0.75836 0.88496 0.0
C1136 C 0.49559 0.38741 0.84015 0.0
C1137 C 0.50884 0.39333 0.84388 0.0
C1138 C 0.49067 0.38353 0.80575 0.0
C1139 C 0.50172 0.37488 0.71262 0.0
H1140 H 0.46759 0.39272 0.68205 0.0
C1141 C 0.48932 0.38587 0.56253 0.0
C1142 C 0.47544 0.38728 0.55151 0.0
C1143 C 0.49252 0.38303 0.59885 0.0
C1144 C 0.47695 0.38732 0.69016 0.0
H1145 H 0.52756 0.39931 0.81507 0.0
H1146 H 0.51909 0.39231 0.75535 0.0
H1147 H 0.47472 0.39405 0.74538 0.0
H1148 H 0.45401 0.38571 0.56894 0.0
H1149 H 0.45954 0.38014 0.63196 0.0
H1150 H 0.50408 0.36822 0.65746 0.0
C1151 C 0.51247 0.39073 0.77882 0.0
C1152 C 0.48104 0.38814 0.72654 0.0
C1153 C 0.51726 0.39484 0.81295 0.0
C1154 C 0.46481 0.38483 0.57683 0.0
C1155 C 0.468 0.38175 0.61302 0.0
C1156 C 0.49753 0.37387 0.6763 0.0
C1157 C 0.49907 0.38522 0.77478 0.0
C1158 C 0.49366 0.3823 0.73786 0.0
C1159 C 0.4819 0.38132 0.62483 0.0
C1160 C 0.48531 0.38045 0.66433 0.0
H1161 H 0.4889 0.38613 0.8636 0.0
H1162 H 0.48029 0.3793 0.80327 0.0
H1163 H 0.51144 0.37015 0.72081 0.0
H1164 H 0.49772 0.38777 0.54358 0.0
H1165 H 0.50334 0.38295 0.60681 0.0
C1166 C 0.36415 0.74429 0.34149 0.0
C1167 C 0.36142 0.73063 0.3303 0.0
C1168 C 0.36666 0.74724 0.3782 0.0
C1169 C 0.35979 0.73219 0.46943 0.0
H1170 H 0.38141 0.76378 0.50208 0.0
C1171 C 0.36298 0.74796 0.62114 0.0
C1172 C 0.35937 0.76191 0.62722 0.0
C1173 C 0.36589 0.74328 0.58585 0.0
C1174 C 0.37539 0.75489 0.49332 0.0
H1175 H 0.36017 0.7092 0.34802 0.0
H1176 H 0.36517 0.7142 0.41158 0.0
H1177 H 0.38209 0.75699 0.43809 0.0
H1178 H 0.35659 0.78201 0.6016 0.0
H1179 H 0.36184 0.77389 0.54036 0.0
H1180 H 0.35307 0.73017 0.52468 0.0
C1181 C 0.36483 0.72277 0.39252 0.0
C1182 C 0.3757 0.75103 0.45662 0.0
C1183 C 0.36208 0.71987 0.35601 0.0
C1184 C 0.35928 0.77118 0.59771 0.0
C1185 C 0.36239 0.76656 0.56267 0.0
C1186 C 0.35964 0.73594 0.50614 0.0
C1187 C 0.36671 0.73654 0.40438 0.0
C1188 C 0.36766 0.73981 0.444 0.0
C1189 C 0.36548 0.75253 0.55622 0.0
C1190 C 0.36719 0.7475 0.51832 0.0
H1191 H 0.36363 0.75279 0.32223 0.0
H1192 H 0.3679 0.75799 0.38618 0.0
H1193 H 0.35324 0.72366 0.46084 0.0
H1194 H 0.36312 0.7406 0.64341 0.0
H1195 H 0.36829 0.7324 0.58162 0.0
C1196 C 0.00602 0.62873 0.09735 0.0
C1197 C 0.01729 0.62056 0.08595 0.0
C1198 C 0.00455 0.63239 0.13402 0.0
C1199 C 0.023 0.63182 0.22403 0.0
H1200 H 0.98563 0.62809 0.26192 0.0
C1201 C 0.00941 0.61515 0.37047 0.0
C1202 C 0.99766 0.62102 0.38712 0.0
C1203 C 0.01313 0.61894 0.33507 0.0
C1204 C 0.9961 0.62944 0.25175 0.0
H1205 H 0.03612 0.61024 0.10372 0.0
H1206 H 0.03337 0.61617 0.16743 0.0
H1207 H 0.98942 0.62753 0.19664 0.0
H1208 H 0.98116 0.63616 0.38078 0.0
H1209 H 0.9876 0.64269 0.31881 0.0
H1210 H 0.02967 0.63287 0.27965 0.0
C1211 C 0.02579 0.62009 0.14826 0.0
C1212 C 0.99829 0.62916 0.2142 0.0
C1213 C 0.02733 0.61658 0.11163 0.0
C1214 C 0.99027 0.63145 0.36866 0.0
C1215 C 0.99389 0.63513 0.33311 0.0
C1216 C 0.02081 0.63193 0.26166 0.0
C1217 C 0.01424 0.62782 0.16013 0.0
C1218 C 0.01181 0.63003 0.1998 0.0
C1219 C 0.00508 0.62858 0.31554 0.0
C1220 C 0.00736 0.63046 0.2759 0.0
H1221 H 0.99817 0.63203 0.0781 0.0
H1222 H 0.99567 0.63858 0.14197 0.0
H1223 H 0.03352 0.63283 0.21399 0.0
H1224 H 0.0153 0.60708 0.38403 0.0
H1225 H 0.02175 0.61365 0.32218 0.0
C1226 C 0.15217 0.27472 0.83871 0.0
C1227 C 0.14498 0.26742 0.81151 0.0
C1228 C 0.1509 0.27092 0.87516 0.0
C1229 C 0.12947 0.25115 0.94061 0.0
H1230 H 0.1639 0.24964 0.99521 0.0
C1231 C 0.13225 0.24003 0.09638 0.0
C1232 C 0.14282 0.23088 0.10743 0.0
C1233 C 0.13173 0.24482 0.06039 0.0
C1234 C 0.1542 0.24996 0.98034 0.0
H1235 H 0.1305 0.25064 0.80125 0.0
H1236 H 0.12836 0.24387 0.86523 0.0
H1237 H 0.16422 0.25725 0.93218 0.0
H1238 H 0.16099 0.21945 0.08941 0.0
H1239 H 0.16004 0.22774 0.02706 0.0
H1240 H 0.11953 0.24355 0.98892 0.0
C1241 C 0.1349 0.25262 0.85827 0.0
C1242 C 0.15436 0.25446 0.94429 0.0
C1243 C 0.13618 0.25645 0.82164 0.0
C1244 C 0.15276 0.22656 0.08184 0.0
C1245 C 0.15226 0.23136 0.0461 0.0
C1246 C 0.12931 0.24668 0.97687 0.0
C1247 C 0.14243 0.2597 0.88536 0.0
C1248 C 0.14202 0.25508 0.92393 0.0
C1249 C 0.14181 0.24061 0.03496 0.0
C1250 C 0.1417 0.24592 0.99701 0.0
H1251 H 0.15895 0.28331 0.83182 0.0
H1252 H 0.15664 0.27675 0.89539 0.0
H1253 H 0.11978 0.25161 0.9257 0.0
H1254 H 0.12444 0.24351 0.11551 0.0
H1255 H 0.12359 0.252 0.05264 0.0
C1256 C 0.49928 0.61694 0.6509 0.0
C1257 C 0.5132 0.61313 0.64551 0.0
C1258 C 0.49451 0.62039 0.68576 0.0
C1259 C 0.50597 0.63076 0.77796 0.0
H1260 H 0.47402 0.60978 0.81081 0.0
C1261 C 0.49454 0.6206 0.92982 0.0
C1262 C 0.48074 0.61847 0.94076 0.0
C1263 C 0.49769 0.62292 0.89314 0.0
C1264 C 0.48276 0.616 0.80207 0.0
H1265 H 0.53319 0.61055 0.67187 0.0
H1266 H 0.52492 0.61668 0.73236 0.0
H1267 H 0.48082 0.60879 0.74724 0.0
H1268 H 0.45933 0.61812 0.92263 0.0
H1269 H 0.46472 0.62272 0.85907 0.0
H1270 H 0.50803 0.63788 0.83287 0.0
C1271 C 0.51767 0.61701 0.70984 0.0
C1272 C 0.48667 0.6154 0.76552 0.0
C1273 C 0.52238 0.61339 0.67522 0.0
C1274 C 0.47009 0.61958 0.91485 0.0
C1275 C 0.4732 0.6221 0.87835 0.0
C1276 C 0.50198 0.6315 0.8145 0.0
C1277 C 0.50364 0.62029 0.71564 0.0
C1278 C 0.49848 0.62252 0.75324 0.0
C1279 C 0.48707 0.62333 0.86677 0.0
C1280 C 0.49049 0.62388 0.82723 0.0
H1281 H 0.49199 0.61683 0.62846 0.0
H1282 H 0.48364 0.62294 0.68947 0.0
H1283 H 0.51506 0.63647 0.76913 0.0
H1284 H 0.50295 0.61973 0.94922 0.0
H1285 H 0.5085 0.62367 0.88533 0.0
C1286 C 0.12603 0.7483 0.39125 0.0
C1287 C 0.13918 0.74755 0.37478 0.0
C1288 C 0.12415 0.7436 0.42697 0.0
C1289 C 0.13908 0.72136 0.49808 0.0
H1290 H 0.12591 0.74909 0.56643 0.0
C1291 C 0.15239 0.71809 0.64922 0.0
C1292 C 0.14283 0.7227 0.67539 0.0
C1293 C 0.14982 0.72 0.61226 0.0
C1294 C 0.12933 0.7411 0.54775 0.0
H1295 H 0.16045 0.74071 0.38176 0.0
H1296 H 0.15706 0.73213 0.44357 0.0
H1297 H 0.12474 0.7537 0.50118 0.0
H1298 H 0.12299 0.73288 0.6834 0.0
H1299 H 0.11832 0.73603 0.61841 0.0
H1300 H 0.14376 0.70875 0.54427 0.0
C1301 C 0.14825 0.73644 0.42913 0.0
C1302 C 0.12867 0.74376 0.51036 0.0
C1303 C 0.1502 0.74139 0.39382 0.0
C1304 C 0.13057 0.72927 0.66379 0.0
C1305 C 0.12793 0.7311 0.62659 0.0
C1306 C 0.13958 0.71862 0.53534 0.0
C1307 C 0.13531 0.7378 0.44636 0.0
C1308 C 0.13391 0.73408 0.48528 0.0
C1309 C 0.13753 0.72645 0.60036 0.0
C1310 C 0.13514 0.72863 0.56073 0.0
H1311 H 0.11739 0.75312 0.37723 0.0
H1312 H 0.11406 0.74473 0.43967 0.0
H1313 H 0.14303 0.71366 0.47925 0.0
H1314 H 0.16199 0.71309 0.65727 0.0
H1315 H 0.15764 0.71661 0.59303 0.0
C1316 C 0.99575 0.38828 0.13867 0.0
C1317 C 0.98154 0.39116 0.13454 0.0
C1318 C 0.00105 0.38436 0.17268 0.0
C1319 C 0.99069 0.37145 0.26394 0.0
H1320 H 0.02153 0.39363 0.29878 0.0
C1321 C -3e-05 0.38264 0.41555 0.0
C1322 C 0.01357 0.3848 0.42809 0.0
C1323 C 0.99745 0.38005 0.37873 0.0
C1324 C 0.01311 0.38709 0.28939 0.0
H1325 H 0.96163 0.39159 0.16214 0.0
H1326 H 0.9708 0.38473 0.22103 0.0
H1327 H 0.01476 0.39497 0.23512 0.0
H1328 H 0.03528 0.38509 0.41238 0.0
H1329 H 0.0309 0.38031 0.34822 0.0
H1330 H 0.98878 0.36386 0.31843 0.0
C1331 C 0.97789 0.38544 0.19823 0.0
C1332 C 0.00923 0.38787 0.25281 0.0
C1333 C 0.97265 0.38949 0.16452 0.0
C1334 C 0.02466 0.38356 0.40346 0.0
C1335 C 0.02215 0.38091 0.36665 0.0
C1336 C 0.99461 0.37061 0.30048 0.0
C1337 C 0.99217 0.38307 0.20291 0.0
C1338 C 0.99772 0.38039 0.23995 0.0
C1339 C 0.00849 0.37951 0.35365 0.0
C1340 C 0.00561 0.37873 0.3139 0.0
H1341 H 0.00283 0.38949 0.11598 0.0
H1342 H 0.01209 0.38254 0.17548 0.0
H1343 H 0.9819 0.36539 0.25466 0.0
H1344 H 0.99121 0.38356 0.43388 0.0
H1345 H 0.98678 0.37918 0.3697 0.0
C1346 C 0.35087 0.26201 0.17793 0.0
C1347 C 0.34287 0.27323 0.1905 0.0
C1348 C 0.35222 0.25952 0.14054 0.0
C1349 C 0.33408 0.26678 0.05415 0.0
H1350 H 0.3679 0.25298 0.00973 0.0
C1351 C 0.33436 0.2422 0.91212 0.0
C1352 C 0.34553 0.24502 0.88869 0.0
C1353 C 0.33463 0.24667 0.94818 0.0
C1354 C 0.35843 0.25699 0.02167 0.0
H1355 H 0.33055 0.29099 0.1739 0.0
H1356 H 0.33311 0.28685 0.10906 0.0
H1357 H 0.36776 0.25899 0.07437 0.0
H1358 H 0.36569 0.25489 0.88452 0.0
H1359 H 0.36611 0.26289 0.94782 0.0
H1360 H 0.32476 0.26493 0.00164 0.0
C1361 C 0.33807 0.27974 0.12787 0.0
C1362 C 0.3583 0.26026 0.05878 0.0
C1363 C 0.33665 0.28216 0.16507 0.0
C1364 C 0.35692 0.25261 0.90196 0.0
C1365 C 0.35721 0.25708 0.93823 0.0
C1366 C 0.33422 0.26353 0.01719 0.0
C1367 C 0.34565 0.26826 0.1151 0.0
C1368 C 0.34609 0.26512 0.07549 0.0
C1369 C 0.34607 0.2541 0.96177 0.0
C1370 C 0.34633 0.25845 0.00056 0.0
H1371 H 0.35578 0.25496 0.19695 0.0
H1372 H 0.35805 0.25052 0.13164 0.0
H1373 H 0.32444 0.27033 0.06616 0.0
H1374 H 0.32546 0.23631 0.90279 0.0
H1375 H 0.32598 0.244 0.96566 0.0
C1376 C 0.01067 0.04776 0.02327 0.0
C1377 C 0.00054 0.05809 0.01849 0.0
C1378 C 0.00728 0.03377 0.01882 0.0
C1379 C 0.97774 0.00939 0.01775 0.0
H1380 H 0.00366 0.98558 0.96643 0.0
C1381 C 0.96495 0.95264 0.97686 0.0
C1382 C 0.97562 0.94285 0.98147 0.0
C1383 C 0.9676 0.96681 0.98164 0.0
C1384 C 0.99638 0.99205 0.98115 0.0
H1385 H 0.97891 0.06192 0.00554 0.0
H1386 H 0.973 0.03743 0.99744 0.0
H1387 H 0.00902 0.01011 0.9742 0.0
H1388 H 0.99735 0.94014 0.99532 0.0
H1389 H 0.00193 0.96479 0.00399 0.0
H1390 H 0.96511 0.99126 0.02468 0.0
C1391 C 0.98353 0.04015 0.00499 0.0
C1392 C -0.00055 0.00611 0.98561 0.0
C1393 C 0.98692 0.05416 0.00942 0.0
C1394 C 0.98893 0.94745 0.99139 0.0
C1395 C 0.99158 0.96158 0.99614 0.0
C1396 C 0.97466 0.9953 0.01327 0.0
C1397 C 0.99369 0.0298 0.00947 0.0
C1398 C 0.99021 0.01492 0.00415 0.0
C1399 C 0.98098 0.97143 0.99105 0.0
C1400 C 0.984 0.98646 0.99514 0.0
H1401 H 0.02124 0.05047 0.03043 0.0
H1402 H 0.01529 0.02603 0.02301 0.0
H1403 H 0.97048 0.01588 0.0325 0.0
H1404 H 0.95459 0.94937 0.96916 0.0
H1405 H 0.95925 0.97416 0.97725 0.0
C1406 C 0.19896 0.77134 0.27163 0.0
C1407 C 0.18856 0.76187 0.2615 0.0
C1408 C 0.21297 0.76782 0.26794 0.0
C1409 C 0.23607 0.73737 0.26114 0.0
H1410 H 0.26302 0.7642 0.22653 0.0
C1411 C 0.2929 0.72256 0.22848 0.0
C1412 C 0.30322 0.73201 0.2392 0.0
C1413 C 0.27886 0.72616 0.23099 0.0
C1414 C 0.25564 0.75663 0.23661 0.0
H1415 H 0.18463 0.74144 0.23887 0.0
H1416 H 0.20906 0.73537 0.23205 0.0
H1417 H 0.2386 0.77074 0.23072 0.0
H1418 H 0.30699 0.75255 0.26138 0.0
H1419 H 0.28253 0.75875 0.26618 0.0
H1420 H 0.2531 0.72327 0.26714 0.0
C1421 C 0.20642 0.74541 0.24337 0.0
C1422 C 0.24165 0.76038 0.23899 0.0
C1423 C 0.19242 0.74893 0.24705 0.0
C1424 C 0.29926 0.74506 0.25279 0.0
C1425 C 0.28525 0.74866 0.25531 0.0
C1426 C 0.25005 0.73362 0.25877 0.0
C1427 C 0.21685 0.75476 0.25406 0.0
C1428 C 0.23171 0.75079 0.2513 0.0
C1429 C 0.27489 0.73928 0.24428 0.0
C1430 C 0.26 0.74321 0.24653 0.0
H1431 H 0.19627 0.78138 0.28294 0.0
H1432 H 0.22077 0.7752 0.27674 0.0
H1433 H 0.2287 0.72981 0.27129 0.0
H1434 H 0.29566 0.71245 0.21779 0.0
H1435 H 0.27113 0.71876 0.22193 0.0
C1436 C 0.50546 0.04444 0.46956 0.0
C1437 C 0.51953 0.04813 0.46674 0.0
C1438 C 0.50163 0.03063 0.47522 0.0
C1439 C 0.51389 0.99476 0.46472 0.0
H1440 H 0.48617 0.98649 0.53813 0.0
C1441 C 0.50241 0.9388 0.51177 0.0
C1442 C 0.48854 0.93529 0.51915 0.0
C1443 C 0.50609 0.95256 0.50462 0.0
C1444 C 0.49378 0.98862 0.51717 0.0
H1445 H 0.54063 0.04028 0.46721 0.0
H1446 H 0.53393 0.01607 0.47699 0.0
H1447 H 0.4928 0.01053 0.52675 0.0
H1448 H 0.46761 0.94333 0.52439 0.0
H1449 H 0.47397 0.96733 0.51117 0.0
H1450 H 0.5148 0.97288 0.45483 0.0
C1451 C 0.52587 0.02388 0.47469 0.0
C1452 C 0.49759 0.00239 0.51073 0.0
C1453 C 0.52971 0.03772 0.46927 0.0
C1454 C 0.47839 0.94576 0.51895 0.0
C1455 C 0.48206 0.95952 0.51159 0.0
C1456 C 0.51001 0.98098 0.47098 0.0
C1457 C 0.51179 0.02021 0.47793 0.0
C1458 C 0.50771 0.0056 0.48451 0.0
C1459 C 0.49597 0.96309 0.50449 0.0
C1460 C 0.49994 0.97775 0.49736 0.0
H1461 H 0.49738 0.05225 0.46765 0.0
H1462 H 0.4907 0.02808 0.47721 0.0
H1463 H 0.52158 0.99694 0.44401 0.0
H1464 H 0.51046 0.93095 0.5119 0.0
H1465 H 0.51692 0.95497 0.49981 0.0
C1466 C 0.30146 0.24785 0.74169 0.0
C1467 C 0.30564 0.23411 0.74842 0.0
C1468 C 0.28789 0.25076 0.73086 0.0
C1469 C 0.2526 0.23645 0.73501 0.0
H1470 H 0.24456 0.26582 0.66593 0.0
C1471 C 0.19653 0.2507 0.6956 0.0
C1472 C 0.1934 0.26496 0.69618 0.0
C1473 C 0.21029 0.24619 0.69721 0.0
C1474 C 0.24665 0.25763 0.68536 0.0
H1475 H 0.29901 0.2126 0.74833 0.0
H1476 H 0.27524 0.21766 0.72905 0.0
H1477 H 0.26861 0.25904 0.67715 0.0
H1478 H 0.20219 0.28568 0.69778 0.0
H1479 H 0.22626 0.2778 0.70082 0.0
H1480 H 0.23068 0.23518 0.74366 0.0
C1481 C 0.28244 0.2262 0.7326 0.0
C1482 C 0.26041 0.25375 0.69181 0.0
C1483 C 0.29605 0.22329 0.74348 0.0
C1484 C 0.2043 0.27462 0.69729 0.0
C1485 C 0.21808 0.27011 0.69882 0.0
C1486 C 0.23885 0.2403 0.7285 0.0
C1487 C 0.27819 0.23998 0.72646 0.0
C1488 C 0.26355 0.24326 0.71714 0.0
C1489 C 0.22121 0.25584 0.69934 0.0
C1490 C 0.23574 0.25107 0.70401 0.0
H1491 H 0.30863 0.25641 0.74532 0.0
H1492 H 0.28491 0.2615 0.72692 0.0
H1493 H 0.25467 0.22847 0.75507 0.0
H1494 H 0.18833 0.24301 0.69457 0.0
H1495 H 0.21239 0.23514 0.69709 0.0
C1496 C 0.02454 0.95698 0.46465 0.0
C1497 C 0.01453 0.94643 0.462 0.0
C1498 C 0.02049 0.97088 0.46769 0.0
C1499 C 0.99085 0.99475 0.4532 0.0
H1500 H 0.01013 0.01763 0.5238 0.0
C1501 C 0.97126 0.04915 0.49733 0.0
C1502 C 0.98137 0.05951 0.50197 0.0
C1503 C 0.9752 0.03536 0.49101 0.0
C1504 C 0.00475 0.01144 0.50366 0.0
H1505 H 0.99244 0.94213 0.45977 0.0
H1506 H 0.98536 0.96635 0.46541 0.0
H1507 H 0.01734 0.99364 0.51474 0.0
H1508 H 0.00351 0.06364 0.50303 0.0
H1509 H 0.01037 0.03969 0.49169 0.0
H1510 H 0.9782 0.01258 0.44232 0.0
C1511 C 0.99634 0.96393 0.46476 0.0
C1512 C 0.00889 0.99769 0.49844 0.0
C1513 C 0.0004 0.95005 0.46174 0.0
C1514 C 0.99547 0.05587 0.49975 0.0
C1515 C -0.00059 0.04213 0.49346 0.0
C1516 C 0.9867 0.00853 0.45844 0.0
C1517 C 0.00633 0.9745 0.46813 0.0
C1518 C 0.00201 0.98918 0.47314 0.0
C1519 C 0.98933 0.0317 0.48928 0.0
C1520 C 0.99362 0.01703 0.4837 0.0
H1521 H 0.03552 0.95451 0.46478 0.0
H1522 H 0.02844 0.97879 0.4697 0.0
H1523 H 0.98544 0.98852 0.43321 0.0
H1524 H 0.96031 0.05166 0.49895 0.0
H1525 H 0.96719 0.02754 0.48823 0.0
C1526 C 0.20405 0.71823 0.78047 0.0
C1527 C 0.19332 0.72803 0.78368 0.0
C1528 C 0.21777 0.72257 0.77546 0.0
C1529 C 0.24108 0.75283 0.78533 0.0
H1530 H 0.26315 0.73378 0.71253 0.0
C1531 C 0.29415 0.77377 0.73758 0.0
C1532 C 0.30486 0.76398 0.73379 0.0
C1533 C 0.28046 0.76941 0.74303 0.0
C1534 C 0.25717 0.73912 0.73319 0.0
H1535 H 0.18853 0.75004 0.78498 0.0
H1536 H 0.21244 0.7576 0.77608 0.0
H1537 H 0.23955 0.72594 0.72502 0.0
H1538 H 0.30966 0.74197 0.7321 0.0
H1539 H 0.28581 0.73438 0.74187 0.0
H1540 H 0.2587 0.766 0.79352 0.0
C1541 C 0.2103 0.74658 0.77772 0.0
C1542 C 0.24366 0.73462 0.7404 0.0
C1543 C 0.19659 0.74224 0.78267 0.0
C1544 C 0.3016 0.74976 0.73485 0.0
C1545 C 0.28793 0.74541 0.74028 0.0
C1546 C 0.25459 0.75733 0.77814 0.0
C1547 C 0.22102 0.73679 0.77364 0.0
C1548 C 0.23547 0.74142 0.76655 0.0
C1549 C 0.27722 0.75518 0.74477 0.0
C1550 C 0.26279 0.75053 0.75198 0.0
H1551 H 0.20184 0.7072 0.78122 0.0
H1552 H 0.22583 0.71478 0.77293 0.0
H1553 H 0.23509 0.75818 0.80596 0.0
H1554 H 0.29635 0.7848 0.73678 0.0
H1555 H 0.2724 0.77719 0.74586 0.0
C1556 C 0.49558 0.93752 0.00759 0.0
C1557 C 0.50939 0.93419 0.01618 0.0
C1558 C 0.4918 0.95123 8e-05 0.0
C1559 C 0.50356 0.98738 0.01418 0.0
H1560 H 0.47677 0.99577 0.93848 0.0
C1561 C 0.49318 0.04318 0.96599 0.0
C1562 C 0.47922 0.04714 0.96206 0.0
C1563 C 0.49669 0.02929 0.97152 0.0
C1564 C 0.48417 0.99356 0.9599 0.0
H1565 H 0.53015 0.9425 0.02303 0.0
H1566 H 0.52364 0.9664 0.00921 0.0
H1567 H 0.48342 0.97167 0.94984 0.0
H1568 H 0.458 0.03967 0.96012 0.0
H1569 H 0.46416 0.01528 0.96972 0.0
H1570 H 0.50441 0.00927 0.02398 0.0
C1571 C 0.51564 0.95849 0.00899 0.0
C1572 C 0.48797 0.97977 0.96647 0.0
C1573 C 0.5194 0.94479 0.01669 0.0
C1574 C 0.46884 0.0369 0.96308 0.0
C1575 C 0.47237 0.02296 0.9684 0.0
C1576 C 0.49982 0.00115 0.00747 0.0
C1577 C 0.50178 0.96189 0.00083 0.0
C1578 C 0.49773 0.97653 0.99366 0.0
C1579 C 0.48633 0.01904 0.97306 0.0
C1580 C 0.49012 0.00438 0.98023 0.0
H1581 H 0.48763 0.92956 0.00712 0.0
H1582 H 0.481 0.95351 0.99438 0.0
H1583 H 0.51088 0.98524 0.03582 0.0
H1584 H 0.50141 0.05084 0.96521 0.0
H1585 H 0.50754 0.02655 0.97451 0.0
C1586 C 0.19626 0.21522 0.25108 0.0
C1587 C 0.18615 0.22544 0.24458 0.0
C1588 C 0.20964 0.21901 0.26213 0.0
C1589 C 0.22936 0.248 0.30326 0.0
H1590 H 0.26106 0.23131 0.2551 0.0
C1591 C 0.28377 0.27279 0.30403 0.0
C1592 C 0.29538 0.264 0.30569 0.0
C1593 C 0.27042 0.26724 0.30111 0.0
C1594 C 0.25234 0.23591 0.26928 0.0
H1595 H 0.18207 0.24761 0.24465 0.0
H1596 H 0.20535 0.25419 0.26356 0.0
H1597 H 0.23774 0.22295 0.24139 0.0
H1598 H 0.30214 0.24251 0.30692 0.0
H1599 H 0.2788 0.2328 0.30221 0.0
H1600 H 0.24393 0.26112 0.33069 0.0
C1601 C 0.20294 0.24326 0.26062 0.0
C1602 C 0.23898 0.23112 0.2614 0.0
C1603 C 0.18963 0.23948 0.24949 0.0
C1604 C 0.29337 0.24954 0.3055 0.0
C1605 C 0.28002 0.24399 0.3026 0.0
C1606 C 0.24271 0.25277 0.31117 0.0
C1607 C 0.2131 0.23308 0.26705 0.0
C1608 C 0.22734 0.23728 0.27783 0.0
C1609 C 0.26841 0.25277 0.29983 0.0
C1610 C 0.25433 0.24694 0.29383 0.0
H1611 H 0.19384 0.20431 0.24759 0.0
H1612 H 0.21724 0.21093 0.2671 0.0
H1613 H 0.2206 0.25278 0.31684 0.0
H1614 H 0.28501 0.28398 0.30406 0.0
H1615 H 0.26171 0.27429 0.29861 0.0
C1616 C 0.81069 0.24983 0.71848 0.0
C1617 C 0.81289 0.23576 0.71013 0.0
C1618 C 0.79723 0.25522 0.72004 0.0
C1619 C 0.76097 0.24817 0.69193 0.0
H1620 H 0.75156 0.27181 0.77376 0.0
C1621 C 0.70475 0.25734 0.7381 0.0
C1622 C 0.7009 0.27064 0.75011 0.0
C1623 C 0.71856 0.25435 0.72976 0.0
C1624 C 0.75407 0.26541 0.75042 0.0
H1625 H 0.80279 0.21634 0.69631 0.0
H1626 H 0.77928 0.2257 0.69942 0.0
H1627 H 0.77549 0.26415 0.7655 0.0
H1628 H 0.70843 0.29134 0.76227 0.0
H1629 H 0.73269 0.28611 0.74763 0.0
H1630 H 0.73948 0.2492 0.67732 0.0
C1631 C 0.78794 0.23262 0.70432 0.0
C1632 C 0.76778 0.26101 0.74568 0.0
C1633 C 0.8014 0.22723 0.70276 0.0
C1634 C 0.71112 0.28099 0.75312 0.0
C1635 C 0.72499 0.27798 0.74491 0.0
C1636 C 0.74726 0.25256 0.69669 0.0
C1637 C 0.78569 0.24665 0.71326 0.0
C1638 C 0.77134 0.25216 0.7167 0.0
C1639 C 0.72886 0.26459 0.73332 0.0
C1640 C 0.74362 0.26104 0.72632 0.0
H1641 H 0.81935 0.25666 0.72414 0.0
H1642 H 0.79585 0.26611 0.72656 0.0
H1643 H 0.76342 0.24157 0.66894 0.0
H1644 H 0.69711 0.24914 0.73552 0.0
H1645 H 0.72121 0.24389 0.72143 0.0
C1646 C 0.70133 0.75186 0.21451 0.0
C1647 C 0.69792 0.76604 0.21386 0.0
C1648 C 0.71514 0.74763 0.21814 0.0
C1649 C 0.74885 0.75991 0.25247 0.0
H1650 H 0.76351 0.72857 0.1984 0.0
C1651 C 0.8069 0.74515 0.25476 0.0
C1652 C 0.81024 0.73096 0.25623 0.0
C1653 C 0.79318 0.74941 0.24955 0.0
C1654 C 0.75952 0.73724 0.21401 0.0
H1655 H 0.70628 0.78694 0.21557 0.0
H1656 H 0.73044 0.77956 0.22157 0.0
H1657 H 0.73968 0.7362 0.18785 0.0
H1658 H 0.80185 0.71009 0.25385 0.0
H1659 H 0.77782 0.71753 0.24513 0.0
H1660 H 0.76865 0.76093 0.27873 0.0
C1661 C 0.72242 0.77171 0.21978 0.0
C1662 C 0.74588 0.74162 0.20791 0.0
C1663 C 0.7086 0.77593 0.21609 0.0
C1664 C 0.79958 0.7211 0.25276 0.0
C1665 C 0.78584 0.72536 0.24752 0.0
C1666 C 0.76248 0.75552 0.25858 0.0
C1667 C 0.72582 0.75751 0.22126 0.0
C1668 C 0.7404 0.75301 0.22709 0.0
C1669 C 0.7825 0.73957 0.24569 0.0
C1670 C 0.76797 0.74414 0.23943 0.0
H1671 H 0.69331 0.744 0.21292 0.0
H1672 H 0.71739 0.73662 0.21956 0.0
H1673 H 0.74486 0.76856 0.26816 0.0
H1674 H 0.81491 0.753 0.25723 0.0
H1675 H 0.79099 0.76043 0.24783 0.0
C1676 C 0.70908 0.24241 0.28963 0.0
C1677 C 0.70515 0.22842 0.29271 0.0
C1678 C 0.72309 0.24605 0.28734 0.0
C1679 C 0.75859 0.23335 0.30507 0.0
H1680 H 0.76882 0.25953 0.22954 0.0
C1681 C 0.81534 0.24163 0.25912 0.0
C1682 C 0.81947 0.25519 0.25024 0.0
C1683 C 0.80143 0.2387 0.26676 0.0
C1684 C 0.76614 0.25237 0.25114 0.0
H1685 H 0.71276 0.20727 0.29679 0.0
H1686 H 0.73725 0.21363 0.29271 0.0
H1687 H 0.74446 0.25392 0.23922 0.0
H1688 H 0.81239 0.27641 0.24319 0.0
H1689 H 0.78817 0.27136 0.25709 0.0
H1690 H 0.7803 0.23177 0.3169 0.0
C1691 C 0.72951 0.22179 0.29228 0.0
C1692 C 0.75217 0.24915 0.25665 0.0
C1693 C 0.71549 0.21815 0.29442 0.0
C1694 C 0.80949 0.26583 0.24972 0.0
C1695 C 0.7956 0.26292 0.2575 0.0
C1696 C 0.77258 0.23662 0.29965 0.0
C1697 C 0.73344 0.23577 0.28825 0.0
C1698 C 0.74825 0.23955 0.28353 0.0
C1699 C 0.79138 0.2493 0.2658 0.0
C1700 C 0.77651 0.24611 0.27247 0.0
H1701 H 0.70133 0.25056 0.28839 0.0
H1702 H 0.72582 0.25692 0.28472 0.0
H1703 H 0.75586 0.22603 0.32627 0.0
H1704 H 0.82282 0.23322 0.25965 0.0
H1705 H 0.79851 0.22807 0.2726 0.0
C1706 C 0.7015 0.7261 0.73161 0.0
C1707 C 0.69112 0.73565 0.74134 0.0
C1708 C 0.71551 0.72955 0.73554 0.0
C1709 C 0.73874 0.75981 0.74137 0.0
H1710 H 0.76547 0.73298 0.77725 0.0
C1711 C 0.79588 0.77421 0.771 0.0
C1712 C 0.80602 0.76452 0.76051 0.0
C1713 C 0.7818 0.77075 0.76949 0.0
C1714 C 0.75816 0.74054 0.76683 0.0
H1715 H 0.68722 0.75617 0.76347 0.0
H1716 H 0.71167 0.76214 0.7706 0.0
H1717 H 0.74098 0.72667 0.77371 0.0
H1718 H 0.80941 0.74368 0.7399 0.0
H1719 H 0.78485 0.73772 0.73678 0.0
H1720 H 0.75592 0.77364 0.73423 0.0
C1721 C 0.709 0.75207 0.7595 0.0
C1722 C 0.74413 0.73693 0.76484 0.0
C1723 C 0.695 0.74862 0.75563 0.0
C1724 C 0.80183 0.75135 0.74827 0.0
C1725 C 0.78776 0.7479 0.74672 0.0
C1726 C 0.75277 0.76341 0.74332 0.0
C1727 C 0.71941 0.74262 0.74921 0.0
C1728 C 0.73428 0.74651 0.752 0.0
C1729 C 0.77759 0.75754 0.75743 0.0
C1730 C 0.76264 0.7538 0.75595 0.0
H1731 H 0.6988 0.71604 0.72044 0.0
H1732 H 0.7233 0.7221 0.72704 0.0
H1733 H 0.73143 0.76735 0.73084 0.0
H1734 H 0.79883 0.78442 0.78068 0.0
H1735 H 0.77422 0.77836 0.7783 0.0
C1736 C 0.52406 0.54598 0.54188 0.0
C1737 C 0.5144 0.55686 0.54453 0.0
C1738 C 0.51957 0.53233 0.53674 0.0
C1739 C 0.48893 0.50926 0.54323 0.0
H1740 H 0.50868 0.48781 0.47043 0.0
C1741 C 0.46844 0.45708 0.48571 0.0
C1742 C 0.47831 0.44652 0.48052 0.0
C1743 C 0.47268 0.4705 0.49518 0.0
C1744 C 0.50314 0.4936 0.49114 0.0
H1745 H 0.49247 0.56197 0.54505 0.0
H1746 H 0.48462 0.53814 0.53573 0.0
H1747 H 0.51651 0.51117 0.48519 0.0
H1748 H 0.50029 0.44162 0.48166 0.0
H1749 H 0.50766 0.46494 0.49841 0.0
H1750 H 0.4755 0.49165 0.5489 0.0
C1751 C 0.49565 0.54013 0.53794 0.0
C1752 C 0.50765 0.50698 0.49965 0.0
C1753 C 0.50015 0.55378 0.54309 0.0
C1754 C 0.49245 0.44957 0.48526 0.0
C1755 C 0.49668 0.46295 0.49468 0.0
C1756 C 0.48441 0.49585 0.53469 0.0
C1757 C 0.50532 0.52929 0.53411 0.0
C1758 C 0.50061 0.51496 0.52582 0.0
C1759 C 0.48686 0.47359 0.49955 0.0
C1760 C 0.49149 0.48787 0.50859 0.0
H1761 H 0.53512 0.54804 0.54309 0.0
H1762 H 0.52727 0.52417 0.53451 0.0
H1763 H 0.48337 0.51511 0.56376 0.0
H1764 H 0.45746 0.455 0.48224 0.0
H1765 H 0.46488 0.47851 0.49842 0.0
C1766 C 0.96463 0.45961 0.05067 0.0
C1767 C 0.97497 0.44939 0.04786 0.0
C1768 C 0.96816 0.47369 0.05001 0.0
C1769 C 0.99798 0.49794 0.05953 0.0
H1770 H 0.97519 0.52222 0.00019 0.0
C1771 C 0.0165 0.55156 0.00892 0.0
C1772 C 0.00689 0.56253 0.00983 0.0
C1773 C 0.01231 0.53802 0.017 0.0
C1774 C 0.98155 0.51562 0.01725 0.0
H1775 H 0.99713 0.44584 0.0429 0.0
H1776 H 0.00327 0.47035 0.04107 0.0
H1777 H 0.96833 0.49809 0.00871 0.0
H1778 H 0.98541 0.56799 0.02028 0.0
H1779 H 0.97807 0.5443 0.03429 0.0
H1780 H 0.01138 0.51545 0.06725 0.0
C1781 C 0.99245 0.46755 0.04439 0.0
C1782 C 0.97761 0.50179 0.02222 0.0
C1783 C 0.98893 0.45349 0.0452 0.0
C1784 C 0.99304 0.55973 0.01928 0.0
C1785 C 0.98883 0.54617 0.02714 0.0
C1786 C 0.00196 0.51176 0.05439 0.0
C1787 C 0.9821 0.47783 0.04639 0.0
C1788 C 0.98584 0.49275 0.04313 0.0
C1789 C 0.9984 0.53517 0.02594 0.0
C1790 C 0.99385 0.5207 0.03293 0.0
H1791 H 0.95378 0.45674 0.05292 0.0
H1792 H 0.95995 0.48134 0.05215 0.0
H1793 H 0.00443 0.49132 0.0763 0.0
H1794 H 0.02725 0.55342 0.00172 0.0
H1795 H 0.01989 0.52972 0.01545 0.0
C1796 C 0.52419 0.45951 0.95547 0.0
C1797 C 0.51395 0.44925 0.95138 0.0
C1798 C 0.52043 0.47335 0.9615 0.0
C1799 C 0.49085 0.49792 0.95452 0.0
H1800 H 0.51151 0.51865 0.02695 0.0
C1801 C 0.47225 0.55071 0.01224 0.0
C1802 C 0.48242 0.56106 0.01608 0.0
C1803 C 0.47605 0.53712 0.00324 0.0
C1804 C 0.50572 0.51304 0.0064 0.0
H1805 H 0.49176 0.44542 0.9498 0.0
H1806 H 0.48521 0.46948 0.96084 0.0
H1807 H 0.51841 0.49496 0.01234 0.0
H1808 H 0.50452 0.56534 0.01339 0.0
H1809 H 0.51113 0.54167 0.99769 0.0
H1810 H 0.47806 0.51601 0.949 0.0
C1811 C 0.49614 0.46692 0.95888 0.0
C1812 C 0.5097 0.49948 0.99793 0.0
C1813 C 0.4999 0.45312 0.95276 0.0
C1814 C 0.49644 0.55758 0.01072 0.0
C1815 C 0.50024 0.54401 0.00191 0.0
C1816 C 0.48684 0.51148 0.96311 0.0
C1817 C 0.50635 0.47719 0.96365 0.0
C1818 C 0.50231 0.49175 0.9719 0.0
C1819 C 0.4901 0.53362 0.99813 0.0
C1820 C 0.49424 0.51918 0.98913 0.0
H1821 H 0.53511 0.45683 0.9544 0.0
H1822 H 0.52856 0.48104 0.96451 0.0
H1823 H 0.48505 0.49231 0.93399 0.0
H1824 H 0.46136 0.55311 0.01624 0.0
H1825 H 0.46802 0.52929 0.00083 0.0
C1826 C 0.00248 0.44858 0.4911 0.0
C1827 C 0.01521 0.44386 0.50509 0.0
C1828 C 0.00038 0.46269 0.48437 0.0
C1829 C 0.01291 0.49716 0.51195 0.0
H1830 H 0.9921 0.50956 0.42766 0.0
C1831 C 0.00359 0.55527 0.48186 0.0
C1832 C 0.99002 0.5589 0.47159 0.0
C1833 C 0.00758 0.54133 0.48345 0.0
C1834 C 0.99785 0.50624 0.45144 0.0
H1835 H 0.0358 0.45012 0.52236 0.0
H1836 H 0.03216 0.47482 0.51033 0.0
H1837 H 0.99756 0.48495 0.43468 0.0
H1838 H 0.97003 0.55085 0.45443 0.0
H1839 H 0.97696 0.52652 0.45748 0.0
H1840 H 0.01305 0.51841 0.52896 0.0
C1841 C 0.02376 0.46762 0.50497 0.0
C1842 C 0.00098 0.49216 0.45546 0.0
C1843 C 0.02587 0.45348 0.51168 0.0
C1844 C 0.98057 0.54836 0.46241 0.0
C1845 C 0.98457 0.53442 0.46393 0.0
C1846 C 0.00979 0.51124 0.50791 0.0
C1847 C 0.01095 0.47238 0.49148 0.0
C1848 C 0.0084 0.48744 0.48597 0.0
C1849 C 0.99809 0.53075 0.4747 0.0
C1850 C 0.00209 0.51592 0.47783 0.0
H1851 H 0.99406 0.4414 0.48581 0.0
H1852 H 0.99033 0.46604 0.47445 0.0
H1853 H 0.01848 0.49384 0.53601 0.0
H1854 H 0.0111 0.56319 0.48897 0.0
H1855 H 0.01811 0.53883 0.49144 0.0
C1856 C 0.05624 0.10036 0.09903 0.0
C1857 C 0.0515 0.10671 0.06694 0.0
C1858 C 0.06854 0.10484 0.11551 0.0
C1859 C 0.09966 0.12731 0.10245 0.0
H1860 H 0.09302 0.13766 0.2029 0.0
C1861 C 0.11314 0.17569 0.19768 0.0
C1862 C 0.12752 0.17713 0.19292 0.0
C1863 C 0.10643 0.16351 0.18723 0.0
C1864 C 0.09512 0.13468 0.17502 0.0
H1865 H 0.05634 0.12198 0.02553 0.0
H1866 H 0.07766 0.12986 0.05429 0.0
H1867 H 0.07688 0.12211 0.17223 0.0
H1868 H 0.14629 0.16683 0.17468 0.0
H1869 H 0.13444 0.14547 0.15563 0.0
H1870 H 0.11739 0.1407 0.10464 0.0
C1871 C 0.07201 0.12137 0.06671 0.0
C1872 C 0.08595 0.12567 0.15751 0.0
C1873 C 0.05971 0.11695 0.05036 0.0
C1874 C 0.13518 0.16597 0.17862 0.0
C1875 C 0.12841 0.15379 0.16767 0.0
C1876 C 0.10886 0.13631 0.12003 0.0
C1877 C 0.07633 0.11568 0.10005 0.0
C1878 C 0.08778 0.12238 0.12057 0.0
C1879 C 0.11394 0.15253 0.17147 0.0
C1880 C 0.10631 0.14056 0.15597 0.0
H1881 H 0.05015 0.09237 0.11228 0.0
H1882 H 0.07169 0.10017 0.14101 0.0
H1883 H 0.10143 0.1248 0.07411 0.0
H1884 H 0.10699 0.18411 0.20876 0.0
H1885 H 0.09525 0.16295 0.18999 0.0
C1886 C 0.13915 0.82051 0.31875 0.0
C1887 C 0.13343 0.80747 0.32715 0.0
C1888 C 0.13435 0.83249 0.33647 0.0
C1889 C 0.11611 0.84408 0.41898 0.0
H1890 H 0.09932 0.87257 0.35884 0.0
C1891 C 0.06768 0.87347 0.46123 0.0
C1892 C 0.06542 0.88716 0.44959 0.0
C1893 C 0.07968 0.86638 0.45105 0.0
C1894 C 0.10427 0.86494 0.37618 0.0
H1895 H 0.11856 0.79663 0.36118 0.0
H1896 H 0.1104 0.81736 0.39225 0.0
H1897 H 0.11411 0.85493 0.33088 0.0
H1898 H 0.07424 0.90445 0.41974 0.0
H1899 H 0.09532 0.89196 0.40169 0.0
H1900 H 0.10582 0.85365 0.46404 0.0
C1901 C 0.11853 0.8184 0.37205 0.0
C1902 C 0.11272 0.85483 0.36012 0.0
C1903 C 0.12311 0.80655 0.35398 0.0
C1904 C 0.07573 0.89388 0.42906 0.0
C1905 C 0.08775 0.88673 0.4186 0.0
C1906 C 0.10776 0.8542 0.43505 0.0
C1907 C 0.12403 0.83149 0.36339 0.0
C1908 C 0.11816 0.84395 0.38117 0.0
C1909 C 0.08969 0.87279 0.42886 0.0
C1910 C 0.1012 0.86434 0.41357 0.0
H1911 H 0.14713 0.82147 0.29815 0.0
H1912 H 0.13868 0.8425 0.32924 0.0
H1913 H 0.12037 0.83589 0.43585 0.0
H1914 H 0.05993 0.86803 0.47714 0.0
H1915 H 0.08073 0.85559 0.45901 0.0
C1916 C 0.35593 0.8266 0.69987 0.0
C1917 C 0.36305 0.81606 0.7186 0.0
C1918 C 0.36276 0.83894 0.69055 0.0
C1919 C 0.39526 0.85904 0.7068 0.0
H1920 H 0.39361 0.86642 0.60318 0.0
C1921 C 0.44225 0.87282 0.62198 0.0
C1922 C 0.44148 0.88341 0.59586 0.0
C1923 C 0.43049 0.86886 0.64133 0.0
C1924 C 0.39395 0.86478 0.63232 0.0
H1925 H 0.38251 0.81044 0.7443 0.0
H1926 H 0.39438 0.83177 0.72805 0.0
H1927 H 0.37608 0.85159 0.63124 0.0
H1928 H 0.42789 0.89829 0.56957 0.0
H1929 H 0.40696 0.89087 0.60279 0.0
H1930 H 0.4138 0.87132 0.70717 0.0
C1931 C 0.38355 0.83068 0.72068 0.0
C1932 C 0.38391 0.85629 0.64845 0.0
C1933 C 0.37679 0.81837 0.72972 0.0
C1934 C 0.42871 0.89008 0.58961 0.0
C1935 C 0.4168 0.88588 0.60854 0.0
C1936 C 0.40534 0.86741 0.69063 0.0
C1937 C 0.37674 0.84096 0.70018 0.0
C1938 C 0.38489 0.85277 0.6855 0.0
C1939 C 0.41764 0.87524 0.6346 0.0
C1940 C 0.40514 0.86978 0.65297 0.0
H1941 H 0.34531 0.82508 0.69104 0.0
H1942 H 0.35723 0.84671 0.67492 0.0
H1943 H 0.39611 0.85676 0.73557 0.0
H1944 H 0.45198 0.86757 0.62751 0.0
H1945 H 0.43136 0.86047 0.66085 0.0
C1946 C 0.43045 0.12313 0.94981 0.0
C1947 C 0.43165 0.10911 0.93994 0.0
C1948 C 0.41854 0.13061 0.94109 0.0
C1949 C 0.39168 0.1321 0.87219 0.0
H1950 H 0.37835 0.16212 0.9333 0.0
C1951 C 0.35583 0.1768 0.82066 0.0
C1952 C 0.36179 0.18987 0.82756 0.0
C1953 C 0.3612 0.16488 0.83737 0.0
C1954 C 0.38185 0.15368 0.91607 0.0
H1955 H 0.42116 0.09172 0.91445 0.0
H1956 H 0.40023 0.10495 0.89873 0.0
H1957 H 0.39326 0.1442 0.95933 0.0
H1958 H 0.37783 0.20078 0.85759 0.0
H1959 H 0.38704 0.18011 0.88685 0.0
H1960 H 0.38073 0.14202 0.82854 0.0
C1961 C 0.40855 0.1101 0.91327 0.0
C1962 C 0.39039 0.14346 0.93091 0.0
C1963 C 0.42048 0.10254 0.92235 0.0
C1964 C 0.37306 0.19085 0.85163 0.0
C1965 C 0.37824 0.17903 0.86868 0.0
C1966 C 0.38306 0.14233 0.85736 0.0
C1967 C 0.40757 0.12427 0.92209 0.0
C1968 C 0.39592 0.13294 0.90873 0.0
C1969 C 0.37239 0.16595 0.86174 0.0
C1970 C 0.37862 0.15353 0.87884 0.0
H1971 H 0.43888 0.12845 0.96347 0.0
H1972 H 0.41821 0.14157 0.94776 0.0
H1973 H 0.39584 0.12416 0.85438 0.0
H1974 H 0.34712 0.1758 0.80221 0.0
H1975 H 0.35658 0.15487 0.83151 0.0
C1976 C 0.86147 0.8242 0.77829 0.0
C1977 C 0.85663 0.81415 0.80284 0.0
C1978 C 0.86699 0.83671 0.79101 0.0
C1979 C 0.87305 0.8577 0.87568 0.0
H1980 H 0.9073 0.86719 0.8261 0.0
C1981 C 0.92154 0.88035 0.94447 0.0
C1982 C 0.92956 0.89014 0.92549 0.0
C1983 C 0.90965 0.87469 0.92864 0.0
C1984 C 0.89762 0.8649 0.83987 0.0
H1985 H 0.85307 0.80951 0.85973 0.0
H1986 H 0.86325 0.83097 0.8821 0.0
H1987 H 0.89167 0.8504 0.79901 0.0
H1988 H 0.93104 0.90229 0.87601 0.0
H1989 H 0.91033 0.89216 0.84796 0.0
H1990 H 0.87972 0.87157 0.91791 0.0
C1991 C 0.86248 0.8295 0.85298 0.0
C1992 C 0.88859 0.85527 0.82428 0.0
C1993 C 0.85672 0.81711 0.8402 0.0
C1994 C 0.92506 0.89473 0.8912 0.0
C1995 C 0.91325 0.88893 0.87514 0.0
C1996 C 0.88222 0.8672 0.89155 0.0
C1997 C 0.86807 0.83929 0.82859 0.0
C1998 C 0.87637 0.85123 0.84244 0.0
C1999 C 0.90565 0.8786 0.89336 0.0
C2000 C 0.89475 0.8706 0.87419 0.0
H2001 H 0.86135 0.82223 0.74928 0.0
H2002 H 0.87085 0.84414 0.77136 0.0
H2003 H 0.8636 0.85509 0.89008 0.0
H2004 H 0.92475 0.87667 0.97103 0.0
H2005 H 0.90406 0.86665 0.94315 0.0
C2006 C 0.92648 0.10423 0.59523 0.0
C2007 C 0.92942 0.10332 0.55791 0.0
C2008 C 0.91377 0.10955 0.60714 0.0
C2009 C 0.88802 0.13459 0.57543 0.0
H2010 H 0.87146 0.12714 0.66954 0.0
C2011 C 0.85224 0.17472 0.64131 0.0
C2012 C 0.85666 0.17839 0.67643 0.0
C2013 C 0.8568 0.16235 0.62533 0.0
C2014 C 0.8759 0.12929 0.64308 0.0
H2015 H 0.92092 0.10597 0.50376 0.0
H2016 H 0.8986 0.11502 0.52455 0.0
H2017 H 0.88752 0.11031 0.64293 0.0
H2018 H 0.86837 0.17152 0.72347 0.0
H2019 H 0.87639 0.15005 0.69563 0.0
H2020 H 0.87697 0.15381 0.57622 0.0
C2021 C 0.90623 0.11195 0.54464 0.0
C2022 C 0.88511 0.11967 0.62785 0.0
C2023 C 0.91898 0.10669 0.53272 0.0
C2024 C 0.86485 0.169 0.69627 0.0
C2025 C 0.86936 0.15662 0.68038 0.0
C2026 C 0.87879 0.14416 0.59057 0.0
C2027 C 0.90371 0.11399 0.58196 0.0
C2028 C 0.8917 0.12247 0.5945 0.0
C2029 C 0.86581 0.1534 0.64425 0.0
C2030 C 0.87305 0.14188 0.62519 0.0
H2031 H 0.9343 0.10167 0.6153 0.0
H2032 H 0.91228 0.11106 0.63606 0.0
H2033 H 0.893 0.13722 0.54996 0.0
H2034 H 0.84586 0.18173 0.62544 0.0
H2035 H 0.85374 0.16006 0.59761 0.0
C2036 C 0.63259 0.17541 0.29489 0.0
C2037 C 0.64611 0.17847 0.3067 0.0
C2038 C 0.62576 0.16359 0.30764 0.0
C2039 C 0.61549 0.13487 0.33054 0.0
H2040 H 0.61375 0.13445 0.43599 0.0
C2041 C 0.57858 0.09846 0.40913 0.0
C2042 C 0.56948 0.10596 0.43165 0.0
C2043 C 0.59052 0.10479 0.39525 0.0
C2044 C 0.61429 0.13433 0.40656 0.0
H2045 H 0.66337 0.17127 0.33957 0.0
H2046 H 0.65127 0.1507 0.36243 0.0
H2047 H 0.63021 0.14983 0.40534 0.0
H2048 H 0.56603 0.12559 0.45903 0.0
H2049 H 0.58702 0.13656 0.43538 0.0
H2050 H 0.59917 0.11978 0.3318 0.0
C2051 C 0.64603 0.15743 0.34321 0.0
C2052 C 0.62375 0.14303 0.38903 0.0
C2053 C 0.65294 0.16915 0.33004 0.0
C2054 C 0.57287 0.1196 0.44166 0.0
C2055 C 0.58491 0.12584 0.42831 0.0
C2056 C 0.60616 0.12602 0.34809 0.0
C2057 C 0.63226 0.15473 0.33276 0.0
C2058 C 0.62412 0.14371 0.35087 0.0
C2059 C 0.59365 0.11861 0.40427 0.0
C2060 C 0.60518 0.12601 0.38621 0.0
H2061 H 0.6271 0.18241 0.27683 0.0
H2062 H 0.6151 0.16182 0.29941 0.0
H2063 H 0.61563 0.13518 0.30109 0.0
H2064 H 0.57617 0.08792 0.40092 0.0
H2065 H 0.59713 0.09902 0.37682 0.0
C2066 C 0.55733 0.8734 0.11999 0.0
C2067 C 0.55755 0.88351 0.09254 0.0
C2068 C 0.56952 0.86962 0.13779 0.0
C2069 C 0.60579 0.86513 0.12249 0.0
H2070 H 0.60649 0.85852 0.22654 0.0
C2071 C 0.64593 0.82812 0.18564 0.0
C2072 C 0.63953 0.81786 0.20706 0.0
C2073 C 0.63873 0.84028 0.17663 0.0
C2074 C 0.60652 0.86039 0.19749 0.0
H2075 H 0.57059 0.89778 0.06235 0.0
H2076 H 0.59221 0.89071 0.09285 0.0
H2077 H 0.58795 0.87258 0.20017 0.0
H2078 H 0.62106 0.81265 0.23786 0.0
H2079 H 0.60854 0.83363 0.22207 0.0
H2080 H 0.62368 0.85204 0.11928 0.0
C2081 C 0.5825 0.88593 0.10084 0.0
C2082 C 0.59595 0.86847 0.18247 0.0
C2083 C 0.57018 0.88994 0.08346 0.0
C2084 C 0.62623 0.82034 0.22116 0.0
C2085 C 0.6191 0.83247 0.21236 0.0
C2086 C 0.61631 0.85692 0.13747 0.0
C2087 C 0.58223 0.87572 0.12812 0.0
C2088 C 0.59515 0.87038 0.14468 0.0
C2089 C 0.62509 0.84241 0.18917 0.0
C2090 C 0.61638 0.85391 0.17492 0.0
H2091 H 0.54771 0.86834 0.12767 0.0
H2092 H 0.56907 0.86156 0.15832 0.0
H2093 H 0.60535 0.86641 0.09324 0.0
H2094 H 0.65621 0.82647 0.1745 0.0
H2095 H 0.64366 0.84781 0.15895 0.0
C2096 C 0.57169 0.62571 0.54224 0.0
C2097 C 0.56828 0.61248 0.55548 0.0
C2098 C 0.58429 0.63188 0.5515 0.0
C2099 C 0.60839 0.63265 0.62694 0.0
H2100 H 0.62686 0.65952 0.56509 0.0
C2101 C 0.6432 0.67678 0.68402 0.0
C2102 C 0.63801 0.68976 0.67303 0.0
C2103 C 0.63878 0.66462 0.66653 0.0
C2104 C 0.62195 0.65192 0.58259 0.0
H2105 H 0.57567 0.59496 0.58706 0.0
H2106 H 0.59777 0.60586 0.60365 0.0
H2107 H 0.61162 0.64211 0.53794 0.0
H2108 H 0.62466 0.70033 0.63442 0.0
H2109 H 0.61712 0.67928 0.60383 0.0
H2110 H 0.61813 0.643 0.67178 0.0
C2111 C 0.59065 0.61144 0.58613 0.0
C2112 C 0.61322 0.64199 0.5671 0.0
C2113 C 0.57804 0.6052 0.57655 0.0
C2114 C 0.62875 0.69045 0.64363 0.0
C2115 C 0.62456 0.67841 0.62584 0.0
C2116 C 0.61719 0.64256 0.64244 0.0
C2117 C 0.59374 0.62499 0.5744 0.0
C2118 C 0.60577 0.63274 0.5893 0.0
C2119 C 0.62939 0.66536 0.63731 0.0
C2120 C 0.62346 0.65272 0.62053 0.0
H2121 H 0.56438 0.63154 0.52583 0.0
H2122 H 0.58624 0.6424 0.54242 0.0
H2123 H 0.60276 0.6257 0.64481 0.0
H2124 H 0.65037 0.67601 0.70662 0.0
H2125 H 0.64258 0.65466 0.67595 0.0
C2126 C 0.56454 0.37467 0.93762 0.0
C2127 C 0.56286 0.38873 0.92869 0.0
C2128 C 0.57675 0.3677 0.9287 0.0
C2129 C 0.60459 0.36801 0.86177 0.0
H2130 H 0.61878 0.33839 0.92283 0.0
C2131 C 0.64503 0.3265 0.81402 0.0
C2132 C 0.63997 0.31296 0.81928 0.0
C2133 C 0.63826 0.33785 0.83006 0.0
C2134 C 0.61502 0.34672 0.90563 0.0
H2135 H 0.57278 0.4067 0.90442 0.0
H2136 H 0.59424 0.39441 0.88851 0.0
H2137 H 0.60227 0.35505 0.94793 0.0
H2138 H 0.62403 0.30062 0.84564 0.0
H2139 H 0.61242 0.32027 0.87379 0.0
H2140 H 0.61702 0.35926 0.81908 0.0
C2141 C 0.58605 0.38881 0.9024 0.0
C2142 C 0.60556 0.35622 0.91992 0.0
C2143 C 0.57382 0.39584 0.91162 0.0
C2144 C 0.62815 0.31093 0.84098 0.0
C2145 C 0.62157 0.32217 0.85739 0.0
C2146 C 0.61415 0.35852 0.8475 0.0
C2147 C 0.58756 0.37461 0.91049 0.0
C2148 C 0.59977 0.36658 0.89771 0.0
C2149 C 0.62654 0.33572 0.85215 0.0
C2150 C 0.61898 0.34745 0.86893 0.0
H2151 H 0.55628 0.36892 0.9508 0.0
H2152 H 0.57747 0.35671 0.93478 0.0
H2153 H 0.60027 0.37585 0.84394 0.0
H2154 H 0.65414 0.32833 0.79739 0.0
H2155 H 0.64223 0.34824 0.82554 0.0
C2156 C 0.87999 0.3021 0.14791 0.0
C2157 C 0.86977 0.30187 0.1751 0.0
C2158 C 0.88285 0.31431 0.12907 0.0
C2159 C 0.88409 0.35113 0.13923 0.0
H2160 H 0.88916 0.35059 0.03457 0.0
C2161 C 0.91589 0.39366 0.06872 0.0
C2162 C 0.92644 0.38802 0.04687 0.0
C2163 C 0.90458 0.38547 0.07928 0.0
C2164 C 0.88772 0.35097 0.06377 0.0
H2165 H 0.8545 0.31419 0.20404 0.0
H2166 H 0.85994 0.33588 0.17173 0.0
H2167 H 0.87756 0.33118 0.06456 0.0
H2168 H 0.93296 0.36983 0.0166 0.0
H2169 H 0.91349 0.35556 0.03514 0.0
H2170 H 0.89522 0.37033 0.13901 0.0
C2171 C 0.86552 0.32647 0.16476 0.0
C2172 C 0.88105 0.33989 0.08085 0.0
C2173 C 0.86245 0.31412 0.18319 0.0
C2174 C 0.92501 0.37443 0.03363 0.0
C2175 C 0.91374 0.36628 0.04404 0.0
C2176 C 0.89092 0.36216 0.12219 0.0
C2177 C 0.8757 0.32662 0.13741 0.0
C2178 C 0.8797 0.33962 0.11885 0.0
C2179 C 0.90363 0.37153 0.06798 0.0
C2180 C 0.89338 0.36187 0.08445 0.0
H2181 H 0.88573 0.29279 0.14096 0.0
H2182 H 0.8909 0.31422 0.10849 0.0
H2183 H 0.8832 0.35112 0.16861 0.0
H2184 H 0.91672 0.40415 0.07921 0.0
H2185 H 0.89687 0.38986 0.0974 0.0
C2186 C 0.93459 0.6012 0.39405 0.0
C2187 C 0.93819 0.6071 0.42771 0.0
C2188 C 0.92317 0.60622 0.37459 0.0
C2189 C 0.89252 0.62989 0.38046 0.0
H2190 H 0.90274 0.63934 0.2815 0.0
C2191 C 0.88276 0.67743 0.27777 0.0
C2192 C 0.86841 0.67947 0.28174 0.0
C2193 C 0.88898 0.66524 0.29023 0.0
C2194 C 0.89967 0.63669 0.30898 0.0
H2195 H 0.93213 0.62212 0.46866 0.0
H2196 H 0.91238 0.631 0.4347 0.0
H2197 H 0.91737 0.62362 0.31636 0.0
H2198 H 0.84918 0.6701 0.3001 0.0
H2199 H 0.86009 0.64872 0.32196 0.0
H2200 H 0.87536 0.64376 0.37386 0.0
C2201 C 0.91823 0.62243 0.42331 0.0
C2202 C 0.90797 0.62754 0.32887 0.0
C2203 C 0.92963 0.61741 0.44271 0.0
C2204 C 0.86028 0.66881 0.29679 0.0
C2205 C 0.86653 0.65661 0.30945 0.0
C2206 C 0.88423 0.63907 0.36057 0.0
C2207 C 0.91514 0.61722 0.38848 0.0
C2208 C 0.90478 0.62446 0.36531 0.0
C2209 C 0.88099 0.65484 0.30703 0.0
C2210 C 0.88804 0.64299 0.32511 0.0
H2211 H 0.94096 0.59317 0.38193 0.0
H2212 H 0.92093 0.60186 0.34808 0.0
H2213 H 0.88967 0.62754 0.40829 0.0
H2214 H 0.88929 0.68546 0.26622 0.0
H2215 H 0.90017 0.66432 0.28838 0.0
C2216 C 0.36266 0.32423 0.29548 0.0
C2217 C 0.34967 0.32078 0.3101 0.0
C2218 C 0.36894 0.33683 0.30416 0.0
C2219 C 0.37068 0.36113 0.37934 0.0
H2220 H 0.3972 0.37888 0.31502 0.0
C2221 C 0.41583 0.3975 0.42719 0.0
C2222 C 0.42857 0.39139 0.41759 0.0
C2223 C 0.40341 0.39257 0.41206 0.0
C2224 C 0.38966 0.37421 0.33315 0.0
H2225 H 0.33264 0.32808 0.3436 0.0
H2226 H 0.34372 0.35023 0.35907 0.0
H2227 H 0.37925 0.36385 0.28956 0.0
H2228 H 0.43842 0.37562 0.38424 0.0
H2229 H 0.41688 0.36727 0.35743 0.0
H2230 H 0.38161 0.37105 0.42305 0.0
C2231 C 0.34905 0.34312 0.34097 0.0
C2232 C 0.37944 0.36557 0.31867 0.0
C2233 C 0.34269 0.33049 0.33203 0.0
C2234 C 0.42874 0.38046 0.39233 0.0
C2235 C 0.41645 0.37578 0.37671 0.0
C2236 C 0.38084 0.36991 0.3938 0.0
C2237 C 0.36239 0.34626 0.32779 0.0
C2238 C 0.37035 0.35832 0.34178 0.0
C2239 C 0.40369 0.38175 0.38644 0.0
C2240 C 0.39083 0.37591 0.37093 0.0
H2241 H 0.36825 0.31696 0.27838 0.0
H2242 H 0.37931 0.33878 0.29396 0.0
H2243 H 0.36388 0.35566 0.3979 0.0
H2244 H 0.41546 0.40596 0.44661 0.0
H2245 H 0.39364 0.39723 0.42009 0.0
C2246 C 0.35869 0.67229 0.21834 0.0
C2247 C 0.35419 0.68236 0.1934 0.0
C2248 C 0.36471 0.65994 0.20611 0.0
C2249 C 0.37305 0.63948 0.12185 0.0
H2250 H 0.40663 0.63086 0.17551 0.0
C2251 C 0.42358 0.61966 0.05809 0.0
C2252 C 0.43174 0.61005 0.07726 0.0
C2253 C 0.41117 0.62455 0.07287 0.0
C2254 C 0.39714 0.63288 0.16059 0.0
H2255 H 0.35172 0.68716 0.13621 0.0
H2256 H 0.36273 0.66598 0.11478 0.0
H2257 H 0.38989 0.6469 0.2012 0.0
H2258 H 0.43303 0.59744 0.12598 0.0
H2259 H 0.41138 0.60629 0.15233 0.0
H2260 H 0.38102 0.62616 0.07998 0.0
C2261 C 0.36132 0.66731 0.14378 0.0
C2262 C 0.38747 0.64209 0.17536 0.0
C2263 C 0.35508 0.67954 0.15604 0.0
C2264 C 0.42692 0.60486 0.11066 0.0
C2265 C 0.41458 0.60993 0.12575 0.0
C2266 C 0.38284 0.63041 0.10685 0.0
C2267 C 0.36662 0.65754 0.16867 0.0
C2268 C 0.3755 0.64586 0.1557 0.0
C2269 C 0.40677 0.62007 0.10735 0.0
C2270 C 0.39517 0.62736 0.12566 0.0
H2271 H 0.35796 0.67415 0.24734 0.0
H2272 H 0.36832 0.65251 0.22608 0.0
H2273 H 0.36381 0.64187 0.10628 0.0
H2274 H 0.42703 0.62377 0.0322 0.0
H2275 H 0.40544 0.63247 0.05826 0.0
C2276 C 0.06882 0.60547 0.93783 0.0
C2277 C 0.05617 0.61219 0.93049 0.0
C2278 C 0.08085 0.60917 0.91861 0.0
C2279 C 0.09276 0.6256 0.83423 0.0
H2280 H 0.12184 0.64287 0.89145 0.0
C2281 C 0.12195 0.67319 0.78644 0.0
C2282 C 0.13552 0.6759 0.79831 0.0
C2283 C 0.11508 0.66117 0.79742 0.0
C2284 C 0.11408 0.63774 0.87489 0.0
H2285 H 0.04597 0.62756 0.89668 0.0
H2286 H 0.06677 0.63375 0.86283 0.0
H2287 H 0.10413 0.62888 0.92162 0.0
H2288 H 0.15292 0.66777 0.82911 0.0
H2289 H 0.14085 0.64663 0.84844 0.0
H2290 H 0.10227 0.63493 0.7877 0.0
C2291 C 0.06747 0.62574 0.88344 0.0
C2292 C 0.10392 0.62975 0.89225 0.0
C2293 C 0.05561 0.6223 0.90307 0.0
C2294 C 0.14242 0.66595 0.81966 0.0
C2295 C 0.1355 0.6539 0.83084 0.0
C2296 C 0.10297 0.63346 0.81685 0.0
C2297 C 0.08022 0.61932 0.8912 0.0
C2298 C 0.09281 0.62423 0.87224 0.0
C2299 C 0.12162 0.65156 0.8206 0.0
C2300 C 0.11329 0.64025 0.83723 0.0
H2301 H 0.06948 0.59763 0.95887 0.0
H2302 H 0.09061 0.60417 0.92517 0.0
H2303 H 0.08436 0.62129 0.81823 0.0
H2304 H 0.11639 0.68065 0.76986 0.0
H2305 H 0.10434 0.65985 0.78942 0.0
C2306 C 0.06976 0.3932 0.57113 0.0
C2307 C 0.05661 0.38757 0.5787 0.0
C2308 C 0.08156 0.38813 0.58907 0.0
C2309 C 0.0925 0.36881 0.67061 0.0
H2310 H 0.12129 0.35287 0.60984 0.0
C2311 C 0.12145 0.3196 0.70824 0.0
C2312 C 0.13512 0.31741 0.69642 0.0
C2313 C 0.11451 0.33186 0.69955 0.0
C2314 C 0.11358 0.35759 0.62741 0.0
H2315 H 0.04538 0.37258 0.61147 0.0
H2316 H 0.06584 0.36391 0.64286 0.0
H2317 H 0.10385 0.36809 0.58278 0.0
H2318 H 0.15258 0.3266 0.66806 0.0
H2319 H 0.14038 0.34814 0.65267 0.0
H2320 H 0.10181 0.35785 0.71493 0.0
C2321 C 0.06708 0.3722 0.6232 0.0
C2322 C 0.10359 0.36628 0.61186 0.0
C2323 C 0.0554 0.37706 0.60494 0.0
C2324 C 0.14201 0.32803 0.67743 0.0
C2325 C 0.13502 0.34031 0.6685 0.0
C2326 C 0.10253 0.36022 0.68619 0.0
C2327 C 0.08028 0.37761 0.61534 0.0
C2328 C 0.0926 0.37141 0.63303 0.0
C2329 C 0.12108 0.3422 0.67872 0.0
C2330 C 0.11277 0.35396 0.66442 0.0
H2331 H 0.07094 0.40133 0.55103 0.0
H2332 H 0.09165 0.39241 0.58247 0.0
H2333 H 0.08424 0.37285 0.68759 0.0
H2334 H 0.11589 0.31161 0.72303 0.0
H2335 H 0.10372 0.33286 0.70743 0.0
loop_
_geom_bond_atom_site_label_1
_geom_bond_atom_site_label_2
_geom_bond_distance
_geom_bond_site_symmetry_2
_ccdc_geom_bond_type
In0 O1 2.294 . S
In0 O2 2.326 . S
In0 O6 2.266 . S
In0 O7 2.326 . S
In0 O8 2.247 1_455 S
In0 O9 2.348 . S
In0 O11 2.319 . S
In0 O12 2.326 . S
O1 In0 2.294 . S
O1 C10 1.240 . S
O2 In0 2.326 . S
O2 C10 1.252 . S
C3 O6 1.252 . S
C3 O7 1.260 . S
C4 O11 1.259 . S
C4 O12 1.252 . S
C5 O8 1.236 1_456 S
C5 O9 1.257 1_556 S
O6 In0 2.266 . S
O6 C3 1.252 . S
O7 In0 2.326 . S
O7 C3 1.260 . S
O8 In0 2.247 1_655 S
O8 C5 1.236 1_654 S
O9 In0 2.348 . S
O9 C5 1.257 1_554 S
C10 O1 1.240 . S
C10 O2 1.252 . S
O11 In0 2.319 . S
O11 C4 1.259 . S
O12 In0 2.326 . S
O12 C4 1.252 . S
In13 O14 2.294 . S
In13 O15 2.326 . S
In13 O19 2.266 . S
In13 O20 2.326 . S
In13 O21 2.266 . S
In13 O22 2.326 . S
In13 O24 2.294 . S
In13 O25 2.326 . S
O14 In13 2.294 . S
O14 C23 1.240 . S
O15 In13 2.326 . S
O15 C23 1.252 . S
C16 O19 1.252 . S
C16 O20 1.260 . S
C17 O24 1.240 . S
C17 O25 1.252 . S
C18 O21 1.252 . S
C18 O22 1.260 . S
O19 In13 2.266 . S
O19 C16 1.252 . S
O20 In13 2.326 . S
O20 C16 1.260 . S
O21 In13 2.266 . S
O21 C18 1.252 . S
O22 In13 2.326 . S
O22 C18 1.260 . S
C23 O14 1.240 . S
C23 O15 1.252 . S
O24 In13 2.294 . S
O24 C17 1.240 . S
O25 In13 2.326 . S
O25 C17 1.252 . S
In26 O27 2.294 . S
In26 O28 2.326 . S
In26 O32 2.266 . S
In26 O33 2.326 . S
In26 O34 2.266 . S
In26 O35 2.326 . S
In26 O37 2.294 . S
In26 O38 2.326 . S
O27 In26 2.294 . S
O27 C36 1.240 . S
O28 In26 2.326 . S
O28 C36 1.252 . S
C29 O32 1.252 . S
C29 O33 1.260 . S
C30 O37 1.240 . S
C30 O38 1.252 . S
C31 O34 1.252 . S
C31 O35 1.260 . S
O32 In26 2.266 . S
O32 C29 1.252 . S
O33 In26 2.326 . S
O33 C29 1.260 . S
O34 In26 2.266 . S
O34 C31 1.252 . S
O35 In26 2.326 . S
O35 C31 1.260 . S
C36 O27 1.240 . S
C36 O28 1.252 . S
O37 In26 2.294 . S
O37 C30 1.240 . S
O38 In26 2.326 . S
O38 C30 1.252 . S
In39 O40 2.294 . S
In39 O41 2.326 . S
In39 O45 2.266 . S
In39 O46 2.326 . S
In39 O47 2.266 . S
In39 O48 2.326 . S
In39 O50 2.294 . S
In39 O51 2.326 . S
O40 In39 2.294 . S
O40 C49 1.240 . S
O41 In39 2.326 . S
O41 C49 1.252 . S
C42 O45 1.252 . S
C42 O46 1.260 . S
C43 O50 1.240 . S
C43 O51 1.252 . S
C44 O47 1.252 . S
C44 O48 1.260 . S
O45 In39 2.266 . S
O45 C42 1.252 . S
O46 In39 2.326 . S
O46 C42 1.260 . S
O47 In39 2.266 . S
O47 C44 1.252 . S
O48 In39 2.326 . S
O48 C44 1.260 . S
C49 O40 1.240 . S
C49 O41 1.252 . S
O50 In39 2.294 . S
O50 C43 1.240 . S
O51 In39 2.326 . S
O51 C43 1.252 . S
In52 O53 2.294 . S
In52 O54 2.326 . S
In52 O58 2.266 . S
In52 O59 2.326 . S
In52 O60 2.248 1_455 S
In52 O61 2.326 . S
In52 O63 2.320 . S
In52 O64 2.326 . S
O53 In52 2.294 . S
O53 C62 1.240 . S
O54 In52 2.326 . S
O54 C62 1.252 . S
C55 O58 1.252 . S
C55 O59 1.260 . S
C56 O63 1.260 . S
C56 O64 1.252 . S
C57 O60 1.237 1_455 S
C57 O61 1.260 . S
O58 In52 2.266 . S
O58 C55 1.252 . S
O59 In52 2.326 . S
O59 C55 1.260 . S
O60 In52 2.248 1_655 S
O60 C57 1.237 1_655 S
O61 In52 2.326 . S
O61 C57 1.260 . S
C62 O53 1.240 . S
C62 O54 1.252 . S
O63 In52 2.320 . S
O63 C56 1.260 . S
O64 In52 2.326 . S
O64 C56 1.252 . S
In65 O66 2.294 . S
In65 O67 2.326 . S
In65 O71 2.266 . S
In65 O72 2.326 . S
In65 O73 2.266 . S
In65 O74 2.326 . S
In65 O76 2.294 . S
In65 O77 2.326 . S
O66 In65 2.294 . S
O66 C75 1.240 . S
O67 In65 2.326 . S
O67 C75 1.252 . S
C68 O71 1.252 . S
C68 O72 1.260 . S
C69 O76 1.240 . S
C69 O77 1.252 . S
C70 O73 1.252 . S
C70 O74 1.260 . S
O71 In65 2.266 . S
O71 C68 1.252 . S
O72 In65 2.326 . S
O72 C68 1.260 . S
O73 In65 2.266 . S
O73 C70 1.252 . S
O74 In65 2.326 . S
O74 C70 1.260 . S
C75 O66 1.240 . S
C75 O67 1.252 . S
O76 In65 2.294 . S
O76 C69 1.240 . S
O77 In65 2.326 . S
O77 C69 1.252 . S
In78 O79 2.294 . S
In78 O80 2.326 . S
In78 O84 2.266 . S
In78 O85 2.347 . S
In78 O86 2.266 . S
In78 O87 2.326 . S
In78 O89 2.294 . S
In78 O90 2.326 . S
O79 In78 2.294 . S
O79 C88 1.240 . S
O80 In78 2.326 . S
O80 C88 1.252 . S
C81 O84 1.252 1_554 S
C81 O85 1.258 1_554 S
C82 O89 1.240 . S
C82 O90 1.252 . S
C83 O86 1.252 . S
C83 O87 1.260 . S
O84 In78 2.266 . S
O84 C81 1.252 1_556 S
O85 In78 2.347 . S
O85 C81 1.258 1_556 S
O86 In78 2.266 . S
O86 C83 1.252 . S
O87 In78 2.326 . S
O87 C83 1.260 . S
C88 O79 1.240 . S
C88 O80 1.252 . S
O89 In78 2.294 . S
O89 C82 1.240 . S
O90 In78 2.326 . S
O90 C82 1.252 . S
In91 O92 2.294 . S
In91 O93 2.326 . S
In91 O97 2.266 . S
In91 O98 2.326 . S
In91 O99 2.266 . S
In91 O100 2.326 . S
In91 O102 2.294 . S
In91 O103 2.326 . S
O92 In91 2.294 . S
O92 C101 1.240 . S
O93 In91 2.326 . S
O93 C101 1.252 . S
C94 O97 1.252 . S
C94 O98 1.260 . S
C95 O102 1.240 . S
C95 O103 1.252 . S
C96 O99 1.252 . S
C96 O100 1.260 . S
O97 In91 2.266 . S
O97 C94 1.252 . S
O98 In91 2.326 . S
O98 C94 1.260 . S
O99 In91 2.266 . S
O99 C96 1.252 . S
O100 In91 2.326 . S
O100 C96 1.260 . S
C101 O92 1.240 . S
C101 O93 1.252 . S
O102 In91 2.294 . S
O102 C95 1.240 . S
O103 In91 2.326 . S
O103 C95 1.252 . S
In104 O105 2.319 . S
In104 O106 2.326 . S
In104 O110 2.247 1_655 S
In104 O111 2.348 . S
In104 O112 2.266 . S
In104 O113 2.326 . S
In104 O115 2.294 . S
In104 O116 2.326 . S
O105 In104 2.319 . S
O105 C114 1.259 . S
O106 In104 2.326 . S
O106 C114 1.252 . S
C107 O110 1.236 1_654 S
C107 O111 1.257 1_554 S
C108 O115 1.240 . S
C108 O116 1.252 . S
C109 O112 1.252 . S
C109 O113 1.260 . S
O110 In104 2.247 1_455 S
O110 C107 1.236 1_456 S
O111 In104 2.348 . S
O111 C107 1.257 1_556 S
O112 In104 2.266 . S
O112 C109 1.252 . S
O113 In104 2.326 . S
O113 C109 1.260 . S
C114 O105 1.259 . S
C114 O106 1.252 . S
O115 In104 2.294 . S
O115 C108 1.240 . S
O116 In104 2.326 . S
O116 C108 1.252 . S
In117 O118 2.294 . S
In117 O119 2.326 . S
In117 O123 2.266 . S
In117 O124 2.326 . S
In117 O125 2.266 . S
In117 O126 2.326 . S
In117 O128 2.294 . S
In117 O129 2.326 . S
O118 In117 2.294 . S
O118 C127 1.240 . S
O119 In117 2.326 . S
O119 C127 1.252 . S
C120 O123 1.252 . S
C120 O124 1.260 . S
C121 O128 1.240 . S
C121 O129 1.252 . S
C122 O125 1.252 . S
C122 O126 1.260 . S
O123 In117 2.266 . S
O123 C120 1.252 . S
O124 In117 2.326 . S
O124 C120 1.260 . S
O125 In117 2.266 . S
O125 C122 1.252 . S
O126 In117 2.326 . S
O126 C122 1.260 . S
C127 O118 1.240 . S
C127 O119 1.252 . S
O128 In117 2.294 . S
O128 C121 1.240 . S
O129 In117 2.326 . S
O129 C121 1.252 . S
In130 O131 2.294 . S
In130 O132 2.326 . S
In130 O136 2.266 . S
In130 O137 2.326 . S
In130 O138 2.266 . S
In130 O139 2.326 . S
In130 O141 2.294 . S
In130 O142 2.326 . S
O131 In130 2.294 . S
O131 C140 1.240 . S
O132 In130 2.326 . S
O132 C140 1.252 . S
C133 O136 1.252 . S
C133 O137 1.260 . S
C134 O141 1.240 . S
C134 O142 1.252 . S
C135 O138 1.252 . S
C135 O139 1.260 . S
O136 In130 2.266 . S
O136 C133 1.252 . S
O137 In130 2.326 . S
O137 C133 1.260 . S
O138 In130 2.266 . S
O138 C135 1.252 . S
O139 In130 2.326 . S
O139 C135 1.260 . S
C140 O131 1.240 . S
C140 O132 1.252 . S
O141 In130 2.294 . S
O141 C134 1.240 . S
O142 In130 2.326 . S
O142 C134 1.252 . S
In143 O144 2.294 . S
In143 O145 2.326 . S
In143 O149 2.266 . S
In143 O150 2.326 . S
In143 O151 2.266 . S
In143 O152 2.326 . S
In143 O154 2.294 . S
In143 O155 2.326 . S
O144 In143 2.294 . S
O144 C153 1.240 . S
O145 In143 2.326 . S
O145 C153 1.252 . S
C146 O149 1.252 . S
C146 O150 1.260 . S
C147 O154 1.240 . S
C147 O155 1.252 . S
C148 O151 1.252 . S
C148 O152 1.260 . S
O149 In143 2.266 . S
O149 C146 1.252 . S
O150 In143 2.326 . S
O150 C146 1.260 . S
O151 In143 2.266 . S
O151 C148 1.252 . S
O152 In143 2.326 . S
O152 C148 1.260 . S
C153 O144 1.240 . S
C153 O145 1.252 . S
O154 In143 2.294 . S
O154 C147 1.240 . S
O155 In143 2.326 . S
O155 C147 1.252 . S
In156 O157 2.294 . S
In156 O158 2.326 . S
In156 O162 2.266 . S
In156 O163 2.326 . S
In156 O164 2.248 1_655 S
In156 O165 2.326 . S
In156 O167 2.320 . S
In156 O168 2.326 . S
O157 In156 2.294 . S
O157 C166 1.240 . S
O158 In156 2.326 . S
O158 C166 1.252 . S
C159 O162 1.252 . S
C159 O163 1.260 . S
C160 O167 1.260 . S
C160 O168 1.252 . S
C161 O164 1.237 1_655 S
C161 O165 1.260 . S
O162 In156 2.266 . S
O162 C159 1.252 . S
O163 In156 2.326 . S
O163 C159 1.260 . S
O164 In156 2.248 1_455 S
O164 C161 1.237 1_455 S
O165 In156 2.326 . S
O165 C161 1.260 . S
C166 O157 1.240 . S
C166 O158 1.252 . S
O167 In156 2.320 . S
O167 C160 1.260 . S
O168 In156 2.326 . S
O168 C160 1.252 . S
In169 O170 2.294 . S
In169 O171 2.326 . S
In169 O175 2.266 . S
In169 O176 2.326 . S
In169 O177 2.266 . S
In169 O178 2.326 . S
In169 O180 2.294 . S
In169 O181 2.326 . S
O170 In169 2.294 . S
O170 C179 1.240 . S
O171 In169 2.326 . S
O171 C179 1.252 . S
C172 O175 1.252 . S
C172 O176 1.260 . S
C173 O180 1.240 . S
C173 O181 1.252 . S
C174 O177 1.252 . S
C174 O178 1.260 . S
O175 In169 2.266 . S
O175 C172 1.252 . S
O176 In169 2.326 . S
O176 C172 1.260 . S
O177 In169 2.266 . S
O177 C174 1.252 . S
O178 In169 2.326 . S
O178 C174 1.260 . S
C179 O170 1.240 . S
C179 O171 1.252 . S
O180 In169 2.294 . S
O180 C173 1.240 . S
O181 In169 2.326 . S
O181 C173 1.252 . S
In182 O183 2.294 . S
In182 O184 2.326 . S
In182 O188 2.266 . S
In182 O189 2.347 . S
In182 O190 2.266 . S
In182 O191 2.326 . S
In182 O193 2.294 . S
In182 O194 2.326 . S
O183 In182 2.294 . S
O183 C192 1.240 . S
O184 In182 2.326 . S
O184 C192 1.252 . S
C185 O188 1.252 1_556 S
C185 O189 1.258 1_556 S
C186 O193 1.240 . S
C186 O194 1.252 . S
C187 O190 1.252 . S
C187 O191 1.260 . S
O188 In182 2.266 . S
O188 C185 1.252 1_554 S
O189 In182 2.347 . S
O189 C185 1.258 1_554 S
O190 In182 2.266 . S
O190 C187 1.252 . S
O191 In182 2.326 . S
O191 C187 1.260 . S
C192 O183 1.240 . S
C192 O184 1.252 . S
O193 In182 2.294 . S
O193 C186 1.240 . S
O194 In182 2.326 . S
O194 C186 1.252 . S
In195 O196 2.294 . S
In195 O197 2.326 . S
In195 O201 2.266 . S
In195 O202 2.326 . S
In195 O203 2.266 . S
In195 O204 2.326 . S
In195 O206 2.294 . S
In195 O207 2.326 . S
O196 In195 2.294 . S
O196 C205 1.240 . S
O197 In195 2.326 . S
O197 C205 1.252 . S
C198 O201 1.252 . S
C198 O202 1.260 . S
C199 O206 1.240 . S
C199 O207 1.252 . S
C200 O203 1.252 . S
C200 O204 1.260 . S
O201 In195 2.266 . S
O201 C198 1.252 . S
O202 In195 2.326 . S
O202 C198 1.260 . S
O203 In195 2.266 . S
O203 C200 1.252 . S
O204 In195 2.326 . S
O204 C200 1.260 . S
C205 O196 1.240 . S
C205 O197 1.252 . S
O206 In195 2.294 . S
O206 C199 1.240 . S
O207 In195 2.326 . S
O207 C199 1.252 . S
In208 O209 2.294 . S
In208 O210 2.326 . S
In208 O214 2.266 . S
In208 O215 2.326 . S
In208 O216 2.266 . S
In208 O217 2.326 . S
In208 O219 2.294 . S
In208 O220 2.326 . S
O209 In208 2.294 . S
O209 C218 1.240 . S
O210 In208 2.326 . S
O210 C218 1.252 . S
C211 O214 1.252 . S
C211 O215 1.260 . S
C212 O219 1.240 . S
C212 O220 1.252 . S
C213 O216 1.252 . S
C213 O217 1.260 . S
O214 In208 2.266 . S
O214 C211 1.252 . S
O215 In208 2.326 . S
O215 C211 1.260 . S
O216 In208 2.266 . S
O216 C213 1.252 . S
O217 In208 2.326 . S
O217 C213 1.260 . S
C218 O209 1.240 . S
C218 O210 1.252 . S
O219 In208 2.294 . S
O219 C212 1.240 . S
O220 In208 2.326 . S
O220 C212 1.252 . S
In221 O222 2.294 . S
In221 O223 2.326 . S
In221 O227 2.266 . S
In221 O228 2.326 . S
In221 O229 2.266 . S
In221 O230 2.326 . S
In221 O232 2.294 . S
In221 O233 2.326 . S
O222 In221 2.294 . S
O222 C231 1.240 . S
O223 In221 2.326 . S
O223 C231 1.252 . S
C224 O227 1.252 . S
C224 O228 1.260 . S
C225 O232 1.240 . S
C225 O233 1.252 . S
C226 O229 1.252 . S
C226 O230 1.260 . S
O227 In221 2.266 . S
O227 C224 1.252 . S
O228 In221 2.326 . S
O228 C224 1.260 . S
O229 In221 2.266 . S
O229 C226 1.252 . S
O230 In221 2.326 . S
O230 C226 1.260 . S
C231 O222 1.240 . S
C231 O223 1.252 . S
O232 In221 2.294 . S
O232 C225 1.240 . S
O233 In221 2.326 . S
O233 C225 1.252 . S
In234 O235 2.319 . S
In234 O236 2.326 . S
In234 O240 2.247 1_655 S
In234 O241 2.348 . S
In234 O242 2.266 . S
In234 O243 2.326 . S
In234 O245 2.294 . S
In234 O246 2.326 . S
O235 In234 2.319 . S
O235 C244 1.259 . S
O236 In234 2.326 . S
O236 C244 1.252 . S
C237 O240 1.236 1_656 S
C237 O241 1.257 1_556 S
C238 O245 1.240 . S
C238 O246 1.252 . S
C239 O242 1.252 . S
C239 O243 1.260 . S
O240 In234 2.247 1_455 S
O240 C237 1.236 1_454 S
O241 In234 2.348 . S
O241 C237 1.257 1_554 S
O242 In234 2.266 . S
O242 C239 1.252 . S
O243 In234 2.326 . S
O243 C239 1.260 . S
C244 O235 1.259 . S
C244 O236 1.252 . S
O245 In234 2.294 . S
O245 C238 1.240 . S
O246 In234 2.326 . S
O246 C238 1.252 . S
In247 O248 2.294 . S
In247 O249 2.326 . S
In247 O253 2.266 . S
In247 O254 2.326 . S
In247 O255 2.266 . S
In247 O256 2.326 . S
In247 O258 2.294 . S
In247 O259 2.326 . S
O248 In247 2.294 . S
O248 C257 1.240 . S
O249 In247 2.326 . S
O249 C257 1.252 . S
C250 O253 1.252 . S
C250 O254 1.260 . S
C251 O258 1.240 . S
C251 O259 1.252 . S
C252 O255 1.252 . S
C252 O256 1.260 . S
O253 In247 2.266 . S
O253 C250 1.252 . S
O254 In247 2.326 . S
O254 C250 1.260 . S
O255 In247 2.266 . S
O255 C252 1.252 . S
O256 In247 2.326 . S
O256 C252 1.260 . S
C257 O248 1.240 . S
C257 O249 1.252 . S
O258 In247 2.294 . S
O258 C251 1.240 . S
O259 In247 2.326 . S
O259 C251 1.252 . S
In260 O261 2.294 . S
In260 O262 2.326 . S
In260 O266 2.266 . S
In260 O267 2.326 . S
In260 O268 2.266 . S
In260 O269 2.347 . S
In260 O271 2.294 . S
In260 O272 2.326 . S
O261 In260 2.294 . S
O261 C270 1.240 . S
O262 In260 2.326 . S
O262 C270 1.252 . S
C263 O266 1.252 . S
C263 O267 1.260 . S
C264 O271 1.240 . S
C264 O272 1.252 . S
C265 O268 1.252 1_554 S
C265 O269 1.258 1_554 S
O266 In260 2.266 . S
O266 C263 1.252 . S
O267 In260 2.326 . S
O267 C263 1.260 . S
O268 In260 2.266 . S
O268 C265 1.252 1_556 S
O269 In260 2.347 . S
O269 C265 1.258 1_556 S
C270 O261 1.240 . S
C270 O262 1.252 . S
O271 In260 2.294 . S
O271 C264 1.240 . S
O272 In260 2.326 . S
O272 C264 1.252 . S
In273 O274 2.294 . S
In273 O275 2.326 . S
In273 O279 2.266 . S
In273 O280 2.326 . S
In273 O281 2.266 . S
In273 O282 2.326 . S
In273 O284 2.294 . S
In273 O285 2.326 . S
O274 In273 2.294 . S
O274 C283 1.240 . S
O275 In273 2.326 . S
O275 C283 1.252 . S
C276 O279 1.252 . S
C276 O280 1.260 . S
C277 O284 1.240 . S
C277 O285 1.252 . S
C278 O281 1.252 . S
C278 O282 1.260 . S
O279 In273 2.266 . S
O279 C276 1.252 . S
O280 In273 2.326 . S
O280 C276 1.260 . S
O281 In273 2.266 . S
O281 C278 1.252 . S
O282 In273 2.326 . S
O282 C278 1.260 . S
C283 O274 1.240 . S
C283 O275 1.252 . S
O284 In273 2.294 . S
O284 C277 1.240 . S
O285 In273 2.326 . S
O285 C277 1.252 . S
In286 O287 2.294 . S
In286 O288 2.326 . S
In286 O292 2.266 . S
In286 O293 2.326 . S
In286 O294 2.248 1_655 S
In286 O295 2.326 . S
In286 O297 2.320 . S
In286 O298 2.326 . S
O287 In286 2.294 . S
O287 C296 1.240 . S
O288 In286 2.326 . S
O288 C296 1.252 . S
C289 O292 1.252 . S
C289 O293 1.260 . S
C290 O297 1.260 . S
C290 O298 1.252 . S
C291 O294 1.237 1_655 S
C291 O295 1.260 . S
O292 In286 2.266 . S
O292 C289 1.252 . S
O293 In286 2.326 . S
O293 C289 1.260 . S
O294 In286 2.248 1_455 S
O294 C291 1.237 1_455 S
O295 In286 2.326 . S
O295 C291 1.260 . S
C296 O287 1.240 . S
C296 O288 1.252 . S
O297 In286 2.320 . S
O297 C290 1.260 . S
O298 In286 2.326 . S
O298 C290 1.252 . S
In299 O300 2.294 . S
In299 O301 2.326 . S
In299 O305 2.266 . S
In299 O306 2.326 . S
In299 O307 2.266 . S
In299 O308 2.326 . S
In299 O310 2.294 . S
In299 O311 2.326 . S
O300 In299 2.294 . S
O300 C309 1.240 . S
O301 In299 2.326 . S
O301 C309 1.252 . S
C302 O305 1.252 . S
C302 O306 1.260 . S
C303 O310 1.240 . S
C303 O311 1.252 . S
C304 O307 1.252 . S
C304 O308 1.260 . S
O305 In299 2.266 . S
O305 C302 1.252 . S
O306 In299 2.326 . S
O306 C302 1.260 . S
O307 In299 2.266 . S
O307 C304 1.252 . S
O308 In299 2.326 . S
O308 C304 1.260 . S
C309 O300 1.240 . S
C309 O301 1.252 . S
O310 In299 2.294 . S
O310 C303 1.240 . S
O311 In299 2.326 . S
O311 C303 1.252 . S
In312 O313 2.294 . S
In312 O314 2.326 . S
In312 O318 2.266 . S
In312 O319 2.326 . S
In312 O320 2.266 . S
In312 O321 2.326 . S
In312 O323 2.294 . S
In312 O324 2.326 . S
O313 In312 2.294 . S
O313 C322 1.240 . S
O314 In312 2.326 . S
O314 C322 1.252 . S
C315 O318 1.252 . S
C315 O319 1.260 . S
C316 O323 1.240 . S
C316 O324 1.252 . S
C317 O320 1.252 . S
C317 O321 1.260 . S
O318 In312 2.266 . S
O318 C315 1.252 . S
O319 In312 2.326 . S
O319 C315 1.260 . S
O320 In312 2.266 . S
O320 C317 1.252 . S
O321 In312 2.326 . S
O321 C317 1.260 . S
C322 O313 1.240 . S
C322 O314 1.252 . S
O323 In312 2.294 . S
O323 C316 1.240 . S
O324 In312 2.326 . S
O324 C316 1.252 . S
In325 O326 2.294 . S
In325 O327 2.326 . S
In325 O331 2.266 . S
In325 O332 2.326 . S
In325 O333 2.266 . S
In325 O334 2.326 . S
In325 O336 2.294 . S
In325 O337 2.326 . S
O326 In325 2.294 . S
O326 C335 1.240 . S
O327 In325 2.326 . S
O327 C335 1.252 . S
C328 O331 1.252 . S
C328 O332 1.260 . S
C329 O336 1.240 . S
C329 O337 1.252 . S
C330 O333 1.252 . S
C330 O334 1.260 . S
O331 In325 2.266 . S
O331 C328 1.252 . S
O332 In325 2.326 . S
O332 C328 1.260 . S
O333 In325 2.266 . S
O333 C330 1.252 . S
O334 In325 2.326 . S
O334 C330 1.260 . S
C335 O326 1.240 . S
C335 O327 1.252 . S
O336 In325 2.294 . S
O336 C329 1.240 . S
O337 In325 2.326 . S
O337 C329 1.252 . S
In338 O339 2.294 . S
In338 O340 2.326 . S
In338 O344 2.266 . S
In338 O345 2.326 . S
In338 O346 2.247 1_455 S
In338 O347 2.348 . S
In338 O349 2.319 . S
In338 O350 2.326 . S
O339 In338 2.294 . S
O339 C348 1.240 . S
O340 In338 2.326 . S
O340 C348 1.252 . S
C341 O344 1.252 . S
C341 O345 1.260 . S
C342 O349 1.259 . S
C342 O350 1.252 . S
C343 O346 1.236 1_454 S
C343 O347 1.257 1_554 S
O344 In338 2.266 . S
O344 C341 1.252 . S
O345 In338 2.326 . S
O345 C341 1.260 . S
O346 In338 2.247 1_655 S
O346 C343 1.236 1_656 S
O347 In338 2.348 . S
O347 C343 1.257 1_556 S
C348 O339 1.240 . S
C348 O340 1.252 . S
O349 In338 2.319 . S
O349 C342 1.259 . S
O350 In338 2.326 . S
O350 C342 1.252 . S
In351 O352 2.294 . S
In351 O353 2.326 . S
In351 O357 2.266 . S
In351 O358 2.326 . S
In351 O359 2.266 . S
In351 O360 2.326 . S
In351 O362 2.294 . S
In351 O363 2.326 . S
O352 In351 2.294 . S
O352 C361 1.240 . S
O353 In351 2.326 . S
O353 C361 1.252 . S
C354 O357 1.252 . S
C354 O358 1.260 . S
C355 O362 1.240 . S
C355 O363 1.252 . S
C356 O359 1.252 . S
C356 O360 1.260 . S
O357 In351 2.266 . S
O357 C354 1.252 . S
O358 In351 2.326 . S
O358 C354 1.260 . S
O359 In351 2.266 . S
O359 C356 1.252 . S
O360 In351 2.326 . S
O360 C356 1.260 . S
C361 O352 1.240 . S
C361 O353 1.252 . S
O362 In351 2.294 . S
O362 C355 1.240 . S
O363 In351 2.326 . S
O363 C355 1.252 . S
In364 O365 2.294 . S
In364 O366 2.326 . S
In364 O370 2.266 . S
In364 O371 2.326 . S
In364 O372 2.266 . S
In364 O373 2.347 . S
In364 O375 2.294 . S
In364 O376 2.326 . S
O365 In364 2.294 . S
O365 C374 1.240 . S
O366 In364 2.326 . S
O366 C374 1.252 . S
C367 O370 1.252 . S
C367 O371 1.260 . S
C368 O375 1.240 . S
C368 O376 1.252 . S
C369 O372 1.252 1_556 S
C369 O373 1.258 1_556 S
O370 In364 2.266 . S
O370 C367 1.252 . S
O371 In364 2.326 . S
O371 C367 1.260 . S
O372 In364 2.266 . S
O372 C369 1.252 1_554 S
O373 In364 2.347 . S
O373 C369 1.258 1_554 S
C374 O365 1.240 . S
C374 O366 1.252 . S
O375 In364 2.294 . S
O375 C368 1.240 . S
O376 In364 2.326 . S
O376 C368 1.252 . S
In377 O378 2.294 . S
In377 O379 2.326 . S
In377 O383 2.266 . S
In377 O384 2.326 . S
In377 O385 2.266 . S
In377 O386 2.326 . S
In377 O388 2.294 . S
In377 O389 2.326 . S
O378 In377 2.294 . S
O378 C387 1.240 . S
O379 In377 2.326 . S
O379 C387 1.252 . S
C380 O383 1.252 . S
C380 O384 1.260 . S
C381 O388 1.240 . S
C381 O389 1.252 . S
C382 O385 1.252 . S
C382 O386 1.260 . S
O383 In377 2.266 . S
O383 C380 1.252 . S
O384 In377 2.326 . S
O384 C380 1.260 . S
O385 In377 2.266 . S
O385 C382 1.252 . S
O386 In377 2.326 . S
O386 C382 1.260 . S
C387 O378 1.240 . S
C387 O379 1.252 . S
O388 In377 2.294 . S
O388 C381 1.240 . S
O389 In377 2.326 . S
O389 C381 1.252 . S
In390 O391 2.320 . S
In390 O392 2.326 . S
In390 O396 2.248 1_455 S
In390 O397 2.326 . S
In390 O398 2.266 . S
In390 O399 2.326 . S
In390 O401 2.294 . S
In390 O402 2.326 . S
O391 In390 2.320 . S
O391 C400 1.260 . S
O392 In390 2.326 . S
O392 C400 1.252 . S
C393 O396 1.237 1_455 S
C393 O397 1.260 . S
C394 O401 1.240 . S
C394 O402 1.252 . S
C395 O398 1.252 . S
C395 O399 1.260 . S
O396 In390 2.248 1_655 S
O396 C393 1.237 1_655 S
O397 In390 2.326 . S
O397 C393 1.260 . S
O398 In390 2.266 . S
O398 C395 1.252 . S
O399 In390 2.326 . S
O399 C395 1.260 . S
C400 O391 1.260 . S
C400 O392 1.252 . S
O401 In390 2.294 . S
O401 C394 1.240 . S
O402 In390 2.326 . S
O402 C394 1.252 . S
In403 O404 2.294 . S
In403 O405 2.326 . S
In403 O409 2.266 . S
In403 O410 2.326 . S
In403 O411 2.266 . S
In403 O412 2.326 . S
In403 O414 2.294 . S
In403 O415 2.326 . S
O404 In403 2.294 . S
O404 C413 1.240 . S
O405 In403 2.326 . S
O405 C413 1.252 . S
C406 O409 1.252 . S
C406 O410 1.260 . S
C407 O414 1.240 . S
C407 O415 1.252 . S
C408 O411 1.252 . S
C408 O412 1.260 . S
O409 In403 2.266 . S
O409 C406 1.252 . S
O410 In403 2.326 . S
O410 C406 1.260 . S
O411 In403 2.266 . S
O411 C408 1.252 . S
O412 In403 2.326 . S
O412 C408 1.260 . S
C413 O404 1.240 . S
C413 O405 1.252 . S
O414 In403 2.294 . S
O414 C407 1.240 . S
O415 In403 2.326 . S
O415 C407 1.252 . S
C416 C417 1.349 1_455 S
C416 C418 1.327 . S
C416 H441 0.950 . S
C417 C416 1.349 1_655 S
C417 C433 1.349 . S
C418 C416 1.327 . S
C418 C437 1.429 1_455 S
C418 H442 0.950 . S
C419 C436 1.574 . S
C419 C438 1.400 . S
C419 H443 0.949 . S
H420 C424 0.949 . S
C421 C422 1.349 1_655 S
C421 C423 1.327 . S
C421 H444 0.950 . S
C422 C421 1.349 1_455 S
C422 C434 1.349 . S
C423 C421 1.327 . S
C423 C439 1.429 1_655 S
C423 H445 0.950 . S
C424 H420 0.949 . S
C424 C432 1.574 . S
C424 C440 1.368 . S
H425 C433 0.950 . S
H426 C431 0.950 . S
H427 C432 0.949 . S
H428 C434 0.950 . S
H429 C435 0.950 . S
H430 C436 0.949 . S
C431 H426 0.950 . S
C431 C433 1.327 . S
C431 C437 1.429 . S
C432 C424 1.574 . S
C432 H427 0.949 . S
C432 C438 1.335 1_455 S
C433 C417 1.349 . S
C433 H425 0.950 . S
C433 C431 1.327 . S
C434 C422 1.349 . S
C434 H428 0.950 . S
C434 C435 1.327 . S
C435 H429 0.950 . S
C435 C434 1.327 . S
C435 C439 1.429 . S
C436 C419 1.574 . S
C436 H430 0.949 . S
C436 C440 1.368 1_655 S
C437 C418 1.429 1_655 S
C437 C431 1.429 . S
C437 C438 1.528 . S
C438 C419 1.400 . S
C438 C432 1.335 1_655 S
C438 C437 1.528 . S
C439 C423 1.429 1_455 S
C439 C435 1.429 . S
C439 C440 1.523 . S
C440 C424 1.368 . S
C440 C436 1.368 1_455 S
C440 C439 1.523 . S
H441 C416 0.950 . S
H442 C418 0.950 . S
H443 C419 0.949 . S
H444 C421 0.950 . S
H445 C423 0.950 . S
C446 C447 1.349 . S
C446 C448 1.327 . S
C446 H471 0.950 . S
C447 C446 1.349 . S
C447 C463 1.349 . S
C448 C446 1.327 . S
C448 C467 1.429 . S
C448 H472 0.950 . S
C449 C466 1.574 . S
C449 C468 1.368 . S
C449 H473 0.949 . S
H450 C454 0.949 . S
C451 C452 1.349 . S
C451 C453 1.327 . S
C451 H474 0.950 . S
C452 C451 1.349 . S
C452 C464 1.349 . S
C453 C451 1.327 . S
C453 C469 1.429 . S
C453 H475 0.950 . S
C454 H450 0.949 . S
C454 C462 1.574 . S
C454 C470 1.368 . S
H455 C463 0.950 . S
H456 C461 0.950 . S
H457 C462 0.949 . S
H458 C464 0.950 . S
H459 C465 0.950 . S
H460 C466 0.949 . S
C461 H456 0.950 . S
C461 C463 1.327 . S
C461 C467 1.429 . S
C462 C454 1.574 . S
C462 H457 0.949 . S
C462 C468 1.368 . S
C463 C447 1.349 . S
C463 H455 0.950 . S
C463 C461 1.327 . S
C464 C452 1.349 . S
C464 H458 0.950 . S
C464 C465 1.327 . S
C465 H459 0.950 . S
C465 C464 1.327 . S
C465 C469 1.429 . S
C466 C449 1.574 . S
C466 H460 0.949 . S
C466 C470 1.368 . S
C467 C448 1.429 . S
C467 C461 1.429 . S
C467 C468 1.523 1_556 S
C468 C449 1.368 . S
C468 C462 1.368 . S
C468 C467 1.523 1_554 S
C469 C453 1.429 . S
C469 C465 1.429 . S
C469 C470 1.523 . S
C470 C454 1.368 . S
C470 C466 1.368 . S
C470 C469 1.523 . S
H471 C446 0.950 . S
H472 C448 0.950 . S
H473 C449 0.949 . S
H474 C451 0.950 . S
H475 C453 0.950 . S
C476 C477 1.349 . S
C476 C478 1.327 . S
C476 H501 0.950 . S
C477 C476 1.349 . S
C477 C493 1.349 . S
C478 C476 1.327 . S
C478 C497 1.429 . S
C478 H502 0.950 . S
C479 C496 1.574 . S
C479 C498 1.368 . S
C479 H503 0.949 . S
H480 C484 0.949 . S
C481 C482 1.349 . S
C481 C483 1.327 . S
C481 H504 0.950 . S
C482 C481 1.349 . S
C482 C494 1.349 . S
C483 C481 1.327 . S
C483 C499 1.429 . S
C483 H505 0.950 . S
C484 H480 0.949 . S
C484 C492 1.574 . S
C484 C500 1.368 . S
H485 C493 0.950 . S
H486 C491 0.950 . S
H487 C492 0.949 . S
H488 C494 0.950 . S
H489 C495 0.950 . S
H490 C496 0.949 . S
C491 H486 0.950 . S
C491 C493 1.327 . S
C491 C497 1.429 . S
C492 C484 1.574 . S
C492 H487 0.949 . S
C492 C498 1.368 . S
C493 C477 1.349 . S
C493 H485 0.950 . S
C493 C491 1.327 . S
C494 C482 1.349 . S
C494 H488 0.950 . S
C494 C495 1.327 . S
C495 H489 0.950 . S
C495 C494 1.327 . S
C495 C499 1.429 . S
C496 C479 1.574 . S
C496 H490 0.949 . S
C496 C500 1.368 . S
C497 C478 1.429 . S
C497 C491 1.429 . S
C497 C498 1.523 . S
C498 C479 1.368 . S
C498 C492 1.368 . S
C498 C497 1.523 . S
C499 C483 1.429 . S
C499 C495 1.429 . S
C499 C500 1.523 . S
C500 C484 1.368 . S
C500 C496 1.368 . S
C500 C499 1.523 . S
H501 C476 0.950 . S
H502 C478 0.950 . S
H503 C479 0.949 . S
H504 C481 0.950 . S
H505 C483 0.950 . S
C506 C507 1.349 . S
C506 C508 1.327 . S
C506 H531 0.950 . S
C507 C506 1.349 . S
C507 C523 1.349 . S
C508 C506 1.327 . S
C508 C527 1.429 . S
C508 H532 0.950 . S
C509 C526 1.574 . S
C509 C528 1.368 . S
C509 H533 0.949 . S
H510 C514 0.949 . S
C511 C512 1.349 . S
C511 C513 1.327 . S
C511 H534 0.950 . S
C512 C511 1.349 . S
C512 C524 1.349 . S
C513 C511 1.327 . S
C513 C529 1.429 . S
C513 H535 0.950 . S
C514 H510 0.949 . S
C514 C522 1.574 . S
C514 C530 1.368 . S
H515 C523 0.950 . S
H516 C521 0.950 . S
H517 C522 0.949 . S
H518 C524 0.950 . S
H519 C525 0.950 . S
H520 C526 0.949 . S
C521 H516 0.950 . S
C521 C523 1.327 . S
C521 C527 1.429 . S
C522 C514 1.574 . S
C522 H517 0.949 . S
C522 C528 1.368 . S
C523 C507 1.349 . S
C523 H515 0.950 . S
C523 C521 1.327 . S
C524 C512 1.349 . S
C524 H518 0.950 . S
C524 C525 1.327 . S
C525 H519 0.950 . S
C525 C524 1.327 . S
C525 C529 1.429 . S
C526 C509 1.574 . S
C526 H520 0.949 . S
C526 C530 1.368 . S
C527 C508 1.429 . S
C527 C521 1.429 . S
C527 C528 1.523 . S
C528 C509 1.368 . S
C528 C522 1.368 . S
C528 C527 1.523 . S
C529 C513 1.429 . S
C529 C525 1.429 . S
C529 C530 1.523 . S
C530 C514 1.368 . S
C530 C526 1.368 . S
C530 C529 1.523 . S
H531 C506 0.950 . S
H532 C508 0.950 . S
H533 C509 0.949 . S
H534 C511 0.950 . S
H535 C513 0.950 . S
C536 C537 1.349 1_455 S
C536 C538 1.327 . S
C536 H561 0.950 . S
C537 C536 1.349 1_655 S
C537 C553 1.349 . S
C538 C536 1.327 . S
C538 C557 1.429 1_455 S
C538 H562 0.950 . S
C539 C556 1.574 . S
C539 C558 1.400 . S
C539 H563 0.949 . S
H540 C544 0.949 . S
C541 C542 1.349 1_655 S
C541 C543 1.327 . S
C541 H564 0.950 . S
C542 C541 1.349 1_455 S
C542 C554 1.349 . S
C543 C541 1.327 . S
C543 C559 1.429 1_655 S
C543 H565 0.950 . S
C544 H540 0.949 . S
C544 C552 1.574 . S
C544 C560 1.368 . S
H545 C553 0.950 . S
H546 C551 0.950 . S
H547 C552 0.949 . S
H548 C554 0.950 . S
H549 C555 0.950 . S
H550 C556 0.949 . S
C551 H546 0.950 . S
C551 C553 1.327 . S
C551 C557 1.429 . S
C552 C544 1.574 . S
C552 H547 0.949 . S
C552 C558 1.336 1_455 S
C553 C537 1.349 . S
C553 H545 0.950 . S
C553 C551 1.327 . S
C554 C542 1.349 . S
C554 H548 0.950 . S
C554 C555 1.327 . S
C555 H549 0.950 . S
C555 C554 1.327 . S
C555 C559 1.429 . S
C556 C539 1.574 . S
C556 H550 0.949 . S
C556 C560 1.368 1_655 S
C557 C538 1.429 1_655 S
C557 C551 1.429 . S
C557 C558 1.528 . S
C558 C539 1.400 . S
C558 C552 1.336 1_655 S
C558 C557 1.528 . S
C559 C543 1.429 1_455 S
C559 C555 1.429 . S
C559 C560 1.523 . S
C560 C544 1.368 . S
C560 C556 1.368 1_455 S
C560 C559 1.523 . S
H561 C536 0.950 . S
H562 C538 0.950 . S
H563 C539 0.949 . S
H564 C541 0.950 . S
H565 C543 0.950 . S
C566 C567 1.349 . S
C566 C568 1.327 . S
C566 H591 0.950 . S
C567 C566 1.349 . S
C567 C583 1.349 . S
C568 C566 1.327 . S
C568 C587 1.429 . S
C568 H592 0.950 . S
C569 C586 1.574 . S
C569 C588 1.368 . S
C569 H593 0.949 . S
H570 C574 0.949 . S
C571 C572 1.349 . S
C571 C573 1.327 . S
C571 H594 0.950 . S
C572 C571 1.349 . S
C572 C584 1.349 . S
C573 C571 1.327 . S
C573 C589 1.429 . S
C573 H595 0.950 . S
C574 H570 0.949 . S
C574 C582 1.574 . S
C574 C590 1.368 . S
H575 C583 0.950 . S
H576 C581 0.950 . S
H577 C582 0.949 . S
H578 C584 0.950 . S
H579 C585 0.950 . S
H580 C586 0.949 . S
C581 H576 0.950 . S
C581 C583 1.327 . S
C581 C587 1.429 . S
C582 C574 1.574 . S
C582 H577 0.949 . S
C582 C588 1.368 . S
C583 C567 1.349 . S
C583 H575 0.950 . S
C583 C581 1.327 . S
C584 C572 1.349 . S
C584 H578 0.950 . S
C584 C585 1.327 . S
C585 H579 0.950 . S
C585 C584 1.327 . S
C585 C589 1.429 . S
C586 C569 1.574 . S
C586 H580 0.949 . S
C586 C590 1.368 . S
C587 C568 1.429 . S
C587 C581 1.429 . S
C587 C588 1.523 . S
C588 C569 1.368 . S
C588 C582 1.368 . S
C588 C587 1.523 . S
C589 C573 1.429 . S
C589 C585 1.429 . S
C589 C590 1.523 1_554 S
C590 C574 1.368 . S
C590 C586 1.368 . S
C590 C589 1.523 1_556 S
H591 C566 0.950 . S
H592 C568 0.950 . S
H593 C569 0.949 . S
H594 C571 0.950 . S
H595 C573 0.950 . S
C596 C597 1.349 . S
C596 C598 1.327 . S
C596 H621 0.950 . S
C597 C596 1.349 . S
C597 C613 1.349 . S
C598 C596 1.327 . S
C598 C617 1.429 . S
C598 H622 0.950 . S
C599 C616 1.574 . S
C599 C618 1.368 . S
C599 H623 0.949 . S
H600 C604 0.949 . S
C601 C602 1.349 . S
C601 C603 1.327 . S
C601 H624 0.950 . S
C602 C601 1.349 . S
C602 C614 1.349 . S
C603 C601 1.327 . S
C603 C619 1.429 . S
C603 H625 0.950 . S
C604 H600 0.949 . S
C604 C612 1.574 . S
C604 C620 1.368 . S
H605 C613 0.950 . S
H606 C611 0.950 . S
H607 C612 0.949 . S
H608 C614 0.950 . S
H609 C615 0.950 . S
H610 C616 0.949 . S
C611 H606 0.950 . S
C611 C613 1.327 . S
C611 C617 1.429 . S
C612 C604 1.574 . S
C612 H607 0.949 . S
C612 C618 1.368 . S
C613 C597 1.349 . S
C613 H605 0.950 . S
C613 C611 1.327 . S
C614 C602 1.349 . S
C614 H608 0.950 . S
C614 C615 1.327 . S
C615 H609 0.950 . S
C615 C614 1.327 . S
C615 C619 1.429 . S
C616 C599 1.574 . S
C616 H610 0.949 . S
C616 C620 1.368 . S
C617 C598 1.429 . S
C617 C611 1.429 . S
C617 C618 1.523 . S
C618 C599 1.368 . S
C618 C612 1.368 . S
C618 C617 1.523 . S
C619 C603 1.429 . S
C619 C615 1.429 . S
C619 C620 1.523 . S
C620 C604 1.368 . S
C620 C616 1.368 . S
C620 C619 1.523 . S
H621 C596 0.950 . S
H622 C598 0.950 . S
H623 C599 0.949 . S
H624 C601 0.950 . S
H625 C603 0.950 . S
C626 C627 1.349 . S
C626 C628 1.327 . S
C626 H651 0.950 . S
C627 C626 1.349 . S
C627 C643 1.349 . S
C628 C626 1.327 . S
C628 C647 1.429 . S
C628 H652 0.950 . S
C629 C646 1.574 . S
C629 C648 1.368 . S
C629 H653 0.949 . S
H630 C634 0.949 . S
C631 C632 1.349 . S
C631 C633 1.327 . S
C631 H654 0.950 . S
C632 C631 1.349 . S
C632 C644 1.349 . S
C633 C631 1.327 . S
C633 C649 1.429 . S
C633 H655 0.950 . S
C634 H630 0.949 . S
C634 C642 1.574 . S
C634 C650 1.368 . S
H635 C643 0.950 . S
H636 C641 0.950 . S
H637 C642 0.949 . S
H638 C644 0.950 . S
H639 C645 0.950 . S
H640 C646 0.949 . S
C641 H636 0.950 . S
C641 C643 1.327 . S
C641 C647 1.429 . S
C642 C634 1.574 . S
C642 H637 0.949 . S
C642 C648 1.368 . S
C643 C627 1.349 . S
C643 H635 0.950 . S
C643 C641 1.327 . S
C644 C632 1.349 . S
C644 H638 0.950 . S
C644 C645 1.327 . S
C645 H639 0.950 . S
C645 C644 1.327 . S
C645 C649 1.429 . S
C646 C629 1.574 . S
C646 H640 0.949 . S
C646 C650 1.368 . S
C647 C628 1.429 . S
C647 C641 1.429 . S
C647 C648 1.523 . S
C648 C629 1.368 . S
C648 C642 1.368 . S
C648 C647 1.523 . S
C649 C633 1.429 . S
C649 C645 1.429 . S
C649 C650 1.523 . S
C650 C634 1.368 . S
C650 C646 1.368 . S
C650 C649 1.523 . S
H651 C626 0.950 . S
H652 C628 0.950 . S
H653 C629 0.949 . S
H654 C631 0.950 . S
H655 C633 0.950 . S
C656 C657 1.349 . S
C656 C658 1.327 . S
C656 H681 0.950 . S
C657 C656 1.349 . S
C657 C673 1.349 1_455 S
C658 C656 1.327 . S
C658 C677 1.429 . S
C658 H682 0.950 . S
C659 C676 1.574 . S
C659 C678 1.335 1_655 S
C659 H683 0.949 . S
H660 C664 0.949 . S
C661 C662 1.349 . S
C661 C663 1.327 . S
C661 H684 0.950 . S
C662 C661 1.349 . S
C662 C674 1.349 1_655 S
C663 C661 1.327 . S
C663 C679 1.429 . S
C663 H685 0.950 . S
C664 H660 0.949 . S
C664 C672 1.574 . S
C664 C680 1.368 1_455 S
H665 C673 0.950 . S
H666 C671 0.950 . S
H667 C672 0.949 . S
H668 C674 0.950 . S
H669 C675 0.950 . S
H670 C676 0.949 . S
C671 H666 0.950 . S
C671 C673 1.327 . S
C671 C677 1.429 1_655 S
C672 C664 1.574 . S
C672 H667 0.949 . S
C672 C678 1.401 . S
C673 C657 1.349 1_655 S
C673 H665 0.950 . S
C673 C671 1.327 . S
C674 C662 1.349 1_455 S
C674 H668 0.950 . S
C674 C675 1.327 . S
C675 H669 0.950 . S
C675 C674 1.327 . S
C675 C679 1.429 1_455 S
C676 C659 1.574 . S
C676 H670 0.949 . S
C676 C680 1.368 . S
C677 C658 1.429 . S
C677 C671 1.429 1_455 S
C677 C678 1.528 . S
C678 C659 1.335 1_455 S
C678 C672 1.401 . S
C678 C677 1.528 . S
C679 C663 1.429 . S
C679 C675 1.429 1_655 S
C679 C680 1.523 . S
C680 C664 1.368 1_655 S
C680 C676 1.368 . S
C680 C679 1.523 . S
H681 C656 0.950 . S
H682 C658 0.950 . S
H683 C659 0.949 . S
H684 C661 0.950 . S
H685 C663 0.950 . S
C686 C687 1.349 . S
C686 C688 1.327 . S
C686 H711 0.950 . S
C687 C686 1.349 . S
C687 C703 1.349 . S
C688 C686 1.327 . S
C688 C707 1.429 . S
C688 H712 0.950 . S
C689 C706 1.574 . S
C689 C708 1.368 . S
C689 H713 0.949 . S
H690 C694 0.949 . S
C691 C692 1.349 . S
C691 C693 1.327 . S
C691 H714 0.950 . S
C692 C691 1.349 . S
C692 C704 1.349 . S
C693 C691 1.327 . S
C693 C709 1.429 . S
C693 H715 0.950 . S
C694 H690 0.949 . S
C694 C702 1.574 . S
C694 C710 1.368 . S
H695 C703 0.950 . S
H696 C701 0.950 . S
H697 C702 0.949 . S
H698 C704 0.950 . S
H699 C705 0.950 . S
H700 C706 0.949 . S
C701 H696 0.950 . S
C701 C703 1.327 . S
C701 C707 1.429 . S
C702 C694 1.574 . S
C702 H697 0.949 . S
C702 C708 1.368 . S
C703 C687 1.349 . S
C703 H695 0.950 . S
C703 C701 1.327 . S
C704 C692 1.349 . S
C704 H698 0.950 . S
C704 C705 1.327 . S
C705 H699 0.950 . S
C705 C704 1.327 . S
C705 C709 1.429 . S
C706 C689 1.574 . S
C706 H700 0.949 . S
C706 C710 1.368 . S
C707 C688 1.429 . S
C707 C701 1.429 . S
C707 C708 1.523 1_554 S
C708 C689 1.368 . S
C708 C702 1.368 . S
C708 C707 1.523 1_556 S
C709 C693 1.429 . S
C709 C705 1.429 . S
C709 C710 1.523 . S
C710 C694 1.368 . S
C710 C706 1.368 . S
C710 C709 1.523 . S
H711 C686 0.950 . S
H712 C688 0.950 . S
H713 C689 0.949 . S
H714 C691 0.950 . S
H715 C693 0.950 . S
C716 C717 1.349 . S
C716 C718 1.327 . S
C716 H741 0.950 . S
C717 C716 1.349 . S
C717 C733 1.349 . S
C718 C716 1.327 . S
C718 C737 1.429 . S
C718 H742 0.950 . S
C719 C736 1.574 . S
C719 C738 1.368 . S
C719 H743 0.949 . S
H720 C724 0.949 . S
C721 C722 1.349 . S
C721 C723 1.327 . S
C721 H744 0.950 . S
C722 C721 1.349 . S
C722 C734 1.349 . S
C723 C721 1.327 . S
C723 C739 1.429 . S
C723 H745 0.950 . S
C724 H720 0.949 . S
C724 C732 1.574 . S
C724 C740 1.368 . S
H725 C733 0.950 . S
H726 C731 0.950 . S
H727 C732 0.949 . S
H728 C734 0.950 . S
H729 C735 0.950 . S
H730 C736 0.949 . S
C731 H726 0.950 . S
C731 C733 1.327 . S
C731 C737 1.429 . S
C732 C724 1.574 . S
C732 H727 0.949 . S
C732 C738 1.368 . S
C733 C717 1.349 . S
C733 H725 0.950 . S
C733 C731 1.327 . S
C734 C722 1.349 . S
C734 H728 0.950 . S
C734 C735 1.327 . S
C735 H729 0.950 . S
C735 C734 1.327 . S
C735 C739 1.429 . S
C736 C719 1.574 . S
C736 H730 0.949 . S
C736 C740 1.368 . S
C737 C718 1.429 . S
C737 C731 1.429 . S
C737 C738 1.523 . S
C738 C719 1.368 . S
C738 C732 1.368 . S
C738 C737 1.523 . S
C739 C723 1.429 . S
C739 C735 1.429 . S
C739 C740 1.523 . S
C740 C724 1.368 . S
C740 C736 1.368 . S
C740 C739 1.523 . S
H741 C716 0.950 . S
H742 C718 0.950 . S
H743 C719 0.949 . S
H744 C721 0.950 . S
H745 C723 0.950 . S
C746 C747 1.349 . S
C746 C748 1.327 . S
C746 H771 0.950 . S
C747 C746 1.349 . S
C747 C763 1.349 . S
C748 C746 1.327 . S
C748 C767 1.429 . S
C748 H772 0.950 . S
C749 C766 1.574 . S
C749 C768 1.368 . S
C749 H773 0.949 . S
H750 C754 0.949 . S
C751 C752 1.349 . S
C751 C753 1.327 . S
C751 H774 0.950 . S
C752 C751 1.349 . S
C752 C764 1.349 . S
C753 C751 1.327 . S
C753 C769 1.429 . S
C753 H775 0.950 . S
C754 H750 0.949 . S
C754 C762 1.574 . S
C754 C770 1.368 . S
H755 C763 0.950 . S
H756 C761 0.950 . S
H757 C762 0.949 . S
H758 C764 0.950 . S
H759 C765 0.950 . S
H760 C766 0.949 . S
C761 H756 0.950 . S
C761 C763 1.327 . S
C761 C767 1.429 . S
C762 C754 1.574 . S
C762 H757 0.949 . S
C762 C768 1.368 . S
C763 C747 1.349 . S
C763 H755 0.950 . S
C763 C761 1.327 . S
C764 C752 1.349 . S
C764 H758 0.950 . S
C764 C765 1.327 . S
C765 H759 0.950 . S
C765 C764 1.327 . S
C765 C769 1.429 . S
C766 C749 1.574 . S
C766 H760 0.949 . S
C766 C770 1.368 . S
C767 C748 1.429 . S
C767 C761 1.429 . S
C767 C768 1.523 . S
C768 C749 1.368 . S
C768 C762 1.368 . S
C768 C767 1.523 . S
C769 C753 1.429 . S
C769 C765 1.429 . S
C769 C770 1.523 . S
C770 C754 1.368 . S
C770 C766 1.368 . S
C770 C769 1.523 . S
H771 C746 0.950 . S
H772 C748 0.950 . S
H773 C749 0.949 . S
H774 C751 0.950 . S
H775 C753 0.950 . S
C776 C777 1.349 1_455 S
C776 C778 1.327 . S
C776 H801 0.950 . S
C777 C776 1.349 1_655 S
C777 C793 1.349 . S
C778 C776 1.327 . S
C778 C797 1.429 1_455 S
C778 H802 0.950 . S
C779 C796 1.574 . S
C779 C798 1.368 . S
C779 H803 0.949 . S
H780 C784 0.949 . S
C781 C782 1.349 1_655 S
C781 C783 1.327 . S
C781 H804 0.950 . S
C782 C781 1.349 1_455 S
C782 C794 1.349 . S
C783 C781 1.327 . S
C783 C799 1.429 1_655 S
C783 H805 0.950 . S
C784 H780 0.949 . S
C784 C792 1.574 . S
C784 C800 1.400 . S
H785 C793 0.950 . S
H786 C791 0.950 . S
H787 C792 0.949 . S
H788 C794 0.950 . S
H789 C795 0.950 . S
H790 C796 0.949 . S
C791 H786 0.950 . S
C791 C793 1.327 . S
C791 C797 1.429 . S
C792 C784 1.574 . S
C792 H787 0.949 . S
C792 C798 1.368 1_455 S
C793 C777 1.349 . S
C793 H785 0.950 . S
C793 C791 1.327 . S
C794 C782 1.349 . S
C794 H788 0.950 . S
C794 C795 1.327 . S
C795 H789 0.950 . S
C795 C794 1.327 . S
C795 C799 1.429 . S
C796 C779 1.574 . S
C796 H790 0.949 . S
C796 C800 1.336 1_655 S
C797 C778 1.429 1_655 S
C797 C791 1.429 . S
C797 C798 1.523 . S
C798 C779 1.368 . S
C798 C792 1.368 1_655 S
C798 C797 1.523 . S
C799 C783 1.429 1_455 S
C799 C795 1.429 . S
C799 C800 1.528 . S
C800 C784 1.400 . S
C800 C796 1.336 1_455 S
C800 C799 1.528 . S
H801 C776 0.950 . S
H802 C778 0.950 . S
H803 C779 0.949 . S
H804 C781 0.950 . S
H805 C783 0.950 . S
C806 C807 1.349 . S
C806 C808 1.327 . S
C806 H831 0.950 . S
C807 C806 1.349 . S
C807 C823 1.349 . S
C808 C806 1.327 . S
C808 C827 1.429 . S
C808 H832 0.950 . S
C809 C826 1.574 . S
C809 C828 1.368 . S
C809 H833 0.949 . S
H810 C814 0.949 . S
C811 C812 1.349 . S
C811 C813 1.327 . S
C811 H834 0.950 . S
C812 C811 1.349 . S
C812 C824 1.349 . S
C813 C811 1.327 . S
C813 C829 1.429 . S
C813 H835 0.950 . S
C814 H810 0.949 . S
C814 C822 1.574 . S
C814 C830 1.368 . S
H815 C823 0.950 . S
H816 C821 0.950 . S
H817 C822 0.949 . S
H818 C824 0.950 . S
H819 C825 0.950 . S
H820 C826 0.949 . S
C821 H816 0.950 . S
C821 C823 1.327 . S
C821 C827 1.429 . S
C822 C814 1.574 . S
C822 H817 0.949 . S
C822 C828 1.368 . S
C823 C807 1.349 . S
C823 H815 0.950 . S
C823 C821 1.327 . S
C824 C812 1.349 . S
C824 H818 0.950 . S
C824 C825 1.327 . S
C825 H819 0.950 . S
C825 C824 1.327 . S
C825 C829 1.429 . S
C826 C809 1.574 . S
C826 H820 0.949 . S
C826 C830 1.368 . S
C827 C808 1.429 . S
C827 C821 1.429 . S
C827 C828 1.523 . S
C828 C809 1.368 . S
C828 C822 1.368 . S
C828 C827 1.523 . S
C829 C813 1.429 . S
C829 C825 1.429 . S
C829 C830 1.523 1_556 S
C830 C814 1.368 . S
C830 C826 1.368 . S
C830 C829 1.523 1_554 S
H831 C806 0.950 . S
H832 C808 0.950 . S
H833 C809 0.949 . S
H834 C811 0.950 . S
H835 C813 0.950 . S
C836 C837 1.349 . S
C836 C838 1.327 . S
C836 H861 0.950 . S
C837 C836 1.349 . S
C837 C853 1.349 . S
C838 C836 1.327 . S
C838 C857 1.429 . S
C838 H862 0.950 . S
C839 C856 1.574 . S
C839 C858 1.368 . S
C839 H863 0.949 . S
H840 C844 0.949 . S
C841 C842 1.349 . S
C841 C843 1.327 . S
C841 H864 0.950 . S
C842 C841 1.349 . S
C842 C854 1.349 . S
C843 C841 1.327 . S
C843 C859 1.429 . S
C843 H865 0.950 . S
C844 H840 0.949 . S
C844 C852 1.574 . S
C844 C860 1.368 . S
H845 C853 0.950 . S
H846 C851 0.950 . S
H847 C852 0.949 . S
H848 C854 0.950 . S
H849 C855 0.950 . S
H850 C856 0.949 . S
C851 H846 0.950 . S
C851 C853 1.327 . S
C851 C857 1.429 . S
C852 C844 1.574 . S
C852 H847 0.949 . S
C852 C858 1.368 . S
C853 C837 1.349 . S
C853 H845 0.950 . S
C853 C851 1.327 . S
C854 C842 1.349 . S
C854 H848 0.950 . S
C854 C855 1.327 . S
C855 H849 0.950 . S
C855 C854 1.327 . S
C855 C859 1.429 . S
C856 C839 1.574 . S
C856 H850 0.949 . S
C856 C860 1.368 . S
C857 C838 1.429 . S
C857 C851 1.429 . S
C857 C858 1.523 . S
C858 C839 1.368 . S
C858 C852 1.368 . S
C858 C857 1.523 . S
C859 C843 1.429 . S
C859 C855 1.429 . S
C859 C860 1.523 . S
C860 C844 1.368 . S
C860 C856 1.368 . S
C860 C859 1.523 . S
H861 C836 0.950 . S
H862 C838 0.950 . S
H863 C839 0.949 . S
H864 C841 0.950 . S
H865 C843 0.950 . S
C866 C867 1.349 . S
C866 C868 1.327 . S
C866 H891 0.950 . S
C867 C866 1.349 . S
C867 C883 1.349 . S
C868 C866 1.327 . S
C868 C887 1.429 . S
C868 H892 0.950 . S
C869 C886 1.574 . S
C869 C888 1.368 . S
C869 H893 0.949 . S
H870 C874 0.949 . S
C871 C872 1.349 . S
C871 C873 1.327 . S
C871 H894 0.950 . S
C872 C871 1.349 . S
C872 C884 1.349 . S
C873 C871 1.327 . S
C873 C889 1.429 . S
C873 H895 0.950 . S
C874 H870 0.949 . S
C874 C882 1.574 . S
C874 C890 1.368 . S
H875 C883 0.950 . S
H876 C881 0.950 . S
H877 C882 0.949 . S
H878 C884 0.950 . S
H879 C885 0.950 . S
H880 C886 0.949 . S
C881 H876 0.950 . S
C881 C883 1.327 . S
C881 C887 1.429 . S
C882 C874 1.574 . S
C882 H877 0.949 . S
C882 C888 1.368 . S
C883 C867 1.349 . S
C883 H875 0.950 . S
C883 C881 1.327 . S
C884 C872 1.349 . S
C884 H878 0.950 . S
C884 C885 1.327 . S
C885 H879 0.950 . S
C885 C884 1.327 . S
C885 C889 1.429 . S
C886 C869 1.574 . S
C886 H880 0.949 . S
C886 C890 1.368 . S
C887 C868 1.429 . S
C887 C881 1.429 . S
C887 C888 1.523 . S
C888 C869 1.368 . S
C888 C882 1.368 . S
C888 C887 1.523 . S
C889 C873 1.429 . S
C889 C885 1.429 . S
C889 C890 1.523 . S
C890 C874 1.368 . S
C890 C886 1.368 . S
C890 C889 1.523 . S
H891 C866 0.950 . S
H892 C868 0.950 . S
H893 C869 0.949 . S
H894 C871 0.950 . S
H895 C873 0.950 . S
C896 C897 1.349 . S
C896 C898 1.327 . S
C896 H921 0.950 . S
C897 C896 1.349 . S
C897 C913 1.349 . S
C898 C896 1.327 . S
C898 C917 1.429 . S
C898 H922 0.950 . S
C899 C916 1.574 . S
C899 C918 1.368 . S
C899 H923 0.949 . S
H900 C904 0.949 . S
C901 C902 1.349 . S
C901 C903 1.327 . S
C901 H924 0.950 . S
C902 C901 1.349 . S
C902 C914 1.349 . S
C903 C901 1.327 . S
C903 C919 1.429 . S
C903 H925 0.950 . S
C904 H900 0.949 . S
C904 C912 1.574 . S
C904 C920 1.368 . S
H905 C913 0.950 . S
H906 C911 0.950 . S
H907 C912 0.949 . S
H908 C914 0.950 . S
H909 C915 0.950 . S
H910 C916 0.949 . S
C911 H906 0.950 . S
C911 C913 1.327 . S
C911 C917 1.429 . S
C912 C904 1.574 . S
C912 H907 0.949 . S
C912 C918 1.368 . S
C913 C897 1.349 . S
C913 H905 0.950 . S
C913 C911 1.327 . S
C914 C902 1.349 . S
C914 H908 0.950 . S
C914 C915 1.327 . S
C915 H909 0.950 . S
C915 C914 1.327 . S
C915 C919 1.429 . S
C916 C899 1.574 . S
C916 H910 0.949 . S
C916 C920 1.368 . S
C917 C898 1.429 . S
C917 C911 1.429 . S
C917 C918 1.523 . S
C918 C899 1.368 . S
C918 C912 1.368 . S
C918 C917 1.523 . S
C919 C903 1.429 . S
C919 C915 1.429 . S
C919 C920 1.523 . S
C920 C904 1.368 . S
C920 C916 1.368 . S
C920 C919 1.523 . S
H921 C896 0.950 . S
H922 C898 0.950 . S
H923 C899 0.949 . S
H924 C901 0.950 . S
H925 C903 0.950 . S
C926 C927 1.349 . S
C926 C928 1.327 . S
C926 H951 0.950 . S
C927 C926 1.349 . S
C927 C943 1.349 . S
C928 C926 1.327 . S
C928 C947 1.429 . S
C928 H952 0.950 . S
C929 C946 1.574 . S
C929 C948 1.368 . S
C929 H953 0.949 . S
H930 C934 0.949 . S
C931 C932 1.349 . S
C931 C933 1.327 . S
C931 H954 0.950 . S
C932 C931 1.349 . S
C932 C944 1.349 . S
C933 C931 1.327 . S
C933 C949 1.429 . S
C933 H955 0.950 . S
C934 H930 0.949 . S
C934 C942 1.574 . S
C934 C950 1.368 . S
H935 C943 0.950 . S
H936 C941 0.950 . S
H937 C942 0.949 . S
H938 C944 0.950 . S
H939 C945 0.950 . S
H940 C946 0.949 . S
C941 H936 0.950 . S
C941 C943 1.327 . S
C941 C947 1.429 . S
C942 C934 1.574 . S
C942 H937 0.949 . S
C942 C948 1.368 . S
C943 C927 1.349 . S
C943 H935 0.950 . S
C943 C941 1.327 . S
C944 C932 1.349 . S
C944 H938 0.950 . S
C944 C945 1.327 . S
C945 H939 0.950 . S
C945 C944 1.327 . S
C945 C949 1.429 . S
C946 C929 1.574 . S
C946 H940 0.949 . S
C946 C950 1.368 . S
C947 C928 1.429 . S
C947 C941 1.429 . S
C947 C948 1.523 . S
C948 C929 1.368 . S
C948 C942 1.368 . S
C948 C947 1.523 . S
C949 C933 1.429 . S
C949 C945 1.429 . S
C949 C950 1.523 . S
C950 C934 1.368 . S
C950 C946 1.368 . S
C950 C949 1.523 . S
H951 C926 0.950 . S
H952 C928 0.950 . S
H953 C929 0.949 . S
H954 C931 0.950 . S
H955 C933 0.950 . S
C956 C957 1.349 . S
C956 C958 1.327 . S
C956 H981 0.950 . S
C957 C956 1.349 . S
C957 C973 1.349 1_455 S
C958 C956 1.327 . S
C958 C977 1.429 . S
C958 H982 0.950 . S
C959 C976 1.574 . S
C959 C978 1.335 1_655 S
C959 H983 0.949 . S
H960 C964 0.949 . S
C961 C962 1.349 . S
C961 C963 1.327 . S
C961 H984 0.950 . S
C962 C961 1.349 . S
C962 C974 1.349 1_655 S
C963 C961 1.327 . S
C963 C979 1.429 . S
C963 H985 0.950 . S
C964 H960 0.949 . S
C964 C972 1.574 . S
C964 C980 1.368 1_455 S
H965 C973 0.950 . S
H966 C971 0.950 . S
H967 C972 0.949 . S
H968 C974 0.950 . S
H969 C975 0.950 . S
H970 C976 0.949 . S
C971 H966 0.950 . S
C971 C973 1.327 . S
C971 C977 1.429 1_655 S
C972 C964 1.574 . S
C972 H967 0.949 . S
C972 C978 1.401 . S
C973 C957 1.349 1_655 S
C973 H965 0.950 . S
C973 C971 1.327 . S
C974 C962 1.349 1_455 S
C974 H968 0.950 . S
C974 C975 1.327 . S
C975 H969 0.950 . S
C975 C974 1.327 . S
C975 C979 1.429 1_455 S
C976 C959 1.574 . S
C976 H970 0.949 . S
C976 C980 1.368 . S
C977 C958 1.429 . S
C977 C971 1.429 1_455 S
C977 C978 1.528 . S
C978 C959 1.335 1_455 S
C978 C972 1.401 . S
C978 C977 1.528 . S
C979 C963 1.429 . S
C979 C975 1.429 1_655 S
C979 C980 1.523 . S
C980 C964 1.368 1_655 S
C980 C976 1.368 . S
C980 C979 1.523 . S
H981 C956 0.950 . S
H982 C958 0.950 . S
H983 C959 0.949 . S
H984 C961 0.950 . S
H985 C963 0.950 . S
C986 C987 1.349 . S
C986 C988 1.327 . S
C986 H1011 0.950 . S
C987 C986 1.349 . S
C987 C1003 1.349 . S
C988 C986 1.327 . S
C988 C1007 1.429 . S
C988 H1012 0.950 . S
C989 C1006 1.574 . S
C989 C1008 1.368 . S
C989 H1013 0.949 . S
H990 C994 0.949 . S
C991 C992 1.349 . S
C991 C993 1.327 . S
C991 H1014 0.950 . S
C992 C991 1.349 . S
C992 C1004 1.349 . S
C993 C991 1.327 . S
C993 C1009 1.429 . S
C993 H1015 0.950 . S
C994 H990 0.949 . S
C994 C1002 1.574 . S
C994 C1010 1.368 . S
H995 C1003 0.950 . S
H996 C1001 0.950 . S
H997 C1002 0.949 . S
H998 C1004 0.950 . S
H999 C1005 0.950 . S
H1000 C1006 0.949 . S
C1001 H996 0.950 . S
C1001 C1003 1.327 . S
C1001 C1007 1.429 . S
C1002 C994 1.574 . S
C1002 H997 0.949 . S
C1002 C1008 1.368 . S
C1003 C987 1.349 . S
C1003 H995 0.950 . S
C1003 C1001 1.327 . S
C1004 C992 1.349 . S
C1004 H998 0.950 . S
C1004 C1005 1.327 . S
C1005 H999 0.950 . S
C1005 C1004 1.327 . S
C1005 C1009 1.429 . S
C1006 C989 1.574 . S
C1006 H1000 0.949 . S
C1006 C1010 1.368 . S
C1007 C988 1.429 . S
C1007 C1001 1.429 . S
C1007 C1008 1.523 . S
C1008 C989 1.368 . S
C1008 C1002 1.368 . S
C1008 C1007 1.523 . S
C1009 C993 1.429 . S
C1009 C1005 1.429 . S
C1009 C1010 1.523 1_556 S
C1010 C994 1.368 . S
C1010 C1006 1.368 . S
C1010 C1009 1.523 1_554 S
H1011 C986 0.950 . S
H1012 C988 0.950 . S
H1013 C989 0.949 . S
H1014 C991 0.950 . S
H1015 C993 0.950 . S
C1016 C1017 1.349 . S
C1016 C1018 1.327 . S
C1016 H1041 0.950 . S
C1017 C1016 1.349 . S
C1017 C1033 1.349 . S
C1018 C1016 1.327 . S
C1018 C1037 1.429 . S
C1018 H1042 0.950 . S
C1019 C1036 1.574 . S
C1019 C1038 1.368 . S
C1019 H1043 0.949 . S
H1020 C1024 0.949 . S
C1021 C1022 1.349 . S
C1021 C1023 1.327 . S
C1021 H1044 0.950 . S
C1022 C1021 1.349 . S
C1022 C1034 1.349 . S
C1023 C1021 1.327 . S
C1023 C1039 1.429 . S
C1023 H1045 0.950 . S
C1024 H1020 0.949 . S
C1024 C1032 1.574 . S
C1024 C1040 1.368 . S
H1025 C1033 0.950 . S
H1026 C1031 0.950 . S
H1027 C1032 0.949 . S
H1028 C1034 0.950 . S
H1029 C1035 0.950 . S
H1030 C1036 0.949 . S
C1031 H1026 0.950 . S
C1031 C1033 1.327 . S
C1031 C1037 1.429 . S
C1032 C1024 1.574 . S
C1032 H1027 0.949 . S
C1032 C1038 1.368 . S
C1033 C1017 1.349 . S
C1033 H1025 0.950 . S
C1033 C1031 1.327 . S
C1034 C1022 1.349 . S
C1034 H1028 0.950 . S
C1034 C1035 1.327 . S
C1035 H1029 0.950 . S
C1035 C1034 1.327 . S
C1035 C1039 1.429 . S
C1036 C1019 1.574 . S
C1036 H1030 0.949 . S
C1036 C1040 1.368 . S
C1037 C1018 1.429 . S
C1037 C1031 1.429 . S
C1037 C1038 1.523 . S
C1038 C1019 1.368 . S
C1038 C1032 1.368 . S
C1038 C1037 1.523 . S
C1039 C1023 1.429 . S
C1039 C1035 1.429 . S
C1039 C1040 1.523 . S
C1040 C1024 1.368 . S
C1040 C1036 1.368 . S
C1040 C1039 1.523 . S
H1041 C1016 0.950 . S
H1042 C1018 0.950 . S
H1043 C1019 0.949 . S
H1044 C1021 0.950 . S
H1045 C1023 0.950 . S
C1046 C1047 1.349 . S
C1046 C1048 1.327 . S
C1046 H1071 0.950 . S
C1047 C1046 1.349 . S
C1047 C1063 1.349 . S
C1048 C1046 1.327 . S
C1048 C1067 1.429 . S
C1048 H1072 0.950 . S
C1049 C1066 1.574 . S
C1049 C1068 1.368 . S
C1049 H1073 0.949 . S
H1050 C1054 0.949 . S
C1051 C1052 1.349 . S
C1051 C1053 1.327 . S
C1051 H1074 0.950 . S
C1052 C1051 1.349 . S
C1052 C1064 1.349 . S
C1053 C1051 1.327 . S
C1053 C1069 1.429 . S
C1053 H1075 0.950 . S
C1054 H1050 0.949 . S
C1054 C1062 1.574 . S
C1054 C1070 1.368 . S
H1055 C1063 0.950 . S
H1056 C1061 0.950 . S
H1057 C1062 0.949 . S
H1058 C1064 0.950 . S
H1059 C1065 0.950 . S
H1060 C1066 0.949 . S
C1061 H1056 0.950 . S
C1061 C1063 1.327 . S
C1061 C1067 1.429 . S
C1062 C1054 1.574 . S
C1062 H1057 0.949 . S
C1062 C1068 1.368 . S
C1063 C1047 1.349 . S
C1063 H1055 0.950 . S
C1063 C1061 1.327 . S
C1064 C1052 1.349 . S
C1064 H1058 0.950 . S
C1064 C1065 1.327 . S
C1065 H1059 0.950 . S
C1065 C1064 1.327 . S
C1065 C1069 1.429 . S
C1066 C1049 1.574 . S
C1066 H1060 0.949 . S
C1066 C1070 1.368 . S
C1067 C1048 1.429 . S
C1067 C1061 1.429 . S
C1067 C1068 1.523 . S
C1068 C1049 1.368 . S
C1068 C1062 1.368 . S
C1068 C1067 1.523 . S
C1069 C1053 1.429 . S
C1069 C1065 1.429 . S
C1069 C1070 1.523 . S
C1070 C1054 1.368 . S
C1070 C1066 1.368 . S
C1070 C1069 1.523 . S
H1071 C1046 0.950 . S
H1072 C1048 0.950 . S
H1073 C1049 0.949 . S
H1074 C1051 0.950 . S
H1075 C1053 0.950 . S
C1076 C1077 1.349 1_655 S
C1076 C1078 1.327 . S
C1076 H1101 0.950 . S
C1077 C1076 1.349 1_455 S
C1077 C1093 1.349 . S
C1078 C1076 1.327 . S
C1078 C1097 1.429 1_655 S
C1078 H1102 0.950 . S
C1079 C1096 1.574 . S
C1079 C1098 1.399 . S
C1079 H1103 0.949 . S
H1080 C1084 0.949 . S
C1081 C1082 1.349 1_455 S
C1081 C1083 1.327 . S
C1081 H1104 0.950 . S
C1082 C1081 1.349 1_655 S
C1082 C1094 1.349 . S
C1083 C1081 1.327 . S
C1083 C1099 1.429 1_455 S
C1083 H1105 0.950 . S
C1084 H1080 0.949 . S
C1084 C1092 1.574 . S
C1084 C1100 1.368 . S
H1085 C1093 0.950 . S
H1086 C1091 0.950 . S
H1087 C1092 0.949 . S
H1088 C1094 0.950 . S
H1089 C1095 0.950 . S
H1090 C1096 0.949 . S
C1091 H1086 0.950 . S
C1091 C1093 1.327 . S
C1091 C1097 1.429 . S
C1092 C1084 1.574 . S
C1092 H1087 0.949 . S
C1092 C1098 1.336 1_655 S
C1093 C1077 1.349 . S
C1093 H1085 0.950 . S
C1093 C1091 1.327 . S
C1094 C1082 1.349 . S
C1094 H1088 0.950 . S
C1094 C1095 1.327 . S
C1095 H1089 0.950 . S
C1095 C1094 1.327 . S
C1095 C1099 1.429 . S
C1096 C1079 1.574 . S
C1096 H1090 0.949 . S
C1096 C1100 1.368 1_455 S
C1097 C1078 1.429 1_455 S
C1097 C1091 1.429 . S
C1097 C1098 1.528 . S
C1098 C1079 1.399 . S
C1098 C1092 1.336 1_455 S
C1098 C1097 1.528 . S
C1099 C1083 1.429 1_655 S
C1099 C1095 1.429 . S
C1099 C1100 1.523 . S
C1100 C1084 1.368 . S
C1100 C1096 1.368 1_655 S
C1100 C1099 1.523 . S
H1101 C1076 0.950 . S
H1102 C1078 0.950 . S
H1103 C1079 0.949 . S
H1104 C1081 0.950 . S
H1105 C1083 0.950 . S
C1106 C1107 1.349 . S
C1106 C1108 1.327 . S
C1106 H1131 0.950 . S
C1107 C1106 1.349 . S
C1107 C1123 1.349 . S
C1108 C1106 1.327 . S
C1108 C1127 1.429 . S
C1108 H1132 0.950 . S
C1109 C1126 1.574 . S
C1109 C1128 1.368 . S
C1109 H1133 0.949 . S
H1110 C1114 0.949 . S
C1111 C1112 1.349 . S
C1111 C1113 1.327 . S
C1111 H1134 0.950 . S
C1112 C1111 1.349 . S
C1112 C1124 1.349 . S
C1113 C1111 1.327 . S
C1113 C1129 1.429 . S
C1113 H1135 0.950 . S
C1114 H1110 0.949 . S
C1114 C1122 1.574 . S
C1114 C1130 1.368 . S
H1115 C1123 0.950 . S
H1116 C1121 0.950 . S
H1117 C1122 0.949 . S
H1118 C1124 0.950 . S
H1119 C1125 0.950 . S
H1120 C1126 0.949 . S
C1121 H1116 0.950 . S
C1121 C1123 1.327 . S
C1121 C1127 1.429 . S
C1122 C1114 1.574 . S
C1122 H1117 0.949 . S
C1122 C1128 1.368 . S
C1123 C1107 1.349 . S
C1123 H1115 0.950 . S
C1123 C1121 1.327 . S
C1124 C1112 1.349 . S
C1124 H1118 0.950 . S
C1124 C1125 1.327 . S
C1125 H1119 0.950 . S
C1125 C1124 1.327 . S
C1125 C1129 1.429 . S
C1126 C1109 1.574 . S
C1126 H1120 0.949 . S
C1126 C1130 1.368 . S
C1127 C1108 1.429 . S
C1127 C1121 1.429 . S
C1127 C1128 1.523 1_554 S
C1128 C1109 1.368 . S
C1128 C1122 1.368 . S
C1128 C1127 1.523 1_556 S
C1129 C1113 1.429 . S
C1129 C1125 1.429 . S
C1129 C1130 1.523 . S
C1130 C1114 1.368 . S
C1130 C1126 1.368 . S
C1130 C1129 1.523 . S
H1131 C1106 0.950 . S
H1132 C1108 0.950 . S
H1133 C1109 0.949 . S
H1134 C1111 0.950 . S
H1135 C1113 0.950 . S
C1136 C1137 1.349 . S
C1136 C1138 1.327 . S
C1136 H1161 0.950 . S
C1137 C1136 1.349 . S
C1137 C1153 1.349 . S
C1138 C1136 1.327 . S
C1138 C1157 1.429 . S
C1138 H1162 0.950 . S
C1139 C1156 1.574 . S
C1139 C1158 1.368 . S
C1139 H1163 0.949 . S
H1140 C1144 0.949 . S
C1141 C1142 1.349 . S
C1141 C1143 1.327 . S
C1141 H1164 0.950 . S
C1142 C1141 1.349 . S
C1142 C1154 1.349 . S
C1143 C1141 1.327 . S
C1143 C1159 1.429 . S
C1143 H1165 0.950 . S
C1144 H1140 0.949 . S
C1144 C1152 1.574 . S
C1144 C1160 1.368 . S
H1145 C1153 0.950 . S
H1146 C1151 0.950 . S
H1147 C1152 0.949 . S
H1148 C1154 0.950 . S
H1149 C1155 0.950 . S
H1150 C1156 0.949 . S
C1151 H1146 0.950 . S
C1151 C1153 1.327 . S
C1151 C1157 1.429 . S
C1152 C1144 1.574 . S
C1152 H1147 0.949 . S
C1152 C1158 1.368 . S
C1153 C1137 1.349 . S
C1153 H1145 0.950 . S
C1153 C1151 1.327 . S
C1154 C1142 1.349 . S
C1154 H1148 0.950 . S
C1154 C1155 1.327 . S
C1155 H1149 0.950 . S
C1155 C1154 1.327 . S
C1155 C1159 1.429 . S
C1156 C1139 1.574 . S
C1156 H1150 0.949 . S
C1156 C1160 1.368 . S
C1157 C1138 1.429 . S
C1157 C1151 1.429 . S
C1157 C1158 1.523 . S
C1158 C1139 1.368 . S
C1158 C1152 1.368 . S
C1158 C1157 1.523 . S
C1159 C1143 1.429 . S
C1159 C1155 1.429 . S
C1159 C1160 1.523 . S
C1160 C1144 1.368 . S
C1160 C1156 1.368 . S
C1160 C1159 1.523 . S
H1161 C1136 0.950 . S
H1162 C1138 0.950 . S
H1163 C1139 0.949 . S
H1164 C1141 0.950 . S
H1165 C1143 0.950 . S
C1166 C1167 1.349 . S
C1166 C1168 1.327 . S
C1166 H1191 0.950 . S
C1167 C1166 1.349 . S
C1167 C1183 1.349 . S
C1168 C1166 1.327 . S
C1168 C1187 1.429 . S
C1168 H1192 0.950 . S
C1169 C1186 1.574 . S
C1169 C1188 1.368 . S
C1169 H1193 0.949 . S
H1170 C1174 0.949 . S
C1171 C1172 1.349 . S
C1171 C1173 1.327 . S
C1171 H1194 0.950 . S
C1172 C1171 1.349 . S
C1172 C1184 1.349 . S
C1173 C1171 1.327 . S
C1173 C1189 1.429 . S
C1173 H1195 0.950 . S
C1174 H1170 0.949 . S
C1174 C1182 1.574 . S
C1174 C1190 1.368 . S
H1175 C1183 0.950 . S
H1176 C1181 0.950 . S
H1177 C1182 0.949 . S
H1178 C1184 0.950 . S
H1179 C1185 0.950 . S
H1180 C1186 0.949 . S
C1181 H1176 0.950 . S
C1181 C1183 1.327 . S
C1181 C1187 1.429 . S
C1182 C1174 1.574 . S
C1182 H1177 0.949 . S
C1182 C1188 1.368 . S
C1183 C1167 1.349 . S
C1183 H1175 0.950 . S
C1183 C1181 1.327 . S
C1184 C1172 1.349 . S
C1184 H1178 0.950 . S
C1184 C1185 1.327 . S
C1185 H1179 0.950 . S
C1185 C1184 1.327 . S
C1185 C1189 1.429 . S
C1186 C1169 1.574 . S
C1186 H1180 0.949 . S
C1186 C1190 1.368 . S
C1187 C1168 1.429 . S
C1187 C1181 1.429 . S
C1187 C1188 1.523 . S
C1188 C1169 1.368 . S
C1188 C1182 1.368 . S
C1188 C1187 1.523 . S
C1189 C1173 1.429 . S
C1189 C1185 1.429 . S
C1189 C1190 1.523 . S
C1190 C1174 1.368 . S
C1190 C1186 1.368 . S
C1190 C1189 1.523 . S
H1191 C1166 0.950 . S
H1192 C1168 0.950 . S
H1193 C1169 0.949 . S
H1194 C1171 0.950 . S
H1195 C1173 0.950 . S
C1196 C1197 1.349 1_655 S
C1196 C1198 1.327 . S
C1196 H1221 0.950 . S
C1197 C1196 1.349 1_455 S
C1197 C1213 1.349 . S
C1198 C1196 1.327 . S
C1198 C1217 1.429 1_655 S
C1198 H1222 0.950 . S
C1199 C1216 1.574 . S
C1199 C1218 1.368 . S
C1199 H1223 0.949 . S
H1200 C1204 0.949 . S
C1201 C1202 1.349 1_455 S
C1201 C1203 1.327 . S
C1201 H1224 0.950 . S
C1202 C1201 1.349 1_655 S
C1202 C1214 1.349 . S
C1203 C1201 1.327 . S
C1203 C1219 1.429 1_455 S
C1203 H1225 0.950 . S
C1204 H1200 0.949 . S
C1204 C1212 1.574 . S
C1204 C1220 1.401 . S
H1205 C1213 0.950 . S
H1206 C1211 0.950 . S
H1207 C1212 0.949 . S
H1208 C1214 0.950 . S
H1209 C1215 0.950 . S
H1210 C1216 0.949 . S
C1211 H1206 0.950 . S
C1211 C1213 1.327 . S
C1211 C1217 1.429 . S
C1212 C1204 1.574 . S
C1212 H1207 0.949 . S
C1212 C1218 1.368 1_655 S
C1213 C1197 1.349 . S
C1213 H1205 0.950 . S
C1213 C1211 1.327 . S
C1214 C1202 1.349 . S
C1214 H1208 0.950 . S
C1214 C1215 1.327 . S
C1215 H1209 0.950 . S
C1215 C1214 1.327 . S
C1215 C1219 1.429 . S
C1216 C1199 1.574 . S
C1216 H1210 0.949 . S
C1216 C1220 1.335 1_455 S
C1217 C1198 1.429 1_455 S
C1217 C1211 1.429 . S
C1217 C1218 1.523 . S
C1218 C1199 1.368 . S
C1218 C1212 1.368 1_455 S
C1218 C1217 1.523 . S
C1219 C1203 1.429 1_655 S
C1219 C1215 1.429 . S
C1219 C1220 1.528 . S
C1220 C1204 1.401 . S
C1220 C1216 1.335 1_655 S
C1220 C1219 1.528 . S
H1221 C1196 0.950 . S
H1222 C1198 0.950 . S
H1223 C1199 0.949 . S
H1224 C1201 0.950 . S
H1225 C1203 0.950 . S
C1226 C1227 1.349 . S
C1226 C1228 1.327 . S
C1226 H1251 0.950 . S
C1227 C1226 1.349 . S
C1227 C1243 1.349 . S
C1228 C1226 1.327 . S
C1228 C1247 1.429 . S
C1228 H1252 0.950 . S
C1229 C1246 1.574 . S
C1229 C1248 1.368 . S
C1229 H1253 0.949 . S
H1230 C1234 0.949 . S
C1231 C1232 1.349 . S
C1231 C1233 1.327 . S
C1231 H1254 0.950 . S
C1232 C1231 1.349 . S
C1232 C1244 1.349 . S
C1233 C1231 1.327 . S
C1233 C1249 1.429 . S
C1233 H1255 0.950 . S
C1234 H1230 0.949 . S
C1234 C1242 1.574 . S
C1234 C1250 1.368 . S
H1235 C1243 0.950 . S
H1236 C1241 0.950 . S
H1237 C1242 0.949 . S
H1238 C1244 0.950 . S
H1239 C1245 0.950 . S
H1240 C1246 0.949 . S
C1241 H1236 0.950 . S
C1241 C1243 1.327 . S
C1241 C1247 1.429 . S
C1242 C1234 1.574 . S
C1242 H1237 0.949 . S
C1242 C1248 1.368 . S
C1243 C1227 1.349 . S
C1243 H1235 0.950 . S
C1243 C1241 1.327 . S
C1244 C1232 1.349 . S
C1244 H1238 0.950 . S
C1244 C1245 1.327 . S
C1245 H1239 0.950 . S
C1245 C1244 1.327 . S
C1245 C1249 1.429 . S
C1246 C1229 1.574 . S
C1246 H1240 0.949 . S
C1246 C1250 1.368 . S
C1247 C1228 1.429 . S
C1247 C1241 1.429 . S
C1247 C1248 1.523 . S
C1248 C1229 1.368 . S
C1248 C1242 1.368 . S
C1248 C1247 1.523 . S
C1249 C1233 1.429 . S
C1249 C1245 1.429 . S
C1249 C1250 1.523 1_554 S
C1250 C1234 1.368 . S
C1250 C1246 1.368 . S
C1250 C1249 1.523 1_556 S
H1251 C1226 0.950 . S
H1252 C1228 0.950 . S
H1253 C1229 0.949 . S
H1254 C1231 0.950 . S
H1255 C1233 0.950 . S
C1256 C1257 1.349 . S
C1256 C1258 1.327 . S
C1256 H1281 0.950 . S
C1257 C1256 1.349 . S
C1257 C1273 1.349 . S
C1258 C1256 1.327 . S
C1258 C1277 1.429 . S
C1258 H1282 0.950 . S
C1259 C1276 1.574 . S
C1259 C1278 1.368 . S
C1259 H1283 0.949 . S
H1260 C1264 0.949 . S
C1261 C1262 1.349 . S
C1261 C1263 1.327 . S
C1261 H1284 0.950 . S
C1262 C1261 1.349 . S
C1262 C1274 1.349 . S
C1263 C1261 1.327 . S
C1263 C1279 1.429 . S
C1263 H1285 0.950 . S
C1264 H1260 0.949 . S
C1264 C1272 1.574 . S
C1264 C1280 1.368 . S
H1265 C1273 0.950 . S
H1266 C1271 0.950 . S
H1267 C1272 0.949 . S
H1268 C1274 0.950 . S
H1269 C1275 0.950 . S
H1270 C1276 0.949 . S
C1271 H1266 0.950 . S
C1271 C1273 1.327 . S
C1271 C1277 1.429 . S
C1272 C1264 1.574 . S
C1272 H1267 0.949 . S
C1272 C1278 1.368 . S
C1273 C1257 1.349 . S
C1273 H1265 0.950 . S
C1273 C1271 1.327 . S
C1274 C1262 1.349 . S
C1274 H1268 0.950 . S
C1274 C1275 1.327 . S
C1275 H1269 0.950 . S
C1275 C1274 1.327 . S
C1275 C1279 1.429 . S
C1276 C1259 1.574 . S
C1276 H1270 0.949 . S
C1276 C1280 1.368 . S
C1277 C1258 1.429 . S
C1277 C1271 1.429 . S
C1277 C1278 1.523 . S
C1278 C1259 1.368 . S
C1278 C1272 1.368 . S
C1278 C1277 1.523 . S
C1279 C1263 1.429 . S
C1279 C1275 1.429 . S
C1279 C1280 1.523 . S
C1280 C1264 1.368 . S
C1280 C1276 1.368 . S
C1280 C1279 1.523 . S
H1281 C1256 0.950 . S
H1282 C1258 0.950 . S
H1283 C1259 0.949 . S
H1284 C1261 0.950 . S
H1285 C1263 0.950 . S
C1286 C1287 1.349 . S
C1286 C1288 1.327 . S
C1286 H1311 0.950 . S
C1287 C1286 1.349 . S
C1287 C1303 1.349 . S
C1288 C1286 1.327 . S
C1288 C1307 1.429 . S
C1288 H1312 0.950 . S
C1289 C1306 1.574 . S
C1289 C1308 1.368 . S
C1289 H1313 0.949 . S
H1290 C1294 0.949 . S
C1291 C1292 1.349 . S
C1291 C1293 1.327 . S
C1291 H1314 0.950 . S
C1292 C1291 1.349 . S
C1292 C1304 1.349 . S
C1293 C1291 1.327 . S
C1293 C1309 1.429 . S
C1293 H1315 0.950 . S
C1294 H1290 0.949 . S
C1294 C1302 1.574 . S
C1294 C1310 1.368 . S
H1295 C1303 0.950 . S
H1296 C1301 0.950 . S
H1297 C1302 0.949 . S
H1298 C1304 0.950 . S
H1299 C1305 0.950 . S
H1300 C1306 0.949 . S
C1301 H1296 0.950 . S
C1301 C1303 1.327 . S
C1301 C1307 1.429 . S
C1302 C1294 1.574 . S
C1302 H1297 0.949 . S
C1302 C1308 1.368 . S
C1303 C1287 1.349 . S
C1303 H1295 0.950 . S
C1303 C1301 1.327 . S
C1304 C1292 1.349 . S
C1304 H1298 0.950 . S
C1304 C1305 1.327 . S
C1305 H1299 0.950 . S
C1305 C1304 1.327 . S
C1305 C1309 1.429 . S
C1306 C1289 1.574 . S
C1306 H1300 0.949 . S
C1306 C1310 1.368 . S
C1307 C1288 1.429 . S
C1307 C1301 1.429 . S
C1307 C1308 1.523 . S
C1308 C1289 1.368 . S
C1308 C1302 1.368 . S
C1308 C1307 1.523 . S
C1309 C1293 1.429 . S
C1309 C1305 1.429 . S
C1309 C1310 1.523 . S
C1310 C1294 1.368 . S
C1310 C1306 1.368 . S
C1310 C1309 1.523 . S
H1311 C1286 0.950 . S
H1312 C1288 0.950 . S
H1313 C1289 0.949 . S
H1314 C1291 0.950 . S
H1315 C1293 0.950 . S
C1316 C1317 1.349 1_455 S
C1316 C1318 1.327 . S
C1316 H1341 0.950 . S
C1317 C1316 1.349 1_655 S
C1317 C1333 1.349 . S
C1318 C1316 1.327 . S
C1318 C1337 1.429 1_455 S
C1318 H1342 0.950 . S
C1319 C1336 1.574 . S
C1319 C1338 1.406 . S
C1319 H1343 0.949 . S
H1320 C1324 0.949 . S
C1321 C1322 1.349 1_655 S
C1321 C1323 1.327 . S
C1321 H1344 0.950 . S
C1322 C1321 1.349 1_455 S
C1322 C1334 1.349 . S
C1323 C1321 1.327 . S
C1323 C1339 1.429 1_655 S
C1323 H1345 0.950 . S
C1324 H1320 0.949 . S
C1324 C1332 1.574 . S
C1324 C1340 1.368 . S
H1325 C1333 0.950 . S
H1326 C1331 0.950 . S
H1327 C1332 0.949 . S
H1328 C1334 0.950 . S
H1329 C1335 0.950 . S
H1330 C1336 0.949 . S
C1331 H1326 0.950 . S
C1331 C1333 1.327 . S
C1331 C1337 1.429 . S
C1332 C1324 1.574 . S
C1332 H1327 0.949 . S
C1332 C1338 1.329 1_455 S
C1333 C1317 1.349 . S
C1333 H1325 0.950 . S
C1333 C1331 1.327 . S
C1334 C1322 1.349 . S
C1334 H1328 0.950 . S
C1334 C1335 1.327 . S
C1335 H1329 0.950 . S
C1335 C1334 1.327 . S
C1335 C1339 1.429 . S
C1336 C1319 1.574 . S
C1336 H1330 0.949 . S
C1336 C1340 1.368 1_655 S
C1337 C1318 1.429 1_655 S
C1337 C1331 1.429 . S
C1337 C1338 1.528 . S
C1338 C1319 1.406 . S
C1338 C1332 1.329 1_655 S
C1338 C1337 1.528 . S
C1339 C1323 1.429 1_455 S
C1339 C1335 1.429 . S
C1339 C1340 1.523 . S
C1340 C1324 1.368 . S
C1340 C1336 1.368 1_455 S
C1340 C1339 1.523 . S
H1341 C1316 0.950 . S
H1342 C1318 0.950 . S
H1343 C1319 0.949 . S
H1344 C1321 0.950 . S
H1345 C1323 0.950 . S
C1346 C1347 1.349 . S
C1346 C1348 1.327 . S
C1346 H1371 0.950 . S
C1347 C1346 1.349 . S
C1347 C1363 1.349 . S
C1348 C1346 1.327 . S
C1348 C1367 1.429 . S
C1348 H1372 0.950 . S
C1349 C1366 1.574 . S
C1349 C1368 1.368 . S
C1349 H1373 0.949 . S
H1350 C1354 0.949 . S
C1351 C1352 1.349 . S
C1351 C1353 1.327 . S
C1351 H1374 0.950 . S
C1352 C1351 1.349 . S
C1352 C1364 1.349 . S
C1353 C1351 1.327 . S
C1353 C1369 1.429 . S
C1353 H1375 0.950 . S
C1354 H1350 0.949 . S
C1354 C1362 1.574 . S
C1354 C1370 1.368 . S
H1355 C1363 0.950 . S
H1356 C1361 0.950 . S
H1357 C1362 0.949 . S
H1358 C1364 0.950 . S
H1359 C1365 0.950 . S
H1360 C1366 0.949 . S
C1361 H1356 0.950 . S
C1361 C1363 1.327 . S
C1361 C1367 1.429 . S
C1362 C1354 1.574 . S
C1362 H1357 0.949 . S
C1362 C1368 1.368 . S
C1363 C1347 1.349 . S
C1363 H1355 0.950 . S
C1363 C1361 1.327 . S
C1364 C1352 1.349 . S
C1364 H1358 0.950 . S
C1364 C1365 1.327 . S
C1365 H1359 0.950 . S
C1365 C1364 1.327 . S
C1365 C1369 1.429 . S
C1366 C1349 1.574 . S
C1366 H1360 0.949 . S
C1366 C1370 1.368 . S
C1367 C1348 1.429 . S
C1367 C1361 1.429 . S
C1367 C1368 1.523 . S
C1368 C1349 1.368 . S
C1368 C1362 1.368 . S
C1368 C1367 1.523 . S
C1369 C1353 1.429 . S
C1369 C1365 1.429 . S
C1369 C1370 1.523 1_556 S
C1370 C1354 1.368 . S
C1370 C1366 1.368 . S
C1370 C1369 1.523 1_554 S
H1371 C1346 0.950 . S
H1372 C1348 0.950 . S
H1373 C1349 0.949 . S
H1374 C1351 0.950 . S
H1375 C1353 0.950 . S
C1376 C1377 1.349 . S
C1376 C1378 1.327 1_554 S
C1376 H1401 0.950 1_554 S
C1377 C1376 1.349 . S
C1377 C1393 1.349 . S
C1378 C1376 1.327 1_556 S
C1378 C1397 1.429 1_556 S
C1378 H1402 0.950 . S
C1379 C1396 1.574 1_545 S
C1379 C1398 1.368 1_655 S
C1379 H1403 0.949 . S
H1380 C1384 0.949 . S
C1381 C1382 1.349 . S
C1381 C1383 1.327 1_556 S
C1381 H1404 0.950 1_556 S
C1382 C1381 1.349 . S
C1382 C1394 1.349 . S
C1383 C1381 1.327 1_554 S
C1383 C1399 1.429 1_554 S
C1383 H1405 0.950 . S
C1384 H1380 0.949 . S
C1384 C1392 1.574 1_565 S
C1384 C1400 1.368 1_455 S
H1385 C1393 0.950 . S
H1386 C1391 0.950 1_655 S
H1387 C1392 0.949 . S
H1388 C1394 0.950 . S
H1389 C1395 0.950 1_455 S
H1390 C1396 0.949 . S
C1391 H1386 0.950 1_455 S
C1391 C1393 1.327 . S
C1391 C1397 1.429 . S
C1392 C1384 1.574 1_545 S
C1392 H1387 0.949 . S
C1392 C1398 1.368 1_556 S
C1393 C1377 1.349 . S
C1393 H1385 0.950 . S
C1393 C1391 1.327 . S
C1394 C1382 1.349 . S
C1394 H1388 0.950 . S
C1394 C1395 1.327 . S
C1395 H1389 0.950 1_655 S
C1395 C1394 1.327 . S
C1395 C1399 1.429 . S
C1396 C1379 1.574 1_565 S
C1396 H1390 0.949 . S
C1396 C1400 1.368 1_554 S
C1397 C1378 1.429 1_554 S
C1397 C1391 1.429 . S
C1397 C1398 1.523 . S
C1398 C1379 1.368 1_455 S
C1398 C1392 1.368 1_554 S
C1398 C1397 1.523 . S
C1399 C1383 1.429 1_556 S
C1399 C1395 1.429 . S
C1399 C1400 1.523 . S
C1400 C1384 1.368 1_655 S
C1400 C1396 1.368 1_556 S
C1400 C1399 1.523 . S
H1401 C1376 0.950 1_556 S
H1402 C1378 0.950 . S
H1403 C1379 0.949 . S
H1404 C1381 0.950 1_554 S
H1405 C1383 0.950 . S
C1406 C1407 1.349 . S
C1406 C1408 1.327 . S
C1406 H1431 0.950 . S
C1407 C1406 1.349 . S
C1407 C1423 1.349 . S
C1408 C1406 1.327 . S
C1408 C1427 1.429 . S
C1408 H1432 0.950 . S
C1409 C1426 1.574 . S
C1409 C1428 1.368 . S
C1409 H1433 0.949 . S
H1410 C1414 0.949 . S
C1411 C1412 1.349 . S
C1411 C1413 1.327 . S
C1411 H1434 0.950 . S
C1412 C1411 1.349 . S
C1412 C1424 1.349 . S
C1413 C1411 1.327 . S
C1413 C1429 1.429 . S
C1413 H1435 0.950 . S
C1414 H1410 0.949 . S
C1414 C1422 1.574 . S
C1414 C1430 1.368 . S
H1415 C1423 0.950 . S
H1416 C1421 0.950 . S
H1417 C1422 0.949 . S
H1418 C1424 0.950 . S
H1419 C1425 0.950 . S
H1420 C1426 0.949 . S
C1421 H1416 0.950 . S
C1421 C1423 1.327 . S
C1421 C1427 1.429 . S
C1422 C1414 1.574 . S
C1422 H1417 0.949 . S
C1422 C1428 1.368 . S
C1423 C1407 1.349 . S
C1423 H1415 0.950 . S
C1423 C1421 1.327 . S
C1424 C1412 1.349 . S
C1424 H1418 0.950 . S
C1424 C1425 1.327 . S
C1425 H1419 0.950 . S
C1425 C1424 1.327 . S
C1425 C1429 1.429 . S
C1426 C1409 1.574 . S
C1426 H1420 0.949 . S
C1426 C1430 1.368 . S
C1427 C1408 1.429 . S
C1427 C1421 1.429 . S
C1427 C1428 1.523 . S
C1428 C1409 1.368 . S
C1428 C1422 1.368 . S
C1428 C1427 1.523 . S
C1429 C1413 1.429 . S
C1429 C1425 1.429 . S
C1429 C1430 1.523 . S
C1430 C1414 1.368 . S
C1430 C1426 1.368 . S
C1430 C1429 1.523 . S
H1431 C1406 0.950 . S
H1432 C1408 0.950 . S
H1433 C1409 0.949 . S
H1434 C1411 0.950 . S
H1435 C1413 0.950 . S
C1436 C1437 1.349 . S
C1436 C1438 1.327 . S
C1436 H1461 0.950 . S
C1437 C1436 1.349 . S
C1437 C1453 1.349 . S
C1438 C1436 1.327 . S
C1438 C1457 1.429 . S
C1438 H1462 0.950 . S
C1439 C1456 1.574 1_545 S
C1439 C1458 1.368 . S
C1439 H1463 0.949 . S
H1440 C1444 0.949 . S
C1441 C1442 1.349 . S
C1441 C1443 1.327 . S
C1441 H1464 0.950 . S
C1442 C1441 1.349 . S
C1442 C1454 1.349 . S
C1443 C1441 1.327 . S
C1443 C1459 1.429 . S
C1443 H1465 0.950 . S
C1444 H1440 0.949 . S
C1444 C1452 1.574 1_565 S
C1444 C1460 1.368 . S
H1445 C1453 0.950 . S
H1446 C1451 0.950 . S
H1447 C1452 0.949 . S
H1448 C1454 0.950 . S
H1449 C1455 0.950 . S
H1450 C1456 0.949 . S
C1451 H1446 0.950 . S
C1451 C1453 1.327 . S
C1451 C1457 1.429 . S
C1452 C1444 1.574 1_545 S
C1452 H1447 0.949 . S
C1452 C1458 1.368 . S
C1453 C1437 1.349 . S
C1453 H1445 0.950 . S
C1453 C1451 1.327 . S
C1454 C1442 1.349 . S
C1454 H1448 0.950 . S
C1454 C1455 1.327 . S
C1455 H1449 0.950 . S
C1455 C1454 1.327 . S
C1455 C1459 1.429 . S
C1456 C1439 1.574 1_565 S
C1456 H1450 0.949 . S
C1456 C1460 1.368 . S
C1457 C1438 1.429 . S
C1457 C1451 1.429 . S
C1457 C1458 1.523 . S
C1458 C1439 1.368 . S
C1458 C1452 1.368 . S
C1458 C1457 1.523 . S
C1459 C1443 1.429 . S
C1459 C1455 1.429 . S
C1459 C1460 1.523 . S
C1460 C1444 1.368 . S
C1460 C1456 1.368 . S
C1460 C1459 1.523 . S
H1461 C1436 0.950 . S
H1462 C1438 0.950 . S
H1463 C1439 0.949 . S
H1464 C1441 0.950 . S
H1465 C1443 0.950 . S
C1466 C1467 1.349 . S
C1466 C1468 1.327 . S
C1466 H1491 0.950 . S
C1467 C1466 1.349 . S
C1467 C1483 1.349 . S
C1468 C1466 1.327 . S
C1468 C1487 1.429 . S
C1468 H1492 0.950 . S
C1469 C1486 1.574 . S
C1469 C1488 1.368 . S
C1469 H1493 0.949 . S
H1470 C1474 0.949 . S
C1471 C1472 1.349 . S
C1471 C1473 1.327 . S
C1471 H1494 0.950 . S
C1472 C1471 1.349 . S
C1472 C1484 1.349 . S
C1473 C1471 1.327 . S
C1473 C1489 1.429 . S
C1473 H1495 0.950 . S
C1474 H1470 0.949 . S
C1474 C1482 1.574 . S
C1474 C1490 1.368 . S
H1475 C1483 0.950 . S
H1476 C1481 0.950 . S
H1477 C1482 0.949 . S
H1478 C1484 0.950 . S
H1479 C1485 0.950 . S
H1480 C1486 0.949 . S
C1481 H1476 0.950 . S
C1481 C1483 1.327 . S
C1481 C1487 1.429 . S
C1482 C1474 1.574 . S
C1482 H1477 0.949 . S
C1482 C1488 1.368 . S
C1483 C1467 1.349 . S
C1483 H1475 0.950 . S
C1483 C1481 1.327 . S
C1484 C1472 1.349 . S
C1484 H1478 0.950 . S
C1484 C1485 1.327 . S
C1485 H1479 0.950 . S
C1485 C1484 1.327 . S
C1485 C1489 1.429 . S
C1486 C1469 1.574 . S
C1486 H1480 0.949 . S
C1486 C1490 1.368 . S
C1487 C1468 1.429 . S
C1487 C1481 1.429 . S
C1487 C1488 1.523 . S
C1488 C1469 1.368 . S
C1488 C1482 1.368 . S
C1488 C1487 1.523 . S
C1489 C1473 1.429 . S
C1489 C1485 1.429 . S
C1489 C1490 1.523 . S
C1490 C1474 1.368 . S
C1490 C1486 1.368 . S
C1490 C1489 1.523 . S
H1491 C1466 0.950 . S
H1492 C1468 0.950 . S
H1493 C1469 0.949 . S
H1494 C1471 0.950 . S
H1495 C1473 0.950 . S
C1496 C1497 1.349 . S
C1496 C1498 1.327 . S
C1496 H1521 0.950 . S
C1497 C1496 1.349 . S
C1497 C1513 1.349 . S
C1498 C1496 1.327 . S
C1498 C1517 1.429 . S
C1498 H1522 0.950 . S
C1499 C1516 1.574 1_465 S
C1499 C1518 1.368 . S
C1499 H1523 0.949 . S
H1500 C1504 0.949 . S
C1501 C1502 1.349 . S
C1501 C1503 1.327 . S
C1501 H1524 0.950 . S
C1502 C1501 1.349 . S
C1502 C1514 1.349 . S
C1503 C1501 1.327 . S
C1503 C1519 1.429 . S
C1503 H1525 0.950 . S
C1504 H1500 0.949 . S
C1504 C1512 1.574 1_645 S
C1504 C1520 1.368 . S
H1505 C1513 0.950 . S
H1506 C1511 0.950 . S
H1507 C1512 0.949 . S
H1508 C1514 0.950 . S
H1509 C1515 0.950 . S
H1510 C1516 0.949 . S
C1511 H1506 0.950 . S
C1511 C1513 1.327 . S
C1511 C1517 1.429 . S
C1512 C1504 1.574 1_465 S
C1512 H1507 0.949 . S
C1512 C1518 1.368 . S
C1513 C1497 1.349 . S
C1513 H1505 0.950 . S
C1513 C1511 1.327 . S
C1514 C1502 1.349 . S
C1514 H1508 0.950 . S
C1514 C1515 1.327 . S
C1515 H1509 0.950 . S
C1515 C1514 1.327 . S
C1515 C1519 1.429 . S
C1516 C1499 1.574 1_645 S
C1516 H1510 0.949 . S
C1516 C1520 1.368 . S
C1517 C1498 1.429 . S
C1517 C1511 1.429 . S
C1517 C1518 1.523 . S
C1518 C1499 1.368 . S
C1518 C1512 1.368 . S
C1518 C1517 1.523 . S
C1519 C1503 1.429 . S
C1519 C1515 1.429 . S
C1519 C1520 1.523 . S
C1520 C1504 1.368 . S
C1520 C1516 1.368 . S
C1520 C1519 1.523 . S
H1521 C1496 0.950 . S
H1522 C1498 0.950 . S
H1523 C1499 0.949 . S
H1524 C1501 0.950 . S
H1525 C1503 0.950 . S
C1526 C1527 1.349 . S
C1526 C1528 1.327 . S
C1526 H1551 0.950 . S
C1527 C1526 1.349 . S
C1527 C1543 1.349 . S
C1528 C1526 1.327 . S
C1528 C1547 1.429 . S
C1528 H1552 0.950 . S
C1529 C1546 1.574 . S
C1529 C1548 1.368 . S
C1529 H1553 0.949 . S
H1530 C1534 0.949 . S
C1531 C1532 1.349 . S
C1531 C1533 1.327 . S
C1531 H1554 0.950 . S
C1532 C1531 1.349 . S
C1532 C1544 1.349 . S
C1533 C1531 1.327 . S
C1533 C1549 1.429 . S
C1533 H1555 0.950 . S
C1534 H1530 0.949 . S
C1534 C1542 1.574 . S
C1534 C1550 1.368 . S
H1535 C1543 0.950 . S
H1536 C1541 0.950 . S
H1537 C1542 0.949 . S
H1538 C1544 0.950 . S
H1539 C1545 0.950 . S
H1540 C1546 0.949 . S
C1541 H1536 0.950 . S
C1541 C1543 1.327 . S
C1541 C1547 1.429 . S
C1542 C1534 1.574 . S
C1542 H1537 0.949 . S
C1542 C1548 1.368 . S
C1543 C1527 1.349 . S
C1543 H1535 0.950 . S
C1543 C1541 1.327 . S
C1544 C1532 1.349 . S
C1544 H1538 0.950 . S
C1544 C1545 1.327 . S
C1545 H1539 0.950 . S
C1545 C1544 1.327 . S
C1545 C1549 1.429 . S
C1546 C1529 1.574 . S
C1546 H1540 0.949 . S
C1546 C1550 1.368 . S
C1547 C1528 1.429 . S
C1547 C1541 1.429 . S
C1547 C1548 1.523 . S
C1548 C1529 1.368 . S
C1548 C1542 1.368 . S
C1548 C1547 1.523 . S
C1549 C1533 1.429 . S
C1549 C1545 1.429 . S
C1549 C1550 1.523 . S
C1550 C1534 1.368 . S
C1550 C1546 1.368 . S
C1550 C1549 1.523 . S
H1551 C1526 0.950 . S
H1552 C1528 0.950 . S
H1553 C1529 0.949 . S
H1554 C1531 0.950 . S
H1555 C1533 0.950 . S
C1556 C1557 1.349 . S
C1556 C1558 1.327 1_554 S
C1556 H1581 0.950 1_554 S
C1557 C1556 1.349 . S
C1557 C1573 1.349 . S
C1558 C1556 1.327 1_556 S
C1558 C1577 1.429 1_556 S
C1558 H1582 0.950 . S
C1559 C1576 1.574 1_565 S
C1559 C1578 1.368 . S
C1559 H1583 0.949 . S
H1560 C1564 0.949 . S
C1561 C1562 1.349 . S
C1561 C1563 1.327 1_556 S
C1561 H1584 0.950 1_556 S
C1562 C1561 1.349 . S
C1562 C1574 1.349 . S
C1563 C1561 1.327 1_554 S
C1563 C1579 1.429 1_554 S
C1563 H1585 0.950 . S
C1564 H1560 0.949 . S
C1564 C1572 1.574 1_545 S
C1564 C1580 1.368 . S
H1565 C1573 0.950 . S
H1566 C1571 0.950 . S
H1567 C1572 0.949 . S
H1568 C1574 0.950 . S
H1569 C1575 0.950 . S
H1570 C1576 0.949 . S
C1571 H1566 0.950 . S
C1571 C1573 1.327 . S
C1571 C1577 1.429 . S
C1572 C1564 1.574 1_565 S
C1572 H1567 0.949 . S
C1572 C1578 1.368 1_556 S
C1573 C1557 1.349 . S
C1573 H1565 0.950 . S
C1573 C1571 1.327 . S
C1574 C1562 1.349 . S
C1574 H1568 0.950 . S
C1574 C1575 1.327 . S
C1575 H1569 0.950 . S
C1575 C1574 1.327 . S
C1575 C1579 1.429 . S
C1576 C1559 1.574 1_545 S
C1576 H1570 0.949 . S
C1576 C1580 1.368 1_554 S
C1577 C1558 1.429 1_554 S
C1577 C1571 1.429 . S
C1577 C1578 1.523 . S
C1578 C1559 1.368 . S
C1578 C1572 1.368 1_554 S
C1578 C1577 1.523 . S
C1579 C1563 1.429 1_556 S
C1579 C1575 1.429 . S
C1579 C1580 1.523 . S
C1580 C1564 1.368 . S
C1580 C1576 1.368 1_556 S
C1580 C1579 1.523 . S
H1581 C1556 0.950 1_556 S
H1582 C1558 0.950 . S
H1583 C1559 0.949 . S
H1584 C1561 0.950 1_554 S
H1585 C1563 0.950 . S
C1586 C1587 1.349 . S
C1586 C1588 1.327 . S
C1586 H1611 0.950 . S
C1587 C1586 1.349 . S
C1587 C1603 1.349 . S
C1588 C1586 1.327 . S
C1588 C1607 1.429 . S
C1588 H1612 0.950 . S
C1589 C1606 1.574 . S
C1589 C1608 1.368 . S
C1589 H1613 0.949 . S
H1590 C1594 0.949 . S
C1591 C1592 1.349 . S
C1591 C1593 1.327 . S
C1591 H1614 0.950 . S
C1592 C1591 1.349 . S
C1592 C1604 1.349 . S
C1593 C1591 1.327 . S
C1593 C1609 1.429 . S
C1593 H1615 0.950 . S
C1594 H1590 0.949 . S
C1594 C1602 1.574 . S
C1594 C1610 1.368 . S
H1595 C1603 0.950 . S
H1596 C1601 0.950 . S
H1597 C1602 0.949 . S
H1598 C1604 0.950 . S
H1599 C1605 0.950 . S
H1600 C1606 0.949 . S
C1601 H1596 0.950 . S
C1601 C1603 1.327 . S
C1601 C1607 1.429 . S
C1602 C1594 1.574 . S
C1602 H1597 0.949 . S
C1602 C1608 1.368 . S
C1603 C1587 1.349 . S
C1603 H1595 0.950 . S
C1603 C1601 1.327 . S
C1604 C1592 1.349 . S
C1604 H1598 0.950 . S
C1604 C1605 1.327 . S
C1605 H1599 0.950 . S
C1605 C1604 1.327 . S
C1605 C1609 1.429 . S
C1606 C1589 1.574 . S
C1606 H1600 0.949 . S
C1606 C1610 1.368 . S
C1607 C1588 1.429 . S
C1607 C1601 1.429 . S
C1607 C1608 1.523 . S
C1608 C1589 1.368 . S
C1608 C1602 1.368 . S
C1608 C1607 1.523 . S
C1609 C1593 1.429 . S
C1609 C1605 1.429 . S
C1609 C1610 1.523 . S
C1610 C1594 1.368 . S
C1610 C1606 1.368 . S
C1610 C1609 1.523 . S
H1611 C1586 0.950 . S
H1612 C1588 0.950 . S
H1613 C1589 0.949 . S
H1614 C1591 0.950 . S
H1615 C1593 0.950 . S
C1616 C1617 1.349 . S
C1616 C1618 1.327 . S
C1616 H1641 0.950 . S
C1617 C1616 1.349 . S
C1617 C1633 1.349 . S
C1618 C1616 1.327 . S
C1618 C1637 1.429 . S
C1618 H1642 0.950 . S
C1619 C1636 1.574 . S
C1619 C1638 1.368 . S
C1619 H1643 0.949 . S
H1620 C1624 0.949 . S
C1621 C1622 1.349 . S
C1621 C1623 1.327 . S
C1621 H1644 0.950 . S
C1622 C1621 1.349 . S
C1622 C1634 1.349 . S
C1623 C1621 1.327 . S
C1623 C1639 1.429 . S
C1623 H1645 0.950 . S
C1624 H1620 0.949 . S
C1624 C1632 1.574 . S
C1624 C1640 1.368 . S
H1625 C1633 0.950 . S
H1626 C1631 0.950 . S
H1627 C1632 0.949 . S
H1628 C1634 0.950 . S
H1629 C1635 0.950 . S
H1630 C1636 0.949 . S
C1631 H1626 0.950 . S
C1631 C1633 1.327 . S
C1631 C1637 1.429 . S
C1632 C1624 1.574 . S
C1632 H1627 0.949 . S
C1632 C1638 1.368 . S
C1633 C1617 1.349 . S
C1633 H1625 0.950 . S
C1633 C1631 1.327 . S
C1634 C1622 1.349 . S
C1634 H1628 0.950 . S
C1634 C1635 1.327 . S
C1635 H1629 0.950 . S
C1635 C1634 1.327 . S
C1635 C1639 1.429 . S
C1636 C1619 1.574 . S
C1636 H1630 0.949 . S
C1636 C1640 1.368 . S
C1637 C1618 1.429 . S
C1637 C1631 1.429 . S
C1637 C1638 1.523 . S
C1638 C1619 1.368 . S
C1638 C1632 1.368 . S
C1638 C1637 1.523 . S
C1639 C1623 1.429 . S
C1639 C1635 1.429 . S
C1639 C1640 1.523 . S
C1640 C1624 1.368 . S
C1640 C1636 1.368 . S
C1640 C1639 1.523 . S
H1641 C1616 0.950 . S
H1642 C1618 0.950 . S
H1643 C1619 0.949 . S
H1644 C1621 0.950 . S
H1645 C1623 0.950 . S
C1646 C1647 1.349 . S
C1646 C1648 1.327 . S
C1646 H1671 0.950 . S
C1647 C1646 1.349 . S
C1647 C1663 1.349 . S
C1648 C1646 1.327 . S
C1648 C1667 1.429 . S
C1648 H1672 0.950 . S
C1649 C1666 1.574 . S
C1649 C1668 1.368 . S
C1649 H1673 0.949 . S
H1650 C1654 0.949 . S
C1651 C1652 1.349 . S
C1651 C1653 1.327 . S
C1651 H1674 0.950 . S
C1652 C1651 1.349 . S
C1652 C1664 1.349 . S
C1653 C1651 1.327 . S
C1653 C1669 1.429 . S
C1653 H1675 0.950 . S
C1654 H1650 0.949 . S
C1654 C1662 1.574 . S
C1654 C1670 1.368 . S
H1655 C1663 0.950 . S
H1656 C1661 0.950 . S
H1657 C1662 0.949 . S
H1658 C1664 0.950 . S
H1659 C1665 0.950 . S
H1660 C1666 0.949 . S
C1661 H1656 0.950 . S
C1661 C1663 1.327 . S
C1661 C1667 1.429 . S
C1662 C1654 1.574 . S
C1662 H1657 0.949 . S
C1662 C1668 1.368 . S
C1663 C1647 1.349 . S
C1663 H1655 0.950 . S
C1663 C1661 1.327 . S
C1664 C1652 1.349 . S
C1664 H1658 0.950 . S
C1664 C1665 1.327 . S
C1665 H1659 0.950 . S
C1665 C1664 1.327 . S
C1665 C1669 1.429 . S
C1666 C1649 1.574 . S
C1666 H1660 0.949 . S
C1666 C1670 1.368 . S
C1667 C1648 1.429 . S
C1667 C1661 1.429 . S
C1667 C1668 1.523 . S
C1668 C1649 1.368 . S
C1668 C1662 1.368 . S
C1668 C1667 1.523 . S
C1669 C1653 1.429 . S
C1669 C1665 1.429 . S
C1669 C1670 1.523 . S
C1670 C1654 1.368 . S
C1670 C1666 1.368 . S
C1670 C1669 1.523 . S
H1671 C1646 0.950 . S
H1672 C1648 0.950 . S
H1673 C1649 0.949 . S
H1674 C1651 0.950 . S
H1675 C1653 0.950 . S
C1676 C1677 1.349 . S
C1676 C1678 1.327 . S
C1676 H1701 0.950 . S
C1677 C1676 1.349 . S
C1677 C1693 1.349 . S
C1678 C1676 1.327 . S
C1678 C1697 1.429 . S
C1678 H1702 0.950 . S
C1679 C1696 1.574 . S
C1679 C1698 1.368 . S
C1679 H1703 0.949 . S
H1680 C1684 0.949 . S
C1681 C1682 1.349 . S
C1681 C1683 1.327 . S
C1681 H1704 0.950 . S
C1682 C1681 1.349 . S
C1682 C1694 1.349 . S
C1683 C1681 1.327 . S
C1683 C1699 1.429 . S
C1683 H1705 0.950 . S
C1684 H1680 0.949 . S
C1684 C1692 1.574 . S
C1684 C1700 1.368 . S
H1685 C1693 0.950 . S
H1686 C1691 0.950 . S
H1687 C1692 0.949 . S
H1688 C1694 0.950 . S
H1689 C1695 0.950 . S
H1690 C1696 0.949 . S
C1691 H1686 0.950 . S
C1691 C1693 1.327 . S
C1691 C1697 1.429 . S
C1692 C1684 1.574 . S
C1692 H1687 0.949 . S
C1692 C1698 1.368 . S
C1693 C1677 1.349 . S
C1693 H1685 0.950 . S
C1693 C1691 1.327 . S
C1694 C1682 1.349 . S
C1694 H1688 0.950 . S
C1694 C1695 1.327 . S
C1695 H1689 0.950 . S
C1695 C1694 1.327 . S
C1695 C1699 1.429 . S
C1696 C1679 1.574 . S
C1696 H1690 0.949 . S
C1696 C1700 1.368 . S
C1697 C1678 1.429 . S
C1697 C1691 1.429 . S
C1697 C1698 1.523 . S
C1698 C1679 1.368 . S
C1698 C1692 1.368 . S
C1698 C1697 1.523 . S
C1699 C1683 1.429 . S
C1699 C1695 1.429 . S
C1699 C1700 1.523 . S
C1700 C1684 1.368 . S
C1700 C1696 1.368 . S
C1700 C1699 1.523 . S
H1701 C1676 0.950 . S
H1702 C1678 0.950 . S
H1703 C1679 0.949 . S
H1704 C1681 0.950 . S
H1705 C1683 0.950 . S
C1706 C1707 1.349 . S
C1706 C1708 1.327 . S
C1706 H1731 0.950 . S
C1707 C1706 1.349 . S
C1707 C1723 1.349 . S
C1708 C1706 1.327 . S
C1708 C1727 1.429 . S
C1708 H1732 0.950 . S
C1709 C1726 1.574 . S
C1709 C1728 1.368 . S
C1709 H1733 0.949 . S
H1710 C1714 0.949 . S
C1711 C1712 1.349 . S
C1711 C1713 1.327 . S
C1711 H1734 0.950 . S
C1712 C1711 1.349 . S
C1712 C1724 1.349 . S
C1713 C1711 1.327 . S
C1713 C1729 1.429 . S
C1713 H1735 0.950 . S
C1714 H1710 0.949 . S
C1714 C1722 1.574 . S
C1714 C1730 1.368 . S
H1715 C1723 0.950 . S
H1716 C1721 0.950 . S
H1717 C1722 0.949 . S
H1718 C1724 0.950 . S
H1719 C1725 0.950 . S
H1720 C1726 0.949 . S
C1721 H1716 0.950 . S
C1721 C1723 1.327 . S
C1721 C1727 1.429 . S
C1722 C1714 1.574 . S
C1722 H1717 0.949 . S
C1722 C1728 1.368 . S
C1723 C1707 1.349 . S
C1723 H1715 0.950 . S
C1723 C1721 1.327 . S
C1724 C1712 1.349 . S
C1724 H1718 0.950 . S
C1724 C1725 1.327 . S
C1725 H1719 0.950 . S
C1725 C1724 1.327 . S
C1725 C1729 1.429 . S
C1726 C1709 1.574 . S
C1726 H1720 0.949 . S
C1726 C1730 1.368 . S
C1727 C1708 1.429 . S
C1727 C1721 1.429 . S
C1727 C1728 1.523 . S
C1728 C1709 1.368 . S
C1728 C1722 1.368 . S
C1728 C1727 1.523 . S
C1729 C1713 1.429 . S
C1729 C1725 1.429 . S
C1729 C1730 1.523 . S
C1730 C1714 1.368 . S
C1730 C1726 1.368 . S
C1730 C1729 1.523 . S
H1731 C1706 0.950 . S
H1732 C1708 0.950 . S
H1733 C1709 0.949 . S
H1734 C1711 0.950 . S
H1735 C1713 0.950 . S
C1736 C1737 1.349 . S
C1736 C1738 1.327 . S
C1736 H1761 0.950 . S
C1737 C1736 1.349 . S
C1737 C1753 1.349 . S
C1738 C1736 1.327 . S
C1738 C1757 1.429 . S
C1738 H1762 0.950 . S
C1739 C1756 1.574 . S
C1739 C1758 1.368 . S
C1739 H1763 0.949 . S
H1740 C1744 0.949 . S
C1741 C1742 1.349 . S
C1741 C1743 1.327 . S
C1741 H1764 0.950 . S
C1742 C1741 1.349 . S
C1742 C1754 1.349 . S
C1743 C1741 1.327 . S
C1743 C1759 1.429 . S
C1743 H1765 0.950 . S
C1744 H1740 0.949 . S
C1744 C1752 1.574 . S
C1744 C1760 1.368 . S
H1745 C1753 0.950 . S
H1746 C1751 0.950 . S
H1747 C1752 0.949 . S
H1748 C1754 0.950 . S
H1749 C1755 0.950 . S
H1750 C1756 0.949 . S
C1751 H1746 0.950 . S
C1751 C1753 1.327 . S
C1751 C1757 1.429 . S
C1752 C1744 1.574 . S
C1752 H1747 0.949 . S
C1752 C1758 1.368 . S
C1753 C1737 1.349 . S
C1753 H1745 0.950 . S
C1753 C1751 1.327 . S
C1754 C1742 1.349 . S
C1754 H1748 0.950 . S
C1754 C1755 1.327 . S
C1755 H1749 0.950 . S
C1755 C1754 1.327 . S
C1755 C1759 1.429 . S
C1756 C1739 1.574 . S
C1756 H1750 0.949 . S
C1756 C1760 1.368 . S
C1757 C1738 1.429 . S
C1757 C1751 1.429 . S
C1757 C1758 1.523 . S
C1758 C1739 1.368 . S
C1758 C1752 1.368 . S
C1758 C1757 1.523 . S
C1759 C1743 1.429 . S
C1759 C1755 1.429 . S
C1759 C1760 1.523 . S
C1760 C1744 1.368 . S
C1760 C1756 1.368 . S
C1760 C1759 1.523 . S
H1761 C1736 0.950 . S
H1762 C1738 0.950 . S
H1763 C1739 0.949 . S
H1764 C1741 0.950 . S
H1765 C1743 0.950 . S
C1766 C1767 1.349 . S
C1766 C1768 1.327 . S
C1766 H1791 0.950 . S
C1767 C1766 1.349 . S
C1767 C1783 1.367 . S
C1768 C1766 1.327 . S
C1768 C1787 1.429 . S
C1768 H1792 0.950 1_554 S
C1769 C1786 1.574 . S
C1769 C1788 1.368 1_455 S
C1769 H1793 0.949 . S
H1770 C1774 0.949 . S
C1771 C1772 1.349 . S
C1771 C1773 1.327 . S
C1771 H1794 0.950 . S
C1772 C1771 1.349 . S
C1772 C1784 1.367 . S
C1773 C1771 1.327 . S
C1773 C1789 1.429 . S
C1773 H1795 0.950 1_556 S
C1774 H1770 0.949 . S
C1774 C1782 1.574 . S
C1774 C1790 1.368 1_655 S
H1775 C1783 0.937 1_455 S
H1776 C1781 0.950 . S
H1777 C1782 0.949 . S
H1778 C1784 0.937 1_655 S
H1779 C1785 0.950 . S
H1780 C1786 0.949 . S
C1781 H1776 0.950 . S
C1781 C1783 1.322 1_455 S
C1781 C1787 1.429 1_455 S
C1782 C1774 1.574 . S
C1782 H1777 0.949 . S
C1782 C1788 1.368 1_556 S
C1783 C1767 1.367 . S
C1783 H1775 0.937 1_655 S
C1783 C1781 1.322 1_655 S
C1784 C1772 1.367 . S
C1784 H1778 0.937 1_455 S
C1784 C1785 1.322 1_455 S
C1785 H1779 0.950 . S
C1785 C1784 1.322 1_655 S
C1785 C1789 1.429 1_655 S
C1786 C1769 1.574 . S
C1786 H1780 0.949 . S
C1786 C1790 1.368 1_554 S
C1787 C1768 1.429 . S
C1787 C1781 1.429 1_655 S
C1787 C1788 1.523 . S
C1788 C1769 1.368 1_655 S
C1788 C1782 1.368 1_554 S
C1788 C1787 1.523 . S
C1789 C1773 1.429 . S
C1789 C1785 1.429 1_455 S
C1789 C1790 1.523 . S
C1790 C1774 1.368 1_455 S
C1790 C1786 1.368 1_556 S
C1790 C1789 1.523 . S
H1791 C1766 0.950 . S
H1792 C1768 0.950 1_556 S
H1793 C1769 0.949 . S
H1794 C1771 0.950 . S
H1795 C1773 0.950 1_554 S
C1796 C1797 1.349 . S
C1796 C1798 1.327 . S
C1796 H1821 0.950 1_556 S
C1797 C1796 1.349 . S
C1797 C1813 1.349 . S
C1798 C1796 1.327 . S
C1798 C1817 1.429 . S
C1798 H1822 0.950 1_556 S
C1799 C1816 1.574 . S
C1799 C1818 1.368 . S
C1799 H1823 0.949 . S
H1800 C1804 0.949 . S
C1801 C1802 1.349 . S
C1801 C1803 1.327 . S
C1801 H1824 0.950 1_554 S
C1802 C1801 1.349 . S
C1802 C1814 1.349 . S
C1803 C1801 1.327 . S
C1803 C1819 1.429 . S
C1803 H1825 0.950 1_554 S
C1804 H1800 0.949 . S
C1804 C1812 1.574 . S
C1804 C1820 1.368 . S
H1805 C1813 0.950 . S
H1806 C1811 0.950 . S
H1807 C1812 0.949 . S
H1808 C1814 0.950 . S
H1809 C1815 0.950 . S
H1810 C1816 0.949 . S
C1811 H1806 0.950 . S
C1811 C1813 1.327 . S
C1811 C1817 1.429 . S
C1812 C1804 1.574 . S
C1812 H1807 0.949 . S
C1812 C1818 1.368 1_554 S
C1813 C1797 1.349 . S
C1813 H1805 0.950 . S
C1813 C1811 1.327 . S
C1814 C1802 1.349 . S
C1814 H1808 0.950 . S
C1814 C1815 1.327 . S
C1815 H1809 0.950 . S
C1815 C1814 1.327 . S
C1815 C1819 1.429 . S
C1816 C1799 1.574 . S
C1816 H1810 0.949 . S
C1816 C1820 1.368 1_556 S
C1817 C1798 1.429 . S
C1817 C1811 1.429 . S
C1817 C1818 1.523 . S
C1818 C1799 1.368 . S
C1818 C1812 1.368 1_556 S
C1818 C1817 1.523 . S
C1819 C1803 1.429 . S
C1819 C1815 1.429 . S
C1819 C1820 1.523 . S
C1820 C1804 1.368 . S
C1820 C1816 1.368 1_554 S
C1820 C1819 1.523 . S
H1821 C1796 0.950 1_554 S
H1822 C1798 0.950 1_554 S
H1823 C1799 0.949 . S
H1824 C1801 0.950 1_556 S
H1825 C1803 0.950 1_556 S
C1826 C1827 1.349 . S
C1826 C1828 1.327 . S
C1826 H1851 0.950 . S
C1827 C1826 1.349 . S
C1827 C1843 1.349 . S
C1828 C1826 1.327 . S
C1828 C1847 1.429 . S
C1828 H1852 0.950 1_455 S
C1829 C1846 1.574 . S
C1829 C1848 1.368 . S
C1829 H1853 0.949 . S
H1830 C1834 0.949 . S
C1831 C1832 1.349 . S
C1831 C1833 1.327 . S
C1831 H1854 0.950 . S
C1832 C1831 1.349 . S
C1832 C1844 1.349 . S
C1833 C1831 1.327 . S
C1833 C1849 1.429 . S
C1833 H1855 0.950 1_655 S
C1834 H1830 0.949 . S
C1834 C1842 1.574 . S
C1834 C1850 1.368 . S
H1835 C1843 0.950 . S
H1836 C1841 0.950 . S
H1837 C1842 0.949 . S
H1838 C1844 0.950 . S
H1839 C1845 0.950 . S
H1840 C1846 0.949 . S
C1841 H1836 0.950 . S
C1841 C1843 1.327 . S
C1841 C1847 1.429 . S
C1842 C1834 1.574 . S
C1842 H1837 0.949 . S
C1842 C1848 1.368 1_655 S
C1843 C1827 1.349 . S
C1843 H1835 0.950 . S
C1843 C1841 1.327 . S
C1844 C1832 1.349 . S
C1844 H1838 0.950 . S
C1844 C1845 1.327 . S
C1845 H1839 0.950 . S
C1845 C1844 1.327 . S
C1845 C1849 1.429 . S
C1846 C1829 1.574 . S
C1846 H1840 0.949 . S
C1846 C1850 1.368 1_455 S
C1847 C1828 1.429 . S
C1847 C1841 1.429 . S
C1847 C1848 1.523 . S
C1848 C1829 1.368 . S
C1848 C1842 1.368 1_455 S
C1848 C1847 1.523 . S
C1849 C1833 1.429 . S
C1849 C1845 1.429 . S
C1849 C1850 1.523 . S
C1850 C1834 1.368 . S
C1850 C1846 1.368 1_655 S
C1850 C1849 1.523 . S
H1851 C1826 0.950 . S
H1852 C1828 0.950 1_655 S
H1853 C1829 0.949 . S
H1854 C1831 0.950 . S
H1855 C1833 0.950 1_455 S
C1856 C1857 1.349 . S
C1856 C1858 1.327 . S
C1856 H1881 0.950 . S
C1857 C1856 1.349 . S
C1857 C1873 1.349 . S
C1858 C1856 1.327 . S
C1858 C1877 1.429 . S
C1858 H1882 0.950 . S
C1859 C1876 1.574 . S
C1859 C1878 1.368 . S
C1859 H1883 0.949 . S
H1860 C1864 0.949 . S
C1861 C1862 1.349 . S
C1861 C1863 1.327 . S
C1861 H1884 0.950 . S
C1862 C1861 1.349 . S
C1862 C1874 1.349 . S
C1863 C1861 1.327 . S
C1863 C1879 1.429 . S
C1863 H1885 0.950 . S
C1864 H1860 0.949 . S
C1864 C1872 1.574 . S
C1864 C1880 1.368 . S
H1865 C1873 0.950 . S
H1866 C1871 0.950 . S
H1867 C1872 0.949 . S
H1868 C1874 0.950 . S
H1869 C1875 0.950 . S
H1870 C1876 0.949 . S
C1871 H1866 0.950 . S
C1871 C1873 1.327 . S
C1871 C1877 1.429 . S
C1872 C1864 1.574 . S
C1872 H1867 0.949 . S
C1872 C1878 1.368 . S
C1873 C1857 1.349 . S
C1873 H1865 0.950 . S
C1873 C1871 1.327 . S
C1874 C1862 1.349 . S
C1874 H1868 0.950 . S
C1874 C1875 1.327 . S
C1875 H1869 0.950 . S
C1875 C1874 1.327 . S
C1875 C1879 1.429 . S
C1876 C1859 1.574 . S
C1876 H1870 0.949 . S
C1876 C1880 1.368 . S
C1877 C1858 1.429 . S
C1877 C1871 1.429 . S
C1877 C1878 1.523 . S
C1878 C1859 1.368 . S
C1878 C1872 1.368 . S
C1878 C1877 1.523 . S
C1879 C1863 1.429 . S
C1879 C1875 1.429 . S
C1879 C1880 1.523 . S
C1880 C1864 1.368 . S
C1880 C1876 1.368 . S
C1880 C1879 1.523 . S
H1881 C1856 0.950 . S
H1882 C1858 0.950 . S
H1883 C1859 0.949 . S
H1884 C1861 0.950 . S
H1885 C1863 0.950 . S
C1886 C1887 1.349 . S
C1886 C1888 1.327 . S
C1886 H1911 0.950 . S
C1887 C1886 1.349 . S
C1887 C1903 1.349 . S
C1888 C1886 1.327 . S
C1888 C1907 1.429 . S
C1888 H1912 0.950 . S
C1889 C1906 1.574 . S
C1889 C1908 1.368 . S
C1889 H1913 0.949 . S
H1890 C1894 0.949 . S
C1891 C1892 1.349 . S
C1891 C1893 1.327 . S
C1891 H1914 0.950 . S
C1892 C1891 1.349 . S
C1892 C1904 1.349 . S
C1893 C1891 1.327 . S
C1893 C1909 1.429 . S
C1893 H1915 0.950 . S
C1894 H1890 0.949 . S
C1894 C1902 1.574 . S
C1894 C1910 1.368 . S
H1895 C1903 0.950 . S
H1896 C1901 0.950 . S
H1897 C1902 0.949 . S
H1898 C1904 0.950 . S
H1899 C1905 0.950 . S
H1900 C1906 0.949 . S
C1901 H1896 0.950 . S
C1901 C1903 1.327 . S
C1901 C1907 1.429 . S
C1902 C1894 1.574 . S
C1902 H1897 0.949 . S
C1902 C1908 1.368 . S
C1903 C1887 1.349 . S
C1903 H1895 0.950 . S
C1903 C1901 1.327 . S
C1904 C1892 1.349 . S
C1904 H1898 0.950 . S
C1904 C1905 1.327 . S
C1905 H1899 0.950 . S
C1905 C1904 1.327 . S
C1905 C1909 1.429 . S
C1906 C1889 1.574 . S
C1906 H1900 0.949 . S
C1906 C1910 1.368 . S
C1907 C1888 1.429 . S
C1907 C1901 1.429 . S
C1907 C1908 1.523 . S
C1908 C1889 1.368 . S
C1908 C1902 1.368 . S
C1908 C1907 1.523 . S
C1909 C1893 1.429 . S
C1909 C1905 1.429 . S
C1909 C1910 1.523 . S
C1910 C1894 1.368 . S
C1910 C1906 1.368 . S
C1910 C1909 1.523 . S
H1911 C1886 0.950 . S
H1912 C1888 0.950 . S
H1913 C1889 0.949 . S
H1914 C1891 0.950 . S
H1915 C1893 0.950 . S
C1916 C1917 1.349 . S
C1916 C1918 1.327 . S
C1916 H1941 0.950 . S
C1917 C1916 1.349 . S
C1917 C1933 1.349 . S
C1918 C1916 1.327 . S
C1918 C1937 1.429 . S
C1918 H1942 0.950 . S
C1919 C1936 1.574 . S
C1919 C1938 1.368 . S
C1919 H1943 0.949 . S
H1920 C1924 0.949 . S
C1921 C1922 1.349 . S
C1921 C1923 1.327 . S
C1921 H1944 0.950 . S
C1922 C1921 1.349 . S
C1922 C1934 1.349 . S
C1923 C1921 1.327 . S
C1923 C1939 1.429 . S
C1923 H1945 0.950 . S
C1924 H1920 0.949 . S
C1924 C1932 1.574 . S
C1924 C1940 1.368 . S
H1925 C1933 0.950 . S
H1926 C1931 0.950 . S
H1927 C1932 0.949 . S
H1928 C1934 0.950 . S
H1929 C1935 0.950 . S
H1930 C1936 0.949 . S
C1931 H1926 0.950 . S
C1931 C1933 1.327 . S
C1931 C1937 1.429 . S
C1932 C1924 1.574 . S
C1932 H1927 0.949 . S
C1932 C1938 1.368 . S
C1933 C1917 1.349 . S
C1933 H1925 0.950 . S
C1933 C1931 1.327 . S
C1934 C1922 1.349 . S
C1934 H1928 0.950 . S
C1934 C1935 1.327 . S
C1935 H1929 0.950 . S
C1935 C1934 1.327 . S
C1935 C1939 1.429 . S
C1936 C1919 1.574 . S
C1936 H1930 0.949 . S
C1936 C1940 1.368 . S
C1937 C1918 1.429 . S
C1937 C1931 1.429 . S
C1937 C1938 1.523 . S
C1938 C1919 1.368 . S
C1938 C1932 1.368 . S
C1938 C1937 1.523 . S
C1939 C1923 1.429 . S
C1939 C1935 1.429 . S
C1939 C1940 1.523 . S
C1940 C1924 1.368 . S
C1940 C1936 1.368 . S
C1940 C1939 1.523 . S
H1941 C1916 0.950 . S
H1942 C1918 0.950 . S
H1943 C1919 0.949 . S
H1944 C1921 0.950 . S
H1945 C1923 0.950 . S
C1946 C1947 1.349 . S
C1946 C1948 1.327 . S
C1946 H1971 0.950 . S
C1947 C1946 1.349 . S
C1947 C1963 1.349 . S
C1948 C1946 1.327 . S
C1948 C1967 1.429 . S
C1948 H1972 0.950 . S
C1949 C1966 1.574 . S
C1949 C1968 1.368 . S
C1949 H1973 0.949 . S
H1950 C1954 0.949 . S
C1951 C1952 1.349 . S
C1951 C1953 1.327 . S
C1951 H1974 0.950 . S
C1952 C1951 1.349 . S
C1952 C1964 1.349 . S
C1953 C1951 1.327 . S
C1953 C1969 1.429 . S
C1953 H1975 0.950 . S
C1954 H1950 0.949 . S
C1954 C1962 1.574 . S
C1954 C1970 1.368 . S
H1955 C1963 0.950 . S
H1956 C1961 0.950 . S
H1957 C1962 0.949 . S
H1958 C1964 0.950 . S
H1959 C1965 0.950 . S
H1960 C1966 0.949 . S
C1961 H1956 0.950 . S
C1961 C1963 1.327 . S
C1961 C1967 1.429 . S
C1962 C1954 1.574 . S
C1962 H1957 0.949 . S
C1962 C1968 1.368 . S
C1963 C1947 1.349 . S
C1963 H1955 0.950 . S
C1963 C1961 1.327 . S
C1964 C1952 1.349 . S
C1964 H1958 0.950 . S
C1964 C1965 1.327 . S
C1965 H1959 0.950 . S
C1965 C1964 1.327 . S
C1965 C1969 1.429 . S
C1966 C1949 1.574 . S
C1966 H1960 0.949 . S
C1966 C1970 1.368 . S
C1967 C1948 1.429 . S
C1967 C1961 1.429 . S
C1967 C1968 1.523 . S
C1968 C1949 1.368 . S
C1968 C1962 1.368 . S
C1968 C1967 1.523 . S
C1969 C1953 1.429 . S
C1969 C1965 1.429 . S
C1969 C1970 1.523 . S
C1970 C1954 1.368 . S
C1970 C1966 1.368 . S
C1970 C1969 1.523 . S
H1971 C1946 0.950 . S
H1972 C1948 0.950 . S
H1973 C1949 0.949 . S
H1974 C1951 0.950 . S
H1975 C1953 0.950 . S
C1976 C1977 1.349 . S
C1976 C1978 1.327 . S
C1976 H2001 0.950 . S
C1977 C1976 1.349 . S
C1977 C1993 1.349 . S
C1978 C1976 1.327 . S
C1978 C1997 1.429 . S
C1978 H2002 0.950 . S
C1979 C1996 1.574 . S
C1979 C1998 1.368 . S
C1979 H2003 0.949 . S
H1980 C1984 0.949 . S
C1981 C1982 1.349 . S
C1981 C1983 1.327 . S
C1981 H2004 0.950 . S
C1982 C1981 1.349 . S
C1982 C1994 1.349 . S
C1983 C1981 1.327 . S
C1983 C1999 1.429 . S
C1983 H2005 0.950 . S
C1984 H1980 0.949 . S
C1984 C1992 1.574 . S
C1984 C2000 1.368 . S
H1985 C1993 0.950 . S
H1986 C1991 0.950 . S
H1987 C1992 0.949 . S
H1988 C1994 0.950 . S
H1989 C1995 0.950 . S
H1990 C1996 0.949 . S
C1991 H1986 0.950 . S
C1991 C1993 1.327 . S
C1991 C1997 1.429 . S
C1992 C1984 1.574 . S
C1992 H1987 0.949 . S
C1992 C1998 1.368 . S
C1993 C1977 1.349 . S
C1993 H1985 0.950 . S
C1993 C1991 1.327 . S
C1994 C1982 1.349 . S
C1994 H1988 0.950 . S
C1994 C1995 1.327 . S
C1995 H1989 0.950 . S
C1995 C1994 1.327 . S
C1995 C1999 1.429 . S
C1996 C1979 1.574 . S
C1996 H1990 0.949 . S
C1996 C2000 1.368 . S
C1997 C1978 1.429 . S
C1997 C1991 1.429 . S
C1997 C1998 1.523 . S
C1998 C1979 1.368 . S
C1998 C1992 1.368 . S
C1998 C1997 1.523 . S
C1999 C1983 1.429 . S
C1999 C1995 1.429 . S
C1999 C2000 1.523 . S
C2000 C1984 1.368 . S
C2000 C1996 1.368 . S
C2000 C1999 1.523 . S
H2001 C1976 0.950 . S
H2002 C1978 0.950 . S
H2003 C1979 0.949 . S
H2004 C1981 0.950 . S
H2005 C1983 0.950 . S
C2006 C2007 1.349 . S
C2006 C2008 1.327 . S
C2006 H2031 0.950 . S
C2007 C2006 1.349 . S
C2007 C2023 1.349 . S
C2008 C2006 1.327 . S
C2008 C2027 1.429 . S
C2008 H2032 0.950 . S
C2009 C2026 1.574 . S
C2009 C2028 1.368 . S
C2009 H2033 0.949 . S
H2010 C2014 0.949 . S
C2011 C2012 1.349 . S
C2011 C2013 1.327 . S
C2011 H2034 0.950 . S
C2012 C2011 1.349 . S
C2012 C2024 1.349 . S
C2013 C2011 1.327 . S
C2013 C2029 1.429 . S
C2013 H2035 0.950 . S
C2014 H2010 0.949 . S
C2014 C2022 1.574 . S
C2014 C2030 1.368 . S
H2015 C2023 0.950 . S
H2016 C2021 0.950 . S
H2017 C2022 0.949 . S
H2018 C2024 0.950 . S
H2019 C2025 0.950 . S
H2020 C2026 0.949 . S
C2021 H2016 0.950 . S
C2021 C2023 1.327 . S
C2021 C2027 1.429 . S
C2022 C2014 1.574 . S
C2022 H2017 0.949 . S
C2022 C2028 1.368 . S
C2023 C2007 1.349 . S
C2023 H2015 0.950 . S
C2023 C2021 1.327 . S
C2024 C2012 1.349 . S
C2024 H2018 0.950 . S
C2024 C2025 1.327 . S
C2025 H2019 0.950 . S
C2025 C2024 1.327 . S
C2025 C2029 1.429 . S
C2026 C2009 1.574 . S
C2026 H2020 0.949 . S
C2026 C2030 1.368 . S
C2027 C2008 1.429 . S
C2027 C2021 1.429 . S
C2027 C2028 1.523 . S
C2028 C2009 1.368 . S
C2028 C2022 1.368 . S
C2028 C2027 1.523 . S
C2029 C2013 1.429 . S
C2029 C2025 1.429 . S
C2029 C2030 1.523 . S
C2030 C2014 1.368 . S
C2030 C2026 1.368 . S
C2030 C2029 1.523 . S
H2031 C2006 0.950 . S
H2032 C2008 0.950 . S
H2033 C2009 0.949 . S
H2034 C2011 0.950 . S
H2035 C2013 0.950 . S
C2036 C2037 1.349 . S
C2036 C2038 1.327 . S
C2036 H2061 0.950 . S
C2037 C2036 1.349 . S
C2037 C2053 1.349 . S
C2038 C2036 1.327 . S
C2038 C2057 1.429 . S
C2038 H2062 0.950 . S
C2039 C2056 1.574 . S
C2039 C2058 1.368 . S
C2039 H2063 0.949 . S
H2040 C2044 0.949 . S
C2041 C2042 1.349 . S
C2041 C2043 1.327 . S
C2041 H2064 0.950 . S
C2042 C2041 1.349 . S
C2042 C2054 1.349 . S
C2043 C2041 1.327 . S
C2043 C2059 1.429 . S
C2043 H2065 0.950 . S
C2044 H2040 0.949 . S
C2044 C2052 1.574 . S
C2044 C2060 1.368 . S
H2045 C2053 0.950 . S
H2046 C2051 0.950 . S
H2047 C2052 0.949 . S
H2048 C2054 0.950 . S
H2049 C2055 0.950 . S
H2050 C2056 0.949 . S
C2051 H2046 0.950 . S
C2051 C2053 1.327 . S
C2051 C2057 1.429 . S
C2052 C2044 1.574 . S
C2052 H2047 0.949 . S
C2052 C2058 1.368 . S
C2053 C2037 1.349 . S
C2053 H2045 0.950 . S
C2053 C2051 1.327 . S
C2054 C2042 1.349 . S
C2054 H2048 0.950 . S
C2054 C2055 1.327 . S
C2055 H2049 0.950 . S
C2055 C2054 1.327 . S
C2055 C2059 1.429 . S
C2056 C2039 1.574 . S
C2056 H2050 0.949 . S
C2056 C2060 1.368 . S
C2057 C2038 1.429 . S
C2057 C2051 1.429 . S
C2057 C2058 1.523 . S
C2058 C2039 1.368 . S
C2058 C2052 1.368 . S
C2058 C2057 1.523 . S
C2059 C2043 1.429 . S
C2059 C2055 1.429 . S
C2059 C2060 1.523 . S
C2060 C2044 1.368 . S
C2060 C2056 1.368 . S
C2060 C2059 1.523 . S
H2061 C2036 0.950 . S
H2062 C2038 0.950 . S
H2063 C2039 0.949 . S
H2064 C2041 0.950 . S
H2065 C2043 0.950 . S
C2066 C2067 1.349 . S
C2066 C2068 1.327 . S
C2066 H2091 0.950 . S
C2067 C2066 1.349 . S
C2067 C2083 1.349 . S
C2068 C2066 1.327 . S
C2068 C2087 1.429 . S
C2068 H2092 0.950 . S
C2069 C2086 1.574 . S
C2069 C2088 1.368 . S
C2069 H2093 0.949 . S
H2070 C2074 0.949 . S
C2071 C2072 1.349 . S
C2071 C2073 1.327 . S
C2071 H2094 0.950 . S
C2072 C2071 1.349 . S
C2072 C2084 1.349 . S
C2073 C2071 1.327 . S
C2073 C2089 1.429 . S
C2073 H2095 0.950 . S
C2074 H2070 0.949 . S
C2074 C2082 1.574 . S
C2074 C2090 1.368 . S
H2075 C2083 0.950 . S
H2076 C2081 0.950 . S
H2077 C2082 0.949 . S
H2078 C2084 0.950 . S
H2079 C2085 0.950 . S
H2080 C2086 0.949 . S
C2081 H2076 0.950 . S
C2081 C2083 1.327 . S
C2081 C2087 1.429 . S
C2082 C2074 1.574 . S
C2082 H2077 0.949 . S
C2082 C2088 1.368 . S
C2083 C2067 1.349 . S
C2083 H2075 0.950 . S
C2083 C2081 1.327 . S
C2084 C2072 1.349 . S
C2084 H2078 0.950 . S
C2084 C2085 1.327 . S
C2085 H2079 0.950 . S
C2085 C2084 1.327 . S
C2085 C2089 1.429 . S
C2086 C2069 1.574 . S
C2086 H2080 0.949 . S
C2086 C2090 1.368 . S
C2087 C2068 1.429 . S
C2087 C2081 1.429 . S
C2087 C2088 1.523 . S
C2088 C2069 1.368 . S
C2088 C2082 1.368 . S
C2088 C2087 1.523 . S
C2089 C2073 1.429 . S
C2089 C2085 1.429 . S
C2089 C2090 1.523 . S
C2090 C2074 1.368 . S
C2090 C2086 1.368 . S
C2090 C2089 1.523 . S
H2091 C2066 0.950 . S
H2092 C2068 0.950 . S
H2093 C2069 0.949 . S
H2094 C2071 0.950 . S
H2095 C2073 0.950 . S
C2096 C2097 1.349 . S
C2096 C2098 1.327 . S
C2096 H2121 0.950 . S
C2097 C2096 1.349 . S
C2097 C2113 1.349 . S
C2098 C2096 1.327 . S
C2098 C2117 1.429 . S
C2098 H2122 0.950 . S
C2099 C2116 1.574 . S
C2099 C2118 1.368 . S
C2099 H2123 0.949 . S
H2100 C2104 0.949 . S
C2101 C2102 1.349 . S
C2101 C2103 1.327 . S
C2101 H2124 0.950 . S
C2102 C2101 1.349 . S
C2102 C2114 1.349 . S
C2103 C2101 1.327 . S
C2103 C2119 1.429 . S
C2103 H2125 0.950 . S
C2104 H2100 0.949 . S
C2104 C2112 1.574 . S
C2104 C2120 1.368 . S
H2105 C2113 0.950 . S
H2106 C2111 0.950 . S
H2107 C2112 0.949 . S
H2108 C2114 0.950 . S
H2109 C2115 0.950 . S
H2110 C2116 0.949 . S
C2111 H2106 0.950 . S
C2111 C2113 1.327 . S
C2111 C2117 1.429 . S
C2112 C2104 1.574 . S
C2112 H2107 0.949 . S
C2112 C2118 1.368 . S
C2113 C2097 1.349 . S
C2113 H2105 0.950 . S
C2113 C2111 1.327 . S
C2114 C2102 1.349 . S
C2114 H2108 0.950 . S
C2114 C2115 1.327 . S
C2115 H2109 0.950 . S
C2115 C2114 1.327 . S
C2115 C2119 1.429 . S
C2116 C2099 1.574 . S
C2116 H2110 0.949 . S
C2116 C2120 1.368 . S
C2117 C2098 1.429 . S
C2117 C2111 1.429 . S
C2117 C2118 1.523 . S
C2118 C2099 1.368 . S
C2118 C2112 1.368 . S
C2118 C2117 1.523 . S
C2119 C2103 1.429 . S
C2119 C2115 1.429 . S
C2119 C2120 1.523 . S
C2120 C2104 1.368 . S
C2120 C2116 1.368 . S
C2120 C2119 1.523 . S
H2121 C2096 0.950 . S
H2122 C2098 0.950 . S
H2123 C2099 0.949 . S
H2124 C2101 0.950 . S
H2125 C2103 0.950 . S
C2126 C2127 1.349 . S
C2126 C2128 1.327 . S
C2126 H2151 0.950 . S
C2127 C2126 1.349 . S
C2127 C2143 1.349 . S
C2128 C2126 1.327 . S
C2128 C2147 1.429 . S
C2128 H2152 0.950 . S
C2129 C2146 1.574 . S
C2129 C2148 1.368 . S
C2129 H2153 0.949 . S
H2130 C2134 0.949 . S
C2131 C2132 1.349 . S
C2131 C2133 1.327 . S
C2131 H2154 0.950 . S
C2132 C2131 1.349 . S
C2132 C2144 1.349 . S
C2133 C2131 1.327 . S
C2133 C2149 1.429 . S
C2133 H2155 0.950 . S
C2134 H2130 0.949 . S
C2134 C2142 1.574 . S
C2134 C2150 1.368 . S
H2135 C2143 0.950 . S
H2136 C2141 0.950 . S
H2137 C2142 0.949 . S
H2138 C2144 0.950 . S
H2139 C2145 0.950 . S
H2140 C2146 0.949 . S
C2141 H2136 0.950 . S
C2141 C2143 1.327 . S
C2141 C2147 1.429 . S
C2142 C2134 1.574 . S
C2142 H2137 0.949 . S
C2142 C2148 1.368 . S
C2143 C2127 1.349 . S
C2143 H2135 0.950 . S
C2143 C2141 1.327 . S
C2144 C2132 1.349 . S
C2144 H2138 0.950 . S
C2144 C2145 1.327 . S
C2145 H2139 0.950 . S
C2145 C2144 1.327 . S
C2145 C2149 1.429 . S
C2146 C2129 1.574 . S
C2146 H2140 0.949 . S
C2146 C2150 1.368 . S
C2147 C2128 1.429 . S
C2147 C2141 1.429 . S
C2147 C2148 1.523 . S
C2148 C2129 1.368 . S
C2148 C2142 1.368 . S
C2148 C2147 1.523 . S
C2149 C2133 1.429 . S
C2149 C2145 1.429 . S
C2149 C2150 1.523 . S
C2150 C2134 1.368 . S
C2150 C2146 1.368 . S
C2150 C2149 1.523 . S
H2151 C2126 0.950 . S
H2152 C2128 0.950 . S
H2153 C2129 0.949 . S
H2154 C2131 0.950 . S
H2155 C2133 0.950 . S
C2156 C2157 1.349 . S
C2156 C2158 1.327 . S
C2156 H2181 0.950 . S
C2157 C2156 1.349 . S
C2157 C2173 1.349 . S
C2158 C2156 1.327 . S
C2158 C2177 1.429 . S
C2158 H2182 0.950 . S
C2159 C2176 1.574 . S
C2159 C2178 1.368 . S
C2159 H2183 0.949 . S
H2160 C2164 0.949 . S
C2161 C2162 1.349 . S
C2161 C2163 1.327 . S
C2161 H2184 0.950 . S
C2162 C2161 1.349 . S
C2162 C2174 1.349 . S
C2163 C2161 1.327 . S
C2163 C2179 1.429 . S
C2163 H2185 0.950 . S
C2164 H2160 0.949 . S
C2164 C2172 1.574 . S
C2164 C2180 1.368 . S
H2165 C2173 0.950 . S
H2166 C2171 0.950 . S
H2167 C2172 0.949 . S
H2168 C2174 0.950 . S
H2169 C2175 0.950 . S
H2170 C2176 0.949 . S
C2171 H2166 0.950 . S
C2171 C2173 1.327 . S
C2171 C2177 1.429 . S
C2172 C2164 1.574 . S
C2172 H2167 0.949 . S
C2172 C2178 1.368 . S
C2173 C2157 1.349 . S
C2173 H2165 0.950 . S
C2173 C2171 1.327 . S
C2174 C2162 1.349 . S
C2174 H2168 0.950 . S
C2174 C2175 1.327 . S
C2175 H2169 0.950 . S
C2175 C2174 1.327 . S
C2175 C2179 1.429 . S
C2176 C2159 1.574 . S
C2176 H2170 0.949 . S
C2176 C2180 1.368 . S
C2177 C2158 1.429 . S
C2177 C2171 1.429 . S
C2177 C2178 1.523 . S
C2178 C2159 1.368 . S
C2178 C2172 1.368 . S
C2178 C2177 1.523 . S
C2179 C2163 1.429 . S
C2179 C2175 1.429 . S
C2179 C2180 1.523 . S
C2180 C2164 1.368 . S
C2180 C2176 1.368 . S
C2180 C2179 1.523 . S
H2181 C2156 0.950 . S
H2182 C2158 0.950 . S
H2183 C2159 0.949 . S
H2184 C2161 0.950 . S
H2185 C2163 0.950 . S
C2186 C2187 1.349 . S
C2186 C2188 1.327 . S
C2186 H2211 0.950 . S
C2187 C2186 1.349 . S
C2187 C2203 1.349 . S
C2188 C2186 1.327 . S
C2188 C2207 1.429 . S
C2188 H2212 0.950 . S
C2189 C2206 1.574 . S
C2189 C2208 1.368 . S
C2189 H2213 0.949 . S
H2190 C2194 0.949 . S
C2191 C2192 1.349 . S
C2191 C2193 1.327 . S
C2191 H2214 0.950 . S
C2192 C2191 1.349 . S
C2192 C2204 1.349 . S
C2193 C2191 1.327 . S
C2193 C2209 1.429 . S
C2193 H2215 0.950 . S
C2194 H2190 0.949 . S
C2194 C2202 1.574 . S
C2194 C2210 1.368 . S
H2195 C2203 0.950 . S
H2196 C2201 0.950 . S
H2197 C2202 0.949 . S
H2198 C2204 0.950 . S
H2199 C2205 0.950 . S
H2200 C2206 0.949 . S
C2201 H2196 0.950 . S
C2201 C2203 1.327 . S
C2201 C2207 1.429 . S
C2202 C2194 1.574 . S
C2202 H2197 0.949 . S
C2202 C2208 1.368 . S
C2203 C2187 1.349 . S
C2203 H2195 0.950 . S
C2203 C2201 1.327 . S
C2204 C2192 1.349 . S
C2204 H2198 0.950 . S
C2204 C2205 1.327 . S
C2205 H2199 0.950 . S
C2205 C2204 1.327 . S
C2205 C2209 1.429 . S
C2206 C2189 1.574 . S
C2206 H2200 0.949 . S
C2206 C2210 1.368 . S
C2207 C2188 1.429 . S
C2207 C2201 1.429 . S
C2207 C2208 1.523 . S
C2208 C2189 1.368 . S
C2208 C2202 1.368 . S
C2208 C2207 1.523 . S
C2209 C2193 1.429 . S
C2209 C2205 1.429 . S
C2209 C2210 1.523 . S
C2210 C2194 1.368 . S
C2210 C2206 1.368 . S
C2210 C2209 1.523 . S
H2211 C2186 0.950 . S
H2212 C2188 0.950 . S
H2213 C2189 0.949 . S
H2214 C2191 0.950 . S
H2215 C2193 0.950 . S
C2216 C2217 1.349 . S
C2216 C2218 1.327 . S
C2216 H2241 0.950 . S
C2217 C2216 1.349 . S
C2217 C2233 1.349 . S
C2218 C2216 1.327 . S
C2218 C2237 1.429 . S
C2218 H2242 0.950 . S
C2219 C2236 1.574 . S
C2219 C2238 1.368 . S
C2219 H2243 0.949 . S
H2220 C2224 0.949 . S
C2221 C2222 1.349 . S
C2221 C2223 1.327 . S
C2221 H2244 0.950 . S
C2222 C2221 1.349 . S
C2222 C2234 1.349 . S
C2223 C2221 1.327 . S
C2223 C2239 1.429 . S
C2223 H2245 0.950 . S
C2224 H2220 0.949 . S
C2224 C2232 1.574 . S
C2224 C2240 1.368 . S
H2225 C2233 0.950 . S
H2226 C2231 0.950 . S
H2227 C2232 0.949 . S
H2228 C2234 0.950 . S
H2229 C2235 0.950 . S
H2230 C2236 0.949 . S
C2231 H2226 0.950 . S
C2231 C2233 1.327 . S
C2231 C2237 1.429 . S
C2232 C2224 1.574 . S
C2232 H2227 0.949 . S
C2232 C2238 1.368 . S
C2233 C2217 1.349 . S
C2233 H2225 0.950 . S
C2233 C2231 1.327 . S
C2234 C2222 1.349 . S
C2234 H2228 0.950 . S
C2234 C2235 1.327 . S
C2235 H2229 0.950 . S
C2235 C2234 1.327 . S
C2235 C2239 1.429 . S
C2236 C2219 1.574 . S
C2236 H2230 0.949 . S
C2236 C2240 1.368 . S
C2237 C2218 1.429 . S
C2237 C2231 1.429 . S
C2237 C2238 1.523 . S
C2238 C2219 1.368 . S
C2238 C2232 1.368 . S
C2238 C2237 1.523 . S
C2239 C2223 1.429 . S
C2239 C2235 1.429 . S
C2239 C2240 1.523 . S
C2240 C2224 1.368 . S
C2240 C2236 1.368 . S
C2240 C2239 1.523 . S
H2241 C2216 0.950 . S
H2242 C2218 0.950 . S
H2243 C2219 0.949 . S
H2244 C2221 0.950 . S
H2245 C2223 0.950 . S
C2246 C2247 1.349 . S
C2246 C2248 1.327 . S
C2246 H2271 0.950 . S
C2247 C2246 1.349 . S
C2247 C2263 1.349 . S
C2248 C2246 1.327 . S
C2248 C2267 1.429 . S
C2248 H2272 0.950 . S
C2249 C2266 1.574 . S
C2249 C2268 1.368 . S
C2249 H2273 0.949 . S
H2250 C2254 0.949 . S
C2251 C2252 1.349 . S
C2251 C2253 1.327 . S
C2251 H2274 0.950 . S
C2252 C2251 1.349 . S
C2252 C2264 1.349 . S
C2253 C2251 1.327 . S
C2253 C2269 1.429 . S
C2253 H2275 0.950 . S
C2254 H2250 0.949 . S
C2254 C2262 1.574 . S
C2254 C2270 1.368 . S
H2255 C2263 0.950 . S
H2256 C2261 0.950 . S
H2257 C2262 0.949 . S
H2258 C2264 0.950 . S
H2259 C2265 0.950 . S
H2260 C2266 0.949 . S
C2261 H2256 0.950 . S
C2261 C2263 1.327 . S
C2261 C2267 1.429 . S
C2262 C2254 1.574 . S
C2262 H2257 0.949 . S
C2262 C2268 1.368 . S
C2263 C2247 1.349 . S
C2263 H2255 0.950 . S
C2263 C2261 1.327 . S
C2264 C2252 1.349 . S
C2264 H2258 0.950 . S
C2264 C2265 1.327 . S
C2265 H2259 0.950 . S
C2265 C2264 1.327 . S
C2265 C2269 1.429 . S
C2266 C2249 1.574 . S
C2266 H2260 0.949 . S
C2266 C2270 1.368 . S
C2267 C2248 1.429 . S
C2267 C2261 1.429 . S
C2267 C2268 1.523 . S
C2268 C2249 1.368 . S
C2268 C2262 1.368 . S
C2268 C2267 1.523 . S
C2269 C2253 1.429 . S
C2269 C2265 1.429 . S
C2269 C2270 1.523 . S
C2270 C2254 1.368 . S
C2270 C2266 1.368 . S
C2270 C2269 1.523 . S
H2271 C2246 0.950 . S
H2272 C2248 0.950 . S
H2273 C2249 0.949 . S
H2274 C2251 0.950 . S
H2275 C2253 0.950 . S
C2276 C2277 1.349 . S
C2276 C2278 1.327 . S
C2276 H2301 0.950 . S
C2277 C2276 1.349 . S
C2277 C2293 1.349 . S
C2278 C2276 1.327 . S
C2278 C2297 1.429 . S
C2278 H2302 0.950 . S
C2279 C2296 1.574 . S
C2279 C2298 1.368 . S
C2279 H2303 0.949 . S
H2280 C2284 0.949 . S
C2281 C2282 1.349 . S
C2281 C2283 1.327 . S
C2281 H2304 0.950 . S
C2282 C2281 1.349 . S
C2282 C2294 1.349 . S
C2283 C2281 1.327 . S
C2283 C2299 1.429 . S
C2283 H2305 0.950 . S
C2284 H2280 0.949 . S
C2284 C2292 1.574 . S
C2284 C2300 1.368 . S
H2285 C2293 0.950 . S
H2286 C2291 0.950 . S
H2287 C2292 0.949 . S
H2288 C2294 0.950 . S
H2289 C2295 0.950 . S
H2290 C2296 0.949 . S
C2291 H2286 0.950 . S
C2291 C2293 1.327 . S
C2291 C2297 1.429 . S
C2292 C2284 1.574 . S
C2292 H2287 0.949 . S
C2292 C2298 1.368 . S
C2293 C2277 1.349 . S
C2293 H2285 0.950 . S
C2293 C2291 1.327 . S
C2294 C2282 1.349 . S
C2294 H2288 0.950 . S
C2294 C2295 1.327 . S
C2295 H2289 0.950 . S
C2295 C2294 1.327 . S
C2295 C2299 1.429 . S
C2296 C2279 1.574 . S
C2296 H2290 0.949 . S
C2296 C2300 1.368 . S
C2297 C2278 1.429 . S
C2297 C2291 1.429 . S
C2297 C2298 1.523 . S
C2298 C2279 1.368 . S
C2298 C2292 1.368 . S
C2298 C2297 1.523 . S
C2299 C2283 1.429 . S
C2299 C2295 1.429 . S
C2299 C2300 1.523 . S
C2300 C2284 1.368 . S
C2300 C2296 1.368 . S
C2300 C2299 1.523 . S
H2301 C2276 0.950 . S
H2302 C2278 0.950 . S
H2303 C2279 0.949 . S
H2304 C2281 0.950 . S
H2305 C2283 0.950 . S
C2306 C2307 1.349 . S
C2306 C2308 1.327 . S
C2306 H2331 0.950 . S
C2307 C2306 1.349 . S
C2307 C2323 1.349 . S
C2308 C2306 1.327 . S
C2308 C2327 1.429 . S
C2308 H2332 0.950 . S
C2309 C2326 1.574 . S
C2309 C2328 1.368 . S
C2309 H2333 0.949 . S
H2310 C2314 0.949 . S
C2311 C2312 1.349 . S
C2311 C2313 1.327 . S
C2311 H2334 0.950 . S
C2312 C2311 1.349 . S
C2312 C2324 1.349 . S
C2313 C2311 1.327 . S
C2313 C2329 1.429 . S
C2313 H2335 0.950 . S
C2314 H2310 0.949 . S
C2314 C2322 1.574 . S
C2314 C2330 1.368 . S
H2315 C2323 0.950 . S
H2316 C2321 0.950 . S
H2317 C2322 0.949 . S
H2318 C2324 0.950 . S
H2319 C2325 0.950 . S
H2320 C2326 0.949 . S
C2321 H2316 0.950 . S
C2321 C2323 1.327 . S
C2321 C2327 1.429 . S
C2322 C2314 1.574 . S
C2322 H2317 0.949 . S
C2322 C2328 1.368 . S
C2323 C2307 1.349 . S
C2323 H2315 0.950 . S
C2323 C2321 1.327 . S
C2324 C2312 1.349 . S
C2324 H2318 0.950 . S
C2324 C2325 1.327 . S
C2325 H2319 0.950 . S
C2325 C2324 1.327 . S
C2325 C2329 1.429 . S
C2326 C2309 1.574 . S
C2326 H2320 0.949 . S
C2326 C2330 1.368 . S
C2327 C2308 1.429 . S
C2327 C2321 1.429 . S
C2327 C2328 1.523 . S
C2328 C2309 1.368 . S
C2328 C2322 1.368 . S
C2328 C2327 1.523 . S
C2329 C2313 1.429 . S
C2329 C2325 1.429 . S
C2329 C2330 1.523 . S
C2330 C2314 1.368 . S
C2330 C2326 1.368 . S
C2330 C2329 1.523 . S
H2331 C2306 0.950 . S
H2332 C2308 0.950 . S
H2333 C2309 0.949 . S
H2334 C2311 0.950 . S
H2335 C2313 0.950 . S
C417 C160 1.158 . S
C422 C5 1.153 . S
C447 C387 1.158 . S
C452 C16 1.153 . S
C477 C192 1.158 . S
C482 C29 1.153 . S
C507 C413 1.158 . S
C512 C42 1.153 . S
C537 C114 1.158 . S
C542 C57 1.153 . S
C567 C68 1.153 . S
C572 C329 1.158 . S
C597 C81 1.153 . S
C602 C140 1.158 . S
C627 C361 1.157 . S
C632 C96 1.153 . S
C657 C56 1.158 . S
C662 C107 1.153 . S
C687 C277 1.158 . S
C692 C122 1.153 . S
C717 C88 1.158 . S
C722 C133 1.153 . S
C747 C303 1.158 . S
C752 C146 1.153 . S
C777 C161 1.153 . S
C782 C4 1.158 . S
C807 C172 1.153 . S
C812 C225 1.158 . S
C837 C36 1.158 . S
C842 C185 1.153 . S
C867 C198 1.153 . S
C872 C257 1.157 . S
C897 C368 1.158 . S
C902 C213 1.153 . S
C927 C179 1.158 . S
C932 C226 1.153 . S
C957 C400 1.158 . S
C962 C237 1.153 . S
C987 C250 1.153 . S
C992 C205 1.158 . S
C1017 C265 1.153 . S
C1022 C322 1.158 . S
C1047 C278 1.153 . S
C1052 C121 1.157 . S
C1077 C342 1.158 . S
C1082 C291 1.153 . S
C1107 C153 1.158 . S
C1112 C304 1.153 . S
C1137 C264 1.158 . S
C1142 C315 1.153 . S
C1167 C330 1.153 . S
C1172 C75 1.158 . S
C1197 C343 1.153 . S
C1202 C290 1.158 . S
C1227 C354 1.153 . S
C1232 C95 1.158 . S
C1257 C212 1.158 . S
C1262 C369 1.153 . S
C1287 C23 1.157 . S
C1292 C380 1.153 . S
C1317 C244 1.158 . S
C1322 C393 1.153 . S
C1347 C406 1.153 . S
C1352 C49 1.158 . S
C1377 C3 1.379 . S
C1382 C109 1.379 . S
C1407 C18 1.378 . S
C1412 C328 1.378 . S
C1437 C135 1.379 . S
C1442 C31 1.379 . S
C1467 C44 1.378 . S
C1472 C356 1.378 . S
C1497 C55 1.378 . S
C1502 C159 1.378 . S
C1527 C382 1.378 . S
C1532 C70 1.378 . S
C1557 C187 1.379 . S
C1562 C83 1.379 . S
C1587 C94 1.378 . S
C1592 C408 1.378 . S
C1617 C120 1.378 . S
C1622 C224 1.378 . S
C1647 C148 1.378 . S
C1652 C252 1.378 . S
C1677 C174 1.378 . S
C1682 C276 1.378 . S
C1707 C302 1.378 . S
C1712 C200 1.378 . S
C1737 C211 1.379 . S
C1742 C317 1.379 . S
C1767 C239 1.378 . S
C1772 C341 1.378 . S
C1797 C263 1.378 . S
C1802 C367 1.378 . S
C1827 C395 1.379 . S
C1832 C289 1.379 . S
C1857 C10 1.364 . S
C1862 C101 1.364 . S
C1887 C17 1.364 . S
C1892 C62 1.364 . S
C1917 C69 1.364 . S
C1922 C30 1.364 . S
C1947 C82 1.364 . S
C1952 C43 1.364 . S
C1977 C199 1.364 . S
C1982 C108 1.364 . S
C2007 C166 1.364 . S
C2012 C127 1.364 . S
C2037 C173 1.364 . S
C2042 C134 1.364 . S
C2067 C186 1.364 . S
C2072 C147 1.364 . S
C2097 C218 1.364 . S
C2102 C309 1.364 . S
C2127 C270 1.364 . S
C2132 C231 1.364 . S
C2157 C283 1.364 . S
C2162 C238 1.364 . S
C2187 C296 1.364 . S
C2192 C251 1.364 . S
C2217 C407 1.364 . S
C2222 C316 1.364 . S
C2247 C335 1.364 . S
C2252 C374 1.364 . S
C2277 C348 1.364 . S
C2282 C381 1.364 . S
C2307 C394 1.364 . S
C2312 C355 1.364 . S
