# Generated by pormake.
# Topology noo, (5)-cn, num edge types: 1
# Building blocks:
#     Node 0, Type 0, BuildingBlock: XOMCOT_clean_sbu_0, # of connection points: 5
#     Node 1, Type 0, BuildingBlock: XOMCOT_clean_sbu_0, # of connection points: 5
#     Node 2, Type 0, BuildingBlock: XOMCOT_clean_sbu_0, # of connection points: 5
#     Node 3, Type 0, BuildingBlock: XOMCOT_clean_sbu_0, # of connection points: 5
#     Node 4, Type 0, BuildingBlock: XOMCOT_clean_sbu_0, # of connection points: 5
#     Node 5, Type 0, BuildingBlock: XOMCOT_clean_sbu_0, # of connection points: 5
#     Node 6, Type 0, BuildingBlock: XOMCOT_clean_sbu_0, # of connection points: 5
#     Node 7, Type 0, BuildingBlock: XOMCOT_clean_sbu_0, # of connection points: 5
#     Edge 8, Type (0, 0), BuildingBlock: AJUNOK_clean_linker_0, # of connection points: 2
#     Edge 9, Type (0, 0), BuildingBlock: AJUNOK_clean_linker_0, # of connection points: 2
#     Edge 10, Type (0, 0), BuildingBlock: AJUNOK_clean_linker_0, # of connection points: 2
#     Edge 11, Type (0, 0), BuildingBlock: AJUNOK_clean_linker_0, # of connection points: 2
#     Edge 12, Type (0, 0), BuildingBlock: AJUNOK_clean_linker_0, # of connection points: 2
#     Edge 13, Type (0, 0), BuildingBlock: AJUNOK_clean_linker_0, # of connection points: 2
#     Edge 14, Type (0, 0), BuildingBlock: AJUNOK_clean_linker_0, # of connection points: 2
#     Edge 15, Type (0, 0), BuildingBlock: AJUNOK_clean_linker_0, # of connection points: 2
#     Edge 16, Type (0, 0), BuildingBlock: AJUNOK_clean_linker_0, # of connection points: 2
#     Edge 17, Type (0, 0), BuildingBlock: AJUNOK_clean_linker_0, # of connection points: 2
#     Edge 18, Type (0, 0), BuildingBlock: AJUNOK_clean_linker_0, # of connection points: 2
#     Edge 19, Type (0, 0), BuildingBlock: AJUNOK_clean_linker_0, # of connection points: 2
#     Edge 20, Type (0, 0), BuildingBlock: AJUNOK_clean_linker_0, # of connection points: 2
#     Edge 21, Type (0, 0), BuildingBlock: AJUNOK_clean_linker_0, # of connection points: 2
#     Edge 22, Type (0, 0), BuildingBlock: AJUNOK_clean_linker_0, # of connection points: 2
#     Edge 23, Type (0, 0), BuildingBlock: AJUNOK_clean_linker_0, # of connection points: 2
#     Edge 24, Type (0, 0), BuildingBlock: AJUNOK_clean_linker_0, # of connection points: 2
#     Edge 25, Type (0, 0), BuildingBlock: AJUNOK_clean_linker_0, # of connection points: 2
#     Edge 26, Type (0, 0), BuildingBlock: AJUNOK_clean_linker_0, # of connection points: 2
#     Edge 27, Type (0, 0), BuildingBlock: AJUNOK_clean_linker_0, # of connection points: 2
# Relax obj value: 0.062
# Max RMSD: 0.103
# Mean RMSD: 0.103
data_MOF--net-noo--node1-XOMCOT_clean_sbu_0--edge1-AJUNOK_clean_linker_0
_symmetry_space_group_name_H-M    P1
_symmetry_Int_Tables_number       1
_symmetry_cell_setting            triclinic
loop_
_symmetry_equiv_pos_as_xyz
'x, y, z'
_cell_length_a     29.891794
_cell_length_b     29.871725
_cell_length_c     22.749885
_cell_angle_alpha  90.233791
_cell_angle_beta   89.656669
_cell_angle_gamma 89.946883
loop_
_atom_site_label
_atom_site_type_symbol
_atom_site_fract_x
_atom_site_fract_y
_atom_site_fract_z
_atom_type_partial_charge
Co0 Co 0.4429 0.2395 0.07775 0.0
C1 C 0.46639 0.14109 0.08367 0.0
C2 C 0.50793 0.17784 0.02389 0.0
C3 C 0.52298 0.13458 0.02541 0.0
N4 N 0.47242 0.18246 0.0604 0.0
N5 N 0.49708 0.11139 0.06299 0.0
H6 H 0.44136 0.13305 0.11643 0.0
H7 H 0.5232 0.20428 0.99867 0.0
C8 C 0.51361 0.31041 0.05012 0.0
O9 O 0.48307 0.34043 0.03766 0.0
N10 N 0.41475 0.29716 0.09563 0.0
C11 C 0.42366 0.32152 0.14425 0.0
C12 C 0.40146 0.36164 0.14138 0.0
C13 C 0.38681 0.32328 0.06365 0.0
N14 N 0.3784 0.36305 0.09073 0.0
C15 C 0.38037 0.22561 0.98595 0.0
C16 C 0.43886 0.23487 0.8925 0.0
C17 C 0.39739 0.21411 0.88311 0.0
C18 C 0.36725 0.21161 0.93012 0.0
C19 C 0.45088 0.24835 0.9495 0.0
N20 N 0.42264 0.24122 0.99608 0.0
H21 H 0.35683 0.22167 0.02159 0.0
H22 H 0.48394 0.26165 0.95609 0.0
H23 H 0.44613 0.31162 0.1789 0.0
H24 H 0.37464 0.31457 0.02048 0.0
O25 O 0.39175 0.20897 0.11217 0.0
O26 O 0.45172 0.22976 0.16114 0.0
O27 O 0.50222 0.27019 0.06205 0.0
C28 C 0.41219 0.21161 0.16222 0.0
H29 H 0.55127 0.12122 1.00109 0.0
H30 H 0.40258 0.3881 0.17401 0.0
H31 H 0.4628 0.23822 0.85686 0.0
H32 H 0.33426 0.19734 0.92424 0.0
Co33 Co 0.81292 0.44264 0.05896 0.0
C34 C 0.90364 0.47516 0.0963 0.0
C35 C 0.86562 0.5248 0.05053 0.0
C36 C 0.90793 0.54107 0.05909 0.0
N37 N 0.86242 0.48353 0.07409 0.0
N38 N 0.93194 0.50988 0.0875 0.0
H39 H 0.91401 0.44322 0.11385 0.0
H40 H 0.84041 0.54065 0.02396 0.0
C41 C 0.73347 0.50755 0.03386 0.0
O42 O 0.70775 0.47703 1.01 0.0
N43 N 0.76451 0.40101 0.04234 0.0
C44 C 0.76825 0.36597 1.00505 0.0
C45 C 0.72889 0.34236 1.00517 0.0
C46 C 0.7231 0.39721 0.0664 0.0
N47 N 0.70045 0.36204 0.04343 0.0
C48 C 0.87272 0.42378 0.96552 0.0
C49 C 0.81712 0.44391 0.87289 0.0
C50 C 0.85869 0.42353 0.86105 0.0
C51 C 0.88696 0.4146 0.90837 0.0
C52 C 0.80392 0.45231 0.93121 0.0
N53 N 0.83129 0.44123 0.97671 0.0
H54 H 0.89461 0.41506 1.00125 0.0
H55 H 0.77118 0.46592 0.93944 0.0
H56 H 0.79774 0.35799 0.97932 0.0
H57 H 0.70963 0.41986 0.09931 0.0
O58 O 0.84786 0.39228 0.08579 0.0
O59 O 0.80417 0.43392 0.14261 0.0
O60 O 0.7733 0.49783 0.05004 0.0
C61 C 0.83211 0.40053 0.13806 0.0
H62 H 0.92095 0.57238 0.04238 0.0
H63 H 0.72131 0.31348 0.9781 0.0
H64 H 0.79461 0.4525 0.83757 0.0
H65 H 0.91923 0.39881 0.90164 0.0
Co66 Co 0.60282 0.80902 0.0759 0.0
C67 C 0.56402 0.90123 0.08169 0.0
C68 C 0.5272 0.85399 0.13358 0.0
C69 C 0.50667 0.89514 0.13861 0.0
N70 N 0.56295 0.8577 0.09759 0.0
N71 N 0.52968 0.92476 0.10564 0.0
H72 H 0.58909 0.91555 0.05304 0.0
H73 H 0.51694 0.82341 0.15509 0.0
C74 C 0.53575 0.73604 0.03457 0.0
O75 O 0.56442 0.71537 0.99994 0.0
N76 N 0.64323 0.76009 0.05484 0.0
C77 C 0.68207 0.76513 0.02511 0.0
C78 C 0.70334 0.72453 0.02085 0.0
C79 C 0.64214 0.71613 0.06975 0.0
N80 N 0.67821 0.6936 0.04837 0.0
C81 C 0.64008 0.86237 0.98409 0.0
C82 C 0.58628 0.83568 0.89259 0.0
C83 C 0.62163 0.86549 0.88114 0.0
C84 C 0.64838 0.87877 0.92806 0.0
C85 C 0.57899 0.81979 0.95008 0.0
N86 N 0.6066 0.83221 0.99507 0.0
H87 H 0.66196 0.87376 0.01833 0.0
H88 H 0.55117 0.79777 0.9575 0.0
H89 H 0.69503 0.79634 1.00861 0.0
H90 H 0.61593 0.70109 0.09606 0.0
O91 O 0.65273 0.84142 0.10849 0.0
O92 O 0.61016 0.7955 0.15937 0.0
O93 O 0.54695 0.77191 0.06169 0.0
C94 C 0.6434 0.8237 0.15881 0.0
H95 H 0.47769 0.90279 0.16556 0.0
H96 H 0.73495 0.71811 0.99888 0.0
H97 H 0.56447 0.82479 0.85749 0.0
H98 H 0.67667 0.90086 0.92148 0.0
Co99 Co 0.23588 0.60629 0.0864 0.0
C100 C 0.14427 0.56562 0.09392 0.0
C101 C 0.19247 0.52929 0.14394 0.0
C102 C 0.15139 0.50881 0.15062 0.0
N103 N 0.18821 0.56458 0.10752 0.0
N104 N 0.12109 0.53186 0.11915 0.0
H105 H 0.12875 0.5909 0.06743 0.0
H106 H 0.22351 0.51896 0.16402 0.0
C107 C 0.2654 0.51616 0.04221 0.0
O108 O 0.22512 0.51108 0.02041 0.0
N109 N 0.28312 0.64829 0.06658 0.0
C110 C 0.2758 0.69007 0.04678 0.0
C111 C 0.31618 0.71097 0.03826 0.0
C112 C 0.32823 0.64419 0.06966 0.0
N113 N 0.34923 0.68231 0.0525 0.0
C114 C 0.17669 0.64009 0.99895 0.0
C115 C 0.22148 0.60836 0.90088 0.0
C116 C 0.1833 0.63497 0.89357 0.0
C117 C 0.16098 0.65095 0.94333 0.0
C118 C 0.23657 0.59869 0.95778 0.0
N119 N 0.21322 0.61309 1.00626 0.0
H120 H 0.15967 0.65468 0.03624 0.0
H121 H 0.26791 0.58119 0.96239 0.0
H122 H 0.24317 0.70456 0.0394 0.0
H123 H 0.34517 0.61456 0.08536 0.0
O124 O 0.20244 0.65418 0.12357 0.0
O125 O 0.25076 0.61094 0.1694 0.0
O126 O 0.2763 0.55372 0.06559 0.0
C127 C 0.2217 0.64342 0.17244 0.0
H128 H 0.14474 0.47885 0.17572 0.0
H129 H 0.32094 0.74484 0.02265 0.0
H130 H 0.24039 0.59668 0.86305 0.0
H131 H 0.13194 0.67245 0.93925 0.0
Co132 Co 0.94358 0.30924 0.43531 0.0
C133 C 0.98049 0.40201 0.4234 0.0
C134 C 1.02244 0.35277 0.38217 0.0
C135 C 0.04183 0.39423 0.37468 0.0
N136 N 0.98428 0.35744 0.41355 0.0
N137 N 1.01547 0.42511 0.40085 0.0
H138 H 0.95284 0.41763 0.44622 0.0
H139 H 0.0351 0.32147 0.36488 0.0
C140 C 1.01763 0.2428 0.42612 0.0
O141 O 1.00077 0.23047 0.37545 0.0
N142 N 0.90256 0.26125 0.45722 0.0
C143 C 0.863 0.26784 0.48471 0.0
C144 C 0.84233 0.22729 0.49315 0.0
C145 C 0.90503 0.21634 0.44858 0.0
N146 N 0.86878 0.19477 0.47087 0.0
C147 C 0.90789 0.3679 0.5234 0.0
C148 C 0.94818 0.32974 0.61991 0.0
C149 C 0.91656 0.36387 0.62843 0.0
C150 C 0.89689 0.38336 0.57941 0.0
C151 C 0.95799 0.31467 0.56269 0.0
N152 N 0.93769 0.33362 0.51504 0.0
H153 H 0.89083 0.38286 0.48684 0.0
H154 H 0.9806 0.28678 0.55757 0.0
H155 H 0.84936 0.30013 0.49667 0.0
H156 H 0.93227 0.19962 0.4262 0.0
O157 O 0.89466 0.34099 0.39939 0.0
O158 O 0.93854 0.29346 0.35228 0.0
O159 O 0.99758 0.27229 0.45762 0.0
C160 C 0.90551 0.32187 0.3502 0.0
H161 H 0.0723 0.40123 0.35049 0.0
H162 H 0.80939 0.22238 0.51204 0.0
H163 H 0.96376 0.3137 0.65718 0.0
H164 H 0.87233 0.40984 0.58444 0.0
Co165 Co 0.73504 0.9429 0.45443 0.0
C166 C 0.645 0.97818 0.42127 0.0
C167 C 0.68853 0.03043 0.45075 0.0
C168 C 0.6469 0.04844 0.44122 0.0
N169 N 0.68766 0.98621 0.43821 0.0
N170 N 0.61945 1.01561 0.42273 0.0
H171 H 0.63215 0.94532 0.41062 0.0
H172 H 0.71641 0.04846 0.46919 0.0
C173 C 0.80181 1.01453 0.43607 0.0
O174 O 0.80459 0.99873 0.38228 0.0
N175 N 0.78184 0.89983 0.4717 0.0
C176 C 0.77448 0.85826 0.49242 0.0
C177 C 0.81483 0.83654 0.49791 0.0
C178 C 0.82684 0.90306 0.46542 0.0
N179 N 0.84763 0.86465 0.48097 0.0
C180 C 0.67218 0.92128 0.54346 0.0
C181 C 0.72489 0.93992 0.63978 0.0
C182 C 0.6825 0.92058 0.64847 0.0
C183 C 0.656 0.91174 0.59949 0.0
C184 C 0.74022 0.94851 0.58238 0.0
N185 N 0.71387 0.93888 0.53515 0.0
H186 H 0.65138 0.91308 0.50642 0.0
H187 H 0.77365 0.96138 0.57588 0.0
H188 H 0.74187 0.84457 0.50254 0.0
H189 H 0.84406 0.93218 0.44871 0.0
O190 O 0.69918 0.89483 0.4217 0.0
O191 O 0.74634 0.93581 0.37044 0.0
O192 O 0.77692 0.99441 0.47369 0.0
C193 C 0.71712 0.90358 0.37109 0.0
H194 H 0.63689 0.08244 0.45136 0.0
H195 H 0.81979 0.80263 0.51321 0.0
H196 H 0.74649 0.94681 0.67677 0.0
H197 H 0.62309 0.897 0.60444 0.0
Co198 Co 0.10118 0.73481 0.4668 0.0
C199 C 0.07067 0.6442 0.4235 0.0
C200 C 1.01998 0.6803 0.47089 0.0
C201 C 1.00407 0.63833 0.45862 0.0
N202 N 0.06161 0.68464 0.44841 0.0
N203 N 0.03589 0.61527 0.42925 0.0
H204 H 0.10245 0.63554 0.40363 0.0
H205 H 1.00323 0.70464 0.49852 0.0
C206 C 0.03456 0.81281 0.49057 0.0
O207 O 0.06465 0.84034 0.51179 0.0
N208 N 0.1413 0.78427 0.48737 0.0
C209 C 0.16934 0.7838 0.53353 0.0
C210 C 0.19211 0.82341 0.53612 0.0
C211 C 0.1495 0.82405 0.46048 0.0
N212 N 0.18049 0.84889 0.48981 0.0
C213 C 0.12029 0.67436 0.55846 0.0
C214 C 0.09375 0.72726 0.65218 0.0
C215 C 0.1176 0.68756 0.66326 0.0
C216 C 0.12938 0.66032 0.61541 0.0
C217 C 0.08544 0.7403 0.59405 0.0
N218 N 0.10044 0.71471 0.5481 0.0
H219 H 0.13127 0.65352 0.52227 0.0
H220 H 0.06951 0.77206 0.58633 0.0
H221 H 0.17337 0.75653 0.56404 0.0
H222 H 0.13286 0.83469 0.42078 0.0
O223 O 0.1528 0.7014 0.43949 0.0
O224 O 0.11148 0.74536 0.38381 0.0
O225 O 0.04518 0.77274 0.47617 0.0
C226 C 0.14503 0.71766 0.38765 0.0
H227 H 0.97253 0.62476 0.47393 0.0
H228 H 0.2145 0.83283 0.57114 0.0
H229 H 0.08277 0.7487 0.68794 0.0
H230 H 0.14757 0.62933 0.6216 0.0
Co231 Co 0.31155 0.10268 0.45925 0.0
C232 C 0.40472 0.06879 0.43951 0.0
C233 C 0.35567 1.01904 0.41919 0.0
C234 C 0.39745 1.00118 0.4086 0.0
N235 N 0.36007 0.06115 0.44014 0.0
N236 N 0.42817 0.03263 0.42107 0.0
H237 H 0.4201 0.10015 0.45123 0.0
H238 H 0.32441 1.00253 0.41015 0.0
C239 C 0.24281 0.03078 0.44607 0.0
O240 O 0.2321 0.04905 0.39572 0.0
N241 N 0.26316 0.14463 0.47784 0.0
C242 C 0.26509 0.17702 0.51918 0.0
C243 C 0.22537 0.19988 0.52067 0.0
C244 C 0.22218 0.1495 0.45326 0.0
N245 N 0.19834 0.18336 0.47856 0.0
C246 C 0.36992 0.13128 0.55104 0.0
C247 C 0.31673 0.10667 0.64502 0.0
C248 C 0.35465 0.13336 0.6555 0.0
C249 C 0.38201 0.1442 0.60761 0.0
C250 C 0.30613 0.09354 0.58728 0.0
N251 N 0.33207 0.1069 0.54077 0.0
H252 H 0.38962 0.14424 0.51535 0.0
H253 H 0.27524 0.07572 0.57996 0.0
H254 H 0.29342 0.184 0.54694 0.0
H255 H 0.21037 0.12954 0.41685 0.0
O256 O 0.34601 0.15127 0.42755 0.0
O257 O 0.30078 0.10901 0.37502 0.0
O258 O 0.27226 0.04941 0.47867 0.0
C259 C 0.33038 0.14107 0.37633 0.0
H260 H 0.40468 0.96804 0.39157 0.0
H261 H 0.21706 0.22609 0.55176 0.0
H262 H 0.29403 0.09813 0.68048 0.0
H263 H 0.41174 0.16442 0.61337 0.0
C264 C 0.55575 1.00255 0.09308 0.0
C265 C 0.52033 0.97189 0.09825 0.0
C266 C 0.54771 0.04818 0.08362 0.0
C267 C 0.5039 0.06514 0.07883 0.0
H268 H 0.59004 0.99117 0.09636 0.0
H269 H 0.57612 0.07042 0.07956 0.0
S270 S 0.39935 0.99894 0.0874 0.0
N271 N 0.43956 0.96175 0.09697 0.0
N272 N 0.42465 0.04769 0.0794 0.0
C273 C 0.46809 0.03511 0.08487 0.0
C274 C 0.47625 0.98846 0.09444 0.0
C275 C 1.00722 0.52786 0.05019 0.0
C276 C 0.97975 0.51109 0.09537 0.0
C277 C 0.05327 0.53334 0.05801 0.0
C278 C 0.07396 0.52262 0.11154 0.0
H279 H 0.99284 0.53712 1.00839 0.0
H280 H 0.07283 0.54638 0.02173 0.0
S281 S 1.01666 0.47693 0.24366 0.0
N282 N 0.97626 0.4827 0.195 0.0
N283 N 0.06301 0.4938 0.21062 0.0
C284 C 0.047 0.50471 0.15681 0.0
C285 C 0.99988 0.49875 0.14849 0.0
C286 C 0.98607 0.50228 0.39651 0.0
C287 C 1.0224 0.47295 0.40335 0.0
C288 C 0.99146 0.54875 0.40188 0.0
C289 C 0.03329 0.568 0.41517 0.0
H290 H 0.95313 0.48913 0.3871 0.0
H291 H 0.9623 0.56985 0.39673 0.0
S292 S 0.13917 0.50546 0.43761 0.0
N293 N 0.10188 0.46623 0.42313 0.0
N294 N 0.11189 0.55348 0.43466 0.0
C295 C 0.07021 0.53903 0.42072 0.0
C296 C 0.06476 0.49157 0.41459 0.0
C297 C 0.54363 0.98395 0.43679 0.0
C298 C 0.57144 1.01879 0.41676 0.0
C299 C 0.49685 0.98835 0.43686 0.0
C300 C 0.47611 0.02784 0.41728 0.0
H301 H 0.55811 0.95369 0.45455 0.0
H302 H 0.47674 0.96126 0.45418 0.0
S303 S 0.53325 0.12624 0.35266 0.0
N304 N 0.5744 0.09221 0.3711 0.0
N305 N 0.48657 0.10053 0.37198 0.0
C306 C 0.50334 0.06217 0.39499 0.0
C307 C 0.55093 0.05762 0.39453 0.0
C308 C 0.33843 0.48189 0.07285 0.0
C309 C 0.29625 0.47684 0.04641 0.0
C310 C 0.36569 0.44477 0.08477 0.0
C311 C 0.35221 0.40081 0.07076 0.0
H312 H 0.35008 0.51469 0.08621 0.0
H313 H 0.39737 0.4505 0.10632 0.0
S314 S 0.24652 0.36894 0.99725 0.0
N315 N 0.24364 0.42398 1.00312 0.0
N316 N 0.29489 0.35452 0.02629 0.0
C317 C 0.3112 0.39529 0.0418 0.0
C318 C 0.28326 0.43315 0.02954 0.0
C319 C 0.57471 0.36857 0.04465 0.0
C320 C 0.56192 0.32334 0.05126 0.0
C321 C 0.62 0.38151 0.04523 0.0
C322 C 0.65424 0.3497 0.05182 0.0
H323 H 0.54961 0.39426 0.03845 0.0
H324 H 0.6284 0.41635 0.03824 0.0
S325 S 0.63971 0.22791 0.07515 0.0
N326 N 0.58826 0.24724 0.06842 0.0
N327 N 0.67278 0.27182 0.06828 0.0
C328 C 0.64212 0.30478 0.06001 0.0
C329 C 0.59619 0.29155 0.06007 0.0
C330 C 0.73334 0.63343 0.06347 0.0
C331 C 0.68913 0.64655 0.0517 0.0
C332 C 0.74684 0.58855 0.05898 0.0
C333 C 0.71699 0.55466 0.04113 0.0
H334 H 0.75795 0.65837 0.07547 0.0
H335 H 0.78132 0.58075 0.06865 0.0
S336 S 0.59644 0.57142 1.00808 0.0
N337 N 0.6148 0.62212 0.02417 0.0
N338 N 0.63991 0.53767 0.01473 0.0
C339 C 0.67212 0.56724 0.03088 0.0
C340 C 0.65827 0.61311 0.03642 0.0
C341 C 0.41078 0.73583 0.06881 0.0
C342 C 0.39647 0.69294 0.05142 0.0
C343 C 0.45564 0.74897 0.06357 0.0
C344 C 0.48848 0.72002 0.04002 0.0
H345 H 0.38688 0.75968 0.08645 0.0
H346 H 0.46435 0.78259 0.0773 0.0
S347 S 0.46856 0.60347 0.98875 0.0
N348 N 0.41872 0.62108 1.01057 0.0
N349 N 0.50324 0.64561 1.00028 0.0
C350 C 0.47474 0.67666 0.02306 0.0
C351 C 0.42882 0.66312 0.02903 0.0
C352 C 0.84944 0.08015 0.40614 0.0
C353 C 0.82369 0.05839 0.44981 0.0
C354 C 0.86596 0.12379 0.41433 0.0
C355 C 0.85729 0.14777 0.46641 0.0
H356 H 0.85581 0.06397 0.36423 0.0
H357 H 0.88387 0.13963 0.37853 0.0
S358 S 0.79716 0.10458 0.59774 0.0
N359 N 0.79427 0.06321 0.54956 0.0
N360 N 0.82541 0.14492 0.56484 0.0
C361 C 0.83378 0.12569 0.51169 0.0
C362 C 0.81706 0.08114 0.50349 0.0
C363 C 0.97146 0.86726 0.51191 0.0
C364 C 0.98692 0.82757 0.48455 0.0
C365 C 0.92618 0.88037 0.50876 0.0
C366 C 0.8947 0.85411 0.47859 0.0
H367 H 0.99424 0.88791 0.537 0.0
H368 H 0.91536 0.91035 0.5317 0.0
S369 S 0.91797 0.75088 0.39306 0.0
N370 N 0.9669 0.76504 0.42071 0.0
N371 N 0.88226 0.78908 0.41703 0.0
C372 C 0.90981 0.8155 0.44939 0.0
C373 C 0.95574 0.80241 0.45177 0.0
C374 C 0.18482 0.96955 0.43837 0.0
C375 C 0.22632 0.98476 0.45986 0.0
C376 C 0.17016 0.9252 0.44758 0.0
C377 C 0.19689 0.8938 0.47741 0.0
H378 H 0.16327 0.99225 0.41462 0.0
H379 H 0.13744 0.91566 0.43179 0.0
S380 S 0.31116 0.91535 0.53563 0.0
N381 N 0.29464 0.96423 0.51032 0.0
N382 N 0.26947 0.88064 0.52262 0.0
C383 C 0.23931 0.90836 0.49702 0.0
C384 C 0.25335 0.95379 0.48962 0.0
C385 C 0.07745 0.18345 0.42922 0.0
C386 C 0.06329 0.22741 0.44209 0.0
C387 C 0.12149 0.16927 0.44097 0.0
C388 C 0.15346 0.19879 0.46481 0.0
H389 H 0.05417 0.15969 0.41038 0.0
H390 H 0.13036 0.1348 0.4318 0.0
S391 S 0.13442 0.31953 0.49824 0.0
N392 N 0.08521 0.30108 0.47655 0.0
N393 N 0.16821 0.27588 0.4947 0.0
C394 C 0.13985 0.24344 0.47573 0.0
C395 C 0.09478 0.25735 0.4654 0.0
C396 C 0.3522 0.16848 0.21514 0.0
C397 C 0.39134 0.19475 0.21729 0.0
C398 C 0.33203 0.15189 0.26664 0.0
C399 C 0.34992 0.16136 0.32236 0.0
H400 H 0.33724 0.16015 0.17325 0.0
H401 H 0.30245 0.13121 0.26266 0.0
S402 S 0.45155 0.22949 0.35213 0.0
N403 N 0.44684 0.22987 0.27994 0.0
N404 N 0.40914 0.19933 0.37636 0.0
C405 C 0.38877 0.18815 0.32507 0.0
C406 C 0.40943 0.20462 0.27269 0.0
C407 C 0.83017 0.38562 0.24619 0.0
C408 C 0.84815 0.37572 0.19041 0.0
C409 C 0.8477 0.36627 0.29714 0.0
C410 C 0.88404 0.3362 0.29462 0.0
H411 H 0.80304 0.40946 0.25088 0.0
H412 H 0.83335 0.37613 0.33907 0.0
S413 S 0.9416 0.29678 0.15908 0.0
N414 N 0.90301 0.33181 0.13538 0.0
N415 N 0.93595 0.29568 0.23129 0.0
C416 C 0.90121 0.32452 0.23899 0.0
C417 C 0.8833 0.34424 0.18691 0.0
C418 C 0.66565 0.85014 0.31966 0.0
C419 C 0.70226 0.87986 0.31699 0.0
C420 C 0.64806 0.83028 0.26869 0.0
C421 C 0.66639 0.83932 0.21295 0.0
H422 H 0.64941 0.84313 0.36131 0.0
H423 H 0.61886 0.80907 0.27288 0.0
S424 S 0.7655 0.9109 0.18242 0.0
N425 N 0.75832 0.91453 0.25427 0.0
N426 N 0.72567 0.87726 0.15871 0.0
C427 C 0.70436 0.8673 0.20997 0.0
C428 C 0.72217 0.88756 0.26186 0.0
C429 C 0.16055 0.72033 0.27938 0.0
C430 C 0.16966 0.7015 0.33459 0.0
C431 C 0.17911 0.70237 0.22763 0.0
C432 C 0.20762 0.6648 0.22875 0.0
H433 H 0.13787 0.74847 0.27577 0.0
H434 H 0.16998 0.71748 0.18618 0.0
S435 S 0.24382 0.60396 0.36219 0.0
N436 N 0.21072 0.64399 0.38743 0.0
N437 N 0.24545 0.61037 0.29016 0.0
C438 C 0.21842 0.64661 0.2838 0.0
C439 C 0.19948 0.66491 0.33666 0.0
C440 C 0.63687 0.85015 0.77423 0.0
C441 C 0.63292 0.88117 0.82068 0.0
C442 C 0.65295 0.86324 0.71876 0.0
C443 C 0.66603 0.90773 0.70777 0.0
H444 H 0.62886 0.81521 0.78128 0.0
H445 H 0.656 0.83815 0.68444 0.0
S446 S 0.65741 1.00291 0.812 0.0
N447 N 0.63962 0.95936 0.85002 0.0
N448 N 0.67084 0.98339 0.74619 0.0
C449 C 0.66109 0.9393 0.7531 0.0
C450 C 0.64423 0.92618 0.80936 0.0
C451 C 0.13021 0.63042 0.74253 0.0
C452 C 0.13279 0.67525 0.72343 0.0
C453 C 0.14751 0.61729 0.79709 0.0
C454 C 0.1677 0.64855 0.83468 0.0
H455 H 0.11464 0.60522 0.71509 0.0
H456 H 0.14453 0.58261 0.81033 0.0
S457 S 0.18515 0.76917 0.80534 0.0
N458 N 0.15932 0.75034 0.74624 0.0
N459 N 0.19031 0.72571 0.84942 0.0
C460 C 0.17053 0.69331 0.81652 0.0
C461 C 0.15339 0.70667 0.76082 0.0
C462 C 0.37734 0.19847 0.71921 0.0
C463 C 0.36448 0.15309 0.71456 0.0
C464 C 0.38826 0.21792 0.77356 0.0
C465 C 0.38618 0.19301 0.82567 0.0
H466 H 0.37874 0.21936 0.68045 0.0
H467 H 0.39785 0.25288 0.77491 0.0
S468 S 0.35691 0.07266 0.83803 0.0
N469 N 0.35223 0.08349 0.7672 0.0
N470 N 0.37182 0.12028 0.8694 0.0
C471 C 0.37342 0.1477 0.82191 0.0
C472 C 0.36268 0.12774 0.76647 0.0
C473 C 0.93124 0.40043 0.72569 0.0
C474 C 0.90182 0.37794 0.68793 0.0
C475 C 0.91671 0.4161 0.78089 0.0
C476 C 0.87231 0.40945 0.80053 0.0
H477 H 0.96548 0.40655 0.71207 0.0
H478 H 0.94044 0.43367 0.80837 0.0
S479 S 0.78336 0.34948 0.71864 0.0
N480 N 0.82701 0.34855 0.67381 0.0
N481 N 0.79991 0.37649 0.77814 0.0
C482 C 0.84283 0.38641 0.76307 0.0
C483 C 0.85755 0.37095 0.70672 0.0
loop_
_geom_bond_atom_site_label_1
_geom_bond_atom_site_label_2
_geom_bond_distance
_geom_bond_site_symmetry_2
_ccdc_geom_bond_type
Co0 N4 2.148 . S
Co0 N10 2.128 . S
Co0 N20 2.194 1_554 S
Co0 O25 2.351 . S
Co0 O26 2.155 . S
Co0 O27 2.096 . S
C1 N4 1.301 . S
C1 N5 1.328 . S
C1 H6 0.930 . S
C2 C3 1.333 . S
C2 N4 1.317 . S
C2 H7 0.930 . S
C3 C2 1.333 . S
C3 N5 1.350 . S
C3 H29 0.931 . S
N4 Co0 2.148 . S
N4 C1 1.301 . S
N4 C2 1.317 . S
N5 C1 1.328 . S
N5 C3 1.350 . S
H6 C1 0.930 . S
H7 C2 0.930 . S
C8 O9 1.224 1_554 S
C8 O27 1.247 . S
O9 C8 1.224 1_556 S
N10 Co0 2.128 . S
N10 C11 1.355 . S
N10 C13 1.311 . S
C11 N10 1.355 . S
C11 C12 1.363 . S
C11 H23 0.929 . S
C12 C11 1.363 . S
C12 N14 1.375 . S
C12 H30 0.931 . S
C13 N10 1.311 . S
C13 N14 1.347 . S
C13 H24 0.929 . S
N14 C12 1.375 . S
N14 C13 1.347 . S
C15 C18 1.365 . S
C15 N20 1.328 . S
C15 H21 0.914 1_556 S
C16 C17 1.362 . S
C16 C19 1.378 . S
C16 H31 0.929 . S
C17 C16 1.362 . S
C17 C18 1.366 . S
C18 C15 1.365 . S
C18 C17 1.366 . S
C18 H32 0.930 . S
C19 C16 1.378 . S
C19 N20 1.315 . S
C19 H22 0.930 . S
N20 Co0 2.194 1_556 S
N20 C15 1.328 . S
N20 C19 1.315 . S
H21 C15 0.914 1_554 S
H22 C19 0.930 . S
H23 C11 0.929 . S
H24 C13 0.929 . S
O25 Co0 2.351 . S
O25 C28 1.244 . S
O26 Co0 2.155 . S
O26 C28 1.240 . S
O27 Co0 2.096 . S
O27 C8 1.247 . S
C28 O25 1.244 . S
C28 O26 1.240 . S
H29 C3 0.931 . S
H30 C12 0.931 . S
H31 C16 0.929 . S
H32 C18 0.930 . S
Co33 N37 2.148 . S
Co33 N43 2.128 . S
Co33 N53 2.194 1_554 S
Co33 O58 2.351 . S
Co33 O59 2.155 . S
Co33 O60 2.096 . S
C34 N37 1.301 . S
C34 N38 1.328 . S
C34 H39 0.930 . S
C35 C36 1.333 . S
C35 N37 1.317 . S
C35 H40 0.930 . S
C36 C35 1.333 . S
C36 N38 1.350 . S
C36 H62 0.931 . S
N37 Co33 2.148 . S
N37 C34 1.301 . S
N37 C35 1.317 . S
N38 C34 1.328 . S
N38 C36 1.350 . S
H39 C34 0.930 . S
H40 C35 0.930 . S
C41 O42 1.224 1_554 S
C41 O60 1.247 . S
O42 C41 1.224 1_556 S
N43 Co33 2.128 . S
N43 C44 1.355 . S
N43 C46 1.311 . S
C44 N43 1.355 . S
C44 C45 1.363 . S
C44 H56 0.929 . S
C45 C44 1.363 . S
C45 N47 1.375 . S
C45 H63 0.931 . S
C46 N43 1.311 . S
C46 N47 1.347 . S
C46 H57 0.929 . S
N47 C45 1.375 . S
N47 C46 1.347 . S
C48 C51 1.365 . S
C48 N53 1.328 . S
C48 H54 0.914 1_556 S
C49 C50 1.362 . S
C49 C52 1.378 . S
C49 H64 0.929 . S
C50 C49 1.362 . S
C50 C51 1.366 . S
C51 C48 1.365 . S
C51 C50 1.366 . S
C51 H65 0.930 . S
C52 C49 1.378 . S
C52 N53 1.315 . S
C52 H55 0.930 . S
N53 Co33 2.194 1_556 S
N53 C48 1.328 . S
N53 C52 1.315 . S
H54 C48 0.914 1_554 S
H55 C52 0.930 . S
H56 C44 0.929 . S
H57 C46 0.929 . S
O58 Co33 2.351 . S
O58 C61 1.244 . S
O59 Co33 2.155 . S
O59 C61 1.240 . S
O60 Co33 2.096 . S
O60 C41 1.247 . S
C61 O58 1.244 . S
C61 O59 1.240 . S
H62 C36 0.931 . S
H63 C45 0.931 . S
H64 C49 0.929 . S
H65 C51 0.930 . S
Co66 N70 2.148 . S
Co66 N76 2.128 . S
Co66 N86 2.194 1_554 S
Co66 O91 2.351 . S
Co66 O92 2.155 . S
Co66 O93 2.096 . S
C67 N70 1.301 . S
C67 N71 1.328 . S
C67 H72 0.930 . S
C68 C69 1.333 . S
C68 N70 1.317 . S
C68 H73 0.930 . S
C69 C68 1.333 . S
C69 N71 1.350 . S
C69 H95 0.931 . S
N70 Co66 2.148 . S
N70 C67 1.301 . S
N70 C68 1.317 . S
N71 C67 1.328 . S
N71 C69 1.350 . S
H72 C67 0.930 . S
H73 C68 0.930 . S
C74 O75 1.224 1_554 S
C74 O93 1.247 . S
O75 C74 1.224 1_556 S
N76 Co66 2.128 . S
N76 C77 1.355 . S
N76 C79 1.311 . S
C77 N76 1.355 . S
C77 C78 1.363 . S
C77 H89 0.929 . S
C78 C77 1.363 . S
C78 N80 1.375 . S
C78 H96 0.931 . S
C79 N76 1.311 . S
C79 N80 1.347 . S
C79 H90 0.929 . S
N80 C78 1.375 . S
N80 C79 1.347 . S
C81 C84 1.365 . S
C81 N86 1.328 . S
C81 H87 0.914 1_556 S
C82 C83 1.362 . S
C82 C85 1.378 . S
C82 H97 0.929 . S
C83 C82 1.362 . S
C83 C84 1.366 . S
C84 C81 1.365 . S
C84 C83 1.366 . S
C84 H98 0.930 . S
C85 C82 1.378 . S
C85 N86 1.315 . S
C85 H88 0.930 . S
N86 Co66 2.194 1_556 S
N86 C81 1.328 . S
N86 C85 1.315 . S
H87 C81 0.914 1_554 S
H88 C85 0.930 . S
H89 C77 0.929 . S
H90 C79 0.929 . S
O91 Co66 2.351 . S
O91 C94 1.244 . S
O92 Co66 2.155 . S
O92 C94 1.240 . S
O93 Co66 2.096 . S
O93 C74 1.247 . S
C94 O91 1.244 . S
C94 O92 1.240 . S
H95 C69 0.931 . S
H96 C78 0.931 . S
H97 C82 0.929 . S
H98 C84 0.930 . S
Co99 N103 2.148 . S
Co99 N109 2.128 . S
Co99 N119 2.194 1_554 S
Co99 O124 2.351 . S
Co99 O125 2.155 . S
Co99 O126 2.096 . S
C100 N103 1.301 . S
C100 N104 1.328 . S
C100 H105 0.930 . S
C101 C102 1.333 . S
C101 N103 1.317 . S
C101 H106 0.930 . S
C102 C101 1.333 . S
C102 N104 1.350 . S
C102 H128 0.931 . S
N103 Co99 2.148 . S
N103 C100 1.301 . S
N103 C101 1.317 . S
N104 C100 1.328 . S
N104 C102 1.350 . S
H105 C100 0.930 . S
H106 C101 0.930 . S
C107 O108 1.224 1_554 S
C107 O126 1.247 . S
O108 C107 1.224 1_556 S
N109 Co99 2.128 . S
N109 C110 1.355 . S
N109 C112 1.311 . S
C110 N109 1.355 . S
C110 C111 1.363 . S
C110 H122 0.929 . S
C111 C110 1.363 . S
C111 N113 1.375 . S
C111 H129 0.931 . S
C112 N109 1.311 . S
C112 N113 1.347 . S
C112 H123 0.929 . S
N113 C111 1.375 . S
N113 C112 1.347 . S
C114 C117 1.365 . S
C114 N119 1.328 . S
C114 H120 0.914 1_556 S
C115 C116 1.362 . S
C115 C118 1.378 . S
C115 H130 0.929 . S
C116 C115 1.362 . S
C116 C117 1.366 . S
C117 C114 1.365 . S
C117 C116 1.366 . S
C117 H131 0.930 . S
C118 C115 1.378 . S
C118 N119 1.315 . S
C118 H121 0.930 . S
N119 Co99 2.194 1_556 S
N119 C114 1.328 . S
N119 C118 1.315 . S
H120 C114 0.914 1_554 S
H121 C118 0.930 . S
H122 C110 0.929 . S
H123 C112 0.929 . S
O124 Co99 2.351 . S
O124 C127 1.244 . S
O125 Co99 2.155 . S
O125 C127 1.240 . S
O126 Co99 2.096 . S
O126 C107 1.247 . S
C127 O124 1.244 . S
C127 O125 1.240 . S
H128 C102 0.931 . S
H129 C111 0.931 . S
H130 C115 0.929 . S
H131 C117 0.930 . S
Co132 N136 2.148 . S
Co132 N142 2.128 . S
Co132 N152 2.194 . S
Co132 O157 2.351 . S
Co132 O158 2.155 . S
Co132 O159 2.096 . S
C133 N136 1.301 . S
C133 N137 1.328 . S
C133 H138 0.930 . S
C134 C135 1.333 . S
C134 N136 1.317 1_455 S
C134 H139 0.930 . S
C135 C134 1.333 . S
C135 N137 1.350 1_455 S
C135 H161 0.931 . S
N136 Co132 2.148 . S
N136 C133 1.301 . S
N136 C134 1.317 1_655 S
N137 C133 1.328 . S
N137 C135 1.350 1_655 S
H138 C133 0.930 . S
H139 C134 0.930 . S
C140 O141 1.224 . S
C140 O159 1.247 . S
O141 C140 1.224 . S
N142 Co132 2.128 . S
N142 C143 1.355 . S
N142 C145 1.311 . S
C143 N142 1.355 . S
C143 C144 1.363 . S
C143 H155 0.929 . S
C144 C143 1.363 . S
C144 N146 1.375 . S
C144 H162 0.931 . S
C145 N142 1.311 . S
C145 N146 1.347 . S
C145 H156 0.929 . S
N146 C144 1.375 . S
N146 C145 1.347 . S
C147 C150 1.365 . S
C147 N152 1.328 . S
C147 H153 0.929 . S
C148 C149 1.362 . S
C148 C151 1.378 . S
C148 H163 0.929 . S
C149 C148 1.362 . S
C149 C150 1.366 . S
C150 C147 1.365 . S
C150 C149 1.366 . S
C150 H164 0.930 . S
C151 C148 1.378 . S
C151 N152 1.315 . S
C151 H154 0.930 . S
N152 Co132 2.194 . S
N152 C147 1.328 . S
N152 C151 1.315 . S
H153 C147 0.929 . S
H154 C151 0.930 . S
H155 C143 0.929 . S
H156 C145 0.929 . S
O157 Co132 2.351 . S
O157 C160 1.244 . S
O158 Co132 2.155 . S
O158 C160 1.240 . S
O159 Co132 2.096 . S
O159 C140 1.247 . S
C160 O157 1.244 . S
C160 O158 1.240 . S
H161 C135 0.931 . S
H162 C144 0.931 . S
H163 C148 0.929 . S
H164 C150 0.930 . S
Co165 N169 2.148 . S
Co165 N175 2.128 . S
Co165 N185 2.194 . S
Co165 O190 2.351 . S
Co165 O191 2.155 . S
Co165 O192 2.096 . S
C166 N169 1.301 . S
C166 N170 1.328 . S
C166 H171 0.930 . S
C167 C168 1.333 . S
C167 N169 1.317 1_545 S
C167 H172 0.930 . S
C168 C167 1.333 . S
C168 N170 1.350 1_545 S
C168 H194 0.931 . S
N169 Co165 2.148 . S
N169 C166 1.301 . S
N169 C167 1.317 1_565 S
N170 C166 1.328 . S
N170 C168 1.350 1_565 S
H171 C166 0.930 . S
H172 C167 0.930 . S
C173 O174 1.224 . S
C173 O192 1.247 . S
O174 C173 1.224 . S
N175 Co165 2.128 . S
N175 C176 1.355 . S
N175 C178 1.311 . S
C176 N175 1.355 . S
C176 C177 1.363 . S
C176 H188 0.929 . S
C177 C176 1.363 . S
C177 N179 1.375 . S
C177 H195 0.931 . S
C178 N175 1.311 . S
C178 N179 1.347 . S
C178 H189 0.929 . S
N179 C177 1.375 . S
N179 C178 1.347 . S
C180 C183 1.365 . S
C180 N185 1.328 . S
C180 H186 0.929 . S
C181 C182 1.362 . S
C181 C184 1.378 . S
C181 H196 0.929 . S
C182 C181 1.362 . S
C182 C183 1.366 . S
C183 C180 1.365 . S
C183 C182 1.366 . S
C183 H197 0.930 . S
C184 C181 1.378 . S
C184 N185 1.315 . S
C184 H187 0.930 . S
N185 Co165 2.194 . S
N185 C180 1.328 . S
N185 C184 1.315 . S
H186 C180 0.929 . S
H187 C184 0.930 . S
H188 C176 0.929 . S
H189 C178 0.929 . S
O190 Co165 2.351 . S
O190 C193 1.244 . S
O191 Co165 2.155 . S
O191 C193 1.240 . S
O192 Co165 2.096 . S
O192 C173 1.247 . S
C193 O190 1.244 . S
C193 O191 1.240 . S
H194 C168 0.931 . S
H195 C177 0.931 . S
H196 C181 0.929 . S
H197 C183 0.930 . S
Co198 N202 2.148 . S
Co198 N208 2.128 . S
Co198 N218 2.194 . S
Co198 O223 2.351 . S
Co198 O224 2.155 . S
Co198 O225 2.096 . S
C199 N202 1.301 . S
C199 N203 1.328 . S
C199 H204 0.930 . S
C200 C201 1.333 . S
C200 N202 1.317 1_655 S
C200 H205 0.930 . S
C201 C200 1.333 . S
C201 N203 1.350 1_655 S
C201 H227 0.931 . S
N202 Co198 2.148 . S
N202 C199 1.301 . S
N202 C200 1.317 1_455 S
N203 C199 1.328 . S
N203 C201 1.350 1_455 S
H204 C199 0.930 . S
H205 C200 0.930 . S
C206 O207 1.224 . S
C206 O225 1.247 . S
O207 C206 1.224 . S
N208 Co198 2.128 . S
N208 C209 1.355 . S
N208 C211 1.311 . S
C209 N208 1.355 . S
C209 C210 1.363 . S
C209 H221 0.929 . S
C210 C209 1.363 . S
C210 N212 1.375 . S
C210 H228 0.931 . S
C211 N208 1.311 . S
C211 N212 1.347 . S
C211 H222 0.929 . S
N212 C210 1.375 . S
N212 C211 1.347 . S
C213 C216 1.365 . S
C213 N218 1.328 . S
C213 H219 0.929 . S
C214 C215 1.362 . S
C214 C217 1.378 . S
C214 H229 0.929 . S
C215 C214 1.362 . S
C215 C216 1.366 . S
C216 C213 1.365 . S
C216 C215 1.366 . S
C216 H230 0.930 . S
C217 C214 1.378 . S
C217 N218 1.315 . S
C217 H220 0.930 . S
N218 Co198 2.194 . S
N218 C213 1.328 . S
N218 C217 1.315 . S
H219 C213 0.929 . S
H220 C217 0.930 . S
H221 C209 0.929 . S
H222 C211 0.929 . S
O223 Co198 2.351 . S
O223 C226 1.244 . S
O224 Co198 2.155 . S
O224 C226 1.240 . S
O225 Co198 2.096 . S
O225 C206 1.247 . S
C226 O223 1.244 . S
C226 O224 1.240 . S
H227 C201 0.931 . S
H228 C210 0.931 . S
H229 C214 0.929 . S
H230 C216 0.930 . S
Co231 N235 2.148 . S
Co231 N241 2.128 . S
Co231 N251 2.194 . S
Co231 O256 2.351 . S
Co231 O257 2.155 . S
Co231 O258 2.096 . S
C232 N235 1.301 . S
C232 N236 1.328 . S
C232 H237 0.930 . S
C233 C234 1.333 . S
C233 N235 1.317 1_565 S
C233 H238 0.930 . S
C234 C233 1.333 . S
C234 N236 1.350 1_565 S
C234 H260 0.931 . S
N235 Co231 2.148 . S
N235 C232 1.301 . S
N235 C233 1.317 1_545 S
N236 C232 1.328 . S
N236 C234 1.350 1_545 S
H237 C232 0.930 . S
H238 C233 0.930 . S
C239 O240 1.224 . S
C239 O258 1.247 . S
O240 C239 1.224 . S
N241 Co231 2.128 . S
N241 C242 1.355 . S
N241 C244 1.311 . S
C242 N241 1.355 . S
C242 C243 1.363 . S
C242 H254 0.929 . S
C243 C242 1.363 . S
C243 N245 1.375 . S
C243 H261 0.931 . S
C244 N241 1.311 . S
C244 N245 1.347 . S
C244 H255 0.929 . S
N245 C243 1.375 . S
N245 C244 1.347 . S
C246 C249 1.365 . S
C246 N251 1.328 . S
C246 H252 0.929 . S
C247 C248 1.362 . S
C247 C250 1.378 . S
C247 H262 0.929 . S
C248 C247 1.362 . S
C248 C249 1.366 . S
C249 C246 1.365 . S
C249 C248 1.366 . S
C249 H263 0.930 . S
C250 C247 1.378 . S
C250 N251 1.315 . S
C250 H253 0.930 . S
N251 Co231 2.194 . S
N251 C246 1.328 . S
N251 C250 1.315 . S
H252 C246 0.929 . S
H253 C250 0.930 . S
H254 C242 0.929 . S
H255 C244 0.929 . S
O256 Co231 2.351 . S
O256 C259 1.244 . S
O257 Co231 2.155 . S
O257 C259 1.240 . S
O258 Co231 2.096 . S
O258 C239 1.247 . S
C259 O256 1.244 . S
C259 O257 1.240 . S
H260 C234 0.931 . S
H261 C243 0.931 . S
H262 C247 0.929 . S
H263 C249 0.930 . S
C264 C265 1.369 . S
C264 C266 1.419 1_565 S
C264 H268 0.930 . S
C265 C264 1.369 . S
C265 C274 1.429 . S
C266 C264 1.419 1_545 S
C266 C267 1.363 . S
C266 H269 0.929 . S
C267 C266 1.363 . S
C267 C273 1.428 . S
H268 C264 0.930 . S
H269 C266 0.929 . S
S270 N271 1.613 1_556 S
S270 N272 1.610 1_566 S
N271 S270 1.613 1_554 S
N271 C274 1.350 . S
N272 S270 1.610 1_544 S
N272 C273 1.351 . S
C273 C267 1.428 . S
C273 N272 1.351 . S
C273 C274 1.434 1_545 S
C274 C265 1.429 . S
C274 N271 1.350 . S
C274 C273 1.434 1_565 S
C275 C276 1.369 . S
C275 C277 1.419 1_655 S
C275 H279 0.930 . S
C276 C275 1.369 . S
C276 C285 1.429 . S
C277 C275 1.419 1_455 S
C277 C278 1.363 . S
C277 H280 0.929 . S
C278 C277 1.363 . S
C278 C284 1.428 . S
H279 C275 0.930 . S
H280 C277 0.929 . S
S281 N282 1.613 1_455 S
S281 N283 1.610 . S
N282 S281 1.613 1_655 S
N282 C285 1.350 . S
N283 S281 1.610 . S
N283 C284 1.351 . S
C284 C278 1.428 . S
C284 N283 1.351 . S
C284 C285 1.434 1_455 S
C285 C276 1.429 . S
C285 N282 1.350 . S
C285 C284 1.434 1_655 S
C286 C287 1.369 . S
C286 C288 1.419 . S
C286 H290 0.930 . S
C287 C286 1.369 . S
C287 C296 1.429 1_655 S
C288 C286 1.419 . S
C288 C289 1.363 1_655 S
C288 H291 0.929 . S
C289 C288 1.363 1_455 S
C289 C295 1.428 . S
H290 C286 0.930 . S
H291 C288 0.929 . S
S292 N293 1.613 . S
S292 N294 1.610 . S
N293 S292 1.613 . S
N293 C296 1.350 . S
N294 S292 1.610 . S
N294 C295 1.351 . S
C295 C289 1.428 . S
C295 N294 1.351 . S
C295 C296 1.434 . S
C296 C287 1.429 1_455 S
C296 N293 1.350 . S
C296 C295 1.434 . S
C297 C298 1.369 . S
C297 C299 1.419 . S
C297 H301 0.930 . S
C298 C297 1.369 . S
C298 C307 1.429 1_565 S
C299 C297 1.419 . S
C299 C300 1.363 1_565 S
C299 H302 0.929 . S
C300 C299 1.363 1_545 S
C300 C306 1.428 . S
H301 C297 0.930 . S
H302 C299 0.929 . S
S303 N304 1.613 . S
S303 N305 1.610 . S
N304 S303 1.613 . S
N304 C307 1.350 . S
N305 S303 1.610 . S
N305 C306 1.351 . S
C306 C300 1.428 . S
C306 N305 1.351 . S
C306 C307 1.434 . S
C307 C298 1.429 1_545 S
C307 N304 1.350 . S
C307 C306 1.434 . S
C308 C309 1.369 . S
C308 C310 1.419 . S
C308 H312 0.930 . S
C309 C308 1.369 . S
C309 C318 1.429 1_554 S
C310 C308 1.419 . S
C310 C311 1.363 . S
C310 H313 0.929 . S
C311 C310 1.363 . S
C311 C317 1.428 1_554 S
H312 C308 0.930 . S
H313 C310 0.929 . S
S314 N315 1.613 . S
S314 N316 1.610 . S
N315 S314 1.613 . S
N315 C318 1.350 . S
N316 S314 1.610 . S
N316 C317 1.351 . S
C317 C311 1.428 1_556 S
C317 N316 1.351 . S
C317 C318 1.434 . S
C318 C309 1.429 1_556 S
C318 N315 1.350 . S
C318 C317 1.434 . S
C319 C320 1.369 1_556 S
C319 C321 1.419 . S
C319 H323 0.930 . S
C320 C319 1.369 1_554 S
C320 C329 1.429 . S
C321 C319 1.419 . S
C321 C322 1.363 1_556 S
C321 H324 0.929 . S
C322 C321 1.363 1_554 S
C322 C328 1.428 . S
H323 C319 0.930 . S
H324 C321 0.929 . S
S325 N326 1.613 . S
S325 N327 1.610 . S
N326 S325 1.613 . S
N326 C329 1.350 . S
N327 S325 1.610 . S
N327 C328 1.351 . S
C328 C322 1.428 . S
C328 N327 1.351 . S
C328 C329 1.434 . S
C329 C320 1.429 . S
C329 N326 1.350 . S
C329 C328 1.434 . S
C330 C331 1.369 . S
C330 C332 1.419 . S
C330 H334 0.930 . S
C331 C330 1.369 . S
C331 C340 1.429 1_554 S
C332 C330 1.419 . S
C332 C333 1.363 . S
C332 H335 0.929 . S
C333 C332 1.363 . S
C333 C339 1.428 1_554 S
H334 C330 0.930 . S
H335 C332 0.929 . S
S336 N337 1.613 . S
S336 N338 1.610 . S
N337 S336 1.613 . S
N337 C340 1.350 . S
N338 S336 1.610 . S
N338 C339 1.351 . S
C339 C333 1.428 1_556 S
C339 N338 1.351 . S
C339 C340 1.434 . S
C340 C331 1.429 1_556 S
C340 N337 1.350 . S
C340 C339 1.434 . S
C341 C342 1.369 . S
C341 C343 1.419 . S
C341 H345 0.930 . S
C342 C341 1.369 . S
C342 C351 1.429 1_554 S
C343 C341 1.419 . S
C343 C344 1.363 . S
C343 H346 0.929 . S
C344 C343 1.363 . S
C344 C350 1.428 1_554 S
H345 C341 0.930 . S
H346 C343 0.929 . S
S347 N348 1.613 . S
S347 N349 1.610 . S
N348 S347 1.613 . S
N348 C351 1.350 . S
N349 S347 1.610 . S
N349 C350 1.351 . S
C350 C344 1.428 1_556 S
C350 N349 1.351 . S
C350 C351 1.434 . S
C351 C342 1.429 1_556 S
C351 N348 1.350 . S
C351 C350 1.434 . S
C352 C353 1.369 . S
C352 C354 1.419 . S
C352 H356 0.930 . S
C353 C352 1.369 . S
C353 C362 1.429 . S
C354 C352 1.419 . S
C354 C355 1.363 . S
C354 H357 0.929 . S
C355 C354 1.363 . S
C355 C361 1.428 . S
H356 C352 0.930 . S
H357 C354 0.929 . S
S358 N359 1.613 . S
S358 N360 1.610 . S
N359 S358 1.613 . S
N359 C362 1.350 . S
N360 S358 1.610 . S
N360 C361 1.351 . S
C361 C355 1.428 . S
C361 N360 1.351 . S
C361 C362 1.434 . S
C362 C353 1.429 . S
C362 N359 1.350 . S
C362 C361 1.434 . S
C363 C364 1.369 . S
C363 C365 1.419 . S
C363 H367 0.930 . S
C364 C363 1.369 . S
C364 C373 1.429 . S
C365 C363 1.419 . S
C365 C366 1.363 . S
C365 H368 0.929 . S
C366 C365 1.363 . S
C366 C372 1.428 . S
H367 C363 0.930 . S
H368 C365 0.929 . S
S369 N370 1.613 . S
S369 N371 1.610 . S
N370 S369 1.613 . S
N370 C373 1.350 . S
N371 S369 1.610 . S
N371 C372 1.351 . S
C372 C366 1.428 . S
C372 N371 1.351 . S
C372 C373 1.434 . S
C373 C364 1.429 . S
C373 N370 1.350 . S
C373 C372 1.434 . S
C374 C375 1.369 . S
C374 C376 1.419 . S
C374 H378 0.930 . S
C375 C374 1.369 . S
C375 C384 1.429 . S
C376 C374 1.419 . S
C376 C377 1.363 . S
C376 H379 0.929 . S
C377 C376 1.363 . S
C377 C383 1.428 . S
H378 C374 0.930 . S
H379 C376 0.929 . S
S380 N381 1.613 . S
S380 N382 1.610 . S
N381 S380 1.613 . S
N381 C384 1.350 . S
N382 S380 1.610 . S
N382 C383 1.351 . S
C383 C377 1.428 . S
C383 N382 1.351 . S
C383 C384 1.434 . S
C384 C375 1.429 . S
C384 N381 1.350 . S
C384 C383 1.434 . S
C385 C386 1.369 . S
C385 C387 1.419 . S
C385 H389 0.930 . S
C386 C385 1.369 . S
C386 C395 1.429 . S
C387 C385 1.419 . S
C387 C388 1.363 . S
C387 H390 0.929 . S
C388 C387 1.363 . S
C388 C394 1.428 . S
H389 C385 0.930 . S
H390 C387 0.929 . S
S391 N392 1.613 . S
S391 N393 1.610 . S
N392 S391 1.613 . S
N392 C395 1.350 . S
N393 S391 1.610 . S
N393 C394 1.351 . S
C394 C388 1.428 . S
C394 N393 1.351 . S
C394 C395 1.434 . S
C395 C386 1.429 . S
C395 N392 1.350 . S
C395 C394 1.434 . S
C396 C397 1.369 . S
C396 C398 1.419 . S
C396 H400 0.930 . S
C397 C396 1.369 . S
C397 C406 1.429 . S
C398 C396 1.419 . S
C398 C399 1.363 . S
C398 H401 0.929 . S
C399 C398 1.363 . S
C399 C405 1.428 . S
H400 C396 0.930 . S
H401 C398 0.929 . S
S402 N403 1.613 . S
S402 N404 1.610 . S
N403 S402 1.613 . S
N403 C406 1.350 . S
N404 S402 1.610 . S
N404 C405 1.351 . S
C405 C399 1.428 . S
C405 N404 1.351 . S
C405 C406 1.434 . S
C406 C397 1.429 . S
C406 N403 1.350 . S
C406 C405 1.434 . S
C407 C408 1.369 . S
C407 C409 1.419 . S
C407 H411 0.930 . S
C408 C407 1.369 . S
C408 C417 1.429 . S
C409 C407 1.419 . S
C409 C410 1.363 . S
C409 H412 0.929 . S
C410 C409 1.363 . S
C410 C416 1.428 . S
H411 C407 0.930 . S
H412 C409 0.929 . S
S413 N414 1.613 . S
S413 N415 1.610 . S
N414 S413 1.613 . S
N414 C417 1.350 . S
N415 S413 1.610 . S
N415 C416 1.351 . S
C416 C410 1.428 . S
C416 N415 1.351 . S
C416 C417 1.434 . S
C417 C408 1.429 . S
C417 N414 1.350 . S
C417 C416 1.434 . S
C418 C419 1.369 . S
C418 C420 1.419 . S
C418 H422 0.930 . S
C419 C418 1.369 . S
C419 C428 1.429 . S
C420 C418 1.419 . S
C420 C421 1.363 . S
C420 H423 0.929 . S
C421 C420 1.363 . S
C421 C427 1.428 . S
H422 C418 0.930 . S
H423 C420 0.929 . S
S424 N425 1.613 . S
S424 N426 1.610 . S
N425 S424 1.613 . S
N425 C428 1.350 . S
N426 S424 1.610 . S
N426 C427 1.351 . S
C427 C421 1.428 . S
C427 N426 1.351 . S
C427 C428 1.434 . S
C428 C419 1.429 . S
C428 N425 1.350 . S
C428 C427 1.434 . S
C429 C430 1.369 . S
C429 C431 1.419 . S
C429 H433 0.930 . S
C430 C429 1.369 . S
C430 C439 1.429 . S
C431 C429 1.419 . S
C431 C432 1.363 . S
C431 H434 0.929 . S
C432 C431 1.363 . S
C432 C438 1.428 . S
H433 C429 0.930 . S
H434 C431 0.929 . S
S435 N436 1.613 . S
S435 N437 1.610 . S
N436 S435 1.613 . S
N436 C439 1.350 . S
N437 S435 1.610 . S
N437 C438 1.351 . S
C438 C432 1.428 . S
C438 N437 1.351 . S
C438 C439 1.434 . S
C439 C430 1.429 . S
C439 N436 1.350 . S
C439 C438 1.434 . S
C440 C441 1.369 . S
C440 C442 1.419 . S
C440 H444 0.930 . S
C441 C440 1.369 . S
C441 C450 1.429 . S
C442 C440 1.419 . S
C442 C443 1.363 . S
C442 H445 0.929 . S
C443 C442 1.363 . S
C443 C449 1.428 . S
H444 C440 0.930 . S
H445 C442 0.929 . S
S446 N447 1.613 . S
S446 N448 1.610 . S
N447 S446 1.613 . S
N447 C450 1.350 . S
N448 S446 1.610 . S
N448 C449 1.351 . S
C449 C443 1.428 . S
C449 N448 1.351 . S
C449 C450 1.434 . S
C450 C441 1.429 . S
C450 N447 1.350 . S
C450 C449 1.434 . S
C451 C452 1.369 . S
C451 C453 1.419 . S
C451 H455 0.930 . S
C452 C451 1.369 . S
C452 C461 1.429 . S
C453 C451 1.419 . S
C453 C454 1.363 . S
C453 H456 0.929 . S
C454 C453 1.363 . S
C454 C460 1.428 . S
H455 C451 0.930 . S
H456 C453 0.929 . S
S457 N458 1.613 . S
S457 N459 1.610 . S
N458 S457 1.613 . S
N458 C461 1.350 . S
N459 S457 1.610 . S
N459 C460 1.351 . S
C460 C454 1.428 . S
C460 N459 1.351 . S
C460 C461 1.434 . S
C461 C452 1.429 . S
C461 N458 1.350 . S
C461 C460 1.434 . S
C462 C463 1.369 . S
C462 C464 1.419 . S
C462 H466 0.930 . S
C463 C462 1.369 . S
C463 C472 1.429 . S
C464 C462 1.419 . S
C464 C465 1.363 . S
C464 H467 0.929 . S
C465 C464 1.363 . S
C465 C471 1.428 . S
H466 C462 0.930 . S
H467 C464 0.929 . S
S468 N469 1.613 . S
S468 N470 1.610 . S
N469 S468 1.613 . S
N469 C472 1.350 . S
N470 S468 1.610 . S
N470 C471 1.351 . S
C471 C465 1.428 . S
C471 N470 1.351 . S
C471 C472 1.434 . S
C472 C463 1.429 . S
C472 N469 1.350 . S
C472 C471 1.434 . S
C473 C474 1.369 . S
C473 C475 1.419 . S
C473 H477 0.930 . S
C474 C473 1.369 . S
C474 C483 1.429 . S
C475 C473 1.419 . S
C475 C476 1.363 . S
C475 H478 0.929 . S
C476 C475 1.363 . S
C476 C482 1.428 . S
H477 C473 0.930 . S
H478 C475 0.929 . S
S479 N480 1.613 . S
S479 N481 1.610 . S
N480 S479 1.613 . S
N480 C483 1.350 . S
N481 S479 1.610 . S
N481 C482 1.351 . S
C482 C476 1.428 . S
C482 N481 1.351 . S
C482 C483 1.434 . S
C483 C474 1.429 . S
C483 N480 1.350 . S
C483 C482 1.434 . S
C265 N71 1.549 . S
C267 N5 1.550 . S
C276 N38 1.551 . S
C278 N104 1.549 . S
C287 N137 1.549 . S
C289 N203 1.551 . S
C298 N170 1.549 . S
C300 N236 1.551 . S
C309 C107 1.595 . S
C311 N14 1.530 . S
C320 C8 1.596 . S
C322 N47 1.531 . S
C331 N80 1.532 . S
C333 C41 1.595 . S
C342 N113 1.531 . S
C344 C74 1.595 . S
C353 C173 1.595 1_545 S
C355 N146 1.526 . S
C364 C206 1.596 1_655 S
C366 N179 1.528 . S
C375 C239 1.595 1_565 S
C377 N212 1.526 . S
C386 C140 1.596 1_455 S
C388 N245 1.527 . S
C397 C28 1.403 . S
C399 C259 1.405 . S
C408 C61 1.405 . S
C410 C160 1.403 . S
C419 C193 1.402 . S
C421 C94 1.405 . S
C430 C226 1.405 . S
C432 C127 1.403 . S
C441 C83 1.486 . S
C443 C182 1.487 . S
C452 C215 1.489 . S
C454 C116 1.490 . S
C463 C248 1.487 . S
C465 C17 1.489 . S
C474 C149 1.490 . S
C476 C50 1.488 . S
