# Generated by pormake.
# Topology wjd, (6)-cn, num edge types: 1
# Building blocks:
#     Node 0, Type 0, BuildingBlock: BETFAJ_clean_sbu_0, # of connection points: 6
#     Node 1, Type 0, BuildingBlock: BETFAJ_clean_sbu_0, # of connection points: 6
#     Node 2, Type 0, BuildingBlock: BETFAJ_clean_sbu_0, # of connection points: 6
#     Node 3, Type 0, BuildingBlock: BETFAJ_clean_sbu_0, # of connection points: 6
#     Node 4, Type 0, BuildingBlock: BETFAJ_clean_sbu_0, # of connection points: 6
#     Node 5, Type 0, BuildingBlock: BETFAJ_clean_sbu_0, # of connection points: 6
#     Node 6, Type 0, BuildingBlock: BETFAJ_clean_sbu_0, # of connection points: 6
#     Node 7, Type 0, BuildingBlock: BETFAJ_clean_sbu_0, # of connection points: 6
#     Node 8, Type 0, BuildingBlock: BETFAJ_clean_sbu_0, # of connection points: 6
#     Node 9, Type 0, BuildingBlock: BETFAJ_clean_sbu_0, # of connection points: 6
#     Node 10, Type 0, BuildingBlock: BETFAJ_clean_sbu_0, # of connection points: 6
#     Node 11, Type 0, BuildingBlock: BETFAJ_clean_sbu_0, # of connection points: 6
#     Edge 12, Type (0, 0), BuildingBlock: EZIPEK_clean_linker_0, # of connection points: 2
#     Edge 13, Type (0, 0), BuildingBlock: EZIPEK_clean_linker_0, # of connection points: 2
#     Edge 14, Type (0, 0), BuildingBlock: EZIPEK_clean_linker_0, # of connection points: 2
#     Edge 15, Type (0, 0), BuildingBlock: EZIPEK_clean_linker_0, # of connection points: 2
#     Edge 16, Type (0, 0), BuildingBlock: EZIPEK_clean_linker_0, # of connection points: 2
#     Edge 17, Type (0, 0), BuildingBlock: EZIPEK_clean_linker_0, # of connection points: 2
#     Edge 18, Type (0, 0), BuildingBlock: EZIPEK_clean_linker_0, # of connection points: 2
#     Edge 19, Type (0, 0), BuildingBlock: EZIPEK_clean_linker_0, # of connection points: 2
#     Edge 20, Type (0, 0), BuildingBlock: EZIPEK_clean_linker_0, # of connection points: 2
#     Edge 21, Type (0, 0), BuildingBlock: EZIPEK_clean_linker_0, # of connection points: 2
#     Edge 22, Type (0, 0), BuildingBlock: EZIPEK_clean_linker_0, # of connection points: 2
#     Edge 23, Type (0, 0), BuildingBlock: EZIPEK_clean_linker_0, # of connection points: 2
#     Edge 24, Type (0, 0), BuildingBlock: EZIPEK_clean_linker_0, # of connection points: 2
#     Edge 25, Type (0, 0), BuildingBlock: EZIPEK_clean_linker_0, # of connection points: 2
#     Edge 26, Type (0, 0), BuildingBlock: EZIPEK_clean_linker_0, # of connection points: 2
#     Edge 27, Type (0, 0), BuildingBlock: EZIPEK_clean_linker_0, # of connection points: 2
#     Edge 28, Type (0, 0), BuildingBlock: EZIPEK_clean_linker_0, # of connection points: 2
#     Edge 29, Type (0, 0), BuildingBlock: EZIPEK_clean_linker_0, # of connection points: 2
#     Edge 30, Type (0, 0), BuildingBlock: EZIPEK_clean_linker_0, # of connection points: 2
#     Edge 31, Type (0, 0), BuildingBlock: EZIPEK_clean_linker_0, # of connection points: 2
#     Edge 32, Type (0, 0), BuildingBlock: EZIPEK_clean_linker_0, # of connection points: 2
#     Edge 33, Type (0, 0), BuildingBlock: EZIPEK_clean_linker_0, # of connection points: 2
#     Edge 34, Type (0, 0), BuildingBlock: EZIPEK_clean_linker_0, # of connection points: 2
#     Edge 35, Type (0, 0), BuildingBlock: EZIPEK_clean_linker_0, # of connection points: 2
#     Edge 36, Type (0, 0), BuildingBlock: EZIPEK_clean_linker_0, # of connection points: 2
#     Edge 37, Type (0, 0), BuildingBlock: EZIPEK_clean_linker_0, # of connection points: 2
#     Edge 38, Type (0, 0), BuildingBlock: EZIPEK_clean_linker_0, # of connection points: 2
#     Edge 39, Type (0, 0), BuildingBlock: EZIPEK_clean_linker_0, # of connection points: 2
#     Edge 40, Type (0, 0), BuildingBlock: EZIPEK_clean_linker_0, # of connection points: 2
#     Edge 41, Type (0, 0), BuildingBlock: EZIPEK_clean_linker_0, # of connection points: 2
#     Edge 42, Type (0, 0), BuildingBlock: EZIPEK_clean_linker_0, # of connection points: 2
#     Edge 43, Type (0, 0), BuildingBlock: EZIPEK_clean_linker_0, # of connection points: 2
#     Edge 44, Type (0, 0), BuildingBlock: EZIPEK_clean_linker_0, # of connection points: 2
#     Edge 45, Type (0, 0), BuildingBlock: EZIPEK_clean_linker_0, # of connection points: 2
#     Edge 46, Type (0, 0), BuildingBlock: EZIPEK_clean_linker_0, # of connection points: 2
#     Edge 47, Type (0, 0), BuildingBlock: EZIPEK_clean_linker_0, # of connection points: 2
# Relax obj value: 0.115
# Max RMSD: 0.241
# Mean RMSD: 0.241
data_MOF--net-wjd--node1-BETFAJ_clean_sbu_0--edge1-EZIPEK_clean_linker_0
_symmetry_space_group_name_H-M    P1
_symmetry_Int_Tables_number       1
_symmetry_cell_setting            triclinic
loop_
_symmetry_equiv_pos_as_xyz
'x, y, z'
_cell_length_a     31.913385
_cell_length_b     31.952884
_cell_length_c     38.043276
_cell_angle_alpha  90.094852
_cell_angle_beta   89.759348
_cell_angle_gamma 120.01125
loop_
_atom_site_label
_atom_site_type_symbol
_atom_site_fract_x
_atom_site_fract_y
_atom_site_fract_z
_atom_type_partial_charge
Sm0 Sm 0.40285 0.19772 0.10994 0.0
Sm1 Sm 0.33908 0.09926 0.13289 0.0
C2 C 0.45223 0.29194 0.09589 0.0
C3 C 0.4875 0.33935 0.11117 0.0
C4 C 0.53498 0.3508 0.11959 0.0
C5 C 0.56913 0.39767 0.1302 0.0
C6 C 0.5564 0.43377 0.13262 0.0
C7 C 0.50855 0.4219 0.12572 0.0
C8 C 0.47447 0.37515 0.11496 0.0
C9 C 0.35814 0.12998 0.0551 0.0
C10 C 0.45694 0.14007 0.12424 0.0
C11 C 0.28057 1.00472 0.13728 0.0
C12 C 0.22737 0.97303 0.13559 0.0
C13 C 0.20636 0.94091 0.10727 0.0
C14 C 0.15614 0.9106 0.10553 0.0
C15 C 0.12623 0.91192 0.13212 0.0
C16 C 0.14692 0.94451 0.16006 0.0
C17 C 0.19702 0.97488 0.16178 0.0
C18 C 0.37431 0.1604 0.18981 0.0
C19 C 0.29449 0.16946 0.13335 0.0
O20 O 0.40858 0.2701 0.10909 0.0
O21 O 0.46726 0.262 0.0874 0.0
O22 O 0.33896 0.13446 0.08261 0.0
O23 O 0.40345 0.16248 0.05627 0.0
O24 O 0.46252 0.18349 0.12717 0.0
O25 O 0.41291 0.10162 0.122 0.0
O26 O 0.30225 1.02641 0.1081 0.0
O27 O 0.29802 0.0327 0.16479 0.0
O28 O 0.39962 0.16294 0.16313 0.0
O29 O 0.3304 0.1248 0.18664 0.0
O30 O 0.28275 0.12422 0.12729 0.0
O31 O 0.34002 0.20377 0.13407 0.0
H32 H 0.54617 0.32405 0.11701 0.0
H33 H 0.60594 0.40625 0.13535 0.0
H34 H 0.49815 0.44934 0.12731 0.0
H35 H 0.43823 0.36736 0.1085 0.0
H36 H 0.22885 0.93897 0.08664 0.0
H37 H 0.14068 0.88535 0.08391 0.0
H38 H 0.12429 0.9457 0.1809 0.0
H39 H 0.21189 0.99945 0.18382 0.0
Sm40 Sm 0.8169 0.72615 0.39384 0.0
Sm41 Sm 0.85972 0.6732 0.4279 0.0
C42 C 0.79363 0.7929 0.37836 0.0
C43 C 0.81826 0.84589 0.38259 0.0
C44 C 0.85418 0.86929 0.40827 0.0
C45 C 0.87673 0.91944 0.41266 0.0
C46 C 0.86392 0.94696 0.39123 0.0
C47 C 0.82874 0.92376 0.36511 0.0
C48 C 0.80605 0.87354 0.36083 0.0
C49 C 0.83673 0.67444 0.34531 0.0
C50 C 0.93431 0.77924 0.40601 0.0
C51 C 0.88836 0.61312 0.45158 0.0
C52 C 0.90047 0.57655 0.43938 0.0
C53 C 0.91541 0.57596 0.40465 0.0
C54 C 0.92658 0.54055 0.394 0.0
C55 C 0.92263 0.50521 0.41791 0.0
C56 C 0.90791 0.50612 0.45258 0.0
C57 C 0.89692 0.54146 0.4632 0.0
C58 C 0.83117 0.72315 0.47357 0.0
C59 C 0.74733 0.6124 0.4044 0.0
O60 O 0.78014 0.76748 0.40736 0.0
O61 O 0.81286 0.7767 0.35557 0.0
O62 O 0.86438 0.69784 0.37073 0.0
O63 O 0.79843 0.67886 0.34527 0.0
O64 O 0.89617 0.78505 0.40717 0.0
O65 O 0.92923 0.73602 0.40738 0.0
O66 O 0.91808 0.65806 0.44305 0.0
O67 O 0.84308 0.60175 0.4496 0.0
O68 O 0.80835 0.69739 0.44802 0.0
O69 O 0.87054 0.72151 0.47766 0.0
O70 O 0.78834 0.61194 0.40598 0.0
O71 O 0.74687 0.65356 0.40378 0.0
H72 H 0.86442 0.84869 0.42515 0.0
H73 H 0.90364 0.93671 0.43305 0.0
H74 H 0.81828 0.94445 0.34846 0.0
H75 H 0.77866 0.85625 0.34075 0.0
H76 H 0.91826 0.60268 0.38583 0.0
H77 H 0.93783 0.54038 0.36713 0.0
H78 H 0.90457 0.47916 0.47137 0.0
H79 H 0.88547 0.54131 0.49007 0.0
Sm80 Sm 0.88293 0.22064 0.10878 0.0
Sm81 Sm 0.98586 0.27152 0.13441 0.0
C82 C 0.78898 0.17843 0.09405 0.0
C83 C 0.74069 0.17217 0.1024 0.0
C84 C 0.73229 0.21137 0.10408 0.0
C85 C 0.68517 0.20329 0.10916 0.0
C86 C 0.64576 0.15599 0.11251 0.0
C87 C 0.65433 0.11702 0.11151 0.0
C88 C 0.70128 0.12505 0.10646 0.0
C89 C 0.95503 0.2493 0.05724 0.0
C90 C 0.93132 0.33506 0.12876 0.0
C91 C 0.08097 0.31636 0.14045 0.0
C92 C 0.1143 0.29783 0.14674 0.0
C93 C 0.15831 0.31797 0.12832 0.0
C94 C 0.18616 0.29532 0.1287 0.0
C95 C 0.17014 0.25194 0.14727 0.0
C96 C 0.12687 0.23256 0.16663 0.0
C97 C 0.09926 0.25547 0.16648 0.0
C98 C 0.9205 0.22454 0.18838 0.0
C99 C 0.93064 0.15558 0.12353 0.0
O100 O 0.80725 0.16053 0.11612 0.0
O101 O 0.82179 0.21856 0.07916 0.0
O102 O 0.95408 0.27273 0.08316 0.0
O103 O 0.9153 0.20794 0.05653 0.0
O104 O 0.89108 0.29411 0.12228 0.0
O105 O 0.97335 0.33704 0.13369 0.0
O106 O 0.05863 0.30322 0.11025 0.0
O107 O 0.05245 0.31348 0.16642 0.0
O108 O 0.91438 0.24769 0.1637 0.0
O109 O 0.96097 0.22503 0.18385 0.0
O110 O 0.97239 0.19563 0.11821 0.0
O111 O 0.89054 0.15709 0.12732 0.0
H112 H 0.7619 0.24807 0.10098 0.0
H113 H 0.67931 0.23386 0.10997 0.0
H114 H 0.62452 0.08032 0.11413 0.0
H115 H 0.7067 0.09421 0.10505 0.0
H116 H 0.17017 0.35015 0.11248 0.0
H117 H 0.21944 0.31074 0.11359 0.0
H118 H 0.11393 0.19911 0.18108 0.0
H119 H 0.06531 0.2392 0.18072 0.0
Sm120 Sm 0.34741 0.09238 0.38981 0.0
Sm121 Sm 0.40281 0.19125 0.41843 0.0
C122 C 0.29143 0.99815 0.38214 0.0
C123 C 0.23822 0.96958 0.38338 0.0
C124 C 0.21238 0.98665 0.40304 0.0
C125 C 0.16214 0.95948 0.40567 0.0
C126 C 0.13687 0.91481 0.38864 0.0
C127 C 0.16229 0.898 0.36829 0.0
C128 C 0.21284 0.92534 0.36565 0.0
C129 C 0.37636 0.16 0.33649 0.0
C130 C 0.29401 0.15454 0.39895 0.0
C131 C 0.45576 0.28303 0.43767 0.0
C132 C 0.49783 0.33038 0.42958 0.0
C133 C 0.53106 0.33655 0.40296 0.0
C134 C 0.57043 0.38268 0.39595 0.0
C135 C 0.57657 0.42281 0.4154 0.0
C136 C 0.54282 0.41647 0.44154 0.0
C137 C 0.50373 0.3706 0.44854 0.0
C138 C 0.35119 0.11797 0.46777 0.0
C139 C 0.46463 0.13898 0.39808 0.0
O140 O 0.31045 1.02731 0.35532 0.0
O141 O 0.31174 1.01843 0.41192 0.0
O142 O 0.40239 0.16313 0.36267 0.0
O143 O 0.33397 0.12191 0.33934 0.0
O144 O 0.28816 0.11128 0.40492 0.0
O145 O 0.33751 0.19185 0.39554 0.0
O146 O 0.41932 0.26724 0.41601 0.0
O147 O 0.46339 0.24892 0.44935 0.0
O148 O 0.37677 0.11816 0.44293 0.0
O149 O 0.3532 0.15934 0.46879 0.0
O150 O 0.46674 0.17975 0.4074 0.0
O151 O 0.42333 0.09961 0.38999 0.0
H152 H 0.23111 1.02057 0.41705 0.0
H153 H 0.14305 0.97272 0.42166 0.0
H154 H 0.1431 0.86333 0.35519 0.0
H155 H 0.23209 0.91167 0.35031 0.0
H156 H 0.52672 0.30583 0.38791 0.0
H157 H 0.59651 0.38699 0.37591 0.0
H158 H 0.5473 0.44697 0.45698 0.0
H159 H 0.47816 0.36645 0.46898 0.0
Sm160 Sm 0.8333 0.66833 0.12061 0.0
Sm161 Sm 0.80826 0.73174 0.15656 0.0
C162 C 0.84744 0.59845 0.09582 0.0
C163 C 0.8675 0.56695 0.105 0.0
C164 C 0.8518 0.53709 0.13478 0.0
C165 C 0.8646 0.50144 0.13935 0.0
C166 C 0.89059 0.49216 0.11309 0.0
C167 C 0.91367 0.52876 0.08727 0.0
C168 C 0.90078 0.56428 0.08242 0.0
C169 C 0.80341 0.71762 0.07483 0.0
C170 C 0.72326 0.62155 0.15035 0.0
C171 C 0.8017 0.80795 0.177 0.0
C172 C 0.82866 0.85978 0.16847 0.0
C173 C 0.85993 0.87666 0.13925 0.0
C174 C 0.88337 0.92561 0.13009 0.0
C175 C 0.87561 0.95817 0.14996 0.0
C176 C 0.84533 0.9415 0.17965 0.0
C177 C 0.82198 0.89257 0.18885 0.0
C178 C 0.82542 0.67788 0.20424 0.0
C179 C 0.92117 0.77 0.13506 0.0
O180 O 0.87755 0.64424 0.0901 0.0
O181 O 0.80818 0.59076 0.11217 0.0
O182 O 0.78432 0.69741 0.10328 0.0
O183 O 0.84164 0.71395 0.07027 0.0
O184 O 0.7591 0.61359 0.14359 0.0
O185 O 0.73089 0.66597 0.15371 0.0
O186 O 0.77666 0.77947 0.15139 0.0
O187 O 0.82498 0.79114 0.19472 0.0
O188 O 0.85095 0.69687 0.17689 0.0
O189 O 0.78989 0.6865 0.20615 0.0
O190 O 0.88675 0.7815 0.13534 0.0
O191 O 0.90933 0.72449 0.13576 0.0
H192 H 0.82874 0.54047 0.1542 0.0
H193 H 0.8532 0.4811 0.16354 0.0
H194 H 0.94163 0.53065 0.07022 0.0
H195 H 0.91612 0.58905 0.06047 0.0
H196 H 0.8654 0.85184 0.1231 0.0
H197 H 0.90653 0.9379 0.10706 0.0
H198 H 0.83893 0.96622 0.1952 0.0
H199 H 0.79802 0.88017 0.21146 0.0
Sm200 Sm 0.98775 0.26462 0.38965 0.0
Sm201 Sm 0.88907 0.22321 0.41847 0.0
C202 C 0.08151 0.30035 0.38002 0.0
C203 C 0.10868 0.27421 0.37898 0.0
C204 C 0.09119 0.23069 0.39778 0.0
C205 C 0.11738 0.20655 0.39872 0.0
C206 C 0.16157 0.22543 0.38087 0.0
C207 C 0.17865 0.26812 0.36114 0.0
C208 C 0.15223 0.29239 0.36016 0.0
C209 C 0.91967 0.22271 0.33689 0.0
C210 C 0.92601 0.14989 0.40339 0.0
C211 C 0.79646 0.18668 0.43554 0.0
C212 C 0.74956 0.18088 0.42399 0.0
C213 C 0.73657 0.21595 0.43185 0.0
C214 C 0.68999 0.20729 0.42432 0.0
C215 C 0.65568 0.16342 0.40901 0.0
C216 C 0.66882 0.12892 0.4003 0.0
C217 C 0.71526 0.13747 0.40784 0.0
C218 C 0.96205 0.2481 0.46832 0.0
C219 C 0.9431 0.3373 0.39729 0.0
O220 O 0.06231 0.29977 0.41057 0.0
O221 O 0.05191 0.29249 0.35391 0.0
O222 O 0.91689 0.24725 0.36216 0.0
O223 O 0.95715 0.21762 0.34077 0.0
O224 O 0.96906 0.18803 0.40846 0.0
O225 O 0.88851 0.15553 0.39879 0.0
O226 O 0.81329 0.16324 0.41773 0.0
O227 O 0.83052 0.22908 0.44633 0.0
O228 O 0.96228 0.27179 0.4423 0.0
O229 O 0.92043 0.20894 0.47031 0.0
O230 O 0.90203 0.299 0.40685 0.0
O231 O 0.98198 0.33431 0.38896 0.0
H232 H 0.05794 0.216 0.41273 0.0
H233 H 0.10401 0.174 0.41437 0.0
H234 H 0.21309 0.28338 0.34753 0.0
H235 H 0.16628 0.32578 0.34546 0.0
H236 H 0.76189 0.24948 0.44463 0.0
H237 H 0.68027 0.23425 0.43125 0.0
H238 H 0.64269 0.09485 0.38855 0.0
H239 H 0.72384 0.10943 0.4019 0.0
Sm240 Sm 0.10788 0.33344 0.64174 0.0
Sm241 Sm 0.20341 0.3878 0.60993 0.0
C242 C 1.0183 0.26516 0.65705 0.0
C243 C 0.99087 0.21268 0.65111 0.0
C244 C 1.00611 0.1913 0.62555 0.0
C245 C 0.97998 0.1414 0.61997 0.0
C246 C 0.93823 0.11232 0.63987 0.0
C247 C 0.92343 0.13355 0.66581 0.0
C248 C 0.94966 0.18348 0.67142 0.0
C249 C 0.17683 0.3821 0.69255 0.0
C250 C 0.17266 0.28147 0.62881 0.0
C251 C 0.29314 0.4498 0.58865 0.0
C252 C 0.34283 0.48305 0.6012 0.0
C253 C 0.35215 0.51686 0.62812 0.0
C254 C 0.39981 0.5525 0.63586 0.0
C255 C 0.43874 0.55474 0.61689 0.0
C256 C 0.42956 0.51949 0.59131 0.0
C257 C 0.38201 0.48397 0.58355 0.0
C258 C 0.12832 0.33811 0.56188 0.0
C259 C 0.14793 0.44637 0.63209 0.0
O260 O 1.02963 0.29222 0.62894 0.0
O261 O 0.05404 0.28023 0.67925 0.0
O262 O 0.18259 0.36072 0.66637 0.0
O263 O 0.13471 0.3789 0.69147 0.0
O264 O 0.12904 0.27592 0.62532 0.0
O265 O 0.21018 0.32512 0.63121 0.0
O266 O 0.27646 0.40341 0.59151 0.0
O267 O 0.26021 0.46179 0.59473 0.0
O268 O 0.12866 0.36289 0.58749 0.0
O269 O 0.1701 0.34112 0.55913 0.0
O270 O 0.19 0.44808 0.63013 0.0
O271 O 0.10716 0.40452 0.63342 0.0
H272 H 1.03792 0.21323 0.60971 0.0
H273 H 0.99177 0.12555 0.5998 0.0
H274 H 0.8912 0.11152 0.68132 0.0
H275 H 0.93761 0.19934 0.6914 0.0
H276 H 0.32262 0.51695 0.64221 0.0
H277 H 0.4062 0.57965 0.65548 0.0
H278 H 0.45909 0.52089 0.57622 0.0
H279 H 0.37572 0.45841 0.56266 0.0
Sm280 Sm 0.25386 0.879 0.91958 0.0
Sm281 Sm 0.2954 0.97937 0.89059 0.0
C282 C 0.22896 0.789 0.9383 0.0
C283 C 0.21139 0.73863 0.92667 0.0
C284 C 0.17743 0.71676 0.89951 0.0
C285 C 0.16013 0.66807 0.8906 0.0
C286 C 0.17656 0.64068 0.90875 0.0
C287 C 0.21069 0.66277 0.93562 0.0
C288 C 0.22794 0.71121 0.94444 0.0
C289 C 0.28102 0.95281 0.96979 0.0
C290 C 0.36769 0.93765 0.89902 0.0
C291 C 0.31701 0.07055 0.8836 0.0
C292 C 0.28969 0.09654 0.88618 0.0
C293 C 0.25115 0.08179 0.91021 0.0
C294 C 0.22712 0.10818 0.91363 0.0
C295 C 0.24105 0.14944 0.89292 0.0
C296 C 0.2787 0.16348 0.86837 0.0
C297 C 0.30288 0.13723 0.86505 0.0
C298 C 0.27885 0.91444 0.83773 0.0
C299 C 0.17639 0.90803 0.89661 0.0
O300 O 0.19882 0.80544 0.93796 0.0
O301 O 0.27297 0.82175 0.9296 0.0
O302 O 0.30296 0.95295 0.94253 0.0
O303 O 0.24331 0.91023 0.97308 0.0
O304 O 0.32769 0.89529 0.89795 0.0
O305 O 0.36623 0.97828 0.90062 0.0
O306 O 0.32234 0.05244 0.91292 0.0
O307 O 0.30732 0.04147 0.8568 0.0
O308 O 0.25071 0.90591 0.86403 0.0
O309 O 0.31647 0.95763 0.83963 0.0
O310 O 0.21308 0.95298 0.89803 0.0
O311 O 0.18367 0.87115 0.89908 0.0
H312 H 0.16405 0.73711 0.88542 0.0
H313 H 0.13379 0.65167 0.86977 0.0
H314 H 0.22383 0.64236 0.94992 0.0
H315 H 0.25397 0.72721 0.96553 0.0
H316 H 0.24012 0.05035 0.92672 0.0
H317 H 0.19822 0.09693 0.93277 0.0
H318 H 0.29 0.19534 0.85229 0.0
H319 H 0.33238 0.14913 0.84635 0.0
Sm320 Sm 0.74395 0.79393 0.6374 0.0
Sm321 Sm 0.69152 0.83754 0.6044 0.0
C322 C 0.81096 0.77101 0.65267 0.0
C323 C 0.86406 0.79675 0.64842 0.0
C324 C 0.88677 0.83167 0.62187 0.0
C325 C 0.93709 0.85569 0.61774 0.0
C326 C 0.96546 0.84528 0.64021 0.0
C327 C 0.94294 0.81118 0.6672 0.0
C328 C 0.89255 0.78709 0.67128 0.0
C329 C 0.69556 0.81681 0.68706 0.0
C330 C 0.79889 0.91106 0.6236 0.0
C331 C 0.63187 0.86762 0.58226 0.0
C332 C 0.59766 0.88295 0.59474 0.0
C333 C 0.56685 0.86084 0.62371 0.0
C334 C 0.53103 0.8724 0.63236 0.0
C335 C 0.52565 0.90624 0.61223 0.0
C336 C 0.55777 0.92975 0.58426 0.0
C337 C 0.59347 0.91821 0.57563 0.0
C338 C 0.73986 0.80825 0.55768 0.0
C339 C 0.62996 0.72467 0.62773 0.0
O340 O 0.78567 0.75762 0.62368 0.0
O341 O 0.79404 0.78922 0.67568 0.0
O342 O 0.71843 0.84335 0.66095 0.0
O343 O 0.69747 0.77715 0.68656 0.0
O344 O 0.80355 0.8723 0.62235 0.0
O345 O 0.75591 0.90684 0.62352 0.0
O346 O 0.67786 0.89673 0.58789 0.0
O347 O 0.61916 0.8222 0.58619 0.0
O348 O 0.71447 0.78558 0.58355 0.0
O349 O 0.73825 0.84761 0.55372 0.0
O350 O 0.62983 0.76584 0.62636 0.0
O351 O 0.67109 0.72404 0.6281 0.0
H352 H 0.86554 0.83997 0.60411 0.0
H353 H 0.95384 0.8817 0.59667 0.0
H354 H 0.96431 0.80257 0.68465 0.0
H355 H 0.8758 0.76059 0.69207 0.0
H356 H 0.56943 0.83358 0.63891 0.0
H357 H 0.5063 0.85358 0.65383 0.0
H358 H 0.55391 0.95562 0.56824 0.0
H359 H 0.61677 0.93565 0.55318 0.0
Sm360 Sm 0.20079 0.39325 0.91818 0.0
Sm361 Sm 0.10477 0.33359 0.8857 0.0
C362 C 0.29041 0.46041 0.93578 0.0
C363 C 0.34078 0.48911 0.92213 0.0
C364 C 0.3605 0.53893 0.91618 0.0
C365 C 0.40918 0.56804 0.9068 0.0
C366 C 0.43941 0.54812 0.90329 0.0
C367 C 0.41968 0.49811 0.9081 0.0
C368 C 0.37079 0.46884 0.91755 0.0
C369 C 0.1251 0.34402 0.96609 0.0
C370 C 0.13903 0.44607 0.89408 0.0
C371 C 1.01622 0.26239 0.87129 0.0
C372 C 0.98784 0.20895 0.87509 0.0
C373 C 0.96236 0.18752 0.90638 0.0
C374 C 0.93317 0.13727 0.90905 0.0
C375 C 0.9288 0.10748 0.88053 0.0
C376 C 0.95504 0.12852 0.84959 0.0
C377 C 0.98416 0.17878 0.84684 0.0
C378 C 0.17642 0.38257 0.83594 0.0
C379 C 0.17308 0.28607 0.9017 0.0
O380 O 0.27246 0.41434 0.94213 0.0
O381 O 0.2584 0.47017 0.92291 0.0
O382 O 0.12479 0.36633 0.93913 0.0
O383 O 0.16804 0.35025 0.97058 0.0
O384 O 0.18208 0.45067 0.89888 0.0
O385 O 0.09994 0.40298 0.89121 0.0
O386 O 1.02718 0.28814 0.90008 0.0
O387 O 0.05145 0.28014 0.84824 0.0
O388 O 0.18084 0.36195 0.86298 0.0
O389 O 0.13344 0.37753 0.83512 0.0
O390 O 0.12847 0.27857 0.90329 0.0
O391 O 0.20993 0.33039 0.89991 0.0
H392 H 0.33855 0.55574 0.91978 0.0
H393 H 0.42372 0.60653 0.90336 0.0
H394 H 0.44251 0.4821 0.90565 0.0
H395 H 0.35691 0.43068 0.92211 0.0
H396 H 0.96416 0.20956 0.92863 0.0
H397 H 0.91298 0.12167 0.93307 0.0
H398 H 0.9519 0.10608 0.82725 0.0
H399 H 1.00305 0.19403 0.82234 0.0
Sm400 Sm 0.28636 0.9717 0.64028 0.0
Sm401 Sm 0.24255 0.87539 0.60973 0.0
C402 C 0.31043 0.06229 0.65417 0.0
C403 C 0.28568 0.09028 0.64897 0.0
C404 C 0.25147 0.0781 0.62201 0.0
C405 C 0.228 0.10474 0.61728 0.0
C406 C 0.23821 0.14368 0.6396 0.0
C407 C 0.27175 0.15536 0.66688 0.0
C408 C 0.29534 0.1288 0.67153 0.0
C409 C 0.26704 0.90418 0.69198 0.0
C410 C 0.16871 0.90878 0.62856 0.0
C411 C 0.2114 0.78534 0.58778 0.0
C412 C 0.19803 0.73611 0.59933 0.0
C413 C 0.22041 0.72784 0.62792 0.0
C414 C 0.21164 0.68106 0.63508 0.0
C415 C 0.18309 0.64176 0.61226 0.0
C416 C 0.15465 0.64989 0.58766 0.0
C417 C 0.1632 0.69644 0.58048 0.0
C418 C 0.27044 0.95075 0.56107 0.0
C419 C 0.35587 0.92707 0.62977 0.0
O420 O 0.32406 0.04936 0.62567 0.0
O421 O 0.29102 1.02771 0.67747 0.0
O422 O 0.23881 0.89807 0.66648 0.0
O423 O 0.30642 0.94578 0.68956 0.0
O424 O 0.20743 0.95212 0.62552 0.0
O425 O 0.1736 0.87055 0.63026 0.0
O426 O 0.18239 0.80158 0.59598 0.0
O427 O 0.25696 0.81851 0.58973 0.0
O428 O 0.294 0.94926 0.58664 0.0
O429 O 0.23051 0.90995 0.55886 0.0
O430 O 0.31469 0.88572 0.6305 0.0
O431 O 0.3561 0.96859 0.6292 0.0
H432 H 0.24316 0.04823 0.60449 0.0
H433 H 0.20236 0.09541 0.59602 0.0
H434 H 0.28015 0.18547 0.68421 0.0
H435 H 0.3213 0.13848 0.69261 0.0
H436 H 0.24501 0.75757 0.64453 0.0
H437 H 0.22736 0.6769 0.65884 0.0
H438 H 0.12582 0.6206 0.5732 0.0
H439 H 0.14312 0.70151 0.55962 0.0
Sm440 Sm 0.68286 0.81941 0.91429 0.0
Sm441 Sm 0.74766 0.78531 0.88447 0.0
C442 C 0.61527 0.84034 0.93342 0.0
C443 C 0.59092 0.86745 0.92278 0.0
C444 C 0.56071 0.8538 0.89309 0.0
C445 C 0.53114 0.87384 0.88709 0.0
C446 C 0.5314 0.90786 0.91057 0.0
C447 C 0.56392 0.924 0.93882 0.0
C448 C 0.59329 0.9038 0.94495 0.0
C449 C 0.72634 0.7879 0.9633 0.0
C450 C 0.63286 0.70573 0.88865 0.0
C451 C 0.81962 0.76743 0.89074 0.0
C452 C 0.87141 0.78888 0.88331 0.0
C453 C 0.89729 0.77124 0.90171 0.0
C454 C 0.9477 0.79568 0.90029 0.0
C455 C 0.97293 0.83809 0.88039 0.0
C456 C 0.9471 0.85513 0.86103 0.0
C457 C 0.89644 0.83082 0.86275 0.0
C458 C 0.7217 0.81812 0.82721 0.0
C459 C 0.78685 0.90262 0.89129 0.0
O460 O 0.66004 0.8649 0.94421 0.0
O461 O 0.60652 0.80231 0.91499 0.0
O462 O 0.70605 0.76827 0.9351 0.0
O463 O 0.72651 0.82843 0.96577 0.0
O464 O 0.62648 0.74178 0.89846 0.0
O465 O 0.67641 0.71148 0.8829 0.0
O466 O 0.80936 0.79111 0.91409 0.0
O467 O 0.78894 0.75072 0.86444 0.0
O468 O 0.70707 0.81914 0.85823 0.0
O469 O 0.74865 0.79834 0.82587 0.0
O470 O 0.79852 0.86831 0.89205 0.0
O471 O 0.74161 0.8919 0.89412 0.0
H472 H 0.55805 0.82595 0.87544 0.0
H473 H 0.50602 0.86073 0.8653 0.0
H474 H 0.56427 0.94993 0.95738 0.0
H475 H 0.61603 0.91479 0.96809 0.0
H476 H 0.87853 0.73945 0.91822 0.0
H477 H 0.96715 0.78192 0.91514 0.0
H478 H 0.96618 0.88769 0.84538 0.0
H479 H 0.87693 0.84543 0.84899 0.0
C480 C 0.22463 0.22475 0.17423 0.0
C481 C 0.1978 0.22585 0.14496 0.0
C482 C 0.23243 0.18742 0.10827 0.0
C483 C 0.257 0.18359 0.13801 0.0
N484 N 0.26917 0.18992 0.20069 0.0
N485 N 0.16715 0.19817 0.08656 0.0
C486 C 0.25072 0.19951 0.17146 0.0
C487 C 0.1988 0.20388 0.11274 0.0
N488 N 0.227 0.24965 0.20412 0.0
N489 N 0.24334 0.17822 0.07542 0.0
H490 H 0.14178 0.20953 0.08898 0.0
H491 H 0.16294 0.17815 0.06388 0.0
H492 H 0.26893 0.16764 0.07095 0.0
H493 H 0.2305 0.18547 0.05244 0.0
H494 H 0.25035 0.25483 0.22483 0.0
H495 H 0.20843 0.26856 0.20717 0.0
H496 H 0.26193 0.19633 0.22624 0.0
H497 H 0.28808 0.17126 0.19954 0.0
C498 C 0.05091 0.88466 0.37012 0.0
C499 C 0.08408 0.88402 0.39454 0.0
C500 C 1.01688 0.82609 0.43122 0.0
C501 C 0.98409 0.82103 0.4043 0.0
N502 N 0.96888 0.84422 0.34753 0.0
N503 N 0.09975 0.85271 0.4475 0.0
C504 C 1.00066 0.85052 0.37377 0.0
C505 C 0.06736 0.85462 0.42504 0.0
N506 N 0.06752 0.9182 0.34372 0.0
N507 N 0.99946 0.80437 0.46306 0.0
H508 H 0.13716 0.87381 0.44434 0.0
H509 H 0.08974 0.82779 0.4679 0.0
H510 H 0.96256 0.78397 0.46855 0.0
H511 H 1.02111 0.81045 0.48504 0.0
H512 H 1.04499 0.92403 0.32724 0.0
H513 H 0.10419 0.94295 0.33995 0.0
H514 H 0.97946 0.86027 0.32286 0.0
H515 H 0.93174 0.82052 0.34957 0.0
C516 C 0.9497 0.09536 0.15183 0.0
C517 C 0.92676 0.10722 0.1248 0.0
C518 C 0.8742 1.02117 0.11146 0.0
C519 C 0.89666 1.00932 0.13869 0.0
N520 N 0.96317 0.03414 0.1787 0.0
N521 N 0.87806 0.08282 0.07245 0.0
C522 C 0.93699 0.04622 0.15683 0.0
C523 C 0.89254 0.07044 0.1025 0.0
N524 N 0.98134 0.1304 0.17408 0.0
N525 N 0.83381 0.98554 0.09531 0.0
H526 H 0.8915 0.11865 0.06494 0.0
H527 H 0.85686 0.05797 0.05329 0.0
H528 H 0.81948 0.94889 0.10072 0.0
H529 H 0.8124 0.9924 0.07837 0.0
H530 H 0.99442 0.12323 0.19697 0.0
H531 H 0.99263 0.16678 0.17074 0.0
H532 H 0.9958 0.05941 0.19003 0.0
H533 H 0.95438 0.99841 0.18304 0.0
C534 C 0.25137 0.19581 0.4228 0.0
C535 C 0.2527 0.16357 0.39775 0.0
C536 C 0.18842 0.16609 0.36412 0.0
C537 C 0.19237 0.20342 0.38656 0.0
N538 N 0.22933 0.25645 0.43611 0.0
N539 N 0.22323 0.1177 0.34423 0.0
C540 C 0.22415 0.21883 0.4157 0.0
C541 C 0.2209 0.14802 0.36852 0.0
N542 N 0.27517 0.20329 0.45396 0.0
N543 N 0.15333 0.14771 0.3389 0.0
H544 H 0.24439 0.10163 0.34771 0.0
H545 H 0.20578 0.10986 0.32005 0.0
H546 H 0.13005 0.1612 0.33439 0.0
H547 H 0.14506 0.11719 0.32402 0.0
H548 H 0.27182 0.22237 0.47495 0.0
H549 H 0.29431 0.1859 0.46022 0.0
H550 H 0.25621 0.27328 0.455 0.0
H551 H 0.20897 0.27341 0.43258 0.0
C552 C 0.05628 0.8352 0.15472 0.0
C553 C 0.07362 0.87615 0.13257 0.0
C554 C 0.99156 0.8463 0.10998 0.0
C555 C 0.97338 0.80776 0.13475 0.0
N556 N 0.98823 0.77146 0.18563 0.0
N557 N 0.05763 0.92522 0.09301 0.0
C558 C 1.00569 0.80382 0.15847 0.0
C559 C 1.04117 0.88313 0.11139 0.0
N560 N 0.08825 0.8254 0.17151 0.0
N561 N 0.9624 0.84634 0.08376 0.0
H562 H 0.09389 0.95244 0.09288 0.0
H563 H 1.03482 0.93478 0.08024 0.0
H564 H 0.92655 0.81908 0.08064 0.0
H565 H 0.97503 0.87081 0.06296 0.0
H566 H 0.07782 0.79299 0.18456 0.0
H567 H 0.1257 0.84769 0.1698 0.0
H568 H 1.00978 0.77143 0.20611 0.0
H569 H 0.95166 0.74746 0.18981 0.0
C570 C 0.86397 1.01584 0.42315 0.0
C571 C 0.88505 0.99977 0.39745 0.0
C572 C 0.93916 0.08369 0.37859 0.0
C573 C 0.91791 0.09973 0.40433 0.0
N574 N 0.87014 0.08281 0.45714 0.0
N575 N 0.94911 1.0179 0.35601 0.0
C576 C 0.88337 0.06623 0.42846 0.0
C577 C 0.92483 0.03365 0.37689 0.0
N578 N 0.82423 0.9829 0.44165 0.0
N579 N 0.97108 0.1157 0.35463 0.0
H580 H 0.93896 0.98148 0.3538 0.0
H581 H 0.98144 0.04096 0.34313 0.0
H582 H 0.98365 0.15267 0.3556 0.0
H583 H 0.9832 0.10543 0.33259 0.0
H584 H 0.80358 0.99226 0.45758 0.0
H585 H 0.80968 0.94564 0.4393 0.0
H586 H 0.8491 0.06074 0.47771 0.0
H587 H 0.88441 0.11947 0.46219 0.0
C588 C 0.2378 0.21277 0.60882 0.0
C589 C 0.21599 0.17425 0.63328 0.0
C590 C 0.15863 0.20053 0.65114 0.0
C591 C 0.18126 0.23977 0.62706 0.0
N592 N 0.23076 0.27321 0.57528 0.0
N593 N 0.14935 0.12425 0.67168 0.0
C594 C 0.21732 0.24275 0.60353 0.0
C595 C 0.17425 0.16579 0.65249 0.0
N596 N 0.27913 0.2218 0.59148 0.0
N597 N 0.12391 0.19754 0.67382 0.0
H598 H 0.16038 0.0986 0.67356 0.0
H599 H 0.11586 0.11319 0.68335 0.0
H600 H 0.10943 0.22031 0.67256 0.0
H601 H 0.1108 0.17381 0.69503 0.0
H602 H 0.30002 0.25288 0.57666 0.0
H603 H 0.2946 0.19989 0.59381 0.0
H604 H 0.25329 0.27367 0.55521 0.0
H605 H 0.21508 0.29429 0.56985 0.0
C606 C 0.10093 0.86577 0.8604 0.0
C607 C 0.12649 0.8978 0.88856 0.0
C608 C 0.05334 0.90102 0.90426 0.0
C609 C 1.02661 0.86351 0.87977 0.0
N610 N 1.02355 0.80919 0.83463 0.0
N611 N 0.12692 0.94521 0.93823 0.0
C612 C 0.05015 0.84603 0.85759 0.0
C613 C 0.10295 0.91604 0.91036 0.0
N614 N 0.12545 0.85509 0.83574 0.0
N615 N 1.03108 0.92197 0.92182 0.0
H616 H 0.16329 0.95777 0.94332 0.0
H617 H 0.11024 0.95473 0.9577 0.0
H618 H 0.99452 0.91081 0.91868 0.0
H619 H 0.04942 0.95282 0.93726 0.0
H620 H 0.11013 0.83692 0.81238 0.0
H621 H 0.16245 0.86806 0.83697 0.0
H622 H 1.03718 0.79008 0.82125 0.0
H623 H 0.98674 0.79578 0.83028 0.0
C624 C 0.84567 0.99364 0.59784 0.0
C625 C 0.84165 0.96041 0.62416 0.0
C626 C 0.9101 1.0259 0.65558 0.0
C627 C 0.90828 0.0598 0.63252 0.0
N628 N 0.87274 0.07691 0.58265 0.0
N629 N 0.86871 0.94439 0.67908 0.0
C630 C 0.87602 0.04394 0.60363 0.0
C631 C 0.87406 0.97617 0.65305 0.0
N632 N 0.82099 0.97689 0.56699 0.0
N633 N 0.94653 0.04134 0.67966 0.0
H634 H 0.84324 0.90766 0.67811 0.0
H635 H 0.88726 0.95487 0.70282 0.0
H636 H 0.97319 0.07758 0.68224 0.0
H637 H 0.95285 1.01802 0.69489 0.0
H638 H 0.82613 0.99883 0.5453 0.0
H639 H 0.79891 0.94018 0.56179 0.0
H640 H 0.84589 0.06751 0.56383 0.0
H641 H 0.89475 0.11417 0.58566 0.0
C642 C 0.1638 0.20797 0.87722 0.0
C643 C 0.18303 0.24524 0.90298 0.0
C644 C 0.23719 0.21685 0.92401 0.0
C645 C 0.21828 0.17985 0.89823 0.0
N646 N 0.15676 0.13298 0.85572 0.0
N647 N 0.22689 0.27592 0.95713 0.0
C648 C 0.17923 0.17306 0.87661 0.0
C649 C 0.21639 0.24682 0.92828 0.0
N650 N 0.13283 0.20728 0.8522 0.0
N651 N 0.27612 0.22436 0.9437 0.0
H652 H 0.21109 0.29718 0.96166 0.0
H653 H 0.24708 0.27523 0.97831 0.0
H654 H 0.29145 0.20223 0.94222 0.0
H655 H 0.29532 0.2544 0.95979 0.0
H656 H 0.12234 0.18487 0.83025 0.0
H657 H 0.11979 0.23133 0.85192 0.0
H658 H 0.12488 0.12297 0.84212 0.0
H659 H 0.16784 0.10734 0.85423 0.0
C660 C 0.10206 0.92175 0.65321 0.0
C661 C 0.11872 0.9012 0.62739 0.0
C662 C 1.03522 0.84717 0.60811 0.0
C663 C 1.01843 0.86732 0.63399 0.0
N664 N 1.03543 0.9308 0.67545 0.0
N665 N 0.10295 0.8559 0.57357 0.0
C666 C 0.05182 0.90701 0.65469 0.0
C667 C 0.08575 0.86749 0.60275 0.0
N668 N 0.13357 0.95333 0.67743 0.0
N669 N 1.00291 0.80734 0.58956 0.0
H670 H 0.13979 0.87123 0.56832 0.0
H671 H 0.0811 0.8354 0.55282 0.0
H672 H 0.9655 0.79178 0.59213 0.0
H673 H 1.01311 0.78751 0.57348 0.0
H674 H 0.12273 0.96493 0.69944 0.0
H675 H 0.17064 0.96602 0.67675 0.0
H676 H 0.05815 0.963 0.68845 0.0
H677 H 0.99886 0.92043 0.67733 0.0
C678 C 0.84945 0.03526 0.86371 0.0
C679 C 0.89379 0.05457 0.88216 0.0
C680 C 0.86723 0.97499 0.90846 0.0
C681 C 0.8249 0.95451 0.88724 0.0
N682 N 0.78094 0.9645 0.83923 0.0
N683 N 0.949 0.04148 0.91706 0.0
C684 C 0.81751 0.98447 0.8633 0.0
C685 C 0.90398 1.02395 0.90293 0.0
N686 N 0.83683 0.06559 0.84761 0.0
N687 N 0.87112 0.949 0.93548 0.0
H688 H 0.9766 0.07722 0.91379 0.0
H689 H 0.9602 1.01958 0.92926 0.0
H690 H 0.84407 0.91412 0.94199 0.0
H691 H 0.8989 0.96386 0.9539 0.0
H692 H 0.8025 0.05398 0.8374 0.0
H693 H 0.85904 0.10307 0.84725 0.0
H694 H 0.77765 0.98403 0.81858 0.0
H695 H 0.75661 0.9276 0.83745 0.0
C696 C 0.38697 0.20819 0.28179 0.0
C697 C 0.3959 0.17489 0.30019 0.0
C698 C 0.40566 0.14215 0.24432 0.0
C699 C 0.39408 0.17359 0.2259 0.0
N700 N 0.38624 0.24444 0.22563 0.0
N701 N 0.42859 0.12117 0.29909 0.0
C702 C 0.38935 0.20962 0.24427 0.0
C703 C 0.41083 0.14606 0.28142 0.0
N704 N 0.37388 0.23659 0.30024 0.0
N705 N 0.40752 0.10567 0.22682 0.0
H706 H 0.4315 0.12185 0.32624 0.0
H707 H 0.44492 0.10386 0.28671 0.0
H708 H 0.40468 0.10166 0.1996 0.0
H709 H 0.40885 0.07743 0.23938 0.0
H710 H 0.36134 0.2577 0.28862 0.0
H711 H 0.37426 0.23768 0.32768 0.0
H712 H 0.3858 0.27381 0.23709 0.0
H713 H 0.38817 0.24583 0.19821 0.0
C714 C 0.82102 0.62392 0.29201 0.0
C715 C 0.85341 0.66598 0.31093 0.0
C716 C 0.88011 0.71238 0.25669 0.0
C717 C 0.84503 0.67143 0.23772 0.0
N718 N 0.79335 0.58524 0.23499 0.0
N719 N 0.92919 0.74056 0.30921 0.0
C720 C 0.81972 0.6259 0.25464 0.0
C721 C 0.88869 0.7067 0.29241 0.0
N722 N 0.7895 0.58333 0.31015 0.0
N723 N 0.90168 0.75748 0.2421 0.0
H724 H 0.93681 0.73566 0.33499 0.0
H725 H 0.95756 0.76967 0.29614 0.0
H726 H 0.89509 0.76415 0.21653 0.0
H727 H 0.92333 0.78878 0.25648 0.0
H728 H 0.76088 0.55303 0.29855 0.0
H729 H 0.7917 0.58108 0.33741 0.0
H730 H 0.7762 0.55044 0.24541 0.0
H731 H 0.79229 0.58649 0.20759 0.0
C732 C 0.93071 0.27008 0.24449 0.0
C733 C 0.906 0.22604 0.22542 0.0
C734 C 0.87802 0.1809 0.28099 0.0
C735 C 0.90455 0.22473 0.30005 0.0
N736 N 0.94509 0.31219 0.29968 0.0
N737 N 0.84739 0.14144 0.22443 0.0
C738 C 0.92661 0.26962 0.28172 0.0
C739 C 0.87642 0.18206 0.24345 0.0
N740 N 0.96177 0.3121 0.22742 0.0
N741 N 0.85616 0.13805 0.29887 0.0
H742 H 0.8459 0.1419 0.19703 0.0
H743 H 0.82213 0.10861 0.23557 0.0
H744 H 0.85461 0.13642 0.32629 0.0
H745 H 0.84102 0.10435 0.28684 0.0
H746 H 0.98659 0.34364 0.24023 0.0
H747 H 0.96549 0.31504 0.20025 0.0
H748 H 0.95531 0.34521 0.28765 0.0
H749 H 0.94638 0.31454 0.3268 0.0
C750 C 0.18271 0.34051 0.74697 0.0
C751 C 0.19759 0.38396 0.72784 0.0
C752 C 0.22177 0.43009 0.78287 0.0
C753 C 0.20097 0.38608 0.80177 0.0
N754 N 0.18525 0.30429 0.80221 0.0
N755 N 0.24602 0.47037 0.72587 0.0
C756 C 0.18956 0.34289 0.7839 0.0
C757 C 0.22249 0.42906 0.74535 0.0
N758 N 0.15886 0.29673 0.73054 0.0
N759 N 0.23955 0.47237 0.80107 0.0
H760 H 0.24747 0.46942 0.69846 0.0
H761 H 0.26684 0.50471 0.73656 0.0
H762 H 0.24158 0.47316 0.82849 0.0
H763 H 0.25158 0.50593 0.78941 0.0
H764 H 0.14142 0.26395 0.744 0.0
H765 H 0.15412 0.29303 0.7035 0.0
H766 H 0.18042 0.27283 0.79025 0.0
H767 H 0.19324 0.30652 0.82886 0.0
C768 C 0.23417 0.91378 0.78324 0.0
C769 C 0.26033 0.89573 0.80193 0.0
C770 C 0.27502 0.86537 0.74661 0.0
C771 C 0.25036 0.88504 0.72811 0.0
N772 N 0.18993 0.90904 0.73049 0.0
N773 N 0.29484 0.84399 0.80314 0.0
C774 C 0.22397 0.90243 0.74709 0.0
C775 C 0.27676 0.86757 0.78414 0.0
N776 N 0.22215 0.94481 0.79908 0.0
N777 N 0.29865 0.84679 0.72802 0.0
H778 H 0.29635 0.84541 0.83055 0.0
H779 H 0.30437 0.82004 0.79214 0.0
H780 H 0.29561 0.84279 0.70074 0.0
H781 H 0.32202 0.83679 0.7393 0.0
H782 H 0.2086 0.96364 0.78532 0.0
H783 H 0.22869 0.95441 0.8255 0.0
H784 H 0.16719 0.91848 0.74372 0.0
H785 H 0.18017 0.89886 0.70447 0.0
C786 C 0.6532 0.80456 0.74446 0.0
C787 C 0.69214 0.83556 0.72216 0.0
C788 C 0.74565 0.86836 0.77258 0.0
C789 C 0.70827 0.83406 0.79466 0.0
N790 N 0.62266 0.78231 0.80421 0.0
N791 N 0.76508 0.91266 0.7177 0.0
C792 C 0.66044 0.80693 0.78154 0.0
C793 C 0.73488 0.87308 0.73718 0.0
N794 N 0.6105 0.7709 0.7298 0.0
N795 N 0.79196 0.89452 0.78474 0.0
H796 H 0.7557 0.91815 0.69264 0.0
H797 H 0.79549 0.94253 0.72815 0.0
H798 H 0.80115 0.89278 0.81078 0.0
H799 H 0.82142 0.91588 0.76849 0.0
H800 H 0.58239 0.74309 0.74395 0.0
H801 H 0.60428 0.77034 0.70281 0.0
H802 H 0.5866 0.7643 0.79638 0.0
H803 H 0.62727 0.78372 0.83137 0.0
C804 C 0.34886 1.02954 0.99572 0.0
C805 C 0.2984 0.99592 0.99404 0.0
C806 C 0.28482 0.05161 0.03148 0.0
C807 C 0.33541 0.08674 0.0303 0.0
N808 N 0.40889 0.11396 0.99625 0.0
N809 N 0.21717 0.97932 1.0069 0.0
C810 C 0.36546 0.07728 1.00793 0.0
C811 C 0.266 1.00789 1.01127 0.0
N812 N 0.38167 1.01571 0.98691 0.0
N813 N 0.25397 0.06014 0.05106 0.0
H814 H 0.20119 0.94677 0.99336 0.0
H815 H 0.19216 0.98942 0.01466 0.0
H816 H 0.2624 0.09445 0.05926 0.0
H817 H 0.21969 0.03299 0.05883 0.0
H818 H 0.41883 0.03815 0.99036 0.0
H819 H 0.37156 0.98009 0.98097 0.0
H820 H 0.43038 0.10846 0.97823 0.0
H821 H 0.41943 0.15025 0.99953 0.0
C822 C 0.76251 0.71728 0.50953 0.0
C823 C 0.81098 0.74575 0.49773 0.0
C824 C 0.81439 0.81704 0.52586 0.0
C825 C 0.76415 0.78914 0.5341 0.0
N826 N 0.6883 0.71557 0.52512 0.0
N827 N 0.88209 0.82439 0.4914 0.0
C828 C 0.73768 0.74006 0.52346 0.0
C829 C 0.83681 0.79614 0.50512 0.0
N830 N 0.74067 0.66804 0.50886 0.0
N831 N 0.84118 0.86284 0.53883 0.0
H832 H 0.90005 0.81041 0.47692 0.0
H833 H 0.90047 0.86201 0.49217 0.0
H834 H 0.82622 0.87976 0.5534 0.0
H835 H 0.87879 0.8828 0.53741 0.0
H836 H 0.70683 0.64536 0.52003 0.0
H837 H 0.75899 0.65017 0.50118 0.0
H838 H 0.66692 0.68106 0.51472 0.0
H839 H 0.66864 0.73203 0.53284 0.0
C840 C 0.06264 0.26885 0.99894 0.0
C841 C 0.08289 0.31879 0.99076 0.0
C842 C 1.01328 0.31804 0.01913 0.0
C843 C 0.99542 0.26981 0.03071 0.0
N844 N 1.00627 0.20046 0.03456 0.0
N845 N 0.08349 0.39327 1.00187 0.0
C846 C 1.02078 0.24533 0.02121 0.0
C847 C 0.05981 0.34398 1.00328 0.0
N848 N 0.08257 0.24346 0.98476 0.0
N849 N 0.98488 0.33871 0.02192 0.0
H850 H 0.11851 0.41381 0.99185 0.0
H851 H 0.07046 0.41374 0.01411 0.0
H852 H 0.94966 0.32025 0.03189 0.0
H853 H 0.99425 0.37202 1.0107 0.0
H854 H 0.06606 0.20595 0.98581 0.0
H855 H 0.11445 0.25968 0.9701 0.0
H856 H 1.02665 0.18334 0.03247 0.0
H857 H 0.97507 0.18134 0.04966 0.0
C858 C 0.35973 0.06121 0.50839 0.0
C859 C 0.33006 0.07868 0.49479 0.0
C860 C 0.26016 1.01317 0.52613 0.0
C861 C 0.28901 0.99259 0.53602 0.0
N862 N 0.36368 0.99166 0.52836 0.0
N863 N 0.25039 0.06835 0.48772 0.0
C864 C 0.33813 1.01524 0.52493 0.0
C865 C 0.2798 0.05399 0.50297 0.0
N866 N 0.40898 0.08931 0.5065 0.0
N867 N 0.21471 0.99513 0.53983 0.0
H868 H 0.26353 0.09901 0.47197 0.0
H869 H 0.21276 0.04818 0.48885 0.0
H870 H 0.19869 0.96525 0.55643 0.0
H871 H 0.19429 1.01211 0.53702 0.0
H872 H 0.43245 0.08033 0.51894 0.0
H873 H 0.4263 0.12412 0.49593 0.0
H874 H 0.39811 1.00451 0.5177 0.0
H875 H 0.34821 0.95648 0.53788 0.0
C876 C 0.78113 0.7191 1.01039 0.0
C877 C 0.7775 0.7292 0.04637 0.0
C878 C 0.73581 0.77325 0.02806 0.0
C879 C 0.74025 0.76409 0.99196 0.0
N880 N 0.74744 0.70775 0.95249 0.0
N881 N 0.72794 0.74416 0.08725 0.0
C882 C 0.75719 0.73118 0.98405 0.0
C883 C 0.74838 0.75022 0.05474 0.0
N884 N 0.80521 0.69552 1.00084 0.0
N885 N 0.7166 0.80139 0.03765 0.0
H886 H 0.72875 0.7213 0.10607 0.0
H887 H 0.70317 0.75518 0.09371 0.0
H888 H 0.69549 0.80926 0.02124 0.0
H889 H 0.72134 0.8164 0.0627 0.0
H890 H 0.81697 0.69597 0.97514 0.0
H891 H 0.81283 0.67498 0.01806 0.0
H892 H 0.75356 0.67916 0.94749 0.0
H893 H 0.72877 0.71241 0.93221 0.0
C894 C 0.06583 0.26405 0.52835 0.0
C895 C 0.08725 0.31415 0.53645 0.0
C896 C 1.02054 0.3164 0.50635 0.0
C897 C 1.0015 0.26783 0.49518 0.0
N898 N 1.00908 0.19651 0.49239 0.0
N899 N 0.09166 0.39023 0.52428 0.0
C900 C 1.02482 0.24179 0.50548 0.0
C901 C 0.06641 0.3409 0.52299 0.0
N902 N 0.0837 0.23732 0.54322 0.0
N903 N 0.9939 0.33879 0.50234 0.0
H904 H 0.12645 0.40975 0.53469 0.0
H905 H 0.08039 0.41168 0.51146 0.0
H906 H 0.95906 0.32139 0.49188 0.0
H907 H 1.00413 0.37262 0.51302 0.0
H908 H 0.06613 0.19975 0.54208 0.0
H909 H 0.11465 0.25238 0.55871 0.0
H910 H 1.02816 0.17813 0.49505 0.0
H911 H 0.97822 0.17826 0.47695 0.0
C912 C 0.5635 0.13144 0.08723 0.0
C913 C 0.59529 0.14713 0.11651 0.0
C914 C 0.53391 0.1528 0.15217 0.0
C915 C 0.50151 0.13595 0.12317 0.0
N916 N 0.48226 0.10185 0.06482 0.0
N917 N 0.6077 0.16314 0.17857 0.0
C918 C 0.51518 0.1225 0.09135 0.0
C919 C 0.5795 0.15488 0.14953 0.0
N920 N 0.58034 0.12745 0.05499 0.0
N921 N 0.52157 0.16798 0.18207 0.0
H922 H 0.64141 0.16532 0.17753 0.0
H923 H 0.5962 0.16385 0.2041 0.0
H924 H 0.48766 0.16458 0.18589 0.0
H925 H 0.54568 0.1864 0.20234 0.0
H926 H 0.56122 0.12174 0.03171 0.0
H927 H 0.61525 0.13339 0.05095 0.0
H928 H 0.48802 0.08635 0.04259 0.0
H929 H 0.44744 0.09688 0.06601 0.0
C930 C 0.66665 0.54852 0.3801 0.0
C931 C 0.70182 0.56517 0.4072 0.0
C932 C 0.65795 0.48615 0.43626 0.0
C933 C 0.62059 0.47098 0.41108 0.0
N934 N 0.58551 0.48902 0.36154 0.0
N935 N 0.72569 0.55322 0.46483 0.0
C936 C 0.6238 0.50255 0.38365 0.0
C937 C 0.69598 0.53488 0.43632 0.0
N938 N 0.67506 0.57554 0.35036 0.0
N939 N 0.65775 0.45359 0.45967 0.0
H940 H 0.75363 0.58895 0.46633 0.0
H941 H 0.71976 0.53447 0.48839 0.0
H942 H 0.6304 0.41744 0.46058 0.0
H943 H 0.68685 0.46121 0.47598 0.0
H944 H 0.6535 0.56297 0.32802 0.0
H945 H 0.70579 0.60935 0.34695 0.0
H946 H 0.5834 0.51236 0.34349 0.0
H947 H 0.55415 0.45523 0.36292 0.0
C948 C 0.89181 0.38074 0.14969 0.0
C949 C 0.92749 0.37953 0.12819 0.0
C950 C 0.92555 0.43972 0.08956 0.0
C951 C 0.89652 0.44737 0.11437 0.0
N952 N 0.82586 0.39672 0.14952 0.0
N953 N 0.98319 0.41308 0.07933 0.0
C954 C 0.8722 0.41031 0.13993 0.0
C955 C 0.94646 0.4112 0.09902 0.0
N956 N 0.87617 0.35317 0.17943 0.0
N957 N 0.92432 0.45001 0.05493 0.0
H958 H 0.9993 0.39245 0.0849 0.0
H959 H 1.00042 0.43863 0.05948 0.0
H960 H 0.89933 0.45924 0.04549 0.0
H961 H 0.94141 0.44125 0.0352 0.0
H962 H 0.85308 0.35589 0.1976 0.0
H963 H 0.89017 0.33138 0.18745 0.0
H964 H 0.80483 0.36707 0.16565 0.0
H965 H 0.80613 0.41005 0.13665 0.0
C966 C 0.52032 0.11279 0.42314 0.0
C967 C 0.51083 0.13857 0.39697 0.0
C968 C 0.59415 0.17351 0.3749 0.0
C969 C 0.60514 0.15266 0.40372 0.0
N970 N 0.5807 0.10597 0.45727 0.0
N971 N 0.53876 0.19583 0.34906 0.0
C972 C 0.56863 0.12276 0.42819 0.0
C973 C 0.54773 0.16942 0.37303 0.0
N974 N 0.48334 0.07934 0.44355 0.0
N975 N 0.62787 0.19641 0.349 0.0
H976 H 0.50468 0.19209 0.34559 0.0
H977 H 0.56557 0.2234 0.33392 0.0
H978 H 0.66236 0.20036 0.34977 0.0
H979 H 0.62059 0.20797 0.32543 0.0
H980 H 0.48681 0.05563 0.4604 0.0
H981 H 0.44789 0.07251 0.44186 0.0
H982 H 0.55727 0.08895 0.47827 0.0
H983 H 0.61555 0.11214 0.46181 0.0
C984 C 0.61256 0.51777 0.11035 0.0
C985 C 0.5944 0.48494 0.13904 0.0
C986 C 0.65588 0.5464 0.1778 0.0
C987 C 0.67367 0.57914 0.14913 0.0
N988 N 0.66242 0.60053 0.09066 0.0
N989 N 0.59164 0.47036 0.20131 0.0
C990 C 0.64954 0.56631 0.11631 0.0
C991 C 0.61383 0.50009 0.17325 0.0
N992 N 0.59659 0.50184 0.077 0.0
N993 N 0.68016 0.55921 0.20901 0.0
H994 H 0.56095 0.43627 0.19869 0.0
H995 H 0.60115 0.48075 0.22734 0.0
H996 H 0.70914 0.59387 0.21362 0.0
H997 H 0.67298 0.53527 0.22972 0.0
H998 H 0.61257 0.52236 0.05455 0.0
H999 H 0.56975 0.46655 0.07129 0.0
H1000 H 0.64315 0.59488 0.06744 0.0
H1001 H 0.68979 0.63621 0.09402 0.0
C1002 C 0.97482 0.46683 0.41952 0.0
C1003 C 0.93271 0.4662 0.407 0.0
C1004 C 0.90646 0.38755 0.37926 0.0
C1005 C 0.94429 0.38459 0.39664 0.0
N1006 N 1.01177 0.41994 0.437 0.0
N1007 N 0.85585 0.42416 0.37735 0.0
C1008 C 0.9783 0.42414 0.41733 0.0
C1009 C 0.89807 0.42632 0.38713 0.0
N1010 N 1.0116 0.50843 0.43346 0.0
N1011 N 0.87876 0.35346 0.35488 0.0
H1012 H 0.84839 0.45189 0.38225 0.0
H1013 H 0.82663 0.39338 0.36672 0.0
H1014 H 0.88346 0.32434 0.34854 0.0
H1015 H 0.85421 0.35643 0.33861 0.0
H1016 H 1.04526 0.51276 0.43982 0.0
H1017 H 1.01003 0.54019 0.43551 0.0
H1018 H 1.03327 0.44519 0.45586 0.0
H1019 H 1.01559 0.38944 0.43681 0.0
C1020 C 0.20042 0.57964 0.64333 0.0
C1021 C 0.17918 0.59197 0.61533 0.0
C1022 C 0.1332 0.50576 0.59925 0.0
C1023 C 0.14884 0.49342 0.63033 0.0
N1024 N 0.1907 0.51889 0.68545 0.0
N1025 N 0.15676 0.56739 0.55514 0.0
C1026 C 0.17999 0.53054 0.65357 0.0
C1027 C 0.15365 0.55522 0.58981 0.0
N1028 N 0.24571 0.61214 0.65472 0.0
N1029 N 0.09928 0.47055 0.57828 0.0
H1030 H 0.17976 0.60264 0.54641 0.0
H1031 H 0.14283 0.54193 0.53498 0.0
H1032 H 0.08286 0.43395 0.5844 0.0
H1033 H 0.08393 0.47829 0.5569 0.0
H1034 H 0.26426 0.60366 0.67329 0.0
H1035 H 0.26775 0.64383 0.64073 0.0
H1036 H 0.21078 0.54487 0.70438 0.0
H1037 H 0.17491 0.48312 0.694 0.0
C1038 C 0.41614 0.90991 0.93252 0.0
C1039 C 0.41359 0.93722 0.90404 0.0
C1040 C 0.49317 0.95281 0.8833 0.0
C1041 C 0.4922 0.92014 0.90899 0.0
N1042 N 0.44888 0.86138 0.95459 0.0
N1043 N 0.44749 0.98178 0.85045 0.0
C1044 C 0.45277 0.89722 0.93281 0.0
C1045 C 0.45179 0.95843 0.87905 0.0
N1046 N 0.38393 0.89674 0.95981 0.0
N1047 N 0.53381 0.97874 0.86329 0.0
H1048 H 0.41798 0.98687 0.84677 0.0
H1049 H 0.47145 0.99331 0.82927 0.0
H1050 H 0.56429 0.97491 0.86562 0.0
H1051 H 0.53879 1.00655 0.84648 0.0
H1052 H 0.38742 0.88166 0.98309 0.0
H1053 H 0.3563 0.9051 0.96076 0.0
H1054 H 0.41794 0.8394 0.96932 0.0
H1055 H 0.47459 0.8504 0.95569 0.0
C1056 C 0.56525 0.64385 0.65183 0.0
C1057 C 0.58254 0.67915 0.62471 0.0
C1058 C 0.50428 0.63474 0.59461 0.0
C1059 C 0.48826 0.59756 0.62017 0.0
N1060 N 0.50495 0.56291 0.6706 0.0
N1061 N 0.57202 0.70316 0.56672 0.0
C1062 C 0.51923 0.60098 0.64808 0.0
C1063 C 0.553 0.67312 0.5951 0.0
N1064 N 0.5917 0.65226 0.68182 0.0
N1065 N 0.47243 0.63431 0.57044 0.0
H1066 H 0.60752 0.73177 0.56578 0.0
H1067 H 0.55413 0.69708 0.54279 0.0
H1068 H 0.43641 0.60675 0.5689 0.0
H1069 H 0.48041 0.66334 0.55391 0.0
H1070 H 0.57877 0.63068 0.70418 0.0
H1071 H 0.62546 0.68303 0.68537 0.0
H1072 H 0.52768 0.56089 0.68923 0.0
H1073 H 0.4712 0.53156 0.66895 0.0
C1074 C 0.123 0.5521 0.92248 0.0
C1075 C 0.15817 0.5886 0.90028 0.0
C1076 C 0.16399 0.52625 0.86635 0.0
C1077 C 0.13635 0.49146 0.89234 0.0
N1078 N 0.08655 0.46978 0.94436 0.0
N1079 N 0.21324 0.61103 0.85116 0.0
C1080 C 0.11421 0.50374 0.91987 0.0
C1081 C 0.17849 0.57576 0.8719 0.0
N1082 N 0.09785 0.56382 0.94585 0.0
N1083 N 0.17507 0.51137 0.83584 0.0
H1084 H 0.22404 0.64753 0.85389 0.0
H1085 H 0.23353 0.60449 0.83274 0.0
H1086 H 0.16263 0.47492 0.83076 0.0
H1087 H 0.19146 0.53393 0.81433 0.0
H1088 H 0.06859 0.53849 0.96061 0.0
H1089 H 0.10372 0.59887 0.94839 0.0
H1090 H 0.07454 0.47755 0.96761 0.0
H1091 H 0.0768 0.43357 0.94193 0.0
C1092 C 0.43958 0.94655 0.64965 0.0
C1093 C 0.40129 0.9252 0.6249 0.0
C1094 C 0.44284 0.88835 0.59435 0.0
C1095 C 0.4828 0.91263 0.61733 0.0
N1096 N 0.52277 0.97009 0.66386 0.0
N1097 N 0.37183 0.88484 0.56915 0.0
C1098 C 0.48224 0.94335 0.64413 0.0
C1099 C 0.40447 0.89864 0.59598 0.0
N1100 N 0.43435 0.96799 0.67915 0.0
N1101 N 0.44078 0.85422 0.57155 0.0
H1102 H 0.34355 0.89224 0.56881 0.0
H1103 H 0.37553 0.87035 0.54558 0.0
H1104 H 0.46823 0.84568 0.56924 0.0
H1105 H 0.40999 0.83124 0.55718 0.0
H1106 H 0.45853 0.97954 0.70006 0.0
H1107 H 0.40378 0.971 0.68397 0.0
H1108 H 0.52666 0.99698 0.68125 0.0
H1109 H 0.55407 0.96777 0.66092 0.0
C1110 C 0.55771 0.64068 0.85957 0.0
C1111 C 0.58908 0.6568 0.88896 0.0
C1112 C 0.52451 0.59599 0.92642 0.0
C1113 C 0.49241 0.58089 0.89734 0.0
N1114 N 0.48026 0.58077 0.83496 0.0
N1115 N 0.60708 0.64266 0.94758 0.0
C1116 C 0.50975 0.60064 0.8634 0.0
C1117 C 0.57397 0.63176 0.92142 0.0
N1118 N 0.57353 0.66484 0.82839 0.0
N1119 N 0.50706 0.57831 0.95926 0.0
H1120 H 0.64333 0.66908 0.94472 0.0
H1121 H 0.59991 0.62284 0.97072 0.0
H1122 H 0.47133 0.55163 0.96405 0.0
H1123 H 0.527 0.59212 0.98219 0.0
H1124 H 0.55129 0.65921 0.80687 0.0
H1125 H 0.60939 0.69197 0.82448 0.0
H1126 H 0.49148 0.5906 0.80907 0.0
H1127 H 0.44512 0.55152 0.83716 0.0
loop_
_geom_bond_atom_site_label_1
_geom_bond_atom_site_label_2
_geom_bond_distance
_geom_bond_site_symmetry_2
_ccdc_geom_bond_type
Sm0 C2 2.846 . S
Sm0 O20 2.543 . S
Sm0 O21 2.450 . S
Sm0 O22 2.681 . S
Sm0 O23 2.464 . S
Sm0 O24 2.396 . S
Sm0 O28 2.386 . S
Sm0 O31 2.408 . S
Sm1 C11 2.846 1_545 S
Sm1 O22 2.386 . S
Sm1 O25 2.408 . S
Sm1 O26 2.543 . S
Sm1 O27 2.450 . S
Sm1 O28 2.681 . S
Sm1 O29 2.464 . S
Sm1 O30 2.396 . S
C2 Sm0 2.846 . S
C2 C3 1.506 . S
C2 O20 1.261 . S
C2 O21 1.242 . S
C3 C2 1.506 . S
C3 C4 1.358 . S
C3 C8 1.382 . S
C4 C3 1.358 . S
C4 C5 1.385 . S
C4 H32 0.930 . S
C5 C4 1.385 . S
C5 C6 1.395 . S
C5 H33 0.929 . S
C6 C5 1.395 . S
C6 C7 1.335 . S
C7 C6 1.335 . S
C7 C8 1.398 . S
C7 H34 0.930 . S
C8 C3 1.382 . S
C8 C7 1.398 . S
C8 H35 0.929 . S
C9 O22 1.271 . S
C9 O23 1.251 . S
C10 O24 1.252 . S
C10 O25 1.272 . S
C11 Sm1 2.846 1_565 S
C11 C12 1.506 . S
C11 O26 1.261 1_565 S
C11 O27 1.242 1_565 S
C12 C11 1.506 . S
C12 C13 1.358 . S
C12 C17 1.382 . S
C13 C12 1.358 . S
C13 C14 1.385 . S
C13 H36 0.930 . S
C14 C13 1.385 . S
C14 C15 1.395 . S
C14 H37 0.929 . S
C15 C14 1.395 . S
C15 C16 1.335 . S
C16 C15 1.335 . S
C16 C17 1.398 . S
C16 H38 0.930 . S
C17 C12 1.382 . S
C17 C16 1.398 . S
C17 H39 0.929 . S
C18 O28 1.271 . S
C18 O29 1.251 . S
C19 O30 1.252 . S
C19 O31 1.272 . S
O20 Sm0 2.543 . S
O20 C2 1.261 . S
O21 Sm0 2.450 . S
O21 C2 1.242 . S
O22 Sm0 2.681 . S
O22 Sm1 2.386 . S
O22 C9 1.271 . S
O23 Sm0 2.464 . S
O23 C9 1.251 . S
O24 Sm0 2.396 . S
O24 C10 1.252 . S
O25 Sm1 2.408 . S
O25 C10 1.272 . S
O26 Sm1 2.543 . S
O26 C11 1.261 1_545 S
O27 Sm1 2.450 . S
O27 C11 1.242 1_545 S
O28 Sm0 2.386 . S
O28 Sm1 2.681 . S
O28 C18 1.271 . S
O29 Sm1 2.464 . S
O29 C18 1.251 . S
O30 Sm1 2.396 . S
O30 C19 1.252 . S
O31 Sm0 2.408 . S
O31 C19 1.272 . S
H32 C4 0.930 . S
H33 C5 0.929 . S
H34 C7 0.930 . S
H35 C8 0.929 . S
H36 C13 0.930 . S
H37 C14 0.929 . S
H38 C16 0.930 . S
H39 C17 0.929 . S
Sm40 C42 2.846 . S
Sm40 O60 2.543 . S
Sm40 O61 2.450 . S
Sm40 O62 2.681 . S
Sm40 O63 2.464 . S
Sm40 O64 2.396 . S
Sm40 O68 2.386 . S
Sm40 O71 2.408 . S
Sm41 C51 2.846 . S
Sm41 O62 2.386 . S
Sm41 O65 2.408 . S
Sm41 O66 2.543 . S
Sm41 O67 2.450 . S
Sm41 O68 2.681 . S
Sm41 O69 2.464 . S
Sm41 O70 2.396 . S
C42 Sm40 2.846 . S
C42 C43 1.506 . S
C42 O60 1.261 . S
C42 O61 1.242 . S
C43 C42 1.506 . S
C43 C44 1.358 . S
C43 C48 1.382 . S
C44 C43 1.358 . S
C44 C45 1.385 . S
C44 H72 0.930 . S
C45 C44 1.385 . S
C45 C46 1.395 . S
C45 H73 0.929 . S
C46 C45 1.395 . S
C46 C47 1.335 . S
C47 C46 1.335 . S
C47 C48 1.398 . S
C47 H74 0.930 . S
C48 C43 1.382 . S
C48 C47 1.398 . S
C48 H75 0.929 . S
C49 O62 1.271 . S
C49 O63 1.251 . S
C50 O64 1.252 . S
C50 O65 1.272 . S
C51 Sm41 2.846 . S
C51 C52 1.506 . S
C51 O66 1.261 . S
C51 O67 1.242 . S
C52 C51 1.506 . S
C52 C53 1.358 . S
C52 C57 1.382 . S
C53 C52 1.358 . S
C53 C54 1.385 . S
C53 H76 0.930 . S
C54 C53 1.385 . S
C54 C55 1.395 . S
C54 H77 0.929 . S
C55 C54 1.395 . S
C55 C56 1.335 . S
C56 C55 1.335 . S
C56 C57 1.398 . S
C56 H78 0.930 . S
C57 C52 1.382 . S
C57 C56 1.398 . S
C57 H79 0.929 . S
C58 O68 1.271 . S
C58 O69 1.251 . S
C59 O70 1.252 . S
C59 O71 1.272 . S
O60 Sm40 2.543 . S
O60 C42 1.261 . S
O61 Sm40 2.450 . S
O61 C42 1.242 . S
O62 Sm40 2.681 . S
O62 Sm41 2.386 . S
O62 C49 1.271 . S
O63 Sm40 2.464 . S
O63 C49 1.251 . S
O64 Sm40 2.396 . S
O64 C50 1.252 . S
O65 Sm41 2.408 . S
O65 C50 1.272 . S
O66 Sm41 2.543 . S
O66 C51 1.261 . S
O67 Sm41 2.450 . S
O67 C51 1.242 . S
O68 Sm40 2.386 . S
O68 Sm41 2.681 . S
O68 C58 1.271 . S
O69 Sm41 2.464 . S
O69 C58 1.251 . S
O70 Sm41 2.396 . S
O70 C59 1.252 . S
O71 Sm40 2.408 . S
O71 C59 1.272 . S
H72 C44 0.930 . S
H73 C45 0.929 . S
H74 C47 0.930 . S
H75 C48 0.929 . S
H76 C53 0.930 . S
H77 C54 0.929 . S
H78 C56 0.930 . S
H79 C57 0.929 . S
Sm80 C82 2.846 . S
Sm80 O100 2.543 . S
Sm80 O101 2.450 . S
Sm80 O102 2.681 . S
Sm80 O103 2.464 . S
Sm80 O104 2.396 . S
Sm80 O108 2.386 . S
Sm80 O111 2.408 . S
Sm81 C91 2.846 1_655 S
Sm81 O102 2.386 . S
Sm81 O105 2.408 . S
Sm81 O106 2.543 . S
Sm81 O107 2.450 . S
Sm81 O108 2.681 . S
Sm81 O109 2.464 . S
Sm81 O110 2.396 . S
C82 Sm80 2.846 . S
C82 C83 1.506 . S
C82 O100 1.261 . S
C82 O101 1.242 . S
C83 C82 1.506 . S
C83 C84 1.358 . S
C83 C88 1.382 . S
C84 C83 1.358 . S
C84 C85 1.385 . S
C84 H112 0.930 . S
C85 C84 1.385 . S
C85 C86 1.395 . S
C85 H113 0.929 . S
C86 C85 1.395 . S
C86 C87 1.335 . S
C87 C86 1.335 . S
C87 C88 1.398 . S
C87 H114 0.930 . S
C88 C83 1.382 . S
C88 C87 1.398 . S
C88 H115 0.929 . S
C89 O102 1.271 . S
C89 O103 1.251 . S
C90 O104 1.252 . S
C90 O105 1.272 . S
C91 Sm81 2.846 1_455 S
C91 C92 1.506 . S
C91 O106 1.261 1_455 S
C91 O107 1.242 1_455 S
C92 C91 1.506 . S
C92 C93 1.358 . S
C92 C97 1.382 . S
C93 C92 1.358 . S
C93 C94 1.385 . S
C93 H116 0.930 . S
C94 C93 1.385 . S
C94 C95 1.395 . S
C94 H117 0.929 . S
C95 C94 1.395 . S
C95 C96 1.335 . S
C96 C95 1.335 . S
C96 C97 1.398 . S
C96 H118 0.930 . S
C97 C92 1.382 . S
C97 C96 1.398 . S
C97 H119 0.929 . S
C98 O108 1.271 . S
C98 O109 1.251 . S
C99 O110 1.252 . S
C99 O111 1.272 . S
O100 Sm80 2.543 . S
O100 C82 1.261 . S
O101 Sm80 2.450 . S
O101 C82 1.242 . S
O102 Sm80 2.681 . S
O102 Sm81 2.386 . S
O102 C89 1.271 . S
O103 Sm80 2.464 . S
O103 C89 1.251 . S
O104 Sm80 2.396 . S
O104 C90 1.252 . S
O105 Sm81 2.408 . S
O105 C90 1.272 . S
O106 Sm81 2.543 . S
O106 C91 1.261 1_655 S
O107 Sm81 2.450 . S
O107 C91 1.242 1_655 S
O108 Sm80 2.386 . S
O108 Sm81 2.681 . S
O108 C98 1.271 . S
O109 Sm81 2.464 . S
O109 C98 1.251 . S
O110 Sm81 2.396 . S
O110 C99 1.252 . S
O111 Sm80 2.408 . S
O111 C99 1.272 . S
H112 C84 0.930 . S
H113 C85 0.929 . S
H114 C87 0.930 . S
H115 C88 0.929 . S
H116 C93 0.930 . S
H117 C94 0.929 . S
H118 C96 0.930 . S
H119 C97 0.929 . S
Sm120 C122 2.846 1_545 S
Sm120 O140 2.543 . S
Sm120 O141 2.450 . S
Sm120 O142 2.681 . S
Sm120 O143 2.464 . S
Sm120 O144 2.396 . S
Sm120 O148 2.386 . S
Sm120 O151 2.408 . S
Sm121 C131 2.846 . S
Sm121 O142 2.386 . S
Sm121 O145 2.408 . S
Sm121 O146 2.543 . S
Sm121 O147 2.450 . S
Sm121 O148 2.681 . S
Sm121 O149 2.464 . S
Sm121 O150 2.396 . S
C122 Sm120 2.846 1_565 S
C122 C123 1.506 . S
C122 O140 1.261 1_565 S
C122 O141 1.242 1_565 S
C123 C122 1.506 . S
C123 C124 1.358 . S
C123 C128 1.382 . S
C124 C123 1.358 . S
C124 C125 1.385 . S
C124 H152 0.930 . S
C125 C124 1.385 . S
C125 C126 1.395 . S
C125 H153 0.929 . S
C126 C125 1.395 . S
C126 C127 1.335 . S
C127 C126 1.335 . S
C127 C128 1.398 . S
C127 H154 0.930 . S
C128 C123 1.382 . S
C128 C127 1.398 . S
C128 H155 0.929 . S
C129 O142 1.271 . S
C129 O143 1.251 . S
C130 O144 1.252 . S
C130 O145 1.272 . S
C131 Sm121 2.846 . S
C131 C132 1.506 . S
C131 O146 1.261 . S
C131 O147 1.242 . S
C132 C131 1.506 . S
C132 C133 1.358 . S
C132 C137 1.382 . S
C133 C132 1.358 . S
C133 C134 1.385 . S
C133 H156 0.930 . S
C134 C133 1.385 . S
C134 C135 1.395 . S
C134 H157 0.929 . S
C135 C134 1.395 . S
C135 C136 1.335 . S
C136 C135 1.335 . S
C136 C137 1.398 . S
C136 H158 0.930 . S
C137 C132 1.382 . S
C137 C136 1.398 . S
C137 H159 0.929 . S
C138 O148 1.271 . S
C138 O149 1.251 . S
C139 O150 1.252 . S
C139 O151 1.272 . S
O140 Sm120 2.543 . S
O140 C122 1.261 1_545 S
O141 Sm120 2.450 . S
O141 C122 1.242 1_545 S
O142 Sm120 2.681 . S
O142 Sm121 2.386 . S
O142 C129 1.271 . S
O143 Sm120 2.464 . S
O143 C129 1.251 . S
O144 Sm120 2.396 . S
O144 C130 1.252 . S
O145 Sm121 2.408 . S
O145 C130 1.272 . S
O146 Sm121 2.543 . S
O146 C131 1.261 . S
O147 Sm121 2.450 . S
O147 C131 1.242 . S
O148 Sm120 2.386 . S
O148 Sm121 2.681 . S
O148 C138 1.271 . S
O149 Sm121 2.464 . S
O149 C138 1.251 . S
O150 Sm121 2.396 . S
O150 C139 1.252 . S
O151 Sm120 2.408 . S
O151 C139 1.272 . S
H152 C124 0.930 . S
H153 C125 0.929 . S
H154 C127 0.930 . S
H155 C128 0.929 . S
H156 C133 0.930 . S
H157 C134 0.929 . S
H158 C136 0.930 . S
H159 C137 0.929 . S
Sm160 C162 2.846 . S
Sm160 O180 2.543 . S
Sm160 O181 2.450 . S
Sm160 O182 2.681 . S
Sm160 O183 2.464 . S
Sm160 O184 2.396 . S
Sm160 O188 2.386 . S
Sm160 O191 2.408 . S
Sm161 C171 2.846 . S
Sm161 O182 2.386 . S
Sm161 O185 2.408 . S
Sm161 O186 2.543 . S
Sm161 O187 2.450 . S
Sm161 O188 2.681 . S
Sm161 O189 2.464 . S
Sm161 O190 2.396 . S
C162 Sm160 2.846 . S
C162 C163 1.506 . S
C162 O180 1.261 . S
C162 O181 1.242 . S
C163 C162 1.506 . S
C163 C164 1.358 . S
C163 C168 1.382 . S
C164 C163 1.358 . S
C164 C165 1.385 . S
C164 H192 0.930 . S
C165 C164 1.385 . S
C165 C166 1.395 . S
C165 H193 0.929 . S
C166 C165 1.395 . S
C166 C167 1.335 . S
C167 C166 1.335 . S
C167 C168 1.398 . S
C167 H194 0.930 . S
C168 C163 1.382 . S
C168 C167 1.398 . S
C168 H195 0.929 . S
C169 O182 1.271 . S
C169 O183 1.251 . S
C170 O184 1.252 . S
C170 O185 1.272 . S
C171 Sm161 2.846 . S
C171 C172 1.506 . S
C171 O186 1.261 . S
C171 O187 1.242 . S
C172 C171 1.506 . S
C172 C173 1.358 . S
C172 C177 1.382 . S
C173 C172 1.358 . S
C173 C174 1.385 . S
C173 H196 0.930 . S
C174 C173 1.385 . S
C174 C175 1.395 . S
C174 H197 0.929 . S
C175 C174 1.395 . S
C175 C176 1.335 . S
C176 C175 1.335 . S
C176 C177 1.398 . S
C176 H198 0.930 . S
C177 C172 1.382 . S
C177 C176 1.398 . S
C177 H199 0.929 . S
C178 O188 1.271 . S
C178 O189 1.251 . S
C179 O190 1.252 . S
C179 O191 1.272 . S
O180 Sm160 2.543 . S
O180 C162 1.261 . S
O181 Sm160 2.450 . S
O181 C162 1.242 . S
O182 Sm160 2.681 . S
O182 Sm161 2.386 . S
O182 C169 1.271 . S
O183 Sm160 2.464 . S
O183 C169 1.251 . S
O184 Sm160 2.396 . S
O184 C170 1.252 . S
O185 Sm161 2.408 . S
O185 C170 1.272 . S
O186 Sm161 2.543 . S
O186 C171 1.261 . S
O187 Sm161 2.450 . S
O187 C171 1.242 . S
O188 Sm160 2.386 . S
O188 Sm161 2.681 . S
O188 C178 1.271 . S
O189 Sm161 2.464 . S
O189 C178 1.251 . S
O190 Sm161 2.396 . S
O190 C179 1.252 . S
O191 Sm160 2.408 . S
O191 C179 1.272 . S
H192 C164 0.930 . S
H193 C165 0.929 . S
H194 C167 0.930 . S
H195 C168 0.929 . S
H196 C173 0.930 . S
H197 C174 0.929 . S
H198 C176 0.930 . S
H199 C177 0.929 . S
Sm200 C202 2.846 1_655 S
Sm200 O220 2.543 . S
Sm200 O221 2.450 . S
Sm200 O222 2.681 . S
Sm200 O223 2.464 . S
Sm200 O224 2.396 . S
Sm200 O228 2.386 . S
Sm200 O231 2.408 . S
Sm201 C211 2.846 . S
Sm201 O222 2.386 . S
Sm201 O225 2.408 . S
Sm201 O226 2.543 . S
Sm201 O227 2.450 . S
Sm201 O228 2.681 . S
Sm201 O229 2.464 . S
Sm201 O230 2.396 . S
C202 Sm200 2.846 1_455 S
C202 C203 1.506 . S
C202 O220 1.261 1_455 S
C202 O221 1.242 1_455 S
C203 C202 1.506 . S
C203 C204 1.358 . S
C203 C208 1.382 . S
C204 C203 1.358 . S
C204 C205 1.385 . S
C204 H232 0.930 . S
C205 C204 1.385 . S
C205 C206 1.395 . S
C205 H233 0.929 . S
C206 C205 1.395 . S
C206 C207 1.335 . S
C207 C206 1.335 . S
C207 C208 1.398 . S
C207 H234 0.930 . S
C208 C203 1.382 . S
C208 C207 1.398 . S
C208 H235 0.929 . S
C209 O222 1.271 . S
C209 O223 1.251 . S
C210 O224 1.252 . S
C210 O225 1.272 . S
C211 Sm201 2.846 . S
C211 C212 1.506 . S
C211 O226 1.261 . S
C211 O227 1.242 . S
C212 C211 1.506 . S
C212 C213 1.358 . S
C212 C217 1.382 . S
C213 C212 1.358 . S
C213 C214 1.385 . S
C213 H236 0.930 . S
C214 C213 1.385 . S
C214 C215 1.395 . S
C214 H237 0.929 . S
C215 C214 1.395 . S
C215 C216 1.335 . S
C216 C215 1.335 . S
C216 C217 1.398 . S
C216 H238 0.930 . S
C217 C212 1.382 . S
C217 C216 1.398 . S
C217 H239 0.929 . S
C218 O228 1.271 . S
C218 O229 1.251 . S
C219 O230 1.252 . S
C219 O231 1.272 . S
O220 Sm200 2.543 . S
O220 C202 1.261 1_655 S
O221 Sm200 2.450 . S
O221 C202 1.242 1_655 S
O222 Sm200 2.681 . S
O222 Sm201 2.386 . S
O222 C209 1.271 . S
O223 Sm200 2.464 . S
O223 C209 1.251 . S
O224 Sm200 2.396 . S
O224 C210 1.252 . S
O225 Sm201 2.408 . S
O225 C210 1.272 . S
O226 Sm201 2.543 . S
O226 C211 1.261 . S
O227 Sm201 2.450 . S
O227 C211 1.242 . S
O228 Sm200 2.386 . S
O228 Sm201 2.681 . S
O228 C218 1.271 . S
O229 Sm201 2.464 . S
O229 C218 1.251 . S
O230 Sm201 2.396 . S
O230 C219 1.252 . S
O231 Sm200 2.408 . S
O231 C219 1.272 . S
H232 C204 0.930 . S
H233 C205 0.929 . S
H234 C207 0.930 . S
H235 C208 0.929 . S
H236 C213 0.930 . S
H237 C214 0.929 . S
H238 C216 0.930 . S
H239 C217 0.929 . S
Sm240 C242 2.846 1_455 S
Sm240 O260 2.543 . S
Sm240 O261 2.450 . S
Sm240 O262 2.681 . S
Sm240 O263 2.464 . S
Sm240 O264 2.396 . S
Sm240 O268 2.386 . S
Sm240 O271 2.408 . S
Sm241 C251 2.846 . S
Sm241 O262 2.386 . S
Sm241 O265 2.408 . S
Sm241 O266 2.543 . S
Sm241 O267 2.450 . S
Sm241 O268 2.681 . S
Sm241 O269 2.464 . S
Sm241 O270 2.396 . S
C242 Sm240 2.846 1_655 S
C242 C243 1.506 . S
C242 O260 1.261 1_655 S
C242 O261 1.242 1_655 S
C243 C242 1.506 . S
C243 C244 1.358 . S
C243 C248 1.382 . S
C244 C243 1.358 . S
C244 C245 1.385 . S
C244 H272 0.930 . S
C245 C244 1.385 . S
C245 C246 1.395 . S
C245 H273 0.929 . S
C246 C245 1.395 . S
C246 C247 1.335 . S
C247 C246 1.335 . S
C247 C248 1.398 . S
C247 H274 0.930 . S
C248 C243 1.382 . S
C248 C247 1.398 . S
C248 H275 0.929 . S
C249 O262 1.271 . S
C249 O263 1.251 . S
C250 O264 1.252 . S
C250 O265 1.272 . S
C251 Sm241 2.846 . S
C251 C252 1.506 . S
C251 O266 1.261 . S
C251 O267 1.242 . S
C252 C251 1.506 . S
C252 C253 1.358 . S
C252 C257 1.382 . S
C253 C252 1.358 . S
C253 C254 1.385 . S
C253 H276 0.930 . S
C254 C253 1.385 . S
C254 C255 1.395 . S
C254 H277 0.929 . S
C255 C254 1.395 . S
C255 C256 1.335 . S
C256 C255 1.335 . S
C256 C257 1.398 . S
C256 H278 0.930 . S
C257 C252 1.382 . S
C257 C256 1.398 . S
C257 H279 0.929 . S
C258 O268 1.271 . S
C258 O269 1.251 . S
C259 O270 1.252 . S
C259 O271 1.272 . S
O260 Sm240 2.543 . S
O260 C242 1.261 1_455 S
O261 Sm240 2.450 . S
O261 C242 1.242 1_455 S
O262 Sm240 2.681 . S
O262 Sm241 2.386 . S
O262 C249 1.271 . S
O263 Sm240 2.464 . S
O263 C249 1.251 . S
O264 Sm240 2.396 . S
O264 C250 1.252 . S
O265 Sm241 2.408 . S
O265 C250 1.272 . S
O266 Sm241 2.543 . S
O266 C251 1.261 . S
O267 Sm241 2.450 . S
O267 C251 1.242 . S
O268 Sm240 2.386 . S
O268 Sm241 2.681 . S
O268 C258 1.271 . S
O269 Sm241 2.464 . S
O269 C258 1.251 . S
O270 Sm241 2.396 . S
O270 C259 1.252 . S
O271 Sm240 2.408 . S
O271 C259 1.272 . S
H272 C244 0.930 . S
H273 C245 0.929 . S
H274 C247 0.930 . S
H275 C248 0.929 . S
H276 C253 0.930 . S
H277 C254 0.929 . S
H278 C256 0.930 . S
H279 C257 0.929 . S
Sm280 C282 2.846 . S
Sm280 O300 2.543 . S
Sm280 O301 2.450 . S
Sm280 O302 2.681 . S
Sm280 O303 2.464 . S
Sm280 O304 2.396 . S
Sm280 O308 2.386 . S
Sm280 O311 2.408 . S
Sm281 C291 2.846 1_565 S
Sm281 O302 2.386 . S
Sm281 O305 2.408 . S
Sm281 O306 2.543 . S
Sm281 O307 2.450 . S
Sm281 O308 2.681 . S
Sm281 O309 2.464 . S
Sm281 O310 2.396 . S
C282 Sm280 2.846 . S
C282 C283 1.506 . S
C282 O300 1.261 . S
C282 O301 1.242 . S
C283 C282 1.506 . S
C283 C284 1.358 . S
C283 C288 1.382 . S
C284 C283 1.358 . S
C284 C285 1.385 . S
C284 H312 0.930 . S
C285 C284 1.385 . S
C285 C286 1.395 . S
C285 H313 0.929 . S
C286 C285 1.395 . S
C286 C287 1.335 . S
C287 C286 1.335 . S
C287 C288 1.398 . S
C287 H314 0.930 . S
C288 C283 1.382 . S
C288 C287 1.398 . S
C288 H315 0.929 . S
C289 O302 1.271 . S
C289 O303 1.251 . S
C290 O304 1.252 . S
C290 O305 1.272 . S
C291 Sm281 2.846 1_545 S
C291 C292 1.506 . S
C291 O306 1.261 1_545 S
C291 O307 1.242 1_545 S
C292 C291 1.506 . S
C292 C293 1.358 . S
C292 C297 1.382 . S
C293 C292 1.358 . S
C293 C294 1.385 . S
C293 H316 0.930 . S
C294 C293 1.385 . S
C294 C295 1.395 . S
C294 H317 0.929 . S
C295 C294 1.395 . S
C295 C296 1.335 . S
C296 C295 1.335 . S
C296 C297 1.398 . S
C296 H318 0.930 . S
C297 C292 1.382 . S
C297 C296 1.398 . S
C297 H319 0.929 . S
C298 O308 1.271 . S
C298 O309 1.251 . S
C299 O310 1.252 . S
C299 O311 1.272 . S
O300 Sm280 2.543 . S
O300 C282 1.261 . S
O301 Sm280 2.450 . S
O301 C282 1.242 . S
O302 Sm280 2.681 . S
O302 Sm281 2.386 . S
O302 C289 1.271 . S
O303 Sm280 2.464 . S
O303 C289 1.251 . S
O304 Sm280 2.396 . S
O304 C290 1.252 . S
O305 Sm281 2.408 . S
O305 C290 1.272 . S
O306 Sm281 2.543 . S
O306 C291 1.261 1_565 S
O307 Sm281 2.450 . S
O307 C291 1.242 1_565 S
O308 Sm280 2.386 . S
O308 Sm281 2.681 . S
O308 C298 1.271 . S
O309 Sm281 2.464 . S
O309 C298 1.251 . S
O310 Sm281 2.396 . S
O310 C299 1.252 . S
O311 Sm280 2.408 . S
O311 C299 1.272 . S
H312 C284 0.930 . S
H313 C285 0.929 . S
H314 C287 0.930 . S
H315 C288 0.929 . S
H316 C293 0.930 . S
H317 C294 0.929 . S
H318 C296 0.930 . S
H319 C297 0.929 . S
Sm320 C322 2.846 . S
Sm320 O340 2.543 . S
Sm320 O341 2.450 . S
Sm320 O342 2.681 . S
Sm320 O343 2.464 . S
Sm320 O344 2.396 . S
Sm320 O348 2.386 . S
Sm320 O351 2.408 . S
Sm321 C331 2.846 . S
Sm321 O342 2.386 . S
Sm321 O345 2.408 . S
Sm321 O346 2.543 . S
Sm321 O347 2.450 . S
Sm321 O348 2.681 . S
Sm321 O349 2.464 . S
Sm321 O350 2.396 . S
C322 Sm320 2.846 . S
C322 C323 1.506 . S
C322 O340 1.261 . S
C322 O341 1.242 . S
C323 C322 1.506 . S
C323 C324 1.358 . S
C323 C328 1.382 . S
C324 C323 1.358 . S
C324 C325 1.385 . S
C324 H352 0.930 . S
C325 C324 1.385 . S
C325 C326 1.395 . S
C325 H353 0.929 . S
C326 C325 1.395 . S
C326 C327 1.335 . S
C327 C326 1.335 . S
C327 C328 1.398 . S
C327 H354 0.930 . S
C328 C323 1.382 . S
C328 C327 1.398 . S
C328 H355 0.929 . S
C329 O342 1.271 . S
C329 O343 1.251 . S
C330 O344 1.252 . S
C330 O345 1.272 . S
C331 Sm321 2.846 . S
C331 C332 1.506 . S
C331 O346 1.261 . S
C331 O347 1.242 . S
C332 C331 1.506 . S
C332 C333 1.358 . S
C332 C337 1.382 . S
C333 C332 1.358 . S
C333 C334 1.385 . S
C333 H356 0.930 . S
C334 C333 1.385 . S
C334 C335 1.395 . S
C334 H357 0.929 . S
C335 C334 1.395 . S
C335 C336 1.335 . S
C336 C335 1.335 . S
C336 C337 1.398 . S
C336 H358 0.930 . S
C337 C332 1.382 . S
C337 C336 1.398 . S
C337 H359 0.929 . S
C338 O348 1.271 . S
C338 O349 1.251 . S
C339 O350 1.252 . S
C339 O351 1.272 . S
O340 Sm320 2.543 . S
O340 C322 1.261 . S
O341 Sm320 2.450 . S
O341 C322 1.242 . S
O342 Sm320 2.681 . S
O342 Sm321 2.386 . S
O342 C329 1.271 . S
O343 Sm320 2.464 . S
O343 C329 1.251 . S
O344 Sm320 2.396 . S
O344 C330 1.252 . S
O345 Sm321 2.408 . S
O345 C330 1.272 . S
O346 Sm321 2.543 . S
O346 C331 1.261 . S
O347 Sm321 2.450 . S
O347 C331 1.242 . S
O348 Sm320 2.386 . S
O348 Sm321 2.681 . S
O348 C338 1.271 . S
O349 Sm321 2.464 . S
O349 C338 1.251 . S
O350 Sm321 2.396 . S
O350 C339 1.252 . S
O351 Sm320 2.408 . S
O351 C339 1.272 . S
H352 C324 0.930 . S
H353 C325 0.929 . S
H354 C327 0.930 . S
H355 C328 0.929 . S
H356 C333 0.930 . S
H357 C334 0.929 . S
H358 C336 0.930 . S
H359 C337 0.929 . S
Sm360 C362 2.846 . S
Sm360 O380 2.543 . S
Sm360 O381 2.450 . S
Sm360 O382 2.681 . S
Sm360 O383 2.464 . S
Sm360 O384 2.396 . S
Sm360 O388 2.386 . S
Sm360 O391 2.408 . S
Sm361 C371 2.846 1_455 S
Sm361 O382 2.386 . S
Sm361 O385 2.408 . S
Sm361 O386 2.543 . S
Sm361 O387 2.450 . S
Sm361 O388 2.681 . S
Sm361 O389 2.464 . S
Sm361 O390 2.396 . S
C362 Sm360 2.846 . S
C362 C363 1.506 . S
C362 O380 1.261 . S
C362 O381 1.242 . S
C363 C362 1.506 . S
C363 C364 1.358 . S
C363 C368 1.382 . S
C364 C363 1.358 . S
C364 C365 1.385 . S
C364 H392 0.930 . S
C365 C364 1.385 . S
C365 C366 1.395 . S
C365 H393 0.929 . S
C366 C365 1.395 . S
C366 C367 1.335 . S
C367 C366 1.335 . S
C367 C368 1.398 . S
C367 H394 0.930 . S
C368 C363 1.382 . S
C368 C367 1.398 . S
C368 H395 0.929 . S
C369 O382 1.271 . S
C369 O383 1.251 . S
C370 O384 1.252 . S
C370 O385 1.272 . S
C371 Sm361 2.846 1_655 S
C371 C372 1.506 . S
C371 O386 1.261 1_655 S
C371 O387 1.242 1_655 S
C372 C371 1.506 . S
C372 C373 1.358 . S
C372 C377 1.382 . S
C373 C372 1.358 . S
C373 C374 1.385 . S
C373 H396 0.930 . S
C374 C373 1.385 . S
C374 C375 1.395 . S
C374 H397 0.929 . S
C375 C374 1.395 . S
C375 C376 1.335 . S
C376 C375 1.335 . S
C376 C377 1.398 . S
C376 H398 0.930 . S
C377 C372 1.382 . S
C377 C376 1.398 . S
C377 H399 0.929 . S
C378 O388 1.271 . S
C378 O389 1.251 . S
C379 O390 1.252 . S
C379 O391 1.272 . S
O380 Sm360 2.543 . S
O380 C362 1.261 . S
O381 Sm360 2.450 . S
O381 C362 1.242 . S
O382 Sm360 2.681 . S
O382 Sm361 2.386 . S
O382 C369 1.271 . S
O383 Sm360 2.464 . S
O383 C369 1.251 . S
O384 Sm360 2.396 . S
O384 C370 1.252 . S
O385 Sm361 2.408 . S
O385 C370 1.272 . S
O386 Sm361 2.543 . S
O386 C371 1.261 1_455 S
O387 Sm361 2.450 . S
O387 C371 1.242 1_455 S
O388 Sm360 2.386 . S
O388 Sm361 2.681 . S
O388 C378 1.271 . S
O389 Sm361 2.464 . S
O389 C378 1.251 . S
O390 Sm361 2.396 . S
O390 C379 1.252 . S
O391 Sm360 2.408 . S
O391 C379 1.272 . S
H392 C364 0.930 . S
H393 C365 0.929 . S
H394 C367 0.930 . S
H395 C368 0.929 . S
H396 C373 0.930 . S
H397 C374 0.929 . S
H398 C376 0.930 . S
H399 C377 0.929 . S
Sm400 C402 2.846 1_565 S
Sm400 O420 2.543 . S
Sm400 O421 2.450 . S
Sm400 O422 2.681 . S
Sm400 O423 2.464 . S
Sm400 O424 2.396 . S
Sm400 O428 2.386 . S
Sm400 O431 2.408 . S
Sm401 C411 2.846 . S
Sm401 O422 2.386 . S
Sm401 O425 2.408 . S
Sm401 O426 2.543 . S
Sm401 O427 2.450 . S
Sm401 O428 2.681 . S
Sm401 O429 2.464 . S
Sm401 O430 2.396 . S
C402 Sm400 2.846 1_545 S
C402 C403 1.506 . S
C402 O420 1.261 1_545 S
C402 O421 1.242 1_545 S
C403 C402 1.506 . S
C403 C404 1.358 . S
C403 C408 1.382 . S
C404 C403 1.358 . S
C404 C405 1.385 . S
C404 H432 0.930 . S
C405 C404 1.385 . S
C405 C406 1.395 . S
C405 H433 0.929 . S
C406 C405 1.395 . S
C406 C407 1.335 . S
C407 C406 1.335 . S
C407 C408 1.398 . S
C407 H434 0.930 . S
C408 C403 1.382 . S
C408 C407 1.398 . S
C408 H435 0.929 . S
C409 O422 1.271 . S
C409 O423 1.251 . S
C410 O424 1.252 . S
C410 O425 1.272 . S
C411 Sm401 2.846 . S
C411 C412 1.506 . S
C411 O426 1.261 . S
C411 O427 1.242 . S
C412 C411 1.506 . S
C412 C413 1.358 . S
C412 C417 1.382 . S
C413 C412 1.358 . S
C413 C414 1.385 . S
C413 H436 0.930 . S
C414 C413 1.385 . S
C414 C415 1.395 . S
C414 H437 0.929 . S
C415 C414 1.395 . S
C415 C416 1.335 . S
C416 C415 1.335 . S
C416 C417 1.398 . S
C416 H438 0.930 . S
C417 C412 1.382 . S
C417 C416 1.398 . S
C417 H439 0.929 . S
C418 O428 1.271 . S
C418 O429 1.251 . S
C419 O430 1.252 . S
C419 O431 1.272 . S
O420 Sm400 2.543 . S
O420 C402 1.261 1_565 S
O421 Sm400 2.450 . S
O421 C402 1.242 1_565 S
O422 Sm400 2.681 . S
O422 Sm401 2.386 . S
O422 C409 1.271 . S
O423 Sm400 2.464 . S
O423 C409 1.251 . S
O424 Sm400 2.396 . S
O424 C410 1.252 . S
O425 Sm401 2.408 . S
O425 C410 1.272 . S
O426 Sm401 2.543 . S
O426 C411 1.261 . S
O427 Sm401 2.450 . S
O427 C411 1.242 . S
O428 Sm400 2.386 . S
O428 Sm401 2.681 . S
O428 C418 1.271 . S
O429 Sm401 2.464 . S
O429 C418 1.251 . S
O430 Sm401 2.396 . S
O430 C419 1.252 . S
O431 Sm400 2.408 . S
O431 C419 1.272 . S
H432 C404 0.930 . S
H433 C405 0.929 . S
H434 C407 0.930 . S
H435 C408 0.929 . S
H436 C413 0.930 . S
H437 C414 0.929 . S
H438 C416 0.930 . S
H439 C417 0.929 . S
Sm440 C442 2.846 . S
Sm440 O460 2.543 . S
Sm440 O461 2.450 . S
Sm440 O462 2.681 . S
Sm440 O463 2.464 . S
Sm440 O464 2.396 . S
Sm440 O468 2.386 . S
Sm440 O471 2.408 . S
Sm441 C451 2.846 . S
Sm441 O462 2.386 . S
Sm441 O465 2.408 . S
Sm441 O466 2.543 . S
Sm441 O467 2.450 . S
Sm441 O468 2.681 . S
Sm441 O469 2.464 . S
Sm441 O470 2.396 . S
C442 Sm440 2.846 . S
C442 C443 1.506 . S
C442 O460 1.261 . S
C442 O461 1.242 . S
C443 C442 1.506 . S
C443 C444 1.358 . S
C443 C448 1.382 . S
C444 C443 1.358 . S
C444 C445 1.385 . S
C444 H472 0.930 . S
C445 C444 1.385 . S
C445 C446 1.395 . S
C445 H473 0.929 . S
C446 C445 1.395 . S
C446 C447 1.335 . S
C447 C446 1.335 . S
C447 C448 1.398 . S
C447 H474 0.930 . S
C448 C443 1.382 . S
C448 C447 1.398 . S
C448 H475 0.929 . S
C449 O462 1.271 . S
C449 O463 1.251 . S
C450 O464 1.252 . S
C450 O465 1.272 . S
C451 Sm441 2.846 . S
C451 C452 1.506 . S
C451 O466 1.261 . S
C451 O467 1.242 . S
C452 C451 1.506 . S
C452 C453 1.358 . S
C452 C457 1.382 . S
C453 C452 1.358 . S
C453 C454 1.385 . S
C453 H476 0.930 . S
C454 C453 1.385 . S
C454 C455 1.395 . S
C454 H477 0.929 . S
C455 C454 1.395 . S
C455 C456 1.335 . S
C456 C455 1.335 . S
C456 C457 1.398 . S
C456 H478 0.930 . S
C457 C452 1.382 . S
C457 C456 1.398 . S
C457 H479 0.929 . S
C458 O468 1.271 . S
C458 O469 1.251 . S
C459 O470 1.252 . S
C459 O471 1.272 . S
O460 Sm440 2.543 . S
O460 C442 1.261 . S
O461 Sm440 2.450 . S
O461 C442 1.242 . S
O462 Sm440 2.681 . S
O462 Sm441 2.386 . S
O462 C449 1.271 . S
O463 Sm440 2.464 . S
O463 C449 1.251 . S
O464 Sm440 2.396 . S
O464 C450 1.252 . S
O465 Sm441 2.408 . S
O465 C450 1.272 . S
O466 Sm441 2.543 . S
O466 C451 1.261 . S
O467 Sm441 2.450 . S
O467 C451 1.242 . S
O468 Sm440 2.386 . S
O468 Sm441 2.681 . S
O468 C458 1.271 . S
O469 Sm441 2.464 . S
O469 C458 1.251 . S
O470 Sm441 2.396 . S
O470 C459 1.252 . S
O471 Sm440 2.408 . S
O471 C459 1.272 . S
H472 C444 0.930 . S
H473 C445 0.929 . S
H474 C447 0.930 . S
H475 C448 0.929 . S
H476 C453 0.930 . S
H477 C454 0.929 . S
H478 C456 0.930 . S
H479 C457 0.929 . S
C480 C481 1.363 . S
C480 C486 1.379 . S
C480 N488 1.356 . S
C481 C480 1.363 . S
C481 C487 1.363 . S
C482 C483 1.363 . S
C482 C487 1.379 . S
C482 N489 1.356 . S
C483 C482 1.363 . S
C483 C486 1.363 . S
N484 C486 1.356 . S
N484 H496 0.984 . S
N484 H497 0.985 . S
N485 C487 1.356 . S
N485 H490 0.984 . S
N485 H491 0.985 . S
C486 C480 1.379 . S
C486 C483 1.363 . S
C486 N484 1.356 . S
C487 C481 1.363 . S
C487 C482 1.379 . S
C487 N485 1.356 . S
N488 C480 1.356 . S
N488 H494 0.984 . S
N488 H495 0.984 . S
N489 C482 1.356 . S
N489 H492 0.984 . S
N489 H493 0.985 . S
H490 N485 0.984 . S
H491 N485 0.985 . S
H492 N489 0.984 . S
H493 N489 0.985 . S
H494 N488 0.984 . S
H495 N488 0.984 . S
H496 N484 0.984 . S
H497 N484 0.985 . S
C498 C499 1.363 1_655 S
C498 C504 1.379 . S
C498 N506 1.356 1_655 S
C499 C498 1.363 1_455 S
C499 C505 1.363 . S
C500 C501 1.363 . S
C500 C505 1.379 1_655 S
C500 N507 1.356 . S
C501 C500 1.363 . S
C501 C504 1.363 . S
N502 C504 1.356 . S
N502 H514 0.984 . S
N502 H515 0.985 . S
N503 C505 1.356 . S
N503 H508 0.984 . S
N503 H509 0.985 . S
C504 C498 1.379 . S
C504 C501 1.363 . S
C504 N502 1.356 . S
C505 C499 1.363 . S
C505 C500 1.379 1_455 S
C505 N503 1.356 . S
N506 C498 1.356 1_455 S
N506 H512 0.984 1_455 S
N506 H513 0.984 . S
N507 C500 1.356 . S
N507 H510 0.984 . S
N507 H511 0.985 . S
H508 N503 0.984 . S
H509 N503 0.985 . S
H510 N507 0.984 . S
H511 N507 0.985 . S
H512 N506 0.984 1_655 S
H513 N506 0.984 . S
H514 N502 0.984 . S
H515 N502 0.985 . S
C516 C517 1.363 . S
C516 C522 1.379 . S
C516 N524 1.356 . S
C517 C516 1.363 . S
C517 C523 1.363 . S
C518 C519 1.363 . S
C518 C523 1.379 1_565 S
C518 N525 1.356 . S
C519 C518 1.363 . S
C519 C522 1.363 1_565 S
N520 C522 1.356 1_565 S
N520 H532 0.984 1_565 S
N520 H533 0.985 . S
N521 C523 1.356 . S
N521 H526 0.984 . S
N521 H527 0.985 . S
C522 C516 1.379 . S
C522 C519 1.363 1_545 S
C522 N520 1.356 1_545 S
C523 C517 1.363 . S
C523 C518 1.379 1_545 S
C523 N521 1.356 . S
N524 C516 1.356 . S
N524 H530 0.984 . S
N524 H531 0.984 . S
N525 C518 1.356 . S
N525 H528 0.984 . S
N525 H529 0.985 . S
H526 N521 0.984 . S
H527 N521 0.985 . S
H528 N525 0.984 . S
H529 N525 0.985 . S
H530 N524 0.984 . S
H531 N524 0.984 . S
H532 N520 0.984 1_545 S
H533 N520 0.985 . S
C534 C535 1.363 . S
C534 C540 1.379 . S
C534 N542 1.356 . S
C535 C534 1.363 . S
C535 C541 1.363 . S
C536 C537 1.363 . S
C536 C541 1.379 . S
C536 N543 1.356 . S
C537 C536 1.363 . S
C537 C540 1.363 . S
N538 C540 1.356 . S
N538 H550 0.984 . S
N538 H551 0.985 . S
N539 C541 1.356 . S
N539 H544 0.984 . S
N539 H545 0.985 . S
C540 C534 1.379 . S
C540 C537 1.363 . S
C540 N538 1.356 . S
C541 C535 1.363 . S
C541 C536 1.379 . S
C541 N539 1.356 . S
N542 C534 1.356 . S
N542 H548 0.984 . S
N542 H549 0.984 . S
N543 C536 1.356 . S
N543 H546 0.984 . S
N543 H547 0.985 . S
H544 N539 0.984 . S
H545 N539 0.985 . S
H546 N543 0.984 . S
H547 N543 0.985 . S
H548 N542 0.984 . S
H549 N542 0.984 . S
H550 N538 0.984 . S
H551 N538 0.985 . S
C552 C553 1.363 . S
C552 C558 1.379 1_455 S
C552 N560 1.356 . S
C553 C552 1.363 . S
C553 C559 1.363 1_455 S
C554 C555 1.363 . S
C554 C559 1.379 . S
C554 N561 1.356 . S
C555 C554 1.363 . S
C555 C558 1.363 . S
N556 C558 1.356 . S
N556 H568 0.984 . S
N556 H569 0.985 . S
N557 C559 1.356 1_455 S
N557 H562 0.984 . S
N557 H563 0.985 . S
C558 C552 1.379 1_655 S
C558 C555 1.363 . S
C558 N556 1.356 . S
C559 C553 1.363 1_655 S
C559 C554 1.379 . S
C559 N557 1.356 1_655 S
N560 C552 1.356 . S
N560 H566 0.984 . S
N560 H567 0.984 . S
N561 C554 1.356 . S
N561 H564 0.984 . S
N561 H565 0.985 . S
H562 N557 0.984 . S
H563 N557 0.985 . S
H564 N561 0.984 . S
H565 N561 0.985 . S
H566 N560 0.984 . S
H567 N560 0.984 . S
H568 N556 0.984 . S
H569 N556 0.985 . S
C570 C571 1.363 . S
C570 C576 1.379 1_565 S
C570 N578 1.356 . S
C571 C570 1.363 . S
C571 C577 1.363 1_565 S
C572 C573 1.363 . S
C572 C577 1.379 . S
C572 N579 1.356 . S
C573 C572 1.363 . S
C573 C576 1.363 . S
N574 C576 1.356 . S
N574 H586 0.984 . S
N574 H587 0.985 . S
N575 C577 1.356 1_565 S
N575 H580 0.984 . S
N575 H581 0.985 1_565 S
C576 C570 1.379 1_545 S
C576 C573 1.363 . S
C576 N574 1.356 . S
C577 C571 1.363 1_545 S
C577 C572 1.379 . S
C577 N575 1.356 1_545 S
N578 C570 1.356 . S
N578 H584 0.984 . S
N578 H585 0.984 . S
N579 C572 1.356 . S
N579 H582 0.984 . S
N579 H583 0.985 . S
H580 N575 0.984 . S
H581 N575 0.985 1_545 S
H582 N579 0.984 . S
H583 N579 0.985 . S
H584 N578 0.984 . S
H585 N578 0.984 . S
H586 N574 0.984 . S
H587 N574 0.985 . S
C588 C589 1.363 . S
C588 C594 1.379 . S
C588 N596 1.356 . S
C589 C588 1.363 . S
C589 C595 1.363 . S
C590 C591 1.363 . S
C590 C595 1.379 . S
C590 N597 1.356 . S
C591 C590 1.363 . S
C591 C594 1.363 . S
N592 C594 1.356 . S
N592 H604 0.984 . S
N592 H605 0.985 . S
N593 C595 1.356 . S
N593 H598 0.984 . S
N593 H599 0.985 . S
C594 C588 1.379 . S
C594 C591 1.363 . S
C594 N592 1.356 . S
C595 C589 1.363 . S
C595 C590 1.379 . S
C595 N593 1.356 . S
N596 C588 1.356 . S
N596 H602 0.984 . S
N596 H603 0.984 . S
N597 C590 1.356 . S
N597 H600 0.984 . S
N597 H601 0.985 . S
H598 N593 0.984 . S
H599 N593 0.985 . S
H600 N597 0.984 . S
H601 N597 0.985 . S
H602 N596 0.984 . S
H603 N596 0.984 . S
H604 N592 0.984 . S
H605 N592 0.985 . S
C606 C607 1.363 . S
C606 C612 1.379 . S
C606 N614 1.356 . S
C607 C606 1.363 . S
C607 C613 1.363 . S
C608 C609 1.363 . S
C608 C613 1.379 1_655 S
C608 N615 1.356 . S
C609 C608 1.363 . S
C609 C612 1.363 1_655 S
N610 C612 1.356 1_655 S
N610 H622 0.984 1_655 S
N610 H623 0.985 . S
N611 C613 1.356 . S
N611 H616 0.984 . S
N611 H617 0.985 . S
C612 C606 1.379 . S
C612 C609 1.363 1_455 S
C612 N610 1.356 1_455 S
C613 C607 1.363 . S
C613 C608 1.379 1_455 S
C613 N611 1.356 . S
N614 C606 1.356 . S
N614 H620 0.984 . S
N614 H621 0.984 . S
N615 C608 1.356 . S
N615 H618 0.984 . S
N615 H619 0.985 . S
H616 N611 0.984 . S
H617 N611 0.985 . S
H618 N615 0.984 . S
H619 N615 0.985 . S
H620 N614 0.984 . S
H621 N614 0.984 . S
H622 N610 0.984 1_455 S
H623 N610 0.985 . S
C624 C625 1.363 . S
C624 C630 1.379 1_565 S
C624 N632 1.356 . S
C625 C624 1.363 . S
C625 C631 1.363 . S
C626 C627 1.363 1_565 S
C626 C631 1.379 . S
C626 N633 1.356 1_565 S
C627 C626 1.363 1_545 S
C627 C630 1.363 . S
N628 C630 1.356 . S
N628 H640 0.984 . S
N628 H641 0.985 . S
N629 C631 1.356 . S
N629 H634 0.984 . S
N629 H635 0.985 . S
C630 C624 1.379 1_545 S
C630 C627 1.363 . S
C630 N628 1.356 . S
C631 C625 1.363 . S
C631 C626 1.379 . S
C631 N629 1.356 . S
N632 C624 1.356 . S
N632 H638 0.984 . S
N632 H639 0.984 . S
N633 C626 1.356 1_545 S
N633 H636 0.984 . S
N633 H637 0.985 1_545 S
H634 N629 0.984 . S
H635 N629 0.985 . S
H636 N633 0.984 . S
H637 N633 0.985 1_565 S
H638 N632 0.984 . S
H639 N632 0.984 . S
H640 N628 0.984 . S
H641 N628 0.985 . S
C642 C643 1.363 . S
C642 C648 1.379 . S
C642 N650 1.356 . S
C643 C642 1.363 . S
C643 C649 1.363 . S
C644 C645 1.363 . S
C644 C649 1.379 . S
C644 N651 1.356 . S
C645 C644 1.363 . S
C645 C648 1.363 . S
N646 C648 1.356 . S
N646 H658 0.984 . S
N646 H659 0.985 . S
N647 C649 1.356 . S
N647 H652 0.984 . S
N647 H653 0.985 . S
C648 C642 1.379 . S
C648 C645 1.363 . S
C648 N646 1.356 . S
C649 C643 1.363 . S
C649 C644 1.379 . S
C649 N647 1.356 . S
N650 C642 1.356 . S
N650 H656 0.984 . S
N650 H657 0.984 . S
N651 C644 1.356 . S
N651 H654 0.984 . S
N651 H655 0.985 . S
H652 N647 0.984 . S
H653 N647 0.985 . S
H654 N651 0.984 . S
H655 N651 0.985 . S
H656 N650 0.984 . S
H657 N650 0.984 . S
H658 N646 0.984 . S
H659 N646 0.985 . S
C660 C661 1.363 . S
C660 C666 1.379 . S
C660 N668 1.356 . S
C661 C660 1.363 . S
C661 C667 1.363 . S
C662 C663 1.363 . S
C662 C667 1.379 1_655 S
C662 N669 1.356 . S
C663 C662 1.363 . S
C663 C666 1.363 1_655 S
N664 C666 1.356 1_655 S
N664 H676 0.984 1_655 S
N664 H677 0.985 . S
N665 C667 1.356 . S
N665 H670 0.984 . S
N665 H671 0.985 . S
C666 C660 1.379 . S
C666 C663 1.363 1_455 S
C666 N664 1.356 1_455 S
C667 C661 1.363 . S
C667 C662 1.379 1_455 S
C667 N665 1.356 . S
N668 C660 1.356 . S
N668 H674 0.984 . S
N668 H675 0.984 . S
N669 C662 1.356 . S
N669 H672 0.984 . S
N669 H673 0.985 . S
H670 N665 0.984 . S
H671 N665 0.985 . S
H672 N669 0.984 . S
H673 N669 0.985 . S
H674 N668 0.984 . S
H675 N668 0.984 . S
H676 N664 0.984 1_455 S
H677 N664 0.985 . S
C678 C679 1.363 1_565 S
C678 C684 1.379 . S
C678 N686 1.356 1_565 S
C679 C678 1.363 1_545 S
C679 C685 1.363 . S
C680 C681 1.363 . S
C680 C685 1.379 1_565 S
C680 N687 1.356 . S
C681 C680 1.363 . S
C681 C684 1.363 . S
N682 C684 1.356 . S
N682 H694 0.984 . S
N682 H695 0.985 . S
N683 C685 1.356 . S
N683 H688 0.984 . S
N683 H689 0.985 . S
C684 C678 1.379 . S
C684 C681 1.363 . S
C684 N682 1.356 . S
C685 C679 1.363 . S
C685 C680 1.379 1_545 S
C685 N683 1.356 . S
N686 C678 1.356 1_545 S
N686 H692 0.985 1_545 S
N686 H693 0.984 . S
N687 C680 1.356 . S
N687 H690 0.984 . S
N687 H691 0.985 . S
H688 N683 0.984 . S
H689 N683 0.985 . S
H690 N687 0.984 . S
H691 N687 0.985 . S
H692 N686 0.985 1_565 S
H693 N686 0.984 . S
H694 N682 0.984 . S
H695 N682 0.985 . S
C696 C697 1.363 . S
C696 C702 1.379 . S
C696 N704 1.356 . S
C697 C696 1.363 . S
C697 C703 1.363 . S
C698 C699 1.363 . S
C698 C703 1.379 . S
C698 N705 1.356 . S
C699 C698 1.363 . S
C699 C702 1.363 . S
N700 C702 1.356 . S
N700 H712 0.984 . S
N700 H713 0.985 . S
N701 C703 1.356 . S
N701 H706 0.984 . S
N701 H707 0.985 . S
C702 C696 1.379 . S
C702 C699 1.363 . S
C702 N700 1.356 . S
C703 C697 1.363 . S
C703 C698 1.379 . S
C703 N701 1.356 . S
N704 C696 1.356 . S
N704 H710 0.984 . S
N704 H711 0.984 . S
N705 C698 1.356 . S
N705 H708 0.984 . S
N705 H709 0.985 . S
H706 N701 0.984 . S
H707 N701 0.985 . S
H708 N705 0.984 . S
H709 N705 0.985 . S
H710 N704 0.984 . S
H711 N704 0.984 . S
H712 N700 0.984 . S
H713 N700 0.985 . S
C714 C715 1.363 . S
C714 C720 1.379 . S
C714 N722 1.356 . S
C715 C714 1.363 . S
C715 C721 1.363 . S
C716 C717 1.363 . S
C716 C721 1.379 . S
C716 N723 1.356 . S
C717 C716 1.363 . S
C717 C720 1.363 . S
N718 C720 1.356 . S
N718 H730 0.984 . S
N718 H731 0.985 . S
N719 C721 1.356 . S
N719 H724 0.984 . S
N719 H725 0.985 . S
C720 C714 1.379 . S
C720 C717 1.363 . S
C720 N718 1.356 . S
C721 C715 1.363 . S
C721 C716 1.379 . S
C721 N719 1.356 . S
N722 C714 1.356 . S
N722 H728 0.984 . S
N722 H729 0.984 . S
N723 C716 1.356 . S
N723 H726 0.984 . S
N723 H727 0.985 . S
H724 N719 0.984 . S
H725 N719 0.985 . S
H726 N723 0.984 . S
H727 N723 0.985 . S
H728 N722 0.984 . S
H729 N722 0.984 . S
H730 N718 0.984 . S
H731 N718 0.985 . S
C732 C733 1.363 . S
C732 C738 1.379 . S
C732 N740 1.356 . S
C733 C732 1.363 . S
C733 C739 1.363 . S
C734 C735 1.363 . S
C734 C739 1.379 . S
C734 N741 1.356 . S
C735 C734 1.363 . S
C735 C738 1.363 . S
N736 C738 1.356 . S
N736 H748 0.984 . S
N736 H749 0.985 . S
N737 C739 1.356 . S
N737 H742 0.984 . S
N737 H743 0.985 . S
C738 C732 1.379 . S
C738 C735 1.363 . S
C738 N736 1.356 . S
C739 C733 1.363 . S
C739 C734 1.379 . S
C739 N737 1.356 . S
N740 C732 1.356 . S
N740 H746 0.984 . S
N740 H747 0.984 . S
N741 C734 1.356 . S
N741 H744 0.984 . S
N741 H745 0.985 . S
H742 N737 0.984 . S
H743 N737 0.985 . S
H744 N741 0.984 . S
H745 N741 0.985 . S
H746 N740 0.984 . S
H747 N740 0.984 . S
H748 N736 0.984 . S
H749 N736 0.985 . S
C750 C751 1.363 . S
C750 C756 1.379 . S
C750 N758 1.356 . S
C751 C750 1.363 . S
C751 C757 1.363 . S
C752 C753 1.363 . S
C752 C757 1.379 . S
C752 N759 1.356 . S
C753 C752 1.363 . S
C753 C756 1.363 . S
N754 C756 1.356 . S
N754 H766 0.984 . S
N754 H767 0.985 . S
N755 C757 1.356 . S
N755 H760 0.984 . S
N755 H761 0.985 . S
C756 C750 1.379 . S
C756 C753 1.363 . S
C756 N754 1.356 . S
C757 C751 1.363 . S
C757 C752 1.379 . S
C757 N755 1.356 . S
N758 C750 1.356 . S
N758 H764 0.984 . S
N758 H765 0.984 . S
N759 C752 1.356 . S
N759 H762 0.984 . S
N759 H763 0.985 . S
H760 N755 0.984 . S
H761 N755 0.985 . S
H762 N759 0.984 . S
H763 N759 0.985 . S
H764 N758 0.984 . S
H765 N758 0.984 . S
H766 N754 0.984 . S
H767 N754 0.985 . S
C768 C769 1.363 . S
C768 C774 1.379 . S
C768 N776 1.356 . S
C769 C768 1.363 . S
C769 C775 1.363 . S
C770 C771 1.363 . S
C770 C775 1.379 . S
C770 N777 1.356 . S
C771 C770 1.363 . S
C771 C774 1.363 . S
N772 C774 1.356 . S
N772 H784 0.984 . S
N772 H785 0.985 . S
N773 C775 1.356 . S
N773 H778 0.984 . S
N773 H779 0.985 . S
C774 C768 1.379 . S
C774 C771 1.363 . S
C774 N772 1.356 . S
C775 C769 1.363 . S
C775 C770 1.379 . S
C775 N773 1.356 . S
N776 C768 1.356 . S
N776 H782 0.984 . S
N776 H783 0.984 . S
N777 C770 1.356 . S
N777 H780 0.984 . S
N777 H781 0.985 . S
H778 N773 0.984 . S
H779 N773 0.985 . S
H780 N777 0.984 . S
H781 N777 0.985 . S
H782 N776 0.984 . S
H783 N776 0.984 . S
H784 N772 0.984 . S
H785 N772 0.985 . S
C786 C787 1.363 . S
C786 C792 1.379 . S
C786 N794 1.356 . S
C787 C786 1.363 . S
C787 C793 1.363 . S
C788 C789 1.363 . S
C788 C793 1.379 . S
C788 N795 1.356 . S
C789 C788 1.363 . S
C789 C792 1.363 . S
N790 C792 1.356 . S
N790 H802 0.984 . S
N790 H803 0.985 . S
N791 C793 1.356 . S
N791 H796 0.984 . S
N791 H797 0.985 . S
C792 C786 1.379 . S
C792 C789 1.363 . S
C792 N790 1.356 . S
C793 C787 1.363 . S
C793 C788 1.379 . S
C793 N791 1.356 . S
N794 C786 1.356 . S
N794 H800 0.984 . S
N794 H801 0.984 . S
N795 C788 1.356 . S
N795 H798 0.984 . S
N795 H799 0.985 . S
H796 N791 0.984 . S
H797 N791 0.985 . S
H798 N795 0.984 . S
H799 N795 0.985 . S
H800 N794 0.984 . S
H801 N794 0.984 . S
H802 N790 0.984 . S
H803 N790 0.985 . S
C804 C805 1.363 . S
C804 C810 1.379 1_565 S
C804 N812 1.356 . S
C805 C804 1.363 . S
C805 C811 1.363 1_556 S
C806 C807 1.363 . S
C806 C811 1.379 1_545 S
C806 N813 1.356 . S
C807 C806 1.363 . S
C807 C810 1.363 1_554 S
N808 C810 1.356 . S
N808 H820 0.984 . S
N808 H821 0.985 . S
N809 C811 1.356 . S
N809 H814 0.984 . S
N809 H815 0.985 . S
C810 C804 1.379 1_545 S
C810 C807 1.363 1_556 S
C810 N808 1.356 . S
C811 C805 1.363 1_554 S
C811 C806 1.379 1_565 S
C811 N809 1.356 . S
N812 C804 1.356 . S
N812 H818 0.984 . S
N812 H819 0.984 . S
N813 C806 1.356 . S
N813 H816 0.984 . S
N813 H817 0.985 . S
H814 N809 0.984 . S
H815 N809 0.985 . S
H816 N813 0.984 . S
H817 N813 0.985 . S
H818 N812 0.984 . S
H819 N812 0.984 . S
H820 N808 0.984 . S
H821 N808 0.985 . S
C822 C823 1.363 . S
C822 C828 1.379 . S
C822 N830 1.356 . S
C823 C822 1.363 . S
C823 C829 1.363 . S
C824 C825 1.363 . S
C824 C829 1.379 . S
C824 N831 1.356 . S
C825 C824 1.363 . S
C825 C828 1.363 . S
N826 C828 1.356 . S
N826 H838 0.984 . S
N826 H839 0.985 . S
N827 C829 1.356 . S
N827 H832 0.984 . S
N827 H833 0.985 . S
C828 C822 1.379 . S
C828 C825 1.363 . S
C828 N826 1.356 . S
C829 C823 1.363 . S
C829 C824 1.379 . S
C829 N827 1.356 . S
N830 C822 1.356 . S
N830 H836 0.984 . S
N830 H837 0.984 . S
N831 C824 1.356 . S
N831 H834 0.984 . S
N831 H835 0.985 . S
H832 N827 0.984 . S
H833 N827 0.985 . S
H834 N831 0.984 . S
H835 N831 0.985 . S
H836 N830 0.984 . S
H837 N830 0.984 . S
H838 N826 0.984 . S
H839 N826 0.985 . S
C840 C841 1.363 . S
C840 C846 1.379 1_456 S
C840 N848 1.356 . S
C841 C840 1.363 . S
C841 C847 1.363 . S
C842 C843 1.363 . S
C842 C847 1.379 1_654 S
C842 N849 1.356 . S
C843 C842 1.363 . S
C843 C846 1.363 . S
N844 C846 1.356 . S
N844 H856 0.984 . S
N844 H857 0.985 . S
N845 C847 1.356 . S
N845 H850 0.984 . S
N845 H851 0.985 . S
C846 C840 1.379 1_654 S
C846 C843 1.363 . S
C846 N844 1.356 . S
C847 C841 1.363 . S
C847 C842 1.379 1_456 S
C847 N845 1.356 . S
N848 C840 1.356 . S
N848 H854 0.984 . S
N848 H855 0.984 . S
N849 C842 1.356 . S
N849 H852 0.984 . S
N849 H853 0.985 . S
H850 N845 0.984 . S
H851 N845 0.985 . S
H852 N849 0.984 . S
H853 N849 0.985 . S
H854 N848 0.984 . S
H855 N848 0.984 . S
H856 N844 0.984 . S
H857 N844 0.985 . S
C858 C859 1.363 . S
C858 C864 1.379 1_545 S
C858 N866 1.356 . S
C859 C858 1.363 . S
C859 C865 1.363 . S
C860 C861 1.363 . S
C860 C865 1.379 1_565 S
C860 N867 1.356 . S
C861 C860 1.363 . S
C861 C864 1.363 . S
N862 C864 1.356 . S
N862 H874 0.984 . S
N862 H875 0.985 . S
N863 C865 1.356 . S
N863 H868 0.984 . S
N863 H869 0.985 . S
C864 C858 1.379 1_565 S
C864 C861 1.363 . S
C864 N862 1.356 . S
C865 C859 1.363 . S
C865 C860 1.379 1_545 S
C865 N863 1.356 . S
N866 C858 1.356 . S
N866 H872 0.984 . S
N866 H873 0.984 . S
N867 C860 1.356 . S
N867 H870 0.984 . S
N867 H871 0.985 . S
H868 N863 0.984 . S
H869 N863 0.985 . S
H870 N867 0.984 . S
H871 N867 0.985 . S
H872 N866 0.984 . S
H873 N866 0.984 . S
H874 N862 0.984 . S
H875 N862 0.985 . S
C876 C877 1.363 1_556 S
C876 C882 1.379 . S
C876 N884 1.356 . S
C877 C876 1.363 1_554 S
C877 C883 1.363 . S
C878 C879 1.363 1_554 S
C878 C883 1.379 . S
C878 N885 1.356 . S
C879 C878 1.363 1_556 S
C879 C882 1.363 . S
N880 C882 1.356 . S
N880 H892 0.984 . S
N880 H893 0.985 . S
N881 C883 1.356 . S
N881 H886 0.984 . S
N881 H887 0.985 . S
C882 C876 1.379 . S
C882 C879 1.363 . S
C882 N880 1.356 . S
C883 C877 1.363 . S
C883 C878 1.379 . S
C883 N881 1.356 . S
N884 C876 1.356 . S
N884 H890 0.984 . S
N884 H891 0.984 . S
N885 C878 1.356 . S
N885 H888 0.984 . S
N885 H889 0.985 . S
H886 N881 0.984 . S
H887 N881 0.985 . S
H888 N885 0.984 . S
H889 N885 0.985 . S
H890 N884 0.984 . S
H891 N884 0.984 . S
H892 N880 0.984 . S
H893 N880 0.985 . S
C894 C895 1.363 . S
C894 C900 1.379 1_455 S
C894 N902 1.356 . S
C895 C894 1.363 . S
C895 C901 1.363 . S
C896 C897 1.363 . S
C896 C901 1.379 1_655 S
C896 N903 1.356 . S
C897 C896 1.363 . S
C897 C900 1.363 . S
N898 C900 1.356 . S
N898 H910 0.984 . S
N898 H911 0.985 . S
N899 C901 1.356 . S
N899 H904 0.984 . S
N899 H905 0.985 . S
C900 C894 1.379 1_655 S
C900 C897 1.363 . S
C900 N898 1.356 . S
C901 C895 1.363 . S
C901 C896 1.379 1_455 S
C901 N899 1.356 . S
N902 C894 1.356 . S
N902 H908 0.984 . S
N902 H909 0.984 . S
N903 C896 1.356 . S
N903 H906 0.984 . S
N903 H907 0.985 . S
H904 N899 0.984 . S
H905 N899 0.985 . S
H906 N903 0.984 . S
H907 N903 0.985 . S
H908 N902 0.984 . S
H909 N902 0.984 . S
H910 N898 0.984 . S
H911 N898 0.985 . S
C912 C913 1.363 . S
C912 C918 1.379 . S
C912 N920 1.356 . S
C913 C912 1.363 . S
C913 C919 1.363 . S
C914 C915 1.363 . S
C914 C919 1.379 . S
C914 N921 1.356 . S
C915 C914 1.363 . S
C915 C918 1.363 . S
N916 C918 1.356 . S
N916 H928 0.984 . S
N916 H929 0.985 . S
N917 C919 1.356 . S
N917 H922 0.984 . S
N917 H923 0.985 . S
C918 C912 1.379 . S
C918 C915 1.363 . S
C918 N916 1.356 . S
C919 C913 1.363 . S
C919 C914 1.379 . S
C919 N917 1.356 . S
N920 C912 1.356 . S
N920 H926 0.984 . S
N920 H927 0.984 . S
N921 C914 1.356 . S
N921 H924 0.984 . S
N921 H925 0.985 . S
H922 N917 0.984 . S
H923 N917 0.985 . S
H924 N921 0.984 . S
H925 N921 0.985 . S
H926 N920 0.984 . S
H927 N920 0.984 . S
H928 N916 0.984 . S
H929 N916 0.985 . S
C930 C931 1.363 . S
C930 C936 1.379 . S
C930 N938 1.356 . S
C931 C930 1.363 . S
C931 C937 1.363 . S
C932 C933 1.363 . S
C932 C937 1.379 . S
C932 N939 1.356 . S
C933 C932 1.363 . S
C933 C936 1.363 . S
N934 C936 1.356 . S
N934 H946 0.984 . S
N934 H947 0.985 . S
N935 C937 1.356 . S
N935 H940 0.984 . S
N935 H941 0.985 . S
C936 C930 1.379 . S
C936 C933 1.363 . S
C936 N934 1.356 . S
C937 C931 1.363 . S
C937 C932 1.379 . S
C937 N935 1.356 . S
N938 C930 1.356 . S
N938 H944 0.984 . S
N938 H945 0.984 . S
N939 C932 1.356 . S
N939 H942 0.984 . S
N939 H943 0.985 . S
H940 N935 0.984 . S
H941 N935 0.985 . S
H942 N939 0.984 . S
H943 N939 0.985 . S
H944 N938 0.984 . S
H945 N938 0.984 . S
H946 N934 0.984 . S
H947 N934 0.985 . S
C948 C949 1.363 . S
C948 C954 1.379 . S
C948 N956 1.356 . S
C949 C948 1.363 . S
C949 C955 1.363 . S
C950 C951 1.363 . S
C950 C955 1.379 . S
C950 N957 1.356 . S
C951 C950 1.363 . S
C951 C954 1.363 . S
N952 C954 1.356 . S
N952 H964 0.984 . S
N952 H965 0.985 . S
N953 C955 1.356 . S
N953 H958 0.984 . S
N953 H959 0.985 . S
C954 C948 1.379 . S
C954 C951 1.363 . S
C954 N952 1.356 . S
C955 C949 1.363 . S
C955 C950 1.379 . S
C955 N953 1.356 . S
N956 C948 1.356 . S
N956 H962 0.984 . S
N956 H963 0.984 . S
N957 C950 1.356 . S
N957 H960 0.984 . S
N957 H961 0.985 . S
H958 N953 0.984 . S
H959 N953 0.985 . S
H960 N957 0.984 . S
H961 N957 0.985 . S
H962 N956 0.984 . S
H963 N956 0.984 . S
H964 N952 0.984 . S
H965 N952 0.985 . S
C966 C967 1.363 . S
C966 C972 1.379 . S
C966 N974 1.356 . S
C967 C966 1.363 . S
C967 C973 1.363 . S
C968 C969 1.363 . S
C968 C973 1.379 . S
C968 N975 1.356 . S
C969 C968 1.363 . S
C969 C972 1.363 . S
N970 C972 1.356 . S
N970 H982 0.984 . S
N970 H983 0.985 . S
N971 C973 1.356 . S
N971 H976 0.984 . S
N971 H977 0.985 . S
C972 C966 1.379 . S
C972 C969 1.363 . S
C972 N970 1.356 . S
C973 C967 1.363 . S
C973 C968 1.379 . S
C973 N971 1.356 . S
N974 C966 1.356 . S
N974 H980 0.984 . S
N974 H981 0.984 . S
N975 C968 1.356 . S
N975 H978 0.984 . S
N975 H979 0.985 . S
H976 N971 0.984 . S
H977 N971 0.985 . S
H978 N975 0.984 . S
H979 N975 0.985 . S
H980 N974 0.984 . S
H981 N974 0.984 . S
H982 N970 0.984 . S
H983 N970 0.985 . S
C984 C985 1.363 . S
C984 C990 1.379 . S
C984 N992 1.356 . S
C985 C984 1.363 . S
C985 C991 1.363 . S
C986 C987 1.363 . S
C986 C991 1.379 . S
C986 N993 1.356 . S
C987 C986 1.363 . S
C987 C990 1.363 . S
N988 C990 1.356 . S
N988 H1000 0.984 . S
N988 H1001 0.985 . S
N989 C991 1.356 . S
N989 H994 0.984 . S
N989 H995 0.985 . S
C990 C984 1.379 . S
C990 C987 1.363 . S
C990 N988 1.356 . S
C991 C985 1.363 . S
C991 C986 1.379 . S
C991 N989 1.356 . S
N992 C984 1.356 . S
N992 H998 0.984 . S
N992 H999 0.984 . S
N993 C986 1.356 . S
N993 H996 0.984 . S
N993 H997 0.985 . S
H994 N989 0.984 . S
H995 N989 0.985 . S
H996 N993 0.984 . S
H997 N993 0.985 . S
H998 N992 0.984 . S
H999 N992 0.984 . S
H1000 N988 0.984 . S
H1001 N988 0.985 . S
C1002 C1003 1.363 . S
C1002 C1008 1.379 . S
C1002 N1010 1.356 . S
C1003 C1002 1.363 . S
C1003 C1009 1.363 . S
C1004 C1005 1.363 . S
C1004 C1009 1.379 . S
C1004 N1011 1.356 . S
C1005 C1004 1.363 . S
C1005 C1008 1.363 . S
N1006 C1008 1.356 . S
N1006 H1018 0.984 . S
N1006 H1019 0.985 . S
N1007 C1009 1.356 . S
N1007 H1012 0.984 . S
N1007 H1013 0.985 . S
C1008 C1002 1.379 . S
C1008 C1005 1.363 . S
C1008 N1006 1.356 . S
C1009 C1003 1.363 . S
C1009 C1004 1.379 . S
C1009 N1007 1.356 . S
N1010 C1002 1.356 . S
N1010 H1016 0.984 . S
N1010 H1017 0.984 . S
N1011 C1004 1.356 . S
N1011 H1014 0.984 . S
N1011 H1015 0.985 . S
H1012 N1007 0.984 . S
H1013 N1007 0.985 . S
H1014 N1011 0.984 . S
H1015 N1011 0.985 . S
H1016 N1010 0.984 . S
H1017 N1010 0.984 . S
H1018 N1006 0.984 . S
H1019 N1006 0.985 . S
C1020 C1021 1.363 . S
C1020 C1026 1.379 . S
C1020 N1028 1.356 . S
C1021 C1020 1.363 . S
C1021 C1027 1.363 . S
C1022 C1023 1.363 . S
C1022 C1027 1.379 . S
C1022 N1029 1.356 . S
C1023 C1022 1.363 . S
C1023 C1026 1.363 . S
N1024 C1026 1.356 . S
N1024 H1036 0.984 . S
N1024 H1037 0.985 . S
N1025 C1027 1.356 . S
N1025 H1030 0.984 . S
N1025 H1031 0.985 . S
C1026 C1020 1.379 . S
C1026 C1023 1.363 . S
C1026 N1024 1.356 . S
C1027 C1021 1.363 . S
C1027 C1022 1.379 . S
C1027 N1025 1.356 . S
N1028 C1020 1.356 . S
N1028 H1034 0.984 . S
N1028 H1035 0.984 . S
N1029 C1022 1.356 . S
N1029 H1032 0.984 . S
N1029 H1033 0.985 . S
H1030 N1025 0.984 . S
H1031 N1025 0.985 . S
H1032 N1029 0.984 . S
H1033 N1029 0.985 . S
H1034 N1028 0.984 . S
H1035 N1028 0.984 . S
H1036 N1024 0.984 . S
H1037 N1024 0.985 . S
C1038 C1039 1.363 . S
C1038 C1044 1.379 . S
C1038 N1046 1.356 . S
C1039 C1038 1.363 . S
C1039 C1045 1.363 . S
C1040 C1041 1.363 . S
C1040 C1045 1.379 . S
C1040 N1047 1.356 . S
C1041 C1040 1.363 . S
C1041 C1044 1.363 . S
N1042 C1044 1.356 . S
N1042 H1054 0.984 . S
N1042 H1055 0.985 . S
N1043 C1045 1.356 . S
N1043 H1048 0.984 . S
N1043 H1049 0.985 . S
C1044 C1038 1.379 . S
C1044 C1041 1.363 . S
C1044 N1042 1.356 . S
C1045 C1039 1.363 . S
C1045 C1040 1.379 . S
C1045 N1043 1.356 . S
N1046 C1038 1.356 . S
N1046 H1052 0.984 . S
N1046 H1053 0.984 . S
N1047 C1040 1.356 . S
N1047 H1050 0.984 . S
N1047 H1051 0.985 . S
H1048 N1043 0.984 . S
H1049 N1043 0.985 . S
H1050 N1047 0.984 . S
H1051 N1047 0.985 . S
H1052 N1046 0.984 . S
H1053 N1046 0.984 . S
H1054 N1042 0.984 . S
H1055 N1042 0.985 . S
C1056 C1057 1.363 . S
C1056 C1062 1.379 . S
C1056 N1064 1.356 . S
C1057 C1056 1.363 . S
C1057 C1063 1.363 . S
C1058 C1059 1.363 . S
C1058 C1063 1.379 . S
C1058 N1065 1.356 . S
C1059 C1058 1.363 . S
C1059 C1062 1.363 . S
N1060 C1062 1.356 . S
N1060 H1072 0.984 . S
N1060 H1073 0.985 . S
N1061 C1063 1.356 . S
N1061 H1066 0.984 . S
N1061 H1067 0.985 . S
C1062 C1056 1.379 . S
C1062 C1059 1.363 . S
C1062 N1060 1.356 . S
C1063 C1057 1.363 . S
C1063 C1058 1.379 . S
C1063 N1061 1.356 . S
N1064 C1056 1.356 . S
N1064 H1070 0.984 . S
N1064 H1071 0.984 . S
N1065 C1058 1.356 . S
N1065 H1068 0.984 . S
N1065 H1069 0.985 . S
H1066 N1061 0.984 . S
H1067 N1061 0.985 . S
H1068 N1065 0.984 . S
H1069 N1065 0.985 . S
H1070 N1064 0.984 . S
H1071 N1064 0.984 . S
H1072 N1060 0.984 . S
H1073 N1060 0.985 . S
C1074 C1075 1.363 . S
C1074 C1080 1.379 . S
C1074 N1082 1.356 . S
C1075 C1074 1.363 . S
C1075 C1081 1.363 . S
C1076 C1077 1.363 . S
C1076 C1081 1.379 . S
C1076 N1083 1.356 . S
C1077 C1076 1.363 . S
C1077 C1080 1.363 . S
N1078 C1080 1.356 . S
N1078 H1090 0.984 . S
N1078 H1091 0.985 . S
N1079 C1081 1.356 . S
N1079 H1084 0.984 . S
N1079 H1085 0.985 . S
C1080 C1074 1.379 . S
C1080 C1077 1.363 . S
C1080 N1078 1.356 . S
C1081 C1075 1.363 . S
C1081 C1076 1.379 . S
C1081 N1079 1.356 . S
N1082 C1074 1.356 . S
N1082 H1088 0.984 . S
N1082 H1089 0.984 . S
N1083 C1076 1.356 . S
N1083 H1086 0.984 . S
N1083 H1087 0.985 . S
H1084 N1079 0.984 . S
H1085 N1079 0.985 . S
H1086 N1083 0.984 . S
H1087 N1083 0.985 . S
H1088 N1082 0.984 . S
H1089 N1082 0.984 . S
H1090 N1078 0.984 . S
H1091 N1078 0.985 . S
C1092 C1093 1.363 . S
C1092 C1098 1.379 . S
C1092 N1100 1.356 . S
C1093 C1092 1.363 . S
C1093 C1099 1.363 . S
C1094 C1095 1.363 . S
C1094 C1099 1.379 . S
C1094 N1101 1.356 . S
C1095 C1094 1.363 . S
C1095 C1098 1.363 . S
N1096 C1098 1.356 . S
N1096 H1108 0.984 . S
N1096 H1109 0.985 . S
N1097 C1099 1.356 . S
N1097 H1102 0.984 . S
N1097 H1103 0.985 . S
C1098 C1092 1.379 . S
C1098 C1095 1.363 . S
C1098 N1096 1.356 . S
C1099 C1093 1.363 . S
C1099 C1094 1.379 . S
C1099 N1097 1.356 . S
N1100 C1092 1.356 . S
N1100 H1106 0.984 . S
N1100 H1107 0.984 . S
N1101 C1094 1.356 . S
N1101 H1104 0.984 . S
N1101 H1105 0.985 . S
H1102 N1097 0.984 . S
H1103 N1097 0.985 . S
H1104 N1101 0.984 . S
H1105 N1101 0.985 . S
H1106 N1100 0.984 . S
H1107 N1100 0.984 . S
H1108 N1096 0.984 . S
H1109 N1096 0.985 . S
C1110 C1111 1.363 . S
C1110 C1116 1.379 . S
C1110 N1118 1.356 . S
C1111 C1110 1.363 . S
C1111 C1117 1.363 . S
C1112 C1113 1.363 . S
C1112 C1117 1.379 . S
C1112 N1119 1.356 . S
C1113 C1112 1.363 . S
C1113 C1116 1.363 . S
N1114 C1116 1.356 . S
N1114 H1126 0.984 . S
N1114 H1127 0.985 . S
N1115 C1117 1.356 . S
N1115 H1120 0.984 . S
N1115 H1121 0.985 . S
C1116 C1110 1.379 . S
C1116 C1113 1.363 . S
C1116 N1114 1.356 . S
C1117 C1111 1.363 . S
C1117 C1112 1.379 . S
C1117 N1115 1.356 . S
N1118 C1110 1.356 . S
N1118 H1124 0.984 . S
N1118 H1125 0.984 . S
N1119 C1112 1.356 . S
N1119 H1122 0.984 . S
N1119 H1123 0.985 . S
H1120 N1115 0.984 . S
H1121 N1115 0.985 . S
H1122 N1119 0.984 . S
H1123 N1119 0.985 . S
H1124 N1118 0.984 . S
H1125 N1118 0.984 . S
H1126 N1114 0.984 . S
H1127 N1114 0.985 . S
C481 C95 1.434 . S
C483 C19 1.366 . S
C499 C126 1.434 . S
C501 C50 1.366 . S
C517 C99 1.366 . S
C519 C175 1.434 . S
C535 C130 1.366 . S
C537 C206 1.434 . S
C553 C15 1.434 . S
C555 C179 1.366 . S
C571 C46 1.434 . S
C573 C210 1.366 . S
C589 C406 1.434 . S
C591 C250 1.366 . S
C607 C299 1.366 . S
C609 C455 1.434 . S
C625 C330 1.366 . S
C627 C246 1.434 . S
C643 C379 1.366 . S
C645 C295 1.434 . S
C661 C410 1.366 . S
C663 C326 1.434 . S
C679 C375 1.434 . S
C681 C459 1.366 . S
C697 C129 1.681 . S
C699 C18 1.681 . S
C715 C49 1.681 . S
C717 C178 1.681 . S
C733 C98 1.681 . S
C735 C209 1.681 . S
C751 C249 1.681 . S
C753 C378 1.681 . S
C769 C298 1.681 . S
C771 C409 1.681 . S
C787 C329 1.681 . S
C789 C458 1.681 . S
C805 C289 2.568 . S
C807 C9 2.568 . S
C823 C58 2.568 . S
C825 C338 2.568 . S
C841 C369 2.568 . S
C843 C89 2.568 . S
C859 C138 2.568 . S
C861 C418 2.568 . S
C877 C169 2.568 . S
C879 C449 2.568 . S
C895 C258 2.568 . S
C897 C218 2.568 . S
C913 C86 1.825 . S
C915 C10 1.849 . S
C931 C59 1.849 . S
C933 C135 1.825 . S
C949 C90 1.849 . S
C951 C166 1.825 . S
C967 C139 1.849 . S
C969 C215 1.825 . S
C985 C6 1.825 . S
C987 C170 1.849 . S
C1003 C55 1.825 . S
C1005 C219 1.849 . S
C1021 C415 1.825 . S
C1023 C259 1.849 . S
C1039 C290 1.849 . S
C1041 C446 1.824 . S
C1057 C339 1.849 . S
C1059 C255 1.825 . S
C1075 C286 1.825 . S
C1077 C370 1.849 . S
C1093 C419 1.849 . S
C1095 C335 1.825 . S
C1111 C450 1.849 . S
C1113 C366 1.825 . S
