# Generated by pormake.
# Topology vbm, (6)-cn, num edge types: 1
# Building blocks:
#     Node 0, Type 0, BuildingBlock: BETDIP_clean_sbu_0, # of connection points: 6
#     Node 1, Type 0, BuildingBlock: BETDIP_clean_sbu_0, # of connection points: 6
#     Node 2, Type 0, BuildingBlock: BETDIP_clean_sbu_0, # of connection points: 6
#     Node 3, Type 0, BuildingBlock: BETDIP_clean_sbu_0, # of connection points: 6
#     Node 4, Type 0, BuildingBlock: BETDIP_clean_sbu_0, # of connection points: 6
#     Node 5, Type 0, BuildingBlock: BETDIP_clean_sbu_0, # of connection points: 6
#     Node 6, Type 0, BuildingBlock: BETDIP_clean_sbu_0, # of connection points: 6
#     Node 7, Type 0, BuildingBlock: BETDIP_clean_sbu_0, # of connection points: 6
#     Node 8, Type 0, BuildingBlock: BETDIP_clean_sbu_0, # of connection points: 6
#     Node 9, Type 0, BuildingBlock: BETDIP_clean_sbu_0, # of connection points: 6
#     Node 10, Type 0, BuildingBlock: BETDIP_clean_sbu_0, # of connection points: 6
#     Node 11, Type 0, BuildingBlock: BETDIP_clean_sbu_0, # of connection points: 6
#     Node 12, Type 0, BuildingBlock: BETDIP_clean_sbu_0, # of connection points: 6
#     Node 13, Type 0, BuildingBlock: BETDIP_clean_sbu_0, # of connection points: 6
#     Node 14, Type 0, BuildingBlock: BETDIP_clean_sbu_0, # of connection points: 6
#     Node 15, Type 0, BuildingBlock: BETDIP_clean_sbu_0, # of connection points: 6
#     Edge 16, Type (0, 0), BuildingBlock: XIVTED_clean_linker_0, # of connection points: 2
#     Edge 17, Type (0, 0), BuildingBlock: XIVTED_clean_linker_0, # of connection points: 2
#     Edge 18, Type (0, 0), BuildingBlock: XIVTED_clean_linker_0, # of connection points: 2
#     Edge 19, Type (0, 0), BuildingBlock: XIVTED_clean_linker_0, # of connection points: 2
#     Edge 20, Type (0, 0), BuildingBlock: XIVTED_clean_linker_0, # of connection points: 2
#     Edge 21, Type (0, 0), BuildingBlock: XIVTED_clean_linker_0, # of connection points: 2
#     Edge 22, Type (0, 0), BuildingBlock: XIVTED_clean_linker_0, # of connection points: 2
#     Edge 23, Type (0, 0), BuildingBlock: XIVTED_clean_linker_0, # of connection points: 2
#     Edge 24, Type (0, 0), BuildingBlock: XIVTED_clean_linker_0, # of connection points: 2
#     Edge 25, Type (0, 0), BuildingBlock: XIVTED_clean_linker_0, # of connection points: 2
#     Edge 26, Type (0, 0), BuildingBlock: XIVTED_clean_linker_0, # of connection points: 2
#     Edge 27, Type (0, 0), BuildingBlock: XIVTED_clean_linker_0, # of connection points: 2
#     Edge 28, Type (0, 0), BuildingBlock: XIVTED_clean_linker_0, # of connection points: 2
#     Edge 29, Type (0, 0), BuildingBlock: XIVTED_clean_linker_0, # of connection points: 2
#     Edge 30, Type (0, 0), BuildingBlock: XIVTED_clean_linker_0, # of connection points: 2
#     Edge 31, Type (0, 0), BuildingBlock: XIVTED_clean_linker_0, # of connection points: 2
#     Edge 32, Type (0, 0), BuildingBlock: XIVTED_clean_linker_0, # of connection points: 2
#     Edge 33, Type (0, 0), BuildingBlock: XIVTED_clean_linker_0, # of connection points: 2
#     Edge 34, Type (0, 0), BuildingBlock: XIVTED_clean_linker_0, # of connection points: 2
#     Edge 35, Type (0, 0), BuildingBlock: XIVTED_clean_linker_0, # of connection points: 2
#     Edge 36, Type (0, 0), BuildingBlock: XIVTED_clean_linker_0, # of connection points: 2
#     Edge 37, Type (0, 0), BuildingBlock: XIVTED_clean_linker_0, # of connection points: 2
#     Edge 38, Type (0, 0), BuildingBlock: XIVTED_clean_linker_0, # of connection points: 2
#     Edge 39, Type (0, 0), BuildingBlock: XIVTED_clean_linker_0, # of connection points: 2
#     Edge 40, Type (0, 0), BuildingBlock: XIVTED_clean_linker_0, # of connection points: 2
#     Edge 41, Type (0, 0), BuildingBlock: XIVTED_clean_linker_0, # of connection points: 2
#     Edge 42, Type (0, 0), BuildingBlock: XIVTED_clean_linker_0, # of connection points: 2
#     Edge 43, Type (0, 0), BuildingBlock: XIVTED_clean_linker_0, # of connection points: 2
#     Edge 44, Type (0, 0), BuildingBlock: XIVTED_clean_linker_0, # of connection points: 2
#     Edge 45, Type (0, 0), BuildingBlock: XIVTED_clean_linker_0, # of connection points: 2
#     Edge 46, Type (0, 0), BuildingBlock: XIVTED_clean_linker_0, # of connection points: 2
#     Edge 47, Type (0, 0), BuildingBlock: XIVTED_clean_linker_0, # of connection points: 2
#     Edge 48, Type (0, 0), BuildingBlock: XIVTED_clean_linker_0, # of connection points: 2
#     Edge 49, Type (0, 0), BuildingBlock: XIVTED_clean_linker_0, # of connection points: 2
#     Edge 50, Type (0, 0), BuildingBlock: XIVTED_clean_linker_0, # of connection points: 2
#     Edge 51, Type (0, 0), BuildingBlock: XIVTED_clean_linker_0, # of connection points: 2
#     Edge 52, Type (0, 0), BuildingBlock: XIVTED_clean_linker_0, # of connection points: 2
#     Edge 53, Type (0, 0), BuildingBlock: XIVTED_clean_linker_0, # of connection points: 2
#     Edge 54, Type (0, 0), BuildingBlock: XIVTED_clean_linker_0, # of connection points: 2
#     Edge 55, Type (0, 0), BuildingBlock: XIVTED_clean_linker_0, # of connection points: 2
#     Edge 56, Type (0, 0), BuildingBlock: XIVTED_clean_linker_0, # of connection points: 2
#     Edge 57, Type (0, 0), BuildingBlock: XIVTED_clean_linker_0, # of connection points: 2
#     Edge 58, Type (0, 0), BuildingBlock: XIVTED_clean_linker_0, # of connection points: 2
#     Edge 59, Type (0, 0), BuildingBlock: XIVTED_clean_linker_0, # of connection points: 2
#     Edge 60, Type (0, 0), BuildingBlock: XIVTED_clean_linker_0, # of connection points: 2
#     Edge 61, Type (0, 0), BuildingBlock: XIVTED_clean_linker_0, # of connection points: 2
#     Edge 62, Type (0, 0), BuildingBlock: XIVTED_clean_linker_0, # of connection points: 2
#     Edge 63, Type (0, 0), BuildingBlock: XIVTED_clean_linker_0, # of connection points: 2
# Relax obj value: 0.070
# Max RMSD: 0.145
# Mean RMSD: 0.145
data_MOF--net-vbm--node1-BETDIP_clean_sbu_0--edge1-XIVTED_clean_linker_0
_symmetry_space_group_name_H-M    P1
_symmetry_Int_Tables_number       1
_symmetry_cell_setting            triclinic
loop_
_symmetry_equiv_pos_as_xyz
'x, y, z'
_cell_length_a     55.772721
_cell_length_b     25.758214
_cell_length_c     54.978807
_cell_angle_alpha  90.021878
_cell_angle_beta   89.927514
_cell_angle_gamma 90.000543
loop_
_atom_site_label
_atom_site_type_symbol
_atom_site_fract_x
_atom_site_fract_y
_atom_site_fract_z
_atom_type_partial_charge
Tb0 Tb 0.12811 0.08559 0.15753 0.0
Tb1 Tb 0.10355 0.18868 0.1583 0.0
C2 C 0.14212 0.99399 0.16539 0.0
C3 C 0.13406 0.93939 0.16537 0.0
C4 C 0.14233 0.90629 0.18377 0.0
C5 C 0.13736 0.85313 0.18303 0.0
C6 C 0.12401 0.83179 0.16376 0.0
C7 C 0.11506 0.86541 0.14571 0.0
C8 C 0.12001 0.91874 0.14652 0.0
C9 C 0.12967 0.13641 0.11584 0.0
C10 C 0.07154 0.09417 0.14842 0.0
C11 C 0.0891 0.28015 0.15116 0.0
C12 C 0.09671 0.335 0.15198 0.0
C13 C 0.08828 0.36881 0.13395 0.0
C14 C 0.09317 0.42194 0.13516 0.0
C15 C 0.10661 0.44258 0.15452 0.0
C16 C 0.11557 0.40835 0.17232 0.0
C17 C 0.11071 0.35498 0.17104 0.0
C18 C 0.10273 0.13566 0.19961 0.0
C19 C 0.15984 0.18291 0.16672 0.0
O20 O 0.13343 1.02439 0.18229 0.0
O21 O 0.14389 1.01736 0.14435 0.0
O22 O 0.11191 0.13394 0.1301 0.0
O23 O 0.14686 0.10814 0.12447 0.0
O24 O 0.08972 0.0646 0.15557 0.0
O25 O 0.07419 0.14417 0.14443 0.0
O26 O 0.0985 0.251 0.13414 0.0
O27 O 0.08691 0.25562 0.17188 0.0
O28 O 0.11998 0.1401 0.18506 0.0
O29 O 0.08504 0.16364 0.19179 0.0
O30 O 0.1412 0.21128 0.16011 0.0
O31 O 0.15817 0.13217 0.16996 0.0
H32 H 0.15331 0.92137 0.19842 0.0
H33 H 0.14478 0.82849 0.19709 0.0
H34 H 0.10441 0.85042 0.13082 0.0
H35 H 0.11331 0.94354 0.13214 0.0
H36 H 0.07733 0.35424 0.11918 0.0
H37 H 0.08571 0.44707 0.12132 0.0
H38 H 0.12624 0.42283 0.1873 0.0
H39 H 0.11752 0.3296 0.18514 0.0
Tb40 Tb 0.84742 0.96784 0.15951 0.0
Tb41 Tb 0.87236 0.86644 0.16309 0.0
C42 C 0.83302 0.0602 0.16399 0.0
C43 C 0.84121 0.11484 0.16282 0.0
C44 C 0.85519 0.13708 0.18138 0.0
C45 C 0.86024 0.19037 0.18125 0.0
C46 C 0.85139 0.22254 0.16261 0.0
C47 C 0.83792 0.19987 0.14379 0.0
C48 C 0.83285 0.14676 0.14395 0.0
C49 C 0.84569 0.91164 0.1193 0.0
C50 C 0.90396 0.95961 0.1503 0.0
C51 C 0.88711 0.77418 0.15962 0.0
C52 C 0.87905 0.71957 0.16167 0.0
C53 C 0.86397 0.6968 0.14417 0.0
C54 C 0.85911 0.64348 0.14485 0.0
C55 C 0.8692 0.6118 0.163 0.0
C56 C 0.88365 0.63501 0.1809 0.0
C57 C 0.88858 0.6882 0.18017 0.0
C58 C 0.87357 0.92503 0.20272 0.0
C59 C 0.81605 0.87158 0.17106 0.0
O60 O 0.84032 0.03157 0.1822 0.0
O61 O 0.83246 0.03433 0.14355 0.0
O62 O 0.86362 0.91657 0.13316 0.0
O63 O 0.8283 0.93977 0.12768 0.0
O64 O 0.88572 0.98948 0.15706 0.0
O65 O 0.90147 0.90921 0.14759 0.0
O66 O 0.87934 0.80153 0.14117 0.0
O67 O 0.88803 0.80136 0.17969 0.0
O68 O 0.856 0.91807 0.1888 0.0
O69 O 0.89134 0.89693 0.19518 0.0
O70 O 0.83483 0.84313 0.16496 0.0
O71 O 0.81749 0.92258 0.17323 0.0
H72 H 0.8618 0.11365 0.1963 0.0
H73 H 0.87089 0.20645 0.19588 0.0
H74 H 0.8305 0.22347 0.12935 0.0
H75 H 0.82171 0.13088 0.12963 0.0
H76 H 0.85639 0.71981 0.1296 0.0
H77 H 0.84765 0.62694 0.13096 0.0
H78 H 0.89196 0.61175 0.19496 0.0
H79 H 0.90052 0.70455 0.19369 0.0
Tb80 Tb 0.12851 0.96402 0.39332 0.0
Tb81 Tb 0.1039 0.86111 0.39216 0.0
C82 C 0.14241 0.05586 0.38596 0.0
C83 C 0.13414 0.11036 0.386 0.0
C84 C 0.13971 0.14187 0.36597 0.0
C85 C 0.13476 0.19506 0.36644 0.0
C86 C 0.12419 0.21803 0.38704 0.0
C87 C 0.1179 0.18605 0.40682 0.0
C88 C 0.1228 0.13271 0.4063 0.0
C89 C 0.13056 0.9117 0.43459 0.0
C90 C 0.07207 0.95534 0.40322 0.0
C91 C 0.08965 0.76933 0.39877 0.0
C92 C 0.09773 0.71472 0.3981 0.0
C93 C 0.0921 0.68239 0.41781 0.0
C94 C 0.09718 0.62931 0.41694 0.0
C95 C 0.10795 0.60722 0.39624 0.0
C96 C 0.11418 0.63996 0.37671 0.0
C97 C 0.10916 0.69324 0.37764 0.0
C98 C 0.1023 0.91563 0.35134 0.0
C99 C 0.1601 0.86713 0.38315 0.0
O100 O 0.13414 1.02555 0.36882 0.0
O101 O 0.144 0.03214 0.40693 0.0
O102 O 0.11265 0.9148 0.42062 0.0
O103 O 0.1477 0.94011 0.42589 0.0
O104 O 0.09018 0.98509 0.39603 0.0
O105 O 0.07468 0.90515 0.40669 0.0
O106 O 0.09831 0.79866 0.4161 0.0
O107 O 0.08783 0.79404 0.37806 0.0
O108 O 0.11987 0.91067 0.36544 0.0
O109 O 0.08476 0.88737 0.35934 0.0
O110 O 0.14153 0.83862 0.38984 0.0
O111 O 0.15843 0.91793 0.38023 0.0
H112 H 0.14861 0.12557 0.35019 0.0
H113 H 0.14008 0.21848 0.351 0.0
H114 H 0.10941 0.20234 0.42282 0.0
H115 H 0.11822 0.1093 0.422 0.0
H116 H 0.08311 0.69801 0.4337 0.0
H117 H 0.09187 0.60528 0.43218 0.0
H118 H 0.12278 0.62432 0.36062 0.0
H119 H 0.11378 0.71733 0.36218 0.0
Tb120 Tb 0.85 0.09116 0.39662 0.0
Tb121 Tb 0.87436 0.19416 0.39701 0.0
C122 C 0.83637 0.99969 0.38783 0.0
C123 C 0.84443 0.94503 0.38816 0.0
C124 C 0.84091 0.9145 0.36734 0.0
C125 C 0.84555 0.86118 0.36781 0.0
C126 C 0.85374 0.83706 0.38919 0.0
C127 C 0.8581 0.86811 0.40982 0.0
C128 C 0.85348 0.92156 0.40932 0.0
C129 C 0.84825 0.14001 0.43889 0.0
C130 C 0.9064 0.09955 0.40637 0.0
C131 C 0.88839 0.28544 0.40537 0.0
C132 C 0.88102 0.34044 0.40394 0.0
C133 C 0.88476 0.37235 0.42425 0.0
C134 C 0.88059 0.42575 0.42289 0.0
C135 C 0.87268 0.4486 0.40109 0.0
C136 C 0.86812 0.41624 0.38096 0.0
C137 C 0.87227 0.36265 0.38235 0.0
C138 C 0.87546 0.14323 0.3551 0.0
C139 C 0.8182 0.18831 0.38758 0.0
O140 O 0.84592 0.03023 0.37147 0.0
O141 O 0.83335 1.02301 0.40874 0.0
O142 O 0.86605 0.13823 0.42467 0.0
O143 O 0.83111 0.11217 0.42983 0.0
O144 O 0.88834 0.07023 0.39874 0.0
O145 O 0.90361 0.1493 0.41093 0.0
O146 O 0.87756 0.25641 0.42154 0.0
O147 O 0.89235 0.26076 0.38495 0.0
O148 O 0.85814 0.1468 0.36961 0.0
O149 O 0.89302 0.17111 0.36328 0.0
O150 O 0.8367 0.2167 0.39457 0.0
O151 O 0.82004 0.13771 0.38404 0.0
H152 H 0.83392 0.93171 0.35081 0.0
H153 H 0.84243 0.83874 0.35145 0.0
H154 H 0.86424 0.85084 0.42665 0.0
H155 H 0.85635 0.94413 0.42569 0.0
H156 H 0.8915 0.35609 0.44108 0.0
H157 H 0.88382 0.44923 0.4389 0.0
H158 H 0.86216 0.43252 0.36385 0.0
H159 H 0.86924 0.33892 0.36638 0.0
Tb160 Tb 0.87362 0.86128 0.89612 0.0
Tb161 Tb 0.84896 0.96404 0.89675 0.0
C162 C 0.88777 0.7698 0.90368 0.0
C163 C 0.8802 0.71494 0.90215 0.0
C164 C 0.884 0.6827 0.92232 0.0
C165 C 0.87958 0.62942 0.92085 0.0
C166 C 0.87135 0.607 0.89907 0.0
C167 C 0.86675 0.63968 0.87908 0.0
C168 C 0.87115 0.69316 0.88058 0.0
C169 C 0.87519 0.91431 0.85489 0.0
C170 C 0.81741 0.86691 0.88663 0.0
C171 C 0.83511 0.05587 0.88931 0.0
C172 C 0.84354 0.1103 0.88918 0.0
C173 C 0.83961 0.14067 0.86839 0.0
C174 C 0.84461 0.19386 0.86857 0.0
C175 C 0.85356 0.21801 0.88964 0.0
C176 C 0.85829 0.18712 0.91022 0.0
C177 C 0.85333 0.13382 0.91 0.0
C178 C 0.84711 0.91257 0.93834 0.0
C179 C 0.90542 0.95576 0.90631 0.0
O180 O 0.87741 0.79857 0.92027 0.0
O181 O 0.89129 0.79491 0.88329 0.0
O182 O 0.85762 0.91008 0.8691 0.0
O183 O 0.89266 0.88603 0.86296 0.0
O184 O 0.83604 0.83843 0.89319 0.0
O185 O 0.81901 0.91777 0.88386 0.0
O186 O 0.84316 1.02529 0.87215 0.0
O187 O 0.83357 0.03232 0.91032 0.0
O188 O 0.86496 0.91581 0.92426 0.0
O189 O 0.82985 0.94042 0.92953 0.0
O190 O 0.88734 0.98509 0.89872 0.0
O191 O 0.90266 0.90591 0.91063 0.0
H192 H 0.89097 0.69862 0.93914 0.0
H193 H 0.88285 0.60568 0.93676 0.0
H194 H 0.86055 0.62373 0.86198 0.0
H195 H 0.86807 0.71713 0.86471 0.0
H196 H 0.83205 0.12346 0.85212 0.0
H197 H 0.84118 0.21618 0.85225 0.0
H198 H 0.86499 0.20442 0.92683 0.0
H199 H 0.8565 0.11145 0.92636 0.0
Tb200 Tb 0.10381 0.19203 0.89296 0.0
Tb201 Tb 0.12803 0.08868 0.89281 0.0
C202 C 0.08966 0.2834 0.90102 0.0
C203 C 0.09714 0.33828 0.90002 0.0
C204 C 0.08829 0.37242 0.91773 0.0
C205 C 0.09311 0.42555 0.91635 0.0
C206 C 0.10691 0.44584 0.89714 0.0
C207 C 0.11627 0.41127 0.87966 0.0
C208 C 0.11147 0.3579 0.88111 0.0
C209 C 0.10212 0.14018 0.85138 0.0
C210 C 0.15992 0.18569 0.88334 0.0
C211 C 0.14183 0.99712 0.88441 0.0
C212 C 0.13385 0.94251 0.88459 0.0
C213 C 0.14257 0.909 0.86654 0.0
C214 C 0.13763 0.85584 0.86746 0.0
C215 C 0.12386 0.83493 0.88655 0.0
C216 C 0.11448 0.86896 0.90425 0.0
C217 C 0.1194 0.9223 0.90326 0.0
C218 C 0.13028 0.13895 0.93469 0.0
C219 C 0.07167 0.09773 0.903 0.0
O220 O 0.09982 0.25411 0.91749 0.0
O221 O 0.08666 0.25915 0.88034 0.0
O222 O 0.11966 0.14371 0.8656 0.0
O223 O 0.08471 0.16838 0.85969 0.0
O224 O 0.14147 0.21426 0.89034 0.0
O225 O 0.15803 0.13501 0.87998 0.0
O226 O 0.13269 0.02758 0.86781 0.0
O227 O 0.14409 1.02034 0.90544 0.0
O228 O 0.11235 0.13655 0.92073 0.0
O229 O 0.14733 0.11079 0.92563 0.0
O230 O 0.08964 0.06803 0.8954 0.0
O231 O 0.07456 0.14759 0.9072 0.0
H232 H 0.07708 0.3581 0.93239 0.0
H233 H 0.08534 0.45094 0.92994 0.0
H234 H 0.12722 0.42549 0.86481 0.0
H235 H 0.11858 0.3322 0.86727 0.0
H236 H 0.15386 0.92376 0.85205 0.0
H237 H 0.14539 0.83089 0.85369 0.0
H238 H 0.10351 0.8543 0.91899 0.0
H239 H 0.11237 0.94747 0.91736 0.0
Tb240 Tb 0.87262 0.18913 0.66237 0.0
Tb241 Tb 0.84831 0.07884 0.66383 0.0
C242 C 0.88587 0.28124 0.65513 0.0
C243 C 0.87654 0.33469 0.65324 0.0
C244 C 0.8887 0.37034 0.63844 0.0
C245 C 0.88229 0.42283 0.6385 0.0
C246 C 0.86353 0.44086 0.65342 0.0
C247 C 0.85076 0.40454 0.66757 0.0
C248 C 0.85722 0.35196 0.66751 0.0
C249 C 0.87443 0.13554 0.70353 0.0
C250 C 0.81625 0.1795 0.66961 0.0
C251 C 0.83524 0.99241 0.68038 0.0
C252 C 0.83723 0.93655 0.67509 0.0
C253 C 0.82186 0.90203 0.68709 0.0
C254 C 0.824 0.84852 0.6835 0.0
C255 C 0.84164 0.82832 0.66781 0.0
C256 C 0.85678 0.86326 0.6554 0.0
C257 C 0.85462 0.91697 0.65904 0.0
C258 C 0.85084 0.11378 0.61845 0.0
C259 C 0.90399 0.09327 0.65067 0.0
O260 O 0.88067 0.24883 0.6375 0.0
O261 O 0.88479 0.25949 0.67664 0.0
O262 O 0.85722 0.13838 0.68891 0.0
O263 O 0.89171 0.16487 0.69569 0.0
O264 O 0.83483 0.20901 0.6638 0.0
O265 O 0.81791 0.12859 0.67302 0.0
O266 O 0.85506 1.01604 0.68693 0.0
O267 O 0.82223 1.02018 0.66535 0.0
O268 O 0.85834 0.13458 0.63769 0.0
O269 O 0.84116 0.06987 0.62463 0.0
O270 O 0.88687 0.0623 0.65935 0.0
O271 O 0.90083 0.14338 0.6469 0.0
H272 H 0.90377 0.35788 0.62742 0.0
H273 H 0.89272 0.44959 0.62759 0.0
H274 H 0.83598 0.41685 0.679 0.0
H275 H 0.84759 0.32514 0.67911 0.0
H276 H 0.80829 0.91647 0.6995 0.0
H277 H 0.81176 0.82295 0.69302 0.0
H278 H 0.87069 0.84908 0.64335 0.0
H279 H 0.8667 0.94311 0.64964 0.0
Tb280 Tb 0.1028 0.86376 0.65926 0.0
Tb281 Tb 0.12755 0.96542 0.65575 0.0
C282 C 0.08812 0.77154 0.65541 0.0
C283 C 0.09584 0.71693 0.65825 0.0
C284 C 0.11451 0.69557 0.64425 0.0
C285 C 0.11938 0.64225 0.64525 0.0
C286 C 0.10575 0.60929 0.6603 0.0
C287 C 0.08764 0.63118 0.67487 0.0
C288 C 0.08271 0.68432 0.67378 0.0
C289 C 0.10187 0.92153 0.69915 0.0
C290 C 0.15908 0.86923 0.66731 0.0
C291 C 0.14207 0.05766 0.66029 0.0
C292 C 0.13427 0.11245 0.6588 0.0
C293 C 0.1169 0.1333 0.67458 0.0
C294 C 0.11191 0.18665 0.67435 0.0
C295 C 0.12418 0.22014 0.65836 0.0
C296 C 0.14112 0.19878 0.64224 0.0
C297 C 0.14612 0.14566 0.64252 0.0
C298 C 0.12914 0.90935 0.61544 0.0
C299 C 0.07103 0.95679 0.64671 0.0
O300 O 0.0972 0.79827 0.63736 0.0
O301 O 0.08599 0.79918 0.67524 0.0
O302 O 0.11931 0.91516 0.68496 0.0
O303 O 0.08409 0.89335 0.69175 0.0
O304 O 0.14034 0.84056 0.66134 0.0
O305 O 0.15753 0.92024 0.66941 0.0
O306 O 0.13411 0.02946 0.67838 0.0
O307 O 0.14301 0.03162 0.63991 0.0
O308 O 0.11129 0.91439 0.62944 0.0
O309 O 0.14654 0.93749 0.62372 0.0
O310 O 0.08917 0.98679 0.65357 0.0
O311 O 0.07373 0.90651 0.64372 0.0
H312 H 0.12499 0.71972 0.63211 0.0
H313 H 0.13367 0.62674 0.63404 0.0
H314 H 0.07661 0.60693 0.68644 0.0
H315 H 0.06808 0.69974 0.68457 0.0
H316 H 0.1075 0.1087 0.68741 0.0
H317 H 0.09856 0.20171 0.68681 0.0
H318 H 0.15119 0.22337 0.62995 0.0
H319 H 0.1598 0.13067 0.63039 0.0
Tb320 Tb 0.62805 0.58847 0.15751 0.0
Tb321 Tb 0.60331 0.69116 0.15813 0.0
C322 C 0.64212 0.49681 0.16505 0.0
C323 C 0.63397 0.44222 0.16559 0.0
C324 C 0.64005 0.41137 0.18567 0.0
C325 C 0.63535 0.35806 0.18561 0.0
C326 C 0.62453 0.33425 0.16537 0.0
C327 C 0.6176 0.36563 0.14561 0.0
C328 C 0.62229 0.41909 0.1457 0.0
C329 C 0.63028 0.6399 0.116 0.0
C330 C 0.57163 0.59663 0.14768 0.0
C331 C 0.58875 0.78249 0.15086 0.0
C332 C 0.59604 0.83757 0.15184 0.0
C333 C 0.58975 0.87005 0.13241 0.0
C334 C 0.59392 0.92346 0.13363 0.0
C335 C 0.60441 0.94578 0.15441 0.0
C336 C 0.61149 0.91286 0.17357 0.0
C337 C 0.60733 0.85922 0.17231 0.0
C338 C 0.60179 0.63765 0.19931 0.0
C339 C 0.65947 0.68593 0.16751 0.0
O340 O 0.63428 0.5276 0.18223 0.0
O341 O 0.64317 0.51993 0.1439 0.0
O342 O 0.61225 0.63693 0.12989 0.0
O343 O 0.64744 0.61204 0.12498 0.0
O344 O 0.58969 0.56728 0.15532 0.0
O345 O 0.57435 0.64653 0.14354 0.0
O346 O 0.59859 0.75361 0.13399 0.0
O347 O 0.58618 0.75774 0.17148 0.0
O348 O 0.61932 0.64239 0.18512 0.0
O349 O 0.58422 0.66562 0.1912 0.0
O350 O 0.64085 0.71423 0.16081 0.0
O351 O 0.65792 0.63507 0.17039 0.0
H352 H 0.64908 0.42832 0.2012 0.0
H353 H 0.6405 0.33537 0.20134 0.0
H354 H 0.60938 0.34863 0.12965 0.0
H355 H 0.6174 0.44193 0.12993 0.0
H356 H 0.58104 0.85419 0.11644 0.0
H357 H 0.58869 0.94736 0.11833 0.0
H358 H 0.6195 0.9287 0.18989 0.0
H359 H 0.61238 0.835 0.18757 0.0
Tb360 Tb 0.3488 0.46353 0.1576 0.0
Tb361 Tb 0.37329 0.36086 0.15936 0.0
C362 C 0.3349 0.55554 0.16447 0.0
C363 C 0.34332 0.60996 0.16448 0.0
C364 C 0.33922 0.64061 0.18518 0.0
C365 C 0.34416 0.69381 0.18487 0.0
C366 C 0.35322 0.71765 0.16376 0.0
C367 C 0.3581 0.68653 0.14328 0.0
C368 C 0.35321 0.63321 0.14363 0.0
C369 C 0.34703 0.41072 0.11645 0.0
C370 C 0.40538 0.45454 0.14846 0.0
C371 C 0.38752 0.26888 0.15334 0.0
C372 C 0.3793 0.21435 0.1542 0.0
C373 C 0.38324 0.1826 0.13386 0.0
C374 C 0.37811 0.12955 0.13476 0.0
C375 C 0.36901 0.1069 0.15614 0.0
C376 C 0.36446 0.13903 0.17635 0.0
C377 C 0.36952 0.19228 0.1754 0.0
C378 C 0.37428 0.41589 0.20012 0.0
C379 C 0.31698 0.36686 0.16757 0.0
O380 O 0.34273 0.52533 0.18185 0.0
O381 O 0.33364 0.53156 0.14353 0.0
O382 O 0.36488 0.41397 0.13052 0.0
O383 O 0.32982 0.43913 0.12501 0.0
O384 O 0.38721 0.48443 0.15541 0.0
O385 O 0.40271 0.40438 0.145 0.0
O386 O 0.37908 0.29786 0.13578 0.0
O387 O 0.38925 0.29412 0.17392 0.0
O388 O 0.35694 0.41064 0.18577 0.0
O389 O 0.39198 0.38774 0.1924 0.0
O390 O 0.33565 0.3383 0.16121 0.0
O391 O 0.31863 0.4177 0.17038 0.0
H392 H 0.33142 0.62367 0.2014 0.0
H393 H 0.33996 0.71659 0.20087 0.0
H394 H 0.36542 0.70352 0.12686 0.0
H395 H 0.35663 0.61057 0.12739 0.0
H396 H 0.39097 0.19862 0.11739 0.0
H397 H 0.38211 0.10595 0.11896 0.0
H398 H 0.35717 0.12294 0.19298 0.0
H399 H 0.36625 0.21582 0.19138 0.0
Tb400 Tb 0.62871 0.4663 0.39382 0.0
Tb401 Tb 0.60433 0.3636 0.39217 0.0
C402 C 0.64262 0.55827 0.38701 0.0
C403 C 0.63408 0.61261 0.3865 0.0
C404 C 0.6368 0.64156 0.36506 0.0
C405 C 0.6319 0.69477 0.3648 0.0
C406 C 0.62429 0.72035 0.38606 0.0
C407 C 0.62073 0.69089 0.40733 0.0
C408 C 0.62559 0.63759 0.40756 0.0
C409 C 0.63046 0.41375 0.43505 0.0
C410 C 0.57223 0.45723 0.40291 0.0
C411 C 0.58993 0.27188 0.3985 0.0
C412 C 0.59766 0.21706 0.39741 0.0
C413 C 0.595 0.1861 0.41822 0.0
C414 C 0.59928 0.13272 0.4172 0.0
C415 C 0.60619 0.10894 0.39526 0.0
C416 C 0.60971 0.1403 0.37459 0.0
C417 C 0.60546 0.19386 0.37563 0.0
C418 C 0.60322 0.41827 0.35134 0.0
C419 C 0.66064 0.36977 0.38393 0.0
O420 O 0.63541 0.5276 0.36952 0.0
O421 O 0.64333 0.53471 0.40807 0.0
O422 O 0.61263 0.41692 0.42095 0.0
O423 O 0.64769 0.44203 0.42645 0.0
O424 O 0.59028 0.48706 0.39565 0.0
O425 O 0.57507 0.40727 0.40676 0.0
O426 O 0.59907 0.30057 0.41582 0.0
O427 O 0.58773 0.2972 0.378 0.0
O428 O 0.62059 0.41326 0.36567 0.0
O429 O 0.58558 0.39002 0.35911 0.0
O430 O 0.64197 0.34102 0.3901 0.0
O431 O 0.65897 0.42063 0.38125 0.0
H432 H 0.6434 0.62328 0.3486 0.0
H433 H 0.63442 0.71603 0.348 0.0
H434 H 0.6151 0.70935 0.42409 0.0
H435 H 0.62342 0.61642 0.42444 0.0
H436 H 0.58895 0.20303 0.4352 0.0
H437 H 0.59685 0.10996 0.43358 0.0
H438 H 0.61487 0.12324 0.35736 0.0
H439 H 0.60761 0.21672 0.35924 0.0
Tb440 Tb 0.34915 0.58738 0.39349 0.0
Tb441 Tb 0.37352 0.69047 0.39285 0.0
C442 C 0.33527 0.49569 0.38572 0.0
C443 C 0.34349 0.44119 0.38543 0.0
C444 C 0.33717 0.40971 0.36564 0.0
C445 C 0.34204 0.3565 0.36593 0.0
C446 C 0.35329 0.33347 0.38611 0.0
C447 C 0.36043 0.36549 0.40558 0.0
C448 C 0.35558 0.41885 0.40525 0.0
C449 C 0.34723 0.63837 0.43517 0.0
C450 C 0.40555 0.59636 0.40307 0.0
C451 C 0.38789 0.78187 0.40025 0.0
C452 C 0.38046 0.8368 0.39914 0.0
C453 C 0.387 0.86976 0.41831 0.0
C454 C 0.38258 0.92304 0.41697 0.0
C455 C 0.3716 0.94471 0.39631 0.0
C456 C 0.36429 0.9113 0.37742 0.0
C457 C 0.3687 0.85779 0.37881 0.0
C458 C 0.37496 0.63725 0.35158 0.0
C459 C 0.31735 0.68438 0.38384 0.0
O460 O 0.3435 0.52636 0.3687 0.0
O461 O 0.33376 0.5189 0.40683 0.0
O462 O 0.36507 0.63586 0.42103 0.0
O463 O 0.33008 0.61019 0.42637 0.0
O464 O 0.38756 0.56667 0.39554 0.0
O465 O 0.40265 0.6462 0.40728 0.0
O466 O 0.37791 0.75299 0.41702 0.0
O467 O 0.39071 0.75709 0.37966 0.0
O468 O 0.3575 0.64161 0.3659 0.0
O469 O 0.39248 0.66548 0.35961 0.0
O470 O 0.33591 0.71299 0.39043 0.0
O471 O 0.31907 0.63358 0.38085 0.0
H472 H 0.32784 0.4261 0.35016 0.0
H473 H 0.33672 0.33328 0.35043 0.0
H474 H 0.36899 0.34906 0.42148 0.0
H475 H 0.36066 0.44225 0.42079 0.0
H476 H 0.39605 0.85437 0.43418 0.0
H477 H 0.38799 0.94736 0.43207 0.0
H478 H 0.3559 0.92666 0.3612 0.0
H479 H 0.36345 0.83313 0.36377 0.0
Tb480 Tb 0.37379 0.36136 0.89182 0.0
Tb481 Tb 0.34912 0.46322 0.89492 0.0
C482 C 0.38846 0.26926 0.89626 0.0
C483 C 0.38112 0.21456 0.89304 0.0
C484 C 0.36046 0.19415 0.90415 0.0
C485 C 0.35561 0.14082 0.90295 0.0
C486 C 0.37127 0.10695 0.89058 0.0
C487 C 0.39148 0.12794 0.87885 0.0
C488 C 0.39636 0.18108 0.88013 0.0
C489 C 0.37494 0.41836 0.85172 0.0
C490 C 0.31758 0.36708 0.88327 0.0
C491 C 0.33458 0.55535 0.88999 0.0
C492 C 0.34201 0.61025 0.89196 0.0
C493 C 0.36177 0.63029 0.87913 0.0
C494 C 0.3667 0.68368 0.87961 0.0
C495 C 0.35201 0.71794 0.89295 0.0
C496 C 0.33262 0.69733 0.90618 0.0
C497 C 0.3277 0.64419 0.90564 0.0
C498 C 0.34765 0.40797 0.93551 0.0
C499 C 0.40557 0.4546 0.90414 0.0
O500 O 0.37843 0.29577 0.91387 0.0
O501 O 0.39139 0.29694 0.87656 0.0
O502 O 0.35742 0.41245 0.86586 0.0
O503 O 0.39259 0.38999 0.85926 0.0
O504 O 0.33623 0.3383 0.88939 0.0
O505 O 0.31924 0.41805 0.88107 0.0
O506 O 0.34351 0.52754 0.87223 0.0
O507 O 0.33284 0.52912 0.91024 0.0
O508 O 0.36542 0.4127 0.92141 0.0
O509 O 0.33024 0.43598 0.92717 0.0
O510 O 0.38746 0.48458 0.89722 0.0
O511 O 0.40282 0.40438 0.90734 0.0
H512 H 0.34833 0.2191 0.91418 0.0
H513 H 0.33971 0.12602 0.91191 0.0
H514 H 0.40407 0.10303 0.86941 0.0
H515 H 0.4125 0.19585 0.87159 0.0
H516 H 0.37313 0.60498 0.8684 0.0
H517 H 0.38194 0.69815 0.86945 0.0
H518 H 0.32071 0.72249 0.91635 0.0
H519 H 0.31222 0.62972 0.91548 0.0
Tb520 Tb 0.60394 0.68907 0.89218 0.0
Tb521 Tb 0.62845 0.58648 0.89346 0.0
C522 C 0.5896 0.78072 0.89892 0.0
C523 C 0.59726 0.83559 0.89763 0.0
C524 C 0.59533 0.86646 0.91857 0.0
C525 C 0.59956 0.91986 0.91747 0.0
C526 C 0.60568 0.94377 0.89532 0.0
C527 C 0.60845 0.9125 0.8745 0.0
C528 C 0.60425 0.85892 0.87562 0.0
C529 C 0.60248 0.63488 0.85125 0.0
C530 C 0.66022 0.68328 0.88345 0.0
C531 C 0.64229 0.4945 0.88645 0.0
C532 C 0.63372 0.44015 0.88619 0.0
C533 C 0.63559 0.41128 0.86461 0.0
C534 C 0.63063 0.35808 0.86447 0.0
C535 C 0.62382 0.33241 0.88598 0.0
C536 C 0.62113 0.36177 0.90741 0.0
C537 C 0.62605 0.41506 0.90753 0.0
C538 C 0.63022 0.63886 0.93482 0.0
C539 C 0.57199 0.59518 0.90304 0.0
O540 O 0.59919 0.75206 0.91599 0.0
O541 O 0.5869 0.75537 0.87848 0.0
O542 O 0.62003 0.63955 0.86542 0.0
O543 O 0.58495 0.66314 0.85924 0.0
O544 O 0.64153 0.71187 0.88972 0.0
O545 O 0.65863 0.63239 0.88079 0.0
O546 O 0.63474 0.52507 0.86908 0.0
O547 O 0.64343 0.51821 0.90746 0.0
O548 O 0.61242 0.63542 0.92073 0.0
O549 O 0.64748 0.61076 0.92612 0.0
O550 O 0.59004 0.56548 0.89562 0.0
O551 O 0.5748 0.64515 0.90691 0.0
H552 H 0.5899 0.84945 0.93574 0.0
H553 H 0.59772 0.94254 0.93396 0.0
H554 H 0.61298 0.92965 0.85711 0.0
H555 H 0.60581 0.83617 0.85913 0.0
H556 H 0.64156 0.42961 0.84793 0.0
H557 H 0.63248 0.33691 0.84755 0.0
H558 H 0.61614 0.34326 0.92435 0.0
H559 H 0.62455 0.43614 0.92451 0.0
Tb560 Tb 0.37249 0.69108 0.65859 0.0
Tb561 Tb 0.34806 0.58811 0.65806 0.0
C562 C 0.38665 0.78269 0.6512 0.0
C563 C 0.37883 0.83744 0.65206 0.0
C564 C 0.3851 0.87021 0.63272 0.0
C565 C 0.38016 0.92334 0.63377 0.0
C566 C 0.36887 0.94504 0.65429 0.0
C567 C 0.36203 0.91185 0.67345 0.0
C568 C 0.36692 0.8585 0.67233 0.0
C569 C 0.37348 0.63863 0.70004 0.0
C570 C 0.31622 0.68522 0.66736 0.0
C571 C 0.33423 0.49636 0.66587 0.0
C572 C 0.3425 0.44186 0.6659 0.0
C573 C 0.33619 0.40994 0.68555 0.0
C574 C 0.34118 0.35676 0.68504 0.0
C575 C 0.35255 0.33421 0.66476 0.0
C576 C 0.35958 0.36664 0.6454 0.0
C577 C 0.35464 0.41997 0.64596 0.0
C578 C 0.34628 0.63899 0.61636 0.0
C579 C 0.40464 0.59685 0.64879 0.0
O580 O 0.37722 0.75331 0.63431 0.0
O581 O 0.38918 0.75821 0.67189 0.0
O582 O 0.35616 0.64263 0.68558 0.0
O583 O 0.39111 0.66662 0.69204 0.0
O584 O 0.33484 0.7136 0.66066 0.0
O585 O 0.31793 0.63448 0.67061 0.0
O586 O 0.34264 0.52692 0.68283 0.0
O587 O 0.33248 0.51975 0.64483 0.0
O588 O 0.36412 0.63621 0.63045 0.0
O589 O 0.32908 0.61096 0.62522 0.0
O590 O 0.38649 0.56729 0.65606 0.0
O591 O 0.40193 0.64678 0.64468 0.0
H592 H 0.39445 0.85487 0.61699 0.0
H593 H 0.38596 0.94769 0.61883 0.0
H594 H 0.35303 0.92717 0.68937 0.0
H595 H 0.3618 0.83401 0.68748 0.0
H596 H 0.32669 0.42591 0.70104 0.0
H597 H 0.33528 0.33301 0.70015 0.0
H598 H 0.36869 0.3507 0.62967 0.0
H599 H 0.35981 0.44374 0.63058 0.0
Tb600 Tb 0.60277 0.35921 0.65881 0.0
Tb601 Tb 0.62745 0.46172 0.65774 0.0
C602 C 0.58864 0.26738 0.65201 0.0
C603 C 0.59675 0.21277 0.65322 0.0
C604 C 0.59387 0.18113 0.63265 0.0
C605 C 0.59896 0.12805 0.63374 0.0
C606 C 0.60693 0.10524 0.65552 0.0
C607 C 0.61039 0.13725 0.67598 0.0
C608 C 0.60539 0.19052 0.67485 0.0
C609 C 0.60218 0.41237 0.70011 0.0
C610 C 0.65907 0.36438 0.6671 0.0
C611 C 0.64135 0.55355 0.6652 0.0
C612 C 0.63307 0.60811 0.66479 0.0
C613 C 0.63608 0.63873 0.68568 0.0
C614 C 0.63119 0.69196 0.68515 0.0
C615 C 0.62329 0.71591 0.66361 0.0
C616 C 0.61955 0.68485 0.64287 0.0
C617 C 0.62437 0.6315 0.64345 0.0
C618 C 0.62885 0.41036 0.61613 0.0
C619 C 0.5708 0.45343 0.64873 0.0
O620 O 0.59795 0.2964 0.6349 0.0
O621 O 0.58595 0.29257 0.67251 0.0
O622 O 0.61941 0.40782 0.68552 0.0
O623 O 0.5844 0.3846 0.69233 0.0
O624 O 0.64036 0.33622 0.66056 0.0
O625 O 0.6575 0.41516 0.67029 0.0
O626 O 0.63263 0.52349 0.68222 0.0
O627 O 0.64353 0.52946 0.64438 0.0
O628 O 0.61111 0.41347 0.63039 0.0
O629 O 0.64617 0.4383 0.62477 0.0
O630 O 0.58905 0.48293 0.65577 0.0
O631 O 0.57339 0.40338 0.64485 0.0
H632 H 0.58703 0.19726 0.61583 0.0
H633 H 0.5958 0.10457 0.61772 0.0
H634 H 0.61681 0.12106 0.69295 0.0
H635 H 0.60782 0.21394 0.69102 0.0
H636 H 0.64296 0.62171 0.7023 0.0
H637 H 0.63452 0.71467 0.70137 0.0
H638 H 0.61313 0.70189 0.6261 0.0
H639 H 0.62182 0.60892 0.62703 0.0
H640 H 0.20388 0.13875 0.17457 0.0
H641 H 0.27281 0.41134 0.17437 0.0
H642 H 0.16852 0.28725 0.16775 0.0
H643 H 0.30828 0.2626 0.16938 0.0
H644 H 0.23431 0.36647 0.17766 0.0
H645 H 0.24228 0.18376 0.17835 0.0
C646 C 0.20416 0.18078 0.17403 0.0
C647 C 0.183 0.20924 0.17061 0.0
C648 C 0.25056 0.34371 0.17597 0.0
C649 C 0.2268 0.2609 0.1749 0.0
C650 C 0.27253 0.3693 0.17415 0.0
C651 C 0.29375 0.34071 0.17136 0.0
C652 C 0.24986 0.28922 0.17508 0.0
C653 C 0.29234 0.28628 0.17125 0.0
C654 C 0.22608 0.20644 0.17615 0.0
C655 C 0.18441 0.26367 0.17012 0.0
N656 N 0.27075 0.26232 0.17297 0.0
N657 N 0.20596 0.28771 0.17213 0.0
H658 H 0.7717 0.91561 0.17738 0.0
H659 H 0.70348 0.64219 0.17606 0.0
H660 H 0.80762 0.76727 0.17321 0.0
H661 H 0.66786 0.79037 0.16906 0.0
H662 H 0.74168 0.68762 0.18074 0.0
H663 H 0.73328 0.8703 0.18014 0.0
C664 C 0.77154 0.87357 0.17726 0.0
C665 C 0.79287 0.84522 0.17483 0.0
C666 C 0.72546 0.71014 0.1783 0.0
C667 C 0.74905 0.79322 0.17791 0.0
C668 C 0.70366 0.68423 0.17567 0.0
C669 C 0.68249 0.71248 0.17192 0.0
C670 C 0.72606 0.76463 0.17726 0.0
C671 C 0.68377 0.76694 0.17165 0.0
C672 C 0.7496 0.84773 0.17877 0.0
C673 C 0.7916 0.79077 0.17482 0.0
N674 N 0.70521 0.79121 0.17417 0.0
N675 N 0.77004 0.76656 0.17621 0.0
H676 H 0.27342 0.6397 0.37606 0.0
H677 H 0.20411 0.91172 0.37558 0.0
H678 H 0.30854 0.78862 0.38222 0.0
H679 H 0.16888 0.76287 0.38154 0.0
H680 H 0.24261 0.86704 0.37201 0.0
H681 H 0.23494 0.68433 0.3721 0.0
C682 C 0.27307 0.68174 0.37641 0.0
C683 C 0.29418 0.71045 0.37973 0.0
C684 C 0.22642 0.84421 0.37396 0.0
C685 C 0.2503 0.76165 0.37523 0.0
C686 C 0.20444 0.86968 0.37595 0.0
C687 C 0.18329 0.84101 0.37912 0.0
C688 C 0.2272 0.78975 0.37508 0.0
C689 C 0.18477 0.78659 0.37939 0.0
C690 C 0.25111 0.70718 0.37419 0.0
C691 C 0.29268 0.76486 0.37996 0.0
N692 N 0.20637 0.76274 0.37752 0.0
N693 N 0.2711 0.78868 0.37786 0.0
H694 H 0.77457 0.14365 0.37836 0.0
H695 H 0.70471 0.41494 0.37777 0.0
H696 H 0.80917 0.29256 0.38705 0.0
H697 H 0.66966 0.26564 0.38198 0.0
H698 H 0.7434 0.37073 0.37512 0.0
H699 H 0.73613 0.18806 0.37374 0.0
C700 C 0.77412 0.18565 0.37914 0.0
C701 C 0.79506 0.2144 0.38333 0.0
C702 C 0.7272 0.34771 0.37649 0.0
C703 C 0.75122 0.26537 0.37805 0.0
C704 C 0.70512 0.37291 0.37793 0.0
C705 C 0.68396 0.34395 0.38034 0.0
C706 C 0.72808 0.29324 0.37737 0.0
C707 C 0.68555 0.28956 0.3804 0.0
C708 C 0.75217 0.21097 0.37654 0.0
C709 C 0.79344 0.26877 0.3841 0.0
N710 N 0.70725 0.26597 0.37906 0.0
N711 N 0.77187 0.29248 0.38159 0.0
H712 H 0.70443 0.63875 0.87693 0.0
H713 H 0.77349 0.91118 0.87823 0.0
H714 H 0.66898 0.78755 0.88161 0.0
H715 H 0.80871 0.76254 0.88512 0.0
H716 H 0.73515 0.86629 0.87373 0.0
H717 H 0.74298 0.68354 0.87413 0.0
C718 C 0.70472 0.68079 0.87716 0.0
C719 C 0.68348 0.70942 0.87975 0.0
C720 C 0.7513 0.84355 0.8761 0.0
C721 C 0.72746 0.76082 0.8766 0.0
C722 C 0.7732 0.86914 0.87863 0.0
C723 C 0.7943 0.84061 0.88228 0.0
C724 C 0.75054 0.78907 0.87717 0.0
C725 C 0.79286 0.78618 0.88258 0.0
C726 C 0.72673 0.70633 0.87562 0.0
C727 C 0.68492 0.76384 0.87989 0.0
N728 N 0.77133 0.7622 0.88017 0.0
N729 N 0.70655 0.78776 0.87846 0.0
H730 H 0.27367 0.41212 0.87583 0.0
H731 H 0.20377 0.14076 0.87525 0.0
H732 H 0.30859 0.26288 0.88137 0.0
H733 H 0.16896 0.28988 0.88217 0.0
H734 H 0.24235 0.18508 0.87148 0.0
H735 H 0.23509 0.36784 0.87213 0.0
C736 C 0.27326 0.37008 0.87607 0.0
C737 C 0.29436 0.34119 0.87913 0.0
C738 C 0.22623 0.20804 0.87369 0.0
C739 C 0.25033 0.29037 0.87495 0.0
C740 C 0.2042 0.18278 0.87578 0.0
C741 C 0.18315 0.21162 0.87926 0.0
C742 C 0.22716 0.26248 0.87499 0.0
C743 C 0.18477 0.26601 0.87976 0.0
C744 C 0.25124 0.34484 0.87401 0.0
C745 C 0.29276 0.28678 0.87926 0.0
N746 N 0.20642 0.28966 0.87777 0.0
N747 N 0.27111 0.26315 0.87733 0.0
H748 H 0.70319 0.40788 0.67531 0.0
H749 H 0.77184 0.13473 0.67514 0.0
H750 H 0.66751 0.2599 0.66769 0.0
H751 H 0.80726 0.28363 0.67091 0.0
H752 H 0.73323 0.17963 0.67771 0.0
H753 H 0.74145 0.36236 0.67911 0.0
C754 C 0.70337 0.36586 0.67459 0.0
C755 C 0.68216 0.33772 0.67096 0.0
C756 C 0.74951 0.20237 0.67634 0.0
C757 C 0.72581 0.28542 0.67526 0.0
C758 C 0.77154 0.17677 0.67492 0.0
C759 C 0.79282 0.2054 0.67262 0.0
C760 C 0.74882 0.25689 0.67556 0.0
C761 C 0.79134 0.25985 0.67246 0.0
C762 C 0.72521 0.33989 0.67671 0.0
C763 C 0.68345 0.28326 0.67024 0.0
N764 N 0.76974 0.28376 0.67382 0.0
N765 N 0.70493 0.2589 0.67226 0.0
H766 H 0.20322 0.91367 0.67431 0.0
H767 H 0.27213 0.64102 0.6751 0.0
H768 H 0.16774 0.76495 0.66939 0.0
H769 H 0.30752 0.78954 0.66846 0.0
H770 H 0.2337 0.68603 0.67871 0.0
H771 H 0.24167 0.86877 0.67788 0.0
C772 C 0.20348 0.87163 0.67417 0.0
C773 C 0.18226 0.84306 0.67133 0.0
C774 C 0.24991 0.70871 0.67659 0.0
C775 C 0.22613 0.79152 0.67536 0.0
C776 C 0.27185 0.68305 0.67458 0.0
C777 C 0.29304 0.71151 0.67124 0.0
C778 C 0.24919 0.76318 0.67533 0.0
C779 C 0.29162 0.76594 0.67076 0.0
C780 C 0.22543 0.84602 0.67616 0.0
C781 C 0.18367 0.78861 0.67133 0.0
N782 N 0.27005 0.78998 0.67267 0.0
N783 N 0.20524 0.76463 0.67319 0.0
H784 H 0.06343 0.94508 0.32428 0.0
H785 H 0.14129 0.09239 0.22261 0.0
H786 H 0.14034 0.95965 0.32751 0.0
H787 H 0.06445 0.10635 0.22779 0.0
H788 H 0.14119 0.03889 0.25946 0.0
H789 H 0.06324 0.99908 0.28747 0.0
C790 C 0.08027 0.95962 0.31721 0.0
C791 C 0.10192 0.94802 0.32901 0.0
C792 C 0.12433 0.05366 0.2526 0.0
C793 C 0.1019 1.00964 0.28681 0.0
C794 C 0.12437 0.08409 0.23151 0.0
C795 C 0.10283 0.10373 0.22209 0.0
C796 C 0.10255 0.04237 0.26437 0.0
C797 C 0.08146 0.09204 0.23446 0.0
C798 C 0.08016 0.99057 0.29625 0.0
C799 C 0.12323 0.96792 0.31908 0.0
N800 N 0.08184 0.06197 0.25488 0.0
N801 N 0.12269 0.99755 0.29856 0.0
H802 H 0.91399 0.11585 0.32692 0.0
H803 H 0.83518 0.97032 0.22548 0.0
H804 H 0.83717 0.10026 0.33138 0.0
H805 H 0.91199 0.9552 0.23028 0.0
H806 H 0.83559 1.02435 0.26222 0.0
H807 H 0.91373 0.06345 0.28959 0.0
C808 C 0.89707 0.10149 0.31999 0.0
C809 C 0.87558 0.11225 0.33231 0.0
C810 C 0.85237 1.00924 0.25527 0.0
C811 C 0.8751 0.05247 0.28951 0.0
C812 C 0.85215 0.97854 0.23423 0.0
C813 C 0.87358 0.95824 0.22481 0.0
C814 C 0.87424 1.02017 0.26693 0.0
C815 C 0.89504 0.96994 0.23698 0.0
C816 C 0.89693 0.07145 0.29873 0.0
C817 C 0.85417 0.09262 0.32254 0.0
N818 N 0.89484 1.0002 0.25733 0.0
N819 N 0.85445 0.06385 0.30173 0.0
H820 H 0.83646 0.0884 0.72564 0.0
H821 H 0.91423 0.94413 0.82797 0.0
H822 H 0.91289 0.10867 0.73219 0.0
H823 H 0.83727 0.95795 0.83091 0.0
H824 H 0.91453 0.99834 0.79118 0.0
H825 H 0.83676 0.03461 0.76233 0.0
C826 C 0.85334 0.08147 0.73483 0.0
C827 C 0.87469 0.10302 0.72584 0.0
C828 C 0.89758 0.98958 0.7999 0.0
C829 C 0.87521 0.04117 0.76795 0.0
C830 C 0.8974 0.9585 0.82083 0.0
C831 C 0.8757 0.94664 0.83254 0.0
C832 C 0.87586 1.00841 0.79038 0.0
C833 C 0.85442 0.96637 0.82254 0.0
C834 C 0.85349 0.05083 0.75582 0.0
C835 C 0.89602 0.09286 0.73852 0.0
N836 N 0.85502 0.99605 0.80204 0.0
N837 N 0.89577 0.06249 0.75886 0.0
H838 H 0.06316 0.1127 0.82395 0.0
H839 H 0.14047 0.96678 0.72133 0.0
H840 H 0.14 0.09653 0.82718 0.0
H841 H 0.06376 0.95118 0.72745 0.0
H842 H 0.14053 1.02066 0.7581 0.0
H843 H 0.06282 0.0599 0.78673 0.0
C844 C 0.07996 0.09811 0.81678 0.0
C845 C 0.10163 0.10884 0.82871 0.0
C846 C 0.12366 1.00547 0.75144 0.0
C847 C 0.10143 0.04865 0.78604 0.0
C848 C 0.12362 0.97484 0.7304 0.0
C849 C 0.10207 0.95447 0.72133 0.0
C850 C 0.10196 1.01628 0.76348 0.0
C851 C 0.08078 0.96598 0.73387 0.0
C852 C 0.07976 0.06785 0.79558 0.0
C853 C 0.12287 0.08892 0.81864 0.0
N854 N 0.08124 0.99622 0.75423 0.0
N855 N 0.12225 0.05998 0.7979 0.0
H856 H 0.6416 0.46263 0.32829 0.0
H857 H 0.56304 0.60829 0.22675 0.0
H858 H 0.5648 0.44743 0.32343 0.0
H859 H 0.63998 0.59464 0.22316 0.0
H860 H 0.56311 0.55484 0.26375 0.0
H861 H 0.64124 0.51635 0.2915 0.0
C862 C 0.62464 0.47074 0.3195 0.0
C863 C 0.60319 0.45062 0.32897 0.0
C864 C 0.57998 0.56346 0.25486 0.0
C865 C 0.6026 0.5122 0.28674 0.0
C866 C 0.57995 0.5941 0.23379 0.0
C867 C 0.60153 0.60576 0.22182 0.0
C868 C 0.6018 0.54478 0.26424 0.0
C869 C 0.62292 0.5863 0.23172 0.0
C870 C 0.62444 0.50128 0.29843 0.0
C871 C 0.58175 0.46208 0.31671 0.0
N872 N 0.62252 0.55697 0.25234 0.0
N873 N 0.58198 0.49222 0.29632 0.0
H874 H 0.41378 0.60816 0.32421 0.0
H875 H 0.33576 0.45993 0.22303 0.0
H876 H 0.33689 0.59337 0.32783 0.0
H877 H 0.4126 0.44588 0.22801 0.0
H878 H 0.33592 0.51412 0.25969 0.0
H879 H 0.4139 0.55419 0.28736 0.0
C880 C 0.39692 0.59361 0.31721 0.0
C881 C 0.3753 0.6051 0.32915 0.0
C882 C 0.35277 0.49919 0.25282 0.0
C883 C 0.37525 0.54351 0.2869 0.0
C884 C 0.35269 0.46838 0.23183 0.0
C885 C 0.37421 0.44846 0.22243 0.0
C886 C 0.37457 0.51059 0.26449 0.0
C887 C 0.3956 0.46036 0.23467 0.0
C888 C 0.397 0.56267 0.29622 0.0
C889 C 0.35398 0.58518 0.3193 0.0
N890 N 0.39525 0.49078 0.25499 0.0
N891 N 0.35448 0.55556 0.29876 0.0
H892 H 0.41351 0.44747 0.82408 0.0
H893 H 0.33506 0.59528 0.72337 0.0
H894 H 0.33676 0.46429 0.82892 0.0
H895 H 0.41189 0.60998 0.7281 0.0
H896 H 0.33537 0.54218 0.76036 0.0
H897 H 0.41341 0.50181 0.78741 0.0
C898 C 0.39663 0.46259 0.8174 0.0
C899 C 0.37511 0.4514 0.82958 0.0
C900 C 0.35218 0.55706 0.75337 0.0
C901 C 0.37481 0.51341 0.7875 0.0
C902 C 0.35202 0.58725 0.7322 0.0
C903 C 0.3735 0.60698 0.72262 0.0
C904 C 0.37402 0.54605 0.76503 0.0
C905 C 0.39492 0.59561 0.7349 0.0
C906 C 0.39659 0.49373 0.79651 0.0
C907 C 0.35377 0.47211 0.82015 0.0
N908 N 0.39466 0.56573 0.75537 0.0
N909 N 0.35415 0.50186 0.79966 0.0
H910 H 0.56352 0.60546 0.82428 0.0
H911 H 0.64084 0.45595 0.72283 0.0
H912 H 0.64039 0.59004 0.82747 0.0
H913 H 0.56402 0.44215 0.72843 0.0
H914 H 0.64093 0.51003 0.75951 0.0
H915 H 0.56316 0.55084 0.78766 0.0
C916 C 0.58032 0.59062 0.81724 0.0
C917 C 0.60201 0.60217 0.82898 0.0
C918 C 0.62404 0.49516 0.75278 0.0
C919 C 0.60178 0.53981 0.78697 0.0
C920 C 0.62397 0.46439 0.73179 0.0
C921 C 0.60238 0.4446 0.72253 0.0
C922 C 0.60231 0.50669 0.76462 0.0
C923 C 0.58107 0.45653 0.73497 0.0
C924 C 0.58011 0.5593 0.79638 0.0
C925 C 0.62325 0.58184 0.81909 0.0
N926 N 0.58156 0.48695 0.75529 0.0
N927 N 0.62262 0.55187 0.79866 0.0
H928 H 0.16811 0.15025 0.96497 0.0
H929 H 0.08994 0.15784 0.08747 0.0
H930 H 0.0909 0.15725 0.96416 0.0
H931 H 0.16698 0.14591 0.08462 0.0
H932 H 0.08932 0.16867 0.04292 0.0
H933 H 0.16753 0.16021 1.00903 0.0
C934 C 0.151 0.15448 0.9741 0.0
C935 C 0.12954 0.15251 0.9609 0.0
C936 C 0.10635 0.1643 0.05212 0.0
C937 C 0.12862 0.16318 1.01173 0.0
C938 C 0.10672 0.15835 0.07753 0.0
C939 C 0.12855 0.15054 0.08971 0.0
C940 C 0.12799 0.16264 0.03891 0.0
C941 C 0.14974 0.15137 0.07596 0.0
C942 C 0.15064 0.16005 0.99934 0.0
C943 C 0.10787 0.1585 0.97368 0.0
N944 N 0.14891 0.15691 0.0514 0.0
N945 N 0.10793 0.16293 0.99845 0.0
H946 H 0.8868 0.89215 0.96684 0.0
H947 H 0.80817 0.89522 0.08912 0.0
H948 H 0.80969 0.90218 0.96944 0.0
H949 H 0.88544 0.89581 0.09004 0.0
H950 H 0.80903 0.88462 0.04508 0.0
H951 H 0.88735 0.88118 1.01137 0.0
C952 C 0.87 0.8912 0.97673 0.0
C953 C 0.84816 0.89851 0.96448 0.0
C954 C 0.82587 0.88654 0.0548 0.0
C955 C 0.84864 0.88616 1.01527 0.0
C956 C 0.82537 0.89243 0.08002 0.0
C957 C 0.84674 0.89681 0.09324 0.0
C958 C 0.84795 0.88549 0.04245 0.0
C959 C 0.86853 0.89265 0.08051 0.0
C960 C 0.87032 0.88516 1.00213 0.0
C961 C 0.82694 0.8971 0.97816 0.0
N962 N 0.86859 0.88787 0.05576 0.0
N963 N 0.82772 0.89144 1.00272 0.0
H964 H 0.1682 0.89808 0.46495 0.0
H965 H 0.08922 0.89176 0.58677 0.0
H966 H 0.09097 0.89305 0.46363 0.0
H967 H 0.16646 0.89509 0.58464 0.0
H968 H 0.08874 0.88163 0.54219 0.0
H969 H 0.1673 0.88614 0.50892 0.0
C970 C 0.15101 0.89385 0.47395 0.0
C971 C 0.12965 0.89695 0.46065 0.0
C972 C 0.10578 0.88388 0.55155 0.0
C973 C 0.12836 0.88405 0.51135 0.0
C974 C 0.10605 0.88939 0.57698 0.0
C975 C 0.12793 0.89471 0.58937 0.0
C976 C 0.12754 0.88355 0.53853 0.0
C977 C 0.14919 0.8916 0.57581 0.0
C978 C 0.15048 0.88712 0.49912 0.0
C979 C 0.10787 0.89093 0.47324 0.0
N980 N 0.14845 0.88666 0.55122 0.0
N981 N 0.10776 0.88543 0.49795 0.0
H982 H 0.81301 0.11154 0.58848 0.0
H983 H 0.8878 0.16242 0.46751 0.0
H984 H 0.88665 0.16137 0.59149 0.0
H985 H 0.81099 0.14465 0.47038 0.0
H986 H 0.88847 0.16884 0.51229 0.0
H987 H 0.81222 0.1303 0.54515 0.0
C988 C 0.82894 0.12746 0.57998 0.0
C989 C 0.84985 0.13523 0.59354 0.0
C990 C 0.87147 0.16437 0.50304 0.0
C991 C 0.84947 0.15526 0.5434 0.0
C992 C 0.87107 0.1608 0.47751 0.0
C993 C 0.84931 0.15235 0.46524 0.0
C994 C 0.84996 0.15931 0.51627 0.0
C995 C 0.8282 0.15051 0.47907 0.0
C996 C 0.82854 0.13805 0.55516 0.0
C997 C 0.87008 0.15548 0.58163 0.0
N998 N 0.82909 0.1534 0.50371 0.0
N999 N 0.86954 0.164 0.55707 0.0
H1000 H 0.6682 0.65223 0.0858 0.0
H1001 H 0.5904 0.65954 0.96324 0.0
H1002 H 0.59096 0.65787 0.0865 0.0
H1003 H 0.66747 0.64872 0.96606 0.0
H1004 H 0.58963 0.67002 1.0078 0.0
H1005 H 0.66775 0.66255 0.04175 0.0
C1006 C 0.6511 0.65625 0.07665 0.0
C1007 C 0.6296 0.65378 0.08982 0.0
C1008 C 0.6067 0.66598 0.9986 0.0
C1009 C 0.62885 0.66486 0.03901 0.0
C1010 C 0.60715 0.66023 0.97318 0.0
C1011 C 0.62904 0.65283 0.96098 0.0
C1012 C 0.62831 0.66454 1.01181 0.0
C1013 C 0.65019 0.65388 0.97473 0.0
C1014 C 0.65083 0.66202 0.05142 0.0
C1015 C 0.60796 0.65951 0.07701 0.0
N1016 N 0.64928 0.65921 0.99931 0.0
N1017 N 0.60811 0.66415 0.05225 0.0
H1018 H 0.38772 0.39042 0.96396 0.0
H1019 H 0.3094 0.39553 0.0863 0.0
H1020 H 0.3105 0.39453 0.96663 0.0
H1021 H 0.38666 0.39331 0.0872 0.0
H1022 H 0.31014 0.38371 0.04234 0.0
H1023 H 0.38849 0.38047 1.00854 0.0
C1024 C 0.37095 0.38829 0.97387 0.0
C1025 C 0.34899 0.39373 0.96162 0.0
C1026 C 0.32701 0.38528 0.05203 0.0
C1027 C 0.34972 0.3827 1.01248 0.0
C1028 C 0.32657 0.39192 0.07721 0.0
C1029 C 0.34798 0.39579 0.0904 0.0
C1030 C 0.34907 0.38305 0.03968 0.0
C1031 C 0.36973 0.39057 0.07768 0.0
C1032 C 0.37139 0.38287 0.99931 0.0
C1033 C 0.32782 0.39092 0.97534 0.0
N1034 N 0.36974 0.38513 0.05296 0.0
N1035 N 0.32873 0.386 0.99992 0.0
H1036 H 0.66798 0.39972 0.46547 0.0
H1037 H 0.589 0.39201 0.58741 0.0
H1038 H 0.59074 0.39575 0.46409 0.0
H1039 H 0.66618 0.39895 0.5851 0.0
H1040 H 0.58851 0.3825 0.54278 0.0
H1041 H 0.66702 0.38808 0.50943 0.0
C1042 C 0.65077 0.39579 0.47445 0.0
C1043 C 0.62943 0.3991 0.46112 0.0
C1044 C 0.60554 0.38545 0.55211 0.0
C1045 C 0.62808 0.38654 0.51185 0.0
C1046 C 0.60582 0.39063 0.57757 0.0
C1047 C 0.62768 0.3967 0.58993 0.0
C1048 C 0.62727 0.38614 0.53904 0.0
C1049 C 0.64893 0.39484 0.5763 0.0
C1050 C 0.65021 0.38925 0.49963 0.0
C1051 C 0.60763 0.39346 0.47371 0.0
N1052 N 0.64818 0.3901 0.55171 0.0
N1053 N 0.60749 0.3881 0.49844 0.0
H1054 H 0.30858 0.6517 0.58608 0.0
H1055 H 0.38689 0.65953 0.46365 0.0
H1056 H 0.38582 0.65668 0.58699 0.0
H1057 H 0.30986 0.64722 0.46642 0.0
H1058 H 0.38749 0.66985 0.50823 0.0
H1059 H 0.30925 0.66203 0.54205 0.0
C1060 C 0.32573 0.65558 0.57698 0.0
C1061 C 0.34716 0.65292 0.5902 0.0
C1062 C 0.37046 0.6655 0.49901 0.0
C1063 C 0.34817 0.664 0.53939 0.0
C1064 C 0.37011 0.65985 0.47358 0.0
C1065 C 0.34829 0.6521 0.46136 0.0
C1066 C 0.34882 0.66365 0.5122 0.0
C1067 C 0.32709 0.65267 0.47511 0.0
C1068 C 0.32613 0.66135 0.55176 0.0
C1069 C 0.36887 0.65847 0.57745 0.0
N1070 N 0.32791 0.65796 0.49968 0.0
N1071 N 0.36885 0.66313 0.55269 0.0
H1072 H 0.91817 0.06183 0.15254 0.0
H1073 H 0.05731 0.99205 0.15129 0.0
H1074 H 0.94501 0.90651 0.14047 0.0
H1075 H 0.03032 0.14734 0.13962 0.0
H1076 H 0.01606 0.95947 0.14938 0.0
H1077 H 0.95937 0.09446 0.14978 0.0
C1078 C 0.93264 0.03473 0.14913 0.0
C1079 C 0.92814 0.98145 0.14682 0.0
C1080 C 0.01929 1.00063 0.14705 0.0
C1081 C 0.9751 1.01815 0.14394 0.0
C1082 C 0.04279 1.01916 0.14816 0.0
C1083 C 0.04727 0.0724 0.14567 0.0
C1084 C 0.00026 0.03576 0.14373 0.0
C1085 C 0.02777 0.10591 0.14165 0.0
C1086 C 0.95611 0.05328 0.14755 0.0
C1087 C 0.94758 0.94795 0.14243 0.0
N1088 N 0.00511 0.08708 0.14101 0.0
N1089 N 0.97021 0.96681 0.14134 0.0
H1090 H 0.94759 0.15227 0.41609 0.0
H1091 H 0.03099 0.90232 0.41303 0.0
H1092 H 0.92059 0.99761 0.40269 0.0
H1093 H 0.05797 0.05767 0.40138 0.0
H1094 H -0.00937 0.93692 0.41624 0.0
H1095 H 0.98811 0.11774 0.4177 0.0
C1096 C 0.95012 0.11089 0.41368 0.0
C1097 C 0.93063 0.07769 0.40914 0.0
C1098 C 0.00537 0.96343 0.41306 0.0
C1099 C 0.9771 0.03822 0.41096 0.0
C1100 C 0.0285 0.94386 0.41131 0.0
C1101 C 0.04794 0.97724 0.4068 0.0
C1102 C 0.00159 1.01682 0.41048 0.0
C1103 C 0.0435 0.03059 0.40476 0.0
C1104 C 0.97332 0.09137 0.41449 0.0
C1105 C 0.93509 1.02456 0.40614 0.0
N1106 N 0.0207 0.04881 0.4066 0.0
N1107 N 0.95794 1.0064 0.40709 0.0
H1108 H 0.03067 0.15154 0.91216 0.0
H1109 H 0.9465 0.90294 0.91638 0.0
H1110 H 0.05717 0.99561 0.90109 0.0
H1111 H 0.91986 0.0575 0.90208 0.0
H1112 H 0.98711 0.93699 0.91763 0.0
H1113 H -0.00984 0.11765 0.91523 0.0
C1114 C 0.02804 0.11002 0.91054 0.0
C1115 C 0.0474 0.07626 0.90628 0.0
C1116 C 0.97238 0.96344 0.9143 0.0
C1117 C 0.00087 0.03748 0.9098 0.0
C1118 C 0.94912 0.94421 0.9137 0.0
C1119 C 0.9297 0.9775 0.90901 0.0
C1120 C 0.9763 1.01643 0.91042 0.0
C1121 C 0.9343 0.03048 0.90567 0.0
C1122 C 0.00483 0.09085 0.9122 0.0
C1123 C 0.04277 1.02297 0.9043 0.0
N1124 N 0.95721 0.04838 0.90643 0.0
N1125 N 0.01989 1.00514 0.90608 0.0
H1126 H 0.9443 0.14868 0.63995 0.0
H1127 H 0.03043 0.90328 0.6355 0.0
H1128 H 0.91945 0.99178 0.65196 0.0
H1129 H 0.05601 0.0584 0.65055 0.0
H1130 H -0.01031 0.93622 0.63373 0.0
H1131 H 0.98506 0.11641 0.63615 0.0
C1132 C 0.94731 0.10729 0.64159 0.0
C1133 C 0.92834 0.07281 0.64643 0.0
C1134 C 0.00422 0.96306 0.63731 0.0
C1135 C 0.97517 0.03594 0.64203 0.0
C1136 C 0.02757 0.94445 0.63825 0.0
C1137 C 0.04673 0.97817 0.64337 0.0
C1138 C -8e-05 1.01586 0.64131 0.0
C1139 C 0.04178 0.03105 0.64664 0.0
C1140 C 0.97068 0.08908 0.63951 0.0
C1141 C 0.93351 1.01973 0.64835 0.0
N1142 N 0.01877 0.04833 0.64561 0.0
N1143 N 0.9565 1.00287 0.64616 0.0
H1144 H 0.44647 0.40087 0.13945 0.0
H1145 H 0.53066 0.64953 0.13732 0.0
H1146 H 0.41983 0.55668 0.15055 0.0
H1147 H 0.55715 0.49475 0.15141 0.0
H1148 H 0.4901 0.61548 0.13531 0.0
H1149 H 0.48701 0.43477 0.137 0.0
C1150 C 0.44907 0.44237 0.1412 0.0
C1151 C 0.42966 0.47608 0.14532 0.0
C1152 C 0.50479 0.58897 0.13876 0.0
C1153 C 0.47624 0.51486 0.14251 0.0
C1154 C 0.52802 0.60821 0.13981 0.0
C1155 C 0.54739 0.57486 0.14466 0.0
C1156 C 0.50082 0.53591 0.14235 0.0
C1157 C 0.54275 0.52181 0.14772 0.0
C1158 C 0.47231 0.46154 0.1399 0.0
C1159 C 0.43426 0.52935 0.14744 0.0
N1160 N 0.51986 0.50391 0.14653 0.0
N1161 N 0.45717 0.54718 0.14602 0.0
H1162 H 0.44633 0.65022 0.41302 0.0
H1163 H 0.5314 0.4032 0.41251 0.0
H1164 H 0.42039 0.49467 0.39967 0.0
H1165 H 0.55741 0.559 0.39995 0.0
H1166 H 0.49073 0.43644 0.41471 0.0
H1167 H 0.48699 0.61695 0.41514 0.0
C1168 C 0.44911 0.6089 0.4107 0.0
C1169 C 0.42987 0.57508 0.40605 0.0
C1170 C 0.50533 0.46334 0.41154 0.0
C1171 C 0.47656 0.53705 0.40848 0.0
C1172 C 0.52863 0.44457 0.41038 0.0
C1173 C 0.5479 0.47847 0.40593 0.0
C1174 C 0.5012 0.51647 0.40845 0.0
C1175 C 0.5431 0.53154 0.40334 0.0
C1176 C 0.47241 0.59011 0.41181 0.0
C1177 C 0.43469 0.52206 0.40321 0.0
N1178 N 0.52013 0.54899 0.40463 0.0
N1179 N 0.45765 0.50459 0.40446 0.0
H1180 H 0.44643 0.40101 0.91423 0.0
H1181 H 0.53114 0.64883 0.91306 0.0
H1182 H 0.42022 0.55645 0.9012 0.0
H1183 H 0.55732 0.49322 0.90031 0.0
H1184 H 0.49057 0.6152 0.91581 0.0
H1185 H 0.48707 0.4346 0.91627 0.0
C1186 C 0.44915 0.44237 0.91199 0.0
C1187 C 0.42984 0.47605 0.90741 0.0
C1188 C 0.50519 0.58842 0.91248 0.0
C1189 C 0.47649 0.51445 0.90975 0.0
C1190 C 0.52843 0.60742 0.911 0.0
C1191 C 0.54772 0.5737 0.90633 0.0
C1192 C 0.50111 0.53523 0.90949 0.0
C1193 C 0.54299 0.52056 0.90385 0.0
C1194 C 0.47243 0.46135 0.91306 0.0
C1195 C 0.43457 0.52914 0.9047 0.0
N1196 N 0.52007 0.50288 0.90545 0.0
N1197 N 0.45751 0.54677 0.90588 0.0
H1198 H 0.44587 0.6501 0.63983 0.0
H1199 H 0.52959 0.40055 0.63931 0.0
H1200 H 0.41898 0.49475 0.65159 0.0
H1201 H 0.55652 0.55558 0.65189 0.0
H1202 H 0.48911 0.43492 0.63731 0.0
H1203 H 0.4864 0.61587 0.63778 0.0
C1204 C 0.44842 0.60864 0.64182 0.0
C1205 C 0.42893 0.57515 0.64597 0.0
C1206 C 0.50387 0.46142 0.64045 0.0
C1207 C 0.47549 0.53598 0.64364 0.0
C1208 C 0.52707 0.44198 0.64149 0.0
C1209 C 0.54655 0.47532 0.64587 0.0
C1210 C 0.50003 0.51466 0.6436 0.0
C1211 C 0.54204 0.52852 0.64854 0.0
C1212 C 0.47164 0.58928 0.64075 0.0
C1213 C 0.43346 0.52191 0.64843 0.0
N1214 N 0.51917 0.54662 0.64737 0.0
N1215 N 0.45634 0.5039 0.64722 0.0
H1216 H 0.12607 0.77015 0.12304 0.0
H1217 H 0.10482 0.50378 0.19547 0.0
H1218 H 0.11431 0.7624 0.20056 0.0
H1219 H 0.11664 0.51213 0.11797 0.0
H1220 H 0.10883 0.59818 0.19785 0.0
H1221 H 0.12224 0.6758 0.12083 0.0
C1222 C 0.12242 0.74873 0.13958 0.0
C1223 C 0.12049 0.77449 0.16203 0.0
C1224 C 0.1106 0.57936 0.18033 0.0
C1225 C 0.11648 0.66593 0.15967 0.0
C1226 C 0.10851 0.52533 0.17898 0.0
C1227 C 0.11035 0.49977 0.15647 0.0
C1228 C 0.11461 0.60827 0.15903 0.0
C1229 C 0.11474 0.53008 0.13568 0.0
C1230 C 0.12044 0.69471 0.13833 0.0
C1231 C 0.11622 0.74431 0.1829 0.0
N1232 N 0.11668 0.58258 0.13746 0.0
N1233 N 0.11437 0.69175 0.18121 0.0
H1234 H 0.84966 0.28783 0.20211 0.0
H1235 H 0.8697 0.54645 0.1236 0.0
H1236 H 0.86138 0.28816 0.12449 0.0
H1237 H 0.86117 0.5462 0.20163 0.0
H1238 H 0.86577 0.45201 0.12353 0.0
H1239 H 0.85385 0.38227 0.20239 0.0
C1240 C 0.85338 0.30763 0.18515 0.0
C1241 C 0.85516 0.27981 0.16324 0.0
C1242 C 0.86471 0.47257 0.14068 0.0
C1243 C 0.85959 0.38833 0.16337 0.0
C1244 C 0.86675 0.52662 0.14071 0.0
C1245 C 0.86572 0.55446 0.16266 0.0
C1246 C 0.86156 0.44592 0.16274 0.0
C1247 C 0.86233 0.52639 0.18431 0.0
C1248 C 0.85558 0.36168 0.1853 0.0
C1249 C 0.85955 0.3079 0.14178 0.0
N1250 N 0.86036 0.47375 0.1838 0.0
N1251 N 0.86157 0.3605 0.14239 0.0
H1252 H 0.10901 0.28417 0.35093 0.0
H1253 H 0.12361 0.54104 0.43204 0.0
H1254 H 0.13211 0.28298 0.42582 0.0
H1255 H 0.10046 0.54271 0.35717 0.0
H1256 H 0.12709 0.44658 0.42997 0.0
H1257 H 0.10586 0.37876 0.35277 0.0
C1258 C 0.11344 0.30375 0.36776 0.0
C1259 C 0.12085 0.27539 0.38825 0.0
C1260 C 0.1213 0.46758 0.41397 0.0
C1261 C 0.1172 0.38397 0.39051 0.0
C1262 C 0.11924 0.52157 0.41515 0.0
C1263 C 0.11167 0.55001 0.39477 0.0
C1264 C 0.1157 0.44154 0.39224 0.0
C1265 C 0.10663 0.52258 0.37327 0.0
C1266 C 0.11157 0.35782 0.36882 0.0
C1267 C 0.12602 0.303 0.40966 0.0
N1268 N 0.10865 0.46996 0.3726 0.0
N1269 N 0.12416 0.35564 0.41021 0.0
H1270 H 0.90203 0.5237 0.4202 0.0
H1271 H 0.82494 0.76213 0.36903 0.0
H1272 H 0.83768 0.50489 0.37755 0.0
H1273 H 0.88915 0.78056 0.41192 0.0
H1274 H 0.82966 0.66808 0.37136 0.0
H1275 H 0.89762 0.61769 0.41723 0.0
C1276 C 0.88684 0.53927 0.41035 0.0
C1277 C 0.8701 0.50608 0.39924 0.0
C1278 C 0.84275 0.69265 0.38024 0.0
C1279 C 0.86517 0.61422 0.39545 0.0
C1280 C 0.84017 0.74649 0.37877 0.0
C1281 C 0.85673 0.77958 0.39022 0.0
C1282 C 0.86203 0.67141 0.39328 0.0
C1283 C 0.87581 0.75675 0.40301 0.0
C1284 C 0.88444 0.59307 0.40852 0.0
C1285 C 0.85113 0.52879 0.38625 0.0
N1286 N 0.87793 0.70418 0.40418 0.0
N1287 N 0.84916 0.58137 0.38476 0.0
H1288 H 0.88995 0.27345 0.91129 0.0
H1289 H 0.8358 0.55189 0.87579 0.0
H1290 H 0.8248 0.29375 0.87005 0.0
H1291 H 0.90051 0.53098 0.91764 0.0
H1292 H 0.83183 0.4575 0.87275 0.0
H1293 H 0.89431 0.36776 0.91341 0.0
C1294 C 0.87652 0.29766 0.90271 0.0
C1295 C 0.85698 0.2754 0.89045 0.0
C1296 C 0.84689 0.47358 0.88262 0.0
C1297 C 0.86197 0.38373 0.89267 0.0
C1298 C 0.84922 0.52753 0.88426 0.0
C1299 C 0.86846 0.54961 0.89709 0.0
C1300 C 0.86394 0.4413 0.89382 0.0
C1301 C 0.88515 0.51589 0.90792 0.0
C1302 C 0.87909 0.35159 0.90384 0.0
C1303 C 0.84035 0.30896 0.8794 0.0
N1304 N 0.8825 0.46359 0.90604 0.0
N1305 N 0.8432 0.36131 0.88081 0.0
H1306 H 0.1059 0.50615 0.8559 0.0
H1307 H 0.12502 0.77423 0.9276 0.0
H1308 H 0.11606 0.51623 0.93357 0.0
H1309 H 0.11505 0.76469 0.84988 0.0
H1310 H 0.1213 0.6799 0.93014 0.0
H1311 H 0.10978 0.60053 0.8532 0.0
C1312 C 0.1092 0.52808 0.87237 0.0
C1313 C 0.11061 0.50301 0.89502 0.0
C1314 C 0.11987 0.69841 0.91253 0.0
C1315 C 0.1147 0.61148 0.89208 0.0
C1316 C 0.12179 0.75242 0.91108 0.0
C1317 C 0.12034 0.77767 0.88848 0.0
C1318 C 0.11646 0.66914 0.89124 0.0
C1319 C 0.11659 0.74701 0.86767 0.0
C1320 C 0.11121 0.5821 0.87083 0.0
C1321 C 0.11451 0.53379 0.91576 0.0
N1322 N 0.1148 0.69448 0.86955 0.0
N1323 N 0.11637 0.58627 0.9138 0.0
H1324 H 0.85108 0.7726 0.62606 0.0
H1325 H 0.85209 0.49729 0.69419 0.0
H1326 H 0.83867 0.75316 0.70303 0.0
H1327 H 0.86356 0.51432 0.61694 0.0
H1328 H 0.84597 0.59079 0.69735 0.0
H1329 H 0.8554 0.67835 0.62208 0.0
C1330 C 0.84935 0.74862 0.64214 0.0
C1331 C 0.84442 0.77104 0.66491 0.0
C1332 C 0.84973 0.57413 0.67967 0.0
C1333 C 0.84915 0.66289 0.66043 0.0
C1334 C 0.85304 0.52052 0.67781 0.0
C1335 C 0.85835 0.49759 0.65525 0.0
C1336 C 0.85177 0.60543 0.65885 0.0
C1337 C 0.85981 0.53019 0.63478 0.0
C1338 C 0.85168 0.69473 0.63982 0.0
C1339 C 0.84209 0.73776 0.68504 0.0
N1340 N 0.8566 0.58236 0.63707 0.0
N1341 N 0.84449 0.68556 0.68232 0.0
H1342 H 0.11781 0.28289 0.69831 0.0
H1343 H 0.114 0.54646 0.62088 0.0
H1344 H 0.12177 0.28819 0.61994 0.0
H1345 H 0.10559 0.54131 0.69888 0.0
H1346 H 0.11808 0.45206 0.62039 0.0
H1347 H 0.11349 0.37733 0.69902 0.0
C1348 C 0.11751 0.30378 0.68122 0.0
C1349 C 0.12019 0.27736 0.65902 0.0
C1350 C 0.11539 0.47153 0.63763 0.0
C1351 C 0.11566 0.38587 0.65975 0.0
C1352 C 0.11327 0.52556 0.63795 0.0
C1353 C 0.10948 0.55202 0.65996 0.0
C1354 C 0.11378 0.44349 0.6595 0.0
C1355 C 0.10824 0.52259 0.68146 0.0
C1356 C 0.11524 0.35782 0.68166 0.0
C1357 C 0.12011 0.30682 0.63751 0.0
N1358 N 0.11039 0.47 0.68068 0.0
N1359 N 0.11793 0.35936 0.63842 0.0
H1360 H 0.57283 1.0211 0.13967 0.0
H1361 H 0.65563 0.25907 0.18139 0.0
H1362 H 0.64198 1.00185 0.17366 0.0
H1363 H 0.58656 0.27793 0.14716 0.0
H1364 H 0.65065 0.16503 0.17939 0.0
H1365 H 0.57751 0.11506 0.14246 0.0
C1366 C 0.5891 0.03657 0.14757 0.0
C1367 C 0.60711 1.00325 0.15629 0.0
C1368 C 0.63655 0.18969 0.17235 0.0
C1369 C 0.61243 0.11138 0.15988 0.0
C1370 C 0.63929 0.24353 0.17364 0.0
C1371 C 0.62144 0.27675 0.16452 0.0
C1372 C 0.61581 0.16857 0.16183 0.0
C1373 C 0.60092 0.25403 0.15421 0.0
C1374 C 0.59168 0.09035 0.14931 0.0
C1375 C 0.62753 1.02584 0.16687 0.0
N1376 N 0.59867 0.20146 0.15316 0.0
N1377 N 0.62965 0.07841 0.16831 0.0
H1378 H 0.37103 0.78255 0.19915 0.0
H1379 H 0.35029 0.04195 0.12136 0.0
H1380 H 0.3423 0.78385 0.12629 0.0
H1381 H 0.37962 0.04122 0.19396 0.0
H1382 H 0.34682 0.94747 0.12307 0.0
H1383 H 0.37406 0.87722 0.19778 0.0
C1384 C 0.36534 0.8027 0.18286 0.0
C1385 C 0.3564 0.77504 0.1628 0.0
C1386 C 0.35396 0.96795 0.13866 0.0
C1387 C 0.35989 0.88364 0.16109 0.0
C1388 C 0.35602 1.02194 0.13767 0.0
C1389 C 0.36532 0.0497 0.15752 0.0
C1390 C 0.36132 0.94124 0.15965 0.0
C1391 C 0.37209 1.02161 0.17832 0.0
C1392 C 0.36714 0.85679 0.18207 0.0
C1393 C 0.34961 0.80334 0.14207 0.0
N1394 N 0.37004 0.96899 0.1788 0.0
N1395 N 0.35143 0.85597 0.14179 0.0
H1396 H 0.57761 0.03491 0.41631 0.0
H1397 H 0.65231 0.79404 0.36386 0.0
H1398 H 0.64014 0.05165 0.37062 0.0
H1399 H 0.58948 0.77792 0.40917 0.0
H1400 H 0.64774 0.88822 0.36546 0.0
H1401 H 0.58169 0.94081 0.41378 0.0
C1402 C 0.59234 1.01885 0.40589 0.0
C1403 C 0.60866 0.05145 0.39379 0.0
C1404 C 0.63491 0.86411 0.37501 0.0
C1405 C 0.6132 0.94325 0.39049 0.0
C1406 C 0.63739 0.81022 0.37396 0.0
C1407 C 0.6212 0.77779 0.38635 0.0
C1408 C 0.61612 0.88601 0.38859 0.0
C1409 C 0.60254 0.80126 0.39955 0.0
C1410 C 0.59454 0.965 0.4043 0.0
C1411 C 0.62703 0.02816 0.3801 0.0
N1412 N 0.60053 0.85385 0.40032 0.0
N1413 N 0.62883 0.97554 0.37887 0.0
H1414 H 0.33335 0.9994 0.37771 0.0
H1415 H 0.39187 0.27854 0.40377 0.0
H1416 H 0.40311 1.02102 0.41008 0.0
H1417 H 0.32218 0.2573 0.37119 0.0
H1418 H 0.39634 0.18424 0.40613 0.0
H1419 H 0.32911 0.09372 0.37463 0.0
C1420 C 0.34782 1.0239 0.38408 0.0
C1421 C 0.36857 1.00205 0.39428 0.0
C1422 C 0.38009 0.20021 0.39841 0.0
C1423 C 0.36376 0.11028 0.39097 0.0
C1424 C 0.37748 0.25412 0.39716 0.0
C1425 C 0.35664 0.27609 0.38721 0.0
C1426 C 0.36171 0.16782 0.38971 0.0
C1427 C 0.33873 0.24228 0.37865 0.0
C1428 C 0.34534 0.07781 0.38243 0.0
C1429 C 0.3866 0.03595 0.40248 0.0
N1430 N 0.34166 0.18998 0.38014 0.0
N1431 N 0.38378 0.08821 0.40065 0.0
H1432 H 0.36501 0.77892 0.85407 0.0
H1433 H 0.3566 0.04591 0.92869 0.0
H1434 H 0.34813 0.78769 0.9306 0.0
H1435 H 0.37727 0.03729 0.85312 0.0
H1436 H 0.35228 0.95153 0.92934 0.0
H1437 H 0.36948 0.87334 0.85323 0.0
C1438 C 0.36249 0.80057 0.87077 0.0
C1439 C 0.35614 0.77512 0.89244 0.0
C1440 C 0.35771 0.97025 0.91259 0.0
C1441 C 0.36085 0.8836 0.8915 0.0
C1442 C 0.35999 1.02426 0.91214 0.0
C1443 C 0.3673 0.04974 0.89081 0.0
C1444 C 0.36273 0.94125 0.89154 0.0
C1445 C 0.37185 1.01936 0.87006 0.0
C1446 C 0.36486 0.85459 0.87023 0.0
C1447 C 0.3527 0.80554 0.91339 0.0
N1448 N 0.3695 0.96682 0.87095 0.0
N1449 N 0.35505 0.85804 0.91238 0.0
H1450 H 0.65083 0.25866 0.86252 0.0
H1451 H 0.578 1.01784 0.9176 0.0
H1452 H 0.58989 0.27487 0.91042 0.0
H1453 H 0.63872 1.00108 0.86947 0.0
H1454 H 0.58206 0.11194 0.91504 0.0
H1455 H 0.64622 0.1645 0.86417 0.0
C1456 C 0.63631 0.24251 0.8732 0.0
C1457 C 0.62068 0.27497 0.8863 0.0
C1458 C 0.59452 0.08775 0.90503 0.0
C1459 C 0.61556 0.16674 0.88858 0.0
C1460 C 0.59233 0.03389 0.90663 0.0
C1461 C 0.60814 1.00127 0.89385 0.0
C1462 C 0.61265 0.1095 0.89053 0.0
C1463 C 0.626 1.02457 0.87948 0.0
C1464 C 0.63381 0.18862 0.87428 0.0
C1465 C 0.60253 0.25152 0.90023 0.0
N1466 N 0.62779 0.07719 0.87826 0.0
N1467 N 0.60049 0.19893 0.90101 0.0
H1468 H 0.35447 1.01216 0.61832 0.0
H1469 H 0.36626 0.26723 0.70116 0.0
H1470 H 0.37515 1.0087 0.69392 0.0
H1471 H 0.3462 0.2701 0.62538 0.0
H1472 H 0.36946 0.17265 0.69899 0.0
H1473 H 0.35103 0.10656 0.62072 0.0
C1474 C 0.35831 0.03122 0.63544 0.0
C1475 C 0.36519 1.00227 0.65593 0.0
C1476 C 0.36441 0.19397 0.68281 0.0
C1477 C 0.36117 0.11073 0.65884 0.0
C1478 C 0.36251 0.24802 0.68406 0.0
C1479 C 0.35594 0.27686 0.66342 0.0
C1480 C 0.35965 0.1683 0.66079 0.0
C1481 C 0.35163 0.24972 0.64168 0.0
C1482 C 0.35627 0.08519 0.63682 0.0
C1483 C 0.36954 0.02921 0.67772 0.0
N1484 N 0.35349 0.19708 0.64096 0.0
N1485 N 0.36755 0.08184 0.67857 0.0
H1486 H 0.60361 0.78055 0.69813 0.0
H1487 H 0.62742 0.04056 0.62159 0.0
H1488 H 0.63598 0.78245 0.62679 0.0
H1489 H 0.59458 0.03917 0.6927 0.0
H1490 H 0.63105 0.94611 0.62339 0.0
H1491 H 0.60038 0.87519 0.69666 0.0
C1492 C 0.61007 0.80083 0.68216 0.0
C1493 C 0.62008 0.77332 0.66254 0.0
C1494 C 0.62309 0.96643 0.63864 0.0
C1495 C 0.61635 0.88193 0.66071 0.0
C1496 C 0.62095 1.02042 0.63759 0.0
C1497 C 0.61062 0.04801 0.657 0.0
C1498 C 0.61481 0.93954 0.65923 0.0
C1499 C 0.60291 1.01973 0.67742 0.0
C1500 C 0.60815 0.8549 0.6813 0.0
C1501 C 0.62783 0.80179 0.6422 0.0
N1502 N 0.60509 0.96712 0.67796 0.0
N1503 N 0.62586 0.85442 0.64185 0.0
loop_
_geom_bond_atom_site_label_1
_geom_bond_atom_site_label_2
_geom_bond_distance
_geom_bond_site_symmetry_2
_ccdc_geom_bond_type
Tb0 C2 2.809 1_545 S
Tb0 O20 2.484 1_545 S
Tb0 O21 2.440 1_545 S
Tb0 O22 2.658 . S
Tb0 O23 2.409 . S
Tb0 O24 2.378 . S
Tb0 O28 2.325 . S
Tb0 O31 2.341 . S
Tb1 C11 2.809 . S
Tb1 O22 2.325 . S
Tb1 O25 2.341 . S
Tb1 O26 2.484 . S
Tb1 O27 2.440 . S
Tb1 O28 2.658 . S
Tb1 O29 2.409 . S
Tb1 O30 2.378 . S
C2 Tb0 2.809 1_565 S
C2 C3 1.514 . S
C2 O20 1.248 . S
C2 O21 1.266 . S
C3 C2 1.514 . S
C3 C4 1.359 . S
C3 C8 1.348 . S
C4 C3 1.359 . S
C4 C5 1.380 . S
C4 H32 0.929 . S
C5 C4 1.380 . S
C5 C6 1.347 . S
C5 H33 0.931 . S
C6 C5 1.347 . S
C6 C7 1.369 . S
C7 C6 1.369 . S
C7 C8 1.408 . S
C7 H34 0.930 . S
C8 C3 1.348 . S
C8 C7 1.408 . S
C8 H35 0.930 . S
C9 O22 1.281 . S
C9 O23 1.254 . S
C10 O24 1.236 . S
C10 O25 1.266 . S
C11 Tb1 2.809 . S
C11 C12 1.514 . S
C11 O26 1.248 . S
C11 O27 1.266 . S
C12 C11 1.514 . S
C12 C13 1.359 . S
C12 C17 1.348 . S
C13 C12 1.359 . S
C13 C14 1.380 . S
C13 H36 0.929 . S
C14 C13 1.380 . S
C14 C15 1.347 . S
C14 H37 0.931 . S
C15 C14 1.347 . S
C15 C16 1.369 . S
C16 C15 1.369 . S
C16 C17 1.408 . S
C16 H38 0.930 . S
C17 C12 1.348 . S
C17 C16 1.408 . S
C17 H39 0.930 . S
C18 O28 1.281 . S
C18 O29 1.254 . S
C19 O30 1.236 . S
C19 O31 1.266 . S
O20 Tb0 2.484 1_565 S
O20 C2 1.248 . S
O21 Tb0 2.440 1_565 S
O21 C2 1.266 . S
O22 Tb0 2.658 . S
O22 Tb1 2.325 . S
O22 C9 1.281 . S
O23 Tb0 2.409 . S
O23 C9 1.254 . S
O24 Tb0 2.378 . S
O24 C10 1.236 . S
O25 Tb1 2.341 . S
O25 C10 1.266 . S
O26 Tb1 2.484 . S
O26 C11 1.248 . S
O27 Tb1 2.440 . S
O27 C11 1.266 . S
O28 Tb0 2.325 . S
O28 Tb1 2.658 . S
O28 C18 1.281 . S
O29 Tb1 2.409 . S
O29 C18 1.254 . S
O30 Tb1 2.378 . S
O30 C19 1.236 . S
O31 Tb0 2.341 . S
O31 C19 1.266 . S
H32 C4 0.929 . S
H33 C5 0.931 . S
H34 C7 0.930 . S
H35 C8 0.930 . S
H36 C13 0.929 . S
H37 C14 0.931 . S
H38 C16 0.930 . S
H39 C17 0.930 . S
Tb40 C42 2.809 1_565 S
Tb40 O60 2.484 1_565 S
Tb40 O61 2.440 1_565 S
Tb40 O62 2.658 . S
Tb40 O63 2.409 . S
Tb40 O64 2.378 . S
Tb40 O68 2.325 . S
Tb40 O71 2.341 . S
Tb41 C51 2.809 . S
Tb41 O62 2.325 . S
Tb41 O65 2.341 . S
Tb41 O66 2.484 . S
Tb41 O67 2.440 . S
Tb41 O68 2.658 . S
Tb41 O69 2.409 . S
Tb41 O70 2.378 . S
C42 Tb40 2.809 1_545 S
C42 C43 1.514 . S
C42 O60 1.248 . S
C42 O61 1.266 . S
C43 C42 1.514 . S
C43 C44 1.359 . S
C43 C48 1.348 . S
C44 C43 1.359 . S
C44 C45 1.380 . S
C44 H72 0.929 . S
C45 C44 1.380 . S
C45 C46 1.347 . S
C45 H73 0.931 . S
C46 C45 1.347 . S
C46 C47 1.369 . S
C47 C46 1.369 . S
C47 C48 1.408 . S
C47 H74 0.930 . S
C48 C43 1.348 . S
C48 C47 1.408 . S
C48 H75 0.930 . S
C49 O62 1.281 . S
C49 O63 1.254 . S
C50 O64 1.236 . S
C50 O65 1.266 . S
C51 Tb41 2.809 . S
C51 C52 1.514 . S
C51 O66 1.248 . S
C51 O67 1.266 . S
C52 C51 1.514 . S
C52 C53 1.359 . S
C52 C57 1.348 . S
C53 C52 1.359 . S
C53 C54 1.380 . S
C53 H76 0.929 . S
C54 C53 1.380 . S
C54 C55 1.347 . S
C54 H77 0.931 . S
C55 C54 1.347 . S
C55 C56 1.369 . S
C56 C55 1.369 . S
C56 C57 1.408 . S
C56 H78 0.930 . S
C57 C52 1.348 . S
C57 C56 1.408 . S
C57 H79 0.930 . S
C58 O68 1.281 . S
C58 O69 1.254 . S
C59 O70 1.236 . S
C59 O71 1.266 . S
O60 Tb40 2.484 1_545 S
O60 C42 1.248 . S
O61 Tb40 2.440 1_545 S
O61 C42 1.266 . S
O62 Tb40 2.658 . S
O62 Tb41 2.325 . S
O62 C49 1.281 . S
O63 Tb40 2.409 . S
O63 C49 1.254 . S
O64 Tb40 2.378 . S
O64 C50 1.236 . S
O65 Tb41 2.341 . S
O65 C50 1.266 . S
O66 Tb41 2.484 . S
O66 C51 1.248 . S
O67 Tb41 2.440 . S
O67 C51 1.266 . S
O68 Tb40 2.325 . S
O68 Tb41 2.658 . S
O68 C58 1.281 . S
O69 Tb41 2.409 . S
O69 C58 1.254 . S
O70 Tb41 2.378 . S
O70 C59 1.236 . S
O71 Tb40 2.341 . S
O71 C59 1.266 . S
H72 C44 0.929 . S
H73 C45 0.931 . S
H74 C47 0.930 . S
H75 C48 0.930 . S
H76 C53 0.929 . S
H77 C54 0.931 . S
H78 C56 0.930 . S
H79 C57 0.930 . S
Tb80 C82 2.809 1_565 S
Tb80 O100 2.484 1_565 S
Tb80 O101 2.440 1_565 S
Tb80 O102 2.658 . S
Tb80 O103 2.409 . S
Tb80 O104 2.378 . S
Tb80 O108 2.325 . S
Tb80 O111 2.341 . S
Tb81 C91 2.809 . S
Tb81 O102 2.325 . S
Tb81 O105 2.341 . S
Tb81 O106 2.484 . S
Tb81 O107 2.440 . S
Tb81 O108 2.658 . S
Tb81 O109 2.409 . S
Tb81 O110 2.378 . S
C82 Tb80 2.809 1_545 S
C82 C83 1.514 . S
C82 O100 1.248 . S
C82 O101 1.266 . S
C83 C82 1.514 . S
C83 C84 1.359 . S
C83 C88 1.348 . S
C84 C83 1.359 . S
C84 C85 1.380 . S
C84 H112 0.929 . S
C85 C84 1.380 . S
C85 C86 1.347 . S
C85 H113 0.931 . S
C86 C85 1.347 . S
C86 C87 1.369 . S
C87 C86 1.369 . S
C87 C88 1.408 . S
C87 H114 0.930 . S
C88 C83 1.348 . S
C88 C87 1.408 . S
C88 H115 0.930 . S
C89 O102 1.281 . S
C89 O103 1.254 . S
C90 O104 1.236 . S
C90 O105 1.266 . S
C91 Tb81 2.809 . S
C91 C92 1.514 . S
C91 O106 1.248 . S
C91 O107 1.266 . S
C92 C91 1.514 . S
C92 C93 1.359 . S
C92 C97 1.348 . S
C93 C92 1.359 . S
C93 C94 1.380 . S
C93 H116 0.929 . S
C94 C93 1.380 . S
C94 C95 1.347 . S
C94 H117 0.931 . S
C95 C94 1.347 . S
C95 C96 1.369 . S
C96 C95 1.369 . S
C96 C97 1.408 . S
C96 H118 0.930 . S
C97 C92 1.348 . S
C97 C96 1.408 . S
C97 H119 0.930 . S
C98 O108 1.281 . S
C98 O109 1.254 . S
C99 O110 1.236 . S
C99 O111 1.266 . S
O100 Tb80 2.484 1_545 S
O100 C82 1.248 . S
O101 Tb80 2.440 1_545 S
O101 C82 1.266 . S
O102 Tb80 2.658 . S
O102 Tb81 2.325 . S
O102 C89 1.281 . S
O103 Tb80 2.409 . S
O103 C89 1.254 . S
O104 Tb80 2.378 . S
O104 C90 1.236 . S
O105 Tb81 2.341 . S
O105 C90 1.266 . S
O106 Tb81 2.484 . S
O106 C91 1.248 . S
O107 Tb81 2.440 . S
O107 C91 1.266 . S
O108 Tb80 2.325 . S
O108 Tb81 2.658 . S
O108 C98 1.281 . S
O109 Tb81 2.409 . S
O109 C98 1.254 . S
O110 Tb81 2.378 . S
O110 C99 1.236 . S
O111 Tb80 2.341 . S
O111 C99 1.266 . S
H112 C84 0.929 . S
H113 C85 0.931 . S
H114 C87 0.930 . S
H115 C88 0.930 . S
H116 C93 0.929 . S
H117 C94 0.931 . S
H118 C96 0.930 . S
H119 C97 0.930 . S
Tb120 C122 2.809 1_545 S
Tb120 O140 2.484 1_545 S
Tb120 O141 2.440 1_545 S
Tb120 O142 2.658 . S
Tb120 O143 2.409 . S
Tb120 O144 2.378 . S
Tb120 O148 2.325 . S
Tb120 O151 2.341 . S
Tb121 C131 2.809 . S
Tb121 O142 2.325 . S
Tb121 O145 2.341 . S
Tb121 O146 2.484 . S
Tb121 O147 2.440 . S
Tb121 O148 2.658 . S
Tb121 O149 2.409 . S
Tb121 O150 2.378 . S
C122 Tb120 2.809 1_565 S
C122 C123 1.514 . S
C122 O140 1.248 . S
C122 O141 1.266 . S
C123 C122 1.514 . S
C123 C124 1.359 . S
C123 C128 1.348 . S
C124 C123 1.359 . S
C124 C125 1.380 . S
C124 H152 0.929 . S
C125 C124 1.380 . S
C125 C126 1.347 . S
C125 H153 0.931 . S
C126 C125 1.347 . S
C126 C127 1.369 . S
C127 C126 1.369 . S
C127 C128 1.408 . S
C127 H154 0.930 . S
C128 C123 1.348 . S
C128 C127 1.408 . S
C128 H155 0.930 . S
C129 O142 1.281 . S
C129 O143 1.254 . S
C130 O144 1.236 . S
C130 O145 1.266 . S
C131 Tb121 2.809 . S
C131 C132 1.514 . S
C131 O146 1.248 . S
C131 O147 1.266 . S
C132 C131 1.514 . S
C132 C133 1.359 . S
C132 C137 1.348 . S
C133 C132 1.359 . S
C133 C134 1.380 . S
C133 H156 0.929 . S
C134 C133 1.380 . S
C134 C135 1.347 . S
C134 H157 0.931 . S
C135 C134 1.347 . S
C135 C136 1.369 . S
C136 C135 1.369 . S
C136 C137 1.408 . S
C136 H158 0.930 . S
C137 C132 1.348 . S
C137 C136 1.408 . S
C137 H159 0.930 . S
C138 O148 1.281 . S
C138 O149 1.254 . S
C139 O150 1.236 . S
C139 O151 1.266 . S
O140 Tb120 2.484 1_565 S
O140 C122 1.248 . S
O141 Tb120 2.440 1_565 S
O141 C122 1.266 . S
O142 Tb120 2.658 . S
O142 Tb121 2.325 . S
O142 C129 1.281 . S
O143 Tb120 2.409 . S
O143 C129 1.254 . S
O144 Tb120 2.378 . S
O144 C130 1.236 . S
O145 Tb121 2.341 . S
O145 C130 1.266 . S
O146 Tb121 2.484 . S
O146 C131 1.248 . S
O147 Tb121 2.440 . S
O147 C131 1.266 . S
O148 Tb120 2.325 . S
O148 Tb121 2.658 . S
O148 C138 1.281 . S
O149 Tb121 2.409 . S
O149 C138 1.254 . S
O150 Tb121 2.378 . S
O150 C139 1.236 . S
O151 Tb120 2.341 . S
O151 C139 1.266 . S
H152 C124 0.929 . S
H153 C125 0.931 . S
H154 C127 0.930 . S
H155 C128 0.930 . S
H156 C133 0.929 . S
H157 C134 0.931 . S
H158 C136 0.930 . S
H159 C137 0.930 . S
Tb160 C162 2.809 . S
Tb160 O180 2.484 . S
Tb160 O181 2.440 . S
Tb160 O182 2.658 . S
Tb160 O183 2.409 . S
Tb160 O184 2.378 . S
Tb160 O188 2.325 . S
Tb160 O191 2.341 . S
Tb161 C171 2.809 1_565 S
Tb161 O182 2.325 . S
Tb161 O185 2.341 . S
Tb161 O186 2.484 1_565 S
Tb161 O187 2.440 1_565 S
Tb161 O188 2.658 . S
Tb161 O189 2.409 . S
Tb161 O190 2.378 . S
C162 Tb160 2.809 . S
C162 C163 1.514 . S
C162 O180 1.248 . S
C162 O181 1.266 . S
C163 C162 1.514 . S
C163 C164 1.359 . S
C163 C168 1.348 . S
C164 C163 1.359 . S
C164 C165 1.380 . S
C164 H192 0.929 . S
C165 C164 1.380 . S
C165 C166 1.347 . S
C165 H193 0.931 . S
C166 C165 1.347 . S
C166 C167 1.369 . S
C167 C166 1.369 . S
C167 C168 1.408 . S
C167 H194 0.930 . S
C168 C163 1.348 . S
C168 C167 1.408 . S
C168 H195 0.930 . S
C169 O182 1.281 . S
C169 O183 1.254 . S
C170 O184 1.236 . S
C170 O185 1.266 . S
C171 Tb161 2.809 1_545 S
C171 C172 1.514 . S
C171 O186 1.248 . S
C171 O187 1.266 . S
C172 C171 1.514 . S
C172 C173 1.359 . S
C172 C177 1.348 . S
C173 C172 1.359 . S
C173 C174 1.380 . S
C173 H196 0.929 . S
C174 C173 1.380 . S
C174 C175 1.347 . S
C174 H197 0.931 . S
C175 C174 1.347 . S
C175 C176 1.369 . S
C176 C175 1.369 . S
C176 C177 1.408 . S
C176 H198 0.930 . S
C177 C172 1.348 . S
C177 C176 1.408 . S
C177 H199 0.930 . S
C178 O188 1.281 . S
C178 O189 1.254 . S
C179 O190 1.236 . S
C179 O191 1.266 . S
O180 Tb160 2.484 . S
O180 C162 1.248 . S
O181 Tb160 2.440 . S
O181 C162 1.266 . S
O182 Tb160 2.658 . S
O182 Tb161 2.325 . S
O182 C169 1.281 . S
O183 Tb160 2.409 . S
O183 C169 1.254 . S
O184 Tb160 2.378 . S
O184 C170 1.236 . S
O185 Tb161 2.341 . S
O185 C170 1.266 . S
O186 Tb161 2.484 1_545 S
O186 C171 1.248 . S
O187 Tb161 2.440 1_545 S
O187 C171 1.266 . S
O188 Tb160 2.325 . S
O188 Tb161 2.658 . S
O188 C178 1.281 . S
O189 Tb161 2.409 . S
O189 C178 1.254 . S
O190 Tb161 2.378 . S
O190 C179 1.236 . S
O191 Tb160 2.341 . S
O191 C179 1.266 . S
H192 C164 0.929 . S
H193 C165 0.931 . S
H194 C167 0.930 . S
H195 C168 0.930 . S
H196 C173 0.929 . S
H197 C174 0.931 . S
H198 C176 0.930 . S
H199 C177 0.930 . S
Tb200 C202 2.809 . S
Tb200 O220 2.484 . S
Tb200 O221 2.440 . S
Tb200 O222 2.658 . S
Tb200 O223 2.409 . S
Tb200 O224 2.378 . S
Tb200 O228 2.325 . S
Tb200 O231 2.341 . S
Tb201 C211 2.809 1_545 S
Tb201 O222 2.325 . S
Tb201 O225 2.341 . S
Tb201 O226 2.484 1_545 S
Tb201 O227 2.440 1_545 S
Tb201 O228 2.658 . S
Tb201 O229 2.409 . S
Tb201 O230 2.378 . S
C202 Tb200 2.809 . S
C202 C203 1.514 . S
C202 O220 1.248 . S
C202 O221 1.266 . S
C203 C202 1.514 . S
C203 C204 1.359 . S
C203 C208 1.348 . S
C204 C203 1.359 . S
C204 C205 1.380 . S
C204 H232 0.929 . S
C205 C204 1.380 . S
C205 C206 1.347 . S
C205 H233 0.931 . S
C206 C205 1.347 . S
C206 C207 1.369 . S
C207 C206 1.369 . S
C207 C208 1.408 . S
C207 H234 0.930 . S
C208 C203 1.348 . S
C208 C207 1.408 . S
C208 H235 0.930 . S
C209 O222 1.281 . S
C209 O223 1.254 . S
C210 O224 1.236 . S
C210 O225 1.266 . S
C211 Tb201 2.809 1_565 S
C211 C212 1.514 . S
C211 O226 1.248 . S
C211 O227 1.266 . S
C212 C211 1.514 . S
C212 C213 1.359 . S
C212 C217 1.348 . S
C213 C212 1.359 . S
C213 C214 1.380 . S
C213 H236 0.929 . S
C214 C213 1.380 . S
C214 C215 1.347 . S
C214 H237 0.931 . S
C215 C214 1.347 . S
C215 C216 1.369 . S
C216 C215 1.369 . S
C216 C217 1.408 . S
C216 H238 0.930 . S
C217 C212 1.348 . S
C217 C216 1.408 . S
C217 H239 0.930 . S
C218 O228 1.281 . S
C218 O229 1.254 . S
C219 O230 1.236 . S
C219 O231 1.266 . S
O220 Tb200 2.484 . S
O220 C202 1.248 . S
O221 Tb200 2.440 . S
O221 C202 1.266 . S
O222 Tb200 2.658 . S
O222 Tb201 2.325 . S
O222 C209 1.281 . S
O223 Tb200 2.409 . S
O223 C209 1.254 . S
O224 Tb200 2.378 . S
O224 C210 1.236 . S
O225 Tb201 2.341 . S
O225 C210 1.266 . S
O226 Tb201 2.484 1_565 S
O226 C211 1.248 . S
O227 Tb201 2.440 1_565 S
O227 C211 1.266 . S
O228 Tb200 2.325 . S
O228 Tb201 2.658 . S
O228 C218 1.281 . S
O229 Tb201 2.409 . S
O229 C218 1.254 . S
O230 Tb201 2.378 . S
O230 C219 1.236 . S
O231 Tb200 2.341 . S
O231 C219 1.266 . S
H232 C204 0.929 . S
H233 C205 0.931 . S
H234 C207 0.930 . S
H235 C208 0.930 . S
H236 C213 0.929 . S
H237 C214 0.931 . S
H238 C216 0.930 . S
H239 C217 0.930 . S
Tb240 C242 2.809 . S
Tb240 O260 2.484 . S
Tb240 O261 2.440 . S
Tb240 O262 2.658 . S
Tb240 O263 2.409 . S
Tb240 O264 2.378 . S
Tb240 O268 2.325 . S
Tb240 O271 2.341 . S
Tb241 C251 2.809 1_545 S
Tb241 O262 2.325 . S
Tb241 O265 2.341 . S
Tb241 O266 2.484 1_545 S
Tb241 O267 2.440 1_545 S
Tb241 O268 2.658 . S
Tb241 O269 2.409 . S
Tb241 O270 2.378 . S
C242 Tb240 2.809 . S
C242 C243 1.514 . S
C242 O260 1.248 . S
C242 O261 1.266 . S
C243 C242 1.514 . S
C243 C244 1.359 . S
C243 C248 1.348 . S
C244 C243 1.359 . S
C244 C245 1.380 . S
C244 H272 0.929 . S
C245 C244 1.380 . S
C245 C246 1.347 . S
C245 H273 0.931 . S
C246 C245 1.347 . S
C246 C247 1.369 . S
C247 C246 1.369 . S
C247 C248 1.408 . S
C247 H274 0.930 . S
C248 C243 1.348 . S
C248 C247 1.408 . S
C248 H275 0.930 . S
C249 O262 1.281 . S
C249 O263 1.254 . S
C250 O264 1.236 . S
C250 O265 1.266 . S
C251 Tb241 2.809 1_565 S
C251 C252 1.514 . S
C251 O266 1.248 . S
C251 O267 1.266 . S
C252 C251 1.514 . S
C252 C253 1.359 . S
C252 C257 1.348 . S
C253 C252 1.359 . S
C253 C254 1.380 . S
C253 H276 0.929 . S
C254 C253 1.380 . S
C254 C255 1.347 . S
C254 H277 0.931 . S
C255 C254 1.347 . S
C255 C256 1.369 . S
C256 C255 1.369 . S
C256 C257 1.408 . S
C256 H278 0.930 . S
C257 C252 1.348 . S
C257 C256 1.408 . S
C257 H279 0.930 . S
C258 O268 1.281 . S
C258 O269 1.254 . S
C259 O270 1.236 . S
C259 O271 1.266 . S
O260 Tb240 2.484 . S
O260 C242 1.248 . S
O261 Tb240 2.440 . S
O261 C242 1.266 . S
O262 Tb240 2.658 . S
O262 Tb241 2.325 . S
O262 C249 1.281 . S
O263 Tb240 2.409 . S
O263 C249 1.254 . S
O264 Tb240 2.378 . S
O264 C250 1.236 . S
O265 Tb241 2.341 . S
O265 C250 1.266 . S
O266 Tb241 2.484 1_565 S
O266 C251 1.248 . S
O267 Tb241 2.440 1_565 S
O267 C251 1.266 . S
O268 Tb240 2.325 . S
O268 Tb241 2.658 . S
O268 C258 1.281 . S
O269 Tb241 2.409 . S
O269 C258 1.254 . S
O270 Tb241 2.378 . S
O270 C259 1.236 . S
O271 Tb240 2.341 . S
O271 C259 1.266 . S
H272 C244 0.929 . S
H273 C245 0.931 . S
H274 C247 0.930 . S
H275 C248 0.930 . S
H276 C253 0.929 . S
H277 C254 0.931 . S
H278 C256 0.930 . S
H279 C257 0.930 . S
Tb280 C282 2.809 . S
Tb280 O300 2.484 . S
Tb280 O301 2.440 . S
Tb280 O302 2.658 . S
Tb280 O303 2.409 . S
Tb280 O304 2.378 . S
Tb280 O308 2.325 . S
Tb280 O311 2.341 . S
Tb281 C291 2.809 1_565 S
Tb281 O302 2.325 . S
Tb281 O305 2.341 . S
Tb281 O306 2.484 1_565 S
Tb281 O307 2.440 1_565 S
Tb281 O308 2.658 . S
Tb281 O309 2.409 . S
Tb281 O310 2.378 . S
C282 Tb280 2.809 . S
C282 C283 1.514 . S
C282 O300 1.248 . S
C282 O301 1.266 . S
C283 C282 1.514 . S
C283 C284 1.359 . S
C283 C288 1.348 . S
C284 C283 1.359 . S
C284 C285 1.380 . S
C284 H312 0.929 . S
C285 C284 1.380 . S
C285 C286 1.347 . S
C285 H313 0.931 . S
C286 C285 1.347 . S
C286 C287 1.369 . S
C287 C286 1.369 . S
C287 C288 1.408 . S
C287 H314 0.930 . S
C288 C283 1.348 . S
C288 C287 1.408 . S
C288 H315 0.930 . S
C289 O302 1.281 . S
C289 O303 1.254 . S
C290 O304 1.236 . S
C290 O305 1.266 . S
C291 Tb281 2.809 1_545 S
C291 C292 1.514 . S
C291 O306 1.248 . S
C291 O307 1.266 . S
C292 C291 1.514 . S
C292 C293 1.359 . S
C292 C297 1.348 . S
C293 C292 1.359 . S
C293 C294 1.380 . S
C293 H316 0.929 . S
C294 C293 1.380 . S
C294 C295 1.347 . S
C294 H317 0.931 . S
C295 C294 1.347 . S
C295 C296 1.369 . S
C296 C295 1.369 . S
C296 C297 1.408 . S
C296 H318 0.930 . S
C297 C292 1.348 . S
C297 C296 1.408 . S
C297 H319 0.930 . S
C298 O308 1.281 . S
C298 O309 1.254 . S
C299 O310 1.236 . S
C299 O311 1.266 . S
O300 Tb280 2.484 . S
O300 C282 1.248 . S
O301 Tb280 2.440 . S
O301 C282 1.266 . S
O302 Tb280 2.658 . S
O302 Tb281 2.325 . S
O302 C289 1.281 . S
O303 Tb280 2.409 . S
O303 C289 1.254 . S
O304 Tb280 2.378 . S
O304 C290 1.236 . S
O305 Tb281 2.341 . S
O305 C290 1.266 . S
O306 Tb281 2.484 1_545 S
O306 C291 1.248 . S
O307 Tb281 2.440 1_545 S
O307 C291 1.266 . S
O308 Tb280 2.325 . S
O308 Tb281 2.658 . S
O308 C298 1.281 . S
O309 Tb281 2.409 . S
O309 C298 1.254 . S
O310 Tb281 2.378 . S
O310 C299 1.236 . S
O311 Tb280 2.341 . S
O311 C299 1.266 . S
H312 C284 0.929 . S
H313 C285 0.931 . S
H314 C287 0.930 . S
H315 C288 0.930 . S
H316 C293 0.929 . S
H317 C294 0.931 . S
H318 C296 0.930 . S
H319 C297 0.930 . S
Tb320 C322 2.809 . S
Tb320 O340 2.484 . S
Tb320 O341 2.440 . S
Tb320 O342 2.658 . S
Tb320 O343 2.409 . S
Tb320 O344 2.378 . S
Tb320 O348 2.325 . S
Tb320 O351 2.341 . S
Tb321 C331 2.809 . S
Tb321 O342 2.325 . S
Tb321 O345 2.341 . S
Tb321 O346 2.484 . S
Tb321 O347 2.440 . S
Tb321 O348 2.658 . S
Tb321 O349 2.409 . S
Tb321 O350 2.378 . S
C322 Tb320 2.809 . S
C322 C323 1.514 . S
C322 O340 1.248 . S
C322 O341 1.266 . S
C323 C322 1.514 . S
C323 C324 1.359 . S
C323 C328 1.348 . S
C324 C323 1.359 . S
C324 C325 1.380 . S
C324 H352 0.929 . S
C325 C324 1.380 . S
C325 C326 1.347 . S
C325 H353 0.931 . S
C326 C325 1.347 . S
C326 C327 1.369 . S
C327 C326 1.369 . S
C327 C328 1.408 . S
C327 H354 0.930 . S
C328 C323 1.348 . S
C328 C327 1.408 . S
C328 H355 0.930 . S
C329 O342 1.281 . S
C329 O343 1.254 . S
C330 O344 1.236 . S
C330 O345 1.266 . S
C331 Tb321 2.809 . S
C331 C332 1.514 . S
C331 O346 1.248 . S
C331 O347 1.266 . S
C332 C331 1.514 . S
C332 C333 1.359 . S
C332 C337 1.348 . S
C333 C332 1.359 . S
C333 C334 1.380 . S
C333 H356 0.929 . S
C334 C333 1.380 . S
C334 C335 1.347 . S
C334 H357 0.931 . S
C335 C334 1.347 . S
C335 C336 1.369 . S
C336 C335 1.369 . S
C336 C337 1.408 . S
C336 H358 0.930 . S
C337 C332 1.348 . S
C337 C336 1.408 . S
C337 H359 0.930 . S
C338 O348 1.281 . S
C338 O349 1.254 . S
C339 O350 1.236 . S
C339 O351 1.266 . S
O340 Tb320 2.484 . S
O340 C322 1.248 . S
O341 Tb320 2.440 . S
O341 C322 1.266 . S
O342 Tb320 2.658 . S
O342 Tb321 2.325 . S
O342 C329 1.281 . S
O343 Tb320 2.409 . S
O343 C329 1.254 . S
O344 Tb320 2.378 . S
O344 C330 1.236 . S
O345 Tb321 2.341 . S
O345 C330 1.266 . S
O346 Tb321 2.484 . S
O346 C331 1.248 . S
O347 Tb321 2.440 . S
O347 C331 1.266 . S
O348 Tb320 2.325 . S
O348 Tb321 2.658 . S
O348 C338 1.281 . S
O349 Tb321 2.409 . S
O349 C338 1.254 . S
O350 Tb321 2.378 . S
O350 C339 1.236 . S
O351 Tb320 2.341 . S
O351 C339 1.266 . S
H352 C324 0.929 . S
H353 C325 0.931 . S
H354 C327 0.930 . S
H355 C328 0.930 . S
H356 C333 0.929 . S
H357 C334 0.931 . S
H358 C336 0.930 . S
H359 C337 0.930 . S
Tb360 C362 2.809 . S
Tb360 O380 2.484 . S
Tb360 O381 2.440 . S
Tb360 O382 2.658 . S
Tb360 O383 2.409 . S
Tb360 O384 2.378 . S
Tb360 O388 2.325 . S
Tb360 O391 2.341 . S
Tb361 C371 2.809 . S
Tb361 O382 2.325 . S
Tb361 O385 2.341 . S
Tb361 O386 2.484 . S
Tb361 O387 2.440 . S
Tb361 O388 2.658 . S
Tb361 O389 2.409 . S
Tb361 O390 2.378 . S
C362 Tb360 2.809 . S
C362 C363 1.514 . S
C362 O380 1.248 . S
C362 O381 1.266 . S
C363 C362 1.514 . S
C363 C364 1.359 . S
C363 C368 1.348 . S
C364 C363 1.359 . S
C364 C365 1.380 . S
C364 H392 0.929 . S
C365 C364 1.380 . S
C365 C366 1.347 . S
C365 H393 0.931 . S
C366 C365 1.347 . S
C366 C367 1.369 . S
C367 C366 1.369 . S
C367 C368 1.408 . S
C367 H394 0.930 . S
C368 C363 1.348 . S
C368 C367 1.408 . S
C368 H395 0.930 . S
C369 O382 1.281 . S
C369 O383 1.254 . S
C370 O384 1.236 . S
C370 O385 1.266 . S
C371 Tb361 2.809 . S
C371 C372 1.514 . S
C371 O386 1.248 . S
C371 O387 1.266 . S
C372 C371 1.514 . S
C372 C373 1.359 . S
C372 C377 1.348 . S
C373 C372 1.359 . S
C373 C374 1.380 . S
C373 H396 0.929 . S
C374 C373 1.380 . S
C374 C375 1.347 . S
C374 H397 0.931 . S
C375 C374 1.347 . S
C375 C376 1.369 . S
C376 C375 1.369 . S
C376 C377 1.408 . S
C376 H398 0.930 . S
C377 C372 1.348 . S
C377 C376 1.408 . S
C377 H399 0.930 . S
C378 O388 1.281 . S
C378 O389 1.254 . S
C379 O390 1.236 . S
C379 O391 1.266 . S
O380 Tb360 2.484 . S
O380 C362 1.248 . S
O381 Tb360 2.440 . S
O381 C362 1.266 . S
O382 Tb360 2.658 . S
O382 Tb361 2.325 . S
O382 C369 1.281 . S
O383 Tb360 2.409 . S
O383 C369 1.254 . S
O384 Tb360 2.378 . S
O384 C370 1.236 . S
O385 Tb361 2.341 . S
O385 C370 1.266 . S
O386 Tb361 2.484 . S
O386 C371 1.248 . S
O387 Tb361 2.440 . S
O387 C371 1.266 . S
O388 Tb360 2.325 . S
O388 Tb361 2.658 . S
O388 C378 1.281 . S
O389 Tb361 2.409 . S
O389 C378 1.254 . S
O390 Tb361 2.378 . S
O390 C379 1.236 . S
O391 Tb360 2.341 . S
O391 C379 1.266 . S
H392 C364 0.929 . S
H393 C365 0.931 . S
H394 C367 0.930 . S
H395 C368 0.930 . S
H396 C373 0.929 . S
H397 C374 0.931 . S
H398 C376 0.930 . S
H399 C377 0.930 . S
Tb400 C402 2.809 . S
Tb400 O420 2.484 . S
Tb400 O421 2.440 . S
Tb400 O422 2.658 . S
Tb400 O423 2.409 . S
Tb400 O424 2.378 . S
Tb400 O428 2.325 . S
Tb400 O431 2.341 . S
Tb401 C411 2.809 . S
Tb401 O422 2.325 . S
Tb401 O425 2.341 . S
Tb401 O426 2.484 . S
Tb401 O427 2.440 . S
Tb401 O428 2.658 . S
Tb401 O429 2.409 . S
Tb401 O430 2.378 . S
C402 Tb400 2.809 . S
C402 C403 1.514 . S
C402 O420 1.248 . S
C402 O421 1.266 . S
C403 C402 1.514 . S
C403 C404 1.359 . S
C403 C408 1.348 . S
C404 C403 1.359 . S
C404 C405 1.380 . S
C404 H432 0.929 . S
C405 C404 1.380 . S
C405 C406 1.347 . S
C405 H433 0.931 . S
C406 C405 1.347 . S
C406 C407 1.369 . S
C407 C406 1.369 . S
C407 C408 1.408 . S
C407 H434 0.930 . S
C408 C403 1.348 . S
C408 C407 1.408 . S
C408 H435 0.930 . S
C409 O422 1.281 . S
C409 O423 1.254 . S
C410 O424 1.236 . S
C410 O425 1.266 . S
C411 Tb401 2.809 . S
C411 C412 1.514 . S
C411 O426 1.248 . S
C411 O427 1.266 . S
C412 C411 1.514 . S
C412 C413 1.359 . S
C412 C417 1.348 . S
C413 C412 1.359 . S
C413 C414 1.380 . S
C413 H436 0.929 . S
C414 C413 1.380 . S
C414 C415 1.347 . S
C414 H437 0.931 . S
C415 C414 1.347 . S
C415 C416 1.369 . S
C416 C415 1.369 . S
C416 C417 1.408 . S
C416 H438 0.930 . S
C417 C412 1.348 . S
C417 C416 1.408 . S
C417 H439 0.930 . S
C418 O428 1.281 . S
C418 O429 1.254 . S
C419 O430 1.236 . S
C419 O431 1.266 . S
O420 Tb400 2.484 . S
O420 C402 1.248 . S
O421 Tb400 2.440 . S
O421 C402 1.266 . S
O422 Tb400 2.658 . S
O422 Tb401 2.325 . S
O422 C409 1.281 . S
O423 Tb400 2.409 . S
O423 C409 1.254 . S
O424 Tb400 2.378 . S
O424 C410 1.236 . S
O425 Tb401 2.341 . S
O425 C410 1.266 . S
O426 Tb401 2.484 . S
O426 C411 1.248 . S
O427 Tb401 2.440 . S
O427 C411 1.266 . S
O428 Tb400 2.325 . S
O428 Tb401 2.658 . S
O428 C418 1.281 . S
O429 Tb401 2.409 . S
O429 C418 1.254 . S
O430 Tb401 2.378 . S
O430 C419 1.236 . S
O431 Tb400 2.341 . S
O431 C419 1.266 . S
H432 C404 0.929 . S
H433 C405 0.931 . S
H434 C407 0.930 . S
H435 C408 0.930 . S
H436 C413 0.929 . S
H437 C414 0.931 . S
H438 C416 0.930 . S
H439 C417 0.930 . S
Tb440 C442 2.809 . S
Tb440 O460 2.484 . S
Tb440 O461 2.440 . S
Tb440 O462 2.658 . S
Tb440 O463 2.409 . S
Tb440 O464 2.378 . S
Tb440 O468 2.325 . S
Tb440 O471 2.341 . S
Tb441 C451 2.809 . S
Tb441 O462 2.325 . S
Tb441 O465 2.341 . S
Tb441 O466 2.484 . S
Tb441 O467 2.440 . S
Tb441 O468 2.658 . S
Tb441 O469 2.409 . S
Tb441 O470 2.378 . S
C442 Tb440 2.809 . S
C442 C443 1.514 . S
C442 O460 1.248 . S
C442 O461 1.266 . S
C443 C442 1.514 . S
C443 C444 1.359 . S
C443 C448 1.348 . S
C444 C443 1.359 . S
C444 C445 1.380 . S
C444 H472 0.929 . S
C445 C444 1.380 . S
C445 C446 1.347 . S
C445 H473 0.931 . S
C446 C445 1.347 . S
C446 C447 1.369 . S
C447 C446 1.369 . S
C447 C448 1.408 . S
C447 H474 0.930 . S
C448 C443 1.348 . S
C448 C447 1.408 . S
C448 H475 0.930 . S
C449 O462 1.281 . S
C449 O463 1.254 . S
C450 O464 1.236 . S
C450 O465 1.266 . S
C451 Tb441 2.809 . S
C451 C452 1.514 . S
C451 O466 1.248 . S
C451 O467 1.266 . S
C452 C451 1.514 . S
C452 C453 1.359 . S
C452 C457 1.348 . S
C453 C452 1.359 . S
C453 C454 1.380 . S
C453 H476 0.929 . S
C454 C453 1.380 . S
C454 C455 1.347 . S
C454 H477 0.931 . S
C455 C454 1.347 . S
C455 C456 1.369 . S
C456 C455 1.369 . S
C456 C457 1.408 . S
C456 H478 0.930 . S
C457 C452 1.348 . S
C457 C456 1.408 . S
C457 H479 0.930 . S
C458 O468 1.281 . S
C458 O469 1.254 . S
C459 O470 1.236 . S
C459 O471 1.266 . S
O460 Tb440 2.484 . S
O460 C442 1.248 . S
O461 Tb440 2.440 . S
O461 C442 1.266 . S
O462 Tb440 2.658 . S
O462 Tb441 2.325 . S
O462 C449 1.281 . S
O463 Tb440 2.409 . S
O463 C449 1.254 . S
O464 Tb440 2.378 . S
O464 C450 1.236 . S
O465 Tb441 2.341 . S
O465 C450 1.266 . S
O466 Tb441 2.484 . S
O466 C451 1.248 . S
O467 Tb441 2.440 . S
O467 C451 1.266 . S
O468 Tb440 2.325 . S
O468 Tb441 2.658 . S
O468 C458 1.281 . S
O469 Tb441 2.409 . S
O469 C458 1.254 . S
O470 Tb441 2.378 . S
O470 C459 1.236 . S
O471 Tb440 2.341 . S
O471 C459 1.266 . S
H472 C444 0.929 . S
H473 C445 0.931 . S
H474 C447 0.930 . S
H475 C448 0.930 . S
H476 C453 0.929 . S
H477 C454 0.931 . S
H478 C456 0.930 . S
H479 C457 0.930 . S
Tb480 C482 2.809 . S
Tb480 O500 2.484 . S
Tb480 O501 2.440 . S
Tb480 O502 2.658 . S
Tb480 O503 2.409 . S
Tb480 O504 2.378 . S
Tb480 O508 2.325 . S
Tb480 O511 2.341 . S
Tb481 C491 2.809 . S
Tb481 O502 2.325 . S
Tb481 O505 2.341 . S
Tb481 O506 2.484 . S
Tb481 O507 2.440 . S
Tb481 O508 2.658 . S
Tb481 O509 2.409 . S
Tb481 O510 2.378 . S
C482 Tb480 2.809 . S
C482 C483 1.514 . S
C482 O500 1.248 . S
C482 O501 1.266 . S
C483 C482 1.514 . S
C483 C484 1.359 . S
C483 C488 1.348 . S
C484 C483 1.359 . S
C484 C485 1.380 . S
C484 H512 0.929 . S
C485 C484 1.380 . S
C485 C486 1.347 . S
C485 H513 0.931 . S
C486 C485 1.347 . S
C486 C487 1.369 . S
C487 C486 1.369 . S
C487 C488 1.408 . S
C487 H514 0.930 . S
C488 C483 1.348 . S
C488 C487 1.408 . S
C488 H515 0.930 . S
C489 O502 1.281 . S
C489 O503 1.254 . S
C490 O504 1.236 . S
C490 O505 1.266 . S
C491 Tb481 2.809 . S
C491 C492 1.514 . S
C491 O506 1.248 . S
C491 O507 1.266 . S
C492 C491 1.514 . S
C492 C493 1.359 . S
C492 C497 1.348 . S
C493 C492 1.359 . S
C493 C494 1.380 . S
C493 H516 0.929 . S
C494 C493 1.380 . S
C494 C495 1.347 . S
C494 H517 0.931 . S
C495 C494 1.347 . S
C495 C496 1.369 . S
C496 C495 1.369 . S
C496 C497 1.408 . S
C496 H518 0.930 . S
C497 C492 1.348 . S
C497 C496 1.408 . S
C497 H519 0.930 . S
C498 O508 1.281 . S
C498 O509 1.254 . S
C499 O510 1.236 . S
C499 O511 1.266 . S
O500 Tb480 2.484 . S
O500 C482 1.248 . S
O501 Tb480 2.440 . S
O501 C482 1.266 . S
O502 Tb480 2.658 . S
O502 Tb481 2.325 . S
O502 C489 1.281 . S
O503 Tb480 2.409 . S
O503 C489 1.254 . S
O504 Tb480 2.378 . S
O504 C490 1.236 . S
O505 Tb481 2.341 . S
O505 C490 1.266 . S
O506 Tb481 2.484 . S
O506 C491 1.248 . S
O507 Tb481 2.440 . S
O507 C491 1.266 . S
O508 Tb480 2.325 . S
O508 Tb481 2.658 . S
O508 C498 1.281 . S
O509 Tb481 2.409 . S
O509 C498 1.254 . S
O510 Tb481 2.378 . S
O510 C499 1.236 . S
O511 Tb480 2.341 . S
O511 C499 1.266 . S
H512 C484 0.929 . S
H513 C485 0.931 . S
H514 C487 0.930 . S
H515 C488 0.930 . S
H516 C493 0.929 . S
H517 C494 0.931 . S
H518 C496 0.930 . S
H519 C497 0.930 . S
Tb520 C522 2.809 . S
Tb520 O540 2.484 . S
Tb520 O541 2.440 . S
Tb520 O542 2.658 . S
Tb520 O543 2.409 . S
Tb520 O544 2.378 . S
Tb520 O548 2.325 . S
Tb520 O551 2.341 . S
Tb521 C531 2.809 . S
Tb521 O542 2.325 . S
Tb521 O545 2.341 . S
Tb521 O546 2.484 . S
Tb521 O547 2.440 . S
Tb521 O548 2.658 . S
Tb521 O549 2.409 . S
Tb521 O550 2.378 . S
C522 Tb520 2.809 . S
C522 C523 1.514 . S
C522 O540 1.248 . S
C522 O541 1.266 . S
C523 C522 1.514 . S
C523 C524 1.359 . S
C523 C528 1.348 . S
C524 C523 1.359 . S
C524 C525 1.380 . S
C524 H552 0.929 . S
C525 C524 1.380 . S
C525 C526 1.347 . S
C525 H553 0.931 . S
C526 C525 1.347 . S
C526 C527 1.369 . S
C527 C526 1.369 . S
C527 C528 1.408 . S
C527 H554 0.930 . S
C528 C523 1.348 . S
C528 C527 1.408 . S
C528 H555 0.930 . S
C529 O542 1.281 . S
C529 O543 1.254 . S
C530 O544 1.236 . S
C530 O545 1.266 . S
C531 Tb521 2.809 . S
C531 C532 1.514 . S
C531 O546 1.248 . S
C531 O547 1.266 . S
C532 C531 1.514 . S
C532 C533 1.359 . S
C532 C537 1.348 . S
C533 C532 1.359 . S
C533 C534 1.380 . S
C533 H556 0.929 . S
C534 C533 1.380 . S
C534 C535 1.347 . S
C534 H557 0.931 . S
C535 C534 1.347 . S
C535 C536 1.369 . S
C536 C535 1.369 . S
C536 C537 1.408 . S
C536 H558 0.930 . S
C537 C532 1.348 . S
C537 C536 1.408 . S
C537 H559 0.930 . S
C538 O548 1.281 . S
C538 O549 1.254 . S
C539 O550 1.236 . S
C539 O551 1.266 . S
O540 Tb520 2.484 . S
O540 C522 1.248 . S
O541 Tb520 2.440 . S
O541 C522 1.266 . S
O542 Tb520 2.658 . S
O542 Tb521 2.325 . S
O542 C529 1.281 . S
O543 Tb520 2.409 . S
O543 C529 1.254 . S
O544 Tb520 2.378 . S
O544 C530 1.236 . S
O545 Tb521 2.341 . S
O545 C530 1.266 . S
O546 Tb521 2.484 . S
O546 C531 1.248 . S
O547 Tb521 2.440 . S
O547 C531 1.266 . S
O548 Tb520 2.325 . S
O548 Tb521 2.658 . S
O548 C538 1.281 . S
O549 Tb521 2.409 . S
O549 C538 1.254 . S
O550 Tb521 2.378 . S
O550 C539 1.236 . S
O551 Tb520 2.341 . S
O551 C539 1.266 . S
H552 C524 0.929 . S
H553 C525 0.931 . S
H554 C527 0.930 . S
H555 C528 0.930 . S
H556 C533 0.929 . S
H557 C534 0.931 . S
H558 C536 0.930 . S
H559 C537 0.930 . S
Tb560 C562 2.809 . S
Tb560 O580 2.484 . S
Tb560 O581 2.440 . S
Tb560 O582 2.658 . S
Tb560 O583 2.409 . S
Tb560 O584 2.378 . S
Tb560 O588 2.325 . S
Tb560 O591 2.341 . S
Tb561 C571 2.809 . S
Tb561 O582 2.325 . S
Tb561 O585 2.341 . S
Tb561 O586 2.484 . S
Tb561 O587 2.440 . S
Tb561 O588 2.658 . S
Tb561 O589 2.409 . S
Tb561 O590 2.378 . S
C562 Tb560 2.809 . S
C562 C563 1.514 . S
C562 O580 1.248 . S
C562 O581 1.266 . S
C563 C562 1.514 . S
C563 C564 1.359 . S
C563 C568 1.348 . S
C564 C563 1.359 . S
C564 C565 1.380 . S
C564 H592 0.929 . S
C565 C564 1.380 . S
C565 C566 1.347 . S
C565 H593 0.931 . S
C566 C565 1.347 . S
C566 C567 1.369 . S
C567 C566 1.369 . S
C567 C568 1.408 . S
C567 H594 0.930 . S
C568 C563 1.348 . S
C568 C567 1.408 . S
C568 H595 0.930 . S
C569 O582 1.281 . S
C569 O583 1.254 . S
C570 O584 1.236 . S
C570 O585 1.266 . S
C571 Tb561 2.809 . S
C571 C572 1.514 . S
C571 O586 1.248 . S
C571 O587 1.266 . S
C572 C571 1.514 . S
C572 C573 1.359 . S
C572 C577 1.348 . S
C573 C572 1.359 . S
C573 C574 1.380 . S
C573 H596 0.929 . S
C574 C573 1.380 . S
C574 C575 1.347 . S
C574 H597 0.931 . S
C575 C574 1.347 . S
C575 C576 1.369 . S
C576 C575 1.369 . S
C576 C577 1.408 . S
C576 H598 0.930 . S
C577 C572 1.348 . S
C577 C576 1.408 . S
C577 H599 0.930 . S
C578 O588 1.281 . S
C578 O589 1.254 . S
C579 O590 1.236 . S
C579 O591 1.266 . S
O580 Tb560 2.484 . S
O580 C562 1.248 . S
O581 Tb560 2.440 . S
O581 C562 1.266 . S
O582 Tb560 2.658 . S
O582 Tb561 2.325 . S
O582 C569 1.281 . S
O583 Tb560 2.409 . S
O583 C569 1.254 . S
O584 Tb560 2.378 . S
O584 C570 1.236 . S
O585 Tb561 2.341 . S
O585 C570 1.266 . S
O586 Tb561 2.484 . S
O586 C571 1.248 . S
O587 Tb561 2.440 . S
O587 C571 1.266 . S
O588 Tb560 2.325 . S
O588 Tb561 2.658 . S
O588 C578 1.281 . S
O589 Tb561 2.409 . S
O589 C578 1.254 . S
O590 Tb561 2.378 . S
O590 C579 1.236 . S
O591 Tb560 2.341 . S
O591 C579 1.266 . S
H592 C564 0.929 . S
H593 C565 0.931 . S
H594 C567 0.930 . S
H595 C568 0.930 . S
H596 C573 0.929 . S
H597 C574 0.931 . S
H598 C576 0.930 . S
H599 C577 0.930 . S
Tb600 C602 2.809 . S
Tb600 O620 2.484 . S
Tb600 O621 2.440 . S
Tb600 O622 2.658 . S
Tb600 O623 2.409 . S
Tb600 O624 2.378 . S
Tb600 O628 2.325 . S
Tb600 O631 2.341 . S
Tb601 C611 2.809 . S
Tb601 O622 2.325 . S
Tb601 O625 2.341 . S
Tb601 O626 2.484 . S
Tb601 O627 2.440 . S
Tb601 O628 2.658 . S
Tb601 O629 2.409 . S
Tb601 O630 2.378 . S
C602 Tb600 2.809 . S
C602 C603 1.514 . S
C602 O620 1.248 . S
C602 O621 1.266 . S
C603 C602 1.514 . S
C603 C604 1.359 . S
C603 C608 1.348 . S
C604 C603 1.359 . S
C604 C605 1.380 . S
C604 H632 0.929 . S
C605 C604 1.380 . S
C605 C606 1.347 . S
C605 H633 0.931 . S
C606 C605 1.347 . S
C606 C607 1.369 . S
C607 C606 1.369 . S
C607 C608 1.408 . S
C607 H634 0.930 . S
C608 C603 1.348 . S
C608 C607 1.408 . S
C608 H635 0.930 . S
C609 O622 1.281 . S
C609 O623 1.254 . S
C610 O624 1.236 . S
C610 O625 1.266 . S
C611 Tb601 2.809 . S
C611 C612 1.514 . S
C611 O626 1.248 . S
C611 O627 1.266 . S
C612 C611 1.514 . S
C612 C613 1.359 . S
C612 C617 1.348 . S
C613 C612 1.359 . S
C613 C614 1.380 . S
C613 H636 0.929 . S
C614 C613 1.380 . S
C614 C615 1.347 . S
C614 H637 0.931 . S
C615 C614 1.347 . S
C615 C616 1.369 . S
C616 C615 1.369 . S
C616 C617 1.408 . S
C616 H638 0.930 . S
C617 C612 1.348 . S
C617 C616 1.408 . S
C617 H639 0.930 . S
C618 O628 1.281 . S
C618 O629 1.254 . S
C619 O630 1.236 . S
C619 O631 1.266 . S
O620 Tb600 2.484 . S
O620 C602 1.248 . S
O621 Tb600 2.440 . S
O621 C602 1.266 . S
O622 Tb600 2.658 . S
O622 Tb601 2.325 . S
O622 C609 1.281 . S
O623 Tb600 2.409 . S
O623 C609 1.254 . S
O624 Tb600 2.378 . S
O624 C610 1.236 . S
O625 Tb601 2.341 . S
O625 C610 1.266 . S
O626 Tb601 2.484 . S
O626 C611 1.248 . S
O627 Tb601 2.440 . S
O627 C611 1.266 . S
O628 Tb600 2.325 . S
O628 Tb601 2.658 . S
O628 C618 1.281 . S
O629 Tb601 2.409 . S
O629 C618 1.254 . S
O630 Tb601 2.378 . S
O630 C619 1.236 . S
O631 Tb600 2.341 . S
O631 C619 1.266 . S
H632 C604 0.929 . S
H633 C605 0.931 . S
H634 C607 0.930 . S
H635 C608 0.930 . S
H636 C613 0.929 . S
H637 C614 0.931 . S
H638 C616 0.930 . S
H639 C617 0.930 . S
H640 C646 0.930 . S
H641 C650 0.930 . S
H642 C655 0.929 . S
H643 C653 0.929 . S
H644 C648 0.929 . S
H645 C654 0.929 . S
C646 H640 0.930 . S
C646 C647 1.367 . S
C646 C654 1.378 . S
C647 C646 1.367 . S
C647 C655 1.433 . S
C648 H644 0.929 . S
C648 C650 1.378 . S
C648 C652 1.350 . S
C649 C652 1.463 . S
C649 C654 1.350 . S
C649 N657 1.427 . S
C650 H641 0.930 . S
C650 C648 1.378 . S
C650 C651 1.367 . S
C651 C650 1.367 . S
C651 C653 1.433 . S
C652 C648 1.350 . S
C652 C649 1.463 . S
C652 N656 1.427 . S
C653 H643 0.929 . S
C653 C651 1.433 . S
C653 N656 1.384 . S
C654 H645 0.929 . S
C654 C646 1.378 . S
C654 C649 1.350 . S
C655 H642 0.929 . S
C655 C647 1.433 . S
C655 N657 1.384 . S
N656 C652 1.427 . S
N656 C653 1.384 . S
N657 C649 1.427 . S
N657 C655 1.384 . S
H658 C664 0.930 . S
H659 C668 0.930 . S
H660 C673 0.929 . S
H661 C671 0.929 . S
H662 C666 0.929 . S
H663 C672 0.929 . S
C664 H658 0.930 . S
C664 C665 1.367 . S
C664 C672 1.378 . S
C665 C664 1.367 . S
C665 C673 1.433 . S
C666 H662 0.929 . S
C666 C668 1.378 . S
C666 C670 1.350 . S
C667 C670 1.463 . S
C667 C672 1.350 . S
C667 N675 1.427 . S
C668 H659 0.930 . S
C668 C666 1.378 . S
C668 C669 1.367 . S
C669 C668 1.367 . S
C669 C671 1.433 . S
C670 C666 1.350 . S
C670 C667 1.463 . S
C670 N674 1.427 . S
C671 H661 0.929 . S
C671 C669 1.433 . S
C671 N674 1.384 . S
C672 H663 0.929 . S
C672 C664 1.378 . S
C672 C667 1.350 . S
C673 H660 0.929 . S
C673 C665 1.433 . S
C673 N675 1.384 . S
N674 C670 1.427 . S
N674 C671 1.384 . S
N675 C667 1.427 . S
N675 C673 1.384 . S
H676 C682 0.930 . S
H677 C686 0.930 . S
H678 C691 0.929 . S
H679 C689 0.929 . S
H680 C684 0.929 . S
H681 C690 0.929 . S
C682 H676 0.930 . S
C682 C683 1.367 . S
C682 C690 1.378 . S
C683 C682 1.367 . S
C683 C691 1.433 . S
C684 H680 0.929 . S
C684 C686 1.378 . S
C684 C688 1.350 . S
C685 C688 1.463 . S
C685 C690 1.350 . S
C685 N693 1.427 . S
C686 H677 0.930 . S
C686 C684 1.378 . S
C686 C687 1.367 . S
C687 C686 1.367 . S
C687 C689 1.433 . S
C688 C684 1.350 . S
C688 C685 1.463 . S
C688 N692 1.427 . S
C689 H679 0.929 . S
C689 C687 1.433 . S
C689 N692 1.384 . S
C690 H681 0.929 . S
C690 C682 1.378 . S
C690 C685 1.350 . S
C691 H678 0.929 . S
C691 C683 1.433 . S
C691 N693 1.384 . S
N692 C688 1.427 . S
N692 C689 1.384 . S
N693 C685 1.427 . S
N693 C691 1.384 . S
H694 C700 0.930 . S
H695 C704 0.930 . S
H696 C709 0.929 . S
H697 C707 0.929 . S
H698 C702 0.929 . S
H699 C708 0.929 . S
C700 H694 0.930 . S
C700 C701 1.367 . S
C700 C708 1.378 . S
C701 C700 1.367 . S
C701 C709 1.433 . S
C702 H698 0.929 . S
C702 C704 1.378 . S
C702 C706 1.350 . S
C703 C706 1.463 . S
C703 C708 1.350 . S
C703 N711 1.427 . S
C704 H695 0.930 . S
C704 C702 1.378 . S
C704 C705 1.367 . S
C705 C704 1.367 . S
C705 C707 1.433 . S
C706 C702 1.350 . S
C706 C703 1.463 . S
C706 N710 1.427 . S
C707 H697 0.929 . S
C707 C705 1.433 . S
C707 N710 1.384 . S
C708 H699 0.929 . S
C708 C700 1.378 . S
C708 C703 1.350 . S
C709 H696 0.929 . S
C709 C701 1.433 . S
C709 N711 1.384 . S
N710 C706 1.427 . S
N710 C707 1.384 . S
N711 C703 1.427 . S
N711 C709 1.384 . S
H712 C718 0.930 . S
H713 C722 0.930 . S
H714 C727 0.929 . S
H715 C725 0.929 . S
H716 C720 0.929 . S
H717 C726 0.929 . S
C718 H712 0.930 . S
C718 C719 1.367 . S
C718 C726 1.378 . S
C719 C718 1.367 . S
C719 C727 1.433 . S
C720 H716 0.929 . S
C720 C722 1.378 . S
C720 C724 1.350 . S
C721 C724 1.463 . S
C721 C726 1.350 . S
C721 N729 1.427 . S
C722 H713 0.930 . S
C722 C720 1.378 . S
C722 C723 1.367 . S
C723 C722 1.367 . S
C723 C725 1.433 . S
C724 C720 1.350 . S
C724 C721 1.463 . S
C724 N728 1.427 . S
C725 H715 0.929 . S
C725 C723 1.433 . S
C725 N728 1.384 . S
C726 H717 0.929 . S
C726 C718 1.378 . S
C726 C721 1.350 . S
C727 H714 0.929 . S
C727 C719 1.433 . S
C727 N729 1.384 . S
N728 C724 1.427 . S
N728 C725 1.384 . S
N729 C721 1.427 . S
N729 C727 1.384 . S
H730 C736 0.930 . S
H731 C740 0.930 . S
H732 C745 0.929 . S
H733 C743 0.929 . S
H734 C738 0.929 . S
H735 C744 0.929 . S
C736 H730 0.930 . S
C736 C737 1.367 . S
C736 C744 1.378 . S
C737 C736 1.367 . S
C737 C745 1.433 . S
C738 H734 0.929 . S
C738 C740 1.378 . S
C738 C742 1.350 . S
C739 C742 1.463 . S
C739 C744 1.350 . S
C739 N747 1.427 . S
C740 H731 0.930 . S
C740 C738 1.378 . S
C740 C741 1.367 . S
C741 C740 1.367 . S
C741 C743 1.433 . S
C742 C738 1.350 . S
C742 C739 1.463 . S
C742 N746 1.427 . S
C743 H733 0.929 . S
C743 C741 1.433 . S
C743 N746 1.384 . S
C744 H735 0.929 . S
C744 C736 1.378 . S
C744 C739 1.350 . S
C745 H732 0.929 . S
C745 C737 1.433 . S
C745 N747 1.384 . S
N746 C742 1.427 . S
N746 C743 1.384 . S
N747 C739 1.427 . S
N747 C745 1.384 . S
H748 C754 0.930 . S
H749 C758 0.930 . S
H750 C763 0.929 . S
H751 C761 0.929 . S
H752 C756 0.929 . S
H753 C762 0.929 . S
C754 H748 0.930 . S
C754 C755 1.367 . S
C754 C762 1.378 . S
C755 C754 1.367 . S
C755 C763 1.433 . S
C756 H752 0.929 . S
C756 C758 1.378 . S
C756 C760 1.350 . S
C757 C760 1.463 . S
C757 C762 1.350 . S
C757 N765 1.427 . S
C758 H749 0.930 . S
C758 C756 1.378 . S
C758 C759 1.367 . S
C759 C758 1.367 . S
C759 C761 1.433 . S
C760 C756 1.350 . S
C760 C757 1.463 . S
C760 N764 1.427 . S
C761 H751 0.929 . S
C761 C759 1.433 . S
C761 N764 1.384 . S
C762 H753 0.929 . S
C762 C754 1.378 . S
C762 C757 1.350 . S
C763 H750 0.929 . S
C763 C755 1.433 . S
C763 N765 1.384 . S
N764 C760 1.427 . S
N764 C761 1.384 . S
N765 C757 1.427 . S
N765 C763 1.384 . S
H766 C772 0.930 . S
H767 C776 0.930 . S
H768 C781 0.929 . S
H769 C779 0.929 . S
H770 C774 0.929 . S
H771 C780 0.929 . S
C772 H766 0.930 . S
C772 C773 1.367 . S
C772 C780 1.378 . S
C773 C772 1.367 . S
C773 C781 1.433 . S
C774 H770 0.929 . S
C774 C776 1.378 . S
C774 C778 1.350 . S
C775 C778 1.463 . S
C775 C780 1.350 . S
C775 N783 1.427 . S
C776 H767 0.930 . S
C776 C774 1.378 . S
C776 C777 1.367 . S
C777 C776 1.367 . S
C777 C779 1.433 . S
C778 C774 1.350 . S
C778 C775 1.463 . S
C778 N782 1.427 . S
C779 H769 0.929 . S
C779 C777 1.433 . S
C779 N782 1.384 . S
C780 H771 0.929 . S
C780 C772 1.378 . S
C780 C775 1.350 . S
C781 H768 0.929 . S
C781 C773 1.433 . S
C781 N783 1.384 . S
N782 C778 1.427 . S
N782 C779 1.384 . S
N783 C775 1.427 . S
N783 C781 1.384 . S
H784 C790 0.930 . S
H785 C794 0.930 . S
H786 C799 0.929 1_545 S
H787 C797 0.929 1_565 S
H788 C792 0.929 . S
H789 C798 0.929 . S
C790 H784 0.930 . S
C790 C791 1.367 . S
C790 C798 1.378 . S
C791 C790 1.367 . S
C791 C799 1.433 . S
C792 H788 0.929 . S
C792 C794 1.378 . S
C792 C796 1.350 . S
C793 C796 1.463 1_565 S
C793 C798 1.350 . S
C793 N801 1.427 1_565 S
C794 H785 0.930 . S
C794 C792 1.378 . S
C794 C795 1.367 . S
C795 C794 1.367 . S
C795 C797 1.433 . S
C796 C792 1.350 . S
C796 C793 1.463 1_545 S
C796 N800 1.427 1_545 S
C797 H787 0.929 1_545 S
C797 C795 1.433 . S
C797 N800 1.384 1_545 S
C798 H789 0.929 . S
C798 C790 1.378 . S
C798 C793 1.350 . S
C799 H786 0.929 1_565 S
C799 C791 1.433 . S
C799 N801 1.384 1_565 S
N800 C796 1.427 1_565 S
N800 C797 1.384 1_565 S
N801 C793 1.427 1_545 S
N801 C799 1.384 1_545 S
H802 C808 0.930 . S
H803 C812 0.930 . S
H804 C817 0.929 1_565 S
H805 C815 0.929 1_545 S
H806 C810 0.929 . S
H807 C816 0.929 . S
C808 H802 0.930 . S
C808 C809 1.367 . S
C808 C816 1.378 . S
C809 C808 1.367 . S
C809 C817 1.433 . S
C810 H806 0.929 . S
C810 C812 1.378 . S
C810 C814 1.350 . S
C811 C814 1.463 1_545 S
C811 C816 1.350 . S
C811 N819 1.427 1_545 S
C812 H803 0.930 . S
C812 C810 1.378 . S
C812 C813 1.367 . S
C813 C812 1.367 . S
C813 C815 1.433 . S
C814 C810 1.350 . S
C814 C811 1.463 1_565 S
C814 N818 1.427 1_565 S
C815 H805 0.929 1_565 S
C815 C813 1.433 . S
C815 N818 1.384 1_565 S
C816 H807 0.929 . S
C816 C808 1.378 . S
C816 C811 1.350 . S
C817 H804 0.929 1_545 S
C817 C809 1.433 . S
C817 N819 1.384 1_545 S
N818 C814 1.427 1_545 S
N818 C815 1.384 1_545 S
N819 C811 1.427 1_565 S
N819 C817 1.384 1_565 S
H820 C826 0.930 . S
H821 C830 0.930 . S
H822 C835 0.929 . S
H823 C833 0.929 . S
H824 C828 0.929 . S
H825 C834 0.929 . S
C826 H820 0.930 . S
C826 C827 1.367 . S
C826 C834 1.378 . S
C827 C826 1.367 . S
C827 C835 1.433 . S
C828 H824 0.929 . S
C828 C830 1.378 . S
C828 C832 1.350 . S
C829 C832 1.463 1_545 S
C829 C834 1.350 . S
C829 N837 1.427 1_545 S
C830 H821 0.930 . S
C830 C828 1.378 . S
C830 C831 1.367 . S
C831 C830 1.367 . S
C831 C833 1.433 . S
C832 C828 1.350 . S
C832 C829 1.463 1_565 S
C832 N836 1.427 1_565 S
C833 H823 0.929 . S
C833 C831 1.433 . S
C833 N836 1.384 1_565 S
C834 H825 0.929 . S
C834 C826 1.378 . S
C834 C829 1.350 . S
C835 H822 0.929 . S
C835 C827 1.433 . S
C835 N837 1.384 1_545 S
N836 C832 1.427 1_545 S
N836 C833 1.384 1_545 S
N837 C829 1.427 1_565 S
N837 C835 1.384 1_565 S
H838 C844 0.930 . S
H839 C848 0.930 . S
H840 C853 0.929 . S
H841 C851 0.929 . S
H842 C846 0.929 . S
H843 C852 0.929 . S
C844 H838 0.930 . S
C844 C845 1.367 . S
C844 C852 1.378 1_545 S
C845 C844 1.367 . S
C845 C853 1.433 . S
C846 H842 0.929 . S
C846 C848 1.378 1_545 S
C846 C850 1.350 1_545 S
C847 C850 1.463 1_545 S
C847 C852 1.350 1_545 S
C847 N855 1.427 . S
C848 H839 0.930 . S
C848 C846 1.378 1_565 S
C848 C849 1.367 . S
C849 C848 1.367 . S
C849 C851 1.433 . S
C850 C846 1.350 1_565 S
C850 C847 1.463 1_565 S
C850 N854 1.427 . S
C851 H841 0.929 . S
C851 C849 1.433 . S
C851 N854 1.384 . S
C852 H843 0.929 . S
C852 C844 1.378 1_565 S
C852 C847 1.350 1_565 S
C853 H840 0.929 . S
C853 C845 1.433 . S
C853 N855 1.384 . S
N854 C850 1.427 . S
N854 C851 1.384 . S
N855 C847 1.427 . S
N855 C853 1.384 . S
H856 C862 0.930 . S
H857 C866 0.930 . S
H858 C871 0.929 . S
H859 C869 0.929 . S
H860 C864 0.929 . S
H861 C870 0.929 . S
C862 H856 0.930 . S
C862 C863 1.367 . S
C862 C870 1.378 . S
C863 C862 1.367 . S
C863 C871 1.433 . S
C864 H860 0.929 . S
C864 C866 1.378 . S
C864 C868 1.350 . S
C865 C868 1.463 . S
C865 C870 1.350 . S
C865 N873 1.427 . S
C866 H857 0.930 . S
C866 C864 1.378 . S
C866 C867 1.367 . S
C867 C866 1.367 . S
C867 C869 1.433 . S
C868 C864 1.350 . S
C868 C865 1.463 . S
C868 N872 1.427 . S
C869 H859 0.929 . S
C869 C867 1.433 . S
C869 N872 1.384 . S
C870 H861 0.929 . S
C870 C862 1.378 . S
C870 C865 1.350 . S
C871 H858 0.929 . S
C871 C863 1.433 . S
C871 N873 1.384 . S
N872 C868 1.427 . S
N872 C869 1.384 . S
N873 C865 1.427 . S
N873 C871 1.384 . S
H874 C880 0.930 . S
H875 C884 0.930 . S
H876 C889 0.929 . S
H877 C887 0.929 . S
H878 C882 0.929 . S
H879 C888 0.929 . S
C880 H874 0.930 . S
C880 C881 1.367 . S
C880 C888 1.378 . S
C881 C880 1.367 . S
C881 C889 1.433 . S
C882 H878 0.929 . S
C882 C884 1.378 . S
C882 C886 1.350 . S
C883 C886 1.463 . S
C883 C888 1.350 . S
C883 N891 1.427 . S
C884 H875 0.930 . S
C884 C882 1.378 . S
C884 C885 1.367 . S
C885 C884 1.367 . S
C885 C887 1.433 . S
C886 C882 1.350 . S
C886 C883 1.463 . S
C886 N890 1.427 . S
C887 H877 0.929 . S
C887 C885 1.433 . S
C887 N890 1.384 . S
C888 H879 0.929 . S
C888 C880 1.378 . S
C888 C883 1.350 . S
C889 H876 0.929 . S
C889 C881 1.433 . S
C889 N891 1.384 . S
N890 C886 1.427 . S
N890 C887 1.384 . S
N891 C883 1.427 . S
N891 C889 1.384 . S
H892 C898 0.930 . S
H893 C902 0.930 . S
H894 C907 0.929 . S
H895 C905 0.929 . S
H896 C900 0.929 . S
H897 C906 0.929 . S
C898 H892 0.930 . S
C898 C899 1.367 . S
C898 C906 1.378 . S
C899 C898 1.367 . S
C899 C907 1.433 . S
C900 H896 0.929 . S
C900 C902 1.378 . S
C900 C904 1.350 . S
C901 C904 1.463 . S
C901 C906 1.350 . S
C901 N909 1.427 . S
C902 H893 0.930 . S
C902 C900 1.378 . S
C902 C903 1.367 . S
C903 C902 1.367 . S
C903 C905 1.433 . S
C904 C900 1.350 . S
C904 C901 1.463 . S
C904 N908 1.427 . S
C905 H895 0.929 . S
C905 C903 1.433 . S
C905 N908 1.384 . S
C906 H897 0.929 . S
C906 C898 1.378 . S
C906 C901 1.350 . S
C907 H894 0.929 . S
C907 C899 1.433 . S
C907 N909 1.384 . S
N908 C904 1.427 . S
N908 C905 1.384 . S
N909 C901 1.427 . S
N909 C907 1.384 . S
H910 C916 0.930 . S
H911 C920 0.930 . S
H912 C925 0.929 . S
H913 C923 0.929 . S
H914 C918 0.929 . S
H915 C924 0.929 . S
C916 H910 0.930 . S
C916 C917 1.367 . S
C916 C924 1.378 . S
C917 C916 1.367 . S
C917 C925 1.433 . S
C918 H914 0.929 . S
C918 C920 1.378 . S
C918 C922 1.350 . S
C919 C922 1.463 . S
C919 C924 1.350 . S
C919 N927 1.427 . S
C920 H911 0.930 . S
C920 C918 1.378 . S
C920 C921 1.367 . S
C921 C920 1.367 . S
C921 C923 1.433 . S
C922 C918 1.350 . S
C922 C919 1.463 . S
C922 N926 1.427 . S
C923 H913 0.929 . S
C923 C921 1.433 . S
C923 N926 1.384 . S
C924 H915 0.929 . S
C924 C916 1.378 . S
C924 C919 1.350 . S
C925 H912 0.929 . S
C925 C917 1.433 . S
C925 N927 1.384 . S
N926 C922 1.427 . S
N926 C923 1.384 . S
N927 C919 1.427 . S
N927 C925 1.384 . S
H928 C934 0.930 . S
H929 C938 0.930 . S
H930 C943 0.929 . S
H931 C941 0.929 . S
H932 C936 0.929 . S
H933 C942 0.929 . S
C934 H928 0.930 . S
C934 C935 1.367 . S
C934 C942 1.378 . S
C935 C934 1.367 . S
C935 C943 1.433 . S
C936 H932 0.929 . S
C936 C938 1.378 . S
C936 C940 1.350 . S
C937 C940 1.463 1_556 S
C937 C942 1.350 . S
C937 N945 1.427 . S
C938 H929 0.930 . S
C938 C936 1.378 . S
C938 C939 1.367 . S
C939 C938 1.367 . S
C939 C941 1.433 . S
C940 C936 1.350 . S
C940 C937 1.463 1_554 S
C940 N944 1.427 . S
C941 H931 0.929 . S
C941 C939 1.433 . S
C941 N944 1.384 . S
C942 H933 0.929 . S
C942 C934 1.378 . S
C942 C937 1.350 . S
C943 H930 0.929 . S
C943 C935 1.433 . S
C943 N945 1.384 . S
N944 C940 1.427 . S
N944 C941 1.384 . S
N945 C937 1.427 . S
N945 C943 1.384 . S
H946 C952 0.930 . S
H947 C956 0.930 . S
H948 C961 0.929 . S
H949 C959 0.929 . S
H950 C954 0.929 . S
H951 C960 0.929 . S
C952 H946 0.930 . S
C952 C953 1.367 . S
C952 C960 1.378 . S
C953 C952 1.367 . S
C953 C961 1.433 . S
C954 H950 0.929 . S
C954 C956 1.378 . S
C954 C958 1.350 . S
C955 C958 1.463 1_556 S
C955 C960 1.350 . S
C955 N963 1.427 . S
C956 H947 0.930 . S
C956 C954 1.378 . S
C956 C957 1.367 . S
C957 C956 1.367 . S
C957 C959 1.433 . S
C958 C954 1.350 . S
C958 C955 1.463 1_554 S
C958 N962 1.427 . S
C959 H949 0.929 . S
C959 C957 1.433 . S
C959 N962 1.384 . S
C960 H951 0.929 . S
C960 C952 1.378 . S
C960 C955 1.350 . S
C961 H948 0.929 . S
C961 C953 1.433 . S
C961 N963 1.384 . S
N962 C958 1.427 . S
N962 C959 1.384 . S
N963 C955 1.427 . S
N963 C961 1.384 . S
H964 C970 0.930 . S
H965 C974 0.930 . S
H966 C979 0.929 . S
H967 C977 0.929 . S
H968 C972 0.929 . S
H969 C978 0.929 . S
C970 H964 0.930 . S
C970 C971 1.367 . S
C970 C978 1.378 . S
C971 C970 1.367 . S
C971 C979 1.433 . S
C972 H968 0.929 . S
C972 C974 1.378 . S
C972 C976 1.350 . S
C973 C976 1.463 . S
C973 C978 1.350 . S
C973 N981 1.427 . S
C974 H965 0.930 . S
C974 C972 1.378 . S
C974 C975 1.367 . S
C975 C974 1.367 . S
C975 C977 1.433 . S
C976 C972 1.350 . S
C976 C973 1.463 . S
C976 N980 1.427 . S
C977 H967 0.929 . S
C977 C975 1.433 . S
C977 N980 1.384 . S
C978 H969 0.929 . S
C978 C970 1.378 . S
C978 C973 1.350 . S
C979 H966 0.929 . S
C979 C971 1.433 . S
C979 N981 1.384 . S
N980 C976 1.427 . S
N980 C977 1.384 . S
N981 C973 1.427 . S
N981 C979 1.384 . S
H982 C988 0.930 . S
H983 C992 0.930 . S
H984 C997 0.929 . S
H985 C995 0.929 . S
H986 C990 0.929 . S
H987 C996 0.929 . S
C988 H982 0.930 . S
C988 C989 1.367 . S
C988 C996 1.378 . S
C989 C988 1.367 . S
C989 C997 1.433 . S
C990 H986 0.929 . S
C990 C992 1.378 . S
C990 C994 1.350 . S
C991 C994 1.463 . S
C991 C996 1.350 . S
C991 N999 1.427 . S
C992 H983 0.930 . S
C992 C990 1.378 . S
C992 C993 1.367 . S
C993 C992 1.367 . S
C993 C995 1.433 . S
C994 C990 1.350 . S
C994 C991 1.463 . S
C994 N998 1.427 . S
C995 H985 0.929 . S
C995 C993 1.433 . S
C995 N998 1.384 . S
C996 H987 0.929 . S
C996 C988 1.378 . S
C996 C991 1.350 . S
C997 H984 0.929 . S
C997 C989 1.433 . S
C997 N999 1.384 . S
N998 C994 1.427 . S
N998 C995 1.384 . S
N999 C991 1.427 . S
N999 C997 1.384 . S
H1000 C1006 0.930 . S
H1001 C1010 0.930 . S
H1002 C1015 0.929 . S
H1003 C1013 0.929 . S
H1004 C1008 0.929 . S
H1005 C1014 0.929 . S
C1006 H1000 0.930 . S
C1006 C1007 1.367 . S
C1006 C1014 1.378 . S
C1007 C1006 1.367 . S
C1007 C1015 1.433 . S
C1008 H1004 0.929 . S
C1008 C1010 1.378 . S
C1008 C1012 1.350 . S
C1009 C1012 1.463 1_554 S
C1009 C1014 1.350 . S
C1009 N1017 1.427 . S
C1010 H1001 0.930 . S
C1010 C1008 1.378 . S
C1010 C1011 1.367 . S
C1011 C1010 1.367 . S
C1011 C1013 1.433 . S
C1012 C1008 1.350 . S
C1012 C1009 1.463 1_556 S
C1012 N1016 1.427 . S
C1013 H1003 0.929 . S
C1013 C1011 1.433 . S
C1013 N1016 1.384 . S
C1014 H1005 0.929 . S
C1014 C1006 1.378 . S
C1014 C1009 1.350 . S
C1015 H1002 0.929 . S
C1015 C1007 1.433 . S
C1015 N1017 1.384 . S
N1016 C1012 1.427 . S
N1016 C1013 1.384 . S
N1017 C1009 1.427 . S
N1017 C1015 1.384 . S
H1018 C1024 0.930 . S
H1019 C1028 0.930 . S
H1020 C1033 0.929 . S
H1021 C1031 0.929 . S
H1022 C1026 0.929 . S
H1023 C1032 0.929 . S
C1024 H1018 0.930 . S
C1024 C1025 1.367 . S
C1024 C1032 1.378 . S
C1025 C1024 1.367 . S
C1025 C1033 1.433 . S
C1026 H1022 0.929 . S
C1026 C1028 1.378 . S
C1026 C1030 1.350 . S
C1027 C1030 1.463 1_556 S
C1027 C1032 1.350 . S
C1027 N1035 1.427 . S
C1028 H1019 0.930 . S
C1028 C1026 1.378 . S
C1028 C1029 1.367 . S
C1029 C1028 1.367 . S
C1029 C1031 1.433 . S
C1030 C1026 1.350 . S
C1030 C1027 1.463 1_554 S
C1030 N1034 1.427 . S
C1031 H1021 0.929 . S
C1031 C1029 1.433 . S
C1031 N1034 1.384 . S
C1032 H1023 0.929 . S
C1032 C1024 1.378 . S
C1032 C1027 1.350 . S
C1033 H1020 0.929 . S
C1033 C1025 1.433 . S
C1033 N1035 1.384 . S
N1034 C1030 1.427 . S
N1034 C1031 1.384 . S
N1035 C1027 1.427 . S
N1035 C1033 1.384 . S
H1036 C1042 0.930 . S
H1037 C1046 0.930 . S
H1038 C1051 0.929 . S
H1039 C1049 0.929 . S
H1040 C1044 0.929 . S
H1041 C1050 0.929 . S
C1042 H1036 0.930 . S
C1042 C1043 1.367 . S
C1042 C1050 1.378 . S
C1043 C1042 1.367 . S
C1043 C1051 1.433 . S
C1044 H1040 0.929 . S
C1044 C1046 1.378 . S
C1044 C1048 1.350 . S
C1045 C1048 1.463 . S
C1045 C1050 1.350 . S
C1045 N1053 1.427 . S
C1046 H1037 0.930 . S
C1046 C1044 1.378 . S
C1046 C1047 1.367 . S
C1047 C1046 1.367 . S
C1047 C1049 1.433 . S
C1048 C1044 1.350 . S
C1048 C1045 1.463 . S
C1048 N1052 1.427 . S
C1049 H1039 0.929 . S
C1049 C1047 1.433 . S
C1049 N1052 1.384 . S
C1050 H1041 0.929 . S
C1050 C1042 1.378 . S
C1050 C1045 1.350 . S
C1051 H1038 0.929 . S
C1051 C1043 1.433 . S
C1051 N1053 1.384 . S
N1052 C1048 1.427 . S
N1052 C1049 1.384 . S
N1053 C1045 1.427 . S
N1053 C1051 1.384 . S
H1054 C1060 0.930 . S
H1055 C1064 0.930 . S
H1056 C1069 0.929 . S
H1057 C1067 0.929 . S
H1058 C1062 0.929 . S
H1059 C1068 0.929 . S
C1060 H1054 0.930 . S
C1060 C1061 1.367 . S
C1060 C1068 1.378 . S
C1061 C1060 1.367 . S
C1061 C1069 1.433 . S
C1062 H1058 0.929 . S
C1062 C1064 1.378 . S
C1062 C1066 1.350 . S
C1063 C1066 1.463 . S
C1063 C1068 1.350 . S
C1063 N1071 1.427 . S
C1064 H1055 0.930 . S
C1064 C1062 1.378 . S
C1064 C1065 1.367 . S
C1065 C1064 1.367 . S
C1065 C1067 1.433 . S
C1066 C1062 1.350 . S
C1066 C1063 1.463 . S
C1066 N1070 1.427 . S
C1067 H1057 0.929 . S
C1067 C1065 1.433 . S
C1067 N1070 1.384 . S
C1068 H1059 0.929 . S
C1068 C1060 1.378 . S
C1068 C1063 1.350 . S
C1069 H1056 0.929 . S
C1069 C1061 1.433 . S
C1069 N1071 1.384 . S
N1070 C1066 1.427 . S
N1070 C1067 1.384 . S
N1071 C1063 1.427 . S
N1071 C1069 1.384 . S
H1072 C1078 0.930 . S
H1073 C1082 0.930 . S
H1074 C1087 0.929 . S
H1075 C1085 0.929 . S
H1076 C1080 0.930 . S
H1077 C1086 0.930 . S
C1078 H1072 0.930 . S
C1078 C1079 1.367 . S
C1078 C1086 1.377 1_565 S
C1079 C1078 1.367 . S
C1079 C1087 1.433 . S
C1080 H1076 0.930 . S
C1080 C1082 1.377 1_565 S
C1080 C1084 1.349 1_565 S
C1081 C1084 1.463 1_665 S
C1081 C1086 1.349 1_565 S
C1081 N1089 1.427 . S
C1082 H1073 0.930 . S
C1082 C1080 1.377 1_545 S
C1082 C1083 1.367 . S
C1083 C1082 1.367 . S
C1083 C1085 1.433 . S
C1084 C1080 1.349 1_545 S
C1084 C1081 1.463 1_445 S
C1084 N1088 1.427 . S
C1085 H1075 0.929 . S
C1085 C1083 1.433 . S
C1085 N1088 1.384 . S
C1086 H1077 0.930 . S
C1086 C1078 1.377 1_545 S
C1086 C1081 1.349 1_545 S
C1087 H1074 0.929 . S
C1087 C1079 1.433 . S
C1087 N1089 1.384 . S
N1088 C1084 1.427 . S
N1088 C1085 1.384 . S
N1089 C1081 1.427 . S
N1089 C1087 1.384 . S
H1090 C1096 0.930 . S
H1091 C1100 0.930 . S
H1092 C1105 0.929 . S
H1093 C1103 0.929 . S
H1094 C1098 0.929 . S
H1095 C1104 0.929 . S
C1096 H1090 0.930 . S
C1096 C1097 1.367 . S
C1096 C1104 1.378 . S
C1097 C1096 1.367 . S
C1097 C1105 1.433 1_545 S
C1098 H1094 0.929 . S
C1098 C1100 1.378 . S
C1098 C1102 1.350 . S
C1099 C1102 1.463 1_645 S
C1099 C1104 1.350 . S
C1099 N1107 1.427 1_545 S
C1100 H1091 0.930 . S
C1100 C1098 1.378 . S
C1100 C1101 1.367 . S
C1101 C1100 1.367 . S
C1101 C1103 1.433 1_565 S
C1102 C1098 1.350 . S
C1102 C1099 1.463 1_465 S
C1102 N1106 1.427 1_565 S
C1103 H1093 0.929 . S
C1103 C1101 1.433 1_545 S
C1103 N1106 1.384 . S
C1104 H1095 0.929 . S
C1104 C1096 1.378 . S
C1104 C1099 1.350 . S
C1105 H1092 0.929 . S
C1105 C1097 1.433 1_565 S
C1105 N1107 1.384 . S
N1106 C1102 1.427 1_545 S
N1106 C1103 1.384 . S
N1107 C1099 1.427 1_565 S
N1107 C1105 1.384 . S
H1108 C1114 0.930 . S
H1109 C1118 0.930 . S
H1110 C1123 0.934 . S
H1111 C1121 0.934 . S
H1112 C1116 0.929 . S
H1113 C1122 0.929 . S
C1114 H1108 0.930 . S
C1114 C1115 1.367 . S
C1114 C1122 1.378 . S
C1115 C1114 1.367 . S
C1115 C1123 1.425 1_545 S
C1116 H1112 0.929 . S
C1116 C1118 1.378 . S
C1116 C1120 1.350 . S
C1117 C1120 1.463 1_445 S
C1117 C1122 1.350 . S
C1117 N1125 1.427 1_545 S
C1118 H1109 0.930 . S
C1118 C1116 1.378 . S
C1118 C1119 1.367 . S
C1119 C1118 1.367 . S
C1119 C1121 1.425 1_565 S
C1120 C1116 1.350 . S
C1120 C1117 1.463 1_665 S
C1120 N1124 1.427 1_565 S
C1121 H1111 0.934 . S
C1121 C1119 1.425 1_545 S
C1121 N1124 1.387 . S
C1122 H1113 0.929 . S
C1122 C1114 1.378 . S
C1122 C1117 1.350 . S
C1123 H1110 0.934 . S
C1123 C1115 1.425 1_565 S
C1123 N1125 1.387 . S
N1124 C1120 1.427 1_545 S
N1124 C1121 1.387 . S
N1125 C1117 1.427 1_565 S
N1125 C1123 1.387 . S
H1126 C1132 0.930 . S
H1127 C1136 0.930 . S
H1128 C1141 0.929 . S
H1129 C1139 0.929 . S
H1130 C1134 0.929 . S
H1131 C1140 0.929 . S
C1132 H1126 0.930 . S
C1132 C1133 1.367 . S
C1132 C1140 1.378 . S
C1133 C1132 1.367 . S
C1133 C1141 1.433 1_545 S
C1134 H1130 0.929 . S
C1134 C1136 1.378 . S
C1134 C1138 1.350 . S
C1135 C1138 1.463 1_645 S
C1135 C1140 1.350 . S
C1135 N1143 1.427 1_545 S
C1136 H1127 0.930 . S
C1136 C1134 1.378 . S
C1136 C1137 1.367 . S
C1137 C1136 1.367 . S
C1137 C1139 1.433 1_565 S
C1138 C1134 1.350 . S
C1138 C1135 1.463 1_465 S
C1138 N1142 1.427 1_565 S
C1139 H1129 0.929 . S
C1139 C1137 1.433 1_545 S
C1139 N1142 1.384 . S
C1140 H1131 0.929 . S
C1140 C1132 1.378 . S
C1140 C1135 1.350 . S
C1141 H1128 0.929 . S
C1141 C1133 1.433 1_565 S
C1141 N1143 1.384 . S
N1142 C1138 1.427 1_545 S
N1142 C1139 1.384 . S
N1143 C1135 1.427 1_565 S
N1143 C1141 1.384 . S
H1144 C1150 0.930 . S
H1145 C1154 0.930 . S
H1146 C1159 0.929 . S
H1147 C1157 0.929 . S
H1148 C1152 0.929 . S
H1149 C1158 0.929 . S
C1150 H1144 0.930 . S
C1150 C1151 1.367 . S
C1150 C1158 1.378 . S
C1151 C1150 1.367 . S
C1151 C1159 1.433 . S
C1152 H1148 0.929 . S
C1152 C1154 1.378 . S
C1152 C1156 1.350 . S
C1153 C1156 1.463 . S
C1153 C1158 1.350 . S
C1153 N1161 1.427 . S
C1154 H1145 0.930 . S
C1154 C1152 1.378 . S
C1154 C1155 1.367 . S
C1155 C1154 1.367 . S
C1155 C1157 1.433 . S
C1156 C1152 1.350 . S
C1156 C1153 1.463 . S
C1156 N1160 1.427 . S
C1157 H1147 0.929 . S
C1157 C1155 1.433 . S
C1157 N1160 1.384 . S
C1158 H1149 0.929 . S
C1158 C1150 1.378 . S
C1158 C1153 1.350 . S
C1159 H1146 0.929 . S
C1159 C1151 1.433 . S
C1159 N1161 1.384 . S
N1160 C1156 1.427 . S
N1160 C1157 1.384 . S
N1161 C1153 1.427 . S
N1161 C1159 1.384 . S
H1162 C1168 0.930 . S
H1163 C1172 0.930 . S
H1164 C1177 0.929 . S
H1165 C1175 0.929 . S
H1166 C1170 0.929 . S
H1167 C1176 0.929 . S
C1168 H1162 0.930 . S
C1168 C1169 1.367 . S
C1168 C1176 1.378 . S
C1169 C1168 1.367 . S
C1169 C1177 1.433 . S
C1170 H1166 0.929 . S
C1170 C1172 1.378 . S
C1170 C1174 1.350 . S
C1171 C1174 1.463 . S
C1171 C1176 1.350 . S
C1171 N1179 1.427 . S
C1172 H1163 0.930 . S
C1172 C1170 1.378 . S
C1172 C1173 1.367 . S
C1173 C1172 1.367 . S
C1173 C1175 1.433 . S
C1174 C1170 1.350 . S
C1174 C1171 1.463 . S
C1174 N1178 1.427 . S
C1175 H1165 0.929 . S
C1175 C1173 1.433 . S
C1175 N1178 1.384 . S
C1176 H1167 0.929 . S
C1176 C1168 1.378 . S
C1176 C1171 1.350 . S
C1177 H1164 0.929 . S
C1177 C1169 1.433 . S
C1177 N1179 1.384 . S
N1178 C1174 1.427 . S
N1178 C1175 1.384 . S
N1179 C1171 1.427 . S
N1179 C1177 1.384 . S
H1180 C1186 0.930 . S
H1181 C1190 0.930 . S
H1182 C1195 0.929 . S
H1183 C1193 0.929 . S
H1184 C1188 0.929 . S
H1185 C1194 0.929 . S
C1186 H1180 0.930 . S
C1186 C1187 1.367 . S
C1186 C1194 1.378 . S
C1187 C1186 1.367 . S
C1187 C1195 1.433 . S
C1188 H1184 0.929 . S
C1188 C1190 1.378 . S
C1188 C1192 1.350 . S
C1189 C1192 1.463 . S
C1189 C1194 1.350 . S
C1189 N1197 1.427 . S
C1190 H1181 0.930 . S
C1190 C1188 1.378 . S
C1190 C1191 1.367 . S
C1191 C1190 1.367 . S
C1191 C1193 1.433 . S
C1192 C1188 1.350 . S
C1192 C1189 1.463 . S
C1192 N1196 1.427 . S
C1193 H1183 0.929 . S
C1193 C1191 1.433 . S
C1193 N1196 1.384 . S
C1194 H1185 0.929 . S
C1194 C1186 1.378 . S
C1194 C1189 1.350 . S
C1195 H1182 0.929 . S
C1195 C1187 1.433 . S
C1195 N1197 1.384 . S
N1196 C1192 1.427 . S
N1196 C1193 1.384 . S
N1197 C1189 1.427 . S
N1197 C1195 1.384 . S
H1198 C1204 0.930 . S
H1199 C1208 0.930 . S
H1200 C1213 0.929 . S
H1201 C1211 0.929 . S
H1202 C1206 0.929 . S
H1203 C1212 0.929 . S
C1204 H1198 0.930 . S
C1204 C1205 1.367 . S
C1204 C1212 1.378 . S
C1205 C1204 1.367 . S
C1205 C1213 1.433 . S
C1206 H1202 0.929 . S
C1206 C1208 1.378 . S
C1206 C1210 1.350 . S
C1207 C1210 1.463 . S
C1207 C1212 1.350 . S
C1207 N1215 1.427 . S
C1208 H1199 0.930 . S
C1208 C1206 1.378 . S
C1208 C1209 1.367 . S
C1209 C1208 1.367 . S
C1209 C1211 1.433 . S
C1210 C1206 1.350 . S
C1210 C1207 1.463 . S
C1210 N1214 1.427 . S
C1211 H1201 0.929 . S
C1211 C1209 1.433 . S
C1211 N1214 1.384 . S
C1212 H1203 0.929 . S
C1212 C1204 1.378 . S
C1212 C1207 1.350 . S
C1213 H1200 0.929 . S
C1213 C1205 1.433 . S
C1213 N1215 1.384 . S
N1214 C1210 1.427 . S
N1214 C1211 1.384 . S
N1215 C1207 1.427 . S
N1215 C1213 1.384 . S
H1216 C1222 0.930 . S
H1217 C1226 0.930 . S
H1218 C1231 0.929 . S
H1219 C1229 0.929 . S
H1220 C1224 0.929 . S
H1221 C1230 0.929 . S
C1222 H1216 0.930 . S
C1222 C1223 1.367 . S
C1222 C1230 1.378 . S
C1223 C1222 1.367 . S
C1223 C1231 1.433 . S
C1224 H1220 0.929 . S
C1224 C1226 1.378 . S
C1224 C1228 1.350 . S
C1225 C1228 1.463 . S
C1225 C1230 1.350 . S
C1225 N1233 1.427 . S
C1226 H1217 0.930 . S
C1226 C1224 1.378 . S
C1226 C1227 1.367 . S
C1227 C1226 1.367 . S
C1227 C1229 1.433 . S
C1228 C1224 1.350 . S
C1228 C1225 1.463 . S
C1228 N1232 1.427 . S
C1229 H1219 0.929 . S
C1229 C1227 1.433 . S
C1229 N1232 1.384 . S
C1230 H1221 0.929 . S
C1230 C1222 1.378 . S
C1230 C1225 1.350 . S
C1231 H1218 0.929 . S
C1231 C1223 1.433 . S
C1231 N1233 1.384 . S
N1232 C1228 1.427 . S
N1232 C1229 1.384 . S
N1233 C1225 1.427 . S
N1233 C1231 1.384 . S
H1234 C1240 0.930 . S
H1235 C1244 0.930 . S
H1236 C1249 0.929 . S
H1237 C1247 0.929 . S
H1238 C1242 0.929 . S
H1239 C1248 0.929 . S
C1240 H1234 0.930 . S
C1240 C1241 1.367 . S
C1240 C1248 1.378 . S
C1241 C1240 1.367 . S
C1241 C1249 1.433 . S
C1242 H1238 0.929 . S
C1242 C1244 1.378 . S
C1242 C1246 1.350 . S
C1243 C1246 1.463 . S
C1243 C1248 1.350 . S
C1243 N1251 1.427 . S
C1244 H1235 0.930 . S
C1244 C1242 1.378 . S
C1244 C1245 1.367 . S
C1245 C1244 1.367 . S
C1245 C1247 1.433 . S
C1246 C1242 1.350 . S
C1246 C1243 1.463 . S
C1246 N1250 1.427 . S
C1247 H1237 0.929 . S
C1247 C1245 1.433 . S
C1247 N1250 1.384 . S
C1248 H1239 0.929 . S
C1248 C1240 1.378 . S
C1248 C1243 1.350 . S
C1249 H1236 0.929 . S
C1249 C1241 1.433 . S
C1249 N1251 1.384 . S
N1250 C1246 1.427 . S
N1250 C1247 1.384 . S
N1251 C1243 1.427 . S
N1251 C1249 1.384 . S
H1252 C1258 0.930 . S
H1253 C1262 0.930 . S
H1254 C1267 0.929 . S
H1255 C1265 0.929 . S
H1256 C1260 0.929 . S
H1257 C1266 0.929 . S
C1258 H1252 0.930 . S
C1258 C1259 1.367 . S
C1258 C1266 1.378 . S
C1259 C1258 1.367 . S
C1259 C1267 1.433 . S
C1260 H1256 0.929 . S
C1260 C1262 1.378 . S
C1260 C1264 1.350 . S
C1261 C1264 1.463 . S
C1261 C1266 1.350 . S
C1261 N1269 1.427 . S
C1262 H1253 0.930 . S
C1262 C1260 1.378 . S
C1262 C1263 1.367 . S
C1263 C1262 1.367 . S
C1263 C1265 1.433 . S
C1264 C1260 1.350 . S
C1264 C1261 1.463 . S
C1264 N1268 1.427 . S
C1265 H1255 0.929 . S
C1265 C1263 1.433 . S
C1265 N1268 1.384 . S
C1266 H1257 0.929 . S
C1266 C1258 1.378 . S
C1266 C1261 1.350 . S
C1267 H1254 0.929 . S
C1267 C1259 1.433 . S
C1267 N1269 1.384 . S
N1268 C1264 1.427 . S
N1268 C1265 1.384 . S
N1269 C1261 1.427 . S
N1269 C1267 1.384 . S
H1270 C1276 0.930 . S
H1271 C1280 0.930 . S
H1272 C1285 0.929 . S
H1273 C1283 0.929 . S
H1274 C1278 0.929 . S
H1275 C1284 0.929 . S
C1276 H1270 0.930 . S
C1276 C1277 1.367 . S
C1276 C1284 1.378 . S
C1277 C1276 1.367 . S
C1277 C1285 1.433 . S
C1278 H1274 0.929 . S
C1278 C1280 1.378 . S
C1278 C1282 1.350 . S
C1279 C1282 1.463 . S
C1279 C1284 1.350 . S
C1279 N1287 1.427 . S
C1280 H1271 0.930 . S
C1280 C1278 1.378 . S
C1280 C1281 1.367 . S
C1281 C1280 1.367 . S
C1281 C1283 1.433 . S
C1282 C1278 1.350 . S
C1282 C1279 1.463 . S
C1282 N1286 1.427 . S
C1283 H1273 0.929 . S
C1283 C1281 1.433 . S
C1283 N1286 1.384 . S
C1284 H1275 0.929 . S
C1284 C1276 1.378 . S
C1284 C1279 1.350 . S
C1285 H1272 0.929 . S
C1285 C1277 1.433 . S
C1285 N1287 1.384 . S
N1286 C1282 1.427 . S
N1286 C1283 1.384 . S
N1287 C1279 1.427 . S
N1287 C1285 1.384 . S
H1288 C1294 0.930 . S
H1289 C1298 0.930 . S
H1290 C1303 0.929 . S
H1291 C1301 0.929 . S
H1292 C1296 0.929 . S
H1293 C1302 0.929 . S
C1294 H1288 0.930 . S
C1294 C1295 1.367 . S
C1294 C1302 1.378 . S
C1295 C1294 1.367 . S
C1295 C1303 1.433 . S
C1296 H1292 0.929 . S
C1296 C1298 1.378 . S
C1296 C1300 1.350 . S
C1297 C1300 1.463 . S
C1297 C1302 1.350 . S
C1297 N1305 1.427 . S
C1298 H1289 0.930 . S
C1298 C1296 1.378 . S
C1298 C1299 1.367 . S
C1299 C1298 1.367 . S
C1299 C1301 1.433 . S
C1300 C1296 1.350 . S
C1300 C1297 1.463 . S
C1300 N1304 1.427 . S
C1301 H1291 0.929 . S
C1301 C1299 1.433 . S
C1301 N1304 1.384 . S
C1302 H1293 0.929 . S
C1302 C1294 1.378 . S
C1302 C1297 1.350 . S
C1303 H1290 0.929 . S
C1303 C1295 1.433 . S
C1303 N1305 1.384 . S
N1304 C1300 1.427 . S
N1304 C1301 1.384 . S
N1305 C1297 1.427 . S
N1305 C1303 1.384 . S
H1306 C1312 0.930 . S
H1307 C1316 0.930 . S
H1308 C1321 0.929 . S
H1309 C1319 0.929 . S
H1310 C1314 0.929 . S
H1311 C1320 0.929 . S
C1312 H1306 0.930 . S
C1312 C1313 1.367 . S
C1312 C1320 1.378 . S
C1313 C1312 1.367 . S
C1313 C1321 1.433 . S
C1314 H1310 0.929 . S
C1314 C1316 1.378 . S
C1314 C1318 1.350 . S
C1315 C1318 1.463 . S
C1315 C1320 1.350 . S
C1315 N1323 1.427 . S
C1316 H1307 0.930 . S
C1316 C1314 1.378 . S
C1316 C1317 1.367 . S
C1317 C1316 1.367 . S
C1317 C1319 1.433 . S
C1318 C1314 1.350 . S
C1318 C1315 1.463 . S
C1318 N1322 1.427 . S
C1319 H1309 0.929 . S
C1319 C1317 1.433 . S
C1319 N1322 1.384 . S
C1320 H1311 0.929 . S
C1320 C1312 1.378 . S
C1320 C1315 1.350 . S
C1321 H1308 0.929 . S
C1321 C1313 1.433 . S
C1321 N1323 1.384 . S
N1322 C1318 1.427 . S
N1322 C1319 1.384 . S
N1323 C1315 1.427 . S
N1323 C1321 1.384 . S
H1324 C1330 0.930 . S
H1325 C1334 0.930 . S
H1326 C1339 0.929 . S
H1327 C1337 0.929 . S
H1328 C1332 0.929 . S
H1329 C1338 0.929 . S
C1330 H1324 0.930 . S
C1330 C1331 1.367 . S
C1330 C1338 1.378 . S
C1331 C1330 1.367 . S
C1331 C1339 1.433 . S
C1332 H1328 0.929 . S
C1332 C1334 1.378 . S
C1332 C1336 1.350 . S
C1333 C1336 1.463 . S
C1333 C1338 1.350 . S
C1333 N1341 1.427 . S
C1334 H1325 0.930 . S
C1334 C1332 1.378 . S
C1334 C1335 1.367 . S
C1335 C1334 1.367 . S
C1335 C1337 1.433 . S
C1336 C1332 1.350 . S
C1336 C1333 1.463 . S
C1336 N1340 1.427 . S
C1337 H1327 0.929 . S
C1337 C1335 1.433 . S
C1337 N1340 1.384 . S
C1338 H1329 0.929 . S
C1338 C1330 1.378 . S
C1338 C1333 1.350 . S
C1339 H1326 0.929 . S
C1339 C1331 1.433 . S
C1339 N1341 1.384 . S
N1340 C1336 1.427 . S
N1340 C1337 1.384 . S
N1341 C1333 1.427 . S
N1341 C1339 1.384 . S
H1342 C1348 0.930 . S
H1343 C1352 0.930 . S
H1344 C1357 0.929 . S
H1345 C1355 0.929 . S
H1346 C1350 0.929 . S
H1347 C1356 0.929 . S
C1348 H1342 0.930 . S
C1348 C1349 1.367 . S
C1348 C1356 1.378 . S
C1349 C1348 1.367 . S
C1349 C1357 1.433 . S
C1350 H1346 0.929 . S
C1350 C1352 1.378 . S
C1350 C1354 1.350 . S
C1351 C1354 1.463 . S
C1351 C1356 1.350 . S
C1351 N1359 1.427 . S
C1352 H1343 0.930 . S
C1352 C1350 1.378 . S
C1352 C1353 1.367 . S
C1353 C1352 1.367 . S
C1353 C1355 1.433 . S
C1354 C1350 1.350 . S
C1354 C1351 1.463 . S
C1354 N1358 1.427 . S
C1355 H1345 0.929 . S
C1355 C1353 1.433 . S
C1355 N1358 1.384 . S
C1356 H1347 0.929 . S
C1356 C1348 1.378 . S
C1356 C1351 1.350 . S
C1357 H1344 0.929 . S
C1357 C1349 1.433 . S
C1357 N1359 1.384 . S
N1358 C1354 1.427 . S
N1358 C1355 1.384 . S
N1359 C1351 1.427 . S
N1359 C1357 1.384 . S
H1360 C1366 0.930 . S
H1361 C1370 0.930 . S
H1362 C1375 0.929 . S
H1363 C1373 0.929 . S
H1364 C1368 0.929 . S
H1365 C1374 0.929 . S
C1366 H1360 0.930 . S
C1366 C1367 1.367 . S
C1366 C1374 1.378 1_565 S
C1367 C1366 1.367 . S
C1367 C1375 1.434 . S
C1368 H1364 0.929 . S
C1368 C1370 1.378 . S
C1368 C1372 1.350 . S
C1369 C1372 1.463 . S
C1369 C1374 1.350 . S
C1369 N1377 1.427 . S
C1370 H1361 0.930 . S
C1370 C1368 1.378 . S
C1370 C1371 1.367 . S
C1371 C1370 1.367 . S
C1371 C1373 1.433 . S
C1372 C1368 1.350 . S
C1372 C1369 1.463 . S
C1372 N1376 1.427 . S
C1373 H1363 0.929 . S
C1373 C1371 1.433 . S
C1373 N1376 1.384 . S
C1374 H1365 0.929 . S
C1374 C1366 1.378 1_545 S
C1374 C1369 1.350 . S
C1375 H1362 0.929 . S
C1375 C1367 1.434 . S
C1375 N1377 1.382 1_565 S
N1376 C1372 1.427 . S
N1376 C1373 1.384 . S
N1377 C1369 1.427 . S
N1377 C1375 1.382 1_545 S
H1378 C1384 0.930 . S
H1379 C1388 0.930 . S
H1380 C1393 0.929 . S
H1381 C1391 0.929 . S
H1382 C1386 0.929 . S
H1383 C1392 0.929 . S
C1384 H1378 0.930 . S
C1384 C1385 1.367 . S
C1384 C1392 1.378 . S
C1385 C1384 1.367 . S
C1385 C1393 1.433 . S
C1386 H1382 0.929 . S
C1386 C1388 1.378 1_565 S
C1386 C1390 1.350 . S
C1387 C1390 1.463 . S
C1387 C1392 1.350 . S
C1387 N1395 1.427 . S
C1388 H1379 0.930 . S
C1388 C1386 1.378 1_545 S
C1388 C1389 1.367 . S
C1389 C1388 1.367 . S
C1389 C1391 1.433 . S
C1390 C1386 1.350 . S
C1390 C1387 1.463 . S
C1390 N1394 1.427 . S
C1391 H1381 0.929 . S
C1391 C1389 1.433 . S
C1391 N1394 1.384 1_545 S
C1392 H1383 0.929 . S
C1392 C1384 1.378 . S
C1392 C1387 1.350 . S
C1393 H1380 0.929 . S
C1393 C1385 1.433 . S
C1393 N1395 1.384 . S
N1394 C1390 1.427 . S
N1394 C1391 1.384 1_565 S
N1395 C1387 1.427 . S
N1395 C1393 1.384 . S
H1396 C1402 0.930 . S
H1397 C1406 0.930 . S
H1398 C1411 0.935 . S
H1399 C1409 0.929 . S
H1400 C1404 0.929 . S
H1401 C1410 0.929 . S
C1402 H1396 0.930 . S
C1402 C1403 1.367 . S
C1402 C1410 1.378 1_545 S
C1403 C1402 1.367 . S
C1403 C1411 1.444 . S
C1404 H1400 0.929 . S
C1404 C1406 1.378 . S
C1404 C1408 1.350 . S
C1405 C1408 1.463 . S
C1405 C1410 1.350 . S
C1405 N1413 1.427 . S
C1406 H1397 0.930 . S
C1406 C1404 1.378 . S
C1406 C1407 1.367 . S
C1407 C1406 1.367 . S
C1407 C1409 1.433 . S
C1408 C1404 1.350 . S
C1408 C1405 1.463 . S
C1408 N1412 1.427 . S
C1409 H1399 0.929 . S
C1409 C1407 1.433 . S
C1409 N1412 1.384 . S
C1410 H1401 0.929 . S
C1410 C1402 1.378 1_565 S
C1410 C1405 1.350 . S
C1411 H1398 0.935 . S
C1411 C1403 1.444 . S
C1411 N1413 1.367 1_545 S
N1412 C1408 1.427 . S
N1412 C1409 1.384 . S
N1413 C1405 1.427 . S
N1413 C1411 1.367 1_565 S
H1414 C1420 0.930 . S
H1415 C1424 0.930 . S
H1416 C1429 0.929 . S
H1417 C1427 0.929 . S
H1418 C1422 0.929 . S
H1419 C1428 0.929 . S
C1420 H1414 0.930 . S
C1420 C1421 1.367 . S
C1420 C1428 1.378 1_565 S
C1421 C1420 1.367 . S
C1421 C1429 1.433 . S
C1422 H1418 0.929 . S
C1422 C1424 1.378 . S
C1422 C1426 1.350 . S
C1423 C1426 1.463 . S
C1423 C1428 1.350 . S
C1423 N1431 1.427 . S
C1424 H1415 0.930 . S
C1424 C1422 1.378 . S
C1424 C1425 1.367 . S
C1425 C1424 1.367 . S
C1425 C1427 1.433 . S
C1426 C1422 1.350 . S
C1426 C1423 1.463 . S
C1426 N1430 1.427 . S
C1427 H1417 0.929 . S
C1427 C1425 1.433 . S
C1427 N1430 1.384 . S
C1428 H1419 0.929 . S
C1428 C1420 1.378 1_545 S
C1428 C1423 1.350 . S
C1429 H1416 0.929 . S
C1429 C1421 1.433 . S
C1429 N1431 1.384 1_565 S
N1430 C1426 1.427 . S
N1430 C1427 1.384 . S
N1431 C1423 1.427 . S
N1431 C1429 1.384 1_545 S
H1432 C1438 0.930 . S
H1433 C1442 0.930 . S
H1434 C1447 0.929 . S
H1435 C1445 0.929 . S
H1436 C1440 0.929 . S
H1437 C1446 0.929 . S
C1438 H1432 0.930 . S
C1438 C1439 1.367 . S
C1438 C1446 1.378 . S
C1439 C1438 1.367 . S
C1439 C1447 1.433 . S
C1440 H1436 0.929 . S
C1440 C1442 1.378 1_565 S
C1440 C1444 1.350 . S
C1441 C1444 1.463 . S
C1441 C1446 1.350 . S
C1441 N1449 1.427 . S
C1442 H1433 0.930 . S
C1442 C1440 1.378 1_545 S
C1442 C1443 1.367 . S
C1443 C1442 1.367 . S
C1443 C1445 1.433 . S
C1444 C1440 1.350 . S
C1444 C1441 1.463 . S
C1444 N1448 1.427 . S
C1445 H1435 0.929 . S
C1445 C1443 1.433 . S
C1445 N1448 1.384 1_545 S
C1446 H1437 0.929 . S
C1446 C1438 1.378 . S
C1446 C1441 1.350 . S
C1447 H1434 0.929 . S
C1447 C1439 1.433 . S
C1447 N1449 1.384 . S
N1448 C1444 1.427 . S
N1448 C1445 1.384 1_565 S
N1449 C1441 1.427 . S
N1449 C1447 1.384 . S
H1450 C1456 0.930 . S
H1451 C1460 0.930 . S
H1452 C1465 0.929 . S
H1453 C1463 0.929 . S
H1454 C1458 0.929 . S
H1455 C1464 0.929 . S
C1456 H1450 0.930 . S
C1456 C1457 1.367 . S
C1456 C1464 1.378 . S
C1457 C1456 1.367 . S
C1457 C1465 1.433 . S
C1458 H1454 0.929 . S
C1458 C1460 1.378 1_545 S
C1458 C1462 1.350 . S
C1459 C1462 1.463 . S
C1459 C1464 1.350 . S
C1459 N1467 1.427 . S
C1460 H1451 0.930 . S
C1460 C1458 1.378 1_565 S
C1460 C1461 1.367 . S
C1461 C1460 1.367 . S
C1461 C1463 1.433 . S
C1462 C1458 1.350 . S
C1462 C1459 1.463 . S
C1462 N1466 1.427 . S
C1463 H1453 0.929 . S
C1463 C1461 1.433 . S
C1463 N1466 1.384 1_565 S
C1464 H1455 0.929 . S
C1464 C1456 1.378 . S
C1464 C1459 1.350 . S
C1465 H1452 0.929 . S
C1465 C1457 1.433 . S
C1465 N1467 1.384 . S
N1466 C1462 1.427 . S
N1466 C1463 1.384 1_545 S
N1467 C1459 1.427 . S
N1467 C1465 1.384 . S
H1468 C1474 0.930 . S
H1469 C1478 0.930 . S
H1470 C1483 0.929 . S
H1471 C1481 0.929 . S
H1472 C1476 0.929 . S
H1473 C1482 0.929 . S
C1474 H1468 0.930 . S
C1474 C1475 1.367 . S
C1474 C1482 1.378 1_565 S
C1475 C1474 1.367 . S
C1475 C1483 1.433 . S
C1476 H1472 0.929 . S
C1476 C1478 1.378 . S
C1476 C1480 1.350 . S
C1477 C1480 1.463 . S
C1477 C1482 1.350 . S
C1477 N1485 1.427 . S
C1478 H1469 0.930 . S
C1478 C1476 1.378 . S
C1478 C1479 1.367 . S
C1479 C1478 1.367 . S
C1479 C1481 1.433 . S
C1480 C1476 1.350 . S
C1480 C1477 1.463 . S
C1480 N1484 1.427 . S
C1481 H1471 0.929 . S
C1481 C1479 1.433 . S
C1481 N1484 1.384 . S
C1482 H1473 0.929 . S
C1482 C1474 1.378 1_545 S
C1482 C1477 1.350 . S
C1483 H1470 0.929 . S
C1483 C1475 1.433 . S
C1483 N1485 1.384 1_565 S
N1484 C1480 1.427 . S
N1484 C1481 1.384 . S
N1485 C1477 1.427 . S
N1485 C1483 1.384 1_545 S
H1486 C1492 0.930 . S
H1487 C1496 0.931 1_545 S
H1488 C1501 0.929 . S
H1489 C1499 0.929 . S
H1490 C1494 0.929 . S
H1491 C1500 0.929 . S
C1492 H1486 0.930 . S
C1492 C1493 1.367 . S
C1492 C1500 1.378 . S
C1493 C1492 1.367 . S
C1493 C1501 1.433 . S
C1494 H1490 0.929 . S
C1494 C1496 1.376 . S
C1494 C1498 1.350 . S
C1495 C1498 1.463 . S
C1495 C1500 1.350 . S
C1495 N1503 1.427 . S
C1496 H1487 0.931 1_565 S
C1496 C1494 1.376 . S
C1496 C1497 1.368 1_565 S
C1497 C1496 1.368 1_545 S
C1497 C1499 1.433 . S
C1498 C1494 1.350 . S
C1498 C1495 1.463 . S
C1498 N1502 1.427 . S
C1499 H1489 0.929 . S
C1499 C1497 1.433 . S
C1499 N1502 1.384 1_545 S
C1500 H1491 0.929 . S
C1500 C1492 1.378 . S
C1500 C1495 1.350 . S
C1501 H1488 0.929 . S
C1501 C1493 1.433 . S
C1501 N1503 1.384 . S
N1502 C1498 1.427 . S
N1502 C1499 1.384 1_565 S
N1503 C1495 1.427 . S
N1503 C1501 1.384 . S
C647 C19 1.552 . S
C651 C379 1.556 . S
C665 C59 1.556 . S
C669 C339 1.552 . S
C683 C459 1.552 . S
C687 C99 1.557 . S
C701 C139 1.552 . S
C705 C419 1.556 . S
C719 C530 1.553 . S
C723 C170 1.555 . S
C737 C490 1.556 . S
C741 C210 1.552 . S
C755 C610 1.557 . S
C759 C250 1.552 . S
C773 C290 1.556 . S
C777 C570 1.552 . S
C791 C98 1.670 . S
C795 C18 1.670 . S
C809 C138 1.669 . S
C813 C58 1.671 . S
C827 C249 1.673 . S
C831 C169 1.667 . S
C845 C209 1.668 . S
C849 C289 1.674 . S
C863 C418 1.670 . S
C867 C338 1.670 . S
C881 C458 1.669 . S
C885 C378 1.671 . S
C899 C489 1.669 . S
C903 C569 1.674 . S
C917 C529 1.669 . S
C921 C609 1.674 . S
C935 C218 1.524 . S
C939 C9 1.508 . S
C953 C178 1.524 . S
C957 C49 1.508 . S
C971 C89 1.516 . S
C975 C298 1.516 . S
C989 C258 1.508 . S
C993 C129 1.524 . S
C1007 C329 1.520 . S
C1011 C538 1.512 . S
C1025 C498 1.524 . S
C1029 C369 1.508 . S
C1043 C409 1.521 . S
C1047 C618 1.511 . S
C1061 C578 1.508 . S
C1065 C449 1.524 . S
C1079 C50 1.630 . S
C1083 C10 1.634 . S
C1097 C130 1.627 . S
C1101 C90 1.625 . S
C1115 C219 1.627 . S
C1119 C179 1.631 . S
C1133 C259 1.626 . S
C1137 C299 1.630 . S
C1151 C370 1.628 . S
C1155 C330 1.632 . S
C1169 C450 1.632 . S
C1173 C410 1.627 . S
C1187 C499 1.625 . S
C1191 C539 1.628 . S
C1205 C579 1.627 . S
C1209 C619 1.632 . S
C1223 C6 1.635 . S
C1227 C15 1.635 . S
C1241 C46 1.639 . S
C1245 C55 1.639 . S
C1259 C86 1.641 . S
C1263 C95 1.641 . S
C1277 C135 1.636 . S
C1281 C126 1.636 . S
C1295 C175 1.642 . S
C1299 C166 1.642 . S
C1313 C206 1.638 . S
C1317 C215 1.638 . S
C1331 C255 1.635 . S
C1335 C246 1.635 . S
C1349 C295 1.637 . S
C1353 C286 1.637 . S
C1367 C335 1.636 . S
C1371 C326 1.636 . S
C1385 C366 1.642 . S
C1389 C375 1.642 . S
C1403 C415 1.636 . S
C1407 C406 1.636 . S
C1421 C455 1.643 . S
C1425 C446 1.643 . S
C1439 C495 1.639 . S
C1443 C486 1.639 . S
C1457 C535 1.637 . S
C1461 C526 1.637 . S
C1475 C566 1.643 . S
C1479 C575 1.643 . S
C1493 C615 1.644 . S
C1497 C606 1.644 . S
