# Generated by pormake.
# Topology smk, (6)-cn, num edge types: 1
# Building blocks:
#     Node 0, Type 0, BuildingBlock: IZENUY_clean_sbu_0, # of connection points: 6
#     Node 1, Type 0, BuildingBlock: IZENUY_clean_sbu_0, # of connection points: 6
#     Node 2, Type 0, BuildingBlock: IZENUY_clean_sbu_0, # of connection points: 6
#     Node 3, Type 0, BuildingBlock: IZENUY_clean_sbu_0, # of connection points: 6
#     Node 4, Type 0, BuildingBlock: IZENUY_clean_sbu_0, # of connection points: 6
#     Node 5, Type 0, BuildingBlock: IZENUY_clean_sbu_0, # of connection points: 6
#     Edge 6, Type (0, 0), BuildingBlock: TEMPAE_clean_linker_10, # of connection points: 2
#     Edge 7, Type (0, 0), BuildingBlock: TEMPAE_clean_linker_10, # of connection points: 2
#     Edge 8, Type (0, 0), BuildingBlock: TEMPAE_clean_linker_10, # of connection points: 2
#     Edge 9, Type (0, 0), BuildingBlock: TEMPAE_clean_linker_10, # of connection points: 2
#     Edge 10, Type (0, 0), BuildingBlock: TEMPAE_clean_linker_10, # of connection points: 2
#     Edge 11, Type (0, 0), BuildingBlock: TEMPAE_clean_linker_10, # of connection points: 2
#     Edge 12, Type (0, 0), BuildingBlock: TEMPAE_clean_linker_10, # of connection points: 2
#     Edge 13, Type (0, 0), BuildingBlock: TEMPAE_clean_linker_10, # of connection points: 2
#     Edge 14, Type (0, 0), BuildingBlock: TEMPAE_clean_linker_10, # of connection points: 2
#     Edge 15, Type (0, 0), BuildingBlock: TEMPAE_clean_linker_10, # of connection points: 2
#     Edge 16, Type (0, 0), BuildingBlock: TEMPAE_clean_linker_10, # of connection points: 2
#     Edge 17, Type (0, 0), BuildingBlock: TEMPAE_clean_linker_10, # of connection points: 2
#     Edge 18, Type (0, 0), BuildingBlock: TEMPAE_clean_linker_10, # of connection points: 2
#     Edge 19, Type (0, 0), BuildingBlock: TEMPAE_clean_linker_10, # of connection points: 2
#     Edge 20, Type (0, 0), BuildingBlock: TEMPAE_clean_linker_10, # of connection points: 2
#     Edge 21, Type (0, 0), BuildingBlock: TEMPAE_clean_linker_10, # of connection points: 2
#     Edge 22, Type (0, 0), BuildingBlock: TEMPAE_clean_linker_10, # of connection points: 2
#     Edge 23, Type (0, 0), BuildingBlock: TEMPAE_clean_linker_10, # of connection points: 2
# Relax obj value: 0.171
# Max RMSD: 0.207
# Mean RMSD: 0.207
data_MOF--net-smk--node1-IZENUY_clean_sbu_0--edge1-TEMPAE_clean_linker_10
_symmetry_space_group_name_H-M    P1
_symmetry_Int_Tables_number       1
_symmetry_cell_setting            triclinic
loop_
_symmetry_equiv_pos_as_xyz
'x, y, z'
_cell_length_a     42.726617
_cell_length_b     42.725239
_cell_length_c     15.40275
_cell_angle_alpha  89.979177
_cell_angle_beta   89.985681
_cell_angle_gamma 120.01684
loop_
_atom_site_label
_atom_site_type_symbol
_atom_site_fract_x
_atom_site_fract_y
_atom_site_fract_z
_atom_type_partial_charge
Fe0 Fe 0.46651 0.25671 0.67125 0.0
Fe1 Fe 0.3947 0.19912 0.59176 0.0
O2 O 0.44266 0.22324 0.59185 0.0
Fe3 Fe 0.46676 0.21389 0.51255 0.0
O4 O 0.48892 0.20124 0.59406 0.0
O5 O 0.50508 0.24873 0.67687 0.0
O6 O 0.44622 0.22396 0.75746 0.0
C7 C 0.41275 0.20553 0.77133 0.0
C8 C 0.50821 0.29049 0.5301 0.0
O9 O 0.39025 0.20045 0.71145 0.0
C10 C 0.41294 0.21095 0.41223 0.0
O11 O 0.43226 0.27086 0.68037 0.0
O12 O 0.39298 0.24034 0.57772 0.0
O13 O 0.50517 0.26056 0.50717 0.0
O14 O 0.48864 0.29163 0.58986 0.0
C15 C 0.40758 0.14419 0.55406 0.0
O16 O 0.39042 0.1934 0.47205 0.0
O17 O 0.44641 0.22621 0.42624 0.0
C18 C 0.4071 0.26676 0.62947 0.0
O19 O 0.39328 0.15631 0.60578 0.0
O20 O 0.43272 0.1654 0.50324 0.0
C21 C 0.50829 0.22194 0.65404 0.0
Fe22 Fe 0.21861 0.46136 0.83834 0.0
Fe23 Fe 0.20392 0.38941 0.75883 0.0
O24 O 0.22799 0.43736 0.75887 0.0
Fe25 Fe 0.26145 0.46131 0.67943 0.0
O26 O 0.29635 0.48336 0.76078 0.0
O27 O 0.26527 0.49979 0.84372 0.0
O28 O 0.23095 0.44096 0.92447 0.0
C29 C 0.21571 0.40748 0.93839 0.0
C30 C 0.22665 0.50305 0.69709 0.0
O31 O 0.19816 0.38501 0.87854 0.0
C32 C 0.21034 0.40761 0.5793 0.0
O33 O 0.17011 0.42726 0.84768 0.0
O34 O 0.16111 0.38797 0.7449 0.0
O35 O 0.25344 0.49986 0.67408 0.0
O36 O 0.20593 0.48359 0.75702 0.0
C37 C 0.27158 0.40191 0.72093 0.0
O38 O 0.20529 0.38507 0.63912 0.0
O39 O 0.22871 0.44107 0.59326 0.0
C40 C 0.14894 0.40217 0.79677 0.0
O41 O 0.24517 0.38773 0.77274 0.0
O42 O 0.27564 0.42708 0.67007 0.0
C43 C 0.2952 0.50285 0.8207 0.0
Fe44 Fe 0.82266 0.19872 0.92369 0.0
Fe45 Fe 0.80874 0.25699 0.84711 0.0
O46 O 0.79906 0.22307 0.92534 0.0
Fe47 Fe 0.76577 0.21348 1.0053 0.0
O48 O 0.79861 0.22535 0.09101 0.0
O49 O 0.82137 0.19245 0.04322 0.0
O50 O 0.86577 0.23973 0.93804 0.0
C51 C 0.87813 0.26649 0.88726 0.0
C52 C 0.75485 0.14384 0.96151 0.0
O53 O 0.85711 0.27103 0.83725 0.0
C54 C 0.73219 0.22227 0.86502 0.0
O55 O 0.8282 0.20056 0.80389 0.0
O56 O 0.79611 0.22475 0.75982 0.0
O57 O 0.75116 0.16489 0.01332 0.0
O58 O 0.78109 0.15612 0.90922 0.0
C59 C 0.80111 0.29015 0.98977 0.0
O60 O 0.76221 0.24916 0.84249 0.0
O61 O 0.73085 0.20127 0.92431 0.0
C62 C 0.81089 0.20618 0.74468 0.0
O63 O 0.82175 0.29149 0.92962 0.0
O64 O 0.77416 0.26016 0.01218 0.0
C65 C 0.81675 0.20994 0.10374 0.0
Fe66 Fe 0.63323 0.81798 0.08952 0.0
Fe67 Fe 0.56123 0.80338 1.01035 0.0
O68 O 0.58527 0.79396 0.08969 0.0
Fe69 Fe 0.56134 0.76053 0.16924 0.0
O70 O 0.58168 0.7933 0.25531 0.0
O71 O 0.63764 0.81665 0.20922 0.0
O72 O 0.63478 0.86085 0.10336 0.0
C73 C 0.62051 0.87302 0.05169 0.0
C74 C 0.62069 0.75031 0.12766 0.0
O75 O 0.59534 0.85185 1.00094 0.0
C76 C 0.51967 0.72679 0.02814 0.0
O77 O 0.63754 0.82367 0.9698 0.0
O78 O 0.58154 0.791 0.92409 0.0
O79 O 0.59553 0.74628 0.1785 0.0
O80 O 0.63483 0.77668 0.07569 0.0
C81 C 0.51966 0.79542 0.15177 0.0
O82 O 0.52277 0.75673 1.00509 0.0
O83 O 0.53918 0.72561 0.08798 0.0
C84 C 0.61501 0.80617 0.91003 0.0
O85 O 0.5391 0.8161 0.09179 0.0
O86 O 0.52282 0.76861 0.17476 0.0
C87 C 0.61515 0.81165 0.26912 0.0
Fe88 Fe 0.82397 0.62793 0.2601 0.0
Fe89 Fe 0.76655 0.55595 0.18102 0.0
O90 O 0.79996 0.57998 0.26042 0.0
Fe91 Fe 0.80935 0.55605 0.34013 0.0
O92 O 0.79697 0.57649 0.42605 0.0
O93 O 0.8297 0.63241 0.37979 0.0
O94 O 0.78268 0.62955 0.27382 0.0
C95 C 0.7563 0.61534 0.22195 0.0
C96 C 0.87901 0.61528 0.29828 0.0
O97 O 0.7523 0.59013 0.17133 0.0
C98 C 0.80139 0.51425 0.19926 0.0
O99 O 0.82263 0.63219 0.14036 0.0
O100 O 0.79932 0.57618 0.09483 0.0
O101 O 0.85785 0.59018 0.34929 0.0
O102 O 0.86682 0.62944 0.24632 0.0
C103 C 0.73277 0.51449 0.32252 0.0
O104 O 0.77461 0.51742 0.17602 0.0
O105 O 0.82208 0.53378 0.25907 0.0
C106 C 0.81763 0.60964 0.08066 0.0
O107 O 0.73162 0.53392 0.2624 0.0
O108 O 0.7627 0.5176 0.34569 0.0
C109 C 0.81217 0.60997 0.43976 0.0
Fe110 Fe 0.2051 0.81846 0.42474 0.0
Fe111 Fe 0.21936 0.76084 0.34558 0.0
O112 O 0.229 0.7944 0.42474 0.0
Fe113 Fe 0.26252 0.8039 0.5039 0.0
O114 O 0.22991 0.79164 0.59035 0.0
O115 O 0.20661 0.8243 0.54442 0.0
O116 O 0.16219 0.77721 0.4391 0.0
C117 C 0.14987 0.75072 0.38758 0.0
C118 C 0.2729 0.87352 0.46205 0.0
O119 O 0.17091 0.74661 0.3366 0.0
C120 C 0.29595 0.79571 0.36246 0.0
O121 O 0.19926 0.81698 0.30507 0.0
O122 O 0.23174 0.79347 0.25913 0.0
O123 O 0.27693 0.85239 0.51291 0.0
O124 O 0.24645 0.86129 0.4104 0.0
C125 C 0.22736 0.7273 0.48703 0.0
O126 O 0.26593 0.76887 0.33987 0.0
O127 O 0.2973 0.8165 0.42222 0.0
C128 C 0.21668 0.81187 0.2452 0.0
O129 O 0.20662 0.72605 0.42725 0.0
O130 O 0.2543 0.75725 0.50959 0.0
C131 C 0.21163 0.80682 0.60429 0.0
C132 C 0.37384 0.17557 0.2868 0.0
C133 C 0.40119 0.20836 0.32089 0.0
C134 C 0.36818 0.17082 0.19649 0.0
C135 C 0.39001 0.19974 0.13957 0.0
C136 C 0.41562 0.23372 0.17463 0.0
C137 C 0.42116 0.23746 0.26464 0.0
C138 C 0.34082 0.13412 0.16195 0.0
C139 C 0.439 0.26555 0.11676 0.0
C140 C 0.42089 0.18704 0.91869 0.0
C141 C 0.40097 0.19628 0.86264 0.0
C142 C 0.41541 0.18525 1.00874 0.0
C143 C 0.38994 0.19375 0.04403 0.0
C144 C 0.36814 0.20093 0.98731 0.0
C145 C 0.37372 0.20182 0.89696 0.0
C146 C 0.43877 0.17671 0.06639 0.0
C147 C 0.34091 0.21041 0.0221 0.0
H148 H 0.3586 0.15289 0.3301 0.0
H149 H 0.44221 0.26289 0.29099 0.0
H150 H 0.32472 0.13665 0.10878 0.0
H151 H 0.35516 0.12072 0.13462 0.0
H152 H 0.32214 0.11646 0.21354 0.0
H153 H 0.45425 0.29107 0.15414 0.0
H154 H 0.4587 0.26042 0.08177 0.0
H155 H 0.42226 0.26924 0.06727 0.0
H156 H 0.44187 0.1826 0.89216 0.0
H157 H 0.35852 0.20935 0.8538 0.0
H158 H 0.42202 0.15633 0.11605 0.0
H159 H 0.4586 0.20153 0.10117 0.0
H160 H 0.45387 0.16631 0.02887 0.0
H161 H 0.32483 0.19183 0.07542 0.0
H162 H 0.32221 0.20943 0.97068 0.0
H163 H 0.35537 0.23818 0.0493 0.0
C164 C 0.19213 0.41595 0.43178 0.0
C165 C 0.20113 0.39587 0.48798 0.0
C166 C 0.19031 0.41042 0.34176 0.0
C167 C 0.19851 0.3847 0.30664 0.0
C168 C 0.20545 0.36276 0.36351 0.0
C169 C 0.20638 0.36841 0.45383 0.0
C170 C 0.18205 0.43393 0.28395 0.0
C171 C 0.2146 0.33528 0.3289 0.0
C172 C 0.18019 0.36854 0.064 0.0
C173 C 0.21307 0.39568 0.02971 0.0
C174 C 0.17544 0.36295 0.15435 0.0
C175 C 0.20445 0.38463 0.21109 0.0
C176 C 0.23851 0.41 0.17584 0.0
C177 C 0.24225 0.41548 0.08579 0.0
C178 C 0.13866 0.33585 0.18909 0.0
C179 C 0.27043 0.43322 0.23353 0.0
H180 H 0.1879 0.43708 0.45816 0.0
H181 H 0.2137 0.35308 0.49709 0.0
H182 H 0.20694 0.45357 0.249 0.0
H183 H 0.16159 0.41727 0.23442 0.0
H184 H 0.17189 0.44927 0.32136 0.0
H185 H 0.21345 0.31654 0.38046 0.0
H186 H 0.19593 0.31925 0.27572 0.0
H187 H 0.24235 0.34951 0.30157 0.0
H188 H 0.15746 0.35343 0.02082 0.0
H189 H 0.26774 0.43638 0.05929 0.0
H190 H 0.12547 0.35042 0.21631 0.0
H191 H 0.14102 0.31969 0.24239 0.0
H192 H 0.12089 0.31721 0.13764 0.0
H193 H 0.26555 0.45311 0.26837 0.0
H194 H 0.29596 0.44825 0.19603 0.0
H195 H 0.27393 0.41639 0.28314 0.0
C196 C 0.81677 0.17306 0.2299 0.0
C197 C 0.82589 0.20682 0.19462 0.0
C198 C 0.81727 0.16845 0.32037 0.0
C199 C 0.82776 0.19848 0.37616 0.0
C200 C 0.83991 0.23316 0.33979 0.0
C201 C 0.83832 0.23679 0.24963 0.0
C202 C 0.80376 0.13099 0.35629 0.0
C203 C 0.85208 0.2661 0.39641 0.0
C204 C 0.78486 0.19095 0.596 0.0
C205 C 0.8129 0.19694 0.65294 0.0
C206 C 0.7885 0.18879 0.50608 0.0
C207 C 0.8213 0.19337 0.47175 0.0
C208 C 0.84893 0.19724 0.52925 0.0
C209 C 0.84429 0.19873 0.61948 0.0
C210 C 0.75802 0.18394 0.44755 0.0
C211 C 0.88433 0.20238 0.49543 0.0
H212 H 0.80669 0.14975 0.18744 0.0
H213 H 0.84541 0.26291 0.22224 0.0
H214 H 0.82136 0.1315 0.40981 0.0
H215 H 0.77624 0.12059 0.38348 0.0
H216 H 0.80237 0.11188 0.30549 0.0
H217 H 0.86518 0.29156 0.35813 0.0
H218 H 0.8284 0.26431 0.43071 0.0
H219 H 0.87138 0.26744 0.44646 0.0
H220 H 0.76043 0.18927 0.62172 0.0
H221 H 0.86616 0.20362 0.66322 0.0
H222 H 0.75193 0.16258 0.39866 0.0
H223 H 0.76621 0.20946 0.41184 0.0
H224 H 0.73293 0.17664 0.48446 0.0
H225 H 0.8797 0.18282 0.44279 0.0
H226 H 0.90054 0.19923 0.54752 0.0
H227 H 0.90037 0.22993 0.46756 0.0
C228 C 0.6071 0.83018 0.4165 0.0
C229 C 0.62694 0.82085 0.3604 0.0
C230 C 0.61259 0.83195 0.50653 0.0
C231 C 0.63799 0.82333 0.54176 0.0
C232 C 0.65971 0.81605 0.48498 0.0
C233 C 0.65413 0.8152 0.39464 0.0
C234 C 0.58932 0.84059 0.56424 0.0
C235 C 0.68685 0.80645 0.51969 0.0
C236 C 0.65417 0.84147 0.78446 0.0
C237 C 0.62675 0.80873 0.81866 0.0
C238 C 0.65983 0.84621 0.69413 0.0
C239 C 0.63792 0.81732 0.63731 0.0
C240 C 0.61224 0.78337 0.67247 0.0
C241 C 0.60671 0.77964 0.7625 0.0
C242 C 0.68727 0.88288 0.65947 0.0
C243 C 0.58876 0.75157 0.6147 0.0
H244 H 0.58617 0.83471 0.39002 0.0
H245 H 0.66926 0.8076 0.35145 0.0
H246 H 0.56944 0.81579 0.5991 0.0
H247 H 0.60612 0.86093 0.61383 0.0
H248 H 0.57428 0.85106 0.52675 0.0
H249 H 0.70552 0.80737 0.46822 0.0
H250 H 0.70298 0.82499 0.57296 0.0
H251 H 0.67232 0.77868 0.54693 0.0
H252 H 0.66948 0.86413 0.82769 0.0
H253 H 0.5856 0.75425 0.78893 0.0
H254 H 0.673 0.89636 0.63215 0.0
H255 H 0.70332 0.88028 0.60627 0.0
H256 H 0.70599 0.9005 0.71099 0.0
H257 H 0.56911 0.75679 0.57977 0.0
H258 H 0.57345 0.72606 0.65214 0.0
H259 H 0.60545 0.74782 0.56516 0.0
C260 C 0.78562 0.60212 0.58715 0.0
C261 C 0.81484 0.62181 0.53103 0.0
C262 C 0.78937 0.60756 0.67719 0.0
C263 C 0.82347 0.63277 0.7124 0.0
C264 C 0.85254 0.65435 0.65561 0.0
C265 C 0.84778 0.64881 0.56527 0.0
C266 C 0.75738 0.58446 0.73492 0.0
C267 C 0.88938 0.68126 0.6903 0.0
C268 C 0.82173 0.64894 0.9552 0.0
C269 C 0.8268 0.62135 0.98926 0.0
C270 C 0.82266 0.65463 0.86488 0.0
C271 C 0.82939 0.63259 0.80793 0.0
C272 C 0.83739 0.60671 0.84293 0.0
C273 C 0.8356 0.60115 0.93295 0.0
C274 C 0.81372 0.68229 0.8304 0.0
C275 C 0.84544 0.58308 0.78501 0.0
H276 H 0.76008 0.58132 0.56068 0.0
H277 H 0.87055 0.66381 0.52205 0.0
H278 H 0.76209 0.56443 0.76967 0.0
H279 H 0.75402 0.60135 0.78461 0.0
H280 H 0.73184 0.5696 0.69747 0.0
H281 H 0.90722 0.69987 0.63884 0.0
H282 H 0.88713 0.69747 0.74363 0.0
H283 H 0.90242 0.66653 0.71746 0.0
H284 H 0.81458 0.66437 0.99853 0.0
H285 H 0.83969 0.57992 0.95926 0.0
H286 H 0.78596 0.66822 0.80319 0.0
H287 H 0.83242 0.69827 0.77716 0.0
H288 H 0.81502 0.70107 0.882 0.0
H289 H 0.82049 0.56358 0.7501 0.0
H290 H 0.85544 0.56758 0.82233 0.0
H291 H 0.86595 0.59968 0.73546 0.0
C292 C 0.18146 0.81576 0.1196 0.0
C293 C 0.21419 0.82114 0.15388 0.0
C294 C 0.17681 0.81673 0.02926 0.0
C295 C 0.20577 0.82383 0.97252 0.0
C296 C 0.23971 0.83217 1.00778 0.0
C297 C 0.24335 0.8303 0.09781 0.0
C298 C 0.14015 0.80743 0.9945 0.0
C299 C 0.27158 0.84061 0.95011 0.0
C300 C 0.19316 0.78023 0.75173 0.0
C301 C 0.20245 0.8094 0.69561 0.0
C302 C 0.19134 0.78392 0.84176 0.0
C303 C 0.19985 0.81792 0.87696 0.0
C304 C 0.20711 0.84692 0.82017 0.0
C305 C 0.20802 0.84221 0.72984 0.0
C306 C 0.18273 0.75202 0.89949 0.0
C307 C 0.21662 0.88364 0.85487 0.0
H308 H 0.15875 0.80831 0.16277 0.0
H309 H 0.26873 0.83463 0.12431 0.0
H310 H 0.14276 0.82609 0.9413 0.0
H311 H 0.12674 0.77969 0.96715 0.0
H312 H 0.12246 0.80845 0.04597 0.0
H313 H 0.29706 0.85087 0.98762 0.0
H314 H 0.26647 0.81578 0.91519 0.0
H315 H 0.27532 0.86106 0.90055 0.0
H316 H 0.18869 0.75479 0.72527 0.0
H317 H 0.21558 0.86494 0.68663 0.0
H318 H 0.16232 0.74839 0.94902 0.0
H319 H 0.20753 0.75701 0.93443 0.0
H320 H 0.17236 0.72651 0.86201 0.0
H321 H 0.198 0.88116 0.90807 0.0
H322 H 0.2157 0.90138 0.80337 0.0
H323 H 0.24435 0.89692 0.88221 0.0
C324 C 0.3608 0.08054 0.59309 0.0
C325 C 0.39137 0.10437 0.54439 0.0
C326 C 0.34352 0.04299 0.58014 0.0
C327 C 0.35714 0.02869 0.51724 0.0
C328 C 0.38859 0.05243 0.46969 0.0
C329 C 0.40527 0.08994 0.48369 0.0
C330 C 0.31004 0.01865 0.63221 0.0
C331 C 0.40412 0.03828 0.40252 0.0
C332 C 0.32461 0.92793 0.5326 0.0
C333 C 0.29638 0.91336 0.47164 0.0
C334 C 0.34523 0.96545 0.54661 0.0
C335 C 0.33743 0.98906 0.4988 0.0
C336 C 0.30963 0.97462 0.43563 0.0
C337 C 0.28956 0.93706 0.42268 0.0
C338 C 0.37481 0.97977 0.61408 0.0
C339 C 0.3004 0.99881 0.38326 0.0
H340 H 0.34982 0.09126 0.64034 0.0
H341 H 0.42893 0.108 0.4459 0.0
H342 H 0.28654 1.0044 0.588 0.0
H343 H 0.31348 0.99771 0.66637 0.0
H344 H 0.30371 0.03384 0.681 0.0
H345 H 0.42993 0.06 0.37487 0.0
H346 H 0.40895 0.01729 0.43151 0.0
H347 H 0.38449 0.02531 0.34881 0.0
H348 H 0.33026 0.90998 0.5706 0.0
H349 H 0.26793 0.92623 0.37523 0.0
H350 H 0.36792 0.99262 0.66764 0.0
H351 H 0.40063 1.00088 0.58531 0.0
H352 H 0.37902 0.95815 0.64188 0.0
H353 H 0.29094 0.01293 0.42725 0.0
H354 H 0.27902 0.98353 0.33427 0.0
H355 H 0.3248 0.01986 0.34931 0.0
C356 C 0.36009 0.28324 0.59025 0.0
C357 C 0.39067 0.29017 0.63905 0.0
C358 C 0.34261 0.30333 0.60309 0.0
C359 C 0.35605 0.33124 0.66597 0.0
C360 C 0.3875 0.33912 0.71365 0.0
C361 C 0.40438 0.31849 0.69976 0.0
C362 C 0.30914 0.294 0.55088 0.0
C363 C 0.40284 0.36882 0.78082 0.0
C364 C 0.32329 0.39924 0.65028 0.0
C365 C 0.29503 0.38553 0.71122 0.0
C366 C 0.34397 0.38242 0.63631 0.0
C367 C 0.3362 0.35102 0.68417 0.0
C368 C 0.30834 0.33758 0.74727 0.0
C369 C 0.28821 0.355 0.76016 0.0
C370 C 0.3736 0.39776 0.5689 0.0
C371 C 0.29914 0.30417 0.79967 0.0
H372 H 0.34925 0.26154 0.543 0.0
H373 H 0.42804 0.32422 0.73763 0.0
H374 H 0.28559 0.28466 0.595 0.0
H375 H 0.3125 0.31834 0.51662 0.0
H376 H 0.30295 0.2725 0.50216 0.0
H377 H 0.42863 0.37301 0.8087 0.0
H378 H 0.40762 0.39461 0.75173 0.0
H379 H 0.3831 0.36207 0.83437 0.0
H380 H 0.32894 0.42286 0.61229 0.0
H381 H 0.26656 0.34417 0.8076 0.0
H382 H 0.36684 0.37798 0.51549 0.0
H383 H 0.39944 0.40264 0.59782 0.0
H384 H 0.37769 0.4235 0.54086 0.0
H385 H 0.28982 0.2806 0.75569 0.0
H386 H 0.27766 0.29796 0.8485 0.0
H387 H 0.32353 0.30762 0.83382 0.0
C388 C 0.94158 0.28236 0.92501 0.0
C389 C 0.91799 0.28993 0.87791 0.0
C390 C 0.97916 0.30256 0.91238 0.0
C391 C 0.99372 0.33126 0.85148 0.0
C392 C 0.97022 0.33977 0.80557 0.0
C393 C 0.93268 0.31899 0.81917 0.0
C394 C 1.00324 0.29255 0.96264 0.0
C395 C 0.98467 0.37031 0.74057 0.0
C396 C 0.09457 0.39889 0.86912 0.0
C397 C 0.10911 0.38585 0.80648 0.0
C398 C 0.05704 0.38198 0.88306 0.0
C399 C 0.03339 0.35123 0.83337 0.0
C400 C 0.0478 0.33852 0.76853 0.0
C401 C 0.08538 0.35598 0.75577 0.0
C402 C 0.04276 0.39652 0.95244 0.0
C403 C 0.02356 0.30582 0.71408 0.0
H404 H 0.93066 0.26008 0.97072 0.0
H405 H 0.9148 0.32523 0.78267 0.0
H406 H 0.01745 0.28374 0.91705 0.0
H407 H 0.02423 0.31643 0.99821 0.0
H408 H 0.98787 0.27044 1.01 0.0
H409 H 0.9631 0.37487 0.71401 0.0
H410 H 1.00567 0.39571 0.77114 0.0
H411 H 0.99769 0.36425 0.68588 0.0
H412 H 0.11255 0.42198 0.90853 0.0
H413 H 0.09618 0.34569 0.70697 0.0
H414 H 0.0297 0.3761 1.00463 0.0
H415 H 0.02182 0.40176 0.92491 0.0
H416 H 0.06443 0.4219 0.98181 0.0
H417 H 1.00923 0.28169 0.75644 0.0
H418 H 0.03883 0.30021 0.66401 0.0
H419 H 1.00268 0.30976 0.68122 0.0
C420 C 0.62237 0.92734 0.9828 0.0
C421 C 0.63671 0.91285 0.04216 0.0
C422 C 0.63895 0.96486 0.96907 0.0
C423 C 0.67075 0.98856 0.01546 0.0
C424 C 0.68485 0.97419 0.07695 0.0
C425 C 0.66764 0.93662 0.08973 0.0
C426 C 0.62289 0.9791 0.90346 0.0
C427 C 0.71873 0.99847 0.1277 0.0
C428 C 0.73769 0.08036 0.92028 0.0
C429 C 0.7313 0.10398 0.97075 0.0
C430 C 0.71763 0.04276 0.93289 0.0
C431 C 0.69031 0.02822 0.99727 0.0
C432 C 0.6829 0.05176 0.04658 0.0
C433 C 0.7035 0.08931 0.03287 0.0
C434 C 0.72643 0.01866 0.87889 0.0
C435 C 0.65382 0.03733 0.11536 0.0
H436 H 0.59843 0.90932 0.94592 0.0
H437 H 0.67897 0.92586 0.13591 0.0
H438 H 0.61826 1.00002 0.93358 0.0
H439 H 0.64212 0.99216 0.849 0.0
H440 H 0.59689 0.9574 0.87666 0.0
H441 H 0.72547 0.98323 0.17541 0.0
H442 H 0.74187 0.01281 0.08247 0.0
H443 H 0.71554 0.01934 0.16295 0.0
H444 H 0.75897 0.09126 0.8719 0.0
H445 H 0.69819 0.10721 0.07206 0.0
H446 H 0.70176 0.99766 0.8458 0.0
H447 H 0.73626 1.00447 0.92163 0.0
H448 H 0.74742 0.03401 0.82905 0.0
H449 H 0.62781 0.01622 0.08748 0.0
H450 H 0.64979 0.05889 0.14417 0.0
H451 H 0.66114 0.02445 0.16804 0.0
C452 C 0.7397 0.66235 0.26027 0.0
C453 C 0.73285 0.63171 0.21185 0.0
C454 C 0.71957 0.67976 0.24697 0.0
C455 C 0.69169 0.66619 0.18399 0.0
C456 C 0.6839 0.63468 0.13666 0.0
C457 C 0.70458 0.61788 0.15101 0.0
C458 C 0.7288 0.71329 0.29882 0.0
C459 C 0.65424 0.6192 0.06939 0.0
C460 C 0.62347 0.69873 0.19878 0.0
C461 C 0.63713 0.72691 0.13763 0.0
C462 C 0.64038 0.67814 0.21309 0.0
C463 C 0.67181 0.68593 0.16539 0.0
C464 C 0.6852 0.7137 0.10207 0.0
C465 C 0.66769 0.73375 0.08883 0.0
C466 C 0.62508 0.64859 0.28072 0.0
C467 C 0.71864 0.72293 0.04981 0.0
H468 H 0.76137 0.67329 0.30761 0.0
H469 H 0.69891 0.59418 0.11342 0.0
H470 H 0.73809 0.73676 0.25446 0.0
H471 H 0.70443 0.70991 0.33295 0.0
H472 H 0.7503 0.71961 0.34761 0.0
H473 H 0.65015 0.5934 0.04176 0.0
H474 H 0.62841 0.61437 0.09831 0.0
H475 H 0.66097 0.63887 0.01569 0.0
H476 H 0.59983 0.69307 0.23668 0.0
H477 H 0.6785 0.75534 0.04125 0.0
H478 H 0.64485 0.65548 0.33422 0.0
H479 H 0.6203 0.62274 0.25207 0.0
H480 H 0.5993 0.64445 0.30859 0.0
H481 H 0.74222 0.73238 0.09386 0.0
H482 H 0.7248 0.74432 1.00076 0.0
H483 H 0.71528 0.69852 0.01595 0.0
C484 C 0.93341 0.61804 0.36912 0.0
C485 C 0.91885 0.6316 0.30784 0.0
C486 C 0.97094 0.63485 0.38285 0.0
C487 C 0.99457 0.66607 0.33443 0.0
C488 C 0.98014 0.67935 0.27101 0.0
C489 C 0.94256 0.66194 0.25835 0.0
C490 C 0.98525 0.6197 0.45063 0.0
C491 C 1.00435 0.71257 0.218 0.0
C492 C 0.08639 0.73423 0.42712 0.0
C493 C 0.11 0.72721 0.37844 0.0
C494 C 0.0488 0.71404 0.41471 0.0
C495 C 0.03425 0.68591 0.35241 0.0
C496 C 0.05778 0.67791 0.3049 0.0
C497 C 0.09533 0.69866 0.31833 0.0
C498 C 0.0247 0.72351 0.4667 0.0
C499 C 0.04334 0.64797 0.23837 0.0
H500 H 0.91543 0.59457 0.40755 0.0
H501 H 0.93175 0.67266 0.21064 0.0
H502 H 1.00619 0.61473 0.42192 0.0
H503 H 0.99831 0.63962 0.50374 0.0
H504 H 0.96359 0.59403 0.47903 0.0
H505 H 0.98906 0.71865 0.16898 0.0
H506 H 0.01869 0.73629 0.26154 0.0
H507 H 0.02523 0.70897 0.18401 0.0
H508 H 0.0973 0.7561 0.47392 0.0
H509 H 0.11322 0.69284 0.28058 0.0
H510 H 1.00374 0.69927 0.50135 0.0
H511 H 1.01046 0.73273 0.42237 0.0
H512 H 0.04006 0.74515 0.51506 0.0
H513 H 0.02234 0.62229 0.26794 0.0
H514 H 0.06492 0.64366 0.21076 0.0
H515 H 0.03034 0.65454 0.18456 0.0
C516 C 0.5602 0.32422 0.42779 0.0
C517 C 0.5386 0.32478 0.49574 0.0
C518 C 0.59074 0.35609 0.39919 0.0
C519 C 0.60009 0.38939 0.43973 0.0
C520 C 0.57794 0.39033 0.50684 0.0
C521 C 0.5474 0.35807 0.5338 0.0
C522 C 0.61347 0.354 0.32679 0.0
C523 C 0.58705 0.42527 0.55184 0.0
C524 C 0.69896 0.46262 0.42518 0.0
C525 C 0.69845 0.48422 0.35715 0.0
C526 C 0.66703 0.4322 0.45403 0.0
C527 C 0.63373 0.42298 0.41364 0.0
C528 C 0.63285 0.44515 0.34648 0.0
C529 C 0.66516 0.47556 0.31929 0.0
C530 C 0.66906 0.40945 0.52646 0.0
C531 C 0.59791 0.43617 0.30165 0.0
H532 H 0.55357 0.29872 0.39759 0.0
H533 H 0.53094 0.35888 0.58635 0.0
H534 H 0.61653 0.37294 0.27383 0.0
H535 H 0.64096 0.36233 0.35134 0.0
H536 H 0.6016 0.32633 0.29929 0.0
H537 H 0.56623 0.42171 0.60025 0.0
H538 H 0.61343 0.43622 0.58552 0.0
H539 H 0.58983 0.44577 0.50353 0.0
H540 H 0.72446 0.46916 0.45524 0.0
H541 H 0.66439 0.49202 0.2667 0.0
H542 H 0.66066 0.38195 0.50194 0.0
H543 H 0.65014 0.40645 0.57942 0.0
H544 H 0.69672 0.42126 0.55395 0.0
H545 H 0.58686 0.40978 0.26795 0.0
H546 H 0.60153 0.45702 0.25328 0.0
H547 H 0.57748 0.43347 0.35006 0.0
C548 C 0.24486 0.55478 0.59403 0.0
C549 C 0.22281 0.53341 0.66245 0.0
C550 C 0.24355 0.58527 0.56502 0.0
C551 C 0.21976 0.59482 0.60563 0.0
C552 C 0.19679 0.57291 0.67325 0.0
C553 C 0.19848 0.54241 0.7006 0.0
C554 C 0.26823 0.60774 0.49209 0.0
C555 C 0.17114 0.58225 0.71834 0.0
C556 C 0.24561 0.6937 0.58971 0.0
C557 C 0.22334 0.69305 0.52194 0.0
C558 C 0.2441 0.66182 0.61889 0.0
C559 C 0.21986 0.62843 0.57911 0.0
C560 C 0.19667 0.62741 0.5122 0.0
C561 C 0.19858 0.65968 0.48466 0.0
C562 C 0.26904 0.664 0.69104 0.0
C563 C 0.17053 0.59237 0.46801 0.0
H564 H 0.26359 0.54798 0.56375 0.0
H565 H 0.18131 0.52614 0.75352 0.0
H566 H 0.25225 0.61068 0.43923 0.0
H567 H 0.28751 0.63529 0.51609 0.0
H568 H 0.2839 0.59573 0.46462 0.0
H569 H 0.15398 0.56161 0.76721 0.0
H570 H 0.18672 0.60873 0.75149 0.0
H571 H 0.15332 0.58491 0.67015 0.0
H572 H 0.26469 0.71926 0.61932 0.0
H573 H 0.18122 0.6588 0.43228 0.0
H574 H 0.28802 0.65544 0.66643 0.0
H575 H 0.25322 0.64527 0.7444 0.0
H576 H 0.28505 0.69173 0.718 0.0
H577 H 0.18573 0.58115 0.43436 0.0
H578 H 0.15323 0.5959 0.41972 0.0
H579 H 0.15286 0.5721 0.51682 0.0
C580 C 0.66459 0.1936 0.86731 0.0
C581 C 0.69802 0.2185 0.83043 0.0
C582 C 0.63237 0.19179 0.83979 0.0
C583 C 0.6335 0.21522 0.77332 0.0
C584 C 0.66697 0.23966 0.73407 0.0
C585 C 0.6988 0.24107 0.7632 0.0
C586 C 0.59724 0.16544 0.88341 0.0
C587 C 0.66927 0.26488 0.66243 0.0
C588 C 0.54782 0.19397 0.65066 0.0
C589 C 0.53859 0.21809 0.689 0.0
C590 C 0.57829 0.19231 0.67835 0.0
C591 C 0.59991 0.21507 0.74651 0.0
C592 C 0.59011 0.23862 0.78733 0.0
C593 C 0.55967 0.23993 0.75795 0.0
C594 C 0.58791 0.16691 0.63301 0.0
C595 C 0.61226 0.26307 0.86084 0.0
H596 H 0.66361 0.17603 0.91929 0.0
H597 H 0.72441 0.26025 0.73391 0.0
H598 H 0.58581 0.18045 0.917 0.0
H599 H 0.57716 0.14783 0.83425 0.0
H600 H 0.60071 0.14808 0.93165 0.0
H601 H 0.6971 0.28112 0.63604 0.0
H602 H 0.65079 0.24923 0.60859 0.0
H603 H 0.66048 0.28363 0.6873 0.0
H604 H 0.53178 0.17697 0.59733 0.0
H605 H 0.55268 0.25849 0.78838 0.0
H606 H 0.59049 0.14896 0.68099 0.0
H607 H 0.6145 0.18269 0.60036 0.0
H608 H 0.56747 0.14988 0.58369 0.0
H609 H 0.61512 0.24694 0.91347 0.0
H610 H 0.60004 0.27852 0.88845 0.0
H611 H 0.63986 0.28254 0.83738 0.0
C612 C 0.46782 0.6931 0.92557 0.0
C613 C 0.48931 0.69251 0.99375 0.0
C614 C 0.4373 0.66125 0.8969 0.0
C615 C 0.42786 0.62794 0.93761 0.0
C616 C 0.4499 0.62697 1.00495 0.0
C617 C 0.48042 0.65921 0.03196 0.0
C618 C 0.4147 0.66336 0.82426 0.0
C619 C 0.44068 0.59202 0.05013 0.0
C620 C 0.32897 0.55479 0.92301 0.0
C621 C 0.32951 0.53312 0.85522 0.0
C622 C 0.36089 0.58521 0.95176 0.0
C623 C 0.39421 0.59438 0.91153 0.0
C624 C 0.39512 0.57215 0.8446 0.0
C625 C 0.36281 0.54173 0.81749 0.0
C626 C 0.35883 0.60803 0.02395 0.0
C627 C 0.43008 0.58106 0.79994 0.0
H628 H 0.47452 0.71861 0.89525 0.0
H629 H 0.49679 0.65839 0.08468 0.0
H630 H 0.41167 0.64439 0.77145 0.0
H631 H 0.38719 0.65509 0.84862 0.0
H632 H 0.42664 0.69102 0.79662 0.0
H633 H 0.46143 0.59556 0.09869 0.0
H634 H 0.41427 0.58111 0.08368 0.0
H635 H 0.43793 0.5715 1.00195 0.0
H636 H 0.30346 0.5483 0.95296 0.0
H637 H 0.36361 0.52522 0.76508 0.0
H638 H 0.36731 0.63554 0.99924 0.0
H639 H 0.37767 0.61101 0.07706 0.0
H640 H 0.33114 0.59628 0.0513 0.0
H641 H 0.44121 0.60744 0.76611 0.0
H642 H 0.42648 0.56018 0.75172 0.0
H643 H 0.45046 0.58374 0.84848 0.0
C644 C 0.82954 0.47486 0.20359 0.0
C645 C 0.80527 0.48384 0.16503 0.0
C646 C 0.83129 0.44436 0.17657 0.0
C647 C 0.80846 0.42243 0.10886 0.0
C648 C 0.7847 0.43195 0.06791 0.0
C649 C 0.78332 0.46243 0.0966 0.0
C650 C 0.85689 0.43506 0.22206 0.0
C651 C 0.76016 0.40946 0.99488 0.0
C652 C 0.83 0.35779 0.98812 0.0
C653 C 0.80517 0.32436 0.0251 0.0
C654 C 0.83184 0.39001 0.01576 0.0
C655 C 0.8085 0.38888 0.08247 0.0
C656 C 0.78423 0.35543 0.12205 0.0
C657 C 0.78279 0.3236 0.09279 0.0
C658 C 0.85803 0.42512 0.9718 0.0
C659 C 0.75915 0.35313 0.19402 0.0
H660 H 0.84662 0.49116 0.25654 0.0
H661 H 0.76462 0.46921 0.06603 0.0
H662 H 0.84128 0.40854 0.25511 0.0
H663 H 0.87485 0.43249 0.17412 0.0
H664 H 0.87391 0.45568 0.27107 0.0
H665 H 0.74446 0.4214 0.96724 0.0
H666 H 0.77627 0.40662 0.94215 0.0
H667 H 0.74092 0.38188 0.01883 0.0
H668 H 0.84744 0.35876 0.93582 0.0
H669 H 0.76367 0.29799 0.12218 0.0
H670 H 0.87554 0.44537 0.02077 0.0
H671 H 0.84286 0.4363 0.93785 0.0
H672 H 0.87549 0.42169 0.92379 0.0
H673 H 0.77484 0.37188 0.24741 0.0
H674 H 0.7432 0.32538 0.221 0.0
H675 H 0.74012 0.36158 0.1692 0.0
C676 C 0.46794 0.77728 0.25488 0.0
C677 C 0.48935 0.79934 0.18652 0.0
C678 C 0.43753 0.77871 0.28403 0.0
C679 C 0.4281 0.80263 0.24361 0.0
C680 C 0.45005 0.82559 0.17604 0.0
C681 C 0.48047 0.82379 0.14855 0.0
C682 C 0.41502 0.75402 0.3569 0.0
C683 C 0.44084 0.85138 0.13113 0.0
C684 C 0.32935 0.77724 0.2597 0.0
C685 C 0.33013 0.79955 0.32754 0.0
C686 C 0.36114 0.77858 0.23049 0.0
C687 C 0.39458 0.80267 0.27029 0.0
C688 C 0.39573 0.82589 0.3373 0.0
C689 C 0.36355 0.82416 0.36488 0.0
C690 C 0.35882 0.75362 0.15823 0.0
C691 C 0.43082 0.85187 0.38152 0.0
H692 H 0.47465 0.75845 0.28501 0.0
H693 H 0.49678 0.84097 0.09569 0.0
H694 H 0.41218 0.77001 0.40988 0.0
H695 H 0.38744 0.73485 0.3329 0.0
H696 H 0.42693 0.73823 0.3842 0.0
H697 H 0.46149 0.86851 0.08224 0.0
H698 H 0.41433 0.83591 0.09806 0.0
H699 H 0.43831 0.86924 0.17944 0.0
H700 H 0.30375 0.75829 0.23005 0.0
H701 H 0.36452 0.84153 0.41732 0.0
H702 H 0.36728 0.73455 0.1827 0.0
H703 H 0.37756 0.76942 0.10486 0.0
H704 H 0.33107 0.73772 0.13132 0.0
H705 H 0.44195 0.83655 0.41497 0.0
H706 H 0.42739 0.86918 0.42998 0.0
H707 H 0.45111 0.86954 0.33274 0.0
loop_
_geom_bond_atom_site_label_1
_geom_bond_atom_site_label_2
_geom_bond_distance
_geom_bond_site_symmetry_2
_ccdc_geom_bond_type
Fe0 O2 1.918 . S
Fe0 O5 1.997 . S
Fe0 O6 2.002 . S
Fe0 O11 1.976 . S
Fe0 O14 1.996 . S
Fe1 O2 1.918 . S
Fe1 O9 1.997 . S
Fe1 O12 1.996 . S
Fe1 O16 1.976 . S
Fe1 O19 2.002 . S
O2 Fe0 1.918 . S
O2 Fe1 1.918 . S
O2 Fe3 1.918 . S
Fe3 O2 1.918 . S
Fe3 O4 2.002 . S
Fe3 O13 1.976 . S
Fe3 O17 1.996 . S
Fe3 O20 1.997 . S
O4 Fe3 2.002 . S
O4 C21 1.295 . S
O5 Fe0 1.997 . S
O5 C21 1.235 . S
O6 Fe0 2.002 . S
O6 C7 1.295 . S
C7 O6 1.295 . S
C7 O9 1.235 . S
C8 O13 1.287 . S
C8 O14 1.255 . S
O9 Fe1 1.997 . S
O9 C7 1.235 . S
C10 O16 1.287 . S
C10 O17 1.255 . S
O11 Fe0 1.976 . S
O11 C18 1.287 . S
O12 Fe1 1.996 . S
O12 C18 1.255 . S
O13 Fe3 1.976 . S
O13 C8 1.287 . S
O14 Fe0 1.996 . S
O14 C8 1.255 . S
C15 O19 1.295 . S
C15 O20 1.235 . S
O16 Fe1 1.976 . S
O16 C10 1.287 . S
O17 Fe3 1.996 . S
O17 C10 1.255 . S
C18 O11 1.287 . S
C18 O12 1.255 . S
O19 Fe1 2.002 . S
O19 C15 1.295 . S
O20 Fe3 1.997 . S
O20 C15 1.235 . S
C21 O4 1.295 . S
C21 O5 1.235 . S
Fe22 O24 1.918 . S
Fe22 O27 1.997 . S
Fe22 O28 2.002 . S
Fe22 O33 1.976 . S
Fe22 O36 1.996 . S
Fe23 O24 1.918 . S
Fe23 O31 1.997 . S
Fe23 O34 1.996 . S
Fe23 O38 1.976 . S
Fe23 O41 2.002 . S
O24 Fe22 1.918 . S
O24 Fe23 1.918 . S
O24 Fe25 1.918 . S
Fe25 O24 1.918 . S
Fe25 O26 2.002 . S
Fe25 O35 1.976 . S
Fe25 O39 1.996 . S
Fe25 O42 1.997 . S
O26 Fe25 2.002 . S
O26 C43 1.295 . S
O27 Fe22 1.997 . S
O27 C43 1.235 . S
O28 Fe22 2.002 . S
O28 C29 1.295 . S
C29 O28 1.295 . S
C29 O31 1.235 . S
C30 O35 1.287 . S
C30 O36 1.255 . S
O31 Fe23 1.997 . S
O31 C29 1.235 . S
C32 O38 1.287 . S
C32 O39 1.255 . S
O33 Fe22 1.976 . S
O33 C40 1.287 . S
O34 Fe23 1.996 . S
O34 C40 1.255 . S
O35 Fe25 1.976 . S
O35 C30 1.287 . S
O36 Fe22 1.996 . S
O36 C30 1.255 . S
C37 O41 1.295 . S
C37 O42 1.235 . S
O38 Fe23 1.976 . S
O38 C32 1.287 . S
O39 Fe25 1.996 . S
O39 C32 1.255 . S
C40 O33 1.287 . S
C40 O34 1.255 . S
O41 Fe23 2.002 . S
O41 C37 1.295 . S
O42 Fe25 1.997 . S
O42 C37 1.235 . S
C43 O26 1.295 . S
C43 O27 1.235 . S
Fe44 O46 1.918 . S
Fe44 O49 1.997 1_556 S
Fe44 O50 2.002 . S
Fe44 O55 1.976 . S
Fe44 O58 1.996 . S
Fe45 O46 1.918 . S
Fe45 O53 1.997 . S
Fe45 O56 1.996 . S
Fe45 O60 1.976 . S
Fe45 O63 2.002 . S
O46 Fe44 1.918 . S
O46 Fe45 1.918 . S
O46 Fe47 1.918 . S
Fe47 O46 1.918 . S
Fe47 O48 2.002 1_556 S
Fe47 O57 1.976 . S
Fe47 O61 1.996 . S
Fe47 O64 1.997 1_556 S
O48 Fe47 2.002 1_554 S
O48 C65 1.295 . S
O49 Fe44 1.997 1_554 S
O49 C65 1.235 . S
O50 Fe44 2.002 . S
O50 C51 1.295 . S
C51 O50 1.295 . S
C51 O53 1.235 . S
C52 O57 1.287 . S
C52 O58 1.255 . S
O53 Fe45 1.997 . S
O53 C51 1.235 . S
C54 O60 1.287 . S
C54 O61 1.255 . S
O55 Fe44 1.976 . S
O55 C62 1.287 . S
O56 Fe45 1.996 . S
O56 C62 1.255 . S
O57 Fe47 1.976 . S
O57 C52 1.287 . S
O58 Fe44 1.996 . S
O58 C52 1.255 . S
C59 O63 1.295 . S
C59 O64 1.235 1_556 S
O60 Fe45 1.976 . S
O60 C54 1.287 . S
O61 Fe47 1.996 . S
O61 C54 1.255 . S
C62 O55 1.287 . S
C62 O56 1.255 . S
O63 Fe45 2.002 . S
O63 C59 1.295 . S
O64 Fe47 1.997 1_554 S
O64 C59 1.235 1_554 S
C65 O48 1.295 . S
C65 O49 1.235 . S
Fe66 O68 1.918 . S
Fe66 O71 1.997 . S
Fe66 O72 2.002 . S
Fe66 O77 1.976 1_554 S
Fe66 O80 1.996 . S
Fe67 O68 1.918 1_556 S
Fe67 O75 1.997 1_556 S
Fe67 O78 1.996 . S
Fe67 O82 1.976 . S
Fe67 O85 2.002 1_556 S
O68 Fe66 1.918 . S
O68 Fe67 1.918 1_554 S
O68 Fe69 1.918 . S
Fe69 O68 1.918 . S
Fe69 O70 2.002 . S
Fe69 O79 1.976 . S
Fe69 O83 1.996 . S
Fe69 O86 1.997 . S
O70 Fe69 2.002 . S
O70 C87 1.295 . S
O71 Fe66 1.997 . S
O71 C87 1.235 . S
O72 Fe66 2.002 . S
O72 C73 1.295 . S
C73 O72 1.295 . S
C73 O75 1.235 . S
C74 O79 1.287 . S
C74 O80 1.255 . S
O75 Fe67 1.997 1_554 S
O75 C73 1.235 . S
C76 O82 1.287 1_554 S
C76 O83 1.255 . S
O77 Fe66 1.976 1_556 S
O77 C84 1.287 . S
O78 Fe67 1.996 . S
O78 C84 1.255 . S
O79 Fe69 1.976 . S
O79 C74 1.287 . S
O80 Fe66 1.996 . S
O80 C74 1.255 . S
C81 O85 1.295 . S
C81 O86 1.235 . S
O82 Fe67 1.976 . S
O82 C76 1.287 1_556 S
O83 Fe69 1.996 . S
O83 C76 1.255 . S
C84 O77 1.287 . S
C84 O78 1.255 . S
O85 Fe67 2.002 1_554 S
O85 C81 1.295 . S
O86 Fe69 1.997 . S
O86 C81 1.235 . S
C87 O70 1.295 . S
C87 O71 1.235 . S
Fe88 O90 1.918 . S
Fe88 O93 1.997 . S
Fe88 O94 2.002 . S
Fe88 O99 1.976 . S
Fe88 O102 1.996 . S
Fe89 O90 1.918 . S
Fe89 O97 1.997 . S
Fe89 O100 1.996 . S
Fe89 O104 1.976 . S
Fe89 O107 2.002 . S
O90 Fe88 1.918 . S
O90 Fe89 1.918 . S
O90 Fe91 1.918 . S
Fe91 O90 1.918 . S
Fe91 O92 2.002 . S
Fe91 O101 1.976 . S
Fe91 O105 1.996 . S
Fe91 O108 1.997 . S
O92 Fe91 2.002 . S
O92 C109 1.295 . S
O93 Fe88 1.997 . S
O93 C109 1.235 . S
O94 Fe88 2.002 . S
O94 C95 1.295 . S
C95 O94 1.295 . S
C95 O97 1.235 . S
C96 O101 1.287 . S
C96 O102 1.255 . S
O97 Fe89 1.997 . S
O97 C95 1.235 . S
C98 O104 1.287 . S
C98 O105 1.255 . S
O99 Fe88 1.976 . S
O99 C106 1.287 . S
O100 Fe89 1.996 . S
O100 C106 1.255 . S
O101 Fe91 1.976 . S
O101 C96 1.287 . S
O102 Fe88 1.996 . S
O102 C96 1.255 . S
C103 O107 1.295 . S
C103 O108 1.235 . S
O104 Fe89 1.976 . S
O104 C98 1.287 . S
O105 Fe91 1.996 . S
O105 C98 1.255 . S
C106 O99 1.287 . S
C106 O100 1.255 . S
O107 Fe89 2.002 . S
O107 C103 1.295 . S
O108 Fe91 1.997 . S
O108 C103 1.235 . S
C109 O92 1.295 . S
C109 O93 1.235 . S
Fe110 O112 1.918 . S
Fe110 O115 1.997 . S
Fe110 O116 2.002 . S
Fe110 O121 1.976 . S
Fe110 O124 1.996 . S
Fe111 O112 1.918 . S
Fe111 O119 1.997 . S
Fe111 O122 1.996 . S
Fe111 O126 1.976 . S
Fe111 O129 2.002 . S
O112 Fe110 1.918 . S
O112 Fe111 1.918 . S
O112 Fe113 1.918 . S
Fe113 O112 1.918 . S
Fe113 O114 2.002 . S
Fe113 O123 1.976 . S
Fe113 O127 1.996 . S
Fe113 O130 1.997 . S
O114 Fe113 2.002 . S
O114 C131 1.295 . S
O115 Fe110 1.997 . S
O115 C131 1.235 . S
O116 Fe110 2.002 . S
O116 C117 1.295 . S
C117 O116 1.295 . S
C117 O119 1.235 . S
C118 O123 1.287 . S
C118 O124 1.255 . S
O119 Fe111 1.997 . S
O119 C117 1.235 . S
C120 O126 1.287 . S
C120 O127 1.255 . S
O121 Fe110 1.976 . S
O121 C128 1.287 . S
O122 Fe111 1.996 . S
O122 C128 1.255 . S
O123 Fe113 1.976 . S
O123 C118 1.287 . S
O124 Fe110 1.996 . S
O124 C118 1.255 . S
C125 O129 1.295 . S
C125 O130 1.235 . S
O126 Fe111 1.976 . S
O126 C120 1.287 . S
O127 Fe113 1.996 . S
O127 C120 1.255 . S
C128 O121 1.287 . S
C128 O122 1.255 . S
O129 Fe111 2.002 . S
O129 C125 1.295 . S
O130 Fe113 1.997 . S
O130 C125 1.235 . S
C131 O114 1.295 . S
C131 O115 1.235 . S
C132 C133 1.391 . S
C132 C134 1.394 . S
C132 H148 0.931 . S
C133 C132 1.391 . S
C133 C137 1.376 . S
C134 C132 1.394 . S
C134 C135 1.369 . S
C134 C138 1.531 . S
C135 C134 1.369 . S
C135 C136 1.410 . S
C135 C143 1.503 . S
C136 C135 1.410 . S
C136 C137 1.392 . S
C136 C139 1.511 . S
C137 C133 1.376 . S
C137 C136 1.392 . S
C137 H149 0.929 . S
C138 C134 1.531 . S
C138 H150 0.960 . S
C138 H151 0.962 . S
C138 H152 0.960 . S
C139 C136 1.511 . S
C139 H153 0.961 . S
C139 H154 0.961 . S
C139 H155 0.961 . S
C140 C141 1.370 . S
C140 C142 1.363 . S
C140 H156 0.931 . S
C141 C140 1.370 . S
C141 C145 1.408 . S
C142 C140 1.363 . S
C142 C143 1.370 1_556 S
C142 C146 1.524 1_556 S
C143 C135 1.503 . S
C143 C142 1.370 1_554 S
C143 C144 1.403 1_554 S
C144 C143 1.403 1_556 S
C144 C145 1.404 . S
C144 C147 1.539 1_556 S
C145 C141 1.408 . S
C145 C144 1.404 . S
C145 H157 0.930 . S
C146 C142 1.524 1_554 S
C146 H158 0.956 . S
C146 H159 0.961 . S
C146 H160 0.961 . S
C147 C144 1.539 1_554 S
C147 H161 0.958 . S
C147 H162 0.961 1_554 S
C147 H163 0.960 . S
H148 C132 0.931 . S
H149 C137 0.929 . S
H150 C138 0.960 . S
H151 C138 0.962 . S
H152 C138 0.960 . S
H153 C139 0.961 . S
H154 C139 0.961 . S
H155 C139 0.961 . S
H156 C140 0.931 . S
H157 C145 0.930 . S
H158 C146 0.956 . S
H159 C146 0.961 . S
H160 C146 0.961 . S
H161 C147 0.958 . S
H162 C147 0.961 1_556 S
H163 C147 0.960 . S
C164 C165 1.391 . S
C164 C166 1.394 . S
C164 H180 0.931 . S
C165 C164 1.391 . S
C165 C169 1.376 . S
C166 C164 1.394 . S
C166 C167 1.369 . S
C166 C170 1.531 . S
C167 C166 1.369 . S
C167 C168 1.410 . S
C167 C175 1.503 . S
C168 C167 1.410 . S
C168 C169 1.392 . S
C168 C171 1.511 . S
C169 C165 1.376 . S
C169 C168 1.392 . S
C169 H181 0.929 . S
C170 C166 1.531 . S
C170 H182 0.960 . S
C170 H183 0.962 . S
C170 H184 0.960 . S
C171 C168 1.511 . S
C171 H185 0.961 . S
C171 H186 0.961 . S
C171 H187 0.961 . S
C172 C173 1.370 . S
C172 C174 1.363 . S
C172 H188 0.931 . S
C173 C172 1.370 . S
C173 C177 1.408 . S
C174 C172 1.363 . S
C174 C175 1.370 . S
C174 C178 1.524 . S
C175 C167 1.503 . S
C175 C174 1.370 . S
C175 C176 1.403 . S
C176 C175 1.403 . S
C176 C177 1.404 . S
C176 C179 1.539 . S
C177 C173 1.408 . S
C177 C176 1.404 . S
C177 H189 0.930 . S
C178 C174 1.524 . S
C178 H190 0.956 . S
C178 H191 0.961 . S
C178 H192 0.961 . S
C179 C176 1.539 . S
C179 H193 0.958 . S
C179 H194 0.961 . S
C179 H195 0.960 . S
H180 C164 0.931 . S
H181 C169 0.929 . S
H182 C170 0.960 . S
H183 C170 0.962 . S
H184 C170 0.960 . S
H185 C171 0.961 . S
H186 C171 0.961 . S
H187 C171 0.961 . S
H188 C172 0.931 . S
H189 C177 0.930 . S
H190 C178 0.956 . S
H191 C178 0.961 . S
H192 C178 0.961 . S
H193 C179 0.958 . S
H194 C179 0.961 . S
H195 C179 0.960 . S
C196 C197 1.391 . S
C196 C198 1.394 . S
C196 H212 0.931 . S
C197 C196 1.391 . S
C197 C201 1.376 . S
C198 C196 1.394 . S
C198 C199 1.369 . S
C198 C202 1.531 . S
C199 C198 1.369 . S
C199 C200 1.410 . S
C199 C207 1.503 . S
C200 C199 1.410 . S
C200 C201 1.392 . S
C200 C203 1.511 . S
C201 C197 1.376 . S
C201 C200 1.392 . S
C201 H213 0.929 . S
C202 C198 1.531 . S
C202 H214 0.960 . S
C202 H215 0.962 . S
C202 H216 0.960 . S
C203 C200 1.511 . S
C203 H217 0.961 . S
C203 H218 0.961 . S
C203 H219 0.961 . S
C204 C205 1.370 . S
C204 C206 1.363 . S
C204 H220 0.931 . S
C205 C204 1.370 . S
C205 C209 1.408 . S
C206 C204 1.363 . S
C206 C207 1.370 . S
C206 C210 1.524 . S
C207 C199 1.503 . S
C207 C206 1.370 . S
C207 C208 1.403 . S
C208 C207 1.403 . S
C208 C209 1.404 . S
C208 C211 1.539 . S
C209 C205 1.408 . S
C209 C208 1.404 . S
C209 H221 0.930 . S
C210 C206 1.524 . S
C210 H222 0.956 . S
C210 H223 0.961 . S
C210 H224 0.961 . S
C211 C208 1.539 . S
C211 H225 0.958 . S
C211 H226 0.961 . S
C211 H227 0.960 . S
H212 C196 0.931 . S
H213 C201 0.929 . S
H214 C202 0.960 . S
H215 C202 0.962 . S
H216 C202 0.960 . S
H217 C203 0.961 . S
H218 C203 0.961 . S
H219 C203 0.961 . S
H220 C204 0.931 . S
H221 C209 0.930 . S
H222 C210 0.956 . S
H223 C210 0.961 . S
H224 C210 0.961 . S
H225 C211 0.958 . S
H226 C211 0.961 . S
H227 C211 0.960 . S
C228 C229 1.391 . S
C228 C230 1.394 . S
C228 H244 0.931 . S
C229 C228 1.391 . S
C229 C233 1.376 . S
C230 C228 1.394 . S
C230 C231 1.369 . S
C230 C234 1.531 . S
C231 C230 1.369 . S
C231 C232 1.410 . S
C231 C239 1.503 . S
C232 C231 1.410 . S
C232 C233 1.392 . S
C232 C235 1.511 . S
C233 C229 1.376 . S
C233 C232 1.392 . S
C233 H245 0.929 . S
C234 C230 1.531 . S
C234 H246 0.960 . S
C234 H247 0.962 . S
C234 H248 0.960 . S
C235 C232 1.511 . S
C235 H249 0.961 . S
C235 H250 0.961 . S
C235 H251 0.961 . S
C236 C237 1.370 . S
C236 C238 1.363 . S
C236 H252 0.931 . S
C237 C236 1.370 . S
C237 C241 1.408 . S
C238 C236 1.363 . S
C238 C239 1.370 . S
C238 C242 1.524 . S
C239 C231 1.503 . S
C239 C238 1.370 . S
C239 C240 1.403 . S
C240 C239 1.403 . S
C240 C241 1.404 . S
C240 C243 1.539 . S
C241 C237 1.408 . S
C241 C240 1.404 . S
C241 H253 0.930 . S
C242 C238 1.524 . S
C242 H254 0.956 . S
C242 H255 0.961 . S
C242 H256 0.961 . S
C243 C240 1.539 . S
C243 H257 0.958 . S
C243 H258 0.961 . S
C243 H259 0.960 . S
H244 C228 0.931 . S
H245 C233 0.929 . S
H246 C234 0.960 . S
H247 C234 0.962 . S
H248 C234 0.960 . S
H249 C235 0.961 . S
H250 C235 0.961 . S
H251 C235 0.961 . S
H252 C236 0.931 . S
H253 C241 0.930 . S
H254 C242 0.956 . S
H255 C242 0.961 . S
H256 C242 0.961 . S
H257 C243 0.958 . S
H258 C243 0.961 . S
H259 C243 0.960 . S
C260 C261 1.391 . S
C260 C262 1.394 . S
C260 H276 0.931 . S
C261 C260 1.391 . S
C261 C265 1.376 . S
C262 C260 1.394 . S
C262 C263 1.369 . S
C262 C266 1.531 . S
C263 C262 1.369 . S
C263 C264 1.410 . S
C263 C271 1.503 . S
C264 C263 1.410 . S
C264 C265 1.392 . S
C264 C267 1.511 . S
C265 C261 1.376 . S
C265 C264 1.392 . S
C265 H277 0.929 . S
C266 C262 1.531 . S
C266 H278 0.960 . S
C266 H279 0.962 . S
C266 H280 0.960 . S
C267 C264 1.511 . S
C267 H281 0.961 . S
C267 H282 0.961 . S
C267 H283 0.961 . S
C268 C269 1.370 . S
C268 C270 1.363 . S
C268 H284 0.931 . S
C269 C268 1.370 . S
C269 C273 1.408 . S
C270 C268 1.363 . S
C270 C271 1.370 . S
C270 C274 1.524 . S
C271 C263 1.503 . S
C271 C270 1.370 . S
C271 C272 1.403 . S
C272 C271 1.403 . S
C272 C273 1.404 . S
C272 C275 1.539 . S
C273 C269 1.408 . S
C273 C272 1.404 . S
C273 H285 0.930 . S
C274 C270 1.524 . S
C274 H286 0.956 . S
C274 H287 0.961 . S
C274 H288 0.961 . S
C275 C272 1.539 . S
C275 H289 0.958 . S
C275 H290 0.961 . S
C275 H291 0.960 . S
H276 C260 0.931 . S
H277 C265 0.929 . S
H278 C266 0.960 . S
H279 C266 0.962 . S
H280 C266 0.960 . S
H281 C267 0.961 . S
H282 C267 0.961 . S
H283 C267 0.961 . S
H284 C268 0.931 . S
H285 C273 0.930 . S
H286 C274 0.956 . S
H287 C274 0.961 . S
H288 C274 0.961 . S
H289 C275 0.958 . S
H290 C275 0.961 . S
H291 C275 0.960 . S
C292 C293 1.391 . S
C292 C294 1.394 . S
C292 H308 0.931 . S
C293 C292 1.391 . S
C293 C297 1.376 . S
C294 C292 1.394 . S
C294 C295 1.369 1_554 S
C294 C298 1.531 1_554 S
C295 C294 1.369 1_556 S
C295 C296 1.410 1_556 S
C295 C303 1.503 . S
C296 C295 1.410 1_554 S
C296 C297 1.392 . S
C296 C299 1.511 1_554 S
C297 C293 1.376 . S
C297 C296 1.392 . S
C297 H309 0.929 . S
C298 C294 1.531 1_556 S
C298 H310 0.960 . S
C298 H311 0.962 . S
C298 H312 0.960 . S
C299 C296 1.511 1_556 S
C299 H313 0.961 . S
C299 H314 0.961 . S
C299 H315 0.961 . S
C300 C301 1.370 . S
C300 C302 1.363 . S
C300 H316 0.931 . S
C301 C300 1.370 . S
C301 C305 1.408 . S
C302 C300 1.363 . S
C302 C303 1.370 . S
C302 C306 1.524 . S
C303 C295 1.503 . S
C303 C302 1.370 . S
C303 C304 1.403 . S
C304 C303 1.403 . S
C304 C305 1.404 . S
C304 C307 1.539 . S
C305 C301 1.408 . S
C305 C304 1.404 . S
C305 H317 0.930 . S
C306 C302 1.524 . S
C306 H318 0.956 . S
C306 H319 0.961 . S
C306 H320 0.961 . S
C307 C304 1.539 . S
C307 H321 0.958 . S
C307 H322 0.961 . S
C307 H323 0.960 . S
H308 C292 0.931 . S
H309 C297 0.929 . S
H310 C298 0.960 . S
H311 C298 0.962 . S
H312 C298 0.960 . S
H313 C299 0.961 . S
H314 C299 0.961 . S
H315 C299 0.961 . S
H316 C300 0.931 . S
H317 C305 0.930 . S
H318 C306 0.956 . S
H319 C306 0.961 . S
H320 C306 0.961 . S
H321 C307 0.958 . S
H322 C307 0.961 . S
H323 C307 0.960 . S
C324 C325 1.391 . S
C324 C326 1.394 . S
C324 H340 0.931 . S
C325 C324 1.391 . S
C325 C329 1.376 . S
C326 C324 1.394 . S
C326 C327 1.369 . S
C326 C330 1.531 . S
C327 C326 1.369 . S
C327 C328 1.410 . S
C327 C335 1.503 1_545 S
C328 C327 1.410 . S
C328 C329 1.392 . S
C328 C331 1.511 . S
C329 C325 1.376 . S
C329 C328 1.392 . S
C329 H341 0.929 . S
C330 C326 1.531 . S
C330 H342 0.960 . S
C330 H343 0.962 . S
C330 H344 0.960 . S
C331 C328 1.511 . S
C331 H345 0.961 . S
C331 H346 0.961 1_545 S
C331 H347 0.961 . S
C332 C333 1.370 . S
C332 C334 1.363 . S
C332 H348 0.931 . S
C333 C332 1.370 . S
C333 C337 1.408 . S
C334 C332 1.363 . S
C334 C335 1.370 . S
C334 C338 1.524 . S
C335 C327 1.503 1_565 S
C335 C334 1.370 . S
C335 C336 1.403 . S
C336 C335 1.403 . S
C336 C337 1.404 . S
C336 C339 1.539 . S
C337 C333 1.408 . S
C337 C336 1.404 . S
C337 H349 0.930 . S
C338 C334 1.524 . S
C338 H350 0.956 . S
C338 H351 0.961 . S
C338 H352 0.961 . S
C339 C336 1.539 . S
C339 H353 0.958 . S
C339 H354 0.961 . S
C339 H355 0.960 1_565 S
H340 C324 0.931 . S
H341 C329 0.929 . S
H342 C330 0.960 . S
H343 C330 0.962 . S
H344 C330 0.960 . S
H345 C331 0.961 . S
H346 C331 0.961 1_565 S
H347 C331 0.961 . S
H348 C332 0.931 . S
H349 C337 0.930 . S
H350 C338 0.956 . S
H351 C338 0.961 . S
H352 C338 0.961 . S
H353 C339 0.958 . S
H354 C339 0.961 . S
H355 C339 0.960 1_545 S
C356 C357 1.391 . S
C356 C358 1.394 . S
C356 H372 0.931 . S
C357 C356 1.391 . S
C357 C361 1.376 . S
C358 C356 1.394 . S
C358 C359 1.369 . S
C358 C362 1.531 . S
C359 C358 1.369 . S
C359 C360 1.410 . S
C359 C367 1.503 . S
C360 C359 1.410 . S
C360 C361 1.392 . S
C360 C363 1.511 . S
C361 C357 1.376 . S
C361 C360 1.392 . S
C361 H373 0.929 . S
C362 C358 1.531 . S
C362 H374 0.960 . S
C362 H375 0.962 . S
C362 H376 0.960 . S
C363 C360 1.511 . S
C363 H377 0.961 . S
C363 H378 0.961 . S
C363 H379 0.961 . S
C364 C365 1.370 . S
C364 C366 1.363 . S
C364 H380 0.931 . S
C365 C364 1.370 . S
C365 C369 1.408 . S
C366 C364 1.363 . S
C366 C367 1.370 . S
C366 C370 1.524 . S
C367 C359 1.503 . S
C367 C366 1.370 . S
C367 C368 1.403 . S
C368 C367 1.403 . S
C368 C369 1.404 . S
C368 C371 1.539 . S
C369 C365 1.408 . S
C369 C368 1.404 . S
C369 H381 0.930 . S
C370 C366 1.524 . S
C370 H382 0.956 . S
C370 H383 0.961 . S
C370 H384 0.961 . S
C371 C368 1.539 . S
C371 H385 0.958 . S
C371 H386 0.961 . S
C371 H387 0.960 . S
H372 C356 0.931 . S
H373 C361 0.929 . S
H374 C362 0.960 . S
H375 C362 0.962 . S
H376 C362 0.960 . S
H377 C363 0.961 . S
H378 C363 0.961 . S
H379 C363 0.961 . S
H380 C364 0.931 . S
H381 C369 0.930 . S
H382 C370 0.956 . S
H383 C370 0.961 . S
H384 C370 0.961 . S
H385 C371 0.958 . S
H386 C371 0.961 . S
H387 C371 0.960 . S
C388 C389 1.391 . S
C388 C390 1.394 . S
C388 H404 0.931 . S
C389 C388 1.391 . S
C389 C393 1.376 . S
C390 C388 1.394 . S
C390 C391 1.369 . S
C390 C394 1.531 1_556 S
C391 C390 1.369 . S
C391 C392 1.410 . S
C391 C399 1.503 1_655 S
C392 C391 1.410 . S
C392 C393 1.392 . S
C392 C395 1.511 . S
C393 C389 1.376 . S
C393 C392 1.392 . S
C393 H405 0.929 . S
C394 C390 1.531 1_554 S
C394 H406 0.960 1_654 S
C394 H407 0.962 . S
C394 H408 0.960 . S
C395 C392 1.511 . S
C395 H409 0.961 . S
C395 H410 0.961 . S
C395 H411 0.961 . S
C396 C397 1.370 . S
C396 C398 1.363 . S
C396 H412 0.931 . S
C397 C396 1.370 . S
C397 C401 1.408 . S
C398 C396 1.363 . S
C398 C399 1.370 . S
C398 C402 1.524 . S
C399 C391 1.503 1_455 S
C399 C398 1.370 . S
C399 C400 1.403 . S
C400 C399 1.403 . S
C400 C401 1.404 . S
C400 C403 1.539 . S
C401 C397 1.408 . S
C401 C400 1.404 . S
C401 H413 0.930 . S
C402 C398 1.524 . S
C402 H414 0.967 . S
C402 H415 0.961 1_455 S
C402 H416 0.961 . S
C403 C400 1.539 . S
C403 H417 0.958 . S
C403 H418 0.961 . S
C403 H419 0.960 1_455 S
H404 C388 0.931 . S
H405 C393 0.929 . S
H406 C394 0.960 1_456 S
H407 C394 0.962 . S
H408 C394 0.960 . S
H409 C395 0.961 . S
H410 C395 0.961 . S
H411 C395 0.961 . S
H412 C396 0.931 . S
H413 C401 0.930 . S
H414 C402 0.967 . S
H415 C402 0.961 1_655 S
H416 C402 0.961 . S
H417 C403 0.958 . S
H418 C403 0.961 . S
H419 C403 0.960 1_655 S
C420 C421 1.391 . S
C420 C422 1.394 . S
C420 H436 0.931 . S
C421 C420 1.391 . S
C421 C425 1.376 . S
C422 C420 1.394 . S
C422 C423 1.369 . S
C422 C426 1.531 . S
C423 C422 1.369 . S
C423 C424 1.410 1_554 S
C423 C431 1.503 1_565 S
C424 C423 1.410 1_556 S
C424 C425 1.392 1_556 S
C424 C427 1.511 . S
C425 C421 1.376 . S
C425 C424 1.392 1_554 S
C425 H437 0.929 1_554 S
C426 C422 1.531 . S
C426 H438 0.960 1_565 S
C426 H439 0.962 . S
C426 H440 0.960 . S
C427 C424 1.511 . S
C427 H441 0.961 . S
C427 H442 0.961 . S
C427 H443 0.961 . S
C428 C429 1.370 . S
C428 C430 1.363 . S
C428 H444 0.931 . S
C429 C428 1.370 . S
C429 C433 1.408 1_556 S
C430 C428 1.363 . S
C430 C431 1.370 1_556 S
C430 C434 1.524 . S
C431 C423 1.503 1_545 S
C431 C430 1.370 1_554 S
C431 C432 1.403 . S
C432 C431 1.403 . S
C432 C433 1.404 . S
C432 C435 1.539 . S
C433 C429 1.408 1_554 S
C433 C432 1.404 . S
C433 H445 0.930 . S
C434 C430 1.524 . S
C434 H446 0.956 1_545 S
C434 H447 0.961 1_545 S
C434 H448 0.961 . S
C435 C432 1.539 . S
C435 H449 0.958 . S
C435 H450 0.961 . S
C435 H451 0.960 . S
H436 C420 0.931 . S
H437 C425 0.929 1_556 S
H438 C426 0.960 1_545 S
H439 C426 0.962 . S
H440 C426 0.960 . S
H441 C427 0.961 . S
H442 C427 0.961 . S
H443 C427 0.961 . S
H444 C428 0.931 . S
H445 C433 0.930 . S
H446 C434 0.956 1_565 S
H447 C434 0.961 1_565 S
H448 C434 0.961 . S
H449 C435 0.958 . S
H450 C435 0.961 . S
H451 C435 0.960 . S
C452 C453 1.391 . S
C452 C454 1.394 . S
C452 H468 0.931 . S
C453 C452 1.391 . S
C453 C457 1.376 . S
C454 C452 1.394 . S
C454 C455 1.369 . S
C454 C458 1.531 . S
C455 C454 1.369 . S
C455 C456 1.410 . S
C455 C463 1.503 . S
C456 C455 1.410 . S
C456 C457 1.392 . S
C456 C459 1.511 . S
C457 C453 1.376 . S
C457 C456 1.392 . S
C457 H469 0.929 . S
C458 C454 1.531 . S
C458 H470 0.960 . S
C458 H471 0.962 . S
C458 H472 0.960 . S
C459 C456 1.511 . S
C459 H473 0.961 . S
C459 H474 0.961 . S
C459 H475 0.961 . S
C460 C461 1.370 . S
C460 C462 1.363 . S
C460 H476 0.931 . S
C461 C460 1.370 . S
C461 C465 1.408 . S
C462 C460 1.363 . S
C462 C463 1.370 . S
C462 C466 1.524 . S
C463 C455 1.503 . S
C463 C462 1.370 . S
C463 C464 1.403 . S
C464 C463 1.403 . S
C464 C465 1.404 . S
C464 C467 1.530 1_554 S
C465 C461 1.408 . S
C465 C464 1.404 . S
C465 H477 0.930 . S
C466 C462 1.524 . S
C466 H478 0.956 . S
C466 H479 0.961 . S
C466 H480 0.961 . S
C467 C464 1.530 1_556 S
C467 H481 0.966 . S
C467 H482 0.967 . S
C467 H483 0.955 1_556 S
H468 C452 0.931 . S
H469 C457 0.929 . S
H470 C458 0.960 . S
H471 C458 0.962 . S
H472 C458 0.960 . S
H473 C459 0.961 . S
H474 C459 0.961 . S
H475 C459 0.961 . S
H476 C460 0.931 . S
H477 C465 0.930 . S
H478 C466 0.956 . S
H479 C466 0.961 . S
H480 C466 0.961 . S
H481 C467 0.966 . S
H482 C467 0.967 . S
H483 C467 0.955 1_554 S
C484 C485 1.391 . S
C484 C486 1.394 . S
C484 H500 0.931 . S
C485 C484 1.391 . S
C485 C489 1.376 . S
C486 C484 1.394 . S
C486 C487 1.369 . S
C486 C490 1.531 . S
C487 C486 1.369 . S
C487 C488 1.410 . S
C487 C495 1.503 1_655 S
C488 C487 1.410 . S
C488 C489 1.392 . S
C488 C491 1.511 . S
C489 C485 1.376 . S
C489 C488 1.392 . S
C489 H501 0.929 . S
C490 C486 1.531 . S
C490 H502 0.960 1_655 S
C490 H503 0.962 . S
C490 H504 0.960 . S
C491 C488 1.511 . S
C491 H505 0.961 . S
C491 H506 0.932 1_655 S
C491 H507 0.961 . S
C492 C493 1.370 . S
C492 C494 1.363 . S
C492 H508 0.931 . S
C493 C492 1.370 . S
C493 C497 1.408 . S
C494 C492 1.363 . S
C494 C495 1.370 . S
C494 C498 1.524 . S
C495 C487 1.503 1_455 S
C495 C494 1.370 . S
C495 C496 1.403 . S
C496 C495 1.403 . S
C496 C497 1.404 . S
C496 C499 1.539 . S
C497 C493 1.408 . S
C497 C496 1.404 . S
C497 H509 0.930 . S
C498 C494 1.524 . S
C498 H510 0.956 1_455 S
C498 H511 0.961 1_455 S
C498 H512 0.961 . S
C499 C496 1.539 . S
C499 H513 0.958 . S
C499 H514 0.961 . S
C499 H515 0.960 . S
H500 C484 0.931 . S
H501 C489 0.929 . S
H502 C490 0.960 1_455 S
H503 C490 0.962 . S
H504 C490 0.960 . S
H505 C491 0.961 . S
H506 C491 0.932 1_455 S
H507 C491 0.961 . S
H508 C492 0.931 . S
H509 C497 0.930 . S
H510 C498 0.956 1_655 S
H511 C498 0.961 1_655 S
H512 C498 0.961 . S
H513 C499 0.958 . S
H514 C499 0.961 . S
H515 C499 0.960 . S
C516 C517 1.391 . S
C516 C518 1.394 . S
C516 H532 0.931 . S
C517 C516 1.391 . S
C517 C521 1.376 . S
C518 C516 1.394 . S
C518 C519 1.369 . S
C518 C522 1.531 . S
C519 C518 1.369 . S
C519 C520 1.410 . S
C519 C527 1.503 . S
C520 C519 1.410 . S
C520 C521 1.392 . S
C520 C523 1.511 . S
C521 C517 1.376 . S
C521 C520 1.392 . S
C521 H533 0.929 . S
C522 C518 1.531 . S
C522 H534 0.960 . S
C522 H535 0.962 . S
C522 H536 0.960 . S
C523 C520 1.511 . S
C523 H537 0.961 . S
C523 H538 0.961 . S
C523 H539 0.961 . S
C524 C525 1.370 . S
C524 C526 1.363 . S
C524 H540 0.931 . S
C525 C524 1.370 . S
C525 C529 1.408 . S
C526 C524 1.363 . S
C526 C527 1.370 . S
C526 C530 1.524 . S
C527 C519 1.503 . S
C527 C526 1.370 . S
C527 C528 1.403 . S
C528 C527 1.403 . S
C528 C529 1.404 . S
C528 C531 1.539 . S
C529 C525 1.408 . S
C529 C528 1.404 . S
C529 H541 0.930 . S
C530 C526 1.524 . S
C530 H542 0.956 . S
C530 H543 0.961 . S
C530 H544 0.961 . S
C531 C528 1.539 . S
C531 H545 0.958 . S
C531 H546 0.961 . S
C531 H547 0.960 . S
H532 C516 0.931 . S
H533 C521 0.929 . S
H534 C522 0.960 . S
H535 C522 0.962 . S
H536 C522 0.960 . S
H537 C523 0.961 . S
H538 C523 0.961 . S
H539 C523 0.961 . S
H540 C524 0.931 . S
H541 C529 0.930 . S
H542 C530 0.956 . S
H543 C530 0.961 . S
H544 C530 0.961 . S
H545 C531 0.958 . S
H546 C531 0.961 . S
H547 C531 0.960 . S
C548 C549 1.391 . S
C548 C550 1.394 . S
C548 H564 0.931 . S
C549 C548 1.391 . S
C549 C553 1.376 . S
C550 C548 1.394 . S
C550 C551 1.369 . S
C550 C554 1.531 . S
C551 C550 1.369 . S
C551 C552 1.410 . S
C551 C559 1.503 . S
C552 C551 1.410 . S
C552 C553 1.392 . S
C552 C555 1.511 . S
C553 C549 1.376 . S
C553 C552 1.392 . S
C553 H565 0.929 . S
C554 C550 1.531 . S
C554 H566 0.960 . S
C554 H567 0.962 . S
C554 H568 0.960 . S
C555 C552 1.511 . S
C555 H569 0.961 . S
C555 H570 0.961 . S
C555 H571 0.961 . S
C556 C557 1.370 . S
C556 C558 1.363 . S
C556 H572 0.931 . S
C557 C556 1.370 . S
C557 C561 1.408 . S
C558 C556 1.363 . S
C558 C559 1.370 . S
C558 C562 1.524 . S
C559 C551 1.503 . S
C559 C558 1.370 . S
C559 C560 1.403 . S
C560 C559 1.403 . S
C560 C561 1.404 . S
C560 C563 1.539 . S
C561 C557 1.408 . S
C561 C560 1.404 . S
C561 H573 0.930 . S
C562 C558 1.524 . S
C562 H574 0.956 . S
C562 H575 0.961 . S
C562 H576 0.961 . S
C563 C560 1.539 . S
C563 H577 0.958 . S
C563 H578 0.961 . S
C563 H579 0.960 . S
H564 C548 0.931 . S
H565 C553 0.929 . S
H566 C554 0.960 . S
H567 C554 0.962 . S
H568 C554 0.960 . S
H569 C555 0.961 . S
H570 C555 0.961 . S
H571 C555 0.961 . S
H572 C556 0.931 . S
H573 C561 0.930 . S
H574 C562 0.956 . S
H575 C562 0.961 . S
H576 C562 0.961 . S
H577 C563 0.958 . S
H578 C563 0.961 . S
H579 C563 0.960 . S
C580 C581 1.391 . S
C580 C582 1.394 . S
C580 H596 0.931 . S
C581 C580 1.391 . S
C581 C585 1.376 . S
C582 C580 1.394 . S
C582 C583 1.369 . S
C582 C586 1.531 . S
C583 C582 1.369 . S
C583 C584 1.410 . S
C583 C591 1.503 . S
C584 C583 1.410 . S
C584 C585 1.392 . S
C584 C587 1.511 . S
C585 C581 1.376 . S
C585 C584 1.392 . S
C585 H597 0.929 . S
C586 C582 1.531 . S
C586 H598 0.960 . S
C586 H599 0.962 . S
C586 H600 0.960 . S
C587 C584 1.511 . S
C587 H601 0.961 . S
C587 H602 0.961 . S
C587 H603 0.961 . S
C588 C589 1.370 . S
C588 C590 1.363 . S
C588 H604 0.931 . S
C589 C588 1.370 . S
C589 C593 1.408 . S
C590 C588 1.363 . S
C590 C591 1.370 . S
C590 C594 1.524 . S
C591 C583 1.503 . S
C591 C590 1.370 . S
C591 C592 1.403 . S
C592 C591 1.403 . S
C592 C593 1.404 . S
C592 C595 1.539 . S
C593 C589 1.408 . S
C593 C592 1.404 . S
C593 H605 0.930 . S
C594 C590 1.524 . S
C594 H606 0.956 . S
C594 H607 0.961 . S
C594 H608 0.961 . S
C595 C592 1.539 . S
C595 H609 0.958 . S
C595 H610 0.961 . S
C595 H611 0.960 . S
H596 C580 0.931 . S
H597 C585 0.929 . S
H598 C586 0.960 . S
H599 C586 0.962 . S
H600 C586 0.960 . S
H601 C587 0.961 . S
H602 C587 0.961 . S
H603 C587 0.961 . S
H604 C588 0.931 . S
H605 C593 0.930 . S
H606 C594 0.956 . S
H607 C594 0.961 . S
H608 C594 0.961 . S
H609 C595 0.958 . S
H610 C595 0.961 . S
H611 C595 0.960 . S
C612 C613 1.391 . S
C612 C614 1.394 . S
C612 H628 0.931 . S
C613 C612 1.391 . S
C613 C617 1.376 1_556 S
C614 C612 1.394 . S
C614 C615 1.369 . S
C614 C618 1.531 . S
C615 C614 1.369 . S
C615 C616 1.410 1_556 S
C615 C623 1.503 . S
C616 C615 1.410 1_554 S
C616 C617 1.392 . S
C616 C619 1.511 . S
C617 C613 1.376 1_554 S
C617 C616 1.392 . S
C617 H629 0.929 . S
C618 C614 1.531 . S
C618 H630 0.960 . S
C618 H631 0.962 . S
C618 H632 0.960 . S
C619 C616 1.511 . S
C619 H633 0.961 . S
C619 H634 0.961 . S
C619 H635 0.961 . S
C620 C621 1.370 . S
C620 C622 1.363 . S
C620 H636 0.931 . S
C621 C620 1.370 . S
C621 C625 1.408 . S
C622 C620 1.363 . S
C622 C623 1.370 . S
C622 C626 1.524 . S
C623 C615 1.503 . S
C623 C622 1.370 . S
C623 C624 1.403 . S
C624 C623 1.403 . S
C624 C625 1.404 . S
C624 C627 1.539 . S
C625 C621 1.408 . S
C625 C624 1.404 . S
C625 H637 0.930 . S
C626 C622 1.524 . S
C626 H638 0.956 . S
C626 H639 0.961 . S
C626 H640 0.961 . S
C627 C624 1.539 . S
C627 H641 0.958 . S
C627 H642 0.961 . S
C627 H643 0.960 . S
H628 C612 0.931 . S
H629 C617 0.929 . S
H630 C618 0.960 . S
H631 C618 0.962 . S
H632 C618 0.960 . S
H633 C619 0.961 . S
H634 C619 0.961 . S
H635 C619 0.961 . S
H636 C620 0.931 . S
H637 C625 0.930 . S
H638 C626 0.956 . S
H639 C626 0.961 . S
H640 C626 0.961 . S
H641 C627 0.958 . S
H642 C627 0.961 . S
H643 C627 0.960 . S
C644 C645 1.391 . S
C644 C646 1.394 . S
C644 H660 0.931 . S
C645 C644 1.391 . S
C645 C649 1.376 . S
C646 C644 1.394 . S
C646 C647 1.369 . S
C646 C650 1.531 . S
C647 C646 1.369 . S
C647 C648 1.410 . S
C647 C655 1.503 . S
C648 C647 1.410 . S
C648 C649 1.392 . S
C648 C651 1.511 . S
C649 C645 1.376 . S
C649 C648 1.392 . S
C649 H661 0.929 . S
C650 C646 1.531 . S
C650 H662 0.960 . S
C650 H663 0.962 . S
C650 H664 0.960 . S
C651 C648 1.511 . S
C651 H665 0.961 . S
C651 H666 0.961 . S
C651 H667 0.961 . S
C652 C653 1.370 1_556 S
C652 C654 1.365 . S
C652 H668 0.931 . S
C653 C652 1.370 1_554 S
C653 C657 1.408 . S
C654 C652 1.365 . S
C654 C655 1.365 1_556 S
C654 C658 1.528 . S
C655 C647 1.503 . S
C655 C654 1.365 1_554 S
C655 C656 1.403 . S
C656 C655 1.403 . S
C656 C657 1.404 . S
C656 C659 1.539 . S
C657 C653 1.408 . S
C657 C656 1.404 . S
C657 H669 0.930 . S
C658 C654 1.528 . S
C658 H670 0.956 . S
C658 H671 0.961 . S
C658 H672 0.961 . S
C659 C656 1.539 . S
C659 H673 0.958 . S
C659 H674 0.961 . S
C659 H675 0.960 . S
H660 C644 0.931 . S
H661 C649 0.929 . S
H662 C650 0.960 . S
H663 C650 0.962 . S
H664 C650 0.960 . S
H665 C651 0.961 . S
H666 C651 0.961 . S
H667 C651 0.961 . S
H668 C652 0.931 . S
H669 C657 0.930 . S
H670 C658 0.956 . S
H671 C658 0.961 . S
H672 C658 0.961 . S
H673 C659 0.958 . S
H674 C659 0.961 . S
H675 C659 0.960 . S
C676 C677 1.391 . S
C676 C678 1.394 . S
C676 H692 0.931 . S
C677 C676 1.391 . S
C677 C681 1.376 . S
C678 C676 1.394 . S
C678 C679 1.369 . S
C678 C682 1.531 . S
C679 C678 1.369 . S
C679 C680 1.410 . S
C679 C687 1.503 . S
C680 C679 1.410 . S
C680 C681 1.392 . S
C680 C683 1.511 . S
C681 C677 1.376 . S
C681 C680 1.392 . S
C681 H693 0.929 . S
C682 C678 1.531 . S
C682 H694 0.960 . S
C682 H695 0.962 . S
C682 H696 0.960 . S
C683 C680 1.511 . S
C683 H697 0.961 . S
C683 H698 0.961 . S
C683 H699 0.961 . S
C684 C685 1.370 . S
C684 C686 1.363 . S
C684 H700 0.931 . S
C685 C684 1.370 . S
C685 C689 1.408 . S
C686 C684 1.363 . S
C686 C687 1.370 . S
C686 C690 1.524 . S
C687 C679 1.503 . S
C687 C686 1.370 . S
C687 C688 1.403 . S
C688 C687 1.403 . S
C688 C689 1.404 . S
C688 C691 1.539 . S
C689 C685 1.408 . S
C689 C688 1.404 . S
C689 H701 0.930 . S
C690 C686 1.524 . S
C690 H702 0.956 . S
C690 H703 0.961 . S
C690 H704 0.961 . S
C691 C688 1.539 . S
C691 H705 0.958 . S
C691 H706 0.961 . S
C691 H707 0.960 . S
H692 C676 0.931 . S
H693 C681 0.929 . S
H694 C682 0.960 . S
H695 C682 0.962 . S
H696 C682 0.960 . S
H697 C683 0.961 . S
H698 C683 0.961 . S
H699 C683 0.961 . S
H700 C684 0.931 . S
H701 C689 0.930 . S
H702 C690 0.956 . S
H703 C690 0.961 . S
H704 C690 0.961 . S
H705 C691 0.958 . S
H706 C691 0.961 . S
H707 C691 0.960 . S
C133 C10 1.466 . S
C141 C7 1.438 . S
C165 C32 1.422 . S
C173 C29 1.446 1_554 S
C197 C65 1.439 . S
C205 C62 1.456 . S
C229 C87 1.411 . S
C237 C84 1.437 . S
C261 C109 1.421 . S
C269 C106 1.434 1_556 S
C293 C128 1.449 . S
C301 C131 1.430 . S
C325 C15 1.562 . S
C333 C118 1.591 . S
C357 C18 1.577 . S
C365 C37 1.567 . S
C389 C51 1.557 . S
C397 C40 1.582 . S
C421 C73 1.574 . S
C429 C52 1.582 . S
C453 C95 1.563 . S
C461 C74 1.591 . S
C485 C96 1.581 . S
C493 C117 1.566 . S
C517 C8 1.334 . S
C525 C103 1.305 . S
C549 C30 1.335 . S
C557 C125 1.307 . S
C581 C54 1.309 . S
C589 C21 1.320 . S
C613 C76 1.330 1_556 S
C621 C43 1.318 . S
C645 C98 1.308 . S
C653 C59 1.319 1_554 S
C677 C81 1.320 . S
C685 C120 1.329 . S
