# Generated by pormake.
# Topology smu, (6)-cn, num edge types: 1
# Building blocks:
#     Node 0, Type 0, BuildingBlock: GEDQOX_clean_sbu_0, # of connection points: 6
#     Node 1, Type 0, BuildingBlock: GEDQOX_clean_sbu_0, # of connection points: 6
#     Node 2, Type 0, BuildingBlock: GEDQOX_clean_sbu_0, # of connection points: 6
#     Node 3, Type 0, BuildingBlock: GEDQOX_clean_sbu_0, # of connection points: 6
#     Node 4, Type 0, BuildingBlock: GEDQOX_clean_sbu_0, # of connection points: 6
#     Node 5, Type 0, BuildingBlock: GEDQOX_clean_sbu_0, # of connection points: 6
#     Edge 6, Type (0, 0), BuildingBlock: CIFDUS_clean_linker_0, # of connection points: 2
#     Edge 7, Type (0, 0), BuildingBlock: CIFDUS_clean_linker_0, # of connection points: 2
#     Edge 8, Type (0, 0), BuildingBlock: CIFDUS_clean_linker_0, # of connection points: 2
#     Edge 9, Type (0, 0), BuildingBlock: CIFDUS_clean_linker_0, # of connection points: 2
#     Edge 10, Type (0, 0), BuildingBlock: CIFDUS_clean_linker_0, # of connection points: 2
#     Edge 11, Type (0, 0), BuildingBlock: CIFDUS_clean_linker_0, # of connection points: 2
#     Edge 12, Type (0, 0), BuildingBlock: CIFDUS_clean_linker_0, # of connection points: 2
#     Edge 13, Type (0, 0), BuildingBlock: CIFDUS_clean_linker_0, # of connection points: 2
#     Edge 14, Type (0, 0), BuildingBlock: CIFDUS_clean_linker_0, # of connection points: 2
#     Edge 15, Type (0, 0), BuildingBlock: CIFDUS_clean_linker_0, # of connection points: 2
#     Edge 16, Type (0, 0), BuildingBlock: CIFDUS_clean_linker_0, # of connection points: 2
#     Edge 17, Type (0, 0), BuildingBlock: CIFDUS_clean_linker_0, # of connection points: 2
#     Edge 18, Type (0, 0), BuildingBlock: CIFDUS_clean_linker_0, # of connection points: 2
#     Edge 19, Type (0, 0), BuildingBlock: CIFDUS_clean_linker_0, # of connection points: 2
#     Edge 20, Type (0, 0), BuildingBlock: CIFDUS_clean_linker_0, # of connection points: 2
#     Edge 21, Type (0, 0), BuildingBlock: CIFDUS_clean_linker_0, # of connection points: 2
#     Edge 22, Type (0, 0), BuildingBlock: CIFDUS_clean_linker_0, # of connection points: 2
#     Edge 23, Type (0, 0), BuildingBlock: CIFDUS_clean_linker_0, # of connection points: 2
# Relax obj value: 0.221
# Max RMSD: 0.323
# Mean RMSD: 0.323
data_MOF--net-smu--node1-GEDQOX_clean_sbu_0--edge1-CIFDUS_clean_linker_0
_symmetry_space_group_name_H-M    P1
_symmetry_Int_Tables_number       1
_symmetry_cell_setting            triclinic
loop_
_symmetry_equiv_pos_as_xyz
'x, y, z'
_cell_length_a     35.119146
_cell_length_b     35.079034
_cell_length_c     22.779365
_cell_angle_alpha  89.868218
_cell_angle_beta   90.00578
_cell_angle_gamma 120.06942
loop_
_atom_site_label
_atom_site_type_symbol
_atom_site_fract_x
_atom_site_fract_y
_atom_site_fract_z
_atom_type_partial_charge
Nd0 Nd 0.38622 0.16027 0.29056 0.0
Nd1 Nd 0.34279 0.06841 0.29721 0.0
C2 C 0.42956 0.24552 0.26391 0.0
C3 C 0.46733 0.28989 0.27425 0.0
C4 C 0.4811 0.32095 0.22867 0.0
C5 C 0.51409 0.36456 0.23812 0.0
C6 C 0.53411 0.378 0.29344 0.0
C7 C 0.52064 0.34654 0.33894 0.0
C8 C 0.48743 0.30287 0.32948 0.0
C9 C 0.3678 0.12754 0.40582 0.0
C10 C 0.4488 0.11542 0.29268 0.0
C11 C 0.28883 0.98264 0.29681 0.0
C12 C 0.24042 0.95737 0.29474 0.0
C13 C 0.21546 0.96927 0.33068 0.0
C14 C 0.16964 0.94501 0.32975 0.0
C15 C 0.14772 0.90848 0.29258 0.0
C16 C 0.17276 0.89751 0.25516 0.0
C17 C 0.21874 0.92171 0.25637 0.0
C18 C 0.37003 0.10293 0.16902 0.0
C19 C 0.28363 0.11375 0.30146 0.0
O20 O 0.43613 0.21652 0.23679 0.0
O21 O 0.3998 0.22824 0.30509 0.0
O22 O 0.3624 0.15931 0.38662 0.0
O23 O 0.38383 0.11536 0.36595 0.0
O24 O 0.44683 0.15187 0.28768 0.0
O25 O 0.41246 0.07663 0.29859 0.0
O26 O 0.30561 1.00536 0.34468 0.0
O27 O 0.30905 1.00443 0.24942 0.0
O28 O 0.35265 0.10861 0.21557 0.0
O29 O 0.35254 0.10829 0.21613 0.0
O30 O 0.28856 0.08327 0.32883 0.0
O31 O 0.31627 0.14434 0.27097 0.0
H32 H 0.4658 0.3116 0.18581 0.0
H33 H 0.52421 0.38768 0.20189 0.0
H34 H 0.53529 0.35588 0.38215 0.0
H35 H 0.47702 0.27947 0.36542 0.0
H36 H 0.23126 0.99701 0.36033 0.0
H37 H 0.15149 0.95414 0.35946 0.0
H38 H 0.15681 0.87004 0.22511 0.0
H39 H 0.23733 0.91245 0.22764 0.0
Nd40 Nd 0.82391 0.68738 0.27853 0.0
Nd41 Nd 0.78175 0.7398 0.30154 0.0
C42 C 0.85863 0.63859 0.24527 0.0
C43 C 0.86488 0.60077 0.25999 0.0
C44 C 0.84505 0.56298 0.22472 0.0
C45 C 0.85413 0.52885 0.2334 0.0
C46 C 0.88346 0.53154 0.27756 0.0
C47 C 0.90319 0.56929 0.31322 0.0
C48 C 0.89402 0.60354 0.30455 0.0
C49 C 0.8141 0.70167 0.3962 0.0
C50 C 0.7178 0.63223 0.28763 0.0
C51 C 0.75044 0.78904 0.34075 0.0
C52 C 0.77009 0.83765 0.33783 0.0
C53 C 0.80365 0.86544 0.377 0.0
C54 C 0.82536 0.91128 0.37026 0.0
C55 C 0.81399 0.9305 0.32435 0.0
C56 C 0.78003 0.90266 0.28573 0.0
C57 C 0.75824 0.85691 0.29258 0.0
C58 C 0.80797 0.74958 0.18615 0.0
C59 C 0.88676 0.78659 0.29159 0.0
O60 O 0.81975 0.63075 0.22851 0.0
O61 O 0.87932 0.67421 0.27687 0.0
O62 O 0.84998 0.70494 0.37576 0.0
O63 O 0.78642 0.69064 0.35652 0.0
O64 O 0.75409 0.63023 0.28267 0.0
O65 O 0.71868 0.67039 0.29333 0.0
O66 O 0.77073 0.7746 0.37451 0.0
O67 O 0.73762 0.76765 0.29086 0.0
O68 O 0.81562 0.78149 0.22132 0.0
O69 O 0.79089 0.71331 0.2143 0.0
O70 O 0.85561 0.78457 0.32613 0.0
O71 O 0.87682 0.75543 0.25315 0.0
H72 H 0.82323 0.56023 0.18929 0.0
H73 H 0.83888 0.5007 0.20434 0.0
H74 H 0.92562 0.57233 0.34792 0.0
H75 H 0.91036 0.63244 0.33216 0.0
H76 H 0.81373 0.85183 0.41247 0.0
H77 H 0.85082 0.93163 0.40133 0.0
H78 H 0.77071 0.91615 0.24932 0.0
H79 H 0.73275 0.83657 0.2615 0.0
Nd80 Nd 0.92277 0.25149 0.28556 0.0
Nd81 Nd 1.01349 0.29833 0.31026 0.0
C82 C 0.83764 0.21216 0.25811 0.0
C83 C 0.79351 0.20639 0.27157 0.0
C84 C 0.78133 0.23649 0.25066 0.0
C85 C 0.73823 0.22829 0.25782 0.0
C86 C 0.70591 0.18972 0.28606 0.0
C87 C 0.71823 0.15976 0.30737 0.0
C88 C 0.7614 0.16794 0.30007 0.0
C89 C 0.94537 0.26282 0.405 0.0
C90 C 0.96788 0.35769 0.29635 0.0
C91 C 0.09197 0.31687 0.34922 0.0
C92 C 0.11111 0.28784 0.35265 0.0
C93 C 0.14559 0.29694 0.39145 0.0
C94 C 0.16277 0.2685 0.39509 0.0
C95 C 0.14545 0.23011 0.36037 0.0
C96 C 0.11032 0.22093 0.3223 0.0
C97 C 0.09359 0.24956 0.31825 0.0
C98 C 1.00246 0.30013 0.19186 0.0
C99 C 0.961 0.19194 0.28598 0.0
O100 O 0.86768 0.24915 0.23436 0.0
O101 O 0.85425 0.19564 0.29468 0.0
O102 O 0.92064 0.2246 0.38145 0.0
O103 O 0.95877 0.29121 0.36571 0.0
O104 O 0.93682 0.32185 0.27085 0.0
O105 O 1.00144 0.35724 0.32256 0.0
O106 O 0.05857 0.3064 0.38388 0.0
O107 O 0.08527 0.3267 0.29636 0.0
O108 O 1.02635 0.33432 0.22413 0.0
O109 O 0.98077 0.26575 0.22358 0.0
O110 O 0.98778 0.22244 0.32316 0.0
O111 O 0.94012 0.20297 0.24867 0.0
H112 H 0.80482 0.26603 0.22752 0.0
H113 H 0.73001 0.25185 0.23979 0.0
H114 H 0.69455 0.12996 0.32984 0.0
H115 H 0.76944 0.14367 0.31588 0.0
H116 H 0.15938 0.32614 0.41866 0.0
H117 H 0.19021 0.27713 0.42431 0.0
H118 H 0.09547 0.19146 0.29562 0.0
H119 H 0.06687 0.24172 0.28805 0.0
Nd120 Nd 0.07865 0.31985 0.79823 0.0
Nd121 Nd 0.17124 0.37067 0.7806 0.0
C122 C 0.99663 0.2693 0.8328 0.0
C123 C 0.96968 0.22085 0.82797 0.0
C124 C 0.94123 0.19561 0.87349 0.0
C125 C 0.92158 0.14952 0.87327 0.0
C126 C 0.93078 0.12783 0.82805 0.0
C127 C 0.95884 0.15353 0.78219 0.0
C128 C 0.9775 0.1992 0.78185 0.0
C129 C 0.09779 0.30828 0.68428 0.0
C130 C 0.13738 0.27265 0.79587 0.0
C131 C 0.25639 0.41972 0.75421 0.0
C132 C 0.29938 0.45887 0.7697 0.0
C133 C 0.31535 0.49791 0.73699 0.0
C134 C 0.35792 0.53321 0.74614 0.0
C135 C 0.38591 0.53051 0.78821 0.0
C136 C 0.36975 0.49159 0.82149 0.0
C137 C 0.32706 0.45618 0.81229 0.0
C138 C 0.14323 0.35894 0.89761 0.0
C139 C 0.12236 0.42769 0.77982 0.0
O140 O 1.03018 0.28292 0.86841 0.0
O141 O 1.00696 0.29169 0.78346 0.0
O142 O 0.07426 0.27709 0.72064 0.0
O143 O 0.11539 0.34499 0.71102 0.0
O144 O 0.10779 0.27554 0.82861 0.0
O145 O 0.15873 0.30336 0.75683 0.0
O146 O 0.22582 0.42574 0.73081 0.0
O147 O 0.2403 0.38564 0.78916 0.0
O148 O 0.17415 0.35192 0.87986 0.0
O149 O 0.12908 0.37049 0.85544 0.0
O150 O 0.16 0.42841 0.77542 0.0
O151 O 0.08495 0.38979 0.78823 0.0
H152 H 0.9351 0.21159 0.90996 0.0
H153 H 0.89954 0.13104 0.90885 0.0
H154 H 0.96776 0.13873 0.74711 0.0
H155 H 0.99933 0.21761 0.74624 0.0
H156 H 0.29535 0.50081 0.70301 0.0
H157 H 0.36933 0.56223 0.71883 0.0
H158 H 0.39012 0.48841 0.85462 0.0
H159 H 0.31612 0.42637 0.83777 0.0
Nd160 Nd 0.31571 0.99444 0.81243 0.0
Nd161 Nd 0.26308 0.90396 0.7903 0.0
C162 C 0.34088 0.07364 0.85415 0.0
C163 C 0.32021 0.10104 0.84445 0.0
C164 C 0.3059 0.11598 0.89221 0.0
C165 C 0.28251 0.13826 0.88282 0.0
C166 C 0.27314 0.14606 0.82544 0.0
C167 C 0.2872 0.13064 0.7779 0.0
C168 C 0.31036 0.10846 0.78723 0.0
C169 C 0.30693 0.98245 0.69337 0.0
C170 C 0.20839 0.94867 0.80246 0.0
C171 C 0.21872 0.81848 0.76365 0.0
C172 C 0.21216 0.77336 0.77124 0.0
C173 C 0.23729 0.75983 0.73872 0.0
C174 C 0.22799 0.7161 0.74096 0.0
C175 C 0.19324 0.68443 0.77574 0.0
C176 C 0.16791 0.69786 0.80809 0.0
C177 C 0.17722 0.74176 0.80578 0.0
C178 C 0.28746 0.92847 0.90823 0.0
C179 C 0.36872 0.94539 0.78238 0.0
O180 O 0.31753 0.03779 0.88481 0.0
O181 O 0.35949 0.06698 0.80862 0.0
O182 O 0.34287 1.00915 0.7204 0.0
O183 O 0.27523 0.96191 0.7295 0.0
O184 O 0.24275 0.97501 0.83484 0.0
O185 O 0.21245 0.92257 0.76565 0.0
O186 O 0.25309 0.84784 0.73445 0.0
O187 O 0.20773 0.83579 0.80646 0.0
O188 O 0.24687 0.90549 0.89135 0.0
O189 O 0.31111 0.93898 0.86387 0.0
O190 O 0.33063 0.91639 0.75932 0.0
O191 O 0.37128 0.97717 0.81639 0.0
H192 H 0.31235 0.10993 0.93677 0.0
H193 H 0.27236 0.14991 0.92034 0.0
H194 H 0.27991 0.13535 0.73315 0.0
H195 H 0.31989 0.09652 0.7494 0.0
H196 H 0.26374 0.78282 0.71052 0.0
H197 H 0.24777 0.70697 0.71451 0.0
H198 H 0.14115 0.67457 0.83564 0.0
H199 H 0.15659 0.75083 0.83044 0.0
Nd200 Nd 0.74866 0.76594 0.8081 0.0
Nd201 Nd 0.70565 0.81417 0.77833 0.0
C202 C 0.8082 0.74666 0.84644 0.0
C203 C 0.857 0.77219 0.84345 0.0
C204 C 0.88147 0.81258 0.87315 0.0
C205 C 0.92692 0.83892 0.86389 0.0
C206 C 0.94881 0.82562 0.82447 0.0
C207 C 0.92454 0.78445 0.79668 0.0
C208 C 0.87928 0.75808 0.80614 0.0
C209 C 0.73285 0.75983 0.68989 0.0
C210 C 0.80517 0.86994 0.77288 0.0
C211 C 0.6622 0.85408 0.74342 0.0
C212 C 0.62734 0.86461 0.75621 0.0
C213 C 0.61607 0.88523 0.7124 0.0
C214 C 0.58533 0.89852 0.72344 0.0
C215 C 0.56486 0.89132 0.77869 0.0
C216 C 0.57623 0.8705 0.82276 0.0
C217 C 0.60728 0.85726 0.81161 0.0
C218 C 0.72234 0.81104 0.8979 0.0
C219 C 0.64326 0.70859 0.80199 0.0
O220 O 0.789 0.76193 0.88041 0.0
O221 O 0.78788 0.73271 0.79633 0.0
O222 O 0.72277 0.7268 0.72457 0.0
O223 O 0.74678 0.79525 0.71913 0.0
O224 O 0.80108 0.84135 0.81359 0.0
O225 O 0.77197 0.8591 0.73775 0.0
O226 O 0.65078 0.81375 0.72845 0.0
O227 O 0.69725 0.87258 0.77646 0.0
O228 O 0.73226 0.84712 0.8702 0.0
O229 O 0.70526 0.77993 0.86255 0.0
O230 O 0.64754 0.74345 0.77379 0.0
O231 O 0.67779 0.70938 0.82698 0.0
H232 H 0.86539 0.82458 0.90219 0.0
H233 H 0.94457 0.87042 0.88591 0.0
H234 H 0.94049 0.77274 0.76696 0.0
H235 H 0.86142 0.72713 0.78283 0.0
H236 H 0.63165 0.89176 0.66962 0.0
H237 H 0.5782 0.91518 0.68877 0.0
H238 H 0.56089 0.86408 0.86564 0.0
H239 H 0.61584 0.84165 0.84619 0.0
H240 H 0.24493 0.94907 0.99524 0.0
H241 H 0.37072 0.96531 0.94509 0.0
H242 H 0.40694 1.01925 1.02232 0.0
H243 H 0.40479 0.06752 0.09814 0.0
H244 H 0.28005 0.0506 0.15372 0.0
H245 H 0.24184 0.99166 0.08149 0.0
C246 C 0.28001 0.96356 1.00239 0.0
C247 C 0.30504 0.95323 0.964 0.0
C248 C 0.30112 0.99512 1.04755 0.0
C249 C 0.35062 0.97274 0.97366 0.0
C250 C 0.37155 1.00387 1.01775 0.0
C251 C 0.36917 0.05044 0.09497 0.0
C252 C 0.34547 0.06349 0.13111 0.0
C253 C 0.34742 1.01625 0.0539 0.0
C254 C 0.29921 0.04106 0.1266 0.0
C255 C 0.2773 1.00739 0.08507 0.0
H256 H 0.71547 0.68696 0.63004 0.0
H257 H 0.78868 0.8287 0.61737 0.0
H258 H 0.82495 0.82359 0.52785 0.0
H259 H 0.83647 0.7779 0.4539 0.0
H260 H 0.76303 0.63654 0.47006 0.0
H261 H 0.72756 0.64235 0.55914 0.0
C262 C 0.73916 0.71687 0.60759 0.0
C263 C 0.74923 0.75815 0.63038 0.0
C264 C 0.76095 0.71366 0.55793 0.0
C265 C 0.77991 0.79649 0.60047 0.0
C266 C 0.80112 0.79355 0.54978 0.0
C267 C 0.81384 0.7486 0.47832 0.0
C268 C 0.80355 0.70682 0.45706 0.0
C269 C 0.79246 0.75227 0.52868 0.0
C270 C 0.77264 0.66895 0.48713 0.0
C271 C 0.75179 0.67228 0.53735 0.0
H272 H 0.04816 0.37071 0.12316 0.0
H273 H 0.99768 0.23063 0.12789 0.0
H274 H 1.04056 0.23655 1.03936 0.0
H275 H 0.09519 0.28316 0.96198 0.0
H276 H 0.14493 0.42315 0.96182 0.0
H277 H 0.10102 0.41603 0.04847 0.0
C278 C 0.04606 0.34126 0.10453 0.0
C279 C 1.01957 0.30028 0.13206 0.0
C280 C 0.07201 0.34526 0.05553 0.0
C281 C 1.01726 0.26251 0.10718 0.0
C282 C 1.04238 0.26606 0.0571 0.0
C283 C 0.09731 0.31209 0.9823 0.0
C284 C 0.12458 0.35398 0.95706 0.0
C285 C 0.0707 0.30749 1.03157 0.0
C286 C 0.12541 0.39094 0.9818 0.0
C287 C 0.09977 0.38677 1.03073 0.0
H288 H 0.35837 0.04825 0.43632 0.0
H289 H 0.33464 0.1502 0.49971 0.0
H290 H 0.30549 0.10952 0.59191 0.0
H291 H 0.29316 0.04803 0.65777 0.0
H292 H 0.31726 0.94665 0.59391 0.0
H293 H 0.33782 0.98272 0.49761 0.0
C294 C 0.34637 0.06137 0.47002 0.0
C295 C 0.34922 0.10256 0.46137 0.0
C296 C 0.32888 0.03734 0.5224 0.0
C297 C 0.33333 0.11891 0.50547 0.0
C298 C 0.31642 0.09549 0.55807 0.0
C299 C 0.30112 0.03295 0.62189 0.0
C300 C 0.30254 0.99404 0.63235 0.0
C301 C 0.31457 0.05494 0.56735 0.0
C302 C 0.31456 0.97571 0.58631 0.0
C303 C 0.32715 0.99686 0.53163 0.0
H304 H 0.70789 0.73647 0.95203 0.0
H305 H 0.78393 0.87801 0.96616 0.0
H306 H 0.82166 0.87104 0.05267 0.0
H307 H 0.83119 0.82454 0.12548 0.0
H308 H 0.75524 0.68296 0.1106 0.0
H309 H 0.72089 0.69016 1.02091 0.0
C310 C 0.7326 0.76585 0.97421 0.0
C311 C 0.74284 0.80776 0.9531 0.0
C312 C 0.75486 0.76152 1.02271 0.0
C313 C 0.77511 0.84545 0.98198 0.0
C314 C 0.79698 0.84143 1.03098 0.0
C315 C 0.80766 0.7952 0.10206 0.0
C316 C 0.79557 0.75319 0.125 0.0
C317 C 0.78708 0.79962 0.05168 0.0
C318 C 0.76526 0.7156 0.09392 0.0
C319 C 0.74517 0.71973 1.04308 0.0
H320 H 0.98974 0.22471 0.45344 0.0
H321 H 0.95631 0.3259 0.4807 0.0
H322 H 1.0057 0.3536 0.56521 0.0
H323 H 0.05836 0.34901 0.63208 0.0
H324 H 0.09316 0.24888 0.60486 0.0
H325 H 1.0453 0.22218 0.51839 0.0
C326 C 0.99253 0.25206 0.47896 0.0
C327 C 0.96835 0.2724 0.46215 0.0
C328 C 1.02266 0.26914 0.52612 0.0
C329 C 0.97371 0.30904 0.49391 0.0
C330 C 1.00247 0.32532 0.54165 0.0
C331 C 0.0566 0.32235 0.60596 0.0
C332 C 0.08026 0.30175 0.62379 0.0
C333 C 1.02755 0.30603 0.5578 0.0
C334 C 0.07622 0.26603 0.59094 0.0
C335 C 0.04818 0.25022 0.54219 0.0
H336 H 0.5267 0.1902 0.30943 0.0
H337 H 0.47166 0.05111 0.27832 0.0
H338 H 0.54615 0.06129 0.2752 0.0
H339 H 0.62742 0.1109 0.27711 0.0
H340 H 0.6801 0.24946 0.31149 0.0
H341 H 0.60599 0.23815 0.31683 0.0
C342 C 0.53072 0.1619 0.3019 0.0
C343 C 0.49338 0.11993 0.29351 0.0
C344 C 0.57342 0.168 0.30035 0.0
C345 C 0.49964 0.08378 0.28479 0.0
C346 C 0.54231 0.08965 0.28287 0.0
C347 C 0.62274 0.13856 0.28649 0.0
C348 C 0.6598 0.18123 0.29295 0.0
C349 C 0.57955 0.13177 0.29009 0.0
C350 C 0.65265 0.21652 0.3048 0.0
C351 C 0.61012 0.21004 0.30829 0.0
H352 H 0.70738 0.55885 0.33857 0.0
H353 H 0.63571 0.6095 0.24422 0.0
H354 H 0.57119 0.5348 0.23953 0.0
H355 H 0.53756 0.45426 0.25688 0.0
H356 H 0.61152 0.40571 0.35091 0.0
H357 H 0.67282 0.48066 0.3615 0.0
C358 C 0.6775 0.55365 0.31728 0.0
C359 C 0.67633 0.58946 0.2912 0.0
C360 C 0.64114 0.51099 0.31456 0.0
C361 C 0.63727 0.58243 0.26473 0.0
C362 C 0.60061 0.53971 0.26172 0.0
C363 C 0.56711 0.46016 0.27971 0.0
C364 C 0.56997 0.42427 0.30282 0.0
C365 C 0.60252 0.50359 0.2855 0.0
C366 C 0.6082 0.43258 0.33315 0.0
C367 C 0.6434 0.47544 0.33895 0.0
H368 H 0.89078 0.35577 0.28515 0.0
H369 H 1.02876 0.44576 0.31536 0.0
H370 H 1.01477 0.5079 0.31487 0.0
H371 H 0.96299 0.53641 0.30061 0.0
H372 H 0.82501 0.44355 0.27353 0.0
H373 H 0.83957 0.38277 0.27772 0.0
C374 C 0.91807 0.38896 0.29147 0.0
C375 C 0.96097 0.39615 0.29929 0.0
C376 C 0.9097 0.42404 0.29146 0.0
C377 C 0.99551 0.43933 0.30886 0.0
C378 C 0.98745 0.47481 0.30848 0.0
C379 C 0.93606 0.50284 0.29639 0.0
C380 C 0.89296 0.4948 0.28569 0.0
C381 C 0.94465 0.46758 0.29918 0.0
C382 C 0.85857 0.45098 0.28029 0.0
C383 C 0.86681 0.41607 0.283 0.0
H384 H 0.19666 0.50681 0.78135 0.0
H385 H 0.05541 0.4488 0.77915 0.0
H386 H 0.06443 0.52321 0.77903 0.0
H387 H 0.11373 0.60546 0.77764 0.0
H388 H 0.25453 0.65909 0.7828 0.0
H389 H 0.24405 0.58531 0.7833 0.0
C390 C 0.1674 0.50981 0.78062 0.0
C391 C 0.12523 0.47174 0.77972 0.0
C392 C 0.17288 0.55219 0.78095 0.0
C393 C 0.08824 0.47726 0.77956 0.0
C394 C 0.09348 0.51988 0.77954 0.0
C395 C 0.14205 0.60093 0.77936 0.0
C396 C 0.18503 0.63823 0.77919 0.0
C397 C 0.13579 0.55773 0.78008 0.0
C398 C 0.22122 0.63145 0.78138 0.0
C399 C 0.21526 0.58912 0.78206 0.0
H400 H 0.43601 0.96039 0.85766 0.0
H401 H 0.38542 0.91421 0.6838 0.0
H402 H 0.44125 0.89357 0.66757 0.0
H403 H 0.50157 0.88473 0.70387 0.0
H404 H 0.55317 0.92944 0.87769 0.0
H405 H 0.49933 0.95341 0.89336 0.0
C406 C 0.43788 0.94657 0.81595 0.0
C407 C 0.40678 0.93907 0.77184 0.0
C408 C 0.46967 0.93366 0.80728 0.0
C409 C 0.40898 0.92033 0.7184 0.0
C410 C 0.44079 0.90833 0.70912 0.0
C411 C 0.50159 0.90027 0.74497 0.0
C412 C 0.53166 0.90536 0.78935 0.0
C413 C 0.47085 0.91421 0.75348 0.0
C414 C 0.5302 0.92461 0.84287 0.0
C415 C 0.49961 0.93869 0.8517 0.0
H416 H 0.46207 0.52786 0.80786 0.0
H417 H 0.41326 0.6183 0.78732 0.0
H418 H 0.48802 0.68038 0.79124 0.0
H419 H 0.56704 0.70926 0.79598 0.0
H420 H 0.61797 0.62113 0.82009 0.0
H421 H 0.54251 0.55791 0.82053 0.0
C422 C 0.4677 0.56115 0.8051 0.0
C423 C 0.43178 0.56812 0.79622 0.0
C424 C 0.51116 0.59713 0.80789 0.0
C425 C 0.44004 0.61166 0.79259 0.0
C426 C 0.48287 0.64732 0.7952 0.0
C427 C 0.5618 0.67623 0.80139 0.0
C428 C 0.59818 0.66988 0.80715 0.0
C429 C 0.51864 0.64041 0.80183 0.0
C430 C 0.59059 0.62692 0.81539 0.0
C431 C 0.54744 0.5908 0.81543 0.0
H432 H 0.25202 0.13043 0.40086 0.0
H433 H 0.23119 0.11172 0.21439 0.0
H434 H 0.18309 0.14337 0.21683 0.0
H435 H 0.15685 0.18653 0.26893 0.0
H436 H 0.17832 0.20733 0.45557 0.0
H437 H 0.21685 0.16553 0.45599 0.0
C438 C 0.23533 0.13163 0.36141 0.0
C439 C 0.2443 0.11809 0.30768 0.0
C440 C 0.20914 0.15167 0.36281 0.0
C441 C 0.22391 0.12119 0.25634 0.0
C442 C 0.19696 0.13986 0.25762 0.0
C443 C 0.16885 0.18109 0.31014 0.0
C444 C 0.16503 0.20078 0.362 0.0
C445 C 0.1908 0.15683 0.31017 0.0
C446 C 0.18165 0.19366 0.41461 0.0
C447 C 0.2034 0.16936 0.41504 0.0
H448 H 0.94771 0.76341 0.29543 0.0
H449 H 0.93082 0.87642 0.31098 0.0
H450 H 1.01142 0.9251 0.31342 0.0
H451 H 0.08625 0.93463 0.30353 0.0
H452 H 0.09993 0.81918 0.28937 0.0
H453 H 1.02047 0.77209 0.29247 0.0
C454 C 0.96166 0.79875 0.29969 0.0
C455 C 0.93381 0.81662 0.30231 0.0
C456 C 1.00724 0.8259 0.30025 0.0
C457 C 0.95193 0.86217 0.30901 0.0
C458 C 0.99785 0.88983 0.30988 0.0
C459 C 0.07182 0.89915 0.30168 0.0
C460 C 0.0991 0.88052 0.29516 0.0
C461 C 1.02581 0.872 0.30432 0.0
C462 C 0.07982 0.8345 0.29267 0.0
C463 C 1.03439 0.80748 0.29509 0.0
H464 H 0.87688 0.12985 0.27414 0.0
H465 H 1.00285 0.14734 0.32517 0.0
H466 H 0.96851 0.06722 0.34167 0.0
H467 H 0.90188 0.99209 0.33934 0.0
H468 H 0.77635 0.97922 0.29441 0.0
H469 H 0.81163 0.058 0.27741 0.0
C470 C 0.89714 0.1163 0.2885 0.0
C471 C 0.94252 0.14431 0.29736 0.0
C472 C 0.87714 0.07104 0.29894 0.0
C473 C 0.9679 0.12631 0.31761 0.0
C474 C 0.94822 0.08059 0.327 0.0
C475 C 0.88221 1.0066 0.3264 0.0
C476 C 0.83643 0.97932 0.31715 0.0
C477 C 0.90273 0.05257 0.31764 0.0
C478 C 0.81163 0.99889 0.30025 0.0
C479 C 0.83174 0.0441 0.29092 0.0
H480 H 0.20262 0.26943 0.73895 0.0
H481 H 0.10871 0.20558 0.87889 0.0
H482 H 0.14216 0.15994 0.90076 0.0
H483 H 0.20068 0.14059 0.88131 0.0
H484 H 0.2957 0.21028 0.74412 0.0
H485 H 0.25934 0.2517 0.72061 0.0
C486 C 0.18897 0.24545 0.77423 0.0
C487 C 0.15306 0.24103 0.80725 0.0
C488 C 0.20898 0.22064 0.78737 0.0
C489 C 0.1362 0.2096 0.85263 0.0
C490 C 0.15554 0.18374 0.86531 0.0
C491 C 0.21346 0.16504 0.84655 0.0
C492 C 0.25069 0.17186 0.81406 0.0
C493 C 0.19245 0.18944 0.83339 0.0
C494 C 0.26671 0.20358 0.76901 0.0
C495 C 0.24603 0.22749 0.75564 0.0
H496 H 0.1422 0.92165 0.72498 0.0
H497 H 0.17358 0.955 0.90729 0.0
H498 H 0.09503 0.9223 0.93034 0.0
H499 H 1.01708 0.87536 0.89991 0.0
H500 H 0.98748 0.84232 0.71677 0.0
H501 H 0.06555 0.88349 0.6929 0.0
C502 C 0.13188 0.92269 0.76956 0.0
C503 C 0.16351 0.94049 0.8144 0.0
C504 C 0.08687 0.90298 0.7825 0.0
C505 C 0.14983 0.94185 0.87192 0.0
C506 C 0.10487 0.92262 0.88517 0.0
C507 C 1.02771 0.87777 0.85469 0.0
C508 C 0.99638 0.85477 0.81042 0.0
C509 C 0.073 0.90169 0.84109 0.0
C510 C 1.01083 0.85848 0.75199 0.0
C511 C 0.0555 0.88233 0.73817 0.0
H512 H 0.90695 0.07239 0.73376 0.0
H513 H 0.9118 0.07219 0.92327 0.0
H514 H 0.87871 0.99218 0.92315 0.0
H515 H 0.84346 0.9214 0.86891 0.0
H516 H 0.84117 0.92363 0.67972 0.0
H517 H 0.88078 1.00396 0.68013 0.0
C518 C 0.90199 0.05535 0.77525 0.0
C519 C 0.91178 0.07887 0.82843 0.0
C520 C 0.88402 1.00949 0.77491 0.0
C521 C 0.90371 0.05528 0.88151 0.0
C522 C 0.88526 1.00941 0.88154 0.0
C523 C 0.85309 0.93962 0.82788 0.0
C524 C 0.83971 0.91676 0.7743 0.0
C525 C 0.87476 0.98604 0.82848 0.0
C526 C 0.85142 0.94063 0.72142 0.0
C527 C 0.8736 0.98653 0.72166 0.0
loop_
_geom_bond_atom_site_label_1
_geom_bond_atom_site_label_2
_geom_bond_distance
_geom_bond_site_symmetry_2
_ccdc_geom_bond_type
Nd0 C2 2.836 . S
Nd0 O20 2.500 . S
Nd0 O21 2.492 . S
Nd0 O22 2.487 . S
Nd0 O23 2.682 . S
Nd0 O24 2.410 . S
Nd0 O29 2.414 . S
Nd0 O31 2.424 . S
Nd1 C11 2.836 1_545 S
Nd1 O23 2.414 . S
Nd1 O25 2.424 . S
Nd1 O26 2.500 1_545 S
Nd1 O27 2.492 1_545 S
Nd1 O28 2.487 . S
Nd1 O29 2.682 . S
Nd1 O30 2.410 . S
C2 Nd0 2.836 . S
C2 C3 1.498 . S
C2 O20 1.258 . S
C2 O21 1.239 . S
C3 C2 1.498 . S
C3 C4 1.366 . S
C3 C8 1.407 . S
C4 C3 1.366 . S
C4 C5 1.392 . S
C4 H32 0.930 . S
C5 C4 1.392 . S
C5 C6 1.398 . S
C5 H33 0.929 . S
C6 C5 1.398 . S
C6 C7 1.352 . S
C7 C6 1.352 . S
C7 C8 1.384 . S
C7 H34 0.930 . S
C8 C3 1.407 . S
C8 C7 1.384 . S
C8 H35 0.929 . S
C9 O22 1.241 . S
C9 O23 1.273 . S
C10 O24 1.251 . S
C10 O25 1.268 . S
C11 Nd1 2.836 1_565 S
C11 C12 1.498 . S
C11 O26 1.258 . S
C11 O27 1.239 . S
C12 C11 1.498 . S
C12 C13 1.366 . S
C12 C17 1.407 . S
C13 C12 1.366 . S
C13 C14 1.392 . S
C13 H36 0.930 . S
C14 C13 1.392 . S
C14 C15 1.398 . S
C14 H37 0.929 . S
C15 C14 1.398 . S
C15 C16 1.352 . S
C16 C15 1.352 . S
C16 C17 1.384 . S
C16 H38 0.930 . S
C17 C12 1.407 . S
C17 C16 1.384 . S
C17 H39 0.929 . S
C18 O28 1.241 . S
C18 O29 1.273 . S
C19 O30 1.251 . S
C19 O31 1.268 . S
O20 Nd0 2.500 . S
O20 C2 1.258 . S
O21 Nd0 2.492 . S
O21 C2 1.239 . S
O22 Nd0 2.487 . S
O22 C9 1.241 . S
O23 Nd0 2.682 . S
O23 Nd1 2.414 . S
O23 C9 1.273 . S
O24 Nd0 2.410 . S
O24 C10 1.251 . S
O25 Nd1 2.424 . S
O25 C10 1.268 . S
O26 Nd1 2.500 1_565 S
O26 C11 1.258 . S
O27 Nd1 2.492 1_565 S
O27 C11 1.239 . S
O28 Nd1 2.487 . S
O28 C18 1.241 . S
O29 Nd0 2.414 . S
O29 Nd1 2.682 . S
O29 C18 1.273 . S
O30 Nd1 2.410 . S
O30 C19 1.251 . S
O31 Nd0 2.424 . S
O31 C19 1.268 . S
H32 C4 0.930 . S
H33 C5 0.929 . S
H34 C7 0.930 . S
H35 C8 0.929 . S
H36 C13 0.930 . S
H37 C14 0.929 . S
H38 C16 0.930 . S
H39 C17 0.929 . S
Nd40 C42 2.836 . S
Nd40 O60 2.500 . S
Nd40 O61 2.492 . S
Nd40 O62 2.487 . S
Nd40 O63 2.682 . S
Nd40 O64 2.410 . S
Nd40 O69 2.414 . S
Nd40 O71 2.424 . S
Nd41 C51 2.836 . S
Nd41 O63 2.414 . S
Nd41 O65 2.424 . S
Nd41 O66 2.500 . S
Nd41 O67 2.492 . S
Nd41 O68 2.487 . S
Nd41 O69 2.682 . S
Nd41 O70 2.410 . S
C42 Nd40 2.836 . S
C42 C43 1.498 . S
C42 O60 1.258 . S
C42 O61 1.239 . S
C43 C42 1.498 . S
C43 C44 1.366 . S
C43 C48 1.407 . S
C44 C43 1.366 . S
C44 C45 1.392 . S
C44 H72 0.930 . S
C45 C44 1.392 . S
C45 C46 1.398 . S
C45 H73 0.929 . S
C46 C45 1.398 . S
C46 C47 1.352 . S
C47 C46 1.352 . S
C47 C48 1.384 . S
C47 H74 0.930 . S
C48 C43 1.407 . S
C48 C47 1.384 . S
C48 H75 0.929 . S
C49 O62 1.241 . S
C49 O63 1.273 . S
C50 O64 1.251 . S
C50 O65 1.268 . S
C51 Nd41 2.836 . S
C51 C52 1.498 . S
C51 O66 1.258 . S
C51 O67 1.239 . S
C52 C51 1.498 . S
C52 C53 1.366 . S
C52 C57 1.407 . S
C53 C52 1.366 . S
C53 C54 1.392 . S
C53 H76 0.930 . S
C54 C53 1.392 . S
C54 C55 1.398 . S
C54 H77 0.929 . S
C55 C54 1.398 . S
C55 C56 1.352 . S
C56 C55 1.352 . S
C56 C57 1.384 . S
C56 H78 0.930 . S
C57 C52 1.407 . S
C57 C56 1.384 . S
C57 H79 0.929 . S
C58 O68 1.241 . S
C58 O69 1.273 . S
C59 O70 1.251 . S
C59 O71 1.268 . S
O60 Nd40 2.500 . S
O60 C42 1.258 . S
O61 Nd40 2.492 . S
O61 C42 1.239 . S
O62 Nd40 2.487 . S
O62 C49 1.241 . S
O63 Nd40 2.682 . S
O63 Nd41 2.414 . S
O63 C49 1.273 . S
O64 Nd40 2.410 . S
O64 C50 1.251 . S
O65 Nd41 2.424 . S
O65 C50 1.268 . S
O66 Nd41 2.500 . S
O66 C51 1.258 . S
O67 Nd41 2.492 . S
O67 C51 1.239 . S
O68 Nd41 2.487 . S
O68 C58 1.241 . S
O69 Nd40 2.414 . S
O69 Nd41 2.682 . S
O69 C58 1.273 . S
O70 Nd41 2.410 . S
O70 C59 1.251 . S
O71 Nd40 2.424 . S
O71 C59 1.268 . S
H72 C44 0.930 . S
H73 C45 0.929 . S
H74 C47 0.930 . S
H75 C48 0.929 . S
H76 C53 0.930 . S
H77 C54 0.929 . S
H78 C56 0.930 . S
H79 C57 0.929 . S
Nd80 C82 2.836 . S
Nd80 O100 2.500 . S
Nd80 O101 2.492 . S
Nd80 O102 2.487 . S
Nd80 O103 2.682 . S
Nd80 O104 2.410 . S
Nd80 O109 2.414 . S
Nd80 O111 2.424 . S
Nd81 C91 2.836 1_655 S
Nd81 O103 2.414 . S
Nd81 O105 2.424 . S
Nd81 O106 2.500 1_655 S
Nd81 O107 2.492 1_655 S
Nd81 O108 2.487 . S
Nd81 O109 2.682 . S
Nd81 O110 2.410 . S
C82 Nd80 2.836 . S
C82 C83 1.498 . S
C82 O100 1.258 . S
C82 O101 1.239 . S
C83 C82 1.498 . S
C83 C84 1.366 . S
C83 C88 1.407 . S
C84 C83 1.366 . S
C84 C85 1.392 . S
C84 H112 0.930 . S
C85 C84 1.392 . S
C85 C86 1.398 . S
C85 H113 0.929 . S
C86 C85 1.398 . S
C86 C87 1.352 . S
C87 C86 1.352 . S
C87 C88 1.384 . S
C87 H114 0.930 . S
C88 C83 1.407 . S
C88 C87 1.384 . S
C88 H115 0.929 . S
C89 O102 1.241 . S
C89 O103 1.273 . S
C90 O104 1.251 . S
C90 O105 1.268 . S
C91 Nd81 2.836 1_455 S
C91 C92 1.498 . S
C91 O106 1.258 . S
C91 O107 1.239 . S
C92 C91 1.498 . S
C92 C93 1.366 . S
C92 C97 1.407 . S
C93 C92 1.366 . S
C93 C94 1.392 . S
C93 H116 0.930 . S
C94 C93 1.392 . S
C94 C95 1.398 . S
C94 H117 0.929 . S
C95 C94 1.398 . S
C95 C96 1.352 . S
C96 C95 1.352 . S
C96 C97 1.384 . S
C96 H118 0.930 . S
C97 C92 1.407 . S
C97 C96 1.384 . S
C97 H119 0.929 . S
C98 O108 1.241 . S
C98 O109 1.273 . S
C99 O110 1.251 . S
C99 O111 1.268 . S
O100 Nd80 2.500 . S
O100 C82 1.258 . S
O101 Nd80 2.492 . S
O101 C82 1.239 . S
O102 Nd80 2.487 . S
O102 C89 1.241 . S
O103 Nd80 2.682 . S
O103 Nd81 2.414 . S
O103 C89 1.273 . S
O104 Nd80 2.410 . S
O104 C90 1.251 . S
O105 Nd81 2.424 . S
O105 C90 1.268 . S
O106 Nd81 2.500 1_455 S
O106 C91 1.258 . S
O107 Nd81 2.492 1_455 S
O107 C91 1.239 . S
O108 Nd81 2.487 . S
O108 C98 1.241 . S
O109 Nd80 2.414 . S
O109 Nd81 2.682 . S
O109 C98 1.273 . S
O110 Nd81 2.410 . S
O110 C99 1.251 . S
O111 Nd80 2.424 . S
O111 C99 1.268 . S
H112 C84 0.930 . S
H113 C85 0.929 . S
H114 C87 0.930 . S
H115 C88 0.929 . S
H116 C93 0.930 . S
H117 C94 0.929 . S
H118 C96 0.930 . S
H119 C97 0.929 . S
Nd120 C122 2.836 1_455 S
Nd120 O140 2.500 1_455 S
Nd120 O141 2.492 1_455 S
Nd120 O142 2.487 . S
Nd120 O143 2.682 . S
Nd120 O144 2.410 . S
Nd120 O149 2.414 . S
Nd120 O151 2.424 . S
Nd121 C131 2.836 . S
Nd121 O143 2.414 . S
Nd121 O145 2.424 . S
Nd121 O146 2.500 . S
Nd121 O147 2.492 . S
Nd121 O148 2.487 . S
Nd121 O149 2.682 . S
Nd121 O150 2.410 . S
C122 Nd120 2.836 1_655 S
C122 C123 1.498 . S
C122 O140 1.258 . S
C122 O141 1.239 . S
C123 C122 1.498 . S
C123 C124 1.366 . S
C123 C128 1.407 . S
C124 C123 1.366 . S
C124 C125 1.392 . S
C124 H152 0.930 . S
C125 C124 1.392 . S
C125 C126 1.398 . S
C125 H153 0.929 . S
C126 C125 1.398 . S
C126 C127 1.352 . S
C127 C126 1.352 . S
C127 C128 1.384 . S
C127 H154 0.930 . S
C128 C123 1.407 . S
C128 C127 1.384 . S
C128 H155 0.929 . S
C129 O142 1.241 . S
C129 O143 1.273 . S
C130 O144 1.251 . S
C130 O145 1.268 . S
C131 Nd121 2.836 . S
C131 C132 1.498 . S
C131 O146 1.258 . S
C131 O147 1.239 . S
C132 C131 1.498 . S
C132 C133 1.366 . S
C132 C137 1.407 . S
C133 C132 1.366 . S
C133 C134 1.392 . S
C133 H156 0.930 . S
C134 C133 1.392 . S
C134 C135 1.398 . S
C134 H157 0.929 . S
C135 C134 1.398 . S
C135 C136 1.352 . S
C136 C135 1.352 . S
C136 C137 1.384 . S
C136 H158 0.930 . S
C137 C132 1.407 . S
C137 C136 1.384 . S
C137 H159 0.929 . S
C138 O148 1.241 . S
C138 O149 1.273 . S
C139 O150 1.251 . S
C139 O151 1.268 . S
O140 Nd120 2.500 1_655 S
O140 C122 1.258 . S
O141 Nd120 2.492 1_655 S
O141 C122 1.239 . S
O142 Nd120 2.487 . S
O142 C129 1.241 . S
O143 Nd120 2.682 . S
O143 Nd121 2.414 . S
O143 C129 1.273 . S
O144 Nd120 2.410 . S
O144 C130 1.251 . S
O145 Nd121 2.424 . S
O145 C130 1.268 . S
O146 Nd121 2.500 . S
O146 C131 1.258 . S
O147 Nd121 2.492 . S
O147 C131 1.239 . S
O148 Nd121 2.487 . S
O148 C138 1.241 . S
O149 Nd120 2.414 . S
O149 Nd121 2.682 . S
O149 C138 1.273 . S
O150 Nd121 2.410 . S
O150 C139 1.251 . S
O151 Nd120 2.424 . S
O151 C139 1.268 . S
H152 C124 0.930 . S
H153 C125 0.929 . S
H154 C127 0.930 . S
H155 C128 0.929 . S
H156 C133 0.930 . S
H157 C134 0.929 . S
H158 C136 0.930 . S
H159 C137 0.929 . S
Nd160 C162 2.836 1_565 S
Nd160 O180 2.500 1_565 S
Nd160 O181 2.492 1_565 S
Nd160 O182 2.487 . S
Nd160 O183 2.682 . S
Nd160 O184 2.410 . S
Nd160 O189 2.414 . S
Nd160 O191 2.424 . S
Nd161 C171 2.836 . S
Nd161 O183 2.414 . S
Nd161 O185 2.424 . S
Nd161 O186 2.500 . S
Nd161 O187 2.492 . S
Nd161 O188 2.487 . S
Nd161 O189 2.682 . S
Nd161 O190 2.410 . S
C162 Nd160 2.836 1_545 S
C162 C163 1.498 . S
C162 O180 1.258 . S
C162 O181 1.239 . S
C163 C162 1.498 . S
C163 C164 1.366 . S
C163 C168 1.407 . S
C164 C163 1.366 . S
C164 C165 1.392 . S
C164 H192 0.930 . S
C165 C164 1.392 . S
C165 C166 1.398 . S
C165 H193 0.929 . S
C166 C165 1.398 . S
C166 C167 1.352 . S
C167 C166 1.352 . S
C167 C168 1.384 . S
C167 H194 0.930 . S
C168 C163 1.407 . S
C168 C167 1.384 . S
C168 H195 0.929 . S
C169 O182 1.241 . S
C169 O183 1.273 . S
C170 O184 1.251 . S
C170 O185 1.268 . S
C171 Nd161 2.836 . S
C171 C172 1.498 . S
C171 O186 1.258 . S
C171 O187 1.239 . S
C172 C171 1.498 . S
C172 C173 1.366 . S
C172 C177 1.407 . S
C173 C172 1.366 . S
C173 C174 1.392 . S
C173 H196 0.930 . S
C174 C173 1.392 . S
C174 C175 1.398 . S
C174 H197 0.929 . S
C175 C174 1.398 . S
C175 C176 1.352 . S
C176 C175 1.352 . S
C176 C177 1.384 . S
C176 H198 0.930 . S
C177 C172 1.407 . S
C177 C176 1.384 . S
C177 H199 0.929 . S
C178 O188 1.241 . S
C178 O189 1.273 . S
C179 O190 1.251 . S
C179 O191 1.268 . S
O180 Nd160 2.500 1_545 S
O180 C162 1.258 . S
O181 Nd160 2.492 1_545 S
O181 C162 1.239 . S
O182 Nd160 2.487 . S
O182 C169 1.241 . S
O183 Nd160 2.682 . S
O183 Nd161 2.414 . S
O183 C169 1.273 . S
O184 Nd160 2.410 . S
O184 C170 1.251 . S
O185 Nd161 2.424 . S
O185 C170 1.268 . S
O186 Nd161 2.500 . S
O186 C171 1.258 . S
O187 Nd161 2.492 . S
O187 C171 1.239 . S
O188 Nd161 2.487 . S
O188 C178 1.241 . S
O189 Nd160 2.414 . S
O189 Nd161 2.682 . S
O189 C178 1.273 . S
O190 Nd161 2.410 . S
O190 C179 1.251 . S
O191 Nd160 2.424 . S
O191 C179 1.268 . S
H192 C164 0.930 . S
H193 C165 0.929 . S
H194 C167 0.930 . S
H195 C168 0.929 . S
H196 C173 0.930 . S
H197 C174 0.929 . S
H198 C176 0.930 . S
H199 C177 0.929 . S
Nd200 C202 2.836 . S
Nd200 O220 2.500 . S
Nd200 O221 2.492 . S
Nd200 O222 2.487 . S
Nd200 O223 2.682 . S
Nd200 O224 2.410 . S
Nd200 O229 2.414 . S
Nd200 O231 2.424 . S
Nd201 C211 2.836 . S
Nd201 O223 2.414 . S
Nd201 O225 2.424 . S
Nd201 O226 2.500 . S
Nd201 O227 2.492 . S
Nd201 O228 2.487 . S
Nd201 O229 2.682 . S
Nd201 O230 2.410 . S
C202 Nd200 2.836 . S
C202 C203 1.498 . S
C202 O220 1.258 . S
C202 O221 1.239 . S
C203 C202 1.498 . S
C203 C204 1.366 . S
C203 C208 1.407 . S
C204 C203 1.366 . S
C204 C205 1.392 . S
C204 H232 0.930 . S
C205 C204 1.392 . S
C205 C206 1.398 . S
C205 H233 0.929 . S
C206 C205 1.398 . S
C206 C207 1.352 . S
C207 C206 1.352 . S
C207 C208 1.384 . S
C207 H234 0.930 . S
C208 C203 1.407 . S
C208 C207 1.384 . S
C208 H235 0.929 . S
C209 O222 1.241 . S
C209 O223 1.273 . S
C210 O224 1.251 . S
C210 O225 1.268 . S
C211 Nd201 2.836 . S
C211 C212 1.498 . S
C211 O226 1.258 . S
C211 O227 1.239 . S
C212 C211 1.498 . S
C212 C213 1.366 . S
C212 C217 1.407 . S
C213 C212 1.366 . S
C213 C214 1.392 . S
C213 H236 0.930 . S
C214 C213 1.392 . S
C214 C215 1.398 . S
C214 H237 0.929 . S
C215 C214 1.398 . S
C215 C216 1.352 . S
C216 C215 1.352 . S
C216 C217 1.384 . S
C216 H238 0.930 . S
C217 C212 1.407 . S
C217 C216 1.384 . S
C217 H239 0.929 . S
C218 O228 1.241 . S
C218 O229 1.273 . S
C219 O230 1.251 . S
C219 O231 1.268 . S
O220 Nd200 2.500 . S
O220 C202 1.258 . S
O221 Nd200 2.492 . S
O221 C202 1.239 . S
O222 Nd200 2.487 . S
O222 C209 1.241 . S
O223 Nd200 2.682 . S
O223 Nd201 2.414 . S
O223 C209 1.273 . S
O224 Nd200 2.410 . S
O224 C210 1.251 . S
O225 Nd201 2.424 . S
O225 C210 1.268 . S
O226 Nd201 2.500 . S
O226 C211 1.258 . S
O227 Nd201 2.492 . S
O227 C211 1.239 . S
O228 Nd201 2.487 . S
O228 C218 1.241 . S
O229 Nd200 2.414 . S
O229 Nd201 2.682 . S
O229 C218 1.273 . S
O230 Nd201 2.410 . S
O230 C219 1.251 . S
O231 Nd200 2.424 . S
O231 C219 1.268 . S
H232 C204 0.930 . S
H233 C205 0.929 . S
H234 C207 0.930 . S
H235 C208 0.929 . S
H236 C213 0.930 . S
H237 C214 0.929 . S
H238 C216 0.930 . S
H239 C217 0.929 . S
H240 C246 0.929 1_554 S
H241 C249 0.930 . S
H242 C250 0.930 . S
H243 C251 0.929 1_556 S
H244 C254 0.930 . S
H245 C255 0.930 . S
C246 H240 0.929 1_556 S
C246 C247 1.355 . S
C246 C248 1.415 1_556 S
C247 C246 1.355 . S
C247 C249 1.419 . S
C248 C246 1.415 1_554 S
C248 C253 1.425 1_564 S
C248 C255 1.409 . S
C249 H241 0.930 . S
C249 C247 1.419 . S
C249 C250 1.362 1_565 S
C250 H242 0.930 . S
C250 C249 1.362 1_545 S
C250 C253 1.409 . S
C251 H243 0.929 1_554 S
C251 C252 1.355 . S
C251 C253 1.415 1_554 S
C252 C251 1.355 . S
C252 C254 1.419 . S
C253 C248 1.425 1_546 S
C253 C250 1.409 . S
C253 C251 1.415 1_556 S
C254 H244 0.930 . S
C254 C252 1.419 . S
C254 C255 1.362 1_545 S
C255 H245 0.930 . S
C255 C248 1.409 . S
C255 C254 1.362 1_565 S
H256 C262 0.930 . S
H257 C265 0.930 . S
H258 C266 0.930 . S
H259 C267 0.930 . S
H260 C270 0.930 . S
H261 C271 0.930 . S
C262 H256 0.930 . S
C262 C263 1.355 . S
C262 C264 1.415 . S
C263 C262 1.355 . S
C263 C265 1.419 . S
C264 C262 1.415 . S
C264 C269 1.425 . S
C264 C271 1.409 . S
C265 H257 0.930 . S
C265 C263 1.419 . S
C265 C266 1.362 . S
C266 H258 0.930 . S
C266 C265 1.362 . S
C266 C269 1.409 . S
C267 H259 0.930 . S
C267 C268 1.355 . S
C267 C269 1.415 . S
C268 C267 1.355 . S
C268 C270 1.419 . S
C269 C264 1.425 . S
C269 C266 1.409 . S
C269 C267 1.415 . S
C270 H260 0.930 . S
C270 C268 1.419 . S
C270 C271 1.362 . S
C271 H261 0.930 . S
C271 C264 1.409 . S
C271 C270 1.362 . S
H272 C278 0.930 . S
H273 C281 0.930 . S
H274 C282 0.930 . S
H275 C283 0.930 . S
H276 C286 0.930 . S
H277 C287 0.930 . S
C278 H272 0.930 . S
C278 C279 1.355 . S
C278 C280 1.415 . S
C279 C278 1.355 . S
C279 C281 1.419 . S
C280 C278 1.415 . S
C280 C285 1.425 1_654 S
C280 C287 1.409 1_654 S
C281 H273 0.930 . S
C281 C279 1.419 . S
C281 C282 1.362 . S
C282 H274 0.930 . S
C282 C281 1.362 . S
C282 C285 1.409 1_654 S
C283 H275 0.930 . S
C283 C284 1.355 . S
C283 C285 1.415 . S
C284 C283 1.355 . S
C284 C286 1.419 . S
C285 C280 1.425 1_456 S
C285 C282 1.409 1_456 S
C285 C283 1.415 . S
C286 H276 0.930 . S
C286 C284 1.419 . S
C286 C287 1.362 . S
C287 H277 0.930 . S
C287 C280 1.409 1_456 S
C287 C286 1.362 . S
H288 C294 0.930 . S
H289 C297 0.930 . S
H290 C298 0.930 . S
H291 C299 0.930 . S
H292 C302 0.930 . S
H293 C303 0.930 . S
C294 H288 0.930 . S
C294 C295 1.355 . S
C294 C296 1.415 1_545 S
C295 C294 1.355 . S
C295 C297 1.419 . S
C296 C294 1.415 1_565 S
C296 C301 1.425 . S
C296 C303 1.409 . S
C297 H289 0.930 . S
C297 C295 1.419 . S
C297 C298 1.362 . S
C298 H290 0.930 . S
C298 C297 1.362 . S
C298 C301 1.409 1_545 S
C299 H291 0.930 . S
C299 C300 1.355 . S
C299 C301 1.415 . S
C300 C299 1.355 . S
C300 C302 1.419 . S
C301 C296 1.425 . S
C301 C298 1.409 1_565 S
C301 C299 1.415 . S
C302 H292 0.930 . S
C302 C300 1.419 . S
C302 C303 1.362 . S
C303 H293 0.930 . S
C303 C296 1.409 . S
C303 C302 1.362 . S
H304 C310 0.930 . S
H305 C313 0.930 . S
H306 C314 0.930 . S
H307 C315 0.930 . S
H308 C318 0.930 . S
H309 C319 0.930 . S
C310 H304 0.930 . S
C310 C311 1.355 . S
C310 C312 1.415 1_556 S
C311 C310 1.355 . S
C311 C313 1.419 . S
C312 C310 1.415 1_554 S
C312 C317 1.425 1_554 S
C312 C319 1.409 . S
C313 H305 0.930 . S
C313 C311 1.419 . S
C313 C314 1.362 . S
C314 H306 0.930 . S
C314 C313 1.362 . S
C314 C317 1.409 . S
C315 H307 0.930 . S
C315 C316 1.355 . S
C315 C317 1.415 1_554 S
C316 C315 1.355 . S
C316 C318 1.419 . S
C317 C312 1.425 1_556 S
C317 C314 1.409 . S
C317 C315 1.415 1_556 S
C318 H308 0.930 . S
C318 C316 1.419 . S
C318 C319 1.362 . S
C319 H309 0.930 . S
C319 C312 1.409 . S
C319 C318 1.362 . S
H320 C326 0.930 . S
H321 C329 0.930 . S
H322 C330 0.930 . S
H323 C331 0.930 . S
H324 C334 0.930 . S
H325 C335 0.930 . S
C326 H320 0.930 . S
C326 C327 1.355 . S
C326 C328 1.415 1_655 S
C327 C326 1.355 . S
C327 C329 1.419 . S
C328 C326 1.415 1_455 S
C328 C333 1.425 1_455 S
C328 C335 1.409 . S
C329 H321 0.930 . S
C329 C327 1.419 . S
C329 C330 1.362 . S
C330 H322 0.930 . S
C330 C329 1.362 . S
C330 C333 1.409 . S
C331 H323 0.930 . S
C331 C332 1.355 . S
C331 C333 1.415 1_455 S
C332 C331 1.355 . S
C332 C334 1.419 . S
C333 C328 1.425 1_655 S
C333 C330 1.409 . S
C333 C331 1.415 1_655 S
C334 H324 0.930 . S
C334 C332 1.419 . S
C334 C335 1.362 . S
C335 H325 0.930 . S
C335 C328 1.409 . S
C335 C334 1.362 . S
H336 C342 0.930 . S
H337 C345 0.930 . S
H338 C346 0.930 . S
H339 C347 0.930 . S
H340 C350 0.930 . S
H341 C351 0.930 . S
C342 H336 0.930 . S
C342 C343 1.355 . S
C342 C344 1.415 . S
C343 C342 1.355 . S
C343 C345 1.419 . S
C344 C342 1.415 . S
C344 C349 1.425 . S
C344 C351 1.409 . S
C345 H337 0.930 . S
C345 C343 1.419 . S
C345 C346 1.362 . S
C346 H338 0.930 . S
C346 C345 1.362 . S
C346 C349 1.409 . S
C347 H339 0.930 . S
C347 C348 1.355 . S
C347 C349 1.415 . S
C348 C347 1.355 . S
C348 C350 1.419 . S
C349 C344 1.425 . S
C349 C346 1.409 . S
C349 C347 1.415 . S
C350 H340 0.930 . S
C350 C348 1.419 . S
C350 C351 1.362 . S
C351 H341 0.930 . S
C351 C344 1.409 . S
C351 C350 1.362 . S
H352 C358 0.930 . S
H353 C361 0.930 . S
H354 C362 0.930 . S
H355 C363 0.930 . S
H356 C366 0.930 . S
H357 C367 0.930 . S
C358 H352 0.930 . S
C358 C359 1.355 . S
C358 C360 1.415 . S
C359 C358 1.355 . S
C359 C361 1.419 . S
C360 C358 1.415 . S
C360 C365 1.425 . S
C360 C367 1.409 . S
C361 H353 0.930 . S
C361 C359 1.419 . S
C361 C362 1.362 . S
C362 H354 0.930 . S
C362 C361 1.362 . S
C362 C365 1.409 . S
C363 H355 0.930 . S
C363 C364 1.355 . S
C363 C365 1.415 . S
C364 C363 1.355 . S
C364 C366 1.419 . S
C365 C360 1.425 . S
C365 C362 1.409 . S
C365 C363 1.415 . S
C366 H356 0.930 . S
C366 C364 1.419 . S
C366 C367 1.362 . S
C367 H357 0.930 . S
C367 C360 1.409 . S
C367 C366 1.362 . S
H368 C374 0.930 . S
H369 C377 0.930 . S
H370 C378 0.930 . S
H371 C379 0.930 . S
H372 C382 0.930 . S
H373 C383 0.930 . S
C374 H368 0.930 . S
C374 C375 1.355 . S
C374 C376 1.415 . S
C375 C374 1.355 . S
C375 C377 1.419 . S
C376 C374 1.415 . S
C376 C381 1.425 . S
C376 C383 1.409 . S
C377 H369 0.930 . S
C377 C375 1.419 . S
C377 C378 1.362 . S
C378 H370 0.930 . S
C378 C377 1.362 . S
C378 C381 1.409 . S
C379 H371 0.930 . S
C379 C380 1.355 . S
C379 C381 1.415 . S
C380 C379 1.355 . S
C380 C382 1.419 . S
C381 C376 1.425 . S
C381 C378 1.409 . S
C381 C379 1.415 . S
C382 H372 0.930 . S
C382 C380 1.419 . S
C382 C383 1.362 . S
C383 H373 0.930 . S
C383 C376 1.409 . S
C383 C382 1.362 . S
H384 C390 0.930 . S
H385 C393 0.930 . S
H386 C394 0.930 . S
H387 C395 0.930 . S
H388 C398 0.930 . S
H389 C399 0.930 . S
C390 H384 0.930 . S
C390 C391 1.355 . S
C390 C392 1.415 . S
C391 C390 1.355 . S
C391 C393 1.419 . S
C392 C390 1.415 . S
C392 C397 1.425 . S
C392 C399 1.409 . S
C393 H385 0.930 . S
C393 C391 1.419 . S
C393 C394 1.362 . S
C394 H386 0.930 . S
C394 C393 1.362 . S
C394 C397 1.409 . S
C395 H387 0.930 . S
C395 C396 1.355 . S
C395 C397 1.415 . S
C396 C395 1.355 . S
C396 C398 1.419 . S
C397 C392 1.425 . S
C397 C394 1.409 . S
C397 C395 1.415 . S
C398 H388 0.930 . S
C398 C396 1.419 . S
C398 C399 1.362 . S
C399 H389 0.930 . S
C399 C392 1.409 . S
C399 C398 1.362 . S
H400 C406 0.930 . S
H401 C409 0.930 . S
H402 C410 0.930 . S
H403 C411 0.930 . S
H404 C414 0.930 . S
H405 C415 0.930 . S
C406 H400 0.930 . S
C406 C407 1.355 . S
C406 C408 1.415 . S
C407 C406 1.355 . S
C407 C409 1.419 . S
C408 C406 1.415 . S
C408 C413 1.425 . S
C408 C415 1.409 . S
C409 H401 0.930 . S
C409 C407 1.419 . S
C409 C410 1.362 . S
C410 H402 0.930 . S
C410 C409 1.362 . S
C410 C413 1.409 . S
C411 H403 0.930 . S
C411 C412 1.355 . S
C411 C413 1.415 . S
C412 C411 1.355 . S
C412 C414 1.419 . S
C413 C408 1.425 . S
C413 C410 1.409 . S
C413 C411 1.415 . S
C414 H404 0.930 . S
C414 C412 1.419 . S
C414 C415 1.362 . S
C415 H405 0.930 . S
C415 C408 1.409 . S
C415 C414 1.362 . S
H416 C422 0.930 . S
H417 C425 0.930 . S
H418 C426 0.930 . S
H419 C427 0.930 . S
H420 C430 0.930 . S
H421 C431 0.930 . S
C422 H416 0.930 . S
C422 C423 1.355 . S
C422 C424 1.415 . S
C423 C422 1.355 . S
C423 C425 1.419 . S
C424 C422 1.415 . S
C424 C429 1.425 . S
C424 C431 1.409 . S
C425 H417 0.930 . S
C425 C423 1.419 . S
C425 C426 1.362 . S
C426 H418 0.930 . S
C426 C425 1.362 . S
C426 C429 1.409 . S
C427 H419 0.930 . S
C427 C428 1.355 . S
C427 C429 1.415 . S
C428 C427 1.355 . S
C428 C430 1.419 . S
C429 C424 1.425 . S
C429 C426 1.409 . S
C429 C427 1.415 . S
C430 H420 0.930 . S
C430 C428 1.419 . S
C430 C431 1.362 . S
C431 H421 0.930 . S
C431 C424 1.409 . S
C431 C430 1.362 . S
H432 C438 0.930 . S
H433 C441 0.930 . S
H434 C442 0.930 . S
H435 C443 0.930 . S
H436 C446 0.930 . S
H437 C447 0.930 . S
C438 H432 0.930 . S
C438 C439 1.355 . S
C438 C440 1.415 . S
C439 C438 1.355 . S
C439 C441 1.419 . S
C440 C438 1.415 . S
C440 C445 1.425 . S
C440 C447 1.409 . S
C441 H433 0.930 . S
C441 C439 1.419 . S
C441 C442 1.362 . S
C442 H434 0.930 . S
C442 C441 1.362 . S
C442 C445 1.409 . S
C443 H435 0.930 . S
C443 C444 1.355 . S
C443 C445 1.415 . S
C444 C443 1.355 . S
C444 C446 1.419 . S
C445 C440 1.425 . S
C445 C442 1.409 . S
C445 C443 1.415 . S
C446 H436 0.930 . S
C446 C444 1.419 . S
C446 C447 1.362 . S
C447 H437 0.930 . S
C447 C440 1.409 . S
C447 C446 1.362 . S
H448 C454 0.930 . S
H449 C457 0.930 . S
H450 C458 0.930 . S
H451 C459 0.930 . S
H452 C462 0.930 . S
H453 C463 0.930 . S
C454 H448 0.930 . S
C454 C455 1.355 . S
C454 C456 1.415 . S
C455 C454 1.355 . S
C455 C457 1.419 . S
C456 C454 1.415 . S
C456 C461 1.425 . S
C456 C463 1.409 . S
C457 H449 0.930 . S
C457 C455 1.419 . S
C457 C458 1.362 . S
C458 H450 0.930 . S
C458 C457 1.362 . S
C458 C461 1.409 . S
C459 H451 0.930 . S
C459 C460 1.355 . S
C459 C461 1.415 1_455 S
C460 C459 1.355 . S
C460 C462 1.419 . S
C461 C456 1.425 . S
C461 C458 1.409 . S
C461 C459 1.415 1_655 S
C462 H452 0.930 . S
C462 C460 1.419 . S
C462 C463 1.362 1_455 S
C463 H453 0.930 . S
C463 C456 1.409 . S
C463 C462 1.362 1_655 S
H464 C470 0.930 . S
H465 C473 0.930 . S
H466 C474 0.930 . S
H467 C475 0.930 . S
H468 C478 0.930 . S
H469 C479 0.930 . S
C470 H464 0.930 . S
C470 C471 1.355 . S
C470 C472 1.415 . S
C471 C470 1.355 . S
C471 C473 1.419 . S
C472 C470 1.415 . S
C472 C477 1.425 . S
C472 C479 1.409 . S
C473 H465 0.930 . S
C473 C471 1.419 . S
C473 C474 1.362 . S
C474 H466 0.930 . S
C474 C473 1.362 . S
C474 C477 1.409 . S
C475 H467 0.930 . S
C475 C476 1.355 . S
C475 C477 1.415 1_565 S
C476 C475 1.355 . S
C476 C478 1.419 . S
C477 C472 1.425 . S
C477 C474 1.409 . S
C477 C475 1.415 1_545 S
C478 H468 0.930 . S
C478 C476 1.419 . S
C478 C479 1.362 1_565 S
C479 H469 0.930 . S
C479 C472 1.409 . S
C479 C478 1.362 1_545 S
H480 C486 0.930 . S
H481 C489 0.930 . S
H482 C490 0.930 . S
H483 C491 0.930 . S
H484 C494 0.930 . S
H485 C495 0.930 . S
C486 H480 0.930 . S
C486 C487 1.355 . S
C486 C488 1.415 . S
C487 C486 1.355 . S
C487 C489 1.419 . S
C488 C486 1.415 . S
C488 C493 1.425 . S
C488 C495 1.409 . S
C489 H481 0.930 . S
C489 C487 1.419 . S
C489 C490 1.362 . S
C490 H482 0.930 . S
C490 C489 1.362 . S
C490 C493 1.409 . S
C491 H483 0.930 . S
C491 C492 1.355 . S
C491 C493 1.415 . S
C492 C491 1.355 . S
C492 C494 1.419 . S
C493 C488 1.425 . S
C493 C490 1.409 . S
C493 C491 1.415 . S
C494 H484 0.930 . S
C494 C492 1.419 . S
C494 C495 1.362 . S
C495 H485 0.930 . S
C495 C488 1.409 . S
C495 C494 1.362 . S
H496 C502 0.930 . S
H497 C505 0.930 . S
H498 C506 0.930 . S
H499 C507 0.930 . S
H500 C510 0.930 . S
H501 C511 0.930 . S
C502 H496 0.930 . S
C502 C503 1.355 . S
C502 C504 1.415 . S
C503 C502 1.355 . S
C503 C505 1.419 . S
C504 C502 1.415 . S
C504 C509 1.425 . S
C504 C511 1.409 . S
C505 H497 0.930 . S
C505 C503 1.419 . S
C505 C506 1.362 . S
C506 H498 0.930 . S
C506 C505 1.362 . S
C506 C509 1.409 . S
C507 H499 0.930 . S
C507 C508 1.355 . S
C507 C509 1.415 1_655 S
C508 C507 1.355 . S
C508 C510 1.419 . S
C509 C504 1.425 . S
C509 C506 1.409 . S
C509 C507 1.415 1_455 S
C510 H500 0.930 . S
C510 C508 1.419 . S
C510 C511 1.362 1_655 S
C511 H501 0.930 . S
C511 C504 1.409 . S
C511 C510 1.362 1_455 S
H512 C518 0.930 . S
H513 C521 0.930 . S
H514 C522 0.930 . S
H515 C523 0.930 . S
H516 C526 0.930 . S
H517 C527 0.930 . S
C518 H512 0.930 . S
C518 C519 1.355 . S
C518 C520 1.415 1_545 S
C519 C518 1.355 . S
C519 C521 1.419 . S
C520 C518 1.415 1_565 S
C520 C525 1.425 . S
C520 C527 1.409 . S
C521 H513 0.930 . S
C521 C519 1.419 . S
C521 C522 1.362 1_545 S
C522 H514 0.930 . S
C522 C521 1.362 1_565 S
C522 C525 1.409 . S
C523 H515 0.930 . S
C523 C524 1.355 . S
C523 C525 1.415 . S
C524 C523 1.355 . S
C524 C526 1.419 . S
C525 C520 1.425 . S
C525 C522 1.409 . S
C525 C523 1.415 . S
C526 H516 0.930 . S
C526 C524 1.419 . S
C526 C527 1.362 . S
C527 H517 0.930 . S
C527 C520 1.409 . S
C527 C526 1.362 . S
C247 C178 2.648 . S
C252 C18 2.164 . S
C263 C209 2.169 . S
C268 C49 2.645 . S
C279 C98 2.215 . S
C284 C138 2.655 . S
C295 C9 2.666 . S
C300 C169 2.225 . S
C311 C218 2.661 . S
C316 C58 2.204 . S
C327 C89 2.666 . S
C332 C129 2.246 . S
C343 C10 2.095 . S
C348 C86 2.020 . S
C359 C50 2.093 . S
C364 C6 2.010 . S
C375 C90 2.095 . S
C380 C46 2.026 . S
C391 C139 2.089 . S
C396 C175 2.027 . S
C407 C179 2.076 . S
C412 C215 1.978 . S
C423 C135 2.022 . S
C428 C219 2.095 . S
C439 C19 1.085 . S
C444 C95 1.174 . S
C455 C59 1.202 . S
C460 C15 1.228 . S
C471 C99 1.200 . S
C476 C55 1.229 . S
C487 C130 1.196 . S
C492 C166 1.230 . S
C503 C170 1.110 . S
C508 C206 1.165 . S
C519 C126 1.196 . S
C524 C210 1.112 . S
