# Generated by pormake.
# Topology umm, (4)-cn, num edge types: 1
# Building blocks:
#     Node 0, Type 0, BuildingBlock: CEKHIL_clean_sbu_0, # of connection points: 4
#     Node 1, Type 0, BuildingBlock: CEKHIL_clean_sbu_0, # of connection points: 4
#     Node 2, Type 0, BuildingBlock: CEKHIL_clean_sbu_0, # of connection points: 4
#     Node 3, Type 0, BuildingBlock: CEKHIL_clean_sbu_0, # of connection points: 4
#     Node 4, Type 0, BuildingBlock: CEKHIL_clean_sbu_0, # of connection points: 4
#     Node 5, Type 0, BuildingBlock: CEKHIL_clean_sbu_0, # of connection points: 4
#     Node 6, Type 0, BuildingBlock: CEKHIL_clean_sbu_0, # of connection points: 4
#     Node 7, Type 0, BuildingBlock: CEKHIL_clean_sbu_0, # of connection points: 4
#     Node 8, Type 0, BuildingBlock: CEKHIL_clean_sbu_0, # of connection points: 4
#     Node 9, Type 0, BuildingBlock: CEKHIL_clean_sbu_0, # of connection points: 4
#     Node 10, Type 0, BuildingBlock: CEKHIL_clean_sbu_0, # of connection points: 4
#     Node 11, Type 0, BuildingBlock: CEKHIL_clean_sbu_0, # of connection points: 4
#     Edge 12, Type (0, 0), BuildingBlock: OJICUG_clean_linker_0, # of connection points: 2
#     Edge 13, Type (0, 0), BuildingBlock: OJICUG_clean_linker_0, # of connection points: 2
#     Edge 14, Type (0, 0), BuildingBlock: OJICUG_clean_linker_0, # of connection points: 2
#     Edge 15, Type (0, 0), BuildingBlock: OJICUG_clean_linker_0, # of connection points: 2
#     Edge 16, Type (0, 0), BuildingBlock: OJICUG_clean_linker_0, # of connection points: 2
#     Edge 17, Type (0, 0), BuildingBlock: OJICUG_clean_linker_0, # of connection points: 2
#     Edge 18, Type (0, 0), BuildingBlock: OJICUG_clean_linker_0, # of connection points: 2
#     Edge 19, Type (0, 0), BuildingBlock: OJICUG_clean_linker_0, # of connection points: 2
#     Edge 20, Type (0, 0), BuildingBlock: OJICUG_clean_linker_0, # of connection points: 2
#     Edge 21, Type (0, 0), BuildingBlock: OJICUG_clean_linker_0, # of connection points: 2
#     Edge 22, Type (0, 0), BuildingBlock: OJICUG_clean_linker_0, # of connection points: 2
#     Edge 23, Type (0, 0), BuildingBlock: OJICUG_clean_linker_0, # of connection points: 2
#     Edge 24, Type (0, 0), BuildingBlock: OJICUG_clean_linker_0, # of connection points: 2
#     Edge 25, Type (0, 0), BuildingBlock: OJICUG_clean_linker_0, # of connection points: 2
#     Edge 26, Type (0, 0), BuildingBlock: OJICUG_clean_linker_0, # of connection points: 2
#     Edge 27, Type (0, 0), BuildingBlock: OJICUG_clean_linker_0, # of connection points: 2
#     Edge 28, Type (0, 0), BuildingBlock: OJICUG_clean_linker_0, # of connection points: 2
#     Edge 29, Type (0, 0), BuildingBlock: OJICUG_clean_linker_0, # of connection points: 2
#     Edge 30, Type (0, 0), BuildingBlock: OJICUG_clean_linker_0, # of connection points: 2
#     Edge 31, Type (0, 0), BuildingBlock: OJICUG_clean_linker_0, # of connection points: 2
#     Edge 32, Type (0, 0), BuildingBlock: OJICUG_clean_linker_0, # of connection points: 2
#     Edge 33, Type (0, 0), BuildingBlock: OJICUG_clean_linker_0, # of connection points: 2
#     Edge 34, Type (0, 0), BuildingBlock: OJICUG_clean_linker_0, # of connection points: 2
#     Edge 35, Type (0, 0), BuildingBlock: OJICUG_clean_linker_0, # of connection points: 2
# Relax obj value: 0.133
# Max RMSD: 0.387
# Mean RMSD: 0.251
data_MOF--net-umm--node1-CEKHIL_clean_sbu_0--edge1-OJICUG_clean_linker_0
_symmetry_space_group_name_H-M    P1
_symmetry_Int_Tables_number       1
_symmetry_cell_setting            triclinic
loop_
_symmetry_equiv_pos_as_xyz
'x, y, z'
_cell_length_a     40.783063
_cell_length_b     38.559639
_cell_length_c     19.799128
_cell_angle_alpha  90.020987
_cell_angle_beta   89.984727
_cell_angle_gamma 118.1302
loop_
_atom_site_label
_atom_site_type_symbol
_atom_site_fract_x
_atom_site_fract_y
_atom_site_fract_z
_atom_type_partial_charge
Co0 Co 0.39392 0.53476 0.06008 0.0
O1 O 0.34744 0.53618 0.06136 0.0
O2 O 0.35437 0.48625 0.02233 0.0
C3 C 0.41182 0.55819 0.16516 0.0
O4 O 0.43858 0.52371 0.05428 0.0
Co5 Co 0.46661 0.61442 0.06869 0.0
O6 O 0.49051 0.58025 0.07719 0.0
C7 C 0.42602 0.59131 0.94046 0.0
C8 C 0.33257 0.50179 0.03339 0.0
C9 C 0.47407 0.54343 0.06491 0.0
O10 O 0.40433 0.55775 0.96661 0.0
O11 O 0.45126 0.61959 0.97432 0.0
O12 O 0.3887 0.52118 0.15576 0.0
O13 O 0.41975 0.58018 0.11211 0.0
Co14 Co 0.86887 0.37879 0.41768 0.0
O15 O 0.82151 0.33233 0.42216 0.0
O16 O 0.87194 0.33415 0.37719 0.0
C17 C 0.86838 0.39911 0.52372 0.0
O18 O 0.92293 0.42302 0.40811 0.0
Co19 Co 0.86842 0.45891 0.42877 0.0
O20 O 0.9231 0.48025 0.43302 0.0
C21 C 0.84614 0.41555 0.30139 0.0
C22 C 0.83659 0.31392 0.39112 0.0
C23 C 0.94013 0.46069 0.41858 0.0
O24 O 0.85596 0.39112 0.32614 0.0
O25 O 0.84628 0.44372 0.33583 0.0
O26 O 0.87852 0.37236 0.51205 0.0
O27 O 0.85493 0.40897 0.47253 0.0
Co28 Co 0.49004 0.84353 0.78049 0.0
O29 O 0.49046 0.79405 0.77338 0.0
O30 O 0.53543 0.8511 0.73696 0.0
C31 C 0.46934 0.8372 0.8872 0.0
O32 O 0.49977 0.90052 0.78157 0.0
Co33 Co 0.4151 0.84502 0.79807 0.0
O34 O 0.44723 0.90243 0.81024 0.0
C35 C 0.43386 0.8256 0.66575 0.0
C36 C 0.52198 0.81318 0.74212 0.0
C37 C 0.48187 0.91954 0.79657 0.0
O38 O 0.46634 0.83473 0.6888 0.0
O39 O 0.40781 0.82505 0.70251 0.0
O40 O 0.50432 0.84829 0.87557 0.0
O41 O 0.44782 0.82593 0.83495 0.0
Co42 Co 0.64739 0.47511 0.05983 0.0
O43 O 0.69392 0.4738 0.06103 0.0
O44 O 0.68687 0.52367 0.02214 0.0
C45 C 0.62952 0.45163 0.16489 0.0
O46 O 0.60268 0.48608 0.05414 0.0
Co47 Co 0.57475 0.3954 0.06841 0.0
O48 O 0.55077 0.42951 0.07702 0.0
C49 C 0.61536 0.41854 0.94019 0.0
C50 C 0.70873 0.5082 0.03313 0.0
C51 C 0.56719 0.46633 0.06478 0.0
O52 O 0.637 0.45213 0.96634 0.0
O53 O 0.59015 0.39025 0.97406 0.0
O54 O 0.65259 0.48865 0.15555 0.0
O55 O 0.62161 0.42967 0.11179 0.0
Co56 Co 0.17312 0.63199 0.41832 0.0
O57 O 0.22051 0.67839 0.42294 0.0
O58 O 0.17016 0.67669 0.37791 0.0
C59 C 0.1735 0.61161 0.52433 0.0
O60 O 0.11904 0.58782 0.4086 0.0
Co61 Co 0.17346 0.55181 0.4293 0.0
O62 O 0.11879 0.53054 0.43338 0.0
C63 C 0.1958 0.59518 0.30196 0.0
C64 C 0.2055 0.69686 0.39193 0.0
C65 C 0.10181 0.55014 0.41896 0.0
O66 O 0.18605 0.61966 0.32678 0.0
O67 O 0.1956 0.56697 0.33635 0.0
O68 O 0.16342 0.63841 0.51269 0.0
O69 O 0.18697 0.60174 0.47315 0.0
Co70 Co 0.55187 0.16598 0.7794 0.0
O71 O 0.55142 0.21546 0.77229 0.0
O72 O 0.50643 0.15837 0.73602 0.0
C73 C 0.57266 0.17242 0.88604 0.0
O74 O 0.54215 0.10899 0.78057 0.0
Co75 Co 0.62684 0.16455 0.79672 0.0
O76 O 0.59472 0.10717 0.80924 0.0
C77 C 0.608 0.18399 0.66454 0.0
C78 C 0.51987 0.19629 0.74116 0.0
C79 C 0.56006 0.09002 0.79568 0.0
O80 O 0.57549 0.17473 0.68763 0.0
O81 O 0.63409 0.18462 0.70125 0.0
O82 O 0.53767 0.16131 0.87452 0.0
O83 O 0.59413 0.18364 0.83372 0.0
Co84 Co 0.48972 0.63503 0.53568 0.0
O85 O 0.49018 0.68496 0.54296 0.0
O86 O 0.53517 0.6727 0.57907 0.0
C87 C 0.4689 0.62077 0.42904 0.0
O88 O 0.49944 0.58775 0.53437 0.0
Co89 Co 0.41477 0.55881 0.51824 0.0
O90 O 0.44689 0.53345 0.50571 0.0
C91 C 0.43361 0.59697 0.65053 0.0
C92 C 0.52174 0.69723 0.57405 0.0
C93 C 0.48155 0.5509 0.51926 0.0
O94 O 0.4661 0.62018 0.62745 0.0
O95 O 0.40753 0.57157 0.61379 0.0
O96 O 0.50389 0.64455 0.44055 0.0
O97 O 0.44744 0.61056 0.48137 0.0
Co98 Co 0.86864 0.47987 0.89582 0.0
O99 O 0.82124 0.47898 0.89136 0.0
O100 O 0.87162 0.52749 0.9364 0.0
C101 C 0.86823 0.45914 0.78975 0.0
O102 O 0.92272 0.48969 0.90541 0.0
Co103 Co 0.8684 0.39941 0.88461 0.0
O104 O 0.92306 0.43272 0.8805 0.0
C105 C 0.84605 0.42041 0.01205 0.0
C106 C 0.83626 0.5124 0.92248 0.0
C107 C 0.94 0.46926 0.89498 0.0
O108 O 0.85576 0.45462 0.98731 0.0
O109 O 0.84628 0.39243 0.97759 0.0
O110 O 0.87829 0.49598 0.80146 0.0
O111 O 0.8548 0.43582 0.8409 0.0
Co112 Co 0.39455 0.84879 0.2562 0.0
O113 O 0.34812 0.80096 0.2548 0.0
O114 O 0.35488 0.85772 0.29384 0.0
C115 C 0.41254 0.84327 0.15115 0.0
O116 O 0.43918 0.90442 0.26207 0.0
Co117 Co 0.46729 0.84172 0.24776 0.0
O118 O 0.49115 0.89973 0.23922 0.0
C119 C 0.42654 0.82416 0.37584 0.0
C120 C 0.33314 0.82043 0.28269 0.0
C121 C 0.47468 0.92012 0.25145 0.0
O122 O 0.40491 0.83616 0.34969 0.0
O123 O 0.4518 0.82108 0.34201 0.0
O124 O 0.38938 0.85718 0.16052 0.0
O125 O 0.42046 0.8292 0.20422 0.0
Co126 Co 0.55183 0.37448 0.53537 0.0
O127 O 0.55146 0.3246 0.54252 0.0
O128 O 0.50641 0.33674 0.57874 0.0
C129 C 0.57263 0.38879 0.42871 0.0
O130 O 0.54203 0.42171 0.53417 0.0
Co131 Co 0.62674 0.45076 0.51795 0.0
O132 O 0.59455 0.47604 0.5055 0.0
C133 C 0.6079 0.41264 0.65025 0.0
C134 C 0.51989 0.31226 0.57363 0.0
C135 C 0.55989 0.45857 0.51909 0.0
O136 O 0.57544 0.38935 0.62714 0.0
O137 O 0.63397 0.43808 0.61353 0.0
O138 O 0.53765 0.36496 0.44024 0.0
O139 O 0.5941 0.39902 0.48103 0.0
Co140 Co 0.17298 0.53072 0.89631 0.0
O141 O 0.22034 0.53153 0.89188 0.0
O142 O 0.16989 0.48305 0.9368 0.0
C143 C 0.17347 0.5515 0.79028 0.0
O144 O 0.11892 0.52099 0.90585 0.0
Co145 Co 0.17332 0.61123 0.88524 0.0
O146 O 0.11865 0.57798 0.88095 0.0
C147 C 0.19564 0.59018 0.01261 0.0
C148 C 0.20525 0.49809 0.92292 0.0
C149 C 0.10167 0.54144 0.89536 0.0
O150 O 0.18585 0.55596 0.98785 0.0
O151 O 0.19546 0.61818 0.97819 0.0
O152 O 0.16336 0.51464 0.80193 0.0
O153 O 0.1869 0.5748 0.84148 0.0
Co154 Co 0.6478 0.16158 0.255 0.0
O155 O 0.69418 0.20947 0.25349 0.0
O156 O 0.68753 0.15281 0.29272 0.0
C157 C 0.62976 0.16691 0.14991 0.0
O158 O 0.60323 0.10591 0.26105 0.0
Co159 Co 0.57498 0.16851 0.24647 0.0
O160 O 0.5512 0.11049 0.23825 0.0
C161 C 0.61565 0.18611 0.37463 0.0
C162 C 0.70921 0.1901 0.28149 0.0
C163 C 0.56772 0.09016 0.25057 0.0
O164 O 0.63741 0.17427 0.34844 0.0
O165 O 0.59033 0.18908 0.34081 0.0
O166 O 0.65297 0.15309 0.15933 0.0
O167 O 0.62182 0.18102 0.20294 0.0
C168 C 0.40812 0.55387 0.29068 0.0
C169 C 0.42706 0.57404 0.23235 0.0
H170 H 0.40617 0.55333 0.39862 0.0
C171 C 0.46019 0.60956 0.23896 0.0
H172 H 0.38246 0.52648 0.28696 0.0
C173 C 0.47423 0.62452 0.30304 0.0
C174 C 0.45483 0.60471 0.36134 0.0
H175 H 0.47538 0.62559 0.1947 0.0
H176 H 0.49989 0.65189 0.30694 0.0
C177 C 0.42162 0.56932 0.35456 0.0
C178 C 0.87093 0.39441 0.649 0.0
C179 C 0.87029 0.41549 0.59162 0.0
H180 H 0.87017 0.39151 0.75711 0.0
C181 C 0.87038 0.45168 0.59983 0.0
H182 H 0.87082 0.36637 0.64396 0.0
C183 C 0.87081 0.46642 0.66447 0.0
C184 C 0.87022 0.44472 0.72184 0.0
H185 H 0.87009 0.46857 0.55635 0.0
H186 H 0.87061 0.49429 0.66951 0.0
C187 C 0.87043 0.40868 0.71363 0.0
C188 C 0.42216 0.84165 0.96175 0.0
C189 C 0.45535 0.83934 0.95491 0.0
H190 H 0.38307 0.84554 0.0294 0.0
C191 C 0.47481 0.83897 0.01319 0.0
H192 H 0.40666 0.84216 0.91772 0.0
C193 C 0.46084 0.84004 0.07728 0.0
C194 C 0.42772 0.84254 0.08395 0.0
H195 H 0.50046 0.83717 0.00924 0.0
H196 H 0.47607 0.83922 0.12152 0.0
C197 C 0.40873 0.84374 0.02565 0.0
C198 C 0.58125 0.40017 0.23866 0.0
C199 C 0.61433 0.43572 0.23208 0.0
H200 H 0.54162 0.35773 0.30659 0.0
C201 C 0.63328 0.45587 0.29042 0.0
H202 H 0.56604 0.38415 0.19439 0.0
C203 C 0.61983 0.44035 0.35429 0.0
C204 C 0.58667 0.40491 0.36104 0.0
H205 H 0.65892 0.48328 0.28672 0.0
H206 H 0.6353 0.45632 0.39836 0.0
C207 C 0.56725 0.38513 0.30272 0.0
C208 C 0.17092 0.61631 0.64962 0.0
C209 C 0.17155 0.59522 0.59222 0.0
H210 H 0.17165 0.61919 0.75774 0.0
C211 C 0.1714 0.559 0.60038 0.0
H212 H 0.17108 0.64437 0.64462 0.0
C213 C 0.17093 0.54424 0.66499 0.0
C214 C 0.17154 0.56595 0.72239 0.0
H215 H 0.17168 0.5421 0.55687 0.0
H216 H 0.17109 0.51635 0.67 0.0
C217 C 0.17138 0.60202 0.71424 0.0
C218 C 0.63345 0.1662 0.02439 0.0
C219 C 0.6145 0.16748 0.08272 0.0
H220 H 0.63541 0.16758 0.91645 0.0
C221 C 0.58135 0.16991 0.0761 0.0
H222 H 0.65913 0.16444 0.02812 0.0
C223 C 0.5673 0.17084 0.01203 0.0
C224 C 0.58672 0.1704 0.95373 0.0
H225 H 0.56615 0.17079 0.12036 0.0
H226 H 0.54164 0.1726 0.00813 0.0
C227 C 0.61994 0.16815 0.9605 0.0
C228 C 0.28876 0.48214 0.93654 0.0
C229 C 0.29435 0.48535 0.00666 0.0
H230 H 0.25516 0.48361 0.85428 0.0
C231 C 0.26572 0.4834 0.04865 0.0
H232 H 0.31074 0.48449 0.90308 0.0
C233 C 0.23328 0.48146 0.02077 0.0
C234 C 0.2297 0.48297 0.95049 0.0
H235 H 0.26972 0.48657 0.10284 0.0
H236 H 0.21311 0.48333 0.05411 0.0
C237 C 0.25694 0.48164 0.90863 0.0
C238 C 0.80841 0.26914 0.29347 0.0
C239 C 0.81214 0.27436 0.36372 0.0
H240 H 0.77187 0.23766 0.21166 0.0
C241 C 0.78501 0.24587 0.40578 0.0
H242 H 0.82848 0.29111 0.25999 0.0
C243 C 0.7532 0.21452 0.3781 0.0
C244 C 0.74747 0.21198 0.30801 0.0
H245 H 0.7869 0.24972 0.46011 0.0
H246 H 0.73132 0.19495 0.41173 0.0
C247 C 0.77598 0.23859 0.26583 0.0
C248 C 0.53761 0.75851 0.72816 0.0
C249 C 0.53611 0.79133 0.701 0.0
H250 H 0.53729 0.7038 0.70739 0.0
C251 C 0.53871 0.797 0.63075 0.0
H252 H 0.53527 0.75339 0.78217 0.0
C253 C 0.53755 0.76755 0.58797 0.0
C254 C 0.53597 0.7332 0.61514 0.0
H255 H 0.53743 0.82204 0.60874 0.0
H256 H 0.53516 0.77032 0.53397 0.0
C257 C 0.53864 0.73015 0.68537 0.0
C258 C 0.77562 0.52676 0.04835 0.0
C259 C 0.74696 0.52474 0.00639 0.0
H260 H 0.82831 0.52703 0.05376 0.0
C261 C 0.75258 0.52802 0.93627 0.0
H262 H 0.7716 0.52353 0.10254 0.0
C263 C 0.78445 0.52866 0.90833 0.0
C264 C 0.81174 0.5274 0.95016 0.0
H265 H 0.73058 0.52563 0.90283 0.0
H266 H 0.78627 0.52675 0.85397 0.0
C267 C 0.80811 0.52885 0.02045 0.0
C268 C 0.23383 0.74167 0.29439 0.0
C269 C 0.23004 0.73642 0.36463 0.0
H270 H 0.27049 0.77308 0.21269 0.0
C271 C 0.25718 0.76484 0.40677 0.0
H272 H 0.21376 0.71974 0.26085 0.0
C273 C 0.28907 0.79613 0.37919 0.0
C274 C 0.29485 0.79867 0.30912 0.0
H275 H 0.25523 0.76097 0.46109 0.0
H276 H 0.31095 0.81563 0.41288 0.0
C277 C 0.26634 0.77214 0.26685 0.0
C278 C 0.50302 0.21248 0.62995 0.0
C279 C 0.50566 0.21812 0.70021 0.0
H280 H 0.50649 0.2392 0.53327 0.0
C281 C 0.50414 0.25091 0.72752 0.0
H282 H 0.50432 0.18746 0.60784 0.0
C283 C 0.50306 0.27927 0.68486 0.0
C284 C 0.50569 0.27626 0.6146 0.0
H285 H 0.50651 0.256 0.78154 0.0
H286 H 0.5044 0.3056 0.70699 0.0
C287 C 0.50413 0.24194 0.58729 0.0
C288 C 0.48179 0.48226 0.0619 0.0
C289 C 0.49765 0.52341 0.06257 0.0
H290 H 0.49108 0.43216 0.06224 0.0
C291 C 0.53681 0.54575 0.06209 0.0
H292 H 0.45188 0.46411 0.06215 0.0
C293 C 0.55945 0.52748 0.06178 0.0
C294 C 0.5436 0.48633 0.06252 0.0
H295 H 0.55017 0.57758 0.06211 0.0
H296 H 0.58936 0.54563 0.06193 0.0
C297 C 0.50444 0.46399 0.06217 0.0
C298 C 1.00348 0.46419 0.41335 0.0
C299 C 0.98151 0.48327 0.41444 0.0
H300 H 0.05829 0.47013 0.4139 0.0
C301 C 0.99957 0.52483 0.41378 0.0
H302 H 0.9907 0.43238 0.41369 0.0
C303 C 0.03846 0.54667 0.4136 0.0
C304 C 0.06043 0.52759 0.41463 0.0
H305 H 0.98364 0.54073 0.41403 0.0
H306 H 0.05124 0.57847 0.41414 0.0
C307 C 0.04237 0.48602 0.41372 0.0
C308 C 0.55978 0.02478 0.79668 0.0
C309 C 0.53997 0.0464 0.79633 0.0
H310 H 0.55713 0.96798 0.79656 0.0
C311 C 0.50093 0.0259 0.79633 0.0
H312 H 0.58989 0.03959 0.79645 0.0
C313 C 0.48216 0.98479 0.79698 0.0
C314 C 0.50196 0.96316 0.79682 0.0
H315 H 0.48481 0.04159 0.79625 0.0
H316 H 0.45204 0.96997 0.79696 0.0
C317 C 0.541 0.98366 0.79652 0.0
C318 C 0.54071 0.54582 0.51881 0.0
C319 C 0.50167 0.52735 0.5187 0.0
H320 H 0.58964 0.53873 0.51848 0.0
C321 C 0.4819 0.48597 0.51841 0.0
H322 H 0.55681 0.57759 0.51885 0.0
C323 C 0.50072 0.46362 0.51878 0.0
C324 C 0.53976 0.4821 0.51862 0.0
H325 H 0.45179 0.47072 0.51856 0.0
H326 H 0.48462 0.43185 0.51879 0.0
C327 C 0.55952 0.52348 0.51836 0.0
C328 C 0.04215 0.54612 0.90017 0.0
C329 C 0.06029 0.52266 0.89947 0.0
H330 H 0.9904 0.54806 0.89985 0.0
C331 C 0.03841 0.48165 0.9005 0.0
H332 H 0.05801 0.5779 0.89997 0.0
C333 C 0.99952 0.4646 0.90013 0.0
C334 C 0.98137 0.48806 0.89927 0.0
H335 H 0.05126 0.46266 0.90013 0.0
H336 H 0.98366 0.43281 0.89991 0.0
C337 C 1.00326 0.52907 0.90035 0.0
C338 C 0.48237 0.98899 0.2542 0.0
C339 C 0.49825 0.96368 0.25364 0.0
H340 H 0.49162 0.04835 0.25352 0.0
C341 C 0.53741 0.98043 0.25399 0.0
H342 H 0.45246 0.97729 0.25404 0.0
C343 C 0.56004 0.0213 0.25404 0.0
C344 C 0.54417 0.04661 0.25316 0.0
H345 H 0.55079 0.96193 0.25405 0.0
H346 H 0.58996 0.033 0.25378 0.0
C347 C 0.505 0.02986 0.25368 0.0
C348 C 0.4528 0.63029 0.76272 0.0
C349 C 0.42757 0.59817 0.72401 0.0
H350 H 0.47194 0.65371 0.86125 0.0
C351 C 0.39876 0.56605 0.75708 0.0
H352 H 0.4748 0.65585 0.73868 0.0
C353 C 0.397 0.56482 0.82761 0.0
C354 C 0.42395 0.59575 0.86646 0.0
H355 H 0.37869 0.54097 0.72875 0.0
H356 H 0.37543 0.53881 0.85157 0.0
C357 C 0.45101 0.62914 0.83312 0.0
C358 C 0.83676 0.38141 0.18994 0.0
C359 C 0.83832 0.41303 0.22799 0.0
H360 H 0.83757 0.35861 0.09181 0.0
C361 C 0.83657 0.44406 0.19402 0.0
H362 H 0.83747 0.35668 0.21448 0.0
C363 C 0.83657 0.44509 0.12352 0.0
C364 C 0.83826 0.4151 0.08547 0.0
H365 H 0.83732 0.46868 0.22165 0.0
H366 H 0.83712 0.47046 0.09898 0.0
C367 C 0.8367 0.38241 0.11944 0.0
C368 C 0.39913 0.82203 0.55919 0.0
C369 C 0.42782 0.81842 0.59226 0.0
H370 H 0.37599 0.82632 0.46471 0.0
C371 C 0.45299 0.81138 0.55354 0.0
H372 H 0.37911 0.82718 0.58753 0.0
C373 C 0.45129 0.81089 0.48313 0.0
C374 C 0.42437 0.81753 0.44981 0.0
H375 H 0.4749 0.80759 0.57758 0.0
H376 H 0.47218 0.80712 0.455 0.0
C377 C 0.39745 0.82164 0.48866 0.0
C378 C 0.64268 0.44369 0.75681 0.0
C379 C 0.61392 0.41151 0.72375 0.0
H380 H 0.66592 0.47104 0.85128 0.0
C381 C 0.5887 0.37941 0.76248 0.0
H382 H 0.66273 0.46877 0.72846 0.0
C383 C 0.59045 0.38062 0.83288 0.0
C384 C 0.61746 0.41407 0.8662 0.0
H385 H 0.56673 0.3538 0.73846 0.0
H386 H 0.56954 0.35606 0.86103 0.0
C387 C 0.6444 0.44499 0.82733 0.0
C388 C 0.20514 0.56549 0.12402 0.0
C389 C 0.20348 0.5955 0.08601 0.0
H390 H 0.20443 0.54193 0.22211 0.0
C391 C 0.20514 0.62824 0.12002 0.0
H392 H 0.2045 0.54009 0.09945 0.0
C393 C 0.20516 0.62929 0.19052 0.0
C394 C 0.20358 0.59766 0.22854 0.0
H395 H 0.2043 0.65206 0.09243 0.0
H396 H 0.20453 0.65406 0.2151 0.0
C397 C 0.20522 0.56657 0.19452 0.0
C398 C 0.58876 0.19816 0.55242 0.0
C399 C 0.61405 0.19129 0.59108 0.0
H400 H 0.56959 0.20246 0.45392 0.0
C401 C 0.64294 0.18808 0.55797 0.0
H402 H 0.56668 0.20165 0.57649 0.0
C403 C 0.64472 0.18866 0.48744 0.0
C404 C 0.61771 0.19261 0.44863 0.0
H405 H 0.66306 0.18309 0.58626 0.0
H406 H 0.66636 0.18428 0.46344 0.0
C407 C 0.59056 0.19885 0.48202 0.0
loop_
_geom_bond_atom_site_label_1
_geom_bond_atom_site_label_2
_geom_bond_distance
_geom_bond_site_symmetry_2
_ccdc_geom_bond_type
Co0 O1 2.216 . S
Co0 O2 2.091 . S
Co0 O4 2.004 . S
Co0 O10 2.021 1_554 S
Co0 O12 2.137 . S
Co0 O13 2.244 . S
O1 Co0 2.216 . S
O1 C8 1.247 . S
O2 Co0 2.091 . S
O2 C8 1.261 . S
C3 O12 1.247 . S
C3 O13 1.272 . S
O4 Co0 2.004 . S
O4 C9 1.259 . S
Co5 O6 2.061 . S
Co5 O11 2.052 1_554 S
Co5 O13 2.135 . S
O6 Co5 2.061 . S
O6 C9 1.235 . S
C7 O10 1.238 . S
C7 O11 1.241 . S
C8 O1 1.247 . S
C8 O2 1.261 . S
C9 O4 1.259 . S
C9 O6 1.235 . S
O10 Co0 2.021 1_556 S
O10 C7 1.238 . S
O11 Co5 2.052 1_556 S
O11 C7 1.241 . S
O12 Co0 2.137 . S
O12 C3 1.247 . S
O13 Co0 2.244 . S
O13 C3 1.272 . S
O13 Co5 2.135 . S
Co14 O15 2.216 . S
Co14 O16 2.091 . S
Co14 O18 2.004 . S
Co14 O24 2.021 . S
Co14 O26 2.137 . S
Co14 O27 2.244 . S
O15 Co14 2.216 . S
O15 C22 1.247 . S
O16 Co14 2.091 . S
O16 C22 1.261 . S
C17 O26 1.247 . S
C17 O27 1.272 . S
O18 Co14 2.004 . S
O18 C23 1.259 . S
Co19 O20 2.061 . S
Co19 O25 2.052 . S
Co19 O27 2.135 . S
O20 Co19 2.061 . S
O20 C23 1.235 . S
C21 O24 1.238 . S
C21 O25 1.241 . S
C22 O15 1.247 . S
C22 O16 1.261 . S
C23 O18 1.259 . S
C23 O20 1.235 . S
O24 Co14 2.021 . S
O24 C21 1.238 . S
O25 Co19 2.052 . S
O25 C21 1.241 . S
O26 Co14 2.137 . S
O26 C17 1.247 . S
O27 Co14 2.244 . S
O27 C17 1.272 . S
O27 Co19 2.135 . S
Co28 O29 2.216 . S
Co28 O30 2.091 . S
Co28 O32 2.004 . S
Co28 O38 2.021 . S
Co28 O40 2.137 . S
Co28 O41 2.244 . S
O29 Co28 2.216 . S
O29 C36 1.247 . S
O30 Co28 2.091 . S
O30 C36 1.261 . S
C31 O40 1.247 . S
C31 O41 1.272 . S
O32 Co28 2.004 . S
O32 C37 1.259 . S
Co33 O34 2.061 . S
Co33 O39 2.052 . S
Co33 O41 2.135 . S
O34 Co33 2.061 . S
O34 C37 1.235 . S
C35 O38 1.238 . S
C35 O39 1.241 . S
C36 O29 1.247 . S
C36 O30 1.261 . S
C37 O32 1.259 . S
C37 O34 1.235 . S
O38 Co28 2.021 . S
O38 C35 1.238 . S
O39 Co33 2.052 . S
O39 C35 1.241 . S
O40 Co28 2.137 . S
O40 C31 1.247 . S
O41 Co28 2.244 . S
O41 C31 1.272 . S
O41 Co33 2.135 . S
Co42 O43 2.216 . S
Co42 O44 2.091 . S
Co42 O46 2.004 . S
Co42 O52 2.021 1_554 S
Co42 O54 2.137 . S
Co42 O55 2.244 . S
O43 Co42 2.216 . S
O43 C50 1.247 . S
O44 Co42 2.091 . S
O44 C50 1.261 . S
C45 O54 1.247 . S
C45 O55 1.272 . S
O46 Co42 2.004 . S
O46 C51 1.259 . S
Co47 O48 2.061 . S
Co47 O53 2.052 1_554 S
Co47 O55 2.135 . S
O48 Co47 2.061 . S
O48 C51 1.235 . S
C49 O52 1.238 . S
C49 O53 1.241 . S
C50 O43 1.247 . S
C50 O44 1.261 . S
C51 O46 1.259 . S
C51 O48 1.235 . S
O52 Co42 2.021 1_556 S
O52 C49 1.238 . S
O53 Co47 2.052 1_556 S
O53 C49 1.241 . S
O54 Co42 2.137 . S
O54 C45 1.247 . S
O55 Co42 2.244 . S
O55 C45 1.272 . S
O55 Co47 2.135 . S
Co56 O57 2.216 . S
Co56 O58 2.091 . S
Co56 O60 2.004 . S
Co56 O66 2.021 . S
Co56 O68 2.137 . S
Co56 O69 2.244 . S
O57 Co56 2.216 . S
O57 C64 1.247 . S
O58 Co56 2.091 . S
O58 C64 1.261 . S
C59 O68 1.247 . S
C59 O69 1.272 . S
O60 Co56 2.004 . S
O60 C65 1.259 . S
Co61 O62 2.061 . S
Co61 O67 2.052 . S
Co61 O69 2.135 . S
O62 Co61 2.061 . S
O62 C65 1.235 . S
C63 O66 1.238 . S
C63 O67 1.241 . S
C64 O57 1.247 . S
C64 O58 1.261 . S
C65 O60 1.259 . S
C65 O62 1.235 . S
O66 Co56 2.021 . S
O66 C63 1.238 . S
O67 Co61 2.052 . S
O67 C63 1.241 . S
O68 Co56 2.137 . S
O68 C59 1.247 . S
O69 Co56 2.244 . S
O69 C59 1.272 . S
O69 Co61 2.135 . S
Co70 O71 2.216 . S
Co70 O72 2.091 . S
Co70 O74 2.004 . S
Co70 O80 2.021 . S
Co70 O82 2.137 . S
Co70 O83 2.244 . S
O71 Co70 2.216 . S
O71 C78 1.247 . S
O72 Co70 2.091 . S
O72 C78 1.261 . S
C73 O82 1.247 . S
C73 O83 1.272 . S
O74 Co70 2.004 . S
O74 C79 1.259 . S
Co75 O76 2.061 . S
Co75 O81 2.052 . S
Co75 O83 2.135 . S
O76 Co75 2.061 . S
O76 C79 1.235 . S
C77 O80 1.238 . S
C77 O81 1.241 . S
C78 O71 1.247 . S
C78 O72 1.261 . S
C79 O74 1.259 . S
C79 O76 1.235 . S
O80 Co70 2.021 . S
O80 C77 1.238 . S
O81 Co75 2.052 . S
O81 C77 1.241 . S
O82 Co70 2.137 . S
O82 C73 1.247 . S
O83 Co70 2.244 . S
O83 C73 1.272 . S
O83 Co75 2.135 . S
Co84 O85 2.216 . S
Co84 O86 2.091 . S
Co84 O88 2.004 . S
Co84 O94 2.021 . S
Co84 O96 2.137 . S
Co84 O97 2.244 . S
O85 Co84 2.216 . S
O85 C92 1.247 . S
O86 Co84 2.091 . S
O86 C92 1.261 . S
C87 O96 1.247 . S
C87 O97 1.272 . S
O88 Co84 2.004 . S
O88 C93 1.259 . S
Co89 O90 2.061 . S
Co89 O95 2.052 . S
Co89 O97 2.135 . S
O90 Co89 2.061 . S
O90 C93 1.235 . S
C91 O94 1.238 . S
C91 O95 1.241 . S
C92 O85 1.247 . S
C92 O86 1.261 . S
C93 O88 1.259 . S
C93 O90 1.235 . S
O94 Co84 2.021 . S
O94 C91 1.238 . S
O95 Co89 2.052 . S
O95 C91 1.241 . S
O96 Co84 2.137 . S
O96 C87 1.247 . S
O97 Co84 2.244 . S
O97 C87 1.272 . S
O97 Co89 2.135 . S
Co98 O99 2.216 . S
Co98 O100 2.091 . S
Co98 O102 2.004 . S
Co98 O108 2.021 1_556 S
Co98 O110 2.137 . S
Co98 O111 2.244 . S
O99 Co98 2.216 . S
O99 C106 1.247 . S
O100 Co98 2.091 . S
O100 C106 1.261 . S
C101 O110 1.247 . S
C101 O111 1.272 . S
O102 Co98 2.004 . S
O102 C107 1.259 . S
Co103 O104 2.061 . S
Co103 O109 2.052 1_556 S
Co103 O111 2.135 . S
O104 Co103 2.061 . S
O104 C107 1.235 . S
C105 O108 1.238 . S
C105 O109 1.241 . S
C106 O99 1.247 . S
C106 O100 1.261 . S
C107 O102 1.259 . S
C107 O104 1.235 . S
O108 Co98 2.021 1_554 S
O108 C105 1.238 . S
O109 Co103 2.052 1_554 S
O109 C105 1.241 . S
O110 Co98 2.137 . S
O110 C101 1.247 . S
O111 Co98 2.244 . S
O111 C101 1.272 . S
O111 Co103 2.135 . S
Co112 O113 2.216 . S
Co112 O114 2.091 . S
Co112 O116 2.004 . S
Co112 O122 2.021 . S
Co112 O124 2.137 . S
Co112 O125 2.244 . S
O113 Co112 2.216 . S
O113 C120 1.247 . S
O114 Co112 2.091 . S
O114 C120 1.261 . S
C115 O124 1.247 . S
C115 O125 1.272 . S
O116 Co112 2.004 . S
O116 C121 1.259 . S
Co117 O118 2.061 . S
Co117 O123 2.052 . S
Co117 O125 2.135 . S
O118 Co117 2.061 . S
O118 C121 1.235 . S
C119 O122 1.238 . S
C119 O123 1.241 . S
C120 O113 1.247 . S
C120 O114 1.261 . S
C121 O116 1.259 . S
C121 O118 1.235 . S
O122 Co112 2.021 . S
O122 C119 1.238 . S
O123 Co117 2.052 . S
O123 C119 1.241 . S
O124 Co112 2.137 . S
O124 C115 1.247 . S
O125 Co112 2.244 . S
O125 C115 1.272 . S
O125 Co117 2.135 . S
Co126 O127 2.216 . S
Co126 O128 2.091 . S
Co126 O130 2.004 . S
Co126 O136 2.021 . S
Co126 O138 2.137 . S
Co126 O139 2.244 . S
O127 Co126 2.216 . S
O127 C134 1.247 . S
O128 Co126 2.091 . S
O128 C134 1.261 . S
C129 O138 1.247 . S
C129 O139 1.272 . S
O130 Co126 2.004 . S
O130 C135 1.259 . S
Co131 O132 2.061 . S
Co131 O137 2.052 . S
Co131 O139 2.135 . S
O132 Co131 2.061 . S
O132 C135 1.235 . S
C133 O136 1.238 . S
C133 O137 1.241 . S
C134 O127 1.247 . S
C134 O128 1.261 . S
C135 O130 1.259 . S
C135 O132 1.235 . S
O136 Co126 2.021 . S
O136 C133 1.238 . S
O137 Co131 2.052 . S
O137 C133 1.241 . S
O138 Co126 2.137 . S
O138 C129 1.247 . S
O139 Co126 2.244 . S
O139 C129 1.272 . S
O139 Co131 2.135 . S
Co140 O141 2.216 . S
Co140 O142 2.091 . S
Co140 O144 2.004 . S
Co140 O150 2.021 1_556 S
Co140 O152 2.137 . S
Co140 O153 2.244 . S
O141 Co140 2.216 . S
O141 C148 1.247 . S
O142 Co140 2.091 . S
O142 C148 1.261 . S
C143 O152 1.247 . S
C143 O153 1.272 . S
O144 Co140 2.004 . S
O144 C149 1.259 . S
Co145 O146 2.061 . S
Co145 O151 2.052 1_556 S
Co145 O153 2.135 . S
O146 Co145 2.061 . S
O146 C149 1.235 . S
C147 O150 1.238 . S
C147 O151 1.241 . S
C148 O141 1.247 . S
C148 O142 1.261 . S
C149 O144 1.259 . S
C149 O146 1.235 . S
O150 Co140 2.021 1_554 S
O150 C147 1.238 . S
O151 Co145 2.052 1_554 S
O151 C147 1.241 . S
O152 Co140 2.137 . S
O152 C143 1.247 . S
O153 Co140 2.244 . S
O153 C143 1.272 . S
O153 Co145 2.135 . S
Co154 O155 2.216 . S
Co154 O156 2.091 . S
Co154 O158 2.004 . S
Co154 O164 2.021 . S
Co154 O166 2.137 . S
Co154 O167 2.244 . S
O155 Co154 2.216 . S
O155 C162 1.247 . S
O156 Co154 2.091 . S
O156 C162 1.261 . S
C157 O166 1.247 . S
C157 O167 1.272 . S
O158 Co154 2.004 . S
O158 C163 1.259 . S
Co159 O160 2.061 . S
Co159 O165 2.052 . S
Co159 O167 2.135 . S
O160 Co159 2.061 . S
O160 C163 1.235 . S
C161 O164 1.238 . S
C161 O165 1.241 . S
C162 O155 1.247 . S
C162 O156 1.261 . S
C163 O158 1.259 . S
C163 O160 1.235 . S
O164 Co154 2.021 . S
O164 C161 1.238 . S
O165 Co159 2.052 . S
O165 C161 1.241 . S
O166 Co154 2.137 . S
O166 C157 1.247 . S
O167 Co154 2.244 . S
O167 C157 1.272 . S
O167 Co159 2.135 . S
C168 C169 1.387 . S
C168 H172 0.950 . S
C168 C177 1.390 . S
C169 C168 1.387 . S
C169 C171 1.387 . S
H170 C177 0.950 . S
C171 C169 1.387 . S
C171 C173 1.390 . S
C171 H175 0.950 . S
H172 C168 0.950 . S
C173 C171 1.390 . S
C173 C174 1.387 . S
C173 H176 0.950 . S
C174 C173 1.387 . S
C174 C177 1.387 . S
H175 C171 0.950 . S
H176 C173 0.950 . S
C177 C168 1.390 . S
C177 H170 0.950 . S
C177 C174 1.387 . S
C178 C179 1.387 . S
C178 H182 0.950 . S
C178 C187 1.390 . S
C179 C178 1.387 . S
C179 C181 1.387 . S
H180 C187 0.950 . S
C181 C179 1.387 . S
C181 C183 1.390 . S
C181 H185 0.950 . S
H182 C178 0.950 . S
C183 C181 1.390 . S
C183 C184 1.387 . S
C183 H186 0.950 . S
C184 C183 1.387 . S
C184 C187 1.387 . S
H185 C181 0.950 . S
H186 C183 0.950 . S
C187 C178 1.390 . S
C187 H180 0.950 . S
C187 C184 1.387 . S
C188 C189 1.387 . S
C188 H192 0.950 . S
C188 C197 1.390 1_556 S
C189 C188 1.387 . S
C189 C191 1.387 . S
H190 C197 0.950 . S
C191 C189 1.387 . S
C191 C193 1.390 1_556 S
C191 H195 0.950 . S
H192 C188 0.950 . S
C193 C191 1.390 1_554 S
C193 C194 1.387 . S
C193 H196 0.950 . S
C194 C193 1.387 . S
C194 C197 1.387 . S
H195 C191 0.950 . S
H196 C193 0.950 . S
C197 C188 1.390 1_554 S
C197 H190 0.950 . S
C197 C194 1.387 . S
C198 C199 1.387 . S
C198 H202 0.950 . S
C198 C207 1.390 . S
C199 C198 1.387 . S
C199 C201 1.387 . S
H200 C207 0.950 . S
C201 C199 1.387 . S
C201 C203 1.390 . S
C201 H205 0.950 . S
H202 C198 0.950 . S
C203 C201 1.390 . S
C203 C204 1.387 . S
C203 H206 0.950 . S
C204 C203 1.387 . S
C204 C207 1.387 . S
H205 C201 0.950 . S
H206 C203 0.950 . S
C207 C198 1.390 . S
C207 H200 0.950 . S
C207 C204 1.387 . S
C208 C209 1.387 . S
C208 H212 0.950 . S
C208 C217 1.390 . S
C209 C208 1.387 . S
C209 C211 1.387 . S
H210 C217 0.950 . S
C211 C209 1.387 . S
C211 C213 1.390 . S
C211 H215 0.950 . S
H212 C208 0.950 . S
C213 C211 1.390 . S
C213 C214 1.387 . S
C213 H216 0.950 . S
C214 C213 1.387 . S
C214 C217 1.387 . S
H215 C211 0.950 . S
H216 C213 0.950 . S
C217 C208 1.390 . S
C217 H210 0.950 . S
C217 C214 1.387 . S
C218 C219 1.387 . S
C218 H222 0.950 . S
C218 C227 1.390 1_554 S
C219 C218 1.387 . S
C219 C221 1.387 . S
H220 C227 0.950 . S
C221 C219 1.387 . S
C221 C223 1.390 1_554 S
C221 H225 0.950 . S
H222 C218 0.950 . S
C223 C221 1.390 1_556 S
C223 C224 1.387 . S
C223 H226 0.950 . S
C224 C223 1.387 . S
C224 C227 1.387 . S
H225 C221 0.950 . S
H226 C223 0.950 . S
C227 C218 1.390 1_556 S
C227 H220 0.950 . S
C227 C224 1.387 . S
C228 C229 1.387 1_556 S
C228 H232 0.950 . S
C228 C237 1.390 . S
C229 C228 1.387 1_554 S
C229 C231 1.387 . S
H230 C237 0.950 . S
C231 C229 1.387 . S
C231 C233 1.390 . S
C231 H235 0.950 . S
H232 C228 0.950 . S
C233 C231 1.390 . S
C233 C234 1.387 1_554 S
C233 H236 0.950 . S
C234 C233 1.387 1_556 S
C234 C237 1.387 . S
H235 C231 0.950 . S
H236 C233 0.950 . S
C237 C228 1.390 . S
C237 H230 0.950 . S
C237 C234 1.387 . S
C238 C239 1.387 . S
C238 H242 0.950 . S
C238 C247 1.390 . S
C239 C238 1.387 . S
C239 C241 1.387 . S
H240 C247 0.950 . S
C241 C239 1.387 . S
C241 C243 1.390 . S
C241 H245 0.950 . S
H242 C238 0.950 . S
C243 C241 1.390 . S
C243 C244 1.387 . S
C243 H246 0.950 . S
C244 C243 1.387 . S
C244 C247 1.387 . S
H245 C241 0.950 . S
H246 C243 0.950 . S
C247 C238 1.390 . S
C247 H240 0.950 . S
C247 C244 1.387 . S
C248 C249 1.387 . S
C248 H252 0.950 . S
C248 C257 1.390 . S
C249 C248 1.387 . S
C249 C251 1.387 . S
H250 C257 0.950 . S
C251 C249 1.387 . S
C251 C253 1.390 . S
C251 H255 0.950 . S
H252 C248 0.950 . S
C253 C251 1.390 . S
C253 C254 1.387 . S
C253 H256 0.950 . S
C254 C253 1.387 . S
C254 C257 1.387 . S
H255 C251 0.950 . S
H256 C253 0.950 . S
C257 C248 1.390 . S
C257 H250 0.950 . S
C257 C254 1.387 . S
C258 C259 1.387 . S
C258 H262 0.950 . S
C258 C267 1.390 . S
C259 C258 1.387 . S
C259 C261 1.387 1_554 S
H260 C267 0.950 . S
C261 C259 1.387 1_556 S
C261 C263 1.390 . S
C261 H265 0.950 . S
H262 C258 0.950 . S
C263 C261 1.390 . S
C263 C264 1.387 . S
C263 H266 0.950 . S
C264 C263 1.387 . S
C264 C267 1.387 1_556 S
H265 C261 0.950 . S
H266 C263 0.950 . S
C267 C258 1.390 . S
C267 H260 0.950 . S
C267 C264 1.387 1_554 S
C268 C269 1.387 . S
C268 H272 0.950 . S
C268 C277 1.390 . S
C269 C268 1.387 . S
C269 C271 1.387 . S
H270 C277 0.950 . S
C271 C269 1.387 . S
C271 C273 1.390 . S
C271 H275 0.950 . S
H272 C268 0.950 . S
C273 C271 1.390 . S
C273 C274 1.387 . S
C273 H276 0.950 . S
C274 C273 1.387 . S
C274 C277 1.387 . S
H275 C271 0.950 . S
H276 C273 0.950 . S
C277 C268 1.390 . S
C277 H270 0.950 . S
C277 C274 1.387 . S
C278 C279 1.387 . S
C278 H282 0.950 . S
C278 C287 1.390 . S
C279 C278 1.387 . S
C279 C281 1.387 . S
H280 C287 0.950 . S
C281 C279 1.387 . S
C281 C283 1.390 . S
C281 H285 0.950 . S
H282 C278 0.950 . S
C283 C281 1.390 . S
C283 C284 1.387 . S
C283 H286 0.950 . S
C284 C283 1.387 . S
C284 C287 1.387 . S
H285 C281 0.950 . S
H286 C283 0.950 . S
C287 C278 1.390 . S
C287 H280 0.950 . S
C287 C284 1.387 . S
C288 C289 1.387 . S
C288 H292 0.950 . S
C288 C297 1.390 . S
C289 C288 1.387 . S
C289 C291 1.387 . S
H290 C297 0.950 . S
C291 C289 1.387 . S
C291 C293 1.390 . S
C291 H295 0.950 1_554 S
H292 C288 0.950 . S
C293 C291 1.390 . S
C293 C294 1.387 . S
C293 H296 0.950 1_554 S
C294 C293 1.387 . S
C294 C297 1.387 . S
H295 C291 0.950 1_556 S
H296 C293 0.950 1_556 S
C297 C288 1.390 . S
C297 H290 0.950 . S
C297 C294 1.387 . S
C298 C299 1.387 . S
C298 H302 0.950 . S
C298 C307 1.390 1_655 S
C299 C298 1.387 . S
C299 C301 1.387 . S
H300 C307 0.950 . S
C301 C299 1.387 . S
C301 C303 1.390 1_655 S
C301 H305 0.950 . S
H302 C298 0.950 . S
C303 C301 1.390 1_455 S
C303 C304 1.387 . S
C303 H306 0.950 . S
C304 C303 1.387 . S
C304 C307 1.387 . S
H305 C301 0.950 . S
H306 C303 0.950 . S
C307 C298 1.390 1_455 S
C307 H300 0.950 . S
C307 C304 1.387 . S
C308 C309 1.387 . S
C308 H312 0.950 . S
C308 C317 1.390 1_545 S
C309 C308 1.387 . S
C309 C311 1.387 . S
H310 C317 0.950 . S
C311 C309 1.387 . S
C311 C313 1.390 1_545 S
C311 H315 0.950 . S
H312 C308 0.950 . S
C313 C311 1.390 1_565 S
C313 C314 1.387 . S
C313 H316 0.950 . S
C314 C313 1.387 . S
C314 C317 1.387 . S
H315 C311 0.950 . S
H316 C313 0.950 . S
C317 C308 1.390 1_565 S
C317 H310 0.950 . S
C317 C314 1.387 . S
C318 C319 1.387 . S
C318 H322 0.950 . S
C318 C327 1.390 . S
C319 C318 1.387 . S
C319 C321 1.387 . S
H320 C327 0.950 . S
C321 C319 1.387 . S
C321 C323 1.390 . S
C321 H325 0.950 . S
H322 C318 0.950 . S
C323 C321 1.390 . S
C323 C324 1.387 . S
C323 H326 0.950 . S
C324 C323 1.387 . S
C324 C327 1.387 . S
H325 C321 0.950 . S
H326 C323 0.950 . S
C327 C318 1.390 . S
C327 H320 0.950 . S
C327 C324 1.387 . S
C328 C329 1.387 . S
C328 H332 0.950 . S
C328 C337 1.390 1_455 S
C329 C328 1.387 . S
C329 C331 1.387 . S
H330 C337 0.950 . S
C331 C329 1.387 . S
C331 C333 1.390 1_455 S
C331 H335 0.950 1_556 S
H332 C328 0.950 . S
C333 C331 1.390 1_655 S
C333 C334 1.387 . S
C333 H336 0.950 1_556 S
C334 C333 1.387 . S
C334 C337 1.387 . S
H335 C331 0.950 1_554 S
H336 C333 0.950 1_554 S
C337 C328 1.390 1_655 S
C337 H330 0.950 . S
C337 C334 1.387 . S
C338 C339 1.387 . S
C338 H342 0.950 . S
C338 C347 1.390 1_565 S
C339 C338 1.387 . S
C339 C341 1.387 . S
H340 C347 0.950 . S
C341 C339 1.387 . S
C341 C343 1.390 1_565 S
C341 H345 0.950 . S
H342 C338 0.950 . S
C343 C341 1.390 1_545 S
C343 C344 1.387 . S
C343 H346 0.950 . S
C344 C343 1.387 . S
C344 C347 1.387 . S
H345 C341 0.950 . S
H346 C343 0.950 . S
C347 C338 1.390 1_545 S
C347 H340 0.950 . S
C347 C344 1.387 . S
C348 C349 1.387 . S
C348 H352 0.950 . S
C348 C357 1.390 . S
C349 C348 1.387 . S
C349 C351 1.387 . S
H350 C357 0.950 . S
C351 C349 1.387 . S
C351 C353 1.390 . S
C351 H355 0.950 . S
H352 C348 0.950 . S
C353 C351 1.390 . S
C353 C354 1.387 . S
C353 H356 0.950 . S
C354 C353 1.387 . S
C354 C357 1.387 . S
H355 C351 0.950 . S
H356 C353 0.950 . S
C357 C348 1.390 . S
C357 H350 0.950 . S
C357 C354 1.387 . S
C358 C359 1.387 . S
C358 H362 0.950 . S
C358 C367 1.390 . S
C359 C358 1.387 . S
C359 C361 1.387 . S
H360 C367 0.950 . S
C361 C359 1.387 . S
C361 C363 1.390 . S
C361 H365 0.950 . S
H362 C358 0.950 . S
C363 C361 1.390 . S
C363 C364 1.387 . S
C363 H366 0.950 . S
C364 C363 1.387 . S
C364 C367 1.387 . S
H365 C361 0.950 . S
H366 C363 0.950 . S
C367 C358 1.390 . S
C367 H360 0.950 . S
C367 C364 1.387 . S
C368 C369 1.387 . S
C368 H372 0.950 . S
C368 C377 1.390 . S
C369 C368 1.387 . S
C369 C371 1.387 . S
H370 C377 0.950 . S
C371 C369 1.387 . S
C371 C373 1.390 . S
C371 H375 0.950 . S
H372 C368 0.950 . S
C373 C371 1.390 . S
C373 C374 1.387 . S
C373 H376 0.950 . S
C374 C373 1.387 . S
C374 C377 1.387 . S
H375 C371 0.950 . S
H376 C373 0.950 . S
C377 C368 1.390 . S
C377 H370 0.950 . S
C377 C374 1.387 . S
C378 C379 1.387 . S
C378 H382 0.950 . S
C378 C387 1.390 . S
C379 C378 1.387 . S
C379 C381 1.387 . S
H380 C387 0.950 . S
C381 C379 1.387 . S
C381 C383 1.390 . S
C381 H385 0.950 . S
H382 C378 0.950 . S
C383 C381 1.390 . S
C383 C384 1.387 . S
C383 H386 0.950 . S
C384 C383 1.387 . S
C384 C387 1.387 . S
H385 C381 0.950 . S
H386 C383 0.950 . S
C387 C378 1.390 . S
C387 H380 0.950 . S
C387 C384 1.387 . S
C388 C389 1.387 . S
C388 H392 0.950 . S
C388 C397 1.390 . S
C389 C388 1.387 . S
C389 C391 1.387 . S
H390 C397 0.950 . S
C391 C389 1.387 . S
C391 C393 1.390 . S
C391 H395 0.950 . S
H392 C388 0.950 . S
C393 C391 1.390 . S
C393 C394 1.387 . S
C393 H396 0.950 . S
C394 C393 1.387 . S
C394 C397 1.387 . S
H395 C391 0.950 . S
H396 C393 0.950 . S
C397 C388 1.390 . S
C397 H390 0.950 . S
C397 C394 1.387 . S
C398 C399 1.387 . S
C398 H402 0.950 . S
C398 C407 1.390 . S
C399 C398 1.387 . S
C399 C401 1.387 . S
H400 C407 0.950 . S
C401 C399 1.387 . S
C401 C403 1.390 . S
C401 H405 0.950 . S
H402 C398 0.950 . S
C403 C401 1.390 . S
C403 C404 1.387 . S
C403 H406 0.950 . S
C404 C403 1.387 . S
C404 C407 1.387 . S
H405 C401 0.950 . S
H406 C403 0.950 . S
C407 C398 1.390 . S
C407 H400 0.950 . S
C407 C404 1.387 . S
C169 C3 1.539 . S
C174 C87 1.528 . S
C179 C17 1.503 . S
C184 C101 1.503 . S
C189 C31 1.528 . S
C194 C115 1.540 . S
C199 C45 1.540 . S
C204 C129 1.530 . S
C209 C59 1.503 . S
C214 C143 1.502 . S
C219 C157 1.540 . S
C224 C73 1.529 . S
C229 C8 1.600 . S
C234 C148 1.724 . S
C239 C22 1.724 . S
C244 C162 1.603 . S
C249 C36 1.568 . S
C254 C92 1.568 . S
C259 C50 1.604 . S
C264 C106 1.725 . S
C269 C64 1.724 . S
C274 C120 1.603 . S
C279 C78 1.568 . S
C284 C134 1.568 . S
C289 C9 2.000 . S
C294 C51 2.000 . S
C299 C23 1.415 . S
C304 C65 1.415 . S
C309 C79 1.283 . S
C314 C37 1.283 . S
C319 C93 1.283 . S
C324 C135 1.283 . S
C329 C149 1.414 . S
C334 C107 1.414 . S
C339 C121 2.000 . S
C344 C163 2.000 . S
C349 C91 1.049 . S
C354 C7 1.073 . S
C359 C21 1.097 . S
C364 C105 1.100 . S
C369 C35 1.053 . S
C374 C119 1.075 . S
C379 C133 1.054 . S
C384 C49 1.073 . S
C389 C147 1.096 . S
C394 C63 1.097 . S
C399 C77 1.053 . S
C404 C161 1.075 . S
