# Generated by pormake.
# Topology fnw, (5)-cn, num edge types: 1
# Building blocks:
#     Node 0, Type 0, BuildingBlock: XOMCOT_clean_sbu_0, # of connection points: 5
#     Node 1, Type 0, BuildingBlock: XOMCOT_clean_sbu_0, # of connection points: 5
#     Node 2, Type 0, BuildingBlock: XOMCOT_clean_sbu_0, # of connection points: 5
#     Node 3, Type 0, BuildingBlock: XOMCOT_clean_sbu_0, # of connection points: 5
#     Node 4, Type 0, BuildingBlock: XOMCOT_clean_sbu_0, # of connection points: 5
#     Node 5, Type 0, BuildingBlock: XOMCOT_clean_sbu_0, # of connection points: 5
#     Node 6, Type 0, BuildingBlock: XOMCOT_clean_sbu_0, # of connection points: 5
#     Node 7, Type 0, BuildingBlock: XOMCOT_clean_sbu_0, # of connection points: 5
#     Node 8, Type 0, BuildingBlock: XOMCOT_clean_sbu_0, # of connection points: 5
#     Node 9, Type 0, BuildingBlock: XOMCOT_clean_sbu_0, # of connection points: 5
#     Node 10, Type 0, BuildingBlock: XOMCOT_clean_sbu_0, # of connection points: 5
#     Node 11, Type 0, BuildingBlock: XOMCOT_clean_sbu_0, # of connection points: 5
#     Edge 12, Type (0, 0), BuildingBlock: EYOCIG_clean_linker_4, # of connection points: 2
#     Edge 13, Type (0, 0), BuildingBlock: EYOCIG_clean_linker_4, # of connection points: 2
#     Edge 14, Type (0, 0), BuildingBlock: EYOCIG_clean_linker_4, # of connection points: 2
#     Edge 15, Type (0, 0), BuildingBlock: EYOCIG_clean_linker_4, # of connection points: 2
#     Edge 16, Type (0, 0), BuildingBlock: EYOCIG_clean_linker_4, # of connection points: 2
#     Edge 17, Type (0, 0), BuildingBlock: EYOCIG_clean_linker_4, # of connection points: 2
#     Edge 18, Type (0, 0), BuildingBlock: EYOCIG_clean_linker_4, # of connection points: 2
#     Edge 19, Type (0, 0), BuildingBlock: EYOCIG_clean_linker_4, # of connection points: 2
#     Edge 20, Type (0, 0), BuildingBlock: EYOCIG_clean_linker_4, # of connection points: 2
#     Edge 21, Type (0, 0), BuildingBlock: EYOCIG_clean_linker_4, # of connection points: 2
#     Edge 22, Type (0, 0), BuildingBlock: EYOCIG_clean_linker_4, # of connection points: 2
#     Edge 23, Type (0, 0), BuildingBlock: EYOCIG_clean_linker_4, # of connection points: 2
#     Edge 24, Type (0, 0), BuildingBlock: EYOCIG_clean_linker_4, # of connection points: 2
#     Edge 25, Type (0, 0), BuildingBlock: EYOCIG_clean_linker_4, # of connection points: 2
#     Edge 26, Type (0, 0), BuildingBlock: EYOCIG_clean_linker_4, # of connection points: 2
#     Edge 27, Type (0, 0), BuildingBlock: EYOCIG_clean_linker_4, # of connection points: 2
#     Edge 28, Type (0, 0), BuildingBlock: EYOCIG_clean_linker_4, # of connection points: 2
#     Edge 29, Type (0, 0), BuildingBlock: EYOCIG_clean_linker_4, # of connection points: 2
#     Edge 30, Type (0, 0), BuildingBlock: EYOCIG_clean_linker_4, # of connection points: 2
#     Edge 31, Type (0, 0), BuildingBlock: EYOCIG_clean_linker_4, # of connection points: 2
#     Edge 32, Type (0, 0), BuildingBlock: EYOCIG_clean_linker_4, # of connection points: 2
#     Edge 33, Type (0, 0), BuildingBlock: EYOCIG_clean_linker_4, # of connection points: 2
#     Edge 34, Type (0, 0), BuildingBlock: EYOCIG_clean_linker_4, # of connection points: 2
#     Edge 35, Type (0, 0), BuildingBlock: EYOCIG_clean_linker_4, # of connection points: 2
#     Edge 36, Type (0, 0), BuildingBlock: EYOCIG_clean_linker_4, # of connection points: 2
#     Edge 37, Type (0, 0), BuildingBlock: EYOCIG_clean_linker_4, # of connection points: 2
#     Edge 38, Type (0, 0), BuildingBlock: EYOCIG_clean_linker_4, # of connection points: 2
#     Edge 39, Type (0, 0), BuildingBlock: EYOCIG_clean_linker_4, # of connection points: 2
#     Edge 40, Type (0, 0), BuildingBlock: EYOCIG_clean_linker_4, # of connection points: 2
#     Edge 41, Type (0, 0), BuildingBlock: EYOCIG_clean_linker_4, # of connection points: 2
# Relax obj value: 0.266
# Max RMSD: 0.157
# Mean RMSD: 0.157
data_MOF--net-fnw--node1-XOMCOT_clean_sbu_0--edge1-EYOCIG_clean_linker_4
_symmetry_space_group_name_H-M    P1
_symmetry_Int_Tables_number       1
_symmetry_cell_setting            triclinic
loop_
_symmetry_equiv_pos_as_xyz
'x, y, z'
_cell_length_a     41.5443
_cell_length_b     41.537656
_cell_length_c     25.767737
_cell_angle_alpha  89.999774
_cell_angle_beta   89.999395
_cell_angle_gamma 119.98286
loop_
_atom_site_label
_atom_site_type_symbol
_atom_site_fract_x
_atom_site_fract_y
_atom_site_fract_z
_atom_type_partial_charge
Co0 Co 0.27611 0.4695 0.30009 0.0
C1 C 0.30468 0.4172 0.28496 0.0
C2 C 0.33932 0.46281 0.3354 0.0
C3 C 0.35572 0.44136 0.32868 0.0
N4 N 0.30752 0.44781 0.3078 0.0
N5 N 0.33393 0.41301 0.29701 0.0
H6 H 0.28265 0.39932 0.25859 0.0
H7 H 0.35041 0.4883 0.3575 0.0
C8 C 0.329 0.54203 0.2453 0.0
O9 O 0.30426 0.5373 0.20993 0.0
N10 N 0.24462 0.49191 0.29346 0.0
C11 C 0.20746 0.47436 0.28546 0.0
C12 C 0.19649 0.50041 0.27931 0.0
C13 C 0.25508 0.52841 0.29548 0.0
N14 N 0.22659 0.53413 0.28514 0.0
C15 C 0.22989 0.42536 0.21582 0.0
C16 C 0.2834 0.45518 0.1392 0.0
C17 C 0.2462 0.43224 0.12528 0.0
C18 C 0.21946 0.41585 0.16413 0.0
C19 C 0.29258 0.46383 0.19155 0.0
N20 N 0.26539 0.45164 0.22855 0.0
H21 H 0.20917 0.41187 0.2455 0.0
H22 H 0.32144 0.48105 0.20201 0.0
H23 H 0.18912 0.44471 0.28443 0.0
H24 H 0.28292 0.55057 0.30374 0.0
O25 O 0.23619 0.42698 0.33551 0.0
O26 O 0.27932 0.47878 0.37346 0.0
O27 O 0.32187 0.51792 0.28071 0.0
C28 C 0.25024 0.446 0.37786 0.0
H29 H 0.38224 0.4469 0.34413 0.0
H30 H 0.16879 0.49509 0.27031 0.0
H31 H 0.30497 0.46714 0.10992 0.0
H32 H 0.19064 0.39673 0.15462 0.0
Co33 Co 0.81622 0.27107 0.79986 0.0
C34 C 0.89708 0.29964 0.78486 0.0
C35 C 0.88607 0.33426 0.83531 0.0
C36 C 0.92391 0.35065 0.82865 0.0
N37 N 0.8693 0.30247 0.80767 0.0
N38 N 0.93051 0.32889 0.79697 0.0
H39 H 0.89296 0.27763 0.75847 0.0
H40 H 0.87165 0.34533 0.8574 0.0
C41 C 0.79665 0.32404 0.7451 0.0
O42 O 0.7767 0.29934 0.70967 0.0
N43 N 0.76235 0.23959 0.79313 0.0
C44 C 0.74276 0.20243 0.7851 0.0
C45 C 0.70575 0.19146 0.77889 0.0
C46 C 0.73631 0.25005 0.79509 0.0
N47 N 0.70213 0.22157 0.78469 0.0
C48 C 0.81422 0.22493 0.71552 0.0
C49 C 0.83805 0.27854 0.63902 0.0
C50 C 0.8238 0.24135 0.62502 0.0
C51 C 0.81338 0.21456 0.66381 0.0
C52 C 0.83849 0.28766 0.69138 0.0
N53 N 0.82343 0.26043 0.72831 0.0
H54 H 0.80693 0.20416 0.74515 0.0
H55 H 0.85012 0.31651 0.7019 0.0
H56 H 0.75406 0.18407 0.78411 0.0
H57 H 0.74196 0.27789 0.80336 0.0
O58 O 0.8188 0.2311 0.83521 0.0
O59 O 0.8101 0.27421 0.87323 0.0
O60 O 0.81358 0.31686 0.78054 0.0
C61 C 0.8138 0.24511 0.87759 0.0
H62 H 0.94488 0.37717 0.84415 0.0
H63 H 0.68339 0.16376 0.76987 0.0
H64 H 0.84771 0.30016 0.60979 0.0
H65 H 0.80368 0.18573 0.65424 0.0
Co66 Co 0.55481 0.81122 0.30012 0.0
C67 C 0.60704 0.89209 0.28516 0.0
C68 C 0.56149 0.88107 0.33574 0.0
C69 C 0.58292 0.91892 0.3291 0.0
N70 N 0.57647 0.86431 0.308 0.0
N71 N 0.61124 0.92552 0.29733 0.0
H72 H 0.6249 0.88798 0.25869 0.0
H73 H 0.53603 0.86664 0.35789 0.0
C74 C 0.48221 0.79168 0.24558 0.0
O75 O 0.48691 0.77174 0.21006 0.0
N76 N 0.53244 0.75734 0.29331 0.0
C77 C 0.55003 0.73777 0.28521 0.0
C78 C 0.52402 0.70075 0.27894 0.0
C79 C 0.49596 0.73128 0.29528 0.0
N80 N 0.49029 0.69711 0.2848 0.0
C81 C 0.59886 0.80927 0.21563 0.0
C82 C 0.56895 0.83309 0.13929 0.0
C83 C 0.59188 0.81885 0.12518 0.0
C84 C 0.60832 0.80843 0.16389 0.0
C85 C 0.56034 0.83353 0.19168 0.0
N86 N 0.57258 0.81847 0.22853 0.0
H87 H 0.61237 0.80197 0.2452 0.0
H88 H 0.54313 0.84516 0.20229 0.0
H89 H 0.57968 0.74909 0.28418 0.0
H90 H 0.47377 0.73692 0.3036 0.0
O91 O 0.59738 0.81378 0.33534 0.0
O92 O 0.54562 0.80505 0.3735 0.0
O93 O 0.50635 0.80858 0.28097 0.0
C94 C 0.57841 0.80875 0.37776 0.0
H95 H 0.57739 0.93989 0.34467 0.0
H96 H 0.52938 0.67841 0.26984 0.0
H97 H 0.55695 0.84275 0.11012 0.0
H98 H 0.62743 0.79874 0.15423 0.0
Co99 Co 0.75331 0.54992 0.80006 0.0
C100 C 0.72463 0.60215 0.78515 0.0
C101 C 0.69014 0.55656 0.83572 0.0
C102 C 0.6737 0.57799 0.82911 0.0
N103 N 0.72187 0.57157 0.80796 0.0
N104 N 0.69539 0.60633 0.79736 0.0
H105 H 0.74659 0.62002 0.75869 0.0
H106 H 0.67912 0.53109 0.85784 0.0
C107 C 0.70031 0.47732 0.74548 0.0
O108 O 0.72496 0.48204 0.70998 0.0
N109 N 0.78483 0.52755 0.79324 0.0
C110 C 0.82197 0.54514 0.78512 0.0
C111 C 0.83298 0.51913 0.77884 0.0
C112 C 0.77442 0.49107 0.79521 0.0
N113 N 0.80292 0.4854 0.78471 0.0
C114 C 0.79929 0.59399 0.71558 0.0
C115 C 0.74559 0.56406 0.63922 0.0
C116 C 0.78276 0.58699 0.62513 0.0
C117 C 0.80959 0.60343 0.66384 0.0
C118 C 0.73654 0.55547 0.69162 0.0
N119 N 0.76383 0.56771 0.72848 0.0
H120 H 0.82009 0.60751 0.74516 0.0
H121 H 0.70772 0.53826 0.70222 0.0
H122 H 0.84029 0.5748 0.78408 0.0
H123 H 0.74661 0.46888 0.80355 0.0
O124 O 0.79329 0.59249 0.83531 0.0
O125 O 0.75028 0.54071 0.87344 0.0
O126 O 0.70752 0.50145 0.78088 0.0
C127 C 0.77936 0.57351 0.87772 0.0
H128 H 0.6472 0.57245 0.8447 0.0
H129 H 0.86068 0.52449 0.76972 0.0
H130 H 0.72395 0.55205 0.61005 0.0
H131 H 0.83839 0.62255 0.65419 0.0
Co132 Co 0.21307 0.74835 0.30043 0.0
C133 C 0.13221 0.7197 0.28531 0.0
C134 C 0.14324 0.68506 0.3357 0.0
C135 C 0.10539 0.66864 0.32899 0.0
N136 N 0.15999 0.71688 0.30812 0.0
N137 N 0.09879 0.69042 0.29736 0.0
H138 H 0.13633 0.74174 0.25897 0.0
H139 H 0.15766 0.67399 0.35778 0.0
C140 C 0.23279 0.69547 0.24574 0.0
O141 O 0.25274 0.72018 0.21032 0.0
N142 N 0.26695 0.7799 0.29383 0.0
C143 C 0.28651 0.81708 0.28591 0.0
C144 C 0.32354 0.8281 0.27973 0.0
C145 C 0.29303 0.76949 0.29578 0.0
N146 N 0.3272 0.79801 0.28545 0.0
C147 C 0.21516 0.79448 0.216 0.0
C148 C 0.1914 0.74083 0.13955 0.0
C149 C 0.20567 0.77802 0.12552 0.0
C150 C 0.21606 0.80483 0.16428 0.0
C151 C 0.19089 0.73173 0.19193 0.0
N152 N 0.20593 0.75898 0.22884 0.0
H153 H 0.22243 0.81525 0.24561 0.0
H154 H 0.17925 0.70288 0.20249 0.0
H155 H 0.27517 0.8354 0.28496 0.0
H156 H 0.28741 0.74165 0.30398 0.0
O157 O 0.21037 0.78827 0.33571 0.0
O158 O 0.21912 0.74522 0.37382 0.0
O159 O 0.21583 0.70261 0.28116 0.0
C160 C 0.21535 0.77428 0.37812 0.0
H161 H 0.08443 0.6421 0.34444 0.0
H162 H 0.34587 0.85583 0.27076 0.0
H163 H 0.18176 0.71921 0.11034 0.0
H164 H 0.22579 0.83365 0.15467 0.0
Co165 Co 0.4745 0.20816 0.80012 0.0
C166 C 0.42222 0.12731 0.78505 0.0
C167 C 0.46792 0.13827 0.83529 0.0
C168 C 0.44645 0.10042 0.82861 0.0
N169 N 0.45286 0.15507 0.80779 0.0
N170 N 0.41804 0.09386 0.79707 0.0
H171 H 0.40428 0.13146 0.75879 0.0
H172 H 0.49344 0.15267 0.8573 0.0
C173 C 0.54704 0.22783 0.74532 0.0
O174 O 0.54227 0.24782 0.70995 0.0
N175 N 0.49685 0.26206 0.79354 0.0
C176 C 0.47927 0.28165 0.78562 0.0
C177 C 0.50528 0.31867 0.77946 0.0
C178 C 0.53334 0.2881 0.7955 0.0
N179 N 0.53901 0.3223 0.78519 0.0
C180 C 0.4304 0.21028 0.71581 0.0
C181 C 0.46022 0.18654 0.63924 0.0
C182 C 0.4373 0.20083 0.62529 0.0
C183 C 0.42091 0.21121 0.66411 0.0
C184 C 0.46886 0.18601 0.6916 0.0
N185 N 0.45667 0.20104 0.72857 0.0
H186 H 0.41692 0.21754 0.74547 0.0
H187 H 0.48606 0.17435 0.70208 0.0
H188 H 0.44961 0.27033 0.78465 0.0
H189 H 0.55553 0.28244 0.8037 0.0
O190 O 0.43195 0.20552 0.83551 0.0
O191 O 0.48374 0.21419 0.87349 0.0
O192 O 0.52295 0.21086 0.78075 0.0
C193 C 0.45095 0.21047 0.87787 0.0
H194 H 0.45201 0.07943 0.84402 0.0
H195 H 0.49992 0.34104 0.77051 0.0
H196 H 0.47218 0.17691 0.60998 0.0
H197 H 0.40181 0.22094 0.65458 0.0
Co198 Co 0.55472 0.74824 0.70001 0.0
C199 C 0.60695 0.7196 0.71522 0.0
C200 C 0.56126 0.68488 0.66495 0.0
C201 C 0.5827 0.66847 0.6717 0.0
N202 N 0.57633 0.71674 0.69242 0.0
N203 N 0.6111 0.6903 0.70327 0.0
H204 H 0.62488 0.74169 0.74148 0.0
H205 H 0.53575 0.67378 0.6429 0.0
C206 C 0.48215 0.69541 0.75479 0.0
O207 O 0.48692 0.72016 0.79017 0.0
N208 N 0.53238 0.77981 0.70652 0.0
C209 C 0.54999 0.81699 0.71434 0.0
C210 C 0.52399 0.82804 0.72051 0.0
C211 C 0.4959 0.7694 0.70461 0.0
N212 N 0.49025 0.79794 0.71487 0.0
C213 C 0.59875 0.79445 0.78434 0.0
C214 C 0.56894 0.7409 0.86091 0.0
C215 C 0.59185 0.7781 0.87486 0.0
C216 C 0.60823 0.80486 0.83604 0.0
C217 C 0.56032 0.73173 0.80856 0.0
N218 N 0.5725 0.75894 0.77158 0.0
H219 H 0.61224 0.81519 0.75469 0.0
H220 H 0.54312 0.70288 0.79806 0.0
H221 H 0.57965 0.83531 0.71524 0.0
H222 H 0.47369 0.74155 0.69649 0.0
O223 O 0.5973 0.78811 0.66465 0.0
O224 O 0.54552 0.74502 0.62662 0.0
O225 O 0.50624 0.70252 0.71936 0.0
C226 C 0.57832 0.77407 0.62227 0.0
H227 H 0.57712 0.6419 0.65633 0.0
H228 H 0.52937 0.85577 0.72941 0.0
H229 H 0.55698 0.71931 0.89017 0.0
H230 H 0.62733 0.8337 0.84558 0.0
Co231 Co 0.81634 0.54985 0.19995 0.0
C232 C 0.89717 0.60209 0.21516 0.0
C233 C 0.88623 0.55646 0.16478 0.0
C234 C 0.92407 0.5779 0.17153 0.0
N235 N 0.86943 0.57149 0.19232 0.0
N236 N 0.93062 0.60627 0.20316 0.0
H237 H 0.89301 0.62 0.24148 0.0
H238 H 0.87184 0.53096 0.14269 0.0
C239 C 0.79667 0.47726 0.25465 0.0
O240 O 0.77668 0.48199 0.29005 0.0
N241 N 0.76245 0.52749 0.20648 0.0
C242 C 0.74286 0.54509 0.21435 0.0
C243 C 0.70584 0.51908 0.22052 0.0
C244 C 0.7364 0.491 0.20456 0.0
N245 N 0.70221 0.48534 0.21484 0.0
C246 C 0.81415 0.59388 0.2843 0.0
C247 C 0.83786 0.56401 0.36086 0.0
C248 C 0.82356 0.58692 0.37483 0.0
C249 C 0.8132 0.60333 0.33601 0.0
C250 C 0.83842 0.55541 0.3085 0.0
N251 N 0.82342 0.56762 0.27152 0.0
H252 H 0.80691 0.60738 0.25466 0.0
H253 H 0.85009 0.53822 0.298 0.0
H254 H 0.75418 0.57475 0.21528 0.0
H255 H 0.74204 0.4688 0.1964 0.0
O256 O 0.819 0.59243 0.1646 0.0
O257 O 0.81034 0.54065 0.12655 0.0
O258 O 0.81363 0.50137 0.21925 0.0
C259 C 0.81406 0.57346 0.12221 0.0
H260 H 0.94506 0.57234 0.15611 0.0
H261 H 0.68349 0.52446 0.22944 0.0
H262 H 0.84748 0.55204 0.39011 0.0
H263 H 0.80345 0.62243 0.34556 0.0
Co264 Co 0.27595 0.81131 0.70025 0.0
C265 C 0.30455 0.89218 0.71528 0.0
C266 C 0.33915 0.88116 0.66481 0.0
C267 C 0.35554 0.91901 0.67147 0.0
N268 N 0.30737 0.86439 0.69248 0.0
N269 N 0.33378 0.92561 0.70316 0.0
H270 H 0.28254 0.88806 0.74168 0.0
H271 H 0.35021 0.86673 0.64271 0.0
C272 C 0.32896 0.7917 0.75482 0.0
O273 O 0.30431 0.77175 0.79032 0.0
N274 N 0.24444 0.75742 0.70694 0.0
C275 C 0.20727 0.73786 0.71488 0.0
C276 C 0.19626 0.70083 0.7211 0.0
C277 C 0.25486 0.73135 0.70502 0.0
N278 N 0.22635 0.69717 0.71537 0.0
C279 C 0.22989 0.80924 0.78472 0.0
C280 C 0.28357 0.83304 0.86111 0.0
C281 C 0.24639 0.81876 0.87519 0.0
C282 C 0.21957 0.80835 0.83646 0.0
C283 C 0.29264 0.83354 0.80872 0.0
N284 N 0.26537 0.81848 0.77184 0.0
H285 H 0.2091 0.80196 0.75514 0.0
H286 H 0.32148 0.84519 0.79813 0.0
H287 H 0.18894 0.74919 0.71582 0.0
H288 H 0.28269 0.73697 0.6968 0.0
O289 O 0.23598 0.81394 0.66501 0.0
O290 O 0.27902 0.80521 0.62686 0.0
O291 O 0.32173 0.80861 0.71942 0.0
C292 C 0.24995 0.80894 0.62259 0.0
H293 H 0.38205 0.93998 0.65594 0.0
H294 H 0.16854 0.67849 0.73006 0.0
H295 H 0.3052 0.8427 0.8903 0.0
H296 H 0.19075 0.79863 0.84609 0.0
Co297 Co 0.47458 0.2711 0.20008 0.0
C298 C 0.4223 0.29971 0.21498 0.0
C299 C 0.46794 0.33432 0.16456 0.0
C300 C 0.44647 0.35072 0.17118 0.0
N301 N 0.45292 0.30254 0.19222 0.0
N302 N 0.41811 0.32895 0.20283 0.0
H303 H 0.40441 0.2777 0.24137 0.0
H304 H 0.49343 0.34538 0.1425 0.0
C305 C 0.54717 0.32407 0.25467 0.0
O306 O 0.54245 0.2994 0.29014 0.0
N307 N 0.49695 0.23958 0.20687 0.0
C308 C 0.47937 0.20244 0.21506 0.0
C309 C 0.5054 0.19144 0.22129 0.0
C310 C 0.53342 0.25 0.20482 0.0
N311 N 0.53912 0.22151 0.21533 0.0
C312 C 0.43046 0.22509 0.28451 0.0
C313 C 0.46038 0.27876 0.36092 0.0
C314 C 0.43739 0.24159 0.37498 0.0
C315 C 0.42096 0.21478 0.33624 0.0
C316 C 0.46902 0.28783 0.30854 0.0
N317 N 0.45678 0.26055 0.27166 0.0
H318 H 0.41694 0.20431 0.25492 0.0
H319 H 0.48626 0.31666 0.29797 0.0
H320 H 0.44972 0.18412 0.21617 0.0
H321 H 0.5556 0.27782 0.19644 0.0
O322 O 0.43202 0.23113 0.16482 0.0
O323 O 0.48379 0.27416 0.12671 0.0
O324 O 0.52303 0.31689 0.21929 0.0
C325 C 0.451 0.24508 0.12242 0.0
H326 H 0.45202 0.37723 0.15566 0.0
H327 H 0.50005 0.16375 0.23044 0.0
H328 H 0.47237 0.3004 0.39011 0.0
H329 H 0.40181 0.18597 0.34585 0.0
Co330 Co 0.213 0.46951 0.70016 0.0
C331 C 0.13214 0.41722 0.71504 0.0
C332 C 0.14317 0.46286 0.66461 0.0
C333 C 0.10532 0.4414 0.67122 0.0
N334 N 0.15993 0.44784 0.69228 0.0
N335 N 0.09872 0.41303 0.70289 0.0
H336 H 0.13626 0.39932 0.74144 0.0
H337 H 0.15759 0.48836 0.64255 0.0
C338 C 0.23256 0.54204 0.7549 0.0
O339 O 0.25252 0.5373 0.79033 0.0
N340 N 0.26687 0.4919 0.70697 0.0
C341 C 0.28646 0.47434 0.71512 0.0
C342 C 0.32347 0.50038 0.72136 0.0
C343 C 0.29291 0.52839 0.70494 0.0
N344 N 0.32708 0.5341 0.71543 0.0
C345 C 0.21493 0.42533 0.78451 0.0
C346 C 0.19115 0.45519 0.86099 0.0
C347 C 0.20538 0.43223 0.87501 0.0
C348 C 0.21577 0.41582 0.83623 0.0
C349 C 0.1907 0.46385 0.80863 0.0
N350 N 0.20575 0.45164 0.77171 0.0
H351 H 0.2222 0.41183 0.75489 0.0
H352 H 0.17908 0.48108 0.79809 0.0
H353 H 0.27517 0.44469 0.71621 0.0
H354 H 0.28724 0.55056 0.69658 0.0
O355 O 0.21047 0.42699 0.6648 0.0
O356 O 0.21918 0.4788 0.6268 0.0
O357 O 0.21562 0.51794 0.71948 0.0
C358 C 0.2155 0.44601 0.62244 0.0
H359 H 0.08435 0.44695 0.65569 0.0
H360 H 0.34582 0.49505 0.73048 0.0
H361 H 0.18151 0.46716 0.89021 0.0
H362 H 0.22546 0.39668 0.84581 0.0
Co363 Co 0.75329 0.20801 0.19993 0.0
C364 C 0.72463 0.12713 0.21501 0.0
C365 C 0.69005 0.13818 0.16454 0.0
C366 C 0.67361 0.10033 0.17126 0.0
N367 N 0.72184 0.15493 0.19217 0.0
N368 N 0.69536 0.09371 0.20295 0.0
H369 H 0.74664 0.13124 0.24141 0.0
H370 H 0.679 0.15261 0.14243 0.0
C371 C 0.70043 0.22772 0.25472 0.0
O372 O 0.72517 0.24769 0.2901 0.0
N373 N 0.78482 0.2619 0.20661 0.0
C374 C 0.82197 0.28146 0.21468 0.0
C375 C 0.83297 0.31848 0.22088 0.0
C376 C 0.77439 0.28797 0.20461 0.0
N377 N 0.80289 0.32214 0.21503 0.0
C378 C 0.79945 0.20997 0.28421 0.0
C379 C 0.74592 0.18634 0.3608 0.0
C380 C 0.78311 0.20055 0.37474 0.0
C381 C 0.80986 0.21086 0.33591 0.0
C382 C 0.73676 0.18584 0.30845 0.0
N383 N 0.76397 0.20082 0.27146 0.0
H384 H 0.82018 0.21719 0.25455 0.0
H385 H 0.70791 0.17424 0.29797 0.0
H386 H 0.84029 0.27012 0.21573 0.0
H387 H 0.74657 0.28233 0.19632 0.0
O388 O 0.7932 0.20538 0.16451 0.0
O389 O 0.75011 0.21412 0.12656 0.0
O390 O 0.70755 0.21073 0.2193 0.0
C391 C 0.77918 0.21039 0.12216 0.0
H392 H 0.64708 0.07937 0.15579 0.0
H393 H 0.86067 0.34082 0.22995 0.0
H394 H 0.72434 0.17675 0.39006 0.0
H395 H 0.83868 0.22053 0.34543 0.0
C396 C 0.37266 0.34919 0.2404 0.0
C397 C 0.39286 0.33835 0.22432 0.0
C398 C 0.3542 0.36761 0.2593 0.0
C399 C 0.34333 0.38778 0.27543 0.0
C400 C 0.99617 0.34916 0.75933 0.0
C401 C 0.96514 0.33829 0.77543 0.0
C402 C 0.03305 0.36761 0.74045 0.0
C403 C 0.06408 0.38779 0.72438 0.0
C404 C 0.67503 0.02805 0.2407 0.0
C405 C 0.68592 0.05908 0.22454 0.0
C406 C 0.65658 0.99119 0.25964 0.0
C407 C 0.63643 0.96016 0.27578 0.0
C408 C 0.67503 0.65168 0.75978 0.0
C409 C 0.68593 0.63153 0.77586 0.0
C410 C 0.65655 0.6701 0.74091 0.0
C411 C 0.63636 0.68094 0.7248 0.0
C412 C 0.03313 0.67015 0.25972 0.0
C413 C 0.06416 0.68102 0.27583 0.0
C414 C 0.99625 0.6517 0.24083 0.0
C415 C 0.96523 0.63152 0.22471 0.0
C416 C 0.35406 0.9913 0.74072 0.0
C417 C 0.34318 0.96025 0.72466 0.0
C418 C 0.37253 0.0282 0.75955 0.0
C419 C 0.39274 0.05923 0.7756 0.0
C420 C 0.21703 0.42394 0.97379 0.0
C421 C 0.21179 0.4276 0.9287 0.0
C422 C 0.22617 0.42394 0.02654 0.0
C423 C 0.2351 0.4276 0.07162 0.0
C424 C 0.8031 0.21226 0.47349 0.0
C425 C 0.79419 0.207 0.42841 0.0
C426 C 0.81221 0.22141 0.52625 0.0
C427 C 0.81742 0.23031 0.57133 0.0
C428 C 0.60011 0.80723 0.02637 0.0
C429 C 0.59647 0.81246 0.07146 0.0
C430 C 0.60011 0.7981 0.97361 0.0
C431 C 0.59646 0.78918 0.92854 0.0
C432 C 0.81178 0.59515 0.47357 0.0
C433 C 0.81707 0.59152 0.4285 0.0
C434 C 0.80262 0.59516 0.52632 0.0
C435 C 0.79374 0.59154 0.57141 0.0
C436 C 0.22651 0.80708 0.97398 0.0
C437 C 0.2354 0.81234 0.9289 0.0
C438 C 0.21737 0.79794 0.02674 0.0
C439 C 0.21211 0.78904 0.07182 0.0
C440 C 0.42905 0.21257 0.52654 0.0
C441 C 0.43269 0.2073 0.57162 0.0
C442 C 0.42908 0.22171 0.47378 0.0
C443 C 0.43276 0.2306 0.42869 0.0
C444 C 0.80981 0.59349 0.02689 0.0
C445 C 0.81228 0.58737 0.072 0.0
C446 C 0.80375 0.59351 0.973 0.0
C447 C 0.79512 0.58742 0.9279 0.0
C448 C 0.2256 0.80464 0.52731 0.0
C449 C 0.2342 0.80714 0.57242 0.0
C450 C 0.21957 0.79858 0.47341 0.0
C451 C 0.21711 0.78998 0.42831 0.0
C452 C 0.43096 0.21471 0.97323 0.0
C453 C 0.43706 0.21225 0.9281 0.0
C454 C 0.43097 0.22074 0.02713 0.0
C455 C 0.43708 0.22935 0.07223 0.0
C456 C 0.22598 0.42608 0.47322 0.0
C457 C 0.23456 0.43216 0.4281 0.0
C458 C 0.21991 0.42608 0.52711 0.0
C459 C 0.21737 0.43216 0.57222 0.0
C460 C 0.80947 0.2208 0.97291 0.0
C461 C 0.81197 0.2294 0.9278 0.0
C462 C 0.80343 0.21473 0.02681 0.0
C463 C 0.79486 0.21222 0.07193 0.0
C464 C 0.59838 0.7983 0.52693 0.0
C465 C 0.59224 0.78973 0.57205 0.0
C466 C 0.59842 0.80437 0.47304 0.0
C467 C 0.59233 0.8069 0.42793 0.0
C468 C 0.23031 0.59766 0.26661 0.0
C469 C 0.22878 0.56838 0.27523 0.0
C470 C 0.23198 0.63184 0.25588 0.0
C471 C 0.23335 0.66125 0.24926 0.0
C472 C 0.64232 0.22529 0.76613 0.0
C473 C 0.67007 0.22376 0.77476 0.0
C474 C 0.60983 0.22698 0.7554 0.0
C475 C 0.5818 0.22837 0.74881 0.0
C476 C 0.4268 0.63729 0.26617 0.0
C477 C 0.45607 0.66504 0.27484 0.0
C478 C 0.39264 0.6048 0.25542 0.0
C479 C 0.36322 0.57678 0.24881 0.0
C480 C 0.79755 0.38771 0.75527 0.0
C481 C 0.79614 0.35828 0.74863 0.0
C482 C 0.79924 0.42189 0.76605 0.0
C483 C 0.80076 0.45116 0.77473 0.0
C484 C 0.38702 0.79435 0.26676 0.0
C485 C 0.35927 0.79587 0.27545 0.0
C486 C 0.41949 0.79263 0.25593 0.0
C487 C 0.44749 0.79121 0.24922 0.0
C488 C 0.63667 0.41458 0.75577 0.0
C489 C 0.66608 0.44259 0.74909 0.0
C490 C 0.6025 0.38211 0.76657 0.0
C491 C 0.57323 0.35436 0.77523 0.0
C492 C 0.39261 0.79261 0.74447 0.0
C493 C 0.36319 0.79119 0.75119 0.0
C494 C 0.42678 0.7943 0.73362 0.0
C495 C 0.45604 0.79581 0.72491 0.0
C496 C 0.60992 0.3877 0.24436 0.0
C497 C 0.58191 0.35829 0.25105 0.0
C498 C 0.6424 0.42186 0.23353 0.0
C499 C 0.67015 0.45112 0.22484 0.0
C500 C 0.23167 0.60482 0.74475 0.0
C501 C 0.23307 0.5768 0.75137 0.0
C502 C 0.22999 0.63732 0.73399 0.0
C503 C 0.22849 0.66509 0.72533 0.0
C504 C 0.60263 0.2252 0.23389 0.0
C505 C 0.57336 0.22368 0.22525 0.0
C506 C 0.6368 0.22688 0.24463 0.0
C507 C 0.66622 0.22826 0.25123 0.0
C508 C 0.41936 0.6318 0.7447 0.0
C509 C 0.44739 0.66121 0.7513 0.0
C510 C 0.38687 0.59763 0.73397 0.0
C511 C 0.35913 0.56835 0.72534 0.0
C512 C 0.79921 0.38197 0.23366 0.0
C513 C 0.80072 0.35421 0.22499 0.0
C514 C 0.79752 0.41447 0.24444 0.0
C515 C 0.79613 0.4425 0.25109 0.0
loop_
_geom_bond_atom_site_label_1
_geom_bond_atom_site_label_2
_geom_bond_distance
_geom_bond_site_symmetry_2
_ccdc_geom_bond_type
Co0 N4 2.148 . S
Co0 N10 2.128 . S
Co0 N20 2.194 . S
Co0 O25 2.351 . S
Co0 O26 2.155 . S
Co0 O27 2.096 . S
C1 N4 1.301 . S
C1 N5 1.328 . S
C1 H6 0.930 . S
C2 C3 1.333 . S
C2 N4 1.317 . S
C2 H7 0.930 . S
C3 C2 1.333 . S
C3 N5 1.350 . S
C3 H29 0.931 . S
N4 Co0 2.148 . S
N4 C1 1.301 . S
N4 C2 1.317 . S
N5 C1 1.328 . S
N5 C3 1.350 . S
H6 C1 0.930 . S
H7 C2 0.930 . S
C8 O9 1.224 . S
C8 O27 1.247 . S
O9 C8 1.224 . S
N10 Co0 2.128 . S
N10 C11 1.355 . S
N10 C13 1.311 . S
C11 N10 1.355 . S
C11 C12 1.363 . S
C11 H23 0.929 . S
C12 C11 1.363 . S
C12 N14 1.375 . S
C12 H30 0.931 . S
C13 N10 1.311 . S
C13 N14 1.347 . S
C13 H24 0.929 . S
N14 C12 1.375 . S
N14 C13 1.347 . S
C15 C18 1.365 . S
C15 N20 1.328 . S
C15 H21 0.929 . S
C16 C17 1.362 . S
C16 C19 1.378 . S
C16 H31 0.929 . S
C17 C16 1.362 . S
C17 C18 1.366 . S
C18 C15 1.365 . S
C18 C17 1.366 . S
C18 H32 0.930 . S
C19 C16 1.378 . S
C19 N20 1.315 . S
C19 H22 0.930 . S
N20 Co0 2.194 . S
N20 C15 1.328 . S
N20 C19 1.315 . S
H21 C15 0.929 . S
H22 C19 0.930 . S
H23 C11 0.929 . S
H24 C13 0.929 . S
O25 Co0 2.351 . S
O25 C28 1.244 . S
O26 Co0 2.155 . S
O26 C28 1.240 . S
O27 Co0 2.096 . S
O27 C8 1.247 . S
C28 O25 1.244 . S
C28 O26 1.240 . S
H29 C3 0.931 . S
H30 C12 0.931 . S
H31 C16 0.929 . S
H32 C18 0.930 . S
Co33 N37 2.148 . S
Co33 N43 2.128 . S
Co33 N53 2.194 . S
Co33 O58 2.351 . S
Co33 O59 2.155 . S
Co33 O60 2.096 . S
C34 N37 1.301 . S
C34 N38 1.328 . S
C34 H39 0.930 . S
C35 C36 1.333 . S
C35 N37 1.317 . S
C35 H40 0.930 . S
C36 C35 1.333 . S
C36 N38 1.350 . S
C36 H62 0.931 . S
N37 Co33 2.148 . S
N37 C34 1.301 . S
N37 C35 1.317 . S
N38 C34 1.328 . S
N38 C36 1.350 . S
H39 C34 0.930 . S
H40 C35 0.930 . S
C41 O42 1.224 . S
C41 O60 1.247 . S
O42 C41 1.224 . S
N43 Co33 2.128 . S
N43 C44 1.355 . S
N43 C46 1.311 . S
C44 N43 1.355 . S
C44 C45 1.363 . S
C44 H56 0.929 . S
C45 C44 1.363 . S
C45 N47 1.375 . S
C45 H63 0.931 . S
C46 N43 1.311 . S
C46 N47 1.347 . S
C46 H57 0.929 . S
N47 C45 1.375 . S
N47 C46 1.347 . S
C48 C51 1.365 . S
C48 N53 1.328 . S
C48 H54 0.929 . S
C49 C50 1.362 . S
C49 C52 1.378 . S
C49 H64 0.929 . S
C50 C49 1.362 . S
C50 C51 1.366 . S
C51 C48 1.365 . S
C51 C50 1.366 . S
C51 H65 0.930 . S
C52 C49 1.378 . S
C52 N53 1.315 . S
C52 H55 0.930 . S
N53 Co33 2.194 . S
N53 C48 1.328 . S
N53 C52 1.315 . S
H54 C48 0.929 . S
H55 C52 0.930 . S
H56 C44 0.929 . S
H57 C46 0.929 . S
O58 Co33 2.351 . S
O58 C61 1.244 . S
O59 Co33 2.155 . S
O59 C61 1.240 . S
O60 Co33 2.096 . S
O60 C41 1.247 . S
C61 O58 1.244 . S
C61 O59 1.240 . S
H62 C36 0.931 . S
H63 C45 0.931 . S
H64 C49 0.929 . S
H65 C51 0.930 . S
Co66 N70 2.148 . S
Co66 N76 2.128 . S
Co66 N86 2.194 . S
Co66 O91 2.351 . S
Co66 O92 2.155 . S
Co66 O93 2.096 . S
C67 N70 1.301 . S
C67 N71 1.328 . S
C67 H72 0.930 . S
C68 C69 1.333 . S
C68 N70 1.317 . S
C68 H73 0.930 . S
C69 C68 1.333 . S
C69 N71 1.350 . S
C69 H95 0.931 . S
N70 Co66 2.148 . S
N70 C67 1.301 . S
N70 C68 1.317 . S
N71 C67 1.328 . S
N71 C69 1.350 . S
H72 C67 0.930 . S
H73 C68 0.930 . S
C74 O75 1.224 . S
C74 O93 1.247 . S
O75 C74 1.224 . S
N76 Co66 2.128 . S
N76 C77 1.355 . S
N76 C79 1.311 . S
C77 N76 1.355 . S
C77 C78 1.363 . S
C77 H89 0.929 . S
C78 C77 1.363 . S
C78 N80 1.375 . S
C78 H96 0.931 . S
C79 N76 1.311 . S
C79 N80 1.347 . S
C79 H90 0.929 . S
N80 C78 1.375 . S
N80 C79 1.347 . S
C81 C84 1.365 . S
C81 N86 1.328 . S
C81 H87 0.929 . S
C82 C83 1.362 . S
C82 C85 1.378 . S
C82 H97 0.929 . S
C83 C82 1.362 . S
C83 C84 1.366 . S
C84 C81 1.365 . S
C84 C83 1.366 . S
C84 H98 0.930 . S
C85 C82 1.378 . S
C85 N86 1.315 . S
C85 H88 0.930 . S
N86 Co66 2.194 . S
N86 C81 1.328 . S
N86 C85 1.315 . S
H87 C81 0.929 . S
H88 C85 0.930 . S
H89 C77 0.929 . S
H90 C79 0.929 . S
O91 Co66 2.351 . S
O91 C94 1.244 . S
O92 Co66 2.155 . S
O92 C94 1.240 . S
O93 Co66 2.096 . S
O93 C74 1.247 . S
C94 O91 1.244 . S
C94 O92 1.240 . S
H95 C69 0.931 . S
H96 C78 0.931 . S
H97 C82 0.929 . S
H98 C84 0.930 . S
Co99 N103 2.148 . S
Co99 N109 2.128 . S
Co99 N119 2.194 . S
Co99 O124 2.351 . S
Co99 O125 2.155 . S
Co99 O126 2.096 . S
C100 N103 1.301 . S
C100 N104 1.328 . S
C100 H105 0.930 . S
C101 C102 1.333 . S
C101 N103 1.317 . S
C101 H106 0.930 . S
C102 C101 1.333 . S
C102 N104 1.350 . S
C102 H128 0.931 . S
N103 Co99 2.148 . S
N103 C100 1.301 . S
N103 C101 1.317 . S
N104 C100 1.328 . S
N104 C102 1.350 . S
H105 C100 0.930 . S
H106 C101 0.930 . S
C107 O108 1.224 . S
C107 O126 1.247 . S
O108 C107 1.224 . S
N109 Co99 2.128 . S
N109 C110 1.355 . S
N109 C112 1.311 . S
C110 N109 1.355 . S
C110 C111 1.363 . S
C110 H122 0.929 . S
C111 C110 1.363 . S
C111 N113 1.375 . S
C111 H129 0.931 . S
C112 N109 1.311 . S
C112 N113 1.347 . S
C112 H123 0.929 . S
N113 C111 1.375 . S
N113 C112 1.347 . S
C114 C117 1.365 . S
C114 N119 1.328 . S
C114 H120 0.929 . S
C115 C116 1.362 . S
C115 C118 1.378 . S
C115 H130 0.929 . S
C116 C115 1.362 . S
C116 C117 1.366 . S
C117 C114 1.365 . S
C117 C116 1.366 . S
C117 H131 0.930 . S
C118 C115 1.378 . S
C118 N119 1.315 . S
C118 H121 0.930 . S
N119 Co99 2.194 . S
N119 C114 1.328 . S
N119 C118 1.315 . S
H120 C114 0.929 . S
H121 C118 0.930 . S
H122 C110 0.929 . S
H123 C112 0.929 . S
O124 Co99 2.351 . S
O124 C127 1.244 . S
O125 Co99 2.155 . S
O125 C127 1.240 . S
O126 Co99 2.096 . S
O126 C107 1.247 . S
C127 O124 1.244 . S
C127 O125 1.240 . S
H128 C102 0.931 . S
H129 C111 0.931 . S
H130 C115 0.929 . S
H131 C117 0.930 . S
Co132 N136 2.148 . S
Co132 N142 2.128 . S
Co132 N152 2.194 . S
Co132 O157 2.351 . S
Co132 O158 2.155 . S
Co132 O159 2.096 . S
C133 N136 1.301 . S
C133 N137 1.328 . S
C133 H138 0.930 . S
C134 C135 1.333 . S
C134 N136 1.317 . S
C134 H139 0.930 . S
C135 C134 1.333 . S
C135 N137 1.350 . S
C135 H161 0.931 . S
N136 Co132 2.148 . S
N136 C133 1.301 . S
N136 C134 1.317 . S
N137 C133 1.328 . S
N137 C135 1.350 . S
H138 C133 0.930 . S
H139 C134 0.930 . S
C140 O141 1.224 . S
C140 O159 1.247 . S
O141 C140 1.224 . S
N142 Co132 2.128 . S
N142 C143 1.355 . S
N142 C145 1.311 . S
C143 N142 1.355 . S
C143 C144 1.363 . S
C143 H155 0.929 . S
C144 C143 1.363 . S
C144 N146 1.375 . S
C144 H162 0.931 . S
C145 N142 1.311 . S
C145 N146 1.347 . S
C145 H156 0.929 . S
N146 C144 1.375 . S
N146 C145 1.347 . S
C147 C150 1.365 . S
C147 N152 1.328 . S
C147 H153 0.929 . S
C148 C149 1.362 . S
C148 C151 1.378 . S
C148 H163 0.929 . S
C149 C148 1.362 . S
C149 C150 1.366 . S
C150 C147 1.365 . S
C150 C149 1.366 . S
C150 H164 0.930 . S
C151 C148 1.378 . S
C151 N152 1.315 . S
C151 H154 0.930 . S
N152 Co132 2.194 . S
N152 C147 1.328 . S
N152 C151 1.315 . S
H153 C147 0.929 . S
H154 C151 0.930 . S
H155 C143 0.929 . S
H156 C145 0.929 . S
O157 Co132 2.351 . S
O157 C160 1.244 . S
O158 Co132 2.155 . S
O158 C160 1.240 . S
O159 Co132 2.096 . S
O159 C140 1.247 . S
C160 O157 1.244 . S
C160 O158 1.240 . S
H161 C135 0.931 . S
H162 C144 0.931 . S
H163 C148 0.929 . S
H164 C150 0.930 . S
Co165 N169 2.148 . S
Co165 N175 2.128 . S
Co165 N185 2.194 . S
Co165 O190 2.351 . S
Co165 O191 2.155 . S
Co165 O192 2.096 . S
C166 N169 1.301 . S
C166 N170 1.328 . S
C166 H171 0.930 . S
C167 C168 1.333 . S
C167 N169 1.317 . S
C167 H172 0.930 . S
C168 C167 1.333 . S
C168 N170 1.350 . S
C168 H194 0.931 . S
N169 Co165 2.148 . S
N169 C166 1.301 . S
N169 C167 1.317 . S
N170 C166 1.328 . S
N170 C168 1.350 . S
H171 C166 0.930 . S
H172 C167 0.930 . S
C173 O174 1.224 . S
C173 O192 1.247 . S
O174 C173 1.224 . S
N175 Co165 2.128 . S
N175 C176 1.355 . S
N175 C178 1.311 . S
C176 N175 1.355 . S
C176 C177 1.363 . S
C176 H188 0.929 . S
C177 C176 1.363 . S
C177 N179 1.375 . S
C177 H195 0.931 . S
C178 N175 1.311 . S
C178 N179 1.347 . S
C178 H189 0.929 . S
N179 C177 1.375 . S
N179 C178 1.347 . S
C180 C183 1.365 . S
C180 N185 1.328 . S
C180 H186 0.929 . S
C181 C182 1.362 . S
C181 C184 1.378 . S
C181 H196 0.929 . S
C182 C181 1.362 . S
C182 C183 1.366 . S
C183 C180 1.365 . S
C183 C182 1.366 . S
C183 H197 0.930 . S
C184 C181 1.378 . S
C184 N185 1.315 . S
C184 H187 0.930 . S
N185 Co165 2.194 . S
N185 C180 1.328 . S
N185 C184 1.315 . S
H186 C180 0.929 . S
H187 C184 0.930 . S
H188 C176 0.929 . S
H189 C178 0.929 . S
O190 Co165 2.351 . S
O190 C193 1.244 . S
O191 Co165 2.155 . S
O191 C193 1.240 . S
O192 Co165 2.096 . S
O192 C173 1.247 . S
C193 O190 1.244 . S
C193 O191 1.240 . S
H194 C168 0.931 . S
H195 C177 0.931 . S
H196 C181 0.929 . S
H197 C183 0.930 . S
Co198 N202 2.148 . S
Co198 N208 2.128 . S
Co198 N218 2.194 . S
Co198 O223 2.351 . S
Co198 O224 2.155 . S
Co198 O225 2.096 . S
C199 N202 1.301 . S
C199 N203 1.328 . S
C199 H204 0.930 . S
C200 C201 1.333 . S
C200 N202 1.317 . S
C200 H205 0.930 . S
C201 C200 1.333 . S
C201 N203 1.350 . S
C201 H227 0.931 . S
N202 Co198 2.148 . S
N202 C199 1.301 . S
N202 C200 1.317 . S
N203 C199 1.328 . S
N203 C201 1.350 . S
H204 C199 0.930 . S
H205 C200 0.930 . S
C206 O207 1.224 . S
C206 O225 1.247 . S
O207 C206 1.224 . S
N208 Co198 2.128 . S
N208 C209 1.355 . S
N208 C211 1.311 . S
C209 N208 1.355 . S
C209 C210 1.363 . S
C209 H221 0.929 . S
C210 C209 1.363 . S
C210 N212 1.375 . S
C210 H228 0.931 . S
C211 N208 1.311 . S
C211 N212 1.347 . S
C211 H222 0.929 . S
N212 C210 1.375 . S
N212 C211 1.347 . S
C213 C216 1.365 . S
C213 N218 1.328 . S
C213 H219 0.929 . S
C214 C215 1.362 . S
C214 C217 1.378 . S
C214 H229 0.929 . S
C215 C214 1.362 . S
C215 C216 1.366 . S
C216 C213 1.365 . S
C216 C215 1.366 . S
C216 H230 0.930 . S
C217 C214 1.378 . S
C217 N218 1.315 . S
C217 H220 0.930 . S
N218 Co198 2.194 . S
N218 C213 1.328 . S
N218 C217 1.315 . S
H219 C213 0.929 . S
H220 C217 0.930 . S
H221 C209 0.929 . S
H222 C211 0.929 . S
O223 Co198 2.351 . S
O223 C226 1.244 . S
O224 Co198 2.155 . S
O224 C226 1.240 . S
O225 Co198 2.096 . S
O225 C206 1.247 . S
C226 O223 1.244 . S
C226 O224 1.240 . S
H227 C201 0.931 . S
H228 C210 0.931 . S
H229 C214 0.929 . S
H230 C216 0.930 . S
Co231 N235 2.148 . S
Co231 N241 2.128 . S
Co231 N251 2.194 . S
Co231 O256 2.351 . S
Co231 O257 2.155 . S
Co231 O258 2.096 . S
C232 N235 1.301 . S
C232 N236 1.328 . S
C232 H237 0.930 . S
C233 C234 1.333 . S
C233 N235 1.317 . S
C233 H238 0.930 . S
C234 C233 1.333 . S
C234 N236 1.350 . S
C234 H260 0.931 . S
N235 Co231 2.148 . S
N235 C232 1.301 . S
N235 C233 1.317 . S
N236 C232 1.328 . S
N236 C234 1.350 . S
H237 C232 0.930 . S
H238 C233 0.930 . S
C239 O240 1.224 . S
C239 O258 1.247 . S
O240 C239 1.224 . S
N241 Co231 2.128 . S
N241 C242 1.355 . S
N241 C244 1.311 . S
C242 N241 1.355 . S
C242 C243 1.363 . S
C242 H254 0.929 . S
C243 C242 1.363 . S
C243 N245 1.375 . S
C243 H261 0.931 . S
C244 N241 1.311 . S
C244 N245 1.347 . S
C244 H255 0.929 . S
N245 C243 1.375 . S
N245 C244 1.347 . S
C246 C249 1.365 . S
C246 N251 1.328 . S
C246 H252 0.929 . S
C247 C248 1.362 . S
C247 C250 1.378 . S
C247 H262 0.929 . S
C248 C247 1.362 . S
C248 C249 1.366 . S
C249 C246 1.365 . S
C249 C248 1.366 . S
C249 H263 0.930 . S
C250 C247 1.378 . S
C250 N251 1.315 . S
C250 H253 0.930 . S
N251 Co231 2.194 . S
N251 C246 1.328 . S
N251 C250 1.315 . S
H252 C246 0.929 . S
H253 C250 0.930 . S
H254 C242 0.929 . S
H255 C244 0.929 . S
O256 Co231 2.351 . S
O256 C259 1.244 . S
O257 Co231 2.155 . S
O257 C259 1.240 . S
O258 Co231 2.096 . S
O258 C239 1.247 . S
C259 O256 1.244 . S
C259 O257 1.240 . S
H260 C234 0.931 . S
H261 C243 0.931 . S
H262 C247 0.929 . S
H263 C249 0.930 . S
Co264 N268 2.148 . S
Co264 N274 2.128 . S
Co264 N284 2.194 . S
Co264 O289 2.351 . S
Co264 O290 2.155 . S
Co264 O291 2.096 . S
C265 N268 1.301 . S
C265 N269 1.328 . S
C265 H270 0.930 . S
C266 C267 1.333 . S
C266 N268 1.317 . S
C266 H271 0.930 . S
C267 C266 1.333 . S
C267 N269 1.350 . S
C267 H293 0.931 . S
N268 Co264 2.148 . S
N268 C265 1.301 . S
N268 C266 1.317 . S
N269 C265 1.328 . S
N269 C267 1.350 . S
H270 C265 0.930 . S
H271 C266 0.930 . S
C272 O273 1.224 . S
C272 O291 1.247 . S
O273 C272 1.224 . S
N274 Co264 2.128 . S
N274 C275 1.355 . S
N274 C277 1.311 . S
C275 N274 1.355 . S
C275 C276 1.363 . S
C275 H287 0.929 . S
C276 C275 1.363 . S
C276 N278 1.375 . S
C276 H294 0.931 . S
C277 N274 1.311 . S
C277 N278 1.347 . S
C277 H288 0.929 . S
N278 C276 1.375 . S
N278 C277 1.347 . S
C279 C282 1.365 . S
C279 N284 1.328 . S
C279 H285 0.929 . S
C280 C281 1.362 . S
C280 C283 1.378 . S
C280 H295 0.929 . S
C281 C280 1.362 . S
C281 C282 1.366 . S
C282 C279 1.365 . S
C282 C281 1.366 . S
C282 H296 0.930 . S
C283 C280 1.378 . S
C283 N284 1.315 . S
C283 H286 0.930 . S
N284 Co264 2.194 . S
N284 C279 1.328 . S
N284 C283 1.315 . S
H285 C279 0.929 . S
H286 C283 0.930 . S
H287 C275 0.929 . S
H288 C277 0.929 . S
O289 Co264 2.351 . S
O289 C292 1.244 . S
O290 Co264 2.155 . S
O290 C292 1.240 . S
O291 Co264 2.096 . S
O291 C272 1.247 . S
C292 O289 1.244 . S
C292 O290 1.240 . S
H293 C267 0.931 . S
H294 C276 0.931 . S
H295 C280 0.929 . S
H296 C282 0.930 . S
Co297 N301 2.148 . S
Co297 N307 2.128 . S
Co297 N317 2.194 . S
Co297 O322 2.351 . S
Co297 O323 2.155 . S
Co297 O324 2.096 . S
C298 N301 1.301 . S
C298 N302 1.328 . S
C298 H303 0.930 . S
C299 C300 1.333 . S
C299 N301 1.317 . S
C299 H304 0.930 . S
C300 C299 1.333 . S
C300 N302 1.350 . S
C300 H326 0.931 . S
N301 Co297 2.148 . S
N301 C298 1.301 . S
N301 C299 1.317 . S
N302 C298 1.328 . S
N302 C300 1.350 . S
H303 C298 0.930 . S
H304 C299 0.930 . S
C305 O306 1.224 . S
C305 O324 1.247 . S
O306 C305 1.224 . S
N307 Co297 2.128 . S
N307 C308 1.355 . S
N307 C310 1.311 . S
C308 N307 1.355 . S
C308 C309 1.363 . S
C308 H320 0.929 . S
C309 C308 1.363 . S
C309 N311 1.375 . S
C309 H327 0.931 . S
C310 N307 1.311 . S
C310 N311 1.347 . S
C310 H321 0.929 . S
N311 C309 1.375 . S
N311 C310 1.347 . S
C312 C315 1.365 . S
C312 N317 1.328 . S
C312 H318 0.929 . S
C313 C314 1.362 . S
C313 C316 1.378 . S
C313 H328 0.929 . S
C314 C313 1.362 . S
C314 C315 1.366 . S
C315 C312 1.365 . S
C315 C314 1.366 . S
C315 H329 0.930 . S
C316 C313 1.378 . S
C316 N317 1.315 . S
C316 H319 0.930 . S
N317 Co297 2.194 . S
N317 C312 1.328 . S
N317 C316 1.315 . S
H318 C312 0.929 . S
H319 C316 0.930 . S
H320 C308 0.929 . S
H321 C310 0.929 . S
O322 Co297 2.351 . S
O322 C325 1.244 . S
O323 Co297 2.155 . S
O323 C325 1.240 . S
O324 Co297 2.096 . S
O324 C305 1.247 . S
C325 O322 1.244 . S
C325 O323 1.240 . S
H326 C300 0.931 . S
H327 C309 0.931 . S
H328 C313 0.929 . S
H329 C315 0.930 . S
Co330 N334 2.148 . S
Co330 N340 2.128 . S
Co330 N350 2.194 . S
Co330 O355 2.351 . S
Co330 O356 2.155 . S
Co330 O357 2.096 . S
C331 N334 1.301 . S
C331 N335 1.328 . S
C331 H336 0.930 . S
C332 C333 1.333 . S
C332 N334 1.317 . S
C332 H337 0.930 . S
C333 C332 1.333 . S
C333 N335 1.350 . S
C333 H359 0.931 . S
N334 Co330 2.148 . S
N334 C331 1.301 . S
N334 C332 1.317 . S
N335 C331 1.328 . S
N335 C333 1.350 . S
H336 C331 0.930 . S
H337 C332 0.930 . S
C338 O339 1.224 . S
C338 O357 1.247 . S
O339 C338 1.224 . S
N340 Co330 2.128 . S
N340 C341 1.355 . S
N340 C343 1.311 . S
C341 N340 1.355 . S
C341 C342 1.363 . S
C341 H353 0.929 . S
C342 C341 1.363 . S
C342 N344 1.375 . S
C342 H360 0.931 . S
C343 N340 1.311 . S
C343 N344 1.347 . S
C343 H354 0.929 . S
N344 C342 1.375 . S
N344 C343 1.347 . S
C345 C348 1.365 . S
C345 N350 1.328 . S
C345 H351 0.929 . S
C346 C347 1.362 . S
C346 C349 1.378 . S
C346 H361 0.929 . S
C347 C346 1.362 . S
C347 C348 1.366 . S
C348 C345 1.365 . S
C348 C347 1.366 . S
C348 H362 0.930 . S
C349 C346 1.378 . S
C349 N350 1.315 . S
C349 H352 0.930 . S
N350 Co330 2.194 . S
N350 C345 1.328 . S
N350 C349 1.315 . S
H351 C345 0.929 . S
H352 C349 0.930 . S
H353 C341 0.929 . S
H354 C343 0.929 . S
O355 Co330 2.351 . S
O355 C358 1.244 . S
O356 Co330 2.155 . S
O356 C358 1.240 . S
O357 Co330 2.096 . S
O357 C338 1.247 . S
C358 O355 1.244 . S
C358 O356 1.240 . S
H359 C333 0.931 . S
H360 C342 0.931 . S
H361 C346 0.929 . S
H362 C348 0.930 . S
Co363 N367 2.148 . S
Co363 N373 2.128 . S
Co363 N383 2.194 . S
Co363 O388 2.351 . S
Co363 O389 2.155 . S
Co363 O390 2.096 . S
C364 N367 1.301 . S
C364 N368 1.328 . S
C364 H369 0.930 . S
C365 C366 1.333 . S
C365 N367 1.317 . S
C365 H370 0.930 . S
C366 C365 1.333 . S
C366 N368 1.350 . S
C366 H392 0.931 . S
N367 Co363 2.148 . S
N367 C364 1.301 . S
N367 C365 1.317 . S
N368 C364 1.328 . S
N368 C366 1.350 . S
H369 C364 0.930 . S
H370 C365 0.930 . S
C371 O372 1.224 . S
C371 O390 1.247 . S
O372 C371 1.224 . S
N373 Co363 2.128 . S
N373 C374 1.355 . S
N373 C376 1.311 . S
C374 N373 1.355 . S
C374 C375 1.363 . S
C374 H386 0.929 . S
C375 C374 1.363 . S
C375 N377 1.375 . S
C375 H393 0.931 . S
C376 N373 1.311 . S
C376 N377 1.347 . S
C376 H387 0.929 . S
N377 C375 1.375 . S
N377 C376 1.347 . S
C378 C381 1.365 . S
C378 N383 1.328 . S
C378 H384 0.929 . S
C379 C380 1.362 . S
C379 C382 1.378 . S
C379 H394 0.929 . S
C380 C379 1.362 . S
C380 C381 1.366 . S
C381 C378 1.365 . S
C381 C380 1.366 . S
C381 H395 0.930 . S
C382 C379 1.378 . S
C382 N383 1.315 . S
C382 H385 0.930 . S
N383 Co363 2.194 . S
N383 C378 1.328 . S
N383 C382 1.315 . S
H384 C378 0.929 . S
H385 C382 0.930 . S
H386 C374 0.929 . S
H387 C376 0.929 . S
O388 Co363 2.351 . S
O388 C391 1.244 . S
O389 Co363 2.155 . S
O389 C391 1.240 . S
O390 Co363 2.096 . S
O390 C371 1.247 . S
C391 O388 1.244 . S
C391 O389 1.240 . S
H392 C366 0.931 . S
H393 C375 0.931 . S
H394 C379 0.929 . S
H395 C381 0.930 . S
C396 C397 1.170 . S
C396 C398 1.380 . S
C397 C396 1.170 . S
C398 C396 1.380 . S
C398 C399 1.170 . S
C399 C398 1.170 . S
C400 C401 1.170 . S
C400 C402 1.380 1_655 S
C401 C400 1.170 . S
C402 C400 1.380 1_455 S
C402 C403 1.170 . S
C403 C402 1.170 . S
C404 C405 1.170 . S
C404 C406 1.380 1_545 S
C405 C404 1.170 . S
C406 C404 1.380 1_565 S
C406 C407 1.170 . S
C407 C406 1.170 . S
C408 C409 1.170 . S
C408 C410 1.380 . S
C409 C408 1.170 . S
C410 C408 1.380 . S
C410 C411 1.170 . S
C411 C410 1.170 . S
C412 C413 1.170 . S
C412 C414 1.380 1_455 S
C413 C412 1.170 . S
C414 C412 1.380 1_655 S
C414 C415 1.170 . S
C415 C414 1.170 . S
C416 C417 1.170 . S
C416 C418 1.380 1_565 S
C417 C416 1.170 . S
C418 C416 1.380 1_545 S
C418 C419 1.170 . S
C419 C418 1.170 . S
C420 C421 1.170 . S
C420 C422 1.380 1_556 S
C421 C420 1.170 . S
C422 C420 1.380 1_554 S
C422 C423 1.170 . S
C423 C422 1.170 . S
C424 C425 1.170 . S
C424 C426 1.380 . S
C425 C424 1.170 . S
C426 C424 1.380 . S
C426 C427 1.170 . S
C427 C426 1.170 . S
C428 C429 1.170 . S
C428 C430 1.380 1_554 S
C429 C428 1.170 . S
C430 C428 1.380 1_556 S
C430 C431 1.170 . S
C431 C430 1.170 . S
C432 C433 1.170 . S
C432 C434 1.380 . S
C433 C432 1.170 . S
C434 C432 1.380 . S
C434 C435 1.170 . S
C435 C434 1.170 . S
C436 C437 1.170 . S
C436 C438 1.380 1_556 S
C437 C436 1.170 . S
C438 C436 1.380 1_554 S
C438 C439 1.170 . S
C439 C438 1.170 . S
C440 C441 1.170 . S
C440 C442 1.380 . S
C441 C440 1.170 . S
C442 C440 1.380 . S
C442 C443 1.170 . S
C443 C442 1.170 . S
C444 C445 1.170 . S
C444 C446 1.380 1_554 S
C445 C444 1.170 . S
C446 C444 1.380 1_556 S
C446 C447 1.170 . S
C447 C446 1.170 . S
C448 C449 1.170 . S
C448 C450 1.380 . S
C449 C448 1.170 . S
C450 C448 1.380 . S
C450 C451 1.170 . S
C451 C450 1.170 . S
C452 C453 1.170 . S
C452 C454 1.380 1_556 S
C453 C452 1.170 . S
C454 C452 1.380 1_554 S
C454 C455 1.170 . S
C455 C454 1.170 . S
C456 C457 1.170 . S
C456 C458 1.380 . S
C457 C456 1.170 . S
C458 C456 1.380 . S
C458 C459 1.170 . S
C459 C458 1.170 . S
C460 C461 1.170 . S
C460 C462 1.380 1_556 S
C461 C460 1.170 . S
C462 C460 1.380 1_554 S
C462 C463 1.170 . S
C463 C462 1.170 . S
C464 C465 1.170 . S
C464 C466 1.380 . S
C465 C464 1.170 . S
C466 C464 1.380 . S
C466 C467 1.170 . S
C467 C466 1.170 . S
C468 C469 1.170 . S
C468 C470 1.380 . S
C469 C468 1.170 . S
C470 C468 1.380 . S
C470 C471 1.170 . S
C471 C470 1.170 . S
C472 C473 1.170 . S
C472 C474 1.380 . S
C473 C472 1.170 . S
C474 C472 1.380 . S
C474 C475 1.170 . S
C475 C474 1.170 . S
C476 C477 1.170 . S
C476 C478 1.380 . S
C477 C476 1.170 . S
C478 C476 1.380 . S
C478 C479 1.170 . S
C479 C478 1.170 . S
C480 C481 1.170 . S
C480 C482 1.380 . S
C481 C480 1.170 . S
C482 C480 1.380 . S
C482 C483 1.170 . S
C483 C482 1.170 . S
C484 C485 1.170 . S
C484 C486 1.380 . S
C485 C484 1.170 . S
C486 C484 1.380 . S
C486 C487 1.170 . S
C487 C486 1.170 . S
C488 C489 1.170 . S
C488 C490 1.380 . S
C489 C488 1.170 . S
C490 C488 1.380 . S
C490 C491 1.170 . S
C491 C490 1.170 . S
C492 C493 1.170 . S
C492 C494 1.380 . S
C493 C492 1.170 . S
C494 C492 1.380 . S
C494 C495 1.170 . S
C495 C494 1.170 . S
C496 C497 1.170 . S
C496 C498 1.380 . S
C497 C496 1.170 . S
C498 C496 1.380 . S
C498 C499 1.170 . S
C499 C498 1.170 . S
C500 C501 1.170 . S
C500 C502 1.380 . S
C501 C500 1.170 . S
C502 C500 1.380 . S
C502 C503 1.170 . S
C503 C502 1.170 . S
C504 C505 1.170 . S
C504 C506 1.380 . S
C505 C504 1.170 . S
C506 C504 1.380 . S
C506 C507 1.170 . S
C507 C506 1.170 . S
C508 C509 1.170 . S
C508 C510 1.380 . S
C509 C508 1.170 . S
C510 C508 1.380 . S
C510 C511 1.170 . S
C511 C510 1.170 . S
C512 C513 1.170 . S
C512 C514 1.380 . S
C513 C512 1.170 . S
C514 C512 1.380 . S
C514 C515 1.170 . S
C515 C514 1.170 . S
C397 N302 1.735 . S
C399 N5 1.704 . S
C401 N38 1.710 . S
C403 N335 1.739 . S
C405 N368 1.726 . S
C407 N71 1.699 . S
C409 N104 1.699 . S
C411 N203 1.724 . S
C413 N137 1.702 . S
C415 N236 1.710 . S
C417 N269 1.716 . S
C419 N170 1.740 . S
C421 C347 1.271 . S
C423 C17 1.309 . S
C425 C380 1.311 . S
C427 C50 1.286 . S
C429 C83 1.256 . S
C431 C215 1.295 . S
C433 C248 1.290 . S
C435 C116 1.255 . S
C437 C281 1.279 . S
C439 C149 1.254 . S
C441 C182 1.307 . S
C443 C314 1.267 . S
C445 C259 1.574 . S
C447 C127 1.598 . S
C449 C292 1.607 . S
C451 C160 1.612 . S
C453 C193 1.578 . S
C455 C325 1.577 . S
C457 C28 1.573 . S
C459 C358 1.593 . S
C461 C61 1.583 . S
C463 C391 1.610 . S
C465 C226 1.581 . S
C467 C94 1.608 . S
C469 N14 1.481 . S
C471 C140 1.482 . S
C473 N47 1.481 . S
C475 C173 1.482 . S
C477 N80 1.480 . S
C479 C8 1.481 . S
C481 C41 1.481 . S
C483 N113 1.480 . S
C485 N146 1.484 . S
C487 C74 1.484 . S
C489 C107 1.483 . S
C491 N179 1.484 . S
C493 C272 1.483 . S
C495 N212 1.483 . S
C497 C305 1.484 . S
C499 N245 1.485 . S
C501 C338 1.481 . S
C503 N278 1.479 . S
C505 N311 1.484 . S
C507 C371 1.484 . S
C509 C206 1.484 . S
C511 N344 1.484 . S
C513 N377 1.483 . S
C515 C239 1.483 . S
