# Generated by pormake.
# Topology umx, (4)-cn, num edge types: 1
# Building blocks:
#     Node 0, Type 0, BuildingBlock: CEKHIL_clean_sbu_0, # of connection points: 4
#     Node 1, Type 0, BuildingBlock: CEKHIL_clean_sbu_0, # of connection points: 4
#     Node 2, Type 0, BuildingBlock: CEKHIL_clean_sbu_0, # of connection points: 4
#     Node 3, Type 0, BuildingBlock: CEKHIL_clean_sbu_0, # of connection points: 4
#     Node 4, Type 0, BuildingBlock: CEKHIL_clean_sbu_0, # of connection points: 4
#     Node 5, Type 0, BuildingBlock: CEKHIL_clean_sbu_0, # of connection points: 4
#     Node 6, Type 0, BuildingBlock: CEKHIL_clean_sbu_0, # of connection points: 4
#     Node 7, Type 0, BuildingBlock: CEKHIL_clean_sbu_0, # of connection points: 4
#     Edge 8, Type (0, 0), BuildingBlock: OJICUG_clean_linker_0, # of connection points: 2
#     Edge 9, Type (0, 0), BuildingBlock: OJICUG_clean_linker_0, # of connection points: 2
#     Edge 10, Type (0, 0), BuildingBlock: OJICUG_clean_linker_0, # of connection points: 2
#     Edge 11, Type (0, 0), BuildingBlock: OJICUG_clean_linker_0, # of connection points: 2
#     Edge 12, Type (0, 0), BuildingBlock: OJICUG_clean_linker_0, # of connection points: 2
#     Edge 13, Type (0, 0), BuildingBlock: OJICUG_clean_linker_0, # of connection points: 2
#     Edge 14, Type (0, 0), BuildingBlock: OJICUG_clean_linker_0, # of connection points: 2
#     Edge 15, Type (0, 0), BuildingBlock: OJICUG_clean_linker_0, # of connection points: 2
#     Edge 16, Type (0, 0), BuildingBlock: OJICUG_clean_linker_0, # of connection points: 2
#     Edge 17, Type (0, 0), BuildingBlock: OJICUG_clean_linker_0, # of connection points: 2
#     Edge 18, Type (0, 0), BuildingBlock: OJICUG_clean_linker_0, # of connection points: 2
#     Edge 19, Type (0, 0), BuildingBlock: OJICUG_clean_linker_0, # of connection points: 2
#     Edge 20, Type (0, 0), BuildingBlock: OJICUG_clean_linker_0, # of connection points: 2
#     Edge 21, Type (0, 0), BuildingBlock: OJICUG_clean_linker_0, # of connection points: 2
#     Edge 22, Type (0, 0), BuildingBlock: OJICUG_clean_linker_0, # of connection points: 2
#     Edge 23, Type (0, 0), BuildingBlock: OJICUG_clean_linker_0, # of connection points: 2
# Relax obj value: 0.075
# Max RMSD: 0.186
# Mean RMSD: 0.186
data_MOF--net-umx--node1-CEKHIL_clean_sbu_0--edge1-OJICUG_clean_linker_0
_symmetry_space_group_name_H-M    P1
_symmetry_Int_Tables_number       1
_symmetry_cell_setting            triclinic
loop_
_symmetry_equiv_pos_as_xyz
'x, y, z'
_cell_length_a     28.613739
_cell_length_b     28.637677
_cell_length_c     20.162426
_cell_angle_alpha  90.000452
_cell_angle_beta   90.001328
_cell_angle_gamma 90.00534
loop_
_atom_site_label
_atom_site_type_symbol
_atom_site_fract_x
_atom_site_fract_y
_atom_site_fract_z
_atom_type_partial_charge
Co0 Co 0.19252 0.4371 0.99223 0.0
O1 O 0.25135 0.40695 0.98179 0.0
O2 O 0.1884 0.37224 0.02227 0.0
C3 C 0.19247 0.4667 0.88892 0.0
O4 O 0.12507 0.45945 0.00517 0.0
Co5 Co 0.19186 0.54455 0.98683 0.0
O6 O 0.12348 0.53619 0.98047 0.0
C7 C 0.21845 0.49872 0.11177 0.0
C8 C 0.23161 0.36903 0.00218 0.0
C9 C 0.10283 0.49811 0.99488 0.0
O10 O 0.21004 0.45895 0.08443 0.0
O11 O 0.21604 0.53734 0.07994 0.0
O12 O 0.17841 0.42451 0.9002 0.0
O13 O 0.21023 0.48857 0.93937 0.0
Co14 Co 0.56921 0.19056 0.48981 0.0
O15 O 0.60164 0.24884 0.49052 0.0
O16 O 0.63283 0.18127 0.52138 0.0
C17 C 0.54035 0.19869 0.38667 0.0
O18 O 0.5452 0.12332 0.49215 0.0
Co19 Co 0.46144 0.19207 0.4819 0.0
O20 O 0.46837 0.12405 0.46783 0.0
C21 C 0.50639 0.21017 0.61067 0.0
C22 C 0.6378 0.22586 0.51083 0.0
C23 C 0.5063 0.10224 0.47951 0.0
O24 O 0.54631 0.20176 0.5836 0.0
O25 O 0.4682 0.21103 0.57757 0.0
O26 O 0.58246 0.18348 0.39609 0.0
O27 O 0.51853 0.213 0.43929 0.0
Co28 Co 0.81113 0.56633 0.99298 0.0
O29 O 0.75256 0.59707 0.98281 0.0
O30 O 0.81594 0.63101 0.02335 0.0
C31 C 0.8108 0.53681 0.88964 0.0
O32 O 0.87842 0.54347 0.00568 0.0
Co33 Co 0.81121 0.4589 0.98743 0.0
O34 O 0.87965 0.46677 0.9808 0.0
C35 C 0.78499 0.50478 0.11249 0.0
C36 C 0.77272 0.6347 0.00349 0.0
C37 C 0.90048 0.50474 -0.00477 0.0
O38 O 0.79358 0.54452 0.08518 0.0
O39 O 0.78718 0.46616 0.08062 0.0
O40 O 0.82518 0.57889 0.90093 0.0
O41 O 0.79297 0.51501 0.94012 0.0
Co42 Co 0.4353 0.81189 0.49271 0.0
O43 O 0.40276 0.75368 0.49372 0.0
O44 O 0.37165 0.82143 0.52397 0.0
C45 C 0.46425 0.80343 0.38972 0.0
O46 O 0.45944 0.87909 0.49457 0.0
Co47 Co 0.54309 0.81015 0.48513 0.0
O48 O 0.53627 0.8781 0.47029 0.0
C49 C 0.49791 0.79227 0.61379 0.0
C50 C 0.36659 0.77683 0.51365 0.0
C51 C 0.49837 0.90004 0.48167 0.0
O52 O 0.45808 0.80092 0.58663 0.0
O53 O 0.53613 0.79118 0.58076 0.0
O54 O 0.42214 0.81868 0.39897 0.0
O55 O 0.48602 0.78922 0.44245 0.0
Co56 Co 0.19251 0.56626 0.51825 0.0
O57 O 0.25134 0.59644 0.52863 0.0
O58 O 0.18833 0.63112 0.48828 0.0
C59 C 0.19254 0.53662 0.62152 0.0
O60 O 0.12505 0.54388 0.50542 0.0
Co61 Co 0.19188 0.45881 0.52353 0.0
O62 O 0.12351 0.46714 0.53015 0.0
C63 C 0.21842 0.50471 0.39863 0.0
C64 C 0.23156 0.63435 0.50833 0.0
C65 C 0.10283 0.50521 0.5158 0.0
O66 O 0.20997 0.54446 0.426 0.0
O67 O 0.21606 0.46608 0.43043 0.0
O68 O 0.17848 0.57881 0.6103 0.0
O69 O 0.21027 0.51477 0.57103 0.0
Co70 Co 0.43474 0.19069 0.01954 0.0
O71 O 0.40241 0.249 0.01844 0.0
O72 O 0.37109 0.18137 0.98808 0.0
C73 C 0.4636 0.19905 0.12263 0.0
O74 O 0.45872 0.12343 0.0177 0.0
Co75 Co 0.54253 0.19234 0.02736 0.0
O76 O 0.53554 0.12441 0.04212 0.0
C77 C 0.49753 0.21016 0.89857 0.0
C78 C 0.36619 0.226 -0.00168 0.0
C79 C 0.49764 0.10248 0.03064 0.0
O80 O 0.45765 0.20161 0.92567 0.0
O81 O 0.53572 0.21121 0.93167 0.0
O82 O 0.42146 0.1839 0.11328 0.0
O83 O 0.48542 0.21323 0.06994 0.0
Co84 Co 0.81094 0.43727 0.51891 0.0
O85 O 0.75225 0.40678 0.52916 0.0
O86 O 0.81544 0.37252 0.48865 0.0
C87 C 0.81076 0.46684 0.62223 0.0
O88 O 0.87831 0.45993 0.5061 0.0
Co89 Co 0.8113 0.54472 0.52438 0.0
O90 O 0.87972 0.53666 0.53082 0.0
C91 C 0.78494 0.49885 0.39937 0.0
C92 C 0.77221 0.36903 0.50857 0.0
C93 C 0.90046 0.49863 0.51641 0.0
O94 O 0.79343 0.4591 0.4267 0.0
O95 O 0.78723 0.53747 0.43121 0.0
O96 O 0.825 0.42471 0.61096 0.0
O97 O 0.79298 0.48866 0.57176 0.0
Co98 Co 0.56943 0.81233 0.02238 0.0
O99 O 0.60227 0.75428 0.02186 0.0
O100 O 0.63293 0.82203 0.99064 0.0
C101 C 0.54073 0.80416 0.12558 0.0
O102 O 0.54498 0.87939 0.01982 0.0
Co103 Co 0.46171 0.81023 0.03046 0.0
O104 O 0.46819 0.87832 0.04429 0.0
C105 C 0.50664 0.79219 0.90166 0.0
C106 C 0.63824 0.77751 0.0014 0.0
C107 C 0.506 0.9003 0.03248 0.0
O108 O 0.54653 0.8008 0.92867 0.0
O109 O 0.46847 0.79124 0.9348 0.0
O110 O 0.58271 0.81968 0.11602 0.0
O111 O 0.51894 0.78962 0.07306 0.0
C112 C 0.22797 0.4588 0.22225 0.0
C113 C 0.22648 0.50025 0.18479 0.0
H114 H 0.22723 0.42757 0.31863 0.0
C115 C 0.22792 0.54321 0.21871 0.0
H116 H 0.2272 0.42504 0.19805 0.0
C117 C 0.22783 0.54467 0.28815 0.0
C118 C 0.22645 0.50322 0.3256 0.0
H119 H 0.22702 0.5759 0.19176 0.0
H120 H 0.22694 0.57843 0.31235 0.0
C121 C 0.22804 0.46026 0.29169 0.0
C122 C 0.46081 0.21665 0.71729 0.0
C123 C 0.50415 0.21568 0.68418 0.0
H124 H 0.42463 0.21588 0.81028 0.0
C125 C 0.54524 0.21672 0.72251 0.0
H126 H 0.42837 0.21597 0.68966 0.0
C127 C 0.54308 0.21683 0.79195 0.0
C128 C 0.49975 0.21564 0.82506 0.0
H129 H 0.57927 0.21627 0.69896 0.0
H130 H 0.57553 0.2163 0.81958 0.0
C131 C 0.45865 0.2165 0.78673 0.0
C132 C 0.77546 0.5433 0.2924 0.0
C133 C 0.77695 0.50035 0.32633 0.0
H134 H 0.77641 0.5785 0.19875 0.0
C135 C 0.7755 0.45889 0.28889 0.0
H136 H 0.77633 0.576 0.31934 0.0
C137 C 0.77543 0.46034 0.21945 0.0
C138 C 0.77698 0.50329 0.18552 0.0
H139 H 0.77631 0.42513 0.3131 0.0
H140 H 0.77628 0.42763 0.19251 0.0
C141 C 0.77556 0.54474 0.22296 0.0
C142 C 0.5455 0.78539 0.78989 0.0
C143 C 0.50439 0.78662 0.82817 0.0
H144 H 0.57584 0.78569 0.69286 0.0
C145 C 0.46107 0.78584 0.79502 0.0
H146 H 0.57951 0.78568 0.81348 0.0
C147 C 0.45894 0.78601 0.72558 0.0
C148 C 0.50007 0.78671 0.6873 0.0
H149 H 0.42862 0.78667 0.82262 0.0
H150 H 0.42494 0.7868 0.70199 0.0
C151 C 0.54337 0.7853 0.72045 0.0
C152 C 0.80921 0.53324 0.70248 0.0
C153 C 0.80974 0.48515 0.69034 0.0
H154 H 0.8099 0.58718 0.77577 0.0
C155 C 0.80973 0.45386 0.74426 0.0
H156 H 0.80924 0.55794 0.66178 0.0
C157 C 0.80916 0.47042 0.80939 0.0
C158 C 0.80975 0.5185 0.82153 0.0
H159 H 0.8098 0.41647 0.73611 0.0
H160 H 0.80915 0.44572 0.85009 0.0
C161 C 0.80979 0.54979 0.76762 0.0
C162 C 0.47254 0.79968 0.20282 0.0
C163 C 0.52093 0.8018 0.19293 0.0
H164 H 0.41674 0.79912 0.27346 0.0
C165 C 0.55085 0.80277 0.24836 0.0
H166 H 0.44878 0.79896 0.16099 0.0
C167 C 0.53267 0.80196 0.31268 0.0
C168 C 0.48424 0.80124 0.32252 0.0
H169 H 0.58842 0.80417 0.24205 0.0
H170 H 0.55638 0.80312 0.35453 0.0
C171 C 0.45433 0.79994 0.26711 0.0
C172 C 0.19306 0.45369 0.7669 0.0
C173 C 0.19341 0.48499 0.8208 0.0
H174 H 0.19341 0.44552 0.66106 0.0
C175 C 0.19432 0.53306 0.80864 0.0
H176 H 0.19269 0.4163 0.77505 0.0
C177 C 0.19381 0.54961 0.74351 0.0
C178 C 0.19351 0.51831 0.68961 0.0
H179 H 0.19459 0.55778 0.84933 0.0
H180 H 0.19402 0.587 0.73534 0.0
C181 C 0.19368 0.47023 0.70176 0.0
C182 C 0.47198 0.20182 0.30962 0.0
C183 C 0.52042 0.20091 0.3194 0.0
H184 H 0.41611 0.20131 0.23911 0.0
C185 C 0.5503 0.20094 0.26391 0.0
H186 H 0.44827 0.20172 0.35151 0.0
C187 C 0.53203 0.2016 0.19964 0.0
C188 C 0.48359 0.20115 0.18987 0.0
H189 H 0.5879 0.20049 0.27017 0.0
H190 H 0.55574 0.20129 0.15775 0.0
C191 C 0.45371 0.20141 0.24536 0.0
C192 C 0.97588 0.46007 -0.00023 0.0
C193 C 0.95223 0.50331 -0.00061 0.0
H194 H 0.04171 0.42436 -0.00082 0.0
C195 C 0.97862 0.54455 0.00072 0.0
H196 H 0.95668 0.42748 -0.00075 0.0
C197 C 0.02743 0.54263 0.0004 0.0
C198 C 0.05109 0.49942 -0.00074 0.0
H199 H 0.96164 0.57836 0.00053 0.0
H200 H 0.04662 0.57524 0.00039 0.0
C201 C 0.02471 0.45816 -2e-05 0.0
C202 C 0.54355 0.97513 0.48109 0.0
C203 C 0.50017 0.95178 0.4812 0.0
H204 H 0.57961 0.04066 0.48086 0.0
C205 C 0.45901 0.97839 0.48087 0.0
H206 H 0.57605 0.95576 0.48165 0.0
C207 C 0.46115 0.02714 0.47996 0.0
C208 C 0.50452 0.05049 0.48002 0.0
H209 H 0.42508 0.96161 0.48085 0.0
H210 H 0.42864 0.0465 0.47967 0.0
C211 C 0.54569 0.02388 0.48084 0.0
C212 C 0.0274 0.46068 0.51077 0.0
C213 C 0.05107 0.5039 0.51166 0.0
H214 H 0.96158 0.42497 0.51106 0.0
C215 C 0.02471 0.54516 0.51096 0.0
H216 H 0.04657 0.42807 0.51077 0.0
C217 C 0.97588 0.54325 0.51142 0.0
C218 C 0.95221 0.50003 0.51204 0.0
H219 H 0.04172 0.57895 0.51158 0.0
H220 H 0.9567 0.57585 0.51192 0.0
C221 C 0.97858 0.45877 0.51069 0.0
C222 C 0.46062 0.97528 0.03204 0.0
C223 C 0.50405 0.95204 0.03195 0.0
H224 H 0.42441 0.04075 0.03128 0.0
C225 C 0.54515 0.97874 0.03116 0.0
H226 H 0.42816 0.95583 0.03231 0.0
C227 C 0.54291 0.02749 0.031 0.0
C228 C 0.49949 0.05074 0.03097 0.0
H229 H 0.57912 0.96205 0.03112 0.0
H230 H 0.57538 0.04692 0.03047 0.0
C231 C 0.45837 0.02404 0.03122 0.0
C232 C 0.28816 0.32061 0.94072 0.0
C233 C 0.25718 0.32467 0.99456 0.0
H234 H 0.34645 0.28433 0.8989 0.0
C235 C 0.25598 0.28925 0.04259 0.0
H236 H 0.28937 0.34719 0.90248 0.0
C237 C 0.28879 0.25274 0.03995 0.0
C238 C 0.32221 0.25124 0.98877 0.0
H239 H 0.23251 0.29177 0.08457 0.0
H240 H 0.29058 0.2281 0.08064 0.0
C241 C 0.32042 0.28434 0.93797 0.0
C242 C 0.7163 0.31973 0.56981 0.0
C243 C 0.74684 0.32452 0.51559 0.0
H244 H 0.65833 0.28287 0.61157 0.0
C245 C 0.7476 0.2898 0.46654 0.0
H246 H 0.71541 0.34582 0.60875 0.0
C247 C 0.71479 0.25329 0.46867 0.0
C248 C 0.68181 0.25105 0.52037 0.0
H249 H 0.7707 0.29293 0.42421 0.0
H250 H 0.71264 0.22924 0.4273 0.0
C251 C 0.68405 0.28343 0.57208 0.0
C252 C 0.71763 0.68462 0.94182 0.0
C253 C 0.74759 0.67932 -0.00341 0.0
H254 H 0.66 0.7218 0.89965 0.0
C255 C 0.74776 0.71352 0.04639 0.0
H256 H 0.71718 0.65891 0.90237 0.0
C257 C 0.71489 0.74995 0.04437 0.0
C258 C 0.68245 0.75267 0.99203 0.0
H259 H 0.77037 0.70994 0.08918 0.0
H260 H 0.71223 0.77352 0.08623 0.0
C261 C 0.68532 0.72089 0.93964 0.0
C262 C 0.28959 0.75016 0.47058 0.0
C263 C 0.32239 0.75185 0.52255 0.0
H264 H 0.23369 0.71109 0.42508 0.0
C265 C 0.3198 0.71912 0.57377 0.0
H266 H 0.29201 0.7745 0.42959 0.0
C267 C 0.28737 0.683 0.57073 0.0
C268 C 0.25704 0.67872 0.51618 0.0
H269 H 0.34537 0.71927 0.61346 0.0
H270 H 0.28799 0.65664 0.6093 0.0
C271 C 0.25662 0.71381 0.46764 0.0
loop_
_geom_bond_atom_site_label_1
_geom_bond_atom_site_label_2
_geom_bond_distance
_geom_bond_site_symmetry_2
_ccdc_geom_bond_type
Co0 O1 2.216 1_556 S
Co0 O2 2.091 1_556 S
Co0 O4 2.004 . S
Co0 O10 2.021 1_556 S
Co0 O12 2.137 . S
Co0 O13 2.244 . S
O1 Co0 2.216 1_554 S
O1 C8 1.247 . S
O2 Co0 2.091 1_554 S
O2 C8 1.261 . S
C3 O12 1.247 . S
C3 O13 1.272 . S
O4 Co0 2.004 . S
O4 C9 1.259 1_556 S
Co5 O6 2.061 . S
Co5 O11 2.052 . S
Co5 O13 2.135 1_554 S
O6 Co5 2.061 . S
O6 C9 1.235 . S
C7 O10 1.238 . S
C7 O11 1.241 . S
C8 O1 1.247 . S
C8 O2 1.261 . S
C9 O4 1.259 1_554 S
C9 O6 1.235 . S
O10 Co0 2.021 1_554 S
O10 C7 1.238 . S
O11 Co5 2.052 . S
O11 C7 1.241 . S
O12 Co0 2.137 . S
O12 C3 1.247 . S
O13 Co0 2.244 . S
O13 C3 1.272 . S
O13 Co5 2.135 1_556 S
Co14 O15 2.216 . S
Co14 O16 2.091 . S
Co14 O18 2.004 . S
Co14 O24 2.021 . S
Co14 O26 2.137 . S
Co14 O27 2.244 . S
O15 Co14 2.216 . S
O15 C22 1.247 . S
O16 Co14 2.091 . S
O16 C22 1.261 . S
C17 O26 1.247 . S
C17 O27 1.272 . S
O18 Co14 2.004 . S
O18 C23 1.259 . S
Co19 O20 2.061 . S
Co19 O25 2.052 . S
Co19 O27 2.135 . S
O20 Co19 2.061 . S
O20 C23 1.235 . S
C21 O24 1.238 . S
C21 O25 1.241 . S
C22 O15 1.247 . S
C22 O16 1.261 . S
C23 O18 1.259 . S
C23 O20 1.235 . S
O24 Co14 2.021 . S
O24 C21 1.238 . S
O25 Co19 2.052 . S
O25 C21 1.241 . S
O26 Co14 2.137 . S
O26 C17 1.247 . S
O27 Co14 2.244 . S
O27 C17 1.272 . S
O27 Co19 2.135 . S
Co28 O29 2.216 1_556 S
Co28 O30 2.091 1_556 S
Co28 O32 2.004 . S
Co28 O38 2.021 1_556 S
Co28 O40 2.137 . S
Co28 O41 2.244 . S
O29 Co28 2.216 1_554 S
O29 C36 1.247 . S
O30 Co28 2.091 1_554 S
O30 C36 1.261 . S
C31 O40 1.247 . S
C31 O41 1.272 . S
O32 Co28 2.004 . S
O32 C37 1.259 1_556 S
Co33 O34 2.061 . S
Co33 O39 2.052 . S
Co33 O41 2.135 1_554 S
O34 Co33 2.061 . S
O34 C37 1.235 . S
C35 O38 1.238 . S
C35 O39 1.241 . S
C36 O29 1.247 . S
C36 O30 1.261 . S
C37 O32 1.259 1_554 S
C37 O34 1.235 . S
O38 Co28 2.021 1_554 S
O38 C35 1.238 . S
O39 Co33 2.052 . S
O39 C35 1.241 . S
O40 Co28 2.137 . S
O40 C31 1.247 . S
O41 Co28 2.244 . S
O41 C31 1.272 . S
O41 Co33 2.135 1_556 S
Co42 O43 2.216 . S
Co42 O44 2.091 . S
Co42 O46 2.004 . S
Co42 O52 2.021 . S
Co42 O54 2.137 . S
Co42 O55 2.244 . S
O43 Co42 2.216 . S
O43 C50 1.247 . S
O44 Co42 2.091 . S
O44 C50 1.261 . S
C45 O54 1.247 . S
C45 O55 1.272 . S
O46 Co42 2.004 . S
O46 C51 1.259 . S
Co47 O48 2.061 . S
Co47 O53 2.052 . S
Co47 O55 2.135 . S
O48 Co47 2.061 . S
O48 C51 1.235 . S
C49 O52 1.238 . S
C49 O53 1.241 . S
C50 O43 1.247 . S
C50 O44 1.261 . S
C51 O46 1.259 . S
C51 O48 1.235 . S
O52 Co42 2.021 . S
O52 C49 1.238 . S
O53 Co47 2.052 . S
O53 C49 1.241 . S
O54 Co42 2.137 . S
O54 C45 1.247 . S
O55 Co42 2.244 . S
O55 C45 1.272 . S
O55 Co47 2.135 . S
Co56 O57 2.216 . S
Co56 O58 2.091 . S
Co56 O60 2.004 . S
Co56 O66 2.021 . S
Co56 O68 2.137 . S
Co56 O69 2.244 . S
O57 Co56 2.216 . S
O57 C64 1.247 . S
O58 Co56 2.091 . S
O58 C64 1.261 . S
C59 O68 1.247 . S
C59 O69 1.272 . S
O60 Co56 2.004 . S
O60 C65 1.259 . S
Co61 O62 2.061 . S
Co61 O67 2.052 . S
Co61 O69 2.135 . S
O62 Co61 2.061 . S
O62 C65 1.235 . S
C63 O66 1.238 . S
C63 O67 1.241 . S
C64 O57 1.247 . S
C64 O58 1.261 . S
C65 O60 1.259 . S
C65 O62 1.235 . S
O66 Co56 2.021 . S
O66 C63 1.238 . S
O67 Co61 2.052 . S
O67 C63 1.241 . S
O68 Co56 2.137 . S
O68 C59 1.247 . S
O69 Co56 2.244 . S
O69 C59 1.272 . S
O69 Co61 2.135 . S
Co70 O71 2.216 . S
Co70 O72 2.091 . S
Co70 O74 2.004 . S
Co70 O80 2.021 1_554 S
Co70 O82 2.137 . S
Co70 O83 2.244 . S
O71 Co70 2.216 . S
O71 C78 1.247 . S
O72 Co70 2.091 . S
O72 C78 1.261 . S
C73 O82 1.247 . S
C73 O83 1.272 . S
O74 Co70 2.004 . S
O74 C79 1.259 . S
Co75 O76 2.061 . S
Co75 O81 2.052 1_554 S
Co75 O83 2.135 . S
O76 Co75 2.061 . S
O76 C79 1.235 . S
C77 O80 1.238 . S
C77 O81 1.241 . S
C78 O71 1.247 . S
C78 O72 1.261 . S
C79 O74 1.259 . S
C79 O76 1.235 . S
O80 Co70 2.021 1_556 S
O80 C77 1.238 . S
O81 Co75 2.052 1_556 S
O81 C77 1.241 . S
O82 Co70 2.137 . S
O82 C73 1.247 . S
O83 Co70 2.244 . S
O83 C73 1.272 . S
O83 Co75 2.135 . S
Co84 O85 2.216 . S
Co84 O86 2.091 . S
Co84 O88 2.004 . S
Co84 O94 2.021 . S
Co84 O96 2.137 . S
Co84 O97 2.244 . S
O85 Co84 2.216 . S
O85 C92 1.247 . S
O86 Co84 2.091 . S
O86 C92 1.261 . S
C87 O96 1.247 . S
C87 O97 1.272 . S
O88 Co84 2.004 . S
O88 C93 1.259 . S
Co89 O90 2.061 . S
Co89 O95 2.052 . S
Co89 O97 2.135 . S
O90 Co89 2.061 . S
O90 C93 1.235 . S
C91 O94 1.238 . S
C91 O95 1.241 . S
C92 O85 1.247 . S
C92 O86 1.261 . S
C93 O88 1.259 . S
C93 O90 1.235 . S
O94 Co84 2.021 . S
O94 C91 1.238 . S
O95 Co89 2.052 . S
O95 C91 1.241 . S
O96 Co84 2.137 . S
O96 C87 1.247 . S
O97 Co84 2.244 . S
O97 C87 1.272 . S
O97 Co89 2.135 . S
Co98 O99 2.216 . S
Co98 O100 2.091 . S
Co98 O102 2.004 . S
Co98 O108 2.021 1_554 S
Co98 O110 2.137 . S
Co98 O111 2.244 . S
O99 Co98 2.216 . S
O99 C106 1.247 . S
O100 Co98 2.091 . S
O100 C106 1.261 . S
C101 O110 1.247 . S
C101 O111 1.272 . S
O102 Co98 2.004 . S
O102 C107 1.259 . S
Co103 O104 2.061 . S
Co103 O109 2.052 1_554 S
Co103 O111 2.135 . S
O104 Co103 2.061 . S
O104 C107 1.235 . S
C105 O108 1.238 . S
C105 O109 1.241 . S
C106 O99 1.247 . S
C106 O100 1.261 . S
C107 O102 1.259 . S
C107 O104 1.235 . S
O108 Co98 2.021 1_556 S
O108 C105 1.238 . S
O109 Co103 2.052 1_556 S
O109 C105 1.241 . S
O110 Co98 2.137 . S
O110 C101 1.247 . S
O111 Co98 2.244 . S
O111 C101 1.272 . S
O111 Co103 2.135 . S
C112 C113 1.387 . S
C112 H116 0.950 . S
C112 C121 1.390 . S
C113 C112 1.387 . S
C113 C115 1.387 . S
H114 C121 0.950 . S
C115 C113 1.387 . S
C115 C117 1.390 . S
C115 H119 0.950 . S
H116 C112 0.950 . S
C117 C115 1.390 . S
C117 C118 1.387 . S
C117 H120 0.950 . S
C118 C117 1.387 . S
C118 C121 1.387 . S
H119 C115 0.950 . S
H120 C117 0.950 . S
C121 C112 1.390 . S
C121 H114 0.950 . S
C121 C118 1.387 . S
C122 C123 1.387 . S
C122 H126 0.950 . S
C122 C131 1.390 . S
C123 C122 1.387 . S
C123 C125 1.387 . S
H124 C131 0.950 . S
C125 C123 1.387 . S
C125 C127 1.390 . S
C125 H129 0.950 . S
H126 C122 0.950 . S
C127 C125 1.390 . S
C127 C128 1.387 . S
C127 H130 0.950 . S
C128 C127 1.387 . S
C128 C131 1.387 . S
H129 C125 0.950 . S
H130 C127 0.950 . S
C131 C122 1.390 . S
C131 H124 0.950 . S
C131 C128 1.387 . S
C132 C133 1.387 . S
C132 H136 0.950 . S
C132 C141 1.390 . S
C133 C132 1.387 . S
C133 C135 1.387 . S
H134 C141 0.950 . S
C135 C133 1.387 . S
C135 C137 1.390 . S
C135 H139 0.950 . S
H136 C132 0.950 . S
C137 C135 1.390 . S
C137 C138 1.387 . S
C137 H140 0.950 . S
C138 C137 1.387 . S
C138 C141 1.387 . S
H139 C135 0.950 . S
H140 C137 0.950 . S
C141 C132 1.390 . S
C141 H134 0.950 . S
C141 C138 1.387 . S
C142 C143 1.387 . S
C142 H146 0.950 . S
C142 C151 1.390 . S
C143 C142 1.387 . S
C143 C145 1.387 . S
H144 C151 0.950 . S
C145 C143 1.387 . S
C145 C147 1.390 . S
C145 H149 0.950 . S
H146 C142 0.950 . S
C147 C145 1.390 . S
C147 C148 1.387 . S
C147 H150 0.950 . S
C148 C147 1.387 . S
C148 C151 1.387 . S
H149 C145 0.950 . S
H150 C147 0.950 . S
C151 C142 1.390 . S
C151 H144 0.950 . S
C151 C148 1.387 . S
C152 C153 1.387 . S
C152 H156 0.950 . S
C152 C161 1.390 . S
C153 C152 1.387 . S
C153 C155 1.387 . S
H154 C161 0.950 . S
C155 C153 1.387 . S
C155 C157 1.390 . S
C155 H159 0.950 . S
H156 C152 0.950 . S
C157 C155 1.390 . S
C157 C158 1.387 . S
C157 H160 0.950 . S
C158 C157 1.387 . S
C158 C161 1.387 . S
H159 C155 0.950 . S
H160 C157 0.950 . S
C161 C152 1.390 . S
C161 H154 0.950 . S
C161 C158 1.387 . S
C162 C163 1.387 . S
C162 H166 0.950 . S
C162 C171 1.390 . S
C163 C162 1.387 . S
C163 C165 1.387 . S
H164 C171 0.950 . S
C165 C163 1.387 . S
C165 C167 1.390 . S
C165 H169 0.950 . S
H166 C162 0.950 . S
C167 C165 1.390 . S
C167 C168 1.387 . S
C167 H170 0.950 . S
C168 C167 1.387 . S
C168 C171 1.387 . S
H169 C165 0.950 . S
H170 C167 0.950 . S
C171 C162 1.390 . S
C171 H164 0.950 . S
C171 C168 1.387 . S
C172 C173 1.387 . S
C172 H176 0.950 . S
C172 C181 1.390 . S
C173 C172 1.387 . S
C173 C175 1.387 . S
H174 C181 0.950 . S
C175 C173 1.387 . S
C175 C177 1.390 . S
C175 H179 0.950 . S
H176 C172 0.950 . S
C177 C175 1.390 . S
C177 C178 1.387 . S
C177 H180 0.950 . S
C178 C177 1.387 . S
C178 C181 1.387 . S
H179 C175 0.950 . S
H180 C177 0.950 . S
C181 C172 1.390 . S
C181 H174 0.950 . S
C181 C178 1.387 . S
C182 C183 1.387 . S
C182 H186 0.950 . S
C182 C191 1.390 . S
C183 C182 1.387 . S
C183 C185 1.387 . S
H184 C191 0.950 . S
C185 C183 1.387 . S
C185 C187 1.390 . S
C185 H189 0.950 . S
H186 C182 0.950 . S
C187 C185 1.390 . S
C187 C188 1.387 . S
C187 H190 0.950 . S
C188 C187 1.387 . S
C188 C191 1.387 . S
H189 C185 0.950 . S
H190 C187 0.950 . S
C191 C182 1.390 . S
C191 H184 0.950 . S
C191 C188 1.387 . S
C192 C193 1.387 1_556 S
C192 H196 0.950 . S
C192 C201 1.390 1_655 S
C193 C192 1.387 1_554 S
C193 C195 1.387 . S
H194 C201 0.950 . S
C195 C193 1.387 . S
C195 C197 1.390 1_655 S
C195 H199 0.950 . S
H196 C192 0.950 . S
C197 C195 1.390 1_455 S
C197 C198 1.387 . S
C197 H200 0.950 . S
C198 C197 1.387 . S
C198 C201 1.387 1_554 S
H199 C195 0.950 . S
H200 C197 0.950 . S
C201 C192 1.390 1_455 S
C201 H194 0.950 . S
C201 C198 1.387 1_556 S
C202 C203 1.387 . S
C202 H206 0.950 . S
C202 C211 1.390 1_565 S
C203 C202 1.387 . S
C203 C205 1.387 . S
H204 C211 0.950 . S
C205 C203 1.387 . S
C205 C207 1.390 1_565 S
C205 H209 0.950 . S
H206 C202 0.950 . S
C207 C205 1.390 1_545 S
C207 C208 1.387 . S
C207 H210 0.950 . S
C208 C207 1.387 . S
C208 C211 1.387 . S
H209 C205 0.950 . S
H210 C207 0.950 . S
C211 C202 1.390 1_545 S
C211 H204 0.950 . S
C211 C208 1.387 . S
C212 C213 1.387 . S
C212 H216 0.950 . S
C212 C221 1.390 1_455 S
C213 C212 1.387 . S
C213 C215 1.387 . S
H214 C221 0.950 . S
C215 C213 1.387 . S
C215 C217 1.390 1_455 S
C215 H219 0.950 . S
H216 C212 0.950 . S
C217 C215 1.390 1_655 S
C217 C218 1.387 . S
C217 H220 0.950 . S
C218 C217 1.387 . S
C218 C221 1.387 . S
H219 C215 0.950 . S
H220 C217 0.950 . S
C221 C212 1.390 1_655 S
C221 H214 0.950 . S
C221 C218 1.387 . S
C222 C223 1.387 . S
C222 H226 0.950 . S
C222 C231 1.390 1_565 S
C223 C222 1.387 . S
C223 C225 1.387 1_554 S
H224 C231 0.950 . S
C225 C223 1.387 1_556 S
C225 C227 1.390 1_565 S
C225 H229 0.950 . S
H226 C222 0.950 . S
C227 C225 1.390 1_545 S
C227 C228 1.387 1_556 S
C227 H230 0.950 . S
C228 C227 1.387 1_554 S
C228 C231 1.387 . S
H229 C225 0.950 . S
H230 C227 0.950 . S
C231 C222 1.390 1_545 S
C231 H224 0.950 . S
C231 C228 1.387 . S
C232 C233 1.387 1_556 S
C232 H236 0.950 . S
C232 C241 1.390 . S
C233 C232 1.387 1_554 S
C233 C235 1.387 . S
H234 C241 0.950 . S
C235 C233 1.387 . S
C235 C237 1.390 . S
C235 H239 0.950 . S
H236 C232 0.950 . S
C237 C235 1.390 . S
C237 C238 1.387 . S
C237 H240 0.950 . S
C238 C237 1.387 . S
C238 C241 1.387 1_554 S
H239 C235 0.950 . S
H240 C237 0.950 . S
C241 C232 1.390 . S
C241 H234 0.950 . S
C241 C238 1.387 1_556 S
C242 C243 1.387 . S
C242 H246 0.950 . S
C242 C251 1.390 . S
C243 C242 1.387 . S
C243 C245 1.387 . S
H244 C251 0.950 . S
C245 C243 1.387 . S
C245 C247 1.390 . S
C245 H249 0.950 . S
H246 C242 0.950 . S
C247 C245 1.390 . S
C247 C248 1.387 . S
C247 H250 0.950 . S
C248 C247 1.387 . S
C248 C251 1.387 . S
H249 C245 0.950 . S
H250 C247 0.950 . S
C251 C242 1.390 . S
C251 H244 0.950 . S
C251 C248 1.387 . S
C252 C253 1.387 1_556 S
C252 H256 0.950 . S
C252 C261 1.390 . S
C253 C252 1.387 1_554 S
C253 C255 1.387 . S
H254 C261 0.950 . S
C255 C253 1.387 . S
C255 C257 1.390 . S
C255 H259 0.950 . S
H256 C252 0.950 . S
C257 C255 1.390 . S
C257 C258 1.387 . S
C257 H260 0.950 . S
C258 C257 1.387 . S
C258 C261 1.387 1_554 S
H259 C255 0.950 . S
H260 C257 0.950 . S
C261 C252 1.390 . S
C261 H254 0.950 . S
C261 C258 1.387 1_556 S
C262 C263 1.387 . S
C262 H266 0.950 . S
C262 C271 1.390 . S
C263 C262 1.387 . S
C263 C265 1.387 . S
H264 C271 0.950 . S
C265 C263 1.387 . S
C265 C267 1.390 . S
C265 H269 0.950 . S
H266 C262 0.950 . S
C267 C265 1.390 . S
C267 C268 1.387 . S
C267 H270 0.950 . S
C268 C267 1.387 . S
C268 C271 1.387 . S
H269 C265 0.950 . S
H270 C267 0.950 . S
C271 C262 1.390 . S
C271 H264 0.950 . S
C271 C268 1.387 . S
C113 C7 1.448 . S
C118 C63 1.448 . S
C123 C21 1.449 . S
C128 C77 1.449 . S
C133 C91 1.448 . S
C138 C35 1.448 . S
C143 C105 1.449 . S
C148 C49 1.449 . S
C153 C87 1.337 . S
C158 C31 1.337 . S
C163 C101 1.341 . S
C168 C45 1.341 . S
C173 C3 1.337 . S
C178 C59 1.337 . S
C183 C17 1.341 . S
C188 C73 1.341 . S
C193 C37 1.391 . S
C198 C9 1.391 . S
C203 C51 1.395 . S
C208 C23 1.395 . S
C213 C65 1.391 . S
C218 C93 1.391 . S
C223 C107 1.391 . S
C228 C79 1.391 . S
C233 C8 1.402 . S
C238 C78 1.402 . S
C243 C92 1.402 . S
C248 C22 1.402 . S
C253 C36 1.402 . S
C258 C106 1.402 . S
C263 C50 1.402 . S
C268 C64 1.402 . S
