# Generated by pormake.
# Topology uoh, (4)-cn, num edge types: 1
# Building blocks:
#     Node 0, Type 0, BuildingBlock: ICAMEG_clean_sbu_1, # of connection points: 4
#     Node 1, Type 0, BuildingBlock: ICAMEG_clean_sbu_1, # of connection points: 4
#     Node 2, Type 0, BuildingBlock: ICAMEG_clean_sbu_1, # of connection points: 4
#     Node 3, Type 0, BuildingBlock: ICAMEG_clean_sbu_1, # of connection points: 4
#     Node 4, Type 0, BuildingBlock: ICAMEG_clean_sbu_1, # of connection points: 4
#     Node 5, Type 0, BuildingBlock: ICAMEG_clean_sbu_1, # of connection points: 4
#     Node 6, Type 0, BuildingBlock: ICAMEG_clean_sbu_1, # of connection points: 4
#     Node 7, Type 0, BuildingBlock: ICAMEG_clean_sbu_1, # of connection points: 4
#     Node 8, Type 0, BuildingBlock: ICAMEG_clean_sbu_1, # of connection points: 4
#     Node 9, Type 0, BuildingBlock: ICAMEG_clean_sbu_1, # of connection points: 4
#     Node 10, Type 0, BuildingBlock: ICAMEG_clean_sbu_1, # of connection points: 4
#     Node 11, Type 0, BuildingBlock: ICAMEG_clean_sbu_1, # of connection points: 4
#     Node 12, Type 0, BuildingBlock: ICAMEG_clean_sbu_1, # of connection points: 4
#     Node 13, Type 0, BuildingBlock: ICAMEG_clean_sbu_1, # of connection points: 4
#     Node 14, Type 0, BuildingBlock: ICAMEG_clean_sbu_1, # of connection points: 4
#     Node 15, Type 0, BuildingBlock: ICAMEG_clean_sbu_1, # of connection points: 4
#     Node 16, Type 0, BuildingBlock: ICAMEG_clean_sbu_1, # of connection points: 4
#     Node 17, Type 0, BuildingBlock: ICAMEG_clean_sbu_1, # of connection points: 4
#     Node 18, Type 0, BuildingBlock: ICAMEG_clean_sbu_1, # of connection points: 4
#     Node 19, Type 0, BuildingBlock: ICAMEG_clean_sbu_1, # of connection points: 4
#     Node 20, Type 0, BuildingBlock: ICAMEG_clean_sbu_1, # of connection points: 4
#     Node 21, Type 0, BuildingBlock: ICAMEG_clean_sbu_1, # of connection points: 4
#     Node 22, Type 0, BuildingBlock: ICAMEG_clean_sbu_1, # of connection points: 4
#     Node 23, Type 0, BuildingBlock: ICAMEG_clean_sbu_1, # of connection points: 4
#     Node 24, Type 0, BuildingBlock: ICAMEG_clean_sbu_1, # of connection points: 4
#     Node 25, Type 0, BuildingBlock: ICAMEG_clean_sbu_1, # of connection points: 4
#     Node 26, Type 0, BuildingBlock: ICAMEG_clean_sbu_1, # of connection points: 4
#     Node 27, Type 0, BuildingBlock: ICAMEG_clean_sbu_1, # of connection points: 4
#     Node 28, Type 0, BuildingBlock: ICAMEG_clean_sbu_1, # of connection points: 4
#     Node 29, Type 0, BuildingBlock: ICAMEG_clean_sbu_1, # of connection points: 4
#     Node 30, Type 0, BuildingBlock: ICAMEG_clean_sbu_1, # of connection points: 4
#     Node 31, Type 0, BuildingBlock: ICAMEG_clean_sbu_1, # of connection points: 4
#     Node 32, Type 0, BuildingBlock: ICAMEG_clean_sbu_1, # of connection points: 4
#     Node 33, Type 0, BuildingBlock: ICAMEG_clean_sbu_1, # of connection points: 4
#     Node 34, Type 0, BuildingBlock: ICAMEG_clean_sbu_1, # of connection points: 4
#     Node 35, Type 0, BuildingBlock: ICAMEG_clean_sbu_1, # of connection points: 4
#     Edge 36, Type (0, 0), BuildingBlock: AJUNOK_clean_linker_0, # of connection points: 2
#     Edge 37, Type (0, 0), BuildingBlock: AJUNOK_clean_linker_0, # of connection points: 2
#     Edge 38, Type (0, 0), BuildingBlock: AJUNOK_clean_linker_0, # of connection points: 2
#     Edge 39, Type (0, 0), BuildingBlock: AJUNOK_clean_linker_0, # of connection points: 2
#     Edge 40, Type (0, 0), BuildingBlock: AJUNOK_clean_linker_0, # of connection points: 2
#     Edge 41, Type (0, 0), BuildingBlock: AJUNOK_clean_linker_0, # of connection points: 2
#     Edge 42, Type (0, 0), BuildingBlock: AJUNOK_clean_linker_0, # of connection points: 2
#     Edge 43, Type (0, 0), BuildingBlock: AJUNOK_clean_linker_0, # of connection points: 2
#     Edge 44, Type (0, 0), BuildingBlock: AJUNOK_clean_linker_0, # of connection points: 2
#     Edge 45, Type (0, 0), BuildingBlock: AJUNOK_clean_linker_0, # of connection points: 2
#     Edge 46, Type (0, 0), BuildingBlock: AJUNOK_clean_linker_0, # of connection points: 2
#     Edge 47, Type (0, 0), BuildingBlock: AJUNOK_clean_linker_0, # of connection points: 2
#     Edge 48, Type (0, 0), BuildingBlock: AJUNOK_clean_linker_0, # of connection points: 2
#     Edge 49, Type (0, 0), BuildingBlock: AJUNOK_clean_linker_0, # of connection points: 2
#     Edge 50, Type (0, 0), BuildingBlock: AJUNOK_clean_linker_0, # of connection points: 2
#     Edge 51, Type (0, 0), BuildingBlock: AJUNOK_clean_linker_0, # of connection points: 2
#     Edge 52, Type (0, 0), BuildingBlock: AJUNOK_clean_linker_0, # of connection points: 2
#     Edge 53, Type (0, 0), BuildingBlock: AJUNOK_clean_linker_0, # of connection points: 2
#     Edge 54, Type (0, 0), BuildingBlock: AJUNOK_clean_linker_0, # of connection points: 2
#     Edge 55, Type (0, 0), BuildingBlock: AJUNOK_clean_linker_0, # of connection points: 2
#     Edge 56, Type (0, 0), BuildingBlock: AJUNOK_clean_linker_0, # of connection points: 2
#     Edge 57, Type (0, 0), BuildingBlock: AJUNOK_clean_linker_0, # of connection points: 2
#     Edge 58, Type (0, 0), BuildingBlock: AJUNOK_clean_linker_0, # of connection points: 2
#     Edge 59, Type (0, 0), BuildingBlock: AJUNOK_clean_linker_0, # of connection points: 2
#     Edge 60, Type (0, 0), BuildingBlock: AJUNOK_clean_linker_0, # of connection points: 2
#     Edge 61, Type (0, 0), BuildingBlock: AJUNOK_clean_linker_0, # of connection points: 2
#     Edge 62, Type (0, 0), BuildingBlock: AJUNOK_clean_linker_0, # of connection points: 2
#     Edge 63, Type (0, 0), BuildingBlock: AJUNOK_clean_linker_0, # of connection points: 2
#     Edge 64, Type (0, 0), BuildingBlock: AJUNOK_clean_linker_0, # of connection points: 2
#     Edge 65, Type (0, 0), BuildingBlock: AJUNOK_clean_linker_0, # of connection points: 2
#     Edge 66, Type (0, 0), BuildingBlock: AJUNOK_clean_linker_0, # of connection points: 2
#     Edge 67, Type (0, 0), BuildingBlock: AJUNOK_clean_linker_0, # of connection points: 2
#     Edge 68, Type (0, 0), BuildingBlock: AJUNOK_clean_linker_0, # of connection points: 2
#     Edge 69, Type (0, 0), BuildingBlock: AJUNOK_clean_linker_0, # of connection points: 2
#     Edge 70, Type (0, 0), BuildingBlock: AJUNOK_clean_linker_0, # of connection points: 2
#     Edge 71, Type (0, 0), BuildingBlock: AJUNOK_clean_linker_0, # of connection points: 2
#     Edge 72, Type (0, 0), BuildingBlock: AJUNOK_clean_linker_0, # of connection points: 2
#     Edge 73, Type (0, 0), BuildingBlock: AJUNOK_clean_linker_0, # of connection points: 2
#     Edge 74, Type (0, 0), BuildingBlock: AJUNOK_clean_linker_0, # of connection points: 2
#     Edge 75, Type (0, 0), BuildingBlock: AJUNOK_clean_linker_0, # of connection points: 2
#     Edge 76, Type (0, 0), BuildingBlock: AJUNOK_clean_linker_0, # of connection points: 2
#     Edge 77, Type (0, 0), BuildingBlock: AJUNOK_clean_linker_0, # of connection points: 2
#     Edge 78, Type (0, 0), BuildingBlock: AJUNOK_clean_linker_0, # of connection points: 2
#     Edge 79, Type (0, 0), BuildingBlock: AJUNOK_clean_linker_0, # of connection points: 2
#     Edge 80, Type (0, 0), BuildingBlock: AJUNOK_clean_linker_0, # of connection points: 2
#     Edge 81, Type (0, 0), BuildingBlock: AJUNOK_clean_linker_0, # of connection points: 2
#     Edge 82, Type (0, 0), BuildingBlock: AJUNOK_clean_linker_0, # of connection points: 2
#     Edge 83, Type (0, 0), BuildingBlock: AJUNOK_clean_linker_0, # of connection points: 2
#     Edge 84, Type (0, 0), BuildingBlock: AJUNOK_clean_linker_0, # of connection points: 2
#     Edge 85, Type (0, 0), BuildingBlock: AJUNOK_clean_linker_0, # of connection points: 2
#     Edge 86, Type (0, 0), BuildingBlock: AJUNOK_clean_linker_0, # of connection points: 2
#     Edge 87, Type (0, 0), BuildingBlock: AJUNOK_clean_linker_0, # of connection points: 2
#     Edge 88, Type (0, 0), BuildingBlock: AJUNOK_clean_linker_0, # of connection points: 2
#     Edge 89, Type (0, 0), BuildingBlock: AJUNOK_clean_linker_0, # of connection points: 2
#     Edge 90, Type (0, 0), BuildingBlock: AJUNOK_clean_linker_0, # of connection points: 2
#     Edge 91, Type (0, 0), BuildingBlock: AJUNOK_clean_linker_0, # of connection points: 2
#     Edge 92, Type (0, 0), BuildingBlock: AJUNOK_clean_linker_0, # of connection points: 2
#     Edge 93, Type (0, 0), BuildingBlock: AJUNOK_clean_linker_0, # of connection points: 2
#     Edge 94, Type (0, 0), BuildingBlock: AJUNOK_clean_linker_0, # of connection points: 2
#     Edge 95, Type (0, 0), BuildingBlock: AJUNOK_clean_linker_0, # of connection points: 2
#     Edge 96, Type (0, 0), BuildingBlock: AJUNOK_clean_linker_0, # of connection points: 2
#     Edge 97, Type (0, 0), BuildingBlock: AJUNOK_clean_linker_0, # of connection points: 2
#     Edge 98, Type (0, 0), BuildingBlock: AJUNOK_clean_linker_0, # of connection points: 2
#     Edge 99, Type (0, 0), BuildingBlock: AJUNOK_clean_linker_0, # of connection points: 2
#     Edge 100, Type (0, 0), BuildingBlock: AJUNOK_clean_linker_0, # of connection points: 2
#     Edge 101, Type (0, 0), BuildingBlock: AJUNOK_clean_linker_0, # of connection points: 2
#     Edge 102, Type (0, 0), BuildingBlock: AJUNOK_clean_linker_0, # of connection points: 2
#     Edge 103, Type (0, 0), BuildingBlock: AJUNOK_clean_linker_0, # of connection points: 2
#     Edge 104, Type (0, 0), BuildingBlock: AJUNOK_clean_linker_0, # of connection points: 2
#     Edge 105, Type (0, 0), BuildingBlock: AJUNOK_clean_linker_0, # of connection points: 2
#     Edge 106, Type (0, 0), BuildingBlock: AJUNOK_clean_linker_0, # of connection points: 2
#     Edge 107, Type (0, 0), BuildingBlock: AJUNOK_clean_linker_0, # of connection points: 2
# Relax obj value: 0.038
# Max RMSD: 0.081
# Mean RMSD: 0.081
data_MOF--net-uoh--node1-ICAMEG_clean_sbu_1--edge1-AJUNOK_clean_linker_0
_symmetry_space_group_name_H-M    P1
_symmetry_Int_Tables_number       1
_symmetry_cell_setting            triclinic
loop_
_symmetry_equiv_pos_as_xyz
'x, y, z'
_cell_length_a     71.723765
_cell_length_b     71.736259
_cell_length_c     22.557645
_cell_angle_alpha  90.005774
_cell_angle_beta   90.002009
_cell_angle_gamma 120.01755
loop_
_atom_site_label
_atom_site_type_symbol
_atom_site_fract_x
_atom_site_fract_y
_atom_site_fract_z
_atom_type_partial_charge
Co0 Co 0.24619 0.12483 0.22765 0.0
Co1 Co 0.25781 0.17599 0.19166 0.0
O2 O 0.2437 0.15042 0.24259 0.0
C3 C 0.25835 0.13334 0.35432 0.0
O4 O 0.27227 0.15314 0.33844 0.0
C5 C 0.21398 0.17097 0.21926 0.0
O6 O 0.20538 0.15016 0.22732 0.0
O7 O 0.24304 0.15802 0.1203 0.0
O8 O 0.24606 0.12899 0.13999 0.0
H9 H 0.29566 0.21673 0.00725 0.0
H10 H 0.21168 0.12055 0.30864 0.0
O11 O 0.24634 0.11986 0.31529 0.0
H12 H 0.17412 0.07004 0.14456 0.0
H13 H 0.22966 0.04881 0.26454 0.0
H14 H 0.27206 0.11447 0.14551 0.0
H15 H 0.21375 0.09193 0.14577 0.0
H16 H 0.22614 0.08091 0.28094 0.0
O17 O 0.23375 0.18236 0.20466 0.0
H18 H 0.27886 0.18524 0.0735 0.0
H19 H 0.26624 0.2211 0.20097 0.0
H20 H 0.27598 0.08271 0.12742 0.0
H21 H 0.17203 0.09873 0.30966 0.0
H22 H 0.25467 0.04956 0.18716 0.0
H23 H 0.15299 0.07331 0.22705 0.0
O24 O 0.27827 0.14262 0.22669 0.0
H25 H 0.26207 0.19947 0.40362 0.0
H26 H 0.30335 0.20899 0.22044 0.0
H27 H 0.32226 0.22923 0.3101 0.0
H28 H 0.30159 0.22456 0.40261 0.0
H29 H 0.24386 0.17929 0.31313 0.0
H30 H 0.2829 0.25301 0.13604 0.0
H31 H 0.29781 0.25097 0.03841 0.0
O32 O 0.28278 0.17148 0.17659 0.0
C33 C 0.24321 0.14103 0.10377 0.0
C34 C 0.28923 0.21784 0.04968 0.0
C35 C 0.28208 0.2382 0.12196 0.0
N36 N 0.27155 0.20128 0.14112 0.0
C37 C 0.27966 0.20003 0.08739 0.0
C38 C 0.27262 0.22005 0.1585 0.0
C39 C 0.29043 0.23704 0.06719 0.0
C40 C 0.20352 0.10937 0.27284 0.0
N41 N 0.21502 0.10751 0.22725 0.0
C42 C 0.18106 0.09713 0.27352 0.0
C43 C 0.17038 0.0829 0.22711 0.0
C44 C 0.18223 0.08108 0.18077 0.0
C45 C 0.20466 0.09359 0.18156 0.0
C46 C 0.23898 0.06314 0.23809 0.0
C47 C 0.26262 0.10007 0.17143 0.0
C48 C 0.23708 0.08137 0.24722 0.0
N49 N 0.24872 0.09948 0.21378 0.0
C50 C 0.26496 0.08215 0.16109 0.0
C51 C 0.25302 0.06357 0.19467 0.0
C52 C 0.28993 0.15964 0.19653 0.0
C53 C 0.27125 0.20171 0.36352 0.0
C54 C 0.29424 0.2068 0.26044 0.0
C55 C 0.30503 0.21837 0.3111 0.0
C56 C 0.29342 0.21575 0.36296 0.0
N57 N 0.27248 0.19303 0.26128 0.0
C58 C 0.261 0.19041 0.31199 0.0
Co59 Co 0.88104 0.12416 0.22732 0.0
Co60 Co 0.82974 0.08529 0.19149 0.0
O61 O 0.85505 0.09657 0.24294 0.0
C62 C 0.87251 0.1282 0.35353 0.0
O63 O 0.85287 0.12271 0.33697 0.0
C64 C 0.83484 0.04648 0.21359 0.0
O65 O 0.85571 0.05808 0.20513 0.0
O66 O 0.84772 0.08766 0.12103 0.0
O67 O 0.87688 0.11969 0.13966 0.0
H68 H 0.7896 0.08223 0.00572 0.0
H69 H 0.88355 0.09296 0.30832 0.0
O70 O 0.88601 0.12944 0.31493 0.0
H71 H 0.93422 0.10436 0.14595 0.0
H72 H 0.95774 0.18221 0.26361 0.0
H73 H 0.89235 0.16048 0.14464 0.0
H74 H 0.91379 0.12363 0.14686 0.0
H75 H 0.92499 0.14712 0.28053 0.0
O76 O 0.82305 0.05502 0.20781 0.0
H77 H 0.8209 0.09696 0.07274 0.0
H78 H 0.78469 0.04839 0.19973 0.0
H79 H 0.92477 0.19563 0.12599 0.0
H80 H 0.90379 0.07349 0.30945 0.0
H81 H 0.95779 0.20671 0.1857 0.0
H82 H 0.92929 0.0791 0.22773 0.0
O83 O 0.86383 0.13909 0.2253 0.0
H84 H 0.80522 0.06747 0.4031 0.0
H85 H 0.79709 0.09856 0.21672 0.0
H86 H 0.77645 0.09787 0.30486 0.0
H87 H 0.78045 0.08223 0.39897 0.0
H88 H 0.82573 0.06871 0.31401 0.0
H89 H 0.75296 0.03311 0.13402 0.0
H90 H 0.75528 0.05009 0.03628 0.0
O91 O 0.83491 0.11497 0.17458 0.0
C92 C 0.86472 0.10467 0.1039 0.0
C93 C 0.78836 0.0747 0.04825 0.0
C94 C 0.76781 0.04714 0.12024 0.0
N95 N 0.80462 0.07365 0.14031 0.0
C96 C 0.80604 0.08298 0.08644 0.0
C97 C 0.78584 0.05585 0.15724 0.0
C98 C 0.76912 0.05668 0.06541 0.0
C99 C 0.89479 0.09565 0.27294 0.0
N100 N 0.89757 0.10949 0.22776 0.0
C101 C 0.90613 0.08451 0.27368 0.0
C102 C 0.92041 0.08764 0.22776 0.0
C103 C 0.92316 0.10179 0.18183 0.0
C104 C 0.91152 0.11262 0.1825 0.0
C105 C 0.94348 0.17754 0.23716 0.0
C106 C 0.9067 0.1651 0.1705 0.0
C107 C 0.92488 0.1577 0.24657 0.0
N108 N 0.90685 0.15164 0.2131 0.0
C109 C 0.92499 0.18506 0.15988 0.0
C110 C 0.9435 0.19127 0.19344 0.0
C111 C 0.84694 0.13396 0.19465 0.0
C112 C 0.8033 0.07428 0.36231 0.0
C113 C 0.79898 0.0918 0.25747 0.0
C114 C 0.7872 0.09139 0.30723 0.0
C115 C 0.78943 0.08259 0.36 0.0
N116 N 0.81259 0.08365 0.26007 0.0
C117 C 0.8148 0.07494 0.31162 0.0
Co118 Co 0.88073 0.75851 0.22793 0.0
Co119 Co 0.91826 0.74433 0.19014 0.0
O120 O 0.90826 0.7596 0.24158 0.0
C121 C 0.87943 0.7486 0.35477 0.0
O122 O 0.88621 0.73528 0.34029 0.0
C123 C 0.95794 0.78801 0.2088 0.0
O124 O 0.94644 0.79747 0.20213 0.0
O125 O 0.91537 0.75932 0.11893 0.0
O126 O 0.88411 0.75776 0.14036 0.0
H127 H 0.91616 0.70236 0.00933 0.0
H128 H 0.91347 0.79264 0.30486 0.0
O129 O 0.87631 0.75928 0.3151 0.0
H130 H 0.90098 0.83114 0.14255 0.0
H131 H 0.82418 0.7791 0.26647 0.0
H132 H 0.84296 0.73255 0.15051 0.0
H133 H 0.88092 0.79149 0.14652 0.0
H134 H 0.85933 0.78127 0.28016 0.0
O135 O 0.94909 0.76765 0.20277 0.0
H136 H 0.90354 0.72107 0.07562 0.0
H137 H 0.95498 0.73582 0.19473 0.0
H138 H 0.80764 0.72981 0.13554 0.0
H139 H 0.93375 0.83234 0.30304 0.0
H140 H 0.79806 0.75325 0.19363 0.0
H141 H 0.92761 0.85186 0.22131 0.0
O142 O 0.86529 0.72644 0.22924 0.0
H143 H 0.94038 0.73969 0.39869 0.0
H144 H 0.90363 0.6984 0.21913 0.0
H145 H 0.90578 0.67927 0.30731 0.0
H146 H 0.92432 0.69995 0.39789 0.0
H147 H 0.93744 0.75814 0.31 0.0
H148 H 0.96825 0.7174 0.12949 0.0
H149 H 0.94875 0.70043 0.0361 0.0
O150 O 0.88807 0.72011 0.17697 0.0
C151 C 0.89852 0.75994 0.10341 0.0
C152 C 0.92479 0.70968 0.04991 0.0
C153 C 0.95404 0.71814 0.11731 0.0
N154 N 0.9285 0.72956 0.13903 0.0
C155 C 0.91771 0.72029 0.08768 0.0
C156 C 0.94649 0.72863 0.15397 0.0
C157 C 0.94309 0.70861 0.06494 0.0
C158 C 0.91055 0.80102 0.26947 0.0
N159 N 0.89599 0.78974 0.22588 0.0
C160 C 0.92215 0.8235 0.26855 0.0
C161 C 0.91873 0.83444 0.22262 0.0
C162 C 0.90381 0.82283 0.17838 0.0
C163 C 0.89255 0.80036 0.1807 0.0
C164 C 0.8282 0.76887 0.24069 0.0
C165 C 0.83896 0.74286 0.17583 0.0
C166 C 0.84809 0.77004 0.2482 0.0
N167 N 0.85333 0.75726 0.21555 0.0
C168 C 0.81891 0.74121 0.16722 0.0
C169 C 0.81355 0.75435 0.19984 0.0
C170 C 0.86948 0.71395 0.1989 0.0
C171 C 0.93229 0.7305 0.35946 0.0
C172 C 0.91159 0.70752 0.25848 0.0
C173 C 0.91283 0.69659 0.30822 0.0
C174 C 0.92326 0.70821 0.35901 0.0
N175 N 0.92048 0.7294 0.25925 0.0
C176 C 0.93069 0.74088 0.30895 0.0
Co177 Co 0.12142 0.2465 0.27692 0.0
Co178 Co 0.17355 0.26109 0.30874 0.0
O179 O 0.14783 0.24589 0.25923 0.0
C180 C 0.12854 0.25669 0.14973 0.0
O181 O 0.14857 0.27056 0.16356 0.0
C182 C 0.17039 0.21778 0.29251 0.0
O183 O 0.1506 0.20792 0.31304 0.0
O184 O 0.15659 0.24527 0.38027 0.0
O185 O 0.12682 0.24726 0.36403 0.0
H186 H 0.21497 0.30125 0.48993 0.0
H187 H 0.11962 0.21255 0.19834 0.0
O188 O 0.11513 0.2457 0.18999 0.0
H189 H 0.07095 0.1738 0.36487 0.0
H190 H 0.04363 0.22511 0.24729 0.0
H191 H 0.11001 0.2714 0.35972 0.0
H192 H 0.09012 0.21348 0.3607 0.0
H193 H 0.07677 0.22372 0.22811 0.0
O194 O 0.1812 0.23827 0.2906 0.0
H195 H 0.18308 0.2832 0.42533 0.0
H196 H 0.21882 0.27002 0.29869 0.0
H197 H 0.07724 0.27323 0.38055 0.0
H198 H 0.10065 0.17285 0.20051 0.0
H199 H 0.04371 0.24996 0.32413 0.0
H200 H 0.07613 0.15322 0.28429 0.0
O201 O 0.13775 0.27859 0.27613 0.0
H202 H 0.19827 0.2688 0.09689 0.0
H203 H 0.20436 0.30741 0.28315 0.0
H204 H 0.22485 0.32783 0.19537 0.0
H205 H 0.22201 0.30849 0.10147 0.0
H206 H 0.1774 0.24908 0.18516 0.0
H207 H 0.2511 0.28787 0.3621 0.0
H208 H 0.24932 0.30369 0.45843 0.0
O209 O 0.16719 0.28473 0.32656 0.0
C210 C 0.1396 0.24502 0.39878 0.0
C211 C 0.21597 0.29446 0.448 0.0
C212 C 0.23623 0.28692 0.37629 0.0
N213 N 0.19907 0.2756 0.35816 0.0
C214 C 0.19796 0.28424 0.41115 0.0
C215 C 0.21787 0.27678 0.34064 0.0
C216 C 0.23523 0.29581 0.43032 0.0
C217 C 0.10883 0.20411 0.23466 0.0
N218 N 0.10584 0.2153 0.27907 0.0
C219 C 0.0982 0.18164 0.23577 0.0
C220 C 0.08446 0.17063 0.28283 0.0
C221 C 0.08155 0.18217 0.32808 0.0
C222 C 0.09248 0.20463 0.32553 0.0
C223 C 0.05811 0.23527 0.27232 0.0
C224 C 0.09545 0.26108 0.33534 0.0
C225 C 0.07693 0.23457 0.26162 0.0
N226 N 0.09525 0.24728 0.29326 0.0
C227 C 0.07696 0.26225 0.34717 0.0
C228 C 0.05817 0.24922 0.31544 0.0
C229 C 0.15455 0.29091 0.3064 0.0
C230 C 0.19965 0.2774 0.13756 0.0
C231 C 0.20285 0.29887 0.24233 0.0
C232 C 0.21457 0.31053 0.19281 0.0
C233 C 0.21297 0.29967 0.14016 0.0
N234 N 0.18985 0.27701 0.23951 0.0
C235 C 0.18802 0.2663 0.18784 0.0
Co236 Co 0.75626 0.87761 0.27805 0.0
Co237 Co 0.74513 0.91759 0.311 0.0
O238 O 0.75933 0.90587 0.26149 0.0
C239 C 0.74779 0.87594 0.14931 0.0
O240 O 0.73537 0.88407 0.16107 0.0
C241 C 0.7896 0.9561 0.28985 0.0
O242 O 0.79863 0.94418 0.29553 0.0
O243 O 0.75957 0.91451 0.38312 0.0
O244 O 0.75514 0.88182 0.36525 0.0
H245 H 0.70645 0.92106 0.49283 0.0
H246 H 0.79214 0.90829 0.20156 0.0
O247 O 0.75743 0.87235 0.19113 0.0
H248 H 0.82678 0.89414 0.37087 0.0
H249 H 0.77244 0.81753 0.24843 0.0
H250 H 0.72851 0.8413 0.35797 0.0
H251 H 0.7872 0.8763 0.36419 0.0
H252 H 0.7769 0.85345 0.23056 0.0
O253 O 0.76934 0.94777 0.29682 0.0
H254 H 0.72326 0.90598 0.428 0.0
H255 H 0.73787 0.95504 0.30071 0.0
H256 H 0.72366 0.80533 0.37762 0.0
H257 H 0.83177 0.92632 0.20618 0.0
H258 H 0.74571 0.79322 0.32261 0.0
H259 H 0.84934 0.91931 0.2914 0.0
O260 O 0.72423 0.86385 0.27484 0.0
H261 H 0.74202 0.93771 0.09926 0.0
H262 H 0.69978 0.90532 0.28072 0.0
H263 H 0.68143 0.90749 0.19086 0.0
H264 H 0.7026 0.92384 0.09925 0.0
H265 H 0.75966 0.93491 0.18991 0.0
H266 H 0.72122 0.97066 0.36424 0.0
H267 H 0.70529 0.95361 0.46103 0.0
O268 O 0.7199 0.88814 0.32599 0.0
C269 C 0.75842 0.89702 0.40076 0.0
C270 C 0.7133 0.92862 0.45072 0.0
C271 C 0.72159 0.95646 0.37856 0.0
N272 N 0.73147 0.92953 0.36041 0.0
C273 C 0.72286 0.92016 0.41377 0.0
C274 C 0.73105 0.94755 0.34281 0.0
C275 C 0.71266 0.94688 0.43286 0.0
C276 C 0.79967 0.905 0.23846 0.0
N277 N 0.78738 0.89119 0.28238 0.0
C278 C 0.82211 0.91532 0.24097 0.0
C279 C 0.83196 0.91142 0.28886 0.0
C280 C 0.81931 0.89731 0.33349 0.0
C281 C 0.79691 0.8873 0.32955 0.0
C282 C 0.76277 0.82264 0.27281 0.0
C283 C 0.73828 0.83622 0.33415 0.0
C284 C 0.7652 0.84296 0.26281 0.0
N285 N 0.7531 0.84955 0.29354 0.0
C286 C 0.73541 0.8158 0.34535 0.0
C287 C 0.74778 0.80901 0.31443 0.0
C288 C 0.71255 0.86926 0.30477 0.0
C289 C 0.73263 0.93061 0.13894 0.0
C290 C 0.70909 0.91231 0.24102 0.0
C291 C 0.69862 0.91358 0.19028 0.0
C292 C 0.71051 0.92279 0.13893 0.0
N293 N 0.73079 0.92 0.24073 0.0
C294 C 0.74255 0.92908 0.19053 0.0
Co295 Co 0.12712 0.878 0.27429 0.0
Co296 Co 0.08707 0.82678 0.30666 0.0
O297 O 0.09878 0.85283 0.25758 0.0
C298 C 0.12801 0.87134 0.14555 0.0
O299 O 0.12022 0.85085 0.15741 0.0
C300 C 0.04849 0.83269 0.28493 0.0
O301 O 0.06051 0.85367 0.2898 0.0
O302 O 0.09026 0.84423 0.3791 0.0
O303 O 0.12303 0.87241 0.3614 0.0
H304 H 0.08377 0.78435 0.48763 0.0
H305 H 0.09631 0.88344 0.19899 0.0
O306 O 0.13218 0.88468 0.18742 0.0
H307 H 0.11093 0.93183 0.3696 0.0
H308 H 0.18727 0.95433 0.24582 0.0
H309 H 0.16345 0.88636 0.35388 0.0
H310 H 0.12867 0.91004 0.36154 0.0
H311 H 0.15138 0.92287 0.22723 0.0
O312 O 0.05677 0.82075 0.29277 0.0
H313 H 0.0988 0.81633 0.4232 0.0
H314 H 0.04958 0.7821 0.29611 0.0
H315 H 0.19939 0.91744 0.37408 0.0
H316 H 0.07838 0.9051 0.20499 0.0
H317 H 0.21152 0.95176 0.31986 0.0
H318 H 0.08562 0.92947 0.29087 0.0
O319 O 0.14085 0.85971 0.27014 0.0
H320 H 0.06583 0.80295 0.09565 0.0
H321 H 0.09959 0.794 0.27548 0.0
H322 H 0.09703 0.7733 0.18568 0.0
H323 H 0.07995 0.77763 0.09493 0.0
H324 H 0.06931 0.82384 0.18592 0.0
H325 H 0.03399 0.74972 0.35922 0.0
H326 H 0.05114 0.75068 0.45572 0.0
O327 O 0.11659 0.83106 0.3213 0.0
C328 C 0.10785 0.86045 0.39688 0.0
C329 C 0.07616 0.7837 0.44565 0.0
C330 C 0.04823 0.76428 0.37359 0.0
N331 N 0.07517 0.80111 0.35573 0.0
C332 C 0.0846 0.80178 0.40892 0.0
C333 C 0.05711 0.78269 0.33807 0.0
C334 C 0.05786 0.76483 0.42772 0.0
C335 C 0.09971 0.89418 0.23617 0.0
N336 N 0.11359 0.89555 0.27969 0.0
C337 C 0.08944 0.90633 0.23946 0.0
C338 C 0.09348 0.91997 0.28772 0.0
C339 C 0.10766 0.92128 0.33194 0.0
C340 C 0.11761 0.90886 0.32722 0.0
C341 C 0.18214 0.93949 0.26985 0.0
C342 C 0.16854 0.90126 0.33036 0.0
C343 C 0.16185 0.92161 0.25947 0.0
N344 N 0.15523 0.90284 0.28988 0.0
C345 C 0.18894 0.9188 0.34188 0.0
C346 C 0.19574 0.93804 0.3114 0.0
C347 C 0.13549 0.84263 0.30011 0.0
C348 C 0.07331 0.80093 0.13491 0.0
C349 C 0.09238 0.79619 0.23606 0.0
C350 C 0.09086 0.78432 0.18539 0.0
C351 C 0.08125 0.78674 0.13452 0.0
N352 N 0.08459 0.81012 0.23613 0.0
C353 C 0.0752 0.81261 0.18633 0.0
Co354 Co 0.75804 0.87949 0.77813 0.0
Co355 Co 0.74318 0.8273 0.8104 0.0
O356 O 0.75875 0.85309 0.7612 0.0
C357 C 0.74816 0.87273 0.65035 0.0
O358 O 0.73424 0.85264 0.66344 0.0
C359 C 0.7865 0.83038 0.79241 0.0
O360 O 0.79658 0.85066 0.80894 0.0
O361 O 0.75851 0.84419 0.88282 0.0
O362 O 0.75689 0.87409 0.86521 0.0
H363 H 0.70169 0.78576 0.98993 0.0
H364 H 0.79238 0.8815 0.70078 0.0
O365 O 0.75924 0.88582 0.69118 0.0
H366 H 0.83033 0.92998 0.86836 0.0
H367 H 0.77945 0.95721 0.74737 0.0
H368 H 0.73277 0.89089 0.85954 0.0
H369 H 0.79066 0.91067 0.86297 0.0
H370 H 0.78117 0.92418 0.72971 0.0
O371 O 0.766 0.81944 0.79379 0.0
H372 H 0.72031 0.81771 0.9258 0.0
H373 H 0.73397 0.78192 0.80061 0.0
H374 H 0.73064 0.92359 0.87895 0.0
H375 H 0.83208 0.90063 0.70413 0.0
H376 H 0.75408 0.95707 0.82259 0.0
H377 H 0.85131 0.92505 0.78845 0.0
O378 O 0.72594 0.8632 0.77611 0.0
H379 H 0.73707 0.80416 0.59748 0.0
H380 H 0.69706 0.79638 0.78223 0.0
H381 H 0.67731 0.7765 0.6929 0.0
H382 H 0.69734 0.78026 0.5997 0.0
H383 H 0.75614 0.82399 0.68761 0.0
H384 H 0.71558 0.74959 0.86356 0.0
H385 H 0.69922 0.75136 0.95894 0.0
O386 O 0.71942 0.83368 0.82658 0.0
C387 C 0.75884 0.8613 0.90065 0.0
C388 C 0.70872 0.78476 0.94842 0.0
C389 C 0.71654 0.76448 0.87755 0.0
N390 N 0.72822 0.80172 0.8594 0.0
C391 C 0.71927 0.80281 0.91184 0.0
C392 C 0.72701 0.78287 0.84216 0.0
C393 C 0.70736 0.76548 0.93104 0.0
C394 C 0.80065 0.89224 0.73733 0.0
N395 N 0.78924 0.89508 0.7814 0.0
C396 C 0.82312 0.90297 0.73911 0.0
C397 C 0.8339 0.91664 0.78648 0.0
C398 C 0.82214 0.91941 0.83135 0.0
C399 C 0.79968 0.9084 0.82812 0.0
C400 C 0.76919 0.94274 0.77233 0.0
C401 C 0.74315 0.90543 0.83518 0.0
C402 C 0.77007 0.92398 0.76246 0.0
N403 N 0.75719 0.90565 0.79387 0.0
C404 C 0.74182 0.92389 0.84623 0.0
C405 C 0.75496 0.94265 0.81454 0.0
C406 C 0.7134 0.84638 0.80593 0.0
C407 C 0.72816 0.8023 0.63789 0.0
C408 C 0.7059 0.79816 0.74184 0.0
C409 C 0.69463 0.78682 0.69141 0.0
C410 C 0.70588 0.78893 0.63914 0.0
N411 N 0.72778 0.81119 0.74036 0.0
C412 C 0.73889 0.8134 0.68917 0.0
Co413 Co 0.1243 0.87734 0.77403 0.0
Co414 Co 0.17541 0.91656 0.80977 0.0
O415 O 0.15005 0.9051 0.75836 0.0
C416 C 0.13227 0.87437 0.64661 0.0
O417 O 0.15249 0.88138 0.66028 0.0
C418 C 0.17107 0.9561 0.78871 0.0
O419 O 0.15071 0.9458 0.80445 0.0
O420 O 0.15734 0.91423 0.88051 0.0
O421 O 0.12863 0.8819 0.8614 0.0
H422 H 0.21616 0.92002 0.99471 0.0
H423 H 0.12193 0.90892 0.69459 0.0
O424 O 0.11885 0.87186 0.68693 0.0
H425 H 0.07 0.89584 0.85477 0.0
H426 H 0.04766 0.81865 0.73994 0.0
H427 H 0.11401 0.84074 0.85469 0.0
H428 H 0.09068 0.87687 0.85353 0.0
H429 H 0.07987 0.85418 0.72357 0.0
O430 O 0.18219 0.94677 0.79145 0.0
H431 H 0.18468 0.9051 0.92831 0.0
H432 H 0.2203 0.9538 0.80114 0.0
H433 H 0.08217 0.80509 0.8726 0.0
H434 H 0.10142 0.92811 0.69364 0.0
H435 H 0.04865 0.79385 0.8151 0.0
H436 H 0.07527 0.92165 0.77424 0.0
O437 O 0.14198 0.86288 0.77511 0.0
H438 H 0.19961 0.93305 0.59752 0.0
H439 H 0.20856 0.9038 0.78624 0.0
H440 H 0.22947 0.90443 0.69886 0.0
H441 H 0.22514 0.91923 0.60362 0.0
H442 H 0.17874 0.93176 0.68581 0.0
H443 H 0.25217 0.96928 0.86621 0.0
H444 H 0.25026 0.95233 0.96373 0.0
O445 O 0.17029 0.88699 0.82776 0.0
C446 C 0.14038 0.89701 0.89735 0.0
C447 C 0.21721 0.92756 0.95232 0.0
C448 C 0.23741 0.95519 0.88021 0.0
N449 N 0.20062 0.92849 0.86076 0.0
C450 C 0.19941 0.91918 0.91452 0.0
C451 C 0.21928 0.94637 0.84359 0.0
C452 C 0.23633 0.94568 0.93491 0.0
C453 C 0.11046 0.90591 0.72959 0.0
N454 N 0.10747 0.89174 0.77404 0.0
C455 C 0.09895 0.91687 0.72891 0.0
C456 C 0.0843 0.91327 0.77419 0.0
C457 C 0.08136 0.89881 0.81941 0.0
C458 C 0.09318 0.88816 0.81866 0.0
C459 C 0.06214 0.82339 0.76545 0.0
C460 C 0.09949 0.836 0.82953 0.0
C461 C 0.08044 0.84349 0.75635 0.0
N462 N 0.09876 0.84964 0.78855 0.0
C463 C 0.08151 0.81577 0.83985 0.0
C464 C 0.06271 0.80948 0.80758 0.0
C465 C 0.15868 0.86808 0.80679 0.0
C466 C 0.20172 0.92664 0.63882 0.0
C467 C 0.20649 0.91016 0.745 0.0
C468 C 0.21844 0.91054 0.69565 0.0
C469 C 0.21601 0.91886 0.64224 0.0
N470 N 0.19254 0.91788 0.7414 0.0
C471 C 0.19002 0.92597 0.68908 0.0
Co472 Co 0.12499 0.24676 0.77635 0.0
Co473 Co 0.08835 0.26243 0.80971 0.0
O474 O 0.09808 0.24655 0.76013 0.0
C475 C 0.1277 0.25655 0.64868 0.0
O476 O 0.12164 0.27053 0.66196 0.0
C477 C 0.04786 0.21943 0.79176 0.0
O478 O 0.05805 0.20924 0.80721 0.0
O479 O 0.08974 0.2469 0.88179 0.0
O480 O 0.12094 0.24785 0.86379 0.0
H481 H 0.0898 0.30477 0.98897 0.0
H482 H 0.092 0.21293 0.69924 0.0
O483 O 0.12988 0.24554 0.68936 0.0
H484 H 0.10228 0.17392 0.86434 0.0
H485 H 0.18021 0.22399 0.74389 0.0
H486 H 0.16235 0.27206 0.85565 0.0
H487 H 0.12329 0.21354 0.85957 0.0
H488 H 0.14564 0.2228 0.72754 0.0
O489 O 0.05751 0.23992 0.79373 0.0
H490 H 0.1023 0.28541 0.92481 0.0
H491 H 0.05262 0.27232 0.80092 0.0
H492 H 0.19707 0.27376 0.87349 0.0
H493 H 0.07079 0.17326 0.70185 0.0
H494 H 0.20619 0.24957 0.81747 0.0
H495 H 0.07583 0.15349 0.78495 0.0
O496 O 0.14126 0.27887 0.77442 0.0
H497 H 0.07056 0.26873 0.59769 0.0
H498 H 0.10432 0.30869 0.78146 0.0
H499 H 0.10412 0.32853 0.69246 0.0
H500 H 0.08707 0.30852 0.59977 0.0
H501 H 0.07141 0.24956 0.68745 0.0
H502 H 0.03949 0.29141 0.86396 0.0
H503 H 0.05817 0.30787 0.95867 0.0
O504 O 0.1187 0.28587 0.82539 0.0
C505 C 0.10621 0.24591 0.89931 0.0
C506 C 0.08154 0.29768 0.94778 0.0
C507 C 0.05328 0.29016 0.87767 0.0
N508 N 0.07823 0.27774 0.85909 0.0
C509 C 0.08855 0.28671 0.9112 0.0
C510 C 0.06074 0.27929 0.84224 0.0
C511 C 0.06378 0.2994 0.93078 0.0
C512 C 0.09441 0.20443 0.73528 0.0
N513 N 0.10892 0.21554 0.77912 0.0
C514 C 0.0823 0.18197 0.73663 0.0
C515 C 0.08511 0.17089 0.78332 0.0
C516 C 0.09993 0.18234 0.8279 0.0
C517 C 0.11174 0.20479 0.82511 0.0
C518 C 0.17639 0.23454 0.76879 0.0
C519 C 0.16614 0.26141 0.83129 0.0
C520 C 0.15683 0.23394 0.75974 0.0
N521 N 0.15185 0.24716 0.79116 0.0
C522 C 0.18585 0.26248 0.8415 0.0
C523 C 0.19096 0.24891 0.81004 0.0
C524 C 0.13732 0.29163 0.80427 0.0
C525 C 0.07796 0.27762 0.63788 0.0
C526 C 0.09695 0.29986 0.74126 0.0
C527 C 0.09683 0.31119 0.69103 0.0
C528 C 0.08725 0.29995 0.63905 0.0
N529 N 0.08772 0.27794 0.73986 0.0
C530 C 0.07838 0.26684 0.68896 0.0
Co531 Co 0.88197 0.75788 0.72805 0.0
Co532 Co 0.8302 0.74392 0.69065 0.0
O533 O 0.85569 0.75942 0.74152 0.0
C534 C 0.87358 0.74877 0.8553 0.0
O535 O 0.85335 0.73565 0.84144 0.0
C536 C 0.83352 0.78724 0.71461 0.0
O537 O 0.85448 0.79653 0.72054 0.0
O538 O 0.84801 0.75852 0.61894 0.0
O539 O 0.87761 0.75676 0.64047 0.0
H540 H 0.79025 0.70186 0.50995 0.0
H541 H 0.88468 0.79268 0.80475 0.0
O542 O 0.88734 0.75898 0.81516 0.0
H543 H 0.93499 0.82979 0.64 0.0
H544 H 0.95896 0.77773 0.76582 0.0
H545 H 0.89312 0.73119 0.65163 0.0
H546 H 0.91448 0.79017 0.64472 0.0
H547 H 0.92628 0.78043 0.77944 0.0
O548 O 0.82255 0.7673 0.70129 0.0
H549 H 0.8217 0.72086 0.57577 0.0
H550 H 0.78456 0.73407 0.69728 0.0
H551 H 0.9254 0.72791 0.63677 0.0
H552 H 0.90513 0.83237 0.80236 0.0
H553 H 0.95867 0.75135 0.69396 0.0
H554 H 0.93044 0.85119 0.71938 0.0
O555 O 0.86505 0.72583 0.73069 0.0
H556 H 0.80409 0.74049 0.8995 0.0
H557 H 0.79904 0.69813 0.72191 0.0
H558 H 0.7781 0.67953 0.81101 0.0
H559 H 0.78047 0.70074 0.90059 0.0
H560 H 0.82517 0.75841 0.80998 0.0
H561 H 0.75275 0.7154 0.6325 0.0
H562 H 0.75546 0.69907 0.53811 0.0
O563 O 0.83603 0.71962 0.67841 0.0
C564 C 0.8654 0.75896 0.60345 0.0
C565 C 0.78888 0.70896 0.55088 0.0
C566 C 0.76784 0.71657 0.61962 0.0
N567 N 0.80506 0.72878 0.64009 0.0
C568 C 0.80665 0.71977 0.58834 0.0
C569 C 0.78595 0.72725 0.65597 0.0
C570 C 0.76936 0.7074 0.5667 0.0
C571 C 0.89581 0.80075 0.7688 0.0
N572 N 0.89835 0.78909 0.72486 0.0
C573 C 0.90728 0.82323 0.76755 0.0
C574 C 0.92145 0.83378 0.72093 0.0
C575 C 0.92398 0.82179 0.67633 0.0
C576 C 0.91223 0.79933 0.67903 0.0
C577 C 0.9446 0.7675 0.74043 0.0
C578 C 0.90754 0.7415 0.67656 0.0
C579 C 0.92604 0.76897 0.74789 0.0
N580 N 0.90788 0.75619 0.71574 0.0
C581 C 0.92577 0.73954 0.66802 0.0
C582 C 0.94442 0.75268 0.70013 0.0
C583 C 0.84833 0.71336 0.70054 0.0
C584 C 0.80287 0.73108 0.86068 0.0
C585 C 0.80031 0.70749 0.7608 0.0
C586 C 0.78833 0.69686 0.81108 0.0
C587 C 0.78965 0.70877 0.8613 0.0
N588 N 0.81324 0.72939 0.76047 0.0
C589 C 0.81466 0.74116 0.80965 0.0
Co590 Co 0.24627 0.12462 0.72561 0.0
Co591 Co 0.25976 0.08611 0.69405 0.0
O592 O 0.24373 0.0965 0.74092 0.0
C593 C 0.25279 0.12507 0.85503 0.0
O594 O 0.26597 0.11781 0.84372 0.0
C595 C 0.21571 0.04655 0.7142 0.0
O596 O 0.20672 0.0585 0.71954 0.0
O597 O 0.24677 0.08966 0.61944 0.0
O598 O 0.24966 0.12179 0.63836 0.0
H599 H 0.30491 0.08752 0.52173 0.0
H600 H 0.20914 0.09309 0.79726 0.0
O601 O 0.24323 0.12855 0.81265 0.0
H602 H 0.17739 0.10734 0.62129 0.0
H603 H 0.22703 0.18255 0.75565 0.0
H604 H 0.27487 0.16256 0.6515 0.0
H605 H 0.2168 0.12559 0.63389 0.0
H606 H 0.2234 0.14685 0.77102 0.0
O607 O 0.23579 0.05525 0.70281 0.0
H608 H 0.28505 0.10039 0.58243 0.0
H609 H 0.26844 0.04966 0.70555 0.0
H610 H 0.27897 0.19832 0.63428 0.0
H611 H 0.16963 0.07475 0.7869 0.0
H612 H 0.25494 0.20856 0.68669 0.0
H613 H 0.15352 0.08178 0.69827 0.0
O614 O 0.27816 0.13916 0.73391 0.0
H615 H 0.25887 0.06372 0.90581 0.0
H616 H 0.30471 0.0999 0.73241 0.0
H617 H 0.32144 0.09743 0.82532 0.0
H618 H 0.29846 0.07918 0.91283 0.0
H619 H 0.24283 0.06685 0.81237 0.0
H620 H 0.28792 0.03609 0.64581 0.0
H621 H 0.30641 0.05512 0.55324 0.0
O622 O 0.28463 0.11609 0.68378 0.0
C623 C 0.24793 0.10723 0.60247 0.0
C624 C 0.29689 0.07907 0.56192 0.0
C625 C 0.28735 0.0502 0.63152 0.0
N626 N 0.27546 0.07572 0.64735 0.0
C627 C 0.2856 0.08627 0.5965 0.0
C628 C 0.27624 0.05789 0.66502 0.0
C629 C 0.29773 0.06089 0.57962 0.0
C630 C 0.20224 0.0964 0.75888 0.0
N631 N 0.21526 0.1104 0.71628 0.0
C632 C 0.17986 0.08589 0.75311 0.0
C633 C 0.17083 0.08981 0.70332 0.0
C634 C 0.18422 0.10413 0.66007 0.0
C635 C 0.20653 0.11433 0.66731 0.0
C636 C 0.23754 0.17825 0.73236 0.0
C637 C 0.2642 0.16676 0.67384 0.0
C638 C 0.23558 0.15806 0.74093 0.0
N639 N 0.24878 0.1525 0.71163 0.0
C640 C 0.26666 0.1871 0.66418 0.0
C641 C 0.2532 0.19284 0.69367 0.0
C642 C 0.29085 0.13469 0.70562 0.0
C643 C 0.26904 0.07161 0.86789 0.0
C644 C 0.29459 0.092 0.77031 0.0
C645 C 0.30416 0.09059 0.82278 0.0
C646 C 0.29126 0.08033 0.87184 0.0
N647 N 0.27276 0.08337 0.7667 0.0
C648 C 0.26002 0.0733 0.81468 0.0
Co649 Co 0.87978 0.12319 0.72537 0.0
Co650 Co 0.91722 0.17568 0.69472 0.0
O651 O 0.9074 0.14937 0.74156 0.0
C652 C 0.87873 0.12925 0.85446 0.0
O653 O 0.8853 0.14953 0.84271 0.0
C654 C 0.95754 0.17271 0.71548 0.0
O655 O 0.9461 0.15165 0.71844 0.0
O656 O 0.91465 0.15937 0.62035 0.0
O657 O 0.8829 0.12948 0.6381 0.0
H658 H 0.91496 0.21856 0.52138 0.0
H659 H 0.91188 0.11905 0.79858 0.0
O660 O 0.87568 0.11622 0.81238 0.0
H661 H 0.89999 0.07342 0.6231 0.0
H662 H 0.82369 0.04528 0.75454 0.0
H663 H 0.84187 0.11248 0.64942 0.0
H664 H 0.88045 0.09336 0.6344 0.0
H665 H 0.8587 0.07816 0.77097 0.0
O666 O 0.94835 0.18368 0.705 0.0
H667 H 0.90285 0.18595 0.58208 0.0
H668 H 0.95248 0.22136 0.70718 0.0
H669 H 0.80679 0.07999 0.63113 0.0
H670 H 0.93152 0.09913 0.78952 0.0
H671 H 0.79747 0.04603 0.684 0.0
H672 H 0.92569 0.07617 0.70115 0.0
O673 O 0.86414 0.13956 0.73243 0.0
H674 H 0.93823 0.19762 0.90696 0.0
H675 H 0.90166 0.20556 0.73179 0.0
H676 H 0.90299 0.22445 0.82437 0.0
H677 H 0.92143 0.22059 0.91278 0.0
H678 H 0.93625 0.17876 0.81379 0.0
H679 H 0.96529 0.25432 0.64745 0.0
H680 H 0.94642 0.25308 0.5539 0.0
O681 O 0.88695 0.16943 0.68308 0.0
C682 C 0.89745 0.14267 0.60273 0.0
C683 C 0.92334 0.21931 0.562 0.0
C684 C 0.95159 0.23937 0.63272 0.0
N685 N 0.92703 0.20168 0.64799 0.0
C686 C 0.91656 0.20088 0.59658 0.0
C687 C 0.94434 0.22062 0.6662 0.0
C688 C 0.94099 0.23867 0.58026 0.0
C689 C 0.90909 0.10892 0.76031 0.0
N690 N 0.89502 0.10735 0.71713 0.0
C691 C 0.92033 0.09775 0.75528 0.0
C692 C 0.91708 0.08491 0.70563 0.0
C693 C 0.90269 0.08338 0.66179 0.0
C694 C 0.89174 0.09479 0.6683 0.0
C695 C 0.82759 0.05995 0.73104 0.0
C696 C 0.83808 0.09776 0.67198 0.0
C697 C 0.84739 0.07863 0.7402 0.0
N698 N 0.85245 0.09721 0.71061 0.0
C699 C 0.81812 0.0794 0.66171 0.0
C700 C 0.81289 0.06038 0.69146 0.0
C701 C 0.8683 0.15659 0.70394 0.0
C702 C 0.93025 0.19952 0.86865 0.0
C703 C 0.90965 0.20371 0.77009 0.0
C704 C 0.91041 0.21451 0.82236 0.0
C705 C 0.92077 0.21236 0.87193 0.0
N706 N 0.91901 0.19117 0.76715 0.0
C707 C 0.92919 0.18898 0.81561 0.0
Co708 Co 0.9115 0.45543 0.56124 0.0
Co709 Co 0.92533 0.507 0.52333 0.0
O710 O 0.91028 0.48176 0.57502 0.0
C711 C 0.92194 0.46367 0.68862 0.0
O712 O 0.93513 0.4839 0.67484 0.0
C713 C 0.88165 0.50281 0.54287 0.0
O714 O 0.87218 0.48187 0.53574 0.0
O715 O 0.91024 0.48906 0.45213 0.0
O716 O 0.91211 0.45954 0.47359 0.0
H717 H 0.96691 0.54703 0.34219 0.0
H718 H 0.87743 0.45377 0.63879 0.0
O719 O 0.91092 0.45021 0.64852 0.0
H720 H 0.83881 0.40278 0.4765 0.0
H721 H 0.89131 0.37838 0.59929 0.0
H722 H 0.93769 0.44391 0.48383 0.0
H723 H 0.87848 0.42258 0.47996 0.0
H724 H 0.88876 0.41115 0.61267 0.0
O725 O 0.902 0.51436 0.53668 0.0
H726 H 0.9484 0.51566 0.40843 0.0
H727 H 0.93365 0.55214 0.52823 0.0
H728 H 0.94077 0.41152 0.46905 0.0
H729 H 0.83771 0.43414 0.63751 0.0
H730 H 0.91743 0.37841 0.52693 0.0
H731 H 0.81814 0.40849 0.55579 0.0
O732 O 0.94359 0.47227 0.5622 0.0
H733 H 0.93058 0.53304 0.73295 0.0
H734 H 0.9713 0.53855 0.55136 0.0
H735 H 0.9907 0.5595 0.63972 0.0
H736 H 0.97031 0.55687 0.73134 0.0
H737 H 0.91184 0.51211 0.64386 0.0
H738 H 0.95187 0.58388 0.46304 0.0
H739 H 0.96874 0.58147 0.36934 0.0
O740 O 0.94953 0.50116 0.50951 0.0
C741 C 0.9098 0.47167 0.43656 0.0
C742 C 0.95963 0.54829 0.3829 0.0
C743 C 0.95116 0.56896 0.45069 0.0
N744 N 0.93991 0.53202 0.47217 0.0
C745 C 0.94912 0.53057 0.42064 0.0
C746 C 0.94078 0.5509 0.48732 0.0
C747 C 0.96064 0.5676 0.39814 0.0
C748 C 0.86901 0.44248 0.60341 0.0
N749 N 0.88027 0.4393 0.55953 0.0
C750 C 0.84653 0.43147 0.60278 0.0
C751 C 0.83556 0.41711 0.55686 0.0
C752 C 0.84715 0.41393 0.51232 0.0
C753 C 0.86962 0.42525 0.51435 0.0
C754 C 0.9015 0.39267 0.57361 0.0
C755 C 0.92743 0.42957 0.50907 0.0
C756 C 0.90013 0.41128 0.58097 0.0
N757 N 0.91291 0.42939 0.54861 0.0
C758 C 0.92926 0.41127 0.50055 0.0
C759 C 0.91617 0.39271 0.53305 0.0
C760 C 0.9559 0.48893 0.53152 0.0
C761 C 0.93963 0.53439 0.69322 0.0
C762 C 0.9623 0.53723 0.59108 0.0
C763 C 0.97338 0.5492 0.64095 0.0
C764 C 0.96193 0.54772 0.69233 0.0
N765 N 0.94042 0.52416 0.59229 0.0
C766 C 0.92909 0.52266 0.64251 0.0
Co767 Co 0.54755 0.45647 0.55921 0.0
Co768 Co 0.4953 0.41877 0.5277 0.0
O769 O 0.5215 0.42878 0.57514 0.0
C770 C 0.54141 0.45682 0.68846 0.0
O771 O 0.52104 0.4499 0.67708 0.0
C772 C 0.49946 0.37913 0.54299 0.0
O773 O 0.52035 0.39062 0.53493 0.0
O774 O 0.51184 0.42152 0.45376 0.0
O775 O 0.54138 0.45346 0.47194 0.0
H776 H 0.4523 0.42082 0.35438 0.0
H777 H 0.55129 0.4239 0.63105 0.0
O778 O 0.55455 0.46052 0.64624 0.0
H779 H 0.59778 0.43687 0.4569 0.0
H780 H 0.62529 0.51311 0.58852 0.0
H781 H 0.55793 0.49425 0.48323 0.0
H782 H 0.57798 0.45653 0.46893 0.0
H783 H 0.59257 0.47799 0.60525 0.0
O784 O 0.4879 0.38798 0.53891 0.0
H785 H 0.48484 0.43331 0.41572 0.0
H786 H 0.45007 0.38233 0.53773 0.0
H787 H 0.59023 0.52945 0.4648 0.0
H788 H 0.57097 0.40404 0.6211 0.0
H789 H 0.62427 0.53911 0.51772 0.0
H790 H 0.59437 0.41043 0.53342 0.0
O791 O 0.53083 0.4717 0.56649 0.0
H792 H 0.47218 0.39676 0.73876 0.0
H793 H 0.46482 0.43371 0.56361 0.0
H794 H 0.44518 0.43169 0.65526 0.0
H795 H 0.44873 0.41304 0.74363 0.0
H796 H 0.49192 0.39957 0.64664 0.0
H797 H 0.41719 0.36918 0.47738 0.0
H798 H 0.41815 0.38852 0.38508 0.0
O799 O 0.50119 0.44896 0.51595 0.0
C800 C 0.52843 0.43884 0.4364 0.0
C801 C 0.45167 0.41226 0.39452 0.0
C802 C 0.43198 0.38326 0.46351 0.0
N803 N 0.46939 0.40858 0.48033 0.0
C804 C 0.47005 0.41926 0.4295 0.0
C805 C 0.45068 0.39074 0.49739 0.0
C806 C 0.43252 0.39413 0.41175 0.0
C807 C 0.56163 0.42694 0.59312 0.0
N808 N 0.56357 0.44143 0.55079 0.0
C809 C 0.57265 0.41558 0.58758 0.0
C810 C 0.58575 0.41914 0.53831 0.0
C811 C 0.58765 0.43395 0.49533 0.0
C812 C 0.57635 0.44499 0.50229 0.0
C813 C 0.61058 0.50906 0.56502 0.0
C814 C 0.57269 0.4982 0.50587 0.0
C815 C 0.59199 0.4892 0.57434 0.0
N816 N 0.57338 0.48394 0.54465 0.0
C817 C 0.59093 0.51822 0.4955 0.0
C818 C 0.61 0.52364 0.52528 0.0
C819 C 0.51383 0.46753 0.5377 0.0
C820 C 0.47047 0.40489 0.7005 0.0
C821 C 0.4666 0.42571 0.60197 0.0
C822 C 0.45536 0.42454 0.6537 0.0
C823 C 0.45734 0.41405 0.70324 0.0
N824 N 0.47947 0.41669 0.59961 0.0
C825 C 0.4815 0.40641 0.64806 0.0
Co826 Co 0.54566 0.09093 0.56061 0.0
Co827 Co 0.58564 0.08002 0.52334 0.0
O828 O 0.57388 0.09371 0.57484 0.0
C829 C 0.5428 0.07947 0.68746 0.0
O830 O 0.54898 0.06578 0.67163 0.0
C831 C 0.62385 0.12261 0.564 0.0
O832 O 0.61117 0.12751 0.59364 0.0
O833 O 0.58149 0.09418 0.45237 0.0
O834 O 0.5492 0.09034 0.47278 0.0
H835 H 0.58697 0.0405 0.34083 0.0
H836 H 0.5756 0.12633 0.63993 0.0
O837 O 0.54106 0.0913 0.64838 0.0
H838 H 0.5615 0.16193 0.47298 0.0
H839 H 0.48556 0.10644 0.59898 0.0
H840 H 0.50886 0.06377 0.48142 0.0
H841 H 0.54429 0.12238 0.47673 0.0
H842 H 0.52167 0.11092 0.61347 0.0
O843 O 0.61606 0.1052 0.53381 0.0
H844 H 0.57199 0.05653 0.40892 0.0
H845 H 0.62486 0.07553 0.52606 0.0
H846 H 0.47267 0.05884 0.46539 0.0
H847 H 0.59297 0.16593 0.63829 0.0
H848 H 0.4608 0.08028 0.52441 0.0
H849 H 0.586 0.18399 0.55425 0.0
O850 O 0.53207 0.05912 0.56163 0.0
H851 H 0.60488 0.07459 0.73548 0.0
H852 H 0.5758 0.0353 0.54804 0.0
H853 H 0.57861 0.01606 0.63487 0.0
H854 H 0.59331 0.03572 0.72948 0.0
H855 H 0.60154 0.0931 0.64809 0.0
H856 H 0.64049 0.05982 0.45898 0.0
H857 H 0.62149 0.0421 0.36567 0.0
O858 O 0.55611 0.05425 0.5107 0.0
C859 C 0.564 0.09333 0.43616 0.0
C860 C 0.59537 0.04811 0.38146 0.0
C861 C 0.62543 0.05899 0.44771 0.0
N862 N 0.59746 0.06687 0.4716 0.0
C863 C 0.58693 0.05717 0.42029 0.0
C864 C 0.61652 0.06791 0.48546 0.0
C865 C 0.61475 0.04904 0.39538 0.0
C866 C 0.57243 0.13406 0.60332 0.0
N867 N 0.55907 0.12205 0.55832 0.0
C868 C 0.58234 0.15649 0.60258 0.0
C869 C 0.57844 0.16662 0.55539 0.0
C870 C 0.56472 0.15425 0.50974 0.0
C871 C 0.55512 0.13186 0.51195 0.0
C872 C 0.49058 0.09707 0.57284 0.0
C873 C 0.5039 0.0733 0.50694 0.0
C874 C 0.511 0.09953 0.58084 0.0
N875 N 0.51748 0.08781 0.5478 0.0
C876 C 0.48335 0.07037 0.49781 0.0
C877 C 0.47669 0.08238 0.53099 0.0
C878 C 0.53728 0.04721 0.53231 0.0
C879 C 0.59868 0.0659 0.69431 0.0
C880 C 0.58238 0.04408 0.58883 0.0
C881 C 0.58389 0.03305 0.63794 0.0
C882 C 0.59213 0.04408 0.69099 0.0
N883 N 0.58905 0.06556 0.59212 0.0
C884 C 0.59695 0.0764 0.64425 0.0
Co885 Co 0.79231 0.58196 0.6108 0.0
Co886 Co 0.84343 0.59308 0.64415 0.0
O887 O 0.81756 0.57899 0.59437 0.0
C888 C 0.79944 0.59098 0.48245 0.0
O889 O 0.81992 0.60356 0.4948 0.0
C890 C 0.83733 0.54866 0.62142 0.0
O891 O 0.81635 0.53979 0.62619 0.0
O892 O 0.8258 0.57859 0.71621 0.0
O893 O 0.79746 0.58284 0.69793 0.0
H894 H 0.88553 0.63159 0.82624 0.0
H895 H 0.78725 0.54636 0.53328 0.0
O896 O 0.78611 0.58105 0.52386 0.0
H897 H 0.73824 0.51111 0.70184 0.0
H898 H 0.71601 0.56561 0.58046 0.0
H899 H 0.78348 0.6094 0.69121 0.0
H900 H 0.75997 0.5507 0.6962 0.0
H901 H 0.74758 0.56131 0.56274 0.0
O902 O 0.84938 0.56884 0.62965 0.0
H903 H 0.85368 0.61491 0.76123 0.0
H904 H 0.88808 0.60018 0.63409 0.0
H905 H 0.75226 0.61409 0.71071 0.0
H906 H 0.76565 0.50672 0.53684 0.0
H907 H 0.7182 0.5921 0.65509 0.0
H908 H 0.74097 0.48884 0.62169 0.0
O909 O 0.81053 0.61401 0.60849 0.0
H910 H 0.86681 0.59657 0.43239 0.0
H911 H 0.87655 0.63845 0.61455 0.0
H912 H 0.89714 0.65697 0.52492 0.0
H913 H 0.89238 0.63599 0.43297 0.0
H914 H 0.8463 0.57876 0.52281 0.0
H915 H 0.92033 0.61671 0.69778 0.0
H916 H 0.91922 0.63263 0.79459 0.0
O917 O 0.83919 0.61829 0.65942 0.0
C918 C 0.80938 0.57965 0.73363 0.0
C919 C 0.88625 0.62475 0.78413 0.0
C920 C 0.90576 0.61639 0.71204 0.0
N921 N 0.869 0.60664 0.69373 0.0
C922 C 0.86824 0.61526 0.74708 0.0
C923 C 0.88742 0.607 0.6762 0.0
C924 C 0.90513 0.62532 0.76635 0.0
C925 C 0.77638 0.5387 0.57002 0.0
N926 N 0.7748 0.55083 0.61432 0.0
C927 C 0.76426 0.51625 0.57193 0.0
C928 C 0.75045 0.50623 0.61961 0.0
C929 C 0.74893 0.51871 0.66463 0.0
C930 C 0.76132 0.54112 0.66128 0.0
C931 C 0.73074 0.57525 0.60509 0.0
C932 C 0.76869 0.59968 0.66707 0.0
C933 C 0.74869 0.57292 0.59516 0.0
N934 N 0.76733 0.58499 0.62618 0.0
C935 C 0.75107 0.60244 0.67821 0.0
C936 C 0.73198 0.59012 0.64696 0.0
C937 C 0.82759 0.62564 0.63864 0.0
C938 C 0.86909 0.60588 0.47223 0.0
C939 C 0.87427 0.62922 0.5747 0.0
C940 C 0.88605 0.63979 0.5241 0.0
C941 C 0.8834 0.628 0.47255 0.0
N942 N 0.86025 0.60752 0.57409 0.0
C943 C 0.85759 0.59586 0.5237 0.0
Co944 Co 0.42186 0.21109 0.60675 0.0
Co945 Co 0.41017 0.2503 0.6446 0.0
O946 O 0.42378 0.23885 0.59213 0.0
C947 C 0.40895 0.20698 0.48035 0.0
O948 O 0.39473 0.21239 0.49662 0.0
C949 C 0.45411 0.28888 0.62049 0.0
O950 O 0.46327 0.27712 0.62759 0.0
O951 O 0.42593 0.24764 0.71459 0.0
O952 O 0.42267 0.21553 0.69459 0.0
H953 H 0.37348 0.25345 0.83113 0.0
H954 H 0.45533 0.24235 0.52536 0.0
O955 O 0.42124 0.20586 0.51907 0.0
H956 H 0.49516 0.22982 0.68381 0.0
H957 H 0.43957 0.15251 0.56814 0.0
H958 H 0.39633 0.17447 0.68808 0.0
H959 H 0.45548 0.21087 0.68456 0.0
H960 H 0.44252 0.18792 0.55266 0.0
O961 O 0.43387 0.28052 0.62792 0.0
H962 H 0.38985 0.23865 0.76361 0.0
H963 H 0.40251 0.28752 0.63744 0.0
H964 H 0.39289 0.13894 0.70502 0.0
H965 H 0.49502 0.26148 0.52244 0.0
H966 H 0.41467 0.12777 0.64494 0.0
H967 H 0.51521 0.25532 0.60221 0.0
O968 O 0.38971 0.1965 0.60982 0.0
H969 H 0.4028 0.26813 0.43347 0.0
H970 H 0.36423 0.23741 0.62091 0.0
H971 H 0.344 0.2381 0.53347 0.0
H972 H 0.3633 0.25356 0.43882 0.0
H973 H 0.42235 0.26684 0.52185 0.0
H974 H 0.38632 0.30289 0.70365 0.0
H975 H 0.37158 0.28578 0.80123 0.0
O976 O 0.38557 0.22075 0.66191 0.0
C977 C 0.426 0.23056 0.73086 0.0
C978 C 0.37983 0.26105 0.78872 0.0
C979 C 0.38703 0.28879 0.71718 0.0
N980 N 0.39706 0.26213 0.6965 0.0
C981 C 0.38914 0.25274 0.75029 0.0
C982 C 0.39623 0.28003 0.67991 0.0
C983 C 0.37877 0.27918 0.77191 0.0
C984 C 0.46399 0.23942 0.55992 0.0
N985 N 0.45308 0.22547 0.60506 0.0
C986 C 0.48647 0.25037 0.55816 0.0
C987 C 0.49779 0.24694 0.60298 0.0
C988 C 0.48655 0.23265 0.64882 0.0
C989 C 0.46407 0.22203 0.64917 0.0
C990 C 0.43007 0.15723 0.59478 0.0
C991 C 0.40591 0.16977 0.66183 0.0
C992 C 0.43167 0.17727 0.58624 0.0
N993 N 0.41983 0.1834 0.62001 0.0
C994 C 0.40386 0.1496 0.67158 0.0
C995 C 0.41608 0.14335 0.63785 0.0
C996 C 0.37827 0.20177 0.64152 0.0
C997 C 0.39421 0.2614 0.4745 0.0
C998 C 0.37274 0.24409 0.57995 0.0
C999 C 0.36121 0.24451 0.53057 0.0
C1000 C 0.37205 0.2532 0.4775 0.0
N1001 N 0.39448 0.25211 0.57667 0.0
C1002 C 0.40522 0.26072 0.5248 0.0
Co1003 Co 0.79526 0.21362 0.60954 0.0
Co1004 Co 0.75361 0.16379 0.64823 0.0
O1005 O 0.76633 0.18905 0.59581 0.0
C1006 C 0.79579 0.20508 0.48151 0.0
O1007 O 0.78693 0.18454 0.4943 0.0
C1008 C 0.71637 0.16951 0.60598 0.0
O1009 O 0.72945 0.18683 0.57594 0.0
O1010 O 0.75867 0.18279 0.71852 0.0
O1011 O 0.79177 0.20964 0.69709 0.0
H1012 H 0.75063 0.12287 0.83226 0.0
H1013 H 0.76591 0.22034 0.53142 0.0
O1014 O 0.8 0.21876 0.52242 0.0
H1015 H 0.78301 0.27133 0.69677 0.0
H1016 H 0.85738 0.28834 0.57257 0.0
H1017 H 0.83217 0.22112 0.68562 0.0
H1018 H 0.79878 0.24774 0.69266 0.0
H1019 H 0.82049 0.25793 0.55911 0.0
O1020 O 0.72362 0.15966 0.63722 0.0
H1021 H 0.76633 0.1538 0.76389 0.0
H1022 H 0.71345 0.12073 0.6463 0.0
H1023 H 0.86918 0.25111 0.70045 0.0
H1024 H 0.74996 0.24383 0.53329 0.0
H1025 H 0.882 0.28507 0.64381 0.0
H1026 H 0.75843 0.26951 0.61655 0.0
O1027 O 0.80739 0.19401 0.60781 0.0
H1028 H 0.73313 0.13833 0.43712 0.0
H1029 H 0.76099 0.1271 0.62529 0.0
H1030 H 0.7565 0.1039 0.53979 0.0
H1031 H 0.74229 0.1093 0.44486 0.0
H1032 H 0.73841 0.16144 0.52306 0.0
H1033 H 0.69709 0.08948 0.71368 0.0
H1034 H 0.71577 0.09038 0.80729 0.0
O1035 O 0.78261 0.16637 0.66128 0.0
C1036 C 0.7767 0.19892 0.73404 0.0
C1037 C 0.74236 0.12226 0.79154 0.0
C1038 C 0.71231 0.10353 0.72501 0.0
N1039 N 0.74092 0.13905 0.70092 0.0
C1040 C 0.75118 0.13972 0.75258 0.0
C1041 C 0.72162 0.12131 0.68712 0.0
C1042 C 0.72279 0.10404 0.77752 0.0
C1043 C 0.76973 0.23151 0.56771 0.0
N1044 N 0.78313 0.2325 0.61216 0.0
C1045 C 0.76062 0.24475 0.56857 0.0
C1046 C 0.76536 0.25914 0.61531 0.0
C1047 C 0.77912 0.26014 0.66038 0.0
C1048 C 0.7879 0.24663 0.65805 0.0
C1049 C 0.85196 0.27366 0.5977 0.0
C1050 C 0.8376 0.23583 0.66081 0.0
C1051 C 0.83107 0.25638 0.59028 0.0
N1052 N 0.82408 0.23781 0.62196 0.0
C1053 C 0.85859 0.25277 0.6694 0.0
C1054 C 0.86577 0.27181 0.63762 0.0
C1055 C 0.80147 0.1771 0.63903 0.0
C1056 C 0.73907 0.13562 0.47846 0.0
C1057 C 0.75477 0.12959 0.58432 0.0
C1058 C 0.75225 0.11636 0.53597 0.0
C1059 C 0.74428 0.11939 0.48275 0.0
N1060 N 0.74935 0.14532 0.58016 0.0
C1061 C 0.74182 0.14853 0.52776 0.0
Co1062 Co 0.42175 0.21215 0.10921 0.0
Co1063 Co 0.40637 0.15971 0.13962 0.0
O1064 O 0.42275 0.18585 0.0923 0.0
C1065 C 0.4147 0.20633 0.98015 0.0
O1066 O 0.40055 0.18617 0.99183 0.0
C1067 C 0.44962 0.16253 0.12325 0.0
O1068 O 0.4598 0.18297 0.13809 0.0
O1069 O 0.42087 0.17608 0.21342 0.0
O1070 O 0.41864 0.20576 0.19639 0.0
H1071 H 0.36184 0.11708 0.3141 0.0
H1072 H 0.4576 0.21504 0.03692 0.0
O1073 O 0.42471 0.21933 0.02223 0.0
H1074 H 0.4921 0.26143 0.21069 0.0
H1075 H 0.44424 0.29028 0.08146 0.0
H1076 H 0.39508 0.22311 0.1865 0.0
H1077 H 0.4526 0.24222 0.19924 0.0
H1078 H 0.44586 0.2572 0.06369 0.0
O1079 O 0.42913 0.15162 0.12538 0.0
H1080 H 0.38198 0.14954 0.25266 0.0
H1081 H 0.39672 0.1142 0.12872 0.0
H1082 H 0.39297 0.25578 0.20598 0.0
H1083 H 0.49718 0.23413 0.04629 0.0
H1084 H 0.41769 0.28973 0.15318 0.0
H1085 H 0.51467 0.25749 0.13375 0.0
O1086 O 0.38973 0.1959 0.10252 0.0
H1087 H 0.40283 0.13674 0.92727 0.0
H1088 H 0.36053 0.12956 0.10677 0.0
H1089 H 0.34186 0.10989 0.01609 0.0
H1090 H 0.36306 0.11331 0.92557 0.0
H1091 H 0.42081 0.15668 0.01834 0.0
H1092 H 0.37689 0.08139 0.18914 0.0
H1093 H 0.35919 0.08266 0.28248 0.0
O1094 O 0.38267 0.16628 0.15338 0.0
C1095 C 0.42021 0.19264 0.23151 0.0
C1096 C 0.36947 0.11631 0.27351 0.0
C1097 C 0.37794 0.09629 0.20342 0.0
N1098 N 0.39054 0.13382 0.18705 0.0
C1099 C 0.3809 0.13465 0.23846 0.0
C1100 C 0.38924 0.11496 0.16949 0.0
C1101 C 0.368 0.09701 0.25576 0.0
C1102 C 0.46512 0.22534 0.0748 0.0
N1103 N 0.45284 0.22764 0.11727 0.0
C1104 C 0.48753 0.23604 0.08 0.0
C1105 C 0.49732 0.24911 0.12913 0.0
C1106 C 0.48467 0.25132 0.17234 0.0
C1107 C 0.46231 0.24036 0.1657 0.0
C1108 C 0.43343 0.27562 0.10489 0.0
C1109 C 0.40602 0.23782 0.1639 0.0
C1110 C 0.43426 0.25682 0.09499 0.0
N1111 N 0.42072 0.23825 0.12461 0.0
C1112 C 0.40469 0.25628 0.17486 0.0
C1113 C 0.41854 0.2753 0.14516 0.0
C1114 C 0.37686 0.17901 0.13165 0.0
C1115 C 0.39343 0.13511 0.96643 0.0
C1116 C 0.36987 0.1313 0.06745 0.0
C1117 C 0.35921 0.12005 0.01627 0.0
C1118 C 0.37111 0.12197 0.96551 0.0
N1119 N 0.39179 0.14411 0.06811 0.0
C1120 C 0.40353 0.14624 0.01829 0.0
Co1121 Co 0.79367 0.21309 0.11023 0.0
Co1122 Co 0.84577 0.25056 0.14434 0.0
O1123 O 0.82003 0.24054 0.09489 0.0
C1124 C 0.80121 0.21186 0.98284 0.0
O1125 O 0.82128 0.21813 0.99669 0.0
C1126 C 0.84134 0.28991 0.12791 0.0
O1127 O 0.82056 0.27832 0.13766 0.0
O1128 O 0.8286 0.24788 0.2168 0.0
O1129 O 0.79877 0.2165 0.19744 0.0
H1130 H 0.88708 0.24901 0.32243 0.0
H1131 H 0.79127 0.2457 0.03505 0.0
O1132 O 0.78764 0.20874 0.02323 0.0
H1133 H 0.74266 0.2336 0.20348 0.0
H1134 H 0.71618 0.1565 0.07672 0.0
H1135 H 0.78239 0.17581 0.1891 0.0
H1136 H 0.7622 0.21354 0.19599 0.0
H1137 H 0.74914 0.19148 0.06055 0.0
O1138 O 0.8531 0.28128 0.13186 0.0
H1139 H 0.85527 0.23608 0.25783 0.0
H1140 H 0.89094 0.28728 0.13718 0.0
H1141 H 0.74979 0.14073 0.20683 0.0
H1142 H 0.77189 0.26598 0.04052 0.0
H1143 H 0.71636 0.13086 0.15043 0.0
H1144 H 0.74743 0.26002 0.12531 0.0
O1145 O 0.81019 0.19759 0.10654 0.0
H1146 H 0.87141 0.27295 0.93505 0.0
H1147 H 0.87659 0.23564 0.11242 0.0
H1148 H 0.89733 0.23783 0.02296 0.0
H1149 H 0.89488 0.25667 0.9335 0.0
H1150 H 0.85037 0.26977 0.02475 0.0
H1151 H 0.92313 0.30082 0.20065 0.0
H1152 H 0.92134 0.28162 0.29398 0.0
O1153 O 0.83981 0.22037 0.15712 0.0
C1154 C 0.81145 0.23097 0.23359 0.0
C1155 C 0.88808 0.2575 0.28182 0.0
C1156 C 0.9083 0.2866 0.21352 0.0
N1157 N 0.87123 0.26088 0.19369 0.0
C1158 C 0.87012 0.25024 0.24498 0.0
C1159 C 0.88999 0.27889 0.17784 0.0
C1160 C 0.90729 0.27581 0.26586 0.0
C1161 C 0.78047 0.24285 0.07174 0.0
N1162 N 0.77779 0.22838 0.11498 0.0
C1163 C 0.76962 0.25445 0.07474 0.0
C1164 C 0.75593 0.25113 0.12239 0.0
C1165 C 0.75326 0.23632 0.16629 0.0
C1166 C 0.76441 0.22505 0.16189 0.0
C1167 C 0.73063 0.16064 0.10171 0.0
C1168 C 0.76787 0.17173 0.16469 0.0
C1169 C 0.74934 0.18042 0.09272 0.0
N1170 N 0.76762 0.18579 0.1243 0.0
C1171 C 0.74947 0.15179 0.17479 0.0
C1172 C 0.73074 0.14626 0.14307 0.0
C1173 C 0.82714 0.20178 0.1355 0.0
C1174 C 0.87258 0.26467 0.97373 0.0
C1175 C 0.87523 0.24366 0.07349 0.0
C1176 C 0.88711 0.24494 0.02304 0.0
C1177 C 0.88575 0.25554 0.97289 0.0
N1178 N 0.8623 0.25262 0.07396 0.0
C1179 C 0.86082 0.26295 0.02483 0.0
Co1180 Co 0.79331 0.58245 0.11079 0.0
Co1181 Co 0.75352 0.5939 0.14382 0.0
O1182 O 0.76513 0.57959 0.09431 0.0
C1183 C 0.79505 0.59107 0.98222 0.0
O1184 O 0.78724 0.60374 0.99422 0.0
C1185 C 0.71498 0.54953 0.1219 0.0
O1186 O 0.72703 0.54062 0.1271 0.0
O1187 O 0.75658 0.57946 0.2161 0.0
O1188 O 0.78913 0.58357 0.1979 0.0
H1189 H 0.75036 0.63287 0.32536 0.0
H1190 H 0.76252 0.54671 0.03401 0.0
O1191 O 0.79849 0.58127 0.02391 0.0
H1192 H 0.7763 0.51175 0.20322 0.0
H1193 H 0.85299 0.56569 0.08096 0.0
H1194 H 0.82971 0.60996 0.19079 0.0
H1195 H 0.79432 0.55133 0.19681 0.0
H1196 H 0.81717 0.56151 0.06322 0.0
O1197 O 0.72321 0.56975 0.12959 0.0
H1198 H 0.7653 0.61591 0.26061 0.0
H1199 H 0.71613 0.60124 0.13359 0.0
H1200 H 0.86558 0.61454 0.2103 0.0
H1201 H 0.74432 0.50707 0.03834 0.0
H1202 H 0.87745 0.59231 0.15513 0.0
H1203 H 0.75113 0.48934 0.12351 0.0
O1204 O 0.8073 0.61451 0.10781 0.0
H1205 H 0.7336 0.59714 0.93193 0.0
H1206 H 0.76604 0.63928 0.11355 0.0
H1207 H 0.76407 0.65771 0.02361 0.0
H1208 H 0.7477 0.6366 0.93193 0.0
H1209 H 0.73619 0.57942 0.02266 0.0
H1210 H 0.70064 0.61805 0.19703 0.0
H1211 H 0.71781 0.63408 0.29364 0.0
O1212 O 0.78308 0.61903 0.15876 0.0
C1213 C 0.77404 0.58046 0.23356 0.0
C1214 C 0.74274 0.62598 0.28332 0.0
C1215 C 0.71484 0.61766 0.21131 0.0
N1216 N 0.74169 0.60767 0.19317 0.0
C1217 C 0.75113 0.61634 0.24642 0.0
C1218 C 0.72367 0.60812 0.17561 0.0
C1219 C 0.72448 0.62665 0.26551 0.0
C1220 C 0.76574 0.53911 0.07089 0.0
N1221 N 0.77953 0.55132 0.11494 0.0
C1222 C 0.75531 0.51666 0.07324 0.0
C1223 C 0.75911 0.50672 0.1211 0.0
C1224 C 0.77321 0.51929 0.16587 0.0
C1225 C 0.78331 0.54169 0.16209 0.0
C1226 C 0.84799 0.57544 0.10538 0.0
C1227 C 0.83469 0.60013 0.16686 0.0
C1228 C 0.82773 0.57317 0.09544 0.0
N1229 N 0.82128 0.58538 0.12621 0.0
C1230 C 0.85505 0.60283 0.178 0.0
C1231 C 0.8617 0.59038 0.147 0.0
C1232 C 0.802 0.62627 0.13781 0.0
C1233 C 0.7407 0.60651 0.97166 0.0
C1234 C 0.75902 0.63 0.07383 0.0
C1235 C 0.75787 0.64051 0.02304 0.0
C1236 C 0.74866 0.62865 0.97165 0.0
N1237 N 0.7512 0.60827 0.07353 0.0
C1238 C 0.74212 0.59654 0.02329 0.0
Co1239 Co 0.5448 0.09004 0.05826 0.0
Co1240 Co 0.49245 0.07516 0.02622 0.0
O1241 O 0.51862 0.09149 0.07383 0.0
C1242 C 0.53843 0.08263 0.18733 0.0
O1243 O 0.51813 0.069 0.17546 0.0
C1244 C 0.49587 0.11861 0.04644 0.0
O1245 O 0.51693 0.12809 0.04897 0.0
O1246 O 0.50902 0.08896 0.95223 0.0
O1247 O 0.53885 0.08711 0.97096 0.0
H1248 H 0.44993 0.03042 0.85185 0.0
H1249 H 0.54885 0.12615 0.13189 0.0
O1250 O 0.55149 0.09268 0.14537 0.0
H1251 H 0.59512 0.16024 0.9577 0.0
H1252 H 0.62255 0.11154 0.08916 0.0
H1253 H 0.55564 0.06303 0.98201 0.0
H1254 H 0.57501 0.12073 0.96819 0.0
H1255 H 0.58971 0.11376 0.10497 0.0
O1256 O 0.4847 0.09843 0.03635 0.0
H1257 H 0.48237 0.05061 0.91347 0.0
H1258 H 0.44687 0.06512 0.03738 0.0
H1259 H 0.5881 0.06036 0.96431 0.0
H1260 H 0.56896 0.16575 0.12365 0.0
H1261 H 0.62191 0.08473 0.01823 0.0
H1262 H 0.59223 0.18304 0.03593 0.0
O1263 O 0.52826 0.05804 0.06475 0.0
H1264 H 0.46997 0.07407 0.23795 0.0
H1265 H 0.46218 0.02971 0.06255 0.0
H1266 H 0.44299 0.01209 0.15471 0.0
H1267 H 0.44677 0.03431 0.24323 0.0
H1268 H 0.48915 0.09101 0.14519 0.0
H1269 H 0.41408 0.0453 0.97673 0.0
H1270 H 0.41546 0.02769 0.8833 0.0
O1271 O 0.49852 0.05099 0.01472 0.0
C1272 C 0.52584 0.08858 0.93521 0.0
C1273 C 0.44913 0.03804 0.89241 0.0
C1274 C 0.42901 0.04641 0.96246 0.0
N1275 N 0.46658 0.05917 0.97884 0.0
C1276 C 0.46746 0.04952 0.92751 0.0
C1277 C 0.44766 0.05772 0.99648 0.0
C1278 C 0.42979 0.03652 0.91008 0.0
C1279 C 0.55913 0.13357 0.09391 0.0
N1280 N 0.56077 0.12115 0.05064 0.0
C1281 C 0.57039 0.15599 0.08934 0.0
C1282 C 0.58341 0.16568 0.04006 0.0
C1283 C 0.58502 0.1529 0.99611 0.0
C1284 C 0.57351 0.13053 0.00215 0.0
C1285 C 0.60795 0.10087 0.06525 0.0
C1286 C 0.5703 0.07383 0.00507 0.0
C1287 C 0.58928 0.10203 0.07408 0.0
N1288 N 0.57077 0.08864 0.04401 0.0
C1289 C 0.58864 0.07219 0.99511 0.0
C1290 C 0.60758 0.08583 0.02545 0.0
C1291 C 0.51128 0.04517 0.03603 0.0
C1292 C 0.46811 0.06422 0.19959 0.0
C1293 C 0.464 0.03951 0.1009 0.0
C1294 C 0.45302 0.02943 0.15293 0.0
C1295 C 0.45513 0.04191 0.20257 0.0
N1296 N 0.47669 0.06142 0.09826 0.0
C1297 C 0.47883 0.07374 0.14678 0.0
Co1298 Co 0.91452 0.45722 0.06073 0.0
Co1299 Co 0.92851 0.41932 0.02667 0.0
O1300 O 0.91296 0.42956 0.0763 0.0
C1301 C 0.92258 0.45832 0.18903 0.0
O1302 O 0.93588 0.45129 0.17677 0.0
C1303 C 0.88494 0.37979 0.04729 0.0
O1304 O 0.87547 0.39133 0.04215 0.0
O1305 O 0.91382 0.42189 0.95441 0.0
O1306 O 0.91625 0.45368 0.97352 0.0
H1307 H 0.97043 0.42015 0.84715 0.0
H1308 H 0.87907 0.4251 0.13574 0.0
O1309 O 0.91271 0.46178 0.14764 0.0
H1310 H 0.84345 0.43794 0.96641 0.0
H1311 H 0.89489 0.51479 0.0928 0.0
H1312 H 0.94119 0.49433 0.98202 0.0
H1313 H 0.88306 0.4573 0.97418 0.0
H1314 H 0.89207 0.47949 0.10935 0.0
O1315 O 0.90521 0.38857 0.03962 0.0
H1316 H 0.95182 0.43328 0.91205 0.0
H1317 H 0.93735 0.38287 0.0346 0.0
H1318 H 0.94447 0.52973 0.96394 0.0
H1319 H 0.8394 0.40553 0.13002 0.0
H1320 H 0.9212 0.54017 0.01955 0.0
H1321 H 0.82134 0.41187 0.04478 0.0
O1322 O 0.94651 0.47226 0.0651 0.0
H1323 H 0.93232 0.39832 0.23713 0.0
H1324 H 0.97432 0.43404 0.05765 0.0
H1325 H 0.9931 0.43236 0.14726 0.0
H1326 H 0.97206 0.41434 0.23781 0.0
H1327 H 0.91422 0.40077 0.14699 0.0
H1328 H 0.95573 0.36913 0.97084 0.0
H1329 H 0.97248 0.38784 0.8764 0.0
O1330 O 0.9528 0.44942 0.01309 0.0
C1331 C 0.91396 0.43898 0.93747 0.0
C1332 C 0.96322 0.41187 0.88823 0.0
C1333 C 0.95494 0.38322 0.9576 0.0
N1334 N 0.9435 0.40888 0.97714 0.0
C1335 C 0.95267 0.41925 0.92523 0.0
C1336 C 0.94449 0.39104 0.99344 0.0
C1337 C 0.96435 0.39373 0.90464 0.0
C1338 C 0.87131 0.4281 0.09884 0.0
N1339 N 0.88335 0.44238 0.05549 0.0
C1340 C 0.84885 0.41691 0.0957 0.0
C1341 C 0.83873 0.42044 0.0478 0.0
C1342 C 0.85113 0.43505 0.00378 0.0
C1343 C 0.87356 0.44591 0.00833 0.0
C1344 C 0.90507 0.5104 0.06816 0.0
C1345 C 0.93088 0.49866 0.00606 0.0
C1346 C 0.90356 0.49043 0.07736 0.0
N1347 N 0.9163 0.48474 0.04623 0.0
C1348 C 0.93287 0.51877 0.99577 0.0
C1349 C 0.91983 0.52463 0.02704 0.0
C1350 C 0.95904 0.46798 0.03533 0.0
C1351 C 0.94166 0.40618 0.19791 0.0
C1352 C 0.96505 0.4263 0.09696 0.0
C1353 C 0.97577 0.42532 0.14752 0.0
C1354 C 0.96396 0.41519 0.19829 0.0
N1355 N 0.94316 0.41743 0.09691 0.0
C1356 C 0.93148 0.4075 0.14658 0.0
Co1357 Co 0.54814 0.45448 0.06173 0.0
Co1358 Co 0.58469 0.50638 0.02323 0.0
O1359 O 0.57494 0.48148 0.07556 0.0
C1360 C 0.54358 0.4634 0.1872 0.0
O1361 O 0.54794 0.48261 0.16957 0.0
C1362 C 0.62469 0.50338 0.04367 0.0
O1363 O 0.61359 0.48253 0.03435 0.0
O1364 O 0.58287 0.48851 0.95279 0.0
O1365 O 0.55217 0.45807 0.97377 0.0
H1366 H 0.5829 0.54531 0.83995 0.0
H1367 H 0.58089 0.45501 0.14279 0.0
O1368 O 0.5433 0.45007 0.14951 0.0
H1369 H 0.57178 0.40366 0.98464 0.0
H1370 H 0.4934 0.37698 0.10319 0.0
H1371 H 0.51078 0.44066 0.98114 0.0
H1372 H 0.55042 0.42195 0.98413 0.0
H1373 H 0.52772 0.41089 0.11707 0.0
O1374 O 0.61557 0.51466 0.03861 0.0
H1375 H 0.57047 0.51416 0.90684 0.0
H1376 H 0.62059 0.55196 0.02842 0.0
H1377 H 0.47629 0.40711 0.96583 0.0
H1378 H 0.60246 0.43693 0.14541 0.0
H1379 H 0.46743 0.37492 0.027 0.0
H1380 H 0.59801 0.4111 0.06579 0.0
O1381 O 0.53161 0.47006 0.05876 0.0
H1382 H 0.60258 0.53233 0.23379 0.0
H1383 H 0.56874 0.5369 0.04824 0.0
H1384 H 0.56834 0.55714 0.13607 0.0
H1385 H 0.58535 0.55493 0.22973 0.0
H1386 H 0.60238 0.51212 0.1451 0.0
H1387 H 0.63366 0.5835 0.96262 0.0
H1388 H 0.61473 0.58032 0.86769 0.0
O1389 O 0.5544 0.49946 0.00748 0.0
C1390 C 0.56653 0.47062 0.93701 0.0
C1391 C 0.59129 0.54692 0.8812 0.0
C1392 C 0.61979 0.56834 0.95001 0.0
N1393 N 0.59478 0.53121 0.97151 0.0
C1394 C 0.58431 0.52932 0.9193 0.0
C1395 C 0.61236 0.55039 0.98699 0.0
C1396 C 0.60915 0.56654 0.89678 0.0
C1397 C 0.57872 0.44363 0.10831 0.0
N1398 N 0.56438 0.4395 0.06342 0.0
C1399 C 0.59104 0.43351 0.1099 0.0
C1400 C 0.58856 0.41905 0.06516 0.0
C1401 C 0.57387 0.41488 0.01958 0.0
C1402 C 0.56186 0.42534 0.01938 0.0
C1403 C 0.49712 0.39086 0.07607 0.0
C1404 C 0.5071 0.42671 0.00778 0.0
C1405 C 0.51654 0.4101 0.08369 0.0
N1406 N 0.5214 0.42766 0.04935 0.0
C1407 C 0.48751 0.40776 0.99898 0.0
C1408 C 0.48255 0.38972 0.03334 0.0
C1409 C 0.53568 0.48659 0.02787 0.0
C1410 C 0.59519 0.53348 0.19317 0.0
C1411 C 0.57618 0.53583 0.08879 0.0
C1412 C 0.57593 0.54737 0.13837 0.0
C1413 C 0.58549 0.54613 0.1909 0.0
N1414 N 0.58567 0.5234 0.09139 0.0
C1415 C 0.59512 0.52216 0.1427 0.0
Co1416 Co 0.58233 0.78964 0.89432 0.0
Co1417 Co 0.59251 0.84066 0.86195 0.0
O1418 O 0.57844 0.81445 0.91063 0.0
C1419 C 0.59014 0.79683 0.02255 0.0
O1420 O 0.60238 0.81734 0.01005 0.0
C1421 C 0.54836 0.83492 0.89244 0.0
O1422 O 0.54087 0.81487 0.90875 0.0
O1423 O 0.57901 0.8232 0.78915 0.0
O1424 O 0.58372 0.79511 0.80718 0.0
H1425 H 0.63197 0.88365 0.68195 0.0
H1426 H 0.54572 0.78268 0.97066 0.0
O1427 O 0.58099 0.78324 0.9812 0.0
H1428 H 0.51284 0.73456 0.79904 0.0
H1429 H 0.56789 0.71396 0.92386 0.0
H1430 H 0.6108 0.78198 0.81484 0.0
H1431 H 0.55228 0.75748 0.80657 0.0
H1432 H 0.56266 0.74493 0.94205 0.0
O1433 O 0.56755 0.84599 0.87263 0.0
H1434 H 0.61522 0.85158 0.74612 0.0
H1435 H 0.59906 0.88509 0.87253 0.0
H1436 H 0.61646 0.75138 0.79503 0.0
H1437 H 0.50622 0.75982 0.9653 0.0
H1438 H 0.5949 0.71704 0.84973 0.0
H1439 H 0.48952 0.73559 0.8789 0.0
O1440 O 0.61423 0.80841 0.89857 0.0
H1441 H 0.59343 0.86393 0.07301 0.0
H1442 H 0.63728 0.87428 0.89474 0.0
H1443 H 0.65466 0.8952 0.98483 0.0
H1444 H 0.63266 0.8902 0.07478 0.0
H1445 H 0.57685 0.84279 0.98265 0.0
H1446 H 0.61563 0.91754 0.80965 0.0
H1447 H 0.6323 0.91697 0.71362 0.0
O1448 O 0.61835 0.83722 0.84897 0.0
C1449 C 0.58048 0.80703 0.77162 0.0
C1450 C 0.62479 0.88411 0.72371 0.0
C1451 C 0.61563 0.90313 0.79538 0.0
N1452 N 0.60619 0.86642 0.81316 0.0
C1453 C 0.61525 0.86598 0.76027 0.0
C1454 C 0.60624 0.88468 0.83077 0.0
C1455 C 0.62497 0.9028 0.74151 0.0
C1456 C 0.53859 0.77205 0.93317 0.0
N1457 N 0.5513 0.77143 0.889 0.0
C1458 C 0.5162 0.7592 0.93026 0.0
C1459 C 0.50685 0.74564 0.88173 0.0
C1460 C 0.51992 0.74507 0.83687 0.0
C1461 C 0.54224 0.75817 0.84125 0.0
C1462 C 0.57734 0.72881 0.89962 0.0
C1463 C 0.60125 0.76706 0.83856 0.0
C1464 C 0.57446 0.74642 0.90977 0.0
N1465 N 0.58626 0.7652 0.87909 0.0
C1466 C 0.60458 0.7498 0.82727 0.0
C1467 C 0.59249 0.73055 0.85802 0.0
C1468 C 0.62584 0.82572 0.86951 0.0
C1469 C 0.60318 0.86628 0.03406 0.0
C1470 C 0.62762 0.8718 0.93378 0.0
C1471 C 0.63754 0.8838 0.98464 0.0
C1472 C 0.62519 0.88101 0.03505 0.0
N1473 N 0.60599 0.85741 0.93301 0.0
C1474 C 0.59382 0.85449 0.98247 0.0
Co1475 Co 0.213 0.79047 0.89196 0.0
Co1476 Co 0.16103 0.75231 0.85922 0.0
O1477 O 0.18716 0.76255 0.90718 0.0
C1478 C 0.20653 0.79052 0.02106 0.0
O1479 O 0.18613 0.78339 0.00942 0.0
C1480 C 0.1659 0.71308 0.87417 0.0
O1481 O 0.18677 0.72483 0.86619 0.0
O1482 O 0.17787 0.75552 0.78551 0.0
O1483 O 0.20707 0.78762 0.80466 0.0
H1484 H 0.11806 0.75405 0.68542 0.0
H1485 H 0.21712 0.75806 0.96343 0.0
O1486 O 0.21978 0.7944 0.97902 0.0
H1487 H 0.26419 0.77208 0.79001 0.0
H1488 H 0.29037 0.84783 0.92292 0.0
H1489 H 0.22298 0.82835 0.81691 0.0
H1490 H 0.24391 0.79126 0.80208 0.0
H1491 H 0.25794 0.81241 0.93869 0.0
O1492 O 0.15409 0.72166 0.87003 0.0
H1493 H 0.15052 0.76683 0.74728 0.0
H1494 H 0.11603 0.71538 0.8682 0.0
H1495 H 0.25499 0.86386 0.79944 0.0
H1496 H 0.23727 0.73867 0.95345 0.0
H1497 H 0.28905 0.87383 0.85273 0.0
H1498 H 0.26096 0.7456 0.86612 0.0
O1499 O 0.19584 0.80525 0.89923 0.0
H1500 H 0.13759 0.72964 0.06977 0.0
H1501 H 0.12994 0.7665 0.89487 0.0
H1502 H 0.10997 0.76398 0.98625 0.0
H1503 H 0.11366 0.74538 0.0745 0.0
H1504 H 0.15766 0.73295 0.97794 0.0
H1505 H 0.08324 0.70194 0.80731 0.0
H1506 H 0.0841 0.72137 0.71529 0.0
O1507 O 0.16649 0.78236 0.84793 0.0
C1508 C 0.19437 0.77302 0.7687 0.0
C1509 C 0.11748 0.74545 0.72543 0.0
C1510 C 0.09795 0.71619 0.79379 0.0
N1511 N 0.1352 0.74188 0.81139 0.0
C1512 C 0.13581 0.75261 0.7607 0.0
C1513 C 0.1166 0.72383 0.82798 0.0
C1514 C 0.09843 0.72711 0.7422 0.0
C1515 C 0.22759 0.76133 0.92567 0.0
N1516 N 0.22942 0.77584 0.88355 0.0
C1517 C 0.23888 0.75024 0.9201 0.0
C1518 C 0.25213 0.7541 0.87104 0.0
C1519 C 0.25393 0.76894 0.82828 0.0
C1520 C 0.24236 0.7797 0.83526 0.0
C1521 C 0.27565 0.84365 0.89926 0.0
C1522 C 0.23775 0.83244 0.83968 0.0
C1523 C 0.25723 0.82361 0.90802 0.0
N1524 N 0.23861 0.81818 0.87811 0.0
C1525 C 0.25583 0.85263 0.82987 0.0
C1526 C 0.27491 0.85823 0.85986 0.0
C1527 C 0.17884 0.8009 0.87022 0.0
C1528 C 0.13581 0.73775 0.03157 0.0
C1529 C 0.13178 0.75852 0.93318 0.0
C1530 C 0.12035 0.75707 0.98475 0.0
C1531 C 0.12241 0.74661 0.03422 0.0
N1532 N 0.14492 0.74981 0.9309 0.0
C1533 C 0.14704 0.73955 0.97929 0.0
Co1534 Co 0.21273 0.42255 0.89664 0.0
Co1535 Co 0.25323 0.41287 0.85564 0.0
O1536 O 0.24121 0.42576 0.9091 0.0
C1537 C 0.21028 0.41058 0.0232 0.0
O1538 O 0.21611 0.39664 0.00721 0.0
C1539 C 0.29133 0.45532 0.89784 0.0
O1540 O 0.2787 0.4598 0.9293 0.0
O1541 O 0.24841 0.42724 0.78596 0.0
O1542 O 0.21602 0.42272 0.8087 0.0
H1543 H 0.25477 0.37488 0.67002 0.0
H1544 H 0.24293 0.45744 0.97679 0.0
O1545 O 0.20845 0.42239 0.98437 0.0
H1546 H 0.22738 0.49414 0.8158 0.0
H1547 H 0.15243 0.4374 0.9394 0.0
H1548 H 0.17547 0.39512 0.81909 0.0
H1549 H 0.21044 0.45462 0.81687 0.0
H1550 H 0.18869 0.44209 0.952 0.0
O1551 O 0.2835 0.43828 0.8661 0.0
H1552 H 0.23974 0.39039 0.73977 0.0
H1553 H 0.29283 0.40902 0.8558 0.0
H1554 H 0.13909 0.38992 0.8051 0.0
H1555 H 0.26003 0.497 0.97797 0.0
H1556 H 0.12737 0.41121 0.86536 0.0
H1557 H 0.25236 0.51563 0.89691 0.0
O1558 O 0.19944 0.39062 0.89556 0.0
H1559 H 0.27289 0.4065 0.06668 0.0
H1560 H 0.24495 0.36845 0.87719 0.0
H1561 H 0.2484 0.34895 0.96233 0.0
H1562 H 0.26255 0.368 0.05801 0.0
H1563 H 0.26886 0.42522 0.98095 0.0
H1564 H 0.30854 0.39388 0.787 0.0
H1565 H 0.28942 0.37656 0.69347 0.0
O1566 O 0.22389 0.3869 0.84295 0.0
C1567 C 0.23077 0.42637 0.77121 0.0
C1568 C 0.26323 0.38234 0.7107 0.0
C1569 C 0.29341 0.39301 0.77634 0.0
N1570 N 0.26529 0.40045 0.80205 0.0
C1571 C 0.25478 0.39112 0.75045 0.0
C1572 C 0.28446 0.40161 0.81505 0.0
C1573 C 0.28267 0.38329 0.72387 0.0
C1574 C 0.23945 0.4654 0.94144 0.0
N1575 N 0.22584 0.45369 0.89648 0.0
C1576 C 0.24921 0.48782 0.94231 0.0
C1577 C 0.24492 0.49827 0.8968 0.0
C1578 C 0.23093 0.48622 0.85123 0.0
C1579 C 0.22149 0.46383 0.85183 0.0
C1580 C 0.15738 0.4281 0.91268 0.0
C1581 C 0.17053 0.40448 0.84542 0.0
C1582 C 0.1779 0.43069 0.91958 0.0
N1583 N 0.18432 0.41911 0.8857 0.0
C1584 C 0.14988 0.40145 0.83734 0.0
C1585 C 0.14332 0.41339 0.87116 0.0
C1586 C 0.20499 0.37927 0.86463 0.0
C1587 C 0.26693 0.39807 0.02505 0.0
C1588 C 0.25123 0.37694 0.91841 0.0
C1589 C 0.25313 0.36578 0.96659 0.0
C1590 C 0.26107 0.37647 0.02022 0.0
N1591 N 0.25722 0.39823 0.92312 0.0
C1592 C 0.26481 0.40872 0.97588 0.0
Co1593 Co 0.45775 0.91458 0.94006 0.0
Co1594 Co 0.50906 0.92651 0.97303 0.0
O1595 O 0.48327 0.91232 0.92345 0.0
C1596 C 0.46496 0.92437 0.81203 0.0
O1597 O 0.48522 0.93776 0.82503 0.0
C1598 C 0.5047 0.8823 0.96051 0.0
O1599 O 0.48553 0.87288 0.98512 0.0
O1600 O 0.49156 0.91143 0.04511 0.0
O1601 O 0.46278 0.91506 0.02733 0.0
H1602 H 0.55166 0.9652 0.15432 0.0
H1603 H 0.4547 0.87983 0.86268 0.0
O1604 O 0.45168 0.91387 0.85304 0.0
H1605 H 0.40383 0.84265 0.02629 0.0
H1606 H 0.38106 0.8969 0.90898 0.0
H1607 H 0.4482 0.94156 0.02023 0.0
H1608 H 0.42462 0.88229 0.02219 0.0
H1609 H 0.41302 0.89323 0.8917 0.0
O1610 O 0.51533 0.9027 0.95498 0.0
H1611 H 0.51955 0.94827 0.09021 0.0
H1612 H 0.55361 0.93348 0.9621 0.0
H1613 H 0.41662 0.94572 0.03904 0.0
H1614 H 0.4341 0.84013 0.86466 0.0
H1615 H 0.38271 0.92325 0.9833 0.0
H1616 H 0.40846 0.82128 0.94698 0.0
O1617 O 0.47555 0.94672 0.93919 0.0
H1618 H 0.53152 0.93244 0.75954 0.0
H1619 H 0.5422 0.97215 0.94647 0.0
H1620 H 0.56256 0.99167 0.85755 0.0
H1621 H 0.55736 0.97178 0.76322 0.0
H1622 H 0.51121 0.91364 0.84932 0.0
H1623 H 0.58608 0.95019 0.02493 0.0
H1624 H 0.58527 0.96629 0.12172 0.0
O1625 O 0.50427 0.95124 0.99045 0.0
C1626 C 0.47479 0.91188 0.06276 0.0
C1627 C 0.55223 0.95827 0.1122 0.0
C1628 C 0.57154 0.94985 0.03959 0.0
N1629 N 0.5347 0.94 0.02227 0.0
C1630 C 0.53409 0.94866 0.07568 0.0
C1631 C 0.55308 0.94036 0.00425 0.0
C1632 C 0.57108 0.95888 0.09389 0.0
C1633 C 0.44347 0.87174 0.89844 0.0
N1634 N 0.44081 0.88338 0.94219 0.0
C1635 C 0.4319 0.84926 0.89941 0.0
C1636 C 0.41754 0.8387 0.94565 0.0
C1637 C 0.41494 0.85067 0.99018 0.0
C1638 C 0.42682 0.87313 0.98777 0.0
C1639 C 0.39572 0.90673 0.93373 0.0
C1640 C 0.4335 0.93169 0.99587 0.0
C1641 C 0.41387 0.90473 0.92411 0.0
N1642 N 0.43241 0.91701 0.95537 0.0
C1643 C 0.41567 0.93413 0.00668 0.0
C1644 C 0.39665 0.92152 0.97539 0.0
C1645 C 0.49246 0.9584 0.96994 0.0
C1646 C 0.53402 0.94128 0.80044 0.0
C1647 C 0.53976 0.96339 0.90562 0.0
C1648 C 0.55139 0.97452 0.85541 0.0
C1649 C 0.54848 0.96335 0.80251 0.0
N1650 N 0.52566 0.94172 0.90336 0.0
C1651 C 0.52265 0.93069 0.85155 0.0
Co1652 Co 0.0904 0.5453 0.9395 0.0
Co1653 Co 0.07794 0.58407 0.97651 0.0
O1654 O 0.09193 0.57287 0.92457 0.0
C1655 C 0.07749 0.54082 0.81302 0.0
O1656 O 0.06303 0.54593 0.8293 0.0
C1657 C 0.12168 0.62295 0.95242 0.0
O1658 O 0.13104 0.61136 0.95899 0.0
O1659 O 0.09361 0.58162 0.04704 0.0
O1660 O 0.09094 0.54973 0.02739 0.0
H1661 H 0.04048 0.58671 0.16204 0.0
H1662 H 0.12378 0.5767 0.85818 0.0
O1663 O 0.08999 0.54006 0.85173 0.0
H1664 H 0.16382 0.5651 0.01789 0.0
H1665 H 0.10927 0.48748 0.90204 0.0
H1666 H 0.06518 0.50864 0.02102 0.0
H1667 H 0.12413 0.54572 0.01816 0.0
H1668 H 0.11163 0.5226 0.88599 0.0
O1669 O 0.10144 0.6144 0.9602 0.0
H1670 H 0.05722 0.57216 0.095 0.0
H1671 H 0.06978 0.62095 0.9687 0.0
H1672 H 0.06235 0.4734 0.03858 0.0
H1673 H 0.16348 0.59625 0.85573 0.0
H1674 H 0.08456 0.46264 0.97898 0.0
H1675 H 0.18377 0.59056 0.93613 0.0
O1676 O 0.05821 0.53031 0.94217 0.0
H1677 H 0.0709 0.60183 0.76506 0.0
H1678 H 0.03196 0.57073 0.95181 0.0
H1679 H 0.01186 0.57135 0.86398 0.0
H1680 H 0.03135 0.587 0.76968 0.0
H1681 H 0.09033 0.60065 0.85385 0.0
H1682 H 0.05319 0.63607 0.03439 0.0
H1683 H 0.03833 0.61888 0.1318 0.0
O1684 O 0.05354 0.5544 0.99341 0.0
C1685 C 0.09383 0.56465 0.06362 0.0
C1686 C 0.04689 0.59435 0.11971 0.0
C1687 C 0.05402 0.62204 0.04807 0.0
N1688 N 0.06444 0.59564 0.02789 0.0
C1689 C 0.05642 0.58619 0.08156 0.0
C1690 C 0.06345 0.61343 0.0111 0.0
C1691 C 0.04568 0.61239 0.10271 0.0
C1692 C 0.13249 0.57397 0.89302 0.0
N1693 N 0.12163 0.56005 0.93824 0.0
C1694 C 0.15497 0.58516 0.89151 0.0
C1695 C 0.16635 0.58199 0.9367 0.0
C1696 C 0.15516 0.56773 0.98262 0.0
C1697 C 0.13268 0.55686 0.9827 0.0
C1698 C 0.09958 0.49202 0.92847 0.0
C1699 C 0.07495 0.50412 0.99499 0.0
C1700 C 0.10085 0.51189 0.9196 0.0
N1701 N 0.08877 0.5178 0.9531 0.0
C1702 C 0.07324 0.48411 0.00508 0.0
C1703 C 0.0857 0.47808 0.97162 0.0
C1704 C 0.04653 0.53543 0.97328 0.0
C1705 C 0.06223 0.59502 0.80593 0.0
C1706 C 0.04056 0.5775 0.911 0.0
C1707 C 0.02909 0.57787 0.8614 0.0
C1708 C 0.04004 0.58666 0.80852 0.0
N1709 N 0.06233 0.58569 0.90814 0.0
C1710 C 0.07317 0.59439 0.85646 0.0
Co1711 Co 0.46304 0.54413 0.94205 0.0
Co1712 Co 0.42097 0.49408 0.97618 0.0
O1713 O 0.43381 0.52015 0.92719 0.0
C1714 C 0.46158 0.53742 0.81287 0.0
O1715 O 0.45309 0.51682 0.82447 0.0
C1716 C 0.38394 0.50091 0.93884 0.0
O1717 O 0.39712 0.51866 0.91059 0.0
O1718 O 0.42636 0.51206 0.04875 0.0
O1719 O 0.46014 0.5382 0.02932 0.0
H1720 H 0.41776 0.45024 0.15383 0.0
H1721 H 0.4337 0.55334 0.87121 0.0
O1722 O 0.46704 0.55089 0.85505 0.0
H1723 H 0.45256 0.60017 0.04712 0.0
H1724 H 0.5256 0.61903 0.91114 0.0
H1725 H 0.50012 0.55003 0.01488 0.0
H1726 H 0.46762 0.57619 0.03363 0.0
H1727 H 0.48863 0.58898 0.89579 0.0
O1728 O 0.39106 0.49038 0.96745 0.0
H1729 H 0.43355 0.48225 0.08934 0.0
H1730 H 0.38071 0.45119 0.97065 0.0
H1731 H 0.53712 0.57964 0.03198 0.0
H1732 H 0.41844 0.57723 0.88263 0.0
H1733 H 0.55011 0.6145 0.97986 0.0
H1734 H 0.42781 0.60083 0.97121 0.0
O1735 O 0.47463 0.5242 0.93379 0.0
H1736 H 0.39853 0.47081 0.76446 0.0
H1737 H 0.42843 0.45791 0.94632 0.0
H1738 H 0.42308 0.43557 0.85812 0.0
H1739 H 0.40781 0.44179 0.7664 0.0
H1740 H 0.40501 0.49331 0.85269 0.0
H1741 H 0.36426 0.41888 0.03416 0.0
H1742 H 0.38287 0.41822 0.12633 0.0
O1743 O 0.44995 0.49626 0.9867 0.0
C1744 C 0.44491 0.52695 0.06546 0.0
C1745 C 0.40951 0.4503 0.1137 0.0
C1746 C 0.37949 0.43271 0.04655 0.0
N1747 N 0.40819 0.46855 0.02594 0.0
C1748 C 0.4184 0.46838 0.07693 0.0
C1749 C 0.38886 0.45108 0.01084 0.0
C1750 C 0.38994 0.43235 0.09826 0.0
C1751 C 0.43792 0.56361 0.90975 0.0
N1752 N 0.45145 0.56328 0.95179 0.0
C1753 C 0.4292 0.57709 0.91603 0.0
C1754 C 0.43445 0.59031 0.96576 0.0
C1755 C 0.44831 0.58992 0.00841 0.0
C1756 C 0.45671 0.57622 1.00066 0.0
C1757 C 0.52011 0.60396 0.93432 0.0
C1758 C 0.50553 0.56517 0.99261 0.0
C1759 C 0.49918 0.58687 0.92579 0.0
N1760 N 0.49208 0.56782 0.95515 0.0
C1761 C 0.52657 0.58188 0.0022 0.0
C1762 C 0.53385 0.60141 0.97288 0.0
C1763 C 0.46871 0.50699 0.96367 0.0
C1764 C 0.405 0.4678 0.80432 0.0
C1765 C 0.42185 0.46083 0.90665 0.0
C1766 C 0.41882 0.44807 0.8568 0.0
C1767 C 0.41025 0.45155 0.80539 0.0
N1768 N 0.41641 0.47658 0.90567 0.0
C1769 C 0.40838 0.48032 0.85495 0.0
Co1770 Co 0.0869 0.54532 0.44193 0.0
Co1771 Co 0.07612 0.49425 0.47155 0.0
O1772 O 0.09026 0.52048 0.42385 0.0
C1773 C 0.08018 0.53949 0.31245 0.0
O1774 O 0.067 0.51904 0.32358 0.0
C1775 C 0.12076 0.49962 0.45957 0.0
O1776 O 0.12977 0.51858 0.48531 0.0
O1777 O 0.09063 0.51137 0.54452 0.0
O1778 O 0.08469 0.53889 0.52902 0.0
H1779 H 0.03733 0.45009 0.65066 0.0
H1780 H 0.12378 0.551 0.36911 0.0
O1781 O 0.08918 0.55262 0.35501 0.0
H1782 H 0.15609 0.59868 0.54186 0.0
H1783 H 0.1031 0.62175 0.41673 0.0
H1784 H 0.05826 0.55304 0.52069 0.0
H1785 H 0.11662 0.57696 0.53108 0.0
H1786 H 0.10771 0.59047 0.39724 0.0
O1787 O 0.10038 0.48866 0.45355 0.0
H1788 H 0.05408 0.48267 0.58842 0.0
H1789 H 0.06995 0.45009 0.45824 0.0
H1790 H 0.05321 0.58391 0.54195 0.0
H1791 H 0.16333 0.57254 0.37792 0.0
H1792 H 0.07574 0.61861 0.48973 0.0
H1793 H 0.17972 0.59658 0.46482 0.0
O1794 O 0.05491 0.52677 0.43639 0.0
H1795 H 0.07158 0.47193 0.25816 0.0
H1796 H 0.03079 0.46086 0.44316 0.0
H1797 H 0.01194 0.44016 0.354 0.0
H1798 H 0.0324 0.4455 0.26069 0.0
H1799 H 0.08963 0.49299 0.34781 0.0
H1800 H 0.05346 0.41717 0.51927 0.0
H1801 H 0.03689 0.41699 0.61613 0.0
O1802 O 0.05093 0.49839 0.48842 0.0
C1803 C 0.08823 0.52687 0.56347 0.0
C1804 C 0.04444 0.44994 0.60847 0.0
C1805 C 0.05349 0.43147 0.53474 0.0
N1806 N 0.06279 0.46826 0.51941 0.0
C1807 C 0.05394 0.46835 0.57297 0.0
C1808 C 0.06284 0.45018 0.5004 0.0
C1809 C 0.04421 0.43138 0.58908 0.0
C1810 C 0.1308 0.56156 0.40679 0.0
N1811 N 0.11792 0.56288 0.44923 0.0
C1812 C 0.1532 0.57366 0.41165 0.0
C1813 C 0.16239 0.58712 0.46047 0.0
C1814 C 0.14914 0.5883 0.50372 0.0
C1815 C 0.12681 0.57595 0.49742 0.0
C1816 C 0.09323 0.60674 0.43992 0.0
C1817 C 0.06825 0.5681 0.49825 0.0
C1818 C 0.09575 0.58896 0.42902 0.0
N1819 N 0.08343 0.56998 0.45838 0.0
C1820 C 0.06526 0.58552 0.51026 0.0
C1821 C 0.07788 0.60497 0.48089 0.0
C1822 C 0.04336 0.50972 0.46682 0.0
C1823 C 0.06249 0.46947 0.29854 0.0
C1824 C 0.03978 0.46348 0.40264 0.0
C1825 C 0.02902 0.45163 0.35231 0.0
C1826 C 0.04051 0.45463 0.29999 0.0
N1827 N 0.06139 0.47794 0.40101 0.0
C1828 C 0.07267 0.48118 0.34961 0.0
Co1829 Co 0.46018 0.54472 0.44017 0.0
Co1830 Co 0.51122 0.58383 0.47905 0.0
O1831 O 0.48604 0.57269 0.42686 0.0
C1832 C 0.46971 0.54134 0.31434 0.0
O1833 O 0.48931 0.54683 0.33129 0.0
C1834 C 0.5063 0.62274 0.45269 0.0
O1835 O 0.48537 0.61056 0.4471 0.0
O1836 O 0.4928 0.58042 0.54972 0.0
O1837 O 0.46352 0.54875 0.52802 0.0
H1838 H 0.551 0.58572 0.66455 0.0
H1839 H 0.45751 0.57569 0.35848 0.0
O1840 O 0.45602 0.53993 0.3525 0.0
H1841 H 0.40489 0.5625 0.51671 0.0
H1842 H 0.38413 0.48607 0.39853 0.0
H1843 H 0.44883 0.50783 0.52065 0.0
H1844 H 0.42626 0.54425 0.51809 0.0
H1845 H 0.41661 0.5216 0.38444 0.0
O1846 O 0.51779 0.61436 0.46606 0.0
H1847 H 0.5198 0.57147 0.59723 0.0
H1848 H 0.55647 0.62037 0.4716 0.0
H1849 H 0.41672 0.47218 0.53622 0.0
H1850 H 0.43621 0.59402 0.35473 0.0
H1851 H 0.38403 0.46111 0.47502 0.0
H1852 H 0.40974 0.58754 0.4344 0.0
O1853 O 0.47769 0.5301 0.44287 0.0
H1854 H 0.53609 0.6038 0.26832 0.0
H1855 H 0.54412 0.57106 0.45155 0.0
H1856 H 0.56484 0.57258 0.36277 0.0
H1857 H 0.56091 0.58907 0.27024 0.0
H1858 H 0.51543 0.60164 0.35791 0.0
H1859 H 0.58808 0.63522 0.53763 0.0
H1860 H 0.58549 0.61783 0.63487 0.0
O1861 O 0.50643 0.55424 0.49384 0.0
C1862 C 0.4754 0.5634 0.56503 0.0
C1863 C 0.55233 0.59348 0.62237 0.0
C1864 C 0.57314 0.62124 0.55113 0.0
N1865 N 0.53623 0.59514 0.53064 0.0
C1866 C 0.53468 0.58552 0.5841 0.0
C1867 C 0.55515 0.61281 0.51402 0.0
C1868 C 0.57168 0.61148 0.60567 0.0
C1869 C 0.44588 0.57262 0.39303 0.0
N1870 N 0.44318 0.55893 0.43856 0.0
C1871 C 0.43393 0.58313 0.39079 0.0
C1872 C 0.41911 0.57952 0.43556 0.0
C1873 C 0.41641 0.5655 0.4818 0.0
C1874 C 0.42866 0.5553 0.48258 0.0
C1875 C 0.39825 0.49074 0.42564 0.0
C1876 C 0.43466 0.50317 0.49393 0.0
C1877 C 0.41668 0.51084 0.41789 0.0
N1878 N 0.43452 0.51692 0.45225 0.0
C1879 C 0.41653 0.48294 0.5029 0.0
C1880 C 0.3982 0.47674 0.46854 0.0
C1881 C 0.49454 0.53529 0.47367 0.0
C1882 C 0.53801 0.59665 0.30844 0.0
C1883 C 0.54225 0.57819 0.41153 0.0
C1884 C 0.55409 0.57907 0.36138 0.0
C1885 C 0.5519 0.58834 0.3095 0.0
N1886 N 0.52863 0.58634 0.41018 0.0
C1887 C 0.52643 0.59549 0.35946 0.0
Co1888 Co 0.46151 0.9154 0.44018 0.0
Co1889 Co 0.42234 0.9276 0.47263 0.0
O1890 O 0.43388 0.91353 0.42221 0.0
C1891 C 0.46409 0.925 0.31244 0.0
O1892 O 0.45724 0.93837 0.32559 0.0
C1893 C 0.38233 0.88397 0.452 0.0
O1894 O 0.3922 0.87374 0.47003 0.0
O1895 O 0.42384 0.91143 0.54313 0.0
O1896 O 0.45664 0.91587 0.52725 0.0
H1897 H 0.41732 0.9633 0.65899 0.0
H1898 H 0.43018 0.88074 0.36165 0.0
O1899 O 0.46722 0.91471 0.35333 0.0
H1900 H 0.44207 0.84341 0.52829 0.0
H1901 H 0.51999 0.8968 0.41224 0.0
H1902 H 0.49746 0.94149 0.52299 0.0
H1903 H 0.46123 0.88308 0.52408 0.0
H1904 H 0.4849 0.89405 0.3921 0.0
O1905 O 0.39208 0.90447 0.45292 0.0
H1906 H 0.43263 0.94708 0.59287 0.0
H1907 H 0.38593 0.93641 0.46141 0.0
H1908 H 0.5326 0.94464 0.54484 0.0
H1909 H 0.41079 0.84104 0.36388 0.0
H1910 H 0.54407 0.92217 0.48929 0.0
H1911 H 0.41667 0.82212 0.44771 0.0
O1912 O 0.47618 0.94756 0.4395 0.0
H1913 H 0.40553 0.93628 0.26136 0.0
H1914 H 0.43673 0.97388 0.44973 0.0
H1915 H 0.43633 0.99463 0.36316 0.0
H1916 H 0.42052 0.97579 0.26817 0.0
H1917 H 0.40693 0.91624 0.34852 0.0
H1918 H 0.37013 0.95258 0.52606 0.0
H1919 H 0.38587 0.96623 0.62563 0.0
O1920 O 0.45203 0.95175 0.492 0.0
C1921 C 0.44113 0.91236 0.56188 0.0
C1922 C 0.41035 0.95749 0.61563 0.0
C1923 C 0.38387 0.95146 0.54105 0.0
N1924 N 0.41034 0.94096 0.52305 0.0
C1925 C 0.41896 0.94827 0.57795 0.0
C1926 C 0.39289 0.9423 0.50462 0.0
C1927 C 0.3927 0.95911 0.59691 0.0
C1928 C 0.43296 0.87262 0.398 0.0
N1929 N 0.44695 0.88421 0.44241 0.0
C1930 C 0.42188 0.85014 0.39914 0.0
C1931 C 0.42516 0.83953 0.44623 0.0
C1932 C 0.4394 0.85147 0.49147 0.0
C1933 C 0.45018 0.87393 0.48889 0.0
C1934 C 0.51514 0.90662 0.43689 0.0
C1935 C 0.50225 0.93155 0.49891 0.0
C1936 C 0.4953 0.90515 0.42563 0.0
N1937 N 0.48901 0.91741 0.45684 0.0
C1938 C 0.52221 0.93345 0.51135 0.0
C1939 C 0.52864 0.92086 0.48012 0.0
C1940 C 0.471 0.95906 0.47118 0.0
C1941 C 0.41247 0.94466 0.30249 0.0
C1942 C 0.43004 0.96558 0.40843 0.0
C1943 C 0.42976 0.97741 0.3596 0.0
C1944 C 0.42088 0.96683 0.30634 0.0
N1945 N 0.42172 0.94382 0.40438 0.0
C1946 C 0.41316 0.93338 0.35213 0.0
Co1947 Co 0.2126 0.42138 0.39425 0.0
Co1948 Co 0.16224 0.41259 0.36023 0.0
O1949 O 0.18848 0.4265 0.4085 0.0
C1950 C 0.20535 0.41555 0.52283 0.0
O1951 O 0.18485 0.4033 0.51014 0.0
C1952 C 0.16898 0.45721 0.38949 0.0
O1953 O 0.18856 0.464 0.40911 0.0
O1954 O 0.17987 0.42491 0.28693 0.0
O1955 O 0.20681 0.41843 0.30697 0.0
H1956 H 0.11824 0.37156 0.1831 0.0
H1957 H 0.22121 0.45973 0.4652 0.0
O1958 O 0.21906 0.424 0.48135 0.0
H1959 H 0.26864 0.48826 0.29056 0.0
H1960 H 0.28761 0.43427 0.42699 0.0
H1961 H 0.2191 0.39068 0.32095 0.0
H1962 H 0.24477 0.44915 0.30338 0.0
H1963 H 0.2573 0.44082 0.44176 0.0
O1964 O 0.1579 0.43826 0.36807 0.0
H1965 H 0.15053 0.38849 0.24646 0.0
H1966 H 0.11845 0.40775 0.36914 0.0
H1967 H 0.24898 0.38366 0.3044 0.0
H1968 H 0.24504 0.49894 0.45453 0.0
H1969 H 0.28359 0.40557 0.35769 0.0
H1970 H 0.26893 0.51345 0.36659 0.0
O1971 O 0.19298 0.3897 0.40211 0.0
H1972 H 0.13919 0.41442 0.57014 0.0
H1973 H 0.12762 0.36862 0.39549 0.0
H1974 H 0.10629 0.35253 0.48585 0.0
H1975 H 0.11189 0.37552 0.57396 0.0
H1976 H 0.1608 0.42965 0.47985 0.0
H1977 H 0.08584 0.39112 0.30689 0.0
H1978 H 0.08555 0.37278 0.2132 0.0
O1979 O 0.16478 0.38613 0.35026 0.0
C1980 C 0.19518 0.42182 0.27063 0.0
C1981 C 0.11815 0.37949 0.22382 0.0
C1982 C 0.09996 0.39045 0.29331 0.0
N1983 N 0.13641 0.39906 0.31163 0.0
C1984 C 0.13641 0.38913 0.25992 0.0
C1985 C 0.11851 0.39988 0.32833 0.0
C1986 C 0.09982 0.38017 0.24075 0.0
C1987 C 0.23167 0.4659 0.42704 0.0
N1988 N 0.23157 0.45216 0.38495 0.0
C1989 C 0.24508 0.48813 0.42113 0.0
C1990 C 0.25845 0.49626 0.37174 0.0
C1991 C 0.25828 0.48214 0.32903 0.0
C1992 C 0.24465 0.46001 0.33639 0.0
C1993 C 0.27264 0.42467 0.40332 0.0
C1994 C 0.23413 0.40041 0.34375 0.0
C1995 C 0.25541 0.4283 0.41153 0.0
N1996 N 0.23649 0.41633 0.38156 0.0
C1997 C 0.25099 0.39631 0.33445 0.0
C1998 C 0.27038 0.40857 0.36443 0.0
C1999 C 0.1757 0.37827 0.37266 0.0
C2000 C 0.13657 0.40425 0.53199 0.0
C2001 C 0.13037 0.37872 0.43374 0.0
C2002 C 0.11814 0.36951 0.48476 0.0
C2003 C 0.12127 0.38242 0.53414 0.0
N2004 N 0.14532 0.40018 0.43179 0.0
C2005 C 0.14862 0.41286 0.48035 0.0
Co2006 Co 0.58002 0.79036 0.39469 0.0
Co2007 Co 0.59504 0.75342 0.35902 0.0
O2008 O 0.57959 0.76333 0.40977 0.0
C2009 C 0.59074 0.79337 0.5219 0.0
O2010 O 0.60475 0.78741 0.50789 0.0
C2011 C 0.55185 0.71296 0.37625 0.0
O2012 O 0.54161 0.72297 0.35953 0.0
O2013 O 0.57939 0.75518 0.28753 0.0
O2014 O 0.58059 0.7864 0.30723 0.0
H2015 H 0.63659 0.75454 0.17829 0.0
H2016 H 0.54651 0.75737 0.47238 0.0
O2017 O 0.57933 0.79522 0.48184 0.0
H2018 H 0.50675 0.76844 0.31077 0.0
H2019 H 0.55812 0.84609 0.43029 0.0
H2020 H 0.60522 0.82774 0.31539 0.0
H2021 H 0.54641 0.78919 0.31386 0.0
H2022 H 0.55658 0.81129 0.44533 0.0
O2023 O 0.57236 0.72271 0.37526 0.0
H2024 H 0.6178 0.76736 0.24356 0.0
H2025 H 0.60417 0.71716 0.36612 0.0
H2026 H 0.60727 0.86267 0.29885 0.0
H2027 H 0.50681 0.7364 0.47146 0.0
H2028 H 0.58357 0.87204 0.35646 0.0
H2029 H 0.48666 0.74184 0.39013 0.0
O2030 O 0.61214 0.80632 0.39524 0.0
H2031 H 0.60214 0.73618 0.57102 0.0
H2032 H 0.64127 0.76848 0.38519 0.0
H2033 H 0.66142 0.76822 0.47343 0.0
H2034 H 0.64184 0.75192 0.56717 0.0
H2035 H 0.58266 0.73706 0.48195 0.0
H2036 H 0.6227 0.70371 0.30194 0.0
H2037 H 0.63915 0.72249 0.20734 0.0
O2038 O 0.61865 0.7836 0.34322 0.0
C2039 C 0.57847 0.7718 0.271 0.0
C2040 C 0.62951 0.74622 0.21942 0.0
C2041 C 0.62168 0.71768 0.28877 0.0
N2042 N 0.60988 0.74304 0.30866 0.0
C2043 C 0.61885 0.75342 0.25662 0.0
C2044 C 0.61113 0.72533 0.32484 0.0
C2045 C 0.63092 0.72823 0.23572 0.0
C2046 C 0.53784 0.75994 0.43708 0.0
N2047 N 0.54877 0.77454 0.39326 0.0
C2048 C 0.51537 0.74797 0.4367 0.0
C2049 C 0.50408 0.75101 0.39101 0.0
C2050 C 0.51534 0.76591 0.34644 0.0
C2051 C 0.53781 0.77757 0.34826 0.0
C2052 C 0.56847 0.84216 0.40473 0.0
C2053 C 0.5948 0.83164 0.3405 0.0
C2054 C 0.56767 0.82248 0.41306 0.0
N2055 N 0.58065 0.81738 0.38085 0.0
C2056 C 0.59605 0.85148 0.33099 0.0
C2057 C 0.58276 0.85672 0.36334 0.0
C2058 C 0.62467 0.8022 0.36479 0.0
C2059 C 0.61085 0.74323 0.53036 0.0
C2060 C 0.63262 0.76137 0.4258 0.0
C2061 C 0.64412 0.76125 0.47562 0.0
C2062 C 0.63312 0.75209 0.52819 0.0
N2063 N 0.61075 0.75255 0.42815 0.0
C2064 C 0.59989 0.74366 0.47966 0.0
Co2065 Co 0.21464 0.78967 0.39465 0.0
Co2066 Co 0.25177 0.84139 0.35488 0.0
O2067 O 0.24198 0.81637 0.40724 0.0
C2068 C 0.21086 0.79877 0.52062 0.0
O2069 O 0.21564 0.81816 0.50358 0.0
C2070 C 0.29176 0.83809 0.37737 0.0
O2071 O 0.28008 0.81704 0.37995 0.0
O2072 O 0.24889 0.82328 0.28403 0.0
O2073 O 0.21817 0.79306 0.30659 0.0
H2074 H 0.24953 0.88021 0.17186 0.0
H2075 H 0.24688 0.78879 0.47501 0.0
O2076 O 0.21023 0.7854 0.48252 0.0
H2077 H 0.23571 0.73707 0.3159 0.0
H2078 H 0.15872 0.7127 0.43798 0.0
H2079 H 0.17696 0.77658 0.31582 0.0
H2080 H 0.21575 0.75678 0.31581 0.0
H2081 H 0.1936 0.74611 0.45048 0.0
O2082 O 0.28282 0.84929 0.36668 0.0
H2083 H 0.23717 0.84914 0.23904 0.0
H2084 H 0.28745 0.88707 0.36 0.0
H2085 H 0.14191 0.74354 0.30193 0.0
H2086 H 0.26695 0.76917 0.47741 0.0
H2087 H 0.13261 0.71126 0.36317 0.0
H2088 H 0.26148 0.74315 0.39729 0.0
O2089 O 0.19873 0.80586 0.39302 0.0
H2090 H 0.27229 0.86733 0.56463 0.0
H2091 H 0.2369 0.87258 0.38308 0.0
H2092 H 0.23804 0.8932 0.47177 0.0
H2093 H 0.25583 0.89066 0.56342 0.0
H2094 H 0.27058 0.8468 0.47513 0.0
H2095 H 0.3005 0.91852 0.29387 0.0
H2096 H 0.28145 0.91522 0.19907 0.0
O2097 O 0.22155 0.83516 0.34161 0.0
C2098 C 0.23233 0.80542 0.26912 0.0
C2099 C 0.258 0.88184 0.21298 0.0
C2100 C 0.28661 0.90334 0.28141 0.0
N2101 N 0.26168 0.86621 0.30319 0.0
C2102 C 0.25109 0.86429 0.2512 0.0
C2103 C 0.27922 0.88544 0.31854 0.0
C2104 C 0.27591 0.90148 0.22826 0.0
C2105 C 0.24426 0.77734 0.44031 0.0
N2106 N 0.23016 0.77395 0.39529 0.0
C2107 C 0.25574 0.76635 0.44176 0.0
C2108 C 0.25269 0.75178 0.39674 0.0
C2109 C 0.23826 0.74839 0.35101 0.0
C2110 C 0.22708 0.75969 0.351 0.0
C2111 C 0.16262 0.72663 0.41084 0.0
C2112 C 0.17309 0.76258 0.34248 0.0
C2113 C 0.18236 0.74559 0.41767 0.0
N2114 N 0.18745 0.7632 0.38332 0.0
C2115 C 0.15319 0.74393 0.33449 0.0
C2116 C 0.14797 0.72583 0.36888 0.0
C2117 C 0.2029 0.82251 0.36264 0.0
C2118 C 0.26456 0.86864 0.52489 0.0
C2119 C 0.24467 0.87136 0.42275 0.0
C2120 C 0.24529 0.88312 0.47283 0.0
C2121 C 0.2553 0.8817 0.52422 0.0
N2122 N 0.2538 0.85859 0.42372 0.0
C2123 C 0.26365 0.85714 0.47395 0.0
C2124 C 0.25036 0.11628 0.96262 0.0
C2125 C 0.24872 0.12874 0.91725 0.0
C2126 C 0.24737 0.11971 0.02208 0.0
C2127 C 0.24306 0.13613 0.0393 0.0
H2128 H 0.25406 0.10373 0.9522 0.0
H2129 H 0.2491 0.10966 0.05482 0.0
S2130 S 0.2365 0.17293 0.93661 0.0
N2131 N 0.24169 0.15767 0.89268 0.0
N2132 N 0.23651 0.1645 0.00474 0.0
C2133 C 0.24085 0.14842 0.99401 0.0
C2134 C 0.24359 0.14465 0.93304 0.0
C2135 C 0.88812 0.13621 0.96157 0.0
C2136 C 0.87559 0.12177 0.91686 0.0
C2137 C 0.88521 0.13001 0.02119 0.0
C2138 C 0.86925 0.10919 0.03925 0.0
H2139 H 0.90031 0.15254 0.95048 0.0
H2140 H 0.89525 0.14205 0.05343 0.0
S2141 S 0.83259 0.06497 0.93845 0.0
N2142 N 0.84719 0.0854 0.89372 0.0
N2143 N 0.84129 0.0738 0.00617 0.0
C2144 C 0.85693 0.09436 0.99459 0.0
C2145 C 0.86019 0.10063 0.93344 0.0
C2146 C 0.9063 0.75779 0.99545 0.0
C2147 C 0.89353 0.76002 0.03923 0.0
C2148 C 0.89994 0.75448 0.93567 0.0
C2149 C 0.88038 0.75284 0.91778 0.0
H2150 H 0.921 0.75796 0.0075 0.0
H2151 H 0.91006 0.75253 0.90351 0.0
S2152 S 0.8426 0.76069 0.01174 0.0
N2153 N 0.86156 0.76305 0.05764 0.0
N2154 N 0.84943 0.75581 0.94622 0.0
C2155 C 0.86794 0.75592 0.96006 0.0
C2156 C 0.87459 0.75983 0.02049 0.0
C2157 C 0.12004 0.25051 0.48264 0.0
C2158 C 0.13586 0.24558 0.46361 0.0
C2159 C 0.1177 0.25416 0.54233 0.0
C2160 C 0.13067 0.25253 0.58607 0.0
H2161 H 0.10961 0.25218 0.45113 0.0
H2162 H 0.10551 0.25821 0.5543 0.0
S2163 S 0.17373 0.23901 0.56184 0.0
N2164 N 0.16436 0.23868 0.49472 0.0
N2165 N 0.15945 0.24496 0.60748 0.0
C2166 C 0.14604 0.24687 0.56858 0.0
C2167 C 0.14874 0.24353 0.50732 0.0
C2168 C 0.75219 0.87127 0.48341 0.0
C2169 C 0.75789 0.89233 0.46538 0.0
C2170 C 0.749 0.86516 0.54306 0.0
C2171 C 0.75181 0.87991 0.58776 0.0
H2172 H 0.74963 0.85904 0.45117 0.0
H2173 H 0.74438 0.8487 0.55419 0.0
S2174 S 0.76741 0.9372 0.56612 0.0
N2175 N 0.76664 0.92812 0.49835 0.0
N2176 N 0.7611 0.91667 0.6109 0.0
C2177 C 0.75811 0.90119 0.57114 0.0
C2178 C 0.76105 0.90739 0.50997 0.0
C2179 C 0.1399 0.88267 0.53916 0.0
C2180 C 0.1252 0.87062 0.58387 0.0
C2181 C 0.13372 0.87981 0.47953 0.0
C2182 C 0.11264 0.86442 0.46153 0.0
H2183 H 0.15633 0.8946 0.55028 0.0
H2184 H 0.1459 0.88959 0.44731 0.0
S2185 S 0.06794 0.82869 0.56219 0.0
N2186 N 0.0885 0.8429 0.60692 0.0
N2187 N 0.07694 0.83717 0.49448 0.0
C2188 C 0.09767 0.85237 0.50608 0.0
C2189 C 0.10394 0.85553 0.56721 0.0
C2190 C 0.75126 0.88548 0.04224 0.0
C2191 C 0.75165 0.87217 0.08708 0.0
C2192 C 0.75477 0.88241 0.98295 0.0
C2193 C 0.75833 0.86552 0.96531 0.0
H2194 H 0.74831 0.8985 0.05299 0.0
H2195 H 0.75412 0.89321 0.95064 0.0
S2196 S 0.76134 0.82634 0.06671 0.0
N2197 N 0.75659 0.84185 0.11092 0.0
N2198 N 0.76263 0.83565 0.99896 0.0
C2199 C 0.75916 0.85228 0.01011 0.0
C2200 C 0.75593 0.85569 0.07098 0.0
C2201 C 0.14801 0.89845 0.06533 0.0
C2202 C 0.13027 0.87875 0.08341 0.0
C2203 C 0.1507 0.90503 0.00557 0.0
C2204 C 0.13556 0.89228 0.96196 0.0
H2205 H 0.16027 0.90848 0.09718 0.0
H2206 H 0.16511 0.91981 0.99331 0.0
S2207 S 0.08408 0.84128 0.99034 0.0
N2208 N 0.09615 0.84795 0.05539 0.0
N2209 N 0.10045 0.86036 0.94439 0.0
C2210 C 0.11691 0.87331 0.98112 0.0
C2211 C 0.11449 0.8665 0.0414 0.0
C2212 C 0.09726 0.24811 0.00654 0.0
C2213 C 0.11034 0.24563 0.96418 0.0
C2214 C 0.1029 0.25117 0.06699 0.0
C2215 C 0.12202 0.25232 0.08695 0.0
H2216 H 0.0829 0.24834 0.99284 0.0
H2217 H 0.09264 0.25341 0.09795 0.0
S2218 S 0.1602 0.24358 0.99741 0.0
N2219 N 0.14202 0.24181 0.94948 0.0
N2220 N 0.15276 0.2485 0.06196 0.0
C2221 C 0.13467 0.24891 0.0461 0.0
C2222 C 0.12878 0.24529 0.98506 0.0
C2223 C 0.85887 0.75433 0.43541 0.0
C2224 C 0.87659 0.75236 0.41745 0.0
C2225 C 0.85573 0.75737 0.49535 0.0
C2226 C 0.87048 0.75902 0.53924 0.0
H2227 H 0.84702 0.75286 0.40315 0.0
H2228 H 0.84137 0.75786 0.50739 0.0
S2229 S 0.92149 0.75847 0.51183 0.0
N2230 N 0.91003 0.75428 0.44608 0.0
N2231 N 0.90501 0.761 0.55782 0.0
C2232 C 0.88902 0.75842 0.52052 0.0
C2233 C 0.89183 0.75478 0.45991 0.0
C2234 C 0.23672 0.09965 0.49537 0.0
C2235 C 0.25119 0.11308 0.53889 0.0
C2236 C 0.23922 0.10627 0.43571 0.0
C2237 C 0.25636 0.1265 0.4175 0.0
H2238 H 0.22312 0.08423 0.50771 0.0
H2239 H 0.22743 0.09555 0.40383 0.0
S2240 S 0.30014 0.16624 0.5144 0.0
N2241 N 0.2843 0.14645 0.55937 0.0
N2242 N 0.28893 0.15904 0.44823 0.0
C2243 C 0.27133 0.13967 0.46071 0.0
C2244 C 0.26877 0.1329 0.5211 0.0
C2245 C 0.90566 0.13989 0.49558 0.0
C2246 C 0.89183 0.14024 0.53899 0.0
C2247 C 0.89934 0.13611 0.43564 0.0
C2248 C 0.87904 0.13272 0.41701 0.0
H2249 H 0.92118 0.14202 0.50819 0.0
H2250 H 0.91038 0.13558 0.40383 0.0
S2251 S 0.83823 0.1349 0.51371 0.0
N2252 N 0.85795 0.13895 0.55908 0.0
N2253 N 0.84594 0.13166 0.44742 0.0
C2254 C 0.86546 0.13383 0.46018 0.0
C2255 C 0.8719 0.13766 0.52086 0.0
C2256 C 0.91607 0.47875 0.26873 0.0
C2257 C 0.91783 0.46087 0.25116 0.0
C2258 C 0.9124 0.48172 0.32835 0.0
C2259 C 0.90992 0.46666 0.37229 0.0
H2260 H 0.91826 0.49089 0.23651 0.0
H2261 H 0.91219 0.49624 0.34021 0.0
S2262 S 0.90934 0.41507 0.34544 0.0
N2263 N 0.91462 0.42689 0.28002 0.0
N2264 N 0.90672 0.43161 0.39097 0.0
C2265 C 0.91018 0.44793 0.35376 0.0
C2266 C 0.91444 0.44527 0.29355 0.0
C2267 C 0.53589 0.43691 0.26994 0.0
C2268 C 0.53899 0.45704 0.25074 0.0
C2269 C 0.53189 0.43066 0.32986 0.0
C2270 C 0.53105 0.44439 0.37268 0.0
H2271 H 0.53676 0.42593 0.23861 0.0
H2272 H 0.52998 0.41527 0.34293 0.0
S2273 S 0.53567 0.49759 0.34582 0.0
N2274 N 0.53936 0.48991 0.27998 0.0
N2275 N 0.53171 0.47803 0.39169 0.0
C2276 C 0.53341 0.46417 0.35402 0.0
C2277 C 0.53743 0.47054 0.29332 0.0
C2278 C 0.53792 0.08746 0.35454 0.0
C2279 C 0.559 0.09295 0.37176 0.0
C2280 C 0.53152 0.08422 0.29503 0.0
C2281 C 0.54599 0.08673 0.2497 0.0
H2282 H 0.52589 0.08504 0.38732 0.0
H2283 H 0.51504 0.07969 0.28452 0.0
S2284 S 0.60326 0.10185 0.2693 0.0
N2285 N 0.59454 0.10132 0.33738 0.0
N2286 N 0.58256 0.09563 0.2253 0.0
C2287 C 0.56731 0.0929 0.26559 0.0
C2288 C 0.5738 0.09591 0.32654 0.0
C2289 C 0.78905 0.5851 0.81555 0.0
C2290 C 0.80511 0.58028 0.79816 0.0
C2291 C 0.78609 0.58867 0.87486 0.0
C2292 C 0.79871 0.58715 0.91993 0.0
H2293 H 0.77884 0.58669 0.78302 0.0
H2294 H 0.77369 0.59258 0.88542 0.0
S2295 S 0.84223 0.57397 0.9001 0.0
N2296 N 0.8334 0.57353 0.83221 0.0
N2297 N 0.8275 0.57985 0.94412 0.0
C2298 C 0.81436 0.58165 0.904 0.0
C2299 C 0.81762 0.57829 0.84315 0.0
C2300 C 0.42515 0.23937 0.83919 0.0
C2301 C 0.42668 0.22611 0.79548 0.0
C2302 C 0.42197 0.23329 0.89938 0.0
C2303 C 0.41985 0.21359 0.91787 0.0
H2304 H 0.42562 0.25418 0.82673 0.0
H2305 H 0.42028 0.24365 0.93125 0.0
S2306 S 0.42634 0.17478 0.82446 0.0
N2307 N 0.42887 0.19366 0.77798 0.0
N2308 N 0.42204 0.18216 0.88993 0.0
C2309 C 0.42254 0.20082 0.87569 0.0
C2310 C 0.42623 0.20712 0.8149 0.0
C2311 C 0.76791 0.19014 0.84237 0.0
C2312 C 0.7819 0.20395 0.79819 0.0
C2313 C 0.77405 0.193 0.90238 0.0
C2314 C 0.79453 0.20952 0.92017 0.0
H2315 H 0.75235 0.17665 0.83052 0.0
H2316 H 0.76297 0.18179 0.93481 0.0
S2317 S 0.83605 0.25192 0.82468 0.0
N2318 N 0.81638 0.23647 0.77894 0.0
N2319 N 0.82787 0.24105 0.89077 0.0
C2320 C 0.80827 0.22393 0.87732 0.0
C2321 C 0.80194 0.22138 0.81664 0.0
C2322 C 0.42829 0.19937 0.39874 0.0
C2323 C 0.41111 0.20239 0.41699 0.0
C2324 C 0.43101 0.19557 0.33893 0.0
C2325 C 0.41673 0.19482 0.29525 0.0
H2326 H 0.43996 0.20024 0.43074 0.0
H2327 H 0.44464 0.1938 0.32662 0.0
S2328 S 0.36779 0.19909 0.31954 0.0
N2329 N 0.37872 0.20264 0.38597 0.0
N2330 N 0.38377 0.19535 0.27456 0.0
C2331 C 0.39911 0.19701 0.31304 0.0
C2332 C 0.39632 0.20086 0.37358 0.0
C2333 C 0.78666 0.19888 0.37418 0.0
C2334 C 0.79995 0.21247 0.41923 0.0
C2335 C 0.78998 0.20554 0.31497 0.0
C2336 C 0.80704 0.22597 0.29789 0.0
H2337 H 0.77345 0.18297 0.38473 0.0
H2338 H 0.77922 0.19422 0.28231 0.0
S2339 S 0.84639 0.26775 0.39995 0.0
N2340 N 0.83061 0.24746 0.44371 0.0
N2341 N 0.83712 0.25992 0.3321 0.0
C2342 C 0.8203 0.23988 0.34288 0.0
C2343 C 0.81671 0.23314 0.40351 0.0
C2344 C 0.80618 0.58906 0.37496 0.0
C2345 C 0.79197 0.58735 0.42004 0.0
C2346 C 0.79975 0.58574 0.31556 0.0
C2347 C 0.77889 0.58099 0.2981 0.0
H2348 H 0.82246 0.5929 0.38559 0.0
H2349 H 0.81159 0.58745 0.28304 0.0
S2350 S 0.73532 0.57437 0.39998 0.0
N2351 N 0.75586 0.58003 0.44412 0.0
N2352 N 0.74382 0.5742 0.33205 0.0
C2353 C 0.76434 0.57887 0.34307 0.0
C2354 C 0.77086 0.58197 0.40401 0.0
C2355 C 0.53438 0.09816 0.76898 0.0
C2356 C 0.53769 0.0812 0.75051 0.0
C2357 C 0.52989 0.10032 0.82856 0.0
C2358 C 0.52867 0.08565 0.87164 0.0
H2359 H 0.53555 0.11008 0.73739 0.0
H2360 H 0.52794 0.11382 0.84121 0.0
S2361 S 0.53334 0.03703 0.84621 0.0
N2362 N 0.53766 0.04856 0.78044 0.0
N2363 N 0.52904 0.05257 0.89141 0.0
C2364 C 0.53113 0.06824 0.85354 0.0
C2365 C 0.53571 0.06603 0.79328 0.0
C2366 C 0.92145 0.47091 0.79633 0.0
C2367 C 0.91918 0.45654 0.75113 0.0
C2368 C 0.9188 0.46465 0.85584 0.0
C2369 C 0.91423 0.44383 0.87311 0.0
H2370 H 0.92514 0.48714 0.78568 0.0
H2371 H 0.92083 0.47656 0.88853 0.0
S2372 S 0.90683 0.40009 0.77082 0.0
N2373 N 0.91186 0.42046 0.72673 0.0
N2374 N 0.90735 0.40876 0.83896 0.0
C2375 C 0.91176 0.4292 0.82803 0.0
C2376 C 0.91413 0.43553 0.76707 0.0
C2377 C 0.56806 0.47761 0.76879 0.0
C2378 C 0.5489 0.45928 0.75055 0.0
C2379 C 0.57439 0.48074 0.82876 0.0
C2380 C 0.56198 0.46543 0.87247 0.0
H2381 H 0.57777 0.49001 0.73691 0.0
H2382 H 0.58869 0.49562 0.84107 0.0
S2383 S 0.51244 0.41271 0.84396 0.0
N2384 N 0.5189 0.42462 0.77863 0.0
N2385 N 0.53103 0.42969 0.89015 0.0
C2386 C 0.5436 0.44625 0.85326 0.0
C2387 C 0.53697 0.4434 0.79269 0.0
C2388 C 0.58738 0.78802 0.68889 0.0
C2389 C 0.58123 0.80304 0.70705 0.0
C2390 C 0.59059 0.7852 0.62916 0.0
C2391 C 0.58737 0.79692 0.58464 0.0
H2392 H 0.59024 0.77854 0.72104 0.0
H2393 H 0.59549 0.7736 0.61782 0.0
S2394 S 0.57073 0.83782 0.60681 0.0
N2395 N 0.57177 0.8296 0.67448 0.0
N2396 N 0.57739 0.82392 0.56186 0.0
C2397 C 0.58073 0.81162 0.60147 0.0
C2398 C 0.57775 0.81476 0.66265 0.0
C2399 C 0.20294 0.77197 0.60261 0.0
C2400 C 0.20598 0.79212 0.58387 0.0
C2401 C 0.19855 0.76539 0.66221 0.0
C2402 C 0.1972 0.7788 0.70516 0.0
H2403 H 0.20419 0.76124 0.57116 0.0
H2404 H 0.19676 0.75002 0.67498 0.0
S2405 S 0.20135 0.83185 0.67929 0.0
N2406 N 0.20569 0.82463 0.61355 0.0
N2407 N 0.19726 0.81212 0.72466 0.0
C2408 C 0.19945 0.79857 0.68689 0.0
C2409 C 0.20391 0.80529 0.62653 0.0
C2410 C 0.23255 0.42276 0.60264 0.0
C2411 C 0.2125 0.4201 0.58531 0.0
C2412 C 0.23891 0.42583 0.6625 0.0
C2413 C 0.22559 0.42668 0.70715 0.0
H2414 H 0.24307 0.42171 0.56999 0.0
H2415 H 0.25406 0.42685 0.6739 0.0
S2416 S 0.17303 0.42422 0.68219 0.0
N2417 N 0.18045 0.42076 0.61583 0.0
N2418 N 0.1924 0.4272 0.72739 0.0
C2419 C 0.20609 0.42544 0.68922 0.0
C2420 C 0.19953 0.42193 0.62864 0.0
C2421 C 0.48578 0.91412 0.17035 0.0
C2422 C 0.47049 0.91206 0.12763 0.0
C2423 C 0.48348 0.91789 0.23049 0.0
C2424 C 0.46605 0.92014 0.24983 0.0
H2425 H 0.49997 0.9135 0.15712 0.0
H2426 H 0.49579 0.91977 0.2617 0.0
S2427 S 0.41974 0.91262 0.15932 0.0
N2428 N 0.43565 0.90969 0.11214 0.0
N2429 N 0.43211 0.91761 0.22387 0.0
C2430 C 0.45018 0.91707 0.20865 0.0
C2431 C 0.45218 0.91277 0.14798 0.0
C2432 C 0.09152 0.57292 0.17167 0.0
C2433 C 0.094 0.56009 0.12842 0.0
C2434 C 0.08765 0.56655 0.23162 0.0
C2435 C 0.0858 0.54698 0.25036 0.0
H2436 H 0.09179 0.58761 0.15898 0.0
H2437 H 0.08527 0.57659 0.26304 0.0
S2438 S 0.09497 0.50951 0.15853 0.0
N2439 N 0.0975 0.52835 0.11191 0.0
N2440 N 0.08949 0.51631 0.22331 0.0
C2441 C 0.08951 0.53471 0.20874 0.0
C2442 C 0.09386 0.54131 0.14821 0.0
C2443 C 0.43743 0.53144 0.17175 0.0
C2444 C 0.45053 0.5294 0.12912 0.0
C2445 C 0.44373 0.53521 0.23161 0.0
C2446 C 0.46329 0.53694 0.25093 0.0
H2447 H 0.42253 0.53065 0.15856 0.0
H2448 H 0.43329 0.53708 0.2628 0.0
S2449 S 0.50172 0.52973 0.15689 0.0
N2450 N 0.48272 0.52714 0.11074 0.0
N2451 N 0.49473 0.53448 0.22244 0.0
C2452 C 0.47609 0.53413 0.20868 0.0
C2453 C 0.46965 0.53027 0.14803 0.0
C2454 C 0.09764 0.53485 0.73023 0.0
C2455 C 0.07956 0.53614 0.74967 0.0
C2456 C 0.10025 0.53113 0.67022 0.0
C2457 C 0.08492 0.52866 0.62761 0.0
H2458 H 0.1101 0.53712 0.76137 0.0
H2459 H 0.1146 0.53081 0.65687 0.0
S2460 S 0.03346 0.52776 0.65566 0.0
N2461 N 0.04526 0.53274 0.72117 0.0
N2462 N 0.05011 0.52559 0.6095 0.0
C2463 C 0.06642 0.52902 0.64676 0.0
C2464 C 0.06376 0.53282 0.70743 0.0
C2465 C 0.48196 0.56454 0.7332 0.0
C2466 C 0.464 0.54495 0.75081 0.0
C2467 C 0.48504 0.57113 0.6735 0.0
C2468 C 0.4701 0.5585 0.62934 0.0
H2469 H 0.49413 0.57447 0.7654 0.0
H2470 H 0.49961 0.58584 0.66176 0.0
S2471 S 0.41821 0.50778 0.65596 0.0
N2472 N 0.42987 0.51436 0.72159 0.0
N2473 N 0.43498 0.52679 0.61042 0.0
C2474 C 0.45124 0.53963 0.64784 0.0
C2475 C 0.4484 0.53281 0.7082 0.0
C2476 C 0.47255 0.92236 0.70528 0.0
C2477 C 0.45785 0.92027 0.74932 0.0
C2478 C 0.46649 0.91859 0.64563 0.0
C2479 C 0.44553 0.913 0.62679 0.0
H2480 H 0.48894 0.92687 0.71693 0.0
H2481 H 0.47871 0.92065 0.61399 0.0
S2482 S 0.40068 0.90487 0.72567 0.0
N2483 N 0.42113 0.91151 0.77105 0.0
N2484 N 0.40978 0.90485 0.65843 0.0
C2485 C 0.43047 0.91041 0.67076 0.0
C2486 C 0.43662 0.91396 0.732 0.0
C2487 C 0.20011 0.43354 0.16412 0.0
C2488 C 0.1977 0.41842 0.20725 0.0
C2489 C 0.20411 0.43082 0.10463 0.0
C2490 C 0.20575 0.41285 0.08628 0.0
H2491 H 0.19943 0.44777 0.17666 0.0
H2492 H 0.20625 0.4431 0.07299 0.0
S2493 S 0.19762 0.36724 0.1819 0.0
N2494 N 0.19498 0.38386 0.22712 0.0
N2495 N 0.20281 0.37887 0.11611 0.0
C2496 C 0.20259 0.39727 0.12902 0.0
C2497 C 0.19846 0.40003 0.18926 0.0
C2498 C 0.58474 0.77049 0.1032 0.0
C2499 C 0.58555 0.78963 0.08484 0.0
C2500 C 0.58135 0.7641 0.16308 0.0
C2501 C 0.57823 0.77644 0.20648 0.0
H2502 H 0.58749 0.76079 0.07144 0.0
H2503 H 0.58189 0.7498 0.17556 0.0
S2504 S 0.57498 0.82592 0.17754 0.0
N2505 N 0.58063 0.8195 0.11245 0.0
N2506 N 0.57336 0.80736 0.22381 0.0
C2507 C 0.57751 0.79484 0.18715 0.0
C2508 C 0.58144 0.8015 0.12671 0.0
C2509 C 0.23988 0.8149 0.16048 0.0
C2510 C 0.22739 0.79996 0.20485 0.0
C2511 C 0.23341 0.81149 0.10065 0.0
C2512 C 0.21402 0.79327 0.08318 0.0
H2513 H 0.2544 0.82967 0.17212 0.0
H2514 H 0.24324 0.82361 0.06822 0.0
S2515 S 0.17707 0.74766 0.17871 0.0
N2516 N 0.19595 0.76469 0.22415 0.0
N2517 N 0.1836 0.75912 0.11282 0.0
C2518 C 0.20194 0.77778 0.12605 0.0
C2519 C 0.2087 0.78089 0.18651 0.0
C2520 C 0.17295 0.18387 0.28816 0.0
C2521 C 0.18056 0.20532 0.27036 0.0
C2522 C 0.18331 0.1725 0.26998 0.0
C2523 C 0.20159 0.18209 0.23288 0.0
H2524 H 0.15926 0.17598 0.3177 0.0
H2525 H 0.17732 0.15632 0.28657 0.0
S2526 S 0.22611 0.23682 0.16695 0.0
N2527 N 0.20652 0.23497 0.20929 0.0
N2528 N 0.22531 0.21355 0.17398 0.0
C2529 C 0.20862 0.20312 0.21241 0.0
C2530 C 0.19832 0.21474 0.23143 0.0
C2531 C 0.79133 0.99076 0.26273 0.0
C2532 C 0.80225 0.97923 0.27152 0.0
C2533 C 0.80205 0.0122 0.24388 0.0
C2534 C 0.82437 0.02344 0.23271 0.0
H2535 H 0.77415 0.98319 0.27012 0.0
H2536 H 0.79256 0.01998 0.23819 0.0
S2537 S 0.86088 1.001 0.24922 0.0
N2538 N 0.83694 0.98085 0.26772 0.0
N2539 N 0.85721 0.02135 0.23241 0.0
C2540 C 0.83567 0.01226 0.24147 0.0
C2541 C 0.82463 0.99018 0.26077 0.0
C2542 C 0.99224 0.78921 0.2382 0.0
C2543 C 0.9811 0.8004 0.2273 0.0
C2544 C 0.01371 0.79981 0.25717 0.0
C2545 C 0.02536 0.82226 0.26631 0.0
H2546 H 0.98432 0.77193 0.23236 0.0
H2547 H 0.02121 0.79014 0.26442 0.0
S2548 S 0.00392 0.8594 0.2444 0.0
N2549 N 0.98348 0.83545 0.22738 0.0
N2550 N 0.02397 0.85544 0.2628 0.0
C2551 C 0.01451 0.83379 0.25562 0.0
C2552 C 0.99244 0.82289 0.23625 0.0
C2553 C 0.83209 0.81827 0.76357 0.0
C2554 C 0.82196 0.79915 0.72982 0.0
C2555 C 0.82073 0.82851 0.78295 0.0
C2556 C 0.79871 0.81995 0.76985 0.0
H2557 H 0.8488 0.82515 0.77644 0.0
H2558 H 0.82916 0.84296 0.80954 0.0
S2559 S 0.76528 0.77163 0.67693 0.0
N2560 N 0.78907 0.77334 0.67951 0.0
N2561 N 0.76774 0.79198 0.71694 0.0
C2562 C 0.78863 0.80123 0.73452 0.0
C2563 C 0.80022 0.79101 0.71428 0.0
C2564 C 0.18397 0.0141 0.76104 0.0
C2565 C 0.20325 0.023 0.72797 0.0
C2566 C 0.17332 0.99238 0.77952 0.0
C2567 C 0.18161 0.97873 0.76613 0.0
H2568 H 0.17735 0.02412 0.77425 0.0
H2569 H 0.15882 0.98644 0.80588 0.0
S2570 S 0.23008 0.99332 0.67412 0.0
N2571 N 0.22882 0.01562 0.67752 0.0
N2572 N 0.20942 0.97544 0.71324 0.0
C2573 C 0.20043 0.98727 0.73116 0.0
C2574 C 0.21105 0.00919 0.71186 0.0
C2575 C 0.99019 0.17391 0.76228 0.0
C2576 C 0.98101 0.18426 0.73042 0.0
C2577 C 0.01183 0.1852 0.78133 0.0
C2578 C 0.02515 0.20735 0.7697 0.0
H2579 H 0.98047 0.15706 0.77392 0.0
H2580 H 0.01801 0.17659 0.80646 0.0
S2581 S 0.00972 0.24143 0.68178 0.0
N2582 N 0.98773 0.21756 0.68343 0.0
N2583 N 0.02782 0.23873 0.72003 0.0
C2584 C 0.01632 0.21768 0.73618 0.0
C2585 C 0.99445 0.20617 0.71638 0.0
C2586 C 0.87016 0.54653 0.59523 0.0
C2587 C 0.84764 0.5359 0.60245 0.0
C2588 C 0.88069 0.53568 0.57566 0.0
C2589 C 0.86934 0.51353 0.56222 0.0
H2590 H 0.87997 0.56356 0.60448 0.0
H2591 H 0.89804 0.54492 0.57138 0.0
S2592 S 0.81006 0.47782 0.57373 0.0
N2593 N 0.81419 0.50167 0.59453 0.0
N2594 N 0.83405 0.48119 0.55798 0.0
C2595 C 0.84677 0.50253 0.5694 0.0
C2596 C 0.83594 0.5137 0.58937 0.0
C2597 C 0.45564 0.32314 0.58956 0.0
C2598 C 0.46667 0.31185 0.60072 0.0
C2599 C 0.4664 0.34455 0.57028 0.0
C2600 C 0.48883 0.35597 0.56104 0.0
H2601 H 0.43838 0.31543 0.59562 0.0
H2602 H 0.45686 0.3522 0.56294 0.0
S2603 S 0.52555 0.33401 0.58299 0.0
N2604 N 0.50152 0.31377 0.60036 0.0
N2605 N 0.52182 0.35418 0.5643 0.0
C2606 C 0.50018 0.34493 0.57161 0.0
C2607 C 0.48912 0.32292 0.59134 0.0
C2608 C 0.65597 0.14412 0.62923 0.0
C2609 C 0.64751 0.13567 0.57277 0.0
C2610 C 0.6783 0.15514 0.63989 0.0
C2611 C 0.69297 0.15874 0.594 0.0
H2612 H 0.64521 0.14158 0.66595 0.0
H2613 H 0.68413 0.16088 0.68425 0.0
S2614 S 0.67926 0.14039 0.43821 0.0
N2615 N 0.65568 0.13161 0.47072 0.0
N2616 N 0.69758 0.15324 0.49001 0.0
C2617 C 0.68477 0.15082 0.53717 0.0
C2618 C 0.66207 0.13904 0.52674 0.0
C2619 C 0.48375 0.16054 0.113 0.0
C2620 C 0.46164 0.15187 0.10104 0.0
C2621 C 0.49495 0.15013 0.09377 0.0
C2622 C 0.48453 0.13071 0.06138 0.0
H2623 H 0.49238 0.17523 0.13857 0.0
H2624 H 0.51175 0.15708 0.10573 0.0
S2625 S 0.42751 0.1028 0.01143 0.0
N2626 N 0.43028 0.12349 0.05034 0.0
N2627 N 0.45129 0.10449 0.01332 0.0
C2628 C 0.46269 0.12245 0.0469 0.0
C2629 C 0.45128 0.13286 0.06692 0.0
C2630 C 0.88383 0.34524 0.07257 0.0
C2631 C 0.87275 0.35674 0.06649 0.0
C2632 C 0.87353 0.32394 0.09279 0.0
C2633 C 0.85153 0.31285 0.10804 0.0
H2634 H 0.90078 0.35273 0.06191 0.0
H2635 H 0.88306 0.31611 0.09618 0.0
S2636 S 0.81483 0.33533 0.10004 0.0
N2637 N 0.83828 0.35526 0.07741 0.0
N2638 N 0.81884 0.31508 0.11517 0.0
C2639 C 0.84009 0.32402 0.10198 0.0
C2640 C 0.85069 0.34591 0.08132 0.0
C2641 C 0.67991 0.5473 0.09604 0.0
C2642 C 0.69187 0.53674 0.10317 0.0
C2643 C 0.65848 0.53637 0.07662 0.0
C2644 C 0.64773 0.51422 0.06323 0.0
H2645 H 0.68712 0.56434 0.10524 0.0
H2646 H 0.6503 0.54554 0.07228 0.0
S2647 S 0.67146 0.47866 0.07472 0.0
N2648 N 0.69116 0.50255 0.09534 0.0
N2649 N 0.65079 0.48195 0.05907 0.0
C2650 C 0.65937 0.50329 0.07036 0.0
C2651 C 0.68138 0.51453 0.09021 0.0
C2652 C 0.50786 0.84868 0.96122 0.0
C2653 C 0.51462 0.86948 0.93913 0.0
C2654 C 0.51827 0.83721 0.94442 0.0
C2655 C 0.53575 0.84599 0.90441 0.0
H2656 H 0.49488 0.84145 0.99319 0.0
H2657 H 0.51298 0.82162 0.96441 0.0
S2658 S 0.55777 0.89863 0.82729 0.0
N2659 N 0.53884 0.89753 0.87109 0.0
N2660 N 0.55771 0.87588 0.83846 0.0
C2661 C 0.54185 0.86628 0.87968 0.0
C2662 C 0.5315 0.87802 0.89729 0.0
C2663 C 0.12276 0.65709 0.92277 0.0
C2664 C 0.13398 0.64592 0.93264 0.0
C2665 C 0.13323 0.67847 0.90326 0.0
C2666 C 0.15557 0.68997 0.8925 0.0
H2667 H 0.10555 0.64931 0.93001 0.0
H2668 H 0.12355 0.68601 0.89697 0.0
S2669 S 0.19273 0.66837 0.91073 0.0
N2670 N 0.16891 0.64806 0.92948 0.0
N2671 N 0.1887 0.68842 0.893 0.0
C2672 C 0.16713 0.67908 0.90186 0.0
C2673 C 0.15635 0.65709 0.92181 0.0
C2674 C 0.32361 0.47596 0.96327 0.0
C2675 C 0.31503 0.46824 0.90642 0.0
C2676 C 0.34596 0.48662 0.97368 0.0
C2677 C 0.36052 0.49057 0.92722 0.0
H2678 H 0.31294 0.4731 1.00045 0.0
H2679 H 0.35188 0.49177 0.01832 0.0
S2680 S 0.34648 0.4742 0.77021 0.0
N2681 N 0.32298 0.46529 0.80332 0.0
N2682 N 0.3649 0.48626 0.82226 0.0
C2683 C 0.35221 0.48342 0.87003 0.0
C2684 C 0.32948 0.47201 0.85978 0.0
C2685 C 0.15452 0.49673 0.46102 0.0
C2686 C 0.134 0.49031 0.4373 0.0
C2687 C 0.16625 0.48666 0.4436 0.0
C2688 C 0.15803 0.46992 0.40126 0.0
H2689 H 0.16125 0.50909 0.49486 0.0
H2690 H 0.18151 0.49154 0.46508 0.0
S2691 S 0.10652 0.44933 0.31907 0.0
N2692 N 0.10695 0.46737 0.36523 0.0
N2693 N 0.12915 0.44926 0.33118 0.0
C2694 C 0.13814 0.46432 0.3747 0.0
C2695 C 0.1261 0.47426 0.39306 0.0
C2696 C 0.507 0.65478 0.40319 0.0
C2697 C 0.51729 0.6462 0.43789 0.0
C2698 C 0.51804 0.67644 0.38419 0.0
C2699 C 0.53986 0.69031 0.39864 0.0
H2700 H 0.49046 0.64458 0.38924 0.0
H2701 H 0.50955 0.68217 0.35675 0.0
S2702 S 0.57341 0.67655 0.4947 0.0
N2703 N 0.54997 0.65412 0.49086 0.0
N2704 N 0.57073 0.69413 0.45389 0.0
C2705 C 0.55004 0.68206 0.435 0.0
C2706 C 0.53877 0.66024 0.45493 0.0
C2707 C 0.34595 0.84999 0.44293 0.0
C2708 C 0.35962 0.87196 0.42968 0.0
C2709 C 0.32421 0.83892 0.42453 0.0
C2710 C 0.31527 0.84934 0.39187 0.0
H2711 H 0.3519 0.84138 0.46895 0.0
H2712 H 0.31422 0.82223 0.43739 0.0
S2713 S 0.34486 0.90597 0.33896 0.0
N2714 N 0.36283 0.90314 0.37744 0.0
N2715 N 0.32254 0.88241 0.3424 0.0
C2716 C 0.32904 0.87102 0.37621 0.0
C2717 C 0.35101 0.88229 0.39519 0.0
C2718 C 0.3202 0.15156 0.19618 0.0
C2719 C 0.31236 0.16534 0.18035 0.0
C2720 C 0.34081 0.15598 0.17931 0.0
C2721 C 0.35466 0.17443 0.14577 0.0
H2722 H 0.31031 0.13708 0.22158 0.0
H2723 H 0.34589 0.14476 0.19315 0.0
S2724 S 0.34218 0.21598 0.09292 0.0
N2725 N 0.3204 0.1985 0.1291 0.0
N2726 N 0.35896 0.20662 0.09736 0.0
C2727 C 0.34709 0.18838 0.12951 0.0
C2728 C 0.32606 0.18391 0.14684 0.0
C2729 C 0.85025 0.18858 0.18221 0.0
C2730 C 0.83199 0.18422 0.14815 0.0
C2731 C 0.85485 0.17232 0.19724 0.0
C2732 C 0.84141 0.15088 0.17902 0.0
H2733 H 0.86117 0.20472 0.19792 0.0
H2734 H 0.86913 0.17669 0.22339 0.0
S2735 S 0.7916 0.1308 0.08819 0.0
N2736 N 0.8005 0.15676 0.09597 0.0
N2737 N 0.80897 0.12629 0.12413 0.0
C2738 C 0.82312 0.14629 0.14457 0.0
C2739 C 0.81847 0.16289 0.12917 0.0
C2740 C 0.8403 0.65696 0.13546 0.0
C2741 C 0.81876 0.64887 0.15287 0.0
C2742 C 0.85648 0.6778 0.15115 0.0
C2743 C 0.85195 0.69159 0.18518 0.0
H2744 H 0.84483 0.64711 0.10968 0.0
H2745 H 0.87271 0.68309 0.13616 0.0
S2746 S 0.79814 0.67844 0.24229 0.0
N2747 N 0.79383 0.65666 0.20611 0.0
N2748 N 0.82417 0.69548 0.23597 0.0
C2749 C 0.8305 0.68373 0.20308 0.0
C2750 C 0.81397 0.66254 0.18683 0.0
C2751 C 0.18259 0.3472 0.37369 0.0
C2752 C 0.16917 0.3555 0.35801 0.0
C2753 C 0.17778 0.3265 0.35632 0.0
C2754 C 0.15931 0.31304 0.32239 0.0
H2755 H 0.19716 0.35684 0.39899 0.0
H2756 H 0.18881 0.32111 0.36973 0.0
S2757 S 0.11838 0.32664 0.27081 0.0
N2758 N 0.13611 0.34815 0.30746 0.0
N2759 N 0.12732 0.3095 0.27448 0.0
C2760 C 0.14562 0.32101 0.30674 0.0
C2761 C 0.15046 0.3421 0.32467 0.0
C2762 C 0.66076 0.81508 0.31709 0.0
C2763 C 0.64699 0.81972 0.35087 0.0
C2764 C 0.68166 0.83115 0.30179 0.0
C2765 C 0.68987 0.85267 0.31941 0.0
H2766 H 0.65542 0.79884 0.30209 0.0
H2767 H 0.6915 0.82653 0.27622 0.0
S2768 S 0.66037 0.87355 0.40809 0.0
N2769 N 0.64316 0.84757 0.40135 0.0
N2770 N 0.68221 0.87773 0.3725 0.0
C2771 C 0.67622 0.85757 0.35305 0.0
C2772 C 0.65492 0.84116 0.3688 0.0
C2773 C 0.18992 0.84556 0.31425 0.0
C2774 C 0.18533 0.82721 0.34823 0.0
C2775 C 0.17376 0.8502 0.29819 0.0
C2776 C 0.15219 0.83671 0.3152 0.0
H2777 H 0.20619 0.85657 0.29963 0.0
H2778 H 0.17835 0.86462 0.27255 0.0
S2779 S 0.13139 0.78639 0.40407 0.0
N2780 N 0.15745 0.79542 0.39829 0.0
N2781 N 0.12714 0.80388 0.36786 0.0
C2782 C 0.14733 0.81821 0.34901 0.0
C2783 C 0.16383 0.81355 0.36559 0.0
C2784 C 0.6774 0.82308 0.85392 0.0
C2785 C 0.69116 0.84165 0.82074 0.0
C2786 C 0.65662 0.81834 0.87036 0.0
C2787 C 0.64853 0.83192 0.85452 0.0
H2788 H 0.68263 0.81196 0.86755 0.0
H2789 H 0.64678 0.80372 0.89528 0.0
S2790 S 0.6781 0.88289 0.76842 0.0
N2791 N 0.69513 0.87383 0.77294 0.0
N2792 N 0.65632 0.86513 0.80406 0.0
C2793 C 0.66219 0.85068 0.82164 0.0
C2794 C 0.68336 0.85546 0.80468 0.0
C2795 C 0.15559 0.81367 0.82229 0.0
C2796 C 0.17381 0.81828 0.85695 0.0
C2797 C 0.15097 0.82979 0.80589 0.0
C2798 C 0.16432 0.85132 0.82333 0.0
H2799 H 0.14475 0.79743 0.80708 0.0
H2800 H 0.13672 0.82523 0.77939 0.0
S2801 S 0.21407 0.87207 0.91485 0.0
N2802 N 0.20519 0.84606 0.90866 0.0
N2803 N 0.19673 0.87631 0.8778 0.0
C2804 C 0.18259 0.85616 0.85826 0.0
C2805 C 0.18725 0.8397 0.87509 0.0
C2806 C 0.16689 0.34846 0.86804 0.0
C2807 C 0.18836 0.3566 0.84986 0.0
C2808 C 0.15067 0.32766 0.85261 0.0
C2809 C 0.15506 0.31386 0.81822 0.0
H2810 H 0.1624 0.35828 0.89415 0.0
H2811 H 0.1345 0.32242 0.86805 0.0
S2812 S 0.20867 0.32702 0.7595 0.0
N2813 N 0.21313 0.34887 0.79562 0.0
N2814 N 0.18267 0.30991 0.76666 0.0
C2815 C 0.17646 0.32169 0.7998 0.0
C2816 C 0.19305 0.34294 0.81561 0.0
C2817 C 0.82499 0.67729 0.65276 0.0
C2818 C 0.84333 0.69096 0.68693 0.0
C2819 C 0.82021 0.65645 0.63681 0.0
C2820 C 0.83356 0.64823 0.65409 0.0
H2821 H 0.81412 0.68268 0.6378 0.0
H2822 H 0.80583 0.6467 0.6109 0.0
S2823 S 0.88369 0.67742 0.74397 0.0
N2824 N 0.87485 0.69458 0.73787 0.0
N2825 N 0.86618 0.65575 0.70749 0.0
C2826 C 0.85201 0.66176 0.68827 0.0
C2827 C 0.85679 0.68296 0.7048 0.0
C2828 C 0.32688 0.14737 0.65768 0.0
C2829 C 0.31333 0.15202 0.69246 0.0
C2830 C 0.34763 0.16346 0.64108 0.0
C2831 C 0.35588 0.18502 0.65842 0.0
H2832 H 0.32141 0.13112 0.64246 0.0
H2833 H 0.35725 0.15887 0.61445 0.0
S2834 S 0.32709 0.20585 0.75048 0.0
N2835 N 0.3099 0.17985 0.74439 0.0
N2836 N 0.3486 0.21005 0.71314 0.0
C2837 C 0.34252 0.18989 0.69357 0.0
C2838 C 0.32139 0.17345 0.71062 0.0
C2839 C 0.85544 0.17945 0.65476 0.0
C2840 C 0.85073 0.16126 0.68953 0.0
C2841 C 0.83941 0.18405 0.63765 0.0
C2842 C 0.8178 0.17077 0.65464 0.0
H2843 H 0.87173 0.19038 0.64013 0.0
H2844 H 0.84417 0.19836 0.6113 0.0
S2845 S 0.7966 0.12076 0.74485 0.0
N2846 N 0.82266 0.12964 0.73976 0.0
N2847 N 0.79249 0.13821 0.70776 0.0
C2848 C 0.81276 0.15238 0.68913 0.0
C2849 C 0.82918 0.14768 0.70657 0.0
C2850 C 0.01242 0.51688 0.46535 0.0
C2851 C 0.02081 0.50371 0.48275 0.0
C2852 C 0.99165 0.51211 0.48206 0.0
C2853 C 0.97824 0.49395 0.51713 0.0
H2854 H 0.02198 0.53113 0.4388 0.0
H2855 H 0.98612 0.52284 0.46698 0.0
S2856 S 0.99239 0.45418 0.57532 0.0
N2857 N 0.01378 0.4715 0.53752 0.0
N2858 N 0.97509 0.46285 0.56935 0.0
C2859 C 0.98643 0.48068 0.53525 0.0
C2860 C 0.00755 0.48545 0.51793 0.0
C2861 C 0.48639 0.49685 0.47341 0.0
C2862 C 0.50008 0.51843 0.48996 0.0
C2863 C 0.49079 0.4806 0.49004 0.0
C2864 C 0.50911 0.4851 0.52408 0.0
H2865 H 0.47203 0.49235 0.44753 0.0
H2866 H 0.47968 0.46434 0.47557 0.0
S2867 S 0.5503 0.53897 0.57925 0.0
N2868 N 0.53297 0.54336 0.54265 0.0
N2869 N 0.54101 0.51286 0.57402 0.0
C2870 C 0.52292 0.50658 0.54121 0.0
C2871 C 0.51849 0.52318 0.5241 0.0
C2872 C 0.52486 0.01165 0.48108 0.0
C2873 C 0.52042 0.02452 0.51937 0.0
C2874 C 0.50891 0.99063 0.46566 0.0
C2875 C 0.48775 0.98151 0.48768 0.0
H2876 H 0.54077 0.01789 0.46218 0.0
H2877 H 0.51323 0.98154 0.43598 0.0
S2878 S 0.46785 0.00812 0.5915 0.0
N2879 N 0.49334 0.02619 0.58049 0.0
N2880 N 0.46351 0.98714 0.55134 0.0
C2881 C 0.48319 0.99417 0.52662 0.0
C2882 C 0.49944 0.01549 0.5425 0.0
C2883 C 0.48835 0.00908 0.98806 0.0
C2884 C 0.50671 0.02294 0.02189 0.0
C2885 C 0.48408 0.98852 0.97082 0.0
C2886 C 0.49794 0.98076 0.98654 0.0
H2887 H 0.47708 0.01412 0.97421 0.0
H2888 H 0.46966 0.97862 0.94518 0.0
S2889 S 0.54842 0.01065 0.07469 0.0
N2890 N 0.53888 0.02728 0.07062 0.0
N2891 N 0.53111 0.98893 0.03798 0.0
C2892 C 0.51643 0.99448 0.02036 0.0
C2893 C 0.52071 0.01542 0.03813 0.0
C2894 C 0.99514 0.48089 0.98743 0.0
C2895 C 0.98145 0.4854 0.02205 0.0
C2896 C 0.01596 0.49707 0.97162 0.0
C2897 C 0.02412 0.51855 0.98956 0.0
H2898 H 0.98974 0.4647 0.97187 0.0
H2899 H 0.02571 0.4926 0.94511 0.0
S2900 S 0.99494 0.53898 0.08153 0.0
N2901 N 0.97779 0.51301 0.07449 0.0
N2902 N 0.0166 0.54334 0.04468 0.0
C2903 C 0.01061 0.52327 0.02452 0.0
C2904 C 0.98943 0.50676 0.04079 0.0
C2905 C 0.52265 0.50909 0.97708 0.0
C2906 C 0.51803 0.491 0.01222 0.0
C2907 C 0.50658 0.51371 0.96037 0.0
C2908 C 0.48503 0.50051 0.97798 0.0
H2909 H 0.53892 0.51999 0.96221 0.0
H2910 H 0.51128 0.52801 0.93403 0.0
S2911 S 0.46403 0.4507 0.06896 0.0
N2912 N 0.49007 0.45954 0.06329 0.0
N2913 N 0.45985 0.46804 0.03166 0.0
C2914 C 0.48006 0.48215 0.01252 0.0
C2915 C 0.49651 0.47747 0.02972 0.0
loop_
_geom_bond_atom_site_label_1
_geom_bond_atom_site_label_2
_geom_bond_distance
_geom_bond_site_symmetry_2
_ccdc_geom_bond_type
Co0 O2 2.143 . S
Co0 O8 2.074 . S
Co0 O11 2.093 . S
Co0 O24 2.097 . S
Co0 N41 2.151 . S
Co0 N49 2.214 . S
Co1 O2 2.160 . S
Co1 O7 2.058 . S
Co1 O17 2.057 . S
Co1 O32 2.037 . S
Co1 N36 2.145 . S
Co1 N57 2.257 . S
O2 Co0 2.143 . S
O2 Co1 2.160 . S
C3 O4 1.278 . S
C3 O11 1.224 . S
O4 C3 1.278 . S
C5 O6 1.245 . S
C5 O17 1.232 . S
O6 C5 1.245 . S
O7 Co1 2.058 . S
O7 C33 1.269 . S
O8 Co0 2.074 . S
O8 C33 1.257 . S
H9 C34 0.930 . S
H10 C40 0.930 . S
O11 Co0 2.093 . S
O11 C3 1.224 . S
H12 C44 0.929 . S
H13 C46 0.930 . S
H14 C47 0.930 . S
H15 C45 0.929 . S
H16 C48 0.928 . S
O17 Co1 2.057 . S
O17 C5 1.232 . S
H18 C37 0.929 . S
H19 C38 0.929 . S
H20 C50 0.931 . S
H21 C42 0.929 . S
H22 C51 0.930 . S
H23 C43 0.931 . S
O24 Co0 2.097 . S
O24 C52 1.214 . S
H25 C53 0.929 . S
H26 C54 0.929 . S
H27 C55 0.930 . S
H28 C56 0.929 . S
H29 C58 0.930 . S
H30 C35 0.930 . S
H31 C39 0.930 . S
O32 Co1 2.037 . S
O32 C52 1.234 . S
C33 O7 1.269 . S
C33 O8 1.257 . S
C34 H9 0.930 . S
C34 C37 1.388 . S
C34 C39 1.418 . S
C35 H30 0.930 . S
C35 C38 1.404 . S
C35 C39 1.353 . S
N36 Co1 2.145 . S
N36 C37 1.397 . S
N36 C38 1.334 . S
C37 H18 0.929 . S
C37 C34 1.388 . S
C37 N36 1.397 . S
C38 H19 0.929 . S
C38 C35 1.404 . S
C38 N36 1.334 . S
C39 H31 0.930 . S
C39 C34 1.418 . S
C39 C35 1.353 . S
C40 H10 0.930 . S
C40 N41 1.330 . S
C40 C42 1.446 . S
N41 Co0 2.151 . S
N41 C40 1.330 . S
N41 C45 1.418 . S
C42 H21 0.929 . S
C42 C40 1.446 . S
C42 C43 1.332 . S
C43 H23 0.931 . S
C43 C42 1.332 . S
C43 C44 1.267 . S
C44 H12 0.929 . S
C44 C43 1.267 . S
C44 C45 1.251 . S
C45 H15 0.929 . S
C45 N41 1.418 . S
C45 C44 1.251 . S
C46 H13 0.930 . S
C46 C48 1.406 . S
C46 C51 1.261 . S
C47 H14 0.930 . S
C47 N49 1.325 . S
C47 C50 1.357 . S
C48 H16 0.928 . S
C48 C46 1.406 . S
C48 N49 1.261 . S
N49 Co0 2.214 . S
N49 C47 1.325 . S
N49 C48 1.261 . S
C50 H20 0.931 . S
C50 C47 1.357 . S
C50 C51 1.312 . S
C51 H22 0.930 . S
C51 C46 1.261 . S
C51 C50 1.312 . S
C52 O24 1.214 . S
C52 O32 1.234 . S
C53 H25 0.929 . S
C53 C56 1.391 . S
C53 C58 1.391 . S
C54 H26 0.929 . S
C54 C55 1.390 . S
C54 N57 1.391 . S
C55 H27 0.930 . S
C55 C54 1.390 . S
C55 C56 1.392 . S
C56 H28 0.929 . S
C56 C53 1.391 . S
C56 C55 1.392 . S
N57 Co1 2.257 . S
N57 C54 1.391 . S
N57 C58 1.388 . S
C58 H29 0.930 . S
C58 C53 1.391 . S
C58 N57 1.388 . S
Co59 O61 2.143 . S
Co59 O67 2.074 . S
Co59 O70 2.093 . S
Co59 O83 2.097 . S
Co59 N100 2.151 . S
Co59 N108 2.214 . S
Co60 O61 2.160 . S
Co60 O66 2.058 . S
Co60 O76 2.057 . S
Co60 O91 2.037 . S
Co60 N95 2.145 . S
Co60 N116 2.257 . S
O61 Co59 2.143 . S
O61 Co60 2.160 . S
C62 O63 1.278 . S
C62 O70 1.224 . S
O63 C62 1.278 . S
C64 O65 1.245 . S
C64 O76 1.232 . S
O65 C64 1.245 . S
O66 Co60 2.058 . S
O66 C92 1.269 . S
O67 Co59 2.074 . S
O67 C92 1.257 . S
H68 C93 0.930 . S
H69 C99 0.930 . S
O70 Co59 2.093 . S
O70 C62 1.224 . S
H71 C103 0.929 . S
H72 C105 0.930 . S
H73 C106 0.930 . S
H74 C104 0.929 . S
H75 C107 0.928 . S
O76 Co60 2.057 . S
O76 C64 1.232 . S
H77 C96 0.929 . S
H78 C97 0.929 . S
H79 C109 0.931 . S
H80 C101 0.929 . S
H81 C110 0.930 . S
H82 C102 0.931 . S
O83 Co59 2.097 . S
O83 C111 1.214 . S
H84 C112 0.929 . S
H85 C113 0.929 . S
H86 C114 0.930 . S
H87 C115 0.929 . S
H88 C117 0.930 . S
H89 C94 0.930 . S
H90 C98 0.930 . S
O91 Co60 2.037 . S
O91 C111 1.234 . S
C92 O66 1.269 . S
C92 O67 1.257 . S
C93 H68 0.930 . S
C93 C96 1.388 . S
C93 C98 1.418 . S
C94 H89 0.930 . S
C94 C97 1.404 . S
C94 C98 1.353 . S
N95 Co60 2.145 . S
N95 C96 1.397 . S
N95 C97 1.334 . S
C96 H77 0.929 . S
C96 C93 1.388 . S
C96 N95 1.397 . S
C97 H78 0.929 . S
C97 C94 1.404 . S
C97 N95 1.334 . S
C98 H90 0.930 . S
C98 C93 1.418 . S
C98 C94 1.353 . S
C99 H69 0.930 . S
C99 N100 1.330 . S
C99 C101 1.446 . S
N100 Co59 2.151 . S
N100 C99 1.330 . S
N100 C104 1.418 . S
C101 H80 0.929 . S
C101 C99 1.446 . S
C101 C102 1.332 . S
C102 H82 0.931 . S
C102 C101 1.332 . S
C102 C103 1.267 . S
C103 H71 0.929 . S
C103 C102 1.267 . S
C103 C104 1.251 . S
C104 H74 0.929 . S
C104 N100 1.418 . S
C104 C103 1.251 . S
C105 H72 0.930 . S
C105 C107 1.406 . S
C105 C110 1.261 . S
C106 H73 0.930 . S
C106 N108 1.325 . S
C106 C109 1.357 . S
C107 H75 0.928 . S
C107 C105 1.406 . S
C107 N108 1.261 . S
N108 Co59 2.214 . S
N108 C106 1.325 . S
N108 C107 1.261 . S
C109 H79 0.931 . S
C109 C106 1.357 . S
C109 C110 1.312 . S
C110 H81 0.930 . S
C110 C105 1.261 . S
C110 C109 1.312 . S
C111 O83 1.214 . S
C111 O91 1.234 . S
C112 H84 0.929 . S
C112 C115 1.391 . S
C112 C117 1.391 . S
C113 H85 0.929 . S
C113 C114 1.390 . S
C113 N116 1.391 . S
C114 H86 0.930 . S
C114 C113 1.390 . S
C114 C115 1.392 . S
C115 H87 0.929 . S
C115 C112 1.391 . S
C115 C114 1.392 . S
N116 Co60 2.257 . S
N116 C113 1.391 . S
N116 C117 1.388 . S
C117 H88 0.930 . S
C117 C112 1.391 . S
C117 N116 1.388 . S
Co118 O120 2.143 . S
Co118 O126 2.074 . S
Co118 O129 2.093 . S
Co118 O142 2.097 . S
Co118 N159 2.151 . S
Co118 N167 2.214 . S
Co119 O120 2.160 . S
Co119 O125 2.058 . S
Co119 O135 2.057 . S
Co119 O150 2.037 . S
Co119 N154 2.145 . S
Co119 N175 2.257 . S
O120 Co118 2.143 . S
O120 Co119 2.160 . S
C121 O122 1.278 . S
C121 O129 1.224 . S
O122 C121 1.278 . S
C123 O124 1.245 . S
C123 O135 1.232 . S
O124 C123 1.245 . S
O125 Co119 2.058 . S
O125 C151 1.269 . S
O126 Co118 2.074 . S
O126 C151 1.257 . S
H127 C152 0.930 . S
H128 C158 0.930 . S
O129 Co118 2.093 . S
O129 C121 1.224 . S
H130 C162 0.929 . S
H131 C164 0.930 . S
H132 C165 0.930 . S
H133 C163 0.929 . S
H134 C166 0.928 . S
O135 Co119 2.057 . S
O135 C123 1.232 . S
H136 C155 0.929 . S
H137 C156 0.929 . S
H138 C168 0.931 . S
H139 C160 0.929 . S
H140 C169 0.930 . S
H141 C161 0.931 . S
O142 Co118 2.097 . S
O142 C170 1.214 . S
H143 C171 0.929 . S
H144 C172 0.929 . S
H145 C173 0.930 . S
H146 C174 0.929 . S
H147 C176 0.930 . S
H148 C153 0.930 . S
H149 C157 0.930 . S
O150 Co119 2.037 . S
O150 C170 1.234 . S
C151 O125 1.269 . S
C151 O126 1.257 . S
C152 H127 0.930 . S
C152 C155 1.388 . S
C152 C157 1.418 . S
C153 H148 0.930 . S
C153 C156 1.404 . S
C153 C157 1.353 . S
N154 Co119 2.145 . S
N154 C155 1.397 . S
N154 C156 1.334 . S
C155 H136 0.929 . S
C155 C152 1.388 . S
C155 N154 1.397 . S
C156 H137 0.929 . S
C156 C153 1.404 . S
C156 N154 1.334 . S
C157 H149 0.930 . S
C157 C152 1.418 . S
C157 C153 1.353 . S
C158 H128 0.930 . S
C158 N159 1.330 . S
C158 C160 1.446 . S
N159 Co118 2.151 . S
N159 C158 1.330 . S
N159 C163 1.418 . S
C160 H139 0.929 . S
C160 C158 1.446 . S
C160 C161 1.332 . S
C161 H141 0.931 . S
C161 C160 1.332 . S
C161 C162 1.267 . S
C162 H130 0.929 . S
C162 C161 1.267 . S
C162 C163 1.251 . S
C163 H133 0.929 . S
C163 N159 1.418 . S
C163 C162 1.251 . S
C164 H131 0.930 . S
C164 C166 1.406 . S
C164 C169 1.261 . S
C165 H132 0.930 . S
C165 N167 1.325 . S
C165 C168 1.357 . S
C166 H134 0.928 . S
C166 C164 1.406 . S
C166 N167 1.261 . S
N167 Co118 2.214 . S
N167 C165 1.325 . S
N167 C166 1.261 . S
C168 H138 0.931 . S
C168 C165 1.357 . S
C168 C169 1.312 . S
C169 H140 0.930 . S
C169 C164 1.261 . S
C169 C168 1.312 . S
C170 O142 1.214 . S
C170 O150 1.234 . S
C171 H143 0.929 . S
C171 C174 1.391 . S
C171 C176 1.391 . S
C172 H144 0.929 . S
C172 C173 1.390 . S
C172 N175 1.391 . S
C173 H145 0.930 . S
C173 C172 1.390 . S
C173 C174 1.392 . S
C174 H146 0.929 . S
C174 C171 1.391 . S
C174 C173 1.392 . S
N175 Co119 2.257 . S
N175 C172 1.391 . S
N175 C176 1.388 . S
C176 H147 0.930 . S
C176 C171 1.391 . S
C176 N175 1.388 . S
Co177 O179 2.143 . S
Co177 O185 2.074 . S
Co177 O188 2.093 . S
Co177 O201 2.097 . S
Co177 N218 2.151 . S
Co177 N226 2.214 . S
Co178 O179 2.160 . S
Co178 O184 2.058 . S
Co178 O194 2.057 . S
Co178 O209 2.037 . S
Co178 N213 2.145 . S
Co178 N234 2.257 . S
O179 Co177 2.143 . S
O179 Co178 2.160 . S
C180 O181 1.278 . S
C180 O188 1.224 . S
O181 C180 1.278 . S
C182 O183 1.245 . S
C182 O194 1.232 . S
O183 C182 1.245 . S
O184 Co178 2.058 . S
O184 C210 1.269 . S
O185 Co177 2.074 . S
O185 C210 1.257 . S
H186 C211 0.930 . S
H187 C217 0.930 . S
O188 Co177 2.093 . S
O188 C180 1.224 . S
H189 C221 0.929 . S
H190 C223 0.930 . S
H191 C224 0.930 . S
H192 C222 0.929 . S
H193 C225 0.928 . S
O194 Co178 2.057 . S
O194 C182 1.232 . S
H195 C214 0.929 . S
H196 C215 0.929 . S
H197 C227 0.931 . S
H198 C219 0.929 . S
H199 C228 0.930 . S
H200 C220 0.931 . S
O201 Co177 2.097 . S
O201 C229 1.214 . S
H202 C230 0.929 . S
H203 C231 0.929 . S
H204 C232 0.930 . S
H205 C233 0.929 . S
H206 C235 0.930 . S
H207 C212 0.930 . S
H208 C216 0.930 . S
O209 Co178 2.037 . S
O209 C229 1.234 . S
C210 O184 1.269 . S
C210 O185 1.257 . S
C211 H186 0.930 . S
C211 C214 1.388 . S
C211 C216 1.418 . S
C212 H207 0.930 . S
C212 C215 1.404 . S
C212 C216 1.353 . S
N213 Co178 2.145 . S
N213 C214 1.397 . S
N213 C215 1.334 . S
C214 H195 0.929 . S
C214 C211 1.388 . S
C214 N213 1.397 . S
C215 H196 0.929 . S
C215 C212 1.404 . S
C215 N213 1.334 . S
C216 H208 0.930 . S
C216 C211 1.418 . S
C216 C212 1.353 . S
C217 H187 0.930 . S
C217 N218 1.330 . S
C217 C219 1.446 . S
N218 Co177 2.151 . S
N218 C217 1.330 . S
N218 C222 1.418 . S
C219 H198 0.929 . S
C219 C217 1.446 . S
C219 C220 1.332 . S
C220 H200 0.931 . S
C220 C219 1.332 . S
C220 C221 1.267 . S
C221 H189 0.929 . S
C221 C220 1.267 . S
C221 C222 1.251 . S
C222 H192 0.929 . S
C222 N218 1.418 . S
C222 C221 1.251 . S
C223 H190 0.930 . S
C223 C225 1.406 . S
C223 C228 1.261 . S
C224 H191 0.930 . S
C224 N226 1.325 . S
C224 C227 1.357 . S
C225 H193 0.928 . S
C225 C223 1.406 . S
C225 N226 1.261 . S
N226 Co177 2.214 . S
N226 C224 1.325 . S
N226 C225 1.261 . S
C227 H197 0.931 . S
C227 C224 1.357 . S
C227 C228 1.312 . S
C228 H199 0.930 . S
C228 C223 1.261 . S
C228 C227 1.312 . S
C229 O201 1.214 . S
C229 O209 1.234 . S
C230 H202 0.929 . S
C230 C233 1.391 . S
C230 C235 1.391 . S
C231 H203 0.929 . S
C231 C232 1.390 . S
C231 N234 1.391 . S
C232 H204 0.930 . S
C232 C231 1.390 . S
C232 C233 1.392 . S
C233 H205 0.929 . S
C233 C230 1.391 . S
C233 C232 1.392 . S
N234 Co178 2.257 . S
N234 C231 1.391 . S
N234 C235 1.388 . S
C235 H206 0.930 . S
C235 C230 1.391 . S
C235 N234 1.388 . S
Co236 O238 2.143 . S
Co236 O244 2.074 . S
Co236 O247 2.093 . S
Co236 O260 2.097 . S
Co236 N277 2.151 . S
Co236 N285 2.214 . S
Co237 O238 2.160 . S
Co237 O243 2.058 . S
Co237 O253 2.057 . S
Co237 O268 2.037 . S
Co237 N272 2.145 . S
Co237 N293 2.257 . S
O238 Co236 2.143 . S
O238 Co237 2.160 . S
C239 O240 1.278 . S
C239 O247 1.224 . S
O240 C239 1.278 . S
C241 O242 1.245 . S
C241 O253 1.232 . S
O242 C241 1.245 . S
O243 Co237 2.058 . S
O243 C269 1.269 . S
O244 Co236 2.074 . S
O244 C269 1.257 . S
H245 C270 0.930 . S
H246 C276 0.930 . S
O247 Co236 2.093 . S
O247 C239 1.224 . S
H248 C280 0.929 . S
H249 C282 0.930 . S
H250 C283 0.930 . S
H251 C281 0.929 . S
H252 C284 0.928 . S
O253 Co237 2.057 . S
O253 C241 1.232 . S
H254 C273 0.929 . S
H255 C274 0.929 . S
H256 C286 0.931 . S
H257 C278 0.929 . S
H258 C287 0.930 . S
H259 C279 0.931 . S
O260 Co236 2.097 . S
O260 C288 1.214 . S
H261 C289 0.929 . S
H262 C290 0.929 . S
H263 C291 0.930 . S
H264 C292 0.929 . S
H265 C294 0.930 . S
H266 C271 0.930 . S
H267 C275 0.930 . S
O268 Co237 2.037 . S
O268 C288 1.234 . S
C269 O243 1.269 . S
C269 O244 1.257 . S
C270 H245 0.930 . S
C270 C273 1.388 . S
C270 C275 1.418 . S
C271 H266 0.930 . S
C271 C274 1.404 . S
C271 C275 1.353 . S
N272 Co237 2.145 . S
N272 C273 1.397 . S
N272 C274 1.334 . S
C273 H254 0.929 . S
C273 C270 1.388 . S
C273 N272 1.397 . S
C274 H255 0.929 . S
C274 C271 1.404 . S
C274 N272 1.334 . S
C275 H267 0.930 . S
C275 C270 1.418 . S
C275 C271 1.353 . S
C276 H246 0.930 . S
C276 N277 1.330 . S
C276 C278 1.446 . S
N277 Co236 2.151 . S
N277 C276 1.330 . S
N277 C281 1.418 . S
C278 H257 0.929 . S
C278 C276 1.446 . S
C278 C279 1.332 . S
C279 H259 0.931 . S
C279 C278 1.332 . S
C279 C280 1.267 . S
C280 H248 0.929 . S
C280 C279 1.267 . S
C280 C281 1.251 . S
C281 H251 0.929 . S
C281 N277 1.418 . S
C281 C280 1.251 . S
C282 H249 0.930 . S
C282 C284 1.406 . S
C282 C287 1.261 . S
C283 H250 0.930 . S
C283 N285 1.325 . S
C283 C286 1.357 . S
C284 H252 0.928 . S
C284 C282 1.406 . S
C284 N285 1.261 . S
N285 Co236 2.214 . S
N285 C283 1.325 . S
N285 C284 1.261 . S
C286 H256 0.931 . S
C286 C283 1.357 . S
C286 C287 1.312 . S
C287 H258 0.930 . S
C287 C282 1.261 . S
C287 C286 1.312 . S
C288 O260 1.214 . S
C288 O268 1.234 . S
C289 H261 0.929 . S
C289 C292 1.391 . S
C289 C294 1.391 . S
C290 H262 0.929 . S
C290 C291 1.390 . S
C290 N293 1.391 . S
C291 H263 0.930 . S
C291 C290 1.390 . S
C291 C292 1.392 . S
C292 H264 0.929 . S
C292 C289 1.391 . S
C292 C291 1.392 . S
N293 Co237 2.257 . S
N293 C290 1.391 . S
N293 C294 1.388 . S
C294 H265 0.930 . S
C294 C289 1.391 . S
C294 N293 1.388 . S
Co295 O297 2.143 . S
Co295 O303 2.074 . S
Co295 O306 2.093 . S
Co295 O319 2.097 . S
Co295 N336 2.151 . S
Co295 N344 2.214 . S
Co296 O297 2.160 . S
Co296 O302 2.058 . S
Co296 O312 2.057 . S
Co296 O327 2.037 . S
Co296 N331 2.145 . S
Co296 N352 2.257 . S
O297 Co295 2.143 . S
O297 Co296 2.160 . S
C298 O299 1.278 . S
C298 O306 1.224 . S
O299 C298 1.278 . S
C300 O301 1.245 . S
C300 O312 1.232 . S
O301 C300 1.245 . S
O302 Co296 2.058 . S
O302 C328 1.269 . S
O303 Co295 2.074 . S
O303 C328 1.257 . S
H304 C329 0.930 . S
H305 C335 0.930 . S
O306 Co295 2.093 . S
O306 C298 1.224 . S
H307 C339 0.929 . S
H308 C341 0.930 . S
H309 C342 0.930 . S
H310 C340 0.929 . S
H311 C343 0.928 . S
O312 Co296 2.057 . S
O312 C300 1.232 . S
H313 C332 0.929 . S
H314 C333 0.929 . S
H315 C345 0.931 . S
H316 C337 0.929 . S
H317 C346 0.930 . S
H318 C338 0.931 . S
O319 Co295 2.097 . S
O319 C347 1.214 . S
H320 C348 0.929 . S
H321 C349 0.929 . S
H322 C350 0.930 . S
H323 C351 0.929 . S
H324 C353 0.930 . S
H325 C330 0.930 . S
H326 C334 0.930 . S
O327 Co296 2.037 . S
O327 C347 1.234 . S
C328 O302 1.269 . S
C328 O303 1.257 . S
C329 H304 0.930 . S
C329 C332 1.388 . S
C329 C334 1.418 . S
C330 H325 0.930 . S
C330 C333 1.404 . S
C330 C334 1.353 . S
N331 Co296 2.145 . S
N331 C332 1.397 . S
N331 C333 1.334 . S
C332 H313 0.929 . S
C332 C329 1.388 . S
C332 N331 1.397 . S
C333 H314 0.929 . S
C333 C330 1.404 . S
C333 N331 1.334 . S
C334 H326 0.930 . S
C334 C329 1.418 . S
C334 C330 1.353 . S
C335 H305 0.930 . S
C335 N336 1.330 . S
C335 C337 1.446 . S
N336 Co295 2.151 . S
N336 C335 1.330 . S
N336 C340 1.418 . S
C337 H316 0.929 . S
C337 C335 1.446 . S
C337 C338 1.332 . S
C338 H318 0.931 . S
C338 C337 1.332 . S
C338 C339 1.267 . S
C339 H307 0.929 . S
C339 C338 1.267 . S
C339 C340 1.251 . S
C340 H310 0.929 . S
C340 N336 1.418 . S
C340 C339 1.251 . S
C341 H308 0.930 . S
C341 C343 1.406 . S
C341 C346 1.261 . S
C342 H309 0.930 . S
C342 N344 1.325 . S
C342 C345 1.357 . S
C343 H311 0.928 . S
C343 C341 1.406 . S
C343 N344 1.261 . S
N344 Co295 2.214 . S
N344 C342 1.325 . S
N344 C343 1.261 . S
C345 H315 0.931 . S
C345 C342 1.357 . S
C345 C346 1.312 . S
C346 H317 0.930 . S
C346 C341 1.261 . S
C346 C345 1.312 . S
C347 O319 1.214 . S
C347 O327 1.234 . S
C348 H320 0.929 . S
C348 C351 1.391 . S
C348 C353 1.391 . S
C349 H321 0.929 . S
C349 C350 1.390 . S
C349 N352 1.391 . S
C350 H322 0.930 . S
C350 C349 1.390 . S
C350 C351 1.392 . S
C351 H323 0.929 . S
C351 C348 1.391 . S
C351 C350 1.392 . S
N352 Co296 2.257 . S
N352 C349 1.391 . S
N352 C353 1.388 . S
C353 H324 0.930 . S
C353 C348 1.391 . S
C353 N352 1.388 . S
Co354 O356 2.143 . S
Co354 O362 2.074 . S
Co354 O365 2.093 . S
Co354 O378 2.097 . S
Co354 N395 2.151 . S
Co354 N403 2.214 . S
Co355 O356 2.160 . S
Co355 O361 2.058 . S
Co355 O371 2.057 . S
Co355 O386 2.037 . S
Co355 N390 2.145 . S
Co355 N411 2.257 . S
O356 Co354 2.143 . S
O356 Co355 2.160 . S
C357 O358 1.278 . S
C357 O365 1.224 . S
O358 C357 1.278 . S
C359 O360 1.245 . S
C359 O371 1.232 . S
O360 C359 1.245 . S
O361 Co355 2.058 . S
O361 C387 1.269 . S
O362 Co354 2.074 . S
O362 C387 1.257 . S
H363 C388 0.930 . S
H364 C394 0.930 . S
O365 Co354 2.093 . S
O365 C357 1.224 . S
H366 C398 0.929 . S
H367 C400 0.930 . S
H368 C401 0.930 . S
H369 C399 0.929 . S
H370 C402 0.928 . S
O371 Co355 2.057 . S
O371 C359 1.232 . S
H372 C391 0.929 . S
H373 C392 0.929 . S
H374 C404 0.931 . S
H375 C396 0.929 . S
H376 C405 0.930 . S
H377 C397 0.931 . S
O378 Co354 2.097 . S
O378 C406 1.214 . S
H379 C407 0.929 . S
H380 C408 0.929 . S
H381 C409 0.930 . S
H382 C410 0.929 . S
H383 C412 0.930 . S
H384 C389 0.930 . S
H385 C393 0.930 . S
O386 Co355 2.037 . S
O386 C406 1.234 . S
C387 O361 1.269 . S
C387 O362 1.257 . S
C388 H363 0.930 . S
C388 C391 1.388 . S
C388 C393 1.418 . S
C389 H384 0.930 . S
C389 C392 1.404 . S
C389 C393 1.353 . S
N390 Co355 2.145 . S
N390 C391 1.397 . S
N390 C392 1.334 . S
C391 H372 0.929 . S
C391 C388 1.388 . S
C391 N390 1.397 . S
C392 H373 0.929 . S
C392 C389 1.404 . S
C392 N390 1.334 . S
C393 H385 0.930 . S
C393 C388 1.418 . S
C393 C389 1.353 . S
C394 H364 0.930 . S
C394 N395 1.330 . S
C394 C396 1.446 . S
N395 Co354 2.151 . S
N395 C394 1.330 . S
N395 C399 1.418 . S
C396 H375 0.929 . S
C396 C394 1.446 . S
C396 C397 1.332 . S
C397 H377 0.931 . S
C397 C396 1.332 . S
C397 C398 1.267 . S
C398 H366 0.929 . S
C398 C397 1.267 . S
C398 C399 1.251 . S
C399 H369 0.929 . S
C399 N395 1.418 . S
C399 C398 1.251 . S
C400 H367 0.930 . S
C400 C402 1.406 . S
C400 C405 1.261 . S
C401 H368 0.930 . S
C401 N403 1.325 . S
C401 C404 1.357 . S
C402 H370 0.928 . S
C402 C400 1.406 . S
C402 N403 1.261 . S
N403 Co354 2.214 . S
N403 C401 1.325 . S
N403 C402 1.261 . S
C404 H374 0.931 . S
C404 C401 1.357 . S
C404 C405 1.312 . S
C405 H376 0.930 . S
C405 C400 1.261 . S
C405 C404 1.312 . S
C406 O378 1.214 . S
C406 O386 1.234 . S
C407 H379 0.929 . S
C407 C410 1.391 . S
C407 C412 1.391 . S
C408 H380 0.929 . S
C408 C409 1.390 . S
C408 N411 1.391 . S
C409 H381 0.930 . S
C409 C408 1.390 . S
C409 C410 1.392 . S
C410 H382 0.929 . S
C410 C407 1.391 . S
C410 C409 1.392 . S
N411 Co355 2.257 . S
N411 C408 1.391 . S
N411 C412 1.388 . S
C412 H383 0.930 . S
C412 C407 1.391 . S
C412 N411 1.388 . S
Co413 O415 2.143 . S
Co413 O421 2.074 . S
Co413 O424 2.093 . S
Co413 O437 2.097 . S
Co413 N454 2.151 . S
Co413 N462 2.214 . S
Co414 O415 2.160 . S
Co414 O420 2.058 . S
Co414 O430 2.057 . S
Co414 O445 2.037 . S
Co414 N449 2.145 . S
Co414 N470 2.257 . S
O415 Co413 2.143 . S
O415 Co414 2.160 . S
C416 O417 1.278 . S
C416 O424 1.224 . S
O417 C416 1.278 . S
C418 O419 1.245 . S
C418 O430 1.232 . S
O419 C418 1.245 . S
O420 Co414 2.058 . S
O420 C446 1.269 . S
O421 Co413 2.074 . S
O421 C446 1.257 . S
H422 C447 0.930 . S
H423 C453 0.930 . S
O424 Co413 2.093 . S
O424 C416 1.224 . S
H425 C457 0.929 . S
H426 C459 0.930 . S
H427 C460 0.930 . S
H428 C458 0.929 . S
H429 C461 0.928 . S
O430 Co414 2.057 . S
O430 C418 1.232 . S
H431 C450 0.929 . S
H432 C451 0.929 . S
H433 C463 0.931 . S
H434 C455 0.929 . S
H435 C464 0.930 . S
H436 C456 0.931 . S
O437 Co413 2.097 . S
O437 C465 1.214 . S
H438 C466 0.929 . S
H439 C467 0.929 . S
H440 C468 0.930 . S
H441 C469 0.929 . S
H442 C471 0.930 . S
H443 C448 0.930 . S
H444 C452 0.930 . S
O445 Co414 2.037 . S
O445 C465 1.234 . S
C446 O420 1.269 . S
C446 O421 1.257 . S
C447 H422 0.930 . S
C447 C450 1.388 . S
C447 C452 1.418 . S
C448 H443 0.930 . S
C448 C451 1.404 . S
C448 C452 1.353 . S
N449 Co414 2.145 . S
N449 C450 1.397 . S
N449 C451 1.334 . S
C450 H431 0.929 . S
C450 C447 1.388 . S
C450 N449 1.397 . S
C451 H432 0.929 . S
C451 C448 1.404 . S
C451 N449 1.334 . S
C452 H444 0.930 . S
C452 C447 1.418 . S
C452 C448 1.353 . S
C453 H423 0.930 . S
C453 N454 1.330 . S
C453 C455 1.446 . S
N454 Co413 2.151 . S
N454 C453 1.330 . S
N454 C458 1.418 . S
C455 H434 0.929 . S
C455 C453 1.446 . S
C455 C456 1.332 . S
C456 H436 0.931 . S
C456 C455 1.332 . S
C456 C457 1.267 . S
C457 H425 0.929 . S
C457 C456 1.267 . S
C457 C458 1.251 . S
C458 H428 0.929 . S
C458 N454 1.418 . S
C458 C457 1.251 . S
C459 H426 0.930 . S
C459 C461 1.406 . S
C459 C464 1.261 . S
C460 H427 0.930 . S
C460 N462 1.325 . S
C460 C463 1.357 . S
C461 H429 0.928 . S
C461 C459 1.406 . S
C461 N462 1.261 . S
N462 Co413 2.214 . S
N462 C460 1.325 . S
N462 C461 1.261 . S
C463 H433 0.931 . S
C463 C460 1.357 . S
C463 C464 1.312 . S
C464 H435 0.930 . S
C464 C459 1.261 . S
C464 C463 1.312 . S
C465 O437 1.214 . S
C465 O445 1.234 . S
C466 H438 0.929 . S
C466 C469 1.391 . S
C466 C471 1.391 . S
C467 H439 0.929 . S
C467 C468 1.390 . S
C467 N470 1.391 . S
C468 H440 0.930 . S
C468 C467 1.390 . S
C468 C469 1.392 . S
C469 H441 0.929 . S
C469 C466 1.391 . S
C469 C468 1.392 . S
N470 Co414 2.257 . S
N470 C467 1.391 . S
N470 C471 1.388 . S
C471 H442 0.930 . S
C471 C466 1.391 . S
C471 N470 1.388 . S
Co472 O474 2.143 . S
Co472 O480 2.074 . S
Co472 O483 2.093 . S
Co472 O496 2.097 . S
Co472 N513 2.151 . S
Co472 N521 2.214 . S
Co473 O474 2.160 . S
Co473 O479 2.058 . S
Co473 O489 2.057 . S
Co473 O504 2.037 . S
Co473 N508 2.145 . S
Co473 N529 2.257 . S
O474 Co472 2.143 . S
O474 Co473 2.160 . S
C475 O476 1.278 . S
C475 O483 1.224 . S
O476 C475 1.278 . S
C477 O478 1.245 . S
C477 O489 1.232 . S
O478 C477 1.245 . S
O479 Co473 2.058 . S
O479 C505 1.269 . S
O480 Co472 2.074 . S
O480 C505 1.257 . S
H481 C506 0.930 . S
H482 C512 0.930 . S
O483 Co472 2.093 . S
O483 C475 1.224 . S
H484 C516 0.929 . S
H485 C518 0.930 . S
H486 C519 0.930 . S
H487 C517 0.929 . S
H488 C520 0.928 . S
O489 Co473 2.057 . S
O489 C477 1.232 . S
H490 C509 0.929 . S
H491 C510 0.929 . S
H492 C522 0.931 . S
H493 C514 0.929 . S
H494 C523 0.930 . S
H495 C515 0.931 . S
O496 Co472 2.097 . S
O496 C524 1.214 . S
H497 C525 0.929 . S
H498 C526 0.929 . S
H499 C527 0.930 . S
H500 C528 0.929 . S
H501 C530 0.930 . S
H502 C507 0.930 . S
H503 C511 0.930 . S
O504 Co473 2.037 . S
O504 C524 1.234 . S
C505 O479 1.269 . S
C505 O480 1.257 . S
C506 H481 0.930 . S
C506 C509 1.388 . S
C506 C511 1.418 . S
C507 H502 0.930 . S
C507 C510 1.404 . S
C507 C511 1.353 . S
N508 Co473 2.145 . S
N508 C509 1.397 . S
N508 C510 1.334 . S
C509 H490 0.929 . S
C509 C506 1.388 . S
C509 N508 1.397 . S
C510 H491 0.929 . S
C510 C507 1.404 . S
C510 N508 1.334 . S
C511 H503 0.930 . S
C511 C506 1.418 . S
C511 C507 1.353 . S
C512 H482 0.930 . S
C512 N513 1.330 . S
C512 C514 1.446 . S
N513 Co472 2.151 . S
N513 C512 1.330 . S
N513 C517 1.418 . S
C514 H493 0.929 . S
C514 C512 1.446 . S
C514 C515 1.332 . S
C515 H495 0.931 . S
C515 C514 1.332 . S
C515 C516 1.267 . S
C516 H484 0.929 . S
C516 C515 1.267 . S
C516 C517 1.251 . S
C517 H487 0.929 . S
C517 N513 1.418 . S
C517 C516 1.251 . S
C518 H485 0.930 . S
C518 C520 1.406 . S
C518 C523 1.261 . S
C519 H486 0.930 . S
C519 N521 1.325 . S
C519 C522 1.357 . S
C520 H488 0.928 . S
C520 C518 1.406 . S
C520 N521 1.261 . S
N521 Co472 2.214 . S
N521 C519 1.325 . S
N521 C520 1.261 . S
C522 H492 0.931 . S
C522 C519 1.357 . S
C522 C523 1.312 . S
C523 H494 0.930 . S
C523 C518 1.261 . S
C523 C522 1.312 . S
C524 O496 1.214 . S
C524 O504 1.234 . S
C525 H497 0.929 . S
C525 C528 1.391 . S
C525 C530 1.391 . S
C526 H498 0.929 . S
C526 C527 1.390 . S
C526 N529 1.391 . S
C527 H499 0.930 . S
C527 C526 1.390 . S
C527 C528 1.392 . S
C528 H500 0.929 . S
C528 C525 1.391 . S
C528 C527 1.392 . S
N529 Co473 2.257 . S
N529 C526 1.391 . S
N529 C530 1.388 . S
C530 H501 0.930 . S
C530 C525 1.391 . S
C530 N529 1.388 . S
Co531 O533 2.143 . S
Co531 O539 2.074 . S
Co531 O542 2.093 . S
Co531 O555 2.097 . S
Co531 N572 2.151 . S
Co531 N580 2.214 . S
Co532 O533 2.160 . S
Co532 O538 2.058 . S
Co532 O548 2.057 . S
Co532 O563 2.037 . S
Co532 N567 2.145 . S
Co532 N588 2.257 . S
O533 Co531 2.143 . S
O533 Co532 2.160 . S
C534 O535 1.278 . S
C534 O542 1.224 . S
O535 C534 1.278 . S
C536 O537 1.245 . S
C536 O548 1.232 . S
O537 C536 1.245 . S
O538 Co532 2.058 . S
O538 C564 1.269 . S
O539 Co531 2.074 . S
O539 C564 1.257 . S
H540 C565 0.930 . S
H541 C571 0.930 . S
O542 Co531 2.093 . S
O542 C534 1.224 . S
H543 C575 0.929 . S
H544 C577 0.930 . S
H545 C578 0.930 . S
H546 C576 0.929 . S
H547 C579 0.928 . S
O548 Co532 2.057 . S
O548 C536 1.232 . S
H549 C568 0.929 . S
H550 C569 0.929 . S
H551 C581 0.931 . S
H552 C573 0.929 . S
H553 C582 0.930 . S
H554 C574 0.931 . S
O555 Co531 2.097 . S
O555 C583 1.214 . S
H556 C584 0.929 . S
H557 C585 0.929 . S
H558 C586 0.930 . S
H559 C587 0.929 . S
H560 C589 0.930 . S
H561 C566 0.930 . S
H562 C570 0.930 . S
O563 Co532 2.037 . S
O563 C583 1.234 . S
C564 O538 1.269 . S
C564 O539 1.257 . S
C565 H540 0.930 . S
C565 C568 1.388 . S
C565 C570 1.418 . S
C566 H561 0.930 . S
C566 C569 1.404 . S
C566 C570 1.353 . S
N567 Co532 2.145 . S
N567 C568 1.397 . S
N567 C569 1.334 . S
C568 H549 0.929 . S
C568 C565 1.388 . S
C568 N567 1.397 . S
C569 H550 0.929 . S
C569 C566 1.404 . S
C569 N567 1.334 . S
C570 H562 0.930 . S
C570 C565 1.418 . S
C570 C566 1.353 . S
C571 H541 0.930 . S
C571 N572 1.330 . S
C571 C573 1.446 . S
N572 Co531 2.151 . S
N572 C571 1.330 . S
N572 C576 1.418 . S
C573 H552 0.929 . S
C573 C571 1.446 . S
C573 C574 1.332 . S
C574 H554 0.931 . S
C574 C573 1.332 . S
C574 C575 1.267 . S
C575 H543 0.929 . S
C575 C574 1.267 . S
C575 C576 1.251 . S
C576 H546 0.929 . S
C576 N572 1.418 . S
C576 C575 1.251 . S
C577 H544 0.930 . S
C577 C579 1.406 . S
C577 C582 1.261 . S
C578 H545 0.930 . S
C578 N580 1.325 . S
C578 C581 1.357 . S
C579 H547 0.928 . S
C579 C577 1.406 . S
C579 N580 1.261 . S
N580 Co531 2.214 . S
N580 C578 1.325 . S
N580 C579 1.261 . S
C581 H551 0.931 . S
C581 C578 1.357 . S
C581 C582 1.312 . S
C582 H553 0.930 . S
C582 C577 1.261 . S
C582 C581 1.312 . S
C583 O555 1.214 . S
C583 O563 1.234 . S
C584 H556 0.929 . S
C584 C587 1.391 . S
C584 C589 1.391 . S
C585 H557 0.929 . S
C585 C586 1.390 . S
C585 N588 1.391 . S
C586 H558 0.930 . S
C586 C585 1.390 . S
C586 C587 1.392 . S
C587 H559 0.929 . S
C587 C584 1.391 . S
C587 C586 1.392 . S
N588 Co532 2.257 . S
N588 C585 1.391 . S
N588 C589 1.388 . S
C589 H560 0.930 . S
C589 C584 1.391 . S
C589 N588 1.388 . S
Co590 O592 2.143 . S
Co590 O598 2.074 . S
Co590 O601 2.093 . S
Co590 O614 2.097 . S
Co590 N631 2.151 . S
Co590 N639 2.214 . S
Co591 O592 2.160 . S
Co591 O597 2.058 . S
Co591 O607 2.057 . S
Co591 O622 2.037 . S
Co591 N626 2.145 . S
Co591 N647 2.257 . S
O592 Co590 2.143 . S
O592 Co591 2.160 . S
C593 O594 1.278 . S
C593 O601 1.224 . S
O594 C593 1.278 . S
C595 O596 1.245 . S
C595 O607 1.232 . S
O596 C595 1.245 . S
O597 Co591 2.058 . S
O597 C623 1.269 . S
O598 Co590 2.074 . S
O598 C623 1.257 . S
H599 C624 0.930 . S
H600 C630 0.930 . S
O601 Co590 2.093 . S
O601 C593 1.224 . S
H602 C634 0.929 . S
H603 C636 0.930 . S
H604 C637 0.930 . S
H605 C635 0.929 . S
H606 C638 0.928 . S
O607 Co591 2.057 . S
O607 C595 1.232 . S
H608 C627 0.929 . S
H609 C628 0.929 . S
H610 C640 0.931 . S
H611 C632 0.929 . S
H612 C641 0.930 . S
H613 C633 0.931 . S
O614 Co590 2.097 . S
O614 C642 1.214 . S
H615 C643 0.929 . S
H616 C644 0.929 . S
H617 C645 0.930 . S
H618 C646 0.929 . S
H619 C648 0.930 . S
H620 C625 0.930 . S
H621 C629 0.930 . S
O622 Co591 2.037 . S
O622 C642 1.234 . S
C623 O597 1.269 . S
C623 O598 1.257 . S
C624 H599 0.930 . S
C624 C627 1.388 . S
C624 C629 1.418 . S
C625 H620 0.930 . S
C625 C628 1.404 . S
C625 C629 1.353 . S
N626 Co591 2.145 . S
N626 C627 1.397 . S
N626 C628 1.334 . S
C627 H608 0.929 . S
C627 C624 1.388 . S
C627 N626 1.397 . S
C628 H609 0.929 . S
C628 C625 1.404 . S
C628 N626 1.334 . S
C629 H621 0.930 . S
C629 C624 1.418 . S
C629 C625 1.353 . S
C630 H600 0.930 . S
C630 N631 1.330 . S
C630 C632 1.446 . S
N631 Co590 2.151 . S
N631 C630 1.330 . S
N631 C635 1.418 . S
C632 H611 0.929 . S
C632 C630 1.446 . S
C632 C633 1.332 . S
C633 H613 0.931 . S
C633 C632 1.332 . S
C633 C634 1.267 . S
C634 H602 0.929 . S
C634 C633 1.267 . S
C634 C635 1.251 . S
C635 H605 0.929 . S
C635 N631 1.418 . S
C635 C634 1.251 . S
C636 H603 0.930 . S
C636 C638 1.406 . S
C636 C641 1.261 . S
C637 H604 0.930 . S
C637 N639 1.325 . S
C637 C640 1.357 . S
C638 H606 0.928 . S
C638 C636 1.406 . S
C638 N639 1.261 . S
N639 Co590 2.214 . S
N639 C637 1.325 . S
N639 C638 1.261 . S
C640 H610 0.931 . S
C640 C637 1.357 . S
C640 C641 1.312 . S
C641 H612 0.930 . S
C641 C636 1.261 . S
C641 C640 1.312 . S
C642 O614 1.214 . S
C642 O622 1.234 . S
C643 H615 0.929 . S
C643 C646 1.391 . S
C643 C648 1.391 . S
C644 H616 0.929 . S
C644 C645 1.390 . S
C644 N647 1.391 . S
C645 H617 0.930 . S
C645 C644 1.390 . S
C645 C646 1.392 . S
C646 H618 0.929 . S
C646 C643 1.391 . S
C646 C645 1.392 . S
N647 Co591 2.257 . S
N647 C644 1.391 . S
N647 C648 1.388 . S
C648 H619 0.930 . S
C648 C643 1.391 . S
C648 N647 1.388 . S
Co649 O651 2.143 . S
Co649 O657 2.074 . S
Co649 O660 2.093 . S
Co649 O673 2.097 . S
Co649 N690 2.151 . S
Co649 N698 2.214 . S
Co650 O651 2.160 . S
Co650 O656 2.058 . S
Co650 O666 2.057 . S
Co650 O681 2.037 . S
Co650 N685 2.145 . S
Co650 N706 2.257 . S
O651 Co649 2.143 . S
O651 Co650 2.160 . S
C652 O653 1.278 . S
C652 O660 1.224 . S
O653 C652 1.278 . S
C654 O655 1.245 . S
C654 O666 1.232 . S
O655 C654 1.245 . S
O656 Co650 2.058 . S
O656 C682 1.269 . S
O657 Co649 2.074 . S
O657 C682 1.257 . S
H658 C683 0.930 . S
H659 C689 0.930 . S
O660 Co649 2.093 . S
O660 C652 1.224 . S
H661 C693 0.929 . S
H662 C695 0.930 . S
H663 C696 0.930 . S
H664 C694 0.929 . S
H665 C697 0.928 . S
O666 Co650 2.057 . S
O666 C654 1.232 . S
H667 C686 0.929 . S
H668 C687 0.929 . S
H669 C699 0.931 . S
H670 C691 0.929 . S
H671 C700 0.930 . S
H672 C692 0.931 . S
O673 Co649 2.097 . S
O673 C701 1.214 . S
H674 C702 0.929 . S
H675 C703 0.929 . S
H676 C704 0.930 . S
H677 C705 0.929 . S
H678 C707 0.930 . S
H679 C684 0.930 . S
H680 C688 0.930 . S
O681 Co650 2.037 . S
O681 C701 1.234 . S
C682 O656 1.269 . S
C682 O657 1.257 . S
C683 H658 0.930 . S
C683 C686 1.388 . S
C683 C688 1.418 . S
C684 H679 0.930 . S
C684 C687 1.404 . S
C684 C688 1.353 . S
N685 Co650 2.145 . S
N685 C686 1.397 . S
N685 C687 1.334 . S
C686 H667 0.929 . S
C686 C683 1.388 . S
C686 N685 1.397 . S
C687 H668 0.929 . S
C687 C684 1.404 . S
C687 N685 1.334 . S
C688 H680 0.930 . S
C688 C683 1.418 . S
C688 C684 1.353 . S
C689 H659 0.930 . S
C689 N690 1.330 . S
C689 C691 1.446 . S
N690 Co649 2.151 . S
N690 C689 1.330 . S
N690 C694 1.418 . S
C691 H670 0.929 . S
C691 C689 1.446 . S
C691 C692 1.332 . S
C692 H672 0.931 . S
C692 C691 1.332 . S
C692 C693 1.267 . S
C693 H661 0.929 . S
C693 C692 1.267 . S
C693 C694 1.251 . S
C694 H664 0.929 . S
C694 N690 1.418 . S
C694 C693 1.251 . S
C695 H662 0.930 . S
C695 C697 1.406 . S
C695 C700 1.261 . S
C696 H663 0.930 . S
C696 N698 1.325 . S
C696 C699 1.357 . S
C697 H665 0.928 . S
C697 C695 1.406 . S
C697 N698 1.261 . S
N698 Co649 2.214 . S
N698 C696 1.325 . S
N698 C697 1.261 . S
C699 H669 0.931 . S
C699 C696 1.357 . S
C699 C700 1.312 . S
C700 H671 0.930 . S
C700 C695 1.261 . S
C700 C699 1.312 . S
C701 O673 1.214 . S
C701 O681 1.234 . S
C702 H674 0.929 . S
C702 C705 1.391 . S
C702 C707 1.391 . S
C703 H675 0.929 . S
C703 C704 1.390 . S
C703 N706 1.391 . S
C704 H676 0.930 . S
C704 C703 1.390 . S
C704 C705 1.392 . S
C705 H677 0.929 . S
C705 C702 1.391 . S
C705 C704 1.392 . S
N706 Co650 2.257 . S
N706 C703 1.391 . S
N706 C707 1.388 . S
C707 H678 0.930 . S
C707 C702 1.391 . S
C707 N706 1.388 . S
Co708 O710 2.143 . S
Co708 O716 2.074 . S
Co708 O719 2.093 . S
Co708 O732 2.097 . S
Co708 N749 2.151 . S
Co708 N757 2.214 . S
Co709 O710 2.160 . S
Co709 O715 2.058 . S
Co709 O725 2.057 . S
Co709 O740 2.037 . S
Co709 N744 2.145 . S
Co709 N765 2.257 . S
O710 Co708 2.143 . S
O710 Co709 2.160 . S
C711 O712 1.278 . S
C711 O719 1.224 . S
O712 C711 1.278 . S
C713 O714 1.245 . S
C713 O725 1.232 . S
O714 C713 1.245 . S
O715 Co709 2.058 . S
O715 C741 1.269 . S
O716 Co708 2.074 . S
O716 C741 1.257 . S
H717 C742 0.930 . S
H718 C748 0.930 . S
O719 Co708 2.093 . S
O719 C711 1.224 . S
H720 C752 0.929 . S
H721 C754 0.930 . S
H722 C755 0.930 . S
H723 C753 0.929 . S
H724 C756 0.928 . S
O725 Co709 2.057 . S
O725 C713 1.232 . S
H726 C745 0.929 . S
H727 C746 0.929 . S
H728 C758 0.931 . S
H729 C750 0.929 . S
H730 C759 0.930 . S
H731 C751 0.931 . S
O732 Co708 2.097 . S
O732 C760 1.214 . S
H733 C761 0.929 . S
H734 C762 0.929 . S
H735 C763 0.930 . S
H736 C764 0.929 . S
H737 C766 0.930 . S
H738 C743 0.930 . S
H739 C747 0.930 . S
O740 Co709 2.037 . S
O740 C760 1.234 . S
C741 O715 1.269 . S
C741 O716 1.257 . S
C742 H717 0.930 . S
C742 C745 1.388 . S
C742 C747 1.418 . S
C743 H738 0.930 . S
C743 C746 1.404 . S
C743 C747 1.353 . S
N744 Co709 2.145 . S
N744 C745 1.397 . S
N744 C746 1.334 . S
C745 H726 0.929 . S
C745 C742 1.388 . S
C745 N744 1.397 . S
C746 H727 0.929 . S
C746 C743 1.404 . S
C746 N744 1.334 . S
C747 H739 0.930 . S
C747 C742 1.418 . S
C747 C743 1.353 . S
C748 H718 0.930 . S
C748 N749 1.330 . S
C748 C750 1.446 . S
N749 Co708 2.151 . S
N749 C748 1.330 . S
N749 C753 1.418 . S
C750 H729 0.929 . S
C750 C748 1.446 . S
C750 C751 1.332 . S
C751 H731 0.931 . S
C751 C750 1.332 . S
C751 C752 1.267 . S
C752 H720 0.929 . S
C752 C751 1.267 . S
C752 C753 1.251 . S
C753 H723 0.929 . S
C753 N749 1.418 . S
C753 C752 1.251 . S
C754 H721 0.930 . S
C754 C756 1.406 . S
C754 C759 1.261 . S
C755 H722 0.930 . S
C755 N757 1.325 . S
C755 C758 1.357 . S
C756 H724 0.928 . S
C756 C754 1.406 . S
C756 N757 1.261 . S
N757 Co708 2.214 . S
N757 C755 1.325 . S
N757 C756 1.261 . S
C758 H728 0.931 . S
C758 C755 1.357 . S
C758 C759 1.312 . S
C759 H730 0.930 . S
C759 C754 1.261 . S
C759 C758 1.312 . S
C760 O732 1.214 . S
C760 O740 1.234 . S
C761 H733 0.929 . S
C761 C764 1.391 . S
C761 C766 1.391 . S
C762 H734 0.929 . S
C762 C763 1.390 . S
C762 N765 1.391 . S
C763 H735 0.930 . S
C763 C762 1.390 . S
C763 C764 1.392 . S
C764 H736 0.929 . S
C764 C761 1.391 . S
C764 C763 1.392 . S
N765 Co709 2.257 . S
N765 C762 1.391 . S
N765 C766 1.388 . S
C766 H737 0.930 . S
C766 C761 1.391 . S
C766 N765 1.388 . S
Co767 O769 2.143 . S
Co767 O775 2.074 . S
Co767 O778 2.093 . S
Co767 O791 2.097 . S
Co767 N808 2.151 . S
Co767 N816 2.214 . S
Co768 O769 2.160 . S
Co768 O774 2.058 . S
Co768 O784 2.057 . S
Co768 O799 2.037 . S
Co768 N803 2.145 . S
Co768 N824 2.257 . S
O769 Co767 2.143 . S
O769 Co768 2.160 . S
C770 O771 1.278 . S
C770 O778 1.224 . S
O771 C770 1.278 . S
C772 O773 1.245 . S
C772 O784 1.232 . S
O773 C772 1.245 . S
O774 Co768 2.058 . S
O774 C800 1.269 . S
O775 Co767 2.074 . S
O775 C800 1.257 . S
H776 C801 0.930 . S
H777 C807 0.930 . S
O778 Co767 2.093 . S
O778 C770 1.224 . S
H779 C811 0.929 . S
H780 C813 0.930 . S
H781 C814 0.930 . S
H782 C812 0.929 . S
H783 C815 0.928 . S
O784 Co768 2.057 . S
O784 C772 1.232 . S
H785 C804 0.929 . S
H786 C805 0.929 . S
H787 C817 0.931 . S
H788 C809 0.929 . S
H789 C818 0.930 . S
H790 C810 0.931 . S
O791 Co767 2.097 . S
O791 C819 1.214 . S
H792 C820 0.929 . S
H793 C821 0.929 . S
H794 C822 0.930 . S
H795 C823 0.929 . S
H796 C825 0.930 . S
H797 C802 0.930 . S
H798 C806 0.930 . S
O799 Co768 2.037 . S
O799 C819 1.234 . S
C800 O774 1.269 . S
C800 O775 1.257 . S
C801 H776 0.930 . S
C801 C804 1.388 . S
C801 C806 1.418 . S
C802 H797 0.930 . S
C802 C805 1.404 . S
C802 C806 1.353 . S
N803 Co768 2.145 . S
N803 C804 1.397 . S
N803 C805 1.334 . S
C804 H785 0.929 . S
C804 C801 1.388 . S
C804 N803 1.397 . S
C805 H786 0.929 . S
C805 C802 1.404 . S
C805 N803 1.334 . S
C806 H798 0.930 . S
C806 C801 1.418 . S
C806 C802 1.353 . S
C807 H777 0.930 . S
C807 N808 1.330 . S
C807 C809 1.446 . S
N808 Co767 2.151 . S
N808 C807 1.330 . S
N808 C812 1.418 . S
C809 H788 0.929 . S
C809 C807 1.446 . S
C809 C810 1.332 . S
C810 H790 0.931 . S
C810 C809 1.332 . S
C810 C811 1.267 . S
C811 H779 0.929 . S
C811 C810 1.267 . S
C811 C812 1.251 . S
C812 H782 0.929 . S
C812 N808 1.418 . S
C812 C811 1.251 . S
C813 H780 0.930 . S
C813 C815 1.406 . S
C813 C818 1.261 . S
C814 H781 0.930 . S
C814 N816 1.325 . S
C814 C817 1.357 . S
C815 H783 0.928 . S
C815 C813 1.406 . S
C815 N816 1.261 . S
N816 Co767 2.214 . S
N816 C814 1.325 . S
N816 C815 1.261 . S
C817 H787 0.931 . S
C817 C814 1.357 . S
C817 C818 1.312 . S
C818 H789 0.930 . S
C818 C813 1.261 . S
C818 C817 1.312 . S
C819 O791 1.214 . S
C819 O799 1.234 . S
C820 H792 0.929 . S
C820 C823 1.391 . S
C820 C825 1.391 . S
C821 H793 0.929 . S
C821 C822 1.390 . S
C821 N824 1.391 . S
C822 H794 0.930 . S
C822 C821 1.390 . S
C822 C823 1.392 . S
C823 H795 0.929 . S
C823 C820 1.391 . S
C823 C822 1.392 . S
N824 Co768 2.257 . S
N824 C821 1.391 . S
N824 C825 1.388 . S
C825 H796 0.930 . S
C825 C820 1.391 . S
C825 N824 1.388 . S
Co826 O828 2.143 . S
Co826 O834 2.074 . S
Co826 O837 2.093 . S
Co826 O850 2.097 . S
Co826 N867 2.151 . S
Co826 N875 2.214 . S
Co827 O828 2.160 . S
Co827 O833 2.058 . S
Co827 O843 2.057 . S
Co827 O858 2.037 . S
Co827 N862 2.145 . S
Co827 N883 2.257 . S
O828 Co826 2.143 . S
O828 Co827 2.160 . S
C829 O830 1.278 . S
C829 O837 1.224 . S
O830 C829 1.278 . S
C831 O832 1.245 . S
C831 O843 1.232 . S
O832 C831 1.245 . S
O833 Co827 2.058 . S
O833 C859 1.269 . S
O834 Co826 2.074 . S
O834 C859 1.257 . S
H835 C860 0.930 . S
H836 C866 0.930 . S
O837 Co826 2.093 . S
O837 C829 1.224 . S
H838 C870 0.929 . S
H839 C872 0.930 . S
H840 C873 0.930 . S
H841 C871 0.929 . S
H842 C874 0.928 . S
O843 Co827 2.057 . S
O843 C831 1.232 . S
H844 C863 0.929 . S
H845 C864 0.929 . S
H846 C876 0.931 . S
H847 C868 0.929 . S
H848 C877 0.930 . S
H849 C869 0.931 . S
O850 Co826 2.097 . S
O850 C878 1.214 . S
H851 C879 0.929 . S
H852 C880 0.929 . S
H853 C881 0.930 . S
H854 C882 0.929 . S
H855 C884 0.930 . S
H856 C861 0.930 . S
H857 C865 0.930 . S
O858 Co827 2.037 . S
O858 C878 1.234 . S
C859 O833 1.269 . S
C859 O834 1.257 . S
C860 H835 0.930 . S
C860 C863 1.388 . S
C860 C865 1.418 . S
C861 H856 0.930 . S
C861 C864 1.404 . S
C861 C865 1.353 . S
N862 Co827 2.145 . S
N862 C863 1.397 . S
N862 C864 1.334 . S
C863 H844 0.929 . S
C863 C860 1.388 . S
C863 N862 1.397 . S
C864 H845 0.929 . S
C864 C861 1.404 . S
C864 N862 1.334 . S
C865 H857 0.930 . S
C865 C860 1.418 . S
C865 C861 1.353 . S
C866 H836 0.930 . S
C866 N867 1.330 . S
C866 C868 1.446 . S
N867 Co826 2.151 . S
N867 C866 1.330 . S
N867 C871 1.418 . S
C868 H847 0.929 . S
C868 C866 1.446 . S
C868 C869 1.332 . S
C869 H849 0.931 . S
C869 C868 1.332 . S
C869 C870 1.267 . S
C870 H838 0.929 . S
C870 C869 1.267 . S
C870 C871 1.251 . S
C871 H841 0.929 . S
C871 N867 1.418 . S
C871 C870 1.251 . S
C872 H839 0.930 . S
C872 C874 1.406 . S
C872 C877 1.261 . S
C873 H840 0.930 . S
C873 N875 1.325 . S
C873 C876 1.357 . S
C874 H842 0.928 . S
C874 C872 1.406 . S
C874 N875 1.261 . S
N875 Co826 2.214 . S
N875 C873 1.325 . S
N875 C874 1.261 . S
C876 H846 0.931 . S
C876 C873 1.357 . S
C876 C877 1.312 . S
C877 H848 0.930 . S
C877 C872 1.261 . S
C877 C876 1.312 . S
C878 O850 1.214 . S
C878 O858 1.234 . S
C879 H851 0.929 . S
C879 C882 1.391 . S
C879 C884 1.391 . S
C880 H852 0.929 . S
C880 C881 1.390 . S
C880 N883 1.391 . S
C881 H853 0.930 . S
C881 C880 1.390 . S
C881 C882 1.392 . S
C882 H854 0.929 . S
C882 C879 1.391 . S
C882 C881 1.392 . S
N883 Co827 2.257 . S
N883 C880 1.391 . S
N883 C884 1.388 . S
C884 H855 0.930 . S
C884 C879 1.391 . S
C884 N883 1.388 . S
Co885 O887 2.143 . S
Co885 O893 2.074 . S
Co885 O896 2.093 . S
Co885 O909 2.097 . S
Co885 N926 2.151 . S
Co885 N934 2.214 . S
Co886 O887 2.160 . S
Co886 O892 2.058 . S
Co886 O902 2.057 . S
Co886 O917 2.037 . S
Co886 N921 2.145 . S
Co886 N942 2.257 . S
O887 Co885 2.143 . S
O887 Co886 2.160 . S
C888 O889 1.278 . S
C888 O896 1.224 . S
O889 C888 1.278 . S
C890 O891 1.245 . S
C890 O902 1.232 . S
O891 C890 1.245 . S
O892 Co886 2.058 . S
O892 C918 1.269 . S
O893 Co885 2.074 . S
O893 C918 1.257 . S
H894 C919 0.930 . S
H895 C925 0.930 . S
O896 Co885 2.093 . S
O896 C888 1.224 . S
H897 C929 0.929 . S
H898 C931 0.930 . S
H899 C932 0.930 . S
H900 C930 0.929 . S
H901 C933 0.928 . S
O902 Co886 2.057 . S
O902 C890 1.232 . S
H903 C922 0.929 . S
H904 C923 0.929 . S
H905 C935 0.931 . S
H906 C927 0.929 . S
H907 C936 0.930 . S
H908 C928 0.931 . S
O909 Co885 2.097 . S
O909 C937 1.214 . S
H910 C938 0.929 . S
H911 C939 0.929 . S
H912 C940 0.930 . S
H913 C941 0.929 . S
H914 C943 0.930 . S
H915 C920 0.930 . S
H916 C924 0.930 . S
O917 Co886 2.037 . S
O917 C937 1.234 . S
C918 O892 1.269 . S
C918 O893 1.257 . S
C919 H894 0.930 . S
C919 C922 1.388 . S
C919 C924 1.418 . S
C920 H915 0.930 . S
C920 C923 1.404 . S
C920 C924 1.353 . S
N921 Co886 2.145 . S
N921 C922 1.397 . S
N921 C923 1.334 . S
C922 H903 0.929 . S
C922 C919 1.388 . S
C922 N921 1.397 . S
C923 H904 0.929 . S
C923 C920 1.404 . S
C923 N921 1.334 . S
C924 H916 0.930 . S
C924 C919 1.418 . S
C924 C920 1.353 . S
C925 H895 0.930 . S
C925 N926 1.330 . S
C925 C927 1.446 . S
N926 Co885 2.151 . S
N926 C925 1.330 . S
N926 C930 1.418 . S
C927 H906 0.929 . S
C927 C925 1.446 . S
C927 C928 1.332 . S
C928 H908 0.931 . S
C928 C927 1.332 . S
C928 C929 1.267 . S
C929 H897 0.929 . S
C929 C928 1.267 . S
C929 C930 1.251 . S
C930 H900 0.929 . S
C930 N926 1.418 . S
C930 C929 1.251 . S
C931 H898 0.930 . S
C931 C933 1.406 . S
C931 C936 1.261 . S
C932 H899 0.930 . S
C932 N934 1.325 . S
C932 C935 1.357 . S
C933 H901 0.928 . S
C933 C931 1.406 . S
C933 N934 1.261 . S
N934 Co885 2.214 . S
N934 C932 1.325 . S
N934 C933 1.261 . S
C935 H905 0.931 . S
C935 C932 1.357 . S
C935 C936 1.312 . S
C936 H907 0.930 . S
C936 C931 1.261 . S
C936 C935 1.312 . S
C937 O909 1.214 . S
C937 O917 1.234 . S
C938 H910 0.929 . S
C938 C941 1.391 . S
C938 C943 1.391 . S
C939 H911 0.929 . S
C939 C940 1.390 . S
C939 N942 1.391 . S
C940 H912 0.930 . S
C940 C939 1.390 . S
C940 C941 1.392 . S
C941 H913 0.929 . S
C941 C938 1.391 . S
C941 C940 1.392 . S
N942 Co886 2.257 . S
N942 C939 1.391 . S
N942 C943 1.388 . S
C943 H914 0.930 . S
C943 C938 1.391 . S
C943 N942 1.388 . S
Co944 O946 2.143 . S
Co944 O952 2.074 . S
Co944 O955 2.093 . S
Co944 O968 2.097 . S
Co944 N985 2.151 . S
Co944 N993 2.214 . S
Co945 O946 2.160 . S
Co945 O951 2.058 . S
Co945 O961 2.057 . S
Co945 O976 2.037 . S
Co945 N980 2.145 . S
Co945 N1001 2.257 . S
O946 Co944 2.143 . S
O946 Co945 2.160 . S
C947 O948 1.278 . S
C947 O955 1.224 . S
O948 C947 1.278 . S
C949 O950 1.245 . S
C949 O961 1.232 . S
O950 C949 1.245 . S
O951 Co945 2.058 . S
O951 C977 1.269 . S
O952 Co944 2.074 . S
O952 C977 1.257 . S
H953 C978 0.930 . S
H954 C984 0.930 . S
O955 Co944 2.093 . S
O955 C947 1.224 . S
H956 C988 0.929 . S
H957 C990 0.930 . S
H958 C991 0.930 . S
H959 C989 0.929 . S
H960 C992 0.928 . S
O961 Co945 2.057 . S
O961 C949 1.232 . S
H962 C981 0.929 . S
H963 C982 0.929 . S
H964 C994 0.931 . S
H965 C986 0.929 . S
H966 C995 0.930 . S
H967 C987 0.931 . S
O968 Co944 2.097 . S
O968 C996 1.214 . S
H969 C997 0.929 . S
H970 C998 0.929 . S
H971 C999 0.930 . S
H972 C1000 0.929 . S
H973 C1002 0.930 . S
H974 C979 0.930 . S
H975 C983 0.930 . S
O976 Co945 2.037 . S
O976 C996 1.234 . S
C977 O951 1.269 . S
C977 O952 1.257 . S
C978 H953 0.930 . S
C978 C981 1.388 . S
C978 C983 1.418 . S
C979 H974 0.930 . S
C979 C982 1.404 . S
C979 C983 1.353 . S
N980 Co945 2.145 . S
N980 C981 1.397 . S
N980 C982 1.334 . S
C981 H962 0.929 . S
C981 C978 1.388 . S
C981 N980 1.397 . S
C982 H963 0.929 . S
C982 C979 1.404 . S
C982 N980 1.334 . S
C983 H975 0.930 . S
C983 C978 1.418 . S
C983 C979 1.353 . S
C984 H954 0.930 . S
C984 N985 1.330 . S
C984 C986 1.446 . S
N985 Co944 2.151 . S
N985 C984 1.330 . S
N985 C989 1.418 . S
C986 H965 0.929 . S
C986 C984 1.446 . S
C986 C987 1.332 . S
C987 H967 0.931 . S
C987 C986 1.332 . S
C987 C988 1.267 . S
C988 H956 0.929 . S
C988 C987 1.267 . S
C988 C989 1.251 . S
C989 H959 0.929 . S
C989 N985 1.418 . S
C989 C988 1.251 . S
C990 H957 0.930 . S
C990 C992 1.406 . S
C990 C995 1.261 . S
C991 H958 0.930 . S
C991 N993 1.325 . S
C991 C994 1.357 . S
C992 H960 0.928 . S
C992 C990 1.406 . S
C992 N993 1.261 . S
N993 Co944 2.214 . S
N993 C991 1.325 . S
N993 C992 1.261 . S
C994 H964 0.931 . S
C994 C991 1.357 . S
C994 C995 1.312 . S
C995 H966 0.930 . S
C995 C990 1.261 . S
C995 C994 1.312 . S
C996 O968 1.214 . S
C996 O976 1.234 . S
C997 H969 0.929 . S
C997 C1000 1.391 . S
C997 C1002 1.391 . S
C998 H970 0.929 . S
C998 C999 1.390 . S
C998 N1001 1.391 . S
C999 H971 0.930 . S
C999 C998 1.390 . S
C999 C1000 1.392 . S
C1000 H972 0.929 . S
C1000 C997 1.391 . S
C1000 C999 1.392 . S
N1001 Co945 2.257 . S
N1001 C998 1.391 . S
N1001 C1002 1.388 . S
C1002 H973 0.930 . S
C1002 C997 1.391 . S
C1002 N1001 1.388 . S
Co1003 O1005 2.143 . S
Co1003 O1011 2.074 . S
Co1003 O1014 2.093 . S
Co1003 O1027 2.097 . S
Co1003 N1044 2.151 . S
Co1003 N1052 2.214 . S
Co1004 O1005 2.160 . S
Co1004 O1010 2.058 . S
Co1004 O1020 2.057 . S
Co1004 O1035 2.037 . S
Co1004 N1039 2.145 . S
Co1004 N1060 2.257 . S
O1005 Co1003 2.143 . S
O1005 Co1004 2.160 . S
C1006 O1007 1.278 . S
C1006 O1014 1.224 . S
O1007 C1006 1.278 . S
C1008 O1009 1.245 . S
C1008 O1020 1.232 . S
O1009 C1008 1.245 . S
O1010 Co1004 2.058 . S
O1010 C1036 1.269 . S
O1011 Co1003 2.074 . S
O1011 C1036 1.257 . S
H1012 C1037 0.930 . S
H1013 C1043 0.930 . S
O1014 Co1003 2.093 . S
O1014 C1006 1.224 . S
H1015 C1047 0.929 . S
H1016 C1049 0.930 . S
H1017 C1050 0.930 . S
H1018 C1048 0.929 . S
H1019 C1051 0.928 . S
O1020 Co1004 2.057 . S
O1020 C1008 1.232 . S
H1021 C1040 0.929 . S
H1022 C1041 0.929 . S
H1023 C1053 0.931 . S
H1024 C1045 0.929 . S
H1025 C1054 0.930 . S
H1026 C1046 0.931 . S
O1027 Co1003 2.097 . S
O1027 C1055 1.214 . S
H1028 C1056 0.929 . S
H1029 C1057 0.929 . S
H1030 C1058 0.930 . S
H1031 C1059 0.929 . S
H1032 C1061 0.930 . S
H1033 C1038 0.930 . S
H1034 C1042 0.930 . S
O1035 Co1004 2.037 . S
O1035 C1055 1.234 . S
C1036 O1010 1.269 . S
C1036 O1011 1.257 . S
C1037 H1012 0.930 . S
C1037 C1040 1.388 . S
C1037 C1042 1.418 . S
C1038 H1033 0.930 . S
C1038 C1041 1.404 . S
C1038 C1042 1.353 . S
N1039 Co1004 2.145 . S
N1039 C1040 1.397 . S
N1039 C1041 1.334 . S
C1040 H1021 0.929 . S
C1040 C1037 1.388 . S
C1040 N1039 1.397 . S
C1041 H1022 0.929 . S
C1041 C1038 1.404 . S
C1041 N1039 1.334 . S
C1042 H1034 0.930 . S
C1042 C1037 1.418 . S
C1042 C1038 1.353 . S
C1043 H1013 0.930 . S
C1043 N1044 1.330 . S
C1043 C1045 1.446 . S
N1044 Co1003 2.151 . S
N1044 C1043 1.330 . S
N1044 C1048 1.418 . S
C1045 H1024 0.929 . S
C1045 C1043 1.446 . S
C1045 C1046 1.332 . S
C1046 H1026 0.931 . S
C1046 C1045 1.332 . S
C1046 C1047 1.267 . S
C1047 H1015 0.929 . S
C1047 C1046 1.267 . S
C1047 C1048 1.251 . S
C1048 H1018 0.929 . S
C1048 N1044 1.418 . S
C1048 C1047 1.251 . S
C1049 H1016 0.930 . S
C1049 C1051 1.406 . S
C1049 C1054 1.261 . S
C1050 H1017 0.930 . S
C1050 N1052 1.325 . S
C1050 C1053 1.357 . S
C1051 H1019 0.928 . S
C1051 C1049 1.406 . S
C1051 N1052 1.261 . S
N1052 Co1003 2.214 . S
N1052 C1050 1.325 . S
N1052 C1051 1.261 . S
C1053 H1023 0.931 . S
C1053 C1050 1.357 . S
C1053 C1054 1.312 . S
C1054 H1025 0.930 . S
C1054 C1049 1.261 . S
C1054 C1053 1.312 . S
C1055 O1027 1.214 . S
C1055 O1035 1.234 . S
C1056 H1028 0.929 . S
C1056 C1059 1.391 . S
C1056 C1061 1.391 . S
C1057 H1029 0.929 . S
C1057 C1058 1.390 . S
C1057 N1060 1.391 . S
C1058 H1030 0.930 . S
C1058 C1057 1.390 . S
C1058 C1059 1.392 . S
C1059 H1031 0.929 . S
C1059 C1056 1.391 . S
C1059 C1058 1.392 . S
N1060 Co1004 2.257 . S
N1060 C1057 1.391 . S
N1060 C1061 1.388 . S
C1061 H1032 0.930 . S
C1061 C1056 1.391 . S
C1061 N1060 1.388 . S
Co1062 O1064 2.143 . S
Co1062 O1070 2.074 . S
Co1062 O1073 2.085 1_554 S
Co1062 O1086 2.097 . S
Co1062 N1103 2.151 . S
Co1062 N1111 2.214 . S
Co1063 O1064 2.160 . S
Co1063 O1069 2.058 . S
Co1063 O1079 2.057 . S
Co1063 O1094 2.037 . S
Co1063 N1098 2.145 . S
Co1063 N1119 2.257 . S
O1064 Co1062 2.143 . S
O1064 Co1063 2.160 . S
C1065 O1066 1.278 . S
C1065 O1073 1.230 . S
O1066 C1065 1.278 . S
C1067 O1068 1.245 . S
C1067 O1079 1.232 . S
O1068 C1067 1.245 . S
O1069 Co1063 2.058 . S
O1069 C1095 1.269 . S
O1070 Co1062 2.074 . S
O1070 C1095 1.257 . S
H1071 C1096 0.930 . S
H1072 C1102 0.930 . S
O1073 Co1062 2.085 1_556 S
O1073 C1065 1.230 . S
H1074 C1106 0.929 . S
H1075 C1108 0.930 . S
H1076 C1109 0.930 . S
H1077 C1107 0.929 . S
H1078 C1110 0.928 . S
O1079 Co1063 2.057 . S
O1079 C1067 1.232 . S
H1080 C1099 0.929 . S
H1081 C1100 0.929 . S
H1082 C1112 0.931 . S
H1083 C1104 0.929 . S
H1084 C1113 0.930 . S
H1085 C1105 0.931 . S
O1086 Co1062 2.097 . S
O1086 C1114 1.214 . S
H1087 C1115 0.929 . S
H1088 C1116 0.929 . S
H1089 C1117 0.930 . S
H1090 C1118 0.929 . S
H1091 C1120 0.930 . S
H1092 C1097 0.930 . S
H1093 C1101 0.930 . S
O1094 Co1063 2.037 . S
O1094 C1114 1.234 . S
C1095 O1069 1.269 . S
C1095 O1070 1.257 . S
C1096 H1071 0.930 . S
C1096 C1099 1.388 . S
C1096 C1101 1.418 . S
C1097 H1092 0.930 . S
C1097 C1100 1.404 . S
C1097 C1101 1.353 . S
N1098 Co1063 2.145 . S
N1098 C1099 1.397 . S
N1098 C1100 1.334 . S
C1099 H1080 0.929 . S
C1099 C1096 1.388 . S
C1099 N1098 1.397 . S
C1100 H1081 0.929 . S
C1100 C1097 1.404 . S
C1100 N1098 1.334 . S
C1101 H1093 0.930 . S
C1101 C1096 1.418 . S
C1101 C1097 1.353 . S
C1102 H1072 0.930 . S
C1102 N1103 1.330 . S
C1102 C1104 1.446 . S
N1103 Co1062 2.151 . S
N1103 C1102 1.330 . S
N1103 C1107 1.418 . S
C1104 H1083 0.929 . S
C1104 C1102 1.446 . S
C1104 C1105 1.332 . S
C1105 H1085 0.931 . S
C1105 C1104 1.332 . S
C1105 C1106 1.267 . S
C1106 H1074 0.929 . S
C1106 C1105 1.267 . S
C1106 C1107 1.251 . S
C1107 H1077 0.929 . S
C1107 N1103 1.418 . S
C1107 C1106 1.251 . S
C1108 H1075 0.930 . S
C1108 C1110 1.406 . S
C1108 C1113 1.261 . S
C1109 H1076 0.930 . S
C1109 N1111 1.325 . S
C1109 C1112 1.357 . S
C1110 H1078 0.928 . S
C1110 C1108 1.406 . S
C1110 N1111 1.261 . S
N1111 Co1062 2.214 . S
N1111 C1109 1.325 . S
N1111 C1110 1.261 . S
C1112 H1082 0.931 . S
C1112 C1109 1.357 . S
C1112 C1113 1.312 . S
C1113 H1084 0.930 . S
C1113 C1108 1.261 . S
C1113 C1112 1.312 . S
C1114 O1086 1.214 . S
C1114 O1094 1.234 . S
C1115 H1087 0.929 . S
C1115 C1118 1.391 . S
C1115 C1120 1.391 1_556 S
C1116 H1088 0.929 . S
C1116 C1117 1.390 . S
C1116 N1119 1.391 . S
C1117 H1089 0.930 . S
C1117 C1116 1.390 . S
C1117 C1118 1.392 1_554 S
C1118 H1090 0.929 . S
C1118 C1115 1.391 . S
C1118 C1117 1.392 1_556 S
N1119 Co1063 2.257 . S
N1119 C1116 1.391 . S
N1119 C1120 1.388 . S
C1120 H1091 0.930 . S
C1120 C1115 1.391 1_554 S
C1120 N1119 1.388 . S
Co1121 O1123 2.143 . S
Co1121 O1129 2.074 . S
Co1121 O1132 2.085 1_554 S
Co1121 O1145 2.097 . S
Co1121 N1162 2.151 . S
Co1121 N1170 2.214 . S
Co1122 O1123 2.160 . S
Co1122 O1128 2.058 . S
Co1122 O1138 2.057 . S
Co1122 O1153 2.037 . S
Co1122 N1157 2.145 . S
Co1122 N1178 2.257 . S
O1123 Co1121 2.143 . S
O1123 Co1122 2.160 . S
C1124 O1125 1.278 . S
C1124 O1132 1.230 . S
O1125 C1124 1.278 . S
C1126 O1127 1.245 . S
C1126 O1138 1.232 . S
O1127 C1126 1.245 . S
O1128 Co1122 2.058 . S
O1128 C1154 1.269 . S
O1129 Co1121 2.074 . S
O1129 C1154 1.257 . S
H1130 C1155 0.930 . S
H1131 C1161 0.930 . S
O1132 Co1121 2.085 1_556 S
O1132 C1124 1.230 . S
H1133 C1165 0.929 . S
H1134 C1167 0.930 . S
H1135 C1168 0.930 . S
H1136 C1166 0.929 . S
H1137 C1169 0.928 . S
O1138 Co1122 2.057 . S
O1138 C1126 1.232 . S
H1139 C1158 0.929 . S
H1140 C1159 0.929 . S
H1141 C1171 0.931 . S
H1142 C1163 0.929 . S
H1143 C1172 0.930 . S
H1144 C1164 0.931 . S
O1145 Co1121 2.097 . S
O1145 C1173 1.214 . S
H1146 C1174 0.929 . S
H1147 C1175 0.929 . S
H1148 C1176 0.930 . S
H1149 C1177 0.929 . S
H1150 C1179 0.930 . S
H1151 C1156 0.930 . S
H1152 C1160 0.930 . S
O1153 Co1122 2.037 . S
O1153 C1173 1.234 . S
C1154 O1128 1.269 . S
C1154 O1129 1.257 . S
C1155 H1130 0.930 . S
C1155 C1158 1.388 . S
C1155 C1160 1.418 . S
C1156 H1151 0.930 . S
C1156 C1159 1.404 . S
C1156 C1160 1.353 . S
N1157 Co1122 2.145 . S
N1157 C1158 1.397 . S
N1157 C1159 1.334 . S
C1158 H1139 0.929 . S
C1158 C1155 1.388 . S
C1158 N1157 1.397 . S
C1159 H1140 0.929 . S
C1159 C1156 1.404 . S
C1159 N1157 1.334 . S
C1160 H1152 0.930 . S
C1160 C1155 1.418 . S
C1160 C1156 1.353 . S
C1161 H1131 0.930 . S
C1161 N1162 1.330 . S
C1161 C1163 1.446 . S
N1162 Co1121 2.151 . S
N1162 C1161 1.330 . S
N1162 C1166 1.418 . S
C1163 H1142 0.929 . S
C1163 C1161 1.446 . S
C1163 C1164 1.332 . S
C1164 H1144 0.931 . S
C1164 C1163 1.332 . S
C1164 C1165 1.267 . S
C1165 H1133 0.929 . S
C1165 C1164 1.267 . S
C1165 C1166 1.251 . S
C1166 H1136 0.929 . S
C1166 N1162 1.418 . S
C1166 C1165 1.251 . S
C1167 H1134 0.930 . S
C1167 C1169 1.406 . S
C1167 C1172 1.261 . S
C1168 H1135 0.930 . S
C1168 N1170 1.325 . S
C1168 C1171 1.357 . S
C1169 H1137 0.928 . S
C1169 C1167 1.406 . S
C1169 N1170 1.261 . S
N1170 Co1121 2.214 . S
N1170 C1168 1.325 . S
N1170 C1169 1.261 . S
C1171 H1141 0.931 . S
C1171 C1168 1.357 . S
C1171 C1172 1.312 . S
C1172 H1143 0.930 . S
C1172 C1167 1.261 . S
C1172 C1171 1.312 . S
C1173 O1145 1.214 . S
C1173 O1153 1.234 . S
C1174 H1146 0.929 . S
C1174 C1177 1.391 . S
C1174 C1179 1.391 1_556 S
C1175 H1147 0.929 . S
C1175 C1176 1.390 . S
C1175 N1178 1.391 . S
C1176 H1148 0.930 . S
C1176 C1175 1.390 . S
C1176 C1177 1.392 1_554 S
C1177 H1149 0.929 . S
C1177 C1174 1.391 . S
C1177 C1176 1.392 1_556 S
N1178 Co1122 2.257 . S
N1178 C1175 1.391 . S
N1178 C1179 1.388 . S
C1179 H1150 0.930 . S
C1179 C1174 1.391 1_554 S
C1179 N1178 1.388 . S
Co1180 O1182 2.143 . S
Co1180 O1188 2.074 . S
Co1180 O1191 2.085 1_554 S
Co1180 O1204 2.097 . S
Co1180 N1221 2.151 . S
Co1180 N1229 2.214 . S
Co1181 O1182 2.160 . S
Co1181 O1187 2.058 . S
Co1181 O1197 2.057 . S
Co1181 O1212 2.037 . S
Co1181 N1216 2.145 . S
Co1181 N1237 2.257 . S
O1182 Co1180 2.143 . S
O1182 Co1181 2.160 . S
C1183 O1184 1.278 . S
C1183 O1191 1.230 . S
O1184 C1183 1.278 . S
C1185 O1186 1.245 . S
C1185 O1197 1.232 . S
O1186 C1185 1.245 . S
O1187 Co1181 2.058 . S
O1187 C1213 1.269 . S
O1188 Co1180 2.074 . S
O1188 C1213 1.257 . S
H1189 C1214 0.930 . S
H1190 C1220 0.930 . S
O1191 Co1180 2.085 1_556 S
O1191 C1183 1.230 . S
H1192 C1224 0.929 . S
H1193 C1226 0.930 . S
H1194 C1227 0.930 . S
H1195 C1225 0.929 . S
H1196 C1228 0.928 . S
O1197 Co1181 2.057 . S
O1197 C1185 1.232 . S
H1198 C1217 0.929 . S
H1199 C1218 0.929 . S
H1200 C1230 0.931 . S
H1201 C1222 0.929 . S
H1202 C1231 0.930 . S
H1203 C1223 0.931 . S
O1204 Co1180 2.097 . S
O1204 C1232 1.214 . S
H1205 C1233 0.929 . S
H1206 C1234 0.929 . S
H1207 C1235 0.930 . S
H1208 C1236 0.929 . S
H1209 C1238 0.930 . S
H1210 C1215 0.930 . S
H1211 C1219 0.930 . S
O1212 Co1181 2.037 . S
O1212 C1232 1.234 . S
C1213 O1187 1.269 . S
C1213 O1188 1.257 . S
C1214 H1189 0.930 . S
C1214 C1217 1.388 . S
C1214 C1219 1.418 . S
C1215 H1210 0.930 . S
C1215 C1218 1.404 . S
C1215 C1219 1.353 . S
N1216 Co1181 2.145 . S
N1216 C1217 1.397 . S
N1216 C1218 1.334 . S
C1217 H1198 0.929 . S
C1217 C1214 1.388 . S
C1217 N1216 1.397 . S
C1218 H1199 0.929 . S
C1218 C1215 1.404 . S
C1218 N1216 1.334 . S
C1219 H1211 0.930 . S
C1219 C1214 1.418 . S
C1219 C1215 1.353 . S
C1220 H1190 0.930 . S
C1220 N1221 1.330 . S
C1220 C1222 1.446 . S
N1221 Co1180 2.151 . S
N1221 C1220 1.330 . S
N1221 C1225 1.418 . S
C1222 H1201 0.929 . S
C1222 C1220 1.446 . S
C1222 C1223 1.332 . S
C1223 H1203 0.931 . S
C1223 C1222 1.332 . S
C1223 C1224 1.267 . S
C1224 H1192 0.929 . S
C1224 C1223 1.267 . S
C1224 C1225 1.251 . S
C1225 H1195 0.929 . S
C1225 N1221 1.418 . S
C1225 C1224 1.251 . S
C1226 H1193 0.930 . S
C1226 C1228 1.406 . S
C1226 C1231 1.261 . S
C1227 H1194 0.930 . S
C1227 N1229 1.325 . S
C1227 C1230 1.357 . S
C1228 H1196 0.928 . S
C1228 C1226 1.406 . S
C1228 N1229 1.261 . S
N1229 Co1180 2.214 . S
N1229 C1227 1.325 . S
N1229 C1228 1.261 . S
C1230 H1200 0.931 . S
C1230 C1227 1.357 . S
C1230 C1231 1.312 . S
C1231 H1202 0.930 . S
C1231 C1226 1.261 . S
C1231 C1230 1.312 . S
C1232 O1204 1.214 . S
C1232 O1212 1.234 . S
C1233 H1205 0.929 . S
C1233 C1236 1.391 . S
C1233 C1238 1.391 1_556 S
C1234 H1206 0.929 . S
C1234 C1235 1.390 . S
C1234 N1237 1.391 . S
C1235 H1207 0.930 . S
C1235 C1234 1.390 . S
C1235 C1236 1.392 1_554 S
C1236 H1208 0.929 . S
C1236 C1233 1.391 . S
C1236 C1235 1.392 1_556 S
N1237 Co1181 2.257 . S
N1237 C1234 1.391 . S
N1237 C1238 1.388 . S
C1238 H1209 0.930 . S
C1238 C1233 1.391 1_554 S
C1238 N1237 1.388 . S
Co1239 O1241 2.143 . S
Co1239 O1247 2.074 1_554 S
Co1239 O1250 2.093 . S
Co1239 O1263 2.097 . S
Co1239 N1280 2.151 . S
Co1239 N1288 2.214 . S
Co1240 O1241 2.160 . S
Co1240 O1246 2.058 1_554 S
Co1240 O1256 2.057 . S
Co1240 O1271 2.037 . S
Co1240 N1275 2.145 1_554 S
Co1240 N1296 2.257 . S
O1241 Co1239 2.143 . S
O1241 Co1240 2.160 . S
C1242 O1243 1.278 . S
C1242 O1250 1.224 . S
O1243 C1242 1.278 . S
C1244 O1245 1.245 . S
C1244 O1256 1.232 . S
O1245 C1244 1.245 . S
O1246 Co1240 2.058 1_556 S
O1246 C1272 1.269 . S
O1247 Co1239 2.074 1_556 S
O1247 C1272 1.257 . S
H1248 C1273 0.930 . S
H1249 C1279 0.930 . S
O1250 Co1239 2.093 . S
O1250 C1242 1.224 . S
H1251 C1283 0.929 . S
H1252 C1285 0.930 . S
H1253 C1286 0.930 1_556 S
H1254 C1284 0.929 . S
H1255 C1287 0.928 . S
O1256 Co1240 2.057 . S
O1256 C1244 1.232 . S
H1257 C1276 0.929 . S
H1258 C1277 0.929 . S
H1259 C1289 0.932 . S
H1260 C1281 0.929 . S
H1261 C1290 0.930 . S
H1262 C1282 0.931 . S
O1263 Co1239 2.097 . S
O1263 C1291 1.214 . S
H1264 C1292 0.929 . S
H1265 C1293 0.929 . S
H1266 C1294 0.930 . S
H1267 C1295 0.929 . S
H1268 C1297 0.930 . S
H1269 C1274 0.930 . S
H1270 C1278 0.930 . S
O1271 Co1240 2.037 . S
O1271 C1291 1.234 . S
C1272 O1246 1.269 . S
C1272 O1247 1.257 . S
C1273 H1248 0.930 . S
C1273 C1276 1.388 . S
C1273 C1278 1.418 . S
C1274 H1269 0.930 . S
C1274 C1277 1.404 . S
C1274 C1278 1.353 . S
N1275 Co1240 2.145 1_556 S
N1275 C1276 1.397 . S
N1275 C1277 1.334 . S
C1276 H1257 0.929 . S
C1276 C1273 1.388 . S
C1276 N1275 1.397 . S
C1277 H1258 0.929 . S
C1277 C1274 1.404 . S
C1277 N1275 1.334 . S
C1278 H1270 0.930 . S
C1278 C1273 1.418 . S
C1278 C1274 1.353 . S
C1279 H1249 0.930 . S
C1279 N1280 1.330 . S
C1279 C1281 1.446 . S
N1280 Co1239 2.151 . S
N1280 C1279 1.330 . S
N1280 C1284 1.418 . S
C1281 H1260 0.929 . S
C1281 C1279 1.446 . S
C1281 C1282 1.332 . S
C1282 H1262 0.931 . S
C1282 C1281 1.332 . S
C1282 C1283 1.267 . S
C1283 H1251 0.929 . S
C1283 C1282 1.267 . S
C1283 C1284 1.251 . S
C1284 H1254 0.929 . S
C1284 N1280 1.418 . S
C1284 C1283 1.251 . S
C1285 H1252 0.930 . S
C1285 C1287 1.406 . S
C1285 C1290 1.261 . S
C1286 H1253 0.930 1_554 S
C1286 N1288 1.325 . S
C1286 C1289 1.357 1_554 S
C1287 H1255 0.928 . S
C1287 C1285 1.406 . S
C1287 N1288 1.261 . S
N1288 Co1239 2.214 . S
N1288 C1286 1.325 . S
N1288 C1287 1.261 . S
C1289 H1259 0.932 . S
C1289 C1286 1.357 1_556 S
C1289 C1290 1.312 1_556 S
C1290 H1261 0.930 . S
C1290 C1285 1.261 . S
C1290 C1289 1.312 1_554 S
C1291 O1263 1.214 . S
C1291 O1271 1.234 . S
C1292 H1264 0.929 . S
C1292 C1295 1.391 . S
C1292 C1297 1.391 . S
C1293 H1265 0.929 . S
C1293 C1294 1.390 . S
C1293 N1296 1.391 . S
C1294 H1266 0.930 . S
C1294 C1293 1.390 . S
C1294 C1295 1.392 . S
C1295 H1267 0.929 . S
C1295 C1292 1.391 . S
C1295 C1294 1.392 . S
N1296 Co1240 2.257 . S
N1296 C1293 1.391 . S
N1296 C1297 1.388 . S
C1297 H1268 0.930 . S
C1297 C1292 1.391 . S
C1297 N1296 1.388 . S
Co1298 O1300 2.143 . S
Co1298 O1306 2.074 1_554 S
Co1298 O1309 2.093 . S
Co1298 O1322 2.097 . S
Co1298 N1339 2.151 . S
Co1298 N1347 2.214 . S
Co1299 O1300 2.160 . S
Co1299 O1305 2.058 1_554 S
Co1299 O1315 2.057 . S
Co1299 O1330 2.037 . S
Co1299 N1334 2.145 1_554 S
Co1299 N1355 2.257 . S
O1300 Co1298 2.143 . S
O1300 Co1299 2.160 . S
C1301 O1302 1.278 . S
C1301 O1309 1.224 . S
O1302 C1301 1.278 . S
C1303 O1304 1.245 . S
C1303 O1315 1.232 . S
O1304 C1303 1.245 . S
O1305 Co1299 2.058 1_556 S
O1305 C1331 1.269 . S
O1306 Co1298 2.074 1_556 S
O1306 C1331 1.257 . S
H1307 C1332 0.930 . S
H1308 C1338 0.930 . S
O1309 Co1298 2.093 . S
O1309 C1301 1.224 . S
H1310 C1342 0.929 . S
H1311 C1344 0.930 . S
H1312 C1345 0.930 1_556 S
H1313 C1343 0.929 . S
H1314 C1346 0.928 . S
O1315 Co1299 2.057 . S
O1315 C1303 1.232 . S
H1316 C1335 0.929 . S
H1317 C1336 0.929 . S
H1318 C1348 0.932 . S
H1319 C1340 0.929 . S
H1320 C1349 0.930 . S
H1321 C1341 0.931 . S
O1322 Co1298 2.097 . S
O1322 C1350 1.214 . S
H1323 C1351 0.929 . S
H1324 C1352 0.929 . S
H1325 C1353 0.930 . S
H1326 C1354 0.929 . S
H1327 C1356 0.930 . S
H1328 C1333 0.930 . S
H1329 C1337 0.930 . S
O1330 Co1299 2.037 . S
O1330 C1350 1.234 . S
C1331 O1305 1.269 . S
C1331 O1306 1.257 . S
C1332 H1307 0.930 . S
C1332 C1335 1.388 . S
C1332 C1337 1.418 . S
C1333 H1328 0.930 . S
C1333 C1336 1.404 . S
C1333 C1337 1.353 . S
N1334 Co1299 2.145 1_556 S
N1334 C1335 1.397 . S
N1334 C1336 1.334 . S
C1335 H1316 0.929 . S
C1335 C1332 1.388 . S
C1335 N1334 1.397 . S
C1336 H1317 0.929 . S
C1336 C1333 1.404 . S
C1336 N1334 1.334 . S
C1337 H1329 0.930 . S
C1337 C1332 1.418 . S
C1337 C1333 1.353 . S
C1338 H1308 0.930 . S
C1338 N1339 1.330 . S
C1338 C1340 1.446 . S
N1339 Co1298 2.151 . S
N1339 C1338 1.330 . S
N1339 C1343 1.418 . S
C1340 H1319 0.929 . S
C1340 C1338 1.446 . S
C1340 C1341 1.332 . S
C1341 H1321 0.931 . S
C1341 C1340 1.332 . S
C1341 C1342 1.267 . S
C1342 H1310 0.929 . S
C1342 C1341 1.267 . S
C1342 C1343 1.251 . S
C1343 H1313 0.929 . S
C1343 N1339 1.418 . S
C1343 C1342 1.251 . S
C1344 H1311 0.930 . S
C1344 C1346 1.406 . S
C1344 C1349 1.261 . S
C1345 H1312 0.930 1_554 S
C1345 N1347 1.325 . S
C1345 C1348 1.357 1_554 S
C1346 H1314 0.928 . S
C1346 C1344 1.406 . S
C1346 N1347 1.261 . S
N1347 Co1298 2.214 . S
N1347 C1345 1.325 . S
N1347 C1346 1.261 . S
C1348 H1318 0.932 . S
C1348 C1345 1.357 1_556 S
C1348 C1349 1.312 1_556 S
C1349 H1320 0.930 . S
C1349 C1344 1.261 . S
C1349 C1348 1.312 1_554 S
C1350 O1322 1.214 . S
C1350 O1330 1.234 . S
C1351 H1323 0.929 . S
C1351 C1354 1.391 . S
C1351 C1356 1.391 . S
C1352 H1324 0.929 . S
C1352 C1353 1.390 . S
C1352 N1355 1.391 . S
C1353 H1325 0.930 . S
C1353 C1352 1.390 . S
C1353 C1354 1.392 . S
C1354 H1326 0.929 . S
C1354 C1351 1.391 . S
C1354 C1353 1.392 . S
N1355 Co1299 2.257 . S
N1355 C1352 1.391 . S
N1355 C1356 1.388 . S
C1356 H1327 0.930 . S
C1356 C1351 1.391 . S
C1356 N1355 1.388 . S
Co1357 O1359 2.143 . S
Co1357 O1365 2.074 1_554 S
Co1357 O1368 2.093 . S
Co1357 O1381 2.097 . S
Co1357 N1398 2.151 . S
Co1357 N1406 2.214 . S
Co1358 O1359 2.160 . S
Co1358 O1364 2.058 1_554 S
Co1358 O1374 2.057 . S
Co1358 O1389 2.037 . S
Co1358 N1393 2.145 1_554 S
Co1358 N1414 2.257 . S
O1359 Co1357 2.143 . S
O1359 Co1358 2.160 . S
C1360 O1361 1.278 . S
C1360 O1368 1.224 . S
O1361 C1360 1.278 . S
C1362 O1363 1.245 . S
C1362 O1374 1.232 . S
O1363 C1362 1.245 . S
O1364 Co1358 2.058 1_556 S
O1364 C1390 1.269 . S
O1365 Co1357 2.074 1_556 S
O1365 C1390 1.257 . S
H1366 C1391 0.930 . S
H1367 C1397 0.930 . S
O1368 Co1357 2.093 . S
O1368 C1360 1.224 . S
H1369 C1401 0.929 . S
H1370 C1403 0.930 . S
H1371 C1404 0.930 1_556 S
H1372 C1402 0.929 . S
H1373 C1405 0.928 . S
O1374 Co1358 2.057 . S
O1374 C1362 1.232 . S
H1375 C1394 0.929 . S
H1376 C1395 0.929 . S
H1377 C1407 0.932 . S
H1378 C1399 0.929 . S
H1379 C1408 0.930 . S
H1380 C1400 0.931 . S
O1381 Co1357 2.097 . S
O1381 C1409 1.214 . S
H1382 C1410 0.929 . S
H1383 C1411 0.929 . S
H1384 C1412 0.930 . S
H1385 C1413 0.929 . S
H1386 C1415 0.930 . S
H1387 C1392 0.930 . S
H1388 C1396 0.930 . S
O1389 Co1358 2.037 . S
O1389 C1409 1.234 . S
C1390 O1364 1.269 . S
C1390 O1365 1.257 . S
C1391 H1366 0.930 . S
C1391 C1394 1.388 . S
C1391 C1396 1.418 . S
C1392 H1387 0.930 . S
C1392 C1395 1.404 . S
C1392 C1396 1.353 . S
N1393 Co1358 2.145 1_556 S
N1393 C1394 1.397 . S
N1393 C1395 1.334 . S
C1394 H1375 0.929 . S
C1394 C1391 1.388 . S
C1394 N1393 1.397 . S
C1395 H1376 0.929 . S
C1395 C1392 1.404 . S
C1395 N1393 1.334 . S
C1396 H1388 0.930 . S
C1396 C1391 1.418 . S
C1396 C1392 1.353 . S
C1397 H1367 0.930 . S
C1397 N1398 1.330 . S
C1397 C1399 1.446 . S
N1398 Co1357 2.151 . S
N1398 C1397 1.330 . S
N1398 C1402 1.418 . S
C1399 H1378 0.929 . S
C1399 C1397 1.446 . S
C1399 C1400 1.332 . S
C1400 H1380 0.931 . S
C1400 C1399 1.332 . S
C1400 C1401 1.267 . S
C1401 H1369 0.929 . S
C1401 C1400 1.267 . S
C1401 C1402 1.251 . S
C1402 H1372 0.929 . S
C1402 N1398 1.418 . S
C1402 C1401 1.251 . S
C1403 H1370 0.930 . S
C1403 C1405 1.406 . S
C1403 C1408 1.261 . S
C1404 H1371 0.930 1_554 S
C1404 N1406 1.325 . S
C1404 C1407 1.357 1_554 S
C1405 H1373 0.928 . S
C1405 C1403 1.406 . S
C1405 N1406 1.261 . S
N1406 Co1357 2.214 . S
N1406 C1404 1.325 . S
N1406 C1405 1.261 . S
C1407 H1377 0.932 . S
C1407 C1404 1.357 1_556 S
C1407 C1408 1.312 1_556 S
C1408 H1379 0.930 . S
C1408 C1403 1.261 . S
C1408 C1407 1.312 1_554 S
C1409 O1381 1.214 . S
C1409 O1389 1.234 . S
C1410 H1382 0.929 . S
C1410 C1413 1.391 . S
C1410 C1415 1.391 . S
C1411 H1383 0.929 . S
C1411 C1412 1.390 . S
C1411 N1414 1.391 . S
C1412 H1384 0.930 . S
C1412 C1411 1.390 . S
C1412 C1413 1.392 . S
C1413 H1385 0.929 . S
C1413 C1410 1.391 . S
C1413 C1412 1.392 . S
N1414 Co1358 2.257 . S
N1414 C1411 1.391 . S
N1414 C1415 1.388 . S
C1415 H1386 0.930 . S
C1415 C1410 1.391 . S
C1415 N1414 1.388 . S
Co1416 O1418 2.143 . S
Co1416 O1424 2.074 . S
Co1416 O1427 2.085 1_556 S
Co1416 O1440 2.097 . S
Co1416 N1457 2.151 . S
Co1416 N1465 2.214 . S
Co1417 O1418 2.160 . S
Co1417 O1423 2.058 . S
Co1417 O1433 2.057 . S
Co1417 O1448 2.037 . S
Co1417 N1452 2.145 . S
Co1417 N1473 2.257 . S
O1418 Co1416 2.143 . S
O1418 Co1417 2.160 . S
C1419 O1420 1.278 . S
C1419 O1427 1.230 . S
O1420 C1419 1.278 . S
C1421 O1422 1.245 . S
C1421 O1433 1.232 . S
O1422 C1421 1.245 . S
O1423 Co1417 2.058 . S
O1423 C1449 1.269 . S
O1424 Co1416 2.074 . S
O1424 C1449 1.257 . S
H1425 C1450 0.930 . S
H1426 C1456 0.930 . S
O1427 Co1416 2.085 1_554 S
O1427 C1419 1.230 . S
H1428 C1460 0.929 . S
H1429 C1462 0.930 . S
H1430 C1463 0.930 . S
H1431 C1461 0.929 . S
H1432 C1464 0.928 . S
O1433 Co1417 2.057 . S
O1433 C1421 1.232 . S
H1434 C1453 0.929 . S
H1435 C1454 0.929 . S
H1436 C1466 0.931 . S
H1437 C1458 0.929 . S
H1438 C1467 0.930 . S
H1439 C1459 0.931 . S
O1440 Co1416 2.097 . S
O1440 C1468 1.214 . S
H1441 C1469 0.929 . S
H1442 C1470 0.929 . S
H1443 C1471 0.930 . S
H1444 C1472 0.929 . S
H1445 C1474 0.930 . S
H1446 C1451 0.930 . S
H1447 C1455 0.930 . S
O1448 Co1417 2.037 . S
O1448 C1468 1.234 . S
C1449 O1423 1.269 . S
C1449 O1424 1.257 . S
C1450 H1425 0.930 . S
C1450 C1453 1.388 . S
C1450 C1455 1.418 . S
C1451 H1446 0.930 . S
C1451 C1454 1.404 . S
C1451 C1455 1.353 . S
N1452 Co1417 2.145 . S
N1452 C1453 1.397 . S
N1452 C1454 1.334 . S
C1453 H1434 0.929 . S
C1453 C1450 1.388 . S
C1453 N1452 1.397 . S
C1454 H1435 0.929 . S
C1454 C1451 1.404 . S
C1454 N1452 1.334 . S
C1455 H1447 0.930 . S
C1455 C1450 1.418 . S
C1455 C1451 1.353 . S
C1456 H1426 0.930 . S
C1456 N1457 1.330 . S
C1456 C1458 1.446 . S
N1457 Co1416 2.151 . S
N1457 C1456 1.330 . S
N1457 C1461 1.418 . S
C1458 H1437 0.929 . S
C1458 C1456 1.446 . S
C1458 C1459 1.332 . S
C1459 H1439 0.931 . S
C1459 C1458 1.332 . S
C1459 C1460 1.267 . S
C1460 H1428 0.929 . S
C1460 C1459 1.267 . S
C1460 C1461 1.251 . S
C1461 H1431 0.929 . S
C1461 N1457 1.418 . S
C1461 C1460 1.251 . S
C1462 H1429 0.930 . S
C1462 C1464 1.406 . S
C1462 C1467 1.261 . S
C1463 H1430 0.930 . S
C1463 N1465 1.325 . S
C1463 C1466 1.357 . S
C1464 H1432 0.928 . S
C1464 C1462 1.406 . S
C1464 N1465 1.261 . S
N1465 Co1416 2.214 . S
N1465 C1463 1.325 . S
N1465 C1464 1.261 . S
C1466 H1436 0.931 . S
C1466 C1463 1.357 . S
C1466 C1467 1.312 . S
C1467 H1438 0.930 . S
C1467 C1462 1.261 . S
C1467 C1466 1.312 . S
C1468 O1440 1.214 . S
C1468 O1448 1.234 . S
C1469 H1441 0.929 . S
C1469 C1472 1.391 . S
C1469 C1474 1.391 1_554 S
C1470 H1442 0.929 . S
C1470 C1471 1.390 . S
C1470 N1473 1.391 . S
C1471 H1443 0.930 . S
C1471 C1470 1.390 . S
C1471 C1472 1.392 1_556 S
C1472 H1444 0.929 . S
C1472 C1469 1.391 . S
C1472 C1471 1.392 1_554 S
N1473 Co1417 2.257 . S
N1473 C1470 1.391 . S
N1473 C1474 1.388 . S
C1474 H1445 0.930 . S
C1474 C1469 1.391 1_556 S
C1474 N1473 1.388 . S
Co1475 O1477 2.143 . S
Co1475 O1483 2.074 . S
Co1475 O1486 2.085 1_556 S
Co1475 O1499 2.097 . S
Co1475 N1516 2.151 . S
Co1475 N1524 2.214 . S
Co1476 O1477 2.160 . S
Co1476 O1482 2.058 . S
Co1476 O1492 2.057 . S
Co1476 O1507 2.037 . S
Co1476 N1511 2.145 . S
Co1476 N1532 2.257 . S
O1477 Co1475 2.143 . S
O1477 Co1476 2.160 . S
C1478 O1479 1.278 . S
C1478 O1486 1.230 . S
O1479 C1478 1.278 . S
C1480 O1481 1.245 . S
C1480 O1492 1.232 . S
O1481 C1480 1.245 . S
O1482 Co1476 2.058 . S
O1482 C1508 1.269 . S
O1483 Co1475 2.074 . S
O1483 C1508 1.257 . S
H1484 C1509 0.930 . S
H1485 C1515 0.930 . S
O1486 Co1475 2.085 1_554 S
O1486 C1478 1.230 . S
H1487 C1519 0.929 . S
H1488 C1521 0.930 . S
H1489 C1522 0.930 . S
H1490 C1520 0.929 . S
H1491 C1523 0.928 . S
O1492 Co1476 2.057 . S
O1492 C1480 1.232 . S
H1493 C1512 0.929 . S
H1494 C1513 0.929 . S
H1495 C1525 0.931 . S
H1496 C1517 0.929 . S
H1497 C1526 0.930 . S
H1498 C1518 0.931 . S
O1499 Co1475 2.097 . S
O1499 C1527 1.214 . S
H1500 C1528 0.929 . S
H1501 C1529 0.929 . S
H1502 C1530 0.930 . S
H1503 C1531 0.929 . S
H1504 C1533 0.930 . S
H1505 C1510 0.930 . S
H1506 C1514 0.930 . S
O1507 Co1476 2.037 . S
O1507 C1527 1.234 . S
C1508 O1482 1.269 . S
C1508 O1483 1.257 . S
C1509 H1484 0.930 . S
C1509 C1512 1.388 . S
C1509 C1514 1.418 . S
C1510 H1505 0.930 . S
C1510 C1513 1.404 . S
C1510 C1514 1.353 . S
N1511 Co1476 2.145 . S
N1511 C1512 1.397 . S
N1511 C1513 1.334 . S
C1512 H1493 0.929 . S
C1512 C1509 1.388 . S
C1512 N1511 1.397 . S
C1513 H1494 0.929 . S
C1513 C1510 1.404 . S
C1513 N1511 1.334 . S
C1514 H1506 0.930 . S
C1514 C1509 1.418 . S
C1514 C1510 1.353 . S
C1515 H1485 0.930 . S
C1515 N1516 1.330 . S
C1515 C1517 1.446 . S
N1516 Co1475 2.151 . S
N1516 C1515 1.330 . S
N1516 C1520 1.418 . S
C1517 H1496 0.929 . S
C1517 C1515 1.446 . S
C1517 C1518 1.332 . S
C1518 H1498 0.931 . S
C1518 C1517 1.332 . S
C1518 C1519 1.267 . S
C1519 H1487 0.929 . S
C1519 C1518 1.267 . S
C1519 C1520 1.251 . S
C1520 H1490 0.929 . S
C1520 N1516 1.418 . S
C1520 C1519 1.251 . S
C1521 H1488 0.930 . S
C1521 C1523 1.406 . S
C1521 C1526 1.261 . S
C1522 H1489 0.930 . S
C1522 N1524 1.325 . S
C1522 C1525 1.357 . S
C1523 H1491 0.928 . S
C1523 C1521 1.406 . S
C1523 N1524 1.261 . S
N1524 Co1475 2.214 . S
N1524 C1522 1.325 . S
N1524 C1523 1.261 . S
C1525 H1495 0.931 . S
C1525 C1522 1.357 . S
C1525 C1526 1.312 . S
C1526 H1497 0.930 . S
C1526 C1521 1.261 . S
C1526 C1525 1.312 . S
C1527 O1499 1.214 . S
C1527 O1507 1.234 . S
C1528 H1500 0.929 . S
C1528 C1531 1.391 . S
C1528 C1533 1.391 1_554 S
C1529 H1501 0.929 . S
C1529 C1530 1.390 . S
C1529 N1532 1.391 . S
C1530 H1502 0.930 . S
C1530 C1529 1.390 . S
C1530 C1531 1.392 1_556 S
C1531 H1503 0.929 . S
C1531 C1528 1.391 . S
C1531 C1530 1.392 1_554 S
N1532 Co1476 2.257 . S
N1532 C1529 1.391 . S
N1532 C1533 1.388 . S
C1533 H1504 0.930 . S
C1533 C1528 1.391 1_556 S
C1533 N1532 1.388 . S
Co1534 O1536 2.143 . S
Co1534 O1542 2.074 . S
Co1534 O1545 2.085 1_556 S
Co1534 O1558 2.097 . S
Co1534 N1575 2.151 . S
Co1534 N1583 2.214 . S
Co1535 O1536 2.160 . S
Co1535 O1541 2.058 . S
Co1535 O1551 2.057 . S
Co1535 O1566 2.037 . S
Co1535 N1570 2.145 . S
Co1535 N1591 2.257 . S
O1536 Co1534 2.143 . S
O1536 Co1535 2.160 . S
C1537 O1538 1.278 . S
C1537 O1545 1.230 . S
O1538 C1537 1.278 . S
C1539 O1540 1.245 . S
C1539 O1551 1.232 . S
O1540 C1539 1.245 . S
O1541 Co1535 2.058 . S
O1541 C1567 1.269 . S
O1542 Co1534 2.074 . S
O1542 C1567 1.257 . S
H1543 C1568 0.930 . S
H1544 C1574 0.930 . S
O1545 Co1534 2.085 1_554 S
O1545 C1537 1.230 . S
H1546 C1578 0.929 . S
H1547 C1580 0.930 . S
H1548 C1581 0.930 . S
H1549 C1579 0.929 . S
H1550 C1582 0.928 . S
O1551 Co1535 2.057 . S
O1551 C1539 1.232 . S
H1552 C1571 0.929 . S
H1553 C1572 0.929 . S
H1554 C1584 0.931 . S
H1555 C1576 0.929 . S
H1556 C1585 0.930 . S
H1557 C1577 0.931 . S
O1558 Co1534 2.097 . S
O1558 C1586 1.214 . S
H1559 C1587 0.929 . S
H1560 C1588 0.929 . S
H1561 C1589 0.930 . S
H1562 C1590 0.929 . S
H1563 C1592 0.930 . S
H1564 C1569 0.930 . S
H1565 C1573 0.930 . S
O1566 Co1535 2.037 . S
O1566 C1586 1.234 . S
C1567 O1541 1.269 . S
C1567 O1542 1.257 . S
C1568 H1543 0.930 . S
C1568 C1571 1.388 . S
C1568 C1573 1.418 . S
C1569 H1564 0.930 . S
C1569 C1572 1.404 . S
C1569 C1573 1.353 . S
N1570 Co1535 2.145 . S
N1570 C1571 1.397 . S
N1570 C1572 1.334 . S
C1571 H1552 0.929 . S
C1571 C1568 1.388 . S
C1571 N1570 1.397 . S
C1572 H1553 0.929 . S
C1572 C1569 1.404 . S
C1572 N1570 1.334 . S
C1573 H1565 0.930 . S
C1573 C1568 1.418 . S
C1573 C1569 1.353 . S
C1574 H1544 0.930 . S
C1574 N1575 1.330 . S
C1574 C1576 1.446 . S
N1575 Co1534 2.151 . S
N1575 C1574 1.330 . S
N1575 C1579 1.418 . S
C1576 H1555 0.929 . S
C1576 C1574 1.446 . S
C1576 C1577 1.332 . S
C1577 H1557 0.931 . S
C1577 C1576 1.332 . S
C1577 C1578 1.267 . S
C1578 H1546 0.929 . S
C1578 C1577 1.267 . S
C1578 C1579 1.251 . S
C1579 H1549 0.929 . S
C1579 N1575 1.418 . S
C1579 C1578 1.251 . S
C1580 H1547 0.930 . S
C1580 C1582 1.406 . S
C1580 C1585 1.261 . S
C1581 H1548 0.930 . S
C1581 N1583 1.325 . S
C1581 C1584 1.357 . S
C1582 H1550 0.928 . S
C1582 C1580 1.406 . S
C1582 N1583 1.261 . S
N1583 Co1534 2.214 . S
N1583 C1581 1.325 . S
N1583 C1582 1.261 . S
C1584 H1554 0.931 . S
C1584 C1581 1.357 . S
C1584 C1585 1.312 . S
C1585 H1556 0.930 . S
C1585 C1580 1.261 . S
C1585 C1584 1.312 . S
C1586 O1558 1.214 . S
C1586 O1566 1.234 . S
C1587 H1559 0.929 . S
C1587 C1590 1.391 . S
C1587 C1592 1.391 1_554 S
C1588 H1560 0.929 . S
C1588 C1589 1.390 . S
C1588 N1591 1.391 . S
C1589 H1561 0.930 . S
C1589 C1588 1.390 . S
C1589 C1590 1.392 1_556 S
C1590 H1562 0.929 . S
C1590 C1587 1.391 . S
C1590 C1589 1.392 1_554 S
N1591 Co1535 2.257 . S
N1591 C1588 1.391 . S
N1591 C1592 1.388 . S
C1592 H1563 0.930 . S
C1592 C1587 1.391 1_556 S
C1592 N1591 1.388 . S
Co1593 O1595 2.143 . S
Co1593 O1601 2.074 1_556 S
Co1593 O1604 2.093 . S
Co1593 O1617 2.097 . S
Co1593 N1634 2.151 . S
Co1593 N1642 2.214 . S
Co1594 O1595 2.160 . S
Co1594 O1600 2.058 1_556 S
Co1594 O1610 2.057 . S
Co1594 O1625 2.037 . S
Co1594 N1629 2.145 1_556 S
Co1594 N1650 2.257 . S
O1595 Co1593 2.143 . S
O1595 Co1594 2.160 . S
C1596 O1597 1.278 . S
C1596 O1604 1.224 . S
O1597 C1596 1.278 . S
C1598 O1599 1.245 . S
C1598 O1610 1.232 . S
O1599 C1598 1.245 . S
O1600 Co1594 2.058 1_554 S
O1600 C1626 1.269 . S
O1601 Co1593 2.074 1_554 S
O1601 C1626 1.257 . S
H1602 C1627 0.930 . S
H1603 C1633 0.930 . S
O1604 Co1593 2.093 . S
O1604 C1596 1.224 . S
H1605 C1637 0.929 . S
H1606 C1639 0.930 . S
H1607 C1640 0.930 1_554 S
H1608 C1638 0.929 . S
H1609 C1641 0.928 . S
O1610 Co1594 2.057 . S
O1610 C1598 1.232 . S
H1611 C1630 0.929 . S
H1612 C1631 0.929 . S
H1613 C1643 0.932 . S
H1614 C1635 0.929 . S
H1615 C1644 0.930 . S
H1616 C1636 0.931 . S
O1617 Co1593 2.097 . S
O1617 C1645 1.214 . S
H1618 C1646 0.929 . S
H1619 C1647 0.929 . S
H1620 C1648 0.930 . S
H1621 C1649 0.929 . S
H1622 C1651 0.930 . S
H1623 C1628 0.930 . S
H1624 C1632 0.930 . S
O1625 Co1594 2.037 . S
O1625 C1645 1.234 . S
C1626 O1600 1.269 . S
C1626 O1601 1.257 . S
C1627 H1602 0.930 . S
C1627 C1630 1.388 . S
C1627 C1632 1.418 . S
C1628 H1623 0.930 . S
C1628 C1631 1.404 . S
C1628 C1632 1.353 . S
N1629 Co1594 2.145 1_554 S
N1629 C1630 1.397 . S
N1629 C1631 1.334 . S
C1630 H1611 0.929 . S
C1630 C1627 1.388 . S
C1630 N1629 1.397 . S
C1631 H1612 0.929 . S
C1631 C1628 1.404 . S
C1631 N1629 1.334 . S
C1632 H1624 0.930 . S
C1632 C1627 1.418 . S
C1632 C1628 1.353 . S
C1633 H1603 0.930 . S
C1633 N1634 1.330 . S
C1633 C1635 1.446 . S
N1634 Co1593 2.151 . S
N1634 C1633 1.330 . S
N1634 C1638 1.418 . S
C1635 H1614 0.929 . S
C1635 C1633 1.446 . S
C1635 C1636 1.332 . S
C1636 H1616 0.931 . S
C1636 C1635 1.332 . S
C1636 C1637 1.267 . S
C1637 H1605 0.929 . S
C1637 C1636 1.267 . S
C1637 C1638 1.251 . S
C1638 H1608 0.929 . S
C1638 N1634 1.418 . S
C1638 C1637 1.251 . S
C1639 H1606 0.930 . S
C1639 C1641 1.406 . S
C1639 C1644 1.261 . S
C1640 H1607 0.930 1_556 S
C1640 N1642 1.325 . S
C1640 C1643 1.357 1_556 S
C1641 H1609 0.928 . S
C1641 C1639 1.406 . S
C1641 N1642 1.261 . S
N1642 Co1593 2.214 . S
N1642 C1640 1.325 . S
N1642 C1641 1.261 . S
C1643 H1613 0.932 . S
C1643 C1640 1.357 1_554 S
C1643 C1644 1.312 1_554 S
C1644 H1615 0.930 . S
C1644 C1639 1.261 . S
C1644 C1643 1.312 1_556 S
C1645 O1617 1.214 . S
C1645 O1625 1.234 . S
C1646 H1618 0.929 . S
C1646 C1649 1.391 . S
C1646 C1651 1.391 . S
C1647 H1619 0.929 . S
C1647 C1648 1.390 . S
C1647 N1650 1.391 . S
C1648 H1620 0.930 . S
C1648 C1647 1.390 . S
C1648 C1649 1.392 . S
C1649 H1621 0.929 . S
C1649 C1646 1.391 . S
C1649 C1648 1.392 . S
N1650 Co1594 2.257 . S
N1650 C1647 1.391 . S
N1650 C1651 1.388 . S
C1651 H1622 0.930 . S
C1651 C1646 1.391 . S
C1651 N1650 1.388 . S
Co1652 O1654 2.143 . S
Co1652 O1660 2.074 1_556 S
Co1652 O1663 2.093 . S
Co1652 O1676 2.097 . S
Co1652 N1693 2.151 . S
Co1652 N1701 2.214 . S
Co1653 O1654 2.160 . S
Co1653 O1659 2.058 1_556 S
Co1653 O1669 2.057 . S
Co1653 O1684 2.037 . S
Co1653 N1688 2.145 1_556 S
Co1653 N1709 2.257 . S
O1654 Co1652 2.143 . S
O1654 Co1653 2.160 . S
C1655 O1656 1.278 . S
C1655 O1663 1.224 . S
O1656 C1655 1.278 . S
C1657 O1658 1.245 . S
C1657 O1669 1.232 . S
O1658 C1657 1.245 . S
O1659 Co1653 2.058 1_554 S
O1659 C1685 1.269 . S
O1660 Co1652 2.074 1_554 S
O1660 C1685 1.257 . S
H1661 C1686 0.930 . S
H1662 C1692 0.930 . S
O1663 Co1652 2.093 . S
O1663 C1655 1.224 . S
H1664 C1696 0.929 . S
H1665 C1698 0.930 . S
H1666 C1699 0.930 1_554 S
H1667 C1697 0.929 . S
H1668 C1700 0.928 . S
O1669 Co1653 2.057 . S
O1669 C1657 1.232 . S
H1670 C1689 0.929 . S
H1671 C1690 0.929 . S
H1672 C1702 0.932 . S
H1673 C1694 0.929 . S
H1674 C1703 0.930 . S
H1675 C1695 0.931 . S
O1676 Co1652 2.097 . S
O1676 C1704 1.214 . S
H1677 C1705 0.929 . S
H1678 C1706 0.929 . S
H1679 C1707 0.930 . S
H1680 C1708 0.929 . S
H1681 C1710 0.930 . S
H1682 C1687 0.930 . S
H1683 C1691 0.930 . S
O1684 Co1653 2.037 . S
O1684 C1704 1.234 . S
C1685 O1659 1.269 . S
C1685 O1660 1.257 . S
C1686 H1661 0.930 . S
C1686 C1689 1.388 . S
C1686 C1691 1.418 . S
C1687 H1682 0.930 . S
C1687 C1690 1.404 . S
C1687 C1691 1.353 . S
N1688 Co1653 2.145 1_554 S
N1688 C1689 1.397 . S
N1688 C1690 1.334 . S
C1689 H1670 0.929 . S
C1689 C1686 1.388 . S
C1689 N1688 1.397 . S
C1690 H1671 0.929 . S
C1690 C1687 1.404 . S
C1690 N1688 1.334 . S
C1691 H1683 0.930 . S
C1691 C1686 1.418 . S
C1691 C1687 1.353 . S
C1692 H1662 0.930 . S
C1692 N1693 1.330 . S
C1692 C1694 1.446 . S
N1693 Co1652 2.151 . S
N1693 C1692 1.330 . S
N1693 C1697 1.418 . S
C1694 H1673 0.929 . S
C1694 C1692 1.446 . S
C1694 C1695 1.332 . S
C1695 H1675 0.931 . S
C1695 C1694 1.332 . S
C1695 C1696 1.267 . S
C1696 H1664 0.929 . S
C1696 C1695 1.267 . S
C1696 C1697 1.251 . S
C1697 H1667 0.929 . S
C1697 N1693 1.418 . S
C1697 C1696 1.251 . S
C1698 H1665 0.930 . S
C1698 C1700 1.406 . S
C1698 C1703 1.261 . S
C1699 H1666 0.930 1_556 S
C1699 N1701 1.325 . S
C1699 C1702 1.357 1_556 S
C1700 H1668 0.928 . S
C1700 C1698 1.406 . S
C1700 N1701 1.261 . S
N1701 Co1652 2.214 . S
N1701 C1699 1.325 . S
N1701 C1700 1.261 . S
C1702 H1672 0.932 . S
C1702 C1699 1.357 1_554 S
C1702 C1703 1.312 1_554 S
C1703 H1674 0.930 . S
C1703 C1698 1.261 . S
C1703 C1702 1.312 1_556 S
C1704 O1676 1.214 . S
C1704 O1684 1.234 . S
C1705 H1677 0.929 . S
C1705 C1708 1.391 . S
C1705 C1710 1.391 . S
C1706 H1678 0.929 . S
C1706 C1707 1.390 . S
C1706 N1709 1.391 . S
C1707 H1679 0.930 . S
C1707 C1706 1.390 . S
C1707 C1708 1.392 . S
C1708 H1680 0.929 . S
C1708 C1705 1.391 . S
C1708 C1707 1.392 . S
N1709 Co1653 2.257 . S
N1709 C1706 1.391 . S
N1709 C1710 1.388 . S
C1710 H1681 0.930 . S
C1710 C1705 1.391 . S
C1710 N1709 1.388 . S
Co1711 O1713 2.143 . S
Co1711 O1719 2.074 1_556 S
Co1711 O1722 2.093 . S
Co1711 O1735 2.097 . S
Co1711 N1752 2.151 . S
Co1711 N1760 2.214 . S
Co1712 O1713 2.160 . S
Co1712 O1718 2.058 1_556 S
Co1712 O1728 2.057 . S
Co1712 O1743 2.037 . S
Co1712 N1747 2.145 1_556 S
Co1712 N1768 2.257 . S
O1713 Co1711 2.143 . S
O1713 Co1712 2.160 . S
C1714 O1715 1.278 . S
C1714 O1722 1.224 . S
O1715 C1714 1.278 . S
C1716 O1717 1.245 . S
C1716 O1728 1.232 . S
O1717 C1716 1.245 . S
O1718 Co1712 2.058 1_554 S
O1718 C1744 1.269 . S
O1719 Co1711 2.074 1_554 S
O1719 C1744 1.257 . S
H1720 C1745 0.930 . S
H1721 C1751 0.930 . S
O1722 Co1711 2.093 . S
O1722 C1714 1.224 . S
H1723 C1755 0.929 . S
H1724 C1757 0.930 . S
H1725 C1758 0.930 1_554 S
H1726 C1756 0.929 . S
H1727 C1759 0.928 . S
O1728 Co1712 2.057 . S
O1728 C1716 1.232 . S
H1729 C1748 0.929 . S
H1730 C1749 0.929 . S
H1731 C1761 0.932 . S
H1732 C1753 0.929 . S
H1733 C1762 0.930 . S
H1734 C1754 0.931 . S
O1735 Co1711 2.097 . S
O1735 C1763 1.214 . S
H1736 C1764 0.929 . S
H1737 C1765 0.929 . S
H1738 C1766 0.930 . S
H1739 C1767 0.929 . S
H1740 C1769 0.930 . S
H1741 C1746 0.930 . S
H1742 C1750 0.930 . S
O1743 Co1712 2.037 . S
O1743 C1763 1.234 . S
C1744 O1718 1.269 . S
C1744 O1719 1.257 . S
C1745 H1720 0.930 . S
C1745 C1748 1.388 . S
C1745 C1750 1.418 . S
C1746 H1741 0.930 . S
C1746 C1749 1.404 . S
C1746 C1750 1.353 . S
N1747 Co1712 2.145 1_554 S
N1747 C1748 1.397 . S
N1747 C1749 1.334 . S
C1748 H1729 0.929 . S
C1748 C1745 1.388 . S
C1748 N1747 1.397 . S
C1749 H1730 0.929 . S
C1749 C1746 1.404 . S
C1749 N1747 1.334 . S
C1750 H1742 0.930 . S
C1750 C1745 1.418 . S
C1750 C1746 1.353 . S
C1751 H1721 0.930 . S
C1751 N1752 1.330 . S
C1751 C1753 1.446 . S
N1752 Co1711 2.151 . S
N1752 C1751 1.330 . S
N1752 C1756 1.418 . S
C1753 H1732 0.929 . S
C1753 C1751 1.446 . S
C1753 C1754 1.332 . S
C1754 H1734 0.931 . S
C1754 C1753 1.332 . S
C1754 C1755 1.267 . S
C1755 H1723 0.929 . S
C1755 C1754 1.267 . S
C1755 C1756 1.251 . S
C1756 H1726 0.929 . S
C1756 N1752 1.418 . S
C1756 C1755 1.251 . S
C1757 H1724 0.930 . S
C1757 C1759 1.406 . S
C1757 C1762 1.261 . S
C1758 H1725 0.930 1_556 S
C1758 N1760 1.325 . S
C1758 C1761 1.357 1_556 S
C1759 H1727 0.928 . S
C1759 C1757 1.406 . S
C1759 N1760 1.261 . S
N1760 Co1711 2.214 . S
N1760 C1758 1.325 . S
N1760 C1759 1.261 . S
C1761 H1731 0.932 . S
C1761 C1758 1.357 1_554 S
C1761 C1762 1.312 1_554 S
C1762 H1733 0.930 . S
C1762 C1757 1.261 . S
C1762 C1761 1.312 1_556 S
C1763 O1735 1.214 . S
C1763 O1743 1.234 . S
C1764 H1736 0.929 . S
C1764 C1767 1.391 . S
C1764 C1769 1.391 . S
C1765 H1737 0.929 . S
C1765 C1766 1.390 . S
C1765 N1768 1.391 . S
C1766 H1738 0.930 . S
C1766 C1765 1.390 . S
C1766 C1767 1.392 . S
C1767 H1739 0.929 . S
C1767 C1764 1.391 . S
C1767 C1766 1.392 . S
N1768 Co1712 2.257 . S
N1768 C1765 1.391 . S
N1768 C1769 1.388 . S
C1769 H1740 0.930 . S
C1769 C1764 1.391 . S
C1769 N1768 1.388 . S
Co1770 O1772 2.143 . S
Co1770 O1778 2.074 . S
Co1770 O1781 2.093 . S
Co1770 O1794 2.097 . S
Co1770 N1811 2.151 . S
Co1770 N1819 2.214 . S
Co1771 O1772 2.160 . S
Co1771 O1777 2.058 . S
Co1771 O1787 2.057 . S
Co1771 O1802 2.037 . S
Co1771 N1806 2.145 . S
Co1771 N1827 2.257 . S
O1772 Co1770 2.143 . S
O1772 Co1771 2.160 . S
C1773 O1774 1.278 . S
C1773 O1781 1.224 . S
O1774 C1773 1.278 . S
C1775 O1776 1.245 . S
C1775 O1787 1.232 . S
O1776 C1775 1.245 . S
O1777 Co1771 2.058 . S
O1777 C1803 1.269 . S
O1778 Co1770 2.074 . S
O1778 C1803 1.257 . S
H1779 C1804 0.930 . S
H1780 C1810 0.930 . S
O1781 Co1770 2.093 . S
O1781 C1773 1.224 . S
H1782 C1814 0.929 . S
H1783 C1816 0.930 . S
H1784 C1817 0.930 . S
H1785 C1815 0.929 . S
H1786 C1818 0.928 . S
O1787 Co1771 2.057 . S
O1787 C1775 1.232 . S
H1788 C1807 0.929 . S
H1789 C1808 0.929 . S
H1790 C1820 0.931 . S
H1791 C1812 0.929 . S
H1792 C1821 0.930 . S
H1793 C1813 0.931 . S
O1794 Co1770 2.097 . S
O1794 C1822 1.214 . S
H1795 C1823 0.929 . S
H1796 C1824 0.929 . S
H1797 C1825 0.930 . S
H1798 C1826 0.929 . S
H1799 C1828 0.930 . S
H1800 C1805 0.930 . S
H1801 C1809 0.930 . S
O1802 Co1771 2.037 . S
O1802 C1822 1.234 . S
C1803 O1777 1.269 . S
C1803 O1778 1.257 . S
C1804 H1779 0.930 . S
C1804 C1807 1.388 . S
C1804 C1809 1.418 . S
C1805 H1800 0.930 . S
C1805 C1808 1.404 . S
C1805 C1809 1.353 . S
N1806 Co1771 2.145 . S
N1806 C1807 1.397 . S
N1806 C1808 1.334 . S
C1807 H1788 0.929 . S
C1807 C1804 1.388 . S
C1807 N1806 1.397 . S
C1808 H1789 0.929 . S
C1808 C1805 1.404 . S
C1808 N1806 1.334 . S
C1809 H1801 0.930 . S
C1809 C1804 1.418 . S
C1809 C1805 1.353 . S
C1810 H1780 0.930 . S
C1810 N1811 1.330 . S
C1810 C1812 1.446 . S
N1811 Co1770 2.151 . S
N1811 C1810 1.330 . S
N1811 C1815 1.418 . S
C1812 H1791 0.929 . S
C1812 C1810 1.446 . S
C1812 C1813 1.332 . S
C1813 H1793 0.931 . S
C1813 C1812 1.332 . S
C1813 C1814 1.267 . S
C1814 H1782 0.929 . S
C1814 C1813 1.267 . S
C1814 C1815 1.251 . S
C1815 H1785 0.929 . S
C1815 N1811 1.418 . S
C1815 C1814 1.251 . S
C1816 H1783 0.930 . S
C1816 C1818 1.406 . S
C1816 C1821 1.261 . S
C1817 H1784 0.930 . S
C1817 N1819 1.325 . S
C1817 C1820 1.357 . S
C1818 H1786 0.928 . S
C1818 C1816 1.406 . S
C1818 N1819 1.261 . S
N1819 Co1770 2.214 . S
N1819 C1817 1.325 . S
N1819 C1818 1.261 . S
C1820 H1790 0.931 . S
C1820 C1817 1.357 . S
C1820 C1821 1.312 . S
C1821 H1792 0.930 . S
C1821 C1816 1.261 . S
C1821 C1820 1.312 . S
C1822 O1794 1.214 . S
C1822 O1802 1.234 . S
C1823 H1795 0.929 . S
C1823 C1826 1.391 . S
C1823 C1828 1.391 . S
C1824 H1796 0.929 . S
C1824 C1825 1.390 . S
C1824 N1827 1.391 . S
C1825 H1797 0.930 . S
C1825 C1824 1.390 . S
C1825 C1826 1.392 . S
C1826 H1798 0.929 . S
C1826 C1823 1.391 . S
C1826 C1825 1.392 . S
N1827 Co1771 2.257 . S
N1827 C1824 1.391 . S
N1827 C1828 1.388 . S
C1828 H1799 0.930 . S
C1828 C1823 1.391 . S
C1828 N1827 1.388 . S
Co1829 O1831 2.143 . S
Co1829 O1837 2.074 . S
Co1829 O1840 2.093 . S
Co1829 O1853 2.097 . S
Co1829 N1870 2.151 . S
Co1829 N1878 2.214 . S
Co1830 O1831 2.160 . S
Co1830 O1836 2.058 . S
Co1830 O1846 2.057 . S
Co1830 O1861 2.037 . S
Co1830 N1865 2.145 . S
Co1830 N1886 2.257 . S
O1831 Co1829 2.143 . S
O1831 Co1830 2.160 . S
C1832 O1833 1.278 . S
C1832 O1840 1.224 . S
O1833 C1832 1.278 . S
C1834 O1835 1.245 . S
C1834 O1846 1.232 . S
O1835 C1834 1.245 . S
O1836 Co1830 2.058 . S
O1836 C1862 1.269 . S
O1837 Co1829 2.074 . S
O1837 C1862 1.257 . S
H1838 C1863 0.930 . S
H1839 C1869 0.930 . S
O1840 Co1829 2.093 . S
O1840 C1832 1.224 . S
H1841 C1873 0.929 . S
H1842 C1875 0.930 . S
H1843 C1876 0.930 . S
H1844 C1874 0.929 . S
H1845 C1877 0.928 . S
O1846 Co1830 2.057 . S
O1846 C1834 1.232 . S
H1847 C1866 0.929 . S
H1848 C1867 0.929 . S
H1849 C1879 0.931 . S
H1850 C1871 0.929 . S
H1851 C1880 0.930 . S
H1852 C1872 0.931 . S
O1853 Co1829 2.097 . S
O1853 C1881 1.214 . S
H1854 C1882 0.929 . S
H1855 C1883 0.929 . S
H1856 C1884 0.930 . S
H1857 C1885 0.929 . S
H1858 C1887 0.930 . S
H1859 C1864 0.930 . S
H1860 C1868 0.930 . S
O1861 Co1830 2.037 . S
O1861 C1881 1.234 . S
C1862 O1836 1.269 . S
C1862 O1837 1.257 . S
C1863 H1838 0.930 . S
C1863 C1866 1.388 . S
C1863 C1868 1.418 . S
C1864 H1859 0.930 . S
C1864 C1867 1.404 . S
C1864 C1868 1.353 . S
N1865 Co1830 2.145 . S
N1865 C1866 1.397 . S
N1865 C1867 1.334 . S
C1866 H1847 0.929 . S
C1866 C1863 1.388 . S
C1866 N1865 1.397 . S
C1867 H1848 0.929 . S
C1867 C1864 1.404 . S
C1867 N1865 1.334 . S
C1868 H1860 0.930 . S
C1868 C1863 1.418 . S
C1868 C1864 1.353 . S
C1869 H1839 0.930 . S
C1869 N1870 1.330 . S
C1869 C1871 1.446 . S
N1870 Co1829 2.151 . S
N1870 C1869 1.330 . S
N1870 C1874 1.418 . S
C1871 H1850 0.929 . S
C1871 C1869 1.446 . S
C1871 C1872 1.332 . S
C1872 H1852 0.931 . S
C1872 C1871 1.332 . S
C1872 C1873 1.267 . S
C1873 H1841 0.929 . S
C1873 C1872 1.267 . S
C1873 C1874 1.251 . S
C1874 H1844 0.929 . S
C1874 N1870 1.418 . S
C1874 C1873 1.251 . S
C1875 H1842 0.930 . S
C1875 C1877 1.406 . S
C1875 C1880 1.261 . S
C1876 H1843 0.930 . S
C1876 N1878 1.325 . S
C1876 C1879 1.357 . S
C1877 H1845 0.928 . S
C1877 C1875 1.406 . S
C1877 N1878 1.261 . S
N1878 Co1829 2.214 . S
N1878 C1876 1.325 . S
N1878 C1877 1.261 . S
C1879 H1849 0.931 . S
C1879 C1876 1.357 . S
C1879 C1880 1.312 . S
C1880 H1851 0.930 . S
C1880 C1875 1.261 . S
C1880 C1879 1.312 . S
C1881 O1853 1.214 . S
C1881 O1861 1.234 . S
C1882 H1854 0.929 . S
C1882 C1885 1.391 . S
C1882 C1887 1.391 . S
C1883 H1855 0.929 . S
C1883 C1884 1.390 . S
C1883 N1886 1.391 . S
C1884 H1856 0.930 . S
C1884 C1883 1.390 . S
C1884 C1885 1.392 . S
C1885 H1857 0.929 . S
C1885 C1882 1.391 . S
C1885 C1884 1.392 . S
N1886 Co1830 2.257 . S
N1886 C1883 1.391 . S
N1886 C1887 1.388 . S
C1887 H1858 0.930 . S
C1887 C1882 1.391 . S
C1887 N1886 1.388 . S
Co1888 O1890 2.143 . S
Co1888 O1896 2.074 . S
Co1888 O1899 2.093 . S
Co1888 O1912 2.097 . S
Co1888 N1929 2.151 . S
Co1888 N1937 2.214 . S
Co1889 O1890 2.160 . S
Co1889 O1895 2.058 . S
Co1889 O1905 2.057 . S
Co1889 O1920 2.037 . S
Co1889 N1924 2.145 . S
Co1889 N1945 2.257 . S
O1890 Co1888 2.143 . S
O1890 Co1889 2.160 . S
C1891 O1892 1.278 . S
C1891 O1899 1.224 . S
O1892 C1891 1.278 . S
C1893 O1894 1.245 . S
C1893 O1905 1.232 . S
O1894 C1893 1.245 . S
O1895 Co1889 2.058 . S
O1895 C1921 1.269 . S
O1896 Co1888 2.074 . S
O1896 C1921 1.257 . S
H1897 C1922 0.930 . S
H1898 C1928 0.930 . S
O1899 Co1888 2.093 . S
O1899 C1891 1.224 . S
H1900 C1932 0.929 . S
H1901 C1934 0.930 . S
H1902 C1935 0.930 . S
H1903 C1933 0.929 . S
H1904 C1936 0.928 . S
O1905 Co1889 2.057 . S
O1905 C1893 1.232 . S
H1906 C1925 0.929 . S
H1907 C1926 0.929 . S
H1908 C1938 0.931 . S
H1909 C1930 0.929 . S
H1910 C1939 0.930 . S
H1911 C1931 0.931 . S
O1912 Co1888 2.097 . S
O1912 C1940 1.214 . S
H1913 C1941 0.929 . S
H1914 C1942 0.929 . S
H1915 C1943 0.930 . S
H1916 C1944 0.929 . S
H1917 C1946 0.930 . S
H1918 C1923 0.930 . S
H1919 C1927 0.930 . S
O1920 Co1889 2.037 . S
O1920 C1940 1.234 . S
C1921 O1895 1.269 . S
C1921 O1896 1.257 . S
C1922 H1897 0.930 . S
C1922 C1925 1.388 . S
C1922 C1927 1.418 . S
C1923 H1918 0.930 . S
C1923 C1926 1.404 . S
C1923 C1927 1.353 . S
N1924 Co1889 2.145 . S
N1924 C1925 1.397 . S
N1924 C1926 1.334 . S
C1925 H1906 0.929 . S
C1925 C1922 1.388 . S
C1925 N1924 1.397 . S
C1926 H1907 0.929 . S
C1926 C1923 1.404 . S
C1926 N1924 1.334 . S
C1927 H1919 0.930 . S
C1927 C1922 1.418 . S
C1927 C1923 1.353 . S
C1928 H1898 0.930 . S
C1928 N1929 1.330 . S
C1928 C1930 1.446 . S
N1929 Co1888 2.151 . S
N1929 C1928 1.330 . S
N1929 C1933 1.418 . S
C1930 H1909 0.929 . S
C1930 C1928 1.446 . S
C1930 C1931 1.332 . S
C1931 H1911 0.931 . S
C1931 C1930 1.332 . S
C1931 C1932 1.267 . S
C1932 H1900 0.929 . S
C1932 C1931 1.267 . S
C1932 C1933 1.251 . S
C1933 H1903 0.929 . S
C1933 N1929 1.418 . S
C1933 C1932 1.251 . S
C1934 H1901 0.930 . S
C1934 C1936 1.406 . S
C1934 C1939 1.261 . S
C1935 H1902 0.930 . S
C1935 N1937 1.325 . S
C1935 C1938 1.357 . S
C1936 H1904 0.928 . S
C1936 C1934 1.406 . S
C1936 N1937 1.261 . S
N1937 Co1888 2.214 . S
N1937 C1935 1.325 . S
N1937 C1936 1.261 . S
C1938 H1908 0.931 . S
C1938 C1935 1.357 . S
C1938 C1939 1.312 . S
C1939 H1910 0.930 . S
C1939 C1934 1.261 . S
C1939 C1938 1.312 . S
C1940 O1912 1.214 . S
C1940 O1920 1.234 . S
C1941 H1913 0.929 . S
C1941 C1944 1.391 . S
C1941 C1946 1.391 . S
C1942 H1914 0.929 . S
C1942 C1943 1.390 . S
C1942 N1945 1.391 . S
C1943 H1915 0.930 . S
C1943 C1942 1.390 . S
C1943 C1944 1.392 . S
C1944 H1916 0.929 . S
C1944 C1941 1.391 . S
C1944 C1943 1.392 . S
N1945 Co1889 2.257 . S
N1945 C1942 1.391 . S
N1945 C1946 1.388 . S
C1946 H1917 0.930 . S
C1946 C1941 1.391 . S
C1946 N1945 1.388 . S
Co1947 O1949 2.143 . S
Co1947 O1955 2.074 . S
Co1947 O1958 2.093 . S
Co1947 O1971 2.097 . S
Co1947 N1988 2.151 . S
Co1947 N1996 2.214 . S
Co1948 O1949 2.160 . S
Co1948 O1954 2.058 . S
Co1948 O1964 2.057 . S
Co1948 O1979 2.037 . S
Co1948 N1983 2.145 . S
Co1948 N2004 2.257 . S
O1949 Co1947 2.143 . S
O1949 Co1948 2.160 . S
C1950 O1951 1.278 . S
C1950 O1958 1.224 . S
O1951 C1950 1.278 . S
C1952 O1953 1.245 . S
C1952 O1964 1.232 . S
O1953 C1952 1.245 . S
O1954 Co1948 2.058 . S
O1954 C1980 1.269 . S
O1955 Co1947 2.074 . S
O1955 C1980 1.257 . S
H1956 C1981 0.930 . S
H1957 C1987 0.930 . S
O1958 Co1947 2.093 . S
O1958 C1950 1.224 . S
H1959 C1991 0.929 . S
H1960 C1993 0.930 . S
H1961 C1994 0.930 . S
H1962 C1992 0.929 . S
H1963 C1995 0.928 . S
O1964 Co1948 2.057 . S
O1964 C1952 1.232 . S
H1965 C1984 0.929 . S
H1966 C1985 0.929 . S
H1967 C1997 0.931 . S
H1968 C1989 0.929 . S
H1969 C1998 0.930 . S
H1970 C1990 0.931 . S
O1971 Co1947 2.097 . S
O1971 C1999 1.214 . S
H1972 C2000 0.929 . S
H1973 C2001 0.929 . S
H1974 C2002 0.930 . S
H1975 C2003 0.929 . S
H1976 C2005 0.930 . S
H1977 C1982 0.930 . S
H1978 C1986 0.930 . S
O1979 Co1948 2.037 . S
O1979 C1999 1.234 . S
C1980 O1954 1.269 . S
C1980 O1955 1.257 . S
C1981 H1956 0.930 . S
C1981 C1984 1.388 . S
C1981 C1986 1.418 . S
C1982 H1977 0.930 . S
C1982 C1985 1.404 . S
C1982 C1986 1.353 . S
N1983 Co1948 2.145 . S
N1983 C1984 1.397 . S
N1983 C1985 1.334 . S
C1984 H1965 0.929 . S
C1984 C1981 1.388 . S
C1984 N1983 1.397 . S
C1985 H1966 0.929 . S
C1985 C1982 1.404 . S
C1985 N1983 1.334 . S
C1986 H1978 0.930 . S
C1986 C1981 1.418 . S
C1986 C1982 1.353 . S
C1987 H1957 0.930 . S
C1987 N1988 1.330 . S
C1987 C1989 1.446 . S
N1988 Co1947 2.151 . S
N1988 C1987 1.330 . S
N1988 C1992 1.418 . S
C1989 H1968 0.929 . S
C1989 C1987 1.446 . S
C1989 C1990 1.332 . S
C1990 H1970 0.931 . S
C1990 C1989 1.332 . S
C1990 C1991 1.267 . S
C1991 H1959 0.929 . S
C1991 C1990 1.267 . S
C1991 C1992 1.251 . S
C1992 H1962 0.929 . S
C1992 N1988 1.418 . S
C1992 C1991 1.251 . S
C1993 H1960 0.930 . S
C1993 C1995 1.406 . S
C1993 C1998 1.261 . S
C1994 H1961 0.930 . S
C1994 N1996 1.325 . S
C1994 C1997 1.357 . S
C1995 H1963 0.928 . S
C1995 C1993 1.406 . S
C1995 N1996 1.261 . S
N1996 Co1947 2.214 . S
N1996 C1994 1.325 . S
N1996 C1995 1.261 . S
C1997 H1967 0.931 . S
C1997 C1994 1.357 . S
C1997 C1998 1.312 . S
C1998 H1969 0.930 . S
C1998 C1993 1.261 . S
C1998 C1997 1.312 . S
C1999 O1971 1.214 . S
C1999 O1979 1.234 . S
C2000 H1972 0.929 . S
C2000 C2003 1.391 . S
C2000 C2005 1.391 . S
C2001 H1973 0.929 . S
C2001 C2002 1.390 . S
C2001 N2004 1.391 . S
C2002 H1974 0.930 . S
C2002 C2001 1.390 . S
C2002 C2003 1.392 . S
C2003 H1975 0.929 . S
C2003 C2000 1.391 . S
C2003 C2002 1.392 . S
N2004 Co1948 2.257 . S
N2004 C2001 1.391 . S
N2004 C2005 1.388 . S
C2005 H1976 0.930 . S
C2005 C2000 1.391 . S
C2005 N2004 1.388 . S
Co2006 O2008 2.143 . S
Co2006 O2014 2.074 . S
Co2006 O2017 2.093 . S
Co2006 O2030 2.097 . S
Co2006 N2047 2.151 . S
Co2006 N2055 2.214 . S
Co2007 O2008 2.160 . S
Co2007 O2013 2.058 . S
Co2007 O2023 2.057 . S
Co2007 O2038 2.037 . S
Co2007 N2042 2.145 . S
Co2007 N2063 2.257 . S
O2008 Co2006 2.143 . S
O2008 Co2007 2.160 . S
C2009 O2010 1.278 . S
C2009 O2017 1.224 . S
O2010 C2009 1.278 . S
C2011 O2012 1.245 . S
C2011 O2023 1.232 . S
O2012 C2011 1.245 . S
O2013 Co2007 2.058 . S
O2013 C2039 1.269 . S
O2014 Co2006 2.074 . S
O2014 C2039 1.257 . S
H2015 C2040 0.930 . S
H2016 C2046 0.930 . S
O2017 Co2006 2.093 . S
O2017 C2009 1.224 . S
H2018 C2050 0.929 . S
H2019 C2052 0.930 . S
H2020 C2053 0.930 . S
H2021 C2051 0.929 . S
H2022 C2054 0.928 . S
O2023 Co2007 2.057 . S
O2023 C2011 1.232 . S
H2024 C2043 0.929 . S
H2025 C2044 0.929 . S
H2026 C2056 0.931 . S
H2027 C2048 0.929 . S
H2028 C2057 0.930 . S
H2029 C2049 0.931 . S
O2030 Co2006 2.097 . S
O2030 C2058 1.214 . S
H2031 C2059 0.929 . S
H2032 C2060 0.929 . S
H2033 C2061 0.930 . S
H2034 C2062 0.929 . S
H2035 C2064 0.930 . S
H2036 C2041 0.930 . S
H2037 C2045 0.930 . S
O2038 Co2007 2.037 . S
O2038 C2058 1.234 . S
C2039 O2013 1.269 . S
C2039 O2014 1.257 . S
C2040 H2015 0.930 . S
C2040 C2043 1.388 . S
C2040 C2045 1.418 . S
C2041 H2036 0.930 . S
C2041 C2044 1.404 . S
C2041 C2045 1.353 . S
N2042 Co2007 2.145 . S
N2042 C2043 1.397 . S
N2042 C2044 1.334 . S
C2043 H2024 0.929 . S
C2043 C2040 1.388 . S
C2043 N2042 1.397 . S
C2044 H2025 0.929 . S
C2044 C2041 1.404 . S
C2044 N2042 1.334 . S
C2045 H2037 0.930 . S
C2045 C2040 1.418 . S
C2045 C2041 1.353 . S
C2046 H2016 0.930 . S
C2046 N2047 1.330 . S
C2046 C2048 1.446 . S
N2047 Co2006 2.151 . S
N2047 C2046 1.330 . S
N2047 C2051 1.418 . S
C2048 H2027 0.929 . S
C2048 C2046 1.446 . S
C2048 C2049 1.332 . S
C2049 H2029 0.931 . S
C2049 C2048 1.332 . S
C2049 C2050 1.267 . S
C2050 H2018 0.929 . S
C2050 C2049 1.267 . S
C2050 C2051 1.251 . S
C2051 H2021 0.929 . S
C2051 N2047 1.418 . S
C2051 C2050 1.251 . S
C2052 H2019 0.930 . S
C2052 C2054 1.406 . S
C2052 C2057 1.261 . S
C2053 H2020 0.930 . S
C2053 N2055 1.325 . S
C2053 C2056 1.357 . S
C2054 H2022 0.928 . S
C2054 C2052 1.406 . S
C2054 N2055 1.261 . S
N2055 Co2006 2.214 . S
N2055 C2053 1.325 . S
N2055 C2054 1.261 . S
C2056 H2026 0.931 . S
C2056 C2053 1.357 . S
C2056 C2057 1.312 . S
C2057 H2028 0.930 . S
C2057 C2052 1.261 . S
C2057 C2056 1.312 . S
C2058 O2030 1.214 . S
C2058 O2038 1.234 . S
C2059 H2031 0.929 . S
C2059 C2062 1.391 . S
C2059 C2064 1.391 . S
C2060 H2032 0.929 . S
C2060 C2061 1.390 . S
C2060 N2063 1.391 . S
C2061 H2033 0.930 . S
C2061 C2060 1.390 . S
C2061 C2062 1.392 . S
C2062 H2034 0.929 . S
C2062 C2059 1.391 . S
C2062 C2061 1.392 . S
N2063 Co2007 2.257 . S
N2063 C2060 1.391 . S
N2063 C2064 1.388 . S
C2064 H2035 0.930 . S
C2064 C2059 1.391 . S
C2064 N2063 1.388 . S
Co2065 O2067 2.143 . S
Co2065 O2073 2.074 . S
Co2065 O2076 2.093 . S
Co2065 O2089 2.097 . S
Co2065 N2106 2.151 . S
Co2065 N2114 2.214 . S
Co2066 O2067 2.160 . S
Co2066 O2072 2.058 . S
Co2066 O2082 2.057 . S
Co2066 O2097 2.037 . S
Co2066 N2101 2.145 . S
Co2066 N2122 2.257 . S
O2067 Co2065 2.143 . S
O2067 Co2066 2.160 . S
C2068 O2069 1.278 . S
C2068 O2076 1.224 . S
O2069 C2068 1.278 . S
C2070 O2071 1.245 . S
C2070 O2082 1.232 . S
O2071 C2070 1.245 . S
O2072 Co2066 2.058 . S
O2072 C2098 1.269 . S
O2073 Co2065 2.074 . S
O2073 C2098 1.257 . S
H2074 C2099 0.930 . S
H2075 C2105 0.930 . S
O2076 Co2065 2.093 . S
O2076 C2068 1.224 . S
H2077 C2109 0.929 . S
H2078 C2111 0.930 . S
H2079 C2112 0.930 . S
H2080 C2110 0.929 . S
H2081 C2113 0.928 . S
O2082 Co2066 2.057 . S
O2082 C2070 1.232 . S
H2083 C2102 0.929 . S
H2084 C2103 0.929 . S
H2085 C2115 0.931 . S
H2086 C2107 0.929 . S
H2087 C2116 0.930 . S
H2088 C2108 0.931 . S
O2089 Co2065 2.097 . S
O2089 C2117 1.214 . S
H2090 C2118 0.929 . S
H2091 C2119 0.929 . S
H2092 C2120 0.930 . S
H2093 C2121 0.929 . S
H2094 C2123 0.930 . S
H2095 C2100 0.930 . S
H2096 C2104 0.930 . S
O2097 Co2066 2.037 . S
O2097 C2117 1.234 . S
C2098 O2072 1.269 . S
C2098 O2073 1.257 . S
C2099 H2074 0.930 . S
C2099 C2102 1.388 . S
C2099 C2104 1.418 . S
C2100 H2095 0.930 . S
C2100 C2103 1.404 . S
C2100 C2104 1.353 . S
N2101 Co2066 2.145 . S
N2101 C2102 1.397 . S
N2101 C2103 1.334 . S
C2102 H2083 0.929 . S
C2102 C2099 1.388 . S
C2102 N2101 1.397 . S
C2103 H2084 0.929 . S
C2103 C2100 1.404 . S
C2103 N2101 1.334 . S
C2104 H2096 0.930 . S
C2104 C2099 1.418 . S
C2104 C2100 1.353 . S
C2105 H2075 0.930 . S
C2105 N2106 1.330 . S
C2105 C2107 1.446 . S
N2106 Co2065 2.151 . S
N2106 C2105 1.330 . S
N2106 C2110 1.418 . S
C2107 H2086 0.929 . S
C2107 C2105 1.446 . S
C2107 C2108 1.332 . S
C2108 H2088 0.931 . S
C2108 C2107 1.332 . S
C2108 C2109 1.267 . S
C2109 H2077 0.929 . S
C2109 C2108 1.267 . S
C2109 C2110 1.251 . S
C2110 H2080 0.929 . S
C2110 N2106 1.418 . S
C2110 C2109 1.251 . S
C2111 H2078 0.930 . S
C2111 C2113 1.406 . S
C2111 C2116 1.261 . S
C2112 H2079 0.930 . S
C2112 N2114 1.325 . S
C2112 C2115 1.357 . S
C2113 H2081 0.928 . S
C2113 C2111 1.406 . S
C2113 N2114 1.261 . S
N2114 Co2065 2.214 . S
N2114 C2112 1.325 . S
N2114 C2113 1.261 . S
C2115 H2085 0.931 . S
C2115 C2112 1.357 . S
C2115 C2116 1.312 . S
C2116 H2087 0.930 . S
C2116 C2111 1.261 . S
C2116 C2115 1.312 . S
C2117 O2089 1.214 . S
C2117 O2097 1.234 . S
C2118 H2090 0.929 . S
C2118 C2121 1.391 . S
C2118 C2123 1.391 . S
C2119 H2091 0.929 . S
C2119 C2120 1.390 . S
C2119 N2122 1.391 . S
C2120 H2092 0.930 . S
C2120 C2119 1.390 . S
C2120 C2121 1.392 . S
C2121 H2093 0.929 . S
C2121 C2118 1.391 . S
C2121 C2120 1.392 . S
N2122 Co2066 2.257 . S
N2122 C2119 1.391 . S
N2122 C2123 1.388 . S
C2123 H2094 0.930 . S
C2123 C2118 1.391 . S
C2123 N2122 1.388 . S
C2124 C2125 1.369 . S
C2124 C2126 1.419 1_556 S
C2124 H2128 0.930 . S
C2125 C2124 1.369 . S
C2125 C2134 1.429 . S
C2126 C2124 1.419 1_554 S
C2126 C2127 1.363 . S
C2126 H2129 0.929 . S
C2127 C2126 1.363 . S
C2127 C2133 1.428 . S
H2128 C2124 0.930 . S
H2129 C2126 0.929 . S
S2130 N2131 1.613 . S
S2130 N2132 1.610 1_556 S
N2131 S2130 1.613 . S
N2131 C2134 1.350 . S
N2132 S2130 1.610 1_554 S
N2132 C2133 1.351 . S
C2133 C2127 1.428 . S
C2133 N2132 1.351 . S
C2133 C2134 1.434 1_554 S
C2134 C2125 1.429 . S
C2134 N2131 1.350 . S
C2134 C2133 1.434 1_556 S
C2135 C2136 1.369 . S
C2135 C2137 1.419 1_556 S
C2135 H2139 0.930 . S
C2136 C2135 1.369 . S
C2136 C2145 1.429 . S
C2137 C2135 1.419 1_554 S
C2137 C2138 1.363 . S
C2137 H2140 0.929 . S
C2138 C2137 1.363 . S
C2138 C2144 1.428 . S
H2139 C2135 0.930 . S
H2140 C2137 0.929 . S
S2141 N2142 1.613 . S
S2141 N2143 1.610 1_556 S
N2142 S2141 1.613 . S
N2142 C2145 1.350 . S
N2143 S2141 1.610 1_554 S
N2143 C2144 1.351 . S
C2144 C2138 1.428 . S
C2144 N2143 1.351 . S
C2144 C2145 1.434 1_554 S
C2145 C2136 1.429 . S
C2145 N2142 1.350 . S
C2145 C2144 1.434 1_556 S
C2146 C2147 1.369 . S
C2146 C2148 1.419 1_554 S
C2146 H2150 0.930 . S
C2147 C2146 1.369 . S
C2147 C2156 1.429 . S
C2148 C2146 1.419 1_556 S
C2148 C2149 1.363 . S
C2148 H2151 0.929 . S
C2149 C2148 1.363 . S
C2149 C2155 1.428 . S
H2150 C2146 0.930 . S
H2151 C2148 0.929 . S
S2152 N2153 1.613 1_556 S
S2152 N2154 1.610 . S
N2153 S2152 1.613 1_554 S
N2153 C2156 1.350 . S
N2154 S2152 1.610 . S
N2154 C2155 1.351 . S
C2155 C2149 1.428 . S
C2155 N2154 1.351 . S
C2155 C2156 1.434 1_556 S
C2156 C2147 1.429 . S
C2156 N2153 1.350 . S
C2156 C2155 1.434 1_554 S
C2157 C2158 1.369 . S
C2157 C2159 1.419 . S
C2157 H2161 0.930 . S
C2158 C2157 1.369 . S
C2158 C2167 1.429 . S
C2159 C2157 1.419 . S
C2159 C2160 1.363 . S
C2159 H2162 0.929 . S
C2160 C2159 1.363 . S
C2160 C2166 1.428 . S
H2161 C2157 0.930 . S
H2162 C2159 0.929 . S
S2163 N2164 1.613 . S
S2163 N2165 1.610 . S
N2164 S2163 1.613 . S
N2164 C2167 1.350 . S
N2165 S2163 1.610 . S
N2165 C2166 1.351 . S
C2166 C2160 1.428 . S
C2166 N2165 1.351 . S
C2166 C2167 1.434 . S
C2167 C2158 1.429 . S
C2167 N2164 1.350 . S
C2167 C2166 1.434 . S
C2168 C2169 1.369 . S
C2168 C2170 1.419 . S
C2168 H2172 0.930 . S
C2169 C2168 1.369 . S
C2169 C2178 1.429 . S
C2170 C2168 1.419 . S
C2170 C2171 1.363 . S
C2170 H2173 0.929 . S
C2171 C2170 1.363 . S
C2171 C2177 1.428 . S
H2172 C2168 0.930 . S
H2173 C2170 0.929 . S
S2174 N2175 1.613 . S
S2174 N2176 1.610 . S
N2175 S2174 1.613 . S
N2175 C2178 1.350 . S
N2176 S2174 1.610 . S
N2176 C2177 1.351 . S
C2177 C2171 1.428 . S
C2177 N2176 1.351 . S
C2177 C2178 1.434 . S
C2178 C2169 1.429 . S
C2178 N2175 1.350 . S
C2178 C2177 1.434 . S
C2179 C2180 1.369 . S
C2179 C2181 1.419 . S
C2179 H2183 0.930 . S
C2180 C2179 1.369 . S
C2180 C2189 1.429 . S
C2181 C2179 1.419 . S
C2181 C2182 1.363 . S
C2181 H2184 0.929 . S
C2182 C2181 1.363 . S
C2182 C2188 1.428 . S
H2183 C2179 0.930 . S
H2184 C2181 0.929 . S
S2185 N2186 1.613 . S
S2185 N2187 1.610 . S
N2186 S2185 1.613 . S
N2186 C2189 1.350 . S
N2187 S2185 1.610 . S
N2187 C2188 1.351 . S
C2188 C2182 1.428 . S
C2188 N2187 1.351 . S
C2188 C2189 1.434 . S
C2189 C2180 1.429 . S
C2189 N2186 1.350 . S
C2189 C2188 1.434 . S
C2190 C2191 1.369 . S
C2190 C2192 1.419 1_554 S
C2190 H2194 0.930 . S
C2191 C2190 1.369 . S
C2191 C2200 1.429 . S
C2192 C2190 1.419 1_556 S
C2192 C2193 1.363 . S
C2192 H2195 0.929 . S
C2193 C2192 1.363 . S
C2193 C2199 1.428 . S
H2194 C2190 0.930 . S
H2195 C2192 0.929 . S
S2196 N2197 1.613 . S
S2196 N2198 1.610 1_554 S
N2197 S2196 1.613 . S
N2197 C2200 1.350 . S
N2198 S2196 1.610 1_556 S
N2198 C2199 1.351 . S
C2199 C2193 1.428 . S
C2199 N2198 1.351 . S
C2199 C2200 1.434 1_556 S
C2200 C2191 1.429 . S
C2200 N2197 1.350 . S
C2200 C2199 1.434 1_554 S
C2201 C2202 1.369 . S
C2201 C2203 1.419 1_554 S
C2201 H2205 0.930 . S
C2202 C2201 1.369 . S
C2202 C2211 1.429 . S
C2203 C2201 1.419 1_556 S
C2203 C2204 1.363 . S
C2203 H2206 0.929 . S
C2204 C2203 1.363 . S
C2204 C2210 1.428 . S
H2205 C2201 0.930 . S
H2206 C2203 0.929 . S
S2207 N2208 1.613 1_556 S
S2207 N2209 1.610 . S
N2208 S2207 1.613 1_554 S
N2208 C2211 1.350 . S
N2209 S2207 1.610 . S
N2209 C2210 1.351 . S
C2210 C2204 1.428 . S
C2210 N2209 1.351 . S
C2210 C2211 1.434 1_556 S
C2211 C2202 1.429 . S
C2211 N2208 1.350 . S
C2211 C2210 1.434 1_554 S
C2212 C2213 1.369 . S
C2212 C2214 1.419 1_556 S
C2212 H2216 0.930 . S
C2213 C2212 1.369 . S
C2213 C2222 1.429 . S
C2214 C2212 1.419 1_554 S
C2214 C2215 1.363 . S
C2214 H2217 0.929 . S
C2215 C2214 1.363 . S
C2215 C2221 1.428 . S
H2216 C2212 0.930 . S
H2217 C2214 0.929 . S
S2218 N2219 1.613 1_554 S
S2218 N2220 1.610 . S
N2219 S2218 1.613 1_556 S
N2219 C2222 1.350 . S
N2220 S2218 1.610 . S
N2220 C2221 1.351 . S
C2221 C2215 1.428 . S
C2221 N2220 1.351 . S
C2221 C2222 1.434 1_554 S
C2222 C2213 1.429 . S
C2222 N2219 1.350 . S
C2222 C2221 1.434 1_556 S
C2223 C2224 1.369 . S
C2223 C2225 1.419 . S
C2223 H2227 0.930 . S
C2224 C2223 1.369 . S
C2224 C2233 1.429 . S
C2225 C2223 1.419 . S
C2225 C2226 1.363 . S
C2225 H2228 0.929 . S
C2226 C2225 1.363 . S
C2226 C2232 1.428 . S
H2227 C2223 0.930 . S
H2228 C2225 0.929 . S
S2229 N2230 1.613 . S
S2229 N2231 1.610 . S
N2230 S2229 1.613 . S
N2230 C2233 1.350 . S
N2231 S2229 1.610 . S
N2231 C2232 1.351 . S
C2232 C2226 1.428 . S
C2232 N2231 1.351 . S
C2232 C2233 1.434 . S
C2233 C2224 1.429 . S
C2233 N2230 1.350 . S
C2233 C2232 1.434 . S
C2234 C2235 1.369 . S
C2234 C2236 1.419 . S
C2234 H2238 0.930 . S
C2235 C2234 1.369 . S
C2235 C2244 1.429 . S
C2236 C2234 1.419 . S
C2236 C2237 1.363 . S
C2236 H2239 0.929 . S
C2237 C2236 1.363 . S
C2237 C2243 1.428 . S
H2238 C2234 0.930 . S
H2239 C2236 0.929 . S
S2240 N2241 1.613 . S
S2240 N2242 1.610 . S
N2241 S2240 1.613 . S
N2241 C2244 1.350 . S
N2242 S2240 1.610 . S
N2242 C2243 1.351 . S
C2243 C2237 1.428 . S
C2243 N2242 1.351 . S
C2243 C2244 1.434 . S
C2244 C2235 1.429 . S
C2244 N2241 1.350 . S
C2244 C2243 1.434 . S
C2245 C2246 1.369 . S
C2245 C2247 1.419 . S
C2245 H2249 0.930 . S
C2246 C2245 1.369 . S
C2246 C2255 1.429 . S
C2247 C2245 1.419 . S
C2247 C2248 1.363 . S
C2247 H2250 0.929 . S
C2248 C2247 1.363 . S
C2248 C2254 1.428 . S
H2249 C2245 0.930 . S
H2250 C2247 0.929 . S
S2251 N2252 1.613 . S
S2251 N2253 1.610 . S
N2252 S2251 1.613 . S
N2252 C2255 1.350 . S
N2253 S2251 1.610 . S
N2253 C2254 1.351 . S
C2254 C2248 1.428 . S
C2254 N2253 1.351 . S
C2254 C2255 1.434 . S
C2255 C2246 1.429 . S
C2255 N2252 1.350 . S
C2255 C2254 1.434 . S
C2256 C2257 1.369 . S
C2256 C2258 1.419 . S
C2256 H2260 0.930 . S
C2257 C2256 1.369 . S
C2257 C2266 1.429 . S
C2258 C2256 1.419 . S
C2258 C2259 1.363 . S
C2258 H2261 0.929 . S
C2259 C2258 1.363 . S
C2259 C2265 1.428 . S
H2260 C2256 0.930 . S
H2261 C2258 0.929 . S
S2262 N2263 1.613 . S
S2262 N2264 1.610 . S
N2263 S2262 1.613 . S
N2263 C2266 1.350 . S
N2264 S2262 1.610 . S
N2264 C2265 1.351 . S
C2265 C2259 1.428 . S
C2265 N2264 1.351 . S
C2265 C2266 1.434 . S
C2266 C2257 1.429 . S
C2266 N2263 1.350 . S
C2266 C2265 1.434 . S
C2267 C2268 1.369 . S
C2267 C2269 1.419 . S
C2267 H2271 0.930 . S
C2268 C2267 1.369 . S
C2268 C2277 1.429 . S
C2269 C2267 1.419 . S
C2269 C2270 1.363 . S
C2269 H2272 0.929 . S
C2270 C2269 1.363 . S
C2270 C2276 1.428 . S
H2271 C2267 0.930 . S
H2272 C2269 0.929 . S
S2273 N2274 1.613 . S
S2273 N2275 1.610 . S
N2274 S2273 1.613 . S
N2274 C2277 1.350 . S
N2275 S2273 1.610 . S
N2275 C2276 1.351 . S
C2276 C2270 1.428 . S
C2276 N2275 1.351 . S
C2276 C2277 1.434 . S
C2277 C2268 1.429 . S
C2277 N2274 1.350 . S
C2277 C2276 1.434 . S
C2278 C2279 1.369 . S
C2278 C2280 1.419 . S
C2278 H2282 0.930 . S
C2279 C2278 1.369 . S
C2279 C2288 1.429 . S
C2280 C2278 1.419 . S
C2280 C2281 1.363 . S
C2280 H2283 0.929 . S
C2281 C2280 1.363 . S
C2281 C2287 1.428 . S
H2282 C2278 0.930 . S
H2283 C2280 0.929 . S
S2284 N2285 1.613 . S
S2284 N2286 1.610 . S
N2285 S2284 1.613 . S
N2285 C2288 1.350 . S
N2286 S2284 1.610 . S
N2286 C2287 1.351 . S
C2287 C2281 1.428 . S
C2287 N2286 1.351 . S
C2287 C2288 1.434 . S
C2288 C2279 1.429 . S
C2288 N2285 1.350 . S
C2288 C2287 1.434 . S
C2289 C2290 1.369 . S
C2289 C2291 1.419 . S
C2289 H2293 0.930 . S
C2290 C2289 1.369 . S
C2290 C2299 1.429 . S
C2291 C2289 1.419 . S
C2291 C2292 1.363 . S
C2291 H2294 0.929 . S
C2292 C2291 1.363 . S
C2292 C2298 1.428 . S
H2293 C2289 0.930 . S
H2294 C2291 0.929 . S
S2295 N2296 1.613 . S
S2295 N2297 1.610 . S
N2296 S2295 1.613 . S
N2296 C2299 1.350 . S
N2297 S2295 1.610 . S
N2297 C2298 1.351 . S
C2298 C2292 1.428 . S
C2298 N2297 1.351 . S
C2298 C2299 1.434 . S
C2299 C2290 1.429 . S
C2299 N2296 1.350 . S
C2299 C2298 1.434 . S
C2300 C2301 1.369 . S
C2300 C2302 1.419 . S
C2300 H2304 0.930 . S
C2301 C2300 1.369 . S
C2301 C2310 1.429 . S
C2302 C2300 1.419 . S
C2302 C2303 1.363 . S
C2302 H2305 0.929 . S
C2303 C2302 1.363 . S
C2303 C2309 1.428 . S
H2304 C2300 0.930 . S
H2305 C2302 0.929 . S
S2306 N2307 1.613 . S
S2306 N2308 1.610 . S
N2307 S2306 1.613 . S
N2307 C2310 1.350 . S
N2308 S2306 1.610 . S
N2308 C2309 1.351 . S
C2309 C2303 1.428 . S
C2309 N2308 1.351 . S
C2309 C2310 1.434 . S
C2310 C2301 1.429 . S
C2310 N2307 1.350 . S
C2310 C2309 1.434 . S
C2311 C2312 1.369 . S
C2311 C2313 1.419 . S
C2311 H2315 0.930 . S
C2312 C2311 1.369 . S
C2312 C2321 1.429 . S
C2313 C2311 1.419 . S
C2313 C2314 1.363 . S
C2313 H2316 0.929 . S
C2314 C2313 1.363 . S
C2314 C2320 1.428 . S
H2315 C2311 0.930 . S
H2316 C2313 0.929 . S
S2317 N2318 1.613 . S
S2317 N2319 1.610 . S
N2318 S2317 1.613 . S
N2318 C2321 1.350 . S
N2319 S2317 1.610 . S
N2319 C2320 1.351 . S
C2320 C2314 1.428 . S
C2320 N2319 1.351 . S
C2320 C2321 1.434 . S
C2321 C2312 1.429 . S
C2321 N2318 1.350 . S
C2321 C2320 1.434 . S
C2322 C2323 1.369 . S
C2322 C2324 1.419 . S
C2322 H2326 0.930 . S
C2323 C2322 1.369 . S
C2323 C2332 1.429 . S
C2324 C2322 1.419 . S
C2324 C2325 1.363 . S
C2324 H2327 0.929 . S
C2325 C2324 1.363 . S
C2325 C2331 1.428 . S
H2326 C2322 0.930 . S
H2327 C2324 0.929 . S
S2328 N2329 1.613 . S
S2328 N2330 1.610 . S
N2329 S2328 1.613 . S
N2329 C2332 1.350 . S
N2330 S2328 1.610 . S
N2330 C2331 1.351 . S
C2331 C2325 1.428 . S
C2331 N2330 1.351 . S
C2331 C2332 1.434 . S
C2332 C2323 1.429 . S
C2332 N2329 1.350 . S
C2332 C2331 1.434 . S
C2333 C2334 1.369 . S
C2333 C2335 1.419 . S
C2333 H2337 0.930 . S
C2334 C2333 1.369 . S
C2334 C2343 1.429 . S
C2335 C2333 1.419 . S
C2335 C2336 1.363 . S
C2335 H2338 0.929 . S
C2336 C2335 1.363 . S
C2336 C2342 1.428 . S
H2337 C2333 0.930 . S
H2338 C2335 0.929 . S
S2339 N2340 1.613 . S
S2339 N2341 1.610 . S
N2340 S2339 1.613 . S
N2340 C2343 1.350 . S
N2341 S2339 1.610 . S
N2341 C2342 1.351 . S
C2342 C2336 1.428 . S
C2342 N2341 1.351 . S
C2342 C2343 1.434 . S
C2343 C2334 1.429 . S
C2343 N2340 1.350 . S
C2343 C2342 1.434 . S
C2344 C2345 1.369 . S
C2344 C2346 1.419 . S
C2344 H2348 0.930 . S
C2345 C2344 1.369 . S
C2345 C2354 1.429 . S
C2346 C2344 1.419 . S
C2346 C2347 1.363 . S
C2346 H2349 0.929 . S
C2347 C2346 1.363 . S
C2347 C2353 1.428 . S
H2348 C2344 0.930 . S
H2349 C2346 0.929 . S
S2350 N2351 1.613 . S
S2350 N2352 1.610 . S
N2351 S2350 1.613 . S
N2351 C2354 1.350 . S
N2352 S2350 1.610 . S
N2352 C2353 1.351 . S
C2353 C2347 1.428 . S
C2353 N2352 1.351 . S
C2353 C2354 1.434 . S
C2354 C2345 1.429 . S
C2354 N2351 1.350 . S
C2354 C2353 1.434 . S
C2355 C2356 1.369 . S
C2355 C2357 1.419 . S
C2355 H2359 0.930 . S
C2356 C2355 1.369 . S
C2356 C2365 1.429 . S
C2357 C2355 1.419 . S
C2357 C2358 1.363 . S
C2357 H2360 0.929 . S
C2358 C2357 1.363 . S
C2358 C2364 1.428 . S
H2359 C2355 0.930 . S
H2360 C2357 0.929 . S
S2361 N2362 1.613 . S
S2361 N2363 1.610 . S
N2362 S2361 1.613 . S
N2362 C2365 1.350 . S
N2363 S2361 1.610 . S
N2363 C2364 1.351 . S
C2364 C2358 1.428 . S
C2364 N2363 1.351 . S
C2364 C2365 1.434 . S
C2365 C2356 1.429 . S
C2365 N2362 1.350 . S
C2365 C2364 1.434 . S
C2366 C2367 1.369 . S
C2366 C2368 1.419 . S
C2366 H2370 0.930 . S
C2367 C2366 1.369 . S
C2367 C2376 1.429 . S
C2368 C2366 1.419 . S
C2368 C2369 1.363 . S
C2368 H2371 0.929 . S
C2369 C2368 1.363 . S
C2369 C2375 1.428 . S
H2370 C2366 0.930 . S
H2371 C2368 0.929 . S
S2372 N2373 1.613 . S
S2372 N2374 1.610 . S
N2373 S2372 1.613 . S
N2373 C2376 1.350 . S
N2374 S2372 1.610 . S
N2374 C2375 1.351 . S
C2375 C2369 1.428 . S
C2375 N2374 1.351 . S
C2375 C2376 1.434 . S
C2376 C2367 1.429 . S
C2376 N2373 1.350 . S
C2376 C2375 1.434 . S
C2377 C2378 1.369 . S
C2377 C2379 1.419 . S
C2377 H2381 0.930 . S
C2378 C2377 1.369 . S
C2378 C2387 1.429 . S
C2379 C2377 1.419 . S
C2379 C2380 1.363 . S
C2379 H2382 0.929 . S
C2380 C2379 1.363 . S
C2380 C2386 1.428 . S
H2381 C2377 0.930 . S
H2382 C2379 0.929 . S
S2383 N2384 1.613 . S
S2383 N2385 1.610 . S
N2384 S2383 1.613 . S
N2384 C2387 1.350 . S
N2385 S2383 1.610 . S
N2385 C2386 1.351 . S
C2386 C2380 1.428 . S
C2386 N2385 1.351 . S
C2386 C2387 1.434 . S
C2387 C2378 1.429 . S
C2387 N2384 1.350 . S
C2387 C2386 1.434 . S
C2388 C2389 1.369 . S
C2388 C2390 1.419 . S
C2388 H2392 0.930 . S
C2389 C2388 1.369 . S
C2389 C2398 1.429 . S
C2390 C2388 1.419 . S
C2390 C2391 1.363 . S
C2390 H2393 0.929 . S
C2391 C2390 1.363 . S
C2391 C2397 1.428 . S
H2392 C2388 0.930 . S
H2393 C2390 0.929 . S
S2394 N2395 1.613 . S
S2394 N2396 1.610 . S
N2395 S2394 1.613 . S
N2395 C2398 1.350 . S
N2396 S2394 1.610 . S
N2396 C2397 1.351 . S
C2397 C2391 1.428 . S
C2397 N2396 1.351 . S
C2397 C2398 1.434 . S
C2398 C2389 1.429 . S
C2398 N2395 1.350 . S
C2398 C2397 1.434 . S
C2399 C2400 1.369 . S
C2399 C2401 1.419 . S
C2399 H2403 0.930 . S
C2400 C2399 1.369 . S
C2400 C2409 1.429 . S
C2401 C2399 1.419 . S
C2401 C2402 1.363 . S
C2401 H2404 0.929 . S
C2402 C2401 1.363 . S
C2402 C2408 1.428 . S
H2403 C2399 0.930 . S
H2404 C2401 0.929 . S
S2405 N2406 1.613 . S
S2405 N2407 1.610 . S
N2406 S2405 1.613 . S
N2406 C2409 1.350 . S
N2407 S2405 1.610 . S
N2407 C2408 1.351 . S
C2408 C2402 1.428 . S
C2408 N2407 1.351 . S
C2408 C2409 1.434 . S
C2409 C2400 1.429 . S
C2409 N2406 1.350 . S
C2409 C2408 1.434 . S
C2410 C2411 1.369 . S
C2410 C2412 1.419 . S
C2410 H2414 0.930 . S
C2411 C2410 1.369 . S
C2411 C2420 1.429 . S
C2412 C2410 1.419 . S
C2412 C2413 1.363 . S
C2412 H2415 0.929 . S
C2413 C2412 1.363 . S
C2413 C2419 1.428 . S
H2414 C2410 0.930 . S
H2415 C2412 0.929 . S
S2416 N2417 1.613 . S
S2416 N2418 1.610 . S
N2417 S2416 1.613 . S
N2417 C2420 1.350 . S
N2418 S2416 1.610 . S
N2418 C2419 1.351 . S
C2419 C2413 1.428 . S
C2419 N2418 1.351 . S
C2419 C2420 1.434 . S
C2420 C2411 1.429 . S
C2420 N2417 1.350 . S
C2420 C2419 1.434 . S
C2421 C2422 1.369 . S
C2421 C2423 1.419 . S
C2421 H2425 0.930 . S
C2422 C2421 1.369 . S
C2422 C2431 1.429 . S
C2423 C2421 1.419 . S
C2423 C2424 1.363 . S
C2423 H2426 0.929 . S
C2424 C2423 1.363 . S
C2424 C2430 1.428 . S
H2425 C2421 0.930 . S
H2426 C2423 0.929 . S
S2427 N2428 1.613 . S
S2427 N2429 1.610 . S
N2428 S2427 1.613 . S
N2428 C2431 1.350 . S
N2429 S2427 1.610 . S
N2429 C2430 1.351 . S
C2430 C2424 1.428 . S
C2430 N2429 1.351 . S
C2430 C2431 1.434 . S
C2431 C2422 1.429 . S
C2431 N2428 1.350 . S
C2431 C2430 1.434 . S
C2432 C2433 1.369 . S
C2432 C2434 1.419 . S
C2432 H2436 0.930 . S
C2433 C2432 1.369 . S
C2433 C2442 1.429 . S
C2434 C2432 1.419 . S
C2434 C2435 1.363 . S
C2434 H2437 0.929 . S
C2435 C2434 1.363 . S
C2435 C2441 1.428 . S
H2436 C2432 0.930 . S
H2437 C2434 0.929 . S
S2438 N2439 1.613 . S
S2438 N2440 1.610 . S
N2439 S2438 1.613 . S
N2439 C2442 1.350 . S
N2440 S2438 1.610 . S
N2440 C2441 1.351 . S
C2441 C2435 1.428 . S
C2441 N2440 1.351 . S
C2441 C2442 1.434 . S
C2442 C2433 1.429 . S
C2442 N2439 1.350 . S
C2442 C2441 1.434 . S
C2443 C2444 1.369 . S
C2443 C2445 1.419 . S
C2443 H2447 0.930 . S
C2444 C2443 1.369 . S
C2444 C2453 1.429 . S
C2445 C2443 1.419 . S
C2445 C2446 1.363 . S
C2445 H2448 0.929 . S
C2446 C2445 1.363 . S
C2446 C2452 1.428 . S
H2447 C2443 0.930 . S
H2448 C2445 0.929 . S
S2449 N2450 1.613 . S
S2449 N2451 1.610 . S
N2450 S2449 1.613 . S
N2450 C2453 1.350 . S
N2451 S2449 1.610 . S
N2451 C2452 1.351 . S
C2452 C2446 1.428 . S
C2452 N2451 1.351 . S
C2452 C2453 1.434 . S
C2453 C2444 1.429 . S
C2453 N2450 1.350 . S
C2453 C2452 1.434 . S
C2454 C2455 1.369 . S
C2454 C2456 1.419 . S
C2454 H2458 0.930 . S
C2455 C2454 1.369 . S
C2455 C2464 1.429 . S
C2456 C2454 1.419 . S
C2456 C2457 1.363 . S
C2456 H2459 0.929 . S
C2457 C2456 1.363 . S
C2457 C2463 1.428 . S
H2458 C2454 0.930 . S
H2459 C2456 0.929 . S
S2460 N2461 1.613 . S
S2460 N2462 1.610 . S
N2461 S2460 1.613 . S
N2461 C2464 1.350 . S
N2462 S2460 1.610 . S
N2462 C2463 1.351 . S
C2463 C2457 1.428 . S
C2463 N2462 1.351 . S
C2463 C2464 1.434 . S
C2464 C2455 1.429 . S
C2464 N2461 1.350 . S
C2464 C2463 1.434 . S
C2465 C2466 1.369 . S
C2465 C2467 1.419 . S
C2465 H2469 0.930 . S
C2466 C2465 1.369 . S
C2466 C2475 1.429 . S
C2467 C2465 1.419 . S
C2467 C2468 1.363 . S
C2467 H2470 0.929 . S
C2468 C2467 1.363 . S
C2468 C2474 1.428 . S
H2469 C2465 0.930 . S
H2470 C2467 0.929 . S
S2471 N2472 1.613 . S
S2471 N2473 1.610 . S
N2472 S2471 1.613 . S
N2472 C2475 1.350 . S
N2473 S2471 1.610 . S
N2473 C2474 1.351 . S
C2474 C2468 1.428 . S
C2474 N2473 1.351 . S
C2474 C2475 1.434 . S
C2475 C2466 1.429 . S
C2475 N2472 1.350 . S
C2475 C2474 1.434 . S
C2476 C2477 1.369 . S
C2476 C2478 1.419 . S
C2476 H2480 0.930 . S
C2477 C2476 1.369 . S
C2477 C2486 1.429 . S
C2478 C2476 1.419 . S
C2478 C2479 1.363 . S
C2478 H2481 0.929 . S
C2479 C2478 1.363 . S
C2479 C2485 1.428 . S
H2480 C2476 0.930 . S
H2481 C2478 0.929 . S
S2482 N2483 1.613 . S
S2482 N2484 1.610 . S
N2483 S2482 1.613 . S
N2483 C2486 1.350 . S
N2484 S2482 1.610 . S
N2484 C2485 1.351 . S
C2485 C2479 1.428 . S
C2485 N2484 1.351 . S
C2485 C2486 1.434 . S
C2486 C2477 1.429 . S
C2486 N2483 1.350 . S
C2486 C2485 1.434 . S
C2487 C2488 1.369 . S
C2487 C2489 1.419 . S
C2487 H2491 0.930 . S
C2488 C2487 1.369 . S
C2488 C2497 1.429 . S
C2489 C2487 1.419 . S
C2489 C2490 1.363 . S
C2489 H2492 0.929 . S
C2490 C2489 1.363 . S
C2490 C2496 1.428 . S
H2491 C2487 0.930 . S
H2492 C2489 0.929 . S
S2493 N2494 1.613 . S
S2493 N2495 1.610 . S
N2494 S2493 1.613 . S
N2494 C2497 1.350 . S
N2495 S2493 1.610 . S
N2495 C2496 1.351 . S
C2496 C2490 1.428 . S
C2496 N2495 1.351 . S
C2496 C2497 1.434 . S
C2497 C2488 1.429 . S
C2497 N2494 1.350 . S
C2497 C2496 1.434 . S
C2498 C2499 1.369 . S
C2498 C2500 1.419 . S
C2498 H2502 0.930 . S
C2499 C2498 1.369 . S
C2499 C2508 1.429 . S
C2500 C2498 1.419 . S
C2500 C2501 1.363 . S
C2500 H2503 0.929 . S
C2501 C2500 1.363 . S
C2501 C2507 1.428 . S
H2502 C2498 0.930 . S
H2503 C2500 0.929 . S
S2504 N2505 1.613 . S
S2504 N2506 1.610 . S
N2505 S2504 1.613 . S
N2505 C2508 1.350 . S
N2506 S2504 1.610 . S
N2506 C2507 1.351 . S
C2507 C2501 1.428 . S
C2507 N2506 1.351 . S
C2507 C2508 1.434 . S
C2508 C2499 1.429 . S
C2508 N2505 1.350 . S
C2508 C2507 1.434 . S
C2509 C2510 1.369 . S
C2509 C2511 1.419 . S
C2509 H2513 0.930 . S
C2510 C2509 1.369 . S
C2510 C2519 1.429 . S
C2511 C2509 1.419 . S
C2511 C2512 1.363 . S
C2511 H2514 0.929 . S
C2512 C2511 1.363 . S
C2512 C2518 1.428 . S
H2513 C2509 0.930 . S
H2514 C2511 0.929 . S
S2515 N2516 1.613 . S
S2515 N2517 1.610 . S
N2516 S2515 1.613 . S
N2516 C2519 1.350 . S
N2517 S2515 1.610 . S
N2517 C2518 1.351 . S
C2518 C2512 1.428 . S
C2518 N2517 1.351 . S
C2518 C2519 1.434 . S
C2519 C2510 1.429 . S
C2519 N2516 1.350 . S
C2519 C2518 1.434 . S
C2520 C2521 1.369 . S
C2520 C2522 1.419 . S
C2520 H2524 0.930 . S
C2521 C2520 1.369 . S
C2521 C2530 1.429 . S
C2522 C2520 1.419 . S
C2522 C2523 1.363 . S
C2522 H2525 0.929 . S
C2523 C2522 1.363 . S
C2523 C2529 1.428 . S
H2524 C2520 0.930 . S
H2525 C2522 0.929 . S
S2526 N2527 1.613 . S
S2526 N2528 1.610 . S
N2527 S2526 1.613 . S
N2527 C2530 1.350 . S
N2528 S2526 1.610 . S
N2528 C2529 1.351 . S
C2529 C2523 1.428 . S
C2529 N2528 1.351 . S
C2529 C2530 1.434 . S
C2530 C2521 1.429 . S
C2530 N2527 1.350 . S
C2530 C2529 1.434 . S
C2531 C2532 1.369 . S
C2531 C2533 1.419 1_565 S
C2531 H2535 0.930 . S
C2532 C2531 1.369 . S
C2532 C2541 1.429 . S
C2533 C2531 1.419 1_545 S
C2533 C2534 1.363 . S
C2533 H2536 0.929 . S
C2534 C2533 1.363 . S
C2534 C2540 1.428 . S
H2535 C2531 0.930 . S
H2536 C2533 0.929 . S
S2537 N2538 1.613 1_545 S
S2537 N2539 1.610 . S
N2538 S2537 1.613 1_565 S
N2538 C2541 1.350 . S
N2539 S2537 1.610 . S
N2539 C2540 1.351 . S
C2540 C2534 1.428 . S
C2540 N2539 1.351 . S
C2540 C2541 1.434 1_545 S
C2541 C2532 1.429 . S
C2541 N2538 1.350 . S
C2541 C2540 1.434 1_565 S
C2542 C2543 1.369 . S
C2542 C2544 1.419 1_655 S
C2542 H2546 0.930 . S
C2543 C2542 1.369 . S
C2543 C2552 1.429 . S
C2544 C2542 1.419 1_455 S
C2544 C2545 1.363 . S
C2544 H2547 0.929 . S
C2545 C2544 1.363 . S
C2545 C2551 1.428 . S
H2546 C2542 0.930 . S
H2547 C2544 0.929 . S
S2548 N2549 1.613 1_455 S
S2548 N2550 1.610 . S
N2549 S2548 1.613 1_655 S
N2549 C2552 1.350 . S
N2550 S2548 1.610 . S
N2550 C2551 1.351 . S
C2551 C2545 1.428 . S
C2551 N2550 1.351 . S
C2551 C2552 1.434 1_455 S
C2552 C2543 1.429 . S
C2552 N2549 1.350 . S
C2552 C2551 1.434 1_655 S
C2553 C2554 1.369 . S
C2553 C2555 1.419 . S
C2553 H2557 0.930 . S
C2554 C2553 1.369 . S
C2554 C2563 1.429 . S
C2555 C2553 1.419 . S
C2555 C2556 1.363 . S
C2555 H2558 0.929 . S
C2556 C2555 1.363 . S
C2556 C2562 1.428 . S
H2557 C2553 0.930 . S
H2558 C2555 0.929 . S
S2559 N2560 1.613 . S
S2559 N2561 1.610 . S
N2560 S2559 1.613 . S
N2560 C2563 1.350 . S
N2561 S2559 1.610 . S
N2561 C2562 1.351 . S
C2562 C2556 1.428 . S
C2562 N2561 1.351 . S
C2562 C2563 1.434 . S
C2563 C2554 1.429 . S
C2563 N2560 1.350 . S
C2563 C2562 1.434 . S
C2564 C2565 1.369 . S
C2564 C2566 1.419 1_545 S
C2564 H2568 0.930 . S
C2565 C2564 1.369 . S
C2565 C2574 1.429 . S
C2566 C2564 1.419 1_565 S
C2566 C2567 1.363 . S
C2566 H2569 0.929 . S
C2567 C2566 1.363 . S
C2567 C2573 1.428 . S
H2568 C2564 0.930 . S
H2569 C2566 0.929 . S
S2570 N2571 1.613 1_565 S
S2570 N2572 1.610 . S
N2571 S2570 1.613 1_545 S
N2571 C2574 1.350 . S
N2572 S2570 1.610 . S
N2572 C2573 1.351 . S
C2573 C2567 1.428 . S
C2573 N2572 1.351 . S
C2573 C2574 1.434 1_565 S
C2574 C2565 1.429 . S
C2574 N2571 1.350 . S
C2574 C2573 1.434 1_545 S
C2575 C2576 1.369 . S
C2575 C2577 1.419 1_655 S
C2575 H2579 0.930 . S
C2576 C2575 1.369 . S
C2576 C2585 1.429 . S
C2577 C2575 1.419 1_455 S
C2577 C2578 1.363 . S
C2577 H2580 0.929 . S
C2578 C2577 1.363 . S
C2578 C2584 1.428 . S
H2579 C2575 0.930 . S
H2580 C2577 0.929 . S
S2581 N2582 1.632 . S
S2581 N2583 1.557 1_655 S
N2582 S2581 1.632 . S
N2582 C2585 1.350 . S
N2583 S2581 1.557 1_455 S
N2583 C2584 1.351 . S
C2584 C2578 1.428 . S
C2584 N2583 1.351 . S
C2584 C2585 1.434 1_455 S
C2585 C2576 1.429 . S
C2585 N2582 1.350 . S
C2585 C2584 1.434 1_655 S
C2586 C2587 1.369 . S
C2586 C2588 1.419 . S
C2586 H2590 0.930 . S
C2587 C2586 1.369 . S
C2587 C2596 1.429 . S
C2588 C2586 1.419 . S
C2588 C2589 1.363 . S
C2588 H2591 0.929 . S
C2589 C2588 1.363 . S
C2589 C2595 1.428 . S
H2590 C2586 0.930 . S
H2591 C2588 0.929 . S
S2592 N2593 1.613 . S
S2592 N2594 1.610 . S
N2593 S2592 1.613 . S
N2593 C2596 1.350 . S
N2594 S2592 1.610 . S
N2594 C2595 1.351 . S
C2595 C2589 1.428 . S
C2595 N2594 1.351 . S
C2595 C2596 1.434 . S
C2596 C2587 1.429 . S
C2596 N2593 1.350 . S
C2596 C2595 1.434 . S
C2597 C2598 1.369 . S
C2597 C2599 1.419 . S
C2597 H2601 0.930 . S
C2598 C2597 1.369 . S
C2598 C2607 1.429 . S
C2599 C2597 1.419 . S
C2599 C2600 1.363 . S
C2599 H2602 0.929 . S
C2600 C2599 1.363 . S
C2600 C2606 1.428 . S
H2601 C2597 0.930 . S
H2602 C2599 0.929 . S
S2603 N2604 1.613 . S
S2603 N2605 1.610 . S
N2604 S2603 1.613 . S
N2604 C2607 1.350 . S
N2605 S2603 1.610 . S
N2605 C2606 1.351 . S
C2606 C2600 1.428 . S
C2606 N2605 1.351 . S
C2606 C2607 1.434 . S
C2607 C2598 1.429 . S
C2607 N2604 1.350 . S
C2607 C2606 1.434 . S
C2608 C2609 1.369 . S
C2608 C2610 1.419 . S
C2608 H2612 0.930 . S
C2609 C2608 1.369 . S
C2609 C2618 1.429 . S
C2610 C2608 1.419 . S
C2610 C2611 1.363 . S
C2610 H2613 0.929 . S
C2611 C2610 1.363 . S
C2611 C2617 1.428 . S
H2612 C2608 0.930 . S
H2613 C2610 0.929 . S
S2614 N2615 1.613 . S
S2614 N2616 1.610 . S
N2615 S2614 1.613 . S
N2615 C2618 1.350 . S
N2616 S2614 1.610 . S
N2616 C2617 1.351 . S
C2617 C2611 1.428 . S
C2617 N2616 1.351 . S
C2617 C2618 1.434 . S
C2618 C2609 1.429 . S
C2618 N2615 1.350 . S
C2618 C2617 1.434 . S
C2619 C2620 1.369 . S
C2619 C2621 1.419 . S
C2619 H2623 0.930 . S
C2620 C2619 1.369 . S
C2620 C2629 1.429 . S
C2621 C2619 1.419 . S
C2621 C2622 1.363 . S
C2621 H2624 0.929 . S
C2622 C2621 1.363 . S
C2622 C2628 1.428 . S
H2623 C2619 0.930 . S
H2624 C2621 0.929 . S
S2625 N2626 1.613 . S
S2625 N2627 1.610 . S
N2626 S2625 1.613 . S
N2626 C2629 1.350 . S
N2627 S2625 1.610 . S
N2627 C2628 1.351 . S
C2628 C2622 1.428 . S
C2628 N2627 1.351 . S
C2628 C2629 1.434 . S
C2629 C2620 1.429 . S
C2629 N2626 1.350 . S
C2629 C2628 1.434 . S
C2630 C2631 1.369 . S
C2630 C2632 1.419 . S
C2630 H2634 0.930 . S
C2631 C2630 1.369 . S
C2631 C2640 1.429 . S
C2632 C2630 1.419 . S
C2632 C2633 1.363 . S
C2632 H2635 0.929 . S
C2633 C2632 1.363 . S
C2633 C2639 1.428 . S
H2634 C2630 0.930 . S
H2635 C2632 0.929 . S
S2636 N2637 1.613 . S
S2636 N2638 1.610 . S
N2637 S2636 1.613 . S
N2637 C2640 1.350 . S
N2638 S2636 1.610 . S
N2638 C2639 1.351 . S
C2639 C2633 1.428 . S
C2639 N2638 1.351 . S
C2639 C2640 1.434 . S
C2640 C2631 1.429 . S
C2640 N2637 1.350 . S
C2640 C2639 1.434 . S
C2641 C2642 1.369 . S
C2641 C2643 1.419 . S
C2641 H2645 0.930 . S
C2642 C2641 1.369 . S
C2642 C2651 1.429 . S
C2643 C2641 1.419 . S
C2643 C2644 1.363 . S
C2643 H2646 0.929 . S
C2644 C2643 1.363 . S
C2644 C2650 1.428 . S
H2645 C2641 0.930 . S
H2646 C2643 0.929 . S
S2647 N2648 1.613 . S
S2647 N2649 1.610 . S
N2648 S2647 1.613 . S
N2648 C2651 1.350 . S
N2649 S2647 1.610 . S
N2649 C2650 1.351 . S
C2650 C2644 1.428 . S
C2650 N2649 1.351 . S
C2650 C2651 1.434 . S
C2651 C2642 1.429 . S
C2651 N2648 1.350 . S
C2651 C2650 1.434 . S
C2652 C2653 1.369 . S
C2652 C2654 1.419 . S
C2652 H2656 0.930 . S
C2653 C2652 1.369 . S
C2653 C2662 1.429 . S
C2654 C2652 1.419 . S
C2654 C2655 1.363 . S
C2654 H2657 0.929 . S
C2655 C2654 1.363 . S
C2655 C2661 1.428 . S
H2656 C2652 0.930 . S
H2657 C2654 0.929 . S
S2658 N2659 1.613 . S
S2658 N2660 1.610 . S
N2659 S2658 1.613 . S
N2659 C2662 1.350 . S
N2660 S2658 1.610 . S
N2660 C2661 1.351 . S
C2661 C2655 1.428 . S
C2661 N2660 1.351 . S
C2661 C2662 1.434 . S
C2662 C2653 1.429 . S
C2662 N2659 1.350 . S
C2662 C2661 1.434 . S
C2663 C2664 1.369 . S
C2663 C2665 1.419 . S
C2663 H2667 0.930 . S
C2664 C2663 1.369 . S
C2664 C2673 1.429 . S
C2665 C2663 1.419 . S
C2665 C2666 1.363 . S
C2665 H2668 0.929 . S
C2666 C2665 1.363 . S
C2666 C2672 1.428 . S
H2667 C2663 0.930 . S
H2668 C2665 0.929 . S
S2669 N2670 1.613 . S
S2669 N2671 1.610 . S
N2670 S2669 1.613 . S
N2670 C2673 1.350 . S
N2671 S2669 1.610 . S
N2671 C2672 1.351 . S
C2672 C2666 1.428 . S
C2672 N2671 1.351 . S
C2672 C2673 1.434 . S
C2673 C2664 1.429 . S
C2673 N2670 1.350 . S
C2673 C2672 1.434 . S
C2674 C2675 1.369 . S
C2674 C2676 1.419 . S
C2674 H2678 0.930 . S
C2675 C2674 1.369 . S
C2675 C2684 1.429 . S
C2676 C2674 1.419 . S
C2676 C2677 1.363 . S
C2676 H2679 0.929 1_556 S
C2677 C2676 1.363 . S
C2677 C2683 1.428 . S
H2678 C2674 0.930 . S
H2679 C2676 0.929 1_554 S
S2680 N2681 1.613 . S
S2680 N2682 1.610 . S
N2681 S2680 1.613 . S
N2681 C2684 1.350 . S
N2682 S2680 1.610 . S
N2682 C2683 1.351 . S
C2683 C2677 1.428 . S
C2683 N2682 1.351 . S
C2683 C2684 1.434 . S
C2684 C2675 1.429 . S
C2684 N2681 1.350 . S
C2684 C2683 1.434 . S
C2685 C2686 1.369 . S
C2685 C2687 1.419 . S
C2685 H2689 0.930 . S
C2686 C2685 1.369 . S
C2686 C2695 1.429 . S
C2687 C2685 1.419 . S
C2687 C2688 1.363 . S
C2687 H2690 0.929 . S
C2688 C2687 1.363 . S
C2688 C2694 1.428 . S
H2689 C2685 0.930 . S
H2690 C2687 0.929 . S
S2691 N2692 1.613 . S
S2691 N2693 1.610 . S
N2692 S2691 1.613 . S
N2692 C2695 1.350 . S
N2693 S2691 1.610 . S
N2693 C2694 1.351 . S
C2694 C2688 1.428 . S
C2694 N2693 1.351 . S
C2694 C2695 1.434 . S
C2695 C2686 1.429 . S
C2695 N2692 1.350 . S
C2695 C2694 1.434 . S
C2696 C2697 1.369 . S
C2696 C2698 1.419 . S
C2696 H2700 0.930 . S
C2697 C2696 1.369 . S
C2697 C2706 1.429 . S
C2698 C2696 1.419 . S
C2698 C2699 1.363 . S
C2698 H2701 0.929 . S
C2699 C2698 1.363 . S
C2699 C2705 1.428 . S
H2700 C2696 0.930 . S
H2701 C2698 0.929 . S
S2702 N2703 1.613 . S
S2702 N2704 1.610 . S
N2703 S2702 1.613 . S
N2703 C2706 1.350 . S
N2704 S2702 1.610 . S
N2704 C2705 1.351 . S
C2705 C2699 1.428 . S
C2705 N2704 1.351 . S
C2705 C2706 1.434 . S
C2706 C2697 1.429 . S
C2706 N2703 1.350 . S
C2706 C2705 1.434 . S
C2707 C2708 1.369 . S
C2707 C2709 1.419 . S
C2707 H2711 0.930 . S
C2708 C2707 1.369 . S
C2708 C2717 1.429 . S
C2709 C2707 1.419 . S
C2709 C2710 1.363 . S
C2709 H2712 0.929 . S
C2710 C2709 1.363 . S
C2710 C2716 1.428 . S
H2711 C2707 0.930 . S
H2712 C2709 0.929 . S
S2713 N2714 1.613 . S
S2713 N2715 1.610 . S
N2714 S2713 1.613 . S
N2714 C2717 1.350 . S
N2715 S2713 1.610 . S
N2715 C2716 1.351 . S
C2716 C2710 1.428 . S
C2716 N2715 1.351 . S
C2716 C2717 1.434 . S
C2717 C2708 1.429 . S
C2717 N2714 1.350 . S
C2717 C2716 1.434 . S
C2718 C2719 1.369 . S
C2718 C2720 1.419 . S
C2718 H2722 0.930 . S
C2719 C2718 1.369 . S
C2719 C2728 1.429 . S
C2720 C2718 1.419 . S
C2720 C2721 1.363 . S
C2720 H2723 0.929 . S
C2721 C2720 1.363 . S
C2721 C2727 1.428 . S
H2722 C2718 0.930 . S
H2723 C2720 0.929 . S
S2724 N2725 1.613 . S
S2724 N2726 1.610 . S
N2725 S2724 1.613 . S
N2725 C2728 1.350 . S
N2726 S2724 1.610 . S
N2726 C2727 1.351 . S
C2727 C2721 1.428 . S
C2727 N2726 1.351 . S
C2727 C2728 1.434 . S
C2728 C2719 1.429 . S
C2728 N2725 1.350 . S
C2728 C2727 1.434 . S
C2729 C2730 1.369 . S
C2729 C2731 1.419 . S
C2729 H2733 0.930 . S
C2730 C2729 1.369 . S
C2730 C2739 1.429 . S
C2731 C2729 1.419 . S
C2731 C2732 1.363 . S
C2731 H2734 0.929 . S
C2732 C2731 1.363 . S
C2732 C2738 1.428 . S
H2733 C2729 0.930 . S
H2734 C2731 0.929 . S
S2735 N2736 1.613 . S
S2735 N2737 1.610 . S
N2736 S2735 1.613 . S
N2736 C2739 1.350 . S
N2737 S2735 1.610 . S
N2737 C2738 1.351 . S
C2738 C2732 1.428 . S
C2738 N2737 1.351 . S
C2738 C2739 1.434 . S
C2739 C2730 1.429 . S
C2739 N2736 1.350 . S
C2739 C2738 1.434 . S
C2740 C2741 1.369 . S
C2740 C2742 1.419 . S
C2740 H2744 0.930 . S
C2741 C2740 1.369 . S
C2741 C2750 1.429 . S
C2742 C2740 1.419 . S
C2742 C2743 1.363 . S
C2742 H2745 0.929 . S
C2743 C2742 1.363 . S
C2743 C2749 1.428 . S
H2744 C2740 0.930 . S
H2745 C2742 0.929 . S
S2746 N2747 1.613 . S
S2746 N2748 1.610 . S
N2747 S2746 1.613 . S
N2747 C2750 1.350 . S
N2748 S2746 1.610 . S
N2748 C2749 1.351 . S
C2749 C2743 1.428 . S
C2749 N2748 1.351 . S
C2749 C2750 1.434 . S
C2750 C2741 1.429 . S
C2750 N2747 1.350 . S
C2750 C2749 1.434 . S
C2751 C2752 1.369 . S
C2751 C2753 1.419 . S
C2751 H2755 0.930 . S
C2752 C2751 1.369 . S
C2752 C2761 1.429 . S
C2753 C2751 1.419 . S
C2753 C2754 1.363 . S
C2753 H2756 0.929 . S
C2754 C2753 1.363 . S
C2754 C2760 1.428 . S
H2755 C2751 0.930 . S
H2756 C2753 0.929 . S
S2757 N2758 1.613 . S
S2757 N2759 1.610 . S
N2758 S2757 1.613 . S
N2758 C2761 1.350 . S
N2759 S2757 1.610 . S
N2759 C2760 1.351 . S
C2760 C2754 1.428 . S
C2760 N2759 1.351 . S
C2760 C2761 1.434 . S
C2761 C2752 1.429 . S
C2761 N2758 1.350 . S
C2761 C2760 1.434 . S
C2762 C2763 1.369 . S
C2762 C2764 1.419 . S
C2762 H2766 0.930 . S
C2763 C2762 1.369 . S
C2763 C2772 1.429 . S
C2764 C2762 1.419 . S
C2764 C2765 1.363 . S
C2764 H2767 0.929 . S
C2765 C2764 1.363 . S
C2765 C2771 1.428 . S
H2766 C2762 0.930 . S
H2767 C2764 0.929 . S
S2768 N2769 1.613 . S
S2768 N2770 1.610 . S
N2769 S2768 1.613 . S
N2769 C2772 1.350 . S
N2770 S2768 1.610 . S
N2770 C2771 1.351 . S
C2771 C2765 1.428 . S
C2771 N2770 1.351 . S
C2771 C2772 1.434 . S
C2772 C2763 1.429 . S
C2772 N2769 1.350 . S
C2772 C2771 1.434 . S
C2773 C2774 1.369 . S
C2773 C2775 1.419 . S
C2773 H2777 0.930 . S
C2774 C2773 1.369 . S
C2774 C2783 1.429 . S
C2775 C2773 1.419 . S
C2775 C2776 1.363 . S
C2775 H2778 0.929 . S
C2776 C2775 1.363 . S
C2776 C2782 1.428 . S
H2777 C2773 0.930 . S
H2778 C2775 0.929 . S
S2779 N2780 1.613 . S
S2779 N2781 1.610 . S
N2780 S2779 1.613 . S
N2780 C2783 1.350 . S
N2781 S2779 1.610 . S
N2781 C2782 1.351 . S
C2782 C2776 1.428 . S
C2782 N2781 1.351 . S
C2782 C2783 1.434 . S
C2783 C2774 1.429 . S
C2783 N2780 1.350 . S
C2783 C2782 1.434 . S
C2784 C2785 1.369 . S
C2784 C2786 1.419 . S
C2784 H2788 0.930 . S
C2785 C2784 1.369 . S
C2785 C2794 1.429 . S
C2786 C2784 1.419 . S
C2786 C2787 1.363 . S
C2786 H2789 0.929 . S
C2787 C2786 1.363 . S
C2787 C2793 1.428 . S
H2788 C2784 0.930 . S
H2789 C2786 0.929 . S
S2790 N2791 1.613 . S
S2790 N2792 1.610 . S
N2791 S2790 1.613 . S
N2791 C2794 1.350 . S
N2792 S2790 1.610 . S
N2792 C2793 1.351 . S
C2793 C2787 1.428 . S
C2793 N2792 1.351 . S
C2793 C2794 1.434 . S
C2794 C2785 1.429 . S
C2794 N2791 1.350 . S
C2794 C2793 1.434 . S
C2795 C2796 1.369 . S
C2795 C2797 1.419 . S
C2795 H2799 0.930 . S
C2796 C2795 1.369 . S
C2796 C2805 1.429 . S
C2797 C2795 1.419 . S
C2797 C2798 1.363 . S
C2797 H2800 0.929 . S
C2798 C2797 1.363 . S
C2798 C2804 1.428 . S
H2799 C2795 0.930 . S
H2800 C2797 0.929 . S
S2801 N2802 1.613 . S
S2801 N2803 1.610 . S
N2802 S2801 1.613 . S
N2802 C2805 1.350 . S
N2803 S2801 1.610 . S
N2803 C2804 1.351 . S
C2804 C2798 1.428 . S
C2804 N2803 1.351 . S
C2804 C2805 1.434 . S
C2805 C2796 1.429 . S
C2805 N2802 1.350 . S
C2805 C2804 1.434 . S
C2806 C2807 1.369 . S
C2806 C2808 1.419 . S
C2806 H2810 0.930 . S
C2807 C2806 1.369 . S
C2807 C2816 1.429 . S
C2808 C2806 1.419 . S
C2808 C2809 1.363 . S
C2808 H2811 0.929 . S
C2809 C2808 1.363 . S
C2809 C2815 1.428 . S
H2810 C2806 0.930 . S
H2811 C2808 0.929 . S
S2812 N2813 1.613 . S
S2812 N2814 1.610 . S
N2813 S2812 1.613 . S
N2813 C2816 1.350 . S
N2814 S2812 1.610 . S
N2814 C2815 1.351 . S
C2815 C2809 1.428 . S
C2815 N2814 1.351 . S
C2815 C2816 1.434 . S
C2816 C2807 1.429 . S
C2816 N2813 1.350 . S
C2816 C2815 1.434 . S
C2817 C2818 1.369 . S
C2817 C2819 1.419 . S
C2817 H2821 0.930 . S
C2818 C2817 1.369 . S
C2818 C2827 1.429 . S
C2819 C2817 1.419 . S
C2819 C2820 1.363 . S
C2819 H2822 0.929 . S
C2820 C2819 1.363 . S
C2820 C2826 1.428 . S
H2821 C2817 0.930 . S
H2822 C2819 0.929 . S
S2823 N2824 1.613 . S
S2823 N2825 1.610 . S
N2824 S2823 1.613 . S
N2824 C2827 1.350 . S
N2825 S2823 1.610 . S
N2825 C2826 1.351 . S
C2826 C2820 1.428 . S
C2826 N2825 1.351 . S
C2826 C2827 1.434 . S
C2827 C2818 1.429 . S
C2827 N2824 1.350 . S
C2827 C2826 1.434 . S
C2828 C2829 1.369 . S
C2828 C2830 1.419 . S
C2828 H2832 0.930 . S
C2829 C2828 1.369 . S
C2829 C2838 1.429 . S
C2830 C2828 1.419 . S
C2830 C2831 1.363 . S
C2830 H2833 0.929 . S
C2831 C2830 1.363 . S
C2831 C2837 1.428 . S
H2832 C2828 0.930 . S
H2833 C2830 0.929 . S
S2834 N2835 1.613 . S
S2834 N2836 1.610 . S
N2835 S2834 1.613 . S
N2835 C2838 1.350 . S
N2836 S2834 1.610 . S
N2836 C2837 1.351 . S
C2837 C2831 1.428 . S
C2837 N2836 1.351 . S
C2837 C2838 1.434 . S
C2838 C2829 1.429 . S
C2838 N2835 1.350 . S
C2838 C2837 1.434 . S
C2839 C2840 1.369 . S
C2839 C2841 1.419 . S
C2839 H2843 0.930 . S
C2840 C2839 1.369 . S
C2840 C2849 1.429 . S
C2841 C2839 1.419 . S
C2841 C2842 1.363 . S
C2841 H2844 0.929 . S
C2842 C2841 1.363 . S
C2842 C2848 1.428 . S
H2843 C2839 0.930 . S
H2844 C2841 0.929 . S
S2845 N2846 1.613 . S
S2845 N2847 1.610 . S
N2846 S2845 1.613 . S
N2846 C2849 1.350 . S
N2847 S2845 1.610 . S
N2847 C2848 1.351 . S
C2848 C2842 1.428 . S
C2848 N2847 1.351 . S
C2848 C2849 1.434 . S
C2849 C2840 1.429 . S
C2849 N2846 1.350 . S
C2849 C2848 1.434 . S
C2850 C2851 1.369 . S
C2850 C2852 1.419 1_455 S
C2850 H2854 0.930 . S
C2851 C2850 1.369 . S
C2851 C2860 1.429 . S
C2852 C2850 1.419 1_655 S
C2852 C2853 1.363 . S
C2852 H2855 0.929 . S
C2853 C2852 1.363 . S
C2853 C2859 1.428 . S
H2854 C2850 0.930 . S
H2855 C2852 0.929 . S
S2856 N2857 1.613 . S
S2856 N2858 1.610 1_455 S
N2857 S2856 1.613 . S
N2857 C2860 1.350 . S
N2858 S2856 1.610 1_655 S
N2858 C2859 1.351 . S
C2859 C2853 1.428 . S
C2859 N2858 1.351 . S
C2859 C2860 1.434 1_655 S
C2860 C2851 1.429 . S
C2860 N2857 1.350 . S
C2860 C2859 1.434 1_455 S
C2861 C2862 1.369 . S
C2861 C2863 1.419 . S
C2861 H2865 0.930 . S
C2862 C2861 1.369 . S
C2862 C2871 1.429 . S
C2863 C2861 1.419 . S
C2863 C2864 1.363 . S
C2863 H2866 0.929 . S
C2864 C2863 1.363 . S
C2864 C2870 1.428 . S
H2865 C2861 0.930 . S
H2866 C2863 0.929 . S
S2867 N2868 1.613 . S
S2867 N2869 1.610 . S
N2868 S2867 1.613 . S
N2868 C2871 1.350 . S
N2869 S2867 1.610 . S
N2869 C2870 1.351 . S
C2870 C2864 1.428 . S
C2870 N2869 1.351 . S
C2870 C2871 1.434 . S
C2871 C2862 1.429 . S
C2871 N2868 1.350 . S
C2871 C2870 1.434 . S
C2872 C2873 1.369 . S
C2872 C2874 1.419 1_545 S
C2872 H2876 0.930 . S
C2873 C2872 1.369 . S
C2873 C2882 1.429 . S
C2874 C2872 1.419 1_565 S
C2874 C2875 1.363 . S
C2874 H2877 0.929 . S
C2875 C2874 1.363 . S
C2875 C2881 1.428 . S
H2876 C2872 0.930 . S
H2877 C2874 0.929 . S
S2878 N2879 1.613 1_565 S
S2878 N2880 1.610 . S
N2879 S2878 1.613 1_545 S
N2879 C2882 1.350 . S
N2880 S2878 1.610 . S
N2880 C2881 1.351 . S
C2881 C2875 1.428 . S
C2881 N2880 1.351 . S
C2881 C2882 1.434 1_565 S
C2882 C2873 1.429 . S
C2882 N2879 1.350 . S
C2882 C2881 1.434 1_545 S
C2883 C2884 1.369 . S
C2883 C2885 1.419 1_545 S
C2883 H2887 0.930 . S
C2884 C2883 1.369 . S
C2884 C2893 1.429 1_554 S
C2885 C2883 1.419 1_565 S
C2885 C2886 1.363 1_554 S
C2885 H2888 0.929 . S
C2886 C2885 1.363 1_556 S
C2886 C2892 1.428 . S
H2887 C2883 0.930 . S
H2888 C2885 0.929 . S
S2889 N2890 1.613 . S
S2889 N2891 1.610 1_545 S
N2890 S2889 1.613 . S
N2890 C2893 1.350 . S
N2891 S2889 1.610 1_565 S
N2891 C2892 1.351 . S
C2892 C2886 1.428 . S
C2892 N2891 1.351 . S
C2892 C2893 1.434 1_565 S
C2893 C2884 1.429 1_556 S
C2893 N2890 1.350 . S
C2893 C2892 1.434 1_545 S
C2894 C2895 1.369 1_556 S
C2894 C2896 1.419 1_655 S
C2894 H2898 0.930 . S
C2895 C2894 1.369 1_554 S
C2895 C2904 1.429 . S
C2896 C2894 1.419 1_455 S
C2896 C2897 1.363 . S
C2896 H2899 0.929 . S
C2897 C2896 1.363 . S
C2897 C2903 1.428 1_556 S
H2898 C2894 0.930 . S
H2899 C2896 0.929 . S
S2900 N2901 1.613 1_455 S
S2900 N2902 1.610 . S
N2901 S2900 1.613 1_655 S
N2901 C2904 1.350 . S
N2902 S2900 1.610 . S
N2902 C2903 1.351 . S
C2903 C2897 1.428 1_554 S
C2903 N2902 1.351 . S
C2903 C2904 1.434 1_455 S
C2904 C2895 1.429 . S
C2904 N2901 1.350 . S
C2904 C2903 1.434 1_655 S
C2905 C2906 1.369 . S
C2905 C2907 1.419 . S
C2905 H2909 0.930 . S
C2906 C2905 1.369 . S
C2906 C2915 1.429 1_554 S
C2907 C2905 1.419 . S
C2907 C2908 1.363 1_554 S
C2907 H2910 0.929 . S
C2908 C2907 1.363 1_556 S
C2908 C2914 1.428 . S
H2909 C2905 0.930 . S
H2910 C2907 0.929 . S
S2911 N2912 1.613 . S
S2911 N2913 1.610 . S
N2912 S2911 1.613 . S
N2912 C2915 1.350 . S
N2913 S2911 1.610 . S
N2913 C2914 1.351 . S
C2914 C2908 1.428 . S
C2914 N2913 1.351 . S
C2914 C2915 1.434 . S
C2915 C2906 1.429 1_556 S
C2915 N2912 1.350 . S
C2915 C2914 1.434 . S
C2125 C593 1.371 . S
C2127 C33 1.353 . S
C2136 C652 1.371 . S
C2138 C92 1.353 . S
C2147 C151 1.356 . S
C2149 C534 1.369 . S
C2158 C210 1.355 . S
C2160 C475 1.371 . S
C2169 C269 1.355 . S
C2171 C357 1.371 . S
C2180 C416 1.370 . S
C2182 C328 1.352 . S
C2191 C239 1.370 . S
C2193 C387 1.352 . S
C2202 C298 1.368 . S
C2204 C446 1.354 . S
C2213 C505 1.356 . S
C2215 C180 1.370 . S
C2224 C121 1.369 . S
C2226 C564 1.355 . S
C2235 C623 1.353 . S
C2237 C3 1.367 . S
C2246 C682 1.351 . S
C2248 C62 1.367 . S
C2257 C1301 1.369 . S
C2259 C741 1.355 . S
C2268 C1360 1.367 . S
C2270 C800 1.353 . S
C2279 C859 1.356 . S
C2281 C1242 1.371 . S
C2290 C918 1.355 . S
C2292 C1183 1.371 . S
C2301 C977 1.354 . S
C2303 C1065 1.368 . S
C2312 C1036 1.356 . S
C2314 C1124 1.369 . S
C2323 C947 1.367 . S
C2325 C1095 1.350 . S
C2334 C1006 1.368 . S
C2336 C1154 1.350 . S
C2345 C888 1.371 . S
C2347 C1213 1.356 . S
C2356 C829 1.367 . S
C2358 C1272 1.351 . S
C2367 C711 1.370 . S
C2369 C1331 1.352 . S
C2378 C770 1.370 . S
C2380 C1390 1.356 . S
C2389 C1449 1.349 . S
C2391 C2009 1.368 . S
C2400 C2068 1.367 . S
C2402 C1508 1.353 . S
C2411 C1950 1.371 . S
C2413 C1567 1.355 . S
C2422 C1626 1.353 . S
C2424 C1891 1.368 . S
C2433 C1685 1.354 . S
C2435 C1773 1.368 . S
C2444 C1744 1.349 . S
C2446 C1832 1.368 . S
C2455 C1655 1.367 . S
C2457 C1803 1.350 . S
C2466 C1714 1.367 . S
C2468 C1862 1.354 . S
C2477 C1596 1.367 . S
C2479 C1921 1.350 . S
C2488 C1980 1.351 . S
C2490 C1537 1.367 . S
C2499 C1419 1.369 . S
C2501 C2039 1.355 . S
C2510 C2098 1.356 . S
C2512 C1478 1.370 . S
C2521 C182 1.564 . S
C2523 C5 1.565 . S
C2532 C241 1.565 . S
C2534 C64 1.565 . S
C2543 C123 1.565 . S
C2545 C300 1.565 . S
C2554 C536 1.565 . S
C2556 C359 1.564 . S
C2565 C595 1.565 . S
C2567 C418 1.564 . S
C2576 C654 1.565 . S
C2578 C477 1.564 . S
C2587 C890 1.565 . S
C2589 C713 1.565 . S
C2598 C949 1.565 . S
C2600 C772 1.565 . S
C2609 C831 1.565 . S
C2611 C1008 1.564 . S
C2620 C1067 1.565 . S
C2622 C1244 1.565 . S
C2631 C1303 1.564 . S
C2633 C1126 1.565 . S
C2642 C1185 1.564 . S
C2644 C1362 1.565 . S
C2653 C1598 1.564 . S
C2655 C1421 1.565 . S
C2664 C1657 1.564 . S
C2666 C1480 1.565 . S
C2675 C1539 1.565 . S
C2677 C1716 1.564 . S
C2686 C1775 1.564 . S
C2688 C1952 1.565 . S
C2697 C1834 1.565 . S
C2699 C2011 1.564 . S
C2708 C1893 1.564 . S
C2710 C2070 1.565 . S
C2719 C52 1.569 . S
C2721 C1114 1.571 . S
C2730 C1173 1.571 . S
C2732 C111 1.570 . S
C2741 C1232 1.569 . S
C2743 C170 1.571 . S
C2752 C1999 1.571 . S
C2754 C229 1.570 . S
C2763 C2058 1.571 . S
C2765 C288 1.570 . S
C2774 C2117 1.571 . S
C2776 C347 1.569 . S
C2785 C406 1.572 . S
C2787 C1468 1.570 . S
C2796 C1527 1.571 . S
C2798 C465 1.569 . S
C2807 C1586 1.570 . S
C2809 C524 1.571 . S
C2818 C583 1.570 . S
C2820 C937 1.570 . S
C2829 C642 1.571 . S
C2831 C996 1.570 . S
C2840 C701 1.571 . S
C2842 C1055 1.569 . S
C2851 C1822 1.569 . S
C2853 C760 1.571 . S
C2862 C1881 1.569 . S
C2864 C819 1.571 . S
C2873 C878 1.571 . S
C2875 C1940 1.570 . S
C2884 C1291 1.569 . S
C2886 C1645 1.571 . S
C2895 C1350 1.571 . S
C2897 C1704 1.570 . S
C2906 C1409 1.570 . S
C2908 C1763 1.571 . S
