# Generated by pormake.
# Topology smc, (6)-cn, num edge types: 1
# Building blocks:
#     Node 0, Type 0, BuildingBlock: KUMBOL_clean_sbu_0, # of connection points: 6
#     Node 1, Type 0, BuildingBlock: KUMBOL_clean_sbu_0, # of connection points: 6
#     Node 2, Type 0, BuildingBlock: KUMBOL_clean_sbu_0, # of connection points: 6
#     Node 3, Type 0, BuildingBlock: KUMBOL_clean_sbu_0, # of connection points: 6
#     Node 4, Type 0, BuildingBlock: KUMBOL_clean_sbu_0, # of connection points: 6
#     Node 5, Type 0, BuildingBlock: KUMBOL_clean_sbu_0, # of connection points: 6
#     Node 6, Type 0, BuildingBlock: KUMBOL_clean_sbu_0, # of connection points: 6
#     Node 7, Type 0, BuildingBlock: KUMBOL_clean_sbu_0, # of connection points: 6
#     Node 8, Type 0, BuildingBlock: KUMBOL_clean_sbu_0, # of connection points: 6
#     Edge 9, Type (0, 0), BuildingBlock: XUDNAN_clean_linker_2, # of connection points: 2
#     Edge 10, Type (0, 0), BuildingBlock: XUDNAN_clean_linker_2, # of connection points: 2
#     Edge 11, Type (0, 0), BuildingBlock: XUDNAN_clean_linker_2, # of connection points: 2
#     Edge 12, Type (0, 0), BuildingBlock: XUDNAN_clean_linker_2, # of connection points: 2
#     Edge 13, Type (0, 0), BuildingBlock: XUDNAN_clean_linker_2, # of connection points: 2
#     Edge 14, Type (0, 0), BuildingBlock: XUDNAN_clean_linker_2, # of connection points: 2
#     Edge 15, Type (0, 0), BuildingBlock: XUDNAN_clean_linker_2, # of connection points: 2
#     Edge 16, Type (0, 0), BuildingBlock: XUDNAN_clean_linker_2, # of connection points: 2
#     Edge 17, Type (0, 0), BuildingBlock: XUDNAN_clean_linker_2, # of connection points: 2
#     Edge 18, Type (0, 0), BuildingBlock: XUDNAN_clean_linker_2, # of connection points: 2
#     Edge 19, Type (0, 0), BuildingBlock: XUDNAN_clean_linker_2, # of connection points: 2
#     Edge 20, Type (0, 0), BuildingBlock: XUDNAN_clean_linker_2, # of connection points: 2
#     Edge 21, Type (0, 0), BuildingBlock: XUDNAN_clean_linker_2, # of connection points: 2
#     Edge 22, Type (0, 0), BuildingBlock: XUDNAN_clean_linker_2, # of connection points: 2
#     Edge 23, Type (0, 0), BuildingBlock: XUDNAN_clean_linker_2, # of connection points: 2
#     Edge 24, Type (0, 0), BuildingBlock: XUDNAN_clean_linker_2, # of connection points: 2
#     Edge 25, Type (0, 0), BuildingBlock: XUDNAN_clean_linker_2, # of connection points: 2
#     Edge 26, Type (0, 0), BuildingBlock: XUDNAN_clean_linker_2, # of connection points: 2
#     Edge 27, Type (0, 0), BuildingBlock: XUDNAN_clean_linker_2, # of connection points: 2
#     Edge 28, Type (0, 0), BuildingBlock: XUDNAN_clean_linker_2, # of connection points: 2
#     Edge 29, Type (0, 0), BuildingBlock: XUDNAN_clean_linker_2, # of connection points: 2
#     Edge 30, Type (0, 0), BuildingBlock: XUDNAN_clean_linker_2, # of connection points: 2
#     Edge 31, Type (0, 0), BuildingBlock: XUDNAN_clean_linker_2, # of connection points: 2
#     Edge 32, Type (0, 0), BuildingBlock: XUDNAN_clean_linker_2, # of connection points: 2
#     Edge 33, Type (0, 0), BuildingBlock: XUDNAN_clean_linker_2, # of connection points: 2
#     Edge 34, Type (0, 0), BuildingBlock: XUDNAN_clean_linker_2, # of connection points: 2
#     Edge 35, Type (0, 0), BuildingBlock: XUDNAN_clean_linker_2, # of connection points: 2
# Relax obj value: 0.110
# Max RMSD: 0.288
# Mean RMSD: 0.288
data_MOF--net-smc--node1-KUMBOL_clean_sbu_0--edge1-XUDNAN_clean_linker_2
_symmetry_space_group_name_H-M    P1
_symmetry_Int_Tables_number       1
_symmetry_cell_setting            triclinic
loop_
_symmetry_equiv_pos_as_xyz
'x, y, z'
_cell_length_a     37.745906
_cell_length_b     37.821958
_cell_length_c     40.673037
_cell_angle_alpha  90.051253
_cell_angle_beta   90.094826
_cell_angle_gamma 120.03923
loop_
_atom_site_label
_atom_site_type_symbol
_atom_site_fract_x
_atom_site_fract_y
_atom_site_fract_z
_atom_type_partial_charge
Gd0 Gd 1.00102 0.39877 0.01822 0.0
Gd1 Gd 0.06114 0.50661 0.99511 0.0
C2 C 1.01073 0.5859 0.03469 0.0
C3 C 0.99022 0.60569 0.98466 0.0
C4 C 1.0184 0.56011 0.98207 0.0
C5 C 1.02276 0.56204 0.01609 0.0
C6 C 1.00302 0.58286 0.96608 0.0
C7 C 0.99392 0.60707 0.01886 0.0
C8 C 1.01604 0.58804 0.06876 0.0
C9 C 0.03311 0.56692 0.08364 0.0
N10 N 0.03892 0.54103 0.03103 0.0
C11 C 0.0445 0.54362 0.06443 0.0
H12 H 0.05781 0.52826 0.07702 0.0
C13 C 0.03145 0.53951 0.9308 0.0
N14 N 0.03069 0.53758 0.96448 0.0
C15 C 1.01623 0.56128 0.91403 0.0
C16 C 1.00172 0.58287 0.93173 0.0
H17 H 0.04488 0.52503 0.91656 0.0
H18 H 0.98418 0.62509 0.03284 0.0
H19 H 0.05097 0.37344 0.96217 0.0
H20 H 1.00715 0.60597 0.08379 0.0
H21 H 0.03753 0.56853 0.11002 0.0
H22 H 0.97788 0.62283 0.97275 0.0
H23 H 0.95085 0.37231 0.08956 0.0
H24 H 0.09464 0.30205 0.00956 0.0
H25 H 0.0892 0.33697 0.96007 0.0
H26 H 0.03317 0.27739 0.1162 0.0
H27 H 1.01656 0.56209 0.88743 0.0
H28 H 0.9903 0.6001 0.91866 0.0
H29 H 0.0738 0.28017 0.06797 0.0
H30 H 0.9435 0.33028 0.13803 0.0
N31 N 0.03644 0.36209 0.01315 0.0
C32 C 0.07812 0.31859 0.01081 0.0
C33 C 0.07502 0.33815 0.98284 0.0
C34 C 0.05837 0.31919 0.03967 0.0
C35 C 0.03743 0.34138 0.04001 0.0
C36 C 0.05326 0.35909 0.98427 0.0
N37 N 0.99427 0.36064 0.06592 0.0
C38 C 1.01515 0.34018 0.06717 0.0
C39 C 0.96404 0.33306 0.11839 0.0
C40 C 0.98645 0.31293 0.1205 0.0
C41 C 0.96839 0.35696 0.09084 0.0
C42 C 1.01241 0.3163 0.09471 0.0
H43 H 0.98309 0.29449 0.14191 0.0
O44 O 0.93431 0.36254 0.0235 0.0
O45 O 0.99967 0.45582 0.00644 0.0
O46 O 0.08295 0.49485 0.04599 0.0
O47 O 0.03756 0.42769 0.06356 0.0
O48 O 0.96652 0.42348 0.04677 0.0
O49 O 0.96414 0.35217 0.98247 0.0
O50 O 0.11321 0.54223 0.96349 0.0
O51 O 0.06474 0.45096 0.00629 0.0
O52 O 1.01101 0.40576 0.96396 0.0
O53 O 1.01751 0.46854 0.95281 0.0
O54 O 0.09377 0.48306 0.96414 0.0
O55 O 0.11043 0.56736 0.01038 0.0
C56 C 0.97625 0.45492 0.02882 0.0
C57 C 0.03453 0.29553 0.09512 0.0
C58 C 0.05765 0.29713 0.06768 0.0
C59 C 0.92955 0.341 0.99724 0.0
C60 C 0.89841 0.29686 0.99735 0.0
C61 C 0.90796 0.26783 0.98512 0.0
C62 C 0.85747 0.28399 0.00611 0.0
C63 C 0.82643 0.24293 1.00173 0.0
C64 C 0.87733 0.22716 0.98105 0.0
C65 C 0.83681 0.21482 0.98898 0.0
C66 C 0.06881 0.46481 0.06859 0.0
C67 C 0.08898 0.45377 0.98335 0.0
C68 C 0.12946 0.57457 0.98228 0.0
C69 C 0.14233 0.61455 0.96569 0.0
C70 C 0.12833 0.6146 0.93363 0.0
C71 C 0.17056 0.65268 0.9803 0.0
C72 C 0.18377 0.6898 0.96284 0.0
C73 C 0.13923 0.6509 0.91737 0.0
C74 C 0.16636 0.68809 0.93184 0.0
C75 C 1.00703 0.4307 0.94385 0.0
H76 H 0.93895 0.27665 0.97801 0.0
H77 H 0.84955 0.30603 0.01537 0.0
H78 H 0.88498 0.20515 0.97138 0.0
H79 H 0.81355 0.18308 0.98563 0.0
H80 H 0.10952 0.5865 0.92051 0.0
H81 H 0.1833 0.6533 1.00431 0.0
H82 H 0.12733 0.65016 0.89299 0.0
H83 H 0.17453 0.71575 0.91824 0.0
Gd84 Gd 0.65862 0.61177 0.01994 0.0
Gd85 Gd 0.55285 0.56566 0.99103 0.0
C86 C 0.47307 0.43598 0.02995 0.0
C87 C 0.45307 0.39579 0.97977 0.0
C88 C 0.49887 0.4695 0.97748 0.0
C89 C 0.4973 0.47178 0.01148 0.0
C90 C 0.47664 0.43135 0.96136 0.0
C91 C 0.45104 0.39815 0.01392 0.0
C92 C 0.47152 0.43915 0.06407 0.0
C93 C 0.49437 0.47706 0.07913 0.0
N94 N 0.51946 0.50873 0.02654 0.0
C95 C 0.51801 0.51162 0.05997 0.0
H96 H 0.53401 0.54026 0.07242 0.0
C97 C 0.52157 0.50317 0.92646 0.0
N98 N 0.52199 0.50434 0.96015 0.0
C99 C 0.50066 0.4661 0.90957 0.0
C100 C 0.47835 0.42996 0.9271 0.0
H101 H 0.53643 0.53103 0.91225 0.0
H102 H 0.43232 0.37045 0.02774 0.0
H103 H 0.69385 0.6891 0.96634 0.0
H104 H 0.45278 0.41254 0.07904 0.0
H105 H 0.49336 0.47983 0.10556 0.0
H106 H 0.43598 0.36633 0.96777 0.0
H107 H 0.67811 0.58757 0.0946 0.0
H108 H 0.73872 0.80099 0.01997 0.0
H109 H 0.72419 0.76406 0.96697 0.0
H110 H 0.73736 0.75958 0.1315 0.0
H111 H 0.50103 0.46556 0.88297 0.0
H112 H 0.46181 0.40127 0.91392 0.0
H113 H 0.74254 0.79886 0.08169 0.0
H114 H 0.70288 0.62036 0.14894 0.0
N115 N 0.6897 0.68347 0.01835 0.0
C116 C 0.72529 0.76809 0.01982 0.0
C117 C 0.71722 0.74737 0.98987 0.0
C118 C 0.71814 0.74633 0.04918 0.0
C119 C 0.70076 0.70356 0.04752 0.0
C120 C 0.69986 0.70485 0.98961 0.0
N121 N 0.68417 0.64112 0.07215 0.0
C122 C 0.69822 0.68169 0.07538 0.0
C123 C 0.70143 0.63789 0.1285 0.0
C124 C 0.71325 0.67902 0.13274 0.0
C125 C 0.68761 0.61948 0.09773 0.0
C126 C 0.7125 0.70167 0.10586 0.0
H127 H 0.7241 0.69328 0.15656 0.0
O128 O 0.7187 0.63647 0.99759 0.0
O129 O 0.60364 0.55501 1.00278 0.0
O130 O 0.56386 0.60228 0.04022 0.0
O131 O 0.62231 0.60776 0.06434 0.0
O132 O 0.63439 0.54841 0.04185 0.0
O133 O 0.69638 0.58395 0.02918 0.0
O134 O 0.51605 0.58017 0.95888 0.0
O135 O 0.6084 0.62491 1.00287 0.0
O136 O 0.65823 0.61249 0.96438 0.0
O137 O 0.59226 0.56267 0.94908 0.0
O138 O 0.5791 0.62038 0.95843 0.0
O139 O 0.49273 0.55529 0.00683 0.0
C140 C 0.60391 0.52921 0.02211 0.0
C141 C 0.72697 0.74379 0.10817 0.0
C142 C 0.7298 0.76612 0.07983 0.0
C143 C 0.72568 0.60872 0.00987 0.0
C144 C 0.74437 0.59096 0.98812 0.0
C145 C 0.74151 0.59248 0.9539 0.0
C146 C 0.76757 0.57463 1.00176 0.0
C147 C 0.78944 0.5615 0.98144 0.0
C148 C 0.76196 0.57895 0.93359 0.0
C149 C 0.78624 0.56441 0.94705 0.0
C150 C 0.5901 0.61217 0.0655 0.0
C151 C 0.60759 0.64548 0.97814 0.0
C152 C 0.48432 0.56505 0.97828 0.0
C153 C 0.44376 0.53629 0.96294 0.0
C154 C 0.44273 0.51996 0.93164 0.0
C155 C 0.40594 0.52647 0.97808 0.0
C156 C 0.36817 0.50032 0.96193 0.0
C157 C 0.4059 0.49245 0.91678 0.0
C158 C 0.36905 0.48242 0.93181 0.0
C159 C 0.63176 0.58726 0.9424 0.0
H160 H 0.72415 0.60491 0.94286 0.0
H161 H 0.76855 0.57267 0.02823 0.0
H162 H 0.75968 0.58053 0.90716 0.0
H163 H 0.80311 0.55643 0.93008 0.0
H164 H 0.47041 0.52896 0.91805 0.0
H165 H 0.406 0.54024 1.00146 0.0
H166 H 0.40592 0.47954 0.89302 0.0
H167 H 0.34095 0.46123 0.91928 0.0
Gd168 Gd 0.44651 0.05747 0.01769 0.0
Gd169 Gd 0.49594 0.99704 1.00234 0.0
C170 C 0.62191 0.04432 0.04933 0.0
C171 C 0.6626 0.04672 1.00241 0.0
C172 C 0.59175 0.02977 0.99483 0.0
C173 C 0.58788 0.03285 0.02842 0.0
C174 C 0.62915 0.03641 0.98154 0.0
C175 C 0.65914 0.05118 0.03615 0.0
C176 C 0.61756 0.04821 0.083 0.0
C177 C 0.58004 0.04078 0.09518 0.0
N178 N 0.5511 0.02492 0.04064 0.0
C179 C 0.54707 0.02906 0.0737 0.0
H180 H 0.51917 0.02469 0.0841 0.0
C181 C 0.56152 1.01523 0.94196 0.0
N182 N 0.55887 0.01953 0.97519 0.0
C183 C 0.59812 0.02227 0.9277 0.0
C184 C 0.63201 0.03261 0.94759 0.0
H185 H 0.53479 1.00401 0.9264 0.0
H186 H 0.68541 0.05974 0.0519 0.0
H187 H 0.37435 1.00589 0.96004 0.0
H188 H 0.643 0.05712 0.09977 0.0
H189 H 0.57644 0.04418 0.12118 0.0
H190 H 0.6915 0.05195 0.99259 0.0
H191 H 0.46623 0.11025 0.08792 0.0
H192 H 0.25686 0.95577 1.00515 0.0
H193 H 0.29942 0.96421 0.95637 0.0
H194 H 0.28801 0.01745 0.11199 0.0
H195 H 0.59981 0.01859 0.90146 0.0
H196 H 0.66024 0.03758 0.93651 0.0
H197 H 0.25292 0.97548 0.06343 0.0
H198 H 0.4284 0.11547 0.13527 0.0
N199 N 0.37492 0.01883 0.01106 0.0
C200 C 0.2899 0.97369 0.00705 0.0
C201 C 0.31379 0.97848 0.97945 0.0
C202 C 0.30886 0.9937 0.03633 0.0
C203 C 0.352 1.01647 0.03755 0.0
C204 C 0.35642 1.00206 0.98172 0.0
N205 N 0.41314 0.06254 0.06472 0.0
C206 C 0.37168 0.0395 0.06509 0.0
C207 C 0.41214 0.09358 0.11591 0.0
C208 C 0.3697 0.06849 0.11752 0.0
C209 C 0.4335 0.09038 0.08911 0.0
C210 C 0.34887 0.04119 0.09185 0.0
H211 H 0.35323 0.07115 0.13828 0.0
O212 O 0.4819 0.12391 0.01524 0.0
O213 O 0.50605 0.05936 0.0089 0.0
O214 O 0.46205 0.9794 0.05251 0.0
O215 O 0.43697 0.02359 0.06469 0.0
O216 O 0.50449 0.09451 0.04726 0.0
O217 O 0.42415 0.09175 0.98996 0.0
O218 O 0.5043 0.9494 0.97884 0.0
O219 O 0.43621 0.99421 0.00676 0.0
O220 O 0.44865 0.0491 0.96355 0.0
O221 O 0.49916 0.03197 0.95443 0.0
O222 O 0.44364 0.96401 0.96721 0.0
O223 O 0.47607 0.93903 0.02644 0.0
C224 C 0.52757 0.08496 0.03071 0.0
C225 C 0.30603 1.01697 0.09146 0.0
C226 C 0.28606 0.99309 0.06381 0.0
C227 C 0.45432 0.12729 0.99877 0.0
C228 C 0.44414 0.15773 0.01159 0.0
C229 C 0.40947 0.14558 0.03132 0.0
C230 C 0.47063 0.1997 0.00559 0.0
C231 C 0.46308 0.22928 0.01995 0.0
C232 C 0.40193 0.17473 0.04561 0.0
C233 C 0.42864 0.21628 0.0402 0.0
C234 C 0.44311 0.99317 0.07213 0.0
C235 C 0.41713 0.96928 0.98346 0.0
C236 C 0.49256 0.92625 1.0048 0.0
C237 C 0.52081 0.91294 0.01815 0.0
C238 C 0.54045 0.92871 0.0485 0.0
C239 C 0.52755 0.88376 1.00173 0.0
C240 C 0.55295 0.87031 0.01612 0.0
C241 C 0.56606 0.91608 0.06224 0.0
C242 C 0.57209 0.88694 0.04634 0.0
C243 C 0.47521 0.04647 0.94421 0.0
H244 H 0.38834 0.11362 0.03591 0.0
H245 H 0.49743 0.20934 0.99032 0.0
H246 H 0.37526 0.16505 0.06098 0.0
H247 H 0.42194 0.2383 0.05135 0.0
H248 H 0.5356 0.95051 0.06204 0.0
H249 H 0.5125 0.87099 0.97847 0.0
H250 H 0.58092 0.9286 0.08559 0.0
H251 H 0.59183 0.87725 0.0577 0.0
Gd252 Gd 0.66999 0.73143 0.34926 0.0
Gd253 Gd 0.7328 0.83868 0.32615 0.0
C254 C 0.67967 0.91367 0.37051 0.0
C255 C 0.65981 0.93653 0.32179 0.0
C256 C 0.69013 0.89303 0.3166 0.0
C257 C 0.69338 0.89226 0.35055 0.0
C258 C 0.67363 0.91558 0.30194 0.0
C259 C 0.66289 0.93563 0.35596 0.0
C260 C 0.68293 0.91225 0.40461 0.0
C261 C 0.69921 0.88971 0.41817 0.0
N262 N 0.70909 0.8701 0.36412 0.0
C263 C 0.71235 0.86899 0.3976 0.0
H264 H 0.7252 0.8527 0.40923 0.0
C265 C 0.70368 0.87541 0.26435 0.0
N266 N 0.70291 0.87181 0.29784 0.0
C267 C 0.68741 0.89703 0.2488 0.0
C268 C 0.6718 0.91679 0.26767 0.0
H269 H 0.71816 0.8627 0.24944 0.0
H270 H 0.65221 0.95211 0.37095 0.0
H271 H 0.71603 0.70178 0.2936 0.0
H272 H 0.67294 0.92839 0.4207 0.0
H273 H 0.70189 0.88844 0.44459 0.0
H274 H 0.64688 0.95373 0.31093 0.0
H275 H 0.62066 0.70825 0.42087 0.0
H276 H 0.76318 0.63474 0.34367 0.0
H277 H 0.75457 0.66518 0.29263 0.0
H278 H 0.70559 0.61665 0.45133 0.0
H279 H 0.68771 0.89911 0.22225 0.0
H280 H 0.65938 0.93375 0.25557 0.0
H281 H 0.74511 0.61714 0.4031 0.0
H282 H 0.61389 0.6678 0.47045 0.0
N283 N 0.70566 0.69533 0.34527 0.0
C284 C 0.74686 0.6515 0.34439 0.0
C285 C 0.74195 0.66851 0.31553 0.0
C286 C 0.72878 0.65449 0.37348 0.0
C287 C 0.70808 0.67689 0.37313 0.0
C288 C 0.72024 0.68953 0.31626 0.0
N289 N 0.66559 0.69768 0.39878 0.0
C290 C 0.68679 0.67747 0.40058 0.0
C291 C 0.63491 0.67073 0.45116 0.0
C292 C 0.65795 0.6513 0.45408 0.0
C293 C 0.63902 0.69383 0.42315 0.0
C294 C 0.68433 0.65453 0.42866 0.0
H295 H 0.65451 0.63322 0.47575 0.0
O296 O 0.60345 0.7018 0.35008 0.0
O297 O 0.67017 0.78842 0.33509 0.0
O298 O 0.75615 0.82546 0.37568 0.0
O299 O 0.70645 0.76077 0.39486 0.0
O300 O 0.63578 0.75796 0.37576 0.0
O301 O 0.63217 0.67273 0.32492 0.0
O302 O 0.78547 0.87517 0.29531 0.0
O303 O 0.73405 0.78165 0.33618 0.0
O304 O 0.67534 0.73556 0.29414 0.0
O305 O 0.69302 0.80247 0.28147 0.0
O306 O 0.76331 0.81392 0.29413 0.0
O307 O 0.78176 0.89926 0.34227 0.0
C308 C 0.64579 0.78832 0.35624 0.0
C309 C 0.7066 0.63393 0.42976 0.0
C310 C 0.72907 0.63419 0.40229 0.0
C311 C 0.59772 0.66927 0.33474 0.0
C312 C 0.56701 0.63001 0.34954 0.0
C313 C 0.57915 0.60883 0.37082 0.0
C314 C 0.52488 0.61453 0.3437 0.0
C315 C 0.49515 0.57872 0.35966 0.0
C316 C 0.54992 0.57357 0.38677 0.0
C317 C 0.50825 0.55872 0.38144 0.0
C318 C 0.7407 0.79599 0.39875 0.0
C319 C 0.75719 0.78358 0.31265 0.0
C320 C 0.80109 0.90727 0.3143 0.0
C321 C 0.81311 0.94726 0.29796 0.0
C322 C 0.7998 0.9471 0.2656 0.0
C323 C 0.83954 0.98568 0.31311 0.0
C324 C 0.85128 0.02277 0.29596 0.0
C325 C 0.80888 0.98314 0.24976 0.0
C326 C 0.83386 0.0205 0.26484 0.0
C327 C 0.67744 0.76321 0.27323 0.0
H328 H 0.61117 0.61958 0.37528 0.0
H329 H 0.51526 0.63064 0.32719 0.0
H330 H 0.55962 0.55761 0.4033 0.0
H331 H 0.48622 0.53099 0.39381 0.0
H332 H 0.78275 0.91904 0.25198 0.0
H333 H 0.85202 0.98661 0.3373 0.0
H334 H 0.79724 0.98214 0.22522 0.0
H335 H 0.84055 0.04795 0.25153 0.0
Gd336 Gd 0.32109 0.94426 0.35888 0.0
Gd337 Gd 0.21793 0.90544 0.32965 0.0
C338 C 0.1342 0.77597 0.36829 0.0
C339 C 0.11931 0.73514 0.31874 0.0
C340 C 0.16402 0.80904 0.31639 0.0
C341 C 0.15933 0.81173 0.35002 0.0
C342 C 0.14349 0.77061 0.30045 0.0
C343 C 0.11448 0.73784 0.3525 0.0
C344 C 0.12922 0.77948 0.40192 0.0
C345 C 0.14862 0.81787 0.41662 0.0
N346 N 0.17886 0.84907 0.36486 0.0
C347 C 0.17294 0.85243 0.39765 0.0
H348 H 0.18571 0.88144 0.40967 0.0
C349 C 0.18846 0.84226 0.26545 0.0
N350 N 0.18778 0.84378 0.29911 0.0
C351 C 0.16913 0.80498 0.24875 0.0
C352 C 0.14706 0.76891 0.26637 0.0
H353 H 0.20357 0.86999 0.25108 0.0
H354 H 0.09499 0.7102 0.36612 0.0
H355 H 0.35595 0.0218 0.30108 0.0
H356 H 0.11004 0.75282 0.4167 0.0
H357 H 0.14437 0.82097 0.44255 0.0
H358 H 0.1036 0.70548 0.30689 0.0
H359 H 0.34051 0.91869 0.43232 0.0
H360 H 0.42356 0.13469 0.35175 0.0
H361 H 0.39437 0.09594 0.30044 0.0
H362 H 0.43585 0.09539 0.46072 0.0
H363 H 0.17071 0.8042 0.22221 0.0
H364 H 0.13181 0.74002 0.25334 0.0
H365 H 0.43836 0.13418 0.41152 0.0
H366 H 0.38009 0.95275 0.48228 0.0
N367 N 0.36014 1.01641 0.35321 0.0
C368 C 0.40605 0.10163 0.35246 0.0
C369 C 0.38979 0.07987 0.32345 0.0
C370 C 0.40124 0.08045 0.38175 0.0
C371 C 0.37787 0.0373 0.38144 0.0
C372 C 0.36773 0.03721 0.32411 0.0
N373 N 0.35428 0.97415 0.40846 0.0
C374 C 0.37546 1.01556 0.40964 0.0
C375 C 0.37862 0.97075 0.46221 0.0
C376 C 0.39924 1.01326 0.46441 0.0
C377 C 0.35609 0.95156 0.43395 0.0
C378 C 0.39767 0.03622 0.4381 0.0
H379 H 0.41679 0.02808 0.48635 0.0
O380 O 0.34076 0.90569 0.33416 0.0
O381 O 0.26377 0.88878 0.3437 0.0
O382 O 0.22865 0.94055 0.37943 0.0
O383 O 0.28633 0.94374 0.40374 0.0
O384 O 0.28704 0.88568 0.38854 0.0
O385 O 0.38301 0.95396 0.36532 0.0
O386 O 0.18531 0.92202 0.2948 0.0
O387 O 0.27467 0.96297 0.34364 0.0
O388 O 0.32339 0.95172 0.30417 0.0
O389 O 0.25809 0.90122 0.28898 0.0
O390 O 0.24724 0.9619 0.29913 0.0
O391 O 0.15741 0.89678 0.34161 0.0
C392 C 0.25966 0.86487 0.36668 0.0
C393 C 0.4192 0.07905 0.43888 0.0
C394 C 0.42065 0.10112 0.41085 0.0
C395 C 0.37636 0.92221 0.34826 0.0
C396 C 0.38787 0.89369 0.36364 0.0
C397 C 0.3623 0.8656 0.38737 0.0
C398 C 0.42397 0.89361 0.3544 0.0
C399 C 0.43414 0.86583 0.36909 0.0
C400 C 0.37183 0.83795 0.40152 0.0
C401 C 0.40729 0.83791 0.39248 0.0
C402 C 0.254 0.94843 0.4051 0.0
C403 C 0.2753 0.98527 0.31988 0.0
C404 C 0.15184 0.90673 0.31215 0.0
C405 C 0.11303 0.87792 0.29471 0.0
C406 C 0.1149 0.86465 0.26275 0.0
C407 C 0.07398 0.8644 0.3089 0.0
C408 C 0.03777 0.83756 0.29129 0.0
C409 C 0.07965 0.83648 0.24632 0.0
C410 C 0.04153 0.82273 0.2605 0.0
C411 C 0.29742 0.92622 0.28222 0.0
H412 H 0.33466 0.86447 0.3951 0.0
H413 H 0.44406 0.91515 0.33616 0.0
H414 H 0.35143 0.81622 0.4195 0.0
H415 H 0.41333 0.81541 0.40353 0.0
H416 H 0.14367 0.87623 0.25005 0.0
H417 H 0.07183 0.87578 0.33283 0.0
H418 H 0.08187 0.82582 0.22212 0.0
H419 H 1.0147 0.801 0.24684 0.0
Gd420 Gd 0.11197 0.3923 0.35411 0.0
Gd421 Gd 0.15785 0.33126 0.3294 0.0
C422 C 0.28666 0.3796 0.37079 0.0
C423 C 0.32768 0.39738 0.32122 0.0
C424 C 0.25423 0.37141 0.31758 0.0
C425 C 0.25128 0.36825 0.3516 0.0
C426 C 0.29263 0.38612 0.30214 0.0
C427 C 0.32466 0.39384 0.35542 0.0
C428 C 0.28301 0.37684 0.40498 0.0
C429 C 0.24533 0.36505 0.41942 0.0
N430 N 0.21426 0.35527 0.36601 0.0
C431 C 0.21128 0.35465 0.39957 0.0
H432 H 0.18318 0.34681 0.41172 0.0
C433 C 0.22175 0.36108 0.26592 0.0
N434 N 0.21988 0.36056 0.29957 0.0
C435 C 0.2591 0.37601 0.24968 0.0
C436 C 0.29477 0.38888 0.26787 0.0
H437 H 0.19419 0.34876 0.25121 0.0
H438 H 0.35202 0.4026 0.3698 0.0
H439 H 0.03538 0.34348 0.29928 0.0
H440 H 0.30927 0.38464 0.42052 0.0
H441 H 0.24247 0.36404 0.44592 0.0
H442 H 0.35732 0.40875 0.30975 0.0
H443 H 0.14029 0.43188 0.42979 0.0
H444 H 0.92306 0.31499 0.34605 0.0
H445 H 0.9607 0.31263 0.29719 0.0
H446 H 0.96571 0.37661 0.45234 0.0
H447 H 0.26018 0.37671 0.22309 0.0
H448 H 0.32366 0.40009 0.2552 0.0
H449 H 0.92538 0.33983 0.4036 0.0
H450 H 0.10843 0.44127 0.47936 0.0
N451 N 0.04026 0.35977 0.34993 0.0
C452 C 0.95588 0.32755 0.34746 0.0
C453 C 0.97701 0.3262 0.31983 0.0
C454 C 0.97754 0.34635 0.37623 0.0
C455 C 1.02021 0.36189 0.3769 0.0
C456 C 1.01949 0.34338 0.32128 0.0
N457 N 0.08383 0.39691 0.40432 0.0
C458 C 0.04272 0.38161 0.40473 0.0
C459 C 0.08959 0.42434 0.45857 0.0
C460 C 0.04738 0.40874 0.45941 0.0
C461 C 0.10751 0.41872 0.43049 0.0
C462 C 1.02343 0.38746 0.43219 0.0
H463 H 0.03364 0.41363 0.48104 0.0
O464 O 0.14708 0.45848 0.3587 0.0
O465 O 0.16899 0.3928 0.33965 0.0
O466 O 0.12476 0.30841 0.38034 0.0
O467 O 0.09833 0.35035 0.39683 0.0
O468 O 0.17393 0.42764 0.37992 0.0
O469 O 0.09378 0.43071 0.32732 0.0
O470 O 0.14183 0.27934 0.29766 0.0
O471 O 0.09894 0.32868 0.3401 0.0
O472 O 0.10933 0.3859 0.29914 0.0
O473 O 0.1622 0.37352 0.28667 0.0
O474 O 0.10204 0.30029 0.29766 0.0
O475 O 0.16888 0.28193 0.34494 0.0
C476 C 0.19401 0.41756 0.36018 0.0
C477 C 0.98105 0.37243 0.43146 0.0
C478 C 0.95807 0.35137 0.40376 0.0
C479 C 0.12259 0.46464 0.34023 0.0
C480 C 0.1112 0.49415 0.35331 0.0
C481 C 0.07459 0.48068 0.37067 0.0
C482 C 0.13823 0.53653 0.34977 0.0
C483 C 0.12917 0.56513 0.36413 0.0
C484 C 0.06566 0.50875 0.38521 0.0
C485 C 0.09279 0.55064 0.38218 0.0
C486 C 0.10516 0.31975 0.40189 0.0
C487 C 0.07746 0.30529 0.31668 0.0
C488 C 0.158 0.26332 0.31658 0.0
C489 C 0.18639 0.25179 0.30037 0.0
C490 C 0.20037 0.26582 0.26835 0.0
C491 C 0.19822 0.22535 0.31548 0.0
C492 C 0.22424 0.21421 0.29867 0.0
C493 C 0.22798 0.25728 0.25285 0.0
C494 C 0.24018 0.23219 0.26793 0.0
C495 C 0.13648 0.38657 0.27841 0.0
H496 H 0.05288 0.44853 0.37305 0.0
H497 H 0.16645 0.5472 0.33617 0.0
H498 H 0.03743 0.49797 0.39873 0.0
H499 H 0.08475 0.57176 0.3932 0.0
H500 H 0.18958 0.28307 0.25478 0.0
H501 H 0.18606 0.21241 0.33939 0.0
H502 H 0.23925 0.26942 0.22859 0.0
H503 H 0.26141 0.22586 0.25489 0.0
Gd504 Gd 0.33653 0.06538 0.68393 0.0
Gd505 Gd 0.39695 0.17372 0.66509 0.0
C506 C 0.35622 0.25568 0.71534 0.0
C507 C 0.33929 0.28419 0.66866 0.0
C508 C 0.35936 0.23275 0.66018 0.0
C509 C 0.36472 0.23134 0.69391 0.0
C510 C 0.34723 0.25983 0.64733 0.0
C511 C 0.34324 0.28172 0.70255 0.0
C512 C 0.36133 0.25357 0.74913 0.0
C513 C 0.37482 0.2279 0.761 0.0
N514 N 0.37816 0.20642 0.70582 0.0
C515 C 0.38324 0.20465 0.73906 0.0
H516 H 0.39342 0.18548 0.74966 0.0
C517 C 0.36558 0.21267 0.60644 0.0
N518 N 0.36722 0.20892 0.63985 0.0
C519 C 0.35308 0.23848 0.59277 0.0
C520 C 0.34388 0.2622 0.61328 0.0
H521 H 0.37579 0.19725 0.58989 0.0
H522 H 0.33663 0.30049 0.71869 0.0
H523 H 0.38564 0.04332 0.62456 0.0
H524 H 0.35494 0.27162 0.76626 0.0
H525 H 0.37879 0.22596 0.78717 0.0
H526 H 0.32984 0.30495 0.65914 0.0
H527 H 0.28719 0.03468 0.75546 0.0
H528 H 0.42936 0.96884 0.66615 0.0
H529 H 0.42364 1.00693 0.61902 0.0
H530 H 0.36901 0.93763 0.77332 0.0
H531 H 0.35177 0.24097 0.56634 0.0
H532 H 0.33473 0.28265 0.60258 0.0
H533 H 0.40904 0.94332 0.72388 0.0
H534 H 0.28009 0.98949 0.80155 0.0
N535 N 0.37156 0.02881 0.67533 0.0
C536 C 0.41295 0.98535 0.66896 0.0
C537 C 0.40971 1.00672 0.64231 0.0
C538 C 0.3935 0.98415 0.69849 0.0
C539 C 0.3727 1.00638 0.70088 0.0
C540 C 0.38813 0.02764 0.64574 0.0
N541 N 0.33012 0.02428 0.72954 0.0
C542 C 0.35078 1.00357 0.72875 0.0
C543 C 0.30038 0.99344 0.78135 0.0
C544 C 0.32263 0.97307 0.78143 0.0
C545 C 0.30459 0.01914 0.75516 0.0
C546 C 0.34824 0.97796 0.75493 0.0
H547 H 0.31943 0.95328 0.80183 0.0
O548 O 0.26985 0.02822 0.68962 0.0
O549 O 0.33481 0.12322 0.67524 0.0
O550 O 0.42064 0.15863 0.71383 0.0
O551 O 0.37435 0.09085 0.72937 0.0
O552 O 0.30296 0.08862 0.71531 0.0
O553 O 0.2995 0.0211 0.64694 0.0
O554 O 0.44736 0.20902 0.63203 0.0
O555 O 0.40054 0.11751 0.67295 0.0
O556 O 0.34646 0.07596 0.62997 0.0
O557 O 0.35198 0.13874 0.6223 0.0
O558 O 0.42837 0.15133 0.63137 0.0
O559 O 0.44749 0.23418 0.67963 0.0
C560 C 0.31177 0.12076 0.69861 0.0
C561 C 0.37021 0.95709 0.7533 0.0
C562 C 0.39299 0.96034 0.72517 0.0
C563 C 0.26504 1.00847 0.66227 0.0
C564 C 0.23463 0.96418 0.66088 0.0
C565 C 0.24494 0.93658 0.64671 0.0
C566 C 0.19359 0.9499 0.67016 0.0
C567 C 0.16322 0.90891 0.66445 0.0
C568 C 0.21491 0.89598 0.64122 0.0
C569 C 0.17427 0.88227 0.64975 0.0
C570 C 0.40659 0.12714 0.73517 0.0
C571 C 0.42455 0.12151 0.64942 0.0
C572 C 0.46479 0.24134 0.65077 0.0
C573 C 0.47658 0.28117 0.63443 0.0
C574 C 0.46178 0.28101 0.60261 0.0
C575 C 0.50454 0.31939 0.64895 0.0
C576 C 0.5165 0.3564 0.63175 0.0
C577 C 0.47123 0.31717 0.58676 0.0
C578 C 0.49796 0.35447 0.60124 0.0
C579 C 0.34113 0.10138 0.61156 0.0
H580 H 0.27604 0.9465 0.63915 0.0
H581 H 0.18509 0.9708 0.68099 0.0
H582 H 0.22313 0.8751 0.63004 0.0
H583 H 0.15147 0.8506 0.64534 0.0
H584 H 0.44326 0.25286 0.58941 0.0
H585 H 0.5181 0.3202 0.67263 0.0
H586 H 0.45858 0.31628 0.56267 0.0
H587 H 0.50514 0.38206 0.58793 0.0
Gd588 Gd 0.99671 0.27617 0.68747 0.0
Gd589 Gd 0.89016 0.23317 0.66105 0.0
C590 C 0.80719 0.10145 0.6946 0.0
C591 C 0.78734 0.06468 0.64278 0.0
C592 C 0.83403 0.13829 0.64348 0.0
C593 C 0.8321 0.13833 0.6776 0.0
C594 C 0.81132 0.10136 0.6258 0.0
C595 C 0.7851 0.06476 0.67706 0.0
C596 C 0.80512 0.10238 0.72884 0.0
C597 C 0.82878 0.13897 0.74553 0.0
N598 N 0.85465 0.17411 0.69421 0.0
C599 C 0.85351 0.17459 0.72786 0.0
H600 H 0.8712 0.20196 0.74179 0.0
C601 C 0.85689 0.17535 0.59384 0.0
N602 N 0.85768 0.17414 0.62751 0.0
C603 C 0.83534 0.13957 0.57542 0.0
C604 C 0.81282 0.10232 0.59146 0.0
H605 H 0.87259 0.2042 0.58097 0.0
H606 H 0.76616 0.03622 0.68979 0.0
H607 H 1.02619 0.35396 0.63442 0.0
H608 H 0.78557 0.07497 0.74269 0.0
H609 H 0.82787 0.13984 0.7721 0.0
H610 H 0.76998 0.0361 0.62959 0.0
H611 H 1.01662 0.24641 0.75881 0.0
H612 H 0.09961 0.46604 0.68604 0.0
H613 H 0.06621 0.42907 0.63481 0.0
H614 H 0.11746 0.42158 0.79181 0.0
H615 H 0.83558 0.14087 0.54883 0.0
H616 H 0.79586 0.07462 0.57711 0.0
H617 H 0.11832 0.46295 0.74482 0.0
H618 H 0.05833 0.27732 0.80851 0.0
N619 N 0.03407 0.34809 0.68557 0.0
C620 C 0.08142 0.43299 0.6862 0.0
C621 C 0.06264 0.41223 0.65724 0.0
C622 C 0.07821 0.41074 0.71458 0.0
C623 C 0.05409 0.36775 0.71344 0.0
C624 C 0.03956 0.36954 0.65724 0.0
N625 N 0.03101 0.30339 0.73744 0.0
C626 C 0.05313 0.34465 0.74004 0.0
C627 C 0.05684 0.29661 0.78957 0.0
C628 C 0.07863 0.33902 0.79313 0.0
C629 C 0.03304 0.2792 0.76144 0.0
C630 C 0.07689 0.36363 0.76826 0.0
H631 H 0.09704 0.35243 0.81498 0.0
O632 O 0.0297 0.24267 0.69236 0.0
O633 O 0.93941 0.22041 0.67243 0.0
O634 O 0.90072 0.26303 0.71352 0.0
O635 O 0.96717 0.2835 0.73244 0.0
O636 O 0.96937 0.2137 0.71183 0.0
O637 O 0.05098 0.29279 0.65822 0.0
O638 O 0.85581 0.25297 0.63101 0.0
O639 O 0.94654 0.29074 0.67419 0.0
O640 O 0.99364 0.27916 0.63241 0.0
O641 O 0.92807 0.22733 0.61926 0.0
O642 O 0.91873 0.29048 0.63076 0.0
O643 O 0.82998 0.22273 0.67691 0.0
C644 C 0.93852 0.19473 0.69245 0.0
C645 C 0.09942 0.40643 0.77016 0.0
C646 C 0.09988 0.42997 0.74342 0.0
C647 C 0.05863 0.26626 0.67221 0.0
C648 C 0.10124 0.28094 0.68329 0.0
C649 C 0.12657 0.32211 0.69203 0.0
C650 C 0.11675 0.25376 0.6857 0.0
C651 C 0.15701 0.26779 0.69723 0.0
C652 C 0.16647 0.33612 0.70287 0.0
C653 C 0.18154 0.30927 0.70556 0.0
C654 C 0.93024 0.2784 0.73669 0.0
C655 C 0.946 0.31424 0.65188 0.0
C656 C 0.82323 0.23629 0.6495 0.0
C657 C 0.78307 0.21039 0.63236 0.0
C658 C 0.7831 0.19848 0.59959 0.0
C659 C 0.74473 0.19917 0.6473 0.0
C660 C 0.70752 0.17607 0.62943 0.0
C661 C 0.74678 0.17388 0.58284 0.0
C662 C 0.70944 0.1625 0.5976 0.0
C663 C 0.96741 0.25133 0.61192 0.0
H664 H 0.11552 0.34354 0.69057 0.0
H665 H 0.0973 0.22178 0.67954 0.0
H666 H 0.1857 0.36791 0.70956 0.0
H667 H 0.21248 0.32087 0.71453 0.0
H668 H 0.81129 0.20872 0.58637 0.0
H669 H 0.74399 0.20959 0.67197 0.0
H670 H 0.7476 0.16432 0.5579 0.0
H671 H 0.6818 0.14367 0.5836 0.0
Gd672 Gd 0.78369 0.72354 0.68226 0.0
Gd673 Gd 0.83049 0.66289 0.66058 0.0
C674 C 0.95851 0.70673 0.70163 0.0
C675 C 0.99734 0.71583 0.65183 0.0
C676 C 0.92565 0.69753 0.64845 0.0
C677 C 0.92328 0.69653 0.68258 0.0
C678 C 0.96266 0.70654 0.63284 0.0
C679 C 0.99546 0.71662 0.68608 0.0
C680 C 0.95558 0.70609 0.73587 0.0
C681 C 0.91814 0.69498 0.75046 0.0
N682 N 0.88671 0.68538 0.69717 0.0
C683 C 0.88391 0.68447 0.73076 0.0
H684 H 0.85591 0.67641 0.74311 0.0
C685 C 0.8923 0.68542 0.59697 0.0
N686 N 0.89164 0.68824 0.63051 0.0
C687 C 0.92841 0.69491 0.58051 0.0
C688 C 0.96377 0.70551 0.5985 0.0
H689 H 0.8645 0.67429 0.58273 0.0
H690 H 1.02265 0.72434 0.70037 0.0
H691 H 0.70798 0.67352 0.62678 0.0
H692 H 0.98199 0.71396 0.75126 0.0
H693 H 0.91556 0.69445 0.77698 0.0
H694 H 1.02595 0.72291 0.64019 0.0
H695 H 0.80812 0.7778 0.75171 0.0
H696 H 0.59332 0.62554 0.67622 0.0
H697 H 0.63288 0.63299 0.62573 0.0
H698 H 0.63141 0.68947 0.782 0.0
H699 H 0.92862 0.69287 0.55397 0.0
H700 H 0.99162 0.71231 0.58569 0.0
H701 H 0.5931 0.64642 0.7348 0.0
H702 H 0.77354 0.78624 0.79984 0.0
N703 N 0.71168 0.68615 0.67814 0.0
C704 C 0.62646 0.64274 0.67702 0.0
C705 C 0.64866 0.64699 0.64846 0.0
C706 C 0.64725 0.66269 0.70579 0.0
C707 C 0.69045 0.68447 0.70556 0.0
C708 C 0.69142 0.66984 0.64927 0.0
N709 N 0.75333 0.73004 0.73055 0.0
C710 C 0.71192 0.70774 0.73244 0.0
C711 C 0.7559 0.76365 0.78128 0.0
C712 C 0.7135 0.73958 0.78434 0.0
C713 C 0.77544 0.7585 0.75408 0.0
C714 C 0.69092 0.71115 0.7598 0.0
H715 H 0.69843 0.74374 0.80542 0.0
O716 O 0.81972 0.79003 0.68071 0.0
O717 O 0.84248 0.7252 0.67037 0.0
O718 O 0.79649 0.64193 0.71136 0.0
O719 O 0.77705 0.68922 0.72857 0.0
O720 O 0.84243 0.75766 0.71135 0.0
O721 O 0.76204 0.75879 0.6552 0.0
O722 O 0.81215 0.60985 0.62975 0.0
O723 O 0.77133 0.65974 0.67089 0.0
O724 O 0.78224 0.71435 0.62775 0.0
O725 O 0.83813 0.70645 0.61769 0.0
O726 O 0.77481 0.63121 0.62864 0.0
O727 O 0.84097 0.61326 0.67646 0.0
C728 C 0.86459 0.74855 0.69314 0.0
C729 C 0.64804 0.68776 0.76094 0.0
C730 C 0.62624 0.66328 0.73406 0.0
C731 C 0.79224 0.79399 0.6646 0.0
C732 C 0.78186 0.82389 0.67827 0.0
C733 C 0.74687 0.81094 0.69778 0.0
C734 C 0.80817 0.86601 0.67306 0.0
C735 C 0.80012 0.89496 0.68795 0.0
C736 C 0.73892 0.83947 0.71273 0.0
C737 C 0.76545 0.88119 0.70807 0.0
C738 C 0.78117 0.65701 0.73375 0.0
C739 C 0.75005 0.63568 0.64783 0.0
C740 C 0.82824 0.59369 0.64858 0.0
C741 C 0.85397 0.57912 0.63187 0.0
C742 C 0.86309 0.58732 0.59826 0.0
C743 C 0.86687 0.55432 0.64823 0.0
C744 C 0.88858 0.53815 0.63111 0.0
C745 C 0.88541 0.5728 0.58165 0.0
C746 C 0.89782 0.54836 0.5977 0.0
C747 C 0.81141 0.71769 0.6081 0.0
H748 H 0.72572 0.77883 0.70163 0.0
H749 H 0.83514 0.87626 0.65787 0.0
H750 H 0.71202 0.82917 0.72793 0.0
H751 H 0.75838 0.90275 0.71961 0.0
H752 H 0.85216 0.60422 0.58427 0.0
H753 H 0.85929 0.54711 0.67393 0.0
H754 H 0.89203 0.57948 0.55577 0.0
H755 H 0.91312 0.53601 0.5832 0.0
H756 H 0.30792 0.5017 0.92602 0.0
H757 H 0.33544 0.48079 0.02514 0.0
H758 H 0.26425 0.46042 0.04189 0.0
H759 H 0.24359 0.54238 0.9468 0.0
H760 H 0.20994 0.51835 0.91226 0.0
H761 H 0.26279 0.53176 0.90975 0.0
H762 H 0.24009 0.45663 0.89477 0.0
H763 H 0.18713 0.4429 0.89792 0.0
H764 H 0.20638 0.41615 0.92203 0.0
H765 H 0.18642 0.44062 0.04634 0.0
H766 H 0.11702 0.43196 0.03906 0.0
H767 H 0.14348 0.46392 0.93633 0.0
C768 C 0.29915 0.49274 0.95132 0.0
C769 C 0.32736 0.49251 0.97417 0.0
C770 C 0.31456 0.48141 0.00717 0.0
C771 C 0.274 0.46939 0.01677 0.0
C772 C 0.24658 0.46859 0.99309 0.0
C773 C 0.25913 0.48044 0.96108 0.0
C774 C 0.22488 0.47777 0.93995 0.0
C775 C 0.23596 0.52007 0.92642 0.0
C776 C 0.21399 0.4465 0.91202 0.0
C777 C 0.19081 0.4629 0.96492 0.0
C778 C 0.20338 0.45742 0.99551 0.0
C779 C 0.17666 0.44501 0.02241 0.0
C780 C 0.13718 0.44003 0.01811 0.0
C781 C 0.12494 0.44777 0.98725 0.0
C782 C 0.15178 0.45771 0.96026 0.0
H783 H 0.52726 0.79373 0.03909 0.0
H784 H 0.59724 0.87686 0.96083 0.0
H785 H 0.62102 0.8293 0.94306 0.0
H786 H 0.59725 0.76197 0.06187 0.0
H787 H 0.55695 0.71025 0.06962 0.0
H788 H 0.5467 0.75152 0.07312 0.0
H789 H 0.48642 0.71133 0.0315 0.0
H790 H 0.50013 0.67225 0.02741 0.0
H791 H 0.49746 0.69868 0.99149 0.0
H792 H 0.63923 0.77266 0.93574 0.0
H793 H 0.64669 0.71116 0.93745 0.0
H794 H 0.56511 0.6663 0.02085 0.0
C795 C 0.5467 0.80128 0.01765 0.0
C796 C 0.55999 0.83858 1.00096 0.0
C797 C 0.58607 0.848 0.97344 0.0
C798 C 0.6 0.82134 0.96344 0.0
C799 C 0.58733 0.78528 0.98113 0.0
C800 C 0.56055 0.77492 0.00725 0.0
C801 C 0.55162 0.73469 0.02241 0.0
C802 C 0.56398 0.74002 0.0589 0.0
C803 C 0.50622 0.70233 0.01792 0.0
C804 C 0.57891 0.72473 1.00173 0.0
C805 C 0.59895 0.75398 0.9778 0.0
C806 C 0.62428 0.7501 0.95485 0.0
C807 C 0.62884 0.71535 0.95626 0.0
C808 C 0.60952 0.68559 0.98116 0.0
C809 C 0.58341 0.69014 1.00352 0.0
H810 H 0.37572 0.91227 0.93674 0.0
H811 H 0.36543 0.94211 0.03775 0.0
H812 H 0.30429 0.87335 0.04487 0.0
H813 H 0.26592 0.8495 0.91918 0.0
H814 H 0.27358 0.81463 0.89403 0.0
H815 H 0.31316 0.8674 0.89699 0.0
H816 H 0.36444 0.84468 0.91554 0.0
H817 H 0.3249 0.79189 0.91337 0.0
H818 H 0.35291 0.81237 0.95112 0.0
H819 H 0.24582 0.79639 0.04092 0.0
H820 H 0.19479 0.72504 0.0249 0.0
H821 H 0.24785 0.74774 0.92742 0.0
C822 C 0.36003 0.90478 0.96017 0.0
C823 C 0.37543 0.93271 0.98666 0.0
C824 C 0.35422 0.92138 0.01703 0.0
C825 C 0.31951 0.88221 0.0213 0.0
C826 C 0.30634 0.85466 0.99494 0.0
C827 C 0.32586 0.86597 0.96483 0.0
C828 C 0.30749 0.83091 0.94056 0.0
C829 C 0.28892 0.84123 0.91095 0.0
C830 C 0.33933 0.81929 0.92952 0.0
C831 C 0.27465 0.79775 0.96155 0.0
C832 C 0.27408 0.81164 0.99288 0.0
C833 C 0.24605 0.78554 0.01634 0.0
C834 C 0.21738 0.74488 0.00717 0.0
C835 C 0.21691 0.73069 0.97481 0.0
C836 C 0.24675 0.75759 0.95222 0.0
H837 H 0.49925 0.29144 0.06506 0.0
H838 H 0.48666 0.26722 0.96027 0.0
H839 H 0.52447 0.34165 0.94932 0.0
H840 H 0.48277 0.36962 0.06675 0.0
H841 H 0.52149 0.40403 0.09529 0.0
H842 H 0.50154 0.34982 0.09803 0.0
H843 H 0.57053 0.35438 0.09161 0.0
H844 H 0.59401 0.40923 0.09273 0.0
H845 H 0.60465 0.38479 0.05917 0.0
H846 H 0.56068 0.41883 0.94998 0.0
H847 H 0.59138 0.49248 0.96202 0.0
H848 H 0.57892 0.46672 0.06645 0.0
C849 C 0.50516 0.30189 0.03982 0.0
C850 C 0.49014 0.27365 0.01346 0.0
C851 C 0.49832 0.28837 0.98077 0.0
C852 C 0.51968 0.33056 0.97435 0.0
C853 C 0.5334 0.35763 1.00091 0.0
C854 C 0.52713 0.34387 0.03301 0.0
C855 C 0.54398 0.37928 0.05713 0.0
C856 C 0.51049 0.37558 0.08068 0.0
C857 C 0.58046 0.38208 0.07629 0.0
C858 C 0.55807 0.415 0.03364 0.0
C859 C 0.55283 0.40191 1.00131 0.0
C860 C 0.56467 0.42933 0.97519 0.0
C861 C 0.58173 0.4711 0.98224 0.0
C862 C 0.58593 0.48503 0.01509 0.0
C863 C 0.57498 0.45668 0.04109 0.0
H864 H 0.58303 0.11123 0.97886 0.0
H865 H 0.57408 0.11946 0.08451 0.0
H866 H 0.64898 0.16433 0.0882 0.0
H867 H 0.68334 0.11775 0.97062 0.0
H868 H 0.69461 0.15028 0.93567 0.0
H869 H 0.64208 0.11477 0.94567 0.0
H870 H 0.63425 0.18054 0.94416 0.0
H871 H 0.68867 0.21369 0.93939 0.0
H872 H 0.66255 0.22073 0.97359 0.0
H873 H 0.72507 0.20582 0.08115 0.0
H874 H 0.79749 0.24094 0.06329 0.0
H875 H 0.75822 0.20997 0.96204 0.0
C876 C 0.5971 0.12206 1.00273 0.0
C877 C 0.57297 0.11067 0.03164 0.0
C878 C 0.59213 0.12706 0.06224 0.0
C879 C 0.63463 0.15268 0.06456 0.0
C880 C 0.65768 0.16325 0.03583 0.0
C881 C 0.63968 0.14896 1.00537 0.0
C882 C 0.67154 0.16794 0.97825 0.0
C883 C 0.67278 0.1356 0.95628 0.0
C884 C 0.66379 0.19748 0.95763 0.0
C885 C 0.7105 0.19114 0.9985 0.0
C886 C 0.7016 0.18921 0.0316 0.0
C887 C 0.7324 0.20776 0.05527 0.0
C888 C 0.77342 0.22774 0.04496 0.0
C889 C 0.78331 0.2283 0.01138 0.0
C890 C 0.75138 0.21025 0.98785 0.0
H891 H 0.93379 0.46078 0.97592 0.0
H892 H 0.95602 0.48709 0.07995 0.0
H893 H 0.91212 0.51852 0.0794 0.0
H894 H 0.91869 0.54522 0.94737 0.0
H895 H 0.87707 0.51022 0.92183 0.0
H896 H 0.91745 0.49978 0.93189 0.0
H897 H 0.85726 0.42847 0.95267 0.0
H898 H 0.81999 0.44416 0.94571 0.0
H899 H 0.8256 0.42791 0.98605 0.0
H900 H 0.87167 0.55373 0.06545 0.0
H901 H 0.82648 0.57696 0.04324 0.0
H902 H 0.81627 0.51192 0.95203 0.0
C903 C 0.92999 0.47401 0.99833 0.0
C904 C 0.95026 0.47399 0.02762 0.0
C905 C 0.94223 0.48866 0.05703 0.0
C906 C 0.91726 0.50639 0.05694 0.0
C907 C 0.89853 0.50704 0.02756 0.0
C908 C 0.9033 0.48988 0.99906 0.0
C909 C 0.87477 0.48903 0.97227 0.0
C910 C 0.89851 0.51241 0.94153 0.0
C911 C 0.84249 0.44476 0.96368 0.0
C912 C 0.8555 0.51093 0.98948 0.0
C913 C 0.87 0.52146 0.02118 0.0
C914 C 0.85916 0.54463 0.04093 0.0
C915 C 0.83285 0.55742 0.02799 0.0
C916 C 0.81651 0.54634 0.99563 0.0
C917 C 0.82797 0.52205 0.97656 0.0
H918 H 0.81014 0.79188 0.26492 0.0
H919 H 0.78519 0.76136 0.36796 0.0
H920 H 0.85458 0.77016 0.37484 0.0
H921 H 0.87475 0.74515 0.25071 0.0
H922 H 0.90753 0.78571 0.22315 0.0
H923 H 0.85422 0.77065 0.22648 0.0
H924 H 0.87492 0.84552 0.24017 0.0
H925 H 0.92823 0.86071 0.23772 0.0
H926 H 0.9083 0.87066 0.27464 0.0
H927 H 0.93235 0.79165 0.37041 0.0
H928 H 1.00437 0.81538 0.35406 0.0
H929 H 0.97562 0.83409 0.25463 0.0
C930 C 0.81872 0.78579 0.28878 0.0
C931 C 0.79242 0.77646 0.31603 0.0
C932 C 0.80499 0.769 0.34683 0.0
C933 C 0.84443 0.774 0.3509 0.0
C934 C 0.87074 0.78609 0.3238 0.0
C935 C 0.85778 0.79103 0.29319 0.0
C936 C 0.89186 0.80659 0.2682 0.0
C937 C 0.88147 0.77514 0.24051 0.0
C938 C 0.90137 0.84833 0.25439 0.0
C939 C 0.9265 0.81044 0.28941 0.0
C940 C 0.91413 0.79838 0.3214 0.0
C941 C 0.94199 0.80066 0.34528 0.0
C942 C 0.98298 0.81457 0.33589 0.0
C943 C 0.99572 0.82612 0.30294 0.0
C944 C 0.96691 0.82459 0.27985 0.0
H945 H 0.2244 0.15351 0.26275 0.0
H946 H 0.24543 0.20227 0.36183 0.0
H947 H 0.2673 0.15268 0.37853 0.0
H948 H 0.18593 0.04931 0.28345 0.0
H949 H 0.21018 0.04032 0.24885 0.0
H950 H 0.19577 0.07893 0.24642 0.0
H951 H 0.2706 0.13251 0.23135 0.0
H952 H 0.28535 0.09411 0.23442 0.0
H953 H 0.31166 0.14021 0.25853 0.0
H954 H 0.28771 0.09519 0.38304 0.0
H955 H 0.29675 0.03483 0.37572 0.0
H956 H 0.2657 0.02995 0.27271 0.0
C957 C 0.23387 0.1542 0.28801 0.0
C958 C 0.23364 0.18233 0.31085 0.0
C959 C 0.24521 0.18105 0.34383 0.0
C960 C 0.25807 0.15321 0.35341 0.0
C961 C 0.2593 0.12691 0.32971 0.0
C962 C 0.24713 0.12729 0.29771 0.0
C963 C 0.25034 0.09618 0.27653 0.0
C964 C 0.20805 0.0643 0.26304 0.0
C965 C 0.28133 0.11701 0.24856 0.0
C966 C 0.26595 0.07764 0.30145 0.0
C967 C 0.27116 0.09548 0.33209 0.0
C968 C 0.28362 0.08127 0.35904 0.0
C969 C 0.28883 0.047 0.35472 0.0
C970 C 0.28137 0.02722 0.32379 0.0
C971 C 0.27166 0.04423 0.29673 0.0
H972 H 0.03421 0.24976 0.26966 0.0
H973 H 0.027 0.27693 0.37184 0.0
H974 H 0.96746 0.20709 0.37934 0.0
H975 H 0.92419 0.18298 0.25432 0.0
H976 H 0.93334 0.15004 0.22798 0.0
H977 H 0.9709 0.20351 0.23097 0.0
H978 H 1.02571 0.18442 0.24703 0.0
H979 H 0.98821 0.13094 0.2449 0.0
H980 H 1.01716 0.15211 0.28217 0.0
H981 H 0.9107 0.12873 0.37512 0.0
H982 H 0.86202 0.05675 0.35876 0.0
H983 H 0.91284 0.08347 0.26044 0.0
C984 C 1.01947 0.24155 0.29349 0.0
C985 C 0.03557 0.26894 0.32031 0.0
C986 C 1.01543 0.25659 0.35104 0.0
C987 C 0.98163 0.21678 0.35544 0.0
C988 C 0.96824 0.18963 0.32876 0.0
C989 C 0.98647 0.20208 0.29826 0.0
C990 C 0.96889 0.16734 0.27373 0.0
C991 C 0.94808 0.17652 0.24507 0.0
C992 C 1.00196 0.15818 0.26124 0.0
C993 C 0.9379 0.13301 0.29496 0.0
C994 C 0.93745 0.146 0.32664 0.0
C995 C 0.91087 0.11861 0.35025 0.0
C996 C 0.88355 0.0776 0.34088 0.0
C997 C 0.88305 0.06428 0.30818 0.0
C998 C 0.91156 0.09254 0.28548 0.0
H999 H 0.23251 0.80244 0.41224 0.0
H1000 H 0.25577 0.82832 0.30817 0.0
H1001 H 0.22956 0.75538 0.29696 0.0
H1002 H 0.26183 0.72209 0.41195 0.0
H1003 H 0.22401 0.6911 0.44208 0.0
H1004 H 0.24627 0.74585 0.44273 0.0
H1005 H 0.1737 0.73867 0.43833 0.0
H1006 H 0.15309 0.6843 0.44044 0.0
H1007 H 0.1392 0.70568 0.40686 0.0
H1008 H 0.19731 0.67932 0.29618 0.0
H1009 H 0.16012 0.60484 0.3061 0.0
H1010 H 0.15764 0.62672 0.41053 0.0
C1011 C 0.23217 0.79259 0.38718 0.0
C1012 C 0.24514 0.82089 0.36096 0.0
C1013 C 0.24506 0.80709 0.32855 0.0
C1014 C 0.23047 0.76569 0.32193 0.0
C1015 C 0.21675 0.73832 0.34807 0.0
C1016 C 0.21771 0.75109 0.38012 0.0
C1017 C 0.20116 0.71501 0.40356 0.0
C1018 C 0.23535 0.71874 0.42643 0.0
C1019 C 0.16465 0.71076 0.42345 0.0
C1020 C 0.18816 0.6799 0.37941 0.0
C1021 C 0.1985 0.6942 0.34764 0.0
C1022 C 0.18931 0.66773 0.32099 0.0
C1023 C 0.16833 0.62547 0.32685 0.0
C1024 C 0.15605 0.60994 0.35903 0.0
C1025 C 0.16663 0.6377 0.38565 0.0
H1026 H 0.25651 0.45678 0.40525 0.0
H1027 H 0.2316 0.4413 0.30059 0.0
H1028 H 0.30532 0.48402 0.28904 0.0
H1029 H 0.33905 0.56426 0.39773 0.0
H1030 H 0.36916 0.56076 0.43064 0.0
H1031 H 0.31418 0.52936 0.43127 0.0
H1032 H 0.31913 0.46244 0.43475 0.0
H1033 H 0.3736 0.49615 0.43748 0.0
H1034 H 0.35312 0.45722 0.40643 0.0
H1035 H 0.38234 0.52554 0.28868 0.0
H1036 H 0.45686 0.56278 0.29985 0.0
H1037 H 0.43261 0.55323 0.40457 0.0
C1038 C 0.26674 0.4625 0.37996 0.0
C1039 C 0.23846 0.44449 0.35379 0.0
C1040 C 0.25278 0.45353 0.32101 0.0
C1041 C 0.29464 0.47812 0.3142 0.0
C1042 C 0.32194 0.49436 0.34045 0.0
C1043 C 0.30863 0.48725 0.37272 0.0
C1044 C 0.34452 0.5092 0.39629 0.0
C1045 C 0.34154 0.5429 0.41509 0.0
C1046 C 0.34764 0.47939 0.42014 0.0
C1047 C 0.38007 0.52739 0.37231 0.0
C1048 C 0.36632 0.51926 0.34019 0.0
C1049 C 0.39345 0.53234 0.31374 0.0
C1050 C 0.43573 0.5536 0.32029 0.0
C1051 C 0.45055 0.56097 0.35302 0.0
C1052 C 0.42217 0.54805 0.37928 0.0
H1053 H 0.48597 0.85614 0.41056 0.0
H1054 H 0.46643 0.87012 0.3074 0.0
H1055 H 0.52204 0.85623 0.29269 0.0
H1056 H 0.596 0.89929 0.40763 0.0
H1057 H 0.5963 0.86271 0.43591 0.0
H1058 H 0.55763 0.87718 0.43915 0.0
H1059 H 0.5001 0.80232 0.43433 0.0
H1060 H 0.53774 0.78649 0.43203 0.0
H1061 H 0.49968 0.77177 0.40013 0.0
H1062 H 0.57362 0.83139 0.28929 0.0
H1063 H 0.62075 0.80449 0.2977 0.0
H1064 H 0.60654 0.80747 0.40314 0.0
C1065 C 0.49365 0.85681 0.38484 0.0
C1066 C 0.47165 0.86415 0.36011 0.0
C1067 C 0.48306 0.86508 0.32681 0.0
C1068 C 0.51442 0.8569 0.31824 0.0
C1069 C 0.53427 0.84812 0.34326 0.0
C1070 C 0.52453 0.8485 0.37592 0.0
C1071 C 0.54857 0.83592 0.39814 0.0
C1072 C 0.57631 0.87086 0.42159 0.0
C1073 C 0.5198 0.79681 0.41727 0.0
C1074 C 0.57323 0.82796 0.37293 0.0
C1075 C 0.5645 0.83501 0.34137 0.0
C1076 C 0.58134 0.82676 0.31394 0.0
C1077 C 0.60817 0.81159 0.31893 0.0
C1078 C 0.61848 0.80546 0.3511 0.0
C1079 C 0.60013 0.81309 0.37833 0.0
H1080 H 0.64959 0.1841 0.59556 0.0
H1081 H 0.67127 0.14676 0.69061 0.0
H1082 H 0.59913 0.12377 0.70632 0.0
H1083 H 0.58258 0.2201 0.62243 0.0
H1084 H 0.55138 0.20184 0.58592 0.0
H1085 H 0.60462 0.21648 0.58417 0.0
H1086 H 0.5844 0.14501 0.56064 0.0
H1087 H 0.53103 0.12991 0.56296 0.0
H1088 H 0.5495 0.09992 0.5833 0.0
H1089 H 0.52069 0.10279 0.70985 0.0
H1090 H 0.45105 0.09339 0.70242 0.0
H1091 H 0.48357 0.14181 0.60374 0.0
C1092 C 0.63938 0.17114 0.61979 0.0
C1093 C 0.66626 0.16702 0.64174 0.0
C1094 C 0.65151 0.15053 0.67339 0.0
C1095 C 0.61038 0.137 0.68235 0.0
C1096 C 0.58432 0.14015 0.65941 0.0
C1097 C 0.59877 0.15727 0.62885 0.0
C1098 C 0.56558 0.15757 0.60817 0.0
C1099 C 0.5767 0.2016 0.59969 0.0
C1100 C 0.55714 0.13155 0.57693 0.0
C1101 C 0.52985 0.13802 0.63164 0.0
C1102 C 0.54075 0.128 0.66118 0.0
C1103 C 0.51224 0.11071 0.68672 0.0
C1104 C 0.47257 0.1053 0.68231 0.0
C1105 C 0.46174 0.1172 0.65262 0.0
C1106 C 0.4906 0.13229 0.62678 0.0
H1107 H 0.98673 0.39355 0.62702 0.0
H1108 H 0.88658 0.31233 0.68956 0.0
H1109 H 0.86864 0.36518 0.69885 0.0
H1110 H 1.01239 0.49243 0.67132 0.0
H1111 H 1.02182 0.51979 0.6331 0.0
H1112 H 0.03244 0.47845 0.63661 0.0
H1113 H 0.98584 0.44293 0.58639 0.0
H1114 H 0.97469 0.48377 0.58281 0.0
H1115 H 0.93348 0.43182 0.58693 0.0
H1116 H 0.85473 0.42264 0.69547 0.0
H1117 H 0.84466 0.47914 0.67759 0.0
H1118 H 0.95458 0.52655 0.61801 0.0
C1119 C 0.963 0.38803 0.64453 0.0
C1120 C 0.94121 0.34993 0.66083 0.0
C1121 C 0.9069 0.34241 0.68008 0.0
C1122 C 0.89573 0.3722 0.68482 0.0
C1123 C 0.91843 0.4097 0.66937 0.0
C1124 C 0.95142 0.41788 0.64952 0.0
C1125 C 0.96733 0.45893 0.6326 0.0
C1126 C 1.0111 0.4892 0.6441 0.0
C1127 C 0.96518 0.45404 0.59496 0.0
C1128 C 0.93709 0.47144 0.64502 0.0
C1129 C 0.90948 0.44278 0.66651 0.0
C1130 C 0.87672 0.44581 0.67916 0.0
C1131 C 0.87139 0.47839 0.66901 0.0
C1132 C 0.89862 0.50784 0.64627 0.0
C1133 C 0.93268 0.50464 0.6351 0.0
H1134 H 0.70626 0.57844 0.60204 0.0
H1135 H 0.70113 0.60896 0.70387 0.0
H1136 H 0.64037 0.54024 0.71235 0.0
H1137 H 0.59606 0.51568 0.58775 0.0
H1138 H 0.60261 0.48071 0.5618 0.0
H1139 H 0.64224 0.53352 0.56408 0.0
H1140 H 0.69443 0.51101 0.58039 0.0
H1141 H 0.65488 0.45819 0.57887 0.0
H1142 H 0.68458 0.4789 0.61588 0.0
H1143 H 0.58152 0.4632 0.70933 0.0
H1144 H 0.52984 0.39176 0.69399 0.0
H1145 H 0.57877 0.41419 0.59507 0.0
C1146 C 0.69186 0.57112 0.626 0.0
C1147 C 0.70866 0.59911 0.65233 0.0
C1148 C 0.68896 0.58806 0.68333 0.0
C1149 C 0.65445 0.54895 0.68834 0.0
C1150 C 0.63997 0.52127 0.66206 0.0
C1151 C 0.658 0.5324 0.63139 0.0
C1152 C 0.63864 0.49728 0.60729 0.0
C1153 C 0.61869 0.5074 0.57854 0.0
C1154 C 0.67 0.48568 0.5949 0.0
C1155 C 0.60685 0.46428 0.62899 0.0
C1156 C 0.60766 0.47826 0.66053 0.0
C1157 C 0.58067 0.45226 0.68458 0.0
C1158 C 0.55164 0.41158 0.67579 0.0
C1159 C 0.54985 0.39733 0.64324 0.0
C1160 C 0.57867 0.42412 0.62004 0.0
H1161 H 0.83482 0.95647 0.73371 0.0
H1162 H 0.82404 0.93374 0.6287 0.0
H1163 H 0.86088 1.00829 0.61843 0.0
H1164 H 0.81631 0.03375 0.73464 0.0
H1165 H 0.85376 0.06805 0.76408 0.0
H1166 H 0.83435 1.01389 0.76649 0.0
H1167 H 0.90404 0.01945 0.76165 0.0
H1168 H 0.92687 0.07422 0.76324 0.0
H1169 H 0.93903 0.05064 0.72994 0.0
H1170 H 0.89526 0.08503 0.61973 0.0
H1171 H 0.92557 0.15838 0.63223 0.0
H1172 H 0.91314 0.13175 0.73656 0.0
C1173 C 0.84095 0.96729 0.70857 0.0
C1174 C 0.82671 0.93944 0.68194 0.0
C1175 C 0.83511 0.95461 0.64939 0.0
C1176 C 0.8559 0.99685 0.64337 0.0
C1177 C 0.86877 0.0235 0.67018 0.0
C1178 C 0.86234 1.00934 0.70215 0.0
C1179 C 0.87813 0.04437 0.72657 0.0
C1180 C 0.84362 0.03986 0.74929 0.0
C1181 C 0.91416 0.04734 0.74652 0.0
C1182 C 0.89247 0.08038 0.70337 0.0
C1183 C 0.88755 0.06766 0.67095 0.0
C1184 C 0.89914 0.09527 0.64502 0.0
C1185 C 0.91599 0.13689 0.65235 0.0
C1186 C 0.92037 0.15056 0.68531 0.0
C1187 C 0.9093 0.12196 0.71113 0.0
H1188 H 0.91957 0.78168 0.64131 0.0
H1189 H 0.91148 0.77362 0.74758 0.0
H1190 H 0.98652 0.81701 0.75183 0.0
H1191 H 1.02 0.78938 0.62611 0.0
H1192 H 0.03053 0.82708 0.59539 0.0
H1193 H 0.97822 0.78988 0.60456 0.0
H1194 H 0.97094 0.85564 0.61287 0.0
H1195 H 1.02536 0.88933 0.60878 0.0
H1196 H 0.99955 0.89073 0.64554 0.0
H1197 H 0.06235 0.85898 0.745 0.0
H1198 H 0.13466 0.897 0.72697 0.0
H1199 H 0.09494 0.88221 0.6254 0.0
C1200 C 0.93388 0.78852 0.66535 0.0
C1201 C 0.90998 0.77295 0.69418 0.0
C1202 C 0.9294 0.78435 0.72526 0.0
C1203 C 0.97197 0.80911 0.72791 0.0
C1204 C 0.9948 0.82385 0.69923 0.0
C1205 C 0.97656 0.81448 0.66848 0.0
C1206 C 1.00825 0.83765 0.64193 0.0
C1207 C 1.0091 0.80914 0.61546 0.0
C1208 C 1.00056 0.87027 0.62636 0.0
C1209 C 0.04736 0.85744 0.66229 0.0
C1210 C 0.03866 0.85025 0.6954 0.0
C1211 C 0.06955 0.86502 0.71915 0.0
C1212 C 0.11049 0.88668 0.70876 0.0
C1213 C 0.12018 0.89269 0.67495 0.0
C1214 C 0.08819 0.87834 0.65145 0.0
H1215 H 0.27164 0.14255 0.65184 0.0
H1216 H 0.29658 0.14512 0.75613 0.0
H1217 H 0.2571 0.17967 0.76689 0.0
H1218 H 0.26418 0.23642 0.64106 0.0
H1219 H 0.22082 0.2087 0.61484 0.0
H1220 H 0.25822 0.19261 0.61828 0.0
H1221 H 0.19319 0.12095 0.63262 0.0
H1222 H 0.16036 0.14285 0.6339 0.0
H1223 H 0.16481 0.11689 0.6694 0.0
H1224 H 0.21997 0.21807 0.76656 0.0
H1225 H 0.18189 0.25408 0.75565 0.0
H1226 H 0.17174 0.22058 0.65266 0.0
C1227 C 0.26937 0.15129 0.67676 0.0
C1228 C 0.2891 0.14323 0.7031 0.0
C1229 C 0.28313 0.15249 0.73559 0.0
C1230 C 0.26055 0.1719 0.74195 0.0
C1231 C 0.24206 0.18009 0.71569 0.0
C1232 C 0.24523 0.16938 0.68377 0.0
C1233 C 0.21795 0.17769 0.661 0.0
C1234 C 0.24186 0.20546 0.6321 0.0
C1235 C 0.18195 0.13719 0.64849 0.0
C1236 C 0.203 0.19887 0.68452 0.0
C1237 C 0.21668 0.19891 0.71606 0.0
C1238 C 0.20863 0.21782 0.74206 0.0
C1239 C 0.18698 0.23823 0.73563 0.0
C1240 C 0.17352 0.23985 0.70346 0.0
C1241 C 0.18094 0.21914 0.67762 0.0
H1242 H 0.07515 0.39347 0.24956 0.0
H1243 H 0.1985 0.41768 0.2315 0.0
H1244 H 0.19823 0.44886 0.17771 0.0
H1245 H 0.03815 0.36441 0.16991 0.0
H1246 H 1.00608 0.38735 0.17115 0.0
H1247 H 1.01816 0.37021 0.20844 0.0
H1248 H 0.04693 0.44229 0.23344 0.0
H1249 H 0.03523 0.45988 0.19601 0.0
H1250 H 0.08666 0.4859 0.21215 0.0
H1251 H 0.18295 0.47884 0.12491 0.0
H1252 H 0.15109 0.49251 0.07672 0.0
H1253 H 0.03692 0.44368 0.1299 0.0
C1254 C 0.10238 0.40544 0.23451 0.0
C1255 C 0.1369 0.40302 0.24494 0.0
C1256 C 0.17151 0.41875 0.22404 0.0
C1257 C 0.17176 0.43699 0.1936 0.0
C1258 C 0.13719 0.43931 0.1844 0.0
C1259 C 0.10305 0.42346 0.20434 0.0
C1260 C 0.06864 0.42704 0.18861 0.0
C1261 C 0.03048 0.3847 0.18422 0.0
C1262 C 0.0588 0.45547 0.20876 0.0
C1263 C 0.0879 0.44616 0.15598 0.0
C1264 C 0.12793 0.45437 0.15423 0.0
C1265 C 0.15162 0.47235 0.1262 0.0
C1266 C 0.13341 0.48039 0.09898 0.0
C1267 C 0.0916 0.46932 0.09961 0.0
C1268 C 0.06911 0.45297 0.12886 0.0
H1269 H 0.63262 0.6835 0.25219 0.0
H1270 H 0.68651 0.80794 0.21646 0.0
H1271 H 0.66209 0.78162 0.16052 0.0
H1272 H 0.65867 0.64362 0.18687 0.0
H1273 H 0.61217 0.59489 0.18431 0.0
H1274 H 0.62818 0.62153 0.22299 0.0
H1275 H 0.56083 0.6214 0.23018 0.0
H1276 H 0.54216 0.59263 0.19253 0.0
H1277 H 0.542 0.63991 0.1976 0.0
H1278 H 0.63654 0.74163 0.10758 0.0
H1279 H 0.61541 0.69236 0.0622 0.0
H1280 H 0.57642 0.5932 0.13137 0.0
C1281 C 0.63914 0.70549 0.23278 0.0
C1282 C 0.66171 0.74821 0.23918 0.0
C1283 C 0.66926 0.77536 0.21271 0.0
C1284 C 0.65536 0.76055 0.18069 0.0
C1285 C 0.6334 0.71837 0.1754 0.0
C1286 C 0.62524 0.69122 0.20078 0.0
C1287 C 0.6026 0.64733 0.18839 0.0
C1288 C 0.62684 0.62555 0.19604 0.0
C1289 C 0.55933 0.62394 0.20305 0.0
C1290 C 0.60083 0.65403 0.15171 0.0
C1291 C 0.61794 0.69523 0.14493 0.0
C1292 C 0.62172 0.70927 0.11279 0.0
C1293 C 0.60849 0.68078 0.08697 0.0
C1294 C 0.59098 0.63845 0.09301 0.0
C1295 C 0.5873 0.62505 0.12599 0.0
H1296 H 0.45178 0.02769 0.13248 0.0
H1297 H 0.38969 0.91162 0.08146 0.0
H1298 H 0.34489 0.88017 0.12994 0.0
H1299 H 0.44787 0.98124 0.21507 0.0
H1300 H 0.44253 0.02031 0.23606 0.0
H1301 H 0.47098 0.03205 0.19821 0.0
H1302 H 0.42468 0.0577 0.17345 0.0
H1303 H 0.39612 0.04567 0.21107 0.0
H1304 H 0.3698 0.02394 0.17297 0.0
H1305 H 0.30023 0.86477 0.18227 0.0
H1306 H 0.26871 0.86398 0.23603 0.0
H1307 H 0.36485 0.98881 0.25344 0.0
C1308 C 0.42963 0.99532 0.13199 0.0
C1309 C 0.42426 0.97197 0.10335 0.0
C1310 C 0.39461 0.92988 0.10333 0.0
C1311 C 0.36883 0.91189 0.13068 0.0
C1312 C 0.37398 0.93616 0.15823 0.0
C1313 C 0.40469 0.97667 0.15941 0.0
C1314 C 0.40447 0.99618 0.19191 0.0
C1315 C 0.44379 1.00814 0.21147 0.0
C1316 C 0.3984 0.03308 0.18698 0.0
C1317 C 0.36753 0.96118 0.20814 0.0
C1318 C 0.35012 0.92671 0.18851 0.0
C1319 C 0.31415 0.89148 0.19796 0.0
C1320 C 0.29612 0.89143 0.22838 0.0
C1321 C 0.31416 0.92631 0.24906 0.0
C1322 C 0.35032 0.96145 0.2385 0.0
H1323 H 0.41262 0.04802 0.91299 0.0
H1324 H 0.53771 0.07652 0.89707 0.0
H1325 H 0.53711 0.10705 0.84279 0.0
H1326 H 0.37634 0.02049 0.8322 0.0
H1327 H 0.34382 0.04283 0.8351 0.0
H1328 H 0.35614 0.02411 0.87136 0.0
H1329 H 0.38359 0.09511 0.8984 0.0
H1330 H 0.3722 0.11418 0.86168 0.0
H1331 H 0.42339 0.13982 0.87829 0.0
H1332 H 0.52102 0.1378 0.7896 0.0
H1333 H 0.48914 0.15388 0.74264 0.0
H1334 H 0.37483 0.10188 0.79589 0.0
C1335 C 0.44012 0.06043 0.89827 0.0
C1336 C 0.47527 0.05971 0.90953 0.0
C1337 C 0.51021 0.07621 0.88896 0.0
C1338 C 0.51022 0.09409 0.85826 0.0
C1339 C 0.47511 0.09531 0.84858 0.0
C1340 C 0.44068 0.07836 0.86817 0.0
C1341 C 0.40621 0.08216 0.85293 0.0
C1342 C 0.36838 0.03984 0.84753 0.0
C1343 C 0.39575 0.10944 0.87409 0.0
C1344 C 0.42566 0.10277 0.82083 0.0
C1345 C 0.46581 0.11131 0.81883 0.0
C1346 C 0.48959 0.13094 0.79115 0.0
C1347 C 0.47137 0.14037 0.76464 0.0
C1348 C 0.42953 0.12927 0.76563 0.0
C1349 C 0.40699 0.11113 0.79451 0.0
H1350 H 1.00253 0.36335 0.91606 0.0
H1351 H 0.97257 0.45807 0.89635 0.0
H1352 H 0.94076 0.42382 0.84323 0.0
H1353 H 0.03081 0.35317 0.83766 0.0
H1354 H 1.00923 0.29842 0.84085 0.0
H1355 H 1.02619 0.32963 0.87711 0.0
H1356 H 0.95423 0.28515 0.90237 0.0
H1357 H 0.93708 0.25439 0.86559 0.0
H1358 H 0.90986 0.27895 0.88059 0.0
H1359 H 0.91044 0.37563 0.79172 0.0
H1360 H 0.89775 0.32916 0.74488 0.0
H1361 H 0.95383 0.27112 0.79854 0.0
C1362 C 0.98921 0.37718 0.90087 0.0
C1363 C 0.99021 0.41364 0.9106 0.0
C1364 C 0.9726 0.43043 0.88944 0.0
C1365 C 0.95399 0.41081 0.85941 0.0
C1366 C 0.9531 0.37437 0.85103 0.0
C1367 C 0.97069 0.35816 0.87129 0.0
C1368 C 0.96832 0.32028 0.85663 0.0
C1369 C 1.01124 0.32576 0.85278 0.0
C1370 C 0.94073 0.28246 0.87754 0.0
C1371 C 0.94862 0.31851 0.82378 0.0
C1372 C 0.93839 0.34883 0.82142 0.0
C1373 C 0.91888 0.35224 0.7934 0.0
C1374 C 0.91163 0.32549 0.76675 0.0
C1375 C 0.92524 0.29673 0.76761 0.0
C1376 C 0.9429 0.29266 0.79704 0.0
H1377 H 0.78869 0.69013 0.79451 0.0
H1378 H 0.72856 0.57459 0.7426 0.0
H1379 H 0.68292 0.54238 0.79056 0.0
H1380 H 0.78332 0.64381 0.87673 0.0
H1381 H 0.77585 0.68127 0.8982 0.0
H1382 H 0.80588 0.69504 0.86108 0.0
H1383 H 0.76027 0.71949 0.83443 0.0
H1384 H 0.73047 0.70726 0.87136 0.0
H1385 H 0.70538 0.6854 0.83287 0.0
H1386 H 0.63705 0.52598 0.8429 0.0
H1387 H 0.60424 0.52485 0.89621 0.0
H1388 H 0.69755 0.65087 0.91312 0.0
C1389 C 0.76686 0.65768 0.79368 0.0
C1390 C 0.76233 0.63481 0.76484 0.0
C1391 C 0.733 0.59258 0.76455 0.0
C1392 C 0.70668 0.57415 0.79163 0.0
C1393 C 0.71087 0.59808 0.81924 0.0
C1394 C 0.74125 0.6387 0.82073 0.0
C1395 C 0.73976 0.65807 0.85297 0.0
C1396 C 0.77847 0.67025 0.87348 0.0
C1397 C 0.7336 0.69477 0.8475 0.0
C1398 C 0.70236 0.62299 0.86859 0.0
C1399 C 0.68602 0.58839 0.84912 0.0
C1400 C 0.65015 0.55287 0.85841 0.0
C1401 C 0.63134 0.55261 0.88855 0.0
C1402 C 0.64832 0.5877 0.909 0.0
C1403 C 0.6839 0.62334 0.89832 0.0
H1404 H 0.71111 0.77623 0.46107 0.0
H1405 H 0.82267 0.82032 0.40498 0.0
H1406 H 0.85521 0.80594 0.4523 0.0
H1407 H 0.76662 0.82143 0.54086 0.0
H1408 H 0.72693 0.78023 0.56424 0.0
H1409 H 0.71435 0.7967 0.52664 0.0
H1410 H 0.68077 0.72262 0.50385 0.0
H1411 H 0.69297 0.70667 0.54169 0.0
H1412 H 0.71049 0.69702 0.50345 0.0
H1413 H 0.87118 0.77578 0.50536 0.0
H1414 H 0.87214 0.74557 0.55958 0.0
H1415 H 0.75177 0.72825 0.58032 0.0
C1416 C 0.74284 0.78409 0.4591 0.0
C1417 C 0.76422 0.7991 0.42919 0.0
C1418 C 0.80563 0.80879 0.42758 0.0
C1419 C 0.82429 0.80048 0.45437 0.0
C1420 C 0.80167 0.78396 0.48314 0.0
C1421 C 0.76228 0.77746 0.48592 0.0
C1422 C 0.74449 0.76062 0.51945 0.0
C1423 C 0.73771 0.7916 0.53895 0.0
C1424 C 0.70477 0.71925 0.51687 0.0
C1425 C 0.77859 0.75585 0.53434 0.0
C1426 C 0.81162 0.76951 0.51342 0.0
C1427 C 0.84557 0.76567 0.52199 0.0
C1428 C 0.84575 0.74806 0.55274 0.0
C1429 C 0.81213 0.73437 0.57453 0.0
C1430 C 0.77834 0.73851 0.56471 0.0
H1431 H 0.26889 0.93673 0.46859 0.0
H1432 H 0.23497 1.00994 0.40907 0.0
H1433 H 0.25156 0.05831 0.4556 0.0
H1434 H 0.22417 0.95431 0.54662 0.0
H1435 H 0.26239 0.95192 0.57156 0.0
H1436 H 0.2443 0.92195 0.53445 0.0
H1437 H 0.31944 0.95567 0.51232 0.0
H1438 H 0.33578 0.98283 0.55061 0.0
H1439 H 0.35006 1.01092 0.51276 0.0
H1440 H 0.28369 0.10496 0.50847 0.0
H1441 H 0.316 0.13649 0.56225 0.0
H1442 H 0.32267 0.02796 0.58538 0.0
C1443 C 0.26368 0.96223 0.46567 0.0
C1444 C 0.25133 0.96992 0.43496 0.0
C1445 C 0.24479 1.00359 0.43222 0.0
C1446 C 0.25425 0.03132 0.45859 0.0
C1447 C 0.26841 0.02394 0.48815 0.0
C1448 C 0.27135 0.98909 0.49207 0.0
C1449 C 0.28628 0.98717 0.5262 0.0
C1450 C 0.25225 0.95174 0.54586 0.0
C1451 C 0.3252 0.98389 0.52531 0.0
C1452 C 0.29505 0.02797 0.53981 0.0
C1453 C 0.28409 0.04886 0.51812 0.0
C1454 C 0.29172 0.08831 0.5257 0.0
C1455 C 0.31054 0.10629 0.5562 0.0
C1456 C 0.32211 0.08507 0.57852 0.0
C1457 C 0.31404 0.04544 0.56962 0.0
H1458 H 0.9454 0.25481 0.54769 0.0
H1459 H 0.03099 0.23777 0.6069 0.0
H1460 H 0.07084 0.24267 0.55737 0.0
H1461 H 0.95501 0.20081 0.47088 0.0
H1462 H 0.951 0.23663 0.44417 0.0
H1463 H 0.9242 0.22277 0.4829 0.0
H1464 H 0.95989 0.29929 0.50029 0.0
H1465 H 0.98439 0.31124 0.46099 0.0
H1466 H 1.015 0.32966 0.49791 0.0
H1467 H 0.10676 0.25846 0.50178 0.0
H1468 H 0.13621 0.28745 0.44709 0.0
H1469 H 0.02984 0.29882 0.42566 0.0
C1470 C 0.97157 0.25048 0.54989 0.0
C1471 C 0.98499 0.24568 0.58107 0.0
C1472 C 1.02021 0.2415 0.58321 0.0
C1473 C 0.04294 0.24396 0.55512 0.0
C1474 C 0.03004 0.2504 0.52475 0.0
C1475 C 0.99488 0.25316 0.52194 0.0
C1476 C 0.99023 0.26463 0.4872 0.0
C1477 C 0.95289 0.22909 0.4703 0.0
C1478 C 0.9873 0.30365 0.48672 0.0
C1479 C 0.02977 0.27133 0.47179 0.0
C1480 C 0.05155 0.26118 0.49329 0.0
C1481 C 0.08966 0.26604 0.48461 0.0
C1482 C 0.10623 0.28251 0.45348 0.0
C1483 C 0.08537 0.29522 0.43191 0.0
C1484 C 0.04641 0.28888 0.44127 0.0
loop_
_geom_bond_atom_site_label_1
_geom_bond_atom_site_label_2
_geom_bond_distance
_geom_bond_site_symmetry_2
_ccdc_geom_bond_type
Gd0 N31 2.661 1_654 S
Gd0 N37 2.622 . S
Gd0 O44 2.545 . S
Gd0 O45 2.614 . S
Gd0 O47 2.429 1_655 S
Gd0 O48 2.545 . S
Gd0 O49 2.412 1_554 S
Gd0 O51 2.362 1_655 S
Gd0 O52 2.324 1_554 S
Gd0 C59 2.828 . S
Gd1 N10 2.661 1_556 S
Gd1 N14 2.601 . S
Gd1 O45 2.355 1_456 S
Gd1 O46 2.324 1_556 S
Gd1 O50 2.545 . S
Gd1 O51 2.606 1_556 S
Gd1 O53 2.429 . S
Gd1 O54 2.545 . S
Gd1 O55 2.412 1_556 S
Gd1 C68 2.828 . S
C2 C5 1.417 1_554 S
C2 C7 1.431 1_554 S
C2 C8 1.412 . S
C3 C6 1.437 . S
C3 C7 1.317 . S
C3 H22 0.929 . S
C4 C5 1.432 . S
C4 C6 1.431 . S
C4 N14 1.337 1_655 S
C5 C2 1.417 1_556 S
C5 C4 1.432 . S
C5 N10 1.350 1_656 S
C6 C3 1.437 . S
C6 C4 1.431 . S
C6 C16 1.391 . S
C7 C2 1.431 1_556 S
C7 C3 1.317 . S
C7 H18 0.930 . S
C8 C2 1.412 . S
C8 C9 1.355 . S
C8 H20 0.930 . S
C9 C8 1.355 . S
C9 C11 1.402 . S
C9 H21 0.930 . S
N10 Gd1 2.661 1_554 S
N10 C5 1.350 1_454 S
N10 C11 1.307 1_455 S
C11 C9 1.402 . S
C11 N10 1.307 1_655 S
C11 H12 0.910 1_655 S
H12 C11 0.910 1_455 S
C13 N14 1.334 . S
C13 C15 1.394 . S
C13 H17 0.930 . S
N14 Gd1 2.601 . S
N14 C4 1.337 1_455 S
N14 C13 1.334 . S
C15 C13 1.394 . S
C15 C16 1.359 1_455 S
C15 H27 0.930 . S
C16 C6 1.391 . S
C16 C15 1.359 1_655 S
C16 H28 0.929 . S
H17 C13 0.930 . S
H18 C7 0.930 . S
H19 C36 0.930 . S
H20 C8 0.930 . S
H21 C9 0.930 . S
H22 C3 0.929 . S
H23 C41 0.930 . S
H24 C32 0.930 . S
H25 C33 0.930 . S
H26 C57 0.929 . S
H27 C15 0.930 . S
H28 C16 0.929 . S
H29 C58 0.930 . S
H30 C39 0.930 . S
N31 Gd0 2.661 1_456 S
N31 C35 1.350 1_556 S
N31 C36 1.307 . S
C32 H24 0.930 . S
C32 C33 1.355 . S
C32 C34 1.412 . S
C33 H25 0.930 . S
C33 C32 1.355 . S
C33 C36 1.402 . S
C34 C32 1.412 . S
C34 C35 1.417 1_556 S
C34 C58 1.431 1_556 S
C35 N31 1.350 1_554 S
C35 C34 1.417 1_554 S
C35 C38 1.426 . S
C36 H19 0.930 . S
C36 N31 1.307 . S
C36 C33 1.402 . S
N37 Gd0 2.622 . S
N37 C38 1.335 1_655 S
N37 C41 1.341 . S
C38 C35 1.426 . S
C38 N37 1.335 1_455 S
C38 C42 1.413 . S
C39 H30 0.930 . S
C39 C40 1.359 1_655 S
C39 C41 1.394 . S
C40 C39 1.359 1_455 S
C40 C42 1.391 . S
C40 H43 0.929 . S
C41 H23 0.930 . S
C41 N37 1.341 . S
C41 C39 1.394 . S
C42 C38 1.413 . S
C42 C40 1.391 . S
C42 C57 1.437 . S
H43 C40 0.929 . S
O44 Gd0 2.545 . S
O44 C59 1.258 . S
O45 Gd0 2.614 . S
O45 Gd1 2.355 1_654 S
O45 C56 1.292 . S
O46 Gd1 2.324 1_554 S
O46 C66 1.254 . S
O47 Gd0 2.429 1_455 S
O47 C66 1.268 . S
O48 Gd0 2.545 . S
O48 C56 1.250 . S
O49 Gd0 2.412 1_556 S
O49 C59 1.252 1_556 S
O50 Gd1 2.545 . S
O50 C68 1.258 . S
O51 Gd0 2.362 1_455 S
O51 Gd1 2.606 1_554 S
O51 C67 1.284 1_554 S
O52 Gd0 2.324 1_556 S
O52 C75 1.254 . S
O53 Gd1 2.429 . S
O53 C75 1.268 1_455 S
O54 Gd1 2.545 . S
O54 C67 1.250 . S
O55 Gd1 2.412 1_554 S
O55 C68 1.252 1_554 S
C56 O45 1.292 . S
C56 O48 1.250 . S
C57 H26 0.929 . S
C57 C42 1.437 . S
C57 C58 1.317 . S
C58 H29 0.930 . S
C58 C34 1.431 1_554 S
C58 C57 1.317 . S
C59 Gd0 2.828 . S
C59 O44 1.258 . S
C59 O49 1.252 1_554 S
C59 C60 1.497 . S
C60 C59 1.497 . S
C60 C61 1.395 . S
C60 C62 1.380 1_554 S
C61 C60 1.395 . S
C61 C64 1.398 . S
C61 H76 0.930 . S
C62 C60 1.380 1_556 S
C62 C63 1.391 . S
C62 H77 0.930 . S
C63 C62 1.391 . S
C63 C65 1.387 1_556 S
C64 C61 1.398 . S
C64 C65 1.380 . S
C64 H78 0.930 . S
C65 C63 1.387 1_554 S
C65 C64 1.380 . S
C65 H79 0.930 . S
C66 O46 1.254 . S
C66 O47 1.268 . S
C67 O51 1.284 1_556 S
C67 O54 1.250 . S
C68 Gd1 2.828 . S
C68 O50 1.258 . S
C68 O55 1.252 1_556 S
C68 C69 1.497 . S
C69 C68 1.497 . S
C69 C70 1.395 . S
C69 C71 1.380 1_556 S
C70 C69 1.395 . S
C70 C73 1.398 . S
C70 H80 0.930 . S
C71 C69 1.380 1_554 S
C71 C72 1.391 . S
C71 H81 0.930 . S
C72 C71 1.391 . S
C72 C74 1.387 1_554 S
C73 C70 1.398 . S
C73 C74 1.380 . S
C73 H82 0.930 . S
C74 C72 1.387 1_556 S
C74 C73 1.380 . S
C74 H83 0.930 . S
C75 O52 1.254 . S
C75 O53 1.268 1_655 S
H76 C61 0.930 . S
H77 C62 0.930 . S
H78 C64 0.930 . S
H79 C65 0.930 . S
H80 C70 0.930 . S
H81 C71 0.930 . S
H82 C73 0.930 . S
H83 C74 0.930 . S
Gd84 N115 2.661 1_554 S
Gd84 N121 2.601 . S
Gd84 O128 2.545 . S
Gd84 O129 2.614 . S
Gd84 O131 2.429 . S
Gd84 O132 2.545 . S
Gd84 O133 2.412 1_554 S
Gd84 O135 2.362 . S
Gd84 O136 2.324 1_554 S
Gd84 C143 2.828 . S
Gd85 N94 2.661 1_556 S
Gd85 N98 2.601 . S
Gd85 O129 2.355 1_556 S
Gd85 O130 2.324 1_556 S
Gd85 O134 2.545 . S
Gd85 O135 2.606 1_556 S
Gd85 O137 2.429 . S
Gd85 O138 2.545 . S
Gd85 O139 2.412 1_556 S
Gd85 C152 2.828 . S
C86 C89 1.417 1_554 S
C86 C91 1.431 1_554 S
C86 C92 1.412 . S
C87 C90 1.437 . S
C87 C91 1.317 . S
C87 H106 0.929 . S
C88 C89 1.426 . S
C88 C90 1.413 . S
C88 N98 1.359 . S
C89 C86 1.417 1_556 S
C89 C88 1.426 . S
C89 N94 1.350 1_556 S
C90 C87 1.437 . S
C90 C88 1.413 . S
C90 C100 1.391 . S
C91 C86 1.431 1_556 S
C91 C87 1.317 . S
C91 H102 0.930 . S
C92 C86 1.412 . S
C92 C93 1.355 . S
C92 H104 0.930 . S
C93 C92 1.355 . S
C93 C95 1.402 . S
C93 H105 0.930 . S
N94 Gd85 2.661 1_554 S
N94 C89 1.350 1_554 S
N94 C95 1.307 . S
C95 C93 1.402 . S
C95 N94 1.307 . S
C95 H96 0.930 . S
H96 C95 0.930 . S
C97 N98 1.334 . S
C97 C99 1.394 . S
C97 H101 0.930 . S
N98 Gd85 2.601 . S
N98 C88 1.359 . S
N98 C97 1.334 . S
C99 C97 1.394 . S
C99 C100 1.359 . S
C99 H111 0.930 . S
C100 C90 1.391 . S
C100 C99 1.359 . S
C100 H112 0.929 . S
H101 C97 0.930 . S
H102 C91 0.930 . S
H103 C120 0.930 . S
H104 C92 0.930 . S
H105 C93 0.930 . S
H106 C87 0.929 . S
H107 C125 0.930 . S
H108 C116 0.930 . S
H109 C117 0.930 . S
H110 C141 0.929 . S
H111 C99 0.930 . S
H112 C100 0.929 . S
H113 C142 0.930 . S
H114 C123 0.930 . S
N115 Gd84 2.661 1_556 S
N115 C119 1.350 1_556 S
N115 C120 1.307 . S
C116 H108 0.930 . S
C116 C117 1.355 . S
C116 C118 1.412 . S
C117 H109 0.930 . S
C117 C116 1.355 . S
C117 C120 1.402 . S
C118 C116 1.412 . S
C118 C119 1.417 1_556 S
C118 C142 1.431 1_556 S
C119 N115 1.350 1_554 S
C119 C118 1.417 1_554 S
C119 C122 1.426 . S
C120 H103 0.930 . S
C120 N115 1.307 . S
C120 C117 1.402 . S
N121 Gd84 2.601 . S
N121 C122 1.359 . S
N121 C125 1.334 . S
C122 C119 1.426 . S
C122 N121 1.359 . S
C122 C126 1.413 . S
C123 H114 0.930 . S
C123 C124 1.359 . S
C123 C125 1.394 . S
C124 C123 1.359 . S
C124 C126 1.391 . S
C124 H127 0.929 . S
C125 H107 0.930 . S
C125 N121 1.334 . S
C125 C123 1.394 . S
C126 C122 1.413 . S
C126 C124 1.391 . S
C126 C141 1.437 . S
H127 C124 0.929 . S
O128 Gd84 2.545 . S
O128 C143 1.258 . S
O129 Gd84 2.614 . S
O129 Gd85 2.355 1_554 S
O129 C140 1.292 . S
O130 Gd85 2.324 1_554 S
O130 C150 1.254 . S
O131 Gd84 2.429 . S
O131 C150 1.268 . S
O132 Gd84 2.545 . S
O132 C140 1.250 . S
O133 Gd84 2.412 1_556 S
O133 C143 1.252 1_556 S
O134 Gd85 2.545 . S
O134 C152 1.258 . S
O135 Gd84 2.362 . S
O135 Gd85 2.606 1_554 S
O135 C151 1.284 1_554 S
O136 Gd84 2.324 1_556 S
O136 C159 1.254 . S
O137 Gd85 2.429 . S
O137 C159 1.268 . S
O138 Gd85 2.545 . S
O138 C151 1.250 . S
O139 Gd85 2.412 1_554 S
O139 C152 1.252 1_554 S
C140 O129 1.292 . S
C140 O132 1.250 . S
C141 H110 0.929 . S
C141 C126 1.437 . S
C141 C142 1.317 . S
C142 H113 0.930 . S
C142 C118 1.431 1_554 S
C142 C141 1.317 . S
C143 Gd84 2.828 . S
C143 O128 1.258 . S
C143 O133 1.252 1_554 S
C143 C144 1.497 . S
C144 C143 1.497 . S
C144 C145 1.395 . S
C144 C146 1.380 1_554 S
C145 C144 1.395 . S
C145 C148 1.398 . S
C145 H160 0.930 . S
C146 C144 1.380 1_556 S
C146 C147 1.391 . S
C146 H161 0.930 . S
C147 C146 1.391 . S
C147 C149 1.387 1_556 S
C148 C145 1.398 . S
C148 C149 1.380 . S
C148 H162 0.930 . S
C149 C147 1.387 1_554 S
C149 C148 1.380 . S
C149 H163 0.930 . S
C150 O130 1.254 . S
C150 O131 1.268 . S
C151 O135 1.284 1_556 S
C151 O138 1.250 . S
C152 Gd85 2.828 . S
C152 O134 1.258 . S
C152 O139 1.252 1_556 S
C152 C153 1.497 . S
C153 C152 1.497 . S
C153 C154 1.395 . S
C153 C155 1.380 1_556 S
C154 C153 1.395 . S
C154 C157 1.398 . S
C154 H164 0.930 . S
C155 C153 1.380 1_554 S
C155 C156 1.391 . S
C155 H165 0.930 . S
C156 C155 1.391 . S
C156 C158 1.387 1_554 S
C157 C154 1.398 . S
C157 C158 1.380 . S
C157 H166 0.930 . S
C158 C156 1.387 1_556 S
C158 C157 1.380 . S
C158 H167 0.930 . S
C159 O136 1.254 . S
C159 O137 1.268 . S
H160 C145 0.930 . S
H161 C146 0.930 . S
H162 C148 0.930 . S
H163 C149 0.930 . S
H164 C154 0.930 . S
H165 C155 0.930 . S
H166 C157 0.930 . S
H167 C158 0.930 . S
Gd168 N199 2.661 1_554 S
Gd168 N205 2.601 . S
Gd168 O212 2.545 . S
Gd168 O213 2.614 . S
Gd168 O215 2.429 . S
Gd168 O216 2.545 . S
Gd168 O217 2.412 1_554 S
Gd168 O219 2.362 1_545 S
Gd168 O220 2.324 1_554 S
Gd168 C227 2.828 . S
Gd169 N178 2.661 1_566 S
Gd169 N182 2.601 . S
Gd169 O213 2.355 1_566 S
Gd169 O214 2.324 1_556 S
Gd169 O218 2.545 . S
Gd169 O219 2.606 1_556 S
Gd169 O221 2.419 1_565 S
Gd169 O222 2.545 . S
Gd169 O223 2.412 1_556 S
Gd169 C236 2.828 . S
C170 C173 1.417 1_554 S
C170 C175 1.431 1_554 S
C170 C176 1.412 . S
C171 C174 1.437 . S
C171 C175 1.317 . S
C171 H190 0.929 . S
C172 C173 1.426 . S
C172 C174 1.413 . S
C172 N182 1.359 1_545 S
C173 C170 1.417 1_556 S
C173 C172 1.426 . S
C173 N178 1.350 1_556 S
C174 C171 1.437 . S
C174 C172 1.413 . S
C174 C184 1.391 . S
C175 C170 1.431 1_556 S
C175 C171 1.317 . S
C175 H186 0.930 . S
C176 C170 1.412 . S
C176 C177 1.355 . S
C176 H188 0.930 . S
C177 C176 1.355 . S
C177 C179 1.402 . S
C177 H189 0.930 . S
N178 Gd169 2.661 1_544 S
N178 C173 1.350 1_554 S
N178 C179 1.307 . S
C179 C177 1.402 . S
C179 N178 1.307 . S
C179 H180 0.930 . S
H180 C179 0.930 . S
C181 N182 1.334 . S
C181 C183 1.394 . S
C181 H185 0.930 . S
N182 Gd169 2.601 . S
N182 C172 1.359 1_565 S
N182 C181 1.334 . S
C183 C181 1.394 . S
C183 C184 1.359 1_565 S
C183 H195 0.930 . S
C184 C174 1.391 . S
C184 C183 1.359 1_545 S
C184 H196 0.929 . S
H185 C181 0.930 . S
H186 C175 0.930 . S
H187 C204 0.931 1_545 S
H188 C176 0.930 . S
H189 C177 0.930 . S
H190 C171 0.929 . S
H191 C209 0.930 . S
H192 C200 0.930 . S
H193 C201 0.930 . S
H194 C225 0.929 . S
H195 C183 0.930 . S
H196 C184 0.929 . S
H197 C226 0.930 . S
H198 C207 0.930 . S
N199 Gd168 2.661 1_556 S
N199 C203 1.350 1_546 S
N199 C204 1.307 1_545 S
C200 H192 0.930 . S
C200 C201 1.355 . S
C200 C202 1.412 . S
C201 H193 0.930 . S
C201 C200 1.355 . S
C201 C204 1.402 . S
C202 C200 1.412 . S
C202 C203 1.417 1_556 S
C202 C226 1.431 1_556 S
C203 N199 1.350 1_564 S
C203 C202 1.417 1_554 S
C203 C206 1.426 . S
C204 H187 0.931 1_565 S
C204 N199 1.307 1_565 S
C204 C201 1.402 . S
N205 Gd168 2.601 . S
N205 C206 1.359 1_545 S
N205 C209 1.334 . S
C206 C203 1.426 . S
C206 N205 1.359 1_565 S
C206 C210 1.413 . S
C207 H198 0.930 . S
C207 C208 1.359 1_545 S
C207 C209 1.394 . S
C208 C207 1.359 1_565 S
C208 C210 1.391 . S
C208 H211 0.929 . S
C209 H191 0.930 . S
C209 N205 1.334 . S
C209 C207 1.394 . S
C210 C206 1.413 . S
C210 C208 1.391 . S
C210 C225 1.437 . S
H211 C208 0.929 . S
O212 Gd168 2.545 . S
O212 C227 1.258 . S
O213 Gd168 2.614 . S
O213 Gd169 2.355 1_544 S
O213 C224 1.292 . S
O214 Gd169 2.324 1_554 S
O214 C234 1.254 . S
O215 Gd168 2.429 . S
O215 C234 1.268 1_545 S
O216 Gd168 2.545 . S
O216 C224 1.250 . S
O217 Gd168 2.412 1_556 S
O217 C227 1.252 1_556 S
O218 Gd169 2.545 . S
O218 C236 1.258 . S
O219 Gd168 2.362 1_565 S
O219 Gd169 2.606 1_554 S
O219 C235 1.284 1_554 S
O220 Gd168 2.324 1_556 S
O220 C243 1.254 . S
O221 Gd169 2.419 1_545 S
O221 C243 1.288 . S
O222 Gd169 2.545 . S
O222 C235 1.250 . S
O223 Gd169 2.412 1_554 S
O223 C236 1.252 1_554 S
C224 O213 1.292 . S
C224 O216 1.250 . S
C225 H194 0.929 . S
C225 C210 1.437 . S
C225 C226 1.317 . S
C226 H197 0.930 . S
C226 C202 1.431 1_554 S
C226 C225 1.317 . S
C227 Gd168 2.828 . S
C227 O212 1.258 . S
C227 O217 1.252 1_554 S
C227 C228 1.497 . S
C228 C227 1.497 . S
C228 C229 1.395 . S
C228 C230 1.380 1_554 S
C229 C228 1.395 . S
C229 C232 1.398 . S
C229 H244 0.930 . S
C230 C228 1.380 1_556 S
C230 C231 1.391 . S
C230 H245 0.930 . S
C231 C230 1.391 . S
C231 C233 1.387 1_556 S
C232 C229 1.398 . S
C232 C233 1.380 . S
C232 H246 0.930 . S
C233 C231 1.387 1_554 S
C233 C232 1.380 . S
C233 H247 0.930 . S
C234 O214 1.254 . S
C234 O215 1.268 1_565 S
C235 O219 1.284 1_556 S
C235 O222 1.250 . S
C236 Gd169 2.828 . S
C236 O218 1.258 . S
C236 O223 1.252 1_556 S
C236 C237 1.497 . S
C237 C236 1.497 . S
C237 C238 1.395 . S
C237 C239 1.380 1_556 S
C238 C237 1.395 . S
C238 C241 1.398 . S
C238 H248 0.930 . S
C239 C237 1.380 1_554 S
C239 C240 1.391 . S
C239 H249 0.930 . S
C240 C239 1.391 . S
C240 C242 1.387 1_554 S
C241 C238 1.398 . S
C241 C242 1.380 . S
C241 H250 0.930 . S
C242 C240 1.387 1_556 S
C242 C241 1.380 . S
C242 H251 0.930 . S
C243 O220 1.254 . S
C243 O221 1.288 . S
H244 C229 0.930 . S
H245 C230 0.930 . S
H246 C232 0.930 . S
H247 C233 0.930 . S
H248 C238 0.930 . S
H249 C239 0.930 . S
H250 C241 0.930 . S
H251 C242 0.930 . S
Gd252 N283 2.661 . S
Gd252 N289 2.601 . S
Gd252 O296 2.545 . S
Gd252 O297 2.606 . S
Gd252 O299 2.429 . S
Gd252 O300 2.545 . S
Gd252 O301 2.412 . S
Gd252 O303 2.362 . S
Gd252 O304 2.324 . S
Gd252 C311 2.828 . S
Gd253 N262 2.661 . S
Gd253 N266 2.601 . S
Gd253 O297 2.362 . S
Gd253 O298 2.324 . S
Gd253 O302 2.545 . S
Gd253 O303 2.606 . S
Gd253 O305 2.429 . S
Gd253 O306 2.545 . S
Gd253 O307 2.412 . S
Gd253 C320 2.828 . S
C254 C257 1.417 . S
C254 C259 1.431 . S
C254 C260 1.412 . S
C255 C258 1.437 . S
C255 C259 1.317 . S
C255 H274 0.929 . S
C256 C257 1.426 . S
C256 C258 1.413 . S
C256 N266 1.359 . S
C257 C254 1.417 . S
C257 C256 1.426 . S
C257 N262 1.350 . S
C258 C255 1.437 . S
C258 C256 1.413 . S
C258 C268 1.391 . S
C259 C254 1.431 . S
C259 C255 1.317 . S
C259 H270 0.930 . S
C260 C254 1.412 . S
C260 C261 1.355 . S
C260 H272 0.930 . S
C261 C260 1.355 . S
C261 C263 1.402 . S
C261 H273 0.930 . S
N262 Gd253 2.661 . S
N262 C257 1.350 . S
N262 C263 1.307 . S
C263 C261 1.402 . S
C263 N262 1.307 . S
C263 H264 0.930 . S
H264 C263 0.930 . S
C265 N266 1.334 . S
C265 C267 1.394 . S
C265 H269 0.930 . S
N266 Gd253 2.601 . S
N266 C256 1.359 . S
N266 C265 1.334 . S
C267 C265 1.394 . S
C267 C268 1.359 . S
C267 H279 0.930 . S
C268 C258 1.391 . S
C268 C267 1.359 . S
C268 H280 0.929 . S
H269 C265 0.930 . S
H270 C259 0.930 . S
H271 C288 0.930 . S
H272 C260 0.930 . S
H273 C261 0.930 . S
H274 C255 0.929 . S
H275 C293 0.930 . S
H276 C284 0.930 . S
H277 C285 0.930 . S
H278 C309 0.929 . S
H279 C267 0.930 . S
H280 C268 0.929 . S
H281 C310 0.930 . S
H282 C291 0.930 . S
N283 Gd252 2.661 . S
N283 C287 1.350 . S
N283 C288 1.307 . S
C284 H276 0.930 . S
C284 C285 1.355 . S
C284 C286 1.412 . S
C285 H277 0.930 . S
C285 C284 1.355 . S
C285 C288 1.402 . S
C286 C284 1.412 . S
C286 C287 1.417 . S
C286 C310 1.431 . S
C287 N283 1.350 . S
C287 C286 1.417 . S
C287 C290 1.426 . S
C288 H271 0.930 . S
C288 N283 1.307 . S
C288 C285 1.402 . S
N289 Gd252 2.601 . S
N289 C290 1.359 . S
N289 C293 1.334 . S
C290 C287 1.426 . S
C290 N289 1.359 . S
C290 C294 1.413 . S
C291 H282 0.930 . S
C291 C292 1.359 . S
C291 C293 1.394 . S
C292 C291 1.359 . S
C292 C294 1.391 . S
C292 H295 0.929 . S
C293 H275 0.930 . S
C293 N289 1.334 . S
C293 C291 1.394 . S
C294 C290 1.413 . S
C294 C292 1.391 . S
C294 C309 1.437 . S
H295 C292 0.929 . S
O296 Gd252 2.545 . S
O296 C311 1.258 . S
O297 Gd252 2.606 . S
O297 Gd253 2.362 . S
O297 C308 1.284 . S
O298 Gd253 2.324 . S
O298 C318 1.254 . S
O299 Gd252 2.429 . S
O299 C318 1.268 . S
O300 Gd252 2.545 . S
O300 C308 1.250 . S
O301 Gd252 2.412 . S
O301 C311 1.252 . S
O302 Gd253 2.545 . S
O302 C320 1.258 . S
O303 Gd252 2.362 . S
O303 Gd253 2.606 . S
O303 C319 1.284 . S
O304 Gd252 2.324 . S
O304 C327 1.254 . S
O305 Gd253 2.429 . S
O305 C327 1.268 . S
O306 Gd253 2.545 . S
O306 C319 1.250 . S
O307 Gd253 2.412 . S
O307 C320 1.252 . S
C308 O297 1.284 . S
C308 O300 1.250 . S
C309 H278 0.929 . S
C309 C294 1.437 . S
C309 C310 1.317 . S
C310 H281 0.930 . S
C310 C286 1.431 . S
C310 C309 1.317 . S
C311 Gd252 2.828 . S
C311 O296 1.258 . S
C311 O301 1.252 . S
C311 C312 1.497 . S
C312 C311 1.497 . S
C312 C313 1.395 . S
C312 C314 1.380 . S
C313 C312 1.395 . S
C313 C316 1.398 . S
C313 H328 0.930 . S
C314 C312 1.380 . S
C314 C315 1.391 . S
C314 H329 0.930 . S
C315 C314 1.391 . S
C315 C317 1.387 . S
C316 C313 1.398 . S
C316 C317 1.380 . S
C316 H330 0.930 . S
C317 C315 1.387 . S
C317 C316 1.380 . S
C317 H331 0.930 . S
C318 O298 1.254 . S
C318 O299 1.268 . S
C319 O303 1.284 . S
C319 O306 1.250 . S
C320 Gd253 2.828 . S
C320 O302 1.258 . S
C320 O307 1.252 . S
C320 C321 1.497 . S
C321 C320 1.497 . S
C321 C322 1.395 . S
C321 C323 1.380 . S
C322 C321 1.395 . S
C322 C325 1.398 1_565 S
C322 H332 0.930 . S
C323 C321 1.380 . S
C323 C324 1.391 1_565 S
C323 H333 0.930 . S
C324 C323 1.391 1_545 S
C324 C326 1.387 . S
C325 C322 1.398 1_545 S
C325 C326 1.380 . S
C325 H334 0.930 . S
C326 C324 1.387 . S
C326 C325 1.380 . S
C326 H335 0.930 . S
C327 O304 1.254 . S
C327 O305 1.268 . S
H328 C313 0.930 . S
H329 C314 0.930 . S
H330 C316 0.930 . S
H331 C317 0.930 . S
H332 C322 0.930 . S
H333 C323 0.930 . S
H334 C325 0.930 . S
H335 C326 0.930 . S
Gd336 N367 2.661 . S
Gd336 N373 2.601 . S
Gd336 O380 2.545 . S
Gd336 O381 2.606 . S
Gd336 O383 2.429 . S
Gd336 O384 2.545 . S
Gd336 O385 2.412 . S
Gd336 O387 2.362 . S
Gd336 O388 2.324 . S
Gd336 C395 2.828 . S
Gd337 N346 2.661 . S
Gd337 N350 2.601 . S
Gd337 O381 2.362 . S
Gd337 O382 2.324 . S
Gd337 O386 2.545 . S
Gd337 O387 2.606 . S
Gd337 O389 2.429 . S
Gd337 O390 2.545 . S
Gd337 O391 2.412 . S
Gd337 C404 2.828 . S
C338 C341 1.417 . S
C338 C343 1.431 . S
C338 C344 1.412 . S
C339 C342 1.437 . S
C339 C343 1.317 . S
C339 H358 0.929 . S
C340 C341 1.426 . S
C340 C342 1.413 . S
C340 N350 1.359 . S
C341 C338 1.417 . S
C341 C340 1.426 . S
C341 N346 1.350 . S
C342 C339 1.437 . S
C342 C340 1.413 . S
C342 C352 1.391 . S
C343 C338 1.431 . S
C343 C339 1.317 . S
C343 H354 0.930 . S
C344 C338 1.412 . S
C344 C345 1.355 . S
C344 H356 0.930 . S
C345 C344 1.355 . S
C345 C347 1.402 . S
C345 H357 0.930 . S
N346 Gd337 2.661 . S
N346 C341 1.350 . S
N346 C347 1.307 . S
C347 C345 1.402 . S
C347 N346 1.307 . S
C347 H348 0.930 . S
H348 C347 0.930 . S
C349 N350 1.334 . S
C349 C351 1.394 . S
C349 H353 0.930 . S
N350 Gd337 2.601 . S
N350 C340 1.359 . S
N350 C349 1.334 . S
C351 C349 1.394 . S
C351 C352 1.359 . S
C351 H363 0.930 . S
C352 C342 1.391 . S
C352 C351 1.359 . S
C352 H364 0.929 . S
H353 C349 0.930 . S
H354 C343 0.930 . S
H355 C372 0.930 . S
H356 C344 0.930 . S
H357 C345 0.930 . S
H358 C339 0.929 . S
H359 C377 0.930 . S
H360 C368 0.930 . S
H361 C369 0.930 . S
H362 C393 0.929 . S
H363 C351 0.930 . S
H364 C352 0.929 . S
H365 C394 0.930 . S
H366 C375 0.930 . S
N367 Gd336 2.661 . S
N367 C371 1.350 . S
N367 C372 1.307 . S
C368 H360 0.930 . S
C368 C369 1.355 . S
C368 C370 1.412 . S
C369 H361 0.930 . S
C369 C368 1.355 . S
C369 C372 1.402 1_545 S
C370 C368 1.412 . S
C370 C371 1.417 1_545 S
C370 C394 1.431 . S
C371 N367 1.350 . S
C371 C370 1.417 1_565 S
C371 C374 1.426 . S
C372 H355 0.930 . S
C372 N367 1.307 . S
C372 C369 1.402 1_565 S
N373 Gd336 2.601 . S
N373 C374 1.359 . S
N373 C377 1.334 . S
C374 C371 1.426 . S
C374 N373 1.359 . S
C374 C378 1.413 1_565 S
C375 H366 0.930 . S
C375 C376 1.359 1_565 S
C375 C377 1.394 . S
C376 C375 1.359 1_545 S
C376 C378 1.391 . S
C376 H379 0.929 . S
C377 H359 0.930 . S
C377 N373 1.334 . S
C377 C375 1.394 . S
C378 C374 1.413 1_545 S
C378 C376 1.391 . S
C378 C393 1.437 . S
H379 C376 0.929 . S
O380 Gd336 2.545 . S
O380 C395 1.258 . S
O381 Gd336 2.606 . S
O381 Gd337 2.362 . S
O381 C392 1.284 . S
O382 Gd337 2.324 . S
O382 C402 1.254 . S
O383 Gd336 2.429 . S
O383 C402 1.268 . S
O384 Gd336 2.545 . S
O384 C392 1.250 . S
O385 Gd336 2.412 . S
O385 C395 1.252 . S
O386 Gd337 2.545 . S
O386 C404 1.258 . S
O387 Gd336 2.362 . S
O387 Gd337 2.606 . S
O387 C403 1.284 . S
O388 Gd336 2.324 . S
O388 C411 1.254 . S
O389 Gd337 2.429 . S
O389 C411 1.268 . S
O390 Gd337 2.545 . S
O390 C403 1.250 . S
O391 Gd337 2.412 . S
O391 C404 1.252 . S
C392 O381 1.284 . S
C392 O384 1.250 . S
C393 H362 0.929 . S
C393 C378 1.437 . S
C393 C394 1.317 . S
C394 H365 0.930 . S
C394 C370 1.431 . S
C394 C393 1.317 . S
C395 Gd336 2.828 . S
C395 O380 1.258 . S
C395 O385 1.252 . S
C395 C396 1.497 . S
C396 C395 1.497 . S
C396 C397 1.395 . S
C396 C398 1.380 . S
C397 C396 1.395 . S
C397 C400 1.398 . S
C397 H412 0.930 . S
C398 C396 1.380 . S
C398 C399 1.391 . S
C398 H413 0.930 . S
C399 C398 1.391 . S
C399 C401 1.387 . S
C400 C397 1.398 . S
C400 C401 1.380 . S
C400 H414 0.930 . S
C401 C399 1.387 . S
C401 C400 1.380 . S
C401 H415 0.930 . S
C402 O382 1.254 . S
C402 O383 1.268 . S
C403 O387 1.284 . S
C403 O390 1.250 . S
C404 Gd337 2.828 . S
C404 O386 1.258 . S
C404 O391 1.252 . S
C404 C405 1.497 . S
C405 C404 1.497 . S
C405 C406 1.395 . S
C405 C407 1.380 . S
C406 C405 1.395 . S
C406 C409 1.398 1_455 S
C406 H416 0.930 . S
C407 C405 1.380 . S
C407 C408 1.391 1_455 S
C407 H417 0.930 . S
C408 C407 1.391 1_655 S
C408 C410 1.387 . S
C409 C406 1.398 1_655 S
C409 C410 1.380 . S
C409 H418 0.930 . S
C410 C408 1.387 . S
C410 C409 1.380 . S
C410 H419 0.930 . S
C411 O388 1.254 . S
C411 O389 1.268 . S
H412 C397 0.930 . S
H413 C398 0.930 . S
H414 C400 0.930 . S
H415 C401 0.930 . S
H416 C406 0.930 . S
H417 C407 0.930 . S
H418 C409 0.930 . S
H419 C410 0.930 . S
Gd420 N451 2.661 . S
Gd420 N457 2.601 . S
Gd420 O464 2.545 . S
Gd420 O465 2.606 . S
Gd420 O467 2.429 . S
Gd420 O468 2.545 . S
Gd420 O469 2.412 . S
Gd420 O471 2.362 . S
Gd420 O472 2.324 . S
Gd420 C479 2.828 . S
Gd421 N430 2.661 . S
Gd421 N434 2.601 . S
Gd421 O465 2.362 . S
Gd421 O466 2.324 . S
Gd421 O470 2.545 . S
Gd421 O471 2.606 . S
Gd421 O473 2.429 . S
Gd421 O474 2.545 . S
Gd421 O475 2.412 . S
Gd421 C488 2.828 . S
C422 C425 1.417 . S
C422 C427 1.431 . S
C422 C428 1.412 . S
C423 C426 1.437 . S
C423 C427 1.317 . S
C423 H442 0.929 . S
C424 C425 1.426 . S
C424 C426 1.413 . S
C424 N434 1.359 . S
C425 C422 1.417 . S
C425 C424 1.426 . S
C425 N430 1.350 . S
C426 C423 1.437 . S
C426 C424 1.413 . S
C426 C436 1.391 . S
C427 C422 1.431 . S
C427 C423 1.317 . S
C427 H438 0.930 . S
C428 C422 1.412 . S
C428 C429 1.355 . S
C428 H440 0.930 . S
C429 C428 1.355 . S
C429 C431 1.402 . S
C429 H441 0.930 . S
N430 Gd421 2.661 . S
N430 C425 1.350 . S
N430 C431 1.307 . S
C431 C429 1.402 . S
C431 N430 1.307 . S
C431 H432 0.930 . S
H432 C431 0.930 . S
C433 N434 1.334 . S
C433 C435 1.394 . S
C433 H437 0.930 . S
N434 Gd421 2.601 . S
N434 C424 1.359 . S
N434 C433 1.334 . S
C435 C433 1.394 . S
C435 C436 1.359 . S
C435 H447 0.930 . S
C436 C426 1.391 . S
C436 C435 1.359 . S
C436 H448 0.929 . S
H437 C433 0.930 . S
H438 C427 0.930 . S
H439 C456 0.930 . S
H440 C428 0.930 . S
H441 C429 0.930 . S
H442 C423 0.929 . S
H443 C461 0.930 . S
H444 C452 0.930 . S
H445 C453 0.930 . S
H446 C477 0.929 . S
H447 C435 0.930 . S
H448 C436 0.929 . S
H449 C478 0.930 . S
H450 C459 0.930 . S
N451 Gd420 2.661 . S
N451 C455 1.350 . S
N451 C456 1.307 . S
C452 H444 0.930 . S
C452 C453 1.355 1_655 S
C452 C454 1.412 . S
C453 H445 0.930 . S
C453 C452 1.355 1_455 S
C453 C456 1.402 . S
C454 C452 1.412 . S
C454 C455 1.417 1_655 S
C454 C478 1.431 . S
C455 N451 1.350 . S
C455 C454 1.417 1_455 S
C455 C458 1.426 . S
C456 H439 0.930 . S
C456 N451 1.307 . S
C456 C453 1.402 . S
N457 Gd420 2.601 . S
N457 C458 1.359 . S
N457 C461 1.334 . S
C458 C455 1.426 . S
C458 N457 1.359 . S
C458 C462 1.413 1_455 S
C459 H450 0.930 . S
C459 C460 1.359 1_455 S
C459 C461 1.394 . S
C460 C459 1.359 1_655 S
C460 C462 1.391 . S
C460 H463 0.929 . S
C461 H443 0.930 . S
C461 N457 1.334 . S
C461 C459 1.394 . S
C462 C458 1.413 1_655 S
C462 C460 1.391 . S
C462 C477 1.437 . S
H463 C460 0.929 . S
O464 Gd420 2.545 . S
O464 C479 1.258 . S
O465 Gd420 2.606 . S
O465 Gd421 2.362 . S
O465 C476 1.284 . S
O466 Gd421 2.324 . S
O466 C486 1.254 . S
O467 Gd420 2.429 . S
O467 C486 1.268 . S
O468 Gd420 2.545 . S
O468 C476 1.250 . S
O469 Gd420 2.412 . S
O469 C479 1.252 . S
O470 Gd421 2.545 . S
O470 C488 1.258 . S
O471 Gd420 2.362 . S
O471 Gd421 2.606 . S
O471 C487 1.284 . S
O472 Gd420 2.324 . S
O472 C495 1.254 . S
O473 Gd421 2.429 . S
O473 C495 1.268 . S
O474 Gd421 2.545 . S
O474 C487 1.250 . S
O475 Gd421 2.412 . S
O475 C488 1.252 . S
C476 O465 1.284 . S
C476 O468 1.250 . S
C477 H446 0.929 . S
C477 C462 1.437 . S
C477 C478 1.317 . S
C478 H449 0.930 . S
C478 C454 1.431 . S
C478 C477 1.317 . S
C479 Gd420 2.828 . S
C479 O464 1.258 . S
C479 O469 1.252 . S
C479 C480 1.497 . S
C480 C479 1.497 . S
C480 C481 1.395 . S
C480 C482 1.380 . S
C481 C480 1.395 . S
C481 C484 1.398 . S
C481 H496 0.930 . S
C482 C480 1.380 . S
C482 C483 1.391 . S
C482 H497 0.930 . S
C483 C482 1.391 . S
C483 C485 1.387 . S
C484 C481 1.398 . S
C484 C485 1.380 . S
C484 H498 0.930 . S
C485 C483 1.387 . S
C485 C484 1.380 . S
C485 H499 0.930 . S
C486 O466 1.254 . S
C486 O467 1.268 . S
C487 O471 1.284 . S
C487 O474 1.250 . S
C488 Gd421 2.828 . S
C488 O470 1.258 . S
C488 O475 1.252 . S
C488 C489 1.497 . S
C489 C488 1.497 . S
C489 C490 1.395 . S
C489 C491 1.380 . S
C490 C489 1.395 . S
C490 C493 1.398 . S
C490 H500 0.930 . S
C491 C489 1.380 . S
C491 C492 1.391 . S
C491 H501 0.930 . S
C492 C491 1.391 . S
C492 C494 1.387 . S
C493 C490 1.398 . S
C493 C494 1.380 . S
C493 H502 0.930 . S
C494 C492 1.387 . S
C494 C493 1.380 . S
C494 H503 0.930 . S
C495 O472 1.254 . S
C495 O473 1.268 . S
H496 C481 0.930 . S
H497 C482 0.930 . S
H498 C484 0.930 . S
H499 C485 0.930 . S
H500 C490 0.930 . S
H501 C491 0.930 . S
H502 C493 0.930 . S
H503 C494 0.930 . S
Gd504 N535 2.661 . S
Gd504 N541 2.601 . S
Gd504 O548 2.545 . S
Gd504 O549 2.606 . S
Gd504 O551 2.429 . S
Gd504 O552 2.545 . S
Gd504 O553 2.412 . S
Gd504 O555 2.362 . S
Gd504 O556 2.324 . S
Gd504 C563 2.828 . S
Gd505 N514 2.661 . S
Gd505 N518 2.601 . S
Gd505 O549 2.362 . S
Gd505 O550 2.324 . S
Gd505 O554 2.545 . S
Gd505 O555 2.606 . S
Gd505 O557 2.429 . S
Gd505 O558 2.545 . S
Gd505 O559 2.412 . S
Gd505 C572 2.828 . S
C506 C509 1.417 . S
C506 C511 1.431 . S
C506 C512 1.412 . S
C507 C510 1.437 . S
C507 C511 1.317 . S
C507 H526 0.929 . S
C508 C509 1.426 . S
C508 C510 1.413 . S
C508 N518 1.359 . S
C509 C506 1.417 . S
C509 C508 1.426 . S
C509 N514 1.350 . S
C510 C507 1.437 . S
C510 C508 1.413 . S
C510 C520 1.391 . S
C511 C506 1.431 . S
C511 C507 1.317 . S
C511 H522 0.930 . S
C512 C506 1.412 . S
C512 C513 1.355 . S
C512 H524 0.930 . S
C513 C512 1.355 . S
C513 C515 1.402 . S
C513 H525 0.930 . S
N514 Gd505 2.661 . S
N514 C509 1.350 . S
N514 C515 1.307 . S
C515 C513 1.402 . S
C515 N514 1.307 . S
C515 H516 0.930 . S
H516 C515 0.930 . S
C517 N518 1.334 . S
C517 C519 1.394 . S
C517 H521 0.930 . S
N518 Gd505 2.601 . S
N518 C508 1.359 . S
N518 C517 1.334 . S
C519 C517 1.394 . S
C519 C520 1.359 . S
C519 H531 0.930 . S
C520 C510 1.391 . S
C520 C519 1.359 . S
C520 H532 0.929 . S
H521 C517 0.930 . S
H522 C511 0.930 . S
H523 C540 0.930 . S
H524 C512 0.930 . S
H525 C513 0.930 . S
H526 C507 0.929 . S
H527 C545 0.930 . S
H528 C536 0.930 1_565 S
H529 C537 0.930 . S
H530 C561 0.929 . S
H531 C519 0.930 . S
H532 C520 0.929 . S
H533 C562 0.930 . S
H534 C543 0.930 . S
N535 Gd504 2.661 . S
N535 C539 1.350 . S
N535 C540 1.307 . S
C536 H528 0.930 1_545 S
C536 C537 1.355 . S
C536 C538 1.412 . S
C537 H529 0.930 . S
C537 C536 1.355 . S
C537 C540 1.402 . S
C538 C536 1.412 . S
C538 C539 1.417 . S
C538 C562 1.431 1_545 S
C539 N535 1.350 . S
C539 C538 1.417 . S
C539 C542 1.426 . S
C540 H523 0.930 . S
C540 N535 1.307 . S
C540 C537 1.402 . S
N541 Gd504 2.601 . S
N541 C542 1.359 . S
N541 C545 1.334 . S
C542 C539 1.426 . S
C542 N541 1.359 . S
C542 C546 1.402 1_545 S
C543 H534 0.930 . S
C543 C544 1.359 1_545 S
C543 C545 1.394 . S
C544 C543 1.359 1_565 S
C544 C546 1.390 . S
C544 H547 0.929 . S
C545 H527 0.930 . S
C545 N541 1.334 . S
C545 C543 1.394 . S
C546 C542 1.402 1_565 S
C546 C544 1.390 . S
C546 C561 1.448 . S
H547 C544 0.929 . S
O548 Gd504 2.545 . S
O548 C563 1.258 . S
O549 Gd504 2.606 . S
O549 Gd505 2.362 . S
O549 C560 1.284 . S
O550 Gd505 2.324 . S
O550 C570 1.254 . S
O551 Gd504 2.429 . S
O551 C570 1.268 . S
O552 Gd504 2.545 . S
O552 C560 1.250 . S
O553 Gd504 2.412 . S
O553 C563 1.252 . S
O554 Gd505 2.545 . S
O554 C572 1.258 . S
O555 Gd504 2.362 . S
O555 Gd505 2.606 . S
O555 C571 1.284 . S
O556 Gd504 2.324 . S
O556 C579 1.254 . S
O557 Gd505 2.429 . S
O557 C579 1.268 . S
O558 Gd505 2.545 . S
O558 C571 1.250 . S
O559 Gd505 2.412 . S
O559 C572 1.252 . S
C560 O549 1.284 . S
C560 O552 1.250 . S
C561 H530 0.929 . S
C561 C546 1.448 . S
C561 C562 1.317 . S
C562 H533 0.930 . S
C562 C538 1.431 1_565 S
C562 C561 1.317 . S
C563 Gd504 2.828 . S
C563 O548 1.258 . S
C563 O553 1.252 . S
C563 C564 1.497 1_545 S
C564 C563 1.497 1_565 S
C564 C565 1.395 . S
C564 C566 1.380 . S
C565 C564 1.395 . S
C565 C568 1.398 . S
C565 H580 0.930 . S
C566 C564 1.380 . S
C566 C567 1.391 . S
C566 H581 0.930 . S
C567 C566 1.391 . S
C567 C569 1.387 . S
C568 C565 1.398 . S
C568 C569 1.380 . S
C568 H582 0.930 . S
C569 C567 1.387 . S
C569 C568 1.380 . S
C569 H583 0.930 . S
C570 O550 1.254 . S
C570 O551 1.268 . S
C571 O555 1.284 . S
C571 O558 1.250 . S
C572 Gd505 2.828 . S
C572 O554 1.258 . S
C572 O559 1.252 . S
C572 C573 1.497 . S
C573 C572 1.497 . S
C573 C574 1.395 . S
C573 C575 1.380 . S
C574 C573 1.395 . S
C574 C577 1.398 . S
C574 H584 0.930 . S
C575 C573 1.380 . S
C575 C576 1.391 . S
C575 H585 0.930 . S
C576 C575 1.391 . S
C576 C578 1.387 . S
C577 C574 1.398 . S
C577 C578 1.380 . S
C577 H586 0.930 . S
C578 C576 1.387 . S
C578 C577 1.380 . S
C578 H587 0.930 . S
C579 O556 1.254 . S
C579 O557 1.268 . S
H580 C565 0.930 . S
H581 C566 0.930 . S
H582 C568 0.930 . S
H583 C569 0.930 . S
H584 C574 0.930 . S
H585 C575 0.930 . S
H586 C577 0.930 . S
H587 C578 0.930 . S
Gd588 N619 2.661 . S
Gd588 N625 2.601 . S
Gd588 O632 2.545 . S
Gd588 O633 2.606 . S
Gd588 O635 2.429 . S
Gd588 O636 2.545 . S
Gd588 O637 2.412 . S
Gd588 O639 2.362 . S
Gd588 O640 2.324 . S
Gd588 C647 2.828 1_655 S
Gd589 N598 2.661 . S
Gd589 N602 2.601 . S
Gd589 O633 2.362 . S
Gd589 O634 2.324 . S
Gd589 O638 2.545 . S
Gd589 O639 2.606 . S
Gd589 O641 2.429 . S
Gd589 O642 2.545 . S
Gd589 O643 2.412 . S
Gd589 C656 2.828 . S
C590 C593 1.417 . S
C590 C595 1.444 . S
C590 C596 1.412 . S
C591 C594 1.437 . S
C591 C595 1.322 . S
C591 H610 0.929 1_545 S
C592 C593 1.426 . S
C592 C594 1.413 . S
C592 N602 1.359 . S
C593 C590 1.417 . S
C593 C592 1.426 . S
C593 N598 1.350 . S
C594 C591 1.437 . S
C594 C592 1.413 . S
C594 C604 1.391 . S
C595 C590 1.444 . S
C595 C591 1.322 . S
C595 H606 0.912 1_545 S
C596 C590 1.412 . S
C596 C597 1.355 . S
C596 H608 0.930 . S
C597 C596 1.355 . S
C597 C599 1.402 . S
C597 H609 0.930 . S
N598 Gd589 2.661 . S
N598 C593 1.350 . S
N598 C599 1.307 . S
C599 C597 1.402 . S
C599 N598 1.307 . S
C599 H600 0.930 . S
H600 C599 0.930 . S
C601 N602 1.334 . S
C601 C603 1.394 . S
C601 H605 0.930 . S
N602 Gd589 2.601 . S
N602 C592 1.359 . S
N602 C601 1.334 . S
C603 C601 1.394 . S
C603 C604 1.359 . S
C603 H615 0.930 . S
C604 C594 1.391 . S
C604 C603 1.359 . S
C604 H616 0.929 . S
H605 C601 0.930 . S
H606 C595 0.912 1_565 S
H607 C624 0.930 . S
H608 C596 0.930 . S
H609 C597 0.930 . S
H610 C591 0.929 1_565 S
H611 C629 0.930 . S
H612 C620 0.930 . S
H613 C621 0.930 . S
H614 C645 0.929 . S
H615 C603 0.930 . S
H616 C604 0.929 . S
H617 C646 0.930 . S
H618 C627 0.930 . S
N619 Gd588 2.661 . S
N619 C623 1.350 . S
N619 C624 1.307 . S
C620 H612 0.930 . S
C620 C621 1.355 1_455 S
C620 C622 1.412 . S
C621 H613 0.930 . S
C621 C620 1.355 1_655 S
C621 C624 1.402 . S
C622 C620 1.412 . S
C622 C623 1.417 1_455 S
C622 C646 1.431 . S
C623 N619 1.350 . S
C623 C622 1.417 1_655 S
C623 C626 1.426 . S
C624 H607 0.930 . S
C624 N619 1.307 . S
C624 C621 1.402 . S
N625 Gd588 2.601 . S
N625 C626 1.359 . S
N625 C629 1.334 . S
C626 C623 1.426 . S
C626 N625 1.359 . S
C626 C630 1.413 1_655 S
C627 H618 0.930 . S
C627 C628 1.359 1_655 S
C627 C629 1.394 . S
C628 C627 1.359 1_455 S
C628 C630 1.391 . S
C628 H631 0.929 . S
C629 H611 0.930 . S
C629 N625 1.334 . S
C629 C627 1.394 . S
C630 C626 1.413 1_455 S
C630 C628 1.391 . S
C630 C645 1.437 . S
H631 C628 0.929 . S
O632 Gd588 2.545 . S
O632 C647 1.258 1_655 S
O633 Gd588 2.606 . S
O633 Gd589 2.362 . S
O633 C644 1.284 . S
O634 Gd589 2.324 . S
O634 C654 1.254 . S
O635 Gd588 2.429 . S
O635 C654 1.268 . S
O636 Gd588 2.545 . S
O636 C644 1.250 . S
O637 Gd588 2.412 . S
O637 C647 1.252 1_655 S
O638 Gd589 2.545 . S
O638 C656 1.258 . S
O639 Gd588 2.362 . S
O639 Gd589 2.606 . S
O639 C655 1.284 . S
O640 Gd588 2.324 . S
O640 C663 1.254 . S
O641 Gd589 2.429 . S
O641 C663 1.268 . S
O642 Gd589 2.545 . S
O642 C655 1.250 . S
O643 Gd589 2.412 . S
O643 C656 1.252 . S
C644 O633 1.284 . S
C644 O636 1.250 . S
C645 H614 0.929 . S
C645 C630 1.437 . S
C645 C646 1.317 . S
C646 H617 0.930 . S
C646 C622 1.431 . S
C646 C645 1.317 . S
C647 Gd588 2.828 1_455 S
C647 O632 1.258 1_455 S
C647 O637 1.252 1_455 S
C647 C648 1.497 . S
C648 C647 1.497 . S
C648 C649 1.395 . S
C648 C650 1.380 . S
C649 C648 1.395 . S
C649 C652 1.398 . S
C649 H664 0.930 . S
C650 C648 1.380 . S
C650 C651 1.391 . S
C650 H665 0.930 . S
C651 C650 1.391 . S
C651 C653 1.387 . S
C652 C649 1.398 . S
C652 C653 1.380 . S
C652 H666 0.930 . S
C653 C651 1.387 . S
C653 C652 1.380 . S
C653 H667 0.930 . S
C654 O634 1.254 . S
C654 O635 1.268 . S
C655 O639 1.284 . S
C655 O642 1.250 . S
C656 Gd589 2.828 . S
C656 O638 1.258 . S
C656 O643 1.252 . S
C656 C657 1.497 . S
C657 C656 1.497 . S
C657 C658 1.395 . S
C657 C659 1.380 . S
C658 C657 1.395 . S
C658 C661 1.398 . S
C658 H668 0.930 . S
C659 C657 1.380 . S
C659 C660 1.391 . S
C659 H669 0.930 . S
C660 C659 1.391 . S
C660 C662 1.387 . S
C661 C658 1.398 . S
C661 C662 1.380 . S
C661 H670 0.930 . S
C662 C660 1.387 . S
C662 C661 1.380 . S
C662 H671 0.930 . S
C663 O640 1.254 . S
C663 O641 1.268 . S
H664 C649 0.930 . S
H665 C650 0.930 . S
H666 C652 0.930 . S
H667 C653 0.930 . S
H668 C658 0.930 . S
H669 C659 0.930 . S
H670 C661 0.930 . S
H671 C662 0.930 . S
Gd672 N703 2.661 . S
Gd672 N709 2.601 . S
Gd672 O716 2.545 . S
Gd672 O717 2.606 . S
Gd672 O719 2.429 . S
Gd672 O720 2.545 . S
Gd672 O721 2.412 . S
Gd672 O723 2.362 . S
Gd672 O724 2.324 . S
Gd672 C731 2.828 . S
Gd673 N682 2.661 . S
Gd673 N686 2.601 . S
Gd673 O717 2.362 . S
Gd673 O718 2.324 . S
Gd673 O722 2.545 . S
Gd673 O723 2.606 . S
Gd673 O725 2.429 . S
Gd673 O726 2.545 . S
Gd673 O727 2.412 . S
Gd673 C740 2.828 . S
C674 C677 1.417 . S
C674 C679 1.431 1_655 S
C674 C680 1.412 . S
C675 C678 1.437 1_455 S
C675 C679 1.317 . S
C675 H694 0.929 . S
C676 C677 1.426 . S
C676 C678 1.413 . S
C676 N686 1.359 . S
C677 C674 1.417 . S
C677 C676 1.426 . S
C677 N682 1.350 . S
C678 C675 1.437 1_655 S
C678 C676 1.413 . S
C678 C688 1.391 . S
C679 C674 1.431 1_455 S
C679 C675 1.317 . S
C679 H690 0.930 . S
C680 C674 1.412 . S
C680 C681 1.355 . S
C680 H692 0.930 1_655 S
C681 C680 1.355 . S
C681 C683 1.402 . S
C681 H693 0.930 . S
N682 Gd673 2.661 . S
N682 C677 1.350 . S
N682 C683 1.307 . S
C683 C681 1.402 . S
C683 N682 1.307 . S
C683 H684 0.930 . S
H684 C683 0.930 . S
C685 N686 1.334 . S
C685 C687 1.394 . S
C685 H689 0.930 . S
N686 Gd673 2.601 . S
N686 C676 1.359 . S
N686 C685 1.334 . S
C687 C685 1.394 . S
C687 C688 1.359 . S
C687 H699 0.930 . S
C688 C678 1.391 . S
C688 C687 1.359 . S
C688 H700 0.929 . S
H689 C685 0.930 . S
H690 C679 0.930 . S
H691 C708 0.930 . S
H692 C680 0.930 1_455 S
H693 C681 0.930 . S
H694 C675 0.929 . S
H695 C713 0.930 . S
H696 C704 0.930 . S
H697 C705 0.930 . S
H698 C729 0.929 . S
H699 C687 0.930 . S
H700 C688 0.929 . S
H701 C730 0.930 . S
H702 C711 0.930 . S
N703 Gd672 2.661 . S
N703 C707 1.350 . S
N703 C708 1.307 . S
C704 H696 0.930 . S
C704 C705 1.355 . S
C704 C706 1.412 . S
C705 H697 0.930 . S
C705 C704 1.355 . S
C705 C708 1.402 . S
C706 C704 1.412 . S
C706 C707 1.417 . S
C706 C730 1.431 . S
C707 N703 1.350 . S
C707 C706 1.417 . S
C707 C710 1.426 . S
C708 H691 0.930 . S
C708 N703 1.307 . S
C708 C705 1.402 . S
N709 Gd672 2.601 . S
N709 C710 1.359 . S
N709 C713 1.334 . S
C710 C707 1.426 . S
C710 N709 1.359 . S
C710 C714 1.413 . S
C711 H702 0.930 . S
C711 C712 1.359 . S
C711 C713 1.394 . S
C712 C711 1.359 . S
C712 C714 1.391 . S
C712 H715 0.929 . S
C713 H695 0.930 . S
C713 N709 1.334 . S
C713 C711 1.394 . S
C714 C710 1.413 . S
C714 C712 1.391 . S
C714 C729 1.437 . S
H715 C712 0.929 . S
O716 Gd672 2.545 . S
O716 C731 1.258 . S
O717 Gd672 2.606 . S
O717 Gd673 2.362 . S
O717 C728 1.284 . S
O718 Gd673 2.324 . S
O718 C738 1.254 . S
O719 Gd672 2.429 . S
O719 C738 1.268 . S
O720 Gd672 2.545 . S
O720 C728 1.250 . S
O721 Gd672 2.412 . S
O721 C731 1.252 . S
O722 Gd673 2.545 . S
O722 C740 1.258 . S
O723 Gd672 2.362 . S
O723 Gd673 2.606 . S
O723 C739 1.284 . S
O724 Gd672 2.324 . S
O724 C747 1.254 . S
O725 Gd673 2.429 . S
O725 C747 1.268 . S
O726 Gd673 2.545 . S
O726 C739 1.250 . S
O727 Gd673 2.412 . S
O727 C740 1.252 . S
C728 O717 1.284 . S
C728 O720 1.250 . S
C729 H698 0.929 . S
C729 C714 1.437 . S
C729 C730 1.317 . S
C730 H701 0.930 . S
C730 C706 1.431 . S
C730 C729 1.317 . S
C731 Gd672 2.828 . S
C731 O716 1.258 . S
C731 O721 1.252 . S
C731 C732 1.497 . S
C732 C731 1.497 . S
C732 C733 1.395 . S
C732 C734 1.380 . S
C733 C732 1.395 . S
C733 C736 1.398 . S
C733 H748 0.930 . S
C734 C732 1.380 . S
C734 C735 1.391 . S
C734 H749 0.930 . S
C735 C734 1.391 . S
C735 C737 1.387 . S
C736 C733 1.398 . S
C736 C737 1.380 . S
C736 H750 0.930 . S
C737 C735 1.387 . S
C737 C736 1.380 . S
C737 H751 0.930 . S
C738 O718 1.254 . S
C738 O719 1.268 . S
C739 O723 1.284 . S
C739 O726 1.250 . S
C740 Gd673 2.828 . S
C740 O722 1.258 . S
C740 O727 1.252 . S
C740 C741 1.497 . S
C741 C740 1.497 . S
C741 C742 1.395 . S
C741 C743 1.380 . S
C742 C741 1.395 . S
C742 C745 1.398 . S
C742 H752 0.930 . S
C743 C741 1.380 . S
C743 C744 1.391 . S
C743 H753 0.930 . S
C744 C743 1.391 . S
C744 C746 1.387 . S
C745 C742 1.398 . S
C745 C746 1.380 . S
C745 H754 0.930 . S
C746 C744 1.387 . S
C746 C745 1.380 . S
C746 H755 0.930 . S
C747 O724 1.254 . S
C747 O725 1.268 . S
H748 C733 0.930 . S
H749 C734 0.930 . S
H750 C736 0.930 . S
H751 C737 0.930 . S
H752 C742 0.930 . S
H753 C743 0.930 . S
H754 C745 0.930 . S
H755 C746 0.930 . S
H756 C768 0.930 1_556 S
H757 C770 0.930 . S
H758 C771 0.930 . S
H759 C775 0.959 . S
H760 C775 0.959 . S
H761 C775 0.961 . S
H762 C776 0.960 . S
H763 C776 0.961 . S
H764 C776 0.959 . S
H765 C779 0.929 . S
H766 C780 0.931 . S
H767 C782 0.930 . S
C768 H756 0.930 1_554 S
C768 C769 1.399 . S
C768 C773 1.399 . S
C769 C768 1.399 . S
C769 C770 1.376 . S
C770 H757 0.930 . S
C770 C769 1.376 . S
C770 C771 1.388 . S
C771 H758 0.930 . S
C771 C770 1.388 . S
C771 C772 1.390 . S
C772 C771 1.390 . S
C772 C773 1.394 . S
C772 C778 1.465 . S
C773 C768 1.399 . S
C773 C772 1.394 . S
C773 C774 1.516 1_554 S
C774 C773 1.516 1_556 S
C774 C775 1.502 . S
C774 C776 1.561 1_556 S
C774 C777 1.526 1_556 S
C775 H759 0.959 . S
C775 H760 0.959 . S
C775 H761 0.961 . S
C775 C774 1.502 . S
C776 H762 0.960 . S
C776 H763 0.961 . S
C776 H764 0.959 . S
C776 C774 1.561 1_554 S
C777 C774 1.526 1_554 S
C777 C778 1.396 . S
C777 C782 1.390 1_554 S
C778 C772 1.465 . S
C778 C777 1.396 . S
C778 C779 1.399 . S
C779 H765 0.929 . S
C779 C778 1.399 . S
C779 C780 1.385 . S
C780 H766 0.931 . S
C780 C779 1.385 . S
C780 C781 1.389 . S
C781 C780 1.389 . S
C781 C782 1.387 1_554 S
C782 H767 0.930 . S
C782 C777 1.390 1_556 S
C782 C781 1.387 1_556 S
H783 C795 0.930 . S
H784 C797 0.930 . S
H785 C798 0.930 . S
H786 C802 0.959 . S
H787 C802 0.959 . S
H788 C802 0.961 . S
H789 C803 0.960 . S
H790 C803 0.961 . S
H791 C803 0.959 . S
H792 C806 0.929 . S
H793 C807 0.931 . S
H794 C809 0.930 . S
C795 H783 0.930 . S
C795 C796 1.399 . S
C795 C800 1.399 . S
C796 C795 1.399 . S
C796 C797 1.376 1_554 S
C797 H784 0.930 . S
C797 C796 1.376 1_556 S
C797 C798 1.388 . S
C798 H785 0.930 . S
C798 C797 1.388 . S
C798 C799 1.390 . S
C799 C798 1.390 . S
C799 C800 1.394 1_556 S
C799 C805 1.465 . S
C800 C795 1.399 . S
C800 C799 1.394 1_554 S
C800 C801 1.516 . S
C801 C800 1.516 . S
C801 C802 1.502 . S
C801 C803 1.561 . S
C801 C804 1.526 . S
C802 H786 0.959 . S
C802 H787 0.959 . S
C802 H788 0.961 . S
C802 C801 1.502 . S
C803 H789 0.960 . S
C803 H790 0.961 . S
C803 H791 0.959 . S
C803 C801 1.561 . S
C804 C801 1.526 . S
C804 C805 1.396 1_554 S
C804 C809 1.390 . S
C805 C799 1.465 . S
C805 C804 1.396 1_556 S
C805 C806 1.399 . S
C806 H792 0.929 . S
C806 C805 1.399 . S
C806 C807 1.385 . S
C807 H793 0.931 . S
C807 C806 1.385 . S
C807 C808 1.387 . S
C808 C807 1.387 . S
C808 C809 1.389 1_556 S
C809 H794 0.930 . S
C809 C804 1.390 . S
C809 C808 1.389 1_554 S
H810 C822 0.930 . S
H811 C824 0.930 . S
H812 C825 0.930 . S
H813 C829 0.959 . S
H814 C829 0.959 . S
H815 C829 0.961 . S
H816 C830 0.960 . S
H817 C830 0.961 . S
H818 C830 0.959 . S
H819 C833 0.929 . S
H820 C834 0.931 . S
H821 C836 0.930 1_556 S
C822 H810 0.930 . S
C822 C823 1.399 1_556 S
C822 C827 1.399 1_556 S
C823 C822 1.399 1_554 S
C823 C824 1.376 . S
C824 H811 0.930 . S
C824 C823 1.376 . S
C824 C825 1.388 . S
C825 H812 0.930 . S
C825 C824 1.388 . S
C825 C826 1.390 . S
C826 C825 1.390 . S
C826 C827 1.394 . S
C826 C832 1.465 . S
C827 C822 1.399 1_554 S
C827 C826 1.394 . S
C827 C828 1.516 1_554 S
C828 C827 1.516 1_556 S
C828 C829 1.502 . S
C828 C830 1.561 1_556 S
C828 C831 1.526 1_556 S
C829 H813 0.959 . S
C829 H814 0.959 . S
C829 H815 0.961 . S
C829 C828 1.502 . S
C830 H816 0.960 . S
C830 H817 0.961 . S
C830 H818 0.959 . S
C830 C828 1.561 1_554 S
C831 C828 1.526 1_554 S
C831 C832 1.396 . S
C831 C836 1.390 . S
C832 C826 1.465 . S
C832 C831 1.396 . S
C832 C833 1.399 . S
C833 H819 0.929 . S
C833 C832 1.399 . S
C833 C834 1.385 . S
C834 H820 0.931 . S
C834 C833 1.385 . S
C834 C835 1.389 . S
C835 C834 1.389 . S
C835 C836 1.387 . S
C836 H821 0.930 1_554 S
C836 C831 1.390 . S
C836 C835 1.387 . S
H837 C849 0.930 . S
H838 C851 0.930 . S
H839 C852 0.930 . S
H840 C856 0.959 . S
H841 C856 0.959 . S
H842 C856 0.961 . S
H843 C857 0.960 . S
H844 C857 0.961 . S
H845 C857 0.959 . S
H846 C860 0.929 . S
H847 C861 0.931 . S
H848 C863 0.930 . S
C849 H837 0.930 . S
C849 C850 1.399 1_554 S
C849 C854 1.399 . S
C850 C849 1.399 1_556 S
C850 C851 1.376 . S
C851 H838 0.930 . S
C851 C850 1.376 . S
C851 C852 1.388 . S
C852 H839 0.930 . S
C852 C851 1.388 . S
C852 C853 1.390 . S
C853 C852 1.390 . S
C853 C854 1.394 1_556 S
C853 C859 1.465 . S
C854 C849 1.399 . S
C854 C853 1.394 1_554 S
C854 C855 1.516 . S
C855 C854 1.516 . S
C855 C856 1.502 . S
C855 C857 1.561 . S
C855 C858 1.526 . S
C856 H840 0.959 . S
C856 H841 0.959 . S
C856 H842 0.961 . S
C856 C855 1.502 . S
C857 H843 0.960 . S
C857 H844 0.961 . S
C857 H845 0.959 . S
C857 C855 1.561 . S
C858 C855 1.526 . S
C858 C859 1.396 1_554 S
C858 C863 1.390 . S
C859 C853 1.465 . S
C859 C858 1.396 1_556 S
C859 C860 1.399 . S
C860 H846 0.929 . S
C860 C859 1.399 . S
C860 C861 1.385 . S
C861 H847 0.931 . S
C861 C860 1.385 . S
C861 C862 1.389 . S
C862 C861 1.389 . S
C862 C863 1.387 1_556 S
C863 H848 0.930 . S
C863 C858 1.390 . S
C863 C862 1.387 1_554 S
H864 C876 0.930 . S
H865 C878 0.930 . S
H866 C879 0.930 . S
H867 C883 0.959 . S
H868 C883 0.959 . S
H869 C883 0.961 . S
H870 C884 0.960 . S
H871 C884 0.961 . S
H872 C884 0.959 . S
H873 C887 0.929 . S
H874 C888 0.931 . S
H875 C890 0.930 . S
C876 H864 0.930 . S
C876 C877 1.399 1_556 S
C876 C881 1.399 . S
C877 C876 1.399 1_554 S
C877 C878 1.376 . S
C878 H865 0.930 . S
C878 C877 1.376 . S
C878 C879 1.388 . S
C879 H866 0.930 . S
C879 C878 1.388 . S
C879 C880 1.390 . S
C880 C879 1.390 . S
C880 C881 1.394 1_554 S
C880 C886 1.465 . S
C881 C876 1.399 . S
C881 C880 1.394 1_556 S
C881 C882 1.516 . S
C882 C881 1.516 . S
C882 C883 1.502 . S
C882 C884 1.561 . S
C882 C885 1.526 . S
C883 H867 0.959 . S
C883 H868 0.959 . S
C883 H869 0.961 . S
C883 C882 1.502 . S
C884 H870 0.960 . S
C884 H871 0.961 . S
C884 H872 0.959 . S
C884 C882 1.561 . S
C885 C882 1.526 . S
C885 C886 1.396 1_556 S
C885 C890 1.390 . S
C886 C880 1.465 . S
C886 C885 1.396 1_554 S
C886 C887 1.399 . S
C887 H873 0.929 . S
C887 C886 1.399 . S
C887 C888 1.385 . S
C888 H874 0.931 . S
C888 C887 1.385 . S
C888 C889 1.389 1_554 S
C889 C888 1.389 1_556 S
C889 C890 1.387 . S
C890 H875 0.930 . S
C890 C885 1.390 . S
C890 C889 1.387 . S
H891 C903 0.930 . S
H892 C905 0.930 . S
H893 C906 0.930 . S
H894 C910 0.959 . S
H895 C910 0.959 . S
H896 C910 0.961 . S
H897 C911 0.960 . S
H898 C911 0.961 . S
H899 C911 0.959 . S
H900 C914 0.929 . S
H901 C915 0.931 . S
H902 C917 0.930 . S
C903 H891 0.930 . S
C903 C904 1.399 1_556 S
C903 C908 1.399 . S
C904 C903 1.399 1_554 S
C904 C905 1.376 . S
C905 H892 0.930 . S
C905 C904 1.376 . S
C905 C906 1.388 . S
C906 H893 0.930 . S
C906 C905 1.388 . S
C906 C907 1.390 . S
C907 C906 1.390 . S
C907 C908 1.394 1_554 S
C907 C913 1.465 . S
C908 C903 1.399 . S
C908 C907 1.394 1_556 S
C908 C909 1.516 . S
C909 C908 1.516 . S
C909 C910 1.502 . S
C909 C911 1.561 . S
C909 C912 1.526 . S
C910 H894 0.959 . S
C910 H895 0.959 . S
C910 H896 0.961 . S
C910 C909 1.502 . S
C911 H897 0.960 . S
C911 H898 0.961 . S
C911 H899 0.959 . S
C911 C909 1.561 . S
C912 C909 1.526 . S
C912 C913 1.396 1_556 S
C912 C917 1.390 . S
C913 C907 1.465 . S
C913 C912 1.396 1_554 S
C913 C914 1.399 . S
C914 H900 0.929 . S
C914 C913 1.399 . S
C914 C915 1.385 . S
C915 H901 0.931 . S
C915 C914 1.385 . S
C915 C916 1.389 1_554 S
C916 C915 1.389 1_556 S
C916 C917 1.387 . S
C917 H902 0.930 . S
C917 C912 1.390 . S
C917 C916 1.387 . S
H918 C930 0.930 . S
H919 C932 0.930 . S
H920 C933 0.930 . S
H921 C937 0.959 . S
H922 C937 0.959 . S
H923 C937 0.961 . S
H924 C938 0.960 . S
H925 C938 0.961 . S
H926 C938 0.959 . S
H927 C941 0.929 . S
H928 C942 0.931 . S
H929 C944 0.930 . S
C930 H918 0.930 . S
C930 C931 1.399 . S
C930 C935 1.399 . S
C931 C930 1.399 . S
C931 C932 1.376 . S
C932 H919 0.930 . S
C932 C931 1.376 . S
C932 C933 1.388 . S
C933 H920 0.930 . S
C933 C932 1.388 . S
C933 C934 1.390 . S
C934 C933 1.390 . S
C934 C935 1.394 . S
C934 C940 1.465 . S
C935 C930 1.399 . S
C935 C934 1.394 . S
C935 C936 1.516 . S
C936 C935 1.516 . S
C936 C937 1.502 . S
C936 C938 1.561 . S
C936 C939 1.526 . S
C937 H921 0.959 . S
C937 H922 0.959 . S
C937 H923 0.961 . S
C937 C936 1.502 . S
C938 H924 0.960 . S
C938 H925 0.961 . S
C938 H926 0.959 . S
C938 C936 1.561 . S
C939 C936 1.526 . S
C939 C940 1.396 . S
C939 C944 1.390 . S
C940 C934 1.465 . S
C940 C939 1.396 . S
C940 C941 1.399 . S
C941 H927 0.929 . S
C941 C940 1.399 . S
C941 C942 1.385 . S
C942 H928 0.931 . S
C942 C941 1.385 . S
C942 C943 1.389 . S
C943 C942 1.389 . S
C943 C944 1.387 . S
C944 H929 0.930 . S
C944 C939 1.390 . S
C944 C943 1.387 . S
H945 C957 0.930 . S
H946 C959 0.930 . S
H947 C960 0.930 . S
H948 C964 0.959 . S
H949 C964 0.959 . S
H950 C964 0.961 . S
H951 C965 0.960 . S
H952 C965 0.961 . S
H953 C965 0.959 . S
H954 C968 0.929 . S
H955 C969 0.931 . S
H956 C971 0.930 . S
C957 H945 0.930 . S
C957 C958 1.399 . S
C957 C962 1.399 . S
C958 C957 1.399 . S
C958 C959 1.376 . S
C959 H946 0.930 . S
C959 C958 1.376 . S
C959 C960 1.388 . S
C960 H947 0.930 . S
C960 C959 1.388 . S
C960 C961 1.390 . S
C961 C960 1.390 . S
C961 C962 1.394 . S
C961 C967 1.465 . S
C962 C957 1.399 . S
C962 C961 1.394 . S
C962 C963 1.516 . S
C963 C962 1.516 . S
C963 C964 1.502 1_545 S
C963 C965 1.561 . S
C963 C966 1.526 . S
C964 H948 0.959 . S
C964 H949 0.959 . S
C964 H950 0.961 . S
C964 C963 1.502 1_565 S
C965 H951 0.960 . S
C965 H952 0.961 . S
C965 H953 0.959 . S
C965 C963 1.561 . S
C966 C963 1.526 . S
C966 C967 1.396 . S
C966 C971 1.390 1_545 S
C967 C961 1.465 . S
C967 C966 1.396 . S
C967 C968 1.399 . S
C968 H954 0.929 . S
C968 C967 1.399 . S
C968 C969 1.385 1_545 S
C969 H955 0.931 . S
C969 C968 1.385 1_565 S
C969 C970 1.389 . S
C970 C969 1.389 . S
C970 C971 1.387 . S
C971 H956 0.930 . S
C971 C966 1.390 1_565 S
C971 C970 1.387 . S
H972 C984 0.930 . S
H973 C986 0.930 . S
H974 C987 0.930 . S
H975 C991 0.959 . S
H976 C991 0.959 . S
H977 C991 0.961 . S
H978 C992 0.960 . S
H979 C992 0.961 . S
H980 C992 0.959 1_655 S
H981 C995 0.929 . S
H982 C996 0.931 . S
H983 C998 0.930 . S
C984 H972 0.930 . S
C984 C985 1.399 . S
C984 C989 1.399 . S
C985 C984 1.399 . S
C985 C986 1.376 . S
C986 H973 0.930 . S
C986 C985 1.376 . S
C986 C987 1.388 1_455 S
C987 H974 0.930 . S
C987 C986 1.388 1_655 S
C987 C988 1.390 . S
C988 C987 1.390 . S
C988 C989 1.394 1_655 S
C988 C994 1.465 . S
C989 C984 1.399 . S
C989 C988 1.394 1_455 S
C989 C990 1.516 . S
C990 C989 1.516 . S
C990 C991 1.502 . S
C990 C992 1.561 . S
C990 C993 1.526 1_455 S
C991 H975 0.959 . S
C991 H976 0.959 . S
C991 H977 0.961 . S
C991 C990 1.502 . S
C992 H978 0.960 . S
C992 H979 0.961 . S
C992 H980 0.959 1_455 S
C992 C990 1.561 . S
C993 C990 1.526 1_655 S
C993 C994 1.396 . S
C993 C998 1.390 . S
C994 C988 1.465 . S
C994 C993 1.396 . S
C994 C995 1.399 . S
C995 H981 0.929 . S
C995 C994 1.399 . S
C995 C996 1.385 . S
C996 H982 0.931 . S
C996 C995 1.385 . S
C996 C997 1.389 . S
C997 C996 1.389 . S
C997 C998 1.387 . S
C998 H983 0.930 . S
C998 C993 1.390 . S
C998 C997 1.387 . S
H999 C1011 0.930 . S
H1000 C1013 0.930 . S
H1001 C1014 0.930 . S
H1002 C1018 0.959 . S
H1003 C1018 0.959 . S
H1004 C1018 0.961 . S
H1005 C1019 0.960 . S
H1006 C1019 0.961 . S
H1007 C1019 0.959 . S
H1008 C1022 0.929 . S
H1009 C1023 0.931 . S
H1010 C1025 0.930 . S
C1011 H999 0.930 . S
C1011 C1012 1.399 . S
C1011 C1016 1.399 . S
C1012 C1011 1.399 . S
C1012 C1013 1.376 . S
C1013 H1000 0.930 . S
C1013 C1012 1.376 . S
C1013 C1014 1.388 . S
C1014 H1001 0.930 . S
C1014 C1013 1.388 . S
C1014 C1015 1.390 . S
C1015 C1014 1.390 . S
C1015 C1016 1.394 . S
C1015 C1021 1.465 . S
C1016 C1011 1.399 . S
C1016 C1015 1.394 . S
C1016 C1017 1.516 . S
C1017 C1016 1.516 . S
C1017 C1018 1.502 . S
C1017 C1019 1.561 . S
C1017 C1020 1.526 . S
C1018 H1002 0.959 . S
C1018 H1003 0.959 . S
C1018 H1004 0.961 . S
C1018 C1017 1.502 . S
C1019 H1005 0.960 . S
C1019 H1006 0.961 . S
C1019 H1007 0.959 . S
C1019 C1017 1.561 . S
C1020 C1017 1.526 . S
C1020 C1021 1.396 . S
C1020 C1025 1.390 . S
C1021 C1015 1.465 . S
C1021 C1020 1.396 . S
C1021 C1022 1.399 . S
C1022 H1008 0.929 . S
C1022 C1021 1.399 . S
C1022 C1023 1.385 . S
C1023 H1009 0.931 . S
C1023 C1022 1.385 . S
C1023 C1024 1.389 . S
C1024 C1023 1.389 . S
C1024 C1025 1.387 . S
C1025 H1010 0.930 . S
C1025 C1020 1.390 . S
C1025 C1024 1.387 . S
H1026 C1038 0.930 . S
H1027 C1040 0.930 . S
H1028 C1041 0.930 . S
H1029 C1045 0.959 . S
H1030 C1045 0.959 . S
H1031 C1045 0.961 . S
H1032 C1046 0.960 . S
H1033 C1046 0.961 . S
H1034 C1046 0.959 . S
H1035 C1049 0.929 . S
H1036 C1050 0.931 . S
H1037 C1052 0.930 . S
C1038 H1026 0.930 . S
C1038 C1039 1.399 . S
C1038 C1043 1.399 . S
C1039 C1038 1.399 . S
C1039 C1040 1.376 . S
C1040 H1027 0.930 . S
C1040 C1039 1.376 . S
C1040 C1041 1.388 . S
C1041 H1028 0.930 . S
C1041 C1040 1.388 . S
C1041 C1042 1.390 . S
C1042 C1041 1.390 . S
C1042 C1043 1.394 . S
C1042 C1048 1.465 . S
C1043 C1038 1.399 . S
C1043 C1042 1.394 . S
C1043 C1044 1.516 . S
C1044 C1043 1.516 . S
C1044 C1045 1.502 . S
C1044 C1046 1.561 . S
C1044 C1047 1.526 . S
C1045 H1029 0.959 . S
C1045 H1030 0.959 . S
C1045 H1031 0.961 . S
C1045 C1044 1.502 . S
C1046 H1032 0.960 . S
C1046 H1033 0.961 . S
C1046 H1034 0.959 . S
C1046 C1044 1.561 . S
C1047 C1044 1.526 . S
C1047 C1048 1.396 . S
C1047 C1052 1.390 . S
C1048 C1042 1.465 . S
C1048 C1047 1.396 . S
C1048 C1049 1.399 . S
C1049 H1035 0.929 . S
C1049 C1048 1.399 . S
C1049 C1050 1.385 . S
C1050 H1036 0.931 . S
C1050 C1049 1.385 . S
C1050 C1051 1.389 . S
C1051 C1050 1.389 . S
C1051 C1052 1.387 . S
C1052 H1037 0.930 . S
C1052 C1047 1.390 . S
C1052 C1051 1.387 . S
H1053 C1065 0.930 . S
H1054 C1067 0.930 . S
H1055 C1068 0.930 . S
H1056 C1072 0.959 . S
H1057 C1072 0.959 . S
H1058 C1072 0.961 . S
H1059 C1073 0.960 . S
H1060 C1073 0.961 . S
H1061 C1073 0.959 . S
H1062 C1076 0.929 . S
H1063 C1077 0.931 . S
H1064 C1079 0.930 . S
C1065 H1053 0.930 . S
C1065 C1066 1.399 . S
C1065 C1070 1.399 . S
C1066 C1065 1.399 . S
C1066 C1067 1.376 . S
C1067 H1054 0.930 . S
C1067 C1066 1.376 . S
C1067 C1068 1.388 . S
C1068 H1055 0.930 . S
C1068 C1067 1.388 . S
C1068 C1069 1.390 . S
C1069 C1068 1.390 . S
C1069 C1070 1.394 . S
C1069 C1075 1.465 . S
C1070 C1065 1.399 . S
C1070 C1069 1.394 . S
C1070 C1071 1.516 . S
C1071 C1070 1.516 . S
C1071 C1072 1.502 . S
C1071 C1073 1.561 . S
C1071 C1074 1.526 . S
C1072 H1056 0.959 . S
C1072 H1057 0.959 . S
C1072 H1058 0.961 . S
C1072 C1071 1.502 . S
C1073 H1059 0.960 . S
C1073 H1060 0.961 . S
C1073 H1061 0.959 . S
C1073 C1071 1.561 . S
C1074 C1071 1.526 . S
C1074 C1075 1.396 . S
C1074 C1079 1.390 . S
C1075 C1069 1.465 . S
C1075 C1074 1.396 . S
C1075 C1076 1.399 . S
C1076 H1062 0.929 . S
C1076 C1075 1.399 . S
C1076 C1077 1.385 . S
C1077 H1063 0.931 . S
C1077 C1076 1.385 . S
C1077 C1078 1.389 . S
C1078 C1077 1.389 . S
C1078 C1079 1.387 . S
C1079 H1064 0.930 . S
C1079 C1074 1.390 . S
C1079 C1078 1.387 . S
H1080 C1092 0.930 . S
H1081 C1094 0.930 . S
H1082 C1095 0.930 . S
H1083 C1099 0.959 . S
H1084 C1099 0.959 . S
H1085 C1099 0.961 . S
H1086 C1100 0.960 . S
H1087 C1100 0.961 . S
H1088 C1100 0.959 . S
H1089 C1103 0.929 . S
H1090 C1104 0.931 . S
H1091 C1106 0.930 . S
C1092 H1080 0.930 . S
C1092 C1093 1.399 . S
C1092 C1097 1.399 . S
C1093 C1092 1.399 . S
C1093 C1094 1.376 . S
C1094 H1081 0.930 . S
C1094 C1093 1.376 . S
C1094 C1095 1.388 . S
C1095 H1082 0.930 . S
C1095 C1094 1.388 . S
C1095 C1096 1.390 . S
C1096 C1095 1.390 . S
C1096 C1097 1.394 . S
C1096 C1102 1.465 . S
C1097 C1092 1.399 . S
C1097 C1096 1.394 . S
C1097 C1098 1.516 . S
C1098 C1097 1.516 . S
C1098 C1099 1.502 . S
C1098 C1100 1.561 . S
C1098 C1101 1.526 . S
C1099 H1083 0.959 . S
C1099 H1084 0.959 . S
C1099 H1085 0.961 . S
C1099 C1098 1.502 . S
C1100 H1086 0.960 . S
C1100 H1087 0.961 . S
C1100 H1088 0.959 . S
C1100 C1098 1.561 . S
C1101 C1098 1.526 . S
C1101 C1102 1.396 . S
C1101 C1106 1.390 . S
C1102 C1096 1.465 . S
C1102 C1101 1.396 . S
C1102 C1103 1.399 . S
C1103 H1089 0.929 . S
C1103 C1102 1.399 . S
C1103 C1104 1.385 . S
C1104 H1090 0.931 . S
C1104 C1103 1.385 . S
C1104 C1105 1.389 . S
C1105 C1104 1.389 . S
C1105 C1106 1.387 . S
C1106 H1091 0.930 . S
C1106 C1101 1.390 . S
C1106 C1105 1.387 . S
H1107 C1119 0.930 . S
H1108 C1121 0.930 . S
H1109 C1122 0.930 . S
H1110 C1126 0.959 . S
H1111 C1126 0.959 . S
H1112 C1126 0.961 . S
H1113 C1127 0.960 . S
H1114 C1127 0.961 . S
H1115 C1127 0.959 . S
H1116 C1130 0.929 . S
H1117 C1131 0.931 . S
H1118 C1133 0.930 . S
C1119 H1107 0.930 . S
C1119 C1120 1.399 . S
C1119 C1124 1.399 . S
C1120 C1119 1.399 . S
C1120 C1121 1.376 . S
C1121 H1108 0.930 . S
C1121 C1120 1.376 . S
C1121 C1122 1.388 . S
C1122 H1109 0.930 . S
C1122 C1121 1.388 . S
C1122 C1123 1.390 . S
C1123 C1122 1.390 . S
C1123 C1124 1.394 . S
C1123 C1129 1.465 . S
C1124 C1119 1.399 . S
C1124 C1123 1.394 . S
C1124 C1125 1.516 . S
C1125 C1124 1.516 . S
C1125 C1126 1.502 . S
C1125 C1127 1.561 . S
C1125 C1128 1.526 . S
C1126 H1110 0.959 . S
C1126 H1111 0.959 . S
C1126 H1112 0.961 . S
C1126 C1125 1.502 . S
C1127 H1113 0.960 . S
C1127 H1114 0.961 . S
C1127 H1115 0.959 . S
C1127 C1125 1.561 . S
C1128 C1125 1.526 . S
C1128 C1129 1.396 . S
C1128 C1133 1.390 . S
C1129 C1123 1.465 . S
C1129 C1128 1.396 . S
C1129 C1130 1.399 . S
C1130 H1116 0.929 . S
C1130 C1129 1.399 . S
C1130 C1131 1.385 . S
C1131 H1117 0.931 . S
C1131 C1130 1.385 . S
C1131 C1132 1.389 . S
C1132 C1131 1.389 . S
C1132 C1133 1.387 . S
C1133 H1118 0.930 . S
C1133 C1128 1.390 . S
C1133 C1132 1.387 . S
H1134 C1146 0.930 . S
H1135 C1148 0.930 . S
H1136 C1149 0.930 . S
H1137 C1153 0.959 . S
H1138 C1153 0.959 . S
H1139 C1153 0.961 . S
H1140 C1154 0.960 . S
H1141 C1154 0.961 . S
H1142 C1154 0.959 . S
H1143 C1157 0.929 . S
H1144 C1158 0.931 . S
H1145 C1160 0.930 . S
C1146 H1134 0.930 . S
C1146 C1147 1.399 . S
C1146 C1151 1.399 . S
C1147 C1146 1.399 . S
C1147 C1148 1.376 . S
C1148 H1135 0.930 . S
C1148 C1147 1.376 . S
C1148 C1149 1.388 . S
C1149 H1136 0.930 . S
C1149 C1148 1.388 . S
C1149 C1150 1.390 . S
C1150 C1149 1.390 . S
C1150 C1151 1.394 . S
C1150 C1156 1.465 . S
C1151 C1146 1.399 . S
C1151 C1150 1.394 . S
C1151 C1152 1.516 . S
C1152 C1151 1.516 . S
C1152 C1153 1.502 . S
C1152 C1154 1.561 . S
C1152 C1155 1.526 . S
C1153 H1137 0.959 . S
C1153 H1138 0.959 . S
C1153 H1139 0.961 . S
C1153 C1152 1.502 . S
C1154 H1140 0.960 . S
C1154 H1141 0.961 . S
C1154 H1142 0.959 . S
C1154 C1152 1.561 . S
C1155 C1152 1.526 . S
C1155 C1156 1.396 . S
C1155 C1160 1.390 . S
C1156 C1150 1.465 . S
C1156 C1155 1.396 . S
C1156 C1157 1.399 . S
C1157 H1143 0.929 . S
C1157 C1156 1.399 . S
C1157 C1158 1.385 . S
C1158 H1144 0.931 . S
C1158 C1157 1.385 . S
C1158 C1159 1.389 . S
C1159 C1158 1.389 . S
C1159 C1160 1.387 . S
C1160 H1145 0.930 . S
C1160 C1155 1.390 . S
C1160 C1159 1.387 . S
H1161 C1173 0.930 . S
H1162 C1175 0.930 . S
H1163 C1176 0.930 . S
H1164 C1180 0.959 . S
H1165 C1180 0.959 1_545 S
H1166 C1180 0.961 . S
H1167 C1181 0.960 1_565 S
H1168 C1181 0.961 . S
H1169 C1181 0.959 . S
H1170 C1184 0.929 . S
H1171 C1185 0.931 . S
H1172 C1187 0.930 . S
C1173 H1161 0.930 . S
C1173 C1174 1.399 . S
C1173 C1178 1.399 . S
C1174 C1173 1.399 . S
C1174 C1175 1.376 . S
C1175 H1162 0.930 . S
C1175 C1174 1.376 . S
C1175 C1176 1.388 . S
C1176 H1163 0.930 . S
C1176 C1175 1.388 . S
C1176 C1177 1.390 . S
C1177 C1176 1.390 . S
C1177 C1178 1.394 . S
C1177 C1183 1.465 1_565 S
C1178 C1173 1.399 . S
C1178 C1177 1.394 . S
C1178 C1179 1.516 . S
C1179 C1178 1.516 . S
C1179 C1180 1.502 . S
C1179 C1181 1.561 1_565 S
C1179 C1182 1.526 1_565 S
C1180 H1164 0.959 . S
C1180 H1165 0.959 1_565 S
C1180 H1166 0.961 . S
C1180 C1179 1.502 . S
C1181 H1167 0.960 1_545 S
C1181 H1168 0.961 . S
C1181 H1169 0.959 . S
C1181 C1179 1.561 1_545 S
C1182 C1179 1.526 1_545 S
C1182 C1183 1.396 . S
C1182 C1187 1.390 . S
C1183 C1177 1.465 1_545 S
C1183 C1182 1.396 . S
C1183 C1184 1.399 . S
C1184 H1170 0.929 . S
C1184 C1183 1.399 . S
C1184 C1185 1.385 . S
C1185 H1171 0.931 . S
C1185 C1184 1.385 . S
C1185 C1186 1.389 . S
C1186 C1185 1.389 . S
C1186 C1187 1.387 . S
C1187 H1172 0.930 . S
C1187 C1182 1.390 . S
C1187 C1186 1.387 . S
H1188 C1200 0.930 . S
H1189 C1202 0.930 . S
H1190 C1203 0.930 . S
H1191 C1207 0.959 . S
H1192 C1207 0.959 . S
H1193 C1207 0.961 1_655 S
H1194 C1208 0.960 . S
H1195 C1208 0.961 1_455 S
H1196 C1208 0.959 . S
H1197 C1211 0.929 . S
H1198 C1212 0.931 . S
H1199 C1214 0.930 . S
C1200 H1188 0.930 . S
C1200 C1201 1.399 . S
C1200 C1205 1.399 . S
C1201 C1200 1.399 . S
C1201 C1202 1.376 . S
C1202 H1189 0.930 . S
C1202 C1201 1.376 . S
C1202 C1203 1.388 . S
C1203 H1190 0.930 . S
C1203 C1202 1.388 . S
C1203 C1204 1.390 . S
C1204 C1203 1.390 . S
C1204 C1205 1.394 . S
C1204 C1210 1.465 1_655 S
C1205 C1200 1.399 . S
C1205 C1204 1.394 . S
C1205 C1206 1.516 1_655 S
C1206 C1205 1.516 1_455 S
C1206 C1207 1.502 . S
C1206 C1208 1.561 1_455 S
C1206 C1209 1.526 . S
C1207 H1191 0.959 . S
C1207 H1192 0.959 . S
C1207 H1193 0.961 1_455 S
C1207 C1206 1.502 . S
C1208 H1194 0.960 . S
C1208 H1195 0.961 1_655 S
C1208 H1196 0.959 . S
C1208 C1206 1.561 1_655 S
C1209 C1206 1.526 . S
C1209 C1210 1.396 . S
C1209 C1214 1.390 . S
C1210 C1204 1.465 1_455 S
C1210 C1209 1.396 . S
C1210 C1211 1.399 . S
C1211 H1197 0.929 . S
C1211 C1210 1.399 . S
C1211 C1212 1.385 . S
C1212 H1198 0.931 . S
C1212 C1211 1.385 . S
C1212 C1213 1.389 . S
C1213 C1212 1.389 . S
C1213 C1214 1.387 . S
C1214 H1199 0.930 . S
C1214 C1209 1.390 . S
C1214 C1213 1.387 . S
H1215 C1227 0.930 . S
H1216 C1229 0.930 . S
H1217 C1230 0.930 . S
H1218 C1234 0.959 . S
H1219 C1234 0.959 . S
H1220 C1234 0.961 . S
H1221 C1235 0.960 . S
H1222 C1235 0.961 . S
H1223 C1235 0.959 . S
H1224 C1238 0.929 . S
H1225 C1239 0.931 . S
H1226 C1241 0.930 . S
C1227 H1215 0.930 . S
C1227 C1228 1.399 . S
C1227 C1232 1.399 . S
C1228 C1227 1.399 . S
C1228 C1229 1.376 . S
C1229 H1216 0.930 . S
C1229 C1228 1.376 . S
C1229 C1230 1.388 . S
C1230 H1217 0.930 . S
C1230 C1229 1.388 . S
C1230 C1231 1.390 . S
C1231 C1230 1.390 . S
C1231 C1232 1.394 . S
C1231 C1237 1.465 . S
C1232 C1227 1.399 . S
C1232 C1231 1.394 . S
C1232 C1233 1.516 . S
C1233 C1232 1.516 . S
C1233 C1234 1.502 . S
C1233 C1235 1.561 . S
C1233 C1236 1.526 . S
C1234 H1218 0.959 . S
C1234 H1219 0.959 . S
C1234 H1220 0.961 . S
C1234 C1233 1.502 . S
C1235 H1221 0.960 . S
C1235 H1222 0.961 . S
C1235 H1223 0.959 . S
C1235 C1233 1.561 . S
C1236 C1233 1.526 . S
C1236 C1237 1.396 . S
C1236 C1241 1.390 . S
C1237 C1231 1.465 . S
C1237 C1236 1.396 . S
C1237 C1238 1.399 . S
C1238 H1224 0.929 . S
C1238 C1237 1.399 . S
C1238 C1239 1.385 . S
C1239 H1225 0.931 . S
C1239 C1238 1.385 . S
C1239 C1240 1.389 . S
C1240 C1239 1.389 . S
C1240 C1241 1.387 . S
C1241 H1226 0.930 . S
C1241 C1236 1.390 . S
C1241 C1240 1.387 . S
H1242 C1254 0.930 . S
H1243 C1256 0.930 . S
H1244 C1257 0.930 . S
H1245 C1261 0.959 . S
H1246 C1261 0.959 . S
H1247 C1261 0.961 . S
H1248 C1262 0.960 . S
H1249 C1262 0.961 . S
H1250 C1262 0.959 . S
H1251 C1265 0.929 . S
H1252 C1266 0.931 . S
H1253 C1268 0.930 . S
C1254 H1242 0.930 . S
C1254 C1255 1.399 . S
C1254 C1259 1.399 . S
C1255 C1254 1.399 . S
C1255 C1256 1.376 . S
C1256 H1243 0.930 . S
C1256 C1255 1.376 . S
C1256 C1257 1.388 . S
C1257 H1244 0.930 . S
C1257 C1256 1.388 . S
C1257 C1258 1.390 . S
C1258 C1257 1.390 . S
C1258 C1259 1.394 . S
C1258 C1264 1.465 . S
C1259 C1254 1.399 . S
C1259 C1258 1.394 . S
C1259 C1260 1.516 . S
C1260 C1259 1.516 . S
C1260 C1261 1.502 . S
C1260 C1262 1.561 . S
C1260 C1263 1.526 . S
C1261 H1245 0.959 . S
C1261 H1246 0.959 . S
C1261 H1247 0.961 . S
C1261 C1260 1.502 . S
C1262 H1248 0.960 . S
C1262 H1249 0.961 . S
C1262 H1250 0.959 . S
C1262 C1260 1.561 . S
C1263 C1260 1.526 . S
C1263 C1264 1.396 . S
C1263 C1268 1.390 . S
C1264 C1258 1.465 . S
C1264 C1263 1.396 . S
C1264 C1265 1.399 . S
C1265 H1251 0.929 . S
C1265 C1264 1.399 . S
C1265 C1266 1.385 . S
C1266 H1252 0.931 . S
C1266 C1265 1.385 . S
C1266 C1267 1.389 . S
C1267 C1266 1.389 . S
C1267 C1268 1.387 . S
C1268 H1253 0.930 . S
C1268 C1263 1.390 . S
C1268 C1267 1.387 . S
H1269 C1281 0.930 . S
H1270 C1283 0.930 . S
H1271 C1284 0.930 . S
H1272 C1288 0.959 . S
H1273 C1288 0.959 . S
H1274 C1288 0.961 . S
H1275 C1289 0.960 . S
H1276 C1289 0.961 . S
H1277 C1289 0.959 . S
H1278 C1292 0.929 . S
H1279 C1293 0.931 . S
H1280 C1295 0.930 . S
C1281 H1269 0.930 . S
C1281 C1282 1.399 . S
C1281 C1286 1.399 . S
C1282 C1281 1.399 . S
C1282 C1283 1.376 . S
C1283 H1270 0.930 . S
C1283 C1282 1.376 . S
C1283 C1284 1.388 . S
C1284 H1271 0.930 . S
C1284 C1283 1.388 . S
C1284 C1285 1.390 . S
C1285 C1284 1.390 . S
C1285 C1286 1.394 . S
C1285 C1291 1.465 . S
C1286 C1281 1.399 . S
C1286 C1285 1.394 . S
C1286 C1287 1.516 . S
C1287 C1286 1.516 . S
C1287 C1288 1.502 . S
C1287 C1289 1.561 . S
C1287 C1290 1.526 . S
C1288 H1272 0.959 . S
C1288 H1273 0.959 . S
C1288 H1274 0.961 . S
C1288 C1287 1.502 . S
C1289 H1275 0.960 . S
C1289 H1276 0.961 . S
C1289 H1277 0.959 . S
C1289 C1287 1.561 . S
C1290 C1287 1.526 . S
C1290 C1291 1.396 . S
C1290 C1295 1.390 . S
C1291 C1285 1.465 . S
C1291 C1290 1.396 . S
C1291 C1292 1.399 . S
C1292 H1278 0.929 . S
C1292 C1291 1.399 . S
C1292 C1293 1.385 . S
C1293 H1279 0.931 . S
C1293 C1292 1.385 . S
C1293 C1294 1.389 . S
C1294 C1293 1.389 . S
C1294 C1295 1.387 . S
C1295 H1280 0.930 . S
C1295 C1290 1.390 . S
C1295 C1294 1.387 . S
H1296 C1308 0.930 . S
H1297 C1310 0.930 . S
H1298 C1311 0.930 . S
H1299 C1315 0.959 . S
H1300 C1315 0.959 . S
H1301 C1315 0.961 . S
H1302 C1316 0.960 . S
H1303 C1316 0.961 . S
H1304 C1316 0.959 . S
H1305 C1319 0.929 . S
H1306 C1320 0.931 . S
H1307 C1322 0.930 . S
C1308 H1296 0.930 . S
C1308 C1309 1.399 . S
C1308 C1313 1.399 . S
C1309 C1308 1.399 . S
C1309 C1310 1.376 . S
C1310 H1297 0.930 . S
C1310 C1309 1.376 . S
C1310 C1311 1.388 . S
C1311 H1298 0.930 . S
C1311 C1310 1.388 . S
C1311 C1312 1.390 . S
C1312 C1311 1.390 . S
C1312 C1313 1.394 . S
C1312 C1318 1.465 . S
C1313 C1308 1.399 . S
C1313 C1312 1.394 . S
C1313 C1314 1.516 . S
C1314 C1313 1.516 . S
C1314 C1315 1.502 . S
C1314 C1316 1.561 . S
C1314 C1317 1.526 . S
C1315 H1299 0.959 . S
C1315 H1300 0.959 . S
C1315 H1301 0.961 . S
C1315 C1314 1.502 . S
C1316 H1302 0.960 . S
C1316 H1303 0.961 . S
C1316 H1304 0.959 . S
C1316 C1314 1.561 . S
C1317 C1314 1.526 . S
C1317 C1318 1.396 . S
C1317 C1322 1.390 . S
C1318 C1312 1.465 . S
C1318 C1317 1.396 . S
C1318 C1319 1.399 . S
C1319 H1305 0.929 . S
C1319 C1318 1.399 . S
C1319 C1320 1.385 . S
C1320 H1306 0.931 . S
C1320 C1319 1.385 . S
C1320 C1321 1.389 . S
C1321 C1320 1.389 . S
C1321 C1322 1.387 . S
C1322 H1307 0.930 . S
C1322 C1317 1.390 . S
C1322 C1321 1.387 . S
H1323 C1335 0.930 . S
H1324 C1337 0.930 . S
H1325 C1338 0.930 . S
H1326 C1342 0.959 . S
H1327 C1342 0.959 . S
H1328 C1342 0.961 . S
H1329 C1343 0.960 . S
H1330 C1343 0.961 . S
H1331 C1343 0.959 . S
H1332 C1346 0.929 . S
H1333 C1347 0.931 . S
H1334 C1349 0.930 . S
C1335 H1323 0.930 . S
C1335 C1336 1.399 . S
C1335 C1340 1.399 . S
C1336 C1335 1.399 . S
C1336 C1337 1.376 . S
C1337 H1324 0.930 . S
C1337 C1336 1.376 . S
C1337 C1338 1.388 . S
C1338 H1325 0.930 . S
C1338 C1337 1.388 . S
C1338 C1339 1.390 . S
C1339 C1338 1.390 . S
C1339 C1340 1.394 . S
C1339 C1345 1.465 . S
C1340 C1335 1.399 . S
C1340 C1339 1.394 . S
C1340 C1341 1.516 . S
C1341 C1340 1.516 . S
C1341 C1342 1.502 . S
C1341 C1343 1.561 . S
C1341 C1344 1.526 . S
C1342 H1326 0.959 . S
C1342 H1327 0.959 . S
C1342 H1328 0.961 . S
C1342 C1341 1.502 . S
C1343 H1329 0.960 . S
C1343 H1330 0.961 . S
C1343 H1331 0.959 . S
C1343 C1341 1.561 . S
C1344 C1341 1.526 . S
C1344 C1345 1.396 . S
C1344 C1349 1.390 . S
C1345 C1339 1.465 . S
C1345 C1344 1.396 . S
C1345 C1346 1.399 . S
C1346 H1332 0.929 . S
C1346 C1345 1.399 . S
C1346 C1347 1.385 . S
C1347 H1333 0.931 . S
C1347 C1346 1.385 . S
C1347 C1348 1.389 . S
C1348 C1347 1.389 . S
C1348 C1349 1.387 . S
C1349 H1334 0.930 . S
C1349 C1344 1.390 . S
C1349 C1348 1.387 . S
H1350 C1362 0.930 . S
H1351 C1364 0.930 . S
H1352 C1365 0.930 . S
H1353 C1369 0.959 . S
H1354 C1369 0.959 . S
H1355 C1369 0.961 . S
H1356 C1370 0.960 . S
H1357 C1370 0.961 . S
H1358 C1370 0.959 . S
H1359 C1373 0.929 . S
H1360 C1374 0.931 . S
H1361 C1376 0.930 . S
C1362 H1350 0.930 . S
C1362 C1363 1.399 . S
C1362 C1367 1.399 . S
C1363 C1362 1.399 . S
C1363 C1364 1.376 . S
C1364 H1351 0.930 . S
C1364 C1363 1.376 . S
C1364 C1365 1.388 . S
C1365 H1352 0.930 . S
C1365 C1364 1.388 . S
C1365 C1366 1.390 . S
C1366 C1365 1.390 . S
C1366 C1367 1.394 . S
C1366 C1372 1.465 . S
C1367 C1362 1.399 . S
C1367 C1366 1.394 . S
C1367 C1368 1.516 . S
C1368 C1367 1.516 . S
C1368 C1369 1.502 . S
C1368 C1370 1.561 . S
C1368 C1371 1.526 . S
C1369 H1353 0.959 . S
C1369 H1354 0.959 . S
C1369 H1355 0.961 . S
C1369 C1368 1.502 . S
C1370 H1356 0.960 . S
C1370 H1357 0.961 . S
C1370 H1358 0.959 . S
C1370 C1368 1.561 . S
C1371 C1368 1.526 . S
C1371 C1372 1.396 . S
C1371 C1376 1.390 . S
C1372 C1366 1.465 . S
C1372 C1371 1.396 . S
C1372 C1373 1.399 . S
C1373 H1359 0.929 . S
C1373 C1372 1.399 . S
C1373 C1374 1.385 . S
C1374 H1360 0.931 . S
C1374 C1373 1.385 . S
C1374 C1375 1.389 . S
C1375 C1374 1.389 . S
C1375 C1376 1.387 . S
C1376 H1361 0.930 . S
C1376 C1371 1.390 . S
C1376 C1375 1.387 . S
H1377 C1389 0.930 . S
H1378 C1391 0.930 . S
H1379 C1392 0.930 . S
H1380 C1396 0.959 . S
H1381 C1396 0.959 . S
H1382 C1396 0.961 . S
H1383 C1397 0.960 . S
H1384 C1397 0.961 . S
H1385 C1397 0.959 . S
H1386 C1400 0.929 . S
H1387 C1401 0.931 . S
H1388 C1403 0.930 . S
C1389 H1377 0.930 . S
C1389 C1390 1.399 . S
C1389 C1394 1.399 . S
C1390 C1389 1.399 . S
C1390 C1391 1.376 . S
C1391 H1378 0.930 . S
C1391 C1390 1.376 . S
C1391 C1392 1.388 . S
C1392 H1379 0.930 . S
C1392 C1391 1.388 . S
C1392 C1393 1.390 . S
C1393 C1392 1.390 . S
C1393 C1394 1.394 . S
C1393 C1399 1.465 . S
C1394 C1389 1.399 . S
C1394 C1393 1.394 . S
C1394 C1395 1.516 . S
C1395 C1394 1.516 . S
C1395 C1396 1.502 . S
C1395 C1397 1.561 . S
C1395 C1398 1.526 . S
C1396 H1380 0.959 . S
C1396 H1381 0.959 . S
C1396 H1382 0.961 . S
C1396 C1395 1.502 . S
C1397 H1383 0.960 . S
C1397 H1384 0.961 . S
C1397 H1385 0.959 . S
C1397 C1395 1.561 . S
C1398 C1395 1.526 . S
C1398 C1399 1.396 . S
C1398 C1403 1.390 . S
C1399 C1393 1.465 . S
C1399 C1398 1.396 . S
C1399 C1400 1.399 . S
C1400 H1386 0.929 . S
C1400 C1399 1.399 . S
C1400 C1401 1.385 . S
C1401 H1387 0.931 . S
C1401 C1400 1.385 . S
C1401 C1402 1.389 . S
C1402 C1401 1.389 . S
C1402 C1403 1.387 . S
C1403 H1388 0.930 . S
C1403 C1398 1.390 . S
C1403 C1402 1.387 . S
H1404 C1416 0.930 . S
H1405 C1418 0.930 . S
H1406 C1419 0.930 . S
H1407 C1423 0.959 . S
H1408 C1423 0.959 . S
H1409 C1423 0.961 . S
H1410 C1424 0.960 . S
H1411 C1424 0.961 . S
H1412 C1424 0.959 . S
H1413 C1427 0.929 . S
H1414 C1428 0.931 . S
H1415 C1430 0.930 . S
C1416 H1404 0.930 . S
C1416 C1417 1.399 . S
C1416 C1421 1.399 . S
C1417 C1416 1.399 . S
C1417 C1418 1.376 . S
C1418 H1405 0.930 . S
C1418 C1417 1.376 . S
C1418 C1419 1.388 . S
C1419 H1406 0.930 . S
C1419 C1418 1.388 . S
C1419 C1420 1.390 . S
C1420 C1419 1.390 . S
C1420 C1421 1.394 . S
C1420 C1426 1.465 . S
C1421 C1416 1.399 . S
C1421 C1420 1.394 . S
C1421 C1422 1.516 . S
C1422 C1421 1.516 . S
C1422 C1423 1.502 . S
C1422 C1424 1.561 . S
C1422 C1425 1.526 . S
C1423 H1407 0.959 . S
C1423 H1408 0.959 . S
C1423 H1409 0.961 . S
C1423 C1422 1.502 . S
C1424 H1410 0.960 . S
C1424 H1411 0.961 . S
C1424 H1412 0.959 . S
C1424 C1422 1.561 . S
C1425 C1422 1.526 . S
C1425 C1426 1.396 . S
C1425 C1430 1.390 . S
C1426 C1420 1.465 . S
C1426 C1425 1.396 . S
C1426 C1427 1.399 . S
C1427 H1413 0.929 . S
C1427 C1426 1.399 . S
C1427 C1428 1.385 . S
C1428 H1414 0.931 . S
C1428 C1427 1.385 . S
C1428 C1429 1.389 . S
C1429 C1428 1.389 . S
C1429 C1430 1.387 . S
C1430 H1415 0.930 . S
C1430 C1425 1.390 . S
C1430 C1429 1.387 . S
H1431 C1443 0.930 . S
H1432 C1445 0.930 . S
H1433 C1446 0.930 . S
H1434 C1450 0.959 . S
H1435 C1450 0.959 . S
H1436 C1450 0.961 . S
H1437 C1451 0.960 . S
H1438 C1451 0.961 . S
H1439 C1451 0.959 . S
H1440 C1454 0.929 1_565 S
H1441 C1455 0.931 . S
H1442 C1457 0.930 . S
C1443 H1431 0.930 . S
C1443 C1444 1.399 . S
C1443 C1448 1.399 . S
C1444 C1443 1.399 . S
C1444 C1445 1.376 . S
C1445 H1432 0.930 . S
C1445 C1444 1.376 . S
C1445 C1446 1.388 . S
C1446 H1433 0.930 . S
C1446 C1445 1.388 . S
C1446 C1447 1.390 . S
C1447 C1446 1.390 . S
C1447 C1448 1.394 . S
C1447 C1453 1.465 1_565 S
C1448 C1443 1.399 . S
C1448 C1447 1.394 . S
C1448 C1449 1.516 1_565 S
C1449 C1448 1.516 1_545 S
C1449 C1450 1.502 . S
C1449 C1451 1.561 . S
C1449 C1452 1.526 . S
C1450 H1434 0.959 . S
C1450 H1435 0.959 . S
C1450 H1436 0.961 . S
C1450 C1449 1.502 . S
C1451 H1437 0.960 . S
C1451 H1438 0.961 . S
C1451 H1439 0.959 . S
C1451 C1449 1.561 . S
C1452 C1449 1.526 . S
C1452 C1453 1.396 . S
C1452 C1457 1.390 . S
C1453 C1447 1.465 1_545 S
C1453 C1452 1.396 . S
C1453 C1454 1.399 . S
C1454 H1440 0.929 1_545 S
C1454 C1453 1.399 . S
C1454 C1455 1.385 . S
C1455 H1441 0.931 . S
C1455 C1454 1.385 . S
C1455 C1456 1.389 . S
C1456 C1455 1.389 . S
C1456 C1457 1.387 . S
C1457 H1442 0.930 . S
C1457 C1452 1.390 . S
C1457 C1456 1.387 . S
H1458 C1470 0.930 . S
H1459 C1472 0.930 . S
H1460 C1473 0.930 . S
H1461 C1477 0.959 . S
H1462 C1477 0.959 . S
H1463 C1477 0.961 . S
H1464 C1478 0.960 . S
H1465 C1478 0.965 . S
H1466 C1478 0.959 . S
H1467 C1481 0.929 . S
H1468 C1482 0.931 . S
H1469 C1484 0.930 . S
C1470 H1458 0.930 . S
C1470 C1471 1.399 . S
C1470 C1475 1.399 . S
C1471 C1470 1.399 . S
C1471 C1472 1.376 . S
C1472 H1459 0.930 . S
C1472 C1471 1.376 . S
C1472 C1473 1.388 . S
C1473 H1460 0.930 . S
C1473 C1472 1.388 . S
C1473 C1474 1.390 . S
C1474 C1473 1.390 . S
C1474 C1475 1.394 . S
C1474 C1480 1.465 1_655 S
C1475 C1470 1.399 . S
C1475 C1474 1.394 . S
C1475 C1476 1.516 1_655 S
C1476 C1475 1.516 1_455 S
C1476 C1477 1.502 . S
C1476 C1478 1.561 1_455 S
C1476 C1479 1.526 . S
C1477 H1461 0.959 . S
C1477 H1462 0.959 . S
C1477 H1463 0.961 . S
C1477 C1476 1.502 . S
C1478 H1464 0.960 . S
C1478 H1465 0.965 . S
C1478 H1466 0.959 . S
C1478 C1476 1.561 1_655 S
C1479 C1476 1.526 . S
C1479 C1480 1.396 . S
C1479 C1484 1.390 . S
C1480 C1474 1.465 1_455 S
C1480 C1479 1.396 . S
C1480 C1481 1.399 . S
C1481 H1467 0.929 . S
C1481 C1480 1.399 . S
C1481 C1482 1.385 . S
C1482 H1468 0.931 . S
C1482 C1481 1.385 . S
C1482 C1483 1.389 . S
C1483 C1482 1.389 . S
C1483 C1484 1.387 . S
C1484 H1469 0.930 . S
C1484 C1479 1.390 . S
C1484 C1483 1.387 . S
C769 C156 1.259 . S
C781 C67 1.300 1_554 S
C796 C240 1.169 . S
C808 C151 1.292 . S
C823 C235 1.380 1_554 S
C835 C72 1.175 . S
C850 C231 1.241 . S
C862 C140 1.321 1_556 S
C877 C224 1.301 . S
C889 C63 1.115 . S
C904 C56 1.316 . S
C916 C147 1.094 . S
C931 C319 1.395 . S
C943 C408 1.116 . S
C958 C492 1.141 . S
C970 C403 1.390 . S
C985 C487 1.393 . S
C997 C324 1.099 . S
C1012 C392 1.350 . S
C1024 C483 1.229 . S
C1039 C476 1.350 . S
C1051 C315 1.173 . S
C1066 C399 1.229 . S
C1078 C308 1.315 . S
C1093 C660 1.170 . S
C1105 C571 1.381 . S
C1120 C655 1.295 . S
C1132 C744 1.257 . S
C1147 C739 1.395 . S
C1159 C576 1.112 . S
C1174 C735 1.245 . S
C1186 C644 1.323 . S
C1201 C728 1.301 . S
C1213 C567 1.117 . S
C1228 C560 1.302 . S
C1240 C651 1.110 . S
C1255 C495 2.524 . S
C1267 C66 2.608 . S
C1282 C327 2.552 . S
C1294 C150 2.595 . S
C1309 C234 2.625 . S
C1321 C411 2.531 . S
C1336 C243 2.579 . S
C1348 C570 2.610 . S
C1363 C75 2.586 . S
C1375 C654 2.626 . S
C1390 C738 2.628 . S
C1402 C159 2.532 . S
C1417 C318 2.627 . S
C1429 C747 2.586 . S
C1444 C402 2.644 . S
C1456 C579 2.566 . S
C1471 C663 2.538 . S
C1483 C486 2.595 . S
