# Generated by pormake.
# Topology msp, (4)-cn, num edge types: 1
# Building blocks:
#     Node 0, Type 0, BuildingBlock: NAWXER_clean_sbu_0, # of connection points: 4
#     Node 1, Type 0, BuildingBlock: NAWXER_clean_sbu_0, # of connection points: 4
#     Node 2, Type 0, BuildingBlock: NAWXER_clean_sbu_0, # of connection points: 4
#     Node 3, Type 0, BuildingBlock: NAWXER_clean_sbu_0, # of connection points: 4
#     Node 4, Type 0, BuildingBlock: NAWXER_clean_sbu_0, # of connection points: 4
#     Node 5, Type 0, BuildingBlock: NAWXER_clean_sbu_0, # of connection points: 4
#     Node 6, Type 0, BuildingBlock: NAWXER_clean_sbu_0, # of connection points: 4
#     Node 7, Type 0, BuildingBlock: NAWXER_clean_sbu_0, # of connection points: 4
#     Edge 8, Type (0, 0), BuildingBlock: XUDNAN_clean_linker_2, # of connection points: 2
#     Edge 9, Type (0, 0), BuildingBlock: XUDNAN_clean_linker_2, # of connection points: 2
#     Edge 10, Type (0, 0), BuildingBlock: XUDNAN_clean_linker_2, # of connection points: 2
#     Edge 11, Type (0, 0), BuildingBlock: XUDNAN_clean_linker_2, # of connection points: 2
#     Edge 12, Type (0, 0), BuildingBlock: XUDNAN_clean_linker_2, # of connection points: 2
#     Edge 13, Type (0, 0), BuildingBlock: XUDNAN_clean_linker_2, # of connection points: 2
#     Edge 14, Type (0, 0), BuildingBlock: XUDNAN_clean_linker_2, # of connection points: 2
#     Edge 15, Type (0, 0), BuildingBlock: XUDNAN_clean_linker_2, # of connection points: 2
#     Edge 16, Type (0, 0), BuildingBlock: XUDNAN_clean_linker_2, # of connection points: 2
#     Edge 17, Type (0, 0), BuildingBlock: XUDNAN_clean_linker_2, # of connection points: 2
#     Edge 18, Type (0, 0), BuildingBlock: XUDNAN_clean_linker_2, # of connection points: 2
#     Edge 19, Type (0, 0), BuildingBlock: XUDNAN_clean_linker_2, # of connection points: 2
#     Edge 20, Type (0, 0), BuildingBlock: XUDNAN_clean_linker_2, # of connection points: 2
#     Edge 21, Type (0, 0), BuildingBlock: XUDNAN_clean_linker_2, # of connection points: 2
#     Edge 22, Type (0, 0), BuildingBlock: XUDNAN_clean_linker_2, # of connection points: 2
#     Edge 23, Type (0, 0), BuildingBlock: XUDNAN_clean_linker_2, # of connection points: 2
# Relax obj value: 0.113
# Max RMSD: 0.238
# Mean RMSD: 0.238
data_MOF--net-msp--node1-NAWXER_clean_sbu_0--edge1-XUDNAN_clean_linker_2
_symmetry_space_group_name_H-M    P1
_symmetry_Int_Tables_number       1
_symmetry_cell_setting            triclinic
loop_
_symmetry_equiv_pos_as_xyz
'x, y, z'
_cell_length_a     22.679569
_cell_length_b     19.402261
_cell_length_c     43.875312
_cell_angle_alpha  89.985032
_cell_angle_beta   100.04818
_cell_angle_gamma 90.123225
loop_
_atom_site_label
_atom_site_type_symbol
_atom_site_fract_x
_atom_site_fract_y
_atom_site_fract_z
_atom_type_partial_charge
C0 C 0.1436 0.28226 0.41314 0.0
C1 C 0.97249 0.24801 0.33123 0.0
O2 O 0.1311 0.33625 0.39638 0.0
Zn3 Zn 0.068 0.36538 0.35546 0.0
O4 O 0.11648 0.22587 0.40538 0.0
Zn5 Zn 0.06248 0.26459 0.37083 0.0
O6 O 0.1217 0.27751 0.33717 0.0
O7 O 0.11772 0.3882 0.32612 0.0
O8 O 0.99845 0.20591 0.35123 0.0
O9 O 0.99376 0.30909 0.33022 0.0
O10 O 0.03096 0.44154 0.37223 0.0
O11 O 0.01949 0.34355 0.39597 0.0
C12 C 0.1387 0.32893 0.3224 0.0
C13 C 0.01309 0.40942 0.39416 0.0
C14 C 0.38694 0.40644 0.6992 0.0
C15 C 0.49753 0.48572 0.62058 0.0
O16 O 0.41361 0.35544 0.68866 0.0
Zn17 Zn 0.47704 0.34397 0.65606 0.0
O18 O 0.39836 0.46742 0.69142 0.0
Zn19 Zn 0.45204 0.44533 0.66421 0.0
O20 O 0.39296 0.38796 0.62964 0.0
O21 O 0.43016 0.28358 0.62565 0.0
O22 O 0.47555 0.5202 0.64044 0.0
O23 O 0.50245 0.42006 0.62388 0.0
O24 O 0.55112 0.30876 0.68061 0.0
O25 O 0.52991 0.41319 0.69476 0.0
C26 C 0.38934 0.32804 0.61713 0.0
C27 C 0.56346 0.35984 0.69865 0.0
C28 C 0.86414 0.63354 0.68403 0.0
C29 C 0.96824 0.59563 0.59758 0.0
O30 O 0.87162 0.57816 0.66981 0.0
Zn31 Zn 0.92474 0.61341 0.64417 0.0
O32 O 0.89205 0.68841 0.67813 0.0
Zn33 Zn 0.9535 0.71604 0.64686 0.0
O34 O 0.91064 0.79058 0.62413 0.0
O35 O 0.86847 0.68789 0.61558 0.0
O36 O 0.9759 0.65751 0.60799 0.0
O37 O 0.94421 0.55138 0.61289 0.0
O38 O 1.00699 0.62967 0.67596 0.0
O39 O 0.02856 0.7397 0.67279 0.0
C40 C 0.86882 0.75286 0.60986 0.0
C41 C 0.04178 0.68092 0.68454 0.0
C42 C 0.47351 0.71159 0.32162 0.0
C43 C 0.64021 0.77025 0.40313 0.0
O44 O 0.48941 0.77042 0.33277 0.0
Zn45 Zn 0.56073 0.74266 0.36093 0.0
O46 O 0.50495 0.65855 0.33136 0.0
Zn47 Zn 0.58436 0.63711 0.36419 0.0
O48 O 0.55783 0.57685 0.39465 0.0
O49 O 0.5279 0.6845 0.39698 0.0
O50 O 0.63811 0.70612 0.39594 0.0
O51 O 0.60497 0.81274 0.3871 0.0
O52 O 0.62452 0.71241 0.3321 0.0
O53 O 0.64034 0.60128 0.33977 0.0
C54 C 0.53196 0.62308 0.40808 0.0
C55 C 0.65121 0.65676 0.32641 0.0
C56 C 0.58078 0.73601 0.82439 0.0
C57 C 0.49467 0.86179 0.90183 0.0
O58 O 0.55557 0.69504 0.84124 0.0
Zn59 Zn 0.50397 0.70547 0.87835 0.0
O60 O 0.57594 0.80062 0.82769 0.0
Zn61 Zn 0.52889 0.79738 0.86023 0.0
O62 O 0.59269 0.75208 0.89834 0.0
O63 O 0.55248 0.65335 0.90971 0.0
O64 O 0.51299 0.88422 0.87796 0.0
O65 O 0.48776 0.79657 0.90485 0.0
O66 O 0.42807 0.66526 0.86292 0.0
O67 O 0.44224 0.75933 0.83725 0.0
C68 C 0.59499 0.69684 0.9147 0.0
C69 C 0.40962 0.707 0.84121 0.0
C70 C 0.93166 0.75925 0.18413 0.0
C71 C 0.01352 0.89129 0.10687 0.0
O72 O 0.95762 0.71945 0.16715 0.0
Zn73 Zn 0.00878 0.7337 0.12967 0.0
O74 O 0.93503 0.82401 0.18079 0.0
Zn75 Zn 0.98126 0.82297 0.14802 0.0
O76 O 0.91788 0.77448 0.11012 0.0
O77 O 0.96266 0.67892 0.09882 0.0
O78 O 0.99442 0.91108 0.13091 0.0
O79 O 0.02195 0.82659 0.10312 0.0
O80 O 0.08555 0.69631 0.1446 0.0
O81 O 0.06934 0.78838 0.17098 0.0
C82 C 0.91785 0.71893 0.09408 0.0
C83 C 0.10316 0.73762 0.16658 0.0
C84 C 0.50742 0.10462 0.10023 0.0
C85 C 0.42558 0.20458 0.18663 0.0
O86 O 0.47966 0.07224 0.11866 0.0
Zn87 Zn 0.47344 0.14935 0.14673 0.0
O88 O 0.52445 0.16686 0.1066 0.0
Zn89 Zn 0.5157 0.24475 0.14039 0.0
O90 O 0.59466 0.26237 0.1624 0.0
O91 O 0.56173 0.16046 0.17401 0.0
O92 O 0.45977 0.2457 0.17484 0.0
O93 O 0.42066 0.1423 0.17747 0.0
O94 O 0.4244 0.22102 0.11386 0.0
O95 O 0.47836 0.31615 0.11329 0.0
C96 C 0.60286 0.20682 0.17775 0.0
C97 C 0.43139 0.28148 0.1031 0.0
C98 C 0.93131 0.3073 0.8529 0.0
C99 C 0.12545 0.32677 0.91846 0.0
O100 O 0.954 0.35465 0.87114 0.0
Zn101 Zn 0.02997 0.31571 0.88549 0.0
O102 O 0.96187 0.25248 0.8503 0.0
Zn103 Zn 0.05062 0.21577 0.87152 0.0
O104 O 0.03604 0.13553 0.89672 0.0
O105 O 0.01403 0.23468 0.91635 0.0
O106 O 0.11849 0.26811 0.9047 0.0
O107 O 0.08476 0.37219 0.91291 0.0
O108 O 0.07315 0.31252 0.84602 0.0
O109 O 0.09356 0.20431 0.83671 0.0
C110 C 0.01923 0.16901 0.91862 0.0
C111 C 0.09606 0.26791 0.83002 0.0
H112 H 0.98376 0.35977 0.44879 0.0
H113 H 1.00677 0.54941 0.39949 0.0
H114 H 0.99854 0.61635 0.44617 0.0
H115 H 0.87453 0.43279 0.49406 0.0
H116 H 0.90349 0.38281 0.52798 0.0
H117 H 0.90729 0.3494 0.49005 0.0
H118 H 0.02343 0.33477 0.50559 0.0
H119 H 0.01721 0.36569 0.54361 0.0
H120 H 0.06724 0.40778 0.52195 0.0
H121 H 0.99936 0.66234 0.49939 0.0
H122 H 0.99351 0.68619 0.55392 0.0
H123 H 0.96505 0.46826 0.56898 0.0
C124 C 0.98556 0.41545 0.44756 0.0
C125 C 0.99596 0.44911 0.4203 0.0
C126 C 0.99866 0.52215 0.41991 0.0
C127 C 0.99439 0.56079 0.44642 0.0
C128 C 0.98659 0.52595 0.47318 0.0
C129 C 0.9808 0.45509 0.47384 0.0
C130 C 0.97256 0.43079 0.50577 0.0
C131 C 0.91078 0.39696 0.50438 0.0
C132 C 0.02311 0.38178 0.52002 0.0
C133 C 0.97653 0.49887 0.52309 0.0
C134 C 0.98489 0.55298 0.50382 0.0
C135 C 0.99211 0.62049 0.51464 0.0
C136 C 0.9893 0.63341 0.5458 0.0
C137 C 0.97896 0.57919 0.5659 0.0
C138 C 0.97303 0.51091 0.55429 0.0
H139 H 0.54731 0.50433 0.44388 0.0
H140 H 0.48439 0.71571 0.44373 0.0
H141 H 0.47453 0.7044 0.49839 0.0
H142 H 0.44856 0.43587 0.49494 0.0
H143 H 0.50461 0.37762 0.51438 0.0
H144 H 0.50466 0.40147 0.47471 0.0
H145 H 0.61473 0.44254 0.48988 0.0
H146 H 0.61463 0.42042 0.52975 0.0
H147 H 0.63343 0.50684 0.51967 0.0
H148 H 0.47824 0.67432 0.55379 0.0
H149 H 0.47947 0.62116 0.60479 0.0
H150 H 0.53593 0.42709 0.56984 0.0
C151 C 0.53018 0.54773 0.45513 0.0
C152 C 0.51641 0.61088 0.43924 0.0
C153 C 0.49492 0.66662 0.45511 0.0
C154 C 0.48947 0.66092 0.48632 0.0
C155 C 0.50515 0.59892 0.50151 0.0
C156 C 0.52393 0.54278 0.4864 0.0
C157 C 0.53768 0.48208 0.50839 0.0
C158 C 0.49641 0.42064 0.49745 0.0
C159 C 0.60406 0.46179 0.51214 0.0
C160 C 0.52352 0.51301 0.5381 0.0
C161 C 0.50585 0.58086 0.53361 0.0
C162 C 0.49138 0.62097 0.55753 0.0
C163 C 0.49261 0.59028 0.58655 0.0
C164 C 0.50759 0.51973 0.59149 0.0
C165 C 0.52446 0.48113 0.56696 0.0
H166 H 0.48923 0.97018 0.07819 0.0
H167 H 0.5326 0.17715 0.05114 0.0
H168 H 0.5278 0.13821 0.9976 0.0
H169 H 0.57834 0.88308 0.02748 0.0
H170 H 0.52607 0.81288 0.01846 0.0
H171 H 0.53269 0.85643 0.05516 0.0
H172 H 0.41883 0.88174 0.04418 0.0
H173 H 0.41186 0.839 1.00727 0.0
H174 H 0.38681 0.92673 0.00926 0.0
H175 H 0.51432 0.0802 0.94667 0.0
H176 H 0.50602 1.00189 0.90201 0.0
H177 H 0.47559 0.8299 0.96083 0.0
C178 C 0.49841 0.00699 0.06105 0.0
C179 C 0.51144 0.0768 0.06909 0.0
C180 C 0.52305 0.12331 0.04586 0.0
C181 C 0.51996 0.10188 0.0152 0.0
C182 C 0.50599 0.03339 1.00793 0.0
C183 C 0.49655 0.98613 0.03016 0.0
C184 C 0.48435 0.91497 0.01592 0.0
C185 C 0.53327 0.86382 0.0301 0.0
C186 C 0.42173 0.88911 0.01937 0.0
C187 C 0.48773 0.93019 0.98227 0.0
C188 C 0.49974 0.99906 0.97827 0.0
C189 C 0.5052 0.02601 0.94948 0.0
C190 C 0.50011 0.98106 0.92418 0.0
C191 C 0.49002 0.90963 0.92775 0.0
C192 C 0.48273 0.88427 0.95719 0.0
H193 H 0.02868 0.86756 0.04627 0.0
H194 H 0.01046 0.03103 0.11164 0.0
H195 H 0.00791 0.11693 0.07028 0.0
H196 H 0.12439 0.96522 1.0019 0.0
H197 H 0.08972 0.9291 0.96527 0.0
H198 H 0.09261 0.87975 1.0003 0.0
H199 H 0.97738 0.86474 0.98807 0.0
H200 H 0.974 0.91489 0.95324 0.0
H201 H 0.9303 0.93997 0.982 0.0
H202 H 1.00062 0.18463 0.02235 0.0
H203 H 0.99996 0.23372 0.97088 0.0
H204 H 0.02626 0.02951 0.93479 0.0
C205 C 0.02524 0.92153 0.05197 0.0
C206 C 0.01982 0.94236 0.08236 0.0
C207 C 0.01464 0.01352 0.08867 0.0
C208 C 0.01297 0.06286 0.06527 0.0
C209 C 0.01677 0.04062 0.03553 0.0
C210 C 0.02364 0.97193 0.02874 0.0
C211 C 0.02627 0.96273 0.99454 0.0
C212 C 0.08686 0.93241 0.99026 0.0
C213 C 0.97387 0.91793 0.97852 0.0
C214 C 0.0197 0.03702 0.98332 0.0
C215 C 0.01373 0.08061 1.00748 0.0
C216 C 1.00573 0.15117 1.00326 0.0
C217 C 1.0051 0.17849 0.97372 0.0
C218 C 0.01306 0.13573 0.94852 0.0
C219 C 0.01993 0.06369 0.95344 0.0
H220 H 0.69097 0.30209 0.19667 0.0
H221 H 0.63973 0.09048 0.2113 0.0
H222 H 0.73021 0.07688 0.25136 0.0
H223 H 0.85108 0.27382 0.20728 0.0
H224 H 0.86889 0.3546 0.22708 0.0
H225 H 0.80148 0.34644 0.19874 0.0
H226 H 0.73872 0.38679 0.23943 0.0
H227 H 0.80589 0.39487 0.26788 0.0
H228 H 0.74515 0.34147 0.27573 0.0
H229 H 0.82499 0.08772 0.29088 0.0
H230 H 0.91668 0.12194 0.32679 0.0
H231 H 0.90471 0.32686 0.28636 0.0
C232 C 0.69895 0.2526 0.20805 0.0
C233 C 0.65833 0.19721 0.20074 0.0
C234 C 0.67024 0.1336 0.21646 0.0
C235 C 0.72151 0.12538 0.23923 0.0
C236 C 0.76028 0.1813 0.24605 0.0
C237 C 0.7496 0.24366 0.2309 0.0
C238 C 0.79732 0.2963 0.24307 0.0
C239 C 0.83173 0.3191 0.21752 0.0
C240 C 0.77013 0.3585 0.25738 0.0
C241 C 0.83646 0.2539 0.26757 0.0
C242 C 0.81447 0.18768 0.26888 0.0
C243 C 0.84271 0.13938 0.28999 0.0
C244 C 0.89475 0.15935 0.31031 0.0
C245 C 0.91799 0.22708 0.30941 0.0
C246 C 0.88828 0.27467 0.28763 0.0
H247 H 0.66219 0.2733 0.70789 0.0
H248 H 0.57804 0.44134 0.74965 0.0
H249 H 0.65951 0.43917 0.79464 0.0
H250 H 0.72011 0.18245 0.77985 0.0
H251 H 0.78964 0.1589 0.76808 0.0
H252 H 0.72302 0.16995 0.73942 0.0
H253 H 0.77811 0.25954 0.7107 0.0
H254 H 0.84492 0.24863 0.73919 0.0
H255 H 0.81306 0.33324 0.73152 0.0
H256 H 0.75042 0.42517 0.83337 0.0
H257 H 0.84823 0.39895 0.86491 0.0
H258 H 0.87752 0.24031 0.79931 0.0
C259 C 0.66098 0.30949 0.72655 0.0
C260 C 0.6137 0.35759 0.72519 0.0
C261 C 0.61388 0.40439 0.74999 0.0
C262 C 0.6599 0.40356 0.77571 0.0
C263 C 0.70602 0.35631 0.77623 0.0
C264 C 0.70732 0.31015 0.75241 0.0
C265 C 0.76372 0.26648 0.75871 0.0
C266 C 0.74817 0.1899 0.76169 0.0
C267 C 0.80223 0.27767 0.73353 0.0
C268 C 0.79389 0.29606 0.78961 0.0
C269 C 0.75932 0.34756 0.79919 0.0
C270 C 0.77783 0.38463 0.82628 0.0
C271 C 0.83362 0.36938 0.84401 0.0
C272 C 0.87057 0.31746 0.83466 0.0
C273 C 0.84998 0.27967 0.80725 0.0
H274 H 0.1367 0.77043 0.70084 0.0
H275 H 0.06706 0.5721 0.72404 0.0
H276 H 0.15276 0.55959 0.76678 0.0
H277 H 0.29388 0.72175 0.7162 0.0
H278 H 0.31901 0.80432 0.73234 0.0
H279 H 0.25217 0.79858 0.70345 0.0
H280 H 0.19206 0.85993 0.74058 0.0
H281 H 0.25864 0.86556 0.76964 0.0
H282 H 0.1923 0.82475 0.77864 0.0
H283 H 0.24464 0.5664 0.80632 0.0
H284 H 0.33822 0.59397 0.84163 0.0
H285 H 0.35129 0.78694 0.79291 0.0
C286 C 0.13977 0.724 0.71473 0.0
C287 C 0.09518 0.67209 0.70899 0.0
C288 C 0.10081 0.61224 0.72774 0.0
C289 C 0.14932 0.60449 0.75204 0.0
C290 C 0.19246 0.65625 0.75699 0.0
C291 C 0.18849 0.71479 0.73887 0.0
C292 C 0.24109 0.76274 0.74947 0.0
C293 C 0.27877 0.77239 0.72384 0.0
C294 C 0.21972 0.83236 0.76022 0.0
C295 C 0.27496 0.72195 0.77647 0.0
C296 C 0.24587 0.66074 0.7803 0.0
C297 C 0.26786 0.61422 0.80361 0.0
C298 C 0.32112 0.63053 0.82361 0.0
C299 C 0.35223 0.69278 0.82017 0.0
C300 C 0.32861 0.73906 0.79621 0.0
H301 H 0.38507 0.80731 0.30176 0.0
H302 H 0.44068 0.59803 0.28609 0.0
H303 H 0.35301 0.58394 0.24474 0.0
H304 H 0.22621 0.77046 0.28984 0.0
H305 H 0.20472 0.85112 0.27073 0.0
H306 H 0.27249 0.84587 0.29898 0.0
H307 H 0.33323 0.89303 0.25867 0.0
H308 H 0.26567 0.89826 0.23028 0.0
H309 H 0.32869 0.84973 0.22198 0.0
H310 H 0.26219 0.5924 0.20465 0.0
H311 H 0.16878 0.62008 0.16946 0.0
H312 H 0.16738 0.82284 0.2114 0.0
C313 C 0.37882 0.75859 0.28958 0.0
C314 C 0.41997 0.70381 0.29713 0.0
C315 C 0.40988 0.6407 0.2808 0.0
C316 C 0.36026 0.63222 0.25719 0.0
C317 C 0.32079 0.68713 0.25027 0.0
C318 C 0.32901 0.74894 0.26605 0.0
C319 C 0.27872 0.79898 0.25424 0.0
C320 C 0.24345 0.81768 0.27998 0.0
C321 C 0.30305 0.86383 0.24047 0.0
C322 C 0.24122 0.75555 0.22927 0.0
C323 C 0.26681 0.69145 0.22737 0.0
C324 C 0.24155 0.64231 0.20595 0.0
C325 C 0.18845 0.65876 0.18597 0.0
C326 C 0.16055 0.72371 0.1876 0.0
C327 C 0.18747 0.77275 0.20962 0.0
H328 H 0.34489 0.13612 0.21714 0.0
H329 H 0.42406 0.33709 0.20656 0.0
H330 H 0.36022 0.3883 0.24016 0.0
H331 H 0.1958 0.19523 0.21664 0.0
H332 H 0.17975 0.13621 0.24587 0.0
H333 H 0.23314 0.11301 0.2217 0.0
H334 H 0.31371 0.09191 0.27031 0.0
H335 H 0.26049 0.11462 0.29468 0.0
H336 H 0.33115 0.1594 0.29871 0.0
H337 H 0.28477 0.42055 0.27152 0.0
H338 H 0.206 0.43078 0.30325 0.0
H339 H 0.17609 0.20961 0.29668 0.0
C340 C 0.34919 0.1907 0.22219 0.0
C341 C 0.38964 0.23242 0.20906 0.0
C342 C 0.39365 0.30376 0.21622 0.0
C343 C 0.35744 0.33359 0.23529 0.0
C344 C 0.31755 0.29154 0.24741 0.0
C345 C 0.31348 0.22156 0.24156 0.0
C346 C 0.26626 0.1888 0.25769 0.0
C347 C 0.21575 0.15641 0.23406 0.0
C348 C 0.29462 0.13553 0.28178 0.0
C349 C 0.24427 0.25158 0.27313 0.0
C350 C 0.27446 0.31018 0.26661 0.0
C351 C 0.26113 0.37501 0.27708 0.0
C352 C 0.21603 0.38028 0.29499 0.0
C353 C 0.18492 0.32103 0.30257 0.0
C354 C 0.19941 0.25574 0.29148 0.0
H355 H 0.36102 0.28821 0.73017 0.0
H356 H 0.30289 0.49899 0.70958 0.0
H357 H 0.21823 0.48099 0.73671 0.0
H358 H 0.2128 0.21108 0.72354 0.0
H359 H 0.23332 0.15359 0.75591 0.0
H360 H 0.28875 0.18055 0.73349 0.0
H361 H 0.35636 0.22608 0.78315 0.0
H362 H 0.30148 0.19857 0.80572 0.0
H363 H 0.32635 0.28701 0.8074 0.0
H364 H 0.13902 0.44142 0.76447 0.0
H365 H 0.07828 0.38945 0.7996 0.0
H366 H 0.18698 0.20432 0.80539 0.0
C367 C 0.33039 0.33044 0.7314 0.0
C368 C 0.33864 0.39497 0.71755 0.0
C369 C 0.29787 0.44916 0.71997 0.0
C370 C 0.24919 0.43934 0.73516 0.0
C371 C 0.24187 0.37519 0.74817 0.0
C372 C 0.28169 0.32189 0.74702 0.0
C373 C 0.26485 0.2596 0.7648 0.0
C374 C 0.24899 0.19753 0.74314 0.0
C375 C 0.31526 0.24179 0.79188 0.0
C376 C 0.20979 0.28679 0.77629 0.0
C377 C 0.19704 0.35317 0.76581 0.0
C378 C 0.14907 0.39004 0.77328 0.0
C379 C 0.11461 0.35978 0.79315 0.0
C380 C 0.12795 0.29295 0.80539 0.0
C381 C 0.17537 0.25525 0.7962 0.0
H382 H 0.65704 0.80668 0.79304 0.0
H383 H 0.58885 0.60164 0.80655 0.0
H384 H 0.6541 0.55386 0.7723 0.0
H385 H 0.67018 0.78444 0.71233 0.0
H386 H 0.73833 0.83404 0.71584 0.0
H387 H 0.68474 0.85267 0.74055 0.0
H388 H 0.76741 0.83656 0.78881 0.0
H389 H 0.82114 0.81737 0.76426 0.0
H390 H 0.80891 0.757 0.79378 0.0
H391 H 0.72891 0.52694 0.73825 0.0
H392 H 0.80464 0.52435 0.7042 0.0
H393 H 0.82545 0.74643 0.71314 0.0
C394 C 0.65548 0.75173 0.78865 0.0
C395 C 0.61768 0.70795 0.80251 0.0
C396 C 0.61741 0.63627 0.7963 0.0
C397 C 0.65445 0.6085 0.77696 0.0
C398 C 0.69186 0.65282 0.76415 0.0
C399 C 0.69251 0.72296 0.76958 0.0
C400 C 0.73733 0.7591 0.7531 0.0
C401 C 0.70575 0.8106 0.72902 0.0
C402 C 0.78661 0.79459 0.77638 0.0
C403 C 0.76191 0.69823 0.73767 0.0
C404 C 0.73503 0.63741 0.74436 0.0
C405 C 0.75015 0.57428 0.73276 0.0
C406 C 0.79336 0.57337 0.71346 0.0
C407 C 0.82117 0.63516 0.70596 0.0
C408 C 0.80534 0.69826 0.7185 0.0
H409 H 0.85933 0.82895 0.21774 0.0
H410 H 0.9209 0.62346 0.20009 0.0
H411 H 0.85662 0.57475 0.23485 0.0
H412 H 0.8503 0.8032 0.29858 0.0
H413 H 0.78355 0.85448 0.29655 0.0
H414 H 0.83601 0.87301 0.27118 0.0
H415 H 0.751 0.861 0.22369 0.0
H416 H 0.69833 0.84208 0.24887 0.0
H417 H 0.70742 0.78272 0.21845 0.0
H418 H 0.78384 0.54835 0.27104 0.0
H419 H 0.70905 0.54652 0.30578 0.0
H420 H 0.69395 0.76925 0.29885 0.0
C421 C 0.85983 0.77373 0.22136 0.0
C422 C 0.89549 0.73008 0.20623 0.0
C423 C 0.89418 0.65803 0.21144 0.0
C424 C 0.85775 0.62985 0.23115 0.0
C425 C 0.82273 0.67434 0.24543 0.0
C426 C 0.82354 0.74476 0.2408 0.0
C427 C 0.78076 0.78124 0.25833 0.0
C428 C 0.81469 0.8309 0.2826 0.0
C429 C 0.73146 0.81897 0.236 0.0
C430 C 0.75556 0.72035 0.27352 0.0
C431 C 0.78045 0.65914 0.26588 0.0
C432 C 0.76414 0.59602 0.27719 0.0
C433 C 0.72154 0.59552 0.29691 0.0
C434 C 0.69539 0.65769 0.30506 0.0
C435 C 0.71279 0.72076 0.29303 0.0
H436 H 0.38207 0.23311 0.56939 0.0
H437 H 0.28433 0.39622 0.60661 0.0
H438 H 0.20951 0.39611 0.55909 0.0
H439 H 0.36342 0.29244 0.49437 0.0
H440 H 0.35084 0.21051 0.47493 0.0
H441 H 0.39396 0.21479 0.51343 0.0
H442 H 0.32283 0.12703 0.53295 0.0
H443 H 0.28009 0.12115 0.49432 0.0
H444 H 0.24338 0.1433 0.52625 0.0
H445 H 0.16016 0.39811 0.50579 0.0
H446 H 0.11751 0.38036 0.45104 0.0
H447 H 0.23732 0.20763 0.44706 0.0
C448 C 0.34375 0.26693 0.56786 0.0
C449 C 0.33928 0.31516 0.59153 0.0
C450 C 0.28903 0.3594 0.58862 0.0
C451 C 0.2462 0.35979 0.56173 0.0
C452 C 0.25355 0.31467 0.53815 0.0
C453 C 0.29966 0.2674 0.54106 0.0
C454 C 0.29717 0.22665 0.51126 0.0
C455 C 0.35477 0.23673 0.49771 0.0
C456 C 0.28514 0.14997 0.51651 0.0
C457 C 0.24387 0.26049 0.49105 0.0
C458 C 0.22033 0.31171 0.50721 0.0
C459 C 0.17586 0.3561 0.49317 0.0
C460 C 0.15275 0.34631 0.46197 0.0
C461 C 0.17383 0.29226 0.44515 0.0
C462 C 0.21994 0.24851 0.45975 0.0
H463 H 0.77663 0.68353 0.57559 0.0
H464 H 0.86673 0.88184 0.58313 0.0
H465 H 0.80933 0.91508 0.53197 0.0
H466 H 0.79025 0.65504 0.50153 0.0
H467 H 0.71954 0.61147 0.49009 0.0
H468 H 0.75606 0.60962 0.52982 0.0
H469 H 0.66172 0.66096 0.54726 0.0
H470 H 0.62472 0.66078 0.50748 0.0
H471 H 0.62952 0.73939 0.52966 0.0
H472 H 0.75045 0.91945 0.4762 0.0
H473 H 0.69669 0.89358 0.42286 0.0
H474 H 0.65465 0.68941 0.45325 0.0
C475 C 0.78296 0.73496 0.5671 0.0
C476 C 0.82597 0.78015 0.58339 0.0
C477 C 0.83349 0.84657 0.57115 0.0
C478 C 0.80118 0.86583 0.54207 0.0
C479 C 0.76151 0.81818 0.52579 0.0
C480 C 0.75198 0.75432 0.53818 0.0
C481 C 0.71345 0.70855 0.51502 0.0
C482 C 0.74687 0.64234 0.50875 0.0
C483 C 0.65381 0.69152 0.52551 0.0
C484 C 0.7042 0.75566 0.48732 0.0
C485 C 0.73094 0.81924 0.49382 0.0
C486 C 0.72904 0.86993 0.47097 0.0
C487 C 0.69888 0.85487 0.4408 0.0
C488 C 0.67294 0.78913 0.43394 0.0
C489 C 0.67536 0.73966 0.45764 0.0
H490 H 0.84452 0.80885 0.05736 0.0
H491 H 0.87927 0.59121 0.07453 0.0
H492 H 0.79971 0.56184 0.03046 0.0
H493 H 0.68261 0.79608 0.0322 0.0
H494 H 0.68125 0.86058 1.00253 0.0
H495 H 0.73761 0.86423 0.03694 0.0
H496 H 0.82047 0.8648 1.00295 0.0
H497 H 0.76434 0.86036 0.96848 0.0
H498 H 0.82264 0.79636 0.9754 0.0
H499 H 0.71721 0.55595 0.98488 0.0
H500 H 0.63809 0.57409 0.93918 0.0
H501 H 0.66191 0.79542 0.94928 0.0
C502 C 0.83448 0.75509 0.05212 0.0
C503 C 0.8673 0.70215 0.0694 0.0
C504 C 0.85428 0.63236 0.06152 0.0
C505 C 0.80925 0.61522 0.03661 0.0
C506 C 0.77837 0.66855 0.01964 0.0
C507 C 0.79042 0.73707 0.02693 0.0
C508 C 0.75277 0.78431 1.00389 0.0
C509 C 0.7111 0.82891 0.01985 0.0
C510 C 0.79243 0.82908 0.98667 0.0
C511 C 0.71776 0.73154 0.98257 0.0
C512 C 0.73281 0.66512 0.99227 0.0
C513 C 0.7052 0.60766 0.9769 0.0
C514 C 0.66047 0.61842 0.95103 0.0
C515 C 0.64465 0.686 0.94062 0.0
C516 C 0.67405 0.74316 0.95645 0.0
H517 H 0.35922 0.20175 0.06206 0.0
H518 H 0.4076 0.41507 0.0832 0.0
H519 H 0.33635 0.45191 0.03645 0.0
H520 H 0.34967 0.21614 0.98036 0.0
H521 H 0.28802 0.15639 0.97185 0.0
H522 H 0.3411 0.14827 1.00732 0.0
H523 H 0.25472 0.15493 0.03901 0.0
H524 H 0.20137 0.16238 1.00365 0.0
H525 H 0.20387 0.22694 0.03336 0.0
H526 H 0.25491 0.46371 0.98825 0.0
H527 H 0.17488 0.44923 0.94228 0.0
H528 H 0.18926 0.22719 0.95238 0.0
C529 C 0.35445 0.25638 0.05715 0.0
C530 C 0.38804 0.3058 0.07639 0.0
C531 C 0.38173 0.37658 0.06874 0.0
C532 C 0.34156 0.39781 0.0423 0.0
C533 C 0.30928 0.34736 0.02369 0.0
C534 C 0.31584 0.27809 0.03078 0.0
C535 C 0.27758 0.23346 1.00699 0.0
C536 C 0.31643 0.18578 0.99067 0.0
C537 C 0.23168 0.19203 0.02163 0.0
C538 C 0.24763 0.28838 0.98542 0.0
C539 C 0.26589 0.35387 0.9954 0.0
C540 C 0.24096 0.41266 0.98 0.0
C541 C 0.19569 0.40402 0.95398 0.0
C542 C 0.17682 0.33714 0.94357 0.0
C543 C 0.20387 0.27894 0.95931 0.0
loop_
_geom_bond_atom_site_label_1
_geom_bond_atom_site_label_2
_geom_bond_distance
_geom_bond_site_symmetry_2
_ccdc_geom_bond_type
C0 O2 1.247 . S
C0 O4 1.258 . S
C1 O8 1.247 . S
C1 O9 1.258 . S
O2 C0 1.247 . S
O2 Zn3 2.028 . S
Zn3 O2 2.028 . S
Zn3 O7 2.035 . S
Zn3 O9 2.035 1_455 S
Zn3 O10 2.028 . S
O4 C0 1.258 . S
O4 Zn5 2.035 . S
Zn5 O4 2.035 . S
Zn5 O6 2.028 . S
Zn5 O8 2.028 1_455 S
Zn5 O11 2.035 1_455 S
O6 Zn5 2.028 . S
O6 C12 1.247 . S
O7 Zn3 2.035 . S
O7 C12 1.258 . S
O8 C1 1.247 . S
O8 Zn5 2.028 1_655 S
O9 C1 1.258 . S
O9 Zn3 2.035 1_655 S
O10 Zn3 2.028 . S
O10 C13 1.247 1_455 S
O11 Zn5 2.035 1_655 S
O11 C13 1.258 . S
C12 O6 1.247 . S
C12 O7 1.258 . S
C13 O10 1.247 1_655 S
C13 O11 1.258 . S
C14 O16 1.247 . S
C14 O18 1.258 . S
C15 O22 1.247 . S
C15 O23 1.258 . S
O16 C14 1.247 . S
O16 Zn17 2.028 . S
Zn17 O16 2.028 . S
Zn17 O21 2.035 . S
Zn17 O23 2.035 . S
Zn17 O24 2.028 . S
O18 C14 1.258 . S
O18 Zn19 2.035 . S
Zn19 O18 2.035 . S
Zn19 O20 2.028 . S
Zn19 O22 2.028 . S
Zn19 O25 2.035 . S
O20 Zn19 2.028 . S
O20 C26 1.247 . S
O21 Zn17 2.035 . S
O21 C26 1.258 . S
O22 C15 1.247 . S
O22 Zn19 2.028 . S
O23 C15 1.258 . S
O23 Zn17 2.035 . S
O24 Zn17 2.028 . S
O24 C27 1.247 . S
O25 Zn19 2.035 . S
O25 C27 1.258 . S
C26 O20 1.247 . S
C26 O21 1.258 . S
C27 O24 1.247 . S
C27 O25 1.258 . S
C28 O30 1.247 . S
C28 O32 1.258 . S
C29 O36 1.247 . S
C29 O37 1.258 1_455 S
O30 C28 1.247 . S
O30 Zn31 2.028 . S
Zn31 O30 2.028 . S
Zn31 O35 2.035 . S
Zn31 O37 2.035 . S
Zn31 O38 2.028 1_655 S
O32 C28 1.258 . S
O32 Zn33 2.035 . S
Zn33 O32 2.035 . S
Zn33 O34 2.028 . S
Zn33 O36 2.028 1_655 S
Zn33 O39 2.035 1_655 S
O34 Zn33 2.028 . S
O34 C40 1.247 . S
O35 Zn31 2.035 . S
O35 C40 1.258 . S
O36 C29 1.247 . S
O36 Zn33 2.028 1_455 S
O37 C29 1.258 1_655 S
O37 Zn31 2.035 . S
O38 Zn31 2.028 1_455 S
O38 C41 1.247 . S
O39 Zn33 2.035 1_455 S
O39 C41 1.258 . S
C40 O34 1.247 . S
C40 O35 1.258 . S
C41 O38 1.247 . S
C41 O39 1.258 . S
C42 O44 1.247 . S
C42 O46 1.258 . S
C43 O50 1.247 . S
C43 O51 1.258 . S
O44 C42 1.247 . S
O44 Zn45 2.028 . S
Zn45 O44 2.028 . S
Zn45 O49 2.035 . S
Zn45 O51 2.035 . S
Zn45 O52 2.028 . S
O46 C42 1.258 . S
O46 Zn47 2.035 . S
Zn47 O46 2.035 . S
Zn47 O48 2.028 . S
Zn47 O50 2.028 . S
Zn47 O53 2.035 . S
O48 Zn47 2.028 . S
O48 C54 1.247 . S
O49 Zn45 2.035 . S
O49 C54 1.258 . S
O50 C43 1.247 . S
O50 Zn47 2.028 . S
O51 C43 1.258 . S
O51 Zn45 2.035 . S
O52 Zn45 2.028 . S
O52 C55 1.247 . S
O53 Zn47 2.035 . S
O53 C55 1.258 . S
C54 O48 1.247 . S
C54 O49 1.258 . S
C55 O52 1.247 . S
C55 O53 1.258 . S
C56 O58 1.247 . S
C56 O60 1.258 . S
C57 O64 1.247 . S
C57 O65 1.258 . S
O58 C56 1.247 . S
O58 Zn59 2.028 . S
Zn59 O58 2.028 . S
Zn59 O63 2.035 . S
Zn59 O65 2.035 . S
Zn59 O66 2.028 . S
O60 C56 1.258 . S
O60 Zn61 2.035 . S
Zn61 O60 2.035 . S
Zn61 O62 2.028 . S
Zn61 O64 2.028 . S
Zn61 O67 2.035 . S
O62 Zn61 2.028 . S
O62 C68 1.247 . S
O63 Zn59 2.035 . S
O63 C68 1.258 . S
O64 C57 1.247 . S
O64 Zn61 2.028 . S
O65 C57 1.258 . S
O65 Zn59 2.035 . S
O66 Zn59 2.028 . S
O66 C69 1.247 . S
O67 Zn61 2.035 . S
O67 C69 1.258 . S
C68 O62 1.247 . S
C68 O63 1.258 . S
C69 O66 1.247 . S
C69 O67 1.258 . S
C70 O72 1.247 . S
C70 O74 1.258 . S
C71 O78 1.247 1_455 S
C71 O79 1.258 . S
O72 C70 1.247 . S
O72 Zn73 2.028 . S
Zn73 O72 2.028 . S
Zn73 O77 2.035 . S
Zn73 O79 2.035 1_655 S
Zn73 O80 2.028 1_655 S
O74 C70 1.258 . S
O74 Zn75 2.035 . S
Zn75 O74 2.035 . S
Zn75 O76 2.028 . S
Zn75 O78 2.028 . S
Zn75 O81 2.035 1_655 S
O76 Zn75 2.028 . S
O76 C82 1.247 . S
O77 Zn73 2.035 . S
O77 C82 1.258 . S
O78 C71 1.247 1_655 S
O78 Zn75 2.028 . S
O79 C71 1.258 . S
O79 Zn73 2.035 1_455 S
O80 Zn73 2.028 1_455 S
O80 C83 1.247 . S
O81 Zn75 2.035 1_455 S
O81 C83 1.258 . S
C82 O76 1.247 . S
C82 O77 1.258 . S
C83 O80 1.247 . S
C83 O81 1.258 . S
C84 O86 1.247 . S
C84 O88 1.258 . S
C85 O92 1.247 . S
C85 O93 1.258 . S
O86 C84 1.247 . S
O86 Zn87 2.028 . S
Zn87 O86 2.028 . S
Zn87 O91 2.035 . S
Zn87 O93 2.035 . S
Zn87 O94 2.028 . S
O88 C84 1.258 . S
O88 Zn89 2.035 . S
Zn89 O88 2.035 . S
Zn89 O90 2.028 . S
Zn89 O92 2.028 . S
Zn89 O95 2.035 . S
O90 Zn89 2.028 . S
O90 C96 1.247 . S
O91 Zn87 2.035 . S
O91 C96 1.258 . S
O92 C85 1.247 . S
O92 Zn89 2.028 . S
O93 C85 1.258 . S
O93 Zn87 2.035 . S
O94 Zn87 2.028 . S
O94 C97 1.247 . S
O95 Zn89 2.035 . S
O95 C97 1.258 . S
C96 O90 1.247 . S
C96 O91 1.258 . S
C97 O94 1.247 . S
C97 O95 1.258 . S
C98 O100 1.247 . S
C98 O102 1.258 . S
C99 O106 1.247 . S
C99 O107 1.258 . S
O100 C98 1.247 . S
O100 Zn101 2.028 1_655 S
Zn101 O100 2.028 1_455 S
Zn101 O105 2.035 1_455 S
Zn101 O107 2.035 . S
Zn101 O108 2.028 . S
O102 C98 1.258 . S
O102 Zn103 2.035 1_655 S
Zn103 O102 2.035 1_455 S
Zn103 O104 2.028 . S
Zn103 O106 2.028 . S
Zn103 O109 2.035 . S
O104 Zn103 2.028 . S
O104 C110 1.247 1_455 S
O105 Zn101 2.035 1_655 S
O105 C110 1.258 . S
O106 C99 1.247 . S
O106 Zn103 2.028 . S
O107 C99 1.258 . S
O107 Zn101 2.035 . S
O108 Zn101 2.028 . S
O108 C111 1.247 . S
O109 Zn103 2.035 . S
O109 C111 1.258 . S
C110 O104 1.247 1_655 S
C110 O105 1.258 . S
C111 O108 1.247 . S
C111 O109 1.258 . S
H112 C124 0.930 . S
H113 C126 0.930 . S
H114 C127 0.930 . S
H115 C131 0.959 . S
H116 C131 0.959 . S
H117 C131 0.961 . S
H118 C132 0.960 1_655 S
H119 C132 0.961 1_655 S
H120 C132 0.959 . S
H121 C135 0.929 . S
H122 C136 0.931 . S
H123 C138 0.930 . S
C124 H112 0.930 . S
C124 C125 1.399 . S
C124 C129 1.399 . S
C125 C124 1.399 . S
C125 C126 1.376 1_655 S
C126 H113 0.930 . S
C126 C125 1.376 1_455 S
C126 C127 1.388 . S
C127 H114 0.930 . S
C127 C126 1.388 . S
C127 C128 1.390 . S
C128 C127 1.390 . S
C128 C129 1.394 1_455 S
C128 C134 1.465 . S
C129 C124 1.399 . S
C129 C128 1.394 1_655 S
C129 C130 1.516 . S
C130 C129 1.516 . S
C130 C131 1.502 . S
C130 C132 1.561 1_655 S
C130 C133 1.526 . S
C131 H115 0.959 . S
C131 H116 0.959 . S
C131 H117 0.961 . S
C131 C130 1.502 . S
C132 H118 0.960 1_455 S
C132 H119 0.961 1_455 S
C132 H120 0.959 . S
C132 C130 1.561 1_455 S
C133 C130 1.526 . S
C133 C134 1.396 1_655 S
C133 C138 1.390 . S
C134 C128 1.465 . S
C134 C133 1.396 1_455 S
C134 C135 1.399 . S
C135 H121 0.929 . S
C135 C134 1.399 . S
C135 C136 1.385 . S
C136 H122 0.931 . S
C136 C135 1.385 . S
C136 C137 1.389 . S
C137 C136 1.389 . S
C137 C138 1.387 1_455 S
C138 H123 0.930 . S
C138 C133 1.390 . S
C138 C137 1.387 1_655 S
H139 C151 0.930 . S
H140 C153 0.930 . S
H141 C154 0.930 . S
H142 C158 0.959 . S
H143 C158 0.959 . S
H144 C158 0.961 . S
H145 C159 0.960 . S
H146 C159 0.961 . S
H147 C159 0.959 . S
H148 C162 0.929 . S
H149 C163 0.931 . S
H150 C165 0.930 . S
C151 H139 0.930 . S
C151 C152 1.399 . S
C151 C156 1.399 . S
C152 C151 1.399 . S
C152 C153 1.376 . S
C153 H140 0.930 . S
C153 C152 1.376 . S
C153 C154 1.388 . S
C154 H141 0.930 . S
C154 C153 1.388 . S
C154 C155 1.390 . S
C155 C154 1.390 . S
C155 C156 1.394 . S
C155 C161 1.465 . S
C156 C151 1.399 . S
C156 C155 1.394 . S
C156 C157 1.516 . S
C157 C156 1.516 . S
C157 C158 1.502 . S
C157 C159 1.561 . S
C157 C160 1.526 . S
C158 H142 0.959 . S
C158 H143 0.959 . S
C158 H144 0.961 . S
C158 C157 1.502 . S
C159 H145 0.960 . S
C159 H146 0.961 . S
C159 H147 0.959 . S
C159 C157 1.561 . S
C160 C157 1.526 . S
C160 C161 1.396 . S
C160 C165 1.390 . S
C161 C155 1.465 . S
C161 C160 1.396 . S
C161 C162 1.399 . S
C162 H148 0.929 . S
C162 C161 1.399 . S
C162 C163 1.385 . S
C163 H149 0.931 . S
C163 C162 1.385 . S
C163 C164 1.389 . S
C164 C163 1.389 . S
C164 C165 1.387 . S
C165 H150 0.930 . S
C165 C160 1.390 . S
C165 C164 1.387 . S
H166 C178 0.930 . S
H167 C180 0.930 . S
H168 C181 0.930 . S
H169 C185 0.959 . S
H170 C185 0.959 . S
H171 C185 0.961 . S
H172 C186 0.960 . S
H173 C186 0.961 . S
H174 C186 0.959 . S
H175 C189 0.929 1_545 S
H176 C190 0.931 . S
H177 C192 0.930 . S
C178 H166 0.930 . S
C178 C179 1.399 . S
C178 C183 1.399 . S
C179 C178 1.399 . S
C179 C180 1.376 . S
C180 H167 0.930 . S
C180 C179 1.376 . S
C180 C181 1.388 1_554 S
C181 H168 0.930 . S
C181 C180 1.388 1_556 S
C181 C182 1.389 1_556 S
C182 C181 1.389 1_554 S
C182 C183 1.408 . S
C182 C188 1.454 1_544 S
C183 C178 1.399 . S
C183 C182 1.408 . S
C183 C184 1.516 1_545 S
C184 C183 1.516 1_565 S
C184 C185 1.502 . S
C184 C186 1.561 . S
C184 C187 1.526 1_554 S
C185 H169 0.959 . S
C185 H170 0.959 . S
C185 H171 0.961 . S
C185 C184 1.502 . S
C186 H172 0.960 . S
C186 H173 0.961 . S
C186 H174 0.959 . S
C186 C184 1.561 . S
C187 C184 1.526 1_556 S
C187 C188 1.396 . S
C187 C192 1.390 . S
C188 C182 1.454 1_566 S
C188 C187 1.396 . S
C188 C189 1.399 . S
C189 H175 0.929 1_565 S
C189 C188 1.399 . S
C189 C190 1.385 . S
C190 H176 0.931 . S
C190 C189 1.385 . S
C190 C191 1.389 . S
C191 C190 1.389 . S
C191 C192 1.387 . S
C192 H177 0.930 . S
C192 C187 1.390 . S
C192 C191 1.387 . S
H193 C205 0.930 . S
H194 C207 0.930 . S
H195 C208 0.930 1_545 S
H196 C212 0.959 1_554 S
H197 C212 0.959 . S
H198 C212 0.961 . S
H199 C213 0.960 . S
H200 C213 0.961 . S
H201 C213 0.959 1_655 S
H202 C216 0.929 1_554 S
H203 C217 0.931 . S
H204 C219 0.930 . S
C205 H193 0.930 . S
C205 C206 1.399 . S
C205 C210 1.399 . S
C206 C205 1.399 . S
C206 C207 1.376 1_455 S
C207 H194 0.930 . S
C207 C206 1.376 1_655 S
C207 C208 1.388 . S
C208 H195 0.930 1_565 S
C208 C207 1.388 . S
C208 C209 1.390 . S
C209 C208 1.390 . S
C209 C210 1.394 1_655 S
C209 C215 1.465 1_564 S
C210 C205 1.399 . S
C210 C209 1.394 1_455 S
C210 C211 1.516 1_554 S
C211 C210 1.516 1_556 S
C211 C212 1.502 . S
C211 C213 1.561 . S
C211 C214 1.526 1_565 S
C212 H196 0.959 1_556 S
C212 H197 0.959 . S
C212 H198 0.961 . S
C212 C211 1.502 . S
C213 H199 0.960 . S
C213 H200 0.961 . S
C213 H201 0.959 1_455 S
C213 C211 1.561 . S
C214 C211 1.526 1_545 S
C214 C215 1.396 1_455 S
C214 C219 1.390 . S
C215 C209 1.465 1_546 S
C215 C214 1.396 1_655 S
C215 C216 1.399 . S
C216 H202 0.929 1_556 S
C216 C215 1.399 . S
C216 C217 1.385 . S
C217 H203 0.931 . S
C217 C216 1.385 . S
C217 C218 1.389 . S
C218 C217 1.389 . S
C218 C219 1.387 1_655 S
C219 H204 0.930 . S
C219 C214 1.390 . S
C219 C218 1.387 1_455 S
H220 C232 0.930 . S
H221 C234 0.930 . S
H222 C235 0.930 . S
H223 C239 0.959 . S
H224 C239 0.959 . S
H225 C239 0.961 . S
H226 C240 0.960 . S
H227 C240 0.961 . S
H228 C240 0.959 . S
H229 C243 0.929 . S
H230 C244 0.931 . S
H231 C246 0.930 . S
C232 H220 0.930 . S
C232 C233 1.399 . S
C232 C237 1.399 . S
C233 C232 1.399 . S
C233 C234 1.376 . S
C234 H221 0.930 . S
C234 C233 1.376 . S
C234 C235 1.388 . S
C235 H222 0.930 . S
C235 C234 1.388 . S
C235 C236 1.390 . S
C236 C235 1.390 . S
C236 C237 1.394 . S
C236 C242 1.465 . S
C237 C232 1.399 . S
C237 C236 1.394 . S
C237 C238 1.516 . S
C238 C237 1.516 . S
C238 C239 1.502 . S
C238 C240 1.561 . S
C238 C241 1.526 . S
C239 H223 0.959 . S
C239 H224 0.959 . S
C239 H225 0.961 . S
C239 C238 1.502 . S
C240 H226 0.960 . S
C240 H227 0.961 . S
C240 H228 0.959 . S
C240 C238 1.561 . S
C241 C238 1.526 . S
C241 C242 1.396 . S
C241 C246 1.390 . S
C242 C236 1.465 . S
C242 C241 1.396 . S
C242 C243 1.399 . S
C243 H229 0.929 . S
C243 C242 1.399 . S
C243 C244 1.385 . S
C244 H230 0.931 . S
C244 C243 1.385 . S
C244 C245 1.389 . S
C245 C244 1.389 . S
C245 C246 1.387 . S
C246 H231 0.930 . S
C246 C241 1.390 . S
C246 C245 1.387 . S
H247 C259 0.930 . S
H248 C261 0.930 . S
H249 C262 0.930 . S
H250 C266 0.959 . S
H251 C266 0.959 . S
H252 C266 0.961 . S
H253 C267 0.960 . S
H254 C267 0.961 . S
H255 C267 0.959 . S
H256 C270 0.929 . S
H257 C271 0.931 . S
H258 C273 0.930 . S
C259 H247 0.930 . S
C259 C260 1.399 . S
C259 C264 1.399 . S
C260 C259 1.399 . S
C260 C261 1.376 . S
C261 H248 0.930 . S
C261 C260 1.376 . S
C261 C262 1.388 . S
C262 H249 0.930 . S
C262 C261 1.388 . S
C262 C263 1.390 . S
C263 C262 1.390 . S
C263 C264 1.394 . S
C263 C269 1.465 . S
C264 C259 1.399 . S
C264 C263 1.394 . S
C264 C265 1.516 . S
C265 C264 1.516 . S
C265 C266 1.502 . S
C265 C267 1.561 . S
C265 C268 1.526 . S
C266 H250 0.959 . S
C266 H251 0.959 . S
C266 H252 0.961 . S
C266 C265 1.502 . S
C267 H253 0.960 . S
C267 H254 0.961 . S
C267 H255 0.959 . S
C267 C265 1.561 . S
C268 C265 1.526 . S
C268 C269 1.396 . S
C268 C273 1.390 . S
C269 C263 1.465 . S
C269 C268 1.396 . S
C269 C270 1.399 . S
C270 H256 0.929 . S
C270 C269 1.399 . S
C270 C271 1.385 . S
C271 H257 0.931 . S
C271 C270 1.385 . S
C271 C272 1.389 . S
C272 C271 1.389 . S
C272 C273 1.387 . S
C273 H258 0.930 . S
C273 C268 1.390 . S
C273 C272 1.387 . S
H274 C286 0.930 . S
H275 C288 0.930 . S
H276 C289 0.930 . S
H277 C293 0.959 . S
H278 C293 0.959 . S
H279 C293 0.961 . S
H280 C294 0.960 . S
H281 C294 0.961 . S
H282 C294 0.959 . S
H283 C297 0.929 . S
H284 C298 0.931 . S
H285 C300 0.930 . S
C286 H274 0.930 . S
C286 C287 1.399 . S
C286 C291 1.399 . S
C287 C286 1.399 . S
C287 C288 1.376 . S
C288 H275 0.930 . S
C288 C287 1.376 . S
C288 C289 1.388 . S
C289 H276 0.930 . S
C289 C288 1.388 . S
C289 C290 1.390 . S
C290 C289 1.390 . S
C290 C291 1.394 . S
C290 C296 1.465 . S
C291 C286 1.399 . S
C291 C290 1.394 . S
C291 C292 1.516 . S
C292 C291 1.516 . S
C292 C293 1.502 . S
C292 C294 1.561 . S
C292 C295 1.526 . S
C293 H277 0.959 . S
C293 H278 0.959 . S
C293 H279 0.961 . S
C293 C292 1.502 . S
C294 H280 0.960 . S
C294 H281 0.961 . S
C294 H282 0.959 . S
C294 C292 1.561 . S
C295 C292 1.526 . S
C295 C296 1.396 . S
C295 C300 1.390 . S
C296 C290 1.465 . S
C296 C295 1.396 . S
C296 C297 1.399 . S
C297 H283 0.929 . S
C297 C296 1.399 . S
C297 C298 1.385 . S
C298 H284 0.931 . S
C298 C297 1.385 . S
C298 C299 1.389 . S
C299 C298 1.389 . S
C299 C300 1.387 . S
C300 H285 0.930 . S
C300 C295 1.390 . S
C300 C299 1.387 . S
H301 C313 0.930 . S
H302 C315 0.930 . S
H303 C316 0.930 . S
H304 C320 0.959 . S
H305 C320 0.959 . S
H306 C320 0.961 . S
H307 C321 0.960 . S
H308 C321 0.961 . S
H309 C321 0.959 . S
H310 C324 0.929 . S
H311 C325 0.931 . S
H312 C327 0.930 . S
C313 H301 0.930 . S
C313 C314 1.399 . S
C313 C318 1.399 . S
C314 C313 1.399 . S
C314 C315 1.376 . S
C315 H302 0.930 . S
C315 C314 1.376 . S
C315 C316 1.388 . S
C316 H303 0.930 . S
C316 C315 1.388 . S
C316 C317 1.390 . S
C317 C316 1.390 . S
C317 C318 1.394 . S
C317 C323 1.465 . S
C318 C313 1.399 . S
C318 C317 1.394 . S
C318 C319 1.516 . S
C319 C318 1.516 . S
C319 C320 1.502 . S
C319 C321 1.561 . S
C319 C322 1.526 . S
C320 H304 0.959 . S
C320 H305 0.959 . S
C320 H306 0.961 . S
C320 C319 1.502 . S
C321 H307 0.960 . S
C321 H308 0.961 . S
C321 H309 0.959 . S
C321 C319 1.561 . S
C322 C319 1.526 . S
C322 C323 1.396 . S
C322 C327 1.390 . S
C323 C317 1.465 . S
C323 C322 1.396 . S
C323 C324 1.399 . S
C324 H310 0.929 . S
C324 C323 1.399 . S
C324 C325 1.385 . S
C325 H311 0.931 . S
C325 C324 1.385 . S
C325 C326 1.389 . S
C326 C325 1.389 . S
C326 C327 1.387 . S
C327 H312 0.930 . S
C327 C322 1.390 . S
C327 C326 1.387 . S
H328 C340 0.930 . S
H329 C342 0.930 . S
H330 C343 0.930 . S
H331 C347 0.959 . S
H332 C347 0.959 . S
H333 C347 0.961 . S
H334 C348 0.960 . S
H335 C348 0.961 . S
H336 C348 0.959 . S
H337 C351 0.929 . S
H338 C352 0.931 . S
H339 C354 0.930 . S
C340 H328 0.930 . S
C340 C341 1.399 . S
C340 C345 1.399 . S
C341 C340 1.399 . S
C341 C342 1.376 . S
C342 H329 0.930 . S
C342 C341 1.376 . S
C342 C343 1.388 . S
C343 H330 0.930 . S
C343 C342 1.388 . S
C343 C344 1.390 . S
C344 C343 1.390 . S
C344 C345 1.394 . S
C344 C350 1.465 . S
C345 C340 1.399 . S
C345 C344 1.394 . S
C345 C346 1.516 . S
C346 C345 1.516 . S
C346 C347 1.502 . S
C346 C348 1.561 . S
C346 C349 1.526 . S
C347 H331 0.959 . S
C347 H332 0.959 . S
C347 H333 0.961 . S
C347 C346 1.502 . S
C348 H334 0.960 . S
C348 H335 0.961 . S
C348 H336 0.959 . S
C348 C346 1.561 . S
C349 C346 1.526 . S
C349 C350 1.396 . S
C349 C354 1.390 . S
C350 C344 1.465 . S
C350 C349 1.396 . S
C350 C351 1.399 . S
C351 H337 0.929 . S
C351 C350 1.399 . S
C351 C352 1.385 . S
C352 H338 0.931 . S
C352 C351 1.385 . S
C352 C353 1.389 . S
C353 C352 1.389 . S
C353 C354 1.387 . S
C354 H339 0.930 . S
C354 C349 1.390 . S
C354 C353 1.387 . S
H355 C367 0.930 . S
H356 C369 0.930 . S
H357 C370 0.930 . S
H358 C374 0.959 . S
H359 C374 0.959 . S
H360 C374 0.961 . S
H361 C375 0.960 . S
H362 C375 0.961 . S
H363 C375 0.959 . S
H364 C378 0.929 . S
H365 C379 0.931 . S
H366 C381 0.930 . S
C367 H355 0.930 . S
C367 C368 1.399 . S
C367 C372 1.399 . S
C368 C367 1.399 . S
C368 C369 1.376 . S
C369 H356 0.930 . S
C369 C368 1.376 . S
C369 C370 1.388 . S
C370 H357 0.930 . S
C370 C369 1.388 . S
C370 C371 1.390 . S
C371 C370 1.390 . S
C371 C372 1.394 . S
C371 C377 1.465 . S
C372 C367 1.399 . S
C372 C371 1.394 . S
C372 C373 1.516 . S
C373 C372 1.516 . S
C373 C374 1.502 . S
C373 C375 1.561 . S
C373 C376 1.526 . S
C374 H358 0.959 . S
C374 H359 0.959 . S
C374 H360 0.961 . S
C374 C373 1.502 . S
C375 H361 0.960 . S
C375 H362 0.961 . S
C375 H363 0.959 . S
C375 C373 1.561 . S
C376 C373 1.526 . S
C376 C377 1.396 . S
C376 C381 1.390 . S
C377 C371 1.465 . S
C377 C376 1.396 . S
C377 C378 1.399 . S
C378 H364 0.929 . S
C378 C377 1.399 . S
C378 C379 1.385 . S
C379 H365 0.931 . S
C379 C378 1.385 . S
C379 C380 1.389 . S
C380 C379 1.389 . S
C380 C381 1.387 . S
C381 H366 0.930 . S
C381 C376 1.390 . S
C381 C380 1.387 . S
H382 C394 0.930 . S
H383 C396 0.930 . S
H384 C397 0.930 . S
H385 C401 0.959 . S
H386 C401 0.959 . S
H387 C401 0.961 . S
H388 C402 0.960 . S
H389 C402 0.961 . S
H390 C402 0.959 . S
H391 C405 0.929 . S
H392 C406 0.931 . S
H393 C408 0.930 . S
C394 H382 0.930 . S
C394 C395 1.399 . S
C394 C399 1.399 . S
C395 C394 1.399 . S
C395 C396 1.376 . S
C396 H383 0.930 . S
C396 C395 1.376 . S
C396 C397 1.388 . S
C397 H384 0.930 . S
C397 C396 1.388 . S
C397 C398 1.390 . S
C398 C397 1.390 . S
C398 C399 1.394 . S
C398 C404 1.465 . S
C399 C394 1.399 . S
C399 C398 1.394 . S
C399 C400 1.516 . S
C400 C399 1.516 . S
C400 C401 1.502 . S
C400 C402 1.561 . S
C400 C403 1.526 . S
C401 H385 0.959 . S
C401 H386 0.959 . S
C401 H387 0.961 . S
C401 C400 1.502 . S
C402 H388 0.960 . S
C402 H389 0.961 . S
C402 H390 0.959 . S
C402 C400 1.561 . S
C403 C400 1.526 . S
C403 C404 1.396 . S
C403 C408 1.390 . S
C404 C398 1.465 . S
C404 C403 1.396 . S
C404 C405 1.399 . S
C405 H391 0.929 . S
C405 C404 1.399 . S
C405 C406 1.385 . S
C406 H392 0.931 . S
C406 C405 1.385 . S
C406 C407 1.389 . S
C407 C406 1.389 . S
C407 C408 1.387 . S
C408 H393 0.930 . S
C408 C403 1.390 . S
C408 C407 1.387 . S
H409 C421 0.930 . S
H410 C423 0.930 . S
H411 C424 0.930 . S
H412 C428 0.959 . S
H413 C428 0.959 . S
H414 C428 0.961 . S
H415 C429 0.960 . S
H416 C429 0.961 . S
H417 C429 0.959 . S
H418 C432 0.929 . S
H419 C433 0.931 . S
H420 C435 0.930 . S
C421 H409 0.930 . S
C421 C422 1.399 . S
C421 C426 1.399 . S
C422 C421 1.399 . S
C422 C423 1.376 . S
C423 H410 0.930 . S
C423 C422 1.376 . S
C423 C424 1.388 . S
C424 H411 0.930 . S
C424 C423 1.388 . S
C424 C425 1.390 . S
C425 C424 1.390 . S
C425 C426 1.394 . S
C425 C431 1.465 . S
C426 C421 1.399 . S
C426 C425 1.394 . S
C426 C427 1.516 . S
C427 C426 1.516 . S
C427 C428 1.502 . S
C427 C429 1.561 . S
C427 C430 1.526 . S
C428 H412 0.959 . S
C428 H413 0.959 . S
C428 H414 0.961 . S
C428 C427 1.502 . S
C429 H415 0.960 . S
C429 H416 0.961 . S
C429 H417 0.959 . S
C429 C427 1.561 . S
C430 C427 1.526 . S
C430 C431 1.396 . S
C430 C435 1.390 . S
C431 C425 1.465 . S
C431 C430 1.396 . S
C431 C432 1.399 . S
C432 H418 0.929 . S
C432 C431 1.399 . S
C432 C433 1.385 . S
C433 H419 0.931 . S
C433 C432 1.385 . S
C433 C434 1.389 . S
C434 C433 1.389 . S
C434 C435 1.387 . S
C435 H420 0.930 . S
C435 C430 1.390 . S
C435 C434 1.387 . S
H436 C448 0.930 . S
H437 C450 0.930 . S
H438 C451 0.930 . S
H439 C455 0.959 . S
H440 C455 0.959 . S
H441 C455 0.961 . S
H442 C456 0.960 . S
H443 C456 0.961 . S
H444 C456 0.959 . S
H445 C459 0.929 . S
H446 C460 0.931 . S
H447 C462 0.930 . S
C448 H436 0.930 . S
C448 C449 1.399 . S
C448 C453 1.399 . S
C449 C448 1.399 . S
C449 C450 1.376 . S
C450 H437 0.930 . S
C450 C449 1.376 . S
C450 C451 1.388 . S
C451 H438 0.930 . S
C451 C450 1.388 . S
C451 C452 1.390 . S
C452 C451 1.390 . S
C452 C453 1.394 . S
C452 C458 1.465 . S
C453 C448 1.399 . S
C453 C452 1.394 . S
C453 C454 1.516 . S
C454 C453 1.516 . S
C454 C455 1.502 . S
C454 C456 1.561 . S
C454 C457 1.526 . S
C455 H439 0.959 . S
C455 H440 0.959 . S
C455 H441 0.961 . S
C455 C454 1.502 . S
C456 H442 0.960 . S
C456 H443 0.961 . S
C456 H444 0.959 . S
C456 C454 1.561 . S
C457 C454 1.526 . S
C457 C458 1.396 . S
C457 C462 1.390 . S
C458 C452 1.465 . S
C458 C457 1.396 . S
C458 C459 1.399 . S
C459 H445 0.929 . S
C459 C458 1.399 . S
C459 C460 1.385 . S
C460 H446 0.931 . S
C460 C459 1.385 . S
C460 C461 1.389 . S
C461 C460 1.389 . S
C461 C462 1.387 . S
C462 H447 0.930 . S
C462 C457 1.390 . S
C462 C461 1.387 . S
H463 C475 0.930 . S
H464 C477 0.930 . S
H465 C478 0.930 . S
H466 C482 0.959 . S
H467 C482 0.959 . S
H468 C482 0.961 . S
H469 C483 0.960 . S
H470 C483 0.961 . S
H471 C483 0.959 . S
H472 C486 0.929 . S
H473 C487 0.931 . S
H474 C489 0.930 . S
C475 H463 0.930 . S
C475 C476 1.399 . S
C475 C480 1.399 . S
C476 C475 1.399 . S
C476 C477 1.376 . S
C477 H464 0.930 . S
C477 C476 1.376 . S
C477 C478 1.388 . S
C478 H465 0.930 . S
C478 C477 1.388 . S
C478 C479 1.390 . S
C479 C478 1.390 . S
C479 C480 1.394 . S
C479 C485 1.465 . S
C480 C475 1.399 . S
C480 C479 1.394 . S
C480 C481 1.516 . S
C481 C480 1.516 . S
C481 C482 1.502 . S
C481 C483 1.561 . S
C481 C484 1.526 . S
C482 H466 0.959 . S
C482 H467 0.959 . S
C482 H468 0.961 . S
C482 C481 1.502 . S
C483 H469 0.960 . S
C483 H470 0.961 . S
C483 H471 0.959 . S
C483 C481 1.561 . S
C484 C481 1.526 . S
C484 C485 1.396 . S
C484 C489 1.390 . S
C485 C479 1.465 . S
C485 C484 1.396 . S
C485 C486 1.399 . S
C486 H472 0.929 . S
C486 C485 1.399 . S
C486 C487 1.385 . S
C487 H473 0.931 . S
C487 C486 1.385 . S
C487 C488 1.389 . S
C488 C487 1.389 . S
C488 C489 1.387 . S
C489 H474 0.930 . S
C489 C484 1.390 . S
C489 C488 1.387 . S
H490 C502 0.930 . S
H491 C504 0.930 . S
H492 C505 0.930 . S
H493 C509 0.959 . S
H494 C509 0.959 1_556 S
H495 C509 0.961 . S
H496 C510 0.960 1_554 S
H497 C510 0.961 . S
H498 C510 0.959 . S
H499 C513 0.929 . S
H500 C514 0.931 . S
H501 C516 0.930 . S
C502 H490 0.930 . S
C502 C503 1.399 . S
C502 C507 1.399 . S
C503 C502 1.399 . S
C503 C504 1.376 . S
C504 H491 0.930 . S
C504 C503 1.376 . S
C504 C505 1.388 . S
C505 H492 0.930 . S
C505 C504 1.388 . S
C505 C506 1.390 . S
C506 C505 1.390 . S
C506 C507 1.394 . S
C506 C512 1.465 1_554 S
C507 C502 1.399 . S
C507 C506 1.394 . S
C507 C508 1.517 1_554 S
C508 C507 1.517 1_556 S
C508 C509 1.502 1_556 S
C508 C510 1.561 . S
C508 C511 1.525 . S
C509 H493 0.959 . S
C509 H494 0.959 1_554 S
C509 H495 0.961 . S
C509 C508 1.502 1_554 S
C510 H496 0.960 1_556 S
C510 H497 0.961 . S
C510 H498 0.959 . S
C510 C508 1.561 . S
C511 C508 1.525 . S
C511 C512 1.396 . S
C511 C516 1.390 . S
C512 C506 1.465 1_556 S
C512 C511 1.396 . S
C512 C513 1.399 . S
C513 H499 0.929 . S
C513 C512 1.399 . S
C513 C514 1.385 . S
C514 H500 0.931 . S
C514 C513 1.385 . S
C514 C515 1.389 . S
C515 C514 1.389 . S
C515 C516 1.387 . S
C516 H501 0.930 . S
C516 C511 1.390 . S
C516 C515 1.387 . S
H517 C529 0.930 . S
H518 C531 0.930 . S
H519 C532 0.930 . S
H520 C536 0.959 1_556 S
H521 C536 0.959 1_556 S
H522 C536 0.961 . S
H523 C537 0.960 . S
H524 C537 0.961 . S
H525 C537 0.959 . S
H526 C540 0.929 . S
H527 C541 0.931 . S
H528 C543 0.930 . S
C529 H517 0.930 . S
C529 C530 1.399 . S
C529 C534 1.399 . S
C530 C529 1.399 . S
C530 C531 1.376 . S
C531 H518 0.930 . S
C531 C530 1.376 . S
C531 C532 1.388 . S
C532 H519 0.930 . S
C532 C531 1.388 . S
C532 C533 1.390 . S
C533 C532 1.390 . S
C533 C534 1.394 . S
C533 C539 1.465 1_554 S
C534 C529 1.399 . S
C534 C533 1.394 . S
C534 C535 1.516 . S
C535 C534 1.516 . S
C535 C536 1.502 . S
C535 C537 1.561 . S
C535 C538 1.526 1_554 S
C536 H520 0.959 1_554 S
C536 H521 0.959 1_554 S
C536 H522 0.961 . S
C536 C535 1.502 . S
C537 H523 0.960 . S
C537 H524 0.961 . S
C537 H525 0.959 . S
C537 C535 1.561 . S
C538 C535 1.526 1_556 S
C538 C539 1.396 . S
C538 C543 1.390 . S
C539 C533 1.465 1_556 S
C539 C538 1.396 . S
C539 C540 1.399 . S
C540 H526 0.929 . S
C540 C539 1.399 . S
C540 C541 1.385 . S
C541 H527 0.931 . S
C541 C540 1.385 . S
C541 C542 1.389 . S
C542 C541 1.389 . S
C542 C543 1.387 . S
C543 H528 0.930 . S
C543 C538 1.390 . S
C543 C542 1.387 . S
C125 C13 1.782 . S
C137 C29 1.853 . S
C152 C54 1.820 . S
C164 C15 1.803 . S
C179 C84 1.817 . S
C191 C57 1.806 . S
C206 C71 1.784 . S
C218 C110 1.851 . S
C233 C96 1.954 . S
C245 C1 1.929 . S
C260 C27 1.954 . S
C272 C98 1.929 . S
C287 C41 1.955 . S
C299 C69 1.928 . S
C314 C42 1.953 . S
C326 C83 1.931 . S
C341 C85 2.111 . S
C353 C12 2.066 . S
C368 C14 2.063 . S
C380 C111 2.120 . S
C395 C56 2.093 . S
C407 C28 2.076 . S
C422 C70 2.067 . S
C434 C55 2.108 . S
C449 C26 0.673 . S
C461 C0 0.629 . S
C476 C40 0.614 . S
C488 C43 0.665 . S
C503 C82 0.618 . S
C515 C68 0.653 . S
C530 C97 0.639 . S
C542 C99 0.658 . S
