# Generated by pormake.
# Topology uou, (4)-cn, num edge types: 1
# Building blocks:
#     Node 0, Type 0, BuildingBlock: AZAVOO_clean_sbu_0, # of connection points: 4
#     Node 1, Type 0, BuildingBlock: AZAVOO_clean_sbu_0, # of connection points: 4
#     Node 2, Type 0, BuildingBlock: AZAVOO_clean_sbu_0, # of connection points: 4
#     Node 3, Type 0, BuildingBlock: AZAVOO_clean_sbu_0, # of connection points: 4
#     Node 4, Type 0, BuildingBlock: AZAVOO_clean_sbu_0, # of connection points: 4
#     Node 5, Type 0, BuildingBlock: AZAVOO_clean_sbu_0, # of connection points: 4
#     Node 6, Type 0, BuildingBlock: AZAVOO_clean_sbu_0, # of connection points: 4
#     Node 7, Type 0, BuildingBlock: AZAVOO_clean_sbu_0, # of connection points: 4
#     Node 8, Type 0, BuildingBlock: AZAVOO_clean_sbu_0, # of connection points: 4
#     Node 9, Type 0, BuildingBlock: AZAVOO_clean_sbu_0, # of connection points: 4
#     Node 10, Type 0, BuildingBlock: AZAVOO_clean_sbu_0, # of connection points: 4
#     Node 11, Type 0, BuildingBlock: AZAVOO_clean_sbu_0, # of connection points: 4
#     Node 12, Type 0, BuildingBlock: AZAVOO_clean_sbu_0, # of connection points: 4
#     Node 13, Type 0, BuildingBlock: AZAVOO_clean_sbu_0, # of connection points: 4
#     Node 14, Type 0, BuildingBlock: AZAVOO_clean_sbu_0, # of connection points: 4
#     Node 15, Type 0, BuildingBlock: AZAVOO_clean_sbu_0, # of connection points: 4
#     Edge 16, Type (0, 0), BuildingBlock: AJUNOK_clean_linker_0, # of connection points: 2
#     Edge 17, Type (0, 0), BuildingBlock: AJUNOK_clean_linker_0, # of connection points: 2
#     Edge 18, Type (0, 0), BuildingBlock: AJUNOK_clean_linker_0, # of connection points: 2
#     Edge 19, Type (0, 0), BuildingBlock: AJUNOK_clean_linker_0, # of connection points: 2
#     Edge 20, Type (0, 0), BuildingBlock: AJUNOK_clean_linker_0, # of connection points: 2
#     Edge 21, Type (0, 0), BuildingBlock: AJUNOK_clean_linker_0, # of connection points: 2
#     Edge 22, Type (0, 0), BuildingBlock: AJUNOK_clean_linker_0, # of connection points: 2
#     Edge 23, Type (0, 0), BuildingBlock: AJUNOK_clean_linker_0, # of connection points: 2
#     Edge 24, Type (0, 0), BuildingBlock: AJUNOK_clean_linker_0, # of connection points: 2
#     Edge 25, Type (0, 0), BuildingBlock: AJUNOK_clean_linker_0, # of connection points: 2
#     Edge 26, Type (0, 0), BuildingBlock: AJUNOK_clean_linker_0, # of connection points: 2
#     Edge 27, Type (0, 0), BuildingBlock: AJUNOK_clean_linker_0, # of connection points: 2
#     Edge 28, Type (0, 0), BuildingBlock: AJUNOK_clean_linker_0, # of connection points: 2
#     Edge 29, Type (0, 0), BuildingBlock: AJUNOK_clean_linker_0, # of connection points: 2
#     Edge 30, Type (0, 0), BuildingBlock: AJUNOK_clean_linker_0, # of connection points: 2
#     Edge 31, Type (0, 0), BuildingBlock: AJUNOK_clean_linker_0, # of connection points: 2
#     Edge 32, Type (0, 0), BuildingBlock: AJUNOK_clean_linker_0, # of connection points: 2
#     Edge 33, Type (0, 0), BuildingBlock: AJUNOK_clean_linker_0, # of connection points: 2
#     Edge 34, Type (0, 0), BuildingBlock: AJUNOK_clean_linker_0, # of connection points: 2
#     Edge 35, Type (0, 0), BuildingBlock: AJUNOK_clean_linker_0, # of connection points: 2
#     Edge 36, Type (0, 0), BuildingBlock: AJUNOK_clean_linker_0, # of connection points: 2
#     Edge 37, Type (0, 0), BuildingBlock: AJUNOK_clean_linker_0, # of connection points: 2
#     Edge 38, Type (0, 0), BuildingBlock: AJUNOK_clean_linker_0, # of connection points: 2
#     Edge 39, Type (0, 0), BuildingBlock: AJUNOK_clean_linker_0, # of connection points: 2
#     Edge 40, Type (0, 0), BuildingBlock: AJUNOK_clean_linker_0, # of connection points: 2
#     Edge 41, Type (0, 0), BuildingBlock: AJUNOK_clean_linker_0, # of connection points: 2
#     Edge 42, Type (0, 0), BuildingBlock: AJUNOK_clean_linker_0, # of connection points: 2
#     Edge 43, Type (0, 0), BuildingBlock: AJUNOK_clean_linker_0, # of connection points: 2
#     Edge 44, Type (0, 0), BuildingBlock: AJUNOK_clean_linker_0, # of connection points: 2
#     Edge 45, Type (0, 0), BuildingBlock: AJUNOK_clean_linker_0, # of connection points: 2
#     Edge 46, Type (0, 0), BuildingBlock: AJUNOK_clean_linker_0, # of connection points: 2
#     Edge 47, Type (0, 0), BuildingBlock: AJUNOK_clean_linker_0, # of connection points: 2
# Relax obj value: 0.175
# Max RMSD: 0.214
# Mean RMSD: 0.188
data_MOF--net-uou--node1-AZAVOO_clean_sbu_0--edge1-AJUNOK_clean_linker_0
_symmetry_space_group_name_H-M    P1
_symmetry_Int_Tables_number       1
_symmetry_cell_setting            triclinic
loop_
_symmetry_equiv_pos_as_xyz
'x, y, z'
_cell_length_a     29.323914
_cell_length_b     27.100849
_cell_length_c     38.97069
_cell_angle_alpha  90.202621
_cell_angle_beta   90.073703
_cell_angle_gamma 90.072731
loop_
_atom_site_label
_atom_site_type_symbol
_atom_site_fract_x
_atom_site_fract_y
_atom_site_fract_z
_atom_type_partial_charge
Mg0 Mg 0.08655 0.058 0.1357 0.0
O1 O 0.04174 0.02273 0.17558 0.0
O2 O 0.05275 0.94145 0.17835 0.0
Mg3 Mg 0.10793 0.92545 0.13807 0.0
C4 C 0.03335 0.9808 0.18879 0.0
C5 C 0.05441 0.16709 0.126 0.0
O6 O 0.09519 0.17099 0.11238 0.0
O7 O 0.04568 0.02691 0.09202 0.0
O8 O 0.06219 0.94633 0.09188 0.0
O9 O 0.13857 0.06937 0.17568 0.0
O10 O 0.13367 1.00259 0.14282 0.0
C11 C 0.04272 0.98399 0.07879 0.0
C12 C 0.15328 0.02568 0.16784 0.0
O13 O 0.0417 0.12568 0.13774 0.0
Mg14 Mg 0.41073 0.96312 0.1477 0.0
O15 O 0.43802 1.00453 0.194 0.0
O16 O 0.40565 0.07937 0.197 0.0
Mg17 Mg 0.3536 0.08294 0.15301 0.0
C18 C 0.43283 0.04651 0.20835 0.0
C19 C 0.4557 0.86364 0.14237 0.0
O20 O 0.41286 0.85578 0.134 0.0
O21 O 0.44977 0.01203 0.11098 0.0
O22 O 0.40832 0.0812 0.11072 0.0
O23 O 0.35682 0.92999 0.18044 0.0
O24 O 0.35125 1.00161 0.15325 0.0
C25 C 0.4407 0.05463 0.09893 0.0
C26 C 0.33435 0.97012 0.1744 0.0
O27 O 0.46797 0.9073 0.14986 0.0
Mg28 Mg 0.5839 0.92584 0.36246 0.0
O29 O 0.53844 0.98172 0.33628 0.0
O30 O 0.56988 0.05687 0.33871 0.0
Mg31 Mg 0.63702 0.04756 0.36841 0.0
C32 C 0.53796 0.02768 0.32934 0.0
C33 C 0.53906 0.82546 0.36384 0.0
O34 O 0.58284 0.81544 0.36572 0.0
O35 O 0.56342 0.95522 0.41444 0.0
O36 O 0.59891 0.02802 0.41835 0.0
O37 O 0.61928 0.91269 0.31264 0.0
O38 O 0.63807 0.96981 0.3513 0.0
C39 C 0.57392 0.99415 0.43119 0.0
C40 C 0.6434 0.95084 0.3212 0.0
O41 O 0.52675 0.87022 0.36261 0.0
Mg42 Mg 0.86306 0.07783 0.35459 0.0
O43 O 0.90989 0.03536 0.3192 0.0
O44 O 0.89259 0.95508 0.31938 0.0
Mg45 Mg 0.83319 0.94681 0.35741 0.0
C46 C 0.91627 0.99139 0.30848 0.0
C47 C 0.89395 0.18673 0.34747 0.0
O48 O 0.8498 0.19192 0.34309 0.0
O49 O 0.9004 0.04804 0.40068 0.0
O50 O 0.87794 0.9692 0.4036 0.0
O51 O 0.81528 0.08793 0.31082 0.0
O52 O 0.81531 0.02424 0.34656 0.0
C53 C 0.90015 1.00612 0.41539 0.0
C54 C 0.80015 0.0446 0.31898 0.0
O55 O 0.90992 0.14389 0.35272 0.0
Mg56 Mg 0.93084 0.96667 0.88402 0.0
O57 O 0.94586 0.88313 0.88096 0.0
O58 O 0.91033 0.84715 0.92489 0.0
Mg59 Mg 0.8764 0.90795 0.95748 0.0
C60 C 0.9356 0.84485 0.8983 0.0
C61 C 0.9712 0.01397 0.81804 0.0
O62 O 0.97682 0.05063 0.83977 0.0
O63 O 0.85565 0.96301 0.86883 0.0
O64 O 0.82415 0.93453 0.91704 0.0
O65 O -0.00602 0.9757 0.9146 0.0
O66 O 0.92593 0.96214 0.93731 0.0
C67 C 0.8207 0.95298 0.88701 0.0
C68 C 0.96911 0.96815 0.94153 0.0
O69 O 0.95286 0.97433 0.82855 0.0
Mg70 Mg 0.54069 0.05181 0.90276 0.0
O71 O 0.53205 0.13539 0.89402 0.0
O72 O 0.57524 0.17555 0.93206 0.0
Mg73 Mg 0.61126 0.11682 0.96511 0.0
C74 C 0.54607 0.17544 0.90774 0.0
C75 C 0.48117 0.06169 0.83461 0.0
O76 O 0.46443 0.10097 0.84985 0.0
O77 O 0.61262 0.04466 0.88116 0.0
O78 O 0.65457 0.08024 0.92223 0.0
O79 O 0.48246 0.05776 0.93852 0.0
O80 O 0.55472 0.06432 0.95465 0.0
C81 C 0.65119 0.05577 0.89423 0.0
C82 C 0.51212 0.06638 0.9625 0.0
O83 O 0.51087 0.03574 0.84994 0.0
Mg84 Mg 0.43882 0.0459 0.61302 0.0
O85 O 0.45779 0.12743 0.6018 0.0
O86 O 0.44453 0.1381 0.54599 0.0
Mg87 Mg 0.41093 0.06864 0.52317 0.0
C88 C 0.46007 0.15364 0.57468 0.0
C89 C 0.44701 0.02499 0.68988 0.0
O90 O 0.44433 0.98042 0.67665 0.0
O91 O 0.36096 0.05669 0.61462 0.0
O92 O 0.34841 0.065 0.55851 0.0
O93 O 0.50915 0.02613 0.59405 0.0
O94 O 0.44694 0.02565 0.562 0.0
C95 C 0.33362 0.0603 0.58917 0.0
C96 C 0.4902 0.02036 0.56427 0.0
O97 O 0.4455 0.06182 0.66987 0.0
Mg98 Mg 0.04066 0.986 0.59996 0.0
O99 O 0.03019 0.90177 0.59827 0.0
O100 O 0.0596 0.87415 0.54909 0.0
Mg101 Mg 0.08379 0.94144 0.51763 0.0
C102 C 0.03912 0.86662 0.57749 0.0
C103 C 0.02648 0.02404 0.6746 0.0
O104 O 0.03622 0.06578 0.6592 0.0
O105 O 0.11886 0.98505 0.6084 0.0
O106 O 0.13961 0.9682 0.55447 0.0
O107 O 0.97226 0.99321 0.57437 0.0
O108 O 0.03784 0.98981 0.54676 0.0
C109 C 0.1493 0.98211 0.58499 0.0
C110 C -0.00576 0.99256 0.54558 0.0
O111 O 0.02627 0.98444 0.65707 0.0
Mg112 Mg 0.6082 0.58578 0.13864 0.0
O113 O 0.55839 0.54521 0.17319 0.0
O114 O 0.57571 0.46504 0.17494 0.0
Mg115 Mg 0.63695 0.45444 0.13935 0.0
C116 C 0.55132 0.50166 0.18435 0.0
C117 C 0.57855 0.69499 0.14516 0.0
O118 O 0.62202 0.69869 0.15294 0.0
O119 O 0.57461 0.55453 0.09077 0.0
O120 O 0.59429 0.47486 0.09196 0.0
O121 O 0.65373 0.5974 0.18389 0.0
O122 O 0.65501 0.53222 0.14926 0.0
C123 C 0.57435 0.51129 0.07769 0.0
C124 C 0.66913 0.55379 0.17681 0.0
O125 O 0.56228 0.65278 0.13784 0.0
Mg126 Mg 0.87828 0.4301 0.11857 0.0
O127 O 0.92885 0.47839 0.14745 0.0
O128 O 0.90397 0.55613 0.15088 0.0
Mg129 Mg 0.83791 0.55786 0.11962 0.0
C130 C 0.93321 0.52281 0.15793 0.0
C131 C 0.92428 0.32907 0.13052 0.0
O132 O 0.88579 0.32282 0.14719 0.0
O133 O 0.9007 0.4614 0.06768 0.0
O134 O 0.87635 0.53961 0.06971 0.0
O135 O 0.84242 0.41732 0.1682 0.0
O136 O 0.82858 0.47904 0.13224 0.0
C137 C 0.89615 0.50396 0.05429 0.0
C138 C 0.82213 0.45864 0.16166 0.0
O139 O 0.93121 0.36962 0.11522 0.0
Mg140 Mg 0.06729 0.45097 0.34039 0.0
O141 O 0.0385 0.49011 0.29406 0.0
O142 O 0.07017 0.56512 0.28938 0.0
Mg143 Mg 0.12441 0.57048 0.33187 0.0
C144 C 0.043 0.53144 0.27892 0.0
C145 C 0.02146 0.35151 0.34583 0.0
O146 O 0.06481 0.34227 0.35148 0.0
O147 O 0.03028 0.50136 0.37766 0.0
O148 O 0.07273 0.56992 0.37609 0.0
O149 O 0.12019 0.41673 0.30693 0.0
O150 O 0.12631 0.48926 0.33317 0.0
C151 C 0.0409 0.54398 0.38925 0.0
C152 C 0.14273 0.45717 0.31218 0.0
O153 O 0.00953 0.39572 0.34013 0.0
Mg154 Mg 0.3847 0.54925 0.36464 0.0
O155 O 0.4279 0.52239 0.32068 0.0
O156 O 0.41907 0.44119 0.3132 0.0
Mg157 Mg 0.3671 0.41678 0.35399 0.0
C158 C 0.43622 0.4826 0.30444 0.0
C159 C 0.41128 0.66127 0.35942 0.0
O160 O 0.36832 0.66576 0.35041 0.0
O161 O 0.43091 0.51425 0.40342 0.0
O162 O 0.4147 0.43374 0.39993 0.0
O163 O 0.33027 0.56364 0.32712 0.0
O164 O 0.33938 0.49285 0.35459 0.0
C165 C 0.4355 0.47011 0.41387 0.0
C166 C 0.31848 0.51796 0.33132 0.0
O167 O 0.42673 0.61887 0.36674 0.0
Mg168 Mg 0.43736 0.48087 0.89284 0.0
O169 O 0.45422 0.39735 0.89128 0.0
O170 O 0.42716 0.3643 0.93959 0.0
Mg171 Mg 0.40067 0.42715 0.97419 0.0
C172 C 0.4475 0.36025 0.91076 0.0
C173 C 0.48155 0.46671 0.82076 0.0
O174 O 0.51237 0.4448 0.83987 0.0
O175 O 0.35964 0.47246 0.88614 0.0
O176 O 0.34129 0.44974 0.93922 0.0
O177 O 0.50603 0.4954 0.91632 0.0
O178 O 0.44352 0.47983 0.946 0.0
C179 C 0.3298 0.4646 0.90935 0.0
C180 C 0.48664 0.48795 0.94567 0.0
O181 O 0.44688 0.48561 0.83515 0.0
Mg182 Mg 0.04167 0.53992 0.87607 0.0
O183 O 0.02736 0.62405 0.87779 0.0
O184 O 0.04759 0.65038 0.93004 0.0
Mg185 Mg 0.06786 0.58366 0.96302 0.0
C186 C 0.03184 0.65851 0.90003 0.0
C187 C 0.03709 0.50048 0.80129 0.0
O188 O 0.04032 0.45895 0.81839 0.0
O189 O 0.12047 0.54536 0.87607 0.0
O190 O 0.13054 0.56123 0.93177 0.0
O191 O 0.96973 0.52628 0.89366 0.0
O192 O 0.02879 0.53602 0.92829 0.0
C193 C 0.14632 0.54886 0.90245 0.0
C194 C 0.98572 0.53004 0.92453 0.0
O195 O 0.03781 0.54094 0.81786 0.0
Mg196 Mg 0.95114 0.55467 0.58925 0.0
O197 O 0.9605 0.63877 0.59419 0.0
O198 O 0.9169 0.67521 0.55486 0.0
Mg199 Mg 0.8811 0.61352 0.52392 0.0
C200 C 0.94613 0.67742 0.57909 0.0
C201 C -0.00962 0.50565 0.65594 0.0
O202 O 0.98264 0.46547 0.63789 0.0
O203 O 0.8787 0.54934 0.61086 0.0
O204 O 0.83772 0.58103 0.56789 0.0
O205 O 0.009 0.55665 0.55254 0.0
O206 O 0.93651 0.56126 0.53699 0.0
C207 C 0.84042 0.55933 0.59688 0.0
C208 C 0.97886 0.56231 0.52852 0.0
O209 O 0.9817 0.54731 0.64261 0.0
Mg210 Mg 0.56102 0.45503 0.60394 0.0
O211 O 0.55525 0.37007 0.59878 0.0
O212 O 0.58749 0.35069 0.54892 0.0
Mg213 Mg 0.61792 0.42042 0.52441 0.0
C214 C 0.56488 0.33841 0.57554 0.0
C215 C 0.51019 0.47436 0.6729 0.0
O216 O 0.48763 0.50467 0.65289 0.0
O217 O 0.63684 0.459 0.61781 0.0
O218 O 0.66904 0.44184 0.56723 0.0
O219 O 0.49611 0.45836 0.57399 0.0
O220 O 0.56488 0.46334 0.55097 0.0
C221 C 0.67196 0.45506 0.59867 0.0
C222 C 0.52148 0.46117 0.54686 0.0
O223 O 0.54184 0.44827 0.66006 0.0
C224 C 0.25462 0.94313 0.17699 0.0
C225 C 0.28803 0.97722 0.18703 0.0
C226 C 0.20897 0.95745 0.17475 0.0
C227 C 0.19576 1.00609 0.18271 0.0
H228 H 0.26432 0.90727 0.16702 0.0
H229 H 0.18492 0.93165 0.16364 0.0
S230 S 0.26951 0.10316 0.22098 0.0
N231 N 0.30441 0.05685 0.21276 0.0
N232 N 0.21832 0.08414 0.20908 0.0
C233 C 0.22801 0.03767 0.19809 0.0
C234 C 0.27451 0.02311 0.2 0.0
C235 C 0.72042 0.94355 0.29868 0.0
C236 C 0.67951 0.97014 0.29934 0.0
C237 C 0.76209 0.96863 0.29897 0.0
C238 C 0.76322 0.02048 0.29996 0.0
H239 H 0.7204 0.90415 0.30334 0.0
H240 H 0.79299 0.94755 0.30276 0.0
S241 S 0.66539 0.10454 0.28756 0.0
N242 N 0.64255 0.04889 0.28978 0.0
N243 N 0.72107 0.09646 0.29086 0.0
C244 C 0.72301 0.04649 0.29316 0.0
C245 C 0.6807 0.02092 0.29278 0.0
C246 C 0.77519 0.02829 0.87517 0.0
C247 C 0.77668 0.97647 0.87817 0.0
C248 C 0.7338 0.05421 0.87781 0.0
C249 C 0.69231 0.02908 0.8822 0.0
H250 H 0.80661 0.04929 0.87389 0.0
H251 H 0.73455 0.09417 0.87828 0.0
S252 S 0.67734 0.89332 0.88786 0.0
N253 N 0.73298 0.901 0.88378 0.0
N254 N 0.65493 0.9492 0.88664 0.0
C255 C 0.69303 0.97708 0.88231 0.0
C256 C 0.73529 0.95087 0.88085 0.0
C257 C 0.21179 0.03498 0.56317 0.0
C258 C 0.19458 1.00581 0.59001 0.0
C259 C 0.25514 0.05624 0.56482 0.0
C260 C 0.28407 0.04875 0.59318 0.0
H261 H 0.19174 0.04094 0.54017 0.0
H262 H 0.26684 0.07681 0.54272 0.0
S263 S 0.25322 0.97988 0.67221 0.0
N264 N 0.20762 0.97464 0.64748 0.0
N265 N 0.29037 0.01327 0.6504 0.0
C266 C 0.26623 0.02218 0.62132 0.0
C267 C 0.22128 1.00099 0.61976 0.0
C268 C 0.78989 0.53298 0.18856 0.0
C269 C 0.78991 0.48128 0.18559 0.0
C270 C 0.74904 0.55849 0.19355 0.0
C271 C 0.70778 0.53246 0.19522 0.0
H272 H 0.82024 0.55393 0.18247 0.0
H273 H 0.74907 0.59819 0.19027 0.0
S274 S 0.69351 0.39751 0.20403 0.0
N275 N 0.74836 0.40521 0.19589 0.0
N276 N 0.67133 0.45349 0.20572 0.0
C277 C 0.70917 0.48124 0.20014 0.0
C278 C 0.7507 0.45526 0.19509 0.0
C279 C 0.2665 0.44734 0.3195 0.0
C280 C 0.27903 0.49662 0.31304 0.0
C281 C 0.22217 0.43091 0.31297 0.0
C282 C 0.18938 0.46358 0.30023 0.0
H283 H 0.28928 0.42267 0.33288 0.0
H284 H 0.21214 0.3949 0.32237 0.0
S285 S 0.20885 0.58984 0.26774 0.0
N286 N 0.25834 0.57327 0.28436 0.0
N287 N 0.17455 0.54204 0.27278 0.0
C288 C 0.20338 0.50976 0.2882 0.0
C289 C 0.24858 0.52651 0.29452 0.0
C290 C 0.21141 0.50926 0.93258 0.0
C291 C 0.19347 0.52814 0.90177 0.0
C292 C 0.25403 0.48653 0.93391 0.0
C293 C 0.28183 0.48209 0.90463 0.0
H294 H 0.19212 0.51132 0.95623 0.0
H295 H 0.2656 0.47358 0.95869 0.0
S296 S 0.25058 0.52368 0.81692 0.0
N297 N 0.20603 0.5389 0.84062 0.0
N298 N 0.28752 0.49753 0.84325 0.0
C299 C 0.26427 0.50011 0.87332 0.0
C300 C 0.21992 0.5227 0.87185 0.0
C301 C 0.75684 0.45481 0.60595 0.0
C302 C 0.71495 0.47943 0.60939 0.0
C303 C 0.79827 0.48104 0.60626 0.0
C304 C 0.79911 0.53296 0.60866 0.0
H305 H 0.75741 0.41547 0.60093 0.0
H306 H 0.82953 0.46094 0.60136 0.0
S307 S 0.69904 0.61443 0.62003 0.0
N308 N 0.67716 0.55827 0.61805 0.0
N309 N 0.75482 0.60756 0.61649 0.0
C310 C 0.75773 0.55767 0.61386 0.0
C311 C 0.71569 0.53086 0.61478 0.0
C312 C 0.9758 0.02485 0.26968 0.0
C313 C 0.94909 0.98434 0.27995 0.0
C314 C 0.00262 0.0228 0.24027 0.0
C315 C 0.00456 0.98002 0.21986 0.0
H316 H 0.97537 0.05916 0.28398 0.0
H317 H 0.0221 0.05541 0.23355 0.0
S318 S 0.94387 0.86237 0.23624 0.0
N319 N 0.92783 0.899 0.26796 0.0
N320 N 0.97945 0.89512 0.21263 0.0
C321 C 0.9797 0.93835 0.23036 0.0
C322 C 0.95175 0.94055 0.2604 0.0
C323 C 0.49226 0.0813 0.24736 0.0
C324 C 0.45289 0.05273 0.24247 0.0
C325 C 0.51753 0.07739 0.27786 0.0
C326 C 0.50414 0.04439 0.30389 0.0
H327 H 0.50528 0.10392 0.2267 0.0
H328 H 0.5497 0.09691 0.27967 0.0
S329 S 0.39878 0.96862 0.30507 0.0
N330 N 0.3981 0.99604 0.26729 0.0
N331 N 0.44537 0.98853 0.32457 0.0
C332 C 0.46236 0.01947 0.30034 0.0
C333 C 0.43682 0.02355 0.26949 0.0
C334 C -0.0015 0.97845 0.72608 0.0
C335 C 0.01382 0.0229 0.71146 0.0
C336 C 0.98493 0.97612 0.76043 0.0
C337 C 0.98627 0.01805 0.78181 0.0
H338 H -0.0035 0.94502 0.71082 0.0
H339 H 0.97328 0.94094 0.77022 0.0
S340 S 0.02446 0.14347 0.75643 0.0
N341 N 0.03011 0.10993 0.72126 0.0
N342 N 0.0047 0.10549 0.78592 0.0
C343 C 0.00195 0.06273 0.7677 0.0
C344 C 0.01566 0.06516 0.73255 0.0
C345 C 0.44629 0.07946 0.74181 0.0
C346 C 0.45311 0.03239 0.72729 0.0
C347 C 0.45384 0.08818 0.77682 0.0
C348 C 0.46915 0.05035 0.79856 0.0
H349 H 0.43539 0.11004 0.72598 0.0
H350 H 0.44898 0.12524 0.78664 0.0
S351 S 0.48977 0.91986 0.77389 0.0
N352 N 0.474 0.94686 0.73789 0.0
N353 N 0.4887 0.96348 0.80354 0.0
C354 C 0.47506 1.00284 0.78461 0.0
C355 C 0.46687 0.9938 0.74904 0.0
C356 C 0.51787 0.45138 0.23208 0.0
C357 C 0.51758 0.49485 0.21226 0.0
C358 C 0.49085 0.44702 0.2616 0.0
C359 C 0.46304 0.48617 0.27252 0.0
H360 H 0.54026 0.42104 0.22548 0.0
H361 H 0.49286 0.41346 0.27654 0.0
S362 S 0.44468 0.60491 0.22723 0.0
N363 N 0.48298 0.57563 0.20386 0.0
N364 N 0.43292 0.56761 0.25939 0.0
C365 C 0.46071 0.52881 0.25209 0.0
C366 C 0.48774 0.53308 0.22194 0.0
C367 C 0.98758 0.57176 0.23922 0.0
C368 C 0.02139 0.53629 0.24522 0.0
C369 C 0.9614 0.57007 0.20904 0.0
C370 C 0.96855 0.53292 0.18414 0.0
H371 H 0.97946 0.59884 0.25879 0.0
H372 H 0.93338 0.5958 0.20644 0.0
S373 S 0.05972 0.43803 0.1856 0.0
N374 N 0.06525 0.46777 0.22243 0.0
N375 N 0.0169 0.46493 0.1655 0.0
C376 C 0.00534 0.50034 0.18871 0.0
C377 C 0.0315 0.50186 0.21941 0.0
C378 C 0.53082 0.44604 0.73188 0.0
C379 C 0.50094 0.47223 0.7103 0.0
C380 C 0.52416 0.44453 0.76741 0.0
C381 C 0.4872 0.46891 0.78295 0.0
H382 H 0.56005 0.42687 0.72137 0.0
H383 H 0.54838 0.42403 0.78277 0.0
S384 S 0.39797 0.5414 0.73789 0.0
N385 N 0.43224 0.5223 0.70703 0.0
N386 N 0.41958 0.51933 0.77382 0.0
C387 C 0.45662 0.49476 0.76167 0.0
C388 C 0.46353 0.49646 0.72539 0.0
C389 C 0.02053 0.54534 0.74671 0.0
C390 C 0.02885 0.50047 0.76365 0.0
C391 C 0.00926 0.54656 0.71182 0.0
C392 C 0.00577 0.50295 0.69224 0.0
H393 H 0.02178 0.58001 0.76061 0.0
H394 H 0.00234 0.58212 0.70035 0.0
S395 S 0.02785 0.37587 0.72356 0.0
N396 N 0.03548 0.41131 0.75762 0.0
N397 N 0.01425 0.4136 0.69201 0.0
C398 C 0.01551 0.45785 0.70852 0.0
C399 C 0.02705 0.45661 0.74418 0.0
C400 C 0.97859 0.2032 0.14072 0.0
C401 C 0.02271 0.20968 0.12722 0.0
C402 C 0.9473 0.24205 0.14181 0.0
C403 C 0.95867 0.2891 0.12937 0.0
H404 H 0.96779 0.16766 0.15044 0.0
H405 H 0.91374 0.23483 0.15225 0.0
S406 S 0.07039 0.32646 0.09278 0.0
N407 N 0.07666 0.26746 0.10203 0.0
N408 N 0.01778 0.34061 0.10409 0.0
C409 C 0.00286 0.29645 0.11616 0.0
C410 C 0.03486 0.25676 0.11509 0.0
C411 C 0.47293 0.77415 0.13499 0.0
C412 C 0.48833 0.82191 0.14328 0.0
C413 C 0.50237 0.73364 0.13573 0.0
C414 C 0.54858 0.73904 0.14474 0.0
H415 H 0.4377 0.7677 0.12787 0.0
H416 H 0.48855 0.69774 0.12912 0.0
S417 S 0.60625 0.85633 0.16887 0.0
N418 N 0.55301 0.87241 0.16094 0.0
N419 N 0.60847 0.79618 0.1623 0.0
C420 C 0.5646 0.78662 0.15313 0.0
C421 C 0.53448 0.82803 0.1524 0.0
C422 C 0.48876 0.69706 0.36815 0.0
C423 C 0.44231 0.70444 0.36062 0.0
C424 C 0.51949 0.73644 0.36919 0.0
C425 C 0.50514 0.78501 0.36289 0.0
H426 H 0.50185 0.66043 0.37319 0.0
H427 H 0.55484 0.72853 0.37506 0.0
S428 S 0.38717 0.82469 0.34187 0.0
N429 N 0.38334 0.76432 0.34668 0.0
N430 N 0.44125 0.83859 0.34871 0.0
C431 C 0.45874 0.7932 0.35544 0.0
C432 C 0.42733 0.75288 0.35425 0.0
C433 C 0.00262 0.26229 0.35212 0.0
C434 C 0.98771 0.31077 0.34598 0.0
C435 C 0.97203 0.22272 0.35246 0.0
C436 C 0.92511 0.22983 0.3467 0.0
H437 H 0.03833 0.25457 0.35674 0.0
H438 H 0.9855 0.18622 0.35737 0.0
S439 S 0.86833 0.34959 0.32914 0.0
N440 N 0.92274 0.3638 0.33382 0.0
N441 N 0.86511 0.28929 0.33447 0.0
C442 C 0.90959 0.27813 0.34045 0.0
C443 C 0.94088 0.31859 0.34009 0.0
C444 C 0.9663 0.71072 0.88031 0.0
C445 C 0.01111 0.70762 0.89341 0.0
C446 C 0.94209 0.75566 0.88058 0.0
C447 C 0.96243 0.79922 0.89292 0.0
H448 H 0.9488 0.67763 0.87181 0.0
H449 H 0.90691 0.75603 0.87206 0.0
S450 S 0.07959 0.81175 0.92776 0.0
N451 N 0.07502 0.7526 0.91791 0.0
N452 N 0.0304 0.83706 0.91703 0.0
C453 C 0.00784 0.79707 0.9044 0.0
C454 C 0.03199 0.7513 0.90497 0.0
C455 C 0.51813 0.31191 0.89781 0.0
C456 C 0.47055 0.31279 0.90294 0.0
C457 C 0.54257 0.26715 0.89765 0.0
C458 C 0.52007 0.2216 0.90132 0.0
H459 H 0.53699 0.34623 0.89617 0.0
H460 H 0.57941 0.26828 0.89576 0.0
S461 S 0.39553 0.20385 0.91343 0.0
N462 N 0.40187 0.26429 0.91084 0.0
N463 N 0.44709 0.18029 0.90884 0.0
C464 C 0.47219 0.222 0.90454 0.0
C465 C 0.44761 0.26754 0.9058 0.0
C466 C 0.48919 0.23072 0.60443 0.0
C467 C 0.48753 0.20013 0.57518 0.0
C468 C 0.51563 0.27429 0.60494 0.0
C469 C 0.54243 0.28855 0.57651 0.0
H470 H 0.46916 0.22151 0.62685 0.0
H471 H 0.51433 0.29739 0.62764 0.0
S472 S 0.55416 0.21745 0.49508 0.0
N473 N 0.51773 0.18504 0.51806 0.0
N474 N 0.56776 0.26553 0.51909 0.0
C475 C 0.54255 0.25677 0.5477 0.0
C476 C 0.51505 0.21308 0.547 0.0
C477 C 0.97115 0.81432 0.59138 0.0
C478 C 0.01798 0.81748 0.58338 0.0
C479 C 0.94801 0.76872 0.5912 0.0
C480 C 0.97125 0.72446 0.58432 0.0
H481 H 0.95165 0.84764 0.59588 0.0
H482 H 0.91156 0.76819 0.5957 0.0
S483 S 0.09421 0.71228 0.56354 0.0
N484 N 0.0867 0.77222 0.56896 0.0
N485 N 0.04398 0.68649 0.57041 0.0
C486 C 0.01845 0.72694 0.57786 0.0
C487 C 0.04162 0.77342 0.57693 0.0
C488 C 0.97602 0.93713 0.00171 0.0
C489 C 0.98892 0.97084 0.97611 0.0
C490 C -0.00633 0.94105 0.03516 0.0
C491 C 0.02322 0.97991 0.04409 0.0
H492 H 0.95265 0.90733 -0.00426 0.0
H493 H 0.98369 0.91411 0.0542 0.0
S494 S 0.06677 0.0777 0.98627 0.0
N495 N 0.03323 0.04362 0.96172 0.0
N496 N 0.06503 0.05217 0.02464 0.0
C497 C 0.03599 0.0139 0.01868 0.0
C498 C 0.01917 0.00906 0.98462 0.0
C499 C 0.52379 0.05344 0.02502 0.0
C500 C 0.49765 0.07376 -0.00168 0.0
C501 C 0.50646 0.05057 0.05844 0.0
C502 C 0.46293 0.06906 0.06642 0.0
H503 H 0.55646 0.03649 0.01964 0.0
H504 H 0.52632 0.03155 0.07776 0.0
S505 S 0.38455 0.13332 0.00642 0.0
N506 N 0.4287 0.11763 0.98253 0.0
N507 N 0.39643 0.11374 0.0455 0.0
C508 C 0.43833 0.09357 0.04049 0.0
C509 C 0.4556 0.09545 0.00634 0.0
C510 C 0.49801 0.9777 0.50869 0.0
C511 C 0.51614 0.01107 0.53272 0.0
C512 C 0.51762 0.97193 0.47632 0.0
C513 C 0.55566 1.00012 0.46639 0.0
H514 H 0.46782 0.95636 0.51477 0.0
H515 H 0.5019 0.94606 0.45864 0.0
S516 S 0.61601 0.09274 0.52049 0.0
N517 N 0.57436 0.07226 0.54517 0.0
N518 N 0.61139 0.06225 0.48385 0.0
C519 C 0.57457 0.03336 0.4905 0.0
C520 C 0.55483 0.03856 0.52383 0.0
C521 C 0.92773 0.97338 0.50752 0.0
C522 C 0.97088 0.99497 0.51217 0.0
C523 C 0.90555 0.97564 0.47563 0.0
C524 C 0.92534 1.00078 0.44783 0.0
H525 H 0.91123 0.95431 0.52852 0.0
H526 H 0.87219 0.9588 0.47298 0.0
S527 S 0.03768 0.06346 0.44693 0.0
N528 N 0.03285 0.04157 0.48624 0.0
N529 N -0.00956 0.04708 0.4268 0.0
C530 C 0.96838 0.02249 0.45221 0.0
C531 C -0.00863 0.01923 0.48429 0.0
C532 C 0.55323 0.54198 0.01952 0.0
C533 C 0.5526 0.50373 0.04386 0.0
C534 C 0.53374 0.53557 0.98696 0.0
C535 C 0.51216 0.49113 0.97799 0.0
H536 H 0.56916 0.57705 0.02557 0.0
H537 H 0.53423 0.56612 0.9691 0.0
S538 S 0.50206 0.37926 0.03174 0.0
N539 N 0.52977 0.41925 0.05618 0.0
N540 N 0.49211 0.40794 -0.00483 0.0
C541 C 0.51157 0.45248 0.00179 0.0
C542 C 0.53215 0.45857 0.03471 0.0
C543 C 0.93904 0.55574 0.01272 0.0
C544 C 0.91457 0.51233 0.01972 0.0
C545 C 0.96037 0.56241 0.98094 0.0
C546 C 0.95655 0.52664 0.95492 0.0
H547 H 0.94342 0.58368 0.03242 0.0
H548 H 0.98079 0.59523 0.97695 0.0
S549 S 0.8928 0.40887 0.95936 0.0
N550 N 0.88559 0.43437 -0.00246 0.0
N551 N 0.92448 0.44793 0.93728 0.0
C552 C 0.93014 0.48444 0.9609 0.0
C553 C 0.90946 0.47697 0.99353 0.0
C554 C 0.96359 0.54644 0.46666 0.0
C555 C -0.00784 0.56647 0.49219 0.0
C556 C 0.9784 0.54218 0.43262 0.0
C557 C 0.02179 0.55902 0.42278 0.0
H558 H 0.93064 0.53116 0.47336 0.0
H559 H 0.9565 0.52368 0.41421 0.0
S560 S 0.10681 0.62079 0.47928 0.0
N561 N 0.06384 0.60751 0.50498 0.0
N562 N 0.09143 0.60099 0.44085 0.0
C563 C 0.0492 0.58273 0.44763 0.0
C564 C 0.03448 0.58599 0.48242 0.0
C565 C 0.46202 0.43339 0.50506 0.0
C566 C 0.5019 0.46041 0.51206 0.0
C567 C 0.44231 0.4339 0.47225 0.0
C568 C 0.4613 0.46245 0.44578 0.0
H569 H 0.44579 0.41205 0.5251 0.0
H570 H 0.41081 0.41381 0.46807 0.0
S571 S 0.56626 0.53838 0.45077 0.0
N572 N 0.56078 0.51466 0.48952 0.0
N573 N 0.52274 0.51692 0.42827 0.0
C574 C 0.50166 0.4887 0.45229 0.0
C575 C 0.52225 0.48732 0.48536 0.0
loop_
_geom_bond_atom_site_label_1
_geom_bond_atom_site_label_2
_geom_bond_distance
_geom_bond_site_symmetry_2
_ccdc_geom_bond_type
Mg0 O1 2.028 . S
Mg0 O7 1.986 . S
Mg0 O9 2.114 . S
Mg0 O10 2.251 1_545 S
Mg0 O13 2.010 . S
O1 Mg0 2.028 . S
O1 C4 1.250 . S
O2 Mg3 2.028 . S
O2 C4 1.248 1_565 S
Mg3 O2 2.028 . S
Mg3 O8 2.032 . S
Mg3 O10 2.079 . S
C4 O1 1.250 . S
C4 O2 1.248 1_545 S
C5 O6 1.264 . S
C5 O13 1.249 . S
O6 C5 1.264 . S
O7 Mg0 1.986 . S
O7 C11 1.246 1_545 S
O8 Mg3 2.032 . S
O8 C11 1.259 . S
O9 Mg0 2.114 . S
O9 C12 1.252 . S
O10 Mg0 2.251 1_565 S
O10 Mg3 2.079 . S
O10 C12 1.273 1_565 S
C11 O7 1.246 1_565 S
C11 O8 1.259 . S
C12 O9 1.252 . S
C12 O10 1.273 1_545 S
O13 Mg0 2.010 . S
O13 C5 1.249 . S
Mg14 O15 2.028 . S
Mg14 O21 1.986 . S
Mg14 O23 2.114 . S
Mg14 O24 2.251 1_565 S
Mg14 O27 2.010 . S
O15 Mg14 2.028 . S
O15 C18 1.250 . S
O16 Mg17 2.028 . S
O16 C18 1.248 1_545 S
Mg17 O16 2.028 . S
Mg17 O22 2.032 . S
Mg17 O24 2.079 . S
C18 O15 1.250 . S
C18 O16 1.248 1_565 S
C19 O20 1.264 . S
C19 O27 1.249 . S
O20 C19 1.264 . S
O21 Mg14 1.986 . S
O21 C25 1.246 1_565 S
O22 Mg17 2.032 . S
O22 C25 1.259 . S
O23 Mg14 2.114 . S
O23 C26 1.252 . S
O24 Mg14 2.251 1_545 S
O24 Mg17 2.079 . S
O24 C26 1.273 1_545 S
C25 O21 1.246 1_545 S
C25 O22 1.259 . S
C26 O23 1.252 . S
C26 O24 1.273 1_565 S
O27 Mg14 2.010 . S
O27 C19 1.249 . S
Mg28 O29 2.028 . S
Mg28 O35 1.986 . S
Mg28 O37 2.114 . S
Mg28 O38 2.251 1_565 S
Mg28 O41 2.010 . S
O29 Mg28 2.028 . S
O29 C32 1.250 . S
O30 Mg31 2.028 . S
O30 C32 1.248 1_545 S
Mg31 O30 2.028 . S
Mg31 O36 2.032 . S
Mg31 O38 2.079 . S
C32 O29 1.250 . S
C32 O30 1.248 1_565 S
C33 O34 1.264 . S
C33 O41 1.249 . S
O34 C33 1.264 . S
O35 Mg28 1.986 . S
O35 C39 1.246 1_565 S
O36 Mg31 2.032 . S
O36 C39 1.259 . S
O37 Mg28 2.114 . S
O37 C40 1.252 . S
O38 Mg28 2.251 1_545 S
O38 Mg31 2.079 . S
O38 C40 1.273 1_545 S
C39 O35 1.246 1_545 S
C39 O36 1.259 . S
C40 O37 1.252 . S
C40 O38 1.273 1_565 S
O41 Mg28 2.010 . S
O41 C33 1.249 . S
Mg42 O43 2.028 . S
Mg42 O49 1.986 . S
Mg42 O51 2.114 . S
Mg42 O52 2.251 1_545 S
Mg42 O55 2.010 . S
O43 Mg42 2.028 . S
O43 C46 1.250 . S
O44 Mg45 2.028 . S
O44 C46 1.248 1_565 S
Mg45 O44 2.028 . S
Mg45 O50 2.032 . S
Mg45 O52 2.079 . S
C46 O43 1.250 . S
C46 O44 1.248 1_545 S
C47 O48 1.264 . S
C47 O55 1.249 . S
O48 C47 1.264 . S
O49 Mg42 1.986 . S
O49 C53 1.246 1_545 S
O50 Mg45 2.032 . S
O50 C53 1.259 . S
O51 Mg42 2.114 . S
O51 C54 1.252 . S
O52 Mg42 2.251 1_565 S
O52 Mg45 2.079 . S
O52 C54 1.273 1_565 S
C53 O49 1.246 1_565 S
C53 O50 1.259 . S
C54 O51 1.252 . S
C54 O52 1.273 1_545 S
O55 Mg42 2.010 . S
O55 C47 1.249 . S
Mg56 O57 2.028 . S
Mg56 O63 1.986 . S
Mg56 O65 2.114 1_655 S
Mg56 O66 2.251 . S
Mg56 O69 2.010 . S
O57 Mg56 2.028 . S
O57 C60 1.250 . S
O58 Mg59 2.028 . S
O58 C60 1.248 . S
Mg59 O58 2.028 . S
Mg59 O64 2.032 . S
Mg59 O66 2.079 . S
C60 O57 1.250 . S
C60 O58 1.248 . S
C61 O62 1.264 1_565 S
C61 O69 1.249 . S
O62 C61 1.264 1_545 S
O63 Mg56 1.986 . S
O63 C67 1.246 . S
O64 Mg59 2.032 . S
O64 C67 1.259 . S
O65 Mg56 2.114 1_455 S
O65 C68 1.252 1_455 S
O66 Mg56 2.251 . S
O66 Mg59 2.079 . S
O66 C68 1.273 . S
C67 O63 1.246 . S
C67 O64 1.259 . S
C68 O65 1.252 1_655 S
C68 O66 1.273 . S
O69 Mg56 2.010 . S
O69 C61 1.249 . S
Mg70 O71 2.028 . S
Mg70 O77 1.986 . S
Mg70 O79 2.114 . S
Mg70 O80 2.251 . S
Mg70 O83 2.010 . S
O71 Mg70 2.028 . S
O71 C74 1.250 . S
O72 Mg73 2.028 . S
O72 C74 1.248 . S
Mg73 O72 2.028 . S
Mg73 O78 2.032 . S
Mg73 O80 2.079 . S
C74 O71 1.250 . S
C74 O72 1.248 . S
C75 O76 1.264 1_545 S
C75 O83 1.249 . S
O76 C75 1.264 1_565 S
O77 Mg70 1.986 . S
O77 C81 1.246 . S
O78 Mg73 2.032 . S
O78 C81 1.259 . S
O79 Mg70 2.114 . S
O79 C82 1.252 . S
O80 Mg70 2.251 . S
O80 Mg73 2.079 . S
O80 C82 1.273 . S
C81 O77 1.246 . S
C81 O78 1.259 . S
C82 O79 1.252 . S
C82 O80 1.273 . S
O83 Mg70 2.010 . S
O83 C75 1.249 . S
Mg84 O85 2.028 . S
Mg84 O91 1.986 . S
Mg84 O93 2.114 . S
Mg84 O94 2.251 . S
Mg84 O97 2.010 . S
O85 Mg84 2.028 . S
O85 C88 1.250 . S
O86 Mg87 2.028 . S
O86 C88 1.248 . S
Mg87 O86 2.028 . S
Mg87 O92 2.032 . S
Mg87 O94 2.079 . S
C88 O85 1.250 . S
C88 O86 1.248 . S
C89 O90 1.264 1_545 S
C89 O97 1.249 . S
O90 C89 1.264 1_565 S
O91 Mg84 1.986 . S
O91 C95 1.246 . S
O92 Mg87 2.032 . S
O92 C95 1.259 . S
O93 Mg84 2.114 . S
O93 C96 1.252 . S
O94 Mg84 2.251 . S
O94 Mg87 2.079 . S
O94 C96 1.273 . S
C95 O91 1.246 . S
C95 O92 1.259 . S
C96 O93 1.252 . S
C96 O94 1.273 . S
O97 Mg84 2.010 . S
O97 C89 1.249 . S
Mg98 O99 2.028 . S
Mg98 O105 1.986 . S
Mg98 O107 2.114 1_455 S
Mg98 O108 2.251 . S
Mg98 O111 2.010 . S
O99 Mg98 2.028 . S
O99 C102 1.250 . S
O100 Mg101 2.028 . S
O100 C102 1.248 . S
Mg101 O100 2.028 . S
Mg101 O106 2.032 . S
Mg101 O108 2.079 . S
C102 O99 1.250 . S
C102 O100 1.248 . S
C103 O104 1.264 1_565 S
C103 O111 1.249 . S
O104 C103 1.264 1_545 S
O105 Mg98 1.986 . S
O105 C109 1.246 . S
O106 Mg101 2.032 . S
O106 C109 1.259 . S
O107 Mg98 2.114 1_655 S
O107 C110 1.252 1_655 S
O108 Mg98 2.251 . S
O108 Mg101 2.079 . S
O108 C110 1.273 . S
C109 O105 1.246 . S
C109 O106 1.259 . S
C110 O107 1.252 1_455 S
C110 O108 1.273 . S
O111 Mg98 2.010 . S
O111 C103 1.249 . S
Mg112 O113 2.028 . S
Mg112 O119 1.986 . S
Mg112 O121 2.114 . S
Mg112 O122 2.251 . S
Mg112 O125 2.010 . S
O113 Mg112 2.028 . S
O113 C116 1.250 . S
O114 Mg115 2.028 . S
O114 C116 1.248 . S
Mg115 O114 2.028 . S
Mg115 O120 2.032 . S
Mg115 O122 2.079 . S
C116 O113 1.250 . S
C116 O114 1.248 . S
C117 O118 1.264 . S
C117 O125 1.249 . S
O118 C117 1.264 . S
O119 Mg112 1.986 . S
O119 C123 1.246 . S
O120 Mg115 2.032 . S
O120 C123 1.259 . S
O121 Mg112 2.114 . S
O121 C124 1.252 . S
O122 Mg112 2.251 . S
O122 Mg115 2.079 . S
O122 C124 1.273 . S
C123 O119 1.246 . S
C123 O120 1.259 . S
C124 O121 1.252 . S
C124 O122 1.273 . S
O125 Mg112 2.010 . S
O125 C117 1.249 . S
Mg126 O127 2.028 . S
Mg126 O133 1.986 . S
Mg126 O135 2.114 . S
Mg126 O136 2.251 . S
Mg126 O139 2.010 . S
O127 Mg126 2.028 . S
O127 C130 1.250 . S
O128 Mg129 2.028 . S
O128 C130 1.248 . S
Mg129 O128 2.028 . S
Mg129 O134 2.032 . S
Mg129 O136 2.079 . S
C130 O127 1.250 . S
C130 O128 1.248 . S
C131 O132 1.264 . S
C131 O139 1.249 . S
O132 C131 1.264 . S
O133 Mg126 1.986 . S
O133 C137 1.246 . S
O134 Mg129 2.032 . S
O134 C137 1.259 . S
O135 Mg126 2.114 . S
O135 C138 1.252 . S
O136 Mg126 2.251 . S
O136 Mg129 2.079 . S
O136 C138 1.273 . S
C137 O133 1.246 . S
C137 O134 1.259 . S
C138 O135 1.252 . S
C138 O136 1.273 . S
O139 Mg126 2.010 . S
O139 C131 1.249 . S
Mg140 O141 2.028 . S
Mg140 O147 1.986 . S
Mg140 O149 2.114 . S
Mg140 O150 2.251 . S
Mg140 O153 2.010 . S
O141 Mg140 2.028 . S
O141 C144 1.250 . S
O142 Mg143 2.028 . S
O142 C144 1.248 . S
Mg143 O142 2.028 . S
Mg143 O148 2.032 . S
Mg143 O150 2.079 . S
C144 O141 1.250 . S
C144 O142 1.248 . S
C145 O146 1.264 . S
C145 O153 1.249 . S
O146 C145 1.264 . S
O147 Mg140 1.986 . S
O147 C151 1.246 . S
O148 Mg143 2.032 . S
O148 C151 1.259 . S
O149 Mg140 2.114 . S
O149 C152 1.252 . S
O150 Mg140 2.251 . S
O150 Mg143 2.079 . S
O150 C152 1.273 . S
C151 O147 1.246 . S
C151 O148 1.259 . S
C152 O149 1.252 . S
C152 O150 1.273 . S
O153 Mg140 2.010 . S
O153 C145 1.249 . S
Mg154 O155 2.028 . S
Mg154 O161 1.986 . S
Mg154 O163 2.114 . S
Mg154 O164 2.251 . S
Mg154 O167 2.010 . S
O155 Mg154 2.028 . S
O155 C158 1.250 . S
O156 Mg157 2.028 . S
O156 C158 1.248 . S
Mg157 O156 2.028 . S
Mg157 O162 2.032 . S
Mg157 O164 2.079 . S
C158 O155 1.250 . S
C158 O156 1.248 . S
C159 O160 1.264 . S
C159 O167 1.249 . S
O160 C159 1.264 . S
O161 Mg154 1.986 . S
O161 C165 1.246 . S
O162 Mg157 2.032 . S
O162 C165 1.259 . S
O163 Mg154 2.114 . S
O163 C166 1.252 . S
O164 Mg154 2.251 . S
O164 Mg157 2.079 . S
O164 C166 1.273 . S
C165 O161 1.246 . S
C165 O162 1.259 . S
C166 O163 1.252 . S
C166 O164 1.273 . S
O167 Mg154 2.010 . S
O167 C159 1.249 . S
Mg168 O169 2.028 . S
Mg168 O175 1.986 . S
Mg168 O177 2.114 . S
Mg168 O178 2.251 . S
Mg168 O181 2.010 . S
O169 Mg168 2.028 . S
O169 C172 1.250 . S
O170 Mg171 2.028 . S
O170 C172 1.248 . S
Mg171 O170 2.028 . S
Mg171 O176 2.032 . S
Mg171 O178 2.079 . S
C172 O169 1.250 . S
C172 O170 1.248 . S
C173 O174 1.264 . S
C173 O181 1.249 . S
O174 C173 1.264 . S
O175 Mg168 1.986 . S
O175 C179 1.246 . S
O176 Mg171 2.032 . S
O176 C179 1.259 . S
O177 Mg168 2.114 . S
O177 C180 1.252 . S
O178 Mg168 2.251 . S
O178 Mg171 2.079 . S
O178 C180 1.273 . S
C179 O175 1.246 . S
C179 O176 1.259 . S
C180 O177 1.252 . S
C180 O178 1.273 . S
O181 Mg168 2.010 . S
O181 C173 1.249 . S
Mg182 O183 2.028 . S
Mg182 O189 1.986 . S
Mg182 O191 2.114 1_455 S
Mg182 O192 2.251 . S
Mg182 O195 2.010 . S
O183 Mg182 2.028 . S
O183 C186 1.250 . S
O184 Mg185 2.028 . S
O184 C186 1.248 . S
Mg185 O184 2.028 . S
Mg185 O190 2.032 . S
Mg185 O192 2.079 . S
C186 O183 1.250 . S
C186 O184 1.248 . S
C187 O188 1.264 . S
C187 O195 1.249 . S
O188 C187 1.264 . S
O189 Mg182 1.986 . S
O189 C193 1.246 . S
O190 Mg185 2.032 . S
O190 C193 1.259 . S
O191 Mg182 2.114 1_655 S
O191 C194 1.252 1_655 S
O192 Mg182 2.251 . S
O192 Mg185 2.079 . S
O192 C194 1.273 . S
C193 O189 1.246 . S
C193 O190 1.259 . S
C194 O191 1.252 1_455 S
C194 O192 1.273 . S
O195 Mg182 2.010 . S
O195 C187 1.249 . S
Mg196 O197 2.028 . S
Mg196 O203 1.986 . S
Mg196 O205 2.114 1_655 S
Mg196 O206 2.251 . S
Mg196 O209 2.010 . S
O197 Mg196 2.028 . S
O197 C200 1.250 . S
O198 Mg199 2.028 . S
O198 C200 1.248 . S
Mg199 O198 2.028 . S
Mg199 O204 2.032 . S
Mg199 O206 2.079 . S
C200 O197 1.250 . S
C200 O198 1.248 . S
C201 O202 1.264 . S
C201 O209 1.249 . S
O202 C201 1.264 . S
O203 Mg196 1.986 . S
O203 C207 1.246 . S
O204 Mg199 2.032 . S
O204 C207 1.259 . S
O205 Mg196 2.114 1_455 S
O205 C208 1.252 1_455 S
O206 Mg196 2.251 . S
O206 Mg199 2.079 . S
O206 C208 1.273 . S
C207 O203 1.246 . S
C207 O204 1.259 . S
C208 O205 1.252 1_655 S
C208 O206 1.273 . S
O209 Mg196 2.010 . S
O209 C201 1.249 . S
Mg210 O211 2.028 . S
Mg210 O217 1.986 . S
Mg210 O219 2.114 . S
Mg210 O220 2.251 . S
Mg210 O223 2.010 . S
O211 Mg210 2.028 . S
O211 C214 1.250 . S
O212 Mg213 2.028 . S
O212 C214 1.248 . S
Mg213 O212 2.028 . S
Mg213 O218 2.032 . S
Mg213 O220 2.079 . S
C214 O211 1.250 . S
C214 O212 1.248 . S
C215 O216 1.264 . S
C215 O223 1.249 . S
O216 C215 1.264 . S
O217 Mg210 1.986 . S
O217 C221 1.246 . S
O218 Mg213 2.032 . S
O218 C221 1.259 . S
O219 Mg210 2.114 . S
O219 C222 1.252 . S
O220 Mg210 2.251 . S
O220 Mg213 2.079 . S
O220 C222 1.273 . S
C221 O217 1.246 . S
C221 O218 1.259 . S
C222 O219 1.252 . S
C222 O220 1.273 . S
O223 Mg210 2.010 . S
O223 C215 1.249 . S
C224 C225 1.369 . S
C224 C226 1.419 . S
C224 H228 0.930 . S
C225 C224 1.369 . S
C225 C234 1.429 1_565 S
C226 C224 1.419 . S
C226 C227 1.363 1_565 S
C226 H229 0.929 . S
C227 C226 1.363 1_545 S
C227 C233 1.428 . S
H228 C224 0.930 . S
H229 C226 0.929 . S
S230 N231 1.613 . S
S230 N232 1.610 . S
N231 S230 1.613 . S
N231 C234 1.350 . S
N232 S230 1.610 . S
N232 C233 1.351 . S
C233 C227 1.428 . S
C233 N232 1.351 . S
C233 C234 1.434 . S
C234 C225 1.429 1_545 S
C234 N231 1.350 . S
C234 C233 1.434 . S
C235 C236 1.369 . S
C235 C237 1.419 . S
C235 H239 0.930 . S
C236 C235 1.369 . S
C236 C245 1.429 1_565 S
C237 C235 1.419 . S
C237 C238 1.363 1_565 S
C237 H240 0.929 . S
C238 C237 1.363 1_545 S
C238 C244 1.428 . S
H239 C235 0.930 . S
H240 C237 0.929 . S
S241 N242 1.613 . S
S241 N243 1.610 . S
N242 S241 1.613 . S
N242 C245 1.350 . S
N243 S241 1.610 . S
N243 C244 1.351 . S
C244 C238 1.428 . S
C244 N243 1.351 . S
C244 C245 1.434 . S
C245 C236 1.429 1_545 S
C245 N242 1.350 . S
C245 C244 1.434 . S
C246 C247 1.369 1_545 S
C246 C248 1.419 . S
C246 H250 0.930 . S
C247 C246 1.369 1_565 S
C247 C256 1.429 . S
C248 C246 1.419 . S
C248 C249 1.363 . S
C248 H251 0.929 . S
C249 C248 1.363 . S
C249 C255 1.428 1_545 S
H250 C246 0.930 . S
H251 C248 0.929 . S
S252 N253 1.613 . S
S252 N254 1.610 . S
N253 S252 1.613 . S
N253 C256 1.350 . S
N254 S252 1.610 . S
N254 C255 1.351 . S
C255 C249 1.428 1_565 S
C255 N254 1.351 . S
C255 C256 1.434 . S
C256 C247 1.429 . S
C256 N253 1.350 . S
C256 C255 1.434 . S
C257 C258 1.369 1_545 S
C257 C259 1.419 . S
C257 H261 0.930 . S
C258 C257 1.369 1_565 S
C258 C267 1.429 . S
C259 C257 1.419 . S
C259 C260 1.363 . S
C259 H262 0.929 . S
C260 C259 1.363 . S
C260 C266 1.428 1_545 S
H261 C257 0.930 . S
H262 C259 0.929 . S
S263 N264 1.613 . S
S263 N265 1.610 . S
N264 S263 1.613 . S
N264 C267 1.350 . S
N265 S263 1.610 . S
N265 C266 1.351 . S
C266 C260 1.428 1_565 S
C266 N265 1.351 . S
C266 C267 1.434 . S
C267 C258 1.429 . S
C267 N264 1.350 . S
C267 C266 1.434 . S
C268 C269 1.369 . S
C268 C270 1.419 . S
C268 H272 0.930 . S
C269 C268 1.369 . S
C269 C278 1.429 . S
C270 C268 1.419 . S
C270 C271 1.363 . S
C270 H273 0.929 . S
C271 C270 1.363 . S
C271 C277 1.428 . S
H272 C268 0.930 . S
H273 C270 0.929 . S
S274 N275 1.613 . S
S274 N276 1.610 . S
N275 S274 1.613 . S
N275 C278 1.350 . S
N276 S274 1.610 . S
N276 C277 1.351 . S
C277 C271 1.428 . S
C277 N276 1.351 . S
C277 C278 1.434 . S
C278 C269 1.429 . S
C278 N275 1.350 . S
C278 C277 1.434 . S
C279 C280 1.369 . S
C279 C281 1.419 . S
C279 H283 0.930 . S
C280 C279 1.369 . S
C280 C289 1.429 . S
C281 C279 1.419 . S
C281 C282 1.363 . S
C281 H284 0.929 . S
C282 C281 1.363 . S
C282 C288 1.428 . S
H283 C279 0.930 . S
H284 C281 0.929 . S
S285 N286 1.613 . S
S285 N287 1.610 . S
N286 S285 1.613 . S
N286 C289 1.350 . S
N287 S285 1.610 . S
N287 C288 1.351 . S
C288 C282 1.428 . S
C288 N287 1.351 . S
C288 C289 1.434 . S
C289 C280 1.429 . S
C289 N286 1.350 . S
C289 C288 1.434 . S
C290 C291 1.369 . S
C290 C292 1.419 . S
C290 H294 0.930 . S
C291 C290 1.369 . S
C291 C300 1.429 . S
C292 C290 1.419 . S
C292 C293 1.363 . S
C292 H295 0.929 . S
C293 C292 1.363 . S
C293 C299 1.428 . S
H294 C290 0.930 . S
H295 C292 0.929 . S
S296 N297 1.613 . S
S296 N298 1.610 . S
N297 S296 1.613 . S
N297 C300 1.350 . S
N298 S296 1.610 . S
N298 C299 1.351 . S
C299 C293 1.428 . S
C299 N298 1.351 . S
C299 C300 1.434 . S
C300 C291 1.429 . S
C300 N297 1.350 . S
C300 C299 1.434 . S
C301 C302 1.369 . S
C301 C303 1.419 . S
C301 H305 0.930 . S
C302 C301 1.369 . S
C302 C311 1.429 . S
C303 C301 1.419 . S
C303 C304 1.363 . S
C303 H306 0.929 . S
C304 C303 1.363 . S
C304 C310 1.428 . S
H305 C301 0.930 . S
H306 C303 0.929 . S
S307 N308 1.613 . S
S307 N309 1.610 . S
N308 S307 1.613 . S
N308 C311 1.350 . S
N309 S307 1.610 . S
N309 C310 1.351 . S
C310 C304 1.428 . S
C310 N309 1.351 . S
C310 C311 1.434 . S
C311 C302 1.429 . S
C311 N308 1.350 . S
C311 C310 1.434 . S
C312 C313 1.369 1_455 S
C312 C314 1.419 . S
C312 H316 0.930 . S
C313 C312 1.369 1_655 S
C313 C322 1.429 1_545 S
C314 C312 1.419 . S
C314 C315 1.363 . S
C314 H317 0.929 . S
C315 C314 1.363 . S
C315 C321 1.428 1_445 S
H316 C312 0.930 . S
H317 C314 0.929 . S
S318 N319 1.613 . S
S318 N320 1.610 . S
N319 S318 1.613 . S
N319 C322 1.350 . S
N320 S318 1.610 . S
N320 C321 1.351 . S
C321 C315 1.428 1_665 S
C321 N320 1.351 . S
C321 C322 1.434 . S
C322 C313 1.429 1_565 S
C322 N319 1.350 . S
C322 C321 1.434 . S
C323 C324 1.369 1_545 S
C323 C325 1.419 . S
C323 H327 0.930 . S
C324 C323 1.369 1_565 S
C324 C333 1.429 . S
C325 C323 1.419 . S
C325 C326 1.363 1_545 S
C325 H328 0.929 . S
C326 C325 1.363 1_565 S
C326 C332 1.428 . S
H327 C323 0.930 . S
H328 C325 0.929 . S
S329 N330 1.613 . S
S329 N331 1.610 . S
N330 S329 1.613 . S
N330 C333 1.350 . S
N331 S329 1.610 . S
N331 C332 1.351 . S
C332 C326 1.428 . S
C332 N331 1.351 . S
C332 C333 1.434 . S
C333 C324 1.429 . S
C333 N330 1.350 . S
C333 C332 1.434 . S
C334 C335 1.369 1_655 S
C334 C336 1.419 . S
C334 H338 0.930 . S
C335 C334 1.369 1_455 S
C335 C344 1.429 1_565 S
C336 C334 1.419 . S
C336 C337 1.363 . S
C336 H339 0.929 . S
C337 C336 1.363 . S
C337 C343 1.428 1_665 S
H338 C334 0.930 . S
H339 C336 0.929 . S
S340 N341 1.613 . S
S340 N342 1.610 . S
N341 S340 1.613 . S
N341 C344 1.350 . S
N342 S340 1.610 . S
N342 C343 1.351 . S
C343 C337 1.428 1_445 S
C343 N342 1.351 . S
C343 C344 1.434 . S
C344 C335 1.429 1_545 S
C344 N341 1.350 . S
C344 C343 1.434 . S
C345 C346 1.369 . S
C345 C347 1.419 . S
C345 H349 0.930 . S
C346 C345 1.369 . S
C346 C355 1.429 . S
C347 C345 1.419 . S
C347 C348 1.363 . S
C347 H350 0.929 . S
C348 C347 1.363 . S
C348 C354 1.428 . S
H349 C345 0.930 . S
H350 C347 0.929 . S
S351 N352 1.613 . S
S351 N353 1.610 . S
N352 S351 1.613 . S
N352 C355 1.350 1_565 S
N353 S351 1.610 . S
N353 C354 1.351 1_565 S
C354 C348 1.428 . S
C354 N353 1.351 1_545 S
C354 C355 1.434 . S
C355 C346 1.429 . S
C355 N352 1.350 1_545 S
C355 C354 1.434 . S
C356 C357 1.369 . S
C356 C358 1.419 . S
C356 H360 0.930 . S
C357 C356 1.369 . S
C357 C366 1.429 . S
C358 C356 1.419 . S
C358 C359 1.363 . S
C358 H361 0.929 . S
C359 C358 1.363 . S
C359 C365 1.428 . S
H360 C356 0.930 . S
H361 C358 0.929 . S
S362 N363 1.613 . S
S362 N364 1.610 . S
N363 S362 1.613 . S
N363 C366 1.350 . S
N364 S362 1.610 . S
N364 C365 1.351 . S
C365 C359 1.428 . S
C365 N364 1.351 . S
C365 C366 1.434 . S
C366 C357 1.429 . S
C366 N363 1.350 . S
C366 C365 1.434 . S
C367 C368 1.369 1_655 S
C367 C369 1.419 . S
C367 H371 0.930 . S
C368 C367 1.369 1_455 S
C368 C377 1.429 . S
C369 C367 1.419 . S
C369 C370 1.363 . S
C369 H372 0.929 . S
C370 C369 1.363 . S
C370 C376 1.428 1_655 S
H371 C367 0.930 . S
H372 C369 0.929 . S
S373 N374 1.613 . S
S373 N375 1.610 . S
N374 S373 1.613 . S
N374 C377 1.350 . S
N375 S373 1.610 . S
N375 C376 1.351 . S
C376 C370 1.428 1_455 S
C376 N375 1.351 . S
C376 C377 1.434 . S
C377 C368 1.429 . S
C377 N374 1.350 . S
C377 C376 1.434 . S
C378 C379 1.369 . S
C378 C380 1.419 . S
C378 H382 0.930 . S
C379 C378 1.369 . S
C379 C388 1.429 . S
C380 C378 1.419 . S
C380 C381 1.363 . S
C380 H383 0.929 . S
C381 C380 1.363 . S
C381 C387 1.428 . S
H382 C378 0.930 . S
H383 C380 0.929 . S
S384 N385 1.613 . S
S384 N386 1.610 . S
N385 S384 1.613 . S
N385 C388 1.350 . S
N386 S384 1.610 . S
N386 C387 1.351 . S
C387 C381 1.428 . S
C387 N386 1.351 . S
C387 C388 1.434 . S
C388 C379 1.429 . S
C388 N385 1.350 . S
C388 C387 1.434 . S
C389 C390 1.369 1_655 S
C389 C391 1.419 . S
C389 H393 0.930 . S
C390 C389 1.369 1_455 S
C390 C399 1.429 . S
C391 C389 1.419 . S
C391 C392 1.363 . S
C391 H394 0.929 . S
C392 C391 1.363 . S
C392 C398 1.428 1_655 S
H393 C389 0.930 . S
H394 C391 0.929 . S
S395 N396 1.613 . S
S395 N397 1.610 . S
N396 S395 1.613 . S
N396 C399 1.350 . S
N397 S395 1.610 . S
N397 C398 1.351 . S
C398 C392 1.428 1_455 S
C398 N397 1.351 . S
C398 C399 1.434 . S
C399 C390 1.429 . S
C399 N396 1.350 . S
C399 C398 1.434 . S
C400 C401 1.369 1_655 S
C400 C402 1.419 . S
C400 H404 0.930 . S
C401 C400 1.369 1_455 S
C401 C410 1.429 . S
C402 C400 1.419 . S
C402 C403 1.363 . S
C402 H405 0.929 . S
C403 C402 1.363 . S
C403 C409 1.428 1_655 S
H404 C400 0.930 . S
H405 C402 0.929 . S
S406 N407 1.613 . S
S406 N408 1.610 . S
N407 S406 1.613 . S
N407 C410 1.350 . S
N408 S406 1.610 . S
N408 C409 1.351 . S
C409 C403 1.428 1_455 S
C409 N408 1.351 . S
C409 C410 1.434 . S
C410 C401 1.429 . S
C410 N407 1.350 . S
C410 C409 1.434 . S
C411 C412 1.369 . S
C411 C413 1.419 . S
C411 H415 0.930 . S
C412 C411 1.369 . S
C412 C421 1.429 . S
C413 C411 1.419 . S
C413 C414 1.363 . S
C413 H416 0.929 . S
C414 C413 1.363 . S
C414 C420 1.428 . S
H415 C411 0.930 . S
H416 C413 0.929 . S
S417 N418 1.613 . S
S417 N419 1.610 . S
N418 S417 1.613 . S
N418 C421 1.350 . S
N419 S417 1.610 . S
N419 C420 1.351 . S
C420 C414 1.428 . S
C420 N419 1.351 . S
C420 C421 1.434 . S
C421 C412 1.429 . S
C421 N418 1.350 . S
C421 C420 1.434 . S
C422 C423 1.369 . S
C422 C424 1.419 . S
C422 H426 0.930 . S
C423 C422 1.369 . S
C423 C432 1.429 . S
C424 C422 1.419 . S
C424 C425 1.363 . S
C424 H427 0.929 . S
C425 C424 1.363 . S
C425 C431 1.428 . S
H426 C422 0.930 . S
H427 C424 0.929 . S
S428 N429 1.613 . S
S428 N430 1.610 . S
N429 S428 1.613 . S
N429 C432 1.350 . S
N430 S428 1.610 . S
N430 C431 1.351 . S
C431 C425 1.428 . S
C431 N430 1.351 . S
C431 C432 1.434 . S
C432 C423 1.429 . S
C432 N429 1.350 . S
C432 C431 1.434 . S
C433 C434 1.369 . S
C433 C435 1.419 . S
C433 H437 0.930 . S
C434 C433 1.369 . S
C434 C443 1.429 1_455 S
C435 C433 1.419 . S
C435 C436 1.363 1_455 S
C435 H438 0.929 . S
C436 C435 1.363 1_655 S
C436 C442 1.428 . S
H437 C433 0.930 . S
H438 C435 0.929 . S
S439 N440 1.613 . S
S439 N441 1.610 . S
N440 S439 1.613 . S
N440 C443 1.350 . S
N441 S439 1.610 . S
N441 C442 1.351 . S
C442 C436 1.428 . S
C442 N441 1.351 . S
C442 C443 1.434 . S
C443 C434 1.429 1_655 S
C443 N440 1.350 . S
C443 C442 1.434 . S
C444 C445 1.369 1_655 S
C444 C446 1.419 . S
C444 H448 0.930 . S
C445 C444 1.369 1_455 S
C445 C454 1.429 . S
C446 C444 1.419 . S
C446 C447 1.363 . S
C446 H449 0.929 . S
C447 C446 1.363 . S
C447 C453 1.428 1_655 S
H448 C444 0.930 . S
H449 C446 0.929 . S
S450 N451 1.613 . S
S450 N452 1.610 . S
N451 S450 1.613 . S
N451 C454 1.350 . S
N452 S450 1.610 . S
N452 C453 1.351 . S
C453 C447 1.428 1_455 S
C453 N452 1.351 . S
C453 C454 1.434 . S
C454 C445 1.429 . S
C454 N451 1.350 . S
C454 C453 1.434 . S
C455 C456 1.369 . S
C455 C457 1.419 . S
C455 H459 0.930 . S
C456 C455 1.369 . S
C456 C465 1.429 . S
C457 C455 1.419 . S
C457 C458 1.363 . S
C457 H460 0.929 . S
C458 C457 1.363 . S
C458 C464 1.428 . S
H459 C455 0.930 . S
H460 C457 0.929 . S
S461 N462 1.613 . S
S461 N463 1.610 . S
N462 S461 1.613 . S
N462 C465 1.350 . S
N463 S461 1.610 . S
N463 C464 1.351 . S
C464 C458 1.428 . S
C464 N463 1.351 . S
C464 C465 1.434 . S
C465 C456 1.429 . S
C465 N462 1.350 . S
C465 C464 1.434 . S
C466 C467 1.369 . S
C466 C468 1.419 . S
C466 H470 0.930 . S
C467 C466 1.369 . S
C467 C476 1.429 . S
C468 C466 1.419 . S
C468 C469 1.363 . S
C468 H471 0.929 . S
C469 C468 1.363 . S
C469 C475 1.428 . S
H470 C466 0.930 . S
H471 C468 0.929 . S
S472 N473 1.613 . S
S472 N474 1.610 . S
N473 S472 1.613 . S
N473 C476 1.350 . S
N474 S472 1.610 . S
N474 C475 1.351 . S
C475 C469 1.428 . S
C475 N474 1.351 . S
C475 C476 1.434 . S
C476 C467 1.429 . S
C476 N473 1.350 . S
C476 C475 1.434 . S
C477 C478 1.369 1_655 S
C477 C479 1.419 . S
C477 H481 0.930 . S
C478 C477 1.369 1_455 S
C478 C487 1.429 . S
C479 C477 1.419 . S
C479 C480 1.363 . S
C479 H482 0.929 . S
C480 C479 1.363 . S
C480 C486 1.428 1_655 S
H481 C477 0.930 . S
H482 C479 0.929 . S
S483 N484 1.613 . S
S483 N485 1.610 . S
N484 S483 1.613 . S
N484 C487 1.350 . S
N485 S483 1.610 . S
N485 C486 1.351 . S
C486 C480 1.428 1_455 S
C486 N485 1.351 . S
C486 C487 1.434 . S
C487 C478 1.429 . S
C487 N484 1.350 . S
C487 C486 1.434 . S
C488 C489 1.367 1_455 S
C488 C490 1.421 1_556 S
C488 H492 0.931 . S
C489 C488 1.367 1_655 S
C489 C498 1.429 1_565 S
C490 C488 1.421 1_554 S
C490 C491 1.363 . S
C490 H493 0.929 . S
C491 C490 1.363 . S
C491 C497 1.429 1_565 S
H492 C488 0.931 . S
H493 C490 0.929 . S
S494 N495 1.613 1_554 S
S494 N496 1.610 1_655 S
N495 S494 1.613 1_556 S
N495 C498 1.350 . S
N496 S494 1.610 1_455 S
N496 C497 1.351 . S
C497 C491 1.429 1_545 S
C497 N496 1.351 . S
C497 C498 1.433 1_454 S
C498 C489 1.429 1_545 S
C498 N495 1.350 . S
C498 C497 1.433 1_656 S
C499 C500 1.369 . S
C499 C501 1.419 1_556 S
C499 H503 0.930 . S
C500 C499 1.369 . S
C500 C509 1.429 . S
C501 C499 1.419 1_554 S
C501 C502 1.363 . S
C501 H504 0.929 . S
C502 C501 1.363 . S
C502 C508 1.428 . S
H503 C499 0.930 . S
H504 C501 0.929 . S
S505 N506 1.613 1_554 S
S505 N507 1.610 . S
N506 S505 1.613 1_556 S
N506 C509 1.350 . S
N507 S505 1.610 . S
N507 C508 1.351 . S
C508 C502 1.428 . S
C508 N507 1.351 . S
C508 C509 1.434 1_554 S
C509 C500 1.429 . S
C509 N506 1.350 . S
C509 C508 1.434 1_556 S
C510 C511 1.369 1_565 S
C510 C512 1.419 . S
C510 H514 0.930 . S
C511 C510 1.369 1_545 S
C511 C520 1.429 . S
C512 C510 1.419 . S
C512 C513 1.363 1_565 S
C512 H515 0.929 . S
C513 C512 1.363 1_545 S
C513 C519 1.428 . S
H514 C510 0.930 . S
H515 C512 0.929 . S
S516 N517 1.613 . S
S516 N518 1.610 . S
N517 S516 1.613 . S
N517 C520 1.350 . S
N518 S516 1.610 . S
N518 C519 1.351 . S
C519 C513 1.428 . S
C519 N518 1.351 . S
C519 C520 1.434 . S
C520 C511 1.429 . S
C520 N517 1.350 . S
C520 C519 1.434 . S
C521 C522 1.369 1_655 S
C521 C523 1.419 . S
C521 H525 0.930 . S
C522 C521 1.369 1_455 S
C522 C531 1.429 . S
C523 C521 1.419 . S
C523 C524 1.363 . S
C523 H526 0.929 . S
C524 C523 1.363 . S
C524 C530 1.428 1_655 S
H525 C521 0.930 . S
H526 C523 0.929 . S
S527 N528 1.613 . S
S527 N529 1.610 . S
N528 S527 1.613 . S
N528 C531 1.350 . S
N529 S527 1.610 . S
N529 C530 1.351 . S
C530 C524 1.428 1_455 S
C530 N529 1.351 . S
C530 C531 1.434 . S
C531 C522 1.429 . S
C531 N528 1.350 . S
C531 C530 1.434 . S
C532 C533 1.369 . S
C532 C534 1.419 1_554 S
C532 H536 0.930 . S
C533 C532 1.369 . S
C533 C542 1.429 . S
C534 C532 1.419 1_556 S
C534 C535 1.363 . S
C534 H537 0.929 . S
C535 C534 1.363 . S
C535 C541 1.428 . S
H536 C532 0.930 . S
H537 C534 0.929 . S
S538 N539 1.613 . S
S538 N540 1.610 1_554 S
N539 S538 1.613 . S
N539 C542 1.350 . S
N540 S538 1.610 1_556 S
N540 C541 1.351 . S
C541 C535 1.428 . S
C541 N540 1.351 . S
C541 C542 1.434 1_556 S
C542 C533 1.429 . S
C542 N539 1.350 . S
C542 C541 1.434 1_554 S
C543 C544 1.369 1_455 S
C543 C545 1.419 1_554 S
C543 H547 0.930 . S
C544 C543 1.369 1_655 S
C544 C553 1.429 . S
C545 C543 1.419 1_556 S
C545 C546 1.363 . S
C545 H548 0.929 . S
C546 C545 1.363 . S
C546 C552 1.428 1_455 S
H547 C543 0.930 . S
H548 C545 0.929 . S
S549 N550 1.613 . S
S549 N551 1.610 1_554 S
N550 S549 1.613 . S
N550 C553 1.350 . S
N551 S549 1.610 1_556 S
N551 C552 1.351 . S
C552 C546 1.428 1_655 S
C552 N551 1.351 . S
C552 C553 1.434 1_556 S
C553 C544 1.429 . S
C553 N550 1.350 . S
C553 C552 1.434 1_554 S
C554 C555 1.369 . S
C554 C556 1.419 . S
C554 H558 0.930 . S
C555 C554 1.369 . S
C555 C564 1.429 1_655 S
C556 C554 1.419 . S
C556 C557 1.363 1_655 S
C556 H559 0.929 . S
C557 C556 1.363 1_455 S
C557 C563 1.428 . S
H558 C554 0.930 . S
H559 C556 0.929 . S
S560 N561 1.613 . S
S560 N562 1.610 . S
N561 S560 1.613 . S
N561 C564 1.350 . S
N562 S560 1.610 . S
N562 C563 1.351 . S
C563 C557 1.428 . S
C563 N562 1.351 . S
C563 C564 1.434 . S
C564 C555 1.429 1_455 S
C564 N561 1.350 . S
C564 C563 1.434 . S
C565 C566 1.369 . S
C565 C567 1.419 . S
C565 H569 0.930 . S
C566 C565 1.369 . S
C566 C575 1.429 . S
C567 C565 1.419 . S
C567 C568 1.363 . S
C567 H570 0.929 . S
C568 C567 1.363 . S
C568 C574 1.428 . S
H569 C565 0.930 . S
H570 C567 0.929 . S
S571 N572 1.613 . S
S571 N573 1.610 . S
N572 S571 1.613 . S
N572 C575 1.350 . S
N573 S571 1.610 . S
N573 C574 1.351 . S
C574 C568 1.428 . S
C574 N573 1.351 . S
C574 C575 1.434 . S
C575 C566 1.429 . S
C575 N572 1.350 . S
C575 C574 1.434 . S
C225 C26 1.483 . S
C227 C12 1.482 . S
C236 C40 1.483 . S
C238 C54 1.482 . S
C247 C67 1.601 . S
C249 C81 1.598 . S
C258 C109 1.603 . S
C260 C95 1.599 . S
C269 C138 1.482 . S
C271 C124 1.483 . S
C280 C166 1.482 . S
C282 C152 1.483 . S
C291 C193 1.602 . S
C293 C179 1.602 . S
C302 C221 1.597 . S
C304 C207 1.599 . S
C313 C46 1.169 . S
C315 C4 1.171 . S
C324 C18 1.168 . S
C326 C32 1.173 . S
C335 C103 1.187 . S
C337 C61 1.191 . S
C346 C89 1.188 . S
C348 C75 1.189 . S
C357 C116 1.171 . S
C359 C158 1.172 . S
C368 C144 1.168 . S
C370 C130 1.173 . S
C379 C215 1.189 . S
C381 C173 1.189 . S
C390 C187 1.187 . S
C392 C201 1.193 . S
C401 C5 1.302 . S
C403 C131 1.308 . S
C412 C19 1.310 . S
C414 C117 1.305 . S
C423 C159 1.306 . S
C425 C33 1.311 . S
C434 C145 1.306 . S
C436 C47 1.303 . S
C445 C186 1.666 . S
C447 C60 1.665 . S
C456 C172 1.669 . S
C458 C74 1.666 . S
C467 C88 1.664 . S
C469 C214 1.667 . S
C478 C102 1.669 . S
C480 C200 1.666 . S
C489 C68 1.321 . S
C491 C11 1.330 . S
C500 C82 1.318 . S
C502 C25 1.329 . S
C511 C96 1.313 . S
C513 C39 1.332 . S
C522 C110 1.313 . S
C524 C53 1.334 . S
C533 C123 1.334 . S
C535 C180 1.312 . S
C544 C137 1.330 . S
C546 C194 1.319 . S
C555 C208 1.317 . S
C557 C151 1.329 . S
C566 C222 1.317 . S
C568 C165 1.332 . S
