# Generated by pormake.
# Topology sml, (6)-cn, num edge types: 1
# Building blocks:
#     Node 0, Type 0, BuildingBlock: GEDQOX_clean_sbu_0, # of connection points: 6
#     Node 1, Type 0, BuildingBlock: GEDQOX_clean_sbu_0, # of connection points: 6
#     Node 2, Type 0, BuildingBlock: GEDQOX_clean_sbu_0, # of connection points: 6
#     Node 3, Type 0, BuildingBlock: GEDQOX_clean_sbu_0, # of connection points: 6
#     Node 4, Type 0, BuildingBlock: GEDQOX_clean_sbu_0, # of connection points: 6
#     Node 5, Type 0, BuildingBlock: GEDQOX_clean_sbu_0, # of connection points: 6
#     Edge 6, Type (0, 0), BuildingBlock: MIFKUJ_clean_linker_0, # of connection points: 2
#     Edge 7, Type (0, 0), BuildingBlock: MIFKUJ_clean_linker_0, # of connection points: 2
#     Edge 8, Type (0, 0), BuildingBlock: MIFKUJ_clean_linker_0, # of connection points: 2
#     Edge 9, Type (0, 0), BuildingBlock: MIFKUJ_clean_linker_0, # of connection points: 2
#     Edge 10, Type (0, 0), BuildingBlock: MIFKUJ_clean_linker_0, # of connection points: 2
#     Edge 11, Type (0, 0), BuildingBlock: MIFKUJ_clean_linker_0, # of connection points: 2
#     Edge 12, Type (0, 0), BuildingBlock: MIFKUJ_clean_linker_0, # of connection points: 2
#     Edge 13, Type (0, 0), BuildingBlock: MIFKUJ_clean_linker_0, # of connection points: 2
#     Edge 14, Type (0, 0), BuildingBlock: MIFKUJ_clean_linker_0, # of connection points: 2
#     Edge 15, Type (0, 0), BuildingBlock: MIFKUJ_clean_linker_0, # of connection points: 2
#     Edge 16, Type (0, 0), BuildingBlock: MIFKUJ_clean_linker_0, # of connection points: 2
#     Edge 17, Type (0, 0), BuildingBlock: MIFKUJ_clean_linker_0, # of connection points: 2
#     Edge 18, Type (0, 0), BuildingBlock: MIFKUJ_clean_linker_0, # of connection points: 2
#     Edge 19, Type (0, 0), BuildingBlock: MIFKUJ_clean_linker_0, # of connection points: 2
#     Edge 20, Type (0, 0), BuildingBlock: MIFKUJ_clean_linker_0, # of connection points: 2
#     Edge 21, Type (0, 0), BuildingBlock: MIFKUJ_clean_linker_0, # of connection points: 2
#     Edge 22, Type (0, 0), BuildingBlock: MIFKUJ_clean_linker_0, # of connection points: 2
#     Edge 23, Type (0, 0), BuildingBlock: MIFKUJ_clean_linker_0, # of connection points: 2
# Relax obj value: 0.223
# Max RMSD: 0.226
# Mean RMSD: 0.226
data_MOF--net-sml--node1-GEDQOX_clean_sbu_0--edge1-MIFKUJ_clean_linker_0
_symmetry_space_group_name_H-M    P1
_symmetry_Int_Tables_number       1
_symmetry_cell_setting            triclinic
loop_
_symmetry_equiv_pos_as_xyz
'x, y, z'
_cell_length_a     64.892253
_cell_length_b     64.878033
_cell_length_c     20.197392
_cell_angle_alpha  89.888416
_cell_angle_beta   90.065409
_cell_angle_gamma 119.99463
loop_
_atom_site_label
_atom_site_type_symbol
_atom_site_fract_x
_atom_site_fract_y
_atom_site_fract_z
_atom_type_partial_charge
Nd0 Nd 0.22516 0.40996 0.02056 0.0
Nd1 Nd 0.21001 0.4476 0.0262 0.0
C2 C 0.23983 0.379 0.99776 0.0
C3 C 0.24805 0.36731 0.94983 0.0
C4 C 0.26899 0.38022 0.91267 0.0
C5 C 0.27821 0.3683 0.87597 0.0
C6 C 0.26675 0.34323 0.87577 0.0
C7 C 0.24504 0.3304 0.90982 0.0
C8 C 0.23587 0.34232 0.94649 0.0
C9 C 0.17828 0.39361 0.05218 0.0
C10 C 0.21502 0.42946 0.88031 0.0
C11 C 0.18478 0.46857 0.05112 0.0
C12 C 0.1868 0.48871 0.09129 0.0
C13 C 0.16849 0.48475 0.13553 0.0
C14 C 0.16914 0.50367 0.17081 0.0
C15 C 0.18814 0.5271 0.16268 0.0
C16 C 0.20691 0.53089 0.12007 0.0
C17 C 0.20626 0.51194 0.08484 0.0
C18 C 0.25882 0.47294 1.01869 0.0
C19 C 0.22556 0.43117 0.16437 0.0
O20 O 0.25419 0.40118 1.01495 0.0
O21 O 0.21756 0.37354 0.99503 0.0
O22 O 0.19183 0.38763 0.08401 0.0
O23 O 0.18965 0.40826 1.00655 0.0
O24 O 0.22422 0.41774 0.90983 0.0
O25 O 0.20646 0.44104 0.91371 0.0
O26 O 0.18199 0.44985 0.08362 0.0
O27 O 0.19874 0.47367 0.99945 0.0
O28 O 0.24516 0.48203 0.024 0.0
O29 O 0.24676 0.4503 0.01934 0.0
O30 O 0.21406 0.44089 0.13651 0.0
O31 O 0.23433 0.42014 0.12953 0.0
H32 H 0.2787 0.39949 0.91375 0.0
H33 H 0.29473 0.37875 0.8493 0.0
H34 H 0.23578 0.31114 0.9113 0.0
H35 H 0.21971 0.33191 0.97481 0.0
H36 H 0.1534 0.46701 0.142 0.0
H37 H 0.15459 0.49994 0.20404 0.0
H38 H 0.22176 0.54865 0.11205 0.0
H39 H 0.22079 0.5156 0.05159 0.0
Nd40 Nd 0.82111 0.22395 0.3555 0.0
Nd41 Nd 0.76955 0.20815 0.35524 0.0
C42 C 0.86761 0.24412 0.33345 0.0
C43 C 0.88652 0.24778 0.28542 0.0
C44 C 0.89395 0.2651 0.23507 0.0
C45 C 0.9149 0.27174 0.19929 0.0
C46 C 0.92895 0.2614 0.21381 0.0
C47 C 0.92063 0.24294 0.26069 0.0
C48 C 0.89965 0.23618 0.29598 0.0
C49 C 0.79264 0.17582 0.37805 0.0
C50 C 0.79252 0.2108 0.21338 0.0
C51 C 0.72316 0.1882 0.37964 0.0
C52 C 0.7057 0.18986 0.424 0.0
C53 C 0.69298 0.172 0.47133 0.0
C54 C 0.67443 0.17174 0.50772 0.0
C55 C 0.66799 0.18927 0.49744 0.0
C56 C 0.68132 0.20758 0.45161 0.0
C57 C 0.69988 0.20788 0.41547 0.0
C58 C 0.79797 0.25635 0.33334 0.0
C59 C 0.79872 0.22155 0.49793 0.0
O60 O 0.85548 0.25499 0.32366 0.0
O61 O 0.85481 0.22299 0.35948 0.0
O62 O 0.81275 0.18927 0.40733 0.0
O63 O 0.78828 0.1875 0.33541 0.0
O64 O 0.81302 0.22309 0.24439 0.0
O65 O 0.77233 0.19952 0.2466 0.0
O66 O 0.73653 0.18033 0.40465 0.0
O67 O 0.73452 0.20521 0.33643 0.0
O68 O 0.7778 0.24286 0.30461 0.0
O69 O 0.80213 0.24459 0.37619 0.0
O70 O 0.77807 0.21039 0.46688 0.0
O71 O 0.81895 0.2316 0.46494 0.0
H72 H 0.8843 0.27443 0.22564 0.0
H73 H 0.92095 0.28608 0.16356 0.0
H74 H 0.931 0.23452 0.2724 0.0
H75 H 0.89447 0.22278 0.33431 0.0
H76 H 0.69695 0.15782 0.47901 0.0
H77 H 0.66492 0.15757 0.54327 0.0
H78 H 0.67683 0.22125 0.4414 0.0
H79 H 0.70915 0.22187 0.37927 0.0
Nd80 Nd 0.60436 0.81858 0.68829 0.0
Nd81 Nd 0.56559 0.76488 0.69124 0.0
C82 C 0.63542 0.86427 0.66716 0.0
C83 C 0.64765 0.88426 0.6197 0.0
C84 C 0.63541 0.88931 0.5708 0.0
C85 C 0.64743 0.91006 0.53219 0.0
C86 C 0.67189 0.92629 0.54205 0.0
C87 C 0.68419 0.92036 0.58887 0.0
C88 C 0.67222 0.89963 0.62698 0.0
C89 C 0.61985 0.78726 0.71882 0.0
C90 C 0.5846 0.7895 0.54698 0.0
C91 C 0.54427 0.71858 0.71512 0.0
C92 C 0.52455 0.70058 0.7568 0.0
C93 C 0.52906 0.68687 0.80225 0.0
C94 C 0.5105 0.66875 0.83909 0.0
C95 C 0.48691 0.66385 0.83131 0.0
C96 C 0.48259 0.67817 0.78733 0.0
C97 C 0.50115 0.6963 0.75062 0.0
C98 C 0.54198 0.79032 0.68679 0.0
C99 C 0.58234 0.79618 0.8306 0.0
O100 O 0.61301 0.85635 0.68187 0.0
O101 O 0.641 0.84752 0.66566 0.0
O102 O 0.62648 0.807 0.75013 0.0
O103 O 0.60521 0.7843 0.67332 0.0
O104 O 0.59595 0.81018 0.57791 0.0
O105 O 0.57319 0.76901 0.57927 0.0
O106 O 0.56353 0.73421 0.74618 0.0
O107 O 0.53874 0.72778 0.66496 0.0
O108 O 0.53159 0.76737 0.69056 0.0
O109 O 0.56437 0.79935 0.68763 0.0
O110 O 0.57287 0.7752 0.80133 0.0
O111 O 0.59314 0.81633 0.79679 0.0
H112 H 0.61649 0.87759 0.56354 0.0
H113 H 0.6374 0.91363 0.49561 0.0
H114 H 0.70288 0.93231 0.59878 0.0
H115 H 0.68208 0.89607 0.66423 0.0
H116 H 0.54695 0.6899 0.8085 0.0
H117 H 0.51463 0.65843 0.87323 0.0
H118 H 0.46468 0.67485 0.77933 0.0
H119 H 0.49703 0.70662 0.71644 0.0
Nd120 Nd 0.7902 0.60001 0.02155 0.0
Nd121 Nd 0.80499 0.56352 0.02142 0.0
C122 C 0.7715 0.62775 1.0003 0.0
C123 C 0.76717 0.64259 0.95229 0.0
C124 C 0.74916 0.63234 0.90397 0.0
C125 C 0.74221 0.64647 0.8683 0.0
C126 C 0.75292 0.67103 0.88083 0.0
C127 C 0.772 0.68144 0.92574 0.0
C128 C 0.77903 0.6674 0.96099 0.0
C129 C 0.83787 0.618 0.04614 0.0
C130 C 0.80321 0.58428 0.87943 0.0
C131 C 0.82442 0.53665 0.0462 0.0
C132 C 0.82375 0.51862 0.09319 0.0
C133 C 0.84447 0.5234 0.12787 0.0
C134 C 0.84532 0.50557 0.16509 0.0
C135 C 0.8254 0.48255 0.16882 0.0
C136 C 0.8043 0.47807 0.13675 0.0
C137 C 0.80349 0.49585 0.09915 0.0
C138 C 0.75715 0.54469 0.99695 0.0
C139 C 0.7914 0.57934 0.16407 0.0
O140 O 0.75943 0.60455 0.99473 0.0
O141 O 0.79324 0.63567 0.02114 0.0
O142 O 0.82468 0.62445 0.07775 0.0
O143 O 0.82618 0.60292 1.0017 0.0
O144 O 0.79134 0.59305 0.91012 0.0
O145 O 0.81382 0.57469 0.91283 0.0
O146 O 0.83366 0.55864 0.06663 0.0
O147 O 0.80612 0.53026 1.00726 0.0
O148 O 0.77064 0.53801 0.96815 0.0
O149 O 0.76875 0.56025 0.04074 0.0
O150 O 0.80198 0.56919 0.13333 0.0
O151 O 0.78224 0.59036 0.13088 0.0
H152 H 0.73963 0.61329 0.896 0.0
H153 H 0.72742 0.63792 0.83411 0.0
H154 H 0.78081 0.70036 0.9358 0.0
H155 H 0.79296 0.67585 0.99777 0.0
H156 H 0.86034 0.54076 0.12429 0.0
H157 H 0.86175 0.50964 0.18982 0.0
H158 H 0.7887 0.46047 0.13817 0.0
H159 H 0.78722 0.49147 0.07302 0.0
Nd160 Nd 0.19547 0.78756 0.35266 0.0
Nd161 Nd 0.2491 0.80496 0.36134 0.0
C162 C 0.1499 0.7723 0.32726 0.0
C163 C 0.13007 0.76456 0.27916 0.0
C164 C 0.12001 0.74241 0.24715 0.0
C165 C 0.09859 0.73372 0.21211 0.0
C166 C 0.08694 0.74705 0.20806 0.0
C167 C 0.0978 0.76984 0.23618 0.0
C168 C 0.11908 0.77844 0.27169 0.0
C169 C 0.2243 0.83487 0.38496 0.0
C170 C 0.2262 0.7991 0.21459 0.0
C171 C 0.29515 0.83025 0.38864 0.0
C172 C 0.31325 0.82773 0.42776 0.0
C173 C 0.32692 0.84502 0.47543 0.0
C174 C 0.34533 0.84412 0.50938 0.0
C175 C 0.35039 0.82585 0.49654 0.0
C176 C 0.33623 0.80806 0.45074 0.0
C177 C 0.31779 0.80893 0.41676 0.0
C178 C 0.22651 0.75593 0.3512 0.0
C179 C 0.21623 0.78868 0.49736 0.0
O180 O 0.15788 0.75797 0.34362 0.0
O181 O 0.16649 0.79467 0.32634 0.0
O182 O 0.20431 0.82072 0.41387 0.0
O183 O 0.22882 0.82393 0.34076 0.0
O184 O 0.20514 0.78717 0.24316 0.0
O185 O 0.24614 0.81045 0.2493 0.0
O186 O 0.27887 0.83208 0.42218 0.0
O187 O 0.28672 0.81738 0.33489 0.0
O188 O 0.24914 0.76991 0.35824 0.0
O189 O 0.21591 0.76788 0.35205 0.0
O190 O 0.23727 0.80255 0.47035 0.0
O191 O 0.19676 0.77729 0.46106 0.0
H192 H 0.12805 0.73132 0.25171 0.0
H193 H 0.09053 0.71609 0.19059 0.0
H194 H 0.08904 0.78034 0.23441 0.0
H195 H 0.1263 0.7955 0.29632 0.0
H196 H 0.32375 0.85962 0.4852 0.0
H197 H 0.3561 0.85808 0.54426 0.0
H198 H 0.33993 0.79389 0.43979 0.0
H199 H 0.30749 0.7952 0.38083 0.0
Nd200 Nd 0.41358 0.19288 0.69075 0.0
Nd201 Nd 0.4503 0.24709 0.69257 0.0
C202 C 0.38386 0.14683 0.66953 0.0
C203 C 0.37086 0.12674 0.62294 0.0
C204 C 0.38187 0.12233 0.56932 0.0
C205 C 0.36912 0.10163 0.53093 0.0
C206 C 0.3452 0.08471 0.5459 0.0
C207 C 0.33416 0.08996 0.59806 0.0
C208 C 0.34676 0.11069 0.63559 0.0
C209 C 0.39583 0.2227 0.71906 0.0
C210 C 0.43133 0.22225 0.54909 0.0
C211 C 0.47104 0.29332 0.71705 0.0
C212 C 0.49113 0.31151 0.75706 0.0
C213 C 0.48772 0.32765 0.79517 0.0
C214 C 0.50663 0.34588 0.83051 0.0
C215 C 0.52937 0.34824 0.82913 0.0
C216 C 0.53256 0.33144 0.79333 0.0
C217 C 0.51365 0.3133 0.75744 0.0
C218 C 0.47614 0.22385 0.68381 0.0
C219 C 0.43463 0.21574 0.83237 0.0
O220 O 0.40675 0.15576 0.67906 0.0
O221 O 0.3772 0.16274 0.67271 0.0
O222 O 0.3892 0.20269 0.74898 0.0
O223 O 0.41093 0.22624 0.67464 0.0
O224 O 0.42247 0.20161 0.58035 0.0
O225 O 0.44035 0.2427 0.58153 0.0
O226 O 0.45264 0.27728 0.75012 0.0
O227 O 0.47607 0.28452 0.66516 0.0
O228 O 0.48516 0.24664 0.68742 0.0
O229 O 0.45365 0.21367 0.68686 0.0
O230 O 0.44183 0.23638 0.8025 0.0
O231 O 0.42621 0.19572 0.79847 0.0
H232 H 0.40037 0.1346 0.5579 0.0
H233 H 0.37823 0.09876 0.49026 0.0
H234 H 0.31602 0.07758 0.61249 0.0
H235 H 0.33783 0.11373 0.67652 0.0
H236 H 0.47045 0.32643 0.79659 0.0
H237 H 0.50356 0.35834 0.85836 0.0
H238 H 0.5499 0.33285 0.79115 0.0
H239 H 0.51678 0.30095 0.72918 0.0
H240 H 0.3516 0.20872 0.67158 0.0
H241 H 0.32775 0.22813 0.68823 0.0
H242 H 0.38569 0.28433 0.79754 0.0
H243 H 0.40933 0.26478 0.78127 0.0
H244 H 0.34345 0.26702 0.86282 0.0
H245 H 0.37234 0.29462 0.64163 0.0
H246 H 0.37906 0.28945 0.52416 0.0
H247 H 0.30368 0.24667 0.4935 0.0
H248 H 0.29653 0.25141 0.61106 0.0
H249 H 0.31366 0.35613 0.88317 0.0
H250 H 0.33278 0.33405 0.84592 0.0
H251 H 0.26611 0.27914 0.76669 0.0
H252 H 0.24665 0.30136 0.80369 0.0
H253 H 0.30864 0.29229 0.68297 0.0
H254 H 0.27911 0.26495 0.90075 0.0
H255 H 0.27152 0.26947 1.01794 0.0
H256 H 0.34672 0.31013 0.05445 0.0
H257 H 0.35474 0.30604 0.93718 0.0
C258 C 0.3593 0.22542 0.69824 0.0
C259 C 0.38245 0.23556 0.72405 0.0
C260 C 0.3457 0.23651 0.7077 0.0
C261 C 0.35495 0.25786 0.74369 0.0
C262 C 0.37817 0.26797 0.76933 0.0
C263 C 0.3918 0.25695 0.75946 0.0
C264 C 0.34017 0.26913 0.75722 0.0
C265 C 0.33609 0.27274 0.82334 0.0
C266 C 0.32971 0.27585 0.70599 0.0
C267 C 0.33392 0.27318 0.63522 0.0
C268 C 0.35721 0.28398 0.60991 0.0
C269 C 0.36109 0.28116 0.54332 0.0
C270 C 0.34181 0.26768 0.50143 0.0
C271 C 0.3186 0.25708 0.52602 0.0
C272 C 0.31462 0.25987 0.5926 0.0
C273 C 0.30307 0.33964 0.85654 0.0
C274 C 0.27858 0.33062 0.84642 0.0
C275 C 0.31404 0.32693 0.83563 0.0
C276 C 0.30089 0.30488 0.8038 0.0
C277 C 0.27662 0.29613 0.79108 0.0
C278 C 0.26551 0.30879 0.81266 0.0
C279 C 0.3125 0.29059 0.7884 0.0
C280 C 0.3159 0.28637 0.72223 0.0
C281 C 0.32218 0.28305 0.83947 0.0
C282 C 0.31752 0.28533 0.91017 0.0
C283 C 0.29402 0.27497 0.93371 0.0
C284 C 0.28964 0.27743 1.00014 0.0
C285 C 0.30863 0.29011 0.04359 0.0
C286 C 0.33203 0.30031 0.02072 0.0
C287 C 0.33651 0.29789 0.95431 0.0
H288 H 0.3052 0.29202 0.095 0.0
H289 H 0.34485 0.26549 0.4499 0.0
H290 H 0.14367 0.38096 0.95776 0.0
H291 H 0.10055 0.35616 0.9732 0.0
H292 H 0.11117 0.35472 0.18396 0.0
H293 H 0.15421 0.37789 0.16754 0.0
H294 H 0.08119 0.3133 0.15058 0.0
H295 H 0.08748 0.38955 0.09539 0.0
H296 H 0.09886 0.42443 0.02357 0.0
H297 H 0.05608 0.37851 0.86611 0.0
H298 H 0.04463 0.34335 0.93685 0.0
H299 H 0.96917 0.27718 0.28577 0.0
H300 H 0.01019 0.29765 0.2476 0.0
H301 H 0.98607 0.2901 0.04513 0.0
H302 H 0.94459 0.27065 0.08427 0.0
H303 H 0.02154 0.33204 0.05884 0.0
H304 H 0.0125 0.25611 0.11706 0.0
H305 H 1.00121 0.22107 0.18818 0.0
H306 H 0.04908 0.26612 0.33925 0.0
H307 H 0.0606 0.30141 0.26914 0.0
C308 C 0.13667 0.37553 1.00736 0.0
C309 C 0.15219 0.38137 0.06155 0.0
C310 C 0.11197 0.36141 1.01632 0.0
C311 C 0.10228 0.35365 0.08002 0.0
C312 C 0.11797 0.36022 0.13421 0.0
C313 C 0.1426 0.37363 0.12497 0.0
C314 C 0.07605 0.33795 0.0909 0.0
C315 C 0.06824 0.31765 0.13102 0.0
C316 C 0.05875 0.34272 0.06319 0.0
C317 C 0.06539 0.36386 0.02115 0.0
C318 C 0.08059 0.38691 0.04535 0.0
C319 C 0.08704 0.40672 1.00486 0.0
C320 C 0.07824 0.40369 0.94026 0.0
C321 C 0.0629 0.38084 0.91612 0.0
C322 C 0.0564 0.36097 0.9564 0.0
C323 C 0.97257 0.27957 0.23301 0.0
C324 C 0.95367 0.27207 0.18799 0.0
C325 C 0.99612 0.29117 0.21104 0.0
C326 C 1.00148 0.29494 0.14313 0.0
C327 C 0.98253 0.28731 0.09775 0.0
C328 C 0.95884 0.27614 0.12002 0.0
C329 C 0.02688 0.30801 0.12073 0.0
C330 C 0.03449 0.32764 0.07803 0.0
C331 C 0.04406 0.30264 0.14601 0.0
C332 C 0.03734 0.28139 0.18791 0.0
C333 C 0.02056 0.25853 0.16552 0.0
C334 C 0.01414 0.23863 0.20562 0.0
C335 C 0.0244 0.24137 0.2682 0.0
C336 C 0.04118 0.26401 0.29073 0.0
C337 C 0.04772 0.28396 0.25074 0.0
H338 H 0.01937 0.22595 0.29923 0.0
H339 H 0.08328 0.41904 0.90896 0.0
H340 H 0.81175 0.14802 0.40646 0.0
H341 H 0.79111 0.10489 0.42368 0.0
H342 H 0.7239 0.10101 0.3855 0.0
H343 H 0.7447 0.14429 0.36542 0.0
H344 H 0.72799 0.07697 0.50933 0.0
H345 H 0.74067 0.08076 0.27258 0.0
H346 H 0.76567 0.09586 0.17262 0.0
H347 H 0.80982 0.06864 0.2439 0.0
H348 H 0.78524 0.05365 0.34484 0.0
H349 H 0.653 0.95461 0.50994 0.0
H350 H 0.67367 0.99543 0.46989 0.0
H351 H 0.7395 0.99435 0.46239 0.0
H352 H 0.71863 0.9528 0.49921 0.0
H353 H 0.73757 0.02125 0.36153 0.0
H354 H 0.72804 0.01816 0.59484 0.0
H355 H 0.70589 1.00356 0.69961 0.0
H356 H 0.66013 0.03069 0.64292 0.0
H357 H 0.68183 0.04518 0.53729 0.0
C358 C 0.79258 0.13796 0.40112 0.0
C359 C 0.77982 0.14951 0.38444 0.0
C360 C 0.78082 0.11332 0.411 0.0
C361 C 0.75597 0.09971 0.40596 0.0
C362 C 0.7431 0.11118 0.38954 0.0
C363 C 0.75497 0.13585 0.3778 0.0
C364 C 0.74356 0.0736 0.41895 0.0
C365 C 0.72972 0.06474 0.4764 0.0
C366 C 0.74675 0.05778 0.37769 0.0
C367 C 0.76123 0.06626 0.31648 0.0
C368 C 0.7558 0.07813 0.26714 0.0
C369 C 0.76987 0.08664 0.21028 0.0
C370 C 0.78935 0.08326 0.20198 0.0
C371 C 0.79473 0.07126 0.25043 0.0
C372 C 0.78071 0.06272 0.30744 0.0
C373 C 0.67172 0.96264 0.49807 0.0
C374 C 0.68407 0.95022 0.50886 0.0
C375 C 0.68363 0.98623 0.47579 0.0
C376 C 0.7083 0.99827 0.46459 0.0
C377 C 0.72051 0.98559 0.47127 0.0
C378 C 0.70854 0.96184 0.4931 0.0
C379 C 0.72135 0.02445 0.45105 0.0
C380 C 0.73562 0.03341 0.39418 0.0
C381 C 0.71904 0.04053 0.49365 0.0
C382 C 0.70645 0.03261 0.558 0.0
C383 C 0.7132 0.02095 0.60464 0.0
C384 C 0.70073 0.01268 0.66415 0.0
C385 C 0.68159 0.01616 0.67786 0.0
C386 C 0.67496 0.02802 0.63221 0.0
C387 C 0.68736 0.03629 0.57255 0.0
H388 H 0.67191 0.00969 0.72389 0.0
H389 H 0.80025 0.08989 0.15795 0.0
H390 H 0.62872 0.76152 0.62673 0.0
H391 H 0.65332 0.74289 0.64187 0.0
H392 H 0.66168 0.76192 0.8489 0.0
H393 H 0.6384 0.78166 0.83267 0.0
H394 H 0.70219 0.77215 0.80477 0.0
H395 H 0.62398 0.70163 0.78137 0.0
H396 H 0.58628 0.67584 0.72287 0.0
H397 H 0.62504 0.67085 0.55733 0.0
H398 H 0.66297 0.69682 0.61463 0.0
H399 H 0.74145 0.69972 0.94979 0.0
H400 H 0.7209 0.72013 0.91098 0.0
H401 H 0.71989 0.69511 0.71246 0.0
H402 H 0.73963 0.6735 0.75245 0.0
H403 H 0.67903 0.69006 0.73598 0.0
H404 H 0.75719 0.75776 0.76382 0.0
H405 H 0.79491 0.78391 0.82183 0.0
H406 H 0.75653 0.79447 0.97864 0.0
H407 H 0.7186 0.76833 0.92174 0.0
C408 C 0.63558 0.76138 0.67555 0.0
C409 C 0.63166 0.77299 0.72858 0.0
C410 C 0.64962 0.75069 0.68431 0.0
C411 C 0.65937 0.75075 0.7468 0.0
C412 C 0.65465 0.7617 0.80007 0.0
C413 C 0.64118 0.77286 0.79092 0.0
C414 C 0.67518 0.74034 0.75716 0.0
C415 C 0.69694 0.75408 0.79026 0.0
C416 C 0.66906 0.71714 0.73594 0.0
C417 C 0.64628 0.70132 0.70198 0.0
C418 C 0.62444 0.69511 0.73236 0.0
C419 C 0.60305 0.68045 0.69944 0.0
C420 C 0.60327 0.67176 0.63636 0.0
C421 C 0.62489 0.67762 0.60615 0.0
C422 C 0.64634 0.69228 0.63884 0.0
C423 C 0.73724 0.69888 0.8976 0.0
C424 C 0.74237 0.68515 0.85412 0.0
C425 C 0.72555 0.71072 0.87522 0.0
C426 C 0.71922 0.70978 0.80824 0.0
C427 C 0.72462 0.69629 0.76431 0.0
C428 C 0.73595 0.68398 0.7871 0.0
C429 C 0.70563 0.72158 0.78575 0.0
C430 C 0.68439 0.70819 0.75 0.0
C431 C 0.71223 0.74515 0.80452 0.0
C432 C 0.73506 0.76101 0.83861 0.0
C433 C 0.7568 0.76559 0.81079 0.0
C434 C 0.77822 0.78044 0.84344 0.0
C435 C 0.77811 0.79081 0.90391 0.0
C436 C 0.7566 0.78644 0.93177 0.0
C437 C 0.73514 0.77168 0.89923 0.0
H438 H 0.79471 0.80226 0.92915 0.0
H439 H 0.58669 0.66043 0.61092 0.0
H440 H 0.04906 0.70833 0.25914 0.0
H441 H 1.00764 0.68924 0.22372 0.0
H442 H 0.02684 0.7409 0.06681 0.0
H443 H 0.06856 0.76098 0.10511 0.0
H444 H 0.98435 0.73033 0.11939 0.0
H445 H 0.01634 0.6836 0.03205 0.0
H446 H 0.0395 0.66295 0.03905 0.0
H447 H 0.99219 0.61646 0.18916 0.0
H448 H 0.96883 0.63695 0.18329 0.0
H449 H 0.87067 0.65243 0.96533 0.0
H450 H 0.91387 0.67669 0.98422 0.0
H451 H 0.90662 0.63688 0.16251 0.0
H452 H 0.86349 0.61301 0.14412 0.0
H453 H 0.94435 0.64301 0.08424 0.0
H454 H 0.91358 0.69107 0.1743 0.0
H455 H 0.89153 0.71289 0.17116 0.0
H456 H 0.93691 0.75749 1.01517 0.0
H457 H 0.95908 0.73573 1.0169 0.0
C458 C 0.04446 0.71555 0.21691 0.0
C459 C 0.06203 0.73576 0.18394 0.0
C460 C 0.02077 0.70463 0.19656 0.0
C461 C 0.01408 0.71313 0.14126 0.0
C462 C 0.03153 0.73383 0.10918 0.0
C463 C 0.05534 0.74518 0.1307 0.0
C464 C 0.98899 0.6997 0.11686 0.0
C465 C 0.97573 0.71134 0.11031 0.0
C466 C 0.97752 0.67483 0.10562 0.0
C467 C 0.99086 0.66179 0.10721 0.0
C468 C 0.01087 0.66894 0.06644 0.0
C469 C 0.02404 0.65729 0.07027 0.0
C470 C 0.01732 0.6384 0.11452 0.0
C471 C 0.99733 0.63105 0.15479 0.0
C472 C 0.98407 0.64261 0.15106 0.0
C473 C 0.87847 0.64874 1.00797 0.0
C474 C 0.86399 0.63071 0.05285 0.0
C475 C 0.90305 0.66271 0.01908 0.0
C476 C 0.91351 0.65872 0.07503 0.0
C477 C 0.89899 0.6403 0.11903 0.0
C478 C 0.87442 0.62662 0.10845 0.0
C479 C 0.93956 0.67351 0.08795 0.0
C480 C 0.95302 0.66208 0.09222 0.0
C481 C 0.95113 0.69853 0.09649 0.0
C482 C 0.93778 0.71157 0.09514 0.0
C483 C 0.91871 0.70537 0.13888 0.0
C484 C 0.90623 0.71777 0.13748 0.0
C485 C 0.91276 0.73651 0.09283 0.0
C486 C 0.93184 0.74294 0.04963 0.0
C487 C 0.94438 0.73059 0.05084 0.0
H488 H 0.90308 0.74609 0.09183 0.0
H489 H 0.0276 0.62947 0.11761 0.0
H490 H 0.29681 0.05608 0.5218 0.0
H491 H 0.27591 0.01473 0.48509 0.0
H492 H 0.34292 0.01784 0.45137 0.0
H493 H 0.36409 0.05861 0.49193 0.0
H494 H 0.30692 0.99198 0.35103 0.0
H495 H 0.31731 0.99719 0.5891 0.0
H496 H 0.31302 0.00915 0.70166 0.0
H497 H 0.23696 0.97006 0.68176 0.0
H498 H 0.24082 0.95836 0.56832 0.0
H499 H 0.26994 0.86798 0.34793 0.0
H500 H 0.29037 0.91119 0.366 0.0
H501 H 0.22689 0.90389 0.45718 0.0
H502 H 0.20719 0.86092 0.44285 0.0
H503 H 0.26073 0.93284 0.52549 0.0
H504 H 0.24809 0.92686 0.29132 0.0
H505 H 0.25032 0.91464 0.17723 0.0
H506 H 0.32663 0.95446 0.1856 0.0
H507 H 0.32487 0.96659 0.30018 0.0
C508 C 0.30728 0.0481 0.5071 0.0
C509 C 0.33237 0.06091 0.5118 0.0
C510 C 0.29519 0.02442 0.48529 0.0
C511 C 0.30783 0.01306 0.46625 0.0
C512 C 0.33278 0.02622 0.46591 0.0
C513 C 0.3449 0.04974 0.48893 0.0
C514 C 0.29522 0.987 0.45234 0.0
C515 C 0.29692 0.97898 0.38916 0.0
C516 C 0.28167 0.97005 0.50163 0.0
C517 C 0.27938 0.9772 0.56978 0.0
C518 C 0.29968 0.99141 0.60834 0.0
C519 C 0.29732 0.9981 0.67237 0.0
C520 C 0.27473 0.99044 0.69877 0.0
C521 C 0.25445 0.97605 0.66117 0.0
C522 C 0.25672 0.96942 0.59696 0.0
C523 C 0.26045 0.8757 0.37185 0.0
C524 C 0.23699 0.86107 0.39401 0.0
C525 C 0.27204 0.90045 0.38172 0.0
C526 C 0.26015 0.91112 0.41215 0.0
C527 C 0.23664 0.89634 0.43382 0.0
C528 C 0.22531 0.87168 0.42541 0.0
C529 C 0.27214 0.93747 0.4236 0.0
C530 C 0.27045 0.94565 0.4867 0.0
C531 C 0.28525 0.95451 0.37375 0.0
C532 C 0.28635 0.94743 0.30461 0.0
C533 C 0.26535 0.93287 0.26901 0.0
C534 C 0.26653 0.92597 0.20423 0.0
C535 C 0.2886 0.93371 0.17426 0.0
C536 C 0.30955 0.94844 0.20893 0.0
C537 C 0.30847 0.95534 0.27378 0.0
H538 H 0.28948 0.92834 0.12412 0.0
H539 H 0.27294 0.99559 0.74843 0.0
H540 H 0.23974 0.46751 0.79922 0.0
H541 H 0.24283 0.46743 0.67839 0.0
H542 H 0.19285 0.39189 0.67579 0.0
H543 H 0.19131 0.39182 0.79727 0.0
H544 H 0.22456 0.39992 0.58981 0.0
H545 H 0.17813 0.43804 0.63034 0.0
H546 H 0.17104 0.46772 0.68618 0.0
H547 H 0.23508 0.52429 0.60101 0.0
H548 H 0.24264 0.49491 0.54506 0.0
H549 H 0.20113 0.39285 0.24412 0.0
H550 H 0.19824 0.39227 0.36507 0.0
H551 H 0.2485 0.46772 0.37016 0.0
H552 H 0.24996 0.46842 0.24858 0.0
H553 H 0.21626 0.45933 0.4549 0.0
H554 H 0.26233 0.42068 0.41338 0.0
H555 H 0.2692 0.39066 0.35869 0.0
H556 H 0.20533 0.33462 0.4461 0.0
H557 H 0.19797 0.36432 0.50082 0.0
C558 C 0.22924 0.45099 0.77256 0.0
C559 C 0.21492 0.42976 0.80714 0.0
C560 C 0.23092 0.45091 0.70337 0.0
C561 C 0.21757 0.42975 0.66697 0.0
C562 C 0.20327 0.4085 0.70206 0.0
C563 C 0.20219 0.40847 0.77144 0.0
C564 C 0.21858 0.42973 0.59269 0.0
C565 C 0.22244 0.41275 0.56045 0.0
C566 C 0.21626 0.44664 0.55356 0.0
C567 C 0.21097 0.4643 0.58371 0.0
C568 C 0.19064 0.45682 0.62336 0.0
C569 C 0.18657 0.47358 0.65513 0.0
C570 C 0.20261 0.49787 0.6472 0.0
C571 C 0.22266 0.50546 0.60703 0.0
C572 C 0.22681 0.48877 0.57511 0.0
C573 C 0.2118 0.4092 0.27137 0.0
C574 C 0.22619 0.43058 0.23746 0.0
C575 C 0.21021 0.40889 0.34062 0.0
C576 C 0.22363 0.42985 0.3777 0.0
C577 C 0.23804 0.45125 0.3433 0.0
C578 C 0.23909 0.45165 0.27387 0.0
C579 C 0.22238 0.4296 0.45196 0.0
C580 C 0.21841 0.4465 0.48422 0.0
C581 C 0.22452 0.41255 0.49104 0.0
C582 C 0.22956 0.39471 0.46092 0.0
C583 C 0.24978 0.40195 0.42098 0.0
C584 C 0.25374 0.385 0.38991 0.0
C585 C 0.23769 0.36075 0.39884 0.0
C586 C 0.21775 0.3534 0.43926 0.0
C587 C 0.21371 0.37028 0.47044 0.0
H588 H 0.24073 0.34766 0.37449 0.0
H589 H 0.19951 0.51082 0.67215 0.0
H590 H 0.82965 0.21998 0.13204 0.0
H591 H 0.83107 0.22244 1.01153 0.0
H592 H 0.75783 0.20583 1.00762 0.0
H593 H 0.75604 0.20227 0.12854 0.0
H594 H 0.76371 0.18273 0.91564 0.0
H595 H 0.80949 0.26497 0.98137 0.0
H596 H 0.84161 0.30046 0.03635 0.0
H597 H 0.894 0.29095 0.93276 0.0
H598 H 0.86222 0.25522 0.87785 0.0
H599 H 0.76202 0.21337 0.58007 0.0
H600 H 0.76111 0.21172 0.70072 0.0
H601 H 0.83405 0.22741 0.70329 0.0
H602 H 0.83534 0.23005 0.58224 0.0
H603 H 0.82857 0.25112 0.79578 0.0
H604 H 0.78291 0.16886 0.73082 0.0
H605 H 0.75086 0.13319 0.67628 0.0
H606 H 0.69834 0.14279 0.77883 0.0
H607 H 0.73005 0.17868 0.83329 0.0
C608 C 0.81378 0.21672 0.10553 0.0
C609 C 0.79268 0.21084 0.13992 0.0
C610 C 0.8147 0.21841 0.03645 0.0
C611 C 0.79475 0.2149 1.00002 0.0
C612 C 0.77354 0.20873 0.03433 0.0
C613 C 0.77248 0.2066 0.10351 0.0
C614 C 0.79566 0.21671 0.92618 0.0
C615 C 0.77771 0.19792 0.88956 0.0
C616 C 0.81434 0.23612 0.89159 0.0
C617 C 0.83345 0.25725 0.92604 0.0
C618 C 0.82786 0.27029 0.97086 0.0
C619 C 0.84601 0.29049 1.00189 0.0
C620 C 0.86983 0.29792 0.98819 0.0
C621 C 0.87555 0.28516 0.94344 0.0
C622 C 0.85748 0.26494 0.91235 0.0
C623 C 0.77793 0.21657 0.60627 0.0
C624 C 0.79876 0.22184 0.57144 0.0
C625 C 0.77731 0.21539 0.67544 0.0
C626 C 0.79732 0.21887 0.71153 0.0
C627 C 0.8183 0.22454 0.67682 0.0
C628 C 0.81905 0.2261 0.60754 0.0
C629 C 0.79656 0.21719 0.78537 0.0
C630 C 0.81455 0.23598 0.82194 0.0
C631 C 0.77793 0.19778 0.81998 0.0
C632 C 0.75887 0.17661 0.78559 0.0
C633 C 0.76453 0.16352 0.74116 0.0
C634 C 0.74642 0.14322 0.71039 0.0
C635 C 0.72259 0.13576 0.72395 0.0
C636 C 0.71681 0.1486 0.76826 0.0
C637 C 0.73484 0.16892 0.79909 0.0
H638 H 0.7086 0.12 0.70024 0.0
H639 H 0.88385 0.31359 1.01213 0.0
H640 H 0.61619 0.82488 0.46584 0.0
H641 H 0.61621 0.82644 0.3453 0.0
H642 H 0.55288 0.75718 0.3403 0.0
H643 H 0.55346 0.75507 0.46137 0.0
H644 H 0.58066 0.75879 0.24931 0.0
H645 H 0.55495 0.81407 0.3133 0.0
H646 H 0.55737 0.84923 0.36771 0.0
H647 H 0.62239 0.89481 0.26423 0.0
H648 H 0.62056 0.85992 0.20995 0.0
H649 H 0.55108 0.76136 0.91338 0.0
H650 H 0.55187 0.76039 0.03401 0.0
H651 H 0.61469 0.83008 0.03518 0.0
H652 H 0.61325 0.83155 0.91412 0.0
H653 H 0.58797 0.82864 0.12813 0.0
H654 H 0.6139 0.77388 0.06377 0.0
H655 H 0.61217 0.73894 1.00998 0.0
H656 H 0.54755 0.69267 0.11422 0.0
H657 H 0.5487 0.72733 0.16791 0.0
C658 C 0.60225 0.80993 0.43916 0.0
C659 C 0.58476 0.78985 0.47338 0.0
C660 C 0.60216 0.81095 0.36998 0.0
C661 C 0.58421 0.7922 0.33315 0.0
C662 C 0.56688 0.77197 0.36728 0.0
C663 C 0.56723 0.77075 0.43659 0.0
C664 C 0.5839 0.79331 0.25918 0.0
C665 C 0.58188 0.77394 0.2229 0.0
C666 C 0.58637 0.81341 0.22415 0.0
C667 C 0.58774 0.83433 0.25811 0.0
C668 C 0.56989 0.83156 0.30269 0.0
C669 C 0.57114 0.85145 0.3334 0.0
C670 C 0.59005 0.87423 0.31958 0.0
C671 C 0.60777 0.87716 0.27502 0.0
C672 C 0.60664 0.85734 0.24428 0.0
C673 C 0.565 0.77656 0.93933 0.0
C674 C 0.58207 0.79657 0.90409 0.0
C675 C 0.5656 0.77587 1.0085 0.0
C676 C 0.5837 0.79489 0.04425 0.0
C677 C 0.60057 0.81509 1.00908 0.0
C678 C 0.5997 0.81598 0.93978 0.0
C679 C 0.58457 0.79404 0.11821 0.0
C680 C 0.58675 0.81349 0.15449 0.0
C681 C 0.58232 0.77403 0.15326 0.0
C682 C 0.58127 0.75325 0.11933 0.0
C683 C 0.59918 0.75628 0.07466 0.0
C684 C 0.59833 0.73651 0.04431 0.0
C685 C 0.57973 0.71361 0.05855 0.0
C686 C 0.56192 0.71042 0.10312 0.0
C687 C 0.56267 0.73012 0.13352 0.0
H688 H 0.57915 0.69833 0.03516 0.0
H689 H 0.59095 0.8896 0.34327 0.0
H690 H 0.80679 0.55303 0.79599 0.0
H691 H 0.80362 0.55153 0.67514 0.0
H692 H 0.7974 0.61474 0.67629 0.0
H693 H 0.79922 0.61545 0.79721 0.0
H694 H 0.76758 0.58577 0.59181 0.0
H695 H 0.85106 0.61432 0.62925 0.0
H696 H 0.8845 0.61234 0.68091 0.0
H697 H 0.86108 0.54432 0.59045 0.0
H698 H 0.82739 0.54583 0.53867 0.0
H699 H 0.78767 0.61068 0.24696 0.0
H700 H 0.7902 0.6121 0.36783 0.0
H701 H 0.79625 0.54881 0.36832 0.0
H702 H 0.79494 0.54806 0.24737 0.0
H703 H 0.82619 0.57809 0.45208 0.0
H704 H 0.74267 0.54988 0.41389 0.0
H705 H 0.70904 0.55193 0.36382 0.0
H706 H 0.73258 0.61966 0.45622 0.0
H707 H 0.76647 0.6181 0.5064 0.0
C708 C 0.80502 0.56674 0.77034 0.0
C709 C 0.80351 0.5845 0.80604 0.0
C710 C 0.80324 0.56592 0.70112 0.0
C711 C 0.8007 0.58329 0.66595 0.0
C712 C 0.79935 0.60111 0.70184 0.0
C713 C 0.80055 0.6016 0.77105 0.0
C714 C 0.79926 0.58287 0.592 0.0
C715 C 0.7806 0.58439 0.56134 0.0
C716 C 0.81589 0.58062 0.5517 0.0
C717 C 0.83668 0.58015 0.58038 0.0
C718 C 0.85307 0.59896 0.62038 0.0
C719 C 0.87204 0.5979 0.64972 0.0
C720 C 0.87489 0.5782 0.63904 0.0
C721 C 0.85886 0.55957 0.59864 0.0
C722 C 0.83986 0.56055 0.56914 0.0
C723 C 0.78928 0.59692 0.2729 0.0
C724 C 0.79091 0.57914 0.23756 0.0
C725 C 0.79067 0.5977 0.34219 0.0
C726 C 0.79302 0.58031 0.37783 0.0
C727 C 0.79445 0.56245 0.34237 0.0
C728 C 0.79357 0.56196 0.27311 0.0
C729 C 0.79446 0.5809 0.45179 0.0
C730 C 0.81316 0.57946 0.48249 0.0
C731 C 0.77789 0.58329 0.49209 0.0
C732 C 0.75716 0.58393 0.46352 0.0
C733 C 0.74068 0.56523 0.4234 0.0
C734 C 0.72159 0.56631 0.395 0.0
C735 C 0.7187 0.58594 0.40673 0.0
C736 C 0.73484 0.60447 0.44718 0.0
C737 C 0.75396 0.60347 0.47573 0.0
H738 H 0.70394 0.58677 0.38455 0.0
H739 H 0.88954 0.57737 0.66202 0.0
H740 H 0.20949 0.75302 0.58279 0.0
H741 H 0.21158 0.75484 0.70426 0.0
H742 H 0.22179 0.82587 0.698 0.0
H743 H 0.2209 0.82435 0.57662 0.0
H744 H 0.25026 0.82565 0.78523 0.0
H745 H 0.16693 0.77334 0.74512 0.0
H746 H 0.13247 0.73843 0.69529 0.0
H747 H 0.15143 0.69194 0.79615 0.0
H748 H 0.18621 0.72661 0.84586 0.0
H749 H 0.23017 0.8336 0.12938 0.0
H750 H 0.22719 0.83146 1.00805 0.0
H751 H 0.22022 0.76174 1.01362 0.0
H752 H 0.22229 0.76363 0.13507 0.0
H753 H 0.18994 0.76136 0.92717 0.0
H754 H 0.27343 0.81424 0.96712 0.0
H755 H 0.30739 0.84937 1.01781 0.0
H756 H 0.28743 0.8952 0.91756 0.0
H757 H 0.25313 0.86029 0.86699 0.0
C758 C 0.21183 0.76884 0.60764 0.0
C759 C 0.21463 0.78839 0.57059 0.0
C760 C 0.21302 0.76992 0.67718 0.0
C761 C 0.21647 0.79038 0.71124 0.0
C762 C 0.2191 0.80985 0.67364 0.0
C763 C 0.21837 0.80891 0.60422 0.0
C764 C 0.21775 0.79176 0.78565 0.0
C765 C 0.23684 0.81169 0.81603 0.0
C766 C 0.20062 0.77346 0.8268 0.0
C767 C 0.17927 0.75257 0.7988 0.0
C768 C 0.16378 0.75567 0.75653 0.0
C769 C 0.14421 0.73593 0.72827 0.0
C770 C 0.1398 0.71298 0.74243 0.0
C771 C 0.15488 0.70973 0.78518 0.0
C772 C 0.17451 0.72941 0.81348 0.0
C773 C 0.22836 0.81801 0.1044 0.0
C774 C 0.227 0.79901 0.14127 0.0
C775 C 0.22662 0.81674 0.03501 0.0
C776 C 0.22387 0.79657 1.00085 0.0
C777 C 0.22241 0.77754 0.03819 0.0
C778 C 0.22383 0.7787 0.10758 0.0
C779 C 0.22243 0.79522 0.92654 0.0
C780 C 0.20332 0.77531 0.89625 0.0
C781 C 0.23948 0.81358 0.88546 0.0
C782 C 0.26063 0.83464 0.91365 0.0
C783 C 0.27627 0.83181 0.95599 0.0
C784 C 0.29555 0.85168 0.98476 0.0
C785 C 0.29954 0.8745 0.97102 0.0
C786 C 0.28431 0.87751 0.92818 0.0
C787 C 0.26496 0.85769 0.89938 0.0
H788 H 0.31444 0.88986 0.99351 0.0
H789 H 0.12467 0.69773 0.72036 0.0
H790 H 0.43042 0.25443 0.46101 0.0
H791 H 0.42957 0.25224 0.33918 0.0
H792 H 0.43202 0.18713 0.34927 0.0
H793 H 0.4323 0.18888 0.47005 0.0
H794 H 0.46502 0.22032 0.25993 0.0
H795 H 0.38167 0.18229 0.30745 0.0
H796 H 0.34428 0.17744 0.35317 0.0
H797 H 0.35478 0.23919 0.246 0.0
H798 H 0.39238 0.24453 0.20008 0.0
H799 H 0.43597 0.1831 0.91814 0.0
H800 H 0.43579 0.18391 0.04014 0.0
H801 H 0.43179 0.24824 0.03471 0.0
H802 H 0.43242 0.24782 0.91402 0.0
H803 H 0.39914 0.21467 0.12192 0.0
H804 H 0.48266 0.25286 0.0751 0.0
H805 H 0.52 0.25763 0.0292 0.0
H806 H 0.50921 0.1956 0.13541 0.0
H807 H 0.47164 0.19031 0.18136 0.0
C808 C 0.43078 0.23968 0.43715 0.0
C809 C 0.4314 0.22183 0.47533 0.0
C810 C 0.43016 0.23836 0.36757 0.0
C811 C 0.43064 0.21944 0.33493 0.0
C812 C 0.43158 0.20185 0.37311 0.0
C813 C 0.4317 0.20288 0.44231 0.0
C814 C 0.43083 0.21816 0.26111 0.0
C815 C 0.45046 0.21878 0.22982 0.0
C816 C 0.41207 0.21657 0.22152 0.0
C817 C 0.39001 0.21401 0.25111 0.0
C818 C 0.37618 0.19504 0.29439 0.0
C819 C 0.35489 0.19213 0.32009 0.0
C820 C 0.3472 0.20805 0.30271 0.0
C821 C 0.36079 0.22691 0.25956 0.0
C822 C 0.38208 0.22987 0.23365 0.0
C823 C 0.4351 0.19741 0.94307 0.0
C824 C 0.43437 0.21546 0.90619 0.0
C825 C 0.43509 0.19792 1.01277 0.0
C826 C 0.43387 0.21622 0.04678 0.0
C827 C 0.43278 0.23398 1.00985 0.0
C828 C 0.43326 0.23374 0.94064 0.0
C829 C 0.43337 0.2169 0.1207 0.0
C830 C 0.41369 0.21617 0.15202 0.0
C831 C 0.45209 0.2184 0.16033 0.0
C832 C 0.47416 0.22098 0.13085 0.0
C833 C 0.48807 0.24004 0.0879 0.0
C834 C 0.50933 0.2429 0.06211 0.0
C835 C 0.51693 0.22688 0.07916 0.0
C836 C 0.50327 0.20796 0.12208 0.0
C837 C 0.482 0.20502 0.14802 0.0
H838 H 0.53343 0.22917 0.0593 0.0
H839 H 0.33067 0.20572 0.32249 0.0
H840 H 0.22541 0.56723 0.21853 0.0
H841 H 0.22515 0.60234 0.26144 0.0
H842 H 0.14974 0.56875 0.22455 0.0
H843 H 0.14995 0.53385 0.18011 0.0
H844 H 0.17222 0.61281 0.17476 0.0
H845 H 0.17211 0.57861 0.38683 0.0
H846 H 0.18553 0.56209 0.47624 0.0
H847 H 0.25418 0.62546 0.47585 0.0
H848 H 0.24126 0.64227 0.38616 0.0
H849 H 0.17987 0.7209 0.31901 0.0
H850 H 0.16606 0.67862 0.29305 0.0
H851 H 0.23741 0.69159 0.32279 0.0
H852 H 0.25083 0.73259 0.34961 0.0
H853 H 0.20788 0.65349 0.38648 0.0
H854 H 0.21148 0.68612 0.16826 0.0
H855 H 0.20046 0.70345 0.07552 0.0
H856 H 0.12889 0.64456 0.08128 0.0
H857 H 0.13938 0.6271 0.17494 0.0
C858 C 0.20873 0.56723 0.21973 0.0
C859 C 0.18773 0.54765 0.19529 0.0
C860 C 0.20855 0.58727 0.24506 0.0
C861 C 0.18738 0.58826 0.24672 0.0
C862 C 0.1663 0.56849 0.22402 0.0
C863 C 0.16644 0.54841 0.19896 0.0
C864 C 0.18767 0.61057 0.26699 0.0
C865 C 0.1796 0.6215 0.2217 0.0
C866 C 0.19764 0.62221 0.32764 0.0
C867 C 0.20575 0.6116 0.37937 0.0
C868 C 0.19015 0.58889 0.40525 0.0
C869 C 0.19765 0.57952 0.45618 0.0
C870 C 0.2207 0.59269 0.48161 0.0
C871 C 0.23633 0.61525 0.4561 0.0
C872 C 0.22892 0.62472 0.40529 0.0
C873 C 0.19243 0.71452 0.32043 0.0
C874 C 0.21641 0.73011 0.33714 0.0
C875 C 0.1846 0.69045 0.30507 0.0
C876 C 0.20069 0.68177 0.30609 0.0
C877 C 0.22452 0.69757 0.3222 0.0
C878 C 0.2322 0.7212 0.33761 0.0
C879 C 0.19351 0.65634 0.293 0.0
C880 C 0.20012 0.64466 0.33994 0.0
C881 C 0.1827 0.64433 0.23329 0.0
C882 C 0.1761 0.65557 0.17962 0.0
C883 C 0.19328 0.6771 0.15066 0.0
C884 C 0.18715 0.68689 0.09767 0.0
C885 C 0.16396 0.67519 0.07275 0.0
C886 C 0.14682 0.65368 0.10085 0.0
C887 C 0.15283 0.64386 0.15397 0.0
H888 H 0.15929 0.68272 0.03147 0.0
H889 H 0.22643 0.58544 0.52118 0.0
H890 H 0.62513 0.14934 0.52805 0.0
H891 H 0.58933 0.14753 0.57313 0.0
H892 H 0.62615 0.22415 0.58475 0.0
H893 H 0.66233 0.22603 0.54365 0.0
H894 H 0.59867 0.2074 0.68589 0.0
H895 H 0.58831 0.18982 0.4518 0.0
H896 H 0.58627 0.16693 0.35225 0.0
H897 H 0.52765 0.10413 0.43622 0.0
H898 H 0.52965 0.12657 0.53692 0.0
H899 H 0.52066 0.2475 0.63665 0.0
H900 H 0.54795 0.2332 0.61408 0.0
H901 H 0.49427 0.16211 0.66935 0.0
H902 H 0.46599 0.17653 0.6913 0.0
H903 H 0.52511 0.16705 0.55031 0.0
H904 H 0.53336 0.18975 0.77997 0.0
H905 H 0.53591 0.21652 0.87013 0.0
H906 H 0.59954 0.27347 0.78439 0.0
H907 H 0.59719 0.24714 0.69323 0.0
C908 C 0.62584 0.16582 0.54155 0.0
C909 C 0.64671 0.18789 0.53106 0.0
C910 C 0.60516 0.16475 0.56666 0.0
C911 C 0.60468 0.18572 0.58097 0.0
C912 C 0.62582 0.20766 0.57363 0.0
C913 C 0.64653 0.20874 0.54927 0.0
C914 C 0.58217 0.18521 0.60075 0.0
C915 C 0.58261 0.19845 0.65623 0.0
C916 C 0.56083 0.17316 0.56322 0.0
C917 C 0.55932 0.15979 0.50222 0.0
C918 C 0.57508 0.17109 0.44921 0.0
C919 C 0.57394 0.1582 0.3926 0.0
C920 C 0.55689 0.13407 0.388 0.0
C921 C 0.54089 0.1228 0.43994 0.0
C922 C 0.54203 0.13559 0.49682 0.0
C923 C 0.51439 0.22874 0.64395 0.0
C924 C 0.49119 0.21324 0.66697 0.0
C925 C 0.53012 0.22058 0.63071 0.0
C926 C 0.5234 0.19669 0.64103 0.0
C927 C 0.49989 0.18069 0.66133 0.0
C928 C 0.4838 0.18892 0.67411 0.0
C929 C 0.54201 0.18969 0.63421 0.0
C930 C 0.54092 0.17526 0.58109 0.0
C931 C 0.56296 0.20092 0.67319 0.0
C932 C 0.5651 0.21644 0.72981 0.0
C933 C 0.5479 0.20798 0.78038 0.0
C934 C 0.54929 0.22308 0.8316 0.0
C935 C 0.56788 0.24667 0.83299 0.0
C936 C 0.58518 0.25517 0.78333 0.0
C937 C 0.58387 0.24015 0.73197 0.0
H938 H 0.56887 0.25837 0.87255 0.0
H939 H 0.55603 0.12412 0.34413 0.0
H940 H 0.28348 0.52037 0.03305 0.0
H941 H 0.32426 0.54815 1.00285 0.0
H942 H 0.33482 0.48992 0.94793 0.0
H943 H 0.29297 0.46131 0.97793 0.0
H944 H 0.37427 0.53011 0.02507 0.0
H945 H 0.32958 0.51736 0.8253 0.0
H946 H 0.29651 0.5131 0.75521 0.0
H947 H 0.31244 0.58365 0.80785 0.0
H948 H 0.3454 0.58823 0.87887 0.0
H949 H 0.4809 0.61929 0.85387 0.0
H950 H 0.44535 0.58389 0.89493 0.0
H951 H 0.41129 0.62558 0.92627 0.0
H952 H 0.44679 0.66106 0.88598 0.0
H953 H 0.38477 0.58844 0.85046 0.0
H954 H 0.42639 0.6004 0.05704 0.0
H955 H 0.4579 0.6048 0.13391 0.0
H956 H 0.44752 0.53685 0.07334 0.0
H957 H 0.41608 0.53214 0.99566 0.0
C958 C 0.29435 0.51322 1.01508 0.0
C959 C 0.28481 0.48853 1.00754 0.0
C960 C 0.31777 0.52926 0.99766 0.0
C961 C 0.33254 0.52122 0.97219 0.0
C962 C 0.32364 0.49651 0.96722 0.0
C963 C 0.29981 0.4802 0.98451 0.0
C964 C 0.35684 0.53928 0.94956 0.0
C965 C 0.37675 0.54255 0.98572 0.0
C966 C 0.35997 0.55591 0.89953 0.0
C967 C 0.33987 0.55306 0.85776 0.0
C968 C 0.32589 0.53188 0.82242 0.0
C969 C 0.3072 0.52943 0.78238 0.0
C970 C 0.30236 0.54808 0.77714 0.0
C971 C 0.3162 0.56922 0.81194 0.0
C972 C 0.33491 0.57176 0.85202 0.0
C973 C 0.46609 0.62111 0.87104 0.0
C974 C 0.46666 0.64306 0.8654 0.0
C975 C 0.44571 0.60077 0.89462 0.0
C976 C 0.42548 0.60192 0.91334 0.0
C977 C 0.42655 0.62411 0.91149 0.0
C978 C 0.44686 0.64441 0.888 0.0
C979 C 0.40232 0.57986 0.92722 0.0
C980 C 0.38255 0.57585 0.88911 0.0
C981 C 0.39944 0.56273 0.97561 0.0
C982 C 0.41914 0.5661 0.01978 0.0
C983 C 0.43108 0.58657 0.05935 0.0
C984 C 0.44884 0.58906 0.10333 0.0
C985 C 0.45477 0.57116 0.10831 0.0
C986 C 0.44296 0.55073 0.06929 0.0
C987 C 0.42516 0.54814 0.02532 0.0
H988 H 0.46846 0.57309 0.14256 0.0
H989 H 0.28791 0.54616 0.74604 0.0
H990 H 0.8384 0.29191 0.27612 0.0
H991 H 0.84792 0.33335 0.25868 0.0
H992 H 0.78668 0.31977 0.37513 0.0
H993 H 0.77714 0.27856 0.39165 0.0
H994 H 0.78607 0.33799 0.25694 0.0
H995 H 0.84445 0.35618 0.42917 0.0
H996 H 0.8791 0.35633 0.47993 0.0
H997 H 0.92258 0.3959 0.31468 0.0
H998 H 0.88808 0.39565 0.26235 0.0
H999 H 0.7942 0.44921 0.2565 0.0
H1000 H 0.79459 0.41399 0.29851 0.0
H1001 H 0.86014 0.43522 0.19377 0.0
H1002 H 0.8603 0.47099 0.15411 0.0
H1003 H 0.86059 0.41362 0.30261 0.0
H1004 H 0.80418 0.39537 0.12848 0.0
H1005 H 0.77044 0.3954 0.07236 0.0
H1006 H 0.72414 0.35497 0.2322 0.0
H1007 H 0.75773 0.35513 0.29 0.0
C1008 C 0.82754 0.29813 0.29977 0.0
C1009 C 0.8073 0.28227 0.33623 0.0
C1010 C 0.83288 0.32175 0.28955 0.0
C1011 C 0.81802 0.32979 0.31561 0.0
C1012 C 0.79842 0.31408 0.35445 0.0
C1013 C 0.79309 0.2906 0.36445 0.0
C1014 C 0.82133 0.35367 0.29813 0.0
C1015 C 0.80227 0.35452 0.26793 0.0
C1016 C 0.8428 0.37528 0.3097 0.0
C1017 C 0.8636 0.37568 0.34152 0.0
C1018 C 0.86135 0.36475 0.40338 0.0
C1019 C 0.88097 0.36487 0.43248 0.0
C1020 C 0.90301 0.37606 0.40046 0.0
C1021 C 0.90549 0.38721 0.33937 0.0
C1022 C 0.8859 0.38709 0.30999 0.0
C1023 C 0.80885 0.44652 0.2432 0.0
C1024 C 0.82705 0.46273 0.20125 0.0
C1025 C 0.80906 0.42633 0.26708 0.0
C1026 C 0.82703 0.42144 0.24778 0.0
C1027 C 0.84596 0.43838 0.20912 0.0
C1028 C 0.84602 0.45884 0.18635 0.0
C1029 C 0.82501 0.39791 0.26328 0.0
C1030 C 0.84436 0.39709 0.2921 0.0
C1031 C 0.80391 0.37618 0.24948 0.0
C1032 C 0.78353 0.37544 0.21385 0.0
C1033 C 0.78682 0.38657 0.1518 0.0
C1034 C 0.76773 0.38658 0.11973 0.0
C1035 C 0.74517 0.37524 0.14877 0.0
C1036 C 0.74164 0.36378 0.20983 0.0
C1037 C 0.7607 0.36382 0.24228 0.0
H1038 H 0.73041 0.37529 0.12389 0.0
H1039 H 0.91817 0.37613 0.42307 0.0
H1040 H 0.39487 0.84898 0.44623 0.0
H1041 H 0.43041 0.84887 0.48701 0.0
H1042 H 0.3901 0.80462 0.65154 0.0
H1043 H 0.35436 0.80481 0.61041 0.0
H1044 H 0.4379 0.84052 0.68674 0.0
H1045 H 0.39782 0.77797 0.52828 0.0
H1046 H 0.37758 0.76177 0.42178 0.0
H1047 H 0.44165 0.80936 0.31717 0.0
H1048 H 0.46218 0.8261 0.42322 0.0
H1049 H 0.5039 0.78273 0.75823 0.0
H1050 H 0.47488 0.795 0.73153 0.0
H1051 H 0.51817 0.83611 0.56659 0.0
H1052 H 0.54767 0.824 0.59433 0.0
H1053 H 0.47065 0.8048 0.53164 0.0
H1054 H 0.51151 0.86547 0.69414 0.0
H1055 H 0.53088 0.88041 0.80235 0.0
H1056 H 0.46485 0.83479 0.90141 0.0
H1057 H 0.44511 0.81944 0.79368 0.0
C1058 C 0.39371 0.83945 0.49145 0.0
C1059 C 0.37195 0.82679 0.52497 0.0
C1060 C 0.414 0.83941 0.51482 0.0
C1061 C 0.41297 0.82662 0.57217 0.0
C1062 C 0.39139 0.81468 0.60733 0.0
C1063 C 0.37097 0.81465 0.58368 0.0
C1064 C 0.43388 0.82411 0.59139 0.0
C1065 C 0.44494 0.83255 0.65309 0.0
C1066 C 0.4434 0.81405 0.54728 0.0
C1067 C 0.43149 0.80338 0.48357 0.0
C1068 C 0.40757 0.78502 0.48253 0.0
C1069 C 0.39604 0.77575 0.42229 0.0
C1070 C 0.40831 0.78456 0.36274 0.0
C1071 C 0.43218 0.80256 0.36336 0.0
C1072 C 0.44378 0.81193 0.42352 0.0
C1073 C 0.50763 0.79504 0.71762 0.0
C1074 C 0.52822 0.80276 0.67912 0.0
C1075 C 0.49097 0.80198 0.70218 0.0
C1076 C 0.49427 0.81655 0.6471 0.0
C1077 C 0.51526 0.82495 0.60953 0.0
C1078 C 0.53225 0.8183 0.62584 0.0
C1079 C 0.47486 0.82134 0.62688 0.0
C1080 C 0.46388 0.81311 0.56504 0.0
C1081 C 0.46537 0.83142 0.67112 0.0
C1082 C 0.47686 0.84125 0.73588 0.0
C1083 C 0.50113 0.85861 0.73902 0.0
C1084 C 0.51217 0.86715 0.80025 0.0
C1085 C 0.49911 0.85853 0.85873 0.0
C1086 C 0.47494 0.84146 0.85605 0.0
C1087 C 0.46379 0.83289 0.79491 0.0
H1088 H 0.50772 0.86509 0.9061 0.0
H1089 H 0.39934 0.77741 0.31611 0.0
H1090 H 0.73406 0.50328 0.06426 0.0
H1091 H 0.69305 0.47112 0.04676 0.0
H1092 H 0.68142 0.51572 0.91105 0.0
H1093 H 0.72262 0.54802 0.92892 0.0
H1094 H 0.64149 0.4877 0.98932 0.0
H1095 H 0.69483 0.47644 0.84964 0.0
H1096 H 0.7295 0.47212 0.82211 0.0
H1097 H 0.70363 0.41154 0.95122 0.0
H1098 H 0.66893 0.41566 0.98007 0.0
H1099 H 0.54296 0.39512 0.81493 0.0
H1100 H 0.57904 0.4297 0.85599 0.0
H1101 H 0.59819 0.38319 0.95846 0.0
H1102 H 0.56265 0.34852 0.91384 0.0
H1103 H 0.63434 0.41329 0.89969 0.0
H1104 H 0.58012 0.42428 0.03915 0.0
H1105 H 0.54584 0.42932 0.06659 0.0
H1106 H 0.57286 0.4902 0.93826 0.0
H1107 H 0.60723 0.48546 0.90989 0.0
C1108 C 0.72246 0.50643 0.03243 0.0
C1109 C 0.73125 0.5282 0.99888 0.0
C1110 C 0.69914 0.48798 0.02183 0.0
C1111 C 0.6842 0.49083 0.97687 0.0
C1112 C 0.69257 0.51309 0.946 0.0
C1113 C 0.71601 0.53158 0.95652 0.0
C1114 C 0.66055 0.47012 0.95905 0.0
C1115 C 0.63987 0.47146 0.96921 0.0
C1116 C 0.65835 0.44876 0.93382 0.0
C1117 C 0.67944 0.44653 0.91758 0.0
C1118 C 0.69667 0.46235 0.87269 0.0
C1119 C 0.71629 0.4599 0.8567 0.0
C1120 C 0.71881 0.44161 0.88504 0.0
C1121 C 0.70169 0.42572 0.92939 0.0
C1122 C 0.68203 0.4281 0.94554 0.0
C1123 C 0.55472 0.3923 0.84702 0.0
C1124 C 0.55002 0.36909 0.86086 0.0
C1125 C 0.57533 0.41216 0.87113 0.0
C1126 C 0.59148 0.40935 0.91137 0.0
C1127 C 0.58623 0.38605 0.92736 0.0
C1128 C 0.56588 0.36618 0.90191 0.0
C1129 C 0.61483 0.4304 0.93128 0.0
C1130 C 0.63567 0.42928 0.92078 0.0
C1131 C 0.61708 0.4519 0.95627 0.0
C1132 C 0.59611 0.45438 0.97198 0.0
C1133 C 0.57863 0.43861 1.01636 0.0
C1134 C 0.55923 0.44146 0.03223 0.0
C1135 C 0.55715 0.46003 1.00407 0.0
C1136 C 0.57448 0.47582 0.96002 0.0
C1137 C 0.59394 0.47309 0.94414 0.0
H1138 H 0.54213 0.46223 1.01648 0.0
H1139 H 0.73399 0.43971 0.87251 0.0
loop_
_geom_bond_atom_site_label_1
_geom_bond_atom_site_label_2
_geom_bond_distance
_geom_bond_site_symmetry_2
_ccdc_geom_bond_type
Nd0 C2 2.836 1_554 S
Nd0 O20 2.500 1_554 S
Nd0 O21 2.492 1_554 S
Nd0 O22 2.487 . S
Nd0 O23 2.682 . S
Nd0 O24 2.410 1_554 S
Nd0 O29 2.414 1_554 S
Nd0 O31 2.424 . S
Nd1 C11 2.836 1_556 S
Nd1 O23 2.414 1_556 S
Nd1 O25 2.424 . S
Nd1 O26 2.500 1_556 S
Nd1 O27 2.492 1_556 S
Nd1 O28 2.487 . S
Nd1 O29 2.682 . S
Nd1 O30 2.410 1_556 S
C2 Nd0 2.836 1_556 S
C2 C3 1.498 . S
C2 O20 1.258 . S
C2 O21 1.239 . S
C3 C2 1.498 . S
C3 C4 1.366 . S
C3 C8 1.407 . S
C4 C3 1.366 . S
C4 C5 1.392 . S
C4 H32 0.930 . S
C5 C4 1.392 . S
C5 C6 1.398 . S
C5 H33 0.929 . S
C6 C5 1.398 . S
C6 C7 1.352 . S
C7 C6 1.352 . S
C7 C8 1.384 . S
C7 H34 0.930 . S
C8 C3 1.407 . S
C8 C7 1.384 . S
C8 H35 0.929 . S
C9 O22 1.241 . S
C9 O23 1.273 . S
C10 O24 1.251 . S
C10 O25 1.268 . S
C11 Nd1 2.836 1_554 S
C11 C12 1.498 . S
C11 O26 1.258 . S
C11 O27 1.239 . S
C12 C11 1.498 . S
C12 C13 1.366 . S
C12 C17 1.407 . S
C13 C12 1.366 . S
C13 C14 1.392 . S
C13 H36 0.930 . S
C14 C13 1.392 . S
C14 C15 1.398 . S
C14 H37 0.929 . S
C15 C14 1.398 . S
C15 C16 1.352 . S
C16 C15 1.352 . S
C16 C17 1.384 . S
C16 H38 0.930 . S
C17 C12 1.407 . S
C17 C16 1.384 . S
C17 H39 0.929 . S
C18 O28 1.241 . S
C18 O29 1.273 . S
C19 O30 1.251 . S
C19 O31 1.268 . S
O20 Nd0 2.500 1_556 S
O20 C2 1.258 . S
O21 Nd0 2.492 1_556 S
O21 C2 1.239 . S
O22 Nd0 2.487 . S
O22 C9 1.241 . S
O23 Nd0 2.682 . S
O23 Nd1 2.414 1_554 S
O23 C9 1.273 . S
O24 Nd0 2.410 1_556 S
O24 C10 1.251 . S
O25 Nd1 2.424 . S
O25 C10 1.268 . S
O26 Nd1 2.500 1_554 S
O26 C11 1.258 . S
O27 Nd1 2.492 1_554 S
O27 C11 1.239 . S
O28 Nd1 2.487 . S
O28 C18 1.241 . S
O29 Nd0 2.414 1_556 S
O29 Nd1 2.682 . S
O29 C18 1.273 . S
O30 Nd1 2.410 1_554 S
O30 C19 1.251 . S
O31 Nd0 2.424 . S
O31 C19 1.268 . S
H32 C4 0.930 . S
H33 C5 0.929 . S
H34 C7 0.930 . S
H35 C8 0.929 . S
H36 C13 0.930 . S
H37 C14 0.929 . S
H38 C16 0.930 . S
H39 C17 0.929 . S
Nd40 C42 2.836 . S
Nd40 O60 2.500 . S
Nd40 O61 2.492 . S
Nd40 O62 2.487 . S
Nd40 O63 2.682 . S
Nd40 O64 2.410 . S
Nd40 O69 2.414 . S
Nd40 O71 2.424 . S
Nd41 C51 2.836 . S
Nd41 O63 2.414 . S
Nd41 O65 2.424 . S
Nd41 O66 2.500 . S
Nd41 O67 2.492 . S
Nd41 O68 2.487 . S
Nd41 O69 2.682 . S
Nd41 O70 2.410 . S
C42 Nd40 2.836 . S
C42 C43 1.498 . S
C42 O60 1.258 . S
C42 O61 1.239 . S
C43 C42 1.498 . S
C43 C44 1.366 . S
C43 C48 1.407 . S
C44 C43 1.366 . S
C44 C45 1.392 . S
C44 H72 0.930 . S
C45 C44 1.392 . S
C45 C46 1.398 . S
C45 H73 0.929 . S
C46 C45 1.398 . S
C46 C47 1.352 . S
C47 C46 1.352 . S
C47 C48 1.384 . S
C47 H74 0.930 . S
C48 C43 1.407 . S
C48 C47 1.384 . S
C48 H75 0.929 . S
C49 O62 1.241 . S
C49 O63 1.273 . S
C50 O64 1.251 . S
C50 O65 1.268 . S
C51 Nd41 2.836 . S
C51 C52 1.498 . S
C51 O66 1.258 . S
C51 O67 1.239 . S
C52 C51 1.498 . S
C52 C53 1.366 . S
C52 C57 1.407 . S
C53 C52 1.366 . S
C53 C54 1.392 . S
C53 H76 0.930 . S
C54 C53 1.392 . S
C54 C55 1.398 . S
C54 H77 0.929 . S
C55 C54 1.398 . S
C55 C56 1.352 . S
C56 C55 1.352 . S
C56 C57 1.384 . S
C56 H78 0.930 . S
C57 C52 1.407 . S
C57 C56 1.384 . S
C57 H79 0.929 . S
C58 O68 1.241 . S
C58 O69 1.273 . S
C59 O70 1.251 . S
C59 O71 1.268 . S
O60 Nd40 2.500 . S
O60 C42 1.258 . S
O61 Nd40 2.492 . S
O61 C42 1.239 . S
O62 Nd40 2.487 . S
O62 C49 1.241 . S
O63 Nd40 2.682 . S
O63 Nd41 2.414 . S
O63 C49 1.273 . S
O64 Nd40 2.410 . S
O64 C50 1.251 . S
O65 Nd41 2.424 . S
O65 C50 1.268 . S
O66 Nd41 2.500 . S
O66 C51 1.258 . S
O67 Nd41 2.492 . S
O67 C51 1.239 . S
O68 Nd41 2.487 . S
O68 C58 1.241 . S
O69 Nd40 2.414 . S
O69 Nd41 2.682 . S
O69 C58 1.273 . S
O70 Nd41 2.410 . S
O70 C59 1.251 . S
O71 Nd40 2.424 . S
O71 C59 1.268 . S
H72 C44 0.930 . S
H73 C45 0.929 . S
H74 C47 0.930 . S
H75 C48 0.929 . S
H76 C53 0.930 . S
H77 C54 0.929 . S
H78 C56 0.930 . S
H79 C57 0.929 . S
Nd80 C82 2.836 . S
Nd80 O100 2.500 . S
Nd80 O101 2.492 . S
Nd80 O102 2.487 . S
Nd80 O103 2.682 . S
Nd80 O104 2.410 . S
Nd80 O109 2.414 . S
Nd80 O111 2.424 . S
Nd81 C91 2.836 . S
Nd81 O103 2.414 . S
Nd81 O105 2.424 . S
Nd81 O106 2.500 . S
Nd81 O107 2.492 . S
Nd81 O108 2.487 . S
Nd81 O109 2.682 . S
Nd81 O110 2.410 . S
C82 Nd80 2.836 . S
C82 C83 1.498 . S
C82 O100 1.258 . S
C82 O101 1.239 . S
C83 C82 1.498 . S
C83 C84 1.366 . S
C83 C88 1.407 . S
C84 C83 1.366 . S
C84 C85 1.392 . S
C84 H112 0.930 . S
C85 C84 1.392 . S
C85 C86 1.398 . S
C85 H113 0.929 . S
C86 C85 1.398 . S
C86 C87 1.352 . S
C87 C86 1.352 . S
C87 C88 1.384 . S
C87 H114 0.930 . S
C88 C83 1.407 . S
C88 C87 1.384 . S
C88 H115 0.929 . S
C89 O102 1.241 . S
C89 O103 1.273 . S
C90 O104 1.251 . S
C90 O105 1.268 . S
C91 Nd81 2.836 . S
C91 C92 1.498 . S
C91 O106 1.258 . S
C91 O107 1.239 . S
C92 C91 1.498 . S
C92 C93 1.366 . S
C92 C97 1.407 . S
C93 C92 1.366 . S
C93 C94 1.392 . S
C93 H116 0.930 . S
C94 C93 1.392 . S
C94 C95 1.398 . S
C94 H117 0.929 . S
C95 C94 1.398 . S
C95 C96 1.352 . S
C96 C95 1.352 . S
C96 C97 1.384 . S
C96 H118 0.930 . S
C97 C92 1.407 . S
C97 C96 1.384 . S
C97 H119 0.929 . S
C98 O108 1.241 . S
C98 O109 1.273 . S
C99 O110 1.251 . S
C99 O111 1.268 . S
O100 Nd80 2.500 . S
O100 C82 1.258 . S
O101 Nd80 2.492 . S
O101 C82 1.239 . S
O102 Nd80 2.487 . S
O102 C89 1.241 . S
O103 Nd80 2.682 . S
O103 Nd81 2.414 . S
O103 C89 1.273 . S
O104 Nd80 2.410 . S
O104 C90 1.251 . S
O105 Nd81 2.424 . S
O105 C90 1.268 . S
O106 Nd81 2.500 . S
O106 C91 1.258 . S
O107 Nd81 2.492 . S
O107 C91 1.239 . S
O108 Nd81 2.487 . S
O108 C98 1.241 . S
O109 Nd80 2.414 . S
O109 Nd81 2.682 . S
O109 C98 1.273 . S
O110 Nd81 2.410 . S
O110 C99 1.251 . S
O111 Nd80 2.424 . S
O111 C99 1.268 . S
H112 C84 0.930 . S
H113 C85 0.929 . S
H114 C87 0.930 . S
H115 C88 0.929 . S
H116 C93 0.930 . S
H117 C94 0.929 . S
H118 C96 0.930 . S
H119 C97 0.929 . S
Nd120 C122 2.836 1_554 S
Nd120 O140 2.500 1_554 S
Nd120 O141 2.492 1_554 S
Nd120 O142 2.487 . S
Nd120 O143 2.682 . S
Nd120 O144 2.410 1_554 S
Nd120 O149 2.414 1_554 S
Nd120 O151 2.424 . S
Nd121 C131 2.836 1_556 S
Nd121 O143 2.414 1_556 S
Nd121 O145 2.424 . S
Nd121 O146 2.500 1_556 S
Nd121 O147 2.492 1_556 S
Nd121 O148 2.487 . S
Nd121 O149 2.682 . S
Nd121 O150 2.410 1_556 S
C122 Nd120 2.836 1_556 S
C122 C123 1.498 . S
C122 O140 1.258 . S
C122 O141 1.239 . S
C123 C122 1.498 . S
C123 C124 1.366 . S
C123 C128 1.407 . S
C124 C123 1.366 . S
C124 C125 1.392 . S
C124 H152 0.930 . S
C125 C124 1.392 . S
C125 C126 1.398 . S
C125 H153 0.929 . S
C126 C125 1.398 . S
C126 C127 1.352 . S
C127 C126 1.352 . S
C127 C128 1.384 . S
C127 H154 0.930 . S
C128 C123 1.407 . S
C128 C127 1.384 . S
C128 H155 0.929 . S
C129 O142 1.241 . S
C129 O143 1.273 . S
C130 O144 1.251 . S
C130 O145 1.268 . S
C131 Nd121 2.836 1_554 S
C131 C132 1.498 . S
C131 O146 1.258 . S
C131 O147 1.239 . S
C132 C131 1.498 . S
C132 C133 1.366 . S
C132 C137 1.407 . S
C133 C132 1.366 . S
C133 C134 1.392 . S
C133 H156 0.930 . S
C134 C133 1.392 . S
C134 C135 1.398 . S
C134 H157 0.929 . S
C135 C134 1.398 . S
C135 C136 1.352 . S
C136 C135 1.352 . S
C136 C137 1.384 . S
C136 H158 0.930 . S
C137 C132 1.407 . S
C137 C136 1.384 . S
C137 H159 0.929 . S
C138 O148 1.241 . S
C138 O149 1.273 . S
C139 O150 1.251 . S
C139 O151 1.268 . S
O140 Nd120 2.500 1_556 S
O140 C122 1.258 . S
O141 Nd120 2.492 1_556 S
O141 C122 1.239 . S
O142 Nd120 2.487 . S
O142 C129 1.241 . S
O143 Nd120 2.682 . S
O143 Nd121 2.414 1_554 S
O143 C129 1.273 . S
O144 Nd120 2.410 1_556 S
O144 C130 1.251 . S
O145 Nd121 2.424 . S
O145 C130 1.268 . S
O146 Nd121 2.500 1_554 S
O146 C131 1.258 . S
O147 Nd121 2.492 1_554 S
O147 C131 1.239 . S
O148 Nd121 2.487 . S
O148 C138 1.241 . S
O149 Nd120 2.414 1_556 S
O149 Nd121 2.682 . S
O149 C138 1.273 . S
O150 Nd121 2.410 1_554 S
O150 C139 1.251 . S
O151 Nd120 2.424 . S
O151 C139 1.268 . S
H152 C124 0.930 . S
H153 C125 0.929 . S
H154 C127 0.930 . S
H155 C128 0.929 . S
H156 C133 0.930 . S
H157 C134 0.929 . S
H158 C136 0.930 . S
H159 C137 0.929 . S
Nd160 C162 2.836 . S
Nd160 O180 2.500 . S
Nd160 O181 2.492 . S
Nd160 O182 2.487 . S
Nd160 O183 2.682 . S
Nd160 O184 2.410 . S
Nd160 O189 2.414 . S
Nd160 O191 2.424 . S
Nd161 C171 2.836 . S
Nd161 O183 2.414 . S
Nd161 O185 2.424 . S
Nd161 O186 2.500 . S
Nd161 O187 2.492 . S
Nd161 O188 2.487 . S
Nd161 O189 2.682 . S
Nd161 O190 2.410 . S
C162 Nd160 2.836 . S
C162 C163 1.498 . S
C162 O180 1.258 . S
C162 O181 1.239 . S
C163 C162 1.498 . S
C163 C164 1.366 . S
C163 C168 1.407 . S
C164 C163 1.366 . S
C164 C165 1.392 . S
C164 H192 0.930 . S
C165 C164 1.392 . S
C165 C166 1.398 . S
C165 H193 0.929 . S
C166 C165 1.398 . S
C166 C167 1.352 . S
C167 C166 1.352 . S
C167 C168 1.384 . S
C167 H194 0.930 . S
C168 C163 1.407 . S
C168 C167 1.384 . S
C168 H195 0.929 . S
C169 O182 1.241 . S
C169 O183 1.273 . S
C170 O184 1.251 . S
C170 O185 1.268 . S
C171 Nd161 2.836 . S
C171 C172 1.498 . S
C171 O186 1.258 . S
C171 O187 1.239 . S
C172 C171 1.498 . S
C172 C173 1.366 . S
C172 C177 1.407 . S
C173 C172 1.366 . S
C173 C174 1.392 . S
C173 H196 0.930 . S
C174 C173 1.392 . S
C174 C175 1.398 . S
C174 H197 0.929 . S
C175 C174 1.398 . S
C175 C176 1.352 . S
C176 C175 1.352 . S
C176 C177 1.384 . S
C176 H198 0.930 . S
C177 C172 1.407 . S
C177 C176 1.384 . S
C177 H199 0.929 . S
C178 O188 1.241 . S
C178 O189 1.273 . S
C179 O190 1.251 . S
C179 O191 1.268 . S
O180 Nd160 2.500 . S
O180 C162 1.258 . S
O181 Nd160 2.492 . S
O181 C162 1.239 . S
O182 Nd160 2.487 . S
O182 C169 1.241 . S
O183 Nd160 2.682 . S
O183 Nd161 2.414 . S
O183 C169 1.273 . S
O184 Nd160 2.410 . S
O184 C170 1.251 . S
O185 Nd161 2.424 . S
O185 C170 1.268 . S
O186 Nd161 2.500 . S
O186 C171 1.258 . S
O187 Nd161 2.492 . S
O187 C171 1.239 . S
O188 Nd161 2.487 . S
O188 C178 1.241 . S
O189 Nd160 2.414 . S
O189 Nd161 2.682 . S
O189 C178 1.273 . S
O190 Nd161 2.410 . S
O190 C179 1.251 . S
O191 Nd160 2.424 . S
O191 C179 1.268 . S
H192 C164 0.930 . S
H193 C165 0.929 . S
H194 C167 0.930 . S
H195 C168 0.929 . S
H196 C173 0.930 . S
H197 C174 0.929 . S
H198 C176 0.930 . S
H199 C177 0.929 . S
Nd200 C202 2.836 . S
Nd200 O220 2.500 . S
Nd200 O221 2.492 . S
Nd200 O222 2.487 . S
Nd200 O223 2.682 . S
Nd200 O224 2.410 . S
Nd200 O229 2.414 . S
Nd200 O231 2.424 . S
Nd201 C211 2.836 . S
Nd201 O223 2.414 . S
Nd201 O225 2.424 . S
Nd201 O226 2.500 . S
Nd201 O227 2.492 . S
Nd201 O228 2.487 . S
Nd201 O229 2.682 . S
Nd201 O230 2.410 . S
C202 Nd200 2.836 . S
C202 C203 1.498 . S
C202 O220 1.258 . S
C202 O221 1.239 . S
C203 C202 1.498 . S
C203 C204 1.366 . S
C203 C208 1.407 . S
C204 C203 1.366 . S
C204 C205 1.392 . S
C204 H232 0.930 . S
C205 C204 1.392 . S
C205 C206 1.398 . S
C205 H233 0.929 . S
C206 C205 1.398 . S
C206 C207 1.352 . S
C207 C206 1.352 . S
C207 C208 1.384 . S
C207 H234 0.930 . S
C208 C203 1.407 . S
C208 C207 1.384 . S
C208 H235 0.929 . S
C209 O222 1.241 . S
C209 O223 1.273 . S
C210 O224 1.251 . S
C210 O225 1.268 . S
C211 Nd201 2.836 . S
C211 C212 1.498 . S
C211 O226 1.258 . S
C211 O227 1.239 . S
C212 C211 1.498 . S
C212 C213 1.366 . S
C212 C217 1.407 . S
C213 C212 1.366 . S
C213 C214 1.392 . S
C213 H236 0.930 . S
C214 C213 1.392 . S
C214 C215 1.398 . S
C214 H237 0.929 . S
C215 C214 1.398 . S
C215 C216 1.352 . S
C216 C215 1.352 . S
C216 C217 1.384 . S
C216 H238 0.930 . S
C217 C212 1.407 . S
C217 C216 1.384 . S
C217 H239 0.929 . S
C218 O228 1.241 . S
C218 O229 1.273 . S
C219 O230 1.251 . S
C219 O231 1.268 . S
O220 Nd200 2.500 . S
O220 C202 1.258 . S
O221 Nd200 2.492 . S
O221 C202 1.239 . S
O222 Nd200 2.487 . S
O222 C209 1.241 . S
O223 Nd200 2.682 . S
O223 Nd201 2.414 . S
O223 C209 1.273 . S
O224 Nd200 2.410 . S
O224 C210 1.251 . S
O225 Nd201 2.424 . S
O225 C210 1.268 . S
O226 Nd201 2.500 . S
O226 C211 1.258 . S
O227 Nd201 2.492 . S
O227 C211 1.239 . S
O228 Nd201 2.487 . S
O228 C218 1.241 . S
O229 Nd200 2.414 . S
O229 Nd201 2.682 . S
O229 C218 1.273 . S
O230 Nd201 2.410 . S
O230 C219 1.251 . S
O231 Nd200 2.424 . S
O231 C219 1.268 . S
H232 C204 0.930 . S
H233 C205 0.929 . S
H234 C207 0.930 . S
H235 C208 0.929 . S
H236 C213 0.930 . S
H237 C214 0.929 . S
H238 C216 0.930 . S
H239 C217 0.929 . S
H240 C258 0.951 . S
H241 C260 0.951 . S
H242 C262 0.950 . S
H243 C263 0.950 . S
H244 C265 0.950 . S
H245 C268 0.950 . S
H246 C269 0.950 . S
H247 C271 0.950 . S
H248 C272 0.950 . S
H249 C273 0.951 . S
H250 C275 0.951 . S
H251 C277 0.950 . S
H252 C278 0.950 . S
H253 C280 0.950 . S
H254 C283 0.950 . S
H255 C284 0.950 . S
H256 C286 0.950 1_554 S
H257 C287 0.950 . S
C258 H240 0.951 . S
C258 C259 1.366 . S
C258 C260 1.388 . S
C259 C258 1.366 . S
C259 C263 1.385 . S
C260 H241 0.951 . S
C260 C258 1.388 . S
C260 C261 1.366 . S
C261 C260 1.366 . S
C261 C262 1.414 . S
C261 C264 1.499 . S
C262 H242 0.950 . S
C262 C261 1.414 . S
C262 C263 1.374 . S
C263 H243 0.950 . S
C263 C259 1.385 . S
C263 C262 1.374 . S
C264 C261 1.499 . S
C264 C265 1.373 . S
C264 C266 1.389 . S
C265 H244 0.950 . S
C265 C264 1.373 . S
C265 C281 1.377 . S
C266 C264 1.389 . S
C266 C267 1.524 . S
C266 C280 1.377 . S
C267 C266 1.524 . S
C267 C268 1.397 . S
C267 C272 1.363 . S
C268 H245 0.950 . S
C268 C267 1.397 . S
C268 C269 1.334 . S
C269 H246 0.950 . S
C269 C268 1.334 . S
C269 C270 1.287 . S
C270 C269 1.287 . S
C270 C271 1.524 . S
C270 H289 0.913 . S
C271 H247 0.950 . S
C271 C270 1.524 . S
C271 C272 1.415 . S
C272 H248 0.950 . S
C272 C267 1.363 . S
C272 C271 1.415 . S
C273 H249 0.951 . S
C273 C274 1.366 . S
C273 C275 1.388 . S
C274 C273 1.366 . S
C274 C278 1.385 . S
C275 H250 0.951 . S
C275 C273 1.388 . S
C275 C276 1.366 . S
C276 C275 1.366 . S
C276 C277 1.414 . S
C276 C279 1.499 . S
C277 H251 0.950 . S
C277 C276 1.414 . S
C277 C278 1.374 . S
C278 H252 0.950 . S
C278 C274 1.385 . S
C278 C277 1.374 . S
C279 C276 1.499 . S
C279 C280 1.373 . S
C279 C281 1.389 . S
C280 H253 0.950 . S
C280 C266 1.377 . S
C280 C279 1.373 . S
C281 C265 1.377 . S
C281 C279 1.389 . S
C281 C282 1.524 . S
C282 C281 1.524 . S
C282 C283 1.397 . S
C282 C287 1.363 . S
C283 H254 0.950 . S
C283 C282 1.397 . S
C283 C284 1.334 . S
C284 H255 0.950 . S
C284 C283 1.334 . S
C284 C285 1.287 1_556 S
C285 C284 1.287 1_554 S
C285 C286 1.524 1_554 S
C285 H288 0.999 . S
C286 H256 0.950 1_556 S
C286 C285 1.524 1_556 S
C286 C287 1.415 . S
C287 H257 0.950 . S
C287 C282 1.363 . S
C287 C286 1.415 . S
H288 C285 0.999 . S
H289 C270 0.913 . S
H290 C308 0.951 . S
H291 C310 0.951 1_556 S
H292 C312 0.950 . S
H293 C313 0.950 . S
H294 C315 0.950 . S
H295 C318 0.950 . S
H296 C319 0.950 1_554 S
H297 C321 0.950 . S
H298 C322 0.950 . S
H299 C323 0.951 . S
H300 C325 0.951 . S
H301 C327 0.950 . S
H302 C328 0.950 . S
H303 C330 0.950 . S
H304 C333 0.950 . S
H305 C334 0.943 1_655 S
H306 C336 0.950 . S
H307 C337 0.950 . S
C308 H290 0.951 . S
C308 C309 1.366 1_556 S
C308 C310 1.388 1_556 S
C309 C308 1.366 1_554 S
C309 C313 1.385 . S
C310 H291 0.951 1_554 S
C310 C308 1.388 1_554 S
C310 C311 1.366 . S
C311 C310 1.366 . S
C311 C312 1.414 . S
C311 C314 1.499 . S
C312 H292 0.950 . S
C312 C311 1.414 . S
C312 C313 1.374 . S
C313 H293 0.950 . S
C313 C309 1.385 . S
C313 C312 1.374 . S
C314 C311 1.499 . S
C314 C315 1.373 . S
C314 C316 1.389 . S
C315 H294 0.950 . S
C315 C314 1.373 . S
C315 C331 1.377 . S
C316 C314 1.389 . S
C316 C317 1.517 1_554 S
C316 C330 1.377 . S
C317 C316 1.517 1_556 S
C317 C318 1.392 1_556 S
C317 C322 1.374 . S
C318 H295 0.950 . S
C318 C317 1.392 1_554 S
C318 C319 1.334 1_554 S
C319 H296 0.950 1_556 S
C319 C318 1.334 1_556 S
C319 C320 1.287 . S
C320 C319 1.287 . S
C320 C321 1.524 . S
C320 H339 0.913 . S
C321 H297 0.950 . S
C321 C320 1.524 . S
C321 C322 1.415 . S
C322 H298 0.950 . S
C322 C317 1.374 . S
C322 C321 1.415 . S
C323 H299 0.951 . S
C323 C324 1.366 . S
C323 C325 1.388 . S
C324 C323 1.366 . S
C324 C328 1.385 . S
C325 H300 0.951 . S
C325 C323 1.388 . S
C325 C326 1.366 . S
C326 C325 1.366 . S
C326 C327 1.414 . S
C326 C329 1.499 1_655 S
C327 H301 0.950 . S
C327 C326 1.414 . S
C327 C328 1.374 . S
C328 H302 0.950 . S
C328 C324 1.385 . S
C328 C327 1.374 . S
C329 C326 1.499 1_455 S
C329 C330 1.373 . S
C329 C331 1.389 . S
C330 H303 0.950 . S
C330 C316 1.377 . S
C330 C329 1.373 . S
C331 C315 1.377 . S
C331 C329 1.389 . S
C331 C332 1.524 . S
C332 C331 1.524 . S
C332 C333 1.397 . S
C332 C337 1.363 . S
C333 H304 0.950 . S
C333 C332 1.397 . S
C333 C334 1.334 . S
C334 H305 0.943 1_455 S
C334 C333 1.334 . S
C334 C335 1.287 . S
C335 C334 1.287 . S
C335 C336 1.524 . S
C335 H338 0.999 . S
C336 H306 0.950 . S
C336 C335 1.524 . S
C336 C337 1.415 . S
C337 H307 0.950 . S
C337 C332 1.363 . S
C337 C336 1.415 . S
H338 C335 0.999 . S
H339 C320 0.913 . S
H340 C358 0.951 . S
H341 C360 0.951 . S
H342 C362 0.950 . S
H343 C363 0.950 . S
H344 C365 0.950 . S
H345 C368 0.950 . S
H346 C369 0.950 . S
H347 C371 0.950 . S
H348 C372 0.950 . S
H349 C373 0.951 . S
H350 C375 0.951 . S
H351 C377 0.950 . S
H352 C378 0.950 . S
H353 C380 0.950 . S
H354 C383 0.950 . S
H355 C384 0.929 1_565 S
H356 C386 0.950 . S
H357 C387 0.950 . S
C358 H340 0.951 . S
C358 C359 1.366 . S
C358 C360 1.388 . S
C359 C358 1.366 . S
C359 C363 1.385 . S
C360 H341 0.951 . S
C360 C358 1.388 . S
C360 C361 1.366 . S
C361 C360 1.366 . S
C361 C362 1.414 . S
C361 C364 1.499 . S
C362 H342 0.950 . S
C362 C361 1.414 . S
C362 C363 1.374 . S
C363 H343 0.950 . S
C363 C359 1.385 . S
C363 C362 1.374 . S
C364 C361 1.499 . S
C364 C365 1.373 . S
C364 C366 1.389 . S
C365 H344 0.950 . S
C365 C364 1.373 . S
C365 C381 1.377 . S
C366 C364 1.389 . S
C366 C367 1.524 . S
C366 C380 1.377 . S
C367 C366 1.524 . S
C367 C368 1.397 . S
C367 C372 1.363 . S
C368 H345 0.950 . S
C368 C367 1.397 . S
C368 C369 1.334 . S
C369 H346 0.950 . S
C369 C368 1.334 . S
C369 C370 1.287 . S
C370 C369 1.287 . S
C370 C371 1.524 . S
C370 H389 0.913 . S
C371 H347 0.950 . S
C371 C370 1.524 . S
C371 C372 1.415 . S
C372 H348 0.950 . S
C372 C367 1.363 . S
C372 C371 1.415 . S
C373 H349 0.951 . S
C373 C374 1.366 . S
C373 C375 1.388 . S
C374 C373 1.366 . S
C374 C378 1.385 . S
C375 H350 0.951 . S
C375 C373 1.388 . S
C375 C376 1.366 . S
C376 C375 1.366 . S
C376 C377 1.414 . S
C376 C379 1.499 1_565 S
C377 H351 0.950 . S
C377 C376 1.414 . S
C377 C378 1.374 . S
C378 H352 0.950 . S
C378 C374 1.385 . S
C378 C377 1.374 . S
C379 C376 1.499 1_545 S
C379 C380 1.373 . S
C379 C381 1.389 . S
C380 H353 0.950 . S
C380 C366 1.377 . S
C380 C379 1.373 . S
C381 C365 1.377 . S
C381 C379 1.389 . S
C381 C382 1.524 . S
C382 C381 1.524 . S
C382 C383 1.397 . S
C382 C387 1.363 . S
C383 H354 0.950 . S
C383 C382 1.397 . S
C383 C384 1.334 . S
C384 H355 0.929 1_545 S
C384 C383 1.334 . S
C384 C385 1.287 . S
C385 C384 1.287 . S
C385 C386 1.524 . S
C385 H388 0.999 . S
C386 H356 0.950 . S
C386 C385 1.524 . S
C386 C387 1.415 . S
C387 H357 0.950 . S
C387 C382 1.363 . S
C387 C386 1.415 . S
H388 C385 0.999 . S
H389 C370 0.913 . S
H390 C408 0.951 . S
H391 C410 0.951 . S
H392 C412 0.950 . S
H393 C413 0.950 . S
H394 C415 0.950 . S
H395 C418 0.950 . S
H396 C419 0.950 . S
H397 C421 0.950 . S
H398 C422 0.950 . S
H399 C423 0.951 . S
H400 C425 0.951 . S
H401 C427 0.950 . S
H402 C428 0.950 . S
H403 C430 0.950 . S
H404 C433 0.950 . S
H405 C434 0.950 . S
H406 C436 0.950 . S
H407 C437 0.950 . S
C408 H390 0.951 . S
C408 C409 1.366 . S
C408 C410 1.388 . S
C409 C408 1.366 . S
C409 C413 1.385 . S
C410 H391 0.951 . S
C410 C408 1.388 . S
C410 C411 1.366 . S
C411 C410 1.366 . S
C411 C412 1.414 . S
C411 C414 1.499 . S
C412 H392 0.950 . S
C412 C411 1.414 . S
C412 C413 1.374 . S
C413 H393 0.950 . S
C413 C409 1.385 . S
C413 C412 1.374 . S
C414 C411 1.499 . S
C414 C415 1.373 . S
C414 C416 1.389 . S
C415 H394 0.950 . S
C415 C414 1.373 . S
C415 C431 1.377 . S
C416 C414 1.389 . S
C416 C417 1.524 . S
C416 C430 1.377 . S
C417 C416 1.524 . S
C417 C418 1.397 . S
C417 C422 1.363 . S
C418 H395 0.950 . S
C418 C417 1.397 . S
C418 C419 1.334 . S
C419 H396 0.950 . S
C419 C418 1.334 . S
C419 C420 1.287 . S
C420 C419 1.287 . S
C420 C421 1.524 . S
C420 H439 0.913 . S
C421 H397 0.950 . S
C421 C420 1.524 . S
C421 C422 1.415 . S
C422 H398 0.950 . S
C422 C417 1.363 . S
C422 C421 1.415 . S
C423 H399 0.951 . S
C423 C424 1.366 . S
C423 C425 1.388 . S
C424 C423 1.366 . S
C424 C428 1.385 . S
C425 H400 0.951 . S
C425 C423 1.388 . S
C425 C426 1.366 . S
C426 C425 1.366 . S
C426 C427 1.414 . S
C426 C429 1.499 . S
C427 H401 0.950 . S
C427 C426 1.414 . S
C427 C428 1.374 . S
C428 H402 0.950 . S
C428 C424 1.385 . S
C428 C427 1.374 . S
C429 C426 1.499 . S
C429 C430 1.373 . S
C429 C431 1.389 . S
C430 H403 0.950 . S
C430 C416 1.377 . S
C430 C429 1.373 . S
C431 C415 1.377 . S
C431 C429 1.389 . S
C431 C432 1.524 . S
C432 C431 1.524 . S
C432 C433 1.397 . S
C432 C437 1.363 . S
C433 H404 0.950 . S
C433 C432 1.397 . S
C433 C434 1.334 . S
C434 H405 0.950 . S
C434 C433 1.334 . S
C434 C435 1.287 . S
C435 C434 1.287 . S
C435 C436 1.524 . S
C435 H438 0.999 . S
C436 H406 0.950 . S
C436 C435 1.524 . S
C436 C437 1.415 . S
C437 H407 0.950 . S
C437 C432 1.363 . S
C437 C436 1.415 . S
H438 C435 0.999 . S
H439 C420 0.913 . S
H440 C458 0.951 . S
H441 C460 0.951 . S
H442 C462 0.950 . S
H443 C463 0.950 . S
H444 C465 0.950 . S
H445 C468 0.950 . S
H446 C469 0.950 . S
H447 C471 0.950 . S
H448 C472 0.950 . S
H449 C473 0.951 1_556 S
H450 C475 0.951 1_556 S
H451 C477 0.950 . S
H452 C478 0.950 . S
H453 C480 0.950 . S
H454 C483 0.950 . S
H455 C484 0.950 . S
H456 C486 0.950 . S
H457 C487 0.950 . S
C458 H440 0.951 . S
C458 C459 1.366 . S
C458 C460 1.388 . S
C459 C458 1.366 . S
C459 C463 1.385 . S
C460 H441 0.951 . S
C460 C458 1.388 . S
C460 C461 1.366 . S
C461 C460 1.366 . S
C461 C462 1.414 . S
C461 C464 1.499 1_455 S
C462 H442 0.950 . S
C462 C461 1.414 . S
C462 C463 1.374 . S
C463 H443 0.950 . S
C463 C459 1.385 . S
C463 C462 1.374 . S
C464 C461 1.499 1_655 S
C464 C465 1.373 . S
C464 C466 1.389 . S
C465 H444 0.950 . S
C465 C464 1.373 . S
C465 C481 1.377 . S
C466 C464 1.389 . S
C466 C467 1.524 . S
C466 C480 1.377 . S
C467 C466 1.524 . S
C467 C468 1.399 1_655 S
C467 C472 1.363 . S
C468 H445 0.950 . S
C468 C467 1.399 1_455 S
C468 C469 1.331 . S
C469 H446 0.950 . S
C469 C468 1.331 . S
C469 C470 1.287 . S
C470 C469 1.287 . S
C470 C471 1.524 1_455 S
C470 H489 0.913 . S
C471 H447 0.950 . S
C471 C470 1.524 1_655 S
C471 C472 1.415 . S
C472 H448 0.950 . S
C472 C467 1.363 . S
C472 C471 1.415 . S
C473 H449 0.951 1_554 S
C473 C474 1.366 . S
C473 C475 1.388 . S
C474 C473 1.366 . S
C474 C478 1.385 . S
C475 H450 0.951 1_554 S
C475 C473 1.388 . S
C475 C476 1.366 . S
C476 C475 1.366 . S
C476 C477 1.414 . S
C476 C479 1.499 . S
C477 H451 0.950 . S
C477 C476 1.414 . S
C477 C478 1.374 . S
C478 H452 0.950 . S
C478 C474 1.385 . S
C478 C477 1.374 . S
C479 C476 1.499 . S
C479 C480 1.373 . S
C479 C481 1.389 . S
C480 H453 0.950 . S
C480 C466 1.377 . S
C480 C479 1.373 . S
C481 C465 1.377 . S
C481 C479 1.389 . S
C481 C482 1.524 . S
C482 C481 1.524 . S
C482 C483 1.397 . S
C482 C487 1.363 . S
C483 H454 0.950 . S
C483 C482 1.397 . S
C483 C484 1.334 . S
C484 H455 0.950 . S
C484 C483 1.334 . S
C484 C485 1.287 . S
C485 C484 1.287 . S
C485 C486 1.524 . S
C485 H488 0.999 . S
C486 H456 0.950 . S
C486 C485 1.524 . S
C486 C487 1.415 . S
C487 H457 0.950 . S
C487 C482 1.363 . S
C487 C486 1.415 . S
H488 C485 0.999 . S
H489 C470 0.913 . S
H490 C508 0.951 . S
H491 C510 0.951 . S
H492 C512 0.950 . S
H493 C513 0.950 . S
H494 C515 0.950 . S
H495 C518 0.950 . S
H496 C519 0.941 1_545 S
H497 C521 0.950 . S
H498 C522 0.950 . S
H499 C523 0.951 . S
H500 C525 0.951 . S
H501 C527 0.950 . S
H502 C528 0.950 . S
H503 C530 0.950 . S
H504 C533 0.950 . S
H505 C534 0.950 . S
H506 C536 0.950 . S
H507 C537 0.950 . S
C508 H490 0.951 . S
C508 C509 1.366 . S
C508 C510 1.388 . S
C509 C508 1.366 . S
C509 C513 1.385 . S
C510 H491 0.951 . S
C510 C508 1.388 . S
C510 C511 1.366 . S
C511 C510 1.366 . S
C511 C512 1.414 . S
C511 C514 1.499 1_545 S
C512 H492 0.950 . S
C512 C511 1.414 . S
C512 C513 1.374 . S
C513 H493 0.950 . S
C513 C509 1.385 . S
C513 C512 1.374 . S
C514 C511 1.499 1_565 S
C514 C515 1.373 . S
C514 C516 1.389 . S
C515 H494 0.950 . S
C515 C514 1.373 . S
C515 C531 1.377 . S
C516 C514 1.389 . S
C516 C517 1.524 . S
C516 C530 1.377 . S
C517 C516 1.524 . S
C517 C518 1.397 . S
C517 C522 1.363 . S
C518 H495 0.950 . S
C518 C517 1.397 . S
C518 C519 1.334 . S
C519 H496 0.941 1_565 S
C519 C518 1.334 . S
C519 C520 1.287 . S
C520 C519 1.287 . S
C520 C521 1.524 . S
C520 H539 0.913 . S
C521 H497 0.950 . S
C521 C520 1.524 . S
C521 C522 1.415 . S
C522 H498 0.950 . S
C522 C517 1.363 . S
C522 C521 1.415 . S
C523 H499 0.951 . S
C523 C524 1.366 . S
C523 C525 1.388 . S
C524 C523 1.366 . S
C524 C528 1.385 . S
C525 H500 0.951 . S
C525 C523 1.388 . S
C525 C526 1.366 . S
C526 C525 1.366 . S
C526 C527 1.414 . S
C526 C529 1.499 . S
C527 H501 0.950 . S
C527 C526 1.414 . S
C527 C528 1.374 . S
C528 H502 0.950 . S
C528 C524 1.385 . S
C528 C527 1.374 . S
C529 C526 1.499 . S
C529 C530 1.373 . S
C529 C531 1.389 . S
C530 H503 0.950 . S
C530 C516 1.377 . S
C530 C529 1.373 . S
C531 C515 1.377 . S
C531 C529 1.389 . S
C531 C532 1.524 . S
C532 C531 1.524 . S
C532 C533 1.397 . S
C532 C537 1.363 . S
C533 H504 0.950 . S
C533 C532 1.397 . S
C533 C534 1.334 . S
C534 H505 0.950 . S
C534 C533 1.334 . S
C534 C535 1.287 . S
C535 C534 1.287 . S
C535 C536 1.524 . S
C535 H538 0.999 . S
C536 H506 0.950 . S
C536 C535 1.524 . S
C536 C537 1.415 . S
C537 H507 0.950 . S
C537 C532 1.363 . S
C537 C536 1.415 . S
H538 C535 0.999 . S
H539 C520 0.913 . S
H540 C558 0.951 . S
H541 C560 0.951 . S
H542 C562 0.950 . S
H543 C563 0.950 . S
H544 C565 0.950 . S
H545 C568 0.950 . S
H546 C569 0.950 . S
H547 C571 0.950 . S
H548 C572 0.950 . S
H549 C573 0.951 . S
H550 C575 0.951 . S
H551 C577 0.950 . S
H552 C578 0.950 . S
H553 C580 0.950 . S
H554 C583 0.950 . S
H555 C584 0.950 . S
H556 C586 0.950 . S
H557 C587 0.950 . S
C558 H540 0.951 . S
C558 C559 1.366 . S
C558 C560 1.388 . S
C559 C558 1.366 . S
C559 C563 1.385 . S
C560 H541 0.951 . S
C560 C558 1.388 . S
C560 C561 1.366 . S
C561 C560 1.366 . S
C561 C562 1.414 . S
C561 C564 1.499 . S
C562 H542 0.950 . S
C562 C561 1.414 . S
C562 C563 1.374 . S
C563 H543 0.950 . S
C563 C559 1.385 . S
C563 C562 1.374 . S
C564 C561 1.499 . S
C564 C565 1.373 . S
C564 C566 1.389 . S
C565 H544 0.950 . S
C565 C564 1.373 . S
C565 C581 1.377 . S
C566 C564 1.389 . S
C566 C567 1.524 . S
C566 C580 1.377 . S
C567 C566 1.524 . S
C567 C568 1.397 . S
C567 C572 1.363 . S
C568 H545 0.950 . S
C568 C567 1.397 . S
C568 C569 1.334 . S
C569 H546 0.950 . S
C569 C568 1.334 . S
C569 C570 1.287 . S
C570 C569 1.287 . S
C570 C571 1.524 . S
C570 H589 0.913 . S
C571 H547 0.950 . S
C571 C570 1.524 . S
C571 C572 1.415 . S
C572 H548 0.950 . S
C572 C567 1.363 . S
C572 C571 1.415 . S
C573 H549 0.951 . S
C573 C574 1.366 . S
C573 C575 1.388 . S
C574 C573 1.366 . S
C574 C578 1.385 . S
C575 H550 0.951 . S
C575 C573 1.388 . S
C575 C576 1.366 . S
C576 C575 1.366 . S
C576 C577 1.414 . S
C576 C579 1.499 . S
C577 H551 0.950 . S
C577 C576 1.414 . S
C577 C578 1.374 . S
C578 H552 0.950 . S
C578 C574 1.385 . S
C578 C577 1.374 . S
C579 C576 1.499 . S
C579 C580 1.373 . S
C579 C581 1.389 . S
C580 H553 0.950 . S
C580 C566 1.377 . S
C580 C579 1.373 . S
C581 C565 1.377 . S
C581 C579 1.389 . S
C581 C582 1.524 . S
C582 C581 1.524 . S
C582 C583 1.397 . S
C582 C587 1.363 . S
C583 H554 0.950 . S
C583 C582 1.397 . S
C583 C584 1.334 . S
C584 H555 0.950 . S
C584 C583 1.334 . S
C584 C585 1.287 . S
C585 C584 1.287 . S
C585 C586 1.524 . S
C585 H588 0.999 . S
C586 H556 0.950 . S
C586 C585 1.524 . S
C586 C587 1.415 . S
C587 H557 0.950 . S
C587 C582 1.363 . S
C587 C586 1.415 . S
H588 C585 0.999 . S
H589 C570 0.913 . S
H590 C608 0.951 . S
H591 C610 0.951 1_556 S
H592 C612 0.950 1_556 S
H593 C613 0.950 . S
H594 C615 0.950 . S
H595 C618 0.950 . S
H596 C619 0.950 . S
H597 C621 0.950 . S
H598 C622 0.950 . S
H599 C623 0.951 . S
H600 C625 0.951 . S
H601 C627 0.950 . S
H602 C628 0.950 . S
H603 C630 0.950 . S
H604 C633 0.950 . S
H605 C634 0.950 . S
H606 C636 0.950 . S
H607 C637 0.950 . S
C608 H590 0.951 . S
C608 C609 1.366 . S
C608 C610 1.388 . S
C609 C608 1.366 . S
C609 C613 1.385 . S
C610 H591 0.951 1_554 S
C610 C608 1.388 . S
C610 C611 1.366 1_554 S
C611 C610 1.366 1_556 S
C611 C612 1.414 1_556 S
C611 C614 1.499 . S
C612 H592 0.950 1_554 S
C612 C611 1.414 1_554 S
C612 C613 1.374 . S
C613 H593 0.950 . S
C613 C609 1.385 . S
C613 C612 1.374 . S
C614 C611 1.499 . S
C614 C615 1.373 . S
C614 C616 1.389 . S
C615 H594 0.950 . S
C615 C614 1.373 . S
C615 C631 1.377 . S
C616 C614 1.389 . S
C616 C617 1.524 . S
C616 C630 1.377 . S
C617 C616 1.524 . S
C617 C618 1.397 . S
C617 C622 1.363 . S
C618 H595 0.950 . S
C618 C617 1.397 . S
C618 C619 1.334 . S
C619 H596 0.950 . S
C619 C618 1.334 . S
C619 C620 1.287 . S
C620 C619 1.287 . S
C620 C621 1.524 . S
C620 H639 0.913 . S
C621 H597 0.950 . S
C621 C620 1.524 . S
C621 C622 1.415 . S
C622 H598 0.950 . S
C622 C617 1.363 . S
C622 C621 1.415 . S
C623 H599 0.951 . S
C623 C624 1.366 . S
C623 C625 1.388 . S
C624 C623 1.366 . S
C624 C628 1.385 . S
C625 H600 0.951 . S
C625 C623 1.388 . S
C625 C626 1.366 . S
C626 C625 1.366 . S
C626 C627 1.414 . S
C626 C629 1.499 . S
C627 H601 0.950 . S
C627 C626 1.414 . S
C627 C628 1.374 . S
C628 H602 0.950 . S
C628 C624 1.385 . S
C628 C627 1.374 . S
C629 C626 1.499 . S
C629 C630 1.373 . S
C629 C631 1.389 . S
C630 H603 0.950 . S
C630 C616 1.377 . S
C630 C629 1.373 . S
C631 C615 1.377 . S
C631 C629 1.389 . S
C631 C632 1.524 . S
C632 C631 1.524 . S
C632 C633 1.397 . S
C632 C637 1.363 . S
C633 H604 0.950 . S
C633 C632 1.397 . S
C633 C634 1.334 . S
C634 H605 0.950 . S
C634 C633 1.334 . S
C634 C635 1.287 . S
C635 C634 1.287 . S
C635 C636 1.524 . S
C635 H638 0.999 . S
C636 H606 0.950 . S
C636 C635 1.524 . S
C636 C637 1.415 . S
C637 H607 0.950 . S
C637 C632 1.363 . S
C637 C636 1.415 . S
H638 C635 0.999 . S
H639 C620 0.913 . S
H640 C658 0.951 . S
H641 C660 0.951 . S
H642 C662 0.950 . S
H643 C663 0.950 . S
H644 C665 0.950 . S
H645 C668 0.950 . S
H646 C669 0.950 . S
H647 C671 0.950 . S
H648 C672 0.950 . S
H649 C673 0.951 . S
H650 C675 0.951 . S
H651 C677 0.950 1_554 S
H652 C678 0.950 . S
H653 C680 0.950 . S
H654 C683 0.950 . S
H655 C684 0.950 . S
H656 C686 0.950 . S
H657 C687 0.950 . S
C658 H640 0.951 . S
C658 C659 1.366 . S
C658 C660 1.388 . S
C659 C658 1.366 . S
C659 C663 1.385 . S
C660 H641 0.951 . S
C660 C658 1.388 . S
C660 C661 1.366 . S
C661 C660 1.366 . S
C661 C662 1.414 . S
C661 C664 1.499 . S
C662 H642 0.950 . S
C662 C661 1.414 . S
C662 C663 1.374 . S
C663 H643 0.950 . S
C663 C659 1.385 . S
C663 C662 1.374 . S
C664 C661 1.499 . S
C664 C665 1.373 . S
C664 C666 1.389 . S
C665 H644 0.950 . S
C665 C664 1.373 . S
C665 C681 1.377 . S
C666 C664 1.389 . S
C666 C667 1.524 . S
C666 C680 1.377 . S
C667 C666 1.524 . S
C667 C668 1.397 . S
C667 C672 1.363 . S
C668 H645 0.950 . S
C668 C667 1.397 . S
C668 C669 1.334 . S
C669 H646 0.950 . S
C669 C668 1.334 . S
C669 C670 1.287 . S
C670 C669 1.287 . S
C670 C671 1.524 . S
C670 H689 0.913 . S
C671 H647 0.950 . S
C671 C670 1.524 . S
C671 C672 1.415 . S
C672 H648 0.950 . S
C672 C667 1.363 . S
C672 C671 1.415 . S
C673 H649 0.951 . S
C673 C674 1.366 . S
C673 C675 1.388 1_556 S
C674 C673 1.366 . S
C674 C678 1.385 . S
C675 H650 0.951 . S
C675 C673 1.388 1_554 S
C675 C676 1.366 . S
C676 C675 1.366 . S
C676 C677 1.414 1_554 S
C676 C679 1.499 . S
C677 H651 0.950 1_556 S
C677 C676 1.414 1_556 S
C677 C678 1.374 . S
C678 H652 0.950 . S
C678 C674 1.385 . S
C678 C677 1.374 . S
C679 C676 1.499 . S
C679 C680 1.373 . S
C679 C681 1.389 . S
C680 H653 0.950 . S
C680 C666 1.377 . S
C680 C679 1.373 . S
C681 C665 1.377 . S
C681 C679 1.389 . S
C681 C682 1.524 . S
C682 C681 1.524 . S
C682 C683 1.397 . S
C682 C687 1.363 . S
C683 H654 0.950 . S
C683 C682 1.397 . S
C683 C684 1.334 . S
C684 H655 0.950 . S
C684 C683 1.334 . S
C684 C685 1.287 . S
C685 C684 1.287 . S
C685 C686 1.524 . S
C685 H688 0.999 . S
C686 H656 0.950 . S
C686 C685 1.524 . S
C686 C687 1.415 . S
C687 H657 0.950 . S
C687 C682 1.363 . S
C687 C686 1.415 . S
H688 C685 0.999 . S
H689 C670 0.913 . S
H690 C708 0.951 . S
H691 C710 0.951 . S
H692 C712 0.950 . S
H693 C713 0.950 . S
H694 C715 0.950 . S
H695 C718 0.950 . S
H696 C719 0.950 . S
H697 C721 0.950 . S
H698 C722 0.950 . S
H699 C723 0.951 . S
H700 C725 0.951 . S
H701 C727 0.950 . S
H702 C728 0.950 . S
H703 C730 0.950 . S
H704 C733 0.950 . S
H705 C734 0.950 . S
H706 C736 0.950 . S
H707 C737 0.950 . S
C708 H690 0.951 . S
C708 C709 1.366 . S
C708 C710 1.388 . S
C709 C708 1.366 . S
C709 C713 1.385 . S
C710 H691 0.951 . S
C710 C708 1.388 . S
C710 C711 1.366 . S
C711 C710 1.366 . S
C711 C712 1.414 . S
C711 C714 1.499 . S
C712 H692 0.950 . S
C712 C711 1.414 . S
C712 C713 1.374 . S
C713 H693 0.950 . S
C713 C709 1.385 . S
C713 C712 1.374 . S
C714 C711 1.499 . S
C714 C715 1.373 . S
C714 C716 1.389 . S
C715 H694 0.950 . S
C715 C714 1.373 . S
C715 C731 1.377 . S
C716 C714 1.389 . S
C716 C717 1.524 . S
C716 C730 1.377 . S
C717 C716 1.524 . S
C717 C718 1.397 . S
C717 C722 1.363 . S
C718 H695 0.950 . S
C718 C717 1.397 . S
C718 C719 1.334 . S
C719 H696 0.950 . S
C719 C718 1.334 . S
C719 C720 1.287 . S
C720 C719 1.287 . S
C720 C721 1.524 . S
C720 H739 0.913 . S
C721 H697 0.950 . S
C721 C720 1.524 . S
C721 C722 1.415 . S
C722 H698 0.950 . S
C722 C717 1.363 . S
C722 C721 1.415 . S
C723 H699 0.951 . S
C723 C724 1.366 . S
C723 C725 1.388 . S
C724 C723 1.366 . S
C724 C728 1.385 . S
C725 H700 0.951 . S
C725 C723 1.388 . S
C725 C726 1.366 . S
C726 C725 1.366 . S
C726 C727 1.414 . S
C726 C729 1.499 . S
C727 H701 0.950 . S
C727 C726 1.414 . S
C727 C728 1.374 . S
C728 H702 0.950 . S
C728 C724 1.385 . S
C728 C727 1.374 . S
C729 C726 1.499 . S
C729 C730 1.373 . S
C729 C731 1.389 . S
C730 H703 0.950 . S
C730 C716 1.377 . S
C730 C729 1.373 . S
C731 C715 1.377 . S
C731 C729 1.389 . S
C731 C732 1.524 . S
C732 C731 1.524 . S
C732 C733 1.397 . S
C732 C737 1.363 . S
C733 H704 0.950 . S
C733 C732 1.397 . S
C733 C734 1.334 . S
C734 H705 0.950 . S
C734 C733 1.334 . S
C734 C735 1.287 . S
C735 C734 1.287 . S
C735 C736 1.524 . S
C735 H738 0.999 . S
C736 H706 0.950 . S
C736 C735 1.524 . S
C736 C737 1.415 . S
C737 H707 0.950 . S
C737 C732 1.363 . S
C737 C736 1.415 . S
H738 C735 0.999 . S
H739 C720 0.913 . S
H740 C758 0.951 . S
H741 C760 0.951 . S
H742 C762 0.950 . S
H743 C763 0.950 . S
H744 C765 0.950 . S
H745 C768 0.950 . S
H746 C769 0.950 . S
H747 C771 0.950 . S
H748 C772 0.950 . S
H749 C773 0.951 . S
H750 C775 0.951 1_556 S
H751 C777 0.950 1_556 S
H752 C778 0.950 . S
H753 C780 0.950 . S
H754 C783 0.950 . S
H755 C784 0.950 1_554 S
H756 C786 0.950 . S
H757 C787 0.950 . S
C758 H740 0.951 . S
C758 C759 1.366 . S
C758 C760 1.388 . S
C759 C758 1.366 . S
C759 C763 1.385 . S
C760 H741 0.951 . S
C760 C758 1.388 . S
C760 C761 1.366 . S
C761 C760 1.366 . S
C761 C762 1.414 . S
C761 C764 1.499 . S
C762 H742 0.950 . S
C762 C761 1.414 . S
C762 C763 1.374 . S
C763 H743 0.950 . S
C763 C759 1.385 . S
C763 C762 1.374 . S
C764 C761 1.499 . S
C764 C765 1.373 . S
C764 C766 1.389 . S
C765 H744 0.950 . S
C765 C764 1.373 . S
C765 C781 1.377 . S
C766 C764 1.389 . S
C766 C767 1.524 . S
C766 C780 1.377 . S
C767 C766 1.524 . S
C767 C768 1.397 . S
C767 C772 1.363 . S
C768 H745 0.950 . S
C768 C767 1.397 . S
C768 C769 1.334 . S
C769 H746 0.950 . S
C769 C768 1.334 . S
C769 C770 1.287 . S
C770 C769 1.287 . S
C770 C771 1.524 . S
C770 H789 0.913 . S
C771 H747 0.950 . S
C771 C770 1.524 . S
C771 C772 1.415 . S
C772 H748 0.950 . S
C772 C767 1.363 . S
C772 C771 1.415 . S
C773 H749 0.951 . S
C773 C774 1.366 . S
C773 C775 1.388 . S
C774 C773 1.366 . S
C774 C778 1.385 . S
C775 H750 0.951 1_554 S
C775 C773 1.388 . S
C775 C776 1.366 1_554 S
C776 C775 1.366 1_556 S
C776 C777 1.414 1_556 S
C776 C779 1.499 . S
C777 H751 0.950 1_554 S
C777 C776 1.414 1_554 S
C777 C778 1.374 . S
C778 H752 0.950 . S
C778 C774 1.385 . S
C778 C777 1.374 . S
C779 C776 1.499 . S
C779 C780 1.373 . S
C779 C781 1.389 . S
C780 H753 0.950 . S
C780 C766 1.377 . S
C780 C779 1.373 . S
C781 C765 1.377 . S
C781 C779 1.389 . S
C781 C782 1.524 . S
C782 C781 1.524 . S
C782 C783 1.397 . S
C782 C787 1.363 . S
C783 H754 0.950 . S
C783 C782 1.397 . S
C783 C784 1.334 . S
C784 H755 0.950 1_556 S
C784 C783 1.334 . S
C784 C785 1.287 . S
C785 C784 1.287 . S
C785 C786 1.524 . S
C785 H788 0.999 . S
C786 H756 0.950 . S
C786 C785 1.524 . S
C786 C787 1.415 . S
C787 H757 0.950 . S
C787 C782 1.363 . S
C787 C786 1.415 . S
H788 C785 0.999 . S
H789 C770 0.913 . S
H790 C808 0.951 . S
H791 C810 0.951 . S
H792 C812 0.950 . S
H793 C813 0.950 . S
H794 C815 0.950 . S
H795 C818 0.950 . S
H796 C819 0.950 . S
H797 C821 0.950 . S
H798 C822 0.950 . S
H799 C823 0.951 . S
H800 C825 0.956 . S
H801 C827 0.959 . S
H802 C828 0.950 . S
H803 C830 0.950 . S
H804 C833 0.950 . S
H805 C834 0.950 . S
H806 C836 0.950 . S
H807 C837 0.950 . S
C808 H790 0.951 . S
C808 C809 1.366 . S
C808 C810 1.388 . S
C809 C808 1.366 . S
C809 C813 1.385 . S
C810 H791 0.951 . S
C810 C808 1.388 . S
C810 C811 1.366 . S
C811 C810 1.366 . S
C811 C812 1.414 . S
C811 C814 1.499 . S
C812 H792 0.950 . S
C812 C811 1.414 . S
C812 C813 1.374 . S
C813 H793 0.950 . S
C813 C809 1.385 . S
C813 C812 1.374 . S
C814 C811 1.499 . S
C814 C815 1.373 . S
C814 C816 1.389 . S
C815 H794 0.950 . S
C815 C814 1.373 . S
C815 C831 1.377 . S
C816 C814 1.389 . S
C816 C817 1.524 . S
C816 C830 1.377 . S
C817 C816 1.524 . S
C817 C818 1.397 . S
C817 C822 1.363 . S
C818 H795 0.950 . S
C818 C817 1.397 . S
C818 C819 1.334 . S
C819 H796 0.950 . S
C819 C818 1.334 . S
C819 C820 1.287 . S
C820 C819 1.287 . S
C820 C821 1.524 . S
C820 H839 0.913 . S
C821 H797 0.950 . S
C821 C820 1.524 . S
C821 C822 1.415 . S
C822 H798 0.950 . S
C822 C817 1.363 . S
C822 C821 1.415 . S
C823 H799 0.951 . S
C823 C824 1.366 . S
C823 C825 1.376 1_556 S
C824 C823 1.366 . S
C824 C828 1.385 . S
C825 H800 0.956 . S
C825 C823 1.376 1_554 S
C825 C826 1.372 . S
C826 C825 1.372 . S
C826 C827 1.422 . S
C826 C829 1.499 . S
C827 H801 0.959 . S
C827 C826 1.422 . S
C827 C828 1.357 1_554 S
C828 H802 0.950 . S
C828 C824 1.385 . S
C828 C827 1.357 1_556 S
C829 C826 1.499 . S
C829 C830 1.373 . S
C829 C831 1.389 . S
C830 H803 0.950 . S
C830 C816 1.377 . S
C830 C829 1.373 . S
C831 C815 1.377 . S
C831 C829 1.389 . S
C831 C832 1.524 . S
C832 C831 1.524 . S
C832 C833 1.397 . S
C832 C837 1.363 . S
C833 H804 0.950 . S
C833 C832 1.397 . S
C833 C834 1.334 . S
C834 H805 0.950 . S
C834 C833 1.334 . S
C834 C835 1.287 . S
C835 C834 1.287 . S
C835 C836 1.524 . S
C835 H838 0.999 . S
C836 H806 0.950 . S
C836 C835 1.524 . S
C836 C837 1.415 . S
C837 H807 0.950 . S
C837 C832 1.363 . S
C837 C836 1.415 . S
H838 C835 0.999 . S
H839 C820 0.913 . S
H840 C858 0.951 . S
H841 C860 0.951 . S
H842 C862 0.950 . S
H843 C863 0.950 . S
H844 C865 0.950 . S
H845 C868 0.950 . S
H846 C869 0.950 . S
H847 C871 0.950 . S
H848 C872 0.950 . S
H849 C873 0.951 . S
H850 C875 0.951 . S
H851 C877 0.950 . S
H852 C878 0.950 . S
H853 C880 0.950 . S
H854 C883 0.950 . S
H855 C884 0.950 . S
H856 C886 0.950 . S
H857 C887 0.950 . S
C858 H840 0.951 . S
C858 C859 1.366 . S
C858 C860 1.388 . S
C859 C858 1.366 . S
C859 C863 1.385 . S
C860 H841 0.951 . S
C860 C858 1.388 . S
C860 C861 1.366 . S
C861 C860 1.366 . S
C861 C862 1.414 . S
C861 C864 1.499 . S
C862 H842 0.950 . S
C862 C861 1.414 . S
C862 C863 1.374 . S
C863 H843 0.950 . S
C863 C859 1.385 . S
C863 C862 1.374 . S
C864 C861 1.499 . S
C864 C865 1.373 . S
C864 C866 1.389 . S
C865 H844 0.950 . S
C865 C864 1.373 . S
C865 C881 1.377 . S
C866 C864 1.389 . S
C866 C867 1.524 . S
C866 C880 1.377 . S
C867 C866 1.524 . S
C867 C868 1.397 . S
C867 C872 1.363 . S
C868 H845 0.950 . S
C868 C867 1.397 . S
C868 C869 1.334 . S
C869 H846 0.950 . S
C869 C868 1.334 . S
C869 C870 1.287 . S
C870 C869 1.287 . S
C870 C871 1.524 . S
C870 H889 0.913 . S
C871 H847 0.950 . S
C871 C870 1.524 . S
C871 C872 1.415 . S
C872 H848 0.950 . S
C872 C867 1.363 . S
C872 C871 1.415 . S
C873 H849 0.951 . S
C873 C874 1.366 . S
C873 C875 1.388 . S
C874 C873 1.366 . S
C874 C878 1.385 . S
C875 H850 0.951 . S
C875 C873 1.388 . S
C875 C876 1.366 . S
C876 C875 1.366 . S
C876 C877 1.414 . S
C876 C879 1.499 . S
C877 H851 0.950 . S
C877 C876 1.414 . S
C877 C878 1.374 . S
C878 H852 0.950 . S
C878 C874 1.385 . S
C878 C877 1.374 . S
C879 C876 1.499 . S
C879 C880 1.373 . S
C879 C881 1.389 . S
C880 H853 0.950 . S
C880 C866 1.377 . S
C880 C879 1.373 . S
C881 C865 1.377 . S
C881 C879 1.389 . S
C881 C882 1.524 . S
C882 C881 1.524 . S
C882 C883 1.397 . S
C882 C887 1.363 . S
C883 H854 0.950 . S
C883 C882 1.397 . S
C883 C884 1.334 . S
C884 H855 0.950 . S
C884 C883 1.334 . S
C884 C885 1.287 . S
C885 C884 1.287 . S
C885 C886 1.524 . S
C885 H888 0.999 . S
C886 H856 0.950 . S
C886 C885 1.524 . S
C886 C887 1.415 . S
C887 H857 0.950 . S
C887 C882 1.363 . S
C887 C886 1.415 . S
H888 C885 0.999 . S
H889 C870 0.913 . S
H890 C908 0.951 . S
H891 C910 0.951 . S
H892 C912 0.950 . S
H893 C913 0.950 . S
H894 C915 0.950 . S
H895 C918 0.950 . S
H896 C919 0.950 . S
H897 C921 0.950 . S
H898 C922 0.950 . S
H899 C923 0.951 . S
H900 C925 0.951 . S
H901 C927 0.950 . S
H902 C928 0.950 . S
H903 C930 0.950 . S
H904 C933 0.950 . S
H905 C934 0.950 . S
H906 C936 0.950 . S
H907 C937 0.950 . S
C908 H890 0.951 . S
C908 C909 1.366 . S
C908 C910 1.388 . S
C909 C908 1.366 . S
C909 C913 1.385 . S
C910 H891 0.951 . S
C910 C908 1.388 . S
C910 C911 1.366 . S
C911 C910 1.366 . S
C911 C912 1.414 . S
C911 C914 1.499 . S
C912 H892 0.950 . S
C912 C911 1.414 . S
C912 C913 1.374 . S
C913 H893 0.950 . S
C913 C909 1.385 . S
C913 C912 1.374 . S
C914 C911 1.499 . S
C914 C915 1.373 . S
C914 C916 1.389 . S
C915 H894 0.950 . S
C915 C914 1.373 . S
C915 C931 1.377 . S
C916 C914 1.389 . S
C916 C917 1.524 . S
C916 C930 1.377 . S
C917 C916 1.524 . S
C917 C918 1.397 . S
C917 C922 1.363 . S
C918 H895 0.950 . S
C918 C917 1.397 . S
C918 C919 1.334 . S
C919 H896 0.950 . S
C919 C918 1.334 . S
C919 C920 1.287 . S
C920 C919 1.287 . S
C920 C921 1.524 . S
C920 H939 0.913 . S
C921 H897 0.950 . S
C921 C920 1.524 . S
C921 C922 1.415 . S
C922 H898 0.950 . S
C922 C917 1.363 . S
C922 C921 1.415 . S
C923 H899 0.951 . S
C923 C924 1.366 . S
C923 C925 1.388 . S
C924 C923 1.366 . S
C924 C928 1.385 . S
C925 H900 0.951 . S
C925 C923 1.388 . S
C925 C926 1.366 . S
C926 C925 1.366 . S
C926 C927 1.414 . S
C926 C929 1.499 . S
C927 H901 0.950 . S
C927 C926 1.414 . S
C927 C928 1.374 . S
C928 H902 0.950 . S
C928 C924 1.385 . S
C928 C927 1.374 . S
C929 C926 1.499 . S
C929 C930 1.373 . S
C929 C931 1.389 . S
C930 H903 0.950 . S
C930 C916 1.377 . S
C930 C929 1.373 . S
C931 C915 1.377 . S
C931 C929 1.389 . S
C931 C932 1.524 . S
C932 C931 1.524 . S
C932 C933 1.397 . S
C932 C937 1.363 . S
C933 H904 0.950 . S
C933 C932 1.397 . S
C933 C934 1.334 . S
C934 H905 0.950 . S
C934 C933 1.334 . S
C934 C935 1.287 . S
C935 C934 1.287 . S
C935 C936 1.524 . S
C935 H938 0.999 . S
C936 H906 0.950 . S
C936 C935 1.524 . S
C936 C937 1.415 . S
C937 H907 0.950 . S
C937 C932 1.363 . S
C937 C936 1.415 . S
H938 C935 0.999 . S
H939 C920 0.913 . S
H940 C958 0.951 . S
H941 C960 0.951 . S
H942 C962 0.950 . S
H943 C963 0.950 . S
H944 C965 0.950 . S
H945 C968 0.950 . S
H946 C969 0.950 . S
H947 C971 0.950 . S
H948 C972 0.950 . S
H949 C973 0.951 . S
H950 C975 0.951 . S
H951 C977 0.950 . S
H952 C978 0.950 . S
H953 C980 0.950 . S
H954 C983 0.950 . S
H955 C984 0.950 . S
H956 C986 0.950 . S
H957 C987 0.950 1_556 S
C958 H940 0.951 . S
C958 C959 1.366 . S
C958 C960 1.388 . S
C959 C958 1.366 . S
C959 C963 1.385 . S
C960 H941 0.951 . S
C960 C958 1.388 . S
C960 C961 1.366 . S
C961 C960 1.366 . S
C961 C962 1.414 . S
C961 C964 1.499 . S
C962 H942 0.950 . S
C962 C961 1.414 . S
C962 C963 1.374 . S
C963 H943 0.950 . S
C963 C959 1.385 . S
C963 C962 1.374 . S
C964 C961 1.499 . S
C964 C965 1.373 . S
C964 C966 1.389 . S
C965 H944 0.950 . S
C965 C964 1.373 . S
C965 C981 1.377 . S
C966 C964 1.389 . S
C966 C967 1.524 . S
C966 C980 1.377 . S
C967 C966 1.524 . S
C967 C968 1.397 . S
C967 C972 1.363 . S
C968 H945 0.950 . S
C968 C967 1.397 . S
C968 C969 1.334 . S
C969 H946 0.950 . S
C969 C968 1.334 . S
C969 C970 1.287 . S
C970 C969 1.287 . S
C970 C971 1.524 . S
C970 H989 0.913 . S
C971 H947 0.950 . S
C971 C970 1.524 . S
C971 C972 1.415 . S
C972 H948 0.950 . S
C972 C967 1.363 . S
C972 C971 1.415 . S
C973 H949 0.951 . S
C973 C974 1.366 . S
C973 C975 1.388 . S
C974 C973 1.366 . S
C974 C978 1.385 . S
C975 H950 0.951 . S
C975 C973 1.388 . S
C975 C976 1.366 . S
C976 C975 1.366 . S
C976 C977 1.414 . S
C976 C979 1.499 . S
C977 H951 0.950 . S
C977 C976 1.414 . S
C977 C978 1.374 . S
C978 H952 0.950 . S
C978 C974 1.385 . S
C978 C977 1.374 . S
C979 C976 1.499 . S
C979 C980 1.373 . S
C979 C981 1.389 . S
C980 H953 0.950 . S
C980 C966 1.377 . S
C980 C979 1.373 . S
C981 C965 1.377 . S
C981 C979 1.389 . S
C981 C982 1.524 1_556 S
C982 C981 1.524 1_554 S
C982 C983 1.397 . S
C982 C987 1.363 . S
C983 H954 0.950 . S
C983 C982 1.397 . S
C983 C984 1.334 . S
C984 H955 0.950 . S
C984 C983 1.334 . S
C984 C985 1.287 . S
C985 C984 1.287 . S
C985 C986 1.524 . S
C985 H988 0.999 . S
C986 H956 0.950 . S
C986 C985 1.524 . S
C986 C987 1.415 . S
C987 H957 0.950 1_554 S
C987 C982 1.363 . S
C987 C986 1.415 . S
H988 C985 0.999 . S
H989 C970 0.913 . S
H990 C1008 0.951 . S
H991 C1010 0.951 . S
H992 C1012 0.950 . S
H993 C1013 0.950 . S
H994 C1015 0.950 . S
H995 C1018 0.950 . S
H996 C1019 0.950 . S
H997 C1021 0.950 . S
H998 C1022 0.950 . S
H999 C1023 0.951 . S
H1000 C1025 0.951 . S
H1001 C1027 0.950 . S
H1002 C1028 0.950 . S
H1003 C1030 0.950 . S
H1004 C1033 0.950 . S
H1005 C1034 0.950 . S
H1006 C1036 0.950 . S
H1007 C1037 0.950 . S
C1008 H990 0.951 . S
C1008 C1009 1.366 . S
C1008 C1010 1.388 . S
C1009 C1008 1.366 . S
C1009 C1013 1.385 . S
C1010 H991 0.951 . S
C1010 C1008 1.388 . S
C1010 C1011 1.366 . S
C1011 C1010 1.366 . S
C1011 C1012 1.414 . S
C1011 C1014 1.499 . S
C1012 H992 0.950 . S
C1012 C1011 1.414 . S
C1012 C1013 1.374 . S
C1013 H993 0.950 . S
C1013 C1009 1.385 . S
C1013 C1012 1.374 . S
C1014 C1011 1.499 . S
C1014 C1015 1.373 . S
C1014 C1016 1.389 . S
C1015 H994 0.950 . S
C1015 C1014 1.373 . S
C1015 C1031 1.377 . S
C1016 C1014 1.389 . S
C1016 C1017 1.524 . S
C1016 C1030 1.377 . S
C1017 C1016 1.524 . S
C1017 C1018 1.397 . S
C1017 C1022 1.363 . S
C1018 H995 0.950 . S
C1018 C1017 1.397 . S
C1018 C1019 1.334 . S
C1019 H996 0.950 . S
C1019 C1018 1.334 . S
C1019 C1020 1.287 . S
C1020 C1019 1.287 . S
C1020 C1021 1.524 . S
C1020 H1039 0.913 . S
C1021 H997 0.950 . S
C1021 C1020 1.524 . S
C1021 C1022 1.415 . S
C1022 H998 0.950 . S
C1022 C1017 1.363 . S
C1022 C1021 1.415 . S
C1023 H999 0.951 . S
C1023 C1024 1.366 . S
C1023 C1025 1.388 . S
C1024 C1023 1.366 . S
C1024 C1028 1.385 . S
C1025 H1000 0.951 . S
C1025 C1023 1.388 . S
C1025 C1026 1.366 . S
C1026 C1025 1.366 . S
C1026 C1027 1.414 . S
C1026 C1029 1.499 . S
C1027 H1001 0.950 . S
C1027 C1026 1.414 . S
C1027 C1028 1.374 . S
C1028 H1002 0.950 . S
C1028 C1024 1.385 . S
C1028 C1027 1.374 . S
C1029 C1026 1.499 . S
C1029 C1030 1.373 . S
C1029 C1031 1.389 . S
C1030 H1003 0.950 . S
C1030 C1016 1.377 . S
C1030 C1029 1.373 . S
C1031 C1015 1.377 . S
C1031 C1029 1.389 . S
C1031 C1032 1.524 . S
C1032 C1031 1.524 . S
C1032 C1033 1.397 . S
C1032 C1037 1.363 . S
C1033 H1004 0.950 . S
C1033 C1032 1.397 . S
C1033 C1034 1.334 . S
C1034 H1005 0.950 . S
C1034 C1033 1.334 . S
C1034 C1035 1.287 . S
C1035 C1034 1.287 . S
C1035 C1036 1.524 . S
C1035 H1038 0.999 . S
C1036 H1006 0.950 . S
C1036 C1035 1.524 . S
C1036 C1037 1.415 . S
C1037 H1007 0.950 . S
C1037 C1032 1.363 . S
C1037 C1036 1.415 . S
H1038 C1035 0.999 . S
H1039 C1020 0.913 . S
H1040 C1058 0.951 . S
H1041 C1060 0.951 . S
H1042 C1062 0.950 . S
H1043 C1063 0.950 . S
H1044 C1065 0.950 . S
H1045 C1068 0.950 . S
H1046 C1069 0.950 . S
H1047 C1071 0.950 . S
H1048 C1072 0.950 . S
H1049 C1073 0.951 . S
H1050 C1075 0.951 . S
H1051 C1077 0.950 . S
H1052 C1078 0.950 . S
H1053 C1080 0.950 . S
H1054 C1083 0.950 . S
H1055 C1084 0.950 . S
H1056 C1086 0.950 . S
H1057 C1087 0.950 . S
C1058 H1040 0.951 . S
C1058 C1059 1.366 . S
C1058 C1060 1.388 . S
C1059 C1058 1.366 . S
C1059 C1063 1.385 . S
C1060 H1041 0.951 . S
C1060 C1058 1.388 . S
C1060 C1061 1.366 . S
C1061 C1060 1.366 . S
C1061 C1062 1.414 . S
C1061 C1064 1.499 . S
C1062 H1042 0.950 . S
C1062 C1061 1.414 . S
C1062 C1063 1.374 . S
C1063 H1043 0.950 . S
C1063 C1059 1.385 . S
C1063 C1062 1.374 . S
C1064 C1061 1.499 . S
C1064 C1065 1.373 . S
C1064 C1066 1.389 . S
C1065 H1044 0.950 . S
C1065 C1064 1.373 . S
C1065 C1081 1.377 . S
C1066 C1064 1.389 . S
C1066 C1067 1.524 . S
C1066 C1080 1.377 . S
C1067 C1066 1.524 . S
C1067 C1068 1.397 . S
C1067 C1072 1.363 . S
C1068 H1045 0.950 . S
C1068 C1067 1.397 . S
C1068 C1069 1.334 . S
C1069 H1046 0.950 . S
C1069 C1068 1.334 . S
C1069 C1070 1.287 . S
C1070 C1069 1.287 . S
C1070 C1071 1.524 . S
C1070 H1089 0.913 . S
C1071 H1047 0.950 . S
C1071 C1070 1.524 . S
C1071 C1072 1.415 . S
C1072 H1048 0.950 . S
C1072 C1067 1.363 . S
C1072 C1071 1.415 . S
C1073 H1049 0.951 . S
C1073 C1074 1.366 . S
C1073 C1075 1.388 . S
C1074 C1073 1.366 . S
C1074 C1078 1.385 . S
C1075 H1050 0.951 . S
C1075 C1073 1.388 . S
C1075 C1076 1.366 . S
C1076 C1075 1.366 . S
C1076 C1077 1.414 . S
C1076 C1079 1.499 . S
C1077 H1051 0.950 . S
C1077 C1076 1.414 . S
C1077 C1078 1.374 . S
C1078 H1052 0.950 . S
C1078 C1074 1.385 . S
C1078 C1077 1.374 . S
C1079 C1076 1.499 . S
C1079 C1080 1.373 . S
C1079 C1081 1.389 . S
C1080 H1053 0.950 . S
C1080 C1066 1.377 . S
C1080 C1079 1.373 . S
C1081 C1065 1.377 . S
C1081 C1079 1.389 . S
C1081 C1082 1.524 . S
C1082 C1081 1.524 . S
C1082 C1083 1.397 . S
C1082 C1087 1.363 . S
C1083 H1054 0.950 . S
C1083 C1082 1.397 . S
C1083 C1084 1.334 . S
C1084 H1055 0.950 . S
C1084 C1083 1.334 . S
C1084 C1085 1.287 . S
C1085 C1084 1.287 . S
C1085 C1086 1.524 . S
C1085 H1088 0.999 . S
C1086 H1056 0.950 . S
C1086 C1085 1.524 . S
C1086 C1087 1.415 . S
C1087 H1057 0.950 . S
C1087 C1082 1.363 . S
C1087 C1086 1.415 . S
H1088 C1085 0.999 . S
H1089 C1070 0.913 . S
H1090 C1108 0.951 1_554 S
H1091 C1110 0.951 1_554 S
H1092 C1112 0.950 . S
H1093 C1113 0.950 . S
H1094 C1115 0.950 . S
H1095 C1118 0.950 . S
H1096 C1119 0.950 . S
H1097 C1121 0.950 . S
H1098 C1122 0.950 . S
H1099 C1123 0.951 . S
H1100 C1125 0.951 . S
H1101 C1127 0.950 . S
H1102 C1128 0.950 . S
H1103 C1130 0.950 . S
H1104 C1133 0.950 1_554 S
H1105 C1134 0.950 . S
H1106 C1136 0.950 . S
H1107 C1137 0.950 . S
C1108 H1090 0.951 1_556 S
C1108 C1109 1.366 . S
C1108 C1110 1.388 . S
C1109 C1108 1.366 . S
C1109 C1113 1.385 . S
C1110 H1091 0.951 1_556 S
C1110 C1108 1.388 . S
C1110 C1111 1.366 . S
C1111 C1110 1.366 . S
C1111 C1112 1.414 . S
C1111 C1114 1.499 . S
C1112 H1092 0.950 . S
C1112 C1111 1.414 . S
C1112 C1113 1.374 . S
C1113 H1093 0.950 . S
C1113 C1109 1.385 . S
C1113 C1112 1.374 . S
C1114 C1111 1.499 . S
C1114 C1115 1.373 . S
C1114 C1116 1.389 . S
C1115 H1094 0.950 . S
C1115 C1114 1.373 . S
C1115 C1131 1.377 . S
C1116 C1114 1.389 . S
C1116 C1117 1.524 . S
C1116 C1130 1.377 . S
C1117 C1116 1.524 . S
C1117 C1118 1.397 . S
C1117 C1122 1.363 . S
C1118 H1095 0.950 . S
C1118 C1117 1.397 . S
C1118 C1119 1.334 . S
C1119 H1096 0.950 . S
C1119 C1118 1.334 . S
C1119 C1120 1.287 . S
C1120 C1119 1.287 . S
C1120 C1121 1.524 . S
C1120 H1139 0.913 . S
C1121 H1097 0.950 . S
C1121 C1120 1.524 . S
C1121 C1122 1.415 . S
C1122 H1098 0.950 . S
C1122 C1117 1.363 . S
C1122 C1121 1.415 . S
C1123 H1099 0.951 . S
C1123 C1124 1.366 . S
C1123 C1125 1.388 . S
C1124 C1123 1.366 . S
C1124 C1128 1.385 . S
C1125 H1100 0.951 . S
C1125 C1123 1.388 . S
C1125 C1126 1.366 . S
C1126 C1125 1.366 . S
C1126 C1127 1.414 . S
C1126 C1129 1.499 . S
C1127 H1101 0.950 . S
C1127 C1126 1.414 . S
C1127 C1128 1.374 . S
C1128 H1102 0.950 . S
C1128 C1124 1.385 . S
C1128 C1127 1.374 . S
C1129 C1126 1.499 . S
C1129 C1130 1.373 . S
C1129 C1131 1.389 . S
C1130 H1103 0.950 . S
C1130 C1116 1.377 . S
C1130 C1129 1.373 . S
C1131 C1115 1.377 . S
C1131 C1129 1.389 . S
C1131 C1132 1.524 . S
C1132 C1131 1.524 . S
C1132 C1133 1.397 . S
C1132 C1137 1.363 . S
C1133 H1104 0.950 1_556 S
C1133 C1132 1.397 . S
C1133 C1134 1.334 1_556 S
C1134 H1105 0.950 . S
C1134 C1133 1.334 1_554 S
C1134 C1135 1.287 1_554 S
C1135 C1134 1.287 1_556 S
C1135 C1136 1.524 . S
C1135 H1138 0.999 1_556 S
C1136 H1106 0.950 . S
C1136 C1135 1.524 . S
C1136 C1137 1.415 . S
C1137 H1107 0.950 . S
C1137 C1132 1.363 . S
C1137 C1136 1.415 . S
H1138 C1135 0.999 1_554 S
H1139 C1120 0.913 . S
C259 C209 1.599 . S
C274 C6 1.570 . S
C309 C9 1.599 . S
C324 C46 1.570 . S
C359 C49 1.600 . S
C374 C86 1.571 . S
C409 C89 1.599 . S
C424 C126 1.570 . S
C459 C166 1.570 . S
C474 C129 1.600 . S
C509 C206 1.571 . S
C524 C169 1.600 . S
C559 C10 2.125 . S
C574 C19 2.125 . S
C609 C50 2.124 . S
C624 C59 2.124 . S
C659 C90 2.124 . S
C674 C99 2.124 . S
C709 C130 2.125 . S
C724 C139 2.125 . S
C759 C179 2.125 . S
C774 C170 2.125 . S
C809 C210 2.124 . S
C824 C219 2.124 . S
C859 C15 1.507 . S
C874 C178 1.481 . S
C909 C55 1.507 . S
C924 C218 1.481 . S
C959 C18 1.481 . S
C974 C95 1.506 . S
C1009 C58 1.481 . S
C1024 C135 1.508 . S
C1059 C175 1.507 . S
C1074 C98 1.480 . S
C1109 C138 1.482 . S
C1124 C215 1.506 . S
