# Generated by pormake.
# Topology vma, (5)-cn, num edge types: 1
# Building blocks:
#     Node 0, Type 0, BuildingBlock: XOMCOT_clean_sbu_0, # of connection points: 5
#     Node 1, Type 0, BuildingBlock: XOMCOT_clean_sbu_0, # of connection points: 5
#     Node 2, Type 0, BuildingBlock: XOMCOT_clean_sbu_0, # of connection points: 5
#     Node 3, Type 0, BuildingBlock: XOMCOT_clean_sbu_0, # of connection points: 5
#     Node 4, Type 0, BuildingBlock: XOMCOT_clean_sbu_0, # of connection points: 5
#     Node 5, Type 0, BuildingBlock: XOMCOT_clean_sbu_0, # of connection points: 5
#     Node 6, Type 0, BuildingBlock: XOMCOT_clean_sbu_0, # of connection points: 5
#     Node 7, Type 0, BuildingBlock: XOMCOT_clean_sbu_0, # of connection points: 5
#     Edge 8, Type (0, 0), BuildingBlock: ZUJKAS_clean_linker_0, # of connection points: 2
#     Edge 9, Type (0, 0), BuildingBlock: ZUJKAS_clean_linker_0, # of connection points: 2
#     Edge 10, Type (0, 0), BuildingBlock: ZUJKAS_clean_linker_0, # of connection points: 2
#     Edge 11, Type (0, 0), BuildingBlock: ZUJKAS_clean_linker_0, # of connection points: 2
#     Edge 12, Type (0, 0), BuildingBlock: ZUJKAS_clean_linker_0, # of connection points: 2
#     Edge 13, Type (0, 0), BuildingBlock: ZUJKAS_clean_linker_0, # of connection points: 2
#     Edge 14, Type (0, 0), BuildingBlock: ZUJKAS_clean_linker_0, # of connection points: 2
#     Edge 15, Type (0, 0), BuildingBlock: ZUJKAS_clean_linker_0, # of connection points: 2
#     Edge 16, Type (0, 0), BuildingBlock: ZUJKAS_clean_linker_0, # of connection points: 2
#     Edge 17, Type (0, 0), BuildingBlock: ZUJKAS_clean_linker_0, # of connection points: 2
#     Edge 18, Type (0, 0), BuildingBlock: ZUJKAS_clean_linker_0, # of connection points: 2
#     Edge 19, Type (0, 0), BuildingBlock: ZUJKAS_clean_linker_0, # of connection points: 2
#     Edge 20, Type (0, 0), BuildingBlock: ZUJKAS_clean_linker_0, # of connection points: 2
#     Edge 21, Type (0, 0), BuildingBlock: ZUJKAS_clean_linker_0, # of connection points: 2
#     Edge 22, Type (0, 0), BuildingBlock: ZUJKAS_clean_linker_0, # of connection points: 2
#     Edge 23, Type (0, 0), BuildingBlock: ZUJKAS_clean_linker_0, # of connection points: 2
#     Edge 24, Type (0, 0), BuildingBlock: ZUJKAS_clean_linker_0, # of connection points: 2
#     Edge 25, Type (0, 0), BuildingBlock: ZUJKAS_clean_linker_0, # of connection points: 2
#     Edge 26, Type (0, 0), BuildingBlock: ZUJKAS_clean_linker_0, # of connection points: 2
#     Edge 27, Type (0, 0), BuildingBlock: ZUJKAS_clean_linker_0, # of connection points: 2
# Relax obj value: 0.102
# Max RMSD: 0.195
# Mean RMSD: 0.195
data_MOF--net-vma--node1-XOMCOT_clean_sbu_0--edge1-ZUJKAS_clean_linker_0
_symmetry_space_group_name_H-M    P1
_symmetry_Int_Tables_number       1
_symmetry_cell_setting            triclinic
loop_
_symmetry_equiv_pos_as_xyz
'x, y, z'
_cell_length_a     55.85151
_cell_length_b     32.74013
_cell_length_c     48.539979
_cell_angle_alpha  90.056209
_cell_angle_beta   108.45063
_cell_angle_gamma 89.923346
loop_
_atom_site_label
_atom_site_type_symbol
_atom_site_fract_x
_atom_site_fract_y
_atom_site_fract_z
_atom_type_partial_charge
Co0 Co 0.36263 0.12393 0.3711 0.0
C1 C 0.39947 0.10813 0.33834 0.0
C2 C 0.38073 0.16592 0.32767 0.0
C3 C 0.39856 0.1631 0.31383 0.0
N4 N 0.38111 0.13157 0.34322 0.0
N5 N 0.41052 0.12704 0.32067 0.0
H6 H 0.4056 0.07894 0.3486 0.0
H7 H 0.36888 0.19223 0.32673 0.0
C8 C 0.32351 0.1895 0.35211 0.0
O9 O 0.30642 0.16174 0.35172 0.0
N10 N 0.345 0.11813 0.40018 0.0
C11 C 0.34257 0.08438 0.41511 0.0
C12 C 0.33019 0.09439 0.43464 0.0
C13 C 0.33558 0.1486 0.41272 0.0
N14 N 0.32557 0.13487 0.43296 0.0
C15 C 0.3285 0.05894 0.3465 0.0
C16 C 0.30749 0.09126 0.29158 0.0
C17 C 0.29963 0.05267 0.29778 0.0
C18 C 0.31042 0.03665 0.32564 0.0
C19 C 0.32545 0.11307 0.31348 0.0
N20 N 0.33532 0.09724 0.34088 0.0
H21 H 0.3378 0.04421 0.36677 0.0
H22 H 0.33146 0.14254 0.30823 0.0
H23 H 0.35021 0.0546 0.41322 0.0
H24 H 0.33639 0.1805 0.40761 0.0
O25 O 0.38176 0.07567 0.38569 0.0
O26 O 0.39316 0.138 0.40258 0.0
O27 O 0.34694 0.1799 0.36048 0.0
C28 C 0.39797 0.09883 0.40406 0.0
H29 H 0.40285 0.18635 0.30026 0.0
H30 H 0.32566 0.07353 0.44954 0.0
H31 H 0.29995 0.10431 0.27006 0.0
H32 H 0.30576 1.00617 0.33096 0.0
Co33 Co 0.65255 0.13336 0.14745 0.0
C34 C 0.61506 0.11747 0.1799 0.0
C35 C 0.61968 0.18071 0.17175 0.0
C36 C 0.60084 0.17739 0.18407 0.0
N37 N 0.62938 0.14339 0.16979 0.0
N38 N 0.59787 0.13767 0.1892 0.0
H39 H 0.61546 0.08462 0.17833 0.0
H40 H 0.62484 0.20861 0.1632 0.0
C41 C 0.67609 0.2045 0.18373 0.0
O42 O 0.67515 0.18276 0.20611 0.0
N43 N 0.67454 0.1255 0.12395 0.0
C44 C 0.68426 0.09021 0.11793 0.0
C45 C 0.69908 0.09868 0.10063 0.0
C46 C 0.68343 0.15484 0.11022 0.0
N47 N 0.69861 0.13938 0.0959 0.0
C48 C 0.67215 0.07501 0.19312 0.0
C49 C 0.72224 0.09749 0.20707 0.0
C50 C 0.71594 0.06313 0.22055 0.0
C51 C 0.69048 0.05241 0.21363 0.0
C52 C 0.70318 0.11976 0.18693 0.0
N53 N 0.67836 0.10868 0.18032 0.0
H54 H 0.65324 0.06346 0.18617 0.0
H55 H 0.70851 0.14495 0.17574 0.0
H56 H 0.68105 0.06051 0.12585 0.0
H57 H 0.6787 0.18685 0.11051 0.0
O58 O 0.63486 0.08412 0.13201 0.0
O59 O 0.62476 0.1454 0.11236 0.0
O60 O 0.66735 0.1899 0.15803 0.0
C61 C 0.62005 0.10625 0.11147 0.0
H62 H 0.58964 0.20228 0.18816 0.0
H63 H 0.7098 0.07665 0.09271 0.0
H64 H 0.74176 0.10642 0.21146 0.0
H65 H 0.68485 0.02514 0.2226 0.0
Co66 Co 0.6541 0.88228 0.63045 0.0
C67 C 0.62203 0.90197 0.66798 0.0
C68 C 0.63156 0.83833 0.66872 0.0
C69 C 0.61656 0.84402 0.68596 0.0
N70 N 0.63528 0.87458 0.65759 0.0
N71 N 0.61049 0.88392 0.68552 0.0
H72 H 0.62069 0.93416 0.66268 0.0
H73 H 0.63857 0.80924 0.6641 0.0
C74 C 0.69411 0.81774 0.64775 0.0
O75 O 0.71045 0.84567 0.64599 0.0
N76 N 0.67239 0.88815 0.60228 0.0
C77 C 0.68101 0.92201 0.59266 0.0
C78 C 0.69253 0.91091 0.57252 0.0
C79 C 0.67781 0.85728 0.5866 0.0
N80 N 0.69075 0.87006 0.56889 0.0
C81 C 0.68288 0.95178 0.65709 0.0
C82 C 0.71081 0.91593 0.7087 0.0
C83 C 0.71501 0.95725 0.70392 0.0
C84 C 0.70026 0.97512 0.67791 0.0
C85 C 0.69292 0.89351 0.68706 0.0
N86 N 0.68023 0.91096 0.66086 0.0
H87 H 0.67089 0.96743 0.63833 0.0
H88 H 0.68909 0.86237 0.69165 0.0
H89 H 0.67889 0.95294 0.59901 0.0
H90 H 0.67235 0.8259 0.58815 0.0
O91 O 0.63394 0.92902 0.61437 0.0
O92 O 0.62429 0.86588 0.59857 0.0
O93 O 0.67082 0.82719 0.64221 0.0
C94 C 0.61854 0.90469 0.5962 0.0
H95 H 0.60981 0.82024 0.69711 0.0
H96 H 0.70186 0.93147 0.56178 0.0
H97 H 0.72112 0.90109 0.72891 0.0
H98 H 0.70149 0.00746 0.67388 0.0
Co99 Co 0.37527 0.88867 0.86579 0.0
C100 C 0.40859 0.90676 0.82937 0.0
C101 C 0.40326 0.84262 0.8347 0.0
C102 C 0.42066 0.84713 0.82038 0.0
N103 N 0.39557 0.87983 0.84038 0.0
N104 N 0.42414 0.88731 0.81713 0.0
H105 H 0.40792 0.93955 0.83187 0.0
H106 H 0.39778 0.81398 0.84197 0.0
C107 C 0.33528 0.82552 0.84359 0.0
O108 O 0.3186 0.85439 0.84242 0.0
N109 N 0.35583 0.8953 0.89295 0.0
C110 C 0.35352 0.92885 0.90819 0.0
C111 C 0.34046 0.9189 0.92704 0.0
C112 C 0.34563 0.86494 0.90462 0.0
N113 N 0.33535 0.87861 0.92466 0.0
C114 C 0.34169 0.95398 0.83976 0.0
C115 C 0.32428 0.92266 0.78408 0.0
C116 C 0.31485 0.96015 0.7901 0.0
C117 C 0.32389 0.97581 0.81826 0.0
C118 C 0.34179 0.90114 0.80662 0.0
N119 N 0.34968 0.91635 0.83435 0.0
H120 H 0.34964 0.96834 0.86047 0.0
H121 H 0.34907 0.87233 0.80178 0.0
H122 H 0.36187 0.9583 0.90714 0.0
H123 H 0.3463 0.8331 0.89924 0.0
O124 O 0.39493 0.93591 0.88172 0.0
O125 O 0.40426 0.87306 0.89872 0.0
O126 O 0.35888 0.83359 0.85337 0.0
C127 C 0.41006 0.91186 0.90056 0.0
H128 H 0.4308 0.82271 0.81385 0.0
H129 H 0.33603 0.93953 0.94217 0.0
H130 H 0.31817 0.91017 0.7623 0.0
H131 H 0.31792 1.00558 0.8234 0.0
Co132 Co 0.87439 0.63128 0.36567 0.0
C133 C 0.90926 0.61908 0.32885 0.0
C134 C 0.91508 0.67453 0.35366 0.0
C135 C 0.93157 0.674 0.33792 0.0
N136 N 0.90063 0.64064 0.3477 0.0
N137 N 0.92793 0.63925 0.32234 0.0
H138 H 0.90221 0.58982 0.31968 0.0
H139 H 0.91347 0.69846 0.36835 0.0
C140 C 0.85849 0.70638 0.33009 0.0
O141 O 0.8641 0.687 0.30921 0.0
N142 N 0.84904 0.62422 0.3847 0.0
C143 C 0.83689 0.58978 0.38756 0.0
C144 C 0.82054 0.59884 0.40294 0.0
C145 C 0.84005 0.6536 0.39833 0.0
N146 N 0.82251 0.63904 0.4096 0.0
C147 C 0.85669 0.56966 0.32255 0.0
C148 C 0.80945 0.6022 0.29556 0.0
C149 C 0.81505 0.56312 0.28723 0.0
C150 C 0.83921 0.54724 0.30106 0.0
C151 C 0.8275 0.62348 0.31762 0.0
N152 N 0.85107 0.60758 0.33045 0.0
H153 H 0.87434 0.55512 0.33405 0.0
H154 H 0.82191 0.65173 0.32532 0.0
H155 H 0.83967 0.56027 0.37899 0.0
H156 H 0.84655 0.6849 0.40035 0.0
O157 O 0.89061 0.58151 0.38275 0.0
O158 O 0.89948 0.6423 0.40333 0.0
O159 O 0.86125 0.68848 0.35431 0.0
C160 C 0.904 0.6031 0.40454 0.0
H161 H 0.94544 0.69717 0.33814 0.0
H162 H 0.80793 0.57756 0.40839 0.0
H163 H 0.79103 0.61581 0.28588 0.0
H164 H 0.84431 0.51657 0.29669 0.0
Co165 Co 0.15678 0.62497 0.12854 0.0
C166 C 0.12241 0.60509 0.16355 0.0
C167 C 0.14259 0.66109 0.17717 0.0
C168 C 0.12748 0.65445 0.19415 0.0
N169 N 0.13988 0.6299 0.15814 0.0
N170 N 0.11477 0.61947 0.18553 0.0
H171 H 0.11528 0.5773 0.15175 0.0
H172 H 0.15464 0.68735 0.17889 0.0
C173 C 0.19514 0.69174 0.1468 0.0
O174 O 0.21236 0.66498 0.14561 0.0
N175 N 0.17291 0.62151 0.09799 0.0
C176 C 0.17552 0.58842 0.08249 0.0
C177 C 0.18702 0.5998 0.06244 0.0
C178 C 0.18132 0.65294 0.08535 0.0
N179 N 0.19093 0.64045 0.06444 0.0
C180 C 0.19127 0.55933 0.15064 0.0
C181 C 0.21436 0.59028 0.20557 0.0
C182 C 0.22099 0.55116 0.19876 0.0
C183 C 0.20933 0.53598 0.1708 0.0
C184 C 0.1964 0.6131 0.18442 0.0
N185 N 0.18524 0.59781 0.15705 0.0
H186 H 0.18117 0.54513 0.13041 0.0
H187 H 0.19132 0.64279 0.1904 0.0
H188 H 0.16864 0.55813 0.08444 0.0
H189 H 0.18023 0.68457 0.09102 0.0
O190 O 0.13774 0.57671 0.11366 0.0
O191 O 0.12524 0.6394 0.09868 0.0
O192 O 0.17192 0.68117 0.13966 0.0
C193 C 0.12071 0.60016 0.09661 0.0
H194 H 0.12537 0.67442 0.21104 0.0
H195 H 0.19154 0.5797 0.04708 0.0
H196 H 0.22269 0.60286 0.22714 0.0
H197 H 0.21308 0.50523 0.16497 0.0
Co198 Co 0.15166 0.38442 0.64345 0.0
C199 C 0.11857 0.40113 0.68051 0.0
C200 C 0.14169 0.34808 0.69465 0.0
C201 C 0.12675 0.35287 0.71209 0.0
N202 N 0.13688 0.37851 0.67486 0.0
N203 N 0.11212 0.38607 0.70317 0.0
H204 H 0.10982 0.42773 0.6682 0.0
H205 H 0.15485 0.32334 0.69632 0.0
C206 C 0.19236 0.32117 0.65844 0.0
O207 O 0.20773 0.34968 0.65501 0.0
N208 N 0.16563 0.38894 0.61108 0.0
C209 C 0.16772 0.42248 0.5958 0.0
C210 C 0.17832 0.41171 0.57478 0.0
C211 C 0.17324 0.35788 0.59727 0.0
N212 N 0.18214 0.37101 0.57596 0.0
C213 C 0.18417 0.45309 0.66305 0.0
C214 C 0.21313 0.42211 0.71601 0.0
C215 C 0.21821 0.4614 0.70795 0.0
C216 C 0.20337 0.47684 0.68118 0.0
C217 C 0.19394 0.39884 0.69676 0.0
N218 N 0.18017 0.41392 0.6701 0.0
H219 H 0.17189 0.46722 0.64386 0.0
H220 H 0.19027 0.36879 0.70349 0.0
H221 H 0.16118 0.45271 0.5986 0.0
H222 H 0.17239 0.3261 0.60271 0.0
O223 O 0.13068 0.43098 0.62904 0.0
O224 O 0.11972 0.36732 0.61535 0.0
O225 O 0.16906 0.32951 0.65427 0.0
C226 C 0.11395 0.40614 0.61304 0.0
H227 H 0.12597 0.3324 0.72928 0.0
H228 H 0.18247 0.43235 0.5595 0.0
H229 H 0.22387 0.40953 0.7369 0.0
H230 H 0.20592 0.50781 0.67476 0.0
Co231 Co 0.86466 0.38096 0.87081 0.0
C232 C 0.89891 0.3996 0.83533 0.0
C233 C 0.879 0.34312 0.82286 0.0
C234 C 0.8941 0.34902 0.80577 0.0
N235 N 0.88157 0.37504 0.84126 0.0
N236 N 0.90668 0.38433 0.81364 0.0
H237 H 0.90585 0.42786 0.84657 0.0
H238 H 0.86708 0.31683 0.82168 0.0
C239 C 0.82563 0.31532 0.85233 0.0
O240 O 0.80851 0.34287 0.85239 0.0
N241 N 0.84848 0.38512 0.90131 0.0
C242 C 0.84631 0.41823 0.91701 0.0
C243 C 0.83515 0.40701 0.93741 0.0
C244 C 0.84004 0.35383 0.91407 0.0
N245 N 0.831 0.3664 0.93546 0.0
C246 C 0.83074 0.44728 0.84878 0.0
C247 C 0.80787 0.41743 0.79348 0.0
C248 C 0.80143 0.45659 0.80053 0.0
C249 C 0.81303 0.4712 0.82866 0.0
C250 C 0.82552 0.39401 0.81462 0.0
N251 N 0.83652 0.40875 0.84218 0.0
H252 H 0.8408 0.46111 0.86915 0.0
H253 H 0.83046 0.36429 0.80853 0.0
H254 H 0.85332 0.44841 0.91502 0.0
H255 H 0.84148 0.3221 0.9088 0.0
O256 O 0.88412 0.42886 0.88554 0.0
O257 O 0.89605 0.36606 0.90076 0.0
O258 O 0.84901 0.32503 0.86002 0.0
C259 C 0.90092 0.40519 0.90269 0.0
H260 H 0.8963 0.32825 0.78936 0.0
H261 H 0.83065 0.42743 0.95261 0.0
H262 H 0.79961 0.40523 0.77179 0.0
H263 H 0.80947 0.50194 0.83471 0.0
H264 H 0.17907 0.2888 0.56583 0.0
H265 H 0.2037 0.24846 0.54197 0.0
H266 H 0.23911 0.35822 0.52494 0.0
H267 H 0.21527 0.39865 0.54949 0.0
H268 H 0.20635 0.25248 0.48519 0.0
H269 H 0.29957 0.28582 0.56609 0.0
H270 H 0.27019 0.29616 0.57291 0.0
H271 H 0.28152 0.33047 0.55093 0.0
C272 C 0.19217 0.30448 0.55722 0.0
C273 C 0.19517 0.34719 0.55988 0.0
C274 C 0.20618 0.2813 0.54341 0.0
C275 C 0.22362 0.30018 0.53212 0.0
C276 C 0.22615 0.34282 0.53398 0.0
H277 H 0.32812 0.21693 0.44366 0.0
H278 H 0.30293 0.25636 0.46723 0.0
C279 C 0.21218 0.36602 0.54775 0.0
C280 C 0.23909 0.27539 0.51829 0.0
H281 H 0.29993 0.25143 0.52316 0.0
C282 C 0.2268 0.25206 0.49358 0.0
C283 C 0.26581 0.27489 0.5292 0.0
C284 C 0.2801 0.29785 0.55639 0.0
C285 C 0.24047 0.22899 0.47914 0.0
C286 C 0.2672 0.22855 0.49002 0.0
C287 C 0.27948 0.2518 0.51478 0.0
C288 C 0.28275 0.20421 0.47601 0.0
C289 C 0.22617 0.20614 0.4519 0.0
C290 C 0.28021 0.16159 0.47355 0.0
C291 C 0.29449 0.13889 0.45988 0.0
C292 C 0.31183 0.15821 0.44848 0.0
C293 C 0.31475 0.20088 0.45165 0.0
C294 C 0.30043 0.22355 0.46533 0.0
H295 H 0.20671 0.21824 0.44221 0.0
H296 H 0.23609 0.20788 0.43539 0.0
H297 H 0.2247 0.17351 0.4573 0.0
H298 H 0.26709 0.14581 0.48215 0.0
H299 H 0.29149 0.10626 0.45774 0.0
H300 H 0.71255 0.11187 0.05039 0.0
H301 H 0.7359 0.14942 0.02345 0.0
H302 H 0.73834 0.25521 0.07717 0.0
H303 H 0.71527 0.21777 0.10441 0.0
H304 H 0.72187 0.22687 0.99259 0.0
H305 H 0.81334 0.23504 0.08164 0.0
H306 H 0.78901 0.19878 0.08169 0.0
H307 H 0.78606 0.25128 0.09086 0.0
C308 C 0.71821 0.14301 0.05664 0.0
C309 C 0.71206 0.1617 0.07966 0.0
C310 C 0.73145 0.16451 0.04111 0.0
C311 C 0.73912 0.20498 0.04849 0.0
C312 C 0.73289 0.22385 0.07131 0.0
H313 H 0.82404 0.38575 0.98714 0.0
H314 H 0.80142 0.3462 0.0135 0.0
C315 C 0.71948 0.2025 0.08669 0.0
C316 C 0.75331 0.22766 0.03205 0.0
H317 H 0.81017 0.27251 0.03899 0.0
C318 C 0.74122 0.23671 0.00265 0.0
C319 C 0.77851 0.24063 0.04526 0.0
C320 C 0.79266 0.23076 0.07654 0.0
C321 C 0.75342 0.25915 0.98627 0.0
C322 C 0.77873 0.27198 0.99942 0.0
C323 C 0.79083 0.26271 0.02883 0.0
C324 C 0.79284 0.29564 0.98324 0.0
C325 C 0.73875 0.26999 0.9553 0.0
C326 C 0.79607 0.28026 0.95761 0.0
C327 C 0.80877 0.30313 0.94216 0.0
C328 C 0.8189 0.34183 0.95216 0.0
C329 C 0.81624 0.35655 0.97833 0.0
C330 C 0.8034 0.33376 0.99364 0.0
H331 H 0.71806 0.26852 0.95134 0.0
H332 H 0.74358 0.30113 0.94972 0.0
H333 H 0.74343 0.24787 0.94044 0.0
H334 H 0.7887 0.25051 0.94944 0.0
H335 H 0.81018 0.29065 0.9221 0.0
H336 H 0.70362 0.89387 0.52175 0.0
H337 H 0.72503 0.85318 0.49435 0.0
H338 H 0.72501 0.74915 0.54867 0.0
H339 H 0.70394 0.78973 0.57651 0.0
H340 H 0.77254 0.81385 0.51667 0.0
H341 H 0.69641 0.70249 0.46575 0.0
H342 H 0.69054 0.74997 0.48149 0.0
H343 H 0.70435 0.70753 0.50448 0.0
C344 C 0.70813 0.86237 0.52795 0.0
C345 C 0.70192 0.84523 0.55142 0.0
C346 C 0.72031 0.83906 0.51214 0.0
C347 C 0.7264 0.79796 0.51921 0.0
C348 C 0.72005 0.78056 0.5424 0.0
H349 H 0.80337 0.61029 0.45078 0.0
H350 H 0.78045 0.64905 0.47763 0.0
C351 C 0.70792 0.80387 0.5583 0.0
C352 C 0.74035 0.77394 0.50308 0.0
H353 H 0.73621 0.69026 0.45962 0.0
C354 C 0.76456 0.78691 0.50409 0.0
C355 C 0.73002 0.73862 0.48685 0.0
C356 C 0.70382 0.72388 0.48428 0.0
C357 C 0.77887 0.76528 0.48969 0.0
C358 C 0.76844 0.73019 0.47313 0.0
C359 C 0.74423 0.71713 0.47223 0.0
C360 C 0.7823 0.70666 0.45657 0.0
C361 C 0.8053 0.77969 0.49305 0.0
C362 C 0.79069 0.72583 0.43541 0.0
C363 C 0.80391 0.70375 0.42013 0.0
C364 C 0.80875 0.66178 0.42532 0.0
C365 C 0.79987 0.64245 0.44609 0.0
C366 C 0.7868 0.66464 0.46153 0.0
H367 H 0.81305 0.79866 0.51287 0.0
H368 H 0.81825 0.75353 0.49418 0.0
H369 H 0.80496 0.79878 0.47405 0.0
H370 H 0.78684 0.7579 0.4305 0.0
H371 H 0.80999 0.71945 0.40389 0.0
H372 H 0.30101 0.90695 0.94918 0.0
H373 H 0.27682 0.86717 0.97374 0.0
H374 H 0.31295 0.75691 0.95846 0.0
H375 H 0.33785 0.79646 0.93482 0.0
H376 H 0.24287 0.80475 0.95155 0.0
H377 H 0.32208 0.74863 0.04478 0.0
H378 H 0.3257 0.78978 0.0217 0.0
H379 H 0.3257 0.73759 0.01008 0.0
C380 C 0.30421 0.87436 0.95145 0.0
C381 C 0.32159 0.85515 0.94002 0.0
C382 C 0.29017 0.85157 0.96534 0.0
C383 C 0.29326 0.80908 0.96831 0.0
C384 C 0.31054 0.78975 0.95693 0.0
H385 H 0.22499 0.6143 0.0388 0.0
H386 H 0.24852 0.65579 0.01451 0.0
C387 C 0.3246 0.81248 0.94306 0.0
C388 C 0.27784 0.78485 0.98247 0.0
H389 H 0.28196 0.71844 0.03809 0.0
C390 C 0.25141 0.78607 0.97058 0.0
C391 C 0.28896 0.76042 0.0073 0.0
C392 C 0.31715 0.75922 0.02192 0.0
C393 C 0.23585 0.76285 0.98241 0.0
C394 C 0.24699 0.73823 0.00712 0.0
C395 C 0.27341 0.73719 0.0191 0.0
C396 C 0.23165 0.71306 0.02084 0.0
C397 C 0.20765 0.76408 0.96785 0.0
C398 C 0.21425 0.73135 0.03256 0.0
C399 C 0.20053 0.70758 0.0463 0.0
C400 C 0.20399 0.66494 0.04883 0.0
C401 C 0.2214 0.64681 0.03692 0.0
C402 C 0.23509 0.67059 0.02319 0.0
H403 H 0.20264 0.77556 0.9452 0.0
H404 H 0.19921 0.73332 0.96753 0.0
H405 H 0.19907 0.78494 0.98014 0.0
H406 H 0.21157 0.76414 0.03149 0.0
H407 H 0.18726 0.72277 0.05496 0.0
H408 H 0.60277 0.07302 0.22557 0.0
H409 H 0.57224 0.05115 0.2498 0.0
H410 H 0.52039 0.14432 0.20363 0.0
H411 H 0.55046 0.16571 0.17944 0.0
H412 H 0.55426 0.1007 0.28596 0.0
H413 H 0.47436 0.04512 0.19419 0.0
H414 H 0.50583 0.05076 0.19181 0.0
H415 H 0.48507 0.09421 0.18664 0.0
C416 C 0.5846 0.08808 0.22019 0.0
C417 C 0.57905 0.12118 0.20074 0.0
C418 C 0.56724 0.07574 0.2341 0.0
C419 C 0.54386 0.09576 0.22829 0.0
C420 C 0.53804 0.12784 0.2081 0.0
H421 H 0.44871 0.17517 0.31814 0.0
H422 H 0.48284 0.15764 0.29905 0.0
C423 C 0.55538 0.14036 0.1945 0.0
C424 C 0.52633 0.08635 0.24503 0.0
H425 H 0.4639 0.06997 0.23614 0.0
C426 C 0.53464 0.09298 0.27516 0.0
C427 C 0.50077 0.07568 0.23114 0.0
C428 C 0.49104 0.06561 0.1992 0.0
C429 C 0.51769 0.09248 0.29128 0.0
C430 C 0.4917 0.0856 0.27686 0.0
C431 C 0.48376 0.07567 0.2472 0.0
C432 C 0.47221 0.09413 0.29112 0.0
C433 C 0.52762 0.10081 0.32347 0.0
C434 C 0.45466 0.0643 0.29299 0.0
C435 C 0.43496 0.07439 0.30403 0.0
C436 C 0.43225 0.11464 0.31271 0.0
C437 C 0.4502 0.144 0.31139 0.0
C438 C 0.46989 0.13389 0.30073 0.0
H439 H 0.54774 0.09158 0.33268 0.0
H440 H 0.52644 0.13406 0.3273 0.0
H441 H 0.51643 0.08442 0.33526 0.0
H442 H 0.45596 0.03348 0.28544 0.0
H443 H 0.42127 0.05132 0.30464 0.0
H444 H 0.60615 0.86164 0.7371 0.0
H445 H 0.57362 0.88274 0.75784 0.0
H446 H 0.54385 0.96725 0.68711 0.0
H447 H 0.57637 0.9453 0.66578 0.0
H448 H 0.56006 0.95771 0.77598 0.0
H449 H 0.48282 0.89458 0.68257 0.0
H450 H 0.5156 0.8833 0.68785 0.0
H451 H 0.50293 0.93254 0.67464 0.0
C452 C 0.59278 0.88489 0.72601 0.0
C453 C 0.59363 0.90139 0.6996 0.0
C454 C 0.57425 0.89711 0.73797 0.0
C455 C 0.55597 0.92607 0.72382 0.0
C456 C 0.55748 0.94432 0.69818 0.0
H457 H 0.41899 0.94932 0.77855 0.0
H458 H 0.45041 0.9703 0.75512 0.0
C459 C 0.57621 0.93211 0.68617 0.0
C460 C 0.53488 0.93483 0.7356 0.0
H461 H 0.47227 0.91493 0.7235 0.0
C462 C 0.54076 0.94913 0.76427 0.0
C463 C 0.50962 0.9238 0.72033 0.0
C464 C 0.50221 0.90746 0.6897 0.0
C465 C 0.52246 0.95063 0.77855 0.0
C466 C 0.49765 0.937 0.76395 0.0
C467 C 0.4913 0.92539 0.73466 0.0
C468 C 0.47933 0.92854 0.77982 0.0
C469 C 0.53007 0.96539 0.80956 0.0
C470 C 0.48518 0.89843 0.80148 0.0
C471 C 0.46736 0.88638 0.81449 0.0
C472 C 0.44323 0.9042 0.80629 0.0
C473 C 0.43756 0.93549 0.78541 0.0
C474 C 0.45541 0.94726 0.77199 0.0
H475 H 0.54631 0.98676 0.81431 0.0
H476 H 0.51413 0.98093 0.81432 0.0
H477 H 0.53592 0.93883 0.82437 0.0
H478 H 0.50328 0.883 0.80755 0.0
H479 H 0.4722 0.86226 0.83056 0.0
H480 H 0.12045 0.60092 0.24091 0.0
H481 H 0.08668 0.58925 0.26211 0.0
H482 H 0.0316 0.5966 0.1767 0.0
H483 H 0.06578 0.60613 0.15553 0.0
H484 H 0.05404 0.64414 0.26211 0.0
H485 H 1.00034 0.50772 0.20987 0.0
H486 H 0.03109 0.51966 0.20726 0.0
H487 H 1.0033 0.54426 0.18365 0.0
C488 C 0.10117 0.59841 0.22669 0.0
C489 C 0.09561 0.60396 0.19667 0.0
C490 C 0.08185 0.592 0.23874 0.0
C491 C 0.05644 0.59184 0.2211 0.0
C492 C 0.05096 0.59551 0.19081 0.0
H493 H 0.93931 0.68705 0.28338 0.0
H494 H 0.96876 0.67156 0.25672 0.0
C495 C 0.07045 0.60107 0.17868 0.0
C496 C 0.03603 0.59369 0.23485 0.0
H497 H 0.97934 0.55299 0.23402 0.0
C498 C 0.03791 0.62377 0.25611 0.0
C499 C 0.01492 0.56711 0.22732 0.0
C500 C 0.01239 0.53261 0.206 0.0
C501 C 0.01929 0.62852 0.2696 0.0
C502 C 0.99754 0.60346 0.26099 0.0
C503 C 0.99582 0.57261 0.24029 0.0
C504 C 0.97644 0.60985 0.27311 0.0
C505 C 0.02328 0.66028 0.29321 0.0
C506 C 0.96965 0.57944 0.2897 0.0
C507 C 0.95236 0.58812 0.30458 0.0
C508 C 0.94185 0.62739 0.3032 0.0
C509 C 0.94745 0.65676 0.28509 0.0
C510 C 0.96433 0.64796 0.26996 0.0
H511 H 0.04359 0.66791 0.30309 0.0
H512 H 0.0132 0.68873 0.28375 0.0
H513 H 0.01587 0.64971 0.31068 0.0
H514 H 0.97864 0.54973 0.29229 0.0
H515 H 0.94836 0.56506 0.31848 0.0
H516 H 0.11202 0.38231 0.75871 0.0
H517 H 0.07614 0.39457 0.77638 0.0
H518 H 0.0307 0.43063 0.69036 0.0
H519 H 0.06668 0.4184 0.67247 0.0
H520 H 0.03835 0.47328 0.76565 0.0
H521 H 0.99995 0.32136 0.7211 0.0
H522 H 0.03329 0.33242 0.73133 0.0
H523 H 0.01203 0.35507 0.69929 0.0
C524 C 0.09449 0.39338 0.74363 0.0
C525 C 0.09213 0.3991 0.71415 0.0
C526 C 0.07407 0.4006 0.7538 0.0
C527 C 0.05079 0.4134 0.73468 0.0
C528 C 0.04858 0.42089 0.70548 0.0
H529 H 0.90353 0.38868 0.75739 0.0
H530 H 0.93791 0.40265 0.73764 0.0
C531 C 0.06914 0.41404 0.69531 0.0
C532 C 0.02834 0.41494 0.74481 0.0
H533 H 0.97786 0.35788 0.74679 0.0
C534 C 0.02495 0.44828 0.7614 0.0
C535 C 1.011 0.38225 0.73926 0.0
C536 C 0.01409 0.34553 0.72186 0.0
C537 C 1.00446 0.44986 0.77246 0.0
C538 C 0.98734 0.41663 0.76745 0.0
C539 C 0.99082 0.38346 0.75065 0.0
C540 C 0.96576 0.41487 0.77939 0.0
C541 C 1.00116 0.48741 0.78892 0.0
C542 C 0.96956 0.41827 0.80941 0.0
C543 C 0.94964 0.4111 0.82064 0.0
C544 C 0.92577 0.39949 0.8021 0.0
C545 C 0.92178 0.39758 0.77208 0.0
C546 C 0.94146 0.40543 0.76084 0.0
H547 H 1.01035 0.51448 0.7828 0.0
H548 H 0.9809 0.49444 0.78494 0.0
H549 H 1.01018 0.48212 0.81252 0.0
H550 H 0.98817 0.42444 0.82436 0.0
H551 H 0.95326 0.41208 0.8439 0.0
H552 H 0.24277 0.7235 0.16428 0.0
H553 H 0.25597 0.79119 0.18456 0.0
H554 H 0.17851 0.8232 0.17291 0.0
H555 H 0.16498 0.75539 0.15243 0.0
H556 H 0.21064 0.8869 0.15683 0.0
H557 H 0.25149 0.82074 0.2673 0.0
H558 H 0.26131 0.79684 0.23928 0.0
H559 H 0.22889 0.79366 0.23806 0.0
C560 C 0.22846 0.74496 0.16576 0.0
C561 C 0.20282 0.73385 0.15698 0.0
C562 C 0.23606 0.78364 0.17737 0.0
C563 C 0.21822 0.81196 0.18044 0.0
C564 C 0.19254 0.80168 0.1707 0.0
H565 H 0.25825 0.01283 0.30191 0.0
H566 H 0.23469 0.95868 0.27006 0.0
C567 C 0.18488 0.76288 0.15911 0.0
C568 C 0.22668 0.85119 0.19553 0.0
H569 H 0.25984 0.89042 0.26168 0.0
C570 C 0.22129 0.88786 0.17978 0.0
C571 C 0.24028 0.85222 0.22551 0.0
C572 C 0.24571 0.81386 0.24368 0.0
C573 C 0.22976 0.92561 0.19322 0.0
C574 C 0.24405 0.92644 0.22303 0.0
C575 C 0.24892 0.88976 0.2388 0.0
C576 C 0.25463 0.96461 0.23863 0.0
C577 C 0.22321 0.96425 0.17553 0.0
C578 C 0.27306 0.98694 0.231 0.0
C579 C 0.28647 0.01815 0.24914 0.0
C580 C 0.28182 0.02704 0.27532 0.0
C581 C 0.26227 1.00641 0.28191 0.0
C582 C 0.24882 0.9755 0.26375 0.0
H583 H 0.2069 0.95971 0.15553 0.0
H584 H 0.21872 0.98941 0.18845 0.0
H585 H 0.23965 0.97376 0.16891 0.0
H586 H 0.27818 0.97859 0.21201 0.0
H587 H 0.30165 0.03326 0.24375 0.0
H588 H 0.71752 0.02903 0.27247 0.0
H589 H 0.74609 0.97537 0.29912 0.0
H590 H 0.7862 0.97982 0.23644 0.0
H591 H 0.75805 0.03394 0.21014 0.0
H592 H 0.74952 0.9018 0.27796 0.0
H593 H 0.84431 0.97206 0.31022 0.0
H594 H 0.81575 1.00204 0.29785 0.0
H595 H 0.82834 0.97775 0.27208 0.0
C596 C 0.7328 0.01914 0.26479 0.0
C597 C 0.7356 0.03572 0.23927 0.0
C598 C 0.74911 0.98851 0.28002 0.0
C599 C 0.7685 0.97378 0.27001 0.0
C600 C 0.77187 0.99136 0.24509 0.0
H601 H 0.85561 0.75636 0.28423 0.0
H602 H 0.83486 0.82287 0.27336 0.0
C603 C 0.7557 0.02228 0.23001 0.0
C604 C 0.78327 0.93711 0.28358 0.0
H605 H 0.84309 0.89838 0.30943 0.0
C606 C 0.76999 0.9013 0.28534 0.0
C607 C 0.80999 0.93636 0.29317 0.0
C608 C 0.82541 0.97426 0.29352 0.0
C609 C 0.78263 0.86444 0.29523 0.0
C610 C 0.80926 0.86339 0.30376 0.0
C611 C 0.82263 0.89933 0.30278 0.0
C612 C 0.82337 0.82458 0.3119 0.0
C613 C 0.76739 0.82643 0.29534 0.0
C614 C 0.82413 0.80387 0.33747 0.0
C615 C 0.83605 0.7658 0.34382 0.0
C616 C 0.84729 0.74779 0.32461 0.0
C617 C 0.847 0.76921 0.2994 0.0
C618 C 0.83525 0.80731 0.29319 0.0
H619 H 0.74693 0.8311 0.28397 0.0
H620 H 0.77415 0.80071 0.28481 0.0
H621 H 0.76982 0.81748 0.31811 0.0
H622 H 0.81521 0.81692 0.35228 0.0
H623 H 0.83595 0.75013 0.36343 0.0
H624 H 0.7261 0.95704 0.76359 0.0
H625 H 0.75153 0.00726 0.79801 0.0
H626 H 0.76939 0.06757 0.72796 0.0
H627 H 0.7459 0.01605 0.6942 0.0
H628 H 0.80798 0.07188 0.77411 0.0
H629 H 0.72343 0.11712 0.80402 0.0
H630 H 0.7337 0.06556 0.81321 0.0
H631 H 0.72175 0.08068 0.77568 0.0
C632 C 0.73601 0.98036 0.7557 0.0
C633 C 0.73341 0.98309 0.72596 0.0
C634 C 0.75022 0.00949 0.77534 0.0
C635 C 0.76164 0.04221 0.76546 0.0
C636 C 0.76053 0.04307 0.73618 0.0
H637 H 0.78026 0.29078 0.8158 0.0
H638 H 0.76725 0.22178 0.79857 0.0
C639 C 0.74681 0.01373 0.71677 0.0
C640 C 0.77341 0.07721 0.78457 0.0
H641 H 0.76003 0.15582 0.82369 0.0
C642 C 0.79757 0.09009 0.78516 0.0
C643 C 0.75976 0.10122 0.79882 0.0
C644 C 0.73316 0.09076 0.79777 0.0
C645 C 0.80786 0.12723 0.7981 0.0
C646 C 0.7941 0.1514 0.81212 0.0
C647 C 0.77058 0.13736 0.81294 0.0
C648 C 0.8024 0.19308 0.82353 0.0
C649 C 0.83261 0.14122 0.79492 0.0
C650 C 0.82645 0.2002 0.84356 0.0
C651 C 0.83417 0.23998 0.85286 0.0
C652 C 0.81767 0.27314 0.84303 0.0
C653 C 0.79336 0.26581 0.82383 0.0
C654 C 0.78589 0.2263 0.81401 0.0
H655 H 0.83716 0.12467 0.7772 0.0
H656 H 0.83226 0.17446 0.7903 0.0
H657 H 0.84804 0.13511 0.81542 0.0
H658 H 0.83928 0.17507 0.852 0.0
H659 H 0.85292 0.24474 0.868 0.0
H660 H 0.17093 0.25869 0.68017 0.0
H661 H 0.18923 0.19134 0.69634 0.0
H662 H 0.25339 0.22097 0.66884 0.0
H663 H 0.23575 0.28859 0.65369 0.0
H664 H 0.20369 0.12644 0.66996 0.0
H665 H 0.28716 0.19261 0.75282 0.0
H666 H 0.26004 0.22292 0.73371 0.0
H667 H 0.28361 0.21064 0.71687 0.0
C668 C 0.18893 0.25082 0.67758 0.0
C669 C 0.20214 0.27927 0.66621 0.0
C670 C 0.19933 0.21228 0.68674 0.0
C671 C 0.22298 0.20147 0.68445 0.0
C672 C 0.2355 0.22906 0.67165 0.0
H673 H 0.32153 0.99044 0.74077 0.0
H674 H 0.29683 0.04533 0.71008 0.0
C675 C 0.22533 0.2677 0.66291 0.0
C676 C 0.23504 0.16202 0.69635 0.0
H677 H 0.28821 0.12138 0.74463 0.0
C678 C 0.22216 0.12533 0.68629 0.0
C679 C 0.25907 0.16057 0.71788 0.0
C680 C 0.27317 0.19878 0.73118 0.0
C681 C 0.23284 0.08729 0.69701 0.0
C682 C 0.25696 0.08605 0.71809 0.0
C683 C 0.26986 0.12257 0.72805 0.0
C684 C 0.26861 0.04758 0.73199 0.0
C685 C 0.21841 0.04861 0.68589 0.0
C686 C 0.26051 0.03021 0.75389 0.0
C687 C 0.27467 0.99933 0.77151 0.0
C688 C 0.29701 0.98512 0.76732 0.0
C689 C 0.30417 1.00054 0.74411 0.0
C690 C 0.29016 0.0319 0.7267 0.0
H691 H 0.20146 0.05428 0.66679 0.0
H692 H 0.23079 0.02612 0.67982 0.0
H693 H 0.21225 0.03477 0.7034 0.0
H694 H 0.24412 0.04231 0.75852 0.0
H695 H 0.26892 0.98806 0.78944 0.0
H696 H 0.82157 0.50525 0.24906 0.0
H697 H 0.79188 0.45305 0.22409 0.0
H698 H 0.73345 0.51083 0.25105 0.0
H699 H 0.76383 0.56068 0.27887 0.0
H700 H 0.7328 0.43743 0.26257 0.0
H701 H 0.73735 0.43929 0.15128 0.0
H702 H 0.76881 0.4333 0.17546 0.0
H703 H 0.75134 0.47936 0.17679 0.0
C704 C 0.80242 0.50703 0.24978 0.0
C705 C 0.79544 0.53696 0.26667 0.0
C706 C 0.78519 0.47748 0.23479 0.0
C707 C 0.76016 0.47798 0.23522 0.0
C708 C 0.75262 0.5096 0.2503 0.0
H709 H 0.66563 0.27016 0.14671 0.0
H710 H 0.68262 0.33972 0.15716 0.0
C711 C 0.77006 0.53855 0.26601 0.0
C712 C 0.74313 0.44266 0.22345 0.0
H713 H 0.72671 0.37311 0.16809 0.0
C714 C 0.73108 0.42405 0.24158 0.0
C715 C 0.74014 0.42523 0.19581 0.0
C716 C 0.74989 0.44576 0.17367 0.0
C717 C 0.71756 0.38752 0.23369 0.0
C718 C 0.71709 0.3677 0.20758 0.0
C719 C 0.72765 0.38755 0.18852 0.0
C720 C 0.70697 0.32557 0.2006 0.0
C721 C 0.70399 0.37068 0.25362 0.0
C722 C 0.71549 0.2942 0.2211 0.0
C723 C 0.70544 0.25496 0.21543 0.0
C724 C 0.68724 0.24579 0.18873 0.0
C725 C 0.67958 0.27652 0.16753 0.0
C726 C 0.68927 0.31621 0.1735 0.0
H727 H 0.69791 0.39566 0.26543 0.0
H728 H 0.68711 0.35267 0.2415 0.0
H729 H 0.71705 0.35071 0.27013 0.0
H730 H 0.72992 0.30005 0.24165 0.0
H731 H 0.71208 0.23167 0.23194 0.0
H732 H 0.26015 0.50547 0.19354 0.0
H733 H 0.28201 0.45003 0.22548 0.0
H734 H 0.24155 0.47901 0.28533 0.0
H735 H 0.21971 0.53484 0.2535 0.0
H736 H 0.29407 0.45309 0.31223 0.0
H737 H 0.23769 0.34826 0.22595 0.0
H738 H 0.25615 0.38505 0.21407 0.0
H739 H 0.23066 0.40202 0.22639 0.0
C740 C 0.25633 0.50057 0.21382 0.0
C741 C 0.23804 0.5241 0.22091 0.0
C742 C 0.26879 0.46891 0.232 0.0
C743 C 0.263 0.45999 0.25743 0.0
C744 C 0.24621 0.48539 0.26573 0.0
H745 H 0.27563 0.22036 0.33503 0.0
H746 H 0.26182 0.28805 0.31534 0.0
C747 C 0.23381 0.51733 0.2476 0.0
C748 C 0.27227 0.42166 0.27346 0.0
H749 H 0.26833 0.31803 0.26591 0.0
C750 C 0.28848 0.42351 0.3022 0.0
C751 C 0.26456 0.38317 0.26041 0.0
C752 C 0.24613 0.37928 0.23011 0.0
C753 C 0.29756 0.38767 0.31809 0.0
C754 C 0.29038 0.34921 0.30469 0.0
C755 C 0.27391 0.34754 0.2761 0.0
C756 C 0.29938 0.31001 0.31975 0.0
C757 C 0.31436 0.39125 0.34917 0.0
C758 C 0.32514 0.29997 0.32906 0.0
C759 C 0.33315 0.26121 0.34045 0.0
C760 C 0.31547 0.23166 0.34241 0.0
C761 C 0.28976 0.24225 0.33373 0.0
C762 C 0.28181 0.28098 0.32248 0.0
H763 H 0.31272 0.42177 0.35844 0.0
H764 H 0.30971 0.36746 0.36295 0.0
H765 H 0.3343 0.38691 0.35006 0.0
H766 H 0.33899 0.32159 0.32663 0.0
H767 H 0.3531 0.25411 0.34699 0.0
H768 H 0.25631 0.50082 0.69567 0.0
H769 H 0.28272 0.55559 0.72378 0.0
H770 H 0.24886 0.53907 0.79152 0.0
H771 H 0.22289 0.48338 0.76368 0.0
H772 H 0.26221 0.62439 0.73478 0.0
H773 H 0.32178 0.5585 0.83904 0.0
H774 H 0.30591 0.52727 0.80794 0.0
H775 H 0.28892 0.54668 0.83108 0.0
C776 C 0.25511 0.50811 0.71698 0.0
C777 C 0.23762 0.48801 0.72757 0.0
C778 C 0.27015 0.5394 0.73299 0.0
C779 C 0.26788 0.55142 0.75983 0.0
C780 C 0.25138 0.52982 0.77119 0.0
H781 H 0.28685 0.79724 0.82596 0.0
H782 H 0.27198 0.72951 0.80731 0.0
C783 C 0.23649 0.49809 0.75526 0.0
C784 C 0.28003 0.58984 0.77367 0.0
H785 H 0.31778 0.63158 0.83711 0.0
C786 C 0.27457 0.62578 0.75707 0.0
C787 C 0.29625 0.59172 0.8027 0.0
C788 C 0.30379 0.55391 0.82116 0.0
C789 C 0.28442 0.6636 0.76881 0.0
C790 C 0.29972 0.6658 0.79819 0.0
C791 C 0.30579 0.62981 0.81467 0.0
C792 C 0.30917 0.70552 0.81202 0.0
C793 C 0.27841 0.70089 0.74955 0.0
C794 C 0.33512 0.71403 0.82181 0.0
C795 C 0.34375 0.75281 0.83264 0.0
C796 C 0.32654 0.78364 0.83389 0.0
C797 C 0.30063 0.77442 0.82501 0.0
C798 C 0.29206 0.73571 0.8143 0.0
H799 H 0.2723 0.69254 0.72616 0.0
H800 H 0.26278 0.71808 0.75376 0.0
H801 H 0.29501 0.72145 0.75412 0.0
H802 H 0.34862 0.69104 0.82031 0.0
H803 H 0.36384 0.75883 0.83945 0.0
H804 H 0.74227 0.78817 0.66225 0.0
H805 H 0.75759 0.72107 0.68209 0.0
H806 H 0.68185 0.68587 0.67664 0.0
H807 H 0.66625 0.75277 0.65633 0.0
H808 H 0.75402 0.69075 0.73337 0.0
H809 H 0.70687 0.58633 0.64229 0.0
H810 H 0.70939 0.64067 0.63742 0.0
H811 H 0.68586 0.62098 0.65195 0.0
C812 C 0.72878 0.76605 0.66491 0.0
C813 C 0.70303 0.77601 0.65784 0.0
C814 C 0.73758 0.72766 0.67624 0.0
C815 C 0.72085 0.69829 0.68058 0.0
C816 C 0.69505 0.70775 0.67296 0.0
H817 H 0.76283 0.50318 0.8063 0.0
H818 H 0.74117 0.55907 0.77472 0.0
C819 C 0.68619 0.74619 0.66158 0.0
C820 C 0.73079 0.65925 0.69537 0.0
H821 H 0.72726 0.55529 0.68823 0.0
C822 C 0.74823 0.66116 0.72342 0.0
C823 C 0.72337 0.62067 0.68228 0.0
C824 C 0.70552 0.61685 0.65172 0.0
C825 C 0.75818 0.62563 0.73894 0.0
C826 C 0.75017 0.58702 0.72627 0.0
C827 C 0.7331 0.58495 0.69799 0.0
C828 C 0.7597 0.5488 0.74237 0.0
C829 C 0.77739 0.6297 0.76875 0.0
C830 C 0.77624 0.52316 0.7338 0.0
C831 C 0.78859 0.49101 0.75178 0.0
C832 C 0.78455 0.48419 0.77857 0.0
C833 C 0.76654 0.50808 0.78595 0.0
C834 C 0.75418 0.54 0.76797 0.0
H835 H 0.78576 0.66079 0.77252 0.0
H836 H 0.76808 0.62383 0.78545 0.0
H837 H 0.79285 0.60707 0.77183 0.0
H838 H 0.78069 0.52944 0.71406 0.0
H839 H 0.80247 0.47326 0.74563 0.0
H840 H 0.40672 0.01818 0.41469 0.0
H841 H 0.44397 0.98534 0.44731 0.0
H842 H 0.47794 0.10313 0.47379 0.0
H843 H 0.44029 0.13675 0.44065 0.0
H844 H 0.50955 0.0432 0.45772 0.0
H845 H 0.46585 0.98065 0.53673 0.0
H846 H 0.44873 0.96969 0.49943 0.0
H847 H 0.45175 0.02165 0.51203 0.0
C848 C 0.42199 0.03734 0.42751 0.0
C849 C 0.42053 0.08018 0.42511 0.0
C850 C 0.44324 0.0184 0.44631 0.0
C851 C 0.46354 0.04176 0.46326 0.0
C852 C 0.46231 0.0846 0.461 0.0
H853 H 0.60876 0.98454 0.58349 0.0
H854 H 0.57133 0.01519 0.54973 0.0
C855 C 0.44084 0.10375 0.44217 0.0
C856 C 0.48631 0.02085 0.48232 0.0
H857 H 0.50648 0.95517 0.53974 0.0
C858 C 0.50896 0.0242 0.47579 0.0
C859 C 0.48535 0.99561 0.5056 0.0
C860 C 0.46169 0.99185 0.5141 0.0
C861 C 0.53065 1.00263 0.49178 0.0
C862 C 0.52973 0.97757 0.51517 0.0
C863 C 0.50705 0.97405 0.5216 0.0
C864 C 0.55268 0.95775 0.53477 0.0
C865 C 0.55431 1.00645 0.48329 0.0
C866 C 0.5545 0.91504 0.53797 0.0
C867 C 0.57611 0.89711 0.5575 0.0
C868 C 0.59592 0.92182 0.57431 0.0
C869 C 0.59388 0.9645 0.5709 0.0
C870 C 0.57253 0.9822 0.55143 0.0
H871 H 0.55005 0.01677 0.46044 0.0
H872 H 0.56697 0.02939 0.4975 0.0
H873 H 0.5646 0.97692 0.48598 0.0
H874 H 0.53922 0.89568 0.52542 0.0
H875 H 0.57711 0.8642 0.55979 0.0
H876 H 0.60792 0.02581 0.10662 0.0
H877 H 0.57312 0.99243 0.07024 0.0
H878 H 0.54891 0.10848 0.02877 0.0
H879 H 0.58419 0.14246 0.06527 0.0
H880 H 0.52173 1.00643 0.05804 0.0
H881 H 0.55241 0.03465 0.96144 0.0
H882 H 0.57328 0.04104 0.99813 0.0
H883 H 0.55015 0.07947 0.98188 0.0
C884 C 0.59532 0.0444 0.08972 0.0
C885 C 0.59888 0.08686 0.08878 0.0
C886 C 0.57539 0.02517 0.06895 0.0
C887 C 0.55858 0.04783 0.04664 0.0
C888 C 0.56194 0.09031 0.04556 0.0
H889 H 0.42488 0.99101 0.90615 0.0
H890 H 0.46127 0.02119 0.94207 0.0
C891 C 0.582 0.10971 0.06646 0.0
C892 C 0.53729 0.02669 0.02509 0.0
H893 H 0.51228 1.00416 0.95297 0.0
C894 C 0.51968 1.00579 0.03507 0.0
C895 C 0.53479 0.0257 0.99519 0.0
C896 C 0.55375 0.04608 0.98344 0.0
C897 C 0.49928 0.98472 0.01584 0.0
C898 C 0.49668 0.98397 0.98591 0.0
C899 C 0.5144 1.00462 0.97596 0.0
C900 C 0.47478 0.96438 0.96423 0.0
C901 C 0.48027 0.96447 0.02757 0.0
C902 C 0.47033 0.92212 0.96459 0.0
C903 C 0.44931 0.90453 0.94393 0.0
C904 C 0.43256 0.92902 0.92262 0.0
C905 C 0.43733 0.97118 0.92228 0.0
C906 C 0.45819 0.98859 0.94279 0.0
H907 H 0.48207 0.97501 0.0499 0.0
H908 H 0.46073 0.97064 0.01329 0.0
H909 H 0.48329 0.93093 0.02828 0.0
H910 H 0.48316 0.90277 0.98073 0.0
H911 H 0.44619 0.87197 0.94464 0.0
H912 H 0.09666 0.48345 0.61235 0.0
H913 H 0.05918 0.51402 0.57849 0.0
H914 H 0.03921 0.39822 0.53492 0.0
H915 H 0.07707 0.36687 0.56929 0.0
H916 H 0.0493 0.51803 0.51825 0.0
H917 H 0.97277 0.43804 0.54717 0.0
H918 H 1.00504 0.43877 0.57093 0.0
H919 H 0.99614 0.40593 0.5397 0.0
C920 C 0.08427 0.46419 0.59574 0.0
C921 C 0.08992 0.42268 0.59341 0.0
C922 C 0.0628 0.48183 0.5764 0.0
C923 C 0.04635 0.45846 0.55427 0.0
C924 C 0.05151 0.4167 0.55212 0.0
H925 H 0.91469 0.52213 0.41092 0.0
H926 H 0.94887 0.48849 0.44802 0.0
C927 C 0.07314 0.39885 0.57167 0.0
C928 C 0.02471 0.47894 0.53272 0.0
H929 H 0.96034 0.48356 0.50735 0.0
C930 C 0.02983 0.51054 0.51587 0.0
C931 C 0.99937 0.46914 0.52973 0.0
C932 C 0.99284 0.43635 0.54795 0.0
C933 C 1.01032 0.53232 0.49582 0.0
C934 C 0.98494 0.52282 0.49298 0.0
C935 C 0.97981 0.49105 0.50975 0.0
C936 C 0.96348 0.54393 0.47154 0.0
C937 C 0.01706 0.56459 0.47735 0.0
C938 C 0.95997 0.5864 0.47269 0.0
C939 C 0.94035 0.60597 0.45128 0.0
C940 C 0.92389 0.58326 0.42853 0.0
C941 C 0.92707 0.54064 0.42805 0.0
C942 C 0.9466 0.52124 0.44931 0.0
H943 H 0.03683 0.56132 0.47722 0.0
H944 H 1.00424 0.56317 0.45461 0.0
H945 H 0.01511 0.59522 0.48622 0.0
H946 H 0.97251 0.60443 0.49 0.0
H947 H 0.9383 0.63878 0.45231 0.0
H948 H 0.08103 0.63823 0.05558 0.0
H949 H 0.043 0.60532 0.02273 0.0
H950 H 0.07052 0.48794 0.05957 0.0
H951 H 0.10799 0.52008 0.0922 0.0
H952 H 0.04076 0.5413 0.98127 0.0
H953 H 0.99873 0.49214 0.06521 0.0
H954 H 0.02297 0.53075 0.07195 0.0
H955 H 0.03117 0.47754 0.07279 0.0
C956 C 0.07883 0.60547 0.05671 0.0
C957 C 0.09747 0.58185 0.07656 0.0
C958 C 0.05717 0.58673 0.03797 0.0
C959 C 0.05378 0.54426 0.03909 0.0
C960 C 0.07247 0.5208 0.05875 0.0
H961 H 0.94034 0.36667 0.94383 0.0
H962 H 0.97852 0.39914 0.97675 0.0
C963 C 0.094 0.53933 0.07729 0.0
C964 C 0.03123 0.52373 0.01922 0.0
H965 H 0.98121 0.46301 0.01817 0.0
C966 C 0.02761 0.52447 0.98928 0.0
C967 C 0.01429 0.50136 0.02979 0.0
C968 C 0.01679 0.5006 0.06167 0.0
C969 C 1.0077 0.50291 0.96965 0.0
C970 C 0.99074 0.48059 0.98021 0.0
C971 C 0.99438 0.47981 0.01016 0.0
C972 C 0.96811 0.46028 0.96032 0.0
C973 C 1.00524 0.50364 0.93778 0.0
C974 C 0.94957 0.48393 0.94061 0.0
C975 C 0.92797 0.46565 0.92203 0.0
C976 C 0.92425 0.4232 0.92277 0.0
C977 C 0.94273 0.39938 0.94269 0.0
C978 C 0.96448 0.41788 0.96146 0.0
H979 H 0.02338 0.51176 0.93429 0.0
H980 H 0.99887 0.47359 0.92744 0.0
H981 H 0.99103 0.52695 0.92668 0.0
H982 H 0.95169 0.51675 0.93978 0.0
H983 H 0.91411 0.48505 0.90708 0.0
loop_
_geom_bond_atom_site_label_1
_geom_bond_atom_site_label_2
_geom_bond_distance
_geom_bond_site_symmetry_2
_ccdc_geom_bond_type
Co0 N4 2.148 . S
Co0 N10 2.128 . S
Co0 N20 2.194 . S
Co0 O25 2.351 . S
Co0 O26 2.155 . S
Co0 O27 2.096 . S
C1 N4 1.301 . S
C1 N5 1.328 . S
C1 H6 0.930 . S
C2 C3 1.333 . S
C2 N4 1.317 . S
C2 H7 0.930 . S
C3 C2 1.333 . S
C3 N5 1.350 . S
C3 H29 0.931 . S
N4 Co0 2.148 . S
N4 C1 1.301 . S
N4 C2 1.317 . S
N5 C1 1.328 . S
N5 C3 1.350 . S
H6 C1 0.930 . S
H7 C2 0.930 . S
C8 O9 1.224 . S
C8 O27 1.247 . S
O9 C8 1.224 . S
N10 Co0 2.128 . S
N10 C11 1.355 . S
N10 C13 1.311 . S
C11 N10 1.355 . S
C11 C12 1.363 . S
C11 H23 0.929 . S
C12 C11 1.363 . S
C12 N14 1.375 . S
C12 H30 0.931 . S
C13 N10 1.311 . S
C13 N14 1.347 . S
C13 H24 0.929 . S
N14 C12 1.375 . S
N14 C13 1.347 . S
C15 C18 1.365 1_545 S
C15 N20 1.328 . S
C15 H21 0.929 . S
C16 C17 1.362 1_545 S
C16 C19 1.378 . S
C16 H31 0.929 . S
C17 C16 1.362 1_565 S
C17 C18 1.366 . S
C18 C15 1.365 1_565 S
C18 C17 1.366 . S
C18 H32 0.930 . S
C19 C16 1.378 . S
C19 N20 1.315 . S
C19 H22 0.930 . S
N20 Co0 2.194 . S
N20 C15 1.328 . S
N20 C19 1.315 . S
H21 C15 0.929 . S
H22 C19 0.930 . S
H23 C11 0.929 . S
H24 C13 0.929 . S
O25 Co0 2.351 . S
O25 C28 1.244 . S
O26 Co0 2.155 . S
O26 C28 1.240 . S
O27 Co0 2.096 . S
O27 C8 1.247 . S
C28 O25 1.244 . S
C28 O26 1.240 . S
H29 C3 0.931 . S
H30 C12 0.931 . S
H31 C16 0.929 . S
H32 C18 0.930 . S
Co33 N37 2.148 . S
Co33 N43 2.128 . S
Co33 N53 2.194 . S
Co33 O58 2.351 . S
Co33 O59 2.155 . S
Co33 O60 2.096 . S
C34 N37 1.301 . S
C34 N38 1.328 . S
C34 H39 0.930 . S
C35 C36 1.333 . S
C35 N37 1.317 . S
C35 H40 0.930 . S
C36 C35 1.333 . S
C36 N38 1.350 . S
C36 H62 0.931 . S
N37 Co33 2.148 . S
N37 C34 1.301 . S
N37 C35 1.317 . S
N38 C34 1.328 . S
N38 C36 1.350 . S
H39 C34 0.930 . S
H40 C35 0.930 . S
C41 O42 1.224 . S
C41 O60 1.247 . S
O42 C41 1.224 . S
N43 Co33 2.128 . S
N43 C44 1.355 . S
N43 C46 1.311 . S
C44 N43 1.355 . S
C44 C45 1.363 . S
C44 H56 0.929 . S
C45 C44 1.363 . S
C45 N47 1.375 . S
C45 H63 0.931 . S
C46 N43 1.311 . S
C46 N47 1.347 . S
C46 H57 0.929 . S
N47 C45 1.375 . S
N47 C46 1.347 . S
C48 C51 1.365 1_545 S
C48 N53 1.328 . S
C48 H54 0.929 . S
C49 C50 1.362 1_545 S
C49 C52 1.378 . S
C49 H64 0.929 . S
C50 C49 1.362 1_565 S
C50 C51 1.366 . S
C51 C48 1.365 1_565 S
C51 C50 1.366 . S
C51 H65 0.930 . S
C52 C49 1.378 . S
C52 N53 1.315 . S
C52 H55 0.930 . S
N53 Co33 2.194 . S
N53 C48 1.328 . S
N53 C52 1.315 . S
H54 C48 0.929 . S
H55 C52 0.930 . S
H56 C44 0.929 . S
H57 C46 0.929 . S
O58 Co33 2.351 . S
O58 C61 1.244 . S
O59 Co33 2.155 . S
O59 C61 1.240 . S
O60 Co33 2.096 . S
O60 C41 1.247 . S
C61 O58 1.244 . S
C61 O59 1.240 . S
H62 C36 0.931 . S
H63 C45 0.931 . S
H64 C49 0.929 . S
H65 C51 0.930 . S
Co66 N70 2.148 . S
Co66 N76 2.128 . S
Co66 N86 2.194 . S
Co66 O91 2.351 . S
Co66 O92 2.155 . S
Co66 O93 2.096 . S
C67 N70 1.301 . S
C67 N71 1.328 . S
C67 H72 0.930 . S
C68 C69 1.333 . S
C68 N70 1.317 . S
C68 H73 0.930 . S
C69 C68 1.333 . S
C69 N71 1.350 . S
C69 H95 0.931 . S
N70 Co66 2.148 . S
N70 C67 1.301 . S
N70 C68 1.317 . S
N71 C67 1.328 . S
N71 C69 1.350 . S
H72 C67 0.930 . S
H73 C68 0.930 . S
C74 O75 1.224 . S
C74 O93 1.247 . S
O75 C74 1.224 . S
N76 Co66 2.128 . S
N76 C77 1.355 . S
N76 C79 1.311 . S
C77 N76 1.355 . S
C77 C78 1.363 . S
C77 H89 0.929 . S
C78 C77 1.363 . S
C78 N80 1.375 . S
C78 H96 0.931 . S
C79 N76 1.311 . S
C79 N80 1.347 . S
C79 H90 0.929 . S
N80 C78 1.375 . S
N80 C79 1.347 . S
C81 C84 1.365 1_565 S
C81 N86 1.328 . S
C81 H87 0.929 . S
C82 C83 1.362 1_565 S
C82 C85 1.378 . S
C82 H97 0.929 . S
C83 C82 1.362 1_545 S
C83 C84 1.366 . S
C84 C81 1.365 1_545 S
C84 C83 1.366 . S
C84 H98 0.930 . S
C85 C82 1.378 . S
C85 N86 1.315 . S
C85 H88 0.930 . S
N86 Co66 2.194 . S
N86 C81 1.328 . S
N86 C85 1.315 . S
H87 C81 0.929 . S
H88 C85 0.930 . S
H89 C77 0.929 . S
H90 C79 0.929 . S
O91 Co66 2.351 . S
O91 C94 1.244 . S
O92 Co66 2.155 . S
O92 C94 1.240 . S
O93 Co66 2.096 . S
O93 C74 1.247 . S
C94 O91 1.244 . S
C94 O92 1.240 . S
H95 C69 0.931 . S
H96 C78 0.931 . S
H97 C82 0.929 . S
H98 C84 0.930 . S
Co99 N103 2.148 . S
Co99 N109 2.128 . S
Co99 N119 2.194 . S
Co99 O124 2.351 . S
Co99 O125 2.155 . S
Co99 O126 2.096 . S
C100 N103 1.301 . S
C100 N104 1.328 . S
C100 H105 0.930 . S
C101 C102 1.333 . S
C101 N103 1.317 . S
C101 H106 0.930 . S
C102 C101 1.333 . S
C102 N104 1.350 . S
C102 H128 0.931 . S
N103 Co99 2.148 . S
N103 C100 1.301 . S
N103 C101 1.317 . S
N104 C100 1.328 . S
N104 C102 1.350 . S
H105 C100 0.930 . S
H106 C101 0.930 . S
C107 O108 1.224 . S
C107 O126 1.247 . S
O108 C107 1.224 . S
N109 Co99 2.128 . S
N109 C110 1.355 . S
N109 C112 1.311 . S
C110 N109 1.355 . S
C110 C111 1.363 . S
C110 H122 0.929 . S
C111 C110 1.363 . S
C111 N113 1.375 . S
C111 H129 0.931 . S
C112 N109 1.311 . S
C112 N113 1.347 . S
C112 H123 0.929 . S
N113 C111 1.375 . S
N113 C112 1.347 . S
C114 C117 1.365 1_565 S
C114 N119 1.328 . S
C114 H120 0.929 . S
C115 C116 1.362 1_565 S
C115 C118 1.378 . S
C115 H130 0.929 . S
C116 C115 1.362 1_545 S
C116 C117 1.366 . S
C117 C114 1.365 1_545 S
C117 C116 1.366 . S
C117 H131 0.930 . S
C118 C115 1.378 . S
C118 N119 1.315 . S
C118 H121 0.930 . S
N119 Co99 2.194 . S
N119 C114 1.328 . S
N119 C118 1.315 . S
H120 C114 0.929 . S
H121 C118 0.930 . S
H122 C110 0.929 . S
H123 C112 0.929 . S
O124 Co99 2.351 . S
O124 C127 1.244 . S
O125 Co99 2.155 . S
O125 C127 1.240 . S
O126 Co99 2.096 . S
O126 C107 1.247 . S
C127 O124 1.244 . S
C127 O125 1.240 . S
H128 C102 0.931 . S
H129 C111 0.931 . S
H130 C115 0.929 . S
H131 C117 0.930 . S
Co132 N136 2.148 . S
Co132 N142 2.128 . S
Co132 N152 2.194 . S
Co132 O157 2.351 . S
Co132 O158 2.155 . S
Co132 O159 2.096 . S
C133 N136 1.301 . S
C133 N137 1.328 . S
C133 H138 0.930 . S
C134 C135 1.333 . S
C134 N136 1.317 . S
C134 H139 0.930 . S
C135 C134 1.333 . S
C135 N137 1.350 . S
C135 H161 0.931 . S
N136 Co132 2.148 . S
N136 C133 1.301 . S
N136 C134 1.317 . S
N137 C133 1.328 . S
N137 C135 1.350 . S
H138 C133 0.930 . S
H139 C134 0.930 . S
C140 O141 1.224 . S
C140 O159 1.247 . S
O141 C140 1.224 . S
N142 Co132 2.128 . S
N142 C143 1.355 . S
N142 C145 1.311 . S
C143 N142 1.355 . S
C143 C144 1.363 . S
C143 H155 0.929 . S
C144 C143 1.363 . S
C144 N146 1.375 . S
C144 H162 0.931 . S
C145 N142 1.311 . S
C145 N146 1.347 . S
C145 H156 0.929 . S
N146 C144 1.375 . S
N146 C145 1.347 . S
C147 C150 1.365 . S
C147 N152 1.328 . S
C147 H153 0.929 . S
C148 C149 1.362 . S
C148 C151 1.378 . S
C148 H163 0.929 . S
C149 C148 1.362 . S
C149 C150 1.366 . S
C150 C147 1.365 . S
C150 C149 1.366 . S
C150 H164 0.930 . S
C151 C148 1.378 . S
C151 N152 1.315 . S
C151 H154 0.930 . S
N152 Co132 2.194 . S
N152 C147 1.328 . S
N152 C151 1.315 . S
H153 C147 0.929 . S
H154 C151 0.930 . S
H155 C143 0.929 . S
H156 C145 0.929 . S
O157 Co132 2.351 . S
O157 C160 1.244 . S
O158 Co132 2.155 . S
O158 C160 1.240 . S
O159 Co132 2.096 . S
O159 C140 1.247 . S
C160 O157 1.244 . S
C160 O158 1.240 . S
H161 C135 0.931 . S
H162 C144 0.931 . S
H163 C148 0.929 . S
H164 C150 0.930 . S
Co165 N169 2.148 . S
Co165 N175 2.128 . S
Co165 N185 2.194 . S
Co165 O190 2.351 . S
Co165 O191 2.155 . S
Co165 O192 2.096 . S
C166 N169 1.301 . S
C166 N170 1.328 . S
C166 H171 0.930 . S
C167 C168 1.333 . S
C167 N169 1.317 . S
C167 H172 0.930 . S
C168 C167 1.333 . S
C168 N170 1.350 . S
C168 H194 0.931 . S
N169 Co165 2.148 . S
N169 C166 1.301 . S
N169 C167 1.317 . S
N170 C166 1.328 . S
N170 C168 1.350 . S
H171 C166 0.930 . S
H172 C167 0.930 . S
C173 O174 1.224 . S
C173 O192 1.247 . S
O174 C173 1.224 . S
N175 Co165 2.128 . S
N175 C176 1.355 . S
N175 C178 1.311 . S
C176 N175 1.355 . S
C176 C177 1.363 . S
C176 H188 0.929 . S
C177 C176 1.363 . S
C177 N179 1.375 . S
C177 H195 0.931 . S
C178 N175 1.311 . S
C178 N179 1.347 . S
C178 H189 0.929 . S
N179 C177 1.375 . S
N179 C178 1.347 . S
C180 C183 1.365 . S
C180 N185 1.328 . S
C180 H186 0.929 . S
C181 C182 1.362 . S
C181 C184 1.378 . S
C181 H196 0.929 . S
C182 C181 1.362 . S
C182 C183 1.366 . S
C183 C180 1.365 . S
C183 C182 1.366 . S
C183 H197 0.930 . S
C184 C181 1.378 . S
C184 N185 1.315 . S
C184 H187 0.930 . S
N185 Co165 2.194 . S
N185 C180 1.328 . S
N185 C184 1.315 . S
H186 C180 0.929 . S
H187 C184 0.930 . S
H188 C176 0.929 . S
H189 C178 0.929 . S
O190 Co165 2.351 . S
O190 C193 1.244 . S
O191 Co165 2.155 . S
O191 C193 1.240 . S
O192 Co165 2.096 . S
O192 C173 1.247 . S
C193 O190 1.244 . S
C193 O191 1.240 . S
H194 C168 0.931 . S
H195 C177 0.931 . S
H196 C181 0.929 . S
H197 C183 0.930 . S
Co198 N202 2.148 . S
Co198 N208 2.128 . S
Co198 N218 2.194 . S
Co198 O223 2.351 . S
Co198 O224 2.155 . S
Co198 O225 2.096 . S
C199 N202 1.301 . S
C199 N203 1.328 . S
C199 H204 0.930 . S
C200 C201 1.333 . S
C200 N202 1.317 . S
C200 H205 0.930 . S
C201 C200 1.333 . S
C201 N203 1.350 . S
C201 H227 0.931 . S
N202 Co198 2.148 . S
N202 C199 1.301 . S
N202 C200 1.317 . S
N203 C199 1.328 . S
N203 C201 1.350 . S
H204 C199 0.930 . S
H205 C200 0.930 . S
C206 O207 1.224 . S
C206 O225 1.247 . S
O207 C206 1.224 . S
N208 Co198 2.128 . S
N208 C209 1.355 . S
N208 C211 1.311 . S
C209 N208 1.355 . S
C209 C210 1.363 . S
C209 H221 0.929 . S
C210 C209 1.363 . S
C210 N212 1.375 . S
C210 H228 0.931 . S
C211 N208 1.311 . S
C211 N212 1.347 . S
C211 H222 0.929 . S
N212 C210 1.375 . S
N212 C211 1.347 . S
C213 C216 1.365 . S
C213 N218 1.328 . S
C213 H219 0.929 . S
C214 C215 1.362 . S
C214 C217 1.378 . S
C214 H229 0.929 . S
C215 C214 1.362 . S
C215 C216 1.366 . S
C216 C213 1.365 . S
C216 C215 1.366 . S
C216 H230 0.930 . S
C217 C214 1.378 . S
C217 N218 1.315 . S
C217 H220 0.930 . S
N218 Co198 2.194 . S
N218 C213 1.328 . S
N218 C217 1.315 . S
H219 C213 0.929 . S
H220 C217 0.930 . S
H221 C209 0.929 . S
H222 C211 0.929 . S
O223 Co198 2.351 . S
O223 C226 1.244 . S
O224 Co198 2.155 . S
O224 C226 1.240 . S
O225 Co198 2.096 . S
O225 C206 1.247 . S
C226 O223 1.244 . S
C226 O224 1.240 . S
H227 C201 0.931 . S
H228 C210 0.931 . S
H229 C214 0.929 . S
H230 C216 0.930 . S
Co231 N235 2.148 . S
Co231 N241 2.128 . S
Co231 N251 2.194 . S
Co231 O256 2.351 . S
Co231 O257 2.155 . S
Co231 O258 2.096 . S
C232 N235 1.301 . S
C232 N236 1.328 . S
C232 H237 0.930 . S
C233 C234 1.333 . S
C233 N235 1.317 . S
C233 H238 0.930 . S
C234 C233 1.333 . S
C234 N236 1.350 . S
C234 H260 0.931 . S
N235 Co231 2.148 . S
N235 C232 1.301 . S
N235 C233 1.317 . S
N236 C232 1.328 . S
N236 C234 1.350 . S
H237 C232 0.930 . S
H238 C233 0.930 . S
C239 O240 1.224 . S
C239 O258 1.247 . S
O240 C239 1.224 . S
N241 Co231 2.128 . S
N241 C242 1.355 . S
N241 C244 1.311 . S
C242 N241 1.355 . S
C242 C243 1.363 . S
C242 H254 0.929 . S
C243 C242 1.363 . S
C243 N245 1.375 . S
C243 H261 0.931 . S
C244 N241 1.311 . S
C244 N245 1.347 . S
C244 H255 0.929 . S
N245 C243 1.375 . S
N245 C244 1.347 . S
C246 C249 1.365 . S
C246 N251 1.328 . S
C246 H252 0.929 . S
C247 C248 1.362 . S
C247 C250 1.378 . S
C247 H262 0.929 . S
C248 C247 1.362 . S
C248 C249 1.366 . S
C249 C246 1.365 . S
C249 C248 1.366 . S
C249 H263 0.930 . S
C250 C247 1.378 . S
C250 N251 1.315 . S
C250 H253 0.930 . S
N251 Co231 2.194 . S
N251 C246 1.328 . S
N251 C250 1.315 . S
H252 C246 0.929 . S
H253 C250 0.930 . S
H254 C242 0.929 . S
H255 C244 0.929 . S
O256 Co231 2.351 . S
O256 C259 1.244 . S
O257 Co231 2.155 . S
O257 C259 1.240 . S
O258 Co231 2.096 . S
O258 C239 1.247 . S
C259 O256 1.244 . S
C259 O257 1.240 . S
H260 C234 0.931 . S
H261 C243 0.931 . S
H262 C247 0.929 . S
H263 C249 0.930 . S
H264 C272 0.929 . S
H265 C274 0.930 . S
H266 C276 0.930 . S
H267 C279 0.929 . S
H268 C282 0.930 . S
H269 C284 0.960 . S
H270 C284 0.960 . S
H271 C284 0.960 . S
C272 H264 0.929 . S
C272 C273 1.377 . S
C272 C274 1.384 . S
C273 C272 1.377 . S
C273 C279 1.390 . S
C274 H265 0.930 . S
C274 C272 1.384 . S
C274 C275 1.372 . S
C275 C274 1.372 . S
C275 C276 1.400 . S
C275 C280 1.490 . S
C276 H266 0.930 . S
C276 C275 1.400 . S
C276 C279 1.386 . S
H277 C293 0.930 . S
H278 C294 0.931 . S
C279 H267 0.929 . S
C279 C273 1.390 . S
C279 C276 1.386 . S
C280 C275 1.490 . S
C280 C282 1.395 . S
C280 C283 1.403 . S
H281 C287 0.930 . S
C282 H268 0.930 . S
C282 C280 1.395 . S
C282 C285 1.403 . S
C283 C280 1.403 . S
C283 C284 1.524 . S
C283 C287 1.400 . S
C284 H269 0.960 . S
C284 H270 0.960 . S
C284 H271 0.960 . S
C284 C283 1.524 . S
C285 C282 1.403 . S
C285 C286 1.392 . S
C285 C289 1.495 . S
C286 C285 1.392 . S
C286 C287 1.385 . S
C286 C288 1.478 . S
C287 H281 0.930 . S
C287 C283 1.400 . S
C287 C286 1.385 . S
C288 C286 1.478 . S
C288 C290 1.381 . S
C288 C294 1.383 . S
C289 C285 1.495 . S
C289 H295 0.959 . S
C289 H296 0.961 . S
C289 H297 0.960 . S
C290 C288 1.381 . S
C290 C291 1.394 . S
C290 H298 0.930 . S
C291 C290 1.394 . S
C291 C292 1.383 . S
C291 H299 0.929 . S
C292 C291 1.383 . S
C292 C293 1.377 . S
C293 H277 0.930 . S
C293 C292 1.377 . S
C293 C294 1.379 . S
C294 H278 0.931 . S
C294 C288 1.383 . S
C294 C293 1.379 . S
H295 C289 0.959 . S
H296 C289 0.961 . S
H297 C289 0.960 . S
H298 C290 0.930 . S
H299 C291 0.929 . S
H300 C308 0.929 . S
H301 C310 0.930 . S
H302 C312 0.930 . S
H303 C315 0.929 . S
H304 C318 0.930 . S
H305 C320 0.960 . S
H306 C320 0.960 . S
H307 C320 0.960 . S
C308 H300 0.929 . S
C308 C309 1.377 . S
C308 C310 1.384 . S
C309 C308 1.377 . S
C309 C315 1.390 . S
C310 H301 0.930 . S
C310 C308 1.384 . S
C310 C311 1.372 . S
C311 C310 1.372 . S
C311 C312 1.400 . S
C311 C316 1.490 . S
C312 H302 0.930 . S
C312 C311 1.400 . S
C312 C315 1.386 . S
H313 C329 0.930 . S
H314 C330 0.931 . S
C315 H303 0.929 . S
C315 C309 1.390 . S
C315 C312 1.386 . S
C316 C311 1.490 . S
C316 C318 1.395 1_554 S
C316 C319 1.403 . S
H317 C323 0.930 . S
C318 H304 0.930 . S
C318 C316 1.395 1_556 S
C318 C321 1.403 . S
C319 C316 1.403 . S
C319 C320 1.524 . S
C319 C323 1.400 . S
C320 H305 0.960 . S
C320 H306 0.960 . S
C320 H307 0.960 . S
C320 C319 1.524 . S
C321 C318 1.403 . S
C321 C322 1.392 . S
C321 C325 1.495 . S
C322 C321 1.392 . S
C322 C323 1.385 1_556 S
C322 C324 1.478 . S
C323 H317 0.930 . S
C323 C319 1.400 . S
C323 C322 1.385 1_554 S
C324 C322 1.478 . S
C324 C326 1.381 . S
C324 C330 1.383 . S
C325 C321 1.495 . S
C325 H331 0.959 . S
C325 H332 0.961 . S
C325 H333 0.960 . S
C326 C324 1.381 . S
C326 C327 1.394 . S
C326 H334 0.930 . S
C327 C326 1.394 . S
C327 C328 1.383 . S
C327 H335 0.929 . S
C328 C327 1.383 . S
C328 C329 1.377 . S
C329 H313 0.930 . S
C329 C328 1.377 . S
C329 C330 1.379 . S
C330 H314 0.931 . S
C330 C324 1.383 . S
C330 C329 1.379 . S
H331 C325 0.959 . S
H332 C325 0.961 . S
H333 C325 0.960 . S
H334 C326 0.930 . S
H335 C327 0.929 . S
H336 C344 0.929 . S
H337 C346 0.930 . S
H338 C348 0.930 . S
H339 C351 0.929 . S
H340 C354 0.930 . S
H341 C356 0.960 . S
H342 C356 0.960 . S
H343 C356 0.960 . S
C344 H336 0.929 . S
C344 C345 1.377 . S
C344 C346 1.384 . S
C345 C344 1.377 . S
C345 C351 1.390 . S
C346 H337 0.930 . S
C346 C344 1.384 . S
C346 C347 1.372 . S
C347 C346 1.372 . S
C347 C348 1.400 . S
C347 C352 1.490 . S
C348 H338 0.930 . S
C348 C347 1.400 . S
C348 C351 1.386 . S
H349 C365 0.930 . S
H350 C366 0.931 . S
C351 H339 0.929 . S
C351 C345 1.390 . S
C351 C348 1.386 . S
C352 C347 1.490 . S
C352 C354 1.395 . S
C352 C355 1.403 . S
H353 C359 0.930 . S
C354 H340 0.930 . S
C354 C352 1.395 . S
C354 C357 1.403 . S
C355 C352 1.403 . S
C355 C356 1.524 . S
C355 C359 1.400 . S
C356 H341 0.960 . S
C356 H342 0.960 . S
C356 H343 0.960 . S
C356 C355 1.524 . S
C357 C354 1.403 . S
C357 C358 1.392 . S
C357 C361 1.495 . S
C358 C357 1.392 . S
C358 C359 1.385 . S
C358 C360 1.478 . S
C359 H353 0.930 . S
C359 C355 1.400 . S
C359 C358 1.385 . S
C360 C358 1.478 . S
C360 C362 1.381 . S
C360 C366 1.383 . S
C361 C357 1.495 . S
C361 H367 0.959 . S
C361 H368 0.961 . S
C361 H369 0.960 . S
C362 C360 1.381 . S
C362 C363 1.394 . S
C362 H370 0.930 . S
C363 C362 1.394 . S
C363 C364 1.383 . S
C363 H371 0.929 . S
C364 C363 1.383 . S
C364 C365 1.377 . S
C365 H349 0.930 . S
C365 C364 1.377 . S
C365 C366 1.379 . S
C366 H350 0.931 . S
C366 C360 1.383 . S
C366 C365 1.379 . S
H367 C361 0.959 . S
H368 C361 0.961 . S
H369 C361 0.960 . S
H370 C362 0.930 . S
H371 C363 0.929 . S
H372 C380 0.929 . S
H373 C382 0.930 . S
H374 C384 0.930 . S
H375 C387 0.929 . S
H376 C390 0.930 . S
H377 C392 0.960 . S
H378 C392 0.960 . S
H379 C392 0.960 . S
C380 H372 0.929 . S
C380 C381 1.377 . S
C380 C382 1.384 . S
C381 C380 1.377 . S
C381 C387 1.390 . S
C382 H373 0.930 . S
C382 C380 1.384 . S
C382 C383 1.372 . S
C383 C382 1.372 . S
C383 C384 1.400 . S
C383 C388 1.490 . S
C384 H374 0.930 . S
C384 C383 1.400 . S
C384 C387 1.386 . S
H385 C401 0.930 . S
H386 C402 0.931 . S
C387 H375 0.929 . S
C387 C381 1.390 . S
C387 C384 1.386 . S
C388 C383 1.490 . S
C388 C390 1.395 . S
C388 C391 1.403 1_556 S
H389 C395 0.930 . S
C390 H376 0.930 . S
C390 C388 1.395 . S
C390 C393 1.403 . S
C391 C388 1.403 1_554 S
C391 C392 1.524 . S
C391 C395 1.400 . S
C392 H377 0.960 . S
C392 H378 0.960 . S
C392 H379 0.960 . S
C392 C391 1.524 . S
C393 C390 1.403 . S
C393 C394 1.392 1_556 S
C393 C397 1.495 . S
C394 C393 1.392 1_554 S
C394 C395 1.385 . S
C394 C396 1.478 . S
C395 H389 0.930 . S
C395 C391 1.400 . S
C395 C394 1.385 . S
C396 C394 1.478 . S
C396 C398 1.381 . S
C396 C402 1.383 . S
C397 C393 1.495 . S
C397 H403 0.959 . S
C397 H404 0.961 . S
C397 H405 0.960 . S
C398 C396 1.381 . S
C398 C399 1.394 . S
C398 H406 0.930 . S
C399 C398 1.394 . S
C399 C400 1.383 . S
C399 H407 0.929 . S
C400 C399 1.383 . S
C400 C401 1.377 . S
C401 H385 0.930 . S
C401 C400 1.377 . S
C401 C402 1.379 . S
C402 H386 0.931 . S
C402 C396 1.383 . S
C402 C401 1.379 . S
H403 C397 0.959 . S
H404 C397 0.961 . S
H405 C397 0.960 . S
H406 C398 0.930 . S
H407 C399 0.929 . S
H408 C416 0.929 . S
H409 C418 0.930 . S
H410 C420 0.930 . S
H411 C423 0.929 . S
H412 C426 0.930 . S
H413 C428 0.960 . S
H414 C428 0.960 . S
H415 C428 0.960 . S
C416 H408 0.929 . S
C416 C417 1.377 . S
C416 C418 1.384 . S
C417 C416 1.377 . S
C417 C423 1.390 . S
C418 H409 0.930 . S
C418 C416 1.384 . S
C418 C419 1.372 . S
C419 C418 1.372 . S
C419 C420 1.400 . S
C419 C424 1.490 . S
C420 H410 0.930 . S
C420 C419 1.400 . S
C420 C423 1.386 . S
H421 C437 0.930 . S
H422 C438 0.931 . S
C423 H411 0.929 . S
C423 C417 1.390 . S
C423 C420 1.386 . S
C424 C419 1.490 . S
C424 C426 1.395 . S
C424 C427 1.403 . S
H425 C431 0.930 . S
C426 H412 0.930 . S
C426 C424 1.395 . S
C426 C429 1.403 . S
C427 C424 1.403 . S
C427 C428 1.524 . S
C427 C431 1.400 . S
C428 H413 0.960 . S
C428 H414 0.960 . S
C428 H415 0.960 . S
C428 C427 1.524 . S
C429 C426 1.403 . S
C429 C430 1.392 . S
C429 C433 1.495 . S
C430 C429 1.392 . S
C430 C431 1.385 . S
C430 C432 1.478 . S
C431 H425 0.930 . S
C431 C427 1.400 . S
C431 C430 1.385 . S
C432 C430 1.478 . S
C432 C434 1.381 . S
C432 C438 1.383 . S
C433 C429 1.495 . S
C433 H439 0.959 . S
C433 H440 0.961 . S
C433 H441 0.960 . S
C434 C432 1.381 . S
C434 C435 1.394 . S
C434 H442 0.930 . S
C435 C434 1.394 . S
C435 C436 1.383 . S
C435 H443 0.929 . S
C436 C435 1.383 . S
C436 C437 1.377 . S
C437 H421 0.930 . S
C437 C436 1.377 . S
C437 C438 1.379 . S
C438 H422 0.931 . S
C438 C432 1.383 . S
C438 C437 1.379 . S
H439 C433 0.959 . S
H440 C433 0.961 . S
H441 C433 0.960 . S
H442 C434 0.930 . S
H443 C435 0.929 . S
H444 C452 0.929 . S
H445 C454 0.930 . S
H446 C456 0.930 . S
H447 C459 0.929 . S
H448 C462 0.930 . S
H449 C464 0.960 . S
H450 C464 0.960 . S
H451 C464 0.960 . S
C452 H444 0.929 . S
C452 C453 1.377 . S
C452 C454 1.384 . S
C453 C452 1.377 . S
C453 C459 1.390 . S
C454 H445 0.930 . S
C454 C452 1.384 . S
C454 C455 1.372 . S
C455 C454 1.372 . S
C455 C456 1.400 . S
C455 C460 1.490 . S
C456 H446 0.930 . S
C456 C455 1.400 . S
C456 C459 1.386 . S
H457 C473 0.930 . S
H458 C474 0.931 . S
C459 H447 0.929 . S
C459 C453 1.390 . S
C459 C456 1.386 . S
C460 C455 1.490 . S
C460 C462 1.395 . S
C460 C463 1.403 . S
H461 C467 0.930 . S
C462 H448 0.930 . S
C462 C460 1.395 . S
C462 C465 1.403 . S
C463 C460 1.403 . S
C463 C464 1.524 . S
C463 C467 1.400 . S
C464 H449 0.960 . S
C464 H450 0.960 . S
C464 H451 0.960 . S
C464 C463 1.524 . S
C465 C462 1.403 . S
C465 C466 1.392 . S
C465 C469 1.495 . S
C466 C465 1.392 . S
C466 C467 1.385 . S
C466 C468 1.478 . S
C467 H461 0.930 . S
C467 C463 1.400 . S
C467 C466 1.385 . S
C468 C466 1.478 . S
C468 C470 1.381 . S
C468 C474 1.383 . S
C469 C465 1.495 . S
C469 H475 0.959 . S
C469 H476 0.961 . S
C469 H477 0.960 . S
C470 C468 1.381 . S
C470 C471 1.394 . S
C470 H478 0.930 . S
C471 C470 1.394 . S
C471 C472 1.383 . S
C471 H479 0.929 . S
C472 C471 1.383 . S
C472 C473 1.377 . S
C473 H457 0.930 . S
C473 C472 1.377 . S
C473 C474 1.379 . S
C474 H458 0.931 . S
C474 C468 1.383 . S
C474 C473 1.379 . S
H475 C469 0.959 . S
H476 C469 0.961 . S
H477 C469 0.960 . S
H478 C470 0.930 . S
H479 C471 0.929 . S
H480 C488 0.929 . S
H481 C490 0.930 . S
H482 C492 0.930 . S
H483 C495 0.929 . S
H484 C498 0.930 . S
H485 C500 0.960 . S
H486 C500 0.960 1_455 S
H487 C500 0.960 . S
C488 H480 0.929 . S
C488 C489 1.377 . S
C488 C490 1.384 . S
C489 C488 1.377 . S
C489 C495 1.390 . S
C490 H481 0.930 . S
C490 C488 1.384 . S
C490 C491 1.372 . S
C491 C490 1.372 . S
C491 C492 1.400 . S
C491 C496 1.490 . S
C492 H482 0.930 . S
C492 C491 1.400 . S
C492 C495 1.386 . S
H493 C509 0.930 . S
H494 C510 0.931 . S
C495 H483 0.929 . S
C495 C489 1.390 . S
C495 C492 1.386 . S
C496 C491 1.490 . S
C496 C498 1.395 . S
C496 C499 1.403 1_455 S
H497 C503 0.930 . S
C498 H484 0.930 . S
C498 C496 1.395 . S
C498 C501 1.403 . S
C499 C496 1.403 1_655 S
C499 C500 1.524 . S
C499 C503 1.400 . S
C500 H485 0.960 . S
C500 H486 0.960 1_655 S
C500 H487 0.960 . S
C500 C499 1.524 . S
C501 C498 1.403 . S
C501 C502 1.392 1_455 S
C501 C505 1.495 . S
C502 C501 1.392 1_655 S
C502 C503 1.385 . S
C502 C504 1.478 . S
C503 H497 0.930 . S
C503 C499 1.400 . S
C503 C502 1.385 . S
C504 C502 1.478 . S
C504 C506 1.381 . S
C504 C510 1.383 . S
C505 C501 1.495 . S
C505 H511 0.959 . S
C505 H512 0.987 . S
C505 H513 0.960 . S
C506 C504 1.381 . S
C506 C507 1.394 . S
C506 H514 0.930 . S
C507 C506 1.394 . S
C507 C508 1.383 . S
C507 H515 0.929 . S
C508 C507 1.383 . S
C508 C509 1.377 . S
C509 H493 0.930 . S
C509 C508 1.377 . S
C509 C510 1.379 . S
C510 H494 0.931 . S
C510 C504 1.383 . S
C510 C509 1.379 . S
H511 C505 0.959 . S
H512 C505 0.987 . S
H513 C505 0.960 . S
H514 C506 0.930 . S
H515 C507 0.929 . S
H516 C524 0.929 . S
H517 C526 0.930 . S
H518 C528 0.930 . S
H519 C531 0.929 . S
H520 C534 0.930 . S
H521 C536 0.960 . S
H522 C536 0.960 . S
H523 C536 0.960 . S
C524 H516 0.929 . S
C524 C525 1.377 . S
C524 C526 1.384 . S
C525 C524 1.377 . S
C525 C531 1.390 . S
C526 H517 0.930 . S
C526 C524 1.384 . S
C526 C527 1.372 . S
C527 C526 1.372 . S
C527 C528 1.400 . S
C527 C532 1.490 . S
C528 H518 0.930 . S
C528 C527 1.400 . S
C528 C531 1.386 . S
H529 C545 0.930 . S
H530 C546 0.931 . S
C531 H519 0.929 . S
C531 C525 1.390 . S
C531 C528 1.386 . S
C532 C527 1.490 . S
C532 C534 1.395 . S
C532 C535 1.403 1_455 S
H533 C539 0.930 . S
C534 H520 0.930 . S
C534 C532 1.395 . S
C534 C537 1.403 . S
C535 C532 1.403 1_655 S
C535 C536 1.524 . S
C535 C539 1.400 . S
C536 H521 0.960 . S
C536 H522 0.960 . S
C536 H523 0.960 . S
C536 C535 1.524 . S
C537 C534 1.403 . S
C537 C538 1.392 1_455 S
C537 C541 1.495 . S
C538 C537 1.392 1_655 S
C538 C539 1.385 . S
C538 C540 1.478 . S
C539 H533 0.930 . S
C539 C535 1.400 . S
C539 C538 1.385 . S
C540 C538 1.478 . S
C540 C542 1.381 . S
C540 C546 1.383 . S
C541 C537 1.495 . S
C541 H547 0.959 . S
C541 H548 0.961 . S
C541 H549 0.960 . S
C542 C540 1.381 . S
C542 C543 1.394 . S
C542 H550 0.930 . S
C543 C542 1.394 . S
C543 C544 1.383 . S
C543 H551 0.929 . S
C544 C543 1.383 . S
C544 C545 1.377 . S
C545 H529 0.930 . S
C545 C544 1.377 . S
C545 C546 1.379 . S
C546 H530 0.931 . S
C546 C540 1.383 . S
C546 C545 1.379 . S
H547 C541 0.959 . S
H548 C541 0.961 . S
H549 C541 0.960 . S
H550 C542 0.930 . S
H551 C543 0.929 . S
H552 C560 0.929 . S
H553 C562 0.930 . S
H554 C564 0.930 . S
H555 C567 0.929 . S
H556 C570 0.930 . S
H557 C572 0.960 . S
H558 C572 0.960 . S
H559 C572 0.960 . S
C560 H552 0.929 . S
C560 C561 1.377 . S
C560 C562 1.384 . S
C561 C560 1.377 . S
C561 C567 1.390 . S
C562 H553 0.930 . S
C562 C560 1.384 . S
C562 C563 1.372 . S
C563 C562 1.372 . S
C563 C564 1.400 . S
C563 C568 1.490 . S
C564 H554 0.930 . S
C564 C563 1.400 . S
C564 C567 1.386 . S
H565 C581 0.930 . S
H566 C582 0.931 . S
C567 H555 0.929 . S
C567 C561 1.390 . S
C567 C564 1.386 . S
C568 C563 1.490 . S
C568 C570 1.395 . S
C568 C571 1.403 . S
H569 C575 0.930 . S
C570 H556 0.930 . S
C570 C568 1.395 . S
C570 C573 1.403 . S
C571 C568 1.403 . S
C571 C572 1.524 . S
C571 C575 1.400 . S
C572 H557 0.960 . S
C572 H558 0.960 . S
C572 H559 0.960 . S
C572 C571 1.524 . S
C573 C570 1.403 . S
C573 C574 1.392 . S
C573 C577 1.495 . S
C574 C573 1.392 . S
C574 C575 1.385 . S
C574 C576 1.478 . S
C575 H569 0.930 . S
C575 C571 1.400 . S
C575 C574 1.385 . S
C576 C574 1.478 . S
C576 C578 1.381 . S
C576 C582 1.383 . S
C577 C573 1.495 . S
C577 H583 0.959 . S
C577 H584 0.961 . S
C577 H585 0.960 . S
C578 C576 1.381 . S
C578 C579 1.394 . S
C578 H586 0.930 . S
C579 C578 1.394 . S
C579 C580 1.383 . S
C579 H587 0.929 . S
C580 C579 1.383 . S
C580 C581 1.377 . S
C581 H565 0.930 . S
C581 C580 1.377 . S
C581 C582 1.379 . S
C582 H566 0.931 . S
C582 C576 1.383 . S
C582 C581 1.379 . S
H583 C577 0.959 . S
H584 C577 0.961 . S
H585 C577 0.960 . S
H586 C578 0.930 . S
H587 C579 0.929 . S
H588 C596 0.929 . S
H589 C598 0.930 . S
H590 C600 0.930 . S
H591 C603 0.929 . S
H592 C606 0.930 . S
H593 C608 0.960 . S
H594 C608 0.960 . S
H595 C608 0.960 . S
C596 H588 0.929 . S
C596 C597 1.377 . S
C596 C598 1.384 . S
C597 C596 1.377 . S
C597 C603 1.390 . S
C598 H589 0.930 . S
C598 C596 1.384 . S
C598 C599 1.372 . S
C599 C598 1.372 . S
C599 C600 1.400 . S
C599 C604 1.490 . S
C600 H590 0.930 . S
C600 C599 1.400 . S
C600 C603 1.386 . S
H601 C617 0.930 . S
H602 C618 0.931 . S
C603 H591 0.929 . S
C603 C597 1.390 . S
C603 C600 1.386 . S
C604 C599 1.490 . S
C604 C606 1.395 . S
C604 C607 1.403 . S
H605 C611 0.930 . S
C606 H592 0.930 . S
C606 C604 1.395 . S
C606 C609 1.403 . S
C607 C604 1.403 . S
C607 C608 1.524 . S
C607 C611 1.400 . S
C608 H593 0.960 . S
C608 H594 0.960 . S
C608 H595 0.960 . S
C608 C607 1.524 . S
C609 C606 1.403 . S
C609 C610 1.392 . S
C609 C613 1.495 . S
C610 C609 1.392 . S
C610 C611 1.385 . S
C610 C612 1.478 . S
C611 H605 0.930 . S
C611 C607 1.400 . S
C611 C610 1.385 . S
C612 C610 1.478 . S
C612 C614 1.381 . S
C612 C618 1.383 . S
C613 C609 1.495 . S
C613 H619 0.959 . S
C613 H620 0.961 . S
C613 H621 0.960 . S
C614 C612 1.381 . S
C614 C615 1.394 . S
C614 H622 0.930 . S
C615 C614 1.394 . S
C615 C616 1.383 . S
C615 H623 0.929 . S
C616 C615 1.383 . S
C616 C617 1.377 . S
C617 H601 0.930 . S
C617 C616 1.377 . S
C617 C618 1.379 . S
C618 H602 0.931 . S
C618 C612 1.383 . S
C618 C617 1.379 . S
H619 C613 0.959 . S
H620 C613 0.961 . S
H621 C613 0.960 . S
H622 C614 0.930 . S
H623 C615 0.929 . S
H624 C632 0.929 . S
H625 C634 0.930 . S
H626 C636 0.930 . S
H627 C639 0.929 . S
H628 C642 0.930 . S
H629 C644 0.960 . S
H630 C644 0.960 . S
H631 C644 0.960 . S
C632 H624 0.929 . S
C632 C633 1.377 . S
C632 C634 1.384 . S
C633 C632 1.377 . S
C633 C639 1.390 . S
C634 H625 0.930 . S
C634 C632 1.384 . S
C634 C635 1.372 . S
C635 C634 1.372 . S
C635 C636 1.400 . S
C635 C640 1.490 . S
C636 H626 0.930 . S
C636 C635 1.400 . S
C636 C639 1.386 . S
H637 C653 0.930 . S
H638 C654 0.931 . S
C639 H627 0.929 . S
C639 C633 1.390 . S
C639 C636 1.386 . S
C640 C635 1.490 . S
C640 C642 1.395 . S
C640 C643 1.403 . S
H641 C647 0.930 . S
C642 H628 0.930 . S
C642 C640 1.395 . S
C642 C645 1.403 . S
C643 C640 1.403 . S
C643 C644 1.524 . S
C643 C647 1.400 . S
C644 H629 0.960 . S
C644 H630 0.960 . S
C644 H631 0.960 . S
C644 C643 1.524 . S
C645 C642 1.403 . S
C645 C646 1.392 . S
C645 C649 1.495 . S
C646 C645 1.392 . S
C646 C647 1.385 . S
C646 C648 1.478 . S
C647 H641 0.930 . S
C647 C643 1.400 . S
C647 C646 1.385 . S
C648 C646 1.478 . S
C648 C650 1.381 . S
C648 C654 1.383 . S
C649 C645 1.495 . S
C649 H655 0.959 . S
C649 H656 0.961 . S
C649 H657 0.960 . S
C650 C648 1.381 . S
C650 C651 1.394 . S
C650 H658 0.930 . S
C651 C650 1.394 . S
C651 C652 1.383 . S
C651 H659 0.929 . S
C652 C651 1.383 . S
C652 C653 1.377 . S
C653 H637 0.930 . S
C653 C652 1.377 . S
C653 C654 1.379 . S
C654 H638 0.931 . S
C654 C648 1.383 . S
C654 C653 1.379 . S
H655 C649 0.959 . S
H656 C649 0.961 . S
H657 C649 0.960 . S
H658 C650 0.930 . S
H659 C651 0.929 . S
H660 C668 0.929 . S
H661 C670 0.930 . S
H662 C672 0.930 . S
H663 C675 0.929 . S
H664 C678 0.930 . S
H665 C680 0.960 . S
H666 C680 0.960 . S
H667 C680 0.960 . S
C668 H660 0.929 . S
C668 C669 1.377 . S
C668 C670 1.384 . S
C669 C668 1.377 . S
C669 C675 1.390 . S
C670 H661 0.930 . S
C670 C668 1.384 . S
C670 C671 1.372 . S
C671 C670 1.372 . S
C671 C672 1.400 . S
C671 C676 1.490 . S
C672 H662 0.930 . S
C672 C671 1.400 . S
C672 C675 1.386 . S
H673 C689 0.930 . S
H674 C690 0.931 . S
C675 H663 0.929 . S
C675 C669 1.390 . S
C675 C672 1.386 . S
C676 C671 1.490 . S
C676 C678 1.395 . S
C676 C679 1.403 . S
H677 C683 0.930 . S
C678 H664 0.930 . S
C678 C676 1.395 . S
C678 C681 1.403 . S
C679 C676 1.403 . S
C679 C680 1.524 . S
C679 C683 1.400 . S
C680 H665 0.960 . S
C680 H666 0.960 . S
C680 H667 0.960 . S
C680 C679 1.524 . S
C681 C678 1.403 . S
C681 C682 1.392 . S
C681 C685 1.495 . S
C682 C681 1.392 . S
C682 C683 1.385 . S
C682 C684 1.478 . S
C683 H677 0.930 . S
C683 C679 1.400 . S
C683 C682 1.385 . S
C684 C682 1.478 . S
C684 C686 1.381 . S
C684 C690 1.383 . S
C685 C681 1.495 . S
C685 H691 0.959 . S
C685 H692 0.961 . S
C685 H693 0.960 . S
C686 C684 1.381 . S
C686 C687 1.394 . S
C686 H694 0.930 . S
C687 C686 1.394 . S
C687 C688 1.383 . S
C687 H695 0.929 . S
C688 C687 1.383 . S
C688 C689 1.377 . S
C689 H673 0.930 . S
C689 C688 1.377 . S
C689 C690 1.379 . S
C690 H674 0.931 . S
C690 C684 1.383 . S
C690 C689 1.379 . S
H691 C685 0.959 . S
H692 C685 0.961 . S
H693 C685 0.960 . S
H694 C686 0.930 . S
H695 C687 0.929 . S
H696 C704 0.929 . S
H697 C706 0.930 . S
H698 C708 0.930 . S
H699 C711 0.929 . S
H700 C714 0.930 . S
H701 C716 0.960 . S
H702 C716 0.960 . S
H703 C716 0.960 . S
C704 H696 0.929 . S
C704 C705 1.377 . S
C704 C706 1.384 . S
C705 C704 1.377 . S
C705 C711 1.390 . S
C706 H697 0.930 . S
C706 C704 1.384 . S
C706 C707 1.372 . S
C707 C706 1.372 . S
C707 C708 1.400 . S
C707 C712 1.490 . S
C708 H698 0.930 . S
C708 C707 1.400 . S
C708 C711 1.386 . S
H709 C725 0.930 . S
H710 C726 0.931 . S
C711 H699 0.929 . S
C711 C705 1.390 . S
C711 C708 1.386 . S
C712 C707 1.490 . S
C712 C714 1.395 . S
C712 C715 1.403 . S
H713 C719 0.930 . S
C714 H700 0.930 . S
C714 C712 1.395 . S
C714 C717 1.403 . S
C715 C712 1.403 . S
C715 C716 1.524 . S
C715 C719 1.400 . S
C716 H701 0.960 . S
C716 H702 0.960 . S
C716 H703 0.960 . S
C716 C715 1.524 . S
C717 C714 1.403 . S
C717 C718 1.392 . S
C717 C721 1.495 . S
C718 C717 1.392 . S
C718 C719 1.385 . S
C718 C720 1.478 . S
C719 H713 0.930 . S
C719 C715 1.400 . S
C719 C718 1.385 . S
C720 C718 1.478 . S
C720 C722 1.381 . S
C720 C726 1.383 . S
C721 C717 1.495 . S
C721 H727 0.959 . S
C721 H728 0.961 . S
C721 H729 0.960 . S
C722 C720 1.381 . S
C722 C723 1.394 . S
C722 H730 0.930 . S
C723 C722 1.394 . S
C723 C724 1.383 . S
C723 H731 0.929 . S
C724 C723 1.383 . S
C724 C725 1.377 . S
C725 H709 0.930 . S
C725 C724 1.377 . S
C725 C726 1.379 . S
C726 H710 0.931 . S
C726 C720 1.383 . S
C726 C725 1.379 . S
H727 C721 0.959 . S
H728 C721 0.961 . S
H729 C721 0.960 . S
H730 C722 0.930 . S
H731 C723 0.929 . S
H732 C740 0.929 . S
H733 C742 0.930 . S
H734 C744 0.930 . S
H735 C747 0.929 . S
H736 C750 0.930 . S
H737 C752 0.960 . S
H738 C752 0.960 . S
H739 C752 0.960 . S
C740 H732 0.929 . S
C740 C741 1.377 . S
C740 C742 1.384 . S
C741 C740 1.377 . S
C741 C747 1.390 . S
C742 H733 0.930 . S
C742 C740 1.384 . S
C742 C743 1.372 . S
C743 C742 1.372 . S
C743 C744 1.400 . S
C743 C748 1.490 . S
C744 H734 0.930 . S
C744 C743 1.400 . S
C744 C747 1.386 . S
H745 C761 0.930 . S
H746 C762 0.931 . S
C747 H735 0.929 . S
C747 C741 1.390 . S
C747 C744 1.386 . S
C748 C743 1.490 . S
C748 C750 1.395 . S
C748 C751 1.403 . S
H749 C755 0.930 . S
C750 H736 0.930 . S
C750 C748 1.395 . S
C750 C753 1.403 . S
C751 C748 1.403 . S
C751 C752 1.524 . S
C751 C755 1.400 . S
C752 H737 0.960 . S
C752 H738 0.960 . S
C752 H739 0.960 . S
C752 C751 1.524 . S
C753 C750 1.403 . S
C753 C754 1.392 . S
C753 C757 1.495 . S
C754 C753 1.392 . S
C754 C755 1.385 . S
C754 C756 1.478 . S
C755 H749 0.930 . S
C755 C751 1.400 . S
C755 C754 1.385 . S
C756 C754 1.478 . S
C756 C758 1.381 . S
C756 C762 1.383 . S
C757 C753 1.495 . S
C757 H763 0.959 . S
C757 H764 0.961 . S
C757 H765 0.960 . S
C758 C756 1.381 . S
C758 C759 1.394 . S
C758 H766 0.930 . S
C759 C758 1.394 . S
C759 C760 1.383 . S
C759 H767 0.929 . S
C760 C759 1.383 . S
C760 C761 1.377 . S
C761 H745 0.930 . S
C761 C760 1.377 . S
C761 C762 1.379 . S
C762 H746 0.931 . S
C762 C756 1.383 . S
C762 C761 1.379 . S
H763 C757 0.959 . S
H764 C757 0.961 . S
H765 C757 0.960 . S
H766 C758 0.930 . S
H767 C759 0.929 . S
H768 C776 0.929 . S
H769 C778 0.930 . S
H770 C780 0.930 . S
H771 C783 0.929 . S
H772 C786 0.930 . S
H773 C788 0.960 . S
H774 C788 0.960 . S
H775 C788 0.960 . S
C776 H768 0.929 . S
C776 C777 1.377 . S
C776 C778 1.384 . S
C777 C776 1.377 . S
C777 C783 1.390 . S
C778 H769 0.930 . S
C778 C776 1.384 . S
C778 C779 1.372 . S
C779 C778 1.372 . S
C779 C780 1.400 . S
C779 C784 1.490 . S
C780 H770 0.930 . S
C780 C779 1.400 . S
C780 C783 1.386 . S
H781 C797 0.930 . S
H782 C798 0.931 . S
C783 H771 0.929 . S
C783 C777 1.390 . S
C783 C780 1.386 . S
C784 C779 1.490 . S
C784 C786 1.395 . S
C784 C787 1.403 . S
H785 C791 0.930 . S
C786 H772 0.930 . S
C786 C784 1.395 . S
C786 C789 1.403 . S
C787 C784 1.403 . S
C787 C788 1.524 . S
C787 C791 1.400 . S
C788 H773 0.960 . S
C788 H774 0.960 . S
C788 H775 0.960 . S
C788 C787 1.524 . S
C789 C786 1.403 . S
C789 C790 1.392 . S
C789 C793 1.495 . S
C790 C789 1.392 . S
C790 C791 1.385 . S
C790 C792 1.478 . S
C791 H785 0.930 . S
C791 C787 1.400 . S
C791 C790 1.385 . S
C792 C790 1.478 . S
C792 C794 1.381 . S
C792 C798 1.383 . S
C793 C789 1.495 . S
C793 H799 0.959 . S
C793 H800 0.961 . S
C793 H801 0.960 . S
C794 C792 1.381 . S
C794 C795 1.394 . S
C794 H802 0.930 . S
C795 C794 1.394 . S
C795 C796 1.383 . S
C795 H803 0.929 . S
C796 C795 1.383 . S
C796 C797 1.377 . S
C797 H781 0.930 . S
C797 C796 1.377 . S
C797 C798 1.379 . S
C798 H782 0.931 . S
C798 C792 1.383 . S
C798 C797 1.379 . S
H799 C793 0.959 . S
H800 C793 0.961 . S
H801 C793 0.960 . S
H802 C794 0.930 . S
H803 C795 0.929 . S
H804 C812 0.929 . S
H805 C814 0.930 . S
H806 C816 0.930 . S
H807 C819 0.929 . S
H808 C822 0.930 . S
H809 C824 0.960 . S
H810 C824 0.960 . S
H811 C824 0.960 . S
C812 H804 0.929 . S
C812 C813 1.377 . S
C812 C814 1.384 . S
C813 C812 1.377 . S
C813 C819 1.390 . S
C814 H805 0.930 . S
C814 C812 1.384 . S
C814 C815 1.372 . S
C815 C814 1.372 . S
C815 C816 1.400 . S
C815 C820 1.490 . S
C816 H806 0.930 . S
C816 C815 1.400 . S
C816 C819 1.386 . S
H817 C833 0.930 . S
H818 C834 0.931 . S
C819 H807 0.929 . S
C819 C813 1.390 . S
C819 C816 1.386 . S
C820 C815 1.490 . S
C820 C822 1.395 . S
C820 C823 1.403 . S
H821 C827 0.930 . S
C822 H808 0.930 . S
C822 C820 1.395 . S
C822 C825 1.403 . S
C823 C820 1.403 . S
C823 C824 1.524 . S
C823 C827 1.400 . S
C824 H809 0.960 . S
C824 H810 0.960 . S
C824 H811 0.960 . S
C824 C823 1.524 . S
C825 C822 1.403 . S
C825 C826 1.392 . S
C825 C829 1.495 . S
C826 C825 1.392 . S
C826 C827 1.385 . S
C826 C828 1.478 . S
C827 H821 0.930 . S
C827 C823 1.400 . S
C827 C826 1.385 . S
C828 C826 1.478 . S
C828 C830 1.381 . S
C828 C834 1.383 . S
C829 C825 1.495 . S
C829 H835 0.959 . S
C829 H836 0.961 . S
C829 H837 0.960 . S
C830 C828 1.381 . S
C830 C831 1.394 . S
C830 H838 0.930 . S
C831 C830 1.394 . S
C831 C832 1.383 . S
C831 H839 0.929 . S
C832 C831 1.383 . S
C832 C833 1.377 . S
C833 H817 0.930 . S
C833 C832 1.377 . S
C833 C834 1.379 . S
C834 H818 0.931 . S
C834 C828 1.383 . S
C834 C833 1.379 . S
H835 C829 0.959 . S
H836 C829 0.961 . S
H837 C829 0.960 . S
H838 C830 0.930 . S
H839 C831 0.929 . S
H840 C848 0.929 . S
H841 C850 0.930 1_565 S
H842 C852 0.930 . S
H843 C855 0.929 . S
H844 C858 0.930 . S
H845 C860 0.960 . S
H846 C860 0.960 . S
H847 C860 0.960 . S
C848 H840 0.929 . S
C848 C849 1.377 . S
C848 C850 1.384 . S
C849 C848 1.377 . S
C849 C855 1.390 . S
C850 H841 0.930 1_545 S
C850 C848 1.384 . S
C850 C851 1.372 . S
C851 C850 1.372 . S
C851 C852 1.400 . S
C851 C856 1.490 . S
C852 H842 0.930 . S
C852 C851 1.400 . S
C852 C855 1.386 . S
H853 C869 0.930 . S
H854 C870 0.931 1_545 S
C855 H843 0.929 . S
C855 C849 1.390 . S
C855 C852 1.386 . S
C856 C851 1.490 . S
C856 C858 1.395 1_545 S
C856 C859 1.403 . S
H857 C863 0.930 . S
C858 H844 0.930 . S
C858 C856 1.395 1_565 S
C858 C861 1.403 . S
C859 C856 1.403 . S
C859 C860 1.524 . S
C859 C863 1.400 . S
C860 H845 0.960 . S
C860 H846 0.960 . S
C860 H847 0.960 . S
C860 C859 1.524 . S
C861 C858 1.403 . S
C861 C862 1.392 . S
C861 C865 1.495 . S
C862 C861 1.392 . S
C862 C863 1.385 1_565 S
C862 C864 1.478 . S
C863 H857 0.930 . S
C863 C859 1.400 . S
C863 C862 1.385 1_545 S
C864 C862 1.478 . S
C864 C866 1.381 . S
C864 C870 1.383 . S
C865 C861 1.495 . S
C865 H871 0.959 . S
C865 H872 0.961 . S
C865 H873 0.960 . S
C866 C864 1.381 . S
C866 C867 1.394 . S
C866 H874 0.930 . S
C867 C866 1.394 . S
C867 C868 1.383 . S
C867 H875 0.929 . S
C868 C867 1.383 . S
C868 C869 1.377 . S
C869 H853 0.930 . S
C869 C868 1.377 . S
C869 C870 1.379 . S
C870 H854 0.931 1_565 S
C870 C864 1.383 . S
C870 C869 1.379 . S
H871 C865 0.959 . S
H872 C865 0.961 . S
H873 C865 0.960 . S
H874 C866 0.930 . S
H875 C867 0.929 . S
H876 C884 0.929 . S
H877 C886 0.930 . S
H878 C888 0.930 . S
H879 C891 0.929 . S
H880 C894 0.930 . S
H881 C896 0.960 . S
H882 C896 0.960 1_554 S
H883 C896 0.960 1_545 S
C884 H876 0.929 . S
C884 C885 1.377 . S
C884 C886 1.384 . S
C885 C884 1.377 . S
C885 C891 1.390 . S
C886 H877 0.930 . S
C886 C884 1.384 . S
C886 C887 1.372 . S
C887 C886 1.372 . S
C887 C888 1.400 . S
C887 C892 1.490 . S
C888 H878 0.930 . S
C888 C887 1.400 . S
C888 C891 1.386 . S
H889 C905 0.930 . S
H890 C906 0.931 1_545 S
C891 H879 0.929 . S
C891 C885 1.390 . S
C891 C888 1.386 . S
C892 C887 1.490 . S
C892 C894 1.395 . S
C892 C895 1.403 1_544 S
H893 C899 0.930 . S
C894 H880 0.930 . S
C894 C892 1.395 . S
C894 C897 1.403 . S
C895 C892 1.403 1_566 S
C895 C896 1.524 . S
C895 C899 1.400 . S
C896 H881 0.960 . S
C896 H882 0.960 1_556 S
C896 H883 0.960 1_565 S
C896 C895 1.524 . S
C897 C894 1.403 . S
C897 C898 1.392 1_544 S
C897 C901 1.495 . S
C898 C897 1.392 1_566 S
C898 C899 1.385 . S
C898 C900 1.478 . S
C899 H893 0.930 . S
C899 C895 1.400 . S
C899 C898 1.385 . S
C900 C898 1.478 . S
C900 C902 1.381 . S
C900 C906 1.383 . S
C901 C897 1.495 . S
C901 H907 0.959 . S
C901 H908 0.961 1_554 S
C901 H909 0.960 1_545 S
C902 C900 1.381 . S
C902 C903 1.394 . S
C902 H910 0.930 . S
C903 C902 1.394 . S
C903 C904 1.383 . S
C903 H911 0.929 . S
C904 C903 1.383 . S
C904 C905 1.377 . S
C905 H889 0.930 . S
C905 C904 1.377 . S
C905 C906 1.379 . S
C906 H890 0.931 1_565 S
C906 C900 1.383 . S
C906 C905 1.379 . S
H907 C901 0.959 . S
H908 C901 0.961 1_556 S
H909 C901 0.960 1_565 S
H910 C902 0.930 . S
H911 C903 0.929 . S
H912 C920 0.929 . S
H913 C922 0.930 . S
H914 C924 0.930 . S
H915 C927 0.929 . S
H916 C930 0.930 . S
H917 C932 0.945 1_655 S
H918 C932 0.954 . S
H919 C932 0.983 . S
C920 H912 0.929 . S
C920 C921 1.377 . S
C920 C922 1.384 . S
C921 C920 1.377 . S
C921 C927 1.390 . S
C922 H913 0.930 . S
C922 C920 1.384 . S
C922 C923 1.372 . S
C923 C922 1.372 . S
C923 C924 1.400 . S
C923 C928 1.490 . S
C924 H914 0.930 . S
C924 C923 1.400 . S
C924 C927 1.386 . S
H925 C941 0.930 . S
H926 C942 0.931 . S
C927 H915 0.929 . S
C927 C921 1.390 . S
C927 C924 1.386 . S
C928 C923 1.490 . S
C928 C930 1.395 . S
C928 C931 1.403 . S
H929 C935 0.930 . S
C930 H916 0.930 . S
C930 C928 1.395 . S
C930 C933 1.381 1_455 S
C931 C928 1.403 . S
C931 C932 1.524 . S
C931 C935 1.400 1_455 S
C932 H917 0.945 1_455 S
C932 H918 0.954 . S
C932 H919 0.983 . S
C932 C931 1.524 . S
C933 C930 1.381 1_655 S
C933 C934 1.414 . S
C933 C937 1.495 . S
C934 C933 1.414 . S
C934 C935 1.385 . S
C934 C936 1.478 . S
C935 H929 0.930 . S
C935 C931 1.400 1_655 S
C935 C934 1.385 . S
C936 C934 1.478 . S
C936 C938 1.381 . S
C936 C942 1.383 . S
C937 C933 1.495 . S
C937 H943 0.931 1_655 S
C937 H944 0.962 . S
C937 H945 1.004 . S
C938 C936 1.381 . S
C938 C939 1.394 . S
C938 H946 0.930 . S
C939 C938 1.394 . S
C939 C940 1.383 . S
C939 H947 0.929 . S
C940 C939 1.383 . S
C940 C941 1.377 . S
C941 H925 0.930 . S
C941 C940 1.377 . S
C941 C942 1.379 . S
C942 H926 0.931 . S
C942 C936 1.383 . S
C942 C941 1.379 . S
H943 C937 0.931 1_455 S
H944 C937 0.962 . S
H945 C937 1.004 . S
H946 C938 0.930 . S
H947 C939 0.929 . S
H948 C956 0.929 . S
H949 C958 0.930 . S
H950 C960 0.930 . S
H951 C963 0.929 . S
H952 C966 0.930 . S
H953 C968 0.960 . S
H954 C968 0.960 . S
H955 C968 0.960 . S
C956 H948 0.929 . S
C956 C957 1.377 . S
C956 C958 1.384 . S
C957 C956 1.377 . S
C957 C963 1.390 . S
C958 H949 0.930 . S
C958 C956 1.384 . S
C958 C959 1.372 . S
C959 C958 1.372 . S
C959 C960 1.400 . S
C959 C964 1.490 . S
C960 H950 0.930 . S
C960 C959 1.400 . S
C960 C963 1.386 . S
H961 C977 0.930 . S
H962 C978 0.931 . S
C963 H951 0.929 . S
C963 C957 1.390 . S
C963 C960 1.386 . S
C964 C959 1.490 . S
C964 C966 1.395 1_554 S
C964 C967 1.403 . S
H965 C971 0.928 1_554 S
C966 H952 0.930 . S
C966 C964 1.395 1_556 S
C966 C969 1.403 1_455 S
C967 C964 1.403 . S
C967 C968 1.524 . S
C967 C971 1.399 1_454 S
C968 H953 0.960 . S
C968 H954 0.960 . S
C968 H955 0.960 . S
C968 C967 1.524 . S
C969 C966 1.403 1_655 S
C969 C970 1.392 . S
C969 C973 1.495 . S
C970 C969 1.392 . S
C970 C971 1.386 . S
C970 C972 1.478 . S
C971 H965 0.928 1_556 S
C971 C967 1.399 1_656 S
C971 C970 1.386 . S
C972 C970 1.478 . S
C972 C974 1.381 . S
C972 C978 1.383 . S
C973 C969 1.495 . S
C973 H979 0.959 . S
C973 H980 0.961 . S
C973 H981 0.960 . S
C974 C972 1.381 . S
C974 C975 1.394 . S
C974 H982 0.930 . S
C975 C974 1.394 . S
C975 C976 1.383 . S
C975 H983 0.929 . S
C976 C975 1.383 . S
C976 C977 1.377 . S
C977 H961 0.930 . S
C977 C976 1.377 . S
C977 C978 1.379 . S
C978 H962 0.931 . S
C978 C972 1.383 . S
C978 C977 1.379 . S
H979 C973 0.959 . S
H980 C973 0.961 . S
H981 C973 0.960 . S
H982 C974 0.930 . S
H983 C975 0.929 . S
C273 N212 2.131 . S
C292 N14 2.138 . S
C309 N47 2.133 . S
C328 N245 2.140 . S
C345 N80 2.129 . S
C364 N146 2.123 . S
C381 N113 2.130 . S
C400 N179 2.115 . S
C417 N38 1.487 . S
C436 N5 1.477 . S
C453 N71 1.477 . S
C472 N104 1.485 . S
C489 N170 1.488 . S
C508 N137 1.466 . S
C525 N203 1.477 . S
C544 N236 1.490 . S
C561 C173 0.998 . S
C580 C17 0.999 . S
C597 C50 1.006 . S
C616 C140 0.979 . S
C633 C83 1.006 . S
C652 C239 1.013 . S
C669 C206 0.998 . S
C688 C116 1.015 . S
C705 C149 1.006 . S
C724 C41 0.985 . S
C741 C182 1.011 . S
C760 C8 1.024 . S
C777 C215 1.011 . S
C796 C107 0.978 . S
C813 C74 1.006 . S
C832 C248 1.003 . S
C849 C28 1.243 . S
C868 C94 1.251 . S
C885 C61 1.241 . S
C904 C127 1.233 . S
C921 C226 1.246 . S
C940 C160 1.258 . S
C957 C193 1.244 . S
C976 C259 1.227 . S
