# Generated by pormake.
# Topology umy, (4)-cn, num edge types: 1
# Building blocks:
#     Node 0, Type 0, BuildingBlock: QUQFOY_clean_sbu_1, # of connection points: 4
#     Node 1, Type 0, BuildingBlock: QUQFOY_clean_sbu_1, # of connection points: 4
#     Node 2, Type 0, BuildingBlock: QUQFOY_clean_sbu_1, # of connection points: 4
#     Node 3, Type 0, BuildingBlock: QUQFOY_clean_sbu_1, # of connection points: 4
#     Node 4, Type 0, BuildingBlock: QUQFOY_clean_sbu_1, # of connection points: 4
#     Node 5, Type 0, BuildingBlock: QUQFOY_clean_sbu_1, # of connection points: 4
#     Node 6, Type 0, BuildingBlock: QUQFOY_clean_sbu_1, # of connection points: 4
#     Node 7, Type 0, BuildingBlock: QUQFOY_clean_sbu_1, # of connection points: 4
#     Node 8, Type 0, BuildingBlock: QUQFOY_clean_sbu_1, # of connection points: 4
#     Node 9, Type 0, BuildingBlock: QUQFOY_clean_sbu_1, # of connection points: 4
#     Node 10, Type 0, BuildingBlock: QUQFOY_clean_sbu_1, # of connection points: 4
#     Node 11, Type 0, BuildingBlock: QUQFOY_clean_sbu_1, # of connection points: 4
#     Edge 12, Type (0, 0), BuildingBlock: TEMPAE_clean_linker_10, # of connection points: 2
#     Edge 13, Type (0, 0), BuildingBlock: TEMPAE_clean_linker_10, # of connection points: 2
#     Edge 14, Type (0, 0), BuildingBlock: TEMPAE_clean_linker_10, # of connection points: 2
#     Edge 15, Type (0, 0), BuildingBlock: TEMPAE_clean_linker_10, # of connection points: 2
#     Edge 16, Type (0, 0), BuildingBlock: TEMPAE_clean_linker_10, # of connection points: 2
#     Edge 17, Type (0, 0), BuildingBlock: TEMPAE_clean_linker_10, # of connection points: 2
#     Edge 18, Type (0, 0), BuildingBlock: TEMPAE_clean_linker_10, # of connection points: 2
#     Edge 19, Type (0, 0), BuildingBlock: TEMPAE_clean_linker_10, # of connection points: 2
#     Edge 20, Type (0, 0), BuildingBlock: TEMPAE_clean_linker_10, # of connection points: 2
#     Edge 21, Type (0, 0), BuildingBlock: TEMPAE_clean_linker_10, # of connection points: 2
#     Edge 22, Type (0, 0), BuildingBlock: TEMPAE_clean_linker_10, # of connection points: 2
#     Edge 23, Type (0, 0), BuildingBlock: TEMPAE_clean_linker_10, # of connection points: 2
#     Edge 24, Type (0, 0), BuildingBlock: TEMPAE_clean_linker_10, # of connection points: 2
#     Edge 25, Type (0, 0), BuildingBlock: TEMPAE_clean_linker_10, # of connection points: 2
#     Edge 26, Type (0, 0), BuildingBlock: TEMPAE_clean_linker_10, # of connection points: 2
#     Edge 27, Type (0, 0), BuildingBlock: TEMPAE_clean_linker_10, # of connection points: 2
#     Edge 28, Type (0, 0), BuildingBlock: TEMPAE_clean_linker_10, # of connection points: 2
#     Edge 29, Type (0, 0), BuildingBlock: TEMPAE_clean_linker_10, # of connection points: 2
#     Edge 30, Type (0, 0), BuildingBlock: TEMPAE_clean_linker_10, # of connection points: 2
#     Edge 31, Type (0, 0), BuildingBlock: TEMPAE_clean_linker_10, # of connection points: 2
#     Edge 32, Type (0, 0), BuildingBlock: TEMPAE_clean_linker_10, # of connection points: 2
#     Edge 33, Type (0, 0), BuildingBlock: TEMPAE_clean_linker_10, # of connection points: 2
#     Edge 34, Type (0, 0), BuildingBlock: TEMPAE_clean_linker_10, # of connection points: 2
#     Edge 35, Type (0, 0), BuildingBlock: TEMPAE_clean_linker_10, # of connection points: 2
# Relax obj value: 0.088
# Max RMSD: 0.117
# Mean RMSD: 0.117
data_MOF--net-umy--node1-QUQFOY_clean_sbu_1--edge1-TEMPAE_clean_linker_10
_symmetry_space_group_name_H-M    P1
_symmetry_Int_Tables_number       1
_symmetry_cell_setting            triclinic
loop_
_symmetry_equiv_pos_as_xyz
'x, y, z'
_cell_length_a     41.848184
_cell_length_b     41.845019
_cell_length_c     52.044785
_cell_angle_alpha  89.978225
_cell_angle_beta   90.00591
_cell_angle_gamma 120.00518
loop_
_atom_site_label
_atom_site_type_symbol
_atom_site_fract_x
_atom_site_fract_y
_atom_site_fract_z
_atom_type_partial_charge
O0 O 1.00855 0.32256 0.15062 0.0
Cd1 Cd 0.05882 0.36963 0.14418 0.0
Cd2 Cd 0.07523 0.3172 0.12567 0.0
O3 O 0.02 0.28103 0.13355 0.0
O4 O 0.04821 0.41093 0.14729 0.0
O5 O 0.07063 0.40021 0.11192 0.0
C6 C 0.05968 0.41999 0.12401 0.0
C7 C 0.10337 0.30918 0.08909 0.0
C8 C 0.9981 0.28918 0.14495 0.0
C9 C 0.11678 0.36272 0.17259 0.0
O10 O 0.11026 0.33685 0.15693 0.0
O11 O 0.09977 0.38063 0.17057 0.0
O12 O 0.09312 0.28666 0.10821 0.0
O13 O 0.09593 0.33563 0.09004 0.0
O14 O 0.69025 1.00591 0.31774 0.0
Cd15 Cd 0.69351 0.05622 0.31135 0.0
Cd16 Cd 0.76238 0.07262 0.29294 0.0
O17 O 0.74326 0.01735 0.30075 0.0
O18 O 0.64155 0.0455 0.31421 0.0
O19 O 0.67511 0.06831 0.27903 0.0
C20 C 0.64423 0.05717 0.29096 0.0
C21 C 0.79866 0.10085 0.25642 0.0
C22 C 0.71317 0.99544 0.31209 0.0
C23 C 0.75824 0.11407 0.33989 0.0
O24 O 0.77763 0.10756 0.32425 0.0
O25 O 0.72332 0.09708 0.33783 0.0
O26 O 0.81087 0.09055 0.27555 0.0
O27 O 0.76478 0.09343 0.25734 0.0
O28 O 0.68749 0.68669 0.48476 0.0
Cd29 Cd 0.64031 0.68971 0.47841 0.0
Cd30 Cd 0.69267 0.75867 0.45966 0.0
O31 O 0.72885 0.7396 0.46748 0.0
O32 O 0.59912 0.63776 0.48167 0.0
O33 O 0.60964 0.67073 0.44622 0.0
C34 C 0.58998 0.64002 0.45838 0.0
C35 C 0.70097 0.79515 0.42319 0.0
C36 C 0.72082 0.70963 0.47896 0.0
C37 C 0.64725 0.75468 0.5067 0.0
O38 O 0.67304 0.77399 0.49096 0.0
O39 O 0.62936 0.71974 0.50477 0.0
O40 O 0.72339 0.80723 0.44237 0.0
O41 O 0.67445 0.76129 0.42403 0.0
O42 O 1.00596 0.68621 0.65063 0.0
Cd43 Cd 0.95586 0.63886 0.64437 0.0
Cd44 Cd 0.93879 0.691 0.62588 0.0
O45 O 0.99403 0.72744 0.63359 0.0
O46 O 0.96696 0.5979 0.64758 0.0
O47 O 0.94416 0.60814 0.6122 0.0
C48 C 0.95544 0.58864 0.62433 0.0
C49 C 0.91024 0.699 0.58952 0.0
C50 C 0.01614 0.71953 0.64493 0.0
C51 C 0.89776 0.64536 0.67294 0.0
O52 O 0.90401 0.67114 0.65726 0.0
O53 O 0.91497 0.62764 0.67087 0.0
O54 O 0.92056 0.72144 0.60867 0.0
O55 O 0.91783 0.67265 0.5903 0.0
O56 O 0.32486 1.0039 0.81683 0.0
Cd57 Cd 0.32216 0.95386 0.81036 0.0
Cd58 Cd 0.25281 0.93685 0.792 0.0
O59 O 0.27162 0.99202 0.79998 0.0
O60 O 0.37422 0.96501 0.81367 0.0
O61 O 0.34142 0.94244 0.77819 0.0
C62 C 0.37211 0.95364 0.79039 0.0
C63 C 0.21617 0.90862 0.75562 0.0
C64 C 0.30168 0.01408 0.81129 0.0
C65 C 0.25754 0.89542 0.83878 0.0
O66 O 0.23796 0.90175 0.82321 0.0
O67 O 0.29246 0.91273 0.8367 0.0
O68 O 0.20408 0.91874 0.7749 0.0
O69 O 0.25013 0.91624 0.75629 0.0
O70 O 0.32569 0.32249 0.98346 0.0
Cd71 Cd 0.37306 0.31975 0.97731 0.0
Cd72 Cd 0.32094 0.2504 0.95887 0.0
O73 O 0.28449 0.26916 0.96663 0.0
O74 O 0.41401 0.37182 0.98055 0.0
O75 O 0.40397 0.33878 0.94521 0.0
C76 C 0.42341 0.36954 0.95734 0.0
C77 C 0.31279 0.21378 0.92253 0.0
C78 C 0.29238 0.29925 0.97785 0.0
C79 C 0.36664 0.2552 0.00594 0.0
O80 O 0.34096 0.23558 0.99023 0.0
O81 O 0.3842 0.29013 0.00389 0.0
O82 O 0.29047 0.20166 0.94176 0.0
O83 O 0.33911 0.24774 0.92323 0.0
O84 O 0.68988 1.00388 0.68472 0.0
Cd85 Cd 0.64257 0.95379 0.69111 0.0
Cd86 Cd 0.69494 0.93685 0.70956 0.0
O87 O 0.73125 0.99206 0.70164 0.0
O88 O 0.60163 0.96489 0.68773 0.0
O89 O 0.61178 0.94229 0.72324 0.0
C90 C 0.59232 0.9535 0.711 0.0
C91 C 0.7033 0.90864 0.74598 0.0
C92 C 0.72324 0.01411 0.69032 0.0
C93 C 0.64896 0.89548 0.66271 0.0
O94 O 0.67484 0.90181 0.67832 0.0
O95 O 0.63129 0.91273 0.66476 0.0
O96 O 0.72557 0.9188 0.72672 0.0
O97 O 0.67692 0.91619 0.74525 0.0
O98 O 0.69159 0.68679 0.85153 0.0
Cd99 Cd 0.69433 0.63946 0.85794 0.0
Cd100 Cd 0.76362 0.69182 0.87634 0.0
O101 O 0.74473 0.72815 0.86851 0.0
O102 O 0.64228 0.59854 0.85454 0.0
O103 O 0.67497 0.60866 0.89007 0.0
C104 C 0.64431 0.58922 0.87783 0.0
C105 C 0.80023 0.70001 0.9127 0.0
C106 C 0.71469 0.72014 0.85716 0.0
C107 C 0.75901 0.64593 0.82945 0.0
O108 O 0.77854 0.67185 0.84503 0.0
O109 O 0.72409 0.62816 0.83157 0.0
O110 O 0.81231 0.72238 0.89349 0.0
O111 O 0.7663 0.67363 0.91197 0.0
O112 O 0.01066 0.6875 0.01724 0.0
Cd113 Cd 0.06078 0.6903 0.0235 0.0
Cd114 Cd 0.07772 0.75941 0.04215 0.0
O115 O 0.02246 0.7405 0.03447 0.0
O116 O 0.04975 0.63828 0.02022 0.0
O117 O 0.07244 0.67119 0.05564 0.0
C118 C 0.06121 0.64046 0.04348 0.0
C119 C 0.10621 0.79599 0.07851 0.0
C120 C 1.0004 0.71054 0.02304 0.0
C121 C 0.11884 0.7551 0.99505 0.0
O122 O 0.1125 0.77452 0.01077 0.0
O123 O 0.10171 0.72016 0.99706 0.0
O124 O 0.09579 0.80805 0.05937 0.0
O125 O 0.09876 0.76209 0.07772 0.0
O126 O 0.32807 0.00733 0.18347 0.0
Cd127 Cd 0.37498 0.05767 0.1901 0.0
Cd128 Cd 0.32211 0.07348 0.20883 0.0
O129 O 0.28633 0.01818 0.20089 0.0
O130 O 0.41647 0.04741 0.18663 0.0
O131 O 0.40555 0.06899 0.22233 0.0
C132 C 0.42545 0.05841 0.21001 0.0
C133 C 0.31369 0.10128 0.24545 0.0
C134 C 0.29467 0.99657 0.18927 0.0
C135 C 0.36757 0.11561 0.16202 0.0
O136 O 0.34151 0.10866 0.17762 0.0
O137 O 0.38579 0.09891 0.164 0.0
O138 O 0.29117 0.09087 0.22633 0.0
O139 O 0.34037 0.09419 0.24448 0.0
O140 O 0.32474 0.32269 0.35092 0.0
Cd141 Cd 0.32154 0.36978 0.35728 0.0
Cd142 Cd 0.25264 0.31732 0.37573 0.0
O143 O 0.27176 0.28116 0.368 0.0
O144 O 0.37347 0.41105 0.35423 0.0
O145 O 0.3402 0.40034 0.38954 0.0
C146 C 0.37099 0.4201 0.3775 0.0
C147 C 0.21634 0.30938 0.41222 0.0
C148 C 0.30182 0.28931 0.35662 0.0
C149 C 0.25676 0.36281 0.32872 0.0
O150 O 0.23738 0.33692 0.34437 0.0
O151 O 0.29168 0.38077 0.3308 0.0
O152 O 0.20414 0.2868 0.39314 0.0
O153 O 0.25023 0.33583 0.41129 0.0
O154 O 1.00676 0.32236 0.51757 0.0
Cd155 Cd 0.95662 0.31947 0.52396 0.0
Cd156 Cd 0.93984 0.25042 0.54266 0.0
O157 O 0.99503 0.26932 0.53471 0.0
O158 O 0.96747 0.37145 0.52075 0.0
O159 O 0.94497 0.33844 0.55617 0.0
C160 C 0.95604 0.36917 0.54403 0.0
C161 C 0.91172 0.21395 0.57914 0.0
C162 C 0.01703 0.2993 0.52328 0.0
C163 C 0.89835 0.2546 0.49572 0.0
O164 O 0.90473 0.23521 0.51145 0.0
O165 O 0.91558 0.28955 0.49762 0.0
O166 O 0.92191 0.20182 0.55992 0.0
O167 O 0.9192 0.24786 0.57835 0.0
C168 C 0.03889 0.57294 0.04571 0.0
C169 C 0.06143 0.60854 0.05557 0.0
C170 C 0.03872 0.54222 0.05668 0.0
C171 C 0.06231 0.54729 0.07768 0.0
C172 C 0.08547 0.58324 0.08754 0.0
C173 C 0.08442 0.61342 0.07656 0.0
C174 C 0.01299 0.50428 0.04598 0.0
C175 C 0.11151 0.58984 0.10959 0.0
C176 C 0.03805 0.46573 0.12163 0.0
C177 C 0.06027 0.45227 0.11183 0.0
C178 C 0.03833 0.49648 0.11062 0.0
C179 C 0.06205 0.51478 0.08963 0.0
C180 C 0.08486 0.50155 0.0798 0.0
C181 C 0.08338 0.47015 0.09083 0.0
C182 C 0.01294 0.50915 0.12128 0.0
C183 C 0.11102 0.52074 0.05776 0.0
H184 H 0.0209 0.56898 0.02957 0.0
H185 H 0.1021 0.64092 0.08411 0.0
H186 H 0.02903 0.49142 0.03909 0.0
H187 H 0.99422 0.48623 0.06132 0.0
H188 H 0.99602 0.505 0.02981 0.0
H189 H 0.12865 0.61959 0.11441 0.0
H190 H 0.09565 0.57484 0.12691 0.0
H191 H 0.13006 0.57891 0.10472 0.0
H192 H 0.01998 0.45188 0.13778 0.0
H193 H 0.10081 0.46001 0.08332 0.0
H194 H 0.99438 0.50877 0.10591 0.0
H195 H 0.02929 0.53801 0.12821 0.0
H196 H 0.99577 0.49155 0.13742 0.0
H197 H 0.0953 0.52017 0.04044 0.0
H198 H 0.12781 0.50775 0.05293 0.0
H199 H 0.12991 0.55015 0.06265 0.0
C200 C 0.57671 0.03419 0.28753 0.0
C201 C 0.61266 0.05775 0.27863 0.0
C202 C 0.5463 0.03443 0.27638 0.0
C203 C 0.55204 0.05953 0.25626 0.0
C204 C 0.58836 0.0837 0.24737 0.0
C205 C 0.61822 0.08218 0.25844 0.0
C206 C 0.50798 0.00756 0.28598 0.0
C207 C 0.59566 0.11137 0.22632 0.0
C208 C 0.47202 0.03776 0.21142 0.0
C209 C 0.45772 0.05881 0.22205 0.0
C210 C 0.50263 0.03771 0.22239 0.0
C211 C 0.51989 0.05986 0.24423 0.0
C212 C 0.50586 0.08155 0.25488 0.0
C213 C 0.47466 0.08044 0.24383 0.0
C214 C 0.51621 0.01358 0.21079 0.0
C215 C 0.52392 0.10602 0.27788 0.0
H216 H 0.57227 0.01509 0.30304 0.0
H217 H 0.64602 0.10065 0.25167 0.0
H218 H 0.49457 0.02277 0.29346 0.0
H219 H 0.49074 0.99002 0.26988 0.0
H220 H 0.50819 0.98936 0.30145 0.0
H221 H 0.62558 0.12904 0.22219 0.0
H222 H 0.58145 0.09684 0.20842 0.0
H223 H 0.58432 0.12935 0.23186 0.0
H224 H 0.45894 0.02083 0.19466 0.0
H225 H 0.46388 0.09697 0.252 0.0
H226 H 0.51532 0.99384 0.22541 0.0
H227 H 0.54535 0.03072 0.20462 0.0
H228 H 0.49949 0.9977 0.19395 0.0
H229 H 0.52268 0.08903 0.29462 0.0
H230 H 0.51053 0.12226 0.28323 0.0
H231 H 0.55351 0.1254 0.27379 0.0
C232 C 0.53988 0.61319 0.42519 0.0
C233 C 0.55781 0.60819 0.44625 0.0
C234 C 0.50865 0.5831 0.41415 0.0
C235 C 0.49563 0.54711 0.42405 0.0
C236 C 0.51395 0.54193 0.44513 0.0
C237 C 0.54452 0.57256 0.45615 0.0
C238 C 0.48943 0.58983 0.39201 0.0
C239 C 0.50151 0.50395 0.45587 0.0
C240 C 0.39739 0.47025 0.41066 0.0
C241 C 0.40265 0.45232 0.38973 0.0
C242 C 0.42731 0.50159 0.42174 0.0
C243 C 0.4634 0.5147 0.41203 0.0
C244 C 0.46886 0.49635 0.3911 0.0
C245 C 0.43839 0.46567 0.38003 0.0
C246 C 0.42029 0.52083 0.44371 0.0
C247 C 0.50696 0.50888 0.38057 0.0
H248 H 0.54988 0.64072 0.41761 0.0
H249 H 0.5584 0.56851 0.47235 0.0
H250 H 0.49034 0.57481 0.37473 0.0
H251 H 0.45993 0.57899 0.39679 0.0
H252 H 0.50217 0.6196 0.38719 0.0
H253 H 0.51904 0.50457 0.47211 0.0
H254 H 0.47257 0.4912 0.46265 0.0
H255 H 0.50224 0.48586 0.44057 0.0
H256 H 0.36978 0.46019 0.41809 0.0
H257 H 0.44264 0.45178 0.36394 0.0
H258 H 0.43097 0.55027 0.4388 0.0
H259 H 0.43527 0.52017 0.46109 0.0
H260 H 0.39048 0.50795 0.44844 0.0
H261 H 0.51962 0.53775 0.37364 0.0
H262 H 0.50656 0.49126 0.36447 0.0
H263 H 0.52498 0.50839 0.39602 0.0
C264 C 0.97765 0.54336 0.62207 0.0
C265 C 0.95517 0.5565 0.61222 0.0
C266 C 0.97771 0.51275 0.6111 0.0
C267 C 0.95407 0.49426 0.59013 0.0
C268 C 0.93099 0.50716 0.58026 0.0
C269 C 0.93214 0.53842 0.59123 0.0
C270 C 1.00337 0.50045 0.62182 0.0
C271 C 0.90491 0.48776 0.55822 0.0
C272 C 0.97794 0.4366 0.54627 0.0
C273 C 0.95561 0.40096 0.55614 0.0
C274 C 0.97782 0.46718 0.55723 0.0
C275 C 0.95417 0.46192 0.57822 0.0
C276 C 0.93124 0.42592 0.58811 0.0
C277 C 0.93257 0.39589 0.57714 0.0
C278 C 1.00331 0.50519 0.5465 0.0
C279 C 0.90515 0.4191 0.61016 0.0
H280 H 0.99567 0.55736 0.6382 0.0
H281 H 0.9145 0.54831 0.58369 0.0
H282 H 0.98724 0.47157 0.62876 0.0
H283 H 0.02204 0.50103 0.60646 0.0
H284 H 0.02042 0.51815 0.63794 0.0
H285 H 0.88789 0.50048 0.55336 0.0
H286 H 0.92073 0.48849 0.54092 0.0
H287 H 0.88625 0.45831 0.56314 0.0
H288 H 0.99596 0.44071 0.53013 0.0
H289 H 0.91505 0.36835 0.5847 0.0
H290 H 0.02195 0.52336 0.56185 0.0
H291 H 0.98706 0.51779 0.53957 0.0
H292 H 0.02041 0.50463 0.53037 0.0
H293 H 0.92093 0.43425 0.62746 0.0
H294 H 0.88826 0.38934 0.61504 0.0
H295 H 0.88636 0.42974 0.60526 0.0
C296 C 0.54702 0.9757 0.71301 0.0
C297 C 0.56012 0.95325 0.72299 0.0
C298 C 0.51632 0.97573 0.72383 0.0
C299 C 0.49771 0.95211 0.7448 0.0
C300 C 0.51057 0.92908 0.75481 0.0
C301 C 0.54193 0.93025 0.74397 0.0
C302 C 0.50405 1.00134 0.71298 0.0
C303 C 0.49105 0.90301 0.77684 0.0
C304 C 0.4396 0.97581 0.78832 0.0
C305 C 0.40404 0.95338 0.77837 0.0
C306 C 0.4703 0.97579 0.77749 0.0
C307 C 0.46524 0.95215 0.75654 0.0
C308 C 0.42933 0.92915 0.74655 0.0
C309 C 0.39918 0.93037 0.7574 0.0
C310 C 0.50821 1.00137 0.78831 0.0
C311 C 0.42273 0.90306 0.72454 0.0
H312 H 0.56111 0.99369 0.69688 0.0
H313 H 0.55178 0.91264 0.75162 0.0
H314 H 0.47524 0.98518 0.70593 0.0
H315 H 0.50446 0.02001 0.72828 0.0
H316 H 0.52187 0.01841 0.69689 0.0
H317 H 0.50379 0.88605 0.78183 0.0
H318 H 0.4916 0.91884 0.79409 0.0
H319 H 0.46164 0.88429 0.77184 0.0
H320 H 0.44354 0.99381 0.80445 0.0
H321 H 0.3717 0.91277 0.74978 0.0
H322 H 0.52647 0.02 0.77299 0.0
H323 H 0.5208 0.98517 0.79538 0.0
H324 H 0.5075 0.01848 0.80438 0.0
H325 H 0.43803 0.91886 0.70728 0.0
H326 H 0.39302 0.88614 0.71956 0.0
H327 H 0.43335 0.88429 0.72957 0.0
C328 C 0.47395 0.39636 0.92446 0.0
C329 C 0.45571 0.40138 0.94531 0.0
C330 C 0.5054 0.42642 0.9136 0.0
C331 C 0.51833 0.46241 0.92345 0.0
C332 C 0.49967 0.46762 0.94429 0.0
C333 C 0.46887 0.43701 0.95514 0.0
C334 C 0.52497 0.41966 0.89172 0.0
C335 C 0.51201 0.5056 0.95497 0.0
C336 C 0.617 0.53896 0.91091 0.0
C337 C 0.61229 0.55706 0.88982 0.0
C338 C 0.58676 0.50768 0.92177 0.0
C339 C 0.5509 0.49478 0.91168 0.0
C340 C 0.546 0.51329 0.8906 0.0
C341 C 0.57679 0.54392 0.87976 0.0
C342 C 0.59318 0.48827 0.94393 0.0
C343 C 0.50816 0.50098 0.87965 0.0
H344 H 0.46405 0.36883 0.91694 0.0
H345 H 0.45475 0.44107 0.97117 0.0
H346 H 0.52455 0.43485 0.87437 0.0
H347 H 0.55433 0.43029 0.89681 0.0
H348 H 0.51216 0.38991 0.88684 0.0
H349 H 0.49415 0.50501 0.97097 0.0
H350 H 0.54078 0.51822 0.96209 0.0
H351 H 0.51173 0.52379 0.93955 0.0
H352 H 0.64443 0.54885 0.91862 0.0
H353 H 0.57296 0.55794 0.86355 0.0
H354 H 0.58248 0.45883 0.93904 0.0
H355 H 0.57787 0.48895 0.96111 0.0
H356 H 0.62287 0.50101 0.94897 0.0
H357 H 0.49552 0.47212 0.87271 0.0
H358 H 0.509 0.5187 0.86347 0.0
H359 H 0.48987 0.50152 0.89487 0.0
C360 C 0.14064 0.28303 0.07106 0.0
C361 C 0.12573 0.30629 0.06804 0.0
C362 C 0.16546 0.28278 0.05309 0.0
C363 C 0.1752 0.30583 0.03116 0.0
C364 C 0.15876 0.32796 0.02724 0.0
C365 C 0.13451 0.32826 0.0459 0.0
C366 C 0.18264 0.25909 0.05827 0.0
C367 C 0.1677 0.35218 0.00379 0.0
C368 C 0.27039 0.33278 0.00601 0.0
C369 C 0.26236 0.30517 0.98766 0.0
C370 C 0.24216 0.33462 0.01927 0.0
C371 C 0.20484 0.30866 0.01375 0.0
C372 C 0.19649 0.28262 0.9938 0.0
C373 C 0.22534 0.28093 0.98116 0.0
C374 C 0.2524 0.36261 0.04056 0.0
C375 C 0.15708 0.25512 0.98684 0.0
H376 H 0.13411 0.26599 0.08811 0.0
H377 H 0.12294 0.34615 0.04334 0.0
H378 H 0.17814 0.24067 0.04169 0.0
H379 H 0.2129 0.27693 0.06076 0.0
H380 H 0.17121 0.24183 0.07577 0.0
H381 H 0.14909 0.36382 0.00184 0.0
H382 H 0.19653 0.37536 0.00505 0.0
H383 H 0.1656 0.33633 0.98616 0.0
H384 H 0.29884 0.35175 0.01118 0.0
H385 H 0.2188 0.25972 0.96685 0.0
H386 H 0.2445 0.34816 0.05936 0.0
H387 H 0.23715 0.37781 0.03846 0.0
H388 H 0.28244 0.38291 0.04092 0.0
H389 H 0.14479 0.23372 0.00204 0.0
H390 H 0.15519 0.24121 0.96827 0.0
H391 H 0.14029 0.26885 0.98562 0.0
C392 C 0.8621 0.1378 0.23833 0.0
C393 C 0.82396 0.12319 0.23538 0.0
C394 C 0.88725 0.16257 0.22036 0.0
C395 C 0.87404 0.17258 0.19851 0.0
C396 C 0.8355 0.15648 0.19467 0.0
C397 C 0.81087 0.13226 0.21331 0.0
C398 C 0.92809 0.17937 0.22544 0.0
C399 C 0.82033 0.16576 0.17132 0.0
C400 C 0.94287 0.26762 0.17336 0.0
C401 C 0.96211 0.25936 0.15488 0.0
C402 C 0.91273 0.23953 0.18668 0.0
C403 C 0.90097 0.20214 0.18109 0.0
C404 C 0.91835 0.19359 0.16103 0.0
C405 C 0.94895 0.22229 0.14832 0.0
C406 C 0.89532 0.24998 0.20809 0.0
C407 C 0.90603 0.15411 0.154 0.0
H408 H 0.87254 0.13104 0.2553 0.0
H409 H 0.78144 0.12094 0.21081 0.0
H410 H 0.94183 0.17476 0.2088 0.0
H411 H 0.94079 0.20965 0.228 0.0
H412 H 0.93383 0.16774 0.24288 0.0
H413 H 0.79001 0.14743 0.16943 0.0
H414 H 0.82634 0.1947 0.17263 0.0
H415 H 0.83386 0.1635 0.15362 0.0
H416 H 0.95265 0.29611 0.17858 0.0
H417 H 0.96337 0.21558 0.13391 0.0
H418 H 0.90185 0.24191 0.22683 0.0
H419 H 0.86487 0.23499 0.20608 0.0
H420 H 0.90537 0.28008 0.2085 0.0
H421 H 0.91496 0.1416 0.16914 0.0
H422 H 0.91789 0.15211 0.13539 0.0
H423 H 0.87549 0.13759 0.15282 0.0
C424 C 0.72772 0.8587 0.40523 0.0
C425 C 0.7041 0.82059 0.40219 0.0
C426 C 0.72827 0.88399 0.3873 0.0
C427 C 0.70512 0.87095 0.36542 0.0
C428 C 0.68258 0.83243 0.3615 0.0
C429 C 0.68202 0.80767 0.38009 0.0
C430 C 0.75241 0.9248 0.39248 0.0
C431 C 0.65821 0.81744 0.3381 0.0
C432 C 0.6793 0.94011 0.3404 0.0
C433 C 0.70688 0.95939 0.32197 0.0
C434 C 0.6771 0.90986 0.35366 0.0
C435 C 0.70266 0.89802 0.34806 0.0
C436 C 0.72867 0.91545 0.32804 0.0
C437 C 0.73073 0.94616 0.3154 0.0
C438 C 0.64916 0.89242 0.37502 0.0
C439 C 0.75576 0.90305 0.321 0.0
H440 H 0.74487 0.86902 0.42223 0.0
H441 H 0.66383 0.77826 0.37753 0.0
H442 H 0.77083 0.93858 0.37587 0.0
H443 H 0.7349 0.93757 0.39506 0.0
H444 H 0.7697 0.93039 0.40994 0.0
H445 H 0.64614 0.78712 0.33615 0.0
H446 H 0.63534 0.82353 0.33943 0.0
H447 H 0.67408 0.83103 0.32044 0.0
H448 H 0.66063 0.94994 0.34563 0.0
H449 H 0.75191 0.9606 0.30102 0.0
H450 H 0.66369 0.8988 0.39378 0.0
H451 H 0.63361 0.86197 0.37294 0.0
H452 H 0.62918 0.90255 0.37545 0.0
H453 H 0.77715 0.91184 0.33617 0.0
H454 H 0.76971 0.91498 0.30242 0.0
H455 H 0.74166 0.87251 0.31975 0.0
C456 C 0.74265 0.67609 0.50728 0.0
C457 C 0.75074 0.70354 0.48879 0.0
C458 C 0.77085 0.6741 0.52047 0.0
C459 C 0.80819 0.69975 0.51474 0.0
C460 C 0.81656 0.72564 0.49467 0.0
C461 C 0.78775 0.72748 0.48209 0.0
C462 C 0.76059 0.64627 0.54189 0.0
C463 C 0.85597 0.75283 0.48751 0.0
C464 C 0.87303 0.72536 0.57168 0.0
C465 C 0.88767 0.70188 0.5686 0.0
C466 C 0.84807 0.72567 0.55385 0.0
C467 C 0.8379 0.70242 0.53202 0.0
C468 C 0.85402 0.68002 0.52805 0.0
C469 C 0.87844 0.67971 0.54655 0.0
C470 C 0.83126 0.74967 0.55907 0.0
C471 C 0.84456 0.65555 0.50471 0.0
H472 H 0.7142 0.65735 0.51261 0.0
H473 H 0.79433 0.74857 0.46766 0.0
H474 H 0.77559 0.63083 0.5398 0.0
H475 H 0.76878 0.66089 0.56062 0.0
H476 H 0.7305 0.62618 0.54242 0.0
H477 H 0.85782 0.7667 0.46891 0.0
H478 H 0.86859 0.77429 0.50263 0.0
H479 H 0.87251 0.73884 0.48621 0.0
H480 H 0.87991 0.74258 0.58865 0.0
H481 H 0.88978 0.66163 0.54395 0.0
H482 H 0.80101 0.73205 0.56176 0.0
H483 H 0.83569 0.76799 0.54243 0.0
H484 H 0.84302 0.76706 0.57647 0.0
H485 H 0.81563 0.63262 0.50613 0.0
H486 H 0.86287 0.64356 0.50272 0.0
H487 H 0.84668 0.67133 0.48702 0.0
C488 C 0.0649 0.78657 0.64824 0.0
C489 C 0.05212 0.74954 0.65472 0.0
C490 C 0.09551 0.8154 0.66083 0.0
C491 C 0.11331 0.80703 0.6807 0.0
C492 C 0.10192 0.76969 0.68621 0.0
C493 C 0.07176 0.74148 0.67301 0.0
C494 C 0.10741 0.85482 0.6539 0.0
C495 C 0.11979 0.75942 0.70741 0.0
C496 C 0.20361 0.87736 0.71245 0.0
C497 C 0.19068 0.88621 0.73468 0.0
C498 C 0.17884 0.85306 0.69391 0.0
C499 C 0.14032 0.83667 0.69802 0.0
C500 C 0.12726 0.84647 0.72004 0.0
C501 C 0.15254 0.87132 0.7379 0.0
C502 C 0.19385 0.84402 0.67037 0.0
C503 C 0.08645 0.82936 0.72542 0.0
H504 H 0.05017 0.79314 0.63398 0.0
H505 H 0.06228 0.71302 0.67817 0.0
H506 H 0.0985 0.86715 0.66918 0.0
H507 H 0.13792 0.87157 0.65253 0.0
H508 H 0.09522 0.85674 0.6354 0.0
H509 H 0.10998 0.72936 0.70777 0.0
H510 H 0.15022 0.77462 0.7052 0.0
H511 H 0.11341 0.76737 0.72625 0.0
H512 H 0.23303 0.88889 0.70974 0.0
H513 H 0.14222 0.87791 0.75501 0.0
H514 H 0.17999 0.84618 0.65281 0.0
H515 H 0.18809 0.81515 0.67159 0.0
H516 H 0.22411 0.86254 0.6683 0.0
H517 H 0.07238 0.83383 0.70891 0.0
H518 H 0.08082 0.84086 0.74296 0.0
H519 H 0.07402 0.7991 0.72795 0.0
C520 C 0.28342 0.06282 0.81489 0.0
C521 C 0.30767 0.05 0.82124 0.0
C522 C 0.28526 0.09338 0.8276 0.0
C523 C 0.31149 0.11108 0.84744 0.0
C524 C 0.33743 0.09964 0.85282 0.0
C525 C 0.33542 0.06953 0.83951 0.0
C526 C 0.25774 0.10533 0.82081 0.0
C527 C 0.36563 0.1174 0.87399 0.0
C528 C 0.33155 0.20131 0.87935 0.0
C529 C 0.30978 0.18832 0.90159 0.0
C530 C 0.33107 0.17658 0.86077 0.0
C531 C 0.30895 0.13805 0.86486 0.0
C532 C 0.28613 0.12493 0.8869 0.0
C533 C 0.28657 0.15017 0.9048 0.0
C534 C 0.35508 0.19165 0.83721 0.0
C535 C 0.26246 0.08411 0.89225 0.0
H536 H 0.26209 0.04818 0.80064 0.0
H537 H 0.35441 0.06002 0.84456 0.0
H538 H 0.23658 0.09642 0.83616 0.0
H539 H 0.27153 0.13585 0.81946 0.0
H540 H 0.24353 0.09319 0.80233 0.0
H541 H 0.38586 0.10758 0.87424 0.0
H542 H 0.38087 0.14784 0.87184 0.0
H543 H 0.35136 0.11094 0.89285 0.0
H544 H 0.34941 0.23074 0.87665 0.0
H545 H 0.26968 0.1398 0.92192 0.0
H546 H 0.33899 0.17792 0.81966 0.0
H547 H 0.37812 0.18578 0.83833 0.0
H548 H 0.36691 0.22194 0.83522 0.0
H549 H 0.24384 0.07008 0.87577 0.0
H550 H 0.24539 0.07843 0.90983 0.0
H551 H 0.28028 0.07166 0.89468 0.0
C552 C 0.73281 0.78712 0.8537 0.0
C553 C 0.70865 0.75006 0.84727 0.0
C554 C 0.73095 0.81587 0.84103 0.0
C555 C 0.70479 0.80738 0.82114 0.0
C556 C 0.67892 0.77 0.81568 0.0
C557 C 0.68095 0.74188 0.82896 0.0
C558 C 0.75837 0.85533 0.84791 0.0
C559 C 0.6508 0.75961 0.79446 0.0
C560 C 0.68459 0.87744 0.78919 0.0
C561 C 0.70641 0.8863 0.76697 0.0
C562 C 0.68511 0.85323 0.80779 0.0
C563 C 0.70734 0.83693 0.80375 0.0
C564 C 0.73025 0.84675 0.78175 0.0
C565 C 0.72975 0.87151 0.76382 0.0
C566 C 0.66103 0.84417 0.83131 0.0
C567 C 0.75405 0.82973 0.77645 0.0
H568 H 0.7541 0.79379 0.86798 0.0
H569 H 0.66203 0.71339 0.82384 0.0
H570 H 0.77963 0.86768 0.83263 0.0
H571 H 0.74453 0.87201 0.84922 0.0
H572 H 0.77248 0.85734 0.86643 0.0
H573 H 0.63063 0.72953 0.79414 0.0
H574 H 0.63549 0.77473 0.79661 0.0
H575 H 0.66515 0.76755 0.77563 0.0
H576 H 0.66663 0.8889 0.79184 0.0
H577 H 0.7467 0.87811 0.74672 0.0
H578 H 0.67704 0.84644 0.84889 0.0
H579 H 0.63798 0.81527 0.83012 0.0
H580 H 0.6492 0.86263 0.83331 0.0
H581 H 0.77259 0.83431 0.79297 0.0
H582 H 0.77119 0.84123 0.75891 0.0
H583 H 0.7363 0.79946 0.77397 0.0
C584 C 0.86385 0.72639 0.93045 0.0
C585 C 0.82573 0.70298 0.93361 0.0
C586 C 0.88915 0.72674 0.94826 0.0
C587 C 0.87612 0.70361 0.97017 0.0
C588 C 0.8376 0.6813 0.97422 0.0
C589 C 0.81282 0.68094 0.95573 0.0
C590 C 0.92996 0.75063 0.94295 0.0
C591 C 0.82263 0.65696 0.99764 0.0
C592 C 0.94489 0.67705 0.99485 0.0
C593 C 0.96441 0.70456 0.01328 0.0
C594 C 0.9147 0.67513 0.98171 0.0
C595 C 0.90317 0.7009 0.98741 0.0
C596 C 0.92085 0.72686 0.0074 0.0
C597 C 0.9515 0.72863 0.01994 0.0
C598 C 0.89696 0.64722 0.96036 0.0
C599 C 0.90879 0.75419 0.01454 0.0
H600 H 0.87416 0.74351 0.91342 0.0
H601 H 0.78341 0.66291 0.95839 0.0
H602 H 0.94395 0.769 0.95954 0.0
H603 H 0.9425 0.73294 0.94027 0.0
H604 H 0.93556 0.76796 0.92551 0.0
H605 H 0.79235 0.64509 0.99971 0.0
H606 H 0.8285 0.63394 0.99626 0.0
H607 H 0.83641 0.67279 0.01527 0.0
H608 H 0.95447 0.65821 0.98955 0.0
H609 H 0.96613 0.74977 0.03431 0.0
H610 H 0.90333 0.66177 0.94161 0.0
H611 H 0.86653 0.63186 0.96254 0.0
H612 H 0.90688 0.62707 0.95985 0.0
H613 H 0.91765 0.77559 0.99937 0.0
H614 H 0.92092 0.76811 0.0331 0.0
H615 H 0.87828 0.7403 0.0159 0.0
C616 C 0.22794 0.94695 0.18612 0.0
C617 C 0.265 0.96052 0.17933 0.0
C618 C 0.19932 0.91621 0.17349 0.0
C619 C 0.20791 0.8991 0.15328 0.0
C620 C 0.24532 0.91129 0.14743 0.0
C621 C 0.27335 0.94157 0.16067 0.0
C622 C 0.15983 0.90344 0.18078 0.0
C623 C 0.25582 0.89417 0.12586 0.0
C624 C 0.13828 0.80862 0.12138 0.0
C625 C 0.12869 0.82147 0.09943 0.0
C626 C 0.16264 0.83343 0.13987 0.0
C627 C 0.17831 0.87193 0.13601 0.0
C628 C 0.16776 0.88489 0.1143 0.0
C629 C 0.14289 0.85955 0.09647 0.0
C630 C 0.17252 0.81853 0.16308 0.0
C631 C 0.18407 0.92568 0.1092 0.0
H632 H 0.22117 0.96114 0.20067 0.0
H633 H 0.30184 0.95166 0.15527 0.0
H634 H 0.14691 0.91209 0.16575 0.0
H635 H 0.14364 0.87289 0.18202 0.0
H636 H 0.15787 0.91525 0.19944 0.0
H637 H 0.28598 0.90457 0.12524 0.0
H638 H 0.24117 0.86372 0.12786 0.0
H639 H 0.24738 0.90056 0.10722 0.0
H640 H 0.12729 0.77924 0.12389 0.0
H641 H 0.13572 0.86981 0.07958 0.0
H642 H 0.17026 0.83192 0.18085 0.0
H643 H 0.20158 0.82495 0.16154 0.0
H644 H 0.15456 0.78816 0.165 0.0
H645 H 0.1795 0.9393 0.12593 0.0
H646 H 0.17204 0.9312 0.09189 0.0
H647 H 0.21433 0.93868 0.10641 0.0
C648 C 0.33274 0.13268 0.28855 0.0
C649 C 0.31051 0.12344 0.26652 0.0
C650 C 0.33219 0.15683 0.30718 0.0
C651 C 0.30953 0.17269 0.30335 0.0
C652 C 0.2862 0.16246 0.28156 0.0
C653 C 0.28673 0.13776 0.2636 0.0
C654 C 0.35674 0.16631 0.33049 0.0
C655 C 0.26193 0.179 0.27648 0.0
C656 C 0.28428 0.22246 0.35343 0.0
C657 C 0.30805 0.25952 0.34675 0.0
C658 C 0.28626 0.19376 0.34081 0.0
C659 C 0.3121 0.20229 0.32069 0.0
C660 C 0.33758 0.23968 0.31496 0.0
C661 C 0.33548 0.26777 0.32821 0.0
C662 C 0.25927 0.15429 0.34799 0.0
C663 C 0.36534 0.2501 0.29348 0.0
H664 H 0.35104 0.12158 0.29102 0.0
H665 H 0.26947 0.13086 0.24665 0.0
H666 H 0.37962 0.19527 0.32905 0.0
H667 H 0.34101 0.16414 0.3482 0.0
H668 H 0.36879 0.14805 0.33243 0.0
H669 H 0.24447 0.16718 0.25911 0.0
H670 H 0.24365 0.17439 0.29318 0.0
H671 H 0.27934 0.20928 0.27381 0.0
H672 H 0.26321 0.21576 0.36789 0.0
H673 H 0.35409 0.29624 0.32289 0.0
H674 H 0.2734 0.13788 0.34917 0.0
H675 H 0.23771 0.14161 0.33293 0.0
H676 H 0.2455 0.15235 0.36664 0.0
H677 H 0.38097 0.23529 0.29553 0.0
H678 H 0.38526 0.28023 0.29292 0.0
H679 H 0.35064 0.2418 0.27478 0.0
C680 C 0.2041 0.32868 0.45526 0.0
C681 C 0.19101 0.30653 0.4332 0.0
C682 C 0.17946 0.32841 0.47384 0.0
C683 C 0.14092 0.30611 0.46993 0.0
C684 C 0.1277 0.2829 0.44809 0.0
C685 C 0.15286 0.28314 0.43019 0.0
C686 C 0.19464 0.35283 0.49719 0.0
C687 C 0.08686 0.25901 0.44292 0.0
C688 C 0.06593 0.28123 0.51999 0.0
C689 C 0.05296 0.30528 0.51338 0.0
C690 C 0.09648 0.28297 0.50734 0.0
C691 C 0.11401 0.30887 0.48728 0.0
C692 C 0.10244 0.33464 0.48163 0.0
C693 C 0.07235 0.33275 0.49489 0.0
C694 C 0.10859 0.25566 0.51442 0.0
C695 C 0.12002 0.36248 0.46022 0.0
H696 H 0.23354 0.34669 0.45781 0.0
H697 H 0.14242 0.26595 0.41321 0.0
H698 H 0.18876 0.37585 0.49582 0.0
H699 H 0.18099 0.33706 0.51488 0.0
H700 H 0.22493 0.3647 0.49913 0.0
H701 H 0.08111 0.24164 0.4255 0.0
H702 H 0.07299 0.24068 0.45956 0.0
H703 H 0.07431 0.27671 0.44031 0.0
H704 H 0.0514 0.26012 0.53441 0.0
H705 H 0.06272 0.35157 0.48963 0.0
H706 H 0.13912 0.26955 0.51566 0.0
H707 H 0.09962 0.23421 0.49928 0.0
H708 H 0.09661 0.24179 0.53303 0.0
H709 H 0.15047 0.37784 0.46228 0.0
H710 H 0.1101 0.38264 0.45975 0.0
H711 H 0.1135 0.34789 0.44148 0.0
C712 C 0.88054 0.20152 0.62234 0.0
C713 C 0.88939 0.18853 0.60014 0.0
C714 C 0.85633 0.1768 0.64095 0.0
C715 C 0.84003 0.13827 0.63693 0.0
C716 C 0.84983 0.12515 0.61495 0.0
C717 C 0.8746 0.15039 0.59702 0.0
C718 C 0.84729 0.19186 0.66445 0.0
C719 C 0.83281 0.08432 0.60967 0.0
C720 C 0.79021 0.06299 0.68688 0.0
C721 C 0.75315 0.05008 0.68043 0.0
C722 C 0.81896 0.09362 0.67422 0.0
C723 C 0.81047 0.11128 0.65433 0.0
C724 C 0.7731 0.09977 0.64885 0.0
C725 C 0.74497 0.0696 0.66212 0.0
C726 C 0.85842 0.10566 0.68112 0.0
C727 C 0.76271 0.11749 0.62762 0.0
H728 H 0.892 0.23095 0.62497 0.0
H729 H 0.88119 0.14002 0.57993 0.0
H730 H 0.81839 0.18603 0.66325 0.0
H731 H 0.84952 0.17811 0.68204 0.0
H732 H 0.86576 0.22214 0.66645 0.0
H733 H 0.84429 0.07866 0.59214 0.0
H734 H 0.83738 0.07037 0.6262 0.0
H735 H 0.80254 0.0718 0.60719 0.0
H736 H 0.79687 0.04836 0.70117 0.0
H737 H 0.71649 0.06003 0.65699 0.0
H738 H 0.87509 0.13618 0.68242 0.0
H739 H 0.87077 0.09675 0.66586 0.0
H740 H 0.86042 0.09357 0.69965 0.0
H741 H 0.77784 0.14793 0.62976 0.0
H742 H 0.73264 0.1076 0.62729 0.0
H743 H 0.77064 0.11107 0.60879 0.0
C744 C 0.25917 0.39607 0.28792 0.0
C745 C 0.23841 0.37014 0.30697 0.0
C746 C 0.2421 0.40023 0.26592 0.0
C747 C 0.20344 0.37784 0.2629 0.0
C748 C 0.18219 0.35288 0.2826 0.0
C749 C 0.1999 0.3494 0.30438 0.0
C750 C 0.26561 0.4274 0.24543 0.0
C751 C 0.14087 0.32853 0.28014 0.0
C752 C 0.1479 0.39614 0.21327 0.0
C753 C 0.14256 0.37008 0.19429 0.0
C754 C 0.16918 0.40033 0.23524 0.0
C755 C 0.18533 0.37783 0.23831 0.0
C756 C 0.18146 0.35275 0.21867 0.0
C757 C 0.16022 0.34924 0.19691 0.0
C758 C 0.17304 0.42765 0.25566 0.0
C759 C 0.19829 0.32828 0.22118 0.0
H760 H 0.28891 0.41239 0.2898 0.0
H761 H 0.18353 0.32949 0.31905 0.0
H762 H 0.26622 0.4122 0.22815 0.0
H763 H 0.25365 0.44471 0.23954 0.0
H764 H 0.29443 0.44574 0.25199 0.0
H765 H 0.12808 0.31247 0.29792 0.0
H766 H 0.12792 0.34542 0.27566 0.0
H767 H 0.13444 0.30889 0.26401 0.0
H768 H 0.13457 0.41254 0.21136 0.0
H769 H 0.15654 0.32923 0.1823 0.0
H770 H 0.20233 0.44487 0.26149 0.0
H771 H 0.15723 0.41256 0.27298 0.0
H772 H 0.16266 0.44605 0.24906 0.0
H773 H 0.22815 0.34509 0.22563 0.0
H774 H 0.19493 0.31215 0.20343 0.0
H775 H 0.18504 0.30871 0.23734 0.0
C776 C 0.85439 0.19762 0.4717 0.0
C777 C 0.87248 0.23618 0.47408 0.0
C778 C 0.8331 0.17981 0.44998 0.0
C779 C 0.82961 0.201 0.43013 0.0
C780 C 0.84616 0.23972 0.43296 0.0
C781 C 0.86749 0.25689 0.4549 0.0
C782 C 0.81582 0.13843 0.44773 0.0
C783 C 0.84273 0.26317 0.41231 0.0
C784 C 0.81509 0.1573 0.36433 0.0
C785 C 0.77662 0.13985 0.36159 0.0
C786 C 0.83278 0.1786 0.38607 0.0
C787 C 0.81156 0.18276 0.40556 0.0
C788 C 0.77296 0.1668 0.40238 0.0
C789 C 0.7559 0.14543 0.38043 0.0
C790 C 0.87404 0.19522 0.38871 0.0
C791 C 0.74949 0.17098 0.42264 0.0
H792 H 0.85777 0.18129 0.48647 0.0
H793 H 0.88115 0.28667 0.45662 0.0
H794 H 0.78602 0.12565 0.44317 0.0
H795 H 0.829 0.13171 0.43174 0.0
H796 H 0.81887 0.12572 0.46563 0.0
H797 H 0.8533 0.29206 0.41876 0.0
H798 H 0.8586 0.2636 0.39512 0.0
H799 H 0.81351 0.25129 0.40634 0.0
H800 H 0.83143 0.15344 0.34982 0.0
H801 H 0.72619 0.13226 0.37843 0.0
H802 H 0.88015 0.18202 0.40502 0.0
H803 H 0.88724 0.22513 0.393 0.0
H804 H 0.88684 0.19157 0.37108 0.0
H805 H 0.74855 0.15524 0.44006 0.0
H806 H 0.72077 0.16072 0.41594 0.0
H807 H 0.76169 0.20033 0.42835 0.0
C808 C 0.66191 0.85173 0.63835 0.0
C809 C 0.64129 0.8696 0.64104 0.0
C810 C 0.65811 0.83037 0.6166 0.0
C811 C 0.63294 0.82659 0.59705 0.0
C812 C 0.61065 0.84295 0.6002 0.0
C813 C 0.61514 0.86435 0.62215 0.0
C814 C 0.68237 0.81332 0.614 0.0
C815 C 0.58324 0.83919 0.57988 0.0
C816 C 0.66085 0.81169 0.53091 0.0
C817 C 0.64001 0.77317 0.5284 0.0
C818 C 0.65755 0.82951 0.55268 0.0
C819 C 0.63266 0.80838 0.57245 0.0
C820 C 0.61014 0.76972 0.56949 0.0
C821 C 0.61413 0.75253 0.5475 0.0
C822 C 0.68204 0.87083 0.55507 0.0
C823 C 0.58302 0.74634 0.59004 0.0
H824 H 0.68199 0.85532 0.65289 0.0
H825 H 0.5989 0.87784 0.62412 0.0
H826 H 0.6654 0.78346 0.60961 0.0
H827 H 0.70184 0.82644 0.59776 0.0
H828 H 0.69862 0.81665 0.63169 0.0
H829 H 0.56497 0.84969 0.58657 0.0
H830 H 0.59823 0.85495 0.56252 0.0
H831 H 0.56588 0.8099 0.57407 0.0
H832 H 0.68072 0.82797 0.5162 0.0
H833 H 0.59773 0.72279 0.54568 0.0
H834 H 0.70178 0.87722 0.57113 0.0
H835 H 0.66528 0.8839 0.55961 0.0
H836 H 0.698 0.88353 0.53724 0.0
H837 H 0.59826 0.74561 0.60727 0.0
H838 H 0.56449 0.71754 0.58351 0.0
H839 H 0.56591 0.75847 0.59601 0.0
C840 C 0.85419 0.65851 0.69736 0.0
C841 C 0.87209 0.6379 0.69472 0.0
C842 C 0.83311 0.655 0.71921 0.0
C843 C 0.82964 0.63015 0.73892 0.0
C844 C 0.84599 0.60784 0.73583 0.0
C845 C 0.86712 0.61203 0.71377 0.0
C846 C 0.81605 0.67926 0.72173 0.0
C847 C 0.84255 0.58076 0.75632 0.0
C848 C 0.81567 0.65915 0.80493 0.0
C849 C 0.7772 0.63835 0.80773 0.0
C850 C 0.83319 0.65548 0.78311 0.0
C851 C 0.81178 0.63026 0.76359 0.0
C852 C 0.77318 0.60777 0.76685 0.0
C853 C 0.75629 0.61214 0.78888 0.0
C854 C 0.87447 0.67995 0.7804 0.0
C855 C 0.74951 0.58029 0.74658 0.0
H856 H 0.85757 0.67835 0.68269 0.0
H857 H 0.88064 0.59581 0.71185 0.0
H858 H 0.78626 0.66233 0.72635 0.0
H859 H 0.82939 0.69901 0.73778 0.0
H860 H 0.8191 0.69521 0.70393 0.0
H861 H 0.85294 0.56238 0.74968 0.0
H862 H 0.85859 0.59604 0.77351 0.0
H863 H 0.81336 0.5635 0.76238 0.0
H864 H 0.83216 0.67927 0.81944 0.0
H865 H 0.72658 0.59576 0.79092 0.0
H866 H 0.88061 0.69942 0.76419 0.0
H867 H 0.88748 0.66313 0.77591 0.0
H868 H 0.88742 0.6962 0.79807 0.0
H869 H 0.74849 0.59524 0.72926 0.0
H870 H 0.72083 0.56185 0.75336 0.0
H871 H 0.76159 0.56312 0.74066 0.0
C872 C 0.26034 0.86426 0.87931 0.0
C873 C 0.23939 0.8695 0.86045 0.0
C874 C 0.24347 0.84286 0.90128 0.0
C875 C 0.20484 0.82652 0.90449 0.0
C876 C 0.18339 0.83026 0.88496 0.0
C877 C 0.2009 0.8516 0.86319 0.0
C878 C 0.26718 0.83913 0.92157 0.0
C879 C 0.14208 0.81322 0.88762 0.0
C880 C 0.14966 0.7527 0.95424 0.0
C881 C 0.14452 0.77346 0.9733 0.0
C882 C 0.1708 0.76978 0.9322 0.0
C883 C 0.18697 0.80843 0.92915 0.0
C884 C 0.18333 0.82967 0.94886 0.0
C885 C 0.16225 0.81197 0.97069 0.0
C886 C 0.17443 0.74628 0.91171 0.0
C887 C 0.2002 0.87099 0.94637 0.0
H888 H 0.29007 0.87776 0.8773 0.0
H889 H 0.18438 0.85519 0.84867 0.0
H890 H 0.26808 0.85501 0.9389 0.0
H891 H 0.25521 0.80987 0.92747 0.0
H892 H 0.2959 0.84952 0.91482 0.0
H893 H 0.12912 0.81648 0.86993 0.0
H894 H 0.12921 0.78338 0.89208 0.0
H895 H 0.13578 0.82641 0.90383 0.0
H896 H 0.13628 0.72297 0.95614 0.0
H897 H 0.15874 0.82833 0.98536 0.0
H898 H 0.20365 0.75838 0.90567 0.0
H899 H 0.15838 0.74545 0.89451 0.0
H900 H 0.16419 0.71752 0.91833 0.0
H901 H 0.23001 0.884 0.94179 0.0
H902 H 0.19702 0.88378 0.96416 0.0
H903 H 0.18683 0.87733 0.93029 0.0
C904 C 0.35341 0.15856 0.13769 0.0
C905 C 0.37478 0.14148 0.1404 0.0
C906 C 0.35679 0.17983 0.11596 0.0
C907 C 0.38228 0.18432 0.09646 0.0
C908 C 0.4053 0.16878 0.09964 0.0
C909 C 0.40122 0.14745 0.12157 0.0
C910 C 0.33175 0.196 0.11333 0.0
C911 C 0.43307 0.17332 0.07937 0.0
C912 C 0.35401 0.19851 0.03023 0.0
C913 C 0.37419 0.23706 0.02773 0.0
C914 C 0.35764 0.18094 0.05204 0.0
C915 C 0.38218 0.20238 0.07187 0.0
C916 C 0.40403 0.24112 0.06895 0.0
C917 C 0.39973 0.25804 0.04691 0.0
C918 C 0.33389 0.13953 0.05438 0.0
C919 C 0.43074 0.26483 0.08958 0.0
H920 H 0.33309 0.1544 0.15219 0.0
H921 H 0.41803 0.13458 0.12355 0.0
H922 H 0.34816 0.22591 0.10896 0.0
H923 H 0.31242 0.18256 0.09707 0.0
H924 H 0.31533 0.19223 0.131 0.0
H925 H 0.45181 0.16341 0.08608 0.0
H926 H 0.41838 0.15747 0.06197 0.0
H927 H 0.44991 0.2027 0.07363 0.0
H928 H 0.33441 0.18198 0.01546 0.0
H929 H 0.41561 0.28782 0.04511 0.0
H930 H 0.31401 0.13267 0.07041 0.0
H931 H 0.35118 0.12705 0.05894 0.0
H932 H 0.31812 0.12664 0.03652 0.0
H933 H 0.41516 0.26503 0.10677 0.0
H934 H 0.44874 0.29377 0.08311 0.0
H935 H 0.4484 0.25333 0.09558 0.0
loop_
_geom_bond_atom_site_label_1
_geom_bond_atom_site_label_2
_geom_bond_distance
_geom_bond_site_symmetry_2
_ccdc_geom_bond_type
O0 Cd1 2.223 . S
O0 C8 1.315 . S
Cd1 O0 2.223 . S
Cd1 O4 2.297 . S
Cd1 O5 2.439 . S
Cd1 O11 2.240 . S
Cd2 O3 2.240 . S
Cd2 O10 2.223 . S
Cd2 O12 2.297 . S
Cd2 O13 2.439 . S
O3 Cd2 2.240 . S
O3 C8 1.279 . S
O4 Cd1 2.297 . S
O4 C6 1.247 . S
O5 Cd1 2.439 . S
O5 C6 1.208 . S
C6 O4 1.247 . S
C6 O5 1.208 . S
C7 O12 1.247 . S
C7 O13 1.208 . S
C8 O0 1.315 . S
C8 O3 1.279 . S
C9 O10 1.315 . S
C9 O11 1.279 . S
O10 Cd2 2.223 . S
O10 C9 1.315 . S
O11 Cd1 2.240 . S
O11 C9 1.279 . S
O12 Cd2 2.297 . S
O12 C7 1.247 . S
O13 Cd2 2.439 . S
O13 C7 1.208 . S
O14 Cd15 2.223 . S
O14 C22 1.315 . S
Cd15 O14 2.223 . S
Cd15 O18 2.297 . S
Cd15 O19 2.439 . S
Cd15 O25 2.240 . S
Cd16 O17 2.240 . S
Cd16 O24 2.223 . S
Cd16 O26 2.297 . S
Cd16 O27 2.439 . S
O17 Cd16 2.240 . S
O17 C22 1.279 . S
O18 Cd15 2.297 . S
O18 C20 1.247 . S
O19 Cd15 2.439 . S
O19 C20 1.208 . S
C20 O18 1.247 . S
C20 O19 1.208 . S
C21 O26 1.247 . S
C21 O27 1.208 . S
C22 O14 1.315 . S
C22 O17 1.279 . S
C23 O24 1.315 . S
C23 O25 1.279 . S
O24 Cd16 2.223 . S
O24 C23 1.315 . S
O25 Cd15 2.240 . S
O25 C23 1.279 . S
O26 Cd16 2.297 . S
O26 C21 1.247 . S
O27 Cd16 2.439 . S
O27 C21 1.208 . S
O28 Cd29 2.223 . S
O28 C36 1.315 . S
Cd29 O28 2.223 . S
Cd29 O32 2.297 . S
Cd29 O33 2.439 . S
Cd29 O39 2.240 . S
Cd30 O31 2.240 . S
Cd30 O38 2.223 . S
Cd30 O40 2.297 . S
Cd30 O41 2.439 . S
O31 Cd30 2.240 . S
O31 C36 1.279 . S
O32 Cd29 2.297 . S
O32 C34 1.247 . S
O33 Cd29 2.439 . S
O33 C34 1.208 . S
C34 O32 1.247 . S
C34 O33 1.208 . S
C35 O40 1.247 . S
C35 O41 1.208 . S
C36 O28 1.315 . S
C36 O31 1.279 . S
C37 O38 1.315 . S
C37 O39 1.279 . S
O38 Cd30 2.223 . S
O38 C37 1.315 . S
O39 Cd29 2.240 . S
O39 C37 1.279 . S
O40 Cd30 2.297 . S
O40 C35 1.247 . S
O41 Cd30 2.439 . S
O41 C35 1.208 . S
O42 Cd43 2.223 . S
O42 C50 1.315 . S
Cd43 O42 2.223 . S
Cd43 O46 2.297 . S
Cd43 O47 2.439 . S
Cd43 O53 2.240 . S
Cd44 O45 2.240 . S
Cd44 O52 2.223 . S
Cd44 O54 2.297 . S
Cd44 O55 2.439 . S
O45 Cd44 2.240 . S
O45 C50 1.279 . S
O46 Cd43 2.297 . S
O46 C48 1.247 . S
O47 Cd43 2.439 . S
O47 C48 1.208 . S
C48 O46 1.247 . S
C48 O47 1.208 . S
C49 O54 1.247 . S
C49 O55 1.208 . S
C50 O42 1.315 . S
C50 O45 1.279 . S
C51 O52 1.315 . S
C51 O53 1.279 . S
O52 Cd44 2.223 . S
O52 C51 1.315 . S
O53 Cd43 2.240 . S
O53 C51 1.279 . S
O54 Cd44 2.297 . S
O54 C49 1.247 . S
O55 Cd44 2.439 . S
O55 C49 1.208 . S
O56 Cd57 2.223 . S
O56 C64 1.315 . S
Cd57 O56 2.223 . S
Cd57 O60 2.297 . S
Cd57 O61 2.439 . S
Cd57 O67 2.240 . S
Cd58 O59 2.240 . S
Cd58 O66 2.223 . S
Cd58 O68 2.297 . S
Cd58 O69 2.439 . S
O59 Cd58 2.240 . S
O59 C64 1.279 . S
O60 Cd57 2.297 . S
O60 C62 1.247 . S
O61 Cd57 2.439 . S
O61 C62 1.208 . S
C62 O60 1.247 . S
C62 O61 1.208 . S
C63 O68 1.247 . S
C63 O69 1.208 . S
C64 O56 1.315 . S
C64 O59 1.279 . S
C65 O66 1.315 . S
C65 O67 1.279 . S
O66 Cd58 2.223 . S
O66 C65 1.315 . S
O67 Cd57 2.240 . S
O67 C65 1.279 . S
O68 Cd58 2.297 . S
O68 C63 1.247 . S
O69 Cd58 2.439 . S
O69 C63 1.208 . S
O70 Cd71 2.224 1_554 S
O70 C78 1.316 1_554 S
Cd71 O70 2.224 1_556 S
Cd71 O74 2.297 . S
Cd71 O75 2.439 . S
Cd71 O81 2.240 . S
Cd72 O73 2.240 . S
Cd72 O80 2.223 . S
Cd72 O82 2.297 . S
Cd72 O83 2.439 . S
O73 Cd72 2.240 . S
O73 C78 1.279 . S
O74 Cd71 2.297 . S
O74 C76 1.247 . S
O75 Cd71 2.439 . S
O75 C76 1.208 . S
C76 O74 1.247 . S
C76 O75 1.208 . S
C77 O82 1.247 . S
C77 O83 1.208 . S
C78 O70 1.316 1_556 S
C78 O73 1.279 . S
C79 O80 1.322 . S
C79 O81 1.294 . S
O80 Cd72 2.223 . S
O80 C79 1.322 . S
O81 Cd71 2.240 . S
O81 C79 1.294 . S
O82 Cd72 2.297 . S
O82 C77 1.247 . S
O83 Cd72 2.439 . S
O83 C77 1.208 . S
O84 Cd85 2.223 . S
O84 C92 1.315 . S
Cd85 O84 2.223 . S
Cd85 O88 2.297 . S
Cd85 O89 2.439 . S
Cd85 O95 2.240 . S
Cd86 O87 2.240 . S
Cd86 O94 2.223 . S
Cd86 O96 2.297 . S
Cd86 O97 2.439 . S
O87 Cd86 2.240 . S
O87 C92 1.279 . S
O88 Cd85 2.297 . S
O88 C90 1.247 . S
O89 Cd85 2.439 . S
O89 C90 1.208 . S
C90 O88 1.247 . S
C90 O89 1.208 . S
C91 O96 1.247 . S
C91 O97 1.208 . S
C92 O84 1.315 . S
C92 O87 1.279 . S
C93 O94 1.315 . S
C93 O95 1.279 . S
O94 Cd86 2.223 . S
O94 C93 1.315 . S
O95 Cd85 2.240 . S
O95 C93 1.279 . S
O96 Cd86 2.297 . S
O96 C91 1.247 . S
O97 Cd86 2.439 . S
O97 C91 1.208 . S
O98 Cd99 2.223 . S
O98 C106 1.315 . S
Cd99 O98 2.223 . S
Cd99 O102 2.297 . S
Cd99 O103 2.439 . S
Cd99 O109 2.240 . S
Cd100 O101 2.240 . S
Cd100 O108 2.223 . S
Cd100 O110 2.297 . S
Cd100 O111 2.439 . S
O101 Cd100 2.240 . S
O101 C106 1.279 . S
O102 Cd99 2.297 . S
O102 C104 1.247 . S
O103 Cd99 2.439 . S
O103 C104 1.208 . S
C104 O102 1.247 . S
C104 O103 1.208 . S
C105 O110 1.247 . S
C105 O111 1.208 . S
C106 O98 1.315 . S
C106 O101 1.279 . S
C107 O108 1.315 . S
C107 O109 1.279 . S
O108 Cd100 2.223 . S
O108 C107 1.315 . S
O109 Cd99 2.240 . S
O109 C107 1.279 . S
O110 Cd100 2.297 . S
O110 C105 1.247 . S
O111 Cd100 2.439 . S
O111 C105 1.208 . S
O112 Cd113 2.224 1_556 S
O112 C120 1.316 1_556 S
Cd113 O112 2.224 1_554 S
Cd113 O116 2.297 . S
Cd113 O117 2.439 . S
Cd113 O123 2.240 . S
Cd114 O115 2.240 . S
Cd114 O122 2.223 . S
Cd114 O124 2.297 . S
Cd114 O125 2.439 . S
O115 Cd114 2.240 . S
O115 C120 1.279 . S
O116 Cd113 2.297 . S
O116 C118 1.247 . S
O117 Cd113 2.439 . S
O117 C118 1.208 . S
C118 O116 1.247 . S
C118 O117 1.208 . S
C119 O124 1.247 . S
C119 O125 1.208 . S
C120 O112 1.316 1_554 S
C120 O115 1.279 . S
C121 O122 1.322 . S
C121 O123 1.294 . S
O122 Cd114 2.223 . S
O122 C121 1.322 . S
O123 Cd113 2.240 . S
O123 C121 1.294 . S
O124 Cd114 2.297 . S
O124 C119 1.247 . S
O125 Cd114 2.439 . S
O125 C119 1.208 . S
O126 Cd127 2.223 . S
O126 C134 1.315 . S
Cd127 O126 2.223 . S
Cd127 O130 2.297 . S
Cd127 O131 2.439 . S
Cd127 O137 2.240 . S
Cd128 O129 2.240 . S
Cd128 O136 2.223 . S
Cd128 O138 2.297 . S
Cd128 O139 2.439 . S
O129 Cd128 2.240 . S
O129 C134 1.279 . S
O130 Cd127 2.297 . S
O130 C132 1.247 . S
O131 Cd127 2.439 . S
O131 C132 1.208 . S
C132 O130 1.247 . S
C132 O131 1.208 . S
C133 O138 1.247 . S
C133 O139 1.208 . S
C134 O126 1.315 . S
C134 O129 1.279 . S
C135 O136 1.315 . S
C135 O137 1.279 . S
O136 Cd128 2.223 . S
O136 C135 1.315 . S
O137 Cd127 2.240 . S
O137 C135 1.279 . S
O138 Cd128 2.297 . S
O138 C133 1.247 . S
O139 Cd128 2.439 . S
O139 C133 1.208 . S
O140 Cd141 2.223 . S
O140 C148 1.315 . S
Cd141 O140 2.223 . S
Cd141 O144 2.297 . S
Cd141 O145 2.439 . S
Cd141 O151 2.240 . S
Cd142 O143 2.240 . S
Cd142 O150 2.223 . S
Cd142 O152 2.297 . S
Cd142 O153 2.439 . S
O143 Cd142 2.240 . S
O143 C148 1.279 . S
O144 Cd141 2.297 . S
O144 C146 1.247 . S
O145 Cd141 2.439 . S
O145 C146 1.208 . S
C146 O144 1.247 . S
C146 O145 1.208 . S
C147 O152 1.247 . S
C147 O153 1.208 . S
C148 O140 1.315 . S
C148 O143 1.279 . S
C149 O150 1.315 . S
C149 O151 1.279 . S
O150 Cd142 2.223 . S
O150 C149 1.315 . S
O151 Cd141 2.240 . S
O151 C149 1.279 . S
O152 Cd142 2.297 . S
O152 C147 1.247 . S
O153 Cd142 2.439 . S
O153 C147 1.208 . S
O154 Cd155 2.223 . S
O154 C162 1.315 . S
Cd155 O154 2.223 . S
Cd155 O158 2.297 . S
Cd155 O159 2.439 . S
Cd155 O165 2.240 . S
Cd156 O157 2.240 . S
Cd156 O164 2.223 . S
Cd156 O166 2.297 . S
Cd156 O167 2.439 . S
O157 Cd156 2.240 . S
O157 C162 1.279 . S
O158 Cd155 2.297 . S
O158 C160 1.247 . S
O159 Cd155 2.439 . S
O159 C160 1.208 . S
C160 O158 1.247 . S
C160 O159 1.208 . S
C161 O166 1.247 . S
C161 O167 1.208 . S
C162 O154 1.315 . S
C162 O157 1.279 . S
C163 O164 1.315 . S
C163 O165 1.279 . S
O164 Cd156 2.223 . S
O164 C163 1.315 . S
O165 Cd155 2.240 . S
O165 C163 1.279 . S
O166 Cd156 2.297 . S
O166 C161 1.247 . S
O167 Cd156 2.439 . S
O167 C161 1.208 . S
C168 C169 1.391 . S
C168 C170 1.394 . S
C168 H184 0.931 . S
C169 C168 1.391 . S
C169 C173 1.376 . S
C170 C168 1.394 . S
C170 C171 1.369 . S
C170 C174 1.531 1_455 S
C171 C170 1.369 . S
C171 C172 1.410 . S
C171 C179 1.503 . S
C172 C171 1.410 . S
C172 C173 1.392 . S
C172 C175 1.511 . S
C173 C169 1.376 . S
C173 C172 1.392 . S
C173 H185 0.929 . S
C174 C170 1.531 1_655 S
C174 H186 0.960 1_655 S
C174 H187 0.962 . S
C174 H188 0.960 . S
C175 C172 1.511 . S
C175 H189 0.961 . S
C175 H190 0.961 . S
C175 H191 0.961 . S
C176 C177 1.370 . S
C176 C178 1.363 . S
C176 H192 0.931 . S
C177 C176 1.370 . S
C177 C181 1.408 . S
C178 C176 1.363 . S
C178 C179 1.370 . S
C178 C182 1.524 . S
C179 C171 1.503 . S
C179 C178 1.370 . S
C179 C180 1.403 . S
C180 C179 1.403 . S
C180 C181 1.404 . S
C180 C183 1.539 . S
C181 C177 1.408 . S
C181 C180 1.404 . S
C181 H193 0.930 . S
C182 C178 1.524 . S
C182 H194 0.956 . S
C182 H195 0.961 . S
C182 H196 0.961 . S
C183 C180 1.539 . S
C183 H197 0.958 . S
C183 H198 0.961 . S
C183 H199 0.960 . S
H184 C168 0.931 . S
H185 C173 0.929 . S
H186 C174 0.960 1_455 S
H187 C174 0.962 . S
H188 C174 0.960 . S
H189 C175 0.961 . S
H190 C175 0.961 . S
H191 C175 0.961 . S
H192 C176 0.931 . S
H193 C181 0.930 . S
H194 C182 0.956 . S
H195 C182 0.961 . S
H196 C182 0.961 . S
H197 C183 0.958 . S
H198 C183 0.961 . S
H199 C183 0.960 . S
C200 C201 1.391 . S
C200 C202 1.394 . S
C200 H216 0.931 . S
C201 C200 1.391 . S
C201 C205 1.376 . S
C202 C200 1.394 . S
C202 C203 1.369 . S
C202 C206 1.531 . S
C203 C202 1.369 . S
C203 C204 1.410 . S
C203 C211 1.503 . S
C204 C203 1.410 . S
C204 C205 1.392 . S
C204 C207 1.511 . S
C205 C201 1.376 . S
C205 C204 1.392 . S
C205 H217 0.929 . S
C206 C202 1.531 . S
C206 H218 0.960 1_545 S
C206 H219 0.962 . S
C206 H220 0.960 1_545 S
C207 C204 1.511 . S
C207 H221 0.961 . S
C207 H222 0.961 . S
C207 H223 0.961 . S
C208 C209 1.370 . S
C208 C210 1.363 . S
C208 H224 0.931 . S
C209 C208 1.370 . S
C209 C213 1.408 . S
C210 C208 1.363 . S
C210 C211 1.370 . S
C210 C214 1.524 . S
C211 C203 1.503 . S
C211 C210 1.370 . S
C211 C212 1.403 . S
C212 C211 1.403 . S
C212 C213 1.404 . S
C212 C215 1.539 . S
C213 C209 1.408 . S
C213 C212 1.404 . S
C213 H225 0.930 . S
C214 C210 1.524 . S
C214 H226 0.956 . S
C214 H227 0.961 . S
C214 H228 0.961 . S
C215 C212 1.539 . S
C215 H229 0.958 1_545 S
C215 H230 0.961 . S
C215 H231 0.960 . S
H216 C200 0.931 . S
H217 C205 0.929 . S
H218 C206 0.960 1_565 S
H219 C206 0.962 . S
H220 C206 0.960 1_565 S
H221 C207 0.961 . S
H222 C207 0.961 . S
H223 C207 0.961 . S
H224 C208 0.931 . S
H225 C213 0.930 . S
H226 C214 0.956 . S
H227 C214 0.961 . S
H228 C214 0.961 . S
H229 C215 0.958 1_565 S
H230 C215 0.961 . S
H231 C215 0.960 . S
C232 C233 1.391 . S
C232 C234 1.394 . S
C232 H248 0.931 . S
C233 C232 1.391 . S
C233 C237 1.376 . S
C234 C232 1.394 . S
C234 C235 1.369 . S
C234 C238 1.531 . S
C235 C234 1.369 . S
C235 C236 1.410 . S
C235 C243 1.503 . S
C236 C235 1.410 . S
C236 C237 1.392 . S
C236 C239 1.511 . S
C237 C233 1.376 . S
C237 C236 1.392 . S
C237 H249 0.929 . S
C238 C234 1.531 . S
C238 H250 0.960 . S
C238 H251 0.962 . S
C238 H252 0.960 . S
C239 C236 1.511 . S
C239 H253 0.961 . S
C239 H254 0.961 . S
C239 H255 0.961 . S
C240 C241 1.370 . S
C240 C242 1.363 . S
C240 H256 0.931 . S
C241 C240 1.370 . S
C241 C245 1.408 . S
C242 C240 1.363 . S
C242 C243 1.370 . S
C242 C246 1.524 . S
C243 C235 1.503 . S
C243 C242 1.370 . S
C243 C244 1.403 . S
C244 C243 1.403 . S
C244 C245 1.404 . S
C244 C247 1.539 . S
C245 C241 1.408 . S
C245 C244 1.404 . S
C245 H257 0.930 . S
C246 C242 1.524 . S
C246 H258 0.956 . S
C246 H259 0.961 . S
C246 H260 0.961 . S
C247 C244 1.539 . S
C247 H261 0.958 . S
C247 H262 0.961 . S
C247 H263 0.960 . S
H248 C232 0.931 . S
H249 C237 0.929 . S
H250 C238 0.960 . S
H251 C238 0.962 . S
H252 C238 0.960 . S
H253 C239 0.961 . S
H254 C239 0.961 . S
H255 C239 0.961 . S
H256 C240 0.931 . S
H257 C245 0.930 . S
H258 C246 0.956 . S
H259 C246 0.961 . S
H260 C246 0.961 . S
H261 C247 0.958 . S
H262 C247 0.961 . S
H263 C247 0.960 . S
C264 C265 1.391 . S
C264 C266 1.394 . S
C264 H280 0.931 . S
C265 C264 1.391 . S
C265 C269 1.376 . S
C266 C264 1.394 . S
C266 C267 1.369 . S
C266 C270 1.531 . S
C267 C266 1.369 . S
C267 C268 1.410 . S
C267 C275 1.503 . S
C268 C267 1.410 . S
C268 C269 1.392 . S
C268 C271 1.511 . S
C269 C265 1.376 . S
C269 C268 1.392 . S
C269 H281 0.929 . S
C270 C266 1.531 . S
C270 H282 0.960 . S
C270 H283 0.962 1_655 S
C270 H284 0.960 1_655 S
C271 C268 1.511 . S
C271 H285 0.961 . S
C271 H286 0.961 . S
C271 H287 0.961 . S
C272 C273 1.370 . S
C272 C274 1.363 . S
C272 H288 0.931 . S
C273 C272 1.370 . S
C273 C277 1.408 . S
C274 C272 1.363 . S
C274 C275 1.370 . S
C274 C278 1.524 . S
C275 C267 1.503 . S
C275 C274 1.370 . S
C275 C276 1.403 . S
C276 C275 1.403 . S
C276 C277 1.404 . S
C276 C279 1.539 . S
C277 C273 1.408 . S
C277 C276 1.404 . S
C277 H289 0.930 . S
C278 C274 1.524 . S
C278 H290 0.956 . S
C278 H291 0.961 . S
C278 H292 0.961 . S
C279 C276 1.539 . S
C279 H293 0.958 . S
C279 H294 0.961 . S
C279 H295 0.960 . S
H280 C264 0.931 . S
H281 C269 0.929 . S
H282 C270 0.960 . S
H283 C270 0.962 1_455 S
H284 C270 0.960 1_455 S
H285 C271 0.961 . S
H286 C271 0.961 . S
H287 C271 0.961 . S
H288 C272 0.931 . S
H289 C277 0.930 . S
H290 C278 0.956 . S
H291 C278 0.961 . S
H292 C278 0.961 . S
H293 C279 0.958 . S
H294 C279 0.961 . S
H295 C279 0.960 . S
C296 C297 1.391 . S
C296 C298 1.394 . S
C296 H312 0.931 . S
C297 C296 1.391 . S
C297 C301 1.376 . S
C298 C296 1.394 . S
C298 C299 1.369 . S
C298 C302 1.531 . S
C299 C298 1.369 . S
C299 C300 1.410 . S
C299 C307 1.503 . S
C300 C299 1.410 . S
C300 C301 1.392 . S
C300 C303 1.511 . S
C301 C297 1.376 . S
C301 C300 1.392 . S
C301 H313 0.929 . S
C302 C298 1.531 . S
C302 H314 0.960 . S
C302 H315 0.962 . S
C302 H316 0.960 . S
C303 C300 1.511 . S
C303 H317 0.961 . S
C303 H318 0.961 . S
C303 H319 0.961 . S
C304 C305 1.370 . S
C304 C306 1.363 . S
C304 H320 0.931 . S
C305 C304 1.370 . S
C305 C309 1.408 . S
C306 C304 1.363 . S
C306 C307 1.370 . S
C306 C310 1.524 . S
C307 C299 1.503 . S
C307 C306 1.370 . S
C307 C308 1.403 . S
C308 C307 1.403 . S
C308 C309 1.404 . S
C308 C311 1.539 . S
C309 C305 1.408 . S
C309 C308 1.404 . S
C309 H321 0.930 . S
C310 C306 1.524 . S
C310 H322 0.956 1_565 S
C310 H323 0.961 . S
C310 H324 0.961 1_565 S
C311 C308 1.539 . S
C311 H325 0.958 . S
C311 H326 0.961 . S
C311 H327 0.960 . S
H312 C296 0.931 . S
H313 C301 0.929 . S
H314 C302 0.960 . S
H315 C302 0.962 . S
H316 C302 0.960 . S
H317 C303 0.961 . S
H318 C303 0.961 . S
H319 C303 0.961 . S
H320 C304 0.931 . S
H321 C309 0.930 . S
H322 C310 0.956 1_545 S
H323 C310 0.961 . S
H324 C310 0.961 1_545 S
H325 C311 0.958 . S
H326 C311 0.961 . S
H327 C311 0.960 . S
C328 C329 1.391 . S
C328 C330 1.394 . S
C328 H344 0.931 . S
C329 C328 1.391 . S
C329 C333 1.376 . S
C330 C328 1.394 . S
C330 C331 1.369 . S
C330 C334 1.531 . S
C331 C330 1.369 . S
C331 C332 1.410 . S
C331 C339 1.503 . S
C332 C331 1.410 . S
C332 C333 1.392 . S
C332 C335 1.511 . S
C333 C329 1.376 . S
C333 C332 1.392 . S
C333 H345 0.929 . S
C334 C330 1.531 . S
C334 H346 0.960 . S
C334 H347 0.962 . S
C334 H348 0.960 . S
C335 C332 1.511 . S
C335 H349 0.961 . S
C335 H350 0.961 . S
C335 H351 0.961 . S
C336 C337 1.370 . S
C336 C338 1.363 . S
C336 H352 0.931 . S
C337 C336 1.370 . S
C337 C341 1.408 . S
C338 C336 1.363 . S
C338 C339 1.370 . S
C338 C342 1.524 . S
C339 C331 1.503 . S
C339 C338 1.370 . S
C339 C340 1.403 . S
C340 C339 1.403 . S
C340 C341 1.404 . S
C340 C343 1.539 . S
C341 C337 1.408 . S
C341 C340 1.404 . S
C341 H353 0.930 . S
C342 C338 1.524 . S
C342 H354 0.956 . S
C342 H355 0.961 . S
C342 H356 0.961 . S
C343 C340 1.539 . S
C343 H357 0.958 . S
C343 H358 0.961 . S
C343 H359 0.960 . S
H344 C328 0.931 . S
H345 C333 0.929 . S
H346 C334 0.960 . S
H347 C334 0.962 . S
H348 C334 0.960 . S
H349 C335 0.961 . S
H350 C335 0.961 . S
H351 C335 0.961 . S
H352 C336 0.931 . S
H353 C341 0.930 . S
H354 C342 0.956 . S
H355 C342 0.961 . S
H356 C342 0.961 . S
H357 C343 0.958 . S
H358 C343 0.961 . S
H359 C343 0.960 . S
C360 C361 1.391 . S
C360 C362 1.394 . S
C360 H376 0.931 . S
C361 C360 1.391 . S
C361 C365 1.376 . S
C362 C360 1.394 . S
C362 C363 1.369 . S
C362 C366 1.531 . S
C363 C362 1.369 . S
C363 C364 1.410 . S
C363 C371 1.503 . S
C364 C363 1.410 . S
C364 C365 1.392 . S
C364 C367 1.511 . S
C365 C361 1.376 . S
C365 C364 1.392 . S
C365 H377 0.929 . S
C366 C362 1.531 . S
C366 H378 0.960 . S
C366 H379 0.962 . S
C366 H380 0.960 . S
C367 C364 1.511 . S
C367 H381 0.961 . S
C367 H382 0.966 . S
C367 H383 0.961 1_554 S
C368 C369 1.370 1_554 S
C368 C370 1.363 . S
C368 H384 0.931 . S
C369 C368 1.370 1_556 S
C369 C373 1.408 . S
C370 C368 1.363 . S
C370 C371 1.370 . S
C370 C374 1.524 . S
C371 C363 1.503 . S
C371 C370 1.370 . S
C371 C372 1.403 . S
C372 C371 1.403 . S
C372 C373 1.404 1_554 S
C372 C375 1.539 1_554 S
C373 C369 1.408 . S
C373 C372 1.404 1_556 S
C373 H385 0.930 . S
C374 C370 1.524 . S
C374 H386 0.956 . S
C374 H387 0.961 . S
C374 H388 0.961 . S
C375 C372 1.539 1_556 S
C375 H389 0.958 1_556 S
C375 H390 0.961 . S
C375 H391 0.960 1_556 S
H376 C360 0.931 . S
H377 C365 0.929 . S
H378 C366 0.960 . S
H379 C366 0.962 . S
H380 C366 0.960 . S
H381 C367 0.961 . S
H382 C367 0.966 . S
H383 C367 0.961 1_556 S
H384 C368 0.931 . S
H385 C373 0.930 . S
H386 C374 0.956 . S
H387 C374 0.961 . S
H388 C374 0.961 . S
H389 C375 0.958 1_554 S
H390 C375 0.961 . S
H391 C375 0.960 1_554 S
C392 C393 1.391 . S
C392 C394 1.394 . S
C392 H408 0.931 . S
C393 C392 1.391 . S
C393 C397 1.376 . S
C394 C392 1.394 . S
C394 C395 1.369 . S
C394 C398 1.531 . S
C395 C394 1.369 . S
C395 C396 1.410 . S
C395 C403 1.503 . S
C396 C395 1.410 . S
C396 C397 1.392 . S
C396 C399 1.511 . S
C397 C393 1.376 . S
C397 C396 1.392 . S
C397 H409 0.929 . S
C398 C394 1.531 . S
C398 H410 0.960 . S
C398 H411 0.962 . S
C398 H412 0.960 . S
C399 C396 1.511 . S
C399 H413 0.961 . S
C399 H414 0.961 . S
C399 H415 0.961 . S
C400 C401 1.370 . S
C400 C402 1.363 . S
C400 H416 0.931 1_655 S
C401 C400 1.370 . S
C401 C405 1.408 . S
C402 C400 1.363 . S
C402 C403 1.370 . S
C402 C406 1.524 . S
C403 C395 1.503 . S
C403 C402 1.370 . S
C403 C404 1.403 . S
C404 C403 1.403 . S
C404 C405 1.404 . S
C404 C407 1.539 . S
C405 C401 1.408 . S
C405 C404 1.404 . S
C405 H417 0.930 . S
C406 C402 1.524 . S
C406 H418 0.956 . S
C406 H419 0.961 . S
C406 H420 0.961 . S
C407 C404 1.539 . S
C407 H421 0.958 . S
C407 H422 0.961 . S
C407 H423 0.960 . S
H408 C392 0.931 . S
H409 C397 0.929 . S
H410 C398 0.960 . S
H411 C398 0.962 . S
H412 C398 0.960 . S
H413 C399 0.961 . S
H414 C399 0.961 . S
H415 C399 0.961 . S
H416 C400 0.931 1_455 S
H417 C405 0.930 . S
H418 C406 0.956 . S
H419 C406 0.961 . S
H420 C406 0.961 . S
H421 C407 0.958 . S
H422 C407 0.961 . S
H423 C407 0.960 . S
C424 C425 1.391 . S
C424 C426 1.394 . S
C424 H440 0.931 . S
C425 C424 1.391 . S
C425 C429 1.376 . S
C426 C424 1.394 . S
C426 C427 1.369 . S
C426 C430 1.531 . S
C427 C426 1.369 . S
C427 C428 1.410 . S
C427 C435 1.503 . S
C428 C427 1.410 . S
C428 C429 1.392 . S
C428 C431 1.511 . S
C429 C425 1.376 . S
C429 C428 1.392 . S
C429 H441 0.929 . S
C430 C426 1.531 . S
C430 H442 0.960 . S
C430 H443 0.962 . S
C430 H444 0.960 . S
C431 C428 1.511 . S
C431 H445 0.961 . S
C431 H446 0.961 . S
C431 H447 0.961 . S
C432 C433 1.370 . S
C432 C434 1.363 . S
C432 H448 0.931 1_565 S
C433 C432 1.370 . S
C433 C437 1.408 . S
C434 C432 1.363 . S
C434 C435 1.370 . S
C434 C438 1.524 . S
C435 C427 1.503 . S
C435 C434 1.370 . S
C435 C436 1.403 . S
C436 C435 1.403 . S
C436 C437 1.404 . S
C436 C439 1.539 . S
C437 C433 1.408 . S
C437 C436 1.404 . S
C437 H449 0.930 . S
C438 C434 1.524 . S
C438 H450 0.956 . S
C438 H451 0.961 . S
C438 H452 0.961 . S
C439 C436 1.539 . S
C439 H453 0.958 . S
C439 H454 0.961 . S
C439 H455 0.960 . S
H440 C424 0.931 . S
H441 C429 0.929 . S
H442 C430 0.960 . S
H443 C430 0.962 . S
H444 C430 0.960 . S
H445 C431 0.961 . S
H446 C431 0.961 . S
H447 C431 0.961 . S
H448 C432 0.931 1_545 S
H449 C437 0.930 . S
H450 C438 0.956 . S
H451 C438 0.961 . S
H452 C438 0.961 . S
H453 C439 0.958 . S
H454 C439 0.961 . S
H455 C439 0.960 . S
C456 C457 1.391 . S
C456 C458 1.394 . S
C456 H472 0.931 . S
C457 C456 1.391 . S
C457 C461 1.376 . S
C458 C456 1.394 . S
C458 C459 1.369 . S
C458 C462 1.531 . S
C459 C458 1.369 . S
C459 C460 1.410 . S
C459 C467 1.503 . S
C460 C459 1.410 . S
C460 C461 1.392 . S
C460 C463 1.511 . S
C461 C457 1.376 . S
C461 C460 1.392 . S
C461 H473 0.929 . S
C462 C458 1.531 . S
C462 H474 0.960 . S
C462 H475 0.962 . S
C462 H476 0.960 . S
C463 C460 1.511 . S
C463 H477 0.961 . S
C463 H478 0.961 . S
C463 H479 0.961 . S
C464 C465 1.370 . S
C464 C466 1.363 . S
C464 H480 0.931 . S
C465 C464 1.370 . S
C465 C469 1.408 . S
C466 C464 1.363 . S
C466 C467 1.370 . S
C466 C470 1.524 . S
C467 C459 1.503 . S
C467 C466 1.370 . S
C467 C468 1.403 . S
C468 C467 1.403 . S
C468 C469 1.404 . S
C468 C471 1.539 . S
C469 C465 1.408 . S
C469 C468 1.404 . S
C469 H481 0.930 . S
C470 C466 1.524 . S
C470 H482 0.956 . S
C470 H483 0.961 . S
C470 H484 0.961 . S
C471 C468 1.539 . S
C471 H485 0.958 . S
C471 H486 0.961 . S
C471 H487 0.960 . S
H472 C456 0.931 . S
H473 C461 0.929 . S
H474 C462 0.960 . S
H475 C462 0.962 . S
H476 C462 0.960 . S
H477 C463 0.961 . S
H478 C463 0.961 . S
H479 C463 0.961 . S
H480 C464 0.931 . S
H481 C469 0.930 . S
H482 C470 0.956 . S
H483 C470 0.961 . S
H484 C470 0.961 . S
H485 C471 0.958 . S
H486 C471 0.961 . S
H487 C471 0.960 . S
C488 C489 1.391 . S
C488 C490 1.394 . S
C488 H504 0.931 1_455 S
C489 C488 1.391 . S
C489 C493 1.376 . S
C490 C488 1.394 . S
C490 C491 1.369 . S
C490 C494 1.531 . S
C491 C490 1.369 . S
C491 C492 1.410 . S
C491 C499 1.503 . S
C492 C491 1.410 . S
C492 C493 1.392 . S
C492 C495 1.511 . S
C493 C489 1.376 . S
C493 C492 1.392 . S
C493 H505 0.929 . S
C494 C490 1.531 . S
C494 H506 0.960 . S
C494 H507 0.962 . S
C494 H508 0.960 . S
C495 C492 1.511 . S
C495 H509 0.961 . S
C495 H510 0.961 . S
C495 H511 0.961 . S
C496 C497 1.370 . S
C496 C498 1.363 . S
C496 H512 0.931 . S
C497 C496 1.370 . S
C497 C501 1.408 . S
C498 C496 1.363 . S
C498 C499 1.370 . S
C498 C502 1.524 . S
C499 C491 1.503 . S
C499 C498 1.370 . S
C499 C500 1.403 . S
C500 C499 1.403 . S
C500 C501 1.404 . S
C500 C503 1.539 . S
C501 C497 1.408 . S
C501 C500 1.404 . S
C501 H513 0.930 . S
C502 C498 1.524 . S
C502 H514 0.956 . S
C502 H515 0.961 . S
C502 H516 0.961 . S
C503 C500 1.539 . S
C503 H517 0.958 . S
C503 H518 0.961 . S
C503 H519 0.960 . S
H504 C488 0.931 1_655 S
H505 C493 0.929 . S
H506 C494 0.960 . S
H507 C494 0.962 . S
H508 C494 0.960 . S
H509 C495 0.961 . S
H510 C495 0.961 . S
H511 C495 0.961 . S
H512 C496 0.931 . S
H513 C501 0.930 . S
H514 C502 0.956 . S
H515 C502 0.961 . S
H516 C502 0.961 . S
H517 C503 0.958 . S
H518 C503 0.961 . S
H519 C503 0.960 . S
C520 C521 1.391 . S
C520 C522 1.394 . S
C520 H536 0.931 1_545 S
C521 C520 1.391 . S
C521 C525 1.376 . S
C522 C520 1.394 . S
C522 C523 1.369 . S
C522 C526 1.531 . S
C523 C522 1.369 . S
C523 C524 1.410 . S
C523 C531 1.503 . S
C524 C523 1.410 . S
C524 C525 1.392 . S
C524 C527 1.511 . S
C525 C521 1.376 . S
C525 C524 1.392 . S
C525 H537 0.929 . S
C526 C522 1.531 . S
C526 H538 0.960 . S
C526 H539 0.962 . S
C526 H540 0.960 . S
C527 C524 1.511 . S
C527 H541 0.961 . S
C527 H542 0.961 . S
C527 H543 0.961 . S
C528 C529 1.370 . S
C528 C530 1.363 . S
C528 H544 0.931 . S
C529 C528 1.370 . S
C529 C533 1.408 . S
C530 C528 1.363 . S
C530 C531 1.370 . S
C530 C534 1.524 . S
C531 C523 1.503 . S
C531 C530 1.370 . S
C531 C532 1.403 . S
C532 C531 1.403 . S
C532 C533 1.404 . S
C532 C535 1.539 . S
C533 C529 1.408 . S
C533 C532 1.404 . S
C533 H545 0.930 . S
C534 C530 1.524 . S
C534 H546 0.956 . S
C534 H547 0.961 . S
C534 H548 0.961 . S
C535 C532 1.539 . S
C535 H549 0.958 . S
C535 H550 0.961 . S
C535 H551 0.960 . S
H536 C520 0.931 1_565 S
H537 C525 0.929 . S
H538 C526 0.960 . S
H539 C526 0.962 . S
H540 C526 0.960 . S
H541 C527 0.961 . S
H542 C527 0.961 . S
H543 C527 0.961 . S
H544 C528 0.931 . S
H545 C533 0.930 . S
H546 C534 0.956 . S
H547 C534 0.961 . S
H548 C534 0.961 . S
H549 C535 0.958 . S
H550 C535 0.961 . S
H551 C535 0.960 . S
C552 C553 1.391 . S
C552 C554 1.394 . S
C552 H568 0.931 . S
C553 C552 1.391 . S
C553 C557 1.376 . S
C554 C552 1.394 . S
C554 C555 1.369 . S
C554 C558 1.531 . S
C555 C554 1.369 . S
C555 C556 1.410 . S
C555 C563 1.503 . S
C556 C555 1.410 . S
C556 C557 1.392 . S
C556 C559 1.511 . S
C557 C553 1.376 . S
C557 C556 1.392 . S
C557 H569 0.929 . S
C558 C554 1.531 . S
C558 H570 0.960 . S
C558 H571 0.962 . S
C558 H572 0.960 . S
C559 C556 1.511 . S
C559 H573 0.961 . S
C559 H574 0.961 . S
C559 H575 0.961 . S
C560 C561 1.370 . S
C560 C562 1.363 . S
C560 H576 0.931 . S
C561 C560 1.370 . S
C561 C565 1.408 . S
C562 C560 1.363 . S
C562 C563 1.370 . S
C562 C566 1.524 . S
C563 C555 1.503 . S
C563 C562 1.370 . S
C563 C564 1.403 . S
C564 C563 1.403 . S
C564 C565 1.404 . S
C564 C567 1.539 . S
C565 C561 1.408 . S
C565 C564 1.404 . S
C565 H577 0.930 . S
C566 C562 1.524 . S
C566 H578 0.956 . S
C566 H579 0.961 . S
C566 H580 0.961 . S
C567 C564 1.539 . S
C567 H581 0.958 . S
C567 H582 0.961 . S
C567 H583 0.960 . S
H568 C552 0.931 . S
H569 C557 0.929 . S
H570 C558 0.960 . S
H571 C558 0.962 . S
H572 C558 0.960 . S
H573 C559 0.961 . S
H574 C559 0.961 . S
H575 C559 0.961 . S
H576 C560 0.931 . S
H577 C565 0.930 . S
H578 C566 0.956 . S
H579 C566 0.961 . S
H580 C566 0.961 . S
H581 C567 0.958 . S
H582 C567 0.961 . S
H583 C567 0.960 . S
C584 C585 1.391 . S
C584 C586 1.394 . S
C584 H600 0.931 . S
C585 C584 1.391 . S
C585 C589 1.376 . S
C586 C584 1.394 . S
C586 C587 1.369 . S
C586 C590 1.531 . S
C587 C586 1.369 . S
C587 C588 1.410 . S
C587 C595 1.503 . S
C588 C587 1.410 . S
C588 C589 1.392 . S
C588 C591 1.511 . S
C589 C585 1.376 . S
C589 C588 1.392 . S
C589 H601 0.929 . S
C590 C586 1.531 . S
C590 H602 0.960 . S
C590 H603 0.962 . S
C590 H604 0.960 . S
C591 C588 1.511 . S
C591 H605 0.961 . S
C591 H606 0.961 . S
C591 H607 0.961 . S
C592 C593 1.370 1_556 S
C592 C594 1.363 . S
C592 H608 0.931 1_655 S
C593 C592 1.370 1_554 S
C593 C597 1.408 . S
C594 C592 1.363 . S
C594 C595 1.370 . S
C594 C598 1.524 . S
C595 C587 1.503 . S
C595 C594 1.370 . S
C595 C596 1.403 1_556 S
C596 C595 1.403 1_554 S
C596 C597 1.404 . S
C596 C599 1.539 . S
C597 C593 1.408 . S
C597 C596 1.404 . S
C597 H609 0.930 . S
C598 C594 1.524 . S
C598 H610 0.956 . S
C598 H611 0.961 . S
C598 H612 0.961 . S
C599 C596 1.539 . S
C599 H613 0.958 . S
C599 H614 0.961 . S
C599 H615 0.960 . S
H600 C584 0.931 . S
H601 C589 0.929 . S
H602 C590 0.960 . S
H603 C590 0.962 . S
H604 C590 0.960 . S
H605 C591 0.961 . S
H606 C591 0.961 . S
H607 C591 0.961 . S
H608 C592 0.931 1_455 S
H609 C597 0.930 . S
H610 C598 0.956 . S
H611 C598 0.961 . S
H612 C598 0.961 . S
H613 C599 0.958 . S
H614 C599 0.961 . S
H615 C599 0.960 . S
C616 C617 1.391 . S
C616 C618 1.394 . S
C616 H632 0.931 1_565 S
C617 C616 1.391 . S
C617 C621 1.376 . S
C618 C616 1.394 . S
C618 C619 1.369 . S
C618 C622 1.531 . S
C619 C618 1.369 . S
C619 C620 1.410 . S
C619 C627 1.503 . S
C620 C619 1.410 . S
C620 C621 1.392 . S
C620 C623 1.511 . S
C621 C617 1.376 . S
C621 C620 1.392 . S
C621 H633 0.929 . S
C622 C618 1.531 . S
C622 H634 0.960 . S
C622 H635 0.962 . S
C622 H636 0.960 . S
C623 C620 1.511 . S
C623 H637 0.961 . S
C623 H638 0.961 . S
C623 H639 0.961 . S
C624 C625 1.370 . S
C624 C626 1.363 . S
C624 H640 0.931 . S
C625 C624 1.370 . S
C625 C629 1.408 . S
C626 C624 1.363 . S
C626 C627 1.370 . S
C626 C630 1.524 . S
C627 C619 1.503 . S
C627 C626 1.370 . S
C627 C628 1.403 . S
C628 C627 1.403 . S
C628 C629 1.404 . S
C628 C631 1.539 . S
C629 C625 1.408 . S
C629 C628 1.404 . S
C629 H641 0.930 . S
C630 C626 1.524 . S
C630 H642 0.956 . S
C630 H643 0.961 . S
C630 H644 0.961 . S
C631 C628 1.539 . S
C631 H645 0.958 . S
C631 H646 0.961 . S
C631 H647 0.960 . S
H632 C616 0.931 1_545 S
H633 C621 0.929 . S
H634 C622 0.960 . S
H635 C622 0.962 . S
H636 C622 0.960 . S
H637 C623 0.961 . S
H638 C623 0.961 . S
H639 C623 0.961 . S
H640 C624 0.931 . S
H641 C629 0.930 . S
H642 C630 0.956 . S
H643 C630 0.961 . S
H644 C630 0.961 . S
H645 C631 0.958 . S
H646 C631 0.961 . S
H647 C631 0.960 . S
C648 C649 1.391 . S
C648 C650 1.394 . S
C648 H664 0.931 . S
C649 C648 1.391 . S
C649 C653 1.376 . S
C650 C648 1.394 . S
C650 C651 1.369 . S
C650 C654 1.531 . S
C651 C650 1.369 . S
C651 C652 1.410 . S
C651 C659 1.503 . S
C652 C651 1.410 . S
C652 C653 1.392 . S
C652 C655 1.511 . S
C653 C649 1.376 . S
C653 C652 1.392 . S
C653 H665 0.929 . S
C654 C650 1.531 . S
C654 H666 0.960 . S
C654 H667 0.962 . S
C654 H668 0.960 . S
C655 C652 1.511 . S
C655 H669 0.961 . S
C655 H670 0.961 . S
C655 H671 0.961 . S
C656 C657 1.370 . S
C656 C658 1.363 . S
C656 H672 0.931 . S
C657 C656 1.370 . S
C657 C661 1.408 . S
C658 C656 1.363 . S
C658 C659 1.370 . S
C658 C662 1.524 . S
C659 C651 1.503 . S
C659 C658 1.370 . S
C659 C660 1.403 . S
C660 C659 1.403 . S
C660 C661 1.404 . S
C660 C663 1.539 . S
C661 C657 1.408 . S
C661 C660 1.404 . S
C661 H673 0.930 . S
C662 C658 1.524 . S
C662 H674 0.956 . S
C662 H675 0.961 . S
C662 H676 0.961 . S
C663 C660 1.539 . S
C663 H677 0.958 . S
C663 H678 0.961 . S
C663 H679 0.960 . S
H664 C648 0.931 . S
H665 C653 0.929 . S
H666 C654 0.960 . S
H667 C654 0.962 . S
H668 C654 0.960 . S
H669 C655 0.961 . S
H670 C655 0.961 . S
H671 C655 0.961 . S
H672 C656 0.931 . S
H673 C661 0.930 . S
H674 C662 0.956 . S
H675 C662 0.961 . S
H676 C662 0.961 . S
H677 C663 0.958 . S
H678 C663 0.961 . S
H679 C663 0.960 . S
C680 C681 1.391 . S
C680 C682 1.394 . S
C680 H696 0.931 . S
C681 C680 1.391 . S
C681 C685 1.376 . S
C682 C680 1.394 . S
C682 C683 1.369 . S
C682 C686 1.531 . S
C683 C682 1.369 . S
C683 C684 1.410 . S
C683 C691 1.503 . S
C684 C683 1.410 . S
C684 C685 1.392 . S
C684 C687 1.511 . S
C685 C681 1.376 . S
C685 C684 1.392 . S
C685 H697 0.929 . S
C686 C682 1.531 . S
C686 H698 0.960 . S
C686 H699 0.962 . S
C686 H700 0.960 . S
C687 C684 1.511 . S
C687 H701 0.961 . S
C687 H702 0.961 . S
C687 H703 0.961 . S
C688 C689 1.370 . S
C688 C690 1.363 . S
C688 H704 0.931 1_455 S
C689 C688 1.370 . S
C689 C693 1.408 . S
C690 C688 1.363 . S
C690 C691 1.370 . S
C690 C694 1.524 . S
C691 C683 1.503 . S
C691 C690 1.370 . S
C691 C692 1.403 . S
C692 C691 1.403 . S
C692 C693 1.404 . S
C692 C695 1.539 . S
C693 C689 1.408 . S
C693 C692 1.404 . S
C693 H705 0.930 . S
C694 C690 1.524 . S
C694 H706 0.956 . S
C694 H707 0.961 . S
C694 H708 0.961 . S
C695 C692 1.539 . S
C695 H709 0.958 . S
C695 H710 0.961 . S
C695 H711 0.960 . S
H696 C680 0.931 . S
H697 C685 0.929 . S
H698 C686 0.960 . S
H699 C686 0.962 . S
H700 C686 0.960 . S
H701 C687 0.961 . S
H702 C687 0.961 . S
H703 C687 0.961 . S
H704 C688 0.931 1_655 S
H705 C693 0.930 . S
H706 C694 0.956 . S
H707 C694 0.961 . S
H708 C694 0.961 . S
H709 C695 0.958 . S
H710 C695 0.961 . S
H711 C695 0.960 . S
C712 C713 1.391 . S
C712 C714 1.394 . S
C712 H728 0.931 . S
C713 C712 1.391 . S
C713 C717 1.376 . S
C714 C712 1.394 . S
C714 C715 1.369 . S
C714 C718 1.531 . S
C715 C714 1.369 . S
C715 C716 1.410 . S
C715 C723 1.503 . S
C716 C715 1.410 . S
C716 C717 1.392 . S
C716 C719 1.511 . S
C717 C713 1.376 . S
C717 C716 1.392 . S
C717 H729 0.929 . S
C718 C714 1.531 . S
C718 H730 0.960 . S
C718 H731 0.962 . S
C718 H732 0.960 . S
C719 C716 1.511 . S
C719 H733 0.961 . S
C719 H734 0.961 . S
C719 H735 0.961 . S
C720 C721 1.370 . S
C720 C722 1.363 . S
C720 H736 0.931 . S
C721 C720 1.370 . S
C721 C725 1.408 . S
C722 C720 1.363 . S
C722 C723 1.370 . S
C722 C726 1.524 . S
C723 C715 1.503 . S
C723 C722 1.370 . S
C723 C724 1.403 . S
C724 C723 1.403 . S
C724 C725 1.404 . S
C724 C727 1.539 . S
C725 C721 1.408 . S
C725 C724 1.404 . S
C725 H737 0.930 . S
C726 C722 1.524 . S
C726 H738 0.956 . S
C726 H739 0.961 . S
C726 H740 0.961 . S
C727 C724 1.539 . S
C727 H741 0.958 . S
C727 H742 0.961 . S
C727 H743 0.960 . S
H728 C712 0.931 . S
H729 C717 0.929 . S
H730 C718 0.960 . S
H731 C718 0.962 . S
H732 C718 0.960 . S
H733 C719 0.961 . S
H734 C719 0.961 . S
H735 C719 0.961 . S
H736 C720 0.931 . S
H737 C725 0.930 . S
H738 C726 0.956 . S
H739 C726 0.961 . S
H740 C726 0.961 . S
H741 C727 0.958 . S
H742 C727 0.961 . S
H743 C727 0.960 . S
C744 C745 1.391 . S
C744 C746 1.394 . S
C744 H760 0.931 . S
C745 C744 1.391 . S
C745 C749 1.376 . S
C746 C744 1.394 . S
C746 C747 1.369 . S
C746 C750 1.531 . S
C747 C746 1.369 . S
C747 C748 1.410 . S
C747 C755 1.503 . S
C748 C747 1.410 . S
C748 C749 1.392 . S
C748 C751 1.511 . S
C749 C745 1.376 . S
C749 C748 1.392 . S
C749 H761 0.929 . S
C750 C746 1.531 . S
C750 H762 0.960 . S
C750 H763 0.962 . S
C750 H764 0.960 . S
C751 C748 1.511 . S
C751 H765 0.961 . S
C751 H766 0.961 . S
C751 H767 0.961 . S
C752 C753 1.370 . S
C752 C754 1.363 . S
C752 H768 0.931 . S
C753 C752 1.370 . S
C753 C757 1.408 . S
C754 C752 1.363 . S
C754 C755 1.370 . S
C754 C758 1.524 . S
C755 C747 1.503 . S
C755 C754 1.370 . S
C755 C756 1.403 . S
C756 C755 1.403 . S
C756 C757 1.404 . S
C756 C759 1.539 . S
C757 C753 1.408 . S
C757 C756 1.404 . S
C757 H769 0.930 . S
C758 C754 1.524 . S
C758 H770 0.956 . S
C758 H771 0.961 . S
C758 H772 0.961 . S
C759 C756 1.539 . S
C759 H773 0.958 . S
C759 H774 0.961 . S
C759 H775 0.960 . S
H760 C744 0.931 . S
H761 C749 0.929 . S
H762 C750 0.960 . S
H763 C750 0.962 . S
H764 C750 0.960 . S
H765 C751 0.961 . S
H766 C751 0.961 . S
H767 C751 0.961 . S
H768 C752 0.931 . S
H769 C757 0.930 . S
H770 C758 0.956 . S
H771 C758 0.961 . S
H772 C758 0.961 . S
H773 C759 0.958 . S
H774 C759 0.961 . S
H775 C759 0.960 . S
C776 C777 1.391 . S
C776 C778 1.394 . S
C776 H792 0.931 . S
C777 C776 1.391 . S
C777 C781 1.376 . S
C778 C776 1.394 . S
C778 C779 1.369 . S
C778 C782 1.531 . S
C779 C778 1.369 . S
C779 C780 1.410 . S
C779 C787 1.503 . S
C780 C779 1.410 . S
C780 C781 1.392 . S
C780 C783 1.511 . S
C781 C777 1.376 . S
C781 C780 1.392 . S
C781 H793 0.929 . S
C782 C778 1.531 . S
C782 H794 0.960 . S
C782 H795 0.962 . S
C782 H796 0.960 . S
C783 C780 1.511 . S
C783 H797 0.961 . S
C783 H798 0.961 . S
C783 H799 0.961 . S
C784 C785 1.370 . S
C784 C786 1.363 . S
C784 H800 0.931 . S
C785 C784 1.370 . S
C785 C789 1.408 . S
C786 C784 1.363 . S
C786 C787 1.370 . S
C786 C790 1.524 . S
C787 C779 1.503 . S
C787 C786 1.370 . S
C787 C788 1.403 . S
C788 C787 1.403 . S
C788 C789 1.404 . S
C788 C791 1.539 . S
C789 C785 1.408 . S
C789 C788 1.404 . S
C789 H801 0.930 . S
C790 C786 1.524 . S
C790 H802 0.956 . S
C790 H803 0.961 . S
C790 H804 0.961 . S
C791 C788 1.539 . S
C791 H805 0.958 . S
C791 H806 0.961 . S
C791 H807 0.960 . S
H792 C776 0.931 . S
H793 C781 0.929 . S
H794 C782 0.960 . S
H795 C782 0.962 . S
H796 C782 0.960 . S
H797 C783 0.961 . S
H798 C783 0.961 . S
H799 C783 0.961 . S
H800 C784 0.931 . S
H801 C789 0.930 . S
H802 C790 0.956 . S
H803 C790 0.961 . S
H804 C790 0.961 . S
H805 C791 0.958 . S
H806 C791 0.961 . S
H807 C791 0.960 . S
C808 C809 1.391 . S
C808 C810 1.394 . S
C808 H824 0.931 . S
C809 C808 1.391 . S
C809 C813 1.376 . S
C810 C808 1.394 . S
C810 C811 1.369 . S
C810 C814 1.531 . S
C811 C810 1.369 . S
C811 C812 1.410 . S
C811 C819 1.503 . S
C812 C811 1.410 . S
C812 C813 1.392 . S
C812 C815 1.511 . S
C813 C809 1.376 . S
C813 C812 1.392 . S
C813 H825 0.929 . S
C814 C810 1.531 . S
C814 H826 0.960 . S
C814 H827 0.962 . S
C814 H828 0.960 . S
C815 C812 1.511 . S
C815 H829 0.961 . S
C815 H830 0.961 . S
C815 H831 0.961 . S
C816 C817 1.370 . S
C816 C818 1.363 . S
C816 H832 0.931 . S
C817 C816 1.370 . S
C817 C821 1.408 . S
C818 C816 1.363 . S
C818 C819 1.370 . S
C818 C822 1.524 . S
C819 C811 1.503 . S
C819 C818 1.370 . S
C819 C820 1.403 . S
C820 C819 1.403 . S
C820 C821 1.404 . S
C820 C823 1.539 . S
C821 C817 1.408 . S
C821 C820 1.404 . S
C821 H833 0.930 . S
C822 C818 1.524 . S
C822 H834 0.956 . S
C822 H835 0.961 . S
C822 H836 0.961 . S
C823 C820 1.539 . S
C823 H837 0.958 . S
C823 H838 0.961 . S
C823 H839 0.960 . S
H824 C808 0.931 . S
H825 C813 0.929 . S
H826 C814 0.960 . S
H827 C814 0.962 . S
H828 C814 0.960 . S
H829 C815 0.961 . S
H830 C815 0.961 . S
H831 C815 0.961 . S
H832 C816 0.931 . S
H833 C821 0.930 . S
H834 C822 0.956 . S
H835 C822 0.961 . S
H836 C822 0.961 . S
H837 C823 0.958 . S
H838 C823 0.961 . S
H839 C823 0.960 . S
C840 C841 1.391 . S
C840 C842 1.394 . S
C840 H856 0.931 . S
C841 C840 1.391 . S
C841 C845 1.376 . S
C842 C840 1.394 . S
C842 C843 1.369 . S
C842 C846 1.531 . S
C843 C842 1.369 . S
C843 C844 1.410 . S
C843 C851 1.503 . S
C844 C843 1.410 . S
C844 C845 1.392 . S
C844 C847 1.511 . S
C845 C841 1.376 . S
C845 C844 1.392 . S
C845 H857 0.929 . S
C846 C842 1.531 . S
C846 H858 0.960 . S
C846 H859 0.962 . S
C846 H860 0.960 . S
C847 C844 1.511 . S
C847 H861 0.961 . S
C847 H862 0.961 . S
C847 H863 0.961 . S
C848 C849 1.370 . S
C848 C850 1.363 . S
C848 H864 0.931 . S
C849 C848 1.370 . S
C849 C853 1.408 . S
C850 C848 1.363 . S
C850 C851 1.370 . S
C850 C854 1.524 . S
C851 C843 1.503 . S
C851 C850 1.370 . S
C851 C852 1.403 . S
C852 C851 1.403 . S
C852 C853 1.404 . S
C852 C855 1.539 . S
C853 C849 1.408 . S
C853 C852 1.404 . S
C853 H865 0.930 . S
C854 C850 1.524 . S
C854 H866 0.956 . S
C854 H867 0.961 . S
C854 H868 0.961 . S
C855 C852 1.539 . S
C855 H869 0.958 . S
C855 H870 0.961 . S
C855 H871 0.960 . S
H856 C840 0.931 . S
H857 C845 0.929 . S
H858 C846 0.960 . S
H859 C846 0.962 . S
H860 C846 0.960 . S
H861 C847 0.961 . S
H862 C847 0.961 . S
H863 C847 0.961 . S
H864 C848 0.931 . S
H865 C853 0.930 . S
H866 C854 0.956 . S
H867 C854 0.961 . S
H868 C854 0.961 . S
H869 C855 0.958 . S
H870 C855 0.961 . S
H871 C855 0.960 . S
C872 C873 1.391 . S
C872 C874 1.394 . S
C872 H888 0.931 . S
C873 C872 1.391 . S
C873 C877 1.376 . S
C874 C872 1.394 . S
C874 C875 1.369 . S
C874 C878 1.531 . S
C875 C874 1.369 . S
C875 C876 1.410 . S
C875 C883 1.503 . S
C876 C875 1.410 . S
C876 C877 1.392 . S
C876 C879 1.511 . S
C877 C873 1.376 . S
C877 C876 1.392 . S
C877 H889 0.929 . S
C878 C874 1.531 . S
C878 H890 0.960 . S
C878 H891 0.962 . S
C878 H892 0.960 . S
C879 C876 1.511 . S
C879 H893 0.961 . S
C879 H894 0.961 . S
C879 H895 0.961 . S
C880 C881 1.370 . S
C880 C882 1.363 . S
C880 H896 0.931 . S
C881 C880 1.370 . S
C881 C885 1.408 . S
C882 C880 1.363 . S
C882 C883 1.370 . S
C882 C886 1.524 . S
C883 C875 1.503 . S
C883 C882 1.370 . S
C883 C884 1.403 . S
C884 C883 1.403 . S
C884 C885 1.404 . S
C884 C887 1.539 . S
C885 C881 1.408 . S
C885 C884 1.404 . S
C885 H897 0.930 . S
C886 C882 1.524 . S
C886 H898 0.956 . S
C886 H899 0.961 . S
C886 H900 0.961 . S
C887 C884 1.539 . S
C887 H901 0.958 . S
C887 H902 0.961 . S
C887 H903 0.960 . S
H888 C872 0.931 . S
H889 C877 0.929 . S
H890 C878 0.960 . S
H891 C878 0.962 . S
H892 C878 0.960 . S
H893 C879 0.961 . S
H894 C879 0.961 . S
H895 C879 0.961 . S
H896 C880 0.931 . S
H897 C885 0.930 . S
H898 C886 0.956 . S
H899 C886 0.961 . S
H900 C886 0.961 . S
H901 C887 0.958 . S
H902 C887 0.961 . S
H903 C887 0.960 . S
C904 C905 1.391 . S
C904 C906 1.394 . S
C904 H920 0.931 . S
C905 C904 1.391 . S
C905 C909 1.376 . S
C906 C904 1.394 . S
C906 C907 1.369 . S
C906 C910 1.531 . S
C907 C906 1.369 . S
C907 C908 1.410 . S
C907 C915 1.503 . S
C908 C907 1.410 . S
C908 C909 1.392 . S
C908 C911 1.511 . S
C909 C905 1.376 . S
C909 C908 1.392 . S
C909 H921 0.929 . S
C910 C906 1.531 . S
C910 H922 0.960 . S
C910 H923 0.962 . S
C910 H924 0.960 . S
C911 C908 1.511 . S
C911 H925 0.961 . S
C911 H926 0.961 . S
C911 H927 0.961 . S
C912 C913 1.370 . S
C912 C914 1.363 . S
C912 H928 0.931 . S
C913 C912 1.370 . S
C913 C917 1.408 . S
C914 C912 1.363 . S
C914 C915 1.370 . S
C914 C918 1.524 . S
C915 C907 1.503 . S
C915 C914 1.370 . S
C915 C916 1.403 . S
C916 C915 1.403 . S
C916 C917 1.404 . S
C916 C919 1.539 . S
C917 C913 1.408 . S
C917 C916 1.404 . S
C917 H929 0.930 . S
C918 C914 1.524 . S
C918 H930 0.956 . S
C918 H931 0.961 . S
C918 H932 0.961 . S
C919 C916 1.539 . S
C919 H933 0.958 . S
C919 H934 0.961 . S
C919 H935 0.960 . S
H920 C904 0.931 . S
H921 C909 0.929 . S
H922 C910 0.960 . S
H923 C910 0.962 . S
H924 C910 0.960 . S
H925 C911 0.961 . S
H926 C911 0.961 . S
H927 C911 0.961 . S
H928 C912 0.931 . S
H929 C917 0.930 . S
H930 C918 0.956 . S
H931 C918 0.961 . S
H932 C918 0.961 . S
H933 C919 0.958 . S
H934 C919 0.961 . S
H935 C919 0.960 . S
C169 C118 1.457 . S
C177 C6 1.507 . S
C201 C20 1.472 . S
C209 C132 1.511 . S
C233 C34 1.507 . S
C241 C146 1.503 . S
C265 C48 1.457 . S
C273 C160 1.504 . S
C297 C90 1.471 . S
C305 C62 1.492 . S
C329 C76 1.526 . S
C337 C104 1.491 . S
C361 C7 1.575 . S
C369 C78 1.606 . S
C393 C21 1.590 . S
C401 C8 1.606 1_655 S
C425 C35 1.603 . S
C433 C22 1.602 1_565 S
C457 C36 1.585 . S
C465 C49 1.593 . S
C489 C50 1.581 1_455 S
C497 C63 1.589 . S
C521 C64 1.583 1_545 S
C529 C77 1.582 . S
C553 C106 1.590 . S
C561 C91 1.579 . S
C585 C105 1.591 . S
C593 C120 1.606 1_655 S
C617 C134 1.581 1_565 S
C625 C119 1.585 . S
C649 C133 1.568 . S
C657 C148 1.596 . S
C681 C147 1.604 . S
C689 C162 1.600 1_455 S
C713 C161 1.590 . S
C721 C92 1.594 1_545 S
C745 C149 1.461 . S
C753 C9 1.467 . S
C777 C163 1.481 . S
C785 C23 1.474 . S
C809 C93 1.469 . S
C817 C37 1.478 . S
C841 C51 1.478 . S
C849 C107 1.476 . S
C873 C65 1.461 . S
C881 C121 1.445 1_556 S
C905 C135 1.478 . S
C913 C79 1.454 1_554 S
