# Generated by pormake.
# Topology uow, (4)-cn, num edge types: 1
# Building blocks:
#     Node 0, Type 0, BuildingBlock: AZAVOO_clean_sbu_0, # of connection points: 4
#     Node 1, Type 0, BuildingBlock: AZAVOO_clean_sbu_0, # of connection points: 4
#     Node 2, Type 0, BuildingBlock: AZAVOO_clean_sbu_0, # of connection points: 4
#     Node 3, Type 0, BuildingBlock: AZAVOO_clean_sbu_0, # of connection points: 4
#     Node 4, Type 0, BuildingBlock: AZAVOO_clean_sbu_0, # of connection points: 4
#     Node 5, Type 0, BuildingBlock: AZAVOO_clean_sbu_0, # of connection points: 4
#     Node 6, Type 0, BuildingBlock: AZAVOO_clean_sbu_0, # of connection points: 4
#     Node 7, Type 0, BuildingBlock: AZAVOO_clean_sbu_0, # of connection points: 4
#     Node 8, Type 0, BuildingBlock: AZAVOO_clean_sbu_0, # of connection points: 4
#     Node 9, Type 0, BuildingBlock: AZAVOO_clean_sbu_0, # of connection points: 4
#     Node 10, Type 0, BuildingBlock: AZAVOO_clean_sbu_0, # of connection points: 4
#     Node 11, Type 0, BuildingBlock: AZAVOO_clean_sbu_0, # of connection points: 4
#     Node 12, Type 0, BuildingBlock: AZAVOO_clean_sbu_0, # of connection points: 4
#     Node 13, Type 0, BuildingBlock: AZAVOO_clean_sbu_0, # of connection points: 4
#     Node 14, Type 0, BuildingBlock: AZAVOO_clean_sbu_0, # of connection points: 4
#     Node 15, Type 0, BuildingBlock: AZAVOO_clean_sbu_0, # of connection points: 4
#     Node 16, Type 0, BuildingBlock: AZAVOO_clean_sbu_0, # of connection points: 4
#     Node 17, Type 0, BuildingBlock: AZAVOO_clean_sbu_0, # of connection points: 4
#     Node 18, Type 0, BuildingBlock: AZAVOO_clean_sbu_0, # of connection points: 4
#     Node 19, Type 0, BuildingBlock: AZAVOO_clean_sbu_0, # of connection points: 4
#     Node 20, Type 0, BuildingBlock: AZAVOO_clean_sbu_0, # of connection points: 4
#     Node 21, Type 0, BuildingBlock: AZAVOO_clean_sbu_0, # of connection points: 4
#     Node 22, Type 0, BuildingBlock: AZAVOO_clean_sbu_0, # of connection points: 4
#     Node 23, Type 0, BuildingBlock: AZAVOO_clean_sbu_0, # of connection points: 4
#     Node 24, Type 0, BuildingBlock: AZAVOO_clean_sbu_0, # of connection points: 4
#     Node 25, Type 0, BuildingBlock: AZAVOO_clean_sbu_0, # of connection points: 4
#     Node 26, Type 0, BuildingBlock: AZAVOO_clean_sbu_0, # of connection points: 4
#     Node 27, Type 0, BuildingBlock: AZAVOO_clean_sbu_0, # of connection points: 4
#     Node 28, Type 0, BuildingBlock: AZAVOO_clean_sbu_0, # of connection points: 4
#     Node 29, Type 0, BuildingBlock: AZAVOO_clean_sbu_0, # of connection points: 4
#     Node 30, Type 0, BuildingBlock: AZAVOO_clean_sbu_0, # of connection points: 4
#     Node 31, Type 0, BuildingBlock: AZAVOO_clean_sbu_0, # of connection points: 4
#     Edge 32, Type (0, 0), BuildingBlock: TEMPAE_clean_linker_10, # of connection points: 2
#     Edge 33, Type (0, 0), BuildingBlock: TEMPAE_clean_linker_10, # of connection points: 2
#     Edge 34, Type (0, 0), BuildingBlock: TEMPAE_clean_linker_10, # of connection points: 2
#     Edge 35, Type (0, 0), BuildingBlock: TEMPAE_clean_linker_10, # of connection points: 2
#     Edge 36, Type (0, 0), BuildingBlock: TEMPAE_clean_linker_10, # of connection points: 2
#     Edge 37, Type (0, 0), BuildingBlock: TEMPAE_clean_linker_10, # of connection points: 2
#     Edge 38, Type (0, 0), BuildingBlock: TEMPAE_clean_linker_10, # of connection points: 2
#     Edge 39, Type (0, 0), BuildingBlock: TEMPAE_clean_linker_10, # of connection points: 2
#     Edge 40, Type (0, 0), BuildingBlock: TEMPAE_clean_linker_10, # of connection points: 2
#     Edge 41, Type (0, 0), BuildingBlock: TEMPAE_clean_linker_10, # of connection points: 2
#     Edge 42, Type (0, 0), BuildingBlock: TEMPAE_clean_linker_10, # of connection points: 2
#     Edge 43, Type (0, 0), BuildingBlock: TEMPAE_clean_linker_10, # of connection points: 2
#     Edge 44, Type (0, 0), BuildingBlock: TEMPAE_clean_linker_10, # of connection points: 2
#     Edge 45, Type (0, 0), BuildingBlock: TEMPAE_clean_linker_10, # of connection points: 2
#     Edge 46, Type (0, 0), BuildingBlock: TEMPAE_clean_linker_10, # of connection points: 2
#     Edge 47, Type (0, 0), BuildingBlock: TEMPAE_clean_linker_10, # of connection points: 2
#     Edge 48, Type (0, 0), BuildingBlock: TEMPAE_clean_linker_10, # of connection points: 2
#     Edge 49, Type (0, 0), BuildingBlock: TEMPAE_clean_linker_10, # of connection points: 2
#     Edge 50, Type (0, 0), BuildingBlock: TEMPAE_clean_linker_10, # of connection points: 2
#     Edge 51, Type (0, 0), BuildingBlock: TEMPAE_clean_linker_10, # of connection points: 2
#     Edge 52, Type (0, 0), BuildingBlock: TEMPAE_clean_linker_10, # of connection points: 2
#     Edge 53, Type (0, 0), BuildingBlock: TEMPAE_clean_linker_10, # of connection points: 2
#     Edge 54, Type (0, 0), BuildingBlock: TEMPAE_clean_linker_10, # of connection points: 2
#     Edge 55, Type (0, 0), BuildingBlock: TEMPAE_clean_linker_10, # of connection points: 2
#     Edge 56, Type (0, 0), BuildingBlock: TEMPAE_clean_linker_10, # of connection points: 2
#     Edge 57, Type (0, 0), BuildingBlock: TEMPAE_clean_linker_10, # of connection points: 2
#     Edge 58, Type (0, 0), BuildingBlock: TEMPAE_clean_linker_10, # of connection points: 2
#     Edge 59, Type (0, 0), BuildingBlock: TEMPAE_clean_linker_10, # of connection points: 2
#     Edge 60, Type (0, 0), BuildingBlock: TEMPAE_clean_linker_10, # of connection points: 2
#     Edge 61, Type (0, 0), BuildingBlock: TEMPAE_clean_linker_10, # of connection points: 2
#     Edge 62, Type (0, 0), BuildingBlock: TEMPAE_clean_linker_10, # of connection points: 2
#     Edge 63, Type (0, 0), BuildingBlock: TEMPAE_clean_linker_10, # of connection points: 2
#     Edge 64, Type (0, 0), BuildingBlock: TEMPAE_clean_linker_10, # of connection points: 2
#     Edge 65, Type (0, 0), BuildingBlock: TEMPAE_clean_linker_10, # of connection points: 2
#     Edge 66, Type (0, 0), BuildingBlock: TEMPAE_clean_linker_10, # of connection points: 2
#     Edge 67, Type (0, 0), BuildingBlock: TEMPAE_clean_linker_10, # of connection points: 2
#     Edge 68, Type (0, 0), BuildingBlock: TEMPAE_clean_linker_10, # of connection points: 2
#     Edge 69, Type (0, 0), BuildingBlock: TEMPAE_clean_linker_10, # of connection points: 2
#     Edge 70, Type (0, 0), BuildingBlock: TEMPAE_clean_linker_10, # of connection points: 2
#     Edge 71, Type (0, 0), BuildingBlock: TEMPAE_clean_linker_10, # of connection points: 2
#     Edge 72, Type (0, 0), BuildingBlock: TEMPAE_clean_linker_10, # of connection points: 2
#     Edge 73, Type (0, 0), BuildingBlock: TEMPAE_clean_linker_10, # of connection points: 2
#     Edge 74, Type (0, 0), BuildingBlock: TEMPAE_clean_linker_10, # of connection points: 2
#     Edge 75, Type (0, 0), BuildingBlock: TEMPAE_clean_linker_10, # of connection points: 2
#     Edge 76, Type (0, 0), BuildingBlock: TEMPAE_clean_linker_10, # of connection points: 2
#     Edge 77, Type (0, 0), BuildingBlock: TEMPAE_clean_linker_10, # of connection points: 2
#     Edge 78, Type (0, 0), BuildingBlock: TEMPAE_clean_linker_10, # of connection points: 2
#     Edge 79, Type (0, 0), BuildingBlock: TEMPAE_clean_linker_10, # of connection points: 2
#     Edge 80, Type (0, 0), BuildingBlock: TEMPAE_clean_linker_10, # of connection points: 2
#     Edge 81, Type (0, 0), BuildingBlock: TEMPAE_clean_linker_10, # of connection points: 2
#     Edge 82, Type (0, 0), BuildingBlock: TEMPAE_clean_linker_10, # of connection points: 2
#     Edge 83, Type (0, 0), BuildingBlock: TEMPAE_clean_linker_10, # of connection points: 2
#     Edge 84, Type (0, 0), BuildingBlock: TEMPAE_clean_linker_10, # of connection points: 2
#     Edge 85, Type (0, 0), BuildingBlock: TEMPAE_clean_linker_10, # of connection points: 2
#     Edge 86, Type (0, 0), BuildingBlock: TEMPAE_clean_linker_10, # of connection points: 2
#     Edge 87, Type (0, 0), BuildingBlock: TEMPAE_clean_linker_10, # of connection points: 2
#     Edge 88, Type (0, 0), BuildingBlock: TEMPAE_clean_linker_10, # of connection points: 2
#     Edge 89, Type (0, 0), BuildingBlock: TEMPAE_clean_linker_10, # of connection points: 2
#     Edge 90, Type (0, 0), BuildingBlock: TEMPAE_clean_linker_10, # of connection points: 2
#     Edge 91, Type (0, 0), BuildingBlock: TEMPAE_clean_linker_10, # of connection points: 2
#     Edge 92, Type (0, 0), BuildingBlock: TEMPAE_clean_linker_10, # of connection points: 2
#     Edge 93, Type (0, 0), BuildingBlock: TEMPAE_clean_linker_10, # of connection points: 2
#     Edge 94, Type (0, 0), BuildingBlock: TEMPAE_clean_linker_10, # of connection points: 2
#     Edge 95, Type (0, 0), BuildingBlock: TEMPAE_clean_linker_10, # of connection points: 2
# Relax obj value: 0.272
# Max RMSD: 0.244
# Mean RMSD: 0.244
data_MOF--net-uow--node1-AZAVOO_clean_sbu_0--edge1-TEMPAE_clean_linker_10
_symmetry_space_group_name_H-M    P1
_symmetry_Int_Tables_number       1
_symmetry_cell_setting            triclinic
loop_
_symmetry_equiv_pos_as_xyz
'x, y, z'
_cell_length_a     60.248217
_cell_length_b     60.302467
_cell_length_c     41.018785
_cell_angle_alpha  90.007839
_cell_angle_beta   89.987613
_cell_angle_gamma 89.996437
loop_
_atom_site_label
_atom_site_type_symbol
_atom_site_fract_x
_atom_site_fract_y
_atom_site_fract_z
_atom_type_partial_charge
Mg0 Mg 0.98603 0.36069 0.24171 0.0
O1 O 0.01634 0.35051 0.27215 0.0
O2 O 0.04731 0.35945 0.24517 0.0
Mg3 Mg 0.03677 0.37346 0.19559 0.0
C4 C 0.03748 0.35152 0.27017 0.0
C5 C 0.94734 0.34274 0.28269 0.0
O6 O 0.94221 0.33603 0.25316 0.0
O7 O 0.99262 0.39731 0.25323 0.0
O8 O 0.02212 0.4038 0.2215 0.0
O9 O 0.98541 0.32768 0.2172 0.0
O10 O 0.00462 0.35655 0.19948 0.0
C11 C 0.00715 0.41049 0.24127 0.0
C12 C 0.99947 0.33595 0.19673 0.0
O13 O 0.96426 0.35509 0.28645 0.0
Mg14 Mg 0.88894 0.72916 0.48765 0.0
O15 O 0.89302 0.76217 0.51386 0.0
O16 O 0.88873 0.79072 0.47992 0.0
Mg17 Mg 0.88005 0.77495 0.43052 0.0
C18 C 0.89273 0.78296 0.50828 0.0
C19 C 0.88792 0.69172 0.54173 0.0
O20 O 0.88537 0.67871 0.5163 0.0
O21 O 0.85156 0.73408 0.48813 0.0
O22 O 0.84733 0.7617 0.4523 0.0
O23 O 0.92471 0.73053 0.47475 0.0
O24 O 0.8978 0.74421 0.44382 0.0
C25 C 0.83927 0.74755 0.47227 0.0
C26 C 0.91869 0.7418 0.44941 0.0
O27 O 0.88882 0.71256 0.53745 0.0
Mg28 Mg 0.51733 0.633 0.72849 0.0
O29 O 0.48624 0.64056 0.75806 0.0
O30 O 0.45564 0.6372 0.72776 0.0
Mg31 Mg 0.4678 0.62408 0.67833 0.0
C32 C 0.46525 0.64179 0.75465 0.0
C33 C 0.55688 0.64002 0.77743 0.0
O34 O 0.56767 0.6437 0.75013 0.0
O35 O 0.51039 0.59627 0.73396 0.0
O36 O 0.48041 0.59195 0.70247 0.0
O37 O 0.51724 0.66792 0.71092 0.0
O38 O 0.50027 0.64023 0.68575 0.0
C39 C 0.49531 0.58408 0.72141 0.0
C40 C 0.50401 0.6612 0.68808 0.0
O41 O 0.53661 0.63431 0.77611 0.0
Mg42 Mg 0.6185 0.26785 0.97648 0.0
O43 O 0.61163 0.23681 0.00676 0.0
O44 O 0.61785 0.20616 0.97776 0.0
Mg45 Mg 0.62953 0.2183 0.92757 0.0
C46 C 0.61195 0.21574 0.00413 0.0
C47 C 0.614 0.30837 0.02535 0.0
O48 O 0.61455 0.32012 0.99839 0.0
O49 O 0.65566 0.26257 0.98179 0.0
O50 O 0.66139 0.23266 0.95066 0.0
O51 O 0.58373 0.26688 0.95911 0.0
O52 O 0.61158 0.25007 0.93401 0.0
C53 C 0.66858 0.24811 0.96924 0.0
C54 C 0.59052 0.25359 0.9364 0.0
O55 O 0.61634 0.28747 0.02372 0.0
Mg56 Mg 0.98179 0.6253 0.25853 0.0
O57 O 0.01414 0.63226 0.23146 0.0
O58 O 0.04327 0.62838 0.2647 0.0
Mg59 Mg 0.02893 0.61792 0.31426 0.0
C60 C 0.03498 0.63287 0.23685 0.0
C61 C 0.94491 0.63397 0.20699 0.0
O62 O 0.93421 0.63927 0.2338 0.0
O63 O 0.98881 0.58816 0.2563 0.0
O64 O 0.01625 0.58503 0.29275 0.0
O65 O 0.98028 0.66069 0.27438 0.0
O66 O 0.99727 0.63411 0.30204 0.0
C67 C 0.00248 0.5764 0.27271 0.0
C68 C 0.99281 0.65483 0.29848 0.0
O69 O 0.96433 0.6259 0.20929 0.0
Mg70 Mg 0.62486 0.73027 0.51291 0.0
O71 O 0.6174 0.76239 0.48529 0.0
O72 O 0.62321 0.79234 0.51592 0.0
Mg73 Mg 0.63674 0.77869 0.56423 0.0
C74 C 0.61718 0.78337 0.48917 0.0
C75 C 0.60309 0.71608 0.44979 0.0
O76 O 0.58951 0.73086 0.46227 0.0
O77 O 0.66167 0.73624 0.50496 0.0
O78 O 0.6677 0.76535 0.53756 0.0
O79 O 0.59079 0.73033 0.53263 0.0
O80 O 0.61916 0.74695 0.55672 0.0
C81 C 0.67464 0.75068 0.51745 0.0
C82 C 0.59809 0.74326 0.55539 0.0
O83 O 0.62072 0.71112 0.46523 0.0
Mg84 Mg 0.51904 0.37188 0.77002 0.0
O85 O 0.48766 0.36233 0.74307 0.0
O86 O 0.45719 0.3679 0.77275 0.0
Mg87 Mg 0.47013 0.38225 0.82104 0.0
C88 C 0.46667 0.36157 0.74653 0.0
C89 C 0.55609 0.3608 0.71779 0.0
O90 O 0.56786 0.35623 0.7439 0.0
O91 O 0.51117 0.40821 0.76118 0.0
O92 O 0.48196 0.41343 0.79395 0.0
O93 O 0.52003 0.33794 0.7909 0.0
O94 O 0.50287 0.36629 0.81415 0.0
C95 C 0.49623 0.42069 0.7735 0.0
C96 C 0.50699 0.34534 0.81354 0.0
O97 O 0.53663 0.36856 0.72115 0.0
Mg98 Mg 0.88329 0.27208 0.00933 0.0
O99 O 0.89076 0.24007 0.98196 0.0
O100 O 0.88324 0.21009 0.01177 0.0
Mg101 Mg 0.8709 0.22391 0.06096 0.0
C102 C 0.89006 0.2191 0.98545 0.0
C103 C 0.90504 0.28628 0.94583 0.0
O104 O 0.9192 0.27234 0.95891 0.0
O105 O 0.84616 0.26622 0.0014 0.0
O106 O 0.83986 0.23815 0.03594 0.0
O107 O 0.91752 0.27156 0.02984 0.0
O108 O 0.88865 0.25555 0.05336 0.0
C109 C 0.83302 0.25255 0.01539 0.0
C110 C 0.90972 0.25909 0.05281 0.0
O111 O 0.8873 0.29091 0.96122 0.0
Mg112 Mg 0.0195 0.62716 0.76114 0.0
O113 O 0.98721 0.63438 0.7346 0.0
O114 O 0.95784 0.62865 0.76653 0.0
Mg115 Mg 0.97247 0.6168 0.81539 0.0
C116 C 0.9663 0.63435 0.73924 0.0
C117 C 0.05659 0.63507 0.70844 0.0
O118 O 0.06881 0.63817 0.73456 0.0
O119 O 0.01313 0.59017 0.75589 0.0
O120 O 0.98536 0.58464 0.79115 0.0
O121 O 0.0199 0.66197 0.77862 0.0
O122 O 0.00406 0.63435 0.80547 0.0
C123 C 0.99947 0.57736 0.77044 0.0
C124 C 0.00768 0.65535 0.80271 0.0
O125 O 0.0365 0.62914 0.7118 0.0
Mg126 Mg 0.13147 0.26526 0.52177 0.0
O127 O 0.1229 0.23495 0.49132 0.0
O128 O 0.12712 0.2037 0.51964 0.0
Mg129 Mg 0.13979 0.21473 0.56991 0.0
C130 C 0.12191 0.2139 0.49346 0.0
C131 C 0.11606 0.30161 0.47383 0.0
O132 O 0.10661 0.30812 0.50108 0.0
O133 O 0.16837 0.25778 0.51542 0.0
O134 O 0.17211 0.22755 0.54649 0.0
O135 O 0.09677 0.26582 0.53981 0.0
O136 O 0.1239 0.24754 0.56424 0.0
C137 C 0.18033 0.24245 0.52787 0.0
C138 C 0.10303 0.25207 0.56222 0.0
O139 O 0.1293 0.2852 0.47467 0.0
Mg140 Mg 0.48409 0.37339 0.25076 0.0
O141 O 0.51517 0.36692 0.22056 0.0
O142 O 0.5456 0.37419 0.2496 0.0
Mg143 Mg 0.53339 0.3845 0.30061 0.0
C144 C 0.53623 0.36804 0.22317 0.0
C145 C 0.44346 0.36833 0.20265 0.0
O146 O 0.43207 0.36819 0.22997 0.0
O147 O 0.48935 0.41054 0.2457 0.0
O148 O 0.51765 0.41633 0.28006 0.0
O149 O 0.48453 0.33855 0.26878 0.0
O150 O 0.50209 0.36642 0.29273 0.0
C151 C 0.50265 0.4235 0.26069 0.0
C152 C 0.49804 0.34549 0.29109 0.0
O153 O 0.4643 0.37135 0.20375 0.0
Mg154 Mg 0.38333 0.73062 0.01712 0.0
O155 O 0.39125 0.76189 0.98805 0.0
O156 O 0.38628 0.79265 0.01725 0.0
Mg157 Mg 0.37384 0.78032 0.06704 0.0
C158 C 0.39181 0.78292 0.99082 0.0
C159 C 0.40385 0.71452 0.95393 0.0
O160 O 0.41865 0.72798 0.96661 0.0
O161 O 0.34629 0.73754 0.01061 0.0
O162 O 0.34208 0.76718 0.04281 0.0
O163 O 0.41793 0.73044 0.0363 0.0
O164 O 0.38998 0.74779 0.06019 0.0
C165 C 0.33411 0.7525 0.02362 0.0
C166 C 0.41092 0.74362 0.05895 0.0
O167 O 0.38596 0.71091 0.96954 0.0
Mg168 Mg 0.02227 0.36415 0.71933 0.0
O169 O 0.99098 0.35658 0.74844 0.0
O170 O 0.96003 0.36112 0.71944 0.0
Mg171 Mg 0.97233 0.37572 0.67097 0.0
C172 C 0.96995 0.35569 0.74573 0.0
C173 C 0.03783 0.34229 0.78225 0.0
O174 O 0.02345 0.32827 0.7698 0.0
O175 O 0.01615 0.40098 0.72812 0.0
O176 O 0.98567 0.40656 0.69811 0.0
O177 O 0.02156 0.33 0.69878 0.0
O178 O 0.00458 0.35858 0.67608 0.0
C179 C 0.00087 0.41368 0.71723 0.0
C180 C 0.00827 0.33753 0.67662 0.0
O181 O 0.04212 0.36005 0.76668 0.0
Mg182 Mg 0.3943 0.26452 0.49233 0.0
O183 O 0.40534 0.23466 0.52214 0.0
O184 O 0.40011 0.20363 0.49365 0.0
Mg185 Mg 0.38645 0.21439 0.44371 0.0
C186 C 0.40642 0.21365 0.51947 0.0
C187 C 0.3969 0.30479 0.54218 0.0
O188 O 0.39754 0.31693 0.51561 0.0
O189 O 0.35793 0.25547 0.50007 0.0
O190 O 0.35377 0.22609 0.46738 0.0
O191 O 0.4286 0.26679 0.4717 0.0
O192 O 0.40124 0.24773 0.44928 0.0
C193 C 0.34582 0.24049 0.48707 0.0
C194 C 0.42189 0.25321 0.4493 0.0
O195 O 0.39513 0.28388 0.53968 0.0
Mg196 Mg 0.47705 0.63855 0.23393 0.0
O197 O 0.50914 0.64436 0.26242 0.0
O198 O 0.53915 0.63878 0.23156 0.0
Mg199 Mg 0.52571 0.62726 0.18221 0.0
C200 C 0.53015 0.64411 0.25861 0.0
C201 C 0.46242 0.65792 0.29955 0.0
O202 O 0.47772 0.6718 0.28934 0.0
O203 O 0.48229 0.60127 0.23949 0.0
O204 O 0.51177 0.59614 0.20716 0.0
O205 O 0.47803 0.67344 0.21559 0.0
O206 O 0.4944 0.6451 0.19106 0.0
C207 C 0.49691 0.58868 0.22651 0.0
C208 C 0.49096 0.66612 0.19284 0.0
O209 O 0.45751 0.64133 0.28175 0.0
Mg210 Mg 0.11903 0.73712 0.98961 0.0
O211 O 0.11022 0.76746 0.02081 0.0
O212 O 0.11728 0.79869 0.99355 0.0
Mg213 Mg 0.12964 0.78805 0.94291 0.0
C214 C 0.11059 0.78858 0.01909 0.0
C215 C 0.09815 0.71777 0.05067 0.0
O216 O 0.0834 0.73192 0.03955 0.0
O217 O 0.15587 0.7439 0.99765 0.0
O218 O 0.16139 0.7734 0.96556 0.0
O219 O 0.08493 0.73631 0.96845 0.0
O220 O 0.11276 0.75587 0.94808 0.0
C221 C 0.16869 0.75828 0.98461 0.0
C222 C 0.09206 0.75065 0.94749 0.0
O223 O 0.1162 0.71527 0.035 0.0
Mg224 Mg 0.48345 0.86387 0.73438 0.0
O225 O 0.51523 0.8558 0.76183 0.0
O226 O 0.54515 0.86214 0.73119 0.0
Mg227 Mg 0.53169 0.87533 0.68259 0.0
C228 C 0.53622 0.85584 0.75785 0.0
C229 C 0.44506 0.85543 0.78511 0.0
O230 O 0.43348 0.85232 0.75836 0.0
O231 O 0.4901 0.90053 0.74205 0.0
O232 O 0.51898 0.90645 0.70892 0.0
O233 O 0.48357 0.82957 0.71446 0.0
O234 O 0.49971 0.85827 0.69056 0.0
C235 C 0.50454 0.91339 0.72934 0.0
C236 C 0.4963 0.83721 0.6916 0.0
O237 O 0.4653 0.86107 0.78279 0.0
Mg238 Mg 0.38105 0.23116 0.98747 0.0
O239 O 0.38571 0.26383 0.01475 0.0
O240 O 0.37934 0.29305 0.98279 0.0
Mg241 Mg 0.36853 0.27831 0.93373 0.0
C242 C 0.38486 0.28473 0.01023 0.0
C243 C 0.40065 0.21817 0.05337 0.0
O244 O 0.4142 0.2335 0.04235 0.0
O245 O 0.34363 0.23531 0.99236 0.0
O246 O 0.33754 0.26355 0.95815 0.0
O247 O 0.41595 0.23328 0.97027 0.0
O248 O 0.38745 0.24778 0.94381 0.0
C249 C 0.33052 0.24889 0.97816 0.0
C250 C 0.40863 0.24556 0.94675 0.0
O251 O 0.3841 0.21255 0.03597 0.0
Mg252 Mg 0.01469 0.13926 0.24686 0.0
O253 O 0.98527 0.15131 0.2771 0.0
O254 O 0.95379 0.14585 0.24968 0.0
Mg255 Mg 0.9636 0.13075 0.20028 0.0
C256 C 0.96422 0.15264 0.27486 0.0
C257 C 0.05612 0.14294 0.29428 0.0
O258 O 0.06755 0.14132 0.2671 0.0
O259 O 0.00573 0.103 0.25662 0.0
O260 O 0.97565 0.09888 0.22529 0.0
O261 O 0.01655 0.17293 0.22429 0.0
O262 O 0.9972 0.14498 0.20407 0.0
C263 C 0.9903 0.09096 0.24459 0.0
C264 C 0.00259 0.16559 0.20284 0.0
O265 O 0.03509 0.14178 0.29321 0.0
Mg266 Mg 0.1107 0.76814 0.48103 0.0
O267 O 0.10346 0.73646 0.50941 0.0
O268 O 0.10935 0.70645 0.47884 0.0
Mg269 Mg 0.12092 0.71974 0.42922 0.0
C270 C 0.10365 0.71546 0.50573 0.0
C271 C 0.10756 0.80735 0.53263 0.0
O272 O 0.10851 0.82001 0.50659 0.0
O273 O 0.14765 0.76173 0.48656 0.0
O274 O 0.15291 0.73271 0.4535 0.0
O275 O 0.07585 0.76826 0.46324 0.0
O276 O 0.10372 0.75159 0.43775 0.0
C277 C 0.16032 0.74733 0.47331 0.0
C278 C 0.08276 0.75553 0.43994 0.0
O279 O 0.10898 0.78646 0.52938 0.0
Mg280 Mg 0.47157 0.12327 0.77908 0.0
O281 O 0.49781 0.13385 0.7414 0.0
O282 O 0.53083 0.13316 0.7665 0.0
Mg283 Mg 0.52615 0.11898 0.81774 0.0
C284 C 0.51878 0.13705 0.74155 0.0
C285 C 0.43062 0.12083 0.71755 0.0
O286 O 0.41389 0.107 0.72045 0.0
O287 O 0.48129 0.08739 0.77142 0.0
O288 O 0.51427 0.08577 0.79638 0.0
O289 O 0.47038 0.15821 0.79701 0.0
O290 O 0.49232 0.13206 0.81693 0.0
C291 C 0.49844 0.07662 0.78058 0.0
C292 C 0.48646 0.15254 0.81625 0.0
O293 O 0.44528 0.12164 0.73968 0.0
Mg294 Mg 0.11637 0.22689 0.00764 0.0
O295 O 0.11045 0.25821 0.97752 0.0
O296 O 0.11345 0.28847 0.0087 0.0
Mg297 Mg 0.12424 0.27591 0.05907 0.0
C298 C 0.10957 0.27919 0.98131 0.0
C299 C 0.10949 0.18756 0.95964 0.0
O300 O 0.10375 0.17796 0.98714 0.0
O301 O 0.15338 0.23306 0.00549 0.0
O302 O 0.1572 0.26272 0.03772 0.0
O303 O 0.08078 0.22714 0.02198 0.0
O304 O 0.1076 0.24402 0.04957 0.0
C305 C 0.16545 0.24771 0.0193 0.0
C306 C 0.08677 0.24018 0.04543 0.0
O307 O 0.11668 0.20734 0.96038 0.0
Mg308 Mg 0.01476 0.87651 0.26824 0.0
O309 O 0.9841 0.86709 0.23865 0.0
O310 O 0.95334 0.87021 0.26882 0.0
Mg311 Mg 0.96474 0.88362 0.31855 0.0
C312 C 0.96314 0.86542 0.24214 0.0
C313 C 0.05325 0.86525 0.22032 0.0
O314 O 0.06205 0.85872 0.24801 0.0
O315 O 0.00619 0.91314 0.26216 0.0
O316 O 0.97691 0.9162 0.29542 0.0
O317 O 0.01726 0.84197 0.28765 0.0
O318 O 0.99765 0.86864 0.31096 0.0
C319 C 0.9912 0.92478 0.27612 0.0
C320 C 0.00339 0.8481 0.30998 0.0
O321 O 0.0345 0.87491 0.2208 0.0
Mg322 Mg 0.37328 0.7707 0.51742 0.0
O323 O 0.38086 0.73869 0.49015 0.0
O324 O 0.37776 0.7085 0.52116 0.0
Mg325 Mg 0.36375 0.72202 0.56941 0.0
C326 C 0.38238 0.71781 0.49406 0.0
C327 C 0.39338 0.78417 0.45239 0.0
O328 O 0.40732 0.76951 0.46427 0.0
O329 O 0.33661 0.76364 0.51069 0.0
O330 O 0.33201 0.73434 0.5435 0.0
O331 O 0.40772 0.7714 0.53616 0.0
O332 O 0.38003 0.7544 0.56132 0.0
C333 C 0.32432 0.74879 0.52363 0.0
C334 C 0.40098 0.7585 0.55935 0.0
O335 O 0.37629 0.78937 0.46899 0.0
Mg336 Mg 0.52467 0.13048 0.26043 0.0
O337 O 0.49228 0.13986 0.23572 0.0
O338 O 0.46365 0.13694 0.26993 0.0
Mg339 Mg 0.47862 0.12391 0.318 0.0
C340 C 0.47163 0.14159 0.2419 0.0
C341 C 0.56077 0.13866 0.20782 0.0
O342 O 0.57203 0.14304 0.2345 0.0
O343 O 0.51533 0.09404 0.25567 0.0
O344 O 0.48875 0.09097 0.2937 0.0
O345 O 0.52777 0.16522 0.27833 0.0
O346 O 0.51118 0.13832 0.30575 0.0
C347 C 0.50141 0.08252 0.27198 0.0
C348 C 0.51607 0.15902 0.30319 0.0
O349 O 0.54099 0.1316 0.21042 0.0
Mg350 Mg 0.62169 0.76478 0.00841 0.0
O351 O 0.61337 0.73408 0.97846 0.0
O352 O 0.61892 0.70318 0.00717 0.0
Mg353 Mg 0.63009 0.71497 0.05789 0.0
C354 C 0.61322 0.71301 0.98091 0.0
C355 C 0.61499 0.80409 0.95874 0.0
O356 O 0.61083 0.81529 0.98554 0.0
O357 O 0.65845 0.75743 0.00355 0.0
O358 O 0.66297 0.7281 0.03619 0.0
O359 O 0.58685 0.76625 0.02584 0.0
O360 O 0.61367 0.74741 0.0505 0.0
C361 C 0.67083 0.74295 0.01714 0.0
C362 C 0.59296 0.75254 0.04838 0.0
O363 O 0.62107 0.78399 0.96091 0.0
Mg364 Mg 0.97902 0.86678 0.76088 0.0
O365 O 0.01068 0.86104 0.73191 0.0
O366 O 0.04101 0.86703 0.76167 0.0
Mg367 Mg 0.02773 0.8777 0.8118 0.0
C368 C 0.03172 0.86158 0.73488 0.0
C369 C 0.9404 0.86657 0.70647 0.0
O370 O 0.92664 0.87105 0.73043 0.0
O371 O 0.98394 0.90402 0.75674 0.0
O372 O 0.01341 0.90959 0.78887 0.0
O373 O 0.98029 0.8317 0.77745 0.0
O374 O 0.99619 0.8597 0.80364 0.0
C375 C 0.99817 0.91687 0.76999 0.0
C376 C 0.99294 0.83868 0.80076 0.0
O377 O 0.96102 0.86492 0.71233 0.0
Mg378 Mg 0.87044 0.22269 0.52239 0.0
O379 O 0.87802 0.24722 0.48064 0.0
O380 O 0.87416 0.2812 0.50214 0.0
Mg381 Mg 0.86528 0.27859 0.55621 0.0
C382 C 0.87852 0.26839 0.47816 0.0
C383 C 0.86856 0.18124 0.46419 0.0
O384 O 0.85583 0.16411 0.45776 0.0
O385 O 0.83373 0.23087 0.52002 0.0
O386 O 0.83093 0.26433 0.54287 0.0
O387 O 0.9066 0.22313 0.53588 0.0
O388 O 0.88127 0.24582 0.55588 0.0
C389 C 0.8221 0.24725 0.52976 0.0
C390 C 0.90177 0.24012 0.55389 0.0
O391 O 0.86354 0.19348 0.4883 0.0
Mg392 Mg 0.51864 0.86827 0.24169 0.0
O393 O 0.48641 0.86029 0.26858 0.0
O394 O 0.45699 0.86461 0.23617 0.0
Mg395 Mg 0.47092 0.87866 0.18853 0.0
C396 C 0.46555 0.85929 0.26351 0.0
C397 C 0.55712 0.8634 0.29341 0.0
O398 O 0.56954 0.86437 0.26712 0.0
O399 O 0.51214 0.90512 0.24777 0.0
O400 O 0.48264 0.91021 0.21539 0.0
O401 O 0.51916 0.83378 0.22273 0.0
O402 O 0.50304 0.86188 0.19734 0.0
C403 C 0.49725 0.91755 0.23526 0.0
C404 C 0.50685 0.84087 0.19904 0.0
O405 O 0.53625 0.86565 0.29064 0.0
Mg406 Mg 0.88561 0.76821 0.98281 0.0
O407 O 0.89365 0.73652 0.01104 0.0
O408 O 0.88787 0.70655 0.98033 0.0
Mg409 Mg 0.87522 0.71957 0.93112 0.0
C410 C 0.89382 0.71554 0.00712 0.0
C411 C 0.90658 0.78486 0.0459 0.0
O412 O 0.92146 0.77132 0.0336 0.0
O413 O 0.84858 0.76143 0.98981 0.0
O414 O 0.8437 0.73269 0.95607 0.0
O415 O 0.9201 0.7685 0.96308 0.0
O416 O 0.89193 0.7516 0.93916 0.0
C417 C 0.83609 0.74702 0.97614 0.0
C418 C 0.91291 0.75557 0.94022 0.0
O419 O 0.88849 0.78777 0.03047 0.0
Mg420 Mg 0.97999 0.13198 0.73191 0.0
O421 O 0.0116 0.1373 0.76111 0.0
O422 O 0.04155 0.12915 0.7314 0.0
Mg423 Mg 0.02827 0.11848 0.68125 0.0
C424 C 0.03259 0.13569 0.75793 0.0
C425 C 0.94226 0.14505 0.78067 0.0
O426 O 0.93353 0.15247 0.75342 0.0
O427 O 0.98388 0.09457 0.7378 0.0
O428 O 0.01234 0.08757 0.70427 0.0
O429 O 0.98284 0.16678 0.71412 0.0
O430 O 0.99765 0.13788 0.68905 0.0
C431 C 0.99721 0.08107 0.72392 0.0
C432 C 0.99558 0.15908 0.69134 0.0
O433 O 0.96073 0.13492 0.77953 0.0
Mg434 Mg 0.60689 0.23023 0.48528 0.0
O435 O 0.60001 0.26176 0.51422 0.0
O436 O 0.60862 0.29208 0.48587 0.0
Mg437 Mg 0.62183 0.27921 0.43676 0.0
C438 C 0.60132 0.28278 0.51169 0.0
C439 C 0.58163 0.2143 0.54459 0.0
O440 O 0.56866 0.22905 0.53075 0.0
O441 O 0.64396 0.23473 0.49567 0.0
O442 O 0.6517 0.26353 0.4631 0.0
O443 O 0.57326 0.23218 0.46305 0.0
O444 O 0.60316 0.24801 0.44193 0.0
C445 C 0.65772 0.2485 0.48323 0.0
C446 C 0.58204 0.24492 0.44126 0.0
O447 O 0.60045 0.21029 0.53173 0.0
C448 C 0.03382 0.32121 0.17164 0.0
C449 C 0.01065 0.32184 0.17277 0.0
C450 C 0.04481 0.30766 0.14908 0.0
C451 C 0.03223 0.29495 0.12668 0.0
C452 C 0.00875 0.29615 0.12715 0.0
C453 C 0.9982 0.3093 0.15071 0.0
C454 C 0.06987 0.30674 0.14949 0.0
C455 C 0.99482 0.28402 0.10239 0.0
C456 C 0.06459 0.2742 0.05354 0.0
C457 C 0.07039 0.25288 0.06386 0.0
C458 C 0.0513 0.28786 0.07313 0.0
C459 C 0.04381 0.27987 0.10367 0.0
C460 C 0.04885 0.25787 0.11336 0.0
C461 C 0.06222 0.24462 0.09329 0.0
C462 C 0.04611 0.31111 0.0618 0.0
C463 C 0.0408 0.24865 0.14545 0.0
H464 H 0.04334 0.33092 0.18893 0.0
H465 H 0.98023 0.31019 0.15143 0.0
H466 H 0.07543 0.28956 0.15469 0.0
H467 H 0.07655 0.31137 0.12522 0.0
H468 H 0.07715 0.31799 0.16808 0.0
H469 H 0.97705 0.28324 0.10959 0.0
H470 H 0.99594 0.29267 0.07858 0.0
H471 H 0.00114 0.26699 0.0988 0.0
H472 H 0.07099 0.28039 0.03058 0.0
H473 H 0.06688 0.22807 0.10104 0.0
H474 H 0.05456 0.32326 0.07787 0.0
H475 H 0.02803 0.31434 0.06351 0.0
H476 H 0.05157 0.31406 0.03629 0.0
H477 H 0.04843 0.25801 0.16585 0.0
H478 H 0.04486 0.23078 0.14836 0.0
H479 H 0.02258 0.25072 0.14737 0.0
C480 C 0.96963 0.83169 0.3348 0.0
C481 C 0.99272 0.83176 0.33142 0.0
C482 C 0.95907 0.81638 0.35525 0.0
C483 C 0.97202 0.80101 0.37309 0.0
C484 C 0.99544 0.80132 0.37022 0.0
C485 C 0.00553 0.81647 0.34884 0.0
C486 C 0.93404 0.81664 0.35767 0.0
C487 C 0.00979 0.78581 0.38986 0.0
C488 C 0.94307 0.77462 0.44543 0.0
C489 C 0.93476 0.7552 0.43137 0.0
C490 C 0.95591 0.78944 0.42704 0.0
C491 C 0.96082 0.78436 0.3941 0.0
C492 C 0.95328 0.76414 0.38037 0.0
C493 C 0.93998 0.74993 0.39911 0.0
C494 C 0.96303 0.81109 0.44229 0.0
C495 C 0.95843 0.75802 0.34548 0.0
H496 H 0.95974 0.84328 0.32088 0.0
H497 H 0.02345 0.81671 0.34628 0.0
H498 H 0.92723 0.80054 0.34921 0.0
H499 H 0.92889 0.81881 0.38344 0.0
H500 H 0.92649 0.8301 0.34289 0.0
H501 H 0.02775 0.78877 0.38572 0.0
H502 H 0.00628 0.78774 0.41624 0.0
H503 H 0.00581 0.76846 0.38337 0.0
H504 H 0.93863 0.77869 0.47035 0.0
H505 H 0.93332 0.73489 0.3884 0.0
H506 H 0.95374 0.82494 0.43084 0.0
H507 H 0.98093 0.81415 0.43791 0.0
H508 H 0.95989 0.81147 0.46897 0.0
H509 H 0.94931 0.76924 0.32876 0.0
H510 H 0.95366 0.74065 0.33978 0.0
H511 H 0.97641 0.76013 0.34045 0.0
C512 C 0.4891 0.6993 0.6776 0.0
C513 C 0.49093 0.67698 0.6684 0.0
C514 C 0.47489 0.71375 0.66073 0.0
C515 C 0.46252 0.70567 0.6339 0.0
C516 C 0.46476 0.68332 0.62401 0.0
C517 C 0.47898 0.66927 0.64135 0.0
C518 C 0.4728 0.73752 0.67186 0.0
C519 C 0.45176 0.67409 0.59557 0.0
C520 C 0.40978 0.73488 0.60759 0.0
C521 C 0.41702 0.7464 0.57987 0.0
C522 C 0.42456 0.72197 0.62593 0.0
C523 C 0.44704 0.72051 0.61617 0.0
C524 C 0.45452 0.73241 0.58858 0.0
C525 C 0.43944 0.74535 0.57085 0.0
C526 C 0.416 0.7094 0.6552 0.0
C527 C 0.47824 0.73077 0.57703 0.0
H528 H 0.49829 0.70534 0.69851 0.0
H529 H 0.48054 0.65209 0.63389 0.0
H530 H 0.47884 0.74878 0.65238 0.0
H531 H 0.45513 0.74172 0.67636 0.0
H532 H 0.48232 0.74079 0.69452 0.0
H533 H 0.45577 0.65642 0.59065 0.0
H534 H 0.43371 0.67546 0.60056 0.0
H535 H 0.4552 0.68386 0.57323 0.0
H536 H 0.39249 0.73577 0.61478 0.0
H537 H 0.44509 0.7541 0.54931 0.0
H538 H 0.42598 0.71355 0.67709 0.0
H539 H 0.41774 0.69131 0.65099 0.0
H540 H 0.39828 0.71311 0.66039 0.0
H541 H 0.48983 0.73393 0.59751 0.0
H542 H 0.4818 0.74257 0.55693 0.0
H543 H 0.48158 0.71373 0.56809 0.0
C544 C 0.51158 0.16242 0.8617 0.0
C545 C 0.49979 0.16903 0.83393 0.0
C546 C 0.52605 0.177 0.87753 0.0
C547 C 0.52896 0.19867 0.86503 0.0
C548 C 0.51701 0.20551 0.83705 0.0
C549 C 0.50233 0.19062 0.82194 0.0
C550 C 0.53846 0.16909 0.90735 0.0
C551 C 0.52038 0.2282 0.82241 0.0
C552 C 0.5519 0.24081 0.92463 0.0
C553 C 0.57452 0.24082 0.91656 0.0
C554 C 0.5368 0.22743 0.9076 0.0
C555 C 0.54447 0.21409 0.88157 0.0
C556 C 0.56715 0.2145 0.87268 0.0
C557 C 0.58193 0.22787 0.89033 0.0
C558 C 0.51275 0.22712 0.91795 0.0
C559 C 0.57595 0.20024 0.84529 0.0
H560 H 0.50959 0.14569 0.87095 0.0
H561 H 0.49351 0.19559 0.8001 0.0
H562 H 0.5566 0.17001 0.90294 0.0
H563 H 0.53472 0.18001 0.92841 0.0
H564 H 0.53413 0.15177 0.91403 0.0
H565 H 0.50823 0.23173 0.80273 0.0
H566 H 0.51911 0.24118 0.84148 0.0
H567 H 0.53731 0.22932 0.81191 0.0
H568 H 0.54604 0.2508 0.94484 0.0
H569 H 0.59935 0.22796 0.88378 0.0
H570 H 0.50723 0.20989 0.92281 0.0
H571 H 0.50226 0.23365 0.89792 0.0
H572 H 0.50983 0.2371 0.94026 0.0
H573 H 0.57389 0.18247 0.85162 0.0
H574 H 0.59379 0.20341 0.84027 0.0
H575 H 0.56637 0.20325 0.82264 0.0
C576 C 0.02749 0.67282 0.31679 0.0
C577 C 0.00436 0.67147 0.31821 0.0
C578 C 0.03913 0.68782 0.33641 0.0
C579 C 0.02726 0.70146 0.35844 0.0
C580 C 0.00378 0.70022 0.35981 0.0
C581 C 0.99254 0.68539 0.3392 0.0
C582 C 0.06414 0.68867 0.33406 0.0
C583 C 0.99065 0.71408 0.38357 0.0
C584 C 0.0607 0.72162 0.43079 0.0
C585 C 0.06702 0.74275 0.42038 0.0
C586 C 0.04713 0.70823 0.41126 0.0
C587 C 0.03967 0.71635 0.38076 0.0
C588 C 0.0456 0.73802 0.37061 0.0
C589 C 0.0594 0.75097 0.39057 0.0
C590 C 0.04154 0.68508 0.42266 0.0
C591 C 0.03803 0.74717 0.3382 0.0
H592 H 0.0365 0.66217 0.30023 0.0
H593 H 0.97459 0.68416 0.34022 0.0
H594 H 0.0697 0.70585 0.32892 0.0
H595 H 0.07158 0.68368 0.35769 0.0
H596 H 0.07071 0.67759 0.31468 0.0
H597 H 0.97247 0.71151 0.38104 0.0
H598 H 0.99555 0.70995 0.40891 0.0
H599 H 0.99441 0.73184 0.37978 0.0
H600 H 0.06679 0.7154 0.4539 0.0
H601 H 0.06458 0.76732 0.38264 0.0
H602 H 0.04926 0.67276 0.40607 0.0
H603 H 0.02335 0.68236 0.42187 0.0
H604 H 0.0475 0.68183 0.44785 0.0
H605 H 0.04615 0.73789 0.31813 0.0
H606 H 0.0421 0.76505 0.33544 0.0
H607 H 0.01984 0.745 0.33534 0.0
C608 C 0.56007 0.75711 0.56767 0.0
C609 C 0.58252 0.75561 0.57632 0.0
C610 C 0.54526 0.76985 0.58617 0.0
C611 C 0.55306 0.78105 0.61419 0.0
C612 C 0.57563 0.77931 0.62338 0.0
C613 C 0.59015 0.76665 0.60421 0.0
C614 C 0.52148 0.77194 0.57508 0.0
C615 C 0.5845 0.7911 0.65313 0.0
C616 C 0.52086 0.83102 0.64373 0.0
C617 C 0.50928 0.82227 0.67044 0.0
C618 C 0.5351 0.81776 0.62513 0.0
C619 C 0.5377 0.79514 0.63335 0.0
C620 C 0.52566 0.78601 0.65977 0.0
C621 C 0.51144 0.79969 0.67796 0.0
C622 C 0.54774 0.82808 0.59716 0.0
C623 C 0.52804 0.76189 0.66902 0.0
H624 H 0.55414 0.7488 0.54592 0.0
H625 H 0.60749 0.76544 0.61102 0.0
H626 H 0.50998 0.76871 0.59566 0.0
H627 H 0.51832 0.78912 0.56663 0.0
H628 H 0.51759 0.76043 0.55475 0.0
H629 H 0.60237 0.78758 0.65738 0.0
H630 H 0.58234 0.80927 0.6503 0.0
H631 H 0.57499 0.78603 0.67507 0.0
H632 H 0.51902 0.84839 0.63754 0.0
H633 H 0.50251 0.79284 0.69857 0.0
H634 H 0.54418 0.81905 0.57419 0.0
H635 H 0.56585 0.82674 0.60167 0.0
H636 H 0.5435 0.84585 0.59363 0.0
H637 H 0.52147 0.75131 0.64909 0.0
H638 H 0.51911 0.75785 0.69193 0.0
H639 H 0.5458 0.75755 0.6722 0.0
C640 C 0.41603 0.27007 0.89901 0.0
C641 C 0.42391 0.25905 0.92678 0.0
C642 C 0.42991 0.28407 0.8809 0.0
C643 C 0.4522 0.28705 0.8908 0.0
C644 C 0.46031 0.27589 0.9187 0.0
C645 C 0.44609 0.26187 0.93627 0.0
C646 C 0.42063 0.2959 0.85143 0.0
C647 C 0.48387 0.27912 0.93028 0.0
C648 C 0.49304 0.30744 0.82717 0.0
C649 C 0.4944 0.33006 0.83472 0.0
C650 C 0.47936 0.29324 0.84532 0.0
C651 C 0.46708 0.30182 0.87188 0.0
C652 C 0.46875 0.32455 0.88005 0.0
C653 C 0.48244 0.33839 0.86138 0.0
C654 C 0.47766 0.26916 0.8357 0.0
C655 C 0.45565 0.33436 0.90794 0.0
H656 H 0.39895 0.26783 0.89144 0.0
H657 H 0.45223 0.25352 0.95786 0.0
H658 H 0.4221 0.3141 0.85475 0.0
H659 H 0.43033 0.29148 0.82939 0.0
H660 H 0.40292 0.29176 0.847 0.0
H661 H 0.48755 0.26939 0.95262 0.0
H662 H 0.49566 0.27428 0.91076 0.0
H663 H 0.4869 0.29689 0.93566 0.0
H664 H 0.50215 0.30094 0.80648 0.0
H665 H 0.48356 0.35585 0.86747 0.0
H666 H 0.46013 0.26471 0.83067 0.0
H667 H 0.48332 0.25855 0.85616 0.0
H668 H 0.48764 0.26535 0.81367 0.0
H669 H 0.43762 0.33257 0.90308 0.0
H670 H 0.45938 0.35222 0.91175 0.0
H671 H 0.45924 0.32529 0.93086 0.0
C672 C 0.91614 0.23879 0.10481 0.0
C673 C 0.9246 0.24736 0.07559 0.0
C674 C 0.92966 0.22657 0.12603 0.0
C675 C 0.95209 0.22261 0.11757 0.0
C676 C 0.96078 0.23135 0.08817 0.0
C677 C 0.94696 0.24386 0.06767 0.0
C678 C 0.91972 0.21728 0.15696 0.0
C679 C 0.98429 0.22655 0.07749 0.0
C680 C 0.99098 0.20356 0.1849 0.0
C681 C 0.99106 0.18057 0.17997 0.0
C682 C 0.97849 0.21754 0.16459 0.0
C683 C 0.96605 0.20827 0.13864 0.0
C684 C 0.96652 0.18512 0.13315 0.0
C685 C 0.97903 0.17157 0.15387 0.0
C686 C 0.97803 0.24211 0.17155 0.0
C687 C 0.95334 0.17457 0.10592 0.0
H688 H 0.89887 0.24153 0.11102 0.0
H689 H 0.95348 0.25023 0.04489 0.0
H690 H 0.92009 0.1989 0.15613 0.0
H691 H 0.92968 0.2225 0.17837 0.0
H692 H 0.90229 0.22272 0.16066 0.0
H693 H 0.9899 0.23814 0.05811 0.0
H694 H 0.99599 0.22749 0.09834 0.0
H695 H 0.98518 0.20946 0.06758 0.0
H696 H 0.00016 0.21057 0.20516 0.0
H697 H 0.9792 0.15381 0.14977 0.0
H698 H 0.96147 0.24681 0.18113 0.0
H699 H 0.98071 0.25162 0.14881 0.0
H700 H 0.99079 0.24707 0.1897 0.0
H701 H 0.93539 0.17795 0.10942 0.0
H702 H 0.95579 0.15633 0.10468 0.0
H703 H 0.95817 0.18187 0.08215 0.0
C704 C 0.99522 0.69398 0.81544 0.0
C705 C 0.99613 0.67146 0.82394 0.0
C706 C 0.98292 0.70912 0.83414 0.0
C707 C 0.97139 0.70153 0.86208 0.0
C708 C 0.97281 0.67896 0.87131 0.0
C709 C 0.98514 0.66419 0.85209 0.0
C710 C 0.98139 0.73292 0.8229 0.0
C711 C 0.96073 0.67024 0.90093 0.0
C712 C 0.95099 0.74196 0.92646 0.0
C713 C 0.92836 0.74339 0.91877 0.0
C714 C 0.96534 0.72871 0.90783 0.0
C715 C 0.95686 0.71684 0.88077 0.0
C716 C 0.93421 0.71892 0.87221 0.0
C717 C 0.92023 0.73214 0.89137 0.0
C718 C 0.9894 0.72683 0.91771 0.0
C719 C 0.92461 0.70672 0.8433 0.0
H720 H 0.00358 0.69972 0.79361 0.0
H721 H 0.98594 0.64685 0.85894 0.0
H722 H 0.96584 0.73516 0.80881 0.0
H723 H 0.98089 0.74459 0.8438 0.0
H724 H 0.99553 0.73744 0.80683 0.0
H725 H 0.96439 0.65247 0.90564 0.0
H726 H 0.96538 0.67999 0.92282 0.0
H727 H 0.94256 0.67215 0.89749 0.0
H728 H 0.95737 0.75063 0.94763 0.0
H729 H 0.90281 0.73345 0.88506 0.0
H730 H 0.00029 0.72955 0.89633 0.0
H731 H 0.99274 0.70985 0.92687 0.0
H732 H 0.99393 0.7389 0.93707 0.0
H733 H 0.93394 0.71104 0.82087 0.0
H734 H 0.90679 0.71063 0.83938 0.0
H735 H 0.92631 0.68857 0.84697 0.0
C736 C 0.06408 0.24011 0.57342 0.0
C737 C 0.08658 0.23996 0.58214 0.0
C738 C 0.04847 0.22764 0.59097 0.0
C739 C 0.05548 0.21502 0.61815 0.0
C740 C 0.0781 0.21518 0.62749 0.0
C741 C 0.0934 0.22759 0.60928 0.0
C742 C 0.02457 0.22756 0.58 0.0
C743 C 0.08619 0.20194 0.6564 0.0
C744 C 0.01275 0.19618 0.68041 0.0
C745 C 0.00967 0.17394 0.67148 0.0
C746 C 0.02756 0.20982 0.66316 0.0
C747 C 0.03929 0.20105 0.63617 0.0
C748 C 0.03579 0.17879 0.62656 0.0
C749 C 0.02104 0.16551 0.64435 0.0
C750 C 0.03103 0.23346 0.67419 0.0
C751 C 0.04792 0.16887 0.5978 0.0
H752 H 0.05871 0.24957 0.55238 0.0
H753 H 0.11075 0.22754 0.61626 0.0
H754 H 0.01939 0.21044 0.57364 0.0
H755 H 0.01369 0.23321 0.60016 0.0
H756 H 0.02184 0.23836 0.55845 0.0
H757 H 0.10416 0.20449 0.66117 0.0
H758 H 0.07675 0.20664 0.67858 0.0
H759 H 0.08325 0.18402 0.65211 0.0
H760 H 0.00404 0.20279 0.7014 0.0
H761 H 0.01855 0.1484 0.63711 0.0
H762 H 0.02658 0.24505 0.65423 0.0
H763 H 0.0488 0.23627 0.67995 0.0
H764 H 0.02102 0.23761 0.69609 0.0
H765 H 0.04474 0.17884 0.57557 0.0
H766 H 0.04286 0.15145 0.59298 0.0
H767 H 0.06607 0.16921 0.6023 0.0
C768 C 0.55863 0.27788 0.43156 0.0
C769 C 0.56803 0.25826 0.41984 0.0
C770 C 0.5464 0.29172 0.4108 0.0
C771 C 0.54343 0.28554 0.37777 0.0
C772 C 0.55241 0.26528 0.36621 0.0
C773 C 0.56487 0.25195 0.38742 0.0
C774 C 0.53725 0.31325 0.42396 0.0
C775 C 0.54972 0.25801 0.33122 0.0
C776 C 0.49773 0.3134 0.32895 0.0
C777 C 0.50965 0.32982 0.31246 0.0
C778 C 0.50848 0.29902 0.3507 0.0
C779 C 0.53174 0.30073 0.35506 0.0
C780 C 0.54387 0.31702 0.33777 0.0
C781 C 0.5326 0.33156 0.31689 0.0
C782 C 0.495 0.28219 0.36925 0.0
C783 C 0.56873 0.31913 0.34138 0.0
H784 H 0.56132 0.28261 0.45676 0.0
H785 H 0.57232 0.23671 0.37861 0.0
H786 H 0.545 0.32742 0.41099 0.0
H787 H 0.51911 0.31417 0.41955 0.0
H788 H 0.54036 0.31519 0.45051 0.0
H789 H 0.55207 0.23982 0.32851 0.0
H790 H 0.53316 0.26252 0.32152 0.0
H791 H 0.56238 0.26649 0.31603 0.0
H792 H 0.47993 0.31221 0.32551 0.0
H793 H 0.54181 0.34406 0.3036 0.0
H794 H 0.49577 0.28582 0.39573 0.0
H795 H 0.50217 0.26548 0.36555 0.0
H796 H 0.47731 0.28201 0.36164 0.0
H797 H 0.57305 0.32229 0.36725 0.0
H798 H 0.57566 0.33274 0.32623 0.0
H799 H 0.57684 0.30335 0.33419 0.0
C800 C 0.48365 0.83339 0.14997 0.0
C801 C 0.49523 0.82528 0.17711 0.0
C802 C 0.47097 0.81922 0.13035 0.0
C803 C 0.46995 0.79636 0.13796 0.0
C804 C 0.48214 0.78791 0.16473 0.0
C805 C 0.49468 0.8025 0.184 0.0
C806 C 0.45804 0.82888 0.10217 0.0
C807 C 0.4811 0.7637 0.17404 0.0
C808 C 0.41872 0.76594 0.10867 0.0
C809 C 0.42652 0.7557 0.08022 0.0
C810 C 0.43285 0.77876 0.12814 0.0
C811 C 0.45527 0.78157 0.11871 0.0
C812 C 0.46335 0.77101 0.09027 0.0
C813 C 0.44889 0.758 0.07146 0.0
C814 C 0.42364 0.7898 0.15831 0.0
C815 C 0.48704 0.77406 0.07918 0.0
H816 H 0.48422 0.85092 0.14428 0.0
H817 H 0.50354 0.79613 0.20501 0.0
H818 H 0.46215 0.82001 0.07927 0.0
H819 H 0.43999 0.82668 0.1065 0.0
H820 H 0.46142 0.84684 0.09866 0.0
H821 H 0.49504 0.75892 0.19031 0.0
H822 H 0.46533 0.76045 0.18717 0.0
H823 H 0.48134 0.75288 0.15216 0.0
H824 H 0.40146 0.76406 0.11562 0.0
H825 H 0.45495 0.75021 0.04936 0.0
H826 H 0.42496 0.80808 0.15592 0.0
H827 H 0.43348 0.78491 0.18 0.0
H828 H 0.40598 0.78544 0.16271 0.0
H829 H 0.48981 0.7916 0.07213 0.0
H830 H 0.49122 0.76337 0.058 0.0
H831 H 0.49862 0.77033 0.09945 0.0
C832 C 0.98396 0.3305 0.62841 0.0
C833 C 0.99542 0.32229 0.65559 0.0
C834 C 0.97023 0.31664 0.60974 0.0
C835 C 0.96766 0.29414 0.61879 0.0
C836 C 0.97971 0.2856 0.64563 0.0
C837 C 0.99366 0.29974 0.66352 0.0
C838 C 0.95789 0.32627 0.58101 0.0
C839 C 0.97733 0.2617 0.65602 0.0
C840 C 0.91304 0.2667 0.59713 0.0
C841 C 0.91898 0.25342 0.57047 0.0
C842 C 0.9288 0.27984 0.61315 0.0
C843 C 0.95101 0.28001 0.60191 0.0
C844 C 0.95712 0.2667 0.57489 0.0
C845 C 0.94103 0.25338 0.55961 0.0
C846 C 0.92167 0.29352 0.6422 0.0
C847 C 0.98041 0.26706 0.56143 0.0
H848 H 0.98549 0.34786 0.62194 0.0
H849 H 0.00254 0.29327 0.68443 0.0
H850 H 0.9607 0.31597 0.55898 0.0
H851 H 0.9398 0.32617 0.58604 0.0
H852 H 0.96305 0.34358 0.57561 0.0
H853 H 0.98674 0.258 0.67863 0.0
H854 H 0.9596 0.25766 0.66032 0.0
H855 H 0.98332 0.25064 0.63626 0.0
H856 H 0.89603 0.26667 0.60573 0.0
H857 H 0.9456 0.24334 0.53873 0.0
H858 H 0.92474 0.31136 0.63738 0.0
H859 H 0.93164 0.28888 0.6639 0.0
H860 H 0.90382 0.29128 0.64811 0.0
H861 H 0.98294 0.28263 0.54752 0.0
H862 H 0.98354 0.25287 0.54478 0.0
H863 H 0.99285 0.2668 0.58134 0.0
C864 C 0.4985 0.16851 0.3562 0.0
C865 C 0.50578 0.17528 0.32536 0.0
C866 C 0.48649 0.18292 0.37637 0.0
C867 C 0.48144 0.20457 0.36526 0.0
C868 C 0.48903 0.21158 0.33416 0.0
C869 C 0.50149 0.19695 0.31486 0.0
C870 C 0.4781 0.1745 0.4088 0.0
C871 C 0.48319 0.23386 0.31976 0.0
C872 C 0.42923 0.23001 0.40027 0.0
C873 C 0.43754 0.24247 0.42642 0.0
C874 C 0.44345 0.21816 0.37967 0.0
C875 C 0.46662 0.21888 0.38516 0.0
C876 C 0.47526 0.23215 0.41071 0.0
C877 C 0.46056 0.2438 0.43111 0.0
C878 C 0.43361 0.20438 0.35251 0.0
C879 C 0.49986 0.23336 0.41765 0.0
H880 H 0.50181 0.15172 0.36433 0.0
H881 H 0.50683 0.20216 0.2908 0.0
H882 H 0.48396 0.18543 0.42876 0.0
H883 H 0.45968 0.17484 0.40909 0.0
H884 H 0.48368 0.15729 0.41397 0.0
H885 H 0.49863 0.24292 0.3135 0.0
H886 H 0.47401 0.23133 0.29658 0.0
H887 H 0.4729 0.24435 0.33594 0.0
H888 H 0.41148 0.22923 0.39612 0.0
H889 H 0.46712 0.25344 0.45123 0.0
H890 H 0.43865 0.18678 0.35535 0.0
H891 H 0.44006 0.21022 0.32867 0.0
H892 H 0.4152 0.20523 0.35198 0.0
H893 H 0.50445 0.21984 0.43469 0.0
H894 H 0.50434 0.24933 0.42946 0.0
H895 H 0.50995 0.23139 0.3952 0.0
C896 C 0.52686 0.68374 0.17969 0.0
C897 C 0.50424 0.68138 0.1731 0.0
C898 C 0.54045 0.69662 0.1595 0.0
C899 C 0.53112 0.70722 0.13192 0.0
C900 C 0.50802 0.70535 0.12574 0.0
C901 C 0.4948 0.69244 0.1466 0.0
C902 C 0.56491 0.69835 0.1672 0.0
C903 C 0.4972 0.71585 0.0964 0.0
C904 C 0.56524 0.75306 0.093 0.0
C905 C 0.57644 0.74133 0.06866 0.0
C906 C 0.55012 0.74223 0.11357 0.0
C907 C 0.54588 0.71933 0.10903 0.0
C908 C 0.55661 0.7077 0.0835 0.0
C909 C 0.57207 0.71881 0.06386 0.0
C910 C 0.53913 0.75513 0.14061 0.0
C911 C 0.55191 0.68349 0.07718 0.0
H912 H 0.53397 0.67533 0.2005 0.0
H913 H 0.47725 0.69042 0.14155 0.0
H914 H 0.57472 0.69057 0.14736 0.0
H915 H 0.56994 0.71602 0.16861 0.0
H916 H 0.56926 0.6901 0.19056 0.0
H917 H 0.48018 0.72164 0.10246 0.0
H918 H 0.50685 0.72998 0.08662 0.0
H919 H 0.49568 0.7032 0.07686 0.0
H920 H 0.56875 0.77054 0.09645 0.0
H921 H 0.58065 0.70995 0.04463 0.0
H922 H 0.54589 0.74964 0.16445 0.0
H923 H 0.52108 0.75173 0.14083 0.0
H924 H 0.54176 0.77329 0.13819 0.0
H925 H 0.55687 0.67347 0.09867 0.0
H926 H 0.56088 0.67714 0.05543 0.0
H927 H 0.53383 0.68099 0.07349 0.0
C928 C 0.99731 0.81418 0.84887 0.0
C929 C 0.00602 0.82309 0.82016 0.0
C930 C 0.0105 0.80085 0.86916 0.0
C931 C 0.03282 0.79649 0.86028 0.0
C932 C 0.04131 0.80481 0.8305 0.0
C933 C 0.02777 0.81816 0.81082 0.0
C934 C 0.00082 0.79204 0.90052 0.0
C935 C 0.06485 0.80015 0.81989 0.0
C936 C 0.07523 0.78529 0.92649 0.0
C937 C 0.07662 0.76216 0.92571 0.0
C938 C 0.06062 0.79661 0.90578 0.0
C939 C 0.04771 0.78447 0.8831 0.0
C940 C 0.0493 0.76104 0.88205 0.0
C941 C 0.06351 0.7501 0.90388 0.0
C942 C 0.05903 0.82156 0.90814 0.0
C943 C 0.03666 0.7476 0.85722 0.0
H944 H 0.9804 0.81812 0.85583 0.0
H945 H 0.0343 0.82505 0.78838 0.0
H946 H 0.00327 0.77385 0.902 0.0
H947 H 0.0096 0.79956 0.92158 0.0
H948 H 0.9828 0.79565 0.90278 0.0
H949 H 0.06833 0.80647 0.79497 0.0
H950 H 0.07663 0.80807 0.83711 0.0
H951 H 0.06812 0.78205 0.8204 0.0
H952 H 0.08532 0.79448 0.9437 0.0
H953 H 0.06487 0.73218 0.90325 0.0
H954 H 0.04158 0.82655 0.91271 0.0
H955 H 0.06417 0.82919 0.88472 0.0
H956 H 0.06962 0.82839 0.92791 0.0
H957 H 0.01934 0.75355 0.85521 0.0
H958 H 0.03653 0.72964 0.86326 0.0
H959 H 0.04451 0.7497 0.83295 0.0
C960 C 0.07262 0.35176 0.30289 0.0
C961 C 0.05096 0.3438 0.29819 0.0
C962 C 0.08508 0.34549 0.33034 0.0
C963 C 0.07583 0.3306 0.3533 0.0
C964 C 0.05421 0.32203 0.34817 0.0
C965 C 0.04197 0.32889 0.32087 0.0
C966 C 0.10793 0.35523 0.3352 0.0
C967 C 0.04388 0.30582 0.37179 0.0
C968 C 0.11236 0.29913 0.41308 0.0
C969 C 0.10834 0.31068 0.44221 0.0
C970 C 0.1024 0.30578 0.3837 0.0
C971 C 0.08829 0.32457 0.38337 0.0
C972 C 0.08504 0.33689 0.41237 0.0
C973 C 0.09501 0.32974 0.44145 0.0
C974 C 0.10614 0.29208 0.35337 0.0
C975 C 0.07033 0.35717 0.41296 0.0
H976 H 0.07962 0.36339 0.28557 0.0
H977 H 0.02532 0.32253 0.31725 0.0
H978 H 0.10825 0.36517 0.35797 0.0
H979 H 0.12036 0.34179 0.33799 0.0
H980 H 0.11303 0.36604 0.31459 0.0
H981 H 0.02739 0.29985 0.36342 0.0
H982 H 0.05494 0.29129 0.37516 0.0
H983 H 0.04184 0.3138 0.39598 0.0
H984 H 0.12253 0.2843 0.41347 0.0
H985 H 0.09189 0.3388 0.46381 0.0
H986 H 0.11149 0.30283 0.33288 0.0
H987 H 0.09033 0.28407 0.34601 0.0
H988 H 0.11882 0.27895 0.35711 0.0
H989 H 0.07535 0.36894 0.39354 0.0
H990 H 0.0709 0.36589 0.43681 0.0
H991 H 0.0529 0.35225 0.40803 0.0
C992 C 0.89909 0.82128 0.5309 0.0
C993 C 0.89764 0.79826 0.5357 0.0
C994 C 0.90464 0.83556 0.55678 0.0
C995 C 0.90889 0.82658 0.58805 0.0
C996 C 0.90699 0.80345 0.59315 0.0
C997 C 0.90136 0.78963 0.567 0.0
C998 C 0.90642 0.86016 0.55052 0.0
C999 C 0.91146 0.79315 0.6261 0.0
C1000 C 0.94709 0.85332 0.64964 0.0
C1001 C 0.93205 0.8601 0.67382 0.0
C1002 C 0.93968 0.84366 0.62055 0.0
C1003 C 0.91664 0.84089 0.6153 0.0
C1004 C 0.90132 0.84927 0.63843 0.0
C1005 C 0.90921 0.85872 0.66754 0.0
C1006 C 0.95662 0.83495 0.59657 0.0
C1007 C 0.87661 0.84696 0.63342 0.0
H1008 H 0.89621 0.82813 0.50685 0.0
H1009 H 0.90018 0.77192 0.57113 0.0
H1010 H 0.8964 0.8695 0.56859 0.0
H1011 H 0.92391 0.86554 0.55346 0.0
H1012 H 0.90079 0.86472 0.52562 0.0
H1013 H 0.90856 0.77495 0.62621 0.0
H1014 H 0.92892 0.7963 0.63334 0.0
H1015 H 0.90066 0.80083 0.64486 0.0
H1016 H 0.96479 0.85454 0.65404 0.0
H1017 H 0.89746 0.86413 0.6859 0.0
H1018 H 0.95239 0.84015 0.5714 0.0
H1019 H 0.95653 0.81655 0.59708 0.0
H1020 H 0.97368 0.84075 0.6023 0.0
H1021 H 0.87195 0.85176 0.60822 0.0
H1022 H 0.867 0.85725 0.65089 0.0
H1023 H 0.87174 0.82936 0.6368 0.0
C1024 C 0.42469 0.71299 0.90172 0.0
C1025 C 0.40852 0.70381 0.92225 0.0
C1026 C 0.43094 0.70243 0.87275 0.0
C1027 C 0.42108 0.6819 0.86435 0.0
C1028 C 0.40413 0.67292 0.88433 0.0
C1029 C 0.39789 0.68411 0.913 0.0
C1030 C 0.44879 0.71282 0.85186 0.0
C1031 C 0.39338 0.65099 0.87627 0.0
C1032 C 0.43263 0.66211 0.77799 0.0
C1033 C 0.45204 0.64968 0.78269 0.0
C1034 C 0.42171 0.67203 0.80455 0.0
C1035 C 0.43021 0.66906 0.83645 0.0
C1036 C 0.44906 0.65544 0.84139 0.0
C1037 C 0.45986 0.64612 0.81444 0.0
C1038 C 0.40189 0.68673 0.79826 0.0
C1039 C 0.4585 0.65156 0.87503 0.0
H1040 H 0.43279 0.72834 0.90857 0.0
H1041 H 0.38536 0.67698 0.92882 0.0
H1042 H 0.46404 0.70252 0.8529 0.0
H1043 H 0.4434 0.7135 0.82602 0.0
H1044 H 0.45305 0.72988 0.85998 0.0
H1045 H 0.37896 0.6474 0.89231 0.0
H1046 H 0.38776 0.65077 0.85053 0.0
H1047 H 0.40573 0.63748 0.87914 0.0
H1048 H 0.42662 0.66499 0.75344 0.0
H1049 H 0.47474 0.63632 0.81818 0.0
H1050 H 0.4065 0.70426 0.80291 0.0
H1051 H 0.38811 0.68254 0.8151 0.0
H1052 H 0.39582 0.68533 0.77276 0.0
H1053 H 0.46562 0.66725 0.88456 0.0
H1054 H 0.47174 0.63874 0.87504 0.0
H1055 H 0.44519 0.64633 0.89208 0.0
C1056 C 0.59473 0.21246 0.05939 0.0
C1057 C 0.60493 0.2022 0.03257 0.0
C1058 C 0.58794 0.20014 0.08659 0.0
C1059 C 0.59157 0.17695 0.08724 0.0
C1060 C 0.60183 0.16642 0.06031 0.0
C1061 C 0.60831 0.17916 0.03319 0.0
C1062 C 0.57688 0.212 0.11469 0.0
C1063 C 0.60612 0.14176 0.06028 0.0
C1064 C 0.59159 0.15284 0.17264 0.0
C1065 C 0.56968 0.14525 0.17555 0.0
C1066 C 0.59933 0.1621 0.14338 0.0
C1067 C 0.58476 0.16397 0.11644 0.0
C1068 C 0.56297 0.15529 0.11868 0.0
C1069 C 0.55572 0.14594 0.14817 0.0
C1070 C 0.62276 0.17094 0.14186 0.0
C1071 C 0.54689 0.15701 0.09056 0.0
H1072 H 0.5919 0.23021 0.05914 0.0
H1073 H 0.61621 0.17108 0.01264 0.0
H1074 H 0.5602 0.20482 0.11919 0.0
H1075 H 0.58675 0.20969 0.13726 0.0
H1076 H 0.575 0.23007 0.11016 0.0
H1077 H 0.61415 0.13606 0.03738 0.0
H1078 H 0.61697 0.13729 0.08112 0.0
H1079 H 0.59029 0.13262 0.06346 0.0
H1080 H 0.60254 0.15222 0.19359 0.0
H1081 H 0.53876 0.14009 0.15015 0.0
H1082 H 0.62236 0.18931 0.14044 0.0
H1083 H 0.63128 0.16484 0.11962 0.0
H1084 H 0.63269 0.1661 0.16353 0.0
H1085 H 0.54257 0.17468 0.08643 0.0
H1086 H 0.53133 0.14763 0.09511 0.0
H1087 H 0.55462 0.15073 0.06782 0.0
C1088 C 0.06741 0.65515 0.21779 0.0
C1089 C 0.04952 0.64112 0.21056 0.0
C1090 C 0.0787 0.66646 0.19284 0.0
C1091 C 0.07216 0.66325 0.16 0.0
C1092 C 0.05526 0.64774 0.15254 0.0
C1093 C 0.04395 0.63708 0.17796 0.0
C1094 C 0.0964 0.68308 0.20184 0.0
C1095 C 0.04808 0.64348 0.11783 0.0
C1096 C 0.07495 0.71067 0.09974 0.0
C1097 C 0.0931 0.70466 0.08025 0.0
C1098 C 0.06858 0.69775 0.1265 0.0
C1099 C 0.08057 0.6782 0.13394 0.0
C1100 C 0.09942 0.67243 0.11513 0.0
C1101 C 0.10554 0.68581 0.08849 0.0
C1102 C 0.04851 0.70467 0.14614 0.0
C1103 C 0.11258 0.65172 0.12235 0.0
H1104 H 0.07163 0.65843 0.24304 0.0
H1105 H 0.03022 0.62608 0.17235 0.0
H1106 H 0.11113 0.68125 0.18585 0.0
H1107 H 0.08984 0.70011 0.19826 0.0
H1108 H 0.10172 0.68136 0.22765 0.0
H1109 H 0.037 0.62882 0.11587 0.0
H1110 H 0.03902 0.65818 0.10843 0.0
H1111 H 0.06273 0.64084 0.10192 0.0
H1112 H 0.06543 0.72538 0.09381 0.0
H1113 H 0.11963 0.68113 0.07356 0.0
H1114 H 0.05267 0.70526 0.17247 0.0
H1115 H 0.03506 0.69228 0.143 0.0
H1116 H 0.04206 0.72117 0.13868 0.0
H1117 H 0.11714 0.65107 0.14853 0.0
H1118 H 0.12797 0.65068 0.1075 0.0
H1119 H 0.10223 0.63691 0.11716 0.0
C1120 C 0.58974 0.85338 0.32834 0.0
C1121 C 0.56677 0.85642 0.32505 0.0
C1122 C 0.59875 0.84388 0.35666 0.0
C1123 C 0.58444 0.83713 0.38219 0.0
C1124 C 0.56137 0.84127 0.37975 0.0
C1125 C 0.55283 0.85095 0.35128 0.0
C1126 C 0.62347 0.83997 0.35851 0.0
C1127 C 0.54552 0.83429 0.40637 0.0
C1128 C 0.60216 0.78752 0.43264 0.0
C1129 C 0.60924 0.79744 0.46182 0.0
C1130 C 0.59414 0.80028 0.40666 0.0
C1131 C 0.59322 0.82364 0.4097 0.0
C1132 C 0.60047 0.83386 0.4389 0.0
C1133 C 0.60836 0.82064 0.46467 0.0
C1134 C 0.58644 0.78869 0.37601 0.0
C1135 C 0.59979 0.85874 0.44295 0.0
H1136 H 0.60066 0.85772 0.30833 0.0
H1137 H 0.53506 0.85333 0.34908 0.0
H1138 H 0.63012 0.84593 0.38217 0.0
H1139 H 0.62689 0.82192 0.35703 0.0
H1140 H 0.63256 0.8484 0.33846 0.0
H1141 H 0.52845 0.84069 0.40225 0.0
H1142 H 0.54479 0.81592 0.40749 0.0
H1143 H 0.55144 0.84023 0.43044 0.0
H1144 H 0.60277 0.76965 0.43003 0.0
H1145 H 0.61378 0.82849 0.48706 0.0
H1146 H 0.59556 0.79519 0.35455 0.0
H1147 H 0.56854 0.79205 0.37197 0.0
H1148 H 0.58891 0.77045 0.37714 0.0
H1149 H 0.60964 0.86679 0.42339 0.0
H1150 H 0.60638 0.86415 0.46695 0.0
H1151 H 0.58247 0.86475 0.44053 0.0
C1152 C 0.40739 0.33705 0.57743 0.0
C1153 C 0.40127 0.31471 0.57457 0.0
C1154 C 0.41493 0.34563 0.60726 0.0
C1155 C 0.41636 0.33151 0.63477 0.0
C1156 C 0.40868 0.3094 0.63259 0.0
C1157 C 0.4012 0.30127 0.60253 0.0
C1158 C 0.42283 0.36937 0.60871 0.0
C1159 C 0.40985 0.29381 0.66137 0.0
C1160 C 0.46394 0.34276 0.6926 0.0
C1161 C 0.45328 0.35327 0.71881 0.0
C1162 C 0.45202 0.33548 0.66537 0.0
C1163 C 0.42879 0.33883 0.66413 0.0
C1164 C 0.41779 0.34915 0.69061 0.0
C1165 C 0.43018 0.3562 0.71777 0.0
C1166 C 0.46439 0.32432 0.6378 0.0
C1167 C 0.39304 0.353 0.69001 0.0
H1168 H 0.4073 0.3476 0.55604 0.0
H1169 H 0.39623 0.28403 0.60068 0.0
H1170 H 0.41614 0.37779 0.63066 0.0
H1171 H 0.4412 0.36967 0.61055 0.0
H1172 H 0.41786 0.37895 0.58676 0.0
H1173 H 0.40032 0.27831 0.65708 0.0
H1174 H 0.42742 0.28932 0.66604 0.0
H1175 H 0.40339 0.30194 0.6837 0.0
H1176 H 0.48175 0.34023 0.69323 0.0
H1177 H 0.42182 0.36434 0.73788 0.0
H1178 H 0.46213 0.33389 0.61493 0.0
H1179 H 0.45757 0.30747 0.63358 0.0
H1180 H 0.48246 0.32284 0.64274 0.0
H1181 H 0.38872 0.36412 0.66942 0.0
H1182 H 0.38688 0.36057 0.713 0.0
H1183 H 0.38419 0.33711 0.68597 0.0
C1184 C 0.94366 0.14642 0.8417 0.0
C1185 C 0.93235 0.15108 0.81257 0.0
C1186 C 0.93607 0.15474 0.87167 0.0
C1187 C 0.91664 0.16795 0.87255 0.0
C1188 C 0.90443 0.17156 0.84354 0.0
C1189 C 0.91245 0.16312 0.81389 0.0
C1190 C 0.94963 0.15061 0.90201 0.0
C1191 C 0.88355 0.18542 0.84349 0.0
C1192 C 0.8898 0.18345 0.95359 0.0
C1193 C 0.89763 0.20516 0.95786 0.0
C1194 C 0.896 0.17092 0.92609 0.0
C1195 C 0.91063 0.18024 0.90275 0.0
C1196 C 0.91914 0.20186 0.90762 0.0
C1197 C 0.9124 0.21407 0.9349 0.0
C1198 C 0.88646 0.14798 0.92154 0.0
C1199 C 0.93503 0.21236 0.88363 0.0
H1200 H 0.95901 0.13706 0.84098 0.0
H1201 H 0.90349 0.16665 0.79158 0.0
H1202 H 0.95779 0.16627 0.90966 0.0
H1203 H 0.93882 0.14518 0.92239 0.0
H1204 H 0.96269 0.13788 0.89805 0.0
H1205 H 0.87461 0.18449 0.81984 0.0
H1206 H 0.87217 0.17997 0.86319 0.0
H1207 H 0.88786 0.20301 0.84826 0.0
H1208 H 0.87833 0.1765 0.97121 0.0
H1209 H 0.91877 0.2307 0.93822 0.0
H1210 H 0.9 0.13575 0.91797 0.0
H1211 H 0.87602 0.14762 0.89927 0.0
H1212 H 0.87618 0.1427 0.94264 0.0
H1213 H 0.94914 0.20104 0.87858 0.0
H1214 H 0.94177 0.22837 0.89263 0.0
H1215 H 0.92637 0.2154 0.86019 0.0
C1216 C 0.92856 0.64242 0.71549 0.0
C1217 C 0.95174 0.64155 0.712 0.0
C1218 C 0.91496 0.64974 0.68974 0.0
C1219 C 0.92481 0.65638 0.65994 0.0
C1220 C 0.94814 0.65534 0.65623 0.0
C1221 C 0.96126 0.64793 0.6822 0.0
C1222 C 0.89014 0.65059 0.69449 0.0
C1223 C 0.95935 0.6623 0.62488 0.0
C1224 C 0.89537 0.65932 0.57842 0.0
C1225 C 0.89337 0.68231 0.57416 0.0
C1226 C 0.90411 0.65046 0.60737 0.0
C1227 C 0.91107 0.66495 0.63255 0.0
C1228 C 0.90757 0.68806 0.62931 0.0
C1229 C 0.89872 0.69645 0.6002 0.0
C1230 C 0.90732 0.6257 0.61006 0.0
C1231 C 0.91469 0.7041 0.65558 0.0
H1232 H 0.92103 0.63752 0.73837 0.0
H1233 H 0.97911 0.64733 0.67909 0.0
H1234 H 0.88423 0.66794 0.69221 0.0
H1235 H 0.88172 0.6408 0.6752 0.0
H1236 H 0.885 0.64408 0.71867 0.0
H1237 H 0.97766 0.66022 0.62583 0.0
H1238 H 0.95283 0.65239 0.6042 0.0
H1239 H 0.95561 0.67997 0.61968 0.0
H1240 H 0.89107 0.64824 0.55859 0.0
H1241 H 0.89701 0.71424 0.59732 0.0
H1242 H 0.90175 0.61963 0.63424 0.0
H1243 H 0.92524 0.62172 0.60773 0.0
H1244 H 0.89815 0.61655 0.59078 0.0
H1245 H 0.90889 0.6984 0.67984 0.0
H1246 H 0.90827 0.72111 0.6512 0.0
H1247 H 0.93309 0.70484 0.65642 0.0
C1248 C 0.0903 0.15136 0.32692 0.0
C1249 C 0.06717 0.14896 0.32532 0.0
C1250 C 0.10057 0.15963 0.35517 0.0
C1251 C 0.08737 0.16578 0.38227 0.0
C1252 C 0.06414 0.16239 0.38133 0.0
C1253 C 0.05434 0.15393 0.35295 0.0
C1254 C 0.12543 0.16278 0.35543 0.0
C1255 C 0.04944 0.16883 0.40964 0.0
C1256 C 0.11298 0.17797 0.46514 0.0
C1257 C 0.11399 0.20123 0.46471 0.0
C1258 C 0.10483 0.16609 0.43818 0.0
C1259 C 0.09742 0.17777 0.41029 0.0
C1260 C 0.0987 0.20119 0.40953 0.0
C1261 C 0.107 0.2126 0.43665 0.0
C1262 C 0.10381 0.1411 0.43972 0.0
C1263 C 0.09087 0.2143 0.38031 0.0
H1264 H 0.10035 0.14741 0.30579 0.0
H1265 H 0.03646 0.15204 0.35204 0.0
H1266 H 0.12935 0.18076 0.35515 0.0
H1267 H 0.13269 0.15576 0.37804 0.0
H1268 H 0.13355 0.15488 0.33406 0.0
H1269 H 0.03197 0.16345 0.40609 0.0
H1270 H 0.05577 0.16147 0.43261 0.0
H1271 H 0.04967 0.18711 0.41268 0.0
H1272 H 0.1184 0.16902 0.48662 0.0
H1273 H 0.10771 0.23055 0.43594 0.0
H1274 H 0.11258 0.1338 0.41848 0.0
H1275 H 0.08628 0.13554 0.43842 0.0
H1276 H 0.11131 0.13444 0.46244 0.0
H1277 H 0.0997 0.20871 0.35805 0.0
H1278 H 0.09358 0.23242 0.38327 0.0
H1279 H 0.07289 0.21136 0.37632 0.0
C1280 C 0.60436 0.34173 0.05907 0.0
C1281 C 0.60733 0.31871 0.05666 0.0
C1282 C 0.59522 0.35129 0.0873 0.0
C1283 C 0.5887 0.33748 0.11352 0.0
C1284 C 0.59271 0.31437 0.11186 0.0
C1285 C 0.60209 0.3053 0.08356 0.0
C1286 C 0.59151 0.37604 0.08835 0.0
C1287 C 0.58591 0.29903 0.1392 0.0
C1288 C 0.57327 0.36114 0.19657 0.0
C1289 C 0.54999 0.36141 0.19473 0.0
C1290 C 0.5862 0.3539 0.17006 0.0
C1291 C 0.57559 0.3467 0.14113 0.0
C1292 C 0.55216 0.34736 0.13891 0.0
C1293 C 0.53969 0.35472 0.16564 0.0
C1294 C 0.61116 0.35354 0.17321 0.0
C1295 C 0.54017 0.3398 0.10851 0.0
H1296 H 0.60853 0.35223 0.03853 0.0
H1297 H 0.60439 0.2875 0.08203 0.0
H1298 H 0.57347 0.37958 0.08682 0.0
H1299 H 0.59756 0.383 0.11175 0.0
H1300 H 0.59998 0.38472 0.06796 0.0
H1301 H 0.59186 0.28179 0.13532 0.0
H1302 H 0.59245 0.30512 0.16283 0.0
H1303 H 0.56754 0.29871 0.14112 0.0
H1304 H 0.58142 0.36631 0.21886 0.0
H1305 H 0.52174 0.35492 0.16379 0.0
H1306 H 0.61888 0.36263 0.1526 0.0
H1307 H 0.61721 0.33618 0.17206 0.0
H1308 H 0.61691 0.36105 0.19646 0.0
H1309 H 0.54619 0.34923 0.08705 0.0
H1310 H 0.5219 0.34196 0.11038 0.0
H1311 H 0.54375 0.32201 0.10394 0.0
C1312 C 0.40997 0.78552 0.93624 0.0
C1313 C 0.39926 0.79613 0.96233 0.0
C1314 C 0.41692 0.79738 0.90873 0.0
C1315 C 0.41286 0.82045 0.90694 0.0
C1316 C 0.40214 0.83137 0.93316 0.0
C1317 C 0.39557 0.81909 0.96069 0.0
C1318 C 0.42857 0.78513 0.88149 0.0
C1319 C 0.39739 0.85593 0.93192 0.0
C1320 C 0.44918 0.84999 0.84528 0.0
C1321 C 0.43567 0.84961 0.8174 0.0
C1322 C 0.44154 0.84166 0.87518 0.0
C1323 C 0.41981 0.83286 0.87731 0.0
C1324 C 0.40564 0.83368 0.84979 0.0
C1325 C 0.41376 0.842 0.82013 0.0
C1326 C 0.4572 0.84104 0.9039 0.0
C1327 C 0.3823 0.82461 0.85118 0.0
H1328 H 0.41304 0.76784 0.93727 0.0
H1329 H 0.38725 0.82741 0.98067 0.0
H1330 H 0.41885 0.78662 0.85862 0.0
H1331 H 0.4451 0.79262 0.87694 0.0
H1332 H 0.43087 0.76725 0.88699 0.0
H1333 H 0.38922 0.86201 0.9545 0.0
H1334 H 0.41304 0.8653 0.92828 0.0
H1335 H 0.38648 0.85968 0.91084 0.0
H1336 H 0.46611 0.85595 0.8435 0.0
H1337 H 0.40314 0.8418 0.7988 0.0
H1338 H 0.46197 0.82361 0.90902 0.0
H1339 H 0.44896 0.84761 0.92608 0.0
H1340 H 0.47257 0.85076 0.89939 0.0
H1341 H 0.38289 0.80629 0.85352 0.0
H1342 H 0.37258 0.82883 0.82901 0.0
H1343 H 0.37344 0.83113 0.87287 0.0
C1344 C 0.92441 0.28521 0.89244 0.0
C1345 C 0.91025 0.29639 0.91397 0.0
C1346 C 0.93145 0.2951 0.86334 0.0
C1347 C 0.92453 0.31695 0.85591 0.0
C1348 C 0.90952 0.32805 0.87696 0.0
C1349 C 0.90234 0.3175 0.90567 0.0
C1350 C 0.94708 0.28249 0.84129 0.0
C1351 C 0.90204 0.35147 0.87009 0.0
C1352 C 0.96639 0.34867 0.80532 0.0
C1353 C 0.95708 0.34754 0.77402 0.0
C1354 C 0.95545 0.33962 0.83233 0.0
C1355 C 0.93482 0.3288 0.82793 0.0
C1356 C 0.92504 0.32803 0.79655 0.0
C1357 C 0.93622 0.33762 0.76994 0.0
C1358 C 0.96638 0.34102 0.86543 0.0
C1359 C 0.90329 0.31624 0.79083 0.0
H1360 H 0.9303 0.26875 0.8986 0.0
H1361 H 0.8914 0.32618 0.92234 0.0
H1362 H 0.94126 0.28324 0.81566 0.0
H1363 H 0.96379 0.2902 0.84215 0.0
H1364 H 0.94868 0.2648 0.84852 0.0
H1365 H 0.88875 0.35696 0.88705 0.0
H1366 H 0.91637 0.3629 0.87255 0.0
H1367 H 0.89586 0.35293 0.84471 0.0
H1368 H 0.98244 0.35648 0.8087 0.0
H1369 H 0.92903 0.33657 0.74576 0.0
H1370 H 0.97126 0.32418 0.87363 0.0
H1371 H 0.95455 0.34773 0.88367 0.0
H1372 H 0.98144 0.35165 0.86517 0.0
H1373 H 0.90543 0.29823 0.79539 0.0
H1374 H 0.89709 0.31854 0.76555 0.0
H1375 H 0.89049 0.32231 0.80812 0.0
C1376 C 0.41224 0.15039 0.68558 0.0
C1377 C 0.43085 0.13706 0.69091 0.0
C1378 C 0.41131 0.16478 0.65879 0.0
C1379 C 0.42904 0.16504 0.63611 0.0
C1380 C 0.44825 0.15211 0.64211 0.0
C1381 C 0.44913 0.13858 0.66999 0.0
C1382 C 0.39087 0.17891 0.65397 0.0
C1383 C 0.46745 0.15185 0.61852 0.0
C1384 C 0.40968 0.17797 0.55032 0.0
C1385 C 0.41446 0.20065 0.54779 0.0
C1386 C 0.41528 0.166 0.57847 0.0
C1387 C 0.42612 0.17689 0.6046 0.0
C1388 C 0.43213 0.19947 0.60148 0.0
C1389 C 0.42609 0.21112 0.5732 0.0
C1390 C 0.40876 0.14186 0.58081 0.0
C1391 C 0.44413 0.21153 0.6285 0.0
H1392 H 0.3983 0.14941 0.70226 0.0
H1393 H 0.46359 0.12832 0.67451 0.0
H1394 H 0.39564 0.19633 0.6488 0.0
H1395 H 0.38138 0.17273 0.63265 0.0
H1396 H 0.37982 0.17869 0.67565 0.0
H1397 H 0.47975 0.13885 0.62479 0.0
H1398 H 0.4615 0.14887 0.59329 0.0
H1399 H 0.47586 0.16819 0.61877 0.0
H1400 H 0.40079 0.16972 0.53081 0.0
H1401 H 0.43016 0.22858 0.57123 0.0
H1402 H 0.39604 0.13975 0.60014 0.0
H1403 H 0.42334 0.13165 0.58776 0.0
H1404 H 0.4019 0.1354 0.55754 0.0
H1405 H 0.43321 0.21272 0.65021 0.0
H1406 H 0.44917 0.22855 0.62121 0.0
H1407 H 0.45916 0.20218 0.63589 0.0
C1408 C 0.58286 0.71589 0.39717 0.0
C1409 C 0.59698 0.70498 0.41906 0.0
C1410 C 0.57464 0.70505 0.36954 0.0
C1411 C 0.58027 0.68257 0.36407 0.0
C1412 C 0.59522 0.6717 0.38541 0.0
C1413 C 0.60362 0.68316 0.41259 0.0
C1414 C 0.55911 0.71741 0.34703 0.0
C1415 C 0.60137 0.64766 0.38056 0.0
C1416 C 0.53565 0.65163 0.31781 0.0
C1417 C 0.54422 0.65155 0.28603 0.0
C1418 C 0.54778 0.66065 0.34374 0.0
C1419 C 0.56888 0.67012 0.33767 0.0
C1420 C 0.57799 0.6694 0.30587 0.0
C1421 C 0.56559 0.65996 0.2804 0.0
C1422 C 0.53756 0.66089 0.37738 0.0
C1423 C 0.60028 0.67964 0.2984 0.0
H1424 H 0.57788 0.73285 0.402 0.0
H1425 H 0.61447 0.6747 0.42961 0.0
H1426 H 0.56442 0.71539 0.3213 0.0
H1427 H 0.54213 0.71044 0.34918 0.0
H1428 H 0.55836 0.73541 0.35274 0.0
H1429 H 0.61482 0.6423 0.39732 0.0
H1430 H 0.58658 0.63711 0.38498 0.0
H1431 H 0.60677 0.6447 0.35508 0.0
H1432 H 0.51921 0.64498 0.32237 0.0
H1433 H 0.57224 0.66006 0.25585 0.0
H1434 H 0.53358 0.6782 0.38446 0.0
H1435 H 0.54948 0.65431 0.39558 0.0
H1436 H 0.52206 0.65094 0.37861 0.0
H1437 H 0.59917 0.69792 0.3011 0.0
H1438 H 0.60596 0.67581 0.27325 0.0
H1439 H 0.61298 0.67371 0.31592 0.0
C1440 C 0.09116 0.7911 0.07292 0.0
C1441 C 0.10275 0.80163 0.04758 0.0
C1442 C 0.08348 0.80305 0.1 0.0
C1443 C 0.0877 0.82611 0.10213 0.0
C1444 C 0.09944 0.83687 0.07674 0.0
C1445 C 0.1067 0.82453 0.04966 0.0
C1446 C 0.07081 0.79095 0.12636 0.0
C1447 C 0.10446 0.86137 0.07833 0.0
C1448 C 0.05046 0.85813 0.16028 0.0
C1449 C 0.06319 0.85812 0.18894 0.0
C1450 C 0.05852 0.84843 0.13148 0.0
C1451 C 0.07994 0.83876 0.13119 0.0
C1452 C 0.09332 0.83978 0.15954 0.0
C1453 C 0.08473 0.84931 0.18812 0.0
C1454 C 0.04365 0.84752 0.10187 0.0
C1455 C 0.11637 0.82996 0.16009 0.0
H1456 H 0.08788 0.77346 0.07153 0.0
H1457 H 0.1157 0.83281 0.03029 0.0
H1458 H 0.07973 0.7924 0.14992 0.0
H1459 H 0.05422 0.79861 0.12965 0.0
H1460 H 0.06855 0.77307 0.1207 0.0
H1461 H 0.11378 0.86727 0.05662 0.0
H1462 H 0.0888 0.87096 0.08025 0.0
H1463 H 0.11438 0.86506 0.10047 0.0
H1464 H 0.03377 0.86483 0.1607 0.0
H1465 H 0.09472 0.84936 0.2101 0.0
H1466 H 0.03913 0.83003 0.09669 0.0
H1467 H 0.0525 0.85396 0.08014 0.0
H1468 H 0.02814 0.85721 0.10528 0.0
H1469 H 0.11531 0.81166 0.15774 0.0
H1470 H 0.1254 0.83395 0.18296 0.0
H1471 H 0.12621 0.83614 0.1391 0.0
C1472 C 0.6022 0.83544 0.9234 0.0
C1473 C 0.60883 0.81326 0.92649 0.0
C1474 C 0.59304 0.84333 0.89414 0.0
C1475 C 0.59024 0.8286 0.86755 0.0
C1476 C 0.5981 0.80655 0.86991 0.0
C1477 C 0.60744 0.79919 0.89928 0.0
C1478 C 0.58513 0.86706 0.89237 0.0
C1479 C 0.59528 0.79027 0.84223 0.0
C1480 C 0.54059 0.839 0.81307 0.0
C1481 C 0.55039 0.84852 0.78537 0.0
C1482 C 0.55343 0.83237 0.83977 0.0
C1483 C 0.57672 0.83542 0.83896 0.0
C1484 C 0.58681 0.84489 0.81108 0.0
C1485 C 0.57353 0.85128 0.78451 0.0
C1486 C 0.54202 0.82213 0.86894 0.0
C1487 C 0.61159 0.84845 0.80947 0.0
H1488 H 0.6034 0.84646 0.9442 0.0
H1489 H 0.61258 0.78202 0.90138 0.0
H1490 H 0.59091 0.87499 0.86948 0.0
H1491 H 0.56672 0.8674 0.89216 0.0
H1492 H 0.59103 0.87707 0.91338 0.0
H1493 H 0.60447 0.77457 0.84655 0.0
H1494 H 0.57741 0.78626 0.8393 0.0
H1495 H 0.60106 0.79762 0.81895 0.0
H1496 H 0.52276 0.83666 0.81397 0.0
H1497 H 0.58125 0.85866 0.76326 0.0
H1498 H 0.5452 0.8323 0.89099 0.0
H1499 H 0.54886 0.80535 0.87364 0.0
H1500 H 0.52378 0.82069 0.86552 0.0
H1501 H 0.61691 0.85955 0.82958 0.0
H1502 H 0.6169 0.85585 0.78593 0.0
H1503 H 0.62037 0.83244 0.81282 0.0
C1504 C 0.41011 0.35723 0.16996 0.0
C1505 C 0.433 0.36134 0.17161 0.0
C1506 C 0.40064 0.34741 0.1422 0.0
C1507 C 0.41443 0.34136 0.1157 0.0
C1508 C 0.4373 0.34668 0.11646 0.0
C1509 C 0.44628 0.35673 0.14431 0.0
C1510 C 0.3761 0.34232 0.14205 0.0
C1511 C 0.45262 0.3404 0.08878 0.0
C1512 C 0.39899 0.29034 0.06689 0.0
C1513 C 0.39129 0.29953 0.03756 0.0
C1514 C 0.40627 0.30381 0.09254 0.0
C1515 C 0.40562 0.32715 0.08906 0.0
C1516 C 0.39735 0.33664 0.05991 0.0
C1517 C 0.39037 0.3227 0.0344 0.0
C1518 C 0.41513 0.29299 0.12312 0.0
C1519 C 0.39622 0.36146 0.05552 0.0
H1520 H 0.39969 0.36094 0.19081 0.0
H1521 H 0.46397 0.35994 0.14524 0.0
H1522 H 0.36851 0.34747 0.11861 0.0
H1523 H 0.3736 0.32417 0.14451 0.0
H1524 H 0.36722 0.35072 0.16233 0.0
H1525 H 0.46947 0.3476 0.09173 0.0
H1526 H 0.45419 0.32208 0.08764 0.0
H1527 H 0.44568 0.34601 0.06514 0.0
H1528 H 0.39969 0.2725 0.06977 0.0
H1529 H 0.38437 0.32999 0.01191 0.0
H1530 H 0.40571 0.29886 0.1447 0.0
H1531 H 0.43274 0.29775 0.12678 0.0
H1532 H 0.41409 0.2746 0.12218 0.0
H1533 H 0.38693 0.36911 0.076 0.0
H1534 H 0.3881 0.36622 0.03223 0.0
H1535 H 0.41321 0.36854 0.05588 0.0
C1536 C 0.88826 0.20136 0.42004 0.0
C1537 C 0.88829 0.18474 0.44385 0.0
C1538 C 0.9026 0.2 0.39302 0.0
C1539 C 0.91722 0.18166 0.39014 0.0
C1540 C 0.91865 0.16607 0.41587 0.0
C1541 C 0.90401 0.16772 0.44228 0.0
C1542 C 0.90047 0.21694 0.36614 0.0
C1543 C 0.93404 0.14633 0.41399 0.0
C1544 C 0.92923 0.1564 0.30727 0.0
C1545 C 0.95162 0.16188 0.30279 0.0
C1546 C 0.91763 0.16348 0.33506 0.0
C1547 C 0.92855 0.17674 0.35867 0.0
C1548 C 0.95079 0.18334 0.35342 0.0
C1549 C 0.96215 0.17561 0.32573 0.0
C1550 C 0.89397 0.15586 0.33987 0.0
C1551 C 0.96279 0.19795 0.37754 0.0
H1552 H 0.87576 0.21428 0.42101 0.0
H1553 H 0.90372 0.15472 0.46057 0.0
H1554 H 0.91691 0.22097 0.35551 0.0
H1555 H 0.89001 0.21004 0.34634 0.0
H1556 H 0.89252 0.23244 0.37495 0.0
H1557 H 0.93504 0.13728 0.43753 0.0
H1558 H 0.92797 0.13468 0.39504 0.0
H1559 H 0.95099 0.1516 0.40686 0.0
H1560 H 0.92098 0.14582 0.28966 0.0
H1561 H 0.97939 0.18019 0.32219 0.0
H1562 H 0.88298 0.17029 0.34439 0.0
H1563 H 0.89298 0.14495 0.36161 0.0
H1564 H 0.88752 0.14657 0.31848 0.0
H1565 H 0.95245 0.21255 0.38386 0.0
H1566 H 0.97901 0.20383 0.36799 0.0
H1567 H 0.9658 0.1886 0.4004 0.0
C1568 C 0.0889 0.7112 0.56234 0.0
C1569 C 0.09713 0.70134 0.53379 0.0
C1570 C 0.08286 0.69836 0.58938 0.0
C1571 C 0.08517 0.67502 0.58803 0.0
C1572 C 0.09343 0.66489 0.55935 0.0
C1573 C 0.09925 0.67817 0.53249 0.0
C1574 C 0.07396 0.70984 0.61943 0.0
C1575 C 0.09621 0.64005 0.55714 0.0
C1576 C 0.08703 0.64819 0.67161 0.0
C1577 C 0.0648 0.64198 0.67593 0.0
C1578 C 0.09424 0.65778 0.64226 0.0
C1579 C 0.07878 0.66145 0.61681 0.0
C1580 C 0.05659 0.65413 0.62041 0.0
C1581 C 0.04991 0.64436 0.64984 0.0
C1582 C 0.11812 0.66508 0.63917 0.0
C1583 C 0.03956 0.65785 0.59396 0.0
H1584 H 0.0871 0.72907 0.56365 0.0
H1585 H 0.10563 0.67038 0.51059 0.0
H1586 H 0.05709 0.70356 0.62514 0.0
H1587 H 0.08469 0.70607 0.6407 0.0
H1588 H 0.07309 0.72813 0.61646 0.0
H1589 H 0.10296 0.63474 0.53317 0.0
H1590 H 0.10757 0.63421 0.57662 0.0
H1591 H 0.08 0.63175 0.56106 0.0
H1592 H 0.09868 0.64624 0.69154 0.0
H1593 H 0.03269 0.63957 0.6529 0.0
H1594 H 0.11894 0.68346 0.6393 0.0
H1595 H 0.12523 0.65934 0.61569 0.0
H1596 H 0.12858 0.65871 0.65941 0.0
H1597 H 0.03624 0.67588 0.5915 0.0
H1598 H 0.02361 0.64932 0.59924 0.0
H1599 H 0.04592 0.65192 0.57013 0.0
C1600 C 0.586 0.18475 0.58727 0.0
C1601 C 0.57383 0.20238 0.57398 0.0
C1602 C 0.57806 0.17304 0.61453 0.0
C1603 C 0.55756 0.17923 0.62881 0.0
C1604 C 0.54533 0.19713 0.61562 0.0
C1605 C 0.5536 0.20846 0.58842 0.0
C1606 C 0.59148 0.15395 0.62788 0.0
C1607 C 0.52346 0.20434 0.63025 0.0
C1608 C 0.52375 0.13977 0.68117 0.0
C1609 C 0.52935 0.14692 0.7126 0.0
C1610 C 0.53375 0.14938 0.65363 0.0
C1611 C 0.54882 0.16721 0.65772 0.0
C1612 C 0.55443 0.17448 0.68947 0.0
C1613 C 0.5449 0.16397 0.71656 0.0
C1614 C 0.52807 0.14067 0.62015 0.0
C1615 C 0.56999 0.19377 0.69483 0.0
H1616 H 0.60162 0.17994 0.5762 0.0
H1617 H 0.54411 0.22213 0.57842 0.0
H1618 H 0.59591 0.15717 0.65369 0.0
H1619 H 0.58144 0.13854 0.62738 0.0
H1620 H 0.60699 0.15112 0.61383 0.0
H1621 H 0.51601 0.21861 0.61708 0.0
H1622 H 0.51149 0.19037 0.62979 0.0
H1623 H 0.52586 0.20908 0.65615 0.0
H1624 H 0.51179 0.12649 0.67817 0.0
H1625 H 0.54904 0.16961 0.74092 0.0
H1626 H 0.54343 0.13734 0.60606 0.0
H1627 H 0.5185 0.15336 0.60652 0.0
H1628 H 0.51817 0.12515 0.62129 0.0
H1629 H 0.58607 0.19067 0.68248 0.0
H1630 H 0.57318 0.19691 0.72111 0.0
H1631 H 0.56279 0.209 0.68392 0.0
C1632 C 0.04044 0.31957 0.83275 0.0
C1633 C 0.04882 0.3369 0.81354 0.0
C1634 C 0.05121 0.3129 0.86136 0.0
C1635 C 0.071 0.32371 0.87101 0.0
C1636 C 0.07917 0.34174 0.8524 0.0
C1637 C 0.06791 0.34821 0.82387 0.0
C1638 C 0.04175 0.29376 0.88066 0.0
C1639 C 0.10022 0.35364 0.86195 0.0
C1640 C 0.08877 0.31139 0.95802 0.0
C1641 C 0.1024 0.29281 0.95332 0.0
C1642 C 0.07917 0.3224 0.9313 0.0
C1643 C 0.08373 0.31488 0.89926 0.0
C1644 C 0.09866 0.29704 0.89445 0.0
C1645 C 0.10758 0.28605 0.92155 0.0
C1646 C 0.06306 0.34111 0.93747 0.0
C1647 C 0.10427 0.28873 0.8607 0.0
H1648 H 0.02551 0.31095 0.82521 0.0
H1649 H 0.07443 0.36165 0.80918 0.0
H1650 H 0.05334 0.27946 0.87963 0.0
H1651 H 0.03988 0.29846 0.90666 0.0
H1652 H 0.02535 0.28829 0.87126 0.0
H1653 H 0.10335 0.36848 0.84656 0.0
H1654 H 0.09944 0.35888 0.88785 0.0
H1655 H 0.11454 0.34218 0.85951 0.0
H1656 H 0.0846 0.31653 0.9826 0.0
H1657 H 0.11828 0.2718 0.9179 0.0
H1658 H 0.046 0.33556 0.93134 0.0
H1659 H 0.06693 0.3555 0.92163 0.0
H1660 H 0.06325 0.34661 0.96332 0.0
H1661 H 0.08948 0.28065 0.84983 0.0
H1662 H 0.1181 0.27654 0.861 0.0
H1663 H 0.10896 0.30276 0.84462 0.0
C1664 C 0.93071 0.79169 0.0942 0.0
C1665 C 0.91149 0.79694 0.07653 0.0
C1666 C 0.9366 0.80359 0.12222 0.0
C1667 C 0.92298 0.82128 0.1329 0.0
C1668 C 0.90323 0.82634 0.11572 0.0
C1669 C 0.89766 0.81405 0.08772 0.0
C1670 C 0.95775 0.79753 0.13993 0.0
C1671 C 0.88836 0.84515 0.12633 0.0
C1672 C 0.93415 0.8401 0.21976 0.0
C1673 C 0.9502 0.85653 0.2146 0.0
C1674 C 0.92432 0.82903 0.19328 0.0
C1675 C 0.93029 0.83504 0.16105 0.0
C1676 C 0.94536 0.85272 0.15587 0.0
C1677 C 0.95542 0.86299 0.18273 0.0
C1678 C 0.90872 0.80995 0.19983 0.0
C1679 C 0.95178 0.86001 0.12194 0.0
H1680 H 0.94141 0.77837 0.08593 0.0
H1681 H 0.88276 0.81818 0.07423 0.0
H1682 H 0.96974 0.81144 0.13832 0.0
H1683 H 0.95428 0.79465 0.16616 0.0
H1684 H 0.96571 0.78244 0.1297 0.0
H1685 H 0.87294 0.84612 0.11155 0.0
H1686 H 0.88375 0.84321 0.15235 0.0
H1687 H 0.89742 0.8611 0.12404 0.0
H1688 H 0.93028 0.83499 0.24447 0.0
H1689 H 0.96775 0.87582 0.17882 0.0
H1690 H 0.91687 0.79416 0.19274 0.0
H1691 H 0.89345 0.81156 0.18492 0.0
H1692 H 0.90395 0.80888 0.22595 0.0
H1693 H 0.96217 0.84703 0.11033 0.0
H1694 H 0.9613 0.87579 0.12211 0.0
H1695 H 0.93679 0.86223 0.10658 0.0
C1696 C 0.38849 0.71257 0.43459 0.0
C1697 C 0.39106 0.7046 0.46647 0.0
C1698 C 0.39895 0.70216 0.40822 0.0
C1699 C 0.41266 0.68349 0.41388 0.0
C1700 C 0.41461 0.67478 0.44585 0.0
C1701 C 0.4036 0.68535 0.47181 0.0
C1702 C 0.39622 0.71191 0.37452 0.0
C1703 C 0.42937 0.65513 0.45292 0.0
C1704 C 0.43057 0.65181 0.33808 0.0
C1705 C 0.45061 0.66246 0.33051 0.0
C1706 C 0.41836 0.65781 0.36596 0.0
C1707 C 0.42653 0.67468 0.38679 0.0
C1708 C 0.44729 0.68467 0.38005 0.0
C1709 C 0.45901 0.6785 0.35198 0.0
C1710 C 0.39624 0.64687 0.37227 0.0
C1711 C 0.45672 0.7026 0.40175 0.0
H1712 H 0.37867 0.72736 0.43031 0.0
H1713 H 0.40577 0.67925 0.49646 0.0
H1714 H 0.41208 0.71957 0.36663 0.0
H1715 H 0.39205 0.69872 0.35668 0.0
H1716 H 0.38306 0.72481 0.3737 0.0
H1717 H 0.42724 0.64892 0.47822 0.0
H1718 H 0.42588 0.64141 0.43565 0.0
H1719 H 0.44698 0.65998 0.4495 0.0
H1720 H 0.42401 0.63936 0.32162 0.0
H1721 H 0.47465 0.6866 0.34655 0.0
H1722 H 0.38274 0.65916 0.36881 0.0
H1723 H 0.39527 0.64096 0.39784 0.0
H1724 H 0.39323 0.63262 0.35568 0.0
H1725 H 0.44626 0.7177 0.40003 0.0
H1726 H 0.47399 0.7071 0.39493 0.0
H1727 H 0.45659 0.69716 0.42758 0.0
C1728 C 0.43648 0.16006 0.22296 0.0
C1729 C 0.45694 0.15007 0.21574 0.0
C1730 C 0.42386 0.17034 0.19835 0.0
C1731 C 0.43185 0.17043 0.16586 0.0
C1732 C 0.4519 0.15934 0.15826 0.0
C1733 C 0.46421 0.1494 0.18325 0.0
C1734 C 0.4026 0.18205 0.2074 0.0
C1735 C 0.46094 0.15884 0.1239 0.0
C1736 C 0.39746 0.18576 0.09151 0.0
C1737 C 0.40577 0.20696 0.08454 0.0
C1738 C 0.40484 0.17399 0.11908 0.0
C1739 C 0.42067 0.18381 0.14017 0.0
C1740 C 0.4279 0.20579 0.13433 0.0
C1741 C 0.42046 0.21702 0.10652 0.0
C1742 C 0.39672 0.15061 0.12451 0.0
C1743 C 0.44453 0.21702 0.1564 0.0
H1744 H 0.43077 0.16066 0.24801 0.0
H1745 H 0.47985 0.14146 0.17737 0.0
H1746 H 0.40501 0.20024 0.20534 0.0
H1747 H 0.38907 0.17742 0.19037 0.0
H1748 H 0.39727 0.17818 0.23269 0.0
H1749 H 0.47579 0.14801 0.12163 0.0
H1750 H 0.44805 0.15286 0.10671 0.0
H1751 H 0.46563 0.17586 0.11628 0.0
H1752 H 0.38604 0.17794 0.07464 0.0
H1753 H 0.42667 0.23355 0.10152 0.0
H1754 H 0.39198 0.1481 0.15038 0.0
H1755 H 0.4103 0.13877 0.11895 0.0
H1756 H 0.38227 0.14653 0.10879 0.0
H1757 H 0.43944 0.21538 0.18228 0.0
H1758 H 0.44647 0.23492 0.15063 0.0
H1759 H 0.46094 0.20887 0.15375 0.0
C1760 C 0.55408 0.64561 0.83774 0.0
C1761 C 0.56703 0.6457 0.80928 0.0
C1762 C 0.56237 0.65411 0.86715 0.0
C1763 C 0.5842 0.66276 0.86821 0.0
C1764 C 0.59784 0.66156 0.84015 0.0
C1765 C 0.58906 0.65311 0.81097 0.0
C1766 C 0.54726 0.65512 0.8965 0.0
C1767 C 0.62129 0.67037 0.84042 0.0
C1768 C 0.59508 0.71041 0.92632 0.0
C1769 C 0.60587 0.69982 0.95235 0.0
C1770 C 0.58791 0.69847 0.89899 0.0
C1771 C 0.59179 0.67535 0.89735 0.0
C1772 C 0.60274 0.6645 0.92341 0.0
C1773 C 0.60954 0.67686 0.95074 0.0
C1774 C 0.57608 0.71066 0.87188 0.0
C1775 C 0.60736 0.63991 0.92231 0.0
H1776 H 0.53706 0.6398 0.83676 0.0
H1777 H 0.59926 0.65307 0.78919 0.0
H1778 H 0.55582 0.64857 0.91841 0.0
H1779 H 0.54284 0.67265 0.90159 0.0
H1780 H 0.53168 0.64559 0.89275 0.0
H1781 H 0.63058 0.66574 0.81803 0.0
H1782 H 0.62094 0.68873 0.84224 0.0
H1783 H 0.63045 0.66405 0.86197 0.0
H1784 H 0.59202 0.72811 0.92737 0.0
H1785 H 0.61793 0.66856 0.97066 0.0
H1786 H 0.55932 0.70348 0.86816 0.0
H1787 H 0.58535 0.70869 0.84869 0.0
H1788 H 0.57427 0.72866 0.87703 0.0
H1789 H 0.59157 0.6306 0.91984 0.0
H1790 H 0.61614 0.63398 0.94447 0.0
H1791 H 0.61763 0.63592 0.90063 0.0
C1792 C 0.03509 0.84849 0.67731 0.0
C1793 C 0.04546 0.85524 0.70632 0.0
C1794 C 0.0475 0.84179 0.6502 0.0
C1795 C 0.07096 0.8419 0.6519 0.0
C1796 C 0.08163 0.84902 0.68083 0.0
C1797 C 0.06875 0.85556 0.70777 0.0
C1798 C 0.03544 0.83423 0.61985 0.0
C1799 C 0.10662 0.84946 0.68341 0.0
C1800 C 0.09753 0.80267 0.59135 0.0
C1801 C 0.10163 0.81681 0.56483 0.0
C1802 C 0.0887 0.81085 0.6206 0.0
C1803 C 0.08403 0.83376 0.62356 0.0
C1804 C 0.08952 0.84834 0.59773 0.0
C1805 C 0.0982 0.83968 0.56859 0.0
C1806 C 0.08304 0.79471 0.64752 0.0
C1807 C 0.08503 0.87292 0.60013 0.0
H1808 H 0.01713 0.84819 0.67579 0.0
H1809 H 0.07693 0.86078 0.73001 0.0
H1810 H 0.04068 0.84436 0.59864 0.0
H1811 H 0.03978 0.81674 0.6144 0.0
H1812 H 0.01712 0.83548 0.62234 0.0
H1813 H 0.11237 0.85645 0.707 0.0
H1814 H 0.11329 0.83239 0.68092 0.0
H1815 H 0.11375 0.85946 0.66326 0.0
H1816 H 0.10027 0.78499 0.58882 0.0
H1817 H 0.10151 0.85076 0.54835 0.0
H1818 H 0.06473 0.79347 0.64994 0.0
H1819 H 0.08961 0.80068 0.6712 0.0
H1820 H 0.08976 0.77786 0.64276 0.0
H1821 H 0.06686 0.87588 0.59928 0.0
H1822 H 0.09291 0.88232 0.57992 0.0
H1823 H 0.09118 0.87955 0.62368 0.0
C1824 C 0.87912 0.30012 0.43909 0.0
C1825 C 0.88617 0.27869 0.44742 0.0
C1826 C 0.88787 0.31112 0.41181 0.0
C1827 C 0.90447 0.30064 0.39287 0.0
C1828 C 0.91154 0.27892 0.40102 0.0
C1829 C 0.90203 0.26805 0.42791 0.0
C1830 C 0.87968 0.33413 0.40366 0.0
C1831 C 0.9296 0.26742 0.38187 0.0
C1832 C 0.91626 0.32059 0.30672 0.0
C1833 C 0.93531 0.33363 0.31125 0.0
C1834 C 0.90584 0.31007 0.33314 0.0
C1835 C 0.91473 0.31254 0.36485 0.0
C1836 C 0.93366 0.32607 0.36972 0.0
C1837 C 0.94367 0.33653 0.34289 0.0
C1838 C 0.88555 0.29595 0.32702 0.0
C1839 C 0.94373 0.32899 0.40317 0.0
H1840 H 0.86682 0.30838 0.4541 0.0
H1841 H 0.90773 0.25159 0.43449 0.0
H1842 H 0.89351 0.34619 0.40586 0.0
H1843 H 0.87379 0.33471 0.37805 0.0
H1844 H 0.86595 0.33953 0.41992 0.0
H1845 H 0.93419 0.25116 0.39263 0.0
H1846 H 0.92402 0.26476 0.3564 0.0
H1847 H 0.94467 0.27797 0.3809 0.0
H1848 H 0.90964 0.31829 0.28238 0.0
H1849 H 0.95844 0.34648 0.34661 0.0
H1850 H 0.87163 0.30157 0.34268 0.0
H1851 H 0.88913 0.27846 0.33358 0.0
H1852 H 0.88012 0.29652 0.30116 0.0
H1853 H 0.93115 0.33565 0.42032 0.0
H1854 H 0.95824 0.34036 0.40293 0.0
H1855 H 0.94915 0.31267 0.4128 0.0
C1856 C 0.45886 0.85093 0.32223 0.0
C1857 C 0.45118 0.85077 0.28996 0.0
C1858 C 0.4465 0.8412 0.34736 0.0
C1859 C 0.42604 0.83077 0.34003 0.0
C1860 C 0.41778 0.83121 0.30772 0.0
C1861 C 0.4304 0.84135 0.28305 0.0
C1862 C 0.45579 0.84132 0.38156 0.0
C1863 C 0.39615 0.82007 0.29894 0.0
C1864 C 0.41309 0.78457 0.39927 0.0
C1865 C 0.39869 0.79512 0.42117 0.0
C1866 C 0.42099 0.79557 0.37156 0.0
C1867 C 0.41453 0.8178 0.36581 0.0
C1868 C 0.39897 0.82812 0.38681 0.0
C1869 C 0.39109 0.81657 0.41425 0.0
C1870 C 0.43725 0.78379 0.3495 0.0
C1871 C 0.39171 0.85179 0.38145 0.0
H1872 H 0.47478 0.8584 0.32782 0.0
H1873 H 0.4244 0.84111 0.25814 0.0
H1874 H 0.44321 0.84765 0.39899 0.0
H1875 H 0.45999 0.82413 0.38902 0.0
H1876 H 0.47099 0.85167 0.38365 0.0
H1877 H 0.39088 0.82392 0.27361 0.0
H1878 H 0.39802 0.80184 0.30129 0.0
H1879 H 0.38281 0.82524 0.31596 0.0
H1880 H 0.4187 0.76782 0.40428 0.0
H1881 H 0.37992 0.82474 0.43114 0.0
H1882 H 0.45393 0.79136 0.3522 0.0
H1883 H 0.43225 0.78563 0.32362 0.0
H1884 H 0.43857 0.76582 0.35525 0.0
H1885 H 0.40576 0.86311 0.38684 0.0
H1886 H 0.37749 0.85642 0.39731 0.0
H1887 H 0.38694 0.85447 0.35563 0.0
C1888 C 0.91424 0.64845 0.17183 0.0
C1889 C 0.93623 0.64111 0.17485 0.0
C1890 C 0.9067 0.65838 0.14293 0.0
C1891 C 0.92159 0.6613 0.11656 0.0
C1892 C 0.94349 0.65295 0.11887 0.0
C1893 C 0.95051 0.64281 0.14792 0.0
C1894 C 0.88311 0.66677 0.14124 0.0
C1895 C 0.95994 0.65588 0.09142 0.0
C1896 C 0.89856 0.67826 0.03375 0.0
C1897 C 0.90124 0.70138 0.03466 0.0
C1898 C 0.90518 0.66492 0.06015 0.0
C1899 C 0.91488 0.67493 0.08794 0.0
C1900 C 0.9179 0.69821 0.08878 0.0
C1901 C 0.91097 0.71112 0.06226 0.0
C1902 C 0.90157 0.64018 0.05848 0.0
C1903 C 0.92837 0.70955 0.11781 0.0
H1904 H 0.90306 0.64705 0.19245 0.0
H1905 H 0.96755 0.63723 0.15003 0.0
H1906 H 0.88314 0.68517 0.14093 0.0
H1907 H 0.87503 0.66111 0.11841 0.0
H1908 H 0.873 0.66112 0.16231 0.0
H1909 H 0.97562 0.64665 0.0958 0.0
H1910 H 0.95267 0.65021 0.06802 0.0
H1911 H 0.96397 0.67374 0.08867 0.0
H1912 H 0.89104 0.67057 0.01258 0.0
H1913 H 0.91326 0.72893 0.06322 0.0
H1914 H 0.8905 0.63486 0.07863 0.0
H1915 H 0.91759 0.63136 0.06172 0.0
H1916 H 0.89409 0.63492 0.03497 0.0
H1917 H 0.91817 0.7066 0.13991 0.0
H1918 H 0.93008 0.72774 0.11424 0.0
H1919 H 0.94507 0.70247 0.12253 0.0
C1920 C 0.1065 0.18906 0.89886 0.0
C1921 C 0.10395 0.1771 0.92798 0.0
C1922 C 0.09773 0.18107 0.86944 0.0
C1923 C 0.08626 0.16059 0.86913 0.0
C1924 C 0.08513 0.14767 0.8979 0.0
C1925 C 0.09396 0.1561 0.92703 0.0
C1926 C 0.0993 0.19536 0.83929 0.0
C1927 C 0.07324 0.12563 0.89847 0.0
C1928 C 0.03773 0.15502 0.81109 0.0
C1929 C 0.04673 0.14207 0.78593 0.0
C1930 C 0.05054 0.16127 0.83802 0.0
C1931 C 0.07289 0.1542 0.84016 0.0
C1932 C 0.08215 0.14112 0.81491 0.0
C1933 C 0.06898 0.13533 0.78791 0.0
C1934 C 0.04009 0.17547 0.86423 0.0
C1935 C 0.10586 0.13312 0.81659 0.0
H1936 H 0.11435 0.20523 0.89928 0.0
H1937 H 0.09211 0.14665 0.94934 0.0
H1938 H 0.10447 0.18533 0.81794 0.0
H1939 H 0.08273 0.20243 0.83372 0.0
H1940 H 0.11122 0.20926 0.84243 0.0
H1941 H 0.07649 0.11629 0.92131 0.0
H1942 H 0.05509 0.12843 0.8964 0.0
H1943 H 0.07835 0.11527 0.87741 0.0
H1944 H 0.02061 0.16048 0.80965 0.0
H1945 H 0.07601 0.12526 0.76861 0.0
H1946 H 0.04971 0.19103 0.86728 0.0
H1947 H 0.04046 0.1666 0.88792 0.0
H1948 H 0.0226 0.17986 0.85859 0.0
H1949 H 0.11731 0.14744 0.81879 0.0
H1950 H 0.11064 0.12326 0.79481 0.0
H1951 H 0.1082 0.12271 0.83864 0.0
C1952 C 0.59758 0.31958 0.5402 0.0
C1953 C 0.5945 0.2965 0.54005 0.0
C1954 C 0.59182 0.33238 0.56761 0.0
C1955 C 0.5827 0.32184 0.59541 0.0
C1956 C 0.57926 0.29863 0.5952 0.0
C1957 C 0.58521 0.28628 0.56762 0.0
C1958 C 0.5957 0.3571 0.56699 0.0
C1959 C 0.56943 0.28673 0.62424 0.0
C1960 C 0.58571 0.34636 0.68052 0.0
C1961 C 0.56388 0.35379 0.68508 0.0
C1962 C 0.59243 0.33703 0.65073 0.0
C1963 C 0.57687 0.33485 0.62505 0.0
C1964 C 0.55509 0.34324 0.629 0.0
C1965 C 0.5489 0.35273 0.65889 0.0
C1966 C 0.61588 0.3285 0.64732 0.0
C1967 C 0.53794 0.34108 0.60234 0.0
H1968 H 0.60474 0.32765 0.51906 0.0
H1969 H 0.58265 0.26849 0.56784 0.0
H1970 H 0.57991 0.36602 0.57163 0.0
H1971 H 0.60739 0.36181 0.58671 0.0
H1972 H 0.6026 0.36283 0.54332 0.0
H1973 H 0.56738 0.26866 0.61986 0.0
H1974 H 0.58026 0.28904 0.64584 0.0
H1975 H 0.55297 0.29388 0.63031 0.0
H1976 H 0.59742 0.34727 0.70054 0.0
H1977 H 0.53197 0.3584 0.66216 0.0
H1978 H 0.62346 0.33472 0.62443 0.0
H1979 H 0.61567 0.31013 0.64593 0.0
H1980 H 0.62654 0.33351 0.66815 0.0
H1981 H 0.54464 0.34736 0.57891 0.0
H1982 H 0.52241 0.35021 0.60812 0.0
H1983 H 0.53377 0.32332 0.59876 0.0
C1984 C 0.98887 0.44354 0.26747 0.0
C1985 C 0.00623 0.43456 0.24884 0.0
C1986 C 0.9873 0.46654 0.27268 0.0
C1987 C 0.00342 0.48084 0.25888 0.0
C1988 C 0.02115 0.47184 0.24058 0.0
C1989 C 0.02237 0.44888 0.23586 0.0
C1990 C 0.96826 0.47558 0.29259 0.0
C1991 C 0.03873 0.48652 0.22556 0.0
C1992 C 0.99059 0.54168 0.24378 0.0
C1993 C 0.00212 0.55191 0.26939 0.0
C1994 C 0.99046 0.51849 0.24045 0.0
C1995 C 0.00194 0.50525 0.26346 0.0
C1996 C 0.01318 0.51545 0.28974 0.0
C1997 C 0.01324 0.53863 0.29229 0.0
C1998 C 0.97847 0.50819 0.2119 0.0
C1999 C 0.0255 0.50189 0.31487 0.0
H2000 H 0.97632 0.43267 0.2776 0.0
H2001 H 0.03592 0.44219 0.22152 0.0
H2002 H 0.97472 0.4855 0.3133 0.0
H2003 H 0.95804 0.48685 0.27737 0.0
H2004 H 0.95743 0.46224 0.30234 0.0
H2005 H 0.0515 0.47689 0.21209 0.0
H2006 H 0.03092 0.49844 0.20844 0.0
H2007 H 0.04712 0.49637 0.24479 0.0
H2008 H 0.98195 0.55179 0.22601 0.0
H2009 H 0.02201 0.54633 0.31239 0.0
H2010 H 0.96636 0.49567 0.22063 0.0
H2011 H 0.99055 0.49943 0.19604 0.0
H2012 H 0.96952 0.5207 0.19699 0.0
H2013 H 0.01434 0.48919 0.32553 0.0
H2014 H 0.03227 0.51228 0.3349 0.0
H2015 H 0.03947 0.49296 0.30309 0.0
C2016 C 0.80082 0.75949 0.45715 0.0
C2017 C 0.81493 0.74716 0.4775 0.0
C2018 C 0.77781 0.75983 0.46229 0.0
C2019 C 0.76868 0.74767 0.48856 0.0
C2020 C 0.78275 0.73503 0.50902 0.0
C2021 C 0.8057 0.73486 0.50318 0.0
C2022 C 0.76331 0.77341 0.43987 0.0
C2023 C 0.77359 0.72199 0.53743 0.0
C2024 C 0.71313 0.7659 0.52277 0.0
C2025 C 0.6986 0.75024 0.50913 0.0
C2026 C 0.73594 0.76532 0.51609 0.0
C2027 C 0.74447 0.7487 0.49523 0.0
C2028 C 0.72993 0.733 0.48103 0.0
C2029 C 0.70715 0.73395 0.48815 0.0
C2030 C 0.75094 0.78239 0.53162 0.0
C2031 C 0.73845 0.7151 0.45853 0.0
H2032 H 0.80775 0.76896 0.43714 0.0
H2033 H 0.81644 0.72534 0.5191 0.0
H2034 H 0.75024 0.76279 0.42895 0.0
H2035 H 0.75478 0.78661 0.45396 0.0
H2036 H 0.77292 0.78131 0.41989 0.0
H2037 H 0.78669 0.7126 0.55058 0.0
H2038 H 0.76539 0.7334 0.55491 0.0
H2039 H 0.7608 0.71013 0.5288 0.0
H2040 H 0.70674 0.7786 0.53894 0.0
H2041 H 0.6961 0.72179 0.47744 0.0
H2042 H 0.76001 0.79174 0.51251 0.0
H2043 H 0.76356 0.77402 0.54701 0.0
H2044 H 0.74164 0.79438 0.547 0.0
H2045 H 0.74734 0.72268 0.43762 0.0
H2046 H 0.72491 0.70443 0.44895 0.0
H2047 H 0.75054 0.70448 0.47165 0.0
C2048 C 0.50919 0.45276 0.73959 0.0
C2049 C 0.49553 0.44445 0.76446 0.0
C2050 C 0.50898 0.47537 0.73152 0.0
C2051 C 0.49491 0.48999 0.74888 0.0
C2052 C 0.48091 0.4817 0.77371 0.0
C2053 C 0.48133 0.45903 0.78113 0.0
C2054 C 0.52397 0.48365 0.70463 0.0
C2055 C 0.4657 0.49683 0.79278 0.0
C2056 C 0.5099 0.55103 0.75153 0.0
C2057 C 0.49518 0.56001 0.72855 0.0
C2058 C 0.51002 0.52824 0.75831 0.0
C2059 C 0.49514 0.51409 0.74159 0.0
C2060 C 0.48028 0.52298 0.71833 0.0
C2061 C 0.48043 0.54584 0.71215 0.0
C2062 C 0.52598 0.51932 0.78348 0.0
C2063 C 0.46421 0.50834 0.69999 0.0
H2064 H 0.5201 0.44162 0.72643 0.0
H2065 H 0.47071 0.45281 0.80039 0.0
H2066 H 0.51404 0.49234 0.68578 0.0
H2067 H 0.53597 0.49584 0.71463 0.0
H2068 H 0.53339 0.47001 0.69278 0.0
H2069 H 0.45552 0.48767 0.81091 0.0
H2070 H 0.47564 0.50952 0.80583 0.0
H2071 H 0.4544 0.50577 0.77597 0.0
H2072 H 0.52131 0.56182 0.76439 0.0
H2073 H 0.46903 0.55257 0.69427 0.0
H2074 H 0.53693 0.50663 0.77229 0.0
H2075 H 0.51664 0.51107 0.80339 0.0
H2076 H 0.53653 0.53254 0.79425 0.0
H2077 H 0.47342 0.49529 0.68655 0.0
H2078 H 0.45394 0.51782 0.68235 0.0
H2079 H 0.45299 0.49981 0.71739 0.0
C2080 C 0.79372 0.24605 0.03172 0.0
C2081 C 0.80897 0.25332 0.0082 0.0
C2082 C 0.77086 0.24605 0.02542 0.0
C2083 C 0.76306 0.25311 0.99459 0.0
C2084 C 0.77835 0.26057 0.97074 0.0
C2085 C 0.80116 0.26082 0.97796 0.0
C2086 C 0.75507 0.23831 0.05168 0.0
C2087 C 0.77063 0.2679 0.93742 0.0
C2088 C 0.70662 0.23139 0.96862 0.0
C2089 C 0.69275 0.24946 0.97575 0.0
C2090 C 0.72956 0.23245 0.97433 0.0
C2091 C 0.73891 0.25212 0.98722 0.0
C2092 C 0.72506 0.27049 0.9942 0.0
C2093 C 0.70213 0.2689 0.98855 0.0
C2094 C 0.74375 0.21243 0.96688 0.0
C2095 C 0.73446 0.29176 0.00786 0.0
H2096 H 0.79966 0.24045 0.05527 0.0
H2097 H 0.81291 0.26633 0.95967 0.0
H2098 H 0.74261 0.25139 0.05686 0.0
H2099 H 0.74589 0.22345 0.04319 0.0
H2100 H 0.76377 0.23411 0.07474 0.0
H2101 H 0.78457 0.27364 0.92183 0.0
H2102 H 0.76215 0.25395 0.92494 0.0
H2103 H 0.75839 0.28154 0.93977 0.0
H2104 H 0.69953 0.21627 0.95884 0.0
H2105 H 0.69158 0.283 0.9939 0.0
H2106 H 0.75175 0.20638 0.98956 0.0
H2107 H 0.75721 0.21702 0.9497 0.0
H2108 H 0.734 0.19862 0.95608 0.0
H2109 H 0.74239 0.2885 0.0318 0.0
H2110 H 0.72155 0.30473 0.01114 0.0
H2111 H 0.74752 0.29831 0.9914 0.0
C2112 C 0.98293 0.45117 0.7173 0.0
C2113 C 0.00074 0.43751 0.72649 0.0
C2114 C 0.98271 0.47384 0.72502 0.0
C2115 C 0.00075 0.48316 0.74231 0.0
C2116 C 0.01869 0.46948 0.75199 0.0
C2117 C 0.01845 0.44681 0.74402 0.0
C2118 C 0.96322 0.48785 0.7144 0.0
C2119 C 0.0382 0.47883 0.77054 0.0
C2120 C 0.01001 0.54531 0.73476 0.0
C2121 C 3e-05 0.55325 0.76337 0.0
C2122 C 0.01041 0.52253 0.72765 0.0
C2123 C 0.00091 0.5073 0.74992 0.0
C2124 C 0.99108 0.51518 0.77904 0.0
C2125 C 0.9906 0.53806 0.78529 0.0
C2126 C 0.02077 0.51478 0.69612 0.0
C2127 C 0.98099 0.49944 0.80355 0.0
H2128 H 0.96908 0.44419 0.70391 0.0
H2129 H 0.0323 0.43644 0.75124 0.0
H2130 H 0.95543 0.49585 0.73591 0.0
H2131 H 0.96901 0.50131 0.69803 0.0
H2132 H 0.95038 0.47802 0.70142 0.0
H2133 H 0.05061 0.46591 0.77689 0.0
H2134 H 0.04651 0.49181 0.75575 0.0
H2135 H 0.03239 0.48685 0.79334 0.0
H2136 H 0.01723 0.55693 0.71762 0.0
H2137 H 0.98301 0.54404 0.80759 0.0
H2138 H 0.00819 0.50598 0.68117 0.0
H2139 H 0.03431 0.50282 0.70125 0.0
H2140 H 0.02763 0.52872 0.68155 0.0
H2141 H 0.96714 0.49012 0.79214 0.0
H2142 H 0.97455 0.50818 0.82544 0.0
H2143 H 0.99354 0.4871 0.81145 0.0
C2144 C 0.31274 0.25245 0.51986 0.0
C2145 C 0.32163 0.24028 0.49378 0.0
C2146 C 0.28977 0.25286 0.5257 0.0
C2147 C 0.27532 0.24105 0.50472 0.0
C2148 C 0.28417 0.22872 0.47841 0.0
C2149 C 0.3072 0.22836 0.47339 0.0
C2150 C 0.28095 0.26592 0.55431 0.0
C2151 C 0.26928 0.21604 0.45536 0.0
C2152 C 0.21795 0.22549 0.53542 0.0
C2153 C 0.20458 0.242 0.52131 0.0
C2154 C 0.24096 0.22503 0.53026 0.0
C2155 C 0.25092 0.24142 0.51043 0.0
C2156 C 0.23758 0.25804 0.49589 0.0
C2157 C 0.21458 0.25815 0.50152 0.0
C2158 C 0.25462 0.20702 0.54618 0.0
C2159 C 0.24763 0.27572 0.47441 0.0
H2160 H 0.32376 0.26162 0.53582 0.0
H2161 H 0.31386 0.21902 0.45304 0.0
H2162 H 0.26934 0.27892 0.54562 0.0
H2163 H 0.27146 0.25484 0.5708 0.0
H2164 H 0.2944 0.27399 0.56854 0.0
H2165 H 0.27878 0.20739 0.43593 0.0
H2166 H 0.25948 0.20357 0.46905 0.0
H2167 H 0.25731 0.22754 0.44368 0.0
H2168 H 0.21047 0.2129 0.55075 0.0
H2169 H 0.20445 0.27096 0.49048 0.0
H2170 H 0.26746 0.21454 0.5621 0.0
H2171 H 0.26341 0.1972 0.52729 0.0
H2172 H 0.24434 0.19556 0.56107 0.0
H2173 H 0.26012 0.28535 0.48836 0.0
H2174 H 0.23496 0.28738 0.46472 0.0
H2175 H 0.2564 0.26791 0.45357 0.0
C2176 C 0.4779 0.5542 0.24647 0.0
C2177 C 0.49677 0.5646 0.23352 0.0
C2178 C 0.47753 0.53117 0.25167 0.0
C2179 C 0.49653 0.51837 0.24399 0.0
C2180 C 0.51573 0.52884 0.2315 0.0
C2181 C 0.51559 0.55178 0.22632 0.0
C2182 C 0.45677 0.52051 0.26505 0.0
C2183 C 0.53642 0.51577 0.22338 0.0
C2184 C 0.50646 0.46199 0.28197 0.0
C2185 C 0.50027 0.44769 0.25658 0.0
C2186 C 0.50445 0.48503 0.27867 0.0
C2187 C 0.49654 0.49398 0.24899 0.0
C2188 C 0.49004 0.47963 0.22338 0.0
C2189 C 0.49175 0.45659 0.22762 0.0
C2190 C 0.51119 0.49979 0.30673 0.0
C2191 C 0.48189 0.48861 0.19118 0.0
H2192 H 0.46329 0.56399 0.252 0.0
H2193 H 0.53033 0.55969 0.21661 0.0
H2194 H 0.45023 0.50825 0.24731 0.0
H2195 H 0.46067 0.51135 0.2878 0.0
H2196 H 0.44355 0.53284 0.27034 0.0
H2197 H 0.54999 0.52647 0.21393 0.0
H2198 H 0.54251 0.50701 0.24541 0.0
H2199 H 0.53255 0.50297 0.20481 0.0
H2200 H 0.51273 0.45514 0.3046 0.0
H2201 H 0.48698 0.44556 0.20796 0.0
H2202 H 0.49756 0.51145 0.3128 0.0
H2203 H 0.52579 0.50991 0.29964 0.0
H2204 H 0.51548 0.49016 0.32894 0.0
H2205 H 0.46773 0.50005 0.19517 0.0
H2206 H 0.47657 0.47524 0.17427 0.0
H2207 H 0.4953 0.49831 0.17931 0.0
C2208 C 0.20765 0.76874 0.9703 0.0
C2209 C 0.19294 0.75699 0.99047 0.0
C2210 C 0.23067 0.76737 0.97478 0.0
C2211 C 0.23924 0.75413 0.00029 0.0
C2212 C 0.22455 0.74223 0.0208 0.0
C2213 C 0.20156 0.7437 0.01553 0.0
C2214 C 0.24582 0.78019 0.95227 0.0
C2215 C 0.23311 0.72816 0.04852 0.0
C2216 C 0.29998 0.73706 0.99656 0.0
C2217 C 0.30987 0.75283 0.0171 0.0
C2218 C 0.27697 0.7372 0.99093 0.0
C2219 C 0.26357 0.75345 0.00624 0.0
C2220 C 0.27344 0.76941 0.02692 0.0
C2221 C 0.29642 0.76893 0.03204 0.0
C2222 C 0.26699 0.72001 0.96853 0.0
C2223 C 0.25972 0.78703 0.04366 0.0
H2224 H 0.20119 0.7789 0.95067 0.0
H2225 H 0.19033 0.73459 0.03125 0.0
H2226 H 0.25554 0.79247 0.96646 0.0
H2227 H 0.25786 0.76878 0.94053 0.0
H2228 H 0.23653 0.78912 0.9329 0.0
H2229 H 0.21954 0.71963 0.06187 0.0
H2230 H 0.24482 0.71548 0.0391 0.0
H2231 H 0.24244 0.73867 0.06599 0.0
H2232 H 0.31019 0.72457 0.98489 0.0
H2233 H 0.30382 0.78122 0.04797 0.0
H2234 H 0.25845 0.72829 0.94789 0.0
H2235 H 0.25432 0.7102 0.98184 0.0
H2236 H 0.27967 0.70847 0.95857 0.0
H2237 H 0.25115 0.7974 0.02521 0.0
H2238 H 0.26991 0.79803 0.0594 0.0
H2239 H 0.2467 0.77916 0.05889 0.0
C2240 C 0.49062 0.9452 0.76288 0.0
C2241 C 0.50449 0.93721 0.73803 0.0
C2242 C 0.4901 0.96783 0.7707 0.0
C2243 C 0.50363 0.9828 0.75308 0.0
C2244 C 0.51787 0.97485 0.7283 0.0
C2245 C 0.51818 0.95214 0.72113 0.0
C2246 C 0.4749 0.97575 0.79756 0.0
C2247 C 0.53251 0.99038 0.70897 0.0
C2248 C 0.48568 0.04299 0.75029 0.0
C2249 C 0.49996 0.05267 0.7732 0.0
C2250 C 0.48682 0.02026 0.74335 0.0
C2251 C 0.50246 0.0069 0.75998 0.0
C2252 C 0.51695 0.01654 0.78311 0.0
C2253 C 0.5156 0.03935 0.78933 0.0
C2254 C 0.47132 0.01054 0.71819 0.0
C2255 C 0.53374 0.00274 0.80144 0.0
H2256 H 0.48011 0.93378 0.77622 0.0
H2257 H 0.52897 0.94616 0.70189 0.0
H2258 H 0.48455 0.98498 0.81618 0.0
H2259 H 0.4624 0.98737 0.78745 0.0
H2260 H 0.46606 0.96187 0.80973 0.0
H2261 H 0.54304 0.98145 0.69102 0.0
H2262 H 0.5221 0.00258 0.69569 0.0
H2263 H 0.54346 -0.00012 0.72562 0.0
H2264 H 0.47366 0.05319 0.73758 0.0
H2265 H 0.52664 0.04669 0.80718 0.0
H2266 H 0.46081 0.99755 0.72952 0.0
H2267 H 0.48104 0.00248 0.6985 0.0
H2268 H 0.46033 0.02326 0.7071 0.0
H2269 H 0.52514 0.98951 0.81538 0.0
H2270 H 0.54378 0.01281 0.81867 0.0
H2271 H 0.54513 0.99444 0.78404 0.0
C2272 C 0.29805 0.23524 0.01084 0.0
C2273 C 0.30637 0.24783 0.98481 0.0
C2274 C 0.27519 0.23459 0.01748 0.0
C2275 C 0.26035 0.24665 0.99744 0.0
C2276 C 0.26862 0.25922 0.97098 0.0
C2277 C 0.29151 0.25972 0.96507 0.0
C2278 C 0.26692 0.22115 0.04606 0.0
C2279 C 0.25329 0.27219 0.94893 0.0
C2280 C 0.19945 0.23084 0.99431 0.0
C2281 C 0.1898 0.24719 0.01414 0.0
C2282 C 0.22246 0.23023 0.98912 0.0
C2283 C 0.23614 0.24635 0.00412 0.0
C2284 C 0.22658 0.26275 0.02441 0.0
C2285 C 0.20353 0.26298 0.02916 0.0
C2286 C 0.23209 0.21254 0.96722 0.0
C2287 C 0.24067 0.28022 0.04076 0.0
H2288 H 0.30941 0.22609 0.02629 0.0
H2289 H 0.29773 0.2694 0.94477 0.0
H2290 H 0.25807 0.23209 0.06349 0.0
H2291 H 0.25486 0.2085 0.03758 0.0
H2292 H 0.28061 0.21262 0.05919 0.0
H2293 H 0.26237 0.2809 0.92914 0.0
H2294 H 0.2409 0.26091 0.93773 0.0
H2295 H 0.24398 0.28467 0.96336 0.0
H2296 H 0.18903 0.21853 0.98264 0.0
H2297 H 0.19629 0.27565 0.04459 0.0
H2298 H 0.24499 0.20301 0.98048 0.0
H2299 H 0.24026 0.22038 0.94589 0.0
H2300 H 0.21926 0.2008 0.95824 0.0
H2301 H 0.25386 0.27225 0.05557 0.0
H2302 H 0.23077 0.29129 0.05681 0.0
H2303 H 0.24905 0.29053 0.02203 0.0
C2304 C 0.97437 0.05313 0.23551 0.0
C2305 C 0.98995 0.06676 0.25129 0.0
C2306 C 0.9746 0.03006 0.23959 0.0
C2307 C 0.99069 0.02028 0.26016 0.0
C2308 C 0.0062 0.03388 0.27669 0.0
C2309 C 0.00569 0.05697 0.272 0.0
C2310 C 0.95777 0.01612 0.22153 0.0
C2311 C 0.02344 0.02402 0.29911 0.0
C2312 C 0.978 0.9626 0.292 0.0
C2313 C 0.9909 0.94918 0.2714 0.0
C2314 C 0.97804 0.98575 0.28891 0.0
C2315 C 0.99112 0.99579 0.26439 0.0
C2316 C 0.00409 0.9824 0.24335 0.0
C2317 C 0.00392 0.95924 0.24721 0.0
C2318 C 0.96409 -0.00052 0.31194 0.0
C2319 C 0.01804 0.99253 0.21664 0.0
H2320 H 0.96212 0.06044 0.21942 0.0
H2321 H 0.01778 0.0673 0.28433 0.0
H2322 H 0.96642 0.00415 0.20538 0.0
H2323 H 0.94776 0.00633 0.23908 0.0
H2324 H 0.94634 0.0263 0.20647 0.0
H2325 H 0.03403 0.03689 0.31068 0.0
H2326 H 0.01523 0.01423 0.31859 0.0
H2327 H 0.03425 0.01248 0.28527 0.0
H2328 H 0.968 0.95505 0.31096 0.0
H2329 H 0.01392 0.94903 0.23116 0.0
H2330 H 0.95159 0.00907 0.29798 0.0
H2331 H 0.97471 0.01162 0.32497 0.0
H2332 H 0.9553 0.98914 0.33026 0.0
H2333 H 0.00729 0.00198 0.19964 0.0
H2334 H 0.02732 0.97984 0.2025 0.0
H2335 H 0.03009 0.00442 0.22724 0.0
C2336 C 0.2856 0.73619 0.53546 0.0
C2337 C 0.3003 0.74846 0.51599 0.0
C2338 C 0.26275 0.73601 0.52899 0.0
C2339 C 0.25442 0.74821 0.50219 0.0
C2340 C 0.26915 0.76049 0.48227 0.0
C2341 C 0.29191 0.76057 0.48952 0.0
C2342 C 0.24751 0.72285 0.55092 0.0
C2343 C 0.26087 0.7735 0.45327 0.0
C2344 C 0.19854 0.73149 0.46739 0.0
C2345 C 0.18439 0.74754 0.48093 0.0
C2346 C 0.22136 0.73152 0.47411 0.0
C2347 C 0.23027 0.74799 0.49488 0.0
C2348 C 0.21613 0.7642 0.50874 0.0
C2349 C 0.19336 0.76378 0.50161 0.0
C2350 C 0.23594 0.71394 0.45895 0.0
C2351 C 0.22507 0.78198 0.5311 0.0
H2352 H 0.29189 0.72689 0.55609 0.0
H2353 H 0.30316 0.77001 0.47426 0.0
H2354 H 0.23484 0.73396 0.56182 0.0
H2355 H 0.23852 0.71015 0.53648 0.0
H2356 H 0.25661 0.7144 0.57092 0.0
H2357 H 0.2745 0.7821 0.44013 0.0
H2358 H 0.2523 0.76225 0.43596 0.0
H2359 H 0.24857 0.78605 0.46131 0.0
H2360 H 0.19183 0.71883 0.45144 0.0
H2361 H 0.1826 0.77625 0.51221 0.0
H2362 H 0.24433 0.70421 0.47831 0.0
H2363 H 0.24911 0.72185 0.44404 0.0
H2364 H 0.22643 0.70235 0.44321 0.0
H2365 H 0.2333 0.77425 0.55246 0.0
H2366 H 0.21186 0.79331 0.54 0.0
H2367 H 0.2378 0.79194 0.51816 0.0
C2368 C 0.49873 0.04411 0.29349 0.0
C2369 C 0.50038 0.0584 0.26668 0.0
C2370 C 0.49819 0.02105 0.28921 0.0
C2371 C 0.49863 0.01217 0.25729 0.0
C2372 C 0.49982 0.02659 0.23007 0.0
C2373 C 0.50106 0.04959 0.23513 0.0
C2374 C 0.49741 0.00621 0.31885 0.0
C2375 C 0.49976 0.01772 0.19565 0.0
C2376 C 0.51774 0.95262 0.24656 0.0
C2377 C 0.49751 0.94151 0.2425 0.0
C2378 C 0.51834 0.97568 0.25109 0.0
C2379 C 0.4982 0.98775 0.25243 0.0
C2380 C 0.4777 0.97649 0.24919 0.0
C2381 C 0.47762 0.95351 0.24381 0.0
C2382 C 0.54053 0.98716 0.25397 0.0
C2383 C 0.45587 0.98874 0.25118 0.0
H2384 H 0.49837 0.05099 0.31791 0.0
H2385 H 0.50215 0.06072 0.21443 0.0
H2386 H 0.48246 0.9955 0.31791 0.0
H2387 H 0.51209 0.9951 0.31905 0.0
H2388 H 0.49715 0.01578 0.34199 0.0
H2389 H 0.50013 0.03118 0.17716 0.0
H2390 H 0.51436 0.00682 0.19182 0.0
H2391 H 0.48472 0.00748 0.19154 0.0
H2392 H 0.53314 0.94337 0.24518 0.0
H2393 H 0.46196 0.94487 0.24083 0.0
H2394 H 0.54154 0.99622 0.27746 0.0
H2395 H 0.54233 -0.0004 0.23421 0.0
H2396 H 0.55466 0.97536 0.25249 0.0
H2397 H 0.45464 0.99763 0.27479 0.0
H2398 H 0.44139 0.97745 0.24886 0.0
H2399 H 0.45497 0.00139 0.2316 0.0
C2400 C 0.80299 0.75933 0.00878 0.0
C2401 C 0.81192 0.74688 0.98303 0.0
C2402 C 0.78008 0.7591 0.01525 0.0
C2403 C 0.7658 0.74629 0.99531 0.0
C2404 C 0.77469 0.73381 0.96921 0.0
C2405 C 0.79761 0.73419 0.96348 0.0
C2406 C 0.77115 0.77248 0.04347 0.0
C2407 C 0.75998 0.72008 0.94723 0.0
C2408 C 0.70929 0.72847 0.02675 0.0
C2409 C 0.69514 0.74376 0.01144 0.0
C2410 C 0.73234 0.72932 0.02211 0.0
C2411 C 0.74151 0.74582 0.00161 0.0
C2412 C 0.72739 0.76134 0.98614 0.0
C2413 C 0.70439 0.76013 0.99124 0.0
C2414 C 0.74689 0.71244 0.03896 0.0
C2415 C 0.73656 0.77911 0.96397 0.0
H2416 H 0.81391 0.76913 0.02407 0.0
H2417 H 0.80428 0.72461 0.94338 0.0
H2418 H 0.7588 0.7847 0.03455 0.0
H2419 H 0.76247 0.7614 0.06089 0.0
H2420 H 0.78446 0.7815 0.05672 0.0
H2421 H 0.76951 0.71145 0.92782 0.0
H2422 H 0.75096 0.70747 0.9618 0.0
H2423 H 0.74733 0.73082 0.93553 0.0
H2424 H 0.70237 0.71578 0.04246 0.0
H2425 H 0.69365 0.77207 0.97933 0.0
H2426 H 0.75961 0.72097 0.05397 0.0
H2427 H 0.75585 0.70236 0.02054 0.0
H2428 H 0.73724 0.7011 0.05491 0.0
H2429 H 0.74893 0.7893 0.97726 0.0
H2430 H 0.72339 0.79023 0.95437 0.0
H2431 H 0.74527 0.77134 0.94305 0.0
C2432 C 0.00301 0.04168 0.70756 0.0
C2433 C 0.99541 0.05705 0.73067 0.0
C2434 C 0.00231 0.01885 0.71379 0.0
C2435 C 0.99418 0.0112 0.74413 0.0
C2436 C 0.98625 0.0266 0.76747 0.0
C2437 C 0.98676 0.04938 0.76032 0.0
C2438 C 0.0106 0.00293 0.68808 0.0
C2439 C 0.97775 0.01904 0.80026 0.0
C2440 C 0.9779 0.95044 0.7496 0.0
C2441 C 0.99695 0.94104 0.76362 0.0
C2442 C 0.97657 0.97334 0.74372 0.0
C2443 C 0.99479 0.98711 0.75175 0.0
C2444 C 0.01403 0.97774 0.76597 0.0
C2445 C 0.01484 0.95485 0.77185 0.0
C2446 C 0.95575 0.98278 0.72864 0.0
C2447 C 0.03389 0.99187 0.7746 0.0
H2448 H 0.00951 0.04752 0.68445 0.0
H2449 H 0.98099 0.06122 0.77832 0.0
H2450 H 0.0252 0.99371 0.69745 0.0
H2451 H 0.99758 0.99053 0.6823 0.0
H2452 H 0.01544 0.01151 0.6652 0.0
H2453 H 0.97148 0.03304 0.81528 0.0
H2454 H 0.96418 0.00681 0.79703 0.0
H2455 H 0.99126 0.01062 0.81385 0.0
H2456 H 0.96394 0.93993 0.74338 0.0
H2457 H 0.02967 0.94774 0.78257 0.0
H2458 H 0.95976 0.99055 0.70484 0.0
H2459 H 0.94881 0.99596 0.74452 0.0
H2460 H 0.9428 0.96994 0.72471 0.0
H2461 H 0.04067 -0.00027 0.75227 0.0
H2462 H 0.04732 0.98212 0.78639 0.0
H2463 H 0.02884 0.00542 0.79133 0.0
C2464 C 0.68856 0.2378 0.52133 0.0
C2465 C 0.68157 0.24709 0.49172 0.0
C2466 C 0.7112 0.23723 0.52967 0.0
C2467 C 0.72715 0.24574 0.50757 0.0
C2468 C 0.72017 0.25475 0.47743 0.0
C2469 C 0.69749 0.2555 0.47002 0.0
C2470 C 0.71805 0.22779 0.56223 0.0
C2471 C 0.73667 0.26365 0.45296 0.0
C2472 C 0.7843 0.26433 0.53539 0.0
C2473 C 0.79763 0.24644 0.52558 0.0
C2474 C 0.76123 0.26401 0.53067 0.0
C2475 C 0.75121 0.24537 0.51572 0.0
C2476 C 0.76446 0.22704 0.50645 0.0
C2477 C 0.78748 0.22779 0.5115 0.0
C2478 C 0.74764 0.28386 0.54094 0.0
C2479 C 0.75439 0.20689 0.49033 0.0
H2480 H 0.67632 0.23141 0.53825 0.0
H2481 H 0.69222 0.26251 0.44695 0.0
H2482 H 0.72973 0.21379 0.55862 0.0
H2483 H 0.72692 0.24062 0.5766 0.0
H2484 H 0.70362 0.22182 0.57665 0.0
H2485 H 0.72854 0.26968 0.43033 0.0
H2486 H 0.7462 0.27753 0.46385 0.0
H2487 H 0.74877 0.25052 0.44632 0.0
H2488 H 0.79191 0.27878 0.54643 0.0
H2489 H 0.79756 0.2138 0.50397 0.0
H2490 H 0.73365 0.27855 0.5567 0.0
H2491 H 0.74038 0.29194 0.51911 0.0
H2492 H 0.75768 0.29634 0.55435 0.0
H2493 H 0.74065 0.20023 0.50544 0.0
H2494 H 0.76677 0.1935 0.48635 0.0
H2495 H 0.74723 0.21163 0.46641 0.0
loop_
_geom_bond_atom_site_label_1
_geom_bond_atom_site_label_2
_geom_bond_distance
_geom_bond_site_symmetry_2
_ccdc_geom_bond_type
Mg0 O1 2.028 . S
Mg0 O7 1.986 . S
Mg0 O9 2.114 . S
Mg0 O10 2.251 . S
Mg0 O13 2.010 1_455 S
O1 Mg0 2.028 . S
O1 C4 1.250 . S
O2 Mg3 2.028 . S
O2 C4 1.248 . S
Mg3 O2 2.028 . S
Mg3 O8 2.032 . S
Mg3 O10 2.079 . S
C4 O1 1.250 . S
C4 O2 1.248 . S
C5 O6 1.264 . S
C5 O13 1.249 . S
O6 C5 1.264 . S
O7 Mg0 1.986 . S
O7 C11 1.246 . S
O8 Mg3 2.032 . S
O8 C11 1.259 . S
O9 Mg0 2.114 . S
O9 C12 1.252 . S
O10 Mg0 2.251 . S
O10 Mg3 2.079 . S
O10 C12 1.273 . S
C11 O7 1.246 . S
C11 O8 1.259 . S
C12 O9 1.252 . S
C12 O10 1.273 . S
O13 Mg0 2.010 1_655 S
O13 C5 1.249 . S
Mg14 O15 2.028 . S
Mg14 O21 1.986 . S
Mg14 O23 2.114 . S
Mg14 O24 2.251 . S
Mg14 O27 2.010 . S
O15 Mg14 2.028 . S
O15 C18 1.250 . S
O16 Mg17 2.028 . S
O16 C18 1.248 . S
Mg17 O16 2.028 . S
Mg17 O22 2.032 . S
Mg17 O24 2.079 . S
C18 O15 1.250 . S
C18 O16 1.248 . S
C19 O20 1.264 . S
C19 O27 1.249 . S
O20 C19 1.264 . S
O21 Mg14 1.986 . S
O21 C25 1.246 . S
O22 Mg17 2.032 . S
O22 C25 1.259 . S
O23 Mg14 2.114 . S
O23 C26 1.252 . S
O24 Mg14 2.251 . S
O24 Mg17 2.079 . S
O24 C26 1.273 . S
C25 O21 1.246 . S
C25 O22 1.259 . S
C26 O23 1.252 . S
C26 O24 1.273 . S
O27 Mg14 2.010 . S
O27 C19 1.249 . S
Mg28 O29 2.028 . S
Mg28 O35 1.986 . S
Mg28 O37 2.114 . S
Mg28 O38 2.251 . S
Mg28 O41 2.010 . S
O29 Mg28 2.028 . S
O29 C32 1.250 . S
O30 Mg31 2.028 . S
O30 C32 1.248 . S
Mg31 O30 2.028 . S
Mg31 O36 2.032 . S
Mg31 O38 2.079 . S
C32 O29 1.250 . S
C32 O30 1.248 . S
C33 O34 1.264 . S
C33 O41 1.249 . S
O34 C33 1.264 . S
O35 Mg28 1.986 . S
O35 C39 1.246 . S
O36 Mg31 2.032 . S
O36 C39 1.259 . S
O37 Mg28 2.114 . S
O37 C40 1.252 . S
O38 Mg28 2.251 . S
O38 Mg31 2.079 . S
O38 C40 1.273 . S
C39 O35 1.246 . S
C39 O36 1.259 . S
C40 O37 1.252 . S
C40 O38 1.273 . S
O41 Mg28 2.010 . S
O41 C33 1.249 . S
Mg42 O43 2.028 . S
Mg42 O49 1.986 . S
Mg42 O51 2.114 1_554 S
Mg42 O52 2.251 1_554 S
Mg42 O55 2.010 . S
O43 Mg42 2.028 . S
O43 C46 1.250 . S
O44 Mg45 2.028 1_554 S
O44 C46 1.248 . S
Mg45 O44 2.028 1_556 S
Mg45 O50 2.032 1_556 S
Mg45 O52 2.079 . S
C46 O43 1.250 . S
C46 O44 1.248 . S
C47 O48 1.264 . S
C47 O55 1.249 . S
O48 C47 1.264 . S
O49 Mg42 1.986 . S
O49 C53 1.246 . S
O50 Mg45 2.032 1_554 S
O50 C53 1.259 . S
O51 Mg42 2.114 1_556 S
O51 C54 1.252 . S
O52 Mg42 2.251 1_556 S
O52 Mg45 2.079 . S
O52 C54 1.273 . S
C53 O49 1.246 . S
C53 O50 1.259 . S
C54 O51 1.252 . S
C54 O52 1.273 . S
O55 Mg42 2.010 . S
O55 C47 1.249 . S
Mg56 O57 2.028 . S
Mg56 O63 1.986 . S
Mg56 O65 2.114 . S
Mg56 O66 2.251 . S
Mg56 O69 2.010 1_455 S
O57 Mg56 2.028 . S
O57 C60 1.250 . S
O58 Mg59 2.028 . S
O58 C60 1.248 . S
Mg59 O58 2.028 . S
Mg59 O64 2.032 . S
Mg59 O66 2.079 . S
C60 O57 1.250 . S
C60 O58 1.248 . S
C61 O62 1.264 . S
C61 O69 1.249 . S
O62 C61 1.264 . S
O63 Mg56 1.986 . S
O63 C67 1.246 . S
O64 Mg59 2.032 . S
O64 C67 1.259 . S
O65 Mg56 2.114 . S
O65 C68 1.252 . S
O66 Mg56 2.251 . S
O66 Mg59 2.079 . S
O66 C68 1.273 . S
C67 O63 1.246 . S
C67 O64 1.259 . S
C68 O65 1.252 . S
C68 O66 1.273 . S
O69 Mg56 2.010 1_655 S
O69 C61 1.249 . S
Mg70 O71 2.028 . S
Mg70 O77 1.986 . S
Mg70 O79 2.114 . S
Mg70 O80 2.251 . S
Mg70 O83 2.010 . S
O71 Mg70 2.028 . S
O71 C74 1.250 . S
O72 Mg73 2.028 . S
O72 C74 1.248 . S
Mg73 O72 2.028 . S
Mg73 O78 2.032 . S
Mg73 O80 2.079 . S
C74 O71 1.250 . S
C74 O72 1.248 . S
C75 O76 1.264 . S
C75 O83 1.249 . S
O76 C75 1.264 . S
O77 Mg70 1.986 . S
O77 C81 1.246 . S
O78 Mg73 2.032 . S
O78 C81 1.259 . S
O79 Mg70 2.114 . S
O79 C82 1.252 . S
O80 Mg70 2.251 . S
O80 Mg73 2.079 . S
O80 C82 1.273 . S
C81 O77 1.246 . S
C81 O78 1.259 . S
C82 O79 1.252 . S
C82 O80 1.273 . S
O83 Mg70 2.010 . S
O83 C75 1.249 . S
Mg84 O85 2.028 . S
Mg84 O91 1.986 . S
Mg84 O93 2.114 . S
Mg84 O94 2.251 . S
Mg84 O97 2.010 . S
O85 Mg84 2.028 . S
O85 C88 1.250 . S
O86 Mg87 2.028 . S
O86 C88 1.248 . S
Mg87 O86 2.028 . S
Mg87 O92 2.032 . S
Mg87 O94 2.079 . S
C88 O85 1.250 . S
C88 O86 1.248 . S
C89 O90 1.264 . S
C89 O97 1.249 . S
O90 C89 1.264 . S
O91 Mg84 1.986 . S
O91 C95 1.246 . S
O92 Mg87 2.032 . S
O92 C95 1.259 . S
O93 Mg84 2.114 . S
O93 C96 1.252 . S
O94 Mg84 2.251 . S
O94 Mg87 2.079 . S
O94 C96 1.273 . S
C95 O91 1.246 . S
C95 O92 1.259 . S
C96 O93 1.252 . S
C96 O94 1.273 . S
O97 Mg84 2.010 . S
O97 C89 1.249 . S
Mg98 O99 2.028 . S
Mg98 O105 1.986 . S
Mg98 O107 2.114 1_556 S
Mg98 O108 2.251 1_556 S
Mg98 O111 2.010 . S
O99 Mg98 2.028 . S
O99 C102 1.250 . S
O100 Mg101 2.028 1_556 S
O100 C102 1.248 . S
Mg101 O100 2.028 1_554 S
Mg101 O106 2.032 1_554 S
Mg101 O108 2.079 . S
C102 O99 1.250 . S
C102 O100 1.248 . S
C103 O104 1.264 . S
C103 O111 1.249 . S
O104 C103 1.264 . S
O105 Mg98 1.986 . S
O105 C109 1.246 . S
O106 Mg101 2.032 1_556 S
O106 C109 1.259 . S
O107 Mg98 2.114 1_554 S
O107 C110 1.252 . S
O108 Mg98 2.251 1_554 S
O108 Mg101 2.079 . S
O108 C110 1.273 . S
C109 O105 1.246 . S
C109 O106 1.259 . S
C110 O107 1.252 . S
C110 O108 1.273 . S
O111 Mg98 2.010 . S
O111 C103 1.249 . S
Mg112 O113 2.028 . S
Mg112 O119 1.986 . S
Mg112 O121 2.114 . S
Mg112 O122 2.251 . S
Mg112 O125 2.010 1_655 S
O113 Mg112 2.028 . S
O113 C116 1.250 . S
O114 Mg115 2.028 . S
O114 C116 1.248 . S
Mg115 O114 2.028 . S
Mg115 O120 2.032 . S
Mg115 O122 2.079 . S
C116 O113 1.250 . S
C116 O114 1.248 . S
C117 O118 1.264 . S
C117 O125 1.249 . S
O118 C117 1.264 . S
O119 Mg112 1.986 . S
O119 C123 1.246 . S
O120 Mg115 2.032 . S
O120 C123 1.259 . S
O121 Mg112 2.114 . S
O121 C124 1.252 . S
O122 Mg112 2.251 . S
O122 Mg115 2.079 . S
O122 C124 1.273 . S
C123 O119 1.246 . S
C123 O120 1.259 . S
C124 O121 1.252 . S
C124 O122 1.273 . S
O125 Mg112 2.010 1_455 S
O125 C117 1.249 . S
Mg126 O127 2.028 . S
Mg126 O133 1.986 . S
Mg126 O135 2.114 . S
Mg126 O136 2.251 . S
Mg126 O139 2.010 . S
O127 Mg126 2.028 . S
O127 C130 1.250 . S
O128 Mg129 2.028 . S
O128 C130 1.248 . S
Mg129 O128 2.028 . S
Mg129 O134 2.032 . S
Mg129 O136 2.079 . S
C130 O127 1.250 . S
C130 O128 1.248 . S
C131 O132 1.264 . S
C131 O139 1.249 . S
O132 C131 1.264 . S
O133 Mg126 1.986 . S
O133 C137 1.246 . S
O134 Mg129 2.032 . S
O134 C137 1.259 . S
O135 Mg126 2.114 . S
O135 C138 1.252 . S
O136 Mg126 2.251 . S
O136 Mg129 2.079 . S
O136 C138 1.273 . S
C137 O133 1.246 . S
C137 O134 1.259 . S
C138 O135 1.252 . S
C138 O136 1.273 . S
O139 Mg126 2.010 . S
O139 C131 1.249 . S
Mg140 O141 2.028 . S
Mg140 O147 1.986 . S
Mg140 O149 2.114 . S
Mg140 O150 2.251 . S
Mg140 O153 2.010 . S
O141 Mg140 2.028 . S
O141 C144 1.250 . S
O142 Mg143 2.028 . S
O142 C144 1.248 . S
Mg143 O142 2.028 . S
Mg143 O148 2.032 . S
Mg143 O150 2.079 . S
C144 O141 1.250 . S
C144 O142 1.248 . S
C145 O146 1.264 . S
C145 O153 1.249 . S
O146 C145 1.264 . S
O147 Mg140 1.986 . S
O147 C151 1.246 . S
O148 Mg143 2.032 . S
O148 C151 1.259 . S
O149 Mg140 2.114 . S
O149 C152 1.252 . S
O150 Mg140 2.251 . S
O150 Mg143 2.079 . S
O150 C152 1.273 . S
C151 O147 1.246 . S
C151 O148 1.259 . S
C152 O149 1.252 . S
C152 O150 1.273 . S
O153 Mg140 2.010 . S
O153 C145 1.249 . S
Mg154 O155 2.028 . S
Mg154 O161 1.986 . S
Mg154 O163 2.114 1_556 S
Mg154 O164 2.251 1_556 S
Mg154 O167 2.010 . S
O155 Mg154 2.028 . S
O155 C158 1.250 . S
O156 Mg157 2.028 1_556 S
O156 C158 1.248 . S
Mg157 O156 2.028 1_554 S
Mg157 O162 2.032 1_554 S
Mg157 O164 2.079 . S
C158 O155 1.250 . S
C158 O156 1.248 . S
C159 O160 1.264 . S
C159 O167 1.249 . S
O160 C159 1.264 . S
O161 Mg154 1.986 . S
O161 C165 1.246 . S
O162 Mg157 2.032 1_556 S
O162 C165 1.259 . S
O163 Mg154 2.114 1_554 S
O163 C166 1.252 . S
O164 Mg154 2.251 1_554 S
O164 Mg157 2.079 . S
O164 C166 1.273 . S
C165 O161 1.246 . S
C165 O162 1.259 . S
C166 O163 1.252 . S
C166 O164 1.273 . S
O167 Mg154 2.010 . S
O167 C159 1.249 . S
Mg168 O169 2.028 . S
Mg168 O175 1.986 . S
Mg168 O177 2.114 . S
Mg168 O178 2.251 . S
Mg168 O181 2.010 1_655 S
O169 Mg168 2.028 . S
O169 C172 1.250 . S
O170 Mg171 2.028 . S
O170 C172 1.248 . S
Mg171 O170 2.028 . S
Mg171 O176 2.032 . S
Mg171 O178 2.079 . S
C172 O169 1.250 . S
C172 O170 1.248 . S
C173 O174 1.264 . S
C173 O181 1.249 . S
O174 C173 1.264 . S
O175 Mg168 1.986 . S
O175 C179 1.246 . S
O176 Mg171 2.032 . S
O176 C179 1.259 . S
O177 Mg168 2.114 . S
O177 C180 1.252 . S
O178 Mg168 2.251 . S
O178 Mg171 2.079 . S
O178 C180 1.273 . S
C179 O175 1.246 . S
C179 O176 1.259 . S
C180 O177 1.252 . S
C180 O178 1.273 . S
O181 Mg168 2.010 1_455 S
O181 C173 1.249 . S
Mg182 O183 2.028 . S
Mg182 O189 1.986 . S
Mg182 O191 2.114 . S
Mg182 O192 2.251 . S
Mg182 O195 2.010 . S
O183 Mg182 2.028 . S
O183 C186 1.250 . S
O184 Mg185 2.028 . S
O184 C186 1.248 . S
Mg185 O184 2.028 . S
Mg185 O190 2.032 . S
Mg185 O192 2.079 . S
C186 O183 1.250 . S
C186 O184 1.248 . S
C187 O188 1.264 . S
C187 O195 1.249 . S
O188 C187 1.264 . S
O189 Mg182 1.986 . S
O189 C193 1.246 . S
O190 Mg185 2.032 . S
O190 C193 1.259 . S
O191 Mg182 2.114 . S
O191 C194 1.252 . S
O192 Mg182 2.251 . S
O192 Mg185 2.079 . S
O192 C194 1.273 . S
C193 O189 1.246 . S
C193 O190 1.259 . S
C194 O191 1.252 . S
C194 O192 1.273 . S
O195 Mg182 2.010 . S
O195 C187 1.249 . S
Mg196 O197 2.028 . S
Mg196 O203 1.986 . S
Mg196 O205 2.114 . S
Mg196 O206 2.251 . S
Mg196 O209 2.010 . S
O197 Mg196 2.028 . S
O197 C200 1.250 . S
O198 Mg199 2.028 . S
O198 C200 1.248 . S
Mg199 O198 2.028 . S
Mg199 O204 2.032 . S
Mg199 O206 2.079 . S
C200 O197 1.250 . S
C200 O198 1.248 . S
C201 O202 1.264 . S
C201 O209 1.249 . S
O202 C201 1.264 . S
O203 Mg196 1.986 . S
O203 C207 1.246 . S
O204 Mg199 2.032 . S
O204 C207 1.259 . S
O205 Mg196 2.114 . S
O205 C208 1.252 . S
O206 Mg196 2.251 . S
O206 Mg199 2.079 . S
O206 C208 1.273 . S
C207 O203 1.246 . S
C207 O204 1.259 . S
C208 O205 1.252 . S
C208 O206 1.273 . S
O209 Mg196 2.010 . S
O209 C201 1.249 . S
Mg210 O211 2.028 . S
Mg210 O217 1.986 . S
Mg210 O219 2.114 1_554 S
Mg210 O220 2.251 1_554 S
Mg210 O223 2.010 . S
O211 Mg210 2.028 . S
O211 C214 1.250 . S
O212 Mg213 2.028 1_554 S
O212 C214 1.248 . S
Mg213 O212 2.028 1_556 S
Mg213 O218 2.032 1_556 S
Mg213 O220 2.079 . S
C214 O211 1.250 . S
C214 O212 1.248 . S
C215 O216 1.264 . S
C215 O223 1.249 . S
O216 C215 1.264 . S
O217 Mg210 1.986 . S
O217 C221 1.246 . S
O218 Mg213 2.032 1_554 S
O218 C221 1.259 . S
O219 Mg210 2.114 1_556 S
O219 C222 1.252 . S
O220 Mg210 2.251 1_556 S
O220 Mg213 2.079 . S
O220 C222 1.273 . S
C221 O217 1.246 . S
C221 O218 1.259 . S
C222 O219 1.252 . S
C222 O220 1.273 . S
O223 Mg210 2.010 . S
O223 C215 1.249 . S
Mg224 O225 2.028 . S
Mg224 O231 1.986 . S
Mg224 O233 2.114 . S
Mg224 O234 2.251 . S
Mg224 O237 2.010 . S
O225 Mg224 2.028 . S
O225 C228 1.250 . S
O226 Mg227 2.028 . S
O226 C228 1.248 . S
Mg227 O226 2.028 . S
Mg227 O232 2.032 . S
Mg227 O234 2.079 . S
C228 O225 1.250 . S
C228 O226 1.248 . S
C229 O230 1.264 . S
C229 O237 1.249 . S
O230 C229 1.264 . S
O231 Mg224 1.986 . S
O231 C235 1.246 . S
O232 Mg227 2.032 . S
O232 C235 1.259 . S
O233 Mg224 2.114 . S
O233 C236 1.252 . S
O234 Mg224 2.251 . S
O234 Mg227 2.079 . S
O234 C236 1.273 . S
C235 O231 1.246 . S
C235 O232 1.259 . S
C236 O233 1.252 . S
C236 O234 1.273 . S
O237 Mg224 2.010 . S
O237 C229 1.249 . S
Mg238 O239 2.028 . S
Mg238 O245 1.986 . S
Mg238 O247 2.114 1_554 S
Mg238 O248 2.251 1_554 S
Mg238 O251 2.010 . S
O239 Mg238 2.028 . S
O239 C242 1.250 . S
O240 Mg241 2.028 1_554 S
O240 C242 1.248 . S
Mg241 O240 2.028 1_556 S
Mg241 O246 2.032 1_556 S
Mg241 O248 2.079 . S
C242 O239 1.250 . S
C242 O240 1.248 . S
C243 O244 1.264 . S
C243 O251 1.249 . S
O244 C243 1.264 . S
O245 Mg238 1.986 . S
O245 C249 1.246 . S
O246 Mg241 2.032 1_554 S
O246 C249 1.259 . S
O247 Mg238 2.114 1_556 S
O247 C250 1.252 . S
O248 Mg238 2.251 1_556 S
O248 Mg241 2.079 . S
O248 C250 1.273 . S
C249 O245 1.246 . S
C249 O246 1.259 . S
C250 O247 1.252 . S
C250 O248 1.273 . S
O251 Mg238 2.010 . S
O251 C243 1.249 . S
Mg252 O253 2.028 . S
Mg252 O259 1.986 . S
Mg252 O261 2.114 . S
Mg252 O262 2.251 . S
Mg252 O265 2.010 1_655 S
O253 Mg252 2.028 . S
O253 C256 1.250 . S
O254 Mg255 2.028 . S
O254 C256 1.248 . S
Mg255 O254 2.028 . S
Mg255 O260 2.032 . S
Mg255 O262 2.079 . S
C256 O253 1.250 . S
C256 O254 1.248 . S
C257 O258 1.264 . S
C257 O265 1.249 . S
O258 C257 1.264 . S
O259 Mg252 1.986 . S
O259 C263 1.246 . S
O260 Mg255 2.032 . S
O260 C263 1.259 . S
O261 Mg252 2.114 . S
O261 C264 1.252 . S
O262 Mg252 2.251 . S
O262 Mg255 2.079 . S
O262 C264 1.273 . S
C263 O259 1.246 . S
C263 O260 1.259 . S
C264 O261 1.252 . S
C264 O262 1.273 . S
O265 Mg252 2.010 1_455 S
O265 C257 1.249 . S
Mg266 O267 2.028 . S
Mg266 O273 1.986 . S
Mg266 O275 2.114 . S
Mg266 O276 2.251 . S
Mg266 O279 2.010 . S
O267 Mg266 2.028 . S
O267 C270 1.250 . S
O268 Mg269 2.028 . S
O268 C270 1.248 . S
Mg269 O268 2.028 . S
Mg269 O274 2.032 . S
Mg269 O276 2.079 . S
C270 O267 1.250 . S
C270 O268 1.248 . S
C271 O272 1.264 . S
C271 O279 1.249 . S
O272 C271 1.264 . S
O273 Mg266 1.986 . S
O273 C277 1.246 . S
O274 Mg269 2.032 . S
O274 C277 1.259 . S
O275 Mg266 2.114 . S
O275 C278 1.252 . S
O276 Mg266 2.251 . S
O276 Mg269 2.079 . S
O276 C278 1.273 . S
C277 O273 1.246 . S
C277 O274 1.259 . S
C278 O275 1.252 . S
C278 O276 1.273 . S
O279 Mg266 2.010 . S
O279 C271 1.249 . S
Mg280 O281 2.028 . S
Mg280 O287 1.986 . S
Mg280 O289 2.114 . S
Mg280 O290 2.251 . S
Mg280 O293 2.010 . S
O281 Mg280 2.028 . S
O281 C284 1.250 . S
O282 Mg283 2.028 . S
O282 C284 1.248 . S
Mg283 O282 2.028 . S
Mg283 O288 2.032 . S
Mg283 O290 2.079 . S
C284 O281 1.250 . S
C284 O282 1.248 . S
C285 O286 1.264 . S
C285 O293 1.249 . S
O286 C285 1.264 . S
O287 Mg280 1.986 . S
O287 C291 1.246 . S
O288 Mg283 2.032 . S
O288 C291 1.259 . S
O289 Mg280 2.114 . S
O289 C292 1.252 . S
O290 Mg280 2.251 . S
O290 Mg283 2.079 . S
O290 C292 1.273 . S
C291 O287 1.246 . S
C291 O288 1.259 . S
C292 O289 1.252 . S
C292 O290 1.273 . S
O293 Mg280 2.010 . S
O293 C285 1.249 . S
Mg294 O295 2.028 . S
Mg294 O301 1.986 . S
Mg294 O303 2.114 1_556 S
Mg294 O304 2.251 1_556 S
Mg294 O307 2.010 . S
O295 Mg294 2.028 . S
O295 C298 1.250 . S
O296 Mg297 2.028 1_556 S
O296 C298 1.248 . S
Mg297 O296 2.028 1_554 S
Mg297 O302 2.032 1_554 S
Mg297 O304 2.079 . S
C298 O295 1.250 . S
C298 O296 1.248 . S
C299 O300 1.264 . S
C299 O307 1.249 . S
O300 C299 1.264 . S
O301 Mg294 1.986 . S
O301 C305 1.246 . S
O302 Mg297 2.032 1_556 S
O302 C305 1.259 . S
O303 Mg294 2.114 1_554 S
O303 C306 1.252 . S
O304 Mg294 2.251 1_554 S
O304 Mg297 2.079 . S
O304 C306 1.273 . S
C305 O301 1.246 . S
C305 O302 1.259 . S
C306 O303 1.252 . S
C306 O304 1.273 . S
O307 Mg294 2.010 . S
O307 C299 1.249 . S
Mg308 O309 2.028 . S
Mg308 O315 1.986 . S
Mg308 O317 2.114 . S
Mg308 O318 2.251 . S
Mg308 O321 2.010 1_655 S
O309 Mg308 2.028 . S
O309 C312 1.250 . S
O310 Mg311 2.028 . S
O310 C312 1.248 . S
Mg311 O310 2.028 . S
Mg311 O316 2.032 . S
Mg311 O318 2.079 . S
C312 O309 1.250 . S
C312 O310 1.248 . S
C313 O314 1.264 . S
C313 O321 1.249 . S
O314 C313 1.264 . S
O315 Mg308 1.986 . S
O315 C319 1.246 . S
O316 Mg311 2.032 . S
O316 C319 1.259 . S
O317 Mg308 2.114 . S
O317 C320 1.252 . S
O318 Mg308 2.251 . S
O318 Mg311 2.079 . S
O318 C320 1.273 . S
C319 O315 1.246 . S
C319 O316 1.259 . S
C320 O317 1.252 . S
C320 O318 1.273 . S
O321 Mg308 2.010 1_455 S
O321 C313 1.249 . S
Mg322 O323 2.028 . S
Mg322 O329 1.986 . S
Mg322 O331 2.114 . S
Mg322 O332 2.251 . S
Mg322 O335 2.010 . S
O323 Mg322 2.028 . S
O323 C326 1.250 . S
O324 Mg325 2.028 . S
O324 C326 1.248 . S
Mg325 O324 2.028 . S
Mg325 O330 2.032 . S
Mg325 O332 2.079 . S
C326 O323 1.250 . S
C326 O324 1.248 . S
C327 O328 1.264 . S
C327 O335 1.249 . S
O328 C327 1.264 . S
O329 Mg322 1.986 . S
O329 C333 1.246 . S
O330 Mg325 2.032 . S
O330 C333 1.259 . S
O331 Mg322 2.114 . S
O331 C334 1.252 . S
O332 Mg322 2.251 . S
O332 Mg325 2.079 . S
O332 C334 1.273 . S
C333 O329 1.246 . S
C333 O330 1.259 . S
C334 O331 1.252 . S
C334 O332 1.273 . S
O335 Mg322 2.010 . S
O335 C327 1.249 . S
Mg336 O337 2.028 . S
Mg336 O343 1.986 . S
Mg336 O345 2.114 . S
Mg336 O346 2.251 . S
Mg336 O349 2.010 . S
O337 Mg336 2.028 . S
O337 C340 1.250 . S
O338 Mg339 2.028 . S
O338 C340 1.248 . S
Mg339 O338 2.028 . S
Mg339 O344 2.032 . S
Mg339 O346 2.079 . S
C340 O337 1.250 . S
C340 O338 1.248 . S
C341 O342 1.264 . S
C341 O349 1.249 . S
O342 C341 1.264 . S
O343 Mg336 1.986 . S
O343 C347 1.246 . S
O344 Mg339 2.032 . S
O344 C347 1.259 . S
O345 Mg336 2.114 . S
O345 C348 1.252 . S
O346 Mg336 2.251 . S
O346 Mg339 2.079 . S
O346 C348 1.273 . S
C347 O343 1.246 . S
C347 O344 1.259 . S
C348 O345 1.252 . S
C348 O346 1.273 . S
O349 Mg336 2.010 . S
O349 C341 1.249 . S
Mg350 O351 2.028 . S
Mg350 O357 1.986 . S
Mg350 O359 2.114 1_556 S
Mg350 O360 2.251 1_556 S
Mg350 O363 2.010 . S
O351 Mg350 2.028 . S
O351 C354 1.250 . S
O352 Mg353 2.028 1_556 S
O352 C354 1.248 . S
Mg353 O352 2.028 1_554 S
Mg353 O358 2.032 1_554 S
Mg353 O360 2.079 . S
C354 O351 1.250 . S
C354 O352 1.248 . S
C355 O356 1.264 . S
C355 O363 1.249 . S
O356 C355 1.264 . S
O357 Mg350 1.986 . S
O357 C361 1.246 . S
O358 Mg353 2.032 1_556 S
O358 C361 1.259 . S
O359 Mg350 2.114 1_554 S
O359 C362 1.252 . S
O360 Mg350 2.251 1_554 S
O360 Mg353 2.079 . S
O360 C362 1.273 . S
C361 O357 1.246 . S
C361 O358 1.259 . S
C362 O359 1.252 . S
C362 O360 1.273 . S
O363 Mg350 2.010 . S
O363 C355 1.249 . S
Mg364 O365 2.028 . S
Mg364 O371 1.986 . S
Mg364 O373 2.114 . S
Mg364 O374 2.251 . S
Mg364 O377 2.010 1_455 S
O365 Mg364 2.028 . S
O365 C368 1.250 . S
O366 Mg367 2.028 . S
O366 C368 1.248 . S
Mg367 O366 2.028 . S
Mg367 O372 2.032 . S
Mg367 O374 2.079 . S
C368 O365 1.250 . S
C368 O366 1.248 . S
C369 O370 1.264 . S
C369 O377 1.249 . S
O370 C369 1.264 . S
O371 Mg364 1.986 . S
O371 C375 1.246 . S
O372 Mg367 2.032 . S
O372 C375 1.259 . S
O373 Mg364 2.114 . S
O373 C376 1.252 . S
O374 Mg364 2.251 . S
O374 Mg367 2.079 . S
O374 C376 1.273 . S
C375 O371 1.246 . S
C375 O372 1.259 . S
C376 O373 1.252 . S
C376 O374 1.273 . S
O377 Mg364 2.010 1_655 S
O377 C369 1.249 . S
Mg378 O379 2.028 . S
Mg378 O385 1.986 . S
Mg378 O387 2.114 . S
Mg378 O388 2.251 . S
Mg378 O391 2.010 . S
O379 Mg378 2.028 . S
O379 C382 1.250 . S
O380 Mg381 2.028 . S
O380 C382 1.248 . S
Mg381 O380 2.028 . S
Mg381 O386 2.032 . S
Mg381 O388 2.079 . S
C382 O379 1.250 . S
C382 O380 1.248 . S
C383 O384 1.264 . S
C383 O391 1.249 . S
O384 C383 1.264 . S
O385 Mg378 1.986 . S
O385 C389 1.246 . S
O386 Mg381 2.032 . S
O386 C389 1.259 . S
O387 Mg378 2.114 . S
O387 C390 1.252 . S
O388 Mg378 2.251 . S
O388 Mg381 2.079 . S
O388 C390 1.273 . S
C389 O385 1.246 . S
C389 O386 1.259 . S
C390 O387 1.252 . S
C390 O388 1.273 . S
O391 Mg378 2.010 . S
O391 C383 1.249 . S
Mg392 O393 2.028 . S
Mg392 O399 1.986 . S
Mg392 O401 2.114 . S
Mg392 O402 2.251 . S
Mg392 O405 2.010 . S
O393 Mg392 2.028 . S
O393 C396 1.250 . S
O394 Mg395 2.028 . S
O394 C396 1.248 . S
Mg395 O394 2.028 . S
Mg395 O400 2.032 . S
Mg395 O402 2.079 . S
C396 O393 1.250 . S
C396 O394 1.248 . S
C397 O398 1.264 . S
C397 O405 1.249 . S
O398 C397 1.264 . S
O399 Mg392 1.986 . S
O399 C403 1.246 . S
O400 Mg395 2.032 . S
O400 C403 1.259 . S
O401 Mg392 2.114 . S
O401 C404 1.252 . S
O402 Mg392 2.251 . S
O402 Mg395 2.079 . S
O402 C404 1.273 . S
C403 O399 1.246 . S
C403 O400 1.259 . S
C404 O401 1.252 . S
C404 O402 1.273 . S
O405 Mg392 2.010 . S
O405 C397 1.249 . S
Mg406 O407 2.028 . S
Mg406 O413 1.986 . S
Mg406 O415 2.114 1_554 S
Mg406 O416 2.251 1_554 S
Mg406 O419 2.010 . S
O407 Mg406 2.028 . S
O407 C410 1.250 . S
O408 Mg409 2.028 1_554 S
O408 C410 1.248 . S
Mg409 O408 2.028 1_556 S
Mg409 O414 2.032 1_556 S
Mg409 O416 2.079 . S
C410 O407 1.250 . S
C410 O408 1.248 . S
C411 O412 1.264 . S
C411 O419 1.249 . S
O412 C411 1.264 . S
O413 Mg406 1.986 . S
O413 C417 1.246 . S
O414 Mg409 2.032 1_554 S
O414 C417 1.259 . S
O415 Mg406 2.114 1_556 S
O415 C418 1.252 . S
O416 Mg406 2.251 1_556 S
O416 Mg409 2.079 . S
O416 C418 1.273 . S
C417 O413 1.246 . S
C417 O414 1.259 . S
C418 O415 1.252 . S
C418 O416 1.273 . S
O419 Mg406 2.010 . S
O419 C411 1.249 . S
Mg420 O421 2.028 . S
Mg420 O427 1.986 . S
Mg420 O429 2.114 . S
Mg420 O430 2.251 . S
Mg420 O433 2.010 1_455 S
O421 Mg420 2.028 . S
O421 C424 1.250 . S
O422 Mg423 2.028 . S
O422 C424 1.248 . S
Mg423 O422 2.028 . S
Mg423 O428 2.032 . S
Mg423 O430 2.079 . S
C424 O421 1.250 . S
C424 O422 1.248 . S
C425 O426 1.264 . S
C425 O433 1.249 . S
O426 C425 1.264 . S
O427 Mg420 1.986 . S
O427 C431 1.246 . S
O428 Mg423 2.032 . S
O428 C431 1.259 . S
O429 Mg420 2.114 . S
O429 C432 1.252 . S
O430 Mg420 2.251 . S
O430 Mg423 2.079 . S
O430 C432 1.273 . S
C431 O427 1.246 . S
C431 O428 1.259 . S
C432 O429 1.252 . S
C432 O430 1.273 . S
O433 Mg420 2.010 1_655 S
O433 C425 1.249 . S
Mg434 O435 2.028 . S
Mg434 O441 1.986 . S
Mg434 O443 2.114 . S
Mg434 O444 2.251 . S
Mg434 O447 2.010 . S
O435 Mg434 2.028 . S
O435 C438 1.250 . S
O436 Mg437 2.028 . S
O436 C438 1.248 . S
Mg437 O436 2.028 . S
Mg437 O442 2.032 . S
Mg437 O444 2.079 . S
C438 O435 1.250 . S
C438 O436 1.248 . S
C439 O440 1.264 . S
C439 O447 1.249 . S
O440 C439 1.264 . S
O441 Mg434 1.986 . S
O441 C445 1.246 . S
O442 Mg437 2.032 . S
O442 C445 1.259 . S
O443 Mg434 2.114 . S
O443 C446 1.252 . S
O444 Mg434 2.251 . S
O444 Mg437 2.079 . S
O444 C446 1.273 . S
C445 O441 1.246 . S
C445 O442 1.259 . S
C446 O443 1.252 . S
C446 O444 1.273 . S
O447 Mg434 2.010 . S
O447 C439 1.249 . S
C448 C449 1.391 . S
C448 C450 1.394 . S
C448 H464 0.931 . S
C449 C448 1.391 . S
C449 C453 1.376 . S
C450 C448 1.394 . S
C450 C451 1.369 . S
C450 C454 1.531 . S
C451 C450 1.369 . S
C451 C452 1.410 . S
C451 C459 1.503 . S
C452 C451 1.410 . S
C452 C453 1.392 . S
C452 C455 1.511 . S
C453 C449 1.376 . S
C453 C452 1.392 . S
C453 H465 0.929 . S
C454 C450 1.531 . S
C454 H466 0.960 . S
C454 H467 0.962 . S
C454 H468 0.960 . S
C455 C452 1.511 . S
C455 H469 0.961 . S
C455 H470 0.961 . S
C455 H471 0.961 . S
C456 C457 1.370 . S
C456 C458 1.363 . S
C456 H472 0.931 . S
C457 C456 1.370 . S
C457 C461 1.408 . S
C458 C456 1.363 . S
C458 C459 1.370 . S
C458 C462 1.524 . S
C459 C451 1.503 . S
C459 C458 1.370 . S
C459 C460 1.403 . S
C460 C459 1.403 . S
C460 C461 1.404 . S
C460 C463 1.539 . S
C461 C457 1.408 . S
C461 C460 1.404 . S
C461 H473 0.930 . S
C462 C458 1.524 . S
C462 H474 0.956 . S
C462 H475 0.961 . S
C462 H476 0.961 . S
C463 C460 1.539 . S
C463 H477 0.958 . S
C463 H478 0.961 . S
C463 H479 0.960 . S
H464 C448 0.931 . S
H465 C453 0.929 . S
H466 C454 0.960 . S
H467 C454 0.962 . S
H468 C454 0.960 . S
H469 C455 0.961 . S
H470 C455 0.961 . S
H471 C455 0.961 . S
H472 C456 0.931 . S
H473 C461 0.930 . S
H474 C462 0.956 . S
H475 C462 0.961 . S
H476 C462 0.961 . S
H477 C463 0.958 . S
H478 C463 0.961 . S
H479 C463 0.960 . S
C480 C481 1.391 . S
C480 C482 1.394 . S
C480 H496 0.931 . S
C481 C480 1.391 . S
C481 C485 1.376 . S
C482 C480 1.394 . S
C482 C483 1.369 . S
C482 C486 1.531 . S
C483 C482 1.369 . S
C483 C484 1.410 . S
C483 C491 1.503 . S
C484 C483 1.410 . S
C484 C485 1.392 . S
C484 C487 1.511 . S
C485 C481 1.376 . S
C485 C484 1.392 . S
C485 H497 0.929 . S
C486 C482 1.531 . S
C486 H498 0.960 . S
C486 H499 0.962 . S
C486 H500 0.960 . S
C487 C484 1.511 . S
C487 H501 0.961 . S
C487 H502 0.961 . S
C487 H503 0.961 . S
C488 C489 1.370 . S
C488 C490 1.363 . S
C488 H504 0.931 . S
C489 C488 1.370 . S
C489 C493 1.408 . S
C490 C488 1.363 . S
C490 C491 1.370 . S
C490 C494 1.524 . S
C491 C483 1.503 . S
C491 C490 1.370 . S
C491 C492 1.403 . S
C492 C491 1.403 . S
C492 C493 1.404 . S
C492 C495 1.539 . S
C493 C489 1.408 . S
C493 C492 1.404 . S
C493 H505 0.930 . S
C494 C490 1.524 . S
C494 H506 0.956 . S
C494 H507 0.961 . S
C494 H508 0.961 . S
C495 C492 1.539 . S
C495 H509 0.958 . S
C495 H510 0.961 . S
C495 H511 0.960 . S
H496 C480 0.931 . S
H497 C485 0.929 . S
H498 C486 0.960 . S
H499 C486 0.962 . S
H500 C486 0.960 . S
H501 C487 0.961 . S
H502 C487 0.961 . S
H503 C487 0.961 . S
H504 C488 0.931 . S
H505 C493 0.930 . S
H506 C494 0.956 . S
H507 C494 0.961 . S
H508 C494 0.961 . S
H509 C495 0.958 . S
H510 C495 0.961 . S
H511 C495 0.960 . S
C512 C513 1.391 . S
C512 C514 1.394 . S
C512 H528 0.931 . S
C513 C512 1.391 . S
C513 C517 1.376 . S
C514 C512 1.394 . S
C514 C515 1.369 . S
C514 C518 1.531 . S
C515 C514 1.369 . S
C515 C516 1.410 . S
C515 C523 1.503 . S
C516 C515 1.410 . S
C516 C517 1.392 . S
C516 C519 1.511 . S
C517 C513 1.376 . S
C517 C516 1.392 . S
C517 H529 0.929 . S
C518 C514 1.531 . S
C518 H530 0.960 . S
C518 H531 0.962 . S
C518 H532 0.960 . S
C519 C516 1.511 . S
C519 H533 0.961 . S
C519 H534 0.961 . S
C519 H535 0.961 . S
C520 C521 1.370 . S
C520 C522 1.363 . S
C520 H536 0.931 . S
C521 C520 1.370 . S
C521 C525 1.408 . S
C522 C520 1.363 . S
C522 C523 1.370 . S
C522 C526 1.524 . S
C523 C515 1.503 . S
C523 C522 1.370 . S
C523 C524 1.403 . S
C524 C523 1.403 . S
C524 C525 1.404 . S
C524 C527 1.539 . S
C525 C521 1.408 . S
C525 C524 1.404 . S
C525 H537 0.930 . S
C526 C522 1.524 . S
C526 H538 0.956 . S
C526 H539 0.961 . S
C526 H540 0.961 . S
C527 C524 1.539 . S
C527 H541 0.958 . S
C527 H542 0.961 . S
C527 H543 0.960 . S
H528 C512 0.931 . S
H529 C517 0.929 . S
H530 C518 0.960 . S
H531 C518 0.962 . S
H532 C518 0.960 . S
H533 C519 0.961 . S
H534 C519 0.961 . S
H535 C519 0.961 . S
H536 C520 0.931 . S
H537 C525 0.930 . S
H538 C526 0.956 . S
H539 C526 0.961 . S
H540 C526 0.961 . S
H541 C527 0.958 . S
H542 C527 0.961 . S
H543 C527 0.960 . S
C544 C545 1.391 . S
C544 C546 1.394 . S
C544 H560 0.931 . S
C545 C544 1.391 . S
C545 C549 1.376 . S
C546 C544 1.394 . S
C546 C547 1.369 . S
C546 C550 1.531 . S
C547 C546 1.369 . S
C547 C548 1.410 . S
C547 C555 1.503 . S
C548 C547 1.410 . S
C548 C549 1.392 . S
C548 C551 1.511 . S
C549 C545 1.376 . S
C549 C548 1.392 . S
C549 H561 0.929 . S
C550 C546 1.531 . S
C550 H562 0.960 . S
C550 H563 0.962 . S
C550 H564 0.960 . S
C551 C548 1.511 . S
C551 H565 0.961 . S
C551 H566 0.961 . S
C551 H567 0.961 . S
C552 C553 1.370 . S
C552 C554 1.363 . S
C552 H568 0.931 . S
C553 C552 1.370 . S
C553 C557 1.408 . S
C554 C552 1.363 . S
C554 C555 1.370 . S
C554 C558 1.524 . S
C555 C547 1.503 . S
C555 C554 1.370 . S
C555 C556 1.403 . S
C556 C555 1.403 . S
C556 C557 1.404 . S
C556 C559 1.539 . S
C557 C553 1.408 . S
C557 C556 1.404 . S
C557 H569 0.930 . S
C558 C554 1.524 . S
C558 H570 0.956 . S
C558 H571 0.961 . S
C558 H572 0.961 . S
C559 C556 1.539 . S
C559 H573 0.958 . S
C559 H574 0.961 . S
C559 H575 0.960 . S
H560 C544 0.931 . S
H561 C549 0.929 . S
H562 C550 0.960 . S
H563 C550 0.962 . S
H564 C550 0.960 . S
H565 C551 0.961 . S
H566 C551 0.961 . S
H567 C551 0.961 . S
H568 C552 0.931 . S
H569 C557 0.930 . S
H570 C558 0.956 . S
H571 C558 0.961 . S
H572 C558 0.961 . S
H573 C559 0.958 . S
H574 C559 0.961 . S
H575 C559 0.960 . S
C576 C577 1.391 . S
C576 C578 1.394 . S
C576 H592 0.931 . S
C577 C576 1.391 . S
C577 C581 1.376 . S
C578 C576 1.394 . S
C578 C579 1.369 . S
C578 C582 1.531 . S
C579 C578 1.369 . S
C579 C580 1.410 . S
C579 C587 1.503 . S
C580 C579 1.410 . S
C580 C581 1.392 . S
C580 C583 1.511 . S
C581 C577 1.376 . S
C581 C580 1.392 . S
C581 H593 0.929 . S
C582 C578 1.531 . S
C582 H594 0.960 . S
C582 H595 0.962 . S
C582 H596 0.960 . S
C583 C580 1.511 . S
C583 H597 0.961 . S
C583 H598 0.961 . S
C583 H599 0.961 . S
C584 C585 1.370 . S
C584 C586 1.363 . S
C584 H600 0.931 . S
C585 C584 1.370 . S
C585 C589 1.408 . S
C586 C584 1.363 . S
C586 C587 1.370 . S
C586 C590 1.524 . S
C587 C579 1.503 . S
C587 C586 1.370 . S
C587 C588 1.403 . S
C588 C587 1.403 . S
C588 C589 1.404 . S
C588 C591 1.539 . S
C589 C585 1.408 . S
C589 C588 1.404 . S
C589 H601 0.930 . S
C590 C586 1.524 . S
C590 H602 0.956 . S
C590 H603 0.961 . S
C590 H604 0.961 . S
C591 C588 1.539 . S
C591 H605 0.958 . S
C591 H606 0.961 . S
C591 H607 0.960 . S
H592 C576 0.931 . S
H593 C581 0.929 . S
H594 C582 0.960 . S
H595 C582 0.962 . S
H596 C582 0.960 . S
H597 C583 0.961 . S
H598 C583 0.961 . S
H599 C583 0.961 . S
H600 C584 0.931 . S
H601 C589 0.930 . S
H602 C590 0.956 . S
H603 C590 0.961 . S
H604 C590 0.961 . S
H605 C591 0.958 . S
H606 C591 0.961 . S
H607 C591 0.960 . S
C608 C609 1.391 . S
C608 C610 1.394 . S
C608 H624 0.931 . S
C609 C608 1.391 . S
C609 C613 1.376 . S
C610 C608 1.394 . S
C610 C611 1.369 . S
C610 C614 1.531 . S
C611 C610 1.369 . S
C611 C612 1.410 . S
C611 C619 1.503 . S
C612 C611 1.410 . S
C612 C613 1.392 . S
C612 C615 1.511 . S
C613 C609 1.376 . S
C613 C612 1.392 . S
C613 H625 0.929 . S
C614 C610 1.531 . S
C614 H626 0.960 . S
C614 H627 0.962 . S
C614 H628 0.960 . S
C615 C612 1.511 . S
C615 H629 0.961 . S
C615 H630 0.961 . S
C615 H631 0.961 . S
C616 C617 1.370 . S
C616 C618 1.363 . S
C616 H632 0.931 . S
C617 C616 1.370 . S
C617 C621 1.408 . S
C618 C616 1.363 . S
C618 C619 1.370 . S
C618 C622 1.524 . S
C619 C611 1.503 . S
C619 C618 1.370 . S
C619 C620 1.403 . S
C620 C619 1.403 . S
C620 C621 1.404 . S
C620 C623 1.539 . S
C621 C617 1.408 . S
C621 C620 1.404 . S
C621 H633 0.930 . S
C622 C618 1.524 . S
C622 H634 0.956 . S
C622 H635 0.961 . S
C622 H636 0.961 . S
C623 C620 1.539 . S
C623 H637 0.958 . S
C623 H638 0.961 . S
C623 H639 0.960 . S
H624 C608 0.931 . S
H625 C613 0.929 . S
H626 C614 0.960 . S
H627 C614 0.962 . S
H628 C614 0.960 . S
H629 C615 0.961 . S
H630 C615 0.961 . S
H631 C615 0.961 . S
H632 C616 0.931 . S
H633 C621 0.930 . S
H634 C622 0.956 . S
H635 C622 0.961 . S
H636 C622 0.961 . S
H637 C623 0.958 . S
H638 C623 0.961 . S
H639 C623 0.960 . S
C640 C641 1.391 . S
C640 C642 1.394 . S
C640 H656 0.931 . S
C641 C640 1.391 . S
C641 C645 1.376 . S
C642 C640 1.394 . S
C642 C643 1.369 . S
C642 C646 1.531 . S
C643 C642 1.369 . S
C643 C644 1.410 . S
C643 C651 1.503 . S
C644 C643 1.410 . S
C644 C645 1.392 . S
C644 C647 1.511 . S
C645 C641 1.376 . S
C645 C644 1.392 . S
C645 H657 0.929 . S
C646 C642 1.531 . S
C646 H658 0.960 . S
C646 H659 0.962 . S
C646 H660 0.960 . S
C647 C644 1.511 . S
C647 H661 0.961 . S
C647 H662 0.961 . S
C647 H663 0.961 . S
C648 C649 1.370 . S
C648 C650 1.363 . S
C648 H664 0.931 . S
C649 C648 1.370 . S
C649 C653 1.408 . S
C650 C648 1.363 . S
C650 C651 1.370 . S
C650 C654 1.524 . S
C651 C643 1.503 . S
C651 C650 1.370 . S
C651 C652 1.403 . S
C652 C651 1.403 . S
C652 C653 1.404 . S
C652 C655 1.539 . S
C653 C649 1.408 . S
C653 C652 1.404 . S
C653 H665 0.930 . S
C654 C650 1.524 . S
C654 H666 0.956 . S
C654 H667 0.961 . S
C654 H668 0.961 . S
C655 C652 1.539 . S
C655 H669 0.958 . S
C655 H670 0.961 . S
C655 H671 0.960 . S
H656 C640 0.931 . S
H657 C645 0.929 . S
H658 C646 0.960 . S
H659 C646 0.962 . S
H660 C646 0.960 . S
H661 C647 0.961 . S
H662 C647 0.961 . S
H663 C647 0.961 . S
H664 C648 0.931 . S
H665 C653 0.930 . S
H666 C654 0.956 . S
H667 C654 0.961 . S
H668 C654 0.961 . S
H669 C655 0.958 . S
H670 C655 0.961 . S
H671 C655 0.960 . S
C672 C673 1.391 . S
C672 C674 1.394 . S
C672 H688 0.931 . S
C673 C672 1.391 . S
C673 C677 1.376 . S
C674 C672 1.394 . S
C674 C675 1.369 . S
C674 C678 1.531 . S
C675 C674 1.369 . S
C675 C676 1.410 . S
C675 C683 1.503 . S
C676 C675 1.410 . S
C676 C677 1.392 . S
C676 C679 1.511 . S
C677 C673 1.376 . S
C677 C676 1.392 . S
C677 H689 0.929 . S
C678 C674 1.531 . S
C678 H690 0.960 . S
C678 H691 0.962 . S
C678 H692 0.960 . S
C679 C676 1.511 . S
C679 H693 0.961 . S
C679 H694 0.961 . S
C679 H695 0.961 . S
C680 C681 1.370 . S
C680 C682 1.363 . S
C680 H696 0.931 . S
C681 C680 1.370 . S
C681 C685 1.408 . S
C682 C680 1.363 . S
C682 C683 1.370 . S
C682 C686 1.524 . S
C683 C675 1.503 . S
C683 C682 1.370 . S
C683 C684 1.403 . S
C684 C683 1.403 . S
C684 C685 1.404 . S
C684 C687 1.539 . S
C685 C681 1.408 . S
C685 C684 1.404 . S
C685 H697 0.930 . S
C686 C682 1.524 . S
C686 H698 0.956 . S
C686 H699 0.961 . S
C686 H700 0.961 . S
C687 C684 1.539 . S
C687 H701 0.958 . S
C687 H702 0.961 . S
C687 H703 0.960 . S
H688 C672 0.931 . S
H689 C677 0.929 . S
H690 C678 0.960 . S
H691 C678 0.962 . S
H692 C678 0.960 . S
H693 C679 0.961 . S
H694 C679 0.961 . S
H695 C679 0.961 . S
H696 C680 0.931 . S
H697 C685 0.930 . S
H698 C686 0.956 . S
H699 C686 0.961 . S
H700 C686 0.961 . S
H701 C687 0.958 . S
H702 C687 0.961 . S
H703 C687 0.960 . S
C704 C705 1.391 . S
C704 C706 1.394 . S
C704 H720 0.931 . S
C705 C704 1.391 . S
C705 C709 1.376 . S
C706 C704 1.394 . S
C706 C707 1.369 . S
C706 C710 1.531 . S
C707 C706 1.369 . S
C707 C708 1.410 . S
C707 C715 1.503 . S
C708 C707 1.410 . S
C708 C709 1.392 . S
C708 C711 1.511 . S
C709 C705 1.376 . S
C709 C708 1.392 . S
C709 H721 0.929 . S
C710 C706 1.531 . S
C710 H722 0.960 . S
C710 H723 0.962 . S
C710 H724 0.960 . S
C711 C708 1.511 . S
C711 H725 0.961 . S
C711 H726 0.961 . S
C711 H727 0.961 . S
C712 C713 1.370 . S
C712 C714 1.363 . S
C712 H728 0.931 . S
C713 C712 1.370 . S
C713 C717 1.408 . S
C714 C712 1.363 . S
C714 C715 1.370 . S
C714 C718 1.524 . S
C715 C707 1.503 . S
C715 C714 1.370 . S
C715 C716 1.403 . S
C716 C715 1.403 . S
C716 C717 1.404 . S
C716 C719 1.539 . S
C717 C713 1.408 . S
C717 C716 1.404 . S
C717 H729 0.930 . S
C718 C714 1.524 . S
C718 H730 0.956 . S
C718 H731 0.961 . S
C718 H732 0.961 . S
C719 C716 1.539 . S
C719 H733 0.958 . S
C719 H734 0.961 . S
C719 H735 0.960 . S
H720 C704 0.931 . S
H721 C709 0.929 . S
H722 C710 0.960 . S
H723 C710 0.962 . S
H724 C710 0.960 . S
H725 C711 0.961 . S
H726 C711 0.961 . S
H727 C711 0.961 . S
H728 C712 0.931 . S
H729 C717 0.930 . S
H730 C718 0.956 . S
H731 C718 0.961 . S
H732 C718 0.961 . S
H733 C719 0.958 . S
H734 C719 0.961 . S
H735 C719 0.960 . S
C736 C737 1.391 . S
C736 C738 1.394 . S
C736 H752 0.931 . S
C737 C736 1.391 . S
C737 C741 1.376 . S
C738 C736 1.394 . S
C738 C739 1.369 . S
C738 C742 1.531 . S
C739 C738 1.369 . S
C739 C740 1.410 . S
C739 C747 1.503 . S
C740 C739 1.410 . S
C740 C741 1.392 . S
C740 C743 1.511 . S
C741 C737 1.376 . S
C741 C740 1.392 . S
C741 H753 0.929 . S
C742 C738 1.531 . S
C742 H754 0.960 . S
C742 H755 0.962 . S
C742 H756 0.960 . S
C743 C740 1.511 . S
C743 H757 0.961 . S
C743 H758 0.961 . S
C743 H759 0.961 . S
C744 C745 1.370 . S
C744 C746 1.363 . S
C744 H760 0.931 . S
C745 C744 1.370 . S
C745 C749 1.408 . S
C746 C744 1.363 . S
C746 C747 1.370 . S
C746 C750 1.524 . S
C747 C739 1.503 . S
C747 C746 1.370 . S
C747 C748 1.403 . S
C748 C747 1.403 . S
C748 C749 1.404 . S
C748 C751 1.539 . S
C749 C745 1.408 . S
C749 C748 1.404 . S
C749 H761 0.930 . S
C750 C746 1.524 . S
C750 H762 0.956 . S
C750 H763 0.961 . S
C750 H764 0.961 . S
C751 C748 1.539 . S
C751 H765 0.958 . S
C751 H766 0.961 . S
C751 H767 0.960 . S
H752 C736 0.931 . S
H753 C741 0.929 . S
H754 C742 0.960 . S
H755 C742 0.962 . S
H756 C742 0.960 . S
H757 C743 0.961 . S
H758 C743 0.961 . S
H759 C743 0.961 . S
H760 C744 0.931 . S
H761 C749 0.930 . S
H762 C750 0.956 . S
H763 C750 0.961 . S
H764 C750 0.961 . S
H765 C751 0.958 . S
H766 C751 0.961 . S
H767 C751 0.960 . S
C768 C769 1.391 . S
C768 C770 1.394 . S
C768 H784 0.931 . S
C769 C768 1.391 . S
C769 C773 1.376 . S
C770 C768 1.394 . S
C770 C771 1.369 . S
C770 C774 1.531 . S
C771 C770 1.369 . S
C771 C772 1.410 . S
C771 C779 1.503 . S
C772 C771 1.410 . S
C772 C773 1.392 . S
C772 C775 1.511 . S
C773 C769 1.376 . S
C773 C772 1.392 . S
C773 H785 0.929 . S
C774 C770 1.531 . S
C774 H786 0.960 . S
C774 H787 0.962 . S
C774 H788 0.960 . S
C775 C772 1.511 . S
C775 H789 0.961 . S
C775 H790 0.961 . S
C775 H791 0.961 . S
C776 C777 1.370 . S
C776 C778 1.363 . S
C776 H792 0.931 . S
C777 C776 1.370 . S
C777 C781 1.408 . S
C778 C776 1.363 . S
C778 C779 1.370 . S
C778 C782 1.524 . S
C779 C771 1.503 . S
C779 C778 1.370 . S
C779 C780 1.403 . S
C780 C779 1.403 . S
C780 C781 1.404 . S
C780 C783 1.539 . S
C781 C777 1.408 . S
C781 C780 1.404 . S
C781 H793 0.930 . S
C782 C778 1.524 . S
C782 H794 0.956 . S
C782 H795 0.961 . S
C782 H796 0.961 . S
C783 C780 1.539 . S
C783 H797 0.958 . S
C783 H798 0.961 . S
C783 H799 0.960 . S
H784 C768 0.931 . S
H785 C773 0.929 . S
H786 C774 0.960 . S
H787 C774 0.962 . S
H788 C774 0.960 . S
H789 C775 0.961 . S
H790 C775 0.961 . S
H791 C775 0.961 . S
H792 C776 0.931 . S
H793 C781 0.930 . S
H794 C782 0.956 . S
H795 C782 0.961 . S
H796 C782 0.961 . S
H797 C783 0.958 . S
H798 C783 0.961 . S
H799 C783 0.960 . S
C800 C801 1.391 . S
C800 C802 1.394 . S
C800 H816 0.931 . S
C801 C800 1.391 . S
C801 C805 1.376 . S
C802 C800 1.394 . S
C802 C803 1.369 . S
C802 C806 1.531 . S
C803 C802 1.369 . S
C803 C804 1.410 . S
C803 C811 1.503 . S
C804 C803 1.410 . S
C804 C805 1.392 . S
C804 C807 1.511 . S
C805 C801 1.376 . S
C805 C804 1.392 . S
C805 H817 0.929 . S
C806 C802 1.531 . S
C806 H818 0.960 . S
C806 H819 0.962 . S
C806 H820 0.960 . S
C807 C804 1.511 . S
C807 H821 0.961 . S
C807 H822 0.961 . S
C807 H823 0.961 . S
C808 C809 1.370 . S
C808 C810 1.363 . S
C808 H824 0.931 . S
C809 C808 1.370 . S
C809 C813 1.408 . S
C810 C808 1.363 . S
C810 C811 1.370 . S
C810 C814 1.524 . S
C811 C803 1.503 . S
C811 C810 1.370 . S
C811 C812 1.403 . S
C812 C811 1.403 . S
C812 C813 1.404 . S
C812 C815 1.539 . S
C813 C809 1.408 . S
C813 C812 1.404 . S
C813 H825 0.930 . S
C814 C810 1.524 . S
C814 H826 0.956 . S
C814 H827 0.961 . S
C814 H828 0.961 . S
C815 C812 1.539 . S
C815 H829 0.958 . S
C815 H830 0.961 . S
C815 H831 0.960 . S
H816 C800 0.931 . S
H817 C805 0.929 . S
H818 C806 0.960 . S
H819 C806 0.962 . S
H820 C806 0.960 . S
H821 C807 0.961 . S
H822 C807 0.961 . S
H823 C807 0.961 . S
H824 C808 0.931 . S
H825 C813 0.930 . S
H826 C814 0.956 . S
H827 C814 0.961 . S
H828 C814 0.961 . S
H829 C815 0.958 . S
H830 C815 0.961 . S
H831 C815 0.960 . S
C832 C833 1.391 . S
C832 C834 1.394 . S
C832 H848 0.931 . S
C833 C832 1.391 . S
C833 C837 1.376 . S
C834 C832 1.394 . S
C834 C835 1.369 . S
C834 C838 1.531 . S
C835 C834 1.369 . S
C835 C836 1.410 . S
C835 C843 1.503 . S
C836 C835 1.410 . S
C836 C837 1.392 . S
C836 C839 1.511 . S
C837 C833 1.376 . S
C837 C836 1.392 . S
C837 H849 0.929 . S
C838 C834 1.531 . S
C838 H850 0.960 . S
C838 H851 0.962 . S
C838 H852 0.960 . S
C839 C836 1.511 . S
C839 H853 0.961 . S
C839 H854 0.961 . S
C839 H855 0.961 . S
C840 C841 1.370 . S
C840 C842 1.363 . S
C840 H856 0.931 . S
C841 C840 1.370 . S
C841 C845 1.408 . S
C842 C840 1.363 . S
C842 C843 1.370 . S
C842 C846 1.524 . S
C843 C835 1.503 . S
C843 C842 1.370 . S
C843 C844 1.403 . S
C844 C843 1.403 . S
C844 C845 1.404 . S
C844 C847 1.539 . S
C845 C841 1.408 . S
C845 C844 1.404 . S
C845 H857 0.930 . S
C846 C842 1.524 . S
C846 H858 0.956 . S
C846 H859 0.961 . S
C846 H860 0.961 . S
C847 C844 1.539 . S
C847 H861 0.958 . S
C847 H862 0.961 . S
C847 H863 0.960 . S
H848 C832 0.931 . S
H849 C837 0.929 . S
H850 C838 0.960 . S
H851 C838 0.962 . S
H852 C838 0.960 . S
H853 C839 0.961 . S
H854 C839 0.961 . S
H855 C839 0.961 . S
H856 C840 0.931 . S
H857 C845 0.930 . S
H858 C846 0.956 . S
H859 C846 0.961 . S
H860 C846 0.961 . S
H861 C847 0.958 . S
H862 C847 0.961 . S
H863 C847 0.960 . S
C864 C865 1.391 . S
C864 C866 1.394 . S
C864 H880 0.931 . S
C865 C864 1.391 . S
C865 C869 1.376 . S
C866 C864 1.394 . S
C866 C867 1.369 . S
C866 C870 1.531 . S
C867 C866 1.369 . S
C867 C868 1.410 . S
C867 C875 1.503 . S
C868 C867 1.410 . S
C868 C869 1.392 . S
C868 C871 1.511 . S
C869 C865 1.376 . S
C869 C868 1.392 . S
C869 H881 0.929 . S
C870 C866 1.531 . S
C870 H882 0.960 . S
C870 H883 0.962 . S
C870 H884 0.960 . S
C871 C868 1.511 . S
C871 H885 0.961 . S
C871 H886 0.961 . S
C871 H887 0.961 . S
C872 C873 1.370 . S
C872 C874 1.363 . S
C872 H888 0.931 . S
C873 C872 1.370 . S
C873 C877 1.408 . S
C874 C872 1.363 . S
C874 C875 1.370 . S
C874 C878 1.524 . S
C875 C867 1.503 . S
C875 C874 1.370 . S
C875 C876 1.403 . S
C876 C875 1.403 . S
C876 C877 1.404 . S
C876 C879 1.539 . S
C877 C873 1.408 . S
C877 C876 1.404 . S
C877 H889 0.930 . S
C878 C874 1.524 . S
C878 H890 0.956 . S
C878 H891 0.961 . S
C878 H892 0.961 . S
C879 C876 1.539 . S
C879 H893 0.958 . S
C879 H894 0.961 . S
C879 H895 0.960 . S
H880 C864 0.931 . S
H881 C869 0.929 . S
H882 C870 0.960 . S
H883 C870 0.962 . S
H884 C870 0.960 . S
H885 C871 0.961 . S
H886 C871 0.961 . S
H887 C871 0.961 . S
H888 C872 0.931 . S
H889 C877 0.930 . S
H890 C878 0.956 . S
H891 C878 0.961 . S
H892 C878 0.961 . S
H893 C879 0.958 . S
H894 C879 0.961 . S
H895 C879 0.960 . S
C896 C897 1.391 . S
C896 C898 1.394 . S
C896 H912 0.931 . S
C897 C896 1.391 . S
C897 C901 1.376 . S
C898 C896 1.394 . S
C898 C899 1.369 . S
C898 C902 1.531 . S
C899 C898 1.369 . S
C899 C900 1.410 . S
C899 C907 1.503 . S
C900 C899 1.410 . S
C900 C901 1.392 . S
C900 C903 1.511 . S
C901 C897 1.376 . S
C901 C900 1.392 . S
C901 H913 0.929 . S
C902 C898 1.531 . S
C902 H914 0.960 . S
C902 H915 0.962 . S
C902 H916 0.960 . S
C903 C900 1.511 . S
C903 H917 0.961 . S
C903 H918 0.961 . S
C903 H919 0.961 . S
C904 C905 1.370 . S
C904 C906 1.363 . S
C904 H920 0.931 . S
C905 C904 1.370 . S
C905 C909 1.408 . S
C906 C904 1.363 . S
C906 C907 1.370 . S
C906 C910 1.524 . S
C907 C899 1.503 . S
C907 C906 1.370 . S
C907 C908 1.403 . S
C908 C907 1.403 . S
C908 C909 1.404 . S
C908 C911 1.539 . S
C909 C905 1.408 . S
C909 C908 1.404 . S
C909 H921 0.930 . S
C910 C906 1.524 . S
C910 H922 0.956 . S
C910 H923 0.961 . S
C910 H924 0.961 . S
C911 C908 1.539 . S
C911 H925 0.958 . S
C911 H926 0.961 . S
C911 H927 0.960 . S
H912 C896 0.931 . S
H913 C901 0.929 . S
H914 C902 0.960 . S
H915 C902 0.962 . S
H916 C902 0.960 . S
H917 C903 0.961 . S
H918 C903 0.961 . S
H919 C903 0.961 . S
H920 C904 0.931 . S
H921 C909 0.930 . S
H922 C910 0.956 . S
H923 C910 0.961 . S
H924 C910 0.961 . S
H925 C911 0.958 . S
H926 C911 0.961 . S
H927 C911 0.960 . S
C928 C929 1.391 . S
C928 C930 1.394 . S
C928 H944 0.931 . S
C929 C928 1.391 . S
C929 C933 1.376 . S
C930 C928 1.394 . S
C930 C931 1.369 . S
C930 C934 1.531 . S
C931 C930 1.369 . S
C931 C932 1.410 . S
C931 C939 1.503 . S
C932 C931 1.410 . S
C932 C933 1.392 . S
C932 C935 1.511 . S
C933 C929 1.376 . S
C933 C932 1.392 . S
C933 H945 0.929 . S
C934 C930 1.531 . S
C934 H946 0.960 . S
C934 H947 0.962 . S
C934 H948 0.960 . S
C935 C932 1.511 . S
C935 H949 0.961 . S
C935 H950 0.961 . S
C935 H951 0.961 . S
C936 C937 1.370 . S
C936 C938 1.363 . S
C936 H952 0.931 . S
C937 C936 1.370 . S
C937 C941 1.408 . S
C938 C936 1.363 . S
C938 C939 1.370 . S
C938 C942 1.524 . S
C939 C931 1.503 . S
C939 C938 1.370 . S
C939 C940 1.403 . S
C940 C939 1.403 . S
C940 C941 1.404 . S
C940 C943 1.539 . S
C941 C937 1.408 . S
C941 C940 1.404 . S
C941 H953 0.930 . S
C942 C938 1.524 . S
C942 H954 0.956 . S
C942 H955 0.961 . S
C942 H956 0.961 . S
C943 C940 1.539 . S
C943 H957 0.958 . S
C943 H958 0.961 . S
C943 H959 0.960 . S
H944 C928 0.931 . S
H945 C933 0.929 . S
H946 C934 0.960 . S
H947 C934 0.962 . S
H948 C934 0.960 . S
H949 C935 0.961 . S
H950 C935 0.961 . S
H951 C935 0.961 . S
H952 C936 0.931 . S
H953 C941 0.930 . S
H954 C942 0.956 . S
H955 C942 0.961 . S
H956 C942 0.961 . S
H957 C943 0.958 . S
H958 C943 0.961 . S
H959 C943 0.960 . S
C960 C961 1.391 . S
C960 C962 1.394 . S
C960 H976 0.931 . S
C961 C960 1.391 . S
C961 C965 1.376 . S
C962 C960 1.394 . S
C962 C963 1.369 . S
C962 C966 1.531 . S
C963 C962 1.369 . S
C963 C964 1.410 . S
C963 C971 1.503 . S
C964 C963 1.410 . S
C964 C965 1.392 . S
C964 C967 1.511 . S
C965 C961 1.376 . S
C965 C964 1.392 . S
C965 H977 0.929 . S
C966 C962 1.531 . S
C966 H978 0.960 . S
C966 H979 0.962 . S
C966 H980 0.960 . S
C967 C964 1.511 . S
C967 H981 0.961 . S
C967 H982 0.961 . S
C967 H983 0.961 . S
C968 C969 1.370 . S
C968 C970 1.363 . S
C968 H984 0.931 . S
C969 C968 1.370 . S
C969 C973 1.408 . S
C970 C968 1.363 . S
C970 C971 1.370 . S
C970 C974 1.524 . S
C971 C963 1.503 . S
C971 C970 1.370 . S
C971 C972 1.403 . S
C972 C971 1.403 . S
C972 C973 1.404 . S
C972 C975 1.539 . S
C973 C969 1.408 . S
C973 C972 1.404 . S
C973 H985 0.930 . S
C974 C970 1.524 . S
C974 H986 0.956 . S
C974 H987 0.961 . S
C974 H988 0.961 . S
C975 C972 1.539 . S
C975 H989 0.958 . S
C975 H990 0.961 . S
C975 H991 0.960 . S
H976 C960 0.931 . S
H977 C965 0.929 . S
H978 C966 0.960 . S
H979 C966 0.962 . S
H980 C966 0.960 . S
H981 C967 0.961 . S
H982 C967 0.961 . S
H983 C967 0.961 . S
H984 C968 0.931 . S
H985 C973 0.930 . S
H986 C974 0.956 . S
H987 C974 0.961 . S
H988 C974 0.961 . S
H989 C975 0.958 . S
H990 C975 0.961 . S
H991 C975 0.960 . S
C992 C993 1.391 . S
C992 C994 1.394 . S
C992 H1008 0.931 . S
C993 C992 1.391 . S
C993 C997 1.376 . S
C994 C992 1.394 . S
C994 C995 1.369 . S
C994 C998 1.531 . S
C995 C994 1.369 . S
C995 C996 1.410 . S
C995 C1003 1.503 . S
C996 C995 1.410 . S
C996 C997 1.392 . S
C996 C999 1.511 . S
C997 C993 1.376 . S
C997 C996 1.392 . S
C997 H1009 0.929 . S
C998 C994 1.531 . S
C998 H1010 0.960 . S
C998 H1011 0.962 . S
C998 H1012 0.960 . S
C999 C996 1.511 . S
C999 H1013 0.961 . S
C999 H1014 0.961 . S
C999 H1015 0.961 . S
C1000 C1001 1.370 . S
C1000 C1002 1.363 . S
C1000 H1016 0.931 . S
C1001 C1000 1.370 . S
C1001 C1005 1.408 . S
C1002 C1000 1.363 . S
C1002 C1003 1.370 . S
C1002 C1006 1.524 . S
C1003 C995 1.503 . S
C1003 C1002 1.370 . S
C1003 C1004 1.403 . S
C1004 C1003 1.403 . S
C1004 C1005 1.404 . S
C1004 C1007 1.539 . S
C1005 C1001 1.408 . S
C1005 C1004 1.404 . S
C1005 H1017 0.930 . S
C1006 C1002 1.524 . S
C1006 H1018 0.956 . S
C1006 H1019 0.961 . S
C1006 H1020 0.961 . S
C1007 C1004 1.539 . S
C1007 H1021 0.958 . S
C1007 H1022 0.961 . S
C1007 H1023 0.960 . S
H1008 C992 0.931 . S
H1009 C997 0.929 . S
H1010 C998 0.960 . S
H1011 C998 0.962 . S
H1012 C998 0.960 . S
H1013 C999 0.961 . S
H1014 C999 0.961 . S
H1015 C999 0.961 . S
H1016 C1000 0.931 . S
H1017 C1005 0.930 . S
H1018 C1006 0.956 . S
H1019 C1006 0.961 . S
H1020 C1006 0.961 . S
H1021 C1007 0.958 . S
H1022 C1007 0.961 . S
H1023 C1007 0.960 . S
C1024 C1025 1.391 . S
C1024 C1026 1.394 . S
C1024 H1040 0.931 . S
C1025 C1024 1.391 . S
C1025 C1029 1.376 . S
C1026 C1024 1.394 . S
C1026 C1027 1.369 . S
C1026 C1030 1.531 . S
C1027 C1026 1.369 . S
C1027 C1028 1.410 . S
C1027 C1035 1.503 . S
C1028 C1027 1.410 . S
C1028 C1029 1.392 . S
C1028 C1031 1.511 . S
C1029 C1025 1.376 . S
C1029 C1028 1.392 . S
C1029 H1041 0.929 . S
C1030 C1026 1.531 . S
C1030 H1042 0.960 . S
C1030 H1043 0.962 . S
C1030 H1044 0.960 . S
C1031 C1028 1.511 . S
C1031 H1045 0.961 . S
C1031 H1046 0.961 . S
C1031 H1047 0.961 . S
C1032 C1033 1.370 . S
C1032 C1034 1.363 . S
C1032 H1048 0.931 . S
C1033 C1032 1.370 . S
C1033 C1037 1.408 . S
C1034 C1032 1.363 . S
C1034 C1035 1.370 . S
C1034 C1038 1.524 . S
C1035 C1027 1.503 . S
C1035 C1034 1.370 . S
C1035 C1036 1.403 . S
C1036 C1035 1.403 . S
C1036 C1037 1.404 . S
C1036 C1039 1.539 . S
C1037 C1033 1.408 . S
C1037 C1036 1.404 . S
C1037 H1049 0.930 . S
C1038 C1034 1.524 . S
C1038 H1050 0.956 . S
C1038 H1051 0.961 . S
C1038 H1052 0.961 . S
C1039 C1036 1.539 . S
C1039 H1053 0.958 . S
C1039 H1054 0.961 . S
C1039 H1055 0.960 . S
H1040 C1024 0.931 . S
H1041 C1029 0.929 . S
H1042 C1030 0.960 . S
H1043 C1030 0.962 . S
H1044 C1030 0.960 . S
H1045 C1031 0.961 . S
H1046 C1031 0.961 . S
H1047 C1031 0.961 . S
H1048 C1032 0.931 . S
H1049 C1037 0.930 . S
H1050 C1038 0.956 . S
H1051 C1038 0.961 . S
H1052 C1038 0.961 . S
H1053 C1039 0.958 . S
H1054 C1039 0.961 . S
H1055 C1039 0.960 . S
C1056 C1057 1.391 . S
C1056 C1058 1.394 . S
C1056 H1072 0.931 . S
C1057 C1056 1.391 . S
C1057 C1061 1.376 . S
C1058 C1056 1.394 . S
C1058 C1059 1.369 . S
C1058 C1062 1.531 . S
C1059 C1058 1.369 . S
C1059 C1060 1.410 . S
C1059 C1067 1.503 . S
C1060 C1059 1.410 . S
C1060 C1061 1.392 . S
C1060 C1063 1.511 . S
C1061 C1057 1.376 . S
C1061 C1060 1.392 . S
C1061 H1073 0.929 . S
C1062 C1058 1.531 . S
C1062 H1074 0.960 . S
C1062 H1075 0.962 . S
C1062 H1076 0.960 . S
C1063 C1060 1.511 . S
C1063 H1077 0.961 . S
C1063 H1078 0.961 . S
C1063 H1079 0.961 . S
C1064 C1065 1.370 . S
C1064 C1066 1.363 . S
C1064 H1080 0.931 . S
C1065 C1064 1.370 . S
C1065 C1069 1.408 . S
C1066 C1064 1.363 . S
C1066 C1067 1.370 . S
C1066 C1070 1.524 . S
C1067 C1059 1.503 . S
C1067 C1066 1.370 . S
C1067 C1068 1.403 . S
C1068 C1067 1.403 . S
C1068 C1069 1.404 . S
C1068 C1071 1.539 . S
C1069 C1065 1.408 . S
C1069 C1068 1.404 . S
C1069 H1081 0.930 . S
C1070 C1066 1.524 . S
C1070 H1082 0.956 . S
C1070 H1083 0.961 . S
C1070 H1084 0.961 . S
C1071 C1068 1.539 . S
C1071 H1085 0.958 . S
C1071 H1086 0.961 . S
C1071 H1087 0.960 . S
H1072 C1056 0.931 . S
H1073 C1061 0.929 . S
H1074 C1062 0.960 . S
H1075 C1062 0.962 . S
H1076 C1062 0.960 . S
H1077 C1063 0.961 . S
H1078 C1063 0.961 . S
H1079 C1063 0.961 . S
H1080 C1064 0.931 . S
H1081 C1069 0.930 . S
H1082 C1070 0.956 . S
H1083 C1070 0.961 . S
H1084 C1070 0.961 . S
H1085 C1071 0.958 . S
H1086 C1071 0.961 . S
H1087 C1071 0.960 . S
C1088 C1089 1.391 . S
C1088 C1090 1.394 . S
C1088 H1104 0.931 . S
C1089 C1088 1.391 . S
C1089 C1093 1.376 . S
C1090 C1088 1.394 . S
C1090 C1091 1.369 . S
C1090 C1094 1.531 . S
C1091 C1090 1.369 . S
C1091 C1092 1.410 . S
C1091 C1099 1.503 . S
C1092 C1091 1.410 . S
C1092 C1093 1.392 . S
C1092 C1095 1.511 . S
C1093 C1089 1.376 . S
C1093 C1092 1.392 . S
C1093 H1105 0.929 . S
C1094 C1090 1.531 . S
C1094 H1106 0.960 . S
C1094 H1107 0.962 . S
C1094 H1108 0.960 . S
C1095 C1092 1.511 . S
C1095 H1109 0.961 . S
C1095 H1110 0.961 . S
C1095 H1111 0.961 . S
C1096 C1097 1.370 . S
C1096 C1098 1.363 . S
C1096 H1112 0.931 . S
C1097 C1096 1.370 . S
C1097 C1101 1.408 . S
C1098 C1096 1.363 . S
C1098 C1099 1.370 . S
C1098 C1102 1.524 . S
C1099 C1091 1.503 . S
C1099 C1098 1.370 . S
C1099 C1100 1.403 . S
C1100 C1099 1.403 . S
C1100 C1101 1.404 . S
C1100 C1103 1.539 . S
C1101 C1097 1.408 . S
C1101 C1100 1.404 . S
C1101 H1113 0.930 . S
C1102 C1098 1.524 . S
C1102 H1114 0.956 . S
C1102 H1115 0.961 . S
C1102 H1116 0.961 . S
C1103 C1100 1.539 . S
C1103 H1117 0.958 . S
C1103 H1118 0.961 . S
C1103 H1119 0.960 . S
H1104 C1088 0.931 . S
H1105 C1093 0.929 . S
H1106 C1094 0.960 . S
H1107 C1094 0.962 . S
H1108 C1094 0.960 . S
H1109 C1095 0.961 . S
H1110 C1095 0.961 . S
H1111 C1095 0.961 . S
H1112 C1096 0.931 . S
H1113 C1101 0.930 . S
H1114 C1102 0.956 . S
H1115 C1102 0.961 . S
H1116 C1102 0.961 . S
H1117 C1103 0.958 . S
H1118 C1103 0.961 . S
H1119 C1103 0.960 . S
C1120 C1121 1.391 . S
C1120 C1122 1.394 . S
C1120 H1136 0.931 . S
C1121 C1120 1.391 . S
C1121 C1125 1.376 . S
C1122 C1120 1.394 . S
C1122 C1123 1.369 . S
C1122 C1126 1.531 . S
C1123 C1122 1.369 . S
C1123 C1124 1.410 . S
C1123 C1131 1.503 . S
C1124 C1123 1.410 . S
C1124 C1125 1.392 . S
C1124 C1127 1.511 . S
C1125 C1121 1.376 . S
C1125 C1124 1.392 . S
C1125 H1137 0.929 . S
C1126 C1122 1.531 . S
C1126 H1138 0.960 . S
C1126 H1139 0.962 . S
C1126 H1140 0.960 . S
C1127 C1124 1.511 . S
C1127 H1141 0.961 . S
C1127 H1142 0.961 . S
C1127 H1143 0.961 . S
C1128 C1129 1.370 . S
C1128 C1130 1.363 . S
C1128 H1144 0.931 . S
C1129 C1128 1.370 . S
C1129 C1133 1.408 . S
C1130 C1128 1.363 . S
C1130 C1131 1.370 . S
C1130 C1134 1.524 . S
C1131 C1123 1.503 . S
C1131 C1130 1.370 . S
C1131 C1132 1.403 . S
C1132 C1131 1.403 . S
C1132 C1133 1.404 . S
C1132 C1135 1.539 . S
C1133 C1129 1.408 . S
C1133 C1132 1.404 . S
C1133 H1145 0.930 . S
C1134 C1130 1.524 . S
C1134 H1146 0.956 . S
C1134 H1147 0.961 . S
C1134 H1148 0.961 . S
C1135 C1132 1.539 . S
C1135 H1149 0.958 . S
C1135 H1150 0.961 . S
C1135 H1151 0.960 . S
H1136 C1120 0.931 . S
H1137 C1125 0.929 . S
H1138 C1126 0.960 . S
H1139 C1126 0.962 . S
H1140 C1126 0.960 . S
H1141 C1127 0.961 . S
H1142 C1127 0.961 . S
H1143 C1127 0.961 . S
H1144 C1128 0.931 . S
H1145 C1133 0.930 . S
H1146 C1134 0.956 . S
H1147 C1134 0.961 . S
H1148 C1134 0.961 . S
H1149 C1135 0.958 . S
H1150 C1135 0.961 . S
H1151 C1135 0.960 . S
C1152 C1153 1.391 . S
C1152 C1154 1.394 . S
C1152 H1168 0.931 . S
C1153 C1152 1.391 . S
C1153 C1157 1.376 . S
C1154 C1152 1.394 . S
C1154 C1155 1.369 . S
C1154 C1158 1.531 . S
C1155 C1154 1.369 . S
C1155 C1156 1.410 . S
C1155 C1163 1.503 . S
C1156 C1155 1.410 . S
C1156 C1157 1.392 . S
C1156 C1159 1.511 . S
C1157 C1153 1.376 . S
C1157 C1156 1.392 . S
C1157 H1169 0.929 . S
C1158 C1154 1.531 . S
C1158 H1170 0.960 . S
C1158 H1171 0.962 . S
C1158 H1172 0.960 . S
C1159 C1156 1.511 . S
C1159 H1173 0.961 . S
C1159 H1174 0.961 . S
C1159 H1175 0.961 . S
C1160 C1161 1.370 . S
C1160 C1162 1.363 . S
C1160 H1176 0.931 . S
C1161 C1160 1.370 . S
C1161 C1165 1.408 . S
C1162 C1160 1.363 . S
C1162 C1163 1.370 . S
C1162 C1166 1.524 . S
C1163 C1155 1.503 . S
C1163 C1162 1.370 . S
C1163 C1164 1.403 . S
C1164 C1163 1.403 . S
C1164 C1165 1.404 . S
C1164 C1167 1.539 . S
C1165 C1161 1.408 . S
C1165 C1164 1.404 . S
C1165 H1177 0.930 . S
C1166 C1162 1.524 . S
C1166 H1178 0.956 . S
C1166 H1179 0.961 . S
C1166 H1180 0.961 . S
C1167 C1164 1.539 . S
C1167 H1181 0.958 . S
C1167 H1182 0.961 . S
C1167 H1183 0.960 . S
H1168 C1152 0.931 . S
H1169 C1157 0.929 . S
H1170 C1158 0.960 . S
H1171 C1158 0.962 . S
H1172 C1158 0.960 . S
H1173 C1159 0.961 . S
H1174 C1159 0.961 . S
H1175 C1159 0.961 . S
H1176 C1160 0.931 . S
H1177 C1165 0.930 . S
H1178 C1166 0.956 . S
H1179 C1166 0.961 . S
H1180 C1166 0.961 . S
H1181 C1167 0.958 . S
H1182 C1167 0.961 . S
H1183 C1167 0.960 . S
C1184 C1185 1.391 . S
C1184 C1186 1.394 . S
C1184 H1200 0.931 . S
C1185 C1184 1.391 . S
C1185 C1189 1.376 . S
C1186 C1184 1.394 . S
C1186 C1187 1.369 . S
C1186 C1190 1.531 . S
C1187 C1186 1.369 . S
C1187 C1188 1.410 . S
C1187 C1195 1.503 . S
C1188 C1187 1.410 . S
C1188 C1189 1.392 . S
C1188 C1191 1.511 . S
C1189 C1185 1.376 . S
C1189 C1188 1.392 . S
C1189 H1201 0.929 . S
C1190 C1186 1.531 . S
C1190 H1202 0.960 . S
C1190 H1203 0.962 . S
C1190 H1204 0.960 . S
C1191 C1188 1.511 . S
C1191 H1205 0.961 . S
C1191 H1206 0.961 . S
C1191 H1207 0.961 . S
C1192 C1193 1.370 . S
C1192 C1194 1.363 . S
C1192 H1208 0.931 . S
C1193 C1192 1.370 . S
C1193 C1197 1.408 . S
C1194 C1192 1.363 . S
C1194 C1195 1.370 . S
C1194 C1198 1.524 . S
C1195 C1187 1.503 . S
C1195 C1194 1.370 . S
C1195 C1196 1.403 . S
C1196 C1195 1.403 . S
C1196 C1197 1.404 . S
C1196 C1199 1.539 . S
C1197 C1193 1.408 . S
C1197 C1196 1.404 . S
C1197 H1209 0.930 . S
C1198 C1194 1.524 . S
C1198 H1210 0.956 . S
C1198 H1211 0.961 . S
C1198 H1212 0.961 . S
C1199 C1196 1.539 . S
C1199 H1213 0.958 . S
C1199 H1214 0.961 . S
C1199 H1215 0.960 . S
H1200 C1184 0.931 . S
H1201 C1189 0.929 . S
H1202 C1190 0.960 . S
H1203 C1190 0.962 . S
H1204 C1190 0.960 . S
H1205 C1191 0.961 . S
H1206 C1191 0.961 . S
H1207 C1191 0.961 . S
H1208 C1192 0.931 . S
H1209 C1197 0.930 . S
H1210 C1198 0.956 . S
H1211 C1198 0.961 . S
H1212 C1198 0.961 . S
H1213 C1199 0.958 . S
H1214 C1199 0.961 . S
H1215 C1199 0.960 . S
C1216 C1217 1.391 . S
C1216 C1218 1.394 . S
C1216 H1232 0.931 . S
C1217 C1216 1.391 . S
C1217 C1221 1.376 . S
C1218 C1216 1.394 . S
C1218 C1219 1.369 . S
C1218 C1222 1.531 . S
C1219 C1218 1.369 . S
C1219 C1220 1.410 . S
C1219 C1227 1.503 . S
C1220 C1219 1.410 . S
C1220 C1221 1.392 . S
C1220 C1223 1.511 . S
C1221 C1217 1.376 . S
C1221 C1220 1.392 . S
C1221 H1233 0.929 . S
C1222 C1218 1.531 . S
C1222 H1234 0.960 . S
C1222 H1235 0.962 . S
C1222 H1236 0.960 . S
C1223 C1220 1.511 . S
C1223 H1237 0.961 . S
C1223 H1238 0.961 . S
C1223 H1239 0.961 . S
C1224 C1225 1.370 . S
C1224 C1226 1.363 . S
C1224 H1240 0.931 . S
C1225 C1224 1.370 . S
C1225 C1229 1.408 . S
C1226 C1224 1.363 . S
C1226 C1227 1.370 . S
C1226 C1230 1.524 . S
C1227 C1219 1.503 . S
C1227 C1226 1.370 . S
C1227 C1228 1.403 . S
C1228 C1227 1.403 . S
C1228 C1229 1.404 . S
C1228 C1231 1.539 . S
C1229 C1225 1.408 . S
C1229 C1228 1.404 . S
C1229 H1241 0.930 . S
C1230 C1226 1.524 . S
C1230 H1242 0.956 . S
C1230 H1243 0.961 . S
C1230 H1244 0.961 . S
C1231 C1228 1.539 . S
C1231 H1245 0.958 . S
C1231 H1246 0.961 . S
C1231 H1247 0.960 . S
H1232 C1216 0.931 . S
H1233 C1221 0.929 . S
H1234 C1222 0.960 . S
H1235 C1222 0.962 . S
H1236 C1222 0.960 . S
H1237 C1223 0.961 . S
H1238 C1223 0.961 . S
H1239 C1223 0.961 . S
H1240 C1224 0.931 . S
H1241 C1229 0.930 . S
H1242 C1230 0.956 . S
H1243 C1230 0.961 . S
H1244 C1230 0.961 . S
H1245 C1231 0.958 . S
H1246 C1231 0.961 . S
H1247 C1231 0.960 . S
C1248 C1249 1.391 . S
C1248 C1250 1.394 . S
C1248 H1264 0.931 . S
C1249 C1248 1.391 . S
C1249 C1253 1.376 . S
C1250 C1248 1.394 . S
C1250 C1251 1.369 . S
C1250 C1254 1.531 . S
C1251 C1250 1.369 . S
C1251 C1252 1.410 . S
C1251 C1259 1.503 . S
C1252 C1251 1.410 . S
C1252 C1253 1.392 . S
C1252 C1255 1.511 . S
C1253 C1249 1.376 . S
C1253 C1252 1.392 . S
C1253 H1265 0.929 . S
C1254 C1250 1.531 . S
C1254 H1266 0.960 . S
C1254 H1267 0.962 . S
C1254 H1268 0.960 . S
C1255 C1252 1.511 . S
C1255 H1269 0.961 . S
C1255 H1270 0.961 . S
C1255 H1271 0.961 . S
C1256 C1257 1.370 . S
C1256 C1258 1.363 . S
C1256 H1272 0.931 . S
C1257 C1256 1.370 . S
C1257 C1261 1.408 . S
C1258 C1256 1.363 . S
C1258 C1259 1.370 . S
C1258 C1262 1.524 . S
C1259 C1251 1.503 . S
C1259 C1258 1.370 . S
C1259 C1260 1.403 . S
C1260 C1259 1.403 . S
C1260 C1261 1.404 . S
C1260 C1263 1.539 . S
C1261 C1257 1.408 . S
C1261 C1260 1.404 . S
C1261 H1273 0.930 . S
C1262 C1258 1.524 . S
C1262 H1274 0.956 . S
C1262 H1275 0.961 . S
C1262 H1276 0.961 . S
C1263 C1260 1.539 . S
C1263 H1277 0.958 . S
C1263 H1278 0.961 . S
C1263 H1279 0.960 . S
H1264 C1248 0.931 . S
H1265 C1253 0.929 . S
H1266 C1254 0.960 . S
H1267 C1254 0.962 . S
H1268 C1254 0.960 . S
H1269 C1255 0.961 . S
H1270 C1255 0.961 . S
H1271 C1255 0.961 . S
H1272 C1256 0.931 . S
H1273 C1261 0.930 . S
H1274 C1262 0.956 . S
H1275 C1262 0.961 . S
H1276 C1262 0.961 . S
H1277 C1263 0.958 . S
H1278 C1263 0.961 . S
H1279 C1263 0.960 . S
C1280 C1281 1.391 . S
C1280 C1282 1.394 . S
C1280 H1296 0.931 . S
C1281 C1280 1.391 . S
C1281 C1285 1.376 . S
C1282 C1280 1.394 . S
C1282 C1283 1.369 . S
C1282 C1286 1.531 . S
C1283 C1282 1.369 . S
C1283 C1284 1.410 . S
C1283 C1291 1.503 . S
C1284 C1283 1.410 . S
C1284 C1285 1.392 . S
C1284 C1287 1.511 . S
C1285 C1281 1.376 . S
C1285 C1284 1.392 . S
C1285 H1297 0.929 . S
C1286 C1282 1.531 . S
C1286 H1298 0.960 . S
C1286 H1299 0.962 . S
C1286 H1300 0.960 . S
C1287 C1284 1.511 . S
C1287 H1301 0.961 . S
C1287 H1302 0.961 . S
C1287 H1303 0.961 . S
C1288 C1289 1.370 . S
C1288 C1290 1.363 . S
C1288 H1304 0.931 . S
C1289 C1288 1.370 . S
C1289 C1293 1.408 . S
C1290 C1288 1.363 . S
C1290 C1291 1.370 . S
C1290 C1294 1.524 . S
C1291 C1283 1.503 . S
C1291 C1290 1.370 . S
C1291 C1292 1.403 . S
C1292 C1291 1.403 . S
C1292 C1293 1.404 . S
C1292 C1295 1.539 . S
C1293 C1289 1.408 . S
C1293 C1292 1.404 . S
C1293 H1305 0.930 . S
C1294 C1290 1.524 . S
C1294 H1306 0.956 . S
C1294 H1307 0.961 . S
C1294 H1308 0.961 . S
C1295 C1292 1.539 . S
C1295 H1309 0.958 . S
C1295 H1310 0.961 . S
C1295 H1311 0.960 . S
H1296 C1280 0.931 . S
H1297 C1285 0.929 . S
H1298 C1286 0.960 . S
H1299 C1286 0.962 . S
H1300 C1286 0.960 . S
H1301 C1287 0.961 . S
H1302 C1287 0.961 . S
H1303 C1287 0.961 . S
H1304 C1288 0.931 . S
H1305 C1293 0.930 . S
H1306 C1294 0.956 . S
H1307 C1294 0.961 . S
H1308 C1294 0.961 . S
H1309 C1295 0.958 . S
H1310 C1295 0.961 . S
H1311 C1295 0.960 . S
C1312 C1313 1.391 . S
C1312 C1314 1.394 . S
C1312 H1328 0.931 . S
C1313 C1312 1.391 . S
C1313 C1317 1.376 . S
C1314 C1312 1.394 . S
C1314 C1315 1.369 . S
C1314 C1318 1.531 . S
C1315 C1314 1.369 . S
C1315 C1316 1.410 . S
C1315 C1323 1.503 . S
C1316 C1315 1.410 . S
C1316 C1317 1.392 . S
C1316 C1319 1.511 . S
C1317 C1313 1.376 . S
C1317 C1316 1.392 . S
C1317 H1329 0.929 . S
C1318 C1314 1.531 . S
C1318 H1330 0.960 . S
C1318 H1331 0.962 . S
C1318 H1332 0.960 . S
C1319 C1316 1.511 . S
C1319 H1333 0.961 . S
C1319 H1334 0.961 . S
C1319 H1335 0.961 . S
C1320 C1321 1.370 . S
C1320 C1322 1.363 . S
C1320 H1336 0.931 . S
C1321 C1320 1.370 . S
C1321 C1325 1.408 . S
C1322 C1320 1.363 . S
C1322 C1323 1.370 . S
C1322 C1326 1.524 . S
C1323 C1315 1.503 . S
C1323 C1322 1.370 . S
C1323 C1324 1.403 . S
C1324 C1323 1.403 . S
C1324 C1325 1.404 . S
C1324 C1327 1.539 . S
C1325 C1321 1.408 . S
C1325 C1324 1.404 . S
C1325 H1337 0.930 . S
C1326 C1322 1.524 . S
C1326 H1338 0.956 . S
C1326 H1339 0.961 . S
C1326 H1340 0.961 . S
C1327 C1324 1.539 . S
C1327 H1341 0.958 . S
C1327 H1342 0.961 . S
C1327 H1343 0.960 . S
H1328 C1312 0.931 . S
H1329 C1317 0.929 . S
H1330 C1318 0.960 . S
H1331 C1318 0.962 . S
H1332 C1318 0.960 . S
H1333 C1319 0.961 . S
H1334 C1319 0.961 . S
H1335 C1319 0.961 . S
H1336 C1320 0.931 . S
H1337 C1325 0.930 . S
H1338 C1326 0.956 . S
H1339 C1326 0.961 . S
H1340 C1326 0.961 . S
H1341 C1327 0.958 . S
H1342 C1327 0.961 . S
H1343 C1327 0.960 . S
C1344 C1345 1.391 . S
C1344 C1346 1.394 . S
C1344 H1360 0.931 . S
C1345 C1344 1.391 . S
C1345 C1349 1.376 . S
C1346 C1344 1.394 . S
C1346 C1347 1.369 . S
C1346 C1350 1.531 . S
C1347 C1346 1.369 . S
C1347 C1348 1.410 . S
C1347 C1355 1.503 . S
C1348 C1347 1.410 . S
C1348 C1349 1.392 . S
C1348 C1351 1.511 . S
C1349 C1345 1.376 . S
C1349 C1348 1.392 . S
C1349 H1361 0.929 . S
C1350 C1346 1.531 . S
C1350 H1362 0.960 . S
C1350 H1363 0.962 . S
C1350 H1364 0.960 . S
C1351 C1348 1.511 . S
C1351 H1365 0.961 . S
C1351 H1366 0.961 . S
C1351 H1367 0.961 . S
C1352 C1353 1.370 . S
C1352 C1354 1.363 . S
C1352 H1368 0.931 . S
C1353 C1352 1.370 . S
C1353 C1357 1.408 . S
C1354 C1352 1.363 . S
C1354 C1355 1.370 . S
C1354 C1358 1.524 . S
C1355 C1347 1.503 . S
C1355 C1354 1.370 . S
C1355 C1356 1.403 . S
C1356 C1355 1.403 . S
C1356 C1357 1.404 . S
C1356 C1359 1.539 . S
C1357 C1353 1.408 . S
C1357 C1356 1.404 . S
C1357 H1369 0.930 . S
C1358 C1354 1.524 . S
C1358 H1370 0.956 . S
C1358 H1371 0.961 . S
C1358 H1372 0.961 . S
C1359 C1356 1.539 . S
C1359 H1373 0.958 . S
C1359 H1374 0.961 . S
C1359 H1375 0.960 . S
H1360 C1344 0.931 . S
H1361 C1349 0.929 . S
H1362 C1350 0.960 . S
H1363 C1350 0.962 . S
H1364 C1350 0.960 . S
H1365 C1351 0.961 . S
H1366 C1351 0.961 . S
H1367 C1351 0.961 . S
H1368 C1352 0.931 . S
H1369 C1357 0.930 . S
H1370 C1358 0.956 . S
H1371 C1358 0.961 . S
H1372 C1358 0.961 . S
H1373 C1359 0.958 . S
H1374 C1359 0.961 . S
H1375 C1359 0.960 . S
C1376 C1377 1.391 . S
C1376 C1378 1.394 . S
C1376 H1392 0.931 . S
C1377 C1376 1.391 . S
C1377 C1381 1.376 . S
C1378 C1376 1.394 . S
C1378 C1379 1.369 . S
C1378 C1382 1.531 . S
C1379 C1378 1.369 . S
C1379 C1380 1.410 . S
C1379 C1387 1.503 . S
C1380 C1379 1.410 . S
C1380 C1381 1.392 . S
C1380 C1383 1.511 . S
C1381 C1377 1.376 . S
C1381 C1380 1.392 . S
C1381 H1393 0.929 . S
C1382 C1378 1.531 . S
C1382 H1394 0.960 . S
C1382 H1395 0.962 . S
C1382 H1396 0.960 . S
C1383 C1380 1.511 . S
C1383 H1397 0.961 . S
C1383 H1398 0.961 . S
C1383 H1399 0.961 . S
C1384 C1385 1.370 . S
C1384 C1386 1.363 . S
C1384 H1400 0.931 . S
C1385 C1384 1.370 . S
C1385 C1389 1.408 . S
C1386 C1384 1.363 . S
C1386 C1387 1.370 . S
C1386 C1390 1.524 . S
C1387 C1379 1.503 . S
C1387 C1386 1.370 . S
C1387 C1388 1.403 . S
C1388 C1387 1.403 . S
C1388 C1389 1.404 . S
C1388 C1391 1.539 . S
C1389 C1385 1.408 . S
C1389 C1388 1.404 . S
C1389 H1401 0.930 . S
C1390 C1386 1.524 . S
C1390 H1402 0.956 . S
C1390 H1403 0.961 . S
C1390 H1404 0.961 . S
C1391 C1388 1.539 . S
C1391 H1405 0.958 . S
C1391 H1406 0.961 . S
C1391 H1407 0.960 . S
H1392 C1376 0.931 . S
H1393 C1381 0.929 . S
H1394 C1382 0.960 . S
H1395 C1382 0.962 . S
H1396 C1382 0.960 . S
H1397 C1383 0.961 . S
H1398 C1383 0.961 . S
H1399 C1383 0.961 . S
H1400 C1384 0.931 . S
H1401 C1389 0.930 . S
H1402 C1390 0.956 . S
H1403 C1390 0.961 . S
H1404 C1390 0.961 . S
H1405 C1391 0.958 . S
H1406 C1391 0.961 . S
H1407 C1391 0.960 . S
C1408 C1409 1.391 . S
C1408 C1410 1.394 . S
C1408 H1424 0.931 . S
C1409 C1408 1.391 . S
C1409 C1413 1.376 . S
C1410 C1408 1.394 . S
C1410 C1411 1.369 . S
C1410 C1414 1.531 . S
C1411 C1410 1.369 . S
C1411 C1412 1.410 . S
C1411 C1419 1.503 . S
C1412 C1411 1.410 . S
C1412 C1413 1.392 . S
C1412 C1415 1.511 . S
C1413 C1409 1.376 . S
C1413 C1412 1.392 . S
C1413 H1425 0.929 . S
C1414 C1410 1.531 . S
C1414 H1426 0.960 . S
C1414 H1427 0.962 . S
C1414 H1428 0.960 . S
C1415 C1412 1.511 . S
C1415 H1429 0.961 . S
C1415 H1430 0.961 . S
C1415 H1431 0.961 . S
C1416 C1417 1.370 . S
C1416 C1418 1.363 . S
C1416 H1432 0.931 . S
C1417 C1416 1.370 . S
C1417 C1421 1.408 . S
C1418 C1416 1.363 . S
C1418 C1419 1.370 . S
C1418 C1422 1.524 . S
C1419 C1411 1.503 . S
C1419 C1418 1.370 . S
C1419 C1420 1.403 . S
C1420 C1419 1.403 . S
C1420 C1421 1.404 . S
C1420 C1423 1.539 . S
C1421 C1417 1.408 . S
C1421 C1420 1.404 . S
C1421 H1433 0.930 . S
C1422 C1418 1.524 . S
C1422 H1434 0.956 . S
C1422 H1435 0.961 . S
C1422 H1436 0.961 . S
C1423 C1420 1.539 . S
C1423 H1437 0.958 . S
C1423 H1438 0.961 . S
C1423 H1439 0.960 . S
H1424 C1408 0.931 . S
H1425 C1413 0.929 . S
H1426 C1414 0.960 . S
H1427 C1414 0.962 . S
H1428 C1414 0.960 . S
H1429 C1415 0.961 . S
H1430 C1415 0.961 . S
H1431 C1415 0.961 . S
H1432 C1416 0.931 . S
H1433 C1421 0.930 . S
H1434 C1422 0.956 . S
H1435 C1422 0.961 . S
H1436 C1422 0.961 . S
H1437 C1423 0.958 . S
H1438 C1423 0.961 . S
H1439 C1423 0.960 . S
C1440 C1441 1.391 . S
C1440 C1442 1.394 . S
C1440 H1456 0.931 . S
C1441 C1440 1.391 . S
C1441 C1445 1.376 . S
C1442 C1440 1.394 . S
C1442 C1443 1.369 . S
C1442 C1446 1.531 . S
C1443 C1442 1.369 . S
C1443 C1444 1.410 . S
C1443 C1451 1.503 . S
C1444 C1443 1.410 . S
C1444 C1445 1.392 . S
C1444 C1447 1.511 . S
C1445 C1441 1.376 . S
C1445 C1444 1.392 . S
C1445 H1457 0.929 . S
C1446 C1442 1.531 . S
C1446 H1458 0.960 . S
C1446 H1459 0.962 . S
C1446 H1460 0.960 . S
C1447 C1444 1.511 . S
C1447 H1461 0.961 . S
C1447 H1462 0.961 . S
C1447 H1463 0.961 . S
C1448 C1449 1.370 . S
C1448 C1450 1.363 . S
C1448 H1464 0.931 . S
C1449 C1448 1.370 . S
C1449 C1453 1.408 . S
C1450 C1448 1.363 . S
C1450 C1451 1.370 . S
C1450 C1454 1.524 . S
C1451 C1443 1.503 . S
C1451 C1450 1.370 . S
C1451 C1452 1.403 . S
C1452 C1451 1.403 . S
C1452 C1453 1.404 . S
C1452 C1455 1.539 . S
C1453 C1449 1.408 . S
C1453 C1452 1.404 . S
C1453 H1465 0.930 . S
C1454 C1450 1.524 . S
C1454 H1466 0.956 . S
C1454 H1467 0.961 . S
C1454 H1468 0.961 . S
C1455 C1452 1.539 . S
C1455 H1469 0.958 . S
C1455 H1470 0.961 . S
C1455 H1471 0.960 . S
H1456 C1440 0.931 . S
H1457 C1445 0.929 . S
H1458 C1446 0.960 . S
H1459 C1446 0.962 . S
H1460 C1446 0.960 . S
H1461 C1447 0.961 . S
H1462 C1447 0.961 . S
H1463 C1447 0.961 . S
H1464 C1448 0.931 . S
H1465 C1453 0.930 . S
H1466 C1454 0.956 . S
H1467 C1454 0.961 . S
H1468 C1454 0.961 . S
H1469 C1455 0.958 . S
H1470 C1455 0.961 . S
H1471 C1455 0.960 . S
C1472 C1473 1.391 . S
C1472 C1474 1.394 . S
C1472 H1488 0.931 . S
C1473 C1472 1.391 . S
C1473 C1477 1.376 . S
C1474 C1472 1.394 . S
C1474 C1475 1.369 . S
C1474 C1478 1.531 . S
C1475 C1474 1.369 . S
C1475 C1476 1.410 . S
C1475 C1483 1.503 . S
C1476 C1475 1.410 . S
C1476 C1477 1.392 . S
C1476 C1479 1.511 . S
C1477 C1473 1.376 . S
C1477 C1476 1.392 . S
C1477 H1489 0.929 . S
C1478 C1474 1.531 . S
C1478 H1490 0.960 . S
C1478 H1491 0.962 . S
C1478 H1492 0.960 . S
C1479 C1476 1.511 . S
C1479 H1493 0.961 . S
C1479 H1494 0.961 . S
C1479 H1495 0.961 . S
C1480 C1481 1.370 . S
C1480 C1482 1.363 . S
C1480 H1496 0.931 . S
C1481 C1480 1.370 . S
C1481 C1485 1.408 . S
C1482 C1480 1.363 . S
C1482 C1483 1.370 . S
C1482 C1486 1.524 . S
C1483 C1475 1.503 . S
C1483 C1482 1.370 . S
C1483 C1484 1.403 . S
C1484 C1483 1.403 . S
C1484 C1485 1.404 . S
C1484 C1487 1.539 . S
C1485 C1481 1.408 . S
C1485 C1484 1.404 . S
C1485 H1497 0.930 . S
C1486 C1482 1.524 . S
C1486 H1498 0.956 . S
C1486 H1499 0.961 . S
C1486 H1500 0.961 . S
C1487 C1484 1.539 . S
C1487 H1501 0.958 . S
C1487 H1502 0.961 . S
C1487 H1503 0.960 . S
H1488 C1472 0.931 . S
H1489 C1477 0.929 . S
H1490 C1478 0.960 . S
H1491 C1478 0.962 . S
H1492 C1478 0.960 . S
H1493 C1479 0.961 . S
H1494 C1479 0.961 . S
H1495 C1479 0.961 . S
H1496 C1480 0.931 . S
H1497 C1485 0.930 . S
H1498 C1486 0.956 . S
H1499 C1486 0.961 . S
H1500 C1486 0.961 . S
H1501 C1487 0.958 . S
H1502 C1487 0.961 . S
H1503 C1487 0.960 . S
C1504 C1505 1.391 . S
C1504 C1506 1.394 . S
C1504 H1520 0.931 . S
C1505 C1504 1.391 . S
C1505 C1509 1.376 . S
C1506 C1504 1.394 . S
C1506 C1507 1.369 . S
C1506 C1510 1.531 . S
C1507 C1506 1.369 . S
C1507 C1508 1.410 . S
C1507 C1515 1.503 . S
C1508 C1507 1.410 . S
C1508 C1509 1.392 . S
C1508 C1511 1.511 . S
C1509 C1505 1.376 . S
C1509 C1508 1.392 . S
C1509 H1521 0.929 . S
C1510 C1506 1.531 . S
C1510 H1522 0.960 . S
C1510 H1523 0.962 . S
C1510 H1524 0.960 . S
C1511 C1508 1.511 . S
C1511 H1525 0.961 . S
C1511 H1526 0.961 . S
C1511 H1527 0.961 . S
C1512 C1513 1.370 . S
C1512 C1514 1.363 . S
C1512 H1528 0.931 . S
C1513 C1512 1.370 . S
C1513 C1517 1.408 . S
C1514 C1512 1.363 . S
C1514 C1515 1.370 . S
C1514 C1518 1.524 . S
C1515 C1507 1.503 . S
C1515 C1514 1.370 . S
C1515 C1516 1.403 . S
C1516 C1515 1.403 . S
C1516 C1517 1.404 . S
C1516 C1519 1.539 . S
C1517 C1513 1.408 . S
C1517 C1516 1.404 . S
C1517 H1529 0.930 . S
C1518 C1514 1.524 . S
C1518 H1530 0.956 . S
C1518 H1531 0.961 . S
C1518 H1532 0.961 . S
C1519 C1516 1.539 . S
C1519 H1533 0.958 . S
C1519 H1534 0.961 . S
C1519 H1535 0.960 . S
H1520 C1504 0.931 . S
H1521 C1509 0.929 . S
H1522 C1510 0.960 . S
H1523 C1510 0.962 . S
H1524 C1510 0.960 . S
H1525 C1511 0.961 . S
H1526 C1511 0.961 . S
H1527 C1511 0.961 . S
H1528 C1512 0.931 . S
H1529 C1517 0.930 . S
H1530 C1518 0.956 . S
H1531 C1518 0.961 . S
H1532 C1518 0.961 . S
H1533 C1519 0.958 . S
H1534 C1519 0.961 . S
H1535 C1519 0.960 . S
C1536 C1537 1.391 . S
C1536 C1538 1.394 . S
C1536 H1552 0.931 . S
C1537 C1536 1.391 . S
C1537 C1541 1.376 . S
C1538 C1536 1.394 . S
C1538 C1539 1.369 . S
C1538 C1542 1.531 . S
C1539 C1538 1.369 . S
C1539 C1540 1.410 . S
C1539 C1547 1.503 . S
C1540 C1539 1.410 . S
C1540 C1541 1.392 . S
C1540 C1543 1.511 . S
C1541 C1537 1.376 . S
C1541 C1540 1.392 . S
C1541 H1553 0.929 . S
C1542 C1538 1.531 . S
C1542 H1554 0.960 . S
C1542 H1555 0.962 . S
C1542 H1556 0.960 . S
C1543 C1540 1.511 . S
C1543 H1557 0.961 . S
C1543 H1558 0.961 . S
C1543 H1559 0.961 . S
C1544 C1545 1.370 . S
C1544 C1546 1.363 . S
C1544 H1560 0.931 . S
C1545 C1544 1.370 . S
C1545 C1549 1.408 . S
C1546 C1544 1.363 . S
C1546 C1547 1.370 . S
C1546 C1550 1.524 . S
C1547 C1539 1.503 . S
C1547 C1546 1.370 . S
C1547 C1548 1.403 . S
C1548 C1547 1.403 . S
C1548 C1549 1.404 . S
C1548 C1551 1.539 . S
C1549 C1545 1.408 . S
C1549 C1548 1.404 . S
C1549 H1561 0.930 . S
C1550 C1546 1.524 . S
C1550 H1562 0.956 . S
C1550 H1563 0.961 . S
C1550 H1564 0.961 . S
C1551 C1548 1.539 . S
C1551 H1565 0.958 . S
C1551 H1566 0.961 . S
C1551 H1567 0.960 . S
H1552 C1536 0.931 . S
H1553 C1541 0.929 . S
H1554 C1542 0.960 . S
H1555 C1542 0.962 . S
H1556 C1542 0.960 . S
H1557 C1543 0.961 . S
H1558 C1543 0.961 . S
H1559 C1543 0.961 . S
H1560 C1544 0.931 . S
H1561 C1549 0.930 . S
H1562 C1550 0.956 . S
H1563 C1550 0.961 . S
H1564 C1550 0.961 . S
H1565 C1551 0.958 . S
H1566 C1551 0.961 . S
H1567 C1551 0.960 . S
C1568 C1569 1.391 . S
C1568 C1570 1.394 . S
C1568 H1584 0.931 . S
C1569 C1568 1.391 . S
C1569 C1573 1.376 . S
C1570 C1568 1.394 . S
C1570 C1571 1.369 . S
C1570 C1574 1.531 . S
C1571 C1570 1.369 . S
C1571 C1572 1.410 . S
C1571 C1579 1.503 . S
C1572 C1571 1.410 . S
C1572 C1573 1.392 . S
C1572 C1575 1.511 . S
C1573 C1569 1.376 . S
C1573 C1572 1.392 . S
C1573 H1585 0.929 . S
C1574 C1570 1.531 . S
C1574 H1586 0.960 . S
C1574 H1587 0.962 . S
C1574 H1588 0.960 . S
C1575 C1572 1.511 . S
C1575 H1589 0.961 . S
C1575 H1590 0.961 . S
C1575 H1591 0.961 . S
C1576 C1577 1.370 . S
C1576 C1578 1.363 . S
C1576 H1592 0.931 . S
C1577 C1576 1.370 . S
C1577 C1581 1.408 . S
C1578 C1576 1.363 . S
C1578 C1579 1.370 . S
C1578 C1582 1.524 . S
C1579 C1571 1.503 . S
C1579 C1578 1.370 . S
C1579 C1580 1.403 . S
C1580 C1579 1.403 . S
C1580 C1581 1.404 . S
C1580 C1583 1.539 . S
C1581 C1577 1.408 . S
C1581 C1580 1.404 . S
C1581 H1593 0.930 . S
C1582 C1578 1.524 . S
C1582 H1594 0.956 . S
C1582 H1595 0.961 . S
C1582 H1596 0.961 . S
C1583 C1580 1.539 . S
C1583 H1597 0.958 . S
C1583 H1598 0.961 . S
C1583 H1599 0.960 . S
H1584 C1568 0.931 . S
H1585 C1573 0.929 . S
H1586 C1574 0.960 . S
H1587 C1574 0.962 . S
H1588 C1574 0.960 . S
H1589 C1575 0.961 . S
H1590 C1575 0.961 . S
H1591 C1575 0.961 . S
H1592 C1576 0.931 . S
H1593 C1581 0.930 . S
H1594 C1582 0.956 . S
H1595 C1582 0.961 . S
H1596 C1582 0.961 . S
H1597 C1583 0.958 . S
H1598 C1583 0.961 . S
H1599 C1583 0.960 . S
C1600 C1601 1.391 . S
C1600 C1602 1.394 . S
C1600 H1616 0.931 . S
C1601 C1600 1.391 . S
C1601 C1605 1.376 . S
C1602 C1600 1.394 . S
C1602 C1603 1.369 . S
C1602 C1606 1.531 . S
C1603 C1602 1.369 . S
C1603 C1604 1.410 . S
C1603 C1611 1.503 . S
C1604 C1603 1.410 . S
C1604 C1605 1.392 . S
C1604 C1607 1.511 . S
C1605 C1601 1.376 . S
C1605 C1604 1.392 . S
C1605 H1617 0.929 . S
C1606 C1602 1.531 . S
C1606 H1618 0.960 . S
C1606 H1619 0.962 . S
C1606 H1620 0.960 . S
C1607 C1604 1.511 . S
C1607 H1621 0.961 . S
C1607 H1622 0.961 . S
C1607 H1623 0.961 . S
C1608 C1609 1.370 . S
C1608 C1610 1.363 . S
C1608 H1624 0.931 . S
C1609 C1608 1.370 . S
C1609 C1613 1.408 . S
C1610 C1608 1.363 . S
C1610 C1611 1.370 . S
C1610 C1614 1.524 . S
C1611 C1603 1.503 . S
C1611 C1610 1.370 . S
C1611 C1612 1.403 . S
C1612 C1611 1.403 . S
C1612 C1613 1.404 . S
C1612 C1615 1.539 . S
C1613 C1609 1.408 . S
C1613 C1612 1.404 . S
C1613 H1625 0.930 . S
C1614 C1610 1.524 . S
C1614 H1626 0.956 . S
C1614 H1627 0.961 . S
C1614 H1628 0.961 . S
C1615 C1612 1.539 . S
C1615 H1629 0.958 . S
C1615 H1630 0.961 . S
C1615 H1631 0.960 . S
H1616 C1600 0.931 . S
H1617 C1605 0.929 . S
H1618 C1606 0.960 . S
H1619 C1606 0.962 . S
H1620 C1606 0.960 . S
H1621 C1607 0.961 . S
H1622 C1607 0.961 . S
H1623 C1607 0.961 . S
H1624 C1608 0.931 . S
H1625 C1613 0.930 . S
H1626 C1614 0.956 . S
H1627 C1614 0.961 . S
H1628 C1614 0.961 . S
H1629 C1615 0.958 . S
H1630 C1615 0.961 . S
H1631 C1615 0.960 . S
C1632 C1633 1.391 . S
C1632 C1634 1.394 . S
C1632 H1648 0.931 . S
C1633 C1632 1.391 . S
C1633 C1637 1.376 . S
C1634 C1632 1.394 . S
C1634 C1635 1.369 . S
C1634 C1638 1.531 . S
C1635 C1634 1.369 . S
C1635 C1636 1.410 . S
C1635 C1643 1.503 . S
C1636 C1635 1.410 . S
C1636 C1637 1.392 . S
C1636 C1639 1.511 . S
C1637 C1633 1.376 . S
C1637 C1636 1.392 . S
C1637 H1649 0.929 . S
C1638 C1634 1.531 . S
C1638 H1650 0.960 . S
C1638 H1651 0.962 . S
C1638 H1652 0.960 . S
C1639 C1636 1.511 . S
C1639 H1653 0.961 . S
C1639 H1654 0.961 . S
C1639 H1655 0.961 . S
C1640 C1641 1.370 . S
C1640 C1642 1.363 . S
C1640 H1656 0.931 . S
C1641 C1640 1.370 . S
C1641 C1645 1.408 . S
C1642 C1640 1.363 . S
C1642 C1643 1.370 . S
C1642 C1646 1.524 . S
C1643 C1635 1.503 . S
C1643 C1642 1.370 . S
C1643 C1644 1.403 . S
C1644 C1643 1.403 . S
C1644 C1645 1.404 . S
C1644 C1647 1.539 . S
C1645 C1641 1.408 . S
C1645 C1644 1.404 . S
C1645 H1657 0.930 . S
C1646 C1642 1.524 . S
C1646 H1658 0.956 . S
C1646 H1659 0.961 . S
C1646 H1660 0.961 . S
C1647 C1644 1.539 . S
C1647 H1661 0.958 . S
C1647 H1662 0.961 . S
C1647 H1663 0.960 . S
H1648 C1632 0.931 . S
H1649 C1637 0.929 . S
H1650 C1638 0.960 . S
H1651 C1638 0.962 . S
H1652 C1638 0.960 . S
H1653 C1639 0.961 . S
H1654 C1639 0.961 . S
H1655 C1639 0.961 . S
H1656 C1640 0.931 . S
H1657 C1645 0.930 . S
H1658 C1646 0.956 . S
H1659 C1646 0.961 . S
H1660 C1646 0.961 . S
H1661 C1647 0.958 . S
H1662 C1647 0.961 . S
H1663 C1647 0.960 . S
C1664 C1665 1.391 . S
C1664 C1666 1.394 . S
C1664 H1680 0.931 . S
C1665 C1664 1.391 . S
C1665 C1669 1.376 . S
C1666 C1664 1.394 . S
C1666 C1667 1.369 . S
C1666 C1670 1.531 . S
C1667 C1666 1.369 . S
C1667 C1668 1.410 . S
C1667 C1675 1.503 . S
C1668 C1667 1.410 . S
C1668 C1669 1.392 . S
C1668 C1671 1.511 . S
C1669 C1665 1.376 . S
C1669 C1668 1.392 . S
C1669 H1681 0.929 . S
C1670 C1666 1.531 . S
C1670 H1682 0.960 . S
C1670 H1683 0.962 . S
C1670 H1684 0.960 . S
C1671 C1668 1.511 . S
C1671 H1685 0.961 . S
C1671 H1686 0.961 . S
C1671 H1687 0.961 . S
C1672 C1673 1.370 . S
C1672 C1674 1.363 . S
C1672 H1688 0.931 . S
C1673 C1672 1.370 . S
C1673 C1677 1.408 . S
C1674 C1672 1.363 . S
C1674 C1675 1.370 . S
C1674 C1678 1.524 . S
C1675 C1667 1.503 . S
C1675 C1674 1.370 . S
C1675 C1676 1.403 . S
C1676 C1675 1.403 . S
C1676 C1677 1.404 . S
C1676 C1679 1.539 . S
C1677 C1673 1.408 . S
C1677 C1676 1.404 . S
C1677 H1689 0.930 . S
C1678 C1674 1.524 . S
C1678 H1690 0.956 . S
C1678 H1691 0.961 . S
C1678 H1692 0.961 . S
C1679 C1676 1.539 . S
C1679 H1693 0.958 . S
C1679 H1694 0.961 . S
C1679 H1695 0.960 . S
H1680 C1664 0.931 . S
H1681 C1669 0.929 . S
H1682 C1670 0.960 . S
H1683 C1670 0.962 . S
H1684 C1670 0.960 . S
H1685 C1671 0.961 . S
H1686 C1671 0.961 . S
H1687 C1671 0.961 . S
H1688 C1672 0.931 . S
H1689 C1677 0.930 . S
H1690 C1678 0.956 . S
H1691 C1678 0.961 . S
H1692 C1678 0.961 . S
H1693 C1679 0.958 . S
H1694 C1679 0.961 . S
H1695 C1679 0.960 . S
C1696 C1697 1.391 . S
C1696 C1698 1.394 . S
C1696 H1712 0.931 . S
C1697 C1696 1.391 . S
C1697 C1701 1.376 . S
C1698 C1696 1.394 . S
C1698 C1699 1.369 . S
C1698 C1702 1.531 . S
C1699 C1698 1.369 . S
C1699 C1700 1.410 . S
C1699 C1707 1.503 . S
C1700 C1699 1.410 . S
C1700 C1701 1.392 . S
C1700 C1703 1.511 . S
C1701 C1697 1.376 . S
C1701 C1700 1.392 . S
C1701 H1713 0.929 . S
C1702 C1698 1.531 . S
C1702 H1714 0.960 . S
C1702 H1715 0.962 . S
C1702 H1716 0.960 . S
C1703 C1700 1.511 . S
C1703 H1717 0.961 . S
C1703 H1718 0.961 . S
C1703 H1719 0.961 . S
C1704 C1705 1.370 . S
C1704 C1706 1.363 . S
C1704 H1720 0.931 . S
C1705 C1704 1.370 . S
C1705 C1709 1.408 . S
C1706 C1704 1.363 . S
C1706 C1707 1.370 . S
C1706 C1710 1.524 . S
C1707 C1699 1.503 . S
C1707 C1706 1.370 . S
C1707 C1708 1.403 . S
C1708 C1707 1.403 . S
C1708 C1709 1.404 . S
C1708 C1711 1.539 . S
C1709 C1705 1.408 . S
C1709 C1708 1.404 . S
C1709 H1721 0.930 . S
C1710 C1706 1.524 . S
C1710 H1722 0.956 . S
C1710 H1723 0.961 . S
C1710 H1724 0.961 . S
C1711 C1708 1.539 . S
C1711 H1725 0.958 . S
C1711 H1726 0.961 . S
C1711 H1727 0.960 . S
H1712 C1696 0.931 . S
H1713 C1701 0.929 . S
H1714 C1702 0.960 . S
H1715 C1702 0.962 . S
H1716 C1702 0.960 . S
H1717 C1703 0.961 . S
H1718 C1703 0.961 . S
H1719 C1703 0.961 . S
H1720 C1704 0.931 . S
H1721 C1709 0.930 . S
H1722 C1710 0.956 . S
H1723 C1710 0.961 . S
H1724 C1710 0.961 . S
H1725 C1711 0.958 . S
H1726 C1711 0.961 . S
H1727 C1711 0.960 . S
C1728 C1729 1.391 . S
C1728 C1730 1.394 . S
C1728 H1744 0.931 . S
C1729 C1728 1.391 . S
C1729 C1733 1.376 . S
C1730 C1728 1.394 . S
C1730 C1731 1.369 . S
C1730 C1734 1.531 . S
C1731 C1730 1.369 . S
C1731 C1732 1.410 . S
C1731 C1739 1.503 . S
C1732 C1731 1.410 . S
C1732 C1733 1.392 . S
C1732 C1735 1.511 . S
C1733 C1729 1.376 . S
C1733 C1732 1.392 . S
C1733 H1745 0.929 . S
C1734 C1730 1.531 . S
C1734 H1746 0.960 . S
C1734 H1747 0.962 . S
C1734 H1748 0.960 . S
C1735 C1732 1.511 . S
C1735 H1749 0.961 . S
C1735 H1750 0.961 . S
C1735 H1751 0.961 . S
C1736 C1737 1.370 . S
C1736 C1738 1.363 . S
C1736 H1752 0.931 . S
C1737 C1736 1.370 . S
C1737 C1741 1.408 . S
C1738 C1736 1.363 . S
C1738 C1739 1.370 . S
C1738 C1742 1.524 . S
C1739 C1731 1.503 . S
C1739 C1738 1.370 . S
C1739 C1740 1.403 . S
C1740 C1739 1.403 . S
C1740 C1741 1.404 . S
C1740 C1743 1.539 . S
C1741 C1737 1.408 . S
C1741 C1740 1.404 . S
C1741 H1753 0.930 . S
C1742 C1738 1.524 . S
C1742 H1754 0.956 . S
C1742 H1755 0.961 . S
C1742 H1756 0.961 . S
C1743 C1740 1.539 . S
C1743 H1757 0.958 . S
C1743 H1758 0.961 . S
C1743 H1759 0.960 . S
H1744 C1728 0.931 . S
H1745 C1733 0.929 . S
H1746 C1734 0.960 . S
H1747 C1734 0.962 . S
H1748 C1734 0.960 . S
H1749 C1735 0.961 . S
H1750 C1735 0.961 . S
H1751 C1735 0.961 . S
H1752 C1736 0.931 . S
H1753 C1741 0.930 . S
H1754 C1742 0.956 . S
H1755 C1742 0.961 . S
H1756 C1742 0.961 . S
H1757 C1743 0.958 . S
H1758 C1743 0.961 . S
H1759 C1743 0.960 . S
C1760 C1761 1.391 . S
C1760 C1762 1.394 . S
C1760 H1776 0.931 . S
C1761 C1760 1.391 . S
C1761 C1765 1.376 . S
C1762 C1760 1.394 . S
C1762 C1763 1.369 . S
C1762 C1766 1.531 . S
C1763 C1762 1.369 . S
C1763 C1764 1.410 . S
C1763 C1771 1.503 . S
C1764 C1763 1.410 . S
C1764 C1765 1.392 . S
C1764 C1767 1.511 . S
C1765 C1761 1.376 . S
C1765 C1764 1.392 . S
C1765 H1777 0.929 . S
C1766 C1762 1.531 . S
C1766 H1778 0.960 . S
C1766 H1779 0.962 . S
C1766 H1780 0.960 . S
C1767 C1764 1.511 . S
C1767 H1781 0.961 . S
C1767 H1782 0.961 . S
C1767 H1783 0.961 . S
C1768 C1769 1.370 . S
C1768 C1770 1.363 . S
C1768 H1784 0.931 . S
C1769 C1768 1.370 . S
C1769 C1773 1.408 . S
C1770 C1768 1.363 . S
C1770 C1771 1.370 . S
C1770 C1774 1.524 . S
C1771 C1763 1.503 . S
C1771 C1770 1.370 . S
C1771 C1772 1.403 . S
C1772 C1771 1.403 . S
C1772 C1773 1.404 . S
C1772 C1775 1.539 . S
C1773 C1769 1.408 . S
C1773 C1772 1.404 . S
C1773 H1785 0.930 . S
C1774 C1770 1.524 . S
C1774 H1786 0.956 . S
C1774 H1787 0.961 . S
C1774 H1788 0.961 . S
C1775 C1772 1.539 . S
C1775 H1789 0.958 . S
C1775 H1790 0.961 . S
C1775 H1791 0.960 . S
H1776 C1760 0.931 . S
H1777 C1765 0.929 . S
H1778 C1766 0.960 . S
H1779 C1766 0.962 . S
H1780 C1766 0.960 . S
H1781 C1767 0.961 . S
H1782 C1767 0.961 . S
H1783 C1767 0.961 . S
H1784 C1768 0.931 . S
H1785 C1773 0.930 . S
H1786 C1774 0.956 . S
H1787 C1774 0.961 . S
H1788 C1774 0.961 . S
H1789 C1775 0.958 . S
H1790 C1775 0.961 . S
H1791 C1775 0.960 . S
C1792 C1793 1.391 . S
C1792 C1794 1.394 . S
C1792 H1808 0.931 . S
C1793 C1792 1.391 . S
C1793 C1797 1.376 . S
C1794 C1792 1.394 . S
C1794 C1795 1.369 . S
C1794 C1798 1.531 . S
C1795 C1794 1.369 . S
C1795 C1796 1.410 . S
C1795 C1803 1.503 . S
C1796 C1795 1.410 . S
C1796 C1797 1.392 . S
C1796 C1799 1.511 . S
C1797 C1793 1.376 . S
C1797 C1796 1.392 . S
C1797 H1809 0.929 . S
C1798 C1794 1.531 . S
C1798 H1810 0.960 . S
C1798 H1811 0.962 . S
C1798 H1812 0.960 . S
C1799 C1796 1.511 . S
C1799 H1813 0.961 . S
C1799 H1814 0.961 . S
C1799 H1815 0.961 . S
C1800 C1801 1.370 . S
C1800 C1802 1.363 . S
C1800 H1816 0.931 . S
C1801 C1800 1.370 . S
C1801 C1805 1.408 . S
C1802 C1800 1.363 . S
C1802 C1803 1.370 . S
C1802 C1806 1.524 . S
C1803 C1795 1.503 . S
C1803 C1802 1.370 . S
C1803 C1804 1.403 . S
C1804 C1803 1.403 . S
C1804 C1805 1.404 . S
C1804 C1807 1.539 . S
C1805 C1801 1.408 . S
C1805 C1804 1.404 . S
C1805 H1817 0.930 . S
C1806 C1802 1.524 . S
C1806 H1818 0.956 . S
C1806 H1819 0.961 . S
C1806 H1820 0.961 . S
C1807 C1804 1.539 . S
C1807 H1821 0.958 . S
C1807 H1822 0.961 . S
C1807 H1823 0.960 . S
H1808 C1792 0.931 . S
H1809 C1797 0.929 . S
H1810 C1798 0.960 . S
H1811 C1798 0.962 . S
H1812 C1798 0.960 . S
H1813 C1799 0.961 . S
H1814 C1799 0.961 . S
H1815 C1799 0.961 . S
H1816 C1800 0.931 . S
H1817 C1805 0.930 . S
H1818 C1806 0.956 . S
H1819 C1806 0.961 . S
H1820 C1806 0.961 . S
H1821 C1807 0.958 . S
H1822 C1807 0.961 . S
H1823 C1807 0.960 . S
C1824 C1825 1.391 . S
C1824 C1826 1.394 . S
C1824 H1840 0.931 . S
C1825 C1824 1.391 . S
C1825 C1829 1.376 . S
C1826 C1824 1.394 . S
C1826 C1827 1.369 . S
C1826 C1830 1.531 . S
C1827 C1826 1.369 . S
C1827 C1828 1.410 . S
C1827 C1835 1.503 . S
C1828 C1827 1.410 . S
C1828 C1829 1.392 . S
C1828 C1831 1.511 . S
C1829 C1825 1.376 . S
C1829 C1828 1.392 . S
C1829 H1841 0.929 . S
C1830 C1826 1.531 . S
C1830 H1842 0.960 . S
C1830 H1843 0.962 . S
C1830 H1844 0.960 . S
C1831 C1828 1.511 . S
C1831 H1845 0.961 . S
C1831 H1846 0.961 . S
C1831 H1847 0.961 . S
C1832 C1833 1.370 . S
C1832 C1834 1.363 . S
C1832 H1848 0.931 . S
C1833 C1832 1.370 . S
C1833 C1837 1.408 . S
C1834 C1832 1.363 . S
C1834 C1835 1.370 . S
C1834 C1838 1.524 . S
C1835 C1827 1.503 . S
C1835 C1834 1.370 . S
C1835 C1836 1.403 . S
C1836 C1835 1.403 . S
C1836 C1837 1.404 . S
C1836 C1839 1.539 . S
C1837 C1833 1.408 . S
C1837 C1836 1.404 . S
C1837 H1849 0.930 . S
C1838 C1834 1.524 . S
C1838 H1850 0.956 . S
C1838 H1851 0.961 . S
C1838 H1852 0.961 . S
C1839 C1836 1.539 . S
C1839 H1853 0.958 . S
C1839 H1854 0.961 . S
C1839 H1855 0.960 . S
H1840 C1824 0.931 . S
H1841 C1829 0.929 . S
H1842 C1830 0.960 . S
H1843 C1830 0.962 . S
H1844 C1830 0.960 . S
H1845 C1831 0.961 . S
H1846 C1831 0.961 . S
H1847 C1831 0.961 . S
H1848 C1832 0.931 . S
H1849 C1837 0.930 . S
H1850 C1838 0.956 . S
H1851 C1838 0.961 . S
H1852 C1838 0.961 . S
H1853 C1839 0.958 . S
H1854 C1839 0.961 . S
H1855 C1839 0.960 . S
C1856 C1857 1.391 . S
C1856 C1858 1.394 . S
C1856 H1872 0.931 . S
C1857 C1856 1.391 . S
C1857 C1861 1.376 . S
C1858 C1856 1.394 . S
C1858 C1859 1.369 . S
C1858 C1862 1.531 . S
C1859 C1858 1.369 . S
C1859 C1860 1.410 . S
C1859 C1867 1.503 . S
C1860 C1859 1.410 . S
C1860 C1861 1.392 . S
C1860 C1863 1.511 . S
C1861 C1857 1.376 . S
C1861 C1860 1.392 . S
C1861 H1873 0.929 . S
C1862 C1858 1.531 . S
C1862 H1874 0.960 . S
C1862 H1875 0.962 . S
C1862 H1876 0.960 . S
C1863 C1860 1.511 . S
C1863 H1877 0.961 . S
C1863 H1878 0.961 . S
C1863 H1879 0.961 . S
C1864 C1865 1.370 . S
C1864 C1866 1.363 . S
C1864 H1880 0.931 . S
C1865 C1864 1.370 . S
C1865 C1869 1.408 . S
C1866 C1864 1.363 . S
C1866 C1867 1.370 . S
C1866 C1870 1.524 . S
C1867 C1859 1.503 . S
C1867 C1866 1.370 . S
C1867 C1868 1.403 . S
C1868 C1867 1.403 . S
C1868 C1869 1.404 . S
C1868 C1871 1.539 . S
C1869 C1865 1.408 . S
C1869 C1868 1.404 . S
C1869 H1881 0.930 . S
C1870 C1866 1.524 . S
C1870 H1882 0.956 . S
C1870 H1883 0.961 . S
C1870 H1884 0.961 . S
C1871 C1868 1.539 . S
C1871 H1885 0.958 . S
C1871 H1886 0.961 . S
C1871 H1887 0.960 . S
H1872 C1856 0.931 . S
H1873 C1861 0.929 . S
H1874 C1862 0.960 . S
H1875 C1862 0.962 . S
H1876 C1862 0.960 . S
H1877 C1863 0.961 . S
H1878 C1863 0.961 . S
H1879 C1863 0.961 . S
H1880 C1864 0.931 . S
H1881 C1869 0.930 . S
H1882 C1870 0.956 . S
H1883 C1870 0.961 . S
H1884 C1870 0.961 . S
H1885 C1871 0.958 . S
H1886 C1871 0.961 . S
H1887 C1871 0.960 . S
C1888 C1889 1.391 . S
C1888 C1890 1.394 . S
C1888 H1904 0.931 . S
C1889 C1888 1.391 . S
C1889 C1893 1.376 . S
C1890 C1888 1.394 . S
C1890 C1891 1.369 . S
C1890 C1894 1.531 . S
C1891 C1890 1.369 . S
C1891 C1892 1.410 . S
C1891 C1899 1.503 . S
C1892 C1891 1.410 . S
C1892 C1893 1.392 . S
C1892 C1895 1.511 . S
C1893 C1889 1.376 . S
C1893 C1892 1.392 . S
C1893 H1905 0.929 . S
C1894 C1890 1.531 . S
C1894 H1906 0.960 . S
C1894 H1907 0.962 . S
C1894 H1908 0.960 . S
C1895 C1892 1.511 . S
C1895 H1909 0.961 . S
C1895 H1910 0.961 . S
C1895 H1911 0.961 . S
C1896 C1897 1.370 . S
C1896 C1898 1.363 . S
C1896 H1912 0.931 . S
C1897 C1896 1.370 . S
C1897 C1901 1.408 . S
C1898 C1896 1.363 . S
C1898 C1899 1.370 . S
C1898 C1902 1.524 . S
C1899 C1891 1.503 . S
C1899 C1898 1.370 . S
C1899 C1900 1.403 . S
C1900 C1899 1.403 . S
C1900 C1901 1.404 . S
C1900 C1903 1.539 . S
C1901 C1897 1.408 . S
C1901 C1900 1.404 . S
C1901 H1913 0.930 . S
C1902 C1898 1.524 . S
C1902 H1914 0.956 . S
C1902 H1915 0.961 . S
C1902 H1916 0.961 . S
C1903 C1900 1.539 . S
C1903 H1917 0.958 . S
C1903 H1918 0.961 . S
C1903 H1919 0.960 . S
H1904 C1888 0.931 . S
H1905 C1893 0.929 . S
H1906 C1894 0.960 . S
H1907 C1894 0.962 . S
H1908 C1894 0.960 . S
H1909 C1895 0.961 . S
H1910 C1895 0.961 . S
H1911 C1895 0.961 . S
H1912 C1896 0.931 . S
H1913 C1901 0.930 . S
H1914 C1902 0.956 . S
H1915 C1902 0.961 . S
H1916 C1902 0.961 . S
H1917 C1903 0.958 . S
H1918 C1903 0.961 . S
H1919 C1903 0.960 . S
C1920 C1921 1.391 . S
C1920 C1922 1.394 . S
C1920 H1936 0.931 . S
C1921 C1920 1.391 . S
C1921 C1925 1.376 . S
C1922 C1920 1.394 . S
C1922 C1923 1.369 . S
C1922 C1926 1.531 . S
C1923 C1922 1.369 . S
C1923 C1924 1.410 . S
C1923 C1931 1.503 . S
C1924 C1923 1.410 . S
C1924 C1925 1.392 . S
C1924 C1927 1.511 . S
C1925 C1921 1.376 . S
C1925 C1924 1.392 . S
C1925 H1937 0.929 . S
C1926 C1922 1.531 . S
C1926 H1938 0.960 . S
C1926 H1939 0.962 . S
C1926 H1940 0.960 . S
C1927 C1924 1.511 . S
C1927 H1941 0.961 . S
C1927 H1942 0.961 . S
C1927 H1943 0.961 . S
C1928 C1929 1.370 . S
C1928 C1930 1.363 . S
C1928 H1944 0.931 . S
C1929 C1928 1.370 . S
C1929 C1933 1.408 . S
C1930 C1928 1.363 . S
C1930 C1931 1.370 . S
C1930 C1934 1.524 . S
C1931 C1923 1.503 . S
C1931 C1930 1.370 . S
C1931 C1932 1.403 . S
C1932 C1931 1.403 . S
C1932 C1933 1.404 . S
C1932 C1935 1.539 . S
C1933 C1929 1.408 . S
C1933 C1932 1.404 . S
C1933 H1945 0.930 . S
C1934 C1930 1.524 . S
C1934 H1946 0.956 . S
C1934 H1947 0.961 . S
C1934 H1948 0.961 . S
C1935 C1932 1.539 . S
C1935 H1949 0.958 . S
C1935 H1950 0.961 . S
C1935 H1951 0.960 . S
H1936 C1920 0.931 . S
H1937 C1925 0.929 . S
H1938 C1926 0.960 . S
H1939 C1926 0.962 . S
H1940 C1926 0.960 . S
H1941 C1927 0.961 . S
H1942 C1927 0.961 . S
H1943 C1927 0.961 . S
H1944 C1928 0.931 . S
H1945 C1933 0.930 . S
H1946 C1934 0.956 . S
H1947 C1934 0.961 . S
H1948 C1934 0.961 . S
H1949 C1935 0.958 . S
H1950 C1935 0.961 . S
H1951 C1935 0.960 . S
C1952 C1953 1.391 . S
C1952 C1954 1.394 . S
C1952 H1968 0.931 . S
C1953 C1952 1.391 . S
C1953 C1957 1.376 . S
C1954 C1952 1.394 . S
C1954 C1955 1.369 . S
C1954 C1958 1.531 . S
C1955 C1954 1.369 . S
C1955 C1956 1.410 . S
C1955 C1963 1.503 . S
C1956 C1955 1.410 . S
C1956 C1957 1.392 . S
C1956 C1959 1.511 . S
C1957 C1953 1.376 . S
C1957 C1956 1.392 . S
C1957 H1969 0.929 . S
C1958 C1954 1.531 . S
C1958 H1970 0.960 . S
C1958 H1971 0.962 . S
C1958 H1972 0.960 . S
C1959 C1956 1.511 . S
C1959 H1973 0.961 . S
C1959 H1974 0.961 . S
C1959 H1975 0.961 . S
C1960 C1961 1.370 . S
C1960 C1962 1.363 . S
C1960 H1976 0.931 . S
C1961 C1960 1.370 . S
C1961 C1965 1.408 . S
C1962 C1960 1.363 . S
C1962 C1963 1.370 . S
C1962 C1966 1.524 . S
C1963 C1955 1.503 . S
C1963 C1962 1.370 . S
C1963 C1964 1.403 . S
C1964 C1963 1.403 . S
C1964 C1965 1.404 . S
C1964 C1967 1.539 . S
C1965 C1961 1.408 . S
C1965 C1964 1.404 . S
C1965 H1977 0.930 . S
C1966 C1962 1.524 . S
C1966 H1978 0.956 . S
C1966 H1979 0.961 . S
C1966 H1980 0.961 . S
C1967 C1964 1.539 . S
C1967 H1981 0.958 . S
C1967 H1982 0.961 . S
C1967 H1983 0.960 . S
H1968 C1952 0.931 . S
H1969 C1957 0.929 . S
H1970 C1958 0.960 . S
H1971 C1958 0.962 . S
H1972 C1958 0.960 . S
H1973 C1959 0.961 . S
H1974 C1959 0.961 . S
H1975 C1959 0.961 . S
H1976 C1960 0.931 . S
H1977 C1965 0.930 . S
H1978 C1966 0.956 . S
H1979 C1966 0.961 . S
H1980 C1966 0.961 . S
H1981 C1967 0.958 . S
H1982 C1967 0.961 . S
H1983 C1967 0.960 . S
C1984 C1985 1.391 . S
C1984 C1986 1.394 . S
C1984 H2000 0.931 1_455 S
C1985 C1984 1.391 . S
C1985 C1989 1.376 . S
C1986 C1984 1.394 . S
C1986 C1987 1.369 . S
C1986 C1990 1.531 1_455 S
C1987 C1986 1.369 . S
C1987 C1988 1.410 . S
C1987 C1995 1.503 . S
C1988 C1987 1.410 . S
C1988 C1989 1.392 . S
C1988 C1991 1.511 . S
C1989 C1985 1.376 . S
C1989 C1988 1.392 . S
C1989 H2001 0.929 . S
C1990 C1986 1.531 1_655 S
C1990 H2002 0.960 . S
C1990 H2003 0.962 . S
C1990 H2004 0.960 . S
C1991 C1988 1.511 . S
C1991 H2005 0.961 . S
C1991 H2006 0.961 . S
C1991 H2007 0.961 . S
C1992 C1993 1.370 . S
C1992 C1994 1.363 . S
C1992 H2008 0.931 . S
C1993 C1992 1.370 . S
C1993 C1997 1.408 . S
C1994 C1992 1.363 . S
C1994 C1995 1.370 . S
C1994 C1998 1.524 . S
C1995 C1987 1.503 . S
C1995 C1994 1.370 . S
C1995 C1996 1.403 . S
C1996 C1995 1.403 . S
C1996 C1997 1.404 . S
C1996 C1999 1.539 . S
C1997 C1993 1.408 . S
C1997 C1996 1.404 . S
C1997 H2009 0.930 . S
C1998 C1994 1.524 . S
C1998 H2010 0.956 1_455 S
C1998 H2011 0.961 . S
C1998 H2012 0.961 . S
C1999 C1996 1.539 . S
C1999 H2013 0.958 . S
C1999 H2014 0.961 . S
C1999 H2015 0.960 . S
H2000 C1984 0.931 1_655 S
H2001 C1989 0.929 . S
H2002 C1990 0.960 . S
H2003 C1990 0.962 . S
H2004 C1990 0.960 . S
H2005 C1991 0.961 . S
H2006 C1991 0.961 . S
H2007 C1991 0.961 . S
H2008 C1992 0.931 . S
H2009 C1997 0.930 . S
H2010 C1998 0.956 1_655 S
H2011 C1998 0.961 . S
H2012 C1998 0.961 . S
H2013 C1999 0.958 . S
H2014 C1999 0.961 . S
H2015 C1999 0.960 . S
C2016 C2017 1.391 . S
C2016 C2018 1.394 . S
C2016 H2032 0.931 . S
C2017 C2016 1.391 . S
C2017 C2021 1.376 . S
C2018 C2016 1.394 . S
C2018 C2019 1.369 . S
C2018 C2022 1.531 . S
C2019 C2018 1.369 . S
C2019 C2020 1.410 . S
C2019 C2027 1.503 . S
C2020 C2019 1.410 . S
C2020 C2021 1.392 . S
C2020 C2023 1.511 . S
C2021 C2017 1.376 . S
C2021 C2020 1.392 . S
C2021 H2033 0.929 . S
C2022 C2018 1.531 . S
C2022 H2034 0.960 . S
C2022 H2035 0.962 . S
C2022 H2036 0.960 . S
C2023 C2020 1.511 . S
C2023 H2037 0.961 . S
C2023 H2038 0.961 . S
C2023 H2039 0.961 . S
C2024 C2025 1.370 . S
C2024 C2026 1.363 . S
C2024 H2040 0.931 . S
C2025 C2024 1.370 . S
C2025 C2029 1.408 . S
C2026 C2024 1.363 . S
C2026 C2027 1.370 . S
C2026 C2030 1.524 . S
C2027 C2019 1.503 . S
C2027 C2026 1.370 . S
C2027 C2028 1.403 . S
C2028 C2027 1.403 . S
C2028 C2029 1.404 . S
C2028 C2031 1.539 . S
C2029 C2025 1.408 . S
C2029 C2028 1.404 . S
C2029 H2041 0.930 . S
C2030 C2026 1.524 . S
C2030 H2042 0.956 . S
C2030 H2043 0.961 . S
C2030 H2044 0.961 . S
C2031 C2028 1.539 . S
C2031 H2045 0.958 . S
C2031 H2046 0.961 . S
C2031 H2047 0.960 . S
H2032 C2016 0.931 . S
H2033 C2021 0.929 . S
H2034 C2022 0.960 . S
H2035 C2022 0.962 . S
H2036 C2022 0.960 . S
H2037 C2023 0.961 . S
H2038 C2023 0.961 . S
H2039 C2023 0.961 . S
H2040 C2024 0.931 . S
H2041 C2029 0.930 . S
H2042 C2030 0.956 . S
H2043 C2030 0.961 . S
H2044 C2030 0.961 . S
H2045 C2031 0.958 . S
H2046 C2031 0.961 . S
H2047 C2031 0.960 . S
C2048 C2049 1.391 . S
C2048 C2050 1.394 . S
C2048 H2064 0.931 . S
C2049 C2048 1.391 . S
C2049 C2053 1.376 . S
C2050 C2048 1.394 . S
C2050 C2051 1.369 . S
C2050 C2054 1.531 . S
C2051 C2050 1.369 . S
C2051 C2052 1.410 . S
C2051 C2059 1.503 . S
C2052 C2051 1.410 . S
C2052 C2053 1.392 . S
C2052 C2055 1.511 . S
C2053 C2049 1.376 . S
C2053 C2052 1.392 . S
C2053 H2065 0.929 . S
C2054 C2050 1.531 . S
C2054 H2066 0.960 . S
C2054 H2067 0.962 . S
C2054 H2068 0.960 . S
C2055 C2052 1.511 . S
C2055 H2069 0.961 . S
C2055 H2070 0.961 . S
C2055 H2071 0.961 . S
C2056 C2057 1.370 . S
C2056 C2058 1.363 . S
C2056 H2072 0.931 . S
C2057 C2056 1.370 . S
C2057 C2061 1.408 . S
C2058 C2056 1.363 . S
C2058 C2059 1.370 . S
C2058 C2062 1.524 . S
C2059 C2051 1.503 . S
C2059 C2058 1.370 . S
C2059 C2060 1.403 . S
C2060 C2059 1.403 . S
C2060 C2061 1.404 . S
C2060 C2063 1.539 . S
C2061 C2057 1.408 . S
C2061 C2060 1.404 . S
C2061 H2073 0.930 . S
C2062 C2058 1.524 . S
C2062 H2074 0.956 . S
C2062 H2075 0.961 . S
C2062 H2076 0.961 . S
C2063 C2060 1.539 . S
C2063 H2077 0.958 . S
C2063 H2078 0.961 . S
C2063 H2079 0.960 . S
H2064 C2048 0.931 . S
H2065 C2053 0.929 . S
H2066 C2054 0.960 . S
H2067 C2054 0.962 . S
H2068 C2054 0.960 . S
H2069 C2055 0.961 . S
H2070 C2055 0.961 . S
H2071 C2055 0.961 . S
H2072 C2056 0.931 . S
H2073 C2061 0.930 . S
H2074 C2062 0.956 . S
H2075 C2062 0.961 . S
H2076 C2062 0.961 . S
H2077 C2063 0.958 . S
H2078 C2063 0.961 . S
H2079 C2063 0.960 . S
C2080 C2081 1.391 1_554 S
C2080 C2082 1.394 . S
C2080 H2096 0.931 . S
C2081 C2080 1.391 1_556 S
C2081 C2085 1.376 . S
C2082 C2080 1.394 . S
C2082 C2083 1.369 1_554 S
C2082 C2086 1.531 . S
C2083 C2082 1.369 1_556 S
C2083 C2084 1.410 . S
C2083 C2091 1.496 1_556 S
C2084 C2083 1.410 . S
C2084 C2085 1.392 . S
C2084 C2087 1.511 . S
C2085 C2081 1.376 . S
C2085 C2084 1.392 . S
C2085 H2097 0.929 . S
C2086 C2082 1.531 . S
C2086 H2098 0.960 . S
C2086 H2099 0.962 . S
C2086 H2100 0.960 . S
C2087 C2084 1.511 . S
C2087 H2101 0.961 . S
C2087 H2102 0.961 . S
C2087 H2103 0.961 . S
C2088 C2089 1.370 . S
C2088 C2090 1.363 . S
C2088 H2104 0.931 . S
C2089 C2088 1.370 . S
C2089 C2093 1.408 1_554 S
C2090 C2088 1.363 . S
C2090 C2091 1.391 . S
C2090 C2094 1.524 . S
C2091 C2083 1.496 1_554 S
C2091 C2090 1.391 . S
C2091 C2092 1.390 1_554 S
C2092 C2091 1.390 1_556 S
C2092 C2093 1.404 . S
C2092 C2095 1.539 . S
C2093 C2089 1.408 1_556 S
C2093 C2092 1.404 . S
C2093 H2105 0.930 . S
C2094 C2090 1.524 . S
C2094 H2106 0.956 . S
C2094 H2107 0.961 . S
C2094 H2108 0.961 . S
C2095 C2092 1.539 . S
C2095 H2109 0.958 . S
C2095 H2110 0.961 . S
C2095 H2111 0.960 . S
H2096 C2080 0.931 . S
H2097 C2085 0.929 . S
H2098 C2086 0.960 . S
H2099 C2086 0.962 . S
H2100 C2086 0.960 . S
H2101 C2087 0.961 . S
H2102 C2087 0.961 . S
H2103 C2087 0.961 . S
H2104 C2088 0.931 . S
H2105 C2093 0.930 . S
H2106 C2094 0.956 . S
H2107 C2094 0.961 . S
H2108 C2094 0.961 . S
H2109 C2095 0.958 . S
H2110 C2095 0.961 . S
H2111 C2095 0.960 . S
C2112 C2113 1.391 . S
C2112 C2114 1.394 . S
C2112 H2128 0.931 . S
C2113 C2112 1.391 . S
C2113 C2117 1.376 . S
C2114 C2112 1.394 . S
C2114 C2115 1.369 . S
C2114 C2118 1.531 . S
C2115 C2114 1.369 . S
C2115 C2116 1.410 . S
C2115 C2123 1.503 . S
C2116 C2115 1.410 . S
C2116 C2117 1.392 . S
C2116 C2119 1.511 1_655 S
C2117 C2113 1.376 . S
C2117 C2116 1.392 . S
C2117 H2129 0.929 1_655 S
C2118 C2114 1.531 . S
C2118 H2130 0.960 . S
C2118 H2131 0.962 . S
C2118 H2132 0.960 . S
C2119 C2116 1.511 1_455 S
C2119 H2133 0.961 . S
C2119 H2134 0.961 . S
C2119 H2135 0.961 . S
C2120 C2121 1.370 . S
C2120 C2122 1.363 . S
C2120 H2136 0.931 . S
C2121 C2120 1.370 . S
C2121 C2125 1.408 . S
C2122 C2120 1.363 . S
C2122 C2123 1.370 . S
C2122 C2126 1.524 . S
C2123 C2115 1.503 . S
C2123 C2122 1.370 . S
C2123 C2124 1.403 . S
C2124 C2123 1.403 . S
C2124 C2125 1.404 . S
C2124 C2127 1.539 1_655 S
C2125 C2121 1.408 . S
C2125 C2124 1.404 . S
C2125 H2137 0.950 . S
C2126 C2122 1.524 . S
C2126 H2138 0.956 . S
C2126 H2139 0.961 . S
C2126 H2140 0.961 . S
C2127 C2124 1.539 1_455 S
C2127 H2141 0.958 . S
C2127 H2142 0.961 . S
C2127 H2143 0.960 . S
H2128 C2112 0.931 . S
H2129 C2117 0.929 1_455 S
H2130 C2118 0.960 . S
H2131 C2118 0.962 . S
H2132 C2118 0.960 . S
H2133 C2119 0.961 . S
H2134 C2119 0.961 . S
H2135 C2119 0.961 . S
H2136 C2120 0.931 . S
H2137 C2125 0.950 . S
H2138 C2126 0.956 . S
H2139 C2126 0.961 . S
H2140 C2126 0.961 . S
H2141 C2127 0.958 . S
H2142 C2127 0.961 . S
H2143 C2127 0.960 . S
C2144 C2145 1.391 . S
C2144 C2146 1.394 . S
C2144 H2160 0.931 . S
C2145 C2144 1.391 . S
C2145 C2149 1.376 . S
C2146 C2144 1.394 . S
C2146 C2147 1.369 . S
C2146 C2150 1.531 . S
C2147 C2146 1.369 . S
C2147 C2148 1.410 . S
C2147 C2155 1.503 . S
C2148 C2147 1.410 . S
C2148 C2149 1.392 . S
C2148 C2151 1.511 . S
C2149 C2145 1.376 . S
C2149 C2148 1.392 . S
C2149 H2161 0.929 . S
C2150 C2146 1.531 . S
C2150 H2162 0.960 . S
C2150 H2163 0.962 . S
C2150 H2164 0.960 . S
C2151 C2148 1.511 . S
C2151 H2165 0.961 . S
C2151 H2166 0.961 . S
C2151 H2167 0.961 . S
C2152 C2153 1.370 . S
C2152 C2154 1.363 . S
C2152 H2168 0.931 . S
C2153 C2152 1.370 . S
C2153 C2157 1.408 . S
C2154 C2152 1.363 . S
C2154 C2155 1.370 . S
C2154 C2158 1.524 . S
C2155 C2147 1.503 . S
C2155 C2154 1.370 . S
C2155 C2156 1.403 . S
C2156 C2155 1.403 . S
C2156 C2157 1.404 . S
C2156 C2159 1.539 . S
C2157 C2153 1.408 . S
C2157 C2156 1.404 . S
C2157 H2169 0.930 . S
C2158 C2154 1.524 . S
C2158 H2170 0.956 . S
C2158 H2171 0.961 . S
C2158 H2172 0.961 . S
C2159 C2156 1.539 . S
C2159 H2173 0.958 . S
C2159 H2174 0.961 . S
C2159 H2175 0.960 . S
H2160 C2144 0.931 . S
H2161 C2149 0.929 . S
H2162 C2150 0.960 . S
H2163 C2150 0.962 . S
H2164 C2150 0.960 . S
H2165 C2151 0.961 . S
H2166 C2151 0.961 . S
H2167 C2151 0.961 . S
H2168 C2152 0.931 . S
H2169 C2157 0.930 . S
H2170 C2158 0.956 . S
H2171 C2158 0.961 . S
H2172 C2158 0.961 . S
H2173 C2159 0.958 . S
H2174 C2159 0.961 . S
H2175 C2159 0.960 . S
C2176 C2177 1.391 . S
C2176 C2178 1.394 . S
C2176 H2192 0.931 . S
C2177 C2176 1.391 . S
C2177 C2181 1.376 . S
C2178 C2176 1.394 . S
C2178 C2179 1.369 . S
C2178 C2182 1.531 . S
C2179 C2178 1.369 . S
C2179 C2180 1.410 . S
C2179 C2187 1.503 . S
C2180 C2179 1.410 . S
C2180 C2181 1.392 . S
C2180 C2183 1.511 . S
C2181 C2177 1.376 . S
C2181 C2180 1.392 . S
C2181 H2193 0.929 . S
C2182 C2178 1.531 . S
C2182 H2194 0.960 . S
C2182 H2195 0.962 . S
C2182 H2196 0.960 . S
C2183 C2180 1.511 . S
C2183 H2197 0.961 . S
C2183 H2198 0.961 . S
C2183 H2199 0.961 . S
C2184 C2185 1.370 . S
C2184 C2186 1.363 . S
C2184 H2200 0.931 . S
C2185 C2184 1.370 . S
C2185 C2189 1.408 . S
C2186 C2184 1.363 . S
C2186 C2187 1.370 . S
C2186 C2190 1.524 . S
C2187 C2179 1.503 . S
C2187 C2186 1.370 . S
C2187 C2188 1.403 . S
C2188 C2187 1.403 . S
C2188 C2189 1.404 . S
C2188 C2191 1.539 . S
C2189 C2185 1.408 . S
C2189 C2188 1.404 . S
C2189 H2201 0.930 . S
C2190 C2186 1.524 . S
C2190 H2202 0.956 . S
C2190 H2203 0.961 . S
C2190 H2204 0.961 . S
C2191 C2188 1.539 . S
C2191 H2205 0.958 . S
C2191 H2206 0.961 . S
C2191 H2207 0.960 . S
H2192 C2176 0.931 . S
H2193 C2181 0.929 . S
H2194 C2182 0.960 . S
H2195 C2182 0.962 . S
H2196 C2182 0.960 . S
H2197 C2183 0.961 . S
H2198 C2183 0.961 . S
H2199 C2183 0.961 . S
H2200 C2184 0.931 . S
H2201 C2189 0.930 . S
H2202 C2190 0.956 . S
H2203 C2190 0.961 . S
H2204 C2190 0.961 . S
H2205 C2191 0.958 . S
H2206 C2191 0.961 . S
H2207 C2191 0.960 . S
C2208 C2209 1.391 1_556 S
C2208 C2210 1.394 . S
C2208 H2224 0.931 . S
C2209 C2208 1.391 1_554 S
C2209 C2213 1.376 . S
C2210 C2208 1.394 . S
C2210 C2211 1.369 1_556 S
C2210 C2214 1.531 . S
C2211 C2210 1.369 1_554 S
C2211 C2212 1.410 . S
C2211 C2219 1.503 1_554 S
C2212 C2211 1.410 . S
C2212 C2213 1.392 . S
C2212 C2215 1.511 . S
C2213 C2209 1.376 . S
C2213 C2212 1.392 . S
C2213 H2225 0.929 . S
C2214 C2210 1.531 . S
C2214 H2226 0.960 . S
C2214 H2227 0.962 . S
C2214 H2228 0.960 . S
C2215 C2212 1.511 . S
C2215 H2229 0.961 . S
C2215 H2230 0.961 . S
C2215 H2231 0.961 . S
C2216 C2217 1.370 . S
C2216 C2218 1.363 . S
C2216 H2232 0.931 . S
C2217 C2216 1.370 . S
C2217 C2221 1.408 . S
C2218 C2216 1.363 . S
C2218 C2219 1.370 . S
C2218 C2222 1.524 1_556 S
C2219 C2211 1.503 1_556 S
C2219 C2218 1.370 . S
C2219 C2220 1.403 . S
C2220 C2219 1.403 . S
C2220 C2221 1.404 . S
C2220 C2223 1.539 . S
C2221 C2217 1.408 . S
C2221 C2220 1.404 . S
C2221 H2233 0.930 . S
C2222 C2218 1.524 1_554 S
C2222 H2234 0.956 1_554 S
C2222 H2235 0.961 . S
C2222 H2236 0.961 . S
C2223 C2220 1.539 . S
C2223 H2237 0.958 . S
C2223 H2238 0.961 . S
C2223 H2239 0.947 1_556 S
H2224 C2208 0.931 . S
H2225 C2213 0.929 . S
H2226 C2214 0.960 . S
H2227 C2214 0.962 . S
H2228 C2214 0.960 . S
H2229 C2215 0.961 . S
H2230 C2215 0.961 . S
H2231 C2215 0.961 . S
H2232 C2216 0.931 . S
H2233 C2221 0.930 . S
H2234 C2222 0.956 1_556 S
H2235 C2222 0.961 . S
H2236 C2222 0.961 . S
H2237 C2223 0.958 . S
H2238 C2223 0.961 . S
H2239 C2223 0.947 1_554 S
C2240 C2241 1.391 . S
C2240 C2242 1.394 . S
C2240 H2256 0.931 . S
C2241 C2240 1.391 . S
C2241 C2245 1.376 . S
C2242 C2240 1.394 . S
C2242 C2243 1.369 . S
C2242 C2246 1.531 . S
C2243 C2242 1.369 . S
C2243 C2244 1.410 . S
C2243 C2251 1.503 1_565 S
C2244 C2243 1.410 . S
C2244 C2245 1.392 . S
C2244 C2247 1.511 . S
C2245 C2241 1.376 . S
C2245 C2244 1.392 . S
C2245 H2257 0.929 . S
C2246 C2242 1.531 . S
C2246 H2258 0.960 1_565 S
C2246 H2259 0.962 . S
C2246 H2260 0.960 . S
C2247 C2244 1.511 . S
C2247 H2261 0.961 . S
C2247 H2262 0.961 . S
C2247 H2263 0.961 . S
C2248 C2249 1.370 . S
C2248 C2250 1.363 . S
C2248 H2264 0.931 . S
C2249 C2248 1.370 . S
C2249 C2253 1.408 . S
C2250 C2248 1.363 . S
C2250 C2251 1.370 . S
C2250 C2254 1.524 . S
C2251 C2243 1.503 1_545 S
C2251 C2250 1.370 . S
C2251 C2252 1.403 . S
C2252 C2251 1.403 . S
C2252 C2253 1.404 . S
C2252 C2255 1.539 . S
C2253 C2249 1.408 . S
C2253 C2252 1.404 . S
C2253 H2265 0.930 . S
C2254 C2250 1.524 . S
C2254 H2266 0.956 1_545 S
C2254 H2267 0.961 1_545 S
C2254 H2268 0.961 . S
C2255 C2252 1.539 . S
C2255 H2269 0.958 . S
C2255 H2270 0.961 . S
C2255 H2271 0.960 . S
H2256 C2240 0.931 . S
H2257 C2245 0.929 . S
H2258 C2246 0.960 1_545 S
H2259 C2246 0.962 . S
H2260 C2246 0.960 . S
H2261 C2247 0.961 . S
H2262 C2247 0.961 . S
H2263 C2247 0.961 . S
H2264 C2248 0.931 . S
H2265 C2253 0.930 . S
H2266 C2254 0.956 1_565 S
H2267 C2254 0.961 1_565 S
H2268 C2254 0.961 . S
H2269 C2255 0.958 . S
H2270 C2255 0.961 . S
H2271 C2255 0.960 . S
C2272 C2273 1.391 . S
C2272 C2274 1.394 . S
C2272 H2288 0.931 . S
C2273 C2272 1.391 . S
C2273 C2277 1.376 1_554 S
C2274 C2272 1.394 . S
C2274 C2275 1.369 . S
C2274 C2278 1.531 . S
C2275 C2274 1.369 . S
C2275 C2276 1.410 1_554 S
C2275 C2283 1.503 1_554 S
C2276 C2275 1.410 1_556 S
C2276 C2277 1.392 . S
C2276 C2279 1.511 . S
C2277 C2273 1.376 1_556 S
C2277 C2276 1.392 . S
C2277 H2289 0.929 . S
C2278 C2274 1.531 . S
C2278 H2290 0.960 . S
C2278 H2291 0.962 . S
C2278 H2292 0.960 . S
C2279 C2276 1.511 . S
C2279 H2293 0.961 . S
C2279 H2294 0.961 . S
C2279 H2295 0.961 . S
C2280 C2281 1.370 . S
C2280 C2282 1.363 . S
C2280 H2296 0.931 . S
C2281 C2280 1.370 . S
C2281 C2285 1.408 . S
C2282 C2280 1.363 . S
C2282 C2283 1.370 . S
C2282 C2286 1.524 1_556 S
C2283 C2275 1.503 1_556 S
C2283 C2282 1.370 . S
C2283 C2284 1.403 . S
C2284 C2283 1.403 . S
C2284 C2285 1.404 . S
C2284 C2287 1.539 . S
C2285 C2281 1.408 . S
C2285 C2284 1.404 . S
C2285 H2297 0.930 . S
C2286 C2282 1.524 1_554 S
C2286 H2298 0.956 . S
C2286 H2299 0.961 1_554 S
C2286 H2300 0.961 . S
C2287 C2284 1.539 . S
C2287 H2301 0.958 1_556 S
C2287 H2302 0.961 . S
C2287 H2303 0.960 . S
H2288 C2272 0.931 . S
H2289 C2277 0.929 . S
H2290 C2278 0.960 . S
H2291 C2278 0.962 . S
H2292 C2278 0.960 . S
H2293 C2279 0.961 . S
H2294 C2279 0.961 . S
H2295 C2279 0.961 . S
H2296 C2280 0.931 . S
H2297 C2285 0.930 . S
H2298 C2286 0.956 . S
H2299 C2286 0.961 1_556 S
H2300 C2286 0.961 . S
H2301 C2287 0.958 1_554 S
H2302 C2287 0.961 . S
H2303 C2287 0.960 . S
C2304 C2305 1.391 . S
C2304 C2306 1.394 . S
C2304 H2320 0.931 . S
C2305 C2304 1.391 . S
C2305 C2309 1.376 . S
C2306 C2304 1.394 . S
C2306 C2307 1.369 . S
C2306 C2310 1.531 . S
C2307 C2306 1.369 . S
C2307 C2308 1.410 . S
C2307 C2315 1.503 1_545 S
C2308 C2307 1.410 . S
C2308 C2309 1.392 . S
C2308 C2311 1.511 1_655 S
C2309 C2305 1.376 . S
C2309 C2308 1.392 . S
C2309 H2321 0.929 1_655 S
C2310 C2306 1.531 . S
C2310 H2322 0.960 . S
C2310 H2323 0.962 . S
C2310 H2324 0.960 . S
C2311 C2308 1.511 1_455 S
C2311 H2325 0.961 . S
C2311 H2326 0.961 1_545 S
C2311 H2327 0.961 . S
C2312 C2313 1.370 . S
C2312 C2314 1.363 . S
C2312 H2328 0.931 . S
C2313 C2312 1.370 . S
C2313 C2317 1.408 . S
C2314 C2312 1.363 . S
C2314 C2315 1.370 . S
C2314 C2318 1.524 . S
C2315 C2307 1.503 1_565 S
C2315 C2314 1.370 . S
C2315 C2316 1.403 . S
C2316 C2315 1.403 . S
C2316 C2317 1.404 . S
C2316 C2319 1.539 . S
C2317 C2313 1.408 . S
C2317 C2316 1.404 . S
C2317 H2329 0.930 . S
C2318 C2314 1.524 . S
C2318 H2330 0.956 . S
C2318 H2331 0.961 . S
C2318 H2332 0.961 . S
C2319 C2316 1.539 . S
C2319 H2333 0.953 1_565 S
C2319 H2334 0.961 1_655 S
C2319 H2335 0.960 1_665 S
H2320 C2304 0.931 . S
H2321 C2309 0.929 1_455 S
H2322 C2310 0.960 . S
H2323 C2310 0.962 . S
H2324 C2310 0.960 . S
H2325 C2311 0.961 . S
H2326 C2311 0.961 1_565 S
H2327 C2311 0.961 . S
H2328 C2312 0.931 . S
H2329 C2317 0.930 . S
H2330 C2318 0.956 . S
H2331 C2318 0.961 . S
H2332 C2318 0.961 . S
H2333 C2319 0.953 1_545 S
H2334 C2319 0.961 1_455 S
H2335 C2319 0.960 1_445 S
C2336 C2337 1.391 . S
C2336 C2338 1.394 . S
C2336 H2352 0.931 . S
C2337 C2336 1.391 . S
C2337 C2341 1.376 . S
C2338 C2336 1.394 . S
C2338 C2339 1.369 . S
C2338 C2342 1.531 . S
C2339 C2338 1.369 . S
C2339 C2340 1.410 . S
C2339 C2347 1.503 . S
C2340 C2339 1.410 . S
C2340 C2341 1.392 . S
C2340 C2343 1.511 . S
C2341 C2337 1.376 . S
C2341 C2340 1.392 . S
C2341 H2353 0.929 . S
C2342 C2338 1.531 . S
C2342 H2354 0.960 . S
C2342 H2355 0.962 . S
C2342 H2356 0.960 . S
C2343 C2340 1.511 . S
C2343 H2357 0.961 . S
C2343 H2358 0.961 . S
C2343 H2359 0.961 . S
C2344 C2345 1.370 . S
C2344 C2346 1.363 . S
C2344 H2360 0.931 . S
C2345 C2344 1.370 . S
C2345 C2349 1.408 . S
C2346 C2344 1.363 . S
C2346 C2347 1.370 . S
C2346 C2350 1.524 . S
C2347 C2339 1.503 . S
C2347 C2346 1.370 . S
C2347 C2348 1.403 . S
C2348 C2347 1.403 . S
C2348 C2349 1.404 . S
C2348 C2351 1.539 . S
C2349 C2345 1.408 . S
C2349 C2348 1.404 . S
C2349 H2361 0.930 . S
C2350 C2346 1.524 . S
C2350 H2362 0.956 . S
C2350 H2363 0.961 . S
C2350 H2364 0.961 . S
C2351 C2348 1.539 . S
C2351 H2365 0.958 . S
C2351 H2366 0.961 . S
C2351 H2367 0.960 . S
H2352 C2336 0.931 . S
H2353 C2341 0.929 . S
H2354 C2342 0.960 . S
H2355 C2342 0.962 . S
H2356 C2342 0.960 . S
H2357 C2343 0.961 . S
H2358 C2343 0.961 . S
H2359 C2343 0.961 . S
H2360 C2344 0.931 . S
H2361 C2349 0.930 . S
H2362 C2350 0.956 . S
H2363 C2350 0.961 . S
H2364 C2350 0.961 . S
H2365 C2351 0.958 . S
H2366 C2351 0.961 . S
H2367 C2351 0.960 . S
C2368 C2369 1.391 . S
C2368 C2370 1.394 . S
C2368 H2384 0.931 . S
C2369 C2368 1.391 . S
C2369 C2373 1.376 . S
C2370 C2368 1.394 . S
C2370 C2371 1.369 . S
C2370 C2374 1.531 . S
C2371 C2370 1.369 . S
C2371 C2372 1.410 . S
C2371 C2379 1.503 1_545 S
C2372 C2371 1.410 . S
C2372 C2373 1.392 . S
C2372 C2375 1.511 . S
C2373 C2369 1.376 . S
C2373 C2372 1.392 . S
C2373 H2385 0.929 . S
C2374 C2370 1.531 . S
C2374 H2386 0.960 . S
C2374 H2387 0.962 . S
C2374 H2388 0.960 . S
C2375 C2372 1.511 . S
C2375 H2389 0.961 . S
C2375 H2390 0.961 1_545 S
C2375 H2391 0.961 . S
C2376 C2377 1.370 . S
C2376 C2378 1.363 . S
C2376 H2392 0.931 . S
C2377 C2376 1.370 . S
C2377 C2381 1.408 . S
C2378 C2376 1.363 . S
C2378 C2379 1.370 . S
C2378 C2382 1.524 . S
C2379 C2371 1.503 1_565 S
C2379 C2378 1.370 . S
C2379 C2380 1.403 . S
C2380 C2379 1.403 . S
C2380 C2381 1.404 . S
C2380 C2383 1.539 . S
C2381 C2377 1.408 . S
C2381 C2380 1.404 . S
C2381 H2393 0.930 . S
C2382 C2378 1.524 . S
C2382 H2394 0.956 . S
C2382 H2395 0.961 . S
C2382 H2396 0.961 . S
C2383 C2380 1.539 . S
C2383 H2397 0.968 . S
C2383 H2398 0.961 . S
C2383 H2399 0.960 1_565 S
H2384 C2368 0.931 . S
H2385 C2373 0.929 . S
H2386 C2374 0.960 . S
H2387 C2374 0.962 . S
H2388 C2374 0.960 . S
H2389 C2375 0.961 . S
H2390 C2375 0.961 1_565 S
H2391 C2375 0.961 . S
H2392 C2376 0.931 . S
H2393 C2381 0.930 . S
H2394 C2382 0.956 . S
H2395 C2382 0.961 . S
H2396 C2382 0.961 . S
H2397 C2383 0.968 . S
H2398 C2383 0.961 . S
H2399 C2383 0.960 1_545 S
C2400 C2401 1.391 . S
C2400 C2402 1.394 . S
C2400 H2416 0.931 . S
C2401 C2400 1.391 . S
C2401 C2405 1.376 1_554 S
C2402 C2400 1.394 . S
C2402 C2403 1.369 . S
C2402 C2406 1.531 . S
C2403 C2402 1.369 . S
C2403 C2404 1.410 1_554 S
C2403 C2411 1.503 1_554 S
C2404 C2403 1.410 1_556 S
C2404 C2405 1.392 . S
C2404 C2407 1.511 . S
C2405 C2401 1.376 1_556 S
C2405 C2404 1.392 . S
C2405 H2417 0.929 . S
C2406 C2402 1.531 . S
C2406 H2418 0.960 . S
C2406 H2419 0.962 . S
C2406 H2420 0.960 . S
C2407 C2404 1.511 . S
C2407 H2421 0.961 . S
C2407 H2422 0.961 . S
C2407 H2423 0.961 . S
C2408 C2409 1.370 . S
C2408 C2410 1.363 . S
C2408 H2424 0.931 . S
C2409 C2408 1.370 . S
C2409 C2413 1.408 . S
C2410 C2408 1.363 . S
C2410 C2411 1.370 . S
C2410 C2414 1.524 . S
C2411 C2403 1.503 1_556 S
C2411 C2410 1.370 . S
C2411 C2412 1.403 . S
C2412 C2411 1.403 . S
C2412 C2413 1.404 . S
C2412 C2415 1.539 1_556 S
C2413 C2409 1.408 . S
C2413 C2412 1.404 . S
C2413 H2425 0.930 . S
C2414 C2410 1.524 . S
C2414 H2426 0.956 1_556 S
C2414 H2427 0.961 . S
C2414 H2428 0.961 . S
C2415 C2412 1.539 1_554 S
C2415 H2429 0.963 . S
C2415 H2430 0.958 1_554 S
C2415 H2431 0.958 1_554 S
H2416 C2400 0.931 . S
H2417 C2405 0.929 . S
H2418 C2406 0.960 . S
H2419 C2406 0.962 . S
H2420 C2406 0.960 . S
H2421 C2407 0.961 . S
H2422 C2407 0.961 . S
H2423 C2407 0.961 . S
H2424 C2408 0.931 . S
H2425 C2413 0.930 . S
H2426 C2414 0.956 1_554 S
H2427 C2414 0.961 . S
H2428 C2414 0.961 . S
H2429 C2415 0.963 . S
H2430 C2415 0.958 1_556 S
H2431 C2415 0.958 1_556 S
C2432 C2433 1.391 . S
C2432 C2434 1.394 . S
C2432 H2448 0.931 . S
C2433 C2432 1.391 . S
C2433 C2437 1.376 . S
C2434 C2432 1.394 . S
C2434 C2435 1.369 . S
C2434 C2438 1.531 1_455 S
C2435 C2434 1.369 . S
C2435 C2436 1.410 . S
C2435 C2443 1.503 1_545 S
C2436 C2435 1.410 . S
C2436 C2437 1.392 . S
C2436 C2439 1.511 . S
C2437 C2433 1.376 . S
C2437 C2436 1.392 . S
C2437 H2449 0.929 . S
C2438 C2434 1.531 1_655 S
C2438 H2450 0.960 1_655 S
C2438 H2451 0.962 . S
C2438 H2452 0.960 . S
C2439 C2436 1.511 . S
C2439 H2453 0.961 . S
C2439 H2454 0.961 1_545 S
C2439 H2455 0.961 . S
C2440 C2441 1.370 . S
C2440 C2442 1.363 . S
C2440 H2456 0.931 . S
C2441 C2440 1.370 . S
C2441 C2445 1.408 . S
C2442 C2440 1.363 . S
C2442 C2443 1.370 . S
C2442 C2446 1.524 1_455 S
C2443 C2435 1.503 1_565 S
C2443 C2442 1.370 . S
C2443 C2444 1.403 . S
C2444 C2443 1.403 . S
C2444 C2445 1.404 . S
C2444 C2447 1.539 . S
C2445 C2441 1.408 . S
C2445 C2444 1.404 . S
C2445 H2457 0.930 . S
C2446 C2442 1.524 1_655 S
C2446 H2458 0.956 . S
C2446 H2459 0.961 1_655 S
C2446 H2460 0.961 . S
C2447 C2444 1.539 . S
C2447 H2461 0.958 . S
C2447 H2462 0.961 . S
C2447 H2463 0.960 1_565 S
H2448 C2432 0.931 . S
H2449 C2437 0.929 . S
H2450 C2438 0.960 1_455 S
H2451 C2438 0.962 . S
H2452 C2438 0.960 . S
H2453 C2439 0.961 . S
H2454 C2439 0.961 1_565 S
H2455 C2439 0.961 . S
H2456 C2440 0.931 . S
H2457 C2445 0.930 . S
H2458 C2446 0.956 . S
H2459 C2446 0.961 1_455 S
H2460 C2446 0.961 . S
H2461 C2447 0.958 . S
H2462 C2447 0.961 . S
H2463 C2447 0.960 1_545 S
C2464 C2465 1.391 . S
C2464 C2466 1.394 . S
C2464 H2480 0.931 . S
C2465 C2464 1.391 . S
C2465 C2469 1.376 . S
C2466 C2464 1.394 . S
C2466 C2467 1.369 . S
C2466 C2470 1.531 . S
C2467 C2466 1.369 . S
C2467 C2468 1.410 . S
C2467 C2475 1.503 . S
C2468 C2467 1.410 . S
C2468 C2469 1.392 . S
C2468 C2471 1.511 . S
C2469 C2465 1.376 . S
C2469 C2468 1.392 . S
C2469 H2481 0.929 . S
C2470 C2466 1.531 . S
C2470 H2482 0.960 . S
C2470 H2483 0.962 . S
C2470 H2484 0.960 . S
C2471 C2468 1.511 . S
C2471 H2485 0.961 . S
C2471 H2486 0.961 . S
C2471 H2487 0.961 . S
C2472 C2473 1.370 . S
C2472 C2474 1.363 . S
C2472 H2488 0.931 . S
C2473 C2472 1.370 . S
C2473 C2477 1.408 . S
C2474 C2472 1.363 . S
C2474 C2475 1.370 . S
C2474 C2478 1.524 . S
C2475 C2467 1.503 . S
C2475 C2474 1.370 . S
C2475 C2476 1.403 . S
C2476 C2475 1.403 . S
C2476 C2477 1.404 . S
C2476 C2479 1.539 . S
C2477 C2473 1.408 . S
C2477 C2476 1.404 . S
C2477 H2489 0.930 . S
C2478 C2474 1.524 . S
C2478 H2490 0.956 . S
C2478 H2491 0.961 . S
C2478 H2492 0.961 . S
C2479 C2476 1.539 . S
C2479 H2493 0.958 . S
C2479 H2494 0.961 . S
C2479 H2495 0.960 . S
H2480 C2464 0.931 . S
H2481 C2469 0.929 . S
H2482 C2470 0.960 . S
H2483 C2470 0.962 . S
H2484 C2470 0.960 . S
H2485 C2471 0.961 . S
H2486 C2471 0.961 . S
H2487 C2471 0.961 . S
H2488 C2472 0.931 . S
H2489 C2477 0.930 . S
H2490 C2478 0.956 . S
H2491 C2478 0.961 . S
H2492 C2478 0.961 . S
H2493 C2479 0.958 . S
H2494 C2479 0.961 . S
H2495 C2479 0.960 . S
C449 C12 1.534 . S
C457 C306 1.553 . S
C481 C320 1.533 . S
C489 C26 1.553 . S
C513 C40 1.550 . S
C521 C334 1.547 . S
C545 C292 1.540 . S
C553 C54 1.547 . S
C577 C68 1.537 . S
C585 C278 1.552 . S
C609 C82 1.560 . S
C617 C236 1.541 . S
C641 C250 1.529 . S
C649 C96 1.553 . S
C673 C110 1.528 . S
C681 C264 1.553 . S
C705 C124 1.527 . S
C713 C418 1.554 . S
C737 C138 1.527 . S
C745 C432 1.554 . S
C769 C446 1.545 . S
C777 C152 1.544 . S
C801 C404 1.560 . S
C809 C166 1.541 . S
C833 C180 1.546 . S
C841 C390 1.550 . S
C865 C348 1.555 . S
C873 C194 1.546 . S
C897 C208 1.553 . S
C905 C362 1.541 . S
C929 C376 1.534 . S
C937 C222 1.554 . S
C961 C4 0.975 . S
C969 C131 0.932 . S
C993 C18 0.960 . S
C1001 C369 0.902 . S
C1025 C159 0.875 . S
C1033 C32 0.971 . S
C1057 C46 0.941 . S
C1065 C341 0.943 . S
C1089 C60 0.952 . S
C1097 C215 0.909 . S
C1121 C397 0.953 . S
C1129 C74 0.954 . S
C1153 C187 0.882 . S
C1161 C88 0.960 . S
C1185 C425 0.986 . S
C1193 C102 0.959 . S
C1217 C116 0.958 . S
C1225 C19 0.945 . S
C1249 C257 0.889 . S
C1257 C130 0.971 . S
C1281 C47 0.894 . S
C1289 C144 0.971 . S
C1313 C158 0.981 . S
C1321 C229 0.907 . S
C1345 C103 0.969 . S
C1353 C172 0.954 . S
C1377 C285 0.983 . S
C1385 C186 0.958 . S
C1409 C75 0.958 . S
C1417 C200 0.955 . S
C1441 C214 0.981 . S
C1449 C313 0.904 . S
C1473 C355 0.922 . S
C1481 C228 0.955 . S
C1505 C145 0.936 . S
C1513 C242 0.955 . S
C1537 C383 0.981 . S
C1545 C256 0.962 . S
C1569 C270 0.952 . S
C1577 C117 0.951 . S
C1601 C439 0.985 . S
C1609 C284 0.958 . S
C1633 C173 0.865 . S
C1641 C298 0.970 . S
C1665 C411 0.864 . S
C1673 C312 0.969 . S
C1697 C326 0.970 . S
C1705 C201 0.940 . S
C1729 C340 0.960 . S
C1737 C243 0.943 . S
C1761 C33 0.866 . S
C1769 C354 0.966 . S
C1793 C368 0.968 . S
C1801 C271 0.901 . S
C1825 C382 0.942 . S
C1833 C5 0.949 . S
C1857 C396 0.959 . S
C1865 C327 0.909 . S
C1889 C61 0.923 . S
C1897 C410 0.969 . S
C1921 C299 0.860 . S
C1929 C424 0.968 . S
C1953 C438 0.955 . S
C1961 C89 0.947 . S
C1985 C11 1.163 . S
C1993 C67 1.138 . S
C2017 C25 1.166 . S
C2025 C81 1.159 . S
C2049 C95 1.143 . S
C2057 C39 1.139 . S
C2081 C109 1.179 . S
C2089 C53 1.149 . S
C2113 C179 1.179 . S
C2121 C123 1.152 . S
C2145 C193 1.173 . S
C2153 C137 1.159 . S
C2177 C207 1.117 . S
C2185 C151 1.152 . S
C2209 C221 1.125 . S
C2217 C165 1.143 . S
C2241 C235 1.154 . S
C2249 C291 1.138 . S
C2273 C249 1.124 . S
C2281 C305 1.146 . S
C2305 C263 1.136 . S
C2313 C319 1.164 . S
C2337 C333 1.175 . S
C2345 C277 1.153 . S
C2369 C347 1.117 . S
C2377 C403 1.151 . S
C2401 C417 1.170 . S
C2409 C361 1.160 . S
C2433 C431 1.117 . S
C2441 C375 1.150 . S
C2465 C445 1.176 . S
C2473 C389 1.157 . S
