# Generated by pormake.
# Topology sme, (6)-cn, num edge types: 1
# Building blocks:
#     Node 0, Type 0, BuildingBlock: IZENUY_clean_sbu_0, # of connection points: 6
#     Node 1, Type 0, BuildingBlock: IZENUY_clean_sbu_0, # of connection points: 6
#     Node 2, Type 0, BuildingBlock: IZENUY_clean_sbu_0, # of connection points: 6
#     Node 3, Type 0, BuildingBlock: IZENUY_clean_sbu_0, # of connection points: 6
#     Node 4, Type 0, BuildingBlock: IZENUY_clean_sbu_0, # of connection points: 6
#     Node 5, Type 0, BuildingBlock: IZENUY_clean_sbu_0, # of connection points: 6
#     Node 6, Type 0, BuildingBlock: IZENUY_clean_sbu_0, # of connection points: 6
#     Node 7, Type 0, BuildingBlock: IZENUY_clean_sbu_0, # of connection points: 6
#     Node 8, Type 0, BuildingBlock: IZENUY_clean_sbu_0, # of connection points: 6
#     Node 9, Type 0, BuildingBlock: IZENUY_clean_sbu_0, # of connection points: 6
#     Node 10, Type 0, BuildingBlock: IZENUY_clean_sbu_0, # of connection points: 6
#     Node 11, Type 0, BuildingBlock: IZENUY_clean_sbu_0, # of connection points: 6
#     Node 12, Type 0, BuildingBlock: IZENUY_clean_sbu_0, # of connection points: 6
#     Node 13, Type 0, BuildingBlock: IZENUY_clean_sbu_0, # of connection points: 6
#     Node 14, Type 0, BuildingBlock: IZENUY_clean_sbu_0, # of connection points: 6
#     Node 15, Type 0, BuildingBlock: IZENUY_clean_sbu_0, # of connection points: 6
#     Node 16, Type 0, BuildingBlock: IZENUY_clean_sbu_0, # of connection points: 6
#     Node 17, Type 0, BuildingBlock: IZENUY_clean_sbu_0, # of connection points: 6
#     Edge 18, Type (0, 0), BuildingBlock: XIVTED_clean_linker_0, # of connection points: 2
#     Edge 19, Type (0, 0), BuildingBlock: XIVTED_clean_linker_0, # of connection points: 2
#     Edge 20, Type (0, 0), BuildingBlock: XIVTED_clean_linker_0, # of connection points: 2
#     Edge 21, Type (0, 0), BuildingBlock: XIVTED_clean_linker_0, # of connection points: 2
#     Edge 22, Type (0, 0), BuildingBlock: XIVTED_clean_linker_0, # of connection points: 2
#     Edge 23, Type (0, 0), BuildingBlock: XIVTED_clean_linker_0, # of connection points: 2
#     Edge 24, Type (0, 0), BuildingBlock: XIVTED_clean_linker_0, # of connection points: 2
#     Edge 25, Type (0, 0), BuildingBlock: XIVTED_clean_linker_0, # of connection points: 2
#     Edge 26, Type (0, 0), BuildingBlock: XIVTED_clean_linker_0, # of connection points: 2
#     Edge 27, Type (0, 0), BuildingBlock: XIVTED_clean_linker_0, # of connection points: 2
#     Edge 28, Type (0, 0), BuildingBlock: XIVTED_clean_linker_0, # of connection points: 2
#     Edge 29, Type (0, 0), BuildingBlock: XIVTED_clean_linker_0, # of connection points: 2
#     Edge 30, Type (0, 0), BuildingBlock: XIVTED_clean_linker_0, # of connection points: 2
#     Edge 31, Type (0, 0), BuildingBlock: XIVTED_clean_linker_0, # of connection points: 2
#     Edge 32, Type (0, 0), BuildingBlock: XIVTED_clean_linker_0, # of connection points: 2
#     Edge 33, Type (0, 0), BuildingBlock: XIVTED_clean_linker_0, # of connection points: 2
#     Edge 34, Type (0, 0), BuildingBlock: XIVTED_clean_linker_0, # of connection points: 2
#     Edge 35, Type (0, 0), BuildingBlock: XIVTED_clean_linker_0, # of connection points: 2
#     Edge 36, Type (0, 0), BuildingBlock: XIVTED_clean_linker_0, # of connection points: 2
#     Edge 37, Type (0, 0), BuildingBlock: XIVTED_clean_linker_0, # of connection points: 2
#     Edge 38, Type (0, 0), BuildingBlock: XIVTED_clean_linker_0, # of connection points: 2
#     Edge 39, Type (0, 0), BuildingBlock: XIVTED_clean_linker_0, # of connection points: 2
#     Edge 40, Type (0, 0), BuildingBlock: XIVTED_clean_linker_0, # of connection points: 2
#     Edge 41, Type (0, 0), BuildingBlock: XIVTED_clean_linker_0, # of connection points: 2
#     Edge 42, Type (0, 0), BuildingBlock: XIVTED_clean_linker_0, # of connection points: 2
#     Edge 43, Type (0, 0), BuildingBlock: XIVTED_clean_linker_0, # of connection points: 2
#     Edge 44, Type (0, 0), BuildingBlock: XIVTED_clean_linker_0, # of connection points: 2
#     Edge 45, Type (0, 0), BuildingBlock: XIVTED_clean_linker_0, # of connection points: 2
#     Edge 46, Type (0, 0), BuildingBlock: XIVTED_clean_linker_0, # of connection points: 2
#     Edge 47, Type (0, 0), BuildingBlock: XIVTED_clean_linker_0, # of connection points: 2
#     Edge 48, Type (0, 0), BuildingBlock: XIVTED_clean_linker_0, # of connection points: 2
#     Edge 49, Type (0, 0), BuildingBlock: XIVTED_clean_linker_0, # of connection points: 2
#     Edge 50, Type (0, 0), BuildingBlock: XIVTED_clean_linker_0, # of connection points: 2
#     Edge 51, Type (0, 0), BuildingBlock: XIVTED_clean_linker_0, # of connection points: 2
#     Edge 52, Type (0, 0), BuildingBlock: XIVTED_clean_linker_0, # of connection points: 2
#     Edge 53, Type (0, 0), BuildingBlock: XIVTED_clean_linker_0, # of connection points: 2
#     Edge 54, Type (0, 0), BuildingBlock: XIVTED_clean_linker_0, # of connection points: 2
#     Edge 55, Type (0, 0), BuildingBlock: XIVTED_clean_linker_0, # of connection points: 2
#     Edge 56, Type (0, 0), BuildingBlock: XIVTED_clean_linker_0, # of connection points: 2
#     Edge 57, Type (0, 0), BuildingBlock: XIVTED_clean_linker_0, # of connection points: 2
#     Edge 58, Type (0, 0), BuildingBlock: XIVTED_clean_linker_0, # of connection points: 2
#     Edge 59, Type (0, 0), BuildingBlock: XIVTED_clean_linker_0, # of connection points: 2
#     Edge 60, Type (0, 0), BuildingBlock: XIVTED_clean_linker_0, # of connection points: 2
#     Edge 61, Type (0, 0), BuildingBlock: XIVTED_clean_linker_0, # of connection points: 2
#     Edge 62, Type (0, 0), BuildingBlock: XIVTED_clean_linker_0, # of connection points: 2
#     Edge 63, Type (0, 0), BuildingBlock: XIVTED_clean_linker_0, # of connection points: 2
#     Edge 64, Type (0, 0), BuildingBlock: XIVTED_clean_linker_0, # of connection points: 2
#     Edge 65, Type (0, 0), BuildingBlock: XIVTED_clean_linker_0, # of connection points: 2
#     Edge 66, Type (0, 0), BuildingBlock: XIVTED_clean_linker_0, # of connection points: 2
#     Edge 67, Type (0, 0), BuildingBlock: XIVTED_clean_linker_0, # of connection points: 2
#     Edge 68, Type (0, 0), BuildingBlock: XIVTED_clean_linker_0, # of connection points: 2
#     Edge 69, Type (0, 0), BuildingBlock: XIVTED_clean_linker_0, # of connection points: 2
#     Edge 70, Type (0, 0), BuildingBlock: XIVTED_clean_linker_0, # of connection points: 2
#     Edge 71, Type (0, 0), BuildingBlock: XIVTED_clean_linker_0, # of connection points: 2
# Relax obj value: 0.119
# Max RMSD: 0.168
# Mean RMSD: 0.168
data_MOF--net-sme--node1-IZENUY_clean_sbu_0--edge1-XIVTED_clean_linker_0
_symmetry_space_group_name_H-M    P1
_symmetry_Int_Tables_number       1
_symmetry_cell_setting            triclinic
loop_
_symmetry_equiv_pos_as_xyz
'x, y, z'
_cell_length_a     44.761888
_cell_length_b     44.590442
_cell_length_c     38.225744
_cell_angle_alpha  89.883039
_cell_angle_beta   90.123878
_cell_angle_gamma 119.93423
loop_
_atom_site_label
_atom_site_type_symbol
_atom_site_fract_x
_atom_site_fract_y
_atom_site_fract_z
_atom_type_partial_charge
Fe0 Fe 0.03058 0.30717 0.82355 0.0
Fe1 Fe 0.04038 0.25626 0.8708 0.0
O2 O 0.03511 0.26978 0.8283 0.0
Fe3 Fe 0.03451 0.24691 0.78992 0.0
O4 O 0.07073 0.28525 0.77001 0.0
O5 O 0.04913 0.31894 0.77928 0.0
O6 O 0.07325 0.33394 0.8401 0.0
C7 C 0.08557 0.32887 0.86773 0.0
C8 C 0.98095 0.26233 0.77953 0.0
O9 O 0.06959 0.30096 0.88528 0.0
C10 C 0.9949 0.19259 0.83543 0.0
O11 O 0.012 0.30515 0.8668 0.0
O12 O 1.0025 0.2561 0.88912 0.0
O13 O 1.00275 0.25467 0.76773 0.0
O14 O 0.98741 0.28116 0.80634 0.0
C15 C 0.08397 0.24103 0.83242 0.0
O16 O 0.01256 0.20957 0.86182 0.0
O17 O 0.99864 0.20681 0.80588 0.0
C18 C 0.99788 0.28178 0.88961 0.0
O19 O 0.07894 0.25475 0.85885 0.0
O20 O 0.06542 0.23433 0.80542 0.0
C21 C 0.07033 0.31284 0.76352 0.0
Fe22 Fe 0.85898 0.87273 0.87031 0.0
Fe23 Fe 0.86675 0.87677 0.78898 0.0
O24 O 0.84428 0.8549 0.82766 0.0
Fe25 Fe 0.80584 0.81409 0.82311 0.0
O26 O 0.78118 0.83223 0.8399 0.0
O27 O 0.815 0.85966 0.88525 0.0
O28 O 0.86293 0.91432 0.85918 0.0
C29 C 0.87542 0.93273 0.83223 0.0
C30 C 0.83007 0.80393 0.88845 0.0
O31 O 0.88029 0.92041 0.80453 0.0
C32 C 0.84885 0.80679 0.77898 0.0
O33 O 0.90495 0.8892 0.8607 0.0
O34 O 0.90657 0.87984 0.80408 0.0
O35 O 0.8069 0.79707 0.86612 0.0
O36 O 0.85702 0.83329 0.88805 0.0
C37 C 0.80082 0.84874 0.76348 0.0
O38 O 0.85762 0.83664 0.76701 0.0
O39 O 0.83003 0.79499 0.80584 0.0
C40 C 0.92116 0.88886 0.83358 0.0
O41 O 0.82887 0.87616 0.76954 0.0
O42 O 0.79436 0.82121 0.77902 0.0
C43 C 0.78723 0.84933 0.86787 0.0
Fe44 Fe 0.298 0.08073 0.82241 0.0
Fe45 Fe 0.23455 0.07728 0.78878 0.0
O46 O 0.25676 0.0772 0.82733 0.0
Fe47 Fe 0.23897 0.07316 0.87004 0.0
O48 O 0.27805 0.11039 0.88823 0.0
O49 O 0.31446 0.09707 0.86604 0.0
O50 O 0.31596 0.1246 0.80653 0.0
C51 C 0.30388 0.13164 0.77971 0.0
C52 C 0.26306 0.02504 0.86545 0.0
O53 O 0.27434 0.11008 0.76747 0.0
C54 C 0.17935 0.02896 0.83181 0.0
O55 O 0.29211 0.06436 0.77741 0.0
O56 O 0.237 0.04085 0.76911 0.0
O57 O 0.25227 0.04173 0.88363 0.0
O58 O 0.28052 0.03727 0.83778 0.0
C59 C 0.22128 0.11879 0.83395 0.0
O60 O 0.19142 0.0457 0.80381 0.0
O61 O 0.19764 0.03573 0.85892 0.0
C62 C 0.26525 0.0426 0.76168 0.0
O63 O 0.22937 0.1128 0.80417 0.0
O64 O 0.22235 0.10294 0.86124 0.0
C65 C 0.30719 0.11248 0.88901 0.0
Fe66 Fe 0.049 0.87422 0.20465 0.0
Fe67 Fe 0.06043 0.82294 0.24931 0.0
O68 O 0.05432 0.85943 0.24636 0.0
Fe69 Fe 0.05332 0.87984 0.28588 0.0
O70 O 0.02132 0.89128 0.27159 0.0
O71 O 0.00969 0.87414 0.21699 0.0
O72 O 0.02088 0.8298 0.18877 0.0
C73 C 0.00532 0.80133 0.20556 0.0
C74 C 0.09252 0.93663 0.24282 0.0
O75 O 0.01784 0.79574 0.23281 0.0
C76 C 0.10925 0.86764 0.29371 0.0
O77 O 0.0876 0.87627 0.18573 0.0
O78 O 0.07862 0.82664 0.20565 0.0
O79 O 0.08821 0.92136 0.27181 0.0
O80 O 0.07583 0.92059 0.21558 0.0
C81 C 0.02057 0.8134 0.31024 0.0
O82 O 0.10349 0.84985 0.26619 0.0
O83 O 0.08628 0.87298 0.30685 0.0
C84 C 0.09267 0.85093 0.18384 0.0
O85 O 0.04293 0.80963 0.29379 0.0
O86 O 0.01766 0.83964 0.304 0.0
C87 C 1.00338 0.8857 0.24431 0.0
Fe88 Fe 0.22606 0.25477 0.20737 0.0
Fe89 Fe 0.28381 0.31442 0.2504 0.0
O90 O 0.24431 0.27411 0.24851 0.0
Fe91 Fe 0.22255 0.2519 0.28722 0.0
O92 O 0.22534 0.21355 0.27571 0.0
O93 O 0.20447 0.20997 0.22318 0.0
O94 O 0.26296 0.25018 0.19846 0.0
C95 C 0.29428 0.27315 0.20167 0.0
C96 C 0.16857 0.24406 0.24207 0.0
O97 O 0.30338 0.30263 0.21481 0.0
C98 C 0.24112 0.31932 0.30276 0.0
O99 O 0.24455 0.29498 0.18192 0.0
O100 O 0.26881 0.33632 0.22044 0.0
O101 O 0.17952 0.23422 0.2678 0.0
O102 O 0.18749 0.25795 0.21547 0.0
C103 C 0.29309 0.28281 0.30906 0.0
O104 O 0.26953 0.33124 0.28653 0.0
O105 O 0.21814 0.28786 0.30132 0.0
C106 C 0.25834 0.32662 0.18965 0.0
O107 O 0.30471 0.29855 0.2805 0.0
O108 O 0.26101 0.26631 0.31462 0.0
C109 C 0.21188 0.19629 0.24822 0.0
Fe110 Fe 0.85836 0.0541 0.28676 0.0
Fe111 Fe 0.79616 0.05306 0.24964 0.0
O112 O 0.83668 0.05443 0.24787 0.0
Fe113 Fe 0.85682 0.05697 0.20693 0.0
O114 O 0.85513 0.01559 0.21424 0.0
O115 O 0.87797 0.03052 0.26683 0.0
O116 O 0.82297 0.01267 0.29923 0.0
C117 C 0.7915 1.004 0.30059 0.0
C118 C 0.91327 0.1019 0.24902 0.0
O119 O 0.77962 0.02108 0.28514 0.0
C120 C 0.83661 0.1058 0.2013 0.0
O121 O 0.84222 0.07632 0.31495 0.0
O122 O 0.81124 0.08919 0.28041 0.0
O123 O 0.90106 0.08113 0.2236 0.0
O124 O 0.89574 0.09624 0.27662 0.0
C125 C 0.78556 0.01665 0.18826 0.0
O126 O 0.80752 0.08519 0.21474 0.0
O127 O 0.86006 0.09809 0.19833 0.0
C128 C 0.82596 0.09228 0.30941 0.0
O129 O 0.77519 0.01686 0.21887 0.0
O130 O 0.81718 0.03473 0.18108 0.0
C131 C 0.86952 0.0106 0.24047 0.0
Fe132 Fe 0.69835 0.63999 0.15712 0.0
Fe133 Fe 0.70589 0.58898 0.20606 0.0
O134 O 0.70251 0.60256 0.16296 0.0
Fe135 Fe 0.70349 0.58027 0.12489 0.0
O136 O 0.73979 0.61934 0.10551 0.0
O137 O 0.71534 0.65041 0.11236 0.0
O138 O 0.74123 0.66639 0.17314 0.0
C139 C 0.75294 0.66135 0.20134 0.0
C140 C 0.64871 0.59409 0.11435 0.0
O141 O 0.73627 0.63385 0.21958 0.0
C142 C 0.66157 0.52557 0.17006 0.0
O143 O 0.68122 0.6401 0.20022 0.0
O144 O 0.66816 0.59048 0.223 0.0
O145 O 0.67088 0.5868 0.10255 0.0
O146 O 0.65506 0.61352 0.14074 0.0
C147 C 0.75118 0.57386 0.16948 0.0
O148 O 0.67686 0.54258 0.19739 0.0
O149 O 0.66817 0.53944 0.14009 0.0
C150 C 0.66561 0.61737 0.22312 0.0
O151 O 0.74374 0.58528 0.19622 0.0
O152 O 0.73506 0.56917 0.14109 0.0
C153 C 0.73765 0.64563 0.09745 0.0
Fe154 Fe 0.4748 0.14653 0.16011 0.0
Fe155 Fe 0.52554 0.20841 0.2057 0.0
O156 O 0.51105 0.18914 0.1636 0.0
Fe157 Fe 0.53142 0.21126 0.12425 0.0
O158 O 0.49116 0.20634 0.10567 0.0
O159 O 0.46187 0.15103 0.11563 0.0
O160 O 0.44747 0.16183 0.17663 0.0
C161 C 0.45282 0.17983 0.20393 0.0
C162 C 0.51992 0.14308 0.11589 0.0
O163 O 0.48111 0.19275 0.22093 0.0
C164 C 0.58809 0.2282 0.16784 0.0
O165 O 0.47777 0.13107 0.20351 0.0
O166 O 0.52688 0.17111 0.22426 0.0
O167 O 0.52558 0.1718 0.10317 0.0
O168 O 0.50189 0.13059 0.14319 0.0
C169 C 0.53707 0.26645 0.16667 0.0
O170 O 0.57174 0.22728 0.19539 0.0
O171 O 0.5732 0.21865 0.1385 0.0
C172 C 0.50178 0.14064 0.22538 0.0
O173 O 0.52646 0.24843 0.19406 0.0
O174 O 0.54172 0.25429 0.13879 0.0
C175 C 0.46535 0.17711 0.09919 0.0
Fe176 Fe 0.90538 0.40562 0.20351 0.0
Fe177 Fe 0.90455 0.41483 0.12273 0.0
O178 O 0.92513 0.41189 0.16149 0.0
Fe179 Fe 0.96639 0.41514 0.15762 0.0
O180 O 0.94864 0.37149 0.17242 0.0
O181 O 0.91882 0.37451 0.21728 0.0
O182 O 0.86513 0.36827 0.18967 0.0
C183 C 0.84741 0.36459 0.16271 0.0
C184 C 0.97312 0.44612 0.22436 0.0
O185 O 0.86044 0.38391 0.13634 0.0
C186 C 0.97413 0.46784 0.11609 0.0
O187 O 0.88827 0.43507 0.19519 0.0
O188 O 0.90092 0.45072 0.13982 0.0
O189 O 0.98197 0.43171 0.20162 0.0
O190 O 0.94321 0.44222 0.22365 0.0
C191 C 0.93377 0.37848 0.09558 0.0
O192 O 0.9451 0.44711 0.1026 0.0
O193 O 0.98534 0.45928 0.14241 0.0
C194 C 0.89014 0.45391 0.16932 0.0
O195 O 0.90615 0.37877 0.10145 0.0
O196 O 0.96065 0.39848 0.11263 0.0
C197 C 0.93043 0.35849 0.1994 0.0
Fe198 Fe 0.72236 0.21693 0.62066 0.0
Fe199 Fe 0.72545 0.15699 0.58535 0.0
O200 O 0.7215 0.19479 0.58161 0.0
Fe201 Fe 0.71655 0.20939 0.53952 0.0
O202 O 0.74523 0.2558 0.54935 0.0
O203 O 0.75845 0.25709 0.60537 0.0
O204 O 0.75383 0.20826 0.64204 0.0
C205 C 0.77551 0.20073 0.62963 0.0
C206 C 0.67368 0.22492 0.57897 0.0
O207 O 0.76881 0.18226 0.60248 0.0
C208 C 0.67034 0.13689 0.54164 0.0
O209 O 0.68592 0.17845 0.64009 0.0
O210 O 0.7071 0.14461 0.62966 0.0
O211 O 0.67856 0.21174 0.55203 0.0
O212 O 0.69184 0.23035 0.60606 0.0
C213 C 0.75778 0.18282 0.51914 0.0
O214 O 0.68266 0.13106 0.56884 0.0
O215 O 0.6865 0.16507 0.5245 0.0
C216 C 0.68622 0.15072 0.64605 0.0
O217 O 0.74363 0.15936 0.54184 0.0
O218 O 0.75386 0.20893 0.52033 0.0
C219 C 0.76267 0.27202 0.57618 0.0
Fe220 Fe 0.889 0.58745 0.62435 0.0
Fe221 Fe 0.95044 0.65029 0.59109 0.0
O222 O 0.91223 0.6094 0.58601 0.0
Fe223 Fe 0.8985 0.59174 0.5432 0.0
O224 O 0.8523 0.57556 0.55149 0.0
O225 O 0.84944 0.58398 0.60814 0.0
O226 O 0.89725 0.62765 0.6456 0.0
C227 C 0.90587 0.65731 0.63309 0.0
C228 C 0.88125 0.53159 0.58143 0.0
O229 O 0.9255 0.66921 0.60675 0.0
C230 C 0.97029 0.61496 0.54798 0.0
O231 O 0.92656 0.58851 0.64512 0.0
O232 O 0.96064 0.64357 0.63592 0.0
O233 O 0.89401 0.55013 0.55464 0.0
O234 O 0.87617 0.54377 0.60914 0.0
C235 C 0.92851 0.66014 0.52422 0.0
O236 O 0.97563 0.6321 0.57586 0.0
O237 O 0.94293 0.60455 0.52979 0.0
C238 C 0.95403 0.61622 0.65194 0.0
O239 O 0.95091 0.66712 0.54746 0.0
O240 O 0.9011 0.63124 0.52498 0.0
C241 C 0.83555 0.5756 0.57831 0.0
Fe242 Fe 0.45804 0.38312 0.58348 0.0
Fe243 Fe 0.52006 0.39507 0.53808 0.0
O244 O 0.50036 0.38896 0.58002 0.0
Fe245 Fe 0.52188 0.38903 0.6192 0.0
O246 O 0.48211 0.35521 0.63955 0.0
O247 O 0.44152 0.33936 0.59917 0.0
O248 O 0.44326 0.36623 0.53934 0.0
C249 C 0.45312 0.35245 0.51689 0.0
C250 C 0.48834 0.42128 0.64531 0.0
O251 O 0.48323 0.35706 0.5186 0.0
C252 C 0.57746 0.43974 0.57808 0.0
O253 O 0.47386 0.4265 0.56843 0.0
O254 O 0.50447 0.4244 0.52374 0.0
O255 O 0.51737 0.42432 0.63879 0.0
O256 O 0.4623 0.39927 0.62851 0.0
C257 C 0.53897 0.3504 0.57436 0.0
O258 O 0.5595 0.43377 0.55087 0.0
O259 O 0.56521 0.42168 0.60533 0.0
C260 C 0.49221 0.43993 0.54156 0.0
O261 O 0.53898 0.36733 0.54749 0.0
O262 O 0.52866 0.3545 0.60379 0.0
C263 C 0.45338 0.33284 0.62647 0.0
Fe264 Fe 0.36937 0.92011 0.53573 0.0
Fe265 Fe 0.36695 0.9121 0.45441 0.0
O266 O 0.36675 0.93462 0.49277 0.0
Fe267 Fe 0.36418 0.97302 0.48755 0.0
O268 O 0.4067 0.99811 0.50486 0.0
O269 O 0.40001 0.96443 0.5506 0.0
O270 O 0.40704 0.91627 0.5257 0.0
C271 C 0.41365 0.90398 0.49909 0.0
C272 C 0.32949 0.94907 0.55268 0.0
O273 O 0.39716 0.89913 0.47088 0.0
C274 C 0.31468 0.92939 0.44294 0.0
O275 O 0.34016 0.87383 0.52616 0.0
O276 O 0.33044 0.8718 0.46916 0.0
O277 O 0.34577 0.97213 0.5302 0.0
O278 O 0.33175 0.92198 0.55256 0.0
C279 C 0.4045 0.97831 0.42875 0.0
O280 O 0.33595 0.9207 0.43166 0.0
O281 O 0.32121 0.94834 0.4697 0.0
C282 C 0.32446 0.85725 0.49876 0.0
O283 O 0.40412 0.95037 0.43528 0.0
O284 O 0.38309 0.98449 0.44366 0.0
C285 C 0.41754 0.99222 0.53311 0.0
Fe286 Fe 0.19277 0.53965 0.53535 0.0
Fe287 Fe 0.20177 0.54086 0.45448 0.0
O288 O 0.17931 0.51967 0.49343 0.0
Fe289 Fe 0.14234 0.47749 0.48983 0.0
O290 O 0.11535 0.49373 0.50492 0.0
O291 O 0.14816 0.52448 0.5495 0.0
O292 O 0.19398 0.57937 0.52178 0.0
C293 C 0.20715 0.59736 0.49474 0.0
C294 C 0.16786 0.47217 0.55654 0.0
O295 O 0.21365 0.58478 0.4682 0.0
C296 C 0.18788 0.47191 0.44774 0.0
O297 O 0.23929 0.55827 0.5265 0.0
O298 O 0.24206 0.54612 0.47091 0.0
O299 O 0.14442 0.46233 0.53385 0.0
O300 O 0.19329 0.50249 0.55529 0.0
C301 C 0.13581 0.50938 0.42844 0.0
O302 O 0.19468 0.50064 0.43417 0.0
O303 O 0.1687 0.46012 0.47432 0.0
C304 C 0.25621 0.5571 0.50034 0.0
O305 O 0.16317 0.53769 0.43398 0.0
O306 O 0.13048 0.48262 0.44499 0.0
C307 C 0.12028 0.51187 0.53191 0.0
Fe308 Fe 0.63417 0.75155 0.49316 0.0
Fe309 Fe 0.57054 0.74645 0.45785 0.0
O310 O 0.59199 0.74605 0.49687 0.0
Fe311 Fe 0.57242 0.73992 0.53886 0.0
O312 O 0.60953 0.77791 0.55815 0.0
O313 O 0.64918 0.76833 0.53717 0.0
O314 O 0.65091 0.79538 0.47784 0.0
C315 C 0.63895 0.80244 0.45101 0.0
C316 C 0.59989 0.69474 0.53499 0.0
O317 O 0.6104 0.78019 0.43751 0.0
C318 C 0.51483 0.69571 0.49881 0.0
O319 O 0.6296 0.73558 0.44807 0.0
O320 O 0.57451 0.71097 0.4381 0.0
O321 O 0.5879 0.71043 0.55298 0.0
O322 O 0.6181 0.70808 0.50802 0.0
C323 C 0.55393 0.78506 0.50303 0.0
O324 O 0.52719 0.71405 0.47175 0.0
O325 O 0.53274 0.70131 0.52603 0.0
C326 C 0.60333 0.71358 0.43159 0.0
O327 O 0.56432 0.78117 0.4736 0.0
O328 O 0.5536 0.76778 0.52973 0.0
C329 C 0.6398 0.78283 0.55922 0.0
Fe330 Fe 0.38639 0.54431 0.87472 0.0
Fe331 Fe 0.39416 0.49317 0.92317 0.0
O332 O 0.39077 0.53109 0.9177 0.0
Fe333 Fe 0.39163 0.55444 0.95576 0.0
O334 O 0.36005 0.566 0.94023 0.0
O335 O 0.34865 0.54756 0.88586 0.0
O336 O 0.35575 0.49939 0.86144 0.0
C337 C 0.33883 0.47224 0.88004 0.0
C338 C 0.43192 0.60835 0.90947 0.0
O339 O 0.35088 0.46722 0.90796 0.0
C340 C 0.44532 0.53886 0.96504 0.0
O341 O 0.42381 0.5427 0.85693 0.0
O342 O 0.41064 0.49291 0.8796 0.0
O343 O 0.42698 0.59454 0.93933 0.0
O344 O 0.41537 0.59104 0.88273 0.0
C345 C 0.35667 0.48929 0.98408 0.0
O346 O 0.43785 0.51888 0.93896 0.0
O347 O 0.42413 0.54729 0.97717 0.0
C348 C 0.42597 0.51555 0.85646 0.0
O349 O 0.37743 0.48291 0.96803 0.0
O350 O 0.35583 0.51648 0.97687 0.0
C351 C 0.34242 0.55997 0.91261 0.0
Fe352 Fe 0.5674 0.92705 0.87584 0.0
Fe353 Fe 0.61787 0.98796 0.92268 0.0
O354 O 0.58078 0.94606 0.91817 0.0
Fe355 Fe 0.55788 0.92401 0.95661 0.0
O356 O 0.54519 0.88031 0.94141 0.0
O357 O 0.56621 0.88706 0.88831 0.0
O358 O 0.61193 0.94257 0.86134 0.0
C359 C 0.63979 0.95469 0.87884 0.0
C360 C 0.50414 0.90965 0.91098 0.0
O361 O 0.64465 0.97196 0.90646 0.0
C362 C 0.57329 0.99316 0.96642 0.0
O363 O 0.56694 0.96465 0.8571 0.0
O364 O 0.61575 0.00437 0.87923 0.0
O365 O 0.51824 0.92034 0.94043 0.0
O366 O 0.52094 0.90822 0.88485 0.0
C367 C 0.62317 0.95389 0.9834 0.0
O368 O 0.5919 0.00533 0.93951 0.0
O369 O 0.56572 0.9637 0.97847 0.0
C370 C 0.59243 0.99497 0.85639 0.0
O371 O 0.62948 0.98116 0.96711 0.0
O372 O 0.59588 0.92584 0.97681 0.0
C373 C 0.55219 0.86833 0.91471 0.0
Fe374 Fe 0.18913 0.72287 0.8733 0.0
Fe375 Fe 0.19126 0.7212 0.95319 0.0
O376 O 0.16949 0.72123 0.91432 0.0
Fe377 Fe 0.12928 0.72046 0.91614 0.0
O378 O 0.10776 0.68347 0.88647 0.0
O379 O 0.14904 0.70059 0.8479 0.0
O380 O 0.18698 0.68135 0.88118 0.0
C381 C 0.20122 0.67647 0.90762 0.0
C382 C 0.16976 0.77228 0.86721 0.0
O383 O 0.20999 0.6967 0.93371 0.0
C384 C 0.16023 0.7609 0.97478 0.0
O385 O 0.23361 0.74668 0.88954 0.0
O386 O 0.229 0.76277 0.94234 0.0
O387 O 0.14051 0.75169 0.88035 0.0
O388 O 0.19296 0.76422 0.86429 0.0
C389 C 0.12434 0.67221 0.96813 0.0
O390 O 0.17595 0.74449 0.98078 0.0
O391 O 0.14521 0.7574 0.94588 0.0
C392 C 0.24651 0.76742 0.91493 0.0
O393 O 0.15561 0.68029 0.96645 0.0
O394 O 0.11276 0.68946 0.95249 0.0
C395 C 0.11755 0.68252 0.85578 0.0
H396 H 0.21513 0.15634 0.78049 0.0
H397 H 0.11473 0.23138 0.89064 0.0
H398 H 0.19446 0.13605 0.89088 0.0
H399 H 0.11157 0.22278 0.77812 0.0
H400 H 0.15209 0.20563 0.89272 0.0
H401 H 0.18598 0.19003 0.78115 0.0
C402 C 0.20478 0.15917 0.80506 0.0
C403 C 0.20714 0.14287 0.83567 0.0
C404 C 0.1434 0.20966 0.86761 0.0
C405 C 0.17335 0.18184 0.83643 0.0
C406 C 0.12224 0.22456 0.86634 0.0
C407 C 0.10978 0.2292 0.83412 0.0
C408 C 0.15263 0.19972 0.83642 0.0
C409 C 0.1203 0.2196 0.80356 0.0
C410 C 0.18796 0.17842 0.80532 0.0
C411 C 0.19324 0.14794 0.86661 0.0
N412 N 0.141 0.20536 0.80549 0.0
N413 N 0.1768 0.16681 0.86617 0.0
H414 H 0.9808 0.14945 0.89272 0.0
H415 H 0.8898 0.97741 0.77732 0.0
H416 H 0.9566 0.1478 0.78309 0.0
H417 H 0.889 0.97445 0.89016 0.0
H418 H 0.91465 0.04009 0.77956 0.0
H419 H 0.94762 0.0859 0.89327 0.0
C420 C 0.96827 0.13588 0.86888 0.0
C421 C 0.97182 0.15427 0.83777 0.0
C422 C 0.90881 0.02579 0.8039 0.0
C423 C 0.93409 0.08139 0.83817 0.0
C424 C 0.8946 0.98989 0.80263 0.0
C425 C 0.88732 0.97047 0.83359 0.0
C426 C 0.9164 0.04279 0.83637 0.0
C427 C 0.89408 0.98828 0.8656 0.0
C428 C 0.94934 0.09955 0.86922 0.0
C429 C 0.9549 0.13502 0.80771 0.0
N430 N 0.90858 0.02342 0.86617 0.0
N431 N 0.93718 0.09984 0.80862 0.0
H432 H 0.96428 0.89413 0.78015 0.0
H433 H 0.13917 0.99928 0.89016 0.0
H434 H 0.96532 0.91644 0.89017 0.0
H435 H 0.13388 0.99898 0.7774 0.0
H436 H 0.07649 0.96079 0.89217 0.0
H437 H 0.02703 0.92379 0.78069 0.0
C438 C 0.9776 0.90491 0.8046 0.0
C439 C 0.95919 0.90292 0.83513 0.0
C440 C 0.08913 0.96897 0.86702 0.0
C441 C 0.03168 0.93727 0.83576 0.0
C442 C 0.12497 0.99082 0.8658 0.0
C443 C 0.14197 1.00266 0.83353 0.0
C444 C 0.07009 0.95847 0.83575 0.0
C445 C 0.12202 0.99081 0.80289 0.0
C446 C 0.01358 0.92201 0.8048 0.0
C447 C 0.97825 0.91738 0.86595 0.0
N448 N 0.08727 0.9695 0.80477 0.0
N449 N 0.01341 0.93409 0.86543 0.0
H450 H 0.97659 0.9032 0.29977 0.0
H451 H 0.88004 0.97889 0.18304 0.0
H452 H 0.96992 0.89379 0.1873 0.0
H453 H 0.88788 0.98469 0.29561 0.0
H454 H 0.90764 0.94294 0.1833 0.0
H455 H 0.93894 0.92801 0.29813 0.0
C456 C 0.96696 0.90603 0.27468 0.0
C457 C 0.97679 0.89656 0.24362 0.0
C458 C 0.90297 0.95185 0.20792 0.0
C459 C 0.93361 0.92562 0.24146 0.0
C460 C 0.88707 0.97224 0.20779 0.0
C461 C 0.88193 0.9852 0.23932 0.0
C462 C 0.91363 0.94427 0.23982 0.0
C463 C 0.89169 0.97575 0.27058 0.0
C464 C 0.94541 0.92031 0.27374 0.0
C465 C 0.96314 0.90075 0.21194 0.0
N466 N 0.90716 0.95619 0.26999 0.0
N467 N 0.94258 0.9153 0.21163 0.0
H468 H 0.13288 0.97894 0.29589 0.0
H469 H 0.18672 0.15426 0.19117 0.0
H470 H 0.10443 0.98217 0.18852 0.0
H471 H 0.20882 0.1519 0.30078 0.0
H472 H 0.16178 0.09174 0.18851 0.0
H473 H 0.16569 0.04205 0.29663 0.0
C474 C 0.1337 0.99283 0.27229 0.0
C475 C 0.1155 0.97494 0.2421 0.0
C476 C 0.1722 0.1048 0.21315 0.0
C477 C 0.15325 0.04772 0.24298 0.0
C478 C 0.18651 0.14064 0.21475 0.0
C479 C 0.19965 0.15854 0.2464 0.0
C480 C 0.17083 0.08631 0.24341 0.0
C481 C 0.19891 0.13929 0.27586 0.0
C482 C 0.15248 0.02899 0.27283 0.0
C483 C 0.11788 0.99464 0.21241 0.0
N484 N 0.18451 0.10421 0.2737 0.0
N485 N 0.13617 0.02988 0.21369 0.0
H486 H 0.12789 0.2346 0.29825 0.0
H487 H 0.95339 0.12707 0.19083 0.0
H488 H 0.12424 0.22708 0.1857 0.0
H489 H 0.95686 0.14053 0.30281 0.0
H490 H 0.01497 0.16848 0.18785 0.0
H491 H 0.06513 0.20603 0.2997 0.0
C492 C 0.11383 0.22737 0.27372 0.0
C493 C 0.13134 0.23294 0.24179 0.0
C494 C 1.0023 0.16268 0.21306 0.0
C495 C 0.05914 0.19959 0.24332 0.0
C496 C 0.96707 0.1389 0.21486 0.0
C497 C 0.94991 0.12984 0.24724 0.0
C498 C 0.02085 0.17752 0.2439 0.0
C499 C 0.96898 0.1465 0.27733 0.0
C500 C 0.07794 0.21098 0.2746 0.0
C501 C 0.11183 0.22331 0.21087 0.0
N502 N 1.00349 0.16921 0.27496 0.0
N503 N 0.07672 0.20663 0.21244 0.0
H504 H 0.88905 0.497 0.11877 0.0
H505 H 0.77686 0.55876 0.22843 0.0
H506 H 0.85831 0.46539 0.22568 0.0
H507 H 0.78504 0.56282 0.11587 0.0
H508 H 0.81495 0.53384 0.23066 0.0
H509 H 0.8598 0.53063 0.12051 0.0
C510 C 0.87645 0.49733 0.14282 0.0
C511 C 0.87598 0.47788 0.17205 0.0
C512 C 0.80861 0.54049 0.20554 0.0
C513 C 0.84211 0.51669 0.17407 0.0
C514 C 0.78703 0.55492 0.20422 0.0
C515 C 0.7775 0.56277 0.17187 0.0
C516 C 0.82116 0.53428 0.17431 0.0
C517 C 0.7914 0.557 0.14139 0.0
C518 C 0.85961 0.51655 0.1437 0.0
C519 C 0.8593 0.47976 0.20245 0.0
N520 N 0.81238 0.54311 0.14338 0.0
N521 N 0.84287 0.49863 0.2026 0.0
H522 H 0.54963 0.31074 0.11174 0.0
H523 H 0.64368 0.4823 0.2277 0.0
H524 H 0.55056 0.30803 0.22457 0.0
H525 H 0.62385 0.48162 0.11702 0.0
H526 H 0.60818 0.41893 0.22817 0.0
H527 H 0.57505 0.37347 0.11397 0.0
C528 C 0.55481 0.32327 0.13704 0.0
C529 C 0.54802 0.30393 0.16799 0.0
C530 C 0.61136 0.43275 0.20389 0.0
C531 C 0.57784 0.37628 0.17077 0.0
C532 C 0.63162 0.46898 0.2036 0.0
C533 C 0.63715 0.48755 0.17223 0.0
C534 C 0.59667 0.41488 0.17256 0.0
C535 C 0.62073 0.46866 0.14184 0.0
C536 C 0.5694 0.3592 0.13831 0.0
C537 C 0.55528 0.32179 0.20001 0.0
N538 N 0.60162 0.43355 0.14274 0.0
N539 N 0.57017 0.35695 0.20057 0.0
H540 H 0.63213 0.25209 0.2249 0.0
H541 H 0.80233 0.34113 0.1073 0.0
H542 H 0.6318 0.23993 0.11284 0.0
H543 H 0.80593 0.3313 0.21935 0.0
H544 H 0.73964 0.30468 0.10928 0.0
H545 H 0.6954 0.28162 0.22415 0.0
C546 C 0.64522 0.25531 0.2002 0.0
C547 C 0.62634 0.24351 0.16889 0.0
C548 C 0.75412 0.31022 0.13344 0.0
C549 C 0.69892 0.27771 0.16783 0.0
C550 C 0.79001 0.33109 0.13232 0.0
C551 C 0.80963 0.33946 0.16319 0.0
C552 C 0.73738 0.29788 0.16573 0.0
C553 C 0.792 0.32553 0.19483 0.0
C554 C 0.68139 0.2722 0.1998 0.0
C555 C 0.64498 0.24855 0.1377 0.0
N556 N 0.75693 0.30578 0.19533 0.0
N557 N 0.68003 0.26545 0.13797 0.0
H558 H 0.64658 0.24275 0.63405 0.0
H559 H 0.56595 0.33378 0.51721 0.0
H560 H 0.64419 0.23727 0.52133 0.0
H561 H 0.54705 0.31407 0.62788 0.0
H562 H 0.59501 0.29933 0.5173 0.0
H563 H 0.61057 0.26959 0.63172 0.0
C564 C 0.63824 0.24689 0.60878 0.0
C565 C 0.64857 0.23769 0.57786 0.0
C566 C 0.58421 0.30236 0.54146 0.0
C567 C 0.60751 0.26914 0.57494 0.0
C568 C 0.56759 0.32204 0.54143 0.0
C569 C 0.55405 0.32713 0.5726 0.0
C570 C 0.58768 0.28793 0.57293 0.0
C571 C 0.55708 0.31116 0.60316 0.0
C572 C 0.61762 0.26227 0.60745 0.0
C573 C 0.63681 0.24377 0.54588 0.0
N574 N 0.57374 0.29266 0.60258 0.0
N575 N 0.61727 0.25943 0.54522 0.0
H576 H 0.80074 0.31482 0.62978 0.0
H577 H 0.87105 0.4919 0.52277 0.0
H578 H 0.77763 0.31713 0.5204 0.0
H579 H 0.86333 0.48489 0.63534 0.0
H580 H 0.84607 0.42893 0.51988 0.0
H581 H 0.83317 0.37779 0.63019 0.0
C582 C 0.80271 0.32846 0.60565 0.0
C583 C 0.78601 0.31032 0.57501 0.0
C584 C 0.85007 0.44125 0.54519 0.0
C585 C 0.82348 0.38311 0.5755 0.0
C586 C 0.86451 0.47725 0.54692 0.0
C587 C 0.86923 0.49387 0.57939 0.0
C588 C 0.84067 0.42165 0.57614 0.0
C589 C 0.86006 0.47333 0.60973 0.0
C590 C 0.82121 0.36457 0.60602 0.0
C591 C 0.78988 0.32983 0.54466 0.0
N592 N 0.84626 0.43842 0.60734 0.0
N593 N 0.80808 0.36514 0.5457 0.0
H594 H 0.61787 0.47038 0.52022 0.0
H595 H 0.79248 0.57219 0.63081 0.0
H596 H 0.62275 0.46839 0.63292 0.0
H597 H 0.79167 0.54794 0.52137 0.0
H598 H 0.72987 0.54383 0.62979 0.0
H599 H 0.68067 0.5079 0.51852 0.0
C600 C 0.63201 0.47821 0.54466 0.0
C601 C 0.61486 0.46598 0.57681 0.0
C602 C 0.74334 0.54489 0.60591 0.0
C603 C 0.68687 0.50902 0.5749 0.0
C604 C 0.77925 0.56123 0.60636 0.0
C605 C 0.79767 0.56227 0.57615 0.0
C606 C 0.72529 0.52948 0.57499 0.0
C607 C 0.77872 0.54771 0.54533 0.0
C608 C 0.66791 0.49947 0.54359 0.0
C609 C 0.63474 0.47695 0.60753 0.0
N610 N 0.74357 0.53175 0.54558 0.0
N611 N 0.66957 0.49773 0.6058 0.0
H612 H 0.5503 0.82509 0.45069 0.0
H613 H 0.44077 0.89117 0.55831 0.0
H614 H 0.52259 0.79793 0.55901 0.0
H615 H 0.44487 0.88914 0.44561 0.0
H616 H 0.4786 0.86601 0.56128 0.0
H617 H 0.52017 0.85782 0.45111 0.0
C618 C 0.53815 0.82618 0.47476 0.0
C619 C 0.53884 0.80826 0.50482 0.0
C620 C 0.47137 0.87132 0.53595 0.0
C621 C 0.50397 0.84611 0.50531 0.0
C622 C 0.44994 0.88588 0.53419 0.0
C623 C 0.43941 0.89218 0.50162 0.0
C624 C 0.4828 0.86345 0.50493 0.0
C625 C 0.45204 0.88458 0.4713 0.0
C626 C 0.5208 0.84489 0.47488 0.0
C627 C 0.52269 0.81111 0.53517 0.0
N628 N 0.47297 0.87065 0.47372 0.0
N629 N 0.50578 0.8295 0.5346 0.0
H630 H 0.30524 0.81347 0.55614 0.0
H631 H 0.22595 0.64233 0.43922 0.0
H632 H 0.29082 0.81294 0.44438 0.0
H633 H 0.21509 0.63875 0.55152 0.0
H634 H 0.25002 0.70501 0.44106 0.0
H635 H 0.27245 0.74992 0.55578 0.0
C636 C 0.2949 0.80014 0.5316 0.0
C637 C 0.3011 0.81888 0.50023 0.0
C638 C 0.24211 0.69053 0.46532 0.0
C639 C 0.26388 0.74593 0.4996 0.0
C640 C 0.22833 0.65464 0.46427 0.0
C641 C 0.21846 0.63503 0.49525 0.0
C642 C 0.24665 0.70733 0.49762 0.0
C643 C 0.22221 0.65266 0.52692 0.0
C644 C 0.2762 0.76379 0.53142 0.0
C645 C 0.28698 0.7999 0.46927 0.0
N646 N 0.23633 0.68776 0.52734 0.0
N647 N 0.26945 0.76468 0.46972 0.0
H648 H 0.29908 0.58567 0.55772 0.0
H649 H 0.47086 0.66639 0.44327 0.0
H650 H 0.30081 0.56331 0.44813 0.0
H651 H 0.47307 0.6659 0.55612 0.0
H652 H 0.40833 0.62878 0.445 0.0
H653 H 0.36236 0.6152 0.55848 0.0
C654 C 0.31262 0.58661 0.53393 0.0
C655 C 0.29434 0.57205 0.50278 0.0
C656 C 0.42247 0.63658 0.46943 0.0
C657 C 0.36689 0.60622 0.50341 0.0
C658 C 0.45826 0.65811 0.46845 0.0
C659 C 0.4774 0.66947 0.49958 0.0
C660 C 0.40534 0.62664 0.50179 0.0
C661 C 0.45947 0.65775 0.53143 0.0
C662 C 0.34879 0.6035 0.5344 0.0
C663 C 0.31352 0.5742 0.47279 0.0
N664 N 0.42446 0.63735 0.53172 0.0
N665 N 0.34856 0.59119 0.4738 0.0
H666 H 0.21449 0.64752 0.96355 0.0
H667 H 0.30765 0.56403 0.8547 0.0
H668 H 0.21696 0.64821 0.85074 0.0
H669 H 0.31581 0.57983 0.96647 0.0
H670 H 0.26762 0.58656 0.85225 0.0
H671 H 0.24371 0.61391 0.96433 0.0
C672 C 0.22087 0.64025 0.93882 0.0
C673 C 0.21356 0.65109 0.90702 0.0
C674 C 0.27798 0.58481 0.8773 0.0
C675 C 0.24768 0.61263 0.90775 0.0
C676 C 0.30079 0.57185 0.87879 0.0
C677 C 0.31546 0.57024 0.91085 0.0
C678 C 0.26952 0.59601 0.90812 0.0
C679 C 0.30549 0.58079 0.94111 0.0
C680 C 0.23769 0.62108 0.93931 0.0
C681 C 0.2221 0.64045 0.87585 0.0
N682 N 0.28336 0.59327 0.93895 0.0
N683 N 0.23911 0.62214 0.87699 0.0
H684 H 0.53492 0.82283 0.96939 0.0
H685 H 0.44721 0.65198 0.85215 0.0
H686 H 0.54141 0.82738 0.85674 0.0
H687 H 0.46987 0.65272 0.9621 0.0
H688 H 0.48065 0.71562 0.85219 0.0
H689 H 0.50991 0.7601 0.96656 0.0
C690 C 0.53137 0.81069 0.94403 0.0
C691 C 0.54034 0.83058 0.91328 0.0
C692 C 0.47853 0.70173 0.87617 0.0
C693 C 0.51099 0.75821 0.90977 0.0
C694 C 0.45947 0.66535 0.87616 0.0
C695 C 0.45537 0.64667 0.9072 0.0
C696 C 0.49329 0.71961 0.90751 0.0
C697 C 0.47193 0.66569 0.93751 0.0
C698 C 0.51706 0.77477 0.94241 0.0
C699 C 0.53507 0.8132 0.88116 0.0
N700 N 0.48972 0.70087 0.93694 0.0
N701 N 0.52039 0.77803 0.88021 0.0
H702 H 0.28835 0.81032 0.96762 0.0
H703 H 0.46112 0.87681 0.8551 0.0
H704 H 0.28999 0.78439 0.85915 0.0
H705 H 0.46013 0.90786 0.96183 0.0
H706 H 0.39808 0.84641 0.85485 0.0
H707 H 0.35089 0.84956 0.96503 0.0
C708 C 0.30174 0.81304 0.94323 0.0
C709 C 0.28383 0.79366 0.91371 0.0
C710 C 0.41168 0.86014 0.87824 0.0
C711 C 0.35544 0.83845 0.91055 0.0
C712 C 0.44775 0.87762 0.87834 0.0
C713 C 0.46614 0.89475 0.9086 0.0
C714 C 0.39374 0.85958 0.90865 0.0
C715 C 0.44719 0.89483 0.93793 0.0
C716 C 0.33747 0.83543 0.94175 0.0
C717 C 0.30264 0.79843 0.88274 0.0
N718 N 0.41214 0.87729 0.93731 0.0
N719 N 0.33731 0.82006 0.88207 0.0
H720 H 0.0908 0.29665 0.70154 0.0
H721 H 0.18623 0.49075 0.62542 0.0
H722 H 0.09669 0.38278 0.75846 0.0
H723 H 0.13379 0.40128 0.55884 0.0
H724 H 0.1668 0.4523 0.67684 0.0
H725 H 0.1194 0.33553 0.65153 0.0
C726 C 0.09861 0.3238 0.70378 0.0
C727 C 0.09116 0.33638 0.73429 0.0
C728 C 0.16 0.4411 0.65092 0.0
C729 C 0.12433 0.38114 0.67724 0.0
C730 C 0.17138 0.46302 0.62152 0.0
C731 C 0.16174 0.44931 0.58762 0.0
C732 C 0.13942 0.40506 0.64651 0.0
C733 C 0.14187 0.41306 0.5844 0.0
C734 C 0.11474 0.34593 0.67514 0.0
C735 C 0.10168 0.37185 0.73544 0.0
N736 N 0.13146 0.39229 0.61331 0.0
N737 N 0.11775 0.39291 0.70752 0.0
H738 H 0.71019 0.82002 0.55858 0.0
H739 H 0.73083 0.80937 0.76286 0.0
H740 H 0.62373 0.78606 0.62837 0.0
H741 H 0.81571 0.882 0.69926 0.0
H742 H 0.69136 0.79933 0.71405 0.0
H743 H 0.74937 0.84198 0.60889 0.0
C744 C 0.69944 0.81767 0.58447 0.0
C745 C 0.66351 0.80122 0.58913 0.0
C746 C 0.71852 0.81782 0.71083 0.0
C747 C 0.70844 0.82557 0.64723 0.0
C748 C 0.74113 0.82355 0.7387 0.0
C749 C 0.77671 0.84662 0.73524 0.0
C750 C 0.7315 0.83453 0.67866 0.0
C751 C 0.7885 0.86421 0.70323 0.0
C752 C 0.72188 0.83023 0.61322 0.0
C753 C 0.65117 0.79881 0.62341 0.0
N754 N 0.76608 0.85737 0.67604 0.0
N755 N 0.67351 0.81026 0.65112 0.0
H756 H 0.22422 0.97481 0.73831 0.0
H757 H 0.32656 0.00825 0.56018 0.0
H758 H 0.31606 0.07081 0.7133 0.0
H759 H 0.29488 0.91114 0.61277 0.0
H760 H 0.3073 0.0276 0.61004 0.0
H761 H 0.23559 0.94761 0.68725 0.0
C762 C 0.24648 0.9902 0.72196 0.0
C763 C 0.26919 0.0252 0.73007 0.0
C764 C 0.30422 1.00191 0.61062 0.0
C765 C 0.28198 0.99451 0.67176 0.0
C766 C 0.31516 0.9906 0.58199 0.0
C767 C 0.31287 0.95792 0.58203 0.0
C768 C 0.29007 0.98045 0.63986 0.0
C769 C 0.29742 0.93655 0.61145 0.0
C770 C 0.25309 0.97461 0.69311 0.0
C771 C 0.29786 0.0438 0.70819 0.0
N772 N 0.28665 0.94821 0.63926 0.0
N773 N 0.30316 0.02842 0.68006 0.0
H774 H 0.43692 0.12078 0.05706 0.0
H775 H 0.3071 0.15325 0.94499 0.0
H776 H 0.44173 0.21914 0.06999 0.0
H777 H 0.3631 0.10571 0.90341 0.0
H778 H 0.34652 0.17286 0.99618 0.0
H779 H 0.3992 0.10873 1.0067 0.0
C780 C 0.42997 0.13992 0.0494 0.0
C781 C 0.44281 0.17115 0.06791 0.0
C782 C 0.35015 0.15841 0.97551 0.0
C783 C 0.39859 0.15698 1.00991 0.0
C784 C 0.32763 0.14713 0.94635 0.0
C785 C 0.33147 0.12762 0.91956 0.0
C786 C 0.37605 0.14934 0.97828 0.0
C787 C 0.35873 0.12056 0.92304 0.0
C788 C 0.40843 0.13299 1.02047 0.0
C789 C 0.43274 0.19487 0.05636 0.0
N790 N 0.37938 0.13091 0.95178 0.0
N791 N 0.41095 0.18719 1.02826 0.0
H792 H 0.99482 0.26153 0.9584 0.0
H793 H 0.89985 0.36132 1.03177 0.0
H794 H 0.96353 0.31842 0.8908 0.0
H795 H 0.9752 0.34977 0.09163 0.0
H796 H 0.91075 0.3333 0.98168 0.0
H797 H 0.9752 0.28095 1.00915 0.0
C798 C 0.98311 0.27741 0.95409 0.0
C799 C 0.98084 0.28826 0.92011 0.0
C800 C 0.92461 0.33661 1.00594 0.0
C801 C 0.95819 0.31059 0.97832 0.0
C802 C 0.91823 0.3524 1.03461 0.0
C803 C 0.9367 0.35807 0.06602 0.0
C804 C 0.94901 0.32556 1.00886 0.0
C805 C 0.96048 0.34617 0.06793 0.0
C806 C 0.9722 0.28877 0.98314 0.0
C807 C 0.96586 0.30939 0.91642 0.0
N808 N 0.96583 0.33046 0.03995 0.0
N809 N 0.95511 0.31977 0.945 0.0
H810 H 0.80645 0.67632 0.07708 0.0
H811 H 0.77278 0.74042 0.89476 0.0
H812 H 0.70832 0.66389 0.04594 0.0
H813 H 0.86716 0.80847 0.94963 0.0
H814 H 0.75372 0.70148 0.94452 0.0
H815 H 0.8334 0.71495 1.02592 0.0
C816 C 0.79056 0.68133 0.05932 0.0
C817 C 0.75502 0.66672 0.06571 0.0
C818 C 0.77875 0.72475 0.94566 0.0
C819 C 0.78545 0.71032 1.00734 0.0
C820 C 0.78988 0.7472 0.91709 0.0
C821 C 0.82166 0.7784 0.91778 0.0
C822 C 0.7995 0.73273 0.97554 0.0
C823 C 0.84243 0.78495 0.94779 0.0
C824 C 0.80598 0.70358 1.03042 0.0
C825 C 0.73574 0.6745 0.04211 0.0
N826 N 0.83096 0.76237 0.97557 0.0
N827 N 0.75105 0.69533 1.01402 0.0
H828 H 0.99297 0.71118 0.50699 0.0
H829 H 0.95825 0.7968 0.34242 0.0
H830 H 0.88802 0.6635 0.46966 0.0
H831 H 0.04336 0.7774 0.34874 0.0
H832 H 0.93206 0.75873 0.39399 0.0
H833 H 0.01204 0.74752 0.45522 0.0
C834 C 0.97367 0.70847 0.48816 0.0
C835 C 0.93862 0.68383 0.49305 0.0
C836 C 0.95635 0.76279 0.38377 0.0
C837 C 0.96091 0.72645 0.43298 0.0
C838 C 0.97142 0.78464 0.35454 0.0
C839 C 1.00314 0.79042 0.34106 0.0
C840 C 0.97367 0.74753 0.4002 0.0
C841 C 0.01889 0.77378 0.35787 0.0
C842 C 0.98479 0.7293 0.45837 0.0
C843 C 0.91526 0.68192 0.46711 0.0
N844 N 1.00431 0.75365 0.38658 0.0
N845 N 0.92678 0.70306 0.43822 0.0
H846 H 0.27676 0.26066 0.37701 0.0
H847 H 0.4714 0.34705 0.4489 0.0
H848 H 0.36472 0.31545 0.30913 0.0
H849 H 0.38285 0.32045 0.51363 0.0
H850 H 0.43326 0.32666 0.39723 0.0
H851 H 0.31569 0.27316 0.4265 0.0
C852 C 0.30428 0.27499 0.37228 0.0
C853 C 0.31723 0.2871 0.33851 0.0
C854 C 0.42219 0.32497 0.42282 0.0
C855 C 0.36244 0.3017 0.39591 0.0
C856 C 0.44392 0.3363 0.45241 0.0
C857 C 0.4304 0.33548 0.48584 0.0
C858 C 0.38656 0.31215 0.42669 0.0
C859 C 0.39455 0.32171 0.48852 0.0
C860 C 0.32658 0.28228 0.40078 0.0
C861 C 0.35337 0.30562 0.33454 0.0
N862 N 0.37406 0.31067 0.45954 0.0
N863 N 0.37464 0.31242 0.36281 0.0
H864 H 0.78864 0.1432 0.51738 0.0
H865 H 0.79557 0.1335 0.30853 0.0
H866 H 0.76399 0.20576 0.45046 0.0
H867 H 0.84401 0.09454 0.3786 0.0
H868 H 0.78321 0.15994 0.35886 0.0
H869 H 0.80855 0.1252 0.46636 0.0
C870 C 0.78782 0.15357 0.49197 0.0
C871 C 0.77469 0.17626 0.48849 0.0
C872 C 0.79682 0.14586 0.36314 0.0
C873 C 0.79692 0.15484 0.42911 0.0
C874 C 0.80391 0.1307 0.33435 0.0
C875 C 0.8209 0.11154 0.33902 0.0
C876 C 0.80633 0.14159 0.39713 0.0
C877 C 0.83093 0.10897 0.37335 0.0
C878 C 0.79917 0.14317 0.4627 0.0
C879 C 0.77421 0.18856 0.45462 0.0
N880 N 0.82326 0.12342 0.40085 0.0
N881 N 0.7847 0.1774 0.42629 0.0
H882 H 0.80023 0.0184 0.11859 0.0
H883 H 0.60625 0.91782 0.04614 0.0
H884 H 0.71369 0.97798 0.18937 0.0
H885 H 0.69239 0.99755 0.98915 0.0
H886 H 0.64462 0.92863 0.09687 0.0
H887 H 0.76046 0.99919 0.0693 0.0
C888 C 0.77283 0.00506 0.12396 0.0
C889 C 0.76055 1.00015 0.15858 0.0
C890 C 0.65507 0.9435 0.07312 0.0
C891 C 0.71439 0.97781 0.10135 0.0
C892 C 0.63328 0.93717 0.04407 0.0
C893 C 0.64609 0.95681 1.01325 0.0
C894 C 0.6901 0.96908 0.07105 0.0
C895 C 0.68129 0.98185 1.01231 0.0
C896 C 0.75007 0.99423 0.09558 0.0
C897 C 0.72451 0.9825 0.16331 0.0
N898 N 0.70194 0.9871 0.04055 0.0
N899 N 0.70273 0.97207 0.13507 0.0
H900 H 0.12839 0.80075 0.97364 0.0
H901 H 0.12804 0.81588 0.18213 0.0
H902 H 0.18151 0.76651 0.04312 0.0
H903 H 0.096 0.8725 0.11509 0.0
H904 H 0.14847 0.79876 0.13091 0.0
H905 H 0.11678 0.82802 1.02371 0.0
C906 C 0.13794 0.7992 0.99925 0.0
C907 C 0.15591 0.78102 1.00391 0.0
C908 C 0.1374 0.81529 0.12725 0.0
C909 C 0.14228 0.81203 0.06165 0.0
C910 C 0.12579 0.82521 0.15662 0.0
C911 C 0.11038 0.84587 0.15312 0.0
C912 C 0.13309 0.82539 0.0936 0.0
C913 C 0.10804 0.85691 0.11919 0.0
C914 C 0.13127 0.81483 1.02788 0.0
C915 C 0.16754 0.78007 1.03793 0.0
N916 N 0.1188 0.84617 0.09076 0.0
N917 N 0.16028 0.79494 0.06529 0.0
H918 H 0.3282 0.41951 0.98728 0.0
H919 H 0.29197 0.39871 0.19242 0.0
H920 H 0.34012 0.50575 0.04867 0.0
H921 H 0.24603 0.3136 0.11955 0.0
H922 H 0.31202 0.43923 0.14248 0.0
H923 H 0.30074 0.38119 1.03714 0.0
C924 C 0.32473 0.43036 1.01123 0.0
C925 C 0.33638 0.46595 1.0136 0.0
C926 C 0.29719 0.41167 0.13757 0.0
C927 C 0.30542 0.42197 0.07167 0.0
C928 C 0.28567 0.38846 0.1661 0.0
C929 C 0.26725 0.35242 0.1605 0.0
C930 C 0.29078 0.39882 0.1031 0.0
C931 C 0.26012 0.34095 0.12555 0.0
C932 C 0.309 0.40841 0.03979 0.0
C933 C 0.33122 0.47845 0.0455 0.0
N934 N 0.27216 0.36389 0.09848 0.0
N935 N 0.31656 0.45661 0.07343 0.0
H936 H 0.06623 0.46551 0.42645 0.0
H937 H 0.04357 0.48331 0.22357 0.0
H938 H 0.14911 0.54409 0.36511 0.0
H939 H 0.9574 0.44634 0.29419 0.0
H940 H 0.08298 0.50341 0.27386 0.0
H941 H 0.02631 0.4553 0.37794 0.0
C942 C 0.07602 0.48082 0.40283 0.0
C943 C 0.11119 0.50572 0.39997 0.0
C944 C 0.0555 0.49138 0.27838 0.0
C945 C 0.06547 0.49356 0.34374 0.0
C946 C 0.03293 0.4799 0.24966 0.0
C947 C 0.99701 0.46327 0.25453 0.0
C948 C 0.0422 0.48535 0.31254 0.0
C949 C 0.98482 0.45936 0.28907 0.0
C950 C 0.05314 0.47502 0.37516 0.0
C951 C 0.12226 0.52478 0.36865 0.0
N952 N 0.00727 0.46974 0.31669 0.0
N953 N 0.09965 0.51794 0.34162 0.0
H954 H 0.65739 0.7418 0.38688 0.0
H955 H 0.62866 0.57797 0.28141 0.0
H956 H 0.56195 0.64699 0.40517 0.0
H957 H 0.66726 0.6785 0.23379 0.0
H958 H 0.60932 0.59844 0.33217 0.0
H959 H 0.66838 0.71521 0.33653 0.0
C960 C 0.63868 0.71528 0.38033 0.0
C961 C 0.60856 0.69673 0.40026 0.0
C962 C 0.6217 0.61566 0.31026 0.0
C963 C 0.62154 0.66569 0.34256 0.0
C964 C 0.63279 0.60405 0.28132 0.0
C965 C 0.64989 0.62646 0.25306 0.0
C966 C 0.62854 0.6501 0.31123 0.0
C967 C 0.65445 0.66008 0.25469 0.0
C968 C 0.64499 0.70014 0.35148 0.0
C969 C 0.58532 0.66235 0.39031 0.0
N970 N 0.64442 0.67086 0.28325 0.0
N971 N 0.59243 0.64774 0.36231 0.0
H972 H 0.47004 0.07005 0.22452 0.0
H973 H 0.4343 0.04851 0.428 0.0
H974 H 0.51988 0.15678 0.29483 0.0
H975 H 0.42447 0.96385 0.3653 0.0
H976 H 0.46443 0.08836 0.37961 0.0
H977 H 0.4523 0.03061 0.27479 0.0
C978 C 0.47782 0.08081 0.25053 0.0
C979 C 0.4967 0.1169 0.25533 0.0
C980 C 0.45613 0.06117 0.3765 0.0
C981 C 0.4754 0.07164 0.31337 0.0
C982 C 0.43884 0.03834 0.40413 0.0
C983 C 0.42681 1.0027 0.40081 0.0
C984 C 0.46078 0.04836 0.34467 0.0
C985 C 0.43348 0.99109 0.36918 0.0
C986 C 0.4676 0.05822 0.27926 0.0
C987 C 0.50572 0.12923 0.28976 0.0
N988 N 0.44946 0.01372 0.34218 0.0
N989 N 0.4945 0.10674 0.31741 0.0
H990 H 0.65919 0.08069 0.65032 0.0
H991 H 0.62763 0.06594 0.85475 0.0
H992 H 0.66779 0.16688 0.70936 0.0
H993 H 0.57351 0.97729 0.78745 0.0
H994 H 0.64561 0.10373 0.80304 0.0
H995 H 0.63113 0.04269 0.70064 0.0
C996 C 0.65491 0.0916 0.67379 0.0
C997 C 0.66586 0.12713 0.67546 0.0
C998 C 0.62939 0.07606 0.79959 0.0
C999 C 0.63432 0.08365 0.73377 0.0
C1000 C 0.61905 0.05442 0.82913 0.0
C1001 C 0.59876 0.01827 0.82562 0.0
C1002 C 0.62032 0.06156 0.76596 0.0
C1003 C 0.58876 0.00494 0.79159 0.0
C1004 C 0.63879 0.06983 0.70251 0.0
C1005 C 0.65958 0.13969 0.7067 0.0
N1006 N 0.60009 0.02645 0.76316 0.0
N1007 N 0.64478 0.11815 0.73473 0.0
H1008 H 0.04591 0.64394 0.85914 0.0
H1009 H 0.02371 0.65542 0.65359 0.0
H1010 H 0.13022 0.6818 0.78579 0.0
H1011 H 0.93788 0.58446 0.71721 0.0
H1012 H 0.0624 0.66639 0.70306 0.0
H1013 H 0.00522 0.62253 0.80958 0.0
C1014 C 0.05595 0.64739 0.83279 0.0
C1015 C 0.0918 0.66497 0.82691 0.0
C1016 C 0.0352 0.6481 0.7063 0.0
C1017 C 0.04518 0.64096 0.76994 0.0
C1018 C 0.01304 0.64181 0.67796 0.0
C1019 C 0.97747 0.61885 0.68111 0.0
C1020 C 0.02186 0.63202 0.73869 0.0
C1021 C 0.96517 0.60208 0.71348 0.0
C1022 C 0.03264 0.63516 0.80447 0.0
C1023 C 0.103 0.66863 0.79196 0.0
N1024 N 0.98723 0.60935 0.74117 0.0
N1025 N 0.07996 0.65719 0.76506 0.0
H1026 H 0.43244 0.39337 0.68781 0.0
H1027 H 0.46673 0.55622 0.80044 0.0
H1028 H 0.53047 0.48662 0.67463 0.0
H1029 H 0.4182 0.45231 0.84186 0.0
H1030 H 0.48564 0.536 0.7491 0.0
H1031 H 0.42084 0.41901 0.73853 0.0
C1032 C 0.45159 0.41938 0.69551 0.0
C1033 C 0.48261 0.43771 0.67683 0.0
C1034 C 0.47113 0.51792 0.76976 0.0
C1035 C 0.46896 0.46774 0.73518 0.0
C1036 C 0.46025 0.52939 0.79902 0.0
C1037 C 0.4407 0.50608 0.82583 0.0
C1038 C 0.4616 0.48275 0.76689 0.0
C1039 C 0.43314 0.47152 0.82224 0.0
C1040 C 0.44493 0.43398 0.72462 0.0
C1041 C 0.50637 0.47139 0.6884 0.0
N1042 N 0.4431 0.46099 0.79339 0.0
N1043 N 0.49895 0.4855 0.71665 0.0
H1044 H 0.12394 0.39506 0.84402 0.0
H1045 H 0.29989 0.40609 0.90319 0.0
H1046 H 0.12956 0.31846 0.90873 0.0
H1047 H 0.29493 0.4845 0.84102 0.0
H1048 H 0.23724 0.37257 0.90354 0.0
H1049 H 0.18659 0.4294 0.84443 0.0
C1050 C 0.13835 0.38585 0.85898 0.0
C1051 C 0.12161 0.35371 0.87608 0.0
C1052 C 0.24982 0.39693 0.88952 0.0
C1053 C 0.19314 0.39237 0.87586 0.0
C1054 C 0.28556 0.41588 0.88895 0.0
C1055 C 0.30251 0.44817 0.87221 0.0
C1056 C 0.23096 0.41047 0.87333 0.0
C1057 C 0.28282 0.45964 0.85411 0.0
C1058 C 0.17411 0.40529 0.85888 0.0
C1059 C 0.14145 0.34308 0.89519 0.0
N1060 N 0.24793 0.44092 0.85549 0.0
N1061 N 0.17631 0.3622 0.89416 0.0
H1062 H 0.80113 0.90647 0.90607 0.0
H1063 H 0.63052 0.90144 0.83665 0.0
H1064 H 0.72022 0.82126 0.8485 0.0
H1065 H 0.70546 0.98234 0.9033 0.0
H1066 H 0.66609 0.87428 0.83672 0.0
H1067 H 0.76672 0.93508 0.90579 0.0
C1068 C 0.77571 0.89334 0.8943 0.0
C1069 C 0.76353 0.86167 0.87702 0.0
C1070 C 0.6749 0.89816 0.85105 0.0
C1071 C 0.72481 0.89455 0.87554 0.0
C1072 C 0.65489 0.91397 0.85054 0.0
C1073 C 0.66489 0.94388 0.87038 0.0
C1074 C 0.70501 0.91249 0.87149 0.0
C1075 C 0.69663 0.95898 0.88802 0.0
C1076 C 0.75635 0.90991 0.89363 0.0
C1077 C 0.73064 0.84589 0.86181 0.0
N1078 N 0.71542 0.94285 0.88852 0.0
N1079 N 0.71255 0.86273 0.86105 0.0
H1080 H 0.22501 0.82084 0.83076 0.0
H1081 H 0.20422 0.97841 0.89923 0.0
H1082 H 0.13736 0.80643 0.89123 0.0
H1083 H 0.29503 0.98911 0.84828 0.0
H1084 H 0.17875 0.91542 0.89755 0.0
H1085 H 0.24877 0.88308 0.83384 0.0
C1086 C 0.21041 0.83078 0.84408 0.0
C1087 C 0.17932 0.80848 0.86098 0.0
C1088 C 0.20444 0.93163 0.8872 0.0
C1089 C 0.2068 0.87971 0.86547 0.0
C1090 C 0.21918 0.96752 0.88866 0.0
C1091 C 0.25165 0.98881 0.87369 0.0
C1092 C 0.22242 0.91731 0.87062 0.0
C1093 C 0.26978 0.9735 0.85984 0.0
C1094 C 0.22418 0.86634 0.84621 0.0
C1095 C 0.16141 0.82274 0.87777 0.0
N1096 N 0.25475 0.93865 0.85831 0.0
N1097 N 0.17565 0.85761 0.87996 0.0
H1098 H 0.38539 0.28448 0.61546 0.0
H1099 H 0.37243 0.17878 0.78964 0.0
H1100 H 0.47135 0.31009 0.6846 0.0
H1101 H 0.2861 0.15452 0.72152 0.0
H1102 H 0.4093 0.22717 0.75134 0.0
H1103 H 0.3488 0.23556 0.65329 0.0
C1104 C 0.39661 0.2797 0.63844 0.0
C1105 C 0.43137 0.30154 0.64706 0.0
C1106 C 0.38226 0.21124 0.74485 0.0
C1107 C 0.38973 0.24592 0.69048 0.0
C1108 C 0.3612 0.18373 0.76678 0.0
C1109 C 0.32622 0.16247 0.75864 0.0
C1110 C 0.36816 0.21747 0.71468 0.0
C1111 C 0.313 0.17008 0.72869 0.0
C1112 C 0.3757 0.25188 0.6601 0.0
C1113 C 0.44459 0.29411 0.67712 0.0
N1114 N 0.33403 0.1969 0.70774 0.0
N1115 N 0.4237 0.26699 0.69782 0.0
H1116 H 0.82404 0.18099 0.61938 0.0
H1117 H 0.9319 0.28122 0.78963 0.0
H1118 H 0.79806 0.24224 0.6869 0.0
H1119 H 0.95925 0.22133 0.72169 0.0
H1120 H 0.88203 0.26647 0.75243 0.0
H1121 H 0.87412 0.19564 0.6564 0.0
C1122 C 0.82891 0.19756 0.64187 0.0
C1123 C 0.80675 0.21019 0.65022 0.0
C1124 C 0.89898 0.25657 0.74571 0.0
C1125 C 0.86365 0.2269 0.69258 0.0
C1126 C 0.92737 0.26492 0.76699 0.0
C1127 C 0.94985 0.25269 0.75861 0.0
C1128 C 0.8931 0.23581 0.71599 0.0
C1129 C 0.94273 0.23156 0.729 0.0
C1130 C 0.8574 0.20584 0.66303 0.0
C1131 C 0.81429 0.23164 0.67962 0.0
N1132 N 0.91499 0.22386 0.70871 0.0
N1133 N 0.84205 0.23924 0.69977 0.0
H1134 H 0.82723 0.73812 0.78953 0.0
H1135 H 0.92716 0.72587 0.62197 0.0
H1136 H 0.8897 0.82444 0.72129 0.0
H1137 H 0.86301 0.63923 0.68916 0.0
H1138 H 0.91306 0.76246 0.65765 0.0
H1139 H 0.84027 0.70132 0.75297 0.0
C1140 C 0.84372 0.74933 0.76694 0.0
C1141 C 0.85724 0.78429 0.75831 0.0
C1142 C 0.90207 0.73541 0.6645 0.0
C1143 C 0.87215 0.74251 0.71646 0.0
C1144 C 0.91005 0.71454 0.64411 0.0
C1145 C 0.89649 0.67959 0.65282 0.0
C1146 C 0.88039 0.72111 0.69366 0.0
C1147 C 0.87433 0.66616 0.68169 0.0
C1148 C 0.85108 0.72833 0.74604 0.0
C1149 C 0.87853 0.79753 0.72879 0.0
N1150 N 0.86707 0.687 0.70116 0.0
N1151 N 0.88529 0.77658 0.70888 0.0
H1152 H 0.96747 0.73438 0.22711 0.0
H1153 H 0.79114 0.72833 0.18054 0.0
H1154 H 0.96084 0.81317 0.16724 0.0
H1155 H 0.7971 0.64825 0.23856 0.0
H1156 H 0.85377 0.76118 0.17791 0.0
H1157 H 0.90483 0.70109 0.2295 0.0
C1158 C 0.95278 0.74425 0.21372 0.0
C1159 C 0.96925 0.77677 0.1974 0.0
C1160 C 0.84142 0.73662 0.19158 0.0
C1161 C 0.89791 0.73943 0.2009 0.0
C1162 C 0.80573 0.7181 0.19349 0.0
C1163 C 0.78909 0.68544 0.20945 0.0
C1164 C 0.86041 0.72222 0.20563 0.0
C1165 C 0.80902 0.67337 0.22601 0.0
C1166 C 0.91707 0.72546 0.21548 0.0
C1167 C 0.94913 0.78826 0.18022 0.0
N1168 N 0.8438 0.69161 0.22321 0.0
N1169 N 0.91437 0.76979 0.1829 0.0
H1170 H 0.28637 0.21614 0.16743 0.0
H1171 H 0.46383 0.23803 0.23843 0.0
H1172 H 0.36086 0.30585 0.22512 0.0
H1173 H 0.3849 0.14652 0.18674 0.0
H1174 H 0.42605 0.26292 0.23615 0.0
H1175 H 0.32402 0.19164 0.17233 0.0
C1176 C 0.311 0.23102 0.18049 0.0
C1177 C 0.32039 0.26293 0.19613 0.0
C1178 C 0.41685 0.23719 0.22578 0.0
C1179 C 0.36316 0.23464 0.20268 0.0
C1180 C 0.43816 0.22276 0.22759 0.0
C1181 C 0.42749 0.19035 0.21243 0.0
C1182 C 0.38488 0.21896 0.2087 0.0
C1183 C 0.3942 0.17178 0.19837 0.0
C1184 C 0.3323 0.21683 0.18368 0.0
C1185 C 0.35264 0.28115 0.21265 0.0
N1186 N 0.37421 0.18656 0.19645 0.0
N1187 N 0.37277 0.26652 0.21586 0.0
H1188 H 0.89053 0.15374 0.16294 0.0
H1189 H 0.87214 0.31187 0.23403 0.0
H1190 H 0.80458 0.14001 0.22598 0.0
H1191 H 0.96132 0.32211 0.17978 0.0
H1192 H 0.84625 0.24889 0.23185 0.0
H1193 H 0.91424 0.216 0.16531 0.0
C1194 C 0.87627 0.16383 0.17667 0.0
C1195 C 0.84574 0.14177 0.19455 0.0
C1196 C 0.87166 0.265 0.22083 0.0
C1197 C 0.87318 0.21297 0.19823 0.0
C1198 C 0.88666 0.30088 0.22256 0.0
C1199 C 0.91879 0.32207 0.20687 0.0
C1200 C 0.88903 0.25057 0.20329 0.0
C1201 C 0.93634 0.30662 0.19193 0.0
C1202 C 0.89001 0.1994 0.17838 0.0
C1203 C 0.82821 0.15617 0.2118 0.0
N1204 N 0.92106 0.27176 0.1902 0.0
N1205 N 0.84246 0.19104 0.21362 0.0
H1206 H 0.81028 0.96974 0.3469 0.0
H1207 H 0.61867 0.83103 0.39991 0.0
H1208 H 0.72119 0.97218 0.30666 0.0
H1209 H 0.70828 0.84696 0.45808 0.0
H1210 H 0.6555 0.88158 0.36423 0.0
H1211 H 0.7729 0.92282 0.38593 0.0
C1212 C 0.78281 0.96034 0.34616 0.0
C1213 C 0.76879 0.97485 0.3234 0.0
C1214 C 0.66705 0.87416 0.38497 0.0
C1215 C 0.72594 0.92121 0.36819 0.0
C1216 C 0.6461 0.84529 0.40527 0.0
C1217 C 0.66057 0.83463 0.43169 0.0
C1218 C 0.7027 0.89222 0.39096 0.0
C1219 C 0.69613 0.85423 0.43786 0.0
C1220 C 0.76154 0.9337 0.36866 0.0
C1221 C 0.73306 0.96173 0.32378 0.0
N1222 N 0.71608 0.88196 0.41734 0.0
N1223 N 0.71278 0.93547 0.34579 0.0
H1224 H 0.16022 0.85202 0.28111 0.0
H1225 H 0.26614 0.94892 0.45315 0.0
H1226 H 0.13034 0.9077 0.35214 0.0
H1227 H 0.29384 0.89018 0.38389 0.0
H1228 H 0.21678 0.93529 0.41558 0.0
H1229 H 0.21091 0.86784 0.31735 0.0
C1230 C 0.16438 0.86765 0.30423 0.0
C1231 C 0.14092 0.87827 0.31385 0.0
C1232 C 0.23373 0.92543 0.40866 0.0
C1233 C 0.19856 0.89634 0.35533 0.0
C1234 C 0.26182 0.93314 0.43012 0.0
C1235 C 0.28416 0.92078 0.42155 0.0
C1236 C 0.22805 0.90522 0.37856 0.0
C1237 C 0.27737 0.9004 0.39143 0.0
C1238 C 0.19324 0.87661 0.32494 0.0
C1239 C 0.1476 0.89864 0.34395 0.0
N1240 N 0.24991 0.8933 0.371 0.0
N1241 N 0.17578 0.90691 0.36371 0.0
H1242 H 0.23677 0.49218 0.39697 0.0
H1243 H 0.19005 0.30016 0.35099 0.0
H1244 H 0.16467 0.40277 0.45664 0.0
H1245 H 0.27849 0.39013 0.3075 0.0
H1246 H 0.17984 0.33765 0.38906 0.0
H1247 H 0.25232 0.45552 0.3635 0.0
C1248 C 0.22427 0.46482 0.40309 0.0
C1249 C 0.19904 0.45034 0.42928 0.0
C1250 C 0.20159 0.34921 0.37134 0.0
C1251 C 0.21672 0.40841 0.39112 0.0
C1252 C 0.20735 0.32786 0.3494 0.0
C1253 C 0.2351 0.3421 0.32586 0.0
C1254 C 0.22348 0.38512 0.36954 0.0
C1255 C 0.25678 0.37811 0.32522 0.0
C1256 C 0.23329 0.44399 0.38407 0.0
C1257 C 0.18407 0.41492 0.43651 0.0
N1258 N 0.25036 0.39848 0.34665 0.0
N1259 N 0.19293 0.39505 0.41724 0.0
H1260 H 0.04373 0.51097 0.12408 0.0
H1261 H 0.05422 0.64172 0.97489 0.0
H1262 H 0.95517 0.49915 0.0668 0.0
H1263 H 0.14258 0.63736 1.01425 0.0
H1264 H 0.01731 0.59419 1.01412 0.0
H1265 H 0.0804 0.56305 0.08997 0.0
C1266 C 0.03201 0.51945 0.1045 0.0
C1267 C 0.9965 0.50053 0.09785 0.0
C1268 C 0.0448 0.60373 1.01411 0.0
C1269 C 0.03806 0.55978 0.05897 0.0
C1270 C 0.06584 0.6308 0.99175 0.0
C1271 C 0.10146 0.64336 0.99116 0.0
C1272 C 0.05959 0.58939 1.03611 0.0
C1273 C 0.1152 0.62833 1.01363 0.0
C1274 C 0.05291 0.54904 0.08499 0.0
C1275 C 0.98255 0.51272 0.07236 0.0
N1276 N 0.09421 0.60212 1.03522 0.0
N1277 N 1.00341 0.54155 0.05372 0.0
H1278 H 0.47156 0.58573 1.01776 0.0
H1279 H 0.62531 0.54977 0.05912 0.0
H1280 H 0.49036 0.51431 0.95855 0.0
H1281 H 0.60188 0.61613 0.12152 0.0
H1282 H 0.5765 0.53693 1.02147 0.0
H1283 H 0.5207 0.59863 0.05466 0.0
C1284 C 0.48611 0.57278 1.01246 0.0
C1285 C 0.47669 0.54861 0.98529 0.0
C1286 C 0.58199 0.55424 0.04343 0.0
C1287 C 0.53293 0.56328 1.02753 0.0
C1288 C 0.60982 0.56159 0.06496 0.0
C1289 C 0.61779 0.5843 0.0933 0.0
C1290 C 0.56205 0.56975 0.05029 0.0
C1291 C 0.59669 0.59857 0.09988 0.0
C1292 C 0.51414 0.58015 1.03361 0.0
C1293 C 0.4967 0.53301 0.97932 0.0
N1294 N 0.5698 0.59115 0.07836 0.0
N1295 N 0.5239 0.54052 1.00049 0.0
H1296 H 0.56112 0.16286 0.05833 0.0
H1297 H 0.53165 0.97393 1.02349 0.0
H1298 H 0.50148 0.07515 0.126 0.0
H1299 H 0.5946 0.06204 0.95749 0.0
H1300 H 0.51979 0.01071 0.0608 0.0
H1301 H 0.57407 0.12654 1.02128 0.0
C1302 C 0.55082 0.13595 0.06546 0.0
C1303 C 0.52991 0.12186 0.09511 0.0
C1304 C 0.53619 0.02205 1.03818 0.0
C1305 C 0.5446 0.08025 0.05276 0.0
C1306 C 0.54296 1.00106 1.01678 0.0
C1307 C 0.56439 0.01506 0.98747 0.0
C1308 C 0.55089 0.05729 1.0302 0.0
C1309 C 0.57802 0.05025 0.97989 0.0
C1310 C 0.55822 0.11526 0.04426 0.0
C1311 C 0.51759 0.087 0.10331 0.0
N1312 N 0.57111 0.07026 1.00127 0.0
N1313 N 0.525 0.0673 0.08207 0.0
H1314 H 0.62649 0.14891 0.50219 0.0
H1315 H 0.46057 0.97823 0.57156 0.0
H1316 H 0.63142 0.07051 0.56447 0.0
H1317 H 0.45662 0.05949 0.51368 0.0
H1318 H 0.52341 0.01241 0.57103 0.0
H1319 H 0.56378 0.11458 0.50344 0.0
C1320 C 0.6144 0.12405 0.51532 0.0
C1321 C 0.63408 0.11266 0.53356 0.0
C1322 C 0.50875 0.02294 0.55886 0.0
C1323 C 0.56262 0.07394 0.53608 0.0
C1324 C 0.47291 1.00371 0.55969 0.0
C1325 C 0.45354 0.01601 0.54237 0.0
C1326 C 0.525 0.0545 0.54059 0.0
C1327 C 0.47074 0.04897 0.52704 0.0
C1328 C 0.57861 0.10473 0.51653 0.0
C1329 C 0.61712 0.08037 0.55037 0.0
N1330 N 0.50558 0.06693 0.52612 0.0
N1331 N 0.58226 0.06228 0.55157 0.0
H1332 H 0.03716 0.64442 0.56852 0.0
H1333 H 0.05442 0.48308 0.50755 0.0
H1334 H 0.95867 0.55872 0.50939 0.0
H1335 H 0.12911 0.56596 0.57252 0.0
H1336 H 0.01847 0.50979 0.50835 0.0
H1337 H 0.07269 0.61733 0.56709 0.0
C1338 C 0.02773 0.62019 0.5546 0.0
C1339 C 0.99488 0.60359 0.53925 0.0
C1340 C 0.04254 0.52192 0.52274 0.0
C1341 C 0.03494 0.57209 0.53829 0.0
C1342 C 0.06292 0.50654 0.5226 0.0
C1343 C 0.09492 0.52254 0.53977 0.0
C1344 C 0.05436 0.55354 0.54005 0.0
C1345 C 0.10462 0.55276 0.55896 0.0
C1346 C 0.04785 0.60457 0.55412 0.0
C1347 C 0.98392 0.57239 0.52143 0.0
N1348 N 0.08454 0.56756 0.55822 0.0
N1349 N 1.00382 0.55737 0.52179 0.0
H1350 H 0.62807 0.65688 0.51102 0.0
H1351 H 0.464 0.47775 0.56564 0.0
H1352 H 0.54403 0.64909 0.57324 0.0
H1353 H 0.54797 0.48563 0.50322 0.0
H1354 H 0.49201 0.54061 0.56696 0.0
H1355 H 0.60002 0.59402 0.50972 0.0
C1356 C 0.60405 0.64192 0.52505 0.0
C1357 C 0.58819 0.65817 0.54207 0.0
C1358 C 0.50414 0.52861 0.55266 0.0
C1359 C 0.55559 0.58633 0.53989 0.0
C1360 C 0.48799 0.49273 0.55157 0.0
C1361 C 0.50384 0.4765 0.5345 0.0
C1362 C 0.5364 0.54834 0.53669 0.0
C1363 C 0.53482 0.49709 0.51662 0.0
C1364 C 0.58788 0.60604 0.52396 0.0
C1365 C 0.55718 0.63761 0.55989 0.0
N1366 N 0.55034 0.53206 0.51854 0.0
N1367 N 0.54163 0.60263 0.55798 0.0
loop_
_geom_bond_atom_site_label_1
_geom_bond_atom_site_label_2
_geom_bond_distance
_geom_bond_site_symmetry_2
_ccdc_geom_bond_type
Fe0 O2 1.918 . S
Fe0 O5 1.997 . S
Fe0 O6 2.002 . S
Fe0 O11 1.976 . S
Fe0 O14 1.996 1_455 S
Fe1 O2 1.918 . S
Fe1 O9 1.997 . S
Fe1 O12 1.996 . S
Fe1 O16 1.976 . S
Fe1 O19 2.002 . S
O2 Fe0 1.918 . S
O2 Fe1 1.918 . S
O2 Fe3 1.918 . S
Fe3 O2 1.918 . S
Fe3 O4 2.002 . S
Fe3 O13 1.976 1_455 S
Fe3 O17 1.996 1_455 S
Fe3 O20 1.997 . S
O4 Fe3 2.002 . S
O4 C21 1.295 . S
O5 Fe0 1.997 . S
O5 C21 1.235 . S
O6 Fe0 2.002 . S
O6 C7 1.295 . S
C7 O6 1.295 . S
C7 O9 1.235 . S
C8 O13 1.287 . S
C8 O14 1.255 . S
O9 Fe1 1.997 . S
O9 C7 1.235 . S
C10 O16 1.287 1_655 S
C10 O17 1.255 . S
O11 Fe0 1.976 . S
O11 C18 1.287 . S
O12 Fe1 1.996 . S
O12 C18 1.255 . S
O13 Fe3 1.976 1_655 S
O13 C8 1.287 . S
O14 Fe0 1.996 1_655 S
O14 C8 1.255 . S
C15 O19 1.295 . S
C15 O20 1.235 . S
O16 Fe1 1.976 . S
O16 C10 1.287 1_455 S
O17 Fe3 1.996 1_655 S
O17 C10 1.255 . S
C18 O11 1.287 . S
C18 O12 1.255 . S
O19 Fe1 2.002 . S
O19 C15 1.295 . S
O20 Fe3 1.997 . S
O20 C15 1.235 . S
C21 O4 1.295 . S
C21 O5 1.235 . S
Fe22 O24 1.918 . S
Fe22 O27 1.997 . S
Fe22 O28 2.002 . S
Fe22 O33 1.976 . S
Fe22 O36 1.996 . S
Fe23 O24 1.918 . S
Fe23 O31 1.997 . S
Fe23 O34 1.996 . S
Fe23 O38 1.976 . S
Fe23 O41 2.002 . S
O24 Fe22 1.918 . S
O24 Fe23 1.918 . S
O24 Fe25 1.918 . S
Fe25 O24 1.918 . S
Fe25 O26 2.002 . S
Fe25 O35 1.976 . S
Fe25 O39 1.996 . S
Fe25 O42 1.997 . S
O26 Fe25 2.002 . S
O26 C43 1.295 . S
O27 Fe22 1.997 . S
O27 C43 1.235 . S
O28 Fe22 2.002 . S
O28 C29 1.295 . S
C29 O28 1.295 . S
C29 O31 1.235 . S
C30 O35 1.287 . S
C30 O36 1.255 . S
O31 Fe23 1.997 . S
O31 C29 1.235 . S
C32 O38 1.287 . S
C32 O39 1.255 . S
O33 Fe22 1.976 . S
O33 C40 1.287 . S
O34 Fe23 1.996 . S
O34 C40 1.255 . S
O35 Fe25 1.976 . S
O35 C30 1.287 . S
O36 Fe22 1.996 . S
O36 C30 1.255 . S
C37 O41 1.295 . S
C37 O42 1.235 . S
O38 Fe23 1.976 . S
O38 C32 1.287 . S
O39 Fe25 1.996 . S
O39 C32 1.255 . S
C40 O33 1.287 . S
C40 O34 1.255 . S
O41 Fe23 2.002 . S
O41 C37 1.295 . S
O42 Fe25 1.997 . S
O42 C37 1.235 . S
C43 O26 1.295 . S
C43 O27 1.235 . S
Fe44 O46 1.918 . S
Fe44 O49 1.997 . S
Fe44 O50 2.002 . S
Fe44 O55 1.976 . S
Fe44 O58 1.996 . S
Fe45 O46 1.918 . S
Fe45 O53 1.997 . S
Fe45 O56 1.996 . S
Fe45 O60 1.976 . S
Fe45 O63 2.002 . S
O46 Fe44 1.918 . S
O46 Fe45 1.918 . S
O46 Fe47 1.918 . S
Fe47 O46 1.918 . S
Fe47 O48 2.002 . S
Fe47 O57 1.976 . S
Fe47 O61 1.996 . S
Fe47 O64 1.997 . S
O48 Fe47 2.002 . S
O48 C65 1.295 . S
O49 Fe44 1.997 . S
O49 C65 1.235 . S
O50 Fe44 2.002 . S
O50 C51 1.295 . S
C51 O50 1.295 . S
C51 O53 1.235 . S
C52 O57 1.270 1_565 S
C52 O58 1.251 1_565 S
O53 Fe45 1.997 . S
O53 C51 1.235 . S
C54 O60 1.287 . S
C54 O61 1.255 . S
O55 Fe44 1.976 . S
O55 C62 1.287 . S
O56 Fe45 1.996 . S
O56 C62 1.255 . S
O57 Fe47 1.976 . S
O57 C52 1.270 1_545 S
O58 Fe44 1.996 . S
O58 C52 1.251 1_545 S
C59 O63 1.295 . S
C59 O64 1.235 . S
O60 Fe45 1.976 . S
O60 C54 1.287 . S
O61 Fe47 1.996 . S
O61 C54 1.255 . S
C62 O55 1.287 . S
C62 O56 1.255 . S
O63 Fe45 2.002 . S
O63 C59 1.295 . S
O64 Fe47 1.997 . S
O64 C59 1.235 . S
C65 O48 1.295 . S
C65 O49 1.235 . S
Fe66 O68 1.918 . S
Fe66 O71 1.972 1_455 S
Fe66 O72 2.002 1_455 S
Fe66 O77 1.976 . S
Fe66 O80 1.996 . S
Fe67 O68 1.918 . S
Fe67 O75 1.997 1_455 S
Fe67 O78 1.996 . S
Fe67 O82 1.976 . S
Fe67 O85 2.002 . S
O68 Fe66 1.918 . S
O68 Fe67 1.918 . S
O68 Fe69 1.918 . S
Fe69 O68 1.918 . S
Fe69 O70 2.002 . S
Fe69 O79 1.976 . S
Fe69 O83 1.996 . S
Fe69 O86 1.997 . S
O70 Fe69 2.002 . S
O70 C87 1.295 1_455 S
O71 Fe66 1.972 1_655 S
O71 C87 1.243 . S
O72 Fe66 2.002 1_655 S
O72 C73 1.295 . S
C73 O72 1.295 . S
C73 O75 1.235 . S
C74 O79 1.287 . S
C74 O80 1.255 . S
O75 Fe67 1.997 1_655 S
O75 C73 1.235 . S
C76 O82 1.287 . S
C76 O83 1.255 . S
O77 Fe66 1.976 . S
O77 C84 1.287 . S
O78 Fe67 1.996 . S
O78 C84 1.255 . S
O79 Fe69 1.976 . S
O79 C74 1.287 . S
O80 Fe66 1.996 . S
O80 C74 1.255 . S
C81 O85 1.295 . S
C81 O86 1.235 . S
O82 Fe67 1.976 . S
O82 C76 1.287 . S
O83 Fe69 1.996 . S
O83 C76 1.255 . S
C84 O77 1.287 . S
C84 O78 1.255 . S
O85 Fe67 2.002 . S
O85 C81 1.295 . S
O86 Fe69 1.997 . S
O86 C81 1.235 . S
C87 O70 1.295 1_655 S
C87 O71 1.243 . S
Fe88 O90 1.918 . S
Fe88 O93 1.997 . S
Fe88 O94 2.002 . S
Fe88 O99 1.976 . S
Fe88 O102 1.996 . S
Fe89 O90 1.918 . S
Fe89 O97 1.997 . S
Fe89 O100 1.996 . S
Fe89 O104 1.976 . S
Fe89 O107 2.002 . S
O90 Fe88 1.918 . S
O90 Fe89 1.918 . S
O90 Fe91 1.918 . S
Fe91 O90 1.918 . S
Fe91 O92 2.002 . S
Fe91 O101 1.976 . S
Fe91 O105 1.996 . S
Fe91 O108 1.997 . S
O92 Fe91 2.002 . S
O92 C109 1.295 . S
O93 Fe88 1.997 . S
O93 C109 1.235 . S
O94 Fe88 2.002 . S
O94 C95 1.295 . S
C95 O94 1.295 . S
C95 O97 1.235 . S
C96 O101 1.287 . S
C96 O102 1.255 . S
O97 Fe89 1.997 . S
O97 C95 1.235 . S
C98 O104 1.287 . S
C98 O105 1.255 . S
O99 Fe88 1.976 . S
O99 C106 1.287 . S
O100 Fe89 1.996 . S
O100 C106 1.255 . S
O101 Fe91 1.976 . S
O101 C96 1.287 . S
O102 Fe88 1.996 . S
O102 C96 1.255 . S
C103 O107 1.295 . S
C103 O108 1.235 . S
O104 Fe89 1.976 . S
O104 C98 1.287 . S
O105 Fe91 1.996 . S
O105 C98 1.255 . S
C106 O99 1.287 . S
C106 O100 1.255 . S
O107 Fe89 2.002 . S
O107 C103 1.295 . S
O108 Fe91 1.997 . S
O108 C103 1.235 . S
C109 O92 1.295 . S
C109 O93 1.235 . S
Fe110 O112 1.918 . S
Fe110 O115 1.997 . S
Fe110 O116 2.002 . S
Fe110 O121 1.976 . S
Fe110 O124 1.996 . S
Fe111 O112 1.918 . S
Fe111 O119 1.997 . S
Fe111 O122 1.996 . S
Fe111 O126 1.976 . S
Fe111 O129 2.002 . S
O112 Fe110 1.918 . S
O112 Fe111 1.918 . S
O112 Fe113 1.918 . S
Fe113 O112 1.918 . S
Fe113 O114 2.002 . S
Fe113 O123 1.976 . S
Fe113 O127 1.996 . S
Fe113 O130 1.997 . S
O114 Fe113 2.002 . S
O114 C131 1.295 . S
O115 Fe110 1.997 . S
O115 C131 1.235 . S
O116 Fe110 2.002 . S
O116 C117 1.303 1_545 S
C117 O116 1.303 1_565 S
C117 O119 1.209 1_565 S
C118 O123 1.287 . S
C118 O124 1.255 . S
O119 Fe111 1.997 . S
O119 C117 1.209 1_545 S
C120 O126 1.287 . S
C120 O127 1.255 . S
O121 Fe110 1.976 . S
O121 C128 1.287 . S
O122 Fe111 1.996 . S
O122 C128 1.255 . S
O123 Fe113 1.976 . S
O123 C118 1.287 . S
O124 Fe110 1.996 . S
O124 C118 1.255 . S
C125 O129 1.295 . S
C125 O130 1.235 . S
O126 Fe111 1.976 . S
O126 C120 1.287 . S
O127 Fe113 1.996 . S
O127 C120 1.255 . S
C128 O121 1.287 . S
C128 O122 1.255 . S
O129 Fe111 2.002 . S
O129 C125 1.295 . S
O130 Fe113 1.997 . S
O130 C125 1.235 . S
C131 O114 1.295 . S
C131 O115 1.235 . S
Fe132 O134 1.918 . S
Fe132 O137 1.997 . S
Fe132 O138 2.002 . S
Fe132 O143 1.976 . S
Fe132 O146 1.996 . S
Fe133 O134 1.918 . S
Fe133 O141 1.997 . S
Fe133 O144 1.996 . S
Fe133 O148 1.976 . S
Fe133 O151 2.002 . S
O134 Fe132 1.918 . S
O134 Fe133 1.918 . S
O134 Fe135 1.918 . S
Fe135 O134 1.918 . S
Fe135 O136 2.002 . S
Fe135 O145 1.976 . S
Fe135 O149 1.996 . S
Fe135 O152 1.997 . S
O136 Fe135 2.002 . S
O136 C153 1.295 . S
O137 Fe132 1.997 . S
O137 C153 1.235 . S
O138 Fe132 2.002 . S
O138 C139 1.295 . S
C139 O138 1.295 . S
C139 O141 1.235 . S
C140 O145 1.287 . S
C140 O146 1.255 . S
O141 Fe133 1.997 . S
O141 C139 1.235 . S
C142 O148 1.287 . S
C142 O149 1.255 . S
O143 Fe132 1.976 . S
O143 C150 1.287 . S
O144 Fe133 1.996 . S
O144 C150 1.255 . S
O145 Fe135 1.976 . S
O145 C140 1.287 . S
O146 Fe132 1.996 . S
O146 C140 1.255 . S
C147 O151 1.295 . S
C147 O152 1.235 . S
O148 Fe133 1.976 . S
O148 C142 1.287 . S
O149 Fe135 1.996 . S
O149 C142 1.255 . S
C150 O143 1.287 . S
C150 O144 1.255 . S
O151 Fe133 2.002 . S
O151 C147 1.295 . S
O152 Fe135 1.997 . S
O152 C147 1.235 . S
C153 O136 1.295 . S
C153 O137 1.235 . S
Fe154 O156 1.918 . S
Fe154 O159 1.997 . S
Fe154 O160 2.002 . S
Fe154 O165 1.976 . S
Fe154 O168 1.996 . S
Fe155 O156 1.918 . S
Fe155 O163 1.997 . S
Fe155 O166 1.996 . S
Fe155 O170 1.976 . S
Fe155 O173 2.002 . S
O156 Fe154 1.918 . S
O156 Fe155 1.918 . S
O156 Fe157 1.918 . S
Fe157 O156 1.918 . S
Fe157 O158 2.002 . S
Fe157 O167 1.976 . S
Fe157 O171 1.996 . S
Fe157 O174 1.997 . S
O158 Fe157 2.002 . S
O158 C175 1.295 . S
O159 Fe154 1.997 . S
O159 C175 1.235 . S
O160 Fe154 2.002 . S
O160 C161 1.295 . S
C161 O160 1.295 . S
C161 O163 1.235 . S
C162 O167 1.287 . S
C162 O168 1.255 . S
O163 Fe155 1.997 . S
O163 C161 1.235 . S
C164 O170 1.287 . S
C164 O171 1.255 . S
O165 Fe154 1.976 . S
O165 C172 1.287 . S
O166 Fe155 1.996 . S
O166 C172 1.255 . S
O167 Fe157 1.976 . S
O167 C162 1.287 . S
O168 Fe154 1.996 . S
O168 C162 1.255 . S
C169 O173 1.295 . S
C169 O174 1.235 . S
O170 Fe155 1.976 . S
O170 C164 1.287 . S
O171 Fe157 1.996 . S
O171 C164 1.255 . S
C172 O165 1.287 . S
C172 O166 1.255 . S
O173 Fe155 2.002 . S
O173 C169 1.295 . S
O174 Fe157 1.997 . S
O174 C169 1.235 . S
C175 O158 1.295 . S
C175 O159 1.235 . S
Fe176 O178 1.918 . S
Fe176 O181 1.997 . S
Fe176 O182 2.002 . S
Fe176 O187 1.976 . S
Fe176 O190 1.996 . S
Fe177 O178 1.918 . S
Fe177 O185 1.997 . S
Fe177 O188 1.996 . S
Fe177 O192 1.976 . S
Fe177 O195 2.002 . S
O178 Fe176 1.918 . S
O178 Fe177 1.918 . S
O178 Fe179 1.918 . S
Fe179 O178 1.918 . S
Fe179 O180 2.002 . S
Fe179 O189 1.976 . S
Fe179 O193 1.996 . S
Fe179 O196 1.997 . S
O180 Fe179 2.002 . S
O180 C197 1.295 . S
O181 Fe176 1.997 . S
O181 C197 1.235 . S
O182 Fe176 2.002 . S
O182 C183 1.295 . S
C183 O182 1.295 . S
C183 O185 1.235 . S
C184 O189 1.287 . S
C184 O190 1.255 . S
O185 Fe177 1.997 . S
O185 C183 1.235 . S
C186 O192 1.287 . S
C186 O193 1.255 . S
O187 Fe176 1.976 . S
O187 C194 1.287 . S
O188 Fe177 1.996 . S
O188 C194 1.255 . S
O189 Fe179 1.976 . S
O189 C184 1.287 . S
O190 Fe176 1.996 . S
O190 C184 1.255 . S
C191 O195 1.295 . S
C191 O196 1.235 . S
O192 Fe177 1.976 . S
O192 C186 1.287 . S
O193 Fe179 1.996 . S
O193 C186 1.255 . S
C194 O187 1.287 . S
C194 O188 1.255 . S
O195 Fe177 2.002 . S
O195 C191 1.295 . S
O196 Fe179 1.997 . S
O196 C191 1.235 . S
C197 O180 1.295 . S
C197 O181 1.235 . S
Fe198 O200 1.918 . S
Fe198 O203 1.997 . S
Fe198 O204 2.002 . S
Fe198 O209 1.976 . S
Fe198 O212 1.996 . S
Fe199 O200 1.918 . S
Fe199 O207 1.997 . S
Fe199 O210 1.996 . S
Fe199 O214 1.976 . S
Fe199 O217 2.002 . S
O200 Fe198 1.918 . S
O200 Fe199 1.918 . S
O200 Fe201 1.918 . S
Fe201 O200 1.918 . S
Fe201 O202 2.002 . S
Fe201 O211 1.976 . S
Fe201 O215 1.996 . S
Fe201 O218 1.997 . S
O202 Fe201 2.002 . S
O202 C219 1.295 . S
O203 Fe198 1.997 . S
O203 C219 1.235 . S
O204 Fe198 2.002 . S
O204 C205 1.295 . S
C205 O204 1.295 . S
C205 O207 1.235 . S
C206 O211 1.287 . S
C206 O212 1.255 . S
O207 Fe199 1.997 . S
O207 C205 1.235 . S
C208 O214 1.287 . S
C208 O215 1.255 . S
O209 Fe198 1.976 . S
O209 C216 1.287 . S
O210 Fe199 1.996 . S
O210 C216 1.255 . S
O211 Fe201 1.976 . S
O211 C206 1.287 . S
O212 Fe198 1.996 . S
O212 C206 1.255 . S
C213 O217 1.295 . S
C213 O218 1.235 . S
O214 Fe199 1.976 . S
O214 C208 1.287 . S
O215 Fe201 1.996 . S
O215 C208 1.255 . S
C216 O209 1.287 . S
C216 O210 1.255 . S
O217 Fe199 2.002 . S
O217 C213 1.295 . S
O218 Fe201 1.997 . S
O218 C213 1.235 . S
C219 O202 1.295 . S
C219 O203 1.235 . S
Fe220 O222 1.918 . S
Fe220 O225 1.997 . S
Fe220 O226 2.002 . S
Fe220 O231 1.976 . S
Fe220 O234 1.996 . S
Fe221 O222 1.918 . S
Fe221 O229 1.997 . S
Fe221 O232 1.996 . S
Fe221 O236 1.976 . S
Fe221 O239 2.002 . S
O222 Fe220 1.918 . S
O222 Fe221 1.918 . S
O222 Fe223 1.918 . S
Fe223 O222 1.918 . S
Fe223 O224 2.002 . S
Fe223 O233 1.976 . S
Fe223 O237 1.996 . S
Fe223 O240 1.997 . S
O224 Fe223 2.002 . S
O224 C241 1.295 . S
O225 Fe220 1.997 . S
O225 C241 1.235 . S
O226 Fe220 2.002 . S
O226 C227 1.295 . S
C227 O226 1.295 . S
C227 O229 1.235 . S
C228 O233 1.287 . S
C228 O234 1.255 . S
O229 Fe221 1.997 . S
O229 C227 1.235 . S
C230 O236 1.287 . S
C230 O237 1.255 . S
O231 Fe220 1.976 . S
O231 C238 1.287 . S
O232 Fe221 1.996 . S
O232 C238 1.255 . S
O233 Fe223 1.976 . S
O233 C228 1.287 . S
O234 Fe220 1.996 . S
O234 C228 1.255 . S
C235 O239 1.295 . S
C235 O240 1.235 . S
O236 Fe221 1.976 . S
O236 C230 1.287 . S
O237 Fe223 1.996 . S
O237 C230 1.255 . S
C238 O231 1.287 . S
C238 O232 1.255 . S
O239 Fe221 2.002 . S
O239 C235 1.295 . S
O240 Fe223 1.997 . S
O240 C235 1.235 . S
C241 O224 1.295 . S
C241 O225 1.235 . S
Fe242 O244 1.918 . S
Fe242 O247 1.997 . S
Fe242 O248 2.002 . S
Fe242 O253 1.976 . S
Fe242 O256 1.996 . S
Fe243 O244 1.918 . S
Fe243 O251 1.997 . S
Fe243 O254 1.996 . S
Fe243 O258 1.976 . S
Fe243 O261 2.002 . S
O244 Fe242 1.918 . S
O244 Fe243 1.918 . S
O244 Fe245 1.918 . S
Fe245 O244 1.918 . S
Fe245 O246 2.002 . S
Fe245 O255 1.976 . S
Fe245 O259 1.996 . S
Fe245 O262 1.997 . S
O246 Fe245 2.002 . S
O246 C263 1.295 . S
O247 Fe242 1.997 . S
O247 C263 1.235 . S
O248 Fe242 2.002 . S
O248 C249 1.295 . S
C249 O248 1.295 . S
C249 O251 1.235 . S
C250 O255 1.287 . S
C250 O256 1.255 . S
O251 Fe243 1.997 . S
O251 C249 1.235 . S
C252 O258 1.287 . S
C252 O259 1.255 . S
O253 Fe242 1.976 . S
O253 C260 1.287 . S
O254 Fe243 1.996 . S
O254 C260 1.255 . S
O255 Fe245 1.976 . S
O255 C250 1.287 . S
O256 Fe242 1.996 . S
O256 C250 1.255 . S
C257 O261 1.295 . S
C257 O262 1.235 . S
O258 Fe243 1.976 . S
O258 C252 1.287 . S
O259 Fe245 1.996 . S
O259 C252 1.255 . S
C260 O253 1.287 . S
C260 O254 1.255 . S
O261 Fe243 2.002 . S
O261 C257 1.295 . S
O262 Fe245 1.997 . S
O262 C257 1.235 . S
C263 O246 1.295 . S
C263 O247 1.235 . S
Fe264 O266 1.918 . S
Fe264 O269 1.997 . S
Fe264 O270 2.002 . S
Fe264 O275 1.976 . S
Fe264 O278 1.996 . S
Fe265 O266 1.918 . S
Fe265 O273 1.997 . S
Fe265 O276 1.996 . S
Fe265 O280 1.976 . S
Fe265 O283 2.002 . S
O266 Fe264 1.918 . S
O266 Fe265 1.918 . S
O266 Fe267 1.918 . S
Fe267 O266 1.918 . S
Fe267 O268 2.004 . S
Fe267 O277 1.976 . S
Fe267 O281 1.996 . S
Fe267 O284 1.997 . S
O268 Fe267 2.004 . S
O268 C285 1.301 . S
O269 Fe264 1.997 . S
O269 C285 1.235 . S
O270 Fe264 2.002 . S
O270 C271 1.295 . S
C271 O270 1.295 . S
C271 O273 1.235 . S
C272 O277 1.287 . S
C272 O278 1.255 . S
O273 Fe265 1.997 . S
O273 C271 1.235 . S
C274 O280 1.287 . S
C274 O281 1.255 . S
O275 Fe264 1.976 . S
O275 C282 1.287 . S
O276 Fe265 1.996 . S
O276 C282 1.255 . S
O277 Fe267 1.976 . S
O277 C272 1.287 . S
O278 Fe264 1.996 . S
O278 C272 1.255 . S
C279 O283 1.295 . S
C279 O284 1.235 . S
O280 Fe265 1.976 . S
O280 C274 1.287 . S
O281 Fe267 1.996 . S
O281 C274 1.255 . S
C282 O275 1.287 . S
C282 O276 1.255 . S
O283 Fe265 2.002 . S
O283 C279 1.295 . S
O284 Fe267 1.997 . S
O284 C279 1.235 . S
C285 O268 1.301 . S
C285 O269 1.235 . S
Fe286 O288 1.918 . S
Fe286 O291 1.997 . S
Fe286 O292 2.002 . S
Fe286 O297 1.976 . S
Fe286 O300 1.996 . S
Fe287 O288 1.918 . S
Fe287 O295 1.997 . S
Fe287 O298 1.996 . S
Fe287 O302 1.976 . S
Fe287 O305 2.002 . S
O288 Fe286 1.918 . S
O288 Fe287 1.918 . S
O288 Fe289 1.918 . S
Fe289 O288 1.918 . S
Fe289 O290 2.002 . S
Fe289 O299 1.976 . S
Fe289 O303 1.996 . S
Fe289 O306 1.997 . S
O290 Fe289 2.002 . S
O290 C307 1.295 . S
O291 Fe286 1.997 . S
O291 C307 1.235 . S
O292 Fe286 2.002 . S
O292 C293 1.295 . S
C293 O292 1.295 . S
C293 O295 1.235 . S
C294 O299 1.287 . S
C294 O300 1.255 . S
O295 Fe287 1.997 . S
O295 C293 1.235 . S
C296 O302 1.287 . S
C296 O303 1.255 . S
O297 Fe286 1.976 . S
O297 C304 1.287 . S
O298 Fe287 1.996 . S
O298 C304 1.255 . S
O299 Fe289 1.976 . S
O299 C294 1.287 . S
O300 Fe286 1.996 . S
O300 C294 1.255 . S
C301 O305 1.295 . S
C301 O306 1.235 . S
O302 Fe287 1.976 . S
O302 C296 1.287 . S
O303 Fe289 1.996 . S
O303 C296 1.255 . S
C304 O297 1.287 . S
C304 O298 1.255 . S
O305 Fe287 2.002 . S
O305 C301 1.295 . S
O306 Fe289 1.997 . S
O306 C301 1.235 . S
C307 O290 1.295 . S
C307 O291 1.235 . S
Fe308 O310 1.918 . S
Fe308 O313 1.997 . S
Fe308 O314 2.002 . S
Fe308 O319 1.976 . S
Fe308 O322 1.996 . S
Fe309 O310 1.918 . S
Fe309 O317 1.997 . S
Fe309 O320 1.996 . S
Fe309 O324 1.976 . S
Fe309 O327 2.002 . S
O310 Fe308 1.918 . S
O310 Fe309 1.918 . S
O310 Fe311 1.918 . S
Fe311 O310 1.918 . S
Fe311 O312 2.002 . S
Fe311 O321 1.976 . S
Fe311 O325 1.996 . S
Fe311 O328 1.997 . S
O312 Fe311 2.002 . S
O312 C329 1.295 . S
O313 Fe308 1.997 . S
O313 C329 1.235 . S
O314 Fe308 2.002 . S
O314 C315 1.295 . S
C315 O314 1.295 . S
C315 O317 1.235 . S
C316 O321 1.287 . S
C316 O322 1.255 . S
O317 Fe309 1.997 . S
O317 C315 1.235 . S
C318 O324 1.287 . S
C318 O325 1.255 . S
O319 Fe308 1.976 . S
O319 C326 1.287 . S
O320 Fe309 1.996 . S
O320 C326 1.255 . S
O321 Fe311 1.976 . S
O321 C316 1.287 . S
O322 Fe308 1.996 . S
O322 C316 1.255 . S
C323 O327 1.295 . S
C323 O328 1.235 . S
O324 Fe309 1.976 . S
O324 C318 1.287 . S
O325 Fe311 1.996 . S
O325 C318 1.255 . S
C326 O319 1.287 . S
C326 O320 1.255 . S
O327 Fe309 2.002 . S
O327 C323 1.295 . S
O328 Fe311 1.997 . S
O328 C323 1.235 . S
C329 O312 1.295 . S
C329 O313 1.235 . S
Fe330 O332 1.918 . S
Fe330 O335 1.997 . S
Fe330 O336 2.002 . S
Fe330 O341 1.976 . S
Fe330 O344 1.996 . S
Fe331 O332 1.918 . S
Fe331 O339 1.997 . S
Fe331 O342 1.996 . S
Fe331 O346 1.976 . S
Fe331 O349 2.002 . S
O332 Fe330 1.918 . S
O332 Fe331 1.918 . S
O332 Fe333 1.918 . S
Fe333 O332 1.918 . S
Fe333 O334 2.002 . S
Fe333 O343 1.976 . S
Fe333 O347 1.996 . S
Fe333 O350 1.997 . S
O334 Fe333 2.002 . S
O334 C351 1.295 . S
O335 Fe330 1.997 . S
O335 C351 1.235 . S
O336 Fe330 2.002 . S
O336 C337 1.295 . S
C337 O336 1.295 . S
C337 O339 1.235 . S
C338 O343 1.287 . S
C338 O344 1.255 . S
O339 Fe331 1.997 . S
O339 C337 1.235 . S
C340 O346 1.287 . S
C340 O347 1.255 . S
O341 Fe330 1.976 . S
O341 C348 1.287 . S
O342 Fe331 1.996 . S
O342 C348 1.255 . S
O343 Fe333 1.976 . S
O343 C338 1.287 . S
O344 Fe330 1.996 . S
O344 C338 1.255 . S
C345 O349 1.295 . S
C345 O350 1.235 . S
O346 Fe331 1.976 . S
O346 C340 1.287 . S
O347 Fe333 1.996 . S
O347 C340 1.255 . S
C348 O341 1.287 . S
C348 O342 1.255 . S
O349 Fe331 2.002 . S
O349 C345 1.295 . S
O350 Fe333 1.997 . S
O350 C345 1.235 . S
C351 O334 1.295 . S
C351 O335 1.235 . S
Fe352 O354 1.918 . S
Fe352 O357 1.997 . S
Fe352 O358 2.002 . S
Fe352 O363 1.976 . S
Fe352 O366 1.996 . S
Fe353 O354 1.918 . S
Fe353 O361 1.997 . S
Fe353 O364 1.996 . S
Fe353 O368 1.976 . S
Fe353 O371 2.002 . S
O354 Fe352 1.918 . S
O354 Fe353 1.918 . S
O354 Fe355 1.918 . S
Fe355 O354 1.918 . S
Fe355 O356 2.002 . S
Fe355 O365 1.976 . S
Fe355 O369 1.996 . S
Fe355 O372 1.997 . S
O356 Fe355 2.002 . S
O356 C373 1.295 . S
O357 Fe352 1.997 . S
O357 C373 1.235 . S
O358 Fe352 2.002 . S
O358 C359 1.295 . S
C359 O358 1.295 . S
C359 O361 1.235 . S
C360 O365 1.287 . S
C360 O366 1.255 . S
O361 Fe353 1.997 . S
O361 C359 1.235 . S
C362 O368 1.287 . S
C362 O369 1.255 . S
O363 Fe352 1.976 . S
O363 C370 1.287 . S
O364 Fe353 1.996 . S
O364 C370 1.255 . S
O365 Fe355 1.976 . S
O365 C360 1.287 . S
O366 Fe352 1.996 . S
O366 C360 1.255 . S
C367 O371 1.295 . S
C367 O372 1.235 . S
O368 Fe353 1.976 . S
O368 C362 1.287 . S
O369 Fe355 1.996 . S
O369 C362 1.255 . S
C370 O363 1.287 . S
C370 O364 1.255 . S
O371 Fe353 2.002 . S
O371 C367 1.295 . S
O372 Fe355 1.997 . S
O372 C367 1.235 . S
C373 O356 1.295 . S
C373 O357 1.235 . S
Fe374 O376 1.918 . S
Fe374 O379 1.997 . S
Fe374 O380 2.002 . S
Fe374 O385 1.976 . S
Fe374 O388 1.996 . S
Fe375 O376 1.918 . S
Fe375 O383 1.997 . S
Fe375 O386 1.996 . S
Fe375 O390 1.976 . S
Fe375 O393 2.002 . S
O376 Fe374 1.918 . S
O376 Fe375 1.918 . S
O376 Fe377 1.918 . S
Fe377 O376 1.918 . S
Fe377 O378 2.002 . S
Fe377 O387 1.976 . S
Fe377 O391 1.996 . S
Fe377 O394 1.997 . S
O378 Fe377 2.002 . S
O378 C395 1.295 . S
O379 Fe374 1.997 . S
O379 C395 1.235 . S
O380 Fe374 2.002 . S
O380 C381 1.295 . S
C381 O380 1.295 . S
C381 O383 1.235 . S
C382 O387 1.287 . S
C382 O388 1.255 . S
O383 Fe375 1.997 . S
O383 C381 1.235 . S
C384 O390 1.287 . S
C384 O391 1.255 . S
O385 Fe374 1.976 . S
O385 C392 1.287 . S
O386 Fe375 1.996 . S
O386 C392 1.255 . S
O387 Fe377 1.976 . S
O387 C382 1.287 . S
O388 Fe374 1.996 . S
O388 C382 1.255 . S
C389 O393 1.295 . S
C389 O394 1.235 . S
O390 Fe375 1.976 . S
O390 C384 1.287 . S
O391 Fe377 1.996 . S
O391 C384 1.255 . S
C392 O385 1.287 . S
C392 O386 1.255 . S
O393 Fe375 2.002 . S
O393 C389 1.295 . S
O394 Fe377 1.997 . S
O394 C389 1.235 . S
C395 O378 1.295 . S
C395 O379 1.235 . S
H396 C402 0.930 . S
H397 C406 0.930 . S
H398 C411 0.929 . S
H399 C409 0.929 . S
H400 C404 0.929 . S
H401 C410 0.929 . S
C402 H396 0.930 . S
C402 C403 1.367 . S
C402 C410 1.378 . S
C403 C402 1.367 . S
C403 C411 1.433 . S
C404 H400 0.929 . S
C404 C406 1.378 . S
C404 C408 1.350 . S
C405 C408 1.463 . S
C405 C410 1.350 . S
C405 N413 1.427 . S
C406 H397 0.930 . S
C406 C404 1.378 . S
C406 C407 1.367 . S
C407 C406 1.367 . S
C407 C409 1.433 . S
C408 C404 1.350 . S
C408 C405 1.463 . S
C408 N412 1.427 . S
C409 H399 0.929 . S
C409 C407 1.433 . S
C409 N412 1.384 . S
C410 H401 0.929 . S
C410 C402 1.378 . S
C410 C405 1.350 . S
C411 H398 0.929 . S
C411 C403 1.433 . S
C411 N413 1.384 . S
N412 C408 1.427 . S
N412 C409 1.384 . S
N413 C405 1.427 . S
N413 C411 1.384 . S
H414 C420 0.930 . S
H415 C424 0.930 . S
H416 C429 0.929 . S
H417 C427 0.929 . S
H418 C422 0.929 . S
H419 C428 0.929 . S
C420 H414 0.930 . S
C420 C421 1.367 . S
C420 C428 1.378 . S
C421 C420 1.367 . S
C421 C429 1.433 . S
C422 H418 0.929 . S
C422 C424 1.378 1_545 S
C422 C426 1.350 . S
C423 C426 1.463 . S
C423 C428 1.350 . S
C423 N431 1.427 . S
C424 H415 0.930 . S
C424 C422 1.378 1_565 S
C424 C425 1.367 . S
C425 C424 1.367 . S
C425 C427 1.433 . S
C426 C422 1.350 . S
C426 C423 1.463 . S
C426 N430 1.427 . S
C427 H417 0.929 . S
C427 C425 1.433 . S
C427 N430 1.384 1_565 S
C428 H419 0.929 . S
C428 C420 1.378 . S
C428 C423 1.350 . S
C429 H416 0.929 . S
C429 C421 1.433 . S
C429 N431 1.384 . S
N430 C426 1.427 . S
N430 C427 1.384 1_545 S
N431 C423 1.427 . S
N431 C429 1.384 . S
H432 C438 0.930 . S
H433 C442 0.930 . S
H434 C447 0.929 . S
H435 C445 0.929 . S
H436 C440 0.929 . S
H437 C446 0.933 . S
C438 H432 0.930 . S
C438 C439 1.367 . S
C438 C446 1.360 1_655 S
C439 C438 1.367 . S
C439 C447 1.433 . S
C440 H436 0.929 . S
C440 C442 1.378 . S
C440 C444 1.350 . S
C441 C444 1.463 . S
C441 C446 1.364 . S
C441 N449 1.427 . S
C442 H433 0.930 . S
C442 C440 1.378 . S
C442 C443 1.367 . S
C443 C442 1.367 . S
C443 C445 1.433 . S
C444 C440 1.350 . S
C444 C441 1.463 . S
C444 N448 1.427 . S
C445 H435 0.929 . S
C445 C443 1.433 . S
C445 N448 1.384 . S
C446 H437 0.933 . S
C446 C438 1.360 1_455 S
C446 C441 1.364 . S
C447 H434 0.929 . S
C447 C439 1.433 . S
C447 N449 1.384 1_655 S
N448 C444 1.427 . S
N448 C445 1.384 . S
N449 C441 1.427 . S
N449 C447 1.384 1_455 S
H450 C456 0.930 . S
H451 C460 0.930 . S
H452 C465 0.929 1_455 S
H453 C463 0.929 . S
H454 C458 0.929 . S
H455 C464 0.929 . S
C456 H450 0.930 . S
C456 C457 1.367 . S
C456 C464 1.378 . S
C457 C456 1.367 . S
C457 C465 1.433 . S
C458 H454 0.929 . S
C458 C460 1.378 1_565 S
C458 C462 1.350 . S
C459 C462 1.463 . S
C459 C464 1.350 . S
C459 N467 1.427 . S
C460 H451 0.930 . S
C460 C458 1.378 1_545 S
C460 C461 1.367 1_545 S
C461 C460 1.367 1_565 S
C461 C463 1.433 . S
C462 C458 1.350 . S
C462 C459 1.463 . S
C462 N466 1.427 . S
C463 H453 0.929 . S
C463 C461 1.433 . S
C463 N466 1.384 . S
C464 H455 0.929 . S
C464 C456 1.378 . S
C464 C459 1.350 . S
C465 H452 0.929 1_655 S
C465 C457 1.433 . S
C465 N467 1.384 . S
N466 C462 1.427 . S
N466 C463 1.384 . S
N467 C459 1.427 . S
N467 C465 1.384 . S
H468 C474 0.930 . S
H469 C478 0.930 . S
H470 C483 0.929 . S
H471 C481 0.929 . S
H472 C476 0.929 . S
H473 C482 0.929 . S
C474 H468 0.930 . S
C474 C475 1.367 . S
C474 C482 1.378 1_565 S
C475 C474 1.367 . S
C475 C483 1.433 . S
C476 H472 0.929 . S
C476 C478 1.378 . S
C476 C480 1.350 . S
C477 C480 1.463 . S
C477 C482 1.350 . S
C477 N485 1.427 . S
C478 H469 0.930 . S
C478 C476 1.378 . S
C478 C479 1.367 . S
C479 C478 1.367 . S
C479 C481 1.433 . S
C480 C476 1.350 . S
C480 C477 1.463 . S
C480 N484 1.427 . S
C481 H471 0.929 . S
C481 C479 1.433 . S
C481 N484 1.384 . S
C482 H473 0.929 . S
C482 C474 1.378 1_545 S
C482 C477 1.350 . S
C483 H470 0.929 . S
C483 C475 1.433 . S
C483 N485 1.384 1_565 S
N484 C480 1.427 . S
N484 C481 1.384 . S
N485 C477 1.427 . S
N485 C483 1.384 1_545 S
H486 C492 0.930 . S
H487 C496 0.930 . S
H488 C501 0.929 . S
H489 C499 0.929 . S
H490 C494 0.929 . S
H491 C500 0.929 . S
C492 H486 0.930 . S
C492 C493 1.367 . S
C492 C500 1.378 . S
C493 C492 1.367 . S
C493 C501 1.433 . S
C494 H490 0.929 . S
C494 C496 1.378 1_455 S
C494 C498 1.350 . S
C495 C498 1.463 . S
C495 C500 1.350 . S
C495 N503 1.427 . S
C496 H487 0.930 . S
C496 C494 1.378 1_655 S
C496 C497 1.367 . S
C497 C496 1.367 . S
C497 C499 1.433 . S
C498 C494 1.350 . S
C498 C495 1.463 . S
C498 N502 1.427 . S
C499 H489 0.929 . S
C499 C497 1.433 . S
C499 N502 1.384 1_655 S
C500 H491 0.929 . S
C500 C492 1.378 . S
C500 C495 1.350 . S
C501 H488 0.929 . S
C501 C493 1.433 . S
C501 N503 1.384 . S
N502 C498 1.427 . S
N502 C499 1.384 1_455 S
N503 C495 1.427 . S
N503 C501 1.384 . S
H504 C510 0.930 . S
H505 C514 0.930 . S
H506 C519 0.929 . S
H507 C517 0.929 . S
H508 C512 0.929 . S
H509 C518 0.929 . S
C510 H504 0.930 . S
C510 C511 1.367 . S
C510 C518 1.378 . S
C511 C510 1.367 . S
C511 C519 1.433 . S
C512 H508 0.929 . S
C512 C514 1.378 . S
C512 C516 1.350 . S
C513 C516 1.463 . S
C513 C518 1.350 . S
C513 N521 1.427 . S
C514 H505 0.930 . S
C514 C512 1.378 . S
C514 C515 1.367 . S
C515 C514 1.367 . S
C515 C517 1.433 . S
C516 C512 1.350 . S
C516 C513 1.463 . S
C516 N520 1.427 . S
C517 H507 0.929 . S
C517 C515 1.433 . S
C517 N520 1.384 . S
C518 H509 0.929 . S
C518 C510 1.378 . S
C518 C513 1.350 . S
C519 H506 0.929 . S
C519 C511 1.433 . S
C519 N521 1.384 . S
N520 C516 1.427 . S
N520 C517 1.384 . S
N521 C513 1.427 . S
N521 C519 1.384 . S
H522 C528 0.930 . S
H523 C532 0.930 . S
H524 C537 0.929 . S
H525 C535 0.929 . S
H526 C530 0.929 . S
H527 C536 0.929 . S
C528 H522 0.930 . S
C528 C529 1.367 . S
C528 C536 1.378 . S
C529 C528 1.367 . S
C529 C537 1.433 . S
C530 H526 0.929 . S
C530 C532 1.378 . S
C530 C534 1.350 . S
C531 C534 1.463 . S
C531 C536 1.350 . S
C531 N539 1.427 . S
C532 H523 0.930 . S
C532 C530 1.378 . S
C532 C533 1.367 . S
C533 C532 1.367 . S
C533 C535 1.433 . S
C534 C530 1.350 . S
C534 C531 1.463 . S
C534 N538 1.427 . S
C535 H525 0.929 . S
C535 C533 1.433 . S
C535 N538 1.384 . S
C536 H527 0.929 . S
C536 C528 1.378 . S
C536 C531 1.350 . S
C537 H524 0.929 . S
C537 C529 1.433 . S
C537 N539 1.384 . S
N538 C534 1.427 . S
N538 C535 1.384 . S
N539 C531 1.427 . S
N539 C537 1.384 . S
H540 C546 0.930 . S
H541 C550 0.930 . S
H542 C555 0.929 . S
H543 C553 0.929 . S
H544 C548 0.929 . S
H545 C554 0.929 . S
C546 H540 0.930 . S
C546 C547 1.367 . S
C546 C554 1.378 . S
C547 C546 1.367 . S
C547 C555 1.433 . S
C548 H544 0.929 . S
C548 C550 1.378 . S
C548 C552 1.350 . S
C549 C552 1.463 . S
C549 C554 1.350 . S
C549 N557 1.427 . S
C550 H541 0.930 . S
C550 C548 1.378 . S
C550 C551 1.367 . S
C551 C550 1.367 . S
C551 C553 1.433 . S
C552 C548 1.350 . S
C552 C549 1.463 . S
C552 N556 1.427 . S
C553 H543 0.929 . S
C553 C551 1.433 . S
C553 N556 1.384 . S
C554 H545 0.929 . S
C554 C546 1.378 . S
C554 C549 1.350 . S
C555 H542 0.929 . S
C555 C547 1.433 . S
C555 N557 1.384 . S
N556 C552 1.427 . S
N556 C553 1.384 . S
N557 C549 1.427 . S
N557 C555 1.384 . S
H558 C564 0.930 . S
H559 C568 0.930 . S
H560 C573 0.929 . S
H561 C571 0.929 . S
H562 C566 0.929 . S
H563 C572 0.929 . S
C564 H558 0.930 . S
C564 C565 1.367 . S
C564 C572 1.378 . S
C565 C564 1.367 . S
C565 C573 1.433 . S
C566 H562 0.929 . S
C566 C568 1.378 . S
C566 C570 1.350 . S
C567 C570 1.463 . S
C567 C572 1.350 . S
C567 N575 1.427 . S
C568 H559 0.930 . S
C568 C566 1.378 . S
C568 C569 1.367 . S
C569 C568 1.367 . S
C569 C571 1.433 . S
C570 C566 1.350 . S
C570 C567 1.463 . S
C570 N574 1.427 . S
C571 H561 0.929 . S
C571 C569 1.433 . S
C571 N574 1.384 . S
C572 H563 0.929 . S
C572 C564 1.378 . S
C572 C567 1.350 . S
C573 H560 0.929 . S
C573 C565 1.433 . S
C573 N575 1.384 . S
N574 C570 1.427 . S
N574 C571 1.384 . S
N575 C567 1.427 . S
N575 C573 1.384 . S
H576 C582 0.930 . S
H577 C586 0.930 . S
H578 C591 0.929 . S
H579 C589 0.929 . S
H580 C584 0.929 . S
H581 C590 0.929 . S
C582 H576 0.930 . S
C582 C583 1.367 . S
C582 C590 1.378 . S
C583 C582 1.367 . S
C583 C591 1.433 . S
C584 H580 0.929 . S
C584 C586 1.378 . S
C584 C588 1.350 . S
C585 C588 1.463 . S
C585 C590 1.350 . S
C585 N593 1.427 . S
C586 H577 0.930 . S
C586 C584 1.378 . S
C586 C587 1.367 . S
C587 C586 1.367 . S
C587 C589 1.433 . S
C588 C584 1.350 . S
C588 C585 1.463 . S
C588 N592 1.427 . S
C589 H579 0.929 . S
C589 C587 1.433 . S
C589 N592 1.384 . S
C590 H581 0.929 . S
C590 C582 1.378 . S
C590 C585 1.350 . S
C591 H578 0.929 . S
C591 C583 1.433 . S
C591 N593 1.384 . S
N592 C588 1.427 . S
N592 C589 1.384 . S
N593 C585 1.427 . S
N593 C591 1.384 . S
H594 C600 0.930 . S
H595 C604 0.930 . S
H596 C609 0.929 . S
H597 C607 0.929 . S
H598 C602 0.929 . S
H599 C608 0.929 . S
C600 H594 0.930 . S
C600 C601 1.367 . S
C600 C608 1.378 . S
C601 C600 1.367 . S
C601 C609 1.433 . S
C602 H598 0.929 . S
C602 C604 1.378 . S
C602 C606 1.350 . S
C603 C606 1.463 . S
C603 C608 1.350 . S
C603 N611 1.427 . S
C604 H595 0.930 . S
C604 C602 1.378 . S
C604 C605 1.367 . S
C605 C604 1.367 . S
C605 C607 1.433 . S
C606 C602 1.350 . S
C606 C603 1.463 . S
C606 N610 1.427 . S
C607 H597 0.929 . S
C607 C605 1.433 . S
C607 N610 1.384 . S
C608 H599 0.929 . S
C608 C600 1.378 . S
C608 C603 1.350 . S
C609 H596 0.929 . S
C609 C601 1.433 . S
C609 N611 1.384 . S
N610 C606 1.427 . S
N610 C607 1.384 . S
N611 C603 1.427 . S
N611 C609 1.384 . S
H612 C618 0.930 . S
H613 C622 0.930 . S
H614 C627 0.929 . S
H615 C625 0.929 . S
H616 C620 0.929 . S
H617 C626 0.929 . S
C618 H612 0.930 . S
C618 C619 1.367 . S
C618 C626 1.378 . S
C619 C618 1.367 . S
C619 C627 1.433 . S
C620 H616 0.929 . S
C620 C622 1.378 . S
C620 C624 1.350 . S
C621 C624 1.463 . S
C621 C626 1.350 . S
C621 N629 1.427 . S
C622 H613 0.930 . S
C622 C620 1.378 . S
C622 C623 1.367 . S
C623 C622 1.367 . S
C623 C625 1.433 . S
C624 C620 1.350 . S
C624 C621 1.463 . S
C624 N628 1.427 . S
C625 H615 0.929 . S
C625 C623 1.433 . S
C625 N628 1.384 . S
C626 H617 0.929 . S
C626 C618 1.378 . S
C626 C621 1.350 . S
C627 H614 0.929 . S
C627 C619 1.433 . S
C627 N629 1.384 . S
N628 C624 1.427 . S
N628 C625 1.384 . S
N629 C621 1.427 . S
N629 C627 1.384 . S
H630 C636 0.930 . S
H631 C640 0.930 . S
H632 C645 0.929 . S
H633 C643 0.929 . S
H634 C638 0.929 . S
H635 C644 0.929 . S
C636 H630 0.930 . S
C636 C637 1.367 . S
C636 C644 1.378 . S
C637 C636 1.367 . S
C637 C645 1.433 . S
C638 H634 0.929 . S
C638 C640 1.378 . S
C638 C642 1.350 . S
C639 C642 1.463 . S
C639 C644 1.350 . S
C639 N647 1.427 . S
C640 H631 0.930 . S
C640 C638 1.378 . S
C640 C641 1.367 . S
C641 C640 1.367 . S
C641 C643 1.433 . S
C642 C638 1.350 . S
C642 C639 1.463 . S
C642 N646 1.427 . S
C643 H633 0.929 . S
C643 C641 1.433 . S
C643 N646 1.384 . S
C644 H635 0.929 . S
C644 C636 1.378 . S
C644 C639 1.350 . S
C645 H632 0.929 . S
C645 C637 1.433 . S
C645 N647 1.384 . S
N646 C642 1.427 . S
N646 C643 1.384 . S
N647 C639 1.427 . S
N647 C645 1.384 . S
H648 C654 0.930 . S
H649 C658 0.930 . S
H650 C663 0.929 . S
H651 C661 0.929 . S
H652 C656 0.929 . S
H653 C662 0.929 . S
C654 H648 0.930 . S
C654 C655 1.367 . S
C654 C662 1.378 . S
C655 C654 1.367 . S
C655 C663 1.433 . S
C656 H652 0.929 . S
C656 C658 1.378 . S
C656 C660 1.350 . S
C657 C660 1.463 . S
C657 C662 1.350 . S
C657 N665 1.427 . S
C658 H649 0.930 . S
C658 C656 1.378 . S
C658 C659 1.367 . S
C659 C658 1.367 . S
C659 C661 1.433 . S
C660 C656 1.350 . S
C660 C657 1.463 . S
C660 N664 1.427 . S
C661 H651 0.929 . S
C661 C659 1.433 . S
C661 N664 1.384 . S
C662 H653 0.929 . S
C662 C654 1.378 . S
C662 C657 1.350 . S
C663 H650 0.929 . S
C663 C655 1.433 . S
C663 N665 1.384 . S
N664 C660 1.427 . S
N664 C661 1.384 . S
N665 C657 1.427 . S
N665 C663 1.384 . S
H666 C672 0.930 . S
H667 C676 0.930 . S
H668 C681 0.929 . S
H669 C679 0.929 . S
H670 C674 0.929 . S
H671 C680 0.929 . S
C672 H666 0.930 . S
C672 C673 1.367 . S
C672 C680 1.378 . S
C673 C672 1.367 . S
C673 C681 1.433 . S
C674 H670 0.929 . S
C674 C676 1.378 . S
C674 C678 1.350 . S
C675 C678 1.463 . S
C675 C680 1.350 . S
C675 N683 1.427 . S
C676 H667 0.930 . S
C676 C674 1.378 . S
C676 C677 1.367 . S
C677 C676 1.367 . S
C677 C679 1.433 . S
C678 C674 1.350 . S
C678 C675 1.463 . S
C678 N682 1.427 . S
C679 H669 0.929 . S
C679 C677 1.433 . S
C679 N682 1.384 . S
C680 H671 0.929 . S
C680 C672 1.378 . S
C680 C675 1.350 . S
C681 H668 0.929 . S
C681 C673 1.433 . S
C681 N683 1.384 . S
N682 C678 1.427 . S
N682 C679 1.384 . S
N683 C675 1.427 . S
N683 C681 1.384 . S
H684 C690 0.930 . S
H685 C694 0.930 . S
H686 C699 0.929 . S
H687 C697 0.929 . S
H688 C692 0.929 . S
H689 C698 0.929 . S
C690 H684 0.930 . S
C690 C691 1.367 . S
C690 C698 1.378 . S
C691 C690 1.367 . S
C691 C699 1.433 . S
C692 H688 0.929 . S
C692 C694 1.378 . S
C692 C696 1.350 . S
C693 C696 1.463 . S
C693 C698 1.350 . S
C693 N701 1.427 . S
C694 H685 0.930 . S
C694 C692 1.378 . S
C694 C695 1.367 . S
C695 C694 1.367 . S
C695 C697 1.433 . S
C696 C692 1.350 . S
C696 C693 1.463 . S
C696 N700 1.427 . S
C697 H687 0.929 . S
C697 C695 1.433 . S
C697 N700 1.384 . S
C698 H689 0.929 . S
C698 C690 1.378 . S
C698 C693 1.350 . S
C699 H686 0.929 . S
C699 C691 1.433 . S
C699 N701 1.384 . S
N700 C696 1.427 . S
N700 C697 1.384 . S
N701 C693 1.427 . S
N701 C699 1.384 . S
H702 C708 0.930 . S
H703 C712 0.930 . S
H704 C717 0.929 . S
H705 C715 0.929 . S
H706 C710 0.929 . S
H707 C716 0.929 . S
C708 H702 0.930 . S
C708 C709 1.367 . S
C708 C716 1.378 . S
C709 C708 1.367 . S
C709 C717 1.433 . S
C710 H706 0.929 . S
C710 C712 1.378 . S
C710 C714 1.350 . S
C711 C714 1.463 . S
C711 C716 1.350 . S
C711 N719 1.427 . S
C712 H703 0.930 . S
C712 C710 1.378 . S
C712 C713 1.367 . S
C713 C712 1.367 . S
C713 C715 1.433 . S
C714 C710 1.350 . S
C714 C711 1.463 . S
C714 N718 1.427 . S
C715 H705 0.929 . S
C715 C713 1.433 . S
C715 N718 1.384 . S
C716 H707 0.929 . S
C716 C708 1.378 . S
C716 C711 1.350 . S
C717 H704 0.929 . S
C717 C709 1.433 . S
C717 N719 1.384 . S
N718 C714 1.427 . S
N718 C715 1.384 . S
N719 C711 1.427 . S
N719 C717 1.384 . S
H720 C726 0.930 . S
H721 C730 0.930 . S
H722 C735 0.929 . S
H723 C733 0.929 . S
H724 C728 0.929 . S
H725 C734 0.929 . S
C726 H720 0.930 . S
C726 C727 1.367 . S
C726 C734 1.378 . S
C727 C726 1.367 . S
C727 C735 1.433 . S
C728 H724 0.929 . S
C728 C730 1.378 . S
C728 C732 1.350 . S
C729 C732 1.463 . S
C729 C734 1.350 . S
C729 N737 1.427 . S
C730 H721 0.930 . S
C730 C728 1.378 . S
C730 C731 1.367 . S
C731 C730 1.367 . S
C731 C733 1.433 . S
C732 C728 1.350 . S
C732 C729 1.463 . S
C732 N736 1.427 . S
C733 H723 0.929 . S
C733 C731 1.433 . S
C733 N736 1.384 . S
C734 H725 0.929 . S
C734 C726 1.378 . S
C734 C729 1.350 . S
C735 H722 0.929 . S
C735 C727 1.433 . S
C735 N737 1.384 . S
N736 C732 1.427 . S
N736 C733 1.384 . S
N737 C729 1.427 . S
N737 C735 1.384 . S
H738 C744 0.930 . S
H739 C748 0.930 . S
H740 C753 0.929 . S
H741 C751 0.929 . S
H742 C746 0.929 . S
H743 C752 0.929 . S
C744 H738 0.930 . S
C744 C745 1.367 . S
C744 C752 1.378 . S
C745 C744 1.367 . S
C745 C753 1.433 . S
C746 H742 0.929 . S
C746 C748 1.378 . S
C746 C750 1.350 . S
C747 C750 1.463 . S
C747 C752 1.350 . S
C747 N755 1.427 . S
C748 H739 0.930 . S
C748 C746 1.378 . S
C748 C749 1.367 . S
C749 C748 1.367 . S
C749 C751 1.433 . S
C750 C746 1.350 . S
C750 C747 1.463 . S
C750 N754 1.427 . S
C751 H741 0.929 . S
C751 C749 1.433 . S
C751 N754 1.384 . S
C752 H743 0.929 . S
C752 C744 1.378 . S
C752 C747 1.350 . S
C753 H740 0.929 . S
C753 C745 1.433 . S
C753 N755 1.384 . S
N754 C750 1.427 . S
N754 C751 1.384 . S
N755 C747 1.427 . S
N755 C753 1.384 . S
H756 C762 0.930 . S
H757 C766 0.930 1_545 S
H758 C771 0.929 . S
H759 C769 0.929 . S
H760 C764 0.929 . S
H761 C770 0.929 . S
C762 H756 0.930 . S
C762 C763 1.367 1_565 S
C762 C770 1.378 . S
C763 C762 1.367 1_545 S
C763 C771 1.433 . S
C764 H760 0.929 . S
C764 C766 1.378 1_545 S
C764 C768 1.350 1_545 S
C765 C768 1.463 . S
C765 C770 1.350 . S
C765 N773 1.427 1_565 S
C766 H757 0.930 1_565 S
C766 C764 1.378 1_565 S
C766 C767 1.367 . S
C767 C766 1.367 . S
C767 C769 1.433 . S
C768 C764 1.350 1_565 S
C768 C765 1.463 . S
C768 N772 1.427 . S
C769 H759 0.929 . S
C769 C767 1.433 . S
C769 N772 1.384 . S
C770 H761 0.929 . S
C770 C762 1.378 . S
C770 C765 1.350 . S
C771 H758 0.929 . S
C771 C763 1.433 . S
C771 N773 1.384 . S
N772 C768 1.427 . S
N772 C769 1.384 . S
N773 C765 1.427 1_545 S
N773 C771 1.384 . S
H774 C780 0.929 . S
H775 C784 0.930 . S
H776 C789 0.929 . S
H777 C787 0.929 . S
H778 C782 0.929 . S
H779 C788 0.929 . S
C780 H774 0.929 . S
C780 C781 1.367 . S
C780 C788 1.378 . S
C781 C780 1.367 . S
C781 C789 1.433 . S
C782 H778 0.929 . S
C782 C784 1.378 . S
C782 C786 1.350 . S
C783 C786 1.463 . S
C783 C788 1.350 . S
C783 N791 1.427 . S
C784 H775 0.930 . S
C784 C782 1.378 . S
C784 C785 1.367 . S
C785 C784 1.367 . S
C785 C787 1.433 . S
C786 C782 1.350 . S
C786 C783 1.463 . S
C786 N790 1.427 . S
C787 H777 0.929 . S
C787 C785 1.433 . S
C787 N790 1.384 . S
C788 H779 0.929 . S
C788 C780 1.378 . S
C788 C783 1.350 . S
C789 H776 0.929 . S
C789 C781 1.433 . S
C789 N791 1.384 . S
N790 C786 1.427 . S
N790 C787 1.384 . S
N791 C783 1.427 . S
N791 C789 1.384 . S
H792 C798 0.930 . S
H793 C802 0.930 . S
H794 C807 0.929 . S
H795 C805 0.929 1_554 S
H796 C800 0.929 . S
H797 C806 0.929 . S
C798 H792 0.930 . S
C798 C799 1.367 1_455 S
C798 C806 1.378 . S
C799 C798 1.367 1_655 S
C799 C807 1.433 . S
C800 H796 0.929 . S
C800 C802 1.378 . S
C800 C804 1.350 . S
C801 C804 1.463 . S
C801 C806 1.350 1_655 S
C801 N809 1.427 . S
C802 H793 0.930 . S
C802 C800 1.378 . S
C802 C803 1.367 . S
C803 C802 1.367 . S
C803 C805 1.433 . S
C804 C800 1.350 . S
C804 C801 1.463 . S
C804 N808 1.427 . S
C805 H795 0.929 1_556 S
C805 C803 1.433 . S
C805 N808 1.384 . S
C806 H797 0.929 . S
C806 C798 1.378 . S
C806 C801 1.350 1_455 S
C807 H794 0.929 . S
C807 C799 1.433 . S
C807 N809 1.384 . S
N808 C804 1.427 . S
N808 C805 1.384 . S
N809 C801 1.427 . S
N809 C807 1.384 . S
H810 C816 0.930 1_554 S
H811 C820 0.930 . S
H812 C825 0.929 . S
H813 C823 0.929 . S
H814 C818 0.929 . S
H815 C824 0.929 . S
C816 H810 0.930 1_556 S
C816 C817 1.367 . S
C816 C824 1.378 . S
C817 C816 1.367 . S
C817 C825 1.433 . S
C818 H814 0.929 . S
C818 C820 1.378 . S
C818 C822 1.350 . S
C819 C822 1.463 . S
C819 C824 1.350 . S
C819 N827 1.427 . S
C820 H811 0.930 . S
C820 C818 1.378 . S
C820 C821 1.367 . S
C821 C820 1.367 . S
C821 C823 1.433 . S
C822 C818 1.350 . S
C822 C819 1.463 . S
C822 N826 1.427 . S
C823 H813 0.929 . S
C823 C821 1.433 . S
C823 N826 1.384 . S
C824 H815 0.929 . S
C824 C816 1.378 . S
C824 C819 1.350 . S
C825 H812 0.929 . S
C825 C817 1.433 . S
C825 N827 1.384 . S
N826 C822 1.427 . S
N826 C823 1.384 . S
N827 C819 1.427 . S
N827 C825 1.384 . S
H828 C834 0.930 . S
H829 C838 0.930 . S
H830 C843 0.929 . S
H831 C841 0.929 . S
H832 C836 0.929 . S
H833 C842 0.929 . S
C834 H828 0.930 . S
C834 C835 1.367 . S
C834 C842 1.378 . S
C835 C834 1.367 . S
C835 C843 1.433 . S
C836 H832 0.929 . S
C836 C838 1.378 . S
C836 C840 1.350 . S
C837 C840 1.463 . S
C837 C842 1.350 . S
C837 N845 1.427 . S
C838 H829 0.930 . S
C838 C836 1.378 . S
C838 C839 1.367 . S
C839 C838 1.367 . S
C839 C841 1.433 1_655 S
C840 C836 1.350 . S
C840 C837 1.463 . S
C840 N844 1.411 1_655 S
C841 H831 0.929 . S
C841 C839 1.433 1_455 S
C841 N844 1.384 . S
C842 H833 0.929 . S
C842 C834 1.378 . S
C842 C837 1.350 . S
C843 H830 0.929 . S
C843 C835 1.433 . S
C843 N845 1.384 . S
N844 C840 1.411 1_455 S
N844 C841 1.384 . S
N845 C837 1.427 . S
N845 C843 1.384 . S
H846 C852 0.930 . S
H847 C856 0.930 . S
H848 C861 0.929 . S
H849 C859 0.929 . S
H850 C854 0.929 . S
H851 C860 0.929 . S
C852 H846 0.930 . S
C852 C853 1.367 . S
C852 C860 1.378 . S
C853 C852 1.367 . S
C853 C861 1.433 . S
C854 H850 0.929 . S
C854 C856 1.378 . S
C854 C858 1.350 . S
C855 C858 1.463 . S
C855 C860 1.350 . S
C855 N863 1.427 . S
C856 H847 0.930 . S
C856 C854 1.378 . S
C856 C857 1.367 . S
C857 C856 1.367 . S
C857 C859 1.433 . S
C858 C854 1.350 . S
C858 C855 1.463 . S
C858 N862 1.427 . S
C859 H849 0.929 . S
C859 C857 1.433 . S
C859 N862 1.384 . S
C860 H851 0.929 . S
C860 C852 1.378 . S
C860 C855 1.350 . S
C861 H848 0.929 . S
C861 C853 1.433 . S
C861 N863 1.384 . S
N862 C858 1.427 . S
N862 C859 1.384 . S
N863 C855 1.427 . S
N863 C861 1.384 . S
H864 C870 0.930 . S
H865 C874 0.930 . S
H866 C879 0.929 . S
H867 C877 0.929 . S
H868 C872 0.929 . S
H869 C878 0.929 . S
C870 H864 0.930 . S
C870 C871 1.367 . S
C870 C878 1.378 . S
C871 C870 1.367 . S
C871 C879 1.433 . S
C872 H868 0.929 . S
C872 C874 1.378 . S
C872 C876 1.350 . S
C873 C876 1.463 . S
C873 C878 1.350 . S
C873 N881 1.427 . S
C874 H865 0.930 . S
C874 C872 1.378 . S
C874 C875 1.367 . S
C875 C874 1.367 . S
C875 C877 1.433 . S
C876 C872 1.350 . S
C876 C873 1.463 . S
C876 N880 1.427 . S
C877 H867 0.929 . S
C877 C875 1.433 . S
C877 N880 1.384 . S
C878 H869 0.929 . S
C878 C870 1.378 . S
C878 C873 1.350 . S
C879 H866 0.929 . S
C879 C871 1.433 . S
C879 N881 1.384 . S
N880 C876 1.427 . S
N880 C877 1.384 . S
N881 C873 1.427 . S
N881 C879 1.384 . S
H882 C888 0.930 . S
H883 C892 0.930 . S
H884 C897 0.929 . S
H885 C895 0.929 1_556 S
H886 C890 0.929 . S
H887 C896 0.929 . S
C888 H882 0.930 . S
C888 C889 1.367 . S
C888 C896 1.378 . S
C889 C888 1.367 . S
C889 C897 1.433 1_545 S
C890 H886 0.929 . S
C890 C892 1.378 . S
C890 C894 1.350 . S
C891 C894 1.463 . S
C891 C896 1.350 1_565 S
C891 N899 1.427 . S
C892 H883 0.930 . S
C892 C890 1.378 . S
C892 C893 1.367 . S
C893 C892 1.367 . S
C893 C895 1.433 . S
C894 C890 1.350 . S
C894 C891 1.463 . S
C894 N898 1.427 . S
C895 H885 0.929 1_554 S
C895 C893 1.433 . S
C895 N898 1.384 . S
C896 H887 0.929 . S
C896 C888 1.378 . S
C896 C891 1.350 1_545 S
C897 H884 0.929 . S
C897 C889 1.433 1_565 S
C897 N899 1.384 . S
N898 C894 1.427 . S
N898 C895 1.384 . S
N899 C891 1.427 . S
N899 C897 1.384 . S
H900 C906 0.930 1_556 S
H901 C910 0.930 . S
H902 C915 0.929 . S
H903 C913 0.929 . S
H904 C908 0.929 . S
H905 C914 0.929 . S
C906 H900 0.930 1_554 S
C906 C907 1.367 . S
C906 C914 1.378 . S
C907 C906 1.367 . S
C907 C915 1.433 . S
C908 H904 0.929 . S
C908 C910 1.378 . S
C908 C912 1.350 . S
C909 C912 1.463 . S
C909 C914 1.350 . S
C909 N917 1.427 . S
C910 H901 0.930 . S
C910 C908 1.378 . S
C910 C911 1.367 . S
C911 C910 1.367 . S
C911 C913 1.433 . S
C912 C908 1.350 . S
C912 C909 1.463 . S
C912 N916 1.427 . S
C913 H903 0.929 . S
C913 C911 1.433 . S
C913 N916 1.384 . S
C914 H905 0.929 . S
C914 C906 1.378 . S
C914 C909 1.350 . S
C915 H902 0.929 . S
C915 C907 1.433 . S
C915 N917 1.384 . S
N916 C912 1.427 . S
N916 C913 1.384 . S
N917 C909 1.427 . S
N917 C915 1.384 . S
H918 C924 0.930 1_556 S
H919 C928 0.930 . S
H920 C933 0.929 . S
H921 C931 0.929 . S
H922 C926 0.929 . S
H923 C932 0.929 . S
C924 H918 0.930 1_554 S
C924 C925 1.367 . S
C924 C932 1.378 . S
C925 C924 1.367 . S
C925 C933 1.433 . S
C926 H922 0.929 . S
C926 C928 1.378 . S
C926 C930 1.350 . S
C927 C930 1.463 . S
C927 C932 1.350 . S
C927 N935 1.427 . S
C928 H919 0.930 . S
C928 C926 1.378 . S
C928 C929 1.367 . S
C929 C928 1.367 . S
C929 C931 1.433 . S
C930 C926 1.350 . S
C930 C927 1.463 . S
C930 N934 1.427 . S
C931 H921 0.929 . S
C931 C929 1.433 . S
C931 N934 1.384 . S
C932 H923 0.929 . S
C932 C924 1.378 . S
C932 C927 1.350 . S
C933 H920 0.929 . S
C933 C925 1.433 . S
C933 N935 1.384 . S
N934 C930 1.427 . S
N934 C931 1.384 . S
N935 C927 1.427 . S
N935 C933 1.384 . S
H936 C942 0.930 . S
H937 C946 0.930 . S
H938 C951 0.929 . S
H939 C949 0.929 . S
H940 C944 0.929 . S
H941 C950 0.929 . S
C942 H936 0.930 . S
C942 C943 1.367 . S
C942 C950 1.378 . S
C943 C942 1.367 . S
C943 C951 1.433 . S
C944 H940 0.929 . S
C944 C946 1.378 . S
C944 C948 1.350 . S
C945 C948 1.463 . S
C945 C950 1.350 . S
C945 N953 1.427 . S
C946 H937 0.930 . S
C946 C944 1.378 . S
C946 C947 1.367 1_455 S
C947 C946 1.367 1_655 S
C947 C949 1.433 . S
C948 C944 1.350 . S
C948 C945 1.463 . S
C948 N952 1.427 . S
C949 H939 0.929 . S
C949 C947 1.433 . S
C949 N952 1.384 1_655 S
C950 H941 0.929 . S
C950 C942 1.378 . S
C950 C945 1.350 . S
C951 H938 0.929 . S
C951 C943 1.433 . S
C951 N953 1.384 . S
N952 C948 1.427 . S
N952 C949 1.384 1_455 S
N953 C945 1.427 . S
N953 C951 1.384 . S
H954 C960 0.930 . S
H955 C964 0.930 . S
H956 C969 0.929 . S
H957 C967 0.929 . S
H958 C962 0.929 . S
H959 C968 0.929 . S
C960 H954 0.930 . S
C960 C961 1.367 . S
C960 C968 1.378 . S
C961 C960 1.367 . S
C961 C969 1.433 . S
C962 H958 0.929 . S
C962 C964 1.378 . S
C962 C966 1.350 . S
C963 C966 1.463 . S
C963 C968 1.350 . S
C963 N971 1.427 . S
C964 H955 0.930 . S
C964 C962 1.378 . S
C964 C965 1.367 . S
C965 C964 1.367 . S
C965 C967 1.433 . S
C966 C962 1.350 . S
C966 C963 1.463 . S
C966 N970 1.427 . S
C967 H957 0.929 . S
C967 C965 1.433 . S
C967 N970 1.384 . S
C968 H959 0.929 . S
C968 C960 1.378 . S
C968 C963 1.350 . S
C969 H956 0.929 . S
C969 C961 1.433 . S
C969 N971 1.384 . S
N970 C966 1.427 . S
N970 C967 1.384 . S
N971 C963 1.427 . S
N971 C969 1.384 . S
H972 C978 0.930 . S
H973 C982 0.930 . S
H974 C987 0.929 . S
H975 C985 0.929 . S
H976 C980 0.929 . S
H977 C986 0.929 . S
C978 H972 0.930 . S
C978 C979 1.367 . S
C978 C986 1.378 . S
C979 C978 1.367 . S
C979 C987 1.433 . S
C980 H976 0.929 . S
C980 C982 1.378 . S
C980 C984 1.350 . S
C981 C984 1.463 . S
C981 C986 1.350 . S
C981 N989 1.427 . S
C982 H973 0.930 . S
C982 C980 1.378 . S
C982 C983 1.367 . S
C983 C982 1.367 . S
C983 C985 1.433 1_545 S
C984 C980 1.350 . S
C984 C981 1.463 . S
C984 N988 1.427 . S
C985 H975 0.929 . S
C985 C983 1.433 1_565 S
C985 N988 1.384 1_565 S
C986 H977 0.929 . S
C986 C978 1.378 . S
C986 C981 1.350 . S
C987 H974 0.929 . S
C987 C979 1.433 . S
C987 N989 1.384 . S
N988 C984 1.427 . S
N988 C985 1.384 1_545 S
N989 C981 1.427 . S
N989 C987 1.384 . S
H990 C996 0.930 . S
H991 C1000 0.930 . S
H992 C1005 0.929 . S
H993 C1003 0.929 . S
H994 C998 0.929 . S
H995 C1004 0.929 . S
C996 H990 0.930 . S
C996 C997 1.367 . S
C996 C1004 1.378 . S
C997 C996 1.367 . S
C997 C1005 1.433 . S
C998 H994 0.929 . S
C998 C1000 1.378 . S
C998 C1002 1.350 . S
C999 C1002 1.463 . S
C999 C1004 1.350 . S
C999 N1007 1.427 . S
C1000 H991 0.930 . S
C1000 C998 1.378 . S
C1000 C1001 1.367 . S
C1001 C1000 1.367 . S
C1001 C1003 1.433 1_545 S
C1002 C998 1.350 . S
C1002 C999 1.463 . S
C1002 N1006 1.427 . S
C1003 H993 0.929 . S
C1003 C1001 1.433 1_565 S
C1003 N1006 1.384 1_565 S
C1004 H995 0.929 . S
C1004 C996 1.378 . S
C1004 C999 1.350 . S
C1005 H992 0.929 . S
C1005 C997 1.433 . S
C1005 N1007 1.384 . S
N1006 C1002 1.427 . S
N1006 C1003 1.384 1_545 S
N1007 C999 1.427 . S
N1007 C1005 1.384 . S
H1008 C1014 0.930 . S
H1009 C1018 0.930 . S
H1010 C1023 0.929 . S
H1011 C1021 0.929 . S
H1012 C1016 0.929 . S
H1013 C1022 0.929 . S
C1014 H1008 0.930 . S
C1014 C1015 1.367 . S
C1014 C1022 1.378 . S
C1015 C1014 1.367 . S
C1015 C1023 1.433 . S
C1016 H1012 0.929 . S
C1016 C1018 1.378 . S
C1016 C1020 1.350 . S
C1017 C1020 1.463 . S
C1017 C1022 1.350 . S
C1017 N1025 1.427 . S
C1018 H1009 0.930 . S
C1018 C1016 1.378 . S
C1018 C1019 1.367 1_455 S
C1019 C1018 1.367 1_655 S
C1019 C1021 1.433 . S
C1020 C1016 1.350 . S
C1020 C1017 1.463 . S
C1020 N1024 1.427 1_455 S
C1021 H1011 0.929 . S
C1021 C1019 1.433 . S
C1021 N1024 1.384 . S
C1022 H1013 0.929 . S
C1022 C1014 1.378 . S
C1022 C1017 1.350 . S
C1023 H1010 0.929 . S
C1023 C1015 1.433 . S
C1023 N1025 1.384 . S
N1024 C1020 1.427 1_655 S
N1024 C1021 1.384 . S
N1025 C1017 1.427 . S
N1025 C1023 1.384 . S
H1026 C1032 0.930 . S
H1027 C1036 0.930 . S
H1028 C1041 0.929 . S
H1029 C1039 0.929 . S
H1030 C1034 0.929 . S
H1031 C1040 0.929 . S
C1032 H1026 0.930 . S
C1032 C1033 1.367 . S
C1032 C1040 1.378 . S
C1033 C1032 1.367 . S
C1033 C1041 1.433 . S
C1034 H1030 0.929 . S
C1034 C1036 1.378 . S
C1034 C1038 1.350 . S
C1035 C1038 1.463 . S
C1035 C1040 1.350 . S
C1035 N1043 1.427 . S
C1036 H1027 0.930 . S
C1036 C1034 1.378 . S
C1036 C1037 1.367 . S
C1037 C1036 1.367 . S
C1037 C1039 1.433 . S
C1038 C1034 1.350 . S
C1038 C1035 1.463 . S
C1038 N1042 1.427 . S
C1039 H1029 0.929 . S
C1039 C1037 1.433 . S
C1039 N1042 1.384 . S
C1040 H1031 0.929 . S
C1040 C1032 1.378 . S
C1040 C1035 1.350 . S
C1041 H1028 0.929 . S
C1041 C1033 1.433 . S
C1041 N1043 1.384 . S
N1042 C1038 1.427 . S
N1042 C1039 1.384 . S
N1043 C1035 1.427 . S
N1043 C1041 1.384 . S
H1044 C1050 0.930 . S
H1045 C1054 0.930 . S
H1046 C1059 0.929 . S
H1047 C1057 0.929 . S
H1048 C1052 0.929 . S
H1049 C1058 0.929 . S
C1050 H1044 0.930 . S
C1050 C1051 1.367 . S
C1050 C1058 1.378 . S
C1051 C1050 1.367 . S
C1051 C1059 1.433 . S
C1052 H1048 0.929 . S
C1052 C1054 1.378 . S
C1052 C1056 1.350 . S
C1053 C1056 1.463 . S
C1053 C1058 1.350 . S
C1053 N1061 1.427 . S
C1054 H1045 0.930 . S
C1054 C1052 1.378 . S
C1054 C1055 1.367 . S
C1055 C1054 1.367 . S
C1055 C1057 1.433 . S
C1056 C1052 1.350 . S
C1056 C1053 1.463 . S
C1056 N1060 1.427 . S
C1057 H1047 0.929 . S
C1057 C1055 1.433 . S
C1057 N1060 1.384 . S
C1058 H1049 0.929 . S
C1058 C1050 1.378 . S
C1058 C1053 1.350 . S
C1059 H1046 0.929 . S
C1059 C1051 1.433 . S
C1059 N1061 1.384 . S
N1060 C1056 1.427 . S
N1060 C1057 1.384 . S
N1061 C1053 1.427 . S
N1061 C1059 1.384 . S
H1062 C1068 0.930 . S
H1063 C1072 0.930 . S
H1064 C1077 0.929 . S
H1065 C1075 0.929 . S
H1066 C1070 0.929 . S
H1067 C1076 0.929 . S
C1068 H1062 0.930 . S
C1068 C1069 1.367 . S
C1068 C1076 1.378 . S
C1069 C1068 1.367 . S
C1069 C1077 1.433 . S
C1070 H1066 0.929 . S
C1070 C1072 1.378 . S
C1070 C1074 1.350 . S
C1071 C1074 1.463 . S
C1071 C1076 1.350 . S
C1071 N1079 1.427 . S
C1072 H1063 0.930 . S
C1072 C1070 1.378 . S
C1072 C1073 1.367 . S
C1073 C1072 1.367 . S
C1073 C1075 1.433 . S
C1074 C1070 1.350 . S
C1074 C1071 1.463 . S
C1074 N1078 1.427 . S
C1075 H1065 0.929 . S
C1075 C1073 1.433 . S
C1075 N1078 1.384 . S
C1076 H1067 0.929 . S
C1076 C1068 1.378 . S
C1076 C1071 1.350 . S
C1077 H1064 0.929 . S
C1077 C1069 1.433 . S
C1077 N1079 1.384 . S
N1078 C1074 1.427 . S
N1078 C1075 1.384 . S
N1079 C1071 1.427 . S
N1079 C1077 1.384 . S
H1080 C1086 0.930 . S
H1081 C1090 0.930 . S
H1082 C1095 0.929 . S
H1083 C1093 0.929 . S
H1084 C1088 0.929 . S
H1085 C1094 0.929 . S
C1086 H1080 0.930 . S
C1086 C1087 1.367 . S
C1086 C1094 1.378 . S
C1087 C1086 1.367 . S
C1087 C1095 1.433 . S
C1088 H1084 0.929 . S
C1088 C1090 1.378 . S
C1088 C1092 1.350 . S
C1089 C1092 1.463 . S
C1089 C1094 1.350 . S
C1089 N1097 1.427 . S
C1090 H1081 0.930 . S
C1090 C1088 1.378 . S
C1090 C1091 1.367 . S
C1091 C1090 1.367 . S
C1091 C1093 1.433 . S
C1092 C1088 1.350 . S
C1092 C1089 1.463 . S
C1092 N1096 1.427 . S
C1093 H1083 0.929 . S
C1093 C1091 1.433 . S
C1093 N1096 1.384 . S
C1094 H1085 0.929 . S
C1094 C1086 1.378 . S
C1094 C1089 1.350 . S
C1095 H1082 0.929 . S
C1095 C1087 1.433 . S
C1095 N1097 1.384 . S
N1096 C1092 1.427 . S
N1096 C1093 1.384 . S
N1097 C1089 1.427 . S
N1097 C1095 1.384 . S
H1098 C1104 0.930 . S
H1099 C1108 0.930 . S
H1100 C1113 0.929 . S
H1101 C1111 0.929 . S
H1102 C1106 0.929 . S
H1103 C1112 0.929 . S
C1104 H1098 0.930 . S
C1104 C1105 1.367 . S
C1104 C1112 1.378 . S
C1105 C1104 1.367 . S
C1105 C1113 1.433 . S
C1106 H1102 0.929 . S
C1106 C1108 1.378 . S
C1106 C1110 1.350 . S
C1107 C1110 1.463 . S
C1107 C1112 1.350 . S
C1107 N1115 1.427 . S
C1108 H1099 0.930 . S
C1108 C1106 1.378 . S
C1108 C1109 1.367 . S
C1109 C1108 1.367 . S
C1109 C1111 1.433 . S
C1110 C1106 1.350 . S
C1110 C1107 1.463 . S
C1110 N1114 1.427 . S
C1111 H1101 0.929 . S
C1111 C1109 1.433 . S
C1111 N1114 1.384 . S
C1112 H1103 0.929 . S
C1112 C1104 1.378 . S
C1112 C1107 1.350 . S
C1113 H1100 0.929 . S
C1113 C1105 1.433 . S
C1113 N1115 1.384 . S
N1114 C1110 1.427 . S
N1114 C1111 1.384 . S
N1115 C1107 1.427 . S
N1115 C1113 1.384 . S
H1116 C1122 0.930 . S
H1117 C1126 0.930 . S
H1118 C1131 0.929 . S
H1119 C1129 0.929 . S
H1120 C1124 0.929 . S
H1121 C1130 0.929 . S
C1122 H1116 0.930 . S
C1122 C1123 1.367 . S
C1122 C1130 1.378 . S
C1123 C1122 1.367 . S
C1123 C1131 1.433 . S
C1124 H1120 0.929 . S
C1124 C1126 1.378 . S
C1124 C1128 1.350 . S
C1125 C1128 1.463 . S
C1125 C1130 1.350 . S
C1125 N1133 1.427 . S
C1126 H1117 0.930 . S
C1126 C1124 1.378 . S
C1126 C1127 1.367 . S
C1127 C1126 1.367 . S
C1127 C1129 1.433 . S
C1128 C1124 1.350 . S
C1128 C1125 1.463 . S
C1128 N1132 1.427 . S
C1129 H1119 0.929 . S
C1129 C1127 1.433 . S
C1129 N1132 1.384 . S
C1130 H1121 0.929 . S
C1130 C1122 1.378 . S
C1130 C1125 1.350 . S
C1131 H1118 0.929 . S
C1131 C1123 1.433 . S
C1131 N1133 1.384 . S
N1132 C1128 1.427 . S
N1132 C1129 1.384 . S
N1133 C1125 1.427 . S
N1133 C1131 1.384 . S
H1134 C1140 0.930 . S
H1135 C1144 0.930 . S
H1136 C1149 0.929 . S
H1137 C1147 0.929 . S
H1138 C1142 0.929 . S
H1139 C1148 0.929 . S
C1140 H1134 0.930 . S
C1140 C1141 1.367 . S
C1140 C1148 1.378 . S
C1141 C1140 1.367 . S
C1141 C1149 1.433 . S
C1142 H1138 0.929 . S
C1142 C1144 1.378 . S
C1142 C1146 1.350 . S
C1143 C1146 1.463 . S
C1143 C1148 1.350 . S
C1143 N1151 1.427 . S
C1144 H1135 0.930 . S
C1144 C1142 1.378 . S
C1144 C1145 1.367 . S
C1145 C1144 1.367 . S
C1145 C1147 1.433 . S
C1146 C1142 1.350 . S
C1146 C1143 1.463 . S
C1146 N1150 1.427 . S
C1147 H1137 0.929 . S
C1147 C1145 1.433 . S
C1147 N1150 1.384 . S
C1148 H1139 0.929 . S
C1148 C1140 1.378 . S
C1148 C1143 1.350 . S
C1149 H1136 0.929 . S
C1149 C1141 1.433 . S
C1149 N1151 1.384 . S
N1150 C1146 1.427 . S
N1150 C1147 1.384 . S
N1151 C1143 1.427 . S
N1151 C1149 1.384 . S
H1152 C1158 0.930 . S
H1153 C1162 0.930 . S
H1154 C1167 0.929 . S
H1155 C1165 0.929 . S
H1156 C1160 0.929 . S
H1157 C1166 0.929 . S
C1158 H1152 0.930 . S
C1158 C1159 1.367 . S
C1158 C1166 1.378 . S
C1159 C1158 1.367 . S
C1159 C1167 1.433 . S
C1160 H1156 0.929 . S
C1160 C1162 1.378 . S
C1160 C1164 1.350 . S
C1161 C1164 1.463 . S
C1161 C1166 1.350 . S
C1161 N1169 1.427 . S
C1162 H1153 0.930 . S
C1162 C1160 1.378 . S
C1162 C1163 1.367 . S
C1163 C1162 1.367 . S
C1163 C1165 1.433 . S
C1164 C1160 1.350 . S
C1164 C1161 1.463 . S
C1164 N1168 1.427 . S
C1165 H1155 0.929 . S
C1165 C1163 1.433 . S
C1165 N1168 1.384 . S
C1166 H1157 0.929 . S
C1166 C1158 1.378 . S
C1166 C1161 1.350 . S
C1167 H1154 0.929 . S
C1167 C1159 1.433 . S
C1167 N1169 1.384 . S
N1168 C1164 1.427 . S
N1168 C1165 1.384 . S
N1169 C1161 1.427 . S
N1169 C1167 1.384 . S
H1170 C1176 0.930 . S
H1171 C1180 0.930 . S
H1172 C1185 0.929 . S
H1173 C1183 0.929 . S
H1174 C1178 0.929 . S
H1175 C1184 0.929 . S
C1176 H1170 0.930 . S
C1176 C1177 1.367 . S
C1176 C1184 1.378 . S
C1177 C1176 1.367 . S
C1177 C1185 1.433 . S
C1178 H1174 0.929 . S
C1178 C1180 1.378 . S
C1178 C1182 1.350 . S
C1179 C1182 1.463 . S
C1179 C1184 1.350 . S
C1179 N1187 1.427 . S
C1180 H1171 0.930 . S
C1180 C1178 1.378 . S
C1180 C1181 1.367 . S
C1181 C1180 1.367 . S
C1181 C1183 1.433 . S
C1182 C1178 1.350 . S
C1182 C1179 1.463 . S
C1182 N1186 1.427 . S
C1183 H1173 0.929 . S
C1183 C1181 1.433 . S
C1183 N1186 1.384 . S
C1184 H1175 0.929 . S
C1184 C1176 1.378 . S
C1184 C1179 1.350 . S
C1185 H1172 0.929 . S
C1185 C1177 1.433 . S
C1185 N1187 1.384 . S
N1186 C1182 1.427 . S
N1186 C1183 1.384 . S
N1187 C1179 1.427 . S
N1187 C1185 1.384 . S
H1188 C1194 0.930 . S
H1189 C1198 0.930 . S
H1190 C1203 0.929 . S
H1191 C1201 0.929 . S
H1192 C1196 0.929 . S
H1193 C1202 0.929 . S
C1194 H1188 0.930 . S
C1194 C1195 1.367 . S
C1194 C1202 1.378 . S
C1195 C1194 1.367 . S
C1195 C1203 1.433 . S
C1196 H1192 0.929 . S
C1196 C1198 1.378 . S
C1196 C1200 1.350 . S
C1197 C1200 1.463 . S
C1197 C1202 1.350 . S
C1197 N1205 1.427 . S
C1198 H1189 0.930 . S
C1198 C1196 1.378 . S
C1198 C1199 1.367 . S
C1199 C1198 1.367 . S
C1199 C1201 1.433 . S
C1200 C1196 1.350 . S
C1200 C1197 1.463 . S
C1200 N1204 1.427 . S
C1201 H1191 0.929 . S
C1201 C1199 1.433 . S
C1201 N1204 1.384 . S
C1202 H1193 0.929 . S
C1202 C1194 1.378 . S
C1202 C1197 1.350 . S
C1203 H1190 0.929 . S
C1203 C1195 1.433 . S
C1203 N1205 1.384 . S
N1204 C1200 1.427 . S
N1204 C1201 1.384 . S
N1205 C1197 1.427 . S
N1205 C1203 1.384 . S
H1206 C1212 0.930 . S
H1207 C1216 0.930 . S
H1208 C1221 0.929 . S
H1209 C1219 0.929 . S
H1210 C1214 0.929 . S
H1211 C1220 0.929 . S
C1212 H1206 0.930 . S
C1212 C1213 1.367 . S
C1212 C1220 1.378 . S
C1213 C1212 1.367 . S
C1213 C1221 1.433 . S
C1214 H1210 0.929 . S
C1214 C1216 1.378 . S
C1214 C1218 1.350 . S
C1215 C1218 1.463 . S
C1215 C1220 1.350 . S
C1215 N1223 1.427 . S
C1216 H1207 0.930 . S
C1216 C1214 1.378 . S
C1216 C1217 1.367 . S
C1217 C1216 1.367 . S
C1217 C1219 1.433 . S
C1218 C1214 1.350 . S
C1218 C1215 1.463 . S
C1218 N1222 1.427 . S
C1219 H1209 0.929 . S
C1219 C1217 1.433 . S
C1219 N1222 1.384 . S
C1220 H1211 0.929 . S
C1220 C1212 1.378 . S
C1220 C1215 1.350 . S
C1221 H1208 0.929 . S
C1221 C1213 1.433 . S
C1221 N1223 1.384 . S
N1222 C1218 1.427 . S
N1222 C1219 1.384 . S
N1223 C1215 1.427 . S
N1223 C1221 1.384 . S
H1224 C1230 0.930 . S
H1225 C1234 0.930 . S
H1226 C1239 0.929 . S
H1227 C1237 0.929 . S
H1228 C1232 0.929 . S
H1229 C1238 0.929 . S
C1230 H1224 0.930 . S
C1230 C1231 1.367 . S
C1230 C1238 1.378 . S
C1231 C1230 1.367 . S
C1231 C1239 1.433 . S
C1232 H1228 0.929 . S
C1232 C1234 1.378 . S
C1232 C1236 1.350 . S
C1233 C1236 1.463 . S
C1233 C1238 1.350 . S
C1233 N1241 1.427 . S
C1234 H1225 0.930 . S
C1234 C1232 1.378 . S
C1234 C1235 1.367 . S
C1235 C1234 1.367 . S
C1235 C1237 1.433 . S
C1236 C1232 1.350 . S
C1236 C1233 1.463 . S
C1236 N1240 1.427 . S
C1237 H1227 0.929 . S
C1237 C1235 1.433 . S
C1237 N1240 1.384 . S
C1238 H1229 0.929 . S
C1238 C1230 1.378 . S
C1238 C1233 1.350 . S
C1239 H1226 0.929 . S
C1239 C1231 1.433 . S
C1239 N1241 1.384 . S
N1240 C1236 1.427 . S
N1240 C1237 1.384 . S
N1241 C1233 1.427 . S
N1241 C1239 1.384 . S
H1242 C1248 0.930 . S
H1243 C1252 0.930 . S
H1244 C1257 0.929 . S
H1245 C1255 0.929 . S
H1246 C1250 0.929 . S
H1247 C1256 0.929 . S
C1248 H1242 0.930 . S
C1248 C1249 1.367 . S
C1248 C1256 1.378 . S
C1249 C1248 1.367 . S
C1249 C1257 1.433 . S
C1250 H1246 0.929 . S
C1250 C1252 1.378 . S
C1250 C1254 1.350 . S
C1251 C1254 1.463 . S
C1251 C1256 1.350 . S
C1251 N1259 1.427 . S
C1252 H1243 0.930 . S
C1252 C1250 1.378 . S
C1252 C1253 1.367 . S
C1253 C1252 1.367 . S
C1253 C1255 1.433 . S
C1254 C1250 1.350 . S
C1254 C1251 1.463 . S
C1254 N1258 1.427 . S
C1255 H1245 0.929 . S
C1255 C1253 1.433 . S
C1255 N1258 1.384 . S
C1256 H1247 0.929 . S
C1256 C1248 1.378 . S
C1256 C1251 1.350 . S
C1257 H1244 0.929 . S
C1257 C1249 1.433 . S
C1257 N1259 1.384 . S
N1258 C1254 1.427 . S
N1258 C1255 1.384 . S
N1259 C1251 1.427 . S
N1259 C1257 1.384 . S
H1260 C1266 0.930 . S
H1261 C1270 0.930 . S
H1262 C1275 0.929 . S
H1263 C1273 0.929 . S
H1264 C1268 0.929 . S
H1265 C1274 0.929 . S
C1266 H1260 0.930 . S
C1266 C1267 1.367 1_455 S
C1266 C1274 1.378 . S
C1267 C1266 1.367 1_655 S
C1267 C1275 1.433 . S
C1268 H1264 0.929 . S
C1268 C1270 1.378 . S
C1268 C1272 1.350 . S
C1269 C1272 1.463 1_554 S
C1269 C1274 1.350 . S
C1269 N1277 1.428 1_455 S
C1270 H1261 0.930 . S
C1270 C1268 1.378 . S
C1270 C1271 1.367 . S
C1271 C1270 1.367 . S
C1271 C1273 1.433 . S
C1272 C1268 1.350 . S
C1272 C1269 1.463 1_556 S
C1272 N1276 1.427 . S
C1273 H1263 0.929 . S
C1273 C1271 1.433 . S
C1273 N1276 1.384 . S
C1274 H1265 0.929 . S
C1274 C1266 1.378 . S
C1274 C1269 1.350 . S
C1275 H1262 0.929 . S
C1275 C1267 1.433 . S
C1275 N1277 1.384 . S
N1276 C1272 1.427 . S
N1276 C1273 1.384 . S
N1277 C1269 1.428 1_655 S
N1277 C1275 1.384 . S
H1278 C1284 0.930 . S
H1279 C1288 0.930 . S
H1280 C1293 0.929 . S
H1281 C1291 0.929 . S
H1282 C1286 0.929 . S
H1283 C1292 0.929 . S
C1284 H1278 0.930 . S
C1284 C1285 1.367 . S
C1284 C1292 1.378 . S
C1285 C1284 1.367 . S
C1285 C1293 1.433 . S
C1286 H1282 0.929 . S
C1286 C1288 1.378 . S
C1286 C1290 1.350 . S
C1287 C1290 1.463 1_556 S
C1287 C1292 1.350 . S
C1287 N1295 1.427 . S
C1288 H1279 0.930 . S
C1288 C1286 1.378 . S
C1288 C1289 1.367 . S
C1289 C1288 1.367 . S
C1289 C1291 1.433 . S
C1290 C1286 1.350 . S
C1290 C1287 1.463 1_554 S
C1290 N1294 1.427 . S
C1291 H1281 0.929 . S
C1291 C1289 1.433 . S
C1291 N1294 1.384 . S
C1292 H1283 0.929 . S
C1292 C1284 1.378 . S
C1292 C1287 1.350 . S
C1293 H1280 0.929 . S
C1293 C1285 1.433 . S
C1293 N1295 1.384 . S
N1294 C1290 1.427 . S
N1294 C1291 1.384 . S
N1295 C1287 1.427 . S
N1295 C1293 1.384 . S
H1296 C1302 0.939 . S
H1297 C1306 0.930 1_554 S
H1298 C1311 0.929 . S
H1299 C1309 0.929 . S
H1300 C1304 0.929 . S
H1301 C1310 0.929 . S
C1302 H1296 0.939 . S
C1302 C1303 1.367 . S
C1302 C1310 1.378 1_554 S
C1303 C1302 1.367 . S
C1303 C1311 1.433 . S
C1304 H1300 0.929 . S
C1304 C1306 1.378 1_544 S
C1304 C1308 1.350 1_554 S
C1305 C1308 1.463 1_554 S
C1305 C1310 1.350 1_554 S
C1305 N1313 1.427 . S
C1306 H1297 0.930 1_556 S
C1306 C1304 1.378 1_566 S
C1306 C1307 1.367 1_565 S
C1307 C1306 1.367 1_545 S
C1307 C1309 1.433 . S
C1308 C1304 1.350 1_556 S
C1308 C1305 1.463 1_556 S
C1308 N1312 1.427 . S
C1309 H1299 0.929 . S
C1309 C1307 1.433 . S
C1309 N1312 1.384 . S
C1310 H1301 0.929 . S
C1310 C1302 1.378 1_556 S
C1310 C1305 1.350 1_556 S
C1311 H1298 0.929 . S
C1311 C1303 1.433 . S
C1311 N1313 1.384 . S
N1312 C1308 1.427 . S
N1312 C1309 1.384 . S
N1313 C1305 1.427 . S
N1313 C1311 1.384 . S
H1314 C1320 0.930 . S
H1315 C1324 0.930 1_565 S
H1316 C1329 0.929 . S
H1317 C1327 0.929 . S
H1318 C1322 0.929 . S
H1319 C1328 0.929 . S
C1320 H1314 0.930 . S
C1320 C1321 1.367 . S
C1320 C1328 1.378 . S
C1321 C1320 1.367 . S
C1321 C1329 1.433 . S
C1322 H1318 0.929 . S
C1322 C1324 1.378 . S
C1322 C1326 1.350 . S
C1323 C1326 1.463 . S
C1323 C1328 1.350 . S
C1323 N1331 1.427 . S
C1324 H1315 0.930 1_545 S
C1324 C1322 1.378 . S
C1324 C1325 1.367 . S
C1325 C1324 1.367 . S
C1325 C1327 1.433 . S
C1326 C1322 1.350 . S
C1326 C1323 1.463 . S
C1326 N1330 1.427 . S
C1327 H1317 0.929 . S
C1327 C1325 1.433 . S
C1327 N1330 1.384 . S
C1328 H1319 0.929 . S
C1328 C1320 1.378 . S
C1328 C1323 1.350 . S
C1329 H1316 0.929 . S
C1329 C1321 1.433 . S
C1329 N1331 1.384 . S
N1330 C1326 1.427 . S
N1330 C1327 1.384 . S
N1331 C1323 1.427 . S
N1331 C1329 1.384 . S
H1332 C1338 0.930 . S
H1333 C1342 0.930 . S
H1334 C1347 0.929 . S
H1335 C1345 0.929 . S
H1336 C1340 0.929 . S
H1337 C1346 0.929 . S
C1338 H1332 0.930 . S
C1338 C1339 1.367 1_455 S
C1338 C1346 1.378 . S
C1339 C1338 1.367 1_655 S
C1339 C1347 1.433 . S
C1340 H1336 0.929 . S
C1340 C1342 1.378 . S
C1340 C1344 1.350 . S
C1341 C1344 1.463 . S
C1341 C1346 1.350 . S
C1341 N1349 1.427 . S
C1342 H1333 0.930 . S
C1342 C1340 1.378 . S
C1342 C1343 1.367 . S
C1343 C1342 1.367 . S
C1343 C1345 1.433 . S
C1344 C1340 1.350 . S
C1344 C1341 1.463 . S
C1344 N1348 1.427 . S
C1345 H1335 0.929 . S
C1345 C1343 1.433 . S
C1345 N1348 1.384 . S
C1346 H1337 0.929 . S
C1346 C1338 1.378 . S
C1346 C1341 1.350 . S
C1347 H1334 0.929 . S
C1347 C1339 1.433 . S
C1347 N1349 1.384 1_655 S
N1348 C1344 1.427 . S
N1348 C1345 1.384 . S
N1349 C1341 1.427 . S
N1349 C1347 1.384 1_455 S
H1350 C1356 0.930 . S
H1351 C1360 0.930 . S
H1352 C1365 0.929 . S
H1353 C1363 0.929 . S
H1354 C1358 0.929 . S
H1355 C1364 0.929 . S
C1356 H1350 0.930 . S
C1356 C1357 1.367 . S
C1356 C1364 1.378 . S
C1357 C1356 1.367 . S
C1357 C1365 1.433 . S
C1358 H1354 0.929 . S
C1358 C1360 1.378 . S
C1358 C1362 1.350 . S
C1359 C1362 1.463 . S
C1359 C1364 1.350 . S
C1359 N1367 1.427 . S
C1360 H1351 0.930 . S
C1360 C1358 1.378 . S
C1360 C1361 1.367 . S
C1361 C1360 1.367 . S
C1361 C1363 1.433 . S
C1362 C1358 1.350 . S
C1362 C1359 1.463 . S
C1362 N1366 1.427 . S
C1363 H1353 0.929 . S
C1363 C1361 1.433 . S
C1363 N1366 1.384 . S
C1364 H1355 0.929 . S
C1364 C1356 1.378 . S
C1364 C1359 1.350 . S
C1365 H1352 0.929 . S
C1365 C1357 1.433 . S
C1365 N1367 1.384 . S
N1366 C1362 1.427 . S
N1366 C1363 1.384 . S
N1367 C1359 1.427 . S
N1367 C1365 1.384 . S
C403 C59 1.362 . S
C407 C15 1.363 . S
C421 C10 1.347 . S
C425 C29 1.326 . S
C439 C40 1.287 . S
C443 C54 1.290 1_565 S
C457 C87 1.374 . S
C461 C131 1.366 1_565 S
C475 C74 1.343 . S
C479 C109 1.313 . S
C493 C96 1.296 . S
C497 C118 1.289 . S
C511 C194 1.322 . S
C515 C147 1.309 . S
C529 C169 1.322 . S
C533 C142 1.340 . S
C547 C164 1.345 . S
C551 C183 1.325 . S
C565 C206 1.335 . S
C569 C257 1.318 . S
C583 C219 1.318 . S
C587 C228 1.330 . S
C601 C252 1.335 . S
C605 C241 1.315 . S
C619 C323 1.345 . S
C623 C271 1.357 . S
C637 C282 1.334 . S
C641 C293 1.311 . S
C655 C304 1.287 . S
C659 C318 1.287 . S
C673 C381 1.355 . S
C677 C351 1.349 . S
C691 C373 1.313 . S
C695 C338 1.337 . S
C709 C392 1.289 . S
C713 C360 1.291 . S
C727 C21 1.937 . S
C731 C294 1.957 . S
C745 C329 1.972 . S
C749 C37 1.975 . S
C763 C62 1.921 . S
C767 C272 1.916 . S
C781 C175 1.989 1_556 S
C785 C65 1.991 . S
C799 C18 1.961 1_655 S
C803 C191 1.947 1_556 S
C817 C153 1.943 1_556 S
C821 C30 1.956 . S
C835 C235 1.986 . S
C839 C81 1.991 1_655 S
C853 C103 1.987 . S
C857 C249 1.984 . S
C871 C213 1.936 . S
C875 C128 1.955 . S
C889 C125 1.973 . S
C893 C367 1.975 1_554 S
C907 C384 1.916 1_554 S
C911 C84 1.916 . S
C925 C345 1.933 1_554 S
C929 C106 1.956 . S
C943 C301 1.929 . S
C947 C184 1.950 . S
C961 C326 1.901 . S
C965 C150 1.904 . S
C979 C172 1.952 . S
C983 C279 1.933 1_545 S
C997 C216 1.900 . S
C1001 C370 1.903 1_545 S
C1015 C395 1.935 . S
C1019 C238 1.951 . S
C1033 C250 1.903 . S
C1037 C348 1.909 . S
C1051 C7 1.110 . S
C1055 C337 1.107 . S
C1069 C43 1.115 . S
C1073 C359 1.112 . S
C1087 C382 1.048 . S
C1091 C52 1.073 . S
C1105 C263 1.114 . S
C1109 C51 1.115 . S
C1123 C205 1.085 . S
C1127 C8 1.089 . S
C1141 C32 1.104 . S
C1145 C227 1.103 . S
C1159 C73 1.105 . S
C1163 C139 1.107 . S
C1177 C95 1.121 . S
C1181 C161 1.124 . S
C1195 C120 1.090 . S
C1199 C197 1.097 . S
C1213 C117 1.110 . S
C1217 C315 1.091 . S
C1231 C76 1.030 . S
C1235 C274 1.032 . S
C1249 C296 1.038 . S
C1253 C98 1.034 . S
C1267 C186 1.053 . S
C1271 C389 1.052 . S
C1285 C340 1.014 . S
C1289 C140 1.018 . S
C1303 C162 1.040 . S
C1307 C362 1.036 1_545 S
C1321 C208 1.037 . S
C1325 C285 1.038 1_545 S
C1339 C230 1.062 . S
C1343 C307 1.062 . S
C1357 C316 1.038 . S
C1361 C260 1.037 . S
