# Generated by pormake.
# Topology uni, (4)-cn, num edge types: 1
# Building blocks:
#     Node 0, Type 0, BuildingBlock: AZAVOO_clean_sbu_0, # of connection points: 4
#     Node 1, Type 0, BuildingBlock: AZAVOO_clean_sbu_0, # of connection points: 4
#     Node 2, Type 0, BuildingBlock: AZAVOO_clean_sbu_0, # of connection points: 4
#     Node 3, Type 0, BuildingBlock: AZAVOO_clean_sbu_0, # of connection points: 4
#     Node 4, Type 0, BuildingBlock: AZAVOO_clean_sbu_0, # of connection points: 4
#     Node 5, Type 0, BuildingBlock: AZAVOO_clean_sbu_0, # of connection points: 4
#     Edge 6, Type (0, 0), BuildingBlock: FUNLAD_clean_linker_0, # of connection points: 2
#     Edge 7, Type (0, 0), BuildingBlock: FUNLAD_clean_linker_0, # of connection points: 2
#     Edge 8, Type (0, 0), BuildingBlock: FUNLAD_clean_linker_0, # of connection points: 2
#     Edge 9, Type (0, 0), BuildingBlock: FUNLAD_clean_linker_0, # of connection points: 2
#     Edge 10, Type (0, 0), BuildingBlock: FUNLAD_clean_linker_0, # of connection points: 2
#     Edge 11, Type (0, 0), BuildingBlock: FUNLAD_clean_linker_0, # of connection points: 2
#     Edge 12, Type (0, 0), BuildingBlock: FUNLAD_clean_linker_0, # of connection points: 2
#     Edge 13, Type (0, 0), BuildingBlock: FUNLAD_clean_linker_0, # of connection points: 2
#     Edge 14, Type (0, 0), BuildingBlock: FUNLAD_clean_linker_0, # of connection points: 2
#     Edge 15, Type (0, 0), BuildingBlock: FUNLAD_clean_linker_0, # of connection points: 2
#     Edge 16, Type (0, 0), BuildingBlock: FUNLAD_clean_linker_0, # of connection points: 2
#     Edge 17, Type (0, 0), BuildingBlock: FUNLAD_clean_linker_0, # of connection points: 2
# Relax obj value: 0.055
# Max RMSD: 0.096
# Mean RMSD: 0.096
data_MOF--net-uni--node1-AZAVOO_clean_sbu_0--edge1-FUNLAD_clean_linker_0
_symmetry_space_group_name_H-M    P1
_symmetry_Int_Tables_number       1
_symmetry_cell_setting            triclinic
loop_
_symmetry_equiv_pos_as_xyz
'x, y, z'
_cell_length_a     46.231848
_cell_length_b     46.24197
_cell_length_c     25.387691
_cell_angle_alpha  89.97848
_cell_angle_beta   89.933543
_cell_angle_gamma 119.99116
loop_
_atom_site_label
_atom_site_type_symbol
_atom_site_fract_x
_atom_site_fract_y
_atom_site_fract_z
_atom_type_partial_charge
Mg0 Mg 0.64824 0.0169 0.02941 0.0
O1 O 0.6248 0.03334 0.09374 0.0
O2 O 0.61761 0.07424 0.06155 0.0
Mg3 Mg 0.63654 0.08385 0.97645 0.0
C4 C 0.61514 0.05466 0.09895 0.0
C5 C 0.68376 0.98265 0.08332 0.0
O6 O 0.70323 0.99586 0.04209 0.0
O7 O 0.69868 0.06352 0.04149 0.0
O8 O 0.69044 0.10279 0.00495 0.0
O9 O 0.59769 0.98028 -0.00018 0.0
O10 O 0.62705 0.03225 0.97114 0.0
C11 C 0.70933 0.09371 0.02753 0.0
C12 C 0.59961 0.00397 0.97017 0.0
O13 O 0.65953 0.98787 0.09021 0.0
Mg14 Mg 0.64236 0.65368 0.18319 0.0
O15 O 0.60164 0.62434 0.24435 0.0
O16 O 0.55214 0.61402 0.21392 0.0
Mg17 Mg 0.56172 0.63805 0.13215 0.0
C18 C 0.57017 0.61168 0.24982 0.0
C19 C 0.67875 0.63888 0.27131 0.0
O20 O 0.65246 0.60943 0.26276 0.0
O21 O 0.64132 0.70094 0.20419 0.0
O22 O 0.59253 0.69024 0.16944 0.0
O23 O 0.6329 0.6064 0.14515 0.0
O24 O 0.60694 0.63378 0.12297 0.0
C25 C 0.61966 0.70956 0.19382 0.0
C26 C 0.61046 0.60804 0.11691 0.0
O27 O 0.68224 0.66376 0.24477 0.0
Mg28 Mg 0.99476 0.63644 0.35363 0.0
O29 O 0.98385 0.59973 0.42192 0.0
O30 O 0.94101 0.55041 0.3976 0.0
Mg31 Mg 0.92457 0.55545 0.31504 0.0
C32 C 0.96308 0.56898 0.43113 0.0
C33 C 0.05443 0.7017 0.37871 0.0
O34 O 0.05477 0.69697 0.32772 0.0
O35 O 0.94931 0.64091 0.37494 0.0
O36 O 0.90803 0.59143 0.34746 0.0
O37 O 0.02895 0.62127 0.31767 0.0
O38 O 0.97511 0.59716 0.29959 0.0
C39 C 0.91833 0.62026 0.36772 0.0
C40 C 0.00322 0.59808 0.29329 0.0
O41 O 0.02972 0.68023 0.40538 0.0
Mg42 Mg 0.37434 6e-05 0.52093 0.0
O43 O 0.4015 0.99295 0.59085 0.0
O44 O 0.41146 0.95167 0.57114 0.0
Mg45 Mg 0.39091 0.93247 0.48886 0.0
C46 C 0.41333 0.97406 0.60263 0.0
C47 C 0.37299 0.06245 0.553 0.0
O48 O 0.38821 0.06979 0.50712 0.0
O49 O 0.32574 0.95302 0.54311 0.0
O50 O 0.33743 0.91355 0.51867 0.0
O51 O 0.42347 0.03545 0.48415 0.0
O52 O 0.39617 0.9812 0.46919 0.0
C53 C 0.31725 0.92235 0.53713 0.0
C54 C 0.42244 0.00986 0.46165 0.0
O55 O 0.36215 0.03331 0.57161 0.0
Mg56 Mg 0.37841 0.37611 0.68153 0.0
O57 O 0.41845 0.40756 0.74251 0.0
O58 O 0.46902 0.42214 0.71122 0.0
Mg59 Mg 0.46112 0.39853 0.62958 0.0
C60 C 0.45012 0.42259 0.74749 0.0
C61 C 0.34019 0.38806 0.76953 0.0
O62 O 0.36527 0.41812 0.75973 0.0
O63 O 0.38339 0.33065 0.70173 0.0
O64 O 0.43361 0.34629 0.66697 0.0
O65 O 0.38447 0.42233 0.64323 0.0
O66 O 0.41343 0.39805 0.62099 0.0
C67 C 0.40716 0.32501 0.69113 0.0
C68 C 0.40777 0.42241 0.61479 0.0
O69 O 0.33799 0.3635 0.74364 0.0
Mg70 Mg 0.02397 0.38863 0.85583 0.0
O71 O 0.03697 0.42758 0.92055 0.0
O72 O 0.07931 0.4764 0.89348 0.0
Mg73 Mg 0.09404 0.46819 0.81121 0.0
C74 C 0.05767 0.45847 0.92811 0.0
C75 C 0.98268 0.31791 0.90881 0.0
O76 O 0.99462 0.3092 0.86868 0.0
O77 O 0.06948 0.38409 0.87616 0.0
O78 O 0.1107 0.43283 0.84591 0.0
O79 O 0.98975 0.40379 0.81974 0.0
O80 O 0.04308 0.42612 0.79855 0.0
C81 C 0.10041 0.40438 0.86769 0.0
C82 C 0.01525 0.4259 0.79333 0.0
O83 O 0.99116 0.34842 0.9146 0.0
C84 C 0.59444 0.03325 0.19017 0.0
C85 C 0.59912 0.05561 0.14908 0.0
C86 C 0.57714 0.03246 0.23585 0.0
C87 C 0.56395 0.05392 0.24131 0.0
C88 C 0.56994 0.07725 0.20134 0.0
C89 C 0.58719 0.07802 0.15564 0.0
C90 C 0.54327 0.05231 0.28732 0.0
C91 C 0.52484 0.02423 0.31556 0.0
C92 C 0.50038 0.0211 0.3564 0.0
C93 C 0.47274 0.98944 0.36642 0.0
C94 C 0.44781 0.98564 0.40158 0.0
C95 C 0.4502 0.01343 0.42804 0.0
H96 H 0.52498 0.07339 0.37924 0.0
C97 C 0.47859 0.04493 0.41985 0.0
C98 C 0.50349 0.04875 0.3845 0.0
H99 H 0.48133 0.06679 0.44005 0.0
H100 H 0.60368 0.01593 0.18682 0.0
H101 H 0.57414 0.01495 0.26658 0.0
H102 H 0.56041 0.09433 0.20476 0.0
H103 H 0.59056 0.09578 0.12507 0.0
H104 H 0.54066 0.07403 0.29461 0.0
H105 H 0.52506 0.00159 0.30498 0.0
H106 H 0.46984 0.96766 0.34571 0.0
H107 H 0.4263 0.96102 0.4069 0.0
C108 C 0.51946 0.57805 0.30631 0.0
C109 C 0.55414 0.59285 0.2987 0.0
C110 C 0.50424 0.55887 0.35124 0.0
C111 C 0.52345 0.55418 0.3897 0.0
C112 C 0.55809 0.56931 0.38236 0.0
C113 C 0.57331 0.58856 0.33762 0.0
C114 C 0.5081 0.53171 0.43571 0.0
C115 C 0.47798 0.52358 0.45581 0.0
C116 C 0.46184 0.49868 0.49875 0.0
C117 C 0.43792 0.50018 0.53096 0.0
C118 C 0.42092 0.47592 0.56968 0.0
C119 C 0.42726 0.44943 0.57652 0.0
H120 H 0.48567 0.46948 0.48074 0.0
C121 C 0.45126 0.44799 0.54437 0.0
C122 C 0.46832 0.47226 0.50591 0.0
H123 H 0.45635 0.42763 0.54787 0.0
H124 H 0.5039 0.58071 0.27707 0.0
H125 H 0.47737 0.54691 0.35463 0.0
H126 H 0.57345 0.56593 0.41113 0.0
H127 H 0.60007 0.59959 0.33325 0.0
H128 H 0.5226 0.52187 0.45408 0.0
H129 H 0.46478 0.53583 0.44112 0.0
H130 H 0.43219 0.52005 0.52591 0.0
H131 H 0.4024 0.47762 0.59359 0.0
C132 C 0.98249 0.45064 0.75524 0.0
C133 C 0.01259 0.45019 0.75869 0.0
C134 C 0.9792 0.47186 0.71958 0.0
C135 C 0.00593 0.4929 0.6863 0.0
C136 C 0.03642 0.49347 0.6915 0.0
C137 C 0.0397 0.47224 0.72708 0.0
C138 C 0.00276 0.51385 0.64482 0.0
C139 C 0.97351 0.50564 0.62134 0.0
C140 C 0.97073 0.52344 0.57458 0.0
C141 C 0.94381 0.50586 0.5401 0.0
C142 C 0.9411 0.52081 0.49404 0.0
C143 C 0.96513 0.55392 0.48157 0.0
H144 H 0.01473 0.57172 0.58962 0.0
C145 C 0.99144 0.57202 0.5171 0.0
C146 C 0.99422 0.55697 0.56318 0.0
H147 H 0.01019 0.59769 0.50903 0.0
H148 H 0.96126 0.43425 0.77955 0.0
H149 H 0.95566 0.47156 0.71817 0.0
H150 H 0.05751 0.50963 0.66673 0.0
H151 H 0.06326 0.47256 0.72877 0.0
H152 H 0.02574 0.53465 0.62967 0.0
H153 H 0.95104 0.48301 0.63333 0.0
H154 H 0.92518 0.48012 0.54814 0.0
H155 H 0.92031 0.50617 0.46792 0.0
C156 C 0.57495 0.02369 0.90088 0.0
C157 C 0.57159 -0.00146 0.93563 0.0
C158 C 0.54979 0.01751 0.86461 0.0
C159 C 0.52059 0.98599 0.86248 0.0
C160 C 0.51694 0.96116 0.89813 0.0
C161 C 0.54207 0.96738 0.93448 0.0
C162 C 0.49508 0.97714 0.82059 0.0
C163 C 0.49096 -0.00018 0.79333 0.0
C164 C 0.46865 0.9911 0.7468 0.0
C165 C 0.45684 0.01256 0.73177 0.0
C166 C 0.43805 0.00656 0.68578 0.0
C167 C 0.43106 0.97914 0.6534 0.0
H168 H 0.47064 0.94677 0.72407 0.0
C169 C 0.44255 0.95743 0.66883 0.0
C170 C 0.46117 0.96335 0.71487 0.0
H171 H 0.43777 0.93615 0.64478 0.0
H172 H 0.59752 0.04786 0.90033 0.0
H173 H 0.55413 0.03707 0.83694 0.0
H174 H 0.49484 0.9366 0.89714 0.0
H175 H 0.53872 0.94743 0.96066 0.0
H176 H 0.47925 0.95078 0.81185 0.0
H177 H 0.50433 0.02584 0.80524 0.0
H178 H 0.46251 0.03429 0.75534 0.0
H179 H 0.42972 0.02388 0.67505 0.0
C180 C 0.56661 0.58428 0.04674 0.0
C181 C 0.58995 0.58153 0.07859 0.0
C182 C 0.54911 0.5606 0.00771 0.0
C183 C 0.55454 0.53356 0.99974 0.0
C184 C 0.57758 0.53063 0.03201 0.0
C185 C 0.59497 0.55423 0.07122 0.0
C186 C 0.53853 0.50949 0.95582 0.0
C187 C 0.50931 0.50283 0.93394 0.0
C188 C 0.4946 0.48076 0.88743 0.0
C189 C 0.46002 0.46519 0.87928 0.0
C190 C 0.4455 0.44576 0.83447 0.0
C191 C 0.46536 0.44186 0.79627 0.0
H192 H 0.54137 0.48903 0.85358 0.0
C193 C 0.50002 0.45738 0.80452 0.0
C194 C 0.5145 0.47664 0.84954 0.0
H195 H 0.51611 0.45506 0.77585 0.0
H196 H 0.56247 0.60523 0.05086 0.0
H197 H 0.53235 0.56437 0.98268 0.0
H198 H 0.58245 0.51022 0.02646 0.0
H199 H 0.6129 0.55146 0.09494 0.0
H200 H 0.55111 0.49644 0.94179 0.0
H201 H 0.49506 0.51329 0.95127 0.0
H202 H 0.44415 0.46819 0.9076 0.0
H203 H 0.41873 0.43424 0.82948 0.0
C204 C 0.03106 0.45555 0.01567 0.0
C205 C 0.05577 0.47418 0.9779 0.0
C206 C 0.02818 0.47076 0.06138 0.0
C207 C 0.0499 0.50503 0.07022 0.0
C208 C 0.07529 0.52333 0.03343 0.0
C209 C 0.07814 0.50816 0.98768 0.0
C210 C 0.0468 0.52269 0.11687 0.0
C211 C 0.01782 0.51262 0.14273 0.0
C212 C 0.01408 0.53276 0.18496 0.0
C213 C 0.98282 0.53023 0.19253 0.0
C214 C 0.97896 0.55076 0.22886 0.0
C215 C 0.00628 0.57401 0.25878 0.0
H216 H 0.06522 0.55666 0.21349 0.0
C217 C 0.03718 0.57536 0.25314 0.0
C218 C 0.04104 0.55488 0.21676 0.0
H219 H 0.05862 0.59272 0.27611 0.0
H220 H 0.01365 0.42923 0.00977 0.0
H221 H 0.009 0.45552 0.08963 0.0
H222 H 0.09258 0.54968 0.03951 0.0
H223 H 0.09764 0.52324 0.95971 0.0
H224 H 0.06855 0.54641 0.12709 0.0
H225 H 0.99525 0.49063 0.12935 0.0
H226 H 0.96155 0.51312 0.16898 0.0
H227 H 0.9548 0.54903 0.23232 0.0
C228 C 0.65995 0.76916 0.21791 0.0
C229 C 0.6272 0.74395 0.20602 0.0
C230 C 0.66787 0.80254 0.22121 0.0
C231 C 0.64311 0.81126 0.21278 0.0
C232 C 0.61 0.78578 0.20504 0.0
C233 C 0.60213 0.75253 0.20134 0.0
C234 C 0.65084 0.84642 0.20777 0.0
C235 C 0.68033 0.87113 0.18954 0.0
C236 C 0.68466 0.90328 0.16947 0.0
C237 C 0.70795 0.91982 0.12903 0.0
C238 C 0.70897 0.94687 0.10278 0.0
C239 C 0.68675 0.95802 0.11666 0.0
H240 H 0.64717 0.90517 0.21886 0.0
C241 C 0.66535 0.94326 0.15998 0.0
C242 C 0.66442 0.91627 0.18634 0.0
H243 H 0.6484 0.95174 0.17239 0.0
H244 H 0.67979 0.76334 0.22237 0.0
H245 H 0.69348 0.8214 0.22913 0.0
H246 H 0.59033 0.79172 0.1991 0.0
H247 H 0.57655 0.73371 0.19297 0.0
H248 H 0.62989 0.85072 0.21149 0.0
H249 H 0.70038 0.86596 0.18148 0.0
H250 H 0.72419 0.91066 0.1157 0.0
H251 H 0.72606 0.95795 0.07 0.0
C252 C 0.85948 0.60645 0.38312 0.0
C253 C 0.89342 0.63067 0.37857 0.0
C254 C 0.8351 0.61579 0.3846 0.0
C255 C 0.84411 0.64967 0.3815 0.0
C256 C 0.87813 0.67397 0.37952 0.0
C257 C 0.90262 0.66461 0.37864 0.0
C258 C 0.81862 0.65972 0.37217 0.0
C259 C 0.78657 0.64093 0.38765 0.0
C260 C 0.75853 0.64375 0.36446 0.0
C261 C 0.72648 0.61548 0.3663 0.0
C262 C 0.70023 0.6145 0.33781 0.0
C263 C 0.70535 0.64195 0.30714 0.0
H264 H 0.78706 0.69492 0.33583 0.0
C265 C 0.73673 0.67123 0.3084 0.0
C266 C 0.76311 0.67218 0.33682 0.0
H267 H 0.7413 0.693 0.28581 0.0
H268 H 0.85159 0.5801 0.38328 0.0
H269 H 0.80921 0.59616 0.38465 0.0
H270 H 0.88573 0.7002 0.37658 0.0
H271 H 0.92858 0.68386 0.37491 0.0
H272 H 0.82617 0.68147 0.34744 0.0
H273 H 0.7799 0.61982 0.41359 0.0
H274 H 0.72205 0.59334 0.38768 0.0
H275 H 0.6762 0.59173 0.33839 0.0
C276 C 0.08438 0.73616 0.45843 0.0
C277 C 0.08422 0.7291 0.40448 0.0
C278 C 0.11384 0.76038 0.48276 0.0
C279 C 0.14357 0.77754 0.45347 0.0
C280 C 0.1431 0.77086 0.39955 0.0
C281 C 0.11376 0.74722 0.37521 0.0
C282 C 0.17615 0.80078 0.47776 0.0
C283 C 0.18034 0.82068 0.51915 0.0
C284 C 0.21455 0.84571 0.53611 0.0
C285 C 0.22286 0.87899 0.54429 0.0
C286 C 0.2564 0.90407 0.54865 0.0
C287 C 0.28199 0.89604 0.54526 0.0
H288 H 0.23398 0.81169 0.53351 0.0
C289 C 0.27321 0.86225 0.54264 0.0
C290 C 0.23985 0.83736 0.53816 0.0
H291 H 0.2922 0.85507 0.5411 0.0
H292 H 0.06199 0.72253 0.482 0.0
H293 H 0.11359 0.76469 0.52463 0.0
H294 H 0.1657 0.78373 0.37617 0.0
H295 H 0.11461 0.74244 0.33363 0.0
H296 H 0.19818 0.80338 0.4578 0.0
H297 H 0.1591 0.82128 0.53627 0.0
H298 H 0.20367 0.88591 0.54343 0.0
H299 H 0.2623 0.92983 0.55115 0.0
C300 C 0.37113 0.2629 0.69984 0.0
C301 C 0.40294 0.29162 0.70104 0.0
C302 C 0.36789 0.23117 0.69624 0.0
C303 C 0.3965 0.22773 0.69447 0.0
C304 C 0.42801 0.25633 0.70074 0.0
C305 C 0.43123 0.2879 0.70376 0.0
C306 C 0.39554 0.19637 0.67817 0.0
C307 C 0.36764 0.16666 0.67095 0.0
C308 C 0.36886 0.13963 0.64136 0.0
C309 C 0.34884 0.1061 0.65638 0.0
C310 C 0.35008 0.08073 0.62795 0.0
C311 C 0.37073 0.08855 0.58328 0.0
H312 H 0.40401 0.17278 0.58266 0.0
C313 C 0.38996 0.12206 0.56761 0.0
C314 C 0.3891 0.14726 0.59631 0.0
H315 H 0.40601 0.12898 0.53329 0.0
H316 H 0.34887 0.26503 0.69764 0.0
H317 H 0.34311 0.20992 0.69143 0.0
H318 H 0.45049 0.25452 0.69992 0.0
H319 H 0.45607 0.30956 0.70533 0.0
H320 H 0.41934 0.19856 0.66738 0.0
H321 H 0.34357 0.16217 0.68494 0.0
H322 H 0.33266 0.09961 0.6905 0.0
H323 H 0.33481 0.05507 0.64074 0.0
C324 C 0.15917 0.41798 0.88296 0.0
C325 C 0.1252 0.39386 0.87873 0.0
C326 C 0.18343 0.40849 0.88445 0.0
C327 C 0.17427 0.37456 0.8816 0.0
C328 C 0.14021 0.35036 0.87992 0.0
C329 C 0.11583 0.35988 0.87911 0.0
C330 C 0.19968 0.36442 0.87214 0.0
C331 C 0.23163 0.38301 0.88803 0.0
C332 C 0.25988 0.3807 0.86442 0.0
C333 C 0.29183 0.40905 0.86705 0.0
C334 C 0.31826 0.41076 0.83801 0.0
C335 C 0.31345 0.38394 0.80604 0.0
H336 H 0.23173 0.33003 0.83378 0.0
C337 C 0.28221 0.35447 0.80656 0.0
C338 C 0.25561 0.35282 0.83548 0.0
H339 H 0.27789 0.3332 0.78288 0.0
H340 H 0.16716 0.44436 0.88283 0.0
H341 H 0.20936 0.42803 0.88426 0.0
H342 H 0.1325 0.3241 0.87715 0.0
H343 H 0.08983 0.34071 0.87559 0.0
H344 H 0.19225 0.34294 0.84689 0.0
H345 H 0.23809 0.4038 0.91456 0.0
H346 H 0.29603 0.43077 0.88942 0.0
H347 H 0.34218 0.43363 0.8392 0.0
C348 C 0.94205 0.25817 0.93088 0.0
C349 C 0.95609 0.29226 0.94257 0.0
C350 C 0.91364 0.2343 0.95772 0.0
C351 C 0.89882 0.24408 0.9972 0.0
C352 C 0.91404 0.27799 0.01075 0.0
C353 C 0.94239 0.30181 0.98391 0.0
C354 C 0.86544 0.22071 0.0199 0.0
C355 C 0.8507 0.18721 0.01718 0.0
C356 C 0.81457 0.16467 0.02807 0.0
C357 C 0.80299 0.13096 0.03991 0.0
C358 C 0.76872 0.10811 0.04278 0.0
C359 C 0.74533 0.11846 0.03297 0.0
H360 H 0.79882 0.20076 0.01009 0.0
C361 C 0.75694 0.15244 0.02326 0.0
C362 C 0.79111 0.17526 0.02073 0.0
H363 H 0.73964 0.16128 0.01553 0.0
H364 H 0.952 0.24998 0.89925 0.0
H365 H 0.90248 0.2086 0.94513 0.0
H366 H 0.90319 0.28629 0.04084 0.0
H367 H 0.9527 0.32787 0.99419 0.0
H368 H 0.85186 0.23183 0.03744 0.0
H369 H 0.86501 0.17567 0.00457 0.0
H370 H 0.82048 0.12208 0.04531 0.0
H371 H 0.76064 0.08208 0.05021 0.0
loop_
_geom_bond_atom_site_label_1
_geom_bond_atom_site_label_2
_geom_bond_distance
_geom_bond_site_symmetry_2
_ccdc_geom_bond_type
Mg0 O1 2.028 . S
Mg0 O7 1.986 . S
Mg0 O9 2.114 1_544 S
Mg0 O10 2.251 1_554 S
Mg0 O13 2.010 1_545 S
O1 Mg0 2.028 . S
O1 C4 1.250 . S
O2 Mg3 2.028 . S
O2 C4 1.248 . S
Mg3 O2 2.028 . S
Mg3 O8 2.032 . S
Mg3 O10 2.079 1_554 S
C4 O1 1.250 . S
C4 O2 1.248 . S
C5 O6 1.264 . S
C5 O13 1.249 . S
O6 C5 1.264 . S
O7 Mg0 1.986 . S
O7 C11 1.246 . S
O8 Mg3 2.032 . S
O8 C11 1.259 . S
O9 Mg0 2.114 1_566 S
O9 C12 1.252 1_565 S
O10 Mg0 2.251 1_556 S
O10 Mg3 2.079 1_556 S
O10 C12 1.273 . S
C11 O7 1.246 . S
C11 O8 1.259 . S
C12 O9 1.252 1_545 S
C12 O10 1.273 . S
O13 Mg0 2.010 1_565 S
O13 C5 1.249 . S
Mg14 O15 2.028 . S
Mg14 O21 1.986 . S
Mg14 O23 2.114 . S
Mg14 O24 2.251 . S
Mg14 O27 2.010 . S
O15 Mg14 2.028 . S
O15 C18 1.250 . S
O16 Mg17 2.028 . S
O16 C18 1.248 . S
Mg17 O16 2.028 . S
Mg17 O22 2.032 . S
Mg17 O24 2.079 . S
C18 O15 1.250 . S
C18 O16 1.248 . S
C19 O20 1.264 . S
C19 O27 1.249 . S
O20 C19 1.264 . S
O21 Mg14 1.986 . S
O21 C25 1.246 . S
O22 Mg17 2.032 . S
O22 C25 1.259 . S
O23 Mg14 2.114 . S
O23 C26 1.252 . S
O24 Mg14 2.251 . S
O24 Mg17 2.079 . S
O24 C26 1.273 . S
C25 O21 1.246 . S
C25 O22 1.259 . S
C26 O23 1.252 . S
C26 O24 1.273 . S
O27 Mg14 2.010 . S
O27 C19 1.249 . S
Mg28 O29 2.028 . S
Mg28 O35 1.986 1_455 S
Mg28 O37 2.114 . S
Mg28 O38 2.251 1_455 S
Mg28 O41 2.010 . S
O29 Mg28 2.028 . S
O29 C32 1.250 . S
O30 Mg31 2.028 . S
O30 C32 1.248 1_655 S
Mg31 O30 2.028 . S
Mg31 O36 2.032 . S
Mg31 O38 2.079 . S
C32 O29 1.250 . S
C32 O30 1.248 1_455 S
C33 O34 1.264 . S
C33 O41 1.249 . S
O34 C33 1.264 . S
O35 Mg28 1.986 1_655 S
O35 C39 1.246 . S
O36 Mg31 2.032 . S
O36 C39 1.259 . S
O37 Mg28 2.114 . S
O37 C40 1.252 . S
O38 Mg28 2.251 1_655 S
O38 Mg31 2.079 . S
O38 C40 1.273 1_655 S
C39 O35 1.246 . S
C39 O36 1.259 . S
C40 O37 1.252 . S
C40 O38 1.273 1_455 S
O41 Mg28 2.010 . S
O41 C33 1.249 . S
Mg42 O43 2.028 . S
Mg42 O49 1.986 1_545 S
Mg42 O51 2.114 . S
Mg42 O52 2.251 1_545 S
Mg42 O55 2.010 . S
O43 Mg42 2.028 . S
O43 C46 1.250 . S
O44 Mg45 2.028 . S
O44 C46 1.248 1_565 S
Mg45 O44 2.028 . S
Mg45 O50 2.032 . S
Mg45 O52 2.079 . S
C46 O43 1.250 . S
C46 O44 1.248 1_545 S
C47 O48 1.264 . S
C47 O55 1.249 . S
O48 C47 1.264 . S
O49 Mg42 1.986 1_565 S
O49 C53 1.246 . S
O50 Mg45 2.032 . S
O50 C53 1.259 . S
O51 Mg42 2.114 . S
O51 C54 1.252 . S
O52 Mg42 2.251 1_565 S
O52 Mg45 2.079 . S
O52 C54 1.273 1_565 S
C53 O49 1.246 . S
C53 O50 1.259 . S
C54 O51 1.252 . S
C54 O52 1.273 1_545 S
O55 Mg42 2.010 . S
O55 C47 1.249 . S
Mg56 O57 2.028 . S
Mg56 O63 1.986 . S
Mg56 O65 2.114 . S
Mg56 O66 2.251 . S
Mg56 O69 2.010 . S
O57 Mg56 2.028 . S
O57 C60 1.250 . S
O58 Mg59 2.028 . S
O58 C60 1.248 . S
Mg59 O58 2.028 . S
Mg59 O64 2.032 . S
Mg59 O66 2.079 . S
C60 O57 1.250 . S
C60 O58 1.248 . S
C61 O62 1.264 . S
C61 O69 1.249 . S
O62 C61 1.264 . S
O63 Mg56 1.986 . S
O63 C67 1.246 . S
O64 Mg59 2.032 . S
O64 C67 1.259 . S
O65 Mg56 2.114 . S
O65 C68 1.252 . S
O66 Mg56 2.251 . S
O66 Mg59 2.079 . S
O66 C68 1.273 . S
C67 O63 1.246 . S
C67 O64 1.259 . S
C68 O65 1.252 . S
C68 O66 1.273 . S
O69 Mg56 2.010 . S
O69 C61 1.249 . S
Mg70 O71 2.028 . S
Mg70 O77 1.986 . S
Mg70 O79 2.114 1_455 S
Mg70 O80 2.251 . S
Mg70 O83 2.010 1_455 S
O71 Mg70 2.028 . S
O71 C74 1.250 . S
O72 Mg73 2.028 . S
O72 C74 1.248 . S
Mg73 O72 2.028 . S
Mg73 O78 2.032 . S
Mg73 O80 2.079 . S
C74 O71 1.250 . S
C74 O72 1.248 . S
C75 O76 1.264 . S
C75 O83 1.249 . S
O76 C75 1.264 . S
O77 Mg70 1.986 . S
O77 C81 1.246 . S
O78 Mg73 2.032 . S
O78 C81 1.259 . S
O79 Mg70 2.114 1_655 S
O79 C82 1.252 1_655 S
O80 Mg70 2.251 . S
O80 Mg73 2.079 . S
O80 C82 1.273 . S
C81 O77 1.246 . S
C81 O78 1.259 . S
C82 O79 1.252 1_455 S
C82 O80 1.273 . S
O83 Mg70 2.010 1_655 S
O83 C75 1.249 . S
C84 C85 1.386 1_565 S
C84 C86 1.383 . S
C84 H100 0.951 . S
C85 C84 1.386 1_545 S
C85 C89 1.383 . S
C86 C84 1.383 . S
C86 C87 1.401 1_565 S
C86 H101 0.951 . S
C87 C86 1.401 1_545 S
C87 C88 1.375 . S
C87 C90 1.481 . S
C88 C87 1.375 . S
C88 C89 1.367 . S
C88 H102 0.951 . S
C89 C85 1.383 . S
C89 C88 1.367 . S
C89 H103 0.950 . S
C90 C87 1.481 . S
C90 C91 1.297 . S
C90 H104 0.950 . S
C91 C90 1.297 . S
C91 C92 1.479 . S
C91 H105 0.950 1_545 S
C92 C91 1.479 . S
C92 C93 1.375 1_545 S
C92 C98 1.404 . S
C93 C92 1.375 1_565 S
C93 C94 1.369 . S
C93 H106 0.950 . S
C94 C93 1.369 . S
C94 C95 1.392 1_565 S
C94 H107 0.951 . S
C95 C94 1.392 1_545 S
C95 C97 1.384 . S
H96 C98 0.949 . S
C97 C95 1.384 . S
C97 C98 1.385 . S
C97 H99 0.950 . S
C98 C92 1.404 . S
C98 H96 0.949 . S
C98 C97 1.385 . S
H99 C97 0.950 . S
H100 C84 0.951 . S
H101 C86 0.951 . S
H102 C88 0.951 . S
H103 C89 0.950 . S
H104 C90 0.950 . S
H105 C91 0.950 1_565 S
H106 C93 0.950 . S
H107 C94 0.951 . S
C108 C109 1.386 . S
C108 C110 1.383 . S
C108 H124 0.951 . S
C109 C108 1.386 . S
C109 C113 1.383 . S
C110 C108 1.383 . S
C110 C111 1.402 . S
C110 H125 0.951 . S
C111 C110 1.402 . S
C111 C112 1.375 . S
C111 C114 1.481 . S
C112 C111 1.375 . S
C112 C113 1.367 . S
C112 H126 0.951 . S
C113 C109 1.383 . S
C113 C112 1.367 . S
C113 H127 0.950 . S
C114 C111 1.481 . S
C114 C115 1.297 . S
C114 H128 0.950 . S
C115 C114 1.297 . S
C115 C116 1.479 . S
C115 H129 0.950 . S
C116 C115 1.479 . S
C116 C117 1.375 . S
C116 C122 1.404 . S
C117 C116 1.375 . S
C117 C118 1.369 . S
C117 H130 0.950 . S
C118 C117 1.369 . S
C118 C119 1.392 . S
C118 H131 0.951 . S
C119 C118 1.392 . S
C119 C121 1.384 . S
H120 C122 0.949 . S
C121 C119 1.384 . S
C121 C122 1.385 . S
C121 H123 0.950 . S
C122 C116 1.404 . S
C122 H120 0.949 . S
C122 C121 1.385 . S
H123 C121 0.950 . S
H124 C108 0.951 . S
H125 C110 0.951 . S
H126 C112 0.951 . S
H127 C113 0.950 . S
H128 C114 0.950 . S
H129 C115 0.950 . S
H130 C117 0.950 . S
H131 C118 0.951 . S
C132 C133 1.386 1_655 S
C132 C134 1.383 . S
C132 H148 0.951 . S
C133 C132 1.386 1_455 S
C133 C137 1.383 . S
C134 C132 1.383 . S
C134 C135 1.402 1_655 S
C134 H149 0.951 . S
C135 C134 1.402 1_455 S
C135 C136 1.375 . S
C135 C138 1.481 . S
C136 C135 1.375 . S
C136 C137 1.367 . S
C136 H150 0.951 . S
C137 C133 1.383 . S
C137 C136 1.367 . S
C137 H151 0.950 . S
C138 C135 1.481 . S
C138 C139 1.297 1_455 S
C138 H152 0.950 . S
C139 C138 1.297 1_655 S
C139 C140 1.479 1_655 S
C139 H153 0.950 . S
C140 C139 1.479 1_455 S
C140 C141 1.375 1_455 S
C140 C146 1.404 . S
C141 C140 1.375 1_655 S
C141 C142 1.369 . S
C141 H154 0.950 . S
C142 C141 1.369 . S
C142 C143 1.392 1_655 S
C142 H155 0.951 . S
C143 C142 1.392 1_455 S
C143 C145 1.384 . S
H144 C146 0.949 . S
C145 C143 1.384 . S
C145 C146 1.385 . S
C145 H147 0.950 . S
C146 C140 1.404 . S
C146 H144 0.949 . S
C146 C145 1.385 . S
H147 C145 0.950 . S
H148 C132 0.951 . S
H149 C134 0.951 . S
H150 C136 0.951 . S
H151 C137 0.950 . S
H152 C138 0.950 . S
H153 C139 0.950 . S
H154 C141 0.950 . S
H155 C142 0.951 . S
C156 C157 1.386 . S
C156 C158 1.383 . S
C156 H172 0.951 . S
C157 C156 1.386 . S
C157 C161 1.383 . S
C158 C156 1.383 . S
C158 C159 1.402 . S
C158 H173 0.951 . S
C159 C158 1.402 . S
C159 C160 1.375 . S
C159 C162 1.481 . S
C160 C159 1.375 . S
C160 C161 1.367 . S
C160 H174 0.951 . S
C161 C157 1.383 . S
C161 C160 1.367 . S
C161 H175 0.950 . S
C162 C159 1.481 . S
C162 C163 1.297 . S
C162 H176 0.950 . S
C163 C162 1.297 . S
C163 C164 1.479 . S
C163 H177 0.950 . S
C164 C163 1.479 . S
C164 C165 1.375 . S
C164 C170 1.404 . S
C165 C164 1.375 . S
C165 C166 1.369 . S
C165 H178 0.950 . S
C166 C165 1.369 . S
C166 C167 1.392 . S
C166 H179 0.951 . S
C167 C166 1.392 . S
C167 C169 1.384 . S
H168 C170 0.949 . S
C169 C167 1.384 . S
C169 C170 1.385 . S
C169 H171 0.950 . S
C170 C164 1.404 . S
C170 H168 0.949 . S
C170 C169 1.385 . S
H171 C169 0.950 . S
H172 C156 0.951 . S
H173 C158 0.951 . S
H174 C160 0.951 . S
H175 C161 0.950 . S
H176 C162 0.950 . S
H177 C163 0.950 . S
H178 C165 0.950 . S
H179 C166 0.951 . S
C180 C181 1.386 . S
C180 C182 1.383 . S
C180 H196 0.951 . S
C181 C180 1.386 . S
C181 C185 1.383 . S
C182 C180 1.383 . S
C182 C183 1.402 . S
C182 H197 0.951 . S
C183 C182 1.402 . S
C183 C184 1.375 . S
C183 C186 1.481 1_554 S
C184 C183 1.375 . S
C184 C185 1.367 . S
C184 H198 0.951 1_554 S
C185 C181 1.383 . S
C185 C184 1.367 . S
C185 H199 0.950 . S
C186 C183 1.481 1_556 S
C186 C187 1.297 . S
C186 H200 0.950 . S
C187 C186 1.297 . S
C187 C188 1.479 . S
C187 H201 0.950 . S
C188 C187 1.479 . S
C188 C189 1.375 . S
C188 C194 1.404 . S
C189 C188 1.375 . S
C189 C190 1.369 . S
C189 H202 0.950 . S
C190 C189 1.369 . S
C190 C191 1.392 . S
C190 H203 0.951 . S
C191 C190 1.392 . S
C191 C193 1.384 . S
H192 C194 0.949 . S
C193 C191 1.384 . S
C193 C194 1.385 . S
C193 H195 0.950 . S
C194 C188 1.404 . S
C194 H192 0.949 . S
C194 C193 1.385 . S
H195 C193 0.950 . S
H196 C180 0.951 . S
H197 C182 0.951 . S
H198 C184 0.951 1_556 S
H199 C185 0.950 . S
H200 C186 0.950 . S
H201 C187 0.950 . S
H202 C189 0.950 . S
H203 C190 0.951 . S
C204 C205 1.386 1_655 S
C204 C206 1.387 1_655 S
C204 H220 0.951 . S
C205 C204 1.386 1_455 S
C205 C209 1.383 . S
C206 C204 1.387 1_455 S
C206 C207 1.418 . S
C206 H221 0.930 1_455 S
C207 C206 1.418 . S
C207 C208 1.375 . S
C207 C210 1.481 . S
C208 C207 1.375 . S
C208 C209 1.367 . S
C208 H222 0.951 . S
C209 C205 1.383 . S
C209 C208 1.367 . S
C209 H223 0.950 . S
C210 C207 1.481 . S
C210 C211 1.297 . S
C210 H224 0.950 . S
C211 C210 1.297 . S
C211 C212 1.479 . S
C211 H225 0.950 1_455 S
C212 C211 1.479 . S
C212 C213 1.375 1_455 S
C212 C218 1.404 . S
C213 C212 1.375 1_655 S
C213 C214 1.369 . S
C213 H226 0.950 . S
C214 C213 1.369 . S
C214 C215 1.392 1_655 S
C214 H227 0.951 . S
C215 C214 1.392 1_455 S
C215 C217 1.384 . S
H216 C218 0.949 . S
C217 C215 1.384 . S
C217 C218 1.385 . S
C217 H219 0.950 . S
C218 C212 1.404 . S
C218 H216 0.949 . S
C218 C217 1.385 . S
H219 C217 0.950 . S
H220 C204 0.951 . S
H221 C206 0.930 1_655 S
H222 C208 0.951 . S
H223 C209 0.950 . S
H224 C210 0.950 . S
H225 C211 0.950 1_655 S
H226 C213 0.950 . S
H227 C214 0.951 . S
C228 C229 1.386 . S
C228 C230 1.383 . S
C228 H244 0.951 . S
C229 C228 1.386 . S
C229 C233 1.383 . S
C230 C228 1.383 . S
C230 C231 1.402 . S
C230 H245 0.951 . S
C231 C230 1.402 . S
C231 C232 1.375 . S
C231 C234 1.481 . S
C232 C231 1.375 . S
C232 C233 1.367 . S
C232 H246 0.951 . S
C233 C229 1.383 . S
C233 C232 1.367 . S
C233 H247 0.950 . S
C234 C231 1.481 . S
C234 C235 1.297 . S
C234 H248 0.950 . S
C235 C234 1.297 . S
C235 C236 1.479 . S
C235 H249 0.950 . S
C236 C235 1.479 . S
C236 C237 1.375 . S
C236 C242 1.404 . S
C237 C236 1.375 . S
C237 C238 1.369 . S
C237 H250 0.950 . S
C238 C237 1.369 . S
C238 C239 1.392 . S
C238 H251 0.951 . S
C239 C238 1.392 . S
C239 C241 1.384 . S
H240 C242 0.949 . S
C241 C239 1.384 . S
C241 C242 1.385 . S
C241 H243 0.950 . S
C242 C236 1.404 . S
C242 H240 0.949 . S
C242 C241 1.385 . S
H243 C241 0.950 . S
H244 C228 0.951 . S
H245 C230 0.951 . S
H246 C232 0.951 . S
H247 C233 0.950 . S
H248 C234 0.950 . S
H249 C235 0.950 . S
H250 C237 0.950 . S
H251 C238 0.951 . S
C252 C253 1.386 . S
C252 C254 1.383 . S
C252 H268 0.951 . S
C253 C252 1.386 . S
C253 C257 1.383 . S
C254 C252 1.383 . S
C254 C255 1.402 . S
C254 H269 0.951 . S
C255 C254 1.402 . S
C255 C256 1.375 . S
C255 C258 1.481 . S
C256 C255 1.375 . S
C256 C257 1.367 . S
C256 H270 0.951 . S
C257 C253 1.383 . S
C257 C256 1.367 . S
C257 H271 0.950 . S
C258 C255 1.481 . S
C258 C259 1.297 . S
C258 H272 0.950 . S
C259 C258 1.297 . S
C259 C260 1.479 . S
C259 H273 0.950 . S
C260 C259 1.479 . S
C260 C261 1.375 . S
C260 C266 1.404 . S
C261 C260 1.375 . S
C261 C262 1.369 . S
C261 H274 0.950 . S
C262 C261 1.369 . S
C262 C263 1.392 . S
C262 H275 0.951 . S
C263 C262 1.392 . S
C263 C265 1.384 . S
H264 C266 0.949 . S
C265 C263 1.384 . S
C265 C266 1.385 . S
C265 H267 0.950 . S
C266 C260 1.404 . S
C266 H264 0.949 . S
C266 C265 1.385 . S
H267 C265 0.950 . S
H268 C252 0.951 . S
H269 C254 0.951 . S
H270 C256 0.951 . S
H271 C257 0.950 . S
H272 C258 0.950 . S
H273 C259 0.950 . S
H274 C261 0.950 . S
H275 C262 0.951 . S
C276 C277 1.386 . S
C276 C278 1.383 . S
C276 H292 0.951 . S
C277 C276 1.386 . S
C277 C281 1.383 . S
C278 C276 1.383 . S
C278 C279 1.402 . S
C278 H293 0.951 . S
C279 C278 1.402 . S
C279 C280 1.375 . S
C279 C282 1.481 . S
C280 C279 1.375 . S
C280 C281 1.367 . S
C280 H294 0.951 . S
C281 C277 1.383 . S
C281 C280 1.367 . S
C281 H295 0.950 . S
C282 C279 1.481 . S
C282 C283 1.297 . S
C282 H296 0.950 . S
C283 C282 1.297 . S
C283 C284 1.479 . S
C283 H297 0.950 . S
C284 C283 1.479 . S
C284 C285 1.375 . S
C284 C290 1.404 . S
C285 C284 1.375 . S
C285 C286 1.369 . S
C285 H298 0.950 . S
C286 C285 1.369 . S
C286 C287 1.392 . S
C286 H299 0.951 . S
C287 C286 1.392 . S
C287 C289 1.384 . S
H288 C290 0.949 . S
C289 C287 1.384 . S
C289 C290 1.385 . S
C289 H291 0.950 . S
C290 C284 1.404 . S
C290 H288 0.949 . S
C290 C289 1.385 . S
H291 C289 0.950 . S
H292 C276 0.951 . S
H293 C278 0.951 . S
H294 C280 0.951 . S
H295 C281 0.950 . S
H296 C282 0.950 . S
H297 C283 0.950 . S
H298 C285 0.950 . S
H299 C286 0.951 . S
C300 C301 1.386 . S
C300 C302 1.383 . S
C300 H316 0.951 . S
C301 C300 1.386 . S
C301 C305 1.383 . S
C302 C300 1.383 . S
C302 C303 1.402 . S
C302 H317 0.951 . S
C303 C302 1.402 . S
C303 C304 1.375 . S
C303 C306 1.481 . S
C304 C303 1.375 . S
C304 C305 1.367 . S
C304 H318 0.951 . S
C305 C301 1.383 . S
C305 C304 1.367 . S
C305 H319 0.950 . S
C306 C303 1.481 . S
C306 C307 1.297 . S
C306 H320 0.950 . S
C307 C306 1.297 . S
C307 C308 1.479 . S
C307 H321 0.950 . S
C308 C307 1.479 . S
C308 C309 1.375 . S
C308 C314 1.404 . S
C309 C308 1.375 . S
C309 C310 1.369 . S
C309 H322 0.950 . S
C310 C309 1.369 . S
C310 C311 1.392 . S
C310 H323 0.951 . S
C311 C310 1.392 . S
C311 C313 1.384 . S
H312 C314 0.949 . S
C313 C311 1.384 . S
C313 C314 1.385 . S
C313 H315 0.950 . S
C314 C308 1.404 . S
C314 H312 0.949 . S
C314 C313 1.385 . S
H315 C313 0.950 . S
H316 C300 0.951 . S
H317 C302 0.951 . S
H318 C304 0.951 . S
H319 C305 0.950 . S
H320 C306 0.950 . S
H321 C307 0.950 . S
H322 C309 0.950 . S
H323 C310 0.951 . S
C324 C325 1.386 . S
C324 C326 1.383 . S
C324 H340 0.951 . S
C325 C324 1.386 . S
C325 C329 1.383 . S
C326 C324 1.383 . S
C326 C327 1.402 . S
C326 H341 0.951 . S
C327 C326 1.402 . S
C327 C328 1.375 . S
C327 C330 1.481 . S
C328 C327 1.375 . S
C328 C329 1.367 . S
C328 H342 0.951 . S
C329 C325 1.383 . S
C329 C328 1.367 . S
C329 H343 0.950 . S
C330 C327 1.481 . S
C330 C331 1.297 . S
C330 H344 0.950 . S
C331 C330 1.297 . S
C331 C332 1.479 . S
C331 H345 0.950 . S
C332 C331 1.479 . S
C332 C333 1.375 . S
C332 C338 1.404 . S
C333 C332 1.375 . S
C333 C334 1.369 . S
C333 H346 0.950 . S
C334 C333 1.369 . S
C334 C335 1.392 . S
C334 H347 0.951 . S
C335 C334 1.392 . S
C335 C337 1.384 . S
H336 C338 0.949 . S
C337 C335 1.384 . S
C337 C338 1.385 . S
C337 H339 0.950 . S
C338 C332 1.404 . S
C338 H336 0.949 . S
C338 C337 1.385 . S
H339 C337 0.950 . S
H340 C324 0.951 . S
H341 C326 0.951 . S
H342 C328 0.951 . S
H343 C329 0.950 . S
H344 C330 0.950 . S
H345 C331 0.950 . S
H346 C333 0.950 . S
H347 C334 0.951 . S
C348 C349 1.386 . S
C348 C350 1.383 . S
C348 H364 0.951 . S
C349 C348 1.386 . S
C349 C353 1.383 . S
C350 C348 1.383 . S
C350 C351 1.402 . S
C350 H365 0.951 . S
C351 C350 1.402 . S
C351 C352 1.375 . S
C351 C354 1.481 1_556 S
C352 C351 1.375 . S
C352 C353 1.367 . S
C352 H366 0.951 1_556 S
C353 C349 1.383 . S
C353 C352 1.367 . S
C353 H367 0.950 . S
C354 C351 1.481 1_554 S
C354 C355 1.297 1_554 S
C354 H368 0.950 . S
C355 C354 1.297 1_556 S
C355 C356 1.479 1_556 S
C355 H369 0.950 . S
C356 C355 1.479 1_554 S
C356 C357 1.375 1_554 S
C356 C362 1.404 . S
C357 C356 1.375 1_556 S
C357 C358 1.373 . S
C357 H370 0.950 . S
C358 C357 1.373 . S
C358 C359 1.379 1_556 S
C358 H371 0.960 . S
C359 C358 1.379 1_554 S
C359 C361 1.384 . S
H360 C362 0.949 . S
C361 C359 1.384 . S
C361 C362 1.385 . S
C361 H363 0.950 . S
C362 C356 1.404 . S
C362 H360 0.949 . S
C362 C361 1.385 . S
H363 C361 0.950 . S
H364 C348 0.951 . S
H365 C350 0.951 . S
H366 C352 0.951 1_554 S
H367 C353 0.950 . S
H368 C354 0.950 . S
H369 C355 0.950 . S
H370 C357 0.950 . S
H371 C358 0.960 . S
C85 C4 1.303 . S
C95 C54 1.318 . S
C109 C18 1.284 . S
C119 C68 1.333 . S
C133 C82 1.327 . S
C143 C32 1.314 . S
C157 C12 1.331 . S
C167 C46 1.319 . S
C181 C26 1.334 . S
C191 C60 1.300 . S
C205 C74 1.303 1_554 S
C215 C40 1.318 . S
C229 C25 1.393 . S
C239 C5 1.253 . S
C253 C39 1.435 . S
C263 C19 1.343 . S
C277 C33 1.264 . S
C287 C53 1.377 . S
C301 C67 1.396 . S
C311 C47 1.181 . S
C325 C81 1.435 . S
C335 C61 1.345 . S
C349 C75 1.318 . S
C359 C11 1.446 . S
