# Generated by pormake.
# Topology svf, (7)-cn, num edge types: 1
# Building blocks:
#     Node 0, Type 0, BuildingBlock: HICVOG_clean_sbu_0, # of connection points: 7
#     Node 1, Type 0, BuildingBlock: HICVOG_clean_sbu_0, # of connection points: 7
#     Node 2, Type 0, BuildingBlock: HICVOG_clean_sbu_0, # of connection points: 7
#     Node 3, Type 0, BuildingBlock: HICVOG_clean_sbu_0, # of connection points: 7
#     Node 4, Type 0, BuildingBlock: HICVOG_clean_sbu_0, # of connection points: 7
#     Node 5, Type 0, BuildingBlock: HICVOG_clean_sbu_0, # of connection points: 7
#     Node 6, Type 0, BuildingBlock: HICVOG_clean_sbu_0, # of connection points: 7
#     Node 7, Type 0, BuildingBlock: HICVOG_clean_sbu_0, # of connection points: 7
#     Edge 8, Type (0, 0), BuildingBlock: OJICUG_clean_linker_0, # of connection points: 2
#     Edge 9, Type (0, 0), BuildingBlock: OJICUG_clean_linker_0, # of connection points: 2
#     Edge 10, Type (0, 0), BuildingBlock: OJICUG_clean_linker_0, # of connection points: 2
#     Edge 11, Type (0, 0), BuildingBlock: OJICUG_clean_linker_0, # of connection points: 2
#     Edge 12, Type (0, 0), BuildingBlock: OJICUG_clean_linker_0, # of connection points: 2
#     Edge 13, Type (0, 0), BuildingBlock: OJICUG_clean_linker_0, # of connection points: 2
#     Edge 14, Type (0, 0), BuildingBlock: OJICUG_clean_linker_0, # of connection points: 2
#     Edge 15, Type (0, 0), BuildingBlock: OJICUG_clean_linker_0, # of connection points: 2
#     Edge 16, Type (0, 0), BuildingBlock: OJICUG_clean_linker_0, # of connection points: 2
#     Edge 17, Type (0, 0), BuildingBlock: OJICUG_clean_linker_0, # of connection points: 2
#     Edge 18, Type (0, 0), BuildingBlock: OJICUG_clean_linker_0, # of connection points: 2
#     Edge 19, Type (0, 0), BuildingBlock: OJICUG_clean_linker_0, # of connection points: 2
#     Edge 20, Type (0, 0), BuildingBlock: OJICUG_clean_linker_0, # of connection points: 2
#     Edge 21, Type (0, 0), BuildingBlock: OJICUG_clean_linker_0, # of connection points: 2
#     Edge 22, Type (0, 0), BuildingBlock: OJICUG_clean_linker_0, # of connection points: 2
#     Edge 23, Type (0, 0), BuildingBlock: OJICUG_clean_linker_0, # of connection points: 2
#     Edge 24, Type (0, 0), BuildingBlock: OJICUG_clean_linker_0, # of connection points: 2
#     Edge 25, Type (0, 0), BuildingBlock: OJICUG_clean_linker_0, # of connection points: 2
#     Edge 26, Type (0, 0), BuildingBlock: OJICUG_clean_linker_0, # of connection points: 2
#     Edge 27, Type (0, 0), BuildingBlock: OJICUG_clean_linker_0, # of connection points: 2
#     Edge 28, Type (0, 0), BuildingBlock: OJICUG_clean_linker_0, # of connection points: 2
#     Edge 29, Type (0, 0), BuildingBlock: OJICUG_clean_linker_0, # of connection points: 2
#     Edge 30, Type (0, 0), BuildingBlock: OJICUG_clean_linker_0, # of connection points: 2
#     Edge 31, Type (0, 0), BuildingBlock: OJICUG_clean_linker_0, # of connection points: 2
#     Edge 32, Type (0, 0), BuildingBlock: OJICUG_clean_linker_0, # of connection points: 2
#     Edge 33, Type (0, 0), BuildingBlock: OJICUG_clean_linker_0, # of connection points: 2
#     Edge 34, Type (0, 0), BuildingBlock: OJICUG_clean_linker_0, # of connection points: 2
#     Edge 35, Type (0, 0), BuildingBlock: OJICUG_clean_linker_0, # of connection points: 2
# Relax obj value: 0.424
# Max RMSD: 0.200
# Mean RMSD: 0.200
data_MOF--net-svf--node1-HICVOG_clean_sbu_0--edge1-OJICUG_clean_linker_0
_symmetry_space_group_name_H-M    P1
_symmetry_Int_Tables_number       1
_symmetry_cell_setting            triclinic
loop_
_symmetry_equiv_pos_as_xyz
'x, y, z'
_cell_length_a     25.840792
_cell_length_b     25.678511
_cell_length_c     16.555433
_cell_angle_alpha  90.16201
_cell_angle_beta   89.54403
_cell_angle_gamma 90.065803
loop_
_atom_site_label
_atom_site_type_symbol
_atom_site_fract_x
_atom_site_fract_y
_atom_site_fract_z
_atom_type_partial_charge
Zn0 Zn 0.13661 0.35769 1.08026 0.0
C1 C 0.20594 0.26024 0.23677 0.0
N2 N 0.23321 0.24255 0.16937 0.0
C3 C 0.21023 0.26601 1.10299 0.0
N4 N 0.1709 0.29724 1.13061 0.0
N5 N 0.16743 0.29243 0.21067 0.0
C6 C 0.15901 0.37272 0.3801 0.0
O7 O 0.19642 0.36244 0.32854 0.0
O8 O 0.12547 0.34932 0.96131 0.0
Zn9 Zn 0.10303 0.31052 0.2693 0.0
N10 N 0.17681 0.41658 1.11875 0.0
C11 C 0.18966 0.47616 0.22752 0.0
C12 C 0.16144 0.43644 0.19134 0.0
C13 C 0.22011 0.43477 1.08152 0.0
N14 N 0.23258 0.49455 0.19027 0.0
C15 C 0.24909 0.47477 1.11843 0.0
O16 O 0.0502 0.36502 0.23396 0.0
C17 C 0.03537 0.38628 0.16924 0.0
O18 O 0.06188 0.3804 1.10515 0.0
H19 H 0.12799 0.42112 0.22197 0.0
H20 H 0.23043 0.41978 1.0226 0.0
C21 C 0.04917 0.21204 0.31017 0.0
C22 C 0.02585 0.16487 0.28617 0.0
C23 C 0.03083 0.19135 0.14986 0.0
C24 C 0.05461 0.23761 0.17381 0.0
N25 N 0.06375 0.24699 0.2534 0.0
N26 N 0.01647 0.15609 0.20665 0.0
H27 H 0.05444 0.2214 0.37335 0.0
C28 C 0.09913 0.30819 0.94862 0.0
O29 O 0.11203 0.26591 0.98798 0.0
O30 O 0.11768 0.34555 0.37758 0.0
H31 H 0.06607 0.26604 1.12918 0.0
H32 H 0.17712 0.49317 0.28383 0.0
H33 H 0.0234 0.18378 1.08669 0.0
Zn34 Zn 0.66664 0.14068 0.24004 0.0
C35 C 0.72915 0.24114 1.0833 0.0
N36 N 0.75085 0.2633 0.15193 0.0
C37 C 0.72671 0.23907 0.21735 0.0
N38 N 0.69176 0.20381 0.18778 0.0
N39 N 0.69343 0.20509 1.10752 0.0
C40 C 0.71229 0.07109 0.97689 0.0
O41 O 0.75958 0.08653 0.99298 0.0
O42 O 0.61949 0.15632 0.33572 0.0
Zn43 Zn 0.64463 0.16703 1.03858 0.0
N44 N 0.73161 0.10601 0.25754 0.0
C45 C 0.81037 0.08124 0.19182 0.0
C46 C 0.76075 0.10224 0.18908 0.0
C47 C 0.75067 0.09074 0.32953 0.0
N48 N 0.82889 0.06401 0.26324 0.0
C49 C 0.80058 0.06877 0.33239 0.0
O50 O 0.57808 0.13263 1.08679 0.0
C51 C 0.58013 0.09271 1.13283 0.0
O52 O 0.61809 0.08772 0.18122 0.0
H53 H 0.74549 0.11636 1.13301 0.0
H54 H 0.72654 0.09402 0.38307 0.0
C55 C 0.62849 0.21487 0.88062 0.0
C56 C 0.62514 0.25977 0.83159 0.0
C57 C 0.61596 0.31164 0.95028 0.0
C58 C 0.61723 0.26714 0.99754 0.0
N59 N 0.62521 0.21995 0.9622 0.0
N60 N 0.61974 0.30689 0.86904 0.0
H61 H 0.63504 0.17659 0.85529 0.0
C62 C 0.57741 0.17627 0.31024 0.0
O63 O 0.57538 0.19176 0.23481 0.0
O64 O 0.6738 0.10064 0.99106 0.0
H65 H 0.61524 0.27042 1.06263 0.0
H66 H 0.83365 0.07794 1.13746 0.0
H67 H 0.61167 0.34969 0.97773 0.0
Zn68 Zn 0.80171 0.60871 1.05132 0.0
C69 C 0.73808 0.70857 0.21591 0.0
N70 N 0.71069 0.72511 0.14872 0.0
C71 C 0.73421 0.70145 1.08214 0.0
N72 N 0.77376 0.67082 1.10928 0.0
N73 N 0.77645 0.6757 0.18945 0.0
C74 C 0.78237 0.60283 0.362 0.0
O75 O 0.74512 0.61062 0.31021 0.0
O76 O 0.85675 0.62249 0.96133 0.0
Zn77 Zn 0.83695 0.6494 0.24719 0.0
N78 N 0.73768 0.57138 1.03516 0.0
C79 C 0.66627 0.53576 1.10894 0.0
C80 C 0.71622 0.5563 1.10672 0.0
C81 C 0.71094 0.56683 0.96552 0.0
N82 N 0.63957 0.53065 1.03919 0.0
C83 C 0.66025 0.54638 0.96754 0.0
O84 O 0.87112 0.57892 0.22338 0.0
C85 C 0.87237 0.54544 0.16707 0.0
O86 O 0.84614 0.55303 1.10394 0.0
H87 H 0.73755 0.56144 0.16212 0.0
H88 H 0.72929 0.57802 0.90923 0.0
C89 C 0.90417 0.74124 0.25718 0.0
C90 C 0.94145 0.77486 0.22234 0.0
C91 C 0.94721 0.71902 1.1084 0.0
C92 C 0.91155 0.68549 1.14386 0.0
N93 N 0.89044 0.69738 0.21696 0.0
N94 N 0.96139 0.76258 0.14842 0.0
H95 H 0.888 0.74796 0.31666 0.0
C96 C 0.87943 0.66574 0.94759 0.0
O97 O 0.86073 0.7086 0.98004 0.0
O98 O 0.82 0.63501 0.36257 0.0
H99 H 0.89996 0.65041 1.11282 0.0
H100 H 0.64899 0.52371 0.16561 0.0
H101 H 0.96481 0.71 1.05077 0.0
Zn102 Zn 0.37644 0.82715 1.04639 0.0
C103 C 0.26986 0.7702 0.20409 0.0
N104 N 0.25123 0.7427 1.13801 0.0
C105 C 0.27773 0.76187 1.071 0.0
N106 N 0.31191 0.79921 1.09701 0.0
N107 N 0.30582 0.80545 0.17636 0.0
C108 C 0.37378 0.81808 0.34995 0.0
O109 O 0.36514 0.78014 0.29878 0.0
O110 O 0.36547 0.84154 0.92822 0.0
Zn111 Zn 0.33066 0.87129 0.22555 0.0
N112 N 0.42761 0.77742 1.08496 0.0
C113 C 0.47946 0.752 0.19697 0.0
C114 C 0.44888 0.78873 0.15792 0.0
C115 C 0.43547 0.73018 1.05041 0.0
N116 N 0.48733 0.70477 0.16225 0.0
C117 C 0.46529 0.69234 1.09048 0.0
O118 O 0.39673 0.91408 0.197 0.0
C119 C 0.42127 0.92527 1.13262 0.0
O120 O 0.41251 0.89865 1.06944 0.0
H121 H 0.4411 0.82547 0.18701 0.0
H122 H 0.42018 0.72267 0.99125 0.0
C123 C 0.23577 0.93355 0.23368 0.0
C124 C 0.19708 0.96324 0.196 0.0
C125 C 0.24343 0.95877 1.07255 0.0
C126 C 0.28189 0.93002 1.11034 0.0
N127 N 0.27742 0.91798 0.19006 0.0
N128 N 0.20225 0.97552 1.11651 0.0
H129 H 0.23401 0.92492 0.29753 0.0
C130 C 0.32191 0.86288 0.91419 0.0
O131 O 0.28307 0.85367 0.96333 0.0
O132 O 0.34967 0.86091 0.34144 0.0
H133 H 0.31486 0.91656 1.07602 0.0
H134 H 0.49709 0.76109 0.25421 0.0
H135 H 0.24674 0.96853 1.00924 0.0
Zn136 Zn 0.17661 0.63274 0.73928 0.0
C137 C 0.23332 0.72957 0.5717 0.0
N138 N 0.25864 0.75115 0.63798 0.0
C139 C 0.23654 0.72738 0.70561 0.0
N140 N 0.19995 0.69329 0.67998 0.0
N141 N 0.19782 0.69457 0.60002 0.0
C142 C 0.172 0.5868 0.48163 0.0
O143 O 0.19954 0.59435 0.54658 0.0
O144 O 0.12423 0.6478 0.83065 0.0
Zn145 Zn 0.13311 0.67516 0.5501 0.0
N146 N 0.24324 0.60419 0.76739 0.0
C147 C 0.32891 0.58513 0.72079 0.0
C148 C 0.2782 0.60039 0.7056 0.0
C149 C 0.2577 0.59503 0.84431 0.0
N150 N 0.34292 0.57392 0.79745 0.0
C151 C 0.30883 0.57929 0.85977 0.0
O152 O 0.08115 0.62755 0.61247 0.0
C153 C 0.0911 0.58373 0.64548 0.0
O154 O 0.13472 0.57649 0.67934 0.0
H155 H 0.26737 0.61058 0.64505 0.0
H156 H 0.22926 0.59869 0.89237 0.0
C157 C 0.08133 0.76342 0.4688 0.0
C158 C 0.06418 0.81557 0.4673 0.0
C159 C 0.09299 0.82802 0.60046 0.0
C160 C 0.11005 0.77663 0.60197 0.0
N161 N 0.10321 0.74466 0.53684 0.0
N162 N 0.06969 0.84629 0.53343 0.0
H163 H 0.07641 0.73791 0.41722 0.0
C164 C 0.08534 0.67448 0.80796 0.0
O165 O 0.08759 0.69756 0.73768 0.0
O166 O 0.14341 0.62392 0.4567 0.0
H167 H 0.12956 0.76304 0.65492 0.0
H168 H 0.35679 0.58181 0.67196 0.0
H169 H 0.09807 0.85314 0.65237 0.0
Zn170 Zn 0.29917 0.12691 0.56423 0.0
C171 C 0.25072 0.22669 0.73661 0.0
N172 N 0.22808 0.25049 0.67018 0.0
C173 C 0.24942 0.22602 0.60265 0.0
N174 N 0.28301 0.18883 0.62846 0.0
N175 N 0.28437 0.18945 0.70882 0.0
C176 C 0.29176 0.07382 0.82511 0.0
O177 O 0.2718 0.08197 0.75381 0.0
O178 O 0.34536 0.14693 0.46884 0.0
Zn179 Zn 0.34087 0.15423 0.7661 0.0
N180 N 0.22958 0.10201 0.54374 0.0
C181 C 0.1453 0.08768 0.60012 0.0
C182 C 0.19629 0.10437 0.60799 0.0
C183 C 0.21278 0.086 0.4706 0.0
N184 N 0.12895 0.06989 0.52767 0.0
C185 C 0.16109 0.06972 0.46242 0.0
O186 O 0.38537 0.09609 0.71185 0.0
C187 C 0.38013 0.06102 0.65788 0.0
O188 O 0.3437 0.06464 0.60655 0.0
H189 H 0.2087 0.11988 0.66503 0.0
H190 H 0.23961 0.0849 0.42005 0.0
C191 C 0.42992 0.21103 0.74446 0.0
C192 C 0.46187 0.25488 0.74565 0.0
C193 C 0.4063 0.2931 0.84452 0.0
C194 C 0.37504 0.24882 0.84342 0.0
N195 N 0.38738 0.20906 0.79266 0.0
N196 N 0.44897 0.295 0.79607 0.0
H197 H 0.43822 0.1787 0.70497 0.0
C198 C 0.38812 0.16261 0.49848 0.0
O199 O 0.39056 0.16973 0.57673 0.0
O200 O 0.31758 0.11031 0.85782 0.0
H201 H 0.34069 0.24679 0.88075 0.0
H202 H 0.11895 0.08881 0.65119 0.0
H203 H 0.39692 0.3256 0.88369 0.0
Zn204 Zn 0.87272 0.33315 0.54942 0.0
C205 C 0.76979 0.28175 0.71739 0.0
N206 N 0.74719 0.25666 0.65184 0.0
C207 C 0.77263 0.27532 0.58346 0.0
N208 N 0.8099 0.30978 0.60841 0.0
N209 N 0.80715 0.31485 0.68845 0.0
C210 C 0.88384 0.32194 0.86112 0.0
O211 O 0.87025 0.28302 0.81441 0.0
O212 O 0.85418 0.36415 0.44119 0.0
Zn213 Zn 0.83831 0.37739 0.73875 0.0
N214 N 0.91637 0.27318 0.56806 0.0
C215 C 0.95306 0.22567 0.6773 0.0
C216 C 0.93211 0.27135 0.64624 0.0
C217 C 0.92197 0.23116 0.51916 0.0
N218 N 0.95763 0.18324 0.62885 0.0
C219 C 0.9418 0.18442 0.55074 0.0
O220 O 0.90919 0.4089 0.70948 0.0
C221 C 0.93449 0.41703 0.64498 0.0
O222 O 0.92096 0.39409 0.58061 0.0
H223 H 0.92648 0.3047 0.68513 0.0
H224 H 0.91229 0.23424 0.45607 0.0
C225 C 0.74251 0.43875 0.73689 0.0
C226 C 0.70753 0.47348 0.70014 0.0
C227 C 0.77107 0.49345 0.60148 0.0
C228 C 0.80524 0.45907 0.63784 0.0
N229 N 0.79083 0.43257 0.70553 0.0
N230 N 0.72326 0.50017 0.63358 0.0
H231 H 0.73202 0.41829 0.79119 0.0
C232 C 0.81113 0.38832 0.44242 0.0
O233 O 0.77652 0.37625 0.49751 0.0
O234 O 0.86008 0.36518 0.85398 0.0
H235 H 0.84241 0.45272 0.61018 0.0
H236 H 0.96534 0.22386 0.73952 0.0
H237 H 0.7827 0.51531 0.54891 0.0
Zn238 Zn 0.63145 0.84723 0.56181 0.0
C239 C 0.68897 0.74097 0.71776 0.0
N240 N 0.71407 0.72085 0.64979 0.0
C241 C 0.6944 0.74772 0.58395 0.0
N242 N 0.65928 0.78352 0.61289 0.0
N243 N 0.65493 0.77844 0.69277 0.0
C244 C 0.66714 0.86673 0.85575 0.0
O245 O 0.70153 0.84785 0.80477 0.0
O246 O 0.61577 0.83498 0.4458 0.0
Zn247 Zn 0.59508 0.80814 0.75494 0.0
N248 N 0.67947 0.90037 0.5946 0.0
C249 C 0.70047 0.95765 0.70277 0.0
C250 C 0.66787 0.92098 0.66822 0.0
C251 C 0.72286 0.91481 0.55391 0.0
N252 N 0.74328 0.97294 0.66186 0.0
C253 C 0.7557 0.95285 0.58809 0.0
O254 O 0.54371 0.86395 0.71465 0.0
C255 C 0.53281 0.88887 0.65091 0.0
O256 O 0.56089 0.88247 0.58845 0.0
H257 H 0.63375 0.90848 0.70055 0.0
H258 H 0.72983 0.89868 0.49441 0.0
C259 C 0.54647 0.71481 0.82876 0.0
C260 C 0.52569 0.66443 0.81946 0.0
C261 C 0.50934 0.68237 0.68205 0.0
C262 C 0.53225 0.7313 0.69084 0.0
N263 N 0.55128 0.74637 0.76364 0.0
N264 N 0.50661 0.64989 0.7465 0.0
H265 H 0.55835 0.72868 0.88743 0.0
C266 C 0.58314 0.7978 0.44961 0.0
O267 O 0.58766 0.76414 0.50832 0.0
O268 O 0.6204 0.85103 0.8519 0.0
H269 H 0.5361 0.75681 0.63944 0.0
H270 H 0.69103 0.97521 0.76034 0.0
H271 H 0.49431 0.67013 0.62421 0.0
C272 C 0.96298 0.43505 1.09948 0.0
C273 C -0.0099 0.42316 0.17048 0.0
H274 H 0.90417 0.481 1.04291 0.0
C275 C 0.97579 0.44985 0.24179 0.0
H276 H 0.97291 0.41568 1.0435 0.0
C277 C 0.93711 0.48854 0.24125 0.0
C278 C 0.91016 0.50074 0.17003 0.0
H279 H -0.00394 0.44244 0.2976 0.0
H280 H 0.92932 0.50982 0.29643 0.0
C281 C 0.92328 0.47263 1.0994 0.0
C282 C 0.48693 0.98395 0.20343 0.0
C283 C 0.46121 0.96898 1.13208 0.0
H284 H 0.54416 0.033 0.25944 0.0
C285 C 0.47445 -0.00362 1.06081 0.0
H286 H 0.47839 0.96417 0.25965 0.0
C287 C 0.51143 0.03731 1.06118 0.0
C288 C 0.53791 0.05136 1.1323 0.0
H289 H 0.45584 0.98656 1.0045 0.0
H290 H 0.52025 0.05713 1.00507 0.0
C291 C 0.52499 0.02366 0.20327 0.0
C292 C 0.01708 0.5343 0.57971 0.0
C293 C 0.05149 0.54054 0.64471 0.0
H294 H 0.95506 0.4898 0.52729 0.0
C295 C 0.04768 0.50476 0.709 0.0
H296 H 0.01859 0.56098 0.52921 0.0
C297 C 0.01002 0.46486 0.70908 0.0
C298 C 0.97619 0.45813 0.6435 0.0
H299 H 0.07317 0.50832 0.76035 0.0
H300 H 0.00767 0.43892 0.76037 0.0
C301 C 0.98073 0.49319 0.5784 0.0
C302 C 0.4793 0.9577 0.72466 0.0
C303 C 0.49111 0.93055 0.65258 0.0
H304 H 0.43755 0.02017 0.78228 0.0
C305 C 0.46497 0.94632 0.58212 0.0
H306 H 0.49879 0.94762 0.78014 0.0
C307 C 0.42812 0.98724 0.58396 0.0
C308 C 0.41736 0.01522 0.65578 0.0
H309 H 0.47303 0.92699 0.52526 0.0
H310 H 0.40907 -0.00208 0.5284 0.0
C311 C 0.44396 -0.00031 0.72588 0.0
C312 C 0.21076 0.49966 0.45864 0.0
C313 C 0.16771 0.53269 0.45179 0.0
H314 H 0.24124 0.42276 0.44315 0.0
C315 C 0.1198 0.51109 0.42984 0.0
H316 H 0.2479 0.51501 0.47725 0.0
C317 C 0.11547 0.45749 0.41366 0.0
C318 C 0.15927 0.42499 0.41764 0.0
H319 H 0.08573 0.53543 0.42606 0.0
H320 H 0.07864 0.44209 0.39381 0.0
C321 C 0.20674 0.44666 0.4409 0.0
C322 C 0.48452 0.16807 0.48817 0.0
C323 C 0.43604 0.16837 0.44956 0.0
H324 H 0.56721 0.16992 0.47482 0.0
C325 C 0.43459 0.17284 0.36529 0.0
H326 H 0.487 0.16425 0.55313 0.0
C327 C 0.48069 0.17686 0.32065 0.0
C328 C 0.52918 0.17554 0.35922 0.0
H329 H 0.39796 0.17318 0.33395 0.0
H330 H 0.4783 0.17971 0.25552 0.0
C331 C 0.53059 0.17113 0.44348 0.0
C332 C 0.75746 0.4596 0.39011 0.0
C333 C 0.80685 0.44056 0.4077 0.0
H334 H 0.71089 0.52595 0.36517 0.0
C335 C 0.84877 0.47536 0.41146 0.0
H336 H 0.72437 0.43363 0.38886 0.0
C337 C 0.84092 0.52878 0.40014 0.0
C338 C 0.79113 0.54791 0.38387 0.0
H339 H 0.88698 0.46169 0.42737 0.0
H340 H 0.87374 0.55492 0.40382 0.0
C341 C 0.74968 0.51259 0.37823 0.0
C342 C 0.51132 0.85309 0.39565 0.0
C343 C 0.53037 0.80422 0.41901 0.0
H344 H 0.44481 0.89676 0.35909 0.0
C345 C 0.49579 0.76227 0.42769 0.0
H346 H 0.53685 0.88641 0.39051 0.0
C347 C 0.44346 0.76871 0.41303 0.0
C348 C 0.42446 0.81702 0.38822 0.0
H349 H 0.50917 0.72422 0.44647 0.0
H350 H 0.41808 0.73517 0.41749 0.0
C351 C 0.45853 0.85945 0.38037 0.0
C352 C 0.65309 0.54487 0.75021 0.0
C353 C 0.66069 0.49083 0.74392 0.0
H354 H 0.64583 0.60754 0.83404 0.0
C355 C 0.63827 0.4584 0.80283 0.0
H356 H 0.66713 0.57104 0.70371 0.0
C357 C 0.62529 0.4796 0.87783 0.0
C358 C 0.63477 0.53264 0.89162 0.0
H359 H 0.64038 0.41644 0.79707 0.0
H360 H 0.61835 0.45327 0.92782 0.0
C361 C 0.64058 0.56605 0.82522 0.0
C362 C 0.55324 0.63451 0.9542 0.0
C363 C 0.51712 0.63188 0.89122 0.0
H364 H 0.56272 0.6538 1.07824 0.0
C365 C 0.46592 0.618 0.90963 0.0
H366 H 0.59351 0.64312 0.94152 0.0
C367 C 0.44824 0.6241 0.98887 0.0
C368 C 0.482 0.64535 1.0464 0.0
H369 H 0.43764 0.61347 0.86217 0.0
H370 H 0.40691 0.62458 0.99977 0.0
C371 C 0.53542 0.64063 1.03318 0.0
C372 C 0.28815 0.55776 1.07541 0.0
C373 C 0.28909 0.50306 1.07279 0.0
H374 H 0.29547 0.62709 1.00528 0.0
C375 C 0.31773 0.47787 1.01182 0.0
H376 H 0.26787 0.5784 1.12323 0.0
C377 C 0.33428 0.50612 0.94481 0.0
C378 C 0.32155 0.55902 0.93934 0.0
H379 H 0.32114 0.43583 1.01065 0.0
H380 H 0.34909 0.48509 0.89271 0.0
C381 C 0.30404 0.58582 1.00806 0.0
C382 C 0.54187 0.20803 0.70018 0.0
C383 C 0.51318 0.25474 0.70519 0.0
H384 H 0.61517 0.17329 0.72305 0.0
C385 C 0.54038 0.30196 0.69736 0.0
H386 H 0.52347 0.17021 0.69916 0.0
C387 C 0.5938 0.30215 0.71006 0.0
C388 C 0.61566 0.25678 0.74282 0.0
H389 H 0.52002 0.33876 0.6945 0.0
H390 H 0.6127 0.33946 0.718 0.0
C391 C 0.59505 0.20973 0.71408 0.0
C392 C 0.73123 0.93201 0.90565 0.0
C393 C 0.67969 0.91451 0.90113 0.0
H394 H 0.78211 -0.00427 0.93201 0.0
C395 C 0.63971 0.94734 0.9279 0.0
H396 H 0.76286 0.90745 0.88545 0.0
C397 C 0.65066 -0.00208 0.95311 0.0
C398 C 0.70187 0.01666 0.95297 0.0
H399 H 0.59961 0.93514 0.92511 0.0
H400 H 0.61863 0.02267 0.97103 0.0
C401 C 0.74224 0.9827 0.93144 0.0
C402 C 0.00084 0.71563 0.84367 0.0
C403 C 0.03474 0.6731 0.85065 0.0
H404 H 0.92528 0.74653 0.86835 0.0
C405 C 0.01659 0.62728 0.88748 0.0
H406 H 0.01354 0.75119 0.81449 0.0
C407 C 0.9653 0.62398 0.9158 0.0
C408 C 0.93151 0.66676 0.90909 0.0
H409 H 0.04144 0.59348 0.89192 0.0
H410 H 0.95244 0.58831 0.94446 0.0
C411 C 0.95009 0.71275 0.87345 0.0
C412 C 0.34646 0.0042 0.8843 0.0
C413 C 0.29979 0.01954 0.84879 0.0
H414 H 0.39231 0.94061 0.92606 0.0
C415 C 0.26429 0.98146 0.82386 0.0
H416 H 0.37517 0.03277 0.9018 0.0
C417 C 0.27412 0.92897 0.83787 0.0
C418 C 0.32017 0.9137 0.8751 0.0
H419 H 0.22853 0.99238 0.7947 0.0
H420 H 0.2447 0.90043 0.82313 0.0
C421 C 0.35695 0.95151 0.89606 0.0
C422 C 0.95981 0.27209 0.90881 0.0
C423 C 0.93709 0.32053 0.89278 0.0
H424 H 0.02859 0.23007 0.93594 0.0
C425 C 0.96842 0.36533 0.89299 0.0
H426 H 0.93683 0.23676 0.90772 0.0
C427 C 0.02161 0.36151 0.90815 0.0
C428 C 0.04433 0.31279 0.92367 0.0
H429 H 0.9522 0.40312 0.87915 0.0
H430 H 0.04471 0.39672 0.90849 0.0
C431 C 0.01265 0.26823 0.92383 0.0
C432 C 0.13791 0.96614 0.31393 0.0
C433 C 0.15936 0.99106 0.24612 0.0
H434 H 0.12119 0.97377 0.44004 0.0
C435 C 0.16091 0.04562 0.24329 0.0
H436 H 0.13522 0.92404 0.31612 0.0
C437 C 0.15399 0.07381 0.31424 0.0
C438 C 0.14392 0.04722 0.38642 0.0
H439 H 0.17621 0.06569 0.19076 0.0
H440 H 0.16314 0.11504 0.31479 0.0
C441 C 0.13018 -0.00552 0.38471 0.0
C442 C 0.94957 0.1275 0.35179 0.0
C443 C 0.00365 0.13069 0.34801 0.0
H444 H 0.88425 0.14249 0.42759 0.0
C445 C 0.03224 0.12283 0.41851 0.0
H446 H 0.92665 0.1319 0.29769 0.0
C447 C 0.00779 0.12743 0.49325 0.0
C448 C 0.95551 0.14167 0.49552 0.0
H449 H 0.0739 0.12543 0.41639 0.0
H450 H 0.0318 0.13179 0.54622 0.0
C451 C 0.92514 0.13335 0.42657 0.0
C452 C 0.80824 0.06595 0.48075 0.0
C453 C 0.81727 0.04234 0.40568 0.0
H454 H 0.78368 0.05425 0.60186 0.0
C455 C 0.82668 0.98863 0.40151 0.0
H456 H 0.80225 0.10763 0.48531 0.0
C457 C 0.81497 0.95757 0.46806 0.0
C458 C 0.79406 0.98071 0.53802 0.0
H459 H 0.83518 0.96989 0.34419 0.0
H460 H 0.81569 0.91564 0.4609 0.0
C461 C 0.79747 0.03507 0.54746 0.0
C462 C 0.98107 0.84127 0.40966 0.0
C463 C 0.03441 0.83409 0.39907 0.0
H464 H 0.90677 0.8306 0.35667 0.0
C465 C 0.05532 0.82917 0.3214 0.0
H466 H 0.96459 0.84668 0.46951 0.0
C467 C 0.02247 0.8201 0.25697 0.0
C468 C 0.96905 0.81382 0.27153 0.0
H469 H 0.09673 0.8251 0.31239 0.0
H470 H 0.03994 0.80944 0.19959 0.0
C471 C 0.94808 0.83144 0.34528 0.0
C472 C 0.27736 0.24012 0.44933 0.0
C473 C 0.23741 0.23599 0.50935 0.0
H474 H 0.3009 0.24889 0.32322 0.0
C475 C 0.18688 0.23892 0.47609 0.0
H476 H 0.31704 0.24092 0.4692 0.0
C477 C 0.17751 0.24493 0.39037 0.0
C478 C 0.2173 0.24834 0.33004 0.0
H479 H 0.15386 0.23599 0.51647 0.0
H480 H 0.1381 0.24737 0.37124 0.0
C481 C 0.26787 0.24534 0.36345 0.0
C482 C 0.69966 0.24589 0.37345 0.0
C483 C 0.73864 0.24739 0.31143 0.0
H484 H 0.67762 0.25164 0.50092 0.0
C485 C 0.7889 0.25674 0.34279 0.0
H486 H 0.65987 0.24199 0.35546 0.0
C487 C 0.79904 0.26342 0.42817 0.0
C488 C 0.76051 0.26197 0.49045 0.0
H489 H 0.82126 0.25879 0.30099 0.0
H490 H 0.83805 0.27095 0.44546 0.0
C491 C 0.71006 0.25234 0.45916 0.0
C492 C 0.75079 0.75815 0.44719 0.0
C493 C 0.70701 0.73735 0.48976 0.0
H494 H 0.7951 0.76629 0.33492 0.0
C495 C 0.67397 0.70754 0.4382 0.0
H496 H 0.77843 0.78119 0.48068 0.0
C497 C 0.68216 0.70136 0.35186 0.0
C498 C 0.72602 0.72166 0.3093 0.0
H499 H 0.6408 0.68819 0.46481 0.0
H500 H 0.6545 0.67822 0.31852 0.0
C501 C 0.76033 0.74983 0.36118 0.0
C502 C 0.25182 0.80108 0.35673 0.0
C503 C 0.25586 0.76047 0.29755 0.0
H504 H 0.24361 0.82552 0.48276 0.0
C505 C 0.25112 0.70989 0.33215 0.0
H506 H 0.25373 0.84084 0.33627 0.0
C507 C 0.24454 0.70086 0.41808 0.0
C508 C 0.24212 0.74136 0.47755 0.0
H509 H 0.25412 0.67635 0.29264 0.0
H510 H 0.24306 0.661 0.4383 0.0
C511 C 0.24593 0.79206 0.44299 0.0
C512 C 0.73979 0.6948 0.83882 0.0
C513 C 0.69856 0.72612 0.8106 0.0
H514 H 0.778 0.65872 0.93867 0.0
C515 C 0.66674 0.74457 0.8754 0.0
H516 H 0.76547 0.67669 0.79512 0.0
C517 C 0.6772 0.73776 0.96043 0.0
C518 C 0.71968 0.70837 0.98878 0.0
H519 H 0.63253 0.76457 0.86029 0.0
H520 H 0.65104 0.7553 1.00402 0.0
C521 C 0.74868 0.68558 0.92389 0.0
C522 C 0.29901 0.73729 0.83293 0.0
C523 C 0.24864 0.73609 0.79893 0.0
H524 H 0.34728 0.7436 0.93884 0.0
C525 C 0.20833 0.7396 0.85833 0.0
H526 H 0.33219 0.73387 0.79295 0.0
C527 C 0.21732 0.74491 0.94418 0.0
C528 C 0.26768 0.74734 0.97832 0.0
H529 H 0.16876 0.73994 0.83798 0.0
H530 H 0.18409 0.74913 0.98387 0.0
C531 C 0.30792 0.74223 0.91898 0.0
C532 C 0.22755 0.20608 0.97429 0.0
C533 C 0.22395 0.25658 1.0097 0.0
H534 H 0.23362 0.15774 0.867 0.0
C535 C 0.22852 0.29745 0.95148 0.0
H536 H 0.2231 0.17245 1.01304 0.0
C537 C 0.23579 0.28868 0.8654 0.0
C538 C 0.23959 0.23803 0.83021 0.0
H539 H 0.22628 0.33714 0.97255 0.0
H540 H 0.23926 0.32225 0.82633 0.0
C541 C 0.23441 0.19735 0.8884 0.0
C542 C 0.75829 0.31232 0.87145 0.0
C543 C 0.75781 0.27218 0.8112 0.0
H544 H 0.75151 0.33637 0.99778 0.0
C545 C 0.74993 0.22186 0.84472 0.0
H546 H 0.76452 0.35175 0.85242 0.0
C547 C 0.74268 0.21284 0.93033 0.0
C548 C 0.74246 0.25279 0.99049 0.0
H549 H 0.74949 0.18858 0.80444 0.0
H550 H 0.73594 0.17365 0.94943 0.0
C551 C 0.75125 0.30318 0.95736 0.0
loop_
_geom_bond_atom_site_label_1
_geom_bond_atom_site_label_2
_geom_bond_distance
_geom_bond_site_symmetry_2
_ccdc_geom_bond_type
Zn0 N4 2.020 . S
Zn0 O8 2.019 . S
Zn0 N10 2.119 . S
Zn0 O18 1.975 . S
C1 N2 1.334 . S
C1 N5 1.336 . S
N2 C1 1.334 . S
N2 C3 1.334 1_554 S
C3 N2 1.334 1_556 S
C3 N4 1.336 . S
N4 Zn0 2.020 . S
N4 C3 1.336 . S
N4 N5 1.354 1_556 S
N5 C1 1.336 . S
N5 N4 1.354 1_554 S
N5 Zn9 2.020 . S
C6 O7 1.244 . S
C6 O30 1.257 . S
O7 C6 1.244 . S
O8 Zn0 2.019 . S
O8 C28 1.257 . S
Zn9 N5 2.020 . S
Zn9 O16 1.975 . S
Zn9 N25 2.119 . S
Zn9 O30 2.019 . S
N10 Zn0 2.119 . S
N10 C12 1.334 . S
N10 C13 1.328 . S
C11 C12 1.391 . S
C11 N14 1.329 . S
C11 H32 0.930 . S
C12 N10 1.334 . S
C12 C11 1.391 . S
C12 H19 0.930 . S
C13 N10 1.328 . S
C13 C15 1.392 . S
C13 H20 0.930 . S
N14 C11 1.329 . S
N14 C15 1.331 . S
C15 C13 1.392 . S
C15 N14 1.331 . S
O16 Zn9 1.975 . S
O16 C17 1.252 . S
C17 O16 1.252 . S
C17 O18 1.252 1_554 S
O18 Zn0 1.975 . S
O18 C17 1.252 1_556 S
H19 C12 0.930 . S
H20 C13 0.930 . S
C21 C22 1.392 . S
C21 N25 1.328 . S
C21 H27 0.930 . S
C22 C21 1.392 . S
C22 N26 1.331 . S
C23 C24 1.391 . S
C23 N26 1.329 . S
C23 H33 0.930 1_455 S
C24 C23 1.391 . S
C24 N25 1.334 . S
C24 H31 0.930 . S
N25 Zn9 2.119 . S
N25 C21 1.328 . S
N25 C24 1.334 . S
N26 C22 1.331 . S
N26 C23 1.329 . S
H27 C21 0.930 . S
C28 O8 1.257 . S
C28 O29 1.244 . S
O29 C28 1.244 . S
O30 C6 1.257 . S
O30 Zn9 2.019 . S
H31 C24 0.930 . S
H32 C11 0.930 . S
H33 C23 0.930 1_655 S
Zn34 N38 2.020 . S
Zn34 O42 2.019 . S
Zn34 N44 2.119 . S
Zn34 O52 1.975 . S
C35 N36 1.334 1_556 S
C35 N39 1.336 . S
N36 C35 1.334 1_554 S
N36 C37 1.334 . S
C37 N36 1.334 . S
C37 N38 1.336 . S
N38 Zn34 2.020 . S
N38 C37 1.336 . S
N38 N39 1.354 1_554 S
N39 C35 1.336 . S
N39 N38 1.354 1_556 S
N39 Zn43 2.020 . S
C40 O41 1.244 . S
C40 O64 1.257 . S
O41 C40 1.244 . S
O42 Zn34 2.019 . S
O42 C62 1.257 . S
Zn43 N39 2.020 . S
Zn43 O50 1.975 . S
Zn43 N59 2.119 . S
Zn43 O64 2.019 . S
N44 Zn34 2.119 . S
N44 C46 1.334 . S
N44 C47 1.328 . S
C45 C46 1.391 . S
C45 N48 1.329 . S
C45 H66 0.930 1_545 S
C46 N44 1.334 . S
C46 C45 1.391 . S
C46 H53 0.930 . S
C47 N44 1.328 . S
C47 C49 1.392 . S
C47 H54 0.930 . S
N48 C45 1.329 . S
N48 C49 1.331 . S
C49 C47 1.392 . S
C49 N48 1.331 . S
O50 Zn43 1.975 . S
O50 C51 1.252 1_556 S
C51 O50 1.252 1_554 S
C51 O52 1.252 . S
O52 Zn34 1.975 . S
O52 C51 1.252 . S
H53 C46 0.930 . S
H54 C47 0.930 . S
C55 C56 1.392 . S
C55 N59 1.328 . S
C55 H61 0.930 . S
C56 C55 1.392 . S
C56 N60 1.331 . S
C57 C58 1.391 . S
C57 N60 1.329 . S
C57 H67 0.930 . S
C58 C57 1.391 . S
C58 N59 1.334 . S
C58 H65 0.930 . S
N59 Zn43 2.119 . S
N59 C55 1.328 . S
N59 C58 1.334 . S
N60 C56 1.331 . S
N60 C57 1.329 . S
H61 C55 0.930 . S
C62 O42 1.257 . S
C62 O63 1.244 . S
O63 C62 1.244 . S
O64 C40 1.257 . S
O64 Zn43 2.019 . S
H65 C58 0.930 . S
H66 C45 0.930 1_565 S
H67 C57 0.930 . S
Zn68 N72 2.020 . S
Zn68 O76 2.019 . S
Zn68 N78 2.119 . S
Zn68 O86 1.975 . S
C69 N70 1.334 . S
C69 N73 1.336 . S
N70 C69 1.334 . S
N70 C71 1.334 1_554 S
C71 N70 1.334 1_556 S
C71 N72 1.336 . S
N72 Zn68 2.020 . S
N72 C71 1.336 . S
N72 N73 1.354 1_556 S
N73 C69 1.336 . S
N73 N72 1.354 1_554 S
N73 Zn77 2.020 . S
C74 O75 1.244 . S
C74 O98 1.257 . S
O75 C74 1.244 . S
O76 Zn68 2.019 . S
O76 C96 1.257 . S
Zn77 N73 2.020 . S
Zn77 O84 1.975 . S
Zn77 N93 2.119 . S
Zn77 O98 2.019 . S
N78 Zn68 2.119 . S
N78 C80 1.334 . S
N78 C81 1.328 . S
C79 C80 1.391 . S
C79 N82 1.329 . S
C79 H100 0.930 . S
C80 N78 1.334 . S
C80 C79 1.391 . S
C80 H87 0.930 . S
C81 N78 1.328 . S
C81 C83 1.392 . S
C81 H88 0.930 . S
N82 C79 1.329 . S
N82 C83 1.331 . S
C83 C81 1.392 . S
C83 N82 1.331 . S
O84 Zn77 1.975 . S
O84 C85 1.252 . S
C85 O84 1.252 . S
C85 O86 1.252 1_554 S
O86 Zn68 1.975 . S
O86 C85 1.252 1_556 S
H87 C80 0.930 . S
H88 C81 0.930 . S
C89 C90 1.392 . S
C89 N93 1.328 . S
C89 H95 0.930 . S
C90 C89 1.392 . S
C90 N94 1.331 . S
C91 C92 1.391 . S
C91 N94 1.329 . S
C91 H101 0.930 1_655 S
C92 C91 1.391 . S
C92 N93 1.334 . S
C92 H99 0.930 . S
N93 Zn77 2.119 . S
N93 C89 1.328 . S
N93 C92 1.334 . S
N94 C90 1.331 . S
N94 C91 1.329 . S
H95 C89 0.930 . S
C96 O76 1.257 . S
C96 O97 1.244 . S
O97 C96 1.244 . S
O98 C74 1.257 . S
O98 Zn77 2.019 . S
H99 C92 0.930 . S
H100 C79 0.930 . S
H101 C91 0.930 1_455 S
Zn102 N106 2.020 . S
Zn102 O110 2.019 . S
Zn102 N112 2.119 . S
Zn102 O120 1.975 . S
C103 N104 1.334 . S
C103 N107 1.336 . S
N104 C103 1.334 . S
N104 C105 1.334 1_554 S
C105 N104 1.334 1_556 S
C105 N106 1.336 . S
N106 Zn102 2.020 . S
N106 C105 1.336 . S
N106 N107 1.354 1_556 S
N107 C103 1.336 . S
N107 N106 1.354 1_554 S
N107 Zn111 2.020 . S
C108 O109 1.244 . S
C108 O132 1.257 . S
O109 C108 1.244 . S
O110 Zn102 2.019 . S
O110 C130 1.257 . S
Zn111 N107 2.020 . S
Zn111 O118 1.975 . S
Zn111 N127 2.119 . S
Zn111 O132 2.019 . S
N112 Zn102 2.119 . S
N112 C114 1.334 . S
N112 C115 1.328 . S
C113 C114 1.391 . S
C113 N116 1.329 . S
C113 H134 0.930 . S
C114 N112 1.334 . S
C114 C113 1.391 . S
C114 H121 0.930 . S
C115 N112 1.328 . S
C115 C117 1.392 . S
C115 H122 0.930 . S
N116 C113 1.329 . S
N116 C117 1.331 . S
C117 C115 1.392 . S
C117 N116 1.331 . S
O118 Zn111 1.975 . S
O118 C119 1.252 . S
C119 O118 1.252 . S
C119 O120 1.252 1_554 S
O120 Zn102 1.975 . S
O120 C119 1.252 1_556 S
H121 C114 0.930 . S
H122 C115 0.930 . S
C123 C124 1.392 . S
C123 N127 1.328 . S
C123 H129 0.930 . S
C124 C123 1.392 . S
C124 N128 1.331 . S
C125 C126 1.391 . S
C125 N128 1.329 . S
C125 H135 0.930 1_565 S
C126 C125 1.391 . S
C126 N127 1.334 . S
C126 H133 0.930 . S
N127 Zn111 2.119 . S
N127 C123 1.328 . S
N127 C126 1.334 . S
N128 C124 1.331 . S
N128 C125 1.329 . S
H129 C123 0.930 . S
C130 O110 1.257 . S
C130 O131 1.244 . S
O131 C130 1.244 . S
O132 C108 1.257 . S
O132 Zn111 2.019 . S
H133 C126 0.930 . S
H134 C113 0.930 . S
H135 C125 0.930 1_545 S
Zn136 N140 2.020 . S
Zn136 O144 2.019 . S
Zn136 N146 2.119 . S
Zn136 O154 1.975 . S
C137 N138 1.334 . S
C137 N141 1.336 . S
N138 C137 1.334 . S
N138 C139 1.334 . S
C139 N138 1.334 . S
C139 N140 1.336 . S
N140 Zn136 2.020 . S
N140 C139 1.336 . S
N140 N141 1.354 . S
N141 C137 1.336 . S
N141 N140 1.354 . S
N141 Zn145 2.020 . S
C142 O143 1.244 . S
C142 O166 1.257 . S
O143 C142 1.244 . S
O144 Zn136 2.019 . S
O144 C164 1.257 . S
Zn145 N141 2.020 . S
Zn145 O152 1.975 . S
Zn145 N161 2.119 . S
Zn145 O166 2.019 . S
N146 Zn136 2.119 . S
N146 C148 1.334 . S
N146 C149 1.328 . S
C147 C148 1.391 . S
C147 N150 1.329 . S
C147 H168 0.930 . S
C148 N146 1.334 . S
C148 C147 1.391 . S
C148 H155 0.930 . S
C149 N146 1.328 . S
C149 C151 1.392 . S
C149 H156 0.930 . S
N150 C147 1.329 . S
N150 C151 1.331 . S
C151 C149 1.392 . S
C151 N150 1.331 . S
O152 Zn145 1.975 . S
O152 C153 1.252 . S
C153 O152 1.252 . S
C153 O154 1.252 . S
O154 Zn136 1.975 . S
O154 C153 1.252 . S
H155 C148 0.930 . S
H156 C149 0.930 . S
C157 C158 1.392 . S
C157 N161 1.328 . S
C157 H163 0.930 . S
C158 C157 1.392 . S
C158 N162 1.331 . S
C159 C160 1.391 . S
C159 N162 1.329 . S
C159 H169 0.930 1_455 S
C160 C159 1.391 . S
C160 N161 1.334 . S
C160 H167 0.930 . S
N161 Zn145 2.119 . S
N161 C157 1.328 . S
N161 C160 1.334 . S
N162 C158 1.331 . S
N162 C159 1.329 . S
H163 C157 0.930 . S
C164 O144 1.257 . S
C164 O165 1.244 . S
O165 C164 1.244 . S
O166 C142 1.257 . S
O166 Zn145 2.019 . S
H167 C160 0.930 . S
H168 C147 0.930 . S
H169 C159 0.930 1_655 S
Zn170 N174 2.020 . S
Zn170 O178 2.019 . S
Zn170 N180 2.119 . S
Zn170 O188 1.975 . S
C171 N172 1.334 . S
C171 N175 1.336 . S
N172 C171 1.334 . S
N172 C173 1.334 . S
C173 N172 1.334 . S
C173 N174 1.336 . S
N174 Zn170 2.020 . S
N174 C173 1.336 . S
N174 N175 1.354 . S
N175 C171 1.336 . S
N175 N174 1.354 . S
N175 Zn179 2.020 . S
C176 O177 1.244 . S
C176 O200 1.257 . S
O177 C176 1.244 . S
O178 Zn170 2.019 . S
O178 C198 1.257 . S
Zn179 N175 2.020 . S
Zn179 O186 1.975 . S
Zn179 N195 2.119 . S
Zn179 O200 2.019 . S
N180 Zn170 2.119 . S
N180 C182 1.334 . S
N180 C183 1.328 . S
C181 C182 1.391 . S
C181 N184 1.329 . S
C181 H202 0.930 1_545 S
C182 N180 1.334 . S
C182 C181 1.391 . S
C182 H189 0.930 . S
C183 N180 1.328 . S
C183 C185 1.392 . S
C183 H190 0.930 . S
N184 C181 1.329 . S
N184 C185 1.331 . S
C185 C183 1.392 . S
C185 N184 1.331 . S
O186 Zn179 1.975 . S
O186 C187 1.252 . S
C187 O186 1.252 . S
C187 O188 1.252 . S
O188 Zn170 1.975 . S
O188 C187 1.252 . S
H189 C182 0.930 . S
H190 C183 0.930 . S
C191 C192 1.392 . S
C191 N195 1.328 . S
C191 H197 0.930 . S
C192 C191 1.392 . S
C192 N196 1.331 . S
C193 C194 1.391 . S
C193 N196 1.329 . S
C193 H203 0.930 . S
C194 C193 1.391 . S
C194 N195 1.334 . S
C194 H201 0.930 . S
N195 Zn179 2.119 . S
N195 C191 1.328 . S
N195 C194 1.334 . S
N196 C192 1.331 . S
N196 C193 1.329 . S
H197 C191 0.930 . S
C198 O178 1.257 . S
C198 O199 1.244 . S
O199 C198 1.244 . S
O200 C176 1.257 . S
O200 Zn179 2.019 . S
H201 C194 0.930 . S
H202 C181 0.930 1_565 S
H203 C193 0.930 . S
Zn204 N208 2.020 . S
Zn204 O212 2.019 . S
Zn204 N214 2.119 . S
Zn204 O222 1.975 . S
C205 N206 1.334 . S
C205 N209 1.336 . S
N206 C205 1.334 . S
N206 C207 1.334 . S
C207 N206 1.334 . S
C207 N208 1.336 . S
N208 Zn204 2.020 . S
N208 C207 1.336 . S
N208 N209 1.354 . S
N209 C205 1.336 . S
N209 N208 1.354 . S
N209 Zn213 2.020 . S
C210 O211 1.244 . S
C210 O234 1.257 . S
O211 C210 1.244 . S
O212 Zn204 2.019 . S
O212 C232 1.257 . S
Zn213 N209 2.020 . S
Zn213 O220 1.975 . S
Zn213 N229 2.119 . S
Zn213 O234 2.019 . S
N214 Zn204 2.119 . S
N214 C216 1.334 . S
N214 C217 1.328 . S
C215 C216 1.391 . S
C215 N218 1.329 . S
C215 H236 0.930 1_655 S
C216 N214 1.334 . S
C216 C215 1.391 . S
C216 H223 0.930 . S
C217 N214 1.328 . S
C217 C219 1.392 . S
C217 H224 0.930 . S
N218 C215 1.329 . S
N218 C219 1.331 . S
C219 C217 1.392 . S
C219 N218 1.331 . S
O220 Zn213 1.975 . S
O220 C221 1.252 . S
C221 O220 1.252 . S
C221 O222 1.252 . S
O222 Zn204 1.975 . S
O222 C221 1.252 . S
H223 C216 0.930 . S
H224 C217 0.930 . S
C225 C226 1.392 . S
C225 N229 1.328 . S
C225 H231 0.930 . S
C226 C225 1.392 . S
C226 N230 1.331 . S
C227 C228 1.391 . S
C227 N230 1.329 . S
C227 H237 0.930 . S
C228 C227 1.391 . S
C228 N229 1.334 . S
C228 H235 0.930 . S
N229 Zn213 2.119 . S
N229 C225 1.328 . S
N229 C228 1.334 . S
N230 C226 1.331 . S
N230 C227 1.329 . S
H231 C225 0.930 . S
C232 O212 1.257 . S
C232 O233 1.244 . S
O233 C232 1.244 . S
O234 C210 1.257 . S
O234 Zn213 2.019 . S
H235 C228 0.930 . S
H236 C215 0.930 1_455 S
H237 C227 0.930 . S
Zn238 N242 2.020 . S
Zn238 O246 2.019 . S
Zn238 N248 2.119 . S
Zn238 O256 1.975 . S
C239 N240 1.334 . S
C239 N243 1.336 . S
N240 C239 1.334 . S
N240 C241 1.334 . S
C241 N240 1.334 . S
C241 N242 1.336 . S
N242 Zn238 2.020 . S
N242 C241 1.336 . S
N242 N243 1.354 . S
N243 C239 1.336 . S
N243 N242 1.354 . S
N243 Zn247 2.020 . S
C244 O245 1.244 . S
C244 O268 1.257 . S
O245 C244 1.244 . S
O246 Zn238 2.019 . S
O246 C266 1.257 . S
Zn247 N243 2.020 . S
Zn247 O254 1.975 . S
Zn247 N263 2.119 . S
Zn247 O268 2.019 . S
N248 Zn238 2.119 . S
N248 C250 1.334 . S
N248 C251 1.328 . S
C249 C250 1.391 . S
C249 N252 1.329 . S
C249 H270 0.930 1_565 S
C250 N248 1.334 . S
C250 C249 1.391 . S
C250 H257 0.930 . S
C251 N248 1.328 . S
C251 C253 1.392 . S
C251 H258 0.930 . S
N252 C249 1.329 . S
N252 C253 1.331 . S
C253 C251 1.392 . S
C253 N252 1.331 . S
O254 Zn247 1.975 . S
O254 C255 1.252 . S
C255 O254 1.252 . S
C255 O256 1.252 . S
O256 Zn238 1.975 . S
O256 C255 1.252 . S
H257 C250 0.930 . S
H258 C251 0.930 . S
C259 C260 1.392 . S
C259 N263 1.328 . S
C259 H265 0.930 . S
C260 C259 1.392 . S
C260 N264 1.331 . S
C261 C262 1.391 . S
C261 N264 1.329 . S
C261 H271 0.930 . S
C262 C261 1.391 . S
C262 N263 1.334 . S
C262 H269 0.930 . S
N263 Zn247 2.119 . S
N263 C259 1.328 . S
N263 C262 1.334 . S
N264 C260 1.331 . S
N264 C261 1.329 . S
H265 C259 0.930 . S
C266 O246 1.257 . S
C266 O267 1.244 . S
O267 C266 1.244 . S
O268 C244 1.257 . S
O268 Zn247 2.019 . S
H269 C262 0.930 . S
H270 C249 0.930 1_545 S
H271 C261 0.930 . S
C272 C273 1.387 1_556 S
C272 H276 0.950 . S
C272 C281 1.390 1_455 S
C273 C272 1.387 1_554 S
C273 C275 1.387 . S
H274 C281 0.950 . S
C275 C273 1.387 . S
C275 C277 1.390 1_455 S
C275 H279 0.950 . S
H276 C272 0.950 . S
C277 C275 1.390 1_655 S
C277 C278 1.387 . S
C277 H280 0.950 . S
C278 C277 1.387 . S
C278 C281 1.387 1_554 S
H279 C275 0.950 . S
H280 C277 0.950 . S
C281 C272 1.390 1_655 S
C281 H274 0.950 . S
C281 C278 1.387 1_556 S
C282 C283 1.387 . S
C282 H286 0.950 . S
C282 C291 1.390 1_565 S
C283 C282 1.387 . S
C283 C285 1.387 1_554 S
H284 C291 0.950 . S
C285 C283 1.387 1_556 S
C285 C287 1.390 1_565 S
C285 H289 0.950 . S
H286 C282 0.950 . S
C287 C285 1.390 1_545 S
C287 C288 1.387 1_556 S
C287 H290 0.950 . S
C288 C287 1.387 1_554 S
C288 C291 1.387 . S
H289 C285 0.950 . S
H290 C287 0.950 . S
C291 C282 1.390 1_545 S
C291 H284 0.950 . S
C291 C288 1.387 . S
C292 C293 1.387 . S
C292 H296 0.950 . S
C292 C301 1.390 1_455 S
C293 C292 1.387 . S
C293 C295 1.387 . S
H294 C301 0.950 . S
C295 C293 1.387 . S
C295 C297 1.390 1_455 S
C295 H299 0.950 . S
H296 C292 0.950 . S
C297 C295 1.390 1_655 S
C297 C298 1.387 . S
C297 H300 0.950 . S
C298 C297 1.387 . S
C298 C301 1.387 . S
H299 C295 0.950 . S
H300 C297 0.950 . S
C301 C292 1.390 1_655 S
C301 H294 0.950 . S
C301 C298 1.387 . S
C302 C303 1.387 . S
C302 H306 0.950 . S
C302 C311 1.390 1_565 S
C303 C302 1.387 . S
C303 C305 1.387 . S
H304 C311 0.950 . S
C305 C303 1.387 . S
C305 C307 1.390 1_565 S
C305 H309 0.950 . S
H306 C302 0.950 . S
C307 C305 1.390 1_545 S
C307 C308 1.387 . S
C307 H310 0.950 . S
C308 C307 1.387 . S
C308 C311 1.387 . S
H309 C305 0.950 . S
H310 C307 0.950 . S
C311 C302 1.390 1_545 S
C311 H304 0.950 . S
C311 C308 1.387 . S
C312 C313 1.387 . S
C312 H316 0.950 . S
C312 C321 1.390 . S
C313 C312 1.387 . S
C313 C315 1.387 . S
H314 C321 0.950 . S
C315 C313 1.387 . S
C315 C317 1.390 . S
C315 H319 0.950 . S
H316 C312 0.950 . S
C317 C315 1.390 . S
C317 C318 1.387 . S
C317 H320 0.950 . S
C318 C317 1.387 . S
C318 C321 1.387 . S
H319 C315 0.950 . S
H320 C317 0.950 . S
C321 C312 1.390 . S
C321 H314 0.950 . S
C321 C318 1.387 . S
C322 C323 1.387 . S
C322 H326 0.950 . S
C322 C331 1.390 . S
C323 C322 1.387 . S
C323 C325 1.387 . S
H324 C331 0.950 . S
C325 C323 1.387 . S
C325 C327 1.390 . S
C325 H329 0.950 . S
H326 C322 0.950 . S
C327 C325 1.390 . S
C327 C328 1.387 . S
C327 H330 0.950 . S
C328 C327 1.387 . S
C328 C331 1.387 . S
H329 C325 0.950 . S
H330 C327 0.950 . S
C331 C322 1.390 . S
C331 H324 0.950 . S
C331 C328 1.387 . S
C332 C333 1.387 . S
C332 H336 0.950 . S
C332 C341 1.390 . S
C333 C332 1.387 . S
C333 C335 1.387 . S
H334 C341 0.950 . S
C335 C333 1.387 . S
C335 C337 1.390 . S
C335 H339 0.950 . S
H336 C332 0.950 . S
C337 C335 1.390 . S
C337 C338 1.387 . S
C337 H340 0.950 . S
C338 C337 1.387 . S
C338 C341 1.387 . S
H339 C335 0.950 . S
H340 C337 0.950 . S
C341 C332 1.390 . S
C341 H334 0.950 . S
C341 C338 1.387 . S
C342 C343 1.387 . S
C342 H346 0.950 . S
C342 C351 1.390 . S
C343 C342 1.387 . S
C343 C345 1.387 . S
H344 C351 0.950 . S
C345 C343 1.387 . S
C345 C347 1.390 . S
C345 H349 0.950 . S
H346 C342 0.950 . S
C347 C345 1.390 . S
C347 C348 1.387 . S
C347 H350 0.950 . S
C348 C347 1.387 . S
C348 C351 1.387 . S
H349 C345 0.950 . S
H350 C347 0.950 . S
C351 C342 1.390 . S
C351 H344 0.950 . S
C351 C348 1.387 . S
C352 C353 1.387 . S
C352 H356 0.950 . S
C352 C361 1.390 . S
C353 C352 1.387 . S
C353 C355 1.387 . S
H354 C361 0.950 . S
C355 C353 1.387 . S
C355 C357 1.390 . S
C355 H359 0.950 . S
H356 C352 0.950 . S
C357 C355 1.390 . S
C357 C358 1.387 . S
C357 H360 0.950 . S
C358 C357 1.387 . S
C358 C361 1.387 . S
H359 C355 0.950 . S
H360 C357 0.950 . S
C361 C352 1.390 . S
C361 H354 0.950 . S
C361 C358 1.387 . S
C362 C363 1.387 . S
C362 H366 0.950 . S
C362 C371 1.390 . S
C363 C362 1.387 . S
C363 C365 1.387 . S
H364 C371 0.950 . S
C365 C363 1.387 . S
C365 C367 1.390 . S
C365 H369 0.950 . S
H366 C362 0.950 . S
C367 C365 1.390 . S
C367 C368 1.387 . S
C367 H370 0.950 . S
C368 C367 1.387 . S
C368 C371 1.387 . S
H369 C365 0.950 . S
H370 C367 0.950 . S
C371 C362 1.390 . S
C371 H364 0.950 . S
C371 C368 1.387 . S
C372 C373 1.387 . S
C372 H376 0.950 . S
C372 C381 1.390 . S
C373 C372 1.387 . S
C373 C375 1.387 . S
H374 C381 0.950 . S
C375 C373 1.387 . S
C375 C377 1.390 . S
C375 H379 0.950 . S
H376 C372 0.950 . S
C377 C375 1.390 . S
C377 C378 1.387 . S
C377 H380 0.950 . S
C378 C377 1.387 . S
C378 C381 1.387 . S
H379 C375 0.950 . S
H380 C377 0.950 . S
C381 C372 1.390 . S
C381 H374 0.950 . S
C381 C378 1.387 . S
C382 C383 1.387 . S
C382 H386 0.950 . S
C382 C391 1.390 . S
C383 C382 1.387 . S
C383 C385 1.387 . S
H384 C391 0.950 . S
C385 C383 1.387 . S
C385 C387 1.390 . S
C385 H389 0.950 . S
H386 C382 0.950 . S
C387 C385 1.390 . S
C387 C388 1.387 . S
C387 H390 0.950 . S
C388 C387 1.387 . S
C388 C391 1.387 . S
H389 C385 0.950 . S
H390 C387 0.950 . S
C391 C382 1.390 . S
C391 H384 0.950 . S
C391 C388 1.387 . S
C392 C393 1.387 . S
C392 H396 0.950 . S
C392 C401 1.390 1_565 S
C393 C392 1.387 . S
C393 C395 1.387 . S
H394 C401 0.950 . S
C395 C393 1.387 . S
C395 C397 1.390 1_565 S
C395 H399 0.950 . S
H396 C392 0.950 . S
C397 C395 1.390 1_545 S
C397 C398 1.387 . S
C397 H400 0.950 . S
C398 C397 1.387 . S
C398 C401 1.387 . S
H399 C395 0.950 . S
H400 C397 0.950 . S
C401 C392 1.390 1_545 S
C401 H394 0.950 . S
C401 C398 1.387 . S
C402 C403 1.387 . S
C402 H406 0.950 . S
C402 C411 1.390 1_455 S
C403 C402 1.387 . S
C403 C405 1.387 . S
H404 C411 0.950 . S
C405 C403 1.387 . S
C405 C407 1.390 1_455 S
C405 H409 0.950 . S
H406 C402 0.950 . S
C407 C405 1.390 1_655 S
C407 C408 1.387 . S
C407 H410 0.950 . S
C408 C407 1.387 . S
C408 C411 1.387 . S
H409 C405 0.950 . S
H410 C407 0.950 . S
C411 C402 1.390 1_655 S
C411 H404 0.950 . S
C411 C408 1.387 . S
C412 C413 1.387 . S
C412 H416 0.950 . S
C412 C421 1.390 1_545 S
C413 C412 1.387 . S
C413 C415 1.387 . S
H414 C421 0.950 . S
C415 C413 1.387 . S
C415 C417 1.390 1_545 S
C415 H419 0.950 . S
H416 C412 0.950 . S
C417 C415 1.390 1_565 S
C417 C418 1.387 . S
C417 H420 0.950 . S
C418 C417 1.387 . S
C418 C421 1.387 . S
H419 C415 0.950 . S
H420 C417 0.950 . S
C421 C412 1.390 1_565 S
C421 H414 0.950 . S
C421 C418 1.387 . S
C422 C423 1.387 . S
C422 H426 0.950 . S
C422 C431 1.390 1_655 S
C423 C422 1.387 . S
C423 C425 1.387 . S
H424 C431 0.950 . S
C425 C423 1.387 . S
C425 C427 1.390 1_655 S
C425 H429 0.950 . S
H426 C422 0.950 . S
C427 C425 1.390 1_455 S
C427 C428 1.387 . S
C427 H430 0.950 . S
C428 C427 1.387 . S
C428 C431 1.387 . S
H429 C425 0.950 . S
H430 C427 0.950 . S
C431 C422 1.390 1_455 S
C431 H424 0.950 . S
C431 C428 1.387 . S
C432 C433 1.387 . S
C432 H436 0.950 . S
C432 C441 1.390 1_565 S
C433 C432 1.387 . S
C433 C435 1.387 . S
H434 C441 0.950 . S
C435 C433 1.387 . S
C435 C437 1.390 1_565 S
C435 H439 0.950 . S
H436 C432 0.950 . S
C437 C435 1.390 1_545 S
C437 C438 1.387 . S
C437 H440 0.950 . S
C438 C437 1.387 . S
C438 C441 1.387 . S
H439 C435 0.950 . S
H440 C437 0.950 . S
C441 C432 1.390 1_545 S
C441 H434 0.950 . S
C441 C438 1.387 . S
C442 C443 1.387 . S
C442 H446 0.950 . S
C442 C451 1.390 1_455 S
C443 C442 1.387 . S
C443 C445 1.387 . S
H444 C451 0.950 . S
C445 C443 1.387 . S
C445 C447 1.390 1_455 S
C445 H449 0.950 . S
H446 C442 0.950 . S
C447 C445 1.390 1_655 S
C447 C448 1.387 . S
C447 H450 0.950 . S
C448 C447 1.387 . S
C448 C451 1.387 . S
H449 C445 0.950 . S
H450 C447 0.950 . S
C451 C442 1.390 1_655 S
C451 H444 0.950 . S
C451 C448 1.387 . S
C452 C453 1.387 . S
C452 H456 0.950 . S
C452 C461 1.390 1_545 S
C453 C452 1.387 . S
C453 C455 1.387 . S
H454 C461 0.950 . S
C455 C453 1.387 . S
C455 C457 1.390 1_545 S
C455 H459 0.950 . S
H456 C452 0.950 . S
C457 C455 1.390 1_565 S
C457 C458 1.387 . S
C457 H460 0.950 . S
C458 C457 1.387 . S
C458 C461 1.387 . S
H459 C455 0.950 . S
H460 C457 0.950 . S
C461 C452 1.390 1_565 S
C461 H454 0.950 . S
C461 C458 1.387 . S
C462 C463 1.387 . S
C462 H466 0.950 . S
C462 C471 1.390 1_455 S
C463 C462 1.387 . S
C463 C465 1.387 . S
H464 C471 0.950 . S
C465 C463 1.387 . S
C465 C467 1.390 1_455 S
C465 H469 0.950 . S
H466 C462 0.950 . S
C467 C465 1.390 1_655 S
C467 C468 1.387 . S
C467 H470 0.950 . S
C468 C467 1.387 . S
C468 C471 1.387 . S
H469 C465 0.950 . S
H470 C467 0.950 . S
C471 C462 1.390 1_655 S
C471 H464 0.950 . S
C471 C468 1.387 . S
C472 C473 1.387 . S
C472 H476 0.950 . S
C472 C481 1.390 . S
C473 C472 1.387 . S
C473 C475 1.387 . S
H474 C481 0.950 . S
C475 C473 1.387 . S
C475 C477 1.390 . S
C475 H479 0.950 . S
H476 C472 0.950 . S
C477 C475 1.390 . S
C477 C478 1.387 . S
C477 H480 0.950 . S
C478 C477 1.387 . S
C478 C481 1.387 . S
H479 C475 0.950 . S
H480 C477 0.950 . S
C481 C472 1.390 . S
C481 H474 0.950 . S
C481 C478 1.387 . S
C482 C483 1.387 . S
C482 H486 0.950 . S
C482 C491 1.390 . S
C483 C482 1.387 . S
C483 C485 1.387 . S
H484 C491 0.950 . S
C485 C483 1.387 . S
C485 C487 1.390 . S
C485 H489 0.950 . S
H486 C482 0.950 . S
C487 C485 1.390 . S
C487 C488 1.387 . S
C487 H490 0.950 . S
C488 C487 1.387 . S
C488 C491 1.387 . S
H489 C485 0.950 . S
H490 C487 0.950 . S
C491 C482 1.390 . S
C491 H484 0.950 . S
C491 C488 1.387 . S
C492 C493 1.387 . S
C492 H496 0.950 . S
C492 C501 1.390 . S
C493 C492 1.387 . S
C493 C495 1.387 . S
H494 C501 0.950 . S
C495 C493 1.387 . S
C495 C497 1.390 . S
C495 H499 0.950 . S
H496 C492 0.950 . S
C497 C495 1.390 . S
C497 C498 1.387 . S
C497 H500 0.950 . S
C498 C497 1.387 . S
C498 C501 1.387 . S
H499 C495 0.950 . S
H500 C497 0.950 . S
C501 C492 1.390 . S
C501 H494 0.950 . S
C501 C498 1.387 . S
C502 C503 1.387 . S
C502 H506 0.950 . S
C502 C511 1.390 . S
C503 C502 1.387 . S
C503 C505 1.387 . S
H504 C511 0.950 . S
C505 C503 1.387 . S
C505 C507 1.390 . S
C505 H509 0.950 . S
H506 C502 0.950 . S
C507 C505 1.390 . S
C507 C508 1.387 . S
C507 H510 0.950 . S
C508 C507 1.387 . S
C508 C511 1.387 . S
H509 C505 0.950 . S
H510 C507 0.950 . S
C511 C502 1.390 . S
C511 H504 0.950 . S
C511 C508 1.387 . S
C512 C513 1.387 . S
C512 H516 0.950 . S
C512 C521 1.390 . S
C513 C512 1.387 . S
C513 C515 1.387 . S
H514 C521 0.950 . S
C515 C513 1.387 . S
C515 C517 1.390 . S
C515 H519 0.950 . S
H516 C512 0.950 . S
C517 C515 1.390 . S
C517 C518 1.387 . S
C517 H520 0.950 . S
C518 C517 1.387 . S
C518 C521 1.387 . S
H519 C515 0.950 . S
H520 C517 0.950 . S
C521 C512 1.390 . S
C521 H514 0.950 . S
C521 C518 1.387 . S
C522 C523 1.387 . S
C522 H526 0.950 . S
C522 C531 1.390 . S
C523 C522 1.387 . S
C523 C525 1.387 . S
H524 C531 0.950 . S
C525 C523 1.387 . S
C525 C527 1.390 . S
C525 H529 0.950 . S
H526 C522 0.950 . S
C527 C525 1.390 . S
C527 C528 1.387 . S
C527 H530 0.950 . S
C528 C527 1.387 . S
C528 C531 1.387 . S
H529 C525 0.950 . S
H530 C527 0.950 . S
C531 C522 1.390 . S
C531 H524 0.950 . S
C531 C528 1.387 . S
C532 C533 1.387 . S
C532 H536 0.950 . S
C532 C541 1.390 . S
C533 C532 1.387 . S
C533 C535 1.387 . S
H534 C541 0.950 . S
C535 C533 1.387 . S
C535 C537 1.390 . S
C535 H539 0.950 . S
H536 C532 0.950 . S
C537 C535 1.390 . S
C537 C538 1.387 . S
C537 H540 0.950 . S
C538 C537 1.387 . S
C538 C541 1.387 . S
H539 C535 0.950 . S
H540 C537 0.950 . S
C541 C532 1.390 . S
C541 H534 0.950 . S
C541 C538 1.387 . S
C542 C543 1.387 . S
C542 H546 0.950 . S
C542 C551 1.390 . S
C543 C542 1.387 . S
C543 C545 1.387 . S
H544 C551 0.950 . S
C545 C543 1.387 . S
C545 C547 1.390 . S
C545 H549 0.950 . S
H546 C542 0.950 . S
C547 C545 1.390 . S
C547 C548 1.387 . S
C547 H550 0.950 . S
C548 C547 1.387 . S
C548 C551 1.387 . S
H549 C545 0.950 . S
H550 C547 0.950 . S
C551 C542 1.390 . S
C551 H544 0.950 . S
C551 C548 1.387 . S
C273 C17 1.626 . S
C278 C85 1.626 . S
C283 C119 1.626 . S
C288 C51 1.626 . S
C293 C153 1.626 . S
C298 C221 1.626 . S
C303 C255 1.626 . S
C308 C187 1.626 . S
C313 C142 1.258 . S
C318 C6 1.257 . S
C323 C198 1.256 . S
C328 C62 1.254 . S
C333 C232 1.258 . S
C338 C74 1.257 . S
C343 C266 1.256 . S
C348 C108 1.254 . S
C353 C226 0.676 . S
C358 C83 0.678 . S
C363 C260 0.664 . S
C368 C117 0.666 . S
C373 C15 0.664 . S
C378 C151 0.666 . S
C383 C192 0.676 . S
C388 C56 0.678 . S
C393 C244 1.258 . S
C398 C40 1.260 . S
C403 C164 1.258 . S
C408 C96 1.260 . S
C413 C176 1.256 . S
C418 C130 1.257 . S
C423 C210 1.258 . S
C428 C28 1.260 . S
C433 C124 0.676 . S
C438 C185 0.674 . S
C443 C22 0.676 . S
C448 C219 0.674 . S
C453 C49 0.664 . S
C458 C253 0.663 . S
C463 C158 0.664 . S
C468 C90 0.663 . S
C473 C173 3.042 . S
C478 C1 3.040 . S
C483 C37 3.043 . S
C488 C207 3.040 . S
C493 C241 3.042 . S
C498 C69 3.041 . S
C503 C103 3.042 . S
C508 C137 3.040 . S
C513 C239 3.043 . S
C518 C71 3.045 . S
C523 C139 3.043 . S
C528 C105 3.045 . S
C533 C3 3.043 . S
C538 C171 3.045 . S
C543 C205 3.043 . S
C548 C35 3.044 . S
