# Generated by pormake.
# Topology umw, (4)-cn, num edge types: 1
# Building blocks:
#     Node 0, Type 0, BuildingBlock: QUQFOY_clean_sbu_3, # of connection points: 4
#     Node 1, Type 0, BuildingBlock: QUQFOY_clean_sbu_3, # of connection points: 4
#     Node 2, Type 0, BuildingBlock: QUQFOY_clean_sbu_3, # of connection points: 4
#     Node 3, Type 0, BuildingBlock: QUQFOY_clean_sbu_3, # of connection points: 4
#     Node 4, Type 0, BuildingBlock: QUQFOY_clean_sbu_3, # of connection points: 4
#     Node 5, Type 0, BuildingBlock: QUQFOY_clean_sbu_3, # of connection points: 4
#     Node 6, Type 0, BuildingBlock: QUQFOY_clean_sbu_3, # of connection points: 4
#     Node 7, Type 0, BuildingBlock: QUQFOY_clean_sbu_3, # of connection points: 4
#     Edge 8, Type (0, 0), BuildingBlock: TEMPAE_clean_linker_10, # of connection points: 2
#     Edge 9, Type (0, 0), BuildingBlock: TEMPAE_clean_linker_10, # of connection points: 2
#     Edge 10, Type (0, 0), BuildingBlock: TEMPAE_clean_linker_10, # of connection points: 2
#     Edge 11, Type (0, 0), BuildingBlock: TEMPAE_clean_linker_10, # of connection points: 2
#     Edge 12, Type (0, 0), BuildingBlock: TEMPAE_clean_linker_10, # of connection points: 2
#     Edge 13, Type (0, 0), BuildingBlock: TEMPAE_clean_linker_10, # of connection points: 2
#     Edge 14, Type (0, 0), BuildingBlock: TEMPAE_clean_linker_10, # of connection points: 2
#     Edge 15, Type (0, 0), BuildingBlock: TEMPAE_clean_linker_10, # of connection points: 2
#     Edge 16, Type (0, 0), BuildingBlock: TEMPAE_clean_linker_10, # of connection points: 2
#     Edge 17, Type (0, 0), BuildingBlock: TEMPAE_clean_linker_10, # of connection points: 2
#     Edge 18, Type (0, 0), BuildingBlock: TEMPAE_clean_linker_10, # of connection points: 2
#     Edge 19, Type (0, 0), BuildingBlock: TEMPAE_clean_linker_10, # of connection points: 2
#     Edge 20, Type (0, 0), BuildingBlock: TEMPAE_clean_linker_10, # of connection points: 2
#     Edge 21, Type (0, 0), BuildingBlock: TEMPAE_clean_linker_10, # of connection points: 2
#     Edge 22, Type (0, 0), BuildingBlock: TEMPAE_clean_linker_10, # of connection points: 2
#     Edge 23, Type (0, 0), BuildingBlock: TEMPAE_clean_linker_10, # of connection points: 2
# Relax obj value: 0.126
# Max RMSD: 0.103
# Mean RMSD: 0.103
data_MOF--net-umw--node1-QUQFOY_clean_sbu_3--edge1-TEMPAE_clean_linker_10
_symmetry_space_group_name_H-M    P1
_symmetry_Int_Tables_number       1
_symmetry_cell_setting            triclinic
loop_
_symmetry_equiv_pos_as_xyz
'x, y, z'
_cell_length_a     42.78207
_cell_length_b     42.862715
_cell_length_c     26.581644
_cell_angle_alpha  90.051998
_cell_angle_beta   90.11629
_cell_angle_gamma 89.997235
loop_
_atom_site_label
_atom_site_type_symbol
_atom_site_fract_x
_atom_site_fract_y
_atom_site_fract_z
_atom_type_partial_charge
C0 C 0.45417 0.18603 0.21752 0.0
O1 O 0.47554 0.17723 0.24748 0.0
Cd2 Cd 0.47265 0.16914 0.33485 0.0
O3 O 0.42603 0.18988 0.2324 0.0
Cd4 Cd 0.40102 0.17927 0.31587 0.0
C5 C 0.42745 0.10492 0.32463 0.0
O6 O 0.43886 0.21019 0.36002 0.0
O7 O 0.4114 0.18104 0.40777 0.0
O8 O 0.35839 0.217 0.30638 0.0
C9 C 0.4309 0.20315 0.4041 0.0
O10 O 0.45271 0.11618 0.34229 0.0
C11 C 0.33795 0.19928 0.32608 0.0
O12 O 0.40607 0.1228 0.30799 0.0
O13 O 0.34624 0.17146 0.33528 0.0
C14 C 0.80059 0.44698 0.45029 0.0
O15 O 0.80308 0.47111 0.4777 0.0
Cd16 Cd 0.81622 0.47394 0.56381 0.0
O17 O 0.80474 0.41959 0.46801 0.0
Cd18 Cd 0.81553 0.39984 0.55501 0.0
C19 C 0.88607 0.4347 0.56063 0.0
O20 O 0.78153 0.43645 0.59691 0.0
O21 O 0.81421 0.41338 0.64513 0.0
O22 O 0.78033 0.35517 0.5496 0.0
C23 C 0.79061 0.43103 0.64115 0.0
O24 O 0.87159 0.45979 0.5714 0.0
C25 C 0.79883 0.33663 0.57216 0.0
O26 O 0.87121 0.41003 0.54888 0.0
O27 O 0.82629 0.34655 0.58067 0.0
C28 C 0.54431 0.80897 0.72011 0.0
O29 O 0.52228 0.81856 0.74803 0.0
Cd30 Cd 0.52257 0.82698 0.83556 0.0
O31 O 0.57184 0.80447 0.73739 0.0
Cd32 Cd 0.59463 0.81534 0.82243 0.0
C33 C 0.56916 0.89018 0.82781 0.0
O34 O 0.55487 0.78548 0.86394 0.0
O35 O 0.58228 0.81376 0.9135 0.0
O36 O 0.63695 0.77708 0.81514 0.0
C37 C 0.56215 0.79231 0.90851 0.0
O38 O 0.54328 0.87956 0.8439 0.0
C39 C 0.65716 0.7944 0.83649 0.0
O40 O 0.59061 0.87178 0.8131 0.0
O41 O 0.64897 0.8222 0.84609 0.0
C42 C 0.21545 0.54419 0.95908 0.0
O43 O 0.21008 0.52026 0.98575 0.0
Cd44 Cd 0.18507 0.51778 0.06428 0.0
O45 O 0.20801 0.57158 0.97389 0.0
Cd46 Cd 0.18629 0.59306 0.05442 0.0
C47 C 0.11712 0.55777 0.03509 0.0
O48 O 0.21353 0.55662 0.10649 0.0
O49 O 0.17607 0.58018 0.14374 0.0
O50 O 0.22321 0.63628 0.05626 0.0
C51 C 0.19921 0.56188 0.14693 0.0
O52 O 0.13044 0.5328 0.04994 0.0
C53 C 0.20387 0.65577 0.07438 0.0
O54 O 0.13256 0.58291 0.02951 0.0
O55 O 0.17558 0.64703 0.07732 0.0
C56 C 0.4622 0.78897 0.3709 0.0
O57 O 0.47998 0.79546 0.33421 0.0
Cd58 Cd 0.46661 0.8065 0.25027 0.0
O59 O 0.43249 0.788 0.36532 0.0
Cd60 Cd 0.39781 0.79845 0.29074 0.0
C61 C 0.42473 0.87204 0.27724 0.0
O62 O 0.42825 0.76802 0.23331 0.0
O63 O 0.39775 0.80054 0.19746 0.0
O64 O 0.35645 0.76066 0.30826 0.0
C65 C 0.41627 0.77766 0.19292 0.0
O66 O 0.44772 0.86036 0.25338 0.0
C67 C 0.33447 0.77923 0.29625 0.0
O68 O 0.40459 0.85451 0.29813 0.0
O69 O 0.34199 0.80748 0.28885 0.0
C70 C 0.21728 0.45408 0.62329 0.0
O71 O 0.21308 0.4751 0.59038 0.0
Cd72 Cd 0.19039 0.46933 0.51015 0.0
O73 O 0.21003 0.42561 0.61482 0.0
Cd74 Cd 0.19028 0.39612 0.53965 0.0
C75 C 0.12114 0.43309 0.5439 0.0
O76 O 0.21874 0.42637 0.47977 0.0
O77 O 0.18096 0.40026 0.44805 0.0
O78 O 0.2273 0.35351 0.54984 0.0
C79 C 0.20448 0.41759 0.44075 0.0
O80 O 0.13524 0.45607 0.52368 0.0
C81 C 0.2082 0.33242 0.53618 0.0
O82 O 0.13604 0.40881 0.55764 0.0
O83 O 0.17986 0.34055 0.53077 0.0
C84 C 0.53589 0.20371 0.86735 0.0
O85 O 0.51773 0.19677 0.83123 0.0
Cd86 Cd 0.52975 0.18675 0.74655 0.0
O87 O 0.56545 0.20573 0.86078 0.0
Cd88 Cd 0.59892 0.19603 0.78471 0.0
C89 C 0.57287 0.122 0.77189 0.0
O90 O 0.56694 0.22628 0.72925 0.0
O91 O 0.59706 0.19437 0.69134 0.0
O92 O 0.64058 0.23388 0.80079 0.0
C93 C 0.57816 0.21703 0.68813 0.0
O94 O 0.5495 0.1332 0.74828 0.0
C95 C 0.66235 0.21527 0.78801 0.0
O96 O 0.59287 0.13994 0.79237 0.0
O97 O 0.65466 0.18707 0.78054 0.0
C98 C 0.7996 0.53087 0.10222 0.0
O99 O 0.80182 0.51165 0.06605 0.0
Cd100 Cd 0.81326 0.52336 0.98125 0.0
O101 O 0.80285 0.56021 0.09522 0.0
Cd102 Cd 0.81205 0.5935 0.01922 0.0
C103 C 0.88288 0.56126 0.00014 0.0
O104 O 0.77777 0.56459 0.96491 0.0
O105 O 0.8102 0.59387 0.92624 0.0
O106 O 0.77628 0.63525 0.04294 0.0
C107 C 0.78637 0.57641 0.92382 0.0
O108 O 0.86862 0.53841 0.97975 0.0
C109 C 0.79421 0.65699 0.02798 0.0
O110 O 0.86777 0.58336 0.02086 0.0
O111 O 0.82179 0.6492 0.01572 0.0
C112 C 0.4475 0.19845 0.4936 0.0
C113 C 0.45015 0.21331 0.44697 0.0
C114 C 0.46927 0.20425 0.53183 0.0
C115 C 0.49403 0.22548 0.523 0.0
C116 C 0.49551 0.24217 0.4773 0.0
C117 C 0.47349 0.23586 0.4397 0.0
C118 C 0.46681 0.1863 0.58056 0.0
C119 C 0.52136 0.26528 0.46697 0.0
C120 C 0.53816 0.24698 0.64073 0.0
C121 C 0.56155 0.22404 0.64099 0.0
C122 C 0.51705 0.24923 0.60068 0.0
C123 C 0.5196 0.22806 0.56015 0.0
C124 C 0.5449 0.2068 0.55805 0.0
C125 C 0.56573 0.2051 0.59862 0.0
C126 C 0.49064 0.27252 0.60373 0.0
C127 C 0.54854 0.18416 0.51488 0.0
H128 H 0.42934 0.18123 0.49944 0.0
H129 H 0.47535 0.2477 0.40379 0.0
H130 H 0.48698 0.17016 0.5841 0.0
H131 H 0.46767 0.20251 0.6131 0.0
H132 H 0.44493 0.17243 0.5828 0.0
H133 H 0.51665 0.27942 0.43277 0.0
H134 H 0.52461 0.28126 0.49942 0.0
H135 H 0.54368 0.25256 0.46148 0.0
H136 H 0.53518 0.26202 0.67319 0.0
H137 H 0.584 0.18757 0.59848 0.0
H138 H 0.46863 0.26014 0.61307 0.0
H139 H 0.48706 0.28431 0.56703 0.0
H140 H 0.49493 0.29053 0.63303 0.0
H141 H 0.52937 0.16673 0.51609 0.0
H142 H 0.57121 0.17155 0.51632 0.0
H143 H 0.54679 0.19655 0.47836 0.0
C144 C 0.75879 0.47508 0.67442 0.0
C145 C 0.78072 0.45128 0.68287 0.0
C146 C 0.75292 0.49771 0.71124 0.0
C147 C 0.76946 0.49634 0.75722 0.0
C148 C 0.79 0.47116 0.76719 0.0
C149 C 0.79532 0.44883 0.72982 0.0
C150 C 0.73052 0.52397 0.6997 0.0
C151 C 0.80776 0.46876 0.81625 0.0
C152 C 0.79442 0.56617 0.83264 0.0
C153 C 0.77653 0.562 0.87614 0.0
C154 C 0.79037 0.54645 0.79116 0.0
C155 C 0.76777 0.52237 0.79353 0.0
C156 C 0.74724 0.52049 0.83495 0.0
C157 C 0.7519 0.54041 0.87599 0.0
C158 C 0.81238 0.54943 0.74707 0.0
C159 C 0.72238 0.49558 0.83817 0.0
H160 H 0.74718 0.47686 0.63825 0.0
H161 H 0.81199 0.43025 0.73664 0.0
H162 H 0.71542 0.52908 0.73257 0.0
H163 H 0.74397 0.54545 0.69121 0.0
H164 H 0.71542 0.51855 0.66678 0.0
H165 H 0.82126 0.44669 0.8192 0.0
H166 H 0.82429 0.48862 0.8196 0.0
H167 H 0.79142 0.47014 0.84852 0.0
H168 H 0.81316 0.58319 0.83234 0.0
H169 H 0.73757 0.5376 0.90928 0.0
H170 H 0.79938 0.54785 0.71102 0.0
H171 H 0.82945 0.52993 0.74794 0.0
H172 H 0.82554 0.57177 0.74786 0.0
H173 H 0.71047 0.49241 0.80141 0.0
H174 H 0.70459 0.50118 0.86719 0.0
H175 H 0.73346 0.47302 0.84825 0.0
C176 C 0.42732 0.79032 0.10334 0.0
C177 C 0.43176 0.77075 0.14486 0.0
C178 C 0.44752 0.78877 0.06207 0.0
C179 C 0.47241 0.767 0.06259 0.0
C180 C 0.47502 0.74513 0.10208 0.0
C181 C 0.45455 0.74726 0.14289 0.0
C182 C 0.44384 0.81219 0.02005 0.0
C183 C 0.50095 0.72125 0.1034 0.0
C184 C 0.51816 0.7606 0.94174 0.0
C185 C 0.54211 0.78235 0.95037 0.0
C186 C 0.49594 0.75417 0.97885 0.0
C187 C 0.49782 0.76997 0.02539 0.0
C188 C 0.52301 0.79052 0.03538 0.0
C189 C 0.54497 0.79641 -0.00235 0.0
C190 C 0.46962 0.7318 0.96727 0.0
C191 C 0.52588 0.80752 0.085 0.0
H192 H 0.40948 0.80827 0.1045 0.0
H193 H 0.45769 0.73171 0.17467 0.0
H194 H 0.46315 0.82944 0.022 0.0
H195 H 0.44528 0.80047 0.98291 0.0
H196 H 0.42128 0.82495 0.02233 0.0
H197 H 0.49649 0.70274 0.13172 0.0
H198 H 0.50401 0.71017 0.066 0.0
H199 H 0.52328 0.73298 0.11317 0.0
H200 H 0.5161 0.74939 0.90535 0.0
H201 H 0.56362 0.81306 0.00454 0.0
H202 H 0.44752 0.74504 0.96267 0.0
H203 H 0.4662 0.7152 -0.00122 0.0
H204 H 0.47391 0.71833 0.93224 0.0
H205 H 0.50585 0.82373 0.08959 0.0
H206 H 0.54788 0.82119 0.0878 0.0
H207 H 0.5251 0.7907 0.11666 0.0
C208 C 0.18781 0.43012 0.3532 0.0
C209 C 0.20845 0.43483 0.39345 0.0
C210 C 0.18828 0.44999 0.31145 0.0
C211 C 0.20983 0.47503 0.31038 0.0
C212 C 0.23182 0.47884 0.34959 0.0
C213 C 0.23098 0.45852 0.39062 0.0
C214 C 0.16482 0.44508 0.26966 0.0
C215 C 0.25515 0.50531 0.34949 0.0
C216 C 0.22402 0.51571 0.18674 0.0
C217 C 0.20365 0.54126 0.19047 0.0
C218 C 0.22642 0.49398 0.2257 0.0
C219 C 0.2083 0.49822 0.2695 0.0
C220 C 0.18846 0.52449 0.27425 0.0
C221 C 0.18628 0.54573 0.23442 0.0
C222 C 0.24771 0.46612 0.21948 0.0
C223 C 0.16915 0.52984 0.32098 0.0
H224 H 0.17051 0.41168 0.35516 0.0
H225 H 0.24716 0.4621 0.42153 0.0
H226 H 0.14809 0.46486 0.26889 0.0
H227 H 0.17679 0.44455 0.23268 0.0
H228 H 0.15141 0.42308 0.2743 0.0
H229 H 0.27206 0.50365 0.38115 0.0
H230 H 0.26835 0.50564 0.31363 0.0
H231 H 0.24259 0.52789 0.35247 0.0
H232 H 0.23752 0.51216 0.15275 0.0
H233 H 0.17064 0.56555 0.2374 0.0
H234 H 0.23375 0.44431 0.2207 0.0
H235 H 0.26473 0.46506 0.25097 0.0
H236 H 0.26082 0.46673 0.18347 0.0
H237 H 0.1525 0.51026 0.32608 0.0
H238 H 0.15569 0.55198 0.31929 0.0
H239 H 0.18451 0.53043 0.35465 0.0
C240 C 0.29196 0.19455 0.38313 0.0
C241 C 0.30875 0.21207 0.34762 0.0
C242 C 0.27018 0.20886 0.41513 0.0
C243 C 0.26484 0.2413 0.41098 0.0
C244 C 0.27918 0.25834 0.3716 0.0
C245 C 0.3011 0.24353 0.34049 0.0
C246 C 0.25518 0.18978 0.45622 0.0
C247 C 0.27342 0.29286 0.36498 0.0
C248 C 0.20183 0.28665 0.47922 0.0
C249 C 0.21977 0.30261 0.5153 0.0
C250 C 0.21565 0.26475 0.44683 0.0
C251 C 0.24798 0.25844 0.45132 0.0
C252 C 0.2653 0.27188 0.49133 0.0
C253 C 0.25101 0.29397 0.5227 0.0
C254 C 0.19629 0.25078 0.40497 0.0
C255 C 0.29967 0.26505 0.49834 0.0
H256 H 0.29757 0.17014 0.38876 0.0
H257 H 0.31373 0.25713 0.31281 0.0
H258 H 0.26736 0.19447 0.49234 0.0
H259 H 0.23028 0.19628 0.4612 0.0
H260 H 0.25664 0.16436 0.44834 0.0
H261 H 0.28314 0.30177 0.32903 0.0
H262 H 0.248 0.29797 0.36595 0.0
H263 H 0.28451 0.30583 0.39646 0.0
H264 H 0.17763 0.29318 0.47322 0.0
H265 H 0.26491 0.30603 0.55079 0.0
H266 H 0.20229 0.22589 0.39892 0.0
H267 H 0.20125 0.26341 0.36945 0.0
H268 H 0.17085 0.25265 0.41278 0.0
H269 H 0.30403 0.23956 0.49688 0.0
H270 H 0.30873 0.27424 0.53465 0.0
H271 H 0.31312 0.27595 0.46733 0.0
C272 C 0.75622 0.2984 0.58892 0.0
C273 C 0.78688 0.30847 0.59783 0.0
C274 C 0.7412 0.27826 0.62266 0.0
C275 C 0.75717 0.26825 0.66655 0.0
C276 C 0.78906 0.27589 0.67316 0.0
C277 C 0.80364 0.29578 0.63846 0.0
C278 C 0.70738 0.26987 0.61344 0.0
C279 C 0.80701 0.2655 0.71913 0.0
C280 C 0.69956 0.25905 0.77292 0.0
C281 C 0.69282 0.22713 0.76996 0.0
C282 C 0.72265 0.27239 0.74234 0.0
C283 C 0.73914 0.25332 0.7078 0.0
C284 C 0.73481 0.22064 0.70863 0.0
C285 C 0.7118 0.20786 0.74004 0.0
C286 C 0.72729 0.3073 0.7437 0.0
C287 C 0.75212 0.19944 0.67289 0.0
H288 H 0.74324 0.30789 0.55737 0.0
H289 H 0.82741 0.30338 0.64561 0.0
H290 H 0.70368 0.24447 0.61873 0.0
H291 H 0.6924 0.28223 0.64106 0.0
H292 H 0.69955 0.27635 0.57497 0.0
H293 H 0.83265 0.2677 0.71368 0.0
H294 H 0.80022 0.28027 0.75163 0.0
H295 H 0.80146 0.24097 0.7289 0.0
H296 H 0.68524 0.27403 0.79633 0.0
H297 H 0.70695 0.18308 0.73775 0.0
H298 H 0.71715 0.31782 0.7092 0.0
H299 H 0.75255 0.31311 0.74441 0.0
H300 H 0.71591 0.31816 0.77693 0.0
H301 H 0.74133 0.2011 0.63499 0.0
H302 H 0.75113 0.17469 0.68518 0.0
H303 H 0.77696 0.20651 0.66932 0.0
C304 C 0.79765 0.70587 0.9777 0.0
C305 C 0.78129 0.68754 0.01263 0.0
C306 C 0.78219 0.72867 0.9491 0.0
C307 C 0.74982 0.7335 0.95634 0.0
C308 C 0.73417 0.71776 -0.00419 0.0
C309 C 0.75009 0.69483 0.02339 0.0
C310 C 0.79983 0.74518 0.90783 0.0
C311 C 0.69983 0.72296 0.00577 0.0
C312 C 0.70259 0.79803 0.89525 0.0
C313 C 0.68618 0.78127 0.85821 0.0
C314 C 0.72494 0.78332 0.92583 0.0
C315 C 0.73122 0.75124 0.9187 0.0
C316 C 0.71689 0.73502 0.87829 0.0
C317 C 0.6944 0.7502 0.84866 0.0
C318 C 0.73981 0.8015 0.96825 0.0
C319 C 0.7236 0.70094 0.86859 0.0
H320 H 0.82185 0.70054 0.96929 0.0
H321 H 0.7374 0.68101 0.05072 0.0
H322 H 0.79418 0.73406 0.8712 0.0
H323 H 0.79288 0.77006 0.90533 0.0
H324 H 0.82552 0.74383 0.91364 0.0
H325 H 0.69227 0.71228 0.04182 0.0
H326 H 0.69442 0.74827 0.00681 0.0
H327 H 0.68588 0.71248 0.97482 0.0
H328 H 0.69644 0.82211 0.90285 0.0
H329 H 0.68201 0.73719 0.81986 0.0
H330 H 0.76501 0.79582 0.97187 0.0
H331 H 0.72838 0.79507 0.0042 0.0
H332 H 0.73727 0.82708 0.96287 0.0
H333 H 0.74917 0.69674 0.86756 0.0
H334 H 0.7132 0.6927 0.83262 0.0
H335 H 0.71385 0.68669 0.89968 0.0
C336 C 0.24587 0.69392 0.09512 0.0
C337 C 0.21498 0.68387 0.10125 0.0
C338 C 0.25969 0.71433 0.12988 0.0
C339 C 0.24228 0.72456 0.17212 0.0
C340 C 0.21026 0.71673 0.17602 0.0
C341 C 0.19689 0.69661 0.14024 0.0
C342 C 0.29369 0.72291 0.12349 0.0
C343 C 0.19084 0.72723 0.22024 0.0
C344 C 0.2973 0.73532 0.28181 0.0
C345 C 0.30404 0.76721 0.27812 0.0
C346 C 0.27475 0.72152 0.25053 0.0
C347 C 0.25888 0.74007 0.21449 0.0
C348 C 0.26299 0.77279 0.21472 0.0
C349 C 0.28537 0.78605 0.24694 0.0
C350 C 0.27024 0.68661 0.25264 0.0
C351 C 0.24631 0.79346 0.17738 0.0
H352 H 0.25986 0.68433 0.06485 0.0
H353 H 0.17297 0.68891 0.14531 0.0
H354 H 0.29701 0.7484 0.12848 0.0
H355 H 0.30787 0.71096 0.1527 0.0
H356 H 0.30281 0.71611 0.08594 0.0
H357 H 0.16541 0.72499 0.21245 0.0
H358 H 0.19655 0.71253 0.25335 0.0
H359 H 0.19604 0.75178 0.23044 0.0
H360 H 0.31134 0.72068 0.30625 0.0
H361 H 0.2902 0.81081 0.2441 0.0
H362 H 0.28152 0.67569 0.21944 0.0
H363 H 0.24502 0.68064 0.25133 0.0
H364 H 0.28063 0.67631 0.28717 0.0
H365 H 0.25804 0.79157 0.1403 0.0
H366 H 0.24677 0.81833 0.1892 0.0
H367 H 0.22166 0.7861 0.17228 0.0
C368 C 0.44071 0.92614 0.25322 0.0
C369 C 0.42218 0.90631 0.28265 0.0
C370 C 0.43969 0.95858 0.25982 0.0
C371 C 0.41996 0.97145 0.29716 0.0
C372 C 0.40081 0.95164 0.32642 0.0
C373 C 0.40201 0.91929 0.3186 0.0
C374 C 0.46015 0.97905 0.22744 0.0
C375 C 0.37971 0.96454 0.36688 0.0
C376 C 0.44404 0.05078 0.34698 0.0
C377 C 0.42384 0.0707 0.32058 0.0
C378 C 0.4424 0.01835 0.34073 0.0
C379 C 0.42032 0.00557 0.30677 0.0
C380 C 0.39943 0.02547 0.28078 0.0
C381 C 0.4013 0.05782 0.28826 0.0
C382 C 0.46477 -0.0022 0.36968 0.0
C383 C 0.37577 0.01267 0.24392 0.0
H384 H 0.45619 0.9163 0.22514 0.0
H385 H 0.38769 0.90413 0.34162 0.0
H386 H 0.44578 0.99711 0.20844 0.0
H387 H 0.47749 0.9914 0.25133 0.0
H388 H 0.47293 0.96552 0.19834 0.0
H389 H 0.36545 0.94608 0.38511 0.0
H390 H 0.39398 0.97629 0.3962 0.0
H391 H 0.36374 0.98233 0.3508 0.0
H392 H 0.46137 0.06056 0.37227 0.0
H393 H 0.3857 0.07308 0.26756 0.0
H394 H 0.4805 0.98548 0.34314 0.0
H395 H 0.45164 0.97973 0.39075 0.0
H396 H 0.47932 0.01127 0.3967 0.0
H397 H 0.38805 0.00103 0.21231 0.0
H398 H 0.36037 0.03116 0.2283 0.0
H399 H 0.36098 0.99479 0.26238 0.0
C400 C 0.93733 0.45597 0.59014 0.0
C401 C 0.92059 0.43431 0.56112 0.0
C402 C 0.97013 0.45594 0.59055 0.0
C403 C 0.98647 0.43422 0.56029 0.0
C404 C 0.96968 0.4123 0.53093 0.0
C405 C 0.93692 0.41239 0.53215 0.0
C406 C 0.98728 0.47921 0.62316 0.0
C407 C 0.9863 0.38918 0.49743 0.0
C408 C 0.06892 0.45407 0.51928 0.0
C409 C 0.08683 0.4343 0.54989 0.0
C410 C 0.03623 0.4544 0.52252 0.0
C411 C 0.02114 0.43497 0.55799 0.0
C412 C 0.03912 0.41559 0.58999 0.0
C413 C 0.07178 0.41522 0.58516 0.0
C414 C 0.0178 0.47496 0.48711 0.0
C415 C 0.02384 0.39507 0.62899 0.0
H416 H 0.92477 0.47277 0.61295 0.0
H417 H 0.92406 0.39572 0.50945 0.0
H418 H 0.00384 0.46688 0.64845 0.0
H419 H 0.00126 0.49514 0.59926 0.0
H420 H 0.97112 0.49343 0.64646 0.0
H421 H 0.96978 0.37367 0.47701 0.0
H422 H 0.00074 0.40182 0.46942 0.0
H423 H 0.00236 0.37451 0.5201 0.0
H424 H 0.08043 0.46872 0.49172 0.0
H425 H 0.08556 0.40008 0.60917 0.0
H426 H 0.0028 0.4912 0.50879 0.0
H427 H 0.00212 0.46038 0.46351 0.0
H428 H 0.03313 0.48886 0.46197 0.0
H429 H 0.00846 0.40927 0.65357 0.0
H430 H 0.04124 0.38277 0.6529 0.0
H431 H 0.00889 0.37739 0.61022 0.0
C432 C 0.5532 0.94481 0.84796 0.0
C433 C 0.57336 0.92427 0.82287 0.0
C434 C 0.5552 0.9771 0.8404 0.0
C435 C 0.5776 0.98907 0.80638 0.0
C436 C 0.59851 0.96854 0.78183 0.0
C437 C 0.59629 0.93636 0.79066 0.0
C438 C 0.53284 -0.00164 0.86791 0.0
C439 C 0.62249 0.98047 0.74493 0.0
C440 C 0.55753 0.0675 0.74901 0.0
C441 C 0.57584 0.08784 0.77806 0.0
C442 C 0.55863 0.03517 0.75685 0.0
C443 C 0.57819 0.02297 0.79508 0.0
C444 C 0.59721 0.04328 0.82382 0.0
C445 C 0.59596 0.07548 0.81474 0.0
C446 C 0.53833 0.01414 0.72495 0.0
C447 C 0.61812 0.0311 0.86523 0.0
H448 H 0.53557 0.93563 0.87317 0.0
H449 H 0.61185 0.92059 0.77095 0.0
H450 H 0.54597 0.01681 0.88825 0.0
H451 H 0.51725 0.01017 0.84049 0.0
H452 H 0.51812 0.98553 0.89537 0.0
H453 H 0.63798 0.96161 0.73079 0.0
H454 H 0.61048 0.99138 0.71236 0.0
H455 H 0.63716 -0.00126 0.76275 0.0
H456 H 0.5421 0.07686 0.72038 0.0
H457 H 0.61011 0.09105 0.83748 0.0
H458 H 0.52071 0.00242 0.74897 0.0
H459 H 0.55274 0.99561 0.70733 0.0
H460 H 0.52589 0.02712 0.6948 0.0
H461 H 0.60366 0.02017 0.89501 0.0
H462 H 0.63251 0.04982 0.88259 0.0
H463 H 0.63394 0.01279 0.85039 0.0
C464 C 0.93317 0.57941 0.03774 0.0
C465 C 0.91741 0.56163 0.00138 0.0
C466 C 0.96585 0.57889 0.04117 0.0
C467 C 0.98322 0.56063 0.00675 0.0
C468 C 0.96751 0.54328 0.96907 0.0
C469 C 0.93472 0.54371 0.96717 0.0
C470 C 0.98176 0.59727 0.08243 0.0
C471 C 0.98532 0.52405 0.9311 0.0
C472 C 0.0693 0.58077 -0.00448 0.0
C473 C 0.08306 0.55769 0.02566 0.0
C474 C 0.03686 0.58145 0.98769 0.0
C475 C 0.01776 0.55891 0.01147 0.0
C476 C 0.03156 0.53541 0.04157 0.0
C477 C 0.06409 0.5349 0.04789 0.0
C478 C 0.02299 0.60648 0.95452 0.0
C479 C 0.01189 0.5113 0.06825 0.0
H480 H 0.91989 0.59315 0.06447 0.0
H481 H 0.92264 0.53012 0.93874 0.0
H482 H 0.99513 0.58124 0.10717 0.0
H483 H -0.00129 0.61396 0.066 0.0
H484 H 0.96486 0.61051 0.10589 0.0
H485 H 0.9697 0.51335 0.90244 0.0
H486 H 0.00284 0.5388 0.91163 0.0
H487 H -0.00171 0.50516 0.95055 0.0
H488 H 0.08391 0.59828 0.9779 0.0
H489 H 0.07459 0.51711 0.07145 0.0
H490 H 0.00771 0.62194 0.97718 0.0
H491 H 0.00818 0.59574 0.92488 0.0
H492 H 0.04121 0.62099 0.9362 0.0
H493 H 0.9957 0.52303 0.09479 0.0
H494 H 0.02631 0.49428 0.08962 0.0
H495 H 0.99735 0.49833 0.04068 0.0
C496 C 0.49273 0.19326 0.92717 0.0
C497 C 0.52203 0.20682 0.9179 0.0
C498 C 0.47979 0.1932 0.97535 0.0
C499 C 0.49623 0.20766 0.01516 0.0
C500 C 0.52498 0.22296 0.00567 0.0
C501 C 0.53783 0.222 0.95709 0.0
C502 C 0.44953 0.17585 0.98414 0.0
C503 C 0.54274 0.23922 0.04722 0.0
C504 C 0.45147 0.21667 0.13765 0.0
C505 C 0.46293 0.19116 0.16483 0.0
C506 C 0.46279 0.22306 0.08913 0.0
C507 C 0.4853 0.20291 0.06741 0.0
C508 C 0.4963 0.17674 0.09454 0.0
C509 C 0.48523 0.17143 0.14313 0.0
C510 C 0.45108 0.25149 0.06143 0.0
C511 C 0.51957 0.15413 0.07213 0.0
H512 H 0.48039 0.18136 0.89711 0.0
H513 H 0.5603 0.23279 0.94992 0.0
H514 H 0.45412 0.155 0.00776 0.0
H515 H 0.43267 0.19073 0.00479 0.0
H516 H 0.43845 0.16804 0.94846 0.0
H517 H 0.56213 0.25378 0.03241 0.0
H518 H 0.52679 0.25424 0.0695 0.0
H519 H 0.55275 0.2216 0.07321 0.0
H520 H 0.43454 0.23213 0.15493 0.0
H521 H 0.49397 0.15162 0.16429 0.0
H522 H 0.43929 0.24438 0.02604 0.0
H523 H 0.47109 0.26658 0.05088 0.0
H524 H 0.43442 0.26539 0.0843 0.0
H525 H 0.51001 0.14402 0.03687 0.0
H526 H 0.5254 0.13474 0.09821 0.0
H527 H 0.54147 0.16653 0.06233 0.0
C528 C 0.77821 0.49018 0.15905 0.0
C529 C 0.79461 0.51826 0.15304 0.0
C530 C 0.77581 0.47593 0.20626 0.0
C531 C 0.79086 0.48976 0.24807 0.0
C532 C 0.80698 0.51844 0.2424 0.0
C533 C 0.80832 0.5326 0.19491 0.0
C534 C 0.75763 0.4459 0.21126 0.0
C535 C 0.82366 0.53364 0.28614 0.0
C536 C 0.76989 0.47205 0.38291 0.0
C537 C 0.79414 0.45187 0.39678 0.0
C538 C 0.76728 0.48295 0.33348 0.0
C539 C 0.79013 0.4742 0.2978 0.0
C540 C 0.81376 0.4525 0.31108 0.0
C541 C 0.81525 0.44124 0.36058 0.0
C542 C 0.74119 0.50525 0.32033 0.0
C543 C 0.83879 0.443 0.27414 0.0
H544 H 0.76741 0.4792 0.12661 0.0
H545 H 0.82123 0.55415 0.19011 0.0
H546 H 0.77359 0.42668 0.22231 0.0
H547 H 0.73983 0.44816 0.24135 0.0
H548 H 0.74568 0.43926 0.17568 0.0
H549 H 0.83536 0.55577 0.27529 0.0
H550 H 0.80684 0.53868 0.31679 0.0
H551 H 0.84152 0.51746 0.30154 0.0
H552 H 0.75367 0.48025 0.41131 0.0
H553 H 0.83425 0.42601 0.37186 0.0
H554 H 0.72988 0.4983 0.28443 0.0
H555 H 0.75087 0.52903 0.31505 0.0
H556 H 0.72309 0.50628 0.35019 0.0
H557 H 0.82813 0.43493 0.23837 0.0
H558 H 0.85399 0.42415 0.28915 0.0
H559 H 0.85362 0.4635 0.26523 0.0
C560 C 0.51765 0.82494 0.64214 0.0
C561 C 0.537 0.80357 0.66693 0.0
C562 C 0.50692 0.81913 0.59341 0.0
C563 C 0.51515 0.79084 0.56939 0.0
C564 C 0.53501 0.76923 0.59405 0.0
C565 C 0.5461 0.77608 0.64263 0.0
C566 C 0.48656 0.84323 0.56783 0.0
C567 C 0.54372 0.73863 0.56972 0.0
C568 C 0.45988 0.77317 0.46177 0.0
C569 C 0.47671 0.78519 0.42102 0.0
C570 C 0.47314 0.77251 0.51014 0.0
C571 C 0.50352 0.78485 0.51778 0.0
C572 C 0.52107 0.79566 0.47639 0.0
C573 C 0.50757 0.79541 0.4285 0.0
C574 C 0.45407 0.76012 0.55345 0.0
C575 C 0.55323 0.80969 0.4831 0.0
H576 H 0.51071 0.84622 0.66121 0.0
H577 H 0.56069 0.75941 0.6624 0.0
H578 H 0.49714 0.85026 0.53148 0.0
H579 H 0.46325 0.83314 0.55943 0.0
H580 H 0.48326 0.86445 0.59125 0.0
H581 H 0.5597 0.72457 0.59366 0.0
H582 H 0.52228 0.72482 0.56221 0.0
H583 H 0.55517 0.74282 0.53295 0.0
H584 H 0.43619 0.76489 0.4561 0.0
H585 H 0.52084 0.80473 0.39724 0.0
H586 H 0.4461 0.77984 0.57725 0.0
H587 H 0.4685 0.74459 0.57748 0.0
H588 H 0.43317 0.74703 0.54033 0.0
H589 H 0.55121 0.83225 0.50338 0.0
H590 H 0.56504 0.81399 0.44657 0.0
H591 H 0.56826 0.79422 0.50618 0.0
C592 C 0.25115 0.5167 0.9012 0.0
C593 C 0.22739 0.53876 0.90825 0.0
C594 C 0.25677 0.50388 0.85364 0.0
C595 C 0.2374 0.51268 0.81294 0.0
C596 C 0.21515 0.53691 0.81911 0.0
C597 C 0.21067 0.55001 0.86689 0.0
C598 C 0.28157 0.47907 0.84805 0.0
C599 C 0.19393 0.54681 0.77656 0.0
C600 C 0.24899 0.48903 0.67741 0.0
C601 C 0.22786 0.46415 0.67328 0.0
C602 C 0.25425 0.50372 0.72372 0.0
C603 C 0.23716 0.49384 0.76622 0.0
C604 C 0.2173 0.46742 0.76285 0.0
C605 C 0.21321 0.45257 0.71631 0.0
C606 C 0.27656 0.53096 0.72635 0.0
C607 C 0.19852 0.45629 0.80743 0.0
H608 H 0.26408 0.50814 0.9335 0.0
H609 H 0.1921 0.56684 0.87273 0.0
H610 H 0.27036 0.45573 0.84747 0.0
H611 H 0.29443 0.48191 0.81214 0.0
H612 H 0.29858 0.47965 0.87968 0.0
H613 H 0.17991 0.56778 0.78629 0.0
H614 H 0.20772 0.5519 0.74227 0.0
H615 H 0.17765 0.52746 0.76729 0.0
H616 H 0.2605 0.49778 0.64395 0.0
H617 H 0.19671 0.43347 0.71286 0.0
H618 H 0.29112 0.52973 0.76089 0.0
H619 H 0.2631 0.55306 0.7279 0.0
H620 H 0.2922 0.53185 0.69306 0.0
H621 H 0.21409 0.45193 0.84006 0.0
H622 H 0.18533 0.43456 0.79909 0.0
H623 H 0.18164 0.47466 0.8187 0.0
loop_
_geom_bond_atom_site_label_1
_geom_bond_atom_site_label_2
_geom_bond_distance
_geom_bond_site_symmetry_2
_ccdc_geom_bond_type
C0 O1 1.306 . S
C0 O3 1.160 . S
O1 C0 1.306 . S
O1 Cd2 2.228 . S
Cd2 O1 2.228 . S
Cd2 O6 2.273 . S
Cd2 O10 2.277 . S
O3 C0 1.160 . S
O3 Cd4 2.203 . S
Cd4 O3 2.203 . S
Cd4 O6 2.411 . S
Cd4 O7 2.333 . S
Cd4 O8 2.352 . S
Cd4 O12 2.277 . S
Cd4 O13 2.356 . S
C5 O10 1.209 . S
C5 O12 1.226 . S
O6 Cd2 2.273 . S
O6 Cd4 2.411 . S
O6 C9 1.320 . S
O7 Cd4 2.333 . S
O7 C9 1.214 . S
O8 Cd4 2.352 . S
O8 C11 1.258 . S
C9 O6 1.320 . S
C9 O7 1.214 . S
O10 Cd2 2.277 . S
O10 C5 1.209 . S
C11 O8 1.258 . S
C11 O13 1.282 . S
O12 Cd4 2.277 . S
O12 C5 1.226 . S
O13 Cd4 2.356 . S
O13 C11 1.282 . S
C14 O15 1.306 . S
C14 O17 1.160 . S
O15 C14 1.306 . S
O15 Cd16 2.228 . S
Cd16 O15 2.228 . S
Cd16 O20 2.273 . S
Cd16 O24 2.277 . S
O17 C14 1.160 . S
O17 Cd18 2.203 . S
Cd18 O17 2.203 . S
Cd18 O20 2.411 . S
Cd18 O21 2.333 . S
Cd18 O22 2.352 . S
Cd18 O26 2.277 . S
Cd18 O27 2.356 . S
C19 O24 1.209 . S
C19 O26 1.226 . S
O20 Cd16 2.273 . S
O20 Cd18 2.411 . S
O20 C23 1.320 . S
O21 Cd18 2.333 . S
O21 C23 1.214 . S
O22 Cd18 2.352 . S
O22 C25 1.258 . S
C23 O20 1.320 . S
C23 O21 1.214 . S
O24 Cd16 2.277 . S
O24 C19 1.209 . S
C25 O22 1.258 . S
C25 O27 1.282 . S
O26 Cd18 2.277 . S
O26 C19 1.226 . S
O27 Cd18 2.356 . S
O27 C25 1.282 . S
C28 O29 1.306 . S
C28 O31 1.160 . S
O29 C28 1.306 . S
O29 Cd30 2.228 . S
Cd30 O29 2.228 . S
Cd30 O34 2.273 . S
Cd30 O38 2.277 . S
O31 C28 1.160 . S
O31 Cd32 2.203 . S
Cd32 O31 2.203 . S
Cd32 O34 2.411 . S
Cd32 O35 2.333 . S
Cd32 O36 2.352 . S
Cd32 O40 2.277 . S
Cd32 O41 2.356 . S
C33 O38 1.209 . S
C33 O40 1.226 . S
O34 Cd30 2.273 . S
O34 Cd32 2.411 . S
O34 C37 1.320 . S
O35 Cd32 2.333 . S
O35 C37 1.214 . S
O36 Cd32 2.352 . S
O36 C39 1.258 . S
C37 O34 1.320 . S
C37 O35 1.214 . S
O38 Cd30 2.277 . S
O38 C33 1.209 . S
C39 O36 1.258 . S
C39 O41 1.282 . S
O40 Cd32 2.277 . S
O40 C33 1.226 . S
O41 Cd32 2.356 . S
O41 C39 1.282 . S
C42 O43 1.306 1_556 S
C42 O45 1.160 . S
O43 C42 1.306 1_554 S
O43 Cd44 2.228 . S
Cd44 O43 2.228 . S
Cd44 O48 2.273 . S
Cd44 O52 2.277 . S
O45 C42 1.160 . S
O45 Cd46 2.203 1_556 S
Cd46 O45 2.203 1_554 S
Cd46 O48 2.411 . S
Cd46 O49 2.333 . S
Cd46 O50 2.352 . S
Cd46 O54 2.277 . S
Cd46 O55 2.356 . S
C47 O52 1.209 . S
C47 O54 1.226 . S
O48 Cd44 2.273 . S
O48 Cd46 2.411 . S
O48 C51 1.320 . S
O49 Cd46 2.333 . S
O49 C51 1.214 . S
O50 Cd46 2.352 . S
O50 C53 1.258 . S
C51 O48 1.320 . S
C51 O49 1.214 . S
O52 Cd44 2.277 . S
O52 C47 1.209 . S
C53 O50 1.258 . S
C53 O55 1.282 . S
O54 Cd46 2.277 . S
O54 C47 1.226 . S
O55 Cd46 2.356 . S
O55 C53 1.282 . S
C56 O57 1.306 . S
C56 O59 1.160 . S
O57 C56 1.306 . S
O57 Cd58 2.228 . S
Cd58 O57 2.228 . S
Cd58 O62 2.273 . S
Cd58 O66 2.277 . S
O59 C56 1.160 . S
O59 Cd60 2.203 . S
Cd60 O59 2.203 . S
Cd60 O62 2.411 . S
Cd60 O63 2.333 . S
Cd60 O64 2.352 . S
Cd60 O68 2.277 . S
Cd60 O69 2.356 . S
C61 O66 1.209 . S
C61 O68 1.226 . S
O62 Cd58 2.273 . S
O62 Cd60 2.411 . S
O62 C65 1.320 . S
O63 Cd60 2.333 . S
O63 C65 1.214 . S
O64 Cd60 2.352 . S
O64 C67 1.258 . S
C65 O62 1.320 . S
C65 O63 1.214 . S
O66 Cd58 2.277 . S
O66 C61 1.209 . S
C67 O64 1.258 . S
C67 O69 1.282 . S
O68 Cd60 2.277 . S
O68 C61 1.226 . S
O69 Cd60 2.356 . S
O69 C67 1.282 . S
C70 O71 1.306 . S
C70 O73 1.160 . S
O71 C70 1.306 . S
O71 Cd72 2.228 . S
Cd72 O71 2.228 . S
Cd72 O76 2.273 . S
Cd72 O80 2.277 . S
O73 C70 1.160 . S
O73 Cd74 2.203 . S
Cd74 O73 2.203 . S
Cd74 O76 2.411 . S
Cd74 O77 2.333 . S
Cd74 O78 2.352 . S
Cd74 O82 2.277 . S
Cd74 O83 2.356 . S
C75 O80 1.209 . S
C75 O82 1.226 . S
O76 Cd72 2.273 . S
O76 Cd74 2.411 . S
O76 C79 1.320 . S
O77 Cd74 2.333 . S
O77 C79 1.214 . S
O78 Cd74 2.352 . S
O78 C81 1.258 . S
C79 O76 1.320 . S
C79 O77 1.214 . S
O80 Cd72 2.277 . S
O80 C75 1.209 . S
C81 O78 1.258 . S
C81 O83 1.282 . S
O82 Cd74 2.277 . S
O82 C75 1.226 . S
O83 Cd74 2.356 . S
O83 C81 1.282 . S
C84 O85 1.306 . S
C84 O87 1.160 . S
O85 C84 1.306 . S
O85 Cd86 2.228 . S
Cd86 O85 2.228 . S
Cd86 O90 2.273 . S
Cd86 O94 2.277 . S
O87 C84 1.160 . S
O87 Cd88 2.203 . S
Cd88 O87 2.203 . S
Cd88 O90 2.411 . S
Cd88 O91 2.333 . S
Cd88 O92 2.352 . S
Cd88 O96 2.277 . S
Cd88 O97 2.356 . S
C89 O94 1.209 . S
C89 O96 1.226 . S
O90 Cd86 2.273 . S
O90 Cd88 2.411 . S
O90 C93 1.320 . S
O91 Cd88 2.333 . S
O91 C93 1.214 . S
O92 Cd88 2.352 . S
O92 C95 1.258 . S
C93 O90 1.320 . S
C93 O91 1.214 . S
O94 Cd86 2.277 . S
O94 C89 1.209 . S
C95 O92 1.258 . S
C95 O97 1.282 . S
O96 Cd88 2.277 . S
O96 C89 1.226 . S
O97 Cd88 2.356 . S
O97 C95 1.282 . S
C98 O99 1.306 . S
C98 O101 1.160 . S
O99 C98 1.306 . S
O99 Cd100 2.228 . S
Cd100 O99 2.228 . S
Cd100 O104 2.273 1_554 S
Cd100 O108 2.277 . S
O101 C98 1.160 . S
O101 Cd102 2.203 . S
Cd102 O101 2.203 . S
Cd102 O104 2.411 1_554 S
Cd102 O105 2.333 1_554 S
Cd102 O106 2.352 . S
Cd102 O110 2.277 . S
Cd102 O111 2.356 . S
C103 O108 1.209 . S
C103 O110 1.226 . S
O104 Cd100 2.273 1_556 S
O104 Cd102 2.411 1_556 S
O104 C107 1.320 . S
O105 Cd102 2.333 1_556 S
O105 C107 1.214 . S
O106 Cd102 2.352 . S
O106 C109 1.258 . S
C107 O104 1.320 . S
C107 O105 1.214 . S
O108 Cd100 2.277 . S
O108 C103 1.209 . S
C109 O106 1.258 . S
C109 O111 1.282 . S
O110 Cd102 2.277 . S
O110 C103 1.226 . S
O111 Cd102 2.356 . S
O111 C109 1.282 . S
C112 C113 1.391 . S
C112 C114 1.394 . S
C112 H128 0.931 . S
C113 C112 1.391 . S
C113 C117 1.376 . S
C114 C112 1.394 . S
C114 C115 1.369 . S
C114 C118 1.531 . S
C115 C114 1.369 . S
C115 C116 1.410 . S
C115 C123 1.503 . S
C116 C115 1.410 . S
C116 C117 1.392 . S
C116 C119 1.511 . S
C117 C113 1.376 . S
C117 C116 1.392 . S
C117 H129 0.929 . S
C118 C114 1.531 . S
C118 H130 0.960 . S
C118 H131 0.962 . S
C118 H132 0.960 . S
C119 C116 1.511 . S
C119 H133 0.961 . S
C119 H134 0.961 . S
C119 H135 0.961 . S
C120 C121 1.370 . S
C120 C122 1.363 . S
C120 H136 0.931 . S
C121 C120 1.370 . S
C121 C125 1.408 . S
C122 C120 1.363 . S
C122 C123 1.370 . S
C122 C126 1.524 . S
C123 C115 1.503 . S
C123 C122 1.370 . S
C123 C124 1.403 . S
C124 C123 1.403 . S
C124 C125 1.404 . S
C124 C127 1.539 . S
C125 C121 1.408 . S
C125 C124 1.404 . S
C125 H137 0.930 . S
C126 C122 1.524 . S
C126 H138 0.956 . S
C126 H139 0.961 . S
C126 H140 0.961 . S
C127 C124 1.539 . S
C127 H141 0.958 . S
C127 H142 0.961 . S
C127 H143 0.960 . S
H128 C112 0.931 . S
H129 C117 0.929 . S
H130 C118 0.960 . S
H131 C118 0.962 . S
H132 C118 0.960 . S
H133 C119 0.961 . S
H134 C119 0.961 . S
H135 C119 0.961 . S
H136 C120 0.931 . S
H137 C125 0.930 . S
H138 C126 0.956 . S
H139 C126 0.961 . S
H140 C126 0.961 . S
H141 C127 0.958 . S
H142 C127 0.961 . S
H143 C127 0.960 . S
C144 C145 1.391 . S
C144 C146 1.394 . S
C144 H160 0.931 . S
C145 C144 1.391 . S
C145 C149 1.376 . S
C146 C144 1.394 . S
C146 C147 1.369 . S
C146 C150 1.531 . S
C147 C146 1.369 . S
C147 C148 1.410 . S
C147 C155 1.503 . S
C148 C147 1.410 . S
C148 C149 1.392 . S
C148 C151 1.511 . S
C149 C145 1.376 . S
C149 C148 1.392 . S
C149 H161 0.929 . S
C150 C146 1.531 . S
C150 H162 0.960 . S
C150 H163 0.962 . S
C150 H164 0.960 . S
C151 C148 1.511 . S
C151 H165 0.961 . S
C151 H166 0.961 . S
C151 H167 0.961 . S
C152 C153 1.370 . S
C152 C154 1.363 . S
C152 H168 0.931 . S
C153 C152 1.370 . S
C153 C157 1.408 . S
C154 C152 1.363 . S
C154 C155 1.370 . S
C154 C158 1.524 . S
C155 C147 1.503 . S
C155 C154 1.370 . S
C155 C156 1.403 . S
C156 C155 1.403 . S
C156 C157 1.404 . S
C156 C159 1.539 . S
C157 C153 1.408 . S
C157 C156 1.404 . S
C157 H169 0.930 . S
C158 C154 1.524 . S
C158 H170 0.956 . S
C158 H171 0.961 . S
C158 H172 0.961 . S
C159 C156 1.539 . S
C159 H173 0.958 . S
C159 H174 0.961 . S
C159 H175 0.960 . S
H160 C144 0.931 . S
H161 C149 0.929 . S
H162 C150 0.960 . S
H163 C150 0.962 . S
H164 C150 0.960 . S
H165 C151 0.961 . S
H166 C151 0.961 . S
H167 C151 0.961 . S
H168 C152 0.931 . S
H169 C157 0.930 . S
H170 C158 0.956 . S
H171 C158 0.961 . S
H172 C158 0.961 . S
H173 C159 0.958 . S
H174 C159 0.961 . S
H175 C159 0.960 . S
C176 C177 1.391 . S
C176 C178 1.394 . S
C176 H192 0.931 . S
C177 C176 1.391 . S
C177 C181 1.376 . S
C178 C176 1.394 . S
C178 C179 1.369 . S
C178 C182 1.531 . S
C179 C178 1.369 . S
C179 C180 1.410 . S
C179 C187 1.503 . S
C180 C179 1.410 . S
C180 C181 1.392 . S
C180 C183 1.511 . S
C181 C177 1.376 . S
C181 C180 1.392 . S
C181 H193 0.929 . S
C182 C178 1.531 . S
C182 H194 0.960 . S
C182 H195 0.962 . S
C182 H196 0.960 . S
C183 C180 1.511 . S
C183 H197 0.961 . S
C183 H198 0.961 . S
C183 H199 0.961 . S
C184 C185 1.370 . S
C184 C186 1.375 . S
C184 H200 0.931 . S
C185 C184 1.370 . S
C185 C189 1.408 . S
C186 C184 1.375 . S
C186 C187 1.363 1_556 S
C186 C190 1.521 1_556 S
C187 C179 1.503 . S
C187 C186 1.363 1_554 S
C187 C188 1.403 . S
C188 C187 1.403 . S
C188 C189 1.404 1_554 S
C188 C191 1.539 . S
C189 C185 1.408 . S
C189 C188 1.404 1_556 S
C189 H201 0.930 . S
C190 C186 1.521 1_554 S
C190 H202 0.956 . S
C190 H203 0.961 . S
C190 H204 0.961 1_554 S
C191 C188 1.539 . S
C191 H205 0.958 . S
C191 H206 0.961 . S
C191 H207 0.960 . S
H192 C176 0.931 . S
H193 C181 0.929 . S
H194 C182 0.960 . S
H195 C182 0.962 . S
H196 C182 0.960 . S
H197 C183 0.961 . S
H198 C183 0.961 . S
H199 C183 0.961 . S
H200 C184 0.931 . S
H201 C189 0.930 . S
H202 C190 0.956 . S
H203 C190 0.961 . S
H204 C190 0.961 1_556 S
H205 C191 0.958 . S
H206 C191 0.961 . S
H207 C191 0.960 . S
C208 C209 1.391 . S
C208 C210 1.394 . S
C208 H224 0.931 . S
C209 C208 1.391 . S
C209 C213 1.376 . S
C210 C208 1.394 . S
C210 C211 1.369 . S
C210 C214 1.531 . S
C211 C210 1.369 . S
C211 C212 1.410 . S
C211 C219 1.503 . S
C212 C211 1.410 . S
C212 C213 1.392 . S
C212 C215 1.511 . S
C213 C209 1.376 . S
C213 C212 1.392 . S
C213 H225 0.929 . S
C214 C210 1.531 . S
C214 H226 0.960 . S
C214 H227 0.962 . S
C214 H228 0.960 . S
C215 C212 1.511 . S
C215 H229 0.961 . S
C215 H230 0.961 . S
C215 H231 0.961 . S
C216 C217 1.370 . S
C216 C218 1.363 . S
C216 H232 0.931 . S
C217 C216 1.370 . S
C217 C221 1.408 . S
C218 C216 1.363 . S
C218 C219 1.370 . S
C218 C222 1.524 . S
C219 C211 1.503 . S
C219 C218 1.370 . S
C219 C220 1.403 . S
C220 C219 1.403 . S
C220 C221 1.404 . S
C220 C223 1.539 . S
C221 C217 1.408 . S
C221 C220 1.404 . S
C221 H233 0.930 . S
C222 C218 1.524 . S
C222 H234 0.956 . S
C222 H235 0.961 . S
C222 H236 0.961 . S
C223 C220 1.539 . S
C223 H237 0.958 . S
C223 H238 0.961 . S
C223 H239 0.960 . S
H224 C208 0.931 . S
H225 C213 0.929 . S
H226 C214 0.960 . S
H227 C214 0.962 . S
H228 C214 0.960 . S
H229 C215 0.961 . S
H230 C215 0.961 . S
H231 C215 0.961 . S
H232 C216 0.931 . S
H233 C221 0.930 . S
H234 C222 0.956 . S
H235 C222 0.961 . S
H236 C222 0.961 . S
H237 C223 0.958 . S
H238 C223 0.961 . S
H239 C223 0.960 . S
C240 C241 1.391 . S
C240 C242 1.394 . S
C240 H256 0.931 . S
C241 C240 1.391 . S
C241 C245 1.376 . S
C242 C240 1.394 . S
C242 C243 1.369 . S
C242 C246 1.531 . S
C243 C242 1.369 . S
C243 C244 1.410 . S
C243 C251 1.503 . S
C244 C243 1.410 . S
C244 C245 1.392 . S
C244 C247 1.511 . S
C245 C241 1.376 . S
C245 C244 1.392 . S
C245 H257 0.929 . S
C246 C242 1.531 . S
C246 H258 0.960 . S
C246 H259 0.962 . S
C246 H260 0.960 . S
C247 C244 1.511 . S
C247 H261 0.961 . S
C247 H262 0.961 . S
C247 H263 0.961 . S
C248 C249 1.370 . S
C248 C250 1.363 . S
C248 H264 0.931 . S
C249 C248 1.370 . S
C249 C253 1.408 . S
C250 C248 1.363 . S
C250 C251 1.370 . S
C250 C254 1.524 . S
C251 C243 1.503 . S
C251 C250 1.370 . S
C251 C252 1.403 . S
C252 C251 1.403 . S
C252 C253 1.404 . S
C252 C255 1.539 . S
C253 C249 1.408 . S
C253 C252 1.404 . S
C253 H265 0.930 . S
C254 C250 1.524 . S
C254 H266 0.956 . S
C254 H267 0.961 . S
C254 H268 0.961 . S
C255 C252 1.539 . S
C255 H269 0.958 . S
C255 H270 0.961 . S
C255 H271 0.960 . S
H256 C240 0.931 . S
H257 C245 0.929 . S
H258 C246 0.960 . S
H259 C246 0.962 . S
H260 C246 0.960 . S
H261 C247 0.961 . S
H262 C247 0.961 . S
H263 C247 0.961 . S
H264 C248 0.931 . S
H265 C253 0.930 . S
H266 C254 0.956 . S
H267 C254 0.961 . S
H268 C254 0.961 . S
H269 C255 0.958 . S
H270 C255 0.961 . S
H271 C255 0.960 . S
C272 C273 1.391 . S
C272 C274 1.394 . S
C272 H288 0.931 . S
C273 C272 1.391 . S
C273 C277 1.376 . S
C274 C272 1.394 . S
C274 C275 1.369 . S
C274 C278 1.531 . S
C275 C274 1.369 . S
C275 C276 1.410 . S
C275 C283 1.503 . S
C276 C275 1.410 . S
C276 C277 1.392 . S
C276 C279 1.511 . S
C277 C273 1.376 . S
C277 C276 1.392 . S
C277 H289 0.929 . S
C278 C274 1.531 . S
C278 H290 0.960 . S
C278 H291 0.962 . S
C278 H292 0.960 . S
C279 C276 1.511 . S
C279 H293 0.961 . S
C279 H294 0.961 . S
C279 H295 0.961 . S
C280 C281 1.370 . S
C280 C282 1.363 . S
C280 H296 0.931 . S
C281 C280 1.370 . S
C281 C285 1.408 . S
C282 C280 1.363 . S
C282 C283 1.370 . S
C282 C286 1.524 . S
C283 C275 1.503 . S
C283 C282 1.370 . S
C283 C284 1.403 . S
C284 C283 1.403 . S
C284 C285 1.404 . S
C284 C287 1.539 . S
C285 C281 1.408 . S
C285 C284 1.404 . S
C285 H297 0.930 . S
C286 C282 1.524 . S
C286 H298 0.956 . S
C286 H299 0.961 . S
C286 H300 0.961 . S
C287 C284 1.539 . S
C287 H301 0.958 . S
C287 H302 0.961 . S
C287 H303 0.960 . S
H288 C272 0.931 . S
H289 C277 0.929 . S
H290 C278 0.960 . S
H291 C278 0.962 . S
H292 C278 0.960 . S
H293 C279 0.961 . S
H294 C279 0.961 . S
H295 C279 0.961 . S
H296 C280 0.931 . S
H297 C285 0.930 . S
H298 C286 0.956 . S
H299 C286 0.961 . S
H300 C286 0.961 . S
H301 C287 0.958 . S
H302 C287 0.961 . S
H303 C287 0.960 . S
C304 C305 1.391 . S
C304 C306 1.394 . S
C304 H320 0.931 1_556 S
C305 C304 1.391 . S
C305 C309 1.376 . S
C306 C304 1.394 . S
C306 C307 1.369 . S
C306 C310 1.531 . S
C307 C306 1.369 . S
C307 C308 1.410 . S
C307 C315 1.503 . S
C308 C307 1.410 . S
C308 C309 1.392 . S
C308 C311 1.511 . S
C309 C305 1.376 . S
C309 C308 1.392 . S
C309 H321 0.929 . S
C310 C306 1.531 . S
C310 H322 0.960 . S
C310 H323 0.962 . S
C310 H324 0.960 . S
C311 C308 1.511 . S
C311 H325 0.961 . S
C311 H326 0.961 . S
C311 H327 0.961 . S
C312 C313 1.370 . S
C312 C314 1.363 . S
C312 H328 0.931 . S
C313 C312 1.370 . S
C313 C317 1.408 . S
C314 C312 1.363 . S
C314 C315 1.370 . S
C314 C318 1.524 . S
C315 C307 1.503 . S
C315 C314 1.370 . S
C315 C316 1.403 . S
C316 C315 1.403 . S
C316 C317 1.404 . S
C316 C319 1.539 . S
C317 C313 1.408 . S
C317 C316 1.404 . S
C317 H329 0.930 . S
C318 C314 1.524 . S
C318 H330 0.956 1_556 S
C318 H331 0.961 . S
C318 H332 0.955 1_556 S
C319 C316 1.539 . S
C319 H333 0.958 . S
C319 H334 0.961 . S
C319 H335 0.960 . S
H320 C304 0.931 1_554 S
H321 C309 0.929 . S
H322 C310 0.960 . S
H323 C310 0.962 . S
H324 C310 0.960 . S
H325 C311 0.961 . S
H326 C311 0.961 . S
H327 C311 0.961 . S
H328 C312 0.931 . S
H329 C317 0.930 . S
H330 C318 0.956 1_554 S
H331 C318 0.961 . S
H332 C318 0.955 1_554 S
H333 C319 0.958 . S
H334 C319 0.961 . S
H335 C319 0.960 . S
C336 C337 1.391 . S
C336 C338 1.394 . S
C336 H352 0.931 . S
C337 C336 1.391 . S
C337 C341 1.376 . S
C338 C336 1.394 . S
C338 C339 1.369 . S
C338 C342 1.531 . S
C339 C338 1.369 . S
C339 C340 1.410 . S
C339 C347 1.503 . S
C340 C339 1.410 . S
C340 C341 1.392 . S
C340 C343 1.511 . S
C341 C337 1.376 . S
C341 C340 1.392 . S
C341 H353 0.929 . S
C342 C338 1.531 . S
C342 H354 0.960 . S
C342 H355 0.962 . S
C342 H356 0.960 . S
C343 C340 1.511 . S
C343 H357 0.961 . S
C343 H358 0.961 . S
C343 H359 0.961 . S
C344 C345 1.370 . S
C344 C346 1.363 . S
C344 H360 0.931 . S
C345 C344 1.370 . S
C345 C349 1.408 . S
C346 C344 1.363 . S
C346 C347 1.370 . S
C346 C350 1.524 . S
C347 C339 1.503 . S
C347 C346 1.370 . S
C347 C348 1.403 . S
C348 C347 1.403 . S
C348 C349 1.404 . S
C348 C351 1.539 . S
C349 C345 1.408 . S
C349 C348 1.404 . S
C349 H361 0.930 . S
C350 C346 1.524 . S
C350 H362 0.956 . S
C350 H363 0.961 . S
C350 H364 0.961 . S
C351 C348 1.539 . S
C351 H365 0.958 . S
C351 H366 0.961 . S
C351 H367 0.960 . S
H352 C336 0.931 . S
H353 C341 0.929 . S
H354 C342 0.960 . S
H355 C342 0.962 . S
H356 C342 0.960 . S
H357 C343 0.961 . S
H358 C343 0.961 . S
H359 C343 0.961 . S
H360 C344 0.931 . S
H361 C349 0.930 . S
H362 C350 0.956 . S
H363 C350 0.961 . S
H364 C350 0.961 . S
H365 C351 0.958 . S
H366 C351 0.961 . S
H367 C351 0.960 . S
C368 C369 1.391 . S
C368 C370 1.394 . S
C368 H384 0.931 . S
C369 C368 1.391 . S
C369 C373 1.376 . S
C370 C368 1.394 . S
C370 C371 1.369 . S
C370 C374 1.531 . S
C371 C370 1.369 . S
C371 C372 1.410 . S
C371 C379 1.503 1_565 S
C372 C371 1.410 . S
C372 C373 1.392 . S
C372 C375 1.511 . S
C373 C369 1.376 . S
C373 C372 1.392 . S
C373 H385 0.929 . S
C374 C370 1.531 . S
C374 H386 0.960 1_565 S
C374 H387 0.962 . S
C374 H388 0.960 . S
C375 C372 1.511 . S
C375 H389 0.961 . S
C375 H390 0.961 1_565 S
C375 H391 0.961 . S
C376 C377 1.370 . S
C376 C378 1.363 . S
C376 H392 0.931 . S
C377 C376 1.370 . S
C377 C381 1.408 . S
C378 C376 1.363 . S
C378 C379 1.370 . S
C378 C382 1.524 . S
C379 C371 1.503 1_545 S
C379 C378 1.370 . S
C379 C380 1.403 . S
C380 C379 1.403 . S
C380 C381 1.404 . S
C380 C383 1.539 . S
C381 C377 1.408 . S
C381 C380 1.404 . S
C381 H393 0.930 . S
C382 C378 1.524 . S
C382 H394 0.956 1_545 S
C382 H395 0.961 1_545 S
C382 H396 0.961 . S
C383 C380 1.539 . S
C383 H397 0.958 . S
C383 H398 0.961 . S
C383 H399 0.960 . S
H384 C368 0.931 . S
H385 C373 0.929 . S
H386 C374 0.960 1_545 S
H387 C374 0.962 . S
H388 C374 0.960 . S
H389 C375 0.961 . S
H390 C375 0.961 1_545 S
H391 C375 0.961 . S
H392 C376 0.931 . S
H393 C381 0.930 . S
H394 C382 0.956 1_565 S
H395 C382 0.961 1_565 S
H396 C382 0.961 . S
H397 C383 0.958 . S
H398 C383 0.961 . S
H399 C383 0.960 . S
C400 C401 1.391 . S
C400 C402 1.394 . S
C400 H416 0.931 . S
C401 C400 1.391 . S
C401 C405 1.376 . S
C402 C400 1.394 . S
C402 C403 1.369 . S
C402 C406 1.531 . S
C403 C402 1.369 . S
C403 C404 1.410 . S
C403 C411 1.503 1_655 S
C404 C403 1.410 . S
C404 C405 1.392 . S
C404 C407 1.511 . S
C405 C401 1.376 . S
C405 C404 1.392 . S
C405 H417 0.929 . S
C406 C402 1.531 . S
C406 H418 0.960 1_655 S
C406 H419 0.962 . S
C406 H420 0.960 . S
C407 C404 1.511 . S
C407 H421 0.961 . S
C407 H422 0.961 1_655 S
C407 H423 0.961 . S
C408 C409 1.370 . S
C408 C410 1.363 . S
C408 H424 0.931 . S
C409 C408 1.370 . S
C409 C413 1.408 . S
C410 C408 1.363 . S
C410 C411 1.370 . S
C410 C414 1.524 . S
C411 C403 1.503 1_455 S
C411 C410 1.370 . S
C411 C412 1.403 . S
C412 C411 1.403 . S
C412 C413 1.404 . S
C412 C415 1.539 . S
C413 C409 1.408 . S
C413 C412 1.404 . S
C413 H425 0.930 . S
C414 C410 1.524 . S
C414 H426 0.956 . S
C414 H427 0.961 1_455 S
C414 H428 0.961 . S
C415 C412 1.539 . S
C415 H429 0.958 . S
C415 H430 0.961 . S
C415 H431 0.960 1_455 S
H416 C400 0.931 . S
H417 C405 0.929 . S
H418 C406 0.960 1_455 S
H419 C406 0.962 . S
H420 C406 0.960 . S
H421 C407 0.961 . S
H422 C407 0.961 1_455 S
H423 C407 0.961 . S
H424 C408 0.931 . S
H425 C413 0.930 . S
H426 C414 0.956 . S
H427 C414 0.961 1_655 S
H428 C414 0.961 . S
H429 C415 0.958 . S
H430 C415 0.961 . S
H431 C415 0.960 1_655 S
C432 C433 1.391 . S
C432 C434 1.394 . S
C432 H448 0.931 . S
C433 C432 1.391 . S
C433 C437 1.376 . S
C434 C432 1.394 . S
C434 C435 1.369 . S
C434 C438 1.531 . S
C435 C434 1.369 . S
C435 C436 1.410 . S
C435 C443 1.503 1_565 S
C436 C435 1.410 . S
C436 C437 1.392 . S
C436 C439 1.511 . S
C437 C433 1.376 . S
C437 C436 1.392 . S
C437 H449 0.929 . S
C438 C434 1.531 . S
C438 H450 0.960 1_565 S
C438 H451 0.962 . S
C438 H452 0.960 . S
C439 C436 1.511 . S
C439 H453 0.961 . S
C439 H454 0.961 1_565 S
C439 H455 0.961 . S
C440 C441 1.370 . S
C440 C442 1.363 . S
C440 H456 0.931 . S
C441 C440 1.370 . S
C441 C445 1.408 . S
C442 C440 1.363 . S
C442 C443 1.370 . S
C442 C446 1.524 . S
C443 C435 1.503 1_545 S
C443 C442 1.370 . S
C443 C444 1.403 . S
C444 C443 1.403 . S
C444 C445 1.404 . S
C444 C447 1.539 . S
C445 C441 1.408 . S
C445 C444 1.404 . S
C445 H457 0.930 . S
C446 C442 1.524 . S
C446 H458 0.969 . S
C446 H459 0.961 1_545 S
C446 H460 0.961 . S
C447 C444 1.539 . S
C447 H461 0.958 . S
C447 H462 0.961 . S
C447 H463 0.960 . S
H448 C432 0.931 . S
H449 C437 0.929 . S
H450 C438 0.960 1_545 S
H451 C438 0.962 . S
H452 C438 0.960 . S
H453 C439 0.961 . S
H454 C439 0.961 1_545 S
H455 C439 0.961 . S
H456 C440 0.931 . S
H457 C445 0.930 . S
H458 C446 0.969 . S
H459 C446 0.961 1_565 S
H460 C446 0.961 . S
H461 C447 0.958 . S
H462 C447 0.961 . S
H463 C447 0.960 . S
C464 C465 1.391 . S
C464 C466 1.394 . S
C464 H480 0.931 . S
C465 C464 1.391 . S
C465 C469 1.376 . S
C466 C464 1.394 . S
C466 C467 1.369 . S
C466 C470 1.531 . S
C467 C466 1.369 . S
C467 C468 1.410 . S
C467 C475 1.503 1_655 S
C468 C467 1.410 . S
C468 C469 1.392 . S
C468 C471 1.511 1_554 S
C469 C465 1.376 . S
C469 C468 1.392 . S
C469 H481 0.929 1_554 S
C470 C466 1.531 . S
C470 H482 0.932 1_655 S
C470 H483 0.962 . S
C470 H484 0.960 . S
C471 C468 1.511 1_556 S
C471 H485 0.961 . S
C471 H486 0.961 1_655 S
C471 H487 0.961 . S
C472 C473 1.370 . S
C472 C474 1.363 . S
C472 H488 0.931 . S
C473 C472 1.370 . S
C473 C477 1.408 . S
C474 C472 1.363 . S
C474 C475 1.370 . S
C474 C478 1.524 . S
C475 C467 1.503 1_455 S
C475 C474 1.370 . S
C475 C476 1.403 . S
C476 C475 1.403 . S
C476 C477 1.404 . S
C476 C479 1.539 . S
C477 C473 1.408 . S
C477 C476 1.404 . S
C477 H489 0.930 . S
C478 C474 1.524 . S
C478 H490 0.947 1_455 S
C478 H491 0.961 1_455 S
C478 H492 0.961 . S
C479 C476 1.539 . S
C479 H493 0.958 . S
C479 H494 0.961 1_554 S
C479 H495 0.960 1_554 S
H480 C464 0.931 . S
H481 C469 0.929 1_556 S
H482 C470 0.932 1_455 S
H483 C470 0.962 . S
H484 C470 0.960 . S
H485 C471 0.961 . S
H486 C471 0.961 1_455 S
H487 C471 0.961 . S
H488 C472 0.931 . S
H489 C477 0.930 . S
H490 C478 0.947 1_655 S
H491 C478 0.961 1_655 S
H492 C478 0.961 . S
H493 C479 0.958 . S
H494 C479 0.961 1_556 S
H495 C479 0.960 1_556 S
C496 C497 1.391 . S
C496 C498 1.394 . S
C496 H512 0.931 . S
C497 C496 1.391 . S
C497 C501 1.376 . S
C498 C496 1.394 . S
C498 C499 1.369 1_556 S
C498 C502 1.531 . S
C499 C498 1.369 1_554 S
C499 C500 1.410 . S
C499 C507 1.503 . S
C500 C499 1.410 . S
C500 C501 1.392 1_554 S
C500 C503 1.511 . S
C501 C497 1.376 . S
C501 C500 1.392 1_556 S
C501 H513 0.929 . S
C502 C498 1.531 . S
C502 H514 0.960 1_556 S
C502 H515 0.962 . S
C502 H516 0.960 . S
C503 C500 1.511 . S
C503 H517 0.961 . S
C503 H518 0.961 . S
C503 H519 0.961 . S
C504 C505 1.370 . S
C504 C506 1.363 . S
C504 H520 0.931 . S
C505 C504 1.370 . S
C505 C509 1.408 . S
C506 C504 1.363 . S
C506 C507 1.370 . S
C506 C510 1.524 . S
C507 C499 1.503 . S
C507 C506 1.370 . S
C507 C508 1.403 . S
C508 C507 1.403 . S
C508 C509 1.404 . S
C508 C511 1.539 . S
C509 C505 1.408 . S
C509 C508 1.404 . S
C509 H521 0.930 . S
C510 C506 1.524 . S
C510 H522 0.956 . S
C510 H523 0.961 . S
C510 H524 0.961 . S
C511 C508 1.539 . S
C511 H525 0.958 . S
C511 H526 0.961 . S
C511 H527 0.960 . S
H512 C496 0.931 . S
H513 C501 0.929 . S
H514 C502 0.960 1_554 S
H515 C502 0.962 . S
H516 C502 0.960 . S
H517 C503 0.961 . S
H518 C503 0.961 . S
H519 C503 0.961 . S
H520 C504 0.931 . S
H521 C509 0.930 . S
H522 C510 0.956 . S
H523 C510 0.961 . S
H524 C510 0.961 . S
H525 C511 0.958 . S
H526 C511 0.961 . S
H527 C511 0.960 . S
C528 C529 1.391 . S
C528 C530 1.394 . S
C528 H544 0.931 . S
C529 C528 1.391 . S
C529 C533 1.376 . S
C530 C528 1.394 . S
C530 C531 1.369 . S
C530 C534 1.531 . S
C531 C530 1.369 . S
C531 C532 1.410 . S
C531 C539 1.503 . S
C532 C531 1.410 . S
C532 C533 1.392 . S
C532 C535 1.511 . S
C533 C529 1.376 . S
C533 C532 1.392 . S
C533 H545 0.929 . S
C534 C530 1.531 . S
C534 H546 0.960 . S
C534 H547 0.962 . S
C534 H548 0.960 . S
C535 C532 1.511 . S
C535 H549 0.961 . S
C535 H550 0.961 . S
C535 H551 0.961 . S
C536 C537 1.370 . S
C536 C538 1.363 . S
C536 H552 0.931 . S
C537 C536 1.370 . S
C537 C541 1.408 . S
C538 C536 1.363 . S
C538 C539 1.370 . S
C538 C542 1.524 . S
C539 C531 1.503 . S
C539 C538 1.370 . S
C539 C540 1.403 . S
C540 C539 1.403 . S
C540 C541 1.404 . S
C540 C543 1.539 . S
C541 C537 1.408 . S
C541 C540 1.404 . S
C541 H553 0.930 . S
C542 C538 1.524 . S
C542 H554 0.956 . S
C542 H555 0.961 . S
C542 H556 0.961 . S
C543 C540 1.539 . S
C543 H557 0.958 . S
C543 H558 0.961 . S
C543 H559 0.960 . S
H544 C528 0.931 . S
H545 C533 0.929 . S
H546 C534 0.960 . S
H547 C534 0.962 . S
H548 C534 0.960 . S
H549 C535 0.961 . S
H550 C535 0.961 . S
H551 C535 0.961 . S
H552 C536 0.931 . S
H553 C541 0.930 . S
H554 C542 0.956 . S
H555 C542 0.961 . S
H556 C542 0.961 . S
H557 C543 0.958 . S
H558 C543 0.961 . S
H559 C543 0.960 . S
C560 C561 1.391 . S
C560 C562 1.394 . S
C560 H576 0.931 . S
C561 C560 1.391 . S
C561 C565 1.376 . S
C562 C560 1.394 . S
C562 C563 1.369 . S
C562 C566 1.531 . S
C563 C562 1.369 . S
C563 C564 1.410 . S
C563 C571 1.503 . S
C564 C563 1.410 . S
C564 C565 1.392 . S
C564 C567 1.511 . S
C565 C561 1.376 . S
C565 C564 1.392 . S
C565 H577 0.929 . S
C566 C562 1.531 . S
C566 H578 0.960 . S
C566 H579 0.962 . S
C566 H580 0.960 . S
C567 C564 1.511 . S
C567 H581 0.961 . S
C567 H582 0.961 . S
C567 H583 0.961 . S
C568 C569 1.370 . S
C568 C570 1.363 . S
C568 H584 0.931 . S
C569 C568 1.370 . S
C569 C573 1.408 . S
C570 C568 1.363 . S
C570 C571 1.370 . S
C570 C574 1.524 . S
C571 C563 1.503 . S
C571 C570 1.370 . S
C571 C572 1.403 . S
C572 C571 1.403 . S
C572 C573 1.404 . S
C572 C575 1.539 . S
C573 C569 1.408 . S
C573 C572 1.404 . S
C573 H585 0.930 . S
C574 C570 1.524 . S
C574 H586 0.956 . S
C574 H587 0.961 . S
C574 H588 0.961 . S
C575 C572 1.539 . S
C575 H589 0.958 . S
C575 H590 0.961 . S
C575 H591 0.960 . S
H576 C560 0.931 . S
H577 C565 0.929 . S
H578 C566 0.960 . S
H579 C566 0.962 . S
H580 C566 0.960 . S
H581 C567 0.961 . S
H582 C567 0.961 . S
H583 C567 0.961 . S
H584 C568 0.931 . S
H585 C573 0.930 . S
H586 C574 0.956 . S
H587 C574 0.961 . S
H588 C574 0.961 . S
H589 C575 0.958 . S
H590 C575 0.961 . S
H591 C575 0.960 . S
C592 C593 1.391 . S
C592 C594 1.394 . S
C592 H608 0.931 . S
C593 C592 1.391 . S
C593 C597 1.376 . S
C594 C592 1.394 . S
C594 C595 1.369 . S
C594 C598 1.531 . S
C595 C594 1.369 . S
C595 C596 1.410 . S
C595 C603 1.503 . S
C596 C595 1.410 . S
C596 C597 1.392 . S
C596 C599 1.511 . S
C597 C593 1.376 . S
C597 C596 1.392 . S
C597 H609 0.929 . S
C598 C594 1.531 . S
C598 H610 0.960 . S
C598 H611 0.962 . S
C598 H612 0.960 . S
C599 C596 1.511 . S
C599 H613 0.961 . S
C599 H614 0.961 . S
C599 H615 0.961 . S
C600 C601 1.370 . S
C600 C602 1.363 . S
C600 H616 0.931 . S
C601 C600 1.370 . S
C601 C605 1.408 . S
C602 C600 1.363 . S
C602 C603 1.370 . S
C602 C606 1.524 . S
C603 C595 1.503 . S
C603 C602 1.370 . S
C603 C604 1.403 . S
C604 C603 1.403 . S
C604 C605 1.404 . S
C604 C607 1.539 . S
C605 C601 1.408 . S
C605 C604 1.404 . S
C605 H617 0.930 . S
C606 C602 1.524 . S
C606 H618 0.956 . S
C606 H619 0.961 . S
C606 H620 0.961 . S
C607 C604 1.539 . S
C607 H621 0.958 . S
C607 H622 0.961 . S
C607 H623 0.960 . S
H608 C592 0.931 . S
H609 C597 0.929 . S
H610 C598 0.960 . S
H611 C598 0.962 . S
H612 C598 0.960 . S
H613 C599 0.961 . S
H614 C599 0.961 . S
H615 C599 0.961 . S
H616 C600 0.931 . S
H617 C605 0.930 . S
H618 C606 0.956 . S
H619 C606 0.961 . S
H620 C606 0.961 . S
H621 C607 0.958 . S
H622 C607 0.961 . S
H623 C607 0.960 . S
C113 C9 0.744 . S
C121 C93 0.703 . S
C145 C23 0.717 . S
C153 C107 0.720 . S
C177 C65 0.735 . S
C185 C37 0.706 . S
C209 C79 0.746 . S
C217 C51 0.706 . S
C241 C11 1.498 . S
C249 C81 1.520 . S
C273 C25 1.490 . S
C281 C95 1.518 . S
C305 C109 1.482 1_556 S
C313 C39 1.522 . S
C337 C53 1.533 . S
C345 C67 1.502 . S
C369 C61 1.496 . S
C377 C5 1.503 . S
C401 C19 1.505 . S
C409 C75 1.503 . S
C433 C33 1.502 . S
C441 C89 1.504 . S
C465 C103 1.491 . S
C473 C47 1.500 . S
C497 C84 1.488 . S
C505 C0 1.491 . S
C529 C98 1.476 . S
C537 C14 1.503 . S
C561 C28 1.500 . S
C569 C56 1.492 . S
C593 C42 1.473 . S
C601 C70 1.500 . S
