# Generated by pormake.
# Topology hbo, (4)-cn, num edge types: 1
# Building blocks:
#     Node 0, Type 0, BuildingBlock: KOZSID_clean_sbu_0, # of connection points: 4
#     Node 1, Type 0, BuildingBlock: KOZSID_clean_sbu_0, # of connection points: 4
#     Node 2, Type 0, BuildingBlock: KOZSID_clean_sbu_0, # of connection points: 4
#     Node 3, Type 0, BuildingBlock: KOZSID_clean_sbu_0, # of connection points: 4
#     Node 4, Type 0, BuildingBlock: KOZSID_clean_sbu_0, # of connection points: 4
#     Node 5, Type 0, BuildingBlock: KOZSID_clean_sbu_0, # of connection points: 4
#     Node 6, Type 0, BuildingBlock: KOZSID_clean_sbu_0, # of connection points: 4
#     Node 7, Type 0, BuildingBlock: KOZSID_clean_sbu_0, # of connection points: 4
#     Node 8, Type 0, BuildingBlock: KOZSID_clean_sbu_0, # of connection points: 4
#     Node 9, Type 0, BuildingBlock: KOZSID_clean_sbu_0, # of connection points: 4
#     Node 10, Type 0, BuildingBlock: KOZSID_clean_sbu_0, # of connection points: 4
#     Node 11, Type 0, BuildingBlock: KOZSID_clean_sbu_0, # of connection points: 4
#     Node 12, Type 0, BuildingBlock: KOZSID_clean_sbu_0, # of connection points: 4
#     Node 13, Type 0, BuildingBlock: KOZSID_clean_sbu_0, # of connection points: 4
#     Node 14, Type 0, BuildingBlock: KOZSID_clean_sbu_0, # of connection points: 4
#     Node 15, Type 0, BuildingBlock: KOZSID_clean_sbu_0, # of connection points: 4
#     Node 16, Type 0, BuildingBlock: KOZSID_clean_sbu_0, # of connection points: 4
#     Node 17, Type 0, BuildingBlock: KOZSID_clean_sbu_0, # of connection points: 4
#     Node 18, Type 0, BuildingBlock: KOZSID_clean_sbu_0, # of connection points: 4
#     Node 19, Type 0, BuildingBlock: KOZSID_clean_sbu_0, # of connection points: 4
#     Node 20, Type 0, BuildingBlock: KOZSID_clean_sbu_0, # of connection points: 4
#     Node 21, Type 0, BuildingBlock: KOZSID_clean_sbu_0, # of connection points: 4
#     Node 22, Type 0, BuildingBlock: KOZSID_clean_sbu_0, # of connection points: 4
#     Node 23, Type 0, BuildingBlock: KOZSID_clean_sbu_0, # of connection points: 4
#     Edge 24, Type (0, 0), BuildingBlock: EZIPEK_clean_linker_0, # of connection points: 2
#     Edge 25, Type (0, 0), BuildingBlock: EZIPEK_clean_linker_0, # of connection points: 2
#     Edge 26, Type (0, 0), BuildingBlock: EZIPEK_clean_linker_0, # of connection points: 2
#     Edge 27, Type (0, 0), BuildingBlock: EZIPEK_clean_linker_0, # of connection points: 2
#     Edge 28, Type (0, 0), BuildingBlock: EZIPEK_clean_linker_0, # of connection points: 2
#     Edge 29, Type (0, 0), BuildingBlock: EZIPEK_clean_linker_0, # of connection points: 2
#     Edge 30, Type (0, 0), BuildingBlock: EZIPEK_clean_linker_0, # of connection points: 2
#     Edge 31, Type (0, 0), BuildingBlock: EZIPEK_clean_linker_0, # of connection points: 2
#     Edge 32, Type (0, 0), BuildingBlock: EZIPEK_clean_linker_0, # of connection points: 2
#     Edge 33, Type (0, 0), BuildingBlock: EZIPEK_clean_linker_0, # of connection points: 2
#     Edge 34, Type (0, 0), BuildingBlock: EZIPEK_clean_linker_0, # of connection points: 2
#     Edge 35, Type (0, 0), BuildingBlock: EZIPEK_clean_linker_0, # of connection points: 2
#     Edge 36, Type (0, 0), BuildingBlock: EZIPEK_clean_linker_0, # of connection points: 2
#     Edge 37, Type (0, 0), BuildingBlock: EZIPEK_clean_linker_0, # of connection points: 2
#     Edge 38, Type (0, 0), BuildingBlock: EZIPEK_clean_linker_0, # of connection points: 2
#     Edge 39, Type (0, 0), BuildingBlock: EZIPEK_clean_linker_0, # of connection points: 2
#     Edge 40, Type (0, 0), BuildingBlock: EZIPEK_clean_linker_0, # of connection points: 2
#     Edge 41, Type (0, 0), BuildingBlock: EZIPEK_clean_linker_0, # of connection points: 2
#     Edge 42, Type (0, 0), BuildingBlock: EZIPEK_clean_linker_0, # of connection points: 2
#     Edge 43, Type (0, 0), BuildingBlock: EZIPEK_clean_linker_0, # of connection points: 2
#     Edge 44, Type (0, 0), BuildingBlock: EZIPEK_clean_linker_0, # of connection points: 2
#     Edge 45, Type (0, 0), BuildingBlock: EZIPEK_clean_linker_0, # of connection points: 2
#     Edge 46, Type (0, 0), BuildingBlock: EZIPEK_clean_linker_0, # of connection points: 2
#     Edge 47, Type (0, 0), BuildingBlock: EZIPEK_clean_linker_0, # of connection points: 2
#     Edge 48, Type (0, 0), BuildingBlock: EZIPEK_clean_linker_0, # of connection points: 2
#     Edge 49, Type (0, 0), BuildingBlock: EZIPEK_clean_linker_0, # of connection points: 2
#     Edge 50, Type (0, 0), BuildingBlock: EZIPEK_clean_linker_0, # of connection points: 2
#     Edge 51, Type (0, 0), BuildingBlock: EZIPEK_clean_linker_0, # of connection points: 2
#     Edge 52, Type (0, 0), BuildingBlock: EZIPEK_clean_linker_0, # of connection points: 2
#     Edge 53, Type (0, 0), BuildingBlock: EZIPEK_clean_linker_0, # of connection points: 2
#     Edge 54, Type (0, 0), BuildingBlock: EZIPEK_clean_linker_0, # of connection points: 2
#     Edge 55, Type (0, 0), BuildingBlock: EZIPEK_clean_linker_0, # of connection points: 2
#     Edge 56, Type (0, 0), BuildingBlock: EZIPEK_clean_linker_0, # of connection points: 2
#     Edge 57, Type (0, 0), BuildingBlock: EZIPEK_clean_linker_0, # of connection points: 2
#     Edge 58, Type (0, 0), BuildingBlock: EZIPEK_clean_linker_0, # of connection points: 2
#     Edge 59, Type (0, 0), BuildingBlock: EZIPEK_clean_linker_0, # of connection points: 2
#     Edge 60, Type (0, 0), BuildingBlock: EZIPEK_clean_linker_0, # of connection points: 2
#     Edge 61, Type (0, 0), BuildingBlock: EZIPEK_clean_linker_0, # of connection points: 2
#     Edge 62, Type (0, 0), BuildingBlock: EZIPEK_clean_linker_0, # of connection points: 2
#     Edge 63, Type (0, 0), BuildingBlock: EZIPEK_clean_linker_0, # of connection points: 2
#     Edge 64, Type (0, 0), BuildingBlock: EZIPEK_clean_linker_0, # of connection points: 2
#     Edge 65, Type (0, 0), BuildingBlock: EZIPEK_clean_linker_0, # of connection points: 2
#     Edge 66, Type (0, 0), BuildingBlock: EZIPEK_clean_linker_0, # of connection points: 2
#     Edge 67, Type (0, 0), BuildingBlock: EZIPEK_clean_linker_0, # of connection points: 2
#     Edge 68, Type (0, 0), BuildingBlock: EZIPEK_clean_linker_0, # of connection points: 2
#     Edge 69, Type (0, 0), BuildingBlock: EZIPEK_clean_linker_0, # of connection points: 2
#     Edge 70, Type (0, 0), BuildingBlock: EZIPEK_clean_linker_0, # of connection points: 2
#     Edge 71, Type (0, 0), BuildingBlock: EZIPEK_clean_linker_0, # of connection points: 2
# Relax obj value: 0.082
# Max RMSD: 0.325
# Mean RMSD: 0.298
data_MOF--net-hbo--node1-KOZSID_clean_sbu_0--edge1-EZIPEK_clean_linker_0
_symmetry_space_group_name_H-M    P1
_symmetry_Int_Tables_number       1
_symmetry_cell_setting            triclinic
loop_
_symmetry_equiv_pos_as_xyz
'x, y, z'
_cell_length_a     54.190537
_cell_length_b     48.553378
_cell_length_c     48.600705
_cell_angle_alpha  90.148596
_cell_angle_beta   90.564055
_cell_angle_gamma 88.367943
loop_
_atom_site_label
_atom_site_type_symbol
_atom_site_fract_x
_atom_site_fract_y
_atom_site_fract_z
_atom_type_partial_charge
C0 C 0.19036 0.34086 0.32693 0.0
C1 C 0.20066 0.33745 0.35303 0.0
C2 C 0.19985 0.36275 0.36538 0.0
C3 C 0.18934 0.38023 0.3462 0.0
N4 N 0.18333 0.36762 0.32247 0.0
Co5 Co 0.16899 0.38616 0.28909 0.0
N6 N 0.17867 0.42352 0.30227 0.0
C7 C 0.18587 0.42952 0.32818 0.0
C8 C 0.19083 0.45674 0.33221 0.0
C9 C 0.18611 0.46902 0.30743 0.0
C10 C 0.17838 0.44856 0.28956 0.0
N11 N 0.15448 0.40519 0.256 0.0
C12 C 0.15559 0.43198 0.24727 0.0
C13 C 0.14095 0.4361 0.22402 0.0
C14 C 0.12991 0.4115 0.21846 0.0
C15 C 0.1384 0.39355 0.23848 0.0
N16 N 0.15994 0.34864 0.27648 0.0
C17 C 0.1432 0.34347 0.25669 0.0
C18 C 0.14102 0.31569 0.25187 0.0
C19 C 0.15739 0.30269 0.26983 0.0
C20 C 0.16879 0.32323 0.28466 0.0
N21 N 0.136 0.39056 0.30705 0.0
C22 C 0.08396 0.3925 0.31472 0.0
C23 C 0.0982 0.36852 0.32052 0.0
C24 C 0.1241 0.36807 0.31691 0.0
C25 C 0.09674 0.41609 0.30754 0.0
C26 C 0.12257 0.41477 0.30425 0.0
N27 N 0.20071 0.38053 0.26943 0.0
C28 C 0.22058 0.3595 0.22988 0.0
C29 C 0.24399 0.36191 0.24175 0.0
C30 C 0.24534 0.37545 0.2675 0.0
C31 C 0.22346 0.38408 0.28126 0.0
C32 C 0.19961 0.36949 0.24348 0.0
H33 H 0.22486 0.39296 0.3016 0.0
H34 H 0.18227 0.36694 0.23314 0.0
H35 H 0.13422 0.3489 0.3204 0.0
H36 H 0.1314 0.43305 0.29768 0.0
C37 C 0.18966 0.40881 0.34763 0.0
C38 C 0.18669 0.31798 0.30758 0.0
C39 C 0.16793 0.45477 0.26211 0.0
C40 C 0.13346 0.36521 0.24032 0.0
H41 H 0.20829 0.31875 0.36217 0.0
H42 H 0.20739 0.36805 0.38535 0.0
H43 H 0.1972 0.4665 0.35092 0.0
H44 H 0.18738 0.49079 0.30333 0.0
H45 H 0.13791 0.45518 0.21287 0.0
H46 H 0.11723 0.40723 0.20174 0.0
H47 H 0.12965 0.30601 0.23641 0.0
H48 H 0.16058 0.28068 0.27184 0.0
H49 H 0.08926 0.34986 0.32663 0.0
H50 H 0.0867 0.43525 0.30335 0.0
H51 H 0.21838 0.34963 0.21002 0.0
H52 H 0.26309 0.37841 0.27733 0.0
C53 C 0.17193 0.6763 0.71938 0.0
C54 C 0.17808 0.67803 0.69168 0.0
C55 C 0.17283 0.65338 0.67988 0.0
C56 C 0.16449 0.63758 0.70088 0.0
N57 N 0.16398 0.65069 0.72535 0.0
Co58 Co 0.15504 0.63361 0.76111 0.0
N59 N 0.1607 0.59541 0.74636 0.0
C60 C 0.1626 0.58878 0.71953 0.0
C61 C 0.16596 0.56114 0.71472 0.0
C62 C 0.16578 0.54927 0.74008 0.0
C63 C 0.16213 0.57042 0.75906 0.0
N64 N 0.14449 0.61575 0.79582 0.0
C65 C 0.14591 0.58878 0.80418 0.0
C66 C 0.13511 0.58603 0.82971 0.0
C67 C 0.12666 0.61192 0.83745 0.0
C68 C 0.13263 0.62918 0.81626 0.0
N69 N 0.15102 0.67185 0.77534 0.0
C70 C 0.13957 0.67889 0.79878 0.0
C71 C 0.14113 0.70659 0.80449 0.0
C72 C 0.15453 0.71748 0.78331 0.0
C73 C 0.16058 0.69585 0.76577 0.0
N74 N 0.11908 0.63363 0.74919 0.0
C75 C 0.06578 0.6358 0.74613 0.0
C76 C 0.07997 0.65955 0.74339 0.0
C77 C 0.1062 0.65797 0.74424 0.0
C78 C 0.07941 0.6107 0.74847 0.0
C79 C 0.10559 0.6101 0.75043 0.0
N80 N 0.19017 0.63546 0.77548 0.0
C81 C 0.21482 0.64779 0.81581 0.0
C82 C 0.23191 0.66149 0.79983 0.0
C83 C 0.22961 0.65801 0.77106 0.0
C84 C 0.20912 0.64437 0.75944 0.0
C85 C 0.19435 0.63531 0.80352 0.0
H86 H 0.20811 0.64269 0.73736 0.0
H87 H 0.18137 0.62738 0.81769 0.0
H88 H 0.11593 0.6769 0.74205 0.0
H89 H 0.11471 0.59049 0.75411 0.0
C90 C 0.16325 0.6091 0.69957 0.0
C91 C 0.17442 0.69891 0.73953 0.0
C92 C 0.15653 0.56523 0.78808 0.0
C93 C 0.13093 0.65825 0.81635 0.0
H94 H 0.18654 0.69459 0.68085 0.0
H95 H 0.17675 0.64698 0.65898 0.0
H96 H 0.16832 0.55084 0.6951 0.0
H97 H 0.16707 0.52739 0.74396 0.0
H98 H 0.13356 0.56726 0.84146 0.0
H99 H 0.11791 0.61756 0.85665 0.0
H100 H 0.13424 0.71743 0.82244 0.0
H101 H 0.15949 0.73879 0.78112 0.0
H102 H 0.07082 0.67954 0.7411 0.0
H103 H 0.06981 0.59153 0.7501 0.0
H104 H 0.21626 0.64839 0.83805 0.0
H105 H 0.24289 0.66699 0.75748 0.0
C106 C 0.87516 0.67823 0.31393 0.0
C107 C 0.87023 0.67998 0.34189 0.0
C108 C 0.87372 0.65407 0.35229 0.0
C109 C 0.88077 0.63816 0.33025 0.0
N110 N 0.88196 0.65222 0.3065 0.0
Co111 Co 0.89587 0.63741 0.27145 0.0
N112 N 0.89086 0.59857 0.28319 0.0
C113 C 0.88687 0.5905 0.30929 0.0
C114 C 0.88619 0.56256 0.31245 0.0
C115 C 0.8904 0.55209 0.28687 0.0
C116 C 0.89332 0.57429 0.26932 0.0
N117 N 0.9109 0.62189 0.23725 0.0
C118 C 0.91169 0.59558 0.22701 0.0
C119 C 0.92547 0.59431 0.20315 0.0
C120 C 0.93389 0.6204 0.19866 0.0
C121 C 0.92488 0.6363 0.21998 0.0
N122 N 0.89981 0.67653 0.26045 0.0
C123 C 0.91369 0.6849 0.23948 0.0
C124 C 0.91023 0.71261 0.2343 0.0
C125 C 0.89329 0.72215 0.25334 0.0
C126 C 0.88748 0.69985 0.26955 0.0
N127 N 0.92968 0.6366 0.28838 0.0
C128 C 0.98124 0.64006 0.2988 0.0
C129 C 0.96487 0.66218 0.30481 0.0
C130 C 0.93928 0.65998 0.29968 0.0
C131 C 0.97093 0.6156 0.28932 0.0
C132 C 0.94532 0.61423 0.2845 0.0
N133 N 0.86303 0.63975 0.25228 0.0
C134 C 0.84123 0.65966 0.21281 0.0
C135 C 0.8188 0.65965 0.22642 0.0
C136 C 0.81836 0.64628 0.25219 0.0
C137 C 0.84079 0.63641 0.26484 0.0
C138 C 0.8627 0.64949 0.22573 0.0
H139 H 0.84033 0.62823 0.28549 0.0
H140 H 0.8793 0.65181 0.21444 0.0
H141 H 0.92747 0.67782 0.30354 0.0
H142 H 0.93851 0.5954 0.27613 0.0
C143 C 0.8834 0.60964 0.33032 0.0
C144 C 0.87227 0.70155 0.29505 0.0
C145 C 0.90191 0.57094 0.24087 0.0
C146 C 0.92568 0.6653 0.22228 0.0
H147 H 0.86443 0.69806 0.35348 0.0
H148 H 0.87075 0.64748 0.37323 0.0
H149 H 0.8836 0.55114 0.33125 0.0
H150 H 0.89282 0.5305 0.28221 0.0
H151 H 0.92947 0.57625 0.19069 0.0
H152 H 0.94484 0.62706 0.18154 0.0
H153 H 0.91815 0.7243 0.21781 0.0
H154 H 0.88626 0.74313 0.25524 0.0
H155 H 0.97191 0.68143 0.31244 0.0
H156 H 0.98275 0.59787 0.28464 0.0
H157 H 0.84248 0.66903 0.19267 0.0
H158 H 0.80122 0.64526 0.26334 0.0
C159 C 0.86835 0.34898 0.71257 0.0
C160 C 0.85552 0.35206 0.68779 0.0
C161 C 0.85792 0.37871 0.67973 0.0
C162 C 0.87147 0.39071 0.70017 0.0
N163 N 0.87804 0.37327 0.72064 0.0
Co164 Co 0.89444 0.38364 0.75598 0.0
N165 N 0.88571 0.42371 0.75071 0.0
C166 C 0.87759 0.43516 0.72693 0.0
C167 C 0.87364 0.46308 0.72832 0.0
C168 C 0.88018 0.47011 0.75448 0.0
C169 C 0.88793 0.44592 0.76766 0.0
N170 N 0.91112 0.39453 0.79106 0.0
C171 C 0.91221 0.41947 0.80427 0.0
C172 C 0.92808 0.41762 0.82677 0.0
C173 C 0.93778 0.39113 0.82715 0.0
C174 C 0.92727 0.37807 0.80501 0.0
N175 N 0.90222 0.3436 0.76064 0.0
C176 C 0.9194 0.33293 0.77797 0.0
C177 C 0.92009 0.30457 0.77754 0.0
C178 C 0.90218 0.2971 0.75881 0.0
C179 C 0.89136 0.32131 0.74883 0.0
N180 N 0.92706 0.38811 0.73729 0.0
C181 C 0.97926 0.38708 0.7293 0.0
C182 C 0.96463 0.36517 0.72049 0.0
C183 C 0.93868 0.36625 0.72426 0.0
C184 C 0.9667 0.41051 0.73958 0.0
C185 C 0.94086 0.41074 0.74297 0.0
N186 N 0.86326 0.37737 0.77626 0.0
C187 C 0.84448 0.35008 0.81174 0.0
C188 C 0.82064 0.3561 0.8018 0.0
C189 C 0.81862 0.37462 0.77936 0.0
C190 C 0.84013 0.38449 0.76651 0.0
C191 C 0.86505 0.36151 0.79954 0.0
H192 H 0.83808 0.39719 0.74837 0.0
H193 H 0.88268 0.35596 0.80839 0.0
H194 H 0.92832 0.34851 0.71823 0.0
H195 H 0.93241 0.42877 0.75194 0.0
C196 C 0.87226 0.41896 0.7042 0.0
C197 C 0.87158 0.32259 0.72734 0.0
C198 C 0.90089 0.44599 0.79438 0.0
C199 C 0.93077 0.35008 0.79753 0.0
H200 H 0.84476 0.33712 0.67684 0.0
H201 H 0.84894 0.38871 0.66228 0.0
H202 H 0.86695 0.47675 0.71216 0.0
H203 H 0.88033 0.49095 0.7624 0.0
H204 H 0.93291 0.43407 0.84073 0.0
H205 H 0.95104 0.3825 0.84177 0.0
H206 H 0.9314 0.29089 0.79027 0.0
H207 H 0.89741 0.27628 0.75332 0.0
H208 H 0.97329 0.3468 0.71181 0.0
H209 H 0.97695 0.42825 0.7461 0.0
H210 H 0.84736 0.33625 0.82901 0.0
H211 H 0.80062 0.38065 0.77119 0.0
C212 C 0.21875 0.18748 0.33347 0.0
C213 C 0.19765 0.1901 0.3171 0.0
C214 C 0.18983 0.16413 0.31216 0.0
C215 C 0.20656 0.14714 0.32556 0.0
N216 N 0.22464 0.16051 0.33877 0.0
Co217 Co 0.25282 0.14257 0.35985 0.0
N218 N 0.24526 0.10475 0.3453 0.0
C219 C 0.22503 0.09851 0.33044 0.0
C220 C 0.22357 0.07121 0.32375 0.0
C221 C 0.24396 0.05894 0.33544 0.0
C222 C 0.25685 0.07956 0.34871 0.0
N223 N 0.28045 0.12392 0.38133 0.0
C224 C 0.28883 0.09691 0.38224 0.0
C225 C 0.3072 0.09347 0.40207 0.0
C226 C 0.30982 0.11858 0.41466 0.0
C227 C 0.2931 0.13614 0.40178 0.0
N228 N 0.26017 0.18047 0.3736 0.0
C229 C 0.27537 0.18584 0.39486 0.0
C230 C 0.27679 0.21355 0.40035 0.0
C231 C 0.26134 0.22647 0.38149 0.0
C232 C 0.25129 0.20594 0.36541 0.0
N233 N 0.23132 0.13726 0.39248 0.0
C234 C 0.22072 0.13632 0.44937 0.0
C235 C 0.2154 0.15987 0.43349 0.0
C236 C 0.22032 0.1597 0.40505 0.0
C237 C 0.2282 0.11228 0.43538 0.0
C238 C 0.23283 0.11308 0.40694 0.0
N239 N 0.27573 0.14942 0.32882 0.0
C240 C 0.31396 0.17037 0.31537 0.0
C241 C 0.30696 0.17071 0.28766 0.0
C242 C 0.28429 0.15863 0.28075 0.0
C243 C 0.26888 0.14833 0.30161 0.0
C244 C 0.29852 0.15944 0.33522 0.0
H245 H 0.25118 0.14037 0.29579 0.0
H246 H 0.30488 0.16056 0.35608 0.0
H247 H 0.21722 0.17856 0.39384 0.0
H248 H 0.23952 0.09455 0.39727 0.0
C249 C 0.20781 0.11875 0.32275 0.0
C250 C 0.23178 0.21135 0.34425 0.0
C251 C 0.27802 0.07331 0.36714 0.0
C252 C 0.28951 0.16445 0.40726 0.0
H253 H 0.18883 0.20882 0.30934 0.0
H254 H 0.17435 0.15828 0.2994 0.0
H255 H 0.20913 0.06131 0.31216 0.0
H256 H 0.24815 0.03704 0.33515 0.0
H257 H 0.31688 0.07447 0.40766 0.0
H258 H 0.32227 0.12337 0.43144 0.0
H259 H 0.28796 0.22328 0.41597 0.0
H260 H 0.25754 0.24842 0.38 0.0
H261 H 0.20889 0.17875 0.44324 0.0
H262 H 0.23178 0.09332 0.44662 0.0
H263 H 0.33122 0.17919 0.32186 0.0
H264 H 0.27811 0.15811 0.2595 0.0
C265 C 0.36725 0.8086 0.83602 0.0
C266 C 0.36715 0.83671 0.83069 0.0
C267 C 0.37183 0.84951 0.85522 0.0
C268 C 0.3752 0.82856 0.87387 0.0
N269 N 0.37313 0.80336 0.86274 0.0
Co270 Co 0.38388 0.76849 0.8814 0.0
N271 N 0.37935 0.7852 0.91873 0.0
C272 C 0.37688 0.81247 0.92377 0.0
C273 C 0.37522 0.81884 0.95115 0.0
C274 C 0.37732 0.79414 0.96443 0.0
C275 C 0.38032 0.77392 0.9444 0.0
N276 N 0.39677 0.73473 0.90063 0.0
C277 C 0.39769 0.72793 0.92796 0.0
C278 C 0.40941 0.70243 0.93158 0.0
C279 C 0.4161 0.69315 0.90585 0.0
C280 C 0.40826 0.71346 0.88784 0.0
N281 N 0.38609 0.75254 0.84363 0.0
C282 C 0.39594 0.72749 0.83791 0.0
C283 C 0.38826 0.71787 0.81272 0.0
C284 C 0.37266 0.73808 0.80202 0.0
C285 C 0.37212 0.75975 0.8207 0.0
N286 N 0.41916 0.78084 0.88054 0.0
C287 C 0.4715 0.78853 0.87934 0.0
C288 C 0.45688 0.78952 0.85517 0.0
C289 C 0.43094 0.78586 0.85621 0.0
C290 C 0.45897 0.7847 0.90408 0.0
C291 C 0.43323 0.78093 0.90424 0.0
N292 N 0.34947 0.75356 0.88106 0.0
C293 C 0.32609 0.71269 0.87003 0.0
C294 C 0.30711 0.72828 0.85749 0.0
C295 C 0.30833 0.75719 0.86034 0.0
C296 C 0.32927 0.76926 0.87306 0.0
C297 C 0.34669 0.72543 0.88156 0.0
H298 H 0.3297 0.79129 0.87536 0.0
H299 H 0.36077 0.71152 0.88913 0.0
H300 H 0.4206 0.78634 0.83711 0.0
H301 H 0.42506 0.77707 0.92379 0.0
C302 C 0.3766 0.83157 0.90234 0.0
C303 C 0.35959 0.78767 0.81599 0.0
C304 C 0.38866 0.74554 0.95104 0.0
C305 C 0.40687 0.71129 0.85899 0.0
H306 H 0.3632 0.84696 0.81133 0.0
H307 H 0.37179 0.87147 0.85916 0.0
H308 H 0.37353 0.83909 0.96043 0.0
H309 H 0.37839 0.7916 0.98644 0.0
H310 H 0.4127 0.6917 0.95082 0.0
H311 H 0.42477 0.67345 0.90082 0.0
H312 H 0.39178 0.69756 0.80416 0.0
H313 H 0.36223 0.73631 0.78309 0.0
H314 H 0.46552 0.79259 0.83546 0.0
H315 H 0.46919 0.78381 0.92334 0.0
H316 H 0.32572 0.69039 0.8696 0.0
H317 H 0.29359 0.77038 0.85219 0.0
C318 C 0.71301 0.84405 0.33288 0.0
C319 C 0.69026 0.83163 0.33397 0.0
C320 C 0.68581 0.82654 0.36098 0.0
C321 C 0.70597 0.83601 0.37487 0.0
N322 N 0.72299 0.84719 0.3586 0.0
Co323 Co 0.75468 0.86395 0.37167 0.0
N324 N 0.74846 0.85425 0.41124 0.0
C325 C 0.72949 0.83955 0.42036 0.0
C326 C 0.73023 0.83445 0.44807 0.0
C327 C 0.75089 0.84693 0.45745 0.0
C328 C 0.7615 0.85919 0.43484 0.0
N329 N 0.7851 0.88252 0.3855 0.0
C330 C 0.79319 0.88805 0.41179 0.0
C331 C 0.81412 0.90373 0.41144 0.0
C332 C 0.81939 0.90825 0.3843 0.0
C333 C 0.8014 0.89518 0.36951 0.0
N334 N 0.76159 0.87115 0.3318 0.0
C335 C 0.78142 0.88412 0.32243 0.0
C336 C 0.78228 0.8852 0.2942 0.0
C337 C 0.76176 0.87186 0.28505 0.0
C338 C 0.74945 0.86332 0.30823 0.0
N339 N 0.73706 0.9009 0.37531 0.0
C340 C 0.72992 0.95896 0.3805 0.0
C341 C 0.73036 0.94617 0.35467 0.0
C342 C 0.73312 0.91733 0.35255 0.0
C343 C 0.72963 0.94171 0.40356 0.0
C344 C 0.73315 0.91294 0.40056 0.0
N345 N 0.77382 0.82829 0.36682 0.0
C346 C 0.81378 0.80391 0.36871 0.0
C347 C 0.80764 0.7876 0.34585 0.0
C348 C 0.78347 0.79047 0.33569 0.0
C349 C 0.76687 0.80995 0.34692 0.0
C350 C 0.7967 0.82398 0.37884 0.0
H351 H 0.74872 0.81043 0.3383 0.0
H352 H 0.80254 0.83636 0.39596 0.0
H353 H 0.73302 0.90895 0.33212 0.0
H354 H 0.73362 0.90098 0.41905 0.0
C355 C 0.71042 0.8325 0.40277 0.0
C356 C 0.72594 0.84841 0.30684 0.0
C357 C 0.78229 0.87776 0.43753 0.0
C358 C 0.79873 0.89485 0.34084 0.0
H359 H 0.67858 0.8255 0.31698 0.0
H360 H 0.67021 0.81607 0.36939 0.0
H361 H 0.71693 0.82362 0.46014 0.0
H362 H 0.75694 0.84774 0.47872 0.0
H363 H 0.82456 0.91092 0.42901 0.0
H364 H 0.83447 0.91989 0.3763 0.0
H365 H 0.79622 0.89448 0.28172 0.0
H366 H 0.75638 0.86876 0.26378 0.0
H367 H 0.72937 0.95847 0.3361 0.0
H368 H 0.72795 0.95058 0.42395 0.0
H369 H 0.83183 0.8016 0.37833 0.0
H370 H 0.77731 0.77748 0.31899 0.0
C371 C 0.68666 0.2115 0.83693 0.0
C372 C 0.69487 0.1843 0.83386 0.0
C373 C 0.69271 0.17206 0.85888 0.0
C374 C 0.6836 0.19237 0.87587 0.0
N375 N 0.67971 0.21683 0.8633 0.0
Co376 Co 0.66707 0.25144 0.88161 0.0
N377 N 0.67473 0.23652 0.91936 0.0
C378 C 0.68058 0.20998 0.92515 0.0
C379 C 0.68463 0.20488 0.95253 0.0
C380 C 0.68071 0.22964 0.96521 0.0
C381 C 0.67431 0.24856 0.94477 0.0
N382 N 0.65315 0.28487 0.90071 0.0
C383 C 0.65333 0.29258 0.92792 0.0
C384 C 0.63977 0.31694 0.93146 0.0
C385 C 0.6305 0.32438 0.90597 0.0
C386 C 0.63884 0.30425 0.8881 0.0
N387 N 0.66108 0.26591 0.84371 0.0
C388 C 0.64718 0.28846 0.83772 0.0
C389 C 0.64724 0.29451 0.81005 0.0
C390 C 0.66213 0.27446 0.79799 0.0
C391 C 0.67047 0.25713 0.81889 0.0
N392 N 0.63255 0.2369 0.88254 0.0
C393 C 0.57952 0.23753 0.88187 0.0
C394 C 0.59333 0.23386 0.85765 0.0
C395 C 0.61953 0.2328 0.85851 0.0
C396 C 0.59321 0.23783 0.90664 0.0
C397 C 0.61933 0.23772 0.90654 0.0
N398 N 0.70024 0.26888 0.8791 0.0
C399 C 0.72087 0.31085 0.86619 0.0
C400 C 0.74194 0.29618 0.85799 0.0
C401 C 0.74279 0.26757 0.86316 0.0
C402 C 0.7218 0.25433 0.87377 0.0
C403 C 0.7006 0.29712 0.8765 0.0
H404 H 0.72273 0.23224 0.87621 0.0
H405 H 0.68475 0.31005 0.88026 0.0
H406 H 0.62911 0.2305 0.83926 0.0
H407 H 0.62854 0.24028 0.926 0.0
C408 C 0.68346 0.19061 0.90433 0.0
C409 C 0.68562 0.23134 0.8142 0.0
C410 C 0.66451 0.27636 0.95116 0.0
C411 C 0.63684 0.30467 0.85908 0.0
H412 H 0.70219 0.1743 0.81566 0.0
H413 H 0.69856 0.15128 0.8644 0.0
H414 H 0.6897 0.18542 0.96215 0.0
H415 H 0.68144 0.23302 0.98719 0.0
H416 H 0.63658 0.32788 0.95058 0.0
H417 H 0.61944 0.34264 0.90102 0.0
H418 H 0.63806 0.31182 0.79989 0.0
H419 H 0.66624 0.2726 0.7763 0.0
H420 H 0.58396 0.23281 0.83791 0.0
H421 H 0.58373 0.23992 0.92608 0.0
H422 H 0.71948 0.33296 0.86323 0.0
H423 H 0.75905 0.25534 0.85776 0.0
C424 C 0.31946 0.83874 0.69626 0.0
C425 C 0.34492 0.83444 0.69767 0.0
C426 C 0.3531 0.83337 0.67125 0.0
C427 C 0.33243 0.83802 0.65534 0.0
N428 N 0.31162 0.84222 0.66985 0.0
Co429 Co 0.28018 0.85869 0.65459 0.0
N430 N 0.29 0.84966 0.61576 0.0
C431 C 0.31215 0.83909 0.60801 0.0
C432 C 0.31384 0.83379 0.5804 0.0
C433 C 0.29152 0.84202 0.56964 0.0
C434 C 0.27755 0.8524 0.59135 0.0
N435 N 0.25039 0.87801 0.63829 0.0
C436 C 0.24289 0.88165 0.61147 0.0
C437 C 0.22219 0.89901 0.61003 0.0
C438 C 0.21655 0.90646 0.63662 0.0
C439 C 0.23419 0.89348 0.65291 0.0
N440 N 0.27008 0.86445 0.69367 0.0
C441 C 0.24927 0.87789 0.70142 0.0
C442 C 0.24344 0.87283 0.72837 0.0
C443 C 0.2618 0.85519 0.7382 0.0
C444 C 0.27847 0.85099 0.71701 0.0
N445 N 0.29597 0.89568 0.6533 0.0
C446 C 0.29946 0.95421 0.65135 0.0
C447 C 0.29919 0.94 0.67647 0.0
C448 C 0.29831 0.91097 0.677 0.0
C449 C 0.30112 0.93798 0.62741 0.0
C450 C 0.29917 0.90906 0.62879 0.0
N451 N 0.26199 0.82319 0.65785 0.0
C452 C 0.22273 0.80553 0.67285 0.0
C453 C 0.23387 0.78188 0.68426 0.0
C454 C 0.25953 0.7782 0.67987 0.0
C455 C 0.2732 0.79908 0.66683 0.0
C456 C 0.2366 0.82478 0.65886 0.0
H457 H 0.29289 0.79605 0.66499 0.0
H458 H 0.22601 0.84171 0.65057 0.0
H459 H 0.29814 0.90134 0.69692 0.0
H460 H 0.29895 0.89805 0.60965 0.0
C461 C 0.33139 0.83586 0.62689 0.0
C462 C 0.30313 0.83623 0.72 0.0
C463 C 0.25483 0.86909 0.58689 0.0
C464 C 0.23429 0.89186 0.68183 0.0
H465 H 0.35637 0.83144 0.71583 0.0
H466 H 0.37178 0.82905 0.66445 0.0
H467 H 0.32971 0.8258 0.56928 0.0
H468 H 0.28673 0.842 0.54797 0.0
H469 H 0.21209 0.90533 0.59168 0.0
H470 H 0.20101 0.91919 0.64328 0.0
H471 H 0.2272 0.8801 0.73928 0.0
H472 H 0.26279 0.84661 0.7587 0.0
H473 H 0.29883 0.95131 0.69571 0.0
H474 H 0.30233 0.94774 0.60748 0.0
H475 H 0.20306 0.80947 0.67494 0.0
H476 H 0.26915 0.75984 0.68742 0.0
C477 C 0.68617 0.81608 0.1828 0.0
C478 C 0.69744 0.84142 0.18406 0.0
C479 C 0.69853 0.85092 0.15775 0.0
C480 C 0.68816 0.83088 0.14189 0.0
N481 N 0.68042 0.80922 0.1564 0.0
Co482 Co 0.66571 0.77524 0.14056 0.0
N483 N 0.67673 0.78421 0.10237 0.0
C484 C 0.68633 0.80827 0.09462 0.0
C485 C 0.69343 0.80885 0.0677 0.0
C486 C 0.68749 0.78378 0.05739 0.0
C487 C 0.67666 0.76936 0.07847 0.0
N488 N 0.65063 0.7417 0.12392 0.0
C489 C 0.65112 0.73126 0.09758 0.0
C490 C 0.63595 0.70886 0.09529 0.0
C491 C 0.62507 0.70566 0.12047 0.0
C492 C 0.63421 0.72613 0.13693 0.0
N493 N 0.65543 0.7666 0.17883 0.0
C494 C 0.63848 0.74811 0.1854 0.0
C495 C 0.63515 0.74622 0.21336 0.0
C496 C 0.65095 0.76478 0.22503 0.0
C497 C 0.66316 0.77701 0.20357 0.0
N498 N 0.63322 0.79528 0.13452 0.0
C499 C 0.58119 0.80562 0.1324 0.0
C500 C 0.59527 0.81256 0.15571 0.0
C501 C 0.62114 0.80763 0.15622 0.0
C502 C 0.59422 0.79609 0.10926 0.0
C503 C 0.62008 0.79158 0.11062 0.0
N504 N 0.69698 0.75371 0.14836 0.0
C505 C 0.71545 0.71422 0.17226 0.0
C506 C 0.73916 0.72467 0.17052 0.0
C507 C 0.7414 0.74967 0.15598 0.0
C508 C 0.7201 0.76404 0.14546 0.0
C509 C 0.69506 0.7285 0.16074 0.0
H510 H 0.7223 0.78375 0.13568 0.0
H511 H 0.67746 0.71936 0.16316 0.0
H512 H 0.63105 0.81218 0.17496 0.0
H513 H 0.6292 0.78352 0.09276 0.0
C514 C 0.69023 0.82918 0.11354 0.0
C515 C 0.68073 0.79972 0.20724 0.0
C516 C 0.66352 0.74364 0.07351 0.0
C517 C 0.62899 0.73055 0.16501 0.0
H518 H 0.70463 0.85186 0.20197 0.0
H519 H 0.70726 0.86942 0.15086 0.0
H520 H 0.70214 0.8254 0.05693 0.0
H521 H 0.69049 0.77707 0.03655 0.0
H522 H 0.63242 0.6968 0.07698 0.0
H523 H 0.61191 0.69032 0.12602 0.0
H524 H 0.62323 0.73241 0.22407 0.0
H525 H 0.65317 0.76897 0.24678 0.0
H526 H 0.58622 0.8206 0.17392 0.0
H527 H 0.58436 0.79109 0.09049 0.0
H528 H 0.71257 0.69499 0.18285 0.0
H529 H 0.75937 0.75849 0.15357 0.0
C530 C 0.71601 0.1938 0.68664 0.0
C531 C 0.69346 0.20815 0.68781 0.0
C532 C 0.6855 0.21175 0.66145 0.0
C533 C 0.70362 0.19981 0.64566 0.0
N534 N 0.72275 0.18861 0.66012 0.0
Co535 Co 0.75286 0.16974 0.6438 0.0
N536 N 0.74336 0.18171 0.60529 0.0
C537 C 0.72241 0.19562 0.59811 0.0
C538 C 0.72057 0.20209 0.57079 0.0
C539 C 0.74155 0.19134 0.55947 0.0
C540 C 0.75501 0.17866 0.58062 0.0
N541 N 0.78129 0.14906 0.62635 0.0
C542 C 0.78842 0.14647 0.59933 0.0
C543 C 0.80838 0.12819 0.59707 0.0
C544 C 0.81387 0.11894 0.62321 0.0
C545 C 0.79699 0.13197 0.64011 0.0
N546 N 0.76259 0.16004 0.68252 0.0
C547 C 0.78163 0.14307 0.68947 0.0
C548 C 0.78496 0.14092 0.71749 0.0
C549 C 0.76686 0.15764 0.72894 0.0
C550 C 0.75335 0.16917 0.70731 0.0
N551 N 0.73459 0.13418 0.63997 0.0
C552 C 0.72924 0.07557 0.63678 0.0
C553 C 0.728 0.08988 0.66197 0.0
C554 C 0.72967 0.11891 0.66298 0.0
C555 C 0.72998 0.09209 0.61301 0.0
C556 C 0.73293 0.12093 0.61502 0.0
N557 N 0.77365 0.20356 0.64941 0.0
C558 C 0.81543 0.2194 0.65848 0.0
C559 C 0.80691 0.24184 0.67414 0.0
C560 C 0.7811 0.24591 0.67534 0.0
C561 C 0.76495 0.22683 0.66288 0.0
C562 C 0.79887 0.20134 0.6459 0.0
H563 H 0.74548 0.23092 0.66512 0.0
H564 H 0.80745 0.1851 0.63424 0.0
H565 H 0.72853 0.12852 0.68291 0.0
H566 H 0.7354 0.13196 0.59619 0.0
C567 C 0.70479 0.20248 0.61745 0.0
C568 C 0.73075 0.18696 0.71126 0.0
C569 C 0.77681 0.16092 0.57528 0.0
C570 C 0.79623 0.13046 0.66898 0.0
H571 H 0.68395 0.21615 0.7057 0.0
H572 H 0.66909 0.22305 0.65456 0.0
H573 H 0.70557 0.21302 0.56027 0.0
H574 H 0.74591 0.1919 0.53785 0.0
H575 H 0.81796 0.12226 0.57844 0.0
H576 H 0.82865 0.10467 0.62919 0.0
H577 H 0.79895 0.12875 0.72835 0.0
H578 H 0.76367 0.16072 0.75069 0.0
H579 H 0.72652 0.07862 0.68106 0.0
H580 H 0.72994 0.08253 0.59285 0.0
H581 H 0.83509 0.2155 0.65617 0.0
H582 H 0.77336 0.26338 0.68652 0.0
C583 C 0.36816 0.21028 0.18066 0.0
C584 C 0.35732 0.18486 0.17771 0.0
C585 C 0.35793 0.17854 0.15035 0.0
C586 C 0.36906 0.20034 0.13821 0.0
N587 N 0.37571 0.22008 0.1561 0.0
Co588 Co 0.39317 0.25445 0.14664 0.0
N589 N 0.38443 0.25074 0.1067 0.0
C590 C 0.37451 0.22849 0.09474 0.0
C591 C 0.36968 0.23162 0.06722 0.0
C592 C 0.37744 0.25731 0.06103 0.0
C593 C 0.38695 0.26835 0.08522 0.0
N594 N 0.41179 0.28781 0.13643 0.0
C595 C 0.41412 0.30091 0.11174 0.0
C596 C 0.43138 0.32136 0.11371 0.0
C597 C 0.44047 0.32071 0.14022 0.0
C598 C 0.42835 0.29992 0.15305 0.0
N599 N 0.40024 0.2582 0.18681 0.0
C600 C 0.41699 0.27486 0.19799 0.0
C601 C 0.41672 0.27447 0.2263 0.0
C602 C 0.39865 0.25639 0.23327 0.0
C603 C 0.38888 0.2466 0.20882 0.0
N604 N 0.42491 0.23291 0.14165 0.0
C605 C 0.4769 0.22358 0.1416 0.0
C606 C 0.46267 0.21636 0.16435 0.0
C607 C 0.43674 0.22063 0.16375 0.0
C608 C 0.46413 0.23228 0.11784 0.0
C609 C 0.4383 0.23633 0.11817 0.0
N610 N 0.36288 0.27769 0.15319 0.0
C611 C 0.34616 0.31776 0.17732 0.0
C612 C 0.32248 0.30742 0.17654 0.0
C613 C 0.31883 0.28322 0.16107 0.0
C614 C 0.33935 0.26858 0.14957 0.0
C615 C 0.36584 0.30277 0.16576 0.0
H616 H 0.33632 0.24921 0.13928 0.0
H617 H 0.38371 0.31105 0.16899 0.0
H618 H 0.42661 0.21582 0.18204 0.0
H619 H 0.42957 0.24425 0.09988 0.0
C620 C 0.36893 0.20544 0.11012 0.0
C621 C 0.37051 0.22449 0.20704 0.0
C622 C 0.40202 0.29304 0.0855 0.0
C623 C 0.43004 0.2929 0.18117 0.0
H624 H 0.3493 0.17243 0.19356 0.0
H625 H 0.3499 0.16093 0.14033 0.0
H626 H 0.36163 0.2169 0.05324 0.0
H627 H 0.37725 0.26629 0.04067 0.0
H628 H 0.4372 0.33485 0.09746 0.0
H629 H 0.45421 0.33394 0.14908 0.0
H630 H 0.4278 0.28648 0.24026 0.0
H631 H 0.39348 0.25071 0.25391 0.0
H632 H 0.47161 0.20876 0.18296 0.0
H633 H 0.4742 0.23731 0.09947 0.0
H634 H 0.34977 0.33663 0.18843 0.0
H635 H 0.30061 0.27475 0.15942 0.0
C636 C 0.83727 0.65933 0.78267 0.0
C637 C 0.81799 0.65448 0.76447 0.0
C638 C 0.82839 0.64845 0.73947 0.0
C639 C 0.85343 0.64956 0.74371 0.0
N640 N 0.85964 0.65497 0.77008 0.0
Co641 Co 0.89429 0.66112 0.78327 0.0
N642 N 0.91014 0.64933 0.74769 0.0
C643 C 0.89769 0.64357 0.72437 0.0
C644 C 0.91286 0.63468 0.70345 0.0
C645 C 0.93643 0.63491 0.71415 0.0
C646 C 0.9345 0.64418 0.74105 0.0
N647 N 0.92876 0.66902 0.79636 0.0
C648 C 0.95136 0.66456 0.78471 0.0
C649 C 0.97009 0.67525 0.8009 0.0
C650 C 0.95919 0.68607 0.82376 0.0
C651 C 0.93453 0.68171 0.82016 0.0
N652 N 0.8793 0.67137 0.81991 0.0
C653 C 0.89193 0.68094 0.84183 0.0
C654 C 0.87759 0.68778 0.86389 0.0
C655 C 0.85411 0.68301 0.85551 0.0
C656 C 0.85534 0.67319 0.8286 0.0
N657 N 0.89789 0.62159 0.79535 0.0
C658 C 0.90358 0.56418 0.8077 0.0
C659 C 0.9132 0.5845 0.82535 0.0
C660 C 0.91022 0.61301 0.81878 0.0
C661 C 0.8909 0.57344 0.78427 0.0
C662 C 0.88827 0.60164 0.77861 0.0
N663 N 0.88919 0.70007 0.76906 0.0
C664 C 0.85926 0.73829 0.76587 0.0
C665 C 0.86445 0.74288 0.73809 0.0
C666 C 0.88508 0.72824 0.72757 0.0
C667 C 0.89732 0.7074 0.7434 0.0
C668 C 0.87198 0.71757 0.78094 0.0
H669 H 0.91272 0.69668 0.734 0.0
H670 H 0.86657 0.71545 0.80188 0.0
H671 H 0.91807 0.62794 0.83253 0.0
H672 H 0.87856 0.60684 0.76008 0.0
C673 C 0.87174 0.64492 0.72377 0.0
C674 C 0.83327 0.67089 0.81074 0.0
C675 C 0.95634 0.64978 0.75888 0.0
C676 C 0.91685 0.68615 0.84012 0.0
H677 H 0.79843 0.65653 0.76856 0.0
H678 H 0.81878 0.64431 0.72035 0.0
H679 H 0.90744 0.62839 0.68294 0.0
H680 H 0.95319 0.62941 0.70327 0.0
H681 H 0.9897 0.67485 0.7969 0.0
H682 H 0.96828 0.69515 0.84137 0.0
H683 H 0.88337 0.69685 0.88319 0.0
H684 H 0.83803 0.68832 0.86753 0.0
H685 H 0.92314 0.57842 0.84389 0.0
H686 H 0.88307 0.55876 0.77005 0.0
H687 H 0.84472 0.75018 0.77591 0.0
H688 H 0.89125 0.7322 0.70687 0.0
C689 C 0.88615 0.32963 0.28627 0.0
C690 C 0.89448 0.30535 0.27401 0.0
C691 C 0.91246 0.31234 0.25557 0.0
C692 C 0.914 0.34056 0.25712 0.0
N693 N 0.898 0.35161 0.27527 0.0
Co694 Co 0.89062 0.39183 0.27986 0.0
N695 N 0.90795 0.40262 0.24563 0.0
C696 C 0.92423 0.38607 0.23224 0.0
C697 C 0.93524 0.39917 0.21072 0.0
C698 C 0.92573 0.42576 0.21099 0.0
C699 C 0.90941 0.4276 0.23274 0.0
N700 N 0.8814 0.43169 0.28467 0.0
C701 C 0.88216 0.45322 0.26687 0.0
C702 C 0.87109 0.47672 0.27821 0.0
C703 C 0.86476 0.47038 0.30445 0.0
C704 C 0.87163 0.44322 0.30752 0.0
N705 N 0.87464 0.382 0.31514 0.0
C706 C 0.86947 0.39956 0.3359 0.0
C707 C 0.86167 0.38689 0.3593 0.0
C708 C 0.86177 0.35948 0.35296 0.0
C709 C 0.86935 0.35715 0.32582 0.0
N710 N 0.92281 0.39635 0.29984 0.0
C711 C 0.97455 0.3962 0.31083 0.0
C712 C 0.96183 0.41991 0.30122 0.0
C713 C 0.93614 0.41963 0.29615 0.0
C714 C 0.96027 0.37348 0.31744 0.0
C715 C 0.93452 0.37416 0.31232 0.0
N716 N 0.85982 0.3855 0.25793 0.0
C717 C 0.81559 0.37903 0.25347 0.0
C718 C 0.81896 0.3625 0.22973 0.0
C719 C 0.84276 0.36009 0.21937 0.0
C720 C 0.86251 0.37184 0.2333 0.0
C721 C 0.83632 0.39051 0.26721 0.0
H722 H 0.88024 0.3681 0.22445 0.0
H723 H 0.83349 0.40169 0.28624 0.0
H724 H 0.92743 0.43785 0.28766 0.0
H725 H 0.92445 0.35593 0.31699 0.0
C726 C 0.92636 0.35771 0.23866 0.0
C727 C 0.86899 0.33141 0.31019 0.0
C728 C 0.89728 0.45391 0.2419 0.0
C729 C 0.86795 0.42772 0.33106 0.0
H730 H 0.8884 0.28474 0.27807 0.0
H731 H 0.92234 0.29856 0.24174 0.0
H732 H 0.94842 0.3904 0.19635 0.0
H733 H 0.93069 0.44216 0.19725 0.0
H734 H 0.86837 0.49668 0.26884 0.0
H735 H 0.85607 0.48392 0.31945 0.0
H736 H 0.85542 0.39651 0.3782 0.0
H737 H 0.85601 0.34317 0.36639 0.0
H738 H 0.97188 0.43822 0.29639 0.0
H739 H 0.96908 0.35489 0.32556 0.0
H740 H 0.79734 0.382 0.26203 0.0
H741 H 0.84633 0.34822 0.20083 0.0
C742 C 0.17665 0.31519 0.75779 0.0
C743 C 0.16682 0.29321 0.77165 0.0
C744 C 0.1518 0.30427 0.79175 0.0
C745 C 0.15317 0.33238 0.78908 0.0
N746 N 0.16812 0.33968 0.76861 0.0
Co747 Co 0.17533 0.37842 0.75835 0.0
N748 N 0.16146 0.39466 0.79312 0.0
C749 C 0.14755 0.3808 0.81095 0.0
C750 C 0.13909 0.39692 0.83233 0.0
C751 C 0.14761 0.42278 0.82737 0.0
C752 C 0.16067 0.4212 0.80302 0.0
N753 N 0.18322 0.41717 0.74768 0.0
C754 C 0.18127 0.4416 0.76162 0.0
C755 C 0.18853 0.46338 0.74537 0.0
C756 C 0.19443 0.45267 0.72029 0.0
C757 C 0.19065 0.42503 0.72256 0.0
N758 N 0.18878 0.36279 0.72322 0.0
C759 C 0.19441 0.37736 0.7007 0.0
C760 C 0.20471 0.36172 0.68008 0.0
C761 C 0.20585 0.33552 0.69009 0.0
C762 C 0.19587 0.33658 0.71632 0.0
N763 N 0.14132 0.38254 0.74144 0.0
C764 C 0.08906 0.38391 0.73228 0.0
C765 C 0.10163 0.4075 0.74047 0.0
C766 C 0.12749 0.40643 0.74469 0.0
C767 C 0.10366 0.3602 0.72659 0.0
C768 C 0.12958 0.36008 0.73083 0.0
N769 N 0.20845 0.37266 0.77665 0.0
C770 C 0.25333 0.36735 0.77553 0.0
C771 C 0.25404 0.35329 0.80099 0.0
C772 C 0.23146 0.35062 0.81431 0.0
C773 C 0.20932 0.36064 0.80221 0.0
C774 C 0.23044 0.37654 0.76362 0.0
H775 H 0.19272 0.35741 0.81341 0.0
H776 H 0.23053 0.38608 0.74359 0.0
H777 H 0.13597 0.42482 0.75177 0.0
H778 H 0.13989 0.34122 0.72674 0.0
C779 C 0.14391 0.3524 0.80753 0.0
C780 C 0.19282 0.31207 0.73346 0.0
C781 C 0.16931 0.44598 0.78842 0.0
C782 C 0.19465 0.40588 0.70173 0.0
H783 H 0.17019 0.27151 0.76759 0.0
H784 H 0.14177 0.2931 0.80707 0.0
H785 H 0.12781 0.39071 0.84936 0.0
H786 H 0.14367 0.44107 0.83953 0.0
H787 H 0.18868 0.48499 0.75063 0.0
H788 H 0.20048 0.46377 0.70241 0.0
H789 H 0.21197 0.36878 0.66074 0.0
H790 H 0.21361 0.31781 0.67937 0.0
H791 H 0.09139 0.42651 0.74464 0.0
H792 H 0.09502 0.34156 0.71965 0.0
H793 H 0.27028 0.37047 0.7645 0.0
H794 H 0.23083 0.34042 0.83407 0.0
C795 C 0.18187 0.70708 0.27446 0.0
C796 C 0.17785 0.72659 0.25398 0.0
C797 C 0.16258 0.71502 0.23461 0.0
C798 C 0.15856 0.68874 0.24364 0.0
N799 N 0.17039 0.68306 0.26746 0.0
Co800 Co 0.17626 0.64516 0.28247 0.0
N801 N 0.1622 0.62581 0.2497 0.0
C802 C 0.14864 0.63853 0.22987 0.0
C803 C 0.14021 0.62054 0.21025 0.0
C804 C 0.1486 0.59484 0.21848 0.0
C805 C 0.1618 0.59843 0.24274 0.0
N806 N 0.18432 0.60753 0.29768 0.0
C807 C 0.18368 0.58189 0.28609 0.0
C808 C 0.19055 0.56168 0.30508 0.0
C809 C 0.19472 0.57474 0.32949 0.0
C810 C 0.19043 0.60214 0.32412 0.0
N811 N 0.18822 0.6638 0.31658 0.0
C812 C 0.1902 0.65176 0.34143 0.0
C813 C 0.19446 0.66986 0.36251 0.0
C814 C 0.19545 0.69506 0.35023 0.0
C815 C 0.19235 0.69075 0.32213 0.0
N816 N 0.14219 0.64479 0.29813 0.0
C817 C 0.09 0.64537 0.30422 0.0
C818 C 0.10366 0.6206 0.30171 0.0
C819 C 0.12948 0.62074 0.29887 0.0
C820 C 0.10329 0.66976 0.30588 0.0
C821 C 0.12928 0.669 0.3032 0.0
N822 N 0.20929 0.64712 0.26433 0.0
C823 C 0.24954 0.66821 0.26405 0.0
C824 C 0.24799 0.67257 0.23537 0.0
C825 C 0.22811 0.66107 0.22156 0.0
C826 C 0.20974 0.6479 0.23603 0.0
C827 C 0.23004 0.65539 0.2781 0.0
H828 H 0.19517 0.64035 0.22346 0.0
H829 H 0.23126 0.65349 0.30019 0.0
H830 H 0.13876 0.60124 0.2957 0.0
H831 H 0.13867 0.68829 0.30386 0.0
C832 C 0.14805 0.66747 0.22811 0.0
C833 C 0.19503 0.71238 0.30132 0.0
C834 C 0.17244 0.57515 0.25926 0.0
C835 C 0.19148 0.62321 0.34353 0.0
H836 H 0.18523 0.747 0.25294 0.0
H837 H 0.15642 0.72418 0.21537 0.0
H838 H 0.12985 0.62557 0.1917 0.0
H839 H 0.14527 0.57559 0.20799 0.0
H840 H 0.19103 0.53962 0.3021 0.0
H841 H 0.19957 0.56529 0.34903 0.0
H842 H 0.19739 0.66519 0.38408 0.0
H843 H 0.19873 0.71429 0.36076 0.0
H844 H 0.0943 0.6012 0.30067 0.0
H845 H 0.09359 0.68941 0.30828 0.0
H846 H 0.26516 0.67566 0.27564 0.0
H847 H 0.22631 0.66292 0.19941 0.0
C848 C 0.78265 0.82662 0.65675 0.0
C849 C 0.77041 0.80339 0.64815 0.0
C850 C 0.75247 0.81214 0.62957 0.0
C851 C 0.75431 0.84031 0.62804 0.0
N852 N 0.77215 0.84974 0.64463 0.0
Co853 Co 0.77803 0.88954 0.65199 0.0
N854 N 0.74717 0.90327 0.63287 0.0
C855 C 0.73395 0.88782 0.61536 0.0
C856 C 0.7154 0.90274 0.60223 0.0
C857 C 0.71737 0.92938 0.61157 0.0
C858 C 0.737 0.92939 0.63005 0.0
N859 N 0.7839 0.92915 0.66164 0.0
C860 C 0.76921 0.95235 0.6594 0.0
C861 C 0.78083 0.97518 0.67024 0.0
C862 C 0.80388 0.96648 0.67831 0.0
C863 C 0.80495 0.9389 0.67245 0.0
N864 N 0.81007 0.87706 0.66917 0.0
C865 C 0.82912 0.89339 0.67497 0.0
C866 C 0.85043 0.87936 0.68237 0.0
C867 C 0.84459 0.85227 0.68134 0.0
C868 C 0.8198 0.85144 0.67384 0.0
N869 N 0.7948 0.89288 0.61546 0.0
C870 C 0.79935 0.89265 0.55692 0.0
C871 C 0.79586 0.91736 0.57186 0.0
C872 C 0.7934 0.91698 0.60082 0.0
C873 C 0.80379 0.8687 0.57261 0.0
C874 C 0.80246 0.8695 0.60161 0.0
N875 N 0.75932 0.88381 0.68695 0.0
C876 C 0.75777 0.87172 0.73558 0.0
C877 C 0.73487 0.85868 0.73208 0.0
C878 C 0.72404 0.86056 0.70598 0.0
C879 C 0.73598 0.87358 0.68439 0.0
C880 C 0.76974 0.88396 0.71279 0.0
H881 H 0.72649 0.87325 0.66507 0.0
H882 H 0.78793 0.89208 0.7158 0.0
H883 H 0.78899 0.93607 0.61101 0.0
H884 H 0.80603 0.85046 0.61247 0.0
C885 C 0.73809 0.85896 0.61416 0.0
C886 C 0.80584 0.82609 0.67377 0.0
C887 C 0.74629 0.95494 0.64309 0.0
C888 C 0.82549 0.9217 0.67669 0.0
H889 H 0.77438 0.78228 0.65418 0.0
H890 H 0.73923 0.79949 0.61902 0.0
H891 H 0.7019 0.89516 0.58773 0.0
H892 H 0.70596 0.94692 0.6052 0.0
H893 H 0.77391 0.99629 0.67092 0.0
H894 H 0.81832 0.97892 0.68693 0.0
H895 H 0.86786 0.88784 0.68868 0.0
H896 H 0.857 0.83512 0.68636 0.0
H897 H 0.79337 0.93673 0.56105 0.0
H898 H 0.80748 0.84913 0.5625 0.0
H899 H 0.76694 0.87127 0.75547 0.0
H900 H 0.70645 0.85122 0.70191 0.0
C901 C 0.67744 0.26246 0.20441 0.0
C902 C 0.67351 0.28344 0.22345 0.0
C903 C 0.65795 0.30274 0.21118 0.0
C904 C 0.65372 0.29321 0.18496 0.0
N905 N 0.66578 0.26918 0.17995 0.0
Co906 Co 0.67126 0.25331 0.1425 0.0
N907 N 0.6569 0.28609 0.12234 0.0
C908 C 0.64315 0.30618 0.13436 0.0
C909 C 0.63426 0.32554 0.11592 0.0
C910 C 0.64256 0.31689 0.0906 0.0
C911 C 0.65621 0.2927 0.09488 0.0
N912 N 0.6786 0.23734 0.10519 0.0
C913 C 0.67769 0.2486 0.07941 0.0
C914 C 0.68404 0.2291 0.05957 0.0
C915 C 0.68825 0.20473 0.07301 0.0
C916 C 0.68448 0.21064 0.10025 0.0
N917 N 0.68369 0.21937 0.16186 0.0
C918 C 0.68561 0.19427 0.15016 0.0
C919 C 0.69012 0.17342 0.16862 0.0
C920 C 0.69128 0.18611 0.1937 0.0
C921 C 0.68804 0.21422 0.189 0.0
N922 N 0.63737 0.23791 0.1419 0.0
C923 C 0.58582 0.2283 0.14272 0.0
C924 C 0.59816 0.2327 0.11796 0.0
C925 C 0.62373 0.2373 0.118 0.0
C926 C 0.60021 0.22704 0.16689 0.0
C927 C 0.62583 0.23156 0.16601 0.0
N928 N 0.70436 0.2707 0.14492 0.0
C929 C 0.74601 0.26929 0.16428 0.0
C930 C 0.74517 0.298 0.169 0.0
C931 C 0.72456 0.31267 0.15889 0.0
C932 C 0.70493 0.29897 0.14665 0.0
C933 C 0.72549 0.25608 0.15215 0.0
H934 H 0.68959 0.31195 0.14066 0.0
H935 H 0.72633 0.23395 0.15006 0.0
H936 H 0.63214 0.24149 0.09866 0.0
H937 H 0.63605 0.23097 0.18517 0.0
C938 C 0.64275 0.30841 0.16323 0.0
C939 C 0.69047 0.23537 0.21059 0.0
C940 C 0.66705 0.27594 0.07212 0.0
C941 C 0.68615 0.19163 0.12166 0.0
H942 H 0.68108 0.28483 0.24404 0.0
H943 H 0.65169 0.32223 0.21988 0.0
H944 H 0.62365 0.3442 0.1204 0.0
H945 H 0.63891 0.32711 0.07116 0.0
H946 H 0.68429 0.23181 0.03751 0.0
H947 H 0.69293 0.18492 0.0639 0.0
H948 H 0.69293 0.15168 0.16431 0.0
H949 H 0.69462 0.17579 0.21313 0.0
H950 H 0.58792 0.2336 0.09872 0.0
H951 H 0.59158 0.22335 0.18649 0.0
H952 H 0.76195 0.25702 0.17097 0.0
H953 H 0.72315 0.33485 0.16134 0.0
C954 C 0.2538 0.20553 0.66408 0.0
C955 C 0.26617 0.22722 0.65265 0.0
C956 C 0.28299 0.21585 0.6346 0.0
C957 C 0.28 0.18785 0.63594 0.0
N958 N 0.26236 0.18085 0.65364 0.0
Co959 Co 0.2535 0.14228 0.66283 0.0
N960 N 0.28189 0.12502 0.64225 0.0
C961 C 0.29629 0.1386 0.62475 0.0
C962 C 0.31347 0.12168 0.61203 0.0
C963 C 0.30958 0.09572 0.62193 0.0
C964 C 0.29022 0.09816 0.64027 0.0
N965 N 0.24501 0.10386 0.67386 0.0
C966 C 0.25765 0.07928 0.67127 0.0
C967 C 0.24469 0.05791 0.68269 0.0
C968 C 0.22296 0.06912 0.69196 0.0
C969 C 0.22392 0.09662 0.68598 0.0
N970 N 0.22367 0.15885 0.68142 0.0
C971 C 0.20436 0.14476 0.69064 0.0
C972 C 0.18639 0.16103 0.70261 0.0
C973 C 0.19478 0.18718 0.70108 0.0
C974 C 0.21745 0.18543 0.68796 0.0
N975 N 0.2341 0.13947 0.6278 0.0
C976 C 0.22298 0.1385 0.57067 0.0
C977 C 0.22875 0.11419 0.58509 0.0
C978 C 0.23396 0.1151 0.6135 0.0
C979 C 0.22024 0.16287 0.58607 0.0
C980 C 0.22537 0.1628 0.6146 0.0
N981 N 0.27452 0.14655 0.69686 0.0
C982 C 0.28078 0.17269 0.73898 0.0
C983 C 0.30635 0.17299 0.7347 0.0
C984 C 0.31578 0.15652 0.71348 0.0
C985 C 0.2998 0.14349 0.6951 0.0
C986 C 0.26533 0.15882 0.7203 0.0
H987 H 0.3087 0.13232 0.67882 0.0
H988 H 0.24591 0.15941 0.72455 0.0
H989 H 0.23944 0.0962 0.62334 0.0
H990 H 0.2237 0.1821 0.62549 0.0
C991 C 0.2945 0.16742 0.62287 0.0
C992 C 0.23288 0.20931 0.68335 0.0
C993 C 0.28004 0.07438 0.65492 0.0
C994 C 0.2057 0.11624 0.69224 0.0
H995 H 0.26318 0.24897 0.65682 0.0
H996 H 0.29614 0.2267 0.62236 0.0
H997 H 0.32747 0.12757 0.59762 0.0
H998 H 0.31979 0.07708 0.61635 0.0
H999 H 0.24994 0.03625 0.68332 0.0
H1000 H 0.20813 0.05845 0.70173 0.0
H1001 H 0.16985 0.15449 0.71273 0.0
H1002 H 0.18552 0.20527 0.70953 0.0
H1003 H 0.23056 0.09476 0.5742 0.0
H1004 H 0.21521 0.18208 0.57593 0.0
H1005 H 0.27264 0.18411 0.75595 0.0
H1006 H 0.33551 0.15496 0.71011 0.0
C1007 C 0.38202 0.78243 0.19855 0.0
C1008 C 0.38977 0.76668 0.22094 0.0
C1009 C 0.40765 0.74821 0.21153 0.0
C1010 C 0.40971 0.75313 0.18376 0.0
N1011 N 0.39414 0.77345 0.17531 0.0
Co1012 Co 0.38683 0.7826 0.13609 0.0
N1013 N 0.40318 0.74857 0.12099 0.0
C1014 C 0.41951 0.73271 0.13534 0.0
C1015 C 0.42953 0.71166 0.11966 0.0
C1016 C 0.41925 0.71489 0.09377 0.0
C1017 C 0.40341 0.73777 0.0949 0.0
N1018 N 0.37763 0.79226 0.09731 0.0
C1019 C 0.37791 0.77696 0.0738 0.0
C1020 C 0.36896 0.7924 0.05164 0.0
C1021 C 0.36406 0.8184 0.06112 0.0
C1022 C 0.36985 0.81741 0.08857 0.0
N1023 N 0.37185 0.81774 0.15026 0.0
C1024 C 0.36803 0.84082 0.13539 0.0
C1025 C 0.36087 0.86327 0.15084 0.0
C1026 C 0.35999 0.85378 0.17723 0.0
C1027 C 0.36637 0.8259 0.17622 0.0
N1028 N 0.41955 0.80059 0.13262 0.0
C1029 C 0.47157 0.80814 0.13215 0.0
C1030 C 0.45852 0.80127 0.10813 0.0
C1031 C 0.43274 0.79784 0.10876 0.0
C1032 C 0.45754 0.81361 0.15583 0.0
C1033 C 0.43168 0.81019 0.15552 0.0
N1034 N 0.35569 0.76209 0.14125 0.0
C1035 C 0.31213 0.76038 0.15257 0.0
C1036 C 0.31587 0.73487 0.1662 0.0
C1037 C 0.33919 0.72237 0.16427 0.0
C1038 C 0.35831 0.73578 0.15145 0.0
C1039 C 0.33236 0.77365 0.14008 0.0
H1040 H 0.37573 0.72504 0.15206 0.0
H1041 H 0.32949 0.79398 0.13138 0.0
H1042 H 0.42387 0.79119 0.09016 0.0
H1043 H 0.4218 0.81375 0.17444 0.0
C1044 C 0.42178 0.73593 0.16423 0.0
C1045 C 0.36502 0.80743 0.19989 0.0
C1046 C 0.39048 0.74992 0.07035 0.0
C1047 C 0.36713 0.83939 0.10685 0.0
H1048 H 0.3833 0.76834 0.24187 0.0
H1049 H 0.41698 0.73208 0.22332 0.0
H1050 H 0.44238 0.69551 0.12634 0.0
H1051 H 0.42328 0.7022 0.07594 0.0
H1052 H 0.3671 0.78591 0.03052 0.0
H1053 H 0.3572 0.83596 0.04936 0.0
H1054 H 0.3557 0.88372 0.14362 0.0
H1055 H 0.35445 0.86577 0.19505 0.0
H1056 H 0.46835 0.79727 0.08918 0.0
H1057 H 0.46663 0.81953 0.17479 0.0
H1058 H 0.29412 0.77061 0.15278 0.0
H1059 H 0.34301 0.70245 0.17366 0.0
C1060 C 0.76179 0.18383 0.32214 0.0
C1061 C 0.78067 0.18796 0.3036 0.0
C1062 C 0.80231 0.17988 0.31631 0.0
C1063 C 0.79589 0.1721 0.34229 0.0
N1064 N 0.77138 0.17425 0.34689 0.0
Co1065 Co 0.75716 0.17673 0.38504 0.0
N1066 N 0.78857 0.16466 0.40442 0.0
C1067 C 0.81037 0.16044 0.39197 0.0
C1068 C 0.82898 0.15228 0.40983 0.0
C1069 C 0.81828 0.15138 0.4353 0.0
C1070 C 0.79369 0.15924 0.43168 0.0
N1071 N 0.74279 0.18178 0.42284 0.0
C1072 C 0.75226 0.17664 0.44853 0.0
C1073 C 0.73548 0.1841 0.4688 0.0
C1074 C 0.71474 0.19395 0.45568 0.0
C1075 C 0.71994 0.19211 0.42821 0.0
N1076 N 0.7249 0.18664 0.36624 0.0
C1077 C 0.70322 0.19115 0.37896 0.0
C1078 C 0.68314 0.19077 0.36162 0.0
C1079 C 0.69268 0.18648 0.33601 0.0
C1080 C 0.7182 0.1857 0.3391 0.0
N1081 N 0.74797 0.13711 0.38418 0.0
C1082 C 0.73862 0.0797 0.38471 0.0
C1083 C 0.72283 0.09885 0.398 0.0
C1084 C 0.72773 0.12731 0.39739 0.0
C1085 C 0.75891 0.09004 0.37096 0.0
C1086 C 0.76327 0.1184 0.37104 0.0
N1087 N 0.76839 0.21572 0.38476 0.0
C1088 C 0.7776 0.25075 0.35133 0.0
C1089 C 0.80085 0.25493 0.36325 0.0
C1090 C 0.80575 0.24209 0.38869 0.0
C1091 C 0.78911 0.22297 0.39928 0.0
C1092 C 0.76137 0.23225 0.36316 0.0
H1093 H 0.7941 0.21277 0.41823 0.0
H1094 H 0.74424 0.22947 0.35292 0.0
H1095 H 0.7152 0.14106 0.40801 0.0
H1096 H 0.77952 0.12486 0.36077 0.0
C1097 C 0.81252 0.16534 0.36372 0.0
C1098 C 0.73508 0.19078 0.31608 0.0
C1099 C 0.77661 0.16411 0.45502 0.0
C1100 C 0.70242 0.19513 0.40725 0.0
H1101 H 0.77932 0.19707 0.28337 0.0
H1102 H 0.82074 0.18122 0.30812 0.0
H1103 H 0.84817 0.148 0.40501 0.0
H1104 H 0.82765 0.14653 0.45453 0.0
H1105 H 0.73768 0.18187 0.4908 0.0
H1106 H 0.69744 0.20031 0.46504 0.0
H1107 H 0.66388 0.19361 0.3669 0.0
H1108 H 0.68212 0.18616 0.31701 0.0
H1109 H 0.70692 0.09185 0.40903 0.0
H1110 H 0.7717 0.07612 0.3605 0.0
H1111 H 0.77215 0.26125 0.33249 0.0
H1112 H 0.82274 0.24596 0.39978 0.0
C1113 C 0.35132 0.2831 0.8703 0.0
C1114 C 0.33312 0.26636 0.88014 0.0
C1115 C 0.34482 0.24662 0.89625 0.0
C1116 C 0.36952 0.25233 0.89544 0.0
N1117 N 0.37413 0.27441 0.87993 0.0
Co1118 Co 0.40776 0.28834 0.87229 0.0
N1119 N 0.42575 0.25573 0.88912 0.0
C1120 C 0.41495 0.23689 0.90495 0.0
C1121 C 0.43146 0.21768 0.91567 0.0
C1122 C 0.45418 0.22494 0.90628 0.0
C1123 C 0.45039 0.24821 0.89016 0.0
N1124 N 0.44135 0.30186 0.86258 0.0
C1125 C 0.46434 0.28938 0.86353 0.0
C1126 C 0.48209 0.30671 0.8535 0.0
C1127 C 0.47024 0.33106 0.8471 0.0
C1128 C 0.44594 0.32723 0.85314 0.0
N1129 N 0.39035 0.3223 0.85754 0.0
C1130 C 0.40136 0.3459 0.85101 0.0
C1131 C 0.38536 0.3659 0.84099 0.0
C1132 C 0.36273 0.35429 0.84094 0.0
C1133 C 0.36613 0.32775 0.85119 0.0
N1134 N 0.40913 0.30593 0.90955 0.0
C1135 C 0.41044 0.31273 0.96769 0.0
C1136 C 0.43217 0.31225 0.9521 0.0
C1137 C 0.43112 0.30841 0.92337 0.0
C1138 C 0.38802 0.31316 0.95293 0.0
C1139 C 0.38781 0.31081 0.92403 0.0
N1140 N 0.40485 0.26901 0.83598 0.0
C1141 C 0.38 0.26762 0.79426 0.0
C1142 C 0.37779 0.23895 0.79654 0.0
C1143 C 0.39305 0.22545 0.81588 0.0
C1144 C 0.40635 0.24068 0.83524 0.0
C1145 C 0.39421 0.28211 0.81364 0.0
H1146 H 0.41611 0.22882 0.8506 0.0
H1147 H 0.39488 0.30411 0.8114 0.0
H1148 H 0.44821 0.30602 0.91273 0.0
H1149 H 0.37011 0.31137 0.91376 0.0
C1150 C 0.3891 0.23649 0.90689 0.0
C1151 C 0.34604 0.30814 0.85342 0.0
C1152 C 0.47084 0.26287 0.87695 0.0
C1153 C 0.4269 0.34666 0.84929 0.0
H1154 H 0.31347 0.26836 0.87617 0.0
H1155 H 0.33634 0.22979 0.90682 0.0
H1156 H 0.42743 0.20017 0.92843 0.0
H1157 H 0.4716 0.21437 0.91079 0.0
H1158 H 0.50174 0.30258 0.85184 0.0
H1159 H 0.47841 0.34943 0.83906 0.0
H1160 H 0.38985 0.3859 0.83296 0.0
H1161 H 0.34586 0.36407 0.83328 0.0
H1162 H 0.45002 0.31288 0.96228 0.0
H1163 H 0.37063 0.31442 0.96372 0.0
H1164 H 0.36958 0.27902 0.77869 0.0
H1165 H 0.39314 0.20319 0.81752 0.0
C1166 C 0.26565 0.82061 0.35679 0.0
C1167 C 0.28515 0.8016 0.35452 0.0
C1168 C 0.30532 0.81305 0.36691 0.0
C1169 C 0.2976 0.83889 0.3753 0.0
N1170 N 0.27377 0.84451 0.36901 0.0
Co1171 Co 0.25888 0.8828 0.36728 0.0
N1172 N 0.28965 0.90171 0.37902 0.0
C1173 C 0.31047 0.88856 0.38752 0.0
C1174 C 0.32872 0.90631 0.39496 0.0
C1175 C 0.31876 0.93237 0.39088 0.0
C1176 C 0.29495 0.92918 0.381 0.0
N1177 N 0.24353 0.92072 0.36269 0.0
C1178 C 0.25345 0.94627 0.3629 0.0
C1179 C 0.23541 0.96672 0.35847 0.0
C1180 C 0.21341 0.95387 0.35647 0.0
C1181 C 0.21918 0.92638 0.35942 0.0
N1182 N 0.227 0.86452 0.35833 0.0
C1183 C 0.20458 0.87695 0.3604 0.0
C1184 C 0.18547 0.85906 0.36035 0.0
C1185 C 0.19638 0.8335 0.35793 0.0
C1186 C 0.22158 0.83736 0.35578 0.0
N1187 N 0.2496 0.88194 0.40734 0.0
C1188 C 0.24528 0.88035 0.46613 0.0
C1189 C 0.24482 0.90535 0.45154 0.0
C1190 C 0.24746 0.90572 0.42264 0.0
C1191 C 0.24654 0.85613 0.45015 0.0
C1192 C 0.24812 0.85735 0.42111 0.0
N1193 N 0.27054 0.88229 0.32793 0.0
C1194 C 0.27557 0.85054 0.28951 0.0
C1195 C 0.30011 0.85813 0.28547 0.0
C1196 C 0.30809 0.88087 0.30062 0.0
C1197 C 0.29305 0.89279 0.32125 0.0
C1198 C 0.26095 0.86382 0.30975 0.0
H1199 H 0.30059 0.90977 0.33226 0.0
H1200 H 0.2424 0.85785 0.31175 0.0
H1201 H 0.24853 0.92554 0.41309 0.0
H1202 H 0.24883 0.83809 0.41005 0.0
C1203 C 0.31298 0.85986 0.38456 0.0
C1204 C 0.23938 0.81527 0.34799 0.0
C1205 C 0.27871 0.95263 0.37167 0.0
C1206 C 0.20216 0.9055 0.36013 0.0
H1207 H 0.28513 0.78174 0.34445 0.0
H1208 H 0.32387 0.80423 0.36797 0.0
H1209 H 0.3474 0.90097 0.40148 0.0
H1210 H 0.32818 0.95152 0.39387 0.0
H1211 H 0.23767 0.9888 0.3583 0.0
H1212 H 0.19527 0.96351 0.35395 0.0
H1213 H 0.1659 0.86405 0.36137 0.0
H1214 H 0.18677 0.81429 0.35681 0.0
H1215 H 0.24352 0.92473 0.46259 0.0
H1216 H 0.24666 0.83619 0.46009 0.0
H1217 H 0.26771 0.83426 0.27725 0.0
H1218 H 0.32621 0.88896 0.29709 0.0
C1219 C 0.67192 0.7727 0.82369 0.0
C1220 C 0.66358 0.75801 0.80114 0.0
C1221 C 0.64866 0.73784 0.81116 0.0
C1222 C 0.64864 0.74118 0.8393 0.0
N1223 N 0.66262 0.76211 0.8475 0.0
Co1224 Co 0.6685 0.7727 0.8866 0.0
N1225 N 0.65461 0.73838 0.90234 0.0
C1226 C 0.64053 0.721 0.88783 0.0
C1227 C 0.63196 0.69995 0.90367 0.0
C1228 C 0.64071 0.70471 0.9299 0.0
C1229 C 0.65417 0.72852 0.92882 0.0
N1230 N 0.67554 0.78392 0.92565 0.0
C1231 C 0.67394 0.77017 0.94997 0.0
C1232 C 0.67929 0.78721 0.97208 0.0
C1233 C 0.68395 0.81246 0.96171 0.0
C1234 C 0.68122 0.80956 0.93389 0.0
N1235 N 0.68129 0.80803 0.87189 0.0
C1236 C 0.68487 0.83112 0.88664 0.0
C1237 C 0.69323 0.85265 0.87155 0.0
C1238 C 0.69517 0.84272 0.84543 0.0
C1239 C 0.68776 0.81555 0.84611 0.0
N1240 N 0.63402 0.78938 0.88836 0.0
C1241 C 0.58123 0.79456 0.88504 0.0
C1242 C 0.59351 0.78723 0.90966 0.0
C1243 C 0.6196 0.78515 0.91097 0.0
C1244 C 0.59626 0.80167 0.86282 0.0
C1245 C 0.62238 0.79927 0.86498 0.0
N1246 N 0.70185 0.75342 0.88271 0.0
C1247 C 0.74562 0.75319 0.87091 0.0
C1248 C 0.74533 0.72537 0.86222 0.0
C1249 C 0.72325 0.71184 0.86567 0.0
C1250 C 0.70221 0.72588 0.87575 0.0
C1251 C 0.72382 0.76677 0.88117 0.0
H1252 H 0.68588 0.71412 0.87595 0.0
H1253 H 0.72457 0.78834 0.8865 0.0
H1254 H 0.62788 0.77836 0.93 0.0
H1255 H 0.63302 0.80389 0.84701 0.0
C1256 C 0.63837 0.72357 0.85894 0.0
C1257 C 0.68684 0.79799 0.82171 0.0
C1258 C 0.66397 0.74262 0.95381 0.0
C1259 C 0.68435 0.83049 0.91506 0.0
H1260 H 0.66762 0.76176 0.77973 0.0
H1261 H 0.63944 0.72221 0.79931 0.0
H1262 H 0.62085 0.68297 0.89695 0.0
H1263 H 0.63698 0.69258 0.94796 0.0
H1264 H 0.67844 0.78242 0.99363 0.0
H1265 H 0.68827 0.8309 0.97314 0.0
H1266 H 0.69843 0.87275 0.87891 0.0
H1267 H 0.7016 0.85418 0.82797 0.0
H1268 H 0.58295 0.78205 0.92763 0.0
H1269 H 0.58785 0.808 0.84347 0.0
H1270 H 0.76232 0.76471 0.86885 0.0
H1271 H 0.72187 0.69049 0.85943 0.0
C1272 C 0.14616 0.53172 0.25885 0.0
C1273 C 0.16867 0.54458 0.2522 0.0
C1274 C 0.18725 0.49806 0.24268 0.0
C1275 C 0.16605 0.4852 0.25321 0.0
N1276 N 0.12475 0.48994 0.27053 0.0
N1277 N 0.21058 0.53992 0.23687 0.0
C1278 C 0.14521 0.50215 0.26059 0.0
C1279 C 0.18905 0.52763 0.24343 0.0
N1280 N 0.12555 0.54783 0.26355 0.0
N1281 N 0.20572 0.48174 0.23192 0.0
H1282 H 0.21204 0.56128 0.23581 0.0
H1283 H 0.22719 0.52925 0.23347 0.0
H1284 H 0.20471 0.46031 0.23113 0.0
H1285 H 0.22097 0.48922 0.22183 0.0
H1286 H 0.10793 0.54021 0.26576 0.0
H1287 H 0.12558 0.56923 0.263 0.0
H1288 H 0.11032 0.5005 0.28028 0.0
H1289 H 0.12249 0.46876 0.26969 0.0
C1290 C 0.9966 0.6574 0.73137 0.0
C1291 C 0.98356 0.6426 0.75166 0.0
C1292 C 1.02419 0.62463 0.7693 0.0
C1293 C 0.03719 0.63731 0.74741 0.0
N1294 N 0.03339 0.65986 0.70331 0.0
N1295 N 0.98548 0.60673 0.78569 0.0
C1296 C 1.02264 0.65193 0.72718 0.0
C1297 C 0.99761 0.62431 0.76901 0.0
N1298 N 0.98452 0.67772 0.7168 0.0
N1299 N 0.03698 0.61465 0.79166 0.0
H1300 H 0.96625 0.60597 0.78599 0.0
H1301 H 0.99448 0.59114 0.79694 0.0
H1302 H 0.05599 0.61637 0.79407 0.0
H1303 H 0.02838 0.60767 0.80931 0.0
H1304 H 0.99355 0.69123 0.70395 0.0
H1305 H 0.96581 0.68258 0.71937 0.0
H1306 H 1.02336 0.6683 0.68682 0.0
H1307 H 0.0518 0.65513 0.69879 0.0
C1308 C 0.8848 0.49828 0.21691 0.0
C1309 C 0.90355 0.48241 0.23075 0.0
C1310 C 0.92642 0.5254 0.23824 0.0
C1311 C 0.90525 0.54145 0.23006 0.0
N1312 N 0.86487 0.54339 0.20941 0.0
N1313 N 0.94383 0.48079 0.25211 0.0
C1314 C 0.88484 0.52788 0.21813 0.0
C1315 C 0.92511 0.49595 0.24009 0.0
N1316 N 0.86657 0.48478 0.20333 0.0
N1317 N 0.94766 0.53851 0.24476 0.0
H1318 H 0.94464 0.45939 0.25143 0.0
H1319 H 0.95834 0.48925 0.26313 0.0
H1320 H 0.94897 0.55984 0.24371 0.0
H1321 H 0.96449 0.52837 0.24874 0.0
H1322 H 0.85307 0.49455 0.19119 0.0
H1323 H 0.86637 0.46329 0.20244 0.0
H1324 H 0.8481 0.5352 0.20344 0.0
H1325 H 0.86496 0.56489 0.20902 0.0
C1326 C 0.0478 0.38693 0.70561 0.0
C1327 C 0.06084 0.3838 0.73109 0.0
C1328 C 1.02055 0.37985 0.75465 0.0
C1329 C 1.00747 0.38512 0.72952 0.0
N1330 N 1.00877 0.39651 0.68147 0.0
N1331 N 0.05936 0.37974 0.78043 0.0
C1332 C 1.0212 0.38928 0.70509 0.0
C1333 C 0.04706 0.38097 0.75573 0.0
N1334 N 0.0609 0.3874 0.68174 0.0
N1335 N 1.00758 0.37277 0.77745 0.0
H1336 H 0.07857 0.3789 0.78209 0.0
H1337 H 0.05066 0.38124 0.79939 0.0
H1338 H 0.98837 0.37188 0.77759 0.0
H1339 H 1.01576 0.36564 0.79563 0.0
H1340 H 0.05287 0.38648 0.66224 0.0
H1341 H 0.08015 0.38692 0.68141 0.0
H1342 H 1.01735 0.40288 0.66361 0.0
H1343 H 0.98955 0.39794 0.68025 0.0
C1344 C 0.18268 0.493 0.80678 0.0
C1345 C 0.16329 0.4759 0.79748 0.0
C1346 C 0.13667 0.518 0.79083 0.0
C1347 C 0.15676 0.53509 0.79769 0.0
N1348 N 0.19693 0.53915 0.81799 0.0
N1349 N 0.11994 0.47206 0.7872 0.0
C1350 C 0.17909 0.52254 0.80774 0.0
C1351 C 0.13964 0.48844 0.79177 0.0
N1352 N 0.20497 0.48084 0.81352 0.0
N1353 N 0.11502 0.53021 0.78193 0.0
H1354 H 0.12133 0.45069 0.78768 0.0
H1355 H 0.10178 0.47936 0.78527 0.0
H1356 H 0.11176 0.55144 0.78294 0.0
H1357 H 0.1006 0.5197 0.77283 0.0
H1358 H 0.22093 0.49155 0.81766 0.0
H1359 H 0.20763 0.45948 0.81436 0.0
H1360 H 0.21321 0.532 0.82734 0.0
H1361 H 0.19452 0.56055 0.8189 0.0
C1362 C 1.02171 0.6415 0.32643 0.0
C1363 C 1.00907 0.64286 0.30061 0.0
C1364 C 0.04941 0.64563 0.27729 0.0
C1365 C 0.06198 0.6456 0.30317 0.0
N1366 N 0.05989 0.64726 0.35255 0.0
N1367 N 1.01067 0.65096 0.25181 0.0
C1368 C 0.048 0.6447 0.32779 0.0
C1369 C 1.02292 0.64623 0.27615 0.0
N1370 N 1.00864 0.63612 0.34962 0.0
N1371 N 0.06286 0.64447 0.25363 0.0
H1372 H 0.99146 0.65147 0.25008 0.0
H1373 H 1.01933 0.65665 0.23375 0.0
H1374 H 0.08207 0.64527 0.25345 0.0
H1375 H 0.0552 0.64091 0.23427 0.0
H1376 H 1.01676 0.63181 0.36867 0.0
H1377 H 0.98953 0.63405 0.34944 0.0
H1378 H 0.05082 0.64979 0.3712 0.0
H1379 H 0.079 0.64883 0.35429 0.0
C1380 C 0.88578 0.51826 0.82212 0.0
C1381 C 0.90625 0.53324 0.81257 0.0
C1382 C 0.92715 0.48899 0.79977 0.0
C1383 C 0.90586 0.47422 0.80728 0.0
N1384 N 0.86785 0.47374 0.83194 0.0
N1385 N 0.94849 0.53258 0.79799 0.0
C1386 C 0.88623 0.48865 0.82074 0.0
C1387 C 0.92767 0.5184 0.80341 0.0
N1388 N 0.86546 0.53256 0.83151 0.0
N1389 N 0.94648 0.47494 0.78792 0.0
H1390 H 0.94924 0.55393 0.7999 0.0
H1391 H 0.96553 0.52329 0.79354 0.0
H1392 H 0.94769 0.45353 0.7875 0.0
H1393 H 0.9611 0.48424 0.77826 0.0
H1394 H 0.84873 0.52363 0.83586 0.0
H1395 H 0.86511 0.55391 0.8341 0.0
H1396 H 0.85367 0.4822 0.84383 0.0
H1397 H 0.86804 0.45224 0.83117 0.0
C1398 C 1.01549 0.3982 0.33769 0.0
C1399 C 1.00267 0.39466 0.31223 0.0
C1400 C 0.04301 0.38721 0.28913 0.0
C1401 C 0.05585 0.3926 0.31421 0.0
N1402 N 0.05441 0.40579 0.36188 0.0
N1403 N 1.00432 0.38802 0.26313 0.0
C1404 C 0.04205 0.39871 0.33837 0.0
C1405 C 1.01653 0.38979 0.28782 0.0
N1406 N 1.0022 0.40076 0.36136 0.0
N1407 N 0.05621 0.37886 0.2666 0.0
H1408 H 0.98511 0.38816 0.26139 0.0
H1409 H 1.01303 0.38802 0.24416 0.0
H1410 H 0.07545 0.3774 0.26649 0.0
H1411 H 0.04825 0.37151 0.24855 0.0
H1412 H 1.01005 0.40033 0.38098 0.0
H1413 H 0.98295 0.40165 0.3615 0.0
H1414 H 0.04583 0.41345 0.37947 0.0
H1415 H 0.07364 0.40562 0.36328 0.0
C1416 C 0.19907 0.13737 0.5251 0.0
C1417 C 0.222 0.13867 0.53952 0.0
C1418 C 0.24359 0.1408 0.49495 0.0
C1419 C 0.22087 0.13745 0.48052 0.0
N1420 N 0.17725 0.12983 0.4817 0.0
N1421 N 0.26645 0.13895 0.53827 0.0
C1422 C 0.19866 0.1351 0.4956 0.0
C1423 C 0.24435 0.13962 0.52441 0.0
N1424 N 0.17762 0.13868 0.53965 0.0
N1425 N 0.26444 0.14605 0.48043 0.0
H1426 H 0.26788 0.13964 0.55967 0.0
H1427 H 0.28344 0.13599 0.52875 0.0
H1428 H 0.26479 0.14666 0.459 0.0
H1429 H 0.28098 0.15188 0.48946 0.0
H1430 H 0.16018 0.14085 0.53063 0.0
H1431 H 0.17729 0.13939 0.5611 0.0
H1432 H 0.16085 0.12493 0.49124 0.0
H1433 H 0.17628 0.12854 0.46029 0.0
C1434 C 0.41438 0.74412 0.99563 0.0
C1435 C 0.39212 0.73777 0.98147 0.0
C1436 C 0.37319 0.72816 0.02666 0.0
C1437 C 0.39379 0.73931 0.04076 0.0
N1438 N 0.43458 0.75744 0.03836 0.0
N1439 N 0.35036 0.72271 0.98352 0.0
C1440 C 0.41474 0.74662 0.02512 0.0
C1441 C 0.37168 0.72903 0.99707 0.0
N1442 N 0.43528 0.74788 0.98077 0.0
N1443 N 0.35489 0.71707 0.04183 0.0
H1444 H 0.34914 0.72191 0.96208 0.0
H1445 H 0.33373 0.71933 0.99328 0.0
H1446 H 0.35575 0.71627 0.06329 0.0
H1447 H 0.34011 0.70664 0.03336 0.0
H1448 H 0.4527 0.75003 0.98956 0.0
H1449 H 0.43561 0.74622 0.95942 0.0
H1450 H 0.44888 0.76705 0.02837 0.0
H1451 H 0.43634 0.75767 0.05969 0.0
C1452 C 0.81082 0.87263 0.48026 0.0
C1453 C 0.79067 0.88628 0.46654 0.0
C1454 C 0.77603 0.90338 0.51162 0.0
C1455 C 0.79711 0.89152 0.52545 0.0
N1456 N 0.83799 0.87113 0.52041 0.0
N1457 N 0.75973 0.92244 0.46892 0.0
C1458 C 0.81555 0.87799 0.50898 0.0
C1459 C 0.77517 0.90421 0.48222 0.0
N1460 N 0.82513 0.85397 0.46613 0.0
N1461 N 0.75589 0.9122 0.52624 0.0
H1462 H 0.76054 0.92486 0.44768 0.0
H1463 H 0.74908 0.93742 0.4791 0.0
H1464 H 0.75451 0.90987 0.54746 0.0
H1465 H 0.73937 0.91873 0.51684 0.0
H1466 H 0.83831 0.84105 0.47563 0.0
H1467 H 0.82266 0.85025 0.44515 0.0
H1468 H 0.85282 0.86342 0.50897 0.0
H1469 H 0.84258 0.87596 0.5407 0.0
C1470 C 0.64187 0.2766 0.02659 0.0
C1471 C 0.66376 0.28345 0.04139 0.0
C1472 C 0.68391 0.29262 0.99664 0.0
C1473 C 0.66247 0.28446 0.9818 0.0
N1474 N 0.61952 0.27349 0.98286 0.0
N1475 N 0.70363 0.30361 0.04064 0.0
C1476 C 0.64094 0.27818 0.99695 0.0
C1477 C 0.68409 0.29334 0.02634 0.0
N1478 N 0.6222 0.26742 0.04093 0.0
N1479 N 0.70458 0.29853 0.98217 0.0
H1480 H 0.70416 0.30434 0.06211 0.0
H1481 H 0.7183 0.31337 0.03155 0.0
H1482 H 0.7046 0.29964 0.96072 0.0
H1483 H 0.72185 0.30133 0.99109 0.0
H1484 H 0.60692 0.25836 0.03197 0.0
H1485 H 0.62143 0.26824 0.06229 0.0
H1486 H 0.60245 0.27134 0.99209 0.0
H1487 H 0.61835 0.27378 0.96147 0.0
C1488 C 0.26316 0.8945 0.51325 0.0
C1489 C 0.24541 0.87962 0.49772 0.0
C1490 C 0.23077 0.86025 0.54186 0.0
C1491 C 0.24755 0.87647 0.55714 0.0
N1492 N 0.27363 0.91557 0.55705 0.0
N1493 N 0.20794 0.85393 0.49905 0.0
C1494 C 0.26164 0.89579 0.54264 0.0
C1495 C 0.2279 0.86412 0.5126 0.0
N1496 N 0.28264 0.90591 0.50029 0.0
N1497 N 0.21794 0.84061 0.55518 0.0
H1498 H 0.20459 0.85735 0.47815 0.0
H1499 H 0.19344 0.84466 0.50905 0.0
H1500 H 0.21879 0.83818 0.57651 0.0
H1501 H 0.20765 0.82588 0.54495 0.0
H1502 H 0.29727 0.91467 0.51092 0.0
H1503 H 0.28575 0.90379 0.47926 0.0
H1504 H 0.28276 0.93159 0.54766 0.0
H1505 H 0.27154 0.91784 0.57822 0.0
C1506 C 0.63858 0.7425 0.02774 0.0
C1507 C 0.65997 0.73414 0.04332 0.0
C1508 C 0.68107 0.72262 0.99929 0.0
C1509 C 0.66039 0.73296 0.98372 0.0
N1510 N 0.61737 0.74628 0.9833 0.0
N1511 N 0.69898 0.7096 0.04396 0.0
C1512 C 0.63845 0.74065 0.9981 0.0
C1513 C 0.68027 0.72183 0.02896 0.0
N1514 N 0.61861 0.75336 0.04126 0.0
N1515 N 0.70202 0.71484 0.98558 0.0
H1516 H 0.69869 0.70884 0.06542 0.0
H1517 H 0.71358 0.69831 0.03537 0.0
H1518 H 0.70265 0.71389 0.96413 0.0
H1519 H 0.71888 0.71027 0.99517 0.0
H1520 H 0.6039 0.76384 0.03167 0.0
H1521 H 0.61693 0.75223 0.0625 0.0
H1522 H 0.60009 0.74971 0.99199 0.0
H1523 H 0.61672 0.74509 0.96192 0.0
C1524 C 0.77434 0.13479 0.52902 0.0
C1525 C 0.7844 0.15653 0.545 0.0
C1526 C 0.79482 0.18025 0.50146 0.0
C1527 C 0.78367 0.1592 0.48549 0.0
N1528 N 0.76787 0.11356 0.48392 0.0
N1529 N 0.80961 0.19627 0.54625 0.0
C1530 C 0.77519 0.13548 0.49934 0.0
C1531 C 0.79655 0.17793 0.53101 0.0
N1532 N 0.76293 0.11401 0.54229 0.0
N1533 N 0.80263 0.20327 0.48843 0.0
H1534 H 0.81104 0.1949 0.56765 0.0
H1535 H 0.82071 0.21113 0.5378 0.0
H1536 H 0.80247 0.20517 0.46707 0.0
H1537 H 0.80814 0.22096 0.49864 0.0
H1538 H 0.75235 0.09932 0.53244 0.0
H1539 H 0.76355 0.11194 0.56362 0.0
H1540 H 0.76336 0.09462 0.49213 0.0
H1541 H 0.76824 0.11366 0.46244 0.0
C1542 C 0.4271 0.2899 0.04191 0.0
C1543 C 0.40924 0.30463 0.05767 0.0
C1544 C 0.39719 0.33023 0.0155 0.0
C1545 C 0.41112 0.31114 0.99899 0.0
N1546 N 0.43546 0.26847 0.99801 0.0
N1547 N 0.37639 0.33883 0.05903 0.0
C1548 C 0.42526 0.28993 1.01262 0.0
C1549 C 0.39413 0.32499 0.04433 0.0
N1550 N 0.44582 0.27572 0.05494 0.0
N1551 N 0.38751 0.35378 1.00392 0.0
H1552 H 0.37459 0.33634 0.08024 0.0
H1553 H 0.36284 0.35159 0.04995 0.0
H1554 H 0.39035 0.35889 0.98338 0.0
H1555 H 0.37896 0.36948 0.01532 0.0
H1556 H 0.46031 0.26594 0.04446 0.0
H1557 H 0.44852 0.27726 0.07613 0.0
H1558 H 0.444 0.2514 1.00743 0.0
H1559 H 0.4328 0.26594 0.97691 0.0
C1560 C 0.54617 0.20083 0.14255 0.0
C1561 C 0.55786 0.22673 0.14339 0.0
C1562 C 0.51665 0.25001 0.14623 0.0
C1563 C 0.5049 0.22429 0.14308 0.0
N1564 N 0.50845 0.1754 0.13541 0.0
N1565 N 0.55411 0.27628 0.14319 0.0
C1566 C 0.51971 0.19973 0.14061 0.0
C1567 C 0.54301 0.25138 0.14444 0.0
N1568 N 0.56043 0.17719 0.14398 0.0
N1569 N 0.50259 0.27314 0.1519 0.0
H1570 H 0.57323 0.27827 0.14315 0.0
H1571 H 0.54449 0.29494 0.14037 0.0
H1572 H 0.4834 0.27306 0.15329 0.0
H1573 H 0.50991 0.29196 0.15746 0.0
H1574 H 0.55332 0.15769 0.14652 0.0
H1575 H 0.57968 0.17723 0.14449 0.0
H1576 H 0.51793 0.15718 0.13035 0.0
H1577 H 0.48931 0.17381 0.13431 0.0
C1578 C 0.53784 0.81775 0.88178 0.0
C1579 C 0.55305 0.79328 0.88231 0.0
C1580 C 0.51492 0.7658 0.88096 0.0
C1581 C 0.49973 0.79023 0.87909 0.0
N1582 N 0.49715 0.8395 0.8742 0.0
N1583 N 0.55586 0.74392 0.87772 0.0
C1584 C 0.5114 0.81619 0.87838 0.0
C1585 C 0.54144 0.7673 0.88065 0.0
N1586 N 0.54861 0.84258 0.88566 0.0
N1587 N 0.50394 0.74094 0.88351 0.0
H1588 H 0.5751 0.74409 0.8774 0.0
H1589 H 0.54889 0.72464 0.8733 0.0
H1590 H 0.48487 0.73872 0.88225 0.0
H1591 H 0.51351 0.72273 0.88855 0.0
H1592 H 0.53875 0.86104 0.88861 0.0
H1593 H 0.56765 0.84451 0.88794 0.0
H1594 H 0.50431 0.85876 0.87034 0.0
H1595 H 0.47795 0.83928 0.87267 0.0
C1596 C 0.75207 1.00222 0.39558 0.0
C1597 C 0.73103 0.99004 0.38328 0.0
C1598 C 0.7147 0.03675 0.37157 0.0
C1599 C 0.73483 0.04889 0.3857 0.0
N1600 N 0.76951 0.04275 0.4167 0.0
N1601 N 0.68993 0.99628 0.36459 0.0
C1602 C 0.75253 0.03144 0.39939 0.0
C1603 C 0.71164 1.00752 0.37276 0.0
N1604 N 0.77229 0.98609 0.4024 0.0
N1605 N 0.69904 0.05295 0.35597 0.0
H1606 H 0.68691 0.97518 0.36554 0.0
H1607 H 0.67419 1.00802 0.35939 0.0
H1608 H 0.70066 0.07424 0.35445 0.0
H1609 H 0.68575 0.04506 0.34274 0.0
H1610 H 0.7891 0.9941 0.40858 0.0
H1611 H 0.77319 0.96482 0.39934 0.0
H1612 H 0.78123 0.03103 0.42946 0.0
H1613 H 0.77017 0.06389 0.42042 0.0
C1614 C 0.50889 0.23126 0.86551 0.0
C1615 C 0.49831 0.25383 0.88055 0.0
C1616 C 0.54072 0.26668 0.89428 0.0
C1617 C 0.55133 0.24275 0.8814 0.0
N1618 N 0.54373 0.19899 0.85979 0.0
N1619 N 0.50475 0.28762 0.91602 0.0
C1620 C 0.53486 0.22411 0.8684 0.0
C1621 C 0.51446 0.26974 0.89708 0.0
N1622 N 0.49429 0.21693 0.84783 0.0
N1623 N 0.55553 0.28752 0.90253 0.0
H1624 H 0.48589 0.28925 0.91959 0.0
H1625 H 0.51552 0.29806 0.9303 0.0
H1626 H 0.57452 0.28726 0.8993 0.0
H1627 H 0.54856 0.30646 0.90957 0.0
H1628 H 0.50125 0.20233 0.83398 0.0
H1629 H 0.47538 0.22111 0.84564 0.0
H1630 H 0.53242 0.18348 0.85263 0.0
H1631 H 0.56214 0.19262 0.86244 0.0
C1632 C 0.29495 0.99721 0.35065 0.0
C1633 C 0.28571 0.98309 0.37386 0.0
C1634 C 0.27694 0.02846 0.39608 0.0
C1635 C 0.28528 0.0427 0.37237 0.0
N1636 N 0.3082 0.04027 0.3304 0.0
N1637 N 0.27405 0.98528 0.42132 0.0
C1638 C 0.29639 0.02682 0.35085 0.0
C1639 C 0.27881 0.99882 0.39745 0.0
N1640 N 0.30136 0.98231 0.32781 0.0
N1641 N 0.26612 0.04314 0.41691 0.0
H1642 H 0.27537 0.96387 0.42287 0.0
H1643 H 0.27114 0.99512 0.44011 0.0
H1644 H 0.26614 0.06451 0.41785 0.0
H1645 H 0.25637 0.03424 0.43278 0.0
H1646 H 0.30534 0.99112 0.30893 0.0
H1647 H 0.30155 0.96083 0.32747 0.0
H1648 H 0.31853 0.03032 0.3152 0.0
H1649 H 0.30947 0.06169 0.33015 0.0
C1650 C 0.53946 0.8319 0.12882 0.0
C1651 C 0.55303 0.80662 0.13273 0.0
C1652 C 0.51335 0.78235 0.13524 0.0
C1653 C 0.49975 0.80782 0.13277 0.0
N1654 N 0.49996 0.85729 0.13031 0.0
N1655 N 0.55279 0.7583 0.14366 0.0
C1656 C 0.51291 0.83272 0.13051 0.0
C1657 C 0.53987 0.782 0.13697 0.0
N1658 N 0.55198 0.85506 0.12256 0.0
N1659 N 0.50086 0.75827 0.13557 0.0
H1660 H 0.57202 0.75707 0.14481 0.0
H1661 H 0.54458 0.74036 0.15015 0.0
H1662 H 0.48165 0.7576 0.13594 0.0
H1663 H 0.50937 0.73887 0.13378 0.0
H1664 H 0.54348 0.87357 0.11648 0.0
H1665 H 0.5712 0.85528 0.12159 0.0
H1666 H 0.50814 0.87637 0.13183 0.0
H1667 H 0.48072 0.85861 0.13039 0.0
C1668 C 0.74988 1.00045 0.61743 0.0
C1669 C 0.73658 0.98427 0.63618 0.0
C1670 C 0.71386 0.02723 0.64994 0.0
C1671 C 0.73084 0.04385 0.63547 0.0
N1672 N 0.76897 0.04416 0.60987 0.0
N1673 N 0.70622 0.98315 0.67179 0.0
C1674 C 0.7498 0.02985 0.62018 0.0
C1675 C 0.71855 0.99796 0.65278 0.0
N1676 N 0.76269 0.98765 0.59684 0.0
N1677 N 0.69272 0.03911 0.66013 0.0
H1678 H 0.70842 0.96178 0.67344 0.0
H1679 H 0.69499 0.99224 0.68675 0.0
H1680 H 0.68801 0.05987 0.65718 0.0
H1681 H 0.6787 0.02782 0.66876 0.0
H1682 H 0.77148 0.99834 0.58136 0.0
H1683 H 0.76139 0.96657 0.59331 0.0
H1684 H 0.78428 0.03452 0.60078 0.0
H1685 H 0.77118 0.06513 0.61336 0.0
C1686 C 0.27575 0.02765 0.63154 0.0
C1687 C 0.28903 0.04461 0.64998 0.0
C1688 C 0.31304 1.00295 0.66483 0.0
C1689 C 0.29664 0.98559 0.65008 0.0
N1690 N 0.25869 0.98277 0.62367 0.0
N1691 N 0.31972 0.04782 0.68579 0.0
C1692 C 0.27708 0.99834 0.63442 0.0
C1693 C 0.3076 0.03205 0.66702 0.0
N1694 N 0.26195 0.03957 0.61096 0.0
N1695 N 0.3343 0.99185 0.67596 0.0
H1696 H 0.31695 0.06915 0.68705 0.0
H1697 H 0.33136 0.03956 0.70103 0.0
H1698 H 0.33932 0.97106 0.67389 0.0
H1699 H 0.34805 1.00368 0.68476 0.0
H1700 H 0.25333 0.02829 0.59554 0.0
H1701 H 0.262 0.06069 0.60735 0.0
H1702 H 0.24285 0.99136 0.61443 0.0
H1703 H 0.25776 0.96159 0.62672 0.0
C1704 C 0.1863 0.27428 0.3372 0.0
C1705 C 0.19698 0.28925 0.31535 0.0
C1706 C 0.23207 0.25527 0.31506 0.0
C1707 C 0.22151 0.24025 0.33684 0.0
N1708 N 0.1903 0.23766 0.37142 0.0
N1709 N 0.22712 0.2904 0.2796 0.0
C1710 C 0.19902 0.25043 0.34862 0.0
C1711 C 0.2191 0.27873 0.30328 0.0
N1712 N 0.1635 0.28254 0.3464 0.0
N1713 N 0.25522 0.24787 0.30647 0.0
H1714 H 0.21837 0.30766 0.27072 0.0
H1715 H 0.24089 0.28148 0.26742 0.0
H1716 H 0.2652 0.23115 0.31482 0.0
H1717 H 0.2654 0.25979 0.29319 0.0
H1718 H 0.1533 0.27168 0.36052 0.0
H1719 H 0.15377 0.29953 0.33824 0.0
H1720 H 0.17531 0.24485 0.38282 0.0
H1721 H 0.19937 0.22067 0.38036 0.0
C1722 C 0.26184 0.71526 0.84857 0.0
C1723 C 0.28713 0.71358 0.84102 0.0
C1724 C 0.27671 0.67652 0.80786 0.0
C1725 C 0.25106 0.67995 0.81346 0.0
N1726 N 0.21927 0.70846 0.83502 0.0
N1727 N 0.31693 0.69719 0.80783 0.0
C1728 C 0.24367 0.70106 0.83261 0.0
C1729 C 0.29397 0.69562 0.81891 0.0
N1730 N 0.25509 0.72935 0.87178 0.0
N1731 N 0.28503 0.65409 0.7933 0.0
H1732 H 0.32971 0.71135 0.8147 0.0
H1733 H 0.32221 0.68667 0.79003 0.0
H1734 H 0.27342 0.63881 0.78619 0.0
H1735 H 0.30372 0.64908 0.79096 0.0
H1736 H 0.23746 0.72868 0.88006 0.0
H1737 H 0.26766 0.73956 0.88425 0.0
H1738 H 0.21315 0.72558 0.84628 0.0
H1739 H 0.20529 0.69946 0.82356 0.0
C1740 C 0.83084 0.72033 0.3127 0.0
C1741 C 0.85551 0.72576 0.30449 0.0
C1742 C 0.84874 0.77318 0.3226 0.0
C1743 C 0.82525 0.76627 0.33325 0.0
N1744 N 0.797 0.73003 0.34307 0.0
N1745 N 0.88976 0.75604 0.31068 0.0
C1746 C 0.81738 0.73892 0.32971 0.0
C1747 C 0.865 0.75192 0.31182 0.0
N1748 N 0.81974 0.69665 0.3056 0.0
N1749 N 0.85542 0.80005 0.32186 0.0
H1750 H 0.90245 0.74058 0.30499 0.0
H1751 H 0.89783 0.77379 0.31828 0.0
H1752 H 0.84395 0.81623 0.32863 0.0
H1753 H 0.87129 0.80634 0.31199 0.0
H1754 H 0.82783 0.68182 0.29292 0.0
H1755 H 0.82783 0.68182 0.29292 0.0
H1756 H 0.79055 0.71008 0.3408 0.0
H1757 H 0.78782 0.74175 0.35801 0.0
C1758 C 0.79691 0.34299 0.84491 0.0
C1759 C 0.79873 0.34274 0.81559 0.0
C1760 C 0.76081 0.31549 0.8143 0.0
C1761 C 0.76209 0.3113 0.84328 0.0
N1762 N 0.78324 0.31982 0.88609 0.0
N1763 N 0.78344 0.32393 0.77264 0.0
C1764 C 0.78081 0.32459 0.85851 0.0
C1765 C 0.78091 0.32772 0.80033 0.0
N1766 N 0.80957 0.36196 0.85982 0.0
N1767 N 0.73992 0.30901 0.80007 0.0
H1768 H 0.79801 0.33155 0.76146 0.0
H1769 H 0.77244 0.31066 0.76132 0.0
H1770 H 0.72436 0.30145 0.8096 0.0
H1771 H 0.73709 0.31398 0.7794 0.0
H1772 H 0.80733 0.36482 0.88091 0.0
H1773 H 0.82003 0.37704 0.8506 0.0
H1774 H 0.79809 0.32667 0.89777 0.0
H1775 H 0.7715 0.30706 0.89678 0.0
C1776 C 0.19501 0.75339 0.68949 0.0
C1777 C 0.21815 0.76188 0.70041 0.0
C1778 C 0.21018 0.73331 0.74157 0.0
C1779 C 0.18705 0.72535 0.73041 0.0
N1780 N 0.15386 0.73777 0.69941 0.0
N1781 N 0.24333 0.76616 0.74143 0.0
C1782 C 0.17819 0.73927 0.70655 0.0
C1783 C 0.22451 0.75363 0.72785 0.0
N1784 N 0.18969 0.75678 0.66216 0.0
N1785 N 0.21857 0.72147 0.76533 0.0
H1786 H 0.25327 0.782 0.73284 0.0
H1787 H 0.24741 0.76293 0.76218 0.0
H1788 H 0.20756 0.70875 0.77685 0.0
H1789 H 0.23648 0.72351 0.77287 0.0
H1790 H 0.17401 0.74884 0.65282 0.0
H1791 H 0.20232 0.7644 0.64825 0.0
H1792 H 0.14595 0.74905 0.6832 0.0
H1793 H 0.14136 0.72736 0.71154 0.0
C1794 C 0.77495 0.72063 0.20582 0.0
C1795 C 0.76082 0.70884 0.18405 0.0
C1796 C 0.782 0.66375 0.19354 0.0
C1797 C 0.79715 0.67592 0.21396 0.0
N1798 N 0.81107 0.7173 0.23594 0.0
N1799 N 0.7556 0.67041 0.15326 0.0
C1800 C 0.79445 0.70477 0.21903 0.0
C1801 C 0.76566 0.68067 0.17691 0.0
N1802 N 0.76931 0.74675 0.21466 0.0
N1803 N 0.78311 0.63581 0.19012 0.0
H1804 H 0.74465 0.68241 0.1399 0.0
H1805 H 0.76019 0.65101 0.14533 0.0
H1806 H 0.79502 0.62298 0.20162 0.0
H1807 H 0.7708 0.62517 0.17772 0.0
H1808 H 0.77689 0.75535 0.23235 0.0
H1809 H 0.75565 0.75928 0.2056 0.0
H1810 H 0.81219 0.73859 0.23795 0.0
H1811 H 0.82511 0.7065 0.24646 0.0
C1812 C 0.84405 0.27365 0.67413 0.0
C1813 C 0.8251 0.26053 0.68894 0.0
C1814 C 0.83956 0.28441 0.73123 0.0
C1815 C 0.85847 0.29722 0.71619 0.0
N1816 N 0.88406 0.29499 0.6761 0.0
N1817 N 0.81112 0.24656 0.73356 0.0
C1818 C 0.86258 0.28849 0.68864 0.0
C1819 C 0.82469 0.26392 0.71815 0.0
N1820 N 0.84362 0.27356 0.64603 0.0
N1821 N 0.83561 0.29194 0.75792 0.0
H1822 H 0.80185 0.23014 0.72482 0.0
H1823 H 0.81143 0.24632 0.75498 0.0
H1824 H 0.84638 0.30628 0.76812 0.0
H1825 H 0.82098 0.28502 0.7695 0.0
H1826 H 0.8556 0.28501 0.63428 0.0
H1827 H 0.82967 0.26455 0.63449 0.0
H1828 H 0.88906 0.28737 0.65681 0.0
H1829 H 0.89788 0.30568 0.68632 0.0
C1830 C 0.282 0.32917 0.23826 0.0
C1831 C 0.26621 0.35003 0.22643 0.0
C1832 C 0.28596 0.34114 0.18135 0.0
C1833 C 0.30252 0.32143 0.19351 0.0
N1834 N 0.32047 0.30264 0.23539 0.0
N1835 N 0.25861 0.38096 0.18836 0.0
C1836 C 0.30182 0.3173 0.22253 0.0
C1837 C 0.26981 0.35745 0.1984 0.0
N1838 N 0.27764 0.31965 0.26412 0.0
N1839 N 0.28561 0.34438 0.15344 0.0
H1840 H 0.24782 0.39416 0.20058 0.0
H1841 H 0.2622 0.38896 0.16899 0.0
H1842 H 0.29767 0.33355 0.14045 0.0
H1843 H 0.27217 0.35618 0.14304 0.0
H1844 H 0.28663 0.30227 0.27237 0.0
H1845 H 0.26356 0.32744 0.27656 0.0
H1846 H 0.32242 0.30154 0.25671 0.0
H1847 H 0.33537 0.29371 0.22496 0.0
C1848 C 0.36482 0.19153 0.24725 0.0
C1849 C 0.3555 0.21393 0.23107 0.0
C1850 C 0.31461 0.20879 0.25268 0.0
C1851 C 0.32325 0.18474 0.26688 0.0
N1852 N 0.35586 0.1506 0.27374 0.0
N1853 N 0.32031 0.24087 0.21543 0.0
C1854 C 0.34827 0.17554 0.26322 0.0
C1855 C 0.33006 0.22169 0.23311 0.0
N1856 N 0.38954 0.18525 0.24698 0.0
N1857 N 0.29188 0.22008 0.25848 0.0
H1858 H 0.33138 0.2517 0.20222 0.0
H1859 H 0.30144 0.24491 0.21284 0.0
H1860 H 0.27979 0.21133 0.27222 0.0
H1861 H 0.28576 0.23932 0.25132 0.0
H1862 H 0.39812 0.17113 0.26031 0.0
H1863 H 0.40188 0.19588 0.23488 0.0
H1864 H 0.37296 0.14125 0.26965 0.0
H1865 H 0.34412 0.13787 0.28444 0.0
C1866 C 0.32291 0.81762 0.79548 0.0
C1867 C 0.3423 0.79708 0.79164 0.0
C1868 C 0.32828 0.79634 0.74318 0.0
C1869 C 0.31364 0.82121 0.74588 0.0
N1870 N 0.30691 0.86028 0.77611 0.0
N1871 N 0.36883 0.77893 0.75575 0.0
C1872 C 0.3135 0.83323 0.77253 0.0
C1873 C 0.34643 0.78929 0.76378 0.0
N1874 N 0.31356 0.82302 0.82081 0.0
N1875 N 0.32608 0.78015 0.72047 0.0
H1876 H 0.38406 0.77824 0.76903 0.0
H1877 H 0.37275 0.77474 0.73514 0.0
H1878 H 0.31247 0.784 0.7056 0.0
H1879 H 0.33623 0.76167 0.71832 0.0
H1880 H 0.29875 0.83688 0.82383 0.0
H1881 H 0.31891 0.81165 0.83791 0.0
H1882 H 0.30827 0.87002 0.79522 0.0
H1883 H 0.30331 0.87353 0.75963 0.0
C1884 C 0.69299 0.84871 0.26848 0.0
C1885 C 0.71502 0.83667 0.28008 0.0
C1886 C 0.71118 0.79736 0.24762 0.0
C1887 C 0.68995 0.80993 0.23523 0.0
N1888 N 0.65764 0.84469 0.2372 0.0
N1889 N 0.74757 0.80213 0.2765 0.0
C1890 C 0.67997 0.83481 0.24677 0.0
C1891 C 0.72467 0.81159 0.26859 0.0
N1892 N 0.68509 0.87408 0.27765 0.0
N1893 N 0.71805 0.77121 0.23994 0.0
H1894 H 0.7586 0.81292 0.29013 0.0
H1895 H 0.75679 0.78545 0.26736 0.0
H1896 H 0.70904 0.76054 0.22432 0.0
H1897 H 0.73094 0.75913 0.25085 0.0
H1898 H 0.67047 0.88547 0.26901 0.0
H1899 H 0.69443 0.88482 0.29298 0.0
H1900 H 0.64796 0.86141 0.24562 0.0
H1901 H 0.64775 0.83467 0.2218 0.0
C1902 C 0.73142 0.21941 0.75346 0.0
C1903 C 0.72091 0.19676 0.7394 0.0
C1904 C 0.68485 0.20137 0.77054 0.0
C1905 C 0.69651 0.22217 0.78631 0.0
N1906 N 0.73381 0.24631 0.79546 0.0
N1907 N 0.68956 0.16269 0.73879 0.0
C1908 C 0.72063 0.22984 0.77844 0.0
C1909 C 0.69824 0.18664 0.74942 0.0
N1910 N 0.75131 0.23177 0.74246 0.0
N1911 N 0.66081 0.19568 0.77573 0.0
H1912 H 0.69899 0.15144 0.72366 0.0
H1913 H 0.67442 0.15273 0.74671 0.0
H1914 H 0.65063 0.20603 0.79087 0.0
H1915 H 0.65041 0.18265 0.76347 0.0
H1916 H 0.75811 0.25026 0.74987 0.0
H1917 H 0.75972 0.22454 0.72457 0.0
H1918 H 0.75246 0.2501 0.79275 0.0
H1919 H 0.72634 0.2544 0.81345 0.0
C1920 C 0.82645 0.77715 0.67799 0.0
C1921 C 0.817 0.80179 0.69052 0.0
C1922 C 0.84226 0.78975 0.7318 0.0
C1923 C 0.84865 0.76329 0.72101 0.0
N1924 N 0.84036 0.72978 0.68537 0.0
N1925 N 0.81254 0.82768 0.73271 0.0
C1926 C 0.83879 0.75634 0.69456 0.0
C1927 C 0.82355 0.80646 0.71865 0.0
N1928 N 0.82533 0.77413 0.65011 0.0
N1929 N 0.85528 0.80009 0.75352 0.0
H1930 H 0.79911 0.84046 0.72366 0.0
H1931 H 0.81493 0.83061 0.75382 0.0
H1932 H 0.87064 0.78982 0.76214 0.0
H1933 H 0.85282 0.82027 0.76057 0.0
H1934 H 0.83397 0.75766 0.63988 0.0
H1935 H 0.81808 0.78945 0.63714 0.0
H1936 H 0.83172 0.72342 0.66727 0.0
H1937 H 0.84779 0.71368 0.69725 0.0
C1938 C 0.77004 0.30795 0.21299 0.0
C1939 C 0.765 0.31335 0.18464 0.0
C1940 C 0.79142 0.35405 0.18801 0.0
C1941 C 0.79857 0.3469 0.21537 0.0
N1942 N 0.79888 0.31255 0.25112 0.0
N1943 N 0.77558 0.3385 0.14391 0.0
C1944 C 0.789 0.3226 0.22711 0.0
C1945 C 0.77705 0.33559 0.17184 0.0
N1946 N 0.75618 0.28958 0.22688 0.0
N1947 N 0.79803 0.37883 0.17754 0.0
H1948 H 0.76611 0.32487 0.1313 0.0
H1949 H 0.78585 0.35257 0.13304 0.0
H1950 H 0.80823 0.39293 0.18884 0.0
H1951 H 0.79137 0.38651 0.15882 0.0
H1952 H 0.75736 0.28695 0.24814 0.0
H1953 H 0.74188 0.27885 0.21769 0.0
H1954 H 0.79437 0.29356 0.25934 0.0
H1955 H 0.8135 0.32184 0.26121 0.0
C1956 C 0.22381 0.27114 0.73323 0.0
C1957 C 0.20198 0.28413 0.72235 0.0
C1958 C 0.20255 0.25057 0.68383 0.0
C1959 C 0.22425 0.23733 0.69479 0.0
N1960 N 0.25806 0.23807 0.72705 0.0
N1961 N 0.16769 0.28251 0.69071 0.0
C1962 C 0.2355 0.24844 0.71882 0.0
C1963 C 0.19055 0.27269 0.6986 0.0
N1964 N 0.23284 0.27994 0.75796 0.0
N1965 N 0.19386 0.2424 0.6587 0.0
H1966 H 0.15833 0.29827 0.70131 0.0
H1967 H 0.15702 0.27359 0.67537 0.0
H1968 H 0.20239 0.22664 0.64731 0.0
H1969 H 0.17966 0.25267 0.64799 0.0
H1970 H 0.24672 0.26953 0.76901 0.0
H1971 H 0.22504 0.29665 0.76863 0.0
H1972 H 0.26863 0.24636 0.74285 0.0
H1973 H 0.26736 0.22248 0.71623 0.0
C1974 C 0.27782 0.67654 0.19549 0.0
C1975 C 0.26641 0.6888 0.21898 0.0
C1976 C 0.28799 0.73175 0.20853 0.0
C1977 C 0.29655 0.72056 0.18308 0.0
N1978 N 0.2947 0.68354 0.1501 0.0
N1979 N 0.25687 0.73078 0.24408 0.0
C1980 C 0.28988 0.69332 0.17592 0.0
C1981 C 0.27041 0.71721 0.22444 0.0
N1982 N 0.27803 0.64857 0.19235 0.0
N1983 N 0.2976 0.75553 0.21841 0.0
H1984 H 0.24342 0.72134 0.25565 0.0
H1985 H 0.25736 0.75204 0.24697 0.0
H1986 H 0.3114 0.7658 0.20822 0.0
H1987 H 0.29381 0.76329 0.23798 0.0
H1988 H 0.28801 0.63828 0.17705 0.0
H1989 H 0.27056 0.63547 0.20687 0.0
H1990 H 0.28824 0.66483 0.14283 0.0
H1991 H 0.30288 0.69543 0.13503 0.0
C1992 C 0.82622 0.31674 0.32477 0.0
C1993 C 0.85161 0.30925 0.32048 0.0
C1994 C 0.84334 0.26449 0.34241 0.0
C1995 C 0.81898 0.2737 0.34955 0.0
N1996 N 0.79059 0.31254 0.35389 0.0
N1997 N 0.88524 0.27829 0.33388 0.0
C1998 C 0.81138 0.30094 0.34246 0.0
C1999 C 0.86047 0.28365 0.33159 0.0
N2000 N 0.81617 0.33947 0.31223 0.0
N2001 N 0.85012 0.23736 0.34528 0.0
H2002 H 0.89832 0.29249 0.32822 0.0
H2003 H 0.89262 0.26108 0.34414 0.0
H2004 H 0.83809 0.2226 0.35229 0.0
H2005 H 0.86687 0.22923 0.33807 0.0
H2006 H 0.82647 0.35145 0.29937 0.0
H2007 H 0.79734 0.34447 0.31219 0.0
H2008 H 0.78555 0.33329 0.35165 0.0
H2009 H 0.78001 0.30239 0.36829 0.0
C2010 C 0.29076 0.31824 0.80255 0.0
C2011 C 0.27775 0.34132 0.81436 0.0
C2012 C 0.30646 0.33847 0.85463 0.0
C2013 C 0.32028 0.31655 0.84209 0.0
N2014 N 0.32171 0.28107 0.80778 0.0
N2015 N 0.27583 0.37589 0.84997 0.0
C2016 C 0.3113 0.30523 0.81701 0.0
C2017 C 0.2862 0.35186 0.84014 0.0
N2018 N 0.28387 0.30906 0.77709 0.0
N2019 N 0.3125 0.34605 0.88089 0.0
H2020 H 0.26172 0.38677 0.83964 0.0
H2021 H 0.28259 0.38649 0.86694 0.0
H2022 H 0.32696 0.33651 0.89193 0.0
H2023 H 0.30197 0.35982 0.89267 0.0
H2024 H 0.29397 0.29461 0.76567 0.0
H2025 H 0.26862 0.31712 0.76634 0.0
H2026 H 0.31517 0.26985 0.7911 0.0
H2027 H 0.33565 0.27067 0.81874 0.0
C2028 C 0.21025 0.7899 0.31313 0.0
C2029 C 0.22973 0.78876 0.33355 0.0
C2030 C 0.2304 0.73833 0.32583 0.0
C2031 C 0.20793 0.73928 0.31001 0.0
N2032 N 0.17209 0.76851 0.30042 0.0
N2033 N 0.24883 0.75759 0.36669 0.0
C2034 C 0.19658 0.7658 0.30682 0.0
C2035 C 0.23738 0.76173 0.34191 0.0
N2036 N 0.20415 0.81369 0.29967 0.0
N2037 N 0.24487 0.71498 0.32651 0.0
H2038 H 0.25107 0.77348 0.3809 0.0
H2039 H 0.25308 0.73789 0.37424 0.0
H2040 H 0.24089 0.69781 0.31463 0.0
H2041 H 0.26186 0.71407 0.33681 0.0
H2042 H 0.19113 0.81442 0.28369 0.0
H2043 H 0.21352 0.83173 0.30258 0.0
H2044 H 0.16284 0.78765 0.29993 0.0
H2045 H 0.16062 0.75166 0.29918 0.0
C2046 C 0.79552 0.70546 0.80865 0.0
C2047 C 0.80803 0.68228 0.82109 0.0
C2048 C 0.77956 0.68747 0.8607 0.0
C2049 C 0.767 0.71038 0.84807 0.0
N2050 N 0.75719 0.73232 0.80492 0.0
N2051 N 0.80547 0.64613 0.85461 0.0
C2052 C 0.77333 0.71687 0.82056 0.0
C2053 C 0.79776 0.6716 0.84564 0.0
N2054 N 0.80474 0.71709 0.78561 0.0
N2055 N 0.77472 0.68126 0.88746 0.0
H2056 H 0.81843 0.63405 0.84392 0.0
H2057 H 0.79731 0.63606 0.87094 0.0
H2058 H 0.76185 0.69244 0.89913 0.0
H2059 H 0.78498 0.66663 0.89869 0.0
H2060 H 0.79813 0.73588 0.77776 0.0
H2061 H 0.81988 0.70882 0.77527 0.0
H2062 H 0.75964 0.73587 0.78399 0.0
H2063 H 0.73978 0.73835 0.81204 0.0
C2064 C 0.69701 0.84741 0.76138 0.0
C2065 C 0.72231 0.84212 0.75452 0.0
C2066 C 0.72393 0.80658 0.79084 0.0
C2067 C 0.69806 0.80935 0.79537 0.0
N2068 N 0.65928 0.83047 0.78139 0.0
N2069 N 0.7569 0.80985 0.75797 0.0
C2070 C 0.68437 0.82891 0.77915 0.0
C2071 C 0.73491 0.81971 0.76788 0.0
N2072 N 0.68539 0.8711 0.75242 0.0
N2073 N 0.7385 0.79255 0.80932 0.0
H2074 H 0.76442 0.81718 0.73987 0.0
H2075 H 0.76588 0.7922 0.76575 0.0
H2076 H 0.73125 0.78293 0.82639 0.0
H2077 H 0.75773 0.79253 0.80874 0.0
H2078 H 0.66784 0.87747 0.75879 0.0
H2079 H 0.69433 0.88595 0.74104 0.0
H2080 H 0.64798 0.84241 0.76837 0.0
H2081 H 0.64967 0.8179 0.79469 0.0
C2082 C 0.73269 0.19507 0.26242 0.0
C2083 C 0.72508 0.20441 0.28893 0.0
C2084 C 0.6922 0.2315 0.2642 0.0
C2085 C 0.7033 0.227 0.23815 0.0
N2086 N 0.74023 0.20931 0.21571 0.0
N2087 N 0.70107 0.24095 0.31177 0.0
C2088 C 0.7257 0.21066 0.2384 0.0
C2089 C 0.70612 0.22576 0.28883 0.0
N2090 N 0.74471 0.17023 0.25945 0.0
N2091 N 0.6678 0.23873 0.26605 0.0
H2092 H 0.71124 0.23894 0.32986 0.0
H2093 H 0.68821 0.25738 0.31154 0.0
H2094 H 0.65613 0.23953 0.24886 0.0
H2095 H 0.65889 0.24042 0.28495 0.0
H2096 H 0.74899 0.16201 0.24016 0.0
H2097 H 0.7477 0.15675 0.2759 0.0
H2098 H 0.75721 0.19862 0.21569 0.0
H2099 H 0.73637 0.22111 0.19826 0.0
C2100 C 0.33771 0.2109 0.73716 0.0
C2101 C 0.32332 0.19124 0.75104 0.0
C2102 C 0.34118 0.2071 0.7949 0.0
C2103 C 0.35858 0.22319 0.7806 0.0
N2104 N 0.37579 0.23585 0.73694 0.0
N2105 N 0.31498 0.1675 0.79335 0.0
C2106 C 0.35745 0.22391 0.75137 0.0
C2107 C 0.32601 0.18852 0.78001 0.0
N2108 N 0.33206 0.21792 0.71059 0.0
N2109 N 0.33834 0.21025 0.82264 0.0
H2110 H 0.30437 0.15296 0.78323 0.0
H2111 H 0.31844 0.16292 0.814 0.0
H2112 H 0.34814 0.22437 0.8343 0.0
H2113 H 0.32428 0.20109 0.83352 0.0
H2114 H 0.34046 0.23395 0.70036 0.0
H2115 H 0.31712 0.20989 0.69984 0.0
H2116 H 0.37708 0.23454 0.71559 0.0
H2117 H 0.39111 0.24448 0.74639 0.0
C2118 C 0.30886 0.84168 0.23656 0.0
C2119 C 0.31665 0.84367 0.26438 0.0
C2120 C 0.35714 0.82299 0.25055 0.0
C2121 C 0.34797 0.81688 0.22368 0.0
N2122 N 0.31227 0.81789 0.19332 0.0
N2123 N 0.3472 0.83029 0.29869 0.0
C2124 C 0.32287 0.8252 0.21764 0.0
C2125 C 0.34046 0.83243 0.27164 0.0
N2126 N 0.28893 0.85709 0.22743 0.0
N2127 N 0.38195 0.82229 0.25558 0.0
H2128 H 0.33542 0.8361 0.31466 0.0
H2129 H 0.36345 0.82012 0.30511 0.0
H2130 H 0.39485 0.81821 0.24022 0.0
H2131 H 0.38964 0.82894 0.27409 0.0
H2132 H 0.28404 0.8588 0.2067 0.0
H2133 H 0.27904 0.87081 0.23997 0.0
H2134 H 0.29345 0.82038 0.18909 0.0
H2135 H 0.32196 0.80693 0.17855 0.0
loop_
_geom_bond_atom_site_label_1
_geom_bond_atom_site_label_2
_geom_bond_distance
_geom_bond_site_symmetry_2
_ccdc_geom_bond_type
C0 C1 1.443 . S
C0 N4 1.376 . S
C0 C38 1.389 . S
C1 C0 1.443 . S
C1 C2 1.340 . S
C1 H41 0.951 . S
C2 C1 1.340 . S
C2 C3 1.439 . S
C2 H42 0.950 . S
C3 C2 1.439 . S
C3 N4 1.374 . S
C3 C37 1.395 . S
N4 C0 1.376 . S
N4 C3 1.374 . S
N4 Co5 2.008 . S
Co5 N4 2.008 . S
Co5 N6 1.995 . S
Co5 N11 2.008 . S
Co5 N16 1.995 . S
Co5 N21 2.282 . S
Co5 N27 2.282 . S
N6 Co5 1.995 . S
N6 C7 1.376 . S
N6 C10 1.383 . S
C7 N6 1.376 . S
C7 C8 1.446 . S
C7 C37 1.391 . S
C8 C7 1.446 . S
C8 C9 1.339 . S
C8 H43 0.949 . S
C9 C8 1.339 . S
C9 C10 1.439 . S
C9 H44 0.950 . S
C10 N6 1.383 . S
C10 C9 1.439 . S
C10 C39 1.392 . S
N11 Co5 2.008 . S
N11 C12 1.376 . S
N11 C15 1.374 . S
C12 N11 1.376 . S
C12 C13 1.443 . S
C12 C39 1.389 . S
C13 C12 1.443 . S
C13 C14 1.340 . S
C13 H45 0.951 . S
C14 C13 1.340 . S
C14 C15 1.439 . S
C14 H46 0.950 . S
C15 N11 1.374 . S
C15 C14 1.439 . S
C15 C40 1.395 . S
N16 Co5 1.995 . S
N16 C17 1.376 . S
N16 C20 1.383 . S
C17 N16 1.376 . S
C17 C18 1.446 . S
C17 C40 1.391 . S
C18 C17 1.446 . S
C18 C19 1.339 . S
C18 H47 0.949 . S
C19 C18 1.339 . S
C19 C20 1.439 . S
C19 H48 0.950 . S
C20 N16 1.383 . S
C20 C19 1.439 . S
C20 C38 1.392 . S
N21 Co5 2.282 . S
N21 C24 1.332 . S
N21 C26 1.332 . S
C22 C23 1.386 . S
C22 C25 1.388 . S
C23 C22 1.386 . S
C23 C24 1.382 . S
C23 H49 0.950 . S
C24 N21 1.332 . S
C24 C23 1.382 . S
C24 H35 0.952 . S
C25 C22 1.388 . S
C25 C26 1.382 . S
C25 H50 0.950 . S
C26 N21 1.332 . S
C26 C25 1.382 . S
C26 H36 0.948 . S
N27 Co5 2.282 . S
N27 C31 1.332 . S
N27 C32 1.332 . S
C28 C29 1.388 . S
C28 C32 1.382 . S
C28 H51 0.950 . S
C29 C28 1.388 . S
C29 C30 1.386 . S
C30 C29 1.386 . S
C30 C31 1.382 . S
C30 H52 0.950 . S
C31 N27 1.332 . S
C31 C30 1.382 . S
C31 H33 0.952 . S
C32 N27 1.332 . S
C32 C28 1.382 . S
C32 H34 0.948 . S
H33 C31 0.952 . S
H34 C32 0.948 . S
H35 C24 0.952 . S
H36 C26 0.948 . S
C37 C3 1.395 . S
C37 C7 1.391 . S
C38 C0 1.389 . S
C38 C20 1.392 . S
C39 C10 1.392 . S
C39 C12 1.389 . S
C40 C15 1.395 . S
C40 C17 1.391 . S
H41 C1 0.951 . S
H42 C2 0.950 . S
H43 C8 0.949 . S
H44 C9 0.950 . S
H45 C13 0.951 . S
H46 C14 0.950 . S
H47 C18 0.949 . S
H48 C19 0.950 . S
H49 C23 0.950 . S
H50 C25 0.950 . S
H51 C28 0.950 . S
H52 C30 0.950 . S
C53 C54 1.443 . S
C53 N57 1.376 . S
C53 C91 1.389 . S
C54 C53 1.443 . S
C54 C55 1.340 . S
C54 H94 0.951 . S
C55 C54 1.340 . S
C55 C56 1.439 . S
C55 H95 0.950 . S
C56 C55 1.439 . S
C56 N57 1.374 . S
C56 C90 1.395 . S
N57 C53 1.376 . S
N57 C56 1.374 . S
N57 Co58 2.008 . S
Co58 N57 2.008 . S
Co58 N59 1.995 . S
Co58 N64 2.008 . S
Co58 N69 1.995 . S
Co58 N74 2.282 . S
Co58 N80 2.282 . S
N59 Co58 1.995 . S
N59 C60 1.376 . S
N59 C63 1.383 . S
C60 N59 1.376 . S
C60 C61 1.446 . S
C60 C90 1.391 . S
C61 C60 1.446 . S
C61 C62 1.339 . S
C61 H96 0.949 . S
C62 C61 1.339 . S
C62 C63 1.439 . S
C62 H97 0.950 . S
C63 N59 1.383 . S
C63 C62 1.439 . S
C63 C92 1.392 . S
N64 Co58 2.008 . S
N64 C65 1.376 . S
N64 C68 1.374 . S
C65 N64 1.376 . S
C65 C66 1.443 . S
C65 C92 1.389 . S
C66 C65 1.443 . S
C66 C67 1.340 . S
C66 H98 0.951 . S
C67 C66 1.340 . S
C67 C68 1.439 . S
C67 H99 0.950 . S
C68 N64 1.374 . S
C68 C67 1.439 . S
C68 C93 1.395 . S
N69 Co58 1.995 . S
N69 C70 1.376 . S
N69 C73 1.383 . S
C70 N69 1.376 . S
C70 C71 1.446 . S
C70 C93 1.391 . S
C71 C70 1.446 . S
C71 C72 1.339 . S
C71 H100 0.949 . S
C72 C71 1.339 . S
C72 C73 1.439 . S
C72 H101 0.950 . S
C73 N69 1.383 . S
C73 C72 1.439 . S
C73 C91 1.392 . S
N74 Co58 2.282 . S
N74 C77 1.332 . S
N74 C79 1.332 . S
C75 C76 1.386 . S
C75 C78 1.388 . S
C76 C75 1.386 . S
C76 C77 1.382 . S
C76 H102 0.950 . S
C77 N74 1.332 . S
C77 C76 1.382 . S
C77 H88 0.952 . S
C78 C75 1.388 . S
C78 C79 1.382 . S
C78 H103 0.950 . S
C79 N74 1.332 . S
C79 C78 1.382 . S
C79 H89 0.948 . S
N80 Co58 2.282 . S
N80 C84 1.332 . S
N80 C85 1.332 . S
C81 C82 1.388 . S
C81 C85 1.382 . S
C81 H104 0.950 . S
C82 C81 1.388 . S
C82 C83 1.386 . S
C83 C82 1.386 . S
C83 C84 1.382 . S
C83 H105 0.950 . S
C84 N80 1.332 . S
C84 C83 1.382 . S
C84 H86 0.952 . S
C85 N80 1.332 . S
C85 C81 1.382 . S
C85 H87 0.948 . S
H86 C84 0.952 . S
H87 C85 0.948 . S
H88 C77 0.952 . S
H89 C79 0.948 . S
C90 C56 1.395 . S
C90 C60 1.391 . S
C91 C53 1.389 . S
C91 C73 1.392 . S
C92 C63 1.392 . S
C92 C65 1.389 . S
C93 C68 1.395 . S
C93 C70 1.391 . S
H94 C54 0.951 . S
H95 C55 0.950 . S
H96 C61 0.949 . S
H97 C62 0.950 . S
H98 C66 0.951 . S
H99 C67 0.950 . S
H100 C71 0.949 . S
H101 C72 0.950 . S
H102 C76 0.950 . S
H103 C78 0.950 . S
H104 C81 0.950 . S
H105 C83 0.950 . S
C106 C107 1.443 . S
C106 N110 1.376 . S
C106 C144 1.389 . S
C107 C106 1.443 . S
C107 C108 1.340 . S
C107 H147 0.951 . S
C108 C107 1.340 . S
C108 C109 1.439 . S
C108 H148 0.950 . S
C109 C108 1.439 . S
C109 N110 1.374 . S
C109 C143 1.395 . S
N110 C106 1.376 . S
N110 C109 1.374 . S
N110 Co111 2.008 . S
Co111 N110 2.008 . S
Co111 N112 1.995 . S
Co111 N117 2.008 . S
Co111 N122 1.995 . S
Co111 N127 2.282 . S
Co111 N133 2.282 . S
N112 Co111 1.995 . S
N112 C113 1.376 . S
N112 C116 1.383 . S
C113 N112 1.376 . S
C113 C114 1.446 . S
C113 C143 1.391 . S
C114 C113 1.446 . S
C114 C115 1.339 . S
C114 H149 0.949 . S
C115 C114 1.339 . S
C115 C116 1.439 . S
C115 H150 0.950 . S
C116 N112 1.383 . S
C116 C115 1.439 . S
C116 C145 1.392 . S
N117 Co111 2.008 . S
N117 C118 1.376 . S
N117 C121 1.374 . S
C118 N117 1.376 . S
C118 C119 1.443 . S
C118 C145 1.389 . S
C119 C118 1.443 . S
C119 C120 1.340 . S
C119 H151 0.951 . S
C120 C119 1.340 . S
C120 C121 1.439 . S
C120 H152 0.950 . S
C121 N117 1.374 . S
C121 C120 1.439 . S
C121 C146 1.395 . S
N122 Co111 1.995 . S
N122 C123 1.376 . S
N122 C126 1.383 . S
C123 N122 1.376 . S
C123 C124 1.446 . S
C123 C146 1.391 . S
C124 C123 1.446 . S
C124 C125 1.339 . S
C124 H153 0.949 . S
C125 C124 1.339 . S
C125 C126 1.439 . S
C125 H154 0.950 . S
C126 N122 1.383 . S
C126 C125 1.439 . S
C126 C144 1.392 . S
N127 Co111 2.282 . S
N127 C130 1.332 . S
N127 C132 1.332 . S
C128 C129 1.386 . S
C128 C131 1.388 . S
C129 C128 1.386 . S
C129 C130 1.382 . S
C129 H155 0.950 . S
C130 N127 1.332 . S
C130 C129 1.382 . S
C130 H141 0.952 . S
C131 C128 1.388 . S
C131 C132 1.382 . S
C131 H156 0.950 . S
C132 N127 1.332 . S
C132 C131 1.382 . S
C132 H142 0.948 . S
N133 Co111 2.282 . S
N133 C137 1.332 . S
N133 C138 1.332 . S
C134 C135 1.388 . S
C134 C138 1.382 . S
C134 H157 0.950 . S
C135 C134 1.388 . S
C135 C136 1.386 . S
C136 C135 1.386 . S
C136 C137 1.382 . S
C136 H158 0.950 . S
C137 N133 1.332 . S
C137 C136 1.382 . S
C137 H139 0.952 . S
C138 N133 1.332 . S
C138 C134 1.382 . S
C138 H140 0.948 . S
H139 C137 0.952 . S
H140 C138 0.948 . S
H141 C130 0.952 . S
H142 C132 0.948 . S
C143 C109 1.395 . S
C143 C113 1.391 . S
C144 C106 1.389 . S
C144 C126 1.392 . S
C145 C116 1.392 . S
C145 C118 1.389 . S
C146 C121 1.395 . S
C146 C123 1.391 . S
H147 C107 0.951 . S
H148 C108 0.950 . S
H149 C114 0.949 . S
H150 C115 0.950 . S
H151 C119 0.951 . S
H152 C120 0.950 . S
H153 C124 0.949 . S
H154 C125 0.950 . S
H155 C129 0.950 . S
H156 C131 0.950 . S
H157 C134 0.950 . S
H158 C136 0.950 . S
C159 C160 1.443 . S
C159 N163 1.376 . S
C159 C197 1.389 . S
C160 C159 1.443 . S
C160 C161 1.340 . S
C160 H200 0.951 . S
C161 C160 1.340 . S
C161 C162 1.439 . S
C161 H201 0.950 . S
C162 C161 1.439 . S
C162 N163 1.374 . S
C162 C196 1.395 . S
N163 C159 1.376 . S
N163 C162 1.374 . S
N163 Co164 2.008 . S
Co164 N163 2.008 . S
Co164 N165 1.995 . S
Co164 N170 2.008 . S
Co164 N175 1.995 . S
Co164 N180 2.282 . S
Co164 N186 2.282 . S
N165 Co164 1.995 . S
N165 C166 1.376 . S
N165 C169 1.383 . S
C166 N165 1.376 . S
C166 C167 1.446 . S
C166 C196 1.391 . S
C167 C166 1.446 . S
C167 C168 1.339 . S
C167 H202 0.949 . S
C168 C167 1.339 . S
C168 C169 1.439 . S
C168 H203 0.950 . S
C169 N165 1.383 . S
C169 C168 1.439 . S
C169 C198 1.392 . S
N170 Co164 2.008 . S
N170 C171 1.376 . S
N170 C174 1.374 . S
C171 N170 1.376 . S
C171 C172 1.443 . S
C171 C198 1.389 . S
C172 C171 1.443 . S
C172 C173 1.340 . S
C172 H204 0.951 . S
C173 C172 1.340 . S
C173 C174 1.439 . S
C173 H205 0.950 . S
C174 N170 1.374 . S
C174 C173 1.439 . S
C174 C199 1.395 . S
N175 Co164 1.995 . S
N175 C176 1.376 . S
N175 C179 1.383 . S
C176 N175 1.376 . S
C176 C177 1.446 . S
C176 C199 1.391 . S
C177 C176 1.446 . S
C177 C178 1.339 . S
C177 H206 0.949 . S
C178 C177 1.339 . S
C178 C179 1.439 . S
C178 H207 0.950 . S
C179 N175 1.383 . S
C179 C178 1.439 . S
C179 C197 1.392 . S
N180 Co164 2.282 . S
N180 C183 1.332 . S
N180 C185 1.332 . S
C181 C182 1.386 . S
C181 C184 1.388 . S
C182 C181 1.386 . S
C182 C183 1.382 . S
C182 H208 0.950 . S
C183 N180 1.332 . S
C183 C182 1.382 . S
C183 H194 0.952 . S
C184 C181 1.388 . S
C184 C185 1.382 . S
C184 H209 0.950 . S
C185 N180 1.332 . S
C185 C184 1.382 . S
C185 H195 0.948 . S
N186 Co164 2.282 . S
N186 C190 1.332 . S
N186 C191 1.332 . S
C187 C188 1.388 . S
C187 C191 1.382 . S
C187 H210 0.950 . S
C188 C187 1.388 . S
C188 C189 1.386 . S
C189 C188 1.386 . S
C189 C190 1.382 . S
C189 H211 0.950 . S
C190 N186 1.332 . S
C190 C189 1.382 . S
C190 H192 0.952 . S
C191 N186 1.332 . S
C191 C187 1.382 . S
C191 H193 0.948 . S
H192 C190 0.952 . S
H193 C191 0.948 . S
H194 C183 0.952 . S
H195 C185 0.948 . S
C196 C162 1.395 . S
C196 C166 1.391 . S
C197 C159 1.389 . S
C197 C179 1.392 . S
C198 C169 1.392 . S
C198 C171 1.389 . S
C199 C174 1.395 . S
C199 C176 1.391 . S
H200 C160 0.951 . S
H201 C161 0.950 . S
H202 C167 0.949 . S
H203 C168 0.950 . S
H204 C172 0.951 . S
H205 C173 0.950 . S
H206 C177 0.949 . S
H207 C178 0.950 . S
H208 C182 0.950 . S
H209 C184 0.950 . S
H210 C187 0.950 . S
H211 C189 0.950 . S
C212 C213 1.443 . S
C212 N216 1.376 . S
C212 C250 1.389 . S
C213 C212 1.443 . S
C213 C214 1.340 . S
C213 H253 0.951 . S
C214 C213 1.340 . S
C214 C215 1.439 . S
C214 H254 0.950 . S
C215 C214 1.439 . S
C215 N216 1.374 . S
C215 C249 1.395 . S
N216 C212 1.376 . S
N216 C215 1.374 . S
N216 Co217 2.008 . S
Co217 N216 2.008 . S
Co217 N218 1.995 . S
Co217 N223 2.008 . S
Co217 N228 1.995 . S
Co217 N233 2.282 . S
Co217 N239 2.282 . S
N218 Co217 1.995 . S
N218 C219 1.376 . S
N218 C222 1.383 . S
C219 N218 1.376 . S
C219 C220 1.446 . S
C219 C249 1.391 . S
C220 C219 1.446 . S
C220 C221 1.339 . S
C220 H255 0.949 . S
C221 C220 1.339 . S
C221 C222 1.439 . S
C221 H256 0.950 . S
C222 N218 1.383 . S
C222 C221 1.439 . S
C222 C251 1.392 . S
N223 Co217 2.008 . S
N223 C224 1.376 . S
N223 C227 1.374 . S
C224 N223 1.376 . S
C224 C225 1.443 . S
C224 C251 1.389 . S
C225 C224 1.443 . S
C225 C226 1.340 . S
C225 H257 0.951 . S
C226 C225 1.340 . S
C226 C227 1.439 . S
C226 H258 0.950 . S
C227 N223 1.374 . S
C227 C226 1.439 . S
C227 C252 1.395 . S
N228 Co217 1.995 . S
N228 C229 1.376 . S
N228 C232 1.383 . S
C229 N228 1.376 . S
C229 C230 1.446 . S
C229 C252 1.391 . S
C230 C229 1.446 . S
C230 C231 1.339 . S
C230 H259 0.949 . S
C231 C230 1.339 . S
C231 C232 1.439 . S
C231 H260 0.950 . S
C232 N228 1.383 . S
C232 C231 1.439 . S
C232 C250 1.392 . S
N233 Co217 2.282 . S
N233 C236 1.332 . S
N233 C238 1.332 . S
C234 C235 1.386 . S
C234 C237 1.388 . S
C235 C234 1.386 . S
C235 C236 1.382 . S
C235 H261 0.950 . S
C236 N233 1.332 . S
C236 C235 1.382 . S
C236 H247 0.952 . S
C237 C234 1.388 . S
C237 C238 1.382 . S
C237 H262 0.950 . S
C238 N233 1.332 . S
C238 C237 1.382 . S
C238 H248 0.948 . S
N239 Co217 2.282 . S
N239 C243 1.332 . S
N239 C244 1.332 . S
C240 C241 1.388 . S
C240 C244 1.382 . S
C240 H263 0.950 . S
C241 C240 1.388 . S
C241 C242 1.386 . S
C242 C241 1.386 . S
C242 C243 1.382 . S
C242 H264 0.950 . S
C243 N239 1.332 . S
C243 C242 1.382 . S
C243 H245 0.952 . S
C244 N239 1.332 . S
C244 C240 1.382 . S
C244 H246 0.948 . S
H245 C243 0.952 . S
H246 C244 0.948 . S
H247 C236 0.952 . S
H248 C238 0.948 . S
C249 C215 1.395 . S
C249 C219 1.391 . S
C250 C212 1.389 . S
C250 C232 1.392 . S
C251 C222 1.392 . S
C251 C224 1.389 . S
C252 C227 1.395 . S
C252 C229 1.391 . S
H253 C213 0.951 . S
H254 C214 0.950 . S
H255 C220 0.949 . S
H256 C221 0.950 . S
H257 C225 0.951 . S
H258 C226 0.950 . S
H259 C230 0.949 . S
H260 C231 0.950 . S
H261 C235 0.950 . S
H262 C237 0.950 . S
H263 C240 0.950 . S
H264 C242 0.950 . S
C265 C266 1.443 . S
C265 N269 1.376 . S
C265 C303 1.389 . S
C266 C265 1.443 . S
C266 C267 1.340 . S
C266 H306 0.951 . S
C267 C266 1.340 . S
C267 C268 1.439 . S
C267 H307 0.950 . S
C268 C267 1.439 . S
C268 N269 1.374 . S
C268 C302 1.395 . S
N269 C265 1.376 . S
N269 C268 1.374 . S
N269 Co270 2.008 . S
Co270 N269 2.008 . S
Co270 N271 1.995 . S
Co270 N276 2.008 . S
Co270 N281 1.995 . S
Co270 N286 2.282 . S
Co270 N292 2.282 . S
N271 Co270 1.995 . S
N271 C272 1.376 . S
N271 C275 1.383 . S
C272 N271 1.376 . S
C272 C273 1.446 . S
C272 C302 1.391 . S
C273 C272 1.446 . S
C273 C274 1.339 . S
C273 H308 0.949 . S
C274 C273 1.339 . S
C274 C275 1.439 . S
C274 H309 0.950 . S
C275 N271 1.383 . S
C275 C274 1.439 . S
C275 C304 1.392 . S
N276 Co270 2.008 . S
N276 C277 1.376 . S
N276 C280 1.374 . S
C277 N276 1.376 . S
C277 C278 1.443 . S
C277 C304 1.389 . S
C278 C277 1.443 . S
C278 C279 1.340 . S
C278 H310 0.951 . S
C279 C278 1.340 . S
C279 C280 1.439 . S
C279 H311 0.950 . S
C280 N276 1.374 . S
C280 C279 1.439 . S
C280 C305 1.395 . S
N281 Co270 1.995 . S
N281 C282 1.376 . S
N281 C285 1.383 . S
C282 N281 1.376 . S
C282 C283 1.446 . S
C282 C305 1.391 . S
C283 C282 1.446 . S
C283 C284 1.339 . S
C283 H312 0.949 . S
C284 C283 1.339 . S
C284 C285 1.439 . S
C284 H313 0.950 . S
C285 N281 1.383 . S
C285 C284 1.439 . S
C285 C303 1.392 . S
N286 Co270 2.282 . S
N286 C289 1.332 . S
N286 C291 1.332 . S
C287 C288 1.386 . S
C287 C290 1.388 . S
C288 C287 1.386 . S
C288 C289 1.382 . S
C288 H314 0.950 . S
C289 N286 1.332 . S
C289 C288 1.382 . S
C289 H300 0.952 . S
C290 C287 1.388 . S
C290 C291 1.382 . S
C290 H315 0.950 . S
C291 N286 1.332 . S
C291 C290 1.382 . S
C291 H301 0.948 . S
N292 Co270 2.282 . S
N292 C296 1.332 . S
N292 C297 1.332 . S
C293 C294 1.388 . S
C293 C297 1.382 . S
C293 H316 0.950 . S
C294 C293 1.388 . S
C294 C295 1.386 . S
C295 C294 1.386 . S
C295 C296 1.382 . S
C295 H317 0.950 . S
C296 N292 1.332 . S
C296 C295 1.382 . S
C296 H298 0.952 . S
C297 N292 1.332 . S
C297 C293 1.382 . S
C297 H299 0.948 . S
H298 C296 0.952 . S
H299 C297 0.948 . S
H300 C289 0.952 . S
H301 C291 0.948 . S
C302 C268 1.395 . S
C302 C272 1.391 . S
C303 C265 1.389 . S
C303 C285 1.392 . S
C304 C275 1.392 . S
C304 C277 1.389 . S
C305 C280 1.395 . S
C305 C282 1.391 . S
H306 C266 0.951 . S
H307 C267 0.950 . S
H308 C273 0.949 . S
H309 C274 0.950 . S
H310 C278 0.951 . S
H311 C279 0.950 . S
H312 C283 0.949 . S
H313 C284 0.950 . S
H314 C288 0.950 . S
H315 C290 0.950 . S
H316 C293 0.950 . S
H317 C295 0.950 . S
C318 C319 1.443 . S
C318 N322 1.376 . S
C318 C356 1.389 . S
C319 C318 1.443 . S
C319 C320 1.340 . S
C319 H359 0.951 . S
C320 C319 1.340 . S
C320 C321 1.439 . S
C320 H360 0.950 . S
C321 C320 1.439 . S
C321 N322 1.374 . S
C321 C355 1.395 . S
N322 C318 1.376 . S
N322 C321 1.374 . S
N322 Co323 2.008 . S
Co323 N322 2.008 . S
Co323 N324 1.995 . S
Co323 N329 2.008 . S
Co323 N334 1.995 . S
Co323 N339 2.282 . S
Co323 N345 2.282 . S
N324 Co323 1.995 . S
N324 C325 1.376 . S
N324 C328 1.383 . S
C325 N324 1.376 . S
C325 C326 1.446 . S
C325 C355 1.391 . S
C326 C325 1.446 . S
C326 C327 1.339 . S
C326 H361 0.949 . S
C327 C326 1.339 . S
C327 C328 1.439 . S
C327 H362 0.950 . S
C328 N324 1.383 . S
C328 C327 1.439 . S
C328 C357 1.392 . S
N329 Co323 2.008 . S
N329 C330 1.376 . S
N329 C333 1.374 . S
C330 N329 1.376 . S
C330 C331 1.443 . S
C330 C357 1.389 . S
C331 C330 1.443 . S
C331 C332 1.340 . S
C331 H363 0.951 . S
C332 C331 1.340 . S
C332 C333 1.439 . S
C332 H364 0.950 . S
C333 N329 1.374 . S
C333 C332 1.439 . S
C333 C358 1.395 . S
N334 Co323 1.995 . S
N334 C335 1.376 . S
N334 C338 1.383 . S
C335 N334 1.376 . S
C335 C336 1.446 . S
C335 C358 1.391 . S
C336 C335 1.446 . S
C336 C337 1.339 . S
C336 H365 0.949 . S
C337 C336 1.339 . S
C337 C338 1.439 . S
C337 H366 0.950 . S
C338 N334 1.383 . S
C338 C337 1.439 . S
C338 C356 1.392 . S
N339 Co323 2.282 . S
N339 C342 1.332 . S
N339 C344 1.332 . S
C340 C341 1.386 . S
C340 C343 1.388 . S
C341 C340 1.386 . S
C341 C342 1.382 . S
C341 H367 0.950 . S
C342 N339 1.332 . S
C342 C341 1.382 . S
C342 H353 0.952 . S
C343 C340 1.388 . S
C343 C344 1.382 . S
C343 H368 0.950 . S
C344 N339 1.332 . S
C344 C343 1.382 . S
C344 H354 0.948 . S
N345 Co323 2.282 . S
N345 C349 1.332 . S
N345 C350 1.332 . S
C346 C347 1.388 . S
C346 C350 1.382 . S
C346 H369 0.950 . S
C347 C346 1.388 . S
C347 C348 1.386 . S
C348 C347 1.386 . S
C348 C349 1.382 . S
C348 H370 0.950 . S
C349 N345 1.332 . S
C349 C348 1.382 . S
C349 H351 0.952 . S
C350 N345 1.332 . S
C350 C346 1.382 . S
C350 H352 0.948 . S
H351 C349 0.952 . S
H352 C350 0.948 . S
H353 C342 0.952 . S
H354 C344 0.948 . S
C355 C321 1.395 . S
C355 C325 1.391 . S
C356 C318 1.389 . S
C356 C338 1.392 . S
C357 C328 1.392 . S
C357 C330 1.389 . S
C358 C333 1.395 . S
C358 C335 1.391 . S
H359 C319 0.951 . S
H360 C320 0.950 . S
H361 C326 0.949 . S
H362 C327 0.950 . S
H363 C331 0.951 . S
H364 C332 0.950 . S
H365 C336 0.949 . S
H366 C337 0.950 . S
H367 C341 0.950 . S
H368 C343 0.950 . S
H369 C346 0.950 . S
H370 C348 0.950 . S
C371 C372 1.443 . S
C371 N375 1.376 . S
C371 C409 1.389 . S
C372 C371 1.443 . S
C372 C373 1.340 . S
C372 H412 0.951 . S
C373 C372 1.340 . S
C373 C374 1.439 . S
C373 H413 0.950 . S
C374 C373 1.439 . S
C374 N375 1.374 . S
C374 C408 1.395 . S
N375 C371 1.376 . S
N375 C374 1.374 . S
N375 Co376 2.008 . S
Co376 N375 2.008 . S
Co376 N377 1.995 . S
Co376 N382 2.008 . S
Co376 N387 1.995 . S
Co376 N392 2.282 . S
Co376 N398 2.282 . S
N377 Co376 1.995 . S
N377 C378 1.376 . S
N377 C381 1.383 . S
C378 N377 1.376 . S
C378 C379 1.446 . S
C378 C408 1.391 . S
C379 C378 1.446 . S
C379 C380 1.339 . S
C379 H414 0.949 . S
C380 C379 1.339 . S
C380 C381 1.439 . S
C380 H415 0.950 . S
C381 N377 1.383 . S
C381 C380 1.439 . S
C381 C410 1.392 . S
N382 Co376 2.008 . S
N382 C383 1.376 . S
N382 C386 1.374 . S
C383 N382 1.376 . S
C383 C384 1.443 . S
C383 C410 1.389 . S
C384 C383 1.443 . S
C384 C385 1.340 . S
C384 H416 0.951 . S
C385 C384 1.340 . S
C385 C386 1.439 . S
C385 H417 0.950 . S
C386 N382 1.374 . S
C386 C385 1.439 . S
C386 C411 1.395 . S
N387 Co376 1.995 . S
N387 C388 1.376 . S
N387 C391 1.383 . S
C388 N387 1.376 . S
C388 C389 1.446 . S
C388 C411 1.391 . S
C389 C388 1.446 . S
C389 C390 1.339 . S
C389 H418 0.949 . S
C390 C389 1.339 . S
C390 C391 1.439 . S
C390 H419 0.950 . S
C391 N387 1.383 . S
C391 C390 1.439 . S
C391 C409 1.392 . S
N392 Co376 2.282 . S
N392 C395 1.332 . S
N392 C397 1.332 . S
C393 C394 1.386 . S
C393 C396 1.388 . S
C394 C393 1.386 . S
C394 C395 1.382 . S
C394 H420 0.950 . S
C395 N392 1.332 . S
C395 C394 1.382 . S
C395 H406 0.952 . S
C396 C393 1.388 . S
C396 C397 1.382 . S
C396 H421 0.950 . S
C397 N392 1.332 . S
C397 C396 1.382 . S
C397 H407 0.948 . S
N398 Co376 2.282 . S
N398 C402 1.332 . S
N398 C403 1.332 . S
C399 C400 1.388 . S
C399 C403 1.382 . S
C399 H422 0.950 . S
C400 C399 1.388 . S
C400 C401 1.386 . S
C401 C400 1.386 . S
C401 C402 1.382 . S
C401 H423 0.950 . S
C402 N398 1.332 . S
C402 C401 1.382 . S
C402 H404 0.952 . S
C403 N398 1.332 . S
C403 C399 1.382 . S
C403 H405 0.948 . S
H404 C402 0.952 . S
H405 C403 0.948 . S
H406 C395 0.952 . S
H407 C397 0.948 . S
C408 C374 1.395 . S
C408 C378 1.391 . S
C409 C371 1.389 . S
C409 C391 1.392 . S
C410 C381 1.392 . S
C410 C383 1.389 . S
C411 C386 1.395 . S
C411 C388 1.391 . S
H412 C372 0.951 . S
H413 C373 0.950 . S
H414 C379 0.949 . S
H415 C380 0.950 . S
H416 C384 0.951 . S
H417 C385 0.950 . S
H418 C389 0.949 . S
H419 C390 0.950 . S
H420 C394 0.950 . S
H421 C396 0.950 . S
H422 C399 0.950 . S
H423 C401 0.950 . S
C424 C425 1.443 . S
C424 N428 1.376 . S
C424 C462 1.389 . S
C425 C424 1.443 . S
C425 C426 1.340 . S
C425 H465 0.951 . S
C426 C425 1.340 . S
C426 C427 1.439 . S
C426 H466 0.950 . S
C427 C426 1.439 . S
C427 N428 1.374 . S
C427 C461 1.395 . S
N428 C424 1.376 . S
N428 C427 1.374 . S
N428 Co429 2.008 . S
Co429 N428 2.008 . S
Co429 N430 1.995 . S
Co429 N435 2.008 . S
Co429 N440 1.995 . S
Co429 N445 2.282 . S
Co429 N451 2.282 . S
N430 Co429 1.995 . S
N430 C431 1.376 . S
N430 C434 1.383 . S
C431 N430 1.376 . S
C431 C432 1.446 . S
C431 C461 1.391 . S
C432 C431 1.446 . S
C432 C433 1.339 . S
C432 H467 0.949 . S
C433 C432 1.339 . S
C433 C434 1.439 . S
C433 H468 0.950 . S
C434 N430 1.383 . S
C434 C433 1.439 . S
C434 C463 1.392 . S
N435 Co429 2.008 . S
N435 C436 1.376 . S
N435 C439 1.374 . S
C436 N435 1.376 . S
C436 C437 1.443 . S
C436 C463 1.389 . S
C437 C436 1.443 . S
C437 C438 1.340 . S
C437 H469 0.951 . S
C438 C437 1.340 . S
C438 C439 1.439 . S
C438 H470 0.950 . S
C439 N435 1.374 . S
C439 C438 1.439 . S
C439 C464 1.395 . S
N440 Co429 1.995 . S
N440 C441 1.376 . S
N440 C444 1.383 . S
C441 N440 1.376 . S
C441 C442 1.446 . S
C441 C464 1.391 . S
C442 C441 1.446 . S
C442 C443 1.339 . S
C442 H471 0.949 . S
C443 C442 1.339 . S
C443 C444 1.439 . S
C443 H472 0.950 . S
C444 N440 1.383 . S
C444 C443 1.439 . S
C444 C462 1.392 . S
N445 Co429 2.282 . S
N445 C448 1.332 . S
N445 C450 1.332 . S
C446 C447 1.386 . S
C446 C449 1.388 . S
C447 C446 1.386 . S
C447 C448 1.382 . S
C447 H473 0.950 . S
C448 N445 1.332 . S
C448 C447 1.382 . S
C448 H459 0.952 . S
C449 C446 1.388 . S
C449 C450 1.382 . S
C449 H474 0.950 . S
C450 N445 1.332 . S
C450 C449 1.382 . S
C450 H460 0.948 . S
N451 Co429 2.282 . S
N451 C455 1.332 . S
N451 C456 1.332 . S
C452 C453 1.388 . S
C452 C456 1.382 . S
C452 H475 0.950 . S
C453 C452 1.388 . S
C453 C454 1.386 . S
C454 C453 1.386 . S
C454 C455 1.382 . S
C454 H476 0.950 . S
C455 N451 1.332 . S
C455 C454 1.382 . S
C455 H457 0.952 . S
C456 N451 1.332 . S
C456 C452 1.382 . S
C456 H458 0.948 . S
H457 C455 0.952 . S
H458 C456 0.948 . S
H459 C448 0.952 . S
H460 C450 0.948 . S
C461 C427 1.395 . S
C461 C431 1.391 . S
C462 C424 1.389 . S
C462 C444 1.392 . S
C463 C434 1.392 . S
C463 C436 1.389 . S
C464 C439 1.395 . S
C464 C441 1.391 . S
H465 C425 0.951 . S
H466 C426 0.950 . S
H467 C432 0.949 . S
H468 C433 0.950 . S
H469 C437 0.951 . S
H470 C438 0.950 . S
H471 C442 0.949 . S
H472 C443 0.950 . S
H473 C447 0.950 . S
H474 C449 0.950 . S
H475 C452 0.950 . S
H476 C454 0.950 . S
C477 C478 1.443 . S
C477 N481 1.376 . S
C477 C515 1.389 . S
C478 C477 1.443 . S
C478 C479 1.340 . S
C478 H518 0.951 . S
C479 C478 1.340 . S
C479 C480 1.439 . S
C479 H519 0.950 . S
C480 C479 1.439 . S
C480 N481 1.374 . S
C480 C514 1.395 . S
N481 C477 1.376 . S
N481 C480 1.374 . S
N481 Co482 2.008 . S
Co482 N481 2.008 . S
Co482 N483 1.995 . S
Co482 N488 2.008 . S
Co482 N493 1.995 . S
Co482 N498 2.282 . S
Co482 N504 2.282 . S
N483 Co482 1.995 . S
N483 C484 1.376 . S
N483 C487 1.383 . S
C484 N483 1.376 . S
C484 C485 1.446 . S
C484 C514 1.391 . S
C485 C484 1.446 . S
C485 C486 1.339 . S
C485 H520 0.949 . S
C486 C485 1.339 . S
C486 C487 1.439 . S
C486 H521 0.950 . S
C487 N483 1.383 . S
C487 C486 1.439 . S
C487 C516 1.392 . S
N488 Co482 2.008 . S
N488 C489 1.376 . S
N488 C492 1.374 . S
C489 N488 1.376 . S
C489 C490 1.443 . S
C489 C516 1.389 . S
C490 C489 1.443 . S
C490 C491 1.340 . S
C490 H522 0.951 . S
C491 C490 1.340 . S
C491 C492 1.439 . S
C491 H523 0.950 . S
C492 N488 1.374 . S
C492 C491 1.439 . S
C492 C517 1.395 . S
N493 Co482 1.995 . S
N493 C494 1.376 . S
N493 C497 1.383 . S
C494 N493 1.376 . S
C494 C495 1.446 . S
C494 C517 1.391 . S
C495 C494 1.446 . S
C495 C496 1.339 . S
C495 H524 0.949 . S
C496 C495 1.339 . S
C496 C497 1.439 . S
C496 H525 0.950 . S
C497 N493 1.383 . S
C497 C496 1.439 . S
C497 C515 1.392 . S
N498 Co482 2.282 . S
N498 C501 1.332 . S
N498 C503 1.332 . S
C499 C500 1.386 . S
C499 C502 1.388 . S
C500 C499 1.386 . S
C500 C501 1.382 . S
C500 H526 0.950 . S
C501 N498 1.332 . S
C501 C500 1.382 . S
C501 H512 0.952 . S
C502 C499 1.388 . S
C502 C503 1.382 . S
C502 H527 0.950 . S
C503 N498 1.332 . S
C503 C502 1.382 . S
C503 H513 0.948 . S
N504 Co482 2.282 . S
N504 C508 1.332 . S
N504 C509 1.332 . S
C505 C506 1.388 . S
C505 C509 1.382 . S
C505 H528 0.950 . S
C506 C505 1.388 . S
C506 C507 1.386 . S
C507 C506 1.386 . S
C507 C508 1.382 . S
C507 H529 0.950 . S
C508 N504 1.332 . S
C508 C507 1.382 . S
C508 H510 0.952 . S
C509 N504 1.332 . S
C509 C505 1.382 . S
C509 H511 0.948 . S
H510 C508 0.952 . S
H511 C509 0.948 . S
H512 C501 0.952 . S
H513 C503 0.948 . S
C514 C480 1.395 . S
C514 C484 1.391 . S
C515 C477 1.389 . S
C515 C497 1.392 . S
C516 C487 1.392 . S
C516 C489 1.389 . S
C517 C492 1.395 . S
C517 C494 1.391 . S
H518 C478 0.951 . S
H519 C479 0.950 . S
H520 C485 0.949 . S
H521 C486 0.950 . S
H522 C490 0.951 . S
H523 C491 0.950 . S
H524 C495 0.949 . S
H525 C496 0.950 . S
H526 C500 0.950 . S
H527 C502 0.950 . S
H528 C505 0.950 . S
H529 C507 0.950 . S
C530 C531 1.443 . S
C530 N534 1.376 . S
C530 C568 1.389 . S
C531 C530 1.443 . S
C531 C532 1.340 . S
C531 H571 0.951 . S
C532 C531 1.340 . S
C532 C533 1.439 . S
C532 H572 0.950 . S
C533 C532 1.439 . S
C533 N534 1.374 . S
C533 C567 1.395 . S
N534 C530 1.376 . S
N534 C533 1.374 . S
N534 Co535 2.008 . S
Co535 N534 2.008 . S
Co535 N536 1.995 . S
Co535 N541 2.008 . S
Co535 N546 1.995 . S
Co535 N551 2.282 . S
Co535 N557 2.282 . S
N536 Co535 1.995 . S
N536 C537 1.376 . S
N536 C540 1.383 . S
C537 N536 1.376 . S
C537 C538 1.446 . S
C537 C567 1.391 . S
C538 C537 1.446 . S
C538 C539 1.339 . S
C538 H573 0.949 . S
C539 C538 1.339 . S
C539 C540 1.439 . S
C539 H574 0.950 . S
C540 N536 1.383 . S
C540 C539 1.439 . S
C540 C569 1.392 . S
N541 Co535 2.008 . S
N541 C542 1.376 . S
N541 C545 1.374 . S
C542 N541 1.376 . S
C542 C543 1.443 . S
C542 C569 1.389 . S
C543 C542 1.443 . S
C543 C544 1.340 . S
C543 H575 0.951 . S
C544 C543 1.340 . S
C544 C545 1.439 . S
C544 H576 0.950 . S
C545 N541 1.374 . S
C545 C544 1.439 . S
C545 C570 1.395 . S
N546 Co535 1.995 . S
N546 C547 1.376 . S
N546 C550 1.383 . S
C547 N546 1.376 . S
C547 C548 1.446 . S
C547 C570 1.391 . S
C548 C547 1.446 . S
C548 C549 1.339 . S
C548 H577 0.949 . S
C549 C548 1.339 . S
C549 C550 1.439 . S
C549 H578 0.950 . S
C550 N546 1.383 . S
C550 C549 1.439 . S
C550 C568 1.392 . S
N551 Co535 2.282 . S
N551 C554 1.332 . S
N551 C556 1.332 . S
C552 C553 1.386 . S
C552 C555 1.388 . S
C553 C552 1.386 . S
C553 C554 1.382 . S
C553 H579 0.950 . S
C554 N551 1.332 . S
C554 C553 1.382 . S
C554 H565 0.952 . S
C555 C552 1.388 . S
C555 C556 1.382 . S
C555 H580 0.950 . S
C556 N551 1.332 . S
C556 C555 1.382 . S
C556 H566 0.948 . S
N557 Co535 2.282 . S
N557 C561 1.332 . S
N557 C562 1.332 . S
C558 C559 1.388 . S
C558 C562 1.382 . S
C558 H581 0.950 . S
C559 C558 1.388 . S
C559 C560 1.386 . S
C560 C559 1.386 . S
C560 C561 1.382 . S
C560 H582 0.950 . S
C561 N557 1.332 . S
C561 C560 1.382 . S
C561 H563 0.952 . S
C562 N557 1.332 . S
C562 C558 1.382 . S
C562 H564 0.948 . S
H563 C561 0.952 . S
H564 C562 0.948 . S
H565 C554 0.952 . S
H566 C556 0.948 . S
C567 C533 1.395 . S
C567 C537 1.391 . S
C568 C530 1.389 . S
C568 C550 1.392 . S
C569 C540 1.392 . S
C569 C542 1.389 . S
C570 C545 1.395 . S
C570 C547 1.391 . S
H571 C531 0.951 . S
H572 C532 0.950 . S
H573 C538 0.949 . S
H574 C539 0.950 . S
H575 C543 0.951 . S
H576 C544 0.950 . S
H577 C548 0.949 . S
H578 C549 0.950 . S
H579 C553 0.950 . S
H580 C555 0.950 . S
H581 C558 0.950 . S
H582 C560 0.950 . S
C583 C584 1.443 . S
C583 N587 1.376 . S
C583 C621 1.389 . S
C584 C583 1.443 . S
C584 C585 1.340 . S
C584 H624 0.951 . S
C585 C584 1.340 . S
C585 C586 1.439 . S
C585 H625 0.950 . S
C586 C585 1.439 . S
C586 N587 1.374 . S
C586 C620 1.395 . S
N587 C583 1.376 . S
N587 C586 1.374 . S
N587 Co588 2.008 . S
Co588 N587 2.008 . S
Co588 N589 1.995 . S
Co588 N594 2.008 . S
Co588 N599 1.995 . S
Co588 N604 2.282 . S
Co588 N610 2.282 . S
N589 Co588 1.995 . S
N589 C590 1.376 . S
N589 C593 1.383 . S
C590 N589 1.376 . S
C590 C591 1.446 . S
C590 C620 1.391 . S
C591 C590 1.446 . S
C591 C592 1.339 . S
C591 H626 0.949 . S
C592 C591 1.339 . S
C592 C593 1.439 . S
C592 H627 0.950 . S
C593 N589 1.383 . S
C593 C592 1.439 . S
C593 C622 1.392 . S
N594 Co588 2.008 . S
N594 C595 1.376 . S
N594 C598 1.374 . S
C595 N594 1.376 . S
C595 C596 1.443 . S
C595 C622 1.389 . S
C596 C595 1.443 . S
C596 C597 1.340 . S
C596 H628 0.951 . S
C597 C596 1.340 . S
C597 C598 1.439 . S
C597 H629 0.950 . S
C598 N594 1.374 . S
C598 C597 1.439 . S
C598 C623 1.395 . S
N599 Co588 1.995 . S
N599 C600 1.376 . S
N599 C603 1.383 . S
C600 N599 1.376 . S
C600 C601 1.446 . S
C600 C623 1.391 . S
C601 C600 1.446 . S
C601 C602 1.339 . S
C601 H630 0.949 . S
C602 C601 1.339 . S
C602 C603 1.439 . S
C602 H631 0.950 . S
C603 N599 1.383 . S
C603 C602 1.439 . S
C603 C621 1.392 . S
N604 Co588 2.282 . S
N604 C607 1.332 . S
N604 C609 1.332 . S
C605 C606 1.386 . S
C605 C608 1.388 . S
C606 C605 1.386 . S
C606 C607 1.382 . S
C606 H632 0.950 . S
C607 N604 1.332 . S
C607 C606 1.382 . S
C607 H618 0.952 . S
C608 C605 1.388 . S
C608 C609 1.382 . S
C608 H633 0.950 . S
C609 N604 1.332 . S
C609 C608 1.382 . S
C609 H619 0.948 . S
N610 Co588 2.282 . S
N610 C614 1.332 . S
N610 C615 1.332 . S
C611 C612 1.388 . S
C611 C615 1.382 . S
C611 H634 0.950 . S
C612 C611 1.388 . S
C612 C613 1.386 . S
C613 C612 1.386 . S
C613 C614 1.382 . S
C613 H635 0.950 . S
C614 N610 1.332 . S
C614 C613 1.382 . S
C614 H616 0.952 . S
C615 N610 1.332 . S
C615 C611 1.382 . S
C615 H617 0.948 . S
H616 C614 0.952 . S
H617 C615 0.948 . S
H618 C607 0.952 . S
H619 C609 0.948 . S
C620 C586 1.395 . S
C620 C590 1.391 . S
C621 C583 1.389 . S
C621 C603 1.392 . S
C622 C593 1.392 . S
C622 C595 1.389 . S
C623 C598 1.395 . S
C623 C600 1.391 . S
H624 C584 0.951 . S
H625 C585 0.950 . S
H626 C591 0.949 . S
H627 C592 0.950 . S
H628 C596 0.951 . S
H629 C597 0.950 . S
H630 C601 0.949 . S
H631 C602 0.950 . S
H632 C606 0.950 . S
H633 C608 0.950 . S
H634 C611 0.950 . S
H635 C613 0.950 . S
C636 C637 1.443 . S
C636 N640 1.376 . S
C636 C674 1.389 . S
C637 C636 1.443 . S
C637 C638 1.340 . S
C637 H677 0.951 . S
C638 C637 1.340 . S
C638 C639 1.439 . S
C638 H678 0.950 . S
C639 C638 1.439 . S
C639 N640 1.374 . S
C639 C673 1.395 . S
N640 C636 1.376 . S
N640 C639 1.374 . S
N640 Co641 2.008 . S
Co641 N640 2.008 . S
Co641 N642 1.995 . S
Co641 N647 2.008 . S
Co641 N652 1.995 . S
Co641 N657 2.282 . S
Co641 N663 2.282 . S
N642 Co641 1.995 . S
N642 C643 1.376 . S
N642 C646 1.383 . S
C643 N642 1.376 . S
C643 C644 1.446 . S
C643 C673 1.391 . S
C644 C643 1.446 . S
C644 C645 1.339 . S
C644 H679 0.949 . S
C645 C644 1.339 . S
C645 C646 1.439 . S
C645 H680 0.950 . S
C646 N642 1.383 . S
C646 C645 1.439 . S
C646 C675 1.392 . S
N647 Co641 2.008 . S
N647 C648 1.376 . S
N647 C651 1.374 . S
C648 N647 1.376 . S
C648 C649 1.443 . S
C648 C675 1.389 . S
C649 C648 1.443 . S
C649 C650 1.340 . S
C649 H681 0.951 . S
C650 C649 1.340 . S
C650 C651 1.439 . S
C650 H682 0.950 . S
C651 N647 1.374 . S
C651 C650 1.439 . S
C651 C676 1.395 . S
N652 Co641 1.995 . S
N652 C653 1.376 . S
N652 C656 1.383 . S
C653 N652 1.376 . S
C653 C654 1.446 . S
C653 C676 1.391 . S
C654 C653 1.446 . S
C654 C655 1.339 . S
C654 H683 0.949 . S
C655 C654 1.339 . S
C655 C656 1.439 . S
C655 H684 0.950 . S
C656 N652 1.383 . S
C656 C655 1.439 . S
C656 C674 1.392 . S
N657 Co641 2.282 . S
N657 C660 1.332 . S
N657 C662 1.332 . S
C658 C659 1.386 . S
C658 C661 1.388 . S
C659 C658 1.386 . S
C659 C660 1.382 . S
C659 H685 0.950 . S
C660 N657 1.332 . S
C660 C659 1.382 . S
C660 H671 0.952 . S
C661 C658 1.388 . S
C661 C662 1.382 . S
C661 H686 0.950 . S
C662 N657 1.332 . S
C662 C661 1.382 . S
C662 H672 0.948 . S
N663 Co641 2.282 . S
N663 C667 1.332 . S
N663 C668 1.332 . S
C664 C665 1.388 . S
C664 C668 1.382 . S
C664 H687 0.950 . S
C665 C664 1.388 . S
C665 C666 1.386 . S
C666 C665 1.386 . S
C666 C667 1.382 . S
C666 H688 0.950 . S
C667 N663 1.332 . S
C667 C666 1.382 . S
C667 H669 0.952 . S
C668 N663 1.332 . S
C668 C664 1.382 . S
C668 H670 0.948 . S
H669 C667 0.952 . S
H670 C668 0.948 . S
H671 C660 0.952 . S
H672 C662 0.948 . S
C673 C639 1.395 . S
C673 C643 1.391 . S
C674 C636 1.389 . S
C674 C656 1.392 . S
C675 C646 1.392 . S
C675 C648 1.389 . S
C676 C651 1.395 . S
C676 C653 1.391 . S
H677 C637 0.951 . S
H678 C638 0.950 . S
H679 C644 0.949 . S
H680 C645 0.950 . S
H681 C649 0.951 . S
H682 C650 0.950 . S
H683 C654 0.949 . S
H684 C655 0.950 . S
H685 C659 0.950 . S
H686 C661 0.950 . S
H687 C664 0.950 . S
H688 C666 0.950 . S
C689 C690 1.443 . S
C689 N693 1.376 . S
C689 C727 1.389 . S
C690 C689 1.443 . S
C690 C691 1.340 . S
C690 H730 0.951 . S
C691 C690 1.340 . S
C691 C692 1.439 . S
C691 H731 0.950 . S
C692 C691 1.439 . S
C692 N693 1.374 . S
C692 C726 1.395 . S
N693 C689 1.376 . S
N693 C692 1.374 . S
N693 Co694 2.008 . S
Co694 N693 2.008 . S
Co694 N695 1.995 . S
Co694 N700 2.008 . S
Co694 N705 1.995 . S
Co694 N710 2.282 . S
Co694 N716 2.282 . S
N695 Co694 1.995 . S
N695 C696 1.376 . S
N695 C699 1.383 . S
C696 N695 1.376 . S
C696 C697 1.446 . S
C696 C726 1.391 . S
C697 C696 1.446 . S
C697 C698 1.339 . S
C697 H732 0.949 . S
C698 C697 1.339 . S
C698 C699 1.439 . S
C698 H733 0.950 . S
C699 N695 1.383 . S
C699 C698 1.439 . S
C699 C728 1.392 . S
N700 Co694 2.008 . S
N700 C701 1.376 . S
N700 C704 1.374 . S
C701 N700 1.376 . S
C701 C702 1.443 . S
C701 C728 1.389 . S
C702 C701 1.443 . S
C702 C703 1.340 . S
C702 H734 0.951 . S
C703 C702 1.340 . S
C703 C704 1.439 . S
C703 H735 0.950 . S
C704 N700 1.374 . S
C704 C703 1.439 . S
C704 C729 1.395 . S
N705 Co694 1.995 . S
N705 C706 1.376 . S
N705 C709 1.383 . S
C706 N705 1.376 . S
C706 C707 1.446 . S
C706 C729 1.391 . S
C707 C706 1.446 . S
C707 C708 1.339 . S
C707 H736 0.949 . S
C708 C707 1.339 . S
C708 C709 1.439 . S
C708 H737 0.950 . S
C709 N705 1.383 . S
C709 C708 1.439 . S
C709 C727 1.392 . S
N710 Co694 2.282 . S
N710 C713 1.332 . S
N710 C715 1.332 . S
C711 C712 1.386 . S
C711 C714 1.388 . S
C712 C711 1.386 . S
C712 C713 1.382 . S
C712 H738 0.950 . S
C713 N710 1.332 . S
C713 C712 1.382 . S
C713 H724 0.952 . S
C714 C711 1.388 . S
C714 C715 1.382 . S
C714 H739 0.950 . S
C715 N710 1.332 . S
C715 C714 1.382 . S
C715 H725 0.948 . S
N716 Co694 2.282 . S
N716 C720 1.332 . S
N716 C721 1.332 . S
C717 C718 1.388 . S
C717 C721 1.382 . S
C717 H740 0.950 . S
C718 C717 1.388 . S
C718 C719 1.386 . S
C719 C718 1.386 . S
C719 C720 1.382 . S
C719 H741 0.950 . S
C720 N716 1.332 . S
C720 C719 1.382 . S
C720 H722 0.952 . S
C721 N716 1.332 . S
C721 C717 1.382 . S
C721 H723 0.948 . S
H722 C720 0.952 . S
H723 C721 0.948 . S
H724 C713 0.952 . S
H725 C715 0.948 . S
C726 C692 1.395 . S
C726 C696 1.391 . S
C727 C689 1.389 . S
C727 C709 1.392 . S
C728 C699 1.392 . S
C728 C701 1.389 . S
C729 C704 1.395 . S
C729 C706 1.391 . S
H730 C690 0.951 . S
H731 C691 0.950 . S
H732 C697 0.949 . S
H733 C698 0.950 . S
H734 C702 0.951 . S
H735 C703 0.950 . S
H736 C707 0.949 . S
H737 C708 0.950 . S
H738 C712 0.950 . S
H739 C714 0.950 . S
H740 C717 0.950 . S
H741 C719 0.950 . S
C742 C743 1.443 . S
C742 N746 1.376 . S
C742 C780 1.389 . S
C743 C742 1.443 . S
C743 C744 1.340 . S
C743 H783 0.951 . S
C744 C743 1.340 . S
C744 C745 1.439 . S
C744 H784 0.950 . S
C745 C744 1.439 . S
C745 N746 1.374 . S
C745 C779 1.395 . S
N746 C742 1.376 . S
N746 C745 1.374 . S
N746 Co747 2.008 . S
Co747 N746 2.008 . S
Co747 N748 1.995 . S
Co747 N753 2.008 . S
Co747 N758 1.995 . S
Co747 N763 2.282 . S
Co747 N769 2.282 . S
N748 Co747 1.995 . S
N748 C749 1.376 . S
N748 C752 1.383 . S
C749 N748 1.376 . S
C749 C750 1.446 . S
C749 C779 1.391 . S
C750 C749 1.446 . S
C750 C751 1.339 . S
C750 H785 0.949 . S
C751 C750 1.339 . S
C751 C752 1.439 . S
C751 H786 0.950 . S
C752 N748 1.383 . S
C752 C751 1.439 . S
C752 C781 1.392 . S
N753 Co747 2.008 . S
N753 C754 1.376 . S
N753 C757 1.374 . S
C754 N753 1.376 . S
C754 C755 1.443 . S
C754 C781 1.389 . S
C755 C754 1.443 . S
C755 C756 1.340 . S
C755 H787 0.951 . S
C756 C755 1.340 . S
C756 C757 1.439 . S
C756 H788 0.950 . S
C757 N753 1.374 . S
C757 C756 1.439 . S
C757 C782 1.395 . S
N758 Co747 1.995 . S
N758 C759 1.376 . S
N758 C762 1.383 . S
C759 N758 1.376 . S
C759 C760 1.446 . S
C759 C782 1.391 . S
C760 C759 1.446 . S
C760 C761 1.339 . S
C760 H789 0.949 . S
C761 C760 1.339 . S
C761 C762 1.439 . S
C761 H790 0.950 . S
C762 N758 1.383 . S
C762 C761 1.439 . S
C762 C780 1.392 . S
N763 Co747 2.282 . S
N763 C766 1.332 . S
N763 C768 1.332 . S
C764 C765 1.386 . S
C764 C767 1.388 . S
C765 C764 1.386 . S
C765 C766 1.382 . S
C765 H791 0.950 . S
C766 N763 1.332 . S
C766 C765 1.382 . S
C766 H777 0.952 . S
C767 C764 1.388 . S
C767 C768 1.382 . S
C767 H792 0.950 . S
C768 N763 1.332 . S
C768 C767 1.382 . S
C768 H778 0.948 . S
N769 Co747 2.282 . S
N769 C773 1.332 . S
N769 C774 1.332 . S
C770 C771 1.388 . S
C770 C774 1.382 . S
C770 H793 0.950 . S
C771 C770 1.388 . S
C771 C772 1.386 . S
C772 C771 1.386 . S
C772 C773 1.382 . S
C772 H794 0.950 . S
C773 N769 1.332 . S
C773 C772 1.382 . S
C773 H775 0.952 . S
C774 N769 1.332 . S
C774 C770 1.382 . S
C774 H776 0.948 . S
H775 C773 0.952 . S
H776 C774 0.948 . S
H777 C766 0.952 . S
H778 C768 0.948 . S
C779 C745 1.395 . S
C779 C749 1.391 . S
C780 C742 1.389 . S
C780 C762 1.392 . S
C781 C752 1.392 . S
C781 C754 1.389 . S
C782 C757 1.395 . S
C782 C759 1.391 . S
H783 C743 0.951 . S
H784 C744 0.950 . S
H785 C750 0.949 . S
H786 C751 0.950 . S
H787 C755 0.951 . S
H788 C756 0.950 . S
H789 C760 0.949 . S
H790 C761 0.950 . S
H791 C765 0.950 . S
H792 C767 0.950 . S
H793 C770 0.950 . S
H794 C772 0.950 . S
C795 C796 1.443 . S
C795 N799 1.376 . S
C795 C833 1.389 . S
C796 C795 1.443 . S
C796 C797 1.340 . S
C796 H836 0.951 . S
C797 C796 1.340 . S
C797 C798 1.439 . S
C797 H837 0.950 . S
C798 C797 1.439 . S
C798 N799 1.374 . S
C798 C832 1.395 . S
N799 C795 1.376 . S
N799 C798 1.374 . S
N799 Co800 2.008 . S
Co800 N799 2.008 . S
Co800 N801 1.995 . S
Co800 N806 2.008 . S
Co800 N811 1.995 . S
Co800 N816 2.282 . S
Co800 N822 2.282 . S
N801 Co800 1.995 . S
N801 C802 1.376 . S
N801 C805 1.383 . S
C802 N801 1.376 . S
C802 C803 1.446 . S
C802 C832 1.391 . S
C803 C802 1.446 . S
C803 C804 1.339 . S
C803 H838 0.949 . S
C804 C803 1.339 . S
C804 C805 1.439 . S
C804 H839 0.950 . S
C805 N801 1.383 . S
C805 C804 1.439 . S
C805 C834 1.392 . S
N806 Co800 2.008 . S
N806 C807 1.376 . S
N806 C810 1.374 . S
C807 N806 1.376 . S
C807 C808 1.443 . S
C807 C834 1.389 . S
C808 C807 1.443 . S
C808 C809 1.340 . S
C808 H840 0.951 . S
C809 C808 1.340 . S
C809 C810 1.439 . S
C809 H841 0.950 . S
C810 N806 1.374 . S
C810 C809 1.439 . S
C810 C835 1.395 . S
N811 Co800 1.995 . S
N811 C812 1.376 . S
N811 C815 1.383 . S
C812 N811 1.376 . S
C812 C813 1.446 . S
C812 C835 1.391 . S
C813 C812 1.446 . S
C813 C814 1.339 . S
C813 H842 0.949 . S
C814 C813 1.339 . S
C814 C815 1.439 . S
C814 H843 0.950 . S
C815 N811 1.383 . S
C815 C814 1.439 . S
C815 C833 1.392 . S
N816 Co800 2.282 . S
N816 C819 1.332 . S
N816 C821 1.332 . S
C817 C818 1.386 . S
C817 C820 1.388 . S
C818 C817 1.386 . S
C818 C819 1.382 . S
C818 H844 0.950 . S
C819 N816 1.332 . S
C819 C818 1.382 . S
C819 H830 0.952 . S
C820 C817 1.388 . S
C820 C821 1.382 . S
C820 H845 0.950 . S
C821 N816 1.332 . S
C821 C820 1.382 . S
C821 H831 0.948 . S
N822 Co800 2.282 . S
N822 C826 1.332 . S
N822 C827 1.332 . S
C823 C824 1.388 . S
C823 C827 1.382 . S
C823 H846 0.950 . S
C824 C823 1.388 . S
C824 C825 1.386 . S
C825 C824 1.386 . S
C825 C826 1.382 . S
C825 H847 0.950 . S
C826 N822 1.332 . S
C826 C825 1.382 . S
C826 H828 0.952 . S
C827 N822 1.332 . S
C827 C823 1.382 . S
C827 H829 0.948 . S
H828 C826 0.952 . S
H829 C827 0.948 . S
H830 C819 0.952 . S
H831 C821 0.948 . S
C832 C798 1.395 . S
C832 C802 1.391 . S
C833 C795 1.389 . S
C833 C815 1.392 . S
C834 C805 1.392 . S
C834 C807 1.389 . S
C835 C810 1.395 . S
C835 C812 1.391 . S
H836 C796 0.951 . S
H837 C797 0.950 . S
H838 C803 0.949 . S
H839 C804 0.950 . S
H840 C808 0.951 . S
H841 C809 0.950 . S
H842 C813 0.949 . S
H843 C814 0.950 . S
H844 C818 0.950 . S
H845 C820 0.950 . S
H846 C823 0.950 . S
H847 C825 0.950 . S
C848 C849 1.443 . S
C848 N852 1.376 . S
C848 C886 1.389 . S
C849 C848 1.443 . S
C849 C850 1.340 . S
C849 H889 0.951 . S
C850 C849 1.340 . S
C850 C851 1.439 . S
C850 H890 0.950 . S
C851 C850 1.439 . S
C851 N852 1.374 . S
C851 C885 1.395 . S
N852 C848 1.376 . S
N852 C851 1.374 . S
N852 Co853 2.008 . S
Co853 N852 2.008 . S
Co853 N854 1.995 . S
Co853 N859 2.008 . S
Co853 N864 1.995 . S
Co853 N869 2.282 . S
Co853 N875 2.282 . S
N854 Co853 1.995 . S
N854 C855 1.376 . S
N854 C858 1.383 . S
C855 N854 1.376 . S
C855 C856 1.446 . S
C855 C885 1.391 . S
C856 C855 1.446 . S
C856 C857 1.339 . S
C856 H891 0.949 . S
C857 C856 1.339 . S
C857 C858 1.439 . S
C857 H892 0.950 . S
C858 N854 1.383 . S
C858 C857 1.439 . S
C858 C887 1.392 . S
N859 Co853 2.008 . S
N859 C860 1.376 . S
N859 C863 1.374 . S
C860 N859 1.376 . S
C860 C861 1.443 . S
C860 C887 1.389 . S
C861 C860 1.443 . S
C861 C862 1.340 . S
C861 H893 0.951 . S
C862 C861 1.340 . S
C862 C863 1.439 . S
C862 H894 0.950 . S
C863 N859 1.374 . S
C863 C862 1.439 . S
C863 C888 1.395 . S
N864 Co853 1.995 . S
N864 C865 1.376 . S
N864 C868 1.383 . S
C865 N864 1.376 . S
C865 C866 1.446 . S
C865 C888 1.391 . S
C866 C865 1.446 . S
C866 C867 1.339 . S
C866 H895 0.949 . S
C867 C866 1.339 . S
C867 C868 1.439 . S
C867 H896 0.950 . S
C868 N864 1.383 . S
C868 C867 1.439 . S
C868 C886 1.392 . S
N869 Co853 2.282 . S
N869 C872 1.332 . S
N869 C874 1.332 . S
C870 C871 1.386 . S
C870 C873 1.388 . S
C871 C870 1.386 . S
C871 C872 1.382 . S
C871 H897 0.950 . S
C872 N869 1.332 . S
C872 C871 1.382 . S
C872 H883 0.952 . S
C873 C870 1.388 . S
C873 C874 1.382 . S
C873 H898 0.950 . S
C874 N869 1.332 . S
C874 C873 1.382 . S
C874 H884 0.948 . S
N875 Co853 2.282 . S
N875 C879 1.332 . S
N875 C880 1.332 . S
C876 C877 1.388 . S
C876 C880 1.382 . S
C876 H899 0.950 . S
C877 C876 1.388 . S
C877 C878 1.386 . S
C878 C877 1.386 . S
C878 C879 1.382 . S
C878 H900 0.950 . S
C879 N875 1.332 . S
C879 C878 1.382 . S
C879 H881 0.952 . S
C880 N875 1.332 . S
C880 C876 1.382 . S
C880 H882 0.948 . S
H881 C879 0.952 . S
H882 C880 0.948 . S
H883 C872 0.952 . S
H884 C874 0.948 . S
C885 C851 1.395 . S
C885 C855 1.391 . S
C886 C848 1.389 . S
C886 C868 1.392 . S
C887 C858 1.392 . S
C887 C860 1.389 . S
C888 C863 1.395 . S
C888 C865 1.391 . S
H889 C849 0.951 . S
H890 C850 0.950 . S
H891 C856 0.949 . S
H892 C857 0.950 . S
H893 C861 0.951 . S
H894 C862 0.950 . S
H895 C866 0.949 . S
H896 C867 0.950 . S
H897 C871 0.950 . S
H898 C873 0.950 . S
H899 C876 0.950 . S
H900 C878 0.950 . S
C901 C902 1.443 . S
C901 N905 1.376 . S
C901 C939 1.389 . S
C902 C901 1.443 . S
C902 C903 1.340 . S
C902 H942 0.951 . S
C903 C902 1.340 . S
C903 C904 1.439 . S
C903 H943 0.950 . S
C904 C903 1.439 . S
C904 N905 1.374 . S
C904 C938 1.395 . S
N905 C901 1.376 . S
N905 C904 1.374 . S
N905 Co906 2.008 . S
Co906 N905 2.008 . S
Co906 N907 1.995 . S
Co906 N912 2.008 . S
Co906 N917 1.995 . S
Co906 N922 2.282 . S
Co906 N928 2.282 . S
N907 Co906 1.995 . S
N907 C908 1.376 . S
N907 C911 1.383 . S
C908 N907 1.376 . S
C908 C909 1.446 . S
C908 C938 1.391 . S
C909 C908 1.446 . S
C909 C910 1.339 . S
C909 H944 0.949 . S
C910 C909 1.339 . S
C910 C911 1.439 . S
C910 H945 0.950 . S
C911 N907 1.383 . S
C911 C910 1.439 . S
C911 C940 1.392 . S
N912 Co906 2.008 . S
N912 C913 1.376 . S
N912 C916 1.374 . S
C913 N912 1.376 . S
C913 C914 1.443 . S
C913 C940 1.389 . S
C914 C913 1.443 . S
C914 C915 1.340 . S
C914 H946 0.951 . S
C915 C914 1.340 . S
C915 C916 1.439 . S
C915 H947 0.950 . S
C916 N912 1.374 . S
C916 C915 1.439 . S
C916 C941 1.395 . S
N917 Co906 1.995 . S
N917 C918 1.376 . S
N917 C921 1.383 . S
C918 N917 1.376 . S
C918 C919 1.446 . S
C918 C941 1.391 . S
C919 C918 1.446 . S
C919 C920 1.339 . S
C919 H948 0.949 . S
C920 C919 1.339 . S
C920 C921 1.439 . S
C920 H949 0.950 . S
C921 N917 1.383 . S
C921 C920 1.439 . S
C921 C939 1.392 . S
N922 Co906 2.282 . S
N922 C925 1.332 . S
N922 C927 1.332 . S
C923 C924 1.386 . S
C923 C926 1.388 . S
C924 C923 1.386 . S
C924 C925 1.382 . S
C924 H950 0.950 . S
C925 N922 1.332 . S
C925 C924 1.382 . S
C925 H936 0.952 . S
C926 C923 1.388 . S
C926 C927 1.382 . S
C926 H951 0.950 . S
C927 N922 1.332 . S
C927 C926 1.382 . S
C927 H937 0.948 . S
N928 Co906 2.282 . S
N928 C932 1.332 . S
N928 C933 1.332 . S
C929 C930 1.388 . S
C929 C933 1.382 . S
C929 H952 0.950 . S
C930 C929 1.388 . S
C930 C931 1.386 . S
C931 C930 1.386 . S
C931 C932 1.382 . S
C931 H953 0.950 . S
C932 N928 1.332 . S
C932 C931 1.382 . S
C932 H934 0.952 . S
C933 N928 1.332 . S
C933 C929 1.382 . S
C933 H935 0.948 . S
H934 C932 0.952 . S
H935 C933 0.948 . S
H936 C925 0.952 . S
H937 C927 0.948 . S
C938 C904 1.395 . S
C938 C908 1.391 . S
C939 C901 1.389 . S
C939 C921 1.392 . S
C940 C911 1.392 . S
C940 C913 1.389 . S
C941 C916 1.395 . S
C941 C918 1.391 . S
H942 C902 0.951 . S
H943 C903 0.950 . S
H944 C909 0.949 . S
H945 C910 0.950 . S
H946 C914 0.951 . S
H947 C915 0.950 . S
H948 C919 0.949 . S
H949 C920 0.950 . S
H950 C924 0.950 . S
H951 C926 0.950 . S
H952 C929 0.950 . S
H953 C931 0.950 . S
C954 C955 1.443 . S
C954 N958 1.376 . S
C954 C992 1.389 . S
C955 C954 1.443 . S
C955 C956 1.340 . S
C955 H995 0.951 . S
C956 C955 1.340 . S
C956 C957 1.439 . S
C956 H996 0.950 . S
C957 C956 1.439 . S
C957 N958 1.374 . S
C957 C991 1.395 . S
N958 C954 1.376 . S
N958 C957 1.374 . S
N958 Co959 2.008 . S
Co959 N958 2.008 . S
Co959 N960 1.995 . S
Co959 N965 2.008 . S
Co959 N970 1.995 . S
Co959 N975 2.282 . S
Co959 N981 2.282 . S
N960 Co959 1.995 . S
N960 C961 1.376 . S
N960 C964 1.383 . S
C961 N960 1.376 . S
C961 C962 1.446 . S
C961 C991 1.391 . S
C962 C961 1.446 . S
C962 C963 1.339 . S
C962 H997 0.949 . S
C963 C962 1.339 . S
C963 C964 1.439 . S
C963 H998 0.950 . S
C964 N960 1.383 . S
C964 C963 1.439 . S
C964 C993 1.392 . S
N965 Co959 2.008 . S
N965 C966 1.376 . S
N965 C969 1.374 . S
C966 N965 1.376 . S
C966 C967 1.443 . S
C966 C993 1.389 . S
C967 C966 1.443 . S
C967 C968 1.340 . S
C967 H999 0.951 . S
C968 C967 1.340 . S
C968 C969 1.439 . S
C968 H1000 0.950 . S
C969 N965 1.374 . S
C969 C968 1.439 . S
C969 C994 1.395 . S
N970 Co959 1.995 . S
N970 C971 1.376 . S
N970 C974 1.383 . S
C971 N970 1.376 . S
C971 C972 1.446 . S
C971 C994 1.391 . S
C972 C971 1.446 . S
C972 C973 1.339 . S
C972 H1001 0.949 . S
C973 C972 1.339 . S
C973 C974 1.439 . S
C973 H1002 0.950 . S
C974 N970 1.383 . S
C974 C973 1.439 . S
C974 C992 1.392 . S
N975 Co959 2.282 . S
N975 C978 1.332 . S
N975 C980 1.332 . S
C976 C977 1.386 . S
C976 C979 1.388 . S
C977 C976 1.386 . S
C977 C978 1.382 . S
C977 H1003 0.950 . S
C978 N975 1.332 . S
C978 C977 1.382 . S
C978 H989 0.952 . S
C979 C976 1.388 . S
C979 C980 1.382 . S
C979 H1004 0.950 . S
C980 N975 1.332 . S
C980 C979 1.382 . S
C980 H990 0.948 . S
N981 Co959 2.282 . S
N981 C985 1.332 . S
N981 C986 1.332 . S
C982 C983 1.388 . S
C982 C986 1.382 . S
C982 H1005 0.950 . S
C983 C982 1.388 . S
C983 C984 1.386 . S
C984 C983 1.386 . S
C984 C985 1.382 . S
C984 H1006 0.950 . S
C985 N981 1.332 . S
C985 C984 1.382 . S
C985 H987 0.952 . S
C986 N981 1.332 . S
C986 C982 1.382 . S
C986 H988 0.948 . S
H987 C985 0.952 . S
H988 C986 0.948 . S
H989 C978 0.952 . S
H990 C980 0.948 . S
C991 C957 1.395 . S
C991 C961 1.391 . S
C992 C954 1.389 . S
C992 C974 1.392 . S
C993 C964 1.392 . S
C993 C966 1.389 . S
C994 C969 1.395 . S
C994 C971 1.391 . S
H995 C955 0.951 . S
H996 C956 0.950 . S
H997 C962 0.949 . S
H998 C963 0.950 . S
H999 C967 0.951 . S
H1000 C968 0.950 . S
H1001 C972 0.949 . S
H1002 C973 0.950 . S
H1003 C977 0.950 . S
H1004 C979 0.950 . S
H1005 C982 0.950 . S
H1006 C984 0.950 . S
C1007 C1008 1.443 . S
C1007 N1011 1.376 . S
C1007 C1045 1.389 . S
C1008 C1007 1.443 . S
C1008 C1009 1.340 . S
C1008 H1048 0.951 . S
C1009 C1008 1.340 . S
C1009 C1010 1.439 . S
C1009 H1049 0.950 . S
C1010 C1009 1.439 . S
C1010 N1011 1.374 . S
C1010 C1044 1.395 . S
N1011 C1007 1.376 . S
N1011 C1010 1.374 . S
N1011 Co1012 2.008 . S
Co1012 N1011 2.008 . S
Co1012 N1013 1.995 . S
Co1012 N1018 2.008 . S
Co1012 N1023 1.995 . S
Co1012 N1028 2.282 . S
Co1012 N1034 2.282 . S
N1013 Co1012 1.995 . S
N1013 C1014 1.376 . S
N1013 C1017 1.383 . S
C1014 N1013 1.376 . S
C1014 C1015 1.446 . S
C1014 C1044 1.391 . S
C1015 C1014 1.446 . S
C1015 C1016 1.339 . S
C1015 H1050 0.949 . S
C1016 C1015 1.339 . S
C1016 C1017 1.439 . S
C1016 H1051 0.950 . S
C1017 N1013 1.383 . S
C1017 C1016 1.439 . S
C1017 C1046 1.392 . S
N1018 Co1012 2.008 . S
N1018 C1019 1.376 . S
N1018 C1022 1.374 . S
C1019 N1018 1.376 . S
C1019 C1020 1.443 . S
C1019 C1046 1.389 . S
C1020 C1019 1.443 . S
C1020 C1021 1.340 . S
C1020 H1052 0.951 . S
C1021 C1020 1.340 . S
C1021 C1022 1.439 . S
C1021 H1053 0.950 . S
C1022 N1018 1.374 . S
C1022 C1021 1.439 . S
C1022 C1047 1.395 . S
N1023 Co1012 1.995 . S
N1023 C1024 1.376 . S
N1023 C1027 1.383 . S
C1024 N1023 1.376 . S
C1024 C1025 1.446 . S
C1024 C1047 1.391 . S
C1025 C1024 1.446 . S
C1025 C1026 1.339 . S
C1025 H1054 0.949 . S
C1026 C1025 1.339 . S
C1026 C1027 1.439 . S
C1026 H1055 0.950 . S
C1027 N1023 1.383 . S
C1027 C1026 1.439 . S
C1027 C1045 1.392 . S
N1028 Co1012 2.282 . S
N1028 C1031 1.332 . S
N1028 C1033 1.332 . S
C1029 C1030 1.386 . S
C1029 C1032 1.388 . S
C1030 C1029 1.386 . S
C1030 C1031 1.382 . S
C1030 H1056 0.950 . S
C1031 N1028 1.332 . S
C1031 C1030 1.382 . S
C1031 H1042 0.952 . S
C1032 C1029 1.388 . S
C1032 C1033 1.382 . S
C1032 H1057 0.950 . S
C1033 N1028 1.332 . S
C1033 C1032 1.382 . S
C1033 H1043 0.948 . S
N1034 Co1012 2.282 . S
N1034 C1038 1.332 . S
N1034 C1039 1.332 . S
C1035 C1036 1.388 . S
C1035 C1039 1.382 . S
C1035 H1058 0.950 . S
C1036 C1035 1.388 . S
C1036 C1037 1.386 . S
C1037 C1036 1.386 . S
C1037 C1038 1.382 . S
C1037 H1059 0.950 . S
C1038 N1034 1.332 . S
C1038 C1037 1.382 . S
C1038 H1040 0.952 . S
C1039 N1034 1.332 . S
C1039 C1035 1.382 . S
C1039 H1041 0.948 . S
H1040 C1038 0.952 . S
H1041 C1039 0.948 . S
H1042 C1031 0.952 . S
H1043 C1033 0.948 . S
C1044 C1010 1.395 . S
C1044 C1014 1.391 . S
C1045 C1007 1.389 . S
C1045 C1027 1.392 . S
C1046 C1017 1.392 . S
C1046 C1019 1.389 . S
C1047 C1022 1.395 . S
C1047 C1024 1.391 . S
H1048 C1008 0.951 . S
H1049 C1009 0.950 . S
H1050 C1015 0.949 . S
H1051 C1016 0.950 . S
H1052 C1020 0.951 . S
H1053 C1021 0.950 . S
H1054 C1025 0.949 . S
H1055 C1026 0.950 . S
H1056 C1030 0.950 . S
H1057 C1032 0.950 . S
H1058 C1035 0.950 . S
H1059 C1037 0.950 . S
C1060 C1061 1.443 . S
C1060 N1064 1.376 . S
C1060 C1098 1.389 . S
C1061 C1060 1.443 . S
C1061 C1062 1.340 . S
C1061 H1101 0.951 . S
C1062 C1061 1.340 . S
C1062 C1063 1.439 . S
C1062 H1102 0.950 . S
C1063 C1062 1.439 . S
C1063 N1064 1.374 . S
C1063 C1097 1.395 . S
N1064 C1060 1.376 . S
N1064 C1063 1.374 . S
N1064 Co1065 2.008 . S
Co1065 N1064 2.008 . S
Co1065 N1066 1.995 . S
Co1065 N1071 2.008 . S
Co1065 N1076 1.995 . S
Co1065 N1081 2.282 . S
Co1065 N1087 2.282 . S
N1066 Co1065 1.995 . S
N1066 C1067 1.376 . S
N1066 C1070 1.383 . S
C1067 N1066 1.376 . S
C1067 C1068 1.446 . S
C1067 C1097 1.391 . S
C1068 C1067 1.446 . S
C1068 C1069 1.339 . S
C1068 H1103 0.949 . S
C1069 C1068 1.339 . S
C1069 C1070 1.439 . S
C1069 H1104 0.950 . S
C1070 N1066 1.383 . S
C1070 C1069 1.439 . S
C1070 C1099 1.392 . S
N1071 Co1065 2.008 . S
N1071 C1072 1.376 . S
N1071 C1075 1.374 . S
C1072 N1071 1.376 . S
C1072 C1073 1.443 . S
C1072 C1099 1.389 . S
C1073 C1072 1.443 . S
C1073 C1074 1.340 . S
C1073 H1105 0.951 . S
C1074 C1073 1.340 . S
C1074 C1075 1.439 . S
C1074 H1106 0.950 . S
C1075 N1071 1.374 . S
C1075 C1074 1.439 . S
C1075 C1100 1.395 . S
N1076 Co1065 1.995 . S
N1076 C1077 1.376 . S
N1076 C1080 1.383 . S
C1077 N1076 1.376 . S
C1077 C1078 1.446 . S
C1077 C1100 1.391 . S
C1078 C1077 1.446 . S
C1078 C1079 1.339 . S
C1078 H1107 0.949 . S
C1079 C1078 1.339 . S
C1079 C1080 1.439 . S
C1079 H1108 0.950 . S
C1080 N1076 1.383 . S
C1080 C1079 1.439 . S
C1080 C1098 1.392 . S
N1081 Co1065 2.282 . S
N1081 C1084 1.332 . S
N1081 C1086 1.332 . S
C1082 C1083 1.386 . S
C1082 C1085 1.388 . S
C1083 C1082 1.386 . S
C1083 C1084 1.382 . S
C1083 H1109 0.950 . S
C1084 N1081 1.332 . S
C1084 C1083 1.382 . S
C1084 H1095 0.952 . S
C1085 C1082 1.388 . S
C1085 C1086 1.382 . S
C1085 H1110 0.950 . S
C1086 N1081 1.332 . S
C1086 C1085 1.382 . S
C1086 H1096 0.948 . S
N1087 Co1065 2.282 . S
N1087 C1091 1.332 . S
N1087 C1092 1.332 . S
C1088 C1089 1.388 . S
C1088 C1092 1.382 . S
C1088 H1111 0.950 . S
C1089 C1088 1.388 . S
C1089 C1090 1.386 . S
C1090 C1089 1.386 . S
C1090 C1091 1.382 . S
C1090 H1112 0.950 . S
C1091 N1087 1.332 . S
C1091 C1090 1.382 . S
C1091 H1093 0.952 . S
C1092 N1087 1.332 . S
C1092 C1088 1.382 . S
C1092 H1094 0.948 . S
H1093 C1091 0.952 . S
H1094 C1092 0.948 . S
H1095 C1084 0.952 . S
H1096 C1086 0.948 . S
C1097 C1063 1.395 . S
C1097 C1067 1.391 . S
C1098 C1060 1.389 . S
C1098 C1080 1.392 . S
C1099 C1070 1.392 . S
C1099 C1072 1.389 . S
C1100 C1075 1.395 . S
C1100 C1077 1.391 . S
H1101 C1061 0.951 . S
H1102 C1062 0.950 . S
H1103 C1068 0.949 . S
H1104 C1069 0.950 . S
H1105 C1073 0.951 . S
H1106 C1074 0.950 . S
H1107 C1078 0.949 . S
H1108 C1079 0.950 . S
H1109 C1083 0.950 . S
H1110 C1085 0.950 . S
H1111 C1088 0.950 . S
H1112 C1090 0.950 . S
C1113 C1114 1.443 . S
C1113 N1117 1.376 . S
C1113 C1151 1.389 . S
C1114 C1113 1.443 . S
C1114 C1115 1.340 . S
C1114 H1154 0.951 . S
C1115 C1114 1.340 . S
C1115 C1116 1.439 . S
C1115 H1155 0.950 . S
C1116 C1115 1.439 . S
C1116 N1117 1.374 . S
C1116 C1150 1.395 . S
N1117 C1113 1.376 . S
N1117 C1116 1.374 . S
N1117 Co1118 2.008 . S
Co1118 N1117 2.008 . S
Co1118 N1119 1.995 . S
Co1118 N1124 2.008 . S
Co1118 N1129 1.995 . S
Co1118 N1134 2.282 . S
Co1118 N1140 2.282 . S
N1119 Co1118 1.995 . S
N1119 C1120 1.376 . S
N1119 C1123 1.383 . S
C1120 N1119 1.376 . S
C1120 C1121 1.446 . S
C1120 C1150 1.391 . S
C1121 C1120 1.446 . S
C1121 C1122 1.339 . S
C1121 H1156 0.949 . S
C1122 C1121 1.339 . S
C1122 C1123 1.439 . S
C1122 H1157 0.950 . S
C1123 N1119 1.383 . S
C1123 C1122 1.439 . S
C1123 C1152 1.392 . S
N1124 Co1118 2.008 . S
N1124 C1125 1.376 . S
N1124 C1128 1.374 . S
C1125 N1124 1.376 . S
C1125 C1126 1.443 . S
C1125 C1152 1.389 . S
C1126 C1125 1.443 . S
C1126 C1127 1.340 . S
C1126 H1158 0.951 . S
C1127 C1126 1.340 . S
C1127 C1128 1.439 . S
C1127 H1159 0.950 . S
C1128 N1124 1.374 . S
C1128 C1127 1.439 . S
C1128 C1153 1.395 . S
N1129 Co1118 1.995 . S
N1129 C1130 1.376 . S
N1129 C1133 1.383 . S
C1130 N1129 1.376 . S
C1130 C1131 1.446 . S
C1130 C1153 1.391 . S
C1131 C1130 1.446 . S
C1131 C1132 1.339 . S
C1131 H1160 0.949 . S
C1132 C1131 1.339 . S
C1132 C1133 1.439 . S
C1132 H1161 0.950 . S
C1133 N1129 1.383 . S
C1133 C1132 1.439 . S
C1133 C1151 1.392 . S
N1134 Co1118 2.282 . S
N1134 C1137 1.332 . S
N1134 C1139 1.332 . S
C1135 C1136 1.386 . S
C1135 C1138 1.388 . S
C1136 C1135 1.386 . S
C1136 C1137 1.382 . S
C1136 H1162 0.950 . S
C1137 N1134 1.332 . S
C1137 C1136 1.382 . S
C1137 H1148 0.952 . S
C1138 C1135 1.388 . S
C1138 C1139 1.382 . S
C1138 H1163 0.950 . S
C1139 N1134 1.332 . S
C1139 C1138 1.382 . S
C1139 H1149 0.948 . S
N1140 Co1118 2.282 . S
N1140 C1144 1.332 . S
N1140 C1145 1.332 . S
C1141 C1142 1.388 . S
C1141 C1145 1.382 . S
C1141 H1164 0.950 . S
C1142 C1141 1.388 . S
C1142 C1143 1.386 . S
C1143 C1142 1.386 . S
C1143 C1144 1.382 . S
C1143 H1165 0.950 . S
C1144 N1140 1.332 . S
C1144 C1143 1.382 . S
C1144 H1146 0.952 . S
C1145 N1140 1.332 . S
C1145 C1141 1.382 . S
C1145 H1147 0.948 . S
H1146 C1144 0.952 . S
H1147 C1145 0.948 . S
H1148 C1137 0.952 . S
H1149 C1139 0.948 . S
C1150 C1116 1.395 . S
C1150 C1120 1.391 . S
C1151 C1113 1.389 . S
C1151 C1133 1.392 . S
C1152 C1123 1.392 . S
C1152 C1125 1.389 . S
C1153 C1128 1.395 . S
C1153 C1130 1.391 . S
H1154 C1114 0.951 . S
H1155 C1115 0.950 . S
H1156 C1121 0.949 . S
H1157 C1122 0.950 . S
H1158 C1126 0.951 . S
H1159 C1127 0.950 . S
H1160 C1131 0.949 . S
H1161 C1132 0.950 . S
H1162 C1136 0.950 . S
H1163 C1138 0.950 . S
H1164 C1141 0.950 . S
H1165 C1143 0.950 . S
C1166 C1167 1.443 . S
C1166 N1170 1.376 . S
C1166 C1204 1.389 . S
C1167 C1166 1.443 . S
C1167 C1168 1.340 . S
C1167 H1207 0.951 . S
C1168 C1167 1.340 . S
C1168 C1169 1.439 . S
C1168 H1208 0.950 . S
C1169 C1168 1.439 . S
C1169 N1170 1.374 . S
C1169 C1203 1.395 . S
N1170 C1166 1.376 . S
N1170 C1169 1.374 . S
N1170 Co1171 2.008 . S
Co1171 N1170 2.008 . S
Co1171 N1172 1.995 . S
Co1171 N1177 2.008 . S
Co1171 N1182 1.995 . S
Co1171 N1187 2.282 . S
Co1171 N1193 2.282 . S
N1172 Co1171 1.995 . S
N1172 C1173 1.376 . S
N1172 C1176 1.383 . S
C1173 N1172 1.376 . S
C1173 C1174 1.446 . S
C1173 C1203 1.391 . S
C1174 C1173 1.446 . S
C1174 C1175 1.339 . S
C1174 H1209 0.949 . S
C1175 C1174 1.339 . S
C1175 C1176 1.439 . S
C1175 H1210 0.950 . S
C1176 N1172 1.383 . S
C1176 C1175 1.439 . S
C1176 C1205 1.392 . S
N1177 Co1171 2.008 . S
N1177 C1178 1.376 . S
N1177 C1181 1.374 . S
C1178 N1177 1.376 . S
C1178 C1179 1.443 . S
C1178 C1205 1.389 . S
C1179 C1178 1.443 . S
C1179 C1180 1.340 . S
C1179 H1211 0.951 . S
C1180 C1179 1.340 . S
C1180 C1181 1.439 . S
C1180 H1212 0.950 . S
C1181 N1177 1.374 . S
C1181 C1180 1.439 . S
C1181 C1206 1.395 . S
N1182 Co1171 1.995 . S
N1182 C1183 1.376 . S
N1182 C1186 1.383 . S
C1183 N1182 1.376 . S
C1183 C1184 1.446 . S
C1183 C1206 1.391 . S
C1184 C1183 1.446 . S
C1184 C1185 1.339 . S
C1184 H1213 0.949 . S
C1185 C1184 1.339 . S
C1185 C1186 1.439 . S
C1185 H1214 0.950 . S
C1186 N1182 1.383 . S
C1186 C1185 1.439 . S
C1186 C1204 1.392 . S
N1187 Co1171 2.282 . S
N1187 C1190 1.332 . S
N1187 C1192 1.332 . S
C1188 C1189 1.386 . S
C1188 C1191 1.388 . S
C1189 C1188 1.386 . S
C1189 C1190 1.382 . S
C1189 H1215 0.950 . S
C1190 N1187 1.332 . S
C1190 C1189 1.382 . S
C1190 H1201 0.952 . S
C1191 C1188 1.388 . S
C1191 C1192 1.382 . S
C1191 H1216 0.950 . S
C1192 N1187 1.332 . S
C1192 C1191 1.382 . S
C1192 H1202 0.948 . S
N1193 Co1171 2.282 . S
N1193 C1197 1.332 . S
N1193 C1198 1.332 . S
C1194 C1195 1.388 . S
C1194 C1198 1.382 . S
C1194 H1217 0.950 . S
C1195 C1194 1.388 . S
C1195 C1196 1.386 . S
C1196 C1195 1.386 . S
C1196 C1197 1.382 . S
C1196 H1218 0.950 . S
C1197 N1193 1.332 . S
C1197 C1196 1.382 . S
C1197 H1199 0.952 . S
C1198 N1193 1.332 . S
C1198 C1194 1.382 . S
C1198 H1200 0.948 . S
H1199 C1197 0.952 . S
H1200 C1198 0.948 . S
H1201 C1190 0.952 . S
H1202 C1192 0.948 . S
C1203 C1169 1.395 . S
C1203 C1173 1.391 . S
C1204 C1166 1.389 . S
C1204 C1186 1.392 . S
C1205 C1176 1.392 . S
C1205 C1178 1.389 . S
C1206 C1181 1.395 . S
C1206 C1183 1.391 . S
H1207 C1167 0.951 . S
H1208 C1168 0.950 . S
H1209 C1174 0.949 . S
H1210 C1175 0.950 . S
H1211 C1179 0.951 . S
H1212 C1180 0.950 . S
H1213 C1184 0.949 . S
H1214 C1185 0.950 . S
H1215 C1189 0.950 . S
H1216 C1191 0.950 . S
H1217 C1194 0.950 . S
H1218 C1196 0.950 . S
C1219 C1220 1.443 . S
C1219 N1223 1.376 . S
C1219 C1257 1.389 . S
C1220 C1219 1.443 . S
C1220 C1221 1.340 . S
C1220 H1260 0.951 . S
C1221 C1220 1.340 . S
C1221 C1222 1.439 . S
C1221 H1261 0.950 . S
C1222 C1221 1.439 . S
C1222 N1223 1.374 . S
C1222 C1256 1.395 . S
N1223 C1219 1.376 . S
N1223 C1222 1.374 . S
N1223 Co1224 2.008 . S
Co1224 N1223 2.008 . S
Co1224 N1225 1.995 . S
Co1224 N1230 2.008 . S
Co1224 N1235 1.995 . S
Co1224 N1240 2.282 . S
Co1224 N1246 2.282 . S
N1225 Co1224 1.995 . S
N1225 C1226 1.376 . S
N1225 C1229 1.383 . S
C1226 N1225 1.376 . S
C1226 C1227 1.446 . S
C1226 C1256 1.391 . S
C1227 C1226 1.446 . S
C1227 C1228 1.339 . S
C1227 H1262 0.949 . S
C1228 C1227 1.339 . S
C1228 C1229 1.439 . S
C1228 H1263 0.950 . S
C1229 N1225 1.383 . S
C1229 C1228 1.439 . S
C1229 C1258 1.392 . S
N1230 Co1224 2.008 . S
N1230 C1231 1.376 . S
N1230 C1234 1.374 . S
C1231 N1230 1.376 . S
C1231 C1232 1.443 . S
C1231 C1258 1.389 . S
C1232 C1231 1.443 . S
C1232 C1233 1.340 . S
C1232 H1264 0.951 . S
C1233 C1232 1.340 . S
C1233 C1234 1.439 . S
C1233 H1265 0.950 . S
C1234 N1230 1.374 . S
C1234 C1233 1.439 . S
C1234 C1259 1.395 . S
N1235 Co1224 1.995 . S
N1235 C1236 1.376 . S
N1235 C1239 1.383 . S
C1236 N1235 1.376 . S
C1236 C1237 1.446 . S
C1236 C1259 1.391 . S
C1237 C1236 1.446 . S
C1237 C1238 1.339 . S
C1237 H1266 0.949 . S
C1238 C1237 1.339 . S
C1238 C1239 1.439 . S
C1238 H1267 0.950 . S
C1239 N1235 1.383 . S
C1239 C1238 1.439 . S
C1239 C1257 1.392 . S
N1240 Co1224 2.282 . S
N1240 C1243 1.332 . S
N1240 C1245 1.332 . S
C1241 C1242 1.386 . S
C1241 C1244 1.388 . S
C1242 C1241 1.386 . S
C1242 C1243 1.382 . S
C1242 H1268 0.950 . S
C1243 N1240 1.332 . S
C1243 C1242 1.382 . S
C1243 H1254 0.952 . S
C1244 C1241 1.388 . S
C1244 C1245 1.382 . S
C1244 H1269 0.950 . S
C1245 N1240 1.332 . S
C1245 C1244 1.382 . S
C1245 H1255 0.948 . S
N1246 Co1224 2.282 . S
N1246 C1250 1.332 . S
N1246 C1251 1.332 . S
C1247 C1248 1.388 . S
C1247 C1251 1.382 . S
C1247 H1270 0.950 . S
C1248 C1247 1.388 . S
C1248 C1249 1.386 . S
C1249 C1248 1.386 . S
C1249 C1250 1.382 . S
C1249 H1271 0.950 . S
C1250 N1246 1.332 . S
C1250 C1249 1.382 . S
C1250 H1252 0.952 . S
C1251 N1246 1.332 . S
C1251 C1247 1.382 . S
C1251 H1253 0.948 . S
H1252 C1250 0.952 . S
H1253 C1251 0.948 . S
H1254 C1243 0.952 . S
H1255 C1245 0.948 . S
C1256 C1222 1.395 . S
C1256 C1226 1.391 . S
C1257 C1219 1.389 . S
C1257 C1239 1.392 . S
C1258 C1229 1.392 . S
C1258 C1231 1.389 . S
C1259 C1234 1.395 . S
C1259 C1236 1.391 . S
H1260 C1220 0.951 . S
H1261 C1221 0.950 . S
H1262 C1227 0.949 . S
H1263 C1228 0.950 . S
H1264 C1232 0.951 . S
H1265 C1233 0.950 . S
H1266 C1237 0.949 . S
H1267 C1238 0.950 . S
H1268 C1242 0.950 . S
H1269 C1244 0.950 . S
H1270 C1247 0.950 . S
H1271 C1249 0.950 . S
C1272 C1273 1.363 . S
C1272 C1278 1.379 . S
C1272 N1280 1.356 . S
C1273 C1272 1.363 . S
C1273 C1279 1.363 . S
C1274 C1275 1.363 . S
C1274 C1279 1.379 . S
C1274 N1281 1.356 . S
C1275 C1274 1.363 . S
C1275 C1278 1.363 . S
N1276 C1278 1.356 . S
N1276 H1288 0.984 . S
N1276 H1289 0.985 . S
N1277 C1279 1.356 . S
N1277 H1282 0.984 . S
N1277 H1283 0.985 . S
C1278 C1272 1.379 . S
C1278 C1275 1.363 . S
C1278 N1276 1.356 . S
C1279 C1273 1.363 . S
C1279 C1274 1.379 . S
C1279 N1277 1.356 . S
N1280 C1272 1.356 . S
N1280 H1286 0.984 . S
N1280 H1287 0.984 . S
N1281 C1274 1.356 . S
N1281 H1284 0.984 . S
N1281 H1285 0.985 . S
H1282 N1277 0.984 . S
H1283 N1277 0.985 . S
H1284 N1281 0.984 . S
H1285 N1281 0.985 . S
H1286 N1280 0.984 . S
H1287 N1280 0.984 . S
H1288 N1276 0.984 . S
H1289 N1276 0.985 . S
C1290 C1291 1.363 . S
C1290 C1296 1.379 . S
C1290 N1298 1.356 . S
C1291 C1290 1.363 . S
C1291 C1297 1.363 . S
C1292 C1293 1.363 1_655 S
C1292 C1297 1.379 . S
C1292 N1299 1.356 1_655 S
C1293 C1292 1.363 1_455 S
C1293 C1296 1.363 1_455 S
N1294 C1296 1.356 1_455 S
N1294 H1306 0.984 . S
N1294 H1307 0.985 . S
N1295 C1297 1.356 . S
N1295 H1300 0.984 . S
N1295 H1301 0.985 . S
C1296 C1290 1.379 . S
C1296 C1293 1.363 1_655 S
C1296 N1294 1.356 1_655 S
C1297 C1291 1.363 . S
C1297 C1292 1.379 . S
C1297 N1295 1.356 . S
N1298 C1290 1.356 . S
N1298 H1304 0.984 . S
N1298 H1305 0.984 . S
N1299 C1292 1.356 1_455 S
N1299 H1302 0.984 . S
N1299 H1303 0.985 . S
H1300 N1295 0.984 . S
H1301 N1295 0.985 . S
H1302 N1299 0.984 . S
H1303 N1299 0.985 . S
H1304 N1298 0.984 . S
H1305 N1298 0.984 . S
H1306 N1294 0.984 . S
H1307 N1294 0.985 . S
C1308 C1309 1.363 . S
C1308 C1314 1.379 . S
C1308 N1316 1.356 . S
C1309 C1308 1.363 . S
C1309 C1315 1.363 . S
C1310 C1311 1.363 . S
C1310 C1315 1.379 . S
C1310 N1317 1.356 . S
C1311 C1310 1.363 . S
C1311 C1314 1.363 . S
N1312 C1314 1.356 . S
N1312 H1324 0.984 . S
N1312 H1325 0.985 . S
N1313 C1315 1.356 . S
N1313 H1318 0.984 . S
N1313 H1319 0.985 . S
C1314 C1308 1.379 . S
C1314 C1311 1.363 . S
C1314 N1312 1.356 . S
C1315 C1309 1.363 . S
C1315 C1310 1.379 . S
C1315 N1313 1.356 . S
N1316 C1308 1.356 . S
N1316 H1322 0.984 . S
N1316 H1323 0.984 . S
N1317 C1310 1.356 . S
N1317 H1320 0.984 . S
N1317 H1321 0.985 . S
H1318 N1313 0.984 . S
H1319 N1313 0.985 . S
H1320 N1317 0.984 . S
H1321 N1317 0.985 . S
H1322 N1316 0.984 . S
H1323 N1316 0.984 . S
H1324 N1312 0.984 . S
H1325 N1312 0.985 . S
C1326 C1327 1.363 . S
C1326 C1332 1.379 1_455 S
C1326 N1334 1.356 . S
C1327 C1326 1.363 . S
C1327 C1333 1.363 . S
C1328 C1329 1.363 . S
C1328 C1333 1.379 1_655 S
C1328 N1335 1.356 . S
C1329 C1328 1.363 . S
C1329 C1332 1.363 . S
N1330 C1332 1.356 . S
N1330 H1342 0.984 . S
N1330 H1343 0.985 . S
N1331 C1333 1.356 . S
N1331 H1336 0.984 . S
N1331 H1337 0.985 . S
C1332 C1326 1.379 1_655 S
C1332 C1329 1.363 . S
C1332 N1330 1.356 . S
C1333 C1327 1.363 . S
C1333 C1328 1.379 1_455 S
C1333 N1331 1.356 . S
N1334 C1326 1.356 . S
N1334 H1340 0.984 . S
N1334 H1341 0.984 . S
N1335 C1328 1.356 . S
N1335 H1338 0.984 . S
N1335 H1339 0.985 . S
H1336 N1331 0.984 . S
H1337 N1331 0.985 . S
H1338 N1335 0.984 . S
H1339 N1335 0.985 . S
H1340 N1334 0.984 . S
H1341 N1334 0.984 . S
H1342 N1330 0.984 . S
H1343 N1330 0.985 . S
C1344 C1345 1.363 . S
C1344 C1350 1.379 . S
C1344 N1352 1.356 . S
C1345 C1344 1.363 . S
C1345 C1351 1.363 . S
C1346 C1347 1.363 . S
C1346 C1351 1.379 . S
C1346 N1353 1.356 . S
C1347 C1346 1.363 . S
C1347 C1350 1.363 . S
N1348 C1350 1.356 . S
N1348 H1360 0.984 . S
N1348 H1361 0.985 . S
N1349 C1351 1.356 . S
N1349 H1354 0.984 . S
N1349 H1355 0.985 . S
C1350 C1344 1.379 . S
C1350 C1347 1.363 . S
C1350 N1348 1.356 . S
C1351 C1345 1.363 . S
C1351 C1346 1.379 . S
C1351 N1349 1.356 . S
N1352 C1344 1.356 . S
N1352 H1358 0.984 . S
N1352 H1359 0.984 . S
N1353 C1346 1.356 . S
N1353 H1356 0.984 . S
N1353 H1357 0.985 . S
H1354 N1349 0.984 . S
H1355 N1349 0.985 . S
H1356 N1353 0.984 . S
H1357 N1353 0.985 . S
H1358 N1352 0.984 . S
H1359 N1352 0.984 . S
H1360 N1348 0.984 . S
H1361 N1348 0.985 . S
C1362 C1363 1.363 . S
C1362 C1368 1.379 1_655 S
C1362 N1370 1.356 . S
C1363 C1362 1.363 . S
C1363 C1369 1.363 . S
C1364 C1365 1.363 . S
C1364 C1369 1.379 1_455 S
C1364 N1371 1.356 . S
C1365 C1364 1.363 . S
C1365 C1368 1.363 . S
N1366 C1368 1.356 . S
N1366 H1378 0.984 . S
N1366 H1379 0.985 . S
N1367 C1369 1.356 . S
N1367 H1372 0.984 . S
N1367 H1373 0.985 . S
C1368 C1362 1.379 1_455 S
C1368 C1365 1.363 . S
C1368 N1366 1.356 . S
C1369 C1363 1.363 . S
C1369 C1364 1.379 1_655 S
C1369 N1367 1.356 . S
N1370 C1362 1.356 . S
N1370 H1376 0.984 . S
N1370 H1377 0.984 . S
N1371 C1364 1.356 . S
N1371 H1374 0.984 . S
N1371 H1375 0.985 . S
H1372 N1367 0.984 . S
H1373 N1367 0.985 . S
H1374 N1371 0.984 . S
H1375 N1371 0.985 . S
H1376 N1370 0.984 . S
H1377 N1370 0.984 . S
H1378 N1366 0.984 . S
H1379 N1366 0.985 . S
C1380 C1381 1.363 . S
C1380 C1386 1.379 . S
C1380 N1388 1.356 . S
C1381 C1380 1.363 . S
C1381 C1387 1.363 . S
C1382 C1383 1.363 . S
C1382 C1387 1.379 . S
C1382 N1389 1.356 . S
C1383 C1382 1.363 . S
C1383 C1386 1.363 . S
N1384 C1386 1.356 . S
N1384 H1396 0.984 . S
N1384 H1397 0.985 . S
N1385 C1387 1.356 . S
N1385 H1390 0.984 . S
N1385 H1391 0.985 . S
C1386 C1380 1.379 . S
C1386 C1383 1.363 . S
C1386 N1384 1.356 . S
C1387 C1381 1.363 . S
C1387 C1382 1.379 . S
C1387 N1385 1.356 . S
N1388 C1380 1.356 . S
N1388 H1394 0.984 . S
N1388 H1395 0.984 . S
N1389 C1382 1.356 . S
N1389 H1392 0.984 . S
N1389 H1393 0.985 . S
H1390 N1385 0.984 . S
H1391 N1385 0.985 . S
H1392 N1389 0.984 . S
H1393 N1389 0.985 . S
H1394 N1388 0.984 . S
H1395 N1388 0.984 . S
H1396 N1384 0.984 . S
H1397 N1384 0.985 . S
C1398 C1399 1.363 . S
C1398 C1404 1.379 1_655 S
C1398 N1406 1.356 . S
C1399 C1398 1.363 . S
C1399 C1405 1.363 . S
C1400 C1401 1.363 . S
C1400 C1405 1.379 1_455 S
C1400 N1407 1.356 . S
C1401 C1400 1.363 . S
C1401 C1404 1.363 . S
N1402 C1404 1.356 . S
N1402 H1414 0.984 . S
N1402 H1415 0.985 . S
N1403 C1405 1.356 . S
N1403 H1408 0.984 . S
N1403 H1409 0.985 . S
C1404 C1398 1.379 1_455 S
C1404 C1401 1.363 . S
C1404 N1402 1.356 . S
C1405 C1399 1.363 . S
C1405 C1400 1.379 1_655 S
C1405 N1403 1.356 . S
N1406 C1398 1.356 . S
N1406 H1412 0.984 . S
N1406 H1413 0.984 . S
N1407 C1400 1.356 . S
N1407 H1410 0.984 . S
N1407 H1411 0.985 . S
H1408 N1403 0.984 . S
H1409 N1403 0.985 . S
H1410 N1407 0.984 . S
H1411 N1407 0.985 . S
H1412 N1406 0.984 . S
H1413 N1406 0.984 . S
H1414 N1402 0.984 . S
H1415 N1402 0.985 . S
C1416 C1417 1.363 . S
C1416 C1422 1.379 . S
C1416 N1424 1.356 . S
C1417 C1416 1.363 . S
C1417 C1423 1.363 . S
C1418 C1419 1.363 . S
C1418 C1423 1.379 . S
C1418 N1425 1.356 . S
C1419 C1418 1.363 . S
C1419 C1422 1.363 . S
N1420 C1422 1.356 . S
N1420 H1432 0.984 . S
N1420 H1433 0.985 . S
N1421 C1423 1.356 . S
N1421 H1426 0.984 . S
N1421 H1427 0.985 . S
C1422 C1416 1.379 . S
C1422 C1419 1.363 . S
C1422 N1420 1.356 . S
C1423 C1417 1.363 . S
C1423 C1418 1.379 . S
C1423 N1421 1.356 . S
N1424 C1416 1.356 . S
N1424 H1430 0.984 . S
N1424 H1431 0.984 . S
N1425 C1418 1.356 . S
N1425 H1428 0.984 . S
N1425 H1429 0.985 . S
H1426 N1421 0.984 . S
H1427 N1421 0.985 . S
H1428 N1425 0.984 . S
H1429 N1425 0.985 . S
H1430 N1424 0.984 . S
H1431 N1424 0.984 . S
H1432 N1420 0.984 . S
H1433 N1420 0.985 . S
C1434 C1435 1.363 . S
C1434 C1440 1.379 1_556 S
C1434 N1442 1.356 . S
C1435 C1434 1.363 . S
C1435 C1441 1.363 . S
C1436 C1437 1.363 . S
C1436 C1441 1.379 1_554 S
C1436 N1443 1.356 . S
C1437 C1436 1.363 . S
C1437 C1440 1.363 . S
N1438 C1440 1.356 . S
N1438 H1450 0.984 . S
N1438 H1451 0.985 . S
N1439 C1441 1.356 . S
N1439 H1444 0.984 . S
N1439 H1445 0.985 . S
C1440 C1434 1.379 1_554 S
C1440 C1437 1.363 . S
C1440 N1438 1.356 . S
C1441 C1435 1.363 . S
C1441 C1436 1.379 1_556 S
C1441 N1439 1.356 . S
N1442 C1434 1.356 . S
N1442 H1448 0.984 . S
N1442 H1449 0.984 . S
N1443 C1436 1.356 . S
N1443 H1446 0.984 . S
N1443 H1447 0.985 . S
H1444 N1439 0.984 . S
H1445 N1439 0.985 . S
H1446 N1443 0.984 . S
H1447 N1443 0.985 . S
H1448 N1442 0.984 . S
H1449 N1442 0.984 . S
H1450 N1438 0.984 . S
H1451 N1438 0.985 . S
C1452 C1453 1.363 . S
C1452 C1458 1.379 . S
C1452 N1460 1.356 . S
C1453 C1452 1.363 . S
C1453 C1459 1.363 . S
C1454 C1455 1.363 . S
C1454 C1459 1.379 . S
C1454 N1461 1.356 . S
C1455 C1454 1.363 . S
C1455 C1458 1.363 . S
N1456 C1458 1.356 . S
N1456 H1468 0.984 . S
N1456 H1469 0.985 . S
N1457 C1459 1.356 . S
N1457 H1462 0.984 . S
N1457 H1463 0.985 . S
C1458 C1452 1.379 . S
C1458 C1455 1.363 . S
C1458 N1456 1.356 . S
C1459 C1453 1.363 . S
C1459 C1454 1.379 . S
C1459 N1457 1.356 . S
N1460 C1452 1.356 . S
N1460 H1466 0.984 . S
N1460 H1467 0.984 . S
N1461 C1454 1.356 . S
N1461 H1464 0.984 . S
N1461 H1465 0.985 . S
H1462 N1457 0.984 . S
H1463 N1457 0.985 . S
H1464 N1461 0.984 . S
H1465 N1461 0.985 . S
H1466 N1460 0.984 . S
H1467 N1460 0.984 . S
H1468 N1456 0.984 . S
H1469 N1456 0.985 . S
C1470 C1471 1.363 . S
C1470 C1476 1.379 1_554 S
C1470 N1478 1.356 . S
C1471 C1470 1.363 . S
C1471 C1477 1.363 . S
C1472 C1473 1.363 . S
C1472 C1477 1.379 1_556 S
C1472 N1479 1.356 . S
C1473 C1472 1.363 . S
C1473 C1476 1.363 . S
N1474 C1476 1.356 . S
N1474 H1486 0.984 . S
N1474 H1487 0.985 . S
N1475 C1477 1.356 . S
N1475 H1480 0.984 . S
N1475 H1481 0.985 . S
C1476 C1470 1.379 1_556 S
C1476 C1473 1.363 . S
C1476 N1474 1.356 . S
C1477 C1471 1.363 . S
C1477 C1472 1.379 1_554 S
C1477 N1475 1.356 . S
N1478 C1470 1.356 . S
N1478 H1484 0.984 . S
N1478 H1485 0.984 . S
N1479 C1472 1.356 . S
N1479 H1482 0.984 . S
N1479 H1483 0.985 . S
H1480 N1475 0.984 . S
H1481 N1475 0.985 . S
H1482 N1479 0.984 . S
H1483 N1479 0.985 . S
H1484 N1478 0.984 . S
H1485 N1478 0.984 . S
H1486 N1474 0.984 . S
H1487 N1474 0.985 . S
C1488 C1489 1.363 . S
C1488 C1494 1.379 . S
C1488 N1496 1.356 . S
C1489 C1488 1.363 . S
C1489 C1495 1.363 . S
C1490 C1491 1.363 . S
C1490 C1495 1.379 . S
C1490 N1497 1.356 . S
C1491 C1490 1.363 . S
C1491 C1494 1.363 . S
N1492 C1494 1.356 . S
N1492 H1504 0.984 . S
N1492 H1505 0.985 . S
N1493 C1495 1.356 . S
N1493 H1498 0.984 . S
N1493 H1499 0.985 . S
C1494 C1488 1.379 . S
C1494 C1491 1.363 . S
C1494 N1492 1.356 . S
C1495 C1489 1.363 . S
C1495 C1490 1.379 . S
C1495 N1493 1.356 . S
N1496 C1488 1.356 . S
N1496 H1502 0.984 . S
N1496 H1503 0.984 . S
N1497 C1490 1.356 . S
N1497 H1500 0.984 . S
N1497 H1501 0.985 . S
H1498 N1493 0.984 . S
H1499 N1493 0.985 . S
H1500 N1497 0.984 . S
H1501 N1497 0.985 . S
H1502 N1496 0.984 . S
H1503 N1496 0.984 . S
H1504 N1492 0.984 . S
H1505 N1492 0.985 . S
C1506 C1507 1.363 . S
C1506 C1512 1.379 1_554 S
C1506 N1514 1.356 . S
C1507 C1506 1.363 . S
C1507 C1513 1.363 . S
C1508 C1509 1.363 . S
C1508 C1513 1.379 1_556 S
C1508 N1515 1.356 . S
C1509 C1508 1.363 . S
C1509 C1512 1.363 . S
N1510 C1512 1.356 . S
N1510 H1522 0.984 . S
N1510 H1523 0.985 . S
N1511 C1513 1.356 . S
N1511 H1516 0.984 . S
N1511 H1517 0.985 . S
C1512 C1506 1.379 1_556 S
C1512 C1509 1.363 . S
C1512 N1510 1.356 . S
C1513 C1507 1.363 . S
C1513 C1508 1.379 1_554 S
C1513 N1511 1.356 . S
N1514 C1506 1.356 . S
N1514 H1520 0.984 . S
N1514 H1521 0.984 . S
N1515 C1508 1.356 . S
N1515 H1518 0.984 . S
N1515 H1519 0.985 . S
H1516 N1511 0.984 . S
H1517 N1511 0.985 . S
H1518 N1515 0.984 . S
H1519 N1515 0.985 . S
H1520 N1514 0.984 . S
H1521 N1514 0.984 . S
H1522 N1510 0.984 . S
H1523 N1510 0.985 . S
C1524 C1525 1.363 . S
C1524 C1530 1.379 . S
C1524 N1532 1.356 . S
C1525 C1524 1.363 . S
C1525 C1531 1.363 . S
C1526 C1527 1.363 . S
C1526 C1531 1.379 . S
C1526 N1533 1.356 . S
C1527 C1526 1.363 . S
C1527 C1530 1.363 . S
N1528 C1530 1.356 . S
N1528 H1540 0.984 . S
N1528 H1541 0.985 . S
N1529 C1531 1.356 . S
N1529 H1534 0.984 . S
N1529 H1535 0.985 . S
C1530 C1524 1.379 . S
C1530 C1527 1.363 . S
C1530 N1528 1.356 . S
C1531 C1525 1.363 . S
C1531 C1526 1.379 . S
C1531 N1529 1.356 . S
N1532 C1524 1.356 . S
N1532 H1538 0.984 . S
N1532 H1539 0.984 . S
N1533 C1526 1.356 . S
N1533 H1536 0.984 . S
N1533 H1537 0.985 . S
H1534 N1529 0.984 . S
H1535 N1529 0.985 . S
H1536 N1533 0.984 . S
H1537 N1533 0.985 . S
H1538 N1532 0.984 . S
H1539 N1532 0.984 . S
H1540 N1528 0.984 . S
H1541 N1528 0.985 . S
C1542 C1543 1.363 . S
C1542 C1548 1.379 . S
C1542 N1550 1.356 . S
C1543 C1542 1.363 . S
C1543 C1549 1.363 . S
C1544 C1545 1.363 1_554 S
C1544 C1549 1.379 . S
C1544 N1551 1.356 1_554 S
C1545 C1544 1.363 1_556 S
C1545 C1548 1.363 1_556 S
N1546 C1548 1.356 1_556 S
N1546 H1558 0.984 . S
N1546 H1559 0.985 . S
N1547 C1549 1.356 . S
N1547 H1552 0.984 . S
N1547 H1553 0.985 . S
C1548 C1542 1.379 . S
C1548 C1545 1.363 1_554 S
C1548 N1546 1.356 1_554 S
C1549 C1543 1.363 . S
C1549 C1544 1.379 . S
C1549 N1547 1.356 . S
N1550 C1542 1.356 . S
N1550 H1556 0.984 . S
N1550 H1557 0.984 . S
N1551 C1544 1.356 1_556 S
N1551 H1554 0.984 . S
N1551 H1555 0.985 1_556 S
H1552 N1547 0.984 . S
H1553 N1547 0.985 . S
H1554 N1551 0.984 . S
H1555 N1551 0.985 1_554 S
H1556 N1550 0.984 . S
H1557 N1550 0.984 . S
H1558 N1546 0.984 . S
H1559 N1546 0.985 . S
C1560 C1561 1.363 . S
C1560 C1566 1.379 . S
C1560 N1568 1.356 . S
C1561 C1560 1.363 . S
C1561 C1567 1.363 . S
C1562 C1563 1.363 . S
C1562 C1567 1.379 . S
C1562 N1569 1.356 . S
C1563 C1562 1.363 . S
C1563 C1566 1.363 . S
N1564 C1566 1.356 . S
N1564 H1576 0.984 . S
N1564 H1577 0.985 . S
N1565 C1567 1.356 . S
N1565 H1570 0.984 . S
N1565 H1571 0.985 . S
C1566 C1560 1.379 . S
C1566 C1563 1.363 . S
C1566 N1564 1.356 . S
C1567 C1561 1.363 . S
C1567 C1562 1.379 . S
C1567 N1565 1.356 . S
N1568 C1560 1.356 . S
N1568 H1574 0.984 . S
N1568 H1575 0.984 . S
N1569 C1562 1.356 . S
N1569 H1572 0.984 . S
N1569 H1573 0.985 . S
H1570 N1565 0.984 . S
H1571 N1565 0.985 . S
H1572 N1569 0.984 . S
H1573 N1569 0.985 . S
H1574 N1568 0.984 . S
H1575 N1568 0.984 . S
H1576 N1564 0.984 . S
H1577 N1564 0.985 . S
C1578 C1579 1.363 . S
C1578 C1584 1.379 . S
C1578 N1586 1.356 . S
C1579 C1578 1.363 . S
C1579 C1585 1.363 . S
C1580 C1581 1.363 . S
C1580 C1585 1.379 . S
C1580 N1587 1.356 . S
C1581 C1580 1.363 . S
C1581 C1584 1.363 . S
N1582 C1584 1.356 . S
N1582 H1594 0.984 . S
N1582 H1595 0.985 . S
N1583 C1585 1.356 . S
N1583 H1588 0.984 . S
N1583 H1589 0.985 . S
C1584 C1578 1.379 . S
C1584 C1581 1.363 . S
C1584 N1582 1.356 . S
C1585 C1579 1.363 . S
C1585 C1580 1.379 . S
C1585 N1583 1.356 . S
N1586 C1578 1.356 . S
N1586 H1592 0.984 . S
N1586 H1593 0.984 . S
N1587 C1580 1.356 . S
N1587 H1590 0.984 . S
N1587 H1591 0.985 . S
H1588 N1583 0.984 . S
H1589 N1583 0.985 . S
H1590 N1587 0.984 . S
H1591 N1587 0.985 . S
H1592 N1586 0.984 . S
H1593 N1586 0.984 . S
H1594 N1582 0.984 . S
H1595 N1582 0.985 . S
C1596 C1597 1.363 . S
C1596 C1602 1.379 1_565 S
C1596 N1604 1.356 . S
C1597 C1596 1.363 . S
C1597 C1603 1.363 . S
C1598 C1599 1.363 . S
C1598 C1603 1.379 1_545 S
C1598 N1605 1.356 . S
C1599 C1598 1.363 . S
C1599 C1602 1.363 . S
N1600 C1602 1.356 . S
N1600 H1612 0.984 . S
N1600 H1613 0.985 . S
N1601 C1603 1.356 . S
N1601 H1606 0.984 . S
N1601 H1607 0.985 . S
C1602 C1596 1.379 1_545 S
C1602 C1599 1.363 . S
C1602 N1600 1.356 . S
C1603 C1597 1.363 . S
C1603 C1598 1.379 1_565 S
C1603 N1601 1.356 . S
N1604 C1596 1.356 . S
N1604 H1610 0.984 . S
N1604 H1611 0.984 . S
N1605 C1598 1.356 . S
N1605 H1608 0.984 . S
N1605 H1609 0.985 . S
H1606 N1601 0.984 . S
H1607 N1601 0.985 . S
H1608 N1605 0.984 . S
H1609 N1605 0.985 . S
H1610 N1604 0.984 . S
H1611 N1604 0.984 . S
H1612 N1600 0.984 . S
H1613 N1600 0.985 . S
C1614 C1615 1.363 . S
C1614 C1620 1.379 . S
C1614 N1622 1.356 . S
C1615 C1614 1.363 . S
C1615 C1621 1.363 . S
C1616 C1617 1.363 . S
C1616 C1621 1.379 . S
C1616 N1623 1.356 . S
C1617 C1616 1.363 . S
C1617 C1620 1.363 . S
N1618 C1620 1.356 . S
N1618 H1630 0.984 . S
N1618 H1631 0.985 . S
N1619 C1621 1.356 . S
N1619 H1624 0.984 . S
N1619 H1625 0.985 . S
C1620 C1614 1.379 . S
C1620 C1617 1.363 . S
C1620 N1618 1.356 . S
C1621 C1615 1.363 . S
C1621 C1616 1.379 . S
C1621 N1619 1.356 . S
N1622 C1614 1.356 . S
N1622 H1628 0.984 . S
N1622 H1629 0.984 . S
N1623 C1616 1.356 . S
N1623 H1626 0.984 . S
N1623 H1627 0.985 . S
H1624 N1619 0.984 . S
H1625 N1619 0.985 . S
H1626 N1623 0.984 . S
H1627 N1623 0.985 . S
H1628 N1622 0.984 . S
H1629 N1622 0.984 . S
H1630 N1618 0.984 . S
H1631 N1618 0.985 . S
C1632 C1633 1.363 . S
C1632 C1638 1.379 1_565 S
C1632 N1640 1.356 . S
C1633 C1632 1.363 . S
C1633 C1639 1.363 . S
C1634 C1635 1.363 . S
C1634 C1639 1.379 1_545 S
C1634 N1641 1.356 . S
C1635 C1634 1.363 . S
C1635 C1638 1.363 . S
N1636 C1638 1.356 . S
N1636 H1648 0.984 . S
N1636 H1649 0.985 . S
N1637 C1639 1.356 . S
N1637 H1642 0.984 . S
N1637 H1643 0.985 . S
C1638 C1632 1.379 1_545 S
C1638 C1635 1.363 . S
C1638 N1636 1.356 . S
C1639 C1633 1.363 . S
C1639 C1634 1.379 1_565 S
C1639 N1637 1.356 . S
N1640 C1632 1.356 . S
N1640 H1646 0.984 . S
N1640 H1647 0.984 . S
N1641 C1634 1.356 . S
N1641 H1644 0.984 . S
N1641 H1645 0.985 . S
H1642 N1637 0.984 . S
H1643 N1637 0.985 . S
H1644 N1641 0.984 . S
H1645 N1641 0.985 . S
H1646 N1640 0.984 . S
H1647 N1640 0.984 . S
H1648 N1636 0.984 . S
H1649 N1636 0.985 . S
C1650 C1651 1.363 . S
C1650 C1656 1.379 . S
C1650 N1658 1.356 . S
C1651 C1650 1.363 . S
C1651 C1657 1.363 . S
C1652 C1653 1.363 . S
C1652 C1657 1.379 . S
C1652 N1659 1.356 . S
C1653 C1652 1.363 . S
C1653 C1656 1.363 . S
N1654 C1656 1.356 . S
N1654 H1666 0.984 . S
N1654 H1667 0.985 . S
N1655 C1657 1.356 . S
N1655 H1660 0.984 . S
N1655 H1661 0.985 . S
C1656 C1650 1.379 . S
C1656 C1653 1.363 . S
C1656 N1654 1.356 . S
C1657 C1651 1.363 . S
C1657 C1652 1.379 . S
C1657 N1655 1.356 . S
N1658 C1650 1.356 . S
N1658 H1664 0.984 . S
N1658 H1665 0.984 . S
N1659 C1652 1.356 . S
N1659 H1662 0.984 . S
N1659 H1663 0.985 . S
H1660 N1655 0.984 . S
H1661 N1655 0.985 . S
H1662 N1659 0.984 . S
H1663 N1659 0.985 . S
H1664 N1658 0.984 . S
H1665 N1658 0.984 . S
H1666 N1654 0.984 . S
H1667 N1654 0.985 . S
C1668 C1669 1.363 . S
C1668 C1674 1.355 1_565 S
C1668 N1676 1.356 . S
C1669 C1668 1.363 . S
C1669 C1675 1.363 . S
C1670 C1671 1.363 . S
C1670 C1675 1.379 1_545 S
C1670 N1677 1.356 . S
C1671 C1670 1.363 . S
C1671 C1674 1.380 . S
N1672 C1674 1.371 . S
N1672 H1684 0.984 . S
N1672 H1685 0.985 . S
N1673 C1675 1.356 . S
N1673 H1678 0.984 . S
N1673 H1679 0.985 . S
C1674 C1668 1.355 1_545 S
C1674 C1671 1.380 . S
C1674 N1672 1.371 . S
C1675 C1669 1.363 . S
C1675 C1670 1.379 1_565 S
C1675 N1673 1.356 . S
N1676 C1668 1.356 . S
N1676 H1682 0.984 . S
N1676 H1683 0.984 . S
N1677 C1670 1.356 . S
N1677 H1680 0.984 . S
N1677 H1681 0.985 . S
H1678 N1673 0.984 . S
H1679 N1673 0.985 . S
H1680 N1677 0.984 . S
H1681 N1677 0.985 . S
H1682 N1676 0.984 . S
H1683 N1676 0.984 . S
H1684 N1672 0.984 . S
H1685 N1672 0.985 . S
C1686 C1687 1.363 . S
C1686 C1692 1.379 1_545 S
C1686 N1694 1.356 . S
C1687 C1686 1.363 . S
C1687 C1693 1.363 . S
C1688 C1689 1.363 . S
C1688 C1693 1.379 1_565 S
C1688 N1695 1.356 . S
C1689 C1688 1.363 . S
C1689 C1692 1.363 . S
N1690 C1692 1.356 . S
N1690 H1702 0.984 . S
N1690 H1703 0.985 . S
N1691 C1693 1.356 . S
N1691 H1696 0.984 . S
N1691 H1697 0.985 . S
C1692 C1686 1.379 1_565 S
C1692 C1689 1.363 . S
C1692 N1690 1.356 . S
C1693 C1687 1.363 . S
C1693 C1688 1.379 1_545 S
C1693 N1691 1.356 . S
N1694 C1686 1.356 . S
N1694 H1700 0.984 . S
N1694 H1701 0.984 . S
N1695 C1688 1.356 . S
N1695 H1698 0.984 . S
N1695 H1699 0.985 . S
H1696 N1691 0.984 . S
H1697 N1691 0.985 . S
H1698 N1695 0.984 . S
H1699 N1695 0.985 . S
H1700 N1694 0.984 . S
H1701 N1694 0.984 . S
H1702 N1690 0.984 . S
H1703 N1690 0.985 . S
C1704 C1705 1.363 . S
C1704 C1710 1.379 . S
C1704 N1712 1.356 . S
C1705 C1704 1.363 . S
C1705 C1711 1.363 . S
C1706 C1707 1.363 . S
C1706 C1711 1.379 . S
C1706 N1713 1.356 . S
C1707 C1706 1.363 . S
C1707 C1710 1.363 . S
N1708 C1710 1.356 . S
N1708 H1720 0.984 . S
N1708 H1721 0.985 . S
N1709 C1711 1.356 . S
N1709 H1714 0.984 . S
N1709 H1715 0.985 . S
C1710 C1704 1.379 . S
C1710 C1707 1.363 . S
C1710 N1708 1.356 . S
C1711 C1705 1.363 . S
C1711 C1706 1.379 . S
C1711 N1709 1.356 . S
N1712 C1704 1.356 . S
N1712 H1718 0.984 . S
N1712 H1719 0.984 . S
N1713 C1706 1.356 . S
N1713 H1716 0.984 . S
N1713 H1717 0.985 . S
H1714 N1709 0.984 . S
H1715 N1709 0.985 . S
H1716 N1713 0.984 . S
H1717 N1713 0.985 . S
H1718 N1712 0.984 . S
H1719 N1712 0.984 . S
H1720 N1708 0.984 . S
H1721 N1708 0.985 . S
C1722 C1723 1.363 . S
C1722 C1728 1.379 . S
C1722 N1730 1.356 . S
C1723 C1722 1.363 . S
C1723 C1729 1.363 . S
C1724 C1725 1.363 . S
C1724 C1729 1.379 . S
C1724 N1731 1.356 . S
C1725 C1724 1.363 . S
C1725 C1728 1.363 . S
N1726 C1728 1.356 . S
N1726 H1738 0.984 . S
N1726 H1739 0.985 . S
N1727 C1729 1.356 . S
N1727 H1732 0.984 . S
N1727 H1733 0.985 . S
C1728 C1722 1.379 . S
C1728 C1725 1.363 . S
C1728 N1726 1.356 . S
C1729 C1723 1.363 . S
C1729 C1724 1.379 . S
C1729 N1727 1.356 . S
N1730 C1722 1.356 . S
N1730 H1736 0.984 . S
N1730 H1737 0.984 . S
N1731 C1724 1.356 . S
N1731 H1734 0.984 . S
N1731 H1735 0.985 . S
H1732 N1727 0.984 . S
H1733 N1727 0.985 . S
H1734 N1731 0.984 . S
H1735 N1731 0.985 . S
H1736 N1730 0.984 . S
H1737 N1730 0.984 . S
H1738 N1726 0.984 . S
H1739 N1726 0.985 . S
C1740 C1741 1.363 . S
C1740 C1746 1.379 . S
C1740 N1748 1.356 . S
C1741 C1740 1.363 . S
C1741 C1747 1.363 . S
C1742 C1743 1.363 . S
C1742 C1747 1.379 . S
C1742 N1749 1.356 . S
C1743 C1742 1.363 . S
C1743 C1746 1.363 . S
N1744 C1746 1.356 . S
N1744 H1756 0.984 . S
N1744 H1757 0.985 . S
N1745 C1747 1.356 . S
N1745 H1750 0.984 . S
N1745 H1751 0.985 . S
C1746 C1740 1.379 . S
C1746 C1743 1.363 . S
C1746 N1744 1.356 . S
C1747 C1741 1.363 . S
C1747 C1742 1.379 . S
C1747 N1745 1.356 . S
N1748 C1740 1.356 . S
N1748 H1754 0.984 . S
N1748 H1755 0.984 . S
N1749 C1742 1.356 . S
N1749 H1752 0.984 . S
N1749 H1753 0.985 . S
H1750 N1745 0.984 . S
H1751 N1745 0.985 . S
H1752 N1749 0.984 . S
H1753 N1749 0.985 . S
H1754 N1748 0.984 . S
H1755 N1748 0.984 . S
H1756 N1744 0.984 . S
H1757 N1744 0.985 . S
C1758 C1759 1.363 . S
C1758 C1764 1.379 . S
C1758 N1766 1.356 . S
C1759 C1758 1.363 . S
C1759 C1765 1.363 . S
C1760 C1761 1.363 . S
C1760 C1765 1.379 . S
C1760 N1767 1.356 . S
C1761 C1760 1.363 . S
C1761 C1764 1.363 . S
N1762 C1764 1.356 . S
N1762 H1774 0.984 . S
N1762 H1775 0.985 . S
N1763 C1765 1.356 . S
N1763 H1768 0.984 . S
N1763 H1769 0.985 . S
C1764 C1758 1.379 . S
C1764 C1761 1.363 . S
C1764 N1762 1.356 . S
C1765 C1759 1.363 . S
C1765 C1760 1.379 . S
C1765 N1763 1.356 . S
N1766 C1758 1.356 . S
N1766 H1772 0.984 . S
N1766 H1773 0.984 . S
N1767 C1760 1.356 . S
N1767 H1770 0.984 . S
N1767 H1771 0.985 . S
H1768 N1763 0.984 . S
H1769 N1763 0.985 . S
H1770 N1767 0.984 . S
H1771 N1767 0.985 . S
H1772 N1766 0.984 . S
H1773 N1766 0.984 . S
H1774 N1762 0.984 . S
H1775 N1762 0.985 . S
C1776 C1777 1.363 . S
C1776 C1782 1.379 . S
C1776 N1784 1.356 . S
C1777 C1776 1.363 . S
C1777 C1783 1.363 . S
C1778 C1779 1.363 . S
C1778 C1783 1.379 . S
C1778 N1785 1.356 . S
C1779 C1778 1.363 . S
C1779 C1782 1.363 . S
N1780 C1782 1.356 . S
N1780 H1792 0.984 . S
N1780 H1793 0.985 . S
N1781 C1783 1.356 . S
N1781 H1786 0.984 . S
N1781 H1787 0.985 . S
C1782 C1776 1.379 . S
C1782 C1779 1.363 . S
C1782 N1780 1.356 . S
C1783 C1777 1.363 . S
C1783 C1778 1.379 . S
C1783 N1781 1.356 . S
N1784 C1776 1.356 . S
N1784 H1790 0.984 . S
N1784 H1791 0.984 . S
N1785 C1778 1.356 . S
N1785 H1788 0.984 . S
N1785 H1789 0.985 . S
H1786 N1781 0.984 . S
H1787 N1781 0.985 . S
H1788 N1785 0.984 . S
H1789 N1785 0.985 . S
H1790 N1784 0.984 . S
H1791 N1784 0.984 . S
H1792 N1780 0.984 . S
H1793 N1780 0.985 . S
C1794 C1795 1.363 . S
C1794 C1800 1.379 . S
C1794 N1802 1.356 . S
C1795 C1794 1.363 . S
C1795 C1801 1.363 . S
C1796 C1797 1.363 . S
C1796 C1801 1.379 . S
C1796 N1803 1.356 . S
C1797 C1796 1.363 . S
C1797 C1800 1.363 . S
N1798 C1800 1.356 . S
N1798 H1810 0.984 . S
N1798 H1811 0.985 . S
N1799 C1801 1.356 . S
N1799 H1804 0.984 . S
N1799 H1805 0.985 . S
C1800 C1794 1.379 . S
C1800 C1797 1.363 . S
C1800 N1798 1.356 . S
C1801 C1795 1.363 . S
C1801 C1796 1.379 . S
C1801 N1799 1.356 . S
N1802 C1794 1.356 . S
N1802 H1808 0.984 . S
N1802 H1809 0.984 . S
N1803 C1796 1.356 . S
N1803 H1806 0.984 . S
N1803 H1807 0.985 . S
H1804 N1799 0.984 . S
H1805 N1799 0.985 . S
H1806 N1803 0.984 . S
H1807 N1803 0.985 . S
H1808 N1802 0.984 . S
H1809 N1802 0.984 . S
H1810 N1798 0.984 . S
H1811 N1798 0.985 . S
C1812 C1813 1.363 . S
C1812 C1818 1.379 . S
C1812 N1820 1.356 . S
C1813 C1812 1.363 . S
C1813 C1819 1.363 . S
C1814 C1815 1.363 . S
C1814 C1819 1.379 . S
C1814 N1821 1.356 . S
C1815 C1814 1.363 . S
C1815 C1818 1.363 . S
N1816 C1818 1.356 . S
N1816 H1828 0.984 . S
N1816 H1829 0.985 . S
N1817 C1819 1.356 . S
N1817 H1822 0.984 . S
N1817 H1823 0.985 . S
C1818 C1812 1.379 . S
C1818 C1815 1.363 . S
C1818 N1816 1.356 . S
C1819 C1813 1.363 . S
C1819 C1814 1.379 . S
C1819 N1817 1.356 . S
N1820 C1812 1.356 . S
N1820 H1826 0.984 . S
N1820 H1827 0.984 . S
N1821 C1814 1.356 . S
N1821 H1824 0.984 . S
N1821 H1825 0.985 . S
H1822 N1817 0.984 . S
H1823 N1817 0.985 . S
H1824 N1821 0.984 . S
H1825 N1821 0.985 . S
H1826 N1820 0.984 . S
H1827 N1820 0.984 . S
H1828 N1816 0.984 . S
H1829 N1816 0.985 . S
C1830 C1831 1.363 . S
C1830 C1836 1.379 . S
C1830 N1838 1.356 . S
C1831 C1830 1.363 . S
C1831 C1837 1.363 . S
C1832 C1833 1.363 . S
C1832 C1837 1.379 . S
C1832 N1839 1.356 . S
C1833 C1832 1.363 . S
C1833 C1836 1.363 . S
N1834 C1836 1.356 . S
N1834 H1846 0.984 . S
N1834 H1847 0.985 . S
N1835 C1837 1.356 . S
N1835 H1840 0.984 . S
N1835 H1841 0.985 . S
C1836 C1830 1.379 . S
C1836 C1833 1.363 . S
C1836 N1834 1.356 . S
C1837 C1831 1.363 . S
C1837 C1832 1.379 . S
C1837 N1835 1.356 . S
N1838 C1830 1.356 . S
N1838 H1844 0.984 . S
N1838 H1845 0.984 . S
N1839 C1832 1.356 . S
N1839 H1842 0.984 . S
N1839 H1843 0.985 . S
H1840 N1835 0.984 . S
H1841 N1835 0.985 . S
H1842 N1839 0.984 . S
H1843 N1839 0.985 . S
H1844 N1838 0.984 . S
H1845 N1838 0.984 . S
H1846 N1834 0.984 . S
H1847 N1834 0.985 . S
C1848 C1849 1.363 . S
C1848 C1854 1.379 . S
C1848 N1856 1.356 . S
C1849 C1848 1.363 . S
C1849 C1855 1.363 . S
C1850 C1851 1.363 . S
C1850 C1855 1.379 . S
C1850 N1857 1.356 . S
C1851 C1850 1.363 . S
C1851 C1854 1.363 . S
N1852 C1854 1.356 . S
N1852 H1864 0.984 . S
N1852 H1865 0.985 . S
N1853 C1855 1.356 . S
N1853 H1858 0.984 . S
N1853 H1859 0.985 . S
C1854 C1848 1.379 . S
C1854 C1851 1.363 . S
C1854 N1852 1.356 . S
C1855 C1849 1.363 . S
C1855 C1850 1.379 . S
C1855 N1853 1.356 . S
N1856 C1848 1.356 . S
N1856 H1862 0.984 . S
N1856 H1863 0.984 . S
N1857 C1850 1.356 . S
N1857 H1860 0.984 . S
N1857 H1861 0.985 . S
H1858 N1853 0.984 . S
H1859 N1853 0.985 . S
H1860 N1857 0.984 . S
H1861 N1857 0.985 . S
H1862 N1856 0.984 . S
H1863 N1856 0.984 . S
H1864 N1852 0.984 . S
H1865 N1852 0.985 . S
C1866 C1867 1.363 . S
C1866 C1872 1.379 . S
C1866 N1874 1.356 . S
C1867 C1866 1.363 . S
C1867 C1873 1.363 . S
C1868 C1869 1.363 . S
C1868 C1873 1.379 . S
C1868 N1875 1.356 . S
C1869 C1868 1.363 . S
C1869 C1872 1.363 . S
N1870 C1872 1.356 . S
N1870 H1882 0.984 . S
N1870 H1883 0.985 . S
N1871 C1873 1.356 . S
N1871 H1876 0.984 . S
N1871 H1877 0.985 . S
C1872 C1866 1.379 . S
C1872 C1869 1.363 . S
C1872 N1870 1.356 . S
C1873 C1867 1.363 . S
C1873 C1868 1.379 . S
C1873 N1871 1.356 . S
N1874 C1866 1.356 . S
N1874 H1880 0.984 . S
N1874 H1881 0.984 . S
N1875 C1868 1.356 . S
N1875 H1878 0.984 . S
N1875 H1879 0.985 . S
H1876 N1871 0.984 . S
H1877 N1871 0.985 . S
H1878 N1875 0.984 . S
H1879 N1875 0.985 . S
H1880 N1874 0.984 . S
H1881 N1874 0.984 . S
H1882 N1870 0.984 . S
H1883 N1870 0.985 . S
C1884 C1885 1.363 . S
C1884 C1890 1.379 . S
C1884 N1892 1.356 . S
C1885 C1884 1.363 . S
C1885 C1891 1.363 . S
C1886 C1887 1.363 . S
C1886 C1891 1.379 . S
C1886 N1893 1.356 . S
C1887 C1886 1.363 . S
C1887 C1890 1.363 . S
N1888 C1890 1.356 . S
N1888 H1900 0.984 . S
N1888 H1901 0.985 . S
N1889 C1891 1.356 . S
N1889 H1894 0.984 . S
N1889 H1895 0.985 . S
C1890 C1884 1.379 . S
C1890 C1887 1.363 . S
C1890 N1888 1.356 . S
C1891 C1885 1.363 . S
C1891 C1886 1.379 . S
C1891 N1889 1.356 . S
N1892 C1884 1.356 . S
N1892 H1898 0.984 . S
N1892 H1899 0.984 . S
N1893 C1886 1.356 . S
N1893 H1896 0.984 . S
N1893 H1897 0.985 . S
H1894 N1889 0.984 . S
H1895 N1889 0.985 . S
H1896 N1893 0.984 . S
H1897 N1893 0.985 . S
H1898 N1892 0.984 . S
H1899 N1892 0.984 . S
H1900 N1888 0.984 . S
H1901 N1888 0.985 . S
C1902 C1903 1.363 . S
C1902 C1908 1.379 . S
C1902 N1910 1.356 . S
C1903 C1902 1.363 . S
C1903 C1909 1.363 . S
C1904 C1905 1.363 . S
C1904 C1909 1.379 . S
C1904 N1911 1.356 . S
C1905 C1904 1.363 . S
C1905 C1908 1.363 . S
N1906 C1908 1.356 . S
N1906 H1918 0.984 . S
N1906 H1919 0.985 . S
N1907 C1909 1.356 . S
N1907 H1912 0.984 . S
N1907 H1913 0.985 . S
C1908 C1902 1.379 . S
C1908 C1905 1.363 . S
C1908 N1906 1.356 . S
C1909 C1903 1.363 . S
C1909 C1904 1.379 . S
C1909 N1907 1.356 . S
N1910 C1902 1.356 . S
N1910 H1916 0.984 . S
N1910 H1917 0.984 . S
N1911 C1904 1.356 . S
N1911 H1914 0.984 . S
N1911 H1915 0.985 . S
H1912 N1907 0.984 . S
H1913 N1907 0.985 . S
H1914 N1911 0.984 . S
H1915 N1911 0.985 . S
H1916 N1910 0.984 . S
H1917 N1910 0.984 . S
H1918 N1906 0.984 . S
H1919 N1906 0.985 . S
C1920 C1921 1.363 . S
C1920 C1926 1.379 . S
C1920 N1928 1.356 . S
C1921 C1920 1.363 . S
C1921 C1927 1.363 . S
C1922 C1923 1.363 . S
C1922 C1927 1.379 . S
C1922 N1929 1.356 . S
C1923 C1922 1.363 . S
C1923 C1926 1.363 . S
N1924 C1926 1.356 . S
N1924 H1936 0.984 . S
N1924 H1937 0.985 . S
N1925 C1927 1.356 . S
N1925 H1930 0.984 . S
N1925 H1931 0.985 . S
C1926 C1920 1.379 . S
C1926 C1923 1.363 . S
C1926 N1924 1.356 . S
C1927 C1921 1.363 . S
C1927 C1922 1.379 . S
C1927 N1925 1.356 . S
N1928 C1920 1.356 . S
N1928 H1934 0.984 . S
N1928 H1935 0.984 . S
N1929 C1922 1.356 . S
N1929 H1932 0.984 . S
N1929 H1933 0.985 . S
H1930 N1925 0.984 . S
H1931 N1925 0.985 . S
H1932 N1929 0.984 . S
H1933 N1929 0.985 . S
H1934 N1928 0.984 . S
H1935 N1928 0.984 . S
H1936 N1924 0.984 . S
H1937 N1924 0.985 . S
C1938 C1939 1.363 . S
C1938 C1944 1.379 . S
C1938 N1946 1.356 . S
C1939 C1938 1.363 . S
C1939 C1945 1.363 . S
C1940 C1941 1.363 . S
C1940 C1945 1.379 . S
C1940 N1947 1.356 . S
C1941 C1940 1.363 . S
C1941 C1944 1.363 . S
N1942 C1944 1.356 . S
N1942 H1954 0.984 . S
N1942 H1955 0.985 . S
N1943 C1945 1.356 . S
N1943 H1948 0.984 . S
N1943 H1949 0.985 . S
C1944 C1938 1.379 . S
C1944 C1941 1.363 . S
C1944 N1942 1.356 . S
C1945 C1939 1.363 . S
C1945 C1940 1.379 . S
C1945 N1943 1.356 . S
N1946 C1938 1.356 . S
N1946 H1952 0.984 . S
N1946 H1953 0.984 . S
N1947 C1940 1.356 . S
N1947 H1950 0.984 . S
N1947 H1951 0.985 . S
H1948 N1943 0.984 . S
H1949 N1943 0.985 . S
H1950 N1947 0.984 . S
H1951 N1947 0.985 . S
H1952 N1946 0.984 . S
H1953 N1946 0.984 . S
H1954 N1942 0.984 . S
H1955 N1942 0.985 . S
C1956 C1957 1.363 . S
C1956 C1962 1.379 . S
C1956 N1964 1.356 . S
C1957 C1956 1.363 . S
C1957 C1963 1.363 . S
C1958 C1959 1.363 . S
C1958 C1963 1.379 . S
C1958 N1965 1.356 . S
C1959 C1958 1.363 . S
C1959 C1962 1.363 . S
N1960 C1962 1.356 . S
N1960 H1972 0.984 . S
N1960 H1973 0.985 . S
N1961 C1963 1.356 . S
N1961 H1966 0.984 . S
N1961 H1967 0.985 . S
C1962 C1956 1.379 . S
C1962 C1959 1.363 . S
C1962 N1960 1.356 . S
C1963 C1957 1.363 . S
C1963 C1958 1.379 . S
C1963 N1961 1.356 . S
N1964 C1956 1.356 . S
N1964 H1970 0.984 . S
N1964 H1971 0.984 . S
N1965 C1958 1.356 . S
N1965 H1968 0.984 . S
N1965 H1969 0.985 . S
H1966 N1961 0.984 . S
H1967 N1961 0.985 . S
H1968 N1965 0.984 . S
H1969 N1965 0.985 . S
H1970 N1964 0.984 . S
H1971 N1964 0.984 . S
H1972 N1960 0.984 . S
H1973 N1960 0.985 . S
C1974 C1975 1.363 . S
C1974 C1980 1.379 . S
C1974 N1982 1.356 . S
C1975 C1974 1.363 . S
C1975 C1981 1.363 . S
C1976 C1977 1.363 . S
C1976 C1981 1.379 . S
C1976 N1983 1.356 . S
C1977 C1976 1.363 . S
C1977 C1980 1.363 . S
N1978 C1980 1.356 . S
N1978 H1990 0.984 . S
N1978 H1991 0.985 . S
N1979 C1981 1.356 . S
N1979 H1984 0.984 . S
N1979 H1985 0.985 . S
C1980 C1974 1.379 . S
C1980 C1977 1.363 . S
C1980 N1978 1.356 . S
C1981 C1975 1.363 . S
C1981 C1976 1.379 . S
C1981 N1979 1.356 . S
N1982 C1974 1.356 . S
N1982 H1988 0.984 . S
N1982 H1989 0.984 . S
N1983 C1976 1.356 . S
N1983 H1986 0.984 . S
N1983 H1987 0.985 . S
H1984 N1979 0.984 . S
H1985 N1979 0.985 . S
H1986 N1983 0.984 . S
H1987 N1983 0.985 . S
H1988 N1982 0.984 . S
H1989 N1982 0.984 . S
H1990 N1978 0.984 . S
H1991 N1978 0.985 . S
C1992 C1993 1.363 . S
C1992 C1998 1.379 . S
C1992 N2000 1.356 . S
C1993 C1992 1.363 . S
C1993 C1999 1.363 . S
C1994 C1995 1.363 . S
C1994 C1999 1.379 . S
C1994 N2001 1.356 . S
C1995 C1994 1.363 . S
C1995 C1998 1.363 . S
N1996 C1998 1.356 . S
N1996 H2008 0.984 . S
N1996 H2009 0.985 . S
N1997 C1999 1.356 . S
N1997 H2002 0.984 . S
N1997 H2003 0.985 . S
C1998 C1992 1.379 . S
C1998 C1995 1.363 . S
C1998 N1996 1.356 . S
C1999 C1993 1.363 . S
C1999 C1994 1.379 . S
C1999 N1997 1.356 . S
N2000 C1992 1.356 . S
N2000 H2006 0.984 . S
N2000 H2007 0.984 . S
N2001 C1994 1.356 . S
N2001 H2004 0.984 . S
N2001 H2005 0.985 . S
H2002 N1997 0.984 . S
H2003 N1997 0.985 . S
H2004 N2001 0.984 . S
H2005 N2001 0.985 . S
H2006 N2000 0.984 . S
H2007 N2000 0.984 . S
H2008 N1996 0.984 . S
H2009 N1996 0.985 . S
C2010 C2011 1.363 . S
C2010 C2016 1.379 . S
C2010 N2018 1.356 . S
C2011 C2010 1.363 . S
C2011 C2017 1.363 . S
C2012 C2013 1.363 . S
C2012 C2017 1.379 . S
C2012 N2019 1.356 . S
C2013 C2012 1.363 . S
C2013 C2016 1.363 . S
N2014 C2016 1.356 . S
N2014 H2026 0.984 . S
N2014 H2027 0.985 . S
N2015 C2017 1.356 . S
N2015 H2020 0.984 . S
N2015 H2021 0.985 . S
C2016 C2010 1.379 . S
C2016 C2013 1.363 . S
C2016 N2014 1.356 . S
C2017 C2011 1.363 . S
C2017 C2012 1.379 . S
C2017 N2015 1.356 . S
N2018 C2010 1.356 . S
N2018 H2024 0.984 . S
N2018 H2025 0.984 . S
N2019 C2012 1.356 . S
N2019 H2022 0.984 . S
N2019 H2023 0.985 . S
H2020 N2015 0.984 . S
H2021 N2015 0.985 . S
H2022 N2019 0.984 . S
H2023 N2019 0.985 . S
H2024 N2018 0.984 . S
H2025 N2018 0.984 . S
H2026 N2014 0.984 . S
H2027 N2014 0.985 . S
C2028 C2029 1.363 . S
C2028 C2034 1.379 . S
C2028 N2036 1.356 . S
C2029 C2028 1.363 . S
C2029 C2035 1.363 . S
C2030 C2031 1.363 . S
C2030 C2035 1.379 . S
C2030 N2037 1.356 . S
C2031 C2030 1.363 . S
C2031 C2034 1.363 . S
N2032 C2034 1.356 . S
N2032 H2044 0.984 . S
N2032 H2045 0.985 . S
N2033 C2035 1.356 . S
N2033 H2038 0.984 . S
N2033 H2039 0.985 . S
C2034 C2028 1.379 . S
C2034 C2031 1.363 . S
C2034 N2032 1.356 . S
C2035 C2029 1.363 . S
C2035 C2030 1.379 . S
C2035 N2033 1.356 . S
N2036 C2028 1.356 . S
N2036 H2042 0.984 . S
N2036 H2043 0.984 . S
N2037 C2030 1.356 . S
N2037 H2040 0.984 . S
N2037 H2041 0.985 . S
H2038 N2033 0.984 . S
H2039 N2033 0.985 . S
H2040 N2037 0.984 . S
H2041 N2037 0.985 . S
H2042 N2036 0.984 . S
H2043 N2036 0.984 . S
H2044 N2032 0.984 . S
H2045 N2032 0.985 . S
C2046 C2047 1.363 . S
C2046 C2052 1.379 . S
C2046 N2054 1.356 . S
C2047 C2046 1.363 . S
C2047 C2053 1.363 . S
C2048 C2049 1.363 . S
C2048 C2053 1.379 . S
C2048 N2055 1.356 . S
C2049 C2048 1.363 . S
C2049 C2052 1.363 . S
N2050 C2052 1.356 . S
N2050 H2062 0.984 . S
N2050 H2063 0.985 . S
N2051 C2053 1.356 . S
N2051 H2056 0.984 . S
N2051 H2057 0.985 . S
C2052 C2046 1.379 . S
C2052 C2049 1.363 . S
C2052 N2050 1.356 . S
C2053 C2047 1.363 . S
C2053 C2048 1.379 . S
C2053 N2051 1.356 . S
N2054 C2046 1.356 . S
N2054 H2060 0.984 . S
N2054 H2061 0.984 . S
N2055 C2048 1.356 . S
N2055 H2058 0.984 . S
N2055 H2059 0.985 . S
H2056 N2051 0.984 . S
H2057 N2051 0.985 . S
H2058 N2055 0.984 . S
H2059 N2055 0.985 . S
H2060 N2054 0.984 . S
H2061 N2054 0.984 . S
H2062 N2050 0.984 . S
H2063 N2050 0.985 . S
C2064 C2065 1.363 . S
C2064 C2070 1.379 . S
C2064 N2072 1.356 . S
C2065 C2064 1.363 . S
C2065 C2071 1.363 . S
C2066 C2067 1.363 . S
C2066 C2071 1.379 . S
C2066 N2073 1.356 . S
C2067 C2066 1.363 . S
C2067 C2070 1.363 . S
N2068 C2070 1.356 . S
N2068 H2080 0.984 . S
N2068 H2081 0.985 . S
N2069 C2071 1.356 . S
N2069 H2074 0.984 . S
N2069 H2075 0.985 . S
C2070 C2064 1.379 . S
C2070 C2067 1.363 . S
C2070 N2068 1.356 . S
C2071 C2065 1.363 . S
C2071 C2066 1.379 . S
C2071 N2069 1.356 . S
N2072 C2064 1.356 . S
N2072 H2078 0.984 . S
N2072 H2079 0.984 . S
N2073 C2066 1.356 . S
N2073 H2076 0.984 . S
N2073 H2077 0.985 . S
H2074 N2069 0.984 . S
H2075 N2069 0.985 . S
H2076 N2073 0.984 . S
H2077 N2073 0.985 . S
H2078 N2072 0.984 . S
H2079 N2072 0.984 . S
H2080 N2068 0.984 . S
H2081 N2068 0.985 . S
C2082 C2083 1.363 . S
C2082 C2088 1.379 . S
C2082 N2090 1.356 . S
C2083 C2082 1.363 . S
C2083 C2089 1.363 . S
C2084 C2085 1.363 . S
C2084 C2089 1.379 . S
C2084 N2091 1.356 . S
C2085 C2084 1.363 . S
C2085 C2088 1.363 . S
N2086 C2088 1.356 . S
N2086 H2098 0.984 . S
N2086 H2099 0.985 . S
N2087 C2089 1.356 . S
N2087 H2092 0.984 . S
N2087 H2093 0.985 . S
C2088 C2082 1.379 . S
C2088 C2085 1.363 . S
C2088 N2086 1.356 . S
C2089 C2083 1.363 . S
C2089 C2084 1.379 . S
C2089 N2087 1.356 . S
N2090 C2082 1.356 . S
N2090 H2096 0.984 . S
N2090 H2097 0.984 . S
N2091 C2084 1.356 . S
N2091 H2094 0.984 . S
N2091 H2095 0.985 . S
H2092 N2087 0.984 . S
H2093 N2087 0.985 . S
H2094 N2091 0.984 . S
H2095 N2091 0.985 . S
H2096 N2090 0.984 . S
H2097 N2090 0.984 . S
H2098 N2086 0.984 . S
H2099 N2086 0.985 . S
C2100 C2101 1.363 . S
C2100 C2106 1.379 . S
C2100 N2108 1.356 . S
C2101 C2100 1.363 . S
C2101 C2107 1.363 . S
C2102 C2103 1.363 . S
C2102 C2107 1.379 . S
C2102 N2109 1.356 . S
C2103 C2102 1.363 . S
C2103 C2106 1.363 . S
N2104 C2106 1.356 . S
N2104 H2116 0.984 . S
N2104 H2117 0.985 . S
N2105 C2107 1.356 . S
N2105 H2110 0.984 . S
N2105 H2111 0.985 . S
C2106 C2100 1.379 . S
C2106 C2103 1.363 . S
C2106 N2104 1.356 . S
C2107 C2101 1.363 . S
C2107 C2102 1.379 . S
C2107 N2105 1.356 . S
N2108 C2100 1.356 . S
N2108 H2114 0.984 . S
N2108 H2115 0.984 . S
N2109 C2102 1.356 . S
N2109 H2112 0.984 . S
N2109 H2113 0.985 . S
H2110 N2105 0.984 . S
H2111 N2105 0.985 . S
H2112 N2109 0.984 . S
H2113 N2109 0.985 . S
H2114 N2108 0.984 . S
H2115 N2108 0.984 . S
H2116 N2104 0.984 . S
H2117 N2104 0.985 . S
C2118 C2119 1.363 . S
C2118 C2124 1.379 . S
C2118 N2126 1.356 . S
C2119 C2118 1.363 . S
C2119 C2125 1.363 . S
C2120 C2121 1.363 . S
C2120 C2125 1.379 . S
C2120 N2127 1.356 . S
C2121 C2120 1.363 . S
C2121 C2124 1.363 . S
N2122 C2124 1.356 . S
N2122 H2134 0.984 . S
N2122 H2135 0.985 . S
N2123 C2125 1.356 . S
N2123 H2128 0.984 . S
N2123 H2129 0.985 . S
C2124 C2118 1.379 . S
C2124 C2121 1.363 . S
C2124 N2122 1.356 . S
C2125 C2119 1.363 . S
C2125 C2120 1.379 . S
C2125 N2123 1.356 . S
N2126 C2118 1.356 . S
N2126 H2132 0.984 . S
N2126 H2133 0.984 . S
N2127 C2120 1.356 . S
N2127 H2130 0.984 . S
N2127 H2131 0.985 . S
H2128 N2123 0.984 . S
H2129 N2123 0.985 . S
H2130 N2127 0.984 . S
H2131 N2127 0.985 . S
H2132 N2126 0.984 . S
H2133 N2126 0.984 . S
H2134 N2122 0.984 . S
H2135 N2122 0.985 . S
C1273 C834 1.988 . S
C1275 C39 1.997 . S
C1291 C675 2.093 . S
C1293 C75 2.036 . S
C1309 C728 1.628 . S
C1311 C145 1.623 . S
C1327 C764 1.825 . S
C1329 C181 1.839 . S
C1345 C781 2.010 . S
C1347 C92 1.984 . S
C1363 C128 1.823 . S
C1365 C817 1.805 . S
C1381 C658 1.800 . S
C1383 C198 1.852 . S
C1399 C711 1.760 . S
C1401 C22 1.768 . S
C1417 C976 1.711 . S
C1419 C234 1.686 . S
C1435 C304 1.942 . S
C1437 C1046 1.943 . S
C1453 C357 1.841 . S
C1455 C870 1.779 . S
C1471 C940 2.114 . S
C1473 C410 2.111 . S
C1489 C1188 2.066 . S
C1491 C463 2.120 . S
C1507 C516 1.858 . S
C1509 C1258 1.849 . S
C1525 C569 2.153 . S
C1527 C1099 2.156 . S
C1543 C622 1.725 . S
C1545 C1135 1.612 . S
C1561 C923 1.679 . S
C1563 C605 1.674 . S
C1579 C1241 1.954 . S
C1581 C287 1.973 . S
C1597 C340 1.809 . S
C1599 C1082 1.788 . S
C1615 C1152 2.053 . S
C1617 C393 1.995 . S
C1633 C1205 2.077 . S
C1635 C251 2.117 . S
C1651 C499 1.841 . S
C1653 C1029 1.839 . S
C1669 C887 2.030 . S
C1671 C552 1.965 . S
C1687 C993 1.869 . S
C1689 C446 1.830 . S
C1705 C38 2.002 . S
C1707 C250 2.008 . S
C1723 C294 1.931 . S
C1725 C82 1.912 . S
C1741 C144 1.984 . S
C1743 C347 1.979 . S
C1759 C188 1.871 . S
C1761 C400 1.858 . S
C1777 C453 2.092 . S
C1779 C91 2.091 . S
C1795 C506 1.920 . S
C1797 C135 1.922 . S
C1813 C559 2.189 . S
C1815 C197 2.193 . S
C1831 C29 1.836 . S
C1833 C612 1.825 . S
C1849 C621 2.173 . S
C1851 C241 2.141 . S
C1867 C303 2.228 . S
C1869 C462 2.232 . S
C1885 C356 2.035 . S
C1887 C515 2.032 . S
C1903 C568 2.270 . S
C1905 C409 2.269 . S
C1921 C886 2.144 . S
C1923 C665 2.122 . S
C1939 C930 1.949 . S
C1941 C718 1.935 . S
C1957 C780 2.037 . S
C1959 C992 2.027 . S
C1975 C824 2.064 . S
C1977 C1036 2.067 . S
C1993 C727 2.105 . S
C1995 C1089 2.087 . S
C2011 C771 1.971 . S
C2013 C1151 1.985 . S
C2029 C1204 2.208 . S
C2031 C833 2.211 . S
C2047 C674 2.038 . S
C2049 C1248 2.009 . S
C2065 C877 1.942 . S
C2067 C1257 1.957 . S
C2083 C1098 2.079 . S
C2085 C939 2.079 . S
C2101 C983 2.153 . S
C2103 C1142 2.118 . S
C2119 C1195 2.065 . S
C2121 C1045 2.072 . S
