# Generated by pormake.
# Topology can, (4)-cn, num edge types: 1
# Building blocks:
#     Node 0, Type 0, BuildingBlock: KUFVIS_clean_sbu_0, # of connection points: 4
#     Node 1, Type 0, BuildingBlock: KUFVIS_clean_sbu_0, # of connection points: 4
#     Node 2, Type 0, BuildingBlock: KUFVIS_clean_sbu_0, # of connection points: 4
#     Node 3, Type 0, BuildingBlock: KUFVIS_clean_sbu_0, # of connection points: 4
#     Node 4, Type 0, BuildingBlock: KUFVIS_clean_sbu_0, # of connection points: 4
#     Node 5, Type 0, BuildingBlock: KUFVIS_clean_sbu_0, # of connection points: 4
#     Node 6, Type 0, BuildingBlock: KUFVIS_clean_sbu_0, # of connection points: 4
#     Node 7, Type 0, BuildingBlock: KUFVIS_clean_sbu_0, # of connection points: 4
#     Node 8, Type 0, BuildingBlock: KUFVIS_clean_sbu_0, # of connection points: 4
#     Node 9, Type 0, BuildingBlock: KUFVIS_clean_sbu_0, # of connection points: 4
#     Node 10, Type 0, BuildingBlock: KUFVIS_clean_sbu_0, # of connection points: 4
#     Node 11, Type 0, BuildingBlock: KUFVIS_clean_sbu_0, # of connection points: 4
#     Edge 12, Type (0, 0), BuildingBlock: XIVTED_clean_linker_0, # of connection points: 2
#     Edge 13, Type (0, 0), BuildingBlock: XIVTED_clean_linker_0, # of connection points: 2
#     Edge 14, Type (0, 0), BuildingBlock: XIVTED_clean_linker_0, # of connection points: 2
#     Edge 15, Type (0, 0), BuildingBlock: XIVTED_clean_linker_0, # of connection points: 2
#     Edge 16, Type (0, 0), BuildingBlock: XIVTED_clean_linker_0, # of connection points: 2
#     Edge 17, Type (0, 0), BuildingBlock: XIVTED_clean_linker_0, # of connection points: 2
#     Edge 18, Type (0, 0), BuildingBlock: XIVTED_clean_linker_0, # of connection points: 2
#     Edge 19, Type (0, 0), BuildingBlock: XIVTED_clean_linker_0, # of connection points: 2
#     Edge 20, Type (0, 0), BuildingBlock: XIVTED_clean_linker_0, # of connection points: 2
#     Edge 21, Type (0, 0), BuildingBlock: XIVTED_clean_linker_0, # of connection points: 2
#     Edge 22, Type (0, 0), BuildingBlock: XIVTED_clean_linker_0, # of connection points: 2
#     Edge 23, Type (0, 0), BuildingBlock: XIVTED_clean_linker_0, # of connection points: 2
#     Edge 24, Type (0, 0), BuildingBlock: XIVTED_clean_linker_0, # of connection points: 2
#     Edge 25, Type (0, 0), BuildingBlock: XIVTED_clean_linker_0, # of connection points: 2
#     Edge 26, Type (0, 0), BuildingBlock: XIVTED_clean_linker_0, # of connection points: 2
#     Edge 27, Type (0, 0), BuildingBlock: XIVTED_clean_linker_0, # of connection points: 2
#     Edge 28, Type (0, 0), BuildingBlock: XIVTED_clean_linker_0, # of connection points: 2
#     Edge 29, Type (0, 0), BuildingBlock: XIVTED_clean_linker_0, # of connection points: 2
#     Edge 30, Type (0, 0), BuildingBlock: XIVTED_clean_linker_0, # of connection points: 2
#     Edge 31, Type (0, 0), BuildingBlock: XIVTED_clean_linker_0, # of connection points: 2
#     Edge 32, Type (0, 0), BuildingBlock: XIVTED_clean_linker_0, # of connection points: 2
#     Edge 33, Type (0, 0), BuildingBlock: XIVTED_clean_linker_0, # of connection points: 2
#     Edge 34, Type (0, 0), BuildingBlock: XIVTED_clean_linker_0, # of connection points: 2
#     Edge 35, Type (0, 0), BuildingBlock: XIVTED_clean_linker_0, # of connection points: 2
# Relax obj value: 0.068
# Max RMSD: 0.070
# Mean RMSD: 0.064
data_MOF--net-can--node1-KUFVIS_clean_sbu_0--edge1-XIVTED_clean_linker_0
_symmetry_space_group_name_H-M    P1
_symmetry_Int_Tables_number       1
_symmetry_cell_setting            triclinic
loop_
_symmetry_equiv_pos_as_xyz
'x, y, z'
_cell_length_a     54.820082
_cell_length_b     55.593661
_cell_length_c     27.283732
_cell_angle_alpha  89.991664
_cell_angle_beta   90.009704
_cell_angle_gamma 119.53562
loop_
_atom_site_label
_atom_site_type_symbol
_atom_site_fract_x
_atom_site_fract_y
_atom_site_fract_z
_atom_type_partial_charge
Mn0 Mn 0.06161 0.4022 0.25252 0.0
Mn1 Mn 0.10912 0.45206 0.32655 0.0
C2 C 0.06011 0.44258 0.26431 0.0
C3 C 0.04742 0.38137 0.1759 0.0
C4 C 0.05923 0.39975 0.3646 0.0
O5 O 0.09233 0.39173 0.25847 0.0
O6 O 0.12347 0.42715 0.30512 0.0
C7 C 0.15419 0.48185 0.25373 0.0
N8 N 0.13605 0.48199 0.28766 0.0
C9 C 0.15325 0.53059 0.2753 0.0
C10 C 0.17226 0.53101 0.24047 0.0
C11 C 0.17269 0.50652 0.22958 0.0
C12 C 0.13544 0.50542 0.2984 0.0
H13 H 0.1545 0.46304 0.2451 0.0
C14 C 0.11587 0.40491 0.28058 0.0
O15 O 0.03655 0.36766 0.21599 0.0
O16 O 0.0673 0.40682 0.18045 0.0
N17 N 0.09812 0.47779 0.34981 0.0
C18 C 0.07758 0.47356 0.38247 0.0
C19 C 0.07386 0.49587 0.39639 0.0
C20 C 0.09141 0.52229 0.37688 0.0
C21 C 0.11262 0.5262 0.34379 0.0
C22 C 0.1155 0.50325 0.33161 0.0
H23 H 0.064 0.45329 0.39754 0.0
O24 O 0.03801 0.42032 0.24955 0.0
O25 O 0.08254 0.44063 0.27154 0.0
O26 O 0.04856 0.38958 0.32297 0.0
O27 O 0.08206 0.42254 0.36997 0.0
C28 C 0.13063 0.55184 0.3216 0.0
C29 C 0.15089 0.55402 0.28731 0.0
H30 H 0.18645 0.54996 0.22154 0.0
H31 H 0.18721 0.50665 0.20256 0.0
H32 H 0.05743 0.49268 0.42192 0.0
H33 H 0.08827 0.53938 0.38727 0.0
H34 H 0.1288 0.56992 0.33008 0.0
H35 H 0.16435 0.57375 0.26998 0.0
Mn36 Mn 0.66619 0.06131 0.74194 0.0
Mn37 Mn 0.70491 0.02951 0.73199 0.0
C38 C 0.6735 0.04761 0.66609 0.0
C39 C 0.62346 0.0601 0.75358 0.0
C40 C 0.73045 0.09135 0.74663 0.0
O41 O 0.66677 0.04887 0.8119 0.0
O42 O 0.69173 0.02695 0.80091 0.0
C43 C 0.66014 0.97203 0.75081 0.0
N44 N 0.68061 0.99088 0.72111 0.0
C45 C 0.67147 0.95616 0.66012 0.0
C46 C 0.65042 0.93634 0.69021 0.0
C47 C 0.64472 0.94433 0.73572 0.0
C48 C 0.68632 0.98341 0.67729 0.0
H49 H 0.65555 0.97809 0.78568 0.0
C50 C 0.67776 0.03478 0.8279 0.0
O51 O 0.64714 0.08228 0.76242 0.0
O52 O 0.6246 0.03837 0.73953 0.0
N53 N 0.71862 0.0301 0.66721 0.0
C54 C 0.73849 0.052 0.6414 0.0
C55 C 0.74611 0.04765 0.59447 0.0
C56 C 0.73333 0.02085 0.57469 0.0
C57 C 0.71308 0.99862 0.60205 0.0
C58 C 0.70656 0.00416 0.64885 0.0
H59 H 0.74832 0.07266 0.65634 0.0
O60 O 0.66692 0.06699 0.66966 0.0
O61 O 0.67557 0.03678 0.70706 0.0
O62 O 0.70733 0.09164 0.74731 0.0
O63 O 0.73186 0.06922 0.74177 0.0
C64 C 0.69869 0.97126 0.58434 0.0
C65 C 0.67789 0.95006 0.61333 0.0
H66 H 0.63834 0.915 0.67855 0.0
H67 H 0.6284 0.92918 0.75903 0.0
H68 H 0.76171 0.06492 0.57351 0.0
H69 H 0.73915 0.01763 0.5384 0.0
H70 H 0.70318 0.96635 0.54823 0.0
H71 H 0.66671 0.92919 0.59903 0.0
Mn72 Mn 0.60562 0.66806 0.22852 0.0
Mn73 Mn 0.67625 0.70528 0.22737 0.0
C74 C 0.62954 0.67681 0.15514 0.0
C75 C 0.56439 0.62577 0.23623 0.0
C76 C 0.63902 0.73108 0.23928 0.0
O77 O 0.6161 0.66672 0.2995 0.0
O78 O 0.66331 0.69017 0.29473 0.0
C79 C 0.68875 0.65989 0.24465 0.0
N80 N 0.69114 0.68107 0.21618 0.0
C81 C 0.71816 0.67267 0.15599 0.0
C82 C 0.71618 0.65091 0.18487 0.0
C83 C 0.70139 0.64449 0.22936 0.0
C84 C 0.70538 0.68747 0.17334 0.0
H85 H 0.67721 0.65471 0.27869 0.0
C86 C 0.64037 0.67613 0.31861 0.0
O87 O 0.56493 0.64897 0.24522 0.0
O88 O 0.58784 0.62717 0.22346 0.0
N89 N 0.69141 0.72056 0.16442 0.0
C90 C 0.69008 0.74116 0.13963 0.0
C91 C 0.70316 0.74957 0.09372 0.0
C92 C 0.71752 0.73676 0.07383 0.0
C93 C 0.71879 0.71576 0.10018 0.0
C94 C 0.70562 0.70846 0.14603 0.0
H95 H 0.67892 0.75096 0.15456 0.0
O96 O 0.60339 0.67056 0.1558 0.0
O97 O 0.64081 0.67768 0.19755 0.0
O98 O 0.61572 0.7086 0.23594 0.0
O99 O 0.66279 0.73204 0.23762 0.0
C100 C 0.73212 0.70139 0.08232 0.0
C101 C 0.7318 0.67986 0.11019 0.0
H102 H 0.7257 0.63883 0.17301 0.0
H103 H 0.69962 0.62761 0.25171 0.0
H104 H 0.70204 0.76576 0.07355 0.0
H105 H 0.72731 0.74309 0.03815 0.0
H106 H 0.74238 0.7065 0.0469 0.0
H107 H 0.74182 0.66875 0.09579 0.0
Mn108 Mn 0.94405 0.60082 0.74984 0.0
Mn109 Mn 0.8962 0.55118 0.82376 0.0
C110 C 0.94566 0.56057 0.76288 0.0
C111 C 0.95826 0.6212 0.67283 0.0
C112 C 0.94568 0.60384 0.86192 0.0
O113 O 0.91316 0.61114 0.75454 0.0
O114 O 0.8817 0.57571 0.8008 0.0
C115 C 0.85166 0.52066 0.75041 0.0
N116 N 0.86968 0.5209 0.78502 0.0
C117 C 0.85295 0.4723 0.7739 0.0
C118 C 0.83407 0.47148 0.73838 0.0
C119 C 0.83346 0.49578 0.72654 0.0
C120 C 0.87045 0.49765 0.7967 0.0
H121 H 0.85123 0.53931 0.74104 0.0
C122 C 0.88942 0.59787 0.77594 0.0
O123 O 0.96912 0.63517 0.71271 0.0
O124 O 0.9385 0.59574 0.6778 0.0
N125 N 0.90737 0.52583 0.84842 0.0
C126 C 0.9278 0.53045 0.88162 0.0
C127 C 0.93169 0.50838 0.89649 0.0
C128 C 0.91443 0.4818 0.87736 0.0
C129 C 0.89334 0.47749 0.84368 0.0
C130 C 0.89028 0.50021 0.83056 0.0
H131 H 0.94116 0.55084 0.89639 0.0
O132 O 0.96776 0.58279 0.74806 0.0
O133 O 0.92316 0.56249 0.76941 0.0
O134 O 0.95675 0.61382 0.8204 0.0
O135 O 0.92281 0.58107 0.86707 0.0
C136 C 0.87563 0.45167 0.82181 0.0
C137 C 0.85549 0.44908 0.78689 0.0
H138 H 0.82011 0.45237 0.71966 0.0
H139 H 0.81905 0.49534 0.69898 0.0
H140 H 0.94803 0.51188 0.92247 0.0
H141 H 0.91771 0.4649 0.88849 0.0
H142 H 0.87761 0.43375 0.83103 0.0
H143 H 0.84227 0.42921 0.76981 0.0
Mn144 Mn 0.3391 0.94316 0.24184 0.0
Mn145 Mn 0.29975 0.97431 0.23195 0.0
C146 C 0.33202 0.95723 0.16619 0.0
C147 C 0.38209 0.94498 0.25385 0.0
C148 C 0.27483 0.91246 0.24559 0.0
O149 O 0.33796 0.95508 0.31192 0.0
O150 O 0.31273 0.97672 0.30095 0.0
C151 C 0.34383 0.03196 0.25179 0.0
N152 N 0.32363 0.01308 0.22172 0.0
C153 C 0.33225 0.04802 0.16148 0.0
C154 C 0.35301 0.06787 0.19196 0.0
C155 C 0.35885 0.05978 0.23727 0.0
C156 C 0.31781 0.02063 0.17808 0.0
H157 H 0.34849 0.02583 0.28653 0.0
C158 C 0.32674 0.96894 0.32795 0.0
O159 O 0.35855 0.92252 0.26212 0.0
O160 O 0.38064 0.96659 0.24019 0.0
N161 N 0.28625 0.97383 0.16703 0.0
C162 C 0.26686 0.95189 0.14065 0.0
C163 C 0.25931 0.95632 0.09371 0.0
C164 C 0.27164 0.98324 0.07453 0.0
C165 C 0.2914 0.0055 0.10247 0.0
C166 C 0.29792 0.99986 0.14919 0.0
H167 H 0.25738 0.93114 0.15514 0.0
O168 O 0.33885 0.93801 0.16948 0.0
O169 O 0.32952 0.96764 0.2073 0.0
O170 O 0.29808 0.91242 0.24635 0.0
O171 O 0.27318 0.93448 0.24108 0.0
C172 C 0.30532 0.033 0.08539 0.0
C173 C 0.32574 0.05423 0.11486 0.0
H174 H 0.36478 0.08932 0.18074 0.0
H175 H 0.37494 0.07496 0.26087 0.0
H176 H 0.24409 0.93903 0.0723 0.0
H177 H 0.26587 0.98654 0.03823 0.0
H178 H 0.30078 0.038 0.04938 0.0
H179 H 0.33658 0.07522 0.10103 0.0
Mn180 Mn 0.40125 0.33735 0.73339 0.0
Mn181 Mn 0.33106 0.30005 0.72026 0.0
C182 C 0.38126 0.33131 0.65647 0.0
C183 C 0.44141 0.3797 0.74839 0.0
C184 C 0.36806 0.27431 0.73802 0.0
O185 O 0.38681 0.33541 0.80294 0.0
O186 O 0.34023 0.31407 0.78875 0.0
C187 C 0.3171 0.34476 0.73325 0.0
N188 N 0.31635 0.32406 0.70547 0.0
C189 C 0.29188 0.33271 0.64068 0.0
C190 C 0.2921 0.35391 0.66884 0.0
C191 C 0.30482 0.35999 0.71529 0.0
C192 C 0.30421 0.31806 0.66069 0.0
H193 H 0.32712 0.34973 0.76872 0.0
C194 C 0.36157 0.32644 0.81711 0.0
O195 O 0.44102 0.35646 0.7563 0.0
O196 O 0.41833 0.37822 0.733 0.0
N197 N 0.31956 0.28587 0.65533 0.0
C198 C 0.3226 0.26593 0.63161 0.0
C199 C 0.3118 0.25801 0.58404 0.0
C200 C 0.29795 0.27061 0.5614 0.0
C201 C 0.29491 0.29094 0.58665 0.0
C202 C 0.30581 0.29776 0.63421 0.0
H203 H 0.33333 0.25624 0.6487 0.0
O204 O 0.40741 0.33796 0.6609 0.0
O205 O 0.36781 0.32854 0.69711 0.0
O206 O 0.39146 0.2968 0.73707 0.0
O207 O 0.34439 0.27342 0.73396 0.0
C208 C 0.28199 0.3051 0.5661 0.0
C209 C 0.28049 0.32598 0.59307 0.0
H210 H 0.28287 0.36587 0.65495 0.0
H211 H 0.30529 0.37648 0.73707 0.0
H212 H 0.31428 0.24235 0.56476 0.0
H213 H 0.28993 0.26467 0.52449 0.0
H214 H 0.27348 0.30036 0.5293 0.0
H215 H 0.27087 0.337 0.57661 0.0
Mn216 Mn 0.60613 0.94263 0.2639 0.0
Mn217 Mn 0.67669 0.97455 0.27281 0.0
C218 C 0.62749 0.95649 0.33946 0.0
C219 C 0.56458 0.94386 0.25277 0.0
C220 C 0.64038 0.91265 0.25862 0.0
O221 O 0.61881 0.95492 0.19378 0.0
O222 O 0.66573 0.97704 0.20407 0.0
C223 C 0.68924 0.03199 0.25409 0.0
N224 N 0.69103 0.01318 0.28366 0.0
C225 C 0.71685 0.04797 0.34442 0.0
C226 C 0.71546 0.06774 0.31445 0.0
C227 C 0.70156 0.05971 0.26912 0.0
C228 C 0.7044 0.0207 0.3273 0.0
H229 H 0.67843 0.02589 0.21936 0.0
C230 C 0.64379 0.96908 0.17741 0.0
O231 O 0.56601 0.92163 0.24395 0.0
O232 O 0.5875 0.96559 0.26654 0.0
N233 N 0.69012 0.97404 0.33737 0.0
C234 C 0.68824 0.95217 0.3631 0.0
C235 C 0.70043 0.95658 0.40986 0.0
C236 C 0.71451 0.98339 0.42955 0.0
C237 C 0.71633 0.00559 0.40228 0.0
C238 C 0.70406 1.0 0.35565 0.0
H239 H 0.67736 0.93149 0.34823 0.0
O240 O 0.60151 0.93711 0.33623 0.0
O241 O 0.64019 0.96725 0.29831 0.0
O242 O 0.61694 0.9123 0.25839 0.0
O243 O 0.66393 0.93484 0.26305 0.0
C244 C 0.72935 0.03296 0.41992 0.0
C245 C 0.72958 0.05412 0.39104 0.0
H246 H 0.72475 0.0891 0.32608 0.0
H247 H 0.70026 0.07482 0.24591 0.0
H248 H 0.69888 0.93933 0.43076 0.0
H249 H 0.72372 0.98666 0.46571 0.0
H250 H 0.73892 0.03792 0.4559 0.0
H251 H 0.73933 0.07501 0.40528 0.0
Mn252 Mn 0.6617 0.60179 0.75432 0.0
Mn253 Mn 0.65686 0.54957 0.68386 0.0
C254 C 0.61919 0.56152 0.74617 0.0
C255 C 0.6698 0.62402 0.83015 0.0
C256 C 0.65806 0.60058 0.64168 0.0
O257 O 0.7025 0.6115 0.74738 0.0
O258 O 0.69683 0.57594 0.69987 0.0
C259 C 0.67627 0.52379 0.75791 0.0
N260 N 0.65647 0.52167 0.72537 0.0
C261 C 0.62722 0.4733 0.74333 0.0
C262 C 0.64741 0.47492 0.77677 0.0
C263 C 0.672 0.5003 0.78417 0.0
C264 C 0.63268 0.49738 0.71809 0.0
H265 H 0.69518 0.54326 0.76385 0.0
C266 C 0.7122 0.59825 0.72377 0.0
O267 O 0.67218 0.63716 0.78948 0.0
O268 O 0.66371 0.59841 0.82652 0.0
N269 N 0.61963 0.52212 0.66571 0.0
C270 C 0.60154 0.52435 0.63424 0.0
C271 C 0.57567 0.50091 0.62357 0.0
C272 C 0.56871 0.47538 0.64516 0.0
C273 C 0.58772 0.47353 0.67717 0.0
C274 C 0.61331 0.49754 0.68604 0.0
H275 H 0.6066 0.54396 0.61803 0.0
O276 O 0.62009 0.58441 0.75895 0.0
O277 O 0.64322 0.56274 0.73851 0.0
O278 O 0.6608 0.61302 0.68245 0.0
O279 O 0.65628 0.57684 0.63837 0.0
C280 C 0.582 0.44894 0.7015 0.0
C281 C 0.6017 0.44884 0.73466 0.0
H282 H 0.64414 0.45688 0.79725 0.0
H283 H 0.68762 0.50175 0.8101 0.0
H284 H 0.56105 0.50256 0.59906 0.0
H285 H 0.54858 0.45742 0.63734 0.0
H286 H 0.56233 0.43008 0.69555 0.0
H287 H 0.5969 0.4299 0.75365 0.0
Mn288 Mn 0.06622 0.66704 0.27116 0.0
Mn289 Mn 0.03284 0.70402 0.28143 0.0
C290 C 0.05203 0.67379 0.34733 0.0
C291 C 0.06452 0.62474 0.25857 0.0
C292 C 0.09566 0.73001 0.26452 0.0
O293 O 0.05378 0.66805 0.20112 0.0
O294 O 0.02836 0.68939 0.21338 0.0
C295 C 0.97437 0.65885 0.26849 0.0
N296 N 0.99412 0.67989 0.296 0.0
C297 C 0.96071 0.67144 0.36016 0.0
C298 C 0.93995 0.6499 0.33225 0.0
C299 C 0.94683 0.64355 0.28625 0.0
C300 C 0.98774 0.68615 0.34035 0.0
H301 H 0.97962 0.65367 0.23337 0.0
C302 C 0.03749 0.6768 0.18594 0.0
O303 O 0.08724 0.64798 0.25001 0.0
O304 O 0.04275 0.62617 0.27305 0.0
N305 N 0.03515 0.71873 0.34581 0.0
C306 C 0.05796 0.73896 0.36943 0.0
C307 C 0.05483 0.74715 0.41662 0.0
C308 C 0.02831 0.73452 0.43898 0.0
C309 C 0.00512 0.71387 0.41385 0.0
C310 C 0.00944 0.70679 0.36665 0.0
H311 H 0.07843 0.74866 0.35256 0.0
O312 O 0.07172 0.66736 0.34379 0.0
O313 O 0.04132 0.67596 0.30625 0.0
O314 O 0.09673 0.70763 0.26635 0.0
O315 O 0.07277 0.73077 0.26792 0.0
C316 C 0.97799 0.69965 0.43418 0.0
C317 C 0.95581 0.67844 0.40737 0.0
H318 H 0.91874 0.63789 0.34601 0.0
H319 H 0.93098 0.6268 0.26467 0.0
H320 H 0.07285 0.76305 0.43583 0.0
H321 H 0.02605 0.74067 0.47562 0.0
H322 H 0.97404 0.7046 0.47068 0.0
H323 H 0.93514 0.66739 0.42369 0.0
Mn324 Mn 0.39898 0.0615 0.76316 0.0
Mn325 Mn 0.32846 0.03028 0.77196 0.0
C326 C 0.37751 0.0474 0.83854 0.0
C327 C 0.44019 0.05964 0.75185 0.0
C328 C 0.36541 0.09216 0.7584 0.0
O329 O 0.38626 0.04963 0.69295 0.0
O330 O 0.33933 0.0278 0.70321 0.0
C331 C 0.31502 0.97263 0.75262 0.0
N332 N 0.31355 0.99153 0.78241 0.0
C333 C 0.28701 0.95665 0.8426 0.0
C334 C 0.28807 0.93678 0.8124 0.0
C335 C 0.30217 0.94482 0.76725 0.0
C336 C 0.3 0.98402 0.82589 0.0
H337 H 0.32595 0.97873 0.718 0.0
C338 C 0.36126 0.03567 0.67656 0.0
O339 O 0.43918 0.08213 0.74343 0.0
O340 O 0.41706 0.03805 0.76529 0.0
N341 N 0.31517 0.03083 0.83662 0.0
C342 C 0.31761 0.05279 0.86278 0.0
C343 C 0.30545 0.0484 0.90955 0.0
C344 C 0.2908 0.02151 0.92881 0.0
C345 C 0.28842 0.99921 0.9011 0.0
C346 C 0.30075 0.00481 0.85452 0.0
H347 H 0.32892 0.07352 0.84824 0.0
O348 O 0.40357 0.06662 0.83556 0.0
O349 O 0.36479 0.037 0.79726 0.0
O350 O 0.38872 0.09225 0.75823 0.0
O351 O 0.34173 0.07011 0.76256 0.0
C352 C 0.27479 0.97174 0.91827 0.0
C353 C 0.27411 0.95048 0.88906 0.0
H354 H 0.27836 0.91534 0.82371 0.0
H355 H 0.3032 0.92962 0.74387 0.0
H356 H 0.30744 0.06572 0.93079 0.0
H357 H 0.28161 0.01825 0.96499 0.0
H358 H 0.26512 0.96677 0.95417 0.0
H359 H 0.26393 0.92951 0.90297 0.0
Mn360 Mn 0.345 0.4031 0.2532 0.0
Mn361 Mn 0.34614 0.45192 0.1778 0.0
C362 C 0.38663 0.4434 0.23915 0.0
C363 C 0.33928 0.38325 0.3306 0.0
C364 C 0.3436 0.39931 0.14119 0.0
O365 O 0.30368 0.39234 0.2485 0.0
O366 O 0.30721 0.4271 0.20083 0.0
C367 C 0.33151 0.48235 0.25035 0.0
N368 N 0.34941 0.48222 0.21587 0.0
C369 C 0.38065 0.53103 0.22608 0.0
C370 C 0.36246 0.53173 0.26145 0.0
C371 C 0.33781 0.50727 0.2737 0.0
C372 C 0.37319 0.50562 0.20385 0.0
H373 H 0.31262 0.46358 0.26002 0.0
C374 C 0.29296 0.40514 0.22626 0.0
O375 O 0.33613 0.36907 0.29098 0.0
O376 O 0.3447 0.4086 0.32517 0.0
N377 N 0.38248 0.47754 0.15287 0.0
C378 C 0.39842 0.47308 0.11973 0.0
C379 C 0.42412 0.49534 0.1044 0.0
C380 C 0.43305 0.52197 0.12299 0.0
C381 C 0.41612 0.52612 0.15656 0.0
C382 C 0.39059 0.50319 0.17016 0.0
H383 H 0.39168 0.45266 0.10535 0.0
O384 O 0.38676 0.42141 0.25468 0.0
O385 O 0.36211 0.44128 0.23264 0.0
O386 O 0.34466 0.38965 0.18305 0.0
O387 O 0.34336 0.42197 0.13525 0.0
C388 C 0.42383 0.55198 0.17786 0.0
C389 C 0.40614 0.55443 0.21267 0.0
H390 H 0.36731 0.55087 0.27975 0.0
H391 H 0.32374 0.50762 0.30115 0.0
H392 H 0.43708 0.49197 0.07849 0.0
H393 H 0.45304 0.53902 0.11151 0.0
H394 H 0.44352 0.57005 0.16828 0.0
H395 H 0.41249 0.57435 0.2293 0.0
Mn396 Mn 0.93987 0.33623 0.77359 0.0
Mn397 Mn 0.97298 0.29901 0.78459 0.0
C398 C 0.95429 0.32983 0.84983 0.0
C399 C 0.94163 0.37853 0.76042 0.0
C400 C 0.91018 0.27321 0.76773 0.0
O401 O 0.95224 0.3349 0.70361 0.0
O402 O 0.97745 0.31338 0.71643 0.0
C403 C 0.03156 0.34384 0.77117 0.0
N404 N 0.01176 0.32298 0.7989 0.0
C405 C 0.04527 0.33123 0.8628 0.0
C406 C 0.06609 0.35259 0.83464 0.0
C407 C 0.05917 0.35896 0.78868 0.0
C408 C 0.01817 0.31671 0.84324 0.0
H409 H 0.0263 0.34903 0.73607 0.0
C410 C 0.96846 0.326 0.68873 0.0
O411 O 0.91889 0.35527 0.75213 0.0
O412 O 0.96342 0.37713 0.77494 0.0
N413 N 0.97064 0.28456 0.8492 0.0
C414 C 0.94777 0.26465 0.87317 0.0
C415 C 0.9509 0.25659 0.92048 0.0
C416 C 0.97749 0.26902 0.94259 0.0
C417 C 1.00075 0.28933 0.91709 0.0
C418 C 0.99641 0.29632 0.86983 0.0
H419 H 0.92725 0.25511 0.85649 0.0
O420 O 0.9346 0.33627 0.84627 0.0
O421 O 0.96478 0.32735 0.80876 0.0
O422 O 0.90924 0.29567 0.76927 0.0
O423 O 0.933 0.27235 0.77129 0.0
C424 C 0.02796 0.30331 0.93712 0.0
C425 C 0.05021 0.32425 0.91 0.0
H426 H 0.08736 0.36446 0.84821 0.0
H427 H 0.07507 0.37557 0.76692 0.0
H428 H 0.93283 0.24094 0.93997 0.0
H429 H 0.97976 0.26296 0.9793 0.0
H430 H 0.03193 0.29841 0.97366 0.0
H431 H 0.07094 0.33515 0.92611 0.0
H432 H 0.99924 0.3331 0.15501 0.0
H433 H 0.00921 0.36443 0.8671 0.0
H434 H 0.06883 0.4032 0.08601 0.0
H435 H 0.93259 0.30611 0.93873 0.0
H436 H 0.03381 0.37384 0.94554 0.0
H437 H 0.97726 0.31757 0.07442 0.0
C438 C 0.01009 0.345 0.12286 0.0
C439 C 0.0358 0.36962 0.12724 0.0
C440 C 0.01167 0.3588 0.94421 0.0
C441 C 0.01071 0.35207 0.0352 0.0
C442 C 0.99772 0.35331 0.89945 0.0
C443 C 0.96911 0.33395 0.89659 0.0
C444 C 0.9968 0.34508 0.9866 0.0
C445 C 0.95482 0.32082 0.9396 0.0
C446 C 0.99745 0.33621 0.07695 0.0
C447 C 0.0489 0.38422 0.08438 0.0
N448 N 0.96886 0.32653 0.98298 0.0
N449 N 0.03614 0.37531 0.04022 0.0
H450 H 0.62695 0.93163 0.42582 0.0
H451 H 0.69749 0.07257 0.57958 0.0
H452 H 0.65057 0.01091 0.36151 0.0
H453 H 0.64214 0.99322 0.64394 0.0
H454 H 0.68976 0.05024 0.49883 0.0
H455 H 0.64178 0.954 0.50648 0.0
C456 C 0.63567 0.9538 0.42875 0.0
C457 C 0.63852 0.9697 0.38711 0.0
C458 C 0.6796 0.03771 0.5308 0.0
C459 C 0.65484 0.99519 0.47853 0.0
C460 C 0.68406 0.05039 0.57664 0.0
C461 C 0.67115 0.03446 0.61831 0.0
C462 C 0.66179 0.00902 0.52682 0.0
C463 C 0.65329 0.00596 0.61277 0.0
C464 C 0.64402 0.96651 0.47455 0.0
C465 C 0.64913 0.9982 0.39265 0.0
N466 N 0.64922 0.99407 0.56784 0.0
N467 N 0.65706 0.01011 0.43754 0.0
H468 H 0.63354 0.70314 0.06853 0.0
H469 H 0.67475 0.60491 0.91955 0.0
H470 H 0.65133 0.64344 0.13595 0.0
H471 H 0.66742 0.67111 0.85147 0.0
H472 H 0.67033 0.62169 0.99982 0.0
H473 H 0.64924 0.69449 0.98938 0.0
C474 C 0.64125 0.68858 0.06665 0.0
C475 C 0.64196 0.67453 0.10875 0.0
C476 C 0.66998 0.63278 0.96744 0.0
C477 C 0.65907 0.66387 0.01864 0.0
C478 C 0.67253 0.6232 0.92153 0.0
C479 C 0.67122 0.63649 0.87873 0.0
C480 C 0.66562 0.65561 0.97072 0.0
C481 C 0.66848 0.6602 0.88355 0.0
C482 C 0.65018 0.68363 0.02163 0.0
C483 C 0.65132 0.6553 0.10448 0.0
N484 N 0.66538 0.66879 0.92871 0.0
N485 N 0.65942 0.65046 0.06023 0.0
H486 H 0.0747 0.69869 0.43488 0.0
H487 H 0.93518 0.60002 0.58356 0.0
H488 H 0.9973 0.63926 0.36684 0.0
H489 H 0.0074 0.66825 0.65076 0.0
H490 H 0.95693 0.61586 0.50331 0.0
H491 H 0.05033 0.68929 0.51418 0.0
C492 C 0.05249 0.68393 0.43674 0.0
C493 C 0.03769 0.67027 0.39445 0.0
C494 C 0.96795 0.62756 0.5355 0.0
C495 C 0.00992 0.65883 0.4845 0.0
C496 C 0.95551 0.61853 0.58136 0.0
C497 C 0.96959 0.63272 0.62391 0.0
C498 C 0.9949 0.65074 0.53214 0.0
C499 C 0.99584 0.65666 0.61886 0.0
C500 C 0.03859 0.67859 0.48179 0.0
C501 C 0.00917 0.65079 0.39857 0.0
N502 N 0.00782 0.66473 0.57383 0.0
N503 N 0.99621 0.64561 0.4428 0.0
H504 H 0.35358 0.9927 0.85838 0.0
H505 H 0.36282 0.01192 0.1463 0.0
H506 H 0.37896 0.07149 0.92627 0.0
H507 H 0.30972 0.93308 0.07831 0.0
H508 H 0.37044 0.03433 0.06618 0.0
H509 H 0.33861 0.97026 0.93845 0.0
C510 C 0.35534 0.00513 0.89017 0.0
C511 C 0.36643 0.03374 0.88582 0.0
C512 C 0.35676 0.01219 0.0688 0.0
C513 C 0.35078 0.00859 0.97759 0.0
C514 C 0.35225 0.99947 0.11447 0.0
C515 C 0.33477 0.97086 0.11881 0.0
C516 C 0.34444 0.99598 0.02698 0.0
C517 C 0.32282 0.95532 0.07634 0.0
C518 C 0.34702 0.9924 0.93581 0.0
C519 C 0.36985 0.04925 0.92825 0.0
N520 N 0.32789 0.96809 0.03202 0.0
N521 N 0.36206 0.03647 0.97254 0.0
H522 H 0.33805 0.40497 0.41974 0.0
H523 H 0.37995 0.30708 0.56862 0.0
H524 H 0.34166 0.33642 0.35308 0.0
H525 H 0.361 0.36579 0.63687 0.0
H526 H 0.36511 0.31656 0.48924 0.0
H527 H 0.34459 0.38959 0.50004 0.0
C528 C 0.33993 0.3865 0.42207 0.0
C529 C 0.3395 0.37206 0.37965 0.0
C530 C 0.36386 0.32711 0.52168 0.0
C531 C 0.34752 0.35458 0.47143 0.0
C532 C 0.37235 0.32173 0.56676 0.0
C533 C 0.37085 0.33513 0.60913 0.0
C534 C 0.35465 0.34665 0.51903 0.0
C535 C 0.36163 0.35447 0.60504 0.0
C536 C 0.3437 0.37772 0.46794 0.0
C537 C 0.34191 0.34819 0.38487 0.0
N538 N 0.3539 0.35969 0.56079 0.0
N539 N 0.34617 0.34037 0.42988 0.0
H540 H 0.92222 0.60696 0.94784 0.0
H541 H 0.05891 0.66175 0.10782 0.0
H542 H 1.00231 0.63369 0.87879 0.0
H543 H 0.99136 0.67677 0.14779 0.0
H544 H 0.03805 0.64744 0.02593 0.0
H545 H 0.94637 0.62824 0.02453 0.0
C546 C 0.94492 0.61749 0.94881 0.0
C547 C 0.96032 0.61866 0.90698 0.0
C548 C 0.02806 0.65417 0.05262 0.0
C549 C 0.98802 0.64251 0.99476 0.0
C550 C 0.03985 0.66223 0.09936 0.0
C551 C 0.02681 0.67036 0.13492 0.0
C552 C 1.00275 0.65364 0.04185 0.0
C553 C 1.00218 0.67067 0.12174 0.0
C554 C 0.95867 0.62968 0.99247 0.0
C555 C 0.98971 0.63255 0.91019 0.0
N556 N 0.99076 0.66205 0.07657 0.0
N557 N 1.00265 0.64363 0.95362 0.0
H558 H 0.29616 0.9858 0.38288 0.0
H559 H 0.39898 0.03314 0.61342 0.0
H560 H 0.36728 0.97249 0.3915 0.0
H561 H 0.31386 0.01797 0.62106 0.0
H562 H 0.39048 0.01627 0.52872 0.0
H563 H 0.30489 0.00251 0.46733 0.0
C564 C 0.31357 0.9863 0.40256 0.0
C565 C 0.33097 0.97764 0.38003 0.0
C566 C 0.37372 0.01668 0.54903 0.0
C567 C 0.34127 0.99713 0.47666 0.0
C568 C 0.37859 0.02648 0.59723 0.0
C569 C 0.3571 0.02699 0.62446 0.0
C570 C 0.34731 0.0077 0.52766 0.0
C571 C 0.33103 0.01788 0.60161 0.0
C572 C 0.3185 0.99581 0.45081 0.0
C573 C 0.3532 0.97876 0.40748 0.0
N574 N 0.32691 0.00872 0.55454 0.0
N575 N 0.35784 0.98852 0.45425 0.0
H576 H 0.31476 0.32572 0.85352 0.0
H577 H 0.37024 0.36916 0.12679 0.0
H578 H 0.39705 0.34111 0.89665 0.0
H579 H 0.31759 0.39568 0.05428 0.0
H580 H 0.3733 0.34787 0.04959 0.0
H581 H 0.30847 0.3401 0.93485 0.0
C582 C 0.33141 0.33179 0.88019 0.0
C583 C 0.35662 0.33244 0.86796 0.0
C584 C 0.36093 0.35818 0.05093 0.0
C585 C 0.34929 0.34865 0.96136 0.0
C586 C 0.35901 0.37013 0.09485 0.0
C587 C 0.34369 0.38422 0.09672 0.0
C588 C 0.34684 0.3598 0.00918 0.0
C589 C 0.32975 0.38514 0.05426 0.0
C590 C 0.32779 0.3401 0.92654 0.0
C591 C 0.37738 0.34052 0.90431 0.0
N592 N 0.33156 0.373 0.01227 0.0
N593 N 0.37326 0.34833 0.94946 0.0
H594 H 0.01449 0.3255 0.65159 0.0
H595 H 1.00247 0.3695 0.37914 0.0
H596 H 0.94774 0.34144 0.61 0.0
H597 H 0.08172 0.39702 0.45199 0.0
H598 H 0.97818 0.34835 0.45646 0.0
H599 H 0.03521 0.34052 0.57048 0.0
C600 C 0.00395 0.33183 0.6253 0.0
C601 C 0.97941 0.33243 0.63791 0.0
C602 C 1.00086 0.35887 0.45518 0.0
C603 C 0.00302 0.34937 0.54473 0.0
C604 C 0.0147 0.37075 0.4112 0.0
C605 C 0.04412 0.38504 0.40936 0.0
C606 C 0.01661 0.36074 0.49701 0.0
C607 C 0.05902 0.38631 0.45198 0.0
C608 C 0.01591 0.34051 0.57908 0.0
C609 C 0.96679 0.34087 0.60203 0.0
N610 N 0.0451 0.37419 0.494 0.0
N611 N 0.97874 0.34901 0.55694 0.0
H612 H 0.70816 0.01772 0.88293 0.0
H613 H 0.60594 0.9714 0.11423 0.0
H614 H 0.6373 0.03143 0.8915 0.0
H615 H 0.69116 0.9869 0.12178 0.0
H616 H 0.61424 0.98795 0.0293 0.0
H617 H 0.69958 1.00133 0.9676 0.0
C618 C 0.69082 0.01735 0.90262 0.0
C619 C 0.67347 0.02605 0.88001 0.0
C620 C 0.63107 0.9877 0.04964 0.0
C621 C 0.66335 0.00694 0.97694 0.0
C622 C 0.62632 0.97808 0.09799 0.0
C623 C 0.64789 0.97774 0.12525 0.0
C624 C 0.65745 0.99664 0.02816 0.0
C625 C 0.67394 0.98687 0.10231 0.0
C626 C 0.68598 0.00803 0.95101 0.0
C627 C 0.65134 0.02512 0.90751 0.0
N628 N 0.67793 0.99581 0.0551 0.0
N629 N 0.64678 0.01554 0.95443 0.0
H630 H 0.68319 0.70318 0.38508 0.0
H631 H 0.63473 0.57463 0.55538 0.0
H632 H 0.60181 0.63067 0.36843 0.0
H633 H 0.67569 0.65558 0.62215 0.0
H634 H 0.62919 0.59495 0.48015 0.0
H635 H 0.68709 0.68665 0.4669 0.0
C636 C 0.66607 0.68397 0.39877 0.0
C637 C 0.64213 0.66827 0.36987 0.0
C638 C 0.63929 0.60823 0.51135 0.0
C639 C 0.64682 0.64913 0.46237 0.0
C640 C 0.64257 0.5967 0.55441 0.0
C641 C 0.65547 0.61336 0.59558 0.0
C642 C 0.64969 0.6368 0.50857 0.0
C643 C 0.66542 0.64194 0.59148 0.0
C644 C 0.6683 0.67466 0.44538 0.0
C645 C 0.62057 0.64352 0.38944 0.0
N646 N 0.66261 0.65286 0.54846 0.0
N647 N 0.62364 0.6345 0.43407 0.0
H648 H 0.10599 0.61425 0.22717 0.0
H649 H 0.02256 0.45503 0.30542 0.0
H650 H 0.02121 0.57387 0.28251 0.0
H651 H 0.09684 0.48927 0.21584 0.0
H652 H 0.02287 0.49925 0.30099 0.0
H653 H 0.10457 0.56947 0.22645 0.0
C654 C 0.08703 0.59596 0.23881 0.0
C655 C 0.06368 0.59779 0.25488 0.0
C656 C 0.03917 0.49716 0.28238 0.0
C657 C 0.06198 0.54664 0.25445 0.0
C658 C 0.03902 0.47202 0.28509 0.0
C659 C 0.06039 0.46913 0.26273 0.0
C660 C 0.06065 0.51936 0.25644 0.0
C661 C 0.08073 0.49127 0.23536 0.0
C662 C 0.08622 0.57043 0.23836 0.0
C663 C 0.03969 0.57344 0.26974 0.0
N664 N 0.08057 0.51562 0.23337 0.0
N665 N 0.03952 0.54893 0.26942 0.0
H666 H 0.44776 0.01463 0.75774 0.0
H667 H 0.61507 0.10428 0.76682 0.0
H668 H 0.49334 0.10337 0.74156 0.0
H669 H 0.57045 0.01588 0.74537 0.0
H670 H 0.57038 0.10414 0.76525 0.0
H671 H 0.4923 0.01446 0.75937 0.0
C672 C 0.46713 0.03407 0.75425 0.0
C673 C 0.46684 0.05906 0.74944 0.0
C674 C 0.57037 0.08477 0.76096 0.0
C675 C 0.51788 0.05904 0.75193 0.0
C676 C 0.59586 0.0848 0.76216 0.0
C677 C 0.59648 0.06005 0.75619 0.0
C678 C 0.54529 0.05976 0.75416 0.0
C679 C 0.57094 0.03545 0.75005 0.0
C680 C 0.49254 0.03395 0.75522 0.0
C681 C 0.49258 0.08362 0.74514 0.0
N682 N 0.54638 0.03592 0.74924 0.0
N683 N 0.51706 0.08302 0.74678 0.0
H684 H 0.51257 0.6155 0.26762 0.0
H685 H 0.4359 0.45526 0.1956 0.0
H686 H 0.55641 0.57486 0.2109 0.0
H687 H 0.39737 0.49084 0.28571 0.0
H688 H 0.47977 0.49964 0.19666 0.0
H689 H 0.46927 0.57078 0.26981 0.0
C690 C 0.51312 0.59717 0.2558 0.0
C691 C 0.53815 0.5989 0.23912 0.0
C692 C 0.46172 0.49781 0.21611 0.0
C693 C 0.48873 0.54775 0.24139 0.0
C694 C 0.43675 0.47257 0.21533 0.0
C695 C 0.41288 0.46999 0.23882 0.0
C696 C 0.46283 0.5204 0.24126 0.0
C697 C 0.41511 0.49254 0.26538 0.0
C698 C 0.48842 0.57166 0.25716 0.0
C699 C 0.53761 0.57449 0.22414 0.0
N700 N 0.43959 0.51696 0.26549 0.0
N701 N 0.51329 0.54996 0.22544 0.0
H702 H 0.98302 0.54829 0.80544 0.0
H703 H 0.90023 0.3889 0.72817 0.0
H704 H 0.90926 0.51372 0.71446 0.0
H705 H 0.98481 0.42949 0.78444 0.0
H706 H 0.90156 0.43362 0.72681 0.0
H707 H 0.98281 0.50409 0.80197 0.0
C708 C 0.96669 0.53124 0.78502 0.0
C709 C 0.94543 0.53404 0.76196 0.0
C710 C 0.91989 0.43273 0.73907 0.0
C711 C 0.94531 0.48383 0.75676 0.0
C712 C 0.91913 0.40722 0.73989 0.0
C713 C 0.94245 0.40546 0.75638 0.0
C714 C 0.94405 0.45657 0.75524 0.0
C715 C 0.96636 0.42986 0.77134 0.0
C716 C 0.9666 0.5061 0.78285 0.0
C717 C 0.92527 0.51181 0.73449 0.0
N718 N 0.96648 0.45435 0.77067 0.0
N719 N 0.9255 0.48748 0.73304 0.0
H720 H 0.43476 0.98989 0.24804 0.0
H721 H 0.51192 0.89974 0.24001 0.0
H722 H 0.39133 0.90117 0.26472 0.0
H723 H 0.55596 0.98819 0.26078 0.0
H724 H 0.46745 0.90005 0.24158 0.0
H725 H 0.47938 0.98988 0.24675 0.0
C726 C 0.43462 0.97042 0.25173 0.0
C727 C 0.40929 0.94548 0.25656 0.0
C728 C 0.48685 0.91939 0.24573 0.0
C729 C 0.46025 0.9453 0.25444 0.0
C730 C 0.51225 0.91925 0.24453 0.0
C731 C 0.53769 0.94398 0.2503 0.0
C732 C 0.48688 0.94446 0.25232 0.0
C733 C 0.53684 0.96864 0.25626 0.0
C734 C 0.4601 0.97043 0.25094 0.0
C735 C 0.41036 0.92088 0.26111 0.0
N736 N 0.51186 0.96827 0.25706 0.0
N737 N 0.43541 0.92138 0.25963 0.0
H738 H 0.56885 0.54984 0.70757 0.0
H739 H 0.49297 0.39024 0.78219 0.0
H740 H 0.60879 0.51496 0.79588 0.0
H741 H 0.44878 0.43074 0.72645 0.0
H742 H 0.53601 0.4352 0.78579 0.0
H743 H 0.52468 0.50595 0.71278 0.0
C744 C 0.56822 0.5328 0.72791 0.0
C745 C 0.59256 0.53536 0.74943 0.0
C746 C 0.51682 0.43423 0.77318 0.0
C747 C 0.54228 0.48546 0.75654 0.0
C748 C 0.49227 0.40858 0.77107 0.0
C749 C 0.46725 0.40673 0.75396 0.0
C750 C 0.51636 0.45812 0.75766 0.0
C751 C 0.46757 0.43117 0.73991 0.0
C752 C 0.54308 0.50783 0.73105 0.0
C753 C 0.59063 0.51319 0.7769 0.0
N754 N 0.49175 0.45579 0.74176 0.0
N755 N 0.56597 0.48898 0.7792 0.0
H756 H 0.15298 0.40697 0.34907 0.0
H757 H 0.257 0.40541 0.15777 0.0
H758 H 0.12676 0.38259 0.19969 0.0
H759 H 0.26071 0.38434 0.30865 0.0
H760 H 0.20938 0.39724 0.17155 0.0
H761 H 0.19254 0.39891 0.33589 0.0
C762 C 0.15532 0.39946 0.31373 0.0
C763 C 0.13669 0.39553 0.27533 0.0
C764 C 0.22038 0.39386 0.20139 0.0
C765 C 0.18221 0.38692 0.2597 0.0
C766 C 0.24755 0.39859 0.1936 0.0
C767 C 0.26277 0.39562 0.2322 0.0
C768 C 0.20867 0.38692 0.24849 0.0
C769 C 0.2496 0.38675 0.2779 0.0
C770 C 0.17783 0.39479 0.30629 0.0
C771 C 0.14062 0.38576 0.23027 0.0
N772 N 0.22348 0.38328 0.28511 0.0
N773 N 0.16333 0.38236 0.22333 0.0
H774 H 0.85651 0.26506 0.7621 0.0
H775 H 0.78429 0.10003 0.74682 0.0
H776 H 0.90263 0.22061 0.76325 0.0
H777 H 0.73758 0.14379 0.7545 0.0
H778 H 0.8278 0.14412 0.75109 0.0
H779 H 0.81282 0.22103 0.75709 0.0
C780 C 0.85753 0.2461 0.76114 0.0
C781 C 0.88343 0.24668 0.76309 0.0
C782 C 0.80804 0.14409 0.75193 0.0
C783 C 0.83329 0.19605 0.75748 0.0
C784 C 0.78311 0.11887 0.74955 0.0
C785 C 0.75708 0.11806 0.75039 0.0
C786 C 0.8071 0.16884 0.75507 0.0
C787 C 0.75706 0.14329 0.75381 0.0
C788 C 0.83251 0.22092 0.75838 0.0
C789 C 0.88326 0.22131 0.76179 0.0
N790 N 0.78165 0.1676 0.75597 0.0
N791 N 0.85863 0.1971 0.7591 0.0
H792 H 0.59331 0.73904 0.24238 0.0
H793 H 0.68561 0.90408 0.25902 0.0
H794 H 0.68386 0.78371 0.24575 0.0
H795 H 0.59517 0.86015 0.25046 0.0
H796 H 0.68517 0.86006 0.25516 0.0
H797 H 0.59343 0.78299 0.24686 0.0
C798 C 0.61323 0.75803 0.24423 0.0
C799 C 0.63862 0.75753 0.24371 0.0
C800 C 0.66541 0.86003 0.25404 0.0
C801 C 0.63885 0.80807 0.24868 0.0
C802 C 0.66562 0.88522 0.25617 0.0
C803 C 0.64037 0.88597 0.25498 0.0
C804 C 0.63977 0.83524 0.25078 0.0
C805 C 0.61518 0.8607 0.25142 0.0
C806 C 0.61326 0.78315 0.2467 0.0
C807 C 0.66374 0.78293 0.24611 0.0
N808 N 0.61553 0.83642 0.2495 0.0
N809 N 0.66319 0.80709 0.24845 0.0
H810 H 0.85353 0.5982 0.84438 0.0
H811 H 0.74568 0.59341 0.65494 0.0
H812 H 0.87719 0.61728 0.69267 0.0
H813 H 0.74704 0.62249 0.80201 0.0
H814 H 0.79329 0.60108 0.66697 0.0
H815 H 0.81389 0.60607 0.8303 0.0
C816 C 0.8506 0.60452 0.80829 0.0
C817 C 0.86857 0.6071 0.76959 0.0
C818 C 0.78338 0.6063 0.69623 0.0
C819 C 0.82294 0.61537 0.75295 0.0
C820 C 0.75621 0.60186 0.68946 0.0
C821 C 0.74241 0.60726 0.7276 0.0
C822 C 0.79648 0.6154 0.74194 0.0
C823 C 0.75699 0.61818 0.7716 0.0
C824 C 0.82806 0.60907 0.80032 0.0
C825 C 0.86387 0.61526 0.7235 0.0
N826 N 0.78303 0.62134 0.77797 0.0
N827 N 0.84111 0.61853 0.71614 0.0
H828 H 0.22088 0.90339 0.24528 0.0
H829 H 0.14943 0.73841 0.25923 0.0
H830 H 0.26806 0.8601 0.25279 0.0
H831 H 0.10296 0.78251 0.25976 0.0
H832 H 0.19302 0.78256 0.2546 0.0
H833 H 0.17754 0.85916 0.24881 0.0
C834 C 0.22221 0.88463 0.24781 0.0
C835 C 0.24832 0.88562 0.24884 0.0
C836 C 0.17328 0.78256 0.25565 0.0
C837 C 0.19847 0.83465 0.25267 0.0
C838 C 0.14832 0.75732 0.25819 0.0
C839 C 0.12234 0.75661 0.25988 0.0
C840 C 0.17237 0.80737 0.25472 0.0
C841 C 0.12238 0.78191 0.2585 0.0
C842 C 0.19737 0.85932 0.24977 0.0
C843 C 0.24851 0.86046 0.25198 0.0
N844 N 0.14695 0.80618 0.25604 0.0
N845 N 0.224 0.83605 0.25374 0.0
H846 H 0.41356 0.26613 0.7445 0.0
H847 H 0.32043 0.10107 0.75718 0.0
H848 H 0.32301 0.2217 0.74143 0.0
H849 H 0.41095 0.14459 0.75195 0.0
H850 H 0.32119 0.14523 0.75309 0.0
H851 H 0.41318 0.22206 0.74938 0.0
C852 C 0.39358 0.24717 0.74501 0.0
C853 C 0.36827 0.24777 0.74257 0.0
C854 C 0.3409 0.14515 0.75276 0.0
C855 C 0.36774 0.1971 0.74802 0.0
C856 C 0.3405 0.11987 0.75504 0.0
C857 C 0.36568 0.11897 0.75482 0.0
C858 C 0.36665 0.16986 0.75034 0.0
C859 C 0.391 0.14417 0.75214 0.0
C860 C 0.3934 0.22198 0.7477 0.0
C861 C 0.34307 0.2224 0.74329 0.0
N862 N 0.39083 0.16854 0.75006 0.0
N863 N 0.34347 0.19818 0.74592 0.0
loop_
_geom_bond_atom_site_label_1
_geom_bond_atom_site_label_2
_geom_bond_distance
_geom_bond_site_symmetry_2
_ccdc_geom_bond_type
Mn0 O5 2.095 . S
Mn0 O15 2.162 . S
Mn0 O16 2.297 . S
Mn0 O24 2.385 . S
Mn0 O25 2.209 . S
Mn0 O26 2.094 . S
Mn1 O6 2.121 . S
Mn1 N8 2.257 . S
Mn1 N17 2.282 . S
Mn1 O25 2.215 . S
Mn1 O27 2.117 . S
C2 O24 1.234 . S
C2 O25 1.283 . S
C3 O15 1.281 . S
C3 O16 1.236 . S
C4 O26 1.240 . S
C4 O27 1.264 . S
O5 Mn0 2.095 . S
O5 C14 1.250 . S
O6 Mn1 2.121 . S
O6 C14 1.258 . S
C7 N8 1.326 . S
C7 C11 1.460 . S
C7 H13 0.929 . S
N8 Mn1 2.257 . S
N8 C7 1.326 . S
N8 C12 1.362 . S
C9 C10 1.258 . S
C9 C12 1.431 . S
C9 C29 1.449 . S
C10 C9 1.258 . S
C10 C11 1.477 . S
C10 H30 0.931 . S
C11 C7 1.460 . S
C11 C10 1.477 . S
C11 H31 0.930 . S
C12 N8 1.362 . S
C12 C9 1.431 . S
C12 C22 1.476 . S
H13 C7 0.929 . S
C14 O5 1.250 . S
C14 O6 1.258 . S
O15 Mn0 2.162 . S
O15 C3 1.281 . S
O16 Mn0 2.297 . S
O16 C3 1.236 . S
N17 Mn1 2.282 . S
N17 C18 1.328 . S
N17 C22 1.318 . S
C18 N17 1.328 . S
C18 C19 1.457 . S
C18 H23 0.929 . S
C19 C18 1.457 . S
C19 C20 1.291 . S
C19 H32 0.931 . S
C20 C19 1.291 . S
C20 C21 1.373 . S
C20 H33 0.929 . S
C21 C20 1.373 . S
C21 C22 1.396 . S
C21 C28 1.403 . S
C22 C12 1.476 . S
C22 N17 1.318 . S
C22 C21 1.396 . S
H23 C18 0.929 . S
O24 Mn0 2.385 . S
O24 C2 1.234 . S
O25 Mn0 2.209 . S
O25 Mn1 2.215 . S
O25 C2 1.283 . S
O26 Mn0 2.094 . S
O26 C4 1.240 . S
O27 Mn1 2.117 . S
O27 C4 1.264 . S
C28 C21 1.403 . S
C28 C29 1.399 . S
C28 H34 0.929 . S
C29 C9 1.449 . S
C29 C28 1.399 . S
C29 H35 0.930 . S
H30 C10 0.931 . S
H31 C11 0.930 . S
H32 C19 0.931 . S
H33 C20 0.929 . S
H34 C28 0.929 . S
H35 C29 0.930 . S
Mn36 O41 2.095 . S
Mn36 O51 2.162 . S
Mn36 O52 2.297 . S
Mn36 O60 2.385 . S
Mn36 O61 2.209 . S
Mn36 O62 2.094 . S
Mn37 O42 2.121 . S
Mn37 N44 2.257 1_545 S
Mn37 N53 2.282 . S
Mn37 O61 2.215 . S
Mn37 O63 2.117 . S
C38 O60 1.234 . S
C38 O61 1.283 . S
C39 O51 1.281 . S
C39 O52 1.236 . S
C40 O62 1.240 . S
C40 O63 1.264 . S
O41 Mn36 2.095 . S
O41 C50 1.250 . S
O42 Mn37 2.121 . S
O42 C50 1.258 . S
C43 N44 1.326 . S
C43 C47 1.460 . S
C43 H49 0.929 . S
N44 Mn37 2.257 1_565 S
N44 C43 1.326 . S
N44 C48 1.362 . S
C45 C46 1.258 . S
C45 C48 1.431 . S
C45 C65 1.449 . S
C46 C45 1.258 . S
C46 C47 1.477 . S
C46 H66 0.931 . S
C47 C43 1.460 . S
C47 C46 1.477 . S
C47 H67 0.930 . S
C48 N44 1.362 . S
C48 C45 1.431 . S
C48 C58 1.476 1_565 S
H49 C43 0.929 . S
C50 O41 1.250 . S
C50 O42 1.258 . S
O51 Mn36 2.162 . S
O51 C39 1.281 . S
O52 Mn36 2.297 . S
O52 C39 1.236 . S
N53 Mn37 2.282 . S
N53 C54 1.328 . S
N53 C58 1.318 . S
C54 N53 1.328 . S
C54 C55 1.457 . S
C54 H59 0.929 . S
C55 C54 1.457 . S
C55 C56 1.291 . S
C55 H68 0.931 . S
C56 C55 1.291 . S
C56 C57 1.373 . S
C56 H69 0.929 . S
C57 C56 1.373 . S
C57 C58 1.396 . S
C57 C64 1.403 1_545 S
C58 C48 1.476 1_545 S
C58 N53 1.318 . S
C58 C57 1.396 . S
H59 C54 0.929 . S
O60 Mn36 2.385 . S
O60 C38 1.234 . S
O61 Mn36 2.209 . S
O61 Mn37 2.215 . S
O61 C38 1.283 . S
O62 Mn36 2.094 . S
O62 C40 1.240 . S
O63 Mn37 2.117 . S
O63 C40 1.264 . S
C64 C57 1.403 1_565 S
C64 C65 1.399 . S
C64 H70 0.929 . S
C65 C45 1.449 . S
C65 C64 1.399 . S
C65 H71 0.930 . S
H66 C46 0.931 . S
H67 C47 0.930 . S
H68 C55 0.931 . S
H69 C56 0.929 . S
H70 C64 0.929 . S
H71 C65 0.930 . S
Mn72 O77 2.095 . S
Mn72 O87 2.162 . S
Mn72 O88 2.297 . S
Mn72 O96 2.385 . S
Mn72 O97 2.209 . S
Mn72 O98 2.094 . S
Mn73 O78 2.121 . S
Mn73 N80 2.257 . S
Mn73 N89 2.282 . S
Mn73 O97 2.215 . S
Mn73 O99 2.117 . S
C74 O96 1.234 . S
C74 O97 1.283 . S
C75 O87 1.281 . S
C75 O88 1.236 . S
C76 O98 1.240 . S
C76 O99 1.264 . S
O77 Mn72 2.095 . S
O77 C86 1.250 . S
O78 Mn73 2.121 . S
O78 C86 1.258 . S
C79 N80 1.326 . S
C79 C83 1.460 . S
C79 H85 0.929 . S
N80 Mn73 2.257 . S
N80 C79 1.326 . S
N80 C84 1.362 . S
C81 C82 1.258 . S
C81 C84 1.431 . S
C81 C101 1.449 . S
C82 C81 1.258 . S
C82 C83 1.477 . S
C82 H102 0.931 . S
C83 C79 1.460 . S
C83 C82 1.477 . S
C83 H103 0.930 . S
C84 N80 1.362 . S
C84 C81 1.431 . S
C84 C94 1.476 . S
H85 C79 0.929 . S
C86 O77 1.250 . S
C86 O78 1.258 . S
O87 Mn72 2.162 . S
O87 C75 1.281 . S
O88 Mn72 2.297 . S
O88 C75 1.236 . S
N89 Mn73 2.282 . S
N89 C90 1.328 . S
N89 C94 1.318 . S
C90 N89 1.328 . S
C90 C91 1.457 . S
C90 H95 0.929 . S
C91 C90 1.457 . S
C91 C92 1.291 . S
C91 H104 0.931 . S
C92 C91 1.291 . S
C92 C93 1.373 . S
C92 H105 0.929 . S
C93 C92 1.373 . S
C93 C94 1.396 . S
C93 C100 1.403 . S
C94 C84 1.476 . S
C94 N89 1.318 . S
C94 C93 1.396 . S
H95 C90 0.929 . S
O96 Mn72 2.385 . S
O96 C74 1.234 . S
O97 Mn72 2.209 . S
O97 Mn73 2.215 . S
O97 C74 1.283 . S
O98 Mn72 2.094 . S
O98 C76 1.240 . S
O99 Mn73 2.117 . S
O99 C76 1.264 . S
C100 C93 1.403 . S
C100 C101 1.399 . S
C100 H106 0.929 . S
C101 C81 1.449 . S
C101 C100 1.399 . S
C101 H107 0.930 . S
H102 C82 0.931 . S
H103 C83 0.930 . S
H104 C91 0.931 . S
H105 C92 0.929 . S
H106 C100 0.929 . S
H107 C101 0.930 . S
Mn108 O113 2.095 . S
Mn108 O123 2.162 . S
Mn108 O124 2.297 . S
Mn108 O132 2.385 . S
Mn108 O133 2.209 . S
Mn108 O134 2.094 . S
Mn109 O114 2.121 . S
Mn109 N116 2.257 . S
Mn109 N125 2.282 . S
Mn109 O133 2.215 . S
Mn109 O135 2.117 . S
C110 O132 1.234 . S
C110 O133 1.283 . S
C111 O123 1.281 . S
C111 O124 1.236 . S
C112 O134 1.240 . S
C112 O135 1.264 . S
O113 Mn108 2.095 . S
O113 C122 1.250 . S
O114 Mn109 2.121 . S
O114 C122 1.258 . S
C115 N116 1.326 . S
C115 C119 1.460 . S
C115 H121 0.929 . S
N116 Mn109 2.257 . S
N116 C115 1.326 . S
N116 C120 1.362 . S
C117 C118 1.258 . S
C117 C120 1.431 . S
C117 C137 1.449 . S
C118 C117 1.258 . S
C118 C119 1.477 . S
C118 H138 0.931 . S
C119 C115 1.460 . S
C119 C118 1.477 . S
C119 H139 0.930 . S
C120 N116 1.362 . S
C120 C117 1.431 . S
C120 C130 1.476 . S
H121 C115 0.929 . S
C122 O113 1.250 . S
C122 O114 1.258 . S
O123 Mn108 2.162 . S
O123 C111 1.281 . S
O124 Mn108 2.297 . S
O124 C111 1.236 . S
N125 Mn109 2.282 . S
N125 C126 1.328 . S
N125 C130 1.318 . S
C126 N125 1.328 . S
C126 C127 1.457 . S
C126 H131 0.929 . S
C127 C126 1.457 . S
C127 C128 1.291 . S
C127 H140 0.931 . S
C128 C127 1.291 . S
C128 C129 1.373 . S
C128 H141 0.929 . S
C129 C128 1.373 . S
C129 C130 1.396 . S
C129 C136 1.403 . S
C130 C120 1.476 . S
C130 N125 1.318 . S
C130 C129 1.396 . S
H131 C126 0.929 . S
O132 Mn108 2.385 . S
O132 C110 1.234 . S
O133 Mn108 2.209 . S
O133 Mn109 2.215 . S
O133 C110 1.283 . S
O134 Mn108 2.094 . S
O134 C112 1.240 . S
O135 Mn109 2.117 . S
O135 C112 1.264 . S
C136 C129 1.403 . S
C136 C137 1.399 . S
C136 H142 0.929 . S
C137 C117 1.449 . S
C137 C136 1.399 . S
C137 H143 0.930 . S
H138 C118 0.931 . S
H139 C119 0.930 . S
H140 C127 0.931 . S
H141 C128 0.929 . S
H142 C136 0.929 . S
H143 C137 0.930 . S
Mn144 O149 2.095 . S
Mn144 O159 2.162 . S
Mn144 O160 2.297 . S
Mn144 O168 2.385 . S
Mn144 O169 2.209 . S
Mn144 O170 2.094 . S
Mn145 O150 2.121 . S
Mn145 N152 2.257 1_565 S
Mn145 N161 2.282 . S
Mn145 O169 2.215 . S
Mn145 O171 2.117 . S
C146 O168 1.234 . S
C146 O169 1.283 . S
C147 O159 1.281 . S
C147 O160 1.236 . S
C148 O170 1.240 . S
C148 O171 1.264 . S
O149 Mn144 2.095 . S
O149 C158 1.250 . S
O150 Mn145 2.121 . S
O150 C158 1.258 . S
C151 N152 1.326 . S
C151 C155 1.460 . S
C151 H157 0.929 . S
N152 Mn145 2.257 1_545 S
N152 C151 1.326 . S
N152 C156 1.362 . S
C153 C154 1.258 . S
C153 C156 1.431 . S
C153 C173 1.449 . S
C154 C153 1.258 . S
C154 C155 1.477 . S
C154 H174 0.931 . S
C155 C151 1.460 . S
C155 C154 1.477 . S
C155 H175 0.930 . S
C156 N152 1.362 . S
C156 C153 1.431 . S
C156 C166 1.476 1_545 S
H157 C151 0.929 . S
C158 O149 1.250 . S
C158 O150 1.258 . S
O159 Mn144 2.162 . S
O159 C147 1.281 . S
O160 Mn144 2.297 . S
O160 C147 1.236 . S
N161 Mn145 2.282 . S
N161 C162 1.328 . S
N161 C166 1.318 . S
C162 N161 1.328 . S
C162 C163 1.457 . S
C162 H167 0.929 . S
C163 C162 1.457 . S
C163 C164 1.291 . S
C163 H176 0.931 . S
C164 C163 1.291 . S
C164 C165 1.373 . S
C164 H177 0.929 . S
C165 C164 1.373 . S
C165 C166 1.396 . S
C165 C172 1.403 1_565 S
C166 C156 1.476 1_565 S
C166 N161 1.318 . S
C166 C165 1.396 . S
H167 C162 0.929 . S
O168 Mn144 2.385 . S
O168 C146 1.234 . S
O169 Mn144 2.209 . S
O169 Mn145 2.215 . S
O169 C146 1.283 . S
O170 Mn144 2.094 . S
O170 C148 1.240 . S
O171 Mn145 2.117 . S
O171 C148 1.264 . S
C172 C165 1.403 1_545 S
C172 C173 1.399 . S
C172 H178 0.929 . S
C173 C153 1.449 . S
C173 C172 1.399 . S
C173 H179 0.930 . S
H174 C154 0.931 . S
H175 C155 0.930 . S
H176 C163 0.931 . S
H177 C164 0.929 . S
H178 C172 0.929 . S
H179 C173 0.930 . S
Mn180 O185 2.095 . S
Mn180 O195 2.162 . S
Mn180 O196 2.297 . S
Mn180 O204 2.385 . S
Mn180 O205 2.209 . S
Mn180 O206 2.094 . S
Mn181 O186 2.121 . S
Mn181 N188 2.257 . S
Mn181 N197 2.282 . S
Mn181 O205 2.215 . S
Mn181 O207 2.117 . S
C182 O204 1.234 . S
C182 O205 1.283 . S
C183 O195 1.281 . S
C183 O196 1.236 . S
C184 O206 1.240 . S
C184 O207 1.264 . S
O185 Mn180 2.095 . S
O185 C194 1.250 . S
O186 Mn181 2.121 . S
O186 C194 1.258 . S
C187 N188 1.326 . S
C187 C191 1.460 . S
C187 H193 0.929 . S
N188 Mn181 2.257 . S
N188 C187 1.326 . S
N188 C192 1.362 . S
C189 C190 1.258 . S
C189 C192 1.431 . S
C189 C209 1.449 . S
C190 C189 1.258 . S
C190 C191 1.477 . S
C190 H210 0.931 . S
C191 C187 1.460 . S
C191 C190 1.477 . S
C191 H211 0.930 . S
C192 N188 1.362 . S
C192 C189 1.431 . S
C192 C202 1.476 . S
H193 C187 0.929 . S
C194 O185 1.250 . S
C194 O186 1.258 . S
O195 Mn180 2.162 . S
O195 C183 1.281 . S
O196 Mn180 2.297 . S
O196 C183 1.236 . S
N197 Mn181 2.282 . S
N197 C198 1.328 . S
N197 C202 1.318 . S
C198 N197 1.328 . S
C198 C199 1.457 . S
C198 H203 0.929 . S
C199 C198 1.457 . S
C199 C200 1.291 . S
C199 H212 0.931 . S
C200 C199 1.291 . S
C200 C201 1.373 . S
C200 H213 0.929 . S
C201 C200 1.373 . S
C201 C202 1.396 . S
C201 C208 1.403 . S
C202 C192 1.476 . S
C202 N197 1.318 . S
C202 C201 1.396 . S
H203 C198 0.929 . S
O204 Mn180 2.385 . S
O204 C182 1.234 . S
O205 Mn180 2.209 . S
O205 Mn181 2.215 . S
O205 C182 1.283 . S
O206 Mn180 2.094 . S
O206 C184 1.240 . S
O207 Mn181 2.117 . S
O207 C184 1.264 . S
C208 C201 1.403 . S
C208 C209 1.399 . S
C208 H214 0.929 . S
C209 C189 1.449 . S
C209 C208 1.399 . S
C209 H215 0.930 . S
H210 C190 0.931 . S
H211 C191 0.930 . S
H212 C199 0.931 . S
H213 C200 0.929 . S
H214 C208 0.929 . S
H215 C209 0.930 . S
Mn216 O221 2.095 . S
Mn216 O231 2.162 . S
Mn216 O232 2.297 . S
Mn216 O240 2.385 . S
Mn216 O241 2.209 . S
Mn216 O242 2.094 . S
Mn217 O222 2.121 . S
Mn217 N224 2.257 1_565 S
Mn217 N233 2.282 . S
Mn217 O241 2.215 . S
Mn217 O243 2.117 . S
C218 O240 1.234 . S
C218 O241 1.283 . S
C219 O231 1.281 . S
C219 O232 1.236 . S
C220 O242 1.240 . S
C220 O243 1.264 . S
O221 Mn216 2.095 . S
O221 C230 1.250 . S
O222 Mn217 2.121 . S
O222 C230 1.258 . S
C223 N224 1.326 . S
C223 C227 1.460 . S
C223 H229 0.929 . S
N224 Mn217 2.257 1_545 S
N224 C223 1.326 . S
N224 C228 1.362 . S
C225 C226 1.258 . S
C225 C228 1.431 . S
C225 C245 1.449 . S
C226 C225 1.258 . S
C226 C227 1.477 . S
C226 H246 0.931 . S
C227 C223 1.460 . S
C227 C226 1.477 . S
C227 H247 0.930 . S
C228 N224 1.362 . S
C228 C225 1.431 . S
C228 C238 1.476 1_545 S
H229 C223 0.929 . S
C230 O221 1.250 . S
C230 O222 1.258 . S
O231 Mn216 2.162 . S
O231 C219 1.281 . S
O232 Mn216 2.297 . S
O232 C219 1.236 . S
N233 Mn217 2.282 . S
N233 C234 1.328 . S
N233 C238 1.318 . S
C234 N233 1.328 . S
C234 C235 1.457 . S
C234 H239 0.929 . S
C235 C234 1.457 . S
C235 C236 1.291 . S
C235 H248 0.931 . S
C236 C235 1.291 . S
C236 C237 1.373 . S
C236 H249 0.929 . S
C237 C236 1.373 . S
C237 C238 1.396 . S
C237 C244 1.403 1_565 S
C238 C228 1.476 1_565 S
C238 N233 1.318 . S
C238 C237 1.396 . S
H239 C234 0.929 . S
O240 Mn216 2.385 . S
O240 C218 1.234 . S
O241 Mn216 2.209 . S
O241 Mn217 2.215 . S
O241 C218 1.283 . S
O242 Mn216 2.094 . S
O242 C220 1.240 . S
O243 Mn217 2.117 . S
O243 C220 1.264 . S
C244 C237 1.403 1_545 S
C244 C245 1.399 . S
C244 H250 0.929 . S
C245 C225 1.449 . S
C245 C244 1.399 . S
C245 H251 0.930 . S
H246 C226 0.931 . S
H247 C227 0.930 . S
H248 C235 0.931 . S
H249 C236 0.929 . S
H250 C244 0.929 . S
H251 C245 0.930 . S
Mn252 O257 2.095 . S
Mn252 O267 2.162 . S
Mn252 O268 2.297 . S
Mn252 O276 2.385 . S
Mn252 O277 2.209 . S
Mn252 O278 2.094 . S
Mn253 O258 2.121 . S
Mn253 N260 2.257 . S
Mn253 N269 2.282 . S
Mn253 O277 2.215 . S
Mn253 O279 2.117 . S
C254 O276 1.234 . S
C254 O277 1.283 . S
C255 O267 1.281 . S
C255 O268 1.236 . S
C256 O278 1.240 . S
C256 O279 1.264 . S
O257 Mn252 2.095 . S
O257 C266 1.250 . S
O258 Mn253 2.121 . S
O258 C266 1.258 . S
C259 N260 1.326 . S
C259 C263 1.460 . S
C259 H265 0.929 . S
N260 Mn253 2.257 . S
N260 C259 1.326 . S
N260 C264 1.362 . S
C261 C262 1.258 . S
C261 C264 1.431 . S
C261 C281 1.449 . S
C262 C261 1.258 . S
C262 C263 1.477 . S
C262 H282 0.931 . S
C263 C259 1.460 . S
C263 C262 1.477 . S
C263 H283 0.930 . S
C264 N260 1.362 . S
C264 C261 1.431 . S
C264 C274 1.476 . S
H265 C259 0.929 . S
C266 O257 1.250 . S
C266 O258 1.258 . S
O267 Mn252 2.162 . S
O267 C255 1.281 . S
O268 Mn252 2.297 . S
O268 C255 1.236 . S
N269 Mn253 2.282 . S
N269 C270 1.328 . S
N269 C274 1.318 . S
C270 N269 1.328 . S
C270 C271 1.457 . S
C270 H275 0.929 . S
C271 C270 1.457 . S
C271 C272 1.291 . S
C271 H284 0.931 . S
C272 C271 1.291 . S
C272 C273 1.373 . S
C272 H285 0.929 . S
C273 C272 1.373 . S
C273 C274 1.396 . S
C273 C280 1.403 . S
C274 C264 1.476 . S
C274 N269 1.318 . S
C274 C273 1.396 . S
H275 C270 0.929 . S
O276 Mn252 2.385 . S
O276 C254 1.234 . S
O277 Mn252 2.209 . S
O277 Mn253 2.215 . S
O277 C254 1.283 . S
O278 Mn252 2.094 . S
O278 C256 1.240 . S
O279 Mn253 2.117 . S
O279 C256 1.264 . S
C280 C273 1.403 . S
C280 C281 1.399 . S
C280 H286 0.929 . S
C281 C261 1.449 . S
C281 C280 1.399 . S
C281 H287 0.930 . S
H282 C262 0.931 . S
H283 C263 0.930 . S
H284 C271 0.931 . S
H285 C272 0.929 . S
H286 C280 0.929 . S
H287 C281 0.930 . S
Mn288 O293 2.095 . S
Mn288 O303 2.162 . S
Mn288 O304 2.297 . S
Mn288 O312 2.385 . S
Mn288 O313 2.209 . S
Mn288 O314 2.094 . S
Mn289 O294 2.121 . S
Mn289 N296 2.257 1_455 S
Mn289 N305 2.282 . S
Mn289 O313 2.215 . S
Mn289 O315 2.117 . S
C290 O312 1.234 . S
C290 O313 1.283 . S
C291 O303 1.281 . S
C291 O304 1.236 . S
C292 O314 1.240 . S
C292 O315 1.264 . S
O293 Mn288 2.095 . S
O293 C302 1.250 . S
O294 Mn289 2.121 . S
O294 C302 1.258 . S
C295 N296 1.326 . S
C295 C299 1.460 . S
C295 H301 0.929 . S
N296 Mn289 2.257 1_655 S
N296 C295 1.326 . S
N296 C300 1.362 . S
C297 C298 1.258 . S
C297 C300 1.431 . S
C297 C317 1.449 . S
C298 C297 1.258 . S
C298 C299 1.477 . S
C298 H318 0.931 . S
C299 C295 1.460 . S
C299 C298 1.477 . S
C299 H319 0.930 . S
C300 N296 1.362 . S
C300 C297 1.431 . S
C300 C310 1.476 1_655 S
H301 C295 0.929 . S
C302 O293 1.250 . S
C302 O294 1.258 . S
O303 Mn288 2.162 . S
O303 C291 1.281 . S
O304 Mn288 2.297 . S
O304 C291 1.236 . S
N305 Mn289 2.282 . S
N305 C306 1.328 . S
N305 C310 1.318 . S
C306 N305 1.328 . S
C306 C307 1.457 . S
C306 H311 0.929 . S
C307 C306 1.457 . S
C307 C308 1.291 . S
C307 H320 0.931 . S
C308 C307 1.291 . S
C308 C309 1.373 . S
C308 H321 0.929 . S
C309 C308 1.373 . S
C309 C310 1.396 . S
C309 C316 1.403 1_455 S
C310 C300 1.476 1_455 S
C310 N305 1.318 . S
C310 C309 1.396 . S
H311 C306 0.929 . S
O312 Mn288 2.385 . S
O312 C290 1.234 . S
O313 Mn288 2.209 . S
O313 Mn289 2.215 . S
O313 C290 1.283 . S
O314 Mn288 2.094 . S
O314 C292 1.240 . S
O315 Mn289 2.117 . S
O315 C292 1.264 . S
C316 C309 1.403 1_655 S
C316 C317 1.399 . S
C316 H322 0.929 . S
C317 C297 1.449 . S
C317 C316 1.399 . S
C317 H323 0.930 . S
H318 C298 0.931 . S
H319 C299 0.930 . S
H320 C307 0.931 . S
H321 C308 0.929 . S
H322 C316 0.929 . S
H323 C317 0.930 . S
Mn324 O329 2.095 . S
Mn324 O339 2.162 . S
Mn324 O340 2.297 . S
Mn324 O348 2.385 . S
Mn324 O349 2.209 . S
Mn324 O350 2.094 . S
Mn325 O330 2.121 . S
Mn325 N332 2.257 1_545 S
Mn325 N341 2.282 . S
Mn325 O349 2.215 . S
Mn325 O351 2.117 . S
C326 O348 1.234 . S
C326 O349 1.283 . S
C327 O339 1.281 . S
C327 O340 1.236 . S
C328 O350 1.240 . S
C328 O351 1.264 . S
O329 Mn324 2.095 . S
O329 C338 1.250 . S
O330 Mn325 2.121 . S
O330 C338 1.258 . S
C331 N332 1.326 . S
C331 C335 1.460 . S
C331 H337 0.929 . S
N332 Mn325 2.257 1_565 S
N332 C331 1.326 . S
N332 C336 1.362 . S
C333 C334 1.258 . S
C333 C336 1.431 . S
C333 C353 1.449 . S
C334 C333 1.258 . S
C334 C335 1.477 . S
C334 H354 0.931 . S
C335 C331 1.460 . S
C335 C334 1.477 . S
C335 H355 0.930 . S
C336 N332 1.362 . S
C336 C333 1.431 . S
C336 C346 1.476 1_565 S
H337 C331 0.929 . S
C338 O329 1.250 . S
C338 O330 1.258 . S
O339 Mn324 2.162 . S
O339 C327 1.281 . S
O340 Mn324 2.297 . S
O340 C327 1.236 . S
N341 Mn325 2.282 . S
N341 C342 1.328 . S
N341 C346 1.318 . S
C342 N341 1.328 . S
C342 C343 1.457 . S
C342 H347 0.929 . S
C343 C342 1.457 . S
C343 C344 1.291 . S
C343 H356 0.931 . S
C344 C343 1.291 . S
C344 C345 1.373 . S
C344 H357 0.929 . S
C345 C344 1.373 . S
C345 C346 1.396 . S
C345 C352 1.403 1_545 S
C346 C336 1.476 1_545 S
C346 N341 1.318 . S
C346 C345 1.396 . S
H347 C342 0.929 . S
O348 Mn324 2.385 . S
O348 C326 1.234 . S
O349 Mn324 2.209 . S
O349 Mn325 2.215 . S
O349 C326 1.283 . S
O350 Mn324 2.094 . S
O350 C328 1.240 . S
O351 Mn325 2.117 . S
O351 C328 1.264 . S
C352 C345 1.403 1_565 S
C352 C353 1.399 . S
C352 H358 0.929 . S
C353 C333 1.449 . S
C353 C352 1.399 . S
C353 H359 0.930 . S
H354 C334 0.931 . S
H355 C335 0.930 . S
H356 C343 0.931 . S
H357 C344 0.929 . S
H358 C352 0.929 . S
H359 C353 0.930 . S
Mn360 O365 2.095 . S
Mn360 O375 2.162 . S
Mn360 O376 2.297 . S
Mn360 O384 2.385 . S
Mn360 O385 2.209 . S
Mn360 O386 2.094 . S
Mn361 O366 2.121 . S
Mn361 N368 2.257 . S
Mn361 N377 2.282 . S
Mn361 O385 2.215 . S
Mn361 O387 2.117 . S
C362 O384 1.234 . S
C362 O385 1.283 . S
C363 O375 1.281 . S
C363 O376 1.236 . S
C364 O386 1.240 . S
C364 O387 1.264 . S
O365 Mn360 2.095 . S
O365 C374 1.250 . S
O366 Mn361 2.121 . S
O366 C374 1.258 . S
C367 N368 1.326 . S
C367 C371 1.460 . S
C367 H373 0.929 . S
N368 Mn361 2.257 . S
N368 C367 1.326 . S
N368 C372 1.362 . S
C369 C370 1.258 . S
C369 C372 1.431 . S
C369 C389 1.449 . S
C370 C369 1.258 . S
C370 C371 1.477 . S
C370 H390 0.931 . S
C371 C367 1.460 . S
C371 C370 1.477 . S
C371 H391 0.930 . S
C372 N368 1.362 . S
C372 C369 1.431 . S
C372 C382 1.476 . S
H373 C367 0.929 . S
C374 O365 1.250 . S
C374 O366 1.258 . S
O375 Mn360 2.162 . S
O375 C363 1.281 . S
O376 Mn360 2.297 . S
O376 C363 1.236 . S
N377 Mn361 2.282 . S
N377 C378 1.328 . S
N377 C382 1.318 . S
C378 N377 1.328 . S
C378 C379 1.457 . S
C378 H383 0.929 . S
C379 C378 1.457 . S
C379 C380 1.291 . S
C379 H392 0.931 . S
C380 C379 1.291 . S
C380 C381 1.373 . S
C380 H393 0.929 . S
C381 C380 1.373 . S
C381 C382 1.396 . S
C381 C388 1.403 . S
C382 C372 1.476 . S
C382 N377 1.318 . S
C382 C381 1.396 . S
H383 C378 0.929 . S
O384 Mn360 2.385 . S
O384 C362 1.234 . S
O385 Mn360 2.209 . S
O385 Mn361 2.215 . S
O385 C362 1.283 . S
O386 Mn360 2.094 . S
O386 C364 1.240 . S
O387 Mn361 2.117 . S
O387 C364 1.264 . S
C388 C381 1.403 . S
C388 C389 1.399 . S
C388 H394 0.929 . S
C389 C369 1.449 . S
C389 C388 1.399 . S
C389 H395 0.930 . S
H390 C370 0.931 . S
H391 C371 0.930 . S
H392 C379 0.931 . S
H393 C380 0.929 . S
H394 C388 0.929 . S
H395 C389 0.930 . S
Mn396 O401 2.095 . S
Mn396 O411 2.162 . S
Mn396 O412 2.297 . S
Mn396 O420 2.385 . S
Mn396 O421 2.209 . S
Mn396 O422 2.094 . S
Mn397 O402 2.121 . S
Mn397 N404 2.257 1_655 S
Mn397 N413 2.282 . S
Mn397 O421 2.215 . S
Mn397 O423 2.117 . S
C398 O420 1.234 . S
C398 O421 1.283 . S
C399 O411 1.281 . S
C399 O412 1.236 . S
C400 O422 1.240 . S
C400 O423 1.264 . S
O401 Mn396 2.095 . S
O401 C410 1.250 . S
O402 Mn397 2.121 . S
O402 C410 1.258 . S
C403 N404 1.326 . S
C403 C407 1.460 . S
C403 H409 0.929 . S
N404 Mn397 2.257 1_455 S
N404 C403 1.326 . S
N404 C408 1.362 . S
C405 C406 1.258 . S
C405 C408 1.431 . S
C405 C425 1.449 . S
C406 C405 1.258 . S
C406 C407 1.477 . S
C406 H426 0.931 . S
C407 C403 1.460 . S
C407 C406 1.477 . S
C407 H427 0.930 . S
C408 N404 1.362 . S
C408 C405 1.431 . S
C408 C418 1.476 1_455 S
H409 C403 0.929 . S
C410 O401 1.250 . S
C410 O402 1.258 . S
O411 Mn396 2.162 . S
O411 C399 1.281 . S
O412 Mn396 2.297 . S
O412 C399 1.236 . S
N413 Mn397 2.282 . S
N413 C414 1.328 . S
N413 C418 1.318 . S
C414 N413 1.328 . S
C414 C415 1.457 . S
C414 H419 0.929 . S
C415 C414 1.457 . S
C415 C416 1.291 . S
C415 H428 0.931 . S
C416 C415 1.291 . S
C416 C417 1.373 . S
C416 H429 0.929 . S
C417 C416 1.373 . S
C417 C418 1.396 . S
C417 C424 1.403 1_655 S
C418 C408 1.476 1_655 S
C418 N413 1.318 . S
C418 C417 1.396 . S
H419 C414 0.929 . S
O420 Mn396 2.385 . S
O420 C398 1.234 . S
O421 Mn396 2.209 . S
O421 Mn397 2.215 . S
O421 C398 1.283 . S
O422 Mn396 2.094 . S
O422 C400 1.240 . S
O423 Mn397 2.117 . S
O423 C400 1.264 . S
C424 C417 1.403 1_455 S
C424 C425 1.399 . S
C424 H430 0.929 . S
C425 C405 1.449 . S
C425 C424 1.399 . S
C425 H431 0.930 . S
H426 C406 0.931 . S
H427 C407 0.930 . S
H428 C415 0.931 . S
H429 C416 0.929 . S
H430 C424 0.929 . S
H431 C425 0.930 . S
H432 C438 0.930 . S
H433 C442 0.930 . S
H434 C447 0.929 . S
H435 C445 0.929 . S
H436 C440 0.929 1_455 S
H437 C446 0.929 1_655 S
C438 H432 0.930 . S
C438 C439 1.367 . S
C438 C446 1.378 . S
C439 C438 1.367 . S
C439 C447 1.433 . S
C440 H436 0.929 1_655 S
C440 C442 1.382 . S
C440 C444 1.346 . S
C441 C444 1.463 1_454 S
C441 C446 1.350 . S
C441 N449 1.427 . S
C442 H433 0.930 . S
C442 C440 1.382 . S
C442 C443 1.367 . S
C443 C442 1.367 . S
C443 C445 1.433 . S
C444 C440 1.346 . S
C444 C441 1.463 1_656 S
C444 N448 1.427 . S
C445 H435 0.929 . S
C445 C443 1.433 . S
C445 N448 1.384 . S
C446 H437 0.929 1_455 S
C446 C438 1.378 . S
C446 C441 1.350 . S
C447 H434 0.929 . S
C447 C439 1.433 . S
C447 N449 1.384 . S
N448 C444 1.427 . S
N448 C445 1.384 . S
N449 C441 1.427 . S
N449 C447 1.384 . S
H450 C456 0.930 . S
H451 C460 0.930 . S
H452 C465 0.948 . S
H453 C463 0.947 . S
H454 C458 0.929 . S
H455 C464 0.929 . S
C456 H450 0.930 . S
C456 C457 1.367 . S
C456 C464 1.378 . S
C457 C456 1.367 . S
C457 C465 1.408 1_565 S
C458 H454 0.929 . S
C458 C460 1.378 . S
C458 C462 1.350 . S
C459 C462 1.463 1_565 S
C459 C464 1.350 . S
C459 N467 1.427 1_565 S
C460 H451 0.930 . S
C460 C458 1.378 . S
C460 C461 1.367 . S
C461 C460 1.367 . S
C461 C463 1.408 1_545 S
C462 C458 1.350 . S
C462 C459 1.463 1_545 S
C462 N466 1.427 1_545 S
C463 H453 0.947 . S
C463 C461 1.408 1_565 S
C463 N466 1.390 . S
C464 H455 0.929 . S
C464 C456 1.378 . S
C464 C459 1.350 . S
C465 H452 0.948 . S
C465 C457 1.408 1_545 S
C465 N467 1.390 . S
N466 C462 1.427 1_565 S
N466 C463 1.390 . S
N467 C459 1.427 1_545 S
N467 C465 1.390 . S
H468 C474 0.930 . S
H469 C478 0.930 . S
H470 C483 0.929 . S
H471 C481 0.929 . S
H472 C476 0.929 . S
H473 C482 0.929 . S
C474 H468 0.930 . S
C474 C475 1.367 . S
C474 C482 1.378 . S
C475 C474 1.367 . S
C475 C483 1.433 . S
C476 H472 0.929 . S
C476 C478 1.378 . S
C476 C480 1.350 . S
C477 C480 1.463 1_554 S
C477 C482 1.350 . S
C477 N485 1.427 . S
C478 H469 0.930 . S
C478 C476 1.378 . S
C478 C479 1.367 . S
C479 C478 1.367 . S
C479 C481 1.433 . S
C480 C476 1.350 . S
C480 C477 1.463 1_556 S
C480 N484 1.427 . S
C481 H471 0.929 . S
C481 C479 1.433 . S
C481 N484 1.384 . S
C482 H473 0.929 . S
C482 C474 1.378 . S
C482 C477 1.350 . S
C483 H470 0.929 . S
C483 C475 1.433 . S
C483 N485 1.384 . S
N484 C480 1.427 . S
N484 C481 1.384 . S
N485 C477 1.427 . S
N485 C483 1.384 . S
H486 C492 0.930 . S
H487 C496 0.930 . S
H488 C501 0.929 . S
H489 C499 0.929 . S
H490 C494 0.929 . S
H491 C500 0.929 . S
C492 H486 0.930 . S
C492 C493 1.367 . S
C492 C500 1.378 . S
C493 C492 1.367 . S
C493 C501 1.433 . S
C494 H490 0.929 . S
C494 C496 1.378 . S
C494 C498 1.350 . S
C495 C498 1.463 1_455 S
C495 C500 1.350 . S
C495 N503 1.427 . S
C496 H487 0.930 . S
C496 C494 1.378 . S
C496 C497 1.367 . S
C497 C496 1.367 . S
C497 C499 1.433 . S
C498 C494 1.350 . S
C498 C495 1.463 1_655 S
C498 N502 1.427 . S
C499 H489 0.929 . S
C499 C497 1.433 . S
C499 N502 1.384 . S
C500 H491 0.929 . S
C500 C492 1.378 . S
C500 C495 1.350 . S
C501 H488 0.929 . S
C501 C493 1.433 . S
C501 N503 1.384 . S
N502 C498 1.427 . S
N502 C499 1.384 . S
N503 C495 1.427 . S
N503 C501 1.384 . S
H504 C510 0.930 . S
H505 C514 0.930 . S
H506 C519 0.929 . S
H507 C517 0.929 . S
H508 C512 0.929 . S
H509 C518 0.929 . S
C510 H504 0.930 . S
C510 C511 1.367 1_565 S
C510 C518 1.378 . S
C511 C510 1.367 1_545 S
C511 C519 1.433 . S
C512 H508 0.929 . S
C512 C514 1.378 . S
C512 C516 1.350 1_545 S
C513 C516 1.463 1_546 S
C513 C518 1.350 1_545 S
C513 N521 1.427 . S
C514 H505 0.930 . S
C514 C512 1.378 . S
C514 C515 1.367 1_545 S
C515 C514 1.367 1_565 S
C515 C517 1.433 . S
C516 C512 1.350 1_565 S
C516 C513 1.463 1_564 S
C516 N520 1.427 . S
C517 H507 0.929 . S
C517 C515 1.433 . S
C517 N520 1.384 . S
C518 H509 0.929 . S
C518 C510 1.378 . S
C518 C513 1.350 1_565 S
C519 H506 0.929 . S
C519 C511 1.433 . S
C519 N521 1.384 . S
N520 C516 1.427 . S
N520 C517 1.384 . S
N521 C513 1.427 . S
N521 C519 1.384 . S
H522 C528 0.930 . S
H523 C532 0.930 . S
H524 C537 0.929 . S
H525 C535 0.929 . S
H526 C530 0.929 . S
H527 C536 0.929 . S
C528 H522 0.930 . S
C528 C529 1.367 . S
C528 C536 1.378 . S
C529 C528 1.367 . S
C529 C537 1.433 . S
C530 H526 0.929 . S
C530 C532 1.378 . S
C530 C534 1.350 . S
C531 C534 1.463 . S
C531 C536 1.350 . S
C531 N539 1.427 . S
C532 H523 0.930 . S
C532 C530 1.378 . S
C532 C533 1.367 . S
C533 C532 1.367 . S
C533 C535 1.433 . S
C534 C530 1.350 . S
C534 C531 1.463 . S
C534 N538 1.427 . S
C535 H525 0.929 . S
C535 C533 1.433 . S
C535 N538 1.384 . S
C536 H527 0.929 . S
C536 C528 1.378 . S
C536 C531 1.350 . S
C537 H524 0.929 . S
C537 C529 1.433 . S
C537 N539 1.384 . S
N538 C534 1.427 . S
N538 C535 1.384 . S
N539 C531 1.427 . S
N539 C537 1.384 . S
H540 C546 0.930 . S
H541 C550 0.930 . S
H542 C555 0.929 . S
H543 C553 0.929 . S
H544 C548 0.929 . S
H545 C554 0.929 . S
C546 H540 0.930 . S
C546 C547 1.367 . S
C546 C554 1.378 . S
C547 C546 1.367 . S
C547 C555 1.433 . S
C548 H544 0.929 . S
C548 C550 1.378 . S
C548 C552 1.350 . S
C549 C552 1.463 1_656 S
C549 C554 1.350 . S
C549 N557 1.427 . S
C550 H541 0.930 . S
C550 C548 1.378 . S
C550 C551 1.367 . S
C551 C550 1.367 . S
C551 C553 1.433 . S
C552 C548 1.350 . S
C552 C549 1.463 1_454 S
C552 N556 1.427 1_455 S
C553 H543 0.929 . S
C553 C551 1.433 . S
C553 N556 1.384 1_455 S
C554 H545 0.929 . S
C554 C546 1.378 . S
C554 C549 1.350 . S
C555 H542 0.929 . S
C555 C547 1.433 . S
C555 N557 1.384 . S
N556 C552 1.427 1_655 S
N556 C553 1.384 1_655 S
N557 C549 1.427 . S
N557 C555 1.384 . S
H558 C564 0.930 . S
H559 C568 0.930 . S
H560 C573 0.929 . S
H561 C571 0.929 . S
H562 C566 0.929 . S
H563 C572 0.929 . S
C564 H558 0.930 . S
C564 C565 1.367 1_545 S
C564 C572 1.378 . S
C565 C564 1.367 1_565 S
C565 C573 1.433 . S
C566 H562 0.929 . S
C566 C568 1.378 . S
C566 C570 1.350 1_565 S
C567 C570 1.463 1_565 S
C567 C572 1.350 1_565 S
C567 N575 1.427 . S
C568 H559 0.930 . S
C568 C566 1.378 . S
C568 C569 1.367 1_565 S
C569 C568 1.367 1_545 S
C569 C571 1.433 . S
C570 C566 1.350 1_545 S
C570 C567 1.463 1_545 S
C570 N574 1.427 . S
C571 H561 0.929 . S
C571 C569 1.433 . S
C571 N574 1.384 . S
C572 H563 0.929 . S
C572 C564 1.378 . S
C572 C567 1.350 1_545 S
C573 H560 0.929 . S
C573 C565 1.433 . S
C573 N575 1.384 . S
N574 C570 1.427 . S
N574 C571 1.384 . S
N575 C567 1.427 . S
N575 C573 1.384 . S
H576 C582 0.930 . S
H577 C586 0.930 . S
H578 C591 0.929 . S
H579 C589 0.929 . S
H580 C584 0.929 . S
H581 C590 0.929 . S
C582 H576 0.930 . S
C582 C583 1.367 . S
C582 C590 1.378 . S
C583 C582 1.367 . S
C583 C591 1.433 . S
C584 H580 0.929 . S
C584 C586 1.378 . S
C584 C588 1.350 . S
C585 C588 1.463 1_556 S
C585 C590 1.350 . S
C585 N593 1.427 . S
C586 H577 0.930 . S
C586 C584 1.378 . S
C586 C587 1.367 . S
C587 C586 1.367 . S
C587 C589 1.433 . S
C588 C584 1.350 . S
C588 C585 1.463 1_554 S
C588 N592 1.427 . S
C589 H579 0.929 . S
C589 C587 1.433 . S
C589 N592 1.384 . S
C590 H581 0.929 . S
C590 C582 1.378 . S
C590 C585 1.350 . S
C591 H578 0.929 . S
C591 C583 1.433 . S
C591 N593 1.384 . S
N592 C588 1.427 . S
N592 C589 1.384 . S
N593 C585 1.427 . S
N593 C591 1.384 . S
H594 C600 0.930 . S
H595 C604 0.930 . S
H596 C609 0.929 . S
H597 C607 0.929 . S
H598 C602 0.929 1_655 S
H599 C608 0.929 1_455 S
C600 H594 0.930 . S
C600 C601 1.367 . S
C600 C608 1.378 . S
C601 C600 1.367 . S
C601 C609 1.433 . S
C602 H598 0.929 1_455 S
C602 C604 1.378 . S
C602 C606 1.350 . S
C603 C606 1.463 1_655 S
C603 C608 1.350 . S
C603 N611 1.427 . S
C604 H595 0.930 . S
C604 C602 1.378 . S
C604 C605 1.367 . S
C605 C604 1.367 . S
C605 C607 1.433 . S
C606 C602 1.350 . S
C606 C603 1.463 1_455 S
C606 N610 1.427 . S
C607 H597 0.929 . S
C607 C605 1.433 . S
C607 N610 1.384 . S
C608 H599 0.929 1_655 S
C608 C600 1.378 . S
C608 C603 1.350 . S
C609 H596 0.929 . S
C609 C601 1.433 . S
C609 N611 1.384 . S
N610 C606 1.427 . S
N610 C607 1.384 . S
N611 C603 1.427 . S
N611 C609 1.384 . S
H612 C618 0.930 1_565 S
H613 C622 0.930 1_545 S
H614 C627 0.929 . S
H615 C625 0.929 . S
H616 C620 0.929 . S
H617 C626 0.929 . S
C618 H612 0.930 1_545 S
C618 C619 1.367 . S
C618 C626 1.378 1_545 S
C619 C618 1.367 . S
C619 C627 1.433 . S
C620 H616 0.929 . S
C620 C622 1.378 1_545 S
C620 C624 1.350 1_545 S
C621 C624 1.463 1_546 S
C621 C626 1.350 1_545 S
C621 N629 1.427 . S
C622 H613 0.930 1_565 S
C622 C620 1.378 1_565 S
C622 C623 1.367 . S
C623 C622 1.367 . S
C623 C625 1.433 . S
C624 C620 1.350 1_565 S
C624 C621 1.463 1_564 S
C624 N628 1.427 . S
C625 H615 0.929 . S
C625 C623 1.433 . S
C625 N628 1.384 . S
C626 H617 0.929 . S
C626 C618 1.378 1_565 S
C626 C621 1.350 1_565 S
C627 H614 0.929 . S
C627 C619 1.433 . S
C627 N629 1.384 . S
N628 C624 1.427 . S
N628 C625 1.384 . S
N629 C621 1.427 . S
N629 C627 1.384 . S
H630 C636 0.930 . S
H631 C640 0.930 . S
H632 C645 0.929 . S
H633 C643 0.929 . S
H634 C638 0.929 . S
H635 C644 0.929 . S
C636 H630 0.930 . S
C636 C637 1.367 . S
C636 C644 1.378 . S
C637 C636 1.367 . S
C637 C645 1.433 . S
C638 H634 0.929 . S
C638 C640 1.378 . S
C638 C642 1.350 . S
C639 C642 1.463 . S
C639 C644 1.350 . S
C639 N647 1.427 . S
C640 H631 0.930 . S
C640 C638 1.378 . S
C640 C641 1.367 . S
C641 C640 1.367 . S
C641 C643 1.433 . S
C642 C638 1.350 . S
C642 C639 1.463 . S
C642 N646 1.427 . S
C643 H633 0.929 . S
C643 C641 1.433 . S
C643 N646 1.384 . S
C644 H635 0.929 . S
C644 C636 1.378 . S
C644 C639 1.350 . S
C645 H632 0.929 . S
C645 C637 1.433 . S
C645 N647 1.384 . S
N646 C642 1.427 . S
N646 C643 1.384 . S
N647 C639 1.427 . S
N647 C645 1.384 . S
H648 C654 0.930 . S
H649 C658 0.930 . S
H650 C663 0.929 . S
H651 C661 0.929 . S
H652 C656 0.929 . S
H653 C662 0.929 . S
C654 H648 0.930 . S
C654 C655 1.367 . S
C654 C662 1.378 . S
C655 C654 1.367 . S
C655 C663 1.433 . S
C656 H652 0.929 . S
C656 C658 1.378 . S
C656 C660 1.350 . S
C657 C660 1.463 . S
C657 C662 1.350 . S
C657 N665 1.427 . S
C658 H649 0.930 . S
C658 C656 1.378 . S
C658 C659 1.367 . S
C659 C658 1.367 . S
C659 C661 1.433 . S
C660 C656 1.350 . S
C660 C657 1.463 . S
C660 N664 1.427 . S
C661 H651 0.929 . S
C661 C659 1.433 . S
C661 N664 1.384 . S
C662 H653 0.929 . S
C662 C654 1.378 . S
C662 C657 1.350 . S
C663 H650 0.929 . S
C663 C655 1.433 . S
C663 N665 1.384 . S
N664 C660 1.427 . S
N664 C661 1.384 . S
N665 C657 1.427 . S
N665 C663 1.384 . S
H666 C672 0.930 . S
H667 C676 0.930 . S
H668 C681 0.929 . S
H669 C679 0.929 . S
H670 C674 0.929 . S
H671 C680 0.929 . S
C672 H666 0.930 . S
C672 C673 1.367 . S
C672 C680 1.378 . S
C673 C672 1.367 . S
C673 C681 1.433 . S
C674 H670 0.929 . S
C674 C676 1.378 . S
C674 C678 1.350 . S
C675 C678 1.463 . S
C675 C680 1.350 . S
C675 N683 1.427 . S
C676 H667 0.930 . S
C676 C674 1.378 . S
C676 C677 1.367 . S
C677 C676 1.367 . S
C677 C679 1.433 . S
C678 C674 1.350 . S
C678 C675 1.463 . S
C678 N682 1.427 . S
C679 H669 0.929 . S
C679 C677 1.433 . S
C679 N682 1.384 . S
C680 H671 0.929 . S
C680 C672 1.378 . S
C680 C675 1.350 . S
C681 H668 0.929 . S
C681 C673 1.433 . S
C681 N683 1.384 . S
N682 C678 1.427 . S
N682 C679 1.384 . S
N683 C675 1.427 . S
N683 C681 1.384 . S
H684 C690 0.930 . S
H685 C694 0.930 . S
H686 C699 0.929 . S
H687 C697 0.929 . S
H688 C692 0.929 . S
H689 C698 0.929 . S
C690 H684 0.930 . S
C690 C691 1.367 . S
C690 C698 1.378 . S
C691 C690 1.367 . S
C691 C699 1.433 . S
C692 H688 0.929 . S
C692 C694 1.378 . S
C692 C696 1.350 . S
C693 C696 1.463 . S
C693 C698 1.350 . S
C693 N701 1.427 . S
C694 H685 0.930 . S
C694 C692 1.378 . S
C694 C695 1.367 . S
C695 C694 1.367 . S
C695 C697 1.433 . S
C696 C692 1.350 . S
C696 C693 1.463 . S
C696 N700 1.427 . S
C697 H687 0.929 . S
C697 C695 1.433 . S
C697 N700 1.384 . S
C698 H689 0.929 . S
C698 C690 1.378 . S
C698 C693 1.350 . S
C699 H686 0.929 . S
C699 C691 1.433 . S
C699 N701 1.384 . S
N700 C696 1.427 . S
N700 C697 1.384 . S
N701 C693 1.427 . S
N701 C699 1.384 . S
H702 C708 0.930 . S
H703 C712 0.930 . S
H704 C717 0.929 . S
H705 C715 0.929 . S
H706 C710 0.929 . S
H707 C716 0.929 . S
C708 H702 0.930 . S
C708 C709 1.367 . S
C708 C716 1.378 . S
C709 C708 1.367 . S
C709 C717 1.433 . S
C710 H706 0.929 . S
C710 C712 1.378 . S
C710 C714 1.350 . S
C711 C714 1.463 . S
C711 C716 1.350 . S
C711 N719 1.427 . S
C712 H703 0.930 . S
C712 C710 1.378 . S
C712 C713 1.367 . S
C713 C712 1.367 . S
C713 C715 1.433 . S
C714 C710 1.350 . S
C714 C711 1.463 . S
C714 N718 1.427 . S
C715 H705 0.929 . S
C715 C713 1.433 . S
C715 N718 1.384 . S
C716 H707 0.929 . S
C716 C708 1.378 . S
C716 C711 1.350 . S
C717 H704 0.929 . S
C717 C709 1.433 . S
C717 N719 1.384 . S
N718 C714 1.427 . S
N718 C715 1.384 . S
N719 C711 1.427 . S
N719 C717 1.384 . S
H720 C726 0.930 . S
H721 C730 0.930 . S
H722 C735 0.929 . S
H723 C733 0.929 . S
H724 C728 0.929 . S
H725 C734 0.929 . S
C726 H720 0.930 . S
C726 C727 1.367 . S
C726 C734 1.378 . S
C727 C726 1.367 . S
C727 C735 1.433 . S
C728 H724 0.929 . S
C728 C730 1.378 . S
C728 C732 1.350 . S
C729 C732 1.463 . S
C729 C734 1.350 . S
C729 N737 1.427 . S
C730 H721 0.930 . S
C730 C728 1.378 . S
C730 C731 1.367 . S
C731 C730 1.367 . S
C731 C733 1.433 . S
C732 C728 1.350 . S
C732 C729 1.463 . S
C732 N736 1.427 . S
C733 H723 0.929 . S
C733 C731 1.433 . S
C733 N736 1.384 . S
C734 H725 0.929 . S
C734 C726 1.378 . S
C734 C729 1.350 . S
C735 H722 0.929 . S
C735 C727 1.433 . S
C735 N737 1.384 . S
N736 C732 1.427 . S
N736 C733 1.384 . S
N737 C729 1.427 . S
N737 C735 1.384 . S
H738 C744 0.930 . S
H739 C748 0.930 . S
H740 C753 0.929 . S
H741 C751 0.929 . S
H742 C746 0.929 . S
H743 C752 0.929 . S
C744 H738 0.930 . S
C744 C745 1.367 . S
C744 C752 1.378 . S
C745 C744 1.367 . S
C745 C753 1.433 . S
C746 H742 0.929 . S
C746 C748 1.378 . S
C746 C750 1.350 . S
C747 C750 1.463 . S
C747 C752 1.350 . S
C747 N755 1.427 . S
C748 H739 0.930 . S
C748 C746 1.378 . S
C748 C749 1.367 . S
C749 C748 1.367 . S
C749 C751 1.433 . S
C750 C746 1.350 . S
C750 C747 1.463 . S
C750 N754 1.427 . S
C751 H741 0.929 . S
C751 C749 1.433 . S
C751 N754 1.384 . S
C752 H743 0.929 . S
C752 C744 1.378 . S
C752 C747 1.350 . S
C753 H740 0.929 . S
C753 C745 1.433 . S
C753 N755 1.384 . S
N754 C750 1.427 . S
N754 C751 1.384 . S
N755 C747 1.427 . S
N755 C753 1.384 . S
H756 C762 0.930 . S
H757 C766 0.930 . S
H758 C771 0.929 . S
H759 C769 0.929 . S
H760 C764 0.929 . S
H761 C770 0.929 . S
C762 H756 0.930 . S
C762 C763 1.367 . S
C762 C770 1.378 . S
C763 C762 1.367 . S
C763 C771 1.433 . S
C764 H760 0.929 . S
C764 C766 1.378 . S
C764 C768 1.350 . S
C765 C768 1.463 . S
C765 C770 1.350 . S
C765 N773 1.427 . S
C766 H757 0.930 . S
C766 C764 1.378 . S
C766 C767 1.367 . S
C767 C766 1.367 . S
C767 C769 1.433 . S
C768 C764 1.350 . S
C768 C765 1.463 . S
C768 N772 1.427 . S
C769 H759 0.929 . S
C769 C767 1.433 . S
C769 N772 1.384 . S
C770 H761 0.929 . S
C770 C762 1.378 . S
C770 C765 1.350 . S
C771 H758 0.929 . S
C771 C763 1.433 . S
C771 N773 1.384 . S
N772 C768 1.427 . S
N772 C769 1.384 . S
N773 C765 1.427 . S
N773 C771 1.384 . S
H774 C780 0.930 . S
H775 C784 0.930 . S
H776 C789 0.929 . S
H777 C787 0.929 . S
H778 C782 0.929 . S
H779 C788 0.929 . S
C780 H774 0.930 . S
C780 C781 1.367 . S
C780 C788 1.378 . S
C781 C780 1.367 . S
C781 C789 1.433 . S
C782 H778 0.929 . S
C782 C784 1.378 . S
C782 C786 1.350 . S
C783 C786 1.463 . S
C783 C788 1.350 . S
C783 N791 1.427 . S
C784 H775 0.930 . S
C784 C782 1.378 . S
C784 C785 1.367 . S
C785 C784 1.367 . S
C785 C787 1.433 . S
C786 C782 1.350 . S
C786 C783 1.463 . S
C786 N790 1.427 . S
C787 H777 0.929 . S
C787 C785 1.433 . S
C787 N790 1.384 . S
C788 H779 0.929 . S
C788 C780 1.378 . S
C788 C783 1.350 . S
C789 H776 0.929 . S
C789 C781 1.433 . S
C789 N791 1.384 . S
N790 C786 1.427 . S
N790 C787 1.384 . S
N791 C783 1.427 . S
N791 C789 1.384 . S
H792 C798 0.930 . S
H793 C802 0.930 . S
H794 C807 0.929 . S
H795 C805 0.929 . S
H796 C800 0.929 . S
H797 C806 0.929 . S
C798 H792 0.930 . S
C798 C799 1.367 . S
C798 C806 1.378 . S
C799 C798 1.367 . S
C799 C807 1.433 . S
C800 H796 0.929 . S
C800 C802 1.378 . S
C800 C804 1.350 . S
C801 C804 1.463 . S
C801 C806 1.350 . S
C801 N809 1.427 . S
C802 H793 0.930 . S
C802 C800 1.378 . S
C802 C803 1.367 . S
C803 C802 1.367 . S
C803 C805 1.433 . S
C804 C800 1.350 . S
C804 C801 1.463 . S
C804 N808 1.427 . S
C805 H795 0.929 . S
C805 C803 1.433 . S
C805 N808 1.384 . S
C806 H797 0.929 . S
C806 C798 1.378 . S
C806 C801 1.350 . S
C807 H794 0.929 . S
C807 C799 1.433 . S
C807 N809 1.384 . S
N808 C804 1.427 . S
N808 C805 1.384 . S
N809 C801 1.427 . S
N809 C807 1.384 . S
H810 C816 0.930 . S
H811 C820 0.930 . S
H812 C825 0.929 . S
H813 C823 0.929 . S
H814 C818 0.929 . S
H815 C824 0.929 . S
C816 H810 0.930 . S
C816 C817 1.367 . S
C816 C824 1.378 . S
C817 C816 1.367 . S
C817 C825 1.433 . S
C818 H814 0.929 . S
C818 C820 1.378 . S
C818 C822 1.350 . S
C819 C822 1.463 . S
C819 C824 1.350 . S
C819 N827 1.427 . S
C820 H811 0.930 . S
C820 C818 1.378 . S
C820 C821 1.367 . S
C821 C820 1.367 . S
C821 C823 1.433 . S
C822 C818 1.350 . S
C822 C819 1.463 . S
C822 N826 1.427 . S
C823 H813 0.929 . S
C823 C821 1.433 . S
C823 N826 1.384 . S
C824 H815 0.929 . S
C824 C816 1.378 . S
C824 C819 1.350 . S
C825 H812 0.929 . S
C825 C817 1.433 . S
C825 N827 1.384 . S
N826 C822 1.427 . S
N826 C823 1.384 . S
N827 C819 1.427 . S
N827 C825 1.384 . S
H828 C834 0.930 . S
H829 C838 0.930 . S
H830 C843 0.929 . S
H831 C841 0.929 . S
H832 C836 0.929 . S
H833 C842 0.929 . S
C834 H828 0.930 . S
C834 C835 1.367 . S
C834 C842 1.378 . S
C835 C834 1.367 . S
C835 C843 1.433 . S
C836 H832 0.929 . S
C836 C838 1.378 . S
C836 C840 1.350 . S
C837 C840 1.463 . S
C837 C842 1.350 . S
C837 N845 1.427 . S
C838 H829 0.930 . S
C838 C836 1.378 . S
C838 C839 1.367 . S
C839 C838 1.367 . S
C839 C841 1.433 . S
C840 C836 1.350 . S
C840 C837 1.463 . S
C840 N844 1.427 . S
C841 H831 0.929 . S
C841 C839 1.433 . S
C841 N844 1.384 . S
C842 H833 0.929 . S
C842 C834 1.378 . S
C842 C837 1.350 . S
C843 H830 0.929 . S
C843 C835 1.433 . S
C843 N845 1.384 . S
N844 C840 1.427 . S
N844 C841 1.384 . S
N845 C837 1.427 . S
N845 C843 1.384 . S
H846 C852 0.930 . S
H847 C856 0.930 . S
H848 C861 0.929 . S
H849 C859 0.929 . S
H850 C854 0.929 . S
H851 C860 0.929 . S
C852 H846 0.930 . S
C852 C853 1.367 . S
C852 C860 1.378 . S
C853 C852 1.367 . S
C853 C861 1.433 . S
C854 H850 0.929 . S
C854 C856 1.378 . S
C854 C858 1.350 . S
C855 C858 1.463 . S
C855 C860 1.350 . S
C855 N863 1.427 . S
C856 H847 0.930 . S
C856 C854 1.378 . S
C856 C857 1.367 . S
C857 C856 1.367 . S
C857 C859 1.433 . S
C858 C854 1.350 . S
C858 C855 1.463 . S
C858 N862 1.427 . S
C859 H849 0.929 . S
C859 C857 1.433 . S
C859 N862 1.384 . S
C860 H851 0.929 . S
C860 C852 1.378 . S
C860 C855 1.350 . S
C861 H848 0.929 . S
C861 C853 1.433 . S
C861 N863 1.384 . S
N862 C858 1.427 . S
N862 C859 1.384 . S
N863 C855 1.427 . S
N863 C861 1.384 . S
C439 C3 1.331 . S
C443 C398 1.301 . S
C457 C218 1.461 . S
C461 C38 1.455 . S
C475 C74 1.306 . S
C479 C255 1.327 . S
C493 C290 1.306 . S
C497 C111 1.327 . S
C511 C326 1.467 . S
C515 C146 1.466 . S
C529 C363 1.327 . S
C533 C182 1.302 . S
C547 C112 1.249 . S
C551 C302 1.258 . S
C565 C158 1.388 . S
C569 C338 1.393 . S
C583 C194 1.249 . S
C587 C364 1.240 . S
C601 C410 1.249 . S
C605 C4 1.241 . S
C619 C50 1.386 . S
C623 C230 1.393 . S
C637 C86 1.250 . S
C641 C256 1.239 . S
C655 C291 1.605 . S
C659 C2 1.589 . S
C673 C327 1.589 . S
C677 C39 1.587 . S
C691 C75 1.605 . S
C695 C362 1.592 . S
C709 C110 1.590 . S
C713 C399 1.606 . S
C727 C147 1.587 . S
C731 C219 1.586 . S
C745 C254 1.591 . S
C749 C183 1.607 . S
C763 C14 1.447 . S
C767 C374 1.449 . S
C781 C400 1.538 . S
C785 C40 1.539 . S
C799 C76 1.540 . S
C803 C220 1.540 . S
C817 C122 1.447 . S
C821 C266 1.450 . S
C835 C148 1.539 . S
C839 C292 1.538 . S
C853 C184 1.540 . S
C857 C328 1.540 . S
